# Generated by pormake.
# Topology wkq, (6)-cn, num edge types: 1
# Building blocks:
#     Node 0, Type 0, BuildingBlock: IZENUY_clean_sbu_0, # of connection points: 6
#     Node 1, Type 0, BuildingBlock: IZENUY_clean_sbu_0, # of connection points: 6
#     Node 2, Type 0, BuildingBlock: IZENUY_clean_sbu_0, # of connection points: 6
#     Node 3, Type 0, BuildingBlock: IZENUY_clean_sbu_0, # of connection points: 6
#     Node 4, Type 0, BuildingBlock: IZENUY_clean_sbu_0, # of connection points: 6
#     Node 5, Type 0, BuildingBlock: IZENUY_clean_sbu_0, # of connection points: 6
#     Node 6, Type 0, BuildingBlock: IZENUY_clean_sbu_0, # of connection points: 6
#     Node 7, Type 0, BuildingBlock: IZENUY_clean_sbu_0, # of connection points: 6
#     Node 8, Type 0, BuildingBlock: IZENUY_clean_sbu_0, # of connection points: 6
#     Node 9, Type 0, BuildingBlock: IZENUY_clean_sbu_0, # of connection points: 6
#     Node 10, Type 0, BuildingBlock: IZENUY_clean_sbu_0, # of connection points: 6
#     Node 11, Type 0, BuildingBlock: IZENUY_clean_sbu_0, # of connection points: 6
#     Edge 12, Type (0, 0), BuildingBlock: EYOCIG_clean_linker_4, # of connection points: 2
#     Edge 13, Type (0, 0), BuildingBlock: EYOCIG_clean_linker_4, # of connection points: 2
#     Edge 14, Type (0, 0), BuildingBlock: EYOCIG_clean_linker_4, # of connection points: 2
#     Edge 15, Type (0, 0), BuildingBlock: EYOCIG_clean_linker_4, # of connection points: 2
#     Edge 16, Type (0, 0), BuildingBlock: EYOCIG_clean_linker_4, # of connection points: 2
#     Edge 17, Type (0, 0), BuildingBlock: EYOCIG_clean_linker_4, # of connection points: 2
#     Edge 18, Type (0, 0), BuildingBlock: EYOCIG_clean_linker_4, # of connection points: 2
#     Edge 19, Type (0, 0), BuildingBlock: EYOCIG_clean_linker_4, # of connection points: 2
#     Edge 20, Type (0, 0), BuildingBlock: EYOCIG_clean_linker_4, # of connection points: 2
#     Edge 21, Type (0, 0), BuildingBlock: EYOCIG_clean_linker_4, # of connection points: 2
#     Edge 22, Type (0, 0), BuildingBlock: EYOCIG_clean_linker_4, # of connection points: 2
#     Edge 23, Type (0, 0), BuildingBlock: EYOCIG_clean_linker_4, # of connection points: 2
#     Edge 24, Type (0, 0), BuildingBlock: EYOCIG_clean_linker_4, # of connection points: 2
#     Edge 25, Type (0, 0), BuildingBlock: EYOCIG_clean_linker_4, # of connection points: 2
#     Edge 26, Type (0, 0), BuildingBlock: EYOCIG_clean_linker_4, # of connection points: 2
#     Edge 27, Type (0, 0), BuildingBlock: EYOCIG_clean_linker_4, # of connection points: 2
#     Edge 28, Type (0, 0), BuildingBlock: EYOCIG_clean_linker_4, # of connection points: 2
#     Edge 29, Type (0, 0), BuildingBlock: EYOCIG_clean_linker_4, # of connection points: 2
#     Edge 30, Type (0, 0), BuildingBlock: EYOCIG_clean_linker_4, # of connection points: 2
#     Edge 31, Type (0, 0), BuildingBlock: EYOCIG_clean_linker_4, # of connection points: 2
#     Edge 32, Type (0, 0), BuildingBlock: EYOCIG_clean_linker_4, # of connection points: 2
#     Edge 33, Type (0, 0), BuildingBlock: EYOCIG_clean_linker_4, # of connection points: 2
#     Edge 34, Type (0, 0), BuildingBlock: EYOCIG_clean_linker_4, # of connection points: 2
#     Edge 35, Type (0, 0), BuildingBlock: EYOCIG_clean_linker_4, # of connection points: 2
#     Edge 36, Type (0, 0), BuildingBlock: EYOCIG_clean_linker_4, # of connection points: 2
#     Edge 37, Type (0, 0), BuildingBlock: EYOCIG_clean_linker_4, # of connection points: 2
#     Edge 38, Type (0, 0), BuildingBlock: EYOCIG_clean_linker_4, # of connection points: 2
#     Edge 39, Type (0, 0), BuildingBlock: EYOCIG_clean_linker_4, # of connection points: 2
#     Edge 40, Type (0, 0), BuildingBlock: EYOCIG_clean_linker_4, # of connection points: 2
#     Edge 41, Type (0, 0), BuildingBlock: EYOCIG_clean_linker_4, # of connection points: 2
#     Edge 42, Type (0, 0), BuildingBlock: EYOCIG_clean_linker_4, # of connection points: 2
#     Edge 43, Type (0, 0), BuildingBlock: EYOCIG_clean_linker_4, # of connection points: 2
#     Edge 44, Type (0, 0), BuildingBlock: EYOCIG_clean_linker_4, # of connection points: 2
#     Edge 45, Type (0, 0), BuildingBlock: EYOCIG_clean_linker_4, # of connection points: 2
#     Edge 46, Type (0, 0), BuildingBlock: EYOCIG_clean_linker_4, # of connection points: 2
#     Edge 47, Type (0, 0), BuildingBlock: EYOCIG_clean_linker_4, # of connection points: 2
# Relax obj value: 0.404
# Max RMSD: 0.286
# Mean RMSD: 0.286
data_MOF--net-wkq--node1-IZENUY_clean_sbu_0--edge1-EYOCIG_clean_linker_4
_symmetry_space_group_name_H-M    P1
_symmetry_Int_Tables_number       1
_symmetry_cell_setting            triclinic
loop_
_symmetry_equiv_pos_as_xyz
'x, y, z'
_cell_length_a     29.263792
_cell_length_b     29.255144
_cell_length_c     28.535554
_cell_angle_alpha  89.998286
_cell_angle_beta   89.998599
_cell_angle_gamma 119.99812
loop_
_atom_site_label
_atom_site_type_symbol
_atom_site_fract_x
_atom_site_fract_y
_atom_site_fract_z
_atom_type_partial_charge
Fe0 Fe 0.2539 0.37386 0.03308 0.0
Fe1 Fe 0.31903 0.4927 0.05211 0.0
O2 O 0.27454 0.43977 0.01609 0.0
Fe3 Fe 0.2502 0.45194 0.96332 0.0
O4 O 0.18256 0.4136 -0.01589 0.0
O5 O 0.18851 0.34482 0.00527 0.0
O6 O 0.22378 0.38042 0.08615 0.0
C7 C 0.24952 0.41499 0.11669 0.0
C8 C 0.27298 0.37101 0.94007 0.0
O9 O 0.29271 0.45625 0.10713 0.0
C10 C 0.35359 0.53058 0.95988 0.0
O11 O 0.31466 0.39019 0.06511 0.0
O12 O 0.3686 0.47304 0.04783 0.0
O13 O 0.24798 0.39534 0.9316 0.0
O14 O 0.28359 0.36432 -0.01863 0.0
C15 C 0.25176 0.52767 0.0272 0.0
O16 O 0.35268 0.53839 0.00337 0.0
O17 O 0.31608 0.49171 0.93956 0.0
C18 C 0.36062 0.42985 0.06429 0.0
O19 O 0.27313 0.51606 0.05959 0.0
O20 O 0.24924 0.51093 -0.01429 0.0
C21 C 0.16118 0.36655 -0.00198 0.0
Fe22 Fe 0.82928 0.23471 0.12998 0.0
Fe23 Fe 0.91089 0.23816 0.19978 0.0
O24 O 0.8657 0.2589 0.18281 0.0
Fe25 Fe 0.85725 0.30333 0.21891 0.0
O26 O 0.78798 0.25742 0.22629 0.0
O27 O 0.76933 0.23373 0.15236 0.0
O28 O 0.7999 0.16699 0.15063 0.0
C29 C 0.82551 0.14554 0.16451 0.0
C30 C 0.85411 0.33815 0.12675 0.0
O31 O 0.87455 0.17284 0.17183 0.0
C32 C 0.96165 0.34485 0.23119 0.0
O33 O 0.88368 0.23254 0.09828 0.0
O34 O 0.95022 0.26798 0.14814 0.0
O35 O 0.84532 0.33713 0.17024 0.0
O36 O 0.85547 0.30067 0.10636 0.0
C37 C 0.86526 0.2336 0.28336 0.0
O38 O 0.9553 0.29885 0.23193 0.0
O39 O 0.92648 0.35289 0.21475 0.0
C40 C 0.93299 0.25748 0.10681 0.0
O41 O 0.87411 0.20791 0.25278 0.0
O42 O 0.86727 0.27685 0.27389 0.0
C43 C 0.75505 0.23615 0.19385 0.0
Fe44 Fe 0.70374 0.89549 0.36633 0.0
Fe45 Fe 0.58499 0.84177 0.38562 0.0
O46 O 0.63781 0.8502 0.34947 0.0
Fe47 Fe 0.62552 0.81367 0.2967 0.0
O48 O 0.66393 0.78438 0.31735 0.0
O49 O 0.73272 0.85913 0.33841 0.0
O50 O 0.69734 0.85883 0.41939 0.0
C51 C 0.66287 0.85003 0.45001 0.0
C52 C 0.70636 0.91739 0.27333 0.0
O53 O 0.62158 0.85194 0.44055 0.0
C54 C 0.54687 0.83841 0.2935 0.0
O55 O 0.68748 0.93994 0.39844 0.0
O56 O 0.6046 0.91099 0.38137 0.0
O57 O 0.68201 0.86805 0.26488 0.0
O58 O 0.71314 0.93471 0.31463 0.0
C59 C 0.54999 0.73951 0.36071 0.0
O60 O 0.53918 0.8297 0.337 0.0
O61 O 0.58568 0.83977 0.27308 0.0
C62 C 0.64781 0.94623 0.39775 0.0
O63 O 0.56169 0.7725 0.3931 0.0
O64 O 0.56661 0.75372 0.31919 0.0
C65 C 0.711 0.81006 0.33115 0.0
Fe66 Fe 0.83969 0.6885 0.53271 0.0
Fe67 Fe 0.77444 0.56971 0.55192 0.0
O68 O 0.81892 0.62253 0.5158 0.0
Fe69 Fe 0.84311 0.61021 0.46301 0.0
O70 O 0.91081 0.64853 0.48367 0.0
O71 O 0.905 0.7174 0.50476 0.0
O72 O 0.8699 0.68198 0.58574 0.0
C73 C 0.84419 0.64746 0.61633 0.0
C74 C 0.8204 0.69118 0.43971 0.0
O75 O 0.80092 0.60625 0.60687 0.0
C76 C 0.73967 0.53166 0.45978 0.0
O77 O 0.77903 0.67233 0.56483 0.0
O78 O 0.72495 0.58947 0.54768 0.0
O79 O 0.84532 0.66678 0.43123 0.0
O80 O 0.80992 0.69799 0.48103 0.0
C81 C 0.84156 0.53455 0.52699 0.0
O82 O 0.74065 0.52395 0.50328 0.0
O83 O 0.77718 0.57045 0.43937 0.0
C84 C 0.73303 0.63272 0.56409 0.0
O85 O 0.82027 0.54626 0.55937 0.0
O86 O 0.84404 0.55122 0.48547 0.0
C87 C 0.93226 0.6956 0.49751 0.0
Fe88 Fe 0.18219 0.82395 0.69948 0.0
Fe89 Fe 0.23585 0.75883 0.71872 0.0
O90 O 0.22745 0.80327 0.68259 0.0
Fe91 Fe 0.26396 0.82751 0.62982 0.0
O92 O 0.29327 0.8952 0.6505 0.0
O93 O 0.21855 0.88929 0.67154 0.0
O94 O 0.21887 0.8542 0.75252 0.0
C95 C 0.22774 0.82854 0.78312 0.0
C96 C 0.16028 0.80467 0.60647 0.0
O97 O 0.22572 0.78528 0.77367 0.0
C98 C 0.23917 0.72408 0.62659 0.0
O99 O 0.13775 0.76324 0.7316 0.0
O100 O 0.16664 0.70925 0.71446 0.0
O101 O 0.20961 0.82966 0.59802 0.0
O102 O 0.14296 0.79413 0.64778 0.0
C103 C 0.33809 0.82606 0.69381 0.0
O104 O 0.24788 0.72507 0.67009 0.0
O105 O 0.23785 0.76157 0.60617 0.0
C106 C 0.13142 0.71726 0.73086 0.0
O107 O 0.3051 0.80475 0.72619 0.0
O108 O 0.32389 0.8285 0.65229 0.0
C109 C 0.26761 0.91661 0.66432 0.0
Fe110 Fe 0.38937 0.16657 0.86634 0.0
Fe111 Fe 0.50814 0.22036 0.88554 0.0
O112 O 0.45527 0.21189 0.84944 0.0
Fe113 Fe 0.4675 0.24839 0.79666 0.0
O114 O 0.4291 0.27767 0.81736 0.0
O115 O 0.36034 0.20289 0.83844 0.0
O116 O 0.39579 0.20325 0.91939 0.0
C117 C 0.43032 0.21212 0.94998 0.0
C118 C 0.38668 0.14466 0.77334 0.0
O119 O 0.47159 0.2102 0.94051 0.0
C120 C 0.54616 0.22368 0.79339 0.0
O121 O 0.4057 0.12216 0.89845 0.0
O122 O 0.48857 0.15115 0.88129 0.0
O123 O 0.41099 0.194 0.76489 0.0
O124 O 0.37996 0.12734 0.81465 0.0
C125 C 0.54308 0.32259 0.8606 0.0
O126 O 0.55391 0.23243 0.83688 0.0
O127 O 0.50733 0.2223 0.773 0.0
C128 C 0.44539 0.1159 0.89771 0.0
O129 O 0.53141 0.28962 0.893 0.0
O130 O 0.52642 0.30836 0.81909 0.0
C131 C 0.38204 0.25197 0.8312 0.0
Fe132 Fe 0.62557 0.82748 0.8321 0.0
Fe133 Fe 0.70386 0.82412 0.7624 0.0
O134 O 0.63791 0.80336 0.77928 0.0
Fe135 Fe 0.58512 0.75896 0.7431 0.0
O136 O 0.56173 0.80486 0.73571 0.0
O137 O 0.56664 0.82848 0.80965 0.0
O138 O 0.66393 0.89522 0.81152 0.0
C139 C 0.71101 0.91668 0.79772 0.0
C140 C 0.54699 0.72403 0.8352 0.0
O141 O 0.73277 0.88939 0.79043 0.0
C142 C 0.64806 0.71749 0.73085 0.0
O143 O 0.68208 0.8296 0.86388 0.0
O144 O 0.71328 0.79422 0.81403 0.0
O145 O 0.53932 0.72508 0.79169 0.0
O146 O 0.58577 0.76149 0.85565 0.0
C147 C 0.66296 0.82881 0.67878 0.0
O148 O 0.68768 0.76349 0.73018 0.0
O149 O 0.60482 0.70941 0.74724 0.0
C150 C 0.70647 0.80467 0.85536 0.0
O151 O 0.69743 0.85445 0.70941 0.0
O152 O 0.62172 0.78554 0.68818 0.0
C153 C 0.55001 0.8261 0.76814 0.0
Fe154 Fe 0.91105 0.68826 0.92875 0.0
Fe155 Fe 0.85739 0.56941 0.90976 0.0
O156 O 0.86583 0.62235 0.94577 0.0
Fe157 Fe 0.82938 0.61019 -0.00143 0.0
O158 O 0.80004 0.64852 0.97784 0.0
O159 O 0.87471 0.71729 0.95658 0.0
O160 O 0.87432 0.68166 0.8757 0.0
C161 C 0.86552 0.64709 0.84516 0.0
C162 C 0.93308 0.69116 0.02175 0.0
O163 O 0.86749 0.60585 0.85472 0.0
C164 C 0.85415 0.53155 0.00197 0.0
O165 O 0.95547 0.67192 0.8967 0.0
O166 O 0.92661 0.58907 0.91399 0.0
O167 O 0.88377 0.6668 0.03026 0.0
O168 O 0.95034 0.69785 0.98043 0.0
C169 C 0.75518 0.53447 0.93472 0.0
O170 O 0.84539 0.52373 0.95849 0.0
O171 O 0.85553 0.57043 0.0223 0.0
C172 C 0.96181 0.63227 0.89753 0.0
O173 O 0.78813 0.54606 0.90232 0.0
O174 O 0.76943 0.5512 0.97621 0.0
C175 C 0.82566 0.69556 0.96391 0.0
Fe176 Fe 0.31915 0.84201 0.07657 0.0
Fe177 Fe 0.25018 0.81383 0.16528 0.0
O178 O 0.27462 0.85041 0.11255 0.0
Fe179 Fe 0.25405 0.89574 0.09558 0.0
O180 O 0.22401 0.85915 0.04246 0.0
O181 O 0.29295 0.85226 0.02153 0.0
O182 O 0.27322 0.77276 0.06899 0.0
C183 C 0.25178 0.73973 0.10133 0.0
C184 C 0.36083 0.94649 0.06452 0.0
O185 O 0.24921 0.75389 0.14283 0.0
C186 C 0.273 0.91753 0.18863 0.0
O187 O 0.35269 0.82986 0.12531 0.0
O188 O 0.31602 0.83987 0.18911 0.0
O189 O 0.31488 0.9402 0.06365 0.0
O190 O 0.36874 0.91122 0.08095 0.0
C191 C 0.16125 0.8103 0.13053 0.0
O192 O 0.24797 0.86818 0.19704 0.0
O193 O 0.28368 0.9349 0.14735 0.0
C194 C 0.35354 0.83852 0.16881 0.0
O195 O 0.18258 0.78459 0.14443 0.0
O196 O 0.18862 0.85937 0.12331 0.0
C197 C 0.24978 0.85035 0.01193 0.0
Fe198 Fe 0.38933 0.23834 0.26243 0.0
Fe199 Fe 0.5081 0.30344 0.2432 0.0
O200 O 0.45526 0.25898 0.27931 0.0
Fe201 Fe 0.46752 0.23468 0.33206 0.0
O202 O 0.42913 0.167 0.31133 0.0
O203 O 0.36035 0.17297 0.2903 0.0
O204 O 0.39577 0.20814 0.20935 0.0
C205 C 0.43028 0.23384 0.17876 0.0
C206 C 0.38666 0.2575 0.35545 0.0
O207 O 0.47154 0.27706 0.18824 0.0
C208 C 0.54615 0.33809 0.33536 0.0
O209 O 0.40561 0.29909 0.23037 0.0
O210 O 0.48848 0.35303 0.24752 0.0
O211 O 0.41101 0.2325 0.36387 0.0
O212 O 0.37991 0.2681 0.31416 0.0
C213 C 0.54309 0.23616 0.26804 0.0
O214 O 0.55387 0.33713 0.29185 0.0
O215 O 0.50733 0.3006 0.35575 0.0
C216 C 0.44528 0.34506 0.23112 0.0
O217 O 0.53142 0.2575 0.23568 0.0
O218 O 0.52644 0.23368 0.30957 0.0
C219 C 0.38207 0.14562 0.29752 0.0
Fe220 Fe 0.18213 0.37366 0.42915 0.0
Fe221 Fe 0.23579 0.49246 0.40997 0.0
O222 O 0.22737 0.43959 0.44607 0.0
Fe223 Fe 0.26386 0.45185 0.49886 0.0
O224 O 0.29318 0.41348 0.47818 0.0
O225 O 0.21848 0.34467 0.45706 0.0
O226 O 0.21882 0.38014 0.37611 0.0
C227 C 0.22767 0.41468 0.34552 0.0
C228 C 0.16017 0.37096 0.52215 0.0
O229 O 0.22567 0.45592 0.355 0.0
C230 C 0.23909 0.53049 0.50212 0.0
O231 O 0.13769 0.38993 0.39705 0.0
O232 O 0.16658 0.47281 0.41421 0.0
O233 O 0.20949 0.39531 0.53063 0.0
O234 O 0.14288 0.36419 0.48084 0.0
C235 C 0.33802 0.52747 0.4349 0.0
O236 O 0.24781 0.53823 0.45862 0.0
O237 O 0.23773 0.49166 0.52251 0.0
C238 C 0.13136 0.42959 0.39782 0.0
O239 O 0.30504 0.51581 0.40251 0.0
O240 O 0.3238 0.51081 0.47642 0.0
C241 C 0.26753 0.36641 0.46433 0.0
Fe242 Fe 0.77419 0.22023 0.57664 0.0
Fe243 Fe 0.84298 0.24847 0.66547 0.0
O244 O 0.81868 0.21188 0.61273 0.0
Fe245 Fe 0.83934 0.1666 0.59585 0.0
O246 O 0.86949 0.20322 0.54276 0.0
O247 O 0.80055 0.21004 0.52168 0.0
O248 O 0.82008 0.2895 0.56909 0.0
C249 C 0.84144 0.32254 0.60144 0.0
C250 C 0.73264 0.11577 0.56458 0.0
O251 O 0.84395 0.30839 0.64296 0.0
C252 C 0.82019 0.14479 0.68888 0.0
O253 O 0.74051 0.23232 0.6253 0.0
O254 O 0.7771 0.22237 0.68918 0.0
O255 O 0.77861 0.1221 0.56381 0.0
O256 O 0.72464 0.151 0.58098 0.0
C257 C 0.93203 0.25208 0.63091 0.0
O258 O 0.84518 0.19413 0.69729 0.0
O259 O 0.80961 0.12742 0.64759 0.0
C260 C 0.73959 0.22367 0.66881 0.0
O261 O 0.91064 0.27776 0.64473 0.0
O262 O 0.9047 0.203 0.62369 0.0
C263 C 0.84377 0.21201 0.51217 0.0
C264 C 0.23023 0.60111 0.05352 0.0
C265 C 0.23813 0.56751 0.0374 0.0
C266 C 0.23023 0.64477 0.07493 0.0
C267 C 0.23814 0.68627 0.09108 0.0
C268 C 0.61647 0.21462 0.2416 0.0
C269 C 0.5829 0.22253 0.25778 0.0
C270 C 0.66011 0.21462 0.22016 0.0
C271 C 0.7016 0.22253 0.20402 0.0
C272 C 0.43295 0.6009 0.40853 0.0
C273 C 0.39146 0.56731 0.42469 0.0
C274 C 0.47659 0.64455 0.3871 0.0
C275 C 0.51016 0.68605 0.37094 0.0
C276 C 0.86301 0.46109 0.55343 0.0
C277 C 0.85514 0.49469 0.53723 0.0
C278 C 0.86299 0.41746 0.57493 0.0
C279 C 0.85508 0.37599 0.59115 0.0
C280 C 0.47661 0.84762 0.74175 0.0
C281 C 0.51018 0.83972 0.75793 0.0
C282 C 0.43299 0.84761 0.72026 0.0
C283 C 0.39153 0.8397 0.70406 0.0
C284 C 0.6602 0.46114 0.90839 0.0
C285 C 0.70171 0.49469 0.92454 0.0
C286 C 0.61653 0.41752 0.88697 0.0
C287 C 0.58293 0.37605 0.87081 0.0
C288 C 0.4211 0.42277 0.12827 0.0
C289 C 0.39742 0.43074 0.09787 0.0
C290 C 0.43822 0.40557 0.16713 0.0
C291 C 0.44615 0.38184 0.19752 0.0
C292 C 1.02928 0.40528 0.29514 0.0
C293 C 0.99759 0.3816 0.26477 0.0
C294 C 0.06367 0.42244 0.33395 0.0
C295 C 0.09539 0.43041 0.36428 0.0
C296 C 0.67216 0.04814 0.50063 0.0
C297 C 0.69587 0.07983 0.531 0.0
C298 C 0.65497 1.0138 0.46177 0.0
C299 C 0.64698 0.98214 0.43137 0.0
C300 C 0.65536 0.65715 0.66682 0.0
C301 C 0.64732 0.6808 0.69721 0.0
C302 C 0.67258 0.63999 0.628 0.0
C303 C 0.69629 0.63198 0.59765 0.0
C304 C 0.06381 0.6567 0.79478 0.0
C305 C 0.09549 0.68047 0.76443 0.0
C306 C 1.02944 0.63943 0.83361 0.0
C307 C 0.99775 0.63141 0.86399 0.0
C308 C 0.43845 0.04843 0.96175 0.0
C309 C 0.44631 0.08005 0.93134 0.0
C310 C 0.42137 1.01412 0.00062 0.0
C311 C 0.39768 0.98243 0.03099 0.0
C312 C 0.47371 0.64509 0.88467 0.0
C313 C 0.50755 0.68142 0.86262 0.0
C314 C 0.43238 0.60375 0.91021 0.0
C315 C 0.3961 0.56994 0.93232 0.0
C316 C 0.85981 0.45839 0.05163 0.0
C317 C 0.85732 0.4922 0.02952 0.0
C318 C 0.8598 0.41705 0.07719 0.0
C319 C 0.85729 0.38073 0.09926 0.0
C320 C 0.43227 0.84406 0.2185 0.0
C321 C 0.39601 0.84162 0.19639 0.0
C322 C 0.4736 0.84403 0.24401 0.0
C323 C 0.50744 0.84155 0.26605 0.0
C324 C 0.66076 0.45839 0.4103 0.0
C325 C 0.69711 0.49225 0.43232 0.0
C326 C 0.61939 0.41701 0.38485 0.0
C327 C 0.58554 0.38066 0.36283 0.0
C328 C 0.23349 0.64514 0.5771 0.0
C329 C 0.23599 0.68149 0.59913 0.0
C330 C 0.23347 0.60376 0.55163 0.0
C331 C 0.23594 0.5699 0.52959 0.0
C332 C 0.6194 0.21803 0.74387 0.0
C333 C 0.58556 0.22052 0.76592 0.0
C334 C 0.66074 0.21803 0.71837 0.0
C335 C 0.69705 0.22051 0.69631 0.0
C336 C 0.30582 0.32705 0.87786 0.0
C337 C 0.28869 0.34857 0.90269 0.0
C338 C 0.33064 0.30142 0.85618 0.0
C339 C 0.35466 0.2795 0.8446 0.0
C340 C 1.00989 0.29041 0.04469 0.0
C341 C 0.97121 0.27325 0.06949 0.0
C342 C 0.06034 0.31521 0.02304 0.0
C343 C 0.10627 0.3392 0.01144 0.0
C344 C 0.75027 0.9942 0.21111 0.0
C345 C 0.72876 0.95554 0.23595 0.0
C346 C 0.77592 0.04465 0.18945 0.0
C347 C 0.79789 0.09061 0.17788 0.0
C348 C 0.76247 0.76061 0.35596 0.0
C349 C 0.73841 0.78252 0.34445 0.0
C350 C 0.78737 0.73502 0.37755 0.0
C351 C 0.80458 0.71354 0.40235 0.0
C352 C 0.08352 0.77171 0.54422 0.0
C353 C 0.12214 0.78888 0.56908 0.0
C354 C 1.0331 0.74688 0.52251 0.0
C355 C 0.98717 0.72289 0.51091 0.0
C356 C 0.34276 0.06788 0.7111 0.0
C357 C 0.36426 0.10651 0.73596 0.0
C358 C 0.31712 1.01746 0.68938 0.0
C359 C 0.29518 0.97152 0.67776 0.0
C360 C 0.7761 0.7469 0.93906 0.0
C361 C 0.79807 0.72291 0.95059 0.0
C362 C 0.75042 0.77172 0.91747 0.0
C363 C 0.72889 0.78888 0.8927 0.0
C364 C 0.06041 0.76085 0.10551 0.0
C365 C 0.10634 0.78278 0.11711 0.0
C366 C 1.00996 0.7352 0.08387 0.0
C367 C 0.97128 0.71365 0.05908 0.0
C368 C 0.33065 0.04474 0.27256 0.0
C369 C 0.35468 0.09069 0.28413 0.0
C370 C 0.30582 0.99429 0.25089 0.0
C371 C 0.28868 0.95564 0.22604 0.0
C372 C 0.34272 0.2903 0.4177 0.0
C373 C 0.36424 0.27319 0.39285 0.0
C374 C 0.31706 0.31508 0.43939 0.0
C375 C 0.29511 0.33907 0.45095 0.0
C376 C 0.08334 0.32712 0.58434 0.0
C377 C 0.12201 0.34859 0.55952 0.0
C378 C 1.03289 0.30153 0.60599 0.0
C379 C 0.98695 0.27962 0.61755 0.0
C380 C 0.78724 0.06803 0.75116 0.0
C381 C 0.80442 0.10667 0.7263 0.0
C382 C 0.76237 1.01758 0.77283 0.0
C383 C 0.73834 0.97163 0.78438 0.0
C384 C 0.22958 0.39776 0.25568 0.0
C385 C 0.22857 0.40228 0.29738 0.0
C386 C 0.23083 0.39789 0.20655 0.0
C387 C 0.23638 0.40257 0.16485 0.0
C388 C 0.86243 0.21364 0.42232 0.0
C389 C 0.85696 0.21276 0.46403 0.0
C390 C 0.86355 0.21479 0.3732 0.0
C391 C 0.86447 0.22034 0.3315 0.0
C392 C 0.68015 0.84761 0.58896 0.0
C393 C 0.67551 0.8421 0.63066 0.0
C394 C 0.68012 0.84865 0.53984 0.0
C395 C 0.67544 0.84942 0.49814 0.0
C396 C 0.86403 0.66422 0.7553 0.0
C397 C 0.86485 0.65953 0.797 0.0
C398 C 0.86297 0.66437 0.70617 0.0
C399 C 0.85748 0.65986 0.66446 0.0
C400 C 0.2298 0.84753 0.87294 0.0
C401 C 0.22872 0.84191 0.83124 0.0
C402 C 0.23111 0.84873 0.92207 0.0
C403 C 0.23666 0.84961 0.96377 0.0
C404 C 0.41321 0.21386 0.03981 0.0
C405 C 0.41785 0.21292 -0.00189 0.0
C406 C 0.4132 0.21505 0.08893 0.0
C407 C 0.41783 0.2206 0.13063 0.0
loop_
_geom_bond_atom_site_label_1
_geom_bond_atom_site_label_2
_geom_bond_distance
_geom_bond_site_symmetry_2
_ccdc_geom_bond_type
Fe0 O2 1.918 . S
Fe0 O5 1.997 . S
Fe0 O6 2.002 . S
Fe0 O11 1.976 . S
Fe0 O14 1.996 . S
Fe1 O2 1.918 . S
Fe1 O9 1.997 . S
Fe1 O12 1.996 . S
Fe1 O16 1.976 . S
Fe1 O19 2.002 . S
O2 Fe0 1.918 . S
O2 Fe1 1.918 . S
O2 Fe3 1.918 1_554 S
Fe3 O2 1.918 1_556 S
Fe3 O4 2.002 . S
Fe3 O13 1.976 . S
Fe3 O17 1.996 . S
Fe3 O20 1.993 1_556 S
O4 Fe3 2.002 . S
O4 C21 1.295 1_556 S
O5 Fe0 1.997 . S
O5 C21 1.235 . S
O6 Fe0 2.002 . S
O6 C7 1.295 . S
C7 O6 1.295 . S
C7 O9 1.235 . S
C8 O13 1.287 . S
C8 O14 1.255 1_556 S
O9 Fe1 1.997 . S
O9 C7 1.235 . S
C10 O16 1.287 1_556 S
C10 O17 1.255 . S
O11 Fe0 1.976 . S
O11 C18 1.287 . S
O12 Fe1 1.996 . S
O12 C18 1.255 . S
O13 Fe3 1.976 . S
O13 C8 1.287 . S
O14 Fe0 1.996 . S
O14 C8 1.255 1_554 S
C15 O19 1.295 . S
C15 O20 1.245 . S
O16 Fe1 1.976 . S
O16 C10 1.287 1_554 S
O17 Fe3 1.996 . S
O17 C10 1.255 . S
C18 O11 1.287 . S
C18 O12 1.255 . S
O19 Fe1 2.002 . S
O19 C15 1.295 . S
O20 Fe3 1.993 1_554 S
O20 C15 1.245 . S
C21 O4 1.295 1_554 S
C21 O5 1.235 . S
Fe22 O24 1.918 . S
Fe22 O27 1.997 . S
Fe22 O28 2.002 . S
Fe22 O33 1.976 . S
Fe22 O36 1.996 . S
Fe23 O24 1.918 . S
Fe23 O31 1.997 . S
Fe23 O34 1.996 . S
Fe23 O38 1.976 . S
Fe23 O41 2.002 . S
O24 Fe22 1.918 . S
O24 Fe23 1.918 . S
O24 Fe25 1.918 . S
Fe25 O24 1.918 . S
Fe25 O26 2.002 . S
Fe25 O35 1.976 . S
Fe25 O39 1.996 . S
Fe25 O42 1.997 . S
O26 Fe25 2.002 . S
O26 C43 1.295 . S
O27 Fe22 1.997 . S
O27 C43 1.235 . S
O28 Fe22 2.002 . S
O28 C29 1.295 . S
C29 O28 1.295 . S
C29 O31 1.235 . S
C30 O35 1.287 . S
C30 O36 1.255 . S
O31 Fe23 1.997 . S
O31 C29 1.235 . S
C32 O38 1.287 . S
C32 O39 1.255 . S
O33 Fe22 1.976 . S
O33 C40 1.287 . S
O34 Fe23 1.996 . S
O34 C40 1.255 . S
O35 Fe25 1.976 . S
O35 C30 1.287 . S
O36 Fe22 1.996 . S
O36 C30 1.255 . S
C37 O41 1.295 . S
C37 O42 1.235 . S
O38 Fe23 1.976 . S
O38 C32 1.287 . S
O39 Fe25 1.996 . S
O39 C32 1.255 . S
C40 O33 1.287 . S
C40 O34 1.255 . S
O41 Fe23 2.002 . S
O41 C37 1.295 . S
O42 Fe25 1.997 . S
O42 C37 1.235 . S
C43 O26 1.295 . S
C43 O27 1.235 . S
Fe44 O46 1.918 . S
Fe44 O49 1.997 . S
Fe44 O50 2.002 . S
Fe44 O55 1.976 . S
Fe44 O58 1.996 . S
Fe45 O46 1.918 . S
Fe45 O53 1.997 . S
Fe45 O56 1.996 . S
Fe45 O60 1.976 . S
Fe45 O63 2.002 . S
O46 Fe44 1.918 . S
O46 Fe45 1.918 . S
O46 Fe47 1.918 . S
Fe47 O46 1.918 . S
Fe47 O48 2.002 . S
Fe47 O57 1.976 . S
Fe47 O61 1.996 . S
Fe47 O64 1.997 . S
O48 Fe47 2.002 . S
O48 C65 1.295 . S
O49 Fe44 1.997 . S
O49 C65 1.235 . S
O50 Fe44 2.002 . S
O50 C51 1.295 . S
C51 O50 1.295 . S
C51 O53 1.235 . S
C52 O57 1.287 . S
C52 O58 1.255 . S
O53 Fe45 1.997 . S
O53 C51 1.235 . S
C54 O60 1.287 . S
C54 O61 1.255 . S
O55 Fe44 1.976 . S
O55 C62 1.287 . S
O56 Fe45 1.996 . S
O56 C62 1.255 . S
O57 Fe47 1.976 . S
O57 C52 1.287 . S
O58 Fe44 1.996 . S
O58 C52 1.255 . S
C59 O63 1.295 . S
C59 O64 1.235 . S
O60 Fe45 1.976 . S
O60 C54 1.287 . S
O61 Fe47 1.996 . S
O61 C54 1.255 . S
C62 O55 1.287 . S
C62 O56 1.255 . S
O63 Fe45 2.002 . S
O63 C59 1.295 . S
O64 Fe47 1.997 . S
O64 C59 1.235 . S
C65 O48 1.295 . S
C65 O49 1.235 . S
Fe66 O68 1.918 . S
Fe66 O71 1.997 . S
Fe66 O72 2.002 . S
Fe66 O77 1.976 . S
Fe66 O80 1.996 . S
Fe67 O68 1.918 . S
Fe67 O75 1.997 . S
Fe67 O78 1.996 . S
Fe67 O82 1.976 . S
Fe67 O85 2.002 . S
O68 Fe66 1.918 . S
O68 Fe67 1.918 . S
O68 Fe69 1.918 . S
Fe69 O68 1.918 . S
Fe69 O70 2.002 . S
Fe69 O79 1.976 . S
Fe69 O83 1.996 . S
Fe69 O86 1.997 . S
O70 Fe69 2.002 . S
O70 C87 1.295 . S
O71 Fe66 1.997 . S
O71 C87 1.235 . S
O72 Fe66 2.002 . S
O72 C73 1.295 . S
C73 O72 1.295 . S
C73 O75 1.235 . S
C74 O79 1.287 . S
C74 O80 1.255 . S
O75 Fe67 1.997 . S
O75 C73 1.235 . S
C76 O82 1.287 . S
C76 O83 1.255 . S
O77 Fe66 1.976 . S
O77 C84 1.287 . S
O78 Fe67 1.996 . S
O78 C84 1.255 . S
O79 Fe69 1.976 . S
O79 C74 1.287 . S
O80 Fe66 1.996 . S
O80 C74 1.255 . S
C81 O85 1.295 . S
C81 O86 1.235 . S
O82 Fe67 1.976 . S
O82 C76 1.287 . S
O83 Fe69 1.996 . S
O83 C76 1.255 . S
C84 O77 1.287 . S
C84 O78 1.255 . S
O85 Fe67 2.002 . S
O85 C81 1.295 . S
O86 Fe69 1.997 . S
O86 C81 1.235 . S
C87 O70 1.295 . S
C87 O71 1.235 . S
Fe88 O90 1.918 . S
Fe88 O93 1.997 . S
Fe88 O94 2.002 . S
Fe88 O99 1.976 . S
Fe88 O102 1.996 . S
Fe89 O90 1.918 . S
Fe89 O97 1.997 . S
Fe89 O100 1.996 . S
Fe89 O104 1.976 . S
Fe89 O107 2.002 . S
O90 Fe88 1.918 . S
O90 Fe89 1.918 . S
O90 Fe91 1.918 . S
Fe91 O90 1.918 . S
Fe91 O92 2.002 . S
Fe91 O101 1.976 . S
Fe91 O105 1.996 . S
Fe91 O108 1.997 . S
O92 Fe91 2.002 . S
O92 C109 1.295 . S
O93 Fe88 1.997 . S
O93 C109 1.235 . S
O94 Fe88 2.002 . S
O94 C95 1.295 . S
C95 O94 1.295 . S
C95 O97 1.235 . S
C96 O101 1.287 . S
C96 O102 1.255 . S
O97 Fe89 1.997 . S
O97 C95 1.235 . S
C98 O104 1.287 . S
C98 O105 1.255 . S
O99 Fe88 1.976 . S
O99 C106 1.287 . S
O100 Fe89 1.996 . S
O100 C106 1.255 . S
O101 Fe91 1.976 . S
O101 C96 1.287 . S
O102 Fe88 1.996 . S
O102 C96 1.255 . S
C103 O107 1.295 . S
C103 O108 1.235 . S
O104 Fe89 1.976 . S
O104 C98 1.287 . S
O105 Fe91 1.996 . S
O105 C98 1.255 . S
C106 O99 1.287 . S
C106 O100 1.255 . S
O107 Fe89 2.002 . S
O107 C103 1.295 . S
O108 Fe91 1.997 . S
O108 C103 1.235 . S
C109 O92 1.295 . S
C109 O93 1.235 . S
Fe110 O112 1.918 . S
Fe110 O115 1.997 . S
Fe110 O116 2.002 . S
Fe110 O121 1.976 . S
Fe110 O124 1.996 . S
Fe111 O112 1.918 . S
Fe111 O119 1.997 . S
Fe111 O122 1.996 . S
Fe111 O126 1.976 . S
Fe111 O129 2.002 . S
O112 Fe110 1.918 . S
O112 Fe111 1.918 . S
O112 Fe113 1.918 . S
Fe113 O112 1.918 . S
Fe113 O114 2.002 . S
Fe113 O123 1.976 . S
Fe113 O127 1.996 . S
Fe113 O130 1.997 . S
O114 Fe113 2.002 . S
O114 C131 1.295 . S
O115 Fe110 1.997 . S
O115 C131 1.235 . S
O116 Fe110 2.002 . S
O116 C117 1.295 . S
C117 O116 1.295 . S
C117 O119 1.235 . S
C118 O123 1.287 . S
C118 O124 1.255 . S
O119 Fe111 1.997 . S
O119 C117 1.235 . S
C120 O126 1.287 . S
C120 O127 1.255 . S
O121 Fe110 1.976 . S
O121 C128 1.287 . S
O122 Fe111 1.996 . S
O122 C128 1.255 . S
O123 Fe113 1.976 . S
O123 C118 1.287 . S
O124 Fe110 1.996 . S
O124 C118 1.255 . S
C125 O129 1.295 . S
C125 O130 1.235 . S
O126 Fe111 1.976 . S
O126 C120 1.287 . S
O127 Fe113 1.996 . S
O127 C120 1.255 . S
C128 O121 1.287 . S
C128 O122 1.255 . S
O129 Fe111 2.002 . S
O129 C125 1.295 . S
O130 Fe113 1.997 . S
O130 C125 1.235 . S
C131 O114 1.295 . S
C131 O115 1.235 . S
Fe132 O134 1.918 . S
Fe132 O137 1.997 . S
Fe132 O138 2.002 . S
Fe132 O143 1.976 . S
Fe132 O146 1.996 . S
Fe133 O134 1.918 . S
Fe133 O141 1.997 . S
Fe133 O144 1.996 . S
Fe133 O148 1.976 . S
Fe133 O151 2.002 . S
O134 Fe132 1.918 . S
O134 Fe133 1.918 . S
O134 Fe135 1.918 . S
Fe135 O134 1.918 . S
Fe135 O136 2.002 . S
Fe135 O145 1.976 . S
Fe135 O149 1.996 . S
Fe135 O152 1.997 . S
O136 Fe135 2.002 . S
O136 C153 1.295 . S
O137 Fe132 1.997 . S
O137 C153 1.235 . S
O138 Fe132 2.002 . S
O138 C139 1.295 . S
C139 O138 1.295 . S
C139 O141 1.235 . S
C140 O145 1.287 . S
C140 O146 1.255 . S
O141 Fe133 1.997 . S
O141 C139 1.235 . S
C142 O148 1.287 . S
C142 O149 1.255 . S
O143 Fe132 1.976 . S
O143 C150 1.287 . S
O144 Fe133 1.996 . S
O144 C150 1.255 . S
O145 Fe135 1.976 . S
O145 C140 1.287 . S
O146 Fe132 1.996 . S
O146 C140 1.255 . S
C147 O151 1.295 . S
C147 O152 1.235 . S
O148 Fe133 1.976 . S
O148 C142 1.287 . S
O149 Fe135 1.996 . S
O149 C142 1.255 . S
C150 O143 1.287 . S
C150 O144 1.255 . S
O151 Fe133 2.002 . S
O151 C147 1.295 . S
O152 Fe135 1.997 . S
O152 C147 1.235 . S
C153 O136 1.295 . S
C153 O137 1.235 . S
Fe154 O156 1.918 . S
Fe154 O159 1.997 . S
Fe154 O160 2.002 . S
Fe154 O165 1.976 . S
Fe154 O168 1.996 . S
Fe155 O156 1.918 . S
Fe155 O163 1.997 . S
Fe155 O166 1.996 . S
Fe155 O170 1.976 . S
Fe155 O173 2.002 . S
O156 Fe154 1.918 . S
O156 Fe155 1.918 . S
O156 Fe157 1.918 1_556 S
Fe157 O156 1.918 1_554 S
Fe157 O158 2.002 . S
Fe157 O167 1.976 . S
Fe157 O171 1.996 . S
Fe157 O174 1.993 1_554 S
O158 Fe157 2.002 . S
O158 C175 1.295 1_554 S
O159 Fe154 1.997 . S
O159 C175 1.235 . S
O160 Fe154 2.002 . S
O160 C161 1.295 . S
C161 O160 1.295 . S
C161 O163 1.235 . S
C162 O167 1.287 . S
C162 O168 1.255 1_554 S
O163 Fe155 1.997 . S
O163 C161 1.235 . S
C164 O170 1.287 1_554 S
C164 O171 1.255 . S
O165 Fe154 1.976 . S
O165 C172 1.287 . S
O166 Fe155 1.996 . S
O166 C172 1.255 . S
O167 Fe157 1.976 . S
O167 C162 1.287 . S
O168 Fe154 1.996 . S
O168 C162 1.255 1_556 S
C169 O173 1.295 . S
C169 O174 1.245 . S
O170 Fe155 1.976 . S
O170 C164 1.287 1_556 S
O171 Fe157 1.996 . S
O171 C164 1.255 . S
C172 O165 1.287 . S
C172 O166 1.255 . S
O173 Fe155 2.002 . S
O173 C169 1.295 . S
O174 Fe157 1.993 1_556 S
O174 C169 1.245 . S
C175 O158 1.295 1_556 S
C175 O159 1.235 . S
Fe176 O178 1.918 . S
Fe176 O181 1.997 . S
Fe176 O182 2.002 . S
Fe176 O187 1.976 . S
Fe176 O190 1.996 . S
Fe177 O178 1.918 . S
Fe177 O185 1.997 . S
Fe177 O188 1.996 . S
Fe177 O192 1.976 . S
Fe177 O195 2.002 . S
O178 Fe176 1.918 . S
O178 Fe177 1.918 . S
O178 Fe179 1.918 . S
Fe179 O178 1.918 . S
Fe179 O180 2.002 . S
Fe179 O189 1.976 . S
Fe179 O193 1.996 . S
Fe179 O196 1.997 . S
O180 Fe179 2.002 . S
O180 C197 1.295 . S
O181 Fe176 1.997 . S
O181 C197 1.235 . S
O182 Fe176 2.002 . S
O182 C183 1.295 . S
C183 O182 1.295 . S
C183 O185 1.235 . S
C184 O189 1.287 . S
C184 O190 1.255 . S
O185 Fe177 1.997 . S
O185 C183 1.235 . S
C186 O192 1.287 . S
C186 O193 1.255 . S
O187 Fe176 1.976 . S
O187 C194 1.287 . S
O188 Fe177 1.996 . S
O188 C194 1.255 . S
O189 Fe179 1.976 . S
O189 C184 1.287 . S
O190 Fe176 1.996 . S
O190 C184 1.255 . S
C191 O195 1.295 . S
C191 O196 1.235 . S
O192 Fe177 1.976 . S
O192 C186 1.287 . S
O193 Fe179 1.996 . S
O193 C186 1.255 . S
C194 O187 1.287 . S
C194 O188 1.255 . S
O195 Fe177 2.002 . S
O195 C191 1.295 . S
O196 Fe179 1.997 . S
O196 C191 1.235 . S
C197 O180 1.295 . S
C197 O181 1.235 . S
Fe198 O200 1.918 . S
Fe198 O203 1.997 . S
Fe198 O204 2.002 . S
Fe198 O209 1.976 . S
Fe198 O212 1.996 . S
Fe199 O200 1.918 . S
Fe199 O207 1.997 . S
Fe199 O210 1.996 . S
Fe199 O214 1.976 . S
Fe199 O217 2.002 . S
O200 Fe198 1.918 . S
O200 Fe199 1.918 . S
O200 Fe201 1.918 . S
Fe201 O200 1.918 . S
Fe201 O202 2.002 . S
Fe201 O211 1.976 . S
Fe201 O215 1.996 . S
Fe201 O218 1.997 . S
O202 Fe201 2.002 . S
O202 C219 1.295 . S
O203 Fe198 1.997 . S
O203 C219 1.235 . S
O204 Fe198 2.002 . S
O204 C205 1.295 . S
C205 O204 1.295 . S
C205 O207 1.235 . S
C206 O211 1.287 . S
C206 O212 1.255 . S
O207 Fe199 1.997 . S
O207 C205 1.235 . S
C208 O214 1.287 . S
C208 O215 1.255 . S
O209 Fe198 1.976 . S
O209 C216 1.287 . S
O210 Fe199 1.996 . S
O210 C216 1.255 . S
O211 Fe201 1.976 . S
O211 C206 1.287 . S
O212 Fe198 1.996 . S
O212 C206 1.255 . S
C213 O217 1.295 . S
C213 O218 1.235 . S
O214 Fe199 1.976 . S
O214 C208 1.287 . S
O215 Fe201 1.996 . S
O215 C208 1.255 . S
C216 O209 1.287 . S
C216 O210 1.255 . S
O217 Fe199 2.002 . S
O217 C213 1.295 . S
O218 Fe201 1.997 . S
O218 C213 1.235 . S
C219 O202 1.295 . S
C219 O203 1.235 . S
Fe220 O222 1.918 . S
Fe220 O225 1.997 . S
Fe220 O226 2.002 . S
Fe220 O231 1.976 . S
Fe220 O234 1.996 . S
Fe221 O222 1.918 . S
Fe221 O229 1.997 . S
Fe221 O232 1.996 . S
Fe221 O236 1.976 . S
Fe221 O239 2.002 . S
O222 Fe220 1.918 . S
O222 Fe221 1.918 . S
O222 Fe223 1.918 . S
Fe223 O222 1.918 . S
Fe223 O224 2.002 . S
Fe223 O233 1.976 . S
Fe223 O237 1.996 . S
Fe223 O240 1.997 . S
O224 Fe223 2.002 . S
O224 C241 1.295 . S
O225 Fe220 1.997 . S
O225 C241 1.235 . S
O226 Fe220 2.002 . S
O226 C227 1.295 . S
C227 O226 1.295 . S
C227 O229 1.235 . S
C228 O233 1.287 . S
C228 O234 1.255 . S
O229 Fe221 1.997 . S
O229 C227 1.235 . S
C230 O236 1.287 . S
C230 O237 1.255 . S
O231 Fe220 1.976 . S
O231 C238 1.287 . S
O232 Fe221 1.996 . S
O232 C238 1.255 . S
O233 Fe223 1.976 . S
O233 C228 1.287 . S
O234 Fe220 1.996 . S
O234 C228 1.255 . S
C235 O239 1.295 . S
C235 O240 1.235 . S
O236 Fe221 1.976 . S
O236 C230 1.287 . S
O237 Fe223 1.996 . S
O237 C230 1.255 . S
C238 O231 1.287 . S
C238 O232 1.255 . S
O239 Fe221 2.002 . S
O239 C235 1.295 . S
O240 Fe223 1.997 . S
O240 C235 1.235 . S
C241 O224 1.295 . S
C241 O225 1.235 . S
Fe242 O244 1.918 . S
Fe242 O247 1.997 . S
Fe242 O248 2.002 . S
Fe242 O253 1.976 . S
Fe242 O256 1.996 . S
Fe243 O244 1.918 . S
Fe243 O251 1.997 . S
Fe243 O254 1.996 . S
Fe243 O258 1.976 . S
Fe243 O261 2.002 . S
O244 Fe242 1.918 . S
O244 Fe243 1.918 . S
O244 Fe245 1.918 . S
Fe245 O244 1.918 . S
Fe245 O246 2.002 . S
Fe245 O255 1.976 . S
Fe245 O259 1.996 . S
Fe245 O262 1.997 . S
O246 Fe245 2.002 . S
O246 C263 1.295 . S
O247 Fe242 1.997 . S
O247 C263 1.235 . S
O248 Fe242 2.002 . S
O248 C249 1.295 . S
C249 O248 1.295 . S
C249 O251 1.235 . S
C250 O255 1.287 . S
C250 O256 1.255 . S
O251 Fe243 1.997 . S
O251 C249 1.235 . S
C252 O258 1.287 . S
C252 O259 1.255 . S
O253 Fe242 1.976 . S
O253 C260 1.287 . S
O254 Fe243 1.996 . S
O254 C260 1.255 . S
O255 Fe245 1.976 . S
O255 C250 1.287 . S
O256 Fe242 1.996 . S
O256 C250 1.255 . S
C257 O261 1.295 . S
C257 O262 1.235 . S
O258 Fe243 1.976 . S
O258 C252 1.287 . S
O259 Fe245 1.996 . S
O259 C252 1.255 . S
C260 O253 1.287 . S
C260 O254 1.255 . S
O261 Fe243 2.002 . S
O261 C257 1.295 . S
O262 Fe245 1.997 . S
O262 C257 1.235 . S
C263 O246 1.295 . S
C263 O247 1.235 . S
C264 C265 1.170 . S
C264 C266 1.380 . S
C265 C264 1.170 . S
C266 C264 1.380 . S
C266 C267 1.170 . S
C267 C266 1.170 . S
C268 C269 1.170 . S
C268 C270 1.380 . S
C269 C268 1.170 . S
C270 C268 1.380 . S
C270 C271 1.170 . S
C271 C270 1.170 . S
C272 C273 1.170 . S
C272 C274 1.380 . S
C273 C272 1.170 . S
C274 C272 1.380 . S
C274 C275 1.170 . S
C275 C274 1.170 . S
C276 C277 1.170 . S
C276 C278 1.380 . S
C277 C276 1.170 . S
C278 C276 1.380 . S
C278 C279 1.170 . S
C279 C278 1.170 . S
C280 C281 1.170 . S
C280 C282 1.380 . S
C281 C280 1.170 . S
C282 C280 1.380 . S
C282 C283 1.170 . S
C283 C282 1.170 . S
C284 C285 1.170 . S
C284 C286 1.380 . S
C285 C284 1.170 . S
C286 C284 1.380 . S
C286 C287 1.170 . S
C287 C286 1.170 . S
C288 C289 1.170 . S
C288 C290 1.380 . S
C289 C288 1.170 . S
C290 C288 1.380 . S
C290 C291 1.170 . S
C291 C290 1.170 . S
C292 C293 1.170 . S
C292 C294 1.380 1_655 S
C293 C292 1.170 . S
C294 C292 1.380 1_455 S
C294 C295 1.170 . S
C295 C294 1.170 . S
C296 C297 1.170 . S
C296 C298 1.380 1_545 S
C297 C296 1.170 . S
C298 C296 1.380 1_565 S
C298 C299 1.170 . S
C299 C298 1.170 . S
C300 C301 1.170 . S
C300 C302 1.380 . S
C301 C300 1.170 . S
C302 C300 1.380 . S
C302 C303 1.170 . S
C303 C302 1.170 . S
C304 C305 1.170 . S
C304 C306 1.380 1_455 S
C305 C304 1.170 . S
C306 C304 1.380 1_655 S
C306 C307 1.170 . S
C307 C306 1.170 . S
C308 C309 1.170 . S
C308 C310 1.380 1_546 S
C309 C308 1.170 . S
C310 C308 1.380 1_564 S
C310 C311 1.170 . S
C311 C310 1.170 . S
C312 C313 1.170 . S
C312 C314 1.380 . S
C313 C312 1.170 . S
C314 C312 1.380 . S
C314 C315 1.170 . S
C315 C314 1.170 . S
C316 C317 1.170 . S
C316 C318 1.380 . S
C317 C316 1.170 . S
C318 C316 1.380 . S
C318 C319 1.170 . S
C319 C318 1.170 . S
C320 C321 1.170 . S
C320 C322 1.380 . S
C321 C320 1.170 . S
C322 C320 1.380 . S
C322 C323 1.170 . S
C323 C322 1.170 . S
C324 C325 1.170 . S
C324 C326 1.380 . S
C325 C324 1.170 . S
C326 C324 1.380 . S
C326 C327 1.170 . S
C327 C326 1.170 . S
C328 C329 1.170 . S
C328 C330 1.380 . S
C329 C328 1.170 . S
C330 C328 1.380 . S
C330 C331 1.170 . S
C331 C330 1.170 . S
C332 C333 1.170 . S
C332 C334 1.380 . S
C333 C332 1.170 . S
C334 C332 1.380 . S
C334 C335 1.170 . S
C335 C334 1.170 . S
C336 C337 1.170 . S
C336 C338 1.380 . S
C337 C336 1.170 . S
C338 C336 1.380 . S
C338 C339 1.170 . S
C339 C338 1.170 . S
C340 C341 1.170 . S
C340 C342 1.380 1_655 S
C341 C340 1.170 . S
C342 C340 1.380 1_455 S
C342 C343 1.170 . S
C343 C342 1.170 . S
C344 C345 1.170 . S
C344 C346 1.380 1_565 S
C345 C344 1.170 . S
C346 C344 1.380 1_545 S
C346 C347 1.170 . S
C347 C346 1.170 . S
C348 C349 1.170 . S
C348 C350 1.380 . S
C349 C348 1.170 . S
C350 C348 1.380 . S
C350 C351 1.170 . S
C351 C350 1.170 . S
C352 C353 1.170 . S
C352 C354 1.380 1_455 S
C353 C352 1.170 . S
C354 C352 1.380 1_655 S
C354 C355 1.170 . S
C355 C354 1.170 . S
C356 C357 1.170 . S
C356 C358 1.380 1_545 S
C357 C356 1.170 . S
C358 C356 1.380 1_565 S
C358 C359 1.170 . S
C359 C358 1.170 . S
C360 C361 1.170 . S
C360 C362 1.380 . S
C361 C360 1.170 . S
C362 C360 1.380 . S
C362 C363 1.170 . S
C363 C362 1.170 . S
C364 C365 1.170 . S
C364 C366 1.380 1_455 S
C365 C364 1.170 . S
C366 C364 1.380 1_655 S
C366 C367 1.170 . S
C367 C366 1.170 . S
C368 C369 1.170 . S
C368 C370 1.380 1_545 S
C369 C368 1.170 . S
C370 C368 1.380 1_565 S
C370 C371 1.170 . S
C371 C370 1.170 . S
C372 C373 1.170 . S
C372 C374 1.380 . S
C373 C372 1.170 . S
C374 C372 1.380 . S
C374 C375 1.170 . S
C375 C374 1.170 . S
C376 C377 1.170 . S
C376 C378 1.380 1_455 S
C377 C376 1.170 . S
C378 C376 1.380 1_655 S
C378 C379 1.170 . S
C379 C378 1.170 . S
C380 C381 1.170 . S
C380 C382 1.380 1_545 S
C381 C380 1.170 . S
C382 C380 1.380 1_565 S
C382 C383 1.170 . S
C383 C382 1.170 . S
C384 C385 1.170 . S
C384 C386 1.380 . S
C385 C384 1.170 . S
C386 C384 1.380 . S
C386 C387 1.170 . S
C387 C386 1.170 . S
C388 C389 1.170 . S
C388 C390 1.380 . S
C389 C388 1.170 . S
C390 C388 1.380 . S
C390 C391 1.170 . S
C391 C390 1.170 . S
C392 C393 1.170 . S
C392 C394 1.380 . S
C393 C392 1.170 . S
C394 C392 1.380 . S
C394 C395 1.170 . S
C395 C394 1.170 . S
C396 C397 1.170 . S
C396 C398 1.380 . S
C397 C396 1.170 . S
C398 C396 1.380 . S
C398 C399 1.170 . S
C399 C398 1.170 . S
C400 C401 1.170 . S
C400 C402 1.380 . S
C401 C400 1.170 . S
C402 C400 1.380 . S
C402 C403 1.170 . S
C403 C402 1.170 . S
C404 C405 1.170 . S
C404 C406 1.380 . S
C405 C404 1.170 . S
C406 C404 1.380 . S
C406 C407 1.170 . S
C407 C406 1.170 . S
C265 C15 1.607 . S
C267 C183 1.580 . S
C269 C213 1.577 . S
C271 C43 1.591 . S
C273 C235 1.581 . S
C275 C59 1.607 . S
C277 C81 1.594 . S
C279 C249 1.600 . S
C281 C153 1.583 . S
C283 C103 1.583 . S
C285 C169 1.603 . S
C287 C125 1.574 . S
C289 C18 1.066 . S
C291 C216 1.058 . S
C293 C32 1.041 . S
C295 C238 1.088 . S
C297 C250 1.093 . S
C299 C62 1.040 . S
C301 C142 1.041 . S
C303 C84 1.087 . S
C305 C106 1.095 . S
C307 C172 1.043 . S
C309 C128 1.060 . S
C311 C184 1.086 . S
C313 C140 1.430 . S
C315 C10 1.423 . S
C317 C164 1.431 . S
C319 C30 1.425 . S
C321 C194 1.425 . S
C323 C54 1.419 . S
C325 C76 1.431 . S
C327 C208 1.425 . S
C329 C98 1.431 . S
C331 C230 1.434 . S
C333 C120 1.433 . S
C335 C260 1.434 . S
C337 C8 1.584 . S
C339 C131 1.669 . S
C341 C40 1.599 . S
C343 C21 1.640 . S
C345 C52 1.616 . S
C347 C29 1.638 . S
C349 C65 1.669 . S
C351 C74 1.587 . S
C353 C96 1.609 . S
C355 C87 1.660 . S
C357 C118 1.576 . S
C359 C109 1.665 . S
C361 C175 1.647 . S
C363 C150 1.587 . S
C365 C191 1.661 . S
C367 C162 1.576 . S
C369 C219 1.639 . S
C371 C186 1.619 . S
C373 C206 1.605 . S
C375 C241 1.638 . S
C377 C228 1.593 . S
C379 C257 1.668 . S
C381 C252 1.582 . S
C383 C139 1.651 . S
C385 C227 0.844 . S
C387 C7 0.794 . S
C389 C263 0.833 . S
C391 C37 0.842 . S
C393 C147 0.854 . S
C395 C51 0.795 . S
C397 C161 0.813 . S
C399 C73 0.855 . S
C401 C95 0.852 . S
C403 C197 0.794 1_556 S
C405 C117 0.839 1_554 S
C407 C205 0.837 . S
