# Generated by pormake.
# Topology ske, (6)-cn, num edge types: 1
# Building blocks:
#     Node 0, Type 0, BuildingBlock: CUKXOW_clean_sbu_0, # of connection points: 6
#     Node 1, Type 0, BuildingBlock: CUKXOW_clean_sbu_0, # of connection points: 6
#     Node 2, Type 0, BuildingBlock: CUKXOW_clean_sbu_0, # of connection points: 6
#     Node 3, Type 0, BuildingBlock: CUKXOW_clean_sbu_0, # of connection points: 6
#     Node 4, Type 0, BuildingBlock: CUKXOW_clean_sbu_0, # of connection points: 6
#     Node 5, Type 0, BuildingBlock: CUKXOW_clean_sbu_0, # of connection points: 6
#     Node 6, Type 0, BuildingBlock: CUKXOW_clean_sbu_0, # of connection points: 6
#     Node 7, Type 0, BuildingBlock: CUKXOW_clean_sbu_0, # of connection points: 6
#     Edge 8, Type (0, 0), BuildingBlock: EZIPEK_clean_linker_0, # of connection points: 2
#     Edge 9, Type (0, 0), BuildingBlock: EZIPEK_clean_linker_0, # of connection points: 2
#     Edge 10, Type (0, 0), BuildingBlock: EZIPEK_clean_linker_0, # of connection points: 2
#     Edge 11, Type (0, 0), BuildingBlock: EZIPEK_clean_linker_0, # of connection points: 2
#     Edge 12, Type (0, 0), BuildingBlock: EZIPEK_clean_linker_0, # of connection points: 2
#     Edge 13, Type (0, 0), BuildingBlock: EZIPEK_clean_linker_0, # of connection points: 2
#     Edge 14, Type (0, 0), BuildingBlock: EZIPEK_clean_linker_0, # of connection points: 2
#     Edge 15, Type (0, 0), BuildingBlock: EZIPEK_clean_linker_0, # of connection points: 2
#     Edge 16, Type (0, 0), BuildingBlock: EZIPEK_clean_linker_0, # of connection points: 2
#     Edge 17, Type (0, 0), BuildingBlock: EZIPEK_clean_linker_0, # of connection points: 2
#     Edge 18, Type (0, 0), BuildingBlock: EZIPEK_clean_linker_0, # of connection points: 2
#     Edge 19, Type (0, 0), BuildingBlock: EZIPEK_clean_linker_0, # of connection points: 2
#     Edge 20, Type (0, 0), BuildingBlock: EZIPEK_clean_linker_0, # of connection points: 2
#     Edge 21, Type (0, 0), BuildingBlock: EZIPEK_clean_linker_0, # of connection points: 2
#     Edge 22, Type (0, 0), BuildingBlock: EZIPEK_clean_linker_0, # of connection points: 2
#     Edge 23, Type (0, 0), BuildingBlock: EZIPEK_clean_linker_0, # of connection points: 2
#     Edge 24, Type (0, 0), BuildingBlock: EZIPEK_clean_linker_0, # of connection points: 2
#     Edge 25, Type (0, 0), BuildingBlock: EZIPEK_clean_linker_0, # of connection points: 2
#     Edge 26, Type (0, 0), BuildingBlock: EZIPEK_clean_linker_0, # of connection points: 2
#     Edge 27, Type (0, 0), BuildingBlock: EZIPEK_clean_linker_0, # of connection points: 2
#     Edge 28, Type (0, 0), BuildingBlock: EZIPEK_clean_linker_0, # of connection points: 2
#     Edge 29, Type (0, 0), BuildingBlock: EZIPEK_clean_linker_0, # of connection points: 2
#     Edge 30, Type (0, 0), BuildingBlock: EZIPEK_clean_linker_0, # of connection points: 2
#     Edge 31, Type (0, 0), BuildingBlock: EZIPEK_clean_linker_0, # of connection points: 2
# Relax obj value: 0.166
# Max RMSD: 0.212
# Mean RMSD: 0.212
data_MOF--net-ske--node1-CUKXOW_clean_sbu_0--edge1-EZIPEK_clean_linker_0
_symmetry_space_group_name_H-M    P1
_symmetry_Int_Tables_number       1
_symmetry_cell_setting            triclinic
loop_
_symmetry_equiv_pos_as_xyz
'x, y, z'
_cell_length_a     37.373466
_cell_length_b     22.39401
_cell_length_c     13.847277
_cell_angle_alpha  96.43645
_cell_angle_beta   90.097052
_cell_angle_gamma 89.62096
loop_
_atom_site_label
_atom_site_type_symbol
_atom_site_fract_x
_atom_site_fract_y
_atom_site_fract_z
_atom_type_partial_charge
Tb0 Tb 0.18566 0.24771 0.44322 0.0
C1 C 0.17633 0.13001 0.53062 0.0
Tb2 Tb 0.16692 0.26135 0.6513 0.0
O3 O 0.23905 0.21335 0.48446 0.0
O4 O 0.21251 0.27841 0.57431 0.0
O5 O 0.17302 0.1553 0.44985 0.0
C6 C 0.174 0.2616 0.84209 0.0
O7 O 0.17894 0.16334 0.61671 0.0
C8 C 0.10996 0.26515 0.53985 0.0
C9 C 0.16917 0.37768 0.54391 0.0
O10 O 0.14595 0.24293 0.79246 0.0
O11 O 0.19781 0.27996 0.78483 0.0
O12 O 0.11365 0.29426 0.62599 0.0
O13 O 0.13764 0.23221 0.52247 0.0
O14 O 0.17038 0.35687 0.63016 0.0
O15 O 0.17075 0.34199 0.46147 0.0
C16 C 0.18859 0.24792 0.25167 0.0
O17 O 0.21509 0.26097 0.31058 0.0
O18 O 0.16073 0.23473 0.30001 0.0
C19 C 0.23973 0.24525 0.56864 0.0
Tb20 Tb 0.90331 0.26513 0.65519 0.0
C21 C 0.90017 0.37784 0.53975 0.0
Tb22 Tb 0.88281 0.25023 0.4498 0.0
O23 O 0.95663 0.29541 0.6326 0.0
O24 O 0.93247 0.23435 0.52655 0.0
O25 O 0.89354 0.35905 0.62594 0.0
C26 C 0.87791 0.2523 0.25782 0.0
O27 O 0.90366 0.33977 0.46118 0.0
C28 C 0.82953 0.25616 0.58135 0.0
C29 C 0.89585 0.13189 0.53129 0.0
O30 O 0.85621 0.27983 0.32135 0.0
O31 O 0.90156 0.2229 0.30209 0.0
O32 O 0.82916 0.22156 0.49945 0.0
O33 O 0.85763 0.28603 0.58187 0.0
O34 O 0.89064 0.15641 0.45094 0.0
O35 O 0.90073 0.16475 0.61752 0.0
C36 C 0.89437 0.26092 0.84554 0.0
O37 O 0.92015 0.28869 0.8068 0.0
O38 O 0.87413 0.23527 0.77759 0.0
C39 C 0.96022 0.26663 0.54625 0.0
Tb40 Tb 0.18567 0.75356 0.55392 0.0
C41 C 0.1746 0.87022 0.46087 0.0
Tb42 Tb 0.16659 0.73635 0.34586 0.0
O43 O 0.23957 0.78245 0.51135 0.0
O44 O 0.21206 0.71865 0.42383 0.0
O45 O 0.17933 0.84734 0.54345 0.0
C46 C 0.17558 0.73989 0.15647 0.0
O47 O 0.16984 0.83604 0.37634 0.0
C48 C 0.10938 0.73818 0.4561 0.0
C49 C 0.17054 0.62411 0.46068 0.0
O50 O 0.19525 0.76744 0.22401 0.0
O51 O 0.15055 0.71032 0.19483 0.0
O52 O 0.11223 0.70972 0.36934 0.0
O53 O 0.13751 0.76933 0.47355 0.0
O54 O 0.17695 0.64298 0.37463 0.0
O55 O 0.16688 0.66209 0.53964 0.0
C56 C 0.18868 0.75301 0.74567 0.0
O57 O 0.16342 0.77721 0.69882 0.0
O58 O 0.21277 0.72999 0.68497 0.0
C59 C 0.24001 0.7495 0.428 0.0
Tb60 Tb 0.9041 0.74132 0.34943 0.0
C61 C 0.8985 0.62266 0.45186 0.0
Tb62 Tb 0.88257 0.75227 0.55307 0.0
O63 O 0.9567 0.7081 0.37694 0.0
O64 O 0.93228 0.77055 0.4807 0.0
O65 O 0.89952 0.64501 0.36669 0.0
C66 C 0.87984 0.74685 0.74443 0.0
O67 O 0.89389 0.65706 0.53456 0.0
C68 C 0.82941 0.74749 0.42216 0.0
C69 C 0.898 0.87171 0.47772 0.0
O70 O 0.90354 0.72099 0.6858 0.0
O71 O 0.85702 0.77542 0.69545 0.0
O72 O 0.82805 0.77939 0.50625 0.0
O73 O 0.85803 0.71821 0.41954 0.0
O74 O 0.89755 0.84442 0.55662 0.0
O75 O 0.89859 0.84093 0.38906 0.0
C76 C 0.8971 0.74663 0.15867 0.0
O77 O 0.87189 0.75592 0.22236 0.0
O78 O 0.92672 0.73496 0.20222 0.0
C79 C 0.96016 0.73784 0.46255 0.0
Tb80 Tb 0.68444 0.73562 0.94534 0.0
C81 C 0.66887 0.62273 0.04464 0.0
Tb82 Tb 0.65926 0.7585 0.15153 0.0
O83 O 0.73741 0.70668 0.99627 0.0
O84 O 0.70683 0.7703 0.07951 0.0
O85 O 0.67553 0.64314 0.96092 0.0
C86 C 0.66524 0.76151 0.34434 0.0
O87 O 0.66376 0.65901 0.12685 0.0
C88 C 0.60605 0.75788 0.02896 0.0
C89 C 0.66811 0.86993 0.03124 0.0
O90 O 0.63625 0.74846 0.29459 0.0
O91 O 0.69036 0.77432 0.28593 0.0
O92 O 0.60736 0.79004 0.11343 0.0
O93 O 0.63408 0.72455 0.01897 0.0
O94 O 0.65894 0.85176 0.11625 0.0
O95 O 0.68092 0.83241 0.95926 0.0
C96 C 0.68299 0.73613 0.75282 0.0
O97 O 0.71174 0.73003 0.80391 0.0
O98 O 0.65541 0.74083 0.80956 0.0
C99 C 0.73469 0.73866 0.08063 0.0
Tb100 Tb 0.40401 0.77352 0.15712 0.0
C101 C 0.39858 0.88683 0.04285 0.0
Tb102 Tb 0.3812 0.75454 0.94885 0.0
O103 O 0.45695 0.80196 0.12107 0.0
O104 O 0.42989 0.73906 0.02556 0.0
O105 O 0.40016 0.86798 0.13058 0.0
C106 C 0.38089 0.75254 0.7565 0.0
O107 O 0.39459 0.84941 0.96273 0.0
C108 C 0.32912 0.75634 0.07919 0.0
C109 C 0.3934 0.63933 0.04809 0.0
O110 O 0.35412 0.76947 0.81295 0.0
O111 O 0.40721 0.73546 0.80789 0.0
O112 O 0.32772 0.72596 0.99348 0.0
O113 O 0.35699 0.78789 0.08186 0.0
O114 O 0.38798 0.66089 0.96437 0.0
O115 O 0.39851 0.67445 0.13129 0.0
C116 C 0.39825 0.77387 0.34855 0.0
O117 O 0.42828 0.77218 0.30128 0.0
O118 O 0.37186 0.77594 0.28871 0.0
C119 C 0.45837 0.76997 0.03658 0.0
Tb120 Tb 0.68641 0.24961 0.06187 0.0
C121 C 0.66642 0.36436 0.98077 0.0
Tb122 Tb 0.65833 0.23917 0.85268 0.0
O123 O 0.74018 0.27779 0.0132 0.0
O124 O 0.70689 0.2267 0.92125 0.0
O125 O 0.66263 0.33598 0.0579 0.0
C126 C 0.66513 0.2348 0.66126 0.0
O127 O 0.67166 0.33487 0.893 0.0
C128 C 0.60189 0.24758 0.96467 0.0
C129 C 0.66667 0.12127 0.96129 0.0
O130 O 0.64955 0.27774 0.7165 0.0
O131 O 0.67635 0.19365 0.71297 0.0
O132 O 0.60077 0.24101 0.87017 0.0
O133 O 0.63453 0.24823 0.9929 0.0
O134 O 0.6556 0.14426 0.8812 0.0
O135 O 0.68115 0.15396 0.03626 0.0
C136 C 0.69048 0.24294 0.25263 0.0
O137 O 0.68415 0.19864 0.18685 0.0
O138 O 0.69605 0.29108 0.21083 0.0
C139 C 0.73526 0.25594 0.92309 0.0
Tb140 Tb 0.40455 0.25263 0.85125 0.0
C141 C 0.39584 0.13421 0.95915 0.0
Tb142 Tb 0.37718 0.25845 0.0634 0.0
O143 O 0.46216 0.2431 0.87112 0.0
O144 O 0.42726 0.24858 0.98939 0.0
O145 O 0.39424 0.15714 0.874 0.0
C146 C 0.37025 0.26658 0.25544 0.0
O147 O 0.39689 0.16834 0.04271 0.0
C148 C 0.32887 0.25342 0.91901 0.0
C149 C 0.39444 0.38007 0.98416 0.0
O150 O 0.34803 0.23942 0.19344 0.0
O151 O 0.39554 0.29072 0.20943 0.0
O152 O 0.32328 0.23204 1.00102 0.0
O153 O 0.35832 0.27928 0.92698 0.0
O154 O 0.38772 0.35259 0.06185 0.0
O155 O 0.3988 0.3508 0.89494 0.0
C156 C 0.39491 0.2471 0.66079 0.0
O157 O 0.41902 0.2795 0.70969 0.0
O158 O 0.37688 0.21697 0.71875 0.0
C159 C 0.46003 0.24375 0.9651 0.0
C160 C 0.27306 0.19026 0.69487 0.0
C161 C 0.26675 0.24332 0.64941 0.0
C162 C 0.29835 0.30225 0.78398 0.0
C163 C 0.30561 0.24932 0.82902 0.0
N164 N 0.30599 0.14106 0.81533 0.0
N165 N 0.28349 0.34524 0.63569 0.0
C166 C 0.29443 0.19278 0.78142 0.0
C167 C 0.28241 0.29792 0.68979 0.0
N168 N 0.25835 0.13733 0.65619 0.0
N169 N 0.30523 0.35736 0.83295 0.0
H170 H 0.27365 0.34242 0.56473 0.0
H171 H 0.29734 0.38476 0.65683 0.0
H172 H 0.31568 0.36278 0.90299 0.0
H173 H 0.29709 0.39762 0.80847 0.0
H174 H 0.2569 0.09931 0.69291 0.0
H175 H 0.24661 0.13201 0.58777 0.0
H176 H 0.3025 0.09842 0.7783 0.0
H177 H 0.32191 0.14098 0.87684 0.0
C178 C 0.77025 0.20087 0.78253 0.0
C179 C 0.76095 0.2559 0.83897 0.0
C180 C 0.79383 0.31085 0.72177 0.0
C181 C 0.80475 0.25562 0.66821 0.0
N182 N 0.81142 0.14866 0.668 0.0
N183 N 0.76869 0.36321 0.86963 0.0
C184 C 0.79471 0.20077 0.70333 0.0
C185 C 0.77456 0.31073 0.8113 0.0
N186 N 0.75685 0.14775 0.80619 0.0
N187 N 0.79989 0.36372 0.68406 0.0
H188 H 0.75257 0.36619 0.93114 0.0
H189 H 0.78175 0.40317 0.86089 0.0
H190 H 0.81225 0.36584 0.61726 0.0
H191 H 0.78934 0.40494 0.71325 0.0
H192 H 0.75766 0.10812 0.75894 0.0
H193 H 0.74393 0.14319 0.87149 0.0
H194 H 0.80838 0.10797 0.69675 0.0
H195 H 0.83214 0.14803 0.61856 0.0
C196 C 0.29695 0.80757 0.22673 0.0
C197 C 0.30354 0.75408 0.16365 0.0
C198 C 0.27164 0.69713 0.27986 0.0
C199 C 0.26596 0.75074 0.34407 0.0
N200 N 0.2844 0.85364 0.38927 0.0
N201 N 0.28803 0.64969 0.12011 0.0
C202 C 0.28187 0.80495 0.32089 0.0
C203 C 0.28818 0.6994 0.18703 0.0
N204 N 0.30238 0.86191 0.19334 0.0
N205 N 0.26434 0.64285 0.3117 0.0
H206 H 0.3008 0.64699 0.05331 0.0
H207 H 0.27269 0.61184 0.12754 0.0
H208 H 0.25548 0.63873 0.38195 0.0
H209 H 0.27139 0.60164 0.27396 0.0
H210 H 0.29444 0.90262 0.23131 0.0
H211 H 0.31038 0.86588 0.12221 0.0
H212 H 0.29939 0.89145 0.37882 0.0
H213 H 0.2751 0.85464 0.45997 0.0
C214 C 0.77172 0.79743 0.21274 0.0
C215 C 0.76053 0.74087 0.16503 0.0
C216 C 0.78958 0.69098 0.29535 0.0
C217 C 0.80326 0.74672 0.33849 0.0
N218 N 0.81264 0.85176 0.32576 0.0
N219 N 0.76554 0.63259 0.1525 0.0
C220 C 0.79534 0.79975 0.29449 0.0
C221 C 0.77162 0.68734 0.20353 0.0
N222 N 0.76062 0.84948 0.17865 0.0
N223 N 0.79206 0.64163 0.34478 0.0
H224 H 0.75123 0.62678 0.08771 0.0
H225 H 0.77715 0.59296 0.17087 0.0
H226 H 0.80403 0.64285 0.41311 0.0
H227 H 0.77914 0.60128 0.32283 0.0
H228 H 0.76279 0.89155 0.21868 0.0
H229 H 0.74818 0.85082 0.11156 0.0
H230 H 0.81162 0.89035 0.29032 0.0
H231 H 0.83103 0.85436 0.38204 0.0
C232 C 0.14911 0.96696 0.53816 0.0
C233 C 0.17248 0.93678 0.46789 0.0
C234 C 0.2001 0.03288 0.44348 0.0
C235 C 0.17843 0.06276 0.51963 0.0
N236 N 0.1374 0.05435 0.65272 0.0
N237 N 0.22163 0.93947 0.3565 0.0
C238 C 0.15454 0.0287 0.57117 0.0
C239 C 0.19806 0.96941 0.4204 0.0
N240 N 0.12062 0.9368 0.57071 0.0
N241 N 0.2231 0.06521 0.39331 0.0
H242 H 0.2198 0.89377 0.33325 0.0
H243 H 0.24414 0.95896 0.32939 0.0
H244 H 0.23033 0.10909 0.41696 0.0
H245 H 0.23459 0.04911 0.32698 0.0
H246 H 0.10017 0.95765 0.61325 0.0
H247 H 0.11534 0.89192 0.54654 0.0
H248 H 0.12294 0.02974 0.69867 0.0
H249 H 0.14033 0.09892 0.68113 0.0
C250 C 0.87155 0.46152 0.46333 0.0
C251 C 0.89909 0.44204 0.52385 0.0
C252 C 0.92975 0.53818 0.52104 0.0
C253 C 0.90235 0.55737 0.45972 0.0
N254 N 0.85175 0.53312 0.35508 0.0
N255 N 0.95679 0.45716 0.59958 0.0
C256 C 0.87468 0.51765 0.42526 0.0
C257 C 0.92882 0.47922 0.55021 0.0
N258 N 0.84183 0.42677 0.44449 0.0
N259 N 0.95671 0.57685 0.5512 0.0
H260 H 0.95627 0.41515 0.62519 0.0
H261 H 0.98119 0.47886 0.6115 0.0
H262 H 0.96044 0.61725 0.52194 0.0
H263 H 0.97488 0.5698 0.60586 0.0
H264 H 0.81899 0.44094 0.41026 0.0
H265 H 0.83868 0.3851 0.47013 0.0
H266 H 0.83322 0.50386 0.31963 0.0
H267 H 0.85345 0.57355 0.32501 0.0
C268 C 0.93112 0.97006 0.50106 0.0
C269 C 0.89832 0.93823 0.49189 0.0
C270 C 0.865 0.03244 0.50232 0.0
C271 C 0.89709 0.06523 0.52085 0.0
N272 N 0.96136 0.06634 0.53211 0.0
N273 N 0.83488 0.94078 0.5254 0.0
C274 C 0.93046 0.03421 0.51922 0.0
C275 C 0.86549 0.96977 0.50488 0.0
N276 N 0.96266 0.93872 0.49351 0.0
N277 N 0.83423 0.06001 0.47699 0.0
H278 H 0.83463 0.89566 0.53709 0.0
H279 H 0.8109 0.96345 0.54318 0.0
H280 H 0.83292 0.10514 0.46593 0.0
H281 H 0.81117 0.03615 0.45523 0.0
H282 H 0.98776 0.95815 0.49054 0.0
H283 H 0.96363 0.89203 0.48902 0.0
H284 H 0.98652 0.04763 0.54096 0.0
H285 H 0.96168 0.11294 0.53468 0.0
C286 C 0.14184 0.52276 0.44779 0.0
C287 C 0.17164 0.5596 0.47522 0.0
C288 C 0.19829 0.47914 0.55983 0.0
C289 C 0.16778 0.4432 0.5355 0.0
N290 N 0.10737 0.43489 0.47634 0.0
N291 N 0.22671 0.57648 0.56532 0.0
C292 C 0.13867 0.46622 0.4848 0.0
C293 C 0.19941 0.53877 0.5337 0.0
N294 N 0.11657 0.5419 0.38653 0.0
N295 N 0.2268 0.45544 0.60464 0.0
H296 H 0.23029 0.61855 0.54133 0.0
H297 H 0.24497 0.56754 0.61877 0.0
H298 H 0.22593 0.41381 0.63115 0.0
H299 H 0.25179 0.47567 0.61231 0.0
H300 H 0.096 0.51489 0.35603 0.0
H301 H 0.11777 0.58357 0.35987 0.0
H302 H 0.08391 0.45086 0.44752 0.0
H303 H 0.1039 0.39519 0.50795 0.0
C304 C 0.68556 0.52243 0.09699 0.0
C305 C 0.66346 0.55695 0.04112 0.0
C306 C 0.63979 0.46404 0.95238 0.0
C307 C 0.66623 0.43076 0.99689 0.0
N308 N 0.71749 0.42901 0.10353 0.0
N309 N 0.61801 0.56132 0.9173 0.0
C310 C 0.68982 0.4601 0.06749 0.0
C311 C 0.64008 0.52786 0.96931 0.0
N312 N 0.70219 0.5485 0.17887 0.0
N313 N 0.61331 0.43467 0.89806 0.0
H314 H 0.61418 0.60742 0.93444 0.0
H315 H 0.60437 0.54376 0.85499 0.0
H316 H 0.61208 0.38798 0.88445 0.0
H317 H 0.59087 0.45607 0.87312 0.0
H318 H 0.71543 0.52396 0.22784 0.0
H319 H 0.69989 0.59388 0.20392 0.0
H320 H 0.73805 0.44955 0.14566 0.0
H321 H 0.72197 0.38339 0.08394 0.0
C322 C 0.42572 0.97095 0.96162 0.0
C323 C 0.40075 0.95202 0.02961 0.0
C324 C 0.369 0.04814 0.03187 0.0
C325 C 0.39482 0.06852 0.96771 0.0
N326 N 0.44986 0.05197 0.87841 0.0
N327 N 0.35393 0.97878 0.14682 0.0
C328 C 0.42359 0.03035 0.93341 0.0
C329 C 0.37402 0.99243 0.07 0.0
N330 N 0.45212 0.93216 0.92604 0.0
N331 N 0.33892 0.08178 0.05497 0.0
H332 H 0.35681 0.9392 0.1786 0.0
H333 H 0.33701 0.00948 0.18647 0.0
H334 H 0.33432 0.12334 0.03041 0.0
H335 H 0.31697 0.06622 0.09081 0.0
H336 H 0.46821 0.93863 0.8669 0.0
H337 H 0.45766 0.89253 0.95623 0.0
H338 H 0.47372 0.0294 0.85997 0.0
H339 H 0.44877 0.09455 0.85492 0.0
C340 C 0.42417 0.47928 0.9666 0.0
C341 C 0.39489 0.44687 0.99952 0.0
C342 C 0.37143 0.53993 0.08898 0.0
C343 C 0.39734 0.57325 0.04421 0.0
N344 N 0.44868 0.57589 0.9392 0.0
N345 N 0.33684 0.44897 0.07797 0.0
C346 C 0.42378 0.54321 0.98248 0.0
C347 C 0.36757 0.47786 0.05733 0.0
N348 N 0.45321 0.44924 0.92483 0.0
N349 N 0.35056 0.5672 0.16215 0.0
H350 H 0.33189 0.40405 0.05417 0.0
H351 H 0.31456 0.47119 0.11016 0.0
H352 H 0.35257 0.61259 0.18762 0.0
H353 H 0.33383 0.54356 0.20424 0.0
H354 H 0.47705 0.47021 0.91003 0.0
H355 H 0.45495 0.4026 0.91241 0.0
H356 H 0.46538 0.55764 0.88322 0.0
H357 H 0.45173 0.62209 0.95663 0.0
C358 C 0.65569 0.04043 0.06919 0.0
C359 C 0.66195 0.05654 0.97396 0.0
C360 C 0.66121 0.94994 0.91535 0.0
C361 C 0.66438 0.93443 0.01278 0.0
N362 N 0.67527 0.97282 0.18156 0.0
N363 N 0.67916 0.02199 0.80823 0.0
C364 C 0.66454 0.98176 0.08995 0.0
C365 C 0.66716 0.01012 0.89713 0.0
N366 N 0.64079 0.0803 0.13977 0.0
N367 N 0.65084 0.90888 0.84038 0.0
H368 H 0.68633 0.06469 0.79261 0.0
H369 H 0.68592 0.98785 0.7536 0.0
H370 H 0.64165 0.86636 0.85028 0.0
H371 H 0.64637 0.92036 0.77038 0.0
H372 H 0.63408 0.06834 0.20812 0.0
H373 H 0.63102 0.1222 0.12597 0.0
H374 H 0.67744 0.00816 0.23713 0.0
H375 H 0.68704 0.93308 0.19863 0.0
C376 C 0.18463 0.1975 0.08256 0.0
C377 C 0.18883 0.25116 0.14625 0.0
C378 C 0.18511 0.31169 0.00969 0.0
C379 C 0.17947 0.25812 0.94654 0.0
N380 N 0.18157 0.14998 0.91639 0.0
N381 N 0.19064 0.3593 0.17547 0.0
C382 C 0.18116 0.2009 0.98118 0.0
C383 C 0.18906 0.30829 0.11106 0.0
N384 N 0.18324 0.14343 0.11971 0.0
N385 N 0.18683 0.36568 0.97235 0.0
H386 H 0.19393 0.35866 0.25013 0.0
H387 H 0.18683 0.40258 0.15678 0.0
H388 H 0.18148 0.37065 0.89976 0.0
H389 H 0.19513 0.40553 0.01154 0.0
H390 H 0.17572 0.10333 0.07981 0.0
H391 H 0.18819 0.13878 0.19269 0.0
H392 H 0.1865 0.10705 0.93538 0.0
H393 H 0.17972 0.15068 0.84137 0.0
C394 C 0.88114 0.31198 0.11456 0.0
C395 C 0.87772 0.25571 0.15174 0.0
C396 C 0.8866 0.20304 0.98858 0.0
C397 C 0.88827 0.25924 0.95068 0.0
N398 N 0.87855 0.3665 0.97302 0.0
N399 N 0.86877 0.14874 0.12234 0.0
C400 C 0.88302 0.31359 0.01231 0.0
C401 C 0.87791 0.20151 0.08808 0.0
N402 N 0.88448 0.36363 0.17662 0.0
N403 N 0.89493 0.15126 0.93075 0.0
H404 H 0.86153 0.1462 0.19451 0.0
H405 H 0.86485 0.10874 0.07761 0.0
H406 H 0.90198 0.15037 0.85777 0.0
H407 H 0.89801 0.10976 0.95709 0.0
H408 H 0.89119 0.40484 0.15368 0.0
H409 H 0.88346 0.36474 0.25199 0.0
H410 H 0.87072 0.40644 0.01354 0.0
H411 H 0.87931 0.3694 0.89839 0.0
C412 C 0.17598 0.7993 0.01456 0.0
C413 C 0.18057 0.74337 0.05196 0.0
C414 C 0.19101 0.69317 0.88831 0.0
C415 C 0.18852 0.74975 0.85143 0.0
N416 N 0.18651 0.85798 0.88086 0.0
N417 N 0.20015 0.63998 0.02951 0.0
C418 C 0.18328 0.80328 0.91501 0.0
C419 C 0.19042 0.6911 0.99036 0.0
N420 N 0.16332 0.84806 0.07321 0.0
N421 N 0.19189 0.64118 0.82621 0.0
H422 H 0.20001 0.63684 0.10413 0.0
H423 H 0.2115 0.60265 0.98894 0.0
H424 H 0.19149 0.64022 0.75082 0.0
H425 H 0.18978 0.59866 0.84932 0.0
H426 H 0.15557 0.88811 0.04735 0.0
H427 H 0.1576 0.84702 0.14671 0.0
H428 H 0.18655 0.89856 0.92565 0.0
H429 H 0.19272 0.8627 0.8087 0.0
C430 C 0.91231 0.78047 0.89879 0.0
C431 C 0.88249 0.751 0.85136 0.0
C432 C 0.86366 0.71563 0.00409 0.0
C433 C 0.89223 0.74809 0.05288 0.0
N434 N 0.93894 0.82188 0.05118 0.0
N435 N 0.82617 0.70015 0.86042 0.0
C436 C 0.91538 0.78323 1.00148 0.0
C437 C 0.85685 0.72203 0.90474 0.0
N438 N 0.93769 0.80611 0.8458 0.0
N439 N 0.84448 0.67564 0.05069 0.0
H440 H 0.82091 0.70202 0.78683 0.0
H441 H 0.8047 0.68454 0.89809 0.0
H442 H 0.84964 0.66717 0.1219 0.0
H443 H 0.82584 0.64625 0.01595 0.0
H444 H 0.96234 0.82074 0.87415 0.0
H445 H 0.93498 0.81015 0.77184 0.0
H446 H 0.95379 0.85337 0.01875 0.0
H447 H 0.94127 0.8268 0.12667 0.0
C448 C 0.68522 0.80259 0.51206 0.0
C449 C 0.67066 0.75456 0.44867 0.0
C450 C 0.665 0.69395 0.58488 0.0
C451 C 0.68131 0.74062 0.64709 0.0
N452 N 0.7116 0.83595 0.66914 0.0
N453 N 0.65507 0.64955 0.41952 0.0
C454 C 0.69311 0.79374 0.61019 0.0
C455 C 0.66272 0.69886 0.48359 0.0
N456 N 0.68974 0.8576 0.47984 0.0
N457 N 0.65149 0.64492 0.62262 0.0
H458 H 0.65445 0.65037 0.34442 0.0
H459 H 0.6529 0.60633 0.43976 0.0
H460 H 0.6546 0.6377 0.69531 0.0
H461 H 0.63531 0.61323 0.58324 0.0
H462 H 0.69657 0.89621 0.52488 0.0
H463 H 0.68371 0.86616 0.40911 0.0
H464 H 0.72437 0.87241 0.64414 0.0
H465 H 0.7164 0.83246 0.74249 0.0
C466 C 0.37727 0.8139 0.616 0.0
C467 C 0.38311 0.75749 0.65131 0.0
C468 C 0.40226 0.71358 0.48943 0.0
C469 C 0.39401 0.76879 0.453 0.0
N470 N 0.3684 0.86858 0.47644 0.0
N471 N 0.39475 0.65107 0.62 0.0
C472 C 0.37964 0.81791 0.51462 0.0
C473 C 0.39398 0.7066 0.58762 0.0
N474 N 0.37184 0.86446 0.67957 0.0
N475 N 0.41781 0.6677 0.43017 0.0
H476 H 0.38794 0.64401 0.69085 0.0
H477 H 0.39884 0.61122 0.5749 0.0
H478 H 0.42226 0.66947 0.35624 0.0
H479 H 0.42841 0.6292 0.45532 0.0
H480 H 0.37151 0.90771 0.65871 0.0
H481 H 0.37096 0.86422 0.75472 0.0
H482 H 0.3536 0.90263 0.51566 0.0
H483 H 0.37168 0.87493 0.40352 0.0
C484 C 0.70919 0.26788 0.4267 0.0
C485 C 0.68434 0.24126 0.35765 0.0
C486 C 0.64945 0.20424 0.48798 0.0
C487 C 0.67223 0.23586 0.55709 0.0
N488 N 0.71983 0.307 0.59421 0.0
N489 N 0.62537 0.19925 0.32556 0.0
C490 C 0.70091 0.27056 0.52711 0.0
C491 C 0.653 0.2132 0.3888 0.0
N492 N 0.74129 0.28824 0.39692 0.0
N493 N 0.62422 0.16611 0.51696 0.0
H494 H 0.62517 0.21026 0.25442 0.0
H495 H 0.60075 0.1836 0.3469 0.0
H496 H 0.62009 0.1599 0.58967 0.0
H497 H 0.6095 0.13706 0.46823 0.0
H498 H 0.76191 0.30223 0.44479 0.0
H499 H 0.74865 0.28595 0.32399 0.0
H500 H 0.73787 0.33891 0.57509 0.0
H501 H 0.71528 0.30894 0.66879 0.0
C502 C 0.37921 0.20291 0.39085 0.0
C503 C 0.37157 0.26022 0.36027 0.0
C504 C 0.37597 0.3076 0.52822 0.0
C505 C 0.38567 0.25098 0.55793 0.0
N506 N 0.39047 0.14321 0.52373 0.0
N507 N 0.36391 0.36727 0.39553 0.0
C508 C 0.38518 0.19809 0.49116 0.0
C509 C 0.37013 0.31259 0.42794 0.0
N510 N 0.3837 0.15396 0.32311 0.0
N511 N 0.37025 0.35571 0.59674 0.0
H512 H 0.357 0.37203 0.32373 0.0
H513 H 0.367 0.40826 0.43797 0.0
H514 H 0.37251 0.3532 0.67123 0.0
H515 H 0.36017 0.39701 0.5815 0.0
H516 H 0.39362 0.11261 0.33871 0.0
H517 H 0.3798 0.15503 0.24885 0.0
H518 H 0.38559 0.10243 0.4822 0.0
H519 H 0.39801 0.13788 0.59475 0.0
C520 C 0.05344 0.27615 0.44276 0.0
C521 C 0.07299 0.24566 0.51037 0.0
C522 C 1.01714 0.21236 0.57897 0.0
C523 C 0.99729 0.24708 0.51723 0.0
N524 N 0.99516 0.29972 0.37567 0.0
N525 N 0.07401 0.1676 0.61603 0.0
C526 C 1.0151 0.27441 0.44328 0.0
C527 C 0.05488 0.2076 0.56879 0.0
N528 N 0.07172 0.30811 0.38076 0.0
N529 N 1.00032 0.18776 0.65262 0.0
H530 H 0.10169 0.16363 0.60984 0.0
H531 H 0.06233 0.13444 0.65241 0.0
H532 H 0.97262 0.1885 0.66153 0.0
H533 H 1.01387 0.1693 0.70808 0.0
H534 H 0.05971 0.33628 0.33522 0.0
H535 H 0.09962 0.30682 0.37658 0.0
H536 H 1.0059 0.31828 0.31663 0.0
H537 H 0.96725 0.29812 0.37531 0.0
C538 C 1.01615 0.73127 0.56201 0.0
C539 C 0.99714 0.75837 0.48952 0.0
C540 C 0.05378 0.7969 0.43216 0.0
C541 C 0.07286 0.75843 0.48886 0.0
N542 N 0.07328 0.69294 0.61467 0.0
N543 N 0.99775 0.81834 0.35497 0.0
C544 C 0.05435 0.72775 0.55752 0.0
C545 C 1.01589 0.793 0.42614 0.0
N546 N 0.9975 0.7083 0.63375 0.0
N547 N 0.07208 0.83603 0.38195 0.0
H548 H 0.96992 0.81857 0.35 0.0
H549 H 1.01023 0.83669 0.29806 0.0
H550 H 0.09986 0.83888 0.3835 0.0
H551 H 0.05974 0.86946 0.34693 0.0
H552 H 1.00942 0.69126 0.69298 0.0
H553 H 0.96968 0.71122 0.63752 0.0
H554 H 0.06154 0.66377 0.6586 0.0
H555 H 0.1012 0.69233 0.61554 0.0
C556 C 0.55043 0.69983 0.05116 0.0
C557 C 0.56961 0.73813 0.99502 0.0
C558 C 0.51258 0.77218 0.93027 0.0
C559 C 0.49414 0.74583 0.00374 0.0
N560 N 0.49459 0.67954 0.1295 0.0
N561 N 0.56968 0.80478 0.87124 0.0
C562 C 0.51269 0.70673 0.06092 0.0
C563 C 0.55079 0.77151 0.92985 0.0
N564 N 0.56852 0.65822 0.09755 0.0
N565 N 0.4934 0.79798 0.86186 0.0
H566 H 0.59741 0.80129 0.86633 0.0
H567 H 0.55822 0.8359 0.82981 0.0
H568 H 0.46548 0.79749 0.8611 0.0
H569 H 0.50479 0.81497 0.80217 0.0
H570 H 0.55612 0.62494 0.13202 0.0
H571 H 0.59615 0.65334 0.09352 0.0
H572 H 0.50695 0.65732 0.18276 0.0
H573 H 0.46687 0.68139 0.13601 0.0
C574 C 0.51178 0.19056 0.02822 0.0
C575 C 0.49268 0.24496 0.02742 0.0
C576 C 0.54926 0.30043 0.04792 0.0
C577 C 0.56828 0.24583 0.02278 0.0
N578 N 0.56816 0.13783 0.9979 0.0
N579 N 0.49124 0.35177 0.06232 0.0
C580 C 0.54973 0.1904 0.01891 0.0
C581 C 0.51094 0.30008 0.04782 0.0
N582 N 0.49316 0.13912 0.03514 0.0
N583 N 0.56806 0.35242 0.06686 0.0
H584 H 0.46337 0.35064 0.06654 0.0
H585 H 0.50191 0.39478 0.07153 0.0
H586 H 0.59591 0.35232 0.06833 0.0
H587 H 0.55663 0.3945 0.08614 0.0
H588 H 0.50506 0.09767 0.04219 0.0
H589 H 0.46544 0.14006 0.04369 0.0
H590 H 0.55616 0.09602 0.98272 0.0
H591 H 0.59588 0.13692 0.99183 0.0
loop_
_geom_bond_atom_site_label_1
_geom_bond_atom_site_label_2
_geom_bond_distance
_geom_bond_site_symmetry_2
_ccdc_geom_bond_type
Tb0 O3 2.453 . S
Tb0 O4 2.596 . S
Tb0 O5 2.374 . S
Tb0 O13 2.343 . S
Tb0 O15 2.353 . S
Tb0 O17 2.427 . S
Tb0 O18 2.513 . S
C1 O5 1.251 . S
C1 O7 1.263 . S
Tb2 O4 2.343 . S
Tb2 O7 2.353 . S
Tb2 O10 2.427 . S
Tb2 O11 2.513 . S
Tb2 O12 2.453 . S
Tb2 O13 2.596 . S
Tb2 O14 2.374 . S
O3 Tb0 2.453 . S
O3 C19 1.245 . S
O4 Tb0 2.596 . S
O4 Tb2 2.343 . S
O4 C19 1.259 . S
O5 Tb0 2.374 . S
O5 C1 1.251 . S
C6 O10 1.275 . S
C6 O11 1.246 . S
O7 C1 1.263 . S
O7 Tb2 2.353 . S
C8 O12 1.245 . S
C8 O13 1.259 . S
C9 O14 1.250 . S
C9 O15 1.263 . S
O10 Tb2 2.427 . S
O10 C6 1.275 . S
O11 Tb2 2.513 . S
O11 C6 1.246 . S
O12 Tb2 2.453 . S
O12 C8 1.245 . S
O13 Tb0 2.343 . S
O13 Tb2 2.596 . S
O13 C8 1.259 . S
O14 Tb2 2.374 . S
O14 C9 1.250 . S
O15 Tb0 2.353 . S
O15 C9 1.263 . S
C16 O17 1.275 . S
C16 O18 1.246 . S
O17 Tb0 2.427 . S
O17 C16 1.275 . S
O18 Tb0 2.513 . S
O18 C16 1.246 . S
C19 O3 1.245 . S
C19 O4 1.259 . S
Tb20 O23 2.453 . S
Tb20 O24 2.596 . S
Tb20 O25 2.374 . S
Tb20 O33 2.343 . S
Tb20 O35 2.353 . S
Tb20 O37 2.427 . S
Tb20 O38 2.513 . S
C21 O25 1.251 . S
C21 O27 1.263 . S
Tb22 O24 2.343 . S
Tb22 O27 2.353 . S
Tb22 O30 2.427 . S
Tb22 O31 2.513 . S
Tb22 O32 2.453 . S
Tb22 O33 2.596 . S
Tb22 O34 2.374 . S
O23 Tb20 2.453 . S
O23 C39 1.245 . S
O24 Tb20 2.596 . S
O24 Tb22 2.343 . S
O24 C39 1.259 . S
O25 Tb20 2.374 . S
O25 C21 1.251 . S
C26 O30 1.275 . S
C26 O31 1.246 . S
O27 C21 1.263 . S
O27 Tb22 2.353 . S
C28 O32 1.245 . S
C28 O33 1.259 . S
C29 O34 1.250 . S
C29 O35 1.263 . S
O30 Tb22 2.427 . S
O30 C26 1.275 . S
O31 Tb22 2.513 . S
O31 C26 1.246 . S
O32 Tb22 2.453 . S
O32 C28 1.245 . S
O33 Tb20 2.343 . S
O33 Tb22 2.596 . S
O33 C28 1.259 . S
O34 Tb22 2.374 . S
O34 C29 1.250 . S
O35 Tb20 2.353 . S
O35 C29 1.263 . S
C36 O37 1.275 . S
C36 O38 1.246 . S
O37 Tb20 2.427 . S
O37 C36 1.275 . S
O38 Tb20 2.513 . S
O38 C36 1.246 . S
C39 O23 1.245 . S
C39 O24 1.259 . S
Tb40 O43 2.453 . S
Tb40 O44 2.596 . S
Tb40 O45 2.374 . S
Tb40 O53 2.343 . S
Tb40 O55 2.353 . S
Tb40 O57 2.427 . S
Tb40 O58 2.513 . S
C41 O45 1.251 . S
C41 O47 1.263 . S
Tb42 O44 2.343 . S
Tb42 O47 2.353 . S
Tb42 O50 2.427 . S
Tb42 O51 2.513 . S
Tb42 O52 2.453 . S
Tb42 O53 2.596 . S
Tb42 O54 2.374 . S
O43 Tb40 2.453 . S
O43 C59 1.245 . S
O44 Tb40 2.596 . S
O44 Tb42 2.343 . S
O44 C59 1.259 . S
O45 Tb40 2.374 . S
O45 C41 1.251 . S
C46 O50 1.275 . S
C46 O51 1.246 . S
O47 C41 1.263 . S
O47 Tb42 2.353 . S
C48 O52 1.245 . S
C48 O53 1.259 . S
C49 O54 1.250 . S
C49 O55 1.263 . S
O50 Tb42 2.427 . S
O50 C46 1.275 . S
O51 Tb42 2.513 . S
O51 C46 1.246 . S
O52 Tb42 2.453 . S
O52 C48 1.245 . S
O53 Tb40 2.343 . S
O53 Tb42 2.596 . S
O53 C48 1.259 . S
O54 Tb42 2.374 . S
O54 C49 1.250 . S
O55 Tb40 2.353 . S
O55 C49 1.263 . S
C56 O57 1.275 . S
C56 O58 1.246 . S
O57 Tb40 2.427 . S
O57 C56 1.275 . S
O58 Tb40 2.513 . S
O58 C56 1.246 . S
C59 O43 1.245 . S
C59 O44 1.259 . S
Tb60 O63 2.453 . S
Tb60 O64 2.596 . S
Tb60 O65 2.374 . S
Tb60 O73 2.343 . S
Tb60 O75 2.353 . S
Tb60 O77 2.427 . S
Tb60 O78 2.513 . S
C61 O65 1.251 . S
C61 O67 1.263 . S
Tb62 O64 2.343 . S
Tb62 O67 2.353 . S
Tb62 O70 2.427 . S
Tb62 O71 2.513 . S
Tb62 O72 2.453 . S
Tb62 O73 2.596 . S
Tb62 O74 2.374 . S
O63 Tb60 2.453 . S
O63 C79 1.245 . S
O64 Tb60 2.596 . S
O64 Tb62 2.343 . S
O64 C79 1.259 . S
O65 Tb60 2.374 . S
O65 C61 1.251 . S
C66 O70 1.275 . S
C66 O71 1.246 . S
O67 C61 1.263 . S
O67 Tb62 2.353 . S
C68 O72 1.245 . S
C68 O73 1.259 . S
C69 O74 1.250 . S
C69 O75 1.263 . S
O70 Tb62 2.427 . S
O70 C66 1.275 . S
O71 Tb62 2.513 . S
O71 C66 1.246 . S
O72 Tb62 2.453 . S
O72 C68 1.245 . S
O73 Tb60 2.343 . S
O73 Tb62 2.596 . S
O73 C68 1.259 . S
O74 Tb62 2.374 . S
O74 C69 1.250 . S
O75 Tb60 2.353 . S
O75 C69 1.263 . S
C76 O77 1.275 . S
C76 O78 1.246 . S
O77 Tb60 2.427 . S
O77 C76 1.275 . S
O78 Tb60 2.513 . S
O78 C76 1.246 . S
C79 O63 1.245 . S
C79 O64 1.259 . S
Tb80 O83 2.453 . S
Tb80 O84 2.596 1_556 S
Tb80 O85 2.374 . S
Tb80 O93 2.343 . S
Tb80 O95 2.353 . S
Tb80 O97 2.427 . S
Tb80 O98 2.513 . S
C81 O85 1.251 1_554 S
C81 O87 1.263 . S
Tb82 O84 2.343 . S
Tb82 O87 2.353 . S
Tb82 O90 2.427 . S
Tb82 O91 2.513 . S
Tb82 O92 2.453 . S
Tb82 O93 2.596 1_554 S
Tb82 O94 2.374 . S
O83 Tb80 2.453 . S
O83 C99 1.245 1_556 S
O84 Tb80 2.596 1_554 S
O84 Tb82 2.343 . S
O84 C99 1.259 . S
O85 Tb80 2.374 . S
O85 C81 1.251 1_556 S
C86 O90 1.275 . S
C86 O91 1.246 . S
O87 C81 1.263 . S
O87 Tb82 2.353 . S
C88 O92 1.245 1_556 S
C88 O93 1.259 . S
C89 O94 1.250 . S
C89 O95 1.263 1_554 S
O90 Tb82 2.427 . S
O90 C86 1.275 . S
O91 Tb82 2.513 . S
O91 C86 1.246 . S
O92 Tb82 2.453 . S
O92 C88 1.245 1_554 S
O93 Tb80 2.343 . S
O93 Tb82 2.596 1_556 S
O93 C88 1.259 . S
O94 Tb82 2.374 . S
O94 C89 1.250 . S
O95 Tb80 2.353 . S
O95 C89 1.263 1_556 S
C96 O97 1.275 . S
C96 O98 1.246 . S
O97 Tb80 2.427 . S
O97 C96 1.275 . S
O98 Tb80 2.513 . S
O98 C96 1.246 . S
C99 O83 1.245 1_554 S
C99 O84 1.259 . S
Tb100 O103 2.453 . S
Tb100 O104 2.596 1_554 S
Tb100 O105 2.374 . S
Tb100 O113 2.343 . S
Tb100 O115 2.353 . S
Tb100 O117 2.427 . S
Tb100 O118 2.513 . S
C101 O105 1.251 . S
C101 O107 1.263 1_554 S
Tb102 O104 2.343 . S
Tb102 O107 2.353 . S
Tb102 O110 2.427 . S
Tb102 O111 2.513 . S
Tb102 O112 2.453 . S
Tb102 O113 2.596 1_556 S
Tb102 O114 2.374 . S
O103 Tb100 2.453 . S
O103 C119 1.245 1_554 S
O104 Tb100 2.596 1_556 S
O104 Tb102 2.343 . S
O104 C119 1.259 . S
O105 Tb100 2.374 . S
O105 C101 1.251 . S
C106 O110 1.275 . S
C106 O111 1.246 . S
O107 C101 1.263 1_556 S
O107 Tb102 2.353 . S
C108 O112 1.245 1_554 S
C108 O113 1.259 . S
C109 O114 1.250 1_554 S
C109 O115 1.263 . S
O110 Tb102 2.427 . S
O110 C106 1.275 . S
O111 Tb102 2.513 . S
O111 C106 1.246 . S
O112 Tb102 2.453 . S
O112 C108 1.245 1_556 S
O113 Tb100 2.343 . S
O113 Tb102 2.596 1_554 S
O113 C108 1.259 . S
O114 Tb102 2.374 . S
O114 C109 1.250 1_556 S
O115 Tb100 2.353 . S
O115 C109 1.263 . S
C116 O117 1.275 . S
C116 O118 1.246 . S
O117 Tb100 2.427 . S
O117 C116 1.275 . S
O118 Tb100 2.513 . S
O118 C116 1.246 . S
C119 O103 1.245 1_556 S
C119 O104 1.259 . S
Tb120 O123 2.453 . S
Tb120 O124 2.596 1_554 S
Tb120 O125 2.374 . S
Tb120 O133 2.343 . S
Tb120 O135 2.353 . S
Tb120 O137 2.427 . S
Tb120 O138 2.513 . S
C121 O125 1.251 1_556 S
C121 O127 1.263 . S
Tb122 O124 2.343 . S
Tb122 O127 2.353 . S
Tb122 O130 2.427 . S
Tb122 O131 2.513 . S
Tb122 O132 2.453 . S
Tb122 O133 2.596 1_556 S
Tb122 O134 2.374 . S
O123 Tb120 2.453 . S
O123 C139 1.245 1_554 S
O124 Tb120 2.596 1_556 S
O124 Tb122 2.343 . S
O124 C139 1.259 . S
O125 Tb120 2.374 . S
O125 C121 1.251 1_554 S
C126 O130 1.275 . S
C126 O131 1.246 . S
O127 C121 1.263 . S
O127 Tb122 2.353 . S
C128 O132 1.245 1_554 S
C128 O133 1.259 . S
C129 O134 1.250 . S
C129 O135 1.263 1_556 S
O130 Tb122 2.427 . S
O130 C126 1.275 . S
O131 Tb122 2.513 . S
O131 C126 1.246 . S
O132 Tb122 2.453 . S
O132 C128 1.245 1_556 S
O133 Tb120 2.343 . S
O133 Tb122 2.596 1_554 S
O133 C128 1.259 . S
O134 Tb122 2.374 . S
O134 C129 1.250 . S
O135 Tb120 2.353 . S
O135 C129 1.263 1_554 S
C136 O137 1.275 . S
C136 O138 1.246 . S
O137 Tb120 2.427 . S
O137 C136 1.275 . S
O138 Tb120 2.513 . S
O138 C136 1.246 . S
C139 O123 1.245 1_556 S
C139 O124 1.259 . S
Tb140 O143 2.453 . S
Tb140 O144 2.596 1_556 S
Tb140 O145 2.374 . S
Tb140 O153 2.343 . S
Tb140 O155 2.353 . S
Tb140 O157 2.427 . S
Tb140 O158 2.513 . S
C141 O145 1.251 . S
C141 O147 1.263 1_556 S
Tb142 O144 2.343 . S
Tb142 O147 2.353 . S
Tb142 O150 2.427 . S
Tb142 O151 2.513 . S
Tb142 O152 2.453 . S
Tb142 O153 2.596 1_554 S
Tb142 O154 2.374 . S
O143 Tb140 2.453 . S
O143 C159 1.245 1_556 S
O144 Tb140 2.596 1_554 S
O144 Tb142 2.343 . S
O144 C159 1.259 . S
O145 Tb140 2.374 . S
O145 C141 1.251 . S
C146 O150 1.275 . S
C146 O151 1.246 . S
O147 C141 1.263 1_554 S
O147 Tb142 2.353 . S
C148 O152 1.245 1_556 S
C148 O153 1.259 . S
C149 O154 1.250 1_556 S
C149 O155 1.263 . S
O150 Tb142 2.427 . S
O150 C146 1.275 . S
O151 Tb142 2.513 . S
O151 C146 1.246 . S
O152 Tb142 2.453 . S
O152 C148 1.245 1_554 S
O153 Tb140 2.343 . S
O153 Tb142 2.596 1_556 S
O153 C148 1.259 . S
O154 Tb142 2.374 . S
O154 C149 1.250 1_554 S
O155 Tb140 2.353 . S
O155 C149 1.263 . S
C156 O157 1.275 . S
C156 O158 1.246 . S
O157 Tb140 2.427 . S
O157 C156 1.275 . S
O158 Tb140 2.513 . S
O158 C156 1.246 . S
C159 O143 1.245 1_554 S
C159 O144 1.259 . S
C160 C161 1.363 . S
C160 C166 1.379 . S
C160 N168 1.356 . S
C161 C160 1.363 . S
C161 C167 1.363 . S
C162 C163 1.363 . S
C162 C167 1.379 . S
C162 N169 1.356 . S
C163 C162 1.363 . S
C163 C166 1.363 . S
N164 C166 1.356 . S
N164 H176 0.984 . S
N164 H177 0.985 . S
N165 C167 1.356 . S
N165 H170 0.984 . S
N165 H171 0.985 . S
C166 C160 1.379 . S
C166 C163 1.363 . S
C166 N164 1.356 . S
C167 C161 1.363 . S
C167 C162 1.379 . S
C167 N165 1.356 . S
N168 C160 1.356 . S
N168 H174 0.984 . S
N168 H175 0.984 . S
N169 C162 1.356 . S
N169 H172 0.984 . S
N169 H173 0.985 . S
H170 N165 0.984 . S
H171 N165 0.985 . S
H172 N169 0.984 . S
H173 N169 0.985 . S
H174 N168 0.984 . S
H175 N168 0.984 . S
H176 N164 0.984 . S
H177 N164 0.985 . S
C178 C179 1.363 . S
C178 C184 1.379 . S
C178 N186 1.356 . S
C179 C178 1.363 . S
C179 C185 1.363 . S
C180 C181 1.363 . S
C180 C185 1.379 . S
C180 N187 1.356 . S
C181 C180 1.363 . S
C181 C184 1.363 . S
N182 C184 1.356 . S
N182 H194 0.984 . S
N182 H195 0.985 . S
N183 C185 1.356 . S
N183 H188 0.984 . S
N183 H189 0.985 . S
C184 C178 1.379 . S
C184 C181 1.363 . S
C184 N182 1.356 . S
C185 C179 1.363 . S
C185 C180 1.379 . S
C185 N183 1.356 . S
N186 C178 1.356 . S
N186 H192 0.984 . S
N186 H193 0.984 . S
N187 C180 1.356 . S
N187 H190 0.984 . S
N187 H191 0.985 . S
H188 N183 0.984 . S
H189 N183 0.985 . S
H190 N187 0.984 . S
H191 N187 0.985 . S
H192 N186 0.984 . S
H193 N186 0.984 . S
H194 N182 0.984 . S
H195 N182 0.985 . S
C196 C197 1.363 . S
C196 C202 1.379 . S
C196 N204 1.356 . S
C197 C196 1.363 . S
C197 C203 1.363 . S
C198 C199 1.363 . S
C198 C203 1.379 . S
C198 N205 1.356 . S
C199 C198 1.363 . S
C199 C202 1.363 . S
N200 C202 1.356 . S
N200 H212 0.984 . S
N200 H213 0.985 . S
N201 C203 1.356 . S
N201 H206 0.984 . S
N201 H207 0.985 . S
C202 C196 1.379 . S
C202 C199 1.363 . S
C202 N200 1.356 . S
C203 C197 1.363 . S
C203 C198 1.379 . S
C203 N201 1.356 . S
N204 C196 1.356 . S
N204 H210 0.984 . S
N204 H211 0.984 . S
N205 C198 1.356 . S
N205 H208 0.984 . S
N205 H209 0.985 . S
H206 N201 0.984 . S
H207 N201 0.985 . S
H208 N205 0.984 . S
H209 N205 0.985 . S
H210 N204 0.984 . S
H211 N204 0.984 . S
H212 N200 0.984 . S
H213 N200 0.985 . S
C214 C215 1.363 . S
C214 C220 1.379 . S
C214 N222 1.356 . S
C215 C214 1.363 . S
C215 C221 1.363 . S
C216 C217 1.363 . S
C216 C221 1.379 . S
C216 N223 1.356 . S
C217 C216 1.363 . S
C217 C220 1.363 . S
N218 C220 1.356 . S
N218 H230 0.984 . S
N218 H231 0.985 . S
N219 C221 1.356 . S
N219 H224 0.984 . S
N219 H225 0.985 . S
C220 C214 1.379 . S
C220 C217 1.363 . S
C220 N218 1.356 . S
C221 C215 1.363 . S
C221 C216 1.379 . S
C221 N219 1.356 . S
N222 C214 1.356 . S
N222 H228 0.984 . S
N222 H229 0.984 . S
N223 C216 1.356 . S
N223 H226 0.984 . S
N223 H227 0.985 . S
H224 N219 0.984 . S
H225 N219 0.985 . S
H226 N223 0.984 . S
H227 N223 0.985 . S
H228 N222 0.984 . S
H229 N222 0.984 . S
H230 N218 0.984 . S
H231 N218 0.985 . S
C232 C233 1.363 . S
C232 C238 1.379 1_565 S
C232 N240 1.356 . S
C233 C232 1.363 . S
C233 C239 1.363 . S
C234 C235 1.363 . S
C234 C239 1.379 1_545 S
C234 N241 1.356 . S
C235 C234 1.363 . S
C235 C238 1.363 . S
N236 C238 1.356 . S
N236 H248 0.984 . S
N236 H249 0.985 . S
N237 C239 1.356 . S
N237 H242 0.984 . S
N237 H243 0.985 . S
C238 C232 1.379 1_545 S
C238 C235 1.363 . S
C238 N236 1.356 . S
C239 C233 1.363 . S
C239 C234 1.379 1_565 S
C239 N237 1.356 . S
N240 C232 1.356 . S
N240 H246 0.984 . S
N240 H247 0.984 . S
N241 C234 1.356 . S
N241 H244 0.984 . S
N241 H245 0.985 . S
H242 N237 0.984 . S
H243 N237 0.985 . S
H244 N241 0.984 . S
H245 N241 0.985 . S
H246 N240 0.984 . S
H247 N240 0.984 . S
H248 N236 0.984 . S
H249 N236 0.985 . S
C250 C251 1.363 . S
C250 C256 1.379 . S
C250 N258 1.356 . S
C251 C250 1.363 . S
C251 C257 1.363 . S
C252 C253 1.363 . S
C252 C257 1.379 . S
C252 N259 1.356 . S
C253 C252 1.363 . S
C253 C256 1.363 . S
N254 C256 1.356 . S
N254 H266 0.984 . S
N254 H267 0.985 . S
N255 C257 1.356 . S
N255 H260 0.984 . S
N255 H261 0.985 . S
C256 C250 1.379 . S
C256 C253 1.363 . S
C256 N254 1.356 . S
C257 C251 1.363 . S
C257 C252 1.379 . S
C257 N255 1.356 . S
N258 C250 1.356 . S
N258 H264 0.984 . S
N258 H265 0.984 . S
N259 C252 1.356 . S
N259 H262 0.984 . S
N259 H263 0.985 . S
H260 N255 0.984 . S
H261 N255 0.985 . S
H262 N259 0.984 . S
H263 N259 0.985 . S
H264 N258 0.984 . S
H265 N258 0.984 . S
H266 N254 0.984 . S
H267 N254 0.985 . S
C268 C269 1.363 . S
C268 C274 1.379 1_565 S
C268 N276 1.356 . S
C269 C268 1.363 . S
C269 C275 1.363 . S
C270 C271 1.363 . S
C270 C275 1.379 1_545 S
C270 N277 1.356 . S
C271 C270 1.363 . S
C271 C274 1.363 . S
N272 C274 1.356 . S
N272 H284 0.984 . S
N272 H285 0.985 . S
N273 C275 1.356 . S
N273 H278 0.984 . S
N273 H279 0.985 . S
C274 C268 1.379 1_545 S
C274 C271 1.363 . S
C274 N272 1.356 . S
C275 C269 1.363 . S
C275 C270 1.379 1_565 S
C275 N273 1.356 . S
N276 C268 1.356 . S
N276 H282 0.984 . S
N276 H283 0.984 . S
N277 C270 1.356 . S
N277 H280 0.984 . S
N277 H281 0.985 . S
H278 N273 0.984 . S
H279 N273 0.985 . S
H280 N277 0.984 . S
H281 N277 0.985 . S
H282 N276 0.984 . S
H283 N276 0.984 . S
H284 N272 0.984 . S
H285 N272 0.985 . S
C286 C287 1.363 . S
C286 C292 1.379 . S
C286 N294 1.356 . S
C287 C286 1.363 . S
C287 C293 1.363 . S
C288 C289 1.363 . S
C288 C293 1.379 . S
C288 N295 1.356 . S
C289 C288 1.363 . S
C289 C292 1.363 . S
N290 C292 1.356 . S
N290 H302 0.984 . S
N290 H303 0.985 . S
N291 C293 1.356 . S
N291 H296 0.984 . S
N291 H297 0.985 . S
C292 C286 1.379 . S
C292 C289 1.363 . S
C292 N290 1.356 . S
C293 C287 1.363 . S
C293 C288 1.379 . S
C293 N291 1.356 . S
N294 C286 1.356 . S
N294 H300 0.984 . S
N294 H301 0.984 . S
N295 C288 1.356 . S
N295 H298 0.984 . S
N295 H299 0.985 . S
H296 N291 0.984 . S
H297 N291 0.985 . S
H298 N295 0.984 . S
H299 N295 0.985 . S
H300 N294 0.984 . S
H301 N294 0.984 . S
H302 N290 0.984 . S
H303 N290 0.985 . S
C304 C305 1.363 . S
C304 C310 1.379 . S
C304 N312 1.356 . S
C305 C304 1.363 . S
C305 C311 1.363 1_554 S
C306 C307 1.363 . S
C306 C311 1.379 . S
C306 N313 1.356 . S
C307 C306 1.363 . S
C307 C310 1.363 1_556 S
N308 C310 1.356 . S
N308 H320 0.984 . S
N308 H321 0.985 . S
N309 C311 1.356 . S
N309 H314 0.984 . S
N309 H315 0.985 . S
C310 C304 1.379 . S
C310 C307 1.363 1_554 S
C310 N308 1.356 . S
C311 C305 1.363 1_556 S
C311 C306 1.379 . S
C311 N309 1.356 . S
N312 C304 1.356 . S
N312 H318 0.984 . S
N312 H319 0.984 . S
N313 C306 1.356 . S
N313 H316 0.984 . S
N313 H317 0.985 . S
H314 N309 0.984 . S
H315 N309 0.985 . S
H316 N313 0.984 . S
H317 N313 0.985 . S
H318 N312 0.984 . S
H319 N312 0.984 . S
H320 N308 0.984 . S
H321 N308 0.985 . S
C322 C323 1.363 1_556 S
C322 C328 1.379 1_565 S
C322 N330 1.356 . S
C323 C322 1.363 1_554 S
C323 C329 1.363 . S
C324 C325 1.363 1_554 S
C324 C329 1.379 1_545 S
C324 N331 1.356 . S
C325 C324 1.363 1_556 S
C325 C328 1.363 . S
N326 C328 1.356 . S
N326 H338 0.984 . S
N326 H339 0.985 . S
N327 C329 1.356 . S
N327 H332 0.984 . S
N327 H333 0.985 . S
C328 C322 1.379 1_545 S
C328 C325 1.363 . S
C328 N326 1.356 . S
C329 C323 1.363 . S
C329 C324 1.379 1_565 S
C329 N327 1.356 . S
N330 C322 1.356 . S
N330 H336 0.984 . S
N330 H337 0.984 . S
N331 C324 1.356 . S
N331 H334 0.984 . S
N331 H335 0.985 . S
H332 N327 0.984 . S
H333 N327 0.985 . S
H334 N331 0.984 . S
H335 N331 0.985 . S
H336 N330 0.984 . S
H337 N330 0.984 . S
H338 N326 0.984 . S
H339 N326 0.985 . S
C340 C341 1.363 . S
C340 C346 1.379 . S
C340 N348 1.356 . S
C341 C340 1.363 . S
C341 C347 1.363 1_556 S
C342 C343 1.363 . S
C342 C347 1.379 . S
C342 N349 1.356 . S
C343 C342 1.363 . S
C343 C346 1.363 1_554 S
N344 C346 1.356 . S
N344 H356 0.984 . S
N344 H357 0.985 . S
N345 C347 1.356 . S
N345 H350 0.984 . S
N345 H351 0.985 . S
C346 C340 1.379 . S
C346 C343 1.363 1_556 S
C346 N344 1.356 . S
C347 C341 1.363 1_554 S
C347 C342 1.379 . S
C347 N345 1.356 . S
N348 C340 1.356 . S
N348 H354 0.984 . S
N348 H355 0.984 . S
N349 C342 1.356 . S
N349 H352 0.984 . S
N349 H353 0.985 . S
H350 N345 0.984 . S
H351 N345 0.985 . S
H352 N349 0.984 . S
H353 N349 0.985 . S
H354 N348 0.984 . S
H355 N348 0.984 . S
H356 N344 0.984 . S
H357 N344 0.985 . S
C358 C359 1.363 1_554 S
C358 C364 1.379 1_545 S
C358 N366 1.356 . S
C359 C358 1.363 1_556 S
C359 C365 1.363 . S
C360 C361 1.363 1_556 S
C360 C365 1.379 1_565 S
C360 N367 1.356 . S
C361 C360 1.363 1_554 S
C361 C364 1.363 . S
N362 C364 1.356 . S
N362 H374 0.984 . S
N362 H375 0.985 . S
N363 C365 1.356 . S
N363 H368 0.984 . S
N363 H369 0.985 . S
C364 C358 1.379 1_565 S
C364 C361 1.363 . S
C364 N362 1.356 . S
C365 C359 1.363 . S
C365 C360 1.379 1_545 S
C365 N363 1.356 . S
N366 C358 1.356 . S
N366 H372 0.984 . S
N366 H373 0.984 . S
N367 C360 1.356 . S
N367 H370 0.984 . S
N367 H371 0.985 . S
H368 N363 0.984 . S
H369 N363 0.985 . S
H370 N367 0.984 . S
H371 N367 0.985 . S
H372 N366 0.984 . S
H373 N366 0.984 . S
H374 N362 0.984 . S
H375 N362 0.985 . S
C376 C377 1.363 . S
C376 C382 1.379 1_554 S
C376 N384 1.356 . S
C377 C376 1.363 . S
C377 C383 1.363 . S
C378 C379 1.363 . S
C378 C383 1.379 1_556 S
C378 N385 1.356 . S
C379 C378 1.363 . S
C379 C382 1.363 . S
N380 C382 1.356 . S
N380 H392 0.984 . S
N380 H393 0.985 . S
N381 C383 1.356 . S
N381 H386 0.984 . S
N381 H387 0.985 . S
C382 C376 1.379 1_556 S
C382 C379 1.363 . S
C382 N380 1.356 . S
C383 C377 1.363 . S
C383 C378 1.379 1_554 S
C383 N381 1.356 . S
N384 C376 1.356 . S
N384 H390 0.984 . S
N384 H391 0.984 . S
N385 C378 1.356 . S
N385 H388 0.984 . S
N385 H389 0.985 . S
H386 N381 0.984 . S
H387 N381 0.985 . S
H388 N385 0.984 . S
H389 N385 0.985 . S
H390 N384 0.984 . S
H391 N384 0.984 . S
H392 N380 0.984 . S
H393 N380 0.985 . S
C394 C395 1.363 . S
C394 C400 1.379 1_554 S
C394 N402 1.356 . S
C395 C394 1.363 . S
C395 C401 1.363 . S
C396 C397 1.363 . S
C396 C401 1.379 1_556 S
C396 N403 1.356 . S
C397 C396 1.363 . S
C397 C400 1.363 . S
N398 C400 1.356 . S
N398 H410 0.984 . S
N398 H411 0.985 . S
N399 C401 1.356 . S
N399 H404 0.984 . S
N399 H405 0.985 . S
C400 C394 1.379 1_556 S
C400 C397 1.363 . S
C400 N398 1.356 . S
C401 C395 1.363 . S
C401 C396 1.379 1_554 S
C401 N399 1.356 . S
N402 C394 1.356 . S
N402 H408 0.984 . S
N402 H409 0.984 . S
N403 C396 1.356 . S
N403 H406 0.984 . S
N403 H407 0.985 . S
H404 N399 0.984 . S
H405 N399 0.985 . S
H406 N403 0.984 . S
H407 N403 0.985 . S
H408 N402 0.984 . S
H409 N402 0.984 . S
H410 N398 0.984 . S
H411 N398 0.985 . S
C412 C413 1.363 . S
C412 C418 1.379 1_554 S
C412 N420 1.356 . S
C413 C412 1.363 . S
C413 C419 1.363 . S
C414 C415 1.363 . S
C414 C419 1.379 1_556 S
C414 N421 1.356 . S
C415 C414 1.363 . S
C415 C418 1.363 . S
N416 C418 1.356 . S
N416 H428 0.984 . S
N416 H429 0.985 . S
N417 C419 1.356 . S
N417 H422 0.984 . S
N417 H423 0.985 . S
C418 C412 1.379 1_556 S
C418 C415 1.363 . S
C418 N416 1.356 . S
C419 C413 1.363 . S
C419 C414 1.379 1_554 S
C419 N417 1.356 . S
N420 C412 1.356 . S
N420 H426 0.984 . S
N420 H427 0.984 . S
N421 C414 1.356 . S
N421 H424 0.984 . S
N421 H425 0.985 . S
H422 N417 0.984 . S
H423 N417 0.985 . S
H424 N421 0.984 . S
H425 N421 0.985 . S
H426 N420 0.984 . S
H427 N420 0.984 . S
H428 N416 0.984 . S
H429 N416 0.985 . S
C430 C431 1.363 . S
C430 C436 1.379 1_556 S
C430 N438 1.356 . S
C431 C430 1.363 . S
C431 C437 1.363 . S
C432 C433 1.363 . S
C432 C437 1.379 1_554 S
C432 N439 1.356 . S
C433 C432 1.363 . S
C433 C436 1.363 . S
N434 C436 1.356 . S
N434 H446 0.984 . S
N434 H447 0.985 . S
N435 C437 1.356 . S
N435 H440 0.984 . S
N435 H441 0.985 . S
C436 C430 1.379 1_554 S
C436 C433 1.363 . S
C436 N434 1.356 . S
C437 C431 1.363 . S
C437 C432 1.379 1_556 S
C437 N435 1.356 . S
N438 C430 1.356 . S
N438 H444 0.984 . S
N438 H445 0.984 . S
N439 C432 1.356 . S
N439 H442 0.984 . S
N439 H443 0.985 . S
H440 N435 0.984 . S
H441 N435 0.985 . S
H442 N439 0.984 . S
H443 N439 0.985 . S
H444 N438 0.984 . S
H445 N438 0.984 . S
H446 N434 0.984 . S
H447 N434 0.985 . S
C448 C449 1.363 . S
C448 C454 1.379 . S
C448 N456 1.356 . S
C449 C448 1.363 . S
C449 C455 1.363 . S
C450 C451 1.363 . S
C450 C455 1.379 . S
C450 N457 1.356 . S
C451 C450 1.363 . S
C451 C454 1.363 . S
N452 C454 1.356 . S
N452 H464 0.984 . S
N452 H465 0.985 . S
N453 C455 1.356 . S
N453 H458 0.984 . S
N453 H459 0.985 . S
C454 C448 1.379 . S
C454 C451 1.363 . S
C454 N452 1.356 . S
C455 C449 1.363 . S
C455 C450 1.379 . S
C455 N453 1.356 . S
N456 C448 1.356 . S
N456 H462 0.984 . S
N456 H463 0.984 . S
N457 C450 1.356 . S
N457 H460 0.984 . S
N457 H461 0.985 . S
H458 N453 0.984 . S
H459 N453 0.985 . S
H460 N457 0.984 . S
H461 N457 0.985 . S
H462 N456 0.984 . S
H463 N456 0.984 . S
H464 N452 0.984 . S
H465 N452 0.985 . S
C466 C467 1.363 . S
C466 C472 1.379 . S
C466 N474 1.356 . S
C467 C466 1.363 . S
C467 C473 1.363 . S
C468 C469 1.363 . S
C468 C473 1.379 . S
C468 N475 1.356 . S
C469 C468 1.363 . S
C469 C472 1.363 . S
N470 C472 1.356 . S
N470 H482 0.984 . S
N470 H483 0.985 . S
N471 C473 1.356 . S
N471 H476 0.984 . S
N471 H477 0.985 . S
C472 C466 1.379 . S
C472 C469 1.363 . S
C472 N470 1.356 . S
C473 C467 1.363 . S
C473 C468 1.379 . S
C473 N471 1.356 . S
N474 C466 1.356 . S
N474 H480 0.984 . S
N474 H481 0.984 . S
N475 C468 1.356 . S
N475 H478 0.984 . S
N475 H479 0.985 . S
H476 N471 0.984 . S
H477 N471 0.985 . S
H478 N475 0.984 . S
H479 N475 0.985 . S
H480 N474 0.984 . S
H481 N474 0.984 . S
H482 N470 0.984 . S
H483 N470 0.985 . S
C484 C485 1.363 . S
C484 C490 1.379 . S
C484 N492 1.356 . S
C485 C484 1.363 . S
C485 C491 1.363 . S
C486 C487 1.363 . S
C486 C491 1.379 . S
C486 N493 1.356 . S
C487 C486 1.363 . S
C487 C490 1.363 . S
N488 C490 1.356 . S
N488 H500 0.984 . S
N488 H501 0.985 . S
N489 C491 1.356 . S
N489 H494 0.984 . S
N489 H495 0.985 . S
C490 C484 1.379 . S
C490 C487 1.363 . S
C490 N488 1.356 . S
C491 C485 1.363 . S
C491 C486 1.379 . S
C491 N489 1.356 . S
N492 C484 1.356 . S
N492 H498 0.984 . S
N492 H499 0.984 . S
N493 C486 1.356 . S
N493 H496 0.984 . S
N493 H497 0.985 . S
H494 N489 0.984 . S
H495 N489 0.985 . S
H496 N493 0.984 . S
H497 N493 0.985 . S
H498 N492 0.984 . S
H499 N492 0.984 . S
H500 N488 0.984 . S
H501 N488 0.985 . S
C502 C503 1.363 . S
C502 C508 1.379 . S
C502 N510 1.356 . S
C503 C502 1.363 . S
C503 C509 1.363 . S
C504 C505 1.363 . S
C504 C509 1.379 . S
C504 N511 1.356 . S
C505 C504 1.363 . S
C505 C508 1.363 . S
N506 C508 1.356 . S
N506 H518 0.984 . S
N506 H519 0.985 . S
N507 C509 1.356 . S
N507 H512 0.984 . S
N507 H513 0.985 . S
C508 C502 1.379 . S
C508 C505 1.363 . S
C508 N506 1.356 . S
C509 C503 1.363 . S
C509 C504 1.379 . S
C509 N507 1.356 . S
N510 C502 1.356 . S
N510 H516 0.984 . S
N510 H517 0.984 . S
N511 C504 1.356 . S
N511 H514 0.984 . S
N511 H515 0.985 . S
H512 N507 0.984 . S
H513 N507 0.985 . S
H514 N511 0.984 . S
H515 N511 0.985 . S
H516 N510 0.984 . S
H517 N510 0.984 . S
H518 N506 0.984 . S
H519 N506 0.985 . S
C520 C521 1.363 . S
C520 C526 1.379 1_455 S
C520 N528 1.356 . S
C521 C520 1.363 . S
C521 C527 1.363 . S
C522 C523 1.363 . S
C522 C527 1.379 1_655 S
C522 N529 1.356 . S
C523 C522 1.363 . S
C523 C526 1.363 . S
N524 C526 1.356 . S
N524 H536 0.984 . S
N524 H537 0.985 . S
N525 C527 1.356 . S
N525 H530 0.984 . S
N525 H531 0.985 . S
C526 C520 1.379 1_655 S
C526 C523 1.363 . S
C526 N524 1.356 . S
C527 C521 1.363 . S
C527 C522 1.379 1_455 S
C527 N525 1.356 . S
N528 C520 1.356 . S
N528 H534 0.984 . S
N528 H535 0.984 . S
N529 C522 1.356 . S
N529 H532 0.984 . S
N529 H533 0.985 . S
H530 N525 0.984 . S
H531 N525 0.985 . S
H532 N529 0.984 . S
H533 N529 0.985 . S
H534 N528 0.984 . S
H535 N528 0.984 . S
H536 N524 0.984 . S
H537 N524 0.985 . S
C538 C539 1.363 . S
C538 C544 1.379 1_655 S
C538 N546 1.356 . S
C539 C538 1.363 . S
C539 C545 1.363 . S
C540 C541 1.363 . S
C540 C545 1.379 1_455 S
C540 N547 1.356 . S
C541 C540 1.363 . S
C541 C544 1.363 . S
N542 C544 1.356 . S
N542 H554 0.984 . S
N542 H555 0.985 . S
N543 C545 1.356 . S
N543 H548 0.984 . S
N543 H549 0.985 . S
C544 C538 1.379 1_455 S
C544 C541 1.363 . S
C544 N542 1.356 . S
C545 C539 1.363 . S
C545 C540 1.379 1_655 S
C545 N543 1.356 . S
N546 C538 1.356 . S
N546 H552 0.984 . S
N546 H553 0.984 . S
N547 C540 1.356 . S
N547 H550 0.984 . S
N547 H551 0.985 . S
H548 N543 0.984 . S
H549 N543 0.985 . S
H550 N547 0.984 . S
H551 N547 0.985 . S
H552 N546 0.984 . S
H553 N546 0.984 . S
H554 N542 0.984 . S
H555 N542 0.985 . S
C556 C557 1.363 . S
C556 C562 1.379 . S
C556 N564 1.356 1_556 S
C557 C556 1.363 . S
C557 C563 1.363 . S
C558 C559 1.363 . S
C558 C563 1.379 . S
C558 N565 1.356 . S
C559 C558 1.363 . S
C559 C562 1.363 . S
N560 C562 1.356 1_554 S
N560 H572 0.984 . S
N560 H573 0.985 1_554 S
N561 C563 1.356 . S
N561 H566 0.984 . S
N561 H567 0.985 . S
C562 C556 1.379 . S
C562 C559 1.363 . S
C562 N560 1.356 1_556 S
C563 C557 1.363 . S
C563 C558 1.379 . S
C563 N561 1.356 . S
N564 C556 1.356 1_554 S
N564 H570 0.984 . S
N564 H571 0.984 1_554 S
N565 C558 1.356 . S
N565 H568 0.984 . S
N565 H569 0.985 . S
H566 N561 0.984 . S
H567 N561 0.985 . S
H568 N565 0.984 . S
H569 N565 0.985 . S
H570 N564 0.984 . S
H571 N564 0.984 1_556 S
H572 N560 0.984 . S
H573 N560 0.985 1_556 S
C574 C575 1.363 . S
C574 C580 1.379 . S
C574 N582 1.356 . S
C575 C574 1.363 . S
C575 C581 1.363 . S
C576 C577 1.363 . S
C576 C581 1.379 . S
C576 N583 1.356 . S
C577 C576 1.363 . S
C577 C580 1.363 . S
N578 C580 1.356 . S
N578 H590 0.984 . S
N578 H591 0.985 . S
N579 C581 1.356 . S
N579 H584 0.984 . S
N579 H585 0.985 . S
C580 C574 1.379 . S
C580 C577 1.363 . S
C580 N578 1.356 . S
C581 C575 1.363 . S
C581 C576 1.379 . S
C581 N579 1.356 . S
N582 C574 1.356 . S
N582 H588 0.984 . S
N582 H589 0.984 . S
N583 C576 1.356 . S
N583 H586 0.984 . S
N583 H587 0.985 . S
H584 N579 0.984 . S
H585 N579 0.985 . S
H586 N583 0.984 . S
H587 N583 0.985 . S
H588 N582 0.984 . S
H589 N582 0.984 . S
H590 N578 0.984 . S
H591 N578 0.985 . S
C161 C19 1.810 . S
C163 C148 1.810 . S
C179 C139 1.810 . S
C181 C28 1.810 . S
C197 C108 1.810 . S
C199 C59 1.810 . S
C215 C99 1.810 . S
C217 C68 1.810 . S
C233 C41 1.689 . S
C235 C1 1.689 . S
C251 C21 1.316 . S
C253 C61 1.316 . S
C269 C69 1.689 . S
C271 C29 1.689 . S
C287 C49 1.316 . S
C289 C9 1.316 . S
C305 C81 1.689 . S
C307 C121 1.689 . S
C323 C101 1.316 . S
C325 C141 1.316 . S
C341 C149 1.689 . S
C343 C109 1.689 . S
C359 C129 1.316 . S
C361 C89 1.316 . S
C377 C16 1.491 . S
C379 C6 1.491 . S
C395 C26 1.491 . S
C397 C36 1.491 . S
C413 C46 1.491 . S
C415 C56 1.491 . S
C431 C66 1.491 . S
C433 C76 1.491 . S
C449 C86 1.491 . S
C451 C96 1.491 . S
C467 C106 1.491 . S
C469 C116 1.491 . S
C485 C136 1.491 . S
C487 C126 1.491 . S
C503 C146 1.491 . S
C505 C156 1.491 . S
C521 C8 1.785 . S
C523 C39 1.785 . S
C539 C79 1.785 . S
C541 C48 1.785 . S
C557 C88 1.785 . S
C559 C119 1.785 . S
C575 C159 1.785 . S
C577 C128 1.785 . S
