# Generated by pormake.
# Topology wjf, (4)-cn, num edge types: 1
# Building blocks:
#     Node 0, Type 0, BuildingBlock: ESEHIV_clean_sbu_0, # of connection points: 4
#     Node 1, Type 0, BuildingBlock: ESEHIV_clean_sbu_0, # of connection points: 4
#     Node 2, Type 0, BuildingBlock: ESEHIV_clean_sbu_0, # of connection points: 4
#     Node 3, Type 0, BuildingBlock: ESEHIV_clean_sbu_0, # of connection points: 4
#     Node 4, Type 0, BuildingBlock: ESEHIV_clean_sbu_0, # of connection points: 4
#     Node 5, Type 0, BuildingBlock: ESEHIV_clean_sbu_0, # of connection points: 4
#     Node 6, Type 0, BuildingBlock: ESEHIV_clean_sbu_0, # of connection points: 4
#     Node 7, Type 0, BuildingBlock: ESEHIV_clean_sbu_0, # of connection points: 4
#     Node 8, Type 0, BuildingBlock: ESEHIV_clean_sbu_0, # of connection points: 4
#     Node 9, Type 0, BuildingBlock: ESEHIV_clean_sbu_0, # of connection points: 4
#     Node 10, Type 0, BuildingBlock: ESEHIV_clean_sbu_0, # of connection points: 4
#     Node 11, Type 0, BuildingBlock: ESEHIV_clean_sbu_0, # of connection points: 4
#     Edge 12, Type (0, 0), BuildingBlock: ZUJKAS_clean_linker_0, # of connection points: 2
#     Edge 13, Type (0, 0), BuildingBlock: ZUJKAS_clean_linker_0, # of connection points: 2
#     Edge 14, Type (0, 0), BuildingBlock: ZUJKAS_clean_linker_0, # of connection points: 2
#     Edge 15, Type (0, 0), BuildingBlock: ZUJKAS_clean_linker_0, # of connection points: 2
#     Edge 16, Type (0, 0), BuildingBlock: ZUJKAS_clean_linker_0, # of connection points: 2
#     Edge 17, Type (0, 0), BuildingBlock: ZUJKAS_clean_linker_0, # of connection points: 2
#     Edge 18, Type (0, 0), BuildingBlock: ZUJKAS_clean_linker_0, # of connection points: 2
#     Edge 19, Type (0, 0), BuildingBlock: ZUJKAS_clean_linker_0, # of connection points: 2
#     Edge 20, Type (0, 0), BuildingBlock: ZUJKAS_clean_linker_0, # of connection points: 2
#     Edge 21, Type (0, 0), BuildingBlock: ZUJKAS_clean_linker_0, # of connection points: 2
#     Edge 22, Type (0, 0), BuildingBlock: ZUJKAS_clean_linker_0, # of connection points: 2
#     Edge 23, Type (0, 0), BuildingBlock: ZUJKAS_clean_linker_0, # of connection points: 2
#     Edge 24, Type (0, 0), BuildingBlock: ZUJKAS_clean_linker_0, # of connection points: 2
#     Edge 25, Type (0, 0), BuildingBlock: ZUJKAS_clean_linker_0, # of connection points: 2
#     Edge 26, Type (0, 0), BuildingBlock: ZUJKAS_clean_linker_0, # of connection points: 2
#     Edge 27, Type (0, 0), BuildingBlock: ZUJKAS_clean_linker_0, # of connection points: 2
#     Edge 28, Type (0, 0), BuildingBlock: ZUJKAS_clean_linker_0, # of connection points: 2
#     Edge 29, Type (0, 0), BuildingBlock: ZUJKAS_clean_linker_0, # of connection points: 2
#     Edge 30, Type (0, 0), BuildingBlock: ZUJKAS_clean_linker_0, # of connection points: 2
#     Edge 31, Type (0, 0), BuildingBlock: ZUJKAS_clean_linker_0, # of connection points: 2
#     Edge 32, Type (0, 0), BuildingBlock: ZUJKAS_clean_linker_0, # of connection points: 2
#     Edge 33, Type (0, 0), BuildingBlock: ZUJKAS_clean_linker_0, # of connection points: 2
#     Edge 34, Type (0, 0), BuildingBlock: ZUJKAS_clean_linker_0, # of connection points: 2
#     Edge 35, Type (0, 0), BuildingBlock: ZUJKAS_clean_linker_0, # of connection points: 2
# Relax obj value: 0.104
# Max RMSD: 0.230
# Mean RMSD: 0.230
data_MOF--net-wjf--node1-ESEHIV_clean_sbu_0--edge1-ZUJKAS_clean_linker_0
_symmetry_space_group_name_H-M    P1
_symmetry_Int_Tables_number       1
_symmetry_cell_setting            triclinic
loop_
_symmetry_equiv_pos_as_xyz
'x, y, z'
_cell_length_a     73.915267
_cell_length_b     73.896682
_cell_length_c     36.552686
_cell_angle_alpha  90.037292
_cell_angle_beta   89.988166
_cell_angle_gamma 120.04596
loop_
_atom_site_label
_atom_site_type_symbol
_atom_site_fract_x
_atom_site_fract_y
_atom_site_fract_z
_atom_type_partial_charge
Cu0 Cu 0.3394 0.38893 0.10818 0.0
N1 N 0.36149 0.41588 0.1008 0.0
N2 N 0.39403 0.44298 0.09775 0.0
C3 C 0.38187 0.42254 0.10613 0.0
C4 C 0.38067 0.44936 0.08678 0.0
C5 C 0.3606 0.4326 0.08872 0.0
O6 O 0.34589 0.37786 0.15116 0.0
C7 C 0.34991 0.37006 0.0511 0.0
O8 O 0.36677 0.37577 0.07086 0.0
H9 H 0.38761 0.41242 0.11536 0.0
H10 H 0.34635 0.43255 0.08179 0.0
N11 N 0.31544 0.39038 0.11761 0.0
N12 N 0.28561 0.39065 0.10982 0.0
C13 C 0.3009 0.3886 0.09347 0.0
C14 C 0.30927 0.39372 0.15027 0.0
C15 C 0.29086 0.39385 0.1456 0.0
C16 C 0.33206 0.36242 0.16927 0.0
O17 O 0.31298 0.35177 0.15618 0.0
H18 H 0.30179 0.3862 0.06447 0.0
H19 H 0.31759 0.39584 0.1757 0.0
O20 O 0.33562 0.37316 0.06358 0.0
H21 H 0.38501 0.46505 0.07829 0.0
H22 H 0.28196 0.39589 0.16706 0.0
Cu23 Cu 0.95538 0.34348 0.44553 0.0
N24 N 0.9528 0.36691 0.43721 0.0
N25 N 0.95992 0.40001 0.43441 0.0
C26 C 0.96637 0.38686 0.44637 0.0
C27 C 0.94157 0.38777 0.41723 0.0
C28 C 0.93723 0.36736 0.41903 0.0
O29 O 0.97246 0.34842 0.48881 0.0
C30 C 0.9839 0.35214 0.38802 0.0
O31 O 0.99538 0.3693 0.40693 0.0
H32 H 0.98092 0.39167 0.4606 0.0
H33 H 0.92378 0.35379 0.40758 0.0
N34 N 0.92884 0.32104 0.45493 0.0
N35 N 0.89874 0.29083 0.44998 0.0
C36 C 0.9177 0.30357 0.43498 0.0
C37 C 0.91664 0.3194 0.48345 0.0
C38 C 0.89808 0.30081 0.48051 0.0
C39 C 0.97215 0.33344 0.50647 0.0
O40 O 0.96178 0.31443 0.49293 0.0
H41 H 0.9235 0.30032 0.4101 0.0
H42 H 0.92092 0.33106 0.50466 0.0
O43 O 0.96651 0.33823 0.40119 0.0
H44 H 0.93193 0.39314 0.40436 0.0
H45 H 0.88496 0.29537 0.49904 0.0
Cu46 Cu 0.62494 0.95593 0.77731 0.0
N47 N 0.59721 0.94822 0.76846 0.0
N48 N 0.56792 0.94995 0.76676 0.0
C49 C 0.58761 0.9586 0.77982 0.0
C50 C 0.56505 0.93344 0.74648 0.0
C51 C 0.58316 0.9324 0.74763 0.0
O52 O 0.63378 0.9732 0.82096 0.0
C53 C 0.6397 0.9843 0.71813 0.0
O54 O 0.62836 0.99137 0.73343 0.0
H55 H 0.59526 0.97272 0.79609 0.0
H56 H 0.58605 0.92119 0.73364 0.0
N57 N 0.62679 0.93213 0.78658 0.0
N58 N 0.62746 0.90255 0.77867 0.0
C59 C 0.62373 0.91688 0.76292 0.0
C60 C 0.63245 0.92716 0.81834 0.0
C61 C 0.63299 0.90897 0.81349 0.0
C62 C 0.65173 0.98049 0.8355 0.0
O63 O 0.66617 0.97831 0.8184 0.0
H64 H 0.61936 0.91657 0.73456 0.0
H65 H 0.63609 0.93622 0.84326 0.0
O66 O 0.6412 0.96976 0.73392 0.0
H67 H 0.55096 0.92297 0.73161 0.0
H68 H 0.637 0.90099 0.83398 0.0
Cu69 Cu 0.66982 0.62093 0.11836 0.0
N70 N 0.64896 0.59302 0.11814 0.0
N71 N 0.61709 0.56487 0.11566 0.0
C72 C 0.6285 0.58588 0.11269 0.0
C73 C 0.63099 0.5586 0.12328 0.0
C74 C 0.65068 0.57604 0.12473 0.0
O75 O 0.66423 0.63364 0.16011 0.0
C76 C 0.68348 0.6472 0.05413 0.0
O77 O 0.70208 0.65697 0.06932 0.0
H78 H 0.6221 0.596 0.10766 0.0
H79 H 0.66519 0.57636 0.13056 0.0
N80 N 0.69545 0.62231 0.1256 0.0
N81 N 0.72529 0.62217 0.11674 0.0
C82 C 0.70828 0.62112 0.10077 0.0
C83 C 0.70448 0.62393 0.15828 0.0
C84 C 0.7229 0.62397 0.15294 0.0
C85 C 0.67787 0.65069 0.17477 0.0
O86 O 0.69603 0.66192 0.15857 0.0
H87 H 0.70498 0.61917 0.07174 0.0
H88 H 0.69804 0.62495 0.18426 0.0
O89 O 0.66827 0.63254 0.07148 0.0
H90 H 0.62723 0.54259 0.12743 0.0
H91 H 0.73376 0.62544 0.17415 0.0
Cu92 Cu 0.05875 0.67513 0.4462 0.0
N93 N 0.06594 0.65438 0.44142 0.0
N94 N 0.06345 0.62296 0.44108 0.0
C95 C 0.0546 0.63425 0.45186 0.0
C96 C 0.08113 0.63659 0.42341 0.0
C97 C 0.08263 0.65595 0.42372 0.0
O98 O 0.04356 0.67131 0.49164 0.0
C99 C 0.03025 0.65929 0.38668 0.0
O100 O 0.02348 0.64124 0.40315 0.0
H101 H 0.03968 0.62778 0.46555 0.0
H102 H 0.09472 0.67006 0.41101 0.0
N103 N 0.08299 0.70095 0.45165 0.0
N104 N 0.11265 0.73083 0.44143 0.0
C105 C 0.0982 0.71224 0.42725 0.0
C106 C 0.08807 0.71273 0.48211 0.0
C107 C 0.10632 0.73117 0.47589 0.0
C108 C 0.02584 0.65663 0.50211 0.0
O109 O 0.01402 0.64146 0.47945 0.0
H110 H 0.09839 0.70718 0.39952 0.0
H111 H 0.07897 0.70828 0.50704 0.0
O112 O 0.0445 0.67583 0.40185 0.0
H113 H 0.09204 0.6328 0.41069 0.0
H114 H 0.11437 0.74382 0.49526 0.0
Cu115 Cu 0.39425 0.05582 0.77608 0.0
N116 N 0.42023 0.05777 0.7698 0.0
N117 N 0.44627 0.05069 0.76797 0.0
C118 C 0.42649 0.04411 0.77906 0.0
C119 C 0.4527 0.06927 0.75148 0.0
C120 C 0.43663 0.07357 0.75267 0.0
O121 O 0.38164 0.04266 0.8224 0.0
C122 C 0.37692 0.02756 0.71672 0.0
O123 O 0.38694 0.01893 0.73161 0.0
H124 H 0.41654 0.02936 0.7925 0.0
H125 H 0.43675 0.08715 0.74139 0.0
N126 N 0.39921 0.08298 0.78062 0.0
N127 N 0.39937 0.11298 0.77242 0.0
C128 C 0.39325 0.09373 0.75881 0.0
C129 C 0.40948 0.09579 0.80871 0.0
C130 C 0.40962 0.11429 0.80377 0.0
C131 C 0.37603 0.02436 0.83389 0.0
O132 O 0.37731 0.01088 0.81217 0.0
H133 H 0.38431 0.08744 0.73393 0.0
H134 H 0.41632 0.09183 0.83129 0.0
O135 O 0.37709 0.04292 0.73286 0.0
H136 H 0.46792 0.07908 0.73937 0.0
H137 H 0.41694 0.12776 0.82166 0.0
Cu138 Cu 0.62395 0.67064 0.61502 0.0
N139 N 0.59628 0.65001 0.62257 0.0
N140 N 0.56731 0.61867 0.62342 0.0
C141 C 0.58715 0.63004 0.61116 0.0
C142 C 0.56386 0.63209 0.64319 0.0
C143 C 0.58177 0.65144 0.64256 0.0
O144 O 0.63414 0.66318 0.57192 0.0
C145 C 0.63825 0.6572 0.67497 0.0
O146 O 0.62736 0.63886 0.65916 0.0
H147 H 0.59521 0.62381 0.59542 0.0
H148 H 0.58422 0.66545 0.65632 0.0
N149 N 0.62504 0.69594 0.60577 0.0
N150 N 0.62548 0.72608 0.61375 0.0
C151 C 0.62279 0.70847 0.62988 0.0
C152 C 0.62904 0.70586 0.57336 0.0
C153 C 0.62945 0.72453 0.57824 0.0
C154 C 0.65195 0.6753 0.55788 0.0
O155 O 0.66498 0.69258 0.57523 0.0
H156 H 0.61972 0.70496 0.65873 0.0
H157 H 0.63163 0.69998 0.54797 0.0
O158 O 0.63969 0.67323 0.65925 0.0
H159 H 0.54949 0.6282 0.65733 0.0
H160 H 0.63229 0.73602 0.55731 0.0
Cu161 Cu 0.95258 0.61784 0.94597 0.0
N162 N 0.94943 0.59138 0.95196 0.0
N163 N 0.95561 0.56473 0.95356 0.0
C164 C 0.96273 0.58466 0.94276 0.0
C165 C 0.93706 0.55869 0.9699 0.0
C166 C 0.93332 0.57515 0.96884 0.0
O167 O 0.96649 0.63017 0.89992 0.0
C168 C 0.98153 0.63497 1.00437 0.0
O169 O 0.99076 0.62614 0.98735 0.0
H170 H 0.97761 0.59436 0.92959 0.0
H171 H 0.91992 0.57543 0.9801 0.0
N172 N 0.92599 0.61428 0.94059 0.0
N173 N 0.89601 0.614 0.94968 0.0
C174 C 0.91432 0.61783 0.96467 0.0
C175 C 0.91472 0.60792 0.9096 0.0
C176 C 0.89623 0.60773 0.91508 0.0
C177 C 0.98473 0.63515 0.88894 0.0
O178 O 0.99781 0.63366 0.9113 0.0
H179 H 0.91933 0.62346 0.99224 0.0
H180 H 0.91972 0.60381 0.88468 0.0
O181 O 0.96552 0.63426 0.9899 0.0
H182 H 0.92694 0.5435 0.98187 0.0
H183 H 0.88382 0.60313 0.89522 0.0
Cu184 Cu 0.34622 0.95812 0.27757 0.0
N185 N 0.36597 0.94975 0.28234 0.0
N186 N 0.39729 0.95219 0.28441 0.0
C187 C 0.38662 0.96217 0.27714 0.0
C188 C 0.38271 0.93268 0.29465 0.0
C189 C 0.36336 0.93122 0.29329 0.0
O190 O 0.35382 0.97546 0.23403 0.0
C191 C 0.33207 0.97202 0.33933 0.0
O192 O 0.31335 0.96168 0.32467 0.0
H193 H 0.39368 0.97843 0.26923 0.0
H194 H 0.34849 0.91772 0.30026 0.0
N195 N 0.31988 0.93465 0.27028 0.0
N196 N 0.28958 0.90518 0.27906 0.0
C197 C 0.30787 0.91951 0.29429 0.0
C198 C 0.30896 0.92948 0.23882 0.0
C199 C 0.29022 0.91141 0.24421 0.0
C200 C 0.34249 0.9819 0.21932 0.0
O201 O 0.32544 0.97875 0.23615 0.0
H202 H 0.3123 0.91921 0.32242 0.0
H203 H 0.31429 0.93818 0.21356 0.0
O204 O 0.34759 0.97299 0.32242 0.0
H205 H 0.38579 0.92036 0.30253 0.0
H206 H 0.27811 0.90328 0.22393 0.0
Cu207 Cu 0.39159 0.3396 0.60791 0.0
N208 N 0.4181 0.3631 0.61311 0.0
N209 N 0.44474 0.39597 0.61526 0.0
C210 C 0.42469 0.38324 0.60494 0.0
C211 C 0.45099 0.3833 0.63017 0.0
C212 C 0.43455 0.36308 0.62878 0.0
O213 O 0.3784 0.34048 0.56244 0.0
C214 C 0.37508 0.35153 0.66719 0.0
O215 O 0.38399 0.3697 0.65051 0.0
H216 H 0.41483 0.38857 0.59296 0.0
H217 H 0.43443 0.3493 0.63909 0.0
N218 N 0.3953 0.31664 0.60304 0.0
N219 N 0.39512 0.28673 0.61272 0.0
C220 C 0.39036 0.30082 0.62655 0.0
C221 C 0.40349 0.31252 0.57354 0.0
C222 C 0.40341 0.2941 0.57939 0.0
C223 C 0.37354 0.35384 0.55157 0.0
O224 O 0.37618 0.36908 0.57339 0.0
H225 H 0.38317 0.29956 0.65294 0.0
H226 H 0.40913 0.32231 0.54946 0.0
O227 O 0.37553 0.33621 0.65218 0.0
H228 H 0.46632 0.38827 0.64145 0.0
H229 H 0.40932 0.2869 0.56074 0.0
Cu230 Cu 0.05486 0.38863 0.94459 0.0
N231 N 0.06117 0.41603 0.95227 0.0
N232 N 0.05798 0.44449 0.95402 0.0
C233 C 0.04967 0.42462 0.94195 0.0
C234 C 0.07541 0.44851 0.97254 0.0
C235 C 0.07735 0.43091 0.97135 0.0
O236 O 0.03725 0.37805 0.90149 0.0
C237 C 0.02634 0.37264 1.00328 0.0
O238 O 0.01695 0.38095 0.98514 0.0
H239 H 0.0351 0.41618 0.92708 0.0
H240 H 0.08945 0.42892 0.98407 0.0
N241 N 0.07962 0.38867 0.93536 0.0
N242 N 0.1091 0.38781 0.94345 0.0
C243 C 0.09245 0.38726 0.95984 0.0
C244 C 0.08843 0.39027 0.90245 0.0
C245 C 0.1066 0.38968 0.90732 0.0
C246 C 0.03382 0.36139 0.88527 0.0
O247 O 0.04044 0.34961 0.9003 0.0
H248 H 0.08948 0.38567 0.98899 0.0
H249 H 0.08209 0.39182 0.87675 0.0
O250 O 0.0423 0.37308 0.98919 0.0
H251 H 0.08594 0.46307 0.98615 0.0
H252 H 0.11731 0.39091 0.88598 0.0
Cu253 Cu 0.67472 0.05463 0.27654 0.0
N254 N 0.65272 0.06 0.27246 0.0
N255 N 0.62039 0.05525 0.2737 0.0
C256 C 0.63278 0.04736 0.28286 0.0
C257 C 0.63321 0.07375 0.2574 0.0
C258 C 0.65312 0.07663 0.2567 0.0
O259 O 0.67434 0.0383 0.2344 0.0
C260 C 0.68653 0.04026 0.3403 0.0
O261 O 0.70498 0.04803 0.3248 0.0
H262 H 0.62738 0.03226 0.29542 0.0
H263 H 0.66685 0.08972 0.24488 0.0
N264 N 0.69967 0.08001 0.27357 0.0
N265 N 0.72929 0.1096 0.28635 0.0
C266 C 0.71253 0.09237 0.30022 0.0
C267 C 0.70842 0.08974 0.24198 0.0
C268 C 0.72662 0.10795 0.24969 0.0
C269 C 0.65769 0.02474 0.21855 0.0
O270 O 0.63953 0.01924 0.23361 0.0
H271 H 0.70974 0.08863 0.32902 0.0
H272 H 0.70188 0.08397 0.21516 0.0
O273 O 0.67187 0.04096 0.32334 0.0
H274 H 0.62855 0.08439 0.24636 0.0
H275 H 0.73686 0.11922 0.22971 0.0
H276 H 0.30613 0.33152 0.2167 0.0
H277 H 0.3123 0.32826 0.28152 0.0
H278 H 0.37397 0.38231 0.27309 0.0
H279 H 0.36816 0.38542 0.2082 0.0
H280 H 0.37396 0.3517 0.31408 0.0
H281 H 0.3108 0.36612 0.3605 0.0
H282 H 0.30205 0.34428 0.32995 0.0
H283 H 0.31996 0.37023 0.31383 0.0
C284 C 0.3211 0.34259 0.22853 0.0
C285 C 0.33658 0.35883 0.20727 0.0
C286 C 0.32452 0.34081 0.26569 0.0
C287 C 0.3434 0.35536 0.28239 0.0
C288 C 0.35921 0.37101 0.26088 0.0
H289 H 0.36876 0.38337 0.51412 0.0
H290 H 0.36106 0.38334 0.44891 0.0
C291 C 0.35586 0.37274 0.22372 0.0
C292 C 0.34665 0.35454 0.32235 0.0
H293 H 0.32741 0.3568 0.40623 0.0
C294 C 0.36377 0.35279 0.33423 0.0
C295 C 0.33358 0.35637 0.34865 0.0
C296 C 0.31568 0.35956 0.33769 0.0
C297 C 0.36805 0.3526 0.37162 0.0
C298 C 0.35457 0.35372 0.39791 0.0
C299 C 0.33759 0.35571 0.38606 0.0
C300 C 0.35806 0.35318 0.43783 0.0
C301 C 0.38729 0.35172 0.38256 0.0
C302 C 0.35832 0.33598 0.45348 0.0
C303 C 0.3628 0.33599 0.49061 0.0
C304 C 0.36688 0.35312 0.51305 0.0
C305 C 0.36573 0.36995 0.49765 0.0
C306 C 0.36135 0.36997 0.46037 0.0
H307 H 0.39883 0.35675 0.3599 0.0
H308 H 0.39499 0.36177 0.40674 0.0
H309 H 0.38271 0.33539 0.38976 0.0
H310 H 0.35528 0.32261 0.43685 0.0
H311 H 0.36335 0.32267 0.50161 0.0
H312 H 0.97503 0.30524 0.55112 0.0
H313 H 0.98574 0.30986 0.61543 0.0
H314 H 0.9992 0.37372 0.61166 0.0
H315 H 0.98858 0.36932 0.54736 0.0
H316 H 0.02543 0.34169 0.64971 0.0
H317 H 0.95557 0.34503 0.69664 0.0
H318 H 0.95667 0.33444 0.65268 0.0
H319 H 0.97016 0.36221 0.65963 0.0
C320 C 0.98046 0.32034 0.56382 0.0
C321 C 0.98082 0.33687 0.5441 0.0
C322 C 0.98656 0.32294 0.60059 0.0
C323 C 0.99294 0.34202 0.61839 0.0
C324 C 0.99404 0.35877 0.59851 0.0
H325 H 0.02509 0.38617 0.84165 0.0
H326 H 0.01501 0.38087 0.77717 0.0
C327 C 0.98807 0.35625 0.56169 0.0
C328 C 0.99799 0.34425 0.65799 0.0
H329 H 0.98112 0.351 0.74117 0.0
C330 C 0.01574 0.34366 0.66978 0.0
C331 C 0.98532 0.34686 0.68401 0.0
C332 C 0.96576 0.34704 0.67283 0.0
C333 C 0.02143 0.34606 0.70693 0.0
C334 C 0.00866 0.34852 0.73308 0.0
C335 C 0.99086 0.34905 0.72118 0.0
C336 C 0.01374 0.35105 0.7728 0.0
C337 C 0.0414 0.34655 0.7176 0.0
C338 C 0.01576 0.33575 0.79219 0.0
C339 C 0.02164 0.33878 0.82908 0.0
C340 C 0.02535 0.35706 0.84746 0.0
C341 C 0.02238 0.37191 0.82839 0.0
C342 C 0.01665 0.36893 0.79146 0.0
H343 H 0.05211 0.35034 0.6939 0.0
H344 H 0.04973 0.35822 0.73953 0.0
H345 H 0.03761 0.33094 0.72797 0.0
H346 H 0.01301 0.32154 0.77869 0.0
H347 H 0.02362 0.32695 0.843 0.0
H348 H 0.62309 0.98144 0.88163 0.0
H349 H 0.627 0.98948 0.94698 0.0
H350 H 0.69118 1.00408 0.94239 0.0
H351 H 0.68745 0.99593 0.87682 0.0
H352 H 0.64144 0.96753 0.99982 0.0
H353 H 0.69014 0.05443 0.99841 0.0
H354 H 0.67372 0.03992 0.96022 0.0
H355 H 0.69746 0.03966 0.96877 0.0
C356 C 0.63816 0.98665 0.89428 0.0
C357 C 0.65496 0.98799 0.87392 0.0
C358 C 0.64032 0.99117 0.93169 0.0
C359 C 0.65935 0.99737 0.94942 0.0
C360 C 0.67639 0.99945 0.92908 0.0
H361 H 0.69248 0.0334 0.17839 0.0
H362 H 0.69386 0.0252 0.1139 0.0
C363 C 0.67422 0.99478 0.89163 0.0
C364 C 0.6609 1.00048 0.98958 0.0
H365 H 0.68075 0.038 0.05594 0.0
C366 C 0.65009 0.98292 1.01218 0.0
C367 C 0.67238 0.02052 1.00549 0.0
C368 C 0.68406 0.03982 0.98216 0.0
C369 C 0.65033 0.98488 0.05042 0.0
C370 C 0.66118 1.00503 0.06641 0.0
C371 C 0.6724 0.02256 0.04373 0.0
C372 C 0.66031 0.00841 0.10634 0.0
C373 C 0.6391 0.96531 0.07326 0.0
C374 C 0.641 1.00156 0.12369 0.0
C375 C 0.64015 0.00602 0.16061 0.0
C376 C 0.65862 0.01774 0.18089 0.0
C377 C 0.67795 0.02428 0.16364 0.0
C378 C 0.67877 0.01967 0.12672 0.0
H379 H 0.63785 0.95155 0.05858 0.0
H380 H 0.6472 0.96705 0.09972 0.0
H381 H 0.623 0.96204 0.07902 0.0
H382 H 0.62656 0.99331 0.10839 0.0
H383 H 0.625 1.00092 0.17284 0.0
H384 H 0.64326 0.62906 0.21789 0.0
H385 H 0.63973 0.63449 0.28285 0.0
H386 H 0.70174 0.68837 0.28321 0.0
H387 H 0.70539 0.68319 0.2181 0.0
H388 H 0.66592 0.63378 0.33803 0.0
H389 H 0.66692 0.70945 0.33677 0.0
H390 H 0.66181 0.69362 0.29624 0.0
H391 H 0.6881 0.70946 0.31263 0.0
C392 C 0.65603 0.6423 0.23155 0.0
C393 C 0.67463 0.65569 0.2127 0.0
C394 C 0.654 0.64533 0.26875 0.0
C395 C 0.67041 0.66188 0.28784 0.0
C396 C 0.68874 0.67568 0.26891 0.0
H397 H 0.68703 0.69964 0.51713 0.0
H398 H 0.69256 0.69577 0.45223 0.0
C399 C 0.69082 0.67266 0.23166 0.0
C400 C 0.66882 0.66383 0.32799 0.0
H401 H 0.66856 0.69605 0.39475 0.0
C402 C 0.66643 0.64737 0.35046 0.0
C403 C 0.66967 0.68163 0.34413 0.0
C404 C 0.67159 0.6995 0.32126 0.0
C405 C 0.665 0.64827 0.38867 0.0
C406 C 0.66557 0.66595 0.40482 0.0
C407 C 0.66816 0.68252 0.38236 0.0
C408 C 0.66289 0.66736 0.44482 0.0
C409 C 0.66325 0.63042 0.4114 0.0
C410 C 0.64445 0.65257 0.46234 0.0
C411 C 0.64129 0.65466 0.49947 0.0
C412 C 0.65643 0.67172 0.51981 0.0
C413 C 0.67508 0.68627 0.50236 0.0
C414 C 0.67824 0.68414 0.46521 0.0
H415 H 0.66922 0.62138 0.39642 0.0
H416 H 0.67201 0.63615 0.43748 0.0
H417 H 0.64657 0.61959 0.418 0.0
H418 H 0.63219 0.63973 0.44704 0.0
H419 H 0.62667 0.64324 0.5119 0.0
H420 H 0.02062 0.64301 0.85311 0.0
H421 H 0.02785 0.64878 0.78741 0.0
H422 H 0.96796 0.64416 0.77039 0.0
H423 H 0.96073 0.63874 0.83576 0.0
H424 H 1.00515 0.62164 0.73153 0.0
H425 H 1.00704 0.69708 0.7142 0.0
H426 H 0.00866 0.68717 0.75847 0.0
H427 H 0.98376 0.67741 0.73629 0.0
C428 C 0.00912 0.64355 0.83547 0.0
C429 C 0.99012 0.64047 0.8498 0.0
C430 C 0.01325 0.64677 0.79791 0.0
C431 C 0.99855 0.64714 0.77403 0.0
C432 C 0.97972 0.64437 0.78834 0.0
H433 H 0.99178 0.62537 0.53792 0.0
H434 H 0.98427 0.623 0.60365 0.0
C435 C 0.97558 0.64116 0.82579 0.0
C436 C 1.00232 0.64923 0.73393 0.0
H437 H 1.00532 0.67863 0.65962 0.0
C438 C 1.00528 0.63415 0.71581 0.0
C439 C 1.00262 0.66564 0.71349 0.0
C440 C 1.00055 0.68287 0.73161 0.0
C441 C 0.00829 0.63488 0.67777 0.0
C442 C 0.00793 0.65092 0.65718 0.0
C443 C 1.00526 0.66617 0.67536 0.0
C444 C 0.01143 0.65278 0.617 0.0
C445 C 0.01225 0.61873 0.66008 0.0
C446 C 0.02869 0.67064 0.60251 0.0
C447 C 0.03292 0.67212 0.56505 0.0
C448 C 0.01992 0.65576 0.54116 0.0
C449 C 1.00216 0.6382 0.55553 0.0
C450 C 0.99793 0.63675 0.59313 0.0
H451 H 0.01702 0.61075 0.68044 0.0
H452 H 0.99769 0.60669 0.64666 0.0
H453 H 0.02461 0.62595 0.63887 0.0
H454 H 0.03924 0.68326 0.62036 0.0
H455 H 0.04668 0.68594 0.55499 0.0
H456 H 0.3756 0.98887 0.17613 0.0
H457 H 0.38028 0.99721 0.11099 0.0
H458 H 0.32347 1.00013 0.1099 0.0
H459 H 0.31847 0.9915 0.17516 0.0
H460 H 0.32532 0.97533 0.05412 0.0
H461 H 0.39815 0.05241 0.05854 0.0
H462 H 0.40006 0.03219 0.08239 0.0
H463 H 0.38234 0.04043 0.09861 0.0
C464 C 0.36423 0.99159 0.16225 0.0
C465 C 0.34666 0.98954 0.18098 0.0
C466 C 0.36699 0.99643 0.12496 0.0
C467 C 0.35233 0.99948 0.10561 0.0
C468 C 0.335 0.99789 0.12433 0.0
H469 H 0.37041 0.04831 0.88448 0.0
H470 H 0.36315 0.04144 0.94965 0.0
C471 C 0.33223 0.99306 0.16169 0.0
C472 C 0.35457 1.00325 0.06552 0.0
H473 H 0.38764 0.03617 1.00009 0.0
C474 C 0.33888 0.9887 0.04228 0.0
C475 C 0.37218 0.02078 0.05013 0.0
C476 C 0.38906 0.03746 0.07369 0.0
C477 C 0.34052 0.99099 1.00404 0.0
C478 C 0.35847 0.00814 0.98862 0.0
C479 C 0.37396 0.0229 1.01191 0.0
C480 C 0.36144 0.01137 0.94845 0.0
C481 C 0.3229 0.97519 0.98051 0.0
C482 C 0.36275 0.99665 0.92592 0.0
C483 C 0.36685 1.00048 0.88842 0.0
C484 C 0.36987 0.01921 0.87284 0.0
C485 C 0.36819 0.03372 0.89547 0.0
C486 C 0.36407 0.02986 0.93282 0.0
H487 H 0.30818 0.96633 0.99636 0.0
H488 H 0.31997 0.98289 0.957 0.0
H489 H 0.32718 0.96382 0.96955 0.0
H490 H 0.36116 0.98243 0.93749 0.0
H491 H 0.36818 0.98904 0.87187 0.0
H492 H 0.13278 0.37294 0.9142 0.0
H493 H 0.1622 0.37213 0.94306 0.0
H494 H 0.15373 0.4 0.04051 0.0
H495 H 0.12425 0.40079 1.01185 0.0
H496 H 0.19888 0.40503 0.96822 0.0
H497 H 0.15622 0.35025 0.0817 0.0
H498 H 0.143 0.35361 0.04303 0.0
H499 H 0.15224 0.37228 0.07985 0.0
C500 C 0.13719 0.37892 0.94175 0.0
C501 C 0.12613 0.38688 0.96077 0.0
C502 C 0.15394 0.37836 0.95826 0.0
C503 C 0.15995 0.3857 0.99412 0.0
C504 C 0.14902 0.39375 1.01315 0.0
H505 H 0.26257 0.40732 0.13532 0.0
H506 H 0.23197 0.40563 0.10653 0.0
C507 C 0.13219 0.39422 0.99671 0.0
C508 C 0.17818 0.38572 1.01101 0.0
H509 H 0.1934 0.36824 0.08478 0.0
C510 C 0.19766 0.39686 0.99356 0.0
C511 C 0.17653 0.37504 0.04407 0.0
C512 C 0.15584 0.36195 0.06311 0.0
C513 C 0.21564 0.39799 1.00869 0.0
C514 C 0.21401 0.38752 0.04193 0.0
C515 C 0.19455 0.37629 0.05932 0.0
C516 C 0.23243 0.38824 0.0593 0.0
C517 C 0.23633 0.41074 0.9895 0.0
C518 C 0.24264 0.37879 0.04243 0.0
C519 C 0.26006 0.37955 0.05895 0.0
C520 C 0.26758 0.38977 0.09273 0.0
C521 C 0.25713 0.3991 0.1096 0.0
C522 C 0.23968 0.39825 0.0931 0.0
H523 H 0.23569 0.42124 0.96843 0.0
H524 H 0.24885 0.42035 1.00945 0.0
H525 H 0.24066 0.40005 0.97575 0.0
H526 H 0.23703 0.37068 1.01659 0.0
H527 H 0.26742 0.37187 0.04545 0.0
H528 H 0.86632 0.25999 0.48798 0.0
H529 H 0.83768 0.22747 0.46353 0.0
H530 H 0.8651 0.24384 0.356 0.0
H531 H 0.89356 0.27667 0.37984 0.0
H532 H 0.80999 0.22471 0.40401 0.0
H533 H 0.85335 0.18293 0.37438 0.0
H534 H 0.86291 0.20462 0.40595 0.0
H535 H 0.86514 0.20928 0.35752 0.0
C536 C 0.86629 0.25681 0.45909 0.0
C537 C 0.88233 0.27111 0.43593 0.0
C538 C 0.84995 0.23812 0.44525 0.0
C539 C 0.84942 0.2332 0.4081 0.0
C540 C 0.86544 0.24722 0.38492 0.0
H541 H 0.7679 0.13684 0.25988 0.0
H542 H 0.79626 0.16621 0.29184 0.0
C543 C 0.88174 0.26599 0.39867 0.0
C544 C 0.83159 0.21387 0.39318 0.0
H545 H 0.81877 0.16768 0.3514 0.0
C546 C 0.8118 0.21212 0.39277 0.0
C547 C 0.83413 0.19759 0.37851 0.0
C548 C 0.85498 0.19851 0.37927 0.0
C549 C 0.79453 0.19477 0.37688 0.0
C550 C 0.79707 0.1785 0.3619 0.0
C551 C 0.81684 0.18013 0.36296 0.0
C552 C 0.77972 0.16021 0.34324 0.0
C553 C 0.77397 0.19445 0.375 0.0
C554 C 0.76104 0.14681 0.36166 0.0
C555 C 0.74453 0.1301 0.3432 0.0
C556 C 0.74649 0.12634 0.30604 0.0
C557 C 0.76553 0.13946 0.28814 0.0
C558 C 0.78191 0.15619 0.30651 0.0
H559 H 0.77601 0.21026 0.37917 0.0
H560 H 0.76619 0.18832 0.34822 0.0
H561 H 0.76347 0.18409 0.39684 0.0
H562 H 0.75917 0.14933 0.39026 0.0
H563 H 0.73016 0.12041 0.35793 0.0
H564 H 0.59878 0.87679 0.7296 0.0
H565 H 0.59608 0.84514 0.70255 0.0
H566 H 0.65142 0.85645 0.76139 0.0
H567 H 0.65351 0.88746 0.78955 0.0
H568 H 0.62024 0.8391 0.65926 0.0
H569 H 0.61386 0.79701 0.78775 0.0
H570 H 0.61214 0.82049 0.78677 0.0
H571 H 0.63727 0.82203 0.78727 0.0
C572 C 0.61027 0.8724 0.73674 0.0
C573 C 0.62621 0.88437 0.76189 0.0
C574 C 0.60873 0.85434 0.72139 0.0
C575 C 0.62325 0.84808 0.73061 0.0
C576 C 0.63957 0.86045 0.75487 0.0
H577 H 0.65031 0.76707 0.59927 0.0
H578 H 0.6489 0.79629 0.62774 0.0
C579 C 0.64085 0.87825 0.77077 0.0
C580 C 0.62177 0.82904 0.71391 0.0
H581 H 0.62268 0.78439 0.73403 0.0
C582 C 0.62055 0.82703 0.67566 0.0
C583 C 0.62171 0.81301 0.73525 0.0
C584 C 0.62107 0.81312 0.77653 0.0
C585 C 0.61988 0.8098 0.65814 0.0
C586 C 0.62132 0.79454 0.67937 0.0
C587 C 0.62192 0.79623 0.71767 0.0
C588 C 0.62241 0.77682 0.66248 0.0
C589 C 0.61726 0.80804 0.6171 0.0
C590 C 0.60869 0.75617 0.67372 0.0
C591 C 0.60988 0.73951 0.65813 0.0
C592 C 0.62465 0.74319 0.63075 0.0
C593 C 0.63852 0.76383 0.61984 0.0
C594 C 0.63762 0.7805 0.63592 0.0
H595 H 0.60926 0.8164 0.607 0.0
H596 H 0.63289 0.81534 0.60401 0.0
H597 H 0.60813 0.79147 0.60819 0.0
H598 H 0.59692 0.75293 0.69435 0.0
H599 H 0.59898 0.72372 0.66688 0.0
H600 H 0.75154 0.61073 0.14728 0.0
H601 H 0.78123 0.61071 0.11827 0.0
H602 H 0.76775 0.63155 1.01714 0.0
H603 H 0.73816 0.63207 0.04614 0.0
H604 H 0.7749 0.59616 1.01207 0.0
H605 H 0.83738 0.66354 0.08856 0.0
H606 H 0.81696 0.64368 0.11617 0.0
H607 H 0.81098 0.65883 0.08524 0.0
C608 C 0.75497 0.61559 0.11903 0.0
C609 C 0.74249 0.62158 0.09919 0.0
C610 C 0.77195 0.61552 0.10248 0.0
C611 C 0.77682 0.62142 0.06579 0.0
C612 C 0.76425 0.62704 0.0456 0.0
H613 H 0.86919 0.62349 0.91621 0.0
H614 H 0.84031 0.62559 0.94427 0.0
C615 C 0.74728 0.6272 0.06218 0.0
C616 C 0.79479 0.62125 0.04838 0.0
H617 H 0.84791 0.64396 0.05193 0.0
C618 C 0.79089 0.60668 1.02055 0.0
C619 C 0.81556 0.63493 0.05978 0.0
C620 C 0.82059 0.65127 0.08887 0.0
C621 C 0.80724 0.6051 1.00426 0.0
C622 C 0.82806 0.61882 1.01558 0.0
C623 C 0.83194 0.63346 0.04334 0.0
C624 C 0.84602 0.61825 0.99885 0.0
C625 C 0.802 0.58839 0.97579 0.0
C626 C 0.8593 0.61421 1.02046 0.0
C627 C 0.87594 0.61314 1.00449 0.0
C628 C 0.87955 0.61608 0.96663 0.0
C629 C 0.86653 0.62067 0.94528 0.0
C630 C 0.85 0.62186 0.96127 0.0
H631 H 0.7854 0.57574 0.97758 0.0
H632 H 0.80456 0.59546 0.94815 0.0
H633 H 0.81213 0.58134 0.97872 0.0
H634 H 0.85656 0.61152 0.04959 0.0
H635 H 0.88563 0.60949 1.0216 0.0
H636 H 0.13766 0.72655 0.39226 0.0
H637 H 0.16979 0.75478 0.36491 0.0
H638 H 0.16027 0.80036 0.42239 0.0
H639 H 0.12867 0.77228 0.4504 0.0
H640 H 0.17703 0.78612 0.32117 0.0
H641 H 0.21932 0.81928 0.45065 0.0
H642 H 0.19541 0.79441 0.4487 0.0
H643 H 0.19465 0.8184 0.45059 0.0
C644 C 0.14249 0.74262 0.39893 0.0
C645 C 0.13087 0.74726 0.42377 0.0
C646 C 0.16084 0.75871 0.38345 0.0
C647 C 0.16777 0.77968 0.3924 0.0
C648 C 0.1557 0.7843 0.41613 0.0
H649 H 0.2484 0.88936 0.26728 0.0
H650 H 0.21962 0.85798 0.29469 0.0
C651 C 0.13758 0.76826 0.43196 0.0
C652 C 0.18724 0.79685 0.37618 0.0
H653 H 0.23241 0.8416 0.39786 0.0
C654 C 0.18926 0.79811 0.33795 0.0
C655 C 0.20346 0.81226 0.39805 0.0
C656 C 0.20322 0.8109 0.43926 0.0
C657 C 0.20661 0.81483 0.32098 0.0
C658 C 0.22202 0.8311 0.34282 0.0
C659 C 0.22044 0.82935 0.38107 0.0
C660 C 0.23956 0.8503 0.3266 0.0
C661 C 0.20826 0.81474 0.27983 0.0
C662 C 0.26033 0.85706 0.33673 0.0
C663 C 0.27679 0.8753 0.32166 0.0
C664 C 0.27273 0.88697 0.29601 0.0
C665 C 0.25195 0.8804 0.28643 0.0
C666 C 0.23552 0.86239 0.3019 0.0
H667 H 0.19979 0.79855 0.2688 0.0
H668 H 0.20101 0.82337 0.26781 0.0
H669 H 0.2248 0.8223 0.27076 0.0
H670 H 0.26383 0.8481 0.356 0.0
H671 H 0.29269 0.88002 0.32937 0.0
H672 H 0.3947 0.11917 0.70066 0.0
H673 H 0.3912 0.14782 0.6746 0.0
H674 H 0.3928 0.1716 0.78301 0.0
H675 H 0.39621 0.14307 0.8092 0.0
H676 H 0.36103 0.16053 0.68728 0.0
H677 H 0.44094 0.22138 0.72942 0.0
H678 H 0.43257 0.19386 0.72933 0.0
H679 H 0.42489 0.20486 0.76589 0.0
C680 C 0.39408 0.13037 0.71894 0.0
C681 C 0.39602 0.129 0.75698 0.0
C682 C 0.39215 0.14675 0.70402 0.0
C683 C 0.39214 0.16201 0.72687 0.0
C684 C 0.39327 0.16025 0.76487 0.0
H685 H 0.39429 0.279 0.68547 0.0
H686 H 0.39138 0.24771 0.71412 0.0
C687 C 0.39526 0.14395 0.77978 0.0
C688 C 0.39142 0.18007 0.71102 0.0
H689 H 0.41936 0.23325 0.70388 0.0
C690 C 0.37378 0.17644 0.69081 0.0
C691 C 0.40808 0.20078 0.71579 0.0
C692 C 0.42779 0.20553 0.736 0.0
C693 C 0.37224 0.19306 0.67555 0.0
C694 C 0.38895 0.21376 0.68019 0.0
C695 C 0.40653 0.21736 0.70057 0.0
C696 C 0.38899 0.2319 0.66297 0.0
C697 C 0.35265 0.18836 0.65506 0.0
C698 C 0.3886 0.23336 0.62477 0.0
C699 C 0.39019 0.25115 0.60837 0.0
C700 C 0.39234 0.26793 0.62984 0.0
C701 C 0.39242 0.26629 0.66816 0.0
C702 C 0.39086 0.24847 0.68456 0.0
H703 H 0.33927 0.17284 0.66266 0.0
H704 H 0.3483 0.20049 0.66039 0.0
H705 H 0.35542 0.18817 0.62526 0.0
H706 H 0.38755 0.22092 0.60758 0.0
H707 H 0.38982 0.25178 0.57882 0.0
H708 H 0.3645 0.31969 0.7163 0.0
H709 H 0.35654 0.31948 0.78132 0.0
H710 H 0.36025 0.3793 0.7692 0.0
H711 H 0.36868 0.37986 0.70446 0.0
H712 H 0.38412 0.37953 0.82455 0.0
H713 H 0.30517 0.30977 0.83722 0.0
H714 H 0.32387 0.30431 0.81621 0.0
H715 H 0.31654 0.32129 0.79358 0.0
C716 C 0.36322 0.33262 0.7273 0.0
C717 C 0.36729 0.34983 0.70517 0.0
C718 C 0.35856 0.33242 0.76451 0.0
C719 C 0.3576 0.34929 0.78017 0.0
C720 C 0.36089 0.3661 0.75776 0.0
H721 H 0.32019 0.36273 0.99925 0.0
H722 H 0.32148 0.3562 0.93393 0.0
C723 C 0.36568 0.36638 0.7207 0.0
C724 C 0.35507 0.35041 0.82035 0.0
H725 H 0.32321 0.32501 0.89298 0.0
C726 C 0.37075 0.36763 0.83944 0.0
C727 C 0.33756 0.33497 0.8398 0.0
C728 C 0.31972 0.31664 0.82064 0.0
C729 C 0.36951 0.3698 0.87735 0.0
C730 C 0.35235 0.35404 0.89702 0.0
C731 C 0.33651 0.33692 0.87795 0.0
C732 C 0.35038 0.35556 0.93721 0.0
C733 C 0.38641 0.38921 0.89586 0.0
C734 C 0.36579 0.35661 0.961 0.0
C735 C 0.36517 0.36044 0.99833 0.0
C736 C 0.349 0.36312 1.01269 0.0
C737 C 0.33292 0.36083 0.98912 0.0
C738 C 0.33361 0.35709 0.95174 0.0
H739 H 0.39533 0.402 0.87595 0.0
H740 H 0.37971 0.39496 0.91699 0.0
H741 H 0.39757 0.38548 0.90947 0.0
H742 H 0.37863 0.35502 0.9505 0.0
H743 H 0.3777 0.36192 1.01571 0.0
H744 H 0.96036 0.32257 0.33659 0.0
H745 H 0.96809 0.32285 0.27149 0.0
H746 H 0.0281 0.37828 0.28745 0.0
H747 H 0.02032 0.37838 0.3524 0.0
H748 H 1.00677 0.38304 0.23247 0.0
H749 H 1.00578 0.30813 0.21402 0.0
H750 H 0.98251 0.30506 0.23526 0.0
H751 H 1.00718 0.31936 0.25854 0.0
C752 C 0.97537 0.3346 0.32642 0.0
C753 C 0.9897 0.35049 0.34976 0.0
C754 C 0.97982 0.33467 0.28914 0.0
C755 C 0.99878 0.35047 0.27454 0.0
C756 C 0.01339 0.36591 0.29807 0.0
H757 H 0.04661 0.36114 0.05288 0.0
H758 H 0.0393 0.35458 0.11836 0.0
C759 C 0.00892 0.36592 0.33525 0.0
C760 C 1.00263 0.35206 0.23438 0.0
H761 H 1.00504 0.32558 0.15949 0.0
C762 C 1.0065 0.3705 0.21659 0.0
C763 C 1.00245 0.33579 0.21363 0.0
C764 C 0.99946 0.31605 0.23136 0.0
C765 C 0.0099 0.37303 0.1787 0.0
C766 C 0.00895 0.35646 0.15771 0.0
C767 C 1.00546 0.33814 0.17551 0.0
C768 C 0.01201 0.3582 0.11739 0.0
C769 C 0.01487 0.3936 0.1616 0.0
C770 C 0.99867 0.36166 0.09482 0.0
C771 C 1.00285 0.3655 0.05743 0.0
C772 C 0.02035 0.36576 0.04174 0.0
C773 C 0.03302 0.36111 0.06404 0.0
C774 C 0.02887 0.35736 0.10152 0.0
H775 H 0.02045 0.40632 0.18226 0.0
H776 H 0.02698 0.39829 0.14002 0.0
H777 H 1.00051 0.39199 0.14885 0.0
H778 H 0.98529 0.3619 0.10633 0.0
H779 H 0.99265 0.36883 0.04104 0.0
H780 H 0.66001 0.96969 0.67496 0.0
H781 H 0.67148 0.97927 0.61153 0.0
H782 H 0.65023 0.02398 0.61327 0.0
H783 H 0.63889 0.01469 0.67666 0.0
H784 H 0.64597 0.97532 0.55246 0.0
H785 H 0.70884 0.05774 0.56927 0.0
H786 H 0.69865 0.03964 0.60711 0.0
H787 H 0.68465 0.05206 0.5905 0.0
C788 C 0.65807 0.98181 0.66206 0.0
C789 C 0.64855 0.99145 0.68098 0.0
C790 C 0.66459 0.98721 0.62575 0.0
C791 C 0.66192 1.00249 0.60775 0.0
C792 C 0.65282 0.01243 0.62679 0.0
H793 H 0.65006 0.02209 0.37937 0.0
H794 H 0.64511 0.01182 0.44371 0.0
C795 C 0.64625 0.00701 0.66303 0.0
C796 C 0.66737 0.00711 0.56842 0.0
H797 H 0.69607 0.04678 0.50847 0.0
C798 C 0.65708 0.9909 0.54286 0.0
C799 C 0.68204 0.02738 0.55592 0.0
C800 C 0.69435 0.04517 0.58213 0.0
C801 C 0.6605 0.99458 0.5051 0.0
C802 C 0.6744 0.01506 0.49253 0.0
C803 C 0.68527 0.03111 0.51812 0.0
C804 C 0.67733 0.02033 0.45295 0.0
C805 C 0.64917 0.9765 0.47898 0.0
C806 C 0.69715 0.02873 0.43676 0.0
C807 C 0.70006 0.03465 0.39987 0.0
C808 C 0.68323 0.0325 0.37857 0.0
C809 C 0.66336 0.02388 0.39485 0.0
C810 C 0.66046 0.01791 0.43164 0.0
H811 H 0.64389 0.96126 0.49275 0.0
H812 H 0.63515 0.97651 0.4682 0.0
H813 H 0.65929 0.97786 0.45545 0.0
H814 H 0.7104 0.03083 0.45276 0.0
H815 H 0.71559 0.04132 0.38829 0.0
H816 H 0.63626 0.62568 0.71707 0.0
H817 H 0.64679 0.62747 0.78093 0.0
H818 H 0.66976 0.69382 0.782 0.0
H819 H 0.659 0.69215 0.71814 0.0
H820 H 0.68531 0.65027 0.81607 0.0
H821 H 0.62808 0.67224 0.86722 0.0
H822 H 0.62705 0.66267 0.82138 0.0
H823 H 0.64578 0.68926 0.83283 0.0
C824 C 0.64368 0.64071 0.73073 0.0
C825 C 0.64662 0.65875 0.7125 0.0
C826 C 0.64971 0.64169 0.76728 0.0
C827 C 0.65873 0.6607 0.78645 0.0
C828 C 0.66245 0.6789 0.76797 0.0
H829 H 0.71302 0.67476 1.00612 0.0
H830 H 0.70822 0.67989 0.94138 0.0
C831 C 0.6564 0.67794 0.73137 0.0
C832 C 0.6637 0.66121 0.82599 0.0
H833 H 0.65046 0.67017 0.91095 0.0
C834 C 0.67781 0.65475 0.83683 0.0
C835 C 0.65367 0.66681 0.85306 0.0
C836 C 0.63766 0.67297 0.84322 0.0
C837 C 0.68207 0.65361 0.87397 0.0
C838 C 0.67218 0.65937 0.90102 0.0
C839 C 0.65818 0.66596 0.89017 0.0
C840 C 0.6751 0.65737 0.94076 0.0
C841 C 0.69657 0.64554 0.88399 0.0
C842 C 0.65797 0.64356 0.96225 0.0
C843 C 0.66061 0.64069 0.99925 0.0
C844 C 0.68048 0.65166 1.01567 0.0
C845 C 0.69752 0.66601 0.99436 0.0
C846 C 0.69484 0.66885 0.95726 0.0
H847 H 0.69922 0.63752 0.86063 0.0
H848 H 0.71192 0.65886 0.89236 0.0
H849 H 0.69021 0.63447 0.90733 0.0
H850 H 0.64257 0.6346 0.95014 0.0
H851 H 0.64711 0.62956 1.01479 0.0
H852 H 0.99692 0.62831 0.34996 0.0
H853 H 0.98826 0.62754 0.28525 0.0
H854 H 0.03989 0.69034 0.27215 0.0
H855 H 0.04831 0.69146 0.33722 0.0
H856 H 1.00576 0.68393 0.23236 0.0
H857 H 0.0225 0.6198 0.20709 0.0
H858 H 1.00258 0.61325 0.2409 0.0
H859 H 0.02885 0.63397 0.24971 0.0
C860 C 1.0063 0.64206 0.33345 0.0
C861 C 0.02345 0.65986 0.3487 0.0
C862 C 1.0014 0.64155 0.29637 0.0
C863 C 0.01376 0.65867 0.27359 0.0
C864 C 0.03023 0.67687 0.28912 0.0
H865 H 0.01808 0.64461 0.03853 0.0
H866 H 0.02691 0.65312 0.10301 0.0
C867 C 0.03502 0.67749 0.32635 0.0
C868 C 0.0101 0.65721 0.23338 0.0
H869 H 1.00705 0.62836 0.15822 0.0
C870 C 1.00611 0.67183 0.21608 0.0
C871 C 0.01098 0.6417 0.21198 0.0
C872 C 0.01667 0.62642 0.22826 0.0
C873 C 1.00255 0.67108 0.17811 0.0
C874 C 1.00256 0.65499 0.15701 0.0
C875 C 1.00689 0.64061 0.17432 0.0
C876 C 0.99818 0.65259 0.11697 0.0
C877 C 0.99924 0.68776 0.16095 0.0
C878 C 0.97926 0.64987 0.10298 0.0
C879 C 0.97429 0.64527 0.06587 0.0
C880 C 0.98798 0.64291 0.04219 0.0
C881 C 1.00716 0.64626 0.05603 0.0
C882 C 0.01222 0.65109 0.09295 0.0
H883 H 1.00607 0.70213 0.17801 0.0
H884 H 1.00628 0.69195 0.13322 0.0
H885 H 0.98223 0.68185 0.15846 0.0
H886 H 0.96792 0.65042 0.12099 0.0
H887 H 0.95929 0.64257 0.05618 0.0
H888 H 0.30214 0.97063 0.3856 0.0
H889 H 0.30648 0.98193 0.44959 0.0
H890 H 0.37236 1.00309 0.44292 0.0
H891 H 0.36827 0.99221 0.379 0.0
H892 H 0.31963 0.96745 0.50619 0.0
H893 H 0.37288 0.05263 0.49139 0.0
H894 H 0.35876 0.03606 0.45317 0.0
H895 H 0.38265 0.03771 0.46874 0.0
C896 C 0.31762 0.978 0.39756 0.0
C897 C 0.33486 0.98055 0.37704 0.0
C898 C 0.32006 0.98441 0.43419 0.0
C899 C 0.33979 0.99362 0.45099 0.0
C900 C 0.35706 0.99648 0.4304 0.0
H901 H 0.37493 0.99601 0.67478 0.0
H902 H 0.36348 0.98762 0.61137 0.0
C903 C 0.35466 0.99012 0.39382 0.0
C904 C 0.34217 0.99897 0.49062 0.0
H905 H 0.37086 0.03831 0.55122 0.0
C906 C 0.33064 0.98302 0.51602 0.0
C907 C 0.3563 0.01934 0.50354 0.0
C908 C 0.36819 0.03746 0.47777 0.0
C909 C 0.33351 0.98665 0.55389 0.0
C910 C 0.3486 0.0067 0.56675 0.0
C911 C 0.35945 0.02288 0.5414 0.0
C912 C 0.35413 0.01096 0.60618 0.0
C913 C 0.3204 0.96895 0.57974 0.0
C914 C 0.35293 0.02707 0.62444 0.0
C915 C 0.35961 0.03202 0.66082 0.0
C916 C 0.36779 0.02106 0.67955 0.0
C917 C 0.36861 1.0047 0.66134 0.0
C918 C 0.36195 0.99978 0.62505 0.0
H919 H 0.30551 0.95719 0.56672 0.0
H920 H 0.32915 0.96094 0.58742 0.0
H921 H 0.31672 0.97475 0.6051 0.0
H922 H 0.34707 0.03599 0.61036 0.0
H923 H 0.35886 0.04477 0.67392 0.0
H924 H 0.41956 0.47824 0.05951 0.0
H925 H 0.4577 0.49868 0.06239 0.0
H926 H 0.4579 0.45605 0.14261 0.0
H927 H 0.4198 0.43571 0.14044 0.0
H928 H 0.48343 0.51793 0.1257 0.0
H929 H 0.49854 0.45847 0.06189 0.0
H930 H 0.47367 0.45744 0.05821 0.0
H931 H 0.48059 0.44935 0.0997 0.0
C932 C 0.42765 0.47327 0.078 0.0
C933 C 0.41654 0.45522 0.0996 0.0
C934 C 0.44947 0.48491 0.07943 0.0
C935 C 0.46058 0.47867 0.10228 0.0
C936 C 0.4496 0.46087 0.12422 0.0
H937 H 0.59215 0.52775 0.14913 0.0
H938 H 0.554 0.50683 0.14584 0.0
C939 C 0.4278 0.44924 0.12288 0.0
C940 C 0.48367 0.49104 0.10372 0.0
H941 H 0.5278 0.48866 0.08614 0.0
C942 C 0.49317 0.5116 0.11692 0.0
C943 C 0.49625 0.48263 0.0924 0.0
C944 C 0.48682 0.46082 0.07696 0.0
C945 C 0.51498 0.52395 0.11966 0.0
C946 C 0.5276 0.5156 0.10811 0.0
C947 C 0.51808 0.495 0.09496 0.0
C948 C 0.55072 0.52805 0.10933 0.0
C949 C 0.52429 0.54562 0.13569 0.0
C950 C 0.56152 0.54665 0.08926 0.0
C951 C 0.58329 0.55861 0.09108 0.0
C952 C 0.5947 0.55209 0.11273 0.0
C953 C 0.58385 0.53313 0.13202 0.0
C954 C 0.56206 0.52122 0.1303 0.0
H955 H 0.51267 0.54745 0.15219 0.0
H956 H 0.53796 0.54931 0.15327 0.0
H957 H 0.52962 0.55722 0.11316 0.0
H958 H 0.55311 0.55192 0.07212 0.0
H959 H 0.59119 0.57289 0.0753 0.0
H960 H 0.03791 0.59805 0.49487 0.0
H961 H 0.02146 0.55999 0.49899 0.0
H962 H 0.05222 0.55924 0.39918 0.0
H963 H 0.06878 0.59723 0.39506 0.0
H964 H 0.99458 0.53116 0.45132 0.0
H965 H 0.06468 0.52288 0.46502 0.0
H966 H 0.06563 0.5476 0.47088 0.0
H967 H 0.06593 0.538 0.42573 0.0
C968 C 0.04125 0.58979 0.47391 0.0
C969 C 0.05471 0.60069 0.44469 0.0
C970 C 0.0319 0.56805 0.47637 0.0
C971 C 0.03586 0.55679 0.44971 0.0
C972 C 0.04937 0.56764 0.42061 0.0
H973 H 0.95796 0.42765 0.38831 0.0
H974 H 0.97617 0.46564 0.39441 0.0
C975 C 0.05882 0.58938 0.41825 0.0
C976 C 0.02488 0.53361 0.45106 0.0
H977 H 0.03277 0.49187 0.44919 0.0
C978 C 1.00294 0.52257 0.4512 0.0
C979 C 0.03577 0.5224 0.45145 0.0
C980 C 0.0593 0.53332 0.45365 0.0
C981 C 0.99159 0.50064 0.45056 0.0
C982 C 1.0025 0.48946 0.4489 0.0
C983 C 0.02443 0.50047 0.44998 0.0
C984 C 0.99143 0.46636 0.44536 0.0
C985 C 0.96804 0.48967 0.4519 0.0
C986 C 0.99443 0.45415 0.4714 0.0
C987 C 0.98413 0.43239 0.46783 0.0
C988 C 0.97065 0.42244 0.43812 0.0
C989 C 0.96787 0.43476 0.4119 0.0
C990 C 0.97826 0.4565 0.41538 0.0
H991 H 0.9625 0.4998 0.46415 0.0
H992 H 0.96176 0.48572 0.42365 0.0
H993 H 0.9615 0.47497 0.46794 0.0
H994 H 1.00461 0.46146 0.49466 0.0
H995 H 0.98648 0.42334 0.48861 0.0
H996 H 0.56579 0.97192 0.82432 0.0
H997 H 0.54324 0.9872 0.83025 0.0
H998 H 0.51561 0.96152 0.7253 0.0
H999 H 0.53801 0.94614 0.7193 0.0
H1000 H 0.54253 0.01619 0.78625 0.0
H1001 H 0.46429 0.94501 0.78752 0.0
H1002 H 0.48805 0.94415 0.79423 0.0
H1003 H 0.47968 0.94597 0.74882 0.0
C1004 C 0.55484 0.96945 0.80258 0.0
C1005 C 0.5537 0.95781 0.77133 0.0
C1006 C 0.5419 0.9781 0.80609 0.0
C1007 C 0.52752 0.97526 0.77847 0.0
C1008 C 0.52619 0.96347 0.7474 0.0
H1009 H 0.47694 0.05391 0.72314 0.0
H1010 H 0.49659 0.03561 0.72867 0.0
C1011 C 0.53905 0.95471 0.74396 0.0
C1012 C 0.51499 0.98583 0.78094 0.0
H1013 H 0.46521 0.97741 0.77617 0.0
C1014 C 0.52561 0.00768 0.78442 0.0
C1015 C 0.4929 0.97471 0.77908 0.0
C1016 C 0.48054 0.95115 0.77759 0.0
C1017 C 0.5148 0.01878 0.7848 0.0
C1018 C 0.4928 0.00776 0.78086 0.0
C1019 C 0.4821 0.98585 0.77874 0.0
C1020 C 0.48073 0.01876 0.77774 0.0
C1021 C 0.52705 0.04222 0.7895 0.0
C1022 C 0.46487 0.01494 0.80292 0.0
C1023 C 0.45353 0.02538 0.79978 0.0
C1024 C 0.45782 0.03979 0.7713 0.0
C1025 C 0.47354 0.04331 0.74587 0.0
C1026 C 0.48479 0.03284 0.74897 0.0
H1027 H 0.54237 0.04739 0.80289 0.0
H1028 H 0.53013 0.04975 0.7622 0.0
H1029 H 0.51821 0.04781 0.80605 0.0
H1030 H 0.46142 1.00403 0.82522 0.0
H1031 H 0.44163 0.0224 0.81993 0.0
H1032 H 0.56618 0.59487 0.56611 0.0
H1033 H 0.54379 0.55702 0.5594 0.0
H1034 H 0.51488 0.55437 0.66329 0.0
H1035 H 0.53708 0.59217 0.66999 0.0
H1036 H 0.54226 0.52683 0.60265 0.0
H1037 H 0.46429 0.52021 0.5995 0.0
H1038 H 0.4882 0.54486 0.59395 0.0
H1039 H 0.47924 0.53418 0.63891 0.0
C1040 C 0.55499 0.58623 0.58744 0.0
C1041 C 0.55339 0.59654 0.61855 0.0
C1042 C 0.54215 0.56462 0.5835 0.0
C1043 C 0.52743 0.55289 0.61056 0.0
C1044 C 0.52572 0.56315 0.64158 0.0
H1045 H 0.4757 0.42247 0.66062 0.0
H1046 H 0.49577 0.46053 0.65685 0.0
C1047 C 0.53846 0.58478 0.64542 0.0
C1048 C 0.51481 0.52979 0.60749 0.0
H1049 H 0.46486 0.48853 0.61047 0.0
C1050 C 0.52533 0.51847 0.604 0.0
C1051 C 0.4927 0.51889 0.60871 0.0
C1052 C 0.48043 0.53017 0.61008 0.0
C1053 C 0.51439 0.49655 0.60289 0.0
C1054 C 0.49236 0.48562 0.60619 0.0
C1055 C 0.48177 0.49693 0.60841 0.0
C1056 C 0.48008 0.46248 0.6083 0.0
C1057 C 0.52657 0.48532 0.59799 0.0
C1058 C 0.46414 0.45093 0.58291 0.0
C1059 C 0.45252 0.42911 0.58514 0.0
C1060 C 0.45663 0.41845 0.61285 0.0
C1061 C 0.47245 0.43013 0.63847 0.0
C1062 C 0.48395 0.45191 0.63634 0.0
H1063 H 0.54196 0.49555 0.58483 0.0
H1064 H 0.52954 0.48068 0.6252 0.0
H1065 H 0.51776 0.471 0.58113 0.0
H1066 H 0.46081 0.4588 0.56116 0.0
H1067 H 0.44052 0.42057 0.56489 0.0
H1068 H 0.98341 0.56866 0.90127 0.0
H1069 H 1.00145 0.54857 0.89617 0.0
H1070 H 0.96998 0.51403 0.99333 0.0
H1071 H 0.95192 0.53395 0.99853 0.0
H1072 H 0.02812 0.5453 0.94436 0.0
H1073 H 0.95823 0.46759 0.92119 0.0
H1074 H 0.95754 0.49159 0.91765 0.0
H1075 H 0.95617 0.48014 0.96173 0.0
C1076 C 0.98035 0.5568 0.92155 0.0
C1077 C 0.96609 0.5528 0.95015 0.0
C1078 C 0.99061 0.54529 0.91853 0.0
C1079 C 0.98676 0.52955 0.94398 0.0
C1080 C 0.97276 0.52571 0.9728 0.0
H1081 H 0.06172 0.47452 1.00105 0.0
H1082 H 0.04544 0.49613 0.99562 0.0
C1083 C 0.96244 0.53713 0.97575 0.0
C1084 C 0.99782 0.51752 0.94117 0.0
H1085 H 0.9897 0.46785 0.93729 0.0
C1086 C 0.01975 0.52838 0.94247 0.0
C1087 C 0.98689 0.49547 0.93809 0.0
C1088 C 0.96342 0.48302 0.9342 0.0
C1089 C 0.03102 0.51771 0.94204 0.0
C1090 C 0.02001 0.4956 0.94104 0.0
C1091 C 0.99812 0.4848 0.93848 0.0
C1092 C 0.03079 0.48327 0.9434 0.0
C1093 C 0.05458 0.53026 0.94243 0.0
C1094 C 0.02765 0.46854 0.91624 0.0
C1095 C 0.0368 0.45602 0.91947 0.0
C1096 C 0.04926 0.45798 0.94995 0.0
C1097 C 0.05253 0.47288 0.97694 0.0
C1098 C 0.04326 0.48529 0.97382 0.0
H1099 H 0.06044 0.54633 0.93177 0.0
H1100 H 0.06019 0.53164 0.97101 0.0
H1101 H 0.06145 0.5226 0.92585 0.0
H1102 H 0.01802 0.46666 0.89259 0.0
H1103 H 0.03415 0.44483 0.89807 0.0
H1104 H 0.5936 0.06223 0.23336 0.0
H1105 H 0.55559 0.0439 0.23789 0.0
H1106 H 0.55783 0.006 0.32544 0.0
H1107 H 0.59595 0.02482 0.32216 0.0
H1108 H 0.52865 1.00169 0.22748 0.0
H1109 H 0.51942 0.02553 0.36723 0.0
H1110 H 0.54386 0.03861 0.34265 0.0
H1111 H 0.53577 0.014 0.3648 0.0
C1112 C 0.58612 0.05032 0.25412 0.0
C1113 C 0.59795 0.04509 0.27746 0.0
C1114 C 0.56434 0.03972 0.25645 0.0
C1115 C 0.55389 0.02373 0.28223 0.0
C1116 C 0.56559 0.01853 0.30575 0.0
H1117 H 0.42083 0.94088 0.32489 0.0
H1118 H 0.45897 0.95694 0.32371 0.0
C1119 C 0.5874 0.02916 0.30352 0.0
C1120 C 0.53073 0.01195 0.28327 0.0
H1121 H 0.48863 0.99979 0.3378 0.0
C1122 C 0.5199 1.0013 0.25158 0.0
C1123 C 0.51937 0.01137 0.31483 0.0
C1124 C 0.53015 0.02313 0.34923 0.0
C1125 C 0.49798 0.99007 0.25057 0.0
C1126 C 0.48663 0.98972 0.28194 0.0
C1127 C 0.49742 1.00008 0.31383 0.0
C1128 C 0.46354 0.97944 0.2817 0.0
C1129 C 0.48716 0.97853 0.21603 0.0
C1130 C 0.45354 0.98683 0.25855 0.0
C1131 C 0.43181 0.97768 0.25908 0.0
C1132 C 0.41964 0.96099 0.28291 0.0
C1133 C 0.42972 0.95352 0.30592 0.0
C1134 C 0.4515 0.96276 0.30546 0.0
H1135 H 0.4977 0.97567 0.19834 0.0
H1136 H 0.47307 0.96329 0.22245 0.0
H1137 H 0.48211 0.98805 0.20023 0.0
H1138 H 0.46257 0.9999 0.24039 0.0
H1139 H 0.42455 0.98367 0.24077 0.0
loop_
_geom_bond_atom_site_label_1
_geom_bond_atom_site_label_2
_geom_bond_distance
_geom_bond_site_symmetry_2
_ccdc_geom_bond_type
Cu0 N1 1.999 . S
Cu0 O6 1.974 . S
Cu0 N11 1.985 . S
Cu0 O20 1.959 . S
N1 Cu0 1.999 . S
N1 C3 1.263 . S
N1 C5 1.389 . S
N2 C3 1.358 . S
N2 C4 1.400 . S
C3 N1 1.263 . S
C3 N2 1.358 . S
C3 H9 0.930 . S
C4 N2 1.400 . S
C4 C5 1.351 . S
C4 H21 0.930 . S
C5 N1 1.389 . S
C5 C4 1.351 . S
C5 H10 0.930 . S
O6 Cu0 1.974 . S
O6 C16 1.282 . S
C7 O8 1.261 . S
C7 O20 1.251 . S
O8 C7 1.261 . S
H9 C3 0.930 . S
H10 C5 0.930 . S
N11 Cu0 1.985 . S
N11 C13 1.335 . S
N11 C14 1.390 . S
N12 C13 1.345 . S
N12 C15 1.336 . S
C13 N11 1.335 . S
C13 N12 1.345 . S
C13 H18 0.930 . S
C14 N11 1.390 . S
C14 C15 1.346 . S
C14 H19 0.930 . S
C15 N12 1.336 . S
C15 C14 1.346 . S
C15 H22 0.929 . S
C16 O6 1.282 . S
C16 O17 1.216 . S
O17 C16 1.216 . S
H18 C13 0.930 . S
H19 C14 0.930 . S
O20 Cu0 1.959 . S
O20 C7 1.251 . S
H21 C4 0.930 . S
H22 C15 0.929 . S
Cu23 N24 1.999 . S
Cu23 O29 1.974 . S
Cu23 N34 1.985 . S
Cu23 O43 1.959 . S
N24 Cu23 1.999 . S
N24 C26 1.263 . S
N24 C28 1.389 . S
N25 C26 1.358 . S
N25 C27 1.400 . S
C26 N24 1.263 . S
C26 N25 1.358 . S
C26 H32 0.930 . S
C27 N25 1.400 . S
C27 C28 1.351 . S
C27 H44 0.930 . S
C28 N24 1.389 . S
C28 C27 1.351 . S
C28 H33 0.930 . S
O29 Cu23 1.974 . S
O29 C39 1.282 . S
C30 O31 1.261 . S
C30 O43 1.251 . S
O31 C30 1.261 . S
H32 C26 0.930 . S
H33 C28 0.930 . S
N34 Cu23 1.985 . S
N34 C36 1.335 . S
N34 C37 1.390 . S
N35 C36 1.345 . S
N35 C38 1.336 . S
C36 N34 1.335 . S
C36 N35 1.345 . S
C36 H41 0.930 . S
C37 N34 1.390 . S
C37 C38 1.346 . S
C37 H42 0.930 . S
C38 N35 1.336 . S
C38 C37 1.346 . S
C38 H45 0.929 . S
C39 O29 1.282 . S
C39 O40 1.216 . S
O40 C39 1.216 . S
H41 C36 0.930 . S
H42 C37 0.930 . S
O43 Cu23 1.959 . S
O43 C30 1.251 . S
H44 C27 0.930 . S
H45 C38 0.929 . S
Cu46 N47 1.999 . S
Cu46 O52 1.974 . S
Cu46 N57 1.985 . S
Cu46 O66 1.959 . S
N47 Cu46 1.999 . S
N47 C49 1.263 . S
N47 C51 1.389 . S
N48 C49 1.358 . S
N48 C50 1.400 . S
C49 N47 1.263 . S
C49 N48 1.358 . S
C49 H55 0.930 . S
C50 N48 1.400 . S
C50 C51 1.351 . S
C50 H67 0.930 . S
C51 N47 1.389 . S
C51 C50 1.351 . S
C51 H56 0.930 . S
O52 Cu46 1.974 . S
O52 C62 1.282 . S
C53 O54 1.261 . S
C53 O66 1.251 . S
O54 C53 1.261 . S
H55 C49 0.930 . S
H56 C51 0.930 . S
N57 Cu46 1.985 . S
N57 C59 1.335 . S
N57 C60 1.390 . S
N58 C59 1.345 . S
N58 C61 1.336 . S
C59 N57 1.335 . S
C59 N58 1.345 . S
C59 H64 0.930 . S
C60 N57 1.390 . S
C60 C61 1.346 . S
C60 H65 0.930 . S
C61 N58 1.336 . S
C61 C60 1.346 . S
C61 H68 0.929 . S
C62 O52 1.282 . S
C62 O63 1.216 . S
O63 C62 1.216 . S
H64 C59 0.930 . S
H65 C60 0.930 . S
O66 Cu46 1.959 . S
O66 C53 1.251 . S
H67 C50 0.930 . S
H68 C61 0.929 . S
Cu69 N70 1.999 . S
Cu69 O75 1.974 . S
Cu69 N80 1.985 . S
Cu69 O89 1.959 . S
N70 Cu69 1.999 . S
N70 C72 1.263 . S
N70 C74 1.389 . S
N71 C72 1.358 . S
N71 C73 1.400 . S
C72 N70 1.263 . S
C72 N71 1.358 . S
C72 H78 0.930 . S
C73 N71 1.400 . S
C73 C74 1.351 . S
C73 H90 0.930 . S
C74 N70 1.389 . S
C74 C73 1.351 . S
C74 H79 0.930 . S
O75 Cu69 1.974 . S
O75 C85 1.282 . S
C76 O77 1.261 . S
C76 O89 1.251 . S
O77 C76 1.261 . S
H78 C72 0.930 . S
H79 C74 0.930 . S
N80 Cu69 1.985 . S
N80 C82 1.335 . S
N80 C83 1.390 . S
N81 C82 1.345 . S
N81 C84 1.336 . S
C82 N80 1.335 . S
C82 N81 1.345 . S
C82 H87 0.930 . S
C83 N80 1.390 . S
C83 C84 1.346 . S
C83 H88 0.930 . S
C84 N81 1.336 . S
C84 C83 1.346 . S
C84 H91 0.929 . S
C85 O75 1.282 . S
C85 O86 1.216 . S
O86 C85 1.216 . S
H87 C82 0.930 . S
H88 C83 0.930 . S
O89 Cu69 1.959 . S
O89 C76 1.251 . S
H90 C73 0.930 . S
H91 C84 0.929 . S
Cu92 N93 1.999 . S
Cu92 O98 1.974 . S
Cu92 N103 1.985 . S
Cu92 O112 1.959 . S
N93 Cu92 1.999 . S
N93 C95 1.263 . S
N93 C97 1.389 . S
N94 C95 1.358 . S
N94 C96 1.400 . S
C95 N93 1.263 . S
C95 N94 1.358 . S
C95 H101 0.930 . S
C96 N94 1.400 . S
C96 C97 1.351 . S
C96 H113 0.930 . S
C97 N93 1.389 . S
C97 C96 1.351 . S
C97 H102 0.930 . S
O98 Cu92 1.974 . S
O98 C108 1.282 . S
C99 O100 1.261 . S
C99 O112 1.251 . S
O100 C99 1.261 . S
H101 C95 0.930 . S
H102 C97 0.930 . S
N103 Cu92 1.985 . S
N103 C105 1.335 . S
N103 C106 1.390 . S
N104 C105 1.345 . S
N104 C107 1.336 . S
C105 N103 1.335 . S
C105 N104 1.345 . S
C105 H110 0.930 . S
C106 N103 1.390 . S
C106 C107 1.346 . S
C106 H111 0.930 . S
C107 N104 1.336 . S
C107 C106 1.346 . S
C107 H114 0.929 . S
C108 O98 1.282 . S
C108 O109 1.216 . S
O109 C108 1.216 . S
H110 C105 0.930 . S
H111 C106 0.930 . S
O112 Cu92 1.959 . S
O112 C99 1.251 . S
H113 C96 0.930 . S
H114 C107 0.929 . S
Cu115 N116 1.999 . S
Cu115 O121 1.974 . S
Cu115 N126 1.985 . S
Cu115 O135 1.959 . S
N116 Cu115 1.999 . S
N116 C118 1.263 . S
N116 C120 1.389 . S
N117 C118 1.358 . S
N117 C119 1.400 . S
C118 N116 1.263 . S
C118 N117 1.358 . S
C118 H124 0.930 . S
C119 N117 1.400 . S
C119 C120 1.351 . S
C119 H136 0.930 . S
C120 N116 1.389 . S
C120 C119 1.351 . S
C120 H125 0.930 . S
O121 Cu115 1.974 . S
O121 C131 1.282 . S
C122 O123 1.261 . S
C122 O135 1.251 . S
O123 C122 1.261 . S
H124 C118 0.930 . S
H125 C120 0.930 . S
N126 Cu115 1.985 . S
N126 C128 1.335 . S
N126 C129 1.390 . S
N127 C128 1.345 . S
N127 C130 1.336 . S
C128 N126 1.335 . S
C128 N127 1.345 . S
C128 H133 0.930 . S
C129 N126 1.390 . S
C129 C130 1.346 . S
C129 H134 0.930 . S
C130 N127 1.336 . S
C130 C129 1.346 . S
C130 H137 0.929 . S
C131 O121 1.282 . S
C131 O132 1.216 . S
O132 C131 1.216 . S
H133 C128 0.930 . S
H134 C129 0.930 . S
O135 Cu115 1.959 . S
O135 C122 1.251 . S
H136 C119 0.930 . S
H137 C130 0.929 . S
Cu138 N139 1.999 . S
Cu138 O144 1.974 . S
Cu138 N149 1.985 . S
Cu138 O158 1.959 . S
N139 Cu138 1.999 . S
N139 C141 1.263 . S
N139 C143 1.389 . S
N140 C141 1.358 . S
N140 C142 1.400 . S
C141 N139 1.263 . S
C141 N140 1.358 . S
C141 H147 0.930 . S
C142 N140 1.400 . S
C142 C143 1.351 . S
C142 H159 0.930 . S
C143 N139 1.389 . S
C143 C142 1.351 . S
C143 H148 0.930 . S
O144 Cu138 1.974 . S
O144 C154 1.282 . S
C145 O146 1.261 . S
C145 O158 1.251 . S
O146 C145 1.261 . S
H147 C141 0.930 . S
H148 C143 0.930 . S
N149 Cu138 1.985 . S
N149 C151 1.335 . S
N149 C152 1.390 . S
N150 C151 1.345 . S
N150 C153 1.336 . S
C151 N149 1.335 . S
C151 N150 1.345 . S
C151 H156 0.930 . S
C152 N149 1.390 . S
C152 C153 1.346 . S
C152 H157 0.930 . S
C153 N150 1.336 . S
C153 C152 1.346 . S
C153 H160 0.929 . S
C154 O144 1.282 . S
C154 O155 1.216 . S
O155 C154 1.216 . S
H156 C151 0.930 . S
H157 C152 0.930 . S
O158 Cu138 1.959 . S
O158 C145 1.251 . S
H159 C142 0.930 . S
H160 C153 0.929 . S
Cu161 N162 1.999 . S
Cu161 O167 1.974 . S
Cu161 N172 1.985 . S
Cu161 O181 1.959 . S
N162 Cu161 1.999 . S
N162 C164 1.263 . S
N162 C166 1.389 . S
N163 C164 1.358 . S
N163 C165 1.400 . S
C164 N162 1.263 . S
C164 N163 1.358 . S
C164 H170 0.930 . S
C165 N163 1.400 . S
C165 C166 1.351 . S
C165 H182 0.930 . S
C166 N162 1.389 . S
C166 C165 1.351 . S
C166 H171 0.930 . S
O167 Cu161 1.974 . S
O167 C177 1.282 . S
C168 O169 1.261 . S
C168 O181 1.251 . S
O169 C168 1.261 . S
H170 C164 0.930 . S
H171 C166 0.930 . S
N172 Cu161 1.985 . S
N172 C174 1.335 . S
N172 C175 1.390 . S
N173 C174 1.345 . S
N173 C176 1.336 . S
C174 N172 1.335 . S
C174 N173 1.345 . S
C174 H179 0.930 . S
C175 N172 1.390 . S
C175 C176 1.346 . S
C175 H180 0.930 . S
C176 N173 1.336 . S
C176 C175 1.346 . S
C176 H183 0.929 . S
C177 O167 1.282 . S
C177 O178 1.216 . S
O178 C177 1.216 . S
H179 C174 0.930 . S
H180 C175 0.930 . S
O181 Cu161 1.959 . S
O181 C168 1.251 . S
H182 C165 0.930 . S
H183 C176 0.929 . S
Cu184 N185 1.999 . S
Cu184 O190 1.974 . S
Cu184 N195 1.985 . S
Cu184 O204 1.959 . S
N185 Cu184 1.999 . S
N185 C187 1.263 . S
N185 C189 1.389 . S
N186 C187 1.358 . S
N186 C188 1.400 . S
C187 N185 1.263 . S
C187 N186 1.358 . S
C187 H193 0.930 . S
C188 N186 1.400 . S
C188 C189 1.351 . S
C188 H205 0.930 . S
C189 N185 1.389 . S
C189 C188 1.351 . S
C189 H194 0.930 . S
O190 Cu184 1.974 . S
O190 C200 1.282 . S
C191 O192 1.261 . S
C191 O204 1.251 . S
O192 C191 1.261 . S
H193 C187 0.930 . S
H194 C189 0.930 . S
N195 Cu184 1.985 . S
N195 C197 1.335 . S
N195 C198 1.390 . S
N196 C197 1.345 . S
N196 C199 1.336 . S
C197 N195 1.335 . S
C197 N196 1.345 . S
C197 H202 0.930 . S
C198 N195 1.390 . S
C198 C199 1.346 . S
C198 H203 0.930 . S
C199 N196 1.336 . S
C199 C198 1.346 . S
C199 H206 0.929 . S
C200 O190 1.282 . S
C200 O201 1.216 . S
O201 C200 1.216 . S
H202 C197 0.930 . S
H203 C198 0.930 . S
O204 Cu184 1.959 . S
O204 C191 1.251 . S
H205 C188 0.930 . S
H206 C199 0.929 . S
Cu207 N208 1.999 . S
Cu207 O213 1.974 . S
Cu207 N218 1.985 . S
Cu207 O227 1.959 . S
N208 Cu207 1.999 . S
N208 C210 1.263 . S
N208 C212 1.389 . S
N209 C210 1.358 . S
N209 C211 1.400 . S
C210 N208 1.263 . S
C210 N209 1.358 . S
C210 H216 0.930 . S
C211 N209 1.400 . S
C211 C212 1.351 . S
C211 H228 0.930 . S
C212 N208 1.389 . S
C212 C211 1.351 . S
C212 H217 0.930 . S
O213 Cu207 1.974 . S
O213 C223 1.282 . S
C214 O215 1.261 . S
C214 O227 1.251 . S
O215 C214 1.261 . S
H216 C210 0.930 . S
H217 C212 0.930 . S
N218 Cu207 1.985 . S
N218 C220 1.335 . S
N218 C221 1.390 . S
N219 C220 1.345 . S
N219 C222 1.336 . S
C220 N218 1.335 . S
C220 N219 1.345 . S
C220 H225 0.930 . S
C221 N218 1.390 . S
C221 C222 1.346 . S
C221 H226 0.930 . S
C222 N219 1.336 . S
C222 C221 1.346 . S
C222 H229 0.929 . S
C223 O213 1.282 . S
C223 O224 1.216 . S
O224 C223 1.216 . S
H225 C220 0.930 . S
H226 C221 0.930 . S
O227 Cu207 1.959 . S
O227 C214 1.251 . S
H228 C211 0.930 . S
H229 C222 0.929 . S
Cu230 N231 1.999 . S
Cu230 O236 1.974 . S
Cu230 N241 1.985 . S
Cu230 O250 1.959 . S
N231 Cu230 1.999 . S
N231 C233 1.263 . S
N231 C235 1.389 . S
N232 C233 1.358 . S
N232 C234 1.400 . S
C233 N231 1.263 . S
C233 N232 1.358 . S
C233 H239 0.930 . S
C234 N232 1.400 . S
C234 C235 1.351 . S
C234 H251 0.930 . S
C235 N231 1.389 . S
C235 C234 1.351 . S
C235 H240 0.930 . S
O236 Cu230 1.974 . S
O236 C246 1.282 . S
C237 O238 1.261 . S
C237 O250 1.251 . S
O238 C237 1.261 . S
H239 C233 0.930 . S
H240 C235 0.930 . S
N241 Cu230 1.985 . S
N241 C243 1.335 . S
N241 C244 1.390 . S
N242 C243 1.345 . S
N242 C245 1.336 . S
C243 N241 1.335 . S
C243 N242 1.345 . S
C243 H248 0.930 . S
C244 N241 1.390 . S
C244 C245 1.346 . S
C244 H249 0.930 . S
C245 N242 1.336 . S
C245 C244 1.346 . S
C245 H252 0.929 . S
C246 O236 1.282 . S
C246 O247 1.216 . S
O247 C246 1.216 . S
H248 C243 0.930 . S
H249 C244 0.930 . S
O250 Cu230 1.959 . S
O250 C237 1.251 . S
H251 C234 0.930 . S
H252 C245 0.929 . S
Cu253 N254 1.999 . S
Cu253 O259 1.974 . S
Cu253 N264 1.985 . S
Cu253 O273 1.959 . S
N254 Cu253 1.999 . S
N254 C256 1.263 . S
N254 C258 1.389 . S
N255 C256 1.358 . S
N255 C257 1.400 . S
C256 N254 1.263 . S
C256 N255 1.358 . S
C256 H262 0.930 . S
C257 N255 1.400 . S
C257 C258 1.351 . S
C257 H274 0.930 . S
C258 N254 1.389 . S
C258 C257 1.351 . S
C258 H263 0.930 . S
O259 Cu253 1.974 . S
O259 C269 1.282 . S
C260 O261 1.261 . S
C260 O273 1.251 . S
O261 C260 1.261 . S
H262 C256 0.930 . S
H263 C258 0.930 . S
N264 Cu253 1.985 . S
N264 C266 1.335 . S
N264 C267 1.390 . S
N265 C266 1.345 . S
N265 C268 1.336 . S
C266 N264 1.335 . S
C266 N265 1.345 . S
C266 H271 0.930 . S
C267 N264 1.390 . S
C267 C268 1.346 . S
C267 H272 0.930 . S
C268 N265 1.336 . S
C268 C267 1.346 . S
C268 H275 0.929 . S
C269 O259 1.282 . S
C269 O270 1.216 . S
O270 C269 1.216 . S
H271 C266 0.930 . S
H272 C267 0.930 . S
O273 Cu253 1.959 . S
O273 C260 1.251 . S
H274 C257 0.930 . S
H275 C268 0.929 . S
H276 C284 0.929 . S
H277 C286 0.930 . S
H278 C288 0.930 . S
H279 C291 0.929 . S
H280 C294 0.930 . S
H281 C296 0.960 . S
H282 C296 0.960 . S
H283 C296 0.960 . S
C284 H276 0.929 . S
C284 C285 1.377 . S
C284 C286 1.384 . S
C285 C284 1.377 . S
C285 C291 1.390 . S
C286 H277 0.930 . S
C286 C284 1.384 . S
C286 C287 1.372 . S
C287 C286 1.372 . S
C287 C288 1.400 . S
C287 C292 1.490 . S
C288 H278 0.930 . S
C288 C287 1.400 . S
C288 C291 1.386 . S
H289 C305 0.930 . S
H290 C306 0.931 . S
C291 H279 0.929 . S
C291 C285 1.390 . S
C291 C288 1.386 . S
C292 C287 1.490 . S
C292 C294 1.395 . S
C292 C295 1.403 . S
H293 C299 0.930 . S
C294 H280 0.930 . S
C294 C292 1.395 . S
C294 C297 1.403 . S
C295 C292 1.403 . S
C295 C296 1.524 . S
C295 C299 1.400 . S
C296 H281 0.960 . S
C296 H282 0.960 . S
C296 H283 0.960 . S
C296 C295 1.524 . S
C297 C294 1.403 . S
C297 C298 1.392 . S
C297 C301 1.495 . S
C298 C297 1.392 . S
C298 C299 1.385 . S
C298 C300 1.478 . S
C299 H293 0.930 . S
C299 C295 1.400 . S
C299 C298 1.385 . S
C300 C298 1.478 . S
C300 C302 1.381 . S
C300 C306 1.383 . S
C301 C297 1.495 . S
C301 H307 0.959 . S
C301 H308 0.961 . S
C301 H309 0.960 . S
C302 C300 1.381 . S
C302 C303 1.394 . S
C302 H310 0.930 . S
C303 C302 1.394 . S
C303 C304 1.383 . S
C303 H311 0.929 . S
C304 C303 1.383 . S
C304 C305 1.377 . S
C305 H289 0.930 . S
C305 C304 1.377 . S
C305 C306 1.379 . S
C306 H290 0.931 . S
C306 C300 1.383 . S
C306 C305 1.379 . S
H307 C301 0.959 . S
H308 C301 0.961 . S
H309 C301 0.960 . S
H310 C302 0.930 . S
H311 C303 0.929 . S
H312 C320 0.929 . S
H313 C322 0.930 1_455 S
H314 C324 0.930 . S
H315 C327 0.929 . S
H316 C330 0.930 . S
H317 C332 0.960 . S
H318 C332 0.960 . S
H319 C332 0.960 . S
C320 H312 0.929 . S
C320 C321 1.377 . S
C320 C322 1.384 . S
C321 C320 1.377 . S
C321 C327 1.390 . S
C322 H313 0.930 1_655 S
C322 C320 1.384 . S
C322 C323 1.372 . S
C323 C322 1.372 . S
C323 C324 1.400 . S
C323 C328 1.490 . S
C324 H314 0.930 . S
C324 C323 1.400 . S
C324 C327 1.386 . S
H325 C341 0.930 . S
H326 C342 0.931 . S
C327 H315 0.929 . S
C327 C321 1.390 . S
C327 C324 1.386 . S
C328 C323 1.490 . S
C328 C330 1.395 1_655 S
C328 C331 1.403 . S
H329 C335 0.930 . S
C330 H316 0.930 . S
C330 C328 1.395 1_455 S
C330 C333 1.403 . S
C331 C328 1.403 . S
C331 C332 1.524 . S
C331 C335 1.400 . S
C332 H317 0.960 . S
C332 H318 0.960 . S
C332 H319 0.960 . S
C332 C331 1.524 . S
C333 C330 1.403 . S
C333 C334 1.392 . S
C333 C337 1.495 . S
C334 C333 1.392 . S
C334 C335 1.385 1_455 S
C334 C336 1.478 . S
C335 H329 0.930 . S
C335 C331 1.400 . S
C335 C334 1.385 1_655 S
C336 C334 1.478 . S
C336 C338 1.381 . S
C336 C342 1.383 . S
C337 C333 1.495 . S
C337 H343 0.959 . S
C337 H344 0.961 . S
C337 H345 0.960 . S
C338 C336 1.381 . S
C338 C339 1.394 . S
C338 H346 0.930 . S
C339 C338 1.394 . S
C339 C340 1.383 . S
C339 H347 0.929 . S
C340 C339 1.383 . S
C340 C341 1.377 . S
C341 H325 0.930 . S
C341 C340 1.377 . S
C341 C342 1.379 . S
C342 H326 0.931 . S
C342 C336 1.383 . S
C342 C341 1.379 . S
H343 C337 0.959 . S
H344 C337 0.961 . S
H345 C337 0.960 . S
H346 C338 0.930 . S
H347 C339 0.929 . S
H348 C356 0.929 . S
H349 C358 0.930 . S
H350 C360 0.930 . S
H351 C363 0.929 1_545 S
H352 C366 0.930 . S
H353 C368 0.960 . S
H354 C368 0.960 . S
H355 C368 0.960 . S
C356 H348 0.929 . S
C356 C357 1.377 . S
C356 C358 1.384 . S
C357 C356 1.377 . S
C357 C363 1.390 . S
C358 H349 0.930 . S
C358 C356 1.384 . S
C358 C359 1.372 . S
C359 C358 1.372 . S
C359 C360 1.400 1_565 S
C359 C364 1.490 . S
C360 H350 0.930 . S
C360 C359 1.400 1_545 S
C360 C363 1.386 1_545 S
H361 C377 0.930 . S
H362 C378 0.931 . S
C363 H351 0.929 1_565 S
C363 C357 1.390 . S
C363 C360 1.386 1_565 S
C364 C359 1.490 . S
C364 C366 1.395 . S
C364 C367 1.403 1_565 S
H365 C371 0.930 . S
C366 H352 0.930 . S
C366 C364 1.395 . S
C366 C369 1.403 1_556 S
C367 C364 1.403 1_545 S
C367 C368 1.524 . S
C367 C371 1.400 1_556 S
C368 H353 0.960 . S
C368 H354 0.960 . S
C368 H355 0.960 . S
C368 C367 1.524 . S
C369 C366 1.403 1_554 S
C369 C370 1.392 1_565 S
C369 C373 1.495 . S
C370 C369 1.392 1_545 S
C370 C371 1.385 . S
C370 C372 1.478 . S
C371 H365 0.930 . S
C371 C367 1.400 1_554 S
C371 C370 1.385 . S
C372 C370 1.478 . S
C372 C374 1.381 1_545 S
C372 C378 1.383 . S
C373 C369 1.495 . S
C373 H379 0.959 . S
C373 H380 0.961 . S
C373 H381 0.960 . S
C374 C372 1.381 1_565 S
C374 C375 1.394 1_565 S
C374 H382 0.930 . S
C375 C374 1.394 1_545 S
C375 C376 1.383 . S
C375 H383 0.929 1_545 S
C376 C375 1.383 . S
C376 C377 1.377 . S
C377 H361 0.930 . S
C377 C376 1.377 . S
C377 C378 1.379 . S
C378 H362 0.931 . S
C378 C372 1.383 . S
C378 C377 1.379 . S
H379 C373 0.959 . S
H380 C373 0.961 . S
H381 C373 0.960 . S
H382 C374 0.930 . S
H383 C375 0.929 1_565 S
H384 C392 0.929 . S
H385 C394 0.930 . S
H386 C396 0.930 . S
H387 C399 0.929 . S
H388 C402 0.930 . S
H389 C404 0.960 . S
H390 C404 0.960 . S
H391 C404 0.960 . S
C392 H384 0.929 . S
C392 C393 1.377 . S
C392 C394 1.384 . S
C393 C392 1.377 . S
C393 C399 1.390 . S
C394 H385 0.930 . S
C394 C392 1.384 . S
C394 C395 1.372 . S
C395 C394 1.372 . S
C395 C396 1.400 . S
C395 C400 1.490 . S
C396 H386 0.930 . S
C396 C395 1.400 . S
C396 C399 1.386 . S
H397 C413 0.930 . S
H398 C414 0.931 . S
C399 H387 0.929 . S
C399 C393 1.390 . S
C399 C396 1.386 . S
C400 C395 1.490 . S
C400 C402 1.395 . S
C400 C403 1.403 . S
H401 C407 0.930 . S
C402 H388 0.930 . S
C402 C400 1.395 . S
C402 C405 1.403 . S
C403 C400 1.403 . S
C403 C404 1.524 . S
C403 C407 1.400 . S
C404 H389 0.960 . S
C404 H390 0.960 . S
C404 H391 0.960 . S
C404 C403 1.524 . S
C405 C402 1.403 . S
C405 C406 1.392 . S
C405 C409 1.495 . S
C406 C405 1.392 . S
C406 C407 1.385 . S
C406 C408 1.478 . S
C407 H401 0.930 . S
C407 C403 1.400 . S
C407 C406 1.385 . S
C408 C406 1.478 . S
C408 C410 1.381 . S
C408 C414 1.383 . S
C409 C405 1.495 . S
C409 H415 0.959 . S
C409 H416 0.961 . S
C409 H417 0.960 . S
C410 C408 1.381 . S
C410 C411 1.394 . S
C410 H418 0.930 . S
C411 C410 1.394 . S
C411 C412 1.383 . S
C411 H419 0.929 . S
C412 C411 1.383 . S
C412 C413 1.377 . S
C413 H397 0.930 . S
C413 C412 1.377 . S
C413 C414 1.379 . S
C414 H398 0.931 . S
C414 C408 1.383 . S
C414 C413 1.379 . S
H415 C409 0.959 . S
H416 C409 0.961 . S
H417 C409 0.960 . S
H418 C410 0.930 . S
H419 C411 0.929 . S
H420 C428 0.922 1_455 S
H421 C430 0.930 . S
H422 C432 0.930 . S
H423 C435 0.929 . S
H424 C438 0.930 . S
H425 C440 0.960 . S
H426 C440 0.960 . S
H427 C440 0.960 . S
C428 H420 0.922 1_655 S
C428 C429 1.388 . S
C428 C430 1.381 1_655 S
C429 C428 1.388 . S
C429 C435 1.390 . S
C430 H421 0.930 . S
C430 C428 1.381 1_455 S
C430 C431 1.372 1_455 S
C431 C430 1.372 1_655 S
C431 C432 1.400 . S
C431 C436 1.490 . S
C432 H422 0.930 . S
C432 C431 1.400 . S
C432 C435 1.386 . S
H433 C449 0.930 1_655 S
H434 C450 0.931 . S
C435 H423 0.929 . S
C435 C429 1.390 . S
C435 C432 1.386 . S
C436 C431 1.490 . S
C436 C438 1.395 1_655 S
C436 C439 1.403 . S
H437 C443 0.930 . S
C438 H424 0.930 . S
C438 C436 1.395 1_455 S
C438 C441 1.403 . S
C439 C436 1.403 . S
C439 C440 1.524 . S
C439 C443 1.400 . S
C440 H425 0.960 . S
C440 H426 0.960 . S
C440 H427 0.960 . S
C440 C439 1.524 . S
C441 C438 1.403 . S
C441 C442 1.392 . S
C441 C445 1.495 . S
C442 C441 1.392 . S
C442 C443 1.385 1_455 S
C442 C444 1.478 . S
C443 H437 0.930 . S
C443 C439 1.400 . S
C443 C442 1.385 1_655 S
C444 C442 1.478 . S
C444 C446 1.381 . S
C444 C450 1.383 1_455 S
C445 C441 1.495 . S
C445 H451 0.959 . S
C445 H452 0.961 . S
C445 H453 0.960 . S
C446 C444 1.381 . S
C446 C447 1.394 . S
C446 H454 0.930 . S
C447 C446 1.394 . S
C447 C448 1.383 . S
C447 H455 0.929 . S
C448 C447 1.383 . S
C448 C449 1.377 . S
C449 H433 0.930 1_455 S
C449 C448 1.377 . S
C449 C450 1.379 1_455 S
C450 H434 0.931 . S
C450 C444 1.383 1_655 S
C450 C449 1.379 1_655 S
H451 C445 0.959 . S
H452 C445 0.961 . S
H453 C445 0.960 . S
H454 C446 0.930 . S
H455 C447 0.929 . S
H456 C464 0.929 . S
H457 C466 0.930 . S
H458 C468 0.930 . S
H459 C471 0.929 1_545 S
H460 C474 0.930 . S
H461 C476 0.960 . S
H462 C476 0.960 . S
H463 C476 0.960 . S
C464 H456 0.929 . S
C464 C465 1.377 . S
C464 C466 1.384 . S
C465 C464 1.377 . S
C465 C471 1.390 . S
C466 H457 0.930 . S
C466 C464 1.384 . S
C466 C467 1.372 . S
C467 C466 1.372 . S
C467 C468 1.400 1_565 S
C467 C472 1.490 . S
C468 H458 0.930 . S
C468 C467 1.400 1_545 S
C468 C471 1.386 1_545 S
H469 C485 0.930 . S
H470 C486 0.931 . S
C471 H459 0.929 1_565 S
C471 C465 1.390 . S
C471 C468 1.386 1_565 S
C472 C467 1.490 . S
C472 C474 1.395 . S
C472 C475 1.403 1_565 S
H473 C479 0.930 . S
C474 H460 0.930 . S
C474 C472 1.395 . S
C474 C477 1.403 1_554 S
C475 C472 1.403 1_545 S
C475 C476 1.524 . S
C475 C479 1.400 1_554 S
C476 H461 0.960 . S
C476 H462 0.960 . S
C476 H463 0.960 . S
C476 C475 1.524 . S
C477 C474 1.403 1_556 S
C477 C478 1.392 1_565 S
C477 C481 1.495 . S
C478 C477 1.392 1_545 S
C478 C479 1.385 . S
C478 C480 1.478 . S
C479 H473 0.930 . S
C479 C475 1.400 1_556 S
C479 C478 1.385 . S
C480 C478 1.478 . S
C480 C482 1.381 1_545 S
C480 C486 1.383 . S
C481 C477 1.495 . S
C481 H487 0.959 . S
C481 H488 0.961 . S
C481 H489 0.960 . S
C482 C480 1.381 1_565 S
C482 C483 1.394 1_565 S
C482 H490 0.930 . S
C483 C482 1.394 1_545 S
C483 C484 1.383 . S
C483 H491 0.929 1_545 S
C484 C483 1.383 . S
C484 C485 1.377 . S
C485 H469 0.930 . S
C485 C484 1.377 . S
C485 C486 1.379 . S
C486 H470 0.931 . S
C486 C480 1.383 . S
C486 C485 1.379 . S
H487 C481 0.959 . S
H488 C481 0.961 . S
H489 C481 0.960 . S
H490 C482 0.930 . S
H491 C483 0.929 1_565 S
H492 C500 0.929 . S
H493 C502 0.930 . S
H494 C504 0.930 1_554 S
H495 C507 0.929 . S
H496 C510 0.930 . S
H497 C512 0.960 . S
H498 C512 0.960 . S
H499 C512 0.960 . S
C500 H492 0.929 . S
C500 C501 1.377 . S
C500 C502 1.384 . S
C501 C500 1.377 . S
C501 C507 1.390 . S
C502 H493 0.930 . S
C502 C500 1.384 . S
C502 C503 1.372 . S
C503 C502 1.372 . S
C503 C504 1.400 . S
C503 C508 1.490 . S
C504 H494 0.930 1_556 S
C504 C503 1.400 . S
C504 C507 1.386 . S
H505 C521 0.930 . S
H506 C522 0.931 . S
C507 H495 0.929 . S
C507 C501 1.390 . S
C507 C504 1.386 . S
C508 C503 1.490 . S
C508 C510 1.395 . S
C508 C511 1.403 1_556 S
H509 C515 0.930 . S
C510 H496 0.930 . S
C510 C508 1.395 . S
C510 C513 1.403 . S
C511 C508 1.403 1_554 S
C511 C512 1.524 . S
C511 C515 1.400 . S
C512 H497 0.960 . S
C512 H498 0.960 . S
C512 H499 0.960 . S
C512 C511 1.524 . S
C513 C510 1.403 . S
C513 C514 1.392 1_556 S
C513 C517 1.495 . S
C514 C513 1.392 1_554 S
C514 C515 1.385 . S
C514 C516 1.478 . S
C515 H509 0.930 . S
C515 C511 1.400 . S
C515 C514 1.385 . S
C516 C514 1.478 . S
C516 C518 1.381 . S
C516 C522 1.383 . S
C517 C513 1.495 . S
C517 H523 0.959 . S
C517 H524 0.961 . S
C517 H525 0.960 . S
C518 C516 1.381 . S
C518 C519 1.394 . S
C518 H526 0.930 1_554 S
C519 C518 1.394 . S
C519 C520 1.383 . S
C519 H527 0.929 . S
C520 C519 1.383 . S
C520 C521 1.377 . S
C521 H505 0.930 . S
C521 C520 1.377 . S
C521 C522 1.379 . S
C522 H506 0.931 . S
C522 C516 1.383 . S
C522 C521 1.379 . S
H523 C517 0.959 . S
H524 C517 0.961 . S
H525 C517 0.960 . S
H526 C518 0.930 1_556 S
H527 C519 0.929 . S
H528 C536 0.929 . S
H529 C538 0.930 . S
H530 C540 0.930 . S
H531 C543 0.929 . S
H532 C546 0.930 . S
H533 C548 0.960 . S
H534 C548 0.960 . S
H535 C548 0.960 . S
C536 H528 0.929 . S
C536 C537 1.377 . S
C536 C538 1.384 . S
C537 C536 1.377 . S
C537 C543 1.390 . S
C538 H529 0.930 . S
C538 C536 1.384 . S
C538 C539 1.372 . S
C539 C538 1.372 . S
C539 C540 1.400 . S
C539 C544 1.490 . S
C540 H530 0.930 . S
C540 C539 1.400 . S
C540 C543 1.386 . S
H541 C557 0.930 . S
H542 C558 0.931 . S
C543 H531 0.929 . S
C543 C537 1.390 . S
C543 C540 1.386 . S
C544 C539 1.490 . S
C544 C546 1.395 . S
C544 C547 1.403 . S
H545 C551 0.930 . S
C546 H532 0.930 . S
C546 C544 1.395 . S
C546 C549 1.403 . S
C547 C544 1.403 . S
C547 C548 1.524 . S
C547 C551 1.400 . S
C548 H533 0.960 . S
C548 H534 0.960 . S
C548 H535 0.960 . S
C548 C547 1.524 . S
C549 C546 1.403 . S
C549 C550 1.392 . S
C549 C553 1.495 . S
C550 C549 1.392 . S
C550 C551 1.385 . S
C550 C552 1.478 . S
C551 H545 0.930 . S
C551 C547 1.400 . S
C551 C550 1.385 . S
C552 C550 1.478 . S
C552 C554 1.381 . S
C552 C558 1.383 . S
C553 C549 1.495 . S
C553 H559 0.959 . S
C553 H560 0.961 . S
C553 H561 0.960 . S
C554 C552 1.381 . S
C554 C555 1.394 . S
C554 H562 0.930 . S
C555 C554 1.394 . S
C555 C556 1.383 . S
C555 H563 0.929 . S
C556 C555 1.383 . S
C556 C557 1.377 . S
C557 H541 0.930 . S
C557 C556 1.377 . S
C557 C558 1.379 . S
C558 H542 0.931 . S
C558 C552 1.383 . S
C558 C557 1.379 . S
H559 C553 0.959 . S
H560 C553 0.961 . S
H561 C553 0.960 . S
H562 C554 0.930 . S
H563 C555 0.929 . S
H564 C572 0.929 . S
H565 C574 0.930 . S
H566 C576 0.930 . S
H567 C579 0.929 . S
H568 C582 0.930 . S
H569 C584 0.960 . S
H570 C584 0.960 . S
H571 C584 0.960 . S
C572 H564 0.929 . S
C572 C573 1.377 . S
C572 C574 1.384 . S
C573 C572 1.377 . S
C573 C579 1.390 . S
C574 H565 0.930 . S
C574 C572 1.384 . S
C574 C575 1.372 . S
C575 C574 1.372 . S
C575 C576 1.400 . S
C575 C580 1.490 . S
C576 H566 0.930 . S
C576 C575 1.400 . S
C576 C579 1.386 . S
H577 C593 0.930 . S
H578 C594 0.931 . S
C579 H567 0.929 . S
C579 C573 1.390 . S
C579 C576 1.386 . S
C580 C575 1.490 . S
C580 C582 1.395 . S
C580 C583 1.403 . S
H581 C587 0.930 . S
C582 H568 0.930 . S
C582 C580 1.395 . S
C582 C585 1.403 . S
C583 C580 1.403 . S
C583 C584 1.524 . S
C583 C587 1.400 . S
C584 H569 0.960 . S
C584 H570 0.960 . S
C584 H571 0.960 . S
C584 C583 1.524 . S
C585 C582 1.403 . S
C585 C586 1.392 . S
C585 C589 1.495 . S
C586 C585 1.392 . S
C586 C587 1.385 . S
C586 C588 1.478 . S
C587 H581 0.930 . S
C587 C583 1.400 . S
C587 C586 1.385 . S
C588 C586 1.478 . S
C588 C590 1.381 . S
C588 C594 1.383 . S
C589 C585 1.495 . S
C589 H595 0.959 . S
C589 H596 0.961 . S
C589 H597 0.960 . S
C590 C588 1.381 . S
C590 C591 1.394 . S
C590 H598 0.930 . S
C591 C590 1.394 . S
C591 C592 1.383 . S
C591 H599 0.929 . S
C592 C591 1.383 . S
C592 C593 1.377 . S
C593 H577 0.930 . S
C593 C592 1.377 . S
C593 C594 1.379 . S
C594 H578 0.931 . S
C594 C588 1.383 . S
C594 C593 1.379 . S
H595 C589 0.959 . S
H596 C589 0.961 . S
H597 C589 0.960 . S
H598 C590 0.930 . S
H599 C591 0.929 . S
H600 C608 0.929 . S
H601 C610 0.930 . S
H602 C612 0.930 . S
H603 C615 0.929 . S
H604 C618 0.930 . S
H605 C620 0.960 . S
H606 C620 0.960 . S
H607 C620 0.960 . S
C608 H600 0.929 . S
C608 C609 1.377 . S
C608 C610 1.384 . S
C609 C608 1.377 . S
C609 C615 1.390 . S
C610 H601 0.930 . S
C610 C608 1.384 . S
C610 C611 1.372 . S
C611 C610 1.372 . S
C611 C612 1.400 . S
C611 C616 1.490 . S
C612 H602 0.930 . S
C612 C611 1.400 . S
C612 C615 1.386 . S
H613 C629 0.930 . S
H614 C630 0.931 . S
C615 H603 0.929 . S
C615 C609 1.390 . S
C615 C612 1.386 . S
C616 C611 1.490 . S
C616 C618 1.395 1_554 S
C616 C619 1.403 . S
H617 C623 0.930 . S
C618 H604 0.930 . S
C618 C616 1.395 1_556 S
C618 C621 1.403 . S
C619 C616 1.403 . S
C619 C620 1.524 . S
C619 C623 1.400 . S
C620 H605 0.960 . S
C620 H606 0.960 . S
C620 H607 0.960 . S
C620 C619 1.524 . S
C621 C618 1.403 . S
C621 C622 1.392 . S
C621 C625 1.495 . S
C622 C621 1.392 . S
C622 C623 1.385 1_556 S
C622 C624 1.478 . S
C623 H617 0.930 . S
C623 C619 1.400 . S
C623 C622 1.385 1_554 S
C624 C622 1.478 . S
C624 C626 1.381 . S
C624 C630 1.383 . S
C625 C621 1.495 . S
C625 H631 0.959 . S
C625 H632 0.961 . S
C625 H633 0.960 . S
C626 C624 1.381 . S
C626 C627 1.394 . S
C626 H634 0.930 . S
C627 C626 1.394 . S
C627 C628 1.383 . S
C627 H635 0.929 . S
C628 C627 1.383 . S
C628 C629 1.377 . S
C629 H613 0.930 . S
C629 C628 1.377 . S
C629 C630 1.379 . S
C630 H614 0.931 . S
C630 C624 1.383 . S
C630 C629 1.379 . S
H631 C625 0.959 . S
H632 C625 0.961 . S
H633 C625 0.960 . S
H634 C626 0.930 . S
H635 C627 0.929 . S
H636 C644 0.929 . S
H637 C646 0.930 . S
H638 C648 0.930 . S
H639 C651 0.929 . S
H640 C654 0.930 . S
H641 C656 0.960 . S
H642 C656 0.960 . S
H643 C656 0.960 . S
C644 H636 0.929 . S
C644 C645 1.377 . S
C644 C646 1.384 . S
C645 C644 1.377 . S
C645 C651 1.390 . S
C646 H637 0.930 . S
C646 C644 1.384 . S
C646 C647 1.372 . S
C647 C646 1.372 . S
C647 C648 1.400 . S
C647 C652 1.490 . S
C648 H638 0.930 . S
C648 C647 1.400 . S
C648 C651 1.386 . S
H649 C665 0.930 . S
H650 C666 0.931 . S
C651 H639 0.929 . S
C651 C645 1.390 . S
C651 C648 1.386 . S
C652 C647 1.490 . S
C652 C654 1.395 . S
C652 C655 1.403 . S
H653 C659 0.930 . S
C654 H640 0.930 . S
C654 C652 1.395 . S
C654 C657 1.403 . S
C655 C652 1.403 . S
C655 C656 1.524 . S
C655 C659 1.400 . S
C656 H641 0.960 . S
C656 H642 0.960 . S
C656 H643 0.960 . S
C656 C655 1.524 . S
C657 C654 1.403 . S
C657 C658 1.392 . S
C657 C661 1.495 . S
C658 C657 1.392 . S
C658 C659 1.385 . S
C658 C660 1.478 . S
C659 H653 0.930 . S
C659 C655 1.400 . S
C659 C658 1.385 . S
C660 C658 1.478 . S
C660 C662 1.381 . S
C660 C666 1.383 . S
C661 C657 1.495 . S
C661 H667 0.959 . S
C661 H668 0.961 . S
C661 H669 0.960 . S
C662 C660 1.381 . S
C662 C663 1.394 . S
C662 H670 0.930 . S
C663 C662 1.394 . S
C663 C664 1.383 . S
C663 H671 0.929 . S
C664 C663 1.383 . S
C664 C665 1.377 . S
C665 H649 0.930 . S
C665 C664 1.377 . S
C665 C666 1.379 . S
C666 H650 0.931 . S
C666 C660 1.383 . S
C666 C665 1.379 . S
H667 C661 0.959 . S
H668 C661 0.961 . S
H669 C661 0.960 . S
H670 C662 0.930 . S
H671 C663 0.929 . S
H672 C680 0.929 . S
H673 C682 0.930 . S
H674 C684 0.930 . S
H675 C687 0.929 . S
H676 C690 0.930 . S
H677 C692 0.960 . S
H678 C692 0.960 . S
H679 C692 0.960 . S
C680 H672 0.929 . S
C680 C681 1.377 . S
C680 C682 1.384 . S
C681 C680 1.377 . S
C681 C687 1.390 . S
C682 H673 0.930 . S
C682 C680 1.384 . S
C682 C683 1.372 . S
C683 C682 1.372 . S
C683 C684 1.400 . S
C683 C688 1.490 . S
C684 H674 0.930 . S
C684 C683 1.400 . S
C684 C687 1.386 . S
H685 C701 0.930 . S
H686 C702 0.931 . S
C687 H675 0.929 . S
C687 C681 1.390 . S
C687 C684 1.386 . S
C688 C683 1.490 . S
C688 C690 1.395 . S
C688 C691 1.403 . S
H689 C695 0.930 . S
C690 H676 0.930 . S
C690 C688 1.395 . S
C690 C693 1.403 . S
C691 C688 1.403 . S
C691 C692 1.524 . S
C691 C695 1.400 . S
C692 H677 0.960 . S
C692 H678 0.960 . S
C692 H679 0.960 . S
C692 C691 1.524 . S
C693 C690 1.403 . S
C693 C694 1.392 . S
C693 C697 1.495 . S
C694 C693 1.392 . S
C694 C695 1.385 . S
C694 C696 1.478 . S
C695 H689 0.930 . S
C695 C691 1.400 . S
C695 C694 1.385 . S
C696 C694 1.478 . S
C696 C698 1.381 . S
C696 C702 1.383 . S
C697 C693 1.495 . S
C697 H703 0.959 . S
C697 H704 0.961 . S
C697 H705 0.960 . S
C698 C696 1.381 . S
C698 C699 1.394 . S
C698 H706 0.930 . S
C699 C698 1.394 . S
C699 C700 1.383 . S
C699 H707 0.929 . S
C700 C699 1.383 . S
C700 C701 1.377 . S
C701 H685 0.930 . S
C701 C700 1.377 . S
C701 C702 1.379 . S
C702 H686 0.931 . S
C702 C696 1.383 . S
C702 C701 1.379 . S
H703 C697 0.959 . S
H704 C697 0.961 . S
H705 C697 0.960 . S
H706 C698 0.930 . S
H707 C699 0.929 . S
H708 C716 0.929 . S
H709 C718 0.930 . S
H710 C720 0.930 . S
H711 C723 0.929 . S
H712 C726 0.930 . S
H713 C728 0.960 . S
H714 C728 0.960 . S
H715 C728 0.960 . S
C716 H708 0.929 . S
C716 C717 1.377 . S
C716 C718 1.384 . S
C717 C716 1.377 . S
C717 C723 1.390 . S
C718 H709 0.930 . S
C718 C716 1.384 . S
C718 C719 1.372 . S
C719 C718 1.372 . S
C719 C720 1.400 . S
C719 C724 1.490 . S
C720 H710 0.930 . S
C720 C719 1.400 . S
C720 C723 1.386 . S
H721 C737 0.930 . S
H722 C738 0.931 . S
C723 H711 0.929 . S
C723 C717 1.390 . S
C723 C720 1.386 . S
C724 C719 1.490 . S
C724 C726 1.395 . S
C724 C727 1.403 . S
H725 C731 0.930 . S
C726 H712 0.930 . S
C726 C724 1.395 . S
C726 C729 1.403 . S
C727 C724 1.403 . S
C727 C728 1.524 . S
C727 C731 1.400 . S
C728 H713 0.960 . S
C728 H714 0.960 . S
C728 H715 0.960 . S
C728 C727 1.524 . S
C729 C726 1.403 . S
C729 C730 1.392 . S
C729 C733 1.495 . S
C730 C729 1.392 . S
C730 C731 1.385 . S
C730 C732 1.478 . S
C731 H725 0.930 . S
C731 C727 1.400 . S
C731 C730 1.385 . S
C732 C730 1.478 . S
C732 C734 1.381 . S
C732 C738 1.383 . S
C733 C729 1.495 . S
C733 H739 0.959 . S
C733 H740 0.961 . S
C733 H741 0.960 . S
C734 C732 1.381 . S
C734 C735 1.394 . S
C734 H742 0.930 . S
C735 C734 1.394 . S
C735 C736 1.383 . S
C735 H743 0.929 . S
C736 C735 1.383 . S
C736 C737 1.377 . S
C737 H721 0.930 . S
C737 C736 1.377 . S
C737 C738 1.379 . S
C738 H722 0.931 . S
C738 C732 1.383 . S
C738 C737 1.379 . S
H739 C733 0.959 . S
H740 C733 0.961 . S
H741 C733 0.960 . S
H742 C734 0.930 . S
H743 C735 0.929 . S
H744 C752 0.929 . S
H745 C754 0.930 . S
H746 C756 0.930 . S
H747 C759 0.929 1_455 S
H748 C762 0.930 . S
H749 C764 0.947 1_455 S
H750 C764 0.960 . S
H751 C764 0.960 1_455 S
C752 H744 0.929 . S
C752 C753 1.377 . S
C752 C754 1.384 . S
C753 C752 1.377 . S
C753 C759 1.390 . S
C754 H745 0.930 . S
C754 C752 1.384 . S
C754 C755 1.372 . S
C755 C754 1.372 . S
C755 C756 1.400 1_655 S
C755 C760 1.490 . S
C756 H746 0.930 . S
C756 C755 1.400 1_455 S
C756 C759 1.386 1_455 S
H757 C773 0.930 . S
H758 C774 0.931 . S
C759 H747 0.929 1_655 S
C759 C753 1.390 . S
C759 C756 1.386 1_655 S
C760 C755 1.490 . S
C760 C762 1.395 . S
C760 C763 1.403 . S
H761 C767 0.930 . S
C762 H748 0.930 . S
C762 C760 1.395 . S
C762 C765 1.407 . S
C763 C760 1.403 . S
C763 C764 1.524 . S
C763 C767 1.400 1_655 S
C764 H749 0.947 1_655 S
C764 H750 0.960 . S
C764 H751 0.960 1_655 S
C764 C763 1.524 . S
C765 C762 1.407 . S
C765 C766 1.379 1_655 S
C765 C769 1.514 1_655 S
C766 C765 1.379 1_455 S
C766 C767 1.385 . S
C766 C768 1.478 . S
C767 H761 0.930 . S
C767 C763 1.400 1_455 S
C767 C766 1.385 . S
C768 C766 1.478 . S
C768 C770 1.381 1_455 S
C768 C774 1.383 . S
C769 C765 1.514 1_455 S
C769 H775 0.948 1_455 S
C769 H776 0.976 . S
C769 H777 0.948 1_455 S
C770 C768 1.381 1_655 S
C770 C771 1.394 1_655 S
C770 H778 0.930 . S
C771 C770 1.394 1_455 S
C771 C772 1.383 . S
C771 H779 0.929 1_455 S
C772 C771 1.383 . S
C772 C773 1.377 . S
C773 H757 0.930 . S
C773 C772 1.377 . S
C773 C774 1.379 . S
C774 H758 0.931 . S
C774 C768 1.383 . S
C774 C773 1.379 . S
H775 C769 0.948 1_655 S
H776 C769 0.976 . S
H777 C769 0.948 1_655 S
H778 C770 0.930 . S
H779 C771 0.929 1_655 S
H780 C788 0.929 . S
H781 C790 0.930 . S
H782 C792 0.930 1_545 S
H783 C795 0.929 . S
H784 C798 0.930 . S
H785 C800 0.960 . S
H786 C800 0.960 . S
H787 C800 0.960 . S
C788 H780 0.929 . S
C788 C789 1.377 . S
C788 C790 1.384 . S
C789 C788 1.377 . S
C789 C795 1.390 . S
C790 H781 0.930 . S
C790 C788 1.384 . S
C790 C791 1.372 . S
C791 C790 1.372 . S
C791 C792 1.400 . S
C791 C796 1.490 . S
C792 H782 0.930 1_565 S
C792 C791 1.400 . S
C792 C795 1.386 . S
H793 C809 0.930 . S
H794 C810 0.931 . S
C795 H783 0.929 . S
C795 C789 1.390 . S
C795 C792 1.386 . S
C796 C791 1.490 . S
C796 C798 1.395 . S
C796 C799 1.403 1_565 S
H797 C803 0.930 . S
C798 H784 0.930 . S
C798 C796 1.395 . S
C798 C801 1.403 . S
C799 C796 1.403 1_545 S
C799 C800 1.524 . S
C799 C803 1.400 . S
C800 H785 0.960 . S
C800 H786 0.960 . S
C800 H787 0.960 . S
C800 C799 1.524 . S
C801 C798 1.403 . S
C801 C802 1.392 1_565 S
C801 C805 1.495 . S
C802 C801 1.392 1_545 S
C802 C803 1.385 . S
C802 C804 1.478 . S
C803 H797 0.930 . S
C803 C799 1.400 . S
C803 C802 1.385 . S
C804 C802 1.478 . S
C804 C806 1.401 . S
C804 C810 1.383 . S
C805 C801 1.495 . S
C805 H811 0.959 . S
C805 H812 0.961 . S
C805 H813 0.960 . S
C806 C804 1.401 . S
C806 C807 1.403 . S
C806 H814 0.901 1_545 S
C807 C806 1.403 . S
C807 C808 1.383 . S
C807 H815 0.929 . S
C808 C807 1.383 . S
C808 C809 1.377 . S
C809 H793 0.930 . S
C809 C808 1.377 . S
C809 C810 1.379 . S
C810 H794 0.931 . S
C810 C804 1.383 . S
C810 C809 1.379 . S
H811 C805 0.959 . S
H812 C805 0.961 . S
H813 C805 0.960 . S
H814 C806 0.901 1_565 S
H815 C807 0.929 . S
H816 C824 0.929 . S
H817 C826 0.930 . S
H818 C828 0.930 . S
H819 C831 0.929 . S
H820 C834 0.930 . S
H821 C836 0.960 . S
H822 C836 0.960 . S
H823 C836 0.960 . S
C824 H816 0.929 . S
C824 C825 1.377 . S
C824 C826 1.384 . S
C825 C824 1.377 . S
C825 C831 1.390 . S
C826 H817 0.930 . S
C826 C824 1.384 . S
C826 C827 1.372 . S
C827 C826 1.372 . S
C827 C828 1.400 . S
C827 C832 1.490 . S
C828 H818 0.930 . S
C828 C827 1.400 . S
C828 C831 1.386 . S
H829 C845 0.930 . S
H830 C846 0.931 . S
C831 H819 0.929 . S
C831 C825 1.390 . S
C831 C828 1.386 . S
C832 C827 1.490 . S
C832 C834 1.395 . S
C832 C835 1.403 . S
H833 C839 0.930 . S
C834 H820 0.930 . S
C834 C832 1.395 . S
C834 C837 1.403 . S
C835 C832 1.403 . S
C835 C836 1.524 . S
C835 C839 1.400 . S
C836 H821 0.960 . S
C836 H822 0.960 . S
C836 H823 0.960 . S
C836 C835 1.524 . S
C837 C834 1.403 . S
C837 C838 1.392 . S
C837 C841 1.495 . S
C838 C837 1.392 . S
C838 C839 1.385 . S
C838 C840 1.478 . S
C839 H833 0.930 . S
C839 C835 1.400 . S
C839 C838 1.385 . S
C840 C838 1.478 . S
C840 C842 1.381 . S
C840 C846 1.383 . S
C841 C837 1.495 . S
C841 H847 0.959 . S
C841 H848 0.961 . S
C841 H849 0.960 . S
C842 C840 1.381 . S
C842 C843 1.394 . S
C842 H850 0.930 . S
C843 C842 1.394 . S
C843 C844 1.383 . S
C843 H851 0.929 . S
C844 C843 1.383 . S
C844 C845 1.377 . S
C845 H829 0.930 . S
C845 C844 1.377 . S
C845 C846 1.379 . S
C846 H830 0.931 . S
C846 C840 1.383 . S
C846 C845 1.379 . S
H847 C841 0.959 . S
H848 C841 0.961 . S
H849 C841 0.960 . S
H850 C842 0.930 . S
H851 C843 0.929 . S
H852 C860 0.910 1_655 S
H853 C862 0.930 . S
H854 C864 0.930 . S
H855 C867 0.929 . S
H856 C870 0.930 . S
H857 C872 0.960 . S
H858 C872 0.960 . S
H859 C872 0.960 . S
C860 H852 0.910 1_455 S
C860 C861 1.405 . S
C860 C862 1.376 1_455 S
C861 C860 1.405 . S
C861 C867 1.390 . S
C862 H853 0.930 . S
C862 C860 1.376 1_655 S
C862 C863 1.372 1_655 S
C863 C862 1.372 1_455 S
C863 C864 1.400 . S
C863 C868 1.490 . S
C864 H854 0.930 . S
C864 C863 1.400 . S
C864 C867 1.386 . S
H865 C881 0.930 1_455 S
H866 C882 0.931 . S
C867 H855 0.929 . S
C867 C861 1.390 . S
C867 C864 1.386 . S
C868 C863 1.490 . S
C868 C870 1.395 1_455 S
C868 C871 1.403 . S
H869 C875 0.930 . S
C870 H856 0.930 . S
C870 C868 1.395 1_655 S
C870 C873 1.403 . S
C871 C868 1.403 . S
C871 C872 1.524 . S
C871 C875 1.400 . S
C872 H857 0.960 . S
C872 H858 0.960 . S
C872 H859 0.960 . S
C872 C871 1.524 . S
C873 C870 1.403 . S
C873 C874 1.392 . S
C873 C877 1.495 . S
C874 C873 1.392 . S
C874 C875 1.385 1_655 S
C874 C876 1.478 . S
C875 H869 0.930 . S
C875 C871 1.400 . S
C875 C874 1.385 1_455 S
C876 C874 1.478 . S
C876 C878 1.381 . S
C876 C882 1.383 1_655 S
C877 C873 1.495 . S
C877 H883 0.959 . S
C877 H884 0.961 . S
C877 H885 0.960 . S
C878 C876 1.381 . S
C878 C879 1.394 . S
C878 H886 0.930 . S
C879 C878 1.394 . S
C879 C880 1.383 . S
C879 H887 0.929 . S
C880 C879 1.383 . S
C880 C881 1.377 . S
C881 H865 0.930 1_655 S
C881 C880 1.377 . S
C881 C882 1.379 1_655 S
C882 H866 0.931 . S
C882 C876 1.383 1_455 S
C882 C881 1.379 1_455 S
H883 C877 0.959 . S
H884 C877 0.961 . S
H885 C877 0.960 . S
H886 C878 0.930 . S
H887 C879 0.929 . S
H888 C896 0.929 1_545 S
H889 C898 0.967 . S
H890 C900 0.930 . S
H891 C903 0.929 . S
H892 C906 0.930 . S
H893 C908 0.960 . S
H894 C908 0.960 . S
H895 C908 0.960 1_565 S
C896 H888 0.929 1_565 S
C896 C897 1.377 . S
C896 C898 1.375 1_565 S
C897 C896 1.377 . S
C897 C903 1.390 . S
C898 H889 0.967 . S
C898 C896 1.375 1_545 S
C898 C899 1.345 1_545 S
C899 C898 1.345 1_565 S
C899 C900 1.400 . S
C899 C904 1.490 . S
C900 H890 0.930 . S
C900 C899 1.400 . S
C900 C903 1.386 . S
H901 C917 0.930 1_565 S
H902 C918 0.931 . S
C903 H891 0.929 . S
C903 C897 1.390 . S
C903 C900 1.386 . S
C904 C899 1.490 . S
C904 C906 1.395 . S
C904 C907 1.403 1_565 S
H905 C911 0.930 . S
C906 H892 0.930 . S
C906 C904 1.395 . S
C906 C909 1.403 . S
C907 C904 1.403 1_545 S
C907 C908 1.524 . S
C907 C911 1.400 . S
C908 H893 0.960 . S
C908 H894 0.960 . S
C908 H895 0.960 1_545 S
C908 C907 1.524 . S
C909 C906 1.403 . S
C909 C910 1.392 1_565 S
C909 C913 1.495 . S
C910 C909 1.392 1_545 S
C910 C911 1.385 . S
C910 C912 1.478 . S
C911 H905 0.930 . S
C911 C907 1.400 . S
C911 C910 1.385 . S
C912 C910 1.478 . S
C912 C914 1.381 . S
C912 C918 1.383 1_545 S
C913 C909 1.495 . S
C913 H919 0.959 . S
C913 H920 0.961 . S
C913 H921 0.960 1_565 S
C914 C912 1.381 . S
C914 C915 1.394 . S
C914 H922 0.930 . S
C915 C914 1.394 . S
C915 C916 1.383 . S
C915 H923 0.929 . S
C916 C915 1.383 . S
C916 C917 1.377 . S
C917 H901 0.930 1_545 S
C917 C916 1.377 . S
C917 C918 1.379 1_545 S
C918 H902 0.931 . S
C918 C912 1.383 1_565 S
C918 C917 1.379 1_565 S
H919 C913 0.959 . S
H920 C913 0.961 . S
H921 C913 0.960 1_545 S
H922 C914 0.930 . S
H923 C915 0.929 . S
H924 C932 0.929 . S
H925 C934 0.930 . S
H926 C936 0.930 . S
H927 C939 0.929 . S
H928 C942 0.930 . S
H929 C944 0.960 . S
H930 C944 0.960 . S
H931 C944 0.960 . S
C932 H924 0.929 . S
C932 C933 1.377 . S
C932 C934 1.384 . S
C933 C932 1.377 . S
C933 C939 1.390 . S
C934 H925 0.930 . S
C934 C932 1.384 . S
C934 C935 1.372 . S
C935 C934 1.372 . S
C935 C936 1.400 . S
C935 C940 1.490 . S
C936 H926 0.930 . S
C936 C935 1.400 . S
C936 C939 1.386 . S
H937 C953 0.930 . S
H938 C954 0.931 . S
C939 H927 0.929 . S
C939 C933 1.390 . S
C939 C936 1.386 . S
C940 C935 1.490 . S
C940 C942 1.395 . S
C940 C943 1.403 . S
H941 C947 0.930 . S
C942 H928 0.930 . S
C942 C940 1.395 . S
C942 C945 1.403 . S
C943 C940 1.403 . S
C943 C944 1.524 . S
C943 C947 1.400 . S
C944 H929 0.960 . S
C944 H930 0.960 . S
C944 H931 0.960 . S
C944 C943 1.524 . S
C945 C942 1.403 . S
C945 C946 1.392 . S
C945 C949 1.495 . S
C946 C945 1.392 . S
C946 C947 1.385 . S
C946 C948 1.478 . S
C947 H941 0.930 . S
C947 C943 1.400 . S
C947 C946 1.385 . S
C948 C946 1.478 . S
C948 C950 1.381 . S
C948 C954 1.383 . S
C949 C945 1.495 . S
C949 H955 0.959 . S
C949 H956 0.961 . S
C949 H957 0.960 . S
C950 C948 1.381 . S
C950 C951 1.394 . S
C950 H958 0.930 . S
C951 C950 1.394 . S
C951 C952 1.383 . S
C951 H959 0.929 . S
C952 C951 1.383 . S
C952 C953 1.377 . S
C953 H937 0.930 . S
C953 C952 1.377 . S
C953 C954 1.379 . S
C954 H938 0.931 . S
C954 C948 1.383 . S
C954 C953 1.379 . S
H955 C949 0.959 . S
H956 C949 0.961 . S
H957 C949 0.960 . S
H958 C950 0.930 . S
H959 C951 0.929 . S
H960 C968 0.929 . S
H961 C970 0.930 . S
H962 C972 0.930 . S
H963 C975 0.929 . S
H964 C978 0.930 . S
H965 C980 0.960 . S
H966 C980 0.960 . S
H967 C980 0.960 . S
C968 H960 0.929 . S
C968 C969 1.377 . S
C968 C970 1.384 . S
C969 C968 1.377 . S
C969 C975 1.390 1_655 S
C970 H961 0.930 . S
C970 C968 1.384 . S
C970 C971 1.372 . S
C971 C970 1.372 . S
C971 C972 1.400 1_655 S
C971 C976 1.490 . S
C972 H962 0.930 . S
C972 C971 1.400 1_455 S
C972 C975 1.386 . S
H973 C989 0.930 . S
H974 C990 0.931 . S
C975 H963 0.929 . S
C975 C969 1.390 1_455 S
C975 C972 1.386 . S
C976 C971 1.490 . S
C976 C978 1.395 . S
C976 C979 1.403 1_655 S
H977 C983 0.930 . S
C978 H964 0.930 . S
C978 C976 1.395 . S
C978 C981 1.403 . S
C979 C976 1.403 1_455 S
C979 C980 1.524 . S
C979 C983 1.400 . S
C980 H965 0.960 . S
C980 H966 0.960 . S
C980 H967 0.960 . S
C980 C979 1.524 . S
C981 C978 1.403 . S
C981 C982 1.392 . S
C981 C985 1.495 . S
C982 C981 1.392 . S
C982 C983 1.385 1_655 S
C982 C984 1.478 . S
C983 H977 0.930 . S
C983 C979 1.400 . S
C983 C982 1.385 1_455 S
C984 C982 1.478 . S
C984 C986 1.381 . S
C984 C990 1.383 1_655 S
C985 C981 1.495 . S
C985 H991 0.959 . S
C985 H992 0.961 . S
C985 H993 0.960 . S
C986 C984 1.381 . S
C986 C987 1.394 . S
C986 H994 0.930 . S
C987 C986 1.394 . S
C987 C988 1.383 1_655 S
C987 H995 0.929 . S
C988 C987 1.383 1_455 S
C988 C989 1.377 . S
C989 H973 0.930 . S
C989 C988 1.377 . S
C989 C990 1.379 . S
C990 H974 0.931 . S
C990 C984 1.383 1_455 S
C990 C989 1.379 . S
H991 C985 0.959 . S
H992 C985 0.961 . S
H993 C985 0.960 . S
H994 C986 0.930 . S
H995 C987 0.929 . S
H996 C1004 0.929 . S
H997 C1006 0.930 . S
H998 C1008 0.930 . S
H999 C1011 0.929 . S
H1000 C1014 0.930 . S
H1001 C1016 0.960 . S
H1002 C1016 0.960 . S
H1003 C1016 0.960 . S
C1004 H996 0.929 . S
C1004 C1005 1.377 . S
C1004 C1006 1.384 . S
C1005 C1004 1.377 . S
C1005 C1011 1.390 1_545 S
C1006 H997 0.930 . S
C1006 C1004 1.384 . S
C1006 C1007 1.372 . S
C1007 C1006 1.372 . S
C1007 C1008 1.400 1_545 S
C1007 C1012 1.490 . S
C1008 H998 0.930 . S
C1008 C1007 1.400 1_565 S
C1008 C1011 1.386 . S
H1009 C1025 0.930 . S
H1010 C1026 0.931 . S
C1011 H999 0.929 . S
C1011 C1005 1.390 1_565 S
C1011 C1008 1.386 . S
C1012 C1007 1.490 . S
C1012 C1014 1.395 . S
C1012 C1015 1.403 1_545 S
H1013 C1019 0.930 . S
C1014 H1000 0.930 . S
C1014 C1012 1.395 . S
C1014 C1017 1.403 . S
C1015 C1012 1.403 1_565 S
C1015 C1016 1.524 . S
C1015 C1019 1.400 . S
C1016 H1001 0.960 . S
C1016 H1002 0.960 . S
C1016 H1003 0.960 . S
C1016 C1015 1.524 . S
C1017 C1014 1.403 . S
C1017 C1018 1.392 . S
C1017 C1021 1.495 . S
C1018 C1017 1.392 . S
C1018 C1019 1.385 1_545 S
C1018 C1020 1.478 . S
C1019 H1013 0.930 . S
C1019 C1015 1.400 . S
C1019 C1018 1.385 1_565 S
C1020 C1018 1.478 . S
C1020 C1022 1.381 . S
C1020 C1026 1.383 1_545 S
C1021 C1017 1.495 . S
C1021 H1027 0.959 . S
C1021 H1028 0.961 . S
C1021 H1029 0.960 . S
C1022 C1020 1.381 . S
C1022 C1023 1.394 . S
C1022 H1030 0.930 . S
C1023 C1022 1.394 . S
C1023 C1024 1.383 1_545 S
C1023 H1031 0.929 . S
C1024 C1023 1.383 1_565 S
C1024 C1025 1.377 . S
C1025 H1009 0.930 . S
C1025 C1024 1.377 . S
C1025 C1026 1.379 . S
C1026 H1010 0.931 . S
C1026 C1020 1.383 1_565 S
C1026 C1025 1.379 . S
H1027 C1021 0.959 . S
H1028 C1021 0.961 . S
H1029 C1021 0.960 . S
H1030 C1022 0.930 . S
H1031 C1023 0.929 . S
H1032 C1040 0.929 . S
H1033 C1042 0.930 . S
H1034 C1044 0.930 . S
H1035 C1047 0.929 . S
H1036 C1050 0.930 . S
H1037 C1052 0.960 . S
H1038 C1052 0.960 . S
H1039 C1052 0.960 . S
C1040 H1032 0.929 . S
C1040 C1041 1.377 . S
C1040 C1042 1.384 . S
C1041 C1040 1.377 . S
C1041 C1047 1.390 . S
C1042 H1033 0.930 . S
C1042 C1040 1.384 . S
C1042 C1043 1.372 . S
C1043 C1042 1.372 . S
C1043 C1044 1.400 . S
C1043 C1048 1.490 . S
C1044 H1034 0.930 . S
C1044 C1043 1.400 . S
C1044 C1047 1.386 . S
H1045 C1061 0.930 . S
H1046 C1062 0.931 . S
C1047 H1035 0.929 . S
C1047 C1041 1.390 . S
C1047 C1044 1.386 . S
C1048 C1043 1.490 . S
C1048 C1050 1.395 . S
C1048 C1051 1.403 . S
H1049 C1055 0.930 . S
C1050 H1036 0.930 . S
C1050 C1048 1.395 . S
C1050 C1053 1.403 . S
C1051 C1048 1.403 . S
C1051 C1052 1.524 . S
C1051 C1055 1.400 . S
C1052 H1037 0.960 . S
C1052 H1038 0.960 . S
C1052 H1039 0.960 . S
C1052 C1051 1.524 . S
C1053 C1050 1.403 . S
C1053 C1054 1.392 . S
C1053 C1057 1.495 . S
C1054 C1053 1.392 . S
C1054 C1055 1.385 . S
C1054 C1056 1.478 . S
C1055 H1049 0.930 . S
C1055 C1051 1.400 . S
C1055 C1054 1.385 . S
C1056 C1054 1.478 . S
C1056 C1058 1.381 . S
C1056 C1062 1.383 . S
C1057 C1053 1.495 . S
C1057 H1063 0.959 . S
C1057 H1064 0.961 . S
C1057 H1065 0.960 . S
C1058 C1056 1.381 . S
C1058 C1059 1.394 . S
C1058 H1066 0.930 . S
C1059 C1058 1.394 . S
C1059 C1060 1.383 . S
C1059 H1067 0.929 . S
C1060 C1059 1.383 . S
C1060 C1061 1.377 . S
C1061 H1045 0.930 . S
C1061 C1060 1.377 . S
C1061 C1062 1.379 . S
C1062 H1046 0.931 . S
C1062 C1056 1.383 . S
C1062 C1061 1.379 . S
H1063 C1057 0.959 . S
H1064 C1057 0.961 . S
H1065 C1057 0.960 . S
H1066 C1058 0.930 . S
H1067 C1059 0.929 . S
H1068 C1076 0.929 . S
H1069 C1078 0.930 . S
H1070 C1080 0.930 . S
H1071 C1083 0.929 . S
H1072 C1086 0.930 . S
H1073 C1088 0.960 . S
H1074 C1088 0.960 . S
H1075 C1088 0.960 . S
C1076 H1068 0.929 . S
C1076 C1077 1.377 . S
C1076 C1078 1.384 . S
C1077 C1076 1.377 . S
C1077 C1083 1.390 1_455 S
C1078 H1069 0.930 . S
C1078 C1076 1.384 . S
C1078 C1079 1.372 . S
C1079 C1078 1.372 . S
C1079 C1080 1.400 1_455 S
C1079 C1084 1.490 . S
C1080 H1070 0.930 . S
C1080 C1079 1.400 1_655 S
C1080 C1083 1.386 . S
H1081 C1097 0.930 . S
H1082 C1098 0.931 . S
C1083 H1071 0.929 . S
C1083 C1077 1.390 1_655 S
C1083 C1080 1.386 . S
C1084 C1079 1.490 . S
C1084 C1086 1.395 . S
C1084 C1087 1.403 1_455 S
H1085 C1091 0.930 . S
C1086 H1072 0.930 . S
C1086 C1084 1.395 . S
C1086 C1089 1.403 . S
C1087 C1084 1.403 1_655 S
C1087 C1088 1.524 . S
C1087 C1091 1.400 . S
C1088 H1073 0.960 . S
C1088 H1074 0.960 . S
C1088 H1075 0.960 . S
C1088 C1087 1.524 . S
C1089 C1086 1.403 . S
C1089 C1090 1.392 . S
C1089 C1093 1.495 . S
C1090 C1089 1.392 . S
C1090 C1091 1.385 1_455 S
C1090 C1092 1.478 . S
C1091 H1085 0.930 . S
C1091 C1087 1.400 . S
C1091 C1090 1.385 1_655 S
C1092 C1090 1.478 . S
C1092 C1094 1.381 . S
C1092 C1098 1.383 1_455 S
C1093 C1089 1.495 . S
C1093 H1099 0.959 . S
C1093 H1100 0.961 . S
C1093 H1101 0.960 . S
C1094 C1092 1.381 . S
C1094 C1095 1.394 . S
C1094 H1102 0.930 . S
C1095 C1094 1.394 . S
C1095 C1096 1.383 1_455 S
C1095 H1103 0.929 . S
C1096 C1095 1.383 1_655 S
C1096 C1097 1.377 . S
C1097 H1081 0.930 . S
C1097 C1096 1.377 . S
C1097 C1098 1.379 . S
C1098 H1082 0.931 . S
C1098 C1092 1.383 1_655 S
C1098 C1097 1.379 . S
H1099 C1093 0.959 . S
H1100 C1093 0.961 . S
H1101 C1093 0.960 . S
H1102 C1094 0.930 . S
H1103 C1095 0.929 . S
H1104 C1112 0.929 . S
H1105 C1114 0.930 . S
H1106 C1116 0.930 . S
H1107 C1119 0.929 . S
H1108 C1122 0.914 . S
H1109 C1124 0.958 . S
H1110 C1124 0.972 . S
H1111 C1124 0.934 1_565 S
C1112 H1104 0.929 . S
C1112 C1113 1.377 1_545 S
C1112 C1114 1.384 . S
C1113 C1112 1.377 1_565 S
C1113 C1119 1.390 . S
C1114 H1105 0.930 . S
C1114 C1112 1.384 . S
C1114 C1115 1.372 1_545 S
C1115 C1114 1.372 1_565 S
C1115 C1116 1.400 . S
C1115 C1120 1.486 . S
C1116 H1106 0.930 . S
C1116 C1115 1.400 . S
C1116 C1119 1.386 . S
H1117 C1133 0.930 . S
H1118 C1134 0.931 . S
C1119 H1107 0.929 . S
C1119 C1113 1.390 . S
C1119 C1116 1.386 . S
C1120 C1115 1.486 . S
C1120 C1122 1.380 1_565 S
C1120 C1123 1.400 1_565 S
H1121 C1127 0.914 . S
C1122 H1108 0.914 . S
C1122 C1120 1.380 1_545 S
C1122 C1125 1.440 . S
C1123 C1120 1.400 1_545 S
C1123 C1124 1.526 . S
C1123 C1127 1.409 . S
C1124 H1109 0.958 . S
C1124 H1110 0.972 . S
C1124 H1111 0.934 1_545 S
C1124 C1123 1.526 . S
C1125 C1122 1.440 . S
C1125 C1126 1.392 . S
C1125 C1129 1.495 . S
C1126 C1125 1.392 . S
C1126 C1127 1.385 . S
C1126 C1128 1.478 . S
C1127 H1121 0.914 . S
C1127 C1123 1.409 . S
C1127 C1126 1.385 . S
C1128 C1126 1.478 . S
C1128 C1130 1.381 . S
C1128 C1134 1.383 1_545 S
C1129 C1125 1.495 . S
C1129 H1135 0.959 . S
C1129 H1136 0.961 1_545 S
C1129 H1137 0.960 . S
C1130 C1128 1.381 . S
C1130 C1131 1.394 . S
C1130 H1138 0.930 . S
C1131 C1130 1.394 . S
C1131 C1132 1.383 . S
C1131 H1139 0.929 . S
C1132 C1131 1.383 . S
C1132 C1133 1.377 1_545 S
C1133 H1117 0.930 . S
C1133 C1132 1.377 1_565 S
C1133 C1134 1.379 . S
C1134 H1118 0.931 . S
C1134 C1128 1.383 1_565 S
C1134 C1133 1.379 . S
H1135 C1129 0.959 . S
H1136 C1129 0.961 1_565 S
H1137 C1129 0.960 . S
H1138 C1130 0.930 . S
H1139 C1131 0.929 . S
C285 C16 1.526 . S
C304 C223 1.545 . S
C321 C39 1.528 . S
C340 C246 1.542 . S
C357 C62 1.532 . S
C376 C269 1.506 . S
C393 C85 1.526 . S
C412 C154 1.527 . S
C429 C177 1.525 . S
C448 C108 1.545 . S
C465 C200 1.532 . S
C484 C131 1.506 . S
C501 N242 2.292 . S
C520 N12 2.295 . S
C537 N35 2.289 . S
C556 N265 2.280 . S
C573 N58 2.286 . S
C592 N150 2.274 . S
C609 N81 2.286 . S
C628 N173 2.271 . S
C645 N104 2.287 . S
C664 N196 2.272 . S
C681 N127 2.290 . S
C700 N219 2.293 . S
C717 C214 1.563 . S
C736 C7 1.551 1_556 S
C753 C30 1.564 . S
C772 C237 1.551 1_554 S
C789 C53 1.562 . S
C808 C260 1.543 . S
C825 C145 1.560 . S
C844 C76 1.572 1_556 S
C861 C99 1.558 . S
C880 C168 1.570 1_554 S
C897 C191 1.558 . S
C916 C122 1.559 . S
C933 N2 2.180 . S
C952 N71 2.208 . S
C969 N94 2.183 1_655 S
C988 N25 2.154 1_455 S
C1005 N48 2.184 1_545 S
C1024 N117 2.149 1_565 S
C1041 N140 2.186 . S
C1060 N209 2.148 . S
C1077 N163 2.186 1_455 S
C1096 N232 2.148 1_655 S
C1113 N255 2.177 1_565 S
C1132 N186 2.194 1_545 S
