# Generated by pormake.
# Topology fns, (5)-cn, num edge types: 1
# Building blocks:
#     Node 0, Type 0, BuildingBlock: BEQFEK_clean_sbu_0, # of connection points: 5
#     Node 1, Type 0, BuildingBlock: BEQFEK_clean_sbu_0, # of connection points: 5
#     Node 2, Type 0, BuildingBlock: BEQFEK_clean_sbu_0, # of connection points: 5
#     Node 3, Type 0, BuildingBlock: BEQFEK_clean_sbu_0, # of connection points: 5
#     Node 4, Type 0, BuildingBlock: BEQFEK_clean_sbu_0, # of connection points: 5
#     Node 5, Type 0, BuildingBlock: BEQFEK_clean_sbu_0, # of connection points: 5
#     Edge 6, Type (0, 0), BuildingBlock: UVAHIK_clean_linker_0, # of connection points: 2
#     Edge 7, Type (0, 0), BuildingBlock: UVAHIK_clean_linker_0, # of connection points: 2
#     Edge 8, Type (0, 0), BuildingBlock: UVAHIK_clean_linker_0, # of connection points: 2
#     Edge 9, Type (0, 0), BuildingBlock: UVAHIK_clean_linker_0, # of connection points: 2
#     Edge 10, Type (0, 0), BuildingBlock: UVAHIK_clean_linker_0, # of connection points: 2
#     Edge 11, Type (0, 0), BuildingBlock: UVAHIK_clean_linker_0, # of connection points: 2
#     Edge 12, Type (0, 0), BuildingBlock: UVAHIK_clean_linker_0, # of connection points: 2
#     Edge 13, Type (0, 0), BuildingBlock: UVAHIK_clean_linker_0, # of connection points: 2
#     Edge 14, Type (0, 0), BuildingBlock: UVAHIK_clean_linker_0, # of connection points: 2
#     Edge 15, Type (0, 0), BuildingBlock: UVAHIK_clean_linker_0, # of connection points: 2
#     Edge 16, Type (0, 0), BuildingBlock: UVAHIK_clean_linker_0, # of connection points: 2
#     Edge 17, Type (0, 0), BuildingBlock: UVAHIK_clean_linker_0, # of connection points: 2
#     Edge 18, Type (0, 0), BuildingBlock: UVAHIK_clean_linker_0, # of connection points: 2
#     Edge 19, Type (0, 0), BuildingBlock: UVAHIK_clean_linker_0, # of connection points: 2
#     Edge 20, Type (0, 0), BuildingBlock: UVAHIK_clean_linker_0, # of connection points: 2
# Relax obj value: 0.257
# Max RMSD: 0.249
# Mean RMSD: 0.249
data_MOF--net-fns--node1-BEQFEK_clean_sbu_0--edge1-UVAHIK_clean_linker_0
_symmetry_space_group_name_H-M    P1
_symmetry_Int_Tables_number       1
_symmetry_cell_setting            triclinic
loop_
_symmetry_equiv_pos_as_xyz
'x, y, z'
_cell_length_a     69.622909
_cell_length_b     69.570711
_cell_length_c     22.793454
_cell_angle_alpha  90.106439
_cell_angle_beta   89.89549
_cell_angle_gamma 119.98308
loop_
_atom_site_label
_atom_site_type_symbol
_atom_site_fract_x
_atom_site_fract_y
_atom_site_fract_z
_atom_type_partial_charge
Co0 Co 0.17267 0.62981 0.09919 0.0
Co1 Co 0.17148 0.61301 0.22719 0.0
C2 C 0.19785 0.6612 0.19647 0.0
O3 O 0.1921 0.65784 0.1428 0.0
O4 O 0.1911 0.64529 0.23272 0.0
C5 C 0.15763 0.6459 0.00082 0.0
O6 O 0.14502 0.64898 0.03812 0.0
C7 C 0.16537 0.61236 0.3534 0.0
C8 C 0.15846 0.57894 0.37943 0.0
C9 C 0.16055 0.59849 0.40112 0.0
N10 N 0.16626 0.60168 0.3053 0.0
N11 N 0.16225 0.58172 0.32111 0.0
C12 C 0.16725 0.63473 0.35287 0.0
H13 H 0.16139 0.63762 0.31035 0.0
H14 H 0.15746 0.63633 0.3891 0.0
H15 H 0.1849 0.64752 0.35906 0.0
C16 C 0.12407 0.59876 0.1121 0.0
N17 N 0.14459 0.61126 0.13482 0.0
N18 N 0.14423 0.60586 0.19031 0.0
C19 C 0.12329 0.59091 0.20558 0.0
C20 C 0.10987 0.58559 0.15637 0.0
C21 C 0.11917 0.59575 0.04769 0.0
H22 H 0.13435 0.59995 0.02234 0.0
H23 H 0.11261 0.60664 0.03379 0.0
H24 H 0.1064 0.57836 0.03753 0.0
O25 O 0.18736 0.61218 0.09212 0.0
O26 O 0.18663 0.59954 0.18215 0.0
H27 H 0.12167 0.5686 0.27237 0.0
H28 H 0.09817 0.57293 0.27133 0.0
C29 C 0.11641 0.58107 0.26555 0.0
H30 H 0.12443 0.59426 0.2991 0.0
H31 H 0.16176 0.56989 0.292 0.0
O32 O 0.16973 0.6382 0.01848 0.0
C33 C 0.19161 0.60077 0.12784 0.0
Co34 Co 0.54649 0.17352 0.42611 0.0
Co35 Co 0.56004 0.16662 0.55062 0.0
C36 C 0.54165 0.19712 0.52767 0.0
O37 O 0.53855 0.19255 0.47324 0.0
O38 O 0.54993 0.18835 0.56031 0.0
C39 C 0.51915 0.16784 0.32241 0.0
O40 O 0.50161 0.16012 0.3565 0.0
C41 C 0.5477 0.15401 0.67028 0.0
C42 C 0.57564 0.15153 0.70745 0.0
C43 C 0.55543 0.14976 0.72169 0.0
N44 N 0.56264 0.15829 0.62783 0.0
N45 N 0.57933 0.15673 0.65001 0.0
C46 C 0.52573 0.15246 0.6599 0.0
H47 H 0.52063 0.14809 0.61346 0.0
H48 H 0.51286 0.13991 0.68927 0.0
H49 H 0.52717 0.16879 0.66894 0.0
C50 C 0.52347 0.12412 0.42703 0.0
N51 N 0.53396 0.144 0.45435 0.0
N52 N 0.53964 0.14129 0.5074 0.0
C53 C 0.53266 0.11964 0.51593 0.0
C54 C 0.52226 0.10806 0.4653 0.0
C55 C 0.51849 0.12114 0.36268 0.0
H56 H 0.53252 0.13439 0.3377 0.0
H57 H 0.50343 0.12229 0.35408 0.0
H58 H 0.51546 0.10478 0.34678 0.0
O59 O 0.57903 0.18661 0.42371 0.0
O60 O 0.58944 0.18119 0.51133 0.0
H61 H 0.55597 0.11849 0.57482 0.0
H62 H 0.53036 0.09229 0.56725 0.0
C63 C 0.53774 0.11056 0.56949 0.0
H64 H 0.53092 0.11451 0.60864 0.0
H65 H 0.59329 0.15945 0.62621 0.0
O66 O 0.53807 0.17388 0.34439 0.0
C67 C 0.59404 0.18837 0.45883 0.0
Co68 Co 0.37056 0.54616 0.77602 0.0
Co69 Co 0.39342 0.56615 0.89546 0.0
C70 C 0.34409 0.54707 0.87547 0.0
O71 O 0.34438 0.54104 0.82287 0.0
O72 O 0.36178 0.55698 0.90558 0.0
C73 C 0.34931 0.53611 0.66367 0.0
O74 O 0.34079 0.54823 0.68157 0.0
C75 C 0.39777 0.55938 0.01821 0.0
C76 C 0.42594 0.59145 0.04691 0.0
C77 C 0.4101 0.57066 0.06723 0.0
N78 N 0.40599 0.57281 0.97154 0.0
N79 N 0.42298 0.5919 0.98866 0.0
C80 C 0.37755 0.53677 0.01558 0.0
H81 H 0.36583 0.53477 0.0513 0.0
H82 H 0.36918 0.53375 0.97261 0.0
H83 H 0.38247 0.52398 0.02093 0.0
C84 C 0.39416 0.52109 0.7917 0.0
N85 N 0.38706 0.53464 0.81218 0.0
N86 N 0.39707 0.54336 0.86212 0.0
C87 C 0.41088 0.53567 0.87504 0.0
C88 C 0.40936 0.5212 0.83102 0.0
C89 C 0.38837 0.5102 0.73273 0.0
H90 H 0.37011 0.50126 0.72693 0.0
H91 H 0.39455 0.49836 0.72741 0.0
H92 H 0.39586 0.52315 0.69829 0.0
O93 O 0.39017 0.57845 0.7615 0.0
O94 O 0.40761 0.59292 0.84557 0.0
H95 H 0.43547 0.56296 0.92536 0.0
H96 H 0.44085 0.54023 0.91694 0.0
C97 C 0.42772 0.54465 0.92328 0.0
H98 H 0.41936 0.53766 0.96573 0.0
H99 H 0.43208 0.60541 0.96097 0.0
O100 O 0.36131 0.53247 0.69848 0.0
C101 C 0.40409 0.59502 0.79174 0.0
Co102 Co 0.82215 0.36669 0.09724 0.0
Co103 Co 0.82637 0.39078 0.21596 0.0
C104 C 0.79678 0.34119 0.20068 0.0
O105 O 0.80186 0.34105 0.14706 0.0
O106 O 0.80497 0.35914 0.22993 0.0
C107 C 0.80783 0.34785 0.98671 0.0
O108 O 0.78894 0.3445 0.00877 0.0
C109 C 0.83764 0.3967 0.33885 0.0
C110 C 0.82966 0.42239 0.36603 0.0
C111 C 0.83611 0.40782 0.38739 0.0
N112 N 0.83243 0.40433 0.29101 0.0
N113 N 0.82807 0.42 0.30726 0.0
C114 C 0.84107 0.37709 0.33865 0.0
H115 H 0.84001 0.37067 0.29353 0.0
H116 H 0.85766 0.38199 0.35677 0.0
H117 H 0.82849 0.36384 0.36715 0.0
C118 C 0.87104 0.39078 0.10916 0.0
N119 N 0.85062 0.3839 0.13087 0.0
N120 N 0.85242 0.39424 0.18069 0.0
C121 C 0.87402 0.40793 0.19252 0.0
C122 C 0.88651 0.40607 0.14778 0.0
C123 C 0.87549 0.38442 0.05012 0.0
H124 H 0.86634 0.36608 0.04586 0.0
H125 H 0.89347 0.39083 0.0432 0.0
H126 H 0.86927 0.39119 0.0157 0.0
O127 O 0.80926 0.386 0.0826 0.0
O128 O 0.81283 0.40405 0.16587 0.0
H129 H 0.872 0.43262 0.2444 0.0
H130 H 0.89992 0.43767 0.23433 0.0
C131 C 0.88236 0.42467 0.24113 0.0
H132 H 0.88109 0.41613 0.28319 0.0
H133 H 0.82268 0.42806 0.27877 0.0
O134 O 0.82488 0.35621 0.01926 0.0
C135 C 0.80678 0.40011 0.11242 0.0
Co136 Co 0.45057 0.81977 0.41146 0.0
Co137 Co 0.43628 0.82761 0.5347 0.0
C138 C 0.45347 0.79588 0.51491 0.0
O139 O 0.45694 0.80001 0.46033 0.0
O140 O 0.44543 0.80523 0.54652 0.0
C141 C 0.47747 0.82402 0.30536 0.0
O142 O 0.49564 0.83171 0.33681 0.0
C143 C 0.44604 0.84159 0.65647 0.0
C144 C 0.41495 0.83962 0.68663 0.0
C145 C 0.43563 0.84388 0.70573 0.0
N146 N 0.43219 0.83626 0.61063 0.0
N147 N 0.41374 0.8354 0.62869 0.0
C148 C 0.46809 0.84275 0.65347 0.0
H149 H 0.47072 0.83728 0.61006 0.0
H150 H 0.48147 0.86015 0.66001 0.0
H151 H 0.46938 0.83245 0.6887 0.0
C152 C 0.47504 0.86923 0.41273 0.0
N153 N 0.46378 0.84941 0.43998 0.0
N154 N 0.4578 0.85248 0.49242 0.0
C155 C 0.46529 0.87425 0.50046 0.0
C156 C 0.47657 0.88558 0.45049 0.0
C157 C 0.48077 0.87209 0.34882 0.0
H158 H 0.46647 0.85964 0.32286 0.0
H159 H 0.49502 0.86947 0.34136 0.0
H160 H 0.48544 0.88899 0.3333 0.0
O161 O 0.41825 0.80777 0.40638 0.0
O162 O 0.40752 0.81404 0.49249 0.0
H163 H 0.4404 0.87457 0.55514 0.0
H164 H 0.4648 0.90158 0.5453 0.0
C165 C 0.45872 0.8836 0.55085 0.0
H166 H 0.4658 0.88124 0.5919 0.0
H167 H 0.40001 0.83107 0.60199 0.0
O168 O 0.45913 0.81888 0.32985 0.0
C169 C 0.40318 0.80678 0.44004 0.0
Co170 Co 0.62782 0.45124 0.75343 0.0
Co171 Co 0.61099 0.43473 0.8806 0.0
C172 C 0.65896 0.45536 0.84902 0.0
O173 O 0.6557 0.45844 0.79583 0.0
O174 O 0.64307 0.44632 0.88539 0.0
C175 C 0.64509 0.48314 0.65606 0.0
O176 O 0.64845 0.49904 0.69294 0.0
C177 C 0.61093 0.43922 0.0069 0.0
C178 C 0.57762 0.41266 0.03352 0.0
C179 C 0.59739 0.42981 0.05508 0.0
N180 N 0.59988 0.42815 0.95874 0.0
N181 N 0.57997 0.41219 0.97482 0.0
C182 C 0.63337 0.45962 0.00608 0.0
H183 H 0.64612 0.4546 0.01038 0.0
H184 H 0.63602 0.46869 0.96415 0.0
H185 H 0.6353 0.47078 0.04323 0.0
C186 C 0.5982 0.47041 0.77035 0.0
N187 N 0.61011 0.46141 0.79117 0.0
N188 N 0.60468 0.45584 0.84643 0.0
C189 C 0.59031 0.46237 0.8635 0.0
C190 C 0.58538 0.47144 0.81569 0.0
C191 C 0.59544 0.47344 0.70649 0.0
H192 H 0.59927 0.46255 0.67937 0.0
H193 H 0.60675 0.49101 0.69436 0.0
H194 H 0.57823 0.46952 0.69687 0.0
O195 O 0.60929 0.41902 0.74412 0.0
O196 O 0.59667 0.40657 0.83384 0.0
H197 H 0.56792 0.44134 0.9298 0.0
H198 H 0.57289 0.46943 0.93131 0.0
C199 C 0.58063 0.45904 0.92385 0.0
H200 H 0.59385 0.4636 0.95693 0.0
H201 H 0.56793 0.40116 0.94573 0.0
O202 O 0.63662 0.46323 0.67357 0.0
C203 C 0.59762 0.40317 0.77915 0.0
C204 C 0.21567 0.58358 0.13998 0.0
C205 C 0.20237 0.58867 0.10445 0.0
C206 C 0.22739 0.57401 0.11534 0.0
C207 C 0.24933 0.56936 0.97135 0.0
H208 H 0.26335 0.5293 0.05407 0.0
C209 C 0.30528 0.54027 0.86621 0.0
C210 C 0.3233 0.544 0.90168 0.0
C211 C 0.28707 0.54075 0.89059 0.0
C212 C 0.25948 0.54043 0.03044 0.0
H213 H 0.18955 0.58625 0.01642 0.0
H214 H 0.20922 0.56898 0.97415 0.0
H215 H 0.23779 0.5397 0.09832 0.0
H216 H 0.33562 0.54942 0.99114 0.0
H217 H 0.30395 0.55027 0.03338 0.0
H218 H 0.27119 0.57039 0.90399 0.0
C219 C 0.21141 0.5731 0.0204 0.0
C220 C 0.24496 0.54649 0.05587 0.0
C221 C 0.20004 0.58294 0.04472 0.0
C222 C 0.32209 0.54673 0.96249 0.0
C223 C 0.30385 0.54702 0.98686 0.0
C224 C 0.26365 0.56319 0.94584 0.0
C225 C 0.22574 0.5691 0.05492 0.0
C226 C 0.23994 0.56127 0.02692 0.0
C227 C 0.28647 0.54474 0.95092 0.0
C228 C 0.26915 0.54892 0.97541 0.0
H229 H 0.21774 0.5878 0.18619 0.0
H230 H 0.2384 0.5713 0.14319 0.0
H231 H 0.24628 0.58116 0.94823 0.0
H232 H 0.30569 0.53804 0.81927 0.0
H233 H 0.27376 0.53869 0.86198 0.0
C234 C 0.63514 0.20778 0.47668 0.0
C235 C 0.61718 0.19918 0.43744 0.0
C236 C 0.65693 0.21953 0.45561 0.0
C237 C 0.69153 0.23084 0.32263 0.0
H238 H 0.72653 0.28973 0.38882 0.0
C239 C 0.763 0.30337 0.19744 0.0
C240 C 0.78017 0.32054 0.22967 0.0
C241 C 0.74541 0.28553 0.22645 0.0
C242 C 0.71732 0.27318 0.37051 0.0
H243 H 0.60801 0.19511 0.34535 0.0
H244 H 0.64588 0.21542 0.30891 0.0
H245 H 0.69157 0.26351 0.43438 0.0
H246 H 0.79349 0.33165 0.31695 0.0
H247 H 0.76342 0.3002 0.36732 0.0
H248 H 0.71713 0.24062 0.25812 0.0
C249 C 0.64318 0.21315 0.35582 0.0
C250 C 0.69722 0.25816 0.39672 0.0
C251 C 0.62147 0.2017 0.3768 0.0
C252 C 0.78027 0.3188 0.29103 0.0
C253 C 0.76294 0.30083 0.31991 0.0
C254 C 0.7118 0.24582 0.29668 0.0
C255 C 0.66112 0.22255 0.39497 0.0
C256 C 0.68386 0.23704 0.37224 0.0
C257 C 0.74486 0.28438 0.2882 0.0
C258 C 0.7247 0.26738 0.31948 0.0
H259 H 0.63235 0.20605 0.52362 0.0
H260 H 0.6705 0.22654 0.48671 0.0
H261 H 0.68163 0.21456 0.30321 0.0
H262 H 0.7625 0.30434 0.15008 0.0
H263 H 0.73172 0.2733 0.20049 0.0
C264 C 0.45475 0.7606 0.50941 0.0
C265 C 0.45716 0.77877 0.54217 0.0
C266 C 0.45445 0.74259 0.53754 0.0
C267 C 0.44192 0.71634 0.68411 0.0
H268 H 0.459 0.67671 0.61119 0.0
C269 C 0.42721 0.63647 0.79846 0.0
C270 C 0.41572 0.61722 0.76405 0.0
C271 C 0.43655 0.65746 0.77266 0.0
C272 C 0.45421 0.68769 0.63205 0.0
H273 H 0.46311 0.79334 0.62907 0.0
H274 H 0.46362 0.76251 0.67774 0.0
H275 H 0.46868 0.71192 0.56377 0.0
H276 H 0.406 0.60493 0.67515 0.0
H277 H 0.42238 0.64156 0.63031 0.0
H278 H 0.42734 0.69208 0.75206 0.0
C279 C 0.461 0.7616 0.63076 0.0
C280 C 0.45966 0.7078 0.60484 0.0
C281 C 0.46088 0.77937 0.60284 0.0
C282 C 0.41461 0.61942 0.703 0.0
C283 C 0.42415 0.6404 0.67718 0.0
C284 C 0.43673 0.69641 0.71152 0.0
C285 C 0.45691 0.74259 0.59888 0.0
C286 C 0.45325 0.72223 0.63007 0.0
C287 C 0.43481 0.65962 0.7119 0.0
C288 C 0.44248 0.68171 0.68535 0.0
H289 H 0.45177 0.75968 0.46258 0.0
H290 H 0.45109 0.72821 0.51151 0.0
H291 H 0.43622 0.72669 0.70435 0.0
H292 H 0.42843 0.63537 0.84557 0.0
H293 H 0.44484 0.67203 0.80037 0.0
C294 C 0.68821 0.46854 0.92549 0.0
C295 C 0.68106 0.46024 0.86875 0.0
C296 C 0.70652 0.46848 0.94999 0.0
C297 C 0.75277 0.45726 0.91933 0.0
H298 H 0.73957 0.43363 0.07752 0.0
C299 C 0.79106 0.40871 0.02411 0.0
C300 C 0.79647 0.41189 0.08413 0.0
C301 C 0.78053 0.41905 -0.00235 0.0
C302 C 0.74377 0.44061 0.0338 0.0
H303 H 0.68821 0.44689 0.79128 0.0
H304 H 0.71993 0.44616 0.83443 0.0
H305 H 0.71549 0.44481 0.03048 0.0
H306 H 0.79562 0.42901 0.16294 0.0
H307 H 0.77712 0.44699 0.11661 0.0
H308 H 0.78062 0.45205 0.92231 0.0
C309 C 0.7117 0.45308 0.85992 0.0
C310 C 0.72997 0.44711 0.00673 0.0
C311 C 0.69352 0.45347 0.83509 0.0
C312 C 0.79158 0.42609 0.11672 0.0
C313 C 0.78094 0.43636 0.09025 0.0
C314 C 0.76654 0.45062 0.9464 0.0
C315 C 0.71783 0.45974 0.91855 0.0
C316 C 0.73409 0.45523 0.94885 0.0
C317 C 0.77508 0.43274 0.03058 0.0
C318 C 0.76197 0.44191 0.00362 0.0
H319 H 0.67912 0.47429 0.95176 0.0
H320 H 0.71121 0.47438 0.99456 0.0
H321 H 0.7566 0.46369 0.87502 0.0
H322 H 0.79465 0.39795 -0.00243 0.0
H323 H 0.77599 0.41571 0.95179 0.0
C324 C 0.36243 0.79268 0.45387 0.0
C325 C 0.38035 0.79715 0.41682 0.0
C326 C 0.34084 0.78278 0.43147 0.0
C327 C 0.30873 0.77013 0.29294 0.0
H328 H 0.26512 0.71807 0.37686 0.0
C329 C 0.2333 0.69684 0.18267 0.0
C330 C 0.21451 0.6835 0.21688 0.0
C331 C 0.25158 0.71531 0.20756 0.0
C332 C 0.27683 0.73286 0.35334 0.0
H333 H 0.38972 0.79545 0.3268 0.0
H334 H 0.35226 0.77814 0.28824 0.0
H335 H 0.30106 0.74195 0.42108 0.0
H336 H 0.19885 0.68034 0.30114 0.0
H337 H 0.2304 0.71285 0.34426 0.0
H338 H 0.28465 0.76062 0.22435 0.0
C339 C 0.35483 0.7824 0.3344 0.0
C340 C 0.29751 0.74654 0.37879 0.0
C341 C 0.37631 0.79212 0.35674 0.0
C342 C 0.2134 0.69008 0.27441 0.0
C343 C 0.2315 0.70866 0.29906 0.0
C344 C 0.28796 0.75648 0.26752 0.0
C345 C 0.33682 0.77737 0.37156 0.0
C346 C 0.31389 0.76497 0.34823 0.0
C347 C 0.2512 0.72086 0.26687 0.0
C348 C 0.27196 0.73735 0.29679 0.0
H349 H 0.36499 0.79645 0.50029 0.0
H350 H 0.32727 0.77919 0.4611 0.0
H351 H 0.32095 0.78443 0.26871 0.0
H352 H 0.23457 0.69204 0.13821 0.0
H353 H 0.26649 0.72424 0.18147 0.0
C354 C 0.53442 0.22886 0.51652 0.0
C355 C 0.5378 0.21454 0.55296 0.0
C356 C 0.53467 0.24757 0.54003 0.0
C357 C 0.53375 0.2753 0.67867 0.0
H358 H 0.57605 0.32883 0.5974 0.0
C359 C 0.57892 0.36174 0.78978 0.0
C360 C 0.58498 0.3805 0.75475 0.0
C361 C 0.56873 0.34054 0.76453 0.0
C362 C 0.56381 0.31412 0.62021 0.0
H363 H 0.54245 0.2078 0.64324 0.0
H364 H 0.54277 0.24022 0.6839 0.0
H365 H 0.56457 0.29297 0.55333 0.0
H366 H 0.58371 0.3917 0.66681 0.0
H367 H 0.56538 0.3549 0.6234 0.0
H368 H 0.53334 0.29657 0.74616 0.0
C369 C 0.53992 0.23704 0.63728 0.0
C370 C 0.55722 0.29351 0.59479 0.0
C371 C 0.53985 0.21848 0.61381 0.0
C372 C 0.57963 0.37758 0.69478 0.0
C373 C 0.56919 0.35647 0.66981 0.0
C374 C 0.54022 0.296 0.704 0.0
C375 C 0.5381 0.25219 0.60043 0.0
C376 C 0.54244 0.27386 0.62415 0.0
C377 C 0.56415 0.33772 0.70394 0.0
C378 C 0.55564 0.31566 0.67549 0.0
H379 H 0.53271 0.22626 0.46951 0.0
H380 H 0.53298 0.25886 0.51068 0.0
H381 H 0.52221 0.26041 0.70212 0.0
H382 H 0.58283 0.36351 0.83615 0.0
H383 H 0.56527 0.32651 0.7921 0.0
C384 C 0.17376 0.65507 0.90086 0.0
C385 C 0.15508 0.64724 0.9373 0.0
C386 C 0.17126 0.65247 0.84021 0.0
C387 C 0.13674 0.61257 0.73731 0.0
H388 H 0.16744 0.65784 0.61916 0.0
C389 C 0.13846 0.59002 0.49341 0.0
C390 C 0.15801 0.60358 0.46229 0.0
C391 C 0.13543 0.59613 0.5497 0.0
C392 C 0.15896 0.64494 0.6516 0.0
H393 H 0.11924 0.63124 0.93958 0.0
H394 H 0.11481 0.62585 0.83282 0.0
H395 H 0.16687 0.66871 0.7207 0.0
H396 H 0.19011 0.63345 0.4654 0.0
H397 H 0.18553 0.64357 0.5645 0.0
H398 H 0.1302 0.58871 0.66997 0.0
C399 C 0.13133 0.63446 0.85138 0.0
C400 C 0.15842 0.65123 0.70948 0.0
C401 C 0.13388 0.63764 0.91213 0.0
C402 C 0.17479 0.6229 0.48862 0.0
C403 C 0.17199 0.62879 0.54513 0.0
C404 C 0.13768 0.60623 0.67968 0.0
C405 C 0.15001 0.64146 0.81526 0.0
C406 C 0.14761 0.63509 0.75286 0.0
C407 C 0.15213 0.6157 0.57619 0.0
C408 C 0.14923 0.62234 0.63626 0.0
H409 H 0.19024 0.66241 0.91953 0.0
H410 H 0.18586 0.65781 0.81311 0.0
H411 H 0.12857 0.59986 0.77043 0.0
H412 H 0.12525 0.57512 0.47344 0.0
H413 H 0.11983 0.58573 0.57183 0.0
C414 C 0.54738 0.13159 0.82 0.0
C415 C 0.54561 0.14615 0.78083 0.0
C416 C 0.53946 0.12939 0.87739 0.0
C417 C 0.50562 0.14343 0.97639 0.0
H418 H 0.54868 0.14927 0.09299 0.0
C419 C 0.53596 0.17855 0.22358 0.0
C420 C 0.51705 0.16591 0.25814 0.0
C421 C 0.53588 0.17393 0.16424 0.0
C422 C 0.53646 0.14756 0.06089 0.0
H423 H 0.53475 0.17028 0.77138 0.0
H424 H 0.52094 0.16643 0.87087 0.0
H425 H 0.55431 0.1432 0.99094 0.0
H426 H 0.48268 0.13958 0.25707 0.0
H427 H 0.48251 0.13152 0.15203 0.0
H428 H 0.48832 0.14878 0.04691 0.0
C429 C 0.5277 0.15611 0.85695 0.0
C430 C 0.53953 0.14379 0.00256 0.0
C431 C 0.53559 0.15828 0.79975 0.0
C432 C 0.49746 0.1496 0.23129 0.0
C433 C 0.49739 0.14494 0.17143 0.0
C434 C 0.5025 0.14713 0.03509 0.0
C435 C 0.52986 0.14192 0.89669 0.0
C436 C 0.52447 0.14227 0.95941 0.0
C437 C 0.51689 0.15654 0.13813 0.0
C438 C 0.5183 0.14992 0.0774 0.0
H439 H 0.5551 0.1221 0.80642 0.0
H440 H 0.54127 0.11825 0.90703 0.0
H441 H 0.49363 0.14208 0.94405 0.0
H442 H 0.5512 0.19143 0.243 0.0
H443 H 0.55095 0.1835 0.1391 0.0
C444 C 0.36173 0.52125 0.58143 0.0
C445 C 0.34927 0.53091 0.60083 0.0
C446 C 0.36613 0.52088 0.52196 0.0
C447 C 0.35177 0.52586 0.37222 0.0
H448 H 0.41527 0.56234 0.34701 0.0
C449 C 0.39584 0.54156 0.14626 0.0
C450 C 0.40535 0.56393 0.12948 0.0
C451 C 0.38872 0.53514 0.20383 0.0
C452 C 0.39756 0.55198 0.35363 0.0
H453 H 0.32966 0.54554 0.57262 0.0
H454 H 0.33708 0.54445 0.46801 0.0
H455 H 0.40067 0.55291 0.4471 0.0
H456 H 0.41677 0.59736 0.16121 0.0
H457 H 0.40519 0.58612 0.26266 0.0
H458 H 0.34877 0.52498 0.27841 0.0
C459 C 0.34364 0.53751 0.49931 0.0
C460 C 0.38923 0.54652 0.41052 0.0
C461 C 0.33946 0.53817 0.55908 0.0
C462 C 0.40929 0.57996 0.17257 0.0
C463 C 0.40261 0.57358 0.23045 0.0
C464 C 0.36017 0.53092 0.31512 0.0
C465 C 0.3578 0.52975 0.48077 0.0
C466 C 0.36628 0.53367 0.42022 0.0
C467 C 0.39175 0.55108 0.24593 0.0
C468 C 0.38307 0.54429 0.30568 0.0
H469 H 0.36926 0.51519 0.61232 0.0
H470 H 0.37691 0.51463 0.50833 0.0
H471 H 0.33402 0.51599 0.37896 0.0
H472 H 0.39375 0.52893 0.11523 0.0
H473 H 0.3808 0.51774 0.21551 0.0
C474 C 0.83072 0.35099 0.8986 0.0
C475 C 0.81026 0.34636 0.92276 0.0
C476 C 0.83421 0.3536 0.83807 0.0
C477 C 0.80558 0.34736 0.69498 0.0
H478 H 0.86115 0.39962 0.65273 0.0
C479 C 0.81682 0.39641 0.48351 0.0
C480 C 0.83544 0.40135 0.4491 0.0
C481 C 0.81474 0.38774 0.53979 0.0
C482 C 0.84569 0.38484 0.66381 0.0
H483 H 0.77695 0.33935 0.90218 0.0
H484 H 0.78315 0.34442 0.79727 0.0
H485 H 0.85524 0.38595 0.75327 0.0
H486 H 0.86705 0.40241 0.447 0.0
H487 H 0.86359 0.38754 0.54638 0.0
H488 H 0.79572 0.34705 0.60587 0.0
C489 C 0.79647 0.34574 0.82459 0.0
C490 C 0.84232 0.37688 0.72129 0.0
C491 C 0.79292 0.34294 0.88498 0.0
C492 C 0.8524 0.39839 0.4726 0.0
C493 C 0.85047 0.39001 0.52932 0.0
C494 C 0.80887 0.35549 0.63774 0.0
C495 C 0.81736 0.3518 0.80058 0.0
C496 C 0.82203 0.3583 0.73787 0.0
C497 C 0.83141 0.38422 0.5629 0.0
C498 C 0.82877 0.37455 0.62202 0.0
H499 H 0.84434 0.35351 0.9266 0.0
H500 H 0.85034 0.35777 0.82087 0.0
H501 H 0.78995 0.33276 0.7059 0.0
H502 H 0.8035 0.39849 0.46612 0.0
H503 H 0.80004 0.38372 0.56524 0.0
C504 C 0.45859 0.81143 0.20955 0.0
C505 C 0.4782 0.82481 0.24081 0.0
C506 C 0.45717 0.81516 0.15026 0.0
C507 C 0.48645 0.84058 0.01498 0.0
H508 H 0.43458 0.84618 0.9852 0.0
C509 C 0.46486 0.85963 0.7843 0.0
C510 C 0.44265 0.84584 0.76759 0.0
C511 C 0.47142 0.85979 0.84234 0.0
C512 C 0.44907 0.84458 0.99269 0.0
H513 H 0.51229 0.85147 0.23377 0.0
H514 H 0.5098 0.85795 0.12875 0.0
H515 H 0.44274 0.83993 0.08476 0.0
H516 H 0.40975 0.82211 0.79874 0.0
H517 H 0.42109 0.82233 0.89962 0.0
H518 H 0.49235 0.84457 0.92225 0.0
C519 C 0.49556 0.84464 0.15071 0.0
C520 C 0.45376 0.84102 0.04963 0.0
C521 C 0.49701 0.84087 0.21054 0.0
C522 C 0.42698 0.83294 0.81036 0.0
C523 C 0.43349 0.83311 0.86819 0.0
C524 C 0.48167 0.84402 0.9576 0.0
C525 C 0.47532 0.83237 0.12091 0.0
C526 C 0.47213 0.83841 0.0611 0.0
C527 C 0.45582 0.84634 0.88472 0.0
C528 C 0.4626 0.84548 0.9458 0.0
H529 H 0.44392 0.79873 0.23164 0.0
H530 H 0.44153 0.80515 0.12784 0.0
H531 H 0.50074 0.83867 0.02293 0.0
H532 H 0.47717 0.87039 0.75283 0.0
H533 H 0.48866 0.87046 0.85408 0.0
C534 C 0.623 0.43954 0.13975 0.0
C535 C 0.60303 0.43656 0.11667 0.0
C536 C 0.62916 0.44709 0.19705 0.0
C537 C 0.62293 0.47936 0.31269 0.0
H538 H 0.63892 0.44554 0.41644 0.0
C539 C 0.63362 0.49334 0.56377 0.0
C540 C 0.64732 0.48702 0.59275 0.0
C541 C 0.63085 0.49074 0.50296 0.0
C542 C 0.63506 0.45556 0.38787 0.0
H543 H 0.57367 0.43879 0.13462 0.0
H544 H 0.58466 0.45241 0.23559 0.0
H545 H 0.62787 0.43303 0.31633 0.0
H546 H 0.67035 0.47499 0.58196 0.0
H547 H 0.66689 0.47196 0.47551 0.0
H548 H 0.63051 0.50217 0.38388 0.0
C549 C 0.59548 0.4489 0.20908 0.0
C550 C 0.62849 0.4482 0.33064 0.0
C551 C 0.58912 0.44096 0.15186 0.0
C552 C 0.65972 0.47998 0.56011 0.0
C553 C 0.65743 0.47793 0.49935 0.0
C554 C 0.62986 0.48697 0.3699 0.0
C555 C 0.61556 0.45202 0.23201 0.0
C556 C 0.62229 0.45996 0.29267 0.0
C557 C 0.64204 0.4821 0.47038 0.0
C558 C 0.63597 0.47511 0.40827 0.0
H559 H 0.63385 0.43603 0.11342 0.0
H560 H 0.64472 0.44938 0.21383 0.0
H561 H 0.61839 0.4888 0.28381 0.0
H562 H 0.62367 0.4985 0.58851 0.0
H563 H 0.61879 0.49403 0.48238 0.0
C564 C 0.92595 0.42064 0.17433 0.0
C565 C 0.91024 0.42121 0.13737 0.0
C566 C 0.94821 0.43708 0.17032 0.0
C567 C 0.98885 0.48499 0.07942 0.0
H568 H 0.01916 0.50487 0.22875 0.0
C569 C 0.07095 0.56846 0.11865 0.0
C570 C 0.08728 0.56638 0.14931 0.0
C571 C 0.04958 0.55019 0.11263 0.0
C572 C 0.01091 0.49939 0.18673 0.0
H573 H 0.90494 0.43876 0.06683 0.0
H574 H 0.94372 0.46806 0.06087 0.0
H575 H 0.98159 0.47348 0.22602 0.0
H576 H 0.0946 0.54335 0.1943 0.0
H577 H 0.05713 0.51177 0.18603 0.0
H578 H 0.01821 0.51175 0.0409 0.0
C579 C 0.93921 0.45467 0.09175 0.0
C580 C 0.98944 0.48127 0.18497 0.0
C581 C 0.91701 0.43797 0.09514 0.0
C582 C 0.08211 0.54564 0.17238 0.0
C583 C 0.06076 0.52753 0.1672 0.0
C584 C 0.01026 0.5034 0.08137 0.0
C585 C 0.95503 0.4547 0.13023 0.0
C586 C 0.97815 0.47372 0.13129 0.0
C587 C 0.04428 0.52968 0.13771 0.0
C588 C 0.02147 0.51063 0.13505 0.0
H589 H 0.92089 0.4078 0.20731 0.0
H590 H 0.95998 0.43623 0.19966 0.0
H591 H 0.98079 0.47951 0.03722 0.0
H592 H 0.07463 0.58427 0.10011 0.0
H593 H 0.03707 0.55219 0.08976 0.0
C594 C 0.53346 0.07944 0.45437 0.0
C595 C 0.51699 0.08534 0.45009 0.0
C596 C 0.52851 0.0578 0.44225 0.0
C597 C 0.48173 0.00092 0.44073 0.0
H598 H 0.52438 0.98805 0.36723 0.0
C599 C 0.46424 0.91145 0.41607 0.0
C600 C 0.4815 0.90801 0.43432 0.0
C601 C 0.46814 0.93294 0.40706 0.0
C602 C 0.51234 0.99141 0.38794 0.0
H603 H 0.48283 0.07393 0.4273 0.0
H604 H 0.47399 0.0358 0.40563 0.0
H605 H 0.5317 0.02623 0.37049 0.0
H606 H 0.51629 0.92367 0.45611 0.0
H607 H 0.52329 0.96152 0.44069 0.0
H608 H 0.46261 0.96624 0.45942 0.0
C609 C 0.49065 0.04781 0.41931 0.0
C610 C 0.51652 0.01324 0.38981 0.0
C611 C 0.49566 0.06955 0.43145 0.0
C612 C 0.50287 0.92614 0.4416 0.0
C613 C 0.50682 0.94769 0.43255 0.0
C614 C 0.47754 0.97911 0.43876 0.0
C615 C 0.50698 0.04166 0.42526 0.0
C616 C 0.50145 0.01828 0.41724 0.0
C617 C 0.48938 0.95132 0.41633 0.0
C618 C 0.49298 0.97417 0.41326 0.0
H619 H 0.55014 0.09154 0.46783 0.0
H620 H 0.5414 0.05357 0.44791 0.0
H621 H 0.46995 0.00428 0.46292 0.0
H622 H 0.44762 0.89752 0.4104 0.0
H623 H 0.45446 0.93519 0.3939 0.0
C624 C 0.42478 0.49695 0.85726 0.0
C625 C 0.425 0.51319 0.82073 0.0
C626 C 0.44114 0.49106 0.85156 0.0
C627 C 0.48736 0.49746 0.75456 0.0
H628 H 0.5083 0.4852 0.89951 0.0
C629 C 0.56945 0.49492 0.78252 0.0
C630 C 0.5667 0.47576 0.81062 0.0
C631 C 0.55175 0.49904 0.7793 0.0
C632 C 0.50253 0.48852 0.85871 0.0
H633 H 0.44198 0.53605 0.74967 0.0
H634 H 0.47116 0.52649 0.74083 0.0
H635 H 0.47784 0.49284 0.90228 0.0
H636 H 0.54302 0.44515 0.85358 0.0
H637 H 0.51251 0.45284 0.85029 0.0
H638 H 0.5129 0.49389 0.71171 0.0
C639 C 0.45808 0.51767 0.77263 0.0
C640 C 0.48494 0.4927 0.8601 0.0
C641 C 0.44147 0.52324 0.77772 0.0
C642 C 0.54584 0.46047 0.83366 0.0
C643 C 0.52834 0.46474 0.83134 0.0
C644 C 0.50526 0.49364 0.75337 0.0
C645 C 0.45833 0.50173 0.81011 0.0
C646 C 0.47697 0.49706 0.80802 0.0
C647 C 0.5312 0.48414 0.80468 0.0
C648 C 0.51284 0.48898 0.80543 0.0
H649 H 0.41215 0.4891 0.89077 0.0
H650 H 0.44045 0.47835 0.88025 0.0
H651 H 0.48152 0.50046 0.71349 0.0
H652 H 0.58535 0.50684 0.76403 0.0
H653 H 0.55427 0.51412 0.75852 0.0
loop_
_geom_bond_atom_site_label_1
_geom_bond_atom_site_label_2
_geom_bond_distance
_geom_bond_site_symmetry_2
_ccdc_geom_bond_type
Co0 O3 1.970 . S
Co0 N17 1.989 . S
Co0 O25 1.967 . S
Co0 O32 1.929 . S
Co1 O4 1.966 . S
Co1 N10 2.022 . S
Co1 N18 1.993 . S
Co1 O26 1.941 . S
C2 O3 1.258 . S
C2 O4 1.263 . S
O3 Co0 1.970 . S
O3 C2 1.258 . S
O4 Co1 1.966 . S
O4 C2 1.263 . S
C5 O6 1.235 1_556 S
C5 O32 1.285 1_556 S
O6 C5 1.235 1_554 S
C7 C9 1.400 . S
C7 N10 1.351 . S
C7 C12 1.501 . S
C8 C9 1.387 . S
C8 N11 1.341 . S
C9 C7 1.400 . S
C9 C8 1.387 . S
N10 Co1 2.022 . S
N10 C7 1.351 . S
N10 N11 1.365 . S
N11 C8 1.341 . S
N11 N10 1.365 . S
N11 H31 0.862 . S
C12 C7 1.501 . S
C12 H13 0.961 . S
C12 H14 0.961 . S
C12 H15 0.960 . S
H13 C12 0.961 . S
H14 C12 0.961 . S
H15 C12 0.960 . S
C16 N17 1.342 . S
C16 C20 1.401 . S
C16 C21 1.499 . S
N17 Co0 1.989 . S
N17 C16 1.342 . S
N17 N18 1.388 . S
N18 Co1 1.993 . S
N18 N17 1.388 . S
N18 C19 1.346 . S
C19 N18 1.346 . S
C19 C20 1.396 . S
C19 C29 1.510 . S
C20 C16 1.401 . S
C20 C19 1.396 . S
C21 C16 1.499 . S
C21 H22 0.959 . S
C21 H23 0.960 . S
C21 H24 0.961 . S
H22 C21 0.959 . S
H23 C21 0.960 . S
H24 C21 0.961 . S
O25 Co0 1.967 . S
O25 C33 1.258 . S
O26 Co1 1.941 . S
O26 C33 1.266 . S
H27 C29 0.959 . S
H28 C29 0.961 . S
C29 C19 1.510 . S
C29 H27 0.959 . S
C29 H28 0.961 . S
C29 H30 0.960 . S
H30 C29 0.960 . S
H31 N11 0.862 . S
O32 Co0 1.929 . S
O32 C5 1.285 1_554 S
C33 O25 1.258 . S
C33 O26 1.266 . S
Co34 O37 1.970 . S
Co34 N51 1.989 . S
Co34 O59 1.967 . S
Co34 O66 1.920 . S
Co35 O38 1.966 . S
Co35 N44 2.022 . S
Co35 N52 1.993 . S
Co35 O60 1.941 . S
C36 O37 1.258 . S
C36 O38 1.263 . S
O37 Co34 1.970 . S
O37 C36 1.258 . S
O38 Co35 1.966 . S
O38 C36 1.263 . S
C39 O40 1.235 . S
C39 O66 1.289 . S
O40 C39 1.235 . S
C41 C43 1.400 . S
C41 N44 1.351 . S
C41 C46 1.501 . S
C42 C43 1.387 . S
C42 N45 1.341 . S
C43 C41 1.400 . S
C43 C42 1.387 . S
N44 Co35 2.022 . S
N44 C41 1.351 . S
N44 N45 1.365 . S
N45 C42 1.341 . S
N45 N44 1.365 . S
N45 H65 0.862 . S
C46 C41 1.501 . S
C46 H47 0.961 . S
C46 H48 0.961 . S
C46 H49 0.960 . S
H47 C46 0.961 . S
H48 C46 0.961 . S
H49 C46 0.960 . S
C50 N51 1.342 . S
C50 C54 1.401 . S
C50 C55 1.499 . S
N51 Co34 1.989 . S
N51 C50 1.342 . S
N51 N52 1.388 . S
N52 Co35 1.993 . S
N52 N51 1.388 . S
N52 C53 1.346 . S
C53 N52 1.346 . S
C53 C54 1.396 . S
C53 C63 1.510 . S
C54 C50 1.401 . S
C54 C53 1.396 . S
C55 C50 1.499 . S
C55 H56 0.959 . S
C55 H57 0.960 . S
C55 H58 0.961 . S
H56 C55 0.959 . S
H57 C55 0.960 . S
H58 C55 0.961 . S
O59 Co34 1.967 . S
O59 C67 1.258 . S
O60 Co35 1.941 . S
O60 C67 1.266 . S
H61 C63 0.959 . S
H62 C63 0.961 . S
C63 C53 1.510 . S
C63 H61 0.959 . S
C63 H62 0.961 . S
C63 H64 0.960 . S
H64 C63 0.960 . S
H65 N45 0.862 . S
O66 Co34 1.920 . S
O66 C39 1.289 . S
C67 O59 1.258 . S
C67 O60 1.266 . S
Co68 O71 1.970 . S
Co68 N85 1.989 . S
Co68 O93 1.967 . S
Co68 O100 1.920 . S
Co69 O72 1.966 . S
Co69 N78 2.022 . S
Co69 N86 1.993 . S
Co69 O94 1.941 . S
C70 O71 1.258 . S
C70 O72 1.263 . S
O71 Co68 1.970 . S
O71 C70 1.258 . S
O72 Co69 1.966 . S
O72 C70 1.263 . S
C73 O74 1.235 . S
C73 O100 1.289 . S
O74 C73 1.235 . S
C75 C77 1.400 . S
C75 N78 1.351 1_554 S
C75 C80 1.501 . S
C76 C77 1.387 . S
C76 N79 1.341 1_554 S
C77 C75 1.400 . S
C77 C76 1.387 . S
N78 Co69 2.022 . S
N78 C75 1.351 1_556 S
N78 N79 1.365 . S
N79 C76 1.341 1_556 S
N79 N78 1.365 . S
N79 H99 0.862 . S
C80 C75 1.501 . S
C80 H81 0.961 1_554 S
C80 H82 0.961 . S
C80 H83 0.960 . S
H81 C80 0.961 1_556 S
H82 C80 0.961 . S
H83 C80 0.960 . S
C84 N85 1.342 . S
C84 C88 1.401 . S
C84 C89 1.499 . S
N85 Co68 1.989 . S
N85 C84 1.342 . S
N85 N86 1.388 . S
N86 Co69 1.993 . S
N86 N85 1.388 . S
N86 C87 1.346 . S
C87 N86 1.346 . S
C87 C88 1.396 . S
C87 C97 1.510 . S
C88 C84 1.401 . S
C88 C87 1.396 . S
C89 C84 1.499 . S
C89 H90 0.959 . S
C89 H91 0.960 . S
C89 H92 0.961 . S
H90 C89 0.959 . S
H91 C89 0.960 . S
H92 C89 0.961 . S
O93 Co68 1.967 . S
O93 C101 1.258 . S
O94 Co69 1.941 . S
O94 C101 1.266 . S
H95 C97 0.959 . S
H96 C97 0.961 . S
C97 C87 1.510 . S
C97 H95 0.959 . S
C97 H96 0.961 . S
C97 H98 0.960 . S
H98 C97 0.960 . S
H99 N79 0.862 . S
O100 Co68 1.920 . S
O100 C73 1.289 . S
C101 O93 1.258 . S
C101 O94 1.266 . S
Co102 O105 1.970 . S
Co102 N119 1.989 . S
Co102 O127 1.967 . S
Co102 O134 1.929 . S
Co103 O106 1.966 . S
Co103 N112 2.022 . S
Co103 N120 1.993 . S
Co103 O128 1.941 . S
C104 O105 1.258 . S
C104 O106 1.263 . S
O105 Co102 1.970 . S
O105 C104 1.258 . S
O106 Co103 1.966 . S
O106 C104 1.263 . S
C107 O108 1.235 1_556 S
C107 O134 1.285 1_556 S
O108 C107 1.235 1_554 S
C109 C111 1.400 . S
C109 N112 1.351 . S
C109 C114 1.501 . S
C110 C111 1.387 . S
C110 N113 1.341 . S
C111 C109 1.400 . S
C111 C110 1.387 . S
N112 Co103 2.022 . S
N112 C109 1.351 . S
N112 N113 1.365 . S
N113 C110 1.341 . S
N113 N112 1.365 . S
N113 H133 0.862 . S
C114 C109 1.501 . S
C114 H115 0.961 . S
C114 H116 0.961 . S
C114 H117 0.960 . S
H115 C114 0.961 . S
H116 C114 0.961 . S
H117 C114 0.960 . S
C118 N119 1.342 . S
C118 C122 1.401 . S
C118 C123 1.499 . S
N119 Co102 1.989 . S
N119 C118 1.342 . S
N119 N120 1.388 . S
N120 Co103 1.993 . S
N120 N119 1.388 . S
N120 C121 1.346 . S
C121 N120 1.346 . S
C121 C122 1.396 . S
C121 C131 1.510 . S
C122 C118 1.401 . S
C122 C121 1.396 . S
C123 C118 1.499 . S
C123 H124 0.959 . S
C123 H125 0.960 . S
C123 H126 0.961 . S
H124 C123 0.959 . S
H125 C123 0.960 . S
H126 C123 0.961 . S
O127 Co102 1.967 . S
O127 C135 1.258 . S
O128 Co103 1.941 . S
O128 C135 1.266 . S
H129 C131 0.959 . S
H130 C131 0.961 . S
C131 C121 1.510 . S
C131 H129 0.959 . S
C131 H130 0.961 . S
C131 H132 0.960 . S
H132 C131 0.960 . S
H133 N113 0.862 . S
O134 Co102 1.929 . S
O134 C107 1.285 1_554 S
C135 O127 1.258 . S
C135 O128 1.266 . S
Co136 O139 1.970 . S
Co136 N153 1.989 . S
Co136 O161 1.967 . S
Co136 O168 1.920 . S
Co137 O140 1.966 . S
Co137 N146 2.022 . S
Co137 N154 1.993 . S
Co137 O162 1.941 . S
C138 O139 1.258 . S
C138 O140 1.263 . S
O139 Co136 1.970 . S
O139 C138 1.258 . S
O140 Co137 1.966 . S
O140 C138 1.263 . S
C141 O142 1.235 . S
C141 O168 1.289 . S
O142 C141 1.235 . S
C143 C145 1.400 . S
C143 N146 1.351 . S
C143 C148 1.501 . S
C144 C145 1.387 . S
C144 N147 1.341 . S
C145 C143 1.400 . S
C145 C144 1.387 . S
N146 Co137 2.022 . S
N146 C143 1.351 . S
N146 N147 1.365 . S
N147 C144 1.341 . S
N147 N146 1.365 . S
N147 H167 0.862 . S
C148 C143 1.501 . S
C148 H149 0.961 . S
C148 H150 0.961 . S
C148 H151 0.960 . S
H149 C148 0.961 . S
H150 C148 0.961 . S
H151 C148 0.960 . S
C152 N153 1.342 . S
C152 C156 1.401 . S
C152 C157 1.499 . S
N153 Co136 1.989 . S
N153 C152 1.342 . S
N153 N154 1.388 . S
N154 Co137 1.993 . S
N154 N153 1.388 . S
N154 C155 1.346 . S
C155 N154 1.346 . S
C155 C156 1.396 . S
C155 C165 1.510 . S
C156 C152 1.401 . S
C156 C155 1.396 . S
C157 C152 1.499 . S
C157 H158 0.959 . S
C157 H159 0.960 . S
C157 H160 0.961 . S
H158 C157 0.959 . S
H159 C157 0.960 . S
H160 C157 0.961 . S
O161 Co136 1.967 . S
O161 C169 1.258 . S
O162 Co137 1.941 . S
O162 C169 1.266 . S
H163 C165 0.959 . S
H164 C165 0.961 . S
C165 C155 1.510 . S
C165 H163 0.959 . S
C165 H164 0.961 . S
C165 H166 0.960 . S
H166 C165 0.960 . S
H167 N147 0.862 . S
O168 Co136 1.920 . S
O168 C141 1.289 . S
C169 O161 1.258 . S
C169 O162 1.266 . S
Co170 O173 1.970 . S
Co170 N187 1.989 . S
Co170 O195 1.967 . S
Co170 O202 1.920 . S
Co171 O174 1.966 . S
Co171 N180 2.022 . S
Co171 N188 1.993 . S
Co171 O196 1.941 . S
C172 O173 1.258 . S
C172 O174 1.263 . S
O173 Co170 1.970 . S
O173 C172 1.258 . S
O174 Co171 1.966 . S
O174 C172 1.263 . S
C175 O176 1.235 . S
C175 O202 1.289 . S
O176 C175 1.235 . S
C177 C179 1.400 . S
C177 N180 1.351 1_554 S
C177 C182 1.501 . S
C178 C179 1.387 . S
C178 N181 1.341 1_554 S
C179 C177 1.400 . S
C179 C178 1.387 . S
N180 Co171 2.022 . S
N180 C177 1.351 1_556 S
N180 N181 1.365 . S
N181 C178 1.341 1_556 S
N181 N180 1.365 . S
N181 H201 0.862 . S
C182 C177 1.501 . S
C182 H183 0.961 1_554 S
C182 H184 0.961 . S
C182 H185 0.960 . S
H183 C182 0.961 1_556 S
H184 C182 0.961 . S
H185 C182 0.960 . S
C186 N187 1.342 . S
C186 C190 1.401 . S
C186 C191 1.499 . S
N187 Co170 1.989 . S
N187 C186 1.342 . S
N187 N188 1.388 . S
N188 Co171 1.993 . S
N188 N187 1.388 . S
N188 C189 1.346 . S
C189 N188 1.346 . S
C189 C190 1.396 . S
C189 C199 1.510 . S
C190 C186 1.401 . S
C190 C189 1.396 . S
C191 C186 1.499 . S
C191 H192 0.959 . S
C191 H193 0.960 . S
C191 H194 0.961 . S
H192 C191 0.959 . S
H193 C191 0.960 . S
H194 C191 0.961 . S
O195 Co170 1.967 . S
O195 C203 1.258 . S
O196 Co171 1.941 . S
O196 C203 1.266 . S
H197 C199 0.959 . S
H198 C199 0.961 . S
C199 C189 1.510 . S
C199 H197 0.959 . S
C199 H198 0.961 . S
C199 H200 0.960 . S
H200 C199 0.960 . S
H201 N181 0.862 . S
O202 Co170 1.920 . S
O202 C175 1.289 . S
C203 O195 1.258 . S
C203 O196 1.266 . S
C204 C205 1.349 . S
C204 C206 1.327 . S
C204 H229 0.950 . S
C205 C204 1.349 . S
C205 C221 1.349 . S
C206 C204 1.327 . S
C206 C225 1.429 . S
C206 H230 0.950 . S
C207 C224 1.574 . S
C207 C226 1.368 1_556 S
C207 H231 0.949 . S
H208 C212 0.949 . S
C209 C210 1.349 . S
C209 C211 1.327 . S
C209 H232 0.950 . S
C210 C209 1.349 . S
C210 C222 1.349 . S
C211 C209 1.327 . S
C211 C227 1.429 . S
C211 H233 0.950 . S
C212 H208 0.949 . S
C212 C220 1.574 1_556 S
C212 C228 1.368 . S
H213 C221 0.950 . S
H214 C219 0.950 . S
H215 C220 0.949 . S
H216 C222 0.950 . S
H217 C223 0.950 . S
H218 C224 0.949 . S
C219 H214 0.950 . S
C219 C221 1.327 . S
C219 C225 1.429 . S
C220 C212 1.574 1_554 S
C220 H215 0.949 . S
C220 C226 1.368 . S
C221 C205 1.349 . S
C221 H213 0.950 . S
C221 C219 1.327 . S
C222 C210 1.349 . S
C222 H216 0.950 . S
C222 C223 1.327 . S
C223 H217 0.950 . S
C223 C222 1.327 . S
C223 C227 1.429 . S
C224 C207 1.574 . S
C224 H218 0.949 . S
C224 C228 1.368 . S
C225 C206 1.429 . S
C225 C219 1.429 . S
C225 C226 1.523 . S
C226 C207 1.368 1_554 S
C226 C220 1.368 . S
C226 C225 1.523 . S
C227 C211 1.429 . S
C227 C223 1.429 . S
C227 C228 1.523 . S
C228 C212 1.368 . S
C228 C224 1.368 . S
C228 C227 1.523 . S
H229 C204 0.950 . S
H230 C206 0.950 . S
H231 C207 0.949 . S
H232 C209 0.950 . S
H233 C211 0.950 . S
C234 C235 1.349 . S
C234 C236 1.327 . S
C234 H259 0.950 . S
C235 C234 1.349 . S
C235 C251 1.349 . S
C236 C234 1.327 . S
C236 C255 1.429 . S
C236 H260 0.950 . S
C237 C254 1.574 . S
C237 C256 1.368 . S
C237 H261 0.949 . S
H238 C242 0.949 . S
C239 C240 1.349 . S
C239 C241 1.327 . S
C239 H262 0.950 . S
C240 C239 1.349 . S
C240 C252 1.349 . S
C241 C239 1.327 . S
C241 C257 1.429 . S
C241 H263 0.950 . S
C242 H238 0.949 . S
C242 C250 1.574 . S
C242 C258 1.368 . S
H243 C251 0.950 . S
H244 C249 0.950 . S
H245 C250 0.949 . S
H246 C252 0.950 . S
H247 C253 0.950 . S
H248 C254 0.949 . S
C249 H244 0.950 . S
C249 C251 1.327 . S
C249 C255 1.429 . S
C250 C242 1.574 . S
C250 H245 0.949 . S
C250 C256 1.368 . S
C251 C235 1.349 . S
C251 H243 0.950 . S
C251 C249 1.327 . S
C252 C240 1.349 . S
C252 H246 0.950 . S
C252 C253 1.327 . S
C253 H247 0.950 . S
C253 C252 1.327 . S
C253 C257 1.429 . S
C254 C237 1.574 . S
C254 H248 0.949 . S
C254 C258 1.368 . S
C255 C236 1.429 . S
C255 C249 1.429 . S
C255 C256 1.523 . S
C256 C237 1.368 . S
C256 C250 1.368 . S
C256 C255 1.523 . S
C257 C241 1.429 . S
C257 C253 1.429 . S
C257 C258 1.523 . S
C258 C242 1.368 . S
C258 C254 1.368 . S
C258 C257 1.523 . S
H259 C234 0.950 . S
H260 C236 0.950 . S
H261 C237 0.949 . S
H262 C239 0.950 . S
H263 C241 0.950 . S
C264 C265 1.349 . S
C264 C266 1.327 . S
C264 H289 0.950 . S
C265 C264 1.349 . S
C265 C281 1.349 . S
C266 C264 1.327 . S
C266 C285 1.429 . S
C266 H290 0.950 . S
C267 C284 1.574 . S
C267 C286 1.368 . S
C267 H291 0.949 . S
H268 C272 0.949 . S
C269 C270 1.349 . S
C269 C271 1.327 . S
C269 H292 0.950 . S
C270 C269 1.349 . S
C270 C282 1.349 . S
C271 C269 1.327 . S
C271 C287 1.429 . S
C271 H293 0.950 . S
C272 H268 0.949 . S
C272 C280 1.574 . S
C272 C288 1.368 . S
H273 C281 0.950 . S
H274 C279 0.950 . S
H275 C280 0.949 . S
H276 C282 0.950 . S
H277 C283 0.950 . S
H278 C284 0.949 . S
C279 H274 0.950 . S
C279 C281 1.327 . S
C279 C285 1.429 . S
C280 C272 1.574 . S
C280 H275 0.949 . S
C280 C286 1.368 . S
C281 C265 1.349 . S
C281 H273 0.950 . S
C281 C279 1.327 . S
C282 C270 1.349 . S
C282 H276 0.950 . S
C282 C283 1.327 . S
C283 H277 0.950 . S
C283 C282 1.327 . S
C283 C287 1.429 . S
C284 C267 1.574 . S
C284 H278 0.949 . S
C284 C288 1.368 . S
C285 C266 1.429 . S
C285 C279 1.429 . S
C285 C286 1.523 . S
C286 C267 1.368 . S
C286 C280 1.368 . S
C286 C285 1.523 . S
C287 C271 1.429 . S
C287 C283 1.429 . S
C287 C288 1.523 . S
C288 C272 1.368 . S
C288 C284 1.368 . S
C288 C287 1.523 . S
H289 C264 0.950 . S
H290 C266 0.950 . S
H291 C267 0.949 . S
H292 C269 0.950 . S
H293 C271 0.950 . S
C294 C295 1.349 . S
C294 C296 1.327 . S
C294 H319 0.950 . S
C295 C294 1.349 . S
C295 C311 1.349 . S
C296 C294 1.327 . S
C296 C315 1.429 . S
C296 H320 0.950 . S
C297 C314 1.574 . S
C297 C316 1.368 . S
C297 H321 0.949 . S
H298 C302 0.949 . S
C299 C300 1.349 . S
C299 C301 1.327 . S
C299 H322 0.950 . S
C300 C299 1.349 . S
C300 C312 1.349 . S
C301 C299 1.327 . S
C301 C317 1.429 . S
C301 H323 0.950 1_554 S
C302 H298 0.949 . S
C302 C310 1.574 . S
C302 C318 1.368 . S
H303 C311 0.950 . S
H304 C309 0.950 . S
H305 C310 0.949 . S
H306 C312 0.950 . S
H307 C313 0.950 . S
H308 C314 0.949 . S
C309 H304 0.950 . S
C309 C311 1.327 . S
C309 C315 1.429 . S
C310 C302 1.574 . S
C310 H305 0.949 . S
C310 C316 1.368 1_554 S
C311 C295 1.349 . S
C311 H303 0.950 . S
C311 C309 1.327 . S
C312 C300 1.349 . S
C312 H306 0.950 . S
C312 C313 1.327 . S
C313 H307 0.950 . S
C313 C312 1.327 . S
C313 C317 1.429 . S
C314 C297 1.574 . S
C314 H308 0.949 . S
C314 C318 1.368 1_556 S
C315 C296 1.429 . S
C315 C309 1.429 . S
C315 C316 1.523 . S
C316 C297 1.368 . S
C316 C310 1.368 1_556 S
C316 C315 1.523 . S
C317 C301 1.429 . S
C317 C313 1.429 . S
C317 C318 1.523 . S
C318 C302 1.368 . S
C318 C314 1.368 1_554 S
C318 C317 1.523 . S
H319 C294 0.950 . S
H320 C296 0.950 . S
H321 C297 0.949 . S
H322 C299 0.950 . S
H323 C301 0.950 1_556 S
C324 C325 1.349 . S
C324 C326 1.327 . S
C324 H349 0.950 . S
C325 C324 1.349 . S
C325 C341 1.349 . S
C326 C324 1.327 . S
C326 C345 1.429 . S
C326 H350 0.950 . S
C327 C344 1.574 . S
C327 C346 1.368 . S
C327 H351 0.949 . S
H328 C332 0.949 . S
C329 C330 1.349 . S
C329 C331 1.327 . S
C329 H352 0.950 . S
C330 C329 1.349 . S
C330 C342 1.349 . S
C331 C329 1.327 . S
C331 C347 1.429 . S
C331 H353 0.950 . S
C332 H328 0.949 . S
C332 C340 1.574 . S
C332 C348 1.368 . S
H333 C341 0.950 . S
H334 C339 0.950 . S
H335 C340 0.949 . S
H336 C342 0.950 . S
H337 C343 0.950 . S
H338 C344 0.949 . S
C339 H334 0.950 . S
C339 C341 1.327 . S
C339 C345 1.429 . S
C340 C332 1.574 . S
C340 H335 0.949 . S
C340 C346 1.368 . S
C341 C325 1.349 . S
C341 H333 0.950 . S
C341 C339 1.327 . S
C342 C330 1.349 . S
C342 H336 0.950 . S
C342 C343 1.327 . S
C343 H337 0.950 . S
C343 C342 1.327 . S
C343 C347 1.429 . S
C344 C327 1.574 . S
C344 H338 0.949 . S
C344 C348 1.368 . S
C345 C326 1.429 . S
C345 C339 1.429 . S
C345 C346 1.523 . S
C346 C327 1.368 . S
C346 C340 1.368 . S
C346 C345 1.523 . S
C347 C331 1.429 . S
C347 C343 1.429 . S
C347 C348 1.523 . S
C348 C332 1.368 . S
C348 C344 1.368 . S
C348 C347 1.523 . S
H349 C324 0.950 . S
H350 C326 0.950 . S
H351 C327 0.949 . S
H352 C329 0.950 . S
H353 C331 0.950 . S
C354 C355 1.349 . S
C354 C356 1.327 . S
C354 H379 0.950 . S
C355 C354 1.349 . S
C355 C371 1.349 . S
C356 C354 1.327 . S
C356 C375 1.429 . S
C356 H380 0.950 . S
C357 C374 1.574 . S
C357 C376 1.368 . S
C357 H381 0.949 . S
H358 C362 0.949 . S
C359 C360 1.349 . S
C359 C361 1.327 . S
C359 H382 0.950 . S
C360 C359 1.349 . S
C360 C372 1.349 . S
C361 C359 1.327 . S
C361 C377 1.429 . S
C361 H383 0.950 . S
C362 H358 0.949 . S
C362 C370 1.574 . S
C362 C378 1.368 . S
H363 C371 0.950 . S
H364 C369 0.950 . S
H365 C370 0.949 . S
H366 C372 0.950 . S
H367 C373 0.950 . S
H368 C374 0.949 . S
C369 H364 0.950 . S
C369 C371 1.327 . S
C369 C375 1.429 . S
C370 C362 1.574 . S
C370 H365 0.949 . S
C370 C376 1.368 . S
C371 C355 1.349 . S
C371 H363 0.950 . S
C371 C369 1.327 . S
C372 C360 1.349 . S
C372 H366 0.950 . S
C372 C373 1.327 . S
C373 H367 0.950 . S
C373 C372 1.327 . S
C373 C377 1.429 . S
C374 C357 1.574 . S
C374 H368 0.949 . S
C374 C378 1.368 . S
C375 C356 1.429 . S
C375 C369 1.429 . S
C375 C376 1.523 . S
C376 C357 1.368 . S
C376 C370 1.368 . S
C376 C375 1.523 . S
C377 C361 1.429 . S
C377 C373 1.429 . S
C377 C378 1.523 . S
C378 C362 1.368 . S
C378 C374 1.368 . S
C378 C377 1.523 . S
H379 C354 0.950 . S
H380 C356 0.950 . S
H381 C357 0.949 . S
H382 C359 0.950 . S
H383 C361 0.950 . S
C384 C385 1.349 . S
C384 C386 1.327 . S
C384 H409 0.950 . S
C385 C384 1.349 . S
C385 C401 1.349 . S
C386 C384 1.327 . S
C386 C405 1.429 . S
C386 H410 0.950 . S
C387 C404 1.574 . S
C387 C406 1.368 . S
C387 H411 0.949 . S
H388 C392 0.949 . S
C389 C390 1.349 . S
C389 C391 1.327 . S
C389 H412 0.950 . S
C390 C389 1.349 . S
C390 C402 1.349 . S
C391 C389 1.327 . S
C391 C407 1.429 . S
C391 H413 0.950 . S
C392 H388 0.949 . S
C392 C400 1.574 . S
C392 C408 1.368 . S
H393 C401 0.950 . S
H394 C399 0.950 . S
H395 C400 0.949 . S
H396 C402 0.950 . S
H397 C403 0.950 . S
H398 C404 0.949 . S
C399 H394 0.950 . S
C399 C401 1.327 . S
C399 C405 1.429 . S
C400 C392 1.574 . S
C400 H395 0.949 . S
C400 C406 1.368 . S
C401 C385 1.349 . S
C401 H393 0.950 . S
C401 C399 1.327 . S
C402 C390 1.349 . S
C402 H396 0.950 . S
C402 C403 1.327 . S
C403 H397 0.950 . S
C403 C402 1.327 . S
C403 C407 1.429 . S
C404 C387 1.574 . S
C404 H398 0.949 . S
C404 C408 1.368 . S
C405 C386 1.429 . S
C405 C399 1.429 . S
C405 C406 1.523 . S
C406 C387 1.368 . S
C406 C400 1.368 . S
C406 C405 1.523 . S
C407 C391 1.429 . S
C407 C403 1.429 . S
C407 C408 1.523 . S
C408 C392 1.368 . S
C408 C404 1.368 . S
C408 C407 1.523 . S
H409 C384 0.950 . S
H410 C386 0.950 . S
H411 C387 0.949 . S
H412 C389 0.950 . S
H413 C391 0.950 . S
C414 C415 1.349 . S
C414 C416 1.327 . S
C414 H439 0.950 . S
C415 C414 1.349 . S
C415 C431 1.349 . S
C416 C414 1.327 . S
C416 C435 1.429 . S
C416 H440 0.950 . S
C417 C434 1.574 1_556 S
C417 C436 1.368 . S
C417 H441 0.949 . S
H418 C422 0.949 . S
C419 C420 1.349 . S
C419 C421 1.327 . S
C419 H442 0.950 . S
C420 C419 1.349 . S
C420 C432 1.349 . S
C421 C419 1.327 . S
C421 C437 1.429 . S
C421 H443 0.950 . S
C422 H418 0.949 . S
C422 C430 1.574 1_554 S
C422 C438 1.368 . S
H423 C431 0.950 . S
H424 C429 0.950 . S
H425 C430 0.949 . S
H426 C432 0.950 . S
H427 C433 0.950 . S
H428 C434 0.949 . S
C429 H424 0.950 . S
C429 C431 1.327 . S
C429 C435 1.429 . S
C430 C422 1.574 1_556 S
C430 H425 0.949 . S
C430 C436 1.368 . S
C431 C415 1.349 . S
C431 H423 0.950 . S
C431 C429 1.327 . S
C432 C420 1.349 . S
C432 H426 0.950 . S
C432 C433 1.327 . S
C433 H427 0.950 . S
C433 C432 1.327 . S
C433 C437 1.429 . S
C434 C417 1.574 1_554 S
C434 H428 0.949 . S
C434 C438 1.368 . S
C435 C416 1.429 . S
C435 C429 1.429 . S
C435 C436 1.523 . S
C436 C417 1.368 . S
C436 C430 1.368 . S
C436 C435 1.523 . S
C437 C421 1.429 . S
C437 C433 1.429 . S
C437 C438 1.523 . S
C438 C422 1.368 . S
C438 C434 1.368 . S
C438 C437 1.523 . S
H439 C414 0.950 . S
H440 C416 0.950 . S
H441 C417 0.949 . S
H442 C419 0.950 . S
H443 C421 0.950 . S
C444 C445 1.349 . S
C444 C446 1.327 . S
C444 H469 0.950 . S
C445 C444 1.349 . S
C445 C461 1.349 . S
C446 C444 1.327 . S
C446 C465 1.429 . S
C446 H470 0.950 . S
C447 C464 1.574 . S
C447 C466 1.368 . S
C447 H471 0.949 . S
H448 C452 0.949 . S
C449 C450 1.349 . S
C449 C451 1.327 . S
C449 H472 0.950 . S
C450 C449 1.349 . S
C450 C462 1.349 . S
C451 C449 1.327 . S
C451 C467 1.429 . S
C451 H473 0.950 . S
C452 H448 0.949 . S
C452 C460 1.574 . S
C452 C468 1.368 . S
H453 C461 0.950 . S
H454 C459 0.950 . S
H455 C460 0.949 . S
H456 C462 0.950 . S
H457 C463 0.950 . S
H458 C464 0.949 . S
C459 H454 0.950 . S
C459 C461 1.327 . S
C459 C465 1.429 . S
C460 C452 1.574 . S
C460 H455 0.949 . S
C460 C466 1.368 . S
C461 C445 1.349 . S
C461 H453 0.950 . S
C461 C459 1.327 . S
C462 C450 1.349 . S
C462 H456 0.950 . S
C462 C463 1.327 . S
C463 H457 0.950 . S
C463 C462 1.327 . S
C463 C467 1.429 . S
C464 C447 1.574 . S
C464 H458 0.949 . S
C464 C468 1.368 . S
C465 C446 1.429 . S
C465 C459 1.429 . S
C465 C466 1.523 . S
C466 C447 1.368 . S
C466 C460 1.368 . S
C466 C465 1.523 . S
C467 C451 1.429 . S
C467 C463 1.429 . S
C467 C468 1.523 . S
C468 C452 1.368 . S
C468 C464 1.368 . S
C468 C467 1.523 . S
H469 C444 0.950 . S
H470 C446 0.950 . S
H471 C447 0.949 . S
H472 C449 0.950 . S
H473 C451 0.950 . S
C474 C475 1.349 . S
C474 C476 1.327 . S
C474 H499 0.950 . S
C475 C474 1.349 . S
C475 C491 1.349 . S
C476 C474 1.327 . S
C476 C495 1.429 . S
C476 H500 0.950 . S
C477 C494 1.574 . S
C477 C496 1.368 . S
C477 H501 0.949 . S
H478 C482 0.949 . S
C479 C480 1.349 . S
C479 C481 1.327 . S
C479 H502 0.950 . S
C480 C479 1.349 . S
C480 C492 1.349 . S
C481 C479 1.327 . S
C481 C497 1.429 . S
C481 H503 0.950 . S
C482 H478 0.949 . S
C482 C490 1.574 . S
C482 C498 1.368 . S
H483 C491 0.950 . S
H484 C489 0.950 . S
H485 C490 0.949 . S
H486 C492 0.950 . S
H487 C493 0.950 . S
H488 C494 0.949 . S
C489 H484 0.950 . S
C489 C491 1.327 . S
C489 C495 1.429 . S
C490 C482 1.574 . S
C490 H485 0.949 . S
C490 C496 1.368 . S
C491 C475 1.349 . S
C491 H483 0.950 . S
C491 C489 1.327 . S
C492 C480 1.349 . S
C492 H486 0.950 . S
C492 C493 1.327 . S
C493 H487 0.950 . S
C493 C492 1.327 . S
C493 C497 1.429 . S
C494 C477 1.574 . S
C494 H488 0.949 . S
C494 C498 1.368 . S
C495 C476 1.429 . S
C495 C489 1.429 . S
C495 C496 1.523 . S
C496 C477 1.368 . S
C496 C490 1.368 . S
C496 C495 1.523 . S
C497 C481 1.429 . S
C497 C493 1.429 . S
C497 C498 1.523 . S
C498 C482 1.368 . S
C498 C494 1.368 . S
C498 C497 1.523 . S
H499 C474 0.950 . S
H500 C476 0.950 . S
H501 C477 0.949 . S
H502 C479 0.950 . S
H503 C481 0.950 . S
C504 C505 1.349 . S
C504 C506 1.327 . S
C504 H529 0.950 . S
C505 C504 1.349 . S
C505 C521 1.349 . S
C506 C504 1.327 . S
C506 C525 1.429 . S
C506 H530 0.950 . S
C507 C524 1.574 1_554 S
C507 C526 1.368 . S
C507 H531 0.949 . S
H508 C512 0.949 . S
C509 C510 1.349 . S
C509 C511 1.327 . S
C509 H532 0.950 . S
C510 C509 1.349 . S
C510 C522 1.349 . S
C511 C509 1.327 . S
C511 C527 1.429 . S
C511 H533 0.950 . S
C512 H508 0.949 . S
C512 C520 1.574 1_556 S
C512 C528 1.368 . S
H513 C521 0.950 . S
H514 C519 0.950 . S
H515 C520 0.949 . S
H516 C522 0.950 . S
H517 C523 0.950 . S
H518 C524 0.949 . S
C519 H514 0.950 . S
C519 C521 1.327 . S
C519 C525 1.429 . S
C520 C512 1.574 1_554 S
C520 H515 0.949 . S
C520 C526 1.368 . S
C521 C505 1.349 . S
C521 H513 0.950 . S
C521 C519 1.327 . S
C522 C510 1.349 . S
C522 H516 0.950 . S
C522 C523 1.327 . S
C523 H517 0.950 . S
C523 C522 1.327 . S
C523 C527 1.429 . S
C524 C507 1.574 1_556 S
C524 H518 0.949 . S
C524 C528 1.368 . S
C525 C506 1.429 . S
C525 C519 1.429 . S
C525 C526 1.523 . S
C526 C507 1.368 . S
C526 C520 1.368 . S
C526 C525 1.523 . S
C527 C511 1.429 . S
C527 C523 1.429 . S
C527 C528 1.523 . S
C528 C512 1.368 . S
C528 C524 1.368 . S
C528 C527 1.523 . S
H529 C504 0.950 . S
H530 C506 0.950 . S
H531 C507 0.949 . S
H532 C509 0.950 . S
H533 C511 0.950 . S
C534 C535 1.349 . S
C534 C536 1.327 . S
C534 H559 0.950 . S
C535 C534 1.349 . S
C535 C551 1.349 . S
C536 C534 1.327 . S
C536 C555 1.429 . S
C536 H560 0.950 . S
C537 C554 1.574 . S
C537 C556 1.368 . S
C537 H561 0.949 . S
H538 C542 0.949 . S
C539 C540 1.349 . S
C539 C541 1.327 . S
C539 H562 0.950 . S
C540 C539 1.349 . S
C540 C552 1.349 . S
C541 C539 1.327 . S
C541 C557 1.429 . S
C541 H563 0.950 . S
C542 H538 0.949 . S
C542 C550 1.574 . S
C542 C558 1.368 . S
H543 C551 0.950 . S
H544 C549 0.950 . S
H545 C550 0.949 . S
H546 C552 0.950 . S
H547 C553 0.950 . S
H548 C554 0.949 . S
C549 H544 0.950 . S
C549 C551 1.327 . S
C549 C555 1.429 . S
C550 C542 1.574 . S
C550 H545 0.949 . S
C550 C556 1.368 . S
C551 C535 1.349 . S
C551 H543 0.950 . S
C551 C549 1.327 . S
C552 C540 1.349 . S
C552 H546 0.950 . S
C552 C553 1.327 . S
C553 H547 0.950 . S
C553 C552 1.327 . S
C553 C557 1.429 . S
C554 C537 1.574 . S
C554 H548 0.949 . S
C554 C558 1.368 . S
C555 C536 1.429 . S
C555 C549 1.429 . S
C555 C556 1.523 . S
C556 C537 1.368 . S
C556 C550 1.368 . S
C556 C555 1.523 . S
C557 C541 1.429 . S
C557 C553 1.429 . S
C557 C558 1.523 . S
C558 C542 1.368 . S
C558 C554 1.368 . S
C558 C557 1.523 . S
H559 C534 0.950 . S
H560 C536 0.950 . S
H561 C537 0.949 . S
H562 C539 0.950 . S
H563 C541 0.950 . S
C564 C565 1.349 . S
C564 C566 1.327 . S
C564 H589 0.950 . S
C565 C564 1.349 . S
C565 C581 1.349 . S
C566 C564 1.327 . S
C566 C585 1.429 . S
C566 H590 0.950 . S
C567 C584 1.574 1_655 S
C567 C586 1.368 . S
C567 H591 0.949 . S
H568 C572 0.949 . S
C569 C570 1.349 . S
C569 C571 1.327 . S
C569 H592 0.950 . S
C570 C569 1.349 . S
C570 C582 1.349 . S
C571 C569 1.327 . S
C571 C587 1.429 . S
C571 H593 0.950 . S
C572 H568 0.949 . S
C572 C580 1.574 1_455 S
C572 C588 1.368 . S
H573 C581 0.950 . S
H574 C579 0.950 . S
H575 C580 0.949 . S
H576 C582 0.950 . S
H577 C583 0.950 . S
H578 C584 0.949 . S
C579 H574 0.950 . S
C579 C581 1.327 . S
C579 C585 1.429 . S
C580 C572 1.574 1_655 S
C580 H575 0.949 . S
C580 C586 1.368 . S
C581 C565 1.349 . S
C581 H573 0.950 . S
C581 C579 1.327 . S
C582 C570 1.349 . S
C582 H576 0.950 . S
C582 C583 1.327 . S
C583 H577 0.950 . S
C583 C582 1.327 . S
C583 C587 1.429 . S
C584 C567 1.574 1_455 S
C584 H578 0.949 . S
C584 C588 1.368 . S
C585 C566 1.429 . S
C585 C579 1.429 . S
C585 C586 1.523 . S
C586 C567 1.368 . S
C586 C580 1.368 . S
C586 C585 1.523 . S
C587 C571 1.429 . S
C587 C583 1.429 . S
C587 C588 1.523 . S
C588 C572 1.368 . S
C588 C584 1.368 . S
C588 C587 1.523 . S
H589 C564 0.950 . S
H590 C566 0.950 . S
H591 C567 0.949 . S
H592 C569 0.950 . S
H593 C571 0.950 . S
C594 C595 1.349 . S
C594 C596 1.327 . S
C594 H619 0.950 . S
C595 C594 1.349 . S
C595 C611 1.349 . S
C596 C594 1.327 . S
C596 C615 1.429 . S
C596 H620 0.950 . S
C597 C614 1.574 1_545 S
C597 C616 1.368 . S
C597 H621 0.949 . S
H598 C602 0.949 . S
C599 C600 1.349 . S
C599 C601 1.327 . S
C599 H622 0.950 . S
C600 C599 1.349 . S
C600 C612 1.349 . S
C601 C599 1.327 . S
C601 C617 1.429 . S
C601 H623 0.950 . S
C602 H598 0.949 . S
C602 C610 1.574 1_565 S
C602 C618 1.368 . S
H603 C611 0.950 . S
H604 C609 0.950 . S
H605 C610 0.949 . S
H606 C612 0.950 . S
H607 C613 0.950 . S
H608 C614 0.949 . S
C609 H604 0.950 . S
C609 C611 1.327 . S
C609 C615 1.429 . S
C610 C602 1.574 1_545 S
C610 H605 0.949 . S
C610 C616 1.368 . S
C611 C595 1.349 . S
C611 H603 0.950 . S
C611 C609 1.327 . S
C612 C600 1.349 . S
C612 H606 0.950 . S
C612 C613 1.327 . S
C613 H607 0.950 . S
C613 C612 1.327 . S
C613 C617 1.429 . S
C614 C597 1.574 1_565 S
C614 H608 0.949 . S
C614 C618 1.368 . S
C615 C596 1.429 . S
C615 C609 1.429 . S
C615 C616 1.523 . S
C616 C597 1.368 . S
C616 C610 1.368 . S
C616 C615 1.523 . S
C617 C601 1.429 . S
C617 C613 1.429 . S
C617 C618 1.523 . S
C618 C602 1.368 . S
C618 C614 1.368 . S
C618 C617 1.523 . S
H619 C594 0.950 . S
H620 C596 0.950 . S
H621 C597 0.949 . S
H622 C599 0.950 . S
H623 C601 0.950 . S
C624 C625 1.349 . S
C624 C626 1.327 . S
C624 H649 0.950 . S
C625 C624 1.349 . S
C625 C641 1.349 . S
C626 C624 1.327 . S
C626 C645 1.429 . S
C626 H650 0.950 . S
C627 C644 1.574 . S
C627 C646 1.368 . S
C627 H651 0.949 . S
H628 C632 0.949 . S
C629 C630 1.349 . S
C629 C631 1.327 . S
C629 H652 0.950 . S
C630 C629 1.349 . S
C630 C642 1.349 . S
C631 C629 1.327 . S
C631 C647 1.429 . S
C631 H653 0.950 . S
C632 H628 0.949 . S
C632 C640 1.574 . S
C632 C648 1.368 . S
H633 C641 0.950 . S
H634 C639 0.950 . S
H635 C640 0.949 . S
H636 C642 0.950 . S
H637 C643 0.950 . S
H638 C644 0.949 . S
C639 H634 0.950 . S
C639 C641 1.327 . S
C639 C645 1.429 . S
C640 C632 1.574 . S
C640 H635 0.949 . S
C640 C646 1.368 . S
C641 C625 1.349 . S
C641 H633 0.950 . S
C641 C639 1.327 . S
C642 C630 1.349 . S
C642 H636 0.950 . S
C642 C643 1.327 . S
C643 H637 0.950 . S
C643 C642 1.327 . S
C643 C647 1.429 . S
C644 C627 1.574 . S
C644 H638 0.949 . S
C644 C648 1.368 . S
C645 C626 1.429 . S
C645 C639 1.429 . S
C645 C646 1.523 . S
C646 C627 1.368 . S
C646 C640 1.368 . S
C646 C645 1.523 . S
C647 C631 1.429 . S
C647 C643 1.429 . S
C647 C648 1.523 . S
C648 C632 1.368 . S
C648 C644 1.368 . S
C648 C647 1.523 . S
H649 C624 0.950 . S
H650 C626 0.950 . S
H651 C627 0.949 . S
H652 C629 0.950 . S
H653 C631 0.950 . S
C205 C33 1.350 . S
C210 C70 1.315 . S
C235 C67 1.350 . S
C240 C104 1.315 . S
C265 C138 1.314 . S
C270 C101 1.349 . S
C295 C172 1.315 . S
C300 C135 1.350 . S
C325 C169 1.350 . S
C330 C2 1.315 . S
C355 C36 1.314 . S
C360 C203 1.349 . S
C385 C5 1.037 . S
C390 C9 1.032 . S
C415 C43 1.032 . S
C420 C39 1.037 . S
C445 C73 1.037 . S
C450 C77 1.032 . S
C475 C107 1.037 . S
C480 C111 1.032 . S
C505 C141 1.037 . S
C510 C145 1.032 . S
C535 C179 1.032 . S
C540 C175 1.037 . S
C565 C122 1.504 . S
C570 C20 1.504 . S
C595 C54 1.503 . S
C600 C156 1.503 . S
C625 C88 1.504 . S
C630 C190 1.504 . S
