# Generated by pormake.
# Topology hjm, (4)-cn, num edge types: 1
# Building blocks:
#     Node 0, Type 0, BuildingBlock: QUQFOY_clean_sbu_3, # of connection points: 4
#     Node 1, Type 0, BuildingBlock: QUQFOY_clean_sbu_3, # of connection points: 4
#     Node 2, Type 0, BuildingBlock: QUQFOY_clean_sbu_3, # of connection points: 4
#     Node 3, Type 0, BuildingBlock: QUQFOY_clean_sbu_3, # of connection points: 4
#     Node 4, Type 0, BuildingBlock: QUQFOY_clean_sbu_3, # of connection points: 4
#     Node 5, Type 0, BuildingBlock: QUQFOY_clean_sbu_3, # of connection points: 4
#     Node 6, Type 0, BuildingBlock: QUQFOY_clean_sbu_3, # of connection points: 4
#     Node 7, Type 0, BuildingBlock: QUQFOY_clean_sbu_3, # of connection points: 4
#     Edge 8, Type (0, 0), BuildingBlock: FUNLAD_clean_linker_0, # of connection points: 2
#     Edge 9, Type (0, 0), BuildingBlock: FUNLAD_clean_linker_0, # of connection points: 2
#     Edge 10, Type (0, 0), BuildingBlock: FUNLAD_clean_linker_0, # of connection points: 2
#     Edge 11, Type (0, 0), BuildingBlock: FUNLAD_clean_linker_0, # of connection points: 2
#     Edge 12, Type (0, 0), BuildingBlock: FUNLAD_clean_linker_0, # of connection points: 2
#     Edge 13, Type (0, 0), BuildingBlock: FUNLAD_clean_linker_0, # of connection points: 2
#     Edge 14, Type (0, 0), BuildingBlock: FUNLAD_clean_linker_0, # of connection points: 2
#     Edge 15, Type (0, 0), BuildingBlock: FUNLAD_clean_linker_0, # of connection points: 2
#     Edge 16, Type (0, 0), BuildingBlock: FUNLAD_clean_linker_0, # of connection points: 2
#     Edge 17, Type (0, 0), BuildingBlock: FUNLAD_clean_linker_0, # of connection points: 2
#     Edge 18, Type (0, 0), BuildingBlock: FUNLAD_clean_linker_0, # of connection points: 2
#     Edge 19, Type (0, 0), BuildingBlock: FUNLAD_clean_linker_0, # of connection points: 2
#     Edge 20, Type (0, 0), BuildingBlock: FUNLAD_clean_linker_0, # of connection points: 2
#     Edge 21, Type (0, 0), BuildingBlock: FUNLAD_clean_linker_0, # of connection points: 2
#     Edge 22, Type (0, 0), BuildingBlock: FUNLAD_clean_linker_0, # of connection points: 2
#     Edge 23, Type (0, 0), BuildingBlock: FUNLAD_clean_linker_0, # of connection points: 2
# Relax obj value: 0.092
# Max RMSD: 0.137
# Mean RMSD: 0.137
data_MOF--net-hjm--node1-QUQFOY_clean_sbu_3--edge1-FUNLAD_clean_linker_0
_symmetry_space_group_name_H-M    P1
_symmetry_Int_Tables_number       1
_symmetry_cell_setting            triclinic
loop_
_symmetry_equiv_pos_as_xyz
'x, y, z'
_cell_length_a     31.993744
_cell_length_b     27.590252
_cell_length_c     31.440746
_cell_angle_alpha  89.654449
_cell_angle_beta   59.469185
_cell_angle_gamma 89.81444
loop_
_atom_site_label
_atom_site_type_symbol
_atom_site_fract_x
_atom_site_fract_y
_atom_site_fract_z
_atom_type_partial_charge
C0 C 0.19901 0.29321 0.20886 0.0
O1 O 0.19901 0.33662 0.22201 0.0
Cd2 Cd 0.18949 0.35924 0.29888 0.0
O3 O 0.1938 0.25777 0.23751 0.0
Cd4 Cd 0.1805 0.24695 0.32262 0.0
C5 C 0.28825 0.30022 0.29022 0.0
O6 O 0.12147 0.31116 0.35481 0.0
O7 O 0.1444 0.28651 0.40474 0.0
O8 O 0.12794 0.17844 0.33203 0.0
C9 C 0.11505 0.31153 0.39785 0.0
O10 O 0.26715 0.3401 0.29234 0.0
C11 C 0.14187 0.15155 0.35536 0.0
O12 O 0.26609 0.26007 0.29707 0.0
O13 O 0.17579 0.16794 0.36099 0.0
C14 C 0.79213 0.2851 0.26879 0.0
O15 O 0.79075 0.32795 0.25457 0.0
Cd16 Cd 0.81157 0.35064 0.17312 0.0
O17 O 0.80441 0.24948 0.23901 0.0
Cd18 Cd 0.82854 0.23822 0.15077 0.0
C19 C 0.72301 0.28821 0.1675 0.0
O20 O 0.88465 0.30519 0.12479 0.0
O21 O 0.87742 0.27389 0.06647 0.0
O22 O 0.87966 0.16867 0.14459 0.0
C23 C 0.8996 0.30304 0.0792 0.0
O24 O 0.74017 0.32956 0.1681 0.0
C25 C 0.86312 0.14091 0.12451 0.0
O26 O 0.74678 0.24982 0.16377 0.0
O27 O 0.82952 0.1579 0.11853 0.0
C28 C 0.8972 0.66095 0.6565 0.0
O29 O 0.90971 0.68002 0.685 0.0
Cd30 Cd 0.86971 0.74613 0.73766 0.0
O31 O 0.86127 0.67771 0.65388 0.0
Cd32 Cd 0.80095 0.74503 0.69374 0.0
C33 C 0.88963 0.83077 0.64943 0.0
O34 O 0.78688 0.72191 0.77359 0.0
O35 O 0.75387 0.78972 0.7736 0.0
O36 O 0.74216 0.69292 0.6879 0.0
C37 C 0.75791 0.7554 0.79826 0.0
O38 O 0.89767 0.81673 0.68325 0.0
C39 C 0.72187 0.72698 0.67771 0.0
O40 O 0.85789 0.8095 0.64318 0.0
O41 O 0.74029 0.76891 0.67198 0.0
C42 C 0.1203 0.64391 0.81475 0.0
O43 O 0.0973 0.666 0.79735 0.0
Cd44 Cd 0.11561 0.74183 0.75634 0.0
O45 O 0.15796 0.66273 0.81235 0.0
Cd46 Cd 0.20575 0.7398 0.77736 0.0
C47 C 0.10875 0.81366 0.84854 0.0
O48 O 0.20046 0.73214 0.70459 0.0
O49 O 0.23709 0.7969 0.70511 0.0
O50 O 0.28121 0.69645 0.75552 0.0
C51 C 0.22369 0.76962 0.68199 0.0
O52 O 0.09177 0.80167 0.82123 0.0
C53 C 0.29692 0.72834 0.77289 0.0
O54 O 0.14822 0.79526 0.84184 0.0
O55 O 0.26914 0.76407 0.79445 0.0
C56 C 0.69518 0.80415 0.21126 0.0
O57 O 0.70202 0.84507 0.22499 0.0
Cd58 Cd 0.69535 0.86007 0.30225 0.0
O59 O 0.68631 0.76651 0.23844 0.0
Cd60 Cd 0.67831 0.74863 0.32045 0.0
C61 C 0.79037 0.79228 0.28832 0.0
O62 O 0.62307 0.81525 0.3564 0.0
O63 O 0.64351 0.78234 0.40536 0.0
O64 O 0.62251 0.68185 0.33253 0.0
C65 C 0.61551 0.81077 0.39968 0.0
O66 O 0.77278 0.83463 0.29297 0.0
C67 C 0.64121 0.65222 0.34923 0.0
O68 O 0.76454 0.75521 0.29376 0.0
O69 O 0.67826 0.66678 0.35025 0.0
C70 C 0.30329 0.77853 0.25475 0.0
O71 O 0.30862 0.82004 0.23499 0.0
Cd72 Cd 0.32739 0.83344 0.15245 0.0
O73 O 0.30755 0.74005 0.23046 0.0
Cd74 Cd 0.32557 0.71937 0.1456 0.0
C75 C 0.22663 0.78117 0.16072 0.0
O76 O 0.39144 0.77653 0.10702 0.0
O77 O 0.37053 0.74582 0.05785 0.0
O78 O 0.36987 0.64732 0.14681 0.0
C79 C 0.40073 0.77071 0.06326 0.0
O80 O 0.25084 0.81975 0.15457 0.0
C81 C 0.35041 0.61874 0.13037 0.0
O82 O 0.24428 0.73999 0.16155 0.0
O83 O 0.31771 0.6365 0.12337 0.0
C84 C 0.39624 0.15744 0.65442 0.0
O85 O 0.41197 0.18087 0.67806 0.0
Cd86 Cd 0.37633 0.2522 0.72337 0.0
O87 O 0.35901 0.17219 0.65302 0.0
Cd88 Cd 0.30022 0.24148 0.68865 0.0
C89 C 0.38879 0.32577 0.62943 0.0
O90 O 0.29271 0.22891 0.76768 0.0
O91 O 0.25856 0.29437 0.76308 0.0
O92 O 0.23704 0.18692 0.69452 0.0
C93 C 0.26464 0.26389 0.78977 0.0
O94 O 0.40136 0.31612 0.661 0.0
C95 C 0.21702 0.21845 0.6811 0.0
O96 O 0.35433 0.30257 0.62975 0.0
O97 O 0.23722 0.25974 0.66879 0.0
C98 C 0.62079 0.11964 0.8282 0.0
O99 O 0.59531 0.13738 0.81143 0.0
Cd100 Cd 0.60657 0.21395 0.77257 0.0
O101 O 0.65642 0.14326 0.82535 0.0
Cd102 Cd 0.69724 0.2228 0.79004 0.0
C103 C 0.59534 0.28823 0.86513 0.0
O104 O 0.69181 0.2125 0.71719 0.0
O105 O 0.72096 0.28139 0.7207 0.0
O106 O 0.77452 0.18302 0.7664 0.0
C107 C 0.71089 0.25215 0.69626 0.0
O108 O 0.57847 0.27347 0.83854 0.0
C109 C 0.79027 0.2165 0.78208 0.0
O110 O 0.6367 0.27393 0.85685 0.0
O111 O 0.76191 0.25196 0.8033 0.0
C112 C 0.12709 0.08089 0.41164 0.0
C113 C 0.11638 0.10583 0.37923 0.0
C114 C 0.09859 0.04166 0.43955 0.0
C115 C 0.05864 0.0266 0.43569 0.0
C116 C 0.0498 0.04964 0.40111 0.0
C117 C 0.07812 0.08909 0.3734 0.0
C118 C 0.02528 0.98754 0.46758 0.0
C119 C 0.01553 0.97967 0.51414 0.0
C120 C 0.9817 0.94189 0.5482 0.0
C121 C 0.98424 0.92978 0.59026 0.0
C122 C 0.95382 0.89443 0.6234 0.0
C123 C 0.91966 0.87036 0.61558 0.0
H124 H 0.94244 0.9276 0.50975 0.0
C125 C 0.91615 0.88317 0.57413 0.0
C126 C 0.94677 0.91858 0.54079 0.0
H127 H 0.89008 0.8655 0.5671 0.0
H128 H 0.15659 0.09257 0.41665 0.0
H129 H 0.10775 0.02354 0.46436 0.0
H130 H 0.01974 0.03829 0.39685 0.0
H131 H 0.0691 0.10735 0.34851 0.0
H132 H 0.0071 0.96652 0.4527 0.0
H133 H 0.03343 0.00204 0.52848 0.0
H134 H 0.01037 0.94735 0.59729 0.0
H135 H 0.95751 0.8857 0.65497 0.0
C136 C 0.03596 0.86583 0.89891 0.0
C137 C 0.08176 0.84924 0.8886 0.0
C138 C 0.01044 0.8999 0.93591 0.0
C139 C 0.02997 0.91819 0.96382 0.0
C140 C 0.07582 0.90183 0.95346 0.0
C141 C 0.10134 0.86743 0.91649 0.0
C142 C 0.005 0.95693 0.00112 0.0
C143 C 0.95643 0.96302 0.02562 0.0
C144 C 0.93122 0.00618 0.0562 0.0
C145 C 0.88598 0.01899 0.06235 0.0
C146 C 0.86298 0.06187 0.08622 0.0
C147 C 0.88443 0.09268 0.10514 0.0
H148 H 0.98553 0.02633 0.07504 0.0
C149 C 0.92829 0.07853 0.10173 0.0
C150 C 0.95154 0.0357 0.07745 0.0
H151 H 0.94551 0.10134 0.11634 0.0
H152 H 0.01982 0.85287 0.87804 0.0
H153 H 0.97612 0.91281 0.94131 0.0
H154 H 0.09201 0.91581 0.97392 0.0
H155 H 0.13661 0.85559 0.9094 0.0
H156 H 0.02781 0.98197 0.00673 0.0
H157 H 0.9341 0.93713 0.02018 0.0
H158 H 0.86918 -0.00329 0.04688 0.0
H159 H 0.82901 0.07151 0.08861 0.0
C160 C 0.45823 0.38373 0.58588 0.0
C161 C 0.41559 0.36335 0.59121 0.0
C162 C 0.48421 0.41849 0.5494 0.0
C163 C 0.46819 0.43373 0.51727 0.0
C164 C 0.42518 0.41404 0.52308 0.0
C165 C 0.39934 0.37888 0.55936 0.0
C166 C 0.49406 0.47214 0.4795 0.0
C167 C 0.54238 0.4791 0.4575 0.0
C168 C 0.56879 0.52092 0.42462 0.0
C169 C 0.61491 0.53234 0.41686 0.0
C170 C 0.63938 0.57389 0.3905 0.0
C171 C 0.61842 0.60491 0.37089 0.0
H172 H 0.51437 0.54239 0.40602 0.0
C173 C 0.57357 0.59215 0.37606 0.0
C174 C 0.54898 0.55054 0.40257 0.0
H175 H 0.55669 0.61511 0.36096 0.0
H176 H 0.47169 0.37283 0.6099 0.0
H177 H 0.5162 0.43408 0.54732 0.0
H178 H 0.41169 0.42566 0.49927 0.0
H179 H 0.36652 0.36411 0.5626 0.0
H180 H 0.47209 0.49542 0.47073 0.0
H181 H 0.56359 0.45441 0.46614 0.0
H182 H 0.63141 0.50998 0.43283 0.0
H183 H 0.67405 0.58248 0.38691 0.0
C184 C 0.41032 0.55267 0.11494 0.0
C185 C 0.36854 0.56876 0.11502 0.0
C186 C 0.432 0.50853 0.0931 0.0
C187 C 0.41228 0.47965 0.07083 0.0
C188 C 0.36861 0.49417 0.07417 0.0
C189 C 0.34709 0.53837 0.09575 0.0
C190 C 0.43715 0.43573 0.04157 0.0
C191 C 0.48571 0.42961 0.01781 0.0
C192 C 0.51162 0.39053 0.9812 0.0
C193 C 0.55848 0.37714 0.97015 0.0
C194 C 0.58548 0.34333 0.9331 0.0
C195 C 0.56637 0.32261 0.90583 0.0
H196 H 0.45714 0.37979 0.96018 0.0
C197 C 0.51934 0.3358 0.91712 0.0
C198 C 0.49234 0.36939 0.95421 0.0
H199 H 0.50349 0.32074 0.89677 0.0
H200 H 0.42741 0.57502 0.13003 0.0
H201 H 0.46456 0.49773 0.09305 0.0
H202 H 0.35225 0.47233 0.05794 0.0
H203 H 0.31466 0.54952 0.09562 0.0
H204 H 0.41488 0.40972 0.03619 0.0
H205 H 0.50809 0.45533 0.02332 0.0
H206 H 0.57447 0.39326 -0.01008 0.0
H207 H 0.62162 0.33408 0.92532 0.0
C208 C 0.95482 0.33404 -0.00681 0.0
C209 C 0.93853 0.33556 0.04387 0.0
C210 C 0.99006 0.36676 0.96062 0.0
C211 C 0.00922 0.40196 0.97837 0.0
C212 C 0.99453 0.40174 0.02865 0.0
C213 C 0.9595 0.36906 0.06108 0.0
C214 C 0.0423 0.44119 0.94665 0.0
C215 C 0.04255 0.45784 0.90621 0.0
C216 C 0.0661 0.50394 0.88087 0.0
C217 C 0.04755 0.52792 0.85459 0.0
C218 C 0.06546 0.57305 0.83314 0.0
C219 C 0.10291 0.59533 0.83692 0.0
H220 H 0.12097 0.50729 0.9022 0.0
C221 C 0.12293 0.57066 0.86167 0.0
C222 C 0.1047 0.5253 0.88349 0.0
H223 H 0.15223 0.58657 0.86465 0.0
H224 H 0.93996 0.30799 0.97877 0.0
H225 H 0.00176 0.36447 0.92181 0.0
H226 H 0.00896 0.42806 0.0433 0.0
H227 H 0.94817 0.37076 0.09989 0.0
H228 H 0.06205 0.46079 0.96075 0.0
H229 H 0.0196 0.44052 0.89459 0.0
H230 H 0.0181 0.51225 0.85164 0.0
H231 H 0.04951 0.59058 0.81382 0.0
C232 C 0.08281 0.35862 0.47626 0.0
C233 C 0.0794 0.34477 0.43526 0.0
C234 C 0.05148 0.39383 0.50868 0.0
C235 C 0.01607 0.41536 0.50066 0.0
C236 C 0.01095 0.39937 0.46137 0.0
C237 C 0.0426 0.36477 0.42867 0.0
C238 C 0.98503 0.45567 0.53141 0.0
C239 C 0.00171 0.48996 0.54923 0.0
C240 C 0.97357 0.53345 0.57629 0.0
C241 C 0.98823 0.55859 0.6051 0.0
C242 C 0.96368 0.60014 0.63064 0.0
C243 C 0.92393 0.61783 0.62771 0.0
H244 H 0.92276 0.53428 0.54943 0.0
C245 C 0.90964 0.59323 0.59818 0.0
C246 C 0.93427 0.55151 0.57257 0.0
H247 H 0.87938 0.60611 0.59489 0.0
H248 H 0.11055 0.3434 0.48244 0.0
H249 H 0.05528 0.40437 0.53965 0.0
H250 H 0.98359 0.41503 0.45483 0.0
H251 H 0.03873 0.35425 0.3977 0.0
H252 H 0.94905 0.45862 0.53625 0.0
H253 H 0.03813 0.48653 0.54335 0.0
H254 H 0.01868 0.54587 0.60818 0.0
H255 H 0.97587 0.61824 0.65288 0.0
C256 C 0.5756 0.04176 0.84533 0.0
C257 C 0.60866 0.07074 0.85071 0.0
C258 C 0.56186 -0.00349 0.86811 0.0
C259 C 0.58097 0.97896 0.89681 0.0
C260 C 0.61457 0.00753 0.90166 0.0
C261 C 0.62868 0.05286 0.87845 0.0
C262 C 0.56199 0.93402 0.92666 0.0
C263 C 0.54226 0.89754 0.91431 0.0
C264 C 0.51137 0.85918 0.9496 0.0
C265 C 0.47692 0.83595 0.9416 0.0
C266 C 0.44197 0.8053 0.97758 0.0
C267 C 0.44092 0.79748 0.02224 0.0
H268 H 0.53974 0.86324 -0.00052 0.0
C269 C 0.47741 0.81789 0.02878 0.0
C270 C 0.51257 0.84807 -0.0073 0.0
H271 H 0.47818 0.81142 0.0624 0.0
H272 H 0.55951 0.05436 0.82416 0.0
H273 H 0.5346 0.97654 0.86481 0.0
H274 H 0.62928 -0.00491 0.92416 0.0
H275 H 0.6542 0.07437 0.88332 0.0
H276 H 0.56116 0.93336 0.96156 0.0
H277 H 0.54436 0.89855 0.87874 0.0
H278 H 0.47551 0.84335 0.90846 0.0
H279 H 0.41456 0.78958 0.97136 0.0
C280 C 0.58169 0.85268 0.48119 0.0
C281 C 0.57828 0.84057 0.43977 0.0
C282 C 0.54875 0.88546 0.51595 0.0
C283 C 0.51168 0.90595 0.50993 0.0
C284 C 0.50653 0.89121 0.47032 0.0
C285 C 0.53983 0.85929 0.43524 0.0
C286 C 0.47954 0.94481 0.54234 0.0
C287 C 0.49618 0.98016 0.55911 0.0
C288 C 0.46814 0.0243 0.58461 0.0
C289 C 0.48422 0.05226 0.61057 0.0
C290 C 0.46091 0.09541 0.633 0.0
C291 C 0.42094 0.11188 0.6298 0.0
H292 H 0.41546 0.02133 0.56017 0.0
C293 C 0.40477 0.08409 0.60369 0.0
C294 C 0.4282 0.0408 0.58113 0.0
H295 H 0.37423 0.09588 0.60035 0.0
H296 H 0.61077 0.83834 0.48569 0.0
H297 H 0.55275 0.89524 0.547 0.0
H298 H 0.47799 0.90615 0.46521 0.0
H299 H 0.53596 0.84993 0.40399 0.0
H300 H 0.44316 0.94662 0.54809 0.0
H301 H 0.53301 0.97778 0.55228 0.0
H302 H 0.51514 0.04077 0.61343 0.0
H303 H 0.47442 0.11586 0.65282 0.0
C304 C 0.28528 0.81759 0.33389 0.0
C305 C 0.29267 0.77522 0.30626 0.0
C306 C 0.27565 0.8149 0.38238 0.0
C307 C 0.27363 0.76968 0.40423 0.0
C308 C 0.28056 0.72736 0.37678 0.0
C309 C 0.29009 0.73004 0.32827 0.0
C310 C 0.26217 0.76486 0.45609 0.0
C311 C 0.26682 0.80101 0.48209 0.0
C312 C 0.25373 0.79473 0.53433 0.0
C313 C 0.27718 0.82269 0.55327 0.0
C314 C 0.26678 0.81572 0.60186 0.0
C315 C 0.23262 0.78074 0.63215 0.0
H316 H 0.19725 0.74097 0.55331 0.0
C317 C 0.20772 0.75438 0.61381 0.0
C318 C 0.21782 0.76153 0.56567 0.0
H319 H 0.18045 0.72784 0.63663 0.0
H320 H 0.28657 0.85301 0.31823 0.0
H321 H 0.26893 0.84832 0.40264 0.0
H322 H 0.27869 0.69202 0.39287 0.0
H323 H 0.29552 0.69671 0.30807 0.0
H324 H 0.25083 0.72922 0.47291 0.0
H325 H 0.28268 0.83538 0.46437 0.0
H326 H 0.30442 0.8491 0.53009 0.0
H327 H 0.28628 0.83672 0.61523 0.0
C328 C 0.71318 0.79824 0.87973 0.0
C329 C 0.73523 0.75621 0.85243 0.0
C330 C 0.69622 0.79928 0.93045 0.0
C331 C 0.7011 0.75819 0.95446 0.0
C332 C 0.7203 0.71547 0.92758 0.0
C333 C 0.73747 0.71453 0.87709 0.0
C334 C 0.68934 0.75883 0.00653 0.0
C335 C 0.69397 0.79893 0.02794 0.0
C336 C 0.69254 0.79882 0.07595 0.0
C337 C 0.7114 0.83924 0.0874 0.0
C338 C 0.71284 0.84054 0.13094 0.0
C339 C 0.69542 0.80132 0.16423 0.0
H340 H 0.65822 0.72835 0.1033 0.0
C341 C 0.67618 0.76088 0.15317 0.0
C342 C 0.67437 0.75973 0.10968 0.0
H343 H 0.66172 0.73045 0.17851 0.0
H344 H 0.71032 0.83063 0.86173 0.0
H345 H 0.67998 0.83237 0.95048 0.0
H346 H 0.72394 0.68318 0.94525 0.0
H347 H 0.75355 0.6813 0.85717 0.0
H348 H 0.68301 0.724 0.02493 0.0
H349 H 0.70401 0.83279 0.00731 0.0
H350 H 0.72558 0.86991 0.06232 0.0
H351 H 0.72775 0.87239 0.1384 0.0
C352 C 0.76359 0.31584 0.35383 0.0
C353 C 0.78034 0.27713 0.32026 0.0
C354 C 0.75364 0.30917 0.40209 0.0
C355 C 0.76072 0.26363 0.41777 0.0
C356 C 0.77651 0.22471 0.38455 0.0
C357 C 0.78636 0.23136 0.33622 0.0
C358 C 0.75033 0.2549 0.46884 0.0
C359 C 0.7494 0.29026 0.49874 0.0
C360 C 0.73815 0.2808 0.54999 0.0
C361 C 0.75556 0.31278 0.57209 0.0
C362 C 0.74625 0.30417 0.62005 0.0
C363 C 0.71917 0.26347 0.64668 0.0
H364 H 0.69366 0.21677 0.56277 0.0
C365 C 0.70052 0.23238 0.62512 0.0
C366 C 0.70957 0.24109 0.57751 0.0
H367 H 0.67881 0.20113 0.64505 0.0
H368 H 0.75796 0.35148 0.34295 0.0
H369 H 0.73977 0.33967 0.42696 0.0
H370 H 0.78167 0.18909 0.39587 0.0
H371 H 0.79906 0.20075 0.31134 0.0
H372 H 0.74521 0.21746 0.48132 0.0
H373 H 0.75931 0.32704 0.48482 0.0
H374 H 0.77707 0.34406 0.55193 0.0
H375 H 0.76085 0.32886 0.6359 0.0
C376 C 0.20491 0.32362 0.131 0.0
C377 C 0.20396 0.28433 0.16019 0.0
C378 C 0.20919 0.31583 0.08519 0.0
C379 C 0.21251 0.26847 0.06756 0.0
C380 C 0.21208 0.22922 0.09642 0.0
C381 C 0.20751 0.23699 0.14248 0.0
C382 C 0.21958 0.25891 0.01803 0.0
C383 C 0.20404 0.28901 -0.00507 0.0
C384 C 0.21505 0.28114 0.94357 0.0
C385 C 0.21492 0.32104 0.91557 0.0
C386 C 0.22939 0.31559 0.8657 0.0
C387 C 0.24436 0.27011 0.84318 0.0
H388 H 0.22517 0.20291 0.94217 0.0
C389 C 0.24194 0.22983 0.87182 0.0
C390 C 0.22696 0.2351 0.92154 0.0
H391 H 0.25211 0.19406 0.85563 0.0
H392 H 0.20254 0.36061 0.14337 0.0
H393 H 0.21114 0.34709 0.06332 0.0
H394 H 0.2152 0.19239 0.08332 0.0
H395 H 0.20705 0.20596 0.16398 0.0
H396 H 0.23911 0.22603 0.00011 0.0
H397 H 0.1845 0.32183 0.01321 0.0
H398 H 0.20514 0.35678 0.93185 0.0
H399 H 0.23054 0.34714 0.84445 0.0
C400 C 0.36637 0.25783 0.26854 0.0
C401 C 0.33961 0.30097 0.27785 0.0
C402 C 0.4154 0.25914 0.25491 0.0
C403 C 0.43869 0.30375 0.25031 0.0
C404 C 0.41158 0.34663 0.26066 0.0
C405 C 0.3628 0.34535 0.27397 0.0
C406 C 0.49056 0.30748 0.23629 0.0
C407 C 0.52435 0.27334 0.21084 0.0
C408 C 0.57608 0.27824 0.19716 0.0
C409 C 0.60382 0.23619 0.18951 0.0
C410 C 0.65192 0.23931 0.17863 0.0
C411 C 0.67353 0.28471 0.1747 0.0
H412 H 0.57904 0.35707 0.19466 0.0
C413 C 0.64639 0.32685 0.18031 0.0
C414 C 0.59834 0.32371 0.1912 0.0
H415 H 0.66201 0.36243 0.17693 0.0
H416 H 0.34957 0.223 0.27143 0.0
H417 H 0.43449 0.22513 0.24876 0.0
H418 H 0.42837 0.38146 0.2579 0.0
H419 H 0.34335 0.37932 0.28106 0.0
H420 H 0.50113 0.34046 0.24702 0.0
H421 H 0.51399 0.24003 0.20043 0.0
H422 H 0.58787 0.20071 0.19314 0.0
H423 H 0.6718 0.20608 0.17428 0.0
C424 C 0.65053 0.75887 0.67382 0.0
C425 C 0.67595 0.71923 0.67798 0.0
C426 C 0.60393 0.75277 0.68123 0.0
C427 C 0.58166 0.70685 0.69312 0.0
C428 C 0.60823 0.6668 0.69427 0.0
C429 C 0.65478 0.67292 0.68711 0.0
C430 C 0.53073 0.69977 0.70505 0.0
C431 C 0.49653 0.7344 0.72695 0.0
C432 C 0.44475 0.729 0.74092 0.0
C433 C 0.4112 0.76351 0.77277 0.0
C434 C 0.36282 0.76219 0.78462 0.0
C435 C 0.34672 0.72628 0.7648 0.0
H436 H 0.45291 0.66549 0.69651 0.0
C437 C 0.37982 0.69091 0.73393 0.0
C438 C 0.42837 0.69231 0.7219 0.0
H439 H 0.36863 0.663 0.71771 0.0
H440 H 0.66597 0.79496 0.66638 0.0
H441 H 0.58533 0.7842 0.67807 0.0
H442 H 0.59225 0.63092 0.70258 0.0
H443 H 0.67352 0.64158 0.69029 0.0
H444 H 0.52088 0.6641 0.69871 0.0
H445 H 0.50644 0.76833 0.73689 0.0
H446 H 0.42262 0.79222 0.788 0.0
H447 H 0.3383 0.79006 0.80844 0.0
C448 C 0.14747 0.74307 0.18042 0.0
C449 C 0.17657 0.78465 0.16945 0.0
C450 C 0.09931 0.74686 0.19157 0.0
C451 C 0.07909 0.79247 0.19218 0.0
C452 C 0.1087 0.83372 0.17966 0.0
C453 C 0.15674 0.82996 0.16865 0.0
C454 C 0.02769 0.79884 0.20517 0.0
C455 C 0.99205 0.76676 0.23227 0.0
C456 C 0.94046 0.77449 0.2466 0.0
C457 C 0.91018 0.73399 0.25736 0.0
C458 C 0.86145 0.73968 0.27114 0.0
C459 C 0.84169 0.78617 0.27504 0.0
H460 H 0.942 0.85335 0.24518 0.0
C461 C 0.87173 0.8268 0.2653 0.0
C462 C 0.92049 0.82109 0.25135 0.0
H463 H 0.85766 0.86316 0.26832 0.0
H464 H 0.16169 0.70752 0.18094 0.0
H465 H 0.07844 0.71389 0.19927 0.0
H466 H 0.09435 0.86926 0.17928 0.0
H467 H 0.17811 0.86276 0.1601 0.0
H468 H 0.01897 0.83216 0.19282 0.0
H469 H 0.00049 0.73319 0.24444 0.0
H470 H 0.9244 0.69771 0.25459 0.0
H471 H 0.83935 0.70757 0.27859 0.0
C472 C 0.14587 0.24676 0.67503 0.0
C473 C 0.16997 0.20916 0.68428 0.0
C474 C 0.09874 0.2401 0.68413 0.0
C475 C 0.07462 0.19567 0.70286 0.0
C476 C 0.09973 0.15726 0.70941 0.0
C477 C 0.14683 0.16399 0.70054 0.0
C478 C 0.02333 0.18853 0.7162 0.0
C479 C 0.99067 0.22494 0.73309 0.0
C480 C 0.93872 0.21952 0.74794 0.0
C481 C 0.90601 0.25607 0.77676 0.0
C482 C 0.85745 0.25428 0.78923 0.0
C483 C 0.84045 0.21591 0.77294 0.0
H484 H 0.94549 0.1522 0.70915 0.0
C485 C 0.87282 0.17878 0.74489 0.0
C486 C 0.92148 0.18059 0.73233 0.0
H487 H 0.86092 0.14891 0.73142 0.0
H488 H 0.16286 0.28186 0.66203 0.0
H489 H 0.08125 0.26995 0.67676 0.0
H490 H 0.08225 0.12245 0.72308 0.0
H491 H 0.16454 0.13421 0.70777 0.0
H492 H 0.01182 0.15181 0.71523 0.0
H493 H 0.00197 0.26048 0.73817 0.0
H494 H 0.91821 0.28657 0.78919 0.0
H495 H 0.8335 0.28355 0.81077 0.0
loop_
_geom_bond_atom_site_label_1
_geom_bond_atom_site_label_2
_geom_bond_distance
_geom_bond_site_symmetry_2
_ccdc_geom_bond_type
C0 O1 1.306 . S
C0 O3 1.160 . S
O1 C0 1.306 . S
O1 Cd2 2.228 . S
Cd2 O1 2.228 . S
Cd2 O6 2.273 . S
Cd2 O10 2.277 . S
O3 C0 1.160 . S
O3 Cd4 2.203 . S
Cd4 O3 2.203 . S
Cd4 O6 2.411 . S
Cd4 O7 2.333 . S
Cd4 O8 2.352 . S
Cd4 O12 2.277 . S
Cd4 O13 2.356 . S
C5 O10 1.209 . S
C5 O12 1.226 . S
O6 Cd2 2.273 . S
O6 Cd4 2.411 . S
O6 C9 1.320 . S
O7 Cd4 2.333 . S
O7 C9 1.214 . S
O8 Cd4 2.352 . S
O8 C11 1.258 . S
C9 O6 1.320 . S
C9 O7 1.214 . S
O10 Cd2 2.277 . S
O10 C5 1.209 . S
C11 O8 1.258 . S
C11 O13 1.282 . S
O12 Cd4 2.277 . S
O12 C5 1.226 . S
O13 Cd4 2.356 . S
O13 C11 1.282 . S
C14 O15 1.306 . S
C14 O17 1.160 . S
O15 C14 1.306 . S
O15 Cd16 2.228 . S
Cd16 O15 2.228 . S
Cd16 O20 2.273 . S
Cd16 O24 2.277 . S
O17 C14 1.160 . S
O17 Cd18 2.203 . S
Cd18 O17 2.203 . S
Cd18 O20 2.411 . S
Cd18 O21 2.333 . S
Cd18 O22 2.352 . S
Cd18 O26 2.277 . S
Cd18 O27 2.356 . S
C19 O24 1.209 . S
C19 O26 1.226 . S
O20 Cd16 2.273 . S
O20 Cd18 2.411 . S
O20 C23 1.320 . S
O21 Cd18 2.333 . S
O21 C23 1.214 . S
O22 Cd18 2.352 . S
O22 C25 1.258 . S
C23 O20 1.320 . S
C23 O21 1.214 . S
O24 Cd16 2.277 . S
O24 C19 1.209 . S
C25 O22 1.258 . S
C25 O27 1.282 . S
O26 Cd18 2.277 . S
O26 C19 1.226 . S
O27 Cd18 2.356 . S
O27 C25 1.282 . S
C28 O29 1.306 . S
C28 O31 1.160 . S
O29 C28 1.306 . S
O29 Cd30 2.228 . S
Cd30 O29 2.228 . S
Cd30 O34 2.273 . S
Cd30 O38 2.277 . S
O31 C28 1.160 . S
O31 Cd32 2.203 . S
Cd32 O31 2.203 . S
Cd32 O34 2.411 . S
Cd32 O35 2.333 . S
Cd32 O36 2.352 . S
Cd32 O40 2.277 . S
Cd32 O41 2.356 . S
C33 O38 1.209 . S
C33 O40 1.226 . S
O34 Cd30 2.273 . S
O34 Cd32 2.411 . S
O34 C37 1.320 . S
O35 Cd32 2.333 . S
O35 C37 1.214 . S
O36 Cd32 2.352 . S
O36 C39 1.258 . S
C37 O34 1.320 . S
C37 O35 1.214 . S
O38 Cd30 2.277 . S
O38 C33 1.209 . S
C39 O36 1.258 . S
C39 O41 1.282 . S
O40 Cd32 2.277 . S
O40 C33 1.226 . S
O41 Cd32 2.356 . S
O41 C39 1.282 . S
C42 O43 1.306 . S
C42 O45 1.160 . S
O43 C42 1.306 . S
O43 Cd44 2.228 . S
Cd44 O43 2.228 . S
Cd44 O48 2.273 . S
Cd44 O52 2.277 . S
O45 C42 1.160 . S
O45 Cd46 2.203 . S
Cd46 O45 2.203 . S
Cd46 O48 2.411 . S
Cd46 O49 2.333 . S
Cd46 O50 2.352 . S
Cd46 O54 2.277 . S
Cd46 O55 2.356 . S
C47 O52 1.209 . S
C47 O54 1.226 . S
O48 Cd44 2.273 . S
O48 Cd46 2.411 . S
O48 C51 1.320 . S
O49 Cd46 2.333 . S
O49 C51 1.214 . S
O50 Cd46 2.352 . S
O50 C53 1.258 . S
C51 O48 1.320 . S
C51 O49 1.214 . S
O52 Cd44 2.277 . S
O52 C47 1.209 . S
C53 O50 1.258 . S
C53 O55 1.282 . S
O54 Cd46 2.277 . S
O54 C47 1.226 . S
O55 Cd46 2.356 . S
O55 C53 1.282 . S
C56 O57 1.306 . S
C56 O59 1.160 . S
O57 C56 1.306 . S
O57 Cd58 2.228 . S
Cd58 O57 2.228 . S
Cd58 O62 2.273 . S
Cd58 O66 2.277 . S
O59 C56 1.160 . S
O59 Cd60 2.203 . S
Cd60 O59 2.203 . S
Cd60 O62 2.411 . S
Cd60 O63 2.333 . S
Cd60 O64 2.352 . S
Cd60 O68 2.277 . S
Cd60 O69 2.356 . S
C61 O66 1.209 . S
C61 O68 1.226 . S
O62 Cd58 2.273 . S
O62 Cd60 2.411 . S
O62 C65 1.320 . S
O63 Cd60 2.333 . S
O63 C65 1.214 . S
O64 Cd60 2.352 . S
O64 C67 1.258 . S
C65 O62 1.320 . S
C65 O63 1.214 . S
O66 Cd58 2.277 . S
O66 C61 1.209 . S
C67 O64 1.258 . S
C67 O69 1.282 . S
O68 Cd60 2.277 . S
O68 C61 1.226 . S
O69 Cd60 2.356 . S
O69 C67 1.282 . S
C70 O71 1.306 . S
C70 O73 1.160 . S
O71 C70 1.306 . S
O71 Cd72 2.228 . S
Cd72 O71 2.228 . S
Cd72 O76 2.273 . S
Cd72 O80 2.277 . S
O73 C70 1.160 . S
O73 Cd74 2.203 . S
Cd74 O73 2.203 . S
Cd74 O76 2.411 . S
Cd74 O77 2.333 . S
Cd74 O78 2.352 . S
Cd74 O82 2.277 . S
Cd74 O83 2.356 . S
C75 O80 1.209 . S
C75 O82 1.226 . S
O76 Cd72 2.273 . S
O76 Cd74 2.411 . S
O76 C79 1.320 . S
O77 Cd74 2.333 . S
O77 C79 1.214 . S
O78 Cd74 2.352 . S
O78 C81 1.258 . S
C79 O76 1.320 . S
C79 O77 1.214 . S
O80 Cd72 2.277 . S
O80 C75 1.209 . S
C81 O78 1.258 . S
C81 O83 1.282 . S
O82 Cd74 2.277 . S
O82 C75 1.226 . S
O83 Cd74 2.356 . S
O83 C81 1.282 . S
C84 O85 1.306 . S
C84 O87 1.160 . S
O85 C84 1.306 . S
O85 Cd86 2.228 . S
Cd86 O85 2.228 . S
Cd86 O90 2.273 . S
Cd86 O94 2.277 . S
O87 C84 1.160 . S
O87 Cd88 2.203 . S
Cd88 O87 2.203 . S
Cd88 O90 2.411 . S
Cd88 O91 2.333 . S
Cd88 O92 2.352 . S
Cd88 O96 2.277 . S
Cd88 O97 2.356 . S
C89 O94 1.209 . S
C89 O96 1.226 . S
O90 Cd86 2.273 . S
O90 Cd88 2.411 . S
O90 C93 1.320 . S
O91 Cd88 2.333 . S
O91 C93 1.214 . S
O92 Cd88 2.352 . S
O92 C95 1.258 . S
C93 O90 1.320 . S
C93 O91 1.214 . S
O94 Cd86 2.277 . S
O94 C89 1.209 . S
C95 O92 1.258 . S
C95 O97 1.282 . S
O96 Cd88 2.277 . S
O96 C89 1.226 . S
O97 Cd88 2.356 . S
O97 C95 1.282 . S
C98 O99 1.306 . S
C98 O101 1.160 . S
O99 C98 1.306 . S
O99 Cd100 2.228 . S
Cd100 O99 2.228 . S
Cd100 O104 2.273 . S
Cd100 O108 2.277 . S
O101 C98 1.160 . S
O101 Cd102 2.203 . S
Cd102 O101 2.203 . S
Cd102 O104 2.411 . S
Cd102 O105 2.333 . S
Cd102 O106 2.352 . S
Cd102 O110 2.277 . S
Cd102 O111 2.356 . S
C103 O108 1.209 . S
C103 O110 1.226 . S
O104 Cd100 2.273 . S
O104 Cd102 2.411 . S
O104 C107 1.320 . S
O105 Cd102 2.333 . S
O105 C107 1.214 . S
O106 Cd102 2.352 . S
O106 C109 1.258 . S
C107 O104 1.320 . S
C107 O105 1.214 . S
O108 Cd100 2.277 . S
O108 C103 1.209 . S
C109 O106 1.258 . S
C109 O111 1.282 . S
O110 Cd102 2.277 . S
O110 C103 1.226 . S
O111 Cd102 2.356 . S
O111 C109 1.282 . S
C112 C113 1.386 . S
C112 C114 1.383 . S
C112 H128 0.951 . S
C113 C112 1.386 . S
C113 C117 1.383 . S
C114 C112 1.383 . S
C114 C115 1.402 . S
C114 H129 0.951 . S
C115 C114 1.402 . S
C115 C116 1.375 . S
C115 C118 1.481 1_455 S
C116 C115 1.375 . S
C116 C117 1.367 . S
C116 H130 0.951 1_455 S
C117 C113 1.383 . S
C117 C116 1.367 . S
C117 H131 0.950 . S
C118 C115 1.481 1_655 S
C118 C119 1.297 1_645 S
C118 H132 0.950 . S
C119 C118 1.297 1_465 S
C119 C120 1.479 1_455 S
C119 H133 0.950 . S
C120 C119 1.479 1_655 S
C120 C121 1.372 1_655 S
C120 C126 1.404 . S
C121 C120 1.372 1_455 S
C121 C122 1.364 1_455 S
C121 H134 0.958 . S
C122 C121 1.364 1_655 S
C122 C123 1.392 . S
C122 H135 0.951 . S
C123 C122 1.392 . S
C123 C125 1.384 . S
H124 C126 0.949 . S
C125 C123 1.384 . S
C125 C126 1.385 . S
C125 H127 0.950 . S
C126 C120 1.404 . S
C126 H124 0.949 . S
C126 C125 1.385 . S
H127 C125 0.950 . S
H128 C112 0.951 . S
H129 C114 0.951 . S
H130 C116 0.951 1_655 S
H131 C117 0.950 . S
H132 C118 0.950 . S
H133 C119 0.950 . S
H134 C121 0.958 . S
H135 C122 0.951 . S
C136 C137 1.386 . S
C136 C138 1.383 . S
C136 H152 0.951 . S
C137 C136 1.386 . S
C137 C141 1.383 . S
C138 C136 1.383 . S
C138 C139 1.402 . S
C138 H153 0.951 . S
C139 C138 1.402 . S
C139 C140 1.375 . S
C139 C142 1.481 1_456 S
C140 C139 1.375 . S
C140 C141 1.367 . S
C140 H154 0.951 1_556 S
C141 C137 1.383 . S
C141 C140 1.367 . S
C141 H155 0.950 . S
C142 C139 1.481 1_654 S
C142 C143 1.297 1_564 S
C142 H156 0.950 . S
C143 C142 1.297 1_546 S
C143 C144 1.479 1_556 S
C143 H157 0.950 . S
C144 C143 1.479 1_554 S
C144 C145 1.375 . S
C144 C150 1.404 . S
C145 C144 1.375 . S
C145 C146 1.369 . S
C145 H158 0.950 1_554 S
C146 C145 1.369 . S
C146 C147 1.392 . S
C146 H159 0.951 . S
C147 C146 1.392 . S
C147 C149 1.384 . S
H148 C150 0.949 . S
C149 C147 1.384 . S
C149 C150 1.385 . S
C149 H151 0.950 . S
C150 C144 1.404 . S
C150 H148 0.949 . S
C150 C149 1.385 . S
H151 C149 0.950 . S
H152 C136 0.951 . S
H153 C138 0.951 . S
H154 C140 0.951 1_554 S
H155 C141 0.950 . S
H156 C142 0.950 . S
H157 C143 0.950 . S
H158 C145 0.950 1_556 S
H159 C146 0.951 . S
C160 C161 1.386 . S
C160 C162 1.383 . S
C160 H176 0.951 . S
C161 C160 1.386 . S
C161 C165 1.383 . S
C162 C160 1.383 . S
C162 C163 1.402 . S
C162 H177 0.951 . S
C163 C162 1.402 . S
C163 C164 1.375 . S
C163 C166 1.481 . S
C164 C163 1.375 . S
C164 C165 1.367 . S
C164 H178 0.951 . S
C165 C161 1.383 . S
C165 C164 1.367 . S
C165 H179 0.950 . S
C166 C163 1.481 . S
C166 C167 1.297 . S
C166 H180 0.950 . S
C167 C166 1.297 . S
C167 C168 1.479 . S
C167 H181 0.950 . S
C168 C167 1.479 . S
C168 C169 1.375 . S
C168 C174 1.404 . S
C169 C168 1.375 . S
C169 C170 1.369 . S
C169 H182 0.950 . S
C170 C169 1.369 . S
C170 C171 1.392 . S
C170 H183 0.951 . S
C171 C170 1.392 . S
C171 C173 1.384 . S
H172 C174 0.949 . S
C173 C171 1.384 . S
C173 C174 1.385 . S
C173 H175 0.950 . S
C174 C168 1.404 . S
C174 H172 0.949 . S
C174 C173 1.385 . S
H175 C173 0.950 . S
H176 C160 0.951 . S
H177 C162 0.951 . S
H178 C164 0.951 . S
H179 C165 0.950 . S
H180 C166 0.950 . S
H181 C167 0.950 . S
H182 C169 0.950 . S
H183 C170 0.951 . S
C184 C185 1.386 . S
C184 C186 1.383 . S
C184 H200 0.951 . S
C185 C184 1.386 . S
C185 C189 1.383 . S
C186 C184 1.383 . S
C186 C187 1.402 . S
C186 H201 0.951 . S
C187 C186 1.402 . S
C187 C188 1.375 . S
C187 C190 1.481 . S
C188 C187 1.375 . S
C188 C189 1.367 . S
C188 H202 0.951 . S
C189 C185 1.383 . S
C189 C188 1.367 . S
C189 H203 0.950 . S
C190 C187 1.481 . S
C190 C191 1.297 . S
C190 H204 0.950 . S
C191 C190 1.297 . S
C191 C192 1.479 1_554 S
C191 H205 0.950 . S
C192 C191 1.479 1_556 S
C192 C193 1.375 . S
C192 C198 1.404 . S
C193 C192 1.375 . S
C193 C194 1.369 . S
C193 H206 0.950 . S
C194 C193 1.369 . S
C194 C195 1.392 . S
C194 H207 0.951 . S
C195 C194 1.392 . S
C195 C197 1.384 . S
H196 C198 0.949 . S
C197 C195 1.384 . S
C197 C198 1.385 . S
C197 H199 0.950 . S
C198 C192 1.404 . S
C198 H196 0.949 . S
C198 C197 1.385 . S
H199 C197 0.950 . S
H200 C184 0.951 . S
H201 C186 0.951 . S
H202 C188 0.951 . S
H203 C189 0.950 . S
H204 C190 0.950 . S
H205 C191 0.950 . S
H206 C193 0.950 . S
H207 C194 0.951 . S
C208 C209 1.386 . S
C208 C210 1.383 . S
C208 H224 0.951 . S
C209 C208 1.386 . S
C209 C213 1.383 . S
C210 C208 1.383 . S
C210 C211 1.402 . S
C210 H225 0.951 . S
C211 C210 1.402 . S
C211 C212 1.375 . S
C211 C214 1.481 . S
C212 C211 1.375 . S
C212 C213 1.367 . S
C212 H226 0.974 . S
C213 C209 1.383 . S
C213 C212 1.367 . S
C213 H227 0.950 . S
C214 C211 1.481 . S
C214 C215 1.297 . S
C214 H228 0.950 1_655 S
C215 C214 1.297 . S
C215 C216 1.479 1_654 S
C215 H229 0.950 . S
C216 C215 1.479 1_456 S
C216 C217 1.375 . S
C216 C222 1.404 . S
C217 C216 1.375 . S
C217 C218 1.369 . S
C217 H230 0.950 1_455 S
C218 C217 1.369 . S
C218 C219 1.392 . S
C218 H231 0.951 . S
C219 C218 1.392 . S
C219 C221 1.384 . S
H220 C222 0.949 . S
C221 C219 1.384 . S
C221 C222 1.385 . S
C221 H223 0.950 . S
C222 C216 1.404 . S
C222 H220 0.949 . S
C222 C221 1.385 . S
H223 C221 0.950 . S
H224 C208 0.951 . S
H225 C210 0.951 . S
H226 C212 0.974 . S
H227 C213 0.950 . S
H228 C214 0.950 1_455 S
H229 C215 0.950 . S
H230 C217 0.950 1_655 S
H231 C218 0.951 . S
C232 C233 1.386 . S
C232 C234 1.383 . S
C232 H248 0.951 . S
C233 C232 1.386 . S
C233 C237 1.383 . S
C234 C232 1.383 . S
C234 C235 1.402 . S
C234 H249 0.951 . S
C235 C234 1.402 . S
C235 C236 1.375 . S
C235 C238 1.481 . S
C236 C235 1.375 . S
C236 C237 1.367 . S
C236 H250 0.951 . S
C237 C233 1.383 . S
C237 C236 1.367 . S
C237 H251 0.950 . S
C238 C235 1.481 . S
C238 C239 1.297 . S
C238 H252 0.950 . S
C239 C238 1.297 . S
C239 C240 1.479 1_455 S
C239 H253 0.950 . S
C240 C239 1.479 1_655 S
C240 C241 1.375 . S
C240 C246 1.404 . S
C241 C240 1.375 . S
C241 C242 1.369 . S
C241 H254 0.950 . S
C242 C241 1.369 . S
C242 C243 1.392 . S
C242 H255 0.951 . S
C243 C242 1.392 . S
C243 C245 1.384 . S
H244 C246 0.949 . S
C245 C243 1.384 . S
C245 C246 1.385 . S
C245 H247 0.950 . S
C246 C240 1.404 . S
C246 H244 0.949 . S
C246 C245 1.385 . S
H247 C245 0.950 . S
H248 C232 0.951 . S
H249 C234 0.951 . S
H250 C236 0.951 . S
H251 C237 0.950 . S
H252 C238 0.950 . S
H253 C239 0.950 . S
H254 C241 0.950 . S
H255 C242 0.951 . S
C256 C257 1.386 . S
C256 C258 1.383 . S
C256 H272 0.951 . S
C257 C256 1.386 . S
C257 C261 1.383 . S
C258 C256 1.383 . S
C258 C259 1.402 . S
C258 H273 0.951 . S
C259 C258 1.402 . S
C259 C260 1.375 . S
C259 C262 1.481 1_556 S
C260 C259 1.375 . S
C260 C261 1.367 . S
C260 H274 0.951 1_556 S
C261 C257 1.383 . S
C261 C260 1.367 . S
C261 H275 0.950 . S
C262 C259 1.481 1_554 S
C262 C263 1.297 1_545 S
C262 H276 0.950 . S
C263 C262 1.297 1_565 S
C263 C264 1.479 . S
C263 H277 0.950 1_554 S
C264 C263 1.479 . S
C264 C265 1.375 . S
C264 C270 1.404 . S
C265 C264 1.375 . S
C265 C266 1.369 . S
C265 H278 0.950 1_554 S
C266 C265 1.369 . S
C266 C267 1.392 . S
C266 H279 0.951 . S
C267 C266 1.392 . S
C267 C269 1.384 . S
H268 C270 0.949 . S
C269 C267 1.384 . S
C269 C270 1.385 . S
C269 H271 0.950 . S
C270 C264 1.404 . S
C270 H268 0.949 . S
C270 C269 1.385 . S
H271 C269 0.950 . S
H272 C256 0.951 . S
H273 C258 0.951 . S
H274 C260 0.951 1_554 S
H275 C261 0.950 . S
H276 C262 0.950 . S
H277 C263 0.950 1_556 S
H278 C265 0.950 1_556 S
H279 C266 0.951 . S
C280 C281 1.386 . S
C280 C282 1.383 . S
C280 H296 0.951 . S
C281 C280 1.386 . S
C281 C285 1.383 . S
C282 C280 1.383 . S
C282 C283 1.402 . S
C282 H297 0.951 . S
C283 C282 1.402 . S
C283 C284 1.375 . S
C283 C286 1.481 1_565 S
C284 C283 1.375 . S
C284 C285 1.367 . S
C284 H298 0.951 . S
C285 C281 1.383 . S
C285 C284 1.367 . S
C285 H299 0.950 . S
C286 C283 1.481 1_545 S
C286 C287 1.297 . S
C286 H300 0.950 . S
C287 C286 1.297 . S
C287 C288 1.479 . S
C287 H301 0.950 . S
C288 C287 1.479 . S
C288 C289 1.375 . S
C288 C294 1.404 . S
C289 C288 1.375 . S
C289 C290 1.369 . S
C289 H302 0.950 . S
C290 C289 1.369 . S
C290 C291 1.392 . S
C290 H303 0.951 . S
C291 C290 1.392 . S
C291 C293 1.384 . S
H292 C294 0.949 . S
C293 C291 1.384 . S
C293 C294 1.385 . S
C293 H295 0.950 . S
C294 C288 1.404 . S
C294 H292 0.949 . S
C294 C293 1.385 . S
H295 C293 0.950 . S
H296 C280 0.951 . S
H297 C282 0.951 . S
H298 C284 0.951 . S
H299 C285 0.950 . S
H300 C286 0.950 . S
H301 C287 0.950 . S
H302 C289 0.950 . S
H303 C290 0.951 . S
C304 C305 1.386 . S
C304 C306 1.383 . S
C304 H320 0.951 . S
C305 C304 1.386 . S
C305 C309 1.383 . S
C306 C304 1.383 . S
C306 C307 1.402 . S
C306 H321 0.951 . S
C307 C306 1.402 . S
C307 C308 1.375 . S
C307 C310 1.481 . S
C308 C307 1.375 . S
C308 C309 1.367 . S
C308 H322 0.951 . S
C309 C305 1.383 . S
C309 C308 1.367 . S
C309 H323 0.950 . S
C310 C307 1.481 . S
C310 C311 1.297 . S
C310 H324 0.950 . S
C311 C310 1.297 . S
C311 C312 1.479 . S
C311 H325 0.950 . S
C312 C311 1.479 . S
C312 C313 1.375 . S
C312 C318 1.404 . S
C313 C312 1.375 . S
C313 C314 1.369 . S
C313 H326 0.950 . S
C314 C313 1.369 . S
C314 C315 1.392 . S
C314 H327 0.951 . S
C315 C314 1.392 . S
C315 C317 1.384 . S
H316 C318 0.949 . S
C317 C315 1.384 . S
C317 C318 1.385 . S
C317 H319 0.950 . S
C318 C312 1.404 . S
C318 H316 0.949 . S
C318 C317 1.385 . S
H319 C317 0.950 . S
H320 C304 0.951 . S
H321 C306 0.951 . S
H322 C308 0.951 . S
H323 C309 0.950 . S
H324 C310 0.950 . S
H325 C311 0.950 . S
H326 C313 0.950 . S
H327 C314 0.951 . S
C328 C329 1.386 . S
C328 C330 1.383 . S
C328 H344 0.951 . S
C329 C328 1.386 . S
C329 C333 1.383 . S
C330 C328 1.383 . S
C330 C331 1.402 . S
C330 H345 0.951 . S
C331 C330 1.402 . S
C331 C332 1.375 . S
C331 C334 1.481 . S
C332 C331 1.375 . S
C332 C333 1.367 . S
C332 H346 0.951 . S
C333 C329 1.383 . S
C333 C332 1.367 . S
C333 H347 0.950 . S
C334 C331 1.481 . S
C334 C335 1.297 1_556 S
C334 H348 0.950 . S
C335 C334 1.297 1_554 S
C335 C336 1.479 . S
C335 H349 0.950 . S
C336 C335 1.479 . S
C336 C337 1.375 . S
C336 C342 1.404 . S
C337 C336 1.375 . S
C337 C338 1.369 . S
C337 H350 0.950 . S
C338 C337 1.369 . S
C338 C339 1.392 . S
C338 H351 0.951 . S
C339 C338 1.392 . S
C339 C341 1.384 . S
H340 C342 0.949 . S
C341 C339 1.384 . S
C341 C342 1.385 . S
C341 H343 0.950 . S
C342 C336 1.404 . S
C342 H340 0.949 . S
C342 C341 1.385 . S
H343 C341 0.950 . S
H344 C328 0.951 . S
H345 C330 0.951 . S
H346 C332 0.951 . S
H347 C333 0.950 . S
H348 C334 0.950 . S
H349 C335 0.950 . S
H350 C337 0.950 . S
H351 C338 0.951 . S
C352 C353 1.386 . S
C352 C354 1.383 . S
C352 H368 0.951 . S
C353 C352 1.386 . S
C353 C357 1.383 . S
C354 C352 1.383 . S
C354 C355 1.402 . S
C354 H369 0.951 . S
C355 C354 1.402 . S
C355 C356 1.375 . S
C355 C358 1.481 . S
C356 C355 1.375 . S
C356 C357 1.367 . S
C356 H370 0.951 . S
C357 C353 1.383 . S
C357 C356 1.367 . S
C357 H371 0.950 . S
C358 C355 1.481 . S
C358 C359 1.297 . S
C358 H372 0.950 . S
C359 C358 1.297 . S
C359 C360 1.479 . S
C359 H373 0.950 . S
C360 C359 1.479 . S
C360 C361 1.375 . S
C360 C366 1.404 . S
C361 C360 1.375 . S
C361 C362 1.369 . S
C361 H374 0.950 . S
C362 C361 1.369 . S
C362 C363 1.392 . S
C362 H375 0.951 . S
C363 C362 1.392 . S
C363 C365 1.384 . S
H364 C366 0.949 . S
C365 C363 1.384 . S
C365 C366 1.385 . S
C365 H367 0.950 . S
C366 C360 1.404 . S
C366 H364 0.949 . S
C366 C365 1.385 . S
H367 C365 0.950 . S
H368 C352 0.951 . S
H369 C354 0.951 . S
H370 C356 0.951 . S
H371 C357 0.950 . S
H372 C358 0.950 . S
H373 C359 0.950 . S
H374 C361 0.950 . S
H375 C362 0.951 . S
C376 C377 1.386 . S
C376 C378 1.383 . S
C376 H392 0.951 . S
C377 C376 1.386 . S
C377 C381 1.383 . S
C378 C376 1.383 . S
C378 C379 1.402 . S
C378 H393 0.951 . S
C379 C378 1.402 . S
C379 C380 1.375 . S
C379 C382 1.481 . S
C380 C379 1.375 . S
C380 C381 1.367 . S
C380 H394 0.951 . S
C381 C377 1.383 . S
C381 C380 1.367 . S
C381 H395 0.950 . S
C382 C379 1.481 . S
C382 C383 1.297 1_554 S
C382 H396 0.950 . S
C383 C382 1.297 1_556 S
C383 C384 1.479 . S
C383 H397 0.950 . S
C384 C383 1.479 . S
C384 C385 1.375 . S
C384 C390 1.404 . S
C385 C384 1.375 . S
C385 C386 1.369 . S
C385 H398 0.950 . S
C386 C385 1.369 . S
C386 C387 1.392 . S
C386 H399 0.951 . S
C387 C386 1.392 . S
C387 C389 1.384 . S
H388 C390 0.949 . S
C389 C387 1.384 . S
C389 C390 1.385 . S
C389 H391 0.950 . S
C390 C384 1.404 . S
C390 H388 0.949 . S
C390 C389 1.385 . S
H391 C389 0.950 . S
H392 C376 0.951 . S
H393 C378 0.951 . S
H394 C380 0.951 . S
H395 C381 0.950 . S
H396 C382 0.950 . S
H397 C383 0.950 . S
H398 C385 0.950 . S
H399 C386 0.951 . S
C400 C401 1.386 . S
C400 C402 1.383 . S
C400 H416 0.951 . S
C401 C400 1.386 . S
C401 C405 1.383 . S
C402 C400 1.383 . S
C402 C403 1.402 . S
C402 H417 0.951 . S
C403 C402 1.402 . S
C403 C404 1.375 . S
C403 C406 1.481 . S
C404 C403 1.375 . S
C404 C405 1.367 . S
C404 H418 0.951 . S
C405 C401 1.383 . S
C405 C404 1.367 . S
C405 H419 0.950 . S
C406 C403 1.481 . S
C406 C407 1.297 . S
C406 H420 0.950 . S
C407 C406 1.297 . S
C407 C408 1.479 . S
C407 H421 0.950 . S
C408 C407 1.479 . S
C408 C409 1.375 . S
C408 C414 1.404 . S
C409 C408 1.375 . S
C409 C410 1.369 . S
C409 H422 0.950 . S
C410 C409 1.369 . S
C410 C411 1.392 . S
C410 H423 0.951 . S
C411 C410 1.392 . S
C411 C413 1.384 . S
H412 C414 0.949 . S
C413 C411 1.384 . S
C413 C414 1.385 . S
C413 H415 0.950 . S
C414 C408 1.404 . S
C414 H412 0.949 . S
C414 C413 1.385 . S
H415 C413 0.950 . S
H416 C400 0.951 . S
H417 C402 0.951 . S
H418 C404 0.951 . S
H419 C405 0.950 . S
H420 C406 0.950 . S
H421 C407 0.950 . S
H422 C409 0.950 . S
H423 C410 0.951 . S
C424 C425 1.386 . S
C424 C426 1.383 . S
C424 H440 0.951 . S
C425 C424 1.386 . S
C425 C429 1.383 . S
C426 C424 1.383 . S
C426 C427 1.402 . S
C426 H441 0.951 . S
C427 C426 1.402 . S
C427 C428 1.375 . S
C427 C430 1.481 . S
C428 C427 1.375 . S
C428 C429 1.367 . S
C428 H442 0.951 . S
C429 C425 1.383 . S
C429 C428 1.367 . S
C429 H443 0.950 . S
C430 C427 1.481 . S
C430 C431 1.297 . S
C430 H444 0.950 . S
C431 C430 1.297 . S
C431 C432 1.479 . S
C431 H445 0.950 . S
C432 C431 1.479 . S
C432 C433 1.375 . S
C432 C438 1.404 . S
C433 C432 1.375 . S
C433 C434 1.369 . S
C433 H446 0.950 . S
C434 C433 1.369 . S
C434 C435 1.392 . S
C434 H447 0.951 . S
C435 C434 1.392 . S
C435 C437 1.384 . S
H436 C438 0.949 . S
C437 C435 1.384 . S
C437 C438 1.385 . S
C437 H439 0.950 . S
C438 C432 1.404 . S
C438 H436 0.949 . S
C438 C437 1.385 . S
H439 C437 0.950 . S
H440 C424 0.951 . S
H441 C426 0.951 . S
H442 C428 0.951 . S
H443 C429 0.950 . S
H444 C430 0.950 . S
H445 C431 0.950 . S
H446 C433 0.950 . S
H447 C434 0.951 . S
C448 C449 1.386 . S
C448 C450 1.383 . S
C448 H464 0.951 . S
C449 C448 1.386 . S
C449 C453 1.383 . S
C450 C448 1.383 . S
C450 C451 1.402 . S
C450 H465 0.951 . S
C451 C450 1.402 . S
C451 C452 1.375 . S
C451 C454 1.481 . S
C452 C451 1.375 . S
C452 C453 1.367 . S
C452 H466 0.951 . S
C453 C449 1.383 . S
C453 C452 1.367 . S
C453 H467 0.950 . S
C454 C451 1.481 . S
C454 C455 1.297 1_455 S
C454 H468 0.950 . S
C455 C454 1.297 1_655 S
C455 C456 1.479 . S
C455 H469 0.950 . S
C456 C455 1.479 . S
C456 C457 1.375 . S
C456 C462 1.404 . S
C457 C456 1.375 . S
C457 C458 1.369 . S
C457 H470 0.950 . S
C458 C457 1.369 . S
C458 C459 1.392 . S
C458 H471 0.951 . S
C459 C458 1.392 . S
C459 C461 1.384 . S
H460 C462 0.949 . S
C461 C459 1.384 . S
C461 C462 1.385 . S
C461 H463 0.950 . S
C462 C456 1.404 . S
C462 H460 0.949 . S
C462 C461 1.385 . S
H463 C461 0.950 . S
H464 C448 0.951 . S
H465 C450 0.951 . S
H466 C452 0.951 . S
H467 C453 0.950 . S
H468 C454 0.950 . S
H469 C455 0.950 . S
H470 C457 0.950 . S
H471 C458 0.951 . S
C472 C473 1.386 . S
C472 C474 1.383 . S
C472 H488 0.951 . S
C473 C472 1.386 . S
C473 C477 1.383 . S
C474 C472 1.383 . S
C474 C475 1.402 . S
C474 H489 0.951 . S
C475 C474 1.402 . S
C475 C476 1.375 . S
C475 C478 1.481 . S
C476 C475 1.375 . S
C476 C477 1.367 . S
C476 H490 0.951 . S
C477 C473 1.383 . S
C477 C476 1.367 . S
C477 H491 0.950 . S
C478 C475 1.481 . S
C478 C479 1.297 1_455 S
C478 H492 0.950 1_455 S
C479 C478 1.297 1_655 S
C479 C480 1.479 . S
C479 H493 0.950 1_655 S
C480 C479 1.479 . S
C480 C481 1.375 . S
C480 C486 1.404 . S
C481 C480 1.375 . S
C481 C482 1.369 . S
C481 H494 0.950 . S
C482 C481 1.369 . S
C482 C483 1.392 . S
C482 H495 0.951 . S
C483 C482 1.392 . S
C483 C485 1.384 . S
H484 C486 0.949 . S
C485 C483 1.384 . S
C485 C486 1.385 . S
C485 H487 0.950 . S
C486 C480 1.404 . S
C486 H484 0.949 . S
C486 C485 1.385 . S
H487 C485 0.950 . S
H488 C472 0.951 . S
H489 C474 0.951 . S
H490 C476 0.951 . S
H491 C477 0.950 . S
H492 C478 0.950 1_655 S
H493 C479 0.950 1_455 S
H494 C481 0.950 . S
H495 C482 0.951 . S
C113 C11 1.864 . S
C123 C33 1.886 . S
C137 C47 1.885 . S
C147 C25 1.836 . S
C161 C89 1.885 . S
C171 C67 1.835 . S
C185 C81 1.862 . S
C195 C103 1.865 . S
C209 C23 1.182 . S
C219 C42 1.203 . S
C233 C9 1.209 . S
C243 C28 1.140 . S
C257 C98 1.207 . S
C267 C79 1.160 . S
C281 C65 1.206 . S
C291 C84 1.144 . S
C305 C70 1.521 . S
C315 C51 1.510 . S
C329 C37 1.512 . S
C339 C56 1.518 . S
C353 C14 1.497 . S
C363 C107 1.516 . S
C377 C0 1.521 . S
C387 C93 1.512 . S
C401 C5 1.537 . S
C411 C19 1.533 . S
C425 C39 1.597 . S
C435 C53 1.591 . S
C449 C75 1.537 . S
C459 C61 1.533 . S
C473 C95 1.597 . S
C483 C109 1.591 . S
