# Generated by pormake.
# Topology wnj, (7)-cn, num edge types: 1
# Building blocks:
#     Node 0, Type 0, BuildingBlock: OLANEW_clean_sbu_0, # of connection points: 7
#     Node 1, Type 0, BuildingBlock: OLANEW_clean_sbu_0, # of connection points: 7
#     Node 2, Type 0, BuildingBlock: OLANEW_clean_sbu_0, # of connection points: 7
#     Node 3, Type 0, BuildingBlock: OLANEW_clean_sbu_0, # of connection points: 7
#     Node 4, Type 0, BuildingBlock: OLANEW_clean_sbu_0, # of connection points: 7
#     Node 5, Type 0, BuildingBlock: OLANEW_clean_sbu_0, # of connection points: 7
#     Edge 6, Type (0, 0), BuildingBlock: CIFDUS_clean_linker_0, # of connection points: 2
#     Edge 7, Type (0, 0), BuildingBlock: CIFDUS_clean_linker_0, # of connection points: 2
#     Edge 8, Type (0, 0), BuildingBlock: CIFDUS_clean_linker_0, # of connection points: 2
#     Edge 9, Type (0, 0), BuildingBlock: CIFDUS_clean_linker_0, # of connection points: 2
#     Edge 10, Type (0, 0), BuildingBlock: CIFDUS_clean_linker_0, # of connection points: 2
#     Edge 11, Type (0, 0), BuildingBlock: CIFDUS_clean_linker_0, # of connection points: 2
#     Edge 12, Type (0, 0), BuildingBlock: CIFDUS_clean_linker_0, # of connection points: 2
#     Edge 13, Type (0, 0), BuildingBlock: CIFDUS_clean_linker_0, # of connection points: 2
#     Edge 14, Type (0, 0), BuildingBlock: CIFDUS_clean_linker_0, # of connection points: 2
#     Edge 15, Type (0, 0), BuildingBlock: CIFDUS_clean_linker_0, # of connection points: 2
#     Edge 16, Type (0, 0), BuildingBlock: CIFDUS_clean_linker_0, # of connection points: 2
#     Edge 17, Type (0, 0), BuildingBlock: CIFDUS_clean_linker_0, # of connection points: 2
#     Edge 18, Type (0, 0), BuildingBlock: CIFDUS_clean_linker_0, # of connection points: 2
#     Edge 19, Type (0, 0), BuildingBlock: CIFDUS_clean_linker_0, # of connection points: 2
#     Edge 20, Type (0, 0), BuildingBlock: CIFDUS_clean_linker_0, # of connection points: 2
#     Edge 21, Type (0, 0), BuildingBlock: CIFDUS_clean_linker_0, # of connection points: 2
#     Edge 22, Type (0, 0), BuildingBlock: CIFDUS_clean_linker_0, # of connection points: 2
#     Edge 23, Type (0, 0), BuildingBlock: CIFDUS_clean_linker_0, # of connection points: 2
#     Edge 24, Type (0, 0), BuildingBlock: CIFDUS_clean_linker_0, # of connection points: 2
#     Edge 25, Type (0, 0), BuildingBlock: CIFDUS_clean_linker_0, # of connection points: 2
#     Edge 26, Type (0, 0), BuildingBlock: CIFDUS_clean_linker_0, # of connection points: 2
# Relax obj value: 0.282
# Max RMSD: 0.270
# Mean RMSD: 0.270
data_MOF--net-wnj--node1-OLANEW_clean_sbu_0--edge1-CIFDUS_clean_linker_0
_symmetry_space_group_name_H-M    P1
_symmetry_Int_Tables_number       1
_symmetry_cell_setting            triclinic
loop_
_symmetry_equiv_pos_as_xyz
'x, y, z'
_cell_length_a     35.077831
_cell_length_b     35.121673
_cell_length_c     41.10846
_cell_angle_alpha  90.119629
_cell_angle_beta   89.998261
_cell_angle_gamma 120.04557
loop_
_atom_site_label
_atom_site_type_symbol
_atom_site_fract_x
_atom_site_fract_y
_atom_site_fract_z
_atom_type_partial_charge
Cd0 Cd 0.20785 0.57319 0.13406 0.0
C1 C 0.24402 0.67423 0.09541 0.0
C2 C 0.08373 0.45499 0.97827 0.0
O3 O 0.10214 0.45699 0.94997 0.0
Cd4 Cd 0.17092 0.65189 0.15842 0.0
C5 C 0.05253 0.41251 0.99313 0.0
C6 C 0.98855 0.341 0.02844 0.0
C7 C 1.00314 0.38442 0.03796 0.0
N8 N 0.03422 0.41691 0.02018 0.0
C9 C 0.03935 0.37001 0.98195 0.0
C10 C 1.00713 0.33401 9e-05 0.0
Co11 Co 0.05138 0.47328 0.03306 0.0
C12 C 0.98922 0.40051 0.06607 0.0
O13 O 0.96158 0.37386 0.08807 0.0
C14 C 1.00701 0.4664 0.09833 0.0
C15 C 0.04309 0.48551 0.11879 0.0
C16 C 0.0479 0.51687 0.14154 0.0
C17 C 1.01124 0.52227 0.14845 0.0
C18 C 0.97069 0.49686 0.13183 0.0
C19 C 0.96956 0.46999 0.10562 0.0
C20 C 0.09366 0.54999 0.15063 0.0
C21 C 0.11689 0.53577 0.9812 0.0
C22 C 0.1595 0.54825 0.96978 0.0
C23 C 0.10031 0.56411 0.97503 0.0
C24 C 0.12576 0.60429 0.95943 0.0
C25 C 0.16774 0.61631 0.94836 0.0
C26 C 0.18409 0.58757 0.95228 0.0
N27 N 0.08872 0.49189 0.99394 0.0
N28 N 1.01033 0.44522 0.06943 0.0
N29 N 0.10202 0.48087 0.05821 0.0
C30 C 0.11514 0.44871 0.06289 0.0
C31 C 0.15185 0.45255 0.04648 0.0
C32 C 0.0935 0.41555 0.08599 0.0
C33 C 0.16739 0.42346 0.05323 0.0
H34 H 0.1685 0.47871 0.02888 0.0
C35 C 0.14557 0.39048 0.07677 0.0
C36 C 0.10863 0.38636 0.09336 0.0
C37 C 0.20685 0.42801 0.03631 0.0
H38 H 0.06566 0.41337 0.09893 0.0
H39 H 0.15754 0.36817 0.08236 0.0
C40 C 0.08664 0.35245 0.11897 0.0
O41 O 0.22278 0.40122 0.04401 0.0
O42 O 0.22528 0.45608 0.01538 0.0
O43 O 0.05395 0.34836 0.13283 0.0
O44 O 0.10283 0.3261 0.12733 0.0
H45 H 0.24855 0.40371 0.03337 0.0
H46 H 0.08918 0.30401 0.14411 0.0
N47 N 0.0681 0.52921 0.04635 0.0
C48 C 0.04064 0.5438 0.03888 0.0
C49 C 0.05296 0.58705 0.04743 0.0
C50 C 0.09341 0.61236 0.06413 0.0
C51 C 0.12059 0.59441 0.07172 0.0
C52 C 0.1065 0.5512 0.06211 0.0
N53 N 1.00423 0.47505 0.00982 0.0
C54 C 1.00328 0.5123 0.01838 0.0
O55 O 0.97626 0.52301 0.0044 0.0
C56 C 0.12704 0.5239 0.06849 0.0
O57 O 0.23138 0.52572 0.1645 0.0
O58 O 0.27238 0.56107 0.12398 0.0
C59 C 0.98056 0.44811 0.98244 0.0
C60 C 0.93819 0.41192 0.98678 0.0
C61 C 0.91456 0.38603 0.95997 0.0
C62 C 0.93389 0.39623 0.92897 0.0
C63 C 0.97536 0.43304 0.92413 0.0
C64 C 0.99855 0.45927 0.9509 0.0
O65 O 0.24835 0.6411 0.10159 0.0
O66 O 0.21714 0.68155 0.11113 0.0
O67 O 0.1253 0.54255 0.14419 0.0
O68 O 0.10132 0.58862 0.15607 0.0
O69 O 0.16898 0.54095 0.07997 0.0
C70 C 0.23456 0.64099 0.20763 0.0
O71 O 0.20965 0.65737 0.20661 0.0
O72 O 0.23424 0.61656 0.18466 0.0
C73 C 0.26685 0.53737 0.14881 0.0
H74 H 0.96373 0.31353 0.04223 0.0
H75 H 0.05314 0.3647 0.96002 0.0
H76 H 0.99639 0.30078 0.99207 0.0
H77 H 0.0698 0.4794 0.1144 0.0
H78 H 0.01435 0.54627 0.16642 0.0
H79 H 0.94041 0.45306 0.09054 0.0
H80 H 0.17229 0.52603 0.97255 0.0
H81 H 0.06673 0.55446 0.97962 0.0
H82 H 0.18614 0.64661 0.93483 0.0
H83 H 0.03267 0.60109 0.04101 0.0
H84 H 0.10373 0.64588 0.0711 0.0
H85 H 0.151 0.61334 0.08493 0.0
H86 H 0.92349 0.40455 0.01079 0.0
H87 H 0.91527 0.3772 0.90798 0.0
H88 H 0.03017 0.48836 0.94704 0.0
Cd89 Cd 0.44702 0.6311 0.80416 0.0
C90 C 0.344 0.55483 0.77649 0.0
C91 C 0.56211 0.62778 0.64844 0.0
O92 O 0.55783 0.64446 0.62099 0.0
Cd93 Cd 0.37311 0.50989 0.84599 0.0
C94 C 0.60564 0.64057 0.66214 0.0
C95 C 0.67953 0.65172 0.69625 0.0
C96 C 0.63673 0.62126 0.70613 0.0
N97 N 0.60304 0.61814 0.6889 0.0
C98 C 0.64739 0.67149 0.65062 0.0
C99 C 0.68461 0.67706 0.66813 0.0
Co100 Co 0.54751 0.578 0.70289 0.0
C101 C 0.62232 0.59157 0.73437 0.0
O102 O 0.65017 0.59198 0.75596 0.0
C103 C 0.55771 0.54226 0.76732 0.0
C104 C 0.53873 0.5586 0.78854 0.0
C105 C 0.5095 0.53209 0.81242 0.0
C106 C 0.50614 0.49077 0.8191 0.0
C107 C 0.53034 0.47596 0.80054 0.0
C108 C 0.55479 0.50147 0.77364 0.0
C109 C 0.47667 0.5441 0.82404 0.0
C110 C 0.48174 0.58016 0.65535 0.0
C111 C 0.46913 0.61119 0.64806 0.0
C112 C 0.45229 0.53569 0.6483 0.0
C113 C 0.4108 0.52256 0.63518 0.0
C114 C 0.39909 0.55389 0.62717 0.0
C115 C 0.42948 0.59855 0.63181 0.0
N116 N 0.52661 0.59508 0.6648 0.0
N117 N 0.57772 0.56682 0.73838 0.0
N118 N 0.5395 0.62057 0.72843 0.0
C119 C 0.57113 0.66617 0.73291 0.0
C120 C 0.56579 0.69845 0.71709 0.0
C121 C 0.60542 0.67857 0.75526 0.0
C122 C 0.59454 0.7433 0.72362 0.0
H123 H 0.53877 0.68834 0.70012 0.0
C124 C 0.62872 0.7553 0.74635 0.0
C125 C 0.63433 0.72311 0.76238 0.0
C126 C 0.58845 0.77756 0.7073 0.0
H127 H 0.60874 0.6534 0.76785 0.0
H128 H 0.6508 0.78975 0.75176 0.0
C129 C 0.66957 0.73591 0.78713 0.0
O130 O 0.615 0.82047 0.7148 0.0
O131 O 0.55932 0.76722 0.68707 0.0
O132 O 0.67491 0.70787 0.80052 0.0
O133 O 0.69578 0.77865 0.79522 0.0
H134 H 0.61151 0.84333 0.70455 0.0
H135 H 0.71874 0.78765 0.81143 0.0
N136 N 0.49234 0.53787 0.71722 0.0
C137 C 0.47783 0.49604 0.70904 0.0
C138 C 0.4347 0.46465 0.71759 0.0
C139 C 0.40924 0.47914 0.73474 0.0
C140 C 0.42684 0.52414 0.74264 0.0
C141 C 0.46998 0.55374 0.73307 0.0
N142 N 0.54585 0.52941 0.67903 0.0
C143 C 0.50889 0.49094 0.68761 0.0
O144 O 0.49805 0.45344 0.67315 0.0
C145 C 0.49644 0.60179 0.73888 0.0
O146 O 0.50205 0.71141 0.81978 0.0
O147 O 0.43643 0.69685 0.80827 0.0
C148 C 0.57173 0.53278 0.65092 0.0
C149 C 0.60593 0.52329 0.65377 0.0
C150 C 0.63004 0.52453 0.62621 0.0
C151 C 0.62051 0.53615 0.59594 0.0
C152 C 0.58533 0.54382 0.59239 0.0
C153 C 0.56044 0.54141 0.61991 0.0
O154 O 0.3763 0.59402 0.77403 0.0
O155 O 0.34319 0.52881 0.79843 0.0
O156 O 0.47922 0.58018 0.81419 0.0
O157 O 0.44161 0.51378 0.8366 0.0
O158 O 0.47832 0.62601 0.74957 0.0
C159 C 0.38754 0.58862 0.88104 0.0
O160 O 0.37345 0.55065 0.89271 0.0
O161 O 0.40884 0.59758 0.85451 0.0
C162 C 0.47492 0.72546 0.81732 0.0
H163 H 0.70794 0.6559 0.70965 0.0
H164 H 0.65123 0.6906 0.62898 0.0
H165 H 0.71732 0.70087 0.65989 0.0
H166 H 0.54367 0.59101 0.78438 0.0
H167 H 0.484 0.46974 0.83789 0.0
H168 H 0.57097 0.48953 0.75753 0.0
H169 H 0.4926 0.64589 0.65134 0.0
H170 H 0.46191 0.51125 0.65044 0.0
H171 H 0.36842 0.54358 0.61443 0.0
H172 H 0.42079 0.43048 0.71068 0.0
H173 H 0.37577 0.4556 0.74162 0.0
H174 H 0.40757 0.53518 0.75582 0.0
H175 H 0.61298 0.51404 0.67718 0.0
H176 H 0.63866 0.53618 0.57454 0.0
H177 H 0.53201 0.54539 0.61701 0.0
Cd178 Cd 0.38087 0.81801 0.46691 0.0
C179 C 0.44699 0.78197 0.42724 0.0
C180 C 0.37682 0.93278 0.31679 0.0
O181 O 0.35495 0.90769 0.29193 0.0
Cd182 Cd 0.45979 0.84868 0.47966 0.0
C183 C 0.36694 0.96574 0.33039 0.0
C184 C 0.36067 0.03133 0.36459 0.0
C185 C 0.39288 0.02035 0.37207 0.0
N186 N 0.39375 0.98857 0.3548 0.0
C187 C 0.33401 0.97506 0.32141 0.0
C188 C 0.33105 0.00829 0.33889 0.0
Co189 Co 0.43401 0.9727 0.36725 0.0
C190 C 0.42558 0.03719 0.39863 0.0
O191 O 0.42724 0.06563 0.42024 0.0
C192 C 0.47515 0.02107 0.43049 0.0
C193 C 0.4582 0.98595 0.45174 0.0
C194 C 0.48531 0.98073 0.47367 0.0
C195 C 0.52814 0.01706 0.47963 0.0
C196 C 0.54304 0.0574 0.46275 0.0
C197 C 0.51683 0.05813 0.43679 0.0
C198 C 0.47164 0.93446 0.48211 0.0
C199 C 0.42499 0.90027 0.32175 0.0
C200 C 0.39415 0.85517 0.32218 0.0
C201 C 0.46808 0.91406 0.31172 0.0
C202 C 0.48145 0.8834 0.30596 0.0
C203 C 0.45131 0.83853 0.30823 0.0
C204 C 0.40653 0.82364 0.31453 0.0
N205 N 0.41193 0.93177 0.33063 0.0
N206 N 0.45005 0.01695 0.40175 0.0
N207 N 0.39286 0.92433 0.39503 0.0
C208 C 0.34755 0.91081 0.40089 0.0
C209 C 0.31407 0.87154 0.38746 0.0
C210 C 0.33677 0.93449 0.42277 0.0
C211 C 0.26981 0.85556 0.39587 0.0
H212 H 0.32281 0.85308 0.37102 0.0
C213 C 0.25949 0.87953 0.41812 0.0
C214 C 0.29282 0.91896 0.43184 0.0
C215 C 0.23453 0.81338 0.38212 0.0
H216 H 0.36283 0.96421 0.43365 0.0
H217 H 0.22551 0.86724 0.42505 0.0
C218 C 0.28189 0.9431 0.45639 0.0
O219 O 0.19224 0.79723 0.39139 0.0
O220 O 0.2435 0.7929 0.36243 0.0
O221 O 0.31085 0.97777 0.46785 0.0
O222 O 0.2399 0.92668 0.46649 0.0
H223 H 0.16878 0.76972 0.38284 0.0
H224 H 0.23213 0.94171 0.48266 0.0
N225 N 0.47439 0.95711 0.37994 0.0
C226 C 0.51513 0.98155 0.36838 0.0
C227 C 0.54527 0.96704 0.3734 0.0
C228 C 0.53066 0.92716 0.39047 0.0
C229 C 0.48673 0.90267 0.40168 0.0
C230 C 0.45851 0.91905 0.39579 0.0
N231 N 0.48099 0.01696 0.34071 0.0
C232 C 0.51937 0.01687 0.34676 0.0
O233 O 0.55535 0.04103 0.32978 0.0
C234 C 0.41133 0.89926 0.40396 0.0
O235 O 0.30711 0.78579 0.49624 0.0
O236 O 0.30548 0.76107 0.44816 0.0
C237 C 0.47678 0.0395 0.31312 0.0
C238 C 0.49632 0.08526 0.31439 0.0
C239 C 0.50172 0.10895 0.2859 0.0
C240 C 0.4859 0.08694 0.25622 0.0
C241 C 0.46564 0.04097 0.25427 0.0
C242 C 0.46183 0.01757 0.28306 0.0
O243 O 0.40869 0.77544 0.43417 0.0
O244 O 0.48052 0.81374 0.44035 0.0
O245 O 0.43101 0.90377 0.47809 0.0
O246 O 0.50135 0.92424 0.48391 0.0
O247 O 0.38683 0.8569 0.41413 0.0
C248 C 0.42381 0.78926 0.53507 0.0
O249 O 0.46256 0.81973 0.52944 0.0
O250 O 0.39275 0.78313 0.51598 0.0
C251 C 0.28483 0.7576 0.47436 0.0
H252 H 0.35804 0.05629 0.37825 0.0
H253 H 0.31125 0.95729 0.30187 0.0
H254 H 0.30569 0.01597 0.33266 0.0
H255 H 0.42482 0.95987 0.44837 0.0
H256 H 0.54965 0.01393 0.49698 0.0
H257 H 0.529 0.08682 0.42134 0.0
H258 H 0.36021 0.84527 0.32707 0.0
H259 H 0.49142 0.94834 0.30791 0.0
H260 H 0.463 0.8158 0.3036 0.0
H261 H 0.57825 0.98481 0.3635 0.0
H262 H 0.553 0.91478 0.39437 0.0
H263 H 0.47505 0.87201 0.41415 0.0
H264 H 0.51001 0.10244 0.33712 0.0
H265 H 0.49189 0.1063 0.23435 0.0
H266 H 0.44941 0.9827 0.28181 0.0
Cd267 Cd 0.58677 0.20143 0.86392 0.0
C268 C 0.68244 0.22309 0.89166 0.0
C269 C 0.45807 0.08563 0.01368 0.0
O270 O 0.46114 0.1085 0.03991 0.0
Cd271 Cd 0.66431 0.14819 0.82291 0.0
C272 C 0.4154 0.05529 -0.00161 0.0
C273 C 0.34377 0.99356 0.96164 0.0
C274 C 0.38704 1.00495 0.95394 0.0
N275 N 0.41956 0.03485 0.97245 0.0
C276 C 0.37306 0.04541 0.0077 0.0
C277 C 0.33701 0.01419 0.98891 0.0
Co278 Co 0.47578 0.04933 0.96109 0.0
C279 C 0.4032 0.98952 0.92671 0.0
O280 O 0.37676 0.96249 0.90426 0.0
C281 C 0.47003 1.0033 0.8971 0.0
C282 C 0.49442 0.03922 0.87731 0.0
C283 C 0.52384 0.03934 0.85463 0.0
C284 C 0.5226 0.99891 0.84758 0.0
C285 C 0.4925 0.95955 0.86403 0.0
C286 C 0.46768 0.96295 0.88994 0.0
C287 C 0.55937 0.08318 0.84321 0.0
C288 C 0.53851 0.11558 0.01057 0.0
C289 C 0.55504 0.16104 0.01187 0.0
C290 C 0.56493 0.09877 0.02155 0.0
C291 C 0.60837 0.12711 0.03099 0.0
C292 C 0.62531 0.17248 0.03107 0.0
C293 C 0.59823 0.18998 0.02284 0.0
N294 N 0.49412 0.0867 -0.00031 0.0
N295 N 0.44802 0.00879 0.92459 0.0
N296 N 0.48657 0.10038 0.93542 0.0
C297 C 0.45578 0.11492 0.92914 0.0
C298 C 0.45941 0.15155 0.94553 0.0
C299 C 0.42355 0.09397 0.90521 0.0
C300 C 0.43065 0.16734 0.9383 0.0
H301 H 0.48495 0.16781 0.96365 0.0
C302 C 0.3982 0.14587 0.91424 0.0
C303 C 0.3945 0.1092 0.89747 0.0
C304 C 0.43482 0.20649 0.95549 0.0
H305 H 0.42186 0.06641 0.89213 0.0
H306 H 0.376 0.15791 0.90839 0.0
C307 C 0.36088 0.08736 0.87155 0.0
O308 O 0.40777 0.22216 0.94786 0.0
O309 O 0.4628 0.22487 0.97659 0.0
O310 O 0.35729 0.05506 0.85739 0.0
O311 O 0.33411 0.10314 0.86332 0.0
H312 H 0.41 0.24769 0.9587 0.0
H313 H 0.31211 0.0895 0.84641 0.0
N314 N 0.53194 0.06379 0.94967 0.0
C315 C 0.54601 0.03719 0.96055 0.0
C316 C 0.59045 0.05012 0.95628 0.0
C317 C 0.6179 0.09081 0.94072 0.0
C318 C 0.60086 0.11772 0.93026 0.0
C319 C 0.55625 0.10286 0.93541 0.0
N320 N 0.47451 1.00163 0.98546 0.0
C321 C 0.51256 1.00064 0.98029 0.0
O322 O 0.52148 0.97357 0.99619 0.0
C323 C 0.53052 0.12461 0.92746 0.0
O324 O 0.54101 0.23504 0.84123 0.0
O325 O 0.60056 0.27746 0.86744 0.0
C326 C 0.44388 0.97667 0.01058 0.0
C327 C 0.41194 0.93275 0.00475 0.0
C328 C 0.38415 0.9073 0.02997 0.0
C329 C 0.38803 0.92576 0.0609 0.0
C330 C 0.42004 0.96943 0.06708 0.0
C331 C 0.44824 0.99476 0.04187 0.0
O332 O 0.65363 0.23388 0.89766 0.0
O333 O 0.67616 0.19734 0.86802 0.0
O334 O 0.55991 0.11854 0.85285 0.0
O335 O 0.59296 0.08503 0.83001 0.0
O336 O 0.54948 0.16673 0.91666 0.0
C337 C 0.65055 0.2168 0.78828 0.0
O338 O 0.66558 0.19257 0.7786 0.0
O339 O 0.62871 0.20669 0.81467 0.0
C340 C 0.56773 0.27376 0.85172 0.0
H341 H 0.31626 0.96984 0.94719 0.0
H342 H 0.36791 0.06105 0.02862 0.0
H343 H 0.30388 1.006 0.99545 0.0
H344 H 0.49218 0.06836 0.881 0.0
H345 H 0.54419 0.99794 0.82917 0.0
H346 H 0.44651 0.93434 0.90448 0.0
H347 H 0.53315 0.17326 0.00574 0.0
H348 H 0.55201 0.06387 0.02359 0.0
H349 H 0.65903 0.19354 0.03881 0.0
H350 H 0.60384 0.0304 0.9655 0.0
H351 H 0.6525 0.10188 0.93734 0.0
H352 H 0.62181 0.14897 0.91894 0.0
H353 H 0.40953 0.91835 0.98096 0.0
H354 H 0.36667 0.90567 0.08044 0.0
H355 H 0.47457 0.02774 0.04703 0.0
Cd356 Cd 0.82179 0.38778 0.52745 0.0
C357 C 0.80054 0.46933 0.55291 0.0
C358 C 0.93612 0.3804 0.68267 0.0
O359 O 0.91315 0.36034 0.70875 0.0
Cd360 Cd 0.87239 0.5086 0.48289 0.0
C361 C 0.96774 0.36934 0.66815 0.0
C362 C 0.03152 0.36144 0.63272 0.0
C363 C 0.01994 0.39311 0.62499 0.0
N364 N 0.98905 0.39477 0.64284 0.0
C365 C 0.97778 0.33707 0.67749 0.0
C366 C 1.01004 0.33324 0.65936 0.0
Co367 Co 0.97351 0.43545 0.63091 0.0
C368 C 0.03572 0.42495 0.59805 0.0
O369 O 0.06333 0.42601 0.57595 0.0
C370 C 0.02002 0.47523 0.56706 0.0
C371 C 0.98551 0.45849 0.54508 0.0
C372 C 0.98354 0.48464 0.52059 0.0
C373 C 0.02145 0.52624 0.51438 0.0
C374 C 0.05966 0.54221 0.53415 0.0
C375 C 0.05768 0.51646 0.56134 0.0
C376 C 0.9391 0.4722 0.50781 0.0
C377 C 0.90553 0.43017 0.67996 0.0
C378 C 0.86021 0.40046 0.68265 0.0
C379 C 0.9224 0.47305 0.69191 0.0
C380 C 0.89431 0.4866 0.70477 0.0
C381 C 0.84918 0.45713 0.70696 0.0
C382 C 0.83176 0.41327 0.69686 0.0
N383 N 0.93449 0.41499 0.6686 0.0
N384 N 0.01575 0.44974 0.59543 0.0
N385 N 0.92372 0.39442 0.60388 0.0
C386 C 0.90956 0.34897 0.59844 0.0
C387 C 0.87167 0.31622 0.61375 0.0
C388 C 0.93194 0.33722 0.57607 0.0
C389 C 0.8559 0.27157 0.60688 0.0
H390 H 0.85437 0.32582 0.63071 0.0
C391 C 0.8786 0.26019 0.5842 0.0
C392 C 0.9166 0.29286 0.56855 0.0
C393 C 0.81544 0.23687 0.62291 0.0
H394 H 0.96068 0.36276 0.56388 0.0
H395 H 0.86651 0.22588 0.57853 0.0
C396 C 0.93962 0.28071 0.54387 0.0
O397 O 0.79964 0.19408 0.61538 0.0
O398 O 0.79608 0.24675 0.64296 0.0
O399 O 0.97314 0.30915 0.53079 0.0
O400 O 0.9235 0.23813 0.53552 0.0
H401 H 0.77326 0.17095 0.62547 0.0
H402 H 0.93784 0.22955 0.51935 0.0
N403 N 0.95804 0.47603 0.61876 0.0
C404 C 0.98406 0.51701 0.62945 0.0
C405 C 0.97153 0.54832 0.62304 0.0
C406 C 0.93207 0.53468 0.60538 0.0
C407 C 0.90596 0.49055 0.59484 0.0
C408 C 0.92027 0.46094 0.6023 0.0
N409 N 0.02001 0.48266 0.65636 0.0
C410 C 0.02039 0.52119 0.65022 0.0
O411 O 0.04686 0.55781 0.66584 0.0
C412 C 0.89956 0.41356 0.59407 0.0
O413 O 0.78626 0.30764 0.50539 0.0
O414 O 0.74546 0.32502 0.5333 0.0
C415 C 0.04519 0.4784 0.68227 0.0
C416 C 0.09041 0.49379 0.67802 0.0
C417 C 0.1154 0.49138 0.70381 0.0
C418 C 0.09492 0.47321 0.73355 0.0
C419 C 0.05058 0.45964 0.73864 0.0
C420 C 0.02589 0.46297 0.71306 0.0
O421 O 0.79274 0.42992 0.55565 0.0
O422 O 0.82561 0.49474 0.53066 0.0
O423 O 0.90515 0.43684 0.5182 0.0
O424 O 0.93509 0.50204 0.49373 0.0
O425 O 0.85779 0.38979 0.58198 0.0
C426 C 0.80374 0.42881 0.45003 0.0
O427 O 0.82847 0.46646 0.43803 0.0
O428 O 0.81544 0.41977 0.47682 0.0
C429 C 0.74795 0.29592 0.51654 0.0
H430 H 0.05592 0.35832 0.61868 0.0
H431 H 0.96138 0.31556 0.69787 0.0
H432 H 0.0183 0.30841 0.66589 0.0
H433 H 0.95822 0.42579 0.54871 0.0
H434 H 0.0205 0.54699 0.49531 0.0
H435 H 0.0852 0.52807 0.57801 0.0
H436 H 0.84776 0.36664 0.67535 0.0
H437 H 0.95728 0.49568 0.69279 0.0
H438 H 0.82826 0.46832 0.71759 0.0
H439 H 0.99085 0.58176 0.63185 0.0
H440 H 0.92149 0.55817 0.60015 0.0
H441 H 0.87591 0.48012 0.58144 0.0
H442 H 0.10601 0.50801 0.65498 0.0
H443 H 0.11444 0.47214 0.75365 0.0
H444 H 0.99214 0.45438 0.71738 0.0
Cd445 Cd 0.64209 0.44383 0.19781 0.0
C446 C 0.56748 0.34272 0.23244 0.0
C447 C 0.64203 0.56283 0.35153 0.0
O448 O 0.66213 0.56081 0.37792 0.0
Cd449 Cd 0.52621 0.36935 0.16498 0.0
C450 C 0.65242 0.60507 0.3366 0.0
C451 C 0.65791 0.67557 0.30118 0.0
C452 C 0.62728 0.63195 0.29329 0.0
N453 N 0.6269 0.60003 0.31106 0.0
C454 C 0.68367 0.64782 0.34609 0.0
C455 C 0.68634 0.6833 0.32793 0.0
Co456 Co 0.58669 0.54344 0.29956 0.0
C457 C 0.59506 0.61502 0.26643 0.0
O458 O 0.59358 0.64113 0.2442 0.0
C459 C 0.5475 0.54895 0.23434 0.0
C460 C 0.56643 0.53191 0.21371 0.0
C461 C 0.54335 0.50515 0.18766 0.0
C462 C 0.50341 0.5027 0.17811 0.0
C463 C 0.48612 0.52552 0.19565 0.0
C464 C 0.50766 0.54705 0.225 0.0
C465 C 0.55614 0.47269 0.17709 0.0
C466 C 0.59188 0.48239 0.35025 0.0
C467 C 0.62041 0.46534 0.35272 0.0
C468 C 0.54956 0.45839 0.36368 0.0
C469 C 0.53527 0.41741 0.37783 0.0
C470 C 0.56343 0.40029 0.37977 0.0
C471 C 0.60676 0.42461 0.36808 0.0
N472 N 0.60784 0.52605 0.33754 0.0
N473 N 0.57098 0.57016 0.2637 0.0
N474 N 0.62822 0.53507 0.27299 0.0
C475 C 0.67353 0.56692 0.26726 0.0
C476 C 0.70693 0.5623 0.28205 0.0
C477 C 0.68447 0.60065 0.24475 0.0
C478 C 0.75136 0.59103 0.27428 0.0
H479 H 0.69799 0.53583 0.29924 0.0
C480 C 0.76185 0.62443 0.25125 0.0
C481 C 0.72856 0.62937 0.23624 0.0
C482 C 0.78672 0.58569 0.28961 0.0
H483 H 0.65852 0.60366 0.23307 0.0
H484 H 0.79595 0.64642 0.24481 0.0
C485 C 0.73972 0.66363 0.21106 0.0
O486 O 0.82921 0.61233 0.28105 0.0
O487 O 0.77766 0.55712 0.31001 0.0
O488 O 0.71075 0.66835 0.19849 0.0
O489 O 0.78194 0.6896 0.20162 0.0
H490 H 0.85276 0.60935 0.29067 0.0
H491 H 0.78986 0.71188 0.18507 0.0
N492 N 0.54658 0.48695 0.28793 0.0
C493 C 0.5059 0.47122 0.29957 0.0
C494 C 0.47568 0.42646 0.29516 0.0
C495 C 0.49007 0.40056 0.27855 0.0
C496 C 0.53392 0.41942 0.26716 0.0
C497 C 0.56246 0.46421 0.27257 0.0
N498 N 0.53976 0.54241 0.32512 0.0
C499 C 0.50145 0.5036 0.31987 0.0
O500 O 0.46525 0.49317 0.33614 0.0
C501 C 0.60985 0.49146 0.26416 0.0
O502 O 0.72258 0.49238 0.17789 0.0
O503 O 0.70718 0.43561 0.20686 0.0
C504 C 0.54489 0.5728 0.35052 0.0
C505 C 0.53505 0.60612 0.34417 0.0
C506 C 0.53931 0.63545 0.3689 0.0
C507 C 0.55379 0.63179 0.39987 0.0
C508 C 0.56259 0.59802 0.40698 0.0
C509 C 0.55775 0.56824 0.38218 0.0
O510 O 0.60614 0.37543 0.2293 0.0
O511 O 0.53608 0.33686 0.2138 0.0
O512 O 0.59364 0.47779 0.18599 0.0
O513 O 0.5252 0.43547 0.16821 0.0
O514 O 0.63439 0.47403 0.25263 0.0
C515 C 0.60428 0.37712 0.12278 0.0
O516 O 0.56353 0.36302 0.11938 0.0
O517 O 0.62462 0.40027 0.14745 0.0
C518 C 0.73528 0.46681 0.1894 0.0
H519 H 0.65999 0.70266 0.28724 0.0
H520 H 0.70515 0.65371 0.36669 0.0
H521 H 0.71033 0.71672 0.33461 0.0
H522 H 0.59851 0.53707 0.21926 0.0
H523 H 0.48542 0.48246 0.15743 0.0
H524 H 0.49444 0.56318 0.2399 0.0
H525 H 0.65393 0.48506 0.34414 0.0
H526 H 0.52782 0.47158 0.36468 0.0
H527 H 0.55169 0.36868 0.39131 0.0
H528 H 0.44267 0.41171 0.30495 0.0
H529 H 0.46753 0.36578 0.27503 0.0
H530 H 0.54507 0.39969 0.25495 0.0
H531 H 0.52362 0.60875 0.32024 0.0
H532 H 0.5562 0.65424 0.419 0.0
H533 H 0.56405 0.54184 0.38762 0.0
H534 H 0.22498 0.72555 0.05827 0.0
H535 H 0.32916 0.69847 0.08063 0.0
H536 H 0.38271 0.76701 0.05414 0.0
H537 H 0.40115 0.84127 0.03604 0.0
H538 H 0.29715 0.86965 0.01742 0.0
H539 H 0.24187 0.79359 0.03023 0.0
C540 C 0.25926 0.73419 0.05658 0.0
C541 C 0.27347 0.70783 0.072 0.0
C542 C 0.28979 0.77399 0.04213 0.0
C543 C 0.31764 0.71858 0.06912 0.0
C544 C 0.34827 0.75789 0.0542 0.0
C545 C 0.36629 0.82998 0.03346 0.0
C546 C 0.35274 0.86031 0.02583 0.0
C547 C 0.335 0.78686 0.04221 0.0
C548 C 0.30782 0.84629 0.02301 0.0
C549 C 0.27641 0.80309 0.03069 0.0
H550 H 0.31156 0.60158 0.74491 0.0
H551 H 0.29073 0.47057 0.7578 0.0
H552 H 0.22095 0.43968 0.7289 0.0
H553 H 0.16043 0.44853 0.70869 0.0
H554 H 0.17739 0.57799 0.69852 0.0
H555 H 0.25423 0.61102 0.71653 0.0
C556 C 0.29213 0.56641 0.74072 0.0
C557 C 0.30585 0.53832 0.75411 0.0
C558 C 0.25122 0.54858 0.72455 0.0
C559 C 0.28043 0.49281 0.7484 0.0
C560 C 0.24056 0.47507 0.73175 0.0
C561 C 0.18165 0.48401 0.70918 0.0
C562 C 0.16368 0.51088 0.70224 0.0
C563 C 0.22484 0.50242 0.72092 0.0
C564 C 0.19093 0.55679 0.70333 0.0
C565 C 0.2346 0.57558 0.71415 0.0
H566 H 0.52047 0.79804 0.39472 0.0
H567 H 0.3865 0.69637 0.41305 0.0
H568 H 0.4016 0.64155 0.38891 0.0
H569 H 0.45684 0.62118 0.37277 0.0
H570 H 0.59153 0.72251 0.358 0.0
H571 H 0.57225 0.77918 0.36977 0.0
C572 C 0.49435 0.764 0.39286 0.0
C573 C 0.45279 0.751 0.40635 0.0
C574 C 0.50355 0.7327 0.37961 0.0
C575 C 0.41892 0.70707 0.40313 0.0
C576 C 0.4276 0.67569 0.38947 0.0
C577 C 0.48136 0.6558 0.37083 0.0
C578 C 0.52535 0.66812 0.36442 0.0
C579 C 0.4703 0.68787 0.37901 0.0
C580 C 0.55741 0.71274 0.36256 0.0
C581 C 0.54645 0.74495 0.36967 0.0
H582 H 0.71275 0.28799 0.93787 0.0
H583 H 0.74542 0.20007 0.88744 0.0
H584 H 0.81886 0.23779 0.91101 0.0
H585 H 0.87718 0.30271 0.93812 0.0
H586 H 0.84732 0.39412 0.98555 0.0
H587 H 0.76916 0.34724 0.97228 0.0
C588 C 0.73571 0.27665 0.93251 0.0
C589 C 0.72401 0.24198 0.91028 0.0
C590 C 0.77841 0.29906 0.94575 0.0
C591 C 0.75388 0.22725 0.90394 0.0
C592 C 0.7959 0.24871 0.91748 0.0
C593 C 0.85321 0.31152 0.9464 0.0
C594 C 0.86771 0.3518 0.96236 0.0
C595 C 0.80902 0.28565 0.93731 0.0
C596 C 0.83668 0.36305 0.97328 0.0
C597 C 0.79215 0.33661 0.96525 0.0
H598 H 0.72531 0.42242 0.58869 0.0
H599 H 0.82808 0.55471 0.56672 0.0
H600 H 0.78726 0.5844 0.59433 0.0
H601 H 0.71705 0.57248 0.61569 0.0
H602 H 0.61257 0.44104 0.63596 0.0
H603 H 0.65942 0.41123 0.61883 0.0
C604 C 0.73913 0.45773 0.5906 0.0
C605 C 0.77907 0.48628 0.57491 0.0
C606 C 0.71503 0.47472 0.6061 0.0
C607 C 0.79682 0.53198 0.57784 0.0
C608 C 0.77359 0.54906 0.59372 0.0
C609 C 0.70537 0.53751 0.61751 0.0
C610 C 0.66185 0.50888 0.62703 0.0
C611 C 0.73189 0.52073 0.60664 0.0
C612 C 0.64637 0.46357 0.62903 0.0
C613 C 0.67292 0.44655 0.61882 0.0
H614 H 0.61402 0.30169 0.23985 0.0
H615 H 0.50086 0.30566 0.27609 0.0
H616 H 0.47461 0.23488 0.30325 0.0
H617 H 0.47586 0.1655 0.30591 0.0
H618 H 0.5845 0.1585 0.26372 0.0
H619 H 0.62093 0.2366 0.24972 0.0
C620 C 0.58448 0.28762 0.25469 0.0
C621 C 0.55903 0.30811 0.25593 0.0
C622 C 0.56843 0.24592 0.26851 0.0
C623 C 0.52055 0.28982 0.27476 0.0
C624 C 0.50548 0.24937 0.29007 0.0
C625 C 0.5082 0.18177 0.2947 0.0
C626 C 0.52778 0.15706 0.28572 0.0
C627 C 0.52784 0.22604 0.28552 0.0
C628 C 0.56929 0.17756 0.27081 0.0
C629 C 0.58987 0.22197 0.26268 0.0
H630 H 0.40958 0.51074 0.2271 0.0
H631 H 0.4741 0.54503 0.13379 0.0
H632 H 0.4128 0.55044 0.11074 0.0
H633 H 0.34103 0.54759 0.11699 0.0
H634 H 0.27416 0.50911 0.20933 0.0
H635 H 0.33518 0.50306 0.23234 0.0
C636 C 0.41024 0.51943 0.20173 0.0
C637 C 0.44698 0.52766 0.18237 0.0
C638 C 0.37399 0.52163 0.18822 0.0
C639 C 0.44654 0.5383 0.14938 0.0
C640 C 0.41134 0.54152 0.13611 0.0
C641 C 0.33945 0.53734 0.14205 0.0
C642 C 0.30241 0.52871 0.1612 0.0
C643 C 0.37483 0.53342 0.15524 0.0
C644 C 0.30161 0.5156 0.1937 0.0
C645 C 0.33686 0.5124 0.20705 0.0
H646 H 0.41929 0.75877 0.82465 0.0
H647 H 0.55702 0.79843 0.82815 0.0
H648 H 0.57546 0.87398 0.8414 0.0
H649 H 0.55215 0.92971 0.85307 0.0
H650 H 0.41356 0.88715 0.85176 0.0
H651 H 0.39621 0.81301 0.83668 0.0
C652 C 0.45345 0.78385 0.82818 0.0
C653 C 0.48661 0.77229 0.82519 0.0
C654 C 0.46382 0.82733 0.83633 0.0
C655 C 0.5306 0.80578 0.83022 0.0
C656 C 0.54121 0.84926 0.83781 0.0
C657 C 0.5182 0.90426 0.8493 0.0
C658 C 0.48422 0.91456 0.8537 0.0
C659 C 0.50811 0.86063 0.84106 0.0
C660 C 0.44045 0.88059 0.8489 0.0
C661 C 0.43042 0.83793 0.84016 0.0
H662 H 0.09922 0.57927 0.47536 0.0
H663 H 0.11279 0.6054 0.57854 0.0
H664 H 0.1811 0.67449 0.56933 0.0
H665 H 0.23961 0.727 0.53227 0.0
H666 H 0.22696 0.70032 0.42921 0.0
H667 H 0.15635 0.63325 0.43806 0.0
C668 C 0.11679 0.60025 0.49586 0.0
C669 C 0.10048 0.58628 0.52774 0.0
C670 C 0.15669 0.64039 0.49039 0.0
C671 C 0.12443 0.61429 0.5538 0.0
C672 C 0.16364 0.65422 0.54852 0.0
C673 C 0.22112 0.70697 0.51164 0.0
C674 C 0.23896 0.71944 0.48 0.0
C675 C 0.18047 0.66756 0.51697 0.0
C676 C 0.2144 0.69216 0.45381 0.0
C677 C 0.17385 0.65347 0.45888 0.0
H678 H 0.58305 0.4624 0.84189 0.0
H679 H 0.47495 0.39395 0.77533 0.0
H680 H 0.47505 0.32494 0.78544 0.0
H681 H 0.50788 0.28392 0.81252 0.0
H682 H 0.61719 0.35497 0.87831 0.0
H683 H 0.61448 0.4219 0.86934 0.0
C684 C 0.55931 0.43225 0.82982 0.0
C685 C 0.52883 0.43335 0.80806 0.0
C686 C 0.55989 0.39274 0.83557 0.0
C687 C 0.49857 0.39402 0.79235 0.0
C688 C 0.49874 0.35451 0.79811 0.0
C689 C 0.53091 0.31394 0.82504 0.0
C690 C 0.56278 0.31368 0.84616 0.0
C691 C 0.52948 0.35334 0.81957 0.0
C692 C 0.59232 0.35347 0.8619 0.0
C693 C 0.59087 0.39216 0.85679 0.0
H694 H 0.73839 0.22052 0.48474 0.0
H695 H 0.66357 0.27183 0.53205 0.0
H696 H 0.59541 0.20444 0.51983 0.0
H697 H 0.55517 0.13063 0.49485 0.0
H698 H 0.62766 0.07603 0.44947 0.0
H699 H 0.6974 0.14386 0.46152 0.0
C700 C 0.70724 0.21691 0.49252 0.0
C701 C 0.70693 0.25209 0.50942 0.0
C702 C 0.66715 0.17705 0.48559 0.0
C703 C 0.66567 0.24602 0.51916 0.0
C704 C 0.62623 0.2072 0.51208 0.0
C705 C 0.58628 0.13353 0.48773 0.0
C706 C 0.58599 0.09811 0.47122 0.0
C707 C 0.62635 0.17252 0.4952 0.0
C708 C 0.62676 0.10256 0.46227 0.0
C709 C 0.66674 0.14153 0.46916 0.0
H710 H 0.88938 0.42979 0.14898 0.0
H711 H 0.96155 0.57021 0.13621 0.0
H712 H 0.89616 0.57448 0.1519 0.0
H713 H 0.81695 0.53761 0.16967 0.0
H714 H 0.74871 0.3976 0.18664 0.0
H715 H 0.81306 0.39408 0.16918 0.0
C716 C 0.89075 0.46133 0.14948 0.0
C717 C 0.93043 0.49954 0.14104 0.0
C718 C 0.85329 0.46368 0.15953 0.0
C719 C 0.93159 0.5402 0.14245 0.0
C720 C 0.89404 0.54263 0.15146 0.0
C721 C 0.81625 0.50641 0.16966 0.0
C722 C 0.77741 0.46793 0.17969 0.0
C723 C 0.85447 0.50455 0.16016 0.0
C724 C 0.77776 0.42794 0.1795 0.0
C725 C 0.81472 0.42573 0.1693 0.0
H726 H 0.0178 0.49785 0.77858 0.0
H727 H 0.04569 0.3917 0.77335 0.0
H728 H 0.02675 0.37498 0.83091 0.0
H729 H 1.00362 0.39175 0.88327 0.0
H730 H 0.97987 0.50051 0.88932 0.0
H731 H 0.99598 0.51541 0.83117 0.0
C732 C 0.01881 0.47055 0.79001 0.0
C733 C 0.0323 0.4455 0.77177 0.0
C734 C 1.00941 0.46221 0.82339 0.0
C735 C 0.0347 0.41092 0.78692 0.0
C736 C 0.02428 0.40165 0.81984 0.0
C737 C 1.00272 0.41908 0.8718 0.0
C738 C 0.99142 0.44556 0.8904 0.0
C739 C 1.01213 0.42742 0.83844 0.0
C740 C 0.98955 0.48046 0.87545 0.0
C741 C 0.99825 0.48861 0.8422 0.0
H742 H 0.52106 0.52691 0.44678 0.0
H743 H 0.62955 0.66011 0.44358 0.0
H744 H 0.64489 0.6564 0.50124 0.0
H745 H 0.62736 0.61493 0.55291 0.0
H746 H 0.51664 0.48319 0.55686 0.0
H747 H 0.50192 0.48649 0.49891 0.0
C748 C 0.5484 0.5548 0.45869 0.0
C749 C 0.57454 0.5935 0.4409 0.0
C750 C 0.55616 0.55286 0.49214 0.0
C751 C 0.60928 0.62983 0.45675 0.0
C752 C 0.61788 0.62781 0.48974 0.0
C753 C 0.59956 0.58738 0.54108 0.0
C754 C 0.57256 0.54914 0.55907 0.0
C755 C 0.59135 0.58962 0.50778 0.0
C756 C 0.53712 0.51326 0.54354 0.0
C757 C 0.52906 0.515 0.51038 0.0
H758 H 0.43343 0.06312 0.20116 0.0
H759 H 0.47053 0.96893 0.23324 0.0
H760 H 0.45717 0.93747 0.1789 0.0
H761 H 0.44007 0.93959 0.12111 0.0
H762 H 0.41105 0.03838 0.08747 0.0
H763 H 0.41771 0.06621 0.14327 0.0
C764 C 0.4391 0.036 0.19636 0.0
C765 C 0.45325 0.01882 0.22169 0.0
C766 C 0.43353 0.01932 0.16451 0.0
C767 C 0.45895 0.98267 0.2148 0.0
C768 C 0.4519 0.9649 0.18345 0.0
C769 C 0.43528 0.96725 0.12614 0.0
C770 C 0.42535 0.98719 0.10047 0.0
C771 C 0.44 0.98344 0.15804 0.0
C772 C 0.41923 0.02299 0.10697 0.0
C773 C 0.42278 0.03864 0.13882 0.0
H774 H 0.27087 0.62968 0.96913 0.0
H775 H 0.1804 0.55997 0.89104 0.0
H776 H 0.24072 0.56603 0.85745 0.0
H777 H 0.31657 0.58179 0.85349 0.0
H778 H 0.4055 0.64213 0.9339 0.0
H779 H 0.34973 0.65198 0.96276 0.0
C780 C 0.26484 0.61641 0.94463 0.0
C781 C 0.2217 0.59411 0.93242 0.0
C782 C 0.29963 0.61931 0.92573 0.0
C783 C 0.21363 0.57699 0.90072 0.0
C784 C 0.24802 0.58064 0.88154 0.0
C785 C 0.32424 0.59891 0.87671 0.0
C786 C 0.36497 0.61198 0.89149 0.0
C787 C 0.29091 0.60077 0.89409 0.0
C788 C 0.3745 0.63276 0.92195 0.0
C789 C 0.34231 0.63748 0.93866 0.0
H790 H 0.46391 0.74346 0.53025 0.0
H791 H 0.36806 0.75595 0.58755 0.0
H792 H 0.35941 0.6957 0.6232 0.0
H793 H 0.38185 0.6407 0.63829 0.0
H794 H 0.47513 0.6282 0.57735 0.0
H795 H 0.48175 0.6869 0.54225 0.0
C796 C 0.44138 0.73309 0.55075 0.0
C797 C 0.41751 0.75425 0.55717 0.0
C798 C 0.43594 0.69829 0.57007 0.0
C799 C 0.38722 0.7401 0.58285 0.0
C800 C 0.38225 0.70576 0.603 0.0
C801 C 0.40312 0.65084 0.61712 0.0
C802 C 0.42831 0.63096 0.61025 0.0
C803 C 0.40671 0.68473 0.59691 0.0
C804 C 0.45579 0.64368 0.58287 0.0
C805 C 0.45968 0.67715 0.56295 0.0
H806 H 0.23012 0.66555 0.2693 0.0
H807 H 0.31709 0.65333 0.20133 0.0
H808 H 0.38067 0.70418 0.23381 0.0
H809 H 0.41026 0.76515 0.27219 0.0
H810 H 0.32409 0.77505 0.34279 0.0
H811 H 0.26116 0.71176 0.31819 0.0
C812 C 0.26294 0.67292 0.26228 0.0
C813 C 0.26926 0.65714 0.23254 0.0
C814 C 0.29934 0.70261 0.28081 0.0
C815 C 0.31158 0.66572 0.22395 0.0
C816 C 0.34798 0.69512 0.24236 0.0
C817 C 0.37831 0.75282 0.28342 0.0
C818 C 0.37199 0.77696 0.3082 0.0
C819 C 0.34225 0.71592 0.26956 0.0
C820 C 0.32988 0.7591 0.32237 0.0
C821 C 0.29374 0.72253 0.30853 0.0
H822 H 0.58863 0.3563 0.05902 0.0
H823 H 0.66468 0.35435 0.14075 0.0
H824 H 0.67695 0.29973 0.11327 0.0
H825 H 0.65061 0.24116 0.07253 0.0
H826 H 0.57709 0.24478 0.98935 0.0
H827 H 0.57941 0.31049 0.01104 0.0
C828 C 0.60924 0.34505 0.07021 0.0
C829 C 0.62485 0.35832 0.10202 0.0
C830 C 0.61561 0.31324 0.05449 0.0
C831 C 0.65211 0.34429 0.11627 0.0
C832 C 0.65872 0.31269 0.10072 0.0
C833 C 0.63662 0.25709 0.05826 0.0
C834 C 0.612 0.23672 0.02999 0.0
C835 C 0.63835 0.29511 0.07071 0.0
C836 C 0.5945 0.25849 0.01197 0.0
C837 C 0.59601 0.29627 0.02424 0.0
H838 H 0.66384 0.234 0.72435 0.0
H839 H 0.67645 0.29571 0.8175 0.0
H840 H 0.73069 0.36693 0.79484 0.0
H841 H 0.78614 0.40619 0.75239 0.0
H842 H 0.77393 0.34356 0.6594 0.0
H843 H 0.70774 0.27799 0.67817 0.0
C844 C 0.67715 0.26346 0.73927 0.0
C845 C 0.66687 0.25975 0.77252 0.0
C846 C 0.70927 0.30376 0.72636 0.0
C847 C 0.68389 0.29791 0.79175 0.0
C848 C 0.71542 0.33849 0.77891 0.0
C849 C 0.76814 0.37894 0.73573 0.0
C850 C 0.78572 0.37934 0.70481 0.0
C851 C 0.73023 0.34114 0.74678 0.0
C852 C 0.76185 0.34359 0.68365 0.0
C853 C 0.72391 0.30613 0.69431 0.0
H854 H 0.61625 0.38909 0.4242 0.0
H855 H 0.67061 0.42857 0.32777 0.0
H856 H 0.73391 0.42151 0.34335 0.0
H857 H 0.77994 0.41941 0.38719 0.0
H858 H 0.72734 0.3831 0.48408 0.0
H859 H 0.65607 0.37122 0.46512 0.0
C860 C 0.64111 0.39463 0.40621 0.0
C861 C 0.63925 0.41035 0.37506 0.0
C862 C 0.67769 0.39102 0.41547 0.0
C863 C 0.6719 0.41758 0.35214 0.0
C864 C 0.70798 0.41335 0.36099 0.0
C865 C 0.75221 0.40701 0.40378 0.0
C866 C 0.75883 0.40279 0.43695 0.0
C867 C 0.71221 0.40229 0.393 0.0
C868 C 0.72288 0.38646 0.45837 0.0
C869 C 0.68237 0.38046 0.44763 0.0
loop_
_geom_bond_atom_site_label_1
_geom_bond_atom_site_label_2
_geom_bond_distance
_geom_bond_site_symmetry_2
_ccdc_geom_bond_type
Cd0 O57 2.350 . S
Cd0 O58 2.277 . S
Cd0 O65 2.173 . S
Cd0 O67 2.263 . S
Cd0 O69 2.366 . S
Cd0 O72 2.329 . S
C1 O65 1.277 . S
C1 O66 1.230 . S
C2 O3 1.246 . S
C2 C5 1.481 1_556 S
C2 N27 1.329 . S
O3 C2 1.246 . S
Cd4 O66 2.250 . S
Cd4 O68 2.308 . S
Cd4 O71 2.352 . S
C5 C2 1.481 1_554 S
C5 N8 1.327 . S
C5 C9 1.407 . S
C6 C7 1.346 . S
C6 C10 1.390 . S
C6 H74 0.930 1_455 S
C7 C6 1.346 . S
C7 N8 1.342 . S
C7 C12 1.516 . S
N8 C5 1.327 . S
N8 C7 1.342 . S
N8 Co11 1.864 . S
C9 C5 1.407 . S
C9 C10 1.364 . S
C9 H75 0.930 1_554 S
C10 C6 1.390 . S
C10 C9 1.364 . S
C10 H76 0.931 . S
Co11 N8 1.864 . S
Co11 N27 1.955 1_554 S
Co11 N28 1.958 . S
Co11 N29 1.953 . S
Co11 N47 1.869 . S
Co11 N53 1.974 . S
C12 C7 1.516 . S
C12 O13 1.238 1_455 S
C12 N28 1.324 . S
O13 C12 1.238 1_655 S
C14 C15 1.394 . S
C14 C19 1.395 . S
C14 N28 1.427 . S
C15 C14 1.394 . S
C15 C16 1.380 . S
C15 H77 0.929 . S
C16 C15 1.380 . S
C16 C17 1.384 . S
C16 C20 1.495 . S
C17 C16 1.384 . S
C17 C18 1.382 . S
C17 H78 0.930 . S
C18 C17 1.382 . S
C18 C19 1.398 . S
C19 C14 1.395 . S
C19 C18 1.398 . S
C19 H79 0.930 1_455 S
C20 C16 1.495 . S
C20 O67 1.258 . S
C20 O68 1.274 . S
C21 C22 1.385 . S
C21 C23 1.381 . S
C21 N27 1.432 . S
C22 C21 1.385 . S
C22 C26 1.388 . S
C22 H80 0.929 . S
C23 C21 1.381 . S
C23 C24 1.371 . S
C23 H81 0.932 . S
C24 C23 1.371 . S
C24 C25 1.400 . S
C25 C24 1.400 . S
C25 C26 1.351 . S
C25 H82 0.930 . S
C26 C22 1.388 . S
C26 C25 1.351 . S
N27 C2 1.329 . S
N27 Co11 1.955 1_556 S
N27 C21 1.432 . S
N28 Co11 1.958 . S
N28 C12 1.324 . S
N28 C14 1.427 . S
N29 Co11 1.953 . S
N29 C30 1.436 . S
N29 C56 1.316 . S
C30 N29 1.436 . S
C30 C31 1.421 . S
C30 C32 1.360 . S
C31 C30 1.421 . S
C31 C33 1.379 . S
C31 H34 0.929 . S
C32 C30 1.360 . S
C32 C36 1.393 . S
C32 H38 0.931 . S
C33 C31 1.379 . S
C33 C35 1.417 . S
C33 C37 1.505 . S
H34 C31 0.929 . S
C35 C33 1.417 . S
C35 C36 1.352 . S
C35 H39 0.929 . S
C36 C32 1.393 . S
C36 C35 1.352 . S
C36 C40 1.482 . S
C37 C33 1.505 . S
C37 O41 1.259 . S
C37 O42 1.229 . S
H38 C32 0.931 . S
H39 C35 0.929 . S
C40 C36 1.482 . S
C40 O43 1.207 . S
C40 O44 1.289 . S
O41 C37 1.259 . S
O41 H45 0.822 . S
O42 C37 1.229 . S
O43 C40 1.207 . S
O44 C40 1.289 . S
O44 H46 0.819 . S
H45 O41 0.822 . S
H46 O44 0.819 . S
N47 Co11 1.869 . S
N47 C48 1.330 . S
N47 C52 1.325 . S
C48 N47 1.330 . S
C48 C49 1.359 . S
C48 C54 1.504 1_554 S
C49 C48 1.359 . S
C49 C50 1.366 . S
C49 H83 0.929 1_554 S
C50 C49 1.366 . S
C50 C51 1.415 . S
C50 H84 0.932 . S
C51 C50 1.415 . S
C51 C52 1.366 . S
C51 H85 0.931 . S
C52 N47 1.325 . S
C52 C51 1.366 . S
C52 C56 1.516 . S
N53 Co11 1.974 . S
N53 C54 1.309 1_554 S
N53 C59 1.423 1_454 S
C54 C48 1.504 1_556 S
C54 N53 1.309 1_556 S
C54 O55 1.258 . S
O55 C54 1.258 . S
C56 N29 1.316 . S
C56 C52 1.516 . S
C56 O69 1.263 . S
O57 Cd0 2.350 . S
O57 C73 1.270 . S
O58 Cd0 2.277 . S
O58 C73 1.248 . S
C59 N53 1.423 1_656 S
C59 C60 1.370 1_556 S
C59 C64 1.403 . S
C60 C59 1.370 1_554 S
C60 C61 1.389 1_554 S
C60 H86 0.931 . S
C61 C60 1.389 1_556 S
C61 C62 1.389 . S
C62 C61 1.389 . S
C62 C63 1.379 . S
C62 H87 0.929 . S
C63 C62 1.379 . S
C63 C64 1.405 . S
C64 C59 1.403 . S
C64 C63 1.405 . S
C64 H88 0.932 1_655 S
O65 Cd0 2.173 . S
O65 C1 1.277 . S
O66 C1 1.230 . S
O66 Cd4 2.250 . S
O67 Cd0 2.263 . S
O67 C20 1.258 . S
O68 Cd4 2.308 . S
O68 C20 1.274 . S
O69 Cd0 2.366 . S
O69 C56 1.263 . S
C70 O71 1.235 . S
C70 O72 1.270 . S
O71 Cd4 2.352 . S
O71 C70 1.235 . S
O72 Cd0 2.329 . S
O72 C70 1.270 . S
C73 O57 1.270 . S
C73 O58 1.248 . S
H74 C6 0.930 1_655 S
H75 C9 0.930 1_556 S
H76 C10 0.931 . S
H77 C15 0.929 . S
H78 C17 0.930 . S
H79 C19 0.930 1_655 S
H80 C22 0.929 . S
H81 C23 0.932 . S
H82 C25 0.930 . S
H83 C49 0.929 1_556 S
H84 C50 0.932 . S
H85 C51 0.931 . S
H86 C60 0.931 . S
H87 C62 0.929 . S
H88 C64 0.932 1_455 S
Cd89 O146 2.350 . S
Cd89 O147 2.277 . S
Cd89 O154 2.173 . S
Cd89 O156 2.263 . S
Cd89 O158 2.366 . S
Cd89 O161 2.329 . S
C90 O154 1.277 . S
C90 O155 1.230 . S
C91 O92 1.246 . S
C91 C94 1.481 . S
C91 N116 1.329 . S
O92 C91 1.246 . S
Cd93 O155 2.250 . S
Cd93 O157 2.308 . S
Cd93 O160 2.352 . S
C94 C91 1.481 . S
C94 N97 1.327 . S
C94 C98 1.407 . S
C95 C96 1.346 . S
C95 C99 1.390 . S
C95 H163 0.930 . S
C96 C95 1.346 . S
C96 N97 1.342 . S
C96 C101 1.516 . S
N97 C94 1.327 . S
N97 C96 1.342 . S
N97 Co100 1.864 . S
C98 C94 1.407 . S
C98 C99 1.364 . S
C98 H164 0.930 . S
C99 C95 1.390 . S
C99 C98 1.364 . S
C99 H165 0.931 . S
Co100 N97 1.864 . S
Co100 N116 1.955 . S
Co100 N117 1.958 . S
Co100 N118 1.953 . S
Co100 N136 1.869 . S
Co100 N142 1.974 . S
C101 C96 1.516 . S
C101 O102 1.238 . S
C101 N117 1.324 . S
O102 C101 1.238 . S
C103 C104 1.394 . S
C103 C108 1.395 . S
C103 N117 1.427 . S
C104 C103 1.394 . S
C104 C105 1.380 . S
C104 H166 0.929 . S
C105 C104 1.380 . S
C105 C106 1.384 . S
C105 C109 1.495 . S
C106 C105 1.384 . S
C106 C107 1.382 . S
C106 H167 0.930 . S
C107 C106 1.382 . S
C107 C108 1.398 . S
C108 C103 1.395 . S
C108 C107 1.398 . S
C108 H168 0.930 . S
C109 C105 1.495 . S
C109 O156 1.258 . S
C109 O157 1.274 . S
C110 C111 1.385 . S
C110 C112 1.381 . S
C110 N116 1.432 . S
C111 C110 1.385 . S
C111 C115 1.388 . S
C111 H169 0.929 . S
C112 C110 1.381 . S
C112 C113 1.371 . S
C112 H170 0.932 . S
C113 C112 1.371 . S
C113 C114 1.400 . S
C114 C113 1.400 . S
C114 C115 1.351 . S
C114 H171 0.930 . S
C115 C111 1.388 . S
C115 C114 1.351 . S
N116 C91 1.329 . S
N116 Co100 1.955 . S
N116 C110 1.432 . S
N117 Co100 1.958 . S
N117 C101 1.324 . S
N117 C103 1.427 . S
N118 Co100 1.953 . S
N118 C119 1.436 . S
N118 C145 1.316 . S
C119 N118 1.436 . S
C119 C120 1.421 . S
C119 C121 1.360 . S
C120 C119 1.421 . S
C120 C122 1.379 . S
C120 H123 0.929 . S
C121 C119 1.360 . S
C121 C125 1.393 . S
C121 H127 0.931 . S
C122 C120 1.379 . S
C122 C124 1.417 . S
C122 C126 1.505 . S
H123 C120 0.929 . S
C124 C122 1.417 . S
C124 C125 1.352 . S
C124 H128 0.929 . S
C125 C121 1.393 . S
C125 C124 1.352 . S
C125 C129 1.482 . S
C126 C122 1.505 . S
C126 O130 1.259 . S
C126 O131 1.229 . S
H127 C121 0.931 . S
H128 C124 0.929 . S
C129 C125 1.482 . S
C129 O132 1.207 . S
C129 O133 1.289 . S
O130 C126 1.259 . S
O130 H134 0.822 . S
O131 C126 1.229 . S
O132 C129 1.207 . S
O133 C129 1.289 . S
O133 H135 0.819 . S
H134 O130 0.822 . S
H135 O133 0.819 . S
N136 Co100 1.869 . S
N136 C137 1.330 . S
N136 C141 1.325 . S
C137 N136 1.330 . S
C137 C138 1.359 . S
C137 C143 1.504 . S
C138 C137 1.359 . S
C138 C139 1.366 . S
C138 H172 0.929 . S
C139 C138 1.366 . S
C139 C140 1.415 . S
C139 H173 0.932 . S
C140 C139 1.415 . S
C140 C141 1.366 . S
C140 H174 0.931 . S
C141 N136 1.325 . S
C141 C140 1.366 . S
C141 C145 1.516 . S
N142 Co100 1.974 . S
N142 C143 1.309 . S
N142 C148 1.423 . S
C143 C137 1.504 . S
C143 N142 1.309 . S
C143 O144 1.258 . S
O144 C143 1.258 . S
C145 N118 1.316 . S
C145 C141 1.516 . S
C145 O158 1.263 . S
O146 Cd89 2.350 . S
O146 C162 1.270 . S
O147 Cd89 2.277 . S
O147 C162 1.248 . S
C148 N142 1.423 . S
C148 C149 1.370 . S
C148 C153 1.403 . S
C149 C148 1.370 . S
C149 C150 1.389 . S
C149 H175 0.931 . S
C150 C149 1.389 . S
C150 C151 1.389 . S
C151 C150 1.389 . S
C151 C152 1.379 . S
C151 H176 0.929 . S
C152 C151 1.379 . S
C152 C153 1.405 . S
C153 C148 1.403 . S
C153 C152 1.405 . S
C153 H177 0.932 . S
O154 Cd89 2.173 . S
O154 C90 1.277 . S
O155 C90 1.230 . S
O155 Cd93 2.250 . S
O156 Cd89 2.263 . S
O156 C109 1.258 . S
O157 Cd93 2.308 . S
O157 C109 1.274 . S
O158 Cd89 2.366 . S
O158 C145 1.263 . S
C159 O160 1.235 . S
C159 O161 1.270 . S
O160 Cd93 2.352 . S
O160 C159 1.235 . S
O161 Cd89 2.329 . S
O161 C159 1.270 . S
C162 O146 1.270 . S
C162 O147 1.248 . S
H163 C95 0.930 . S
H164 C98 0.930 . S
H165 C99 0.931 . S
H166 C104 0.929 . S
H167 C106 0.930 . S
H168 C108 0.930 . S
H169 C111 0.929 . S
H170 C112 0.932 . S
H171 C114 0.930 . S
H172 C138 0.929 . S
H173 C139 0.932 . S
H174 C140 0.931 . S
H175 C149 0.931 . S
H176 C151 0.929 . S
H177 C153 0.932 . S
Cd178 O235 2.350 . S
Cd178 O236 2.277 . S
Cd178 O243 2.173 . S
Cd178 O245 2.263 . S
Cd178 O247 2.366 . S
Cd178 O250 2.329 . S
C179 O243 1.277 . S
C179 O244 1.230 . S
C180 O181 1.246 . S
C180 C183 1.481 . S
C180 N205 1.329 . S
O181 C180 1.246 . S
Cd182 O244 2.250 . S
Cd182 O246 2.308 . S
Cd182 O249 2.352 . S
C183 C180 1.481 . S
C183 N186 1.327 . S
C183 C187 1.407 . S
C184 C185 1.346 . S
C184 C188 1.390 . S
C184 H252 0.930 1_565 S
C185 C184 1.346 . S
C185 N186 1.342 . S
C185 C190 1.516 . S
N186 C183 1.327 . S
N186 C185 1.342 . S
N186 Co189 1.864 . S
C187 C183 1.407 . S
C187 C188 1.364 . S
C187 H253 0.930 . S
C188 C184 1.390 . S
C188 C187 1.364 . S
C188 H254 0.931 . S
Co189 N186 1.864 . S
Co189 N205 1.955 . S
Co189 N206 1.958 . S
Co189 N207 1.953 . S
Co189 N225 1.869 . S
Co189 N231 1.974 . S
C190 C185 1.516 . S
C190 O191 1.238 1_565 S
C190 N206 1.324 . S
O191 C190 1.238 1_545 S
C192 C193 1.394 . S
C192 C197 1.395 . S
C192 N206 1.427 . S
C193 C192 1.394 . S
C193 C194 1.380 . S
C193 H255 0.929 . S
C194 C193 1.380 . S
C194 C195 1.384 . S
C194 C198 1.495 . S
C195 C194 1.384 . S
C195 C196 1.382 . S
C195 H256 0.930 . S
C196 C195 1.382 . S
C196 C197 1.398 . S
C197 C192 1.395 . S
C197 C196 1.398 . S
C197 H257 0.930 1_565 S
C198 C194 1.495 . S
C198 O245 1.258 . S
C198 O246 1.274 . S
C199 C200 1.385 . S
C199 C201 1.381 . S
C199 N205 1.432 . S
C200 C199 1.385 . S
C200 C204 1.388 . S
C200 H258 0.929 . S
C201 C199 1.381 . S
C201 C202 1.371 . S
C201 H259 0.932 . S
C202 C201 1.371 . S
C202 C203 1.400 . S
C203 C202 1.400 . S
C203 C204 1.351 . S
C203 H260 0.930 . S
C204 C200 1.388 . S
C204 C203 1.351 . S
N205 C180 1.329 . S
N205 Co189 1.955 . S
N205 C199 1.432 . S
N206 Co189 1.958 . S
N206 C190 1.324 . S
N206 C192 1.427 . S
N207 Co189 1.953 . S
N207 C208 1.436 . S
N207 C234 1.316 . S
C208 N207 1.436 . S
C208 C209 1.421 . S
C208 C210 1.360 . S
C209 C208 1.421 . S
C209 C211 1.379 . S
C209 H212 0.929 . S
C210 C208 1.360 . S
C210 C214 1.393 . S
C210 H216 0.931 . S
C211 C209 1.379 . S
C211 C213 1.417 . S
C211 C215 1.505 . S
H212 C209 0.929 . S
C213 C211 1.417 . S
C213 C214 1.352 . S
C213 H217 0.929 . S
C214 C210 1.393 . S
C214 C213 1.352 . S
C214 C218 1.482 . S
C215 C211 1.505 . S
C215 O219 1.259 . S
C215 O220 1.229 . S
H216 C210 0.931 . S
H217 C213 0.929 . S
C218 C214 1.482 . S
C218 O221 1.207 . S
C218 O222 1.289 . S
O219 C215 1.259 . S
O219 H223 0.822 . S
O220 C215 1.229 . S
O221 C218 1.207 . S
O222 C218 1.289 . S
O222 H224 0.819 . S
H223 O219 0.822 . S
H224 O222 0.819 . S
N225 Co189 1.869 . S
N225 C226 1.330 . S
N225 C230 1.325 . S
C226 N225 1.330 . S
C226 C227 1.359 . S
C226 C232 1.504 . S
C227 C226 1.359 . S
C227 C228 1.366 . S
C227 H261 0.929 . S
C228 C227 1.366 . S
C228 C229 1.415 . S
C228 H262 0.932 . S
C229 C228 1.415 . S
C229 C230 1.366 . S
C229 H263 0.931 . S
C230 N225 1.325 . S
C230 C229 1.366 . S
C230 C234 1.516 . S
N231 Co189 1.974 . S
N231 C232 1.309 . S
N231 C237 1.423 1_565 S
C232 C226 1.504 . S
C232 N231 1.309 . S
C232 O233 1.258 . S
O233 C232 1.258 . S
C234 N207 1.316 . S
C234 C230 1.516 . S
C234 O247 1.263 . S
O235 Cd178 2.350 . S
O235 C251 1.270 . S
O236 Cd178 2.277 . S
O236 C251 1.248 . S
C237 N231 1.423 1_545 S
C237 C238 1.370 . S
C237 C242 1.403 . S
C238 C237 1.370 . S
C238 C239 1.389 . S
C238 H264 0.931 . S
C239 C238 1.389 . S
C239 C240 1.389 . S
C240 C239 1.389 . S
C240 C241 1.379 . S
C240 H265 0.929 . S
C241 C240 1.379 . S
C241 C242 1.405 . S
C242 C237 1.403 . S
C242 C241 1.405 . S
C242 H266 0.932 1_545 S
O243 Cd178 2.173 . S
O243 C179 1.277 . S
O244 C179 1.230 . S
O244 Cd182 2.250 . S
O245 Cd178 2.263 . S
O245 C198 1.258 . S
O246 Cd182 2.308 . S
O246 C198 1.274 . S
O247 Cd178 2.366 . S
O247 C234 1.263 . S
C248 O249 1.235 . S
C248 O250 1.270 . S
O249 Cd182 2.352 . S
O249 C248 1.235 . S
O250 Cd178 2.329 . S
O250 C248 1.270 . S
C251 O235 1.270 . S
C251 O236 1.248 . S
H252 C184 0.930 1_545 S
H253 C187 0.930 . S
H254 C188 0.931 . S
H255 C193 0.929 . S
H256 C195 0.930 . S
H257 C197 0.930 1_545 S
H258 C200 0.929 . S
H259 C201 0.932 . S
H260 C203 0.930 . S
H261 C227 0.929 . S
H262 C228 0.932 . S
H263 C229 0.931 . S
H264 C238 0.931 . S
H265 C240 0.929 . S
H266 C242 0.932 1_565 S
Cd267 O324 2.350 . S
Cd267 O325 2.277 . S
Cd267 O332 2.173 . S
Cd267 O334 2.263 . S
Cd267 O336 2.366 . S
Cd267 O339 2.329 . S
C268 O332 1.277 . S
C268 O333 1.230 . S
C269 O270 1.246 . S
C269 C272 1.481 1_554 S
C269 N294 1.329 . S
O270 C269 1.246 . S
Cd271 O333 2.250 . S
Cd271 O335 2.308 . S
Cd271 O338 2.352 . S
C272 C269 1.481 1_556 S
C272 N275 1.327 . S
C272 C276 1.407 . S
C273 C274 1.346 . S
C273 C277 1.390 . S
C273 H341 0.930 1_545 S
C274 C273 1.346 . S
C274 N275 1.342 . S
C274 C279 1.516 . S
N275 C272 1.327 . S
N275 C274 1.342 . S
N275 Co278 1.864 . S
C276 C272 1.407 . S
C276 C277 1.364 . S
C276 H342 0.930 1_556 S
C277 C273 1.390 . S
C277 C276 1.364 . S
C277 H343 0.931 . S
Co278 N275 1.864 . S
Co278 N294 1.955 1_556 S
Co278 N295 1.958 . S
Co278 N296 1.953 . S
Co278 N314 1.869 . S
Co278 N320 1.974 . S
C279 C274 1.516 . S
C279 O280 1.238 1_545 S
C279 N295 1.324 . S
O280 C279 1.238 1_565 S
C281 C282 1.394 . S
C281 C286 1.395 . S
C281 N295 1.427 . S
C282 C281 1.394 . S
C282 C283 1.380 . S
C282 H344 0.929 . S
C283 C282 1.380 . S
C283 C284 1.384 . S
C283 C287 1.495 . S
C284 C283 1.384 . S
C284 C285 1.382 . S
C284 H345 0.930 . S
C285 C284 1.382 . S
C285 C286 1.398 . S
C286 C281 1.395 . S
C286 C285 1.398 . S
C286 H346 0.930 1_545 S
C287 C283 1.495 . S
C287 O334 1.258 . S
C287 O335 1.274 . S
C288 C289 1.385 . S
C288 C290 1.381 . S
C288 N294 1.432 . S
C289 C288 1.385 . S
C289 C293 1.388 . S
C289 H347 0.929 . S
C290 C288 1.381 . S
C290 C291 1.371 . S
C290 H348 0.932 . S
C291 C290 1.371 . S
C291 C292 1.400 . S
C292 C291 1.400 . S
C292 C293 1.351 . S
C292 H349 0.930 . S
C293 C289 1.388 . S
C293 C292 1.351 . S
N294 C269 1.329 . S
N294 Co278 1.955 1_554 S
N294 C288 1.432 . S
N295 Co278 1.958 . S
N295 C279 1.324 . S
N295 C281 1.427 . S
N296 Co278 1.953 . S
N296 C297 1.436 . S
N296 C323 1.316 . S
C297 N296 1.436 . S
C297 C298 1.421 . S
C297 C299 1.360 . S
C298 C297 1.421 . S
C298 C300 1.379 . S
C298 H301 0.929 . S
C299 C297 1.360 . S
C299 C303 1.393 . S
C299 H305 0.931 . S
C300 C298 1.379 . S
C300 C302 1.417 . S
C300 C304 1.505 . S
H301 C298 0.929 . S
C302 C300 1.417 . S
C302 C303 1.352 . S
C302 H306 0.929 . S
C303 C299 1.393 . S
C303 C302 1.352 . S
C303 C307 1.482 . S
C304 C300 1.505 . S
C304 O308 1.259 . S
C304 O309 1.229 . S
H305 C299 0.931 . S
H306 C302 0.929 . S
C307 C303 1.482 . S
C307 O310 1.207 . S
C307 O311 1.289 . S
O308 C304 1.259 . S
O308 H312 0.822 . S
O309 C304 1.229 . S
O310 C307 1.207 . S
O311 C307 1.289 . S
O311 H313 0.819 . S
H312 O308 0.822 . S
H313 O311 0.819 . S
N314 Co278 1.869 . S
N314 C315 1.330 . S
N314 C319 1.325 . S
C315 N314 1.330 . S
C315 C316 1.359 . S
C315 C321 1.504 1_556 S
C316 C315 1.359 . S
C316 C317 1.366 . S
C316 H350 0.929 1_556 S
C317 C316 1.366 . S
C317 C318 1.415 . S
C317 H351 0.932 . S
C318 C317 1.415 . S
C318 C319 1.366 . S
C318 H352 0.931 . S
C319 N314 1.325 . S
C319 C318 1.366 . S
C319 C323 1.516 . S
N320 Co278 1.974 . S
N320 C321 1.309 1_556 S
N320 C326 1.423 1_546 S
C321 C315 1.504 1_554 S
C321 N320 1.309 1_554 S
C321 O322 1.258 . S
O322 C321 1.258 . S
C323 N296 1.316 . S
C323 C319 1.516 . S
C323 O336 1.263 . S
O324 Cd267 2.350 . S
O324 C340 1.270 . S
O325 Cd267 2.277 . S
O325 C340 1.248 . S
C326 N320 1.423 1_564 S
C326 C327 1.370 1_554 S
C326 C331 1.403 . S
C327 C326 1.370 1_556 S
C327 C328 1.389 1_556 S
C327 H353 0.931 . S
C328 C327 1.389 1_554 S
C328 C329 1.389 . S
C329 C328 1.389 . S
C329 C330 1.379 . S
C329 H354 0.929 . S
C330 C329 1.379 . S
C330 C331 1.405 . S
C331 C326 1.403 . S
C331 C330 1.405 . S
C331 H355 0.932 1_565 S
O332 Cd267 2.173 . S
O332 C268 1.277 . S
O333 C268 1.230 . S
O333 Cd271 2.250 . S
O334 Cd267 2.263 . S
O334 C287 1.258 . S
O335 Cd271 2.308 . S
O335 C287 1.274 . S
O336 Cd267 2.366 . S
O336 C323 1.263 . S
C337 O338 1.235 . S
C337 O339 1.270 . S
O338 Cd271 2.352 . S
O338 C337 1.235 . S
O339 Cd267 2.329 . S
O339 C337 1.270 . S
C340 O324 1.270 . S
C340 O325 1.248 . S
H341 C273 0.930 1_565 S
H342 C276 0.930 1_554 S
H343 C277 0.931 . S
H344 C282 0.929 . S
H345 C284 0.930 . S
H346 C286 0.930 1_565 S
H347 C289 0.929 . S
H348 C290 0.932 . S
H349 C292 0.930 . S
H350 C316 0.929 1_554 S
H351 C317 0.932 . S
H352 C318 0.931 . S
H353 C327 0.931 . S
H354 C329 0.929 . S
H355 C331 0.932 1_545 S
Cd356 O413 2.350 . S
Cd356 O414 2.277 . S
Cd356 O421 2.173 . S
Cd356 O423 2.263 . S
Cd356 O425 2.366 . S
Cd356 O428 2.329 . S
C357 O421 1.277 . S
C357 O422 1.230 . S
C358 O359 1.246 . S
C358 C361 1.481 . S
C358 N383 1.329 . S
O359 C358 1.246 . S
Cd360 O422 2.250 . S
Cd360 O424 2.308 . S
Cd360 O427 2.352 . S
C361 C358 1.481 . S
C361 N364 1.327 . S
C361 C365 1.407 . S
C362 C363 1.346 . S
C362 C366 1.390 . S
C362 H430 0.930 1_655 S
C363 C362 1.346 . S
C363 N364 1.342 . S
C363 C368 1.516 . S
N364 C361 1.327 . S
N364 C363 1.342 . S
N364 Co367 1.864 . S
C365 C361 1.407 . S
C365 C366 1.364 . S
C365 H431 0.930 . S
C366 C362 1.390 . S
C366 C365 1.364 . S
C366 H432 0.931 . S
Co367 N364 1.864 . S
Co367 N383 1.955 . S
Co367 N384 1.958 . S
Co367 N385 1.953 . S
Co367 N403 1.869 . S
Co367 N409 1.974 . S
C368 C363 1.516 . S
C368 O369 1.238 1_655 S
C368 N384 1.324 . S
O369 C368 1.238 1_455 S
C370 C371 1.394 . S
C370 C375 1.395 . S
C370 N384 1.427 . S
C371 C370 1.394 . S
C371 C372 1.380 . S
C371 H433 0.929 . S
C372 C371 1.380 . S
C372 C373 1.384 . S
C372 C376 1.495 . S
C373 C372 1.384 . S
C373 C374 1.382 . S
C373 H434 0.930 . S
C374 C373 1.382 . S
C374 C375 1.398 . S
C375 C370 1.395 . S
C375 C374 1.398 . S
C375 H435 0.930 1_655 S
C376 C372 1.495 . S
C376 O423 1.258 . S
C376 O424 1.274 . S
C377 C378 1.385 . S
C377 C379 1.381 . S
C377 N383 1.432 . S
C378 C377 1.385 . S
C378 C382 1.388 . S
C378 H436 0.929 . S
C379 C377 1.381 . S
C379 C380 1.371 . S
C379 H437 0.932 . S
C380 C379 1.371 . S
C380 C381 1.400 . S
C381 C380 1.400 . S
C381 C382 1.351 . S
C381 H438 0.930 . S
C382 C378 1.388 . S
C382 C381 1.351 . S
N383 C358 1.329 . S
N383 Co367 1.955 . S
N383 C377 1.432 . S
N384 Co367 1.958 . S
N384 C368 1.324 . S
N384 C370 1.427 . S
N385 Co367 1.953 . S
N385 C386 1.436 . S
N385 C412 1.316 . S
C386 N385 1.436 . S
C386 C387 1.421 . S
C386 C388 1.360 . S
C387 C386 1.421 . S
C387 C389 1.379 . S
C387 H390 0.929 . S
C388 C386 1.360 . S
C388 C392 1.393 . S
C388 H394 0.931 . S
C389 C387 1.379 . S
C389 C391 1.417 . S
C389 C393 1.505 . S
H390 C387 0.929 . S
C391 C389 1.417 . S
C391 C392 1.352 . S
C391 H395 0.929 . S
C392 C388 1.393 . S
C392 C391 1.352 . S
C392 C396 1.482 . S
C393 C389 1.505 . S
C393 O397 1.259 . S
C393 O398 1.229 . S
H394 C388 0.931 . S
H395 C391 0.929 . S
C396 C392 1.482 . S
C396 O399 1.207 . S
C396 O400 1.289 . S
O397 C393 1.259 . S
O397 H401 0.822 . S
O398 C393 1.229 . S
O399 C396 1.207 . S
O400 C396 1.289 . S
O400 H402 0.819 . S
H401 O397 0.822 . S
H402 O400 0.819 . S
N403 Co367 1.869 . S
N403 C404 1.330 . S
N403 C408 1.325 . S
C404 N403 1.330 . S
C404 C405 1.359 . S
C404 C410 1.504 . S
C405 C404 1.359 . S
C405 C406 1.366 . S
C405 H439 0.929 . S
C406 C405 1.366 . S
C406 C407 1.415 . S
C406 H440 0.932 . S
C407 C406 1.415 . S
C407 C408 1.366 . S
C407 H441 0.931 . S
C408 N403 1.325 . S
C408 C407 1.366 . S
C408 C412 1.516 . S
N409 Co367 1.974 . S
N409 C410 1.309 . S
N409 C415 1.423 1_655 S
C410 C404 1.504 . S
C410 N409 1.309 . S
C410 O411 1.258 . S
O411 C410 1.258 . S
C412 N385 1.316 . S
C412 C408 1.516 . S
C412 O425 1.263 . S
O413 Cd356 2.350 . S
O413 C429 1.270 . S
O414 Cd356 2.277 . S
O414 C429 1.248 . S
C415 N409 1.423 1_455 S
C415 C416 1.370 . S
C415 C420 1.403 . S
C416 C415 1.370 . S
C416 C417 1.389 . S
C416 H442 0.931 . S
C417 C416 1.389 . S
C417 C418 1.389 . S
C418 C417 1.389 . S
C418 C419 1.379 . S
C418 H443 0.929 . S
C419 C418 1.379 . S
C419 C420 1.405 . S
C420 C415 1.403 . S
C420 C419 1.405 . S
C420 H444 0.932 1_455 S
O421 Cd356 2.173 . S
O421 C357 1.277 . S
O422 C357 1.230 . S
O422 Cd360 2.250 . S
O423 Cd356 2.263 . S
O423 C376 1.258 . S
O424 Cd360 2.308 . S
O424 C376 1.274 . S
O425 Cd356 2.366 . S
O425 C412 1.263 . S
C426 O427 1.235 . S
C426 O428 1.270 . S
O427 Cd360 2.352 . S
O427 C426 1.235 . S
O428 Cd356 2.329 . S
O428 C426 1.270 . S
C429 O413 1.270 . S
C429 O414 1.248 . S
H430 C362 0.930 1_455 S
H431 C365 0.930 . S
H432 C366 0.931 . S
H433 C371 0.929 . S
H434 C373 0.930 . S
H435 C375 0.930 1_455 S
H436 C378 0.929 . S
H437 C379 0.932 . S
H438 C381 0.930 . S
H439 C405 0.929 . S
H440 C406 0.932 . S
H441 C407 0.931 . S
H442 C416 0.931 . S
H443 C418 0.929 . S
H444 C420 0.932 1_655 S
Cd445 O502 2.350 . S
Cd445 O503 2.277 . S
Cd445 O510 2.173 . S
Cd445 O512 2.263 . S
Cd445 O514 2.366 . S
Cd445 O517 2.329 . S
C446 O510 1.277 . S
C446 O511 1.230 . S
C447 O448 1.246 . S
C447 C450 1.481 . S
C447 N472 1.329 . S
O448 C447 1.246 . S
Cd449 O511 2.250 . S
Cd449 O513 2.308 . S
Cd449 O516 2.352 . S
C450 C447 1.481 . S
C450 N453 1.327 . S
C450 C454 1.407 . S
C451 C452 1.346 . S
C451 C455 1.390 . S
C451 H519 0.930 . S
C452 C451 1.346 . S
C452 N453 1.342 . S
C452 C457 1.516 . S
N453 C450 1.327 . S
N453 C452 1.342 . S
N453 Co456 1.864 . S
C454 C450 1.407 . S
C454 C455 1.364 . S
C454 H520 0.930 . S
C455 C451 1.390 . S
C455 C454 1.364 . S
C455 H521 0.931 . S
Co456 N453 1.864 . S
Co456 N472 1.955 . S
Co456 N473 1.958 . S
Co456 N474 1.953 . S
Co456 N492 1.869 . S
Co456 N498 1.974 . S
C457 C452 1.516 . S
C457 O458 1.238 . S
C457 N473 1.324 . S
O458 C457 1.238 . S
C459 C460 1.394 . S
C459 C464 1.395 . S
C459 N473 1.427 . S
C460 C459 1.394 . S
C460 C461 1.380 . S
C460 H522 0.929 . S
C461 C460 1.380 . S
C461 C462 1.384 . S
C461 C465 1.495 . S
C462 C461 1.384 . S
C462 C463 1.382 . S
C462 H523 0.930 . S
C463 C462 1.382 . S
C463 C464 1.398 . S
C464 C459 1.395 . S
C464 C463 1.398 . S
C464 H524 0.930 . S
C465 C461 1.495 . S
C465 O512 1.258 . S
C465 O513 1.274 . S
C466 C467 1.385 . S
C466 C468 1.381 . S
C466 N472 1.432 . S
C467 C466 1.385 . S
C467 C471 1.388 . S
C467 H525 0.929 . S
C468 C466 1.381 . S
C468 C469 1.371 . S
C468 H526 0.932 . S
C469 C468 1.371 . S
C469 C470 1.400 . S
C470 C469 1.400 . S
C470 C471 1.351 . S
C470 H527 0.930 . S
C471 C467 1.388 . S
C471 C470 1.351 . S
N472 C447 1.329 . S
N472 Co456 1.955 . S
N472 C466 1.432 . S
N473 Co456 1.958 . S
N473 C457 1.324 . S
N473 C459 1.427 . S
N474 Co456 1.953 . S
N474 C475 1.436 . S
N474 C501 1.316 . S
C475 N474 1.436 . S
C475 C476 1.421 . S
C475 C477 1.360 . S
C476 C475 1.421 . S
C476 C478 1.379 . S
C476 H479 0.929 . S
C477 C475 1.360 . S
C477 C481 1.393 . S
C477 H483 0.931 . S
C478 C476 1.379 . S
C478 C480 1.417 . S
C478 C482 1.505 . S
H479 C476 0.929 . S
C480 C478 1.417 . S
C480 C481 1.352 . S
C480 H484 0.929 . S
C481 C477 1.393 . S
C481 C480 1.352 . S
C481 C485 1.482 . S
C482 C478 1.505 . S
C482 O486 1.259 . S
C482 O487 1.229 . S
H483 C477 0.931 . S
H484 C480 0.929 . S
C485 C481 1.482 . S
C485 O488 1.207 . S
C485 O489 1.289 . S
O486 C482 1.259 . S
O486 H490 0.822 . S
O487 C482 1.229 . S
O488 C485 1.207 . S
O489 C485 1.289 . S
O489 H491 0.819 . S
H490 O486 0.822 . S
H491 O489 0.819 . S
N492 Co456 1.869 . S
N492 C493 1.330 . S
N492 C497 1.325 . S
C493 N492 1.330 . S
C493 C494 1.359 . S
C493 C499 1.504 . S
C494 C493 1.359 . S
C494 C495 1.366 . S
C494 H528 0.929 . S
C495 C494 1.366 . S
C495 C496 1.415 . S
C495 H529 0.932 . S
C496 C495 1.415 . S
C496 C497 1.366 . S
C496 H530 0.931 . S
C497 N492 1.325 . S
C497 C496 1.366 . S
C497 C501 1.516 . S
N498 Co456 1.974 . S
N498 C499 1.309 . S
N498 C504 1.423 . S
C499 C493 1.504 . S
C499 N498 1.309 . S
C499 O500 1.258 . S
O500 C499 1.258 . S
C501 N474 1.316 . S
C501 C497 1.516 . S
C501 O514 1.263 . S
O502 Cd445 2.350 . S
O502 C518 1.270 . S
O503 Cd445 2.277 . S
O503 C518 1.248 . S
C504 N498 1.423 . S
C504 C505 1.370 . S
C504 C509 1.403 . S
C505 C504 1.370 . S
C505 C506 1.389 . S
C505 H531 0.931 . S
C506 C505 1.389 . S
C506 C507 1.389 . S
C507 C506 1.389 . S
C507 C508 1.379 . S
C507 H532 0.929 . S
C508 C507 1.379 . S
C508 C509 1.405 . S
C509 C504 1.403 . S
C509 C508 1.405 . S
C509 H533 0.932 . S
O510 Cd445 2.173 . S
O510 C446 1.277 . S
O511 C446 1.230 . S
O511 Cd449 2.250 . S
O512 Cd445 2.263 . S
O512 C465 1.258 . S
O513 Cd449 2.308 . S
O513 C465 1.274 . S
O514 Cd445 2.366 . S
O514 C501 1.263 . S
C515 O516 1.235 . S
C515 O517 1.270 . S
O516 Cd449 2.352 . S
O516 C515 1.235 . S
O517 Cd445 2.329 . S
O517 C515 1.270 . S
C518 O502 1.270 . S
C518 O503 1.248 . S
H519 C451 0.930 . S
H520 C454 0.930 . S
H521 C455 0.931 . S
H522 C460 0.929 . S
H523 C462 0.930 . S
H524 C464 0.930 . S
H525 C467 0.929 . S
H526 C468 0.932 . S
H527 C470 0.930 . S
H528 C494 0.929 . S
H529 C495 0.932 . S
H530 C496 0.931 . S
H531 C505 0.931 . S
H532 C507 0.929 . S
H533 C509 0.932 . S
H534 C540 0.930 . S
H535 C543 0.930 . S
H536 C544 0.930 . S
H537 C545 0.930 . S
H538 C548 0.952 . S
H539 C549 0.930 . S
C540 H534 0.930 . S
C540 C541 1.355 . S
C540 C542 1.415 . S
C541 C540 1.355 . S
C541 C543 1.419 . S
C542 C540 1.415 . S
C542 C547 1.425 . S
C542 C549 1.409 . S
C543 H535 0.930 . S
C543 C541 1.419 . S
C543 C544 1.362 . S
C544 H536 0.930 . S
C544 C543 1.362 . S
C544 C547 1.409 . S
C545 H537 0.930 . S
C545 C546 1.355 . S
C545 C547 1.415 . S
C546 C545 1.355 . S
C546 C548 1.408 1_554 S
C547 C542 1.425 . S
C547 C544 1.409 . S
C547 C545 1.415 . S
C548 H538 0.952 . S
C548 C546 1.408 1_556 S
C548 C549 1.352 1_556 S
C549 H539 0.930 . S
C549 C542 1.409 . S
C549 C548 1.352 1_554 S
H550 C556 0.930 . S
H551 C559 0.930 . S
H552 C560 0.930 . S
H553 C561 0.930 . S
H554 C564 0.930 . S
H555 C565 0.930 . S
C556 H550 0.930 . S
C556 C557 1.355 . S
C556 C558 1.415 . S
C557 C556 1.355 . S
C557 C559 1.419 . S
C558 C556 1.415 . S
C558 C563 1.425 . S
C558 C565 1.409 . S
C559 H551 0.930 . S
C559 C557 1.419 . S
C559 C560 1.362 . S
C560 H552 0.930 . S
C560 C559 1.362 . S
C560 C563 1.409 . S
C561 H553 0.930 . S
C561 C562 1.355 . S
C561 C563 1.415 . S
C562 C561 1.355 . S
C562 C564 1.419 . S
C563 C558 1.425 . S
C563 C560 1.409 . S
C563 C561 1.415 . S
C564 H554 0.930 . S
C564 C562 1.419 . S
C564 C565 1.362 . S
C565 H555 0.930 . S
C565 C558 1.409 . S
C565 C564 1.362 . S
H566 C572 0.930 . S
H567 C575 0.930 . S
H568 C576 0.930 . S
H569 C577 0.930 . S
H570 C580 0.930 . S
H571 C581 0.930 . S
C572 H566 0.930 . S
C572 C573 1.355 . S
C572 C574 1.415 . S
C573 C572 1.355 . S
C573 C575 1.419 . S
C574 C572 1.415 . S
C574 C579 1.425 . S
C574 C581 1.409 . S
C575 H567 0.930 . S
C575 C573 1.419 . S
C575 C576 1.362 . S
C576 H568 0.930 . S
C576 C575 1.362 . S
C576 C579 1.409 . S
C577 H569 0.930 . S
C577 C578 1.355 . S
C577 C579 1.415 . S
C578 C577 1.355 . S
C578 C580 1.419 . S
C579 C574 1.425 . S
C579 C576 1.409 . S
C579 C577 1.415 . S
C580 H570 0.930 . S
C580 C578 1.419 . S
C580 C581 1.362 . S
C581 H571 0.930 . S
C581 C574 1.409 . S
C581 C580 1.362 . S
H582 C588 0.930 . S
H583 C591 0.930 . S
H584 C592 0.930 . S
H585 C593 0.930 . S
H586 C596 0.930 . S
H587 C597 0.930 1_554 S
C588 H582 0.930 . S
C588 C589 1.355 . S
C588 C590 1.415 . S
C589 C588 1.355 . S
C589 C591 1.419 . S
C590 C588 1.415 . S
C590 C595 1.425 . S
C590 C597 1.409 . S
C591 H583 0.930 . S
C591 C589 1.419 . S
C591 C592 1.362 . S
C592 H584 0.930 . S
C592 C591 1.362 . S
C592 C595 1.409 . S
C593 H585 0.930 . S
C593 C594 1.355 . S
C593 C595 1.415 . S
C594 C593 1.355 . S
C594 C596 1.419 1_556 S
C595 C590 1.425 . S
C595 C592 1.409 . S
C595 C593 1.415 . S
C596 H586 0.930 . S
C596 C594 1.419 1_554 S
C596 C597 1.362 1_554 S
C597 H587 0.930 1_556 S
C597 C590 1.409 . S
C597 C596 1.362 1_556 S
H598 C604 0.930 . S
H599 C607 0.930 . S
H600 C608 0.930 . S
H601 C609 0.930 . S
H602 C612 0.930 . S
H603 C613 0.930 . S
C604 H598 0.930 . S
C604 C605 1.355 . S
C604 C606 1.415 . S
C605 C604 1.355 . S
C605 C607 1.419 . S
C606 C604 1.415 . S
C606 C611 1.425 . S
C606 C613 1.409 . S
C607 H599 0.930 . S
C607 C605 1.419 . S
C607 C608 1.362 . S
C608 H600 0.930 . S
C608 C607 1.362 . S
C608 C611 1.409 . S
C609 H601 0.930 . S
C609 C610 1.355 . S
C609 C611 1.415 . S
C610 C609 1.355 . S
C610 C612 1.419 . S
C611 C606 1.425 . S
C611 C608 1.409 . S
C611 C609 1.415 . S
C612 H602 0.930 . S
C612 C610 1.419 . S
C612 C613 1.362 . S
C613 H603 0.930 . S
C613 C606 1.409 . S
C613 C612 1.362 . S
H614 C620 0.930 . S
H615 C623 0.930 . S
H616 C624 0.930 . S
H617 C625 0.930 . S
H618 C628 0.930 . S
H619 C629 0.930 . S
C620 H614 0.930 . S
C620 C621 1.355 . S
C620 C622 1.415 . S
C621 C620 1.355 . S
C621 C623 1.419 . S
C622 C620 1.415 . S
C622 C627 1.425 . S
C622 C629 1.409 . S
C623 H615 0.930 . S
C623 C621 1.419 . S
C623 C624 1.362 . S
C624 H616 0.930 . S
C624 C623 1.362 . S
C624 C627 1.409 . S
C625 H617 0.930 . S
C625 C626 1.355 . S
C625 C627 1.415 . S
C626 C625 1.355 . S
C626 C628 1.419 . S
C627 C622 1.425 . S
C627 C624 1.409 . S
C627 C625 1.415 . S
C628 H618 0.930 . S
C628 C626 1.419 . S
C628 C629 1.362 . S
C629 H619 0.930 . S
C629 C622 1.409 . S
C629 C628 1.362 . S
H630 C636 0.930 . S
H631 C639 0.930 . S
H632 C640 0.930 . S
H633 C641 0.930 . S
H634 C644 0.930 . S
H635 C645 0.930 . S
C636 H630 0.930 . S
C636 C637 1.355 . S
C636 C638 1.415 . S
C637 C636 1.355 . S
C637 C639 1.419 . S
C638 C636 1.415 . S
C638 C643 1.425 . S
C638 C645 1.409 . S
C639 H631 0.930 . S
C639 C637 1.419 . S
C639 C640 1.362 . S
C640 H632 0.930 . S
C640 C639 1.362 . S
C640 C643 1.409 . S
C641 H633 0.930 . S
C641 C642 1.355 . S
C641 C643 1.415 . S
C642 C641 1.355 . S
C642 C644 1.419 . S
C643 C638 1.425 . S
C643 C640 1.409 . S
C643 C641 1.415 . S
C644 H634 0.930 . S
C644 C642 1.419 . S
C644 C645 1.362 . S
C645 H635 0.930 . S
C645 C638 1.409 . S
C645 C644 1.362 . S
H646 C652 0.930 . S
H647 C655 0.930 . S
H648 C656 0.930 . S
H649 C657 0.930 . S
H650 C660 0.930 . S
H651 C661 0.930 . S
C652 H646 0.930 . S
C652 C653 1.355 . S
C652 C654 1.415 . S
C653 C652 1.355 . S
C653 C655 1.419 . S
C654 C652 1.415 . S
C654 C659 1.425 . S
C654 C661 1.409 . S
C655 H647 0.930 . S
C655 C653 1.419 . S
C655 C656 1.362 . S
C656 H648 0.930 . S
C656 C655 1.362 . S
C656 C659 1.409 . S
C657 H649 0.930 . S
C657 C658 1.355 . S
C657 C659 1.415 . S
C658 C657 1.355 . S
C658 C660 1.419 . S
C659 C654 1.425 . S
C659 C656 1.409 . S
C659 C657 1.415 . S
C660 H650 0.930 . S
C660 C658 1.419 . S
C660 C661 1.362 . S
C661 H651 0.930 . S
C661 C654 1.409 . S
C661 C660 1.362 . S
H662 C668 0.930 . S
H663 C671 0.930 . S
H664 C672 0.930 . S
H665 C673 0.930 . S
H666 C676 0.930 . S
H667 C677 0.930 . S
C668 H662 0.930 . S
C668 C669 1.355 . S
C668 C670 1.415 . S
C669 C668 1.355 . S
C669 C671 1.419 . S
C670 C668 1.415 . S
C670 C675 1.425 . S
C670 C677 1.409 . S
C671 H663 0.930 . S
C671 C669 1.419 . S
C671 C672 1.362 . S
C672 H664 0.930 . S
C672 C671 1.362 . S
C672 C675 1.409 . S
C673 H665 0.930 . S
C673 C674 1.355 . S
C673 C675 1.415 . S
C674 C673 1.355 . S
C674 C676 1.419 . S
C675 C670 1.425 . S
C675 C672 1.409 . S
C675 C673 1.415 . S
C676 H666 0.930 . S
C676 C674 1.419 . S
C676 C677 1.362 . S
C677 H667 0.930 . S
C677 C670 1.409 . S
C677 C676 1.362 . S
H678 C684 0.930 . S
H679 C687 0.930 . S
H680 C688 0.930 . S
H681 C689 0.930 . S
H682 C692 0.930 . S
H683 C693 0.930 . S
C684 H678 0.930 . S
C684 C685 1.355 . S
C684 C686 1.415 . S
C685 C684 1.355 . S
C685 C687 1.419 . S
C686 C684 1.415 . S
C686 C691 1.425 . S
C686 C693 1.409 . S
C687 H679 0.930 . S
C687 C685 1.419 . S
C687 C688 1.362 . S
C688 H680 0.930 . S
C688 C687 1.362 . S
C688 C691 1.409 . S
C689 H681 0.930 . S
C689 C690 1.355 . S
C689 C691 1.415 . S
C690 C689 1.355 . S
C690 C692 1.419 . S
C691 C686 1.425 . S
C691 C688 1.409 . S
C691 C689 1.415 . S
C692 H682 0.930 . S
C692 C690 1.419 . S
C692 C693 1.362 . S
C693 H683 0.930 . S
C693 C686 1.409 . S
C693 C692 1.362 . S
H694 C700 0.930 . S
H695 C703 0.930 . S
H696 C704 0.930 . S
H697 C705 0.930 . S
H698 C708 0.930 . S
H699 C709 0.930 . S
C700 H694 0.930 . S
C700 C701 1.355 . S
C700 C702 1.415 . S
C701 C700 1.355 . S
C701 C703 1.419 . S
C702 C700 1.415 . S
C702 C707 1.425 . S
C702 C709 1.409 . S
C703 H695 0.930 . S
C703 C701 1.419 . S
C703 C704 1.362 . S
C704 H696 0.930 . S
C704 C703 1.362 . S
C704 C707 1.409 . S
C705 H697 0.930 . S
C705 C706 1.355 . S
C705 C707 1.415 . S
C706 C705 1.355 . S
C706 C708 1.419 . S
C707 C702 1.425 . S
C707 C704 1.409 . S
C707 C705 1.415 . S
C708 H698 0.930 . S
C708 C706 1.419 . S
C708 C709 1.362 . S
C709 H699 0.930 . S
C709 C702 1.409 . S
C709 C708 1.362 . S
H710 C716 0.930 . S
H711 C719 0.930 . S
H712 C720 0.930 . S
H713 C721 0.930 . S
H714 C724 0.930 . S
H715 C725 0.930 . S
C716 H710 0.930 . S
C716 C717 1.355 . S
C716 C718 1.415 . S
C717 C716 1.355 . S
C717 C719 1.419 . S
C718 C716 1.415 . S
C718 C723 1.425 . S
C718 C725 1.409 . S
C719 H711 0.930 . S
C719 C717 1.419 . S
C719 C720 1.362 . S
C720 H712 0.930 . S
C720 C719 1.362 . S
C720 C723 1.409 . S
C721 H713 0.930 . S
C721 C722 1.355 . S
C721 C723 1.415 . S
C722 C721 1.355 . S
C722 C724 1.419 . S
C723 C718 1.425 . S
C723 C720 1.409 . S
C723 C721 1.415 . S
C724 H714 0.930 . S
C724 C722 1.419 . S
C724 C725 1.362 . S
C725 H715 0.930 . S
C725 C718 1.409 . S
C725 C724 1.362 . S
H726 C732 0.930 . S
H727 C735 0.930 . S
H728 C736 0.930 . S
H729 C737 0.930 . S
H730 C740 0.930 . S
H731 C741 0.930 . S
C732 H726 0.930 . S
C732 C733 1.355 1_655 S
C732 C734 1.415 . S
C733 C732 1.355 1_455 S
C733 C735 1.419 . S
C734 C732 1.415 . S
C734 C739 1.425 1_655 S
C734 C741 1.409 . S
C735 H727 0.930 . S
C735 C733 1.419 . S
C735 C736 1.362 . S
C736 H728 0.930 . S
C736 C735 1.362 . S
C736 C739 1.409 . S
C737 H729 0.930 . S
C737 C738 1.355 1_455 S
C737 C739 1.415 . S
C738 C737 1.355 1_655 S
C738 C740 1.419 . S
C739 C734 1.425 1_455 S
C739 C736 1.409 . S
C739 C737 1.415 . S
C740 H730 0.930 . S
C740 C738 1.419 . S
C740 C741 1.362 . S
C741 H731 0.930 . S
C741 C734 1.409 . S
C741 C740 1.362 . S
H742 C748 0.930 . S
H743 C751 0.930 . S
H744 C752 0.930 . S
H745 C753 0.930 . S
H746 C756 0.930 . S
H747 C757 0.930 . S
C748 H742 0.930 . S
C748 C749 1.355 . S
C748 C750 1.415 . S
C749 C748 1.355 . S
C749 C751 1.419 . S
C750 C748 1.415 . S
C750 C755 1.425 . S
C750 C757 1.409 . S
C751 H743 0.930 . S
C751 C749 1.419 . S
C751 C752 1.362 . S
C752 H744 0.930 . S
C752 C751 1.362 . S
C752 C755 1.409 . S
C753 H745 0.930 . S
C753 C754 1.355 . S
C753 C755 1.415 . S
C754 C753 1.355 . S
C754 C756 1.419 . S
C755 C750 1.425 . S
C755 C752 1.409 . S
C755 C753 1.415 . S
C756 H746 0.930 . S
C756 C754 1.419 . S
C756 C757 1.362 . S
C757 H747 0.930 . S
C757 C750 1.409 . S
C757 C756 1.362 . S
H758 C764 0.930 . S
H759 C767 0.930 1_565 S
H760 C768 0.930 . S
H761 C769 0.930 . S
H762 C772 0.930 1_545 S
H763 C773 0.930 . S
C764 H758 0.930 . S
C764 C765 1.355 . S
C764 C766 1.415 . S
C765 C764 1.355 . S
C765 C767 1.419 . S
C766 C764 1.415 . S
C766 C771 1.425 1_545 S
C766 C773 1.409 . S
C767 H759 0.930 1_545 S
C767 C765 1.419 . S
C767 C768 1.362 1_545 S
C768 H760 0.930 . S
C768 C767 1.362 1_565 S
C768 C771 1.409 . S
C769 H761 0.930 . S
C769 C770 1.355 . S
C769 C771 1.415 . S
C770 C769 1.355 . S
C770 C772 1.419 . S
C771 C766 1.425 1_565 S
C771 C768 1.409 . S
C771 C769 1.415 . S
C772 H762 0.930 1_565 S
C772 C770 1.419 . S
C772 C773 1.362 1_565 S
C773 H763 0.930 . S
C773 C766 1.409 . S
C773 C772 1.362 1_545 S
H774 C780 0.930 . S
H775 C783 0.930 . S
H776 C784 0.930 . S
H777 C785 0.930 . S
H778 C788 0.930 . S
H779 C789 0.930 . S
C780 H774 0.930 . S
C780 C781 1.355 . S
C780 C782 1.415 . S
C781 C780 1.355 . S
C781 C783 1.419 . S
C782 C780 1.415 . S
C782 C787 1.425 . S
C782 C789 1.409 . S
C783 H775 0.930 . S
C783 C781 1.419 . S
C783 C784 1.362 . S
C784 H776 0.930 . S
C784 C783 1.362 . S
C784 C787 1.409 . S
C785 H777 0.930 . S
C785 C786 1.355 . S
C785 C787 1.415 . S
C786 C785 1.355 . S
C786 C788 1.419 . S
C787 C782 1.425 . S
C787 C784 1.409 . S
C787 C785 1.415 . S
C788 H778 0.930 . S
C788 C786 1.419 . S
C788 C789 1.362 . S
C789 H779 0.930 . S
C789 C782 1.409 . S
C789 C788 1.362 . S
H790 C796 0.930 . S
H791 C799 0.930 . S
H792 C800 0.930 . S
H793 C801 0.930 . S
H794 C804 0.930 . S
H795 C805 0.930 . S
C796 H790 0.930 . S
C796 C797 1.355 . S
C796 C798 1.415 . S
C797 C796 1.355 . S
C797 C799 1.419 . S
C798 C796 1.415 . S
C798 C803 1.425 . S
C798 C805 1.409 . S
C799 H791 0.930 . S
C799 C797 1.419 . S
C799 C800 1.362 . S
C800 H792 0.930 . S
C800 C799 1.362 . S
C800 C803 1.409 . S
C801 H793 0.930 . S
C801 C802 1.355 . S
C801 C803 1.415 . S
C802 C801 1.355 . S
C802 C804 1.419 . S
C803 C798 1.425 . S
C803 C800 1.409 . S
C803 C801 1.415 . S
C804 H794 0.930 . S
C804 C802 1.419 . S
C804 C805 1.362 . S
C805 H795 0.930 . S
C805 C798 1.409 . S
C805 C804 1.362 . S
H806 C812 0.930 . S
H807 C815 0.930 . S
H808 C816 0.930 . S
H809 C817 0.930 . S
H810 C820 0.930 . S
H811 C821 0.930 . S
C812 H806 0.930 . S
C812 C813 1.355 . S
C812 C814 1.415 . S
C813 C812 1.355 . S
C813 C815 1.419 . S
C814 C812 1.415 . S
C814 C819 1.425 . S
C814 C821 1.409 . S
C815 H807 0.930 . S
C815 C813 1.419 . S
C815 C816 1.362 . S
C816 H808 0.930 . S
C816 C815 1.362 . S
C816 C819 1.409 . S
C817 H809 0.930 . S
C817 C818 1.355 . S
C817 C819 1.415 . S
C818 C817 1.355 . S
C818 C820 1.419 . S
C819 C814 1.425 . S
C819 C816 1.409 . S
C819 C817 1.415 . S
C820 H810 0.930 . S
C820 C818 1.419 . S
C820 C821 1.362 . S
C821 H811 0.930 . S
C821 C814 1.409 . S
C821 C820 1.362 . S
H822 C828 0.930 . S
H823 C831 0.930 . S
H824 C832 0.930 . S
H825 C833 0.930 . S
H826 C836 0.930 . S
H827 C837 0.930 . S
C828 H822 0.930 . S
C828 C829 1.355 . S
C828 C830 1.415 . S
C829 C828 1.355 . S
C829 C831 1.419 . S
C830 C828 1.415 . S
C830 C835 1.425 . S
C830 C837 1.409 . S
C831 H823 0.930 . S
C831 C829 1.419 . S
C831 C832 1.362 . S
C832 H824 0.930 . S
C832 C831 1.362 . S
C832 C835 1.409 . S
C833 H825 0.930 . S
C833 C834 1.355 . S
C833 C835 1.415 . S
C834 C833 1.355 . S
C834 C836 1.419 . S
C835 C830 1.425 . S
C835 C832 1.409 . S
C835 C833 1.415 . S
C836 H826 0.930 . S
C836 C834 1.419 . S
C836 C837 1.362 . S
C837 H827 0.930 . S
C837 C830 1.409 . S
C837 C836 1.362 . S
H838 C844 0.930 . S
H839 C847 0.930 . S
H840 C848 0.930 . S
H841 C849 0.930 . S
H842 C852 0.930 . S
H843 C853 0.930 . S
C844 H838 0.930 . S
C844 C845 1.355 . S
C844 C846 1.415 . S
C845 C844 1.355 . S
C845 C847 1.419 . S
C846 C844 1.415 . S
C846 C851 1.425 . S
C846 C853 1.409 . S
C847 H839 0.930 . S
C847 C845 1.419 . S
C847 C848 1.362 . S
C848 H840 0.930 . S
C848 C847 1.362 . S
C848 C851 1.409 . S
C849 H841 0.930 . S
C849 C850 1.355 . S
C849 C851 1.415 . S
C850 C849 1.355 . S
C850 C852 1.419 . S
C851 C846 1.425 . S
C851 C848 1.409 . S
C851 C849 1.415 . S
C852 H842 0.930 . S
C852 C850 1.419 . S
C852 C853 1.362 . S
C853 H843 0.930 . S
C853 C846 1.409 . S
C853 C852 1.362 . S
H854 C860 0.930 . S
H855 C863 0.930 . S
H856 C864 0.930 . S
H857 C865 0.930 . S
H858 C868 0.930 . S
H859 C869 0.930 . S
C860 H854 0.930 . S
C860 C861 1.355 . S
C860 C862 1.415 . S
C861 C860 1.355 . S
C861 C863 1.419 . S
C862 C860 1.415 . S
C862 C867 1.425 . S
C862 C869 1.409 . S
C863 H855 0.930 . S
C863 C861 1.419 . S
C863 C864 1.362 . S
C864 H856 0.930 . S
C864 C863 1.362 . S
C864 C867 1.409 . S
C865 H857 0.930 . S
C865 C866 1.355 . S
C865 C867 1.415 . S
C866 C865 1.355 . S
C866 C868 1.419 . S
C867 C862 1.425 . S
C867 C864 1.409 . S
C867 C865 1.415 . S
C868 H858 0.930 . S
C868 C866 1.419 . S
C868 C869 1.362 . S
C869 H859 0.930 . S
C869 C862 1.409 . S
C869 C868 1.362 . S
C541 C1 1.899 . S
C546 C328 1.683 . S
C557 C90 1.934 . S
C562 C417 1.614 . S
C573 C179 1.902 . S
C578 C506 1.668 . S
C589 C268 1.906 . S
C594 C61 1.696 . S
C605 C357 1.934 . S
C610 C150 1.616 . S
C621 C446 1.935 . S
C626 C239 1.591 . S
C637 C463 2.924 . S
C642 C73 2.908 . S
C653 C162 2.937 . S
C658 C285 2.925 1_565 S
C669 C374 2.951 1_455 S
C674 C251 2.928 . S
C685 C107 2.958 . S
C690 C340 2.916 . S
C701 C429 2.901 . S
C706 C196 2.955 1_545 S
C717 C18 2.958 1_655 S
C722 C518 2.908 . S
C733 C419 1.923 . S
C738 C63 1.920 . S
C749 C508 1.923 . S
C754 C152 1.919 . S
C765 C241 1.893 . S
C770 C330 1.900 . S
C781 C26 0.694 . S
C786 C159 0.750 . S
C797 C248 0.844 . S
C802 C115 0.773 . S
C813 C70 0.858 . S
C818 C204 0.899 . S
C829 C515 0.850 . S
C834 C293 0.900 . S
C845 C337 0.761 . S
C850 C382 0.874 . S
C861 C471 0.882 . S
C866 C426 0.777 . S
