# Generated by pormake.
# Topology sow, (4)-cn, num edge types: 1
# Building blocks:
#     Node 0, Type 0, BuildingBlock: KOZSID_clean_sbu_0, # of connection points: 4
#     Node 1, Type 0, BuildingBlock: KOZSID_clean_sbu_0, # of connection points: 4
#     Node 2, Type 0, BuildingBlock: KOZSID_clean_sbu_0, # of connection points: 4
#     Node 3, Type 0, BuildingBlock: KOZSID_clean_sbu_0, # of connection points: 4
#     Node 4, Type 0, BuildingBlock: KOZSID_clean_sbu_0, # of connection points: 4
#     Node 5, Type 0, BuildingBlock: KOZSID_clean_sbu_0, # of connection points: 4
#     Node 6, Type 0, BuildingBlock: KOZSID_clean_sbu_0, # of connection points: 4
#     Node 7, Type 0, BuildingBlock: KOZSID_clean_sbu_0, # of connection points: 4
#     Edge 8, Type (0, 0), BuildingBlock: XIVTED_clean_linker_0, # of connection points: 2
#     Edge 9, Type (0, 0), BuildingBlock: XIVTED_clean_linker_0, # of connection points: 2
#     Edge 10, Type (0, 0), BuildingBlock: XIVTED_clean_linker_0, # of connection points: 2
#     Edge 11, Type (0, 0), BuildingBlock: XIVTED_clean_linker_0, # of connection points: 2
#     Edge 12, Type (0, 0), BuildingBlock: XIVTED_clean_linker_0, # of connection points: 2
#     Edge 13, Type (0, 0), BuildingBlock: XIVTED_clean_linker_0, # of connection points: 2
#     Edge 14, Type (0, 0), BuildingBlock: XIVTED_clean_linker_0, # of connection points: 2
#     Edge 15, Type (0, 0), BuildingBlock: XIVTED_clean_linker_0, # of connection points: 2
#     Edge 16, Type (0, 0), BuildingBlock: XIVTED_clean_linker_0, # of connection points: 2
#     Edge 17, Type (0, 0), BuildingBlock: XIVTED_clean_linker_0, # of connection points: 2
#     Edge 18, Type (0, 0), BuildingBlock: XIVTED_clean_linker_0, # of connection points: 2
#     Edge 19, Type (0, 0), BuildingBlock: XIVTED_clean_linker_0, # of connection points: 2
#     Edge 20, Type (0, 0), BuildingBlock: XIVTED_clean_linker_0, # of connection points: 2
#     Edge 21, Type (0, 0), BuildingBlock: XIVTED_clean_linker_0, # of connection points: 2
#     Edge 22, Type (0, 0), BuildingBlock: XIVTED_clean_linker_0, # of connection points: 2
#     Edge 23, Type (0, 0), BuildingBlock: XIVTED_clean_linker_0, # of connection points: 2
# Relax obj value: 0.058
# Max RMSD: 0.287
# Mean RMSD: 0.222
data_MOF--net-sow--node1-KOZSID_clean_sbu_0--edge1-XIVTED_clean_linker_0
_symmetry_space_group_name_H-M    P1
_symmetry_Int_Tables_number       1
_symmetry_cell_setting            triclinic
loop_
_symmetry_equiv_pos_as_xyz
'x, y, z'
_cell_length_a     56.907518
_cell_length_b     16.28071
_cell_length_c     25.003735
_cell_angle_alpha  88.684245
_cell_angle_beta   90.258575
_cell_angle_gamma 90.266922
loop_
_atom_site_label
_atom_site_type_symbol
_atom_site_fract_x
_atom_site_fract_y
_atom_site_fract_z
_atom_type_partial_charge
C0 C 0.08362 0.01172 0.24863 0.0
C1 C 0.07097 0.95623 0.28026 0.0
C2 C 0.08024 0.88033 0.27169 0.0
C3 C 0.09798 0.8937 0.23553 0.0
N4 N 0.10093 0.97361 0.22156 0.0
Co5 Co 0.12365 0.01759 0.16722 0.0
N6 N 0.14105 0.91091 0.1649 0.0
C7 C 0.1338 0.83864 0.18646 0.0
C8 C 0.14931 0.77569 0.17877 0.0
C9 C 0.16746 0.81001 0.15011 0.0
C10 C 0.16193 0.89216 0.14169 0.0
N11 N 0.14567 0.06031 0.11109 0.0
C12 C 0.16547 0.02724 0.09072 0.0
C13 C 0.17441 0.07613 0.04917 0.0
C14 C 0.15989 0.14222 0.04363 0.0
C15 C 0.14287 0.12994 0.08158 0.0
N16 N 0.10715 0.12546 0.1708 0.0
C17 C 0.11012 0.19036 0.13708 0.0
C18 C 0.0969 0.25717 0.14976 0.0
C19 C 0.08437 0.23274 0.19378 0.0
C20 C 0.09061 0.15179 0.2054 0.0
N21 N 0.14502 0.05346 0.22467 0.0
C22 C 0.1781 0.09272 0.30446 0.0
C23 C 0.17433 0.14591 0.26037 0.0
C24 C 0.15751 0.12559 0.22114 0.0
C25 C 0.16382 0.02295 0.30935 0.0
C26 C 0.14774 0.00409 0.26921 0.0
N27 N 0.10179 0.97984 0.11092 0.0
C28 C 0.0614 0.9606 0.08371 0.0
C29 C 0.06755 0.89314 0.05339 0.0
C30 C 0.09146 0.87501 0.04797 0.0
C31 C 0.10834 0.92077 0.0758 0.0
C32 C 0.07867 0.00265 0.11213 0.0
H33 H 0.12654 0.90492 0.07092 0.0
H34 H 0.07279 0.05023 0.13747 0.0
H35 H 0.15547 0.16634 0.18689 0.0
H36 H 0.13848 0.94682 0.27338 0.0
C37 C 0.11345 0.83412 0.21739 0.0
C38 C 0.07685 0.09802 0.24138 0.0
C39 C 0.17587 0.94848 0.10765 0.0
C40 C 0.12613 0.18755 0.09535 0.0
H41 H 0.05617 0.96924 0.30574 0.0
H42 H 0.07473 0.82239 0.2898 0.0
H43 H 0.14776 0.71258 0.19295 0.0
H44 H 0.18279 0.77797 0.13612 0.0
H45 H 0.18978 0.06525 0.02507 0.0
H46 H 0.16188 0.19418 0.0162 0.0
H47 H 0.09622 0.31625 0.12906 0.0
H48 H 0.07119 0.26908 0.21324 0.0
H49 H 0.18551 0.19922 0.254 0.0
H50 H 0.16648 0.97861 0.34159 0.0
H51 H 0.04313 0.97727 0.0886 0.0
H52 H 0.097 0.82438 0.02374 0.0
C53 C 0.40105 0.13391 0.76164 0.0
C54 C 0.40286 0.19198 0.80126 0.0
C55 C 0.38136 0.22991 0.80374 0.0
C56 C 0.36769 0.19346 0.76544 0.0
N57 N 0.3793 0.13484 0.73957 0.0
Co58 Co 0.36686 0.06973 0.6799 0.0
N59 N 0.3425 0.15272 0.66207 0.0
C60 C 0.33518 0.21169 0.69495 0.0
C61 C 0.31847 0.26171 0.67181 0.0
C62 C 0.3149 0.23181 0.62156 0.0
C63 C 0.32942 0.16395 0.61687 0.0
N64 N 0.35415 0.00386 0.62063 0.0
C65 C 0.33977 0.02597 0.57918 0.0
C66 C 0.33465 0.9584 0.54819 0.0
C67 C 0.3462 0.89244 0.57118 0.0
C68 C 0.35766 0.92275 0.61504 0.0
N69 N 0.39145 0.98821 0.69738 0.0
C70 C 0.39145 0.90912 0.68342 0.0
C71 C 0.41201 0.87019 0.69806 0.0
C72 C 0.42563 0.92904 0.72234 0.0
C73 C 0.41261 0.00069 0.721 0.0
N74 N 0.345 0.01328 0.73062 0.0
C75 C 0.31289 0.95826 0.81007 0.0
C76 C 0.33717 0.95634 0.81929 0.0
C77 C 0.35285 0.98587 0.7798 0.0
C78 C 0.3056 0.97358 0.75685 0.0
C79 C 0.32174 0.00266 0.71822 0.0
N80 N 0.38922 0.12476 0.63074 0.0
C81 C 0.42215 0.10913 0.57148 0.0
C82 C 0.4301 0.18892 0.58185 0.0
C83 C 0.41593 0.23812 0.61387 0.0
C84 C 0.39537 0.20536 0.63713 0.0
C85 C 0.40182 0.07843 0.59615 0.0
H86 H 0.38527 0.24369 0.66304 0.0
H87 H 0.39733 0.01496 0.59016 0.0
H88 H 0.37127 0.98979 0.79002 0.0
H89 H 0.31519 0.01969 0.67896 0.0
C90 C 0.34689 0.22576 0.74347 0.0
C91 C 0.41988 0.07865 0.74484 0.0
C92 C 0.32886 0.10772 0.57115 0.0
C93 C 0.37476 0.88115 0.64624 0.0
H94 H 0.41811 0.20727 0.82498 0.0
H95 H 0.37688 0.28198 0.82776 0.0
H96 H 0.31045 0.31539 0.68865 0.0
H97 H 0.30282 0.25704 0.59206 0.0
H98 H 0.3235 0.95662 0.51306 0.0
H99 H 0.34672 0.8304 0.5566 0.0
H100 H 0.41715 0.80807 0.68917 0.0
H101 H 0.44313 0.92067 0.73862 0.0
H102 H 0.34382 0.93664 0.85797 0.0
H103 H 0.28737 0.96796 0.74561 0.0
H104 H 0.4324 0.06831 0.54731 0.0
H105 H 0.42103 0.30072 0.6222 0.0
C106 C 0.58866 0.38434 0.80746 0.0
C107 C 0.57416 0.43973 0.78038 0.0
C108 C 0.58122 0.51658 0.79466 0.0
C109 C 0.59955 0.50412 0.82962 0.0
N110 N 0.60501 0.42419 0.83753 0.0
Co111 Co 0.62882 0.38107 0.89044 0.0
N112 N 0.64223 0.49298 0.90285 0.0
C113 C 0.63254 0.56475 0.88683 0.0
C114 C 0.64543 0.63212 0.90149 0.0
C115 C 0.66442 0.60109 0.92896 0.0
C116 C 0.66201 0.51627 0.9295 0.0
N117 N 0.65194 0.33778 0.94438 0.0
C118 C 0.67065 0.37461 0.96788 0.0
C119 C 0.682 0.32107 0.00344 0.0
C120 C 0.66995 0.24851 1.00255 0.0
C121 C 0.65203 0.26153 0.96662 0.0
N122 N 0.61596 0.26852 0.87716 0.0
C123 C 0.62148 0.19911 0.90471 0.0
C124 C 0.61077 0.13009 0.88563 0.0
C125 C 0.59712 0.15744 0.84397 0.0
C126 C 0.60009 0.24209 0.84043 0.0
N127 N 0.65184 0.3677 0.83271 0.0
C128 C 0.68692 0.35817 0.75385 0.0
C129 C 0.68412 0.29564 0.793 0.0
C130 C 0.66644 0.30128 0.83169 0.0
C131 C 0.67145 0.4246 0.75467 0.0
C132 C 0.65426 0.42836 0.79427 0.0
N133 N 0.60579 0.39791 0.94776 0.0
C134 C 0.5647 0.41205 0.96773 0.0
C135 C 0.5698 0.47464 0.00343 0.0
C136 C 0.5934 0.48889 0.01674 0.0
C137 C 0.61115 0.44813 0.98932 0.0
C138 C 0.58293 0.37429 0.94067 0.0
H139 H 0.62913 0.46305 0.99871 0.0
H140 H 0.57818 0.33185 0.91059 0.0
H141 H 0.66492 0.25241 0.86118 0.0
H142 H 0.64315 0.48143 0.79382 0.0
C143 C 0.61256 0.56584 0.85424 0.0
C144 C 0.58418 0.29519 0.80898 0.0
C145 C 0.67758 0.4608 0.9601 0.0
C146 C 0.63751 0.20035 0.94681 0.0
H147 H 0.55941 0.42608 0.75457 0.0
H148 H 0.57365 0.5746 0.7817 0.0
H149 H 0.64165 0.69612 0.89271 0.0
H150 H 0.67823 0.63672 0.9474 0.0
H151 H 0.69745 0.33306 0.02751 0.0
H152 H 0.67429 0.19204 0.02399 0.0
H153 H 0.61247 0.06748 0.90061 0.0
H154 H 0.58528 0.12007 0.82066 0.0
H155 H 0.69573 0.24323 0.79473 0.0
H156 H 0.67232 0.47349 0.72469 0.0
H157 H 0.54674 0.39778 0.95666 0.0
H158 H 0.59814 0.53483 0.04558 0.0
C159 C 0.89086 0.25516 0.26779 0.0
C160 C 0.88895 0.18557 0.2369 0.0
C161 C 0.86664 0.15519 0.24427 0.0
C162 C 0.85621 0.20693 0.27951 0.0
N163 N 0.87052 0.26833 0.29427 0.0
Co164 Co 0.86361 0.35214 0.3485 0.0
N165 N 0.83784 0.28445 0.38039 0.0
C166 C 0.8276 0.21916 0.35743 0.0
C167 C 0.80972 0.18537 0.38733 0.0
C168 C 0.80816 0.23346 0.4313 0.0
C169 C 0.82505 0.29494 0.42543 0.0
N170 N 0.85687 0.43716 0.40242 0.0
C171 C 0.84238 0.43506 0.44555 0.0
C172 C 0.8418 0.51097 0.46973 0.0
C173 C 0.8559 0.56273 0.44006 0.0
C174 C 0.86433 0.51592 0.39953 0.0
N175 N 0.88911 0.41918 0.31593 0.0
C176 C 0.89244 0.50037 0.32082 0.0
C177 C 0.91217 0.52838 0.29439 0.0
C178 C 0.92185 0.46013 0.27199 0.0
C179 C 0.90747 0.39442 0.28631 0.0
N180 N 0.84074 0.40451 0.29903 0.0
C181 C 0.80716 0.47179 0.22633 0.0
C182 C 0.82943 0.44574 0.20922 0.0
C183 C 0.8458 0.41289 0.2458 0.0
C184 C 0.80286 0.46638 0.28172 0.0
C185 C 0.81956 0.43206 0.31685 0.0
N186 N 0.88695 0.2993 0.39675 0.0
C187 C 0.92453 0.30942 0.44153 0.0
C188 C 0.92805 0.22413 0.43846 0.0
C189 C 0.90923 0.17695 0.41911 0.0
C190 C 0.88881 0.21546 0.39925 0.0
C191 C 0.90403 0.34559 0.4204 0.0
H192 H 0.87529 0.17742 0.38222 0.0
H193 H 0.90277 0.41164 0.42 0.0
H194 H 0.86249 0.39273 0.23065 0.0
H195 H 0.81504 0.42727 0.35845 0.0
C196 C 0.83625 0.18795 0.30973 0.0
C197 C 0.91164 0.30909 0.27172 0.0
C198 C 0.82608 0.36758 0.45942 0.0
C199 C 0.88012 0.54262 0.3598 0.0
H200 H 0.9021 0.15722 0.21269 0.0
H201 H 0.8596 0.09836 0.22911 0.0
H202 H 0.79907 0.13218 0.37826 0.0
H203 H 0.7954 0.2259 0.46303 0.0
H204 H 0.83139 0.52829 0.50375 0.0
H205 H 0.85935 0.62709 0.44688 0.0
H206 H 0.91951 0.58982 0.29436 0.0
H207 H 0.9379 0.45826 0.249 0.0
H208 H 0.83428 0.44769 0.16763 0.0
H209 H 0.78666 0.4878 0.29876 0.0
H210 H 0.938 0.34894 0.45778 0.0
H211 H 0.91071 0.11098 0.416 0.0
C212 C 0.90295 0.58562 0.96739 0.0
C213 C 0.89718 0.66082 0.98844 0.0
C214 C 0.87416 0.67529 0.97442 0.0
C215 C 0.86721 0.60809 0.94584 0.0
N216 N 0.88437 0.55229 0.94166 0.0
Co217 Co 0.88302 0.44935 0.90109 0.0
N218 N 0.85579 0.48862 0.85768 0.0
C219 C 0.84209 0.55323 0.86926 0.0
C220 C 0.82461 0.56684 0.83225 0.0
C221 C 0.82702 0.50583 0.79593 0.0
C222 C 0.84572 0.45723 0.81324 0.0
N223 N 0.88206 0.3457 0.86022 0.0
C224 C 0.86923 0.32488 0.81648 0.0
C225 C 0.87303 0.24342 0.80371 0.0
C226 C 0.88824 0.21179 0.84129 0.0
C227 C 0.89294 0.27526 0.87487 0.0
N228 N 0.90999 0.41073 0.94551 0.0
C229 C 0.91712 0.33259 0.95222 0.0
C230 C 0.93753 0.32625 0.98152 0.0
C231 C 0.94369 0.40539 0.99341 0.0
C232 C 0.92647 0.45586 0.97109 0.0
N233 N 0.86099 0.40137 0.95397 0.0
C234 C 0.82665 0.34931 0.02849 0.0
C235 C 0.84736 0.38871 0.04514 0.0
C236 C 0.86424 0.41415 0.00741 0.0
C237 C 0.82424 0.33296 0.97394 0.0
C238 C 0.84149 0.35912 0.93767 0.0
N239 N 0.90507 0.49937 0.84921 0.0
C240 C 0.94493 0.51 0.81726 0.0
C241 C 0.94149 0.59241 0.80068 0.0
C242 C 0.91855 0.62336 0.80425 0.0
C243 C 0.90086 0.57678 0.82916 0.0
C244 C 0.9264 0.46419 0.84002 0.0
H245 H 0.88417 0.6059 0.83498 0.0
H246 H 0.92988 0.4021 0.85365 0.0
H247 H 0.87962 0.44646 0.02136 0.0
H248 H 0.83859 0.34676 0.89623 0.0
C249 C 0.84765 0.60461 0.91184 0.0
C250 C 0.92594 0.54607 0.97328 0.0
C251 C 0.85046 0.37512 0.79195 0.0
C252 C 0.90824 0.27205 0.91885 0.0
H253 H 0.90857 0.70141 0.01053 0.0
H254 H 0.86427 0.73074 0.98103 0.0
H255 H 0.81172 0.61554 0.83153 0.0
H256 H 0.81561 0.49594 0.76191 0.0
H257 H 0.86482 0.20915 0.77206 0.0
H258 H 0.89485 0.14959 0.84414 0.0
H259 H 0.94783 0.27152 0.98931 0.0
H260 H 0.95951 0.42291 0.01425 0.0
H261 H 0.85023 0.40279 0.08669 0.0
H262 H 0.80893 0.30094 0.95897 0.0
H263 H 0.962 0.48146 0.81548 0.0
H264 H 0.91422 0.68458 0.78984 0.0
C265 C 0.61063 0.21913 0.45669 0.0
C266 C 0.60278 0.14138 0.47222 0.0
C267 C 0.61394 0.08697 0.44037 0.0
C268 C 0.62807 0.13433 0.40771 0.0
N269 N 0.62712 0.21529 0.41763 0.0
Co270 Co 0.64527 0.30483 0.37965 0.0
N271 N 0.66206 0.22455 0.33428 0.0
C272 C 0.65687 0.14402 0.33005 0.0
C273 C 0.67112 0.10381 0.29528 0.0
C274 C 0.68641 0.16224 0.27631 0.0
C275 C 0.68061 0.23502 0.30084 0.0
N276 N 0.66477 0.39356 0.34453 0.0
C277 C 0.68384 0.38833 0.31218 0.0
C278 C 0.69226 0.46564 0.29738 0.0
C279 C 0.6779 0.5214 0.32086 0.0
C280 C 0.66163 0.47518 0.3487 0.0
N281 N 0.62733 0.38552 0.42304 0.0
C282 C 0.62803 0.46805 0.4163 0.0
C283 C 0.61184 0.5084 0.44634 0.0
C284 C 0.59953 0.44789 0.4727 0.0
C285 C 0.60899 0.37373 0.45732 0.0
N286 N 0.67003 0.2947 0.43546 0.0
C287 C 0.70498 0.28696 0.51588 0.0
C288 C 0.69441 0.36126 0.50081 0.0
C289 C 0.67722 0.36385 0.46101 0.0
C290 C 0.69831 0.21632 0.48862 0.0
C291 C 0.68071 0.22145 0.44867 0.0
N292 N 0.62026 0.31811 0.32372 0.0
C293 C 0.60384 0.4101 0.256 0.0
C294 C 0.58089 0.38839 0.2712 0.0
C295 C 0.5784 0.32103 0.30664 0.0
C296 C 0.59813 0.28669 0.33193 0.0
C297 C 0.62315 0.3723 0.28133 0.0
H298 H 0.59483 0.2368 0.35939 0.0
H299 H 0.64026 0.39102 0.26772 0.0
H300 H 0.66977 0.4226 0.45147 0.0
H301 H 0.67569 0.16581 0.42925 0.0
C302 C 0.64124 0.10571 0.36534 0.0
C303 C 0.5985 0.29402 0.47204 0.0
C304 C 0.69337 0.31205 0.29139 0.0
C305 C 0.64399 0.50567 0.38116 0.0
H306 H 0.58919 0.12627 0.50101 0.0
H307 H 0.61126 0.02114 0.4395 0.0
H308 H 0.6711 0.03896 0.28665 0.0
H309 H 0.70053 0.15205 0.24842 0.0
H310 H 0.70701 0.48012 0.27157 0.0
H311 H 0.67927 0.5877 0.31826 0.0
H312 H 0.60889 0.57395 0.44771 0.0
H313 H 0.58469 0.45734 0.49868 0.0
H314 H 0.69925 0.41787 0.52008 0.0
H315 H 0.70593 0.15734 0.49933 0.0
H316 H 0.60714 0.45893 0.2269 0.0
H317 H 0.56122 0.29646 0.31657 0.0
C318 C 0.40888 0.82193 0.99685 0.0
C319 C 0.40233 0.75947 0.96311 0.0
C320 C 0.37886 0.74412 0.97273 0.0
C321 C 0.37253 0.79817 0.01165 0.0
N322 N 0.39053 0.84608 0.02651 0.0
Co323 Co 0.38979 0.93138 0.081 0.0
N324 N 0.36197 0.88082 0.11634 0.0
C325 C 0.34684 0.82888 0.09264 0.0
C326 C 0.32805 0.8085 0.12443 0.0
C327 C 0.33145 0.8507 0.17071 0.0
C328 C 0.35239 0.89462 0.16503 0.0
N329 N 0.38915 0.01723 0.13551 0.0
C330 C 0.37924 0.01562 0.18482 0.0
C331 C 0.38622 0.0844 0.21293 0.0
C332 C 0.39951 0.13243 0.17882 0.0
C333 C 0.40063 0.08976 0.13224 0.0
N334 N 0.41751 0.98103 0.04548 0.0
C335 C 0.42431 0.05982 0.04814 0.0
C336 C 0.44388 0.07625 0.01779 0.0
C337 C 0.44974 0.0028 0.9953 0.0
C338 C 0.43362 0.94478 0.01419 0.0
N339 N 0.36887 0.99736 0.03349 0.0
C340 C 0.33395 0.04954 0.96035 0.0
C341 C 0.33001 0.04949 0.0158 0.0
C342 C 0.34781 0.0252 0.05168 0.0
C343 C 0.35689 0.03537 0.94311 0.0
C344 C 0.37391 0.00708 0.98004 0.0
N345 N 0.41079 0.86469 0.12665 0.0
C346 C 0.44919 0.84765 0.1662 0.0
C347 C 0.44588 0.76238 0.17016 0.0
C348 C 0.42382 0.7304 0.15619 0.0
C349 C 0.40662 0.78241 0.13403 0.0
C350 C 0.43131 0.89775 0.1453 0.0
H351 H 0.39051 0.75521 0.11981 0.0
H352 H 0.43467 0.9628 0.14129 0.0
H353 H 0.34383 0.02256 0.09381 0.0
H354 H 0.39058 0.98759 0.96452 0.0
C355 C 0.35218 0.79414 0.04312 0.0
C356 C 0.43259 0.85681 1.00118 0.0
C357 C 0.36096 0.95623 0.20345 0.0
C358 C 0.41567 0.10844 0.08916 0.0
H359 H 0.4135 0.72738 0.93565 0.0
H360 H 0.36819 0.69595 0.95583 0.0
H361 H 0.31366 0.76735 0.11534 0.0
H362 H 0.31934 0.85065 0.20385 0.0
H363 H 0.38179 0.09941 0.25358 0.0
H364 H 0.40818 0.18981 0.18783 0.0
H365 H 0.45353 0.13358 0.01453 0.0
H366 H 0.46401 0.99522 0.96777 0.0
H367 H 0.31266 0.06201 0.03125 0.0
H368 H 0.36125 0.03885 0.90112 0.0
H369 H 0.46573 0.87532 0.1778 0.0
H370 H 0.42045 0.6649 0.15864 0.0
C371 C 0.10487 0.09493 0.50205 0.0
C372 C 0.09614 0.17169 0.48685 0.0
C373 C 0.10987 0.2286 0.51119 0.0
C374 C 0.12614 0.18392 0.53971 0.0
N375 N 0.12406 0.10204 0.53404 0.0
Co376 Co 0.14468 0.01602 0.56814 0.0
N377 N 0.16071 0.09884 0.61425 0.0
C378 C 0.15502 0.17895 0.61754 0.0
C379 C 0.16806 0.22091 0.65416 0.0
C380 C 0.18326 0.16439 0.67526 0.0
C381 C 0.17882 0.09111 0.64949 0.0
N382 N 0.16715 0.93254 0.59811 0.0
C383 C 0.18608 0.94138 0.63115 0.0
C384 C 0.19822 0.86805 0.63733 0.0
C385 C 0.18658 0.81134 0.60729 0.0
C386 C 0.16814 0.85308 0.58407 0.0
N387 N 0.12656 0.93321 0.5264 0.0
C388 C 0.13058 0.85165 0.5266 0.0
C389 C 0.11326 0.8079 0.50129 0.0
C390 C 0.09687 0.86499 0.4854 0.0
C391 C 0.10521 0.94047 0.50174 0.0
N392 N 0.1681 0.03326 0.5093 0.0
C393 C 0.20713 0.04196 0.43823 0.0
C394 C 0.1911 0.97698 0.43673 0.0
C395 C 0.17168 0.97454 0.47139 0.0
C396 C 0.20334 0.10133 0.47732 0.0
C397 C 0.18361 0.0977 0.51035 0.0
N398 N 0.12146 0.99364 0.62645 0.0
C399 C 0.10348 0.88856 0.68292 0.0
C400 C 0.08221 0.93118 0.68416 0.0
C401 C 0.08192 0.01035 0.66045 0.0
C402 C 0.10171 0.04064 0.63244 0.0
C403 C 0.12271 0.92108 0.65531 0.0
H404 H 0.10033 0.10089 0.61429 0.0
H405 H 0.13796 0.8832 0.65591 0.0
H406 H 0.16013 0.92322 0.46719 0.0
H407 H 0.18161 0.14735 0.53722 0.0
C408 C 0.13989 0.21525 0.58044 0.0
C409 C 0.09241 0.01776 0.4927 0.0
C410 C 0.19319 0.01774 0.65734 0.0
C411 C 0.15043 0.81885 0.55239 0.0
H412 H 0.08057 0.18602 0.46369 0.0
H413 H 0.10706 0.2943 0.51166 0.0
H414 H 0.16732 0.2857 0.66276 0.0
H415 H 0.1966 0.17684 0.70496 0.0
H416 H 0.21386 0.85676 0.66111 0.0
H417 H 0.19094 0.74714 0.60327 0.0
H418 H 0.11234 0.74211 0.49626 0.0
H419 H 0.08052 0.85268 0.46472 0.0
H420 H 0.19356 0.92785 0.40886 0.0
H421 H 0.21518 0.15231 0.48257 0.0
H422 H 0.10523 0.82757 0.70051 0.0
H423 H 0.06637 0.04817 0.66212 0.0
H424 H 0.29406 0.80643 0.86642 0.0
H425 H 0.18186 0.83474 0.02875 0.0
H426 H 0.27291 0.13789 0.91003 0.0
H427 H 0.21987 0.00961 0.12288 0.0
H428 H 0.21597 0.82625 0.96834 0.0
H429 H 0.26288 0.79182 0.94886 0.0
C430 C 0.28704 0.86158 0.88344 0.0
C431 C 0.29555 0.9568 0.85775 0.0
C432 C 0.21717 0.86355 0.00357 0.0
C433 C 0.25387 0.93285 0.96858 0.0
C434 C 0.19776 0.86842 0.03806 0.0
C435 C 0.19815 0.92258 0.08114 0.0
C436 C 0.23674 0.91458 0.01179 0.0
C437 C 0.21893 0.96671 0.09047 0.0
C438 C 0.26736 0.85354 0.93547 0.0
C439 C 0.2731 0.07073 0.91324 0.0
N440 N 0.23706 0.96351 0.05528 0.0
N441 N 0.25721 0.02771 0.95676 0.0
H442 H 0.2097 0.95979 0.28883 0.0
H443 H 0.28101 0.11965 0.5772 0.0
H444 H 0.19852 0.22299 0.37929 0.0
H445 H 0.33701 0.12362 0.46194 0.0
H446 H 0.25265 0.13161 0.50441 0.0
H447 H 0.25578 0.93562 0.32395 0.0
C448 C 0.21761 0.00562 0.31399 0.0
C449 C 0.20111 0.09127 0.3324 0.0
C450 C 0.27107 0.13213 0.49466 0.0
C451 C 0.25978 0.12171 0.39694 0.0
C452 C 0.28737 0.12483 0.53648 0.0
C453 C 0.31152 0.12133 0.52594 0.0
C454 C 0.27854 0.13247 0.44114 0.0
C455 C 0.31855 0.12613 0.47196 0.0
C456 C 0.24685 0.99256 0.33402 0.0
C457 C 0.21099 0.17428 0.37295 0.0
N458 N 0.30218 0.13073 0.43159 0.0
N459 N 0.23704 0.18324 0.40078 0.0
H460 H 0.81137 0.52616 0.11935 0.0
H461 H 0.6728 0.50989 0.06273 0.0
H462 H 0.75855 0.4806 0.24086 0.0
H463 H 0.72472 0.4797 0.94021 0.0
H464 H 0.70434 0.53454 0.12779 0.0
H465 H 0.78013 0.54379 0.05363 0.0
C466 C 0.79347 0.51977 0.13302 0.0
C467 C 0.78823 0.4983 0.18678 0.0
C468 C 0.70887 0.52444 0.08645 0.0
C469 C 0.75196 0.52249 0.11041 0.0
C470 C 0.69088 0.51107 0.04932 0.0
C471 C 0.69624 0.4938 0.99607 0.0
C472 C 0.73247 0.52073 0.07024 0.0
C473 C 0.71993 0.49391 0.9808 0.0
C474 C 0.77553 0.53105 0.09498 0.0
C475 C 0.7642 0.49635 0.2008 0.0
N476 N 0.7372 0.50662 0.01777 0.0
N477 N 0.74716 0.5074 0.16299 0.0
H478 H 0.71106 0.50096 0.70234 0.0
H479 H 0.77951 0.39521 0.43643 0.0
H480 H 0.70546 0.20331 0.70859 0.0
H481 H 0.82797 0.37655 0.56873 0.0
H482 H 0.74664 0.39702 0.50013 0.0
H483 H 0.74434 0.51157 0.62448 0.0
C484 C 0.71708 0.44382 0.68616 0.0
C485 C 0.70546 0.35368 0.71203 0.0
C486 C 0.76444 0.39231 0.51516 0.0
C487 C 0.74902 0.36371 0.61031 0.0
C488 C 0.78317 0.39159 0.47897 0.0
C489 C 0.80637 0.38192 0.49754 0.0
C490 C 0.76894 0.38064 0.5701 0.0
C491 C 0.81028 0.38094 0.55285 0.0
C492 C 0.73791 0.4518 0.6375 0.0
C493 C 0.71344 0.25858 0.69201 0.0
N494 N 0.79175 0.37964 0.58717 0.0
N495 N 0.73293 0.25259 0.64648 0.0
H496 H 0.82932 0.2942 0.13395 0.0
H497 H 0.69073 0.34081 0.18373 0.0
H498 H 0.77903 0.36032 0.01073 0.0
H499 H 0.74019 0.28417 0.30985 0.0
H500 H 0.72268 0.33537 0.11838 0.0
H501 H 0.7969 0.27649 0.19742 0.0
C502 C 0.81151 0.30463 0.12004 0.0
C503 C 0.80709 0.32998 0.06679 0.0
C504 C 0.72663 0.32391 0.16027 0.0
C505 C 0.76973 0.3085 0.13934 0.0
C506 C 0.70843 0.32781 0.1975 0.0
C507 C 0.71302 0.31409 0.25206 0.0
C508 C 0.74968 0.30668 0.17774 0.0
C509 C 0.73611 0.29615 0.26807 0.0
C510 C 0.79296 0.29386 0.15629 0.0
C511 C 0.78349 0.34032 0.05106 0.0
N512 N 0.75363 0.29339 0.23113 0.0
N513 N 0.76583 0.33016 0.08712 0.0
H514 H 0.69457 0.37764 0.6157 0.0
H515 H 0.85069 0.31021 0.69021 0.0
H516 H 0.75246 0.19794 0.53088 0.0
H517 H 0.80611 0.34273 0.82682 0.0
H518 H 0.81623 0.26016 0.63959 0.0
H519 H 0.74835 0.37128 0.73422 0.0
C520 C 0.71149 0.34604 0.61753 0.0
C521 C 0.72066 0.28547 0.56356 0.0
C522 C 0.81412 0.27788 0.68072 0.0
C523 C 0.76981 0.27872 0.67208 0.0
C524 C 0.83372 0.30625 0.70956 0.0
C525 C 0.83103 0.33329 0.76217 0.0
C526 C 0.79175 0.28031 0.70416 0.0
C527 C 0.80883 0.32504 0.78584 0.0
C528 C 0.74675 0.34127 0.69568 0.0
C529 C 0.74821 0.23291 0.56577 0.0
N530 N 0.79 0.30182 0.75624 0.0
N531 N 0.76798 0.23468 0.614 0.0
H532 H 0.29689 0.93324 0.98064 0.0
H533 H 0.23535 0.10368 0.65251 0.0
H534 H 0.32197 0.14229 0.85575 0.0
H535 H 0.19495 0.94046 0.75456 0.0
H536 H 0.26497 0.11685 0.72495 0.0
H537 H 0.24242 0.92757 0.87352 0.0
C538 C 0.2934 0.96845 0.94362 0.0
C539 C 0.31336 0.04028 0.92369 0.0
C540 C 0.24958 0.07854 0.73131 0.0
C541 C 0.26347 0.03538 0.82507 0.0
C542 C 0.23289 0.06995 0.68994 0.0
C543 C 0.21286 0.01959 0.69742 0.0
C544 C 0.24614 0.03601 0.78013 0.0
C545 C 0.21026 0.97852 0.74667 0.0
C546 C 0.25843 0.965 0.87494 0.0
C547 C 0.3086 0.09729 0.86602 0.0
N548 N 0.22666 0.98754 0.78575 0.0
N549 N 0.28656 0.09065 0.82626 0.0
H550 H 0.34524 0.8588 0.28992 0.0
H551 H 0.23687 0.11056 0.33611 0.0
H552 H 0.33992 0.10328 0.22104 0.0
H553 H 0.24965 0.94893 0.46229 0.0
H554 H 0.27954 0.13209 0.27183 0.0
H555 H 0.31334 0.89283 0.35291 0.0
C556 C 0.33808 0.92033 0.2893 0.0
C557 C 0.34539 0.97815 0.24967 0.0
C558 C 0.27151 0.10365 0.30673 0.0
C559 C 0.30986 0.0181 0.32282 0.0
C560 C 0.24356 0.12517 0.31668 0.0
C561 C 0.22882 0.04461 0.40131 0.0
C562 C 0.28652 0.03726 0.34634 0.0
C563 C 0.25195 0.98636 0.42638 0.0
C564 C 0.32011 0.9398 0.32571 0.0
C565 C 0.33553 0.05669 0.25091 0.0
N566 N 0.27666 0.9888 0.39736 0.0
N567 N 0.31859 0.07386 0.28665 0.0
H568 H 0.03799 0.04637 0.18758 0.0
H569 H 0.94775 0.33097 0.34149 0.0
H570 H 0.05925 0.2028 0.31589 0.0
H571 H 0.93289 0.22813 0.18787 0.0
H572 H 0.98812 0.28001 0.33564 0.0
H573 H 0.99799 0.09924 0.19369 0.0
C574 C 0.03414 0.09149 0.21736 0.0
C575 C 0.05192 0.12104 0.25095 0.0
C576 C 0.97567 0.2659 0.30435 0.0
C577 C 1.00617 0.18201 0.25819 0.0
C578 C 0.9527 0.29526 0.30741 0.0
C579 C 0.93628 0.2787 0.26698 0.0
C580 C 0.98224 0.21797 0.26113 0.0
C581 C 0.94411 0.23601 0.22231 0.0
C582 C 0.01134 0.12197 0.22065 0.0
C583 C 0.04597 0.17879 0.28925 0.0
N584 N 0.96638 0.2059 0.22099 0.0
N585 N 0.02357 0.20764 0.29179 0.0
H586 H 0.44378 0.08795 0.84023 0.0
H587 H 0.56228 0.27685 0.71067 0.0
H588 H 0.45354 0.11534 0.6703 0.0
H589 H 0.55114 0.23777 0.87969 0.0
H590 H 0.52294 0.2183 0.69346 0.0
H591 H 0.48376 0.13969 0.85446 0.0
C592 C 0.45441 0.10502 0.80587 0.0
C593 C 0.44516 0.0997 0.75402 0.0
C594 C 0.52914 0.22269 0.73432 0.0
C595 C 0.49114 0.15882 0.76971 0.0
C596 C 0.55152 0.25647 0.74409 0.0
C597 C 0.55997 0.26289 0.79671 0.0
C598 C 0.51515 0.19492 0.77754 0.0
C599 C 0.54537 0.23483 0.83854 0.0
C600 C 0.47726 0.1346 0.8139 0.0
C601 C 0.4599 0.12039 0.71086 0.0
N602 N 0.52383 0.20229 0.82808 0.0
N603 N 0.48206 0.14979 0.71956 0.0
H604 H 0.07904 0.813 0.76567 0.0
H605 H 0.94545 0.76263 0.80459 0.0
H606 H 0.03539 0.95454 0.65589 0.0
H607 H 0.98457 0.54916 0.75682 0.0
H608 H 0.97834 0.84934 0.7764 0.0
H609 H 0.0447 0.73147 0.79141 0.0
C610 C 0.06241 0.82739 0.74665 0.0
C611 C 0.06059 0.89022 0.70706 0.0
C612 C 0.9795 0.78342 0.77209 0.0
C613 C 0.02085 0.79858 0.73916 0.0
C614 C 0.96058 0.73321 0.7876 0.0
C615 C 0.96163 0.64697 0.78276 0.0
C616 C 1.00007 0.74766 0.75334 0.0
C617 C 0.98263 0.61435 0.76249 0.0
C618 C 0.04278 0.7808 0.7619 0.0
C619 C 0.03796 0.9074 0.68651 0.0
N620 N 1.00104 0.66452 0.74921 0.0
N621 N 0.01898 0.86197 0.70288 0.0
H622 H 0.49119 0.7696 0.1338 0.0
H623 H 0.53966 0.41361 0.32573 0.0
H624 H 0.44591 0.62783 0.23888 0.0
H625 H 0.57395 0.47967 0.17674 0.0
H626 H 0.50668 0.50016 0.29967 0.0
H627 H 0.52339 0.67462 0.15489 0.0
C628 C 0.48808 0.71898 0.16179 0.0
C629 C 0.4658 0.70688 0.18478 0.0
C630 C 0.52136 0.49517 0.27253 0.0
C631 C 0.5027 0.59824 0.2094 0.0
C632 C 0.54026 0.44489 0.28709 0.0
C633 C 0.55992 0.43796 0.25342 0.0
C634 C 0.52207 0.54082 0.22435 0.0
C635 C 0.55957 0.48331 0.2047 0.0
C636 C 0.50642 0.6644 0.17339 0.0
C637 C 0.46273 0.63937 0.22007 0.0
N638 N 0.54109 0.53315 0.1919 0.0
N639 N 0.48101 0.5881 0.23167 0.0
H640 H 0.06225 0.72909 0.07385 0.0
H641 H 0.94351 0.6685 0.90869 0.0
H642 H 0.02979 0.93245 0.98901 0.0
H643 H 0.95646 0.54307 0.05943 0.0
H644 H 0.97923 0.75143 0.92242 0.0
H645 H 0.02818 0.64272 0.05194 0.0
C646 C 0.04818 0.75495 0.04957 0.0
C647 C 0.04885 0.83783 0.03298 0.0
C648 C 0.97435 0.70499 0.9521 0.0
C649 C 0.0099 0.73965 0.00792 0.0
C650 C 0.95406 0.65767 0.94427 0.0
C651 C 0.94754 0.59659 0.98195 0.0
C652 C 0.98829 0.69063 0.99782 0.0
C653 C 0.96148 0.58643 0.02805 0.0
C654 C 0.02868 0.70598 0.03759 0.0
C655 C 0.02994 0.86875 1.00243 0.0
N656 N 0.98132 0.63225 0.03442 0.0
N657 N 0.01125 0.81959 0.99069 0.0
H658 H 0.57827 0.33366 0.56849 0.0
H659 H 0.4508 0.16344 0.48447 0.0
H660 H 0.5612 0.23896 0.41366 0.0
H661 H 0.46398 0.27681 0.63599 0.0
H662 H 0.49112 0.19483 0.45788 0.0
H663 H 0.53673 0.31677 0.59459 0.0
C664 C 0.56574 0.31015 0.53986 0.0
C665 C 0.57318 0.28829 0.48865 0.0
C666 C 0.48523 0.21338 0.49688 0.0
C667 C 0.52574 0.26815 0.51811 0.0
C668 C 0.46213 0.19528 0.51216 0.0
C669 C 0.45385 0.21689 0.56277 0.0
C670 C 0.50052 0.25302 0.53247 0.0
C671 C 0.46943 0.25929 0.59646 0.0
C672 C 0.54206 0.3004 0.55472 0.0
C673 C 0.55628 0.25712 0.45332 0.0
N674 N 0.49201 0.2752 0.58097 0.0
N675 N 0.53351 0.24788 0.46868 0.0
H676 H 0.43417 0.70327 0.04843 0.0
H677 H 0.5717 0.64194 1.00061 0.0
H678 H 0.47838 0.87641 0.96249 0.0
H679 H 0.52476 0.43996 0.03772 0.0
H680 H 0.53868 0.73661 0.00594 0.0
H681 H 0.46784 0.6122 0.0595 0.0
C682 C 0.45093 0.72332 0.03256 0.0
C683 C 0.45334 0.80049 0.00648 0.0
C684 C 0.53565 0.6717 0.01361 0.0
C685 C 0.49216 0.6955 0.01911 0.0
C686 C 0.55456 0.61766 0.01134 0.0
C687 C 0.55099 0.53274 0.01851 0.0
C688 C 0.51295 0.64086 0.02337 0.0
C689 C 0.52825 0.50486 0.03139 0.0
C690 C 0.47016 0.67089 0.03889 0.0
C691 C 0.47557 0.82122 0.9859 0.0
N692 N 0.51005 0.55871 0.03306 0.0
N693 N 0.49405 0.76939 0.99286 0.0
H694 H 0.05554 0.97792 0.55891 0.0
H695 H 0.97192 0.29283 0.42336 0.0
H696 H 0.07058 0.0686 0.39957 0.0
H697 H 0.93896 0.06864 0.48091 0.0
H698 H 0.01018 0.2268 0.43182 0.0
H699 H 0.01413 0.01918 0.54642 0.0
C700 C 0.04998 0.00445 0.52084 0.0
C701 C 0.06655 0.02055 0.48039 0.0
C702 C 0.99453 0.19218 0.4426 0.0
C703 C 0.01963 0.0707 0.46673 0.0
C704 C 0.97255 0.22993 0.4381 0.0
C705 C 0.95176 0.18623 0.4501 0.0
C706 C 0.99616 0.11073 0.46152 0.0
C707 C 0.95427 0.10472 0.46986 0.0
C708 C 0.02644 0.02846 0.51391 0.0
C709 C 0.05841 0.05552 0.43187 0.0
N710 N 0.97602 0.06988 0.47542 0.0
N711 N 0.03575 0.08156 0.42695 0.0
loop_
_geom_bond_atom_site_label_1
_geom_bond_atom_site_label_2
_geom_bond_distance
_geom_bond_site_symmetry_2
_ccdc_geom_bond_type
C0 C1 1.443 . S
C0 N4 1.376 . S
C0 C38 1.389 1_565 S
C1 C0 1.443 . S
C1 C2 1.340 . S
C1 H41 0.951 . S
C2 C1 1.340 . S
C2 C3 1.439 . S
C2 H42 0.950 . S
C3 C2 1.439 . S
C3 N4 1.374 . S
C3 C37 1.395 . S
N4 C0 1.376 . S
N4 C3 1.374 . S
N4 Co5 2.008 1_565 S
Co5 N4 2.008 1_545 S
Co5 N6 1.995 1_545 S
Co5 N11 2.008 . S
Co5 N16 1.995 . S
Co5 N21 2.282 . S
Co5 N27 2.282 1_545 S
N6 Co5 1.995 1_565 S
N6 C7 1.376 . S
N6 C10 1.383 . S
C7 N6 1.376 . S
C7 C8 1.446 . S
C7 C37 1.391 . S
C8 C7 1.446 . S
C8 C9 1.339 . S
C8 H43 0.949 . S
C9 C8 1.339 . S
C9 C10 1.439 . S
C9 H44 0.950 . S
C10 N6 1.383 . S
C10 C9 1.439 . S
C10 C39 1.392 . S
N11 Co5 2.008 . S
N11 C12 1.376 . S
N11 C15 1.374 . S
C12 N11 1.376 . S
C12 C13 1.443 . S
C12 C39 1.389 1_545 S
C13 C12 1.443 . S
C13 C14 1.340 . S
C13 H45 0.951 . S
C14 C13 1.340 . S
C14 C15 1.439 . S
C14 H46 0.950 . S
C15 N11 1.374 . S
C15 C14 1.439 . S
C15 C40 1.395 . S
N16 Co5 1.995 . S
N16 C17 1.376 . S
N16 C20 1.383 . S
C17 N16 1.376 . S
C17 C18 1.446 . S
C17 C40 1.391 . S
C18 C17 1.446 . S
C18 C19 1.339 . S
C18 H47 0.949 . S
C19 C18 1.339 . S
C19 C20 1.439 . S
C19 H48 0.950 . S
C20 N16 1.383 . S
C20 C19 1.439 . S
C20 C38 1.392 . S
N21 Co5 2.282 . S
N21 C24 1.332 . S
N21 C26 1.332 1_545 S
C22 C23 1.386 . S
C22 C25 1.388 . S
C23 C22 1.386 . S
C23 C24 1.382 . S
C23 H49 0.950 . S
C24 N21 1.332 . S
C24 C23 1.382 . S
C24 H35 0.952 . S
C25 C22 1.388 . S
C25 C26 1.382 1_545 S
C25 H50 0.950 1_545 S
C26 N21 1.332 1_565 S
C26 C25 1.382 1_565 S
C26 H36 0.948 . S
N27 Co5 2.282 1_565 S
N27 C31 1.332 . S
N27 C32 1.332 1_565 S
C28 C29 1.388 . S
C28 C32 1.382 1_565 S
C28 H51 0.950 1_565 S
C29 C28 1.388 . S
C29 C30 1.386 . S
C30 C29 1.386 . S
C30 C31 1.382 . S
C30 H52 0.950 . S
C31 N27 1.332 . S
C31 C30 1.382 . S
C31 H33 0.952 . S
C32 N27 1.332 1_545 S
C32 C28 1.382 1_545 S
C32 H34 0.948 . S
H33 C31 0.952 . S
H34 C32 0.948 . S
H35 C24 0.952 . S
H36 C26 0.948 . S
C37 C3 1.395 . S
C37 C7 1.391 . S
C38 C0 1.389 1_545 S
C38 C20 1.392 . S
C39 C10 1.392 . S
C39 C12 1.389 1_565 S
C40 C15 1.395 . S
C40 C17 1.391 . S
H41 C1 0.951 . S
H42 C2 0.950 . S
H43 C8 0.949 . S
H44 C9 0.950 . S
H45 C13 0.951 . S
H46 C14 0.950 . S
H47 C18 0.949 . S
H48 C19 0.950 . S
H49 C23 0.950 . S
H50 C25 0.950 1_565 S
H51 C28 0.950 1_545 S
H52 C30 0.950 . S
C53 C54 1.443 . S
C53 N57 1.376 . S
C53 C91 1.389 . S
C54 C53 1.443 . S
C54 C55 1.340 . S
C54 H94 0.951 . S
C55 C54 1.340 . S
C55 C56 1.439 . S
C55 H95 0.950 . S
C56 C55 1.439 . S
C56 N57 1.374 . S
C56 C90 1.395 . S
N57 C53 1.376 . S
N57 C56 1.374 . S
N57 Co58 2.008 . S
Co58 N57 2.008 . S
Co58 N59 1.995 . S
Co58 N64 2.008 1_545 S
Co58 N69 1.995 1_545 S
Co58 N74 2.282 . S
Co58 N80 2.282 . S
N59 Co58 1.995 . S
N59 C60 1.376 . S
N59 C63 1.383 . S
C60 N59 1.376 . S
C60 C61 1.446 . S
C60 C90 1.391 . S
C61 C60 1.446 . S
C61 C62 1.339 . S
C61 H96 0.949 . S
C62 C61 1.339 . S
C62 C63 1.439 . S
C62 H97 0.950 . S
C63 N59 1.383 . S
C63 C62 1.439 . S
C63 C92 1.392 1_545 S
N64 Co58 2.008 1_565 S
N64 C65 1.376 . S
N64 C68 1.374 . S
C65 N64 1.376 . S
C65 C66 1.443 . S
C65 C92 1.389 . S
C66 C65 1.443 . S
C66 C67 1.340 . S
C66 H98 0.951 . S
C67 C66 1.340 . S
C67 C68 1.439 . S
C67 H99 0.950 . S
C68 N64 1.374 . S
C68 C67 1.439 . S
C68 C93 1.395 . S
N69 Co58 1.995 1_565 S
N69 C70 1.376 . S
N69 C73 1.383 . S
C70 N69 1.376 . S
C70 C71 1.446 . S
C70 C93 1.391 . S
C71 C70 1.446 . S
C71 C72 1.339 . S
C71 H100 0.949 . S
C72 C71 1.339 . S
C72 C73 1.439 . S
C72 H101 0.950 . S
C73 N69 1.383 . S
C73 C72 1.439 . S
C73 C91 1.392 1_565 S
N74 Co58 2.282 . S
N74 C77 1.332 1_545 S
N74 C79 1.332 . S
C75 C76 1.386 . S
C75 C78 1.388 1_565 S
C76 C75 1.386 . S
C76 C77 1.382 . S
C76 H102 0.950 . S
C77 N74 1.332 1_565 S
C77 C76 1.382 . S
C77 H88 0.952 . S
C78 C75 1.388 1_545 S
C78 C79 1.382 . S
C78 H103 0.950 . S
C79 N74 1.332 . S
C79 C78 1.382 . S
C79 H89 0.948 . S
N80 Co58 2.282 . S
N80 C84 1.332 . S
N80 C85 1.332 1_545 S
C81 C82 1.388 . S
C81 C85 1.382 1_545 S
C81 H104 0.950 1_545 S
C82 C81 1.388 . S
C82 C83 1.386 . S
C83 C82 1.386 . S
C83 C84 1.382 . S
C83 H105 0.950 . S
C84 N80 1.332 . S
C84 C83 1.382 . S
C84 H86 0.952 . S
C85 N80 1.332 1_565 S
C85 C81 1.382 1_565 S
C85 H87 0.948 . S
H86 C84 0.952 . S
H87 C85 0.948 . S
H88 C77 0.952 . S
H89 C79 0.948 . S
C90 C56 1.395 . S
C90 C60 1.391 . S
C91 C53 1.389 . S
C91 C73 1.392 1_545 S
C92 C63 1.392 1_565 S
C92 C65 1.389 . S
C93 C68 1.395 . S
C93 C70 1.391 . S
H94 C54 0.951 . S
H95 C55 0.950 . S
H96 C61 0.949 . S
H97 C62 0.950 . S
H98 C66 0.951 . S
H99 C67 0.950 . S
H100 C71 0.949 . S
H101 C72 0.950 . S
H102 C76 0.950 . S
H103 C78 0.950 . S
H104 C81 0.950 1_565 S
H105 C83 0.950 . S
C106 C107 1.443 . S
C106 N110 1.376 . S
C106 C144 1.389 . S
C107 C106 1.443 . S
C107 C108 1.340 . S
C107 H147 0.951 . S
C108 C107 1.340 . S
C108 C109 1.439 . S
C108 H148 0.950 . S
C109 C108 1.439 . S
C109 N110 1.374 . S
C109 C143 1.395 . S
N110 C106 1.376 . S
N110 C109 1.374 . S
N110 Co111 2.008 . S
Co111 N110 2.008 . S
Co111 N112 1.995 . S
Co111 N117 2.008 . S
Co111 N122 1.995 . S
Co111 N127 2.282 . S
Co111 N133 2.282 . S
N112 Co111 1.995 . S
N112 C113 1.376 . S
N112 C116 1.383 . S
C113 N112 1.376 . S
C113 C114 1.446 . S
C113 C143 1.391 . S
C114 C113 1.446 . S
C114 C115 1.339 . S
C114 H149 0.949 . S
C115 C114 1.339 . S
C115 C116 1.439 . S
C115 H150 0.950 . S
C116 N112 1.383 . S
C116 C115 1.439 . S
C116 C145 1.392 . S
N117 Co111 2.008 . S
N117 C118 1.376 . S
N117 C121 1.374 . S
C118 N117 1.376 . S
C118 C119 1.443 . S
C118 C145 1.389 . S
C119 C118 1.443 . S
C119 C120 1.340 . S
C119 H151 0.951 . S
C120 C119 1.340 . S
C120 C121 1.439 . S
C120 H152 0.950 . S
C121 N117 1.374 . S
C121 C120 1.439 . S
C121 C146 1.395 . S
N122 Co111 1.995 . S
N122 C123 1.376 . S
N122 C126 1.383 . S
C123 N122 1.376 . S
C123 C124 1.446 . S
C123 C146 1.391 . S
C124 C123 1.446 . S
C124 C125 1.339 . S
C124 H153 0.949 . S
C125 C124 1.339 . S
C125 C126 1.439 . S
C125 H154 0.950 . S
C126 N122 1.383 . S
C126 C125 1.439 . S
C126 C144 1.392 . S
N127 Co111 2.282 . S
N127 C130 1.332 . S
N127 C132 1.332 . S
C128 C129 1.386 . S
C128 C131 1.388 . S
C129 C128 1.386 . S
C129 C130 1.382 . S
C129 H155 0.950 . S
C130 N127 1.332 . S
C130 C129 1.382 . S
C130 H141 0.952 . S
C131 C128 1.388 . S
C131 C132 1.382 . S
C131 H156 0.950 . S
C132 N127 1.332 . S
C132 C131 1.382 . S
C132 H142 0.948 . S
N133 Co111 2.282 . S
N133 C137 1.332 . S
N133 C138 1.332 . S
C134 C135 1.388 . S
C134 C138 1.382 . S
C134 H157 0.950 . S
C135 C134 1.388 . S
C135 C136 1.386 . S
C136 C135 1.386 . S
C136 C137 1.382 . S
C136 H158 0.950 . S
C137 N133 1.332 . S
C137 C136 1.382 . S
C137 H139 0.952 . S
C138 N133 1.332 . S
C138 C134 1.382 . S
C138 H140 0.948 . S
H139 C137 0.952 . S
H140 C138 0.948 . S
H141 C130 0.952 . S
H142 C132 0.948 . S
C143 C109 1.395 . S
C143 C113 1.391 . S
C144 C106 1.389 . S
C144 C126 1.392 . S
C145 C116 1.392 . S
C145 C118 1.389 . S
C146 C121 1.395 . S
C146 C123 1.391 . S
H147 C107 0.951 . S
H148 C108 0.950 . S
H149 C114 0.949 . S
H150 C115 0.950 . S
H151 C119 0.951 . S
H152 C120 0.950 . S
H153 C124 0.949 . S
H154 C125 0.950 . S
H155 C129 0.950 . S
H156 C131 0.950 . S
H157 C134 0.950 . S
H158 C136 0.950 . S
C159 C160 1.443 . S
C159 N163 1.376 . S
C159 C197 1.389 . S
C160 C159 1.443 . S
C160 C161 1.340 . S
C160 H200 0.951 . S
C161 C160 1.340 . S
C161 C162 1.439 . S
C161 H201 0.950 . S
C162 C161 1.439 . S
C162 N163 1.374 . S
C162 C196 1.395 . S
N163 C159 1.376 . S
N163 C162 1.374 . S
N163 Co164 2.008 . S
Co164 N163 2.008 . S
Co164 N165 1.995 . S
Co164 N170 2.008 . S
Co164 N175 1.995 . S
Co164 N180 2.282 . S
Co164 N186 2.282 . S
N165 Co164 1.995 . S
N165 C166 1.376 . S
N165 C169 1.383 . S
C166 N165 1.376 . S
C166 C167 1.446 . S
C166 C196 1.391 . S
C167 C166 1.446 . S
C167 C168 1.339 . S
C167 H202 0.949 . S
C168 C167 1.339 . S
C168 C169 1.439 . S
C168 H203 0.950 . S
C169 N165 1.383 . S
C169 C168 1.439 . S
C169 C198 1.392 . S
N170 Co164 2.008 . S
N170 C171 1.376 . S
N170 C174 1.374 . S
C171 N170 1.376 . S
C171 C172 1.443 . S
C171 C198 1.389 . S
C172 C171 1.443 . S
C172 C173 1.340 . S
C172 H204 0.951 . S
C173 C172 1.340 . S
C173 C174 1.439 . S
C173 H205 0.950 . S
C174 N170 1.374 . S
C174 C173 1.439 . S
C174 C199 1.395 . S
N175 Co164 1.995 . S
N175 C176 1.376 . S
N175 C179 1.383 . S
C176 N175 1.376 . S
C176 C177 1.446 . S
C176 C199 1.391 . S
C177 C176 1.446 . S
C177 C178 1.339 . S
C177 H206 0.949 . S
C178 C177 1.339 . S
C178 C179 1.439 . S
C178 H207 0.950 . S
C179 N175 1.383 . S
C179 C178 1.439 . S
C179 C197 1.392 . S
N180 Co164 2.282 . S
N180 C183 1.332 . S
N180 C185 1.332 . S
C181 C182 1.386 . S
C181 C184 1.388 . S
C182 C181 1.386 . S
C182 C183 1.382 . S
C182 H208 0.950 . S
C183 N180 1.332 . S
C183 C182 1.382 . S
C183 H194 0.952 . S
C184 C181 1.388 . S
C184 C185 1.382 . S
C184 H209 0.950 . S
C185 N180 1.332 . S
C185 C184 1.382 . S
C185 H195 0.948 . S
N186 Co164 2.282 . S
N186 C190 1.332 . S
N186 C191 1.332 . S
C187 C188 1.388 . S
C187 C191 1.382 . S
C187 H210 0.950 . S
C188 C187 1.388 . S
C188 C189 1.386 . S
C189 C188 1.386 . S
C189 C190 1.382 . S
C189 H211 0.950 . S
C190 N186 1.332 . S
C190 C189 1.382 . S
C190 H192 0.952 . S
C191 N186 1.332 . S
C191 C187 1.382 . S
C191 H193 0.948 . S
H192 C190 0.952 . S
H193 C191 0.948 . S
H194 C183 0.952 . S
H195 C185 0.948 . S
C196 C162 1.395 . S
C196 C166 1.391 . S
C197 C159 1.389 . S
C197 C179 1.392 . S
C198 C169 1.392 . S
C198 C171 1.389 . S
C199 C174 1.395 . S
C199 C176 1.391 . S
H200 C160 0.951 . S
H201 C161 0.950 . S
H202 C167 0.949 . S
H203 C168 0.950 . S
H204 C172 0.951 . S
H205 C173 0.950 . S
H206 C177 0.949 . S
H207 C178 0.950 . S
H208 C182 0.950 . S
H209 C184 0.950 . S
H210 C187 0.950 . S
H211 C189 0.950 . S
C212 C213 1.443 . S
C212 N216 1.376 . S
C212 C250 1.389 . S
C213 C212 1.443 . S
C213 C214 1.340 . S
C213 H253 0.951 . S
C214 C213 1.340 . S
C214 C215 1.439 . S
C214 H254 0.950 . S
C215 C214 1.439 . S
C215 N216 1.374 . S
C215 C249 1.395 . S
N216 C212 1.376 . S
N216 C215 1.374 . S
N216 Co217 2.008 . S
Co217 N216 2.008 . S
Co217 N218 1.995 . S
Co217 N223 2.008 . S
Co217 N228 1.995 . S
Co217 N233 2.282 . S
Co217 N239 2.282 . S
N218 Co217 1.995 . S
N218 C219 1.376 . S
N218 C222 1.383 . S
C219 N218 1.376 . S
C219 C220 1.446 . S
C219 C249 1.391 . S
C220 C219 1.446 . S
C220 C221 1.339 . S
C220 H255 0.949 . S
C221 C220 1.339 . S
C221 C222 1.439 . S
C221 H256 0.950 . S
C222 N218 1.383 . S
C222 C221 1.439 . S
C222 C251 1.392 . S
N223 Co217 2.008 . S
N223 C224 1.376 . S
N223 C227 1.374 . S
C224 N223 1.376 . S
C224 C225 1.443 . S
C224 C251 1.389 . S
C225 C224 1.443 . S
C225 C226 1.340 . S
C225 H257 0.951 . S
C226 C225 1.340 . S
C226 C227 1.439 . S
C226 H258 0.950 . S
C227 N223 1.374 . S
C227 C226 1.439 . S
C227 C252 1.395 . S
N228 Co217 1.995 . S
N228 C229 1.376 . S
N228 C232 1.383 . S
C229 N228 1.376 . S
C229 C230 1.446 . S
C229 C252 1.391 . S
C230 C229 1.446 . S
C230 C231 1.339 1_556 S
C230 H259 0.949 . S
C231 C230 1.339 1_554 S
C231 C232 1.439 1_554 S
C231 H260 0.950 . S
C232 N228 1.383 . S
C232 C231 1.439 1_556 S
C232 C250 1.392 . S
N233 Co217 2.282 . S
N233 C236 1.340 . S
N233 C238 1.332 . S
C234 C235 1.386 . S
C234 C237 1.388 . S
C235 C234 1.386 . S
C235 C236 1.372 1_554 S
C235 H261 0.950 . S
C236 N233 1.340 . S
C236 C235 1.372 1_556 S
C236 H247 0.953 . S
C237 C234 1.388 . S
C237 C238 1.382 1_554 S
C237 H262 0.950 . S
C238 N233 1.332 . S
C238 C237 1.382 1_556 S
C238 H248 0.948 . S
N239 Co217 2.282 . S
N239 C243 1.332 . S
N239 C244 1.332 . S
C240 C241 1.388 . S
C240 C244 1.382 . S
C240 H263 0.950 . S
C241 C240 1.388 . S
C241 C242 1.386 . S
C242 C241 1.386 . S
C242 C243 1.382 . S
C242 H264 0.950 . S
C243 N239 1.332 . S
C243 C242 1.382 . S
C243 H245 0.952 . S
C244 N239 1.332 . S
C244 C240 1.382 . S
C244 H246 0.948 . S
H245 C243 0.952 . S
H246 C244 0.948 . S
H247 C236 0.953 . S
H248 C238 0.948 . S
C249 C215 1.395 . S
C249 C219 1.391 . S
C250 C212 1.389 . S
C250 C232 1.392 . S
C251 C222 1.392 . S
C251 C224 1.389 . S
C252 C227 1.395 . S
C252 C229 1.391 . S
H253 C213 0.951 . S
H254 C214 0.950 . S
H255 C220 0.949 . S
H256 C221 0.950 . S
H257 C225 0.951 . S
H258 C226 0.950 . S
H259 C230 0.949 . S
H260 C231 0.950 . S
H261 C235 0.950 . S
H262 C237 0.950 . S
H263 C240 0.950 . S
H264 C242 0.950 . S
C265 C266 1.443 . S
C265 N269 1.376 . S
C265 C303 1.389 . S
C266 C265 1.443 . S
C266 C267 1.340 . S
C266 H306 0.951 . S
C267 C266 1.340 . S
C267 C268 1.439 . S
C267 H307 0.950 . S
C268 C267 1.439 . S
C268 N269 1.374 . S
C268 C302 1.395 . S
N269 C265 1.376 . S
N269 C268 1.374 . S
N269 Co270 2.008 . S
Co270 N269 2.008 . S
Co270 N271 1.995 . S
Co270 N276 2.008 . S
Co270 N281 1.995 . S
Co270 N286 2.282 . S
Co270 N292 2.282 . S
N271 Co270 1.995 . S
N271 C272 1.376 . S
N271 C275 1.383 . S
C272 N271 1.376 . S
C272 C273 1.446 . S
C272 C302 1.391 . S
C273 C272 1.446 . S
C273 C274 1.339 . S
C273 H308 0.949 . S
C274 C273 1.339 . S
C274 C275 1.439 . S
C274 H309 0.950 . S
C275 N271 1.383 . S
C275 C274 1.439 . S
C275 C304 1.392 . S
N276 Co270 2.008 . S
N276 C277 1.376 . S
N276 C280 1.374 . S
C277 N276 1.376 . S
C277 C278 1.443 . S
C277 C304 1.389 . S
C278 C277 1.443 . S
C278 C279 1.340 . S
C278 H310 0.951 . S
C279 C278 1.340 . S
C279 C280 1.439 . S
C279 H311 0.950 . S
C280 N276 1.374 . S
C280 C279 1.439 . S
C280 C305 1.395 . S
N281 Co270 1.995 . S
N281 C282 1.376 . S
N281 C285 1.383 . S
C282 N281 1.376 . S
C282 C283 1.446 . S
C282 C305 1.391 . S
C283 C282 1.446 . S
C283 C284 1.339 . S
C283 H312 0.949 . S
C284 C283 1.339 . S
C284 C285 1.439 . S
C284 H313 0.950 . S
C285 N281 1.383 . S
C285 C284 1.439 . S
C285 C303 1.392 . S
N286 Co270 2.282 . S
N286 C289 1.332 . S
N286 C291 1.332 . S
C287 C288 1.386 . S
C287 C290 1.388 . S
C288 C287 1.386 . S
C288 C289 1.382 . S
C288 H314 0.950 . S
C289 N286 1.332 . S
C289 C288 1.382 . S
C289 H300 0.952 . S
C290 C287 1.388 . S
C290 C291 1.382 . S
C290 H315 0.950 . S
C291 N286 1.332 . S
C291 C290 1.382 . S
C291 H301 0.948 . S
N292 Co270 2.282 . S
N292 C296 1.332 . S
N292 C297 1.332 . S
C293 C294 1.388 . S
C293 C297 1.382 . S
C293 H316 0.950 . S
C294 C293 1.388 . S
C294 C295 1.386 . S
C295 C294 1.386 . S
C295 C296 1.382 . S
C295 H317 0.950 . S
C296 N292 1.332 . S
C296 C295 1.382 . S
C296 H298 0.952 . S
C297 N292 1.332 . S
C297 C293 1.382 . S
C297 H299 0.948 . S
H298 C296 0.952 . S
H299 C297 0.948 . S
H300 C289 0.952 . S
H301 C291 0.948 . S
C302 C268 1.395 . S
C302 C272 1.391 . S
C303 C265 1.389 . S
C303 C285 1.392 . S
C304 C275 1.392 . S
C304 C277 1.389 . S
C305 C280 1.395 . S
C305 C282 1.391 . S
H306 C266 0.951 . S
H307 C267 0.950 . S
H308 C273 0.949 . S
H309 C274 0.950 . S
H310 C278 0.951 . S
H311 C279 0.950 . S
H312 C283 0.949 . S
H313 C284 0.950 . S
H314 C288 0.950 . S
H315 C290 0.950 . S
H316 C293 0.950 . S
H317 C295 0.950 . S
C318 C319 1.443 . S
C318 N322 1.376 . S
C318 C356 1.389 . S
C319 C318 1.443 . S
C319 C320 1.340 . S
C319 H359 0.957 . S
C320 C319 1.340 . S
C320 C321 1.439 . S
C320 H360 0.950 . S
C321 C320 1.439 . S
C321 N322 1.374 . S
C321 C355 1.395 . S
N322 C318 1.376 . S
N322 C321 1.374 . S
N322 Co323 2.008 . S
Co323 N322 2.008 . S
Co323 N324 1.995 . S
Co323 N329 2.008 1_565 S
Co323 N334 1.995 1_565 S
Co323 N339 2.282 . S
Co323 N345 2.282 . S
N324 Co323 1.995 . S
N324 C325 1.376 . S
N324 C328 1.383 . S
C325 N324 1.376 . S
C325 C326 1.446 . S
C325 C355 1.391 . S
C326 C325 1.446 . S
C326 C327 1.339 . S
C326 H361 0.949 . S
C327 C326 1.339 . S
C327 C328 1.439 . S
C327 H362 0.950 . S
C328 N324 1.383 . S
C328 C327 1.439 . S
C328 C357 1.392 1_565 S
N329 Co323 2.008 1_545 S
N329 C330 1.376 . S
N329 C333 1.374 . S
C330 N329 1.376 . S
C330 C331 1.443 . S
C330 C357 1.389 . S
C331 C330 1.443 . S
C331 C332 1.340 . S
C331 H363 0.951 . S
C332 C331 1.340 . S
C332 C333 1.439 . S
C332 H364 0.950 . S
C333 N329 1.374 . S
C333 C332 1.439 . S
C333 C358 1.395 . S
N334 Co323 1.995 1_545 S
N334 C335 1.376 . S
N334 C338 1.383 1_545 S
C335 N334 1.376 . S
C335 C336 1.446 . S
C335 C358 1.391 . S
C336 C335 1.446 . S
C336 C337 1.339 1_554 S
C336 H365 0.949 . S
C337 C336 1.339 1_556 S
C337 C338 1.439 1_546 S
C337 H366 0.949 . S
C338 N334 1.383 1_565 S
C338 C337 1.439 1_564 S
C338 C356 1.392 . S
N339 Co323 2.282 . S
N339 C342 1.332 1_565 S
N339 C344 1.332 . S
C340 C341 1.386 . S
C340 C343 1.388 1_545 S
C341 C340 1.386 . S
C341 C342 1.382 1_556 S
C341 H367 0.950 . S
C342 N339 1.332 1_545 S
C342 C341 1.382 1_554 S
C342 H353 0.952 . S
C343 C340 1.388 1_565 S
C343 C344 1.382 1_556 S
C343 H368 0.950 . S
C344 N339 1.332 . S
C344 C343 1.382 1_554 S
C344 H354 0.948 . S
N345 Co323 2.282 . S
N345 C349 1.332 . S
N345 C350 1.332 . S
C346 C347 1.388 . S
C346 C350 1.382 . S
C346 H369 0.950 . S
C347 C346 1.388 . S
C347 C348 1.386 . S
C348 C347 1.386 . S
C348 C349 1.382 . S
C348 H370 0.950 . S
C349 N345 1.332 . S
C349 C348 1.382 . S
C349 H351 0.952 . S
C350 N345 1.332 . S
C350 C346 1.382 . S
C350 H352 0.948 1_565 S
H351 C349 0.952 . S
H352 C350 0.948 1_545 S
H353 C342 0.952 . S
H354 C344 0.948 . S
C355 C321 1.395 . S
C355 C325 1.391 . S
C356 C318 1.389 . S
C356 C338 1.392 . S
C357 C328 1.392 1_545 S
C357 C330 1.389 . S
C358 C333 1.395 . S
C358 C335 1.391 . S
H359 C319 0.957 . S
H360 C320 0.950 . S
H361 C326 0.949 . S
H362 C327 0.950 . S
H363 C331 0.951 . S
H364 C332 0.950 . S
H365 C336 0.949 . S
H366 C337 0.949 . S
H367 C341 0.950 . S
H368 C343 0.950 . S
H369 C346 0.950 . S
H370 C348 0.950 . S
C371 C372 1.443 . S
C371 N375 1.376 . S
C371 C409 1.389 . S
C372 C371 1.443 . S
C372 C373 1.340 . S
C372 H412 0.951 . S
C373 C372 1.340 . S
C373 C374 1.439 . S
C373 H413 0.950 . S
C374 C373 1.439 . S
C374 N375 1.374 . S
C374 C408 1.395 . S
N375 C371 1.376 . S
N375 C374 1.374 . S
N375 Co376 2.008 1_545 S
Co376 N375 2.008 1_565 S
Co376 N377 1.995 1_565 S
Co376 N382 2.008 . S
Co376 N387 1.995 . S
Co376 N392 2.282 1_565 S
Co376 N398 2.282 . S
N377 Co376 1.995 1_545 S
N377 C378 1.376 . S
N377 C381 1.383 . S
C378 N377 1.376 . S
C378 C379 1.446 . S
C378 C408 1.391 . S
C379 C378 1.446 . S
C379 C380 1.339 . S
C379 H414 0.949 . S
C380 C379 1.339 . S
C380 C381 1.439 . S
C380 H415 0.950 . S
C381 N377 1.383 . S
C381 C380 1.439 . S
C381 C410 1.392 1_545 S
N382 Co376 2.008 . S
N382 C383 1.376 . S
N382 C386 1.374 . S
C383 N382 1.376 . S
C383 C384 1.443 . S
C383 C410 1.389 . S
C384 C383 1.443 . S
C384 C385 1.340 . S
C384 H416 0.951 . S
C385 C384 1.340 . S
C385 C386 1.439 . S
C385 H417 0.950 . S
C386 N382 1.374 . S
C386 C385 1.439 . S
C386 C411 1.395 . S
N387 Co376 1.995 . S
N387 C388 1.376 . S
N387 C391 1.383 . S
C388 N387 1.376 . S
C388 C389 1.446 . S
C388 C411 1.391 . S
C389 C388 1.446 . S
C389 C390 1.339 . S
C389 H418 0.949 . S
C390 C389 1.339 . S
C390 C391 1.439 . S
C390 H419 0.950 . S
C391 N387 1.383 . S
C391 C390 1.439 . S
C391 C409 1.392 1_565 S
N392 Co376 2.282 1_545 S
N392 C395 1.332 1_545 S
N392 C397 1.332 . S
C393 C394 1.386 . S
C393 C396 1.388 . S
C394 C393 1.386 . S
C394 C395 1.382 1_545 S
C394 H420 0.950 1_545 S
C395 N392 1.332 1_565 S
C395 C394 1.382 1_565 S
C395 H406 0.952 . S
C396 C393 1.388 . S
C396 C397 1.382 . S
C396 H421 0.950 . S
C397 N392 1.332 . S
C397 C396 1.382 . S
C397 H407 0.948 . S
N398 Co376 2.282 . S
N398 C402 1.332 1_565 S
N398 C403 1.332 . S
C399 C400 1.388 . S
C399 C403 1.382 . S
C399 H422 0.950 . S
C400 C399 1.388 . S
C400 C401 1.386 . S
C401 C400 1.386 . S
C401 C402 1.382 1_565 S
C401 H423 0.950 1_565 S
C402 N398 1.332 1_545 S
C402 C401 1.382 1_545 S
C402 H404 0.952 . S
C403 N398 1.332 . S
C403 C399 1.382 . S
C403 H405 0.948 . S
H404 C402 0.952 . S
H405 C403 0.948 . S
H406 C395 0.952 . S
H407 C397 0.948 . S
C408 C374 1.395 . S
C408 C378 1.391 . S
C409 C371 1.389 . S
C409 C391 1.392 1_545 S
C410 C381 1.392 1_565 S
C410 C383 1.389 . S
C411 C386 1.395 . S
C411 C388 1.391 . S
H412 C372 0.951 . S
H413 C373 0.950 . S
H414 C379 0.949 . S
H415 C380 0.950 . S
H416 C384 0.951 . S
H417 C385 0.950 . S
H418 C389 0.949 . S
H419 C390 0.950 . S
H420 C394 0.950 1_565 S
H421 C396 0.950 . S
H422 C399 0.950 . S
H423 C401 0.950 1_545 S
H424 C430 0.930 . S
H425 C434 0.930 1_554 S
H426 C439 0.929 . S
H427 C437 0.929 . S
H428 C432 0.929 . S
H429 C438 0.929 . S
C430 H424 0.930 . S
C430 C431 1.367 . S
C430 C438 1.378 . S
C431 C430 1.367 . S
C431 C439 1.433 1_565 S
C432 H428 0.929 . S
C432 C434 1.378 . S
C432 C436 1.350 1_545 S
C433 C436 1.463 . S
C433 C438 1.350 . S
C433 N441 1.427 1_565 S
C434 H425 0.930 1_556 S
C434 C432 1.378 . S
C434 C435 1.367 1_546 S
C435 C434 1.367 1_564 S
C435 C437 1.433 . S
C436 C432 1.350 1_565 S
C436 C433 1.463 . S
C436 N440 1.427 . S
C437 H427 0.929 . S
C437 C435 1.433 . S
C437 N440 1.384 1_554 S
C438 H429 0.929 . S
C438 C430 1.378 . S
C438 C433 1.350 . S
C439 H426 0.929 . S
C439 C431 1.433 1_545 S
C439 N441 1.384 . S
N440 C436 1.427 . S
N440 C437 1.384 1_556 S
N441 C433 1.427 1_545 S
N441 C439 1.384 . S
H442 C448 0.930 1_565 S
H443 C452 0.930 . S
H444 C457 0.929 . S
H445 C455 0.929 . S
H446 C450 0.929 . S
H447 C456 0.929 1_565 S
C448 H442 0.930 1_545 S
C448 C449 1.367 . S
C448 C456 1.378 . S
C449 C448 1.367 . S
C449 C457 1.433 . S
C450 H446 0.929 . S
C450 C452 1.378 . S
C450 C454 1.350 . S
C451 C454 1.463 . S
C451 C456 1.350 . S
C451 N459 1.427 . S
C452 H443 0.930 . S
C452 C450 1.378 . S
C452 C453 1.367 . S
C453 C452 1.367 . S
C453 C455 1.433 1_545 S
C454 C450 1.350 . S
C454 C451 1.463 . S
C454 N458 1.427 1_545 S
C455 H445 0.929 . S
C455 C453 1.433 1_565 S
C455 N458 1.384 . S
C456 H447 0.929 1_545 S
C456 C448 1.378 . S
C456 C451 1.350 . S
C457 H444 0.929 . S
C457 C449 1.433 . S
C457 N459 1.384 . S
N458 C454 1.427 1_565 S
N458 C455 1.384 . S
N459 C451 1.427 . S
N459 C457 1.384 . S
H460 C466 0.930 . S
H461 C470 0.930 . S
H462 C475 0.929 . S
H463 C473 0.929 . S
H464 C468 0.929 . S
H465 C474 0.929 . S
C466 H460 0.930 . S
C466 C467 1.367 . S
C466 C474 1.378 . S
C467 C466 1.367 . S
C467 C475 1.433 . S
C468 H464 0.929 . S
C468 C470 1.378 . S
C468 C472 1.350 . S
C469 C472 1.463 . S
C469 C474 1.350 . S
C469 N477 1.427 . S
C470 H461 0.930 . S
C470 C468 1.378 . S
C470 C471 1.367 1_554 S
C471 C470 1.367 1_556 S
C471 C473 1.433 . S
C472 C468 1.350 . S
C472 C469 1.463 . S
C472 N476 1.427 . S
C473 H463 0.929 . S
C473 C471 1.433 . S
C473 N476 1.384 1_556 S
C474 H465 0.929 . S
C474 C466 1.378 . S
C474 C469 1.350 . S
C475 H462 0.929 . S
C475 C467 1.433 . S
C475 N477 1.384 . S
N476 C472 1.427 . S
N476 C473 1.384 1_554 S
N477 C469 1.427 . S
N477 C475 1.384 . S
H478 C484 0.930 . S
H479 C488 0.930 . S
H480 C493 0.929 . S
H481 C491 0.929 . S
H482 C486 0.929 . S
H483 C492 0.929 . S
C484 H478 0.930 . S
C484 C485 1.367 . S
C484 C492 1.378 . S
C485 C484 1.367 . S
C485 C493 1.433 . S
C486 H482 0.929 . S
C486 C488 1.378 . S
C486 C490 1.350 . S
C487 C490 1.463 . S
C487 C492 1.350 . S
C487 N495 1.427 . S
C488 H479 0.930 . S
C488 C486 1.378 . S
C488 C489 1.367 . S
C489 C488 1.367 . S
C489 C491 1.433 . S
C490 C486 1.350 . S
C490 C487 1.463 . S
C490 N494 1.427 . S
C491 H481 0.929 . S
C491 C489 1.433 . S
C491 N494 1.384 . S
C492 H483 0.929 . S
C492 C484 1.378 . S
C492 C487 1.350 . S
C493 H480 0.929 . S
C493 C485 1.433 . S
C493 N495 1.384 . S
N494 C490 1.427 . S
N494 C491 1.384 . S
N495 C487 1.427 . S
N495 C493 1.384 . S
H496 C502 0.930 . S
H497 C506 0.930 . S
H498 C511 0.929 . S
H499 C509 0.929 . S
H500 C504 0.929 . S
H501 C510 0.929 . S
C502 H496 0.930 . S
C502 C503 1.367 . S
C502 C510 1.378 . S
C503 C502 1.367 . S
C503 C511 1.433 . S
C504 H500 0.929 . S
C504 C506 1.378 . S
C504 C508 1.350 . S
C505 C508 1.463 . S
C505 C510 1.350 . S
C505 N513 1.427 . S
C506 H497 0.930 . S
C506 C504 1.378 . S
C506 C507 1.367 . S
C507 C506 1.367 . S
C507 C509 1.433 . S
C508 C504 1.350 . S
C508 C505 1.463 . S
C508 N512 1.427 . S
C509 H499 0.929 . S
C509 C507 1.433 . S
C509 N512 1.384 . S
C510 H501 0.929 . S
C510 C502 1.378 . S
C510 C505 1.350 . S
C511 H498 0.929 . S
C511 C503 1.433 . S
C511 N513 1.384 . S
N512 C508 1.427 . S
N512 C509 1.384 . S
N513 C505 1.427 . S
N513 C511 1.384 . S
H514 C520 0.930 . S
H515 C524 0.930 . S
H516 C529 0.929 . S
H517 C527 0.929 . S
H518 C522 0.929 . S
H519 C528 0.929 . S
C520 H514 0.930 . S
C520 C521 1.367 . S
C520 C528 1.378 . S
C521 C520 1.367 . S
C521 C529 1.433 . S
C522 H518 0.929 . S
C522 C524 1.378 . S
C522 C526 1.350 . S
C523 C526 1.463 . S
C523 C528 1.350 . S
C523 N531 1.427 . S
C524 H515 0.930 . S
C524 C522 1.378 . S
C524 C525 1.367 . S
C525 C524 1.367 . S
C525 C527 1.433 . S
C526 C522 1.350 . S
C526 C523 1.463 . S
C526 N530 1.427 . S
C527 H517 0.929 . S
C527 C525 1.433 . S
C527 N530 1.384 . S
C528 H519 0.929 . S
C528 C520 1.378 . S
C528 C523 1.350 . S
C529 H516 0.929 . S
C529 C521 1.433 . S
C529 N531 1.384 . S
N530 C526 1.427 . S
N530 C527 1.384 . S
N531 C523 1.427 . S
N531 C529 1.384 . S
H532 C538 0.930 . S
H533 C542 0.930 . S
H534 C547 0.929 . S
H535 C545 0.929 . S
H536 C540 0.929 . S
H537 C546 0.929 . S
C538 H532 0.930 . S
C538 C539 1.367 1_565 S
C538 C546 1.378 . S
C539 C538 1.367 1_545 S
C539 C547 1.433 . S
C540 H536 0.929 . S
C540 C542 1.378 . S
C540 C544 1.350 1_545 S
C541 C544 1.463 1_545 S
C541 C546 1.350 1_545 S
C541 N549 1.427 . S
C542 H533 0.930 . S
C542 C540 1.378 . S
C542 C543 1.367 1_545 S
C543 C542 1.367 1_565 S
C543 C545 1.433 . S
C544 C540 1.350 1_565 S
C544 C541 1.463 1_565 S
C544 N548 1.427 . S
C545 H535 0.929 . S
C545 C543 1.433 . S
C545 N548 1.384 . S
C546 H537 0.929 . S
C546 C538 1.378 . S
C546 C541 1.350 1_565 S
C547 H534 0.929 . S
C547 C539 1.433 . S
C547 N549 1.384 . S
N548 C544 1.427 . S
N548 C545 1.384 . S
N549 C541 1.427 . S
N549 C547 1.384 . S
H550 C556 0.930 . S
H551 C560 0.930 . S
H552 C565 0.929 . S
H553 C563 0.929 . S
H554 C558 0.929 . S
H555 C564 0.929 1_565 S
C556 H550 0.930 . S
C556 C557 1.367 1_565 S
C556 C564 1.378 1_565 S
C557 C556 1.367 1_545 S
C557 C565 1.433 . S
C558 H554 0.929 . S
C558 C560 1.378 . S
C558 C562 1.350 . S
C559 C562 1.463 . S
C559 C564 1.350 . S
C559 N567 1.427 . S
C560 H551 0.930 . S
C560 C558 1.378 . S
C560 C561 1.367 . S
C561 C560 1.367 . S
C561 C563 1.433 . S
C562 C558 1.350 . S
C562 C559 1.463 . S
C562 N566 1.427 . S
C563 H553 0.929 . S
C563 C561 1.433 . S
C563 N566 1.384 . S
C564 H555 0.929 1_545 S
C564 C556 1.378 1_545 S
C564 C559 1.350 . S
C565 H552 0.929 . S
C565 C557 1.433 . S
C565 N567 1.384 . S
N566 C562 1.427 . S
N566 C563 1.384 . S
N567 C559 1.427 . S
N567 C565 1.384 . S
H568 C574 0.930 1_565 S
H569 C578 0.930 . S
H570 C583 0.929 . S
H571 C581 0.929 . S
H572 C576 0.929 . S
H573 C582 0.929 1_655 S
C574 H568 0.930 1_545 S
C574 C575 1.367 . S
C574 C582 1.378 . S
C575 C574 1.367 . S
C575 C583 1.433 . S
C576 H572 0.929 . S
C576 C578 1.378 . S
C576 C580 1.350 . S
C577 C580 1.463 1_455 S
C577 C582 1.350 . S
C577 N585 1.427 . S
C578 H569 0.930 . S
C578 C576 1.378 . S
C578 C579 1.367 . S
C579 C578 1.367 . S
C579 C581 1.433 . S
C580 C576 1.350 . S
C580 C577 1.463 1_655 S
C580 N584 1.427 . S
C581 H571 0.929 . S
C581 C579 1.433 . S
C581 N584 1.384 . S
C582 H573 0.929 1_455 S
C582 C574 1.378 . S
C582 C577 1.350 . S
C583 H570 0.929 . S
C583 C575 1.433 . S
C583 N585 1.384 . S
N584 C580 1.427 . S
N584 C581 1.384 . S
N585 C577 1.427 . S
N585 C583 1.384 . S
H586 C592 0.930 . S
H587 C596 0.930 . S
H588 C601 0.929 . S
H589 C599 0.929 . S
H590 C594 0.929 . S
H591 C600 0.929 . S
C592 H586 0.930 . S
C592 C593 1.367 . S
C592 C600 1.378 . S
C593 C592 1.367 . S
C593 C601 1.433 . S
C594 H590 0.929 . S
C594 C596 1.378 . S
C594 C598 1.350 . S
C595 C598 1.463 . S
C595 C600 1.350 . S
C595 N603 1.427 . S
C596 H587 0.930 . S
C596 C594 1.378 . S
C596 C597 1.367 . S
C597 C596 1.367 . S
C597 C599 1.433 . S
C598 C594 1.350 . S
C598 C595 1.463 . S
C598 N602 1.427 . S
C599 H589 0.929 . S
C599 C597 1.433 . S
C599 N602 1.384 . S
C600 H591 0.929 . S
C600 C592 1.378 . S
C600 C595 1.350 . S
C601 H588 0.929 . S
C601 C593 1.433 . S
C601 N603 1.384 . S
N602 C598 1.427 . S
N602 C599 1.384 . S
N603 C595 1.427 . S
N603 C601 1.384 . S
H604 C610 0.930 . S
H605 C614 0.930 . S
H606 C619 0.929 . S
H607 C617 0.929 . S
H608 C612 0.929 . S
H609 C618 0.929 . S
C610 H604 0.930 . S
C610 C611 1.367 . S
C610 C618 1.378 . S
C611 C610 1.367 . S
C611 C619 1.433 . S
C612 H608 0.929 . S
C612 C614 1.378 . S
C612 C616 1.350 . S
C613 C616 1.463 1_455 S
C613 C618 1.350 . S
C613 N621 1.427 . S
C614 H605 0.930 . S
C614 C612 1.378 . S
C614 C615 1.367 . S
C615 C614 1.367 . S
C615 C617 1.433 . S
C616 C612 1.350 . S
C616 C613 1.463 1_655 S
C616 N620 1.427 1_655 S
C617 H607 0.929 . S
C617 C615 1.433 . S
C617 N620 1.384 1_655 S
C618 H609 0.929 . S
C618 C610 1.378 . S
C618 C613 1.350 . S
C619 H606 0.929 . S
C619 C611 1.433 . S
C619 N621 1.384 . S
N620 C616 1.427 1_455 S
N620 C617 1.384 1_455 S
N621 C613 1.427 . S
N621 C619 1.384 . S
H622 C628 0.930 . S
H623 C632 0.930 . S
H624 C637 0.929 . S
H625 C635 0.929 . S
H626 C630 0.929 . S
H627 C636 0.929 . S
C628 H622 0.930 . S
C628 C629 1.367 . S
C628 C636 1.378 . S
C629 C628 1.367 . S
C629 C637 1.433 . S
C630 H626 0.929 . S
C630 C632 1.378 . S
C630 C634 1.350 . S
C631 C634 1.463 . S
C631 C636 1.350 . S
C631 N639 1.427 . S
C632 H623 0.930 . S
C632 C630 1.378 . S
C632 C633 1.367 . S
C633 C632 1.367 . S
C633 C635 1.433 . S
C634 C630 1.350 . S
C634 C631 1.463 . S
C634 N638 1.427 . S
C635 H625 0.929 . S
C635 C633 1.433 . S
C635 N638 1.384 . S
C636 H627 0.929 . S
C636 C628 1.378 . S
C636 C631 1.350 . S
C637 H624 0.929 . S
C637 C629 1.433 . S
C637 N639 1.384 . S
N638 C634 1.427 . S
N638 C635 1.384 . S
N639 C631 1.427 . S
N639 C637 1.384 . S
H640 C646 0.930 . S
H641 C650 0.930 . S
H642 C655 0.929 . S
H643 C653 0.929 . S
H644 C648 0.929 . S
H645 C654 0.929 . S
C646 H640 0.930 . S
C646 C647 1.367 . S
C646 C654 1.378 . S
C647 C646 1.367 . S
C647 C655 1.433 1_554 S
C648 H644 0.929 . S
C648 C650 1.378 . S
C648 C652 1.350 1_556 S
C649 C652 1.463 . S
C649 C654 1.350 1_655 S
C649 N657 1.427 1_554 S
C650 H641 0.930 . S
C650 C648 1.378 . S
C650 C651 1.367 1_556 S
C651 C650 1.367 1_554 S
C651 C653 1.433 . S
C652 C648 1.350 1_554 S
C652 C649 1.463 . S
C652 N656 1.427 . S
C653 H643 0.929 . S
C653 C651 1.433 . S
C653 N656 1.384 . S
C654 H645 0.929 . S
C654 C646 1.378 . S
C654 C649 1.350 1_455 S
C655 H642 0.929 . S
C655 C647 1.433 1_556 S
C655 N657 1.384 1_455 S
N656 C652 1.427 . S
N656 C653 1.384 . S
N657 C649 1.427 1_556 S
N657 C655 1.384 1_655 S
H658 C664 0.930 . S
H659 C668 0.930 . S
H660 C673 0.929 . S
H661 C671 0.929 . S
H662 C666 0.929 . S
H663 C672 0.929 . S
C664 H658 0.930 . S
C664 C665 1.367 . S
C664 C672 1.378 . S
C665 C664 1.367 . S
C665 C673 1.433 . S
C666 H662 0.929 . S
C666 C668 1.378 . S
C666 C670 1.350 . S
C667 C670 1.463 . S
C667 C672 1.350 . S
C667 N675 1.427 . S
C668 H659 0.930 . S
C668 C666 1.378 . S
C668 C669 1.367 . S
C669 C668 1.367 . S
C669 C671 1.433 . S
C670 C666 1.350 . S
C670 C667 1.463 . S
C670 N674 1.427 . S
C671 H661 0.929 . S
C671 C669 1.433 . S
C671 N674 1.384 . S
C672 H663 0.929 . S
C672 C664 1.378 . S
C672 C667 1.350 . S
C673 H660 0.929 . S
C673 C665 1.433 . S
C673 N675 1.384 . S
N674 C670 1.427 . S
N674 C671 1.384 . S
N675 C667 1.427 . S
N675 C673 1.384 . S
H676 C682 0.930 . S
H677 C686 0.930 . S
H678 C691 0.929 . S
H679 C689 0.929 . S
H680 C684 0.929 . S
H681 C690 0.929 . S
C682 H676 0.930 . S
C682 C683 1.367 1_554 S
C682 C690 1.378 . S
C683 C682 1.367 1_556 S
C683 C691 1.433 . S
C684 H680 0.929 . S
C684 C686 1.378 . S
C684 C688 1.350 . S
C685 C688 1.463 . S
C685 C690 1.350 1_556 S
C685 N693 1.427 . S
C686 H677 0.930 . S
C686 C684 1.378 . S
C686 C687 1.367 . S
C687 C686 1.367 . S
C687 C689 1.433 1_556 S
C688 C684 1.350 . S
C688 C685 1.463 . S
C688 N692 1.427 1_556 S
C689 H679 0.929 . S
C689 C687 1.433 1_554 S
C689 N692 1.384 . S
C690 H681 0.929 . S
C690 C682 1.378 . S
C690 C685 1.350 1_554 S
C691 H678 0.929 . S
C691 C683 1.433 . S
C691 N693 1.384 . S
N692 C688 1.427 1_554 S
N692 C689 1.384 . S
N693 C685 1.427 . S
N693 C691 1.384 . S
H694 C700 0.930 . S
H695 C704 0.930 . S
H696 C709 0.929 . S
H697 C707 0.929 . S
H698 C702 0.929 1_455 S
H699 C708 0.929 . S
C700 H694 0.930 . S
C700 C701 1.367 . S
C700 C708 1.378 . S
C701 C700 1.367 . S
C701 C709 1.433 . S
C702 H698 0.929 1_655 S
C702 C704 1.378 . S
C702 C706 1.349 . S
C703 C706 1.466 1_455 S
C703 C708 1.350 . S
C703 N711 1.427 . S
C704 H695 0.930 . S
C704 C702 1.378 . S
C704 C705 1.367 . S
C705 C704 1.367 . S
C705 C707 1.433 . S
C706 C702 1.349 . S
C706 C703 1.466 1_655 S
C706 N710 1.424 . S
C707 H697 0.929 . S
C707 C705 1.433 . S
C707 N710 1.384 . S
C708 H699 0.929 . S
C708 C700 1.378 . S
C708 C703 1.350 . S
C709 H696 0.929 . S
C709 C701 1.433 . S
C709 N711 1.384 . S
N710 C706 1.424 . S
N710 C707 1.384 . S
N711 C703 1.427 . S
N711 C709 1.384 . S
C431 C75 2.041 . S
C435 C39 2.016 . S
C449 C22 2.206 . S
C453 C92 2.240 1_545 S
C467 C181 2.046 . S
C471 C145 2.021 . S
C485 C128 2.173 . S
C489 C198 2.204 . S
C503 C234 1.991 . S
C507 C304 2.006 . S
C521 C287 2.128 . S
C525 C251 2.158 . S
C539 C340 2.020 . S
C543 C410 2.040 . S
C557 C357 2.133 . S
C561 C393 2.112 . S
C575 C38 1.568 . S
C579 C197 1.552 . S
C593 C91 1.613 . S
C597 C144 1.628 . S
C611 C400 1.511 . S
C615 C241 1.524 . S
C629 C347 1.599 . S
C633 C294 1.585 . S
C647 C29 1.653 . S
C651 C250 1.641 1_554 S
C665 C303 1.314 . S
C669 C82 1.305 . S
C683 C356 1.549 1_556 S
C687 C135 1.564 . S
C701 C409 1.376 . S
C705 C188 1.366 . S
