# Generated by pormake.
# Topology oob, (7)-cn, num edge types: 1
# Building blocks:
#     Node 0, Type 0, BuildingBlock: HICVOG_clean_sbu_0, # of connection points: 7
#     Node 1, Type 0, BuildingBlock: HICVOG_clean_sbu_0, # of connection points: 7
#     Node 2, Type 0, BuildingBlock: HICVOG_clean_sbu_0, # of connection points: 7
#     Node 3, Type 0, BuildingBlock: HICVOG_clean_sbu_0, # of connection points: 7
#     Edge 4, Type (0, 0), BuildingBlock: MIFKUJ_clean_linker_0, # of connection points: 2
#     Edge 5, Type (0, 0), BuildingBlock: MIFKUJ_clean_linker_0, # of connection points: 2
#     Edge 6, Type (0, 0), BuildingBlock: MIFKUJ_clean_linker_0, # of connection points: 2
#     Edge 7, Type (0, 0), BuildingBlock: MIFKUJ_clean_linker_0, # of connection points: 2
#     Edge 8, Type (0, 0), BuildingBlock: MIFKUJ_clean_linker_0, # of connection points: 2
#     Edge 9, Type (0, 0), BuildingBlock: MIFKUJ_clean_linker_0, # of connection points: 2
#     Edge 10, Type (0, 0), BuildingBlock: MIFKUJ_clean_linker_0, # of connection points: 2
#     Edge 11, Type (0, 0), BuildingBlock: MIFKUJ_clean_linker_0, # of connection points: 2
#     Edge 12, Type (0, 0), BuildingBlock: MIFKUJ_clean_linker_0, # of connection points: 2
#     Edge 13, Type (0, 0), BuildingBlock: MIFKUJ_clean_linker_0, # of connection points: 2
#     Edge 14, Type (0, 0), BuildingBlock: MIFKUJ_clean_linker_0, # of connection points: 2
#     Edge 15, Type (0, 0), BuildingBlock: MIFKUJ_clean_linker_0, # of connection points: 2
#     Edge 16, Type (0, 0), BuildingBlock: MIFKUJ_clean_linker_0, # of connection points: 2
#     Edge 17, Type (0, 0), BuildingBlock: MIFKUJ_clean_linker_0, # of connection points: 2
# Relax obj value: 0.253
# Max RMSD: 0.252
# Mean RMSD: 0.252
data_MOF--net-oob--node1-HICVOG_clean_sbu_0--edge1-MIFKUJ_clean_linker_0
_symmetry_space_group_name_H-M    P1
_symmetry_Int_Tables_number       1
_symmetry_cell_setting            triclinic
loop_
_symmetry_equiv_pos_as_xyz
'x, y, z'
_cell_length_a     21.868526
_cell_length_b     49.226365
_cell_length_c     35.776254
_cell_angle_alpha  89.912213
_cell_angle_beta   105.28285
_cell_angle_gamma 89.967123
loop_
_atom_site_label
_atom_site_type_symbol
_atom_site_fract_x
_atom_site_fract_y
_atom_site_fract_z
_atom_type_partial_charge
Zn0 Zn 0.23228 0.03614 0.79904 0.0
C1 C 0.16493 0.99899 0.88091 0.0
N2 N 0.20761 0.01514 0.9044 0.0
C3 C 0.23633 0.02698 0.87984 0.0
N4 N 0.21249 0.01849 0.84299 0.0
N5 N 0.16752 1.00061 0.84367 0.0
C6 C 1.00228 0.98806 0.79123 0.0
O7 O 0.02605 0.00844 0.77592 0.0
O8 O 0.32625 0.03229 0.80592 0.0
Zn9 Zn 0.12891 0.97482 0.80372 0.0
N10 N 0.20737 0.0739 0.80221 0.0
C11 C 0.12827 0.10208 0.81674 0.0
C12 C 0.15316 0.07648 0.81372 0.0
C13 C 0.23783 0.09622 0.79319 0.0
N14 N 0.15783 0.12422 0.80734 0.0
C15 C 0.21193 0.12228 0.79544 0.0
O16 O 0.12314 0.98731 0.74892 0.0
C17 C 0.14409 1.00464 0.72893 0.0
O18 O 0.18437 0.02267 0.74497 0.0
H19 H 0.12901 0.05865 0.82023 0.0
H20 H 0.28019 0.09364 0.7834 0.0
C21 C 0.15975 0.91616 0.80924 0.0
C22 C 0.20392 0.89458 0.81792 0.0
C23 C 0.28782 0.92673 0.83442 0.0
C24 C 0.24428 0.94785 0.82564 0.0
N25 N 0.18125 0.94232 0.81362 0.0
N26 N 0.26672 0.90076 0.83042 0.0
H27 H 0.10932 0.91234 0.79967 0.0
C28 C 0.35486 0.03952 0.78093 0.0
O29 O 0.32248 0.05093 0.74851 0.0
O30 O 0.03883 0.96864 0.80653 0.0
H31 H 0.26065 0.96865 0.82839 0.0
H32 H 0.08525 0.10437 0.82596 0.0
H33 H 0.33809 0.93088 0.84422 0.0
Zn34 Zn 0.78279 0.03886 0.24544 0.0
C35 C 0.85998 0.01095 0.16246 0.0
N36 N 0.81944 0.02877 0.14063 0.0
C37 C 0.78698 0.03778 0.16514 0.0
N38 N 0.80686 0.02596 0.20036 0.0
N39 N 0.85229 0.00863 0.19855 0.0
C40 C 0.01138 0.99339 0.23971 0.0
O41 O 0.98859 0.01542 0.25183 0.0
O42 O 0.68926 0.03342 0.23687 0.0
Zn43 Zn 0.88665 0.97938 0.23448 0.0
N44 N 0.80569 0.07704 0.24966 0.0
C45 C 0.89366 0.10655 0.25505 0.0
C46 C 0.86739 0.0807 0.24995 0.0
C47 C 0.76834 0.09848 0.25384 0.0
N48 N 0.85729 0.1278 0.26006 0.0
C49 C 0.79524 0.12469 0.25958 0.0
O50 O 0.89439 0.9879 0.29115 0.0
C51 C 0.8724 1.00414 0.31213 0.0
O52 O 0.83163 0.0223 0.29712 0.0
H53 H 0.89621 0.06343 0.24677 0.0
H54 H 0.71951 0.09508 0.25397 0.0
C55 C 0.85419 0.9214 0.23013 0.0
C56 C 0.81612 0.89904 0.21388 0.0
C57 C 0.74139 0.92927 0.1747 0.0
C58 C 0.77901 0.95128 0.19073 0.0
N59 N 0.83502 0.94705 0.21771 0.0
N60 N 0.7609 0.90378 0.18641 0.0
H61 H 0.89905 0.91844 0.25148 0.0
C62 C 0.66224 0.03313 0.2642 0.0
O63 O 0.69608 0.03758 0.29985 0.0
O64 O 0.97532 0.9729 0.23036 0.0
H65 H 0.76386 0.9716 0.18121 0.0
H66 H 0.94282 0.10969 0.25555 0.0
H67 H 0.69711 0.93239 0.15291 0.0
Zn68 Zn 0.72596 0.54019 0.29874 0.0
C69 C 0.64724 0.51046 0.37968 0.0
N70 N 0.69003 0.52686 0.40264 0.0
C71 C 0.72581 0.53466 0.37936 0.0
N72 N 0.70512 0.52398 0.34347 0.0
N73 N 0.65633 0.50814 0.34389 0.0
C74 C 0.49623 0.49448 0.30957 0.0
O75 O 0.51938 0.51816 0.30321 0.0
O76 O 0.81886 0.53505 0.30313 0.0
Zn77 Zn 0.61828 0.48114 0.30531 0.0
N78 N 0.70819 0.57869 0.30294 0.0
C79 C 0.63908 0.6099 0.32216 0.0
C80 C 0.65439 0.58352 0.31412 0.0
C81 C 0.74671 0.59953 0.29824 0.0
N82 N 0.6777 0.63059 0.31815 0.0
C83 C 0.73105 0.62635 0.30616 0.0
O84 O 0.60768 0.4934 0.24964 0.0
C85 C 0.63009 0.51024 0.22957 0.0
O86 O 0.67337 0.52718 0.2454 0.0
H87 H 0.62421 0.56682 0.31755 0.0
H88 H 0.78942 0.59526 0.28942 0.0
C89 C 0.65362 0.4227 0.30826 0.0
C90 C 0.69852 0.40145 0.31881 0.0
C91 C 0.7789 0.43411 0.34368 0.0
C92 C 0.7347 0.45486 0.33343 0.0
N93 N 0.67298 0.44899 0.3161 0.0
N94 N 0.75984 0.40809 0.33626 0.0
H95 H 0.6042 0.41846 0.29475 0.0
C96 C 0.83973 0.51229 0.29513 0.0
O97 O 0.79944 0.49253 0.28212 0.0
O98 O 0.53055 0.47342 0.31111 0.0
H99 H 0.74981 0.47559 0.33943 0.0
H100 H 0.59689 0.61393 0.33162 0.0
H101 H 0.82808 0.43862 0.35749 0.0
Zn102 Zn 0.28615 0.53657 0.74278 0.0
C103 C 0.36171 0.50378 0.66101 0.0
N104 N 0.32272 0.5214 0.63783 0.0
C105 C 0.29094 0.53244 0.66136 0.0
N106 N 0.30976 0.522 0.69769 0.0
N107 N 0.35414 0.50366 0.69728 0.0
C108 C 0.51256 0.48857 0.73986 0.0
O109 O 0.48743 0.51117 0.74859 0.0
O110 O 0.19303 0.53099 0.73872 0.0
Zn111 Zn 0.38856 0.47595 0.73591 0.0
N112 N 0.30675 0.57491 0.74377 0.0
C113 C 0.38901 0.60602 0.74169 0.0
C114 C 0.36537 0.57968 0.73889 0.0
C115 C 0.27006 0.59565 0.75105 0.0
N116 N 0.35337 0.62659 0.74975 0.0
C117 C 0.29438 0.62232 0.75449 0.0
O118 O 0.39997 0.48756 0.79193 0.0
C119 C 0.37842 0.50483 0.81169 0.0
O120 O 0.337 0.5224 0.79556 0.0
H121 H 0.39401 0.56295 0.73353 0.0
H122 H 0.22395 0.59133 0.75548 0.0
C123 C 0.34583 0.41839 0.73173 0.0
C124 C 0.29775 0.39836 0.72146 0.0
C125 C 0.22246 0.43326 0.69658 0.0
C126 C 0.26954 0.45274 0.70715 0.0
N127 N 0.33033 0.44513 0.72412 0.0
N128 N 0.23762 0.40681 0.70397 0.0
H129 H 0.39436 0.41315 0.74597 0.0
C130 C 0.17478 0.51115 0.7559 0.0
O131 O 0.21729 0.49458 0.77697 0.0
O132 O 0.47754 0.46756 0.73203 0.0
H133 H 0.25737 0.47389 0.70196 0.0
H134 H 0.43575 0.61005 0.73809 0.0
H135 H 0.17402 0.4391 0.68286 0.0
H136 H 0.91041 0.02126 0.74964 0.0
H137 H 0.803 0.0271 0.75567 0.0
H138 H 0.83494 0.96445 0.84315 0.0
H139 H 0.94328 0.95806 0.83671 0.0
H140 H 0.71582 0.96111 0.7933 0.0
H141 H 0.84136 0.02845 0.87052 0.0
H142 H 0.92146 0.06469 0.88652 0.0
H143 H 0.80508 0.11589 0.79884 0.0
H144 H 0.72496 0.0796 0.78137 0.0
H145 H 0.43011 1.00742 0.83714 0.0
H146 H 0.5424 0.9967 0.84638 0.0
H147 H 0.54723 0.04825 0.74965 0.0
H148 H 0.43483 0.05899 0.74 0.0
H149 H 0.65198 0.05509 0.81651 0.0
H150 H 0.53421 0.98273 0.73554 0.0
H151 H 0.45616 0.94547 0.722 0.0
H152 H 0.56057 0.90345 0.82425 0.0
H153 H 0.63881 0.94068 0.83866 0.0
C154 C 0.89467 0.00855 0.77003 0.0
C155 C 0.93553 0.98936 0.79296 0.0
C156 C 0.83322 0.01198 0.77352 0.0
C157 C 0.81138 0.99662 0.80043 0.0
C158 C 0.85104 0.97662 0.82236 0.0
C159 C 0.9128 0.97299 0.81864 0.0
C160 C 0.7476 1.00233 0.80582 0.0
C161 C 0.70219 0.98153 0.79916 0.0
C162 C 0.72981 0.02899 0.81357 0.0
C163 C 0.77721 0.05119 0.82446 0.0
C164 C 0.83294 0.04736 0.85444 0.0
C165 C 0.87839 0.06793 0.8638 0.0
C166 C 0.86835 0.09261 0.8438 0.0
C167 C 0.81278 0.09676 0.81434 0.0
C168 C 0.76732 0.07618 0.80467 0.0
C169 C 0.45511 0.01664 0.81796 0.0
C170 C 0.42347 0.03399 0.78769 0.0
C171 C 0.51922 0.01041 0.82325 0.0
C172 C 0.5529 0.02157 0.79855 0.0
C173 C 0.52196 0.03945 0.76901 0.0
C174 C 0.45771 0.04547 0.76344 0.0
C175 C 0.61998 0.0141 0.8026 0.0
C176 C 0.666 0.0346 0.81123 0.0
C177 C 0.63848 0.98711 0.79738 0.0
C178 C 0.59193 0.96461 0.7884 0.0
C179 C 0.54025 0.96564 0.75528 0.0
C180 C 0.49603 0.94451 0.74742 0.0
C181 C 0.50329 0.92214 0.77231 0.0
C182 C 0.55494 0.92081 0.80503 0.0
C183 C 0.59925 0.94191 0.81304 0.0
H184 H 0.46899 0.90581 0.7662 0.0
H185 H 0.90362 0.10852 0.85111 0.0
H186 H 0.58849 0.03192 0.31515 0.0
H187 H 0.47661 0.01966 0.30167 0.0
H188 H 0.47005 1.00639 0.18148 0.0
H189 H 0.58151 0.01916 0.19455 0.0
H190 H 0.36849 0.0325 0.18584 0.0
H191 H 0.47257 0.95252 0.24252 0.0
H192 H 0.54838 0.92431 0.29011 0.0
H193 H 0.45836 0.94718 0.37851 0.0
H194 H 0.38254 0.97586 0.33159 0.0
H195 H 0.07836 0.95055 0.22107 0.0
H196 H 0.18678 0.95148 0.21349 0.0
H197 H 0.19738 0.03745 0.23742 0.0
H198 H 0.09018 0.03671 0.24527 0.0
H199 H 0.29538 0.96564 0.26865 0.0
H200 H 0.27631 0.06811 0.18501 0.0
H201 H 0.2006 0.09155 0.13115 0.0
H202 H 0.12308 0.01477 0.08519 0.0
H203 H 0.19704 0.99094 0.13918 0.0
C204 C 0.56327 0.02643 0.28584 0.0
C205 C 0.59403 0.02644 0.25597 0.0
C206 C 0.49939 0.01924 0.27821 0.0
C207 C 0.46521 0.01163 0.24068 0.0
C208 C 0.49552 0.01206 0.21068 0.0
C209 C 0.55932 0.01936 0.21824 0.0
C210 C 0.3975 1.0038 0.2328 0.0
C211 C 0.35264 0.01776 0.20381 0.0
C212 C 0.37673 0.98378 0.25516 0.0
C213 C 0.42209 0.9665 0.28356 0.0
C214 C 0.4692 0.95169 0.27217 0.0
C215 C 0.51214 0.93559 0.29902 0.0
C216 C 0.50826 0.93399 0.33732 0.0
C217 C 0.46133 0.94845 0.34883 0.0
C218 C 0.41829 0.9646 0.3221 0.0
C219 C 0.10387 0.96963 0.22462 0.0
C220 C 0.07605 0.9935 0.23424 0.0
C221 C 0.16559 0.97013 0.22016 0.0
C222 C 0.19978 0.99458 0.22455 0.0
C223 C 0.1715 0.01845 0.23336 0.0
C224 C 0.11037 0.01792 0.23822 0.0
C225 C 0.26676 0.99527 0.22305 0.0
C226 C 0.31149 0.98003 0.25032 0.0
C227 C 0.28749 0.01344 0.19831 0.0
C228 C 0.24192 0.02778 0.1663 0.0
C229 C 0.24284 0.05626 0.1635 0.0
C230 C 0.1999 0.06961 0.13309 0.0
C231 C 0.1564 0.05468 0.10503 0.0
C232 C 0.15585 0.02635 0.10731 0.0
C233 C 0.19804 0.01292 0.13792 0.0
H234 H 0.12363 0.06501 0.08127 0.0
H235 H 0.54155 0.92151 0.35806 0.0
H236 H 0.42641 0.44892 0.3147 0.0
H237 H 0.31764 0.44726 0.32142 0.0
H238 H 0.3137 0.53476 0.32644 0.0
H239 H 0.42177 0.5366 0.31986 0.0
H240 H 0.25626 0.51105 0.37838 0.0
H241 H 0.25243 0.50332 0.2424 0.0
H242 H 0.28095 0.48211 0.18688 0.0
H243 H 0.19787 0.40689 0.20948 0.0
H244 H 0.16961 0.42759 0.2655 0.0
H245 H 0.93464 0.54997 0.31427 0.0
H246 H 0.04829 0.54242 0.325 0.0
H247 H 0.01497 0.45664 0.3046 0.0
H248 H 0.90095 0.46419 0.29257 0.0
H249 H 0.09329 0.4734 0.26674 0.0
H250 H 0.08135 0.48417 0.39723 0.0
H251 H 0.05321 0.50606 0.45237 0.0
H252 H 0.16489 0.57572 0.44099 0.0
H253 H 0.19334 0.5544 0.38555 0.0
C254 C 0.40245 0.46777 0.3175 0.0
C255 C 0.43224 0.4929 0.31605 0.0
C256 C 0.34042 0.46679 0.32139 0.0
C257 C 0.30743 0.49091 0.32405 0.0
C258 C 0.33824 0.51591 0.32441 0.0
C259 C 0.39989 0.51691 0.3203 0.0
C260 C 0.2394 0.49052 0.32354 0.0
C261 C 0.22043 0.50291 0.35399 0.0
C262 C 0.19297 0.47928 0.29214 0.0
C263 C 0.20963 0.46689 0.25838 0.0
C264 C 0.24071 0.4822 0.2357 0.0
C265 C 0.25674 0.47028 0.20412 0.0
C266 C 0.24142 0.44314 0.19473 0.0
C267 C 0.20984 0.42789 0.21684 0.0
C268 C 0.19379 0.4397 0.2485 0.0
C269 C 0.95149 0.52948 0.31212 0.0
C270 C 0.90873 0.5077 0.30228 0.0
C271 C 0.01662 0.52515 0.31863 0.0
C272 C 0.04047 0.49888 0.31621 0.0
C273 C 0.9978 0.47708 0.30672 0.0
C274 C 0.93259 0.48144 0.29978 0.0
C275 C 0.10946 0.49443 0.32132 0.0
C276 C 0.12878 0.48114 0.29163 0.0
C277 C 0.15606 0.50487 0.35348 0.0
C278 C 0.13906 0.51774 0.38694 0.0
C279 C 0.09941 0.50427 0.4062 0.0
C280 C 0.08335 0.5166 0.43751 0.0
C281 C 0.10684 0.54236 0.44992 0.0
C282 C 0.14655 0.55582 0.43119 0.0
C283 C 0.16281 0.54359 0.3999 0.0
H284 H 0.09498 0.55181 0.47433 0.0
H285 H 0.25386 0.43395 0.17027 0.0
H286 H 0.59018 0.53218 0.74495 0.0
H287 H 0.70143 0.53294 0.74528 0.0
H288 H 0.70023 0.44572 0.73339 0.0
H289 H 0.58733 0.44487 0.7321 0.0
H290 H 0.80013 0.51227 0.79544 0.0
H291 H 0.81645 0.42771 0.69003 0.0
H292 H 0.74905 0.40334 0.63394 0.0
H293 H 0.63478 0.47481 0.60087 0.0
H294 H 0.70138 0.49956 0.65682 0.0
H295 H 0.1221 0.48031 0.80266 0.0
H296 H 0.00935 0.47398 0.79817 0.0
H297 H 0.96052 0.52513 0.69668 0.0
H298 H 0.07334 0.53201 0.70135 0.0
H299 H 0.88761 0.47459 0.69175 0.0
H300 H 0.953 0.55312 0.77413 0.0
H301 H 0.021 0.57725 0.83018 0.0
H302 H 0.97174 0.51955 0.90755 0.0
H303 H 0.90415 0.49484 0.85186 0.0
C304 C 0.61327 0.51309 0.74225 0.0
C305 C 0.57984 0.48842 0.7387 0.0
C306 C 0.67712 0.51358 0.74252 0.0
C307 C 0.70944 0.48944 0.73933 0.0
C308 C 0.6762 0.46468 0.73543 0.0
C309 C 0.61176 0.46419 0.73486 0.0
C310 C 0.77821 0.49062 0.74116 0.0
C311 C 0.81909 0.50392 0.77276 0.0
C312 C 0.80345 0.47972 0.71176 0.0
C313 C 0.76341 0.46533 0.67778 0.0
C314 C 0.77695 0.4382 0.67073 0.0
C315 C 0.73884 0.42432 0.63907 0.0
C316 C 0.68737 0.43744 0.61412 0.0
C317 C 0.67423 0.46457 0.62049 0.0
C318 C 0.71206 0.47853 0.65222 0.0
C319 C 0.0874 0.49015 0.77929 0.0
C320 C 0.10659 0.50679 0.75249 0.0
C321 C 0.02306 0.4865 0.77679 0.0
C322 C 0.97676 0.49912 0.74714 0.0
C323 C 0.99564 0.51518 0.71972 0.0
C324 C 0.06004 0.51921 0.72257 0.0
C325 C 0.9087 0.49644 0.74569 0.0
C326 C 0.86835 0.48279 0.7144 0.0
C327 C 0.88383 0.50703 0.77533 0.0
C328 C 0.92409 0.52197 0.80882 0.0
C329 C 0.95712 0.54544 0.80307 0.0
C330 C 0.9955 0.55925 0.83478 0.0
C331 C 1.00084 0.5499 0.8724 0.0
C332 C 0.96765 0.52675 0.87839 0.0
C333 C 0.92927 0.51285 0.84677 0.0
H334 H 0.03056 0.56062 0.89692 0.0
H335 H 0.65777 0.42649 0.58994 0.0
H336 H 0.18889 0.03136 0.67368 0.0
H337 H 0.14429 0.031 0.60325 0.0
H338 H 0.99458 0.97785 0.61651 0.0
H339 H 0.04002 0.97734 0.68643 0.0
H340 H 0.0299 0.96126 0.55832 0.0
H341 H 0.97513 0.04929 0.59753 0.0
H342 H 0.99604 0.09416 0.62888 0.0
H343 H 0.11393 0.11539 0.55448 0.0
H344 H 0.09432 0.07049 0.52298 0.0
H345 H 0.83118 0.032 0.36753 0.0
H346 H 0.87683 0.03173 0.43776 0.0
H347 H 0.02001 0.97501 0.4245 0.0
H348 H 0.97368 0.97458 0.35452 0.0
H349 H 0.98546 0.04686 0.48271 0.0
H350 H 0.06721 0.93461 0.50285 0.0
H351 H 0.03566 0.88992 0.47278 0.0
H352 H 0.84346 0.91763 0.43094 0.0
H353 H 0.87369 0.96234 0.46116 0.0
C354 C 0.14656 0.01954 0.66157 0.0
C355 C 0.11821 1.00438 0.68591 0.0
C356 C 0.12078 0.01947 0.6212 0.0
C357 C 0.06529 1.00469 0.60423 0.0
C358 C 0.03739 0.98939 0.62856 0.0
C359 C 0.06352 0.98917 0.66874 0.0
C360 C 0.03603 1.00494 0.5613 0.0
C361 C 0.02041 0.98004 0.54189 0.0
C362 C 0.02236 0.02934 0.53952 0.0
C363 C 0.03374 0.05643 0.55816 0.0
C364 C 1.00581 0.06347 0.58801 0.0
C365 C 0.0174 0.08891 0.60579 0.0
C366 C 0.05644 0.10759 0.59375 0.0
C367 C 0.08378 0.10089 0.5638 0.0
C368 C 0.0724 0.07546 0.54596 0.0
C369 C 0.87206 0.01926 0.37954 0.0
C370 C 0.89827 1.00314 0.35516 0.0
C371 C 0.89842 0.01925 0.41981 0.0
C372 C 0.95171 1.00317 0.43679 0.0
C373 C 0.97822 0.98721 0.41245 0.0
C374 C 0.9516 0.98702 0.37226 0.0
C375 C 0.97968 1.0032 0.47982 0.0
C376 C 0.99517 0.02812 0.49918 0.0
C377 C 0.99179 0.97885 0.50177 0.0
C378 C 0.97291 0.9519 0.48394 0.0
C379 C 0.01818 0.93112 0.48736 0.0
C380 C 1.00053 0.9058 0.47027 0.0
C381 C 0.93764 0.90097 0.44985 0.0
C382 C 0.8922 0.92142 0.44663 0.0
C383 C 0.90958 0.94677 0.4637 0.0
H384 H 0.9241 0.88137 0.4366 0.0
H385 H 0.0654 0.12727 0.60757 0.0
H386 H 0.31534 0.51735 0.86611 0.0
H387 H 0.35707 0.51782 0.9366 0.0
H388 H 0.54182 0.49527 0.92461 0.0
H389 H 0.49864 0.49276 0.8543 0.0
H390 H 0.531 0.47087 0.9823 0.0
H391 H 0.49286 0.56421 0.94758 0.0
H392 H 0.43186 0.60435 0.91733 0.0
H393 H 0.30114 0.59271 0.98688 0.0
H394 H 0.36091 0.55229 1.01719 0.0
H395 H 0.68631 0.52936 0.17442 0.0
H396 H 0.64373 0.52843 0.10361 0.0
H397 H 0.47239 0.49108 0.11652 0.0
H398 H 0.51512 0.49114 0.18713 0.0
H399 H 0.48023 0.54676 0.06018 0.0
H400 H 0.52456 0.44881 0.08958 0.0
H401 H 0.59778 0.41224 0.12053 0.0
H402 H 0.73294 0.43876 0.06027 0.0
H403 H 0.66079 0.47577 0.02946 0.0
C404 C 0.36482 0.51243 0.8786 0.0
C405 C 0.4037 0.50508 0.85461 0.0
C406 C 0.389 0.51296 0.91904 0.0
C407 C 0.45342 0.50729 0.93651 0.0
C408 C 0.49207 0.49977 0.91235 0.0
C409 C 0.46738 0.49839 0.872 0.0
C410 C 0.48034 0.50882 0.97976 0.0
C411 C 0.52001 0.48771 0.99894 0.0
C412 C 0.46687 0.53067 1.00236 0.0
C413 C 0.43104 0.55507 0.98439 0.0
C414 C 0.4509 0.57012 0.95625 0.0
C415 C 0.41656 0.59293 0.93912 0.0
C416 C 0.36257 0.60103 0.95011 0.0
C417 C 0.34292 0.58639 0.97836 0.0
C418 C 0.37704 0.56354 0.99556 0.0
C419 C 0.63956 0.52094 0.16222 0.0
C420 C 0.6043 0.51022 0.18656 0.0
C421 C 0.61533 0.52042 0.12174 0.0
C422 C 0.55496 0.50963 0.10481 0.0
C423 C 0.51916 0.49942 0.12897 0.0
C424 C 0.54381 0.4994 0.16935 0.0
C425 C 0.52936 0.50879 0.06188 0.0
C426 C 0.49055 0.53006 0.04304 0.0
C427 C 0.54485 0.48757 0.03946 0.0
C428 C 0.58773 0.46521 0.05766 0.0
C429 C 0.57018 0.44701 0.08328 0.0
C430 C 0.6114 0.42616 0.10071 0.0
C431 C 0.67008 0.42323 0.09248 0.0
C432 C 0.68755 0.44108 0.06669 0.0
C433 C 0.64651 0.46198 0.04923 0.0
H434 H 0.70192 0.40708 0.106 0.0
H435 H 0.33604 0.61869 0.93679 0.0
H436 H 0.35466 0.01132 0.88051 0.0
H437 H 0.45038 0.02542 0.92902 0.0
H438 H 0.34528 0.08997 0.96523 0.0
H439 H 0.24908 0.07518 0.9173 0.0
H440 H 0.52893 0.06407 0.95654 0.0
H441 H 0.37869 0.0904 0.06399 0.0
H442 H 0.27375 0.07985 0.0739 0.0
H443 H 0.26618 1.00606 1.00899 0.0
H444 H 0.37145 0.01593 0.99927 0.0
H445 H 0.76249 0.08618 0.12776 0.0
H446 H 0.66377 0.09712 0.07896 0.0
H447 H 0.57556 0.02638 0.11357 0.0
H448 H 0.67327 0.01614 0.16285 0.0
H449 H 0.48826 0.06086 0.08659 0.0
H450 H 0.65962 0.02416 0.04353 0.0
H451 H 0.76793 0.02202 0.0352 0.0
H452 H 0.73674 0.097 0.97144 0.0
H453 H 0.62855 0.09984 0.98007 0.0
C454 C 0.35302 0.02951 0.89724 0.0
C455 C 0.29499 0.04249 0.89479 0.0
C456 C 0.40761 0.03739 0.9254 0.0
C457 C 0.4048 0.05833 0.95161 0.0
C458 C 0.34842 0.07339 0.94594 0.0
C459 C 0.29366 0.06524 0.91815 0.0
C460 C 0.45724 0.06158 0.98768 0.0
C461 C 0.5199 0.06382 0.98494 0.0
C462 C 0.44605 0.06015 0.02497 0.0
C463 C 0.3825 0.05415 0.03043 0.0
C464 C 0.35462 0.07193 0.05187 0.0
C465 C 0.29518 0.06602 0.05754 0.0
C466 C 0.26342 0.04231 0.04209 0.0
C467 C 0.29089 0.02443 1.02092 0.0
C468 C 0.35039 0.03019 1.01529 0.0
C469 C 0.72074 0.07397 0.12634 0.0
C470 C 0.72487 0.05068 0.14956 0.0
C471 C 0.66466 0.07992 0.09802 0.0
C472 C 0.61267 0.06212 0.09169 0.0
C473 C 0.61485 0.04045 0.11767 0.0
C474 C 0.67054 0.03479 0.14636 0.0
C475 C 0.55992 0.06365 0.05549 0.0
C476 C 0.49719 0.06205 0.0582 0.0
C477 C 0.57137 0.06405 1.01821 0.0
C478 C 0.63632 0.06241 1.0129 0.0
C479 C 0.67605 0.04031 0.028 0.0
C480 C 0.73739 0.03895 0.02321 0.0
C481 C 0.75926 0.0594 1.00289 0.0
C482 C 0.71978 0.08122 0.98727 0.0
C483 C 0.65847 0.08273 0.99214 0.0
H484 H 0.80674 0.0583 0.99915 0.0
H485 H 0.21751 0.03777 0.04649 0.0
H486 H 0.17298 0.52239 0.66954 0.0
H487 H 0.07385 0.53519 0.62352 0.0
H488 H 0.17813 0.58328 0.56035 0.0
H489 H 0.27618 0.57339 0.60963 0.0
H490 H 0.06565 0.60223 0.54333 0.0
H491 H 0.15166 0.51243 0.54551 0.0
H492 H 0.19215 0.46864 0.57561 0.0
H493 H 0.01078 0.45169 0.59572 0.0
H494 H 0.96973 0.49562 0.56604 0.0
H495 H 0.83993 0.51609 0.37449 0.0
H496 H 0.94178 0.52623 0.42003 0.0
H497 H 0.85216 0.58795 0.47295 0.0
H498 H 0.75104 0.57869 0.42592 0.0
H499 H 0.96011 0.51559 0.49288 0.0
H500 H 0.96059 0.63157 0.52583 0.0
H501 H 0.92989 0.67428 0.48952 0.0
H502 H 0.95493 0.63665 0.38637 0.0
H503 H 0.98694 0.59389 0.4222 0.0
C504 C 0.17414 0.53785 0.64831 0.0
C505 C 0.23219 0.54777 0.64432 0.0
C506 C 0.1175 0.54435 0.62082 0.0
C507 C 0.11851 0.55942 0.5875 0.0
C508 C 0.1757 0.57152 0.58554 0.0
C509 C 0.2319 0.56591 0.61387 0.0
C510 C 0.06338 0.55897 0.55241 0.0
C511 C 0.04231 0.58332 0.53246 0.0
C512 C 0.03421 0.53419 0.53705 0.0
C513 C 0.05794 0.50739 0.55385 0.0
C514 C 0.12059 0.49935 0.55636 0.0
C515 C 0.14362 0.47454 0.5734 0.0
C516 C 0.10409 0.4574 0.58767 0.0
C517 C 0.04138 0.465 0.58471 0.0
C518 C 0.0182 0.48986 0.56774 0.0
C519 C 0.843 0.53318 0.39386 0.0
C520 C 0.78812 0.54725 0.3958 0.0
C521 C 0.90098 0.53851 0.42069 0.0
C522 C 0.90483 0.55775 0.45025 0.0
C523 C 0.8509 0.57327 0.45025 0.0
C524 C 0.79309 0.56806 0.42323 0.0
C525 C 0.96187 0.55886 0.48396 0.0
C526 C 0.98313 0.53457 0.50377 0.0
C527 C 0.99267 0.58351 0.49809 0.0
C528 C 0.97549 0.60944 0.47666 0.0
C529 C 0.95996 0.63246 0.49548 0.0
C530 C 0.94228 0.65668 0.47496 0.0
C531 C 0.94022 0.65814 0.43563 0.0
C532 C 0.9563 0.63546 0.41679 0.0
C533 C 0.97417 0.61123 0.43719 0.0
H534 H 0.92628 0.67687 0.41976 0.0
H535 H 0.12201 0.43822 0.60097 0.0
H536 H 0.8296 0.96697 0.11637 0.0
H537 H 0.88529 0.95261 0.06866 0.0
H538 H 0.03942 1.0067 0.12057 0.0
H539 H 0.98193 0.02207 0.16652 0.0
H540 H 0.99548 0.01876 0.0488 0.0
H541 H 0.0601 0.93689 0.11721 0.0
H542 H 0.0479 0.89467 0.1516 0.0
H543 H 0.92335 0.86263 0.04756 0.0
H544 H 0.93395 0.90488 1.01263 0.0
H545 H 0.19606 0.95765 0.93172 0.0
H546 H 0.13879 0.94676 0.97993 0.0
H547 H 0.97998 0.99459 0.91614 0.0
H548 H 0.03879 1.00657 0.86915 0.0
H549 H 0.03081 0.92889 0.99542 0.0
H550 H 0.94893 0.04213 0.98034 0.0
H551 H 0.97753 0.08521 0.95393 0.0
H552 H 0.1655 0.05511 0.96397 0.0
H553 H 0.13876 0.0123 0.99178 0.0
C554 C 0.87685 0.97468 0.11866 0.0
C555 C 0.90265 0.99492 0.1458 0.0
C556 C 0.90857 0.96659 0.09129 0.0
C557 C 0.96664 0.97862 0.09083 0.0
C558 C 0.99474 0.99715 0.12019 0.0
C559 C 0.96251 1.00556 0.14702 0.0
C560 C 0.99256 0.97541 0.05658 0.0
C561 C 1.00314 0.99905 0.03725 0.0
C562 C 1.00341 0.94976 0.04164 0.0
C563 C 0.99738 0.92418 0.06236 0.0
C564 C 0.0297 0.92094 0.1017 0.0
C565 C 0.02314 0.89698 0.1213 0.0
C566 C 0.98475 0.876 0.1018 0.0
C567 C 0.95302 0.87891 0.06263 0.0
C568 C 0.95934 0.90286 0.0429 0.0
C569 C 0.14746 0.96449 0.92684 0.0
C570 C 0.12126 0.98251 0.89636 0.0
C571 C 0.11479 0.95833 0.95451 0.0
C572 C 0.05567 0.97034 0.95213 0.0
C573 C 0.02585 0.9853 0.91874 0.0
C574 C 0.05897 0.99175 0.89138 0.0
C575 C 0.03258 0.97225 0.9876 0.0
C576 C 0.0225 0.9485 1.00699 0.0
C577 C 0.02465 0.99788 1.00375 0.0
C578 C 0.04147 0.02381 0.98757 0.0
C579 C 0.99646 0.04476 0.9771 0.0
C580 C 0.01241 0.06917 0.962 0.0
C581 C 0.07316 0.07283 0.95706 0.0
C582 C 0.11836 0.05222 0.96766 0.0
C583 C 0.10288 0.02791 0.9832 0.0
H584 H 0.08527 0.09168 0.94513 0.0
H585 H 0.9797 0.85747 0.11703 0.0
H586 H 0.48469 0.50849 0.66063 0.0
H587 H 0.52738 0.49133 0.60863 0.0
H588 H 0.35963 0.44267 0.56627 0.0
H589 H 0.31802 0.45913 0.61929 0.0
H590 H 0.54757 0.44206 0.56772 0.0
H591 H 0.29829 0.46756 0.47508 0.0
H592 H 0.20547 0.49523 0.47789 0.0
H593 H 0.32653 0.55094 0.55575 0.0
H594 H 0.41993 0.52355 0.55348 0.0
H595 H 0.6225 0.45624 0.38784 0.0
H596 H 0.55842 0.43803 0.4294 0.0
H597 H 0.50085 0.51967 0.44861 0.0
H598 H 0.56162 0.53727 0.40616 0.0
H599 H 0.41171 0.48949 0.45317 0.0
H600 H 0.64281 0.48599 0.514 0.0
H601 H 0.75124 0.47036 0.5167 0.0
H602 H 0.68842 0.38742 0.50985 0.0
H603 H 0.57958 0.40266 0.50704 0.0
C604 C 0.45932 0.49252 0.64211 0.0
C605 C 0.39889 0.48458 0.64454 0.0
C606 C 0.48338 0.48292 0.61202 0.0
C607 C 0.44639 0.46591 0.58334 0.0
C608 C 0.38903 0.45569 0.58815 0.0
C609 C 0.36557 0.46491 0.61867 0.0
C610 C 0.46088 0.46408 0.54512 0.0
C611 C 0.51759 0.45201 0.54243 0.0
C612 C 0.42199 0.47734 0.51223 0.0
C613 C 0.36576 0.49335 0.51447 0.0
C614 C 0.30493 0.48566 0.49288 0.0
C615 C 0.25227 0.50135 0.49431 0.0
C616 C 0.26013 0.52494 0.5168 0.0
C617 C 0.32052 0.53269 0.53835 0.0
C618 C 0.37325 0.51703 0.53713 0.0
C619 C 0.59375 0.46996 0.39971 0.0
C620 C 0.59649 0.49808 0.39389 0.0
C621 C 0.55793 0.45967 0.4239 0.0
C622 C 0.52596 0.4775 0.44317 0.0
C623 C 0.52482 0.50534 0.43437 0.0
C624 C 0.55972 0.51547 0.41008 0.0
C625 C 0.50037 0.46855 0.47598 0.0
C626 C 0.44099 0.47851 0.47777 0.0
C627 C 0.53852 0.45464 0.50864 0.0
C628 C 0.60337 0.44542 0.51008 0.0
C629 C 0.65226 0.46444 0.51295 0.0
C630 C 0.71369 0.45566 0.51453 0.0
C631 C 0.72668 0.42791 0.51338 0.0
C632 C 0.67825 0.40889 0.51067 0.0
C633 C 0.61672 0.41757 0.5091 0.0
H634 H 0.77428 0.42115 0.51464 0.0
H635 H 0.2196 0.53735 0.51744 0.0
H636 H 0.14671 0.16693 0.76359 0.0
H637 H 0.18726 0.21023 0.74822 0.0
H638 H 0.37853 0.17962 0.78564 0.0
H639 H 0.3379 0.1357 0.80186 0.0
H640 H 0.36399 0.23194 0.81481 0.0
H641 H 0.31927 0.18931 0.692 0.0
H642 H 0.25737 0.1619 0.63746 0.0
H643 H 0.10743 0.2209 0.61586 0.0
H644 H 0.1679 0.24848 0.67065 0.0
H645 H 0.41132 0.36823 0.74315 0.0
H646 H 0.42197 0.31901 0.75321 0.0
H647 H 0.21876 0.31138 0.7263 0.0
H648 H 0.20714 0.35985 0.71702 0.0
H649 H 0.27237 0.27444 0.6864 0.0
H650 H 0.30688 0.30964 0.81835 0.0
H651 H 0.36542 0.33636 0.87472 0.0
H652 H 0.53462 0.29087 0.8786 0.0
H653 H 0.47715 0.26411 0.82189 0.0
C654 C 0.19749 0.1692 0.76848 0.0
C655 C 0.23893 0.14769 0.78381 0.0
C656 C 0.22061 0.19401 0.75943 0.0
C657 C 0.2859 0.19813 0.76531 0.0
C658 C 0.3279 0.17681 0.78062 0.0
C659 C 0.30457 0.15166 0.78953 0.0
C660 C 0.30855 0.22522 0.75617 0.0
C661 C 0.3456 0.24103 0.78642 0.0
C662 C 0.28439 0.23716 0.71918 0.0
C663 C 0.24821 0.22097 0.68556 0.0
C664 C 0.27299 0.19641 0.67573 0.0
C665 C 0.23813 0.18083 0.64476 0.0
C666 C 0.17849 0.18964 0.62323 0.0
C667 C 0.15367 0.21411 0.63254 0.0
C668 C 0.1883 0.22976 0.66351 0.0
C669 C 0.36877 0.35629 0.73976 0.0
C670 C 0.30819 0.36853 0.72917 0.0
C671 C 0.37509 0.328 0.74536 0.0
C672 C 0.3211 0.31147 0.74025 0.0
C673 C 0.26112 0.32362 0.72999 0.0
C674 C 0.25473 0.3516 0.72471 0.0
C675 C 0.32506 0.28146 0.74548 0.0
C676 C 0.29282 0.2651 0.7144 0.0
C677 C 0.35368 0.26909 0.78161 0.0
C678 C 0.38803 0.28517 0.8156 0.0
C679 C 0.35672 0.30552 0.83101 0.0
C680 C 0.38966 0.32063 0.86306 0.0
C681 C 0.45377 0.31539 0.88014 0.0
C682 C 0.48501 0.29496 0.86527 0.0
C683 C 0.45229 0.27982 0.83319 0.0
H684 H 0.47918 0.3271 0.90496 0.0
H685 H 0.15152 0.17751 0.59932 0.0
H686 H 0.60833 0.37683 0.25867 0.0
H687 H 0.59966 0.32792 0.24362 0.0
H688 H 0.74759 0.31122 0.34734 0.0
H689 H 0.75573 0.35933 0.36292 0.0
H690 H 0.77018 0.29322 0.27474 0.0
H691 H 0.61008 0.29237 0.34718 0.0
H692 H 0.50809 0.30604 0.35868 0.0
H693 H 0.40878 0.27454 0.24738 0.0
H694 H 0.51039 0.26104 0.23499 0.0
H695 H 0.8326 0.16 0.31842 0.0
H696 H 0.79087 0.2054 0.32345 0.0
H697 H 0.64004 0.19122 0.22021 0.0
H698 H 0.68138 0.14502 0.2156 0.0
H699 H 0.60368 0.22534 0.27755 0.0
H700 H 0.7606 0.22193 0.20708 0.0
H701 H 0.86157 0.20797 0.19445 0.0
H702 H 0.96497 0.24862 0.29793 0.0
H703 H 0.86457 0.26244 0.31156 0.0
C704 C 0.63762 0.36265 0.27883 0.0
C705 C 0.68315 0.3721 0.31188 0.0
C706 C 0.6328 0.33473 0.27008 0.0
C707 C 0.67341 0.316 0.29424 0.0
C708 C 0.71611 0.32531 0.32818 0.0
C709 C 0.72073 0.35291 0.33697 0.0
C710 C 0.67723 0.28711 0.28306 0.0
C711 C 0.7337 0.2784 0.27531 0.0
C712 C 0.62874 0.26795 0.28242 0.0
C713 C 0.56785 0.27605 0.28994 0.0
C714 C 0.56656 0.28864 0.32498 0.0
C715 C 0.50881 0.29628 0.3317 0.0
C716 C 0.452 0.29126 0.30371 0.0
C717 C 0.45283 0.27848 0.26899 0.0
C718 C 0.51047 0.27082 0.26211 0.0
C719 C 0.78945 0.16624 0.29742 0.0
C720 C 0.76029 0.14909 0.26659 0.0
C721 C 0.7657 0.19222 0.30025 0.0
C722 C 0.71304 0.20192 0.27181 0.0
C723 C 0.68078 0.18415 0.24245 0.0
C724 C 0.70429 0.15779 0.23987 0.0
C725 C 0.69779 0.23143 0.27087 0.0
C726 C 0.63951 0.24026 0.27615 0.0
C727 C 0.74435 0.25096 0.26882 0.0
C728 C 0.80499 0.2431 0.26044 0.0
C729 C 0.80485 0.22776 0.22727 0.0
C730 C 0.862 0.21988 0.21993 0.0
C731 C 0.91965 0.22737 0.2454 0.0
C732 C 0.92027 0.24283 0.27822 0.0
C733 C 0.86324 0.25072 0.28575 0.0
H734 H 0.96384 0.22124 0.23967 0.0
H735 H 0.40733 0.29718 0.30898 0.0
H736 H 0.85662 0.87739 0.28713 0.0
H737 H 0.86421 0.82902 0.30432 0.0
H738 H 0.82154 0.80807 0.18304 0.0
H739 H 0.81109 0.8562 0.16598 0.0
H740 H 0.74915 0.78078 0.21272 0.0
H741 H 0.97247 0.79664 0.2518 0.0
H742 H 0.07169 0.81943 0.28616 0.0
H743 H 0.03653 0.79953 0.39553 0.0
H744 H 0.93662 0.77692 0.36181 0.0
H745 H 0.77529 0.63941 0.24353 0.0
H746 H 0.81384 0.68413 0.22937 0.0
H747 H 0.80776 0.71251 0.34229 0.0
H748 H 0.7684 0.6681 0.35626 0.0
H749 H 0.91257 0.73424 0.31563 0.0
H750 H 0.68412 0.72287 0.27435 0.0
H751 H 0.58599 0.69956 0.23933 0.0
H752 H 0.63504 0.71106 0.13179 0.0
H753 H 0.73406 0.73407 0.16634 0.0
C754 C 0.85047 0.86241 0.26429 0.0
C755 C 0.83334 0.8705 0.22523 0.0
C756 C 0.8549 0.83471 0.2741 0.0
C757 C 0.84367 0.81465 0.24501 0.0
C758 C 0.83001 0.82297 0.20609 0.0
C759 C 0.82433 0.85051 0.19633 0.0
C760 C 0.83988 0.7852 0.25454 0.0
C761 C 0.78584 0.77061 0.23466 0.0
C762 C 0.88663 0.77177 0.28384 0.0
C763 C 0.94674 0.78529 0.30425 0.0
C764 C 0.98564 0.7973 0.28317 0.0
C765 C 0.04206 0.81016 0.30254 0.0
C766 C 0.06033 0.81099 0.343 0.0
C767 C 0.02229 0.7989 0.36419 0.0
C768 C 0.96579 0.78603 0.34496 0.0
C769 C 0.78429 0.65491 0.26577 0.0
C770 C 0.76876 0.65036 0.30094 0.0
C771 C 0.806 0.68047 0.25761 0.0
C772 C 0.81316 0.70172 0.28468 0.0
C773 C 0.80272 0.69644 0.32103 0.0
C774 C 0.78005 0.67109 0.32892 0.0
C775 C 0.82263 0.73019 0.27338 0.0
C776 C 0.87696 0.74454 0.2932 0.0
C777 C 0.77654 0.74347 0.24378 0.0
C778 C 0.7168 0.72987 0.22297 0.0
C779 C 0.67423 0.72021 0.24328 0.0
C780 C 0.61842 0.70709 0.22352 0.0
C781 C 0.60438 0.70375 0.18337 0.0
C782 C 0.64605 0.7136 0.1629 0.0
C783 C 0.70201 0.72669 0.18255 0.0
H784 H 0.56114 0.6936 0.16812 0.0
H785 H 0.10402 0.82095 0.35794 0.0
H786 H 0.17198 0.63886 0.72069 0.0
H787 H 0.1239 0.68256 0.73124 0.0
H788 H 0.29239 0.70246 0.82088 0.0
H789 H 0.34048 0.65943 0.81001 0.0
H790 H 0.17869 0.7176 0.83927 0.0
H791 H 0.27985 0.72393 0.73228 0.0
H792 H 0.29128 0.71069 0.66798 0.0
H793 H 0.09697 0.73218 0.61625 0.0
H794 H 0.08424 0.74521 0.68042 0.0
H795 H 0.26554 0.85272 0.86087 0.0
H796 H 0.24825 0.8044 0.84981 0.0
H797 H 0.0849 0.82107 0.75461 0.0
H798 H 0.10321 0.87005 0.76491 0.0
H799 H 0.15943 0.78503 0.73356 0.0
H800 H 0.06761 0.79023 0.83857 0.0
H801 H 0.0561 0.80385 0.90264 0.0
H802 H 0.22663 0.7607 0.9581 0.0
H803 H 0.23979 0.74714 0.89438 0.0
C804 C 0.19786 0.65235 0.74324 0.0
C805 C 0.25985 0.64586 0.7646 0.0
C806 C 0.17059 0.6773 0.74911 0.0
C807 C 0.20471 0.6958 0.77678 0.0
C808 C 0.26509 0.6885 0.79952 0.0
C809 C 0.2926 0.66395 0.79321 0.0
C810 C 0.18131 0.7238 0.78021 0.0
C811 C 0.17402 0.73238 0.81616 0.0
C812 C 0.17302 0.74285 0.74961 0.0
C813 C 0.18086 0.73518 0.71113 0.0
C814 C 0.23944 0.72561 0.70722 0.0
C815 C 0.24619 0.71818 0.67082 0.0
C816 C 0.19482 0.7205 0.63807 0.0
C817 C 0.13666 0.73033 0.64166 0.0
C818 C 0.12966 0.73773 0.67802 0.0
C819 C 0.22528 0.84624 0.83786 0.0
C820 C 0.18574 0.86539 0.81387 0.0
C821 C 0.21506 0.81846 0.83178 0.0
C822 C 0.16466 0.80892 0.80172 0.0
C823 C 0.1238 0.82792 0.77821 0.0
C824 C 0.13401 0.85593 0.78436 0.0
C825 C 0.15934 0.77922 0.79329 0.0
C826 C 0.16159 0.77026 0.75641 0.0
C827 C 0.16247 0.75978 0.82302 0.0
C828 C 0.15474 0.76771 0.86159 0.0
C829 C 0.10288 0.78376 0.86441 0.0
C830 C 0.09604 0.79146 0.90068 0.0
C831 C 0.14062 0.78315 0.93442 0.0
C832 C 0.19209 0.76709 0.93194 0.0
C833 C 0.19919 0.75934 0.89574 0.0
H834 H 0.13525 0.78915 0.96247 0.0
H835 H 0.20012 0.71475 0.6099 0.0
loop_
_geom_bond_atom_site_label_1
_geom_bond_atom_site_label_2
_geom_bond_distance
_geom_bond_site_symmetry_2
_ccdc_geom_bond_type
Zn0 N4 2.020 . S
Zn0 O8 2.019 . S
Zn0 N10 2.119 . S
Zn0 O18 1.975 . S
C1 N2 1.334 . S
C1 N5 1.336 . S
N2 C1 1.334 . S
N2 C3 1.334 1_565 S
C3 N2 1.334 1_545 S
C3 N4 1.336 . S
N4 Zn0 2.020 . S
N4 C3 1.336 . S
N4 N5 1.354 1_545 S
N5 C1 1.336 . S
N5 N4 1.354 1_565 S
N5 Zn9 2.020 . S
C6 O7 1.244 1_665 S
C6 O30 1.257 1_655 S
O7 C6 1.244 1_445 S
O8 Zn0 2.019 . S
O8 C28 1.257 . S
Zn9 N5 2.020 . S
Zn9 O16 1.975 . S
Zn9 N25 2.119 . S
Zn9 O30 2.019 . S
N10 Zn0 2.119 . S
N10 C12 1.334 . S
N10 C13 1.328 . S
C11 C12 1.391 . S
C11 N14 1.329 . S
C11 H32 0.930 . S
C12 N10 1.334 . S
C12 C11 1.391 . S
C12 H19 0.930 . S
C13 N10 1.328 . S
C13 C15 1.392 . S
C13 H20 0.930 . S
N14 C11 1.329 . S
N14 C15 1.331 . S
C15 C13 1.392 . S
C15 N14 1.331 . S
O16 Zn9 1.975 . S
O16 C17 1.250 1_565 S
C17 O16 1.250 1_545 S
C17 O18 1.254 . S
O18 Zn0 1.975 . S
O18 C17 1.254 . S
H19 C12 0.930 . S
H20 C13 0.930 . S
C21 C22 1.392 . S
C21 N25 1.328 . S
C21 H27 0.930 . S
C22 C21 1.392 . S
C22 N26 1.331 . S
C23 C24 1.391 . S
C23 N26 1.329 . S
C23 H33 0.930 . S
C24 C23 1.391 . S
C24 N25 1.334 . S
C24 H31 0.930 . S
N25 Zn9 2.119 . S
N25 C21 1.328 . S
N25 C24 1.334 . S
N26 C22 1.331 . S
N26 C23 1.329 . S
H27 C21 0.930 . S
C28 O8 1.257 . S
C28 O29 1.244 1_545 S
O29 C28 1.244 1_565 S
O30 C6 1.257 1_455 S
O30 Zn9 2.019 . S
H31 C24 0.930 . S
H32 C11 0.930 . S
H33 C23 0.930 . S
Zn34 N38 2.020 . S
Zn34 O42 2.019 . S
Zn34 N44 2.119 . S
Zn34 O52 1.975 . S
C35 N36 1.334 . S
C35 N39 1.336 . S
N36 C35 1.334 . S
N36 C37 1.334 1_565 S
C37 N36 1.334 1_545 S
C37 N38 1.336 . S
N38 Zn34 2.020 . S
N38 C37 1.336 . S
N38 N39 1.354 1_545 S
N39 C35 1.336 . S
N39 N38 1.354 1_565 S
N39 Zn43 2.020 . S
C40 O41 1.244 1_465 S
C40 O64 1.257 1_455 S
O41 C40 1.244 1_645 S
O42 Zn34 2.019 . S
O42 C62 1.257 . S
Zn43 N39 2.020 . S
Zn43 O50 1.975 . S
Zn43 N59 2.119 . S
Zn43 O64 2.019 . S
N44 Zn34 2.119 . S
N44 C46 1.334 . S
N44 C47 1.328 . S
C45 C46 1.391 . S
C45 N48 1.329 . S
C45 H66 0.930 . S
C46 N44 1.334 . S
C46 C45 1.391 . S
C46 H53 0.930 . S
C47 N44 1.328 . S
C47 C49 1.392 . S
C47 H54 0.930 . S
N48 C45 1.329 . S
N48 C49 1.331 . S
C49 C47 1.392 . S
C49 N48 1.331 . S
O50 Zn43 1.975 . S
O50 C51 1.250 1_565 S
C51 O50 1.250 1_545 S
C51 O52 1.254 . S
O52 Zn34 1.975 . S
O52 C51 1.254 . S
H53 C46 0.930 . S
H54 C47 0.930 . S
C55 C56 1.392 . S
C55 N59 1.328 . S
C55 H61 0.930 . S
C56 C55 1.392 . S
C56 N60 1.331 . S
C57 C58 1.391 . S
C57 N60 1.329 . S
C57 H67 0.930 . S
C58 C57 1.391 . S
C58 N59 1.334 . S
C58 H65 0.930 . S
N59 Zn43 2.119 . S
N59 C55 1.328 . S
N59 C58 1.334 . S
N60 C56 1.331 . S
N60 C57 1.329 . S
H61 C55 0.930 . S
C62 O42 1.257 . S
C62 O63 1.244 1_545 S
O63 C62 1.244 1_565 S
O64 C40 1.257 1_655 S
O64 Zn43 2.019 . S
H65 C58 0.930 . S
H66 C45 0.930 . S
H67 C57 0.930 . S
Zn68 N72 2.020 . S
Zn68 O76 2.019 . S
Zn68 N78 2.119 . S
Zn68 O86 1.975 . S
C69 N70 1.334 . S
C69 N73 1.336 . S
N70 C69 1.334 . S
N70 C71 1.334 . S
C71 N70 1.334 . S
C71 N72 1.336 . S
N72 Zn68 2.020 . S
N72 C71 1.336 . S
N72 N73 1.354 . S
N73 C69 1.336 . S
N73 N72 1.354 . S
N73 Zn77 2.020 . S
C74 O75 1.244 . S
C74 O98 1.257 . S
O75 C74 1.244 . S
O76 Zn68 2.019 . S
O76 C96 1.257 . S
Zn77 N73 2.020 . S
Zn77 O84 1.975 . S
Zn77 N93 2.119 . S
Zn77 O98 2.019 . S
N78 Zn68 2.119 . S
N78 C80 1.334 . S
N78 C81 1.328 . S
C79 C80 1.391 . S
C79 N82 1.329 . S
C79 H100 0.930 . S
C80 N78 1.334 . S
C80 C79 1.391 . S
C80 H87 0.930 . S
C81 N78 1.328 . S
C81 C83 1.392 . S
C81 H88 0.930 . S
N82 C79 1.329 . S
N82 C83 1.331 . S
C83 C81 1.392 . S
C83 N82 1.331 . S
O84 Zn77 1.975 . S
O84 C85 1.252 . S
C85 O84 1.252 . S
C85 O86 1.252 . S
O86 Zn68 1.975 . S
O86 C85 1.252 . S
H87 C80 0.930 . S
H88 C81 0.930 . S
C89 C90 1.392 . S
C89 N93 1.328 . S
C89 H95 0.930 . S
C90 C89 1.392 . S
C90 N94 1.331 . S
C91 C92 1.391 . S
C91 N94 1.329 . S
C91 H101 0.930 . S
C92 C91 1.391 . S
C92 N93 1.334 . S
C92 H99 0.930 . S
N93 Zn77 2.119 . S
N93 C89 1.328 . S
N93 C92 1.334 . S
N94 C90 1.331 . S
N94 C91 1.329 . S
H95 C89 0.930 . S
C96 O76 1.257 . S
C96 O97 1.244 . S
O97 C96 1.244 . S
O98 C74 1.257 . S
O98 Zn77 2.019 . S
H99 C92 0.930 . S
H100 C79 0.930 . S
H101 C91 0.930 . S
Zn102 N106 2.020 . S
Zn102 O110 2.019 . S
Zn102 N112 2.119 . S
Zn102 O120 1.975 . S
C103 N104 1.334 . S
C103 N107 1.336 . S
N104 C103 1.334 . S
N104 C105 1.334 . S
C105 N104 1.334 . S
C105 N106 1.336 . S
N106 Zn102 2.020 . S
N106 C105 1.336 . S
N106 N107 1.354 . S
N107 C103 1.336 . S
N107 N106 1.354 . S
N107 Zn111 2.020 . S
C108 O109 1.244 . S
C108 O132 1.257 . S
O109 C108 1.244 . S
O110 Zn102 2.019 . S
O110 C130 1.257 . S
Zn111 N107 2.020 . S
Zn111 O118 1.975 . S
Zn111 N127 2.119 . S
Zn111 O132 2.019 . S
N112 Zn102 2.119 . S
N112 C114 1.334 . S
N112 C115 1.328 . S
C113 C114 1.391 . S
C113 N116 1.329 . S
C113 H134 0.930 . S
C114 N112 1.334 . S
C114 C113 1.391 . S
C114 H121 0.930 . S
C115 N112 1.328 . S
C115 C117 1.392 . S
C115 H122 0.930 . S
N116 C113 1.329 . S
N116 C117 1.331 . S
C117 C115 1.392 . S
C117 N116 1.331 . S
O118 Zn111 1.975 . S
O118 C119 1.252 . S
C119 O118 1.252 . S
C119 O120 1.252 . S
O120 Zn102 1.975 . S
O120 C119 1.252 . S
H121 C114 0.930 . S
H122 C115 0.930 . S
C123 C124 1.392 . S
C123 N127 1.328 . S
C123 H129 0.930 . S
C124 C123 1.392 . S
C124 N128 1.331 . S
C125 C126 1.391 . S
C125 N128 1.329 . S
C125 H135 0.930 . S
C126 C125 1.391 . S
C126 N127 1.334 . S
C126 H133 0.930 . S
N127 Zn111 2.119 . S
N127 C123 1.328 . S
N127 C126 1.334 . S
N128 C124 1.331 . S
N128 C125 1.329 . S
H129 C123 0.930 . S
C130 O110 1.257 . S
C130 O131 1.244 . S
O131 C130 1.244 . S
O132 C108 1.257 . S
O132 Zn111 2.019 . S
H133 C126 0.930 . S
H134 C113 0.930 . S
H135 C125 0.930 . S
H136 C154 0.951 . S
H137 C156 0.941 1_545 S
H138 C158 0.950 . S
H139 C159 0.950 . S
H140 C161 0.950 . S
H141 C164 0.950 . S
H142 C165 0.950 . S
H143 C167 0.950 . S
H144 C168 0.950 . S
H145 C169 0.951 . S
H146 C171 0.951 1_565 S
H147 C173 0.950 . S
H148 C174 0.950 . S
H149 C176 0.950 . S
H150 C179 0.950 . S
H151 C180 0.950 . S
H152 C182 0.950 . S
H153 C183 0.950 . S
C154 H136 0.951 . S
C154 C155 1.366 . S
C154 C156 1.393 . S
C155 C154 1.366 . S
C155 C159 1.385 . S
C156 H137 0.941 1_565 S
C156 C154 1.393 . S
C156 C157 1.371 . S
C157 C156 1.371 . S
C157 C158 1.414 . S
C157 C160 1.499 . S
C158 H138 0.950 . S
C158 C157 1.414 . S
C158 C159 1.374 . S
C159 H139 0.950 . S
C159 C155 1.385 . S
C159 C158 1.374 . S
C160 C157 1.499 . S
C160 C161 1.373 . S
C160 C162 1.389 1_565 S
C161 H140 0.950 . S
C161 C160 1.373 . S
C161 C177 1.377 . S
C162 C160 1.389 1_545 S
C162 C163 1.524 . S
C162 C176 1.377 . S
C163 C162 1.524 . S
C163 C164 1.397 . S
C163 C168 1.363 . S
C164 H141 0.950 . S
C164 C163 1.397 . S
C164 C165 1.334 . S
C165 H142 0.950 . S
C165 C164 1.334 . S
C165 C166 1.287 . S
C166 C165 1.287 . S
C166 C167 1.524 . S
C166 H185 0.913 . S
C167 H143 0.950 . S
C167 C166 1.524 . S
C167 C168 1.415 . S
C168 H144 0.950 . S
C168 C163 1.363 . S
C168 C167 1.415 . S
C169 H145 0.951 . S
C169 C170 1.366 . S
C169 C171 1.388 . S
C170 C169 1.366 . S
C170 C174 1.385 . S
C171 H146 0.951 1_545 S
C171 C169 1.388 . S
C171 C172 1.366 . S
C172 C171 1.366 . S
C172 C173 1.414 . S
C172 C175 1.499 . S
C173 H147 0.950 . S
C173 C172 1.414 . S
C173 C174 1.374 . S
C174 H148 0.950 . S
C174 C170 1.385 . S
C174 C173 1.374 . S
C175 C172 1.499 . S
C175 C176 1.373 . S
C175 C177 1.389 1_545 S
C176 H149 0.950 . S
C176 C162 1.377 . S
C176 C175 1.373 . S
C177 C161 1.377 . S
C177 C175 1.389 1_565 S
C177 C178 1.524 . S
C178 C177 1.524 . S
C178 C179 1.397 . S
C178 C183 1.363 . S
C179 H150 0.950 . S
C179 C178 1.397 . S
C179 C180 1.334 . S
C180 H151 0.950 . S
C180 C179 1.334 . S
C180 C181 1.287 . S
C181 C180 1.287 . S
C181 C182 1.524 . S
C181 H184 0.999 . S
C182 H152 0.950 . S
C182 C181 1.524 . S
C182 C183 1.415 . S
C183 H153 0.950 . S
C183 C178 1.363 . S
C183 C182 1.415 . S
H184 C181 0.999 . S
H185 C166 0.913 . S
H186 C204 0.951 . S
H187 C206 0.951 1_565 S
H188 C208 0.950 . S
H189 C209 0.950 . S
H190 C211 0.950 . S
H191 C214 0.950 . S
H192 C215 0.950 . S
H193 C217 0.950 . S
H194 C218 0.950 . S
H195 C219 0.951 . S
H196 C221 0.951 1_545 S
H197 C223 0.950 . S
H198 C224 0.950 . S
H199 C226 0.950 . S
H200 C229 0.950 . S
H201 C230 0.950 . S
H202 C232 0.950 . S
H203 C233 0.950 . S
C204 H186 0.951 . S
C204 C205 1.366 . S
C204 C206 1.388 . S
C205 C204 1.366 . S
C205 C209 1.385 . S
C206 H187 0.951 1_545 S
C206 C204 1.388 . S
C206 C207 1.366 . S
C207 C206 1.366 . S
C207 C208 1.414 . S
C207 C210 1.499 . S
C208 H188 0.950 . S
C208 C207 1.414 . S
C208 C209 1.374 . S
C209 H189 0.950 . S
C209 C205 1.385 . S
C209 C208 1.374 . S
C210 C207 1.499 . S
C210 C211 1.373 . S
C210 C212 1.389 1_545 S
C211 H190 0.950 . S
C211 C210 1.373 . S
C211 C227 1.377 . S
C212 C210 1.389 1_565 S
C212 C213 1.524 . S
C212 C226 1.377 . S
C213 C212 1.524 . S
C213 C214 1.397 . S
C213 C218 1.363 . S
C214 H191 0.950 . S
C214 C213 1.397 . S
C214 C215 1.334 . S
C215 H192 0.950 . S
C215 C214 1.334 . S
C215 C216 1.287 . S
C216 C215 1.287 . S
C216 C217 1.524 . S
C216 H235 0.913 . S
C217 H193 0.950 . S
C217 C216 1.524 . S
C217 C218 1.415 . S
C218 H194 0.950 . S
C218 C213 1.363 . S
C218 C217 1.415 . S
C219 H195 0.951 . S
C219 C220 1.366 . S
C219 C221 1.388 . S
C220 C219 1.366 . S
C220 C224 1.385 . S
C221 H196 0.951 1_565 S
C221 C219 1.388 . S
C221 C222 1.366 . S
C222 C221 1.366 . S
C222 C223 1.414 . S
C222 C225 1.499 . S
C223 H197 0.950 . S
C223 C222 1.414 . S
C223 C224 1.374 . S
C224 H198 0.950 . S
C224 C220 1.385 . S
C224 C223 1.374 . S
C225 C222 1.499 . S
C225 C226 1.373 . S
C225 C227 1.389 1_565 S
C226 H199 0.950 . S
C226 C212 1.377 . S
C226 C225 1.373 . S
C227 C211 1.377 . S
C227 C225 1.389 1_545 S
C227 C228 1.524 . S
C228 C227 1.524 . S
C228 C229 1.397 . S
C228 C233 1.363 . S
C229 H200 0.950 . S
C229 C228 1.397 . S
C229 C230 1.334 . S
C230 H201 0.950 . S
C230 C229 1.334 . S
C230 C231 1.287 . S
C231 C230 1.287 . S
C231 C232 1.524 . S
C231 H234 0.999 . S
C232 H202 0.950 . S
C232 C231 1.524 . S
C232 C233 1.415 . S
C233 H203 0.950 . S
C233 C228 1.363 . S
C233 C232 1.415 . S
H234 C231 0.999 . S
H235 C216 0.913 . S
H236 C254 0.951 . S
H237 C256 0.951 . S
H238 C258 0.950 . S
H239 C259 0.950 . S
H240 C261 0.950 . S
H241 C264 0.950 . S
H242 C265 0.950 . S
H243 C267 0.950 . S
H244 C268 0.950 . S
H245 C269 0.951 . S
H246 C271 0.951 . S
H247 C273 0.950 . S
H248 C274 0.950 . S
H249 C276 0.950 . S
H250 C279 0.950 . S
H251 C280 0.950 . S
H252 C282 0.950 . S
H253 C283 0.950 . S
C254 H236 0.951 . S
C254 C255 1.366 . S
C254 C256 1.388 . S
C255 C254 1.366 . S
C255 C259 1.385 . S
C256 H237 0.951 . S
C256 C254 1.388 . S
C256 C257 1.366 . S
C257 C256 1.366 . S
C257 C258 1.414 . S
C257 C260 1.499 . S
C258 H238 0.950 . S
C258 C257 1.414 . S
C258 C259 1.374 . S
C259 H239 0.950 . S
C259 C255 1.385 . S
C259 C258 1.374 . S
C260 C257 1.499 . S
C260 C261 1.373 . S
C260 C262 1.389 . S
C261 H240 0.950 . S
C261 C260 1.373 . S
C261 C277 1.377 . S
C262 C260 1.389 . S
C262 C263 1.524 . S
C262 C276 1.377 . S
C263 C262 1.524 . S
C263 C264 1.397 . S
C263 C268 1.363 . S
C264 H241 0.950 . S
C264 C263 1.397 . S
C264 C265 1.334 . S
C265 H242 0.950 . S
C265 C264 1.334 . S
C265 C266 1.287 . S
C266 C265 1.287 . S
C266 C267 1.524 . S
C266 H285 0.913 . S
C267 H243 0.950 . S
C267 C266 1.524 . S
C267 C268 1.415 . S
C268 H244 0.950 . S
C268 C263 1.363 . S
C268 C267 1.415 . S
C269 H245 0.951 . S
C269 C270 1.366 . S
C269 C271 1.388 1_655 S
C270 C269 1.366 . S
C270 C274 1.385 . S
C271 H246 0.951 . S
C271 C269 1.388 1_455 S
C271 C272 1.366 . S
C272 C271 1.366 . S
C272 C273 1.414 . S
C272 C275 1.499 . S
C273 H247 0.950 . S
C273 C272 1.414 . S
C273 C274 1.374 1_455 S
C274 H248 0.950 . S
C274 C270 1.385 . S
C274 C273 1.374 1_655 S
C275 C272 1.499 . S
C275 C276 1.373 . S
C275 C277 1.389 . S
C276 H249 0.950 . S
C276 C262 1.377 . S
C276 C275 1.373 . S
C277 C261 1.377 . S
C277 C275 1.389 . S
C277 C278 1.524 . S
C278 C277 1.524 . S
C278 C279 1.397 . S
C278 C283 1.363 . S
C279 H250 0.950 . S
C279 C278 1.397 . S
C279 C280 1.334 . S
C280 H251 0.950 . S
C280 C279 1.334 . S
C280 C281 1.287 . S
C281 C280 1.287 . S
C281 C282 1.524 . S
C281 H284 0.999 . S
C282 H252 0.950 . S
C282 C281 1.524 . S
C282 C283 1.415 . S
C283 H253 0.950 . S
C283 C278 1.363 . S
C283 C282 1.415 . S
H284 C281 0.999 . S
H285 C266 0.913 . S
H286 C304 0.951 . S
H287 C306 0.951 . S
H288 C308 0.950 . S
H289 C309 0.950 . S
H290 C311 0.950 . S
H291 C314 0.950 . S
H292 C315 0.950 . S
H293 C317 0.950 . S
H294 C318 0.950 . S
H295 C319 0.951 . S
H296 C321 0.957 . S
H297 C323 0.950 . S
H298 C324 0.950 . S
H299 C326 0.950 . S
H300 C329 0.950 . S
H301 C330 0.950 . S
H302 C332 0.950 . S
H303 C333 0.950 . S
C304 H286 0.951 . S
C304 C305 1.366 . S
C304 C306 1.388 . S
C305 C304 1.366 . S
C305 C309 1.385 . S
C306 H287 0.951 . S
C306 C304 1.388 . S
C306 C307 1.366 . S
C307 C306 1.366 . S
C307 C308 1.414 . S
C307 C310 1.499 . S
C308 H288 0.950 . S
C308 C307 1.414 . S
C308 C309 1.374 . S
C309 H289 0.950 . S
C309 C305 1.385 . S
C309 C308 1.374 . S
C310 C307 1.499 . S
C310 C311 1.373 . S
C310 C312 1.389 . S
C311 H290 0.950 . S
C311 C310 1.373 . S
C311 C327 1.377 . S
C312 C310 1.389 . S
C312 C313 1.524 . S
C312 C326 1.377 . S
C313 C312 1.524 . S
C313 C314 1.397 . S
C313 C318 1.363 . S
C314 H291 0.950 . S
C314 C313 1.397 . S
C314 C315 1.334 . S
C315 H292 0.950 . S
C315 C314 1.334 . S
C315 C316 1.287 . S
C316 C315 1.287 . S
C316 C317 1.524 . S
C316 H335 0.913 . S
C317 H293 0.950 . S
C317 C316 1.524 . S
C317 C318 1.415 . S
C318 H294 0.950 . S
C318 C313 1.363 . S
C318 C317 1.415 . S
C319 H295 0.951 . S
C319 C320 1.366 . S
C319 C321 1.375 1_455 S
C320 C319 1.366 . S
C320 C324 1.385 . S
C321 H296 0.957 . S
C321 C319 1.375 1_655 S
C321 C322 1.373 . S
C322 C321 1.373 . S
C322 C323 1.414 . S
C322 C325 1.499 . S
C323 H297 0.950 . S
C323 C322 1.414 . S
C323 C324 1.374 1_655 S
C324 H298 0.950 . S
C324 C320 1.385 . S
C324 C323 1.374 1_455 S
C325 C322 1.499 . S
C325 C326 1.373 . S
C325 C327 1.389 . S
C326 H299 0.950 . S
C326 C312 1.377 . S
C326 C325 1.373 . S
C327 C311 1.377 . S
C327 C325 1.389 . S
C327 C328 1.524 . S
C328 C327 1.524 . S
C328 C329 1.397 . S
C328 C333 1.363 . S
C329 H300 0.950 . S
C329 C328 1.397 . S
C329 C330 1.334 . S
C330 H301 0.950 . S
C330 C329 1.334 . S
C330 C331 1.287 . S
C331 C330 1.287 . S
C331 C332 1.524 . S
C331 H334 0.999 . S
C332 H302 0.950 . S
C332 C331 1.524 . S
C332 C333 1.415 . S
C333 H303 0.950 . S
C333 C328 1.363 . S
C333 C332 1.415 . S
H334 C331 0.999 . S
H335 C316 0.913 . S
H336 C354 0.951 . S
H337 C356 0.951 . S
H338 C358 0.950 1_655 S
H339 C359 0.950 . S
H340 C361 0.950 . S
H341 C364 0.950 . S
H342 C365 0.950 . S
H343 C367 0.950 . S
H344 C368 0.950 . S
H345 C369 0.951 . S
H346 C371 0.951 . S
H347 C373 0.950 1_455 S
H348 C374 0.950 . S
H349 C376 0.950 . S
H350 C379 0.950 . S
H351 C380 0.950 . S
H352 C382 0.950 . S
H353 C383 0.950 . S
C354 H336 0.951 . S
C354 C355 1.369 . S
C354 C356 1.388 . S
C355 C354 1.369 . S
C355 C359 1.381 1_545 S
C356 H337 0.951 . S
C356 C354 1.388 . S
C356 C357 1.366 . S
C357 C356 1.366 . S
C357 C358 1.414 1_545 S
C357 C360 1.499 . S
C358 H338 0.950 1_455 S
C358 C357 1.414 1_565 S
C358 C359 1.374 . S
C359 H339 0.950 . S
C359 C355 1.381 1_565 S
C359 C358 1.374 . S
C360 C357 1.499 . S
C360 C361 1.373 1_445 S
C360 C362 1.389 . S
C361 H340 0.950 . S
C361 C360 1.373 1_665 S
C361 C377 1.377 . S
C362 C360 1.389 . S
C362 C363 1.524 . S
C362 C376 1.377 . S
C363 C362 1.524 . S
C363 C364 1.397 . S
C363 C368 1.363 . S
C364 H341 0.950 . S
C364 C363 1.397 . S
C364 C365 1.334 . S
C365 H342 0.950 . S
C365 C364 1.334 . S
C365 C366 1.287 . S
C366 C365 1.287 . S
C366 C367 1.524 . S
C366 H385 0.913 . S
C367 H343 0.950 . S
C367 C366 1.524 . S
C367 C368 1.415 . S
C368 H344 0.950 . S
C368 C363 1.363 . S
C368 C367 1.415 . S
C369 H345 0.951 . S
C369 C370 1.362 1_565 S
C369 C371 1.388 . S
C370 C369 1.362 1_545 S
C370 C374 1.389 . S
C371 H346 0.951 . S
C371 C369 1.388 . S
C371 C372 1.373 . S
C372 C371 1.373 . S
C372 C373 1.406 1_565 S
C372 C375 1.499 . S
C373 H347 0.950 1_655 S
C373 C372 1.406 1_545 S
C373 C374 1.374 . S
C374 H348 0.950 . S
C374 C370 1.389 . S
C374 C373 1.374 . S
C375 C372 1.499 . S
C375 C376 1.345 1_665 S
C375 C377 1.416 . S
C376 H349 0.950 . S
C376 C362 1.377 . S
C376 C375 1.345 1_445 S
C377 C361 1.377 . S
C377 C375 1.416 . S
C377 C378 1.524 . S
C378 C377 1.524 . S
C378 C379 1.397 . S
C378 C383 1.363 . S
C379 H350 0.950 . S
C379 C378 1.397 . S
C379 C380 1.334 . S
C380 H351 0.950 . S
C380 C379 1.334 . S
C380 C381 1.287 . S
C381 C380 1.287 . S
C381 C382 1.524 . S
C381 H384 0.999 . S
C382 H352 0.950 . S
C382 C381 1.524 . S
C382 C383 1.415 . S
C383 H353 0.950 . S
C383 C378 1.363 . S
C383 C382 1.415 . S
H384 C381 0.999 . S
H385 C366 0.913 . S
H386 C404 0.951 . S
H387 C406 0.951 . S
H388 C408 0.950 . S
H389 C409 0.950 . S
H390 C411 0.950 . S
H391 C414 0.950 . S
H392 C415 0.950 . S
H393 C417 0.950 . S
H394 C418 0.950 1_554 S
H395 C419 0.951 . S
H396 C421 0.951 . S
H397 C423 0.950 . S
H398 C424 0.950 . S
H399 C426 0.950 . S
H400 C429 0.950 . S
H401 C430 0.950 . S
H402 C432 0.950 . S
H403 C433 0.950 1_556 S
C404 H386 0.951 . S
C404 C405 1.366 . S
C404 C406 1.388 . S
C405 C404 1.366 . S
C405 C409 1.385 . S
C406 H387 0.951 . S
C406 C404 1.388 . S
C406 C407 1.366 . S
C407 C406 1.366 . S
C407 C408 1.414 . S
C407 C410 1.499 . S
C408 H388 0.950 . S
C408 C407 1.414 . S
C408 C409 1.374 . S
C409 H389 0.950 . S
C409 C405 1.385 . S
C409 C408 1.374 . S
C410 C407 1.499 . S
C410 C411 1.373 . S
C410 C412 1.389 . S
C411 H390 0.950 . S
C411 C410 1.373 . S
C411 C427 1.377 1_556 S
C412 C410 1.389 . S
C412 C413 1.524 . S
C412 C426 1.377 1_556 S
C413 C412 1.524 . S
C413 C414 1.397 . S
C413 C418 1.363 . S
C414 H391 0.950 . S
C414 C413 1.397 . S
C414 C415 1.334 . S
C415 H392 0.950 . S
C415 C414 1.334 . S
C415 C416 1.287 . S
C416 C415 1.287 . S
C416 C417 1.524 . S
C416 H435 0.913 . S
C417 H393 0.950 . S
C417 C416 1.524 . S
C417 C418 1.415 . S
C418 H394 0.950 1_556 S
C418 C413 1.363 . S
C418 C417 1.415 . S
C419 H395 0.951 . S
C419 C420 1.366 . S
C419 C421 1.388 . S
C420 C419 1.366 . S
C420 C424 1.385 . S
C421 H396 0.951 . S
C421 C419 1.388 . S
C421 C422 1.366 . S
C422 C421 1.366 . S
C422 C423 1.414 . S
C422 C425 1.499 . S
C423 H397 0.950 . S
C423 C422 1.414 . S
C423 C424 1.374 . S
C424 H398 0.950 . S
C424 C420 1.385 . S
C424 C423 1.374 . S
C425 C422 1.499 . S
C425 C426 1.373 . S
C425 C427 1.389 . S
C426 H399 0.950 . S
C426 C412 1.377 1_554 S
C426 C425 1.373 . S
C427 C411 1.377 1_554 S
C427 C425 1.389 . S
C427 C428 1.524 . S
C428 C427 1.524 . S
C428 C429 1.397 . S
C428 C433 1.363 . S
C429 H400 0.950 . S
C429 C428 1.397 . S
C429 C430 1.334 . S
C430 H401 0.950 . S
C430 C429 1.334 . S
C430 C431 1.287 . S
C431 C430 1.287 . S
C431 C432 1.524 . S
C431 H434 0.999 . S
C432 H402 0.950 . S
C432 C431 1.524 . S
C432 C433 1.415 . S
C433 H403 0.950 1_554 S
C433 C428 1.363 . S
C433 C432 1.415 . S
H434 C431 0.999 . S
H435 C416 0.913 . S
H436 C454 0.951 . S
H437 C456 0.951 . S
H438 C458 0.950 . S
H439 C459 0.950 . S
H440 C461 0.950 . S
H441 C464 0.950 1_545 S
H442 C465 0.950 . S
H443 C467 0.950 . S
H444 C468 0.948 . S
H445 C469 0.951 . S
H446 C471 0.951 . S
H447 C473 0.950 . S
H448 C474 0.950 . S
H449 C476 0.950 . S
H450 C479 0.950 . S
H451 C480 0.950 . S
H452 C482 0.950 . S
H453 C483 0.949 . S
C454 H436 0.951 . S
C454 C455 1.366 1_565 S
C454 C456 1.388 . S
C455 C454 1.366 1_545 S
C455 C459 1.385 . S
C456 H437 0.951 . S
C456 C454 1.388 . S
C456 C457 1.366 1_565 S
C457 C456 1.366 1_545 S
C457 C458 1.414 . S
C457 C460 1.499 . S
C458 H438 0.950 . S
C458 C457 1.414 . S
C458 C459 1.374 . S
C459 H439 0.950 . S
C459 C455 1.385 . S
C459 C458 1.374 . S
C460 C457 1.499 . S
C460 C461 1.373 . S
C460 C462 1.389 1_545 S
C461 H440 0.950 . S
C461 C460 1.373 . S
C461 C477 1.377 1_556 S
C462 C460 1.389 1_565 S
C462 C463 1.524 . S
C462 C476 1.377 1_556 S
C463 C462 1.524 . S
C463 C464 1.397 . S
C463 C468 1.359 1_556 S
C464 H441 0.950 1_565 S
C464 C463 1.397 . S
C464 C465 1.334 . S
C465 H442 0.950 . S
C465 C464 1.334 . S
C465 C466 1.287 . S
C466 C465 1.287 . S
C466 C467 1.524 1_556 S
C466 H485 0.913 . S
C467 H443 0.950 . S
C467 C466 1.524 1_554 S
C467 C468 1.422 . S
C468 H444 0.948 . S
C468 C463 1.359 1_554 S
C468 C467 1.422 . S
C469 H445 0.951 . S
C469 C470 1.366 . S
C469 C471 1.388 . S
C470 C469 1.366 . S
C470 C474 1.385 1_545 S
C471 H446 0.951 . S
C471 C469 1.388 . S
C471 C472 1.366 . S
C472 C471 1.366 . S
C472 C473 1.414 1_545 S
C472 C475 1.499 . S
C473 H447 0.950 . S
C473 C472 1.414 1_565 S
C473 C474 1.374 . S
C474 H448 0.950 . S
C474 C470 1.385 1_565 S
C474 C473 1.374 . S
C475 C472 1.499 . S
C475 C476 1.373 1_545 S
C475 C477 1.389 . S
C476 H449 0.950 . S
C476 C462 1.377 1_554 S
C476 C475 1.373 1_565 S
C477 C461 1.377 1_554 S
C477 C475 1.389 . S
C477 C478 1.524 . S
C478 C477 1.524 . S
C478 C479 1.397 . S
C478 C483 1.359 1_554 S
C479 H450 0.950 . S
C479 C478 1.397 . S
C479 C480 1.334 . S
C480 H451 0.950 . S
C480 C479 1.334 . S
C480 C481 1.287 . S
C481 C480 1.287 . S
C481 C482 1.524 1_554 S
C481 H484 0.999 . S
C482 H452 0.950 . S
C482 C481 1.524 1_556 S
C482 C483 1.422 . S
C483 H453 0.949 . S
C483 C478 1.359 1_556 S
C483 C482 1.422 . S
H484 C481 0.999 . S
H485 C466 0.913 . S
H486 C504 0.951 . S
H487 C506 0.951 . S
H488 C508 0.950 . S
H489 C509 0.950 . S
H490 C511 0.950 . S
H491 C514 0.950 . S
H492 C515 0.950 . S
H493 C517 0.950 . S
H494 C518 0.950 . S
H495 C519 0.951 . S
H496 C521 0.951 . S
H497 C523 0.950 . S
H498 C524 0.950 . S
H499 C526 0.950 . S
H500 C529 0.950 . S
H501 C530 0.950 . S
H502 C532 0.950 . S
H503 C533 0.950 . S
C504 H486 0.951 . S
C504 C505 1.366 . S
C504 C506 1.388 . S
C505 C504 1.366 . S
C505 C509 1.385 . S
C506 H487 0.951 . S
C506 C504 1.388 . S
C506 C507 1.366 . S
C507 C506 1.366 . S
C507 C508 1.414 . S
C507 C510 1.499 . S
C508 H488 0.950 . S
C508 C507 1.414 . S
C508 C509 1.374 . S
C509 H489 0.950 . S
C509 C505 1.385 . S
C509 C508 1.374 . S
C510 C507 1.499 . S
C510 C511 1.373 . S
C510 C512 1.389 1_455 S
C511 H490 0.950 . S
C511 C510 1.373 . S
C511 C527 1.377 . S
C512 C510 1.389 1_655 S
C512 C513 1.524 . S
C512 C526 1.377 . S
C513 C512 1.524 . S
C513 C514 1.397 1_655 S
C513 C518 1.363 . S
C514 H491 0.950 . S
C514 C513 1.397 1_455 S
C514 C515 1.334 . S
C515 H492 0.950 . S
C515 C514 1.334 . S
C515 C516 1.287 1_455 S
C516 C515 1.287 1_655 S
C516 C517 1.524 . S
C516 H535 0.913 . S
C517 H493 0.950 . S
C517 C516 1.524 . S
C517 C518 1.415 . S
C518 H494 0.950 . S
C518 C513 1.363 . S
C518 C517 1.415 . S
C519 H495 0.951 . S
C519 C520 1.366 . S
C519 C521 1.388 . S
C520 C519 1.366 . S
C520 C524 1.385 . S
C521 H496 0.951 . S
C521 C519 1.388 . S
C521 C522 1.366 . S
C522 C521 1.366 . S
C522 C523 1.414 . S
C522 C525 1.499 . S
C523 H497 0.950 . S
C523 C522 1.414 . S
C523 C524 1.374 . S
C524 H498 0.950 . S
C524 C520 1.385 . S
C524 C523 1.374 . S
C525 C522 1.499 . S
C525 C526 1.373 . S
C525 C527 1.389 1_655 S
C526 H499 0.950 . S
C526 C512 1.377 . S
C526 C525 1.373 . S
C527 C511 1.377 . S
C527 C525 1.389 1_455 S
C527 C528 1.524 . S
C528 C527 1.524 . S
C528 C529 1.397 1_455 S
C528 C533 1.363 . S
C529 H500 0.950 . S
C529 C528 1.397 1_655 S
C529 C530 1.334 . S
C530 H501 0.950 . S
C530 C529 1.334 . S
C530 C531 1.287 1_655 S
C531 C530 1.287 1_455 S
C531 C532 1.524 . S
C531 H534 0.999 . S
C532 H502 0.950 . S
C532 C531 1.524 . S
C532 C533 1.415 . S
C533 H503 0.950 . S
C533 C528 1.363 . S
C533 C532 1.415 . S
H534 C531 0.999 . S
H535 C516 0.913 . S
H536 C554 0.951 1_545 S
H537 C556 0.942 1_545 S
H538 C558 0.950 1_455 S
H539 C559 0.950 . S
H540 C561 0.950 . S
H541 C564 0.950 . S
H542 C565 0.950 1_554 S
H543 C567 0.950 . S
H544 C568 0.950 . S
H545 C569 0.951 . S
H546 C571 0.951 . S
H547 C573 0.950 1_645 S
H548 C574 0.950 1_545 S
H549 C576 0.950 . S
H550 C579 0.950 . S
H551 C580 0.950 1_556 S
H552 C582 0.950 . S
H553 C583 0.950 . S
C554 H536 0.951 1_565 S
C554 C555 1.366 . S
C554 C556 1.388 . S
C555 C554 1.366 . S
C555 C559 1.385 . S
C556 H537 0.942 1_565 S
C556 C554 1.388 . S
C556 C557 1.366 . S
C557 C556 1.366 . S
C557 C558 1.414 . S
C557 C560 1.499 . S
C558 H538 0.950 1_655 S
C558 C557 1.414 . S
C558 C559 1.374 . S
C559 H539 0.950 . S
C559 C555 1.385 . S
C559 C558 1.374 . S
C560 C557 1.499 . S
C560 C561 1.373 1_655 S
C560 C562 1.389 1_554 S
C561 H540 0.950 . S
C561 C560 1.373 1_455 S
C561 C577 1.377 . S
C562 C560 1.389 1_556 S
C562 C563 1.524 . S
C562 C576 1.377 . S
C563 C562 1.524 . S
C563 C564 1.397 1_556 S
C563 C568 1.363 . S
C564 H541 0.950 . S
C564 C563 1.397 1_554 S
C564 C565 1.334 1_554 S
C565 H542 0.950 1_556 S
C565 C564 1.334 1_556 S
C565 C566 1.287 . S
C566 C565 1.287 . S
C566 C567 1.524 . S
C566 H585 0.913 . S
C567 H543 0.950 . S
C567 C566 1.524 . S
C567 C568 1.415 . S
C568 H544 0.950 . S
C568 C563 1.363 . S
C568 C567 1.415 . S
C569 H545 0.951 . S
C569 C570 1.366 . S
C569 C571 1.388 . S
C570 C569 1.366 . S
C570 C574 1.385 . S
C571 H546 0.951 . S
C571 C569 1.388 . S
C571 C572 1.366 . S
C572 C571 1.366 . S
C572 C573 1.414 . S
C572 C575 1.499 . S
C573 H547 0.950 1_465 S
C573 C572 1.414 . S
C573 C574 1.374 . S
C574 H548 0.950 1_565 S
C574 C570 1.385 . S
C574 C573 1.374 . S
C575 C572 1.499 . S
C575 C576 1.373 1_455 S
C575 C577 1.389 1_556 S
C576 H549 0.950 . S
C576 C562 1.377 . S
C576 C575 1.373 1_655 S
C577 C561 1.377 . S
C577 C575 1.389 1_554 S
C577 C578 1.524 1_565 S
C578 C577 1.524 1_545 S
C578 C579 1.397 1_554 S
C578 C583 1.363 1_545 S
C579 H550 0.950 . S
C579 C578 1.397 1_556 S
C579 C580 1.334 1_556 S
C580 H551 0.950 1_554 S
C580 C579 1.334 1_554 S
C580 C581 1.287 . S
C581 C580 1.287 . S
C581 C582 1.524 . S
C581 H584 0.999 . S
C582 H552 0.950 . S
C582 C581 1.524 . S
C582 C583 1.415 1_545 S
C583 H553 0.950 . S
C583 C578 1.363 1_565 S
C583 C582 1.415 1_565 S
H584 C581 0.999 . S
H585 C566 0.913 . S
H586 C604 0.951 . S
H587 C606 0.951 . S
H588 C608 0.950 . S
H589 C609 0.950 . S
H590 C611 0.950 . S
H591 C614 0.950 . S
H592 C615 0.950 . S
H593 C617 0.950 . S
H594 C618 0.950 . S
H595 C619 0.951 . S
H596 C621 0.951 . S
H597 C623 0.950 . S
H598 C624 0.950 . S
H599 C626 0.950 . S
H600 C629 0.950 . S
H601 C630 0.950 . S
H602 C632 0.950 . S
H603 C633 0.950 . S
C604 H586 0.951 . S
C604 C605 1.366 . S
C604 C606 1.388 . S
C605 C604 1.366 . S
C605 C609 1.385 . S
C606 H587 0.951 . S
C606 C604 1.388 . S
C606 C607 1.366 . S
C607 C606 1.366 . S
C607 C608 1.414 . S
C607 C610 1.499 . S
C608 H588 0.950 . S
C608 C607 1.414 . S
C608 C609 1.374 . S
C609 H589 0.950 . S
C609 C605 1.385 . S
C609 C608 1.374 . S
C610 C607 1.499 . S
C610 C611 1.373 . S
C610 C612 1.389 . S
C611 H590 0.950 . S
C611 C610 1.373 . S
C611 C627 1.377 . S
C612 C610 1.389 . S
C612 C613 1.524 . S
C612 C626 1.377 . S
C613 C612 1.524 . S
C613 C614 1.397 . S
C613 C618 1.363 . S
C614 H591 0.950 . S
C614 C613 1.397 . S
C614 C615 1.334 . S
C615 H592 0.950 . S
C615 C614 1.334 . S
C615 C616 1.287 . S
C616 C615 1.287 . S
C616 C617 1.524 . S
C616 H635 0.913 . S
C617 H593 0.950 . S
C617 C616 1.524 . S
C617 C618 1.415 . S
C618 H594 0.950 . S
C618 C613 1.363 . S
C618 C617 1.415 . S
C619 H595 0.951 . S
C619 C620 1.366 . S
C619 C621 1.388 . S
C620 C619 1.366 . S
C620 C624 1.385 . S
C621 H596 0.951 . S
C621 C619 1.388 . S
C621 C622 1.366 . S
C622 C621 1.366 . S
C622 C623 1.414 . S
C622 C625 1.499 . S
C623 H597 0.950 . S
C623 C622 1.414 . S
C623 C624 1.374 . S
C624 H598 0.950 . S
C624 C620 1.385 . S
C624 C623 1.374 . S
C625 C622 1.499 . S
C625 C626 1.373 . S
C625 C627 1.389 . S
C626 H599 0.950 . S
C626 C612 1.377 . S
C626 C625 1.373 . S
C627 C611 1.377 . S
C627 C625 1.389 . S
C627 C628 1.524 . S
C628 C627 1.524 . S
C628 C629 1.397 . S
C628 C633 1.363 . S
C629 H600 0.950 . S
C629 C628 1.397 . S
C629 C630 1.334 . S
C630 H601 0.950 . S
C630 C629 1.334 . S
C630 C631 1.287 . S
C631 C630 1.287 . S
C631 C632 1.524 . S
C631 H634 0.999 . S
C632 H602 0.950 . S
C632 C631 1.524 . S
C632 C633 1.415 . S
C633 H603 0.950 . S
C633 C628 1.363 . S
C633 C632 1.415 . S
H634 C631 0.999 . S
H635 C616 0.913 . S
H636 C654 0.951 . S
H637 C656 0.951 . S
H638 C658 0.950 . S
H639 C659 0.950 . S
H640 C661 0.950 . S
H641 C664 0.950 . S
H642 C665 0.950 . S
H643 C667 0.950 . S
H644 C668 0.950 . S
H645 C669 0.951 . S
H646 C671 0.951 . S
H647 C673 0.950 . S
H648 C674 0.950 . S
H649 C676 0.950 . S
H650 C679 0.950 . S
H651 C680 0.950 . S
H652 C682 0.950 . S
H653 C683 0.950 . S
C654 H636 0.951 . S
C654 C655 1.366 . S
C654 C656 1.388 . S
C655 C654 1.366 . S
C655 C659 1.385 . S
C656 H637 0.951 . S
C656 C654 1.388 . S
C656 C657 1.366 . S
C657 C656 1.366 . S
C657 C658 1.414 . S
C657 C660 1.499 . S
C658 H638 0.950 . S
C658 C657 1.414 . S
C658 C659 1.374 . S
C659 H639 0.950 . S
C659 C655 1.385 . S
C659 C658 1.374 . S
C660 C657 1.499 . S
C660 C661 1.373 . S
C660 C662 1.389 . S
C661 H640 0.950 . S
C661 C660 1.373 . S
C661 C677 1.377 . S
C662 C660 1.389 . S
C662 C663 1.524 . S
C662 C676 1.377 . S
C663 C662 1.524 . S
C663 C664 1.397 . S
C663 C668 1.363 . S
C664 H641 0.950 . S
C664 C663 1.397 . S
C664 C665 1.334 . S
C665 H642 0.950 . S
C665 C664 1.334 . S
C665 C666 1.287 . S
C666 C665 1.287 . S
C666 C667 1.524 . S
C666 H685 0.913 . S
C667 H643 0.950 . S
C667 C666 1.524 . S
C667 C668 1.415 . S
C668 H644 0.950 . S
C668 C663 1.363 . S
C668 C667 1.415 . S
C669 H645 0.951 . S
C669 C670 1.366 . S
C669 C671 1.388 . S
C670 C669 1.366 . S
C670 C674 1.385 . S
C671 H646 0.951 . S
C671 C669 1.388 . S
C671 C672 1.366 . S
C672 C671 1.366 . S
C672 C673 1.414 . S
C672 C675 1.499 . S
C673 H647 0.950 . S
C673 C672 1.414 . S
C673 C674 1.374 . S
C674 H648 0.950 . S
C674 C670 1.385 . S
C674 C673 1.374 . S
C675 C672 1.499 . S
C675 C676 1.373 . S
C675 C677 1.389 . S
C676 H649 0.950 . S
C676 C662 1.377 . S
C676 C675 1.373 . S
C677 C661 1.377 . S
C677 C675 1.389 . S
C677 C678 1.524 . S
C678 C677 1.524 . S
C678 C679 1.397 . S
C678 C683 1.363 . S
C679 H650 0.950 . S
C679 C678 1.397 . S
C679 C680 1.334 . S
C680 H651 0.950 . S
C680 C679 1.334 . S
C680 C681 1.287 . S
C681 C680 1.287 . S
C681 C682 1.524 . S
C681 H684 0.999 . S
C682 H652 0.950 . S
C682 C681 1.524 . S
C682 C683 1.415 . S
C683 H653 0.950 . S
C683 C678 1.363 . S
C683 C682 1.415 . S
H684 C681 0.999 . S
H685 C666 0.913 . S
H686 C704 0.951 . S
H687 C706 0.951 . S
H688 C708 0.950 . S
H689 C709 0.950 . S
H690 C711 0.950 . S
H691 C714 0.950 . S
H692 C715 0.950 . S
H693 C717 0.950 . S
H694 C718 0.950 . S
H695 C719 0.951 . S
H696 C721 0.951 . S
H697 C723 0.950 . S
H698 C724 0.950 . S
H699 C726 0.950 . S
H700 C729 0.950 . S
H701 C730 0.950 . S
H702 C732 0.950 . S
H703 C733 0.950 . S
C704 H686 0.951 . S
C704 C705 1.366 . S
C704 C706 1.388 . S
C705 C704 1.366 . S
C705 C709 1.385 . S
C706 H687 0.951 . S
C706 C704 1.388 . S
C706 C707 1.366 . S
C707 C706 1.366 . S
C707 C708 1.414 . S
C707 C710 1.499 . S
C708 H688 0.950 . S
C708 C707 1.414 . S
C708 C709 1.374 . S
C709 H689 0.950 . S
C709 C705 1.385 . S
C709 C708 1.374 . S
C710 C707 1.499 . S
C710 C711 1.373 . S
C710 C712 1.389 . S
C711 H690 0.950 . S
C711 C710 1.373 . S
C711 C727 1.377 . S
C712 C710 1.389 . S
C712 C713 1.524 . S
C712 C726 1.377 . S
C713 C712 1.524 . S
C713 C714 1.397 . S
C713 C718 1.363 . S
C714 H691 0.950 . S
C714 C713 1.397 . S
C714 C715 1.334 . S
C715 H692 0.950 . S
C715 C714 1.334 . S
C715 C716 1.287 . S
C716 C715 1.287 . S
C716 C717 1.524 . S
C716 H735 0.913 . S
C717 H693 0.950 . S
C717 C716 1.524 . S
C717 C718 1.415 . S
C718 H694 0.950 . S
C718 C713 1.363 . S
C718 C717 1.415 . S
C719 H695 0.951 . S
C719 C720 1.366 . S
C719 C721 1.388 . S
C720 C719 1.366 . S
C720 C724 1.385 . S
C721 H696 0.951 . S
C721 C719 1.388 . S
C721 C722 1.366 . S
C722 C721 1.366 . S
C722 C723 1.414 . S
C722 C725 1.499 . S
C723 H697 0.950 . S
C723 C722 1.414 . S
C723 C724 1.374 . S
C724 H698 0.950 . S
C724 C720 1.385 . S
C724 C723 1.374 . S
C725 C722 1.499 . S
C725 C726 1.373 . S
C725 C727 1.389 . S
C726 H699 0.950 . S
C726 C712 1.377 . S
C726 C725 1.373 . S
C727 C711 1.377 . S
C727 C725 1.389 . S
C727 C728 1.524 . S
C728 C727 1.524 . S
C728 C729 1.397 . S
C728 C733 1.363 . S
C729 H700 0.950 . S
C729 C728 1.397 . S
C729 C730 1.334 . S
C730 H701 0.950 . S
C730 C729 1.334 . S
C730 C731 1.287 . S
C731 C730 1.287 . S
C731 C732 1.524 . S
C731 H734 0.999 . S
C732 H702 0.950 . S
C732 C731 1.524 . S
C732 C733 1.415 . S
C733 H703 0.950 . S
C733 C728 1.363 . S
C733 C732 1.415 . S
H734 C731 0.999 . S
H735 C716 0.913 . S
H736 C754 0.951 . S
H737 C756 0.951 . S
H738 C758 0.950 . S
H739 C759 0.950 . S
H740 C761 0.950 . S
H741 C764 0.950 . S
H742 C765 0.950 . S
H743 C767 0.950 . S
H744 C768 0.950 1_655 S
H745 C769 0.951 . S
H746 C771 0.951 . S
H747 C773 0.950 . S
H748 C774 0.950 . S
H749 C776 0.950 . S
H750 C779 0.950 . S
H751 C780 0.950 . S
H752 C782 0.950 . S
H753 C783 0.950 . S
C754 H736 0.951 . S
C754 C755 1.366 . S
C754 C756 1.388 . S
C755 C754 1.366 . S
C755 C759 1.385 . S
C756 H737 0.951 . S
C756 C754 1.388 . S
C756 C757 1.366 . S
C757 C756 1.366 . S
C757 C758 1.414 . S
C757 C760 1.499 . S
C758 H738 0.950 . S
C758 C757 1.414 . S
C758 C759 1.374 . S
C759 H739 0.950 . S
C759 C755 1.385 . S
C759 C758 1.374 . S
C760 C757 1.499 . S
C760 C761 1.373 . S
C760 C762 1.389 . S
C761 H740 0.950 . S
C761 C760 1.373 . S
C761 C777 1.377 . S
C762 C760 1.389 . S
C762 C763 1.524 . S
C762 C776 1.377 . S
C763 C762 1.524 . S
C763 C764 1.397 . S
C763 C768 1.363 1_655 S
C764 H741 0.950 . S
C764 C763 1.397 . S
C764 C765 1.334 1_655 S
C765 H742 0.950 . S
C765 C764 1.334 1_455 S
C765 C766 1.287 . S
C766 C765 1.287 . S
C766 C767 1.524 . S
C766 H785 0.913 . S
C767 H743 0.950 . S
C767 C766 1.524 . S
C767 C768 1.415 . S
C768 H744 0.950 1_455 S
C768 C763 1.363 1_455 S
C768 C767 1.415 . S
C769 H745 0.951 . S
C769 C770 1.366 . S
C769 C771 1.388 . S
C770 C769 1.366 . S
C770 C774 1.385 . S
C771 H746 0.951 . S
C771 C769 1.388 . S
C771 C772 1.366 . S
C772 C771 1.366 . S
C772 C773 1.414 . S
C772 C775 1.499 . S
C773 H747 0.950 . S
C773 C772 1.414 . S
C773 C774 1.374 . S
C774 H748 0.950 . S
C774 C770 1.385 . S
C774 C773 1.374 . S
C775 C772 1.499 . S
C775 C776 1.373 . S
C775 C777 1.389 . S
C776 H749 0.950 . S
C776 C762 1.377 . S
C776 C775 1.373 . S
C777 C761 1.377 . S
C777 C775 1.389 . S
C777 C778 1.524 . S
C778 C777 1.524 . S
C778 C779 1.397 . S
C778 C783 1.363 . S
C779 H750 0.950 . S
C779 C778 1.397 . S
C779 C780 1.334 . S
C780 H751 0.950 . S
C780 C779 1.334 . S
C780 C781 1.287 . S
C781 C780 1.287 . S
C781 C782 1.524 . S
C781 H784 0.999 . S
C782 H752 0.950 . S
C782 C781 1.524 . S
C782 C783 1.415 . S
C783 H753 0.950 . S
C783 C778 1.363 . S
C783 C782 1.415 . S
H784 C781 0.999 . S
H785 C766 0.913 . S
H786 C804 0.951 . S
H787 C806 0.951 . S
H788 C808 0.950 . S
H789 C809 0.950 . S
H790 C811 0.950 . S
H791 C814 0.950 . S
H792 C815 0.950 . S
H793 C817 0.950 . S
H794 C818 0.950 . S
H795 C819 0.951 . S
H796 C821 0.951 . S
H797 C823 0.950 . S
H798 C824 0.950 . S
H799 C826 0.950 . S
H800 C829 0.950 . S
H801 C830 0.950 . S
H802 C832 0.950 . S
H803 C833 0.950 . S
C804 H786 0.951 . S
C804 C805 1.366 . S
C804 C806 1.388 . S
C805 C804 1.366 . S
C805 C809 1.385 . S
C806 H787 0.951 . S
C806 C804 1.388 . S
C806 C807 1.366 . S
C807 C806 1.366 . S
C807 C808 1.414 . S
C807 C810 1.499 . S
C808 H788 0.950 . S
C808 C807 1.414 . S
C808 C809 1.374 . S
C809 H789 0.950 . S
C809 C805 1.385 . S
C809 C808 1.374 . S
C810 C807 1.499 . S
C810 C811 1.373 . S
C810 C812 1.389 . S
C811 H790 0.950 . S
C811 C810 1.373 . S
C811 C827 1.377 . S
C812 C810 1.389 . S
C812 C813 1.524 . S
C812 C826 1.377 . S
C813 C812 1.524 . S
C813 C814 1.397 . S
C813 C818 1.363 . S
C814 H791 0.950 . S
C814 C813 1.397 . S
C814 C815 1.334 . S
C815 H792 0.950 . S
C815 C814 1.334 . S
C815 C816 1.287 . S
C816 C815 1.287 . S
C816 C817 1.524 . S
C816 H835 0.913 . S
C817 H793 0.950 . S
C817 C816 1.524 . S
C817 C818 1.415 . S
C818 H794 0.950 . S
C818 C813 1.363 . S
C818 C817 1.415 . S
C819 H795 0.951 . S
C819 C820 1.366 . S
C819 C821 1.388 . S
C820 C819 1.366 . S
C820 C824 1.385 . S
C821 H796 0.951 . S
C821 C819 1.388 . S
C821 C822 1.366 . S
C822 C821 1.366 . S
C822 C823 1.414 . S
C822 C825 1.499 . S
C823 H797 0.950 . S
C823 C822 1.414 . S
C823 C824 1.374 . S
C824 H798 0.950 . S
C824 C820 1.385 . S
C824 C823 1.374 . S
C825 C822 1.499 . S
C825 C826 1.373 . S
C825 C827 1.389 . S
C826 H799 0.950 . S
C826 C812 1.377 . S
C826 C825 1.373 . S
C827 C811 1.377 . S
C827 C825 1.389 . S
C827 C828 1.524 . S
C828 C827 1.524 . S
C828 C829 1.397 . S
C828 C833 1.363 . S
C829 H800 0.950 . S
C829 C828 1.397 . S
C829 C830 1.334 . S
C830 H801 0.950 . S
C830 C829 1.334 . S
C830 C831 1.287 . S
C831 C830 1.287 . S
C831 C832 1.524 . S
C831 H834 0.999 . S
C832 H802 0.950 . S
C832 C831 1.524 . S
C832 C833 1.415 . S
C833 H803 0.950 . S
C833 C828 1.363 . S
C833 C832 1.415 . S
H834 C831 0.999 . S
H835 C816 0.913 . S
C155 C6 1.037 . S
C170 C28 1.037 . S
C205 C62 1.037 . S
C220 C40 1.037 . S
C255 C74 1.036 . S
C270 C96 1.037 . S
C305 C108 1.036 . S
C320 C130 1.036 . S
C355 C17 1.973 . S
C370 C51 1.973 . S
C405 C119 1.972 . S
C420 C85 1.972 . S
C455 C3 1.109 . S
C470 C37 1.108 . S
C505 C105 1.108 . S
C520 C71 1.107 . S
C555 C35 1.964 . S
C570 C1 1.964 . S
C605 C103 1.964 . S
C620 C69 1.964 . S
C655 C15 1.845 . S
C670 C124 1.695 . S
C705 C90 1.695 . S
C720 C49 1.846 . S
C755 C56 1.695 . S
C770 C83 1.846 . S
C805 C117 1.846 . S
C820 C22 1.695 . S
