# Generated by pormake.
# Topology crb, (4)-cn, num edge types: 1
# Building blocks:
#     Node 0, Type 0, BuildingBlock: GALJAG_clean_sbu_0, # of connection points: 4
#     Node 1, Type 0, BuildingBlock: GALJAG_clean_sbu_0, # of connection points: 4
#     Node 2, Type 0, BuildingBlock: GALJAG_clean_sbu_0, # of connection points: 4
#     Node 3, Type 0, BuildingBlock: GALJAG_clean_sbu_0, # of connection points: 4
#     Node 4, Type 0, BuildingBlock: GALJAG_clean_sbu_0, # of connection points: 4
#     Node 5, Type 0, BuildingBlock: GALJAG_clean_sbu_0, # of connection points: 4
#     Node 6, Type 0, BuildingBlock: GALJAG_clean_sbu_0, # of connection points: 4
#     Node 7, Type 0, BuildingBlock: GALJAG_clean_sbu_0, # of connection points: 4
#     Edge 8, Type (0, 0), BuildingBlock: KIFKEQ_clean_linker_1, # of connection points: 2
#     Edge 9, Type (0, 0), BuildingBlock: KIFKEQ_clean_linker_1, # of connection points: 2
#     Edge 10, Type (0, 0), BuildingBlock: KIFKEQ_clean_linker_1, # of connection points: 2
#     Edge 11, Type (0, 0), BuildingBlock: KIFKEQ_clean_linker_1, # of connection points: 2
#     Edge 12, Type (0, 0), BuildingBlock: KIFKEQ_clean_linker_1, # of connection points: 2
#     Edge 13, Type (0, 0), BuildingBlock: KIFKEQ_clean_linker_1, # of connection points: 2
#     Edge 14, Type (0, 0), BuildingBlock: KIFKEQ_clean_linker_1, # of connection points: 2
#     Edge 15, Type (0, 0), BuildingBlock: KIFKEQ_clean_linker_1, # of connection points: 2
#     Edge 16, Type (0, 0), BuildingBlock: KIFKEQ_clean_linker_1, # of connection points: 2
#     Edge 17, Type (0, 0), BuildingBlock: KIFKEQ_clean_linker_1, # of connection points: 2
#     Edge 18, Type (0, 0), BuildingBlock: KIFKEQ_clean_linker_1, # of connection points: 2
#     Edge 19, Type (0, 0), BuildingBlock: KIFKEQ_clean_linker_1, # of connection points: 2
#     Edge 20, Type (0, 0), BuildingBlock: KIFKEQ_clean_linker_1, # of connection points: 2
#     Edge 21, Type (0, 0), BuildingBlock: KIFKEQ_clean_linker_1, # of connection points: 2
#     Edge 22, Type (0, 0), BuildingBlock: KIFKEQ_clean_linker_1, # of connection points: 2
#     Edge 23, Type (0, 0), BuildingBlock: KIFKEQ_clean_linker_1, # of connection points: 2
# Relax obj value: 0.077
# Max RMSD: 0.151
# Mean RMSD: 0.151
data_MOF--net-crb--node1-GALJAG_clean_sbu_0--edge1-KIFKEQ_clean_linker_1
_symmetry_space_group_name_H-M    P1
_symmetry_Int_Tables_number       1
_symmetry_cell_setting            triclinic
loop_
_symmetry_equiv_pos_as_xyz
'x, y, z'
_cell_length_a     46.532768
_cell_length_b     46.534277
_cell_length_c     21.545759
_cell_angle_alpha  89.965326
_cell_angle_beta   89.950778
_cell_angle_gamma 89.989318
loop_
_atom_site_label
_atom_site_type_symbol
_atom_site_fract_x
_atom_site_fract_y
_atom_site_fract_z
_atom_type_partial_charge
In0 In 0.33492 0.33337 0.00018 0.0
O1 O 0.31845 0.32675 0.90105 0.0
O2 O 0.31962 0.29062 0.96134 0.0
C3 C 0.32857 0.39118 0.00249 0.0
C4 C 0.30346 0.3127 0.09547 0.0
C5 C 0.39268 0.32663 0.99655 0.0
O6 O 0.3168 0.37565 0.96183 0.0
O7 O 0.34306 0.37753 0.04211 0.0
O8 O 0.37864 0.32808 0.04644 0.0
O9 O 0.3776 0.32825 0.94809 0.0
C10 C 0.31326 0.30032 0.90849 0.0
O11 O 0.32887 0.30474 0.08444 0.0
O12 O 0.29397 0.33178 0.05918 0.0
In13 In 0.66729 0.33567 0.99555 0.0
O14 O 0.68679 0.32995 0.09231 0.0
O15 O 0.68349 0.29318 0.03422 0.0
C16 C 0.67492 0.39327 0.00163 0.0
C17 C 0.69789 0.3144 0.89978 0.0
C18 C 0.60929 0.32935 0.99325 0.0
O19 O 0.67388 0.37764 0.04943 0.0
O20 O 0.67261 0.37981 0.95115 0.0
O21 O 0.6233 0.34061 0.94962 0.0
O22 O 0.62447 0.32108 0.03819 0.0
C23 C 0.69144 0.30338 0.0856 0.0
O24 O 0.67171 0.30853 0.90847 0.0
O25 O 0.7086 0.33156 0.93885 0.0
In26 In 0.66816 0.66758 0.0013 0.0
O27 O 0.67283 0.69651 0.08582 0.0
O28 O 0.7097 0.67325 0.05701 0.0
C29 C 0.61018 0.67158 0.99573 0.0
C30 C 0.6905 0.69859 0.90659 0.0
C31 C 0.67462 0.60989 0.00866 0.0
O32 O 0.62442 0.67743 0.04378 0.0
O33 O 0.62517 0.66388 0.94983 0.0
O34 O 0.68072 0.62418 0.96074 0.0
O35 O 0.66536 0.62468 0.05347 0.0
C36 C 0.69905 0.6911 0.09456 0.0
O37 O 0.69543 0.67219 0.91406 0.0
O38 O 0.6736 0.70936 0.946 0.0
In39 In 0.33516 0.6657 -0.00052 0.0
O40 O 0.305 0.67048 0.08214 0.0
O41 O 0.33035 0.70664 0.05745 0.0
C42 C 0.32919 0.60787 0.99864 0.0
C43 C 0.30503 0.69062 0.90696 0.0
C44 C 0.39319 0.66965 0.9988 0.0
O45 O 0.33073 0.62237 0.0479 0.0
O46 O 0.33054 0.62252 0.94945 0.0
O47 O 0.37833 0.67008 0.94994 0.0
O48 O 0.37881 0.6674 0.04822 0.0
C49 C 0.31141 0.69631 0.09296 0.0
O50 O 0.33118 0.69601 0.91698 0.0
O51 O 0.29414 0.67215 0.94285 0.0
In52 In 0.83593 0.83599 0.5008 0.0
O53 O 0.80341 0.8306 0.42279 0.0
O54 O 0.83295 0.79655 0.43762 0.0
C55 C 0.83162 0.89388 0.50226 0.0
C56 C 0.80582 0.81184 0.59478 0.0
C57 C 0.89384 0.83192 0.49815 0.0
O58 O 0.82713 0.87906 0.45426 0.0
O59 O 0.83809 0.87949 0.54994 0.0
O60 O 0.87929 0.8279 0.54678 0.0
O61 O 0.8792 0.83779 0.45054 0.0
C62 C 0.81186 0.80594 0.40696 0.0
O63 O 0.83039 0.80325 0.57858 0.0
O64 O 0.7966 0.83314 0.56454 0.0
In65 In 0.16875 0.83608 0.49975 0.0
O66 O 0.20177 0.8307 0.57683 0.0
O67 O 0.17192 0.7968 0.56331 0.0
C68 C 0.17335 0.89397 0.49973 0.0
C69 C 0.19829 0.81103 0.40621 0.0
C70 C 0.1108 0.83222 0.50038 0.0
O71 O 0.17495 0.87909 0.54851 0.0
O72 O 0.16966 0.87966 0.45064 0.0
O73 O 0.12555 0.83018 0.45146 0.0
O74 O 0.12527 0.836 0.5492 0.0
C75 C 0.19325 0.80613 0.59324 0.0
O76 O 0.17342 0.80319 0.4221 0.0
O77 O 0.20811 0.832 0.43658 0.0
In78 In 0.16659 0.16868 0.49953 0.0
O79 O 0.17422 0.185 0.59837 0.0
O80 O 0.21019 0.18213 0.53821 0.0
C81 C 0.10902 0.17667 0.4946 0.0
C82 C 0.18644 0.20029 0.4038 0.0
C83 C 0.17262 0.11079 0.50435 0.0
O84 O 0.12443 0.18687 0.53733 0.0
O85 O 0.12267 0.16282 0.45385 0.0
O86 O 0.17857 0.12542 0.45688 0.0
O87 O 0.1639 0.12534 0.54997 0.0
C88 C 0.2008 0.18908 0.59093 0.0
O89 O 0.1911 0.1737 0.40917 0.0
O90 O 0.17099 0.211 0.44611 0.0
In91 In 0.8351 0.16892 0.49624 0.0
O92 O 0.80581 0.17457 0.57944 0.0
O93 O 0.83099 0.21057 0.55219 0.0
C94 C 0.8308 0.11078 0.49536 0.0
C95 C 0.80247 0.19065 0.40364 0.0
C96 C 0.89263 0.17732 0.49911 0.0
O97 O 0.82966 0.12549 0.54426 0.0
O98 O 0.83389 0.12532 0.44647 0.0
O99 O 0.87758 0.18218 0.45166 0.0
O100 O 0.87864 0.16863 0.54561 0.0
C101 C 0.81233 0.20051 0.58888 0.0
O102 O 0.82946 0.18887 0.40003 0.0
O103 O 0.79188 0.18075 0.45307 0.0
H104 H 0.354 0.42823 0.08315 0.0
H105 H 0.29874 0.42567 0.92229 0.0
H106 H 0.35261 0.4805 0.0817 0.0
H107 H 0.29676 0.47818 0.92161 0.0
H108 H 0.32939 0.57156 0.89895 0.0
H109 H 0.32765 0.51911 0.90021 0.0
H110 H 0.3209 0.52042 0.10026 0.0
H111 H 0.32338 0.57272 0.09898 0.0
C112 C 0.34131 0.43886 0.0478 0.0
C113 C 0.32649 0.42286 0.00281 0.0
C114 C 0.34038 0.46885 0.04716 0.0
C115 C 0.32452 0.48357 0.00161 0.0
C116 C 0.30944 0.46752 0.9569 0.0
C117 C 0.31042 0.43746 0.9575 0.0
C118 C 0.32743 0.5606 0.94312 0.0
C119 C 0.32669 0.57621 0.99887 0.0
C120 C 0.32625 0.53056 0.94385 0.0
C121 C 0.32426 0.51553 0.00037 0.0
C122 C 0.32292 0.53128 0.056 0.0
C123 C 0.32418 0.56126 0.05525 0.0
H124 H 0.42749 0.31952 0.89552 0.0
H125 H 0.42932 0.32891 0.09488 0.0
H126 H 0.47991 0.31766 0.89361 0.0
H127 H 0.48161 0.32804 0.09297 0.0
H128 H 0.57491 0.30154 0.07664 0.0
H129 H 0.52257 0.29824 0.07594 0.0
H130 H 0.52006 0.34893 0.90779 0.0
H131 H 0.57233 0.35132 0.90752 0.0
C132 C 0.43912 0.32119 0.93891 0.0
C133 C 0.42434 0.32439 0.99532 0.0
C134 C 0.46916 0.32031 0.93783 0.0
C135 C 0.48505 0.32281 0.99313 0.0
C136 C 0.47013 0.32562 0.0496 0.0
C137 C 0.44013 0.3263 0.05068 0.0
C138 C 0.56312 0.31182 0.0394 0.0
C139 C 0.57767 0.32672 0.99221 0.0
C140 C 0.53313 0.31008 0.03914 0.0
C141 C 0.51703 0.32339 0.9919 0.0
C142 C 0.53172 0.33804 0.94436 0.0
C143 C 0.5617 0.33959 0.94442 0.0
H144 H 0.67087 0.43093 0.90547 0.0
H145 H 0.68415 0.42702 0.10363 0.0
H146 H 0.67224 0.48311 0.90949 0.0
H147 H 0.68657 0.47944 0.10758 0.0
H148 H 0.65475 0.57335 0.09833 0.0
H149 H 0.65646 0.52091 0.09802 0.0
H150 H 0.7032 0.52287 0.92454 0.0
H151 H 0.70049 0.57511 0.92393 0.0
C152 C 0.67446 0.44125 0.94984 0.0
C153 C 0.67738 0.4249 0.00424 0.0
C154 C 0.67543 0.47121 0.95214 0.0
C155 C 0.6796 0.48558 0.00886 0.0
C156 C 0.68293 0.46914 0.06324 0.0
C157 C 0.68175 0.4391 0.06096 0.0
C158 C 0.6655 0.56251 0.06036 0.0
C159 C 0.6773 0.57828 0.01095 0.0
C160 C 0.66664 0.53246 0.06031 0.0
C161 C 0.67982 0.51758 0.01104 0.0
C162 C 0.69236 0.53353 0.96259 0.0
C163 C 0.69097 0.56351 0.9624 0.0
H164 H 0.42803 0.68059 0.89967 0.0
H165 H 0.42994 0.662 0.09599 0.0
H166 H 0.48038 0.68264 0.89793 0.0
H167 H 0.48229 0.66299 0.09405 0.0
H168 H 0.57456 0.69335 0.08431 0.0
H169 H 0.52224 0.69437 0.0841 0.0
H170 H 0.52176 0.65267 0.90484 0.0
H171 H 0.5742 0.65265 0.90428 0.0
C172 C 0.43968 0.67682 0.94242 0.0
C173 C 0.42491 0.67117 0.99799 0.0
C174 C 0.4697 0.67781 0.94137 0.0
C175 C 0.48566 0.67294 0.99581 0.0
C176 C 0.47077 0.66732 0.05142 0.0
C177 C 0.44074 0.66657 0.05253 0.0
C178 C 0.56325 0.68454 0.04472 0.0
C179 C 0.57845 0.67289 0.99433 0.0
C180 C 0.53323 0.68493 0.04477 0.0
C181 C 0.51767 0.67344 0.99464 0.0
C182 C 0.53298 0.66205 0.94389 0.0
C183 C 0.56305 0.66189 0.94365 0.0
H184 H 0.81149 0.92855 0.41003 0.0
H185 H 0.84837 0.93074 0.59379 0.0
H186 H 0.80967 0.98088 0.40854 0.0
H187 H 0.84762 0.98311 0.5916 0.0
H188 H 0.81805 0.07592 0.5932 0.0
H189 H 0.81664 0.0236 0.59505 0.0
H190 H 0.84011 0.02169 0.40086 0.0
H191 H 0.84042 0.07408 0.39871 0.0
C192 C 0.81931 0.94026 0.45004 0.0
C193 C 0.83006 0.92558 0.50205 0.0
C194 C 0.81846 0.97027 0.44904 0.0
C195 C 0.82858 0.98632 0.49985 0.0
C196 C 0.83921 0.97151 0.55202 0.0
C197 C 0.83982 0.94148 0.5532 0.0
C198 C 0.82276 0.06429 0.55086 0.0
C199 C 0.82935 0.07906 0.49581 0.0
C200 C 0.82216 0.03427 0.55199 0.0
C201 C 0.82838 0.01832 0.49818 0.0
C202 C 0.83478 0.03322 0.44297 0.0
C203 C 0.83514 0.06326 0.44176 0.0
H204 H 0.07572 0.81828 0.40365 0.0
H205 H 0.0743 0.84317 0.59666 0.0
H206 H 0.02336 0.81661 0.4028 0.0
H207 H 0.02194 0.84257 0.59544 0.0
H208 H 0.93012 0.84767 0.40455 0.0
H209 H 0.98251 0.84725 0.4053 0.0
H210 H 0.98147 0.81159 0.59066 0.0
H211 H 0.92913 0.81309 0.59055 0.0
C212 C 0.06418 0.8235 0.44585 0.0
C213 C 0.07908 0.83083 0.50023 0.0
C214 C 0.03415 0.82274 0.44529 0.0
C215 C 0.01833 0.82953 0.499 0.0
C216 C 0.03336 0.83677 0.55347 0.0
C217 C 0.06339 0.83729 0.55413 0.0
C218 C 0.94113 0.83969 0.44534 0.0
C219 C 0.92556 0.8305 0.49754 0.0
C220 C 0.97118 0.83927 0.4457 0.0
C221 C 0.98632 0.82941 0.49809 0.0
C222 C 0.9706 0.81981 0.54993 0.0
C223 C 0.94058 0.82048 0.54975 0.0
H224 H 0.15478 0.07418 0.59566 0.0
H225 H 0.19505 0.07591 0.41506 0.0
H226 H 0.15586 0.02178 0.59454 0.0
H227 H 0.19702 0.02358 0.41462 0.0
H228 H 0.16483 0.93083 0.40292 0.0
H229 H 0.16562 0.9832 0.40509 0.0
H230 H 0.18713 0.98104 0.60019 0.0
H231 H 0.18542 0.92868 0.59826 0.0
C232 C 0.16415 0.06334 0.55604 0.0
C233 C 0.17473 0.07912 0.50538 0.0
C234 C 0.16493 0.0333 0.55549 0.0
C235 C 0.17646 0.01839 0.50438 0.0
C236 C 0.18753 0.0343 0.45424 0.0
C237 C 0.18658 0.06431 0.45466 0.0
C238 C 0.1698 0.94158 0.44618 0.0
C239 C 0.17499 0.92568 0.50043 0.0
C240 C 0.17043 0.9716 0.44741 0.0
C241 C 0.17644 0.98641 0.50285 0.0
C242 C 0.18199 0.97039 0.55692 0.0
C243 C 0.18119 0.94037 0.55575 0.0
H244 H 0.92944 0.1688 0.59602 0.0
H245 H 0.92719 0.19235 0.40212 0.0
H246 H 0.98187 0.17082 0.59419 0.0
H247 H 0.97959 0.19469 0.40046 0.0
H248 H 0.07186 0.15776 0.40576 0.0
H249 H 0.0195 0.16014 0.40712 0.0
H250 H 0.02237 0.20465 0.58291 0.0
H251 H 0.0748 0.20198 0.58186 0.0
C252 C 0.94015 0.17467 0.55319 0.0
C253 C 0.92424 0.18032 0.49917 0.0
C254 C 0.97016 0.17597 0.55221 0.0
C255 C 0.98488 0.18283 0.49711 0.0
C256 C 0.96889 0.189 0.44341 0.0
C257 C 0.93889 0.18781 0.44446 0.0
C258 C 0.06132 0.16822 0.44448 0.0
C259 C 0.07741 0.17963 0.49376 0.0
C260 C 0.03133 0.16971 0.44512 0.0
C261 C 0.01679 0.18255 0.49518 0.0
C262 C 0.03294 0.19434 0.54404 0.0
C263 C 0.06295 0.19296 0.54326 0.0
H264 H 0.22098 0.18134 0.31071 0.0
H265 H 0.18362 0.2586 0.38725 0.0
H266 H 0.24812 0.21009 0.23668 0.0
H267 H 0.21117 0.28753 0.31313 0.0
H268 H 0.24741 0.32417 0.12567 0.0
H269 H 0.21701 0.29776 0.19901 0.0
H270 H 0.28907 0.24357 0.24667 0.0
H271 H 0.31922 0.26963 0.17346 0.0
C272 C 0.2184 0.20448 0.31139 0.0
C273 C 0.20032 0.21774 0.35501 0.0
C274 C 0.2341 0.22095 0.26928 0.0
C275 C 0.23208 0.25108 0.26975 0.0
C276 C 0.2131 0.26435 0.31166 0.0
C277 C 0.19739 0.24781 0.35408 0.0
C278 C 0.25675 0.30678 0.1523 0.0
C279 C 0.28563 0.29885 0.14365 0.0
C280 C 0.23939 0.29172 0.19428 0.0
C281 C 0.25058 0.26838 0.22792 0.0
C282 C 0.27969 0.2611 0.2205 0.0
C283 C 0.29702 0.27617 0.1789 0.0
H284 H 0.71566 0.25069 0.06976 0.0
H285 H 0.70051 0.31631 0.20771 0.0
H286 H 0.74174 0.22208 0.14645 0.0
H287 H 0.72624 0.28734 0.28476 0.0
H288 H 0.7475 0.21012 0.41488 0.0
H289 H 0.71948 0.23685 0.33799 0.0
H290 H 0.78969 0.2302 0.20774 0.0
H291 H 0.81795 0.20389 0.28491 0.0
C292 C 0.71771 0.25888 0.1166 0.0
C293 C 0.7061 0.28572 0.13287 0.0
C294 C 0.73273 0.24256 0.16029 0.0
C295 C 0.73596 0.25255 0.22134 0.0
C296 C 0.72386 0.27912 0.23801 0.0
C297 C 0.70927 0.2957 0.19397 0.0
C298 C 0.75685 0.21418 0.36966 0.0
C299 C 0.78488 0.20494 0.35575 0.0
C300 C 0.7409 0.22961 0.32593 0.0
C301 C 0.7525 0.23558 0.26715 0.0
C302 C 0.78024 0.22571 0.25268 0.0
C303 C 0.79639 0.21075 0.29679 0.0
H304 H 0.76756 0.82292 0.33326 0.0
H305 H 0.82268 0.75045 0.37231 0.0
H306 H 0.74117 0.79425 0.258 0.0
H307 H 0.79577 0.72141 0.29787 0.0
H308 H 0.75709 0.68822 0.1134 0.0
H309 H 0.78554 0.71583 0.18772 0.0
H310 H 0.7078 0.75466 0.25867 0.0
H311 H 0.67958 0.72768 0.18357 0.0
C312 C 0.77405 0.80085 0.32567 0.0
C313 C 0.79712 0.7889 0.35877 0.0
C314 C 0.75879 0.78433 0.28289 0.0
C315 C 0.76614 0.75542 0.27241 0.0
C316 C 0.78967 0.74365 0.30455 0.0
C317 C 0.80502 0.76025 0.34731 0.0
C318 C 0.74612 0.70253 0.14521 0.0
C319 C 0.71615 0.70591 0.14254 0.0
C320 C 0.76239 0.71828 0.18788 0.0
C321 C 0.74897 0.73767 0.22874 0.0
C322 C 0.71888 0.74038 0.227 0.0
C323 C 0.70268 0.72475 0.1843 0.0
H324 H 0.18028 0.7673 0.33191 0.0
H325 H 0.25423 0.82007 0.37266 0.0
H326 H 0.20841 0.74029 0.25656 0.0
H327 H 0.28273 0.7925 0.29836 0.0
H328 H 0.31603 0.754 0.11454 0.0
H329 H 0.28879 0.78271 0.18904 0.0
H330 H 0.24663 0.70576 0.25505 0.0
H331 H 0.27321 0.67733 0.1795 0.0
C332 C 0.20258 0.77313 0.32471 0.0
C333 C 0.21507 0.79577 0.35822 0.0
C334 C 0.21879 0.75749 0.28189 0.0
C335 C 0.24794 0.76402 0.2718 0.0
C336 C 0.26029 0.78705 0.30458 0.0
C337 C 0.244 0.80279 0.3473 0.0
C338 C 0.30105 0.74325 0.14528 0.0
C339 C 0.29665 0.71346 0.14106 0.0
C340 C 0.28551 0.75967 0.18811 0.0
C341 C 0.26533 0.74659 0.22773 0.0
C342 C 0.26154 0.71664 0.22439 0.0
C343 C 0.27694 0.70029 0.18142 0.0
H344 H 0.18236 0.75077 0.62852 0.0
H345 H 0.23784 0.82307 0.66626 0.0
H346 H 0.20916 0.7218 0.70323 0.0
H347 H 0.2641 0.79448 0.74202 0.0
H348 H 0.32505 0.72773 0.81931 0.0
H349 H 0.29727 0.755 0.74379 0.0
H350 H 0.21909 0.7162 0.81267 0.0
H351 H 0.2471 0.68826 0.88713 0.0
C352 C 0.20009 0.76054 0.65329 0.0
C353 C 0.20809 0.78913 0.64141 0.0
C354 C 0.21538 0.74399 0.69625 0.0
C355 C 0.23894 0.75574 0.7283 0.0
C356 C 0.24646 0.78457 0.71727 0.0
C357 C 0.23126 0.80104 0.67421 0.0
C358 C 0.30195 0.7249 0.81804 0.0
C359 C 0.28823 0.70591 0.85914 0.0
C360 C 0.28598 0.7407 0.7751 0.0
C361 C 0.2559 0.73802 0.77254 0.0
C362 C 0.24224 0.7186 0.81299 0.0
C363 C 0.25826 0.70266 0.85579 0.0
H364 H 0.29081 0.24674 0.92296 0.0
H365 H 0.30383 0.31359 0.78656 0.0
H366 H 0.26493 0.21814 0.8462 0.0
H367 H 0.27809 0.28475 0.70955 0.0
H368 H 0.25476 0.21069 0.57589 0.0
H369 H 0.28371 0.23654 0.65232 0.0
H370 H 0.21699 0.22446 0.78923 0.0
H371 H 0.18788 0.19883 0.71269 0.0
C372 C 0.28837 0.2552 0.87641 0.0
C373 C 0.29929 0.28241 0.8607 0.0
C374 C 0.27343 0.23889 0.83266 0.0
C375 C 0.26947 0.24928 0.77209 0.0
C376 C 0.28103 0.27616 0.75586 0.0
C377 C 0.29564 0.29268 0.79991 0.0
C378 C 0.24639 0.21335 0.62247 0.0
C379 C 0.21907 0.20277 0.63843 0.0
C380 C 0.26287 0.22828 0.66599 0.0
C381 C 0.25254 0.23253 0.72653 0.0
C382 C 0.22554 0.22129 0.74296 0.0
C383 C 0.20887 0.20672 0.69917 0.0
H384 H 0.67925 0.27639 0.81285 0.0
H385 H 0.75537 0.32056 0.87644 0.0
H386 H 0.70801 0.25005 0.73747 0.0
H387 H 0.78433 0.29379 0.80134 0.0
H388 H 0.82002 0.25764 0.6147 0.0
H389 H 0.79265 0.287 0.68824 0.0
H390 H 0.74427 0.212 0.74356 0.0
H391 H 0.77119 0.1829 0.66993 0.0
C392 C 0.70212 0.28058 0.81047 0.0
C393 C 0.71509 0.30042 0.85072 0.0
C394 C 0.71863 0.26535 0.76759 0.0
C395 C 0.7485 0.26959 0.76401 0.0
C396 C 0.76136 0.29015 0.80285 0.0
C397 C 0.74479 0.30541 0.84592 0.0
C398 C 0.80366 0.24746 0.64295 0.0
C399 C 0.79764 0.21802 0.63641 0.0
C400 C 0.78805 0.26423 0.68508 0.0
C401 C 0.76609 0.25186 0.72114 0.0
C402 C 0.76066 0.22228 0.71555 0.0
C403 C 0.77625 0.20556 0.67369 0.0
H404 H 0.68811 0.75676 0.88879 0.0
H405 H 0.72615 0.67915 0.81569 0.0
H406 H 0.71575 0.78527 0.81441 0.0
H407 H 0.7532 0.70745 0.74065 0.0
H408 H 0.82231 0.76683 0.66717 0.0
H409 H 0.79335 0.7403 0.74192 0.0
H410 H 0.72119 0.7961 0.70419 0.0
H411 H 0.7505 0.82311 0.63023 0.0
C412 C 0.7021 0.74579 0.85631 0.0
C413 C 0.70509 0.71575 0.85821 0.0
C414 C 0.71787 0.7621 0.81361 0.0
C415 C 0.73691 0.74866 0.772 0.0
C416 C 0.73919 0.71853 0.77289 0.0
C417 C 0.72351 0.70228 0.81556 0.0
C418 C 0.80032 0.77356 0.67513 0.0
C419 C 0.78865 0.797 0.64277 0.0
C420 C 0.78364 0.75821 0.7176 0.0
C421 C 0.75484 0.76587 0.72855 0.0
C422 C 0.74334 0.78975 0.69714 0.0
C423 C 0.7601 0.80517 0.65466 0.0
loop_
_geom_bond_atom_site_label_1
_geom_bond_atom_site_label_2
_geom_bond_distance
_geom_bond_site_symmetry_2
_ccdc_geom_bond_type
In0 O1 2.294 1_554 S
In0 O2 2.326 1_554 S
In0 O6 2.266 1_554 S
In0 O7 2.326 . S
In0 O8 2.266 . S
In0 O9 2.326 1_554 S
In0 O11 2.294 . S
In0 O12 2.326 . S
O1 In0 2.294 1_556 S
O1 C10 1.240 . S
O2 In0 2.326 1_556 S
O2 C10 1.252 . S
C3 O6 1.252 1_554 S
C3 O7 1.260 . S
C4 O11 1.240 . S
C4 O12 1.252 . S
C5 O8 1.252 1_556 S
C5 O9 1.260 . S
O6 In0 2.266 1_556 S
O6 C3 1.252 1_556 S
O7 In0 2.326 . S
O7 C3 1.260 . S
O8 In0 2.266 . S
O8 C5 1.252 1_554 S
O9 In0 2.326 1_556 S
O9 C5 1.260 . S
C10 O1 1.240 . S
C10 O2 1.252 . S
O11 In0 2.294 . S
O11 C4 1.240 . S
O12 In0 2.326 . S
O12 C4 1.252 . S
In13 O14 2.294 . S
In13 O15 2.326 . S
In13 O19 2.266 . S
In13 O20 2.326 1_554 S
In13 O21 2.266 1_554 S
In13 O22 2.326 . S
In13 O24 2.294 1_554 S
In13 O25 2.326 1_554 S
O14 In13 2.294 . S
O14 C23 1.240 . S
O15 In13 2.326 . S
O15 C23 1.252 . S
C16 O19 1.252 1_556 S
C16 O20 1.260 . S
C17 O24 1.240 . S
C17 O25 1.252 . S
C18 O21 1.252 1_554 S
C18 O22 1.260 . S
O19 In13 2.266 . S
O19 C16 1.252 1_554 S
O20 In13 2.326 1_556 S
O20 C16 1.260 . S
O21 In13 2.266 1_556 S
O21 C18 1.252 1_556 S
O22 In13 2.326 . S
O22 C18 1.260 . S
C23 O14 1.240 . S
C23 O15 1.252 . S
O24 In13 2.294 1_556 S
O24 C17 1.240 . S
O25 In13 2.326 1_556 S
O25 C17 1.252 . S
In26 O27 2.294 . S
In26 O28 2.326 . S
In26 O32 2.266 . S
In26 O33 2.326 1_554 S
In26 O34 2.266 1_554 S
In26 O35 2.326 . S
In26 O37 2.294 1_554 S
In26 O38 2.326 1_554 S
O27 In26 2.294 . S
O27 C36 1.240 . S
O28 In26 2.326 . S
O28 C36 1.252 . S
C29 O32 1.252 1_556 S
C29 O33 1.260 . S
C30 O37 1.240 . S
C30 O38 1.252 . S
C31 O34 1.252 1_554 S
C31 O35 1.260 . S
O32 In26 2.266 . S
O32 C29 1.252 1_554 S
O33 In26 2.326 1_556 S
O33 C29 1.260 . S
O34 In26 2.266 1_556 S
O34 C31 1.252 1_556 S
O35 In26 2.326 . S
O35 C31 1.260 . S
C36 O27 1.240 . S
C36 O28 1.252 . S
O37 In26 2.294 1_556 S
O37 C30 1.240 . S
O38 In26 2.326 1_556 S
O38 C30 1.252 . S
In39 O40 2.294 . S
In39 O41 2.326 . S
In39 O45 2.266 . S
In39 O46 2.326 1_554 S
In39 O47 2.266 1_554 S
In39 O48 2.326 . S
In39 O50 2.294 1_554 S
In39 O51 2.326 1_554 S
O40 In39 2.294 . S
O40 C49 1.240 . S
O41 In39 2.326 . S
O41 C49 1.252 . S
C42 O45 1.252 1_556 S
C42 O46 1.260 . S
C43 O50 1.240 . S
C43 O51 1.252 . S
C44 O47 1.252 1_554 S
C44 O48 1.260 . S
O45 In39 2.266 . S
O45 C42 1.252 1_554 S
O46 In39 2.326 1_556 S
O46 C42 1.260 . S
O47 In39 2.266 1_556 S
O47 C44 1.252 1_556 S
O48 In39 2.326 . S
O48 C44 1.260 . S
C49 O40 1.240 . S
C49 O41 1.252 . S
O50 In39 2.294 1_556 S
O50 C43 1.240 . S
O51 In39 2.326 1_556 S
O51 C43 1.252 . S
In52 O53 2.294 . S
In52 O54 2.326 . S
In52 O58 2.266 . S
In52 O59 2.326 . S
In52 O60 2.266 . S
In52 O61 2.326 . S
In52 O63 2.294 . S
In52 O64 2.326 . S
O53 In52 2.294 . S
O53 C62 1.240 . S
O54 In52 2.326 . S
O54 C62 1.252 . S
C55 O58 1.252 . S
C55 O59 1.260 . S
C56 O63 1.240 . S
C56 O64 1.252 . S
C57 O60 1.252 . S
C57 O61 1.260 . S
O58 In52 2.266 . S
O58 C55 1.252 . S
O59 In52 2.326 . S
O59 C55 1.260 . S
O60 In52 2.266 . S
O60 C57 1.252 . S
O61 In52 2.326 . S
O61 C57 1.260 . S
C62 O53 1.240 . S
C62 O54 1.252 . S
O63 In52 2.294 . S
O63 C56 1.240 . S
O64 In52 2.326 . S
O64 C56 1.252 . S
In65 O66 2.294 . S
In65 O67 2.326 . S
In65 O71 2.266 . S
In65 O72 2.326 . S
In65 O73 2.266 . S
In65 O74 2.326 . S
In65 O76 2.294 . S
In65 O77 2.326 . S
O66 In65 2.294 . S
O66 C75 1.240 . S
O67 In65 2.326 . S
O67 C75 1.252 . S
C68 O71 1.252 . S
C68 O72 1.260 . S
C69 O76 1.240 . S
C69 O77 1.252 . S
C70 O73 1.252 . S
C70 O74 1.260 . S
O71 In65 2.266 . S
O71 C68 1.252 . S
O72 In65 2.326 . S
O72 C68 1.260 . S
O73 In65 2.266 . S
O73 C70 1.252 . S
O74 In65 2.326 . S
O74 C70 1.260 . S
C75 O66 1.240 . S
C75 O67 1.252 . S
O76 In65 2.294 . S
O76 C69 1.240 . S
O77 In65 2.326 . S
O77 C69 1.252 . S
In78 O79 2.294 . S
In78 O80 2.326 . S
In78 O84 2.266 . S
In78 O85 2.326 . S
In78 O86 2.266 . S
In78 O87 2.326 . S
In78 O89 2.294 . S
In78 O90 2.326 . S
O79 In78 2.294 . S
O79 C88 1.240 . S
O80 In78 2.326 . S
O80 C88 1.252 . S
C81 O84 1.252 . S
C81 O85 1.260 . S
C82 O89 1.240 . S
C82 O90 1.252 . S
C83 O86 1.252 . S
C83 O87 1.260 . S
O84 In78 2.266 . S
O84 C81 1.252 . S
O85 In78 2.326 . S
O85 C81 1.260 . S
O86 In78 2.266 . S
O86 C83 1.252 . S
O87 In78 2.326 . S
O87 C83 1.260 . S
C88 O79 1.240 . S
C88 O80 1.252 . S
O89 In78 2.294 . S
O89 C82 1.240 . S
O90 In78 2.326 . S
O90 C82 1.252 . S
In91 O92 2.294 . S
In91 O93 2.326 . S
In91 O97 2.266 . S
In91 O98 2.326 . S
In91 O99 2.266 . S
In91 O100 2.326 . S
In91 O102 2.294 . S
In91 O103 2.326 . S
O92 In91 2.294 . S
O92 C101 1.240 . S
O93 In91 2.326 . S
O93 C101 1.252 . S
C94 O97 1.252 . S
C94 O98 1.260 . S
C95 O102 1.240 . S
C95 O103 1.252 . S
C96 O99 1.252 . S
C96 O100 1.260 . S
O97 In91 2.266 . S
O97 C94 1.252 . S
O98 In91 2.326 . S
O98 C94 1.260 . S
O99 In91 2.266 . S
O99 C96 1.252 . S
O100 In91 2.326 . S
O100 C96 1.260 . S
C101 O92 1.240 . S
C101 O93 1.252 . S
O102 In91 2.294 . S
O102 C95 1.240 . S
O103 In91 2.326 . S
O103 C95 1.252 . S
H104 C112 0.950 . S
H105 C117 0.950 . S
H106 C114 0.950 . S
H107 C116 0.950 . S
H108 C118 0.950 . S
H109 C120 0.950 . S
H110 C122 0.950 . S
H111 C123 0.950 . S
C112 H104 0.950 . S
C112 C113 1.386 . S
C112 C114 1.391 . S
C113 C112 1.386 . S
C113 C117 1.393 1_554 S
C114 H106 0.950 . S
C114 C112 1.391 . S
C114 C115 1.400 . S
C115 C114 1.400 . S
C115 C116 1.398 1_554 S
C115 C121 1.491 1_554 S
C116 H107 0.950 . S
C116 C115 1.398 1_556 S
C116 C117 1.391 . S
C117 H105 0.950 . S
C117 C113 1.393 1_556 S
C117 C116 1.391 . S
C118 H108 0.950 . S
C118 C119 1.386 . S
C118 C120 1.391 . S
C119 C118 1.386 . S
C119 C123 1.393 1_556 S
C120 H109 0.950 . S
C120 C118 1.391 . S
C120 C121 1.400 . S
C121 C115 1.491 1_556 S
C121 C120 1.400 . S
C121 C122 1.398 1_556 S
C122 H110 0.950 . S
C122 C121 1.398 1_554 S
C122 C123 1.391 . S
C123 H111 0.950 . S
C123 C119 1.393 1_554 S
C123 C122 1.391 . S
H124 C132 0.950 . S
H125 C137 0.950 . S
H126 C134 0.950 . S
H127 C136 0.950 . S
H128 C138 0.950 . S
H129 C140 0.950 . S
H130 C142 0.950 . S
H131 C143 0.950 . S
C132 H124 0.950 . S
C132 C133 1.386 . S
C132 C134 1.391 . S
C133 C132 1.386 . S
C133 C137 1.393 1_556 S
C134 H126 0.950 . S
C134 C132 1.391 . S
C134 C135 1.400 . S
C135 C134 1.400 . S
C135 C136 1.398 1_556 S
C135 C141 1.491 1_556 S
C136 H127 0.950 . S
C136 C135 1.398 1_554 S
C136 C137 1.391 . S
C137 H125 0.950 . S
C137 C133 1.393 1_554 S
C137 C136 1.391 . S
C138 H128 0.950 . S
C138 C139 1.386 . S
C138 C140 1.391 . S
C139 C138 1.386 . S
C139 C143 1.393 1_554 S
C140 H129 0.950 . S
C140 C138 1.391 . S
C140 C141 1.400 . S
C141 C135 1.491 1_554 S
C141 C140 1.400 . S
C141 C142 1.398 1_554 S
C142 H130 0.950 . S
C142 C141 1.398 1_556 S
C142 C143 1.391 . S
C143 H131 0.950 . S
C143 C139 1.393 1_556 S
C143 C142 1.391 . S
H144 C152 0.950 . S
H145 C157 0.950 . S
H146 C154 0.950 . S
H147 C156 0.950 . S
H148 C158 0.950 . S
H149 C160 0.950 . S
H150 C162 0.950 . S
H151 C163 0.950 . S
C152 H144 0.950 . S
C152 C153 1.386 . S
C152 C154 1.391 . S
C153 C152 1.386 . S
C153 C157 1.393 1_556 S
C154 H146 0.950 . S
C154 C152 1.391 . S
C154 C155 1.400 . S
C155 C154 1.400 . S
C155 C156 1.398 1_556 S
C155 C161 1.491 1_556 S
C156 H147 0.950 . S
C156 C155 1.398 1_554 S
C156 C157 1.391 . S
C157 H145 0.950 . S
C157 C153 1.393 1_554 S
C157 C156 1.391 . S
C158 H148 0.950 . S
C158 C159 1.386 . S
C158 C160 1.391 . S
C159 C158 1.386 . S
C159 C163 1.393 1_554 S
C160 H149 0.950 . S
C160 C158 1.391 . S
C160 C161 1.400 . S
C161 C155 1.491 1_554 S
C161 C160 1.400 . S
C161 C162 1.398 1_554 S
C162 H150 0.950 . S
C162 C161 1.398 1_556 S
C162 C163 1.391 . S
C163 H151 0.950 . S
C163 C159 1.393 1_556 S
C163 C162 1.391 . S
H164 C172 0.950 . S
H165 C177 0.950 . S
H166 C174 0.950 . S
H167 C176 0.950 . S
H168 C178 0.950 . S
H169 C180 0.950 . S
H170 C182 0.950 . S
H171 C183 0.950 . S
C172 H164 0.950 . S
C172 C173 1.386 1_556 S
C172 C174 1.391 . S
C173 C172 1.386 1_554 S
C173 C177 1.393 . S
C174 H166 0.950 . S
C174 C172 1.391 . S
C174 C175 1.400 1_556 S
C175 C174 1.400 1_554 S
C175 C176 1.398 . S
C175 C181 1.491 1_554 S
C176 H167 0.950 . S
C176 C175 1.398 . S
C176 C177 1.391 . S
C177 H165 0.950 . S
C177 C173 1.393 . S
C177 C176 1.391 . S
C178 H168 0.950 . S
C178 C179 1.386 1_554 S
C178 C180 1.391 . S
C179 C178 1.386 1_556 S
C179 C183 1.393 . S
C180 H169 0.950 . S
C180 C178 1.391 . S
C180 C181 1.400 1_554 S
C181 C175 1.491 1_556 S
C181 C180 1.400 1_556 S
C181 C182 1.398 . S
C182 H170 0.950 . S
C182 C181 1.398 . S
C182 C183 1.391 . S
C183 H171 0.950 . S
C183 C179 1.393 . S
C183 C182 1.391 . S
H184 C192 0.950 . S
H185 C197 0.950 . S
H186 C194 0.950 . S
H187 C196 0.950 . S
H188 C198 0.950 . S
H189 C200 0.950 . S
H190 C202 0.950 . S
H191 C203 0.950 . S
C192 H184 0.950 . S
C192 C193 1.386 . S
C192 C194 1.391 . S
C193 C192 1.386 . S
C193 C197 1.393 . S
C194 H186 0.950 . S
C194 C192 1.391 . S
C194 C195 1.400 . S
C195 C194 1.400 . S
C195 C196 1.398 . S
C195 C201 1.491 1_565 S
C196 H187 0.950 . S
C196 C195 1.398 . S
C196 C197 1.391 . S
C197 H185 0.950 . S
C197 C193 1.393 . S
C197 C196 1.391 . S
C198 H188 0.950 . S
C198 C199 1.386 . S
C198 C200 1.391 . S
C199 C198 1.386 . S
C199 C203 1.393 . S
C200 H189 0.950 . S
C200 C198 1.391 . S
C200 C201 1.400 . S
C201 C195 1.491 1_545 S
C201 C200 1.400 . S
C201 C202 1.398 . S
C202 H190 0.950 . S
C202 C201 1.398 . S
C202 C203 1.391 . S
C203 H191 0.950 . S
C203 C199 1.393 . S
C203 C202 1.391 . S
H204 C212 0.950 . S
H205 C217 0.950 . S
H206 C214 0.950 . S
H207 C216 0.950 . S
H208 C218 0.950 . S
H209 C220 0.950 . S
H210 C222 0.950 . S
H211 C223 0.950 . S
C212 H204 0.950 . S
C212 C213 1.386 . S
C212 C214 1.391 . S
C213 C212 1.386 . S
C213 C217 1.393 . S
C214 H206 0.950 . S
C214 C212 1.391 . S
C214 C215 1.400 . S
C215 C214 1.400 . S
C215 C216 1.398 . S
C215 C221 1.491 1_455 S
C216 H207 0.950 . S
C216 C215 1.398 . S
C216 C217 1.391 . S
C217 H205 0.950 . S
C217 C213 1.393 . S
C217 C216 1.391 . S
C218 H208 0.950 . S
C218 C219 1.386 . S
C218 C220 1.391 . S
C219 C218 1.386 . S
C219 C223 1.393 . S
C220 H209 0.950 . S
C220 C218 1.391 . S
C220 C221 1.400 . S
C221 C215 1.491 1_655 S
C221 C220 1.400 . S
C221 C222 1.398 . S
C222 H210 0.950 . S
C222 C221 1.398 . S
C222 C223 1.391 . S
C223 H211 0.950 . S
C223 C219 1.393 . S
C223 C222 1.391 . S
H224 C232 0.950 . S
H225 C237 0.950 . S
H226 C234 0.950 . S
H227 C236 0.950 . S
H228 C238 0.950 . S
H229 C240 0.950 . S
H230 C242 0.950 . S
H231 C243 0.950 . S
C232 H224 0.950 . S
C232 C233 1.386 . S
C232 C234 1.391 . S
C233 C232 1.386 . S
C233 C237 1.393 . S
C234 H226 0.950 . S
C234 C232 1.391 . S
C234 C235 1.400 . S
C235 C234 1.400 . S
C235 C236 1.398 . S
C235 C241 1.491 1_545 S
C236 H227 0.950 . S
C236 C235 1.398 . S
C236 C237 1.391 . S
C237 H225 0.950 . S
C237 C233 1.393 . S
C237 C236 1.391 . S
C238 H228 0.950 . S
C238 C239 1.386 . S
C238 C240 1.391 . S
C239 C238 1.386 . S
C239 C243 1.393 . S
C240 H229 0.950 . S
C240 C238 1.391 . S
C240 C241 1.400 . S
C241 C235 1.491 1_565 S
C241 C240 1.400 . S
C241 C242 1.398 . S
C242 H230 0.950 . S
C242 C241 1.398 . S
C242 C243 1.391 . S
C243 H231 0.950 . S
C243 C239 1.393 . S
C243 C242 1.391 . S
H244 C252 0.950 . S
H245 C257 0.950 . S
H246 C254 0.950 . S
H247 C256 0.950 . S
H248 C258 0.950 . S
H249 C260 0.950 . S
H250 C262 0.950 . S
H251 C263 0.950 . S
C252 H244 0.950 . S
C252 C253 1.386 . S
C252 C254 1.391 . S
C253 C252 1.386 . S
C253 C257 1.393 . S
C254 H246 0.950 . S
C254 C252 1.391 . S
C254 C255 1.400 . S
C255 C254 1.400 . S
C255 C256 1.398 . S
C255 C261 1.491 1_655 S
C256 H247 0.950 . S
C256 C255 1.398 . S
C256 C257 1.391 . S
C257 H245 0.950 . S
C257 C253 1.393 . S
C257 C256 1.391 . S
C258 H248 0.950 . S
C258 C259 1.386 . S
C258 C260 1.391 . S
C259 C258 1.386 . S
C259 C263 1.393 . S
C260 H249 0.950 . S
C260 C258 1.391 . S
C260 C261 1.400 . S
C261 C255 1.491 1_455 S
C261 C260 1.400 . S
C261 C262 1.398 . S
C262 H250 0.950 . S
C262 C261 1.398 . S
C262 C263 1.391 . S
C263 H251 0.950 . S
C263 C259 1.393 . S
C263 C262 1.391 . S
H264 C272 0.950 . S
H265 C277 0.950 . S
H266 C274 0.950 . S
H267 C276 0.950 . S
H268 C278 0.950 . S
H269 C280 0.950 . S
H270 C282 0.950 . S
H271 C283 0.950 . S
C272 H264 0.950 . S
C272 C273 1.386 . S
C272 C274 1.391 . S
C273 C272 1.386 . S
C273 C277 1.393 . S
C274 H266 0.950 . S
C274 C272 1.391 . S
C274 C275 1.400 . S
C275 C274 1.400 . S
C275 C276 1.398 . S
C275 C281 1.491 . S
C276 H267 0.950 . S
C276 C275 1.398 . S
C276 C277 1.391 . S
C277 H265 0.950 . S
C277 C273 1.393 . S
C277 C276 1.391 . S
C278 H268 0.950 . S
C278 C279 1.386 . S
C278 C280 1.391 . S
C279 C278 1.386 . S
C279 C283 1.393 . S
C280 H269 0.950 . S
C280 C278 1.391 . S
C280 C281 1.400 . S
C281 C275 1.491 . S
C281 C280 1.400 . S
C281 C282 1.398 . S
C282 H270 0.950 . S
C282 C281 1.398 . S
C282 C283 1.391 . S
C283 H271 0.950 . S
C283 C279 1.393 . S
C283 C282 1.391 . S
H284 C292 0.950 . S
H285 C297 0.950 . S
H286 C294 0.950 . S
H287 C296 0.950 . S
H288 C298 0.950 . S
H289 C300 0.950 . S
H290 C302 0.950 . S
H291 C303 0.950 . S
C292 H284 0.950 . S
C292 C293 1.386 . S
C292 C294 1.391 . S
C293 C292 1.386 . S
C293 C297 1.393 . S
C294 H286 0.950 . S
C294 C292 1.391 . S
C294 C295 1.400 . S
C295 C294 1.400 . S
C295 C296 1.398 . S
C295 C301 1.491 . S
C296 H287 0.950 . S
C296 C295 1.398 . S
C296 C297 1.391 . S
C297 H285 0.950 . S
C297 C293 1.393 . S
C297 C296 1.391 . S
C298 H288 0.950 . S
C298 C299 1.386 . S
C298 C300 1.391 . S
C299 C298 1.386 . S
C299 C303 1.393 . S
C300 H289 0.950 . S
C300 C298 1.391 . S
C300 C301 1.400 . S
C301 C295 1.491 . S
C301 C300 1.400 . S
C301 C302 1.398 . S
C302 H290 0.950 . S
C302 C301 1.398 . S
C302 C303 1.391 . S
C303 H291 0.950 . S
C303 C299 1.393 . S
C303 C302 1.391 . S
H304 C312 0.950 . S
H305 C317 0.950 . S
H306 C314 0.950 . S
H307 C316 0.950 . S
H308 C318 0.950 . S
H309 C320 0.950 . S
H310 C322 0.950 . S
H311 C323 0.950 . S
C312 H304 0.950 . S
C312 C313 1.386 . S
C312 C314 1.391 . S
C313 C312 1.386 . S
C313 C317 1.393 . S
C314 H306 0.950 . S
C314 C312 1.391 . S
C314 C315 1.400 . S
C315 C314 1.400 . S
C315 C316 1.398 . S
C315 C321 1.491 . S
C316 H307 0.950 . S
C316 C315 1.398 . S
C316 C317 1.391 . S
C317 H305 0.950 . S
C317 C313 1.393 . S
C317 C316 1.391 . S
C318 H308 0.950 . S
C318 C319 1.386 . S
C318 C320 1.391 . S
C319 C318 1.386 . S
C319 C323 1.393 . S
C320 H309 0.950 . S
C320 C318 1.391 . S
C320 C321 1.400 . S
C321 C315 1.491 . S
C321 C320 1.400 . S
C321 C322 1.398 . S
C322 H310 0.950 . S
C322 C321 1.398 . S
C322 C323 1.391 . S
C323 H311 0.950 . S
C323 C319 1.393 . S
C323 C322 1.391 . S
H324 C332 0.950 . S
H325 C337 0.950 . S
H326 C334 0.950 . S
H327 C336 0.950 . S
H328 C338 0.950 . S
H329 C340 0.950 . S
H330 C342 0.950 . S
H331 C343 0.950 . S
C332 H324 0.950 . S
C332 C333 1.386 . S
C332 C334 1.391 . S
C333 C332 1.386 . S
C333 C337 1.393 . S
C334 H326 0.950 . S
C334 C332 1.391 . S
C334 C335 1.400 . S
C335 C334 1.400 . S
C335 C336 1.398 . S
C335 C341 1.491 . S
C336 H327 0.950 . S
C336 C335 1.398 . S
C336 C337 1.391 . S
C337 H325 0.950 . S
C337 C333 1.393 . S
C337 C336 1.391 . S
C338 H328 0.950 . S
C338 C339 1.386 . S
C338 C340 1.391 . S
C339 C338 1.386 . S
C339 C343 1.393 . S
C340 H329 0.950 . S
C340 C338 1.391 . S
C340 C341 1.400 . S
C341 C335 1.491 . S
C341 C340 1.400 . S
C341 C342 1.398 . S
C342 H330 0.950 . S
C342 C341 1.398 . S
C342 C343 1.391 . S
C343 H331 0.950 . S
C343 C339 1.393 . S
C343 C342 1.391 . S
H344 C352 0.950 . S
H345 C357 0.950 . S
H346 C354 0.950 . S
H347 C356 0.950 . S
H348 C358 0.950 . S
H349 C360 0.950 . S
H350 C362 0.950 . S
H351 C363 0.950 . S
C352 H344 0.950 . S
C352 C353 1.386 . S
C352 C354 1.391 . S
C353 C352 1.386 . S
C353 C357 1.393 . S
C354 H346 0.950 . S
C354 C352 1.391 . S
C354 C355 1.400 . S
C355 C354 1.400 . S
C355 C356 1.398 . S
C355 C361 1.491 . S
C356 H347 0.950 . S
C356 C355 1.398 . S
C356 C357 1.391 . S
C357 H345 0.950 . S
C357 C353 1.393 . S
C357 C356 1.391 . S
C358 H348 0.950 . S
C358 C359 1.386 . S
C358 C360 1.391 . S
C359 C358 1.386 . S
C359 C363 1.393 . S
C360 H349 0.950 . S
C360 C358 1.391 . S
C360 C361 1.400 . S
C361 C355 1.491 . S
C361 C360 1.400 . S
C361 C362 1.398 . S
C362 H350 0.950 . S
C362 C361 1.398 . S
C362 C363 1.391 . S
C363 H351 0.950 . S
C363 C359 1.393 . S
C363 C362 1.391 . S
H364 C372 0.950 . S
H365 C377 0.950 . S
H366 C374 0.950 . S
H367 C376 0.950 . S
H368 C378 0.950 . S
H369 C380 0.950 . S
H370 C382 0.950 . S
H371 C383 0.950 . S
C372 H364 0.950 . S
C372 C373 1.386 . S
C372 C374 1.391 . S
C373 C372 1.386 . S
C373 C377 1.393 . S
C374 H366 0.950 . S
C374 C372 1.391 . S
C374 C375 1.400 . S
C375 C374 1.400 . S
C375 C376 1.398 . S
C375 C381 1.491 . S
C376 H367 0.950 . S
C376 C375 1.398 . S
C376 C377 1.391 . S
C377 H365 0.950 . S
C377 C373 1.393 . S
C377 C376 1.391 . S
C378 H368 0.950 . S
C378 C379 1.386 . S
C378 C380 1.391 . S
C379 C378 1.386 . S
C379 C383 1.393 . S
C380 H369 0.950 . S
C380 C378 1.391 . S
C380 C381 1.400 . S
C381 C375 1.491 . S
C381 C380 1.400 . S
C381 C382 1.398 . S
C382 H370 0.950 . S
C382 C381 1.398 . S
C382 C383 1.391 . S
C383 H371 0.950 . S
C383 C379 1.393 . S
C383 C382 1.391 . S
H384 C392 0.950 . S
H385 C397 0.950 . S
H386 C394 0.950 . S
H387 C396 0.950 . S
H388 C398 0.950 . S
H389 C400 0.950 . S
H390 C402 0.950 . S
H391 C403 0.950 . S
C392 H384 0.950 . S
C392 C393 1.386 . S
C392 C394 1.391 . S
C393 C392 1.386 . S
C393 C397 1.393 . S
C394 H386 0.950 . S
C394 C392 1.391 . S
C394 C395 1.400 . S
C395 C394 1.400 . S
C395 C396 1.398 . S
C395 C401 1.491 . S
C396 H387 0.950 . S
C396 C395 1.398 . S
C396 C397 1.391 . S
C397 H385 0.950 . S
C397 C393 1.393 . S
C397 C396 1.391 . S
C398 H388 0.950 . S
C398 C399 1.386 . S
C398 C400 1.391 . S
C399 C398 1.386 . S
C399 C403 1.393 . S
C400 H389 0.950 . S
C400 C398 1.391 . S
C400 C401 1.400 . S
C401 C395 1.491 . S
C401 C400 1.400 . S
C401 C402 1.398 . S
C402 H390 0.950 . S
C402 C401 1.398 . S
C402 C403 1.391 . S
C403 H391 0.950 . S
C403 C399 1.393 . S
C403 C402 1.391 . S
H404 C412 0.950 . S
H405 C417 0.950 . S
H406 C414 0.950 . S
H407 C416 0.950 . S
H408 C418 0.950 . S
H409 C420 0.950 . S
H410 C422 0.950 . S
H411 C423 0.950 . S
C412 H404 0.950 . S
C412 C413 1.386 . S
C412 C414 1.391 . S
C413 C412 1.386 . S
C413 C417 1.393 . S
C414 H406 0.950 . S
C414 C412 1.391 . S
C414 C415 1.400 . S
C415 C414 1.400 . S
C415 C416 1.398 . S
C415 C421 1.491 . S
C416 H407 0.950 . S
C416 C415 1.398 . S
C416 C417 1.391 . S
C417 H405 0.950 . S
C417 C413 1.393 . S
C417 C416 1.391 . S
C418 H408 0.950 . S
C418 C419 1.386 . S
C418 C420 1.391 . S
C419 C418 1.386 . S
C419 C423 1.393 . S
C420 H409 0.950 . S
C420 C418 1.391 . S
C420 C421 1.400 . S
C421 C415 1.491 . S
C421 C420 1.400 . S
C421 C422 1.398 . S
C422 H410 0.950 . S
C422 C421 1.398 . S
C422 C423 1.391 . S
C423 H411 0.950 . S
C423 C419 1.393 . S
C423 C422 1.391 . S
C113 C3 1.568 . S
C119 C42 1.568 . S
C133 C5 1.565 . S
C139 C18 1.565 . S
C153 C16 1.571 . S
C159 C31 1.571 . S
C173 C44 1.573 . S
C179 C29 1.573 . S
C193 C55 1.570 . S
C199 C94 1.569 . S
C213 C70 1.576 . S
C219 C57 1.576 . S
C233 C83 1.565 . S
C239 C68 1.566 . S
C253 C96 1.570 . S
C259 C81 1.570 . S
C273 C82 1.550 . S
C279 C4 1.541 . S
C293 C23 1.542 . S
C299 C95 1.548 . S
C313 C62 1.545 . S
C319 C36 1.547 . S
C333 C69 1.544 . S
C339 C49 1.548 . S
C353 C75 1.546 . S
C359 C43 1.545 . S
C373 C10 1.542 . S
C379 C88 1.551 . S
C393 C17 1.550 . S
C399 C101 1.545 . S
C413 C30 1.543 . S
C419 C56 1.548 . S
