# Generated by pormake.
# Topology sou, (8)-cn, num edge types: 1
# Building blocks:
#     Node 0, Type 0, BuildingBlock: NUHRAL_clean_sbu_3, # of connection points: 8
#     Node 1, Type 0, BuildingBlock: NUHRAL_clean_sbu_3, # of connection points: 8
#     Node 2, Type 0, BuildingBlock: NUHRAL_clean_sbu_3, # of connection points: 8
#     Node 3, Type 0, BuildingBlock: NUHRAL_clean_sbu_3, # of connection points: 8
#     Node 4, Type 0, BuildingBlock: NUHRAL_clean_sbu_3, # of connection points: 8
#     Node 5, Type 0, BuildingBlock: NUHRAL_clean_sbu_3, # of connection points: 8
#     Node 6, Type 0, BuildingBlock: NUHRAL_clean_sbu_3, # of connection points: 8
#     Node 7, Type 0, BuildingBlock: NUHRAL_clean_sbu_3, # of connection points: 8
#     Node 8, Type 0, BuildingBlock: NUHRAL_clean_sbu_3, # of connection points: 8
#     Node 9, Type 0, BuildingBlock: NUHRAL_clean_sbu_3, # of connection points: 8
#     Node 10, Type 0, BuildingBlock: NUHRAL_clean_sbu_3, # of connection points: 8
#     Node 11, Type 0, BuildingBlock: NUHRAL_clean_sbu_3, # of connection points: 8
#     Node 12, Type 0, BuildingBlock: NUHRAL_clean_sbu_3, # of connection points: 8
#     Node 13, Type 0, BuildingBlock: NUHRAL_clean_sbu_3, # of connection points: 8
#     Node 14, Type 0, BuildingBlock: NUHRAL_clean_sbu_3, # of connection points: 8
#     Node 15, Type 0, BuildingBlock: NUHRAL_clean_sbu_3, # of connection points: 8
#     Node 16, Type 0, BuildingBlock: NUHRAL_clean_sbu_3, # of connection points: 8
#     Node 17, Type 0, BuildingBlock: NUHRAL_clean_sbu_3, # of connection points: 8
#     Node 18, Type 0, BuildingBlock: NUHRAL_clean_sbu_3, # of connection points: 8
#     Node 19, Type 0, BuildingBlock: NUHRAL_clean_sbu_3, # of connection points: 8
#     Node 20, Type 0, BuildingBlock: NUHRAL_clean_sbu_3, # of connection points: 8
#     Node 21, Type 0, BuildingBlock: NUHRAL_clean_sbu_3, # of connection points: 8
#     Node 22, Type 0, BuildingBlock: NUHRAL_clean_sbu_3, # of connection points: 8
#     Node 23, Type 0, BuildingBlock: NUHRAL_clean_sbu_3, # of connection points: 8
#     Node 24, Type 0, BuildingBlock: NUHRAL_clean_sbu_3, # of connection points: 8
#     Node 25, Type 0, BuildingBlock: NUHRAL_clean_sbu_3, # of connection points: 8
#     Node 26, Type 0, BuildingBlock: NUHRAL_clean_sbu_3, # of connection points: 8
#     Node 27, Type 0, BuildingBlock: NUHRAL_clean_sbu_3, # of connection points: 8
#     Node 28, Type 0, BuildingBlock: NUHRAL_clean_sbu_3, # of connection points: 8
#     Node 29, Type 0, BuildingBlock: NUHRAL_clean_sbu_3, # of connection points: 8
#     Node 30, Type 0, BuildingBlock: NUHRAL_clean_sbu_3, # of connection points: 8
#     Node 31, Type 0, BuildingBlock: NUHRAL_clean_sbu_3, # of connection points: 8
#     Edge 32, Type (0, 0), BuildingBlock: OJICUG_clean_linker_0, # of connection points: 2
#     Edge 33, Type (0, 0), BuildingBlock: OJICUG_clean_linker_0, # of connection points: 2
#     Edge 34, Type (0, 0), BuildingBlock: OJICUG_clean_linker_0, # of connection points: 2
#     Edge 35, Type (0, 0), BuildingBlock: OJICUG_clean_linker_0, # of connection points: 2
#     Edge 36, Type (0, 0), BuildingBlock: OJICUG_clean_linker_0, # of connection points: 2
#     Edge 37, Type (0, 0), BuildingBlock: OJICUG_clean_linker_0, # of connection points: 2
#     Edge 38, Type (0, 0), BuildingBlock: OJICUG_clean_linker_0, # of connection points: 2
#     Edge 39, Type (0, 0), BuildingBlock: OJICUG_clean_linker_0, # of connection points: 2
#     Edge 40, Type (0, 0), BuildingBlock: OJICUG_clean_linker_0, # of connection points: 2
#     Edge 41, Type (0, 0), BuildingBlock: OJICUG_clean_linker_0, # of connection points: 2
#     Edge 42, Type (0, 0), BuildingBlock: OJICUG_clean_linker_0, # of connection points: 2
#     Edge 43, Type (0, 0), BuildingBlock: OJICUG_clean_linker_0, # of connection points: 2
#     Edge 44, Type (0, 0), BuildingBlock: OJICUG_clean_linker_0, # of connection points: 2
#     Edge 45, Type (0, 0), BuildingBlock: OJICUG_clean_linker_0, # of connection points: 2
#     Edge 46, Type (0, 0), BuildingBlock: OJICUG_clean_linker_0, # of connection points: 2
#     Edge 47, Type (0, 0), BuildingBlock: OJICUG_clean_linker_0, # of connection points: 2
#     Edge 48, Type (0, 0), BuildingBlock: OJICUG_clean_linker_0, # of connection points: 2
#     Edge 49, Type (0, 0), BuildingBlock: OJICUG_clean_linker_0, # of connection points: 2
#     Edge 50, Type (0, 0), BuildingBlock: OJICUG_clean_linker_0, # of connection points: 2
#     Edge 51, Type (0, 0), BuildingBlock: OJICUG_clean_linker_0, # of connection points: 2
#     Edge 52, Type (0, 0), BuildingBlock: OJICUG_clean_linker_0, # of connection points: 2
#     Edge 53, Type (0, 0), BuildingBlock: OJICUG_clean_linker_0, # of connection points: 2
#     Edge 54, Type (0, 0), BuildingBlock: OJICUG_clean_linker_0, # of connection points: 2
#     Edge 55, Type (0, 0), BuildingBlock: OJICUG_clean_linker_0, # of connection points: 2
#     Edge 56, Type (0, 0), BuildingBlock: OJICUG_clean_linker_0, # of connection points: 2
#     Edge 57, Type (0, 0), BuildingBlock: OJICUG_clean_linker_0, # of connection points: 2
#     Edge 58, Type (0, 0), BuildingBlock: OJICUG_clean_linker_0, # of connection points: 2
#     Edge 59, Type (0, 0), BuildingBlock: OJICUG_clean_linker_0, # of connection points: 2
#     Edge 60, Type (0, 0), BuildingBlock: OJICUG_clean_linker_0, # of connection points: 2
#     Edge 61, Type (0, 0), BuildingBlock: OJICUG_clean_linker_0, # of connection points: 2
#     Edge 62, Type (0, 0), BuildingBlock: OJICUG_clean_linker_0, # of connection points: 2
#     Edge 63, Type (0, 0), BuildingBlock: OJICUG_clean_linker_0, # of connection points: 2
#     Edge 64, Type (0, 0), BuildingBlock: OJICUG_clean_linker_0, # of connection points: 2
#     Edge 65, Type (0, 0), BuildingBlock: OJICUG_clean_linker_0, # of connection points: 2
#     Edge 66, Type (0, 0), BuildingBlock: OJICUG_clean_linker_0, # of connection points: 2
#     Edge 67, Type (0, 0), BuildingBlock: OJICUG_clean_linker_0, # of connection points: 2
#     Edge 68, Type (0, 0), BuildingBlock: OJICUG_clean_linker_0, # of connection points: 2
#     Edge 69, Type (0, 0), BuildingBlock: OJICUG_clean_linker_0, # of connection points: 2
#     Edge 70, Type (0, 0), BuildingBlock: OJICUG_clean_linker_0, # of connection points: 2
#     Edge 71, Type (0, 0), BuildingBlock: OJICUG_clean_linker_0, # of connection points: 2
#     Edge 72, Type (0, 0), BuildingBlock: OJICUG_clean_linker_0, # of connection points: 2
#     Edge 73, Type (0, 0), BuildingBlock: OJICUG_clean_linker_0, # of connection points: 2
#     Edge 74, Type (0, 0), BuildingBlock: OJICUG_clean_linker_0, # of connection points: 2
#     Edge 75, Type (0, 0), BuildingBlock: OJICUG_clean_linker_0, # of connection points: 2
#     Edge 76, Type (0, 0), BuildingBlock: OJICUG_clean_linker_0, # of connection points: 2
#     Edge 77, Type (0, 0), BuildingBlock: OJICUG_clean_linker_0, # of connection points: 2
#     Edge 78, Type (0, 0), BuildingBlock: OJICUG_clean_linker_0, # of connection points: 2
#     Edge 79, Type (0, 0), BuildingBlock: OJICUG_clean_linker_0, # of connection points: 2
#     Edge 80, Type (0, 0), BuildingBlock: OJICUG_clean_linker_0, # of connection points: 2
#     Edge 81, Type (0, 0), BuildingBlock: OJICUG_clean_linker_0, # of connection points: 2
#     Edge 82, Type (0, 0), BuildingBlock: OJICUG_clean_linker_0, # of connection points: 2
#     Edge 83, Type (0, 0), BuildingBlock: OJICUG_clean_linker_0, # of connection points: 2
#     Edge 84, Type (0, 0), BuildingBlock: OJICUG_clean_linker_0, # of connection points: 2
#     Edge 85, Type (0, 0), BuildingBlock: OJICUG_clean_linker_0, # of connection points: 2
#     Edge 86, Type (0, 0), BuildingBlock: OJICUG_clean_linker_0, # of connection points: 2
#     Edge 87, Type (0, 0), BuildingBlock: OJICUG_clean_linker_0, # of connection points: 2
#     Edge 88, Type (0, 0), BuildingBlock: OJICUG_clean_linker_0, # of connection points: 2
#     Edge 89, Type (0, 0), BuildingBlock: OJICUG_clean_linker_0, # of connection points: 2
#     Edge 90, Type (0, 0), BuildingBlock: OJICUG_clean_linker_0, # of connection points: 2
#     Edge 91, Type (0, 0), BuildingBlock: OJICUG_clean_linker_0, # of connection points: 2
#     Edge 92, Type (0, 0), BuildingBlock: OJICUG_clean_linker_0, # of connection points: 2
#     Edge 93, Type (0, 0), BuildingBlock: OJICUG_clean_linker_0, # of connection points: 2
#     Edge 94, Type (0, 0), BuildingBlock: OJICUG_clean_linker_0, # of connection points: 2
#     Edge 95, Type (0, 0), BuildingBlock: OJICUG_clean_linker_0, # of connection points: 2
#     Edge 96, Type (0, 0), BuildingBlock: OJICUG_clean_linker_0, # of connection points: 2
#     Edge 97, Type (0, 0), BuildingBlock: OJICUG_clean_linker_0, # of connection points: 2
#     Edge 98, Type (0, 0), BuildingBlock: OJICUG_clean_linker_0, # of connection points: 2
#     Edge 99, Type (0, 0), BuildingBlock: OJICUG_clean_linker_0, # of connection points: 2
#     Edge 100, Type (0, 0), BuildingBlock: OJICUG_clean_linker_0, # of connection points: 2
#     Edge 101, Type (0, 0), BuildingBlock: OJICUG_clean_linker_0, # of connection points: 2
#     Edge 102, Type (0, 0), BuildingBlock: OJICUG_clean_linker_0, # of connection points: 2
#     Edge 103, Type (0, 0), BuildingBlock: OJICUG_clean_linker_0, # of connection points: 2
#     Edge 104, Type (0, 0), BuildingBlock: OJICUG_clean_linker_0, # of connection points: 2
#     Edge 105, Type (0, 0), BuildingBlock: OJICUG_clean_linker_0, # of connection points: 2
#     Edge 106, Type (0, 0), BuildingBlock: OJICUG_clean_linker_0, # of connection points: 2
#     Edge 107, Type (0, 0), BuildingBlock: OJICUG_clean_linker_0, # of connection points: 2
#     Edge 108, Type (0, 0), BuildingBlock: OJICUG_clean_linker_0, # of connection points: 2
#     Edge 109, Type (0, 0), BuildingBlock: OJICUG_clean_linker_0, # of connection points: 2
#     Edge 110, Type (0, 0), BuildingBlock: OJICUG_clean_linker_0, # of connection points: 2
#     Edge 111, Type (0, 0), BuildingBlock: OJICUG_clean_linker_0, # of connection points: 2
#     Edge 112, Type (0, 0), BuildingBlock: OJICUG_clean_linker_0, # of connection points: 2
#     Edge 113, Type (0, 0), BuildingBlock: OJICUG_clean_linker_0, # of connection points: 2
#     Edge 114, Type (0, 0), BuildingBlock: OJICUG_clean_linker_0, # of connection points: 2
#     Edge 115, Type (0, 0), BuildingBlock: OJICUG_clean_linker_0, # of connection points: 2
#     Edge 116, Type (0, 0), BuildingBlock: OJICUG_clean_linker_0, # of connection points: 2
#     Edge 117, Type (0, 0), BuildingBlock: OJICUG_clean_linker_0, # of connection points: 2
#     Edge 118, Type (0, 0), BuildingBlock: OJICUG_clean_linker_0, # of connection points: 2
#     Edge 119, Type (0, 0), BuildingBlock: OJICUG_clean_linker_0, # of connection points: 2
#     Edge 120, Type (0, 0), BuildingBlock: OJICUG_clean_linker_0, # of connection points: 2
#     Edge 121, Type (0, 0), BuildingBlock: OJICUG_clean_linker_0, # of connection points: 2
#     Edge 122, Type (0, 0), BuildingBlock: OJICUG_clean_linker_0, # of connection points: 2
#     Edge 123, Type (0, 0), BuildingBlock: OJICUG_clean_linker_0, # of connection points: 2
#     Edge 124, Type (0, 0), BuildingBlock: OJICUG_clean_linker_0, # of connection points: 2
#     Edge 125, Type (0, 0), BuildingBlock: OJICUG_clean_linker_0, # of connection points: 2
#     Edge 126, Type (0, 0), BuildingBlock: OJICUG_clean_linker_0, # of connection points: 2
#     Edge 127, Type (0, 0), BuildingBlock: OJICUG_clean_linker_0, # of connection points: 2
#     Edge 128, Type (0, 0), BuildingBlock: OJICUG_clean_linker_0, # of connection points: 2
#     Edge 129, Type (0, 0), BuildingBlock: OJICUG_clean_linker_0, # of connection points: 2
#     Edge 130, Type (0, 0), BuildingBlock: OJICUG_clean_linker_0, # of connection points: 2
#     Edge 131, Type (0, 0), BuildingBlock: OJICUG_clean_linker_0, # of connection points: 2
#     Edge 132, Type (0, 0), BuildingBlock: OJICUG_clean_linker_0, # of connection points: 2
#     Edge 133, Type (0, 0), BuildingBlock: OJICUG_clean_linker_0, # of connection points: 2
#     Edge 134, Type (0, 0), BuildingBlock: OJICUG_clean_linker_0, # of connection points: 2
#     Edge 135, Type (0, 0), BuildingBlock: OJICUG_clean_linker_0, # of connection points: 2
#     Edge 136, Type (0, 0), BuildingBlock: OJICUG_clean_linker_0, # of connection points: 2
#     Edge 137, Type (0, 0), BuildingBlock: OJICUG_clean_linker_0, # of connection points: 2
#     Edge 138, Type (0, 0), BuildingBlock: OJICUG_clean_linker_0, # of connection points: 2
#     Edge 139, Type (0, 0), BuildingBlock: OJICUG_clean_linker_0, # of connection points: 2
#     Edge 140, Type (0, 0), BuildingBlock: OJICUG_clean_linker_0, # of connection points: 2
#     Edge 141, Type (0, 0), BuildingBlock: OJICUG_clean_linker_0, # of connection points: 2
#     Edge 142, Type (0, 0), BuildingBlock: OJICUG_clean_linker_0, # of connection points: 2
#     Edge 143, Type (0, 0), BuildingBlock: OJICUG_clean_linker_0, # of connection points: 2
#     Edge 144, Type (0, 0), BuildingBlock: OJICUG_clean_linker_0, # of connection points: 2
#     Edge 145, Type (0, 0), BuildingBlock: OJICUG_clean_linker_0, # of connection points: 2
#     Edge 146, Type (0, 0), BuildingBlock: OJICUG_clean_linker_0, # of connection points: 2
#     Edge 147, Type (0, 0), BuildingBlock: OJICUG_clean_linker_0, # of connection points: 2
#     Edge 148, Type (0, 0), BuildingBlock: OJICUG_clean_linker_0, # of connection points: 2
#     Edge 149, Type (0, 0), BuildingBlock: OJICUG_clean_linker_0, # of connection points: 2
#     Edge 150, Type (0, 0), BuildingBlock: OJICUG_clean_linker_0, # of connection points: 2
#     Edge 151, Type (0, 0), BuildingBlock: OJICUG_clean_linker_0, # of connection points: 2
#     Edge 152, Type (0, 0), BuildingBlock: OJICUG_clean_linker_0, # of connection points: 2
#     Edge 153, Type (0, 0), BuildingBlock: OJICUG_clean_linker_0, # of connection points: 2
#     Edge 154, Type (0, 0), BuildingBlock: OJICUG_clean_linker_0, # of connection points: 2
#     Edge 155, Type (0, 0), BuildingBlock: OJICUG_clean_linker_0, # of connection points: 2
#     Edge 156, Type (0, 0), BuildingBlock: OJICUG_clean_linker_0, # of connection points: 2
#     Edge 157, Type (0, 0), BuildingBlock: OJICUG_clean_linker_0, # of connection points: 2
#     Edge 158, Type (0, 0), BuildingBlock: OJICUG_clean_linker_0, # of connection points: 2
#     Edge 159, Type (0, 0), BuildingBlock: OJICUG_clean_linker_0, # of connection points: 2
# Relax obj value: 0.058
# Max RMSD: 0.153
# Mean RMSD: 0.153
data_MOF--net-sou--node1-NUHRAL_clean_sbu_3--edge1-OJICUG_clean_linker_0
_symmetry_space_group_name_H-M    P1
_symmetry_Int_Tables_number       1
_symmetry_cell_setting            triclinic
loop_
_symmetry_equiv_pos_as_xyz
'x, y, z'
_cell_length_a     70.072233
_cell_length_b     33.850252
_cell_length_c     29.599422
_cell_angle_alpha  90.056661
_cell_angle_beta   90.129248
_cell_angle_gamma 90.055506
loop_
_atom_site_label
_atom_site_type_symbol
_atom_site_fract_x
_atom_site_fract_y
_atom_site_fract_z
_atom_type_partial_charge
C0 C 0.08408 0.34276 0.01205 0.0
C1 C 0.09699 0.36793 0.98877 0.0
C2 C 0.11703 0.36375 0.99477 0.0
C3 C 0.12363 0.33181 0.02065 0.0
C4 C 0.1113 0.31195 0.04976 0.0
C5 C 0.09152 0.31575 0.04355 0.0
O6 O 0.01672 0.39182 0.05836 0.0
Tb7 Tb 0.0276 0.35552 1.0018 0.0
O8 O 0.02202 0.41226 0.96977 0.0
O9 O 1.00933 0.34789 0.11496 0.0
Eu10 Eu 0.99648 0.29983 0.07042 0.0
O11 O 0.05481 0.366 0.97411 0.0
C12 C 0.96105 0.31419 0.05111 0.0
O13 O 0.05091 0.33276 0.03831 0.0
O14 O 0.01151 0.26232 0.0183 0.0
O15 O 0.01473 0.307 0.96094 0.0
C16 C 0.06293 0.34751 0.00824 0.0
C17 C 0.01459 0.22496 0.11228 0.0
O18 O 0.03015 0.24369 0.09984 0.0
C19 C 0.01306 0.38416 0.10118 0.0
C20 C 0.0131 0.26991 0.97505 0.0
O21 O 0.99809 0.24309 0.10899 0.0
C22 C 0.942 0.30554 0.0315 0.0
C23 C 0.9115 0.33316 0.00765 0.0
C24 C 0.93048 0.33834 0.02126 0.0
C25 C 0.93412 0.26694 0.02807 0.0
C26 C 0.91515 0.26202 0.01231 0.0
C27 C 0.90439 0.29522 1.00128 0.0
C28 C 1.00585 0.43103 0.97718 0.0
O29 O 0.99101 0.41059 0.99104 0.0
O30 O 0.96646 0.29506 0.08761 0.0
O31 O 0.97521 0.32568 0.02483 0.0
H32 H 0.09142 0.39205 0.96871 0.0
H33 H 0.13883 0.3273 0.02493 0.0
H34 H 0.082 0.30036 0.06639 0.0
H35 H 0.93589 0.36798 0.0269 0.0
H36 H 0.9425 0.24141 0.03769 0.0
H37 H 0.8897 0.29152 0.99021 0.0
C38 C 0.18586 0.93799 0.00979 0.0
C39 C 0.17733 0.90736 0.98429 0.0
C40 C 0.15735 0.90409 0.98224 0.0
C41 C 0.14624 0.93251 0.00361 0.0
C42 C 0.15406 0.95568 0.03837 0.0
C43 C 0.17417 0.96024 0.0393 0.0
O44 O 0.24614 0.89686 0.0699 0.0
Tb45 Tb 0.24089 0.932 0.00831 0.0
O46 O 0.24576 0.87288 0.98175 0.0
O47 O 0.26668 0.932 0.11711 0.0
Eu48 Eu 0.27386 0.98645 0.07519 0.0
O49 O 0.21571 0.93044 0.97096 0.0
C50 C 0.30906 0.98673 0.04989 0.0
O51 O 0.21693 0.95976 0.03756 0.0
O52 O 0.25608 0.02121 0.02538 0.0
O53 O 0.2573 0.97638 0.96927 0.0
C54 C 0.2062 0.94933 1.0027 0.0
C55 C 0.25424 0.05937 0.11964 0.0
O56 O 0.23872 0.04252 0.10369 0.0
C57 C 0.25643 0.90022 0.10728 0.0
C58 C 0.25698 1.01376 0.98212 0.0
O59 O 0.27036 0.03962 0.11945 0.0
C60 C 0.32924 0.98845 0.03571 0.0
C61 C 0.35746 0.95444 0.00914 0.0
C62 C 0.33838 0.9535 0.02264 0.0
C63 C 0.33982 0.02411 0.03759 0.0
C64 C 0.35918 0.025 0.02381 0.0
C65 C 0.36725 0.99012 0.00714 0.0
C66 C 0.26157 0.85391 0.99243 0.0
O67 O 0.27601 0.87428 0.00872 0.0
O68 O 0.30328 1.00426 0.08702 0.0
O69 O 0.29578 0.96769 0.02681 0.0
H70 H 0.18605 0.88616 0.96627 0.0
H71 H 0.13098 0.93134 0.99833 0.0
H72 H 0.18086 0.98038 0.06288 0.0
H73 H 0.33093 0.92545 0.02465 0.0
H74 H 0.33302 0.05062 0.0502 0.0
H75 H 0.3818 0.98976 0.99489 0.0
C76 C 0.08551 0.94411 0.24518 0.0
C77 C 0.09807 0.9176 0.26766 0.0
C78 C 0.118 0.91863 0.25875 0.0
C79 C 0.12495 0.9489 0.23082 0.0
C80 C 0.11265 0.97001 0.20286 0.0
C81 C 0.093 0.9688 0.21134 0.0
O82 O 0.02484 0.89424 0.19198 0.0
Tb83 Tb 0.03054 0.92918 0.25409 0.0
O84 O 0.02604 0.87049 0.28192 0.0
O85 O 1.00442 0.93017 0.1455 0.0
Eu86 Eu 0.99779 0.98421 0.18849 0.0
O87 O 0.05711 0.92451 0.28698 0.0
C88 C 0.96283 0.98403 0.21539 0.0
O89 O 0.05297 0.96207 0.22686 0.0
O90 O 0.01608 0.01821 0.23802 0.0
O91 O 0.01441 0.97355 0.29422 0.0
C92 C 0.06503 0.94894 0.25782 0.0
C93 C 0.01681 0.05667 0.14176 0.0
O94 O 0.03242 0.04055 0.15804 0.0
C95 C 0.01441 0.898 0.15478 0.0
C96 C 0.0149 1.01098 0.2813 0.0
O97 O 1.00071 0.03689 0.14339 0.0
C98 C 0.94282 0.98468 0.23071 0.0
C99 C 0.91434 0.94813 0.25161 0.0
C100 C 0.93362 0.94871 0.23933 0.0
C101 C 0.93241 0.02036 0.23395 0.0
C102 C 0.91314 0.01963 0.24771 0.0
C103 C 0.90442 0.98347 0.25687 0.0
C104 C 0.01037 0.85113 0.271 0.0
O105 O 0.996 0.87109 0.25386 0.0
O106 O 0.9683 1.0029 0.1789 0.0
O107 O 0.97626 0.96418 0.23687 0.0
H108 H 0.09228 0.89592 0.29074 0.0
H109 H 0.14014 0.95196 0.22519 0.0
H110 H 0.08354 0.98611 0.19016 0.0
H111 H 0.94119 0.92108 0.23454 0.0
H112 H 0.93925 0.0483 0.22638 0.0
H113 H 0.88937 0.98274 0.26546 0.0
C114 C 0.18389 0.34068 0.24748 0.0
C115 C 0.17457 0.37 0.27345 0.0
C116 C 0.1545 0.37162 0.27433 0.0
C117 C 0.1442 0.34222 0.25235 0.0
C118 C 0.1527 0.32171 0.21654 0.0
C119 C 0.17283 0.31858 0.21628 0.0
O120 O 0.24302 0.38308 0.18555 0.0
Tb121 Tb 0.23898 0.349 0.2484 0.0
O122 O 0.24407 0.40887 0.27308 0.0
O123 O 0.26763 0.35408 0.14447 0.0
Eu124 Eu 0.27621 0.3002 0.18548 0.0
O125 O 0.21382 0.35184 0.28565 0.0
C126 C 0.31152 0.30768 0.20914 0.0
O127 O 0.21515 0.31907 0.22121 0.0
O128 O 0.2598 0.26107 0.2335 0.0
O129 O 0.25552 0.3059 0.28939 0.0
C130 C 0.2044 0.33093 0.25529 0.0
C131 C 0.25676 0.22889 0.13841 0.0
O132 O 0.24139 0.2478 0.15165 0.0
C133 C 0.25517 0.38278 0.15135 0.0
C134 C 0.25765 0.2687 0.27648 0.0
O135 O 0.27341 0.24653 0.14178 0.0
C136 C 0.33076 0.29969 0.22754 0.0
C137 C 0.36001 0.32822 0.25705 0.0
C138 C 0.34112 0.33246 0.24295 0.0
C139 C 0.34003 0.26261 0.22386 0.0
C140 C 0.3593 0.25852 0.23812 0.0
C141 C 0.36836 0.29112 0.25799 0.0
C142 C 0.25962 0.42802 0.26073 0.0
O143 O 0.27378 0.4078 0.24311 0.0
O144 O 0.30617 0.29083 0.17111 0.0
O145 O 0.29746 0.32007 0.23516 0.0
H146 H 0.18275 0.39177 0.29213 0.0
H147 H 0.12879 0.34253 0.25555 0.0
H148 H 0.17988 0.30014 0.19153 0.0
H149 H 0.33494 0.3618 0.24101 0.0
H150 H 0.33261 0.23796 0.20848 0.0
H151 H 0.38289 0.2889 0.27037 0.0
C152 C 0.07812 0.73263 0.97232 0.0
C153 C 0.08906 0.76784 0.9707 0.0
C154 C 0.10885 0.76698 0.98019 0.0
C155 C 0.11733 0.73066 0.99022 0.0
C156 C 0.10672 0.69594 0.99134 0.0
C157 C 0.0871 0.69678 0.98273 0.0
O158 O 1.00751 0.76885 0.98629 0.0
Tb159 Tb 0.02364 0.73432 0.93647 0.0
O160 O 0.02073 0.78618 0.89411 0.0
O161 O 1.00638 0.72486 0.04365 0.0
Eu162 Eu 0.98903 0.68041 1.00153 0.0
O163 O 0.05178 0.75127 0.92329 0.0
C164 C 0.95303 0.69934 1.00295 0.0
O165 O 0.04449 0.71305 0.98208 0.0
O166 O 0.99663 0.64502 0.93864 0.0
O167 O 0.01652 0.68293 0.89309 0.0
C168 C 0.05779 0.73212 0.95917 0.0
C169 C 1.00845 0.59868 0.01785 0.0
O170 O 0.02344 0.619 0.00475 0.0
C171 C 1.00817 0.76175 0.02987 0.0
C172 C 1.00706 0.64977 0.90195 0.0
O173 O 0.99258 0.61794 0.02695 0.0
C174 C 0.93216 0.69185 0.99577 0.0
C175 C 0.902 0.71207 0.96091 0.0
C176 C 0.92214 0.71029 0.95987 0.0
C177 C 0.92152 0.66934 0.02748 0.0
C178 C 0.90127 0.6708 0.02784 0.0
C179 C 0.89285 0.69946 1.00024 0.0
C180 C 1.0047 0.80622 0.89253 0.0
O181 O 0.98903 0.79013 0.90845 0.0
O182 O 0.96179 0.6805 0.03594 0.0
O183 O 0.96434 0.70884 0.96895 0.0
H184 H 0.08219 0.79552 0.96218 0.0
H185 H 0.13269 0.7287 0.99444 0.0
H186 H 0.07908 0.66937 0.98193 0.0
H187 H 0.92991 0.72306 0.93188 0.0
H188 H 0.92907 0.65155 0.05194 0.0
H189 H 0.87816 0.70779 0.00451 0.0
C190 C 0.692 0.05084 0.97248 0.0
C191 C 0.68266 1.0136 0.96924 0.0
C192 C 0.66365 1.00919 0.98532 0.0
C193 C 0.65492 0.04158 0.00631 0.0
C194 C 0.66329 0.07873 0.00545 0.0
C195 C 0.6819 0.08321 0.98969 0.0
O196 O 0.75992 1.01453 0.98221 0.0
Tb197 Tb 0.74475 0.04904 0.93043 0.0
O198 O 0.74619 0.99355 0.8931 0.0
O199 O 0.76132 0.05845 0.04022 0.0
Eu200 Eu 0.77895 0.1029 0.99939 0.0
O201 O 0.71589 0.04068 0.91482 0.0
C202 C 0.81485 0.08293 0.99942 0.0
O203 O 0.72492 0.07351 0.97593 0.0
O204 O 0.77082 0.13913 0.93759 0.0
O205 O 0.75431 0.09905 0.88702 0.0
C206 C 0.71059 0.06025 0.95107 0.0
C207 C 0.75938 0.18392 0.01798 0.0
O208 O 0.74451 0.16356 0.00395 0.0
C209 C 0.75931 0.02174 0.02586 0.0
C210 C 0.76203 0.13364 0.89863 0.0
O211 O 0.77538 0.16484 0.02651 0.0
C212 C 0.83529 0.09048 0.98785 0.0
C213 C 0.86511 0.06512 0.95522 0.0
C214 C 0.84537 0.06129 0.96332 0.0
C215 C 0.84525 0.12465 1.0029 0.0
C216 C 0.86498 0.12856 0.99436 0.0
C217 C 0.8746 0.09832 0.97223 0.0
C218 C 0.76219 0.97327 0.89108 0.0
O219 O 0.77813 0.99014 0.90447 0.0
O220 O 0.80687 0.10405 0.03168 0.0
O221 O 0.80282 0.072 0.96729 0.0
H222 H 0.68974 0.98913 0.95269 0.0
H223 H 0.64058 0.03908 0.0197 0.0
H224 H 0.688 0.11266 0.98776 0.0
H225 H 0.83784 0.0357 0.95031 0.0
H226 H 0.83774 0.14814 0.02021 0.0
H227 H 0.88959 0.10286 0.96465 0.0
C228 C 0.0782 0.05536 0.78349 0.0
C229 C 0.08803 0.01856 0.78428 0.0
C230 C 0.10742 0.01673 0.77036 0.0
C231 C 0.11654 0.05169 0.75751 0.0
C232 C 0.10709 0.08757 0.75748 0.0
C233 C 0.08796 0.08951 0.76985 0.0
O234 O 0.01044 1.01367 0.76835 0.0
Tb235 Tb 0.0248 0.04856 0.82087 0.0
O236 O 0.02291 0.99344 0.85782 0.0
O237 O 0.0103 0.05748 0.71024 0.0
Eu238 Eu 0.99325 0.10298 0.75069 0.0
O239 O 0.05352 0.04103 0.83805 0.0
C240 C 0.95758 0.0817 0.75547 0.0
O241 O 0.04485 0.07507 0.77742 0.0
O242 O 1.00312 0.14006 0.81046 0.0
O243 O 0.01367 0.0962 0.86476 0.0
C244 C 0.05899 0.06191 0.80292 0.0
C245 C 0.01148 0.18488 0.72887 0.0
O246 O 0.02696 0.16519 0.73993 0.0
C247 C 0.01149 0.02068 0.72477 0.0
C248 C 1.00897 0.13245 0.85184 0.0
O249 O 0.9955 0.16495 0.72273 0.0
C250 C 0.93739 0.08973 0.76881 0.0
C251 C 0.90905 0.06849 0.81058 0.0
C252 C 0.92844 0.06395 0.79974 0.0
C253 C 0.92636 0.1199 0.74801 0.0
C254 C 0.90686 0.12517 0.75917 0.0
C255 C 0.89888 0.09995 0.79151 0.0
C256 C 1.00652 0.97462 0.86025 0.0
O257 O 0.9909 0.99275 0.84711 0.0
O258 O 0.96485 0.10129 0.72108 0.0
O259 O 0.97025 0.07294 0.78707 0.0
H260 H 0.08084 0.99216 0.79596 0.0
H261 H 0.13173 0.05173 0.75037 0.0
H262 H 0.08107 0.11816 0.77191 0.0
H263 H 0.93652 0.04012 0.81499 0.0
H264 H 0.93293 0.13883 0.72304 0.0
H265 H 0.88465 0.10585 0.80388 0.0
C266 C 0.69123 0.72702 0.78386 0.0
C267 C 0.68444 0.76658 0.78121 0.0
C268 C 0.66518 0.77366 0.76854 0.0
C269 C 0.65319 0.74187 0.75927 0.0
C270 C 0.65968 0.70345 0.76298 0.0
C271 C 0.6786 0.69583 0.77473 0.0
O272 O 0.75932 0.76327 0.76791 0.0
Tb273 Tb 0.7446 0.72808 0.81903 0.0
O274 O 0.74591 0.78408 0.85541 0.0
O275 O 0.76209 0.72001 0.70837 0.0
Eu276 Eu 0.77357 0.66496 0.74658 0.0
O277 O 0.71618 0.73225 0.83934 0.0
C278 C 0.81041 0.67269 0.75517 0.0
O279 O 0.72403 0.70525 0.77384 0.0
O280 O 0.76057 0.63138 0.80534 0.0
O281 O 0.75693 0.67976 0.86017 0.0
C282 C 0.71019 0.71544 0.80181 0.0
C283 C 0.76058 0.58069 0.69032 0.0
O284 O 0.75558 0.56867 0.64991 0.0
C285 C 0.76048 0.75667 0.72424 0.0
C286 C 0.75871 0.64209 0.84806 0.0
O287 O 0.76558 0.6187 0.69329 0.0
C288 C 0.83156 0.67784 0.76079 0.0
C289 C 0.8584 0.71244 0.79688 0.0
C290 C 0.83861 0.70633 0.79152 0.0
C291 C 0.84492 0.65326 0.73818 0.0
C292 C 0.86479 0.65978 0.74368 0.0
C293 C 0.87089 0.69301 0.76788 0.0
C294 C 0.76197 0.80415 0.85816 0.0
O295 O 0.77794 0.78696 0.84578 0.0
O296 O 0.80266 0.64789 0.7262 0.0
O297 O 0.79805 0.69236 0.78004 0.0
H298 H 0.69379 0.79108 0.78932 0.0
H299 H 0.6383 0.74707 0.75077 0.0
H300 H 0.68322 0.66546 0.77901 0.0
H301 H 0.82886 0.72179 0.81371 0.0
H302 H 0.83996 0.62811 0.71876 0.0
H303 H 0.8861 0.69817 0.77163 0.0
C304 C 0.08532 0.83967 0.51578 0.0
C305 C 0.09722 0.86849 0.49503 0.0
C306 C 0.11675 0.87102 0.50689 0.0
C307 C 0.12432 0.84322 0.53674 0.0
C308 C 0.11277 0.81663 0.56016 0.0
C309 C 0.09325 0.81478 0.54931 0.0
O310 O 0.0253 0.88695 0.56476 0.0
Tb311 Tb 0.03062 0.85159 0.50355 0.0
O312 O 0.02545 0.91043 0.47628 0.0
O313 O 1.00594 0.85094 0.61349 0.0
Eu314 Eu 0.99628 0.79827 0.57142 0.0
O315 O 0.05723 0.85645 0.47127 0.0
C316 C 0.95998 0.80416 0.55685 0.0
O317 O 0.053 0.81844 0.53088 0.0
O318 O 0.01139 0.76176 0.51826 0.0
O319 O 0.01387 0.80847 0.46314 0.0
C320 C 0.06521 0.83237 0.50081 0.0
C321 C 0.01661 0.72514 0.61301 0.0
O322 O 0.03169 0.74196 0.59504 0.0
C323 C 0.01566 0.88312 0.60284 0.0
C324 C 0.01246 0.77097 0.47541 0.0
O325 O 1.00038 0.74443 0.61392 0.0
C326 C 0.94047 0.79403 0.54155 0.0
C327 C 0.90934 0.81984 0.5189 0.0
C328 C 0.92834 0.82594 0.53235 0.0
C329 C 0.93316 0.75501 0.53967 0.0
C330 C 0.9141 0.74874 0.52553 0.0
C331 C 0.90282 0.78119 0.5139 0.0
C332 C 1.00957 0.92899 0.48728 0.0
O333 O 0.99555 0.90833 0.50492 0.0
O334 O 0.9672 0.78606 0.59219 0.0
O335 O 0.9727 0.81878 0.52857 0.0
H336 H 0.09131 0.88916 0.47086 0.0
H337 H 0.13935 0.8452 0.54514 0.0
H338 H 0.08428 0.79369 0.56684 0.0
H339 H 0.93371 0.85563 0.5374 0.0
H340 H 0.94212 0.73013 0.54856 0.0
H341 H 0.88851 0.77589 0.5015 0.0
C342 C 0.18722 0.43742 0.50723 0.0
C343 C 0.17877 0.40851 0.47905 0.0
C344 C 0.15879 0.40546 0.47627 0.0
C345 C 0.14768 0.43308 0.49889 0.0
C346 C 0.15533 0.45294 0.53627 0.0
C347 C 0.1754 0.45755 0.53845 0.0
O348 O 0.24735 0.39409 0.56733 0.0
Tb349 Tb 0.24221 0.43074 0.50673 0.0
O350 O 0.2467 0.37167 0.47949 0.0
O351 O 0.26662 0.42998 0.61644 0.0
Eu352 Eu 0.27398 0.48443 0.5749 0.0
O353 O 0.2172 0.431 0.46898 0.0
C354 C 0.30976 0.4862 0.55501 0.0
O355 O 0.21824 0.45786 0.53694 0.0
O356 O 0.2573 0.52034 0.524 0.0
O357 O 0.25871 0.47534 0.46805 0.0
C358 C 0.20762 0.44887 0.50138 0.0
C359 C 0.25241 0.55433 0.62005 0.0
O360 O 0.2375 0.53694 0.60178 0.0
C361 C 0.257 0.39768 0.60561 0.0
C362 C 0.25826 0.51279 0.48076 0.0
O363 O 0.26886 0.53583 0.62069 0.0
C364 C 0.3302 0.48951 0.54385 0.0
C365 C 0.36048 0.45727 0.52984 0.0
C366 C 0.34077 0.45487 0.53646 0.0
C367 C 0.33958 0.52664 0.54349 0.0
C368 C 0.35942 0.52868 0.53537 0.0
C369 C 0.36958 0.49362 0.5298 0.0
C370 C 0.26245 0.35226 0.4897 0.0
O371 O 0.27709 0.37224 0.50558 0.0
O372 O 0.30274 0.50392 0.59078 0.0
O373 O 0.29737 0.46641 0.53002 0.0
H374 H 0.18754 0.38815 0.45994 0.0
H375 H 0.13235 0.43206 0.49414 0.0
H376 H 0.18185 0.47564 0.56452 0.0
H377 H 0.33385 0.42621 0.53748 0.0
H378 H 0.33151 0.55351 0.54883 0.0
H379 H 0.38499 0.49433 0.52605 0.0
C380 C 0.08433 0.44058 0.74687 0.0
C381 C 0.09616 0.417 0.77509 0.0
C382 C 0.11588 0.41224 0.76547 0.0
C383 C 0.12349 0.43248 0.72832 0.0
C384 C 0.11203 0.4549 0.69969 0.0
C385 C 0.09253 0.45893 0.70886 0.0
O386 O 0.02384 0.39366 0.69229 0.0
Tb387 Tb 0.02932 0.43055 0.7529 0.0
O388 O 0.02435 0.37164 0.78004 0.0
O389 O 1.0085 0.43262 0.63912 0.0
Eu390 Eu 0.99693 0.48225 0.68278 0.0
O391 O 0.05525 0.42684 0.78842 0.0
C392 C 0.96113 0.46978 0.69977 0.0
O393 O 0.05247 0.4616 0.72582 0.0
O394 O 0.01164 0.52022 0.73537 0.0
O395 O 0.01264 0.47489 0.79177 0.0
C396 C 0.06397 0.4492 0.75838 0.0
C397 C 0.01571 0.55674 0.64096 0.0
O398 O 0.03121 0.53869 0.65506 0.0
C399 C 0.01624 0.39882 0.65174 0.0
C400 C 0.01188 0.5123 0.77866 0.0
O401 O 0.99926 0.53822 0.64305 0.0
C402 C 0.94245 0.48234 0.71814 0.0
C403 C 0.91155 0.46135 0.74769 0.0
C404 C 0.93038 0.45262 0.73514 0.0
C405 C 0.93536 0.52134 0.71355 0.0
C406 C 0.91649 0.52992 0.72681 0.0
C407 C 0.90513 0.50022 0.74507 0.0
C408 C 1.00855 0.35266 0.76912 0.0
O409 O 0.99411 0.37316 0.75317 0.0
O410 O 0.96728 0.48712 0.66281 0.0
O411 O 0.97485 0.45861 0.72764 0.0
H412 H 0.09004 0.40222 0.80407 0.0
H413 H 0.13812 0.42734 0.71805 0.0
H414 H 0.08374 0.4758 0.6857 0.0
H415 H 0.93529 0.42225 0.73587 0.0
H416 H 0.94422 0.54437 0.69925 0.0
H417 H 0.89074 0.50734 0.75591 0.0
C418 C 0.18543 0.84278 0.74814 0.0
C419 C 0.17658 0.87607 0.76807 0.0
C420 C 0.1567 0.88127 0.76433 0.0
C421 C 0.14585 0.85383 0.74032 0.0
C422 C 0.15427 0.82216 0.71726 0.0
C423 C 0.17413 0.8162 0.72268 0.0
O424 O 0.24779 0.88881 0.69424 0.0
Tb425 Tb 0.24073 0.85108 0.75294 0.0
O426 O 0.2453 0.90968 0.78184 0.0
O427 O 0.25946 0.84766 0.63822 0.0
Eu428 Eu 0.27182 0.79794 0.68083 0.0
O429 O 0.21505 0.85245 0.78844 0.0
C430 C 0.30791 0.80912 0.69485 0.0
O431 O 0.21705 0.82373 0.72163 0.0
O432 O 0.25807 0.76034 0.73477 0.0
O433 O 0.25693 0.80577 0.79139 0.0
C434 C 0.20597 0.83319 0.75615 0.0
C435 C 0.25224 0.72342 0.64129 0.0
O436 O 0.23703 0.74124 0.65724 0.0
C437 C 0.25357 0.88265 0.65233 0.0
C438 C 0.25789 0.76841 0.77805 0.0
O439 O 0.26858 0.7424 0.64077 0.0
C440 C 0.327 0.79896 0.7129 0.0
C441 C 0.3578 0.8249 0.73853 0.0
C442 C 0.33932 0.83079 0.72117 0.0
C443 C 0.33379 0.75991 0.71871 0.0
C444 C 0.35234 0.75393 0.73624 0.0
C445 C 0.3635 0.78637 0.74833 0.0
C446 C 0.26143 0.9286 0.77408 0.0
O447 O 0.27617 0.90824 0.75961 0.0
O448 O 0.30124 0.78953 0.65984 0.0
O449 O 0.29468 0.82283 0.72242 0.0
H450 H 0.18505 0.89802 0.78575 0.0
H451 H 0.1309 0.86068 0.73529 0.0
H452 H 0.18092 0.7911 0.70673 0.0
H453 H 0.33443 0.8601 0.71239 0.0
H454 H 0.32488 0.73487 0.70997 0.0
H455 H 0.37713 0.78085 0.76438 0.0
C456 C 0.07884 0.23594 0.47224 0.0
C457 C 0.09004 0.27072 0.46938 0.0
C458 C 0.10988 0.26934 0.47835 0.0
C459 C 0.11805 0.2329 0.48919 0.0
C460 C 0.10711 0.19873 0.49187 0.0
C461 C 0.08751 0.2001 0.4838 0.0
O462 O 1.00797 0.26833 0.48522 0.0
Tb463 Tb 0.02459 0.23553 0.43503 0.0
O464 O 0.02126 0.28718 0.39239 0.0
O465 O 1.00842 0.22479 0.54289 0.0
Eu466 Eu 0.99081 0.1806 0.5013 0.0
O467 O 0.05263 0.25407 0.42225 0.0
C468 C 0.95511 0.20163 0.50308 0.0
O469 O 0.04544 0.21579 0.48108 0.0
O470 O 0.99728 0.14639 0.43692 0.0
O471 O 0.01849 0.18275 0.39304 0.0
C472 C 0.05863 0.23541 0.45847 0.0
C473 C 0.01065 0.09895 0.51436 0.0
O474 O 0.02504 0.11951 0.49833 0.0
C475 C 1.00963 0.26166 0.52873 0.0
C476 C 1.00839 0.15027 0.40125 0.0
O477 O 0.99496 0.11792 0.52591 0.0
C478 C 0.93472 0.19508 0.49048 0.0
C479 C 0.90563 0.22103 0.45489 0.0
C480 C 0.92529 0.2241 0.46433 0.0
C481 C 0.9242 0.16192 0.50588 0.0
C482 C 0.90451 0.15902 0.49656 0.0
C483 C 0.89547 0.18901 0.47261 0.0
C484 C 1.00533 0.30762 0.39187 0.0
O485 O 0.98973 0.29182 0.40853 0.0
O486 O 0.963 0.17869 0.53389 0.0
O487 O 0.96715 0.21375 0.47171 0.0
H488 H 0.08335 0.29837 0.46005 0.0
H489 H 0.13341 0.23017 0.49249 0.0
H490 H 0.07928 0.17294 0.4838 0.0
H491 H 0.93328 0.24885 0.45088 0.0
H492 H 0.93126 0.13837 0.52417 0.0
H493 H 0.88056 0.18486 0.46382 0.0
C494 C 0.69441 0.55239 0.46175 0.0
C495 C 0.68672 0.51351 0.46403 0.0
C496 C 0.6674 0.50812 0.477 0.0
C497 C 0.65616 0.54122 0.48587 0.0
C498 C 0.6636 0.57898 0.48313 0.0
C499 C 0.68265 0.58476 0.47152 0.0
O500 O 0.76166 0.5146 0.48335 0.0
Tb501 Tb 0.74807 0.5492 0.42942 0.0
O502 O 0.74995 0.49411 0.39257 0.0
O503 O 0.75919 0.55898 0.54061 0.0
Eu504 Eu 0.77661 0.60516 0.50257 0.0
O505 O 0.71979 0.5425 0.40852 0.0
C506 C 0.81223 0.58376 0.5017 0.0
O507 O 0.72713 0.57469 0.47135 0.0
O508 O 0.76708 0.64222 0.44252 0.0
O509 O 0.75992 0.59696 0.38682 0.0
C510 C 0.71353 0.56215 0.44382 0.0
C511 C 0.75802 0.68646 0.52429 0.0
O512 O 0.74258 0.66661 0.51309 0.0
C513 C 0.75958 0.52195 0.52664 0.0
C514 C 0.76298 0.63386 0.40017 0.0
O515 O 0.77397 0.66672 0.53104 0.0
C516 C 0.83318 0.58754 0.49361 0.0
C517 C 0.86184 0.56248 0.45626 0.0
C518 C 0.84189 0.56299 0.46113 0.0
C519 C 0.84483 0.6143 0.51822 0.0
C520 C 0.86488 0.61332 0.51327 0.0
C521 C 0.87311 0.5841 0.4863 0.0
C522 C 0.76591 0.47382 0.39227 0.0
O523 O 0.78166 0.49053 0.40711 0.0
O524 O 0.8044 0.60353 0.53525 0.0
O525 O 0.80038 0.57591 0.46801 0.0
H526 H 0.69551 0.4882 0.4559 0.0
H527 H 0.64112 0.53769 0.49385 0.0
H528 H 0.68807 0.61467 0.46815 0.0
H529 H 0.83317 0.54593 0.43793 0.0
H530 H 0.83838 0.63679 0.5393 0.0
H531 H 0.88843 0.58502 0.48068 0.0
C532 C 0.07914 0.55276 0.28273 0.0
C533 C 0.08756 0.5146 0.28289 0.0
C534 C 0.10686 0.50999 0.26968 0.0
C535 C 0.11735 0.5436 0.25809 0.0
C536 C 0.10951 0.58121 0.26057 0.0
C537 C 0.09025 0.58569 0.27112 0.0
O538 O 0.01178 0.51231 0.27072 0.0
Tb539 Tb 0.0261 0.54972 0.32125 0.0
O540 O 0.02412 0.49506 0.35922 0.0
O541 O 1.00586 0.55563 0.21319 0.0
Eu542 Eu 0.99104 0.60278 0.25623 0.0
O543 O 0.05473 0.54215 0.33825 0.0
C544 C 0.95443 0.59391 0.25821 0.0
O545 O 0.04611 0.57402 0.27599 0.0
O546 O 0.99907 0.63802 0.31843 0.0
O547 O 0.01692 0.5983 0.3663 0.0
C548 C 0.06022 0.56157 0.30206 0.0
C549 C 0.01327 0.68196 0.24065 0.0
O550 O 0.02729 0.6615 0.25862 0.0
C551 C 1.00954 0.5194 0.22734 0.0
C552 C 1.00829 0.63211 0.35653 0.0
O553 O 0.9976 0.66325 0.22819 0.0
C554 C 0.93327 0.58942 0.25856 0.0
C555 C 0.90434 0.56141 0.29091 0.0
C556 C 0.92427 0.56588 0.29159 0.0
C557 C 0.92164 0.61291 0.22994 0.0
C558 C 0.90152 0.60841 0.23002 0.0
C559 C 0.89413 0.57617 0.25398 0.0
C560 C 1.00768 0.47648 0.36223 0.0
O561 O 0.99205 0.49489 0.34961 0.0
O562 O 0.96323 0.61327 0.22574 0.0
O563 O 0.96573 0.57751 0.28869 0.0
H564 H 0.07936 0.48921 0.29377 0.0
H565 H 0.13243 0.54102 0.25034 0.0
H566 H 0.08435 0.6152 0.27428 0.0
H567 H 0.93244 0.55373 0.31942 0.0
H568 H 0.92826 0.63608 0.21032 0.0
H569 H 0.87908 0.5692 0.25202 0.0
C570 C 0.69226 0.23098 0.2818 0.0
C571 C 0.6829 0.26804 0.286 0.0
C572 C 0.66392 0.27269 0.2698 0.0
C573 C 0.65518 0.2407 0.24784 0.0
C574 C 0.66362 0.20364 0.24757 0.0
C575 C 0.68225 0.19899 0.26328 0.0
O576 O 0.75965 0.26842 0.27287 0.0
Tb577 Tb 0.74488 0.23259 0.32371 0.0
O578 O 0.74702 0.28676 0.36219 0.0
O579 O 0.76081 0.22474 0.21475 0.0
Eu580 Eu 0.77805 0.17982 0.25578 0.0
O581 O 0.71614 0.24148 0.3395 0.0
C582 C 0.81378 0.20062 0.25673 0.0
O583 O 0.72486 0.20709 0.27933 0.0
O584 O 0.77087 0.14388 0.31825 0.0
O585 O 0.75479 0.18451 0.36841 0.0
C586 C 0.71066 0.22114 0.30387 0.0
C587 C 0.75858 0.09818 0.23958 0.0
O588 O 0.74406 0.11808 0.25602 0.0
C589 C 0.75927 0.26152 0.22921 0.0
C590 C 0.76255 0.15007 0.35749 0.0
O591 O 0.77423 0.11772 0.22892 0.0
C592 C 0.83379 0.19229 0.27089 0.0
C593 C 0.86295 0.21577 0.30838 0.0
C594 C 0.84359 0.22087 0.29702 0.0
C595 C 0.84362 0.15783 0.2569 0.0
C596 C 0.8629 0.1525 0.26891 0.0
C597 C 0.87231 0.18163 0.29366 0.0
C598 C 0.76355 0.30486 0.36577 0.0
O599 O 0.77911 0.2862 0.35327 0.0
O600 O 0.8061 0.17882 0.22451 0.0
O601 O 0.80146 0.21211 0.2878 0.0
H602 H 0.68993 0.29214 0.30347 0.0
H603 H 0.6408 0.24336 0.23458 0.0
H604 H 0.68837 0.16956 0.26447 0.0
H605 H 0.83615 0.24706 0.30855 0.0
H606 H 0.83633 0.13512 0.23765 0.0
H607 H 0.88695 0.17612 0.30396 0.0
C608 C 0.58837 0.34118 0.51494 0.0
C609 C 0.59966 0.36887 0.49089 0.0
C610 C 0.61948 0.37161 0.49918 0.0
C611 C 0.62803 0.34563 0.52966 0.0
C612 C 0.61697 0.32173 0.55759 0.0
C613 C 0.59718 0.31875 0.54946 0.0
O614 O 0.5278 0.38099 0.57405 0.0
Tb615 Tb 0.53311 0.35126 0.50831 0.0
O616 O 0.52803 0.41133 0.48466 0.0
O617 O 0.49883 0.35727 0.60173 0.0
Eu618 Eu 0.49553 0.2976 0.56634 0.0
O619 O 0.55923 0.35765 0.4745 0.0
C620 C 0.46154 0.28405 0.53502 0.0
O621 O 0.55634 0.31895 0.53379 0.0
O622 O 0.51587 0.2636 0.52177 0.0
O623 O 0.51723 0.30804 0.46557 0.0
C624 C 0.56791 0.33354 0.5028 0.0
C625 C 0.5167 0.23052 0.61905 0.0
O626 O 0.53204 0.24702 0.60191 0.0
C627 C 0.51284 0.38368 0.60141 0.0
C628 C 0.51628 0.27066 0.47843 0.0
O629 O 0.50038 0.24954 0.61726 0.0
C630 C 0.44094 0.2898 0.52706 0.0
C631 C 0.41291 0.33097 0.51783 0.0
C632 C 0.43257 0.32753 0.52609 0.0
C633 C 0.42934 0.25599 0.52093 0.0
C634 C 0.40965 0.25992 0.51258 0.0
C635 C 0.40177 0.29752 0.51073 0.0
C636 C 0.51211 0.42983 0.49533 0.0
O637 O 0.49768 0.40906 0.51076 0.0
O638 O 0.46719 0.2725 0.57521 0.0
O639 O 0.47418 0.30563 0.51309 0.0
H640 H 0.59306 0.389 0.4671 0.0
H641 H 0.64308 0.34949 0.53744 0.0
H642 H 0.58864 0.29994 0.57106 0.0
H643 H 0.44113 0.35369 0.53219 0.0
H644 H 0.43565 0.22679 0.52235 0.0
H645 H 0.38648 0.30091 0.50587 0.0
C646 C 0.68894 0.94377 0.5256 0.0
C647 C 0.67927 0.90948 0.51035 0.0
C648 C 0.65967 0.9048 0.5192 0.0
C649 C 0.64986 0.93408 0.54255 0.0
C650 C 0.65908 0.96794 0.55881 0.0
C651 C 0.67873 0.97258 0.55031 0.0
O652 O 0.75212 0.89207 0.56351 0.0
Tb653 Tb 0.74324 0.93123 0.50755 0.0
O654 O 0.74527 0.87322 0.47626 0.0
O655 O 0.76305 0.93332 0.62018 0.0
Eu656 Eu 0.7732 0.98517 0.57661 0.0
O657 O 0.71623 0.93317 0.47798 0.0
C658 C 0.80852 0.97623 0.55354 0.0
O659 O 0.72173 0.96 0.54483 0.0
O660 O 0.75704 0.0209 0.52441 0.0
O661 O 0.75901 0.97609 0.46801 0.0
C662 C 0.70904 0.95237 0.51279 0.0
C663 C 0.75508 0.06034 0.61885 0.0
O664 O 0.73938 0.04333 0.6042 0.0
C665 C 0.75786 0.89789 0.60553 0.0
C666 C 0.75837 1.01344 0.48111 0.0
O667 O 0.7712 0.04063 0.61755 0.0
C668 C 0.82743 0.98372 0.53292 0.0
C669 C 0.85703 0.95303 0.50608 0.0
C670 C 0.83839 0.95016 0.52355 0.0
C671 C 0.83552 0.02165 0.52671 0.0
C672 C 0.85391 0.02512 0.50741 0.0
C673 C 0.86372 0.99077 0.49505 0.0
C674 C 0.7613 0.85317 0.48026 0.0
O675 O 0.77693 0.87256 0.49098 0.0
O676 O 0.80332 0.9957 0.58992 0.0
O677 O 0.79434 0.96147 0.52943 0.0
H678 H 0.68686 0.88663 0.49213 0.0
H679 H 0.63499 0.92874 0.55074 0.0
H680 H 0.68605 0.99865 0.56273 0.0
H681 H 0.83221 0.92201 0.53222 0.0
H682 H 0.8277 0.04782 0.53666 0.0
H683 H 0.87734 0.99431 0.47897 0.0
C684 C 0.58556 0.94334 0.73606 0.0
C685 C 0.59621 0.91014 0.75134 0.0
C686 C 0.61574 0.90658 0.74012 0.0
C687 C 0.62451 0.93675 0.71581 0.0
C688 C 0.61436 0.96928 0.69955 0.0
C689 C 0.59481 0.97229 0.70948 0.0
O690 O 0.52365 0.89675 0.69112 0.0
Tb691 Tb 0.53074 0.93286 0.75092 0.0
O692 O 0.52603 0.87366 0.7783 0.0
O693 O 0.50744 0.93562 0.63909 0.0
Eu694 Eu 0.49678 0.98615 0.68317 0.0
O695 O 0.55767 0.92862 0.78163 0.0
C696 C 0.4611 0.97549 0.70183 0.0
O697 O 0.55312 0.96359 0.71958 0.0
O698 O 0.51213 0.02287 0.73571 0.0
O699 O 0.5152 0.97752 0.79203 0.0
C700 C 0.56547 0.95107 0.75026 0.0
C701 C 0.51574 0.06128 0.64291 0.0
O702 O 0.53122 0.04303 0.65678 0.0
C703 C 0.51546 0.90189 0.6513 0.0
C704 C 0.51325 1.0148 0.77889 0.0
O705 O 0.49934 0.04248 0.64396 0.0
C706 C 0.44202 0.98379 0.72085 0.0
C707 C 0.41183 0.95513 0.74624 0.0
C708 C 0.43029 0.95089 0.72838 0.0
C709 C 0.43455 0.02218 0.72766 0.0
C710 C 0.41615 0.02647 0.74655 0.0
C711 C 0.40581 0.99289 0.7586 0.0
C712 C 0.50984 0.85509 0.76955 0.0
O713 O 0.49535 0.87586 0.75434 0.0
O714 O 0.46692 0.99504 0.66606 0.0
O715 O 0.47491 0.962 0.72801 0.0
H716 H 0.58936 0.88716 0.77095 0.0
H717 H 0.63944 0.93333 0.70697 0.0
H718 H 0.58684 0.99738 0.6968 0.0
H719 H 0.43556 0.9222 0.71827 0.0
H720 H 0.44282 0.04801 0.71859 0.0
H721 H 0.39227 0.99687 0.77544 0.0
C722 C 0.69134 0.36007 0.74853 0.0
C723 C 0.68079 0.38467 0.77779 0.0
C724 C 0.66089 0.38075 0.78095 0.0
C725 C 0.65211 0.34938 0.75882 0.0
C726 C 0.66086 0.33315 0.72043 0.0
C727 C 0.68107 0.33628 0.71723 0.0
O728 O 0.75978 0.40065 0.69995 0.0
Tb729 Tb 0.7483 0.3655 0.75599 0.0
O730 O 0.75761 0.4073 0.80872 0.0
O731 O 0.76436 0.35427 0.6435 0.0
Eu732 Eu 0.77571 0.30353 0.68635 0.0
O733 O 0.72168 0.38488 0.77841 0.0
C734 C 0.81117 0.31228 0.70924 0.0
O735 O 0.72396 0.33996 0.72411 0.0
O736 O 0.75853 0.26795 0.73629 0.0
O737 O 0.75865 0.31225 0.79428 0.0
C738 C 0.71268 0.36127 0.75015 0.0
C739 C 0.75694 0.2294 0.64289 0.0
O740 O 0.74135 0.24818 0.65495 0.0
C741 C 0.76151 0.39114 0.6568 0.0
C742 C 0.75802 0.27504 0.77971 0.0
O743 O 0.77347 0.24746 0.64645 0.0
C744 C 0.8301 0.30258 0.72912 0.0
C745 C 0.85927 0.33121 0.7604 0.0
C746 C 0.83979 0.33391 0.74991 0.0
C747 C 0.83992 0.26651 0.72145 0.0
C748 C 0.8593 0.26238 0.73496 0.0
C749 C 0.86839 0.2948 0.75541 0.0
C750 C 0.76331 0.44487 0.8121 0.0
O751 O 0.77005 0.45503 0.85176 0.0
O752 O 0.80577 0.29522 0.67136 0.0
O753 O 0.79704 0.32526 0.73473 0.0
H754 H 0.68781 0.40835 0.79611 0.0
H755 H 0.63702 0.34484 0.76468 0.0
H756 H 0.68865 0.32211 0.68986 0.0
H757 H 0.83242 0.36177 0.75453 0.0
H758 H 0.83276 0.24257 0.70399 0.0
H759 H 0.88316 0.29226 0.76543 0.0
C760 C 0.57977 0.7367 0.47724 0.0
C761 C 0.58963 0.77301 0.4825 0.0
C762 C 0.60899 0.77305 0.49587 0.0
C763 C 0.61828 0.73717 0.50255 0.0
C764 C 0.60889 0.70157 0.49533 0.0
C765 C 0.58961 0.70106 0.48329 0.0
O766 O 0.50898 0.76942 0.48661 0.0
Tb767 Tb 0.52585 0.73613 0.4374 0.0
O768 O 0.5228 0.78791 0.39498 0.0
O769 O 0.51076 0.72676 0.54484 0.0
Eu770 Eu 0.49321 0.68146 0.50513 0.0
O771 O 0.55403 0.75383 0.42588 0.0
C772 C 0.45763 0.70312 0.50829 0.0
O773 O 0.5463 0.71567 0.48445 0.0
O774 O 0.49955 0.64639 0.44119 0.0
O775 O 0.51919 0.68411 0.39481 0.0
C776 C 0.5597 0.73517 0.4624 0.0
C777 C 0.51297 0.60009 0.52023 0.0
O778 O 0.52733 0.62042 0.50365 0.0
C779 C 0.51087 0.76352 0.53017 0.0
C780 C 0.50975 0.65104 0.4041 0.0
O781 O 0.49725 0.61919 0.53119 0.0
C782 C 0.43692 0.69663 0.49903 0.0
C783 C 0.40781 0.71489 0.45809 0.0
C784 C 0.4277 0.71782 0.46418 0.0
C785 C 0.42596 0.67027 0.52541 0.0
C786 C 0.40606 0.66767 0.51927 0.0
C787 C 0.39705 0.69268 0.48849 0.0
C788 C 0.50667 0.80762 0.39322 0.0
O789 O 0.49101 0.7911 0.40864 0.0
O790 O 0.46597 0.68188 0.54 0.0
O791 O 0.46914 0.71299 0.47484 0.0
H792 H 0.5823 0.80073 0.47671 0.0
H793 H 0.63339 0.7369 0.51081 0.0
H794 H 0.58254 0.67309 0.47684 0.0
H795 H 0.43603 0.73496 0.44041 0.0
H796 H 0.43289 0.65051 0.54909 0.0
H797 H 0.38193 0.68842 0.48172 0.0
C798 C 0.19162 0.05076 0.46064 0.0
C799 C 0.1849 1.01114 0.46037 0.0
C800 C 0.16553 1.00331 0.47063 0.0
C801 C 0.15332 0.03447 0.48075 0.0
C802 C 0.1599 0.07304 0.48137 0.0
C803 C 0.17898 0.08135 0.47188 0.0
O804 O 0.2572 1.01184 0.48442 0.0
Tb805 Tb 0.24512 0.04918 0.43083 0.0
O806 O 0.24757 0.99458 0.39346 0.0
O807 O 0.25837 0.05601 0.54242 0.0
Eu808 Eu 0.27515 0.10166 0.50163 0.0
O809 O 0.21714 0.04441 0.40756 0.0
C810 C 0.31034 0.07853 0.49292 0.0
O811 O 0.2239 0.07455 0.47198 0.0
O812 O 0.26437 0.14068 0.44451 0.0
O813 O 0.2578 0.09604 0.38835 0.0
C814 C 0.21052 0.06294 0.44332 0.0
C815 C 0.25865 0.18413 0.52731 0.0
O816 O 0.24268 0.16526 0.51834 0.0
C817 C 0.25684 0.01914 0.52808 0.0
C818 C 0.26073 0.13285 0.40189 0.0
O819 O 0.27449 0.16335 0.53097 0.0
C820 C 0.33044 0.088 0.48091 0.0
C821 C 0.36122 0.06598 0.45016 0.0
C822 C 0.34147 0.05996 0.45684 0.0
C823 C 0.33931 0.12287 0.49684 0.0
C824 C 0.35896 0.12859 0.49035 0.0
C825 C 0.36961 0.10024 0.46773 0.0
C826 C 0.26393 0.97571 0.3927 0.0
O827 O 0.27933 0.99367 0.40766 0.0
O828 O 0.30346 0.09511 0.52974 0.0
O829 O 0.2975 0.07364 0.4606 0.0
H830 H 0.19443 0.98709 0.45188 0.0
H831 H 0.13839 0.02863 0.48814 0.0
H832 H 0.1837 0.11188 0.47067 0.0
H833 H 0.33474 0.03352 0.44366 0.0
H834 H 0.33111 0.14516 0.5145 0.0
H835 H 0.38452 0.1067 0.46109 0.0
C836 C 0.5785 0.05337 0.2785 0.0
C837 C 0.58679 1.01512 0.27643 0.0
C838 C 0.60554 1.0106 0.25929 0.0
C839 C 0.61569 0.0439 0.24546 0.0
C840 C 0.60794 0.08137 0.24934 0.0
C841 C 0.58934 0.0862 0.2651 0.0
O842 O 0.51132 1.01337 0.27062 0.0
Tb843 Tb 0.52611 0.04959 0.32152 0.0
O844 O 0.52449 0.995 0.35952 0.0
O845 O 0.5102 0.0574 0.21303 0.0
Eu846 Eu 0.49312 0.10207 0.25489 0.0
O847 O 0.55502 0.04173 0.33631 0.0
C848 C 0.45758 0.0796 0.25728 0.0
O849 O 0.54558 0.07555 0.27629 0.0
O850 O 0.50107 0.13903 0.31646 0.0
O851 O 0.51649 0.0977 0.36689 0.0
C852 C 0.56007 0.06228 0.30057 0.0
C853 C 0.51199 0.18426 0.23764 0.0
O854 O 0.52695 0.16426 0.2516 0.0
C855 C 0.51152 0.02044 0.22698 0.0
C856 C 0.50933 0.13271 0.35582 0.0
O857 O 0.49614 0.16464 0.2286 0.0
C858 C 0.43732 0.08704 0.27036 0.0
C859 C 0.40882 0.06572 0.31155 0.0
C860 C 0.42831 0.0613 0.30137 0.0
C861 C 0.42633 0.11691 0.24911 0.0
C862 C 0.40682 0.12199 0.25981 0.0
C863 C 0.39873 0.09697 0.29204 0.0
C864 C 0.50811 0.97633 0.36312 0.0
O865 O 0.49237 0.99452 0.35083 0.0
O866 O 0.46497 0.10053 0.22405 0.0
O867 O 0.47009 0.07017 0.28897 0.0
H868 H 0.57896 0.98959 0.2884 0.0
H869 H 0.63043 0.04093 0.2346 0.0
H870 H 0.58377 0.11584 0.26973 0.0
H871 H 0.43636 0.03771 0.31714 0.0
H872 H 0.43291 0.13586 0.22416 0.0
H873 H 0.38442 0.10286 0.304 0.0
C874 C 0.19274 0.73686 0.29086 0.0
C875 C 0.18496 0.77515 0.29663 0.0
C876 C 0.16527 0.78161 0.28857 0.0
C877 C 0.15367 0.74997 0.27557 0.0
C878 C 0.16132 0.71234 0.26937 0.0
C879 C 0.18095 0.70641 0.27539 0.0
O880 O 0.26047 0.76958 0.27373 0.0
Tb881 Tb 0.24619 0.73372 0.3254 0.0
O882 O 0.24865 0.78753 0.36428 0.0
O883 O 0.25927 0.72598 0.21568 0.0
Eu884 Eu 0.27667 0.67968 0.25422 0.0
O885 O 0.21801 0.74188 0.34537 0.0
C886 C 0.31247 0.69999 0.25332 0.0
O887 O 0.22504 0.71159 0.28115 0.0
O888 O 0.26916 0.64221 0.31535 0.0
O889 O 0.25644 0.68471 0.36853 0.0
C890 C 0.21157 0.7245 0.30865 0.0
C891 C 0.25723 0.59821 0.23566 0.0
O892 O 0.24255 0.61794 0.25155 0.0
C893 C 0.2591 0.76288 0.23013 0.0
C894 C 0.26245 0.64916 0.35609 0.0
O895 O 0.27297 0.61791 0.22606 0.0
C896 C 0.33311 0.69063 0.25984 0.0
C897 C 0.3642 0.70625 0.2936 0.0
C898 C 0.34412 0.71039 0.29317 0.0
C899 C 0.34239 0.66329 0.23119 0.0
C900 C 0.36242 0.66058 0.23111 0.0
C901 C 0.37293 0.68685 0.25735 0.0
C902 C 0.26487 0.8069 0.36602 0.0
O903 O 0.28051 0.78968 0.35161 0.0
O904 O 0.30359 0.68308 0.21907 0.0
O905 O 0.30133 0.7069 0.2884 0.0
H906 H 0.19391 0.79923 0.30824 0.0
H907 H 0.13848 0.75472 0.27101 0.0
H908 H 0.18686 0.677 0.27128 0.0
H909 H 0.33711 0.72752 0.31921 0.0
H910 H 0.33418 0.64337 0.21005 0.0
H911 H 0.38839 0.68483 0.25646 0.0
C912 C 0.58425 0.83847 0.01671 0.0
C913 C 0.59547 0.86857 0.99643 0.0
C914 C 0.61494 0.87351 0.00834 0.0
C915 C 0.62267 0.84818 0.04091 0.0
C916 C 0.61229 0.8168 0.05943 0.0
C917 C 0.59297 0.81247 0.04779 0.0
O918 O 0.52434 0.8865 0.06573 0.0
Tb919 Tb 0.52974 0.85094 0.00432 0.0
O920 O 0.52559 0.91038 0.97792 0.0
O921 O 0.50367 0.85156 0.11228 0.0
Eu922 Eu 0.49605 0.79804 0.06896 0.0
O923 O 0.55625 0.85353 0.9718 0.0
C924 C 0.46073 0.79991 0.04437 0.0
O925 O 0.55196 0.81823 0.03354 0.0
O926 O 0.51338 0.76237 0.01901 0.0
O927 O 0.51328 0.80769 0.96322 0.0
C928 C 0.56416 0.83047 1.00249 0.0
C929 C 0.51623 0.7262 0.11397 0.0
O930 O 0.53154 0.74439 0.09909 0.0
C931 C 0.51401 0.88327 0.10295 0.0
C932 C 0.51302 0.77018 0.97577 0.0
O933 O 0.49969 0.74431 0.11214 0.0
C934 C 0.44063 0.79637 0.0298 0.0
C935 C 0.4108 0.8286 0.01043 0.0
C936 C 0.43011 0.83104 0.02219 0.0
C937 C 0.43144 0.75917 0.02597 0.0
C938 C 0.41205 0.7573 0.01304 0.0
C939 C 0.40206 0.79213 0.00521 0.0
C940 C 0.50969 0.92944 0.98753 0.0
O941 O 0.495 0.90898 1.00218 0.0
O942 O 0.46657 0.78228 0.08142 0.0
O943 O 0.47411 0.81757 0.02037 0.0
H944 H 0.58912 0.88764 0.97123 0.0
H945 H 0.63687 0.85391 0.05379 0.0
H946 H 0.58479 0.78859 0.06257 0.0
H947 H 0.4367 0.85974 0.02705 0.0
H948 H 0.43929 0.7322 0.03251 0.0
H949 H 0.38697 0.79091 0.99673 0.0
C950 C 0.68566 0.44207 0.01792 0.0
C951 C 0.67576 0.40799 1.00252 0.0
C952 C 0.65603 0.40401 0.01092 0.0
C953 C 0.64638 0.43399 0.03352 0.0
C954 C 0.65588 0.46708 0.05084 0.0
C955 C 0.67557 0.47107 0.0426 0.0
O956 O 0.74723 0.39353 0.06659 0.0
Tb957 Tb 0.74051 0.43065 0.00749 0.0
O958 O 0.74466 0.37206 0.97871 0.0
O959 O 0.76224 0.43328 0.11973 0.0
Eu960 Eu 0.77277 0.48465 0.07672 0.0
O961 O 0.71411 0.42863 0.97442 0.0
C962 C 0.80881 0.47617 0.06028 0.0
O963 O 0.71791 0.46111 0.03857 0.0
O964 O 0.75751 0.52109 0.02356 0.0
O965 O 0.75711 0.47454 0.96829 0.0
C966 C 0.70598 0.45015 0.00616 0.0
C967 C 0.75388 0.56005 0.11678 0.0
O968 O 0.73834 0.54295 0.10133 0.0
C969 C 0.75489 0.39903 0.10692 0.0
C970 C 0.75746 0.51218 0.98051 0.0
O971 O 0.77 0.54035 0.11683 0.0
C972 C 0.82811 0.48773 0.04465 0.0
C973 C 0.85895 0.46296 0.01935 0.0
C974 C 0.83925 0.45792 0.02532 0.0
C975 C 0.83674 0.52434 0.0557 0.0
C976 C 0.85649 0.5304 0.04796 0.0
C977 C 0.86725 0.49946 0.02948 0.0
C978 C 0.76074 0.35315 0.98694 0.0
O979 O 0.77542 0.37352 1.00197 0.0
O980 O 0.80215 0.49235 0.09739 0.0
O981 O 0.79558 0.46404 0.03157 0.0
H982 H 0.68329 0.38466 0.98497 0.0
H983 H 0.63143 0.42924 0.04125 0.0
H984 H 0.68308 0.49667 0.05567 0.0
H985 H 0.83275 0.42954 0.01789 0.0
H986 H 0.82833 0.54733 0.0715 0.0
H987 H 0.88242 0.50336 0.02427 0.0
C988 C 0.5852 0.44433 0.24129 0.0
C989 C 0.59632 0.41415 0.26164 0.0
C990 C 0.6157 0.40882 0.24956 0.0
C991 C 0.62346 0.43382 0.21677 0.0
C992 C 0.61317 0.46517 0.19796 0.0
C993 C 0.59391 0.46993 0.20979 0.0
O994 O 0.52581 0.39797 0.19079 0.0
Tb995 Tb 0.53074 0.43261 0.25299 0.0
O996 O 0.52592 0.37303 0.2788 0.0
O997 O 0.50384 0.4314 0.14596 0.0
Eu998 Eu 0.4974 0.48646 0.18749 0.0
O999 O 0.5572 0.42932 0.28596 0.0
C1000 C 0.46204 0.48804 0.21126 0.0
O1001 O 0.55307 0.46553 0.22483 0.0
O1002 O 0.51508 0.52131 0.23759 0.0
O1003 O 0.51443 0.47623 0.29357 0.0
C1004 C 0.56521 0.45266 0.25575 0.0
C1005 C 0.51772 0.55757 0.14104 0.0
O1006 O 0.533 0.54117 0.15866 0.0
C1007 C 0.51472 0.40038 0.15465 0.0
C1008 C 0.51441 0.51371 0.28086 0.0
O1009 O 0.5015 0.53816 0.14145 0.0
C1010 C 0.4418 0.4895 0.22473 0.0
C1011 C 0.41316 0.45397 0.24559 0.0
C1012 C 0.43276 0.45424 0.23746 0.0
C1013 C 0.43097 0.52476 0.22117 0.0
C1014 C 0.41118 0.52442 0.23059 0.0
C1015 C 0.40262 0.4885 0.24196 0.0
C1016 C 0.51015 0.35407 0.26732 0.0
O1017 O 0.49593 0.37453 0.25027 0.0
O1018 O 0.46824 0.50596 0.17479 0.0
O1019 O 0.475 0.46833 0.23453 0.0
H1020 H 0.58999 0.39526 0.28701 0.0
H1021 H 0.63761 0.42776 0.2039 0.0
H1022 H 0.58579 0.49381 0.1948 0.0
H1023 H 0.44068 0.42674 0.23843 0.0
H1024 H 0.43791 0.55202 0.21131 0.0
H1025 H 0.38726 0.4866 0.24592 0.0
C1026 C 0.68492 0.83837 0.23879 0.0
C1027 C 0.67508 0.87266 0.25345 0.0
C1028 C 0.65538 0.87662 0.24466 0.0
C1029 C 0.64567 0.84631 0.22261 0.0
C1030 C 0.65512 0.813 0.20593 0.0
C1031 C 0.67481 0.80906 0.21445 0.0
O1032 O 0.74433 0.8865 0.18526 0.0
Tb1033 Tb 0.73975 0.85001 0.24638 0.0
O1034 O 0.7448 0.90884 0.2739 0.0
O1035 O 0.76593 0.85369 0.13914 0.0
Eu1036 Eu 0.77589 0.80178 0.18148 0.0
O1037 O 0.71369 0.85378 0.28058 0.0
C1038 C 0.81179 0.81078 0.1992 0.0
O1039 O 0.71688 0.81777 0.21883 0.0
O1040 O 0.76112 0.76199 0.23173 0.0
O1041 O 0.75617 0.80681 0.28768 0.0
C1042 C 0.70525 0.83057 0.25079 0.0
C1043 C 0.75612 0.72927 0.1376 0.0
O1044 O 0.74085 0.74797 0.15189 0.0
C1045 C 0.75498 0.88435 0.14843 0.0
C1046 C 0.75885 0.76972 0.2747 0.0
O1047 O 0.77274 0.74712 0.13963 0.0
C1048 C 0.83078 0.79767 0.21499 0.0
C1049 C 0.86272 0.81877 0.23611 0.0
C1050 C 0.84334 0.82712 0.23016 0.0
C1051 C 0.83778 0.75899 0.20747 0.0
C1052 C 0.85738 0.75069 0.21388 0.0
C1053 C 0.86956 0.78079 0.22854 0.0
C1054 C 0.76051 0.92789 0.2626 0.0
O1055 O 0.77456 0.90775 0.24437 0.0
O1056 O 0.8053 0.79582 0.16115 0.0
O1057 O 0.79843 0.8212 0.22826 0.0
H1058 H 0.68264 0.89623 0.27065 0.0
H1059 H 0.63072 0.85094 0.21469 0.0
H1060 H 0.68228 0.78332 0.20181 0.0
H1061 H 0.83837 0.85731 0.23385 0.0
H1062 H 0.8283 0.73611 0.19501 0.0
H1063 H 0.88465 0.77491 0.23335 0.0
C1064 C 0.57782 0.22929 0.97524 0.0
C1065 C 0.58634 0.26739 0.97792 0.0
C1066 C 0.60526 0.2713 0.99463 0.0
C1067 C 0.61531 0.23754 0.00737 0.0
C1068 C 0.60734 0.20029 1.00296 0.0
C1069 C 0.58862 0.19604 0.98754 0.0
O1070 O 0.51064 0.26978 0.98875 0.0
Tb1071 Tb 0.52478 0.23475 0.93611 0.0
O1072 O 0.52263 0.28987 0.89938 0.0
O1073 O 0.51109 0.22561 0.04644 0.0
Eu1074 Eu 0.49451 0.17975 0.00509 0.0
O1075 O 0.55352 0.24226 0.91922 0.0
C1076 C 0.45908 0.20194 0.99766 0.0
O1077 O 0.54483 0.20758 0.9791 0.0
O1078 O 0.50513 0.14257 0.94621 0.0
O1079 O 0.51333 0.18775 0.89153 0.0
C1080 C 0.55902 0.22104 0.95412 0.0
C1081 C 0.51218 0.09741 0.02746 0.0
O1082 O 0.52786 0.11706 0.01796 0.0
C1083 C 0.51168 0.26261 0.03232 0.0
C1084 C 0.50975 0.15093 0.90426 0.0
O1085 O 0.49619 0.11746 0.03255 0.0
C1086 C 0.43887 0.1945 0.98395 0.0
C1087 C 0.41043 0.21682 0.943 0.0
C1088 C 0.42989 0.22103 0.95376 0.0
C1089 C 0.42783 0.16414 0.00414 0.0
C1090 C 0.40833 0.15926 0.99289 0.0
C1091 C 0.40036 0.18481 0.96095 0.0
C1092 C 0.50605 0.30779 0.89629 0.0
O1093 O 0.49057 0.28885 0.90888 0.0
O1094 O 0.46593 0.18277 0.0329 0.0
O1095 O 0.47201 0.20951 0.96638 0.0
H1096 H 0.57854 0.29326 0.9669 0.0
H1097 H 0.63013 0.24002 0.01796 0.0
H1098 H 0.58285 0.16658 0.98262 0.0
H1099 H 0.43796 0.24519 0.93921 0.0
H1100 H 0.43435 0.14482 0.02884 0.0
H1101 H 0.3861 0.17903 0.94843 0.0
C1102 C 0.19159 0.54747 0.96424 0.0
C1103 C 0.18472 0.50806 0.96068 0.0
C1104 C 0.16514 0.49987 0.96848 0.0
C1105 C 0.15291 0.53063 0.98023 0.0
C1106 C 0.15957 0.56914 0.98389 0.0
C1107 C 0.17885 0.57758 0.97665 0.0
O1108 O 0.25895 0.51356 0.98702 0.0
Tb1109 Tb 0.24532 0.54874 0.93364 0.0
O1110 O 0.2477 0.49368 0.89691 0.0
O1111 O 0.25896 0.55795 0.0448 0.0
Eu1112 Eu 0.27606 0.6033 0.00426 0.0
O1113 O 0.21728 0.5429 0.91116 0.0
C1114 C 0.31143 0.58068 0.99717 0.0
O1115 O 0.22391 0.57211 0.97613 0.0
O1116 O 0.26562 0.64099 0.94572 0.0
O1117 O 0.2573 0.59611 0.89062 0.0
C1118 C 0.21055 0.56037 0.94747 0.0
C1119 C 0.25869 0.68542 0.02789 0.0
O1120 O 0.24299 0.66604 0.01764 0.0
C1121 C 0.25798 0.52101 0.03056 0.0
C1122 C 0.26101 0.6328 0.90367 0.0
O1123 O 0.27463 0.66519 0.0328 0.0
C1124 C 0.33168 0.58799 0.98421 0.0
C1125 C 0.36121 0.56269 0.95001 0.0
C1126 C 0.34152 0.55884 0.959 0.0
C1127 C 0.34178 0.62184 0.99929 0.0
C1128 C 0.36136 0.62582 0.98976 0.0
C1129 C 0.37078 0.59612 0.96623 0.0
C1130 C 0.26395 0.47438 0.89577 0.0
O1131 O 0.27956 0.4919 0.91023 0.0
O1132 O 0.30459 0.59967 0.03251 0.0
O1133 O 0.29854 0.57352 0.96551 0.0
H1134 H 0.19423 0.48449 0.9505 0.0
H1135 H 0.13786 0.52471 0.98578 0.0
H1136 H 0.18364 0.60808 0.97744 0.0
H1137 H 0.33388 0.53319 0.94655 0.0
H1138 H 0.33448 0.64503 0.01764 0.0
H1139 H 0.38567 0.6009 0.95777 0.0
C1140 C 0.57672 0.54416 0.78343 0.0
C1141 C 0.58768 0.50899 0.78611 0.0
C1142 C 0.60743 0.5099 0.77641 0.0
C1143 C 0.61584 0.5461 0.76569 0.0
C1144 C 0.60519 0.58059 0.76368 0.0
C1145 C 0.58564 0.57983 0.77207 0.0
O1146 O 0.50568 0.51416 0.76775 0.0
Tb1147 Tb 0.52231 0.54682 0.8186 0.0
O1148 O 0.51842 0.4965 0.86278 0.0
O1149 O 0.50619 0.5586 0.71087 0.0
Eu1150 Eu 0.489 0.6028 0.75353 0.0
O1151 O 0.55 0.52601 0.83179 0.0
C1152 C 0.4533 0.5814 0.75408 0.0
O1153 O 0.54368 0.56621 0.77407 0.0
O1154 O 0.49582 0.63664 0.81791 0.0
O1155 O 0.51695 0.59961 0.86115 0.0
C1156 C 0.55646 0.54525 0.79651 0.0
C1157 C 0.50906 0.68486 0.74144 0.0
O1158 O 0.52359 0.66392 0.75611 0.0
C1159 C 0.5071 0.52143 0.72429 0.0
C1160 C 0.50699 0.63233 0.85346 0.0
O1161 O 0.49313 0.66616 0.73048 0.0
C1162 C 0.4331 0.58747 0.76864 0.0
C1163 C 0.40481 0.56067 0.80685 0.0
C1164 C 0.42436 0.55842 0.79619 0.0
C1165 C 0.42199 0.61987 0.75323 0.0
C1166 C 0.40254 0.62261 0.76504 0.0
C1167 C 0.39423 0.59249 0.79026 0.0
C1168 C 0.50259 0.4757 0.86243 0.0
O1169 O 0.48719 0.49058 0.84369 0.0
O1170 O 0.46066 0.60484 0.72306 0.0
O1171 O 0.46587 0.56896 0.78419 0.0
H1172 H 0.58091 0.4814 0.79546 0.0
H1173 H 0.63118 0.54816 0.76127 0.0
H1174 H 0.57765 0.60726 0.77216 0.0
H1175 H 0.43272 0.53398 0.80912 0.0
H1176 H 0.42844 0.64299 0.73308 0.0
H1177 H 0.37934 0.59555 0.79958 0.0
C1178 C 0.19166 0.23464 0.78852 0.0
C1179 C 0.18285 0.27179 0.79682 0.0
C1180 C 0.16363 0.27832 0.78335 0.0
C1181 C 0.15409 0.24826 0.75978 0.0
C1182 C 0.16203 0.21093 0.75545 0.0
C1183 C 0.18089 0.20439 0.76851 0.0
O1184 O 0.25912 0.26861 0.77303 0.0
Tb1185 Tb 0.24487 0.23281 0.82488 0.0
O1186 O 0.24735 0.28691 0.86335 0.0
O1187 O 0.26157 0.22409 0.71562 0.0
Eu1188 Eu 0.27897 0.17976 0.7573 0.0
O1189 O 0.21656 0.24152 0.84419 0.0
C1190 C 0.31463 0.20134 0.75911 0.0
O1191 O 0.22385 0.20872 0.78193 0.0
O1192 O 0.27073 0.14347 0.81882 0.0
O1193 O 0.25515 0.18476 0.86917 0.0
C1194 C 0.21021 0.22253 0.80841 0.0
C1195 C 0.26008 0.09755 0.73956 0.0
O1196 O 0.24492 0.11774 0.75175 0.0
C1197 C 0.25949 0.26097 0.72948 0.0
C1198 C 0.26246 0.14995 0.85806 0.0
O1199 O 0.27605 0.11703 0.7316 0.0
C1200 C 0.33509 0.19461 0.77102 0.0
C1201 C 0.36488 0.22132 0.80282 0.0
C1202 C 0.34506 0.2244 0.7951 0.0
C1203 C 0.34519 0.16062 0.75637 0.0
C1204 C 0.36495 0.15747 0.76472 0.0
C1205 C 0.37448 0.18821 0.78624 0.0
C1206 C 0.26369 0.30587 0.86552 0.0
O1207 O 0.27927 0.28828 0.85134 0.0
O1208 O 0.30702 0.18028 0.72618 0.0
O1209 O 0.30238 0.21119 0.79108 0.0
H1210 H 0.19046 0.29441 0.81546 0.0
H1211 H 0.13946 0.25236 0.74867 0.0
H1212 H 0.1866 0.17462 0.76686 0.0
H1213 H 0.33741 0.24987 0.80787 0.0
H1214 H 0.33778 0.13673 0.73939 0.0
H1215 H 0.38953 0.18419 0.79361 0.0
C1216 C 0.88841 0.43233 0.98524 0.0
C1217 C 0.87144 0.42857 0.01043 0.0
H1218 H 0.91475 0.40499 0.96507 0.0
C1219 C 0.86767 0.39287 0.03272 0.0
H1220 H 0.89166 0.45943 0.96743 0.0
C1221 C 0.8807 0.36216 0.03108 0.0
C1222 C 0.89786 0.36623 0.00716 0.0
H1223 H 0.85511 0.38917 0.05354 0.0
H1224 H 0.87758 0.33549 0.04994 0.0
C1225 C 0.90163 0.40142 0.98395 0.0
C1226 C 0.37408 0.90071 0.04808 0.0
C1227 C 0.369 0.91862 0.00714 0.0
H1228 H 0.39236 0.85916 0.08112 0.0
C1229 C 0.37858 0.90837 0.96723 0.0
H1230 H 0.36722 0.90929 0.07937 0.0
C1231 C 0.39307 0.88014 0.96836 0.0
C1232 C 0.39839 0.86308 0.00961 0.0
H1233 H 0.37511 0.92283 0.93563 0.0
H1234 H 0.4 0.87139 0.93724 0.0
C1235 C 0.38875 0.87318 0.04932 0.0
C1236 C 0.88884 0.85972 0.20641 0.0
C1237 C 0.87657 0.85063 0.24225 0.0
H1238 H 0.91085 0.89776 0.18201 0.0
C1239 C 0.87796 0.87131 0.28312 0.0
H1240 H 0.88778 0.84403 0.17456 0.0
C1241 C 0.89133 0.90169 0.28759 0.0
C1242 C 0.90332 0.91135 0.25123 0.0
H1243 H 0.86865 0.86422 0.31113 0.0
H1244 H 0.89192 0.91847 0.31876 0.0
C1245 C 0.90216 0.88987 0.21087 0.0
C1246 C 0.37902 0.37529 0.21374 0.0
C1247 C 0.37303 0.36186 0.25615 0.0
H1248 H 0.39763 0.41387 0.17754 0.0
C1249 C 0.38205 0.37552 0.2955 0.0
H1250 H 0.37255 0.36398 0.18302 0.0
C1251 C 0.39646 0.40395 0.29231 0.0
C1252 C 0.40229 0.41746 0.24971 0.0
H1253 H 0.37787 0.36442 0.32833 0.0
H1254 H 0.40264 0.41621 0.32285 0.0
C1255 C 0.39365 0.40271 0.21053 0.0
C1256 C 0.13377 0.6087 0.95032 0.0
C1257 C 0.14546 0.60069 0.98767 0.0
H1258 H 0.1116 0.645 0.92314 0.0
C1259 C 0.14273 0.62096 0.02839 0.0
H1260 H 0.13577 0.59303 0.91873 0.0
C1261 C 0.12875 0.65021 0.0311 0.0
C1262 C 0.11737 0.65889 0.99323 0.0
H1263 H 0.15151 0.61449 0.05763 0.0
H1264 H 0.1273 0.66717 0.06197 0.0
C1265 C 0.11978 0.63762 0.95309 0.0
C1266 C 0.64086 0.12276 0.0473 0.0
C1267 C 0.65038 0.11259 0.0073 0.0
H1268 H 0.61921 0.15934 0.07727 0.0
C1269 C 0.64481 0.12959 0.96618 0.0
H1270 H 0.64473 0.10905 0.07907 0.0
C1271 C 0.62984 0.15634 0.96487 0.0
C1272 C 0.6204 0.1668 0.0047 0.0
H1273 H 0.65166 0.12111 0.93483 0.0
H1274 H 0.62589 0.16962 0.93287 0.0
C1275 C 0.62609 0.15048 0.04612 0.0
C1276 C 0.14222 0.1627 0.79485 0.0
C1277 C 0.14862 0.17792 0.75357 0.0
H1278 H 0.12304 0.12323 0.82796 0.0
C1279 C 0.13995 0.16603 0.71304 0.0
H1280 H 0.14851 0.17242 0.82647 0.0
C1281 C 0.12535 0.13781 0.71393 0.0
C1282 C 0.119 0.12285 0.75547 0.0
H1283 H 0.14451 0.17837 0.68108 0.0
H1284 H 0.11931 0.12712 0.68249 0.0
C1285 C 0.12743 0.13556 0.79581 0.0
C1286 C 0.63935 0.65601 0.72085 0.0
C1287 C 0.64547 0.67214 0.76197 0.0
H1288 H 0.62079 0.61381 0.68907 0.0
C1289 C 0.63629 0.66216 0.8023 0.0
H1290 H 0.6461 0.66447 0.6894 0.0
C1291 C 0.62147 0.63496 0.80188 0.0
C1292 C 0.61584 0.61739 0.76114 0.0
H1293 H 0.64069 0.67529 0.83408 0.0
H1294 H 0.61517 0.62583 0.83362 0.0
C1295 C 0.62468 0.62816 0.72051 0.0
C1296 C 0.87617 0.84832 0.51904 0.0
C1297 C 0.89589 0.8533 0.512 0.0
H1298 H 0.84867 0.87273 0.51796 0.0
C1299 C 0.90254 0.89063 0.49931 0.0
H1300 H 0.87021 0.82051 0.53011 0.0
C1301 C 0.8901 0.9225 0.49653 0.0
C1302 C 0.87022 0.91791 0.50394 0.0
H1303 H 0.91747 0.8958 0.49218 0.0
H1304 H 0.8968 0.95046 0.48974 0.0
C1305 C 0.86355 0.87954 0.5134 0.0
C1306 C 0.38041 0.40644 0.56568 0.0
C1307 C 0.37268 0.42259 0.52616 0.0
H1308 H 0.40049 0.36556 0.59372 0.0
C1309 C 0.3802 0.41218 0.48395 0.0
H1310 H 0.37516 0.41541 0.59853 0.0
C1311 C 0.39494 0.38468 0.48127 0.0
C1312 C 0.40254 0.36817 0.52085 0.0
H1313 H 0.37477 0.4256 0.45328 0.0
H1314 H 0.39991 0.37512 0.44838 0.0
C1315 C 0.39527 0.3793 0.56304 0.0
C1316 C 0.88868 0.36666 0.78972 0.0
C1317 C 0.87106 0.36749 0.76642 0.0
H1318 H 0.91564 0.39533 0.80125 0.0
C1319 C 0.86642 0.40132 0.74125 0.0
H1320 H 0.89264 0.34163 0.81043 0.0
C1321 C 0.8794 0.43196 0.73677 0.0
C1322 C 0.89748 0.42988 0.75722 0.0
H1323 H 0.85335 0.40324 0.72185 0.0
H1324 H 0.8756 0.45638 0.71491 0.0
C1325 C 0.9019 0.39734 0.78457 0.0
C1326 C 0.39151 0.8512 0.74361 0.0
C1327 C 0.37164 0.85812 0.74392 0.0
H1328 H 0.41944 0.87484 0.74879 0.0
C1329 C 0.36527 0.89725 0.7474 0.0
H1330 H 0.39747 0.82203 0.73933 0.0
C1331 C 0.37819 0.92834 0.74762 0.0
C1332 C 0.39807 0.92146 0.7481 0.0
H1333 H 0.35027 0.90452 0.74908 0.0
H1334 H 0.37219 0.95767 0.74615 0.0
C1335 C 0.40445 0.88219 0.74742 0.0
C1336 C 0.11964 0.14062 0.4529 0.0
C1337 C 0.11743 0.16141 0.49343 0.0
H1338 H 0.13567 0.09689 0.41729 0.0
C1339 C 0.12903 0.15258 0.53082 0.0
H1340 H 0.11123 0.14814 0.42335 0.0
C1341 C 0.14317 0.1238 0.52712 0.0
C1342 C 0.14583 0.10436 0.48586 0.0
H1343 H 0.12771 0.16921 0.56195 0.0
H1344 H 0.15215 0.11715 0.55597 0.0
C1345 C 0.13381 0.11223 0.44913 0.0
C1346 C 0.62892 0.65104 0.53257 0.0
C1347 C 0.62069 0.66628 0.49307 0.0
H1348 H 0.64959 0.61093 0.56012 0.0
C1349 C 0.62718 0.65396 0.45064 0.0
H1350 H 0.62434 0.66131 0.56549 0.0
C1351 C 0.642 0.62686 0.44763 0.0
C1352 C 0.65032 0.61179 0.48702 0.0
H1353 H 0.62131 0.66653 0.41996 0.0
H1354 H 0.64683 0.61724 0.41464 0.0
C1355 C 0.64355 0.62333 0.52953 0.0
C1356 C 0.15157 0.64453 0.29 0.0
C1357 C 0.14846 0.67825 0.26359 0.0
H1358 H 0.14142 0.58814 0.31022 0.0
C1359 C 0.13221 0.68018 0.23557 0.0
H1360 H 0.16355 0.64262 0.31309 0.0
C1361 C 0.11926 0.64874 0.23432 0.0
C1362 C 0.12259 0.61514 0.26077 0.0
H1363 H 0.12948 0.706 0.21497 0.0
H1364 H 0.1068 0.65053 0.2127 0.0
C1365 C 0.13879 0.61342 0.28864 0.0
C1366 C 0.63078 0.12474 0.28739 0.0
C1367 C 0.62116 0.11459 0.24758 0.0
H1368 H 0.65255 0.16015 0.3176 0.0
C1369 C 0.6265 0.1316 0.20632 0.0
H1370 H 0.62704 0.11103 0.31926 0.0
C1371 C 0.64111 0.15974 0.20532 0.0
C1372 C 0.65079 0.16964 0.24532 0.0
H1373 H 0.61944 0.12305 0.17521 0.0
H1374 H 0.64474 0.17399 0.17373 0.0
C1375 C 0.64558 0.15191 0.28624 0.0
C1376 C 0.1411 0.45222 0.93712 0.0
C1377 C 0.15648 0.45992 0.96674 0.0
H1378 H 0.11677 0.41577 0.92176 0.0
C1379 C 0.15947 0.43452 1.00316 0.0
H1380 H 0.13806 0.47239 0.90963 0.0
C1381 C 0.14688 0.40337 0.01133 0.0
C1382 C 0.13112 0.39565 0.98248 0.0
H1383 H 0.17058 0.44084 0.02768 0.0
H1384 H 0.14903 0.38694 0.04224 0.0
C1385 C 0.12864 0.42028 0.94467 0.0
C1386 C 0.14994 0.83645 0.00581 0.0
C1387 C 0.14767 0.86609 0.97329 0.0
H1388 H 0.13866 0.78457 0.0361 0.0
C1389 C 0.13225 0.86356 0.94283 0.0
H1390 H 0.16105 0.83875 0.03125 0.0
C1391 C 0.1194 0.83172 0.94491 0.0
C1392 C 0.12147 0.8025 0.97836 0.0
H1393 H 0.12974 0.88706 0.91875 0.0
H1394 H 0.10784 0.83012 0.92064 0.0
C1395 C 0.13686 0.80565 0.00892 0.0
C1396 C 0.14712 0.87688 0.24297 0.0
C1397 C 0.13156 0.88596 0.27172 0.0
H1398 H 0.17055 0.83871 0.22792 0.0
C1399 C 0.12888 0.86207 0.31013 0.0
H1400 H 0.14938 0.89226 0.21145 0.0
C1401 C 0.14097 0.82965 0.31835 0.0
C1402 C 0.15631 0.82116 0.28911 0.0
H1403 H 0.11717 0.86756 0.33307 0.0
H1404 H 0.13784 0.81008 0.34632 0.0
C1405 C 0.15947 0.84571 0.25213 0.0
C1406 C 0.12994 0.41486 0.31185 0.0
C1407 C 0.14418 0.40941 0.27901 0.0
H1408 H 0.10682 0.45146 0.33533 0.0
C1409 C 0.14459 0.43465 0.24157 0.0
H1410 H 0.12858 0.39405 0.3393 0.0
C1411 C 0.13122 0.46467 0.23697 0.0
C1412 C 0.11762 0.47201 0.27094 0.0
H1413 H 0.15462 0.42962 0.21432 0.0
H1414 H 0.13182 0.48294 0.20696 0.0
C1415 C 0.11703 0.44658 0.30849 0.0
C1416 C 0.85775 0.60431 0.04482 0.0
C1417 C 0.86637 0.56876 0.05712 0.0
H1418 H 0.86083 0.66432 0.02981 0.0
C1419 C 0.8856 0.56977 0.07138 0.0
H1420 H 0.84293 0.60502 0.03442 0.0
C1421 C 0.89666 0.60405 0.06653 0.0
C1422 C 0.88871 0.63877 0.04814 0.0
H1423 H 0.89254 0.54318 0.08338 0.0
H1424 H 0.91166 0.60191 0.07444 0.0
C1425 C 0.86859 0.63882 0.04127 0.0
C1426 C 0.89818 0.2043 0.04739 0.0
C1427 C 0.90494 0.22378 0.00858 0.0
H1428 H 0.87949 0.15916 0.07375 0.0
C1429 C 0.89718 0.21354 0.96637 0.0
H1430 H 0.90339 0.21272 0.0805 0.0
C1431 C 0.88289 0.18505 0.9629 0.0
C1432 C 0.8761 0.16536 1.00144 0.0
H1433 H 0.90166 0.22895 0.9361 0.0
H1434 H 0.87746 0.17741 0.92969 0.0
C1435 C 0.88401 0.17488 0.04377 0.0
C1436 C 0.89078 0.22752 0.72164 0.0
C1437 C 0.87081 0.22535 0.72839 0.0
H1438 H 0.91784 0.19896 0.72799 0.0
C1439 C 0.86272 0.18793 0.73492 0.0
H1440 H 0.8976 0.25532 0.71351 0.0
C1441 C 0.87444 0.15463 0.73985 0.0
C1442 C 0.89462 0.15808 0.74074 0.0
H1443 H 0.84746 0.18457 0.73906 0.0
H1444 H 0.86754 0.12649 0.74563 0.0
C1445 C 0.90254 0.19471 0.72893 0.0
C1446 C 0.88044 0.60713 0.69444 0.0
C1447 C 0.8795 0.62871 0.73492 0.0
H1448 H 0.89399 0.55917 0.65903 0.0
C1449 C 0.89299 0.62044 0.76919 0.0
H1450 H 0.87024 0.61249 0.66762 0.0
C1451 C 0.90692 0.59164 0.76348 0.0
C1452 C 0.90755 0.56927 0.72387 0.0
H1453 H 0.89235 0.63522 0.80164 0.0
H1454 H 0.91618 0.58449 0.7917 0.0
C1455 C 0.89432 0.57744 0.68909 0.0
C1456 C 0.15432 0.95041 0.51987 0.0
C1457 C 0.15709 0.96364 0.47564 0.0
H1458 H 0.13838 0.91391 0.56433 0.0
C1459 C 0.14601 0.94698 0.44061 0.0
H1460 H 0.16182 0.96432 0.54776 0.0
C1461 C 0.13248 0.91722 0.44994 0.0
C1462 C 0.12956 0.90462 0.49465 0.0
H1463 H 0.14719 0.95829 0.40651 0.0
H1464 H 0.12431 0.90435 0.42252 0.0
C1465 C 0.14055 0.92207 0.52932 0.0
C1466 C 0.12008 0.334 0.44221 0.0
C1467 C 0.12286 0.30426 0.47473 0.0
H1468 H 0.12969 0.39005 0.41676 0.0
C1469 C 0.13908 0.30665 0.50292 0.0
H1470 H 0.10787 0.3332 0.41976 0.0
C1471 C 0.15226 0.3371 0.49831 0.0
C1472 C 0.14918 0.36746 0.46707 0.0
H1473 H 0.14147 0.28545 0.52972 0.0
H1474 H 0.164 0.3388 0.52217 0.0
C1475 C 0.13295 0.3657 0.43907 0.0
C1476 C 0.12062 0.34452 0.79881 0.0
C1477 C 0.12825 0.38155 0.7876 0.0
H1478 H 0.12604 0.28328 0.80969 0.0
C1479 C 0.14837 0.3857 0.78799 0.0
H1480 H 0.10535 0.33983 0.79995 0.0
C1481 C 0.16032 0.3525 0.79036 0.0
C1482 C 0.15241 0.31469 0.79466 0.0
H1483 H 0.15492 0.41421 0.78205 0.0
H1484 H 0.1755 0.35623 0.78507 0.0
C1485 C 0.1326 0.31173 0.80334 0.0
C1486 C 0.133 0.97555 0.73558 0.0
C1487 C 0.11951 0.98038 0.77045 0.0
H1488 H 0.15658 0.94295 0.70946 0.0
C1489 C 0.1199 0.95376 0.80692 0.0
H1490 H 0.13293 0.99478 0.70633 0.0
C1491 C 0.1334 0.92291 0.80785 0.0
C1492 C 0.14709 0.91927 0.77328 0.0
H1493 H 0.1099 0.95681 0.83454 0.0
H1494 H 0.13275 0.90114 0.83458 0.0
C1495 C 0.14687 0.94632 0.73767 0.0
C1496 C 0.86744 0.08761 0.54149 0.0
C1497 C 0.86478 0.06293 0.5037 0.0
H1498 H 0.88273 0.13724 0.56959 0.0
C1499 C 0.87603 0.06969 0.46503 0.0
H1500 H 0.85917 0.08297 0.5719 0.0
C1501 C 0.89024 0.09849 0.46501 0.0
C1502 C 0.8932 0.12256 0.50294 0.0
H1503 H 0.87427 0.05159 0.43508 0.0
H1504 H 0.89852 0.10303 0.43455 0.0
C1505 C 0.88137 0.1176 0.54084 0.0
C1506 C 0.88083 0.67148 0.48144 0.0
C1507 C 0.87686 0.64889 0.51999 0.0
H1508 H 0.8971 0.71798 0.45205 0.0
C1509 C 0.88733 0.656 0.55978 0.0
H1510 H 0.87334 0.66587 0.44999 0.0
C1511 C 0.90092 0.68675 0.56124 0.0
C1512 C 0.9046 0.7096 0.52245 0.0
H1513 H 0.88499 0.63795 0.58945 0.0
H1514 H 0.90799 0.69361 0.59287 0.0
C1515 C 0.89477 0.70064 0.48232 0.0
C1516 C 0.86998 0.64515 0.23709 0.0
C1517 C 0.88808 0.64116 0.21595 0.0
H1518 H 0.84609 0.68227 0.25219 0.0
C1519 C 0.89389 0.67183 0.18691 0.0
H1520 H 0.86444 0.6235 0.26029 0.0
C1521 C 0.88296 0.70638 0.18285 0.0
C1522 C 0.86582 0.71096 0.20713 0.0
H1523 H 0.90726 0.67024 0.16886 0.0
H1524 H 0.88847 0.73055 0.16273 0.0
C1525 C 0.85906 0.67933 0.23255 0.0
C1526 C 0.88204 0.10777 0.21871 0.0
C1527 C 0.87361 0.11556 0.26081 0.0
H1528 H 0.90183 0.07144 0.18162 0.0
C1529 C 0.87903 0.09291 0.29842 0.0
H1530 H 0.87846 0.12564 0.18957 0.0
C1531 C 0.89265 0.06318 0.29425 0.0
C1532 C 0.90124 0.05543 0.2524 0.0
H1533 H 0.87314 0.09916 0.3315 0.0
H1534 H 0.8964 0.04591 0.32377 0.0
C1535 C 0.89575 0.07771 0.21448 0.0
C1536 C 0.6413 0.41246 0.44947 0.0
C1537 C 0.63063 0.40769 0.48932 0.0
H1538 H 0.66193 0.44836 0.41411 0.0
C1539 C 0.63387 0.43346 0.52563 0.0
H1540 H 0.63947 0.39204 0.4216 0.0
C1541 C 0.64743 0.46325 0.52261 0.0
C1542 C 0.65768 0.46943 0.48246 0.0
H1543 H 0.62625 0.42966 0.55719 0.0
H1544 H 0.64932 0.48286 0.55126 0.0
C1545 C 0.65457 0.44366 0.44578 0.0
C1546 C 0.63088 0.81405 0.54233 0.0
C1547 C 0.62066 0.80915 0.5018 0.0
H1548 H 0.65204 0.84712 0.57841 0.0
C1549 C 0.62468 0.83413 0.46515 0.0
H1550 H 0.62823 0.79479 0.57087 0.0
C1551 C 0.63864 0.86373 0.46927 0.0
C1552 C 0.64892 0.86819 0.50981 0.0
H1553 H 0.61733 0.83022 0.43322 0.0
H1554 H 0.64108 0.88376 0.44135 0.0
C1555 C 0.64485 0.84315 0.54625 0.0
C1556 C 0.65156 0.82535 0.71995 0.0
C1557 C 0.65613 0.81288 0.7638 0.0
H1558 H 0.63429 0.86245 0.67832 0.0
C1559 C 0.64624 0.82972 0.8005 0.0
H1560 H 0.65816 0.81138 0.69095 0.0
C1561 C 0.63227 0.85896 0.79332 0.0
C1562 C 0.62769 0.87108 0.74922 0.0
H1563 H 0.64877 0.81905 0.83447 0.0
H1564 H 0.6252 0.87228 0.82205 0.0
C1565 C 0.63746 0.85367 0.71275 0.0
C1566 C 0.63499 0.47171 0.74632 0.0
C1567 C 0.62025 0.47483 0.77836 0.0
H1568 H 0.66006 0.4416 0.72478 0.0
C1569 C 0.61964 0.44734 0.81399 0.0
H1570 H 0.63566 0.49149 0.7176 0.0
C1571 C 0.63364 0.41768 0.81742 0.0
C1572 C 0.64875 0.41611 0.7862 0.0
H1573 H 0.60853 0.44902 0.83928 0.0
H1574 H 0.63253 0.39564 0.84378 0.0
C1575 C 0.64922 0.44349 0.75078 0.0
C1576 C 0.39744 0.60025 0.49837 0.0
C1577 C 0.39568 0.63099 0.52969 0.0
H1578 H 0.38633 0.54616 0.47314 0.0
C1579 C 0.38096 0.62962 0.56187 0.0
H1580 H 0.40808 0.60165 0.47184 0.0
C1581 C 0.36855 0.59695 0.56345 0.0
C1582 C 0.37043 0.56609 0.5319 0.0
H1583 H 0.3789 0.65398 0.58511 0.0
H1584 H 0.3577 0.59561 0.5894 0.0
C1585 C 0.38477 0.56878 0.4988 0.0
C1586 C 0.3688 0.1964 0.47103 0.0
C1587 C 0.36901 0.16533 0.50219 0.0
H1588 H 0.3822 0.24956 0.44852 0.0
C1589 C 0.38296 0.16481 0.53639 0.0
H1590 H 0.35874 0.19636 0.44317 0.0
C1591 C 0.39659 0.19497 0.53925 0.0
C1592 C 0.39657 0.22579 0.5076 0.0
H1593 H 0.38377 0.1402 0.55968 0.0
H1594 H 0.40707 0.19427 0.56619 0.0
C1595 C 0.38248 0.22625 0.47358 0.0
C1596 C 0.37458 0.15103 0.23968 0.0
C1597 C 0.39471 0.1548 0.24135 0.0
H1598 H 0.34755 0.18062 0.23972 0.0
C1599 C 0.40266 0.19175 0.23122 0.0
H1600 H 0.36776 0.12261 0.2442 0.0
C1601 C 0.39087 0.22456 0.22507 0.0
C1602 C 0.37089 0.22188 0.2315 0.0
H1603 H 0.41795 0.19617 0.23092 0.0
H1604 H 0.39766 0.25264 0.21808 0.0
C1605 C 0.36282 0.18428 0.2361 0.0
C1606 C 0.36986 0.59325 0.25416 0.0
C1607 C 0.37218 0.62288 0.22171 0.0
H1608 H 0.38129 0.54227 0.2856 0.0
C1609 C 0.38779 0.62078 0.19193 0.0
H1610 H 0.35863 0.59534 0.2792 0.0
C1611 C 0.40073 0.5891 0.19451 0.0
C1612 C 0.3986 0.55992 0.228 0.0
H1613 H 0.39034 0.64435 0.16797 0.0
H1614 H 0.41241 0.58764 0.17068 0.0
C1615 C 0.3831 0.56301 0.2581 0.0
C1616 C 0.65957 0.93488 0.98508 0.0
C1617 C 0.65179 0.97261 0.97933 0.0
H1618 H 0.65417 0.87349 0.99484 0.0
C1619 C 0.63181 0.97569 0.97299 0.0
H1620 H 0.67482 0.93098 0.98887 0.0
C1621 C 0.61977 0.94323 0.97959 0.0
C1622 C 0.62741 0.90616 0.99046 0.0
H1623 H 0.62524 1.00392 0.96566 0.0
H1624 H 0.6045 0.948 0.9789 0.0
C1625 C 0.64755 0.90198 0.9895 0.0
C1626 C 0.62208 0.32923 0.95899 0.0
C1627 C 0.61608 0.3089 0.99791 0.0
H1628 H 0.64022 0.37509 0.93209 0.0
C1629 C 0.62463 0.31825 0.03956 0.0
H1630 H 0.61619 0.32167 0.92625 0.0
C1631 C 0.639 0.34657 0.04235 0.0
C1632 C 0.64501 0.36715 0.00376 0.0
H1633 H 0.62062 0.30241 0.06992 0.0
H1634 H 0.64501 0.35355 0.07519 0.0
C1635 C 0.63631 0.35859 0.96201 0.0
C1636 C 0.63217 0.30605 0.28282 0.0
C1637 C 0.65215 0.30914 0.27674 0.0
H1638 H 0.60494 0.33415 0.27742 0.0
C1639 C 0.66005 0.34692 0.27226 0.0
H1640 H 0.62552 0.27771 0.28921 0.0
C1641 C 0.64813 0.38 0.26865 0.0
C1642 C 0.628 0.37595 0.26731 0.0
H1643 H 0.67531 0.35079 0.26869 0.0
H1644 H 0.65481 0.40855 0.26399 0.0
C1645 C 0.62023 0.33876 0.2771 0.0
C1646 C 0.63782 0.93292 0.21202 0.0
C1647 C 0.64448 0.91366 0.25099 0.0
H1648 H 0.61922 0.97657 0.18416 0.0
C1649 C 0.63674 0.9241 0.29313 0.0
H1650 H 0.64315 0.92462 0.17899 0.0
C1651 C 0.62276 0.95385 0.29606 0.0
C1652 C 0.61607 0.97276 0.25677 0.0
H1653 H 0.64122 0.90877 0.32345 0.0
H1654 H 0.61758 0.96285 0.32895 0.0
C1655 C 0.62372 0.96172 0.21481 0.0
C1656 C 0.37591 0.13146 0.01346 0.0
C1657 C 0.39598 0.12686 0.01145 0.0
H1658 H 0.3486 0.10334 0.01645 0.0
C1659 C 0.40361 0.08987 0.02261 0.0
H1660 H 0.36932 0.15997 0.00801 0.0
C1661 C 0.39154 0.05781 0.03105 0.0
C1662 C 0.3715 0.06119 0.02611 0.0
H1663 H 0.41886 0.08486 0.02256 0.0
H1664 H 0.39813 0.02983 0.03934 0.0
C1665 C 0.36385 0.09896 0.01945 0.0
C1666 C 0.37829 0.68448 0.961 0.0
C1667 C 0.37249 0.66212 0.99845 0.0
H1668 H 0.3963 0.73055 0.9361 0.0
C1669 C 0.38122 0.66886 0.04056 0.0
H1670 H 0.37221 0.67889 0.92788 0.0
C1671 C 0.39534 0.69813 0.04514 0.0
C1672 C 0.40108 0.72035 0.00744 0.0
H1673 H 0.37742 0.65097 0.06951 0.0
H1674 H 0.40137 0.70414 0.07817 0.0
C1675 C 0.39244 0.7131 0.9654 0.0
C1676 C 0.38514 0.66855 0.71178 0.0
C1677 C 0.39029 0.6575 0.75587 0.0
H1678 H 0.36801 0.70729 0.67069 0.0
C1679 C 0.38092 0.67541 0.79257 0.0
H1680 H 0.39188 0.65468 0.68295 0.0
C1681 C 0.36668 0.70343 0.78559 0.0
C1682 C 0.36165 0.71507 0.74172 0.0
H1683 H 0.38452 0.6673 0.82697 0.0
H1684 H 0.36036 0.71784 0.81465 0.0
C1685 C 0.37101 0.69743 0.70478 0.0
C1686 C 0.38445 0.11245 0.71556 0.0
C1687 C 0.37629 0.12114 0.75772 0.0
H1688 H 0.40433 0.07599 0.67901 0.0
C1689 C 0.38317 0.10161 0.79631 0.0
H1690 H 0.37988 0.12822 0.68562 0.0
C1691 C 0.39783 0.07399 0.79301 0.0
C1692 C 0.40576 0.06437 0.75087 0.0
H1693 H 0.37757 0.10878 0.82943 0.0
H1694 H 0.4024 0.05862 0.82326 0.0
C1695 C 0.39894 0.08388 0.71208 0.0
C1696 C 0.01028 0.2065 0.86696 0.0
C1697 C 0.01051 0.16733 0.88384 0.0
H1698 H 0.01121 0.26895 0.88117 0.0
C1699 C 0.01226 0.16266 0.93087 0.0
H1700 H 1.00912 0.21172 0.83106 0.0
C1701 C 0.01324 0.19581 0.95984 0.0
C1702 C 0.01281 0.235 0.94294 0.0
H1703 H 0.01257 0.13335 0.94547 0.0
H1704 H 0.01427 0.19055 0.99585 0.0
C1705 C 0.01153 0.23966 0.89583 0.0
C1706 C 0.2536 0.08684 0.96436 0.0
C1707 C 0.25787 0.04809 0.94951 0.0
H1708 H 0.25145 0.14871 0.94814 0.0
C1709 C 0.26351 0.04341 0.90425 0.0
H1710 H 0.24909 0.09194 0.99886 0.0
C1711 C 0.26522 0.07637 0.87528 0.0
C1712 C 0.26105 0.11521 0.89017 0.0
H1713 H 0.26692 1.01433 0.8913 0.0
H1714 H 0.26978 0.0712 0.84089 0.0
C1715 C 0.25499 0.1197 0.93519 0.0
C1716 C 0.01909 0.11688 0.32786 0.0
C1717 C 1.01008 0.11463 0.37025 0.0
H1718 H 0.02754 0.08668 0.26723 0.0
C1719 C 1.0033 0.077 0.38391 0.0
H1720 H 0.02471 0.14479 0.31597 0.0
C1721 C 1.00538 0.04313 0.3563 0.0
C1722 C 0.01395 0.04572 0.31348 0.0
H1723 H 0.99639 0.0735 0.41632 0.0
H1724 H 0.99984 1.0151 0.36811 0.0
C1725 C 0.02078 0.08323 0.29987 0.0
C1726 C 0.25894 0.16218 0.32235 0.0
C1727 C 0.25958 0.16744 0.36947 0.0
H1728 H 0.25796 0.18919 0.25682 0.0
C1729 C 0.25906 0.20679 0.38585 0.0
H1730 H 0.25922 0.1327 0.3081 0.0
C1731 C 0.25813 0.23955 0.35634 0.0
C1732 C 0.25789 0.23428 0.30919 0.0
H1733 H 0.25934 0.21245 0.4218 0.0
H1734 H 0.25781 0.26903 0.37057 0.0
C1735 C 0.25822 0.19492 0.29283 0.0
C1736 C 1.00697 0.86768 0.07761 0.0
C1737 C 0.01327 0.8631 0.12257 0.0
H1738 H 1.00073 0.84026 0.01372 0.0
C1739 C 0.01766 0.82428 0.13696 0.0
H1740 H 1.00335 0.89673 0.06493 0.0
C1741 C 0.01565 0.79139 0.1077 0.0
C1742 C 1.00963 0.79617 0.06254 0.0
H1743 H 0.02244 0.81913 0.17123 0.0
H1744 H 0.01909 0.76224 0.12034 0.0
C1745 C 1.00543 0.835 0.04808 0.0
C1746 C 0.76547 0.94993 0.04516 0.0
C1747 C 0.7584 0.98726 0.05821 0.0
H1748 H 0.7702 0.88912 0.06259 0.0
C1749 C 0.74997 0.99029 0.10126 0.0
H1750 H 0.7722 0.94623 0.01251 0.0
C1751 C 0.74836 0.95693 0.12984 0.0
C1752 C 0.75548 0.91953 0.11675 0.0
H1753 H 0.74428 0.01833 0.11259 0.0
H1754 H 0.74173 0.96066 0.16258 0.0
C1755 C 0.76425 0.91689 0.07401 0.0
C1756 C 1.00873 0.91454 0.67926 0.0
C1757 C 0.01504 0.91828 0.63434 0.0
H1758 H 1.00286 0.94314 0.74244 0.0
C1759 C 0.01986 0.95661 0.61907 0.0
H1760 H 1.00472 0.88589 0.69243 0.0
C1761 C 0.01835 0.98994 0.64764 0.0
C1762 C 0.01237 0.98597 0.69278 0.0
H1763 H 0.0246 0.96108 0.58468 0.0
H1764 H 0.02215 0.01873 0.63448 0.0
C1765 C 1.00763 0.94766 0.70803 0.0
C1766 C 0.76241 0.78971 0.64611 0.0
C1767 C 0.76023 0.79262 0.6933 0.0
H1768 H 0.76345 0.81992 0.58231 0.0
C1769 C 0.75758 0.8311 0.71134 0.0
H1770 H 0.76463 0.76114 0.63051 0.0
C1771 C 0.7571 0.86506 0.6835 0.0
C1772 C 0.75896 0.86203 0.6363 0.0
H1773 H 0.75575 0.83518 0.74736 0.0
H1774 H 0.75488 0.89368 0.69898 0.0
C1775 C 0.76169 0.82369 0.61827 0.0
C1776 C 0.02685 0.70902 0.44196 0.0
C1777 C 0.01218 0.73757 0.44195 0.0
H1778 H 0.03729 0.65369 0.4155 0.0
C1779 C 0.99605 0.7303 0.41493 0.0
H1780 H 0.03939 0.71345 0.46283 0.0
C1781 C 0.99468 0.69571 0.38845 0.0
C1782 C 1.0093 0.66695 0.38839 0.0
H1783 H 0.98421 0.75087 0.41521 0.0
H1784 H 0.98197 0.6913 0.36815 0.0
C1785 C 0.0255 0.67436 0.41542 0.0
C1786 C 0.26503 0.57537 0.37301 0.0
C1787 C 0.26137 0.61435 0.3883 0.0
H1788 H 0.26672 0.51327 0.38891 0.0
C1789 C 0.25618 0.61892 0.43392 0.0
H1790 H 0.26889 0.57009 0.33814 0.0
C1791 C 0.2551 0.58606 0.4632 0.0
C1792 C 0.2589 0.54717 0.44801 0.0
H1793 H 0.25304 0.64799 0.44723 0.0
H1794 H 0.25121 0.59128 0.4981 0.0
C1795 C 0.26371 0.54242 0.4022 0.0
C1796 C 1.00508 0.54282 0.85621 0.0
C1797 C 0.01137 0.54677 0.81135 0.0
H1798 H 0.99818 0.57162 0.9187 0.0
C1799 C 0.01647 0.58518 0.7967 0.0
H1800 H 1.00096 0.51408 0.869 0.0
C1801 C 0.0153 0.61833 0.82565 0.0
C1802 C 1.00851 0.61462 0.87017 0.0
H1803 H 0.02147 0.58976 0.76249 0.0
H1804 H 0.01948 0.647 0.81283 0.0
C1805 C 1.00344 0.57615 0.88481 0.0
C1806 C 0.26086 0.66201 0.82401 0.0
C1807 C 0.25984 0.66718 0.87107 0.0
H1808 H 0.26136 0.68913 0.75854 0.0
C1809 C 0.2579 0.70635 0.88734 0.0
H1810 H 0.26239 0.63266 0.8099 0.0
C1811 C 0.25716 0.7391 0.85781 0.0
C1812 C 0.2585 0.73399 0.81075 0.0
H1813 H 0.25682 0.71182 0.92324 0.0
H1814 H 0.25555 0.76842 0.87197 0.0
C1815 C 0.2603 0.69476 0.79448 0.0
C1816 C 0.01695 0.29177 0.6063 0.0
C1817 C 0.01142 0.29635 0.5608 0.0
H1818 H 0.02335 0.31985 0.66975 0.0
C1819 C 1.00793 0.33521 0.54542 0.0
H1820 H 0.01983 0.26259 0.61963 0.0
C1821 C 1.00969 0.36815 0.57441 0.0
C1822 C 0.01537 0.36374 0.61984 0.0
H1823 H 1.00362 0.34031 0.51074 0.0
H1824 H 1.00655 0.3972 0.56104 0.0
C1825 C 0.01905 0.32488 0.63513 0.0
C1826 C 0.75006 0.45832 0.63124 0.0
C1827 C 0.76065 0.42382 0.62244 0.0
H1828 H 0.74047 0.51486 0.60727 0.0
C1829 C 0.7703 0.42133 0.58083 0.0
H1830 H 0.74173 0.46056 0.66181 0.0
C1831 C 0.76989 0.45303 0.54989 0.0
C1832 C 0.75978 0.4881 0.55953 0.0
H1833 H 0.77846 0.39517 0.5725 0.0
H1834 H 0.77773 0.45024 0.51855 0.0
C1835 C 0.74949 0.48975 0.60015 0.0
C1836 C 0.01208 0.44569 0.21079 0.0
C1837 C 1.01016 0.48488 0.19477 0.0
H1838 H 0.01433 0.38375 0.19481 0.0
C1839 C 1.00904 0.49022 0.14765 0.0
H1840 H 0.01299 0.43996 0.24673 0.0
C1841 C 1.01007 0.45773 0.11778 0.0
C1842 C 0.01199 0.41858 0.13378 0.0
H1843 H 1.0075 0.5196 0.13366 0.0
H1844 H 1.00921 0.46341 0.0819 0.0
C1845 C 0.01283 0.41317 0.1809 0.0
C1846 C 0.76074 0.36812 0.18436 0.0
C1847 C 0.75585 0.36385 0.13844 0.0
H1848 H 0.76549 0.34 0.24839 0.0
C1849 C 0.75254 0.32503 0.12236 0.0
H1850 H 0.76359 0.39715 0.19825 0.0
C1851 C 0.754 0.29184 0.1511 0.0
C1852 C 0.75849 0.29628 0.19721 0.0
H1853 H 0.74893 0.32009 0.08725 0.0
H1854 H 0.75134 0.26273 0.13724 0.0
C1855 C 0.76186 0.33505 0.21324 0.0
C1856 C 0.50863 0.23998 0.40123 0.0
C1857 C 0.51511 0.23597 0.44601 0.0
H1858 H 0.50121 0.21131 0.33886 0.0
C1859 C 0.5197 0.19737 0.4609 0.0
H1860 H 0.50482 0.26884 0.38831 0.0
C1861 C 0.5179 0.16409 0.43223 0.0
C1862 C 0.51104 0.16788 0.38768 0.0
H1863 H 0.5248 0.19275 0.49506 0.0
H1864 H 0.52179 0.1353 0.4452 0.0
C1865 C 0.50646 0.20659 0.37283 0.0
C1866 C 0.76557 0.04382 0.40403 0.0
C1867 C 0.7589 0.04782 0.44857 0.0
H1868 H 0.77231 0.07228 0.34133 0.0
C1869 C 0.7533 0.086 0.46286 0.0
H1870 H 0.77003 1.0152 0.39158 0.0
C1871 C 0.75443 0.119 0.43384 0.0
C1872 C 0.76151 0.11526 0.38957 0.0
H1873 H 0.74794 0.09049 0.49677 0.0
H1874 H 0.74983 0.14752 0.44628 0.0
C1875 C 0.76697 0.07694 0.37521 0.0
C1876 C 0.50907 0.12121 0.82474 0.0
C1877 C 0.5112 0.11651 0.87164 0.0
H1878 H 0.50768 0.09356 0.75958 0.0
C1879 C 0.51436 0.07768 0.88785 0.0
H1880 H 0.50654 0.15027 0.81069 0.0
C1881 C 0.51517 0.04476 0.85847 0.0
C1882 C 0.51268 0.04935 0.81159 0.0
H1883 H 0.51635 0.07266 0.9236 0.0
H1884 H 0.51771 1.01573 0.87258 0.0
C1885 C 0.50968 0.08829 0.79536 0.0
C1886 C 0.75336 0.20124 0.79478 0.0
C1887 C 0.75802 0.23946 0.81126 0.0
H1888 H 0.75067 0.13876 0.80816 0.0
C1889 C 0.76368 0.24211 0.85681 0.0
H1890 H 0.74887 0.19748 0.75999 0.0
C1891 C 0.76512 0.20796 0.88424 0.0
C1892 C 0.76062 0.16964 0.86774 0.0
H1893 H 0.76748 0.27051 0.87113 0.0
H1894 H 0.76982 0.2118 0.91879 0.0
C1895 C 0.75445 0.16716 0.82249 0.0
C1896 C 0.51871 0.82811 0.63576 0.0
C1897 C 0.51459 0.86661 0.61986 0.0
H1898 H 0.52051 0.76585 0.62105 0.0
C1899 C 0.50895 0.87035 0.57436 0.0
H1900 H 0.52294 0.82355 0.67055 0.0
C1901 C 0.5078 0.83705 0.54574 0.0
C1902 C 0.51189 0.79861 0.56167 0.0
H1903 H 0.5055 0.89912 0.56064 0.0
H1904 H 0.50355 0.84154 0.51091 0.0
C1905 C 0.51725 0.79471 0.60731 0.0
C1906 C 0.25547 0.98966 0.6077 0.0
C1907 C 0.25598 0.98455 0.56046 0.0
H1908 H 0.25412 0.96225 0.67308 0.0
C1909 C 0.25573 0.94532 0.5439 0.0
H1910 H 0.25581 0.01908 0.62209 0.0
C1911 C 0.25499 0.91254 0.5733 0.0
C1912 C 0.25417 0.91762 0.62047 0.0
H1913 H 0.25617 0.93972 0.50788 0.0
H1914 H 0.25488 0.88312 0.5589 0.0
C1915 C 0.25445 0.95682 0.63709 0.0
C1916 C 0.51867 0.95666 0.12018 0.0
C1917 C 0.51354 0.91834 0.13494 0.0
H1918 H 0.52161 0.01857 0.13622 0.0
C1919 C 0.50739 0.91453 0.18003 0.0
H1920 H 0.52341 0.9612 0.08584 0.0
C1921 C 0.5068 0.94748 0.20935 0.0
C1922 C 0.51183 0.98581 0.19451 0.0
H1923 H 0.50322 0.8859 0.19298 0.0
H1924 H 0.50222 0.94286 0.24388 0.0
C1925 C 0.51759 0.98984 0.14917 0.0
C1926 C 0.25253 0.79379 0.15287 0.0
C1927 C 0.25862 0.79762 0.19804 0.0
H1928 H 0.24653 0.82263 0.08979 0.0
C1929 C 0.26397 0.83574 0.213 0.0
H1930 H 0.24828 0.76518 0.13986 0.0
C1931 C 0.26335 0.86874 0.18392 0.0
C1932 C 0.25691 0.86513 0.13899 0.0
H1933 H 0.26882 0.84017 0.24741 0.0
H1934 H 0.26776 0.89725 0.19691 0.0
C1935 C 0.25148 0.82701 0.12407 0.0
C1936 C 0.50156 0.70517 0.8722 0.0
C1937 C 0.50878 0.66765 0.88495 0.0
H1938 H 0.49756 0.76661 0.88934 0.0
C1939 C 0.51817 0.66524 0.92698 0.0
H1940 H 0.49436 0.70883 0.8401 0.0
C1941 C 0.51972 0.69857 0.95559 0.0
C1942 C 0.51239 0.7359 0.94291 0.0
H1943 H 0.52417 0.63743 0.93815 0.0
H1944 H 0.52676 0.69504 0.98796 0.0
C1945 C 0.50351 0.73871 0.90039 0.0
C1946 C 0.76625 0.54112 0.90421 0.0
C1947 C 0.75762 0.54545 0.94661 0.0
H1948 H 0.77365 0.5677 0.84092 0.0
C1949 C 0.74991 0.58291 0.95735 0.0
H1950 H 0.77338 0.51394 0.89591 0.0
C1951 C 0.75042 0.6145 0.9261 0.0
C1952 C 0.75864 0.60963 0.88306 0.0
H1953 H 0.74333 0.58778 0.98995 0.0
H1954 H 0.74411 0.64253 0.93546 0.0
C1955 C 0.76664 0.57243 0.87293 0.0
C1956 C 0.50759 0.54412 0.35847 0.0
C1957 C 0.51383 0.54813 0.31355 0.0
H1958 H 0.50098 0.57282 0.42127 0.0
C1959 C 0.51888 0.58653 0.29885 0.0
H1960 H 0.50354 0.51535 0.37127 0.0
C1961 C 0.51771 0.61964 0.32779 0.0
C1962 C 0.51102 0.61588 0.37239 0.0
H1963 H 0.52383 0.59115 0.26462 0.0
H1964 H 0.52184 0.64832 0.31491 0.0
C1965 C 0.50603 0.57741 0.38716 0.0
C1966 C 0.76167 0.69609 0.29109 0.0
C1967 C 0.75945 0.73523 0.3074 0.0
H1968 H 0.76439 0.63406 0.30636 0.0
C1969 C 0.75795 0.74016 0.35447 0.0
H1970 H 0.76281 0.69055 0.25515 0.0
C1971 C 0.75904 0.70737 0.38394 0.0
C1972 C 0.7615 0.66832 0.36763 0.0
H1973 H 0.75605 0.76938 0.36868 0.0
H1974 H 0.75786 0.71274 0.41983 0.0
C1975 C 0.76256 0.66331 0.32055 0.0
C1976 C 0.52032 0.32738 0.13755 0.0
C1977 C 0.51404 0.36508 0.1232 0.0
H1978 H 0.52409 0.2657 0.12143 0.0
C1979 C 0.50652 0.36802 0.07916 0.0
H1980 H 0.52608 0.3235 0.1712 0.0
C1981 C 0.50575 0.33487 0.05027 0.0
C1982 C 0.51202 0.29722 0.06461 0.0
H1983 H 0.50139 0.39614 0.06668 0.0
H1984 H 0.50009 0.33881 0.01649 0.0
C1985 C 0.51911 0.29395 0.10899 0.0
C1986 C 0.26662 0.45074 0.05093 0.0
C1987 C 0.25768 0.4866 0.06284 0.0
H1988 H 0.27312 0.39075 0.06887 0.0
C1989 C 0.24784 0.48795 0.10422 0.0
H1990 H 0.27448 0.44849 0.01955 0.0
C1991 C 0.2466 0.45418 0.13218 0.0
C1992 C 0.25552 0.41819 0.12017 0.0
H1993 H 0.24071 0.51485 0.11454 0.0
H1994 H 0.23878 0.4565 0.16358 0.0
C1995 C 0.26578 0.41737 0.07929 0.0
C1996 C 0.52008 0.45574 0.62192 0.0
C1997 C 0.51151 0.4191 0.63285 0.0
H1998 H 0.52492 0.51671 0.6405 0.0
C1999 C 0.5011 0.41729 0.67352 0.0
H2000 H 0.52815 0.45871 0.59097 0.0
C2001 C 0.49974 0.45033 0.70258 0.0
C2002 C 0.50811 0.48704 0.69148 0.0
H2003 H 0.49421 0.38999 0.68339 0.0
H2004 H 0.4919 0.44715 0.73388 0.0
C2005 C 0.51814 0.48927 0.6503 0.0
C2006 C 0.25366 0.29108 0.65135 0.0
C2007 C 0.2592 0.29536 0.69687 0.0
H2008 H 0.24801 0.31953 0.5878 0.0
C2009 C 0.26402 0.33376 0.7119 0.0
H2010 H 0.24979 0.26225 0.63831 0.0
C2011 C 0.2634 0.3666 0.68261 0.0
C2012 C 0.25748 0.36258 0.63734 0.0
H2013 H 0.26846 0.33854 0.74656 0.0
H2014 H 0.2674 0.39531 0.69574 0.0
C2015 C 0.25258 0.32418 0.62231 0.0
C2016 C 0.12487 0.33773 0.16675 0.0
C2017 C 0.14054 0.31275 0.17609 0.0
H2018 H 0.10286 0.35468 0.12147 0.0
C2019 C 0.145 0.28308 0.14439 0.0
H2020 H 0.12145 0.36292 0.18774 0.0
C2021 C 0.13442 0.27966 0.10404 0.0
C2022 C 0.1189 0.30502 0.09563 0.0
H2023 H 0.15702 0.2636 0.14984 0.0
H2024 H 0.13888 0.25866 0.07856 0.0
C2025 C 0.11401 0.3332 0.12807 0.0
C2026 C 0.11325 0.95331 0.12284 0.0
C2027 C 0.11976 0.97844 0.15695 0.0
H2028 H 0.11915 0.92363 0.06274 0.0
C2029 C 0.13639 1.0008 0.14957 0.0
H2030 H 0.10096 0.9344 0.12831 0.0
C2031 C 0.14687 0.99624 0.10943 0.0
C2032 C 0.14128 0.96808 0.07674 0.0
H2033 H 0.14193 0.01975 0.17605 0.0
H2034 H 0.15982 1.01324 0.10548 0.0
C2035 C 0.124 0.94737 0.08425 0.0
C2036 C 0.89506 0.74403 0.88406 0.0
C2037 C 0.88961 0.71967 0.92031 0.0
H2038 H 0.88886 0.76254 0.81597 0.0
C2039 C 0.87211 0.69899 0.91663 0.0
H2040 H 0.90836 0.76029 0.88524 0.0
C2041 C 0.86067 0.70191 0.87856 0.0
C2042 C 0.86658 0.72403 0.84131 0.0
H2043 H 0.86754 0.67808 0.94202 0.0
H2044 H 0.84815 0.68313 0.87658 0.0
C2045 C 0.88369 0.746 0.84477 0.0
C2046 C 0.90737 0.03942 0.88828 0.0
C2047 C 0.89913 0.04424 0.84543 0.0
H2048 H 0.90218 0.03765 0.95935 0.0
C2049 C 0.87944 0.03662 0.84049 0.0
H2050 H 0.92254 0.04378 0.89332 0.0
C2051 C 0.86764 0.03568 0.87848 0.0
C2052 C 0.87563 0.04058 0.92161 0.0
H2053 H 0.87279 0.03808 0.80744 0.0
H2054 H 0.85235 0.03753 0.87343 0.0
C2055 C 0.89559 0.03611 0.92623 0.0
C2056 C 0.15139 0.78994 0.64069 0.0
C2057 C 0.14273 0.80154 0.68141 0.0
H2058 H 0.14796 0.78165 0.5696 0.0
C2059 C 0.12254 0.80219 0.68277 0.0
H2060 H 0.16673 0.78774 0.63773 0.0
C2061 C 0.11188 0.80154 0.64275 0.0
C2062 C 0.12113 0.79753 0.60104 0.0
H2063 H 0.11503 0.8079 0.71401 0.0
H2064 H 0.09684 0.80885 0.64431 0.0
C2065 C 0.14055 0.78677 0.60116 0.0
C2066 C 0.14624 0.48852 0.60923 0.0
C2067 C 0.1424 0.45999 0.57575 0.0
H2068 H 0.1392 0.50991 0.67574 0.0
C2069 C 0.12669 0.43429 0.58238 0.0
H2070 H 0.15817 0.50861 0.60584 0.0
C2071 C 0.11535 0.43682 0.6205 0.0
C2072 C 0.11981 0.46361 0.65468 0.0
H2073 H 0.12364 0.40997 0.55976 0.0
H2074 H 0.10419 0.415 0.62529 0.0
C2075 C 0.13518 0.48986 0.6488 0.0
C2076 C 0.86467 0.24855 0.38375 0.0
C2077 C 0.87314 0.24127 0.34166 0.0
H2078 H 0.8692 0.25161 0.45506 0.0
C2079 C 0.89305 0.24629 0.33771 0.0
H2080 H 0.84937 0.24602 0.38799 0.0
C2081 C 0.90448 0.24721 0.37647 0.0
C2082 C 0.89596 0.24485 0.41924 0.0
H2083 H 0.89994 0.24262 0.30525 0.0
H2084 H 0.91974 0.2434 0.37257 0.0
C2085 C 0.87613 0.25148 0.42237 0.0
C2086 C 0.89318 0.52443 0.36112 0.0
C2087 C 0.8934 0.55822 0.33356 0.0
H2088 H 0.88246 0.49862 0.42287 0.0
C2089 C 0.88237 0.59111 0.34604 0.0
H2090 H 0.90179 0.49898 0.35252 0.0
C2091 C 0.87062 0.58986 0.38342 0.0
C2092 C 0.87036 0.5566 0.41136 0.0
H2093 H 0.88299 0.61835 0.32697 0.0
H2094 H 0.86259 0.61612 0.39225 0.0
C2095 C 0.88189 0.5239 0.40051 0.0
C2096 C 0.64314 0.2932 0.60623 0.0
C2097 C 0.62537 0.31244 0.60229 0.0
H2098 H 0.6681 0.2831 0.64694 0.0
C2099 C 0.61866 0.33434 0.63889 0.0
H2100 H 0.6489 0.27708 0.57773 0.0
C2101 C 0.62998 0.33984 0.67694 0.0
C2102 C 0.64817 0.32187 0.68122 0.0
H2103 H 0.60553 0.3511 0.63611 0.0
H2104 H 0.6247 0.36103 0.70119 0.0
C2105 C 0.65432 0.29743 0.64556 0.0
C2106 C 0.61633 0.99771 0.62239 0.0
C2107 C 0.62416 0.99483 0.66589 0.0
H2108 H 0.6221 0.99468 0.55165 0.0
C2109 C 0.64384 1.0024 0.67131 0.0
H2110 H 0.60119 0.99324 0.6169 0.0
C2111 C 0.65597 1.00052 0.63393 0.0
C2112 C 0.64828 0.99342 0.59088 0.0
H2113 H 0.65019 1.00208 0.70473 0.0
H2114 H 0.6712 0.99837 0.63983 0.0
C2115 C 0.62842 0.99806 0.58488 0.0
C2116 C 0.38553 0.74852 0.40296 0.0
C2117 C 0.39926 0.71942 0.41287 0.0
H2118 H 0.36372 0.76807 0.35644 0.0
C2119 C 0.40126 0.68715 0.38384 0.0
H2120 H 0.38322 0.77277 0.42619 0.0
C2121 C 0.38961 0.68328 0.34627 0.0
C2122 C 0.3761 0.71254 0.33493 0.0
H2123 H 0.41093 0.6632 0.39213 0.0
H2124 H 0.39089 0.65628 0.32681 0.0
C2125 C 0.37416 0.74539 0.36374 0.0
C2126 C 0.4057 0.04016 0.3903 0.0
C2127 C 0.39856 0.04184 0.3461 0.0
H2128 H 0.39869 0.0426 0.46046 0.0
C2129 C 0.37907 0.0331 0.33901 0.0
H2130 H 0.42067 0.04569 0.39703 0.0
C2131 C 0.36629 0.03404 0.37522 0.0
C2132 C 0.37311 0.04164 0.41894 0.0
H2133 H 0.37328 0.03263 0.30503 0.0
H2134 H 0.35115 0.0349 0.36793 0.0
C2135 C 0.39298 0.0388 0.42668 0.0
C2136 C 0.65305 0.78349 0.12921 0.0
C2137 C 0.64475 0.78854 0.17191 0.0
H2138 H 0.64843 0.786 0.05795 0.0
C2139 C 0.62476 0.78429 0.17558 0.0
H2140 H 0.66837 0.78519 0.12491 0.0
C2141 C 0.61328 0.78766 0.13705 0.0
C2142 C 0.62185 0.7924 0.09464 0.0
H2143 H 0.61796 0.78592 0.20838 0.0
H2144 H 0.59809 0.7922 0.14133 0.0
C2145 C 0.64154 0.78456 0.09065 0.0
C2146 C 0.65388 0.49694 0.12751 0.0
C2147 C 0.64549 0.49137 0.08489 0.0
H2148 H 0.64938 0.49569 0.1988 0.0
C2149 C 0.6255 0.49558 0.08114 0.0
H2150 H 0.6692 0.49525 0.13186 0.0
C2151 C 0.61408 0.49299 0.11974 0.0
C2152 C 0.62271 0.48896 0.16226 0.0
H2153 H 0.61862 0.49359 0.04839 0.0
H2154 H 0.59887 0.48851 0.11557 0.0
C2155 C 0.64243 0.49666 0.16607 0.0
C2156 C 0.38053 0.24966 0.91634 0.0
C2157 C 0.40016 0.24227 0.90981 0.0
H2158 H 0.35297 0.24847 0.88533 0.0
C2159 C 0.40775 0.24802 0.86656 0.0
H2160 H 0.37437 0.24743 0.94979 0.0
C2161 C 0.3954 0.25187 0.82956 0.0
C2162 C 0.37554 0.24668 0.83553 0.0
H2163 H 0.42284 0.24383 0.86035 0.0
H2164 H 0.40149 0.25083 0.79596 0.0
C2165 C 0.36816 0.2509 0.87924 0.0
C2166 C 0.39169 0.53233 0.92258 0.0
C2167 C 0.37176 0.53699 0.9175 0.0
H2168 H 0.41868 0.53732 0.88937 0.0
C2169 C 0.36377 0.5296 0.87483 0.0
H2170 H 0.39826 0.5357 0.95554 0.0
C2171 C 0.37564 0.52737 0.83694 0.0
C2172 C 0.39536 0.53525 0.84134 0.0
H2173 H 0.34851 0.53164 0.86955 0.0
H2174 H 0.36902 0.52724 0.80381 0.0
C2175 C 0.40351 0.5327 0.88454 0.0
C2176 C 0.02353 0.49548 0.98261 0.0
C2177 C 1.00621 0.47451 0.98447 0.0
H2178 H 0.03794 0.55054 0.99296 0.0
C2179 C 0.98975 0.49452 0.99915 0.0
H2180 H 0.03656 0.481 0.97214 0.0
C2181 C 0.99061 0.53436 0.01187 0.0
C2182 C 1.00794 0.55529 0.01006 0.0
H2183 H 0.9762 0.47924 1.00152 0.0
H2184 H 0.97759 0.5489 0.02241 0.0
C2185 C 0.02438 0.5353 0.99527 0.0
C2186 C 0.24299 0.74932 0.00633 0.0
C2187 C 0.25936 0.72894 0.02109 0.0
H2188 H 0.23095 0.80409 0.98421 0.0
C2189 C 0.27668 0.74978 0.02429 0.0
H2190 H 0.22944 0.73419 1.00288 0.0
C2191 C 0.27756 0.79001 0.01326 0.0
C2192 C 0.26118 0.81032 0.99845 0.0
H2193 H 0.28962 0.73498 0.03494 0.0
H2194 H 0.29106 0.80528 0.01684 0.0
C2195 C 0.24391 0.78937 0.99488 0.0
C2196 C 0.99614 0.74698 0.23746 0.0
C2197 C 0.01293 0.72558 0.24617 0.0
H2198 H 0.98198 0.80289 0.23965 0.0
C2199 C 0.02867 0.74564 0.26491 0.0
H2200 H 0.98364 0.73248 0.22359 0.0
C2201 C 0.02765 0.7861 0.27462 0.0
C2202 C 0.01084 0.80747 0.26593 0.0
H2203 H 0.04178 0.73003 0.27249 0.0
H2204 H 0.04014 0.80069 0.28835 0.0
C2205 C 0.99509 0.78735 0.2473 0.0
C2206 C 0.27385 0.53261 0.22778 0.0
C2207 C 0.25757 0.55439 0.23979 0.0
H2208 H 0.28741 0.47596 0.22558 0.0
C2209 C 0.2422 0.53432 0.26012 0.0
H2210 H 0.28601 0.54708 0.21247 0.0
C2211 C 0.24311 0.49362 0.26834 0.0
C2212 C 0.25938 0.47182 0.25632 0.0
H2213 H 0.22951 0.55014 0.2704 0.0
H2214 H 0.23094 0.47922 0.2837 0.0
C2215 C 0.27473 0.49184 0.23586 0.0
C2216 C 0.77706 0.28966 0.00777 0.0
C2217 C 0.76067 0.30945 0.99205 0.0
H2218 H 0.78944 0.23496 0.02932 0.0
C2219 C 0.74372 0.28772 0.98649 0.0
H2220 H 0.79032 0.30549 0.01293 0.0
C2221 C 0.74315 0.24733 0.99658 0.0
C2222 C 0.75952 0.22756 0.01239 0.0
H2223 H 0.73077 0.30201 0.97504 0.0
H2224 H 0.72988 0.23151 0.99146 0.0
C2225 C 0.77649 0.24926 0.01784 0.0
C2226 C 0.02632 0.28834 0.76431 0.0
C2227 C 1.00902 0.30921 0.76159 0.0
H2228 H 0.04082 0.2334 0.75456 0.0
C2229 C 0.99267 0.28912 0.74607 0.0
H2230 H 0.03928 0.30292 0.77537 0.0
C2231 C 0.99357 0.24918 0.73372 0.0
C2232 C 0.01089 0.22834 0.73634 0.0
H2233 H 0.97914 0.30435 0.74302 0.0
H2234 H 0.98062 0.23454 0.72269 0.0
C2235 C 0.02726 0.24853 0.75161 0.0
C2236 C 0.77683 0.54059 0.75166 0.0
C2237 C 0.7604 0.54968 0.72667 0.0
H2238 H 0.79077 0.49972 0.79628 0.0
C2239 C 0.74529 0.52178 0.72729 0.0
H2240 H 0.78902 0.56028 0.7509 0.0
C2241 C 0.74645 0.48622 0.7522 0.0
C2242 C 0.76294 0.47701 0.77695 0.0
H2243 H 0.73257 0.52713 0.70735 0.0
H2244 H 0.73429 0.46646 0.75284 0.0
C2245 C 0.778 0.50507 0.77655 0.0
C2246 C 0.02598 0.03599 0.48792 0.0
C2247 C 0.01057 0.05524 0.50905 0.0
H2248 H 0.0376 0.98151 0.4634 0.0
C2249 C 0.99448 0.03277 0.52092 0.0
H2250 H 0.03851 0.0524 0.47762 0.0
C2251 C 0.99388 0.99209 0.51219 0.0
C2252 C 1.00935 0.9728 0.49135 0.0
H2253 H 0.98227 0.04662 0.53673 0.0
H2254 H 0.98136 0.97566 0.52254 0.0
C2255 C 0.02537 0.99534 0.47916 0.0
C2256 C 0.2443 0.28836 0.49425 0.0
C2257 C 0.26178 0.3087 0.49611 0.0
H2258 H 0.22948 0.23381 0.50422 0.0
C2259 C 0.27819 0.28788 0.5098 0.0
H2260 H 0.2313 0.30348 0.48456 0.0
C2261 C 0.27713 0.2478 0.52141 0.0
C2262 C 0.2596 0.22757 0.51996 0.0
H2263 H 0.29187 0.30268 0.51204 0.0
H2264 H 0.2901 0.2326 0.53113 0.0
C2265 C 0.2432 0.24844 0.5063 0.0
C2266 C 0.24426 0.99379 0.77135 0.0
C2267 C 0.26139 0.97234 0.76867 0.0
H2268 H 0.2303 0.04953 0.76308 0.0
C2269 C 0.27805 0.99237 0.75513 0.0
H2270 H 0.23109 0.97935 0.78105 0.0
C2271 C 0.27755 0.03265 0.74417 0.0
C2272 C 0.26038 0.05399 0.74648 0.0
H2273 H 0.29149 0.97679 0.7523 0.0
H2274 H 0.2907 0.04713 0.73438 0.0
C2275 C 0.24376 0.03402 0.76035 0.0
C2276 C 0.74205 0.75048 0.50435 0.0
C2277 C 0.75878 0.72964 0.5155 0.0
H2278 H 0.72971 0.80532 0.48328 0.0
C2279 C 0.7764 0.74933 0.51248 0.0
H2280 H 0.72825 0.73612 0.50574 0.0
C2281 C 0.77728 0.78883 0.49864 0.0
C2282 C 0.76055 0.80979 0.48785 0.0
H2283 H 0.78961 0.73409 0.52008 0.0
H2284 H 0.79109 0.80317 0.49736 0.0
C2285 C 0.74292 0.79003 0.49069 0.0
C2286 C 0.74443 0.99369 0.27245 0.0
C2287 C 0.76047 0.97172 0.25918 0.0
H2288 H 0.7311 0.05043 0.27594 0.0
C2289 C 0.77573 0.99166 0.23826 0.0
H2290 H 0.73236 0.97934 0.28828 0.0
C2291 C 0.77494 0.03248 0.23067 0.0
C2292 C 0.75885 0.0544 0.24372 0.0
H2293 H 0.78824 0.97567 0.22707 0.0
H2294 H 0.787 0.04687 0.21481 0.0
C2295 C 0.74363 0.03447 0.26479 0.0
C2296 C 0.52858 0.53677 0.49611 0.0
C2297 C 0.51299 0.55626 0.51614 0.0
H2298 H 0.54039 0.48209 0.47284 0.0
C2299 C 0.49685 0.53387 0.52786 0.0
H2300 H 0.54119 0.55306 0.48609 0.0
C2301 C 0.49632 0.49307 0.51974 0.0
C2302 C 0.51192 0.47363 0.49965 0.0
H2303 H 0.48452 0.5479 0.54295 0.0
H2304 H 0.48374 0.4767 0.52981 0.0
C2305 C 0.52805 0.49604 0.48795 0.0
C2306 C 0.4928 0.75127 0.74045 0.0
C2307 C 0.50937 0.72864 0.74703 0.0
H2308 H 0.4798 0.80844 0.74338 0.0
C2309 C 0.5259 0.74781 0.76321 0.0
H2310 H 0.47974 0.73752 0.7287 0.0
C2311 C 0.5259 0.78851 0.77219 0.0
C2312 C 0.50936 0.81119 0.76531 0.0
H2313 H 0.5389 0.73133 0.76923 0.0
H2314 H 0.53898 0.80226 0.78384 0.0
C2315 C 0.49279 0.79196 0.74947 0.0
C2316 C 0.49531 0.25008 0.23292 0.0
C2317 C 0.51169 0.22799 0.2434 0.0
H2318 H 0.48183 0.30683 0.23294 0.0
C2319 C 0.52727 0.24755 0.26372 0.0
H2320 H 0.48298 0.23599 0.21773 0.0
C2321 C 0.52651 0.28809 0.27318 0.0
C2322 C 0.51019 0.31026 0.26242 0.0
H2323 H 0.54004 0.23147 0.27297 0.0
H2324 H 0.53886 0.30213 0.28835 0.0
C2325 C 0.49458 0.29068 0.24224 0.0
C2326 C 0.52813 0.03382 0.00542 0.0
C2327 C 0.51161 0.05397 0.01958 0.0
H2328 H 0.5404 0.97943 0.98262 0.0
C2329 C 0.49428 0.03305 0.02104 0.0
H2330 H 0.54171 0.04901 1.00329 0.0
C2331 C 0.49352 0.99305 0.00885 0.0
C2332 C 0.51004 0.97296 0.9946 0.0
H2333 H 0.48123 0.04765 0.03119 0.0
H2334 H 0.47998 0.97773 0.01112 0.0
C2335 C 0.52734 0.99397 0.99279 0.0
C2336 C 0.99877 0.11916 0.12815 0.0
C2337 C 0.01634 0.09933 0.13156 0.0
H2338 H 0.98443 0.17445 0.12053 0.0
C2339 C 0.03332 0.12131 0.12959 0.0
H2340 H 0.98539 0.10318 0.13014 0.0
C2341 C 0.03275 0.16228 0.12425 0.0
C2342 C 0.01519 0.18211 0.12124 0.0
H2343 H 0.04706 0.1069 0.13251 0.0
H2344 H 0.04609 0.17839 0.12242 0.0
C2345 C 0.9982 0.16012 0.12324 0.0
C2346 C 0.23845 0.16592 0.12891 0.0
C2347 C 0.25605 0.18576 0.13121 0.0
H2348 H 0.22404 0.11026 0.12407 0.0
C2349 C 0.27298 0.16355 0.13127 0.0
H2350 H 0.22516 0.18221 0.12926 0.0
C2351 C 0.27233 0.12241 0.12931 0.0
C2352 C 0.25473 0.10253 0.12678 0.0
H2353 H 0.28679 0.17785 0.13361 0.0
H2354 H 0.28568 0.10629 0.12899 0.0
C2355 C 0.2378 0.12471 0.12646 0.0
C2356 C 0.0227 0.869 0.87832 0.0
C2357 C 1.00517 0.84891 0.88184 0.0
H2358 H 0.0369 0.92451 0.86977 0.0
C2359 C 0.98816 0.87069 0.87917 0.0
H2360 H 0.0361 0.85321 0.88081 0.0
C2361 C 0.98863 0.91161 0.87304 0.0
C2362 C 1.00612 0.93174 0.86988 0.0
H2363 H 0.97444 0.85615 0.8821 0.0
H2364 H 0.97524 0.92746 0.87073 0.0
C2365 C 0.02317 0.90998 0.87258 0.0
C2366 C 0.77911 0.90915 0.87769 0.0
C2367 C 0.76191 0.93028 0.88084 0.0
H2368 H 0.79262 0.85308 0.86862 0.0
C2369 C 0.74459 0.90934 0.87755 0.0
H2370 H 0.79271 0.92422 0.88036 0.0
C2371 C 0.74453 0.86823 0.87136 0.0
C2372 C 0.7618 0.84719 0.86813 0.0
H2373 H 0.73106 0.9246 0.88034 0.0
H2374 H 0.73096 0.85305 0.86862 0.0
C2375 C 0.77906 0.86822 0.87127 0.0
C2376 C 0.99893 0.62104 0.63088 0.0
C2377 C 0.01607 0.59957 0.63198 0.0
H2378 H 0.9857 0.67756 0.62526 0.0
C2379 C 0.03348 0.61991 0.62829 0.0
H2380 H 0.98527 0.60633 0.63416 0.0
C2381 C 0.03374 0.66095 0.62321 0.0
C2382 C 0.0166 0.68238 0.62238 0.0
H2383 H 0.04692 0.60415 0.6294 0.0
H2384 H 0.04734 0.67585 0.61977 0.0
C2385 C 0.9992 0.66201 0.6264 0.0
C2386 C 0.23482 0.65932 0.63258 0.0
C2387 C 0.2521 0.68033 0.6342 0.0
H2388 H 0.22133 0.60266 0.62725 0.0
C2389 C 0.26939 0.65942 0.6331 0.0
H2390 H 0.22128 0.67468 0.63383 0.0
C2391 C 0.26942 0.61835 0.63051 0.0
C2392 C 0.25215 0.59727 0.62833 0.0
H2393 H 0.28297 0.67467 0.63493 0.0
H2394 H 0.28303 0.60325 0.62919 0.0
C2395 C 0.23484 0.61813 0.62931 0.0
C2396 C 0.02354 0.37029 0.37812 0.0
C2397 C 1.00595 0.35043 0.38168 0.0
H2398 H 0.03792 0.42571 0.37025 0.0
C2399 C 0.98902 0.37253 0.37971 0.0
H2400 H 0.03688 0.35425 0.38008 0.0
C2401 C 0.98962 0.41353 0.37431 0.0
C2402 C 1.00717 0.43345 0.37119 0.0
H2403 H 0.97526 0.35818 0.38265 0.0
H2404 H 0.97629 0.42961 0.37252 0.0
C2405 C 0.02414 0.41137 0.3731 0.0
C2406 C 0.74717 0.3699 0.37585 0.0
C2407 C 0.76414 0.34781 0.37463 0.0
H2408 H 0.73442 0.42706 0.38134 0.0
C2409 C 0.7817 0.36765 0.37805 0.0
H2410 H 0.73339 0.35559 0.37279 0.0
C2411 C 0.7823 0.40871 0.38276 0.0
C2412 C 0.76535 0.43081 0.38373 0.0
H2413 H 0.79502 0.3515 0.37685 0.0
H2414 H 0.79605 0.4231 0.38577 0.0
C2415 C 0.74777 0.41098 0.38017 0.0
C2416 C 0.53346 0.12498 0.63351 0.0
C2417 C 0.51605 0.10443 0.63554 0.0
H2418 H 0.54734 0.1811 0.62733 0.0
C2419 C 0.49891 0.12589 0.63432 0.0
H2420 H 0.54691 0.10928 0.6348 0.0
C2421 C 0.49916 0.16703 0.63104 0.0
C2422 C 0.51657 0.18762 0.62844 0.0
H2423 H 0.48524 0.11102 0.63641 0.0
H2424 H 0.48566 0.18254 0.62951 0.0
C2425 C 0.53371 0.16615 0.62972 0.0
C2426 C 0.73843 0.12511 0.62848 0.0
C2427 C 0.75547 0.10333 0.62718 0.0
H2428 H 0.72551 0.18218 0.63393 0.0
C2429 C 0.77298 0.12349 0.62973 0.0
H2430 H 0.72472 0.11043 0.6262 0.0
C2431 C 0.77345 0.16457 0.6333 0.0
C2432 C 0.7564 0.18638 0.63478 0.0
H2433 H 0.78639 0.10764 0.62825 0.0
H2434 H 0.78719 0.17913 0.63552 0.0
C2435 C 0.73889 0.16623 0.63246 0.0
C2436 C 0.49033 0.91312 0.37573 0.0
C2437 C 0.50778 0.93339 0.37242 0.0
H2438 H 0.47627 0.85746 0.38428 0.0
C2439 C 0.52486 0.91172 0.37442 0.0
H2440 H 0.47691 0.9289 0.37395 0.0
C2441 C 0.52448 0.87069 0.37957 0.0
C2442 C 0.50701 0.85043 0.38315 0.0
H2443 H 0.53856 0.92635 0.37149 0.0
H2444 H 0.53792 0.85497 0.38149 0.0
C2445 C 0.48995 0.87212 0.38124 0.0
C2446 C 0.28162 0.91222 0.38239 0.0
C2447 C 0.26423 0.93276 0.38408 0.0
H2448 H 0.29547 0.85618 0.37583 0.0
C2449 C 0.24705 0.91141 0.38124 0.0
H2450 H 0.29507 0.92784 0.38487 0.0
C2451 C 0.24728 0.87036 0.37693 0.0
C2452 C 0.26469 0.84981 0.37495 0.0
H2453 H 0.23339 0.92629 0.383 0.0
H2454 H 0.23379 0.85486 0.37443 0.0
C2455 C 0.28185 0.87116 0.37762 0.0
C2456 C 0.49966 0.66153 0.12398 0.0
C2457 C 0.51674 0.68329 0.1227 0.0
H2458 H 0.4866 0.60475 0.1294 0.0
C2459 C 0.53421 0.66315 0.12562 0.0
H2460 H 0.48594 0.67604 0.12118 0.0
C2461 C 0.5346 0.62207 0.13026 0.0
C2462 C 0.51752 0.60034 0.13144 0.0
H2463 H 0.5476 0.67911 0.12425 0.0
H2464 H 0.54827 0.60737 0.13321 0.0
C2465 C 0.50005 0.62051 0.12803 0.0
C2466 C 0.77185 0.62312 0.12664 0.0
C2467 C 0.75429 0.60313 0.12418 0.0
H2468 H 0.78621 0.67861 0.13152 0.0
C2469 C 0.7373 0.6251 0.12466 0.0
H2470 H 0.78523 0.60713 0.12579 0.0
C2471 C 0.73787 0.66627 0.12783 0.0
C2472 C 0.75543 0.68622 0.13001 0.0
H2473 H 0.72357 0.61052 0.12242 0.0
H2474 H 0.72454 0.68244 0.12878 0.0
C2475 C 0.77242 0.66421 0.12928 0.0
C2476 C 0.52108 0.41419 0.87924 0.0
C2477 C 0.50337 0.43321 0.87386 0.0
H2478 H 0.53584 0.35961 0.88945 0.0
C2479 C 0.4866 0.4105 0.87514 0.0
H2480 H 0.53431 0.43071 0.87785 0.0
C2481 C 0.4875 0.36965 0.88167 0.0
C2482 C 0.50519 0.35059 0.88654 0.0
H2483 H 0.47277 0.42423 0.87076 0.0
H2484 H 0.4743 0.35301 0.88285 0.0
C2485 C 0.52198 0.3733 0.88529 0.0
C2486 C 0.24656 0.36974 0.87772 0.0
C2487 C 0.26382 0.34869 0.87524 0.0
H2488 H 0.23308 0.42597 0.88511 0.0
C2489 C 0.28113 0.36947 0.87839 0.0
H2490 H 0.23296 0.35469 0.87488 0.0
C2491 C 0.2812 0.41046 0.88415 0.0
C2492 C 0.26396 0.43151 0.88637 0.0
H2493 H 0.29465 0.35411 0.87624 0.0
H2494 H 0.29477 0.42561 0.88696 0.0
C2495 C 0.24663 0.41071 0.88303 0.0
loop_
_geom_bond_atom_site_label_1
_geom_bond_atom_site_label_2
_geom_bond_distance
_geom_bond_site_symmetry_2
_ccdc_geom_bond_type
C0 C1 1.387 . S
C0 C5 1.380 . S
C0 C16 1.494 . S
C1 C0 1.387 . S
C1 C2 1.386 . S
C1 H32 0.930 . S
C2 C1 1.386 . S
C2 C3 1.397 . S
C3 C2 1.397 . S
C3 C4 1.393 . S
C3 H33 0.930 . S
C4 C3 1.393 . S
C4 C5 1.395 . S
C5 C0 1.380 . S
C5 C4 1.395 . S
C5 H34 0.930 . S
O6 Tb7 2.295 1_554 S
O6 C19 1.242 . S
Tb7 O6 2.295 1_556 S
Tb7 O8 2.312 . S
Tb7 O11 2.438 . S
Tb7 O13 2.472 1_556 S
Tb7 O15 2.308 . S
Tb7 C16 2.821 1_556 S
O8 Tb7 2.312 . S
O8 C28 1.264 1_455 S
O9 Eu10 2.316 . S
O9 C19 1.225 1_655 S
Eu10 O9 2.316 . S
Eu10 C12 2.821 . S
Eu10 O14 2.296 . S
Eu10 O21 2.312 1_655 S
Eu10 O30 2.438 . S
Eu10 O31 2.472 . S
O11 Tb7 2.438 . S
O11 C16 1.263 1_556 S
C12 Eu10 2.821 . S
C12 C22 1.494 . S
C12 O30 1.263 . S
C12 O31 1.264 . S
O13 Tb7 2.472 1_554 S
O13 C16 1.264 . S
O14 Eu10 2.296 . S
O14 C20 1.241 1_654 S
O15 Tb7 2.308 . S
O15 C20 1.243 . S
C16 C0 1.494 . S
C16 Tb7 2.821 1_554 S
C16 O11 1.263 1_554 S
C16 O13 1.264 . S
C17 O18 1.260 . S
C17 O21 1.264 . S
O18 C17 1.260 . S
C19 O6 1.242 . S
C19 O9 1.225 1_455 S
C20 O14 1.241 1_456 S
C20 O15 1.243 . S
O21 Eu10 2.312 1_455 S
O21 C17 1.264 . S
C22 C12 1.494 . S
C22 C24 1.380 . S
C22 C25 1.387 . S
C23 C24 1.395 1_556 S
C23 C27 1.393 . S
C24 C22 1.380 . S
C24 C23 1.395 1_554 S
C24 H35 0.930 . S
C25 C22 1.387 . S
C25 C26 1.386 . S
C25 H36 0.930 . S
C26 C25 1.386 . S
C26 C27 1.397 1_554 S
C27 C23 1.393 . S
C27 C26 1.397 1_556 S
C27 H37 0.930 . S
C28 O8 1.264 1_655 S
C28 O29 1.260 . S
O29 C28 1.260 . S
O30 Eu10 2.438 . S
O30 C12 1.263 . S
O31 Eu10 2.472 . S
O31 C12 1.264 . S
H32 C1 0.930 . S
H33 C3 0.930 . S
H34 C5 0.930 . S
H35 C24 0.930 . S
H36 C25 0.930 . S
H37 C27 0.930 . S
C38 C39 1.387 . S
C38 C43 1.380 . S
C38 C54 1.494 . S
C39 C38 1.387 . S
C39 C40 1.386 . S
C39 H70 0.930 . S
C40 C39 1.386 . S
C40 C41 1.397 . S
C41 C40 1.397 . S
C41 C42 1.393 . S
C41 H71 0.930 . S
C42 C41 1.393 . S
C42 C43 1.395 . S
C43 C38 1.380 . S
C43 C42 1.395 . S
C43 H72 0.930 . S
O44 Tb45 2.295 1_554 S
O44 C57 1.242 . S
Tb45 O44 2.295 1_556 S
Tb45 O46 2.312 . S
Tb45 O49 2.438 . S
Tb45 O51 2.472 1_556 S
Tb45 O53 2.308 . S
Tb45 C54 2.821 1_556 S
O46 Tb45 2.312 . S
O46 C66 1.264 . S
O47 Eu48 2.308 . S
O47 C57 1.243 . S
Eu48 O47 2.308 . S
Eu48 C50 2.821 . S
Eu48 O52 2.295 . S
Eu48 O59 2.312 1_565 S
Eu48 O68 2.438 1_565 S
Eu48 O69 2.472 . S
O49 Tb45 2.438 . S
O49 C54 1.263 1_556 S
C50 Eu48 2.821 . S
C50 C60 1.494 . S
C50 O68 1.263 1_565 S
C50 O69 1.264 . S
O51 Tb45 2.472 1_554 S
O51 C54 1.264 . S
O52 Eu48 2.295 . S
O52 C58 1.242 1_554 S
O53 Tb45 2.308 . S
O53 C58 1.243 . S
C54 C38 1.494 . S
C54 Tb45 2.821 1_554 S
C54 O49 1.263 1_554 S
C54 O51 1.264 . S
C55 O56 1.260 . S
C55 O59 1.264 . S
O56 C55 1.260 . S
C57 O44 1.242 . S
C57 O47 1.243 . S
C58 O52 1.242 1_556 S
C58 O53 1.243 . S
O59 Eu48 2.312 1_545 S
O59 C55 1.264 . S
C60 C50 1.494 . S
C60 C62 1.380 . S
C60 C63 1.387 1_565 S
C61 C62 1.395 1_556 S
C61 C65 1.393 . S
C62 C60 1.380 . S
C62 C61 1.395 1_554 S
C62 H73 0.930 . S
C63 C60 1.387 1_545 S
C63 C64 1.386 . S
C63 H74 0.930 . S
C64 C63 1.386 . S
C64 C65 1.397 1_544 S
C65 C61 1.393 . S
C65 C64 1.397 1_566 S
C65 H75 0.930 . S
C66 O46 1.264 . S
C66 O67 1.260 . S
O67 C66 1.260 . S
O68 Eu48 2.438 1_545 S
O68 C50 1.263 1_545 S
O69 Eu48 2.472 . S
O69 C50 1.264 . S
H70 C39 0.930 . S
H71 C41 0.930 . S
H72 C43 0.930 . S
H73 C62 0.930 . S
H74 C63 0.930 . S
H75 C65 0.930 . S
C76 C77 1.387 . S
C76 C81 1.380 . S
C76 C92 1.494 . S
C77 C76 1.387 . S
C77 C78 1.386 . S
C77 H108 0.930 . S
C78 C77 1.386 . S
C78 C79 1.397 . S
C79 C78 1.397 . S
C79 C80 1.393 . S
C79 H109 0.930 . S
C80 C79 1.393 . S
C80 C81 1.395 . S
C81 C76 1.380 . S
C81 C80 1.395 . S
C81 H110 0.930 . S
O82 Tb83 2.295 . S
O82 C95 1.242 . S
Tb83 O82 2.295 . S
Tb83 O84 2.312 . S
Tb83 O87 2.438 . S
Tb83 O89 2.472 . S
Tb83 O91 2.308 . S
Tb83 C92 2.821 . S
O84 Tb83 2.312 . S
O84 C104 1.264 1_455 S
O85 Eu86 2.316 . S
O85 C95 1.225 1_655 S
Eu86 O85 2.316 . S
Eu86 C88 2.821 . S
Eu86 O90 2.296 . S
Eu86 O97 2.312 1_665 S
Eu86 O106 2.438 1_565 S
Eu86 O107 2.472 . S
O87 Tb83 2.438 . S
O87 C92 1.263 . S
C88 Eu86 2.821 . S
C88 C98 1.494 . S
C88 O106 1.263 1_565 S
C88 O107 1.264 . S
O89 Tb83 2.472 . S
O89 C92 1.264 . S
O90 Eu86 2.296 . S
O90 C96 1.241 1_655 S
O91 Tb83 2.308 . S
O91 C96 1.243 . S
C92 C76 1.494 . S
C92 Tb83 2.821 . S
C92 O87 1.263 . S
C92 O89 1.264 . S
C93 O94 1.260 . S
C93 O97 1.264 . S
O94 C93 1.260 . S
C95 O82 1.242 . S
C95 O85 1.225 1_455 S
C96 O90 1.241 1_455 S
C96 O91 1.243 . S
O97 Eu86 2.312 1_445 S
O97 C93 1.264 . S
C98 C88 1.494 . S
C98 C100 1.380 . S
C98 C101 1.387 1_565 S
C99 C100 1.395 . S
C99 C103 1.393 . S
C100 C98 1.380 . S
C100 C99 1.395 . S
C100 H111 0.930 . S
C101 C98 1.387 1_545 S
C101 C102 1.386 . S
C101 H112 0.930 . S
C102 C101 1.386 . S
C102 C103 1.397 1_545 S
C103 C99 1.393 . S
C103 C102 1.397 1_565 S
C103 H113 0.930 . S
C104 O84 1.264 1_655 S
C104 O105 1.260 . S
O105 C104 1.260 . S
O106 Eu86 2.438 1_545 S
O106 C88 1.263 1_545 S
O107 Eu86 2.472 . S
O107 C88 1.264 . S
H108 C77 0.930 . S
H109 C79 0.930 . S
H110 C81 0.930 . S
H111 C100 0.930 . S
H112 C101 0.930 . S
H113 C103 0.930 . S
C114 C115 1.387 . S
C114 C119 1.380 . S
C114 C130 1.494 . S
C115 C114 1.387 . S
C115 C116 1.386 . S
C115 H146 0.930 . S
C116 C115 1.386 . S
C116 C117 1.397 . S
C117 C116 1.397 . S
C117 C118 1.393 . S
C117 H147 0.930 . S
C118 C117 1.393 . S
C118 C119 1.395 . S
C119 C114 1.380 . S
C119 C118 1.395 . S
C119 H148 0.930 . S
O120 Tb121 2.295 . S
O120 C133 1.242 . S
Tb121 O120 2.295 . S
Tb121 O122 2.312 . S
Tb121 O125 2.438 . S
Tb121 O127 2.472 . S
Tb121 O129 2.308 . S
Tb121 C130 2.821 . S
O122 Tb121 2.312 . S
O122 C142 1.264 . S
O123 Eu124 2.308 . S
O123 C133 1.243 . S
Eu124 O123 2.308 . S
Eu124 C126 2.821 . S
Eu124 O128 2.295 . S
Eu124 O135 2.312 . S
Eu124 O144 2.438 . S
Eu124 O145 2.472 . S
O125 Tb121 2.438 . S
O125 C130 1.263 . S
C126 Eu124 2.821 . S
C126 C136 1.494 . S
C126 O144 1.263 . S
C126 O145 1.264 . S
O127 Tb121 2.472 . S
O127 C130 1.264 . S
O128 Eu124 2.295 . S
O128 C134 1.242 . S
O129 Tb121 2.308 . S
O129 C134 1.243 . S
C130 C114 1.494 . S
C130 Tb121 2.821 . S
C130 O125 1.263 . S
C130 O127 1.264 . S
C131 O132 1.260 . S
C131 O135 1.264 . S
O132 C131 1.260 . S
C133 O120 1.242 . S
C133 O123 1.243 . S
C134 O128 1.242 . S
C134 O129 1.243 . S
O135 Eu124 2.312 . S
O135 C131 1.264 . S
C136 C126 1.494 . S
C136 C138 1.380 . S
C136 C139 1.387 . S
C137 C138 1.395 . S
C137 C141 1.393 . S
C138 C136 1.380 . S
C138 C137 1.395 . S
C138 H149 0.930 . S
C139 C136 1.387 . S
C139 C140 1.386 . S
C139 H150 0.930 . S
C140 C139 1.386 . S
C140 C141 1.397 . S
C141 C137 1.393 . S
C141 C140 1.397 . S
C141 H151 0.930 . S
C142 O122 1.264 . S
C142 O143 1.260 . S
O143 C142 1.260 . S
O144 Eu124 2.438 . S
O144 C126 1.263 . S
O145 Eu124 2.472 . S
O145 C126 1.264 . S
H146 C115 0.930 . S
H147 C117 0.930 . S
H148 C119 0.930 . S
H149 C138 0.930 . S
H150 C139 0.930 . S
H151 C141 0.930 . S
C152 C153 1.387 . S
C152 C157 1.380 . S
C152 C168 1.494 . S
C153 C152 1.387 . S
C153 C154 1.386 . S
C153 H184 0.930 . S
C154 C153 1.386 . S
C154 C155 1.397 1_556 S
C155 C154 1.397 1_554 S
C155 C156 1.393 . S
C155 H185 0.930 . S
C156 C155 1.393 . S
C156 C157 1.395 1_554 S
C157 C152 1.380 . S
C157 C156 1.395 1_556 S
C157 H186 0.930 . S
O158 Tb159 2.296 . S
O158 C171 1.241 1_456 S
Tb159 O158 2.296 . S
Tb159 O160 2.312 1_455 S
Tb159 O163 2.438 . S
Tb159 O165 2.472 . S
Tb159 O167 2.316 . S
Tb159 C168 2.821 . S
O160 Tb159 2.312 1_655 S
O160 C180 1.264 . S
O161 Eu162 2.308 . S
O161 C171 1.243 . S
Eu162 O161 2.308 . S
Eu162 C164 2.821 1_554 S
Eu162 O166 2.295 1_554 S
Eu162 O173 2.312 . S
Eu162 O182 2.438 . S
Eu162 O183 2.472 1_554 S
O163 Tb159 2.438 . S
O163 C168 1.263 . S
C164 Eu162 2.821 1_556 S
C164 C174 1.494 . S
C164 O182 1.263 1_556 S
C164 O183 1.264 . S
O165 Tb159 2.472 . S
O165 C168 1.264 . S
O166 Eu162 2.295 1_556 S
O166 C172 1.242 . S
O167 Tb159 2.316 . S
O167 C172 1.225 1_455 S
C168 C152 1.494 . S
C168 Tb159 2.821 . S
C168 O163 1.263 . S
C168 O165 1.264 . S
C169 O170 1.260 . S
C169 O173 1.264 1_455 S
O170 C169 1.260 . S
C171 O158 1.241 1_654 S
C171 O161 1.243 . S
C172 O166 1.242 . S
C172 O167 1.225 1_655 S
O173 Eu162 2.312 . S
O173 C169 1.264 1_655 S
C174 C164 1.494 . S
C174 C176 1.380 . S
C174 C177 1.387 . S
C175 C176 1.395 . S
C175 C179 1.393 . S
C176 C174 1.380 . S
C176 C175 1.395 . S
C176 H187 0.930 . S
C177 C174 1.387 . S
C177 C178 1.386 . S
C177 H188 0.930 . S
C178 C177 1.386 . S
C178 C179 1.397 . S
C179 C175 1.393 . S
C179 C178 1.397 . S
C179 H189 0.930 . S
C180 O160 1.264 . S
C180 O181 1.260 . S
O181 C180 1.260 . S
O182 Eu162 2.438 . S
O182 C164 1.263 1_554 S
O183 Eu162 2.472 1_556 S
O183 C164 1.264 . S
H184 C153 0.930 . S
H185 C155 0.930 . S
H186 C157 0.930 . S
H187 C176 0.930 . S
H188 C177 0.930 . S
H189 C179 0.930 . S
C190 C191 1.387 1_545 S
C190 C195 1.380 . S
C190 C206 1.494 . S
C191 C190 1.387 1_565 S
C191 C192 1.386 . S
C191 H222 0.930 . S
C192 C191 1.386 . S
C192 C193 1.397 1_566 S
C193 C192 1.397 1_544 S
C193 C194 1.393 . S
C193 H223 0.930 . S
C194 C193 1.393 . S
C194 C195 1.395 1_554 S
C195 C190 1.380 . S
C195 C194 1.395 1_556 S
C195 H224 0.930 . S
O196 Tb197 2.295 . S
O196 C209 1.242 1_556 S
Tb197 O196 2.295 . S
Tb197 O198 2.312 1_545 S
Tb197 O201 2.438 1_545 S
Tb197 O203 2.472 . S
Tb197 O205 2.308 . S
Tb197 C206 2.821 . S
O198 Tb197 2.312 1_565 S
O198 C218 1.264 . S
O199 Eu200 2.308 . S
O199 C209 1.243 . S
Eu200 O199 2.308 . S
Eu200 C202 2.821 1_554 S
Eu200 O204 2.295 1_554 S
Eu200 O211 2.312 . S
Eu200 O220 2.438 . S
Eu200 O221 2.472 1_554 S
O201 Tb197 2.438 1_565 S
O201 C206 1.263 1_565 S
C202 Eu200 2.821 1_556 S
C202 C212 1.494 . S
C202 O220 1.263 1_556 S
C202 O221 1.264 . S
O203 Tb197 2.472 . S
O203 C206 1.264 . S
O204 Eu200 2.295 1_556 S
O204 C210 1.242 . S
O205 Tb197 2.308 . S
O205 C210 1.243 . S
C206 C190 1.494 . S
C206 Tb197 2.821 . S
C206 O201 1.263 1_545 S
C206 O203 1.264 . S
C207 O208 1.260 . S
C207 O211 1.264 . S
O208 C207 1.260 . S
C209 O196 1.242 1_554 S
C209 O199 1.243 . S
C210 O204 1.242 . S
C210 O205 1.243 . S
O211 Eu200 2.312 . S
O211 C207 1.264 . S
C212 C202 1.494 . S
C212 C214 1.380 . S
C212 C215 1.387 . S
C213 C214 1.395 . S
C213 C217 1.393 . S
C214 C212 1.380 . S
C214 C213 1.395 . S
C214 H225 0.930 . S
C215 C212 1.387 . S
C215 C216 1.386 . S
C215 H226 0.930 . S
C216 C215 1.386 . S
C216 C217 1.397 . S
C217 C213 1.393 . S
C217 C216 1.397 . S
C217 H227 0.930 . S
C218 O198 1.264 . S
C218 O219 1.260 . S
O219 C218 1.260 . S
O220 Eu200 2.438 . S
O220 C202 1.263 1_554 S
O221 Eu200 2.472 1_556 S
O221 C202 1.264 . S
H222 C191 0.930 . S
H223 C193 0.930 . S
H224 C195 0.930 . S
H225 C214 0.930 . S
H226 C215 0.930 . S
H227 C217 0.930 . S
C228 C229 1.387 1_545 S
C228 C233 1.380 . S
C228 C244 1.494 . S
C229 C228 1.387 1_565 S
C229 C230 1.386 . S
C229 H260 0.930 . S
C230 C229 1.386 . S
C230 C231 1.397 1_565 S
C231 C230 1.397 1_545 S
C231 C232 1.393 . S
C231 H261 0.930 . S
C232 C231 1.393 . S
C232 C233 1.395 . S
C233 C228 1.380 . S
C233 C232 1.395 . S
C233 H262 0.930 . S
O234 Tb235 2.296 . S
O234 C247 1.241 1_455 S
Tb235 O234 2.296 . S
Tb235 O236 2.312 1_445 S
Tb235 O239 2.438 1_545 S
Tb235 O241 2.472 . S
Tb235 O243 2.316 . S
Tb235 C244 2.821 . S
O236 Tb235 2.312 1_665 S
O236 C256 1.264 . S
O237 Eu238 2.308 . S
O237 C247 1.243 . S
Eu238 O237 2.308 . S
Eu238 C240 2.821 . S
Eu238 O242 2.295 . S
Eu238 O249 2.312 . S
Eu238 O258 2.438 . S
Eu238 O259 2.472 . S
O239 Tb235 2.438 1_565 S
O239 C244 1.263 1_565 S
C240 Eu238 2.821 . S
C240 C250 1.494 . S
C240 O258 1.263 . S
C240 O259 1.264 . S
O241 Tb235 2.472 . S
O241 C244 1.264 . S
O242 Eu238 2.295 . S
O242 C248 1.242 . S
O243 Tb235 2.316 . S
O243 C248 1.225 1_455 S
C244 C228 1.494 . S
C244 Tb235 2.821 . S
C244 O239 1.263 1_545 S
C244 O241 1.264 . S
C245 O246 1.260 . S
C245 O249 1.264 1_455 S
O246 C245 1.260 . S
C247 O234 1.241 1_655 S
C247 O237 1.243 . S
C248 O242 1.242 . S
C248 O243 1.225 1_655 S
O249 Eu238 2.312 . S
O249 C245 1.264 1_655 S
C250 C240 1.494 . S
C250 C252 1.380 . S
C250 C253 1.387 . S
C251 C252 1.395 . S
C251 C255 1.393 . S
C252 C250 1.380 . S
C252 C251 1.395 . S
C252 H263 0.930 . S
C253 C250 1.387 . S
C253 C254 1.386 . S
C253 H264 0.930 . S
C254 C253 1.386 . S
C254 C255 1.397 . S
C255 C251 1.393 . S
C255 C254 1.397 . S
C255 H265 0.930 . S
C256 O236 1.264 . S
C256 O257 1.260 . S
O257 C256 1.260 . S
O258 Eu238 2.438 . S
O258 C240 1.263 . S
O259 Eu238 2.472 . S
O259 C240 1.264 . S
H260 C229 0.930 . S
H261 C231 0.930 . S
H262 C233 0.930 . S
H263 C252 0.930 . S
H264 C253 0.930 . S
H265 C255 0.930 . S
C266 C267 1.387 . S
C266 C271 1.380 . S
C266 C282 1.494 . S
C267 C266 1.387 . S
C267 C268 1.386 . S
C267 H298 0.930 . S
C268 C267 1.386 . S
C268 C269 1.397 . S
C269 C268 1.397 . S
C269 C270 1.393 . S
C269 H299 0.930 . S
C270 C269 1.393 . S
C270 C271 1.395 . S
C271 C266 1.380 . S
C271 C270 1.395 . S
C271 H300 0.930 . S
O272 Tb273 2.295 . S
O272 C285 1.242 . S
Tb273 O272 2.295 . S
Tb273 O274 2.312 . S
Tb273 O277 2.438 . S
Tb273 O279 2.472 . S
Tb273 O281 2.308 . S
Tb273 C282 2.821 . S
O274 Tb273 2.312 . S
O274 C294 1.264 . S
O275 Eu276 2.308 . S
O275 C285 1.243 . S
Eu276 O275 2.308 . S
Eu276 C278 2.821 . S
Eu276 O280 2.295 . S
Eu276 O287 2.312 . S
Eu276 O296 2.438 . S
Eu276 O297 2.472 . S
O277 Tb273 2.438 . S
O277 C282 1.263 . S
C278 Eu276 2.821 . S
C278 C288 1.494 . S
C278 O296 1.263 . S
C278 O297 1.264 . S
O279 Tb273 2.472 . S
O279 C282 1.264 . S
O280 Eu276 2.295 . S
O280 C286 1.242 . S
O281 Tb273 2.308 . S
O281 C286 1.243 . S
C282 C266 1.494 . S
C282 Tb273 2.821 . S
C282 O277 1.263 . S
C282 O279 1.264 . S
C283 O284 1.260 . S
C283 O287 1.264 . S
O284 C283 1.260 . S
C285 O272 1.242 . S
C285 O275 1.243 . S
C286 O280 1.242 . S
C286 O281 1.243 . S
O287 Eu276 2.312 . S
O287 C283 1.264 . S
C288 C278 1.494 . S
C288 C290 1.380 . S
C288 C291 1.387 . S
C289 C290 1.395 . S
C289 C293 1.393 . S
C290 C288 1.380 . S
C290 C289 1.395 . S
C290 H301 0.930 . S
C291 C288 1.387 . S
C291 C292 1.386 . S
C291 H302 0.930 . S
C292 C291 1.386 . S
C292 C293 1.397 . S
C293 C289 1.393 . S
C293 C292 1.397 . S
C293 H303 0.930 . S
C294 O274 1.264 . S
C294 O295 1.260 . S
O295 C294 1.260 . S
O296 Eu276 2.438 . S
O296 C278 1.263 . S
O297 Eu276 2.472 . S
O297 C278 1.264 . S
H298 C267 0.930 . S
H299 C269 0.930 . S
H300 C271 0.930 . S
H301 C290 0.930 . S
H302 C291 0.930 . S
H303 C293 0.930 . S
C304 C305 1.387 . S
C304 C309 1.380 . S
C304 C320 1.494 . S
C305 C304 1.387 . S
C305 C306 1.386 . S
C305 H336 0.930 . S
C306 C305 1.386 . S
C306 C307 1.397 . S
C307 C306 1.397 . S
C307 C308 1.393 . S
C307 H337 0.930 . S
C308 C307 1.393 . S
C308 C309 1.395 . S
C309 C304 1.380 . S
C309 C308 1.395 . S
C309 H338 0.930 . S
O310 Tb311 2.295 . S
O310 C323 1.242 . S
Tb311 O310 2.295 . S
Tb311 O312 2.312 . S
Tb311 O315 2.438 . S
Tb311 O317 2.472 . S
Tb311 O319 2.308 . S
Tb311 C320 2.821 . S
O312 Tb311 2.312 . S
O312 C332 1.264 1_455 S
O313 Eu314 2.316 . S
O313 C323 1.225 1_655 S
Eu314 O313 2.316 . S
Eu314 C316 2.821 . S
Eu314 O318 2.296 . S
Eu314 O325 2.312 1_655 S
Eu314 O334 2.438 . S
Eu314 O335 2.472 . S
O315 Tb311 2.438 . S
O315 C320 1.263 . S
C316 Eu314 2.821 . S
C316 C326 1.494 . S
C316 O334 1.263 . S
C316 O335 1.264 . S
O317 Tb311 2.472 . S
O317 C320 1.264 . S
O318 Eu314 2.296 . S
O318 C324 1.241 1_655 S
O319 Tb311 2.308 . S
O319 C324 1.243 . S
C320 C304 1.494 . S
C320 Tb311 2.821 . S
C320 O315 1.263 . S
C320 O317 1.264 . S
C321 O322 1.260 . S
C321 O325 1.264 . S
O322 C321 1.260 . S
C323 O310 1.242 . S
C323 O313 1.225 1_455 S
C324 O318 1.241 1_455 S
C324 O319 1.243 . S
O325 Eu314 2.312 1_455 S
O325 C321 1.264 . S
C326 C316 1.494 . S
C326 C328 1.380 . S
C326 C329 1.387 . S
C327 C328 1.395 . S
C327 C331 1.393 . S
C328 C326 1.380 . S
C328 C327 1.395 . S
C328 H339 0.930 . S
C329 C326 1.387 . S
C329 C330 1.386 . S
C329 H340 0.930 . S
C330 C329 1.386 . S
C330 C331 1.397 . S
C331 C327 1.393 . S
C331 C330 1.397 . S
C331 H341 0.930 . S
C332 O312 1.264 1_655 S
C332 O333 1.260 . S
O333 C332 1.260 . S
O334 Eu314 2.438 . S
O334 C316 1.263 . S
O335 Eu314 2.472 . S
O335 C316 1.264 . S
H336 C305 0.930 . S
H337 C307 0.930 . S
H338 C309 0.930 . S
H339 C328 0.930 . S
H340 C329 0.930 . S
H341 C331 0.930 . S
C342 C343 1.387 . S
C342 C347 1.380 . S
C342 C358 1.494 . S
C343 C342 1.387 . S
C343 C344 1.386 . S
C343 H374 0.930 . S
C344 C343 1.386 . S
C344 C345 1.397 . S
C345 C344 1.397 . S
C345 C346 1.393 . S
C345 H375 0.930 . S
C346 C345 1.393 . S
C346 C347 1.395 . S
C347 C342 1.380 . S
C347 C346 1.395 . S
C347 H376 0.930 . S
O348 Tb349 2.295 . S
O348 C361 1.242 . S
Tb349 O348 2.295 . S
Tb349 O350 2.312 . S
Tb349 O353 2.438 . S
Tb349 O355 2.472 . S
Tb349 O357 2.308 . S
Tb349 C358 2.821 . S
O350 Tb349 2.312 . S
O350 C370 1.264 . S
O351 Eu352 2.308 . S
O351 C361 1.243 . S
Eu352 O351 2.308 . S
Eu352 C354 2.821 . S
Eu352 O356 2.295 . S
Eu352 O363 2.312 . S
Eu352 O372 2.438 . S
Eu352 O373 2.472 . S
O353 Tb349 2.438 . S
O353 C358 1.263 . S
C354 Eu352 2.821 . S
C354 C364 1.494 . S
C354 O372 1.263 . S
C354 O373 1.264 . S
O355 Tb349 2.472 . S
O355 C358 1.264 . S
O356 Eu352 2.295 . S
O356 C362 1.242 . S
O357 Tb349 2.308 . S
O357 C362 1.243 . S
C358 C342 1.494 . S
C358 Tb349 2.821 . S
C358 O353 1.263 . S
C358 O355 1.264 . S
C359 O360 1.260 . S
C359 O363 1.264 . S
O360 C359 1.260 . S
C361 O348 1.242 . S
C361 O351 1.243 . S
C362 O356 1.242 . S
C362 O357 1.243 . S
O363 Eu352 2.312 . S
O363 C359 1.264 . S
C364 C354 1.494 . S
C364 C366 1.380 . S
C364 C367 1.387 . S
C365 C366 1.395 . S
C365 C369 1.393 . S
C366 C364 1.380 . S
C366 C365 1.395 . S
C366 H377 0.930 . S
C367 C364 1.387 . S
C367 C368 1.386 . S
C367 H378 0.930 . S
C368 C367 1.386 . S
C368 C369 1.397 . S
C369 C365 1.393 . S
C369 C368 1.397 . S
C369 H379 0.930 . S
C370 O350 1.264 . S
C370 O371 1.260 . S
O371 C370 1.260 . S
O372 Eu352 2.438 . S
O372 C354 1.263 . S
O373 Eu352 2.472 . S
O373 C354 1.264 . S
H374 C343 0.930 . S
H375 C345 0.930 . S
H376 C347 0.930 . S
H377 C366 0.930 . S
H378 C367 0.930 . S
H379 C369 0.930 . S
C380 C381 1.387 . S
C380 C385 1.380 . S
C380 C396 1.494 . S
C381 C380 1.387 . S
C381 C382 1.386 . S
C381 H412 0.930 . S
C382 C381 1.386 . S
C382 C383 1.397 . S
C383 C382 1.397 . S
C383 C384 1.393 . S
C383 H413 0.930 . S
C384 C383 1.393 . S
C384 C385 1.395 . S
C385 C380 1.380 . S
C385 C384 1.395 . S
C385 H414 0.930 . S
O386 Tb387 2.295 . S
O386 C399 1.242 . S
Tb387 O386 2.295 . S
Tb387 O388 2.312 . S
Tb387 O391 2.438 . S
Tb387 O393 2.472 . S
Tb387 O395 2.308 . S
Tb387 C396 2.821 . S
O388 Tb387 2.312 . S
O388 C408 1.264 1_455 S
O389 Eu390 2.316 . S
O389 C399 1.225 1_655 S
Eu390 O389 2.316 . S
Eu390 C392 2.821 . S
Eu390 O394 2.296 . S
Eu390 O401 2.312 1_655 S
Eu390 O410 2.438 . S
Eu390 O411 2.472 . S
O391 Tb387 2.438 . S
O391 C396 1.263 . S
C392 Eu390 2.821 . S
C392 C402 1.494 . S
C392 O410 1.263 . S
C392 O411 1.264 . S
O393 Tb387 2.472 . S
O393 C396 1.264 . S
O394 Eu390 2.296 . S
O394 C400 1.241 1_655 S
O395 Tb387 2.308 . S
O395 C400 1.243 . S
C396 C380 1.494 . S
C396 Tb387 2.821 . S
C396 O391 1.263 . S
C396 O393 1.264 . S
C397 O398 1.260 . S
C397 O401 1.264 . S
O398 C397 1.260 . S
C399 O386 1.242 . S
C399 O389 1.225 1_455 S
C400 O394 1.241 1_455 S
C400 O395 1.243 . S
O401 Eu390 2.312 1_455 S
O401 C397 1.264 . S
C402 C392 1.494 . S
C402 C404 1.380 . S
C402 C405 1.387 . S
C403 C404 1.395 . S
C403 C407 1.393 . S
C404 C402 1.380 . S
C404 C403 1.395 . S
C404 H415 0.930 . S
C405 C402 1.387 . S
C405 C406 1.386 . S
C405 H416 0.930 . S
C406 C405 1.386 . S
C406 C407 1.397 . S
C407 C403 1.393 . S
C407 C406 1.397 . S
C407 H417 0.930 . S
C408 O388 1.264 1_655 S
C408 O409 1.260 . S
O409 C408 1.260 . S
O410 Eu390 2.438 . S
O410 C392 1.263 . S
O411 Eu390 2.472 . S
O411 C392 1.264 . S
H412 C381 0.930 . S
H413 C383 0.930 . S
H414 C385 0.930 . S
H415 C404 0.930 . S
H416 C405 0.930 . S
H417 C407 0.930 . S
C418 C419 1.387 . S
C418 C423 1.380 . S
C418 C434 1.494 . S
C419 C418 1.387 . S
C419 C420 1.386 . S
C419 H450 0.930 . S
C420 C419 1.386 . S
C420 C421 1.397 . S
C421 C420 1.397 . S
C421 C422 1.393 . S
C421 H451 0.930 . S
C422 C421 1.393 . S
C422 C423 1.395 . S
C423 C418 1.380 . S
C423 C422 1.395 . S
C423 H452 0.930 . S
O424 Tb425 2.295 . S
O424 C437 1.242 . S
Tb425 O424 2.295 . S
Tb425 O426 2.312 . S
Tb425 O429 2.438 . S
Tb425 O431 2.472 . S
Tb425 O433 2.308 . S
Tb425 C434 2.821 . S
O426 Tb425 2.312 . S
O426 C446 1.264 . S
O427 Eu428 2.308 . S
O427 C437 1.243 . S
Eu428 O427 2.308 . S
Eu428 C430 2.821 . S
Eu428 O432 2.295 . S
Eu428 O439 2.312 . S
Eu428 O448 2.438 . S
Eu428 O449 2.472 . S
O429 Tb425 2.438 . S
O429 C434 1.263 . S
C430 Eu428 2.821 . S
C430 C440 1.494 . S
C430 O448 1.263 . S
C430 O449 1.264 . S
O431 Tb425 2.472 . S
O431 C434 1.264 . S
O432 Eu428 2.295 . S
O432 C438 1.242 . S
O433 Tb425 2.308 . S
O433 C438 1.243 . S
C434 C418 1.494 . S
C434 Tb425 2.821 . S
C434 O429 1.263 . S
C434 O431 1.264 . S
C435 O436 1.260 . S
C435 O439 1.264 . S
O436 C435 1.260 . S
C437 O424 1.242 . S
C437 O427 1.243 . S
C438 O432 1.242 . S
C438 O433 1.243 . S
O439 Eu428 2.312 . S
O439 C435 1.264 . S
C440 C430 1.494 . S
C440 C442 1.380 . S
C440 C443 1.387 . S
C441 C442 1.395 . S
C441 C445 1.393 . S
C442 C440 1.380 . S
C442 C441 1.395 . S
C442 H453 0.930 . S
C443 C440 1.387 . S
C443 C444 1.386 . S
C443 H454 0.930 . S
C444 C443 1.386 . S
C444 C445 1.397 . S
C445 C441 1.393 . S
C445 C444 1.397 . S
C445 H455 0.930 . S
C446 O426 1.264 . S
C446 O447 1.260 . S
O447 C446 1.260 . S
O448 Eu428 2.438 . S
O448 C430 1.263 . S
O449 Eu428 2.472 . S
O449 C430 1.264 . S
H450 C419 0.930 . S
H451 C421 0.930 . S
H452 C423 0.930 . S
H453 C442 0.930 . S
H454 C443 0.930 . S
H455 C445 0.930 . S
C456 C457 1.387 . S
C456 C461 1.380 . S
C456 C472 1.494 . S
C457 C456 1.387 . S
C457 C458 1.386 . S
C457 H488 0.930 . S
C458 C457 1.386 . S
C458 C459 1.397 . S
C459 C458 1.397 . S
C459 C460 1.393 . S
C459 H489 0.930 . S
C460 C459 1.393 . S
C460 C461 1.395 . S
C461 C456 1.380 . S
C461 C460 1.395 . S
C461 H490 0.930 . S
O462 Tb463 2.296 . S
O462 C475 1.241 1_455 S
Tb463 O462 2.296 . S
Tb463 O464 2.312 1_455 S
Tb463 O467 2.438 . S
Tb463 O469 2.472 . S
Tb463 O471 2.316 . S
Tb463 C472 2.821 . S
O464 Tb463 2.312 1_655 S
O464 C484 1.264 . S
O465 Eu466 2.308 . S
O465 C475 1.243 . S
Eu466 O465 2.308 . S
Eu466 C468 2.821 . S
Eu466 O470 2.295 . S
Eu466 O477 2.312 . S
Eu466 O486 2.438 . S
Eu466 O487 2.472 . S
O467 Tb463 2.438 . S
O467 C472 1.263 . S
C468 Eu466 2.821 . S
C468 C478 1.494 . S
C468 O486 1.263 . S
C468 O487 1.264 . S
O469 Tb463 2.472 . S
O469 C472 1.264 . S
O470 Eu466 2.295 . S
O470 C476 1.242 . S
O471 Tb463 2.316 . S
O471 C476 1.225 1_455 S
C472 C456 1.494 . S
C472 Tb463 2.821 . S
C472 O467 1.263 . S
C472 O469 1.264 . S
C473 O474 1.260 . S
C473 O477 1.264 1_455 S
O474 C473 1.260 . S
C475 O462 1.241 1_655 S
C475 O465 1.243 . S
C476 O470 1.242 . S
C476 O471 1.225 1_655 S
O477 Eu466 2.312 . S
O477 C473 1.264 1_655 S
C478 C468 1.494 . S
C478 C480 1.380 . S
C478 C481 1.387 . S
C479 C480 1.395 . S
C479 C483 1.393 . S
C480 C478 1.380 . S
C480 C479 1.395 . S
C480 H491 0.930 . S
C481 C478 1.387 . S
C481 C482 1.386 . S
C481 H492 0.930 . S
C482 C481 1.386 . S
C482 C483 1.397 . S
C483 C479 1.393 . S
C483 C482 1.397 . S
C483 H493 0.930 . S
C484 O464 1.264 . S
C484 O485 1.260 . S
O485 C484 1.260 . S
O486 Eu466 2.438 . S
O486 C468 1.263 . S
O487 Eu466 2.472 . S
O487 C468 1.264 . S
H488 C457 0.930 . S
H489 C459 0.930 . S
H490 C461 0.930 . S
H491 C480 0.930 . S
H492 C481 0.930 . S
H493 C483 0.930 . S
C494 C495 1.387 . S
C494 C499 1.380 . S
C494 C510 1.494 . S
C495 C494 1.387 . S
C495 C496 1.386 . S
C495 H526 0.930 . S
C496 C495 1.386 . S
C496 C497 1.397 . S
C497 C496 1.397 . S
C497 C498 1.393 . S
C497 H527 0.930 . S
C498 C497 1.393 . S
C498 C499 1.395 . S
C499 C494 1.380 . S
C499 C498 1.395 . S
C499 H528 0.930 . S
O500 Tb501 2.295 . S
O500 C513 1.242 . S
Tb501 O500 2.295 . S
Tb501 O502 2.312 . S
Tb501 O505 2.438 . S
Tb501 O507 2.472 . S
Tb501 O509 2.308 . S
Tb501 C510 2.821 . S
O502 Tb501 2.312 . S
O502 C522 1.264 . S
O503 Eu504 2.308 . S
O503 C513 1.243 . S
Eu504 O503 2.308 . S
Eu504 C506 2.821 . S
Eu504 O508 2.295 . S
Eu504 O515 2.312 . S
Eu504 O524 2.438 . S
Eu504 O525 2.472 . S
O505 Tb501 2.438 . S
O505 C510 1.263 . S
C506 Eu504 2.821 . S
C506 C516 1.494 . S
C506 O524 1.263 . S
C506 O525 1.264 . S
O507 Tb501 2.472 . S
O507 C510 1.264 . S
O508 Eu504 2.295 . S
O508 C514 1.242 . S
O509 Tb501 2.308 . S
O509 C514 1.243 . S
C510 C494 1.494 . S
C510 Tb501 2.821 . S
C510 O505 1.263 . S
C510 O507 1.264 . S
C511 O512 1.260 . S
C511 O515 1.264 . S
O512 C511 1.260 . S
C513 O500 1.242 . S
C513 O503 1.243 . S
C514 O508 1.242 . S
C514 O509 1.243 . S
O515 Eu504 2.312 . S
O515 C511 1.264 . S
C516 C506 1.494 . S
C516 C518 1.380 . S
C516 C519 1.387 . S
C517 C518 1.395 . S
C517 C521 1.393 . S
C518 C516 1.380 . S
C518 C517 1.395 . S
C518 H529 0.930 . S
C519 C516 1.387 . S
C519 C520 1.386 . S
C519 H530 0.930 . S
C520 C519 1.386 . S
C520 C521 1.397 . S
C521 C517 1.393 . S
C521 C520 1.397 . S
C521 H531 0.930 . S
C522 O502 1.264 . S
C522 O523 1.260 . S
O523 C522 1.260 . S
O524 Eu504 2.438 . S
O524 C506 1.263 . S
O525 Eu504 2.472 . S
O525 C506 1.264 . S
H526 C495 0.930 . S
H527 C497 0.930 . S
H528 C499 0.930 . S
H529 C518 0.930 . S
H530 C519 0.930 . S
H531 C521 0.930 . S
C532 C533 1.387 . S
C532 C537 1.380 . S
C532 C548 1.494 . S
C533 C532 1.387 . S
C533 C534 1.386 . S
C533 H564 0.930 . S
C534 C533 1.386 . S
C534 C535 1.397 . S
C535 C534 1.397 . S
C535 C536 1.393 . S
C535 H565 0.930 . S
C536 C535 1.393 . S
C536 C537 1.395 . S
C537 C532 1.380 . S
C537 C536 1.395 . S
C537 H566 0.930 . S
O538 Tb539 2.296 . S
O538 C551 1.241 1_455 S
Tb539 O538 2.296 . S
Tb539 O540 2.312 1_455 S
Tb539 O543 2.438 . S
Tb539 O545 2.472 . S
Tb539 O547 2.316 . S
Tb539 C548 2.821 . S
O540 Tb539 2.312 1_655 S
O540 C560 1.264 . S
O541 Eu542 2.308 . S
O541 C551 1.243 . S
Eu542 O541 2.308 . S
Eu542 C544 2.821 . S
Eu542 O546 2.295 . S
Eu542 O553 2.312 . S
Eu542 O562 2.438 . S
Eu542 O563 2.472 . S
O543 Tb539 2.438 . S
O543 C548 1.263 . S
C544 Eu542 2.821 . S
C544 C554 1.494 . S
C544 O562 1.263 . S
C544 O563 1.264 . S
O545 Tb539 2.472 . S
O545 C548 1.264 . S
O546 Eu542 2.295 . S
O546 C552 1.242 . S
O547 Tb539 2.316 . S
O547 C552 1.225 1_455 S
C548 C532 1.494 . S
C548 Tb539 2.821 . S
C548 O543 1.263 . S
C548 O545 1.264 . S
C549 O550 1.260 . S
C549 O553 1.264 1_455 S
O550 C549 1.260 . S
C551 O538 1.241 1_655 S
C551 O541 1.243 . S
C552 O546 1.242 . S
C552 O547 1.225 1_655 S
O553 Eu542 2.312 . S
O553 C549 1.264 1_655 S
C554 C544 1.494 . S
C554 C556 1.380 . S
C554 C557 1.387 . S
C555 C556 1.395 . S
C555 C559 1.393 . S
C556 C554 1.380 . S
C556 C555 1.395 . S
C556 H567 0.930 . S
C557 C554 1.387 . S
C557 C558 1.386 . S
C557 H568 0.930 . S
C558 C557 1.386 . S
C558 C559 1.397 . S
C559 C555 1.393 . S
C559 C558 1.397 . S
C559 H569 0.930 . S
C560 O540 1.264 . S
C560 O561 1.260 . S
O561 C560 1.260 . S
O562 Eu542 2.438 . S
O562 C544 1.263 . S
O563 Eu542 2.472 . S
O563 C544 1.264 . S
H564 C533 0.930 . S
H565 C535 0.930 . S
H566 C537 0.930 . S
H567 C556 0.930 . S
H568 C557 0.930 . S
H569 C559 0.930 . S
C570 C571 1.387 . S
C570 C575 1.380 . S
C570 C586 1.494 . S
C571 C570 1.387 . S
C571 C572 1.386 . S
C571 H602 0.930 . S
C572 C571 1.386 . S
C572 C573 1.397 . S
C573 C572 1.397 . S
C573 C574 1.393 . S
C573 H603 0.930 . S
C574 C573 1.393 . S
C574 C575 1.395 . S
C575 C570 1.380 . S
C575 C574 1.395 . S
C575 H604 0.930 . S
O576 Tb577 2.295 . S
O576 C589 1.242 . S
Tb577 O576 2.295 . S
Tb577 O578 2.312 . S
Tb577 O581 2.438 . S
Tb577 O583 2.472 . S
Tb577 O585 2.308 . S
Tb577 C586 2.821 . S
O578 Tb577 2.312 . S
O578 C598 1.264 . S
O579 Eu580 2.308 . S
O579 C589 1.243 . S
Eu580 O579 2.308 . S
Eu580 C582 2.821 . S
Eu580 O584 2.295 . S
Eu580 O591 2.312 . S
Eu580 O600 2.438 . S
Eu580 O601 2.472 . S
O581 Tb577 2.438 . S
O581 C586 1.263 . S
C582 Eu580 2.821 . S
C582 C592 1.494 . S
C582 O600 1.263 . S
C582 O601 1.264 . S
O583 Tb577 2.472 . S
O583 C586 1.264 . S
O584 Eu580 2.295 . S
O584 C590 1.242 . S
O585 Tb577 2.308 . S
O585 C590 1.243 . S
C586 C570 1.494 . S
C586 Tb577 2.821 . S
C586 O581 1.263 . S
C586 O583 1.264 . S
C587 O588 1.260 . S
C587 O591 1.264 . S
O588 C587 1.260 . S
C589 O576 1.242 . S
C589 O579 1.243 . S
C590 O584 1.242 . S
C590 O585 1.243 . S
O591 Eu580 2.312 . S
O591 C587 1.264 . S
C592 C582 1.494 . S
C592 C594 1.380 . S
C592 C595 1.387 . S
C593 C594 1.395 . S
C593 C597 1.393 . S
C594 C592 1.380 . S
C594 C593 1.395 . S
C594 H605 0.930 . S
C595 C592 1.387 . S
C595 C596 1.386 . S
C595 H606 0.930 . S
C596 C595 1.386 . S
C596 C597 1.397 . S
C597 C593 1.393 . S
C597 C596 1.397 . S
C597 H607 0.930 . S
C598 O578 1.264 . S
C598 O599 1.260 . S
O599 C598 1.260 . S
O600 Eu580 2.438 . S
O600 C582 1.263 . S
O601 Eu580 2.472 . S
O601 C582 1.264 . S
H602 C571 0.930 . S
H603 C573 0.930 . S
H604 C575 0.930 . S
H605 C594 0.930 . S
H606 C595 0.930 . S
H607 C597 0.930 . S
C608 C609 1.387 . S
C608 C613 1.380 . S
C608 C624 1.494 . S
C609 C608 1.387 . S
C609 C610 1.386 . S
C609 H640 0.930 . S
C610 C609 1.386 . S
C610 C611 1.397 . S
C611 C610 1.397 . S
C611 C612 1.393 . S
C611 H641 0.930 . S
C612 C611 1.393 . S
C612 C613 1.395 . S
C613 C608 1.380 . S
C613 C612 1.395 . S
C613 H642 0.930 . S
O614 Tb615 2.295 . S
O614 C627 1.242 . S
Tb615 O614 2.295 . S
Tb615 O616 2.312 . S
Tb615 O619 2.438 . S
Tb615 O621 2.472 . S
Tb615 O623 2.308 . S
Tb615 C624 2.821 . S
O616 Tb615 2.312 . S
O616 C636 1.264 . S
O617 Eu618 2.308 . S
O617 C627 1.243 . S
Eu618 O617 2.308 . S
Eu618 C620 2.821 . S
Eu618 O622 2.295 . S
Eu618 O629 2.312 . S
Eu618 O638 2.438 . S
Eu618 O639 2.472 . S
O619 Tb615 2.438 . S
O619 C624 1.263 . S
C620 Eu618 2.821 . S
C620 C630 1.494 . S
C620 O638 1.263 . S
C620 O639 1.264 . S
O621 Tb615 2.472 . S
O621 C624 1.264 . S
O622 Eu618 2.295 . S
O622 C628 1.242 . S
O623 Tb615 2.308 . S
O623 C628 1.243 . S
C624 C608 1.494 . S
C624 Tb615 2.821 . S
C624 O619 1.263 . S
C624 O621 1.264 . S
C625 O626 1.260 . S
C625 O629 1.264 . S
O626 C625 1.260 . S
C627 O614 1.242 . S
C627 O617 1.243 . S
C628 O622 1.242 . S
C628 O623 1.243 . S
O629 Eu618 2.312 . S
O629 C625 1.264 . S
C630 C620 1.494 . S
C630 C632 1.380 . S
C630 C633 1.387 . S
C631 C632 1.395 . S
C631 C635 1.393 . S
C632 C630 1.380 . S
C632 C631 1.395 . S
C632 H643 0.930 . S
C633 C630 1.387 . S
C633 C634 1.386 . S
C633 H644 0.930 . S
C634 C633 1.386 . S
C634 C635 1.397 . S
C635 C631 1.393 . S
C635 C634 1.397 . S
C635 H645 0.930 . S
C636 O616 1.264 . S
C636 O637 1.260 . S
O637 C636 1.260 . S
O638 Eu618 2.438 . S
O638 C620 1.263 . S
O639 Eu618 2.472 . S
O639 C620 1.264 . S
H640 C609 0.930 . S
H641 C611 0.930 . S
H642 C613 0.930 . S
H643 C632 0.930 . S
H644 C633 0.930 . S
H645 C635 0.930 . S
C646 C647 1.387 . S
C646 C651 1.380 . S
C646 C662 1.494 . S
C647 C646 1.387 . S
C647 C648 1.386 . S
C647 H678 0.930 . S
C648 C647 1.386 . S
C648 C649 1.397 . S
C649 C648 1.397 . S
C649 C650 1.393 . S
C649 H679 0.930 . S
C650 C649 1.393 . S
C650 C651 1.395 . S
C651 C646 1.380 . S
C651 C650 1.395 . S
C651 H680 0.930 . S
O652 Tb653 2.295 . S
O652 C665 1.242 . S
Tb653 O652 2.295 . S
Tb653 O654 2.312 . S
Tb653 O657 2.438 . S
Tb653 O659 2.472 . S
Tb653 O661 2.308 . S
Tb653 C662 2.821 . S
O654 Tb653 2.312 . S
O654 C674 1.264 . S
O655 Eu656 2.308 . S
O655 C665 1.243 . S
Eu656 O655 2.308 . S
Eu656 C658 2.821 . S
Eu656 O660 2.295 . S
Eu656 O667 2.312 1_565 S
Eu656 O676 2.438 1_565 S
Eu656 O677 2.472 . S
O657 Tb653 2.438 . S
O657 C662 1.263 . S
C658 Eu656 2.821 . S
C658 C668 1.494 . S
C658 O676 1.263 1_565 S
C658 O677 1.264 . S
O659 Tb653 2.472 . S
O659 C662 1.264 . S
O660 Eu656 2.295 . S
O660 C666 1.242 . S
O661 Tb653 2.308 . S
O661 C666 1.243 . S
C662 C646 1.494 . S
C662 Tb653 2.821 . S
C662 O657 1.263 . S
C662 O659 1.264 . S
C663 O664 1.260 . S
C663 O667 1.264 . S
O664 C663 1.260 . S
C665 O652 1.242 . S
C665 O655 1.243 . S
C666 O660 1.242 . S
C666 O661 1.243 . S
O667 Eu656 2.312 1_545 S
O667 C663 1.264 . S
C668 C658 1.494 . S
C668 C670 1.380 . S
C668 C671 1.387 1_565 S
C669 C670 1.395 . S
C669 C673 1.393 . S
C670 C668 1.380 . S
C670 C669 1.395 . S
C670 H681 0.930 . S
C671 C668 1.387 1_545 S
C671 C672 1.386 . S
C671 H682 0.930 . S
C672 C671 1.386 . S
C672 C673 1.397 1_545 S
C673 C669 1.393 . S
C673 C672 1.397 1_565 S
C673 H683 0.930 . S
C674 O654 1.264 . S
C674 O675 1.260 . S
O675 C674 1.260 . S
O676 Eu656 2.438 1_545 S
O676 C658 1.263 1_545 S
O677 Eu656 2.472 . S
O677 C658 1.264 . S
H678 C647 0.930 . S
H679 C649 0.930 . S
H680 C651 0.930 . S
H681 C670 0.930 . S
H682 C671 0.930 . S
H683 C673 0.930 . S
C684 C685 1.387 . S
C684 C689 1.380 . S
C684 C700 1.494 . S
C685 C684 1.387 . S
C685 C686 1.386 . S
C685 H716 0.930 . S
C686 C685 1.386 . S
C686 C687 1.397 . S
C687 C686 1.397 . S
C687 C688 1.393 . S
C687 H717 0.930 . S
C688 C687 1.393 . S
C688 C689 1.395 . S
C689 C684 1.380 . S
C689 C688 1.395 . S
C689 H718 0.930 . S
O690 Tb691 2.295 . S
O690 C703 1.242 . S
Tb691 O690 2.295 . S
Tb691 O692 2.312 . S
Tb691 O695 2.438 . S
Tb691 O697 2.472 . S
Tb691 O699 2.308 . S
Tb691 C700 2.821 . S
O692 Tb691 2.312 . S
O692 C712 1.264 . S
O693 Eu694 2.308 . S
O693 C703 1.243 . S
Eu694 O693 2.308 . S
Eu694 C696 2.821 . S
Eu694 O698 2.295 . S
Eu694 O705 2.312 1_565 S
Eu694 O714 2.438 1_565 S
Eu694 O715 2.472 . S
O695 Tb691 2.438 . S
O695 C700 1.263 . S
C696 Eu694 2.821 . S
C696 C706 1.494 . S
C696 O714 1.263 1_565 S
C696 O715 1.264 . S
O697 Tb691 2.472 . S
O697 C700 1.264 . S
O698 Eu694 2.295 . S
O698 C704 1.242 . S
O699 Tb691 2.308 . S
O699 C704 1.243 . S
C700 C684 1.494 . S
C700 Tb691 2.821 . S
C700 O695 1.263 . S
C700 O697 1.264 . S
C701 O702 1.260 . S
C701 O705 1.264 . S
O702 C701 1.260 . S
C703 O690 1.242 . S
C703 O693 1.243 . S
C704 O698 1.242 . S
C704 O699 1.243 . S
O705 Eu694 2.312 1_545 S
O705 C701 1.264 . S
C706 C696 1.494 . S
C706 C708 1.380 . S
C706 C709 1.387 1_565 S
C707 C708 1.395 . S
C707 C711 1.393 . S
C708 C706 1.380 . S
C708 C707 1.395 . S
C708 H719 0.930 . S
C709 C706 1.387 1_545 S
C709 C710 1.386 . S
C709 H720 0.930 . S
C710 C709 1.386 . S
C710 C711 1.397 1_545 S
C711 C707 1.393 . S
C711 C710 1.397 1_565 S
C711 H721 0.930 . S
C712 O692 1.264 . S
C712 O713 1.260 . S
O713 C712 1.260 . S
O714 Eu694 2.438 1_545 S
O714 C696 1.263 1_545 S
O715 Eu694 2.472 . S
O715 C696 1.264 . S
H716 C685 0.930 . S
H717 C687 0.930 . S
H718 C689 0.930 . S
H719 C708 0.930 . S
H720 C709 0.930 . S
H721 C711 0.930 . S
C722 C723 1.387 . S
C722 C727 1.380 . S
C722 C738 1.494 . S
C723 C722 1.387 . S
C723 C724 1.386 . S
C723 H754 0.930 . S
C724 C723 1.386 . S
C724 C725 1.397 . S
C725 C724 1.397 . S
C725 C726 1.393 . S
C725 H755 0.930 . S
C726 C725 1.393 . S
C726 C727 1.395 . S
C727 C722 1.380 . S
C727 C726 1.395 . S
C727 H756 0.930 . S
O728 Tb729 2.295 . S
O728 C741 1.242 . S
Tb729 O728 2.295 . S
Tb729 O730 2.312 . S
Tb729 O733 2.438 . S
Tb729 O735 2.472 . S
Tb729 O737 2.308 . S
Tb729 C738 2.821 . S
O730 Tb729 2.312 . S
O730 C750 1.264 . S
O731 Eu732 2.308 . S
O731 C741 1.243 . S
Eu732 O731 2.308 . S
Eu732 C734 2.821 . S
Eu732 O736 2.295 . S
Eu732 O743 2.312 . S
Eu732 O752 2.438 . S
Eu732 O753 2.472 . S
O733 Tb729 2.438 . S
O733 C738 1.263 . S
C734 Eu732 2.821 . S
C734 C744 1.494 . S
C734 O752 1.263 . S
C734 O753 1.264 . S
O735 Tb729 2.472 . S
O735 C738 1.264 . S
O736 Eu732 2.295 . S
O736 C742 1.242 . S
O737 Tb729 2.308 . S
O737 C742 1.243 . S
C738 C722 1.494 . S
C738 Tb729 2.821 . S
C738 O733 1.263 . S
C738 O735 1.264 . S
C739 O740 1.260 . S
C739 O743 1.264 . S
O740 C739 1.260 . S
C741 O728 1.242 . S
C741 O731 1.243 . S
C742 O736 1.242 . S
C742 O737 1.243 . S
O743 Eu732 2.312 . S
O743 C739 1.264 . S
C744 C734 1.494 . S
C744 C746 1.380 . S
C744 C747 1.387 . S
C745 C746 1.395 . S
C745 C749 1.393 . S
C746 C744 1.380 . S
C746 C745 1.395 . S
C746 H757 0.930 . S
C747 C744 1.387 . S
C747 C748 1.386 . S
C747 H758 0.930 . S
C748 C747 1.386 . S
C748 C749 1.397 . S
C749 C745 1.393 . S
C749 C748 1.397 . S
C749 H759 0.930 . S
C750 O730 1.264 . S
C750 O751 1.260 . S
O751 C750 1.260 . S
O752 Eu732 2.438 . S
O752 C734 1.263 . S
O753 Eu732 2.472 . S
O753 C734 1.264 . S
H754 C723 0.930 . S
H755 C725 0.930 . S
H756 C727 0.930 . S
H757 C746 0.930 . S
H758 C747 0.930 . S
H759 C749 0.930 . S
C760 C761 1.387 . S
C760 C765 1.380 . S
C760 C776 1.494 . S
C761 C760 1.387 . S
C761 C762 1.386 . S
C761 H792 0.930 . S
C762 C761 1.386 . S
C762 C763 1.397 . S
C763 C762 1.397 . S
C763 C764 1.393 . S
C763 H793 0.930 . S
C764 C763 1.393 . S
C764 C765 1.395 . S
C765 C760 1.380 . S
C765 C764 1.395 . S
C765 H794 0.930 . S
O766 Tb767 2.295 . S
O766 C779 1.242 . S
Tb767 O766 2.295 . S
Tb767 O768 2.312 . S
Tb767 O771 2.438 . S
Tb767 O773 2.472 . S
Tb767 O775 2.308 . S
Tb767 C776 2.821 . S
O768 Tb767 2.312 . S
O768 C788 1.264 . S
O769 Eu770 2.308 . S
O769 C779 1.243 . S
Eu770 O769 2.308 . S
Eu770 C772 2.821 . S
Eu770 O774 2.295 . S
Eu770 O781 2.312 . S
Eu770 O790 2.438 . S
Eu770 O791 2.472 . S
O771 Tb767 2.438 . S
O771 C776 1.263 . S
C772 Eu770 2.821 . S
C772 C782 1.494 . S
C772 O790 1.263 . S
C772 O791 1.264 . S
O773 Tb767 2.472 . S
O773 C776 1.264 . S
O774 Eu770 2.295 . S
O774 C780 1.242 . S
O775 Tb767 2.308 . S
O775 C780 1.243 . S
C776 C760 1.494 . S
C776 Tb767 2.821 . S
C776 O771 1.263 . S
C776 O773 1.264 . S
C777 O778 1.260 . S
C777 O781 1.264 . S
O778 C777 1.260 . S
C779 O766 1.242 . S
C779 O769 1.243 . S
C780 O774 1.242 . S
C780 O775 1.243 . S
O781 Eu770 2.312 . S
O781 C777 1.264 . S
C782 C772 1.494 . S
C782 C784 1.380 . S
C782 C785 1.387 . S
C783 C784 1.395 . S
C783 C787 1.393 . S
C784 C782 1.380 . S
C784 C783 1.395 . S
C784 H795 0.930 . S
C785 C782 1.387 . S
C785 C786 1.386 . S
C785 H796 0.930 . S
C786 C785 1.386 . S
C786 C787 1.397 . S
C787 C783 1.393 . S
C787 C786 1.397 . S
C787 H797 0.930 . S
C788 O768 1.264 . S
C788 O789 1.260 . S
O789 C788 1.260 . S
O790 Eu770 2.438 . S
O790 C772 1.263 . S
O791 Eu770 2.472 . S
O791 C772 1.264 . S
H792 C761 0.930 . S
H793 C763 0.930 . S
H794 C765 0.930 . S
H795 C784 0.930 . S
H796 C785 0.930 . S
H797 C787 0.930 . S
C798 C799 1.387 1_545 S
C798 C803 1.380 . S
C798 C814 1.494 . S
C799 C798 1.387 1_565 S
C799 C800 1.386 . S
C799 H830 0.930 . S
C800 C799 1.386 . S
C800 C801 1.397 1_565 S
C801 C800 1.397 1_545 S
C801 C802 1.393 . S
C801 H831 0.930 . S
C802 C801 1.393 . S
C802 C803 1.395 . S
C803 C798 1.380 . S
C803 C802 1.395 . S
C803 H832 0.930 . S
O804 Tb805 2.295 . S
O804 C817 1.242 . S
Tb805 O804 2.295 . S
Tb805 O806 2.312 1_545 S
Tb805 O809 2.438 1_545 S
Tb805 O811 2.472 . S
Tb805 O813 2.308 . S
Tb805 C814 2.821 . S
O806 Tb805 2.312 1_565 S
O806 C826 1.264 . S
O807 Eu808 2.308 . S
O807 C817 1.243 . S
Eu808 O807 2.308 . S
Eu808 C810 2.821 . S
Eu808 O812 2.295 . S
Eu808 O819 2.312 . S
Eu808 O828 2.438 . S
Eu808 O829 2.472 . S
O809 Tb805 2.438 1_565 S
O809 C814 1.263 1_565 S
C810 Eu808 2.821 . S
C810 C820 1.494 . S
C810 O828 1.263 . S
C810 O829 1.264 . S
O811 Tb805 2.472 . S
O811 C814 1.264 . S
O812 Eu808 2.295 . S
O812 C818 1.242 . S
O813 Tb805 2.308 . S
O813 C818 1.243 . S
C814 C798 1.494 . S
C814 Tb805 2.821 . S
C814 O809 1.263 1_545 S
C814 O811 1.264 . S
C815 O816 1.260 . S
C815 O819 1.264 . S
O816 C815 1.260 . S
C817 O804 1.242 . S
C817 O807 1.243 . S
C818 O812 1.242 . S
C818 O813 1.243 . S
O819 Eu808 2.312 . S
O819 C815 1.264 . S
C820 C810 1.494 . S
C820 C822 1.380 . S
C820 C823 1.387 . S
C821 C822 1.395 . S
C821 C825 1.393 . S
C822 C820 1.380 . S
C822 C821 1.395 . S
C822 H833 0.930 . S
C823 C820 1.387 . S
C823 C824 1.386 . S
C823 H834 0.930 . S
C824 C823 1.386 . S
C824 C825 1.397 . S
C825 C821 1.393 . S
C825 C824 1.397 . S
C825 H835 0.930 . S
C826 O806 1.264 . S
C826 O827 1.260 . S
O827 C826 1.260 . S
O828 Eu808 2.438 . S
O828 C810 1.263 . S
O829 Eu808 2.472 . S
O829 C810 1.264 . S
H830 C799 0.930 . S
H831 C801 0.930 . S
H832 C803 0.930 . S
H833 C822 0.930 . S
H834 C823 0.930 . S
H835 C825 0.930 . S
C836 C837 1.387 1_545 S
C836 C841 1.380 . S
C836 C852 1.494 . S
C837 C836 1.387 1_565 S
C837 C838 1.386 . S
C837 H868 0.930 . S
C838 C837 1.386 . S
C838 C839 1.397 1_565 S
C839 C838 1.397 1_545 S
C839 C840 1.393 . S
C839 H869 0.930 . S
C840 C839 1.393 . S
C840 C841 1.395 . S
C841 C836 1.380 . S
C841 C840 1.395 . S
C841 H870 0.930 . S
O842 Tb843 2.295 . S
O842 C855 1.242 . S
Tb843 O842 2.295 . S
Tb843 O844 2.312 1_545 S
Tb843 O847 2.438 1_545 S
Tb843 O849 2.472 . S
Tb843 O851 2.308 . S
Tb843 C852 2.821 . S
O844 Tb843 2.312 1_565 S
O844 C864 1.264 . S
O845 Eu846 2.308 . S
O845 C855 1.243 . S
Eu846 O845 2.308 . S
Eu846 C848 2.821 . S
Eu846 O850 2.295 . S
Eu846 O857 2.312 . S
Eu846 O866 2.438 . S
Eu846 O867 2.472 . S
O847 Tb843 2.438 1_565 S
O847 C852 1.263 1_565 S
C848 Eu846 2.821 . S
C848 C858 1.494 . S
C848 O866 1.263 . S
C848 O867 1.264 . S
O849 Tb843 2.472 . S
O849 C852 1.264 . S
O850 Eu846 2.295 . S
O850 C856 1.242 . S
O851 Tb843 2.308 . S
O851 C856 1.243 . S
C852 C836 1.494 . S
C852 Tb843 2.821 . S
C852 O847 1.263 1_545 S
C852 O849 1.264 . S
C853 O854 1.260 . S
C853 O857 1.264 . S
O854 C853 1.260 . S
C855 O842 1.242 . S
C855 O845 1.243 . S
C856 O850 1.242 . S
C856 O851 1.243 . S
O857 Eu846 2.312 . S
O857 C853 1.264 . S
C858 C848 1.494 . S
C858 C860 1.380 . S
C858 C861 1.387 . S
C859 C860 1.395 . S
C859 C863 1.393 . S
C860 C858 1.380 . S
C860 C859 1.395 . S
C860 H871 0.930 . S
C861 C858 1.387 . S
C861 C862 1.386 . S
C861 H872 0.930 . S
C862 C861 1.386 . S
C862 C863 1.397 . S
C863 C859 1.393 . S
C863 C862 1.397 . S
C863 H873 0.930 . S
C864 O844 1.264 . S
C864 O865 1.260 . S
O865 C864 1.260 . S
O866 Eu846 2.438 . S
O866 C848 1.263 . S
O867 Eu846 2.472 . S
O867 C848 1.264 . S
H868 C837 0.930 . S
H869 C839 0.930 . S
H870 C841 0.930 . S
H871 C860 0.930 . S
H872 C861 0.930 . S
H873 C863 0.930 . S
C874 C875 1.387 . S
C874 C879 1.380 . S
C874 C890 1.494 . S
C875 C874 1.387 . S
C875 C876 1.386 . S
C875 H906 0.930 . S
C876 C875 1.386 . S
C876 C877 1.397 . S
C877 C876 1.397 . S
C877 C878 1.393 . S
C877 H907 0.930 . S
C878 C877 1.393 . S
C878 C879 1.395 . S
C879 C874 1.380 . S
C879 C878 1.395 . S
C879 H908 0.930 . S
O880 Tb881 2.295 . S
O880 C893 1.242 . S
Tb881 O880 2.295 . S
Tb881 O882 2.312 . S
Tb881 O885 2.438 . S
Tb881 O887 2.472 . S
Tb881 O889 2.308 . S
Tb881 C890 2.821 . S
O882 Tb881 2.312 . S
O882 C902 1.264 . S
O883 Eu884 2.308 . S
O883 C893 1.243 . S
Eu884 O883 2.308 . S
Eu884 C886 2.821 . S
Eu884 O888 2.295 . S
Eu884 O895 2.312 . S
Eu884 O904 2.438 . S
Eu884 O905 2.472 . S
O885 Tb881 2.438 . S
O885 C890 1.263 . S
C886 Eu884 2.821 . S
C886 C896 1.494 . S
C886 O904 1.263 . S
C886 O905 1.264 . S
O887 Tb881 2.472 . S
O887 C890 1.264 . S
O888 Eu884 2.295 . S
O888 C894 1.242 . S
O889 Tb881 2.308 . S
O889 C894 1.243 . S
C890 C874 1.494 . S
C890 Tb881 2.821 . S
C890 O885 1.263 . S
C890 O887 1.264 . S
C891 O892 1.260 . S
C891 O895 1.264 . S
O892 C891 1.260 . S
C893 O880 1.242 . S
C893 O883 1.243 . S
C894 O888 1.242 . S
C894 O889 1.243 . S
O895 Eu884 2.312 . S
O895 C891 1.264 . S
C896 C886 1.494 . S
C896 C898 1.380 . S
C896 C899 1.387 . S
C897 C898 1.395 . S
C897 C901 1.393 . S
C898 C896 1.380 . S
C898 C897 1.395 . S
C898 H909 0.930 . S
C899 C896 1.387 . S
C899 C900 1.386 . S
C899 H910 0.930 . S
C900 C899 1.386 . S
C900 C901 1.397 . S
C901 C897 1.393 . S
C901 C900 1.397 . S
C901 H911 0.930 . S
C902 O882 1.264 . S
C902 O903 1.260 . S
O903 C902 1.260 . S
O904 Eu884 2.438 . S
O904 C886 1.263 . S
O905 Eu884 2.472 . S
O905 C886 1.264 . S
H906 C875 0.930 . S
H907 C877 0.930 . S
H908 C879 0.930 . S
H909 C898 0.930 . S
H910 C899 0.930 . S
H911 C901 0.930 . S
C912 C913 1.387 . S
C912 C917 1.380 . S
C912 C928 1.494 . S
C913 C912 1.387 . S
C913 C914 1.386 . S
C913 H944 0.930 . S
C914 C913 1.386 . S
C914 C915 1.397 . S
C915 C914 1.397 . S
C915 C916 1.393 . S
C915 H945 0.930 . S
C916 C915 1.393 . S
C916 C917 1.395 . S
C917 C912 1.380 . S
C917 C916 1.395 . S
C917 H946 0.930 . S
O918 Tb919 2.295 1_554 S
O918 C931 1.242 . S
Tb919 O918 2.295 1_556 S
Tb919 O920 2.312 . S
Tb919 O923 2.438 . S
Tb919 O925 2.472 1_556 S
Tb919 O927 2.308 . S
Tb919 C928 2.821 1_556 S
O920 Tb919 2.312 . S
O920 C940 1.264 . S
O921 Eu922 2.308 . S
O921 C931 1.243 . S
Eu922 O921 2.308 . S
Eu922 C924 2.821 . S
Eu922 O926 2.295 . S
Eu922 O933 2.312 . S
Eu922 O942 2.438 . S
Eu922 O943 2.472 . S
O923 Tb919 2.438 . S
O923 C928 1.263 1_556 S
C924 Eu922 2.821 . S
C924 C934 1.494 . S
C924 O942 1.263 . S
C924 O943 1.264 . S
O925 Tb919 2.472 1_554 S
O925 C928 1.264 . S
O926 Eu922 2.295 . S
O926 C932 1.242 1_554 S
O927 Tb919 2.308 . S
O927 C932 1.243 . S
C928 C912 1.494 . S
C928 Tb919 2.821 1_554 S
C928 O923 1.263 1_554 S
C928 O925 1.264 . S
C929 O930 1.260 . S
C929 O933 1.264 . S
O930 C929 1.260 . S
C931 O918 1.242 . S
C931 O921 1.243 . S
C932 O926 1.242 1_556 S
C932 O927 1.243 . S
O933 Eu922 2.312 . S
O933 C929 1.264 . S
C934 C924 1.494 . S
C934 C936 1.380 . S
C934 C937 1.387 . S
C935 C936 1.395 1_556 S
C935 C939 1.393 . S
C936 C934 1.380 . S
C936 C935 1.395 1_554 S
C936 H947 0.930 . S
C937 C934 1.387 . S
C937 C938 1.386 . S
C937 H948 0.930 . S
C938 C937 1.386 . S
C938 C939 1.397 1_554 S
C939 C935 1.393 . S
C939 C938 1.397 1_556 S
C939 H949 0.930 . S
C940 O920 1.264 . S
C940 O941 1.260 . S
O941 C940 1.260 . S
O942 Eu922 2.438 . S
O942 C924 1.263 . S
O943 Eu922 2.472 . S
O943 C924 1.264 . S
H944 C913 0.930 . S
H945 C915 0.930 . S
H946 C917 0.930 . S
H947 C936 0.930 . S
H948 C937 0.930 . S
H949 C939 0.930 . S
C950 C951 1.387 . S
C950 C955 1.380 . S
C950 C966 1.494 . S
C951 C950 1.387 . S
C951 C952 1.386 . S
C951 H982 0.930 . S
C952 C951 1.386 . S
C952 C953 1.397 . S
C953 C952 1.397 . S
C953 C954 1.393 . S
C953 H983 0.930 . S
C954 C953 1.393 . S
C954 C955 1.395 . S
C955 C950 1.380 . S
C955 C954 1.395 . S
C955 H984 0.930 . S
O956 Tb957 2.295 1_554 S
O956 C969 1.242 . S
Tb957 O956 2.295 1_556 S
Tb957 O958 2.312 . S
Tb957 O961 2.438 . S
Tb957 O963 2.472 1_556 S
Tb957 O965 2.308 . S
Tb957 C966 2.821 1_556 S
O958 Tb957 2.312 . S
O958 C978 1.264 . S
O959 Eu960 2.308 . S
O959 C969 1.243 . S
Eu960 O959 2.308 . S
Eu960 C962 2.821 . S
Eu960 O964 2.295 . S
Eu960 O971 2.312 . S
Eu960 O980 2.438 . S
Eu960 O981 2.472 . S
O961 Tb957 2.438 . S
O961 C966 1.263 1_556 S
C962 Eu960 2.821 . S
C962 C972 1.494 . S
C962 O980 1.263 . S
C962 O981 1.264 . S
O963 Tb957 2.472 1_554 S
O963 C966 1.264 . S
O964 Eu960 2.295 . S
O964 C970 1.242 1_554 S
O965 Tb957 2.308 . S
O965 C970 1.243 . S
C966 C950 1.494 . S
C966 Tb957 2.821 1_554 S
C966 O961 1.263 1_554 S
C966 O963 1.264 . S
C967 O968 1.260 . S
C967 O971 1.264 . S
O968 C967 1.260 . S
C969 O956 1.242 . S
C969 O959 1.243 . S
C970 O964 1.242 1_556 S
C970 O965 1.243 . S
O971 Eu960 2.312 . S
O971 C967 1.264 . S
C972 C962 1.494 . S
C972 C974 1.380 . S
C972 C975 1.387 . S
C973 C974 1.395 1_556 S
C973 C977 1.393 . S
C974 C972 1.380 . S
C974 C973 1.395 1_554 S
C974 H985 0.930 . S
C975 C972 1.387 . S
C975 C976 1.386 . S
C975 H986 0.930 . S
C976 C975 1.386 . S
C976 C977 1.397 1_554 S
C977 C973 1.393 . S
C977 C976 1.397 1_556 S
C977 H987 0.930 . S
C978 O958 1.264 . S
C978 O979 1.260 . S
O979 C978 1.260 . S
O980 Eu960 2.438 . S
O980 C962 1.263 . S
O981 Eu960 2.472 . S
O981 C962 1.264 . S
H982 C951 0.930 . S
H983 C953 0.930 . S
H984 C955 0.930 . S
H985 C974 0.930 . S
H986 C975 0.930 . S
H987 C977 0.930 . S
C988 C989 1.387 . S
C988 C993 1.380 . S
C988 C1004 1.494 . S
C989 C988 1.387 . S
C989 C990 1.386 . S
C989 H1020 0.930 . S
C990 C989 1.386 . S
C990 C991 1.397 . S
C991 C990 1.397 . S
C991 C992 1.393 . S
C991 H1021 0.930 . S
C992 C991 1.393 . S
C992 C993 1.395 . S
C993 C988 1.380 . S
C993 C992 1.395 . S
C993 H1022 0.930 . S
O994 Tb995 2.295 . S
O994 C1007 1.242 . S
Tb995 O994 2.295 . S
Tb995 O996 2.312 . S
Tb995 O999 2.438 . S
Tb995 O1001 2.472 . S
Tb995 O1003 2.308 . S
Tb995 C1004 2.821 . S
O996 Tb995 2.312 . S
O996 C1016 1.264 . S
O997 Eu998 2.308 . S
O997 C1007 1.243 . S
Eu998 O997 2.308 . S
Eu998 C1000 2.821 . S
Eu998 O1002 2.295 . S
Eu998 O1009 2.312 . S
Eu998 O1018 2.438 . S
Eu998 O1019 2.472 . S
O999 Tb995 2.438 . S
O999 C1004 1.263 . S
C1000 Eu998 2.821 . S
C1000 C1010 1.494 . S
C1000 O1018 1.263 . S
C1000 O1019 1.264 . S
O1001 Tb995 2.472 . S
O1001 C1004 1.264 . S
O1002 Eu998 2.295 . S
O1002 C1008 1.242 . S
O1003 Tb995 2.308 . S
O1003 C1008 1.243 . S
C1004 C988 1.494 . S
C1004 Tb995 2.821 . S
C1004 O999 1.263 . S
C1004 O1001 1.264 . S
C1005 O1006 1.260 . S
C1005 O1009 1.264 . S
O1006 C1005 1.260 . S
C1007 O994 1.242 . S
C1007 O997 1.243 . S
C1008 O1002 1.242 . S
C1008 O1003 1.243 . S
O1009 Eu998 2.312 . S
O1009 C1005 1.264 . S
C1010 C1000 1.494 . S
C1010 C1012 1.380 . S
C1010 C1013 1.387 . S
C1011 C1012 1.395 . S
C1011 C1015 1.393 . S
C1012 C1010 1.380 . S
C1012 C1011 1.395 . S
C1012 H1023 0.930 . S
C1013 C1010 1.387 . S
C1013 C1014 1.386 . S
C1013 H1024 0.930 . S
C1014 C1013 1.386 . S
C1014 C1015 1.397 . S
C1015 C1011 1.393 . S
C1015 C1014 1.397 . S
C1015 H1025 0.930 . S
C1016 O996 1.264 . S
C1016 O1017 1.260 . S
O1017 C1016 1.260 . S
O1018 Eu998 2.438 . S
O1018 C1000 1.263 . S
O1019 Eu998 2.472 . S
O1019 C1000 1.264 . S
H1020 C989 0.930 . S
H1021 C991 0.930 . S
H1022 C993 0.930 . S
H1023 C1012 0.930 . S
H1024 C1013 0.930 . S
H1025 C1015 0.930 . S
C1026 C1027 1.387 . S
C1026 C1031 1.380 . S
C1026 C1042 1.494 . S
C1027 C1026 1.387 . S
C1027 C1028 1.386 . S
C1027 H1058 0.930 . S
C1028 C1027 1.386 . S
C1028 C1029 1.397 . S
C1029 C1028 1.397 . S
C1029 C1030 1.393 . S
C1029 H1059 0.930 . S
C1030 C1029 1.393 . S
C1030 C1031 1.395 . S
C1031 C1026 1.380 . S
C1031 C1030 1.395 . S
C1031 H1060 0.930 . S
O1032 Tb1033 2.295 . S
O1032 C1045 1.242 . S
Tb1033 O1032 2.295 . S
Tb1033 O1034 2.312 . S
Tb1033 O1037 2.438 . S
Tb1033 O1039 2.472 . S
Tb1033 O1041 2.308 . S
Tb1033 C1042 2.821 . S
O1034 Tb1033 2.312 . S
O1034 C1054 1.264 . S
O1035 Eu1036 2.308 . S
O1035 C1045 1.243 . S
Eu1036 O1035 2.308 . S
Eu1036 C1038 2.821 . S
Eu1036 O1040 2.295 . S
Eu1036 O1047 2.312 . S
Eu1036 O1056 2.438 . S
Eu1036 O1057 2.472 . S
O1037 Tb1033 2.438 . S
O1037 C1042 1.263 . S
C1038 Eu1036 2.821 . S
C1038 C1048 1.494 . S
C1038 O1056 1.263 . S
C1038 O1057 1.264 . S
O1039 Tb1033 2.472 . S
O1039 C1042 1.264 . S
O1040 Eu1036 2.295 . S
O1040 C1046 1.242 . S
O1041 Tb1033 2.308 . S
O1041 C1046 1.243 . S
C1042 C1026 1.494 . S
C1042 Tb1033 2.821 . S
C1042 O1037 1.263 . S
C1042 O1039 1.264 . S
C1043 O1044 1.260 . S
C1043 O1047 1.264 . S
O1044 C1043 1.260 . S
C1045 O1032 1.242 . S
C1045 O1035 1.243 . S
C1046 O1040 1.242 . S
C1046 O1041 1.243 . S
O1047 Eu1036 2.312 . S
O1047 C1043 1.264 . S
C1048 C1038 1.494 . S
C1048 C1050 1.380 . S
C1048 C1051 1.387 . S
C1049 C1050 1.395 . S
C1049 C1053 1.393 . S
C1050 C1048 1.380 . S
C1050 C1049 1.395 . S
C1050 H1061 0.930 . S
C1051 C1048 1.387 . S
C1051 C1052 1.386 . S
C1051 H1062 0.930 . S
C1052 C1051 1.386 . S
C1052 C1053 1.397 . S
C1053 C1049 1.393 . S
C1053 C1052 1.397 . S
C1053 H1063 0.930 . S
C1054 O1034 1.264 . S
C1054 O1055 1.260 . S
O1055 C1054 1.260 . S
O1056 Eu1036 2.438 . S
O1056 C1038 1.263 . S
O1057 Eu1036 2.472 . S
O1057 C1038 1.264 . S
H1058 C1027 0.930 . S
H1059 C1029 0.930 . S
H1060 C1031 0.930 . S
H1061 C1050 0.930 . S
H1062 C1051 0.930 . S
H1063 C1053 0.930 . S
C1064 C1065 1.387 . S
C1064 C1069 1.380 . S
C1064 C1080 1.494 . S
C1065 C1064 1.387 . S
C1065 C1066 1.386 . S
C1065 H1096 0.930 . S
C1066 C1065 1.386 . S
C1066 C1067 1.397 1_556 S
C1067 C1066 1.397 1_554 S
C1067 C1068 1.393 . S
C1067 H1097 0.930 . S
C1068 C1067 1.393 . S
C1068 C1069 1.395 1_554 S
C1069 C1064 1.380 . S
C1069 C1068 1.395 1_556 S
C1069 H1098 0.930 . S
O1070 Tb1071 2.295 . S
O1070 C1083 1.242 1_556 S
Tb1071 O1070 2.295 . S
Tb1071 O1072 2.312 . S
Tb1071 O1075 2.438 . S
Tb1071 O1077 2.472 . S
Tb1071 O1079 2.308 . S
Tb1071 C1080 2.821 . S
O1072 Tb1071 2.312 . S
O1072 C1092 1.264 . S
O1073 Eu1074 2.308 . S
O1073 C1083 1.243 . S
Eu1074 O1073 2.308 . S
Eu1074 C1076 2.821 1_554 S
Eu1074 O1078 2.295 1_554 S
Eu1074 O1085 2.312 . S
Eu1074 O1094 2.438 . S
Eu1074 O1095 2.472 1_554 S
O1075 Tb1071 2.438 . S
O1075 C1080 1.263 . S
C1076 Eu1074 2.821 1_556 S
C1076 C1086 1.494 . S
C1076 O1094 1.263 1_556 S
C1076 O1095 1.264 . S
O1077 Tb1071 2.472 . S
O1077 C1080 1.264 . S
O1078 Eu1074 2.295 1_556 S
O1078 C1084 1.242 . S
O1079 Tb1071 2.308 . S
O1079 C1084 1.243 . S
C1080 C1064 1.494 . S
C1080 Tb1071 2.821 . S
C1080 O1075 1.263 . S
C1080 O1077 1.264 . S
C1081 O1082 1.260 . S
C1081 O1085 1.264 . S
O1082 C1081 1.260 . S
C1083 O1070 1.242 1_554 S
C1083 O1073 1.243 . S
C1084 O1078 1.242 . S
C1084 O1079 1.243 . S
O1085 Eu1074 2.312 . S
O1085 C1081 1.264 . S
C1086 C1076 1.494 . S
C1086 C1088 1.380 . S
C1086 C1089 1.387 . S
C1087 C1088 1.395 . S
C1087 C1091 1.393 . S
C1088 C1086 1.380 . S
C1088 C1087 1.395 . S
C1088 H1099 0.930 . S
C1089 C1086 1.387 . S
C1089 C1090 1.386 . S
C1089 H1100 0.930 . S
C1090 C1089 1.386 . S
C1090 C1091 1.397 . S
C1091 C1087 1.393 . S
C1091 C1090 1.397 . S
C1091 H1101 0.930 . S
C1092 O1072 1.264 . S
C1092 O1093 1.260 . S
O1093 C1092 1.260 . S
O1094 Eu1074 2.438 . S
O1094 C1076 1.263 1_554 S
O1095 Eu1074 2.472 1_556 S
O1095 C1076 1.264 . S
H1096 C1065 0.930 . S
H1097 C1067 0.930 . S
H1098 C1069 0.930 . S
H1099 C1088 0.930 . S
H1100 C1089 0.930 . S
H1101 C1091 0.930 . S
C1102 C1103 1.387 . S
C1102 C1107 1.380 . S
C1102 C1118 1.494 . S
C1103 C1102 1.387 . S
C1103 C1104 1.386 . S
C1103 H1134 0.930 . S
C1104 C1103 1.386 . S
C1104 C1105 1.397 1_556 S
C1105 C1104 1.397 1_554 S
C1105 C1106 1.393 . S
C1105 H1135 0.930 . S
C1106 C1105 1.393 . S
C1106 C1107 1.395 1_554 S
C1107 C1102 1.380 . S
C1107 C1106 1.395 1_556 S
C1107 H1136 0.930 . S
O1108 Tb1109 2.295 . S
O1108 C1121 1.242 1_556 S
Tb1109 O1108 2.295 . S
Tb1109 O1110 2.312 . S
Tb1109 O1113 2.438 . S
Tb1109 O1115 2.472 . S
Tb1109 O1117 2.308 . S
Tb1109 C1118 2.821 . S
O1110 Tb1109 2.312 . S
O1110 C1130 1.264 . S
O1111 Eu1112 2.308 . S
O1111 C1121 1.243 . S
Eu1112 O1111 2.308 . S
Eu1112 C1114 2.821 1_554 S
Eu1112 O1116 2.295 1_554 S
Eu1112 O1123 2.312 . S
Eu1112 O1132 2.438 . S
Eu1112 O1133 2.472 1_554 S
O1113 Tb1109 2.438 . S
O1113 C1118 1.263 . S
C1114 Eu1112 2.821 1_556 S
C1114 C1124 1.494 . S
C1114 O1132 1.263 1_556 S
C1114 O1133 1.264 . S
O1115 Tb1109 2.472 . S
O1115 C1118 1.264 . S
O1116 Eu1112 2.295 1_556 S
O1116 C1122 1.242 . S
O1117 Tb1109 2.308 . S
O1117 C1122 1.243 . S
C1118 C1102 1.494 . S
C1118 Tb1109 2.821 . S
C1118 O1113 1.263 . S
C1118 O1115 1.264 . S
C1119 O1120 1.260 . S
C1119 O1123 1.264 . S
O1120 C1119 1.260 . S
C1121 O1108 1.242 1_554 S
C1121 O1111 1.243 . S
C1122 O1116 1.242 . S
C1122 O1117 1.243 . S
O1123 Eu1112 2.312 . S
O1123 C1119 1.264 . S
C1124 C1114 1.494 . S
C1124 C1126 1.380 . S
C1124 C1127 1.387 . S
C1125 C1126 1.395 . S
C1125 C1129 1.393 . S
C1126 C1124 1.380 . S
C1126 C1125 1.395 . S
C1126 H1137 0.930 . S
C1127 C1124 1.387 . S
C1127 C1128 1.386 . S
C1127 H1138 0.930 . S
C1128 C1127 1.386 . S
C1128 C1129 1.397 . S
C1129 C1125 1.393 . S
C1129 C1128 1.397 . S
C1129 H1139 0.930 . S
C1130 O1110 1.264 . S
C1130 O1131 1.260 . S
O1131 C1130 1.260 . S
O1132 Eu1112 2.438 . S
O1132 C1114 1.263 1_554 S
O1133 Eu1112 2.472 1_556 S
O1133 C1114 1.264 . S
H1134 C1103 0.930 . S
H1135 C1105 0.930 . S
H1136 C1107 0.930 . S
H1137 C1126 0.930 . S
H1138 C1127 0.930 . S
H1139 C1129 0.930 . S
C1140 C1141 1.387 . S
C1140 C1145 1.380 . S
C1140 C1156 1.494 . S
C1141 C1140 1.387 . S
C1141 C1142 1.386 . S
C1141 H1172 0.930 . S
C1142 C1141 1.386 . S
C1142 C1143 1.397 . S
C1143 C1142 1.397 . S
C1143 C1144 1.393 . S
C1143 H1173 0.930 . S
C1144 C1143 1.393 . S
C1144 C1145 1.395 . S
C1145 C1140 1.380 . S
C1145 C1144 1.395 . S
C1145 H1174 0.930 . S
O1146 Tb1147 2.295 . S
O1146 C1159 1.242 . S
Tb1147 O1146 2.295 . S
Tb1147 O1148 2.312 . S
Tb1147 O1151 2.438 . S
Tb1147 O1153 2.472 . S
Tb1147 O1155 2.308 . S
Tb1147 C1156 2.821 . S
O1148 Tb1147 2.312 . S
O1148 C1168 1.264 . S
O1149 Eu1150 2.308 . S
O1149 C1159 1.243 . S
Eu1150 O1149 2.308 . S
Eu1150 C1152 2.821 . S
Eu1150 O1154 2.295 . S
Eu1150 O1161 2.312 . S
Eu1150 O1170 2.438 . S
Eu1150 O1171 2.472 . S
O1151 Tb1147 2.438 . S
O1151 C1156 1.263 . S
C1152 Eu1150 2.821 . S
C1152 C1162 1.494 . S
C1152 O1170 1.263 . S
C1152 O1171 1.264 . S
O1153 Tb1147 2.472 . S
O1153 C1156 1.264 . S
O1154 Eu1150 2.295 . S
O1154 C1160 1.242 . S
O1155 Tb1147 2.308 . S
O1155 C1160 1.243 . S
C1156 C1140 1.494 . S
C1156 Tb1147 2.821 . S
C1156 O1151 1.263 . S
C1156 O1153 1.264 . S
C1157 O1158 1.260 . S
C1157 O1161 1.264 . S
O1158 C1157 1.260 . S
C1159 O1146 1.242 . S
C1159 O1149 1.243 . S
C1160 O1154 1.242 . S
C1160 O1155 1.243 . S
O1161 Eu1150 2.312 . S
O1161 C1157 1.264 . S
C1162 C1152 1.494 . S
C1162 C1164 1.380 . S
C1162 C1165 1.387 . S
C1163 C1164 1.395 . S
C1163 C1167 1.393 . S
C1164 C1162 1.380 . S
C1164 C1163 1.395 . S
C1164 H1175 0.930 . S
C1165 C1162 1.387 . S
C1165 C1166 1.386 . S
C1165 H1176 0.930 . S
C1166 C1165 1.386 . S
C1166 C1167 1.397 . S
C1167 C1163 1.393 . S
C1167 C1166 1.397 . S
C1167 H1177 0.930 . S
C1168 O1148 1.264 . S
C1168 O1169 1.260 . S
O1169 C1168 1.260 . S
O1170 Eu1150 2.438 . S
O1170 C1152 1.263 . S
O1171 Eu1150 2.472 . S
O1171 C1152 1.264 . S
H1172 C1141 0.930 . S
H1173 C1143 0.930 . S
H1174 C1145 0.930 . S
H1175 C1164 0.930 . S
H1176 C1165 0.930 . S
H1177 C1167 0.930 . S
C1178 C1179 1.387 . S
C1178 C1183 1.380 . S
C1178 C1194 1.494 . S
C1179 C1178 1.387 . S
C1179 C1180 1.386 . S
C1179 H1210 0.930 . S
C1180 C1179 1.386 . S
C1180 C1181 1.397 . S
C1181 C1180 1.397 . S
C1181 C1182 1.393 . S
C1181 H1211 0.930 . S
C1182 C1181 1.393 . S
C1182 C1183 1.395 . S
C1183 C1178 1.380 . S
C1183 C1182 1.395 . S
C1183 H1212 0.930 . S
O1184 Tb1185 2.295 . S
O1184 C1197 1.242 . S
Tb1185 O1184 2.295 . S
Tb1185 O1186 2.312 . S
Tb1185 O1189 2.438 . S
Tb1185 O1191 2.472 . S
Tb1185 O1193 2.308 . S
Tb1185 C1194 2.821 . S
O1186 Tb1185 2.312 . S
O1186 C1206 1.264 . S
O1187 Eu1188 2.308 . S
O1187 C1197 1.243 . S
Eu1188 O1187 2.308 . S
Eu1188 C1190 2.821 . S
Eu1188 O1192 2.295 . S
Eu1188 O1199 2.312 . S
Eu1188 O1208 2.438 . S
Eu1188 O1209 2.472 . S
O1189 Tb1185 2.438 . S
O1189 C1194 1.263 . S
C1190 Eu1188 2.821 . S
C1190 C1200 1.494 . S
C1190 O1208 1.263 . S
C1190 O1209 1.264 . S
O1191 Tb1185 2.472 . S
O1191 C1194 1.264 . S
O1192 Eu1188 2.295 . S
O1192 C1198 1.242 . S
O1193 Tb1185 2.308 . S
O1193 C1198 1.243 . S
C1194 C1178 1.494 . S
C1194 Tb1185 2.821 . S
C1194 O1189 1.263 . S
C1194 O1191 1.264 . S
C1195 O1196 1.260 . S
C1195 O1199 1.264 . S
O1196 C1195 1.260 . S
C1197 O1184 1.242 . S
C1197 O1187 1.243 . S
C1198 O1192 1.242 . S
C1198 O1193 1.243 . S
O1199 Eu1188 2.312 . S
O1199 C1195 1.264 . S
C1200 C1190 1.494 . S
C1200 C1202 1.380 . S
C1200 C1203 1.387 . S
C1201 C1202 1.395 . S
C1201 C1205 1.393 . S
C1202 C1200 1.380 . S
C1202 C1201 1.395 . S
C1202 H1213 0.930 . S
C1203 C1200 1.387 . S
C1203 C1204 1.386 . S
C1203 H1214 0.930 . S
C1204 C1203 1.386 . S
C1204 C1205 1.397 . S
C1205 C1201 1.393 . S
C1205 C1204 1.397 . S
C1205 H1215 0.930 . S
C1206 O1186 1.264 . S
C1206 O1207 1.260 . S
O1207 C1206 1.260 . S
O1208 Eu1188 2.438 . S
O1208 C1190 1.263 . S
O1209 Eu1188 2.472 . S
O1209 C1190 1.264 . S
H1210 C1179 0.930 . S
H1211 C1181 0.930 . S
H1212 C1183 0.930 . S
H1213 C1202 0.930 . S
H1214 C1203 0.930 . S
H1215 C1205 0.930 . S
C1216 C1217 1.387 . S
C1216 H1220 0.950 . S
C1216 C1225 1.390 . S
C1217 C1216 1.387 . S
C1217 C1219 1.387 . S
H1218 C1225 0.950 . S
C1219 C1217 1.387 . S
C1219 C1221 1.390 . S
C1219 H1223 0.950 . S
H1220 C1216 0.950 . S
C1221 C1219 1.390 . S
C1221 C1222 1.387 . S
C1221 H1224 0.950 . S
C1222 C1221 1.387 . S
C1222 C1225 1.387 . S
H1223 C1219 0.950 . S
H1224 C1221 0.950 . S
C1225 C1216 1.390 . S
C1225 H1218 0.950 . S
C1225 C1222 1.387 . S
C1226 C1227 1.387 1_554 S
C1226 H1230 0.950 . S
C1226 C1235 1.390 . S
C1227 C1226 1.387 1_556 S
C1227 C1229 1.387 . S
H1228 C1235 0.950 . S
C1229 C1227 1.387 . S
C1229 C1231 1.390 . S
C1229 H1233 0.950 . S
H1230 C1226 0.950 . S
C1231 C1229 1.390 . S
C1231 C1232 1.387 . S
C1231 H1234 0.950 . S
C1232 C1231 1.387 . S
C1232 C1235 1.387 1_556 S
H1233 C1229 0.950 . S
H1234 C1231 0.950 . S
C1235 C1226 1.390 . S
C1235 H1228 0.950 . S
C1235 C1232 1.387 1_554 S
C1236 C1237 1.387 . S
C1236 H1240 0.950 . S
C1236 C1245 1.390 . S
C1237 C1236 1.387 . S
C1237 C1239 1.387 . S
H1238 C1245 0.950 . S
C1239 C1237 1.387 . S
C1239 C1241 1.390 . S
C1239 H1243 0.950 . S
H1240 C1236 0.950 . S
C1241 C1239 1.390 . S
C1241 C1242 1.387 . S
C1241 H1244 0.950 . S
C1242 C1241 1.387 . S
C1242 C1245 1.387 . S
H1243 C1239 0.950 . S
H1244 C1241 0.950 . S
C1245 C1236 1.390 . S
C1245 H1238 0.950 . S
C1245 C1242 1.387 . S
C1246 C1247 1.387 . S
C1246 H1250 0.950 . S
C1246 C1255 1.390 . S
C1247 C1246 1.387 . S
C1247 C1249 1.387 . S
H1248 C1255 0.950 . S
C1249 C1247 1.387 . S
C1249 C1251 1.390 . S
C1249 H1253 0.950 . S
H1250 C1246 0.950 . S
C1251 C1249 1.390 . S
C1251 C1252 1.387 . S
C1251 H1254 0.950 . S
C1252 C1251 1.387 . S
C1252 C1255 1.387 . S
H1253 C1249 0.950 . S
H1254 C1251 0.950 . S
C1255 C1246 1.390 . S
C1255 H1248 0.950 . S
C1255 C1252 1.387 . S
C1256 C1257 1.387 1_556 S
C1256 H1260 0.950 . S
C1256 C1265 1.390 . S
C1257 C1256 1.387 1_554 S
C1257 C1259 1.387 . S
H1258 C1265 0.950 . S
C1259 C1257 1.387 . S
C1259 C1261 1.390 . S
C1259 H1263 0.950 . S
H1260 C1256 0.950 . S
C1261 C1259 1.390 . S
C1261 C1262 1.387 . S
C1261 H1264 0.950 . S
C1262 C1261 1.387 . S
C1262 C1265 1.387 1_554 S
H1263 C1259 0.950 . S
H1264 C1261 0.950 . S
C1265 C1256 1.390 . S
C1265 H1258 0.950 . S
C1265 C1262 1.387 1_556 S
C1266 C1267 1.387 . S
C1266 H1270 0.950 . S
C1266 C1275 1.390 . S
C1267 C1266 1.387 . S
C1267 C1269 1.387 1_554 S
H1268 C1275 0.950 . S
C1269 C1267 1.387 1_556 S
C1269 C1271 1.390 . S
C1269 H1273 0.950 . S
H1270 C1266 0.950 . S
C1271 C1269 1.390 . S
C1271 C1272 1.387 1_556 S
C1271 H1274 0.950 . S
C1272 C1271 1.387 1_554 S
C1272 C1275 1.387 . S
H1273 C1269 0.950 . S
H1274 C1271 0.950 . S
C1275 C1266 1.390 . S
C1275 H1268 0.950 . S
C1275 C1272 1.387 . S
C1276 C1277 1.387 . S
C1276 H1280 0.950 . S
C1276 C1285 1.390 . S
C1277 C1276 1.387 . S
C1277 C1279 1.387 . S
H1278 C1285 0.950 . S
C1279 C1277 1.387 . S
C1279 C1281 1.390 . S
C1279 H1283 0.950 . S
H1280 C1276 0.950 . S
C1281 C1279 1.390 . S
C1281 C1282 1.387 . S
C1281 H1284 0.950 . S
C1282 C1281 1.387 . S
C1282 C1285 1.387 . S
H1283 C1279 0.950 . S
H1284 C1281 0.950 . S
C1285 C1276 1.390 . S
C1285 H1278 0.950 . S
C1285 C1282 1.387 . S
C1286 C1287 1.387 . S
C1286 H1290 0.950 . S
C1286 C1295 1.390 . S
C1287 C1286 1.387 . S
C1287 C1289 1.387 . S
H1288 C1295 0.950 . S
C1289 C1287 1.387 . S
C1289 C1291 1.390 . S
C1289 H1293 0.950 . S
H1290 C1286 0.950 . S
C1291 C1289 1.390 . S
C1291 C1292 1.387 . S
C1291 H1294 0.950 . S
C1292 C1291 1.387 . S
C1292 C1295 1.387 . S
H1293 C1289 0.950 . S
H1294 C1291 0.950 . S
C1295 C1286 1.390 . S
C1295 H1288 0.950 . S
C1295 C1292 1.387 . S
C1296 C1297 1.387 . S
C1296 H1300 0.950 . S
C1296 C1305 1.390 . S
C1297 C1296 1.387 . S
C1297 C1299 1.387 . S
H1298 C1305 0.950 . S
C1299 C1297 1.387 . S
C1299 C1301 1.390 . S
C1299 H1303 0.950 . S
H1300 C1296 0.950 . S
C1301 C1299 1.390 . S
C1301 C1302 1.387 . S
C1301 H1304 0.950 . S
C1302 C1301 1.387 . S
C1302 C1305 1.387 . S
H1303 C1299 0.950 . S
H1304 C1301 0.950 . S
C1305 C1296 1.390 . S
C1305 H1298 0.950 . S
C1305 C1302 1.387 . S
C1306 C1307 1.387 . S
C1306 H1310 0.950 . S
C1306 C1315 1.390 . S
C1307 C1306 1.387 . S
C1307 C1309 1.387 . S
H1308 C1315 0.950 . S
C1309 C1307 1.387 . S
C1309 C1311 1.390 . S
C1309 H1313 0.950 . S
H1310 C1306 0.950 . S
C1311 C1309 1.390 . S
C1311 C1312 1.387 . S
C1311 H1314 0.950 . S
C1312 C1311 1.387 . S
C1312 C1315 1.387 . S
H1313 C1309 0.950 . S
H1314 C1311 0.950 . S
C1315 C1306 1.390 . S
C1315 H1308 0.950 . S
C1315 C1312 1.387 . S
C1316 C1317 1.387 . S
C1316 H1320 0.950 . S
C1316 C1325 1.390 . S
C1317 C1316 1.387 . S
C1317 C1319 1.387 . S
H1318 C1325 0.950 . S
C1319 C1317 1.387 . S
C1319 C1321 1.390 . S
C1319 H1323 0.950 . S
H1320 C1316 0.950 . S
C1321 C1319 1.390 . S
C1321 C1322 1.387 . S
C1321 H1324 0.950 . S
C1322 C1321 1.387 . S
C1322 C1325 1.387 . S
H1323 C1319 0.950 . S
H1324 C1321 0.950 . S
C1325 C1316 1.390 . S
C1325 H1318 0.950 . S
C1325 C1322 1.387 . S
C1326 C1327 1.387 . S
C1326 H1330 0.950 . S
C1326 C1335 1.390 . S
C1327 C1326 1.387 . S
C1327 C1329 1.387 . S
H1328 C1335 0.950 . S
C1329 C1327 1.387 . S
C1329 C1331 1.390 . S
C1329 H1333 0.950 . S
H1330 C1326 0.950 . S
C1331 C1329 1.390 . S
C1331 C1332 1.387 . S
C1331 H1334 0.950 . S
C1332 C1331 1.387 . S
C1332 C1335 1.387 . S
H1333 C1329 0.950 . S
H1334 C1331 0.950 . S
C1335 C1326 1.390 . S
C1335 H1328 0.950 . S
C1335 C1332 1.387 . S
C1336 C1337 1.387 . S
C1336 H1340 0.950 . S
C1336 C1345 1.390 . S
C1337 C1336 1.387 . S
C1337 C1339 1.387 . S
H1338 C1345 0.950 . S
C1339 C1337 1.387 . S
C1339 C1341 1.390 . S
C1339 H1343 0.950 . S
H1340 C1336 0.950 . S
C1341 C1339 1.390 . S
C1341 C1342 1.387 . S
C1341 H1344 0.950 . S
C1342 C1341 1.387 . S
C1342 C1345 1.387 . S
H1343 C1339 0.950 . S
H1344 C1341 0.950 . S
C1345 C1336 1.390 . S
C1345 H1338 0.950 . S
C1345 C1342 1.387 . S
C1346 C1347 1.387 . S
C1346 H1350 0.950 . S
C1346 C1355 1.390 . S
C1347 C1346 1.387 . S
C1347 C1349 1.387 . S
H1348 C1355 0.950 . S
C1349 C1347 1.387 . S
C1349 C1351 1.390 . S
C1349 H1353 0.950 . S
H1350 C1346 0.950 . S
C1351 C1349 1.390 . S
C1351 C1352 1.387 . S
C1351 H1354 0.950 . S
C1352 C1351 1.387 . S
C1352 C1355 1.387 . S
H1353 C1349 0.950 . S
H1354 C1351 0.950 . S
C1355 C1346 1.390 . S
C1355 H1348 0.950 . S
C1355 C1352 1.387 . S
C1356 C1357 1.387 . S
C1356 H1360 0.950 . S
C1356 C1365 1.390 . S
C1357 C1356 1.387 . S
C1357 C1359 1.387 . S
H1358 C1365 0.950 . S
C1359 C1357 1.387 . S
C1359 C1361 1.390 . S
C1359 H1363 0.950 . S
H1360 C1356 0.950 . S
C1361 C1359 1.390 . S
C1361 C1362 1.387 . S
C1361 H1364 0.950 . S
C1362 C1361 1.387 . S
C1362 C1365 1.387 . S
H1363 C1359 0.950 . S
H1364 C1361 0.950 . S
C1365 C1356 1.390 . S
C1365 H1358 0.950 . S
C1365 C1362 1.387 . S
C1366 C1367 1.387 . S
C1366 H1370 0.950 . S
C1366 C1375 1.390 . S
C1367 C1366 1.387 . S
C1367 C1369 1.387 . S
H1368 C1375 0.950 . S
C1369 C1367 1.387 . S
C1369 C1371 1.390 . S
C1369 H1373 0.950 . S
H1370 C1366 0.950 . S
C1371 C1369 1.390 . S
C1371 C1372 1.387 . S
C1371 H1374 0.950 . S
C1372 C1371 1.387 . S
C1372 C1375 1.387 . S
H1373 C1369 0.950 . S
H1374 C1371 0.950 . S
C1375 C1366 1.390 . S
C1375 H1368 0.950 . S
C1375 C1372 1.387 . S
C1376 C1377 1.387 1_556 S
C1376 H1380 0.950 . S
C1376 C1385 1.390 1_556 S
C1377 C1376 1.387 1_554 S
C1377 C1379 1.387 . S
H1378 C1385 0.950 1_556 S
C1379 C1377 1.387 . S
C1379 C1381 1.390 . S
C1379 H1383 0.950 . S
H1380 C1376 0.950 . S
C1381 C1379 1.390 . S
C1381 C1382 1.387 . S
C1381 H1384 0.950 . S
C1382 C1381 1.387 . S
C1382 C1385 1.387 . S
H1383 C1379 0.950 . S
H1384 C1381 0.950 . S
C1385 C1376 1.390 1_554 S
C1385 H1378 0.950 1_554 S
C1385 C1382 1.387 . S
C1386 C1387 1.387 . S
C1386 H1390 0.950 . S
C1386 C1395 1.390 . S
C1387 C1386 1.387 . S
C1387 C1389 1.387 . S
H1388 C1395 0.950 . S
C1389 C1387 1.387 . S
C1389 C1391 1.390 1_554 S
C1389 H1393 0.950 1_554 S
H1390 C1386 0.950 . S
C1391 C1389 1.390 1_556 S
C1391 C1392 1.387 1_556 S
C1391 H1394 0.950 . S
C1392 C1391 1.387 1_554 S
C1392 C1395 1.387 . S
H1393 C1389 0.950 1_556 S
H1394 C1391 0.950 . S
C1395 C1386 1.390 . S
C1395 H1388 0.950 . S
C1395 C1392 1.387 . S
C1396 C1397 1.387 . S
C1396 H1400 0.950 . S
C1396 C1405 1.390 . S
C1397 C1396 1.387 . S
C1397 C1399 1.387 . S
H1398 C1405 0.950 . S
C1399 C1397 1.387 . S
C1399 C1401 1.390 . S
C1399 H1403 0.950 . S
H1400 C1396 0.950 . S
C1401 C1399 1.390 . S
C1401 C1402 1.387 . S
C1401 H1404 0.950 . S
C1402 C1401 1.387 . S
C1402 C1405 1.387 . S
H1403 C1399 0.950 . S
H1404 C1401 0.950 . S
C1405 C1396 1.390 . S
C1405 H1398 0.950 . S
C1405 C1402 1.387 . S
C1406 C1407 1.387 . S
C1406 H1410 0.950 . S
C1406 C1415 1.390 . S
C1407 C1406 1.387 . S
C1407 C1409 1.387 . S
H1408 C1415 0.950 . S
C1409 C1407 1.387 . S
C1409 C1411 1.390 . S
C1409 H1413 0.950 . S
H1410 C1406 0.950 . S
C1411 C1409 1.390 . S
C1411 C1412 1.387 . S
C1411 H1414 0.950 . S
C1412 C1411 1.387 . S
C1412 C1415 1.387 . S
H1413 C1409 0.950 . S
H1414 C1411 0.950 . S
C1415 C1406 1.390 . S
C1415 H1408 0.950 . S
C1415 C1412 1.387 . S
C1416 C1417 1.387 . S
C1416 H1420 0.950 . S
C1416 C1425 1.390 . S
C1417 C1416 1.387 . S
C1417 C1419 1.387 1_556 S
H1418 C1425 0.950 . S
C1419 C1417 1.387 1_554 S
C1419 C1421 1.390 1_554 S
C1419 H1423 0.950 . S
H1420 C1416 0.950 . S
C1421 C1419 1.390 1_556 S
C1421 C1422 1.387 . S
C1421 H1424 0.950 . S
C1422 C1421 1.387 . S
C1422 C1425 1.387 . S
H1423 C1419 0.950 . S
H1424 C1421 0.950 . S
C1425 C1416 1.390 . S
C1425 H1418 0.950 . S
C1425 C1422 1.387 . S
C1426 C1427 1.387 1_554 S
C1426 H1430 0.950 . S
C1426 C1435 1.390 1_554 S
C1427 C1426 1.387 1_556 S
C1427 C1429 1.387 . S
H1428 C1435 0.950 1_554 S
C1429 C1427 1.387 . S
C1429 C1431 1.390 . S
C1429 H1433 0.950 . S
H1430 C1426 0.950 . S
C1431 C1429 1.390 . S
C1431 C1432 1.387 . S
C1431 H1434 0.950 . S
C1432 C1431 1.387 . S
C1432 C1435 1.387 . S
H1433 C1429 0.950 . S
H1434 C1431 0.950 . S
C1435 C1426 1.390 1_556 S
C1435 H1428 0.950 1_556 S
C1435 C1432 1.387 . S
C1436 C1437 1.387 . S
C1436 H1440 0.950 . S
C1436 C1445 1.390 . S
C1437 C1436 1.387 . S
C1437 C1439 1.387 . S
H1438 C1445 0.950 . S
C1439 C1437 1.387 . S
C1439 C1441 1.390 . S
C1439 H1443 0.950 . S
H1440 C1436 0.950 . S
C1441 C1439 1.390 . S
C1441 C1442 1.387 . S
C1441 H1444 0.950 . S
C1442 C1441 1.387 . S
C1442 C1445 1.387 . S
H1443 C1439 0.950 . S
H1444 C1441 0.950 . S
C1445 C1436 1.390 . S
C1445 H1438 0.950 . S
C1445 C1442 1.387 . S
C1446 C1447 1.387 . S
C1446 H1450 0.950 . S
C1446 C1455 1.390 . S
C1447 C1446 1.387 . S
C1447 C1449 1.387 . S
H1448 C1455 0.950 . S
C1449 C1447 1.387 . S
C1449 C1451 1.390 . S
C1449 H1453 0.950 . S
H1450 C1446 0.950 . S
C1451 C1449 1.390 . S
C1451 C1452 1.387 . S
C1451 H1454 0.950 . S
C1452 C1451 1.387 . S
C1452 C1455 1.387 . S
H1453 C1449 0.950 . S
H1454 C1451 0.950 . S
C1455 C1446 1.390 . S
C1455 H1448 0.950 . S
C1455 C1452 1.387 . S
C1456 C1457 1.387 . S
C1456 H1460 0.950 . S
C1456 C1465 1.390 . S
C1457 C1456 1.387 . S
C1457 C1459 1.387 . S
H1458 C1465 0.950 . S
C1459 C1457 1.387 . S
C1459 C1461 1.390 . S
C1459 H1463 0.950 . S
H1460 C1456 0.950 . S
C1461 C1459 1.390 . S
C1461 C1462 1.387 . S
C1461 H1464 0.950 . S
C1462 C1461 1.387 . S
C1462 C1465 1.387 . S
H1463 C1459 0.950 . S
H1464 C1461 0.950 . S
C1465 C1456 1.390 . S
C1465 H1458 0.950 . S
C1465 C1462 1.387 . S
C1466 C1467 1.387 . S
C1466 H1470 0.950 . S
C1466 C1475 1.390 . S
C1467 C1466 1.387 . S
C1467 C1469 1.387 . S
H1468 C1475 0.950 . S
C1469 C1467 1.387 . S
C1469 C1471 1.390 . S
C1469 H1473 0.950 . S
H1470 C1466 0.950 . S
C1471 C1469 1.390 . S
C1471 C1472 1.387 . S
C1471 H1474 0.950 . S
C1472 C1471 1.387 . S
C1472 C1475 1.387 . S
H1473 C1469 0.950 . S
H1474 C1471 0.950 . S
C1475 C1466 1.390 . S
C1475 H1468 0.950 . S
C1475 C1472 1.387 . S
C1476 C1477 1.387 . S
C1476 H1480 0.950 . S
C1476 C1485 1.390 . S
C1477 C1476 1.387 . S
C1477 C1479 1.387 . S
H1478 C1485 0.950 . S
C1479 C1477 1.387 . S
C1479 C1481 1.390 . S
C1479 H1483 0.950 . S
H1480 C1476 0.950 . S
C1481 C1479 1.390 . S
C1481 C1482 1.387 . S
C1481 H1484 0.950 . S
C1482 C1481 1.387 . S
C1482 C1485 1.387 . S
H1483 C1479 0.950 . S
H1484 C1481 0.950 . S
C1485 C1476 1.390 . S
C1485 H1478 0.950 . S
C1485 C1482 1.387 . S
C1486 C1487 1.387 . S
C1486 H1490 0.950 1_565 S
C1486 C1495 1.390 . S
C1487 C1486 1.387 . S
C1487 C1489 1.387 . S
H1488 C1495 0.950 . S
C1489 C1487 1.387 . S
C1489 C1491 1.390 . S
C1489 H1493 0.950 . S
H1490 C1486 0.950 1_545 S
C1491 C1489 1.390 . S
C1491 C1492 1.387 . S
C1491 H1494 0.950 . S
C1492 C1491 1.387 . S
C1492 C1495 1.387 . S
H1493 C1489 0.950 . S
H1494 C1491 0.950 . S
C1495 C1486 1.390 . S
C1495 H1488 0.950 . S
C1495 C1492 1.387 . S
C1496 C1497 1.387 . S
C1496 H1500 0.950 . S
C1496 C1505 1.390 . S
C1497 C1496 1.387 . S
C1497 C1499 1.387 . S
H1498 C1505 0.950 . S
C1499 C1497 1.387 . S
C1499 C1501 1.390 . S
C1499 H1503 0.950 1_545 S
H1500 C1496 0.950 . S
C1501 C1499 1.390 . S
C1501 C1502 1.387 . S
C1501 H1504 0.950 . S
C1502 C1501 1.387 . S
C1502 C1505 1.387 . S
H1503 C1499 0.950 1_565 S
H1504 C1501 0.950 . S
C1505 C1496 1.390 . S
C1505 H1498 0.950 . S
C1505 C1502 1.387 . S
C1506 C1507 1.387 . S
C1506 H1510 0.950 . S
C1506 C1515 1.390 . S
C1507 C1506 1.387 . S
C1507 C1509 1.387 . S
H1508 C1515 0.950 . S
C1509 C1507 1.387 . S
C1509 C1511 1.390 . S
C1509 H1513 0.950 . S
H1510 C1506 0.950 . S
C1511 C1509 1.390 . S
C1511 C1512 1.387 . S
C1511 H1514 0.950 . S
C1512 C1511 1.387 . S
C1512 C1515 1.387 . S
H1513 C1509 0.950 . S
H1514 C1511 0.950 . S
C1515 C1506 1.390 . S
C1515 H1508 0.950 . S
C1515 C1512 1.387 . S
C1516 C1517 1.387 . S
C1516 H1520 0.950 . S
C1516 C1525 1.390 . S
C1517 C1516 1.387 . S
C1517 C1519 1.387 . S
H1518 C1525 0.950 . S
C1519 C1517 1.387 . S
C1519 C1521 1.390 . S
C1519 H1523 0.950 . S
H1520 C1516 0.950 . S
C1521 C1519 1.390 . S
C1521 C1522 1.387 . S
C1521 H1524 0.950 . S
C1522 C1521 1.387 . S
C1522 C1525 1.387 . S
H1523 C1519 0.950 . S
H1524 C1521 0.950 . S
C1525 C1516 1.390 . S
C1525 H1518 0.950 . S
C1525 C1522 1.387 . S
C1526 C1527 1.387 . S
C1526 H1530 0.950 . S
C1526 C1535 1.390 . S
C1527 C1526 1.387 . S
C1527 C1529 1.387 . S
H1528 C1535 0.950 . S
C1529 C1527 1.387 . S
C1529 C1531 1.390 . S
C1529 H1533 0.950 . S
H1530 C1526 0.950 . S
C1531 C1529 1.390 . S
C1531 C1532 1.387 . S
C1531 H1534 0.950 . S
C1532 C1531 1.387 . S
C1532 C1535 1.387 . S
H1533 C1529 0.950 . S
H1534 C1531 0.950 . S
C1535 C1526 1.390 . S
C1535 H1528 0.950 . S
C1535 C1532 1.387 . S
C1536 C1537 1.387 . S
C1536 H1540 0.950 . S
C1536 C1545 1.390 . S
C1537 C1536 1.387 . S
C1537 C1539 1.387 . S
H1538 C1545 0.950 . S
C1539 C1537 1.387 . S
C1539 C1541 1.390 . S
C1539 H1543 0.950 . S
H1540 C1536 0.950 . S
C1541 C1539 1.390 . S
C1541 C1542 1.387 . S
C1541 H1544 0.950 . S
C1542 C1541 1.387 . S
C1542 C1545 1.387 . S
H1543 C1539 0.950 . S
H1544 C1541 0.950 . S
C1545 C1536 1.390 . S
C1545 H1538 0.950 . S
C1545 C1542 1.387 . S
C1546 C1547 1.387 . S
C1546 H1550 0.950 . S
C1546 C1555 1.390 . S
C1547 C1546 1.387 . S
C1547 C1549 1.387 . S
H1548 C1555 0.950 . S
C1549 C1547 1.387 . S
C1549 C1551 1.390 . S
C1549 H1553 0.950 . S
H1550 C1546 0.950 . S
C1551 C1549 1.390 . S
C1551 C1552 1.387 . S
C1551 H1554 0.950 . S
C1552 C1551 1.387 . S
C1552 C1555 1.387 . S
H1553 C1549 0.950 . S
H1554 C1551 0.950 . S
C1555 C1546 1.390 . S
C1555 H1548 0.950 . S
C1555 C1552 1.387 . S
C1556 C1557 1.387 . S
C1556 H1560 0.950 . S
C1556 C1565 1.390 . S
C1557 C1556 1.387 . S
C1557 C1559 1.387 . S
H1558 C1565 0.950 . S
C1559 C1557 1.387 . S
C1559 C1561 1.390 . S
C1559 H1563 0.950 . S
H1560 C1556 0.950 . S
C1561 C1559 1.390 . S
C1561 C1562 1.387 . S
C1561 H1564 0.950 . S
C1562 C1561 1.387 . S
C1562 C1565 1.387 . S
H1563 C1559 0.950 . S
H1564 C1561 0.950 . S
C1565 C1556 1.390 . S
C1565 H1558 0.950 . S
C1565 C1562 1.387 . S
C1566 C1567 1.387 . S
C1566 H1570 0.950 . S
C1566 C1575 1.390 . S
C1567 C1566 1.387 . S
C1567 C1569 1.387 . S
H1568 C1575 0.950 . S
C1569 C1567 1.387 . S
C1569 C1571 1.390 . S
C1569 H1573 0.950 . S
H1570 C1566 0.950 . S
C1571 C1569 1.390 . S
C1571 C1572 1.387 . S
C1571 H1574 0.950 . S
C1572 C1571 1.387 . S
C1572 C1575 1.387 . S
H1573 C1569 0.950 . S
H1574 C1571 0.950 . S
C1575 C1566 1.390 . S
C1575 H1568 0.950 . S
C1575 C1572 1.387 . S
C1576 C1577 1.387 . S
C1576 H1580 0.950 . S
C1576 C1585 1.390 . S
C1577 C1576 1.387 . S
C1577 C1579 1.387 . S
H1578 C1585 0.950 . S
C1579 C1577 1.387 . S
C1579 C1581 1.390 . S
C1579 H1583 0.950 . S
H1580 C1576 0.950 . S
C1581 C1579 1.390 . S
C1581 C1582 1.387 . S
C1581 H1584 0.950 . S
C1582 C1581 1.387 . S
C1582 C1585 1.387 . S
H1583 C1579 0.950 . S
H1584 C1581 0.950 . S
C1585 C1576 1.390 . S
C1585 H1578 0.950 . S
C1585 C1582 1.387 . S
C1586 C1587 1.387 . S
C1586 H1590 0.950 . S
C1586 C1595 1.390 . S
C1587 C1586 1.387 . S
C1587 C1589 1.387 . S
H1588 C1595 0.950 . S
C1589 C1587 1.387 . S
C1589 C1591 1.390 . S
C1589 H1593 0.950 . S
H1590 C1586 0.950 . S
C1591 C1589 1.390 . S
C1591 C1592 1.387 . S
C1591 H1594 0.950 . S
C1592 C1591 1.387 . S
C1592 C1595 1.387 . S
H1593 C1589 0.950 . S
H1594 C1591 0.950 . S
C1595 C1586 1.390 . S
C1595 H1588 0.950 . S
C1595 C1592 1.387 . S
C1596 C1597 1.387 . S
C1596 H1600 0.950 . S
C1596 C1605 1.390 . S
C1597 C1596 1.387 . S
C1597 C1599 1.387 . S
H1598 C1605 0.950 . S
C1599 C1597 1.387 . S
C1599 C1601 1.390 . S
C1599 H1603 0.950 . S
H1600 C1596 0.950 . S
C1601 C1599 1.390 . S
C1601 C1602 1.387 . S
C1601 H1604 0.950 . S
C1602 C1601 1.387 . S
C1602 C1605 1.387 . S
H1603 C1599 0.950 . S
H1604 C1601 0.950 . S
C1605 C1596 1.390 . S
C1605 H1598 0.950 . S
C1605 C1602 1.387 . S
C1606 C1607 1.387 . S
C1606 H1610 0.950 . S
C1606 C1615 1.390 . S
C1607 C1606 1.387 . S
C1607 C1609 1.387 . S
H1608 C1615 0.950 . S
C1609 C1607 1.387 . S
C1609 C1611 1.390 . S
C1609 H1613 0.950 . S
H1610 C1606 0.950 . S
C1611 C1609 1.390 . S
C1611 C1612 1.387 . S
C1611 H1614 0.950 . S
C1612 C1611 1.387 . S
C1612 C1615 1.387 . S
H1613 C1609 0.950 . S
H1614 C1611 0.950 . S
C1615 C1606 1.390 . S
C1615 H1608 0.950 . S
C1615 C1612 1.387 . S
C1616 C1617 1.387 . S
C1616 H1620 0.950 . S
C1616 C1625 1.390 . S
C1617 C1616 1.387 . S
C1617 C1619 1.387 1_554 S
H1618 C1625 0.950 . S
C1619 C1617 1.387 1_556 S
C1619 C1621 1.390 1_556 S
C1619 H1623 0.948 . S
H1620 C1616 0.950 . S
C1621 C1619 1.390 1_554 S
C1621 C1622 1.387 . S
C1621 H1624 0.950 . S
C1622 C1621 1.387 . S
C1622 C1625 1.387 . S
H1623 C1619 0.948 . S
H1624 C1621 0.950 . S
C1625 C1616 1.390 . S
C1625 H1618 0.950 . S
C1625 C1622 1.387 . S
C1626 C1627 1.387 1_556 S
C1626 H1630 0.950 . S
C1626 C1635 1.390 . S
C1627 C1626 1.387 1_554 S
C1627 C1629 1.387 . S
H1628 C1635 0.950 . S
C1629 C1627 1.387 . S
C1629 C1631 1.390 . S
C1629 H1633 0.950 . S
H1630 C1626 0.950 . S
C1631 C1629 1.390 . S
C1631 C1632 1.387 . S
C1631 H1634 0.950 . S
C1632 C1631 1.387 . S
C1632 C1635 1.387 1_554 S
H1633 C1629 0.950 . S
H1634 C1631 0.950 . S
C1635 C1626 1.390 . S
C1635 H1628 0.950 . S
C1635 C1632 1.387 1_556 S
C1636 C1637 1.387 . S
C1636 H1640 0.950 . S
C1636 C1645 1.390 . S
C1637 C1636 1.387 . S
C1637 C1639 1.387 . S
H1638 C1645 0.950 . S
C1639 C1637 1.387 . S
C1639 C1641 1.390 . S
C1639 H1643 0.950 . S
H1640 C1636 0.950 . S
C1641 C1639 1.390 . S
C1641 C1642 1.387 . S
C1641 H1644 0.950 . S
C1642 C1641 1.387 . S
C1642 C1645 1.387 . S
H1643 C1639 0.950 . S
H1644 C1641 0.950 . S
C1645 C1636 1.390 . S
C1645 H1638 0.950 . S
C1645 C1642 1.387 . S
C1646 C1647 1.387 . S
C1646 H1650 0.950 . S
C1646 C1655 1.390 . S
C1647 C1646 1.387 . S
C1647 C1649 1.387 . S
H1648 C1655 0.950 . S
C1649 C1647 1.387 . S
C1649 C1651 1.390 . S
C1649 H1653 0.950 . S
H1650 C1646 0.950 . S
C1651 C1649 1.390 . S
C1651 C1652 1.387 . S
C1651 H1654 0.950 . S
C1652 C1651 1.387 . S
C1652 C1655 1.387 . S
H1653 C1649 0.950 . S
H1654 C1651 0.950 . S
C1655 C1646 1.390 . S
C1655 H1648 0.950 . S
C1655 C1652 1.387 . S
C1656 C1657 1.387 . S
C1656 H1660 0.950 . S
C1656 C1665 1.390 . S
C1657 C1656 1.387 . S
C1657 C1659 1.387 . S
H1658 C1665 0.950 . S
C1659 C1657 1.387 . S
C1659 C1661 1.390 1_556 S
C1659 H1663 0.950 1_556 S
H1660 C1656 0.950 . S
C1661 C1659 1.390 1_554 S
C1661 C1662 1.387 1_554 S
C1661 H1664 0.950 . S
C1662 C1661 1.387 1_556 S
C1662 C1665 1.387 . S
H1663 C1659 0.950 1_554 S
H1664 C1661 0.950 . S
C1665 C1656 1.390 . S
C1665 H1658 0.950 . S
C1665 C1662 1.387 . S
C1666 C1667 1.387 . S
C1666 H1670 0.950 . S
C1666 C1675 1.390 . S
C1667 C1666 1.387 . S
C1667 C1669 1.387 1_556 S
H1668 C1675 0.950 . S
C1669 C1667 1.387 1_554 S
C1669 C1671 1.390 . S
C1669 H1673 0.950 . S
H1670 C1666 0.950 . S
C1671 C1669 1.390 . S
C1671 C1672 1.387 1_554 S
C1671 H1674 0.950 . S
C1672 C1671 1.387 1_556 S
C1672 C1675 1.387 . S
H1673 C1669 0.950 . S
H1674 C1671 0.950 . S
C1675 C1666 1.390 . S
C1675 H1668 0.950 . S
C1675 C1672 1.387 . S
C1676 C1677 1.387 . S
C1676 H1680 0.950 . S
C1676 C1685 1.390 . S
C1677 C1676 1.387 . S
C1677 C1679 1.387 . S
H1678 C1685 0.950 . S
C1679 C1677 1.387 . S
C1679 C1681 1.390 . S
C1679 H1683 0.950 . S
H1680 C1676 0.950 . S
C1681 C1679 1.390 . S
C1681 C1682 1.387 . S
C1681 H1684 0.950 . S
C1682 C1681 1.387 . S
C1682 C1685 1.387 . S
H1683 C1679 0.950 . S
H1684 C1681 0.950 . S
C1685 C1676 1.390 . S
C1685 H1678 0.950 . S
C1685 C1682 1.387 . S
C1686 C1687 1.387 . S
C1686 H1690 0.950 . S
C1686 C1695 1.390 . S
C1687 C1686 1.387 . S
C1687 C1689 1.387 . S
H1688 C1695 0.950 . S
C1689 C1687 1.387 . S
C1689 C1691 1.390 . S
C1689 H1693 0.950 . S
H1690 C1686 0.950 . S
C1691 C1689 1.390 . S
C1691 C1692 1.387 . S
C1691 H1694 0.950 1_545 S
C1692 C1691 1.387 . S
C1692 C1695 1.387 . S
H1693 C1689 0.950 . S
H1694 C1691 0.950 1_565 S
C1695 C1686 1.390 . S
C1695 H1688 0.950 . S
C1695 C1692 1.387 . S
C1696 C1697 1.387 1_455 S
C1696 H1700 0.950 . S
C1696 C1705 1.390 . S
C1697 C1696 1.387 1_655 S
C1697 C1699 1.387 . S
H1698 C1705 0.950 . S
C1699 C1697 1.387 . S
C1699 C1701 1.390 . S
C1699 H1703 0.950 . S
H1700 C1696 0.950 . S
C1701 C1699 1.390 . S
C1701 C1702 1.387 . S
C1701 H1704 0.950 . S
C1702 C1701 1.387 . S
C1702 C1705 1.387 1_655 S
H1703 C1699 0.950 . S
H1704 C1701 0.950 . S
C1705 C1696 1.390 . S
C1705 H1698 0.950 . S
C1705 C1702 1.387 1_455 S
C1706 C1707 1.387 . S
C1706 H1710 0.950 . S
C1706 C1715 1.390 . S
C1707 C1706 1.387 . S
C1707 C1709 1.387 . S
H1708 C1715 0.950 . S
C1709 C1707 1.387 . S
C1709 C1711 1.390 . S
C1709 H1713 0.950 . S
H1710 C1706 0.950 . S
C1711 C1709 1.390 . S
C1711 C1712 1.387 . S
C1711 H1714 0.950 . S
C1712 C1711 1.387 . S
C1712 C1715 1.387 . S
H1713 C1709 0.950 . S
H1714 C1711 0.950 . S
C1715 C1706 1.390 . S
C1715 H1708 0.950 . S
C1715 C1712 1.387 . S
C1716 C1717 1.387 1_455 S
C1716 H1720 0.950 . S
C1716 C1725 1.390 . S
C1717 C1716 1.387 1_655 S
C1717 C1719 1.387 . S
H1718 C1725 0.950 . S
C1719 C1717 1.387 . S
C1719 C1721 1.390 . S
C1719 H1723 0.950 . S
H1720 C1716 0.950 . S
C1721 C1719 1.390 . S
C1721 C1722 1.387 . S
C1721 H1724 0.950 . S
C1722 C1721 1.387 . S
C1722 C1725 1.387 1_655 S
H1723 C1719 0.950 . S
H1724 C1721 0.950 . S
C1725 C1716 1.390 . S
C1725 H1718 0.950 . S
C1725 C1722 1.387 1_455 S
C1726 C1727 1.387 . S
C1726 H1730 0.950 . S
C1726 C1735 1.390 . S
C1727 C1726 1.387 . S
C1727 C1729 1.387 . S
H1728 C1735 0.950 . S
C1729 C1727 1.387 . S
C1729 C1731 1.390 . S
C1729 H1733 0.950 . S
H1730 C1726 0.950 . S
C1731 C1729 1.390 . S
C1731 C1732 1.387 . S
C1731 H1734 0.950 . S
C1732 C1731 1.387 . S
C1732 C1735 1.387 . S
H1733 C1729 0.950 . S
H1734 C1731 0.950 . S
C1735 C1726 1.390 . S
C1735 H1728 0.950 . S
C1735 C1732 1.387 . S
C1736 C1737 1.387 1_655 S
C1736 H1740 0.950 . S
C1736 C1745 1.390 . S
C1737 C1736 1.387 1_455 S
C1737 C1739 1.387 . S
H1738 C1745 0.950 . S
C1739 C1737 1.387 . S
C1739 C1741 1.390 . S
C1739 H1743 0.950 . S
H1740 C1736 0.950 . S
C1741 C1739 1.390 . S
C1741 C1742 1.387 . S
C1741 H1744 0.950 . S
C1742 C1741 1.387 . S
C1742 C1745 1.387 1_455 S
H1743 C1739 0.950 . S
H1744 C1741 0.950 . S
C1745 C1736 1.390 . S
C1745 H1738 0.950 . S
C1745 C1742 1.387 1_655 S
C1746 C1747 1.387 . S
C1746 H1750 0.950 . S
C1746 C1755 1.390 . S
C1747 C1746 1.387 . S
C1747 C1749 1.387 . S
H1748 C1755 0.950 . S
C1749 C1747 1.387 . S
C1749 C1751 1.390 . S
C1749 H1753 0.950 . S
H1750 C1746 0.950 . S
C1751 C1749 1.390 . S
C1751 C1752 1.387 . S
C1751 H1754 0.950 . S
C1752 C1751 1.387 . S
C1752 C1755 1.387 . S
H1753 C1749 0.950 . S
H1754 C1751 0.950 . S
C1755 C1746 1.390 . S
C1755 H1748 0.950 . S
C1755 C1752 1.387 . S
C1756 C1757 1.387 1_655 S
C1756 H1760 0.950 . S
C1756 C1765 1.390 . S
C1757 C1756 1.387 1_455 S
C1757 C1759 1.387 . S
H1758 C1765 0.950 . S
C1759 C1757 1.387 . S
C1759 C1761 1.390 . S
C1759 H1763 0.950 . S
H1760 C1756 0.950 . S
C1761 C1759 1.390 . S
C1761 C1762 1.387 . S
C1761 H1764 0.950 . S
C1762 C1761 1.387 . S
C1762 C1765 1.387 1_455 S
H1763 C1759 0.950 . S
H1764 C1761 0.950 . S
C1765 C1756 1.390 . S
C1765 H1758 0.950 . S
C1765 C1762 1.387 1_655 S
C1766 C1767 1.387 . S
C1766 H1770 0.950 . S
C1766 C1775 1.390 . S
C1767 C1766 1.387 . S
C1767 C1769 1.387 . S
H1768 C1775 0.950 . S
C1769 C1767 1.387 . S
C1769 C1771 1.390 . S
C1769 H1773 0.950 . S
H1770 C1766 0.950 . S
C1771 C1769 1.390 . S
C1771 C1772 1.387 . S
C1771 H1774 0.950 . S
C1772 C1771 1.387 . S
C1772 C1775 1.387 . S
H1773 C1769 0.950 . S
H1774 C1771 0.950 . S
C1775 C1766 1.390 . S
C1775 H1768 0.950 . S
C1775 C1772 1.387 . S
C1776 C1777 1.387 1_455 S
C1776 H1780 0.950 . S
C1776 C1785 1.390 . S
C1777 C1776 1.387 1_655 S
C1777 C1779 1.387 . S
H1778 C1785 0.950 . S
C1779 C1777 1.387 . S
C1779 C1781 1.390 . S
C1779 H1783 0.950 . S
H1780 C1776 0.950 . S
C1781 C1779 1.390 . S
C1781 C1782 1.387 . S
C1781 H1784 0.950 . S
C1782 C1781 1.387 . S
C1782 C1785 1.387 1_655 S
H1783 C1779 0.950 . S
H1784 C1781 0.950 . S
C1785 C1776 1.390 . S
C1785 H1778 0.950 . S
C1785 C1782 1.387 1_455 S
C1786 C1787 1.387 . S
C1786 H1790 0.950 . S
C1786 C1795 1.390 . S
C1787 C1786 1.387 . S
C1787 C1789 1.387 . S
H1788 C1795 0.950 . S
C1789 C1787 1.387 . S
C1789 C1791 1.390 . S
C1789 H1793 0.950 . S
H1790 C1786 0.950 . S
C1791 C1789 1.390 . S
C1791 C1792 1.387 . S
C1791 H1794 0.950 . S
C1792 C1791 1.387 . S
C1792 C1795 1.387 . S
H1793 C1789 0.950 . S
H1794 C1791 0.950 . S
C1795 C1786 1.390 . S
C1795 H1788 0.950 . S
C1795 C1792 1.387 . S
C1796 C1797 1.387 . S
C1796 H1800 0.950 . S
C1796 C1805 1.390 . S
C1797 C1796 1.387 . S
C1797 C1799 1.387 1_655 S
H1798 C1805 0.950 . S
C1799 C1797 1.387 1_455 S
C1799 C1801 1.390 . S
C1799 H1803 0.950 . S
H1800 C1796 0.950 . S
C1801 C1799 1.390 . S
C1801 C1802 1.387 1_455 S
C1801 H1804 0.950 . S
C1802 C1801 1.387 1_655 S
C1802 C1805 1.387 . S
H1803 C1799 0.950 . S
H1804 C1801 0.950 . S
C1805 C1796 1.390 . S
C1805 H1798 0.950 . S
C1805 C1802 1.387 . S
C1806 C1807 1.387 . S
C1806 H1810 0.950 . S
C1806 C1815 1.390 . S
C1807 C1806 1.387 . S
C1807 C1809 1.387 . S
H1808 C1815 0.950 . S
C1809 C1807 1.387 . S
C1809 C1811 1.390 . S
C1809 H1813 0.950 . S
H1810 C1806 0.950 . S
C1811 C1809 1.390 . S
C1811 C1812 1.387 . S
C1811 H1814 0.950 . S
C1812 C1811 1.387 . S
C1812 C1815 1.387 . S
H1813 C1809 0.950 . S
H1814 C1811 0.950 . S
C1815 C1806 1.390 . S
C1815 H1808 0.950 . S
C1815 C1812 1.387 . S
C1816 C1817 1.387 . S
C1816 H1820 0.950 . S
C1816 C1825 1.390 . S
C1817 C1816 1.387 . S
C1817 C1819 1.387 1_455 S
H1818 C1825 0.950 . S
C1819 C1817 1.387 1_655 S
C1819 C1821 1.390 . S
C1819 H1823 0.950 . S
H1820 C1816 0.950 . S
C1821 C1819 1.390 . S
C1821 C1822 1.387 1_655 S
C1821 H1824 0.950 . S
C1822 C1821 1.387 1_455 S
C1822 C1825 1.387 . S
H1823 C1819 0.950 . S
H1824 C1821 0.950 . S
C1825 C1816 1.390 . S
C1825 H1818 0.950 . S
C1825 C1822 1.387 . S
C1826 C1827 1.387 . S
C1826 H1830 0.950 . S
C1826 C1835 1.390 . S
C1827 C1826 1.387 . S
C1827 C1829 1.387 . S
H1828 C1835 0.950 . S
C1829 C1827 1.387 . S
C1829 C1831 1.390 . S
C1829 H1833 0.950 . S
H1830 C1826 0.950 . S
C1831 C1829 1.390 . S
C1831 C1832 1.387 . S
C1831 H1834 0.950 . S
C1832 C1831 1.387 . S
C1832 C1835 1.387 . S
H1833 C1829 0.950 . S
H1834 C1831 0.950 . S
C1835 C1826 1.390 . S
C1835 H1828 0.950 . S
C1835 C1832 1.387 . S
C1836 C1837 1.387 . S
C1836 H1840 0.950 . S
C1836 C1845 1.390 . S
C1837 C1836 1.387 . S
C1837 C1839 1.387 1_455 S
H1838 C1845 0.950 . S
C1839 C1837 1.387 1_655 S
C1839 C1841 1.390 . S
C1839 H1843 0.950 . S
H1840 C1836 0.950 . S
C1841 C1839 1.390 . S
C1841 C1842 1.387 1_655 S
C1841 H1844 0.950 . S
C1842 C1841 1.387 1_455 S
C1842 C1845 1.387 . S
H1843 C1839 0.950 . S
H1844 C1841 0.950 . S
C1845 C1836 1.390 . S
C1845 H1838 0.950 . S
C1845 C1842 1.387 . S
C1846 C1847 1.387 . S
C1846 H1850 0.950 . S
C1846 C1855 1.390 . S
C1847 C1846 1.387 . S
C1847 C1849 1.387 . S
H1848 C1855 0.950 . S
C1849 C1847 1.387 . S
C1849 C1851 1.390 . S
C1849 H1853 0.950 . S
H1850 C1846 0.950 . S
C1851 C1849 1.390 . S
C1851 C1852 1.387 . S
C1851 H1854 0.950 . S
C1852 C1851 1.387 . S
C1852 C1855 1.387 . S
H1853 C1849 0.950 . S
H1854 C1851 0.950 . S
C1855 C1846 1.390 . S
C1855 H1848 0.950 . S
C1855 C1852 1.387 . S
C1856 C1857 1.387 . S
C1856 H1860 0.950 . S
C1856 C1865 1.390 . S
C1857 C1856 1.387 . S
C1857 C1859 1.387 . S
H1858 C1865 0.950 . S
C1859 C1857 1.387 . S
C1859 C1861 1.390 . S
C1859 H1863 0.950 . S
H1860 C1856 0.950 . S
C1861 C1859 1.390 . S
C1861 C1862 1.387 . S
C1861 H1864 0.950 . S
C1862 C1861 1.387 . S
C1862 C1865 1.387 . S
H1863 C1859 0.950 . S
H1864 C1861 0.950 . S
C1865 C1856 1.390 . S
C1865 H1858 0.950 . S
C1865 C1862 1.387 . S
C1866 C1867 1.387 . S
C1866 H1870 0.950 . S
C1866 C1875 1.390 . S
C1867 C1866 1.387 . S
C1867 C1869 1.387 . S
H1868 C1875 0.950 . S
C1869 C1867 1.387 . S
C1869 C1871 1.390 . S
C1869 H1873 0.950 . S
H1870 C1866 0.950 . S
C1871 C1869 1.390 . S
C1871 C1872 1.387 . S
C1871 H1874 0.950 . S
C1872 C1871 1.387 . S
C1872 C1875 1.387 . S
H1873 C1869 0.950 . S
H1874 C1871 0.950 . S
C1875 C1866 1.390 . S
C1875 H1868 0.950 . S
C1875 C1872 1.387 . S
C1876 C1877 1.387 . S
C1876 H1880 0.950 . S
C1876 C1885 1.390 . S
C1877 C1876 1.387 . S
C1877 C1879 1.387 . S
H1878 C1885 0.950 . S
C1879 C1877 1.387 . S
C1879 C1881 1.390 . S
C1879 H1883 0.950 . S
H1880 C1876 0.950 . S
C1881 C1879 1.390 . S
C1881 C1882 1.387 . S
C1881 H1884 0.950 . S
C1882 C1881 1.387 . S
C1882 C1885 1.387 . S
H1883 C1879 0.950 . S
H1884 C1881 0.950 . S
C1885 C1876 1.390 . S
C1885 H1878 0.950 . S
C1885 C1882 1.387 . S
C1886 C1887 1.387 . S
C1886 H1890 0.950 . S
C1886 C1895 1.390 . S
C1887 C1886 1.387 . S
C1887 C1889 1.387 . S
H1888 C1895 0.950 . S
C1889 C1887 1.387 . S
C1889 C1891 1.390 . S
C1889 H1893 0.950 . S
H1890 C1886 0.950 . S
C1891 C1889 1.390 . S
C1891 C1892 1.387 . S
C1891 H1894 0.950 . S
C1892 C1891 1.387 . S
C1892 C1895 1.387 . S
H1893 C1889 0.950 . S
H1894 C1891 0.950 . S
C1895 C1886 1.390 . S
C1895 H1888 0.950 . S
C1895 C1892 1.387 . S
C1896 C1897 1.387 . S
C1896 H1900 0.950 . S
C1896 C1905 1.390 . S
C1897 C1896 1.387 . S
C1897 C1899 1.387 . S
H1898 C1905 0.950 . S
C1899 C1897 1.387 . S
C1899 C1901 1.390 . S
C1899 H1903 0.950 . S
H1900 C1896 0.950 . S
C1901 C1899 1.390 . S
C1901 C1902 1.387 . S
C1901 H1904 0.950 . S
C1902 C1901 1.387 . S
C1902 C1905 1.387 . S
H1903 C1899 0.950 . S
H1904 C1901 0.950 . S
C1905 C1896 1.390 . S
C1905 H1898 0.950 . S
C1905 C1902 1.387 . S
C1906 C1907 1.387 . S
C1906 H1910 0.950 . S
C1906 C1915 1.390 . S
C1907 C1906 1.387 . S
C1907 C1909 1.387 . S
H1908 C1915 0.950 . S
C1909 C1907 1.387 . S
C1909 C1911 1.390 . S
C1909 H1913 0.950 . S
H1910 C1906 0.950 . S
C1911 C1909 1.390 . S
C1911 C1912 1.387 . S
C1911 H1914 0.950 . S
C1912 C1911 1.387 . S
C1912 C1915 1.387 . S
H1913 C1909 0.950 . S
H1914 C1911 0.950 . S
C1915 C1906 1.390 . S
C1915 H1908 0.950 . S
C1915 C1912 1.387 . S
C1916 C1917 1.387 . S
C1916 H1920 0.950 . S
C1916 C1925 1.390 . S
C1917 C1916 1.387 . S
C1917 C1919 1.387 . S
H1918 C1925 0.950 . S
C1919 C1917 1.387 . S
C1919 C1921 1.390 . S
C1919 H1923 0.950 . S
H1920 C1916 0.950 . S
C1921 C1919 1.390 . S
C1921 C1922 1.387 . S
C1921 H1924 0.950 . S
C1922 C1921 1.387 . S
C1922 C1925 1.387 . S
H1923 C1919 0.950 . S
H1924 C1921 0.950 . S
C1925 C1916 1.390 . S
C1925 H1918 0.950 . S
C1925 C1922 1.387 . S
C1926 C1927 1.387 . S
C1926 H1930 0.950 . S
C1926 C1935 1.390 . S
C1927 C1926 1.387 . S
C1927 C1929 1.387 . S
H1928 C1935 0.950 . S
C1929 C1927 1.387 . S
C1929 C1931 1.390 . S
C1929 H1933 0.950 . S
H1930 C1926 0.950 . S
C1931 C1929 1.390 . S
C1931 C1932 1.387 . S
C1931 H1934 0.950 . S
C1932 C1931 1.387 . S
C1932 C1935 1.387 . S
H1933 C1929 0.950 . S
H1934 C1931 0.950 . S
C1935 C1926 1.390 . S
C1935 H1928 0.950 . S
C1935 C1932 1.387 . S
C1936 C1937 1.387 . S
C1936 H1940 0.950 . S
C1936 C1945 1.390 . S
C1937 C1936 1.387 . S
C1937 C1939 1.387 . S
H1938 C1945 0.950 . S
C1939 C1937 1.387 . S
C1939 C1941 1.390 . S
C1939 H1943 0.950 . S
H1940 C1936 0.950 . S
C1941 C1939 1.390 . S
C1941 C1942 1.387 . S
C1941 H1944 0.950 . S
C1942 C1941 1.387 . S
C1942 C1945 1.387 . S
H1943 C1939 0.950 . S
H1944 C1941 0.950 . S
C1945 C1936 1.390 . S
C1945 H1938 0.950 . S
C1945 C1942 1.387 . S
C1946 C1947 1.387 . S
C1946 H1950 0.950 . S
C1946 C1955 1.390 . S
C1947 C1946 1.387 . S
C1947 C1949 1.387 . S
H1948 C1955 0.950 . S
C1949 C1947 1.387 . S
C1949 C1951 1.390 . S
C1949 H1953 0.950 . S
H1950 C1946 0.950 . S
C1951 C1949 1.390 . S
C1951 C1952 1.387 . S
C1951 H1954 0.950 . S
C1952 C1951 1.387 . S
C1952 C1955 1.387 . S
H1953 C1949 0.950 . S
H1954 C1951 0.950 . S
C1955 C1946 1.390 . S
C1955 H1948 0.950 . S
C1955 C1952 1.387 . S
C1956 C1957 1.387 . S
C1956 H1960 0.950 . S
C1956 C1965 1.390 . S
C1957 C1956 1.387 . S
C1957 C1959 1.387 . S
H1958 C1965 0.950 . S
C1959 C1957 1.387 . S
C1959 C1961 1.390 . S
C1959 H1963 0.950 . S
H1960 C1956 0.950 . S
C1961 C1959 1.390 . S
C1961 C1962 1.387 . S
C1961 H1964 0.950 . S
C1962 C1961 1.387 . S
C1962 C1965 1.387 . S
H1963 C1959 0.950 . S
H1964 C1961 0.950 . S
C1965 C1956 1.390 . S
C1965 H1958 0.950 . S
C1965 C1962 1.387 . S
C1966 C1967 1.387 . S
C1966 H1970 0.950 . S
C1966 C1975 1.390 . S
C1967 C1966 1.387 . S
C1967 C1969 1.387 . S
H1968 C1975 0.950 . S
C1969 C1967 1.387 . S
C1969 C1971 1.390 . S
C1969 H1973 0.950 . S
H1970 C1966 0.950 . S
C1971 C1969 1.390 . S
C1971 C1972 1.387 . S
C1971 H1974 0.950 . S
C1972 C1971 1.387 . S
C1972 C1975 1.387 . S
H1973 C1969 0.950 . S
H1974 C1971 0.950 . S
C1975 C1966 1.390 . S
C1975 H1968 0.950 . S
C1975 C1972 1.387 . S
C1976 C1977 1.387 . S
C1976 H1980 0.950 . S
C1976 C1985 1.390 . S
C1977 C1976 1.387 . S
C1977 C1979 1.387 . S
H1978 C1985 0.950 . S
C1979 C1977 1.387 . S
C1979 C1981 1.390 . S
C1979 H1983 0.950 . S
H1980 C1976 0.950 . S
C1981 C1979 1.390 . S
C1981 C1982 1.387 . S
C1981 H1984 0.950 . S
C1982 C1981 1.387 . S
C1982 C1985 1.387 . S
H1983 C1979 0.950 . S
H1984 C1981 0.950 . S
C1985 C1976 1.390 . S
C1985 H1978 0.950 . S
C1985 C1982 1.387 . S
C1986 C1987 1.387 . S
C1986 H1990 0.950 . S
C1986 C1995 1.390 . S
C1987 C1986 1.387 . S
C1987 C1989 1.387 . S
H1988 C1995 0.950 . S
C1989 C1987 1.387 . S
C1989 C1991 1.390 . S
C1989 H1993 0.950 . S
H1990 C1986 0.950 . S
C1991 C1989 1.390 . S
C1991 C1992 1.387 . S
C1991 H1994 0.950 . S
C1992 C1991 1.387 . S
C1992 C1995 1.387 . S
H1993 C1989 0.950 . S
H1994 C1991 0.950 . S
C1995 C1986 1.390 . S
C1995 H1988 0.950 . S
C1995 C1992 1.387 . S
C1996 C1997 1.387 . S
C1996 H2000 0.950 . S
C1996 C2005 1.390 . S
C1997 C1996 1.387 . S
C1997 C1999 1.387 . S
H1998 C2005 0.950 . S
C1999 C1997 1.387 . S
C1999 C2001 1.390 . S
C1999 H2003 0.950 . S
H2000 C1996 0.950 . S
C2001 C1999 1.390 . S
C2001 C2002 1.387 . S
C2001 H2004 0.950 . S
C2002 C2001 1.387 . S
C2002 C2005 1.387 . S
H2003 C1999 0.950 . S
H2004 C2001 0.950 . S
C2005 C1996 1.390 . S
C2005 H1998 0.950 . S
C2005 C2002 1.387 . S
C2006 C2007 1.387 . S
C2006 H2010 0.950 . S
C2006 C2015 1.390 . S
C2007 C2006 1.387 . S
C2007 C2009 1.387 . S
H2008 C2015 0.950 . S
C2009 C2007 1.387 . S
C2009 C2011 1.390 . S
C2009 H2013 0.950 . S
H2010 C2006 0.950 . S
C2011 C2009 1.390 . S
C2011 C2012 1.387 . S
C2011 H2014 0.950 . S
C2012 C2011 1.387 . S
C2012 C2015 1.387 . S
H2013 C2009 0.950 . S
H2014 C2011 0.950 . S
C2015 C2006 1.390 . S
C2015 H2008 0.950 . S
C2015 C2012 1.387 . S
C2016 C2017 1.387 . S
C2016 H2020 0.950 . S
C2016 C2025 1.390 . S
C2017 C2016 1.387 . S
C2017 C2019 1.387 . S
H2018 C2025 0.950 . S
C2019 C2017 1.387 . S
C2019 C2021 1.390 . S
C2019 H2023 0.950 . S
H2020 C2016 0.950 . S
C2021 C2019 1.390 . S
C2021 C2022 1.387 . S
C2021 H2024 0.950 . S
C2022 C2021 1.387 . S
C2022 C2025 1.387 . S
H2023 C2019 0.950 . S
H2024 C2021 0.950 . S
C2025 C2016 1.390 . S
C2025 H2018 0.950 . S
C2025 C2022 1.387 . S
C2026 C2027 1.387 . S
C2026 H2030 0.950 . S
C2026 C2035 1.390 . S
C2027 C2026 1.387 . S
C2027 C2029 1.387 . S
H2028 C2035 0.950 . S
C2029 C2027 1.387 . S
C2029 C2031 1.390 . S
C2029 H2033 0.950 1_565 S
H2030 C2026 0.950 . S
C2031 C2029 1.390 . S
C2031 C2032 1.387 . S
C2031 H2034 0.950 1_565 S
C2032 C2031 1.387 . S
C2032 C2035 1.387 . S
H2033 C2029 0.950 1_545 S
H2034 C2031 0.950 1_545 S
C2035 C2026 1.390 . S
C2035 H2028 0.950 . S
C2035 C2032 1.387 . S
C2036 C2037 1.387 . S
C2036 H2040 0.950 . S
C2036 C2045 1.390 . S
C2037 C2036 1.387 . S
C2037 C2039 1.387 . S
H2038 C2045 0.950 . S
C2039 C2037 1.387 . S
C2039 C2041 1.390 . S
C2039 H2043 0.950 . S
H2040 C2036 0.950 . S
C2041 C2039 1.390 . S
C2041 C2042 1.387 . S
C2041 H2044 0.950 . S
C2042 C2041 1.387 . S
C2042 C2045 1.387 . S
H2043 C2039 0.950 . S
H2044 C2041 0.950 . S
C2045 C2036 1.390 . S
C2045 H2038 0.950 . S
C2045 C2042 1.387 . S
C2046 C2047 1.387 . S
C2046 H2050 0.950 . S
C2046 C2055 1.390 . S
C2047 C2046 1.387 . S
C2047 C2049 1.387 . S
H2048 C2055 0.950 . S
C2049 C2047 1.387 . S
C2049 C2051 1.390 . S
C2049 H2053 0.950 . S
H2050 C2046 0.950 . S
C2051 C2049 1.390 . S
C2051 C2052 1.387 . S
C2051 H2054 0.950 . S
C2052 C2051 1.387 . S
C2052 C2055 1.387 . S
H2053 C2049 0.950 . S
H2054 C2051 0.950 . S
C2055 C2046 1.390 . S
C2055 H2048 0.950 . S
C2055 C2052 1.387 . S
C2056 C2057 1.387 . S
C2056 H2060 0.950 . S
C2056 C2065 1.390 . S
C2057 C2056 1.387 . S
C2057 C2059 1.387 . S
H2058 C2065 0.950 . S
C2059 C2057 1.387 . S
C2059 C2061 1.390 . S
C2059 H2063 0.950 . S
H2060 C2056 0.950 . S
C2061 C2059 1.390 . S
C2061 C2062 1.387 . S
C2061 H2064 0.950 . S
C2062 C2061 1.387 . S
C2062 C2065 1.387 . S
H2063 C2059 0.950 . S
H2064 C2061 0.950 . S
C2065 C2056 1.390 . S
C2065 H2058 0.950 . S
C2065 C2062 1.387 . S
C2066 C2067 1.387 . S
C2066 H2070 0.950 . S
C2066 C2075 1.390 . S
C2067 C2066 1.387 . S
C2067 C2069 1.387 . S
H2068 C2075 0.950 . S
C2069 C2067 1.387 . S
C2069 C2071 1.390 . S
C2069 H2073 0.950 . S
H2070 C2066 0.950 . S
C2071 C2069 1.390 . S
C2071 C2072 1.387 . S
C2071 H2074 0.950 . S
C2072 C2071 1.387 . S
C2072 C2075 1.387 . S
H2073 C2069 0.950 . S
H2074 C2071 0.950 . S
C2075 C2066 1.390 . S
C2075 H2068 0.950 . S
C2075 C2072 1.387 . S
C2076 C2077 1.387 . S
C2076 H2080 0.950 . S
C2076 C2085 1.390 . S
C2077 C2076 1.387 . S
C2077 C2079 1.387 . S
H2078 C2085 0.950 . S
C2079 C2077 1.387 . S
C2079 C2081 1.390 . S
C2079 H2083 0.950 . S
H2080 C2076 0.950 . S
C2081 C2079 1.390 . S
C2081 C2082 1.387 . S
C2081 H2084 0.950 . S
C2082 C2081 1.387 . S
C2082 C2085 1.387 . S
H2083 C2079 0.950 . S
H2084 C2081 0.950 . S
C2085 C2076 1.390 . S
C2085 H2078 0.950 . S
C2085 C2082 1.387 . S
C2086 C2087 1.387 . S
C2086 H2090 0.950 . S
C2086 C2095 1.390 . S
C2087 C2086 1.387 . S
C2087 C2089 1.387 . S
H2088 C2095 0.950 . S
C2089 C2087 1.387 . S
C2089 C2091 1.390 . S
C2089 H2093 0.950 . S
H2090 C2086 0.950 . S
C2091 C2089 1.390 . S
C2091 C2092 1.387 . S
C2091 H2094 0.950 . S
C2092 C2091 1.387 . S
C2092 C2095 1.387 . S
H2093 C2089 0.950 . S
H2094 C2091 0.950 . S
C2095 C2086 1.390 . S
C2095 H2088 0.950 . S
C2095 C2092 1.387 . S
C2096 C2097 1.387 . S
C2096 H2100 0.950 . S
C2096 C2105 1.390 . S
C2097 C2096 1.387 . S
C2097 C2099 1.387 . S
H2098 C2105 0.950 . S
C2099 C2097 1.387 . S
C2099 C2101 1.390 . S
C2099 H2103 0.950 . S
H2100 C2096 0.950 . S
C2101 C2099 1.390 . S
C2101 C2102 1.387 . S
C2101 H2104 0.950 . S
C2102 C2101 1.387 . S
C2102 C2105 1.387 . S
H2103 C2099 0.950 . S
H2104 C2101 0.950 . S
C2105 C2096 1.390 . S
C2105 H2098 0.950 . S
C2105 C2102 1.387 . S
C2106 C2107 1.387 . S
C2106 H2110 0.950 . S
C2106 C2115 1.390 . S
C2107 C2106 1.387 . S
C2107 C2109 1.387 . S
H2108 C2115 0.950 . S
C2109 C2107 1.387 . S
C2109 C2111 1.390 . S
C2109 H2113 0.950 . S
H2110 C2106 0.950 . S
C2111 C2109 1.390 . S
C2111 C2112 1.387 . S
C2111 H2114 0.950 . S
C2112 C2111 1.387 . S
C2112 C2115 1.387 . S
H2113 C2109 0.950 . S
H2114 C2111 0.950 . S
C2115 C2106 1.390 . S
C2115 H2108 0.950 . S
C2115 C2112 1.387 . S
C2116 C2117 1.387 . S
C2116 H2120 0.950 . S
C2116 C2125 1.390 . S
C2117 C2116 1.387 . S
C2117 C2119 1.387 . S
H2118 C2125 0.950 . S
C2119 C2117 1.387 . S
C2119 C2121 1.390 . S
C2119 H2123 0.950 . S
H2120 C2116 0.950 . S
C2121 C2119 1.390 . S
C2121 C2122 1.387 . S
C2121 H2124 0.950 . S
C2122 C2121 1.387 . S
C2122 C2125 1.387 . S
H2123 C2119 0.950 . S
H2124 C2121 0.950 . S
C2125 C2116 1.390 . S
C2125 H2118 0.950 . S
C2125 C2122 1.387 . S
C2126 C2127 1.387 . S
C2126 H2130 0.950 . S
C2126 C2135 1.390 . S
C2127 C2126 1.387 . S
C2127 C2129 1.387 . S
H2128 C2135 0.950 . S
C2129 C2127 1.387 . S
C2129 C2131 1.390 . S
C2129 H2133 0.950 . S
H2130 C2126 0.950 . S
C2131 C2129 1.390 . S
C2131 C2132 1.387 . S
C2131 H2134 0.950 . S
C2132 C2131 1.387 . S
C2132 C2135 1.387 . S
H2133 C2129 0.950 . S
H2134 C2131 0.950 . S
C2135 C2126 1.390 . S
C2135 H2128 0.950 . S
C2135 C2132 1.387 . S
C2136 C2137 1.387 . S
C2136 H2140 0.950 . S
C2136 C2145 1.390 . S
C2137 C2136 1.387 . S
C2137 C2139 1.387 . S
H2138 C2145 0.950 . S
C2139 C2137 1.387 . S
C2139 C2141 1.390 . S
C2139 H2143 0.950 . S
H2140 C2136 0.950 . S
C2141 C2139 1.390 . S
C2141 C2142 1.387 . S
C2141 H2144 0.950 . S
C2142 C2141 1.387 . S
C2142 C2145 1.387 . S
H2143 C2139 0.950 . S
H2144 C2141 0.950 . S
C2145 C2136 1.390 . S
C2145 H2138 0.950 . S
C2145 C2142 1.387 . S
C2146 C2147 1.387 . S
C2146 H2150 0.950 . S
C2146 C2155 1.390 . S
C2147 C2146 1.387 . S
C2147 C2149 1.387 . S
H2148 C2155 0.950 . S
C2149 C2147 1.387 . S
C2149 C2151 1.390 . S
C2149 H2153 0.950 . S
H2150 C2146 0.950 . S
C2151 C2149 1.390 . S
C2151 C2152 1.387 . S
C2151 H2154 0.950 . S
C2152 C2151 1.387 . S
C2152 C2155 1.387 . S
H2153 C2149 0.950 . S
H2154 C2151 0.950 . S
C2155 C2146 1.390 . S
C2155 H2148 0.950 . S
C2155 C2152 1.387 . S
C2156 C2157 1.387 . S
C2156 H2160 0.950 . S
C2156 C2165 1.390 . S
C2157 C2156 1.387 . S
C2157 C2159 1.387 . S
H2158 C2165 0.950 . S
C2159 C2157 1.387 . S
C2159 C2161 1.390 . S
C2159 H2163 0.950 . S
H2160 C2156 0.950 . S
C2161 C2159 1.390 . S
C2161 C2162 1.387 . S
C2161 H2164 0.950 . S
C2162 C2161 1.387 . S
C2162 C2165 1.387 . S
H2163 C2159 0.950 . S
H2164 C2161 0.950 . S
C2165 C2156 1.390 . S
C2165 H2158 0.950 . S
C2165 C2162 1.387 . S
C2166 C2167 1.387 . S
C2166 H2170 0.950 . S
C2166 C2175 1.390 . S
C2167 C2166 1.387 . S
C2167 C2169 1.387 . S
H2168 C2175 0.950 . S
C2169 C2167 1.387 . S
C2169 C2171 1.390 . S
C2169 H2173 0.950 . S
H2170 C2166 0.950 . S
C2171 C2169 1.390 . S
C2171 C2172 1.387 . S
C2171 H2174 0.950 . S
C2172 C2171 1.387 . S
C2172 C2175 1.387 . S
H2173 C2169 0.950 . S
H2174 C2171 0.950 . S
C2175 C2166 1.390 . S
C2175 H2168 0.950 . S
C2175 C2172 1.387 . S
C2176 C2177 1.387 1_455 S
C2176 H2180 0.950 . S
C2176 C2185 1.390 1_556 S
C2177 C2176 1.387 1_655 S
C2177 C2179 1.387 . S
H2178 C2185 0.950 . S
C2179 C2177 1.387 . S
C2179 C2181 1.390 1_556 S
C2179 H2183 0.950 . S
H2180 C2176 0.950 . S
C2181 C2179 1.390 1_554 S
C2181 C2182 1.387 1_655 S
C2181 H2184 0.950 . S
C2182 C2181 1.387 1_455 S
C2182 C2185 1.387 . S
H2183 C2179 0.950 . S
H2184 C2181 0.950 . S
C2185 C2176 1.390 1_554 S
C2185 H2178 0.950 . S
C2185 C2182 1.387 . S
C2186 C2187 1.387 . S
C2186 H2190 0.950 . S
C2186 C2195 1.390 1_554 S
C2187 C2186 1.387 . S
C2187 C2189 1.387 . S
H2188 C2195 0.950 . S
C2189 C2187 1.387 . S
C2189 C2191 1.390 1_554 S
C2189 H2193 0.950 . S
H2190 C2186 0.950 . S
C2191 C2189 1.390 1_556 S
C2191 C2192 1.387 . S
C2191 H2194 0.950 . S
C2192 C2191 1.387 . S
C2192 C2195 1.387 . S
H2193 C2189 0.950 . S
H2194 C2191 0.950 . S
C2195 C2186 1.390 1_556 S
C2195 H2188 0.950 . S
C2195 C2192 1.387 . S
C2196 C2197 1.387 1_655 S
C2196 H2200 0.950 . S
C2196 C2205 1.390 . S
C2197 C2196 1.387 1_455 S
C2197 C2199 1.387 . S
H2198 C2205 0.950 . S
C2199 C2197 1.387 . S
C2199 C2201 1.390 . S
C2199 H2203 0.950 . S
H2200 C2196 0.950 . S
C2201 C2199 1.390 . S
C2201 C2202 1.387 1_455 S
C2201 H2204 0.950 . S
C2202 C2201 1.387 1_655 S
C2202 C2205 1.387 . S
H2203 C2199 0.950 . S
H2204 C2201 0.950 . S
C2205 C2196 1.390 . S
C2205 H2198 0.950 . S
C2205 C2202 1.387 . S
C2206 C2207 1.387 . S
C2206 H2210 0.950 . S
C2206 C2215 1.390 . S
C2207 C2206 1.387 . S
C2207 C2209 1.387 . S
H2208 C2215 0.950 . S
C2209 C2207 1.387 . S
C2209 C2211 1.390 . S
C2209 H2213 0.950 . S
H2210 C2206 0.950 . S
C2211 C2209 1.390 . S
C2211 C2212 1.387 . S
C2211 H2214 0.950 . S
C2212 C2211 1.387 . S
C2212 C2215 1.387 . S
H2213 C2209 0.950 . S
H2214 C2211 0.950 . S
C2215 C2206 1.390 . S
C2215 H2208 0.950 . S
C2215 C2212 1.387 . S
C2216 C2217 1.387 . S
C2216 H2220 0.950 . S
C2216 C2225 1.390 1_556 S
C2217 C2216 1.387 . S
C2217 C2219 1.387 . S
H2218 C2225 0.950 . S
C2219 C2217 1.387 . S
C2219 C2221 1.390 1_556 S
C2219 H2223 0.950 . S
H2220 C2216 0.950 . S
C2221 C2219 1.390 1_554 S
C2221 C2222 1.387 . S
C2221 H2224 0.950 . S
C2222 C2221 1.387 . S
C2222 C2225 1.387 . S
H2223 C2219 0.950 . S
H2224 C2221 0.950 . S
C2225 C2216 1.390 1_554 S
C2225 H2218 0.950 . S
C2225 C2222 1.387 . S
C2226 C2227 1.387 1_455 S
C2226 H2230 0.950 . S
C2226 C2235 1.390 . S
C2227 C2226 1.387 1_655 S
C2227 C2229 1.387 . S
H2228 C2235 0.950 . S
C2229 C2227 1.387 . S
C2229 C2231 1.390 . S
C2229 H2233 0.950 . S
H2230 C2226 0.950 . S
C2231 C2229 1.390 . S
C2231 C2232 1.387 1_655 S
C2231 H2234 0.950 . S
C2232 C2231 1.387 1_455 S
C2232 C2235 1.387 . S
H2233 C2229 0.950 . S
H2234 C2231 0.950 . S
C2235 C2226 1.390 . S
C2235 H2228 0.950 . S
C2235 C2232 1.387 . S
C2236 C2237 1.387 . S
C2236 H2240 0.950 . S
C2236 C2245 1.390 . S
C2237 C2236 1.387 . S
C2237 C2239 1.387 . S
H2238 C2245 0.950 . S
C2239 C2237 1.387 . S
C2239 C2241 1.390 . S
C2239 H2243 0.950 . S
H2240 C2236 0.950 . S
C2241 C2239 1.390 . S
C2241 C2242 1.387 . S
C2241 H2244 0.950 . S
C2242 C2241 1.387 . S
C2242 C2245 1.387 . S
H2243 C2239 0.950 . S
H2244 C2241 0.950 . S
C2245 C2236 1.390 . S
C2245 H2238 0.950 . S
C2245 C2242 1.387 . S
C2246 C2247 1.387 . S
C2246 H2250 0.950 . S
C2246 C2255 1.390 . S
C2247 C2246 1.387 . S
C2247 C2249 1.387 1_445 S
H2248 C2255 0.950 . S
C2249 C2247 1.387 1_665 S
C2249 C2251 1.390 . S
C2249 H2253 0.950 . S
H2250 C2246 0.950 . S
C2251 C2249 1.390 . S
C2251 C2252 1.387 . S
C2251 H2254 0.950 . S
C2252 C2251 1.387 . S
C2252 C2255 1.387 1_665 S
H2253 C2249 0.950 . S
H2254 C2251 0.950 . S
C2255 C2246 1.390 . S
C2255 H2248 0.950 . S
C2255 C2252 1.387 1_445 S
C2256 C2257 1.387 . S
C2256 H2260 0.950 . S
C2256 C2265 1.390 . S
C2257 C2256 1.387 . S
C2257 C2259 1.387 . S
H2258 C2265 0.950 . S
C2259 C2257 1.387 . S
C2259 C2261 1.390 . S
C2259 H2263 0.950 . S
H2260 C2256 0.950 . S
C2261 C2259 1.390 . S
C2261 C2262 1.387 . S
C2261 H2264 0.950 . S
C2262 C2261 1.387 . S
C2262 C2265 1.387 . S
H2263 C2259 0.950 . S
H2264 C2261 0.950 . S
C2265 C2256 1.390 . S
C2265 H2258 0.950 . S
C2265 C2262 1.387 . S
C2266 C2267 1.387 . S
C2266 H2270 0.950 . S
C2266 C2275 1.390 1_565 S
C2267 C2266 1.387 . S
C2267 C2269 1.387 . S
H2268 C2275 0.950 . S
C2269 C2267 1.387 . S
C2269 C2271 1.390 1_565 S
C2269 H2273 0.950 . S
H2270 C2266 0.950 . S
C2271 C2269 1.390 1_545 S
C2271 C2272 1.387 . S
C2271 H2274 0.950 . S
C2272 C2271 1.387 . S
C2272 C2275 1.387 . S
H2273 C2269 0.950 . S
H2274 C2271 0.950 . S
C2275 C2266 1.390 1_545 S
C2275 H2268 0.950 . S
C2275 C2272 1.387 . S
C2276 C2277 1.387 . S
C2276 H2280 0.950 . S
C2276 C2285 1.390 . S
C2277 C2276 1.387 . S
C2277 C2279 1.387 . S
H2278 C2285 0.950 . S
C2279 C2277 1.387 . S
C2279 C2281 1.390 . S
C2279 H2283 0.950 . S
H2280 C2276 0.950 . S
C2281 C2279 1.390 . S
C2281 C2282 1.387 . S
C2281 H2284 0.950 . S
C2282 C2281 1.387 . S
C2282 C2285 1.387 . S
H2283 C2279 0.950 . S
H2284 C2281 0.950 . S
C2285 C2276 1.390 . S
C2285 H2278 0.950 . S
C2285 C2282 1.387 . S
C2286 C2287 1.387 1_545 S
C2286 H2290 0.950 . S
C2286 C2295 1.390 . S
C2287 C2286 1.387 1_565 S
C2287 C2289 1.387 . S
H2288 C2295 0.950 . S
C2289 C2287 1.387 . S
C2289 C2291 1.390 . S
C2289 H2293 0.950 . S
H2290 C2286 0.950 . S
C2291 C2289 1.390 . S
C2291 C2292 1.387 1_565 S
C2291 H2294 0.950 . S
C2292 C2291 1.387 1_545 S
C2292 C2295 1.387 . S
H2293 C2289 0.950 . S
H2294 C2291 0.950 . S
C2295 C2286 1.390 . S
C2295 H2288 0.950 . S
C2295 C2292 1.387 . S
C2296 C2297 1.387 . S
C2296 H2300 0.950 . S
C2296 C2305 1.390 . S
C2297 C2296 1.387 . S
C2297 C2299 1.387 . S
H2298 C2305 0.950 . S
C2299 C2297 1.387 . S
C2299 C2301 1.390 . S
C2299 H2303 0.950 . S
H2300 C2296 0.950 . S
C2301 C2299 1.390 . S
C2301 C2302 1.387 . S
C2301 H2304 0.950 . S
C2302 C2301 1.387 . S
C2302 C2305 1.387 . S
H2303 C2299 0.950 . S
H2304 C2301 0.950 . S
C2305 C2296 1.390 . S
C2305 H2298 0.950 . S
C2305 C2302 1.387 . S
C2306 C2307 1.387 . S
C2306 H2310 0.950 . S
C2306 C2315 1.390 . S
C2307 C2306 1.387 . S
C2307 C2309 1.387 . S
H2308 C2315 0.950 . S
C2309 C2307 1.387 . S
C2309 C2311 1.390 . S
C2309 H2313 0.950 . S
H2310 C2306 0.950 . S
C2311 C2309 1.390 . S
C2311 C2312 1.387 . S
C2311 H2314 0.950 . S
C2312 C2311 1.387 . S
C2312 C2315 1.387 . S
H2313 C2309 0.950 . S
H2314 C2311 0.950 . S
C2315 C2306 1.390 . S
C2315 H2308 0.950 . S
C2315 C2312 1.387 . S
C2316 C2317 1.387 . S
C2316 H2320 0.950 . S
C2316 C2325 1.390 . S
C2317 C2316 1.387 . S
C2317 C2319 1.387 . S
H2318 C2325 0.950 . S
C2319 C2317 1.387 . S
C2319 C2321 1.390 . S
C2319 H2323 0.950 . S
H2320 C2316 0.950 . S
C2321 C2319 1.390 . S
C2321 C2322 1.387 . S
C2321 H2324 0.950 . S
C2322 C2321 1.387 . S
C2322 C2325 1.387 . S
H2323 C2319 0.950 . S
H2324 C2321 0.950 . S
C2325 C2316 1.390 . S
C2325 H2318 0.950 . S
C2325 C2322 1.387 . S
C2326 C2327 1.387 . S
C2326 H2330 0.950 . S
C2326 C2335 1.390 1_544 S
C2327 C2326 1.387 . S
C2327 C2329 1.387 . S
H2328 C2335 0.950 . S
C2329 C2327 1.387 . S
C2329 C2331 1.390 1_544 S
C2329 H2333 0.950 . S
H2330 C2326 0.950 . S
C2331 C2329 1.390 1_566 S
C2331 C2332 1.387 . S
C2331 H2334 0.950 . S
C2332 C2331 1.387 . S
C2332 C2335 1.387 . S
H2333 C2329 0.950 . S
H2334 C2331 0.950 . S
C2335 C2326 1.390 1_566 S
C2335 H2328 0.950 . S
C2335 C2332 1.387 . S
C2336 C2337 1.387 1_655 S
C2336 H2340 0.950 . S
C2336 C2345 1.390 . S
C2337 C2336 1.387 1_455 S
C2337 C2339 1.387 . S
H2338 C2345 0.950 . S
C2339 C2337 1.387 . S
C2339 C2341 1.390 . S
C2339 H2343 0.950 . S
H2340 C2336 0.950 . S
C2341 C2339 1.390 . S
C2341 C2342 1.387 . S
C2341 H2344 0.950 . S
C2342 C2341 1.387 . S
C2342 C2345 1.387 1_455 S
H2343 C2339 0.950 . S
H2344 C2341 0.950 . S
C2345 C2336 1.390 . S
C2345 H2338 0.950 . S
C2345 C2342 1.387 1_655 S
C2346 C2347 1.387 . S
C2346 H2350 0.950 . S
C2346 C2355 1.390 . S
C2347 C2346 1.387 . S
C2347 C2349 1.387 . S
H2348 C2355 0.950 . S
C2349 C2347 1.387 . S
C2349 C2351 1.390 . S
C2349 H2353 0.950 . S
H2350 C2346 0.950 . S
C2351 C2349 1.390 . S
C2351 C2352 1.387 . S
C2351 H2354 0.950 . S
C2352 C2351 1.387 . S
C2352 C2355 1.387 . S
H2353 C2349 0.950 . S
H2354 C2351 0.950 . S
C2355 C2346 1.390 . S
C2355 H2348 0.950 . S
C2355 C2352 1.387 . S
C2356 C2357 1.387 1_455 S
C2356 H2360 0.950 . S
C2356 C2365 1.390 . S
C2357 C2356 1.387 1_655 S
C2357 C2359 1.387 . S
H2358 C2365 0.950 . S
C2359 C2357 1.387 . S
C2359 C2361 1.390 . S
C2359 H2363 0.950 . S
H2360 C2356 0.950 . S
C2361 C2359 1.390 . S
C2361 C2362 1.387 . S
C2361 H2364 0.950 . S
C2362 C2361 1.387 . S
C2362 C2365 1.387 1_655 S
H2363 C2359 0.950 . S
H2364 C2361 0.950 . S
C2365 C2356 1.390 . S
C2365 H2358 0.950 . S
C2365 C2362 1.387 1_455 S
C2366 C2367 1.387 . S
C2366 H2370 0.950 . S
C2366 C2375 1.390 . S
C2367 C2366 1.387 . S
C2367 C2369 1.387 . S
H2368 C2375 0.950 . S
C2369 C2367 1.387 . S
C2369 C2371 1.390 . S
C2369 H2373 0.950 . S
H2370 C2366 0.950 . S
C2371 C2369 1.390 . S
C2371 C2372 1.387 . S
C2371 H2374 0.950 . S
C2372 C2371 1.387 . S
C2372 C2375 1.387 . S
H2373 C2369 0.950 . S
H2374 C2371 0.950 . S
C2375 C2366 1.390 . S
C2375 H2368 0.950 . S
C2375 C2372 1.387 . S
C2376 C2377 1.387 1_655 S
C2376 H2380 0.950 . S
C2376 C2385 1.390 . S
C2377 C2376 1.387 1_455 S
C2377 C2379 1.387 . S
H2378 C2385 0.950 . S
C2379 C2377 1.387 . S
C2379 C2381 1.390 . S
C2379 H2383 0.950 . S
H2380 C2376 0.950 . S
C2381 C2379 1.390 . S
C2381 C2382 1.387 . S
C2381 H2384 0.950 . S
C2382 C2381 1.387 . S
C2382 C2385 1.387 1_455 S
H2383 C2379 0.950 . S
H2384 C2381 0.950 . S
C2385 C2376 1.390 . S
C2385 H2378 0.950 . S
C2385 C2382 1.387 1_655 S
C2386 C2387 1.387 . S
C2386 H2390 0.950 . S
C2386 C2395 1.390 . S
C2387 C2386 1.387 . S
C2387 C2389 1.387 . S
H2388 C2395 0.950 . S
C2389 C2387 1.387 . S
C2389 C2391 1.390 . S
C2389 H2393 0.950 . S
H2390 C2386 0.950 . S
C2391 C2389 1.390 . S
C2391 C2392 1.387 . S
C2391 H2394 0.950 . S
C2392 C2391 1.387 . S
C2392 C2395 1.387 . S
H2393 C2389 0.950 . S
H2394 C2391 0.950 . S
C2395 C2386 1.390 . S
C2395 H2388 0.950 . S
C2395 C2392 1.387 . S
C2396 C2397 1.387 1_455 S
C2396 H2400 0.950 . S
C2396 C2405 1.390 . S
C2397 C2396 1.387 1_655 S
C2397 C2399 1.387 . S
H2398 C2405 0.950 . S
C2399 C2397 1.387 . S
C2399 C2401 1.390 . S
C2399 H2403 0.950 . S
H2400 C2396 0.950 . S
C2401 C2399 1.390 . S
C2401 C2402 1.387 . S
C2401 H2404 0.950 . S
C2402 C2401 1.387 . S
C2402 C2405 1.387 1_655 S
H2403 C2399 0.950 . S
H2404 C2401 0.950 . S
C2405 C2396 1.390 . S
C2405 H2398 0.950 . S
C2405 C2402 1.387 1_455 S
C2406 C2407 1.387 . S
C2406 H2410 0.950 . S
C2406 C2415 1.390 . S
C2407 C2406 1.387 . S
C2407 C2409 1.387 . S
H2408 C2415 0.950 . S
C2409 C2407 1.387 . S
C2409 C2411 1.390 . S
C2409 H2413 0.950 . S
H2410 C2406 0.950 . S
C2411 C2409 1.390 . S
C2411 C2412 1.387 . S
C2411 H2414 0.950 . S
C2412 C2411 1.387 . S
C2412 C2415 1.387 . S
H2413 C2409 0.950 . S
H2414 C2411 0.950 . S
C2415 C2406 1.390 . S
C2415 H2408 0.950 . S
C2415 C2412 1.387 . S
C2416 C2417 1.387 . S
C2416 H2420 0.950 . S
C2416 C2425 1.390 . S
C2417 C2416 1.387 . S
C2417 C2419 1.387 . S
H2418 C2425 0.950 . S
C2419 C2417 1.387 . S
C2419 C2421 1.390 . S
C2419 H2423 0.950 . S
H2420 C2416 0.950 . S
C2421 C2419 1.390 . S
C2421 C2422 1.387 . S
C2421 H2424 0.950 . S
C2422 C2421 1.387 . S
C2422 C2425 1.387 . S
H2423 C2419 0.950 . S
H2424 C2421 0.950 . S
C2425 C2416 1.390 . S
C2425 H2418 0.950 . S
C2425 C2422 1.387 . S
C2426 C2427 1.387 . S
C2426 H2430 0.950 . S
C2426 C2435 1.390 . S
C2427 C2426 1.387 . S
C2427 C2429 1.387 . S
H2428 C2435 0.950 . S
C2429 C2427 1.387 . S
C2429 C2431 1.390 . S
C2429 H2433 0.950 . S
H2430 C2426 0.950 . S
C2431 C2429 1.390 . S
C2431 C2432 1.387 . S
C2431 H2434 0.950 . S
C2432 C2431 1.387 . S
C2432 C2435 1.387 . S
H2433 C2429 0.950 . S
H2434 C2431 0.950 . S
C2435 C2426 1.390 . S
C2435 H2428 0.950 . S
C2435 C2432 1.387 . S
C2436 C2437 1.387 . S
C2436 H2440 0.950 . S
C2436 C2445 1.390 . S
C2437 C2436 1.387 . S
C2437 C2439 1.387 . S
H2438 C2445 0.950 . S
C2439 C2437 1.387 . S
C2439 C2441 1.390 . S
C2439 H2443 0.950 . S
H2440 C2436 0.950 . S
C2441 C2439 1.390 . S
C2441 C2442 1.387 . S
C2441 H2444 0.950 . S
C2442 C2441 1.387 . S
C2442 C2445 1.387 . S
H2443 C2439 0.950 . S
H2444 C2441 0.950 . S
C2445 C2436 1.390 . S
C2445 H2438 0.950 . S
C2445 C2442 1.387 . S
C2446 C2447 1.387 . S
C2446 H2450 0.950 . S
C2446 C2455 1.390 . S
C2447 C2446 1.387 . S
C2447 C2449 1.387 . S
H2448 C2455 0.950 . S
C2449 C2447 1.387 . S
C2449 C2451 1.390 . S
C2449 H2453 0.950 . S
H2450 C2446 0.950 . S
C2451 C2449 1.390 . S
C2451 C2452 1.387 . S
C2451 H2454 0.950 . S
C2452 C2451 1.387 . S
C2452 C2455 1.387 . S
H2453 C2449 0.950 . S
H2454 C2451 0.950 . S
C2455 C2446 1.390 . S
C2455 H2448 0.950 . S
C2455 C2452 1.387 . S
C2456 C2457 1.387 . S
C2456 H2460 0.950 . S
C2456 C2465 1.390 . S
C2457 C2456 1.387 . S
C2457 C2459 1.387 . S
H2458 C2465 0.950 . S
C2459 C2457 1.387 . S
C2459 C2461 1.390 . S
C2459 H2463 0.950 . S
H2460 C2456 0.950 . S
C2461 C2459 1.390 . S
C2461 C2462 1.387 . S
C2461 H2464 0.950 . S
C2462 C2461 1.387 . S
C2462 C2465 1.387 . S
H2463 C2459 0.950 . S
H2464 C2461 0.950 . S
C2465 C2456 1.390 . S
C2465 H2458 0.950 . S
C2465 C2462 1.387 . S
C2466 C2467 1.387 . S
C2466 H2470 0.950 . S
C2466 C2475 1.390 . S
C2467 C2466 1.387 . S
C2467 C2469 1.387 . S
H2468 C2475 0.950 . S
C2469 C2467 1.387 . S
C2469 C2471 1.390 . S
C2469 H2473 0.950 . S
H2470 C2466 0.950 . S
C2471 C2469 1.390 . S
C2471 C2472 1.387 . S
C2471 H2474 0.950 . S
C2472 C2471 1.387 . S
C2472 C2475 1.387 . S
H2473 C2469 0.950 . S
H2474 C2471 0.950 . S
C2475 C2466 1.390 . S
C2475 H2468 0.950 . S
C2475 C2472 1.387 . S
C2476 C2477 1.387 . S
C2476 H2480 0.950 . S
C2476 C2485 1.390 . S
C2477 C2476 1.387 . S
C2477 C2479 1.387 . S
H2478 C2485 0.950 . S
C2479 C2477 1.387 . S
C2479 C2481 1.390 . S
C2479 H2483 0.950 . S
H2480 C2476 0.950 . S
C2481 C2479 1.390 . S
C2481 C2482 1.387 . S
C2481 H2484 0.950 . S
C2482 C2481 1.387 . S
C2482 C2485 1.387 . S
H2483 C2479 0.950 . S
H2484 C2481 0.950 . S
C2485 C2476 1.390 . S
C2485 H2478 0.950 . S
C2485 C2482 1.387 . S
C2486 C2487 1.387 . S
C2486 H2490 0.950 . S
C2486 C2495 1.390 . S
C2487 C2486 1.387 . S
C2487 C2489 1.387 . S
H2488 C2495 0.950 . S
C2489 C2487 1.387 . S
C2489 C2491 1.390 . S
C2489 H2493 0.950 . S
H2490 C2486 0.950 . S
C2491 C2489 1.390 . S
C2491 C2492 1.387 . S
C2491 H2494 0.950 . S
C2492 C2491 1.387 . S
C2492 C2495 1.387 . S
H2493 C2489 0.950 . S
H2494 C2491 0.950 . S
C2495 C2486 1.390 . S
C2495 H2488 0.950 . S
C2495 C2492 1.387 . S
C1217 C973 2.118 . S
C1222 C23 2.116 . S
C1227 C61 2.116 . S
C1232 C935 2.116 . S
C1237 C1049 2.116 . S
C1242 C99 2.116 . S
C1247 C137 2.116 . S
C1252 C1011 2.116 . S
C1257 C1106 2.118 . S
C1262 C156 2.118 . S
C1267 C194 2.116 . S
C1272 C1068 2.116 . S
C1277 C1182 2.118 . S
C1282 C232 2.118 . S
C1287 C270 2.116 . S
C1292 C1144 2.116 . S
C1297 C327 2.118 . S
C1302 C669 2.117 . S
C1307 C365 2.116 . S
C1312 C631 2.116 . S
C1317 C745 2.118 . S
C1322 C403 2.116 . S
C1327 C441 2.118 . S
C1332 C707 2.116 . S
C1337 C460 2.119 . S
C1342 C802 2.118 . S
C1347 C764 2.116 . S
C1352 C498 2.116 . S
C1357 C878 2.118 . S
C1362 C536 2.116 . S
C1367 C840 2.118 . S
C1372 C574 2.118 . S
C1377 C1104 1.661 1_554 S
C1382 C2 1.632 . S
C1387 C40 1.633 . S
C1392 C154 1.663 1_554 S
C1397 C78 1.634 . S
C1402 C876 1.663 . S
C1407 C116 1.632 . S
C1412 C534 1.661 . S
C1417 C976 1.662 1_556 S
C1422 C178 1.632 . S
C1427 C26 1.663 1_556 S
C1432 C216 1.633 . S
C1437 C748 1.663 . S
C1442 C254 1.634 . S
C1447 C292 1.634 . S
C1452 C406 1.663 . S
C1457 C800 1.664 . S
C1462 C306 1.635 . S
C1467 C458 1.662 . S
C1472 C344 1.633 . S
C1477 C382 1.632 . S
C1482 C1180 1.662 . S
C1487 C230 1.662 . S
C1492 C420 1.633 . S
C1497 C672 1.663 . S
C1502 C482 1.633 . S
C1507 C520 1.632 . S
C1512 C330 1.662 . S
C1517 C558 1.631 . S
C1522 C1052 1.661 . S
C1527 C596 1.634 . S
C1532 C102 1.663 . S
C1537 C610 1.632 . S
C1542 C496 1.662 . S
C1547 C762 1.663 . S
C1552 C648 1.634 . S
C1557 C268 1.663 . S
C1562 C686 1.634 . S
C1567 C1142 1.663 . S
C1572 C724 1.633 . S
C1577 C786 1.634 . S
C1582 C368 1.663 . S
C1587 C824 1.633 . S
C1592 C634 1.662 . S
C1597 C862 1.631 . S
C1602 C140 1.661 . S
C1607 C900 1.633 . S
C1612 C1014 1.662 . S
C1617 C192 1.664 1_554 S
C1622 C914 1.635 . S
C1627 C1066 1.661 1_554 S
C1632 C952 1.632 . S
C1637 C572 1.661 . S
C1642 C990 1.631 . S
C1647 C1028 1.634 . S
C1652 C838 1.663 . S
C1657 C1090 1.632 . S
C1662 C64 1.661 1_556 S
C1667 C1128 1.632 . S
C1672 C938 1.661 1_556 S
C1677 C1166 1.634 . S
C1682 C444 1.663 . S
C1687 C1204 1.633 . S
C1692 C710 1.663 . S
C1697 C248 2.019 . S
C1702 C20 2.049 1_655 S
C1707 C58 2.049 1_545 S
C1712 C1198 2.020 . S
C1717 C476 2.019 . S
C1722 C96 2.049 1_645 S
C1727 C818 2.020 . S
C1732 C134 2.049 . S
C1737 C95 2.019 . S
C1742 C171 2.049 1_455 S
C1747 C209 2.049 1_565 S
C1752 C1045 2.020 . S
C1757 C323 2.019 . S
C1762 C247 2.049 1_465 S
C1767 C285 2.049 . S
C1772 C665 2.020 . S
C1777 C324 2.050 1_655 S
C1782 C552 2.021 . S
C1787 C894 2.020 . S
C1792 C362 2.050 . S
C1797 C400 2.049 1_655 S
C1802 C172 2.019 . S
C1807 C1122 2.020 . S
C1812 C438 2.049 . S
C1817 C475 2.050 1_455 S
C1822 C399 2.021 . S
C1827 C741 2.021 . S
C1832 C513 2.050 . S
C1837 C551 2.049 1_455 S
C1842 C19 2.019 . S
C1847 C969 2.019 . S
C1852 C589 2.049 . S
C1857 C628 2.050 . S
C1862 C856 2.020 . S
C1867 C666 2.050 1_545 S
C1872 C590 2.021 . S
C1877 C1084 2.019 . S
C1882 C704 2.048 1_545 S
C1887 C742 2.049 . S
C1892 C210 2.021 . S
C1897 C703 2.021 . S
C1902 C779 2.050 . S
C1907 C817 2.050 1_565 S
C1912 C437 2.021 . S
C1917 C931 2.019 . S
C1922 C855 2.048 1_565 S
C1927 C893 2.049 . S
C1932 C57 2.021 . S
C1937 C1160 2.020 . S
C1942 C932 2.049 . S
C1947 C970 2.050 . S
C1952 C286 2.021 . S
C1957 C1008 2.049 . S
C1962 C780 2.019 . S
C1967 C1046 2.050 . S
C1972 C514 2.020 . S
C1977 C1007 2.020 . S
C1982 C1083 2.049 . S
C1987 C1121 2.050 . S
C1992 C133 2.021 . S
C1997 C627 2.020 . S
C2002 C1159 2.049 . S
C2007 C1197 2.050 . S
C2012 C361 2.021 . S
C2017 C118 1.656 . S
C2022 C4 1.656 . S
C2027 C80 1.656 . S
C2032 C42 1.656 . S
C2037 C175 1.656 . S
C2042 C289 1.656 . S
C2047 C251 1.658 . S
C2052 C213 1.653 . S
C2057 C422 1.656 . S
C2062 C308 1.656 . S
C2067 C346 1.656 . S
C2072 C384 1.656 . S
C2077 C593 1.658 . S
C2082 C479 1.653 . S
C2087 C555 1.656 . S
C2092 C517 1.656 . S
C2097 C612 1.656 . S
C2102 C726 1.656 . S
C2107 C688 1.654 . S
C2112 C650 1.658 . S
C2117 C783 1.655 . S
C2122 C897 1.655 . S
C2127 C859 1.658 . S
C2132 C821 1.654 . S
C2137 C1030 1.653 . S
C2142 C916 1.657 . S
C2147 C954 1.653 . S
C2152 C992 1.658 . S
C2157 C1087 1.653 . S
C2162 C1201 1.657 . S
C2167 C1125 1.653 . S
C2172 C1163 1.658 . S
C2177 C28 0.980 . S
C2182 C169 0.980 . S
C2187 C1119 0.979 . S
C2192 C66 0.979 . S
C2197 C549 0.985 . S
C2202 C104 0.985 . S
C2207 C891 0.985 . S
C2212 C142 0.985 . S
C2217 C978 0.985 . S
C2222 C207 0.985 . S
C2227 C408 0.980 . S
C2232 C245 0.980 . S
C2237 C283 0.984 . S
C2242 C750 0.984 . S
C2247 C473 0.979 . S
C2252 C332 0.979 . S
C2257 C370 0.979 . S
C2262 C815 0.979 . S
C2267 C446 0.979 . S
C2272 C1195 0.979 . S
C2277 C511 0.979 . S
C2282 C674 0.979 . S
C2287 C1054 0.980 . S
C2292 C587 0.980 . S
C2297 C777 0.980 . S
C2302 C636 0.980 . S
C2307 C1157 0.985 . S
C2312 C712 0.985 . S
C2317 C853 0.984 . S
C2322 C1016 0.984 . S
C2327 C1081 0.979 . S
C2332 C940 0.979 . S
C2337 C93 1.010 . S
C2342 C17 1.010 . S
C2347 C131 1.016 . S
C2352 C55 1.016 . S
C2357 C180 1.016 . S
C2362 C256 1.016 . S
C2367 C218 1.010 . S
C2372 C294 1.010 . S
C2377 C397 1.011 . S
C2382 C321 1.011 . S
C2387 C435 1.016 . S
C2392 C359 1.016 . S
C2397 C484 1.016 . S
C2402 C560 1.016 . S
C2407 C598 1.016 . S
C2412 C522 1.016 . S
C2417 C701 1.016 . S
C2422 C625 1.016 . S
C2427 C663 1.016 . S
C2432 C739 1.016 . S
C2437 C864 1.011 . S
C2442 C788 1.011 . S
C2447 C826 1.010 . S
C2452 C902 1.010 . S
C2457 C929 1.011 . S
C2462 C1005 1.011 . S
C2467 C967 1.010 . S
C2472 C1043 1.010 . S
C2477 C1168 1.016 . S
C2482 C1092 1.016 . S
C2487 C1206 1.016 . S
C2492 C1130 1.016 . S
