# Generated by pormake.
# Topology pcl, (4)-cn, num edge types: 1
# Building blocks:
#     Node 0, Type 0, BuildingBlock: TATPOV_clean_sbu_0, # of connection points: 4
#     Node 1, Type 0, BuildingBlock: TATPOV_clean_sbu_0, # of connection points: 4
#     Node 2, Type 0, BuildingBlock: TATPOV_clean_sbu_0, # of connection points: 4
#     Node 3, Type 0, BuildingBlock: TATPOV_clean_sbu_0, # of connection points: 4
#     Node 4, Type 0, BuildingBlock: TATPOV_clean_sbu_0, # of connection points: 4
#     Node 5, Type 0, BuildingBlock: TATPOV_clean_sbu_0, # of connection points: 4
#     Node 6, Type 0, BuildingBlock: TATPOV_clean_sbu_0, # of connection points: 4
#     Node 7, Type 0, BuildingBlock: TATPOV_clean_sbu_0, # of connection points: 4
#     Node 8, Type 0, BuildingBlock: TATPOV_clean_sbu_0, # of connection points: 4
#     Node 9, Type 0, BuildingBlock: TATPOV_clean_sbu_0, # of connection points: 4
#     Node 10, Type 0, BuildingBlock: TATPOV_clean_sbu_0, # of connection points: 4
#     Node 11, Type 0, BuildingBlock: TATPOV_clean_sbu_0, # of connection points: 4
#     Node 12, Type 0, BuildingBlock: TATPOV_clean_sbu_0, # of connection points: 4
#     Node 13, Type 0, BuildingBlock: TATPOV_clean_sbu_0, # of connection points: 4
#     Node 14, Type 0, BuildingBlock: TATPOV_clean_sbu_0, # of connection points: 4
#     Node 15, Type 0, BuildingBlock: TATPOV_clean_sbu_0, # of connection points: 4
#     Edge 16, Type (0, 0), BuildingBlock: KIFKEQ_clean_linker_1, # of connection points: 2
#     Edge 17, Type (0, 0), BuildingBlock: KIFKEQ_clean_linker_1, # of connection points: 2
#     Edge 18, Type (0, 0), BuildingBlock: KIFKEQ_clean_linker_1, # of connection points: 2
#     Edge 19, Type (0, 0), BuildingBlock: KIFKEQ_clean_linker_1, # of connection points: 2
#     Edge 20, Type (0, 0), BuildingBlock: KIFKEQ_clean_linker_1, # of connection points: 2
#     Edge 21, Type (0, 0), BuildingBlock: KIFKEQ_clean_linker_1, # of connection points: 2
#     Edge 22, Type (0, 0), BuildingBlock: KIFKEQ_clean_linker_1, # of connection points: 2
#     Edge 23, Type (0, 0), BuildingBlock: KIFKEQ_clean_linker_1, # of connection points: 2
#     Edge 24, Type (0, 0), BuildingBlock: KIFKEQ_clean_linker_1, # of connection points: 2
#     Edge 25, Type (0, 0), BuildingBlock: KIFKEQ_clean_linker_1, # of connection points: 2
#     Edge 26, Type (0, 0), BuildingBlock: KIFKEQ_clean_linker_1, # of connection points: 2
#     Edge 27, Type (0, 0), BuildingBlock: KIFKEQ_clean_linker_1, # of connection points: 2
#     Edge 28, Type (0, 0), BuildingBlock: KIFKEQ_clean_linker_1, # of connection points: 2
#     Edge 29, Type (0, 0), BuildingBlock: KIFKEQ_clean_linker_1, # of connection points: 2
#     Edge 30, Type (0, 0), BuildingBlock: KIFKEQ_clean_linker_1, # of connection points: 2
#     Edge 31, Type (0, 0), BuildingBlock: KIFKEQ_clean_linker_1, # of connection points: 2
#     Edge 32, Type (0, 0), BuildingBlock: KIFKEQ_clean_linker_1, # of connection points: 2
#     Edge 33, Type (0, 0), BuildingBlock: KIFKEQ_clean_linker_1, # of connection points: 2
#     Edge 34, Type (0, 0), BuildingBlock: KIFKEQ_clean_linker_1, # of connection points: 2
#     Edge 35, Type (0, 0), BuildingBlock: KIFKEQ_clean_linker_1, # of connection points: 2
#     Edge 36, Type (0, 0), BuildingBlock: KIFKEQ_clean_linker_1, # of connection points: 2
#     Edge 37, Type (0, 0), BuildingBlock: KIFKEQ_clean_linker_1, # of connection points: 2
#     Edge 38, Type (0, 0), BuildingBlock: KIFKEQ_clean_linker_1, # of connection points: 2
#     Edge 39, Type (0, 0), BuildingBlock: KIFKEQ_clean_linker_1, # of connection points: 2
#     Edge 40, Type (0, 0), BuildingBlock: KIFKEQ_clean_linker_1, # of connection points: 2
#     Edge 41, Type (0, 0), BuildingBlock: KIFKEQ_clean_linker_1, # of connection points: 2
#     Edge 42, Type (0, 0), BuildingBlock: KIFKEQ_clean_linker_1, # of connection points: 2
#     Edge 43, Type (0, 0), BuildingBlock: KIFKEQ_clean_linker_1, # of connection points: 2
#     Edge 44, Type (0, 0), BuildingBlock: KIFKEQ_clean_linker_1, # of connection points: 2
#     Edge 45, Type (0, 0), BuildingBlock: KIFKEQ_clean_linker_1, # of connection points: 2
#     Edge 46, Type (0, 0), BuildingBlock: KIFKEQ_clean_linker_1, # of connection points: 2
#     Edge 47, Type (0, 0), BuildingBlock: KIFKEQ_clean_linker_1, # of connection points: 2
# Relax obj value: 0.053
# Max RMSD: 0.064
# Mean RMSD: 0.055
data_MOF--net-pcl--node1-TATPOV_clean_sbu_0--edge1-KIFKEQ_clean_linker_1
_symmetry_space_group_name_H-M    P1
_symmetry_Int_Tables_number       1
_symmetry_cell_setting            triclinic
loop_
_symmetry_equiv_pos_as_xyz
'x, y, z'
_cell_length_a     44.500271
_cell_length_b     49.722227
_cell_length_c     45.48831
_cell_angle_alpha  89.626856
_cell_angle_beta   90.151926
_cell_angle_gamma 90.205834
loop_
_atom_site_label
_atom_site_type_symbol
_atom_site_fract_x
_atom_site_fract_y
_atom_site_fract_z
_atom_type_partial_charge
Zn0 Zn 0.13537 0.40005 0.10339 0.0
Zn1 Zn 0.16211 0.36668 0.06553 0.0
O2 O 0.17206 0.40403 0.04835 0.0
O3 O 0.15335 0.43178 0.08112 0.0
O4 O 0.18256 0.34102 0.03803 0.0
O5 O 0.15726 0.38298 0.13697 0.0
O6 O 0.18165 0.35714 0.10592 0.0
C7 C 0.16751 0.42787 0.05741 0.0
C8 C 0.09355 0.36583 0.07301 0.0
O9 O 0.1172 0.35707 0.06066 0.0
O10 O 0.09522 0.38423 0.09206 0.0
C11 C 0.17549 0.31624 0.03911 0.0
O12 O 0.15508 0.30821 0.05809 0.0
C13 C 0.17654 0.36497 0.13206 0.0
Zn14 Zn 0.85296 0.58394 0.62325 0.0
Zn15 Zn 0.84459 0.62705 0.58974 0.0
O16 O 0.82597 0.59477 0.56686 0.0
O17 O 0.83113 0.55957 0.59604 0.0
O18 O 0.83245 0.65935 0.56523 0.0
O19 O 0.83041 0.59992 0.65669 0.0
O20 O 0.8264 0.63694 0.6302 0.0
C21 C 0.82196 0.56975 0.57215 0.0
C22 C 0.9085 0.61006 0.60314 0.0
O23 O 0.891 0.62674 0.59037 0.0
O24 O 0.89762 0.5907 0.61803 0.0
C25 C 0.8314 0.65938 0.53729 0.0
O26 O 0.84018 0.63791 0.52303 0.0
C27 C 0.82176 0.624 0.65404 0.0
Zn28 Zn 0.13582 0.62153 0.888 0.0
Zn29 Zn 0.16622 0.65476 0.92307 0.0
O30 O 0.17521 0.61777 0.9416 0.0
O31 O 0.15386 0.58991 0.91027 0.0
O32 O 0.19024 0.68089 0.94741 0.0
O33 O 0.15576 0.63649 0.85227 0.0
O34 O 0.18391 0.66153 0.88124 0.0
C35 C 0.16924 0.5939 0.93332 0.0
C36 C 0.09745 0.65765 0.91943 0.0
O37 O 0.12215 0.66627 0.93013 0.0
O38 O 0.09726 0.63863 0.90108 0.0
C39 C 0.18782 0.6826 0.97516 0.0
O40 O 0.16904 0.66651 0.98902 0.0
C41 C 0.17669 0.65344 0.85562 0.0
Zn42 Zn 0.84693 0.41819 0.36699 0.0
Zn43 Zn 0.83941 0.37493 0.4003 0.0
O44 O 0.82175 0.40708 0.42387 0.0
O45 O 0.82614 0.44244 0.39481 0.0
O46 O 0.82785 0.34246 0.42495 0.0
O47 O 0.82329 0.40253 0.33395 0.0
O48 O 0.8199 0.36526 0.36012 0.0
C49 C 0.81772 0.43212 0.41888 0.0
C50 C 0.90299 0.39228 0.38556 0.0
O51 O 0.88584 0.37546 0.39866 0.0
O52 O 0.8917 0.41162 0.371 0.0
C53 C 0.82696 0.34246 0.4529 0.0
O54 O 0.83555 0.3641 0.46711 0.0
C55 C 0.81459 0.37841 0.33653 0.0
Zn56 Zn 0.85284 0.60895 0.90164 0.0
Zn57 Zn 0.81918 0.64422 0.9259 0.0
O58 O 0.81114 0.65116 0.88176 0.0
O59 O 0.84724 0.62701 0.86231 0.0
O60 O 0.79348 0.67193 0.94598 0.0
O61 O 0.82625 0.57851 0.9143 0.0
O62 O 0.80297 0.6077 0.94216 0.0
C63 C 0.82616 0.64383 0.85944 0.0
C64 C 0.88701 0.64173 0.93893 0.0
O65 O 0.86252 0.65498 0.93879 0.0
O66 O 0.88822 0.61905 0.92659 0.0
C67 C 0.76805 0.67917 0.93591 0.0
O68 O 0.7576 0.66787 0.91192 0.0
C69 C 0.8071 0.58346 0.93401 0.0
Zn70 Zn 0.18209 0.42105 0.35989 0.0
Zn71 Zn 0.19399 0.38006 0.39365 0.0
O72 O 0.21203 0.37067 0.35272 0.0
O73 O 0.20858 0.40838 0.32749 0.0
O74 O 0.2086 0.34921 0.41914 0.0
O75 O 0.19729 0.44812 0.38849 0.0
O76 O 0.21014 0.41363 0.4162 0.0
C77 C 0.21719 0.38423 0.32935 0.0
C78 C 0.12901 0.39079 0.3778 0.0
O79 O 0.1475 0.37754 0.39369 0.0
O80 O 0.13849 0.40936 0.36096 0.0
C81 C 0.20445 0.32473 0.41219 0.0
O82 O 0.18904 0.31917 0.3883 0.0
C83 C 0.20913 0.43902 0.41178 0.0
Zn84 Zn 0.84228 0.39988 0.09175 0.0
Zn85 Zn 0.81197 0.3641 0.06508 0.0
O86 O 0.80162 0.35593 0.1086 0.0
O87 O 0.83641 0.38047 0.13016 0.0
O88 O 0.78855 0.33571 0.04325 0.0
O89 O 0.81494 0.42962 0.07908 0.0
O90 O 0.79575 0.40037 0.04822 0.0
C91 C 0.81574 0.363 0.1317 0.0
C92 C 0.87982 0.36994 0.05534 0.0
O93 O 0.85627 0.3553 0.05434 0.0
O94 O 0.87913 0.39248 0.068 0.0
C95 C 0.79418 0.31116 0.04894 0.0
O96 O 0.81481 0.30541 0.0687 0.0
C97 C 0.79798 0.42451 0.05746 0.0
Zn98 Zn 0.18847 0.58653 0.62865 0.0
Zn99 Zn 0.19901 0.62771 0.59448 0.0
O100 O 0.21666 0.63718 0.63563 0.0
O101 O 0.21434 0.59979 0.6615 0.0
O102 O 0.21361 0.65908 0.56966 0.0
O103 O 0.20424 0.55981 0.60012 0.0
O104 O 0.215 0.5944 0.57166 0.0
C105 C 0.22211 0.62419 0.65932 0.0
C106 C 0.13455 0.61564 0.61016 0.0
O107 O 0.1526 0.62943 0.59431 0.0
O108 O 0.1446 0.59731 0.62698 0.0
C109 C 0.21176 0.68312 0.5789 0.0
O110 O 0.19842 0.68757 0.60413 0.0
C111 C 0.21489 0.56904 0.57636 0.0
Zn112 Zn 0.65563 0.91077 0.123 0.0
Zn113 Zn 0.65866 0.8689 0.08687 0.0
O114 O 0.67447 0.90104 0.06195 0.0
O115 O 0.6732 0.93531 0.09236 0.0
O116 O 0.66595 0.83637 0.06172 0.0
O117 O 0.68296 0.89345 0.15239 0.0
O118 O 0.68253 0.85762 0.12419 0.0
C119 C 0.67897 0.92591 0.06724 0.0
C120 C 0.59753 0.88622 0.10892 0.0
O121 O 0.61291 0.87072 0.09263 0.0
O122 O 0.61056 0.90408 0.1242 0.0
C123 C 0.66718 0.8359 0.03382 0.0
O124 O 0.66172 0.85799 0.01876 0.0
C125 C 0.69088 0.86952 0.14754 0.0
Zn126 Zn 0.37221 0.11856 0.60738 0.0
Zn127 Zn 0.34902 0.1513 0.56661 0.0
O128 O 0.33793 0.1139 0.55043 0.0
O129 O 0.35389 0.08692 0.58578 0.0
O130 O 0.33074 0.17784 0.53778 0.0
O131 O 0.34966 0.13665 0.6393 0.0
O132 O 0.32724 0.16151 0.60552 0.0
C133 C 0.34095 0.0903 0.56119 0.0
C134 C 0.41742 0.14942 0.57799 0.0
O135 O 0.39497 0.15881 0.5638 0.0
O136 O 0.41367 0.13192 0.59796 0.0
C137 C 0.30279 0.17692 0.53189 0.0
O138 O 0.28629 0.15782 0.54384 0.0
C139 C 0.33073 0.15446 0.63232 0.0
Zn140 Zn 0.62574 0.09225 0.87532 0.0
Zn141 Zn 0.64625 0.13159 0.90766 0.0
O142 O 0.66104 0.09681 0.92836 0.0
O143 O 0.6516 0.065 0.8962 0.0
O144 O 0.66357 0.16114 0.93279 0.0
O145 O 0.64033 0.11147 0.83889 0.0
O146 O 0.66501 0.13984 0.86712 0.0
C147 C 0.6629 0.0723 0.92043 0.0
C148 C 0.57877 0.12141 0.90313 0.0
O149 O 0.60022 0.13741 0.90953 0.0
O150 O 0.58404 0.09938 0.89041 0.0
C151 C 0.69184 0.16168 0.93687 0.0
O152 O 0.7084 0.14282 0.92502 0.0
C153 C 0.65856 0.13087 0.84173 0.0
Zn154 Zn 0.37747 0.90146 0.39914 0.0
Zn155 Zn 0.35135 0.86439 0.42909 0.0
O156 O 0.33999 0.89963 0.45079 0.0
O157 O 0.35273 0.9303 0.41797 0.0
O158 O 0.32913 0.83497 0.45113 0.0
O159 O 0.36442 0.88521 0.36089 0.0
O160 O 0.33336 0.86043 0.38719 0.0
C161 C 0.3404 0.9241 0.44211 0.0
C162 C 0.41982 0.86861 0.42869 0.0
O163 O 0.39653 0.85407 0.43296 0.0
O164 O 0.41741 0.89154 0.41674 0.0
C165 C 0.32757 0.83336 0.47899 0.0
O166 O 0.34142 0.85151 0.495 0.0
C167 C 0.34276 0.86873 0.36229 0.0
Zn168 Zn 0.31281 0.08752 0.85565 0.0
Zn169 Zn 0.29264 0.12665 0.88944 0.0
O170 O 0.27778 0.13664 0.84755 0.0
O171 O 0.28813 0.10076 0.82149 0.0
O172 O 0.27503 0.1555 0.91495 0.0
O173 O 0.29649 0.05918 0.88319 0.0
O174 O 0.27681 0.09182 0.90913 0.0
C175 C 0.27666 0.12393 0.82332 0.0
C176 C 0.35985 0.12088 0.88079 0.0
O177 O 0.33813 0.13152 0.89463 0.0
O178 O 0.35488 0.10271 0.86195 0.0
C179 C 0.27399 0.18003 0.90696 0.0
O180 O 0.28488 0.18703 0.88119 0.0
C181 C 0.28093 0.06678 0.90483 0.0
Zn182 Zn 0.6802 0.90084 0.38032 0.0
Zn183 Zn 0.70465 0.86228 0.41289 0.0
O184 O 0.71968 0.85458 0.37033 0.0
O185 O 0.70291 0.88945 0.34514 0.0
O186 O 0.7256 0.83335 0.43664 0.0
O187 O 0.69842 0.92958 0.40526 0.0
O188 O 0.71935 0.89777 0.43231 0.0
C189 C 0.71787 0.86792 0.34635 0.0
C190 C 0.63638 0.86531 0.40704 0.0
O191 O 0.65938 0.85486 0.41931 0.0
O192 O 0.63936 0.88457 0.38891 0.0
C193 C 0.72332 0.80886 0.42899 0.0
O194 O 0.70658 0.80282 0.40611 0.0
C195 C 0.71501 0.92263 0.42658 0.0
Zn196 Zn 0.31794 0.93223 0.12606 0.0
Zn197 Zn 0.30743 0.88725 0.09696 0.0
O198 O 0.29242 0.8795 0.13922 0.0
O199 O 0.29722 0.91807 0.16218 0.0
O200 O 0.29415 0.85439 0.0745 0.0
O201 O 0.29592 0.95521 0.09706 0.0
O202 O 0.28825 0.91808 0.07216 0.0
C203 C 0.2894 0.89358 0.16233 0.0
C204 C 0.37202 0.90416 0.10631 0.0
O205 O 0.35357 0.88717 0.09555 0.0
O206 O 0.36233 0.92457 0.11987 0.0
C207 C 0.29457 0.83073 0.08525 0.0
O208 O 0.30527 0.82691 0.11189 0.0
C209 C 0.28541 0.9435 0.07467 0.0
Zn210 Zn 0.67816 0.09408 0.6009 0.0
Zn211 Zn 0.70226 0.13619 0.57368 0.0
O212 O 0.7132 0.14255 0.61749 0.0
O213 O 0.69336 0.10718 0.63963 0.0
O214 O 0.7238 0.1665 0.55248 0.0
O215 O 0.70287 0.0676 0.57928 0.0
O216 O 0.71889 0.10198 0.55278 0.0
C217 C 0.70803 0.12897 0.64081 0.0
C218 C 0.63458 0.12828 0.57119 0.0
O219 O 0.65736 0.14312 0.56588 0.0
O220 O 0.6377 0.10606 0.58465 0.0
C221 C 0.7211 0.19084 0.56043 0.0
O222 O 0.70352 0.19643 0.58273 0.0
C223 C 0.71811 0.07672 0.55804 0.0
H224 H 0.07127 0.35779 0.01779 0.0
H225 H 0.04847 0.35188 0.10974 0.0
H226 H 0.01824 0.3502 0.00469 0.0
H227 H 0.99606 0.34329 0.09675 0.0
H228 H 0.90463 0.3212 0.0674 0.0
H229 H 0.95849 0.31088 0.06559 0.0
H230 H 0.97498 0.38618 0.02068 0.0
H231 H 0.92154 0.39687 0.02344 0.0
C232 C 0.05511 0.35386 0.03508 0.0
C233 C 0.06369 0.35556 0.06474 0.0
C234 C 0.02491 0.34953 0.02761 0.0
C235 C 0.00322 0.34599 0.04973 0.0
C236 C 0.01241 0.34556 0.07928 0.0
C237 C 0.04229 0.35066 0.08672 0.0
C238 C 0.91965 0.33494 0.05603 0.0
C239 C 0.90916 0.35985 0.04564 0.0
C240 C 0.95039 0.32909 0.0551 0.0
C241 C 0.97076 0.34777 0.04304 0.0
C242 C 0.9597 0.37132 0.0298 0.0
C243 C 0.92918 0.37748 0.03144 0.0
H244 H 0.95021 0.57334 0.61989 0.0
H245 H 0.94202 0.653 0.58221 0.0
H246 H 0.00433 0.57788 0.6203 0.0
H247 H 0.99702 0.65777 0.5832 0.0
H248 H 0.10064 0.63857 0.56575 0.0
H249 H 0.04549 0.6395 0.56234 0.0
H250 H 0.03966 0.60396 0.64905 0.0
H251 H 0.094 0.60242 0.65209 0.0
C252 C 0.95995 0.59193 0.61174 0.0
C253 C 0.94166 0.61295 0.60137 0.0
C254 C 0.99109 0.59458 0.61212 0.0
C255 C 0.00501 0.61841 0.60236 0.0
C256 C 0.98693 0.63918 0.59093 0.0
C257 C 0.95548 0.63648 0.59044 0.0
C258 C 0.08746 0.63129 0.58415 0.0
C259 C 0.10164 0.61996 0.60895 0.0
C260 C 0.05593 0.63186 0.58223 0.0
C261 C 0.03821 0.62124 0.60516 0.0
C262 C 0.0526 0.61157 0.63062 0.0
C263 C 0.08382 0.61079 0.63242 0.0
H264 H 0.90744 0.69272 0.92937 0.0
H265 H 0.93105 0.61705 0.97003 0.0
H266 H 0.96018 0.70707 0.93194 0.0
H267 H 0.98334 0.63158 0.97337 0.0
H268 H 0.07702 0.66193 0.97561 0.0
H269 H 0.02421 0.66709 0.99021 0.0
H270 H 0.99988 0.6815 0.89954 0.0
H271 H 0.05214 0.67546 0.88505 0.0
C272 C 0.92363 0.67975 0.94018 0.0
C273 C 0.91537 0.65374 0.94933 0.0
C274 C 0.95376 0.6879 0.94154 0.0
C275 C 0.9758 0.67037 0.95272 0.0
C276 C 0.96681 0.64561 0.96491 0.0
C277 C 0.93692 0.63723 0.9629 0.0
C278 C 0.06046 0.66723 0.95908 0.0
C279 C 0.06839 0.66827 0.92925 0.0
C280 C 0.03033 0.6701 0.96739 0.0
C281 C 0.00802 0.67474 0.946 0.0
C282 C 0.01662 0.67832 0.91654 0.0
C283 C 0.04647 0.67474 0.9082 0.0
H284 H 0.08817 0.40186 0.33532 0.0
H285 H 0.09573 0.36796 0.42267 0.0
H286 H 0.03386 0.39902 0.33822 0.0
H287 H 0.04062 0.36578 0.42594 0.0
H288 H 0.94415 0.4289 0.36681 0.0
H289 H 0.99826 0.4251 0.36604 0.0
H290 H 0.99228 0.34616 0.4058 0.0
H291 H 0.93725 0.35019 0.40716 0.0
C292 C 0.07818 0.39369 0.35518 0.0
C293 C 0.09624 0.38555 0.37896 0.0
C294 C 0.04699 0.39217 0.35689 0.0
C295 C 0.03286 0.3828 0.38259 0.0
C296 C 0.05085 0.37315 0.40586 0.0
C297 C 0.08235 0.37444 0.40402 0.0
C298 C 0.95416 0.41065 0.37544 0.0
C299 C 0.93622 0.38971 0.38673 0.0
C300 C 0.98531 0.40842 0.37485 0.0
C301 C 0.99962 0.38509 0.3853 0.0
C302 C 0.9819 0.36437 0.39752 0.0
C303 C 0.95042 0.36665 0.39821 0.0
H304 H 0.40248 0.85862 0.08963 0.0
H305 H 0.41608 0.94052 0.1181 0.0
H306 H 0.45698 0.85157 0.09034 0.0
H307 H 0.46997 0.93373 0.1181 0.0
H308 H 0.55991 0.86179 0.06901 0.0
H309 H 0.50497 0.86459 0.067 0.0
H310 H 0.50545 0.90962 0.14791 0.0
H311 H 0.55989 0.90749 0.14947 0.0
C312 C 0.41706 0.87517 0.09571 0.0
C313 C 0.40491 0.90004 0.10413 0.0
C314 C 0.44826 0.87115 0.09606 0.0
C315 C 0.46782 0.89194 0.10478 0.0
C316 C 0.45557 0.91704 0.11207 0.0
C317 C 0.42459 0.92099 0.11188 0.0
C318 C 0.54818 0.87203 0.08649 0.0
C319 C 0.56427 0.88475 0.10918 0.0
C320 C 0.51673 0.87358 0.08536 0.0
C321 C 0.50085 0.88778 0.10698 0.0
C322 C 0.51699 0.8992 0.13043 0.0
C323 C 0.54824 0.89783 0.13143 0.0
H324 H 0.61164 0.17909 0.57413 0.0
H325 H 0.58848 0.09741 0.55156 0.0
H326 H 0.55846 0.19185 0.56977 0.0
H327 H 0.53581 0.11035 0.54616 0.0
H328 H 0.44462 0.14554 0.52472 0.0
H329 H 0.49911 0.14591 0.51592 0.0
H330 H 0.51432 0.1698 0.60577 0.0
H331 H 0.46016 0.16837 0.6148 0.0
C332 C 0.59534 0.16413 0.56733 0.0
C333 C 0.60401 0.13725 0.56333 0.0
C334 C 0.56503 0.17141 0.56486 0.0
C335 C 0.54321 0.1521 0.55745 0.0
C336 C 0.55227 0.12568 0.55152 0.0
C337 C 0.58233 0.11825 0.55479 0.0
C338 C 0.45963 0.15182 0.54219 0.0
C339 C 0.44841 0.15705 0.57037 0.0
C340 C 0.49069 0.15192 0.53721 0.0
C341 C 0.51077 0.15796 0.56017 0.0
C342 C 0.49928 0.16541 0.58764 0.0
C343 C 0.46837 0.16457 0.59281 0.0
H344 H 0.5501 0.1673 0.88635 0.0
H345 H 0.5365 0.091 0.93011 0.0
H346 H 0.49535 0.17389 0.88426 0.0
H347 H 0.48209 0.09813 0.92916 0.0
H348 H 0.38428 0.13418 0.93394 0.0
H349 H 0.43791 0.14069 0.9452 0.0
H350 H 0.45913 0.13227 0.85327 0.0
H351 H 0.40596 0.1247 0.84213 0.0
C352 C 0.53544 0.15256 0.8966 0.0
C353 C 0.54727 0.12869 0.90844 0.0
C354 C 0.50427 0.15629 0.89534 0.0
C355 C 0.48478 0.13656 0.90673 0.0
C356 C 0.49678 0.11373 0.9206 0.0
C357 C 0.52779 0.10964 0.92108 0.0
C358 C 0.40039 0.13425 0.91613 0.0
C359 C 0.39114 0.12877 0.88721 0.0
C360 C 0.43092 0.13799 0.92257 0.0
C361 C 0.45235 0.13721 0.90001 0.0
C362 C 0.44287 0.13329 0.87092 0.0
C363 C 0.41257 0.12879 0.86461 0.0
H364 H 0.44581 0.82264 0.40912 0.0
H365 H 0.46258 0.89344 0.46098 0.0
H366 H 0.50004 0.81347 0.408 0.0
H367 H 0.51642 0.8838 0.46082 0.0
H368 H 0.61313 0.85321 0.46115 0.0
H369 H 0.55975 0.84603 0.47302 0.0
H370 H 0.5378 0.84904 0.3806 0.0
H371 H 0.5906 0.85718 0.36891 0.0
C372 C 0.46097 0.83547 0.4214 0.0
C373 C 0.45022 0.85867 0.43521 0.0
C374 C 0.4919 0.83031 0.42066 0.0
C375 C 0.51229 0.84792 0.43438 0.0
C376 C 0.50116 0.86974 0.4504 0.0
C377 C 0.47041 0.87528 0.45045 0.0
C378 C 0.59691 0.85164 0.44344 0.0
C379 C 0.60579 0.85586 0.41416 0.0
C380 C 0.56649 0.84757 0.45021 0.0
C381 C 0.5448 0.84681 0.42769 0.0
C382 C 0.55412 0.84916 0.39832 0.0
C383 C 0.58426 0.85399 0.39165 0.0
H384 H 0.15182 0.33946 0.17829 0.0
H385 H 0.23676 0.36656 0.14351 0.0
H386 H 0.17439 0.33358 0.22656 0.0
H387 H 0.25977 0.36094 0.1923 0.0
H388 H 0.24718 0.40754 0.28389 0.0
H389 H 0.24796 0.39137 0.23368 0.0
H390 H 0.21091 0.31531 0.26263 0.0
H391 H 0.21006 0.33169 0.31321 0.0
C392 C 0.17573 0.34303 0.18083 0.0
C393 C 0.1926 0.3535 0.15743 0.0
C394 C 0.18878 0.33954 0.20847 0.0
C395 C 0.21887 0.34704 0.21339 0.0
C396 C 0.23651 0.3551 0.18919 0.0
C397 C 0.22345 0.3582 0.16129 0.0
C398 C 0.24038 0.38696 0.27974 0.0
C399 C 0.2279 0.3711 0.3023 0.0
C400 C 0.24102 0.37757 0.25091 0.0
C401 C 0.22887 0.35224 0.24405 0.0
C402 C 0.22003 0.33507 0.26723 0.0
C403 C 0.21968 0.34441 0.29621 0.0
H404 H 0.78416 0.60266 0.69469 0.0
H405 H 0.83345 0.67493 0.67283 0.0
H406 H 0.77692 0.61888 0.74456 0.0
H407 H 0.82675 0.69103 0.72322 0.0
H408 H 0.86522 0.65896 0.81718 0.0
H409 H 0.85449 0.66512 0.76508 0.0
H410 H 0.75965 0.65524 0.78211 0.0
H411 H 0.7705 0.6498 0.83483 0.0
C412 C 0.79243 0.6225 0.70032 0.0
C413 C 0.80967 0.63743 0.68018 0.0
C414 C 0.78811 0.63189 0.7288 0.0
C415 C 0.80153 0.65609 0.73778 0.0
C416 C 0.81621 0.67229 0.71677 0.0
C417 C 0.81998 0.66312 0.68799 0.0
C418 C 0.842 0.65907 0.80991 0.0
C419 C 0.81869 0.65364 0.82977 0.0
C420 C 0.83581 0.66284 0.78014 0.0
C421 C 0.80623 0.66062 0.76958 0.0
C422 C 0.78262 0.65716 0.78978 0.0
C423 C 0.78881 0.65404 0.81982 0.0
H424 H 0.23707 0.65206 0.84514 0.0
H425 H 0.15205 0.67408 0.80641 0.0
H426 H 0.26074 0.6546 0.79644 0.0
H427 H 0.17539 0.67713 0.75825 0.0
H428 H 0.21443 0.6772 0.67287 0.0
H429 H 0.21346 0.6955 0.7226 0.0
H430 H 0.24939 0.62092 0.75654 0.0
H431 H 0.25027 0.6027 0.7071 0.0
C432 C 0.22383 0.65862 0.82642 0.0
C433 C 0.1928 0.66274 0.82926 0.0
C434 C 0.23729 0.65998 0.7986 0.0
C435 C 0.21991 0.66595 0.77348 0.0
C436 C 0.18954 0.67281 0.7771 0.0
C437 C 0.17606 0.67091 0.80466 0.0
C438 C 0.22339 0.66518 0.69079 0.0
C439 C 0.23177 0.6383 0.68626 0.0
C440 C 0.22272 0.67563 0.71928 0.0
C441 C 0.23078 0.65946 0.74353 0.0
C442 C 0.24306 0.63393 0.73838 0.0
C443 C 0.24338 0.62339 0.71001 0.0
H444 H 0.76 0.35739 0.15612 0.0
H445 H 0.85438 0.34484 0.17283 0.0
H446 H 0.74945 0.35047 0.20865 0.0
H447 H 0.84399 0.33733 0.22471 0.0
H448 H 0.82502 0.32758 0.31684 0.0
H449 H 0.81686 0.31216 0.26636 0.0
H450 H 0.7675 0.3848 0.24705 0.0
H451 H 0.77608 0.40026 0.29702 0.0
C452 C 0.77824 0.35204 0.17083 0.0
C453 C 0.80801 0.35192 0.16074 0.0
C454 C 0.77224 0.34811 0.20079 0.0
C455 C 0.79591 0.34341 0.22075 0.0
C456 C 0.82524 0.34057 0.20989 0.0
C457 C 0.83126 0.3451 0.18023 0.0
C458 C 0.81133 0.33963 0.30212 0.0
C459 C 0.80156 0.36526 0.31052 0.0
C460 C 0.80672 0.33085 0.27326 0.0
C461 C 0.79183 0.34742 0.25273 0.0
C462 C 0.77888 0.3715 0.26237 0.0
C463 C 0.78397 0.38047 0.29094 0.0
H464 H 0.74813 0.89722 0.30638 0.0
H465 H 0.71528 0.81703 0.32377 0.0
H466 H 0.75344 0.88683 0.25494 0.0
H467 H 0.72105 0.806 0.2716 0.0
H468 H 0.66918 0.83113 0.18398 0.0
H469 H 0.68902 0.82076 0.23262 0.0
H470 H 0.7698 0.86571 0.21217 0.0
H471 H 0.74868 0.87739 0.16416 0.0
C472 C 0.74332 0.8769 0.29924 0.0
C473 C 0.73089 0.85806 0.31879 0.0
C474 C 0.74653 0.87076 0.26963 0.0
C475 C 0.73709 0.84565 0.25879 0.0
C476 C 0.728 0.82569 0.27911 0.0
C477 C 0.72497 0.83187 0.309 0.0
C478 C 0.6917 0.83777 0.18954 0.0
C479 C 0.70737 0.85521 0.17072 0.0
C480 C 0.70324 0.83176 0.21743 0.0
C481 C 0.73074 0.84304 0.22674 0.0
C482 C 0.74818 0.85734 0.20606 0.0
C483 C 0.73628 0.86387 0.17848 0.0
H484 H 0.25397 0.10073 0.77409 0.0
H485 H 0.27941 0.1776 0.81021 0.0
H486 H 0.25541 0.1198 0.72483 0.0
H487 H 0.28103 0.19682 0.7606 0.0
H488 H 0.27004 0.15029 0.63772 0.0
H489 H 0.24272 0.15236 0.68442 0.0
H490 H 0.3226 0.18316 0.72685 0.0
H491 H 0.34958 0.18066 0.68057 0.0
C492 C 0.25866 0.12202 0.77155 0.0
C493 C 0.26721 0.13753 0.79587 0.0
C494 C 0.25927 0.13306 0.74328 0.0
C495 C 0.26887 0.15973 0.73877 0.0
C496 C 0.27384 0.17613 0.76342 0.0
C497 C 0.27281 0.16514 0.79183 0.0
C498 C 0.28113 0.15878 0.65677 0.0
C499 C 0.31182 0.16526 0.6558 0.0
C500 C 0.26561 0.15982 0.6835 0.0
C501 C 0.28059 0.16763 0.7094 0.0
C502 C 0.31026 0.17728 0.70736 0.0
C503 C 0.32582 0.17579 0.68086 0.0
H504 H 0.71822 0.1384 0.83066 0.0
H505 H 0.62987 0.14801 0.79292 0.0
H506 H 0.7408 0.14758 0.78227 0.0
H507 H 0.65218 0.15813 0.74518 0.0
H508 H 0.7354 0.1025 0.68543 0.0
H509 H 0.73146 0.11358 0.73744 0.0
H510 H 0.69004 0.18924 0.71451 0.0
H511 H 0.69493 0.17843 0.6622 0.0
C512 C 0.70378 0.14354 0.81227 0.0
C513 C 0.67241 0.14239 0.81521 0.0
C514 C 0.71663 0.14879 0.78472 0.0
C515 C 0.69821 0.15372 0.76012 0.0
C516 C 0.66692 0.15483 0.76385 0.0
C517 C 0.65413 0.14884 0.79106 0.0
C518 C 0.72692 0.12209 0.69152 0.0
C519 C 0.71539 0.13961 0.67002 0.0
C520 C 0.72474 0.12849 0.72125 0.0
C521 C 0.71025 0.15217 0.72991 0.0
C522 C 0.70139 0.1709 0.7083 0.0
C523 C 0.70428 0.16477 0.67845 0.0
H524 H 0.26389 0.91652 0.21032 0.0
H525 H 0.30122 0.84195 0.17913 0.0
H526 H 0.2686 0.90048 0.26088 0.0
H527 H 0.30649 0.82613 0.22989 0.0
H528 H 0.2825 0.86636 0.35108 0.0
H529 H 0.2588 0.86377 0.30227 0.0
H530 H 0.3459 0.85108 0.26322 0.0
H531 H 0.36941 0.85454 0.3115 0.0
C532 C 0.27198 0.89628 0.21424 0.0
C533 C 0.28262 0.88065 0.19088 0.0
C534 C 0.27454 0.88703 0.24319 0.0
C535 C 0.28826 0.86221 0.24924 0.0
C536 C 0.29592 0.84538 0.22574 0.0
C537 C 0.2928 0.85443 0.19671 0.0
C538 C 0.29632 0.86216 0.33209 0.0
C539 C 0.32772 0.86081 0.33482 0.0
C540 C 0.28281 0.86071 0.30427 0.0
C541 C 0.30052 0.85713 0.27905 0.0
C542 C 0.33164 0.85347 0.28229 0.0
C543 C 0.34515 0.85563 0.30986 0.0
H544 H 0.25423 0.17307 0.96331 0.0
H545 H 0.26259 0.23294 0.8945 0.0
H546 H 0.23118 0.20625 0.99513 0.0
H547 H 0.2387 0.26599 0.92606 0.0
H548 H 0.22237 0.32493 0.0013 0.0
H549 H 0.2468 0.29225 0.96964 0.0
H550 H 0.18531 0.23073 0.00018 0.0
H551 H 0.16151 0.26316 0.03239 0.0
C552 C 0.25102 0.19329 0.95491 0.0
C553 C 0.26022 0.20034 0.92634 0.0
C554 C 0.23762 0.2123 0.97311 0.0
C555 C 0.23292 0.23879 0.96313 0.0
C556 C 0.2423 0.24587 0.9346 0.0
C557 C 0.25585 0.22687 0.91643 0.0
C558 C 0.21409 0.30442 0.00125 0.0
C559 C 0.19006 0.29663 0.01944 0.0
C560 C 0.22799 0.28571 0.98297 0.0
C561 C 0.21808 0.25882 0.98239 0.0
C562 C 0.19388 0.25114 0.00044 0.0
C563 C 0.18009 0.2698 0.0188 0.0
H564 H 0.80764 0.70535 0.56035 0.0
H565 H 0.82462 0.6657 0.47781 0.0
H566 H 0.78229 0.74171 0.53422 0.0
H567 H 0.79985 0.7024 0.45162 0.0
H568 H 0.72222 0.75478 0.41876 0.0
H569 H 0.74962 0.71959 0.44473 0.0
H570 H 0.79009 0.77931 0.50109 0.0
H571 H 0.76211 0.81452 0.47549 0.0
C572 C 0.80628 0.70452 0.53659 0.0
C573 C 0.81806 0.68251 0.5212 0.0
C574 C 0.79185 0.72546 0.52158 0.0
C575 C 0.78886 0.72495 0.4908 0.0
C576 C 0.80128 0.70323 0.47537 0.0
C577 C 0.81569 0.68227 0.49038 0.0
C578 C 0.73692 0.76044 0.43671 0.0
C579 C 0.73991 0.78749 0.44506 0.0
C580 C 0.75284 0.74025 0.45148 0.0
C581 C 0.7722 0.74659 0.47494 0.0
C582 C 0.77514 0.77366 0.48333 0.0
C583 C 0.75918 0.79388 0.46857 0.0
H584 H 0.26989 0.83206 0.03017 0.0
H585 H 0.28892 0.77812 0.10269 0.0
H586 H 0.24545 0.79551 0.00388 0.0
H587 H 0.26489 0.74137 0.07606 0.0
H588 H 0.18706 0.69281 0.03425 0.0
H589 H 0.21445 0.72781 0.06058 0.0
H590 H 0.25605 0.75341 0.97933 0.0
H591 H 0.22831 0.71881 0.95293 0.0
C592 C 0.26912 0.81234 0.04041 0.0
C593 C 0.28131 0.80805 0.06859 0.0
C594 C 0.25523 0.79133 0.02524 0.0
C595 C 0.25317 0.7655 0.03787 0.0
C596 C 0.26575 0.76111 0.06587 0.0
C597 C 0.2797 0.78214 0.08105 0.0
C598 C 0.20213 0.70584 0.02202 0.0
C599 C 0.20536 0.70308 0.99146 0.0
C600 C 0.21797 0.72581 0.03715 0.0
C601 C 0.23738 0.74347 0.02205 0.0
C602 C 0.24095 0.7404 0.99156 0.0
C603 C 0.22514 0.72045 0.97645 0.0
H604 H 0.76068 0.18609 0.51474 0.0
H605 H 0.71935 0.24488 0.57114 0.0
H606 H 0.78818 0.22189 0.48954 0.0
H607 H 0.74632 0.28069 0.54553 0.0
H608 H 0.82023 0.33631 0.51239 0.0
H609 H 0.79617 0.2992 0.53868 0.0
H610 H 0.7794 0.25911 0.45624 0.0
H611 H 0.80402 0.29589 0.43001 0.0
C612 C 0.75737 0.20665 0.52171 0.0
C613 C 0.73776 0.21259 0.54497 0.0
C614 C 0.77305 0.22721 0.50716 0.0
C615 C 0.76951 0.25421 0.51548 0.0
C616 C 0.74996 0.26011 0.53881 0.0
C617 C 0.7343 0.23956 0.55338 0.0
C618 C 0.81163 0.31948 0.49987 0.0
C619 C 0.81402 0.31914 0.46907 0.0
C620 C 0.79763 0.29828 0.51495 0.0
C621 C 0.78566 0.27621 0.49959 0.0
C622 C 0.78863 0.27562 0.46882 0.0
C623 C 0.80264 0.29681 0.45375 0.0
H624 H 0.67545 0.828 0.97477 0.0
H625 H 0.68344 0.78818 0.05918 0.0
H626 H 0.69783 0.78894 0.95108 0.0
H627 H 0.70547 0.74922 0.03546 0.0
H628 H 0.78092 0.70369 0.98804 0.0
H629 H 0.75392 0.74039 0.01121 0.0
H630 H 0.68942 0.74044 0.9401 0.0
H631 H 0.7166 0.70377 0.91668 0.0
C632 C 0.68162 0.81083 0.98823 0.0
C633 C 0.67787 0.81132 0.0189 0.0
C634 C 0.69434 0.78841 0.97463 0.0
C635 C 0.70367 0.76612 0.99146 0.0
C636 C 0.69897 0.76628 0.02197 0.0
C637 C 0.68617 0.78857 0.03553 0.0
C638 C 0.76092 0.71142 0.97737 0.0
C639 C 0.75095 0.7008 0.95049 0.0
C640 C 0.74534 0.73236 0.99075 0.0
C641 C 0.7195 0.74327 0.9775 0.0
C642 C 0.7094 0.73259 0.9507 0.0
C643 C 0.72489 0.71149 0.93739 0.0
H644 H 0.24467 0.17893 0.51232 0.0
H645 H 0.32875 0.22258 0.50923 0.0
H646 H 0.2207 0.21443 0.48348 0.0
H647 H 0.30477 0.25797 0.48017 0.0
H648 H 0.24284 0.32943 0.45903 0.0
H649 H 0.26661 0.2934 0.48723 0.0
H650 H 0.22134 0.2344 0.43358 0.0
H651 H 0.19733 0.2704 0.40547 0.0
C652 C 0.2581 0.19601 0.50536 0.0
C653 C 0.28864 0.19791 0.51315 0.0
C654 C 0.24437 0.21631 0.48871 0.0
C655 C 0.26079 0.23908 0.47961 0.0
C656 C 0.2914 0.24086 0.48716 0.0
C657 C 0.30519 0.22047 0.50365 0.0
C658 C 0.23784 0.30878 0.45329 0.0
C659 C 0.21815 0.30283 0.42997 0.0
C660 C 0.25166 0.28813 0.46933 0.0
C661 C 0.24597 0.26102 0.46258 0.0
C662 C 0.22601 0.25506 0.43949 0.0
C663 C 0.21234 0.27572 0.42331 0.0
H664 H 0.80278 0.25705 0.05475 0.0
H665 H 0.74934 0.31575 0.00778 0.0
H666 H 0.77721 0.22098 0.02863 0.0
H667 H 0.72402 0.27956 0.98132 0.0
H668 H 0.66492 0.20563 0.96146 0.0
H669 H 0.6889 0.24171 0.98929 0.0
H670 H 0.77503 0.20324 0.97864 0.0
H671 H 0.75113 0.16708 0.95124 0.0
C672 C 0.78559 0.26229 0.03884 0.0
C673 C 0.77818 0.28931 0.03331 0.0
C674 C 0.77104 0.24159 0.02375 0.0
C675 C 0.74866 0.24739 0.00281 0.0
C676 C 0.74096 0.2744 -0.00248 0.0
C677 C 0.7556 0.29515 0.01257 0.0
C678 C 0.68896 0.20483 0.96514 0.0
C679 C 0.7061 0.18345 0.95414 0.0
C680 C 0.70271 0.22559 0.98094 0.0
C681 C 0.73387 0.22534 0.98619 0.0
C682 C 0.75093 0.20387 0.97531 0.0
C683 C 0.73723 0.1832 0.95945 0.0
H684 H 0.24494 0.68047 0.52833 0.0
H685 H 0.21268 0.73646 0.59318 0.0
H686 H 0.27243 0.71679 0.50401 0.0
H687 H 0.23964 0.77284 0.56851 0.0
H688 H 0.31978 0.82377 0.53782 0.0
H689 H 0.2909 0.78774 0.56103 0.0
H690 H 0.26601 0.75763 0.47545 0.0
H691 H 0.29539 0.79332 0.45223 0.0
C692 C 0.24343 0.70057 0.53723 0.0
C693 C 0.22667 0.7055 0.56279 0.0
C694 C 0.25911 0.72144 0.5232 0.0
C695 C 0.25841 0.74776 0.53438 0.0
C696 C 0.24112 0.75275 0.55959 0.0
C697 C 0.22546 0.7319 0.57361 0.0
C698 C 0.30817 0.80946 0.52393 0.0
C699 C 0.30997 0.81145 0.49315 0.0
C700 C 0.29142 0.78889 0.53725 0.0
C701 C 0.27603 0.76979 0.52013 0.0
C702 C 0.27785 0.77178 0.48933 0.0
C703 C 0.2946 0.79235 0.47601 0.0
H704 H 0.18927 0.5451 0.91533 0.0
H705 H 0.16725 0.59028 0.99284 0.0
H706 H 0.19702 0.50498 0.94531 0.0
H707 H 0.17209 0.54993 0.02275 0.0
H708 H 0.18852 0.4765 0.0757 0.0
H709 H 0.19713 0.51663 0.04588 0.0
H710 H 0.17085 0.47226 0.96823 0.0
H711 H 0.16508 0.43192 -0.00207 0.0
C712 C 0.18617 0.54635 0.9389 0.0
C713 C 0.17764 0.57067 0.95183 0.0
C714 C 0.19021 0.52326 0.95615 0.0
C715 C 0.18464 0.52369 0.98666 0.0
C716 C 0.17715 0.54851 -0.00043 0.0
C717 C 0.17415 0.57178 0.98241 0.0
C718 C 0.18527 0.47538 0.05212 0.0
C719 C 0.17613 0.45121 0.03907 0.0
C720 C 0.18983 0.49847 0.03496 0.0
C721 C 0.18424 0.4982 0.00443 0.0
C722 C 0.17601 0.47354 0.99142 0.0
C723 C 0.17246 0.45027 0.00849 0.0
H724 H 0.79424 0.52151 0.58079 0.0
H725 H 0.82254 0.57671 0.51256 0.0
H726 H 0.78302 0.48759 0.54395 0.0
H727 H 0.81273 0.5425 0.47575 0.0
H728 H 0.78985 0.48028 0.41142 0.0
H729 H 0.78075 0.51417 0.44873 0.0
H730 H 0.81324 0.45917 0.51558 0.0
H731 H 0.82092 0.42499 0.47836 0.0
C732 C 0.79767 0.5265 0.55782 0.0
C733 C 0.80961 0.55162 0.54953 0.0
C734 C 0.79145 0.50698 0.53671 0.0
C735 C 0.79751 0.512 0.50687 0.0
C736 C 0.80749 0.53788 0.49845 0.0
C737 C 0.81325 0.55756 0.51957 0.0
C738 C 0.79432 0.47526 0.43423 0.0
C739 C 0.80644 0.45013 0.44199 0.0
C740 C 0.78933 0.49476 0.45559 0.0
C741 C 0.79683 0.48972 0.48514 0.0
C742 C 0.80692 0.46382 0.49312 0.0
C743 C 0.81145 0.44415 0.47177 0.0
H744 H 0.79574 0.47697 0.07403 0.0
H745 H 0.77041 0.42387 0.00328 0.0
H746 H 0.78641 0.51558 0.04279 0.0
H747 H 0.75983 0.46288 0.97204 0.0
H748 H 0.8084 0.53069 0.91864 0.0
H749 H 0.79419 0.49231 0.94841 0.0
H750 H 0.7572 0.54545 0.01378 0.0
H751 H 0.77259 0.58427 0.98412 0.0
C752 C 0.78729 0.47353 0.05201 0.0
C753 C 0.78461 0.4473 0.0409 0.0
C754 C 0.7816 0.49581 0.03409 0.0
C755 C 0.77291 0.49244 0.00461 0.0
C756 C 0.76721 0.4662 0.99444 0.0
C757 C 0.77307 0.44382 0.0124 0.0
C758 C 0.79675 0.53429 0.93911 0.0
C759 C 0.79232 0.5606 0.94933 0.0
C760 C 0.78823 0.51214 0.95613 0.0
C761 C 0.77489 0.51567 0.9838 0.0
C762 C 0.76799 0.54199 0.99285 0.0
C763 C 0.77667 0.56426 0.97579 0.0
H764 H 0.23681 0.42804 0.46467 0.0
H765 H 0.20409 0.49359 0.41074 0.0
H766 H 0.24743 0.45964 0.50428 0.0
H767 H 0.21331 0.52472 0.45037 0.0
H768 H 0.23814 0.58034 0.52164 0.0
H769 H 0.24573 0.54878 0.48145 0.0
H770 H 0.2181 0.4832 0.53825 0.0
H771 H 0.21195 0.51431 0.57838 0.0
C772 C 0.23213 0.44918 0.46115 0.0
C773 C 0.21925 0.45819 0.43465 0.0
C774 C 0.23805 0.46731 0.48392 0.0
C775 C 0.23093 0.49479 0.48077 0.0
C776 C 0.21952 0.50387 0.45364 0.0
C777 C 0.21392 0.48587 0.43088 0.0
C778 C 0.23433 0.5591 0.52565 0.0
C779 C 0.22403 0.54995 0.55313 0.0
C780 C 0.23847 0.54099 0.50256 0.0
C781 C 0.2321 0.51339 0.50636 0.0
C782 C 0.22358 0.50416 0.5344 0.0
C783 C 0.21975 0.52216 0.55748 0.0
H784 H 0.68345 0.02233 0.9065 0.0
H785 H 0.66979 0.07547 0.97992 0.0
H786 H 0.69658 0.98598 0.94028 0.0
H787 H 0.68128 0.03897 0.01377 0.0
H788 H 0.70909 0.97335 0.07252 0.0
H789 H 0.71425 0.00857 0.03542 0.0
H790 H 0.67061 0.95708 0.97184 0.0
H791 H 0.66714 0.92149 0.0086 0.0
C792 C 0.68351 0.02629 0.9299 0.0
C793 C 0.67532 0.05168 0.94059 0.0
C794 C 0.69082 0.00539 0.9493 0.0
C795 C 0.68959 0.00925 0.97988 0.0
C796 C 0.68292 0.03515 0.99043 0.0
C797 C 0.67613 0.05616 0.971 0.0
C798 C 0.70132 0.9694 0.05037 0.0
C799 C 0.68746 0.94481 0.04348 0.0
C800 C 0.704 0.98968 0.02914 0.0
C801 C 0.69225 0.98605 0.00069 0.0
C802 C 0.68019 0.96069 0.99335 0.0
C803 C 0.67808 0.9402 0.01447 0.0
H804 H 0.31206 0.97 0.42542 0.0
H805 H 0.34633 0.92786 0.50149 0.0
H806 H 0.30352 0.00982 0.45507 0.0
H807 H 0.34014 0.96813 0.53089 0.0
H808 H 0.32276 0.04158 0.58251 0.0
H809 H 0.31357 1.00057 0.55488 0.0
H810 H 0.3319 0.04392 0.47399 0.0
H811 H 0.33884 0.08505 0.50166 0.0
C812 C 0.31744 0.96925 0.44866 0.0
C813 C 0.32993 0.94597 0.46121 0.0
C814 C 0.31294 0.99219 0.46564 0.0
C815 C 0.32178 0.99269 0.49539 0.0
C816 C 0.33269 0.96871 0.50823 0.0
C817 C 0.33637 0.94551 0.49138 0.0
C818 C 0.3242 0.04233 0.55875 0.0
C819 C 0.33166 0.06644 0.54421 0.0
C820 C 0.31921 0.01874 0.54285 0.0
C821 C 0.32239 0.01853 0.51206 0.0
C822 C 0.32868 0.04308 0.49755 0.0
C823 C 0.3329 0.06678 0.51342 0.0
H824 H 0.2778 0.99784 0.07325 0.0
H825 H 0.26582 0.92667 0.02041 0.0
H826 H 0.26785 0.0259 0.03076 0.0
H827 H 0.25458 0.95498 0.97772 0.0
H828 H 0.29332 0.01308 0.90639 0.0
H829 H 0.28517 0.98201 0.94683 0.0
H830 H 0.23632 0.0433 0.99357 0.0
H831 H 0.24565 0.07491 0.95335 0.0
C832 C 0.27227 0.98812 0.05269 0.0
C833 C 0.27321 0.95997 0.05015 0.0
C834 C 0.26624 0.00431 0.02824 0.0
C835 C 0.26075 0.99279 0.00058 0.0
C836 C 0.25935 0.96455 -0.00146 0.0
C837 C 0.26559 0.94831 0.02306 0.0
C838 C 0.28037 0.01986 0.92503 0.0
C839 C 0.27066 0.04668 0.92686 0.0
C840 C 0.27544 1.00188 0.94823 0.0
C841 C 0.26042 0.01018 0.97376 0.0
C842 C 0.24859 0.0364 0.97455 0.0
C843 C 0.25379 0.0545 0.95142 0.0
H844 H 0.74793 0.03088 0.572 0.0
H845 H 0.71656 0.07814 0.49839 0.0
H846 H 0.75834 0.9934 0.53938 0.0
H847 H 0.72457 0.04028 0.46593 0.0
H848 H 0.73818 0.97067 0.40931 0.0
H849 H 0.75077 0.00889 0.44024 0.0
H850 H 0.72948 0.96111 0.5174 0.0
H851 H 0.71929 0.92256 0.48629 0.0
C852 C 0.74382 0.03333 0.54864 0.0
C853 C 0.73137 0.05726 0.53762 0.0
C854 C 0.74935 0.01173 0.52996 0.0
C855 C 0.74156 0.01328 0.49998 0.0
C856 C 0.73121 0.03812 0.48871 0.0
C857 C 0.7265 0.05997 0.50733 0.0
C858 C 0.73702 0.96829 0.43297 0.0
C859 C 0.72758 0.94383 0.4455 0.0
C860 C 0.74393 0.99027 0.45075 0.0
C861 C 0.74056 0.98855 0.48147 0.0
C862 C 0.73279 0.9634 0.49397 0.0
C863 C 0.72673 0.94119 0.47616 0.0
loop_
_geom_bond_atom_site_label_1
_geom_bond_atom_site_label_2
_geom_bond_distance
_geom_bond_site_symmetry_2
_ccdc_geom_bond_type
Zn0 O3 2.031 . S
Zn0 O5 2.049 . S
Zn0 O10 2.067 . S
Zn1 O2 1.962 . S
Zn1 O4 1.986 . S
Zn1 O6 1.996 . S
Zn1 O9 1.943 . S
O2 Zn1 1.962 . S
O2 C7 1.254 . S
O3 Zn0 2.031 . S
O3 C7 1.269 . S
O4 Zn1 1.986 . S
O4 C11 1.262 . S
O5 Zn0 2.049 . S
O5 C13 1.260 . S
O6 Zn1 1.996 . S
O6 C13 1.257 . S
C7 O2 1.254 . S
C7 O3 1.269 . S
C8 O9 1.249 . S
C8 O10 1.270 . S
O9 Zn1 1.943 . S
O9 C8 1.249 . S
O10 Zn0 2.067 . S
O10 C8 1.270 . S
C11 O4 1.262 . S
C11 O12 1.232 . S
O12 C11 1.232 . S
C13 O5 1.260 . S
C13 O6 1.257 . S
Zn14 O17 2.031 . S
Zn14 O19 2.049 . S
Zn14 O24 2.067 . S
Zn15 O16 1.962 . S
Zn15 O18 1.986 . S
Zn15 O20 1.996 . S
Zn15 O23 1.943 . S
O16 Zn15 1.962 . S
O16 C21 1.254 . S
O17 Zn14 2.031 . S
O17 C21 1.269 . S
O18 Zn15 1.986 . S
O18 C25 1.262 . S
O19 Zn14 2.049 . S
O19 C27 1.260 . S
O20 Zn15 1.996 . S
O20 C27 1.257 . S
C21 O16 1.254 . S
C21 O17 1.269 . S
C22 O23 1.249 . S
C22 O24 1.270 . S
O23 Zn15 1.943 . S
O23 C22 1.249 . S
O24 Zn14 2.067 . S
O24 C22 1.270 . S
C25 O18 1.262 . S
C25 O26 1.232 . S
O26 C25 1.232 . S
C27 O19 1.260 . S
C27 O20 1.257 . S
Zn28 O31 2.031 . S
Zn28 O33 2.049 . S
Zn28 O38 2.067 . S
Zn29 O30 1.962 . S
Zn29 O32 1.986 . S
Zn29 O34 1.996 . S
Zn29 O37 1.943 . S
O30 Zn29 1.962 . S
O30 C35 1.254 . S
O31 Zn28 2.031 . S
O31 C35 1.269 . S
O32 Zn29 1.986 . S
O32 C39 1.262 . S
O33 Zn28 2.049 . S
O33 C41 1.260 . S
O34 Zn29 1.996 . S
O34 C41 1.257 . S
C35 O30 1.254 . S
C35 O31 1.269 . S
C36 O37 1.249 . S
C36 O38 1.270 . S
O37 Zn29 1.943 . S
O37 C36 1.249 . S
O38 Zn28 2.067 . S
O38 C36 1.270 . S
C39 O32 1.262 . S
C39 O40 1.232 . S
O40 C39 1.232 . S
C41 O33 1.260 . S
C41 O34 1.257 . S
Zn42 O45 2.031 . S
Zn42 O47 2.049 . S
Zn42 O52 2.067 . S
Zn43 O44 1.962 . S
Zn43 O46 1.986 . S
Zn43 O48 1.996 . S
Zn43 O51 1.943 . S
O44 Zn43 1.962 . S
O44 C49 1.254 . S
O45 Zn42 2.031 . S
O45 C49 1.269 . S
O46 Zn43 1.986 . S
O46 C53 1.262 . S
O47 Zn42 2.049 . S
O47 C55 1.260 . S
O48 Zn43 1.996 . S
O48 C55 1.257 . S
C49 O44 1.254 . S
C49 O45 1.269 . S
C50 O51 1.249 . S
C50 O52 1.270 . S
O51 Zn43 1.943 . S
O51 C50 1.249 . S
O52 Zn42 2.067 . S
O52 C50 1.270 . S
C53 O46 1.262 . S
C53 O54 1.232 . S
O54 C53 1.232 . S
C55 O47 1.260 . S
C55 O48 1.257 . S
Zn56 O59 2.031 . S
Zn56 O61 2.049 . S
Zn56 O66 2.067 . S
Zn57 O58 1.962 . S
Zn57 O60 1.986 . S
Zn57 O62 1.996 . S
Zn57 O65 1.943 . S
O58 Zn57 1.962 . S
O58 C63 1.254 . S
O59 Zn56 2.031 . S
O59 C63 1.269 . S
O60 Zn57 1.986 . S
O60 C67 1.262 . S
O61 Zn56 2.049 . S
O61 C69 1.260 . S
O62 Zn57 1.996 . S
O62 C69 1.257 . S
C63 O58 1.254 . S
C63 O59 1.269 . S
C64 O65 1.249 . S
C64 O66 1.270 . S
O65 Zn57 1.943 . S
O65 C64 1.249 . S
O66 Zn56 2.067 . S
O66 C64 1.270 . S
C67 O60 1.262 . S
C67 O68 1.232 . S
O68 C67 1.232 . S
C69 O61 1.260 . S
C69 O62 1.257 . S
Zn70 O73 2.031 . S
Zn70 O75 2.049 . S
Zn70 O80 2.067 . S
Zn71 O72 1.962 . S
Zn71 O74 1.986 . S
Zn71 O76 1.996 . S
Zn71 O79 1.943 . S
O72 Zn71 1.962 . S
O72 C77 1.254 . S
O73 Zn70 2.031 . S
O73 C77 1.269 . S
O74 Zn71 1.986 . S
O74 C81 1.262 . S
O75 Zn70 2.049 . S
O75 C83 1.260 . S
O76 Zn71 1.996 . S
O76 C83 1.257 . S
C77 O72 1.254 . S
C77 O73 1.269 . S
C78 O79 1.249 . S
C78 O80 1.270 . S
O79 Zn71 1.943 . S
O79 C78 1.249 . S
O80 Zn70 2.067 . S
O80 C78 1.270 . S
C81 O74 1.262 . S
C81 O82 1.232 . S
O82 C81 1.232 . S
C83 O75 1.260 . S
C83 O76 1.257 . S
Zn84 O87 2.031 . S
Zn84 O89 2.049 . S
Zn84 O94 2.067 . S
Zn85 O86 1.962 . S
Zn85 O88 1.986 . S
Zn85 O90 1.996 . S
Zn85 O93 1.943 . S
O86 Zn85 1.962 . S
O86 C91 1.254 . S
O87 Zn84 2.031 . S
O87 C91 1.269 . S
O88 Zn85 1.986 . S
O88 C95 1.262 . S
O89 Zn84 2.049 . S
O89 C97 1.260 . S
O90 Zn85 1.996 . S
O90 C97 1.257 . S
C91 O86 1.254 . S
C91 O87 1.269 . S
C92 O93 1.249 . S
C92 O94 1.270 . S
O93 Zn85 1.943 . S
O93 C92 1.249 . S
O94 Zn84 2.067 . S
O94 C92 1.270 . S
C95 O88 1.262 . S
C95 O96 1.232 . S
O96 C95 1.232 . S
C97 O89 1.260 . S
C97 O90 1.257 . S
Zn98 O101 2.031 . S
Zn98 O103 2.049 . S
Zn98 O108 2.067 . S
Zn99 O100 1.962 . S
Zn99 O102 1.986 . S
Zn99 O104 1.996 . S
Zn99 O107 1.943 . S
O100 Zn99 1.962 . S
O100 C105 1.254 . S
O101 Zn98 2.031 . S
O101 C105 1.269 . S
O102 Zn99 1.986 . S
O102 C109 1.262 . S
O103 Zn98 2.049 . S
O103 C111 1.260 . S
O104 Zn99 1.996 . S
O104 C111 1.257 . S
C105 O100 1.254 . S
C105 O101 1.269 . S
C106 O107 1.249 . S
C106 O108 1.270 . S
O107 Zn99 1.943 . S
O107 C106 1.249 . S
O108 Zn98 2.067 . S
O108 C106 1.270 . S
C109 O102 1.262 . S
C109 O110 1.232 . S
O110 C109 1.232 . S
C111 O103 1.260 . S
C111 O104 1.257 . S
Zn112 O115 2.031 . S
Zn112 O117 2.049 . S
Zn112 O122 2.067 . S
Zn113 O114 1.962 . S
Zn113 O116 1.986 . S
Zn113 O118 1.996 . S
Zn113 O121 1.943 . S
O114 Zn113 1.962 . S
O114 C119 1.254 . S
O115 Zn112 2.031 . S
O115 C119 1.269 . S
O116 Zn113 1.986 . S
O116 C123 1.262 . S
O117 Zn112 2.049 . S
O117 C125 1.260 . S
O118 Zn113 1.996 . S
O118 C125 1.257 . S
C119 O114 1.254 . S
C119 O115 1.269 . S
C120 O121 1.249 . S
C120 O122 1.270 . S
O121 Zn113 1.943 . S
O121 C120 1.249 . S
O122 Zn112 2.067 . S
O122 C120 1.270 . S
C123 O116 1.262 . S
C123 O124 1.232 . S
O124 C123 1.232 . S
C125 O117 1.260 . S
C125 O118 1.257 . S
Zn126 O129 2.031 . S
Zn126 O131 2.049 . S
Zn126 O136 2.067 . S
Zn127 O128 1.962 . S
Zn127 O130 1.986 . S
Zn127 O132 1.996 . S
Zn127 O135 1.943 . S
O128 Zn127 1.962 . S
O128 C133 1.254 . S
O129 Zn126 2.031 . S
O129 C133 1.269 . S
O130 Zn127 1.986 . S
O130 C137 1.262 . S
O131 Zn126 2.049 . S
O131 C139 1.260 . S
O132 Zn127 1.996 . S
O132 C139 1.257 . S
C133 O128 1.254 . S
C133 O129 1.269 . S
C134 O135 1.249 . S
C134 O136 1.270 . S
O135 Zn127 1.943 . S
O135 C134 1.249 . S
O136 Zn126 2.067 . S
O136 C134 1.270 . S
C137 O130 1.262 . S
C137 O138 1.232 . S
O138 C137 1.232 . S
C139 O131 1.260 . S
C139 O132 1.257 . S
Zn140 O143 2.031 . S
Zn140 O145 2.049 . S
Zn140 O150 2.067 . S
Zn141 O142 1.962 . S
Zn141 O144 1.986 . S
Zn141 O146 1.996 . S
Zn141 O149 1.943 . S
O142 Zn141 1.962 . S
O142 C147 1.254 . S
O143 Zn140 2.031 . S
O143 C147 1.269 . S
O144 Zn141 1.986 . S
O144 C151 1.262 . S
O145 Zn140 2.049 . S
O145 C153 1.260 . S
O146 Zn141 1.996 . S
O146 C153 1.257 . S
C147 O142 1.254 . S
C147 O143 1.269 . S
C148 O149 1.249 . S
C148 O150 1.270 . S
O149 Zn141 1.943 . S
O149 C148 1.249 . S
O150 Zn140 2.067 . S
O150 C148 1.270 . S
C151 O144 1.262 . S
C151 O152 1.232 . S
O152 C151 1.232 . S
C153 O145 1.260 . S
C153 O146 1.257 . S
Zn154 O157 2.031 . S
Zn154 O159 2.049 . S
Zn154 O164 2.067 . S
Zn155 O156 1.962 . S
Zn155 O158 1.986 . S
Zn155 O160 1.996 . S
Zn155 O163 1.943 . S
O156 Zn155 1.962 . S
O156 C161 1.254 . S
O157 Zn154 2.031 . S
O157 C161 1.269 . S
O158 Zn155 1.986 . S
O158 C165 1.262 . S
O159 Zn154 2.049 . S
O159 C167 1.260 . S
O160 Zn155 1.996 . S
O160 C167 1.257 . S
C161 O156 1.254 . S
C161 O157 1.269 . S
C162 O163 1.249 . S
C162 O164 1.270 . S
O163 Zn155 1.943 . S
O163 C162 1.249 . S
O164 Zn154 2.067 . S
O164 C162 1.270 . S
C165 O158 1.262 . S
C165 O166 1.232 . S
O166 C165 1.232 . S
C167 O159 1.260 . S
C167 O160 1.257 . S
Zn168 O171 2.031 . S
Zn168 O173 2.049 . S
Zn168 O178 2.067 . S
Zn169 O170 1.962 . S
Zn169 O172 1.986 . S
Zn169 O174 1.996 . S
Zn169 O177 1.943 . S
O170 Zn169 1.962 . S
O170 C175 1.254 . S
O171 Zn168 2.031 . S
O171 C175 1.269 . S
O172 Zn169 1.986 . S
O172 C179 1.262 . S
O173 Zn168 2.049 . S
O173 C181 1.260 . S
O174 Zn169 1.996 . S
O174 C181 1.257 . S
C175 O170 1.254 . S
C175 O171 1.269 . S
C176 O177 1.249 . S
C176 O178 1.270 . S
O177 Zn169 1.943 . S
O177 C176 1.249 . S
O178 Zn168 2.067 . S
O178 C176 1.270 . S
C179 O172 1.262 . S
C179 O180 1.232 . S
O180 C179 1.232 . S
C181 O173 1.260 . S
C181 O174 1.257 . S
Zn182 O185 2.031 . S
Zn182 O187 2.049 . S
Zn182 O192 2.067 . S
Zn183 O184 1.962 . S
Zn183 O186 1.986 . S
Zn183 O188 1.996 . S
Zn183 O191 1.943 . S
O184 Zn183 1.962 . S
O184 C189 1.254 . S
O185 Zn182 2.031 . S
O185 C189 1.269 . S
O186 Zn183 1.986 . S
O186 C193 1.262 . S
O187 Zn182 2.049 . S
O187 C195 1.260 . S
O188 Zn183 1.996 . S
O188 C195 1.257 . S
C189 O184 1.254 . S
C189 O185 1.269 . S
C190 O191 1.249 . S
C190 O192 1.270 . S
O191 Zn183 1.943 . S
O191 C190 1.249 . S
O192 Zn182 2.067 . S
O192 C190 1.270 . S
C193 O186 1.262 . S
C193 O194 1.232 . S
O194 C193 1.232 . S
C195 O187 1.260 . S
C195 O188 1.257 . S
Zn196 O199 2.031 . S
Zn196 O201 2.049 . S
Zn196 O206 2.067 . S
Zn197 O198 1.962 . S
Zn197 O200 1.986 . S
Zn197 O202 1.996 . S
Zn197 O205 1.943 . S
O198 Zn197 1.962 . S
O198 C203 1.254 . S
O199 Zn196 2.031 . S
O199 C203 1.269 . S
O200 Zn197 1.986 . S
O200 C207 1.262 . S
O201 Zn196 2.049 . S
O201 C209 1.260 . S
O202 Zn197 1.996 . S
O202 C209 1.257 . S
C203 O198 1.254 . S
C203 O199 1.269 . S
C204 O205 1.249 . S
C204 O206 1.270 . S
O205 Zn197 1.943 . S
O205 C204 1.249 . S
O206 Zn196 2.067 . S
O206 C204 1.270 . S
C207 O200 1.262 . S
C207 O208 1.232 . S
O208 C207 1.232 . S
C209 O201 1.260 . S
C209 O202 1.257 . S
Zn210 O213 2.031 . S
Zn210 O215 2.049 . S
Zn210 O220 2.067 . S
Zn211 O212 1.962 . S
Zn211 O214 1.986 . S
Zn211 O216 1.996 . S
Zn211 O219 1.943 . S
O212 Zn211 1.962 . S
O212 C217 1.254 . S
O213 Zn210 2.031 . S
O213 C217 1.269 . S
O214 Zn211 1.986 . S
O214 C221 1.262 . S
O215 Zn210 2.049 . S
O215 C223 1.260 . S
O216 Zn211 1.996 . S
O216 C223 1.257 . S
C217 O212 1.254 . S
C217 O213 1.269 . S
C218 O219 1.249 . S
C218 O220 1.270 . S
O219 Zn211 1.943 . S
O219 C218 1.249 . S
O220 Zn210 2.067 . S
O220 C218 1.270 . S
C221 O214 1.262 . S
C221 O222 1.232 . S
O222 C221 1.232 . S
C223 O215 1.260 . S
C223 O216 1.257 . S
H224 C232 0.950 . S
H225 C237 0.950 . S
H226 C234 0.950 . S
H227 C236 0.950 . S
H228 C238 0.950 . S
H229 C240 0.950 . S
H230 C242 0.950 . S
H231 C243 0.950 . S
C232 H224 0.950 . S
C232 C233 1.386 . S
C232 C234 1.391 . S
C233 C232 1.386 . S
C233 C237 1.393 . S
C234 H226 0.950 . S
C234 C232 1.391 . S
C234 C235 1.400 . S
C235 C234 1.400 . S
C235 C236 1.398 . S
C235 C241 1.491 1_455 S
C236 H227 0.950 . S
C236 C235 1.398 . S
C236 C237 1.391 . S
C237 H225 0.950 . S
C237 C233 1.393 . S
C237 C236 1.391 . S
C238 H228 0.950 . S
C238 C239 1.386 . S
C238 C240 1.391 . S
C239 C238 1.386 . S
C239 C243 1.393 . S
C240 H229 0.950 . S
C240 C238 1.391 . S
C240 C241 1.400 . S
C241 C235 1.491 1_655 S
C241 C240 1.400 . S
C241 C242 1.398 . S
C242 H230 0.950 . S
C242 C241 1.398 . S
C242 C243 1.391 . S
C243 H231 0.950 . S
C243 C239 1.393 . S
C243 C242 1.391 . S
H244 C252 0.950 . S
H245 C257 0.950 . S
H246 C254 0.950 . S
H247 C256 0.950 . S
H248 C258 0.950 . S
H249 C260 0.950 . S
H250 C262 0.950 . S
H251 C263 0.950 . S
C252 H244 0.950 . S
C252 C253 1.386 . S
C252 C254 1.391 . S
C253 C252 1.386 . S
C253 C257 1.393 . S
C254 H246 0.950 . S
C254 C252 1.391 . S
C254 C255 1.400 . S
C255 C254 1.400 . S
C255 C256 1.398 . S
C255 C261 1.491 1_655 S
C256 H247 0.950 . S
C256 C255 1.398 . S
C256 C257 1.391 . S
C257 H245 0.950 . S
C257 C253 1.393 . S
C257 C256 1.391 . S
C258 H248 0.950 . S
C258 C259 1.386 . S
C258 C260 1.391 . S
C259 C258 1.386 . S
C259 C263 1.393 . S
C260 H249 0.950 . S
C260 C258 1.391 . S
C260 C261 1.400 . S
C261 C255 1.491 1_455 S
C261 C260 1.400 . S
C261 C262 1.398 . S
C262 H250 0.950 . S
C262 C261 1.398 . S
C262 C263 1.391 . S
C263 H251 0.950 . S
C263 C259 1.393 . S
C263 C262 1.391 . S
H264 C272 0.950 . S
H265 C277 0.950 . S
H266 C274 0.950 . S
H267 C276 0.950 . S
H268 C278 0.950 . S
H269 C280 0.950 . S
H270 C282 0.950 . S
H271 C283 0.950 . S
C272 H264 0.950 . S
C272 C273 1.386 . S
C272 C274 1.391 . S
C273 C272 1.386 . S
C273 C277 1.393 . S
C274 H266 0.950 . S
C274 C272 1.391 . S
C274 C275 1.400 . S
C275 C274 1.400 . S
C275 C276 1.398 . S
C275 C281 1.491 1_655 S
C276 H267 0.950 . S
C276 C275 1.398 . S
C276 C277 1.391 . S
C277 H265 0.950 . S
C277 C273 1.393 . S
C277 C276 1.391 . S
C278 H268 0.950 . S
C278 C279 1.386 . S
C278 C280 1.391 . S
C279 C278 1.386 . S
C279 C283 1.393 . S
C280 H269 0.950 . S
C280 C278 1.391 . S
C280 C281 1.400 . S
C281 C275 1.491 1_455 S
C281 C280 1.400 . S
C281 C282 1.398 . S
C282 H270 0.950 . S
C282 C281 1.398 . S
C282 C283 1.391 . S
C283 H271 0.950 . S
C283 C279 1.393 . S
C283 C282 1.391 . S
H284 C292 0.950 . S
H285 C297 0.950 . S
H286 C294 0.950 . S
H287 C296 0.950 . S
H288 C298 0.950 . S
H289 C300 0.950 . S
H290 C302 0.950 . S
H291 C303 0.950 . S
C292 H284 0.950 . S
C292 C293 1.386 . S
C292 C294 1.391 . S
C293 C292 1.386 . S
C293 C297 1.393 . S
C294 H286 0.950 . S
C294 C292 1.391 . S
C294 C295 1.400 . S
C295 C294 1.400 . S
C295 C296 1.398 . S
C295 C301 1.491 1_455 S
C296 H287 0.950 . S
C296 C295 1.398 . S
C296 C297 1.391 . S
C297 H285 0.950 . S
C297 C293 1.393 . S
C297 C296 1.391 . S
C298 H288 0.950 . S
C298 C299 1.386 . S
C298 C300 1.391 . S
C299 C298 1.386 . S
C299 C303 1.393 . S
C300 H289 0.950 . S
C300 C298 1.391 . S
C300 C301 1.400 . S
C301 C295 1.491 1_655 S
C301 C300 1.400 . S
C301 C302 1.398 . S
C302 H290 0.950 . S
C302 C301 1.398 . S
C302 C303 1.391 . S
C303 H291 0.950 . S
C303 C299 1.393 . S
C303 C302 1.391 . S
H304 C312 0.950 . S
H305 C317 0.950 . S
H306 C314 0.950 . S
H307 C316 0.950 . S
H308 C318 0.950 . S
H309 C320 0.950 . S
H310 C322 0.950 . S
H311 C323 0.950 . S
C312 H304 0.950 . S
C312 C313 1.386 . S
C312 C314 1.391 . S
C313 C312 1.386 . S
C313 C317 1.393 . S
C314 H306 0.950 . S
C314 C312 1.391 . S
C314 C315 1.400 . S
C315 C314 1.400 . S
C315 C316 1.398 . S
C315 C321 1.491 . S
C316 H307 0.950 . S
C316 C315 1.398 . S
C316 C317 1.391 . S
C317 H305 0.950 . S
C317 C313 1.393 . S
C317 C316 1.391 . S
C318 H308 0.950 . S
C318 C319 1.386 . S
C318 C320 1.391 . S
C319 C318 1.386 . S
C319 C323 1.393 . S
C320 H309 0.950 . S
C320 C318 1.391 . S
C320 C321 1.400 . S
C321 C315 1.491 . S
C321 C320 1.400 . S
C321 C322 1.398 . S
C322 H310 0.950 . S
C322 C321 1.398 . S
C322 C323 1.391 . S
C323 H311 0.950 . S
C323 C319 1.393 . S
C323 C322 1.391 . S
H324 C332 0.950 . S
H325 C337 0.950 . S
H326 C334 0.950 . S
H327 C336 0.950 . S
H328 C338 0.950 . S
H329 C340 0.950 . S
H330 C342 0.950 . S
H331 C343 0.950 . S
C332 H324 0.950 . S
C332 C333 1.386 . S
C332 C334 1.391 . S
C333 C332 1.386 . S
C333 C337 1.393 . S
C334 H326 0.950 . S
C334 C332 1.391 . S
C334 C335 1.400 . S
C335 C334 1.400 . S
C335 C336 1.398 . S
C335 C341 1.491 . S
C336 H327 0.950 . S
C336 C335 1.398 . S
C336 C337 1.391 . S
C337 H325 0.950 . S
C337 C333 1.393 . S
C337 C336 1.391 . S
C338 H328 0.950 . S
C338 C339 1.386 . S
C338 C340 1.391 . S
C339 C338 1.386 . S
C339 C343 1.393 . S
C340 H329 0.950 . S
C340 C338 1.391 . S
C340 C341 1.400 . S
C341 C335 1.491 . S
C341 C340 1.400 . S
C341 C342 1.398 . S
C342 H330 0.950 . S
C342 C341 1.398 . S
C342 C343 1.391 . S
C343 H331 0.950 . S
C343 C339 1.393 . S
C343 C342 1.391 . S
H344 C352 0.950 . S
H345 C357 0.950 . S
H346 C354 0.950 . S
H347 C356 0.950 . S
H348 C358 0.950 . S
H349 C360 0.950 . S
H350 C362 0.950 . S
H351 C363 0.950 . S
C352 H344 0.950 . S
C352 C353 1.386 . S
C352 C354 1.391 . S
C353 C352 1.386 . S
C353 C357 1.393 . S
C354 H346 0.950 . S
C354 C352 1.391 . S
C354 C355 1.400 . S
C355 C354 1.400 . S
C355 C356 1.398 . S
C355 C361 1.491 . S
C356 H347 0.950 . S
C356 C355 1.398 . S
C356 C357 1.391 . S
C357 H345 0.950 . S
C357 C353 1.393 . S
C357 C356 1.391 . S
C358 H348 0.950 . S
C358 C359 1.386 . S
C358 C360 1.391 . S
C359 C358 1.386 . S
C359 C363 1.393 . S
C360 H349 0.950 . S
C360 C358 1.391 . S
C360 C361 1.400 . S
C361 C355 1.491 . S
C361 C360 1.400 . S
C361 C362 1.398 . S
C362 H350 0.950 . S
C362 C361 1.398 . S
C362 C363 1.391 . S
C363 H351 0.950 . S
C363 C359 1.393 . S
C363 C362 1.391 . S
H364 C372 0.950 . S
H365 C377 0.950 . S
H366 C374 0.950 . S
H367 C376 0.950 . S
H368 C378 0.950 . S
H369 C380 0.950 . S
H370 C382 0.950 . S
H371 C383 0.950 . S
C372 H364 0.950 . S
C372 C373 1.386 . S
C372 C374 1.391 . S
C373 C372 1.386 . S
C373 C377 1.393 . S
C374 H366 0.950 . S
C374 C372 1.391 . S
C374 C375 1.400 . S
C375 C374 1.400 . S
C375 C376 1.398 . S
C375 C381 1.491 . S
C376 H367 0.950 . S
C376 C375 1.398 . S
C376 C377 1.391 . S
C377 H365 0.950 . S
C377 C373 1.393 . S
C377 C376 1.391 . S
C378 H368 0.950 . S
C378 C379 1.386 . S
C378 C380 1.391 . S
C379 C378 1.386 . S
C379 C383 1.393 . S
C380 H369 0.950 . S
C380 C378 1.391 . S
C380 C381 1.400 . S
C381 C375 1.491 . S
C381 C380 1.400 . S
C381 C382 1.398 . S
C382 H370 0.950 . S
C382 C381 1.398 . S
C382 C383 1.391 . S
C383 H371 0.950 . S
C383 C379 1.393 . S
C383 C382 1.391 . S
H384 C392 0.950 . S
H385 C397 0.950 . S
H386 C394 0.950 . S
H387 C396 0.950 . S
H388 C398 0.950 . S
H389 C400 0.950 . S
H390 C402 0.950 . S
H391 C403 0.950 . S
C392 H384 0.950 . S
C392 C393 1.386 . S
C392 C394 1.391 . S
C393 C392 1.386 . S
C393 C397 1.393 . S
C394 H386 0.950 . S
C394 C392 1.391 . S
C394 C395 1.400 . S
C395 C394 1.400 . S
C395 C396 1.398 . S
C395 C401 1.491 . S
C396 H387 0.950 . S
C396 C395 1.398 . S
C396 C397 1.391 . S
C397 H385 0.950 . S
C397 C393 1.393 . S
C397 C396 1.391 . S
C398 H388 0.950 . S
C398 C399 1.386 . S
C398 C400 1.391 . S
C399 C398 1.386 . S
C399 C403 1.393 . S
C400 H389 0.950 . S
C400 C398 1.391 . S
C400 C401 1.400 . S
C401 C395 1.491 . S
C401 C400 1.400 . S
C401 C402 1.398 . S
C402 H390 0.950 . S
C402 C401 1.398 . S
C402 C403 1.391 . S
C403 H391 0.950 . S
C403 C399 1.393 . S
C403 C402 1.391 . S
H404 C412 0.950 . S
H405 C417 0.950 . S
H406 C414 0.950 . S
H407 C416 0.950 . S
H408 C418 0.950 . S
H409 C420 0.950 . S
H410 C422 0.950 . S
H411 C423 0.950 . S
C412 H404 0.950 . S
C412 C413 1.386 . S
C412 C414 1.391 . S
C413 C412 1.386 . S
C413 C417 1.393 . S
C414 H406 0.950 . S
C414 C412 1.391 . S
C414 C415 1.400 . S
C415 C414 1.400 . S
C415 C416 1.398 . S
C415 C421 1.491 . S
C416 H407 0.950 . S
C416 C415 1.398 . S
C416 C417 1.391 . S
C417 H405 0.950 . S
C417 C413 1.393 . S
C417 C416 1.391 . S
C418 H408 0.950 . S
C418 C419 1.386 . S
C418 C420 1.391 . S
C419 C418 1.386 . S
C419 C423 1.393 . S
C420 H409 0.950 . S
C420 C418 1.391 . S
C420 C421 1.400 . S
C421 C415 1.491 . S
C421 C420 1.400 . S
C421 C422 1.398 . S
C422 H410 0.950 . S
C422 C421 1.398 . S
C422 C423 1.391 . S
C423 H411 0.950 . S
C423 C419 1.393 . S
C423 C422 1.391 . S
H424 C432 0.950 . S
H425 C437 0.950 . S
H426 C434 0.950 . S
H427 C436 0.950 . S
H428 C438 0.950 . S
H429 C440 0.950 . S
H430 C442 0.950 . S
H431 C443 0.950 . S
C432 H424 0.950 . S
C432 C433 1.386 . S
C432 C434 1.391 . S
C433 C432 1.386 . S
C433 C437 1.393 . S
C434 H426 0.950 . S
C434 C432 1.391 . S
C434 C435 1.400 . S
C435 C434 1.400 . S
C435 C436 1.398 . S
C435 C441 1.491 . S
C436 H427 0.950 . S
C436 C435 1.398 . S
C436 C437 1.391 . S
C437 H425 0.950 . S
C437 C433 1.393 . S
C437 C436 1.391 . S
C438 H428 0.950 . S
C438 C439 1.386 . S
C438 C440 1.391 . S
C439 C438 1.386 . S
C439 C443 1.393 . S
C440 H429 0.950 . S
C440 C438 1.391 . S
C440 C441 1.400 . S
C441 C435 1.491 . S
C441 C440 1.400 . S
C441 C442 1.398 . S
C442 H430 0.950 . S
C442 C441 1.398 . S
C442 C443 1.391 . S
C443 H431 0.950 . S
C443 C439 1.393 . S
C443 C442 1.391 . S
H444 C452 0.950 . S
H445 C457 0.950 . S
H446 C454 0.950 . S
H447 C456 0.950 . S
H448 C458 0.950 . S
H449 C460 0.950 . S
H450 C462 0.950 . S
H451 C463 0.950 . S
C452 H444 0.950 . S
C452 C453 1.386 . S
C452 C454 1.391 . S
C453 C452 1.386 . S
C453 C457 1.393 . S
C454 H446 0.950 . S
C454 C452 1.391 . S
C454 C455 1.400 . S
C455 C454 1.400 . S
C455 C456 1.398 . S
C455 C461 1.491 . S
C456 H447 0.950 . S
C456 C455 1.398 . S
C456 C457 1.391 . S
C457 H445 0.950 . S
C457 C453 1.393 . S
C457 C456 1.391 . S
C458 H448 0.950 . S
C458 C459 1.386 . S
C458 C460 1.391 . S
C459 C458 1.386 . S
C459 C463 1.393 . S
C460 H449 0.950 . S
C460 C458 1.391 . S
C460 C461 1.400 . S
C461 C455 1.491 . S
C461 C460 1.400 . S
C461 C462 1.398 . S
C462 H450 0.950 . S
C462 C461 1.398 . S
C462 C463 1.391 . S
C463 H451 0.950 . S
C463 C459 1.393 . S
C463 C462 1.391 . S
H464 C472 0.950 . S
H465 C477 0.950 . S
H466 C474 0.950 . S
H467 C476 0.950 . S
H468 C478 0.950 . S
H469 C480 0.950 . S
H470 C482 0.950 . S
H471 C483 0.950 . S
C472 H464 0.950 . S
C472 C473 1.386 . S
C472 C474 1.391 . S
C473 C472 1.386 . S
C473 C477 1.393 . S
C474 H466 0.950 . S
C474 C472 1.391 . S
C474 C475 1.400 . S
C475 C474 1.400 . S
C475 C476 1.398 . S
C475 C481 1.491 . S
C476 H467 0.950 . S
C476 C475 1.398 . S
C476 C477 1.391 . S
C477 H465 0.950 . S
C477 C473 1.393 . S
C477 C476 1.391 . S
C478 H468 0.950 . S
C478 C479 1.386 . S
C478 C480 1.391 . S
C479 C478 1.386 . S
C479 C483 1.393 . S
C480 H469 0.950 . S
C480 C478 1.391 . S
C480 C481 1.400 . S
C481 C475 1.491 . S
C481 C480 1.400 . S
C481 C482 1.398 . S
C482 H470 0.950 . S
C482 C481 1.398 . S
C482 C483 1.391 . S
C483 H471 0.950 . S
C483 C479 1.393 . S
C483 C482 1.391 . S
H484 C492 0.950 . S
H485 C497 0.950 . S
H486 C494 0.950 . S
H487 C496 0.950 . S
H488 C498 0.950 . S
H489 C500 0.950 . S
H490 C502 0.950 . S
H491 C503 0.950 . S
C492 H484 0.950 . S
C492 C493 1.386 . S
C492 C494 1.391 . S
C493 C492 1.386 . S
C493 C497 1.393 . S
C494 H486 0.950 . S
C494 C492 1.391 . S
C494 C495 1.400 . S
C495 C494 1.400 . S
C495 C496 1.398 . S
C495 C501 1.491 . S
C496 H487 0.950 . S
C496 C495 1.398 . S
C496 C497 1.391 . S
C497 H485 0.950 . S
C497 C493 1.393 . S
C497 C496 1.391 . S
C498 H488 0.950 . S
C498 C499 1.386 . S
C498 C500 1.391 . S
C499 C498 1.386 . S
C499 C503 1.393 . S
C500 H489 0.950 . S
C500 C498 1.391 . S
C500 C501 1.400 . S
C501 C495 1.491 . S
C501 C500 1.400 . S
C501 C502 1.398 . S
C502 H490 0.950 . S
C502 C501 1.398 . S
C502 C503 1.391 . S
C503 H491 0.950 . S
C503 C499 1.393 . S
C503 C502 1.391 . S
H504 C512 0.950 . S
H505 C517 0.950 . S
H506 C514 0.950 . S
H507 C516 0.950 . S
H508 C518 0.950 . S
H509 C520 0.950 . S
H510 C522 0.950 . S
H511 C523 0.950 . S
C512 H504 0.950 . S
C512 C513 1.386 . S
C512 C514 1.391 . S
C513 C512 1.386 . S
C513 C517 1.393 . S
C514 H506 0.950 . S
C514 C512 1.391 . S
C514 C515 1.400 . S
C515 C514 1.400 . S
C515 C516 1.398 . S
C515 C521 1.491 . S
C516 H507 0.950 . S
C516 C515 1.398 . S
C516 C517 1.391 . S
C517 H505 0.950 . S
C517 C513 1.393 . S
C517 C516 1.391 . S
C518 H508 0.950 . S
C518 C519 1.386 . S
C518 C520 1.391 . S
C519 C518 1.386 . S
C519 C523 1.393 . S
C520 H509 0.950 . S
C520 C518 1.391 . S
C520 C521 1.400 . S
C521 C515 1.491 . S
C521 C520 1.400 . S
C521 C522 1.398 . S
C522 H510 0.950 . S
C522 C521 1.398 . S
C522 C523 1.391 . S
C523 H511 0.950 . S
C523 C519 1.393 . S
C523 C522 1.391 . S
H524 C532 0.950 . S
H525 C537 0.950 . S
H526 C534 0.950 . S
H527 C536 0.950 . S
H528 C538 0.950 . S
H529 C540 0.950 . S
H530 C542 0.950 . S
H531 C543 0.950 . S
C532 H524 0.950 . S
C532 C533 1.386 . S
C532 C534 1.391 . S
C533 C532 1.386 . S
C533 C537 1.393 . S
C534 H526 0.950 . S
C534 C532 1.391 . S
C534 C535 1.400 . S
C535 C534 1.400 . S
C535 C536 1.398 . S
C535 C541 1.491 . S
C536 H527 0.950 . S
C536 C535 1.398 . S
C536 C537 1.391 . S
C537 H525 0.950 . S
C537 C533 1.393 . S
C537 C536 1.391 . S
C538 H528 0.950 . S
C538 C539 1.386 . S
C538 C540 1.391 . S
C539 C538 1.386 . S
C539 C543 1.393 . S
C540 H529 0.950 . S
C540 C538 1.391 . S
C540 C541 1.400 . S
C541 C535 1.491 . S
C541 C540 1.400 . S
C541 C542 1.398 . S
C542 H530 0.950 . S
C542 C541 1.398 . S
C542 C543 1.391 . S
C543 H531 0.950 . S
C543 C539 1.393 . S
C543 C542 1.391 . S
H544 C552 0.950 . S
H545 C557 0.950 . S
H546 C554 0.950 . S
H547 C556 0.950 1_554 S
H548 C558 0.950 . S
H549 C560 0.950 . S
H550 C562 0.950 1_556 S
H551 C563 0.950 . S
C552 H544 0.950 . S
C552 C553 1.386 . S
C552 C554 1.391 . S
C553 C552 1.386 . S
C553 C557 1.393 . S
C554 H546 0.950 . S
C554 C552 1.391 . S
C554 C555 1.400 . S
C555 C554 1.400 . S
C555 C556 1.398 . S
C555 C561 1.491 1_556 S
C556 H547 0.950 1_556 S
C556 C555 1.398 . S
C556 C557 1.391 . S
C557 H545 0.950 . S
C557 C553 1.393 . S
C557 C556 1.391 . S
C558 H548 0.950 . S
C558 C559 1.386 . S
C558 C560 1.391 . S
C559 C558 1.386 . S
C559 C563 1.393 . S
C560 H549 0.950 . S
C560 C558 1.391 . S
C560 C561 1.400 . S
C561 C555 1.491 1_554 S
C561 C560 1.400 . S
C561 C562 1.398 . S
C562 H550 0.950 1_554 S
C562 C561 1.398 . S
C562 C563 1.391 . S
C563 H551 0.950 . S
C563 C559 1.393 . S
C563 C562 1.391 . S
H564 C572 0.950 . S
H565 C577 0.950 . S
H566 C574 0.950 . S
H567 C576 0.950 . S
H568 C578 0.950 . S
H569 C580 0.950 . S
H570 C582 0.950 . S
H571 C583 0.950 . S
C572 H564 0.950 . S
C572 C573 1.386 . S
C572 C574 1.391 . S
C573 C572 1.386 . S
C573 C577 1.393 . S
C574 H566 0.950 . S
C574 C572 1.391 . S
C574 C575 1.400 . S
C575 C574 1.400 . S
C575 C576 1.398 . S
C575 C581 1.491 . S
C576 H567 0.950 . S
C576 C575 1.398 . S
C576 C577 1.391 . S
C577 H565 0.950 . S
C577 C573 1.393 . S
C577 C576 1.391 . S
C578 H568 0.950 . S
C578 C579 1.386 . S
C578 C580 1.391 . S
C579 C578 1.386 . S
C579 C583 1.393 . S
C580 H569 0.950 . S
C580 C578 1.391 . S
C580 C581 1.400 . S
C581 C575 1.491 . S
C581 C580 1.400 . S
C581 C582 1.398 . S
C582 H570 0.950 . S
C582 C581 1.398 . S
C582 C583 1.391 . S
C583 H571 0.950 . S
C583 C579 1.393 . S
C583 C582 1.391 . S
H584 C592 0.950 1_556 S
H585 C597 0.950 . S
H586 C594 0.950 . S
H587 C596 0.950 . S
H588 C598 0.950 1_554 S
H589 C600 0.950 . S
H590 C602 0.950 . S
H591 C603 0.950 . S
C592 H584 0.950 1_554 S
C592 C593 1.386 . S
C592 C594 1.391 1_554 S
C593 C592 1.386 . S
C593 C597 1.393 . S
C594 H586 0.950 . S
C594 C592 1.391 1_556 S
C594 C595 1.400 1_556 S
C595 C594 1.400 1_554 S
C595 C596 1.398 . S
C595 C601 1.491 1_554 S
C596 H587 0.950 . S
C596 C595 1.398 . S
C596 C597 1.391 . S
C597 H585 0.950 . S
C597 C593 1.393 . S
C597 C596 1.391 . S
C598 H588 0.950 1_556 S
C598 C599 1.386 . S
C598 C600 1.391 1_556 S
C599 C598 1.386 . S
C599 C603 1.393 . S
C600 H589 0.950 . S
C600 C598 1.391 1_554 S
C600 C601 1.400 1_554 S
C601 C595 1.491 1_556 S
C601 C600 1.400 1_556 S
C601 C602 1.398 . S
C602 H590 0.950 . S
C602 C601 1.398 . S
C602 C603 1.391 . S
C603 H591 0.950 . S
C603 C599 1.393 . S
C603 C602 1.391 . S
H604 C612 0.950 . S
H605 C617 0.950 . S
H606 C614 0.950 . S
H607 C616 0.950 . S
H608 C618 0.950 . S
H609 C620 0.950 . S
H610 C622 0.950 . S
H611 C623 0.950 . S
C612 H604 0.950 . S
C612 C613 1.386 . S
C612 C614 1.391 . S
C613 C612 1.386 . S
C613 C617 1.393 . S
C614 H606 0.950 . S
C614 C612 1.391 . S
C614 C615 1.400 . S
C615 C614 1.400 . S
C615 C616 1.398 . S
C615 C621 1.491 . S
C616 H607 0.950 . S
C616 C615 1.398 . S
C616 C617 1.391 . S
C617 H605 0.950 . S
C617 C613 1.393 . S
C617 C616 1.391 . S
C618 H608 0.950 . S
C618 C619 1.386 . S
C618 C620 1.391 . S
C619 C618 1.386 . S
C619 C623 1.393 . S
C620 H609 0.950 . S
C620 C618 1.391 . S
C620 C621 1.400 . S
C621 C615 1.491 . S
C621 C620 1.400 . S
C621 C622 1.398 . S
C622 H610 0.950 . S
C622 C621 1.398 . S
C622 C623 1.391 . S
C623 H611 0.950 . S
C623 C619 1.393 . S
C623 C622 1.391 . S
H624 C632 0.950 . S
H625 C637 0.950 . S
H626 C634 0.950 . S
H627 C636 0.950 . S
H628 C638 0.950 . S
H629 C640 0.950 . S
H630 C642 0.950 . S
H631 C643 0.950 . S
C632 H624 0.950 . S
C632 C633 1.386 . S
C632 C634 1.391 1_554 S
C633 C632 1.386 . S
C633 C637 1.393 . S
C634 H626 0.950 . S
C634 C632 1.391 1_556 S
C634 C635 1.400 1_556 S
C635 C634 1.400 1_554 S
C635 C636 1.398 . S
C635 C641 1.491 1_554 S
C636 H627 0.950 . S
C636 C635 1.398 . S
C636 C637 1.391 . S
C637 H625 0.950 . S
C637 C633 1.393 . S
C637 C636 1.391 . S
C638 H628 0.950 . S
C638 C639 1.386 . S
C638 C640 1.391 1_556 S
C639 C638 1.386 . S
C639 C643 1.393 . S
C640 H629 0.950 . S
C640 C638 1.391 1_554 S
C640 C641 1.400 1_554 S
C641 C635 1.491 1_556 S
C641 C640 1.400 1_556 S
C641 C642 1.398 . S
C642 H630 0.950 . S
C642 C641 1.398 . S
C642 C643 1.391 . S
C643 H631 0.950 . S
C643 C639 1.393 . S
C643 C642 1.391 . S
H644 C652 0.950 . S
H645 C657 0.950 . S
H646 C654 0.950 . S
H647 C656 0.950 . S
H648 C658 0.950 . S
H649 C660 0.950 . S
H650 C662 0.950 . S
H651 C663 0.950 . S
C652 H644 0.950 . S
C652 C653 1.386 . S
C652 C654 1.391 . S
C653 C652 1.386 . S
C653 C657 1.393 . S
C654 H646 0.950 . S
C654 C652 1.391 . S
C654 C655 1.400 . S
C655 C654 1.400 . S
C655 C656 1.398 . S
C655 C661 1.491 . S
C656 H647 0.950 . S
C656 C655 1.398 . S
C656 C657 1.391 . S
C657 H645 0.950 . S
C657 C653 1.393 . S
C657 C656 1.391 . S
C658 H648 0.950 . S
C658 C659 1.386 . S
C658 C660 1.391 . S
C659 C658 1.386 . S
C659 C663 1.393 . S
C660 H649 0.950 . S
C660 C658 1.391 . S
C660 C661 1.400 . S
C661 C655 1.491 . S
C661 C660 1.400 . S
C661 C662 1.398 . S
C662 H650 0.950 . S
C662 C661 1.398 . S
C662 C663 1.391 . S
C663 H651 0.950 . S
C663 C659 1.393 . S
C663 C662 1.391 . S
H664 C672 0.950 . S
H665 C677 0.950 1_556 S
H666 C674 0.950 . S
H667 C676 0.950 . S
H668 C678 0.950 . S
H669 C680 0.950 . S
H670 C682 0.950 . S
H671 C683 0.950 1_554 S
C672 H664 0.950 . S
C672 C673 1.386 . S
C672 C674 1.391 . S
C673 C672 1.386 . S
C673 C677 1.393 . S
C674 H666 0.950 . S
C674 C672 1.391 . S
C674 C675 1.400 . S
C675 C674 1.400 . S
C675 C676 1.398 1_554 S
C675 C681 1.491 1_554 S
C676 H667 0.950 . S
C676 C675 1.398 1_556 S
C676 C677 1.391 1_556 S
C677 H665 0.950 1_554 S
C677 C673 1.393 . S
C677 C676 1.391 1_554 S
C678 H668 0.950 . S
C678 C679 1.386 . S
C678 C680 1.391 . S
C679 C678 1.386 . S
C679 C683 1.393 . S
C680 H669 0.950 . S
C680 C678 1.391 . S
C680 C681 1.400 . S
C681 C675 1.491 1_556 S
C681 C680 1.400 . S
C681 C682 1.398 1_556 S
C682 H670 0.950 . S
C682 C681 1.398 1_554 S
C682 C683 1.391 1_554 S
C683 H671 0.950 1_556 S
C683 C679 1.393 . S
C683 C682 1.391 1_556 S
H684 C692 0.950 . S
H685 C697 0.950 . S
H686 C694 0.950 . S
H687 C696 0.950 . S
H688 C698 0.950 . S
H689 C700 0.950 . S
H690 C702 0.950 . S
H691 C703 0.950 . S
C692 H684 0.950 . S
C692 C693 1.386 . S
C692 C694 1.391 . S
C693 C692 1.386 . S
C693 C697 1.393 . S
C694 H686 0.950 . S
C694 C692 1.391 . S
C694 C695 1.400 . S
C695 C694 1.400 . S
C695 C696 1.398 . S
C695 C701 1.491 . S
C696 H687 0.950 . S
C696 C695 1.398 . S
C696 C697 1.391 . S
C697 H685 0.950 . S
C697 C693 1.393 . S
C697 C696 1.391 . S
C698 H688 0.950 . S
C698 C699 1.386 . S
C698 C700 1.391 . S
C699 C698 1.386 . S
C699 C703 1.393 . S
C700 H689 0.950 . S
C700 C698 1.391 . S
C700 C701 1.400 . S
C701 C695 1.491 . S
C701 C700 1.400 . S
C701 C702 1.398 . S
C702 H690 0.950 . S
C702 C701 1.398 . S
C702 C703 1.391 . S
C703 H691 0.950 . S
C703 C699 1.393 . S
C703 C702 1.391 . S
H704 C712 0.950 . S
H705 C717 0.934 1_554 S
H706 C714 0.950 . S
H707 C716 0.950 . S
H708 C718 0.950 . S
H709 C720 0.950 . S
H710 C722 0.950 . S
H711 C723 0.934 1_556 S
C712 H704 0.950 . S
C712 C713 1.386 . S
C712 C714 1.391 . S
C713 C712 1.386 . S
C713 C717 1.393 . S
C714 H706 0.950 . S
C714 C712 1.391 . S
C714 C715 1.400 . S
C715 C714 1.400 . S
C715 C716 1.398 1_556 S
C715 C721 1.491 1_556 S
C716 H707 0.950 . S
C716 C715 1.398 1_554 S
C716 C717 1.391 1_554 S
C717 H705 0.934 1_556 S
C717 C713 1.393 . S
C717 C716 1.391 1_556 S
C718 H708 0.950 . S
C718 C719 1.386 . S
C718 C720 1.391 . S
C719 C718 1.386 . S
C719 C723 1.393 . S
C720 H709 0.950 . S
C720 C718 1.391 . S
C720 C721 1.400 . S
C721 C715 1.491 1_554 S
C721 C720 1.400 . S
C721 C722 1.398 1_554 S
C722 H710 0.950 . S
C722 C721 1.398 1_556 S
C722 C723 1.391 1_556 S
C723 H711 0.934 1_554 S
C723 C719 1.393 . S
C723 C722 1.391 1_554 S
H724 C732 0.950 . S
H725 C737 0.950 . S
H726 C734 0.950 . S
H727 C736 0.950 . S
H728 C738 0.950 . S
H729 C740 0.950 . S
H730 C742 0.950 . S
H731 C743 0.950 . S
C732 H724 0.950 . S
C732 C733 1.386 . S
C732 C734 1.391 . S
C733 C732 1.386 . S
C733 C737 1.393 . S
C734 H726 0.950 . S
C734 C732 1.391 . S
C734 C735 1.400 . S
C735 C734 1.400 . S
C735 C736 1.398 . S
C735 C741 1.491 . S
C736 H727 0.950 . S
C736 C735 1.398 . S
C736 C737 1.391 . S
C737 H725 0.950 . S
C737 C733 1.393 . S
C737 C736 1.391 . S
C738 H728 0.950 . S
C738 C739 1.386 . S
C738 C740 1.391 . S
C739 C738 1.386 . S
C739 C743 1.393 . S
C740 H729 0.950 . S
C740 C738 1.391 . S
C740 C741 1.400 . S
C741 C735 1.491 . S
C741 C740 1.400 . S
C741 C742 1.398 . S
C742 H730 0.950 . S
C742 C741 1.398 . S
C742 C743 1.391 . S
C743 H731 0.950 . S
C743 C739 1.393 . S
C743 C742 1.391 . S
H744 C752 0.950 . S
H745 C757 0.950 . S
H746 C754 0.950 . S
H747 C756 0.950 1_556 S
H748 C758 0.950 . S
H749 C760 0.950 . S
H750 C762 0.950 1_554 S
H751 C763 0.950 . S
C752 H744 0.950 . S
C752 C753 1.386 . S
C752 C754 1.391 . S
C753 C752 1.386 . S
C753 C757 1.393 . S
C754 H746 0.950 . S
C754 C752 1.391 . S
C754 C755 1.400 . S
C755 C754 1.400 . S
C755 C756 1.398 . S
C755 C761 1.491 1_554 S
C756 H747 0.950 1_554 S
C756 C755 1.398 . S
C756 C757 1.391 . S
C757 H745 0.950 . S
C757 C753 1.393 . S
C757 C756 1.391 . S
C758 H748 0.950 . S
C758 C759 1.386 . S
C758 C760 1.391 . S
C759 C758 1.386 . S
C759 C763 1.393 . S
C760 H749 0.950 . S
C760 C758 1.391 . S
C760 C761 1.400 . S
C761 C755 1.491 1_556 S
C761 C760 1.400 . S
C761 C762 1.398 . S
C762 H750 0.950 1_556 S
C762 C761 1.398 . S
C762 C763 1.391 . S
C763 H751 0.950 . S
C763 C759 1.393 . S
C763 C762 1.391 . S
H764 C772 0.950 . S
H765 C777 0.950 . S
H766 C774 0.950 . S
H767 C776 0.950 . S
H768 C778 0.950 . S
H769 C780 0.950 . S
H770 C782 0.950 . S
H771 C783 0.950 . S
C772 H764 0.950 . S
C772 C773 1.386 . S
C772 C774 1.391 . S
C773 C772 1.386 . S
C773 C777 1.393 . S
C774 H766 0.950 . S
C774 C772 1.391 . S
C774 C775 1.400 . S
C775 C774 1.400 . S
C775 C776 1.398 . S
C775 C781 1.491 . S
C776 H767 0.950 . S
C776 C775 1.398 . S
C776 C777 1.391 . S
C777 H765 0.950 . S
C777 C773 1.393 . S
C777 C776 1.391 . S
C778 H768 0.950 . S
C778 C779 1.386 . S
C778 C780 1.391 . S
C779 C778 1.386 . S
C779 C783 1.393 . S
C780 H769 0.950 . S
C780 C778 1.391 . S
C780 C781 1.400 . S
C781 C775 1.491 . S
C781 C780 1.400 . S
C781 C782 1.398 . S
C782 H770 0.950 . S
C782 C781 1.398 . S
C782 C783 1.391 . S
C783 H771 0.950 . S
C783 C779 1.393 . S
C783 C782 1.391 . S
H784 C792 0.950 . S
H785 C797 0.950 . S
H786 C794 0.950 . S
H787 C796 0.950 . S
H788 C798 0.950 . S
H789 C800 0.950 . S
H790 C802 0.950 . S
H791 C803 0.950 . S
C792 H784 0.950 . S
C792 C793 1.386 . S
C792 C794 1.391 . S
C793 C792 1.386 . S
C793 C797 1.393 . S
C794 H786 0.950 . S
C794 C792 1.391 . S
C794 C795 1.400 . S
C795 C794 1.400 . S
C795 C796 1.398 1_556 S
C795 C801 1.491 1_546 S
C796 H787 0.950 . S
C796 C795 1.398 1_554 S
C796 C797 1.391 1_554 S
C797 H785 0.950 . S
C797 C793 1.393 . S
C797 C796 1.391 1_556 S
C798 H788 0.950 . S
C798 C799 1.386 . S
C798 C800 1.391 . S
C799 C798 1.386 . S
C799 C803 1.393 . S
C800 H789 0.950 . S
C800 C798 1.391 . S
C800 C801 1.400 . S
C801 C795 1.491 1_564 S
C801 C800 1.400 . S
C801 C802 1.398 1_554 S
C802 H790 0.950 . S
C802 C801 1.398 1_556 S
C802 C803 1.391 1_556 S
C803 H791 0.950 . S
C803 C799 1.393 . S
C803 C802 1.391 1_554 S
H804 C812 0.950 . S
H805 C817 0.950 . S
H806 C814 0.961 . S
H807 C816 0.950 . S
H808 C818 0.950 . S
H809 C820 0.961 . S
H810 C822 0.950 . S
H811 C823 0.950 . S
C812 H804 0.950 . S
C812 C813 1.386 . S
C812 C814 1.391 . S
C813 C812 1.386 . S
C813 C817 1.393 . S
C814 H806 0.961 . S
C814 C812 1.391 . S
C814 C815 1.400 . S
C815 C814 1.400 . S
C815 C816 1.398 . S
C815 C821 1.491 1_565 S
C816 H807 0.950 . S
C816 C815 1.398 . S
C816 C817 1.391 . S
C817 H805 0.950 . S
C817 C813 1.393 . S
C817 C816 1.391 . S
C818 H808 0.950 . S
C818 C819 1.386 . S
C818 C820 1.391 . S
C819 C818 1.386 . S
C819 C823 1.393 . S
C820 H809 0.961 . S
C820 C818 1.391 . S
C820 C821 1.400 . S
C821 C815 1.491 1_545 S
C821 C820 1.400 . S
C821 C822 1.398 . S
C822 H810 0.950 . S
C822 C821 1.398 . S
C822 C823 1.391 . S
C823 H811 0.950 . S
C823 C819 1.393 . S
C823 C822 1.391 . S
H824 C832 0.950 . S
H825 C837 0.950 . S
H826 C834 0.950 . S
H827 C836 0.950 1_556 S
H828 C838 0.950 . S
H829 C840 0.950 . S
H830 C842 0.950 1_554 S
H831 C843 0.950 . S
C832 H824 0.950 . S
C832 C833 1.386 . S
C832 C834 1.391 . S
C833 C832 1.386 . S
C833 C837 1.393 . S
C834 H826 0.950 . S
C834 C832 1.391 . S
C834 C835 1.400 . S
C835 C834 1.400 . S
C835 C836 1.398 . S
C835 C841 1.491 1_564 S
C836 H827 0.950 1_554 S
C836 C835 1.398 . S
C836 C837 1.391 . S
C837 H825 0.950 . S
C837 C833 1.393 . S
C837 C836 1.391 . S
C838 H828 0.950 . S
C838 C839 1.386 . S
C838 C840 1.391 . S
C839 C838 1.386 . S
C839 C843 1.393 . S
C840 H829 0.950 . S
C840 C838 1.391 . S
C840 C841 1.400 . S
C841 C835 1.491 1_546 S
C841 C840 1.400 . S
C841 C842 1.398 . S
C842 H830 0.950 1_556 S
C842 C841 1.398 . S
C842 C843 1.391 . S
C843 H831 0.950 . S
C843 C839 1.393 . S
C843 C842 1.391 . S
H844 C852 0.950 . S
H845 C857 0.950 . S
H846 C854 0.950 1_565 S
H847 C856 0.950 . S
H848 C858 0.950 . S
H849 C860 0.950 1_545 S
H850 C862 0.950 . S
H851 C863 0.950 . S
C852 H844 0.950 . S
C852 C853 1.386 . S
C852 C854 1.391 . S
C853 C852 1.386 . S
C853 C857 1.393 . S
C854 H846 0.950 1_545 S
C854 C852 1.391 . S
C854 C855 1.400 . S
C855 C854 1.400 . S
C855 C856 1.398 . S
C855 C861 1.491 1_545 S
C856 H847 0.950 . S
C856 C855 1.398 . S
C856 C857 1.391 . S
C857 H845 0.950 . S
C857 C853 1.393 . S
C857 C856 1.391 . S
C858 H848 0.950 . S
C858 C859 1.386 . S
C858 C860 1.391 . S
C859 C858 1.386 . S
C859 C863 1.393 . S
C860 H849 0.950 1_565 S
C860 C858 1.391 . S
C860 C861 1.400 . S
C861 C855 1.491 1_565 S
C861 C860 1.400 . S
C861 C862 1.398 . S
C862 H850 0.950 . S
C862 C861 1.398 . S
C862 C863 1.391 . S
C863 H851 0.950 . S
C863 C859 1.393 . S
C863 C862 1.391 . S
C233 C8 1.413 . S
C239 C92 1.408 . S
C253 C22 1.428 . S
C259 C106 1.424 . S
C273 C64 1.428 . S
C279 C36 1.410 . S
C293 C78 1.420 . S
C299 C50 1.407 . S
C313 C204 1.427 . S
C319 C120 1.410 . S
C333 C218 1.428 . S
C339 C134 1.411 . S
C353 C148 1.408 . S
C359 C176 1.424 . S
C373 C162 1.407 . S
C379 C190 1.420 . S
C393 C13 1.328 . S
C399 C77 1.398 . S
C413 C27 1.294 . S
C419 C63 1.414 . S
C433 C41 1.292 . S
C439 C105 1.411 . S
C453 C91 1.414 . S
C459 C55 1.288 . S
C473 C189 1.415 . S
C479 C125 1.291 . S
C493 C175 1.409 . S
C499 C139 1.309 . S
C513 C153 1.296 . S
C519 C217 1.409 . S
C533 C203 1.408 . S
C539 C167 1.311 . S
C553 C179 1.363 . S
C559 C11 1.351 . S
C573 C25 1.356 . S
C579 C193 1.358 . S
C593 C207 1.357 . S
C599 C39 1.359 . S
C613 C221 1.356 . S
C619 C53 1.361 . S
C633 C123 1.353 . S
C639 C67 1.363 . S
C653 C137 1.356 . S
C659 C81 1.362 . S
C673 C95 1.362 . S
C679 C151 1.355 . S
C693 C109 1.361 . S
C699 C165 1.353 . S
C713 C35 1.503 . S
C719 C7 1.497 . S
C733 C21 1.502 . S
C739 C49 1.494 . S
C753 C97 1.254 . S
C759 C69 1.266 . S
C773 C83 1.237 . S
C779 C111 1.224 . S
C793 C147 1.498 . S
C799 C119 1.491 . S
C813 C161 1.503 . S
C819 C133 1.496 . S
C833 C209 1.223 . S
C839 C181 1.243 . S
C853 C223 1.236 . S
C859 C195 1.262 . S
