# Generated by pormake.
# Topology qtz-x, (6)-cn, num edge types: 1
# Building blocks:
#     Node 0, Type 0, BuildingBlock: PAMTOO_clean_sbu_0, # of connection points: 6
#     Node 1, Type 0, BuildingBlock: PAMTOO_clean_sbu_0, # of connection points: 6
#     Node 2, Type 0, BuildingBlock: PAMTOO_clean_sbu_0, # of connection points: 6
#     Edge 3, Type (0, 0), BuildingBlock: TEMPAE_clean_linker_10, # of connection points: 2
#     Edge 4, Type (0, 0), BuildingBlock: TEMPAE_clean_linker_10, # of connection points: 2
#     Edge 5, Type (0, 0), BuildingBlock: TEMPAE_clean_linker_10, # of connection points: 2
#     Edge 6, Type (0, 0), BuildingBlock: TEMPAE_clean_linker_10, # of connection points: 2
#     Edge 7, Type (0, 0), BuildingBlock: TEMPAE_clean_linker_10, # of connection points: 2
#     Edge 8, Type (0, 0), BuildingBlock: TEMPAE_clean_linker_10, # of connection points: 2
#     Edge 9, Type (0, 0), BuildingBlock: TEMPAE_clean_linker_10, # of connection points: 2
#     Edge 10, Type (0, 0), BuildingBlock: TEMPAE_clean_linker_10, # of connection points: 2
#     Edge 11, Type (0, 0), BuildingBlock: TEMPAE_clean_linker_10, # of connection points: 2
# Relax obj value: 0.128
# Max RMSD: 0.232
# Mean RMSD: 0.232
data_MOF--net-qtz-x--node1-PAMTOO_clean_sbu_0--edge1-TEMPAE_clean_linker_10
_symmetry_space_group_name_H-M    P1
_symmetry_Int_Tables_number       1
_symmetry_cell_setting            triclinic
loop_
_symmetry_equiv_pos_as_xyz
'x, y, z'
_cell_length_a     15.38736
_cell_length_b     15.400607
_cell_length_c     55.054873
_cell_angle_alpha  90.100184
_cell_angle_beta   89.980442
_cell_angle_gamma 119.95808
loop_
_atom_site_label
_atom_site_type_symbol
_atom_site_fract_x
_atom_site_fract_y
_atom_site_fract_z
_atom_type_partial_charge
Dy0 Dy 0.085 0.59427 0.16368 0.0
Dy1 Dy 0.86062 0.4838 0.18861 0.0
C2 C 0.97434 0.71351 0.17621 0.0
O3 O 0.11514 0.6407 0.2027 0.0
O4 O 0.96961 0.51135 0.21847 0.0
O5 O 0.21986 0.72446 0.15069 0.0
O6 O 0.20073 0.5761 0.14637 0.0
O7 O 0.88749 0.36671 0.17235 0.0
O8 O 0.05471 0.44975 0.18009 0.0
O9 O 0.83093 0.49926 0.1495 0.0
O10 O 0.97636 0.51471 0.13367 0.0
O11 O 0.745 0.35457 0.20731 0.0
O12 O 0.726 0.48256 0.20056 0.0
C13 C 0.06112 0.58728 0.22128 0.0
O14 O 0.02043 0.69429 0.1588 0.0
O15 O 0.92832 0.64859 0.19363 0.0
C16 C 0.27665 0.68742 0.11412 0.0
C17 C 0.30835 0.69527 0.06354 0.0
C18 C 0.2357 0.71536 0.07323 0.0
C19 C 0.21932 0.71058 0.09833 0.0
C20 C 0.35087 0.66993 0.1045 0.0
C21 C 0.36641 0.67348 0.07942 0.0
C22 C 0.2525 0.6701 0.14018 0.0
C23 C 0.97101 0.36579 0.17616 0.0
C24 C 0.88526 0.50039 0.1309 0.0
C25 C 0.67159 0.39976 0.23832 0.0
C26 C 0.64291 0.38764 0.28915 0.0
C27 C 0.57217 0.31252 0.2737 0.0
C28 C 0.58648 0.31863 0.24853 0.0
C29 C 0.74108 0.47632 0.25352 0.0
C30 C 0.72663 0.47062 0.27868 0.0
C31 C 0.69346 0.39847 0.21235 0.0
H32 H 0.18934 0.73134 0.06135 0.0
H33 H 0.16011 0.7223 0.10531 0.0
H34 H 0.39498 0.65077 0.11635 0.0
H35 H 0.42332 0.65835 0.07239 0.0
H36 H 0.50784 0.24665 0.28109 0.0
H37 H 0.53291 0.25811 0.23711 0.0
H38 H 0.80808 0.5391 0.246 0.0
H39 H 0.7821 0.53033 0.28993 0.0
Dy40 Dy 0.45551 0.972 0.49576 0.0
Dy41 Dy 0.56626 0.19396 0.52232 0.0
C42 C 0.6832 0.08194 0.5094 0.0
O43 O 0.40944 0.93699 0.53468 0.0
O44 O 0.53522 0.08241 0.55161 0.0
O45 O 0.46987 0.86157 0.4747 0.0
O46 O 0.32257 0.83621 0.48431 0.0
O47 O 0.40121 0.12564 0.52689 0.0
O48 O 0.35933 0.041 0.491 0.0
O49 O 0.55542 0.22823 0.48326 0.0
O50 O 0.54003 0.08387 0.46683 0.0
O51 O 0.57023 0.33047 0.53377 0.0
O52 O 0.69203 0.30442 0.54307 0.0
C53 C 0.46045 0.98997 0.55366 0.0
O54 O 0.59857 -0.00234 0.51226 0.0
O55 O 0.68342 0.16645 0.50638 0.0
C56 C 0.34394 0.78733 0.44523 0.0
C57 C 0.29506 0.75154 0.39545 0.0
C58 C 0.33329 0.84827 0.40528 0.0
C59 C 0.35723 0.86587 0.42994 0.0
C60 C 0.30579 0.69081 0.43562 0.0
C61 C 0.28135 0.67294 0.41094 0.0
C62 C 0.37359 0.80739 0.47091 0.0
C63 C 0.33795 0.0831 0.50894 0.0
C64 C 0.55622 0.17566 0.46446 0.0
C65 C 0.64291 0.38147 0.5732 0.0
C66 C 0.62552 0.4163 0.62305 0.0
C67 C 0.55842 0.41735 0.60585 0.0
C68 C 0.56708 0.40031 0.58122 0.0
C69 C 0.71113 0.38231 0.59035 0.0
C70 C 0.70232 0.39913 0.61496 0.0
C71 C 0.64957 0.35808 0.54731 0.0
H72 H 0.34605 0.91075 0.39385 0.0
H73 H 0.38695 0.94104 0.43707 0.0
H74 H 0.29523 0.6294 0.44717 0.0
H75 H 0.25079 0.59735 0.40403 0.0
H76 H 0.49951 0.43217 0.6114 0.0
H77 H 0.51381 0.40119 0.56852 0.0
H78 H 0.7708 0.36863 0.58481 0.0
H79 H 0.75479 0.39698 0.62771 0.0
Dy80 Dy 0.44162 0.67563 0.82898 0.0
Dy81 Dy 0.55542 0.56737 0.85485 0.0
C82 C 0.32689 0.44744 0.84152 0.0
O83 O 0.39591 0.65994 0.86808 0.0
O84 O 0.53307 0.65721 0.88343 0.0
O85 O 0.30697 0.67337 0.81667 0.0
O86 O 0.45256 0.80368 0.81027 0.0
O87 O 0.67167 0.71038 0.83823 0.0
O88 O 0.58709 0.79478 0.8442 0.0
O89 O 0.54311 0.52115 0.81579 0.0
O90 O 0.52439 0.64826 0.79945 0.0
O91 O 0.68669 0.58141 0.87263 0.0
O92 O 0.55353 0.43574 0.86933 0.0
C93 C 0.45399 0.6674 0.88643 0.0
O94 O 0.34748 0.51088 0.82369 0.0
O95 O 0.39025 0.46922 0.8595 0.0
C96 C 0.33573 0.7548 0.77881 0.0
C97 C 0.32303 0.7663 0.72791 0.0
C98 C 0.33377 0.68911 0.73852 0.0
C99 C 0.34036 0.68363 0.76372 0.0
C100 C 0.32142 0.82968 0.76845 0.0
C101 C 0.31492 0.83535 0.74321 0.0
C102 C 0.35739 0.75763 0.80489 0.0
C103 C 0.6716 0.79486 0.84104 0.0
C104 C 0.54219 0.5736 0.797 0.0
C105 C 0.64571 0.47322 0.90584 0.0
C106 C 0.66866 0.46019 0.9563 0.0
C107 C 0.61452 0.50465 0.94734 0.0
C108 C 0.60287 0.51074 0.92234 0.0
C109 C 0.69767 0.4267 0.91465 0.0
C110 C 0.70877 0.41985 0.93969 0.0
C111 C 0.64119 0.48814 0.87958 0.0
H112 H 0.33932 0.63416 0.72732 0.0
H113 H 0.35231 0.62567 0.7714 0.0
H114 H 0.31902 0.88596 0.77981 0.0
H115 H 0.30821 0.89664 0.73566 0.0
H116 H 0.58188 0.53545 0.95966 0.0
H117 H 0.56205 0.54653 0.91588 0.0
H118 H 0.73152 0.39769 0.90217 0.0
H119 H 0.75167 0.38604 0.94605 0.0
C120 C 0.94065 0.83858 0.19665 0.0
C121 C 0.97394 0.80919 0.17618 0.0
C122 C 0.93985 0.92919 0.1969 0.0
C123 C 0.9722 -0.00876 0.17609 0.0
C124 C 0.00545 0.96183 0.15532 0.0
C125 C 0.00639 0.87128 0.15566 0.0
C126 C 0.90481 0.95872 0.21945 0.0
C127 C 0.03974 0.02588 0.13274 0.0
C128 C 0.88567 0.18112 0.16875 0.0
C129 C 0.97103 0.26989 0.17617 0.0
C130 C 0.88515 0.08981 0.16852 0.0
C131 C 0.97176 0.08732 0.17609 0.0
C132 C 0.05797 0.17653 0.18371 0.0
C133 C 0.05671 0.26689 0.18356 0.0
C134 C 0.7921 -0.0039 0.16011 0.0
C135 C 0.15142 0.17647 0.19208 0.0
H136 H 0.91587 0.79114 0.21261 0.0
H137 H 0.03176 0.84878 0.13974 0.0
H138 H 0.96538 0.03181 0.22635 0.0
H139 H 0.83976 0.96831 0.21504 0.0
H140 H 0.88261 0.90225 0.23416 0.0
H141 H 0.06221 -0.00836 0.11803 0.0
H142 H 0.9787 0.03777 0.12587 0.0
H143 H 0.10445 0.10072 0.1371 0.0
H144 H 0.81932 0.18296 0.16293 0.0
H145 H 0.12286 0.33515 0.1894 0.0
H146 H 0.76356 0.93956 0.17486 0.0
H147 H 0.81048 0.96262 0.14447 0.0
H148 H 0.73133 0.011 0.15459 0.0
H149 H 0.13343 0.1248 0.2077 0.0
H150 H 0.21184 0.25222 0.19763 0.0
H151 H 0.18031 0.1487 0.17731 0.0
C152 C 0.1809 0.05273 0.4882 0.0
C153 C 0.24171 0.08243 0.50899 0.0
C154 C 0.08958 0.05224 0.48798 0.0
C155 C 0.05813 0.08124 0.50912 0.0
C156 C 0.11884 0.11071 0.5302 0.0
C157 C 0.21025 0.11142 0.52985 0.0
C158 C 0.02701 0.02122 0.46509 0.0
C159 C 0.08714 0.14129 0.55315 0.0
C160 C 0.86831 0.16817 0.50279 0.0
C161 C 0.77901 0.08165 0.50935 0.0
C162 C 0.95973 0.1689 0.50251 0.0
C163 C 0.96182 0.08126 0.50915 0.0
C164 C 0.87209 -0.00621 0.51588 0.0
C165 C 0.78156 -0.00509 0.5158 0.0
C166 C 0.05401 0.26332 0.49507 0.0
C167 C 0.8718 0.89921 0.52324 0.0
H168 H 0.20499 0.0306 0.47199 0.0
H169 H 0.25669 0.13401 0.54602 0.0
H170 H 0.95193 0.95578 0.46884 0.0
H171 H 0.0153 0.08306 0.45882 0.0
H172 H 0.06244 0.00122 0.45016 0.0
H173 H 0.14247 0.16099 0.56808 0.0
H174 H 0.07756 0.20683 0.54949 0.0
H175 H 0.01356 0.07937 0.55937 0.0
H176 H 0.86684 0.23537 0.49769 0.0
H177 H 0.71287 0.92788 0.52097 0.0
H178 H 0.08886 0.24769 0.47926 0.0
H179 H 0.10943 0.28953 0.5101 0.0
H180 H 0.03931 0.32478 0.49017 0.0
H181 H 0.90099 0.87309 0.50817 0.0
H182 H 0.79563 0.8378 0.52813 0.0
H183 H 0.92225 0.91462 0.53904 0.0
C184 C 0.85692 0.89285 0.83456 0.0
C185 C 0.76764 0.89065 0.84099 0.0
C186 C 0.94867 0.98309 0.83451 0.0
C187 C 0.95116 0.07302 0.84123 0.0
C188 C 0.86141 0.07135 0.84779 0.0
C189 C 0.77057 0.98016 0.8475 0.0
C190 C 0.0429 0.98225 0.82721 0.0
C191 C 0.86144 0.16584 0.85521 0.0
C192 C 0.19943 0.29099 0.86224 0.0
C193 C 0.23116 0.35144 0.84144 0.0
C194 C 0.10809 0.20027 0.86247 0.0
C195 C 0.04776 0.16902 0.84131 0.0
C196 C 0.07966 0.22937 0.82021 0.0
C197 C 0.17084 0.32017 0.82057 0.0
C198 C 0.07593 0.13809 0.88536 0.0
C199 C 0.01759 0.19792 0.79725 0.0
H200 H 0.85522 0.82404 0.82943 0.0
H201 H 0.70193 0.979 0.85257 0.0
H202 H 0.07832 0.03258 0.81145 0.0
H203 H 0.09794 0.01117 0.84233 0.0
H204 H 0.02797 0.906 0.8223 0.0
H205 H 0.78528 0.15157 0.86001 0.0
H206 H 0.91161 0.20053 0.87108 0.0
H207 H 0.89114 0.22116 0.8402 0.0
H208 H 0.2455 0.31495 0.87847 0.0
H209 H 0.19512 0.36633 0.80439 0.0
H210 H 0.06601 0.06282 0.88167 0.0
H211 H 0.00242 0.12695 0.89155 0.0
H212 H 0.13115 0.17343 0.90033 0.0
H213 H 0.00559 0.12416 0.79102 0.0
H214 H 0.05357 0.25303 0.78233 0.0
H215 H 0.94261 0.18893 0.80087 0.0
C216 C 0.33045 0.65427 0.91799 0.0
C217 C 0.4294 0.68386 0.91139 0.0
C218 C 0.3053 0.65889 0.94234 0.0
C219 C 0.38132 0.69575 0.96035 0.0
C220 C 0.48198 0.72971 0.95355 0.0
C221 C 0.50457 0.72248 0.92923 0.0
C222 C 0.19685 0.62008 0.94896 0.0
C223 C 0.56557 0.77075 0.97209 0.0
C224 C 0.33631 0.77487 0.02247 0.0
C225 C 0.32186 0.69385 0.0369 0.0
C226 C 0.35414 0.77603 0.99739 0.0
C227 C 0.35552 0.69328 0.98651 0.0
C228 C 0.33769 0.60991 1.00093 0.0
C229 C 0.32195 0.61163 0.02599 0.0
C230 C 0.37487 0.86709 0.98272 0.0
C231 C 0.33697 0.51954 0.98998 0.0
H232 H 0.27195 0.62348 0.90431 0.0
H233 H 0.58135 0.74599 0.92422 0.0
H234 H 0.16989 0.55281 0.96064 0.0
H235 H 0.18909 0.67711 0.95957 0.0
H236 H 0.1477 0.59957 0.93269 0.0
H237 H 0.64076 0.80334 0.96351 0.0
H238 H 0.56306 0.82935 0.98332 0.0
H239 H 0.55592 0.70989 0.9845 0.0
H240 H 0.33668 0.83866 0.03094 0.0
H241 H 0.30942 0.54835 0.0371 0.0
H242 H 0.32316 0.84484 0.96696 0.0
H243 H 0.45236 0.90308 0.9754 0.0
H244 H 0.36668 0.92325 0.99367 0.0
H245 H 0.28459 0.49089 0.97433 0.0
H246 H 0.31449 0.45794 1.00333 0.0
H247 H 0.41279 0.54106 0.98304 0.0
C248 C 0.58888 0.31492 0.43536 0.0
C249 C 0.57396 0.21856 0.4396 0.0
C250 C 0.60193 0.35327 0.4116 0.0
C251 C 0.59966 0.29371 0.3917 0.0
C252 C 0.58507 0.19673 0.39592 0.0
C253 C 0.5728 0.16065 0.41973 0.0
C254 C 0.61742 0.45708 0.40777 0.0
C255 C 0.58167 0.13041 0.37524 0.0
C256 C 0.53828 0.33214 0.3272 0.0
C257 C 0.63288 0.37541 0.31606 0.0
C258 C 0.52689 0.30967 0.35212 0.0
C259 C 0.6122 0.33149 0.36632 0.0
C260 C 0.70845 0.38 0.35548 0.0
C261 C 0.71753 0.40099 0.33051 0.0
C262 C 0.42293 0.25807 0.363 0.0
C263 C 0.80143 0.40481 0.36994 0.0
H264 H 0.58969 0.36018 0.45054 0.0
H265 H 0.56145 0.08614 0.42268 0.0
H266 H 0.68909 0.50425 0.39805 0.0
H267 H 0.55647 0.453 0.3962 0.0
H268 H 0.61877 0.49447 0.42515 0.0
H269 H 0.56943 0.05672 0.38162 0.0
H270 H 0.52034 0.11697 0.36249 0.0
H271 H 0.65297 0.1682 0.36488 0.0
H272 H 0.47262 0.31389 0.31633 0.0
H273 H 0.79078 0.43347 0.32214 0.0
H274 H 0.42146 0.29704 0.37982 0.0
H275 H 0.40153 0.1802 0.36807 0.0
H276 H 0.3658 0.25523 0.35018 0.0
H277 H 0.80323 0.44356 0.3871 0.0
H278 H 0.87132 0.45299 0.35961 0.0
H279 H 0.80037 0.33447 0.37489 0.0
C280 C 0.39929 0.76832 0.68752 0.0
C281 C 0.32838 0.77982 0.70106 0.0
C282 C 0.41338 0.79125 0.66268 0.0
C283 C 0.35553 0.82723 0.65106 0.0
C284 C 0.28049 0.8345 0.66431 0.0
C285 C 0.26779 0.81068 0.68915 0.0
C286 C 0.49408 0.78221 0.64923 0.0
C287 C 0.21687 0.87205 0.65254 0.0
C288 C 0.47892 0.0075 0.59874 0.0
C289 C 0.43317 0.94634 0.57839 0.0
C290 C 0.45368 0.96955 0.62238 0.0
C291 C 0.38108 0.86753 0.6259 0.0
C292 C 0.33448 0.80504 0.60552 0.0
C293 C 0.36089 0.84528 0.58197 0.0
C294 C 0.50487 0.03901 0.6436 0.0
C295 C 0.25697 0.69582 0.60861 0.0
H296 H 0.44726 0.74573 0.69657 0.0
H297 H 0.21165 0.81813 0.69938 0.0
H298 H 0.46459 0.74175 0.63181 0.0
H299 H 0.55684 0.85814 0.64484 0.0
H300 H 0.52427 0.74233 0.66006 0.0
H301 H 0.15504 0.86335 0.66457 0.0
H302 H 0.26445 0.95261 0.64801 0.0
H303 H 0.18415 0.83135 0.6353 0.0
H304 H 0.53433 0.08588 0.59628 0.0
H305 H 0.32506 0.79747 0.56639 0.0
H306 H 0.54586 0.01062 0.65458 0.0
H307 H 0.44812 0.04123 0.65562 0.0
H308 H 0.55883 0.11674 0.63774 0.0
H309 H 0.29014 0.65667 0.61853 0.0
H310 H 0.2273 0.65737 0.59094 0.0
H311 H 0.19345 0.68858 0.61969 0.0
C312 C 0.71952 0.54801 0.99649 0.0
C313 C 0.68765 0.46037 0.98277 0.0
C314 C 0.74489 0.55193 0.02112 0.0
C315 C 0.73744 0.46585 0.03238 0.0
C316 C 0.70191 0.37609 0.01884 0.0
C317 C 0.67801 0.37461 0.99416 0.0
C318 C 0.78335 0.64936 0.03483 0.0
C319 C 0.69169 0.28239 0.03027 0.0
C320 C 0.90928 0.50691 0.0859 0.0
C321 C 0.8452 0.48799 0.10582 0.0
C322 C 0.87495 0.49962 0.062 0.0
C323 C 0.77361 0.47189 0.05776 0.0
C324 C 0.70805 0.45163 0.07772 0.0
C325 C 0.74474 0.46037 0.10154 0.0
C326 C 0.94777 0.52304 0.04127 0.0
C327 C 0.59939 0.42139 0.07389 0.0
H328 H 0.72806 0.61483 0.98773 0.0
H329 H 0.65217 0.30635 0.9837 0.0
H330 H 0.74017 0.63707 0.05185 0.0
H331 H 0.86285 0.67845 0.04002 0.0
H332 H 0.7785 0.70742 0.02392 0.0
H333 H 0.65564 0.21679 0.01784 0.0
H334 H 0.76691 0.29503 0.03535 0.0
H335 H 0.64671 0.26427 0.04717 0.0
H336 H -0.01273 0.52911 0.08893 0.0
H337 H 0.6947 0.44564 0.11678 0.0
H338 H 0.95396 0.58685 0.03056 0.0
H339 H 0.9198 0.45775 0.02883 0.0
H340 H 0.0239 0.54246 0.04765 0.0
H341 H 0.59428 0.482 0.06431 0.0
H342 H 0.55748 0.40548 0.09127 0.0
H343 H 0.56225 0.35365 0.06221 0.0
C344 C 0.19889 0.6943 0.25069 0.0
C345 C 0.10264 0.6128 0.24629 0.0
C346 C 0.23641 0.72041 0.2745 0.0
C347 C 0.17634 0.6636 0.29433 0.0
C348 C 0.07981 0.58056 0.28997 0.0
C349 C 0.04409 0.55648 0.26608 0.0
C350 C 0.33977 0.80947 0.27846 0.0
C351 C 0.01311 0.51801 0.31056 0.0
C352 C 0.29198 0.66926 0.35575 0.0
C353 C 0.26879 0.73255 0.3692 0.0
C354 C 0.26471 0.64823 0.33119 0.0
C355 C 0.21303 0.69155 0.31976 0.0
C356 C 0.19122 0.75709 0.33308 0.0
C357 C 0.21926 0.77672 0.35762 0.0
C358 C 0.28911 0.57779 0.31762 0.0
C359 C 0.13596 0.80455 0.32158 0.0
H360 H 0.24467 0.73841 0.23557 0.0
H361 H 0.96943 0.49359 0.26299 0.0
H362 H 0.33442 0.86686 0.28954 0.0
H363 H 0.3869 0.78637 0.28873 0.0
H364 H 0.37807 0.84435 0.2611 0.0
H365 H 0.94532 0.4495 0.30395 0.0
H366 H 0.05465 0.4951 0.32303 0.0
H367 H -0.01122 0.5632 0.32127 0.0
H368 H 0.33165 0.63611 0.36445 0.0
H369 H 0.20008 0.82484 0.36792 0.0
H370 H 0.3314 0.61401 0.3008 0.0
H371 H 0.2186 0.50981 0.31206 0.0
H372 H 0.33401 0.55429 0.32875 0.0
H373 H 0.1743 0.84408 0.30464 0.0
H374 H 0.1305 0.85877 0.33392 0.0
H375 H 0.05899 0.74546 0.31653 0.0
C376 C 0.57279 0.46561 0.76778 0.0
C377 C 0.56004 0.54841 0.77211 0.0
C378 C 0.58556 0.43988 0.74402 0.0
C379 C 0.58588 0.49849 0.72417 0.0
C380 C 0.57452 0.58287 0.72848 0.0
C381 C 0.56134 0.60645 0.7523 0.0
C382 C 0.59755 0.34938 0.74013 0.0
C383 C 0.57426 0.64749 0.70789 0.0
C384 C 0.70111 0.49419 0.66338 0.0
C385 C 0.61572 0.43355 0.64931 0.0
C386 C 0.69273 0.51349 0.68796 0.0
C387 C 0.59662 0.47142 0.69877 0.0
C388 C 0.51027 0.40859 0.68483 0.0
C389 C 0.52086 0.39033 0.6603 0.0
C390 C 0.78655 0.58154 0.70215 0.0
C391 C 0.40647 0.36227 0.69568 0.0
H392 H 0.57165 0.42013 0.78291 0.0
H393 H 0.5513 0.67046 0.75531 0.0
H394 H 0.53549 0.29371 0.72859 0.0
H395 H 0.66865 0.37143 0.73035 0.0
H396 H 0.59778 0.31283 0.75748 0.0
H397 H 0.57774 0.71729 0.71454 0.0
H398 H 0.63878 0.66837 0.69557 0.0
H399 H 0.50477 0.60475 0.69701 0.0
H400 H 0.77461 0.52883 0.655 0.0
H401 H 0.45462 0.34197 0.6497 0.0
H402 H 0.78905 0.54433 0.71916 0.0
H403 H 0.78582 0.65078 0.7074 0.0
H404 H 0.85591 0.60303 0.69158 0.0
H405 H 0.4022 0.32017 0.71239 0.0
H406 H 0.34748 0.31062 0.68283 0.0
H407 H 0.39008 0.42218 0.70098 0.0
loop_
_geom_bond_atom_site_label_1
_geom_bond_atom_site_label_2
_geom_bond_distance
_geom_bond_site_symmetry_2
_ccdc_geom_bond_type
Dy0 O3 2.307 . S
Dy0 O5 2.395 . S
Dy0 O6 2.379 . S
Dy0 O8 2.339 . S
Dy0 O10 2.298 . S
Dy0 O14 2.275 . S
Dy0 C22 2.738 . S
Dy1 O4 2.298 1_655 S
Dy1 O7 2.275 1_655 S
Dy1 O9 2.307 . S
Dy1 O11 2.395 . S
Dy1 O12 2.379 . S
Dy1 O15 2.339 . S
Dy1 C31 2.738 . S
C2 O14 1.254 . S
C2 O15 1.257 1_455 S
O3 Dy0 2.307 . S
O3 C13 1.266 . S
O4 Dy1 2.298 1_455 S
O4 C13 1.236 . S
O5 Dy0 2.395 . S
O5 C22 1.255 . S
O6 Dy0 2.379 . S
O6 C22 1.249 . S
O7 Dy1 2.275 1_455 S
O7 C23 1.254 . S
O8 Dy0 2.339 . S
O8 C23 1.257 . S
O9 Dy1 2.307 . S
O9 C24 1.266 . S
O10 Dy0 2.298 . S
O10 C24 1.236 1_455 S
O11 Dy1 2.395 . S
O11 C31 1.255 . S
O12 Dy1 2.379 . S
O12 C31 1.249 . S
C13 O3 1.266 . S
C13 O4 1.236 . S
O14 Dy0 2.275 . S
O14 C2 1.254 . S
O15 Dy1 2.339 . S
O15 C2 1.257 1_655 S
C16 C19 1.344 . S
C16 C20 1.328 . S
C16 C22 1.516 . S
C17 C18 1.304 . S
C17 C21 1.323 . S
C18 C17 1.304 . S
C18 C19 1.371 . S
C18 H32 0.930 . S
C19 C16 1.344 . S
C19 C18 1.371 . S
C19 H33 0.931 . S
C20 C16 1.328 . S
C20 C21 1.433 . S
C20 H34 0.931 . S
C21 C17 1.323 . S
C21 C20 1.433 . S
C21 H35 0.933 . S
C22 Dy0 2.738 . S
C22 O5 1.255 . S
C22 O6 1.249 . S
C22 C16 1.516 . S
C23 O7 1.254 . S
C23 O8 1.257 . S
C24 O9 1.266 . S
C24 O10 1.236 1_655 S
C25 C28 1.344 . S
C25 C29 1.328 . S
C25 C31 1.516 . S
C26 C27 1.304 . S
C26 C30 1.323 . S
C27 C26 1.304 . S
C27 C28 1.371 . S
C27 H36 0.930 . S
C28 C25 1.344 . S
C28 C27 1.371 . S
C28 H37 0.931 . S
C29 C25 1.328 . S
C29 C30 1.433 . S
C29 H38 0.931 . S
C30 C26 1.323 . S
C30 C29 1.433 . S
C30 H39 0.933 . S
C31 Dy1 2.738 . S
C31 O11 1.255 . S
C31 O12 1.249 . S
C31 C25 1.516 . S
H32 C18 0.930 . S
H33 C19 0.931 . S
H34 C20 0.931 . S
H35 C21 0.933 . S
H36 C27 0.930 . S
H37 C28 0.931 . S
H38 C29 0.931 . S
H39 C30 0.933 . S
Dy40 O43 2.307 . S
Dy40 O45 2.395 . S
Dy40 O46 2.379 . S
Dy40 O48 2.339 . S
Dy40 O50 2.298 1_565 S
Dy40 O54 2.275 . S
Dy40 C62 2.738 . S
Dy41 O44 2.298 1_545 S
Dy41 O47 2.275 . S
Dy41 O49 2.307 . S
Dy41 O51 2.395 . S
Dy41 O52 2.379 . S
Dy41 O55 2.339 . S
Dy41 C71 2.738 . S
C42 O54 1.254 1_545 S
C42 O55 1.257 . S
O43 Dy40 2.307 . S
O43 C53 1.266 . S
O44 Dy41 2.298 1_565 S
O44 C53 1.236 . S
O45 Dy40 2.395 . S
O45 C62 1.255 . S
O46 Dy40 2.379 . S
O46 C62 1.249 . S
O47 Dy41 2.275 . S
O47 C63 1.254 1_545 S
O48 Dy40 2.339 . S
O48 C63 1.257 . S
O49 Dy41 2.307 . S
O49 C64 1.266 . S
O50 Dy40 2.298 1_545 S
O50 C64 1.236 . S
O51 Dy41 2.395 . S
O51 C71 1.255 . S
O52 Dy41 2.379 . S
O52 C71 1.249 . S
C53 O43 1.266 . S
C53 O44 1.236 . S
O54 Dy40 2.275 . S
O54 C42 1.254 1_565 S
O55 Dy41 2.339 . S
O55 C42 1.257 . S
C56 C59 1.344 . S
C56 C60 1.328 . S
C56 C62 1.516 . S
C57 C58 1.304 . S
C57 C61 1.323 . S
C58 C57 1.304 . S
C58 C59 1.371 . S
C58 H72 0.930 . S
C59 C56 1.344 . S
C59 C58 1.371 . S
C59 H73 0.931 . S
C60 C56 1.328 . S
C60 C61 1.433 . S
C60 H74 0.931 . S
C61 C57 1.323 . S
C61 C60 1.433 . S
C61 H75 0.933 . S
C62 Dy40 2.738 . S
C62 O45 1.255 . S
C62 O46 1.249 . S
C62 C56 1.516 . S
C63 O47 1.254 1_565 S
C63 O48 1.257 . S
C64 O49 1.266 . S
C64 O50 1.236 . S
C65 C68 1.344 . S
C65 C69 1.328 . S
C65 C71 1.516 . S
C66 C67 1.304 . S
C66 C70 1.323 . S
C67 C66 1.304 . S
C67 C68 1.371 . S
C67 H76 0.930 . S
C68 C65 1.344 . S
C68 C67 1.371 . S
C68 H77 0.931 . S
C69 C65 1.328 . S
C69 C70 1.433 . S
C69 H78 0.931 . S
C70 C66 1.323 . S
C70 C69 1.433 . S
C70 H79 0.933 . S
C71 Dy41 2.738 . S
C71 O51 1.255 . S
C71 O52 1.249 . S
C71 C65 1.516 . S
H72 C58 0.930 . S
H73 C59 0.931 . S
H74 C60 0.931 . S
H75 C61 0.933 . S
H76 C67 0.930 . S
H77 C68 0.931 . S
H78 C69 0.931 . S
H79 C70 0.933 . S
Dy80 O83 2.307 . S
Dy80 O85 2.395 . S
Dy80 O86 2.379 . S
Dy80 O88 2.339 . S
Dy80 O90 2.298 . S
Dy80 O94 2.275 . S
Dy80 C102 2.738 . S
Dy81 O84 2.298 . S
Dy81 O87 2.275 . S
Dy81 O89 2.307 . S
Dy81 O91 2.395 . S
Dy81 O92 2.379 . S
Dy81 O95 2.339 . S
Dy81 C111 2.738 . S
C82 O94 1.254 . S
C82 O95 1.257 . S
O83 Dy80 2.307 . S
O83 C93 1.266 . S
O84 Dy81 2.298 . S
O84 C93 1.236 . S
O85 Dy80 2.395 . S
O85 C102 1.255 . S
O86 Dy80 2.379 . S
O86 C102 1.249 . S
O87 Dy81 2.275 . S
O87 C103 1.254 . S
O88 Dy80 2.339 . S
O88 C103 1.257 . S
O89 Dy81 2.307 . S
O89 C104 1.266 . S
O90 Dy80 2.298 . S
O90 C104 1.236 . S
O91 Dy81 2.395 . S
O91 C111 1.255 . S
O92 Dy81 2.379 . S
O92 C111 1.249 . S
C93 O83 1.266 . S
C93 O84 1.236 . S
O94 Dy80 2.275 . S
O94 C82 1.254 . S
O95 Dy81 2.339 . S
O95 C82 1.257 . S
C96 C99 1.344 . S
C96 C100 1.328 . S
C96 C102 1.516 . S
C97 C98 1.304 . S
C97 C101 1.323 . S
C98 C97 1.304 . S
C98 C99 1.371 . S
C98 H112 0.930 . S
C99 C96 1.344 . S
C99 C98 1.371 . S
C99 H113 0.931 . S
C100 C96 1.328 . S
C100 C101 1.433 . S
C100 H114 0.931 . S
C101 C97 1.323 . S
C101 C100 1.433 . S
C101 H115 0.933 . S
C102 Dy80 2.738 . S
C102 O85 1.255 . S
C102 O86 1.249 . S
C102 C96 1.516 . S
C103 O87 1.254 . S
C103 O88 1.257 . S
C104 O89 1.266 . S
C104 O90 1.236 . S
C105 C108 1.344 . S
C105 C109 1.328 . S
C105 C111 1.516 . S
C106 C107 1.304 . S
C106 C110 1.323 . S
C107 C106 1.304 . S
C107 C108 1.371 . S
C107 H116 0.930 . S
C108 C105 1.344 . S
C108 C107 1.371 . S
C108 H117 0.931 . S
C109 C105 1.328 . S
C109 C110 1.433 . S
C109 H118 0.931 . S
C110 C106 1.323 . S
C110 C109 1.433 . S
C110 H119 0.933 . S
C111 Dy81 2.738 . S
C111 O91 1.255 . S
C111 O92 1.249 . S
C111 C105 1.516 . S
H112 C98 0.930 . S
H113 C99 0.931 . S
H114 C100 0.931 . S
H115 C101 0.933 . S
H116 C107 0.930 . S
H117 C108 0.931 . S
H118 C109 0.931 . S
H119 C110 0.933 . S
C120 C121 1.391 . S
C120 C122 1.394 1_565 S
C120 H136 0.931 . S
C121 C120 1.391 . S
C121 C125 1.376 . S
C122 C120 1.394 1_545 S
C122 C123 1.369 . S
C122 C126 1.531 . S
C123 C122 1.369 . S
C123 C124 1.410 . S
C123 C131 1.503 . S
C124 C123 1.410 . S
C124 C125 1.392 1_545 S
C124 C127 1.511 . S
C125 C121 1.376 . S
C125 C124 1.392 1_565 S
C125 H137 0.929 . S
C126 C122 1.531 . S
C126 H138 0.960 . S
C126 H139 0.962 1_455 S
C126 H140 0.960 . S
C127 C124 1.511 . S
C127 H141 0.961 . S
C127 H142 0.961 . S
C127 H143 0.961 . S
C128 C129 1.370 . S
C128 C130 1.363 . S
C128 H144 0.931 1_455 S
C129 C128 1.370 . S
C129 C133 1.408 . S
C130 C128 1.363 . S
C130 C131 1.370 . S
C130 C134 1.524 1_455 S
C131 C123 1.503 . S
C131 C130 1.370 . S
C131 C132 1.403 . S
C132 C131 1.403 . S
C132 C133 1.404 . S
C132 C135 1.539 . S
C133 C129 1.408 . S
C133 C132 1.404 . S
C133 H145 0.930 . S
C134 C130 1.524 1_655 S
C134 H146 0.956 . S
C134 H147 0.961 . S
C134 H148 0.961 . S
C135 C132 1.539 . S
C135 H149 0.958 . S
C135 H150 0.961 . S
C135 H151 0.960 . S
H136 C120 0.931 . S
H137 C125 0.929 . S
H138 C126 0.960 . S
H139 C126 0.962 1_655 S
H140 C126 0.960 . S
H141 C127 0.961 . S
H142 C127 0.961 . S
H143 C127 0.961 . S
H144 C128 0.931 1_655 S
H145 C133 0.930 . S
H146 C134 0.956 . S
H147 C134 0.961 . S
H148 C134 0.961 . S
H149 C135 0.958 . S
H150 C135 0.961 . S
H151 C135 0.960 . S
C152 C153 1.391 . S
C152 C154 1.394 . S
C152 H168 0.931 . S
C153 C152 1.391 . S
C153 C157 1.376 1_565 S
C154 C152 1.394 . S
C154 C155 1.369 1_455 S
C154 C158 1.531 1_455 S
C155 C154 1.369 1_655 S
C155 C156 1.410 1_655 S
C155 C163 1.503 . S
C156 C155 1.410 1_455 S
C156 C157 1.392 1_565 S
C156 C159 1.511 1_465 S
C157 C153 1.376 1_545 S
C157 C156 1.392 1_545 S
C157 H169 0.929 . S
C158 C154 1.531 1_655 S
C158 H170 0.960 . S
C158 H171 0.962 1_565 S
C158 H172 0.960 . S
C159 C156 1.511 1_645 S
C159 H173 0.961 1_655 S
C159 H174 0.961 . S
C159 H175 0.961 1_545 S
C160 C161 1.370 1_545 S
C160 C162 1.363 . S
C160 H176 0.931 . S
C161 C160 1.370 1_565 S
C161 C165 1.408 . S
C162 C160 1.363 . S
C162 C163 1.370 1_545 S
C162 C166 1.524 1_655 S
C163 C155 1.503 . S
C163 C162 1.370 1_565 S
C163 C164 1.403 . S
C164 C163 1.403 . S
C164 C165 1.404 . S
C164 C167 1.539 . S
C165 C161 1.408 . S
C165 C164 1.404 . S
C165 H177 0.930 . S
C166 C162 1.524 1_455 S
C166 H178 0.956 . S
C166 H179 0.961 . S
C166 H180 0.961 1_455 S
C167 C164 1.539 . S
C167 H181 0.958 . S
C167 H182 0.961 . S
C167 H183 0.960 . S
H168 C152 0.931 . S
H169 C157 0.929 . S
H170 C158 0.960 . S
H171 C158 0.962 1_545 S
H172 C158 0.960 . S
H173 C159 0.961 1_455 S
H174 C159 0.961 . S
H175 C159 0.961 1_565 S
H176 C160 0.931 . S
H177 C165 0.930 . S
H178 C166 0.956 . S
H179 C166 0.961 . S
H180 C166 0.961 1_655 S
H181 C167 0.958 . S
H182 C167 0.961 . S
H183 C167 0.960 . S
C184 C185 1.391 . S
C184 C186 1.394 . S
C184 H200 0.931 . S
C185 C184 1.391 . S
C185 C189 1.376 . S
C186 C184 1.394 . S
C186 C187 1.369 1_565 S
C186 C190 1.531 1_655 S
C187 C186 1.369 1_545 S
C187 C188 1.410 . S
C187 C195 1.503 1_655 S
C188 C187 1.410 . S
C188 C189 1.392 1_545 S
C188 C191 1.511 . S
C189 C185 1.376 . S
C189 C188 1.392 1_565 S
C189 H201 0.929 . S
C190 C186 1.531 1_455 S
C190 H202 0.960 1_565 S
C190 H203 0.962 1_565 S
C190 H204 0.965 1_455 S
C191 C188 1.511 . S
C191 H205 0.961 . S
C191 H206 0.961 . S
C191 H207 0.961 . S
C192 C193 1.370 . S
C192 C194 1.363 . S
C192 H208 0.931 . S
C193 C192 1.370 . S
C193 C197 1.408 . S
C194 C192 1.363 . S
C194 C195 1.370 . S
C194 C198 1.524 1_455 S
C195 C187 1.503 1_455 S
C195 C194 1.370 . S
C195 C196 1.403 . S
C196 C195 1.403 . S
C196 C197 1.404 . S
C196 C199 1.539 . S
C197 C193 1.408 . S
C197 C196 1.404 . S
C197 H209 0.930 . S
C198 C194 1.524 1_655 S
C198 H210 0.956 . S
C198 H211 0.961 . S
C198 H212 0.961 1_655 S
C199 C196 1.539 . S
C199 H213 0.958 . S
C199 H214 0.961 . S
C199 H215 0.960 1_455 S
H200 C184 0.931 . S
H201 C189 0.929 . S
H202 C190 0.960 1_545 S
H203 C190 0.962 1_545 S
H204 C190 0.965 1_655 S
H205 C191 0.961 . S
H206 C191 0.961 . S
H207 C191 0.961 . S
H208 C192 0.931 . S
H209 C197 0.930 . S
H210 C198 0.956 . S
H211 C198 0.961 . S
H212 C198 0.961 1_455 S
H213 C199 0.958 . S
H214 C199 0.961 . S
H215 C199 0.960 1_655 S
C216 C217 1.391 . S
C216 C218 1.394 . S
C216 H232 0.931 . S
C217 C216 1.391 . S
C217 C221 1.376 . S
C218 C216 1.394 . S
C218 C219 1.369 . S
C218 C222 1.531 . S
C219 C218 1.369 . S
C219 C220 1.410 . S
C219 C227 1.503 . S
C220 C219 1.410 . S
C220 C221 1.392 . S
C220 C223 1.511 . S
C221 C217 1.376 . S
C221 C220 1.392 . S
C221 H233 0.929 . S
C222 C218 1.531 . S
C222 H234 0.960 . S
C222 H235 0.962 . S
C222 H236 0.960 . S
C223 C220 1.511 . S
C223 H237 0.961 . S
C223 H238 0.961 . S
C223 H239 0.961 . S
C224 C225 1.370 1_556 S
C224 C226 1.363 . S
C224 H240 0.936 . S
C225 C224 1.370 1_554 S
C225 C229 1.408 . S
C226 C224 1.363 . S
C226 C227 1.370 . S
C226 C230 1.524 . S
C227 C219 1.503 . S
C227 C226 1.370 . S
C227 C228 1.403 . S
C228 C227 1.403 . S
C228 C229 1.404 1_556 S
C228 C231 1.539 . S
C229 C225 1.408 . S
C229 C228 1.404 1_554 S
C229 H241 0.930 . S
C230 C226 1.524 . S
C230 H242 0.956 . S
C230 H243 0.961 . S
C230 H244 0.961 1_565 S
C231 C228 1.539 . S
C231 H245 0.958 . S
C231 H246 0.961 . S
C231 H247 0.960 . S
H232 C216 0.931 . S
H233 C221 0.929 . S
H234 C222 0.960 . S
H235 C222 0.962 . S
H236 C222 0.960 . S
H237 C223 0.961 . S
H238 C223 0.961 . S
H239 C223 0.961 . S
H240 C224 0.936 . S
H241 C229 0.930 . S
H242 C230 0.956 . S
H243 C230 0.961 . S
H244 C230 0.961 1_545 S
H245 C231 0.958 . S
H246 C231 0.961 . S
H247 C231 0.960 . S
C248 C249 1.391 . S
C248 C250 1.394 . S
C248 H264 0.931 . S
C249 C248 1.391 . S
C249 C253 1.376 . S
C250 C248 1.394 . S
C250 C251 1.369 . S
C250 C254 1.531 . S
C251 C250 1.369 . S
C251 C252 1.410 . S
C251 C259 1.503 . S
C252 C251 1.410 . S
C252 C253 1.392 . S
C252 C255 1.511 . S
C253 C249 1.376 . S
C253 C252 1.392 . S
C253 H265 0.929 . S
C254 C250 1.531 . S
C254 H266 0.960 . S
C254 H267 0.962 . S
C254 H268 0.960 . S
C255 C252 1.511 . S
C255 H269 0.961 . S
C255 H270 0.961 . S
C255 H271 0.961 . S
C256 C257 1.370 . S
C256 C258 1.363 . S
C256 H272 0.931 . S
C257 C256 1.370 . S
C257 C261 1.408 . S
C258 C256 1.363 . S
C258 C259 1.370 . S
C258 C262 1.524 . S
C259 C251 1.503 . S
C259 C258 1.370 . S
C259 C260 1.403 . S
C260 C259 1.403 . S
C260 C261 1.404 . S
C260 C263 1.539 . S
C261 C257 1.408 . S
C261 C260 1.404 . S
C261 H273 0.930 . S
C262 C258 1.524 . S
C262 H274 0.956 . S
C262 H275 0.961 . S
C262 H276 0.961 . S
C263 C260 1.539 . S
C263 H277 0.958 . S
C263 H278 0.961 . S
C263 H279 0.960 . S
H264 C248 0.931 . S
H265 C253 0.929 . S
H266 C254 0.960 . S
H267 C254 0.962 . S
H268 C254 0.960 . S
H269 C255 0.961 . S
H270 C255 0.961 . S
H271 C255 0.961 . S
H272 C256 0.931 . S
H273 C261 0.930 . S
H274 C262 0.956 . S
H275 C262 0.961 . S
H276 C262 0.961 . S
H277 C263 0.958 . S
H278 C263 0.961 . S
H279 C263 0.960 . S
C280 C281 1.391 . S
C280 C282 1.394 . S
C280 H296 0.931 . S
C281 C280 1.391 . S
C281 C285 1.376 . S
C282 C280 1.394 . S
C282 C283 1.369 . S
C282 C286 1.531 . S
C283 C282 1.369 . S
C283 C284 1.410 . S
C283 C291 1.503 . S
C284 C283 1.410 . S
C284 C285 1.392 . S
C284 C287 1.511 . S
C285 C281 1.376 . S
C285 C284 1.392 . S
C285 H297 0.929 . S
C286 C282 1.531 . S
C286 H298 0.960 . S
C286 H299 0.962 . S
C286 H300 0.960 . S
C287 C284 1.511 . S
C287 H301 0.961 . S
C287 H302 0.961 . S
C287 H303 0.961 . S
C288 C289 1.370 . S
C288 C290 1.363 . S
C288 H304 0.931 . S
C289 C288 1.370 . S
C289 C293 1.408 . S
C290 C288 1.363 . S
C290 C291 1.370 . S
C290 C294 1.524 . S
C291 C283 1.503 . S
C291 C290 1.370 . S
C291 C292 1.403 . S
C292 C291 1.403 . S
C292 C293 1.404 . S
C292 C295 1.539 . S
C293 C289 1.408 . S
C293 C292 1.404 . S
C293 H305 0.930 . S
C294 C290 1.524 . S
C294 H306 0.956 . S
C294 H307 0.961 . S
C294 H308 0.961 1_565 S
C295 C292 1.539 . S
C295 H309 0.958 . S
C295 H310 0.961 . S
C295 H311 0.960 . S
H296 C280 0.931 . S
H297 C285 0.929 . S
H298 C286 0.960 . S
H299 C286 0.962 . S
H300 C286 0.960 . S
H301 C287 0.961 . S
H302 C287 0.961 . S
H303 C287 0.961 . S
H304 C288 0.931 . S
H305 C293 0.930 . S
H306 C294 0.956 . S
H307 C294 0.961 . S
H308 C294 0.961 1_545 S
H309 C295 0.958 . S
H310 C295 0.961 . S
H311 C295 0.960 . S
C312 C313 1.391 . S
C312 C314 1.394 1_556 S
C312 H328 0.931 . S
C313 C312 1.391 . S
C313 C317 1.376 1_556 S
C314 C312 1.394 1_554 S
C314 C315 1.369 . S
C314 C318 1.531 . S
C315 C314 1.369 . S
C315 C316 1.410 . S
C315 C323 1.503 . S
C316 C315 1.410 . S
C316 C317 1.392 . S
C316 C319 1.511 . S
C317 C313 1.376 1_554 S
C317 C316 1.392 . S
C317 H329 0.929 . S
C318 C314 1.531 . S
C318 H330 0.960 1_655 S
C318 H331 0.962 . S
C318 H332 0.960 1_655 S
C319 C316 1.511 . S
C319 H333 0.961 . S
C319 H334 0.961 . S
C319 H335 0.961 . S
C320 C321 1.370 . S
C320 C322 1.363 . S
C320 H336 0.931 . S
C321 C320 1.370 . S
C321 C325 1.408 . S
C322 C320 1.363 . S
C322 C323 1.370 . S
C322 C326 1.524 . S
C323 C315 1.503 . S
C323 C322 1.370 . S
C323 C324 1.403 . S
C324 C323 1.403 . S
C324 C325 1.404 . S
C324 C327 1.539 . S
C325 C321 1.408 . S
C325 C324 1.404 . S
C325 H337 0.930 . S
C326 C322 1.524 . S
C326 H338 0.956 . S
C326 H339 0.961 . S
C326 H340 0.961 . S
C327 C324 1.539 . S
C327 H341 0.958 . S
C327 H342 0.961 . S
C327 H343 0.960 . S
H328 C312 0.931 . S
H329 C317 0.929 . S
H330 C318 0.960 1_455 S
H331 C318 0.962 . S
H332 C318 0.960 1_455 S
H333 C319 0.961 . S
H334 C319 0.961 . S
H335 C319 0.961 . S
H336 C320 0.931 . S
H337 C325 0.930 . S
H338 C326 0.956 . S
H339 C326 0.961 . S
H340 C326 0.961 . S
H341 C327 0.958 . S
H342 C327 0.961 . S
H343 C327 0.960 . S
C344 C345 1.391 . S
C344 C346 1.394 . S
C344 H360 0.931 . S
C345 C344 1.391 . S
C345 C349 1.376 . S
C346 C344 1.394 . S
C346 C347 1.369 . S
C346 C350 1.531 . S
C347 C346 1.369 . S
C347 C348 1.410 . S
C347 C355 1.503 . S
C348 C347 1.410 . S
C348 C349 1.392 . S
C348 C351 1.511 . S
C349 C345 1.376 . S
C349 C348 1.392 . S
C349 H361 0.929 . S
C350 C346 1.531 . S
C350 H362 0.960 . S
C350 H363 0.962 . S
C350 H364 0.960 . S
C351 C348 1.511 . S
C351 H365 0.961 . S
C351 H366 0.961 . S
C351 H367 0.961 . S
C352 C353 1.370 . S
C352 C354 1.363 . S
C352 H368 0.931 . S
C353 C352 1.370 . S
C353 C357 1.408 . S
C354 C352 1.363 . S
C354 C355 1.370 . S
C354 C358 1.524 . S
C355 C347 1.503 . S
C355 C354 1.370 . S
C355 C356 1.403 . S
C356 C355 1.403 . S
C356 C357 1.404 . S
C356 C359 1.539 . S
C357 C353 1.408 . S
C357 C356 1.404 . S
C357 H369 0.930 . S
C358 C354 1.524 . S
C358 H370 0.956 . S
C358 H371 0.961 . S
C358 H372 0.961 . S
C359 C356 1.539 . S
C359 H373 0.958 . S
C359 H374 0.961 . S
C359 H375 0.960 . S
H360 C344 0.931 . S
H361 C349 0.929 . S
H362 C350 0.960 . S
H363 C350 0.962 . S
H364 C350 0.960 . S
H365 C351 0.961 . S
H366 C351 0.961 . S
H367 C351 0.961 . S
H368 C352 0.931 . S
H369 C357 0.930 . S
H370 C358 0.956 . S
H371 C358 0.961 . S
H372 C358 0.961 . S
H373 C359 0.958 . S
H374 C359 0.961 . S
H375 C359 0.960 . S
C376 C377 1.391 . S
C376 C378 1.394 . S
C376 H392 0.931 . S
C377 C376 1.391 . S
C377 C381 1.376 . S
C378 C376 1.394 . S
C378 C379 1.369 . S
C378 C382 1.531 . S
C379 C378 1.369 . S
C379 C380 1.410 . S
C379 C387 1.503 . S
C380 C379 1.410 . S
C380 C381 1.392 . S
C380 C383 1.511 . S
C381 C377 1.376 . S
C381 C380 1.392 . S
C381 H393 0.929 . S
C382 C378 1.531 . S
C382 H394 0.960 . S
C382 H395 0.962 . S
C382 H396 0.960 . S
C383 C380 1.511 . S
C383 H397 0.961 . S
C383 H398 0.961 . S
C383 H399 0.961 . S
C384 C385 1.370 . S
C384 C386 1.363 . S
C384 H400 0.931 . S
C385 C384 1.370 . S
C385 C389 1.408 . S
C386 C384 1.363 . S
C386 C387 1.370 . S
C386 C390 1.524 . S
C387 C379 1.503 . S
C387 C386 1.370 . S
C387 C388 1.403 . S
C388 C387 1.403 . S
C388 C389 1.404 . S
C388 C391 1.539 . S
C389 C385 1.408 . S
C389 C388 1.404 . S
C389 H401 0.930 . S
C390 C386 1.524 . S
C390 H402 0.956 . S
C390 H403 0.961 . S
C390 H404 0.961 . S
C391 C388 1.539 . S
C391 H405 0.958 . S
C391 H406 0.961 . S
C391 H407 0.960 . S
H392 C376 0.931 . S
H393 C381 0.929 . S
H394 C382 0.960 . S
H395 C382 0.962 . S
H396 C382 0.960 . S
H397 C383 0.961 . S
H398 C383 0.961 . S
H399 C383 0.961 . S
H400 C384 0.931 . S
H401 C389 0.930 . S
H402 C390 0.956 . S
H403 C390 0.961 . S
H404 C390 0.961 . S
H405 C391 0.958 . S
H406 C391 0.961 . S
H407 C391 0.960 . S
C121 C2 1.528 . S
C129 C23 1.516 . S
C153 C63 1.506 . S
C161 C42 1.525 1_565 S
C185 C103 1.498 . S
C193 C82 1.532 . S
C217 C93 1.185 . S
C225 C17 1.150 . S
C249 C64 1.468 . S
C257 C26 1.444 . S
C281 C97 1.147 . S
C289 C53 1.219 . S
C313 C106 1.414 . S
C321 C24 1.470 . S
C345 C13 1.214 . S
C353 C57 1.132 . S
C377 C104 1.467 . S
C385 C66 1.432 . S
