# Generated by pormake.
# Topology acs-a, (4)-cn, num edge types: 1
# Building blocks:
#     Node 0, Type 0, BuildingBlock: KUFVIS_clean_sbu_0, # of connection points: 4
#     Node 1, Type 0, BuildingBlock: KUFVIS_clean_sbu_0, # of connection points: 4
#     Node 2, Type 0, BuildingBlock: KUFVIS_clean_sbu_0, # of connection points: 4
#     Node 3, Type 0, BuildingBlock: KUFVIS_clean_sbu_0, # of connection points: 4
#     Node 4, Type 0, BuildingBlock: KUFVIS_clean_sbu_0, # of connection points: 4
#     Node 5, Type 0, BuildingBlock: KUFVIS_clean_sbu_0, # of connection points: 4
#     Node 6, Type 0, BuildingBlock: KUFVIS_clean_sbu_0, # of connection points: 4
#     Node 7, Type 0, BuildingBlock: KUFVIS_clean_sbu_0, # of connection points: 4
#     Node 8, Type 0, BuildingBlock: KUFVIS_clean_sbu_0, # of connection points: 4
#     Node 9, Type 0, BuildingBlock: KUFVIS_clean_sbu_0, # of connection points: 4
#     Node 10, Type 0, BuildingBlock: KUFVIS_clean_sbu_0, # of connection points: 4
#     Node 11, Type 0, BuildingBlock: KUFVIS_clean_sbu_0, # of connection points: 4
#     Edge 12, Type (0, 0), BuildingBlock: AJUNOK_clean_linker_0, # of connection points: 2
#     Edge 13, Type (0, 0), BuildingBlock: AJUNOK_clean_linker_0, # of connection points: 2
#     Edge 14, Type (0, 0), BuildingBlock: AJUNOK_clean_linker_0, # of connection points: 2
#     Edge 15, Type (0, 0), BuildingBlock: AJUNOK_clean_linker_0, # of connection points: 2
#     Edge 16, Type (0, 0), BuildingBlock: AJUNOK_clean_linker_0, # of connection points: 2
#     Edge 17, Type (0, 0), BuildingBlock: AJUNOK_clean_linker_0, # of connection points: 2
#     Edge 18, Type (0, 0), BuildingBlock: AJUNOK_clean_linker_0, # of connection points: 2
#     Edge 19, Type (0, 0), BuildingBlock: AJUNOK_clean_linker_0, # of connection points: 2
#     Edge 20, Type (0, 0), BuildingBlock: AJUNOK_clean_linker_0, # of connection points: 2
#     Edge 21, Type (0, 0), BuildingBlock: AJUNOK_clean_linker_0, # of connection points: 2
#     Edge 22, Type (0, 0), BuildingBlock: AJUNOK_clean_linker_0, # of connection points: 2
#     Edge 23, Type (0, 0), BuildingBlock: AJUNOK_clean_linker_0, # of connection points: 2
#     Edge 24, Type (0, 0), BuildingBlock: AJUNOK_clean_linker_0, # of connection points: 2
#     Edge 25, Type (0, 0), BuildingBlock: AJUNOK_clean_linker_0, # of connection points: 2
#     Edge 26, Type (0, 0), BuildingBlock: AJUNOK_clean_linker_0, # of connection points: 2
#     Edge 27, Type (0, 0), BuildingBlock: AJUNOK_clean_linker_0, # of connection points: 2
#     Edge 28, Type (0, 0), BuildingBlock: AJUNOK_clean_linker_0, # of connection points: 2
#     Edge 29, Type (0, 0), BuildingBlock: AJUNOK_clean_linker_0, # of connection points: 2
#     Edge 30, Type (0, 0), BuildingBlock: AJUNOK_clean_linker_0, # of connection points: 2
#     Edge 31, Type (0, 0), BuildingBlock: AJUNOK_clean_linker_0, # of connection points: 2
#     Edge 32, Type (0, 0), BuildingBlock: AJUNOK_clean_linker_0, # of connection points: 2
#     Edge 33, Type (0, 0), BuildingBlock: AJUNOK_clean_linker_0, # of connection points: 2
#     Edge 34, Type (0, 0), BuildingBlock: AJUNOK_clean_linker_0, # of connection points: 2
#     Edge 35, Type (0, 0), BuildingBlock: AJUNOK_clean_linker_0, # of connection points: 2
# Relax obj value: 0.492
# Max RMSD: 0.252
# Mean RMSD: 0.228
data_MOF--net-acs-a--node1-KUFVIS_clean_sbu_0--edge1-AJUNOK_clean_linker_0
_symmetry_space_group_name_H-M    P1
_symmetry_Int_Tables_number       1
_symmetry_cell_setting            triclinic
loop_
_symmetry_equiv_pos_as_xyz
'x, y, z'
_cell_length_a     35.36395
_cell_length_b     35.317892
_cell_length_c     29.313899
_cell_angle_alpha  90.046222
_cell_angle_beta   90.099807
_cell_angle_gamma 114.19807
loop_
_atom_site_label
_atom_site_type_symbol
_atom_site_fract_x
_atom_site_fract_y
_atom_site_fract_z
_atom_type_partial_charge
Mn0 Mn 0.58942 0.15366 0.07962 0.0
Mn1 Mn 0.50767 0.15517 0.13695 0.0
C2 C 0.56515 0.20461 0.06513 0.0
C3 C 0.66237 0.18104 0.07477 0.0
C4 C 0.49957 0.09267 0.06181 0.0
O5 O 0.58604 0.11723 0.13546 0.0
O6 O 0.53382 0.12487 0.17271 0.0
C7 C 0.5551 0.20862 0.21333 0.0
N8 N 0.52818 0.20162 0.17775 0.0
C9 C 0.52809 0.26936 0.18634 0.0
C10 C 0.55628 0.27751 0.22263 0.0
C11 C 0.56939 0.24677 0.23655 0.0
C12 C 0.51464 0.23063 0.16473 0.0
H13 H 0.56619 0.18558 0.22343 0.0
C14 C 0.56212 0.11113 0.17011 0.0
O15 O 0.63959 0.14785 0.05191 0.0
O16 O 0.6429 0.19562 0.10172 0.0
N17 N 0.48092 0.18506 0.10569 0.0
C18 C 0.45632 0.17366 0.06789 0.0
C19 C 0.43941 0.20043 0.05056 0.0
C20 C 0.44816 0.23869 0.07207 0.0
C21 C 0.47361 0.24978 0.11091 0.0
C22 C 0.48883 0.22144 0.12722 0.0
H23 H 0.44977 0.14443 0.05104 0.0
O24 O 0.58662 0.19564 0.03463 0.0
O25 O 0.55738 0.18197 0.10138 0.0
O26 O 0.53804 0.1071 0.05078 0.0
O27 O 0.48522 0.10748 0.09411 0.0
C28 C 0.48565 0.28841 0.1331 0.0
C29 C 0.5132 0.29834 0.1705 0.0
H30 H 0.5677 0.30706 0.24029 0.0
H31 H 0.59096 0.25271 0.26466 0.0
H32 H 0.41996 0.19175 0.02044 0.0
H33 H 0.43565 0.25955 0.05811 0.0
H34 H 0.47473 0.31112 0.12094 0.0
H35 H 0.52317 0.32851 0.18656 0.0
Mn36 Mn 0.37939 0.55548 0.57263 0.0
Mn37 Mn 0.31826 0.46501 0.61848 0.0
C38 C 0.30939 0.52687 0.55486 0.0
C39 C 0.40874 0.62724 0.57302 0.0
C40 C 0.3885 0.47712 0.55373 0.0
O41 O 0.40951 0.5506 0.63085 0.0
O42 O 0.35715 0.4984 0.66742 0.0
C43 C 0.26749 0.48099 0.6902 0.0
N44 N 0.27051 0.46631 0.64803 0.0
C45 C 0.1974 0.44519 0.63441 0.0
C46 C 0.19377 0.4609 0.67716 0.0
C47 C 0.2287 0.47807 0.70541 0.0
C48 C 0.23649 0.44781 0.62139 0.0
H49 H 0.29441 0.49454 0.71202 0.0
C50 C 0.39297 0.52939 0.66676 0.0
O51 O 0.42609 0.6068 0.55087 0.0
O52 O 0.37614 0.60596 0.59691 0.0
N53 N 0.28022 0.43401 0.57139 0.0
C54 C 0.28784 0.41701 0.53256 0.0
C55 C 0.25562 0.39717 0.50132 0.0
C56 C 0.2157 0.39458 0.51037 0.0
C57 C 0.20829 0.41146 0.55088 0.0
C58 C 0.24169 0.43096 0.58077 0.0
H59 H 0.31813 0.41823 0.52531 0.0
O60 O 0.33607 0.55155 0.52612 0.0
O61 O 0.32596 0.51708 0.58966 0.0
O62 O 0.39236 0.51228 0.53941 0.0
O63 O 0.36569 0.45899 0.58762 0.0
C64 C 0.16899 0.40952 0.56281 0.0
C65 C 0.16353 0.42628 0.60464 0.0
H66 H 0.16411 0.45912 0.6891 0.0
H67 H 0.22515 0.4884 0.73894 0.0
H68 H 0.26154 0.38383 0.47034 0.0
H69 H 0.1909 0.37924 0.48617 0.0
H70 H 0.14267 0.39481 0.54029 0.0
H71 H 0.13303 0.4241 0.61377 0.0
Mn72 Mn 0.85683 0.38435 0.0588 0.0
Mn73 Mn 0.89552 0.31883 0.0973 0.0
C74 C 0.82217 0.31362 0.0424 0.0
C75 C 0.8172 0.42249 0.06691 0.0
C76 C 0.93788 0.38669 0.02816 0.0
O77 O 0.89396 0.41407 0.11364 0.0
O78 O 0.90389 0.36062 0.14563 0.0
C79 C 0.84127 0.27855 0.17511 0.0
N80 N 0.85663 0.2755 0.1334 0.0
C81 C 0.81218 0.20275 0.12851 0.0
C82 C 0.79581 0.20514 0.17142 0.0
C83 C 0.81032 0.24334 0.19465 0.0
C84 C 0.84295 0.23903 0.11063 0.0
H85 H 0.8516 0.30792 0.19276 0.0
C86 C 0.90387 0.3969 0.1477 0.0
O87 O 0.84889 0.43452 0.03996 0.0
O88 O 0.80871 0.38838 0.08973 0.0
N89 N 0.88618 0.27678 0.05191 0.0
C90 C 0.90248 0.28056 0.0092 0.0
C91 C 0.89004 0.24557 0.98067 0.0
C92 C 0.86085 0.2071 0.9962 0.0
C93 C 0.84453 0.2039 0.04028 0.0
C94 C 0.85855 0.2397 0.06744 0.0
H95 H 0.92472 0.31 0.99685 0.0
O96 O 0.81741 0.34096 0.01603 0.0
O97 O 0.84876 0.32951 0.07496 0.0
O98 O 0.90573 0.39233 0.01857 0.0
O99 O 0.93897 0.36262 0.06011 0.0
C100 C 0.81419 0.16681 0.05793 0.0
C101 C 0.79796 0.16626 0.10198 0.0
H102 H 0.7714 0.17809 0.18625 0.0
H103 H 0.79716 0.24619 0.22702 0.0
H104 H 0.90271 0.24832 0.94664 0.0
H105 H 0.85096 0.1803 0.97387 0.0
H106 H 0.80264 0.13868 0.03763 0.0
H107 H 0.77407 0.13776 0.11483 0.0
Mn108 Mn 0.42119 0.85073 0.57651 0.0
Mn109 Mn 0.50443 0.84598 0.62778 0.0
C110 C 0.44562 0.80135 0.5552 0.0
C111 C 0.34835 0.82474 0.57163 0.0
C112 C 0.51043 0.9148 0.56206 0.0
O113 O 0.42526 0.88189 0.63673 0.0
O114 O 0.47754 0.87099 0.67041 0.0
C115 C 0.45697 0.78207 0.69537 0.0
N116 N 0.4864 0.79564 0.66218 0.0
C117 C 0.49431 0.73108 0.66323 0.0
C118 C 0.46499 0.71695 0.69828 0.0
C119 C 0.44534 0.74204 0.71341 0.0
C120 C 0.50385 0.7708 0.64558 0.0
H121 H 0.44167 0.80121 0.70702 0.0
C122 C 0.44881 0.88437 0.67107 0.0
O123 O 0.37175 0.85977 0.55253 0.0
O124 O 0.36708 0.80678 0.59533 0.0
N125 N 0.53186 0.82109 0.58948 0.0
C126 C 0.55293 0.83568 0.5499 0.0
C127 C 0.57219 0.81298 0.52793 0.0
C128 C 0.5688 0.77501 0.54626 0.0
C129 C 0.54587 0.75995 0.58624 0.0
C130 C 0.52836 0.78454 0.60739 0.0
H131 H 0.55448 0.86407 0.5348 0.0
O132 O 0.42389 0.81225 0.52663 0.0
O133 O 0.45406 0.82191 0.59284 0.0
O134 O 0.47188 0.9002 0.55128 0.0
O135 O 0.5253 0.89772 0.59137 0.0
C136 C 0.53841 0.7208 0.60492 0.0
C137 C 0.51244 0.70626 0.64324 0.0
H138 H 0.45633 0.68631 0.71261 0.0
H139 H 0.4214 0.73062 0.73915 0.0
H140 H 0.58904 0.82438 0.49651 0.0
H141 H 0.58295 0.75715 0.52868 0.0
H142 H 0.5514 0.70105 0.58918 0.0
H143 H 0.5056 0.67543 0.65623 0.0
Mn144 Mn 0.61925 0.44969 0.07561 0.0
Mn145 Mn 0.67702 0.54198 0.12072 0.0
C146 C 0.689 0.48138 0.05787 0.0
C147 C 0.59477 0.37792 0.07959 0.0
C148 C 0.60704 0.52603 0.05338 0.0
O149 O 0.58736 0.45394 0.13221 0.0
O150 O 0.63669 0.50871 0.16866 0.0
C151 C 0.72604 0.52999 0.19715 0.0
N152 N 0.72414 0.54277 0.15373 0.0
C153 C 0.79808 0.56663 0.14489 0.0
C154 C 0.8006 0.55266 0.18894 0.0
C155 C 0.76464 0.53523 0.21547 0.0
C156 C 0.75907 0.56194 0.12887 0.0
H157 H 0.69841 0.51632 0.21767 0.0
C158 C 0.60167 0.47653 0.16788 0.0
O159 O 0.5752 0.39516 0.05555 0.0
O160 O 0.6266 0.4024 0.10263 0.0
N161 N 0.71637 0.57308 0.07506 0.0
C162 C 0.70949 0.58826 0.03459 0.0
C163 C 0.74271 0.60838 0.00477 0.0
C164 C 0.78276 0.61293 0.01681 0.0
C165 C 0.78926 0.59758 0.05879 0.0
C166 C 0.7549 0.5777 0.08713 0.0
H167 H 0.67896 0.58514 0.0249 0.0
O168 O 0.6631 0.45499 0.02966 0.0
O169 O 0.67171 0.49051 0.0925 0.0
O170 O 0.60323 0.49033 0.04059 0.0
O171 O 0.63035 0.54581 0.0864 0.0
C172 C 0.82853 0.60134 0.07363 0.0
C173 C 0.83298 0.58604 0.11677 0.0
H174 H 0.83014 0.55621 0.20323 0.0
H175 H 0.76714 0.52663 0.25014 0.0
H176 H 0.73744 0.62035 0.97252 0.0
H177 H 0.80832 0.62846 0.9937 0.0
H178 H 0.85561 0.61641 0.05238 0.0
H179 H 0.86345 0.58977 0.1282 0.0
Mn180 Mn 0.14677 0.63172 0.55567 0.0
Mn181 Mn 0.10978 0.7001 0.58747 0.0
C182 C 0.18363 0.70147 0.53635 0.0
C183 C 0.18518 0.59227 0.56586 0.0
C184 C 0.06462 0.62543 0.52745 0.0
O185 O 0.11043 0.60697 0.6127 0.0
O186 O 0.10652 0.66515 0.64171 0.0
C187 C 0.15925 0.75666 0.66043 0.0
N188 N 0.14895 0.7496 0.61557 0.0
C189 C 0.19284 0.82042 0.5967 0.0
C190 C 0.20653 0.82736 0.64209 0.0
C191 C 0.18888 0.79558 0.67432 0.0
C192 C 0.16306 0.78096 0.58505 0.0
H193 H 0.14371 0.73326 0.68547 0.0
C194 C 0.10526 0.62826 0.64608 0.0
O195 O 0.15265 0.57973 0.54004 0.0
O196 O 0.1949 0.62742 0.5871 0.0
N197 N 0.11585 0.7344 0.53465 0.0
C198 C 0.09605 0.72424 0.49357 0.0
C199 C 0.1075 0.75363 0.45826 0.0
C200 C 0.139 0.79332 0.46549 0.0
C201 C 0.15838 0.80346 0.50822 0.0
C202 C 0.14572 0.77285 0.54212 0.0
H203 H 0.07157 0.69407 0.48757 0.0
O204 O 0.18671 0.67246 0.51122 0.0
O205 O 0.15653 0.68768 0.56858 0.0
O206 O 0.0975 0.6227 0.51479 0.0
O207 O 0.06478 0.65058 0.55871 0.0
C208 C 0.18962 0.84284 0.51858 0.0
C209 C 0.20674 0.85137 0.56286 0.0
H210 H 0.22932 0.8574 0.65291 0.0
H211 H 0.19741 0.80134 0.70988 0.0
H212 H 0.09204 0.74568 0.4255 0.0
H213 H 0.14774 0.81589 0.43814 0.0
H214 H 0.20023 0.867 0.49294 0.0
H215 H 0.23009 0.88203 0.57071 0.0
Mn216 Mn 0.84594 0.42431 0.4238 0.0
Mn217 Mn 0.84636 0.50946 0.3721 0.0
C218 C 0.79921 0.45223 0.44537 0.0
C219 C 0.81664 0.35104 0.42606 0.0
C220 C 0.91345 0.51147 0.43841 0.0
O221 O 0.87744 0.42734 0.36379 0.0
O222 O 0.86736 0.47948 0.32893 0.0
C223 C 0.77877 0.46302 0.30774 0.0
N224 N 0.79523 0.49372 0.33943 0.0
C225 C 0.73192 0.50384 0.34255 0.0
C226 C 0.71453 0.47272 0.30954 0.0
C227 C 0.73778 0.45163 0.29287 0.0
C228 C 0.77243 0.51284 0.35739 0.0
H229 H 0.79617 0.4461 0.29547 0.0
C230 C 0.8798 0.4501 0.32877 0.0
O231 O 0.85157 0.37257 0.44658 0.0
O232 O 0.8004 0.37186 0.40322 0.0
N233 N 0.82566 0.54041 0.41071 0.0
C234 C 0.84376 0.56368 0.44818 0.0
C235 C 0.82362 0.58512 0.471 0.0
C236 C 0.78499 0.5822 0.45527 0.0
C237 C 0.76686 0.55791 0.41678 0.0
C238 C 0.7889 0.53813 0.39468 0.0
H239 H 0.87336 0.56592 0.4606 0.0
O240 O 0.80804 0.42859 0.47335 0.0
O241 O 0.82001 0.4599 0.40794 0.0
O242 O 0.89618 0.47336 0.45084 0.0
O243 O 0.89897 0.52731 0.40723 0.0
C244 C 0.72715 0.55137 0.4005 0.0
C245 C 0.70952 0.52403 0.36368 0.0
H246 H 0.68291 0.46374 0.29798 0.0
H247 H 0.72379 0.42607 0.26944 0.0
H248 H 0.83768 0.60357 0.50088 0.0
H249 H 0.76919 0.59815 0.4735 0.0
H250 H 0.7093 0.56606 0.41708 0.0
H251 H 0.67823 0.51778 0.3528 0.0
Mn252 Mn 0.38257 0.86127 0.94181 0.0
Mn253 Mn 0.31677 0.89885 0.9009 0.0
C254 C 0.31173 0.82705 0.95826 0.0
C255 C 0.41546 0.81636 0.93778 0.0
C256 C 0.38576 0.94434 0.96877 0.0
O257 O 0.41201 0.89546 0.88557 0.0
O258 O 0.35918 0.90672 0.85352 0.0
C259 C 0.27658 0.84442 0.82238 0.0
N260 N 0.27387 0.85869 0.86489 0.0
C261 C 0.2015 0.81313 0.86989 0.0
C262 C 0.20367 0.7975 0.82644 0.0
C263 C 0.24137 0.81331 0.80257 0.0
C264 C 0.2376 0.84426 0.88784 0.0
H265 H 0.3056 0.856 0.80413 0.0
C266 C 0.39528 0.90622 0.85175 0.0
O267 O 0.43135 0.85028 0.96154 0.0
O268 O 0.38282 0.81066 0.91366 0.0
N269 N 0.27446 0.88984 0.94557 0.0
C270 C 0.27781 0.90744 0.9876 0.0
C271 C 0.24282 0.89499 0.01591 0.0
C272 C 0.20481 0.86448 1.00083 0.0
C273 C 0.20209 0.8468 0.95744 0.0
C274 C 0.2379 0.86073 0.93056 0.0
H275 H 0.30696 0.93067 0.99955 0.0
O276 O 0.33917 0.8244 0.98612 0.0
O277 O 0.32776 0.85324 0.92548 0.0
O278 O 0.39311 0.91315 0.979 0.0
O279 O 0.35992 0.94339 0.9378 0.0
C280 C 0.16538 0.81554 0.94006 0.0
C281 C 0.16509 0.7987 0.89633 0.0
H282 H 0.17665 0.77325 0.81118 0.0
H283 H 0.24354 0.8011 0.76931 0.0
H284 H 0.24518 0.90873 0.04939 0.0
H285 H 0.17797 0.85475 0.02292 0.0
H286 H 0.13723 0.80406 0.96015 0.0
H287 H 0.13674 0.77452 0.88344 0.0
Mn288 Mn 0.55425 0.38884 0.4343 0.0
Mn289 Mn 0.46475 0.3262 0.38883 0.0
C290 C 0.52965 0.31877 0.45366 0.0
C291 C 0.62605 0.42026 0.43086 0.0
C292 C 0.47609 0.39608 0.45491 0.0
O293 O 0.54741 0.41913 0.37756 0.0
O294 O 0.4975 0.36598 0.34038 0.0
C295 C 0.48051 0.27743 0.31468 0.0
N296 N 0.46385 0.27889 0.35615 0.0
C297 C 0.42921 0.20421 0.3589 0.0
C298 C 0.44647 0.20197 0.31669 0.0
C299 C 0.47164 0.23866 0.29429 0.0
C300 C 0.43809 0.24362 0.37719 0.0
H301 H 0.49958 0.30561 0.29693 0.0
C302 C 0.52713 0.40262 0.34119 0.0
O303 O 0.60579 0.43671 0.45481 0.0
O304 O 0.60438 0.38748 0.40725 0.0
N305 N 0.43225 0.28696 0.43387 0.0
C306 C 0.41849 0.29396 0.47514 0.0
C307 C 0.3929 0.26027 0.50185 0.0
C308 C 0.38145 0.21961 0.48592 0.0
C309 C 0.3959 0.21304 0.44348 0.0
C310 C 0.42133 0.24791 0.41825 0.0
H311 H 0.42664 0.32489 0.48784 0.0
O312 O 0.55259 0.3477 0.4815 0.0
O313 O 0.51766 0.3328 0.4177 0.0
O314 O 0.51126 0.40054 0.46955 0.0
O315 O 0.45855 0.37277 0.42117 0.0
C316 C 0.38669 0.17319 0.42566 0.0
C317 C 0.40325 0.16878 0.38333 0.0
H318 H 0.44009 0.17226 0.30078 0.0
H319 H 0.48321 0.23661 0.26098 0.0
H320 H 0.38195 0.26566 0.53464 0.0
H321 H 0.3618 0.19367 0.5067 0.0
H322 H 0.36711 0.14572 0.44438 0.0
H323 H 0.39596 0.13797 0.36994 0.0
Mn324 Mn 0.15348 0.58635 0.92239 0.0
Mn325 Mn 0.14739 0.50246 0.86279 0.0
C326 C 0.19568 0.55254 0.94073 0.0
C327 C 0.18755 0.65953 0.92826 0.0
C328 C 0.08253 0.50047 0.93161 0.0
O329 O 0.12367 0.58947 0.86341 0.0
O330 O 0.12826 0.53678 0.8233 0.0
C331 C 0.2157 0.55079 0.80062 0.0
N332 N 0.19806 0.51808 0.82958 0.0
C333 C 0.2598 0.50502 0.82951 0.0
C334 C 0.27837 0.53824 0.79929 0.0
C335 C 0.25649 0.5617 0.78555 0.0
C336 C 0.21954 0.49646 0.8447 0.0
H337 H 0.19946 0.5696 0.79082 0.0
C338 C 0.1191 0.56819 0.82674 0.0
O339 O 0.15219 0.63935 0.94846 0.0
O340 O 0.2017 0.6374 0.90468 0.0
N341 N 0.16606 0.46727 0.89717 0.0
C342 C 0.14723 0.44195 0.93292 0.0
C343 C 0.16606 0.41789 0.95287 0.0
C344 C 0.20416 0.42032 0.93612 0.0
C345 C 0.22302 0.44667 0.8994 0.0
C346 C 0.20221 0.46902 0.88 0.0
H347 H 0.11807 0.44012 0.94617 0.0
O348 O 0.18891 0.57604 0.97073 0.0
O349 O 0.17574 0.54875 0.90294 0.0
O350 O 0.10116 0.5379 0.94625 0.0
O351 O 0.09569 0.48517 0.89873 0.0
C352 C 0.26235 0.45279 0.88244 0.0
C353 C 0.28091 0.48225 0.84782 0.0
H354 H 0.30982 0.54675 0.78765 0.0
H355 H 0.27133 0.58868 0.76429 0.0
H356 H 0.15143 0.39782 0.9814 0.0
H357 H 0.21901 0.40237 0.95224 0.0
H358 H 0.27926 0.43613 0.89697 0.0
H359 H 0.31199 0.48815 0.83659 0.0
Mn360 Mn 0.62323 0.1473 0.43372 0.0
Mn361 Mn 0.69336 0.10998 0.40752 0.0
C362 C 0.69252 0.18454 0.4545 0.0
C363 C 0.58734 0.18857 0.42145 0.0
C364 C 0.62065 0.06734 0.47144 0.0
O365 O 0.59823 0.1091 0.37899 0.0
O366 O 0.65303 0.09616 0.35566 0.0
C367 C 0.73797 0.15521 0.32596 0.0
N368 N 0.73784 0.14732 0.37134 0.0
C369 C 0.81017 0.19286 0.37796 0.0
C370 C 0.81084 0.20195 0.33136 0.0
C371 C 0.77469 0.18243 0.30522 0.0
C372 C 0.77287 0.16442 0.39651 0.0
H373 H 0.71029 0.14088 0.30575 0.0
C374 C 0.61662 0.0955 0.34954 0.0
O375 O 0.57192 0.15554 0.44639 0.0
O376 O 0.62201 0.19576 0.40057 0.0
N377 N 0.73313 0.12479 0.4563 0.0
C378 C 0.7273 0.11278 0.50083 0.0
C379 C 0.76056 0.12892 0.53166 0.0
C380 C 0.79941 0.15761 0.51656 0.0
C381 C 0.80458 0.17 0.47075 0.0
C382 C 0.77033 0.15271 0.44157 0.0
H383 H 0.69741 0.09148 0.51296 0.0
O384 O 0.66308 0.18769 0.47859 0.0
O385 O 0.67942 0.15647 0.4229 0.0
O386 O 0.61129 0.09812 0.4753 0.0
O387 O 0.64959 0.06765 0.44536 0.0
C388 C 0.84225 0.19923 0.45304 0.0
C389 C 0.84509 0.21052 0.40661 0.0
H390 H 0.83901 0.22337 0.31519 0.0
H391 H 0.77491 0.18801 0.26915 0.0
H392 H 0.75618 0.11951 0.56708 0.0
H393 H 0.82493 0.17018 0.5405 0.0
H394 H 0.86925 0.21317 0.47481 0.0
H395 H 0.87429 0.23279 0.39328 0.0
Mn396 Mn 0.43742 0.60869 0.93571 0.0
Mn397 Mn 0.52544 0.67603 0.89224 0.0
C398 C 0.46173 0.67749 0.96191 0.0
C399 C 0.36617 0.57711 0.92923 0.0
C400 C 0.5171 0.60397 0.95376 0.0
O401 O 0.44549 0.5816 0.87692 0.0
O402 O 0.49178 0.63874 0.84231 0.0
C403 C 0.49522 0.72542 0.83252 0.0
N404 N 0.52142 0.72373 0.86573 0.0
C405 C 0.55016 0.79801 0.87528 0.0
C406 C 0.52408 0.80056 0.84062 0.0
C407 C 0.49599 0.76408 0.81987 0.0
C408 C 0.54744 0.75858 0.88733 0.0
H409 H 0.47334 0.69741 0.81663 0.0
C410 C 0.46424 0.60117 0.84134 0.0
O411 O 0.38569 0.5592 0.95228 0.0
O412 O 0.38836 0.61134 0.90854 0.0
N413 N 0.55984 0.71394 0.93749 0.0
C414 C 0.57791 0.70599 0.9753 0.0
C415 C 0.60482 0.73902 0.00209 0.0
C416 C 0.61317 0.78003 0.98976 0.0
C417 C 0.59447 0.78761 0.95072 0.0
C418 C 0.56839 0.75341 0.92484 0.0
H419 H 0.57237 0.67483 0.98501 0.0
O420 O 0.4371 0.64672 0.9864 0.0
O421 O 0.47377 0.66562 0.92469 0.0
O422 O 0.48121 0.59693 0.96841 0.0
O423 O 0.53406 0.62847 0.92045 0.0
C424 C 0.59941 0.82771 0.93755 0.0
C425 C 0.57702 0.83288 0.90005 0.0
H426 H 0.52427 0.8302 0.83079 0.0
H427 H 0.47449 0.76601 0.795 0.0
H428 H 0.61913 0.73285 0.0322 0.0
H429 H 0.63356 0.80542 0.01085 0.0
H430 H 0.6193 0.85467 0.95695 0.0
H431 H 0.57982 0.86371 0.89131 0.0
C432 C 0.62346 0.0895 0.26475 0.0
C433 C 0.59796 0.08553 0.30304 0.0
C434 C 0.61038 0.09383 0.22053 0.0
C435 C 0.57091 0.09335 0.21285 0.0
H436 H 0.65493 0.09255 0.26904 0.0
H437 H 0.63253 0.10081 0.19293 0.0
S438 S 0.48756 0.06957 0.29944 0.0
N439 N 0.52824 0.07171 0.3288 0.0
N440 N 0.503 0.07816 0.24588 0.0
C441 C 0.54306 0.08306 0.24994 0.0
C442 C 0.55668 0.07948 0.29496 0.0
C443 C 0.43875 0.5338 0.73433 0.0
C444 C 0.41174 0.54731 0.71102 0.0
C445 C 0.45613 0.55136 0.77674 0.0
C446 C 0.44704 0.58296 0.79661 0.0
H447 H 0.4464 0.50963 0.71976 0.0
H448 H 0.47676 0.5403 0.79399 0.0
S449 S 0.37592 0.62678 0.75043 0.0
N450 N 0.37553 0.59268 0.71163 0.0
N451 N 0.40777 0.62529 0.79099 0.0
C452 C 0.41965 0.59611 0.77378 0.0
C453 C 0.4021 0.57837 0.73099 0.0
C454 C 0.89643 0.44936 0.2005 0.0
C455 C 0.90782 0.41599 0.19401 0.0
C456 C 0.88975 0.46138 0.24426 0.0
C457 C 0.89392 0.44054 0.28384 0.0
H458 H 0.89017 0.46494 0.17151 0.0
H459 H 0.87916 0.48607 0.24662 0.0
S460 S 0.93023 0.35574 0.2864 0.0
N461 N 0.92873 0.36597 0.23167 0.0
N462 N 0.91525 0.38811 0.31368 0.0
C463 C 0.9084 0.40922 0.27815 0.0
C464 C 0.91563 0.39716 0.23343 0.0
C465 C 0.44804 0.89941 0.79935 0.0
C466 C 0.415 0.91123 0.8059 0.0
C467 C 0.46039 0.89351 0.75552 0.0
C468 C 0.44019 0.89898 0.71606 0.0
H469 H 0.46295 0.89205 0.82823 0.0
H470 H 0.48455 0.88224 0.75297 0.0
S471 S 0.35749 0.93809 0.71401 0.0
N472 N 0.36671 0.93476 0.76873 0.0
N473 N 0.38948 0.92284 0.68649 0.0
C474 C 0.40961 0.91438 0.72193 0.0
C475 C 0.39721 0.92077 0.76671 0.0
C476 C 0.5816 0.45847 0.29523 0.0
C477 C 0.54218 0.42507 0.29719 0.0
C478 C 0.5995 0.47642 0.25358 0.0
C479 C 0.57893 0.4618 0.21178 0.0
H480 H 0.59983 0.46984 0.32596 0.0
H481 H 0.63057 0.50075 0.25425 0.0
S482 S 0.47216 0.37976 0.19838 0.0
N483 N 0.48108 0.38145 0.25379 0.0
N484 N 0.51461 0.41507 0.1756 0.0
C485 C 0.53837 0.43022 0.21341 0.0
C486 C 0.52009 0.41192 0.25596 0.0
C487 C 0.08077 0.57213 0.7062 0.0
C488 C 0.10558 0.61323 0.69328 0.0
C489 C 0.08341 0.55798 0.75058 0.0
C490 C 0.11038 0.5847 0.78354 0.0
H491 H 0.05981 0.55072 0.68174 0.0
H492 H 0.06494 0.52575 0.7589 0.0
S493 S 0.18633 0.69278 0.76444 0.0
N494 N 0.16182 0.67824 0.71531 0.0
N495 N 0.16439 0.65289 0.79898 0.0
C496 C 0.13523 0.62565 0.77087 0.0
C497 C 0.13347 0.63956 0.72564 0.0
C498 C 0.43937 0.02327 0.06138 0.0
C499 C 0.46958 0.05606 0.03694 0.0
C500 C 0.41135 0.98757 0.03899 0.0
C501 C 0.41151 0.98408 0.99125 0.0
H502 H 0.43823 0.02468 0.09825 0.0
H503 H 0.3897 0.96231 0.05916 0.0
S504 S 0.4828 0.0618 0.91134 0.0
N505 N 0.49733 0.08294 0.96227 0.0
N506 N 0.44357 0.01652 0.92012 0.0
C507 C 0.44061 0.0171 0.9663 0.0
C508 C 0.46994 0.05292 0.98916 0.0
C509 C 0.43281 0.43746 0.55157 0.0
C510 C 0.40977 0.45569 0.52835 0.0
C511 C 0.45484 0.41877 0.52744 0.0
C512 C 0.45348 0.41672 0.47947 0.0
H513 H 0.4345 0.43844 0.58849 0.0
H514 H 0.47258 0.4053 0.54645 0.0
S515 S 0.39604 0.45836 0.40313 0.0
N516 N 0.38627 0.47012 0.45506 0.0
N517 N 0.42652 0.43369 0.40979 0.0
C518 C 0.42979 0.43405 0.45601 0.0
C519 C 0.40824 0.45393 0.48046 0.0
C520 C 0.04495 0.46916 0.00361 0.0
C521 C 0.04515 0.47168 0.95569 0.0
C522 C 0.011 0.43958 0.02693 0.0
C523 C 0.97591 0.41218 0.00308 0.0
H524 H 0.07144 0.48979 0.02314 0.0
H525 H 0.01158 0.43912 0.06388 0.0
S526 S 0.96114 0.4061 0.87769 0.0
N527 N 0.00774 0.44363 0.88529 0.0
N528 N 0.94334 0.3893 0.92923 0.0
C529 C 0.97579 0.41439 0.95527 0.0
C530 C 0.0106 0.44378 0.93153 0.0
C531 C 0.55114 0.01796 0.4989 0.0
C532 C 0.59402 0.02861 0.49541 0.0
C533 C 0.52445 0.98106 0.52 0.0
C534 C 0.53962 0.95366 0.5396 0.0
H535 H 0.53786 0.03799 0.48437 0.0
H536 H 0.49169 0.97424 0.52134 0.0
S537 S 0.65002 0.96823 0.54115 0.0
N538 N 0.65056 0.00898 0.51317 0.0
N539 N 0.60117 0.94087 0.55528 0.0
C540 C 0.58275 0.96447 0.53715 0.0
C541 C 0.60971 1.00152 0.51437 0.0
C542 C 0.56159 0.56436 0.95595 0.0
C543 C 0.54102 0.58524 0.97899 0.0
C544 C 0.58244 0.54452 0.98036 0.0
C545 C 0.58426 0.54613 0.02833 0.0
H546 H 0.56075 0.56257 0.91904 0.0
H547 H 0.59771 0.52833 0.96162 0.0
S548 S 0.5368 0.5985 0.10413 0.0
N549 N 0.52416 0.60698 0.05208 0.0
N550 N 0.56453 0.57093 0.09777 0.0
C551 C 0.56457 0.56772 0.05155 0.0
C552 C 0.5426 0.58696 0.02688 0.0
C553 C 0.9869 0.5642 0.43636 0.0
C554 C 0.95174 0.53972 0.46193 0.0
C555 C 0.02321 0.59217 0.4578 0.0
C556 C 0.02512 0.59781 0.50543 0.0
H557 H 0.98652 0.56127 0.39955 0.0
H558 H 0.04993 0.60973 0.43694 0.0
S559 S 0.94087 0.54235 0.58748 0.0
N560 N 0.92086 0.52317 0.53723 0.0
N561 N 0.98849 0.57692 0.5774 0.0
C562 C 0.98984 0.57418 0.53125 0.0
C563 C 0.95331 0.54481 0.50953 0.0
C564 C 0.5511 0.26549 0.03955 0.0
C565 C 0.57072 0.248 0.06918 0.0
C566 C 0.55749 0.30734 0.0442 0.0
C567 C 0.58461 0.33297 0.07776 0.0
H568 H 0.53045 0.24667 0.01315 0.0
H569 H 0.54181 0.31985 0.02082 0.0
S570 S 0.6474 0.30225 0.1596 0.0
N571 N 0.62043 0.25965 0.13056 0.0
N572 N 0.63302 0.33778 0.13912 0.0
C573 C 0.60517 0.31567 0.10663 0.0
C574 C 0.59828 0.27335 0.10218 0.0
C575 C 0.24258 0.52755 0.52742 0.0
C576 C 0.27179 0.53446 0.56238 0.0
C577 C 0.21261 0.54407 0.53025 0.0
C578 C 0.21194 0.56925 0.56741 0.0
H579 H 0.24403 0.51083 0.49694 0.0
H580 H 0.19155 0.53923 0.50179 0.0
S581 S 0.28083 0.59526 0.66837 0.0
N582 N 0.29658 0.56607 0.63652 0.0
N583 N 0.24145 0.59816 0.64078 0.0
C584 C 0.2398 0.57478 0.60336 0.0
C585 C 0.26946 0.55714 0.60109 0.0
C586 C 0.7672 0.26741 0.09367 0.0
C587 C 0.78592 0.27374 0.05048 0.0
C588 C 0.72927 0.23416 0.10212 0.0
C589 C 0.70741 0.20616 0.06741 0.0
H590 H 0.78081 0.28978 0.12076 0.0
H591 H 0.7156 0.23214 0.13559 0.0
S592 S 0.74423 0.20725 0.94877 0.0
N593 N 0.78129 0.24781 0.9731 0.0
N594 N 0.70885 0.18535 0.98854 0.0
C595 C 0.72667 0.21068 0.02449 0.0
C596 C 0.76591 0.24474 0.01597 0.0
C597 C 0.41387 0.73409 0.59349 0.0
C598 C 0.43853 0.75756 0.55754 0.0
C599 C 0.40601 0.69247 0.59893 0.0
C600 C 0.42219 0.6724 0.56834 0.0
H601 H 0.40033 0.74807 0.61778 0.0
H602 H 0.38668 0.67586 0.62727 0.0
S603 S 0.48633 0.71964 0.46637 0.0
N604 N 0.47737 0.75792 0.48938 0.0
N605 N 0.463 0.67883 0.49953 0.0
C606 C 0.44663 0.69537 0.53169 0.0
C607 C 0.45438 0.73812 0.52603 0.0
C608 C 0.75605 0.48336 0.02872 0.0
C609 C 0.72832 0.47712 0.06499 0.0
C610 C 0.78698 0.46811 0.03089 0.0
C611 C 0.79015 0.44504 0.06882 0.0
H612 H 0.75239 0.49812 0.99764 0.0
H613 H 0.80663 0.47198 0.00139 0.0
S614 S 0.72666 0.42243 0.17356 0.0
N615 N 0.70783 0.44871 0.14112 0.0
N616 N 0.76533 0.41966 0.1446 0.0
C617 C 0.76418 0.44073 0.10622 0.0
C618 C 0.73337 0.45686 0.10443 0.0
C619 C 0.23839 0.74702 0.58936 0.0
C620 C 0.22171 0.73983 0.54488 0.0
C621 C 0.27819 0.77744 0.59825 0.0
C622 C 0.30308 0.80237 0.5632 0.0
H623 H 0.22164 0.72716 0.61727 0.0
H624 H 0.29051 0.77983 0.63253 0.0
S625 S 0.27234 0.79926 0.44171 0.0
N626 N 0.23188 0.76227 0.46599 0.0
N627 N 0.30676 0.82029 0.48278 0.0
C628 C 0.28575 0.79766 0.51912 0.0
C629 C 0.24518 0.76602 0.5099 0.0
C630 C 0.73144 0.4229 0.40788 0.0
C631 C 0.75617 0.44775 0.44305 0.0
C632 C 0.69017 0.41652 0.40305 0.0
C633 C 0.67142 0.43392 0.4339 0.0
H634 H 0.74404 0.40779 0.38387 0.0
H635 H 0.6726 0.39676 0.37536 0.0
S636 S 0.7226 0.49994 0.53373 0.0
N637 N 0.75944 0.48901 0.51028 0.0
N638 N 0.6808 0.47677 0.50178 0.0
C639 C 0.69576 0.45884 0.46966 0.0
C640 C 0.73831 0.46543 0.47444 0.0
C641 C 0.24407 0.76766 0.98097 0.0
C642 C 0.27478 0.78791 0.94811 0.0
C643 C 0.21336 0.72706 0.97328 0.0
C644 C 0.21313 0.70508 0.93296 0.0
H645 H 0.24463 0.78272 0.01332 0.0
H646 H 0.19138 0.71194 1.00014 0.0
S647 S 0.28679 0.74436 0.83635 0.0
N648 N 0.30227 0.78276 0.87355 0.0
N649 N 0.24561 0.70762 0.85938 0.0
C650 C 0.24285 0.7258 0.89942 0.0
C651 C 0.27346 0.76681 0.90697 0.0
C652 C 0.5295 0.21189 0.43033 0.0
C653 C 0.57206 0.22137 0.42639 0.0
C654 C 0.5156 0.24299 0.44077 0.0
C655 C 0.54357 0.28443 0.44758 0.0
H656 H 0.50688 0.18019 0.4261 0.0
H657 H 0.48308 0.23397 0.44576 0.0
S658 S 0.65863 0.3218 0.45393 0.0
N659 N 0.6421 0.27303 0.43759 0.0
N660 N 0.61651 0.33057 0.45923 0.0
C661 C 0.58639 0.29315 0.44735 0.0
C662 C 0.60044 0.26194 0.43581 0.0
C663 C 0.26344 0.57908 0.90444 0.0
C664 C 0.2374 0.5537 0.9382 0.0
C665 C 0.30399 0.58338 0.90001 0.0
C666 C 0.32092 0.56371 0.93031 0.0
H667 H 0.25256 0.59646 0.8814 0.0
H668 H 0.32265 0.60376 0.8734 0.0
S669 S 0.26558 0.49474 0.02609 0.0
N670 N 0.23056 0.50874 0.00302 0.0
N671 N 0.30832 0.51762 0.99572 0.0
C672 C 0.29518 0.53792 0.96446 0.0
C673 C 0.25316 0.53318 0.96859 0.0
C674 C 0.75676 0.24574 0.48151 0.0
C675 C 0.73035 0.2232 0.44585 0.0
C676 C 0.78795 0.28604 0.47417 0.0
C677 C 0.79304 0.30538 0.43114 0.0
H678 H 0.75221 0.23283 0.51559 0.0
H679 H 0.80606 0.30322 0.50303 0.0
S680 S 0.73282 0.25934 0.32637 0.0
N681 N 0.71245 0.22329 0.36569 0.0
N682 N 0.7707 0.29794 0.35213 0.0
C683 C 0.76814 0.2823 0.39496 0.0
C684 C 0.73682 0.24158 0.40226 0.0
C685 C 0.48014 0.755 0.96362 0.0
C686 C 0.45059 0.71381 0.96003 0.0
C687 C 0.46928 0.78867 0.95569 0.0
C688 C 0.42823 0.7819 0.94467 0.0
H689 H 0.51136 0.76129 0.97382 0.0
H690 H 0.49303 0.82001 0.9582 0.0
S691 S 0.33669 0.68099 0.94704 0.0
N692 N 0.37668 0.66934 0.9562 0.0
N693 N 0.35667 0.73167 0.94018 0.0
C694 C 0.39784 0.7411 0.94523 0.0
C695 C 0.4088 0.70729 0.95368 0.0
loop_
_geom_bond_atom_site_label_1
_geom_bond_atom_site_label_2
_geom_bond_distance
_geom_bond_site_symmetry_2
_ccdc_geom_bond_type
Mn0 O5 2.095 . S
Mn0 O15 2.162 . S
Mn0 O16 2.297 . S
Mn0 O24 2.385 . S
Mn0 O25 2.209 . S
Mn0 O26 2.094 . S
Mn1 O6 2.121 . S
Mn1 N8 2.257 . S
Mn1 N17 2.282 . S
Mn1 O25 2.215 . S
Mn1 O27 2.117 . S
C2 O24 1.234 . S
C2 O25 1.283 . S
C3 O15 1.281 . S
C3 O16 1.236 . S
C4 O26 1.240 . S
C4 O27 1.264 . S
O5 Mn0 2.095 . S
O5 C14 1.250 . S
O6 Mn1 2.121 . S
O6 C14 1.258 . S
C7 N8 1.326 . S
C7 C11 1.460 . S
C7 H13 0.929 . S
N8 Mn1 2.257 . S
N8 C7 1.326 . S
N8 C12 1.362 . S
C9 C10 1.258 . S
C9 C12 1.431 . S
C9 C29 1.449 . S
C10 C9 1.258 . S
C10 C11 1.477 . S
C10 H30 0.931 . S
C11 C7 1.460 . S
C11 C10 1.477 . S
C11 H31 0.930 . S
C12 N8 1.362 . S
C12 C9 1.431 . S
C12 C22 1.476 . S
H13 C7 0.929 . S
C14 O5 1.250 . S
C14 O6 1.258 . S
O15 Mn0 2.162 . S
O15 C3 1.281 . S
O16 Mn0 2.297 . S
O16 C3 1.236 . S
N17 Mn1 2.282 . S
N17 C18 1.328 . S
N17 C22 1.318 . S
C18 N17 1.328 . S
C18 C19 1.457 1_554 S
C18 H23 0.929 1_554 S
C19 C18 1.457 1_556 S
C19 C20 1.291 . S
C19 H32 0.931 . S
C20 C19 1.291 . S
C20 C21 1.373 1_556 S
C20 H33 0.929 . S
C21 C20 1.373 1_554 S
C21 C22 1.396 . S
C21 C28 1.403 . S
C22 C12 1.476 . S
C22 N17 1.318 . S
C22 C21 1.396 . S
H23 C18 0.929 1_556 S
O24 Mn0 2.385 . S
O24 C2 1.234 . S
O25 Mn0 2.209 . S
O25 Mn1 2.215 . S
O25 C2 1.283 . S
O26 Mn0 2.094 . S
O26 C4 1.240 . S
O27 Mn1 2.117 . S
O27 C4 1.264 . S
C28 C21 1.403 . S
C28 C29 1.399 . S
C28 H34 0.929 . S
C29 C9 1.449 . S
C29 C28 1.399 . S
C29 H35 0.930 . S
H30 C10 0.931 . S
H31 C11 0.930 . S
H32 C19 0.931 . S
H33 C20 0.929 . S
H34 C28 0.929 . S
H35 C29 0.930 . S
Mn36 O41 2.095 . S
Mn36 O51 2.162 . S
Mn36 O52 2.297 . S
Mn36 O60 2.385 . S
Mn36 O61 2.209 . S
Mn36 O62 2.094 . S
Mn37 O42 2.121 . S
Mn37 N44 2.257 . S
Mn37 N53 2.282 . S
Mn37 O61 2.215 . S
Mn37 O63 2.117 . S
C38 O60 1.234 . S
C38 O61 1.283 . S
C39 O51 1.281 . S
C39 O52 1.236 . S
C40 O62 1.240 . S
C40 O63 1.264 . S
O41 Mn36 2.095 . S
O41 C50 1.250 . S
O42 Mn37 2.121 . S
O42 C50 1.258 . S
C43 N44 1.326 . S
C43 C47 1.460 . S
C43 H49 0.929 . S
N44 Mn37 2.257 . S
N44 C43 1.326 . S
N44 C48 1.362 . S
C45 C46 1.258 . S
C45 C48 1.431 . S
C45 C65 1.449 . S
C46 C45 1.258 . S
C46 C47 1.477 . S
C46 H66 0.931 . S
C47 C43 1.460 . S
C47 C46 1.477 . S
C47 H67 0.930 . S
C48 N44 1.362 . S
C48 C45 1.431 . S
C48 C58 1.476 . S
H49 C43 0.929 . S
C50 O41 1.250 . S
C50 O42 1.258 . S
O51 Mn36 2.162 . S
O51 C39 1.281 . S
O52 Mn36 2.297 . S
O52 C39 1.236 . S
N53 Mn37 2.282 . S
N53 C54 1.328 . S
N53 C58 1.318 . S
C54 N53 1.328 . S
C54 C55 1.457 . S
C54 H59 0.929 . S
C55 C54 1.457 . S
C55 C56 1.291 . S
C55 H68 0.931 . S
C56 C55 1.291 . S
C56 C57 1.373 . S
C56 H69 0.929 . S
C57 C56 1.373 . S
C57 C58 1.396 . S
C57 C64 1.403 . S
C58 C48 1.476 . S
C58 N53 1.318 . S
C58 C57 1.396 . S
H59 C54 0.929 . S
O60 Mn36 2.385 . S
O60 C38 1.234 . S
O61 Mn36 2.209 . S
O61 Mn37 2.215 . S
O61 C38 1.283 . S
O62 Mn36 2.094 . S
O62 C40 1.240 . S
O63 Mn37 2.117 . S
O63 C40 1.264 . S
C64 C57 1.403 . S
C64 C65 1.399 . S
C64 H70 0.929 . S
C65 C45 1.449 . S
C65 C64 1.399 . S
C65 H71 0.930 . S
H66 C46 0.931 . S
H67 C47 0.930 . S
H68 C55 0.931 . S
H69 C56 0.929 . S
H70 C64 0.929 . S
H71 C65 0.930 . S
Mn72 O77 2.095 . S
Mn72 O87 2.162 . S
Mn72 O88 2.297 . S
Mn72 O96 2.385 1_554 S
Mn72 O97 2.209 . S
Mn72 O98 2.094 . S
Mn73 O78 2.121 . S
Mn73 N80 2.257 . S
Mn73 N89 2.282 . S
Mn73 O97 2.215 . S
Mn73 O99 2.117 . S
C74 O96 1.234 1_554 S
C74 O97 1.283 . S
C75 O87 1.281 . S
C75 O88 1.236 . S
C76 O98 1.240 . S
C76 O99 1.264 . S
O77 Mn72 2.095 . S
O77 C86 1.250 . S
O78 Mn73 2.121 . S
O78 C86 1.258 . S
C79 N80 1.326 . S
C79 C83 1.460 . S
C79 H85 0.929 . S
N80 Mn73 2.257 . S
N80 C79 1.326 . S
N80 C84 1.362 . S
C81 C82 1.258 . S
C81 C84 1.431 . S
C81 C101 1.449 . S
C82 C81 1.258 . S
C82 C83 1.477 . S
C82 H102 0.931 . S
C83 C79 1.460 . S
C83 C82 1.477 . S
C83 H103 0.930 . S
C84 N80 1.362 . S
C84 C81 1.431 . S
C84 C94 1.476 . S
H85 C79 0.929 . S
C86 O77 1.250 . S
C86 O78 1.258 . S
O87 Mn72 2.162 . S
O87 C75 1.281 . S
O88 Mn72 2.297 . S
O88 C75 1.236 . S
N89 Mn73 2.282 . S
N89 C90 1.328 1_554 S
N89 C94 1.318 . S
C90 N89 1.328 1_556 S
C90 C91 1.457 . S
C90 H95 0.929 . S
C91 C90 1.457 . S
C91 C92 1.291 . S
C91 H104 0.931 . S
C92 C91 1.291 . S
C92 C93 1.373 1_556 S
C92 H105 0.929 . S
C93 C92 1.373 1_554 S
C93 C94 1.396 . S
C93 C100 1.403 . S
C94 C84 1.476 . S
C94 N89 1.318 . S
C94 C93 1.396 . S
H95 C90 0.929 . S
O96 Mn72 2.385 1_556 S
O96 C74 1.234 1_556 S
O97 Mn72 2.209 . S
O97 Mn73 2.215 . S
O97 C74 1.283 . S
O98 Mn72 2.094 . S
O98 C76 1.240 . S
O99 Mn73 2.117 . S
O99 C76 1.264 . S
C100 C93 1.403 . S
C100 C101 1.399 . S
C100 H106 0.929 . S
C101 C81 1.449 . S
C101 C100 1.399 . S
C101 H107 0.930 . S
H102 C82 0.931 . S
H103 C83 0.930 . S
H104 C91 0.931 . S
H105 C92 0.929 . S
H106 C100 0.929 . S
H107 C101 0.930 . S
Mn108 O113 2.095 . S
Mn108 O123 2.162 . S
Mn108 O124 2.297 . S
Mn108 O132 2.385 . S
Mn108 O133 2.209 . S
Mn108 O134 2.094 . S
Mn109 O114 2.121 . S
Mn109 N116 2.257 . S
Mn109 N125 2.282 . S
Mn109 O133 2.215 . S
Mn109 O135 2.117 . S
C110 O132 1.234 . S
C110 O133 1.283 . S
C111 O123 1.281 . S
C111 O124 1.236 . S
C112 O134 1.240 . S
C112 O135 1.264 . S
O113 Mn108 2.095 . S
O113 C122 1.250 . S
O114 Mn109 2.121 . S
O114 C122 1.258 . S
C115 N116 1.326 . S
C115 C119 1.460 . S
C115 H121 0.929 . S
N116 Mn109 2.257 . S
N116 C115 1.326 . S
N116 C120 1.362 . S
C117 C118 1.258 . S
C117 C120 1.431 . S
C117 C137 1.449 . S
C118 C117 1.258 . S
C118 C119 1.477 . S
C118 H138 0.931 . S
C119 C115 1.460 . S
C119 C118 1.477 . S
C119 H139 0.930 . S
C120 N116 1.362 . S
C120 C117 1.431 . S
C120 C130 1.476 . S
H121 C115 0.929 . S
C122 O113 1.250 . S
C122 O114 1.258 . S
O123 Mn108 2.162 . S
O123 C111 1.281 . S
O124 Mn108 2.297 . S
O124 C111 1.236 . S
N125 Mn109 2.282 . S
N125 C126 1.328 . S
N125 C130 1.318 . S
C126 N125 1.328 . S
C126 C127 1.457 . S
C126 H131 0.929 . S
C127 C126 1.457 . S
C127 C128 1.291 . S
C127 H140 0.931 . S
C128 C127 1.291 . S
C128 C129 1.373 . S
C128 H141 0.929 . S
C129 C128 1.373 . S
C129 C130 1.396 . S
C129 C136 1.403 . S
C130 C120 1.476 . S
C130 N125 1.318 . S
C130 C129 1.396 . S
H131 C126 0.929 . S
O132 Mn108 2.385 . S
O132 C110 1.234 . S
O133 Mn108 2.209 . S
O133 Mn109 2.215 . S
O133 C110 1.283 . S
O134 Mn108 2.094 . S
O134 C112 1.240 . S
O135 Mn109 2.117 . S
O135 C112 1.264 . S
C136 C129 1.403 . S
C136 C137 1.399 . S
C136 H142 0.929 . S
C137 C117 1.449 . S
C137 C136 1.399 . S
C137 H143 0.930 . S
H138 C118 0.931 . S
H139 C119 0.930 . S
H140 C127 0.931 . S
H141 C128 0.929 . S
H142 C136 0.929 . S
H143 C137 0.930 . S
Mn144 O149 2.095 . S
Mn144 O159 2.162 . S
Mn144 O160 2.297 . S
Mn144 O168 2.385 . S
Mn144 O169 2.209 . S
Mn144 O170 2.094 . S
Mn145 O150 2.121 . S
Mn145 N152 2.257 . S
Mn145 N161 2.282 . S
Mn145 O169 2.215 . S
Mn145 O171 2.117 . S
C146 O168 1.234 . S
C146 O169 1.283 . S
C147 O159 1.281 . S
C147 O160 1.236 . S
C148 O170 1.240 . S
C148 O171 1.264 . S
O149 Mn144 2.095 . S
O149 C158 1.250 . S
O150 Mn145 2.121 . S
O150 C158 1.258 . S
C151 N152 1.326 . S
C151 C155 1.460 . S
C151 H157 0.929 . S
N152 Mn145 2.257 . S
N152 C151 1.326 . S
N152 C156 1.362 . S
C153 C154 1.258 . S
C153 C156 1.431 . S
C153 C173 1.449 . S
C154 C153 1.258 . S
C154 C155 1.477 . S
C154 H174 0.931 . S
C155 C151 1.460 . S
C155 C154 1.477 . S
C155 H175 0.930 . S
C156 N152 1.362 . S
C156 C153 1.431 . S
C156 C166 1.476 . S
H157 C151 0.929 . S
C158 O149 1.250 . S
C158 O150 1.258 . S
O159 Mn144 2.162 . S
O159 C147 1.281 . S
O160 Mn144 2.297 . S
O160 C147 1.236 . S
N161 Mn145 2.282 . S
N161 C162 1.328 1_554 S
N161 C166 1.318 . S
C162 N161 1.328 1_556 S
C162 C163 1.457 . S
C162 H167 0.929 . S
C163 C162 1.457 . S
C163 C164 1.291 . S
C163 H176 0.931 . S
C164 C163 1.291 . S
C164 C165 1.373 1_556 S
C164 H177 0.929 . S
C165 C164 1.373 1_554 S
C165 C166 1.396 . S
C165 C172 1.403 . S
C166 C156 1.476 . S
C166 N161 1.318 . S
C166 C165 1.396 . S
H167 C162 0.929 . S
O168 Mn144 2.385 . S
O168 C146 1.234 . S
O169 Mn144 2.209 . S
O169 Mn145 2.215 . S
O169 C146 1.283 . S
O170 Mn144 2.094 . S
O170 C148 1.240 . S
O171 Mn145 2.117 . S
O171 C148 1.264 . S
C172 C165 1.403 . S
C172 C173 1.399 . S
C172 H178 0.929 . S
C173 C153 1.449 . S
C173 C172 1.399 . S
C173 H179 0.930 . S
H174 C154 0.931 . S
H175 C155 0.930 . S
H176 C163 0.931 . S
H177 C164 0.929 . S
H178 C172 0.929 . S
H179 C173 0.930 . S
Mn180 O185 2.095 . S
Mn180 O195 2.162 . S
Mn180 O196 2.297 . S
Mn180 O204 2.385 . S
Mn180 O205 2.209 . S
Mn180 O206 2.094 . S
Mn181 O186 2.121 . S
Mn181 N188 2.257 . S
Mn181 N197 2.282 . S
Mn181 O205 2.215 . S
Mn181 O207 2.117 . S
C182 O204 1.234 . S
C182 O205 1.283 . S
C183 O195 1.281 . S
C183 O196 1.236 . S
C184 O206 1.240 . S
C184 O207 1.264 . S
O185 Mn180 2.095 . S
O185 C194 1.250 . S
O186 Mn181 2.121 . S
O186 C194 1.258 . S
C187 N188 1.326 . S
C187 C191 1.460 . S
C187 H193 0.929 . S
N188 Mn181 2.257 . S
N188 C187 1.326 . S
N188 C192 1.362 . S
C189 C190 1.258 . S
C189 C192 1.431 . S
C189 C209 1.449 . S
C190 C189 1.258 . S
C190 C191 1.477 . S
C190 H210 0.931 . S
C191 C187 1.460 . S
C191 C190 1.477 . S
C191 H211 0.930 . S
C192 N188 1.362 . S
C192 C189 1.431 . S
C192 C202 1.476 . S
H193 C187 0.929 . S
C194 O185 1.250 . S
C194 O186 1.258 . S
O195 Mn180 2.162 . S
O195 C183 1.281 . S
O196 Mn180 2.297 . S
O196 C183 1.236 . S
N197 Mn181 2.282 . S
N197 C198 1.328 . S
N197 C202 1.318 . S
C198 N197 1.328 . S
C198 C199 1.457 . S
C198 H203 0.929 . S
C199 C198 1.457 . S
C199 C200 1.291 . S
C199 H212 0.931 . S
C200 C199 1.291 . S
C200 C201 1.373 . S
C200 H213 0.929 . S
C201 C200 1.373 . S
C201 C202 1.396 . S
C201 C208 1.403 . S
C202 C192 1.476 . S
C202 N197 1.318 . S
C202 C201 1.396 . S
H203 C198 0.929 . S
O204 Mn180 2.385 . S
O204 C182 1.234 . S
O205 Mn180 2.209 . S
O205 Mn181 2.215 . S
O205 C182 1.283 . S
O206 Mn180 2.094 . S
O206 C184 1.240 . S
O207 Mn181 2.117 . S
O207 C184 1.264 . S
C208 C201 1.403 . S
C208 C209 1.399 . S
C208 H214 0.929 . S
C209 C189 1.449 . S
C209 C208 1.399 . S
C209 H215 0.930 . S
H210 C190 0.931 . S
H211 C191 0.930 . S
H212 C199 0.931 . S
H213 C200 0.929 . S
H214 C208 0.929 . S
H215 C209 0.930 . S
Mn216 O221 2.095 . S
Mn216 O231 2.162 . S
Mn216 O232 2.297 . S
Mn216 O240 2.385 . S
Mn216 O241 2.209 . S
Mn216 O242 2.094 . S
Mn217 O222 2.121 . S
Mn217 N224 2.257 . S
Mn217 N233 2.282 . S
Mn217 O241 2.215 . S
Mn217 O243 2.117 . S
C218 O240 1.234 . S
C218 O241 1.283 . S
C219 O231 1.281 . S
C219 O232 1.236 . S
C220 O242 1.240 . S
C220 O243 1.264 . S
O221 Mn216 2.095 . S
O221 C230 1.250 . S
O222 Mn217 2.121 . S
O222 C230 1.258 . S
C223 N224 1.326 . S
C223 C227 1.460 . S
C223 H229 0.929 . S
N224 Mn217 2.257 . S
N224 C223 1.326 . S
N224 C228 1.362 . S
C225 C226 1.258 . S
C225 C228 1.431 . S
C225 C245 1.449 . S
C226 C225 1.258 . S
C226 C227 1.477 . S
C226 H246 0.931 . S
C227 C223 1.460 . S
C227 C226 1.477 . S
C227 H247 0.930 . S
C228 N224 1.362 . S
C228 C225 1.431 . S
C228 C238 1.476 . S
H229 C223 0.929 . S
C230 O221 1.250 . S
C230 O222 1.258 . S
O231 Mn216 2.162 . S
O231 C219 1.281 . S
O232 Mn216 2.297 . S
O232 C219 1.236 . S
N233 Mn217 2.282 . S
N233 C234 1.328 . S
N233 C238 1.318 . S
C234 N233 1.328 . S
C234 C235 1.457 . S
C234 H239 0.929 . S
C235 C234 1.457 . S
C235 C236 1.291 . S
C235 H248 0.931 . S
C236 C235 1.291 . S
C236 C237 1.373 . S
C236 H249 0.929 . S
C237 C236 1.373 . S
C237 C238 1.396 . S
C237 C244 1.403 . S
C238 C228 1.476 . S
C238 N233 1.318 . S
C238 C237 1.396 . S
H239 C234 0.929 . S
O240 Mn216 2.385 . S
O240 C218 1.234 . S
O241 Mn216 2.209 . S
O241 Mn217 2.215 . S
O241 C218 1.283 . S
O242 Mn216 2.094 . S
O242 C220 1.240 . S
O243 Mn217 2.117 . S
O243 C220 1.264 . S
C244 C237 1.403 . S
C244 C245 1.399 . S
C244 H250 0.929 . S
C245 C225 1.449 . S
C245 C244 1.399 . S
C245 H251 0.930 . S
H246 C226 0.931 . S
H247 C227 0.930 . S
H248 C235 0.931 . S
H249 C236 0.929 . S
H250 C244 0.929 . S
H251 C245 0.930 . S
Mn252 O257 2.095 . S
Mn252 O267 2.162 . S
Mn252 O268 2.297 . S
Mn252 O276 2.385 1_556 S
Mn252 O277 2.209 . S
Mn252 O278 2.094 . S
Mn253 O258 2.121 . S
Mn253 N260 2.257 . S
Mn253 N269 2.282 . S
Mn253 O277 2.215 . S
Mn253 O279 2.117 . S
C254 O276 1.234 1_556 S
C254 O277 1.283 . S
C255 O267 1.281 . S
C255 O268 1.236 . S
C256 O278 1.240 . S
C256 O279 1.264 . S
O257 Mn252 2.095 . S
O257 C266 1.250 . S
O258 Mn253 2.121 . S
O258 C266 1.258 . S
C259 N260 1.326 . S
C259 C263 1.460 . S
C259 H265 0.929 . S
N260 Mn253 2.257 . S
N260 C259 1.326 . S
N260 C264 1.362 . S
C261 C262 1.258 . S
C261 C264 1.431 . S
C261 C281 1.449 . S
C262 C261 1.258 . S
C262 C263 1.477 . S
C262 H282 0.931 . S
C263 C259 1.460 . S
C263 C262 1.477 . S
C263 H283 0.930 . S
C264 N260 1.362 . S
C264 C261 1.431 . S
C264 C274 1.476 . S
H265 C259 0.929 . S
C266 O257 1.250 . S
C266 O258 1.258 . S
O267 Mn252 2.162 . S
O267 C255 1.281 . S
O268 Mn252 2.297 . S
O268 C255 1.236 . S
N269 Mn253 2.282 . S
N269 C270 1.328 1_556 S
N269 C274 1.318 . S
C270 N269 1.328 1_554 S
C270 C271 1.457 . S
C270 H275 0.929 . S
C271 C270 1.457 . S
C271 C272 1.291 . S
C271 H284 0.931 . S
C272 C271 1.291 . S
C272 C273 1.373 1_554 S
C272 H285 0.929 . S
C273 C272 1.373 1_556 S
C273 C274 1.396 . S
C273 C280 1.403 . S
C274 C264 1.476 . S
C274 N269 1.318 . S
C274 C273 1.396 . S
H275 C270 0.929 . S
O276 Mn252 2.385 1_554 S
O276 C254 1.234 1_554 S
O277 Mn252 2.209 . S
O277 Mn253 2.215 . S
O277 C254 1.283 . S
O278 Mn252 2.094 . S
O278 C256 1.240 . S
O279 Mn253 2.117 . S
O279 C256 1.264 . S
C280 C273 1.403 . S
C280 C281 1.399 . S
C280 H286 0.929 . S
C281 C261 1.449 . S
C281 C280 1.399 . S
C281 H287 0.930 . S
H282 C262 0.931 . S
H283 C263 0.930 . S
H284 C271 0.931 . S
H285 C272 0.929 . S
H286 C280 0.929 . S
H287 C281 0.930 . S
Mn288 O293 2.095 . S
Mn288 O303 2.162 . S
Mn288 O304 2.297 . S
Mn288 O312 2.385 . S
Mn288 O313 2.209 . S
Mn288 O314 2.094 . S
Mn289 O294 2.121 . S
Mn289 N296 2.257 . S
Mn289 N305 2.282 . S
Mn289 O313 2.215 . S
Mn289 O315 2.117 . S
C290 O312 1.234 . S
C290 O313 1.283 . S
C291 O303 1.281 . S
C291 O304 1.236 . S
C292 O314 1.240 . S
C292 O315 1.264 . S
O293 Mn288 2.095 . S
O293 C302 1.250 . S
O294 Mn289 2.121 . S
O294 C302 1.258 . S
C295 N296 1.326 . S
C295 C299 1.460 . S
C295 H301 0.929 . S
N296 Mn289 2.257 . S
N296 C295 1.326 . S
N296 C300 1.362 . S
C297 C298 1.258 . S
C297 C300 1.431 . S
C297 C317 1.449 . S
C298 C297 1.258 . S
C298 C299 1.477 . S
C298 H318 0.931 . S
C299 C295 1.460 . S
C299 C298 1.477 . S
C299 H319 0.930 . S
C300 N296 1.362 . S
C300 C297 1.431 . S
C300 C310 1.476 . S
H301 C295 0.929 . S
C302 O293 1.250 . S
C302 O294 1.258 . S
O303 Mn288 2.162 . S
O303 C291 1.281 . S
O304 Mn288 2.297 . S
O304 C291 1.236 . S
N305 Mn289 2.282 . S
N305 C306 1.328 . S
N305 C310 1.318 . S
C306 N305 1.328 . S
C306 C307 1.457 . S
C306 H311 0.929 . S
C307 C306 1.457 . S
C307 C308 1.291 . S
C307 H320 0.931 . S
C308 C307 1.291 . S
C308 C309 1.373 . S
C308 H321 0.929 . S
C309 C308 1.373 . S
C309 C310 1.396 . S
C309 C316 1.403 . S
C310 C300 1.476 . S
C310 N305 1.318 . S
C310 C309 1.396 . S
H311 C306 0.929 . S
O312 Mn288 2.385 . S
O312 C290 1.234 . S
O313 Mn288 2.209 . S
O313 Mn289 2.215 . S
O313 C290 1.283 . S
O314 Mn288 2.094 . S
O314 C292 1.240 . S
O315 Mn289 2.117 . S
O315 C292 1.264 . S
C316 C309 1.403 . S
C316 C317 1.399 . S
C316 H322 0.929 . S
C317 C297 1.449 . S
C317 C316 1.399 . S
C317 H323 0.930 . S
H318 C298 0.931 . S
H319 C299 0.930 . S
H320 C307 0.931 . S
H321 C308 0.929 . S
H322 C316 0.929 . S
H323 C317 0.930 . S
Mn324 O329 2.095 . S
Mn324 O339 2.162 . S
Mn324 O340 2.297 . S
Mn324 O348 2.385 . S
Mn324 O349 2.209 . S
Mn324 O350 2.094 . S
Mn325 O330 2.121 . S
Mn325 N332 2.257 . S
Mn325 N341 2.282 . S
Mn325 O349 2.215 . S
Mn325 O351 2.117 . S
C326 O348 1.234 . S
C326 O349 1.283 . S
C327 O339 1.281 . S
C327 O340 1.236 . S
C328 O350 1.240 . S
C328 O351 1.264 . S
O329 Mn324 2.095 . S
O329 C338 1.250 . S
O330 Mn325 2.121 . S
O330 C338 1.258 . S
C331 N332 1.326 . S
C331 C335 1.460 . S
C331 H337 0.929 . S
N332 Mn325 2.257 . S
N332 C331 1.326 . S
N332 C336 1.362 . S
C333 C334 1.258 . S
C333 C336 1.431 . S
C333 C353 1.449 . S
C334 C333 1.258 . S
C334 C335 1.477 . S
C334 H354 0.931 . S
C335 C331 1.460 . S
C335 C334 1.477 . S
C335 H355 0.930 . S
C336 N332 1.362 . S
C336 C333 1.431 . S
C336 C346 1.476 . S
H337 C331 0.929 . S
C338 O329 1.250 . S
C338 O330 1.258 . S
O339 Mn324 2.162 . S
O339 C327 1.281 . S
O340 Mn324 2.297 . S
O340 C327 1.236 . S
N341 Mn325 2.282 . S
N341 C342 1.328 . S
N341 C346 1.318 . S
C342 N341 1.328 . S
C342 C343 1.457 1_556 S
C342 H347 0.929 1_556 S
C343 C342 1.457 1_554 S
C343 C344 1.291 . S
C343 H356 0.931 . S
C344 C343 1.291 . S
C344 C345 1.373 1_554 S
C344 H357 0.929 . S
C345 C344 1.373 1_556 S
C345 C346 1.396 . S
C345 C352 1.403 . S
C346 C336 1.476 . S
C346 N341 1.318 . S
C346 C345 1.396 . S
H347 C342 0.929 1_554 S
O348 Mn324 2.385 . S
O348 C326 1.234 . S
O349 Mn324 2.209 . S
O349 Mn325 2.215 . S
O349 C326 1.283 . S
O350 Mn324 2.094 . S
O350 C328 1.240 . S
O351 Mn325 2.117 . S
O351 C328 1.264 . S
C352 C345 1.403 . S
C352 C353 1.399 . S
C352 H358 0.929 . S
C353 C333 1.449 . S
C353 C352 1.399 . S
C353 H359 0.930 . S
H354 C334 0.931 . S
H355 C335 0.930 . S
H356 C343 0.931 . S
H357 C344 0.929 . S
H358 C352 0.929 . S
H359 C353 0.930 . S
Mn360 O365 2.095 . S
Mn360 O375 2.162 . S
Mn360 O376 2.297 . S
Mn360 O384 2.385 . S
Mn360 O385 2.209 . S
Mn360 O386 2.094 . S
Mn361 O366 2.121 . S
Mn361 N368 2.257 . S
Mn361 N377 2.282 . S
Mn361 O385 2.215 . S
Mn361 O387 2.117 . S
C362 O384 1.234 . S
C362 O385 1.283 . S
C363 O375 1.281 . S
C363 O376 1.236 . S
C364 O386 1.240 . S
C364 O387 1.264 . S
O365 Mn360 2.095 . S
O365 C374 1.250 . S
O366 Mn361 2.121 . S
O366 C374 1.258 . S
C367 N368 1.326 . S
C367 C371 1.460 . S
C367 H373 0.929 . S
N368 Mn361 2.257 . S
N368 C367 1.326 . S
N368 C372 1.362 . S
C369 C370 1.258 . S
C369 C372 1.431 . S
C369 C389 1.449 . S
C370 C369 1.258 . S
C370 C371 1.477 . S
C370 H390 0.931 . S
C371 C367 1.460 . S
C371 C370 1.477 . S
C371 H391 0.930 . S
C372 N368 1.362 . S
C372 C369 1.431 . S
C372 C382 1.476 . S
H373 C367 0.929 . S
C374 O365 1.250 . S
C374 O366 1.258 . S
O375 Mn360 2.162 . S
O375 C363 1.281 . S
O376 Mn360 2.297 . S
O376 C363 1.236 . S
N377 Mn361 2.282 . S
N377 C378 1.328 . S
N377 C382 1.318 . S
C378 N377 1.328 . S
C378 C379 1.457 . S
C378 H383 0.929 . S
C379 C378 1.457 . S
C379 C380 1.291 . S
C379 H392 0.931 . S
C380 C379 1.291 . S
C380 C381 1.373 . S
C380 H393 0.929 . S
C381 C380 1.373 . S
C381 C382 1.396 . S
C381 C388 1.403 . S
C382 C372 1.476 . S
C382 N377 1.318 . S
C382 C381 1.396 . S
H383 C378 0.929 . S
O384 Mn360 2.385 . S
O384 C362 1.234 . S
O385 Mn360 2.209 . S
O385 Mn361 2.215 . S
O385 C362 1.283 . S
O386 Mn360 2.094 . S
O386 C364 1.240 . S
O387 Mn361 2.117 . S
O387 C364 1.264 . S
C388 C381 1.403 . S
C388 C389 1.399 . S
C388 H394 0.929 . S
C389 C369 1.449 . S
C389 C388 1.399 . S
C389 H395 0.930 . S
H390 C370 0.931 . S
H391 C371 0.930 . S
H392 C379 0.931 . S
H393 C380 0.929 . S
H394 C388 0.929 . S
H395 C389 0.930 . S
Mn396 O401 2.095 . S
Mn396 O411 2.162 . S
Mn396 O412 2.297 . S
Mn396 O420 2.385 . S
Mn396 O421 2.209 . S
Mn396 O422 2.094 . S
Mn397 O402 2.121 . S
Mn397 N404 2.257 . S
Mn397 N413 2.282 . S
Mn397 O421 2.215 . S
Mn397 O423 2.117 . S
C398 O420 1.234 . S
C398 O421 1.283 . S
C399 O411 1.281 . S
C399 O412 1.236 . S
C400 O422 1.240 . S
C400 O423 1.264 . S
O401 Mn396 2.095 . S
O401 C410 1.250 . S
O402 Mn397 2.121 . S
O402 C410 1.258 . S
C403 N404 1.326 . S
C403 C407 1.460 . S
C403 H409 0.929 . S
N404 Mn397 2.257 . S
N404 C403 1.326 . S
N404 C408 1.362 . S
C405 C406 1.258 . S
C405 C408 1.431 . S
C405 C425 1.449 . S
C406 C405 1.258 . S
C406 C407 1.477 . S
C406 H426 0.931 . S
C407 C403 1.460 . S
C407 C406 1.477 . S
C407 H427 0.930 . S
C408 N404 1.362 . S
C408 C405 1.431 . S
C408 C418 1.476 . S
H409 C403 0.929 . S
C410 O401 1.250 . S
C410 O402 1.258 . S
O411 Mn396 2.162 . S
O411 C399 1.281 . S
O412 Mn396 2.297 . S
O412 C399 1.236 . S
N413 Mn397 2.282 . S
N413 C414 1.328 1_556 S
N413 C418 1.318 . S
C414 N413 1.328 1_554 S
C414 C415 1.457 . S
C414 H419 0.929 . S
C415 C414 1.457 . S
C415 C416 1.291 . S
C415 H428 0.931 . S
C416 C415 1.291 . S
C416 C417 1.373 1_554 S
C416 H429 0.929 . S
C417 C416 1.373 1_556 S
C417 C418 1.396 . S
C417 C424 1.403 . S
C418 C408 1.476 . S
C418 N413 1.318 . S
C418 C417 1.396 . S
H419 C414 0.929 . S
O420 Mn396 2.385 . S
O420 C398 1.234 . S
O421 Mn396 2.209 . S
O421 Mn397 2.215 . S
O421 C398 1.283 . S
O422 Mn396 2.094 . S
O422 C400 1.240 . S
O423 Mn397 2.117 . S
O423 C400 1.264 . S
C424 C417 1.403 . S
C424 C425 1.399 . S
C424 H430 0.929 . S
C425 C405 1.449 . S
C425 C424 1.399 . S
C425 H431 0.930 . S
H426 C406 0.931 . S
H427 C407 0.930 . S
H428 C415 0.931 . S
H429 C416 0.929 . S
H430 C424 0.929 . S
H431 C425 0.930 . S
C432 C433 1.369 . S
C432 C434 1.419 . S
C432 H436 0.930 . S
C433 C432 1.369 . S
C433 C442 1.429 . S
C434 C432 1.419 . S
C434 C435 1.363 . S
C434 H437 0.929 . S
C435 C434 1.363 . S
C435 C441 1.428 . S
H436 C432 0.930 . S
H437 C434 0.929 . S
S438 N439 1.613 . S
S438 N440 1.610 . S
N439 S438 1.613 . S
N439 C442 1.350 . S
N440 S438 1.610 . S
N440 C441 1.351 . S
C441 C435 1.428 . S
C441 N440 1.351 . S
C441 C442 1.434 . S
C442 C433 1.429 . S
C442 N439 1.350 . S
C442 C441 1.434 . S
C443 C444 1.369 . S
C443 C445 1.419 . S
C443 H447 0.930 . S
C444 C443 1.369 . S
C444 C453 1.429 . S
C445 C443 1.419 . S
C445 C446 1.363 . S
C445 H448 0.929 . S
C446 C445 1.363 . S
C446 C452 1.428 . S
H447 C443 0.930 . S
H448 C445 0.929 . S
S449 N450 1.613 . S
S449 N451 1.610 . S
N450 S449 1.613 . S
N450 C453 1.350 . S
N451 S449 1.610 . S
N451 C452 1.351 . S
C452 C446 1.428 . S
C452 N451 1.351 . S
C452 C453 1.434 . S
C453 C444 1.429 . S
C453 N450 1.350 . S
C453 C452 1.434 . S
C454 C455 1.369 . S
C454 C456 1.419 . S
C454 H458 0.930 . S
C455 C454 1.369 . S
C455 C464 1.429 . S
C456 C454 1.419 . S
C456 C457 1.363 . S
C456 H459 0.929 . S
C457 C456 1.363 . S
C457 C463 1.428 . S
H458 C454 0.930 . S
H459 C456 0.929 . S
S460 N461 1.613 . S
S460 N462 1.610 . S
N461 S460 1.613 . S
N461 C464 1.350 . S
N462 S460 1.610 . S
N462 C463 1.351 . S
C463 C457 1.428 . S
C463 N462 1.351 . S
C463 C464 1.434 . S
C464 C455 1.429 . S
C464 N461 1.350 . S
C464 C463 1.434 . S
C465 C466 1.369 . S
C465 C467 1.419 . S
C465 H469 0.930 . S
C466 C465 1.369 . S
C466 C475 1.429 . S
C467 C465 1.419 . S
C467 C468 1.363 . S
C467 H470 0.929 . S
C468 C467 1.363 . S
C468 C474 1.428 . S
H469 C465 0.930 . S
H470 C467 0.929 . S
S471 N472 1.613 . S
S471 N473 1.610 . S
N472 S471 1.613 . S
N472 C475 1.350 . S
N473 S471 1.610 . S
N473 C474 1.351 . S
C474 C468 1.428 . S
C474 N473 1.351 . S
C474 C475 1.434 . S
C475 C466 1.429 . S
C475 N472 1.350 . S
C475 C474 1.434 . S
C476 C477 1.369 . S
C476 C478 1.419 . S
C476 H480 0.930 . S
C477 C476 1.369 . S
C477 C486 1.429 . S
C478 C476 1.419 . S
C478 C479 1.363 . S
C478 H481 0.929 . S
C479 C478 1.363 . S
C479 C485 1.428 . S
H480 C476 0.930 . S
H481 C478 0.929 . S
S482 N483 1.613 . S
S482 N484 1.610 . S
N483 S482 1.613 . S
N483 C486 1.350 . S
N484 S482 1.610 . S
N484 C485 1.351 . S
C485 C479 1.428 . S
C485 N484 1.351 . S
C485 C486 1.434 . S
C486 C477 1.429 . S
C486 N483 1.350 . S
C486 C485 1.434 . S
C487 C488 1.369 . S
C487 C489 1.419 . S
C487 H491 0.930 . S
C488 C487 1.369 . S
C488 C497 1.429 . S
C489 C487 1.419 . S
C489 C490 1.363 . S
C489 H492 0.929 . S
C490 C489 1.363 . S
C490 C496 1.428 . S
H491 C487 0.930 . S
H492 C489 0.929 . S
S493 N494 1.613 . S
S493 N495 1.610 . S
N494 S493 1.613 . S
N494 C497 1.350 . S
N495 S493 1.610 . S
N495 C496 1.351 . S
C496 C490 1.428 . S
C496 N495 1.351 . S
C496 C497 1.434 . S
C497 C488 1.429 . S
C497 N494 1.350 . S
C497 C496 1.434 . S
C498 C499 1.369 . S
C498 C500 1.419 1_545 S
C498 H502 0.930 . S
C499 C498 1.369 . S
C499 C508 1.429 1_554 S
C500 C498 1.419 1_565 S
C500 C501 1.363 1_554 S
C500 H503 0.929 . S
C501 C500 1.363 1_556 S
C501 C507 1.428 . S
H502 C498 0.930 . S
H503 C500 0.929 . S
S504 N505 1.613 1_565 S
S504 N506 1.610 . S
N505 S504 1.613 1_545 S
N505 C508 1.350 . S
N506 S504 1.610 . S
N506 C507 1.351 . S
C507 C501 1.428 . S
C507 N506 1.351 . S
C507 C508 1.434 1_565 S
C508 C499 1.429 1_556 S
C508 N505 1.350 . S
C508 C507 1.434 1_545 S
C509 C510 1.369 . S
C509 C511 1.419 . S
C509 H513 0.930 . S
C510 C509 1.369 . S
C510 C519 1.429 . S
C511 C509 1.419 . S
C511 C512 1.363 . S
C511 H514 0.929 . S
C512 C511 1.363 . S
C512 C518 1.428 . S
H513 C509 0.930 . S
H514 C511 0.929 . S
S515 N516 1.613 . S
S515 N517 1.610 . S
N516 S515 1.613 . S
N516 C519 1.350 . S
N517 S515 1.610 . S
N517 C518 1.351 . S
C518 C512 1.428 . S
C518 N517 1.351 . S
C518 C519 1.434 . S
C519 C510 1.429 . S
C519 N516 1.350 . S
C519 C518 1.434 . S
C520 C521 1.369 1_554 S
C520 C522 1.421 . S
C520 H524 0.930 . S
C521 C520 1.369 1_556 S
C521 C530 1.416 1_455 S
C522 C520 1.421 . S
C522 C523 1.359 1_455 S
C522 H525 0.931 . S
C523 C522 1.359 1_655 S
C523 C529 1.428 1_554 S
H524 C520 0.930 . S
H525 C522 0.931 . S
S526 N527 1.613 . S
S526 N528 1.610 . S
N527 S526 1.613 . S
N527 C530 1.357 . S
N528 S526 1.610 . S
N528 C529 1.351 . S
C529 C523 1.428 1_556 S
C529 N528 1.351 . S
C529 C530 1.442 . S
C530 C521 1.416 1_655 S
C530 N527 1.357 . S
C530 C529 1.442 . S
C531 C532 1.369 . S
C531 C533 1.419 . S
C531 H535 0.930 . S
C532 C531 1.369 . S
C532 C541 1.429 1_545 S
C533 C531 1.419 . S
C533 C534 1.363 1_545 S
C533 H536 0.929 . S
C534 C533 1.363 1_565 S
C534 C540 1.428 . S
H535 C531 0.930 . S
H536 C533 0.929 . S
S537 N538 1.613 . S
S537 N539 1.610 . S
N538 S537 1.613 . S
N538 C541 1.350 . S
N539 S537 1.610 . S
N539 C540 1.351 . S
C540 C534 1.428 . S
C540 N539 1.351 . S
C540 C541 1.434 . S
C541 C532 1.429 1_565 S
C541 N538 1.350 . S
C541 C540 1.434 . S
C542 C543 1.369 . S
C542 C544 1.419 . S
C542 H546 0.930 . S
C543 C542 1.369 . S
C543 C552 1.429 1_556 S
C544 C542 1.419 . S
C544 C545 1.363 1_556 S
C544 H547 0.929 . S
C545 C544 1.363 1_554 S
C545 C551 1.428 . S
H546 C542 0.930 . S
H547 C544 0.929 . S
S548 N549 1.613 . S
S548 N550 1.610 . S
N549 S548 1.613 . S
N549 C552 1.350 . S
N550 S548 1.610 . S
N550 C551 1.351 . S
C551 C545 1.428 . S
C551 N550 1.351 . S
C551 C552 1.434 . S
C552 C543 1.429 1_554 S
C552 N549 1.350 . S
C552 C551 1.434 . S
C553 C554 1.369 1_455 S
C553 C555 1.419 . S
C553 H557 0.930 . S
C554 C553 1.369 1_655 S
C554 C563 1.429 . S
C555 C553 1.419 . S
C555 C556 1.363 . S
C555 H558 0.929 . S
C556 C555 1.363 . S
C556 C562 1.428 1_455 S
H557 C553 0.930 . S
H558 C555 0.929 . S
S559 N560 1.613 . S
S559 N561 1.610 . S
N560 S559 1.613 . S
N560 C563 1.350 . S
N561 S559 1.610 . S
N561 C562 1.351 . S
C562 C556 1.428 1_655 S
C562 N561 1.351 . S
C562 C563 1.434 . S
C563 C554 1.429 . S
C563 N560 1.350 . S
C563 C562 1.434 . S
C564 C565 1.369 . S
C564 C566 1.419 . S
C564 H568 0.930 . S
C565 C564 1.369 . S
C565 C574 1.429 . S
C566 C564 1.419 . S
C566 C567 1.363 . S
C566 H569 0.929 . S
C567 C566 1.363 . S
C567 C573 1.428 . S
H568 C564 0.930 . S
H569 C566 0.929 . S
S570 N571 1.613 . S
S570 N572 1.610 . S
N571 S570 1.613 . S
N571 C574 1.350 . S
N572 S570 1.610 . S
N572 C573 1.351 . S
C573 C567 1.428 . S
C573 N572 1.351 . S
C573 C574 1.434 . S
C574 C565 1.429 . S
C574 N571 1.350 . S
C574 C573 1.434 . S
C575 C576 1.369 . S
C575 C577 1.419 . S
C575 H579 0.930 . S
C576 C575 1.369 . S
C576 C585 1.429 . S
C577 C575 1.419 . S
C577 C578 1.363 . S
C577 H580 0.929 . S
C578 C577 1.363 . S
C578 C584 1.428 . S
H579 C575 0.930 . S
H580 C577 0.929 . S
S581 N582 1.613 . S
S581 N583 1.610 . S
N582 S581 1.613 . S
N582 C585 1.350 . S
N583 S581 1.610 . S
N583 C584 1.351 . S
C584 C578 1.428 . S
C584 N583 1.351 . S
C584 C585 1.434 . S
C585 C576 1.429 . S
C585 N582 1.350 . S
C585 C584 1.434 . S
C586 C587 1.369 . S
C586 C588 1.419 . S
C586 H590 0.930 . S
C587 C586 1.369 . S
C587 C596 1.429 1_554 S
C588 C586 1.419 . S
C588 C589 1.363 . S
C588 H591 0.929 . S
C589 C588 1.363 . S
C589 C595 1.428 . S
H590 C586 0.930 . S
H591 C588 0.929 . S
S592 N593 1.613 . S
S592 N594 1.610 . S
N593 S592 1.613 . S
N593 C596 1.350 . S
N594 S592 1.610 . S
N594 C595 1.351 1_556 S
C595 C589 1.428 . S
C595 N594 1.351 1_554 S
C595 C596 1.434 1_554 S
C596 C587 1.429 1_556 S
C596 N593 1.350 . S
C596 C595 1.434 1_556 S
C597 C598 1.369 . S
C597 C599 1.419 . S
C597 H601 0.930 . S
C598 C597 1.369 . S
C598 C607 1.429 . S
C599 C597 1.419 . S
C599 C600 1.363 . S
C599 H602 0.929 . S
C600 C599 1.363 . S
C600 C606 1.428 . S
H601 C597 0.930 . S
H602 C599 0.929 . S
S603 N604 1.613 . S
S603 N605 1.610 . S
N604 S603 1.613 . S
N604 C607 1.350 . S
N605 S603 1.610 . S
N605 C606 1.351 . S
C606 C600 1.428 . S
C606 N605 1.351 . S
C606 C607 1.434 . S
C607 C598 1.429 . S
C607 N604 1.350 . S
C607 C606 1.434 . S
C608 C609 1.369 1_556 S
C608 C610 1.419 1_556 S
C608 H612 0.930 . S
C609 C608 1.369 1_554 S
C609 C618 1.429 . S
C610 C608 1.419 1_554 S
C610 C611 1.363 . S
C610 H613 0.929 1_554 S
C611 C610 1.363 . S
C611 C617 1.428 . S
H612 C608 0.930 . S
H613 C610 0.929 1_556 S
S614 N615 1.613 . S
S614 N616 1.610 . S
N615 S614 1.613 . S
N615 C618 1.350 . S
N616 S614 1.610 . S
N616 C617 1.351 . S
C617 C611 1.428 . S
C617 N616 1.351 . S
C617 C618 1.434 . S
C618 C609 1.429 . S
C618 N615 1.350 . S
C618 C617 1.434 . S
C619 C620 1.369 . S
C619 C621 1.419 . S
C619 H623 0.930 . S
C620 C619 1.369 . S
C620 C629 1.429 . S
C621 C619 1.419 . S
C621 C622 1.363 . S
C621 H624 0.929 . S
C622 C621 1.363 . S
C622 C628 1.428 . S
H623 C619 0.930 . S
H624 C621 0.929 . S
S625 N626 1.613 . S
S625 N627 1.610 . S
N626 S625 1.613 . S
N626 C629 1.350 . S
N627 S625 1.610 . S
N627 C628 1.351 . S
C628 C622 1.428 . S
C628 N627 1.351 . S
C628 C629 1.434 . S
C629 C620 1.429 . S
C629 N626 1.350 . S
C629 C628 1.434 . S
C630 C631 1.369 . S
C630 C632 1.419 . S
C630 H634 0.930 . S
C631 C630 1.369 . S
C631 C640 1.429 . S
C632 C630 1.419 . S
C632 C633 1.363 . S
C632 H635 0.929 . S
C633 C632 1.363 . S
C633 C639 1.428 . S
H634 C630 0.930 . S
H635 C632 0.929 . S
S636 N637 1.613 . S
S636 N638 1.610 . S
N637 S636 1.613 . S
N637 C640 1.350 . S
N638 S636 1.610 . S
N638 C639 1.351 . S
C639 C633 1.428 . S
C639 N638 1.351 . S
C639 C640 1.434 . S
C640 C631 1.429 . S
C640 N637 1.350 . S
C640 C639 1.434 . S
C641 C642 1.369 1_554 S
C641 C643 1.419 . S
C641 H645 0.930 . S
C642 C641 1.369 1_556 S
C642 C651 1.429 . S
C643 C641 1.419 . S
C643 C644 1.363 1_554 S
C643 H646 0.929 . S
C644 C643 1.363 1_556 S
C644 C650 1.428 . S
H645 C641 0.930 . S
H646 C643 0.929 . S
S647 N648 1.613 . S
S647 N649 1.610 . S
N648 S647 1.613 . S
N648 C651 1.350 . S
N649 S647 1.610 . S
N649 C650 1.351 . S
C650 C644 1.428 . S
C650 N649 1.351 . S
C650 C651 1.434 . S
C651 C642 1.429 . S
C651 N648 1.350 . S
C651 C650 1.434 . S
C652 C653 1.369 . S
C652 C654 1.419 . S
C652 H656 0.930 . S
C653 C652 1.369 . S
C653 C662 1.429 . S
C654 C652 1.419 . S
C654 C655 1.363 . S
C654 H657 0.929 . S
C655 C654 1.363 . S
C655 C661 1.428 . S
H656 C652 0.930 . S
H657 C654 0.929 . S
S658 N659 1.613 . S
S658 N660 1.610 . S
N659 S658 1.613 . S
N659 C662 1.350 . S
N660 S658 1.610 . S
N660 C661 1.351 . S
C661 C655 1.428 . S
C661 N660 1.351 . S
C661 C662 1.434 . S
C662 C653 1.429 . S
C662 N659 1.350 . S
C662 C661 1.434 . S
C663 C664 1.369 . S
C663 C665 1.419 . S
C663 H667 0.930 . S
C664 C663 1.369 . S
C664 C673 1.429 . S
C665 C663 1.419 . S
C665 C666 1.363 . S
C665 H668 0.929 . S
C666 C665 1.363 . S
C666 C672 1.428 . S
H667 C663 0.930 . S
H668 C665 0.929 . S
S669 N670 1.613 1_554 S
S669 N671 1.610 1_554 S
N670 S669 1.613 1_556 S
N670 C673 1.350 . S
N671 S669 1.610 1_556 S
N671 C672 1.351 . S
C672 C666 1.428 . S
C672 N671 1.351 . S
C672 C673 1.434 . S
C673 C664 1.429 . S
C673 N670 1.350 . S
C673 C672 1.434 . S
C674 C675 1.369 . S
C674 C676 1.419 . S
C674 H678 0.930 . S
C675 C674 1.369 . S
C675 C684 1.429 . S
C676 C674 1.419 . S
C676 C677 1.363 . S
C676 H679 0.929 . S
C677 C676 1.363 . S
C677 C683 1.428 . S
H678 C674 0.930 . S
H679 C676 0.929 . S
S680 N681 1.613 . S
S680 N682 1.610 . S
N681 S680 1.613 . S
N681 C684 1.350 . S
N682 S680 1.610 . S
N682 C683 1.351 . S
C683 C677 1.428 . S
C683 N682 1.351 . S
C683 C684 1.434 . S
C684 C675 1.429 . S
C684 N681 1.350 . S
C684 C683 1.434 . S
C685 C686 1.369 . S
C685 C687 1.419 . S
C685 H689 0.930 . S
C686 C685 1.369 . S
C686 C695 1.429 . S
C687 C685 1.419 . S
C687 C688 1.363 . S
C687 H690 0.929 . S
C688 C687 1.363 . S
C688 C694 1.428 . S
H689 C685 0.930 . S
H690 C687 0.929 . S
S691 N692 1.613 . S
S691 N693 1.610 . S
N692 S691 1.613 . S
N692 C695 1.350 . S
N693 S691 1.610 . S
N693 C694 1.351 . S
C694 C688 1.428 . S
C694 N693 1.351 . S
C694 C695 1.434 . S
C695 C686 1.429 . S
C695 N692 1.350 . S
C695 C694 1.434 . S
C433 C374 1.576 . S
C435 C14 1.540 . S
C444 C50 1.471 . S
C446 C410 1.462 . S
C455 C86 1.574 . S
C457 C230 1.543 . S
C466 C266 1.574 . S
C468 C122 1.543 . S
C477 C302 1.460 . S
C479 C158 1.470 . S
C488 C194 1.581 . S
C490 C338 1.538 . S
C499 C4 1.193 . S
C501 C256 1.202 . S
C510 C40 0.999 . S
C512 C292 0.991 . S
C521 C328 1.190 . S
C523 C76 1.205 . S
C532 C364 1.209 . S
C534 C112 1.183 . S
C543 C400 0.996 . S
C545 C148 0.992 . S
C554 C220 1.183 . S
C556 C184 1.207 . S
C565 C2 1.115 . S
C567 C147 1.120 . S
C576 C38 1.154 . S
C578 C183 1.225 . S
C587 C74 1.167 . S
C589 C3 1.215 . S
C598 C110 1.123 . S
C600 C39 1.124 . S
C609 C146 1.154 . S
C611 C75 1.225 . S
C620 C182 1.168 . S
C622 C111 1.216 . S
C631 C218 1.123 . S
C633 C291 1.123 . S
C642 C254 1.161 . S
C644 C327 1.216 . S
C653 C363 1.224 . S
C655 C290 1.151 . S
C664 C326 1.123 . S
C666 C399 1.125 . S
C675 C362 1.163 . S
C677 C219 1.216 . S
C686 C398 1.147 . S
C688 C255 1.225 . S
