# Generated by pormake.
# Topology unh, (4)-cn, num edge types: 1
# Building blocks:
#     Node 0, Type 0, BuildingBlock: ESEHIV_clean_sbu_0, # of connection points: 4
#     Node 1, Type 0, BuildingBlock: ESEHIV_clean_sbu_0, # of connection points: 4
#     Node 2, Type 0, BuildingBlock: ESEHIV_clean_sbu_0, # of connection points: 4
#     Node 3, Type 0, BuildingBlock: ESEHIV_clean_sbu_0, # of connection points: 4
#     Node 4, Type 0, BuildingBlock: ESEHIV_clean_sbu_0, # of connection points: 4
#     Node 5, Type 0, BuildingBlock: ESEHIV_clean_sbu_0, # of connection points: 4
#     Edge 6, Type (0, 0), BuildingBlock: TEMPAE_clean_linker_10, # of connection points: 2
#     Edge 7, Type (0, 0), BuildingBlock: TEMPAE_clean_linker_10, # of connection points: 2
#     Edge 8, Type (0, 0), BuildingBlock: TEMPAE_clean_linker_10, # of connection points: 2
#     Edge 9, Type (0, 0), BuildingBlock: TEMPAE_clean_linker_10, # of connection points: 2
#     Edge 10, Type (0, 0), BuildingBlock: TEMPAE_clean_linker_10, # of connection points: 2
#     Edge 11, Type (0, 0), BuildingBlock: TEMPAE_clean_linker_10, # of connection points: 2
#     Edge 12, Type (0, 0), BuildingBlock: TEMPAE_clean_linker_10, # of connection points: 2
#     Edge 13, Type (0, 0), BuildingBlock: TEMPAE_clean_linker_10, # of connection points: 2
#     Edge 14, Type (0, 0), BuildingBlock: TEMPAE_clean_linker_10, # of connection points: 2
#     Edge 15, Type (0, 0), BuildingBlock: TEMPAE_clean_linker_10, # of connection points: 2
#     Edge 16, Type (0, 0), BuildingBlock: TEMPAE_clean_linker_10, # of connection points: 2
#     Edge 17, Type (0, 0), BuildingBlock: TEMPAE_clean_linker_10, # of connection points: 2
# Relax obj value: 0.010
# Max RMSD: 0.159
# Mean RMSD: 0.159
data_MOF--net-unh--node1-ESEHIV_clean_sbu_0--edge1-TEMPAE_clean_linker_10
_symmetry_space_group_name_H-M    P1
_symmetry_Int_Tables_number       1
_symmetry_cell_setting            triclinic
loop_
_symmetry_equiv_pos_as_xyz
'x, y, z'
_cell_length_a     50.343377
_cell_length_b     50.50337
_cell_length_c     21.065141
_cell_angle_alpha  89.924995
_cell_angle_beta   90.272059
_cell_angle_gamma 119.95421
loop_
_atom_site_label
_atom_site_type_symbol
_atom_site_fract_x
_atom_site_fract_y
_atom_site_fract_z
_atom_type_partial_charge
Cu0 Cu 0.18677 0.58922 0.08656 0.0
N1 N 0.1678 0.60267 0.02875 0.0
N2 N 0.13038 0.59536 0.96044 0.0
C3 C 0.14231 0.58214 0.99782 0.0
C4 C 0.14954 0.62576 0.96782 0.0
C5 C 0.17255 0.63022 1.01038 0.0
O6 O 0.15508 0.56575 0.14934 0.0
C7 C 0.2221 0.57487 1.00281 0.0
O8 O 0.22962 0.55604 0.97632 0.0
H9 H 0.13271 0.55774 1.00318 0.0
H10 H 0.19106 0.65188 0.02709 0.0
N11 N 0.22257 0.61751 0.12899 0.0
N12 N 0.26506 0.63111 0.18681 0.0
C13 C 0.23857 0.60786 0.16383 0.0
C14 C 0.23939 0.6482 0.12958 0.0
C15 C 0.26567 0.65667 0.16527 0.0
C16 C 0.15124 0.57997 0.19516 0.0
O17 O 0.17032 0.60944 0.20138 0.0
H18 H 0.2313 0.5839 0.16957 0.0
H19 H 0.23344 0.66326 0.10469 0.0
O20 O 0.19871 0.56404 0.03909 0.0
H21 H 0.14672 0.64353 0.94557 0.0
H22 H 0.28384 0.67984 0.17403 0.0
Cu23 Cu 0.61134 0.15024 0.29886 0.0
N24 N 0.61514 0.13221 0.2242 0.0
N25 N 0.60385 0.09822 0.14579 0.0
C26 C 0.59712 0.10296 0.2053 0.0
C27 C 0.62711 0.12553 0.12681 0.0
C28 C 0.63405 0.14639 0.17525 0.0
O29 O 0.5819 0.11653 0.35177 0.0
C30 C 0.58344 0.17769 0.22668 0.0
O31 O 0.57152 0.15192 0.19471 0.0
H32 H 0.57851 0.08586 0.2335 0.0
H33 H 0.65101 0.17045 0.17418 0.0
N34 N 0.64922 0.17003 0.34158 0.0
N35 N 0.69181 0.2052 0.39179 0.0
C36 C 0.66576 0.19945 0.36078 0.0
C37 C 0.66519 0.15671 0.36112 0.0
C38 C 0.69132 0.17819 0.39194 0.0
C39 C 0.56929 0.11827 0.40263 0.0
O40 O 0.57446 0.14511 0.42239 0.0
H41 H 0.65884 0.21625 0.35185 0.0
H42 H 0.65808 0.13286 0.35401 0.0
O43 O 0.59966 0.18075 0.27579 0.0
H44 H 0.63809 0.1302 0.08086 0.0
H45 H 0.70828 0.17392 0.41397 0.0
Cu46 Cu 0.48489 0.60956 0.43113 0.0
N47 N 0.50998 0.61367 0.36218 0.0
N48 N 0.53381 0.60221 0.28674 0.0
C49 C 0.51846 0.59358 0.34233 0.0
C50 C 0.53512 0.62879 0.27135 0.0
C51 C 0.52047 0.63581 0.31796 0.0
O52 O 0.48138 0.57545 0.48185 0.0
C53 C 0.42507 0.60465 0.42655 0.0
O54 O 0.42663 0.60594 0.48884 0.0
H55 H 0.51231 0.57239 0.36666 0.0
H56 H 0.51687 0.65521 0.31869 0.0
N57 N 0.50383 0.64534 0.48039 0.0
N58 N 0.51124 0.68557 0.53885 0.0
C59 C 0.49278 0.66382 0.49678 0.0
C60 C 0.53043 0.65606 0.51236 0.0
C61 C 0.53508 0.68082 0.54836 0.0
C62 C 0.47796 0.57342 0.54191 0.0
O63 O 0.4727 0.59315 0.57179 0.0
H64 H 0.47146 0.66121 0.47885 0.0
H65 H 0.54483 0.64579 0.51142 0.0
O66 O 0.44636 0.60396 0.39541 0.0
H67 H 0.54558 0.64202 0.22897 0.0
H68 H 0.55387 0.69341 0.58119 0.0
Cu69 Cu 0.89793 0.46649 0.5923 0.0
N70 N 0.92008 0.48674 0.5196 0.0
N71 N 0.95675 0.50554 0.44523 0.0
C72 C 0.94841 0.49256 0.50343 0.0
C73 C 0.93254 0.50786 0.42439 0.0
C74 C 0.91005 0.49622 0.47013 0.0
O75 O 0.92892 0.47378 0.65797 0.0
C76 C 0.85308 0.40133 0.59993 0.0
O77 O 0.85323 0.40472 0.66178 0.0
H78 H 0.96246 0.48716 0.53375 0.0
H79 H 0.88763 0.49413 0.46697 0.0
N80 N 0.87323 0.48298 0.61681 0.0
N81 N 0.83624 0.48897 0.6617 0.0
C82 C 0.84631 0.46925 0.64835 0.0
C83 C 0.88017 0.51222 0.60946 0.0
C84 C 0.85753 0.51599 0.63712 0.0
C85 C 0.93288 0.49035 0.70684 0.0
O86 O 0.91293 0.4992 0.71872 0.0
H87 H 0.83477 0.44556 0.66283 0.0
H88 H 0.90065 0.52972 0.5866 0.0
O89 O 0.87122 0.42402 0.5658 0.0
H90 H 0.93069 0.51648 0.37853 0.0
H91 H 0.85677 0.53702 0.63883 0.0
Cu92 Cu 0.43849 0.86656 0.80191 0.0
N93 N 0.43404 0.89059 0.73929 0.0
N94 N 0.44608 0.92845 0.66911 0.0
C95 C 0.45682 0.91587 0.71169 0.0
C96 C 0.41526 0.91018 0.67032 0.0
C97 C 0.40797 0.88697 0.71345 0.0
O98 O 0.46335 0.89483 0.86912 0.0
C99 C 0.46406 0.82712 0.78989 0.0
O100 O 0.46059 0.82379 0.85171 0.0
H101 H 0.4808 0.92463 0.72248 0.0
H102 H 0.38521 0.86885 0.72551 0.0
N103 N 0.40008 0.83808 0.83635 0.0
N104 N 0.3606 0.7954 0.87704 0.0
C105 C 0.38767 0.80763 0.84567 0.0
C106 C 0.38009 0.84521 0.86224 0.0
C107 C 0.35584 0.81911 0.88714 0.0
C108 C 0.49252 0.91057 0.86939 0.0
O109 O 0.50794 0.90604 0.82472 0.0
H110 H 0.39866 0.79486 0.83149 0.0
H111 H 0.38324 0.86801 0.86383 0.0
O112 O 0.45704 0.84506 0.76153 0.0
H113 H 0.39895 0.91355 0.64295 0.0
H114 H 0.33621 0.81779 0.91094 0.0
Cu115 Cu 0.58634 0.42879 0.93851 0.0
N116 N 0.56243 0.42817 0.86903 0.0
N117 N 0.53865 0.44243 0.79797 0.0
C118 C 0.55759 0.45086 0.84904 0.0
C119 C 0.53132 0.41332 0.78564 0.0
C120 C 0.54603 0.40465 0.82932 0.0
O121 O 0.5835 0.45505 1.0027 0.0
C122 C 0.63935 0.45519 0.85898 0.0
O123 O 0.62302 0.46348 0.82426 0.0
H124 H 0.56758 0.473 0.87184 0.0
H125 H 0.54487 0.38271 0.83201 0.0
N126 N 0.56851 0.38941 0.97378 0.0
N127 N 0.56117 0.34748 0.0259 0.0
C128 C 0.58205 0.37498 1.00163 0.0
C129 C 0.53822 0.37039 0.98049 0.0
C130 C 0.53362 0.34463 1.01232 0.0
C131 C 0.60079 0.4838 1.00864 0.0
O132 O 0.62465 0.49829 0.97133 0.0
H133 H 0.60665 0.38481 1.0056 0.0
H134 H 0.52067 0.3752 0.96409 0.0
O135 O 0.62832 0.44134 0.91132 0.0
H136 H 0.51675 0.3994 0.74711 0.0
H137 H 0.51159 0.32521 1.02434 0.0
C138 C 0.07921 0.55017 0.93993 0.0
C139 C 0.10237 0.57976 0.92321 0.0
C140 C 0.05199 0.53443 0.9043 0.0
C141 C 0.04743 0.54854 0.85051 0.0
C142 C 0.07063 0.57838 0.83321 0.0
C143 C 0.09776 0.59361 0.86969 0.0
C144 C 1.02788 0.50278 0.92486 0.0
C145 C 0.06667 0.59434 0.77637 0.0
C146 C 0.98605 0.49888 0.72834 0.0
C147 C 0.96151 0.50308 0.74579 0.0
C148 C 1.01409 0.51339 0.76202 0.0
C149 C 1.01777 0.53261 0.81435 0.0
C150 C 0.9929 0.53646 0.83277 0.0
C151 C 0.9652 0.52168 0.7985 0.0
C152 C 0.03993 0.50847 0.74109 0.0
C153 C 0.99566 0.55661 0.88827 0.0
H154 H 0.08203 0.53935 0.98176 0.0
H155 H 0.11549 0.61627 0.8559 0.0
H156 H 1.00656 0.50279 0.9379 0.0
H157 H 1.02209 0.48641 0.88506 0.0
H158 H 1.03544 0.49445 0.96615 0.0
H159 H 0.0871 0.61717 0.76813 0.0
H160 H 0.06232 0.58018 0.73317 0.0
H161 H 0.04643 0.59724 0.78322 0.0
H162 H 0.98358 0.48474 0.68759 0.0
H163 H 0.94649 0.52517 0.8126 0.0
H164 H 0.04727 0.49921 0.781 0.0
H165 H 0.06003 0.53064 0.7274 0.0
H166 H 1.03334 0.4925 0.70021 0.0
H167 H 1.00166 0.54846 0.93202 0.0
H168 H 0.97415 0.55709 0.89684 0.0
H169 H 1.01443 0.58032 0.87958 0.0
C170 C 0.49259 0.94766 0.94882 0.0
C171 C 0.50871 0.93603 0.91571 0.0
C172 C 0.5079 0.97342 0.98848 0.0
C173 C 0.54012 0.98769 0.99636 0.0
C174 C 0.55639 0.97543 0.96477 0.0
C175 C 0.54056 0.94997 0.92441 0.0
C176 C 0.4897 0.98598 1.02032 0.0
C177 C 0.59063 0.98955 0.97268 0.0
C178 C 0.58434 0.07193 0.04285 0.0
C179 C 0.58812 0.0705 0.10857 0.0
C180 C 0.5687 0.04522 1.006 0.0
C181 C 0.55692 1.01623 0.03525 0.0
C182 C 0.56094 1.01464 0.10154 0.0
C183 C 0.57621 0.04176 0.13745 0.0
C184 C 0.56446 0.04804 0.93578 0.0
C185 C 0.54925 0.98428 0.13446 0.0
H186 H 0.46802 0.93723 0.94215 0.0
H187 H 0.55321 0.94111 0.89929 0.0
H188 H 0.49358 0.98742 0.07238 0.0
H189 H 0.49756 1.00952 1.00309 0.0
H190 H 0.4647 0.97177 1.01093 0.0
H191 H 0.59958 0.97607 0.94857 0.0
H192 H 0.60236 1.01301 0.95276 0.0
H193 H 0.59672 0.99149 1.02382 0.0
H194 H 0.59308 0.09402 1.02038 0.0
H195 H 0.57931 0.04054 0.18808 0.0
H196 H 0.53966 0.03585 0.92374 0.0
H197 H 0.57515 0.03714 0.9082 0.0
H198 H 0.57467 0.07222 0.9204 0.0
H199 H 0.52402 0.97026 0.12866 0.0
H200 H 0.55481 0.98693 0.18598 0.0
H201 H 0.55937 0.97142 0.11236 0.0
C202 C 0.54302 0.58584 0.18264 0.0
C203 C 0.54451 0.58551 0.24913 0.0
C204 C 0.55281 0.56933 0.14521 0.0
C205 C 0.56497 0.55244 0.17483 0.0
C206 C 0.56691 0.55233 0.242 0.0
C207 C 0.55636 0.5686 0.27833 0.0
C208 C 0.54968 0.56958 0.07391 0.0
C209 C 0.58019 0.53509 0.27546 0.0
C210 C 0.56289 0.48713 0.08031 0.0
C211 C 0.59243 0.50098 0.05413 0.0
C212 C 0.55382 0.50348 0.12018 0.0
C213 C 0.57492 0.53436 0.13534 0.0
C214 C 0.60505 0.54823 0.11053 0.0
C215 C 0.61335 0.53148 0.06981 0.0
C216 C 0.52134 0.48791 0.14465 0.0
C217 C 0.6284 0.58092 0.12632 0.0
H218 H 0.53348 0.5985 0.15986 0.0
H219 H 0.5578 0.56851 0.32965 0.0
H220 H 0.57244 0.57854 0.05136 0.0
H221 H 0.53487 0.54591 0.05625 0.0
H222 H 0.53967 0.58376 0.05825 0.0
H223 H 0.58102 0.53808 0.32781 0.0
H224 H 0.56628 0.51035 0.26445 0.0
H225 H 0.60376 0.54298 0.25816 0.0
H226 H 0.54646 0.46364 0.06829 0.0
H227 H 0.63625 0.54235 0.0501 0.0
H228 H 0.50951 0.50004 0.12692 0.0
H229 H 0.52138 0.48892 0.19724 0.0
H230 H 0.50792 0.46359 0.12968 0.0
H231 H 0.62073 0.59646 0.10702 0.0
H232 H 0.65137 0.58777 0.10662 0.0
H233 H 0.63051 0.58419 0.17856 0.0
C234 C 1.00317 0.50121 0.42622 0.0
C235 C 0.98497 0.5143 0.41132 0.0
C236 C 1.0305 0.5095 0.39317 0.0
C237 C 0.03992 0.53133 0.34368 0.0
C238 C 1.02162 0.5445 0.32818 0.0
C239 C 0.99458 0.53597 0.36221 0.0
C240 C 0.04939 0.49501 0.41143 0.0
C241 C 1.03078 0.56792 0.27588 0.0
C242 C 0.12341 0.57885 0.29407 0.0
C243 C 0.12384 0.56491 0.23678 0.0
C244 C 0.09665 0.56731 0.33071 0.0
C245 C 0.06938 0.54135 0.30928 0.0
C246 C 0.06993 0.52646 0.25266 0.0
C247 C 0.09721 0.5383 0.21729 0.0
C248 C 0.0973 0.58367 0.39116 0.0
C249 C 0.04135 0.49888 0.22785 0.0
H250 H 0.99596 0.48418 0.46332 0.0
H251 H 0.98116 0.54668 0.3507 0.0
H252 H 0.05229 0.4833 0.36975 0.0
H253 H 0.07263 0.51293 0.42669 0.0
H254 H 0.03881 0.47817 0.45049 0.0
H255 H 1.01351 0.57518 0.26804 0.0
H256 H 0.05306 0.58841 0.28778 0.0
H257 H 1.03388 0.55848 0.23078 0.0
H258 H 0.14393 0.5993 0.30975 0.0
H259 H 0.09727 0.52748 0.17293 0.0
H260 H 0.08774 0.56721 0.43104 0.0
H261 H 0.08272 0.59427 0.38539 0.0
H262 H 0.12085 0.60185 0.40414 0.0
H263 H 1.03078 0.48132 0.26553 0.0
H264 H 0.04606 0.48849 0.18606 0.0
H265 H 1.02428 0.50563 0.21385 0.0
C266 C 0.5508 0.06316 0.42847 0.0
C267 C 0.55026 0.09021 0.44097 0.0
C268 C 0.53397 0.03678 0.46561 0.0
C269 C 0.51567 0.03713 0.51617 0.0
C270 C 0.51467 0.06422 0.52849 0.0
C271 C 0.53212 0.09044 0.49113 0.0
C272 C 0.53603 1.00859 0.45114 0.0
C273 C 0.49513 0.06549 0.5812 0.0
C274 C 0.45096 0.96043 0.57524 0.0
C275 C 0.46359 0.95569 0.63085 0.0
C276 C 0.46749 0.98683 0.53794 0.0
C277 C 0.49762 1.00916 0.55605 0.0
C278 C 0.51061 1.00455 0.61188 0.0
C279 C 0.49347 0.97803 0.64858 0.0
C280 C 0.45268 0.99078 0.47891 0.0
C281 C 0.5427 0.02766 0.63288 0.0
H282 H 0.56485 0.0627 0.39012 0.0
H283 H 0.53142 0.11113 0.50112 0.0
H284 H 0.54475 1.0021 0.49339 0.0
H285 H 0.51292 0.98911 0.44015 0.0
H286 H 0.55137 1.01202 0.41042 0.0
H287 H 0.49638 0.08805 0.58404 0.0
H288 H 0.47086 0.04755 0.57384 0.0
H289 H 0.50258 0.06078 0.62742 0.0
H290 H 0.42817 0.94333 0.56019 0.0
H291 H 0.50347 0.97504 0.69166 0.0
H292 H 0.46627 0.99207 0.43653 0.0
H293 H 0.45236 1.01256 0.48152 0.0
H294 H 0.42881 0.97173 0.4721 0.0
H295 H 0.55927 0.03086 0.59497 0.0
H296 H 0.54961 1.02068 0.67716 0.0
H297 H 0.54436 0.05014 0.64101 0.0
C298 C 0.49987 0.4467 0.73288 0.0
C299 C 0.52868 0.46061 0.76293 0.0
C300 C 0.4901 0.46391 0.6973 0.0
C301 C 0.50972 0.49586 0.69079 0.0
C302 C 0.53879 0.51007 0.72121 0.0
C303 C 0.54782 0.49234 0.75718 0.0
C304 C 0.45876 0.44788 0.6666 0.0
C305 C 0.56058 0.54399 0.71502 0.0
C306 C 0.49796 0.53678 0.55015 0.0
C307 C 0.48375 0.55157 0.57877 0.0
C308 C 0.50631 0.51845 0.58586 0.0
C309 C 0.49997 0.5144 0.65177 0.0
C310 C 0.48482 0.52853 0.68054 0.0
C311 C 0.47709 0.54707 0.64387 0.0
C312 C 0.52264 0.50404 0.5533 0.0
C313 C 0.47719 0.52448 0.75037 0.0
H314 H 0.48478 0.4223 0.73777 0.0
H315 H 0.57021 0.50321 0.77959 0.0
H316 H 0.44507 0.4582 0.68318 0.0
H317 H 0.46098 0.45086 0.61435 0.0
H318 H 0.44598 0.42303 0.67733 0.0
H319 H 0.58233 0.55158 0.74158 0.0
H320 H 0.56607 0.55007 0.66425 0.0
H321 H 0.54961 0.55686 0.73293 0.0
H322 H 0.50343 0.54023 0.50003 0.0
H323 H 0.46608 0.55831 0.66649 0.0
H324 H 0.50974 0.47891 0.56004 0.0
H325 H 0.54565 0.51266 0.57498 0.0
H326 H 0.52548 0.50898 0.50159 0.0
H327 H 0.46356 0.49981 0.76208 0.0
H328 H 0.46407 0.53577 0.76495 0.0
H329 H 0.49862 0.53421 0.77886 0.0
C330 C 0.31876 0.6521 0.22508 0.0
C331 C 0.28806 0.62839 0.22358 0.0
C332 C 0.34132 0.64898 0.25881 0.0
C333 C 0.33318 0.62137 0.29138 0.0
C334 C 0.30226 0.5975 0.29047 0.0
C335 C 0.28016 0.6014 0.25726 0.0
C336 C 0.37395 0.67516 0.25917 0.0
C337 C 0.2925 0.56761 0.3241 0.0
C338 C 0.39524 0.60093 0.32747 0.0
C339 C 0.40078 0.6078 0.39242 0.0
C340 C 0.37336 0.60521 0.29411 0.0
C341 C 0.35691 0.61719 0.32604 0.0
C342 C 0.36254 0.62433 0.39153 0.0
C343 C 0.38415 0.6193 0.42397 0.0
C344 C 0.36771 0.59674 0.22468 0.0
C345 C 0.34591 0.63754 0.42728 0.0
H346 H 0.32535 0.67294 0.199 0.0
H347 H 0.25655 0.5831 0.25793 0.0
H348 H 0.38209 0.68179 0.30876 0.0
H349 H 0.38915 0.66792 0.23649 0.0
H350 H 0.37639 0.69552 0.23366 0.0
H351 H 0.26762 0.55113 0.31824 0.0
H352 H 0.30557 0.55699 0.30544 0.0
H353 H 0.29774 0.57173 0.37553 0.0
H354 H 0.40797 0.59206 0.30264 0.0
H355 H 0.3885 0.62506 0.47392 0.0
H356 H 0.37234 0.61704 0.19604 0.0
H357 H 0.3433 0.57926 0.21701 0.0
H358 H 0.38228 0.58761 0.20676 0.0
H359 H 0.34973 0.65886 0.40391 0.0
H360 H 0.35354 0.64276 0.47755 0.0
H361 H 0.32087 0.62125 0.42636 0.0
C362 C 0.70841 0.25654 0.43783 0.0
C363 C 0.71511 0.2337 0.42005 0.0
C364 C 0.73072 0.28388 0.46686 0.0
C365 C 0.76054 0.28862 0.47879 0.0
C366 C 0.76751 0.2658 0.4606 0.0
C367 C 0.74487 0.23882 0.43138 0.0
C368 C 0.72231 0.30764 0.48517 0.0
C369 C 0.79896 0.26985 0.47218 0.0
C370 C 0.82708 0.36993 0.50266 0.0
C371 C 0.83015 0.37206 0.5691 0.0
C372 C 0.80452 0.34308 0.47281 0.0
C373 C 0.78451 0.31745 0.51003 0.0
C374 C 0.78768 0.3193 0.57705 0.0
C375 C 0.81033 0.34654 0.60573 0.0
C376 C 0.80194 0.34223 0.40131 0.0
C377 C 0.76705 0.29248 0.61856 0.0
H378 H 0.68556 0.2529 0.43008 0.0
H379 H 0.75068 0.22178 0.41698 0.0
H380 H 0.72504 0.31161 0.53718 0.0
H381 H 0.73802 0.3297 0.46182 0.0
H382 H 0.69836 0.3008 0.47177 0.0
H383 H 0.8007 0.24987 0.45579 0.0
H384 H 0.81651 0.29052 0.44716 0.0
H385 H 0.80457 0.27333 0.52358 0.0
H386 H 0.8421 0.38947 0.47373 0.0
H387 H 0.8124 0.34785 0.65701 0.0
H388 H 0.77868 0.33731 0.38693 0.0
H389 H 0.80513 0.32355 0.38216 0.0
H390 H 0.81912 0.36409 0.37912 0.0
H391 H 0.74277 0.2861 0.61063 0.0
H392 H 0.77252 0.29745 0.66983 0.0
H393 H 0.76923 0.27235 0.60566 0.0
C394 C 0.47758 0.81205 0.68659 0.0
C395 C 0.4735 0.80819 0.75256 0.0
C396 C 0.48465 0.7931 0.65008 0.0
C397 C 0.48762 0.76958 0.68007 0.0
C398 C 0.48402 0.76589 0.74674 0.0
C399 C 0.47708 0.78524 0.78214 0.0
C400 C 0.48844 0.79792 0.57921 0.0
C401 C 0.48695 0.74108 0.78058 0.0
C402 C 0.4752 0.70091 0.58202 0.0
C403 C 0.50537 0.70728 0.57169 0.0
C404 C 0.46914 0.72108 0.61663 0.0
C405 C 0.4938 0.74841 0.6416 0.0
C406 C 0.5243 0.75522 0.63054 0.0
C407 C 0.5297 0.7346 0.59585 0.0
C408 C 0.43626 0.71287 0.62742 0.0
C409 C 0.55126 0.7842 0.65585 0.0
H410 H 0.47492 0.82971 0.66317 0.0
H411 H 0.47392 0.78199 0.83299 0.0
H412 H 0.51111 0.80142 0.56451 0.0
H413 H 0.47071 0.77726 0.55416 0.0
H414 H 0.48651 0.81789 0.56341 0.0
H415 H 0.48423 0.74166 0.83278 0.0
H416 H 0.46929 0.71836 0.76251 0.0
H417 H 0.50967 0.74345 0.77078 0.0
H418 H 0.45621 0.67972 0.56449 0.0
H419 H 0.55307 0.73994 0.58748 0.0
H420 H 0.43246 0.7314 0.60963 0.0
H421 H 0.43131 0.71048 0.67904 0.0
H422 H 0.41971 0.69118 0.60346 0.0
H423 H 0.55031 0.80439 0.63798 0.0
H424 H 0.57358 0.78648 0.64203 0.0
H425 H 0.55022 0.78461 0.70841 0.0
C426 C 0.67889 0.47211 0.77332 0.0
C427 C 0.66927 0.46021 0.83457 0.0
C428 C 0.70631 0.47595 0.74769 0.0
C429 C 0.72497 0.46799 0.7842 0.0
C430 C 0.71562 0.45624 0.84633 0.0
C431 C 0.68785 0.45237 0.87069 0.0
C432 C 0.71523 0.48842 0.68118 0.0
C433 C 0.73497 0.44774 0.88705 0.0
C434 C 0.78207 0.45428 0.69162 0.0
C435 C 0.80887 0.4829 0.69576 0.0
C436 C 0.75481 0.44881 0.72151 0.0
C437 C 0.75437 0.47241 0.75711 0.0
C438 C 0.78166 0.50099 0.76322 0.0
C439 C 0.80844 0.50592 0.73228 0.0
C440 C 0.7262 0.4181 0.71317 0.0
C441 C 0.7824 0.52667 0.8013 0.0
H442 H 0.66477 0.47816 0.74473 0.0
H443 H 0.68067 0.44314 0.91799 0.0
H444 H 0.73764 0.50995 0.68208 0.0
H445 H 0.71795 0.47192 0.6511 0.0
H446 H 0.698 0.49308 0.65859 0.0
H447 H 0.7247 0.43915 0.93449 0.0
H448 H 0.73791 0.42984 0.86302 0.0
H449 H 0.75817 0.4679 0.89361 0.0
H450 H 0.78215 0.43646 0.66321 0.0
H451 H 0.82917 0.52791 0.73671 0.0
H452 H 0.70876 0.42093 0.68635 0.0
H453 H 0.7162 0.40827 0.76007 0.0
H454 H 0.73071 0.40161 0.68727 0.0
H455 H 0.7673 0.53414 0.77862 0.0
H456 H 0.80589 0.54673 0.80518 0.0
H457 H 0.77349 0.51865 0.8498 0.0
C458 C 0.32236 0.75746 0.95136 0.0
C459 C 0.34117 0.76405 0.89773 0.0
C460 C 0.30281 0.72719 0.97144 0.0
C461 C 0.30181 0.70259 0.93716 0.0
C462 C 0.32089 0.70904 0.88326 0.0
C463 C 0.34037 0.73959 0.86441 0.0
C464 C 0.28333 0.72156 0.02965 0.0
C465 C 0.32044 0.68359 0.84496 0.0
C466 C 0.2714 0.62415 1.01442 0.0
C467 C 0.24138 0.60806 0.99065 0.0
C468 C 0.29097 0.65514 0.99913 0.0
C469 C 0.28063 0.67015 0.9572 0.0
C470 C 0.2502 0.65382 0.93316 0.0
C471 C 0.23101 0.62299 0.9501 0.0
C472 C 0.32281 0.67168 0.02739 0.0
C473 C 0.23811 0.66872 0.88835 0.0
H474 H 0.32313 0.77607 0.97831 0.0
H475 H 0.35453 0.7443 0.82271 0.0
H476 H 0.25881 0.70602 1.01799 0.0
H477 H 0.28985 0.71017 0.0666 0.0
H478 H 0.28589 0.74303 0.04981 0.0
H479 H 0.33663 0.6923 0.80444 0.0
H480 H 0.32653 0.66955 0.87574 0.0
H481 H 0.29699 0.6683 0.82626 0.0
H482 H 0.27953 0.61244 0.04519 0.0
H483 H 0.20815 0.61022 0.93001 0.0
H484 H 0.32667 0.69271 0.0521 0.0
H485 H 0.34008 0.67883 0.98905 0.0
H486 H 0.32676 0.65728 0.06177 0.0
H487 H 0.24 0.68949 0.91058 0.0
H488 H 0.21378 0.65314 0.87493 0.0
H489 H 0.25215 0.67605 0.84455 0.0
C490 C 0.54538 0.30621 0.10542 0.0
C491 C 0.56652 0.32562 0.06 0.0
C492 C 0.54898 0.28347 0.13619 0.0
C493 C 0.57432 0.27975 0.12122 0.0
C494 C 0.59626 0.29981 0.07674 0.0
C495 C 0.59217 0.32255 0.0469 0.0
C496 C 0.52518 0.26288 0.18364 0.0
C497 C 0.62354 0.29661 0.05913 0.0
C498 C 0.59433 0.2322 0.23253 0.0
C499 C 0.58028 0.20368 0.2018 0.0
C500 C 0.59269 0.25718 0.20696 0.0
C501 C 0.57672 0.25369 0.14912 0.0
C502 C 0.56237 0.22493 0.11818 0.0
C503 C 0.56426 0.20038 0.14485 0.0
C504 C 0.60814 0.28735 0.24171 0.0
C505 C 0.54509 0.22008 0.05651 0.0
H506 H 0.52583 0.30876 0.11691 0.0
H507 H 0.60852 0.33728 1.01171 0.0
H508 H 0.51314 0.23903 0.16569 0.0
H509 H 0.53634 0.26293 0.22921 0.0
H510 H 0.50787 0.2699 0.19297 0.0
H511 H 0.63951 0.3151 0.02686 0.0
H512 H 0.6363 0.29689 0.10243 0.0
H513 H 0.61558 0.27429 0.03529 0.0
H514 H 0.60686 0.2351 0.27637 0.0
H515 H 0.55338 0.17857 0.12043 0.0
H516 H 0.59104 0.29429 0.25368 0.0
H517 H 0.62552 0.30539 0.21068 0.0
H518 H 0.61958 0.28639 0.28618 0.0
H519 H 0.52596 0.22472 0.06339 0.0
H520 H 0.53554 0.19646 0.03794 0.0
H521 H 0.5605 0.23634 1.02014 0.0
loop_
_geom_bond_atom_site_label_1
_geom_bond_atom_site_label_2
_geom_bond_distance
_geom_bond_site_symmetry_2
_ccdc_geom_bond_type
Cu0 N1 1.999 . S
Cu0 O6 1.974 . S
Cu0 N11 1.985 . S
Cu0 O20 1.959 . S
N1 Cu0 1.999 . S
N1 C3 1.263 . S
N1 C5 1.389 1_554 S
N2 C3 1.358 1_556 S
N2 C4 1.400 . S
C3 N1 1.263 . S
C3 N2 1.358 1_554 S
C3 H9 0.930 . S
C4 N2 1.400 . S
C4 C5 1.351 . S
C4 H21 0.930 . S
C5 N1 1.389 1_556 S
C5 C4 1.351 . S
C5 H10 0.930 . S
O6 Cu0 1.974 . S
O6 C16 1.282 . S
C7 O8 1.261 . S
C7 O20 1.251 . S
O8 C7 1.261 . S
H9 C3 0.930 . S
H10 C5 0.930 . S
N11 Cu0 1.985 . S
N11 C13 1.335 . S
N11 C14 1.390 . S
N12 C13 1.345 . S
N12 C15 1.336 . S
C13 N11 1.335 . S
C13 N12 1.345 . S
C13 H18 0.930 . S
C14 N11 1.390 . S
C14 C15 1.346 . S
C14 H19 0.930 . S
C15 N12 1.336 . S
C15 C14 1.346 . S
C15 H22 0.929 . S
C16 O6 1.282 . S
C16 O17 1.216 . S
O17 C16 1.216 . S
H18 C13 0.930 . S
H19 C14 0.930 . S
O20 Cu0 1.959 . S
O20 C7 1.251 . S
H21 C4 0.930 . S
H22 C15 0.929 . S
Cu23 N24 1.999 . S
Cu23 O29 1.974 . S
Cu23 N34 1.985 . S
Cu23 O43 1.959 . S
N24 Cu23 1.999 . S
N24 C26 1.263 . S
N24 C28 1.389 . S
N25 C26 1.358 . S
N25 C27 1.400 . S
C26 N24 1.263 . S
C26 N25 1.358 . S
C26 H32 0.930 . S
C27 N25 1.400 . S
C27 C28 1.351 . S
C27 H44 0.930 . S
C28 N24 1.389 . S
C28 C27 1.351 . S
C28 H33 0.930 . S
O29 Cu23 1.974 . S
O29 C39 1.282 . S
C30 O31 1.261 . S
C30 O43 1.251 . S
O31 C30 1.261 . S
H32 C26 0.930 . S
H33 C28 0.930 . S
N34 Cu23 1.985 . S
N34 C36 1.335 . S
N34 C37 1.390 . S
N35 C36 1.345 . S
N35 C38 1.336 . S
C36 N34 1.335 . S
C36 N35 1.345 . S
C36 H41 0.930 . S
C37 N34 1.390 . S
C37 C38 1.346 . S
C37 H42 0.930 . S
C38 N35 1.336 . S
C38 C37 1.346 . S
C38 H45 0.929 . S
C39 O29 1.282 . S
C39 O40 1.216 . S
O40 C39 1.216 . S
H41 C36 0.930 . S
H42 C37 0.930 . S
O43 Cu23 1.959 . S
O43 C30 1.251 . S
H44 C27 0.930 . S
H45 C38 0.929 . S
Cu46 N47 1.999 . S
Cu46 O52 1.974 . S
Cu46 N57 1.985 . S
Cu46 O66 1.959 . S
N47 Cu46 1.999 . S
N47 C49 1.263 . S
N47 C51 1.389 . S
N48 C49 1.358 . S
N48 C50 1.400 . S
C49 N47 1.263 . S
C49 N48 1.358 . S
C49 H55 0.930 . S
C50 N48 1.400 . S
C50 C51 1.351 . S
C50 H67 0.930 . S
C51 N47 1.389 . S
C51 C50 1.351 . S
C51 H56 0.930 . S
O52 Cu46 1.974 . S
O52 C62 1.282 . S
C53 O54 1.261 . S
C53 O66 1.251 . S
O54 C53 1.261 . S
H55 C49 0.930 . S
H56 C51 0.930 . S
N57 Cu46 1.985 . S
N57 C59 1.335 . S
N57 C60 1.390 . S
N58 C59 1.345 . S
N58 C61 1.336 . S
C59 N57 1.335 . S
C59 N58 1.345 . S
C59 H64 0.930 . S
C60 N57 1.390 . S
C60 C61 1.346 . S
C60 H65 0.930 . S
C61 N58 1.336 . S
C61 C60 1.346 . S
C61 H68 0.929 . S
C62 O52 1.282 . S
C62 O63 1.216 . S
O63 C62 1.216 . S
H64 C59 0.930 . S
H65 C60 0.930 . S
O66 Cu46 1.959 . S
O66 C53 1.251 . S
H67 C50 0.930 . S
H68 C61 0.929 . S
Cu69 N70 1.999 . S
Cu69 O75 1.974 . S
Cu69 N80 1.985 . S
Cu69 O89 1.959 . S
N70 Cu69 1.999 . S
N70 C72 1.263 . S
N70 C74 1.389 . S
N71 C72 1.358 . S
N71 C73 1.400 . S
C72 N70 1.263 . S
C72 N71 1.358 . S
C72 H78 0.930 . S
C73 N71 1.400 . S
C73 C74 1.351 . S
C73 H90 0.930 . S
C74 N70 1.389 . S
C74 C73 1.351 . S
C74 H79 0.930 . S
O75 Cu69 1.974 . S
O75 C85 1.282 . S
C76 O77 1.261 . S
C76 O89 1.251 . S
O77 C76 1.261 . S
H78 C72 0.930 . S
H79 C74 0.930 . S
N80 Cu69 1.985 . S
N80 C82 1.335 . S
N80 C83 1.390 . S
N81 C82 1.345 . S
N81 C84 1.336 . S
C82 N80 1.335 . S
C82 N81 1.345 . S
C82 H87 0.930 . S
C83 N80 1.390 . S
C83 C84 1.346 . S
C83 H88 0.930 . S
C84 N81 1.336 . S
C84 C83 1.346 . S
C84 H91 0.929 . S
C85 O75 1.282 . S
C85 O86 1.216 . S
O86 C85 1.216 . S
H87 C82 0.930 . S
H88 C83 0.930 . S
O89 Cu69 1.959 . S
O89 C76 1.251 . S
H90 C73 0.930 . S
H91 C84 0.929 . S
Cu92 N93 1.999 . S
Cu92 O98 1.974 . S
Cu92 N103 1.985 . S
Cu92 O112 1.959 . S
N93 Cu92 1.999 . S
N93 C95 1.263 . S
N93 C97 1.389 . S
N94 C95 1.358 . S
N94 C96 1.400 . S
C95 N93 1.263 . S
C95 N94 1.358 . S
C95 H101 0.930 . S
C96 N94 1.400 . S
C96 C97 1.351 . S
C96 H113 0.930 . S
C97 N93 1.389 . S
C97 C96 1.351 . S
C97 H102 0.930 . S
O98 Cu92 1.974 . S
O98 C108 1.282 . S
C99 O100 1.261 . S
C99 O112 1.251 . S
O100 C99 1.261 . S
H101 C95 0.930 . S
H102 C97 0.930 . S
N103 Cu92 1.985 . S
N103 C105 1.335 . S
N103 C106 1.390 . S
N104 C105 1.345 . S
N104 C107 1.336 . S
C105 N103 1.335 . S
C105 N104 1.345 . S
C105 H110 0.930 . S
C106 N103 1.390 . S
C106 C107 1.346 . S
C106 H111 0.930 . S
C107 N104 1.336 . S
C107 C106 1.346 . S
C107 H114 0.929 . S
C108 O98 1.282 . S
C108 O109 1.216 . S
O109 C108 1.216 . S
H110 C105 0.930 . S
H111 C106 0.930 . S
O112 Cu92 1.959 . S
O112 C99 1.251 . S
H113 C96 0.930 . S
H114 C107 0.929 . S
Cu115 N116 1.999 . S
Cu115 O121 1.974 . S
Cu115 N126 1.985 . S
Cu115 O135 1.959 . S
N116 Cu115 1.999 . S
N116 C118 1.263 . S
N116 C120 1.389 . S
N117 C118 1.358 . S
N117 C119 1.400 . S
C118 N116 1.263 . S
C118 N117 1.358 . S
C118 H124 0.930 . S
C119 N117 1.400 . S
C119 C120 1.351 . S
C119 H136 0.930 . S
C120 N116 1.389 . S
C120 C119 1.351 . S
C120 H125 0.930 . S
O121 Cu115 1.974 . S
O121 C131 1.282 . S
C122 O123 1.261 . S
C122 O135 1.251 . S
O123 C122 1.261 . S
H124 C118 0.930 . S
H125 C120 0.930 . S
N126 Cu115 1.985 . S
N126 C128 1.335 . S
N126 C129 1.390 1_556 S
N127 C128 1.345 1_554 S
N127 C130 1.336 . S
C128 N126 1.335 . S
C128 N127 1.345 1_556 S
C128 H133 0.930 . S
C129 N126 1.390 1_554 S
C129 C130 1.346 . S
C129 H134 0.930 . S
C130 N127 1.336 . S
C130 C129 1.346 . S
C130 H137 0.929 . S
C131 O121 1.282 . S
C131 O132 1.216 1_556 S
O132 C131 1.216 1_554 S
H133 C128 0.930 . S
H134 C129 0.930 . S
O135 Cu115 1.959 . S
O135 C122 1.251 . S
H136 C119 0.930 . S
H137 C130 0.929 . S
C138 C139 1.391 . S
C138 C140 1.394 . S
C138 H154 0.931 . S
C139 C138 1.391 . S
C139 C143 1.376 . S
C140 C138 1.394 . S
C140 C141 1.369 1_455 S
C140 C144 1.531 . S
C141 C140 1.369 1_655 S
C141 C142 1.410 . S
C141 C149 1.503 . S
C142 C141 1.410 . S
C142 C143 1.392 1_655 S
C142 C145 1.511 . S
C143 C139 1.376 . S
C143 C142 1.392 1_455 S
C143 H155 0.929 . S
C144 C140 1.531 . S
C144 H156 0.960 . S
C144 H157 0.962 . S
C144 H158 0.960 . S
C145 C142 1.511 . S
C145 H159 0.961 . S
C145 H160 0.961 . S
C145 H161 0.961 . S
C146 C147 1.370 . S
C146 C148 1.363 . S
C146 H162 0.931 . S
C147 C146 1.370 . S
C147 C151 1.408 . S
C148 C146 1.363 . S
C148 C149 1.370 . S
C148 C152 1.524 1_655 S
C149 C141 1.503 . S
C149 C148 1.370 . S
C149 C150 1.403 . S
C150 C149 1.403 . S
C150 C151 1.404 . S
C150 C153 1.539 . S
C151 C147 1.408 . S
C151 C150 1.404 . S
C151 H163 0.930 . S
C152 C148 1.524 1_455 S
C152 H164 0.956 . S
C152 H165 0.961 . S
C152 H166 0.961 . S
C153 C150 1.539 . S
C153 H167 0.958 . S
C153 H168 0.961 . S
C153 H169 0.960 . S
H154 C138 0.931 . S
H155 C143 0.929 . S
H156 C144 0.960 . S
H157 C144 0.962 . S
H158 C144 0.960 . S
H159 C145 0.961 . S
H160 C145 0.961 . S
H161 C145 0.961 . S
H162 C146 0.931 . S
H163 C151 0.930 . S
H164 C152 0.956 . S
H165 C152 0.961 . S
H166 C152 0.961 . S
H167 C153 0.958 . S
H168 C153 0.961 . S
H169 C153 0.960 . S
C170 C171 1.391 . S
C170 C172 1.394 . S
C170 H186 0.931 . S
C171 C170 1.391 . S
C171 C175 1.376 . S
C172 C170 1.394 . S
C172 C173 1.369 . S
C172 C176 1.531 . S
C173 C172 1.369 . S
C173 C174 1.410 . S
C173 C181 1.503 1_556 S
C174 C173 1.410 . S
C174 C175 1.392 . S
C174 C177 1.511 . S
C175 C171 1.376 . S
C175 C174 1.392 . S
C175 H187 0.929 . S
C176 C172 1.531 . S
C176 H188 0.960 . S
C176 H189 0.966 . S
C176 H190 0.960 . S
C177 C174 1.511 . S
C177 H191 0.961 . S
C177 H192 0.961 1_556 S
C177 H193 0.961 1_556 S
C178 C179 1.370 . S
C178 C180 1.363 1_554 S
C178 H194 0.931 . S
C179 C178 1.370 . S
C179 C183 1.408 . S
C180 C178 1.363 1_556 S
C180 C181 1.370 1_546 S
C180 C184 1.524 . S
C181 C173 1.503 1_554 S
C181 C180 1.370 1_564 S
C181 C182 1.403 . S
C182 C181 1.403 . S
C182 C183 1.404 1_565 S
C182 C185 1.539 . S
C183 C179 1.408 . S
C183 C182 1.404 1_545 S
C183 H195 0.930 . S
C184 C180 1.524 . S
C184 H196 0.956 . S
C184 H197 0.961 . S
C184 H198 0.961 . S
C185 C182 1.539 . S
C185 H199 0.958 . S
C185 H200 0.961 . S
C185 H201 0.960 . S
H186 C170 0.931 . S
H187 C175 0.929 . S
H188 C176 0.960 . S
H189 C176 0.966 . S
H190 C176 0.960 . S
H191 C177 0.961 . S
H192 C177 0.961 1_554 S
H193 C177 0.961 1_554 S
H194 C178 0.931 . S
H195 C183 0.930 . S
H196 C184 0.956 . S
H197 C184 0.961 . S
H198 C184 0.961 . S
H199 C185 0.958 . S
H200 C185 0.961 . S
H201 C185 0.960 . S
C202 C203 1.391 . S
C202 C204 1.394 . S
C202 H218 0.931 . S
C203 C202 1.391 . S
C203 C207 1.376 . S
C204 C202 1.394 . S
C204 C205 1.369 . S
C204 C208 1.531 . S
C205 C204 1.369 . S
C205 C206 1.410 . S
C205 C213 1.503 . S
C206 C205 1.410 . S
C206 C207 1.392 . S
C206 C209 1.511 . S
C207 C203 1.376 . S
C207 C206 1.392 . S
C207 H219 0.929 . S
C208 C204 1.531 . S
C208 H220 0.960 . S
C208 H221 0.962 . S
C208 H222 0.960 . S
C209 C206 1.511 . S
C209 H223 0.961 . S
C209 H224 0.961 . S
C209 H225 0.961 . S
C210 C211 1.370 . S
C210 C212 1.363 . S
C210 H226 0.931 . S
C211 C210 1.370 . S
C211 C215 1.408 . S
C212 C210 1.363 . S
C212 C213 1.370 . S
C212 C216 1.524 . S
C213 C205 1.503 . S
C213 C212 1.370 . S
C213 C214 1.403 . S
C214 C213 1.403 . S
C214 C215 1.404 . S
C214 C217 1.539 . S
C215 C211 1.408 . S
C215 C214 1.404 . S
C215 H227 0.930 . S
C216 C212 1.524 . S
C216 H228 0.956 . S
C216 H229 0.961 . S
C216 H230 0.961 . S
C217 C214 1.539 . S
C217 H231 0.958 . S
C217 H232 0.961 . S
C217 H233 0.960 . S
H218 C202 0.931 . S
H219 C207 0.929 . S
H220 C208 0.960 . S
H221 C208 0.962 . S
H222 C208 0.960 . S
H223 C209 0.961 . S
H224 C209 0.961 . S
H225 C209 0.961 . S
H226 C210 0.931 . S
H227 C215 0.930 . S
H228 C216 0.956 . S
H229 C216 0.961 . S
H230 C216 0.961 . S
H231 C217 0.958 . S
H232 C217 0.961 . S
H233 C217 0.960 . S
C234 C235 1.391 . S
C234 C236 1.394 1_655 S
C234 H250 0.931 . S
C235 C234 1.391 . S
C235 C239 1.376 . S
C236 C234 1.394 1_455 S
C236 C237 1.369 1_455 S
C236 C240 1.531 . S
C237 C236 1.369 1_655 S
C237 C238 1.410 . S
C237 C245 1.503 1_655 S
C238 C237 1.410 . S
C238 C239 1.392 . S
C238 C241 1.511 . S
C239 C235 1.376 . S
C239 C238 1.392 . S
C239 H251 0.929 . S
C240 C236 1.531 . S
C240 H252 0.960 . S
C240 H253 0.962 . S
C240 H254 0.960 . S
C241 C238 1.511 . S
C241 H255 0.961 . S
C241 H256 0.961 . S
C241 H257 0.961 . S
C242 C243 1.370 . S
C242 C244 1.363 . S
C242 H258 0.931 . S
C243 C242 1.370 . S
C243 C247 1.408 . S
C244 C242 1.363 . S
C244 C245 1.370 . S
C244 C248 1.524 . S
C245 C237 1.503 1_455 S
C245 C244 1.370 . S
C245 C246 1.403 . S
C246 C245 1.403 . S
C246 C247 1.404 . S
C246 C249 1.539 . S
C247 C243 1.408 . S
C247 C246 1.404 . S
C247 H259 0.930 . S
C248 C244 1.524 . S
C248 H260 0.956 . S
C248 H261 0.961 . S
C248 H262 0.961 . S
C249 C246 1.539 . S
C249 H263 0.958 . S
C249 H264 0.961 . S
C249 H265 0.960 1_455 S
H250 C234 0.931 . S
H251 C239 0.929 . S
H252 C240 0.960 . S
H253 C240 0.962 . S
H254 C240 0.960 . S
H255 C241 0.961 . S
H256 C241 0.961 . S
H257 C241 0.961 . S
H258 C242 0.931 . S
H259 C247 0.930 . S
H260 C248 0.956 . S
H261 C248 0.961 . S
H262 C248 0.961 . S
H263 C249 0.958 . S
H264 C249 0.961 . S
H265 C249 0.960 1_655 S
C266 C267 1.391 . S
C266 C268 1.394 . S
C266 H282 0.931 . S
C267 C266 1.391 . S
C267 C271 1.376 . S
C268 C266 1.394 . S
C268 C269 1.369 . S
C268 C272 1.531 . S
C269 C268 1.369 . S
C269 C270 1.410 . S
C269 C277 1.503 . S
C270 C269 1.410 . S
C270 C271 1.392 . S
C270 C273 1.511 . S
C271 C267 1.376 . S
C271 C270 1.392 . S
C271 H283 0.929 . S
C272 C268 1.531 . S
C272 H284 0.960 . S
C272 H285 0.962 . S
C272 H286 0.960 . S
C273 C270 1.511 . S
C273 H287 0.961 . S
C273 H288 0.961 . S
C273 H289 0.961 . S
C274 C275 1.370 . S
C274 C276 1.363 . S
C274 H290 0.931 . S
C275 C274 1.370 . S
C275 C279 1.408 . S
C276 C274 1.363 . S
C276 C277 1.370 1_565 S
C276 C280 1.524 . S
C277 C269 1.503 . S
C277 C276 1.370 1_545 S
C277 C278 1.403 . S
C278 C277 1.403 . S
C278 C279 1.404 1_545 S
C278 C281 1.539 . S
C279 C275 1.408 . S
C279 C278 1.404 1_565 S
C279 H291 0.930 . S
C280 C276 1.524 . S
C280 H292 0.956 . S
C280 H293 0.961 . S
C280 H294 0.961 . S
C281 C278 1.539 . S
C281 H295 0.958 . S
C281 H296 0.961 . S
C281 H297 0.960 . S
H282 C266 0.931 . S
H283 C271 0.929 . S
H284 C272 0.960 . S
H285 C272 0.962 . S
H286 C272 0.960 . S
H287 C273 0.961 . S
H288 C273 0.961 . S
H289 C273 0.961 . S
H290 C274 0.931 . S
H291 C279 0.930 . S
H292 C280 0.956 . S
H293 C280 0.961 . S
H294 C280 0.961 . S
H295 C281 0.958 . S
H296 C281 0.961 . S
H297 C281 0.960 . S
C298 C299 1.391 . S
C298 C300 1.394 . S
C298 H314 0.931 . S
C299 C298 1.391 . S
C299 C303 1.376 . S
C300 C298 1.394 . S
C300 C301 1.369 . S
C300 C304 1.531 . S
C301 C300 1.369 . S
C301 C302 1.410 . S
C301 C309 1.503 . S
C302 C301 1.410 . S
C302 C303 1.392 . S
C302 C305 1.511 . S
C303 C299 1.376 . S
C303 C302 1.392 . S
C303 H315 0.929 . S
C304 C300 1.531 . S
C304 H316 0.960 . S
C304 H317 0.962 . S
C304 H318 0.960 . S
C305 C302 1.511 . S
C305 H319 0.961 . S
C305 H320 0.961 . S
C305 H321 0.961 . S
C306 C307 1.370 . S
C306 C308 1.363 . S
C306 H322 0.931 . S
C307 C306 1.370 . S
C307 C311 1.408 . S
C308 C306 1.363 . S
C308 C309 1.370 . S
C308 C312 1.524 . S
C309 C301 1.503 . S
C309 C308 1.370 . S
C309 C310 1.403 . S
C310 C309 1.403 . S
C310 C311 1.404 . S
C310 C313 1.539 . S
C311 C307 1.408 . S
C311 C310 1.404 . S
C311 H323 0.930 . S
C312 C308 1.524 . S
C312 H324 0.956 . S
C312 H325 0.961 . S
C312 H326 0.961 . S
C313 C310 1.539 . S
C313 H327 0.958 . S
C313 H328 0.961 . S
C313 H329 0.960 . S
H314 C298 0.931 . S
H315 C303 0.929 . S
H316 C304 0.960 . S
H317 C304 0.962 . S
H318 C304 0.960 . S
H319 C305 0.961 . S
H320 C305 0.961 . S
H321 C305 0.961 . S
H322 C306 0.931 . S
H323 C311 0.930 . S
H324 C312 0.956 . S
H325 C312 0.961 . S
H326 C312 0.961 . S
H327 C313 0.958 . S
H328 C313 0.961 . S
H329 C313 0.960 . S
C330 C331 1.391 . S
C330 C332 1.394 . S
C330 H346 0.931 . S
C331 C330 1.391 . S
C331 C335 1.376 . S
C332 C330 1.394 . S
C332 C333 1.369 . S
C332 C336 1.531 . S
C333 C332 1.369 . S
C333 C334 1.410 . S
C333 C341 1.503 . S
C334 C333 1.410 . S
C334 C335 1.392 . S
C334 C337 1.511 . S
C335 C331 1.376 . S
C335 C334 1.392 . S
C335 H347 0.929 . S
C336 C332 1.531 . S
C336 H348 0.960 . S
C336 H349 0.962 . S
C336 H350 0.960 . S
C337 C334 1.511 . S
C337 H351 0.961 . S
C337 H352 0.961 . S
C337 H353 0.961 . S
C338 C339 1.370 . S
C338 C340 1.363 . S
C338 H354 0.931 . S
C339 C338 1.370 . S
C339 C343 1.408 . S
C340 C338 1.363 . S
C340 C341 1.370 . S
C340 C344 1.524 . S
C341 C333 1.503 . S
C341 C340 1.370 . S
C341 C342 1.403 . S
C342 C341 1.403 . S
C342 C343 1.404 . S
C342 C345 1.539 . S
C343 C339 1.408 . S
C343 C342 1.404 . S
C343 H355 0.930 . S
C344 C340 1.524 . S
C344 H356 0.956 . S
C344 H357 0.961 . S
C344 H358 0.961 . S
C345 C342 1.539 . S
C345 H359 0.958 . S
C345 H360 0.961 . S
C345 H361 0.960 . S
H346 C330 0.931 . S
H347 C335 0.929 . S
H348 C336 0.960 . S
H349 C336 0.962 . S
H350 C336 0.960 . S
H351 C337 0.961 . S
H352 C337 0.961 . S
H353 C337 0.961 . S
H354 C338 0.931 . S
H355 C343 0.930 . S
H356 C344 0.956 . S
H357 C344 0.961 . S
H358 C344 0.961 . S
H359 C345 0.958 . S
H360 C345 0.961 . S
H361 C345 0.960 . S
C362 C363 1.391 . S
C362 C364 1.394 . S
C362 H378 0.931 . S
C363 C362 1.391 . S
C363 C367 1.376 . S
C364 C362 1.394 . S
C364 C365 1.369 . S
C364 C368 1.531 . S
C365 C364 1.369 . S
C365 C366 1.410 . S
C365 C373 1.503 . S
C366 C365 1.410 . S
C366 C367 1.392 . S
C366 C369 1.511 . S
C367 C363 1.376 . S
C367 C366 1.392 . S
C367 H379 0.929 . S
C368 C364 1.531 . S
C368 H380 0.960 . S
C368 H381 0.962 . S
C368 H382 0.960 . S
C369 C366 1.511 . S
C369 H383 0.961 . S
C369 H384 0.961 . S
C369 H385 0.961 . S
C370 C371 1.370 . S
C370 C372 1.363 . S
C370 H386 0.931 . S
C371 C370 1.370 . S
C371 C375 1.408 . S
C372 C370 1.363 . S
C372 C373 1.370 . S
C372 C376 1.524 . S
C373 C365 1.503 . S
C373 C372 1.370 . S
C373 C374 1.403 . S
C374 C373 1.403 . S
C374 C375 1.404 . S
C374 C377 1.539 . S
C375 C371 1.408 . S
C375 C374 1.404 . S
C375 H387 0.930 . S
C376 C372 1.524 . S
C376 H388 0.956 . S
C376 H389 0.961 . S
C376 H390 0.961 . S
C377 C374 1.539 . S
C377 H391 0.958 . S
C377 H392 0.961 . S
C377 H393 0.960 . S
H378 C362 0.931 . S
H379 C367 0.929 . S
H380 C368 0.960 . S
H381 C368 0.962 . S
H382 C368 0.960 . S
H383 C369 0.961 . S
H384 C369 0.961 . S
H385 C369 0.961 . S
H386 C370 0.931 . S
H387 C375 0.930 . S
H388 C376 0.956 . S
H389 C376 0.961 . S
H390 C376 0.961 . S
H391 C377 0.958 . S
H392 C377 0.961 . S
H393 C377 0.960 . S
C394 C395 1.391 . S
C394 C396 1.394 . S
C394 H410 0.931 . S
C395 C394 1.391 . S
C395 C399 1.376 . S
C396 C394 1.394 . S
C396 C397 1.369 . S
C396 C400 1.531 . S
C397 C396 1.369 . S
C397 C398 1.410 . S
C397 C405 1.503 . S
C398 C397 1.410 . S
C398 C399 1.392 . S
C398 C401 1.511 . S
C399 C395 1.376 . S
C399 C398 1.392 . S
C399 H411 0.929 . S
C400 C396 1.531 . S
C400 H412 0.960 . S
C400 H413 0.962 . S
C400 H414 0.960 . S
C401 C398 1.511 . S
C401 H415 0.961 . S
C401 H416 0.961 . S
C401 H417 0.961 . S
C402 C403 1.370 . S
C402 C404 1.363 . S
C402 H418 0.931 . S
C403 C402 1.370 . S
C403 C407 1.408 . S
C404 C402 1.363 . S
C404 C405 1.370 . S
C404 C408 1.524 . S
C405 C397 1.503 . S
C405 C404 1.370 . S
C405 C406 1.403 . S
C406 C405 1.403 . S
C406 C407 1.404 . S
C406 C409 1.539 . S
C407 C403 1.408 . S
C407 C406 1.404 . S
C407 H419 0.930 . S
C408 C404 1.524 . S
C408 H420 0.956 . S
C408 H421 0.961 . S
C408 H422 0.961 . S
C409 C406 1.539 . S
C409 H423 0.958 . S
C409 H424 0.961 . S
C409 H425 0.960 . S
H410 C394 0.931 . S
H411 C399 0.929 . S
H412 C400 0.960 . S
H413 C400 0.962 . S
H414 C400 0.960 . S
H415 C401 0.961 . S
H416 C401 0.961 . S
H417 C401 0.961 . S
H418 C402 0.931 . S
H419 C407 0.930 . S
H420 C408 0.956 . S
H421 C408 0.961 . S
H422 C408 0.961 . S
H423 C409 0.958 . S
H424 C409 0.961 . S
H425 C409 0.960 . S
C426 C427 1.391 . S
C426 C428 1.394 . S
C426 H442 0.931 . S
C427 C426 1.391 . S
C427 C431 1.376 . S
C428 C426 1.394 . S
C428 C429 1.369 . S
C428 C432 1.531 . S
C429 C428 1.369 . S
C429 C430 1.410 . S
C429 C437 1.503 . S
C430 C429 1.410 . S
C430 C431 1.392 . S
C430 C433 1.511 . S
C431 C427 1.376 . S
C431 C430 1.392 . S
C431 H443 0.929 . S
C432 C428 1.531 . S
C432 H444 0.960 . S
C432 H445 0.962 . S
C432 H446 0.960 . S
C433 C430 1.511 . S
C433 H447 0.961 . S
C433 H448 0.961 . S
C433 H449 0.961 . S
C434 C435 1.370 . S
C434 C436 1.363 . S
C434 H450 0.931 . S
C435 C434 1.370 . S
C435 C439 1.408 . S
C436 C434 1.363 . S
C436 C437 1.370 . S
C436 C440 1.524 . S
C437 C429 1.503 . S
C437 C436 1.370 . S
C437 C438 1.403 . S
C438 C437 1.403 . S
C438 C439 1.404 . S
C438 C441 1.539 . S
C439 C435 1.408 . S
C439 C438 1.404 . S
C439 H451 0.930 . S
C440 C436 1.524 . S
C440 H452 0.956 . S
C440 H453 0.961 . S
C440 H454 0.961 . S
C441 C438 1.539 . S
C441 H455 0.958 . S
C441 H456 0.961 . S
C441 H457 0.960 . S
H442 C426 0.931 . S
H443 C431 0.929 . S
H444 C432 0.960 . S
H445 C432 0.962 . S
H446 C432 0.960 . S
H447 C433 0.961 . S
H448 C433 0.961 . S
H449 C433 0.961 . S
H450 C434 0.931 . S
H451 C439 0.930 . S
H452 C440 0.956 . S
H453 C440 0.961 . S
H454 C440 0.961 . S
H455 C441 0.958 . S
H456 C441 0.961 . S
H457 C441 0.960 . S
C458 C459 1.391 . S
C458 C460 1.394 . S
C458 H474 0.931 . S
C459 C458 1.391 . S
C459 C463 1.376 . S
C460 C458 1.394 . S
C460 C461 1.369 . S
C460 C464 1.531 . S
C461 C460 1.369 . S
C461 C462 1.410 . S
C461 C469 1.503 . S
C462 C461 1.410 . S
C462 C463 1.392 . S
C462 C465 1.511 . S
C463 C459 1.376 . S
C463 C462 1.392 . S
C463 H475 0.929 . S
C464 C460 1.531 . S
C464 H476 0.960 . S
C464 H477 0.962 . S
C464 H478 0.960 . S
C465 C462 1.511 . S
C465 H479 0.961 . S
C465 H480 0.961 . S
C465 H481 0.961 . S
C466 C467 1.370 1_554 S
C466 C468 1.363 1_554 S
C466 H482 0.931 . S
C467 C466 1.370 1_556 S
C467 C471 1.408 . S
C468 C466 1.363 1_556 S
C468 C469 1.370 . S
C468 C472 1.524 1_556 S
C469 C461 1.503 . S
C469 C468 1.370 . S
C469 C470 1.403 . S
C470 C469 1.403 . S
C470 C471 1.404 . S
C470 C473 1.539 . S
C471 C467 1.408 . S
C471 C470 1.404 . S
C471 H483 0.930 . S
C472 C468 1.524 1_554 S
C472 H484 0.956 . S
C472 H485 0.961 . S
C472 H486 0.961 . S
C473 C470 1.539 . S
C473 H487 0.958 . S
C473 H488 0.961 . S
C473 H489 0.960 . S
H474 C458 0.931 . S
H475 C463 0.929 . S
H476 C464 0.960 . S
H477 C464 0.962 . S
H478 C464 0.960 . S
H479 C465 0.961 . S
H480 C465 0.961 . S
H481 C465 0.961 . S
H482 C466 0.931 . S
H483 C471 0.930 . S
H484 C472 0.956 . S
H485 C472 0.961 . S
H486 C472 0.961 . S
H487 C473 0.958 . S
H488 C473 0.961 . S
H489 C473 0.960 . S
C490 C491 1.391 . S
C490 C492 1.394 . S
C490 H506 0.931 . S
C491 C490 1.391 . S
C491 C495 1.376 . S
C492 C490 1.394 . S
C492 C493 1.369 . S
C492 C496 1.531 . S
C493 C492 1.369 . S
C493 C494 1.410 . S
C493 C501 1.503 . S
C494 C493 1.410 . S
C494 C495 1.392 . S
C494 C497 1.511 . S
C495 C491 1.376 . S
C495 C494 1.392 . S
C495 H507 0.929 1_554 S
C496 C492 1.531 . S
C496 H508 0.960 . S
C496 H509 0.962 . S
C496 H510 0.960 . S
C497 C494 1.511 . S
C497 H511 0.961 . S
C497 H512 0.961 . S
C497 H513 0.961 1_554 S
C498 C499 1.370 . S
C498 C500 1.363 . S
C498 H514 0.931 . S
C499 C498 1.370 . S
C499 C503 1.408 . S
C500 C498 1.363 . S
C500 C501 1.370 . S
C500 C504 1.524 . S
C501 C493 1.503 . S
C501 C500 1.370 . S
C501 C502 1.403 . S
C502 C501 1.403 . S
C502 C503 1.404 . S
C502 C505 1.539 . S
C503 C499 1.408 . S
C503 C502 1.404 . S
C503 H515 0.930 . S
C504 C500 1.524 . S
C504 H516 0.956 . S
C504 H517 0.961 . S
C504 H518 0.961 . S
C505 C502 1.539 . S
C505 H519 0.958 . S
C505 H520 0.961 1_554 S
C505 H521 0.960 1_554 S
H506 C490 0.931 . S
H507 C495 0.929 1_556 S
H508 C496 0.960 . S
H509 C496 0.962 . S
H510 C496 0.960 . S
H511 C497 0.961 . S
H512 C497 0.961 . S
H513 C497 0.961 1_556 S
H514 C498 0.931 . S
H515 C503 0.930 . S
H516 C504 0.956 . S
H517 C504 0.961 . S
H518 C504 0.961 . S
H519 C505 0.958 . S
H520 C505 0.961 1_556 S
H521 C505 0.960 1_556 S
C139 N2 1.638 . S
C147 C85 1.690 . S
C171 C108 1.686 . S
C179 N25 1.652 . S
C203 N48 1.610 . S
C211 C131 1.691 1_554 S
C235 N71 1.644 . S
C243 C16 1.709 . S
C267 C39 1.683 . S
C275 N94 1.650 . S
C299 N117 1.650 . S
C307 C62 1.691 . S
C331 N12 1.590 . S
C339 C53 1.609 . S
C363 N35 1.582 . S
C371 C76 1.609 . S
C395 C99 1.604 . S
C403 N58 1.601 . S
C427 C122 1.595 . S
C435 N81 1.599 . S
C459 N104 1.614 . S
C467 C7 1.620 1_556 S
C491 N127 1.600 . S
C499 C30 1.617 . S
