# Generated by pormake.
# Topology rob, (6)-cn, num edge types: 1
# Building blocks:
#     Node 0, Type 0, BuildingBlock: BETDIP_clean_sbu_0, # of connection points: 6
#     Node 1, Type 0, BuildingBlock: BETDIP_clean_sbu_0, # of connection points: 6
#     Node 2, Type 0, BuildingBlock: BETDIP_clean_sbu_0, # of connection points: 6
#     Node 3, Type 0, BuildingBlock: BETDIP_clean_sbu_0, # of connection points: 6
#     Edge 4, Type (0, 0), BuildingBlock: CIFDUS_clean_linker_0, # of connection points: 2
#     Edge 5, Type (0, 0), BuildingBlock: CIFDUS_clean_linker_0, # of connection points: 2
#     Edge 6, Type (0, 0), BuildingBlock: CIFDUS_clean_linker_0, # of connection points: 2
#     Edge 7, Type (0, 0), BuildingBlock: CIFDUS_clean_linker_0, # of connection points: 2
#     Edge 8, Type (0, 0), BuildingBlock: CIFDUS_clean_linker_0, # of connection points: 2
#     Edge 9, Type (0, 0), BuildingBlock: CIFDUS_clean_linker_0, # of connection points: 2
#     Edge 10, Type (0, 0), BuildingBlock: CIFDUS_clean_linker_0, # of connection points: 2
#     Edge 11, Type (0, 0), BuildingBlock: CIFDUS_clean_linker_0, # of connection points: 2
#     Edge 12, Type (0, 0), BuildingBlock: CIFDUS_clean_linker_0, # of connection points: 2
#     Edge 13, Type (0, 0), BuildingBlock: CIFDUS_clean_linker_0, # of connection points: 2
#     Edge 14, Type (0, 0), BuildingBlock: CIFDUS_clean_linker_0, # of connection points: 2
#     Edge 15, Type (0, 0), BuildingBlock: CIFDUS_clean_linker_0, # of connection points: 2
# Relax obj value: 0.038
# Max RMSD: 0.146
# Mean RMSD: 0.146
data_MOF--net-rob--node1-BETDIP_clean_sbu_0--edge1-CIFDUS_clean_linker_0
_symmetry_space_group_name_H-M    P1
_symmetry_Int_Tables_number       1
_symmetry_cell_setting            triclinic
loop_
_symmetry_equiv_pos_as_xyz
'x, y, z'
_cell_length_a     13.676793
_cell_length_b     20.207059
_cell_length_c     32.865872
_cell_angle_alpha  97.293462
_cell_angle_beta   89.549502
_cell_angle_gamma 89.420547
loop_
_atom_site_label
_atom_site_type_symbol
_atom_site_fract_x
_atom_site_fract_y
_atom_site_fract_z
_atom_type_partial_charge
Tb0 Tb 0.18119 0.30795 0.05664 0.0
Tb1 Tb 0.37536 0.24847 1.02424 0.0
C2 C 0.02749 0.33069 0.09946 0.0
C3 C 1.00015 0.32426 0.14257 0.0
C4 C 0.90159 0.31814 0.15334 0.0
C5 C 0.87439 0.31211 0.19394 0.0
C6 C 0.94533 0.3113 0.22485 0.0
C7 C 0.0443 0.31756 0.2138 0.0
C8 C 0.07121 0.32447 0.17328 0.0
C9 C 0.32136 0.39379 0.04736 0.0
C10 C 0.33893 0.25158 0.11642 0.0
C11 C 0.53309 0.23374 0.98397 0.0
C12 C 0.55954 0.23995 0.94089 0.0
C13 C 0.51308 0.28733 0.91953 0.0
C14 C 0.53644 0.29132 0.87838 0.0
C15 C 0.60807 0.24886 0.8579 0.0
C16 C 0.65518 0.2019 0.87946 0.0
C17 C 0.63071 0.19728 0.92048 0.0
C18 C 0.24058 0.161 0.03531 0.0
C19 C 0.21076 0.29558 0.96285 0.0
O20 O 0.04417 0.27502 0.07528 0.0
O21 O 0.09227 0.37604 0.09416 0.0
O22 O 0.33022 0.33811 0.06024 0.0
O23 O 0.2296 0.40514 0.04088 0.0
O24 O 0.24653 0.26338 0.1077 0.0
O25 O 0.40971 0.25212 0.08883 0.0
O26 O 0.50744 0.28904 1.00692 0.0
O27 O 0.47569 0.18421 0.98961 0.0
O28 O 0.22711 0.21635 1.02205 0.0
O29 O 0.33361 0.15076 0.03986 0.0
O30 O 0.30316 0.2816 0.97073 0.0
O31 O 0.1429 0.30315 0.99212 0.0
H32 H 0.84533 0.3184 0.13033 0.0
H33 H 0.79732 0.30886 0.20108 0.0
H34 H 0.10147 0.31633 0.2363 0.0
H35 H 0.14772 0.33008 0.16606 0.0
H36 H 0.45863 0.32142 0.93458 0.0
H37 H 0.49971 0.32852 0.8628 0.0
H38 H 0.71032 0.16823 0.86446 0.0
H39 H 0.66738 0.16032 0.93629 0.0
Tb40 Tb 0.64357 0.83682 0.05536 0.0
Tb41 Tb 0.83504 0.77806 1.02106 0.0
C42 C 0.48609 0.85333 0.09577 0.0
C43 C 0.45784 0.84913 0.13892 0.0
C44 C 0.49566 0.79871 0.16033 0.0
C45 C 0.47004 0.7965 0.20149 0.0
C46 C 0.40517 0.84418 0.22195 0.0
C47 C 0.36695 0.89432 0.20035 0.0
C48 C 0.39337 0.89689 0.15932 0.0
C49 C 0.77803 0.9246 0.04451 0.0
C50 C 0.81094 0.78813 0.11479 0.0
C51 C 0.98986 0.7565 0.97925 0.0
C52 C 0.01502 0.75612 0.93543 0.0
C53 C 0.94465 0.74189 0.9047 0.0
C54 C 0.9701 0.74121 0.86325 0.0
C55 C 0.06647 0.75484 0.85166 0.0
C56 C 0.13606 0.77029 0.88275 0.0
C57 C 0.11056 0.77081 0.92412 0.0
C58 C 0.69469 0.69202 1.03012 0.0
C59 C 0.67668 0.83446 0.962 0.0
O60 O 0.51134 0.79729 0.07347 0.0
O61 O 0.54431 0.90219 0.08972 0.0
O62 O 0.79205 0.86888 0.05719 0.0
O63 O 0.68503 0.93483 0.04025 0.0
O64 O 0.71698 0.8005 0.10838 0.0
O65 O 0.87637 0.78477 0.08478 0.0
O66 O 0.96634 0.81462 0.99933 0.0
O67 O 0.93167 0.70935 0.98824 0.0
O68 O 0.68586 0.74811 1.01783 0.0
O69 O 0.78658 0.68033 0.03603 0.0
O70 O 0.76881 0.82008 0.96954 0.0
O71 O 0.60749 0.83551 0.99057 0.0
H72 H 0.54473 0.7608 0.14522 0.0
H73 H 0.49932 0.75662 0.21705 0.0
H74 H 0.31717 0.93197 0.21531 0.0
H75 H 0.36341 0.93629 0.14348 0.0
H76 H 0.87016 0.73073 0.91268 0.0
H77 H 0.91467 0.72865 0.8403 0.0
H78 H 0.21039 0.78245 0.87518 0.0
H79 H 0.16568 0.78264 0.94734 0.0
Tb80 Tb 0.14346 0.77053 0.51894 0.0
Tb81 Tb 0.33619 0.81775 0.55418 0.0
C82 C 0.98749 0.75804 0.4785 0.0
C83 C 0.95821 0.76112 0.43559 0.0
C84 C 0.99609 0.8094 0.41271 0.0
C85 C 0.96794 0.81081 0.37194 0.0
C86 C 0.90066 0.76439 0.35338 0.0
C87 C 0.86258 0.7164 0.3765 0.0
C88 C 0.89131 0.71471 0.41712 0.0
C89 C 0.2689 0.67584 0.53233 0.0
C90 C 0.31785 0.80927 0.45998 0.0
C91 C 0.48652 0.83027 0.59781 0.0
C92 C 0.50132 0.82964 0.64236 0.0
C93 C 0.46525 0.77762 0.6627 0.0
C94 C 0.47359 0.7802 0.70528 0.0
C95 C 0.51813 0.83476 0.72852 0.0
C96 C 0.55534 0.88631 0.70802 0.0
C97 C 0.54693 0.88374 0.66542 0.0
C98 C 0.21306 0.91288 0.54041 0.0
C99 C 0.16038 0.78004 0.61294 0.0
O100 O 0.01476 0.81398 0.49971 0.0
O101 O 0.04397 0.70778 0.48475 0.0
O102 O 0.28824 0.72953 0.51855 0.0
O103 O 0.17506 0.67179 0.53729 0.0
O104 O 0.22265 0.80266 0.46632 0.0
O105 O 0.38162 0.80805 0.49005 0.0
O106 O 0.46144 0.77392 0.57641 0.0
O107 O 0.43587 0.88092 0.58782 0.0
O108 O 0.19198 0.85943 0.55436 0.0
O109 O 0.30708 0.91626 0.53598 0.0
O110 O 0.25566 0.78621 0.60685 0.0
O111 O 0.09737 0.78108 0.58276 0.0
H112 H 0.04696 0.84627 0.4264 0.0
H113 H 0.99735 0.84903 0.35519 0.0
H114 H 0.81123 0.67964 0.36301 0.0
H115 H 0.8612 0.67704 0.43418 0.0
H116 H 0.4298 0.7351 0.64581 0.0
H117 H 0.44621 0.73901 0.71996 0.0
H118 H 0.58958 0.92924 0.72501 0.0
H119 H 0.5748 0.92463 0.65051 0.0
Tb120 Tb 0.66105 0.27776 0.52592 0.0
Tb121 Tb 0.84852 0.33297 0.56076 0.0
C122 C 0.51239 0.26228 0.48179 0.0
C123 C 0.5001 0.26331 0.43725 0.0
C124 C 0.53605 0.31624 0.41768 0.0
C125 C 0.52945 0.31454 0.37515 0.0
C126 C 0.4874 0.25971 0.35113 0.0
C127 C 0.45186 0.20673 0.37086 0.0
C128 C 0.45785 0.20869 0.41345 0.0
C129 C 0.78757 0.18717 0.54284 0.0
C130 C 0.83725 0.31546 0.46635 0.0
C131 C 0.99403 0.35233 0.60669 0.0
C132 C 0.00734 0.34801 0.6512 0.0
C133 C 0.03801 0.28795 0.66478 0.0
C134 C 0.04838 0.28347 0.70668 0.0
C135 C 0.02859 0.33895 0.73612 0.0
C136 C 0.99748 0.3989 0.72261 0.0
C137 C 0.98747 0.40349 0.68068 0.0
C138 C 0.71823 0.42237 0.54425 0.0
C139 C 0.67773 0.28962 0.61987 0.0
O140 O 0.53426 0.31904 0.50351 0.0
O141 O 0.56448 0.21244 0.49206 0.0
O142 O 0.80738 0.23996 0.5277 0.0
O143 O 0.69352 0.18183 0.54652 0.0
O144 O 0.74341 0.3025 0.47182 0.0
O145 O 0.89863 0.32385 0.49745 0.0
O146 O 0.97923 0.29617 0.58298 0.0
O147 O 0.93687 0.40037 0.59732 0.0
O148 O 0.70167 0.36957 0.55963 0.0
O149 O 0.81182 0.42862 0.53963 0.0
O150 O 0.77162 0.29992 0.61335 0.0
O151 O 0.61368 0.28696 0.58976 0.0
H152 H 0.57009 0.35884 0.43513 0.0
H153 H 0.55645 0.35663 0.36121 0.0
H154 H 0.42062 0.16313 0.35337 0.0
H155 H 0.43086 0.16693 0.42777 0.0
H156 H 0.05381 0.24417 0.64303 0.0
H157 H 0.07153 0.23633 0.71607 0.0
H158 H 0.98293 0.44279 0.74443 0.0
H159 H 0.96421 0.45069 0.6714 0.0
H160 H 0.70168 0.57095 0.05814 0.0
H161 H 0.50817 0.70362 1.00336 0.0
H162 H 0.3756 0.6235 1.00369 0.0
H163 H 0.31429 0.51487 1.01919 0.0
H164 H 0.50751 0.38277 0.0746 0.0
H165 H 0.64014 0.46269 0.07401 0.0
C166 C 0.63043 0.58222 0.04632 0.0
C167 C 0.61466 0.64328 1.03099 0.0
C168 C 0.55442 0.53569 0.04647 0.0
C169 C 0.52199 0.65723 1.01571 0.0
C170 C 0.44616 0.6113 1.01574 0.0
C171 C 0.3855 0.50367 1.03107 0.0
C172 C 0.40125 0.44267 0.0465 0.0
C173 C 0.46144 0.55029 1.031 0.0
C174 C 0.49377 0.42895 0.06201 0.0
C175 C 0.56964 0.47481 0.06187 0.0
H176 H 0.46056 0.67031 0.50975 0.0
H177 H 0.23873 0.56151 0.56638 0.0
H178 H 0.35744 0.47276 0.5747 0.0
H179 H 0.52534 0.4265 0.56637 0.0
H180 H 0.74641 0.53565 0.50946 0.0
H181 H 0.62748 0.62387 0.50095 0.0
C182 C 0.43839 0.6273 0.52409 0.0
C183 C 0.34116 0.62258 0.53762 0.0
C184 C 0.507 0.57648 0.52868 0.0
C185 C 0.3132 0.56628 0.55575 0.0
C186 C 0.38106 0.51555 0.56052 0.0
C187 C 0.54717 0.46941 0.55187 0.0
C188 C 0.64448 0.47446 0.53844 0.0
C189 C 0.47823 0.52008 0.5471 0.0
C190 C 0.67197 0.53062 0.52005 0.0
C191 C 0.60399 0.5811 0.51518 0.0
H192 H 0.04873 0.16544 1.01408 0.0
H193 H 0.2623 1.04454 0.06742 0.0
H194 H 0.13891 0.96007 0.07467 0.0
H195 H 0.96974 0.92032 0.06586 0.0
H196 H 0.75595 1.04145 1.01284 0.0
H197 H 0.8793 0.12599 1.00564 0.0
C198 C 0.06791 0.12079 1.02753 0.0
C199 C 0.16429 0.11128 0.0403 0.0
C200 C 0.9965 0.07234 0.03158 0.0
C201 C 0.18851 0.05294 0.05731 0.0
C202 C 0.11801 1.00459 0.06147 0.0
C203 C 0.95047 0.96509 0.05256 0.0
C204 C 0.85409 0.97458 0.03978 0.0
C205 C 0.02179 1.01364 0.04862 0.0
C206 C 0.82976 1.03305 1.02292 0.0
C207 C 0.90024 0.08143 1.01879 0.0
H208 H 0.9795 0.17776 0.51958 0.0
H209 H 0.7507 0.07224 0.57436 0.0
H210 H 0.8611 0.97743 0.57796 0.0
H211 H 0.02252 0.92371 0.56492 0.0
H212 H 0.25151 1.02878 0.51001 0.0
H213 H 0.1416 0.12419 0.50694 0.0
C214 C 0.95419 0.13414 0.53251 0.0
C215 C 0.85719 0.13193 0.54666 0.0
C216 C 0.01799 0.07949 0.53423 0.0
C217 C 0.8251 0.07504 0.56319 0.0
C218 C 0.88811 1.02073 0.56521 0.0
C219 C 0.04803 0.96737 0.55209 0.0
C220 C 0.14473 0.96919 0.53758 0.0
C221 C 0.98453 1.02218 0.5506 0.0
C222 C 0.17722 1.02625 0.52134 0.0
C223 C 0.11449 0.08086 0.51963 0.0
H224 H 0.33618 0.2131 0.30281 0.0
H225 H 0.61848 0.30515 0.29743 0.0
H226 H 0.60275 0.30456 0.22353 0.0
H227 H 0.50409 0.28309 0.16052 0.0
H228 H 0.21929 0.1951 0.16763 0.0
H229 H 0.24152 0.18781 0.24037 0.0
C230 C 0.39526 0.23192 0.28548 0.0
C231 C 0.47902 0.25825 0.30583 0.0
C232 C 0.38515 0.23223 0.24307 0.0
C233 C 0.55329 0.28429 0.28276 0.0
C234 C 0.54442 0.28393 0.24036 0.0
C235 C 0.44795 0.26121 0.17794 0.0
C236 C 0.36031 0.23967 0.15881 0.0
C237 C 0.46021 0.25855 0.2202 0.0
C238 C 0.28733 0.2123 0.18176 0.0
C239 C 0.29981 0.2082 0.22339 0.0
H240 H 0.52103 0.82563 0.28722 0.0
H241 H 0.22049 0.85424 0.25383 0.0
H242 H 0.16811 0.84702 0.32425 0.0
H243 H 0.20665 0.83117 0.3948 0.0
H244 H 0.50631 0.80341 0.42962 0.0
H245 H 0.56004 0.81167 0.35919 0.0
C246 C 0.44409 0.8299 0.29538 0.0
C247 C 0.37479 0.84042 0.26523 0.0
C248 C 0.41431 0.8259 0.33616 0.0
C249 C 0.27542 0.84683 0.27644 0.0
C250 C 0.24532 0.84238 0.3167 0.0
C251 C 0.28377 0.82685 0.38718 0.0
C252 C 0.35208 0.81637 0.41765 0.0
C253 C 0.31401 0.83181 0.34675 0.0
C254 C 0.45192 0.81154 0.40695 0.0
C255 C 0.48271 0.81608 0.36659 0.0
H256 H 0.5043 0.81467 0.91978 0.0
H257 H 0.80116 0.8812 0.90853 0.0
H258 H 0.7773 0.88942 0.83617 0.0
H259 H 0.6769 0.87106 0.77484 0.0
H260 H 0.38057 0.80369 0.78405 0.0
H261 H 0.39947 0.80185 0.8579 0.0
C262 C 0.56293 0.83206 0.90157 0.0
C263 C 0.65436 0.84709 0.91959 0.0
C264 C 0.54937 0.83568 0.85936 0.0
C265 C 0.73014 0.86886 0.89546 0.0
C266 C 0.71675 0.87357 0.85396 0.0
C267 C 0.61589 0.85693 0.79306 0.0
C268 C 0.52769 0.83706 0.77382 0.0
C269 C 0.62737 0.85604 0.83541 0.0
C270 C 0.44989 0.81798 0.79794 0.0
C271 C 0.46045 0.81742 0.84026 0.0
H272 H 0.79482 0.27664 0.68472 0.0
H273 H 0.4908 0.28291 0.65078 0.0
H274 H 0.44226 0.27102 0.72142 0.0
H275 H 0.48686 0.25956 0.79315 0.0
H276 H 0.79168 0.25208 0.82549 0.0
H277 H 0.83902 0.26326 0.75496 0.0
C278 C 0.71771 0.27545 0.69255 0.0
C279 C 0.64652 0.28095 0.66232 0.0
C280 C 0.69051 0.26826 0.73302 0.0
C281 C 0.54718 0.27879 0.67331 0.0
C282 C 0.5194 0.27209 0.71375 0.0
C283 C 0.56361 0.26066 0.78472 0.0
C284 C 0.63564 0.25484 0.81459 0.0
C285 C 0.59048 0.26699 0.74392 0.0
C286 C 0.7348 0.25563 0.80308 0.0
C287 C 0.76196 0.26243 0.76279 0.0
H288 H 0.69884 0.77017 0.18138 0.0
H289 H 0.9982 0.79307 0.14374 0.0
H290 H 0.05236 0.78849 0.21399 0.0
H291 H 0.01451 0.77908 0.28654 0.0
H292 H 0.71508 0.75428 0.3235 0.0
H293 H 0.66151 0.75786 0.25313 0.0
C294 C 0.77587 0.77413 0.18843 0.0
C295 C 0.84401 0.78219 0.15717 0.0
C296 C 0.80664 0.77109 0.22889 0.0
C297 C 0.94389 0.7866 0.16703 0.0
C298 C 0.97503 0.78422 0.20729 0.0
C299 C 0.93746 0.77494 0.27921 0.0
C300 C 0.86892 0.7666 0.31032 0.0
C301 C 0.907 0.7768 0.23854 0.0
C302 C 0.76947 0.76024 0.30015 0.0
C303 C 0.73864 0.76264 0.25993 0.0
H304 H 0.75879 0.25732 0.395 0.0
H305 H 0.99681 0.38205 0.44209 0.0
H306 H 0.05137 0.39198 0.37196 0.0
H307 H 0.02817 0.36794 0.29711 0.0
H308 H 0.79648 0.23606 0.25083 0.0
H309 H 0.74371 0.22616 0.32068 0.0
C310 C 0.82274 0.28666 0.38997 0.0
C311 C 0.87317 0.31934 0.42386 0.0
C312 C 0.85478 0.29113 0.34959 0.0
C313 C 0.95663 0.35635 0.41666 0.0
C314 C 0.98772 0.36218 0.3765 0.0
C315 C 0.9667 0.33642 0.3021 0.0
C316 C 0.91588 0.30367 0.26816 0.0
C317 C 0.93701 0.33007 0.34266 0.0
C318 C 0.83591 0.26347 0.27586 0.0
C319 C 0.80578 0.25735 0.31598 0.0
H320 H 0.18237 0.28223 0.77051 0.0
H321 H 0.91093 0.38743 0.8017 0.0
H322 H 0.9408 0.38282 0.87476 0.0
H323 H 0.04702 0.34987 0.93026 0.0
H324 H 0.3175 0.24406 0.89643 0.0
H325 H 0.28484 0.24791 0.82449 0.0
C326 C 0.12906 0.30351 0.79322 0.0
C327 C 0.04451 0.33495 0.78058 0.0
C328 C 0.14691 0.30096 0.83499 0.0
C329 C 0.97717 0.3634 0.81059 0.0
C330 C 0.99404 0.36055 0.85239 0.0
C331 C 0.09843 0.32754 0.9071 0.0
C332 C 0.18538 0.29768 0.9191 0.0
C333 C 0.07912 0.3297 0.86507 0.0
C334 C 0.25106 0.2688 0.88849 0.0
C335 C 0.23222 0.27046 0.84708 0.0
H336 H 0.25857 0.73156 0.6744 0.0
H337 H 0.98102 0.81709 0.64624 0.0
H338 H 0.92642 0.81627 0.71733 0.0
H339 H 0.96094 0.79593 0.7884 0.0
H340 H 0.23681 0.70547 0.81497 0.0
H341 H 0.28801 0.70336 0.74375 0.0
C342 C 0.18619 0.75008 0.68381 0.0
C343 C 0.12446 0.77504 0.65515 0.0
C344 C 0.15508 0.74896 0.7246 0.0
C345 C 0.03002 0.79756 0.66766 0.0
C346 C 0.99892 0.79737 0.70838 0.0
C347 C 0.032 0.77525 0.7786 0.0
C348 C 0.09531 0.75185 0.80748 0.0
C349 C 0.06127 0.77383 0.73727 0.0
C350 C 0.18728 0.72547 0.79394 0.0
C351 C 0.21668 0.72393 0.75304 0.0
loop_
_geom_bond_atom_site_label_1
_geom_bond_atom_site_label_2
_geom_bond_distance
_geom_bond_site_symmetry_2
_ccdc_geom_bond_type
Tb0 C2 2.809 . S
Tb0 O20 2.484 . S
Tb0 O21 2.440 . S
Tb0 O22 2.658 1_554 S
Tb0 O23 2.409 . S
Tb0 O24 2.378 . S
Tb0 O28 2.325 . S
Tb0 O31 2.341 1_554 S
Tb1 C11 2.809 . S
Tb1 O22 2.325 . S
Tb1 O25 2.341 1_556 S
Tb1 O26 2.484 . S
Tb1 O27 2.440 . S
Tb1 O28 2.658 1_556 S
Tb1 O29 2.409 . S
Tb1 O30 2.378 . S
C2 Tb0 2.809 . S
C2 C3 1.514 . S
C2 O20 1.248 . S
C2 O21 1.266 . S
C3 C2 1.514 . S
C3 C4 1.359 . S
C3 C8 1.348 . S
C4 C3 1.359 . S
C4 C5 1.380 1_455 S
C4 H32 0.929 . S
C5 C4 1.380 1_655 S
C5 C6 1.347 . S
C5 H33 0.931 . S
C6 C5 1.347 . S
C6 C7 1.369 1_655 S
C7 C6 1.369 1_455 S
C7 C8 1.408 . S
C7 H34 0.930 . S
C8 C3 1.348 . S
C8 C7 1.408 . S
C8 H35 0.930 . S
C9 O22 1.281 1_554 S
C9 O23 1.254 . S
C10 O24 1.236 . S
C10 O25 1.266 . S
C11 Tb1 2.809 . S
C11 C12 1.514 . S
C11 O26 1.248 . S
C11 O27 1.266 . S
C12 C11 1.514 . S
C12 C13 1.359 . S
C12 C17 1.348 . S
C13 C12 1.359 . S
C13 C14 1.380 . S
C13 H36 0.929 . S
C14 C13 1.380 . S
C14 C15 1.347 . S
C14 H37 0.931 . S
C15 C14 1.347 . S
C15 C16 1.369 . S
C16 C15 1.369 . S
C16 C17 1.408 . S
C16 H38 0.930 . S
C17 C12 1.348 . S
C17 C16 1.408 . S
C17 H39 0.930 . S
C18 O28 1.281 . S
C18 O29 1.254 1_554 S
C19 O30 1.236 . S
C19 O31 1.266 . S
O20 Tb0 2.484 . S
O20 C2 1.248 . S
O21 Tb0 2.440 . S
O21 C2 1.266 . S
O22 Tb0 2.658 1_556 S
O22 Tb1 2.325 . S
O22 C9 1.281 1_556 S
O23 Tb0 2.409 . S
O23 C9 1.254 . S
O24 Tb0 2.378 . S
O24 C10 1.236 . S
O25 Tb1 2.341 1_554 S
O25 C10 1.266 . S
O26 Tb1 2.484 . S
O26 C11 1.248 . S
O27 Tb1 2.440 . S
O27 C11 1.266 . S
O28 Tb0 2.325 . S
O28 Tb1 2.658 1_554 S
O28 C18 1.281 . S
O29 Tb1 2.409 . S
O29 C18 1.254 1_556 S
O30 Tb1 2.378 . S
O30 C19 1.236 . S
O31 Tb0 2.341 1_556 S
O31 C19 1.266 . S
H32 C4 0.929 . S
H33 C5 0.931 . S
H34 C7 0.930 . S
H35 C8 0.930 . S
H36 C13 0.929 . S
H37 C14 0.931 . S
H38 C16 0.930 . S
H39 C17 0.930 . S
Tb40 C42 2.809 . S
Tb40 O60 2.484 . S
Tb40 O61 2.440 . S
Tb40 O62 2.658 1_554 S
Tb40 O63 2.409 . S
Tb40 O64 2.378 . S
Tb40 O68 2.325 . S
Tb40 O71 2.341 1_554 S
Tb41 C51 2.809 . S
Tb41 O62 2.325 . S
Tb41 O65 2.341 1_556 S
Tb41 O66 2.484 . S
Tb41 O67 2.440 . S
Tb41 O68 2.658 1_556 S
Tb41 O69 2.409 . S
Tb41 O70 2.378 . S
C42 Tb40 2.809 . S
C42 C43 1.514 . S
C42 O60 1.248 . S
C42 O61 1.266 . S
C43 C42 1.514 . S
C43 C44 1.359 . S
C43 C48 1.348 . S
C44 C43 1.359 . S
C44 C45 1.380 . S
C44 H72 0.929 . S
C45 C44 1.380 . S
C45 C46 1.347 . S
C45 H73 0.931 . S
C46 C45 1.347 . S
C46 C47 1.369 . S
C47 C46 1.369 . S
C47 C48 1.408 . S
C47 H74 0.930 . S
C48 C43 1.348 . S
C48 C47 1.408 . S
C48 H75 0.930 . S
C49 O62 1.281 1_554 S
C49 O63 1.254 . S
C50 O64 1.236 . S
C50 O65 1.266 . S
C51 Tb41 2.809 . S
C51 C52 1.514 . S
C51 O66 1.248 . S
C51 O67 1.266 . S
C52 C51 1.514 . S
C52 C53 1.359 . S
C52 C57 1.348 . S
C53 C52 1.359 . S
C53 C54 1.380 1_655 S
C53 H76 0.929 . S
C54 C53 1.380 1_455 S
C54 C55 1.347 . S
C54 H77 0.931 . S
C55 C54 1.347 . S
C55 C56 1.369 1_455 S
C56 C55 1.369 1_655 S
C56 C57 1.408 . S
C56 H78 0.930 . S
C57 C52 1.348 . S
C57 C56 1.408 . S
C57 H79 0.930 . S
C58 O68 1.281 . S
C58 O69 1.254 1_554 S
C59 O70 1.236 . S
C59 O71 1.266 . S
O60 Tb40 2.484 . S
O60 C42 1.248 . S
O61 Tb40 2.440 . S
O61 C42 1.266 . S
O62 Tb40 2.658 1_556 S
O62 Tb41 2.325 . S
O62 C49 1.281 1_556 S
O63 Tb40 2.409 . S
O63 C49 1.254 . S
O64 Tb40 2.378 . S
O64 C50 1.236 . S
O65 Tb41 2.341 1_554 S
O65 C50 1.266 . S
O66 Tb41 2.484 . S
O66 C51 1.248 . S
O67 Tb41 2.440 . S
O67 C51 1.266 . S
O68 Tb40 2.325 . S
O68 Tb41 2.658 1_554 S
O68 C58 1.281 . S
O69 Tb41 2.409 . S
O69 C58 1.254 1_556 S
O70 Tb41 2.378 . S
O70 C59 1.236 . S
O71 Tb40 2.341 1_556 S
O71 C59 1.266 . S
H72 C44 0.929 . S
H73 C45 0.931 . S
H74 C47 0.930 . S
H75 C48 0.930 . S
H76 C53 0.929 . S
H77 C54 0.931 . S
H78 C56 0.930 . S
H79 C57 0.930 . S
Tb80 C82 2.809 . S
Tb80 O100 2.484 . S
Tb80 O101 2.440 . S
Tb80 O102 2.658 . S
Tb80 O103 2.409 . S
Tb80 O104 2.378 . S
Tb80 O108 2.325 . S
Tb80 O111 2.341 . S
Tb81 C91 2.809 . S
Tb81 O102 2.325 . S
Tb81 O105 2.341 . S
Tb81 O106 2.484 . S
Tb81 O107 2.440 . S
Tb81 O108 2.658 . S
Tb81 O109 2.409 . S
Tb81 O110 2.378 . S
C82 Tb80 2.809 . S
C82 C83 1.514 . S
C82 O100 1.248 . S
C82 O101 1.266 . S
C83 C82 1.514 . S
C83 C84 1.359 . S
C83 C88 1.348 . S
C84 C83 1.359 . S
C84 C85 1.380 1_455 S
C84 H112 0.929 . S
C85 C84 1.380 1_655 S
C85 C86 1.347 . S
C85 H113 0.931 . S
C86 C85 1.347 . S
C86 C87 1.369 1_655 S
C87 C86 1.369 1_455 S
C87 C88 1.408 . S
C87 H114 0.930 . S
C88 C83 1.348 . S
C88 C87 1.408 . S
C88 H115 0.930 . S
C89 O102 1.281 . S
C89 O103 1.254 . S
C90 O104 1.236 . S
C90 O105 1.266 . S
C91 Tb81 2.809 . S
C91 C92 1.514 . S
C91 O106 1.248 . S
C91 O107 1.266 . S
C92 C91 1.514 . S
C92 C93 1.359 . S
C92 C97 1.348 . S
C93 C92 1.359 . S
C93 C94 1.380 . S
C93 H116 0.929 . S
C94 C93 1.380 . S
C94 C95 1.347 . S
C94 H117 0.931 . S
C95 C94 1.347 . S
C95 C96 1.369 . S
C96 C95 1.369 . S
C96 C97 1.408 . S
C96 H118 0.930 . S
C97 C92 1.348 . S
C97 C96 1.408 . S
C97 H119 0.930 . S
C98 O108 1.281 . S
C98 O109 1.254 . S
C99 O110 1.236 . S
C99 O111 1.266 . S
O100 Tb80 2.484 . S
O100 C82 1.248 . S
O101 Tb80 2.440 . S
O101 C82 1.266 . S
O102 Tb80 2.658 . S
O102 Tb81 2.325 . S
O102 C89 1.281 . S
O103 Tb80 2.409 . S
O103 C89 1.254 . S
O104 Tb80 2.378 . S
O104 C90 1.236 . S
O105 Tb81 2.341 . S
O105 C90 1.266 . S
O106 Tb81 2.484 . S
O106 C91 1.248 . S
O107 Tb81 2.440 . S
O107 C91 1.266 . S
O108 Tb80 2.325 . S
O108 Tb81 2.658 . S
O108 C98 1.281 . S
O109 Tb81 2.409 . S
O109 C98 1.254 . S
O110 Tb81 2.378 . S
O110 C99 1.236 . S
O111 Tb80 2.341 . S
O111 C99 1.266 . S
H112 C84 0.929 . S
H113 C85 0.931 . S
H114 C87 0.930 . S
H115 C88 0.930 . S
H116 C93 0.929 . S
H117 C94 0.931 . S
H118 C96 0.930 . S
H119 C97 0.930 . S
Tb120 C122 2.809 . S
Tb120 O140 2.484 . S
Tb120 O141 2.440 . S
Tb120 O142 2.658 . S
Tb120 O143 2.409 . S
Tb120 O144 2.378 . S
Tb120 O148 2.325 . S
Tb120 O151 2.341 . S
Tb121 C131 2.809 . S
Tb121 O142 2.325 . S
Tb121 O145 2.341 . S
Tb121 O146 2.484 . S
Tb121 O147 2.440 . S
Tb121 O148 2.658 . S
Tb121 O149 2.409 . S
Tb121 O150 2.378 . S
C122 Tb120 2.809 . S
C122 C123 1.514 . S
C122 O140 1.248 . S
C122 O141 1.266 . S
C123 C122 1.514 . S
C123 C124 1.359 . S
C123 C128 1.348 . S
C124 C123 1.359 . S
C124 C125 1.380 . S
C124 H152 0.929 . S
C125 C124 1.380 . S
C125 C126 1.347 . S
C125 H153 0.931 . S
C126 C125 1.347 . S
C126 C127 1.369 . S
C127 C126 1.369 . S
C127 C128 1.408 . S
C127 H154 0.930 . S
C128 C123 1.348 . S
C128 C127 1.408 . S
C128 H155 0.930 . S
C129 O142 1.281 . S
C129 O143 1.254 . S
C130 O144 1.236 . S
C130 O145 1.266 . S
C131 Tb121 2.809 . S
C131 C132 1.514 . S
C131 O146 1.248 . S
C131 O147 1.266 . S
C132 C131 1.514 . S
C132 C133 1.359 . S
C132 C137 1.348 . S
C133 C132 1.359 . S
C133 C134 1.380 1_655 S
C133 H156 0.929 . S
C134 C133 1.380 1_455 S
C134 C135 1.347 . S
C134 H157 0.931 . S
C135 C134 1.347 . S
C135 C136 1.369 1_455 S
C136 C135 1.369 1_655 S
C136 C137 1.408 . S
C136 H158 0.930 . S
C137 C132 1.348 . S
C137 C136 1.408 . S
C137 H159 0.930 . S
C138 O148 1.281 . S
C138 O149 1.254 . S
C139 O150 1.236 . S
C139 O151 1.266 . S
O140 Tb120 2.484 . S
O140 C122 1.248 . S
O141 Tb120 2.440 . S
O141 C122 1.266 . S
O142 Tb120 2.658 . S
O142 Tb121 2.325 . S
O142 C129 1.281 . S
O143 Tb120 2.409 . S
O143 C129 1.254 . S
O144 Tb120 2.378 . S
O144 C130 1.236 . S
O145 Tb121 2.341 . S
O145 C130 1.266 . S
O146 Tb121 2.484 . S
O146 C131 1.248 . S
O147 Tb121 2.440 . S
O147 C131 1.266 . S
O148 Tb120 2.325 . S
O148 Tb121 2.658 . S
O148 C138 1.281 . S
O149 Tb121 2.409 . S
O149 C138 1.254 . S
O150 Tb121 2.378 . S
O150 C139 1.236 . S
O151 Tb120 2.341 . S
O151 C139 1.266 . S
H152 C124 0.929 . S
H153 C125 0.931 . S
H154 C127 0.930 . S
H155 C128 0.930 . S
H156 C133 0.929 . S
H157 C134 0.931 . S
H158 C136 0.930 . S
H159 C137 0.930 . S
H160 C166 0.930 . S
H161 C169 0.930 . S
H162 C170 0.930 . S
H163 C171 0.930 . S
H164 C174 0.930 . S
H165 C175 0.930 . S
C166 H160 0.930 . S
C166 C167 1.355 . S
C166 C168 1.415 . S
C167 C166 1.355 . S
C167 C169 1.419 1_554 S
C168 C166 1.415 . S
C168 C173 1.425 1_554 S
C168 C175 1.409 . S
C169 H161 0.930 . S
C169 C167 1.419 1_556 S
C169 C170 1.362 . S
C170 H162 0.930 . S
C170 C169 1.362 . S
C170 C173 1.409 . S
C171 H163 0.930 . S
C171 C172 1.355 1_556 S
C171 C173 1.415 . S
C172 C171 1.355 1_554 S
C172 C174 1.419 . S
C173 C168 1.425 1_556 S
C173 C170 1.409 . S
C173 C171 1.415 . S
C174 H164 0.930 . S
C174 C172 1.419 . S
C174 C175 1.362 . S
C175 H165 0.930 . S
C175 C168 1.409 . S
C175 C174 1.362 . S
H176 C182 0.930 . S
H177 C185 0.930 . S
H178 C186 0.930 . S
H179 C187 0.930 . S
H180 C190 0.930 . S
H181 C191 0.930 . S
C182 H176 0.930 . S
C182 C183 1.355 . S
C182 C184 1.415 . S
C183 C182 1.355 . S
C183 C185 1.419 . S
C184 C182 1.415 . S
C184 C189 1.425 . S
C184 C191 1.409 . S
C185 H177 0.930 . S
C185 C183 1.419 . S
C185 C186 1.362 . S
C186 H178 0.930 . S
C186 C185 1.362 . S
C186 C189 1.409 . S
C187 H179 0.930 . S
C187 C188 1.355 . S
C187 C189 1.415 . S
C188 C187 1.355 . S
C188 C190 1.419 . S
C189 C184 1.425 . S
C189 C186 1.409 . S
C189 C187 1.415 . S
C190 H180 0.930 . S
C190 C188 1.419 . S
C190 C191 1.362 . S
C191 H181 0.930 . S
C191 C184 1.409 . S
C191 C190 1.362 . S
H192 C198 0.930 . S
H193 C201 0.930 . S
H194 C202 0.930 . S
H195 C203 0.930 . S
H196 C206 0.930 . S
H197 C207 0.930 . S
C198 H192 0.930 . S
C198 C199 1.355 1_556 S
C198 C200 1.415 1_455 S
C199 C198 1.355 1_554 S
C199 C201 1.419 . S
C200 C198 1.415 1_655 S
C200 C205 1.425 1_646 S
C200 C207 1.409 . S
C201 H193 0.930 . S
C201 C199 1.419 . S
C201 C202 1.362 1_545 S
C202 H194 0.930 . S
C202 C201 1.362 1_565 S
C202 C205 1.409 . S
C203 H195 0.930 . S
C203 C204 1.355 . S
C203 C205 1.415 1_655 S
C204 C203 1.355 . S
C204 C206 1.419 1_554 S
C205 C200 1.425 1_464 S
C205 C202 1.409 . S
C205 C203 1.415 1_455 S
C206 H196 0.930 . S
C206 C204 1.419 1_556 S
C206 C207 1.362 1_565 S
C207 H197 0.930 . S
C207 C200 1.409 . S
C207 C206 1.362 1_545 S
H208 C214 0.930 . S
H209 C217 0.930 . S
H210 C218 0.930 1_565 S
H211 C219 0.930 . S
H212 C222 0.930 . S
H213 C223 0.930 1_545 S
C214 H208 0.930 . S
C214 C215 1.355 . S
C214 C216 1.415 1_655 S
C215 C214 1.355 . S
C215 C217 1.419 . S
C216 C214 1.415 1_455 S
C216 C221 1.425 1_445 S
C216 C223 1.409 1_545 S
C217 H209 0.930 . S
C217 C215 1.419 . S
C217 C218 1.362 . S
C218 H210 0.930 1_545 S
C218 C217 1.362 . S
C218 C221 1.409 1_545 S
C219 H211 0.930 . S
C219 C220 1.355 . S
C219 C221 1.415 1_455 S
C220 C219 1.355 . S
C220 C222 1.419 . S
C221 C216 1.425 1_665 S
C221 C218 1.409 1_565 S
C221 C219 1.415 1_655 S
C222 H212 0.930 . S
C222 C220 1.419 . S
C222 C223 1.362 . S
C223 H213 0.930 1_565 S
C223 C216 1.409 1_565 S
C223 C222 1.362 . S
H224 C230 0.930 . S
H225 C233 0.930 . S
H226 C234 0.930 . S
H227 C235 0.930 . S
H228 C238 0.930 . S
H229 C239 0.930 . S
C230 H224 0.930 . S
C230 C231 1.355 . S
C230 C232 1.415 . S
C231 C230 1.355 . S
C231 C233 1.419 . S
C232 C230 1.415 . S
C232 C237 1.425 . S
C232 C239 1.409 . S
C233 H225 0.930 . S
C233 C231 1.419 . S
C233 C234 1.362 . S
C234 H226 0.930 . S
C234 C233 1.362 . S
C234 C237 1.409 . S
C235 H227 0.930 . S
C235 C236 1.355 . S
C235 C237 1.415 . S
C236 C235 1.355 . S
C236 C238 1.419 . S
C237 C232 1.425 . S
C237 C234 1.409 . S
C237 C235 1.415 . S
C238 H228 0.930 . S
C238 C236 1.419 . S
C238 C239 1.362 . S
C239 H229 0.930 . S
C239 C232 1.409 . S
C239 C238 1.362 . S
H240 C246 0.930 . S
H241 C249 0.930 . S
H242 C250 0.930 . S
H243 C251 0.930 . S
H244 C254 0.930 . S
H245 C255 0.930 . S
C246 H240 0.930 . S
C246 C247 1.355 . S
C246 C248 1.415 . S
C247 C246 1.355 . S
C247 C249 1.419 . S
C248 C246 1.415 . S
C248 C253 1.425 . S
C248 C255 1.409 . S
C249 H241 0.930 . S
C249 C247 1.419 . S
C249 C250 1.362 . S
C250 H242 0.930 . S
C250 C249 1.362 . S
C250 C253 1.409 . S
C251 H243 0.930 . S
C251 C252 1.355 . S
C251 C253 1.415 . S
C252 C251 1.355 . S
C252 C254 1.419 . S
C253 C248 1.425 . S
C253 C250 1.409 . S
C253 C251 1.415 . S
C254 H244 0.930 . S
C254 C252 1.419 . S
C254 C255 1.362 . S
C255 H245 0.930 . S
C255 C248 1.409 . S
C255 C254 1.362 . S
H256 C262 0.930 . S
H257 C265 0.930 . S
H258 C266 0.930 . S
H259 C267 0.930 . S
H260 C270 0.930 . S
H261 C271 0.930 . S
C262 H256 0.930 . S
C262 C263 1.355 . S
C262 C264 1.415 . S
C263 C262 1.355 . S
C263 C265 1.419 . S
C264 C262 1.415 . S
C264 C269 1.425 . S
C264 C271 1.409 . S
C265 H257 0.930 . S
C265 C263 1.419 . S
C265 C266 1.362 . S
C266 H258 0.930 . S
C266 C265 1.362 . S
C266 C269 1.409 . S
C267 H259 0.930 . S
C267 C268 1.355 . S
C267 C269 1.415 . S
C268 C267 1.355 . S
C268 C270 1.419 . S
C269 C264 1.425 . S
C269 C266 1.409 . S
C269 C267 1.415 . S
C270 H260 0.930 . S
C270 C268 1.419 . S
C270 C271 1.362 . S
C271 H261 0.930 . S
C271 C264 1.409 . S
C271 C270 1.362 . S
H272 C278 0.930 . S
H273 C281 0.930 . S
H274 C282 0.930 . S
H275 C283 0.930 . S
H276 C286 0.930 . S
H277 C287 0.930 . S
C278 H272 0.930 . S
C278 C279 1.355 . S
C278 C280 1.415 . S
C279 C278 1.355 . S
C279 C281 1.419 . S
C280 C278 1.415 . S
C280 C285 1.425 . S
C280 C287 1.409 . S
C281 H273 0.930 . S
C281 C279 1.419 . S
C281 C282 1.362 . S
C282 H274 0.930 . S
C282 C281 1.362 . S
C282 C285 1.409 . S
C283 H275 0.930 . S
C283 C284 1.355 . S
C283 C285 1.415 . S
C284 C283 1.355 . S
C284 C286 1.419 . S
C285 C280 1.425 . S
C285 C282 1.409 . S
C285 C283 1.415 . S
C286 H276 0.930 . S
C286 C284 1.419 . S
C286 C287 1.362 . S
C287 H277 0.930 . S
C287 C280 1.409 . S
C287 C286 1.362 . S
H288 C294 0.930 . S
H289 C297 0.930 . S
H290 C298 0.930 . S
H291 C299 0.930 . S
H292 C302 0.930 . S
H293 C303 0.930 . S
C294 H288 0.930 . S
C294 C295 1.355 . S
C294 C296 1.415 . S
C295 C294 1.355 . S
C295 C297 1.419 . S
C296 C294 1.415 . S
C296 C301 1.425 . S
C296 C303 1.409 . S
C297 H289 0.930 . S
C297 C295 1.419 . S
C297 C298 1.362 . S
C298 H290 0.930 . S
C298 C297 1.362 . S
C298 C301 1.409 . S
C299 H291 0.930 . S
C299 C300 1.355 . S
C299 C301 1.415 . S
C300 C299 1.355 . S
C300 C302 1.419 . S
C301 C296 1.425 . S
C301 C298 1.409 . S
C301 C299 1.415 . S
C302 H292 0.930 . S
C302 C300 1.419 . S
C302 C303 1.362 . S
C303 H293 0.930 . S
C303 C296 1.409 . S
C303 C302 1.362 . S
H304 C310 0.930 . S
H305 C313 0.930 . S
H306 C314 0.930 . S
H307 C315 0.930 . S
H308 C318 0.930 . S
H309 C319 0.930 . S
C310 H304 0.930 . S
C310 C311 1.355 . S
C310 C312 1.415 . S
C311 C310 1.355 . S
C311 C313 1.419 . S
C312 C310 1.415 . S
C312 C317 1.425 . S
C312 C319 1.409 . S
C313 H305 0.930 . S
C313 C311 1.419 . S
C313 C314 1.362 . S
C314 H306 0.930 . S
C314 C313 1.362 . S
C314 C317 1.409 . S
C315 H307 0.930 . S
C315 C316 1.355 . S
C315 C317 1.415 . S
C316 C315 1.355 . S
C316 C318 1.419 . S
C317 C312 1.425 . S
C317 C314 1.409 . S
C317 C315 1.415 . S
C318 H308 0.930 . S
C318 C316 1.419 . S
C318 C319 1.362 . S
C319 H309 0.930 . S
C319 C312 1.409 . S
C319 C318 1.362 . S
H320 C326 0.930 . S
H321 C329 0.930 . S
H322 C330 0.930 . S
H323 C331 0.930 . S
H324 C334 0.930 . S
H325 C335 0.930 . S
C326 H320 0.930 . S
C326 C327 1.355 . S
C326 C328 1.415 . S
C327 C326 1.355 . S
C327 C329 1.419 . S
C328 C326 1.415 . S
C328 C333 1.425 . S
C328 C335 1.409 . S
C329 H321 0.930 . S
C329 C327 1.419 . S
C329 C330 1.362 . S
C330 H322 0.930 . S
C330 C329 1.362 . S
C330 C333 1.409 . S
C331 H323 0.930 . S
C331 C332 1.355 . S
C331 C333 1.415 . S
C332 C331 1.355 . S
C332 C334 1.419 . S
C333 C328 1.425 . S
C333 C330 1.409 . S
C333 C331 1.415 . S
C334 H324 0.930 . S
C334 C332 1.419 . S
C334 C335 1.362 . S
C335 H325 0.930 . S
C335 C328 1.409 . S
C335 C334 1.362 . S
H336 C342 0.930 . S
H337 C345 0.930 . S
H338 C346 0.930 . S
H339 C347 0.930 . S
H340 C350 0.930 . S
H341 C351 0.930 1_655 S
C342 H336 0.930 . S
C342 C343 1.355 . S
C342 C344 1.415 . S
C343 C342 1.355 . S
C343 C345 1.419 . S
C344 C342 1.415 . S
C344 C349 1.425 . S
C344 C351 1.409 . S
C345 H337 0.930 . S
C345 C343 1.419 . S
C345 C346 1.362 . S
C346 H338 0.930 . S
C346 C345 1.362 . S
C346 C349 1.409 . S
C347 H339 0.930 . S
C347 C348 1.355 . S
C347 C349 1.415 . S
C348 C347 1.355 . S
C348 C350 1.419 1_455 S
C349 C344 1.425 . S
C349 C346 1.409 . S
C349 C347 1.415 . S
C350 H340 0.930 . S
C350 C348 1.419 1_655 S
C350 C351 1.362 1_655 S
C351 H341 0.930 1_455 S
C351 C344 1.409 . S
C351 C350 1.362 1_455 S
C167 C58 1.492 . S
C172 C9 1.492 . S
C183 C89 1.491 . S
C188 C138 1.491 . S
C199 C18 1.515 . S
C204 C49 1.515 . S
C215 C129 1.508 . S
C220 C98 1.508 . S
C231 C126 1.313 . S
C236 C10 1.344 . S
C247 C46 1.353 . S
C252 C90 1.337 . S
C263 C59 1.336 . S
C268 C95 1.323 . S
C279 C139 1.334 . S
C284 C15 1.355 . S
C295 C50 1.328 . S
C300 C86 1.351 . S
C311 C130 1.355 . S
C316 C6 1.314 . S
C327 C135 1.343 . S
C332 C19 1.328 . S
C343 C99 1.328 . S
C348 C55 1.345 . S
