# Generated by pormake.
# Topology snk, (6)-cn, num edge types: 1
# Building blocks:
#     Node 0, Type 0, BuildingBlock: VOLQOD_clean_sbu_1, # of connection points: 6
#     Node 1, Type 0, BuildingBlock: VOLQOD_clean_sbu_1, # of connection points: 6
#     Node 2, Type 0, BuildingBlock: VOLQOD_clean_sbu_1, # of connection points: 6
#     Node 3, Type 0, BuildingBlock: VOLQOD_clean_sbu_1, # of connection points: 6
#     Node 4, Type 0, BuildingBlock: VOLQOD_clean_sbu_1, # of connection points: 6
#     Node 5, Type 0, BuildingBlock: VOLQOD_clean_sbu_1, # of connection points: 6
#     Node 6, Type 0, BuildingBlock: VOLQOD_clean_sbu_1, # of connection points: 6
#     Node 7, Type 0, BuildingBlock: VOLQOD_clean_sbu_1, # of connection points: 6
#     Edge 8, Type (0, 0), BuildingBlock: TEMPAE_clean_linker_10, # of connection points: 2
#     Edge 9, Type (0, 0), BuildingBlock: TEMPAE_clean_linker_10, # of connection points: 2
#     Edge 10, Type (0, 0), BuildingBlock: TEMPAE_clean_linker_10, # of connection points: 2
#     Edge 11, Type (0, 0), BuildingBlock: TEMPAE_clean_linker_10, # of connection points: 2
#     Edge 12, Type (0, 0), BuildingBlock: TEMPAE_clean_linker_10, # of connection points: 2
#     Edge 13, Type (0, 0), BuildingBlock: TEMPAE_clean_linker_10, # of connection points: 2
#     Edge 14, Type (0, 0), BuildingBlock: TEMPAE_clean_linker_10, # of connection points: 2
#     Edge 15, Type (0, 0), BuildingBlock: TEMPAE_clean_linker_10, # of connection points: 2
#     Edge 16, Type (0, 0), BuildingBlock: TEMPAE_clean_linker_10, # of connection points: 2
#     Edge 17, Type (0, 0), BuildingBlock: TEMPAE_clean_linker_10, # of connection points: 2
#     Edge 18, Type (0, 0), BuildingBlock: TEMPAE_clean_linker_10, # of connection points: 2
#     Edge 19, Type (0, 0), BuildingBlock: TEMPAE_clean_linker_10, # of connection points: 2
#     Edge 20, Type (0, 0), BuildingBlock: TEMPAE_clean_linker_10, # of connection points: 2
#     Edge 21, Type (0, 0), BuildingBlock: TEMPAE_clean_linker_10, # of connection points: 2
#     Edge 22, Type (0, 0), BuildingBlock: TEMPAE_clean_linker_10, # of connection points: 2
#     Edge 23, Type (0, 0), BuildingBlock: TEMPAE_clean_linker_10, # of connection points: 2
#     Edge 24, Type (0, 0), BuildingBlock: TEMPAE_clean_linker_10, # of connection points: 2
#     Edge 25, Type (0, 0), BuildingBlock: TEMPAE_clean_linker_10, # of connection points: 2
#     Edge 26, Type (0, 0), BuildingBlock: TEMPAE_clean_linker_10, # of connection points: 2
#     Edge 27, Type (0, 0), BuildingBlock: TEMPAE_clean_linker_10, # of connection points: 2
#     Edge 28, Type (0, 0), BuildingBlock: TEMPAE_clean_linker_10, # of connection points: 2
#     Edge 29, Type (0, 0), BuildingBlock: TEMPAE_clean_linker_10, # of connection points: 2
#     Edge 30, Type (0, 0), BuildingBlock: TEMPAE_clean_linker_10, # of connection points: 2
#     Edge 31, Type (0, 0), BuildingBlock: TEMPAE_clean_linker_10, # of connection points: 2
# Relax obj value: 0.177
# Max RMSD: 0.167
# Mean RMSD: 0.167
data_MOF--net-snk--node1-VOLQOD_clean_sbu_1--edge1-TEMPAE_clean_linker_10
_symmetry_space_group_name_H-M    P1
_symmetry_Int_Tables_number       1
_symmetry_cell_setting            triclinic
loop_
_symmetry_equiv_pos_as_xyz
'x, y, z'
_cell_length_a     47.009887
_cell_length_b     47.006669
_cell_length_c     16.023196
_cell_angle_alpha  89.996321
_cell_angle_beta   90.03262
_cell_angle_gamma 90.096605
loop_
_atom_site_label
_atom_site_type_symbol
_atom_site_fract_x
_atom_site_fract_y
_atom_site_fract_z
_atom_type_partial_charge
O0 O 0.02896 0.9802 0.51429 0.0
Zn1 Zn 0.9954 0.00165 0.4673 0.0
O2 O -5e-05 0.04192 0.48653 0.0
Zn3 Zn 0.97389 0.05582 0.56828 0.0
Zn4 Zn 0.03811 0.04664 0.52346 0.0
Zn5 Zn 0.99463 0.06389 0.38904 0.0
O6 O 0.9552 0.09231 0.53115 0.0
O7 O 0.9586 0.08616 0.39402 0.0
O8 O 0.95862 0.98801 0.51817 0.0
O9 O 0.94309 0.02687 0.58296 0.0
O10 O 0.99341 0.05841 0.67913 0.0
O11 O 0.03761 0.04549 0.64679 0.0
O12 O 0.0554 0.08284 0.48132 0.0
O13 O 0.99652 0.99411 0.34365 0.0
O14 O 0.02576 0.09282 0.37761 0.0
O15 O 0.99606 0.0382 0.29195 0.0
C16 C 0.05493 0.98758 0.50648 0.0
C17 C 0.9481 0.09899 0.45683 0.0
C18 C 0.01853 0.05126 0.70023 0.0
C19 C 0.93998 0.00092 0.56185 0.0
C20 C 0.048 0.09837 0.41995 0.0
C21 C -0.00307 0.01136 0.28247 0.0
O22 O 0.06173 0.01327 0.49107 0.0
O23 O 0.34081 0.86069 0.77797 0.0
Zn24 Zn 0.32244 0.8256 0.72917 0.0
O25 O 0.28195 0.82644 0.74828 0.0
Zn26 Zn 0.27018 0.79904 0.82913 0.0
Zn27 Zn 0.27351 0.86402 0.785 0.0
Zn28 Zn 0.26091 0.81848 0.65064 0.0
O29 O 0.23496 0.77781 0.79187 0.0
O30 O 0.24242 0.78033 0.65525 0.0
O31 O 0.33901 0.78971 0.77817 0.0
O32 O 0.30144 0.77062 0.84172 0.0
O33 O 0.26633 0.81795 0.94044 0.0
O34 O 0.27355 0.86351 0.90857 0.0
O35 O 0.23635 0.87795 0.73904 0.0
O36 O 0.32995 0.82823 0.60548 0.0
O37 O 0.22917 0.84642 0.63809 0.0
O38 O 0.28623 0.82272 0.55371 0.0
C39 C 0.33128 0.88599 0.77152 0.0
C40 C 0.22958 0.76955 0.71766 0.0
C41 C 0.2702 0.84377 0.96182 0.0
C42 C 0.32754 0.76976 0.82053 0.0
C43 C 0.22165 0.86853 0.67817 0.0
C44 C 0.31277 0.82678 0.54424 0.0
O45 O 0.30512 0.89066 0.75608 0.0
O46 O 0.46802 0.17476 0.02091 0.0
Zn47 Zn 0.50127 0.15382 0.97075 0.0
O48 O 0.49729 0.11352 -0.0097 0.0
Zn49 Zn 0.52381 0.10018 0.07156 0.0
Zn50 Zn 0.45913 0.10811 0.02712 0.0
Zn51 Zn 0.50315 0.09172 0.89285 0.0
O52 O 0.54265 0.06373 0.03481 0.0
O53 O 0.53962 0.07015 0.89771 0.0
O54 O 0.53839 0.16787 0.01866 0.0
O55 O 0.55449 0.1294 0.08431 0.0
O56 O 0.50457 0.09766 0.18271 0.0
O57 O 0.45972 0.10824 0.15053 0.0
O58 O 0.44203 0.07206 0.9824 0.0
O59 O 0.49879 0.16136 0.84722 0.0
O60 O 0.47259 0.06231 0.88094 0.0
O61 O 0.50081 0.1173 0.79578 0.0
C62 C 0.44201 0.16731 0.01474 0.0
C63 C 0.55002 0.05725 0.9606 0.0
C64 C 0.47912 0.10345 0.20389 0.0
C65 C 0.55736 0.15525 0.06193 0.0
C66 C 0.45004 0.0566 0.92154 0.0
C67 C 0.49876 0.14407 0.78616 0.0
O68 O 0.43517 0.1417 -0.00186 0.0
O69 O 0.15799 0.2951 0.29408 0.0
Zn70 Zn 0.17626 0.33024 0.2456 0.0
O71 O 0.21676 0.32978 0.26512 0.0
Zn72 Zn 0.22803 0.35754 0.34561 0.0
Zn73 Zn 0.22544 0.29233 0.30245 0.0
Zn74 Zn 0.23786 0.33761 0.16758 0.0
O75 O 0.26318 0.37895 0.30877 0.0
O76 O 0.25621 0.37583 0.17198 0.0
O77 O 0.1593 0.36609 0.29308 0.0
O78 O 0.19655 0.38586 0.35651 0.0
O79 O 0.23177 0.33882 0.45724 0.0
O80 O 0.22537 0.29308 0.42587 0.0
O81 O 0.26263 0.2784 0.25696 0.0
O82 O 0.16888 0.32742 0.12212 0.0
O83 O 0.26964 0.30968 0.15529 0.0
O84 O 0.21257 0.33319 0.07055 0.0
C85 C 0.16776 0.26989 0.28768 0.0
C86 C 0.26871 0.38699 0.23445 0.0
C87 C 0.22831 0.31297 0.47886 0.0
C88 C 0.17049 0.38637 0.3347 0.0
C89 C 0.27723 0.28767 0.19578 0.0
C90 C 0.18606 0.32894 0.061 0.0
O91 O 0.19402 0.26546 0.27344 0.0
O92 O 0.8415 0.36073 0.27764 0.0
Zn93 Zn 0.82297 0.32558 0.22951 0.0
O94 O 0.78246 0.3264 0.24853 0.0
Zn95 Zn 0.77081 0.29877 0.32886 0.0
Zn96 Zn 0.77428 0.36387 0.28623 0.0
Zn97 Zn 0.76118 0.31911 0.15089 0.0
O98 O 0.73551 0.27772 0.29142 0.0
O99 O 0.74236 0.28108 0.15463 0.0
O100 O 0.83961 0.28972 0.27813 0.0
O101 O 0.80203 0.27022 0.34049 0.0
O102 O 0.76719 0.31745 0.44061 0.0
O103 O 0.77489 0.363 0.40951 0.0
O104 O 0.73699 0.37803 0.24253 0.0
O105 O 0.83044 0.32803 0.10601 0.0
O106 O 0.72958 0.34737 0.13949 0.0
O107 O 0.7866 0.32344 0.05418 0.0
C108 C 0.83191 0.38599 0.27083 0.0
C109 C 0.7298 0.26992 0.21698 0.0
C110 C 0.77145 0.34317 0.46239 0.0
C111 C 0.82816 0.26955 0.31959 0.0
C112 C 0.72218 0.36916 0.18124 0.0
C113 C 0.81321 0.32704 0.04482 0.0
O114 O 0.80569 0.39055 0.25617 0.0
O115 O 0.65743 0.79574 0.78694 0.0
Zn116 Zn 0.67573 0.83056 0.73669 0.0
O117 O 0.71621 0.82991 0.75614 0.0
Zn118 Zn 0.72769 0.85757 0.83664 0.0
Zn119 Zn 0.72481 0.79238 0.79323 0.0
Zn120 Zn 0.73721 0.83782 0.65852 0.0
O121 O 0.76287 0.87887 0.79954 0.0
O122 O 0.7555 0.87606 0.66288 0.0
O123 O 0.65902 0.86662 0.78374 0.0
O124 O 0.69634 0.886 0.84785 0.0
O125 O 0.73145 0.83884 0.94825 0.0
O126 O 0.72515 0.7931 0.91673 0.0
O127 O 0.76181 0.77828 0.7466 0.0
O128 O 0.66826 0.82735 0.61318 0.0
O129 O 0.76899 0.80993 0.64601 0.0
O130 O 0.71192 0.83332 0.56155 0.0
C131 C 0.66695 0.77042 0.78136 0.0
C132 C 0.76822 0.88704 0.72525 0.0
C133 C 0.7281 0.81297 0.96981 0.0
C134 C 0.67032 0.88675 0.82576 0.0
C135 C 0.77647 0.78773 0.68575 0.0
C136 C 0.68544 0.8289 0.55201 0.0
O137 O 0.69307 0.76567 0.76576 0.0
O138 O 0.52933 0.48234 0.02831 0.0
Zn139 Zn 0.49565 0.50342 0.98079 0.0
O140 O 0.49977 0.54376 5e-05 0.0
Zn141 Zn 0.47329 0.55748 0.08095 0.0
Zn142 Zn 0.53784 0.54912 0.0374 0.0
Zn143 Zn 0.49426 0.56548 0.90233 0.0
O144 O 0.45433 0.59378 0.04294 0.0
O145 O 0.45785 0.58707 0.90609 0.0
O146 O 0.45889 0.48943 0.03106 0.0
O147 O 0.44275 0.5282 0.09505 0.0
O148 O 0.4925 0.56031 0.19225 0.0
O149 O 0.53707 0.54846 0.16072 0.0
O150 O 0.55489 0.58535 -0.00595 0.0
O151 O 0.4972 0.49572 0.85717 0.0
O152 O 0.5249 0.59481 0.89082 0.0
O153 O 0.49648 0.53981 0.80561 0.0
C154 C 0.55526 0.49002 0.0214 0.0
C155 C 0.44719 0.60006 0.96835 0.0
C156 C 0.51775 0.55378 0.21381 0.0
C157 C 0.43998 0.5022 0.07414 0.0
C158 C 0.54719 0.60067 0.93254 0.0
C159 C 0.49773 0.513 0.79606 0.0
O160 O 0.56186 0.51582 0.00676 0.0
O161 O 0.96798 0.67566 0.51326 0.0
Zn162 Zn 0.00143 0.6545 0.46488 0.0
O163 O -0.00278 0.61426 0.48461 0.0
Zn164 Zn 0.02321 0.60089 0.56729 0.0
Zn165 Zn 0.95889 0.60912 0.52027 0.0
Zn166 Zn 0.00352 0.5923 0.38749 0.0
O167 O 0.04209 0.56434 0.53204 0.0
O168 O 0.0397 0.57025 0.39464 0.0
O169 O 0.03838 0.66846 0.5143 0.0
O170 O 0.05389 0.63001 0.58125 0.0
O171 O 0.00343 0.59842 0.67754 0.0
O172 O 0.95885 0.60958 0.64391 0.0
O173 O 0.94198 0.57302 0.47552 0.0
O174 O -0.00037 0.66183 0.34116 0.0
O175 O 0.97271 0.56316 0.37453 0.0
O176 O 0.0022 0.61779 0.28977 0.0
C177 C 0.94199 0.66827 0.50582 0.0
C178 C 0.04973 0.55751 0.45835 0.0
C179 C 0.97797 0.60449 0.6979 0.0
C180 C 0.05703 0.6558 0.55869 0.0
C181 C 0.95006 0.55753 0.4148 0.0
C182 C 0.00021 0.64456 0.28004 0.0
O183 O 0.93518 0.64266 0.48922 0.0
C184 C 0.06022 0.13812 0.32289 0.0
C185 C 0.06517 0.12362 0.39806 0.0
C186 C 0.07611 0.16228 0.30161 0.0
C187 C 0.09725 0.17228 0.35719 0.0
C188 C 0.10229 0.15786 0.43329 0.0
C189 C 0.08627 0.13359 0.45265 0.0
C190 C 0.0704 0.17701 0.21951 0.0
C191 C 0.12458 0.16811 0.49428 0.0
C192 C 0.15752 0.218 0.27638 0.0
C193 C 0.14879 0.24527 0.30081 0.0
C194 C 0.14061 0.19411 0.29271 0.0
C195 C 0.1145 0.19758 0.33525 0.0
C196 C 0.10529 0.22508 0.35884 0.0
C197 C 0.12251 0.24867 0.34087 0.0
C198 C 0.15091 0.16511 0.26573 0.0
C199 C 0.07762 0.22947 0.40489 0.0
H200 H 0.04401 0.13048 0.28023 0.0
H201 H 0.09011 0.12259 0.51103 0.0
H202 H 0.06434 0.19948 0.23069 0.0
H203 H 0.09002 0.17723 0.18104 0.0
H204 H 0.05318 0.1665 0.18332 0.0
H205 H 0.12545 0.15481 0.55154 0.0
H206 H 0.14584 0.16785 0.46428 0.0
H207 H 0.12014 0.19042 0.51267 0.0
H208 H 0.17773 0.21527 0.24482 0.0
H209 H 0.11572 0.26969 0.36024 0.0
H210 H 0.13456 0.15452 0.22655 0.0
H211 H 0.15436 0.15148 0.32133 0.0
H212 H 0.17109 0.16624 0.22984 0.0
H213 H 0.07313 0.25233 0.41654 0.0
H214 H 0.07835 0.21823 0.46575 0.0
H215 H 0.05972 0.22025 0.36875 0.0
C216 C 0.07234 0.94204 0.56835 0.0
C217 C 0.0778 0.96685 0.52245 0.0
C218 C 0.09462 0.92399 0.59229 0.0
C219 C 0.12283 0.93087 0.56891 0.0
C220 C 0.12827 0.95518 0.51937 0.0
C221 C 0.10568 0.97296 0.49704 0.0
C222 C 0.08813 0.89826 0.64541 0.0
C223 C 0.15807 0.96296 0.49238 0.0
C224 C 0.18499 0.90623 0.70031 0.0
C225 C 0.19555 0.88364 0.65241 0.0
C226 C 0.16076 0.92125 0.67496 0.0
C227 C 0.14696 0.9136 0.59969 0.0
C228 C 0.15716 0.89051 0.55185 0.0
C229 C 0.18131 0.87574 0.57891 0.0
C230 C 0.1503 0.94571 0.7278 0.0
C231 C 0.14301 0.8819 0.47102 0.0
H232 H 0.05083 0.93731 0.58843 0.0
H233 H 0.10995 0.99198 0.46087 0.0
H234 H 0.09768 0.87891 0.6175 0.0
H235 H 0.09775 0.90103 0.70815 0.0
H236 H 0.0649 0.89474 0.65301 0.0
H237 H 0.15841 0.98153 0.44947 0.0
H238 H 0.17116 0.96815 0.54799 0.0
H239 H 0.16828 0.94467 0.46064 0.0
H240 H 0.19574 0.91233 0.75743 0.0
H241 H 0.18931 0.85829 0.5415 0.0
H242 H 0.12749 0.9427 0.74327 0.0
H243 H 0.15214 0.96588 0.69225 0.0
H244 H 0.1625 0.94792 0.78685 0.0
H245 H 0.12002 0.87789 0.48135 0.0
H246 H 0.15269 0.86251 0.44348 0.0
H247 H 0.14474 0.89949 0.42511 0.0
C248 C 0.3419 0.93788 0.76317 0.0
C249 C 0.35027 0.91045 0.78708 0.0
C250 C 0.35868 0.96162 0.78244 0.0
C251 C 0.38428 0.95782 0.82744 0.0
C252 C 0.39315 0.93015 0.85049 0.0
C253 C 0.37608 0.90672 0.82956 0.0
C254 C 0.34877 0.99081 0.75592 0.0
C255 C 0.42026 0.92539 0.89907 0.0
C256 C 0.43883 0.01715 0.82246 0.0
C257 C 0.43313 0.03137 0.89763 0.0
C258 C 0.42313 0.99311 0.79888 0.0
C259 C 0.4014 0.98293 0.85211 0.0
C260 C 0.39563 -0.00298 0.92827 0.0
C261 C 0.41149 0.0212 0.94996 0.0
C262 C 0.42964 0.97873 0.71678 0.0
C263 C 0.3727 0.98657 -0.0132 0.0
H264 H 0.32206 0.94087 0.72981 0.0
H265 H 0.38257 0.88558 0.8486 0.0
H266 H 0.34478 0.00414 0.81183 0.0
H267 H 0.36556 0.00156 0.71881 0.0
H268 H 0.32897 0.98996 0.71812 0.0
H269 H 0.42455 0.90245 0.91003 0.0
H270 H 0.4386 0.93475 0.8652 0.0
H271 H 0.41888 0.93628 0.96036 0.0
H272 H 0.45545 0.02493 0.78149 0.0
H273 H 0.40708 0.03198 0.00833 0.0
H274 H 0.41046 0.97884 0.67641 0.0
H275 H 0.43543 0.95616 0.72759 0.0
H276 H 0.44732 0.98929 0.68272 0.0
H277 H 0.35175 0.98711 0.95494 0.0
H278 H 0.37135 -0.00043 0.04456 0.0
H279 H 0.37685 0.96414 0.00452 0.0
C280 C 0.42524 0.21268 0.07906 0.0
C281 C 0.41926 0.18788 0.03366 0.0
C282 C 0.40328 0.23079 0.10493 0.0
C283 C 0.37482 0.22399 0.08406 0.0
C284 C 0.36878 0.19958 0.03553 0.0
C285 C 0.39108 0.18174 0.01121 0.0
C286 C 0.41041 0.25661 0.15702 0.0
C287 C 0.33868 0.19186 0.01128 0.0
C288 C 0.31388 0.24993 0.21804 0.0
C289 C 0.30317 0.27235 0.16969 0.0
C290 C 0.33779 0.23455 0.19203 0.0
C291 C 0.35111 0.24166 0.11561 0.0
C292 C 0.34081 0.26462 0.06738 0.0
C293 C 0.31699 0.27977 0.09514 0.0
C294 C 0.3484 0.21028 0.24535 0.0
C295 C 0.35444 0.27267 0.98535 0.0
H296 H 0.44697 0.21744 0.09695 0.0
H297 H 0.38637 0.1627 0.97557 0.0
H298 H 0.40097 0.27599 0.1289 0.0
H299 H 0.4011 0.2542 0.22025 0.0
H300 H 0.43372 0.25985 0.16349 0.0
H301 H 0.33779 0.173 0.96955 0.0
H302 H 0.32604 0.1872 0.06814 0.0
H303 H 0.32834 0.21003 0.97918 0.0
H304 H 0.30344 0.24421 0.27598 0.0
H305 H 0.30888 0.29709 0.05737 0.0
H306 H 0.37137 0.21307 0.25909 0.0
H307 H 0.34601 0.18993 0.21095 0.0
H308 H 0.33668 0.20855 0.30533 0.0
H309 H 0.37755 0.27649 -0.00589 0.0
H310 H 0.34477 0.29203 0.95753 0.0
H311 H 0.35218 0.25488 0.94034 0.0
C312 C 0.9119 0.95604 0.5787 0.0
C313 C 0.91428 0.98552 0.59007 0.0
C314 C 0.8877 0.94127 0.60584 0.0
C315 C 0.8653 0.95639 0.64466 0.0
C316 C 0.8676 0.98608 0.6568 0.0
C317 C 0.8921 0.0003 0.62955 0.0
C318 C 0.88597 0.90951 0.59227 0.0
C319 C 0.844 0.00289 0.69742 0.0
C320 C 0.79331 0.92084 0.63094 0.0
C321 C 0.79126 0.90768 0.70926 0.0
C322 C 0.81685 0.93766 0.6103 0.0
C323 C 0.83898 0.9412 0.66922 0.0
C324 C 0.83654 0.92898 0.74965 0.0
C325 C 0.81256 0.91244 0.76895 0.0
C326 C 0.81855 0.95073 0.52429 0.0
C327 C 0.85982 0.93231 0.8139 0.0
H328 H 0.929 0.94444 0.54879 0.0
H329 H 0.89373 0.02309 0.6386 0.0
H330 H 0.88209 0.89853 0.65251 0.0
H331 H 0.86781 0.90444 0.55059 0.0
H332 H 0.90569 0.90077 0.56404 0.0
H333 H 0.84951 0.02575 0.70461 0.0
H334 H 0.82434 0.0012 0.65939 0.0
H335 H 0.8391 0.99397 0.7599 0.0
H336 H 0.77676 0.91747 0.58482 0.0
H337 H 0.81112 0.90224 0.82949 0.0
H338 H 0.83635 0.94099 0.48904 0.0
H339 H 0.82298 0.97386 0.52895 0.0
H340 H 0.79862 0.94765 0.48806 0.0
H341 H 0.87934 0.9214 0.79186 0.0
H342 H 0.85373 0.92324 0.8754 0.0
H343 H 0.86524 0.9551 0.82233 0.0
C344 C 0.92292 0.1428 0.50543 0.0
C345 C 0.92857 0.12304 0.44206 0.0
C346 C 0.90623 0.16691 0.48961 0.0
C347 C 0.89475 0.17107 0.40886 0.0
C348 C 0.89972 0.15079 0.34538 0.0
C349 C 0.91667 0.12707 0.36266 0.0
C350 C 0.90142 0.18826 0.55859 0.0
C351 C 0.88749 0.15436 0.25877 0.0
C352 C 0.83217 0.22049 0.37808 0.0
C353 C 0.84541 0.24468 0.34434 0.0
C354 C 0.84805 0.19652 0.4007 0.0
C355 C 0.87788 0.19685 0.38985 0.0
C356 C 0.89148 0.22133 0.35729 0.0
C357 C 0.87505 0.24495 0.33453 0.0
C358 C 0.83284 0.17065 0.4346 0.0
C359 C 0.92334 0.22242 0.34547 0.0
H360 H 0.93216 0.13986 0.56681 0.0
H361 H 0.92078 0.11177 0.31353 0.0
H362 H 0.9106 0.20912 0.54049 0.0
H363 H 0.8783 0.1915 0.56851 0.0
H364 H 0.91118 0.18148 0.61852 0.0
H365 H 0.89256 0.1361 0.21736 0.0
H366 H 0.86404 0.15665 0.26217 0.0
H367 H 0.89602 0.17405 0.22988 0.0
H368 H 0.80927 0.22007 0.38582 0.0
H369 H 0.88545 0.26363 0.30908 0.0
H370 H 0.84183 0.16464 0.49612 0.0
H371 H 0.83607 0.15234 0.39199 0.0
H372 H 0.80962 0.17422 0.44191 0.0
H373 H 0.93426 0.21749 0.40514 0.0
H374 H 0.93074 0.24355 0.32313 0.0
H375 H 0.92994 0.20606 0.29952 0.0
C376 C 0.70395 0.2368 0.12213 0.0
C377 C 0.70658 0.24945 0.20104 0.0
C378 C 0.68032 0.21997 0.10215 0.0
C379 C 0.65871 0.21592 0.16233 0.0
C380 C 0.66169 0.22772 0.24314 0.0
C381 C 0.68574 0.24426 0.26175 0.0
C382 C 0.67804 0.20736 0.01567 0.0
C383 C 0.63896 0.22385 0.30872 0.0
C384 C 0.58511 0.20041 0.0771 0.0
C385 C 0.58319 0.17088 0.08806 0.0
C386 C 0.60942 0.21541 0.10251 0.0
C387 C 0.63239 0.20045 0.13903 0.0
C388 C 0.63058 0.17069 0.15052 0.0
C389 C 0.60595 0.15626 0.12514 0.0
C390 C 0.6106 0.24723 0.08975 0.0
C391 C 0.65479 0.15406 0.1886 0.0
H392 H 0.72012 0.24052 0.07516 0.0
H393 H 0.68762 0.25407 0.32275 0.0
H394 H 0.67399 0.18414 0.01958 0.0
H395 H 0.65977 0.21701 0.98221 0.0
H396 H 0.69758 0.21093 0.97812 0.0
H397 H 0.64534 0.23288 0.37003 0.0
H398 H 0.61909 0.23446 0.28809 0.0
H399 H 0.63402 0.20095 0.31702 0.0
H400 H 0.56756 0.21188 0.04902 0.0
H401 H 0.60468 0.13343 0.13375 0.0
H402 H 0.62835 0.25269 0.04703 0.0
H403 H 0.61483 0.25805 0.15004 0.0
H404 H 0.59054 0.25578 0.06312 0.0
H405 H 0.67409 0.15629 0.1493 0.0
H406 H 0.64972 0.13107 0.19504 0.0
H407 H 0.66008 0.16269 0.25115 0.0
C408 C 0.62344 0.91148 0.8388 0.0
C409 C 0.65303 0.91168 0.84973 0.0
C410 C 0.60698 0.93514 0.86099 0.0
C411 C 0.62051 0.95958 0.89411 0.0
C412 C 0.6503 0.95985 0.90595 0.0
C413 C 0.66621 0.93584 0.88389 0.0
C414 C 0.57516 0.93412 0.84811 0.0
C415 C 0.66545 0.98567 0.94045 0.0
C416 C 0.5818 0.02942 0.86688 0.0
C417 C 0.56967 0.0333 0.94601 0.0
C418 C 0.59882 0.00574 0.84971 0.0
C419 C 0.60361 0.98534 0.91301 0.0
C420 C 0.59192 0.98935 -0.00649 0.0
C421 C 0.57517 0.01342 0.00924 0.0
C422 C 0.61128 0.00232 0.76339 0.0
C423 C 0.59654 0.96789 0.0623 0.0
H424 H 0.61309 0.89283 0.813 0.0
H425 H 0.68908 0.93621 0.89245 0.0
H426 H 0.56405 0.93893 0.90752 0.0
H427 H 0.56873 0.95059 0.80227 0.0
H428 H 0.56781 0.91305 0.82514 0.0
H429 H 0.68865 0.98209 0.94817 0.0
H430 H 0.66229 0.00405 0.89801 0.0
H431 H 0.65633 0.99159 0.00186 0.0
H432 H 0.5778 0.0448 0.81787 0.0
H433 H 0.56575 0.01625 0.07041 0.0
H434 H 0.60281 0.9827 0.73394 0.0
H435 H 0.63472 -2e-05 0.76739 0.0
H436 H 0.60636 0.02067 0.72215 0.0
H437 H 0.5874 0.94706 0.04366 0.0
H438 H 0.58662 0.97456 0.12208 0.0
H439 H 0.61963 0.96462 0.07279 0.0
C440 C 0.58565 0.63607 0.96204 0.0
C441 C 0.56421 0.62586 0.90901 0.0
C442 C 0.60169 0.66013 0.94051 0.0
C443 C 0.59631 0.67406 0.86382 0.0
C444 C 0.57475 0.66387 0.80997 0.0
C445 C 0.55886 0.63994 0.83339 0.0
C446 C 0.62443 0.67062 -0.00031 0.0
C447 C 0.56864 0.67808 0.72733 0.0
C448 C 0.62206 0.75005 0.83968 0.0
C449 C 0.64793 0.74606 0.79786 0.0
C450 C 0.60486 0.72677 0.86108 0.0
C451 C 0.61368 0.69899 0.83919 0.0
C452 C 0.63939 0.6949 0.79506 0.0
C453 C 0.6563 0.7185 0.77528 0.0
C454 C 0.57763 0.73184 0.90873 0.0
C455 C 0.64926 0.66556 0.76984 0.0
H456 H 0.58979 0.6254 0.02076 0.0
H457 H 0.54239 0.63213 0.7919 0.0
H458 H 0.64552 0.66983 0.96872 0.0
H459 H 0.62037 0.69313 0.01663 0.0
H460 H 0.62545 0.6578 0.05786 0.0
H461 H 0.551 0.66758 0.69291 0.0
H462 H 0.56299 0.70072 0.73743 0.0
H463 H 0.58797 0.67771 0.68763 0.0
H464 H 0.61557 0.7713 0.85772 0.0
H465 H 0.6762 0.71531 0.74247 0.0
H466 H 0.57872 0.72105 0.97025 0.0
H467 H 0.55934 0.72255 0.87443 0.0
H468 H 0.57347 0.75482 0.91916 0.0
H469 H 0.65287 0.65238 0.82628 0.0
H470 H 0.66925 0.66617 0.73295 0.0
H471 H 0.63259 0.65481 0.73222 0.0
C472 C 0.68186 0.37771 0.08274 0.0
C473 C 0.69608 0.38459 0.15715 0.0
C474 C 0.65771 0.39286 0.05743 0.0
C475 C 0.64749 0.41525 0.10802 0.0
C476 C 0.66127 0.42183 0.18418 0.0
C477 C 0.68549 0.40648 0.20771 0.0
C478 C 0.6436 0.3854 0.97558 0.0
C479 C 0.65078 0.44551 0.23996 0.0
C480 C 0.60617 0.4759 0.01222 0.0
C481 C 0.57826 0.46935 0.03644 0.0
C482 C 0.62879 0.45792 0.03281 0.0
C483 C 0.62336 0.43293 0.07935 0.0
C484 C 0.59515 0.42569 0.10174 0.0
C485 C 0.57284 0.44397 0.07959 0.0
C486 C 0.6586 0.46613 0.00701 0.0
C487 C 0.58867 0.39923 0.15174 0.0
H488 H 0.68989 0.36081 0.04329 0.0
H489 H 0.69621 0.41177 0.26557 0.0
H490 H 0.62061 0.38121 0.98535 0.0
H491 H 0.64532 0.40364 0.9319 0.0
H492 H 0.65331 0.36644 0.94568 0.0
H493 H 0.66295 0.44688 0.29927 0.0
H494 H 0.65262 0.46618 0.20694 0.0
H495 H 0.62796 0.44228 0.25497 0.0
H496 H 0.61043 0.49538 0.97818 0.0
H497 H 0.55132 0.43887 0.09872 0.0
H498 H 0.66884 0.44834 0.97294 0.0
H499 H 0.67166 0.47047 0.0633 0.0
H500 H 0.65895 0.48533 0.96659 0.0
H501 H 0.59813 0.38028 0.1213 0.0
H502 H 0.56545 0.39566 0.15922 0.0
H503 H 0.5984 0.40107 0.21463 0.0
C504 C 0.91157 0.52212 0.44347 0.0
C505 C 0.93321 0.53224 0.39106 0.0
C506 C 0.89587 0.4978 0.42229 0.0
C507 C 0.90178 0.4835 0.34655 0.0
C508 C 0.92347 0.49366 0.29316 0.0
C509 C 0.93903 0.51786 0.31625 0.0
C510 C 0.87296 0.48739 0.48096 0.0
C511 C 0.93013 0.47908 0.21149 0.0
C512 C 0.8768 0.40709 0.32706 0.0
C513 C 0.85091 0.41053 0.28484 0.0
C514 C 0.89383 0.43068 0.34669 0.0
C515 C 0.88484 0.4582 0.32256 0.0
C516 C 0.85919 0.46169 0.27761 0.0
C517 C 0.84244 0.43781 0.25967 0.0
C518 C 0.92101 0.42625 0.39526 0.0
C519 C 0.84915 0.49071 0.24993 0.0
H520 H 0.90706 0.53302 0.50157 0.0
H521 H 0.95565 0.52561 0.27523 0.0
H522 H 0.85203 0.48766 0.44893 0.0
H523 H 0.87726 0.46505 0.49942 0.0
H524 H 0.87145 0.50058 0.53831 0.0
H525 H 0.94773 0.48968 0.17716 0.0
H526 H 0.93611 0.4566 0.22295 0.0
H527 H 0.91095 0.47889 0.17108 0.0
H528 H 0.88336 0.38607 0.34702 0.0
H529 H 0.82254 0.44057 0.22643 0.0
H530 H 0.91956 0.43729 0.45631 0.0
H531 H 0.93926 0.43566 0.36112 0.0
H532 H 0.92548 0.40338 0.40673 0.0
H533 H 0.84499 0.50423 0.30532 0.0
H534 H 0.82941 0.48959 0.21189 0.0
H535 H 0.86593 0.50142 0.21268 0.0
C536 C 0.81644 0.78034 0.58548 0.0
C537 C 0.8024 0.77247 0.65928 0.0
C538 C 0.84035 0.76538 0.55753 0.0
C539 C 0.85051 0.74213 0.6048 0.0
C540 C 0.83693 0.73451 0.68039 0.0
C541 C 0.81294 0.74972 0.70662 0.0
C542 C 0.85427 0.77398 0.47639 0.0
C543 C 0.84738 0.7099 0.73266 0.0
C544 C 0.89115 0.68286 0.49945 0.0
C545 C 0.91918 0.68888 0.5237 0.0
C546 C 0.8687 0.70059 0.52328 0.0
C547 C 0.87443 0.72475 0.57318 0.0
C548 C 0.90276 0.73149 0.59565 0.0
C549 C 0.92489 0.7135 0.57021 0.0
C550 C 0.83875 0.69295 0.49725 0.0
C551 C 0.90957 0.75705 0.64918 0.0
H552 H 0.80847 0.79791 0.54848 0.0
H553 H 0.80233 0.74363 0.76397 0.0
H554 H 0.87731 0.77786 0.48614 0.0
H555 H 0.85228 0.75644 0.43041 0.0
H556 H 0.84461 0.79344 0.44922 0.0
H557 H 0.83537 0.7077 0.79201 0.0
H558 H 0.84525 0.68979 0.69693 0.0
H559 H 0.87026 0.71269 0.74754 0.0
H560 H 0.88666 0.66397 0.4629 0.0
H561 H 0.94651 0.71817 0.58947 0.0
H562 H 0.8285 0.71132 0.46591 0.0
H563 H 0.82586 0.68781 0.55325 0.0
H564 H 0.83814 0.67442 0.45427 0.0
H565 H 0.90012 0.77653 0.62175 0.0
H566 H 0.93284 0.76037 0.65651 0.0
H567 H 0.90006 0.75422 0.71201 0.0
C568 C 0.29396 0.42066 0.14008 0.0
C569 C 0.2917 0.40771 0.21867 0.0
C570 C 0.31744 0.43762 0.11985 0.0
C571 C 0.33928 0.44154 0.17947 0.0
C572 C 0.33663 0.42952 0.26009 0.0
C573 C 0.31272 0.41282 0.27896 0.0
C574 C 0.31936 0.45047 0.03359 0.0
C575 C 0.35961 0.43326 0.32508 0.0
C576 C 0.41239 0.45703 0.09113 0.0
C577 C 0.41437 0.48656 0.10189 0.0
C578 C 0.38827 0.44203 0.11781 0.0
C579 C 0.36554 0.45698 0.15552 0.0
C580 C 0.36743 0.48673 0.16706 0.0
C581 C 0.39187 0.50117 0.1403 0.0
C582 C 0.38697 0.41022 0.10492 0.0
C583 C 0.34347 0.50335 0.20648 0.0
H584 H 0.27762 0.41702 0.09348 0.0
H585 H 0.31111 0.4028 0.33972 0.0
H586 H 0.32349 0.47367 0.03786 0.0
H587 H 0.33745 0.44086 -0.00072 0.0
H588 H 0.29964 0.44704 -0.00334 0.0
H589 H 0.35338 0.42425 0.38653 0.0
H590 H 0.37934 0.42254 0.30393 0.0
H591 H 0.36471 0.45613 0.33328 0.0
H592 H 0.42974 0.44556 0.06205 0.0
H593 H 0.39319 0.524 0.14887 0.0
H594 H 0.36905 0.40482 0.06269 0.0
H595 H 0.38296 0.39935 0.16526 0.0
H596 H 0.40692 0.40164 0.07762 0.0
H597 H 0.32399 0.50135 0.16778 0.0
H598 H 0.34869 0.52629 0.21337 0.0
H599 H 0.33841 0.49454 0.26896 0.0
C600 C 0.41544 0.62724 0.87295 0.0
C601 C 0.42753 0.6239 0.95238 0.0
C602 C 0.39854 0.65085 0.8541 0.0
C603 C 0.39381 0.67173 0.91603 0.0
C604 C 0.40542 0.66826 -0.0031 0.0
C605 C 0.42206 0.64423 0.01432 0.0
C606 C 0.38615 0.65368 0.76746 0.0
C607 C 0.40085 0.69025 0.06424 0.0
C608 C 0.37434 0.74501 0.83612 0.0
C609 C 0.34472 0.74498 0.84645 0.0
C610 C 0.3907 0.72152 0.86047 0.0
C611 C 0.37704 0.69742 0.89523 0.0
C612 C 0.34723 0.69733 0.9065 0.0
C613 C 0.33143 0.72116 0.88222 0.0
C614 C 0.42253 0.72234 0.84806 0.0
C615 C 0.33195 0.67187 0.94272 0.0
H616 H 0.4194 0.61148 0.82495 0.0
H617 H 0.43146 0.64182 0.0757 0.0
H618 H 0.36272 0.65616 0.77106 0.0
H619 H 0.39474 0.67303 0.73682 0.0
H620 H 0.39101 0.635 0.72747 0.0
H621 H 0.41063 0.68394 0.12458 0.0
H622 H 0.41016 0.71088 0.04443 0.0
H623 H 0.37777 0.69375 0.07414 0.0
H624 H 0.38478 0.7634 0.80909 0.0
H625 H 0.30854 0.72092 0.8904 0.0
H626 H 0.42897 0.7055 0.80342 0.0
H627 H 0.43354 0.71793 0.90795 0.0
H628 H 0.42999 0.7432 0.82383 0.0
H629 H 0.33504 0.65314 0.9016 0.0
H630 H 0.30876 0.67561 0.95001 0.0
H631 H 0.34101 0.6664 0.0046 0.0
C632 C 0.20409 0.73592 0.62358 0.0
C633 C 0.20633 0.74911 0.70183 0.0
C634 C 0.18041 0.71923 0.60324 0.0
C635 C 0.15835 0.71585 0.66237 0.0
C636 C 0.16094 0.72816 0.74265 0.0
C637 C 0.18505 0.74456 0.76166 0.0
C638 C 0.17855 0.70606 0.51739 0.0
C639 C 0.13773 0.72502 0.8071 0.0
C640 C 0.08518 0.70074 0.5735 0.0
C641 C 0.08282 0.6713 0.58582 0.0
C642 C 0.10947 0.71559 0.59966 0.0
C643 C 0.13198 0.70059 0.6384 0.0
C644 C 0.12972 0.67093 0.65136 0.0
C645 C 0.10512 0.65665 0.62513 0.0
C646 C 0.11116 0.74731 0.58525 0.0
C647 C 0.15344 0.65424 0.69186 0.0
H648 H 0.22061 0.73914 0.57733 0.0
H649 H 0.18664 0.75478 0.82212 0.0
H650 H 0.17414 0.68293 0.52238 0.0
H651 H 0.16066 0.71573 0.48229 0.0
H652 H 0.1984 0.7091 0.48083 0.0
H653 H 0.14385 0.73431 0.86829 0.0
H654 H 0.11817 0.73579 0.78481 0.0
H655 H 0.13238 0.70224 0.81627 0.0
H656 H 0.06799 0.71225 0.54368 0.0
H657 H 0.10351 0.63388 0.63484 0.0
H658 H 0.12926 0.75227 0.54326 0.0
H659 H 0.11514 0.75846 0.64518 0.0
H660 H 0.09139 0.75595 0.55702 0.0
H661 H 0.17303 0.65592 0.65356 0.0
H662 H 0.148 0.63137 0.69938 0.0
H663 H 0.15843 0.66324 0.75416 0.0
C664 C 0.12349 0.41093 0.34664 0.0
C665 C 0.15306 0.41128 0.35794 0.0
C666 C 0.10692 0.43466 0.36734 0.0
C667 C 0.12032 0.45935 0.39931 0.0
C668 C 0.15009 0.45975 0.41176 0.0
C669 C 0.1661 0.43566 0.39121 0.0
C670 C 0.07513 0.43348 0.35391 0.0
C671 C 0.16509 0.48583 0.44511 0.0
C672 C 0.08162 0.52894 0.36686 0.0
C673 C 0.06931 0.53339 0.44548 0.0
C674 C 0.09868 0.50514 0.35153 0.0
C675 C 0.10333 0.48521 0.4162 0.0
C676 C 0.09142 0.48979 0.49616 0.0
C677 C 0.07463 0.51396 0.51002 0.0
C678 C 0.11137 0.50111 0.26572 0.0
C679 C 0.09588 0.46883 0.56637 0.0
H680 H 0.11324 0.39211 0.32153 0.0
H681 H 0.18896 0.43615 0.40007 0.0
H682 H 0.06387 0.43877 0.41273 0.0
H683 H 0.06879 0.44955 0.30676 0.0
H684 H 0.06787 0.41221 0.33231 0.0
H685 H 0.18827 0.48231 0.45384 0.0
H686 H 0.1621 0.50388 0.40138 0.0
H687 H 0.15574 0.49221 0.50582 0.0
H688 H 0.07775 0.54397 0.31683 0.0
H689 H 0.06508 0.51722 0.57081 0.0
H690 H 0.10302 0.48125 0.23737 0.0
H691 H 0.13481 0.49886 0.2704 0.0
H692 H 0.10651 0.51913 0.22321 0.0
H693 H 0.08684 0.44784 0.54878 0.0
H694 H 0.08576 0.4759 0.62546 0.0
H695 H 0.11894 0.46569 0.57766 0.0
C696 C 0.01361 0.05892 0.85238 0.0
C697 C 0.02314 0.04223 0.7862 0.0
C698 C 0.01309 0.04791 0.93343 0.0
C699 C 0.02104 0.01916 0.94699 0.0
C700 C 0.03145 0.00249 0.88043 0.0
C701 C 0.03281 0.01446 0.80067 0.0
C702 C 0.00295 0.06669 0.00388 0.0
C703 C 0.03918 0.97156 0.89186 0.0
C704 C 0.03268 0.00597 0.17438 0.0
C705 C 0.00461 0.00135 0.19983 0.0
C706 C 0.03923 0.00895 0.08988 0.0
C707 C 0.0171 0.00666 0.03061 0.0
C708 C 0.98954 -0.00211 0.05575 0.0
C709 C 0.98342 0.99584 0.14106 0.0
C710 C 0.0688 0.01846 0.06571 0.0
C711 C 0.96578 0.994 -0.00658 0.0
H712 H 0.00597 0.08029 0.8403 0.0
H713 H 0.03954 0.0014 0.74848 0.0
H714 H 0.98207 0.05895 0.0269 0.0
H715 H 0.01812 0.06585 0.0569 0.0
H716 H 0.00051 0.08922 0.98415 0.0
H717 H 0.05157 0.96322 0.83815 0.0
H718 H 0.05163 0.96827 0.94984 0.0
H719 H 0.01937 0.95883 0.89756 0.0
H720 H 0.04886 0.01048 0.22089 0.0
H721 H 0.96169 0.99251 0.16161 0.0
H722 H 0.06864 0.04175 0.05425 0.0
H723 H 0.0759 0.00797 0.0074 0.0
H724 H 0.08452 0.01394 0.11576 0.0
H725 H 0.95766 0.01515 0.97406 0.0
H726 H 0.9478 0.98168 0.02032 0.0
H727 H 0.97356 0.98294 0.93668 0.0
C728 C 0.33023 0.816 0.40274 0.0
C729 C 0.32168 0.83602 0.4618 0.0
C730 C 0.32728 0.8219 0.31748 0.0
C731 C 0.31453 0.84787 0.29265 0.0
C732 C 0.30902 0.8693 0.35224 0.0
C733 C 0.31299 0.86313 0.43663 0.0
C734 C 0.33462 0.7991 0.25484 0.0
C735 C 0.29519 0.89713 0.32849 0.0
C736 C 0.30453 0.86303 0.06299 0.0
C737 C 0.27846 0.84941 0.04804 0.0
C738 C 0.31659 0.86313 0.14278 0.0
C739 C 0.30164 0.85009 0.20894 0.0
C740 C 0.27436 0.838 0.19495 0.0
C741 C 0.26337 0.83722 0.11386 0.0
C742 C 0.34605 0.87534 0.15466 0.0
C743 C 0.25727 0.82489 0.26498 0.0
H744 H 0.33671 0.79497 0.42301 0.0
H745 H 0.30616 0.87838 0.48334 0.0
H746 H 0.31491 0.7879 0.23536 0.0
H747 H 0.34438 0.80857 0.19822 0.0
H748 H 0.34948 0.78315 0.28151 0.0
H749 H 0.29729 0.91326 0.37881 0.0
H750 H 0.30451 0.90588 0.27035 0.0
H751 H 0.2722 0.89343 0.31689 0.0
H752 H 0.31647 0.87184 0.0111 0.0
H753 H 0.24334 0.82653 0.10145 0.0
H754 H 0.36149 0.85763 0.16079 0.0
H755 H 0.34738 0.88817 0.2126 0.0
H756 H 0.35263 0.88882 0.10102 0.0
H757 H 0.26802 0.80535 0.28757 0.0
H758 H 0.23537 0.81912 0.245 0.0
H759 H 0.25583 0.83985 0.31837 0.0
C760 C 0.46244 0.14649 0.67869 0.0
C761 C 0.49003 0.1536 0.70388 0.0
C762 C 0.45597 0.14324 0.59424 0.0
C763 C 0.47764 0.14781 0.5347 0.0
C764 C 0.5043 0.15908 0.5597 0.0
C765 C 0.51045 0.16137 0.64499 0.0
C766 C 0.42737 0.13105 0.57026 0.0
C767 C 0.52742 0.16542 0.4971 0.0
C768 C 0.48535 0.09627 0.35586 0.0
C769 C 0.47403 0.11203 0.29008 0.0
C770 C 0.48523 0.10726 0.43693 0.0
C771 C 0.47471 0.13514 0.45094 0.0
C772 C 0.4625 0.15079 0.38485 0.0
C773 C 0.46191 0.13878 0.30506 0.0
C774 C 0.49739 0.08947 0.5069 0.0
C775 C 0.45195 0.18085 0.39677 0.0
H776 H 0.44686 0.14031 0.7253 0.0
H777 H 0.53182 0.16667 0.66531 0.0
H778 H 0.41914 0.14103 0.51242 0.0
H779 H 0.4297 0.10792 0.55806 0.0
H780 H 0.41142 0.13387 0.62072 0.0
H781 H 0.54419 0.17936 0.52404 0.0
H782 H 0.53751 0.14522 0.4771 0.0
H783 H 0.51846 0.17582 0.44076 0.0
H784 H 0.49486 0.0757 0.34343 0.0
H785 H 0.45377 0.1512 0.2532 0.0
H786 H 0.48236 0.08874 0.56024 0.0
H787 H 0.51747 0.09919 0.52959 0.0
H788 H 0.50196 0.06732 0.48683 0.0
H789 H 0.43949 0.18292 0.45519 0.0
H790 H 0.43859 0.18801 0.34355 0.0
H791 H 0.47049 0.19538 0.40189 0.0
C792 C 0.18632 0.29267 0.95328 0.0
C793 C 0.17719 0.31961 0.97866 0.0
C794 C 0.19017 0.28661 0.86881 0.0
C795 C 0.18411 0.30798 0.80946 0.0
C796 C 0.17091 0.33368 0.83459 0.0
C797 C 0.16806 0.33948 0.9199 0.0
C798 C 0.20447 0.25907 0.84471 0.0
C799 C 0.163 0.35637 0.77219 0.0
C800 C 0.23498 0.31974 0.63084 0.0
C801 C 0.2201 0.30727 0.565 0.0
C802 C 0.22402 0.31873 0.71188 0.0
C803 C 0.19698 0.30611 0.72575 0.0
C804 C 0.18224 0.29283 0.65957 0.0
C805 C 0.19428 0.29318 0.57983 0.0
C806 C 0.24088 0.33213 0.78198 0.0
C807 C 0.15302 0.28006 0.67139 0.0
H808 H 0.19356 0.27753 -0.0002 0.0
H809 H 0.16121 0.36037 0.9404 0.0
H810 H 0.19524 0.25021 0.78656 0.0
H811 H 0.22738 0.2632 0.83302 0.0
H812 H 0.20272 0.24285 0.89491 0.0
H813 H 0.14784 0.37198 0.79911 0.0
H814 H 0.18244 0.368 0.75264 0.0
H815 H 0.15337 0.34675 0.71557 0.0
H816 H 0.25481 0.33078 0.61849 0.0
H817 H 0.18251 0.28416 0.52789 0.0
H818 H 0.24267 0.31714 0.83523 0.0
H819 H 0.22973 0.3514 0.80478 0.0
H820 H 0.26264 0.33838 0.762 0.0
H821 H 0.14666 0.26653 0.61764 0.0
H822 H 0.13726 0.29747 0.67777 0.0
H823 H 0.15197 0.26714 0.72921 0.0
C824 C 0.83125 0.31587 0.90428 0.0
C825 C 0.82238 0.33604 0.96248 0.0
C826 C 0.82865 0.32154 0.81881 0.0
C827 C 0.81598 0.34743 0.79298 0.0
C828 C 0.81027 0.36905 0.85181 0.0
C829 C 0.81384 0.3631 0.93645 0.0
C830 C 0.8362 0.29856 0.75698 0.0
C831 C 0.79658 0.39683 0.82691 0.0
C832 C 0.80609 0.36207 0.56312 0.0
C833 C 0.77994 0.34857 0.54848 0.0
C834 C 0.81819 0.36221 0.64282 0.0
C835 C 0.8032 0.34933 0.70915 0.0
C836 C 0.7759 0.33726 0.6954 0.0
C837 C 0.76486 0.33645 0.6144 0.0
C838 C 0.84768 0.37437 0.6545 0.0
C839 C 0.75879 0.3243 0.76563 0.0
H840 H 0.83766 0.29491 0.92528 0.0
H841 H 0.80682 0.37847 0.98256 0.0
H842 H 0.81656 0.28723 0.73747 0.0
H843 H 0.84605 0.30786 0.70026 0.0
H844 H 0.85104 0.28274 0.78441 0.0
H845 H 0.79854 0.41311 0.87688 0.0
H846 H 0.80613 0.40539 0.76884 0.0
H847 H 0.77362 0.39314 0.81471 0.0
H848 H 0.81802 0.37081 0.51111 0.0
H849 H 0.74477 0.32585 0.60218 0.0
H850 H 0.86307 0.35664 0.66103 0.0
H851 H 0.84904 0.38733 0.7122 0.0
H852 H 0.85431 0.38771 0.60062 0.0
H853 H 0.76959 0.30488 0.78885 0.0
H854 H 0.73693 0.31839 0.74565 0.0
H855 H 0.75724 0.33943 0.8186 0.0
C856 C 0.68606 0.79257 0.44444 0.0
C857 C 0.67666 0.81943 0.46967 0.0
C858 C 0.69007 0.78651 0.36002 0.0
C859 C 0.6839 0.8078 0.30051 0.0
C860 C 0.67045 0.83339 0.32544 0.0
C861 C 0.66744 0.8392 0.41072 0.0
C862 C 0.70464 0.75909 0.33616 0.0
C863 C 0.6624 0.85598 0.26287 0.0
C864 C 0.73471 0.81983 0.12183 0.0
C865 C 0.71995 0.80721 0.05602 0.0
C866 C 0.72374 0.81879 0.20287 0.0
C867 C 0.6968 0.80596 0.2168 0.0
C868 C 0.6822 0.79251 0.15066 0.0
C869 C 0.69425 0.7929 0.07092 0.0
C870 C 0.74047 0.83238 0.27291 0.0
C871 C 0.65308 0.77949 0.1625 0.0
H872 H 0.69338 0.77751 0.49108 0.0
H873 H 0.6604 0.86004 0.43105 0.0
H874 H 0.69553 0.7501 0.27803 0.0
H875 H 0.72752 0.76342 0.32455 0.0
H876 H 0.70301 0.74289 0.38645 0.0
H877 H 0.64711 0.87149 0.28962 0.0
H878 H 0.68177 0.86775 0.24334 0.0
H879 H 0.65288 0.84625 0.20625 0.0
H880 H 0.75444 0.83104 0.10945 0.0
H881 H 0.68256 0.78374 0.01903 0.0
H882 H 0.74237 0.81745 0.32628 0.0
H883 H 0.72917 0.85159 0.29554 0.0
H884 H 0.76219 0.83879 0.25294 0.0
H885 H 0.65214 0.7666 0.22039 0.0
H886 H 0.64685 0.76587 0.10882 0.0
H887 H 0.63717 0.79677 0.16875 0.0
C888 C 0.48515 0.49614 0.65514 0.0
C889 C 0.50597 0.50318 0.71367 0.0
C890 C 0.49109 0.49841 0.56974 0.0
C891 C 0.51799 0.50895 0.5443 0.0
C892 C 0.53998 0.51276 0.6034 0.0
C893 C 0.53368 0.50952 0.68794 0.0
C894 C 0.4676 0.49286 0.50761 0.0
C895 C 0.56884 0.52417 0.57894 0.0
C896 C 0.53368 0.51773 0.31462 0.0
C897 C 0.52244 0.54489 0.29995 0.0
C898 C 0.53272 0.50563 0.39426 0.0
C899 C 0.52109 0.52158 0.46056 0.0
C900 C 0.5114 0.54979 0.44684 0.0
C901 C 0.5116 0.56089 0.36588 0.0
C902 C 0.54232 0.47524 0.40587 0.0
C903 C 0.49988 0.56787 0.51705 0.0
H904 H 0.46369 0.49145 0.67588 0.0
H905 H 0.54957 0.51516 0.73427 0.0
H906 H 0.45803 0.51339 0.48822 0.0
H907 H 0.47608 0.48234 0.45087 0.0
H908 H 0.45053 0.47935 0.53472 0.0
H909 H 0.58484 0.52086 0.62905 0.0
H910 H 0.57663 0.51402 0.52086 0.0
H911 H 0.56712 0.54737 0.56693 0.0
H912 H 0.54141 0.50514 0.26264 0.0
H913 H 0.50275 0.58177 0.35368 0.0
H914 H 0.52332 0.46134 0.41195 0.0
H915 H 0.55501 0.47279 0.46376 0.0
H916 H 0.55514 0.46759 0.35214 0.0
H917 H 0.47956 0.5587 0.53992 0.0
H918 H 0.49591 0.59015 0.49717 0.0
H919 H 0.51501 0.56811 0.57023 0.0
C920 C 0.96234 0.64052 0.79898 0.0
C921 C 0.97273 0.61306 0.78398 0.0
C922 C 0.96346 0.65234 0.87898 0.0
C923 C 0.97438 0.63582 0.94521 0.0
C924 C 0.98289 0.60726 0.93116 0.0
C925 C 0.9826 0.59642 0.8499 0.0
C926 C 0.95506 0.68307 0.89089 0.0
C927 C 0.99357 0.58858 0.00121 0.0
C928 C 0.0127 0.65985 0.13756 0.0
C929 C 0.99193 0.65411 0.19737 0.0
C930 C 0.00611 0.65762 0.05256 0.0
C931 C 0.97857 0.64836 0.02871 0.0
C932 C 0.95683 0.64572 0.08904 0.0
C933 C 0.9638 0.64895 0.17321 0.0
C934 C 0.02945 0.66189 -0.01088 0.0
C935 C 0.92731 0.63566 0.06628 0.0
H936 H 0.95532 0.65354 0.74699 0.0
H937 H 0.99079 0.57529 0.83743 0.0
H938 H 0.94293 0.68607 0.94956 0.0
H939 H 0.97459 0.69627 0.89543 0.0
H940 H 0.9421 0.69109 0.83787 0.0
H941 H 0.99622 0.5661 0.98128 0.0
H942 H 0.01443 0.59659 0.02358 0.0
H943 H 0.9786 0.58919 0.05472 0.0
H944 H 0.03448 0.6636 0.1571 0.0
H945 H 0.94796 0.64424 0.2205 0.0
H946 H 0.02116 0.67286 0.93283 0.0
H947 H 0.03776 0.64087 0.96926 0.0
H948 H 0.0474 0.67446 0.0152 0.0
H949 H 0.91971 0.64592 0.00813 0.0
H950 H 0.91178 0.63999 0.11695 0.0
H951 H 0.92781 0.61235 0.05516 0.0
loop_
_geom_bond_atom_site_label_1
_geom_bond_atom_site_label_2
_geom_bond_distance
_geom_bond_site_symmetry_2
_ccdc_geom_bond_type
O0 Zn1 1.953 1_465 S
O0 C16 1.225 1_565 S
Zn1 O0 1.953 1_645 S
Zn1 O2 1.949 1_655 S
Zn1 O8 1.919 . S
Zn1 O13 1.924 1_655 S
O2 Zn1 1.949 1_455 S
O2 Zn3 1.923 1_455 S
O2 Zn4 1.950 . S
O2 Zn5 1.945 1_455 S
Zn3 O2 1.923 1_655 S
Zn3 O6 1.933 . S
Zn3 O9 1.941 . S
Zn3 O10 1.965 . S
Zn4 O2 1.950 . S
Zn4 O11 1.938 . S
Zn4 O12 1.906 . S
Zn4 O22 1.953 . S
Zn5 O2 1.945 1_655 S
Zn5 O7 1.932 . S
Zn5 O14 1.977 1_655 S
Zn5 O15 1.910 1_655 S
O6 Zn3 1.933 . S
O6 C17 1.226 . S
O7 Zn5 1.932 . S
O7 C17 1.307 . S
O8 Zn1 1.919 . S
O8 C19 1.253 . S
O9 Zn3 1.941 . S
O9 C19 1.283 . S
O10 Zn3 1.965 . S
O10 C18 1.303 1_655 S
O11 Zn4 1.938 . S
O11 C18 1.247 . S
O12 Zn4 1.906 . S
O12 C20 1.304 . S
O13 Zn1 1.924 1_455 S
O13 C21 1.311 . S
O14 Zn5 1.977 1_455 S
O14 C20 1.272 . S
O15 Zn5 1.910 1_455 S
O15 C21 1.231 . S
C16 O0 1.225 1_545 S
C16 O22 1.298 . S
C17 O6 1.226 . S
C17 O7 1.307 . S
C18 O10 1.303 1_455 S
C18 O11 1.247 . S
C19 O8 1.253 . S
C19 O9 1.283 . S
C20 O12 1.304 . S
C20 O14 1.272 . S
C21 O13 1.311 . S
C21 O15 1.231 . S
O22 Zn4 1.953 . S
O22 C16 1.298 . S
O23 Zn24 1.953 . S
O23 C39 1.225 . S
Zn24 O23 1.953 . S
Zn24 O25 1.949 . S
Zn24 O31 1.919 . S
Zn24 O36 1.924 . S
O25 Zn24 1.949 . S
O25 Zn26 1.923 . S
O25 Zn27 1.950 . S
O25 Zn28 1.945 . S
Zn26 O25 1.923 . S
Zn26 O29 1.933 . S
Zn26 O32 1.941 . S
Zn26 O33 1.965 . S
Zn27 O25 1.950 . S
Zn27 O34 1.938 . S
Zn27 O35 1.906 . S
Zn27 O45 1.953 . S
Zn28 O25 1.945 . S
Zn28 O30 1.932 . S
Zn28 O37 1.977 . S
Zn28 O38 1.910 . S
O29 Zn26 1.933 . S
O29 C40 1.226 . S
O30 Zn28 1.932 . S
O30 C40 1.307 . S
O31 Zn24 1.919 . S
O31 C42 1.253 . S
O32 Zn26 1.941 . S
O32 C42 1.283 . S
O33 Zn26 1.965 . S
O33 C41 1.303 . S
O34 Zn27 1.938 . S
O34 C41 1.247 . S
O35 Zn27 1.906 . S
O35 C43 1.304 . S
O36 Zn24 1.924 . S
O36 C44 1.311 . S
O37 Zn28 1.977 . S
O37 C43 1.272 . S
O38 Zn28 1.910 . S
O38 C44 1.231 . S
C39 O23 1.225 . S
C39 O45 1.298 . S
C40 O29 1.226 . S
C40 O30 1.307 . S
C41 O33 1.303 . S
C41 O34 1.247 . S
C42 O31 1.253 . S
C42 O32 1.283 . S
C43 O35 1.304 . S
C43 O37 1.272 . S
C44 O36 1.311 . S
C44 O38 1.231 . S
O45 Zn27 1.953 . S
O45 C39 1.298 . S
O46 Zn47 1.953 1_554 S
O46 C62 1.225 . S
Zn47 O46 1.953 1_556 S
Zn47 O48 1.949 1_556 S
Zn47 O54 1.919 1_556 S
Zn47 O59 1.924 . S
O48 Zn47 1.949 1_554 S
O48 Zn49 1.923 . S
O48 Zn50 1.950 . S
O48 Zn51 1.945 1_554 S
Zn49 O48 1.923 . S
Zn49 O52 1.933 . S
Zn49 O55 1.941 . S
Zn49 O56 1.965 . S
Zn50 O48 1.950 . S
Zn50 O57 1.938 . S
Zn50 O58 1.906 . S
Zn50 O68 1.953 . S
Zn51 O48 1.945 1_556 S
Zn51 O53 1.932 . S
Zn51 O60 1.977 . S
Zn51 O61 1.910 . S
O52 Zn49 1.933 . S
O52 C63 1.226 1_554 S
O53 Zn51 1.932 . S
O53 C63 1.307 . S
O54 Zn47 1.919 1_554 S
O54 C65 1.253 . S
O55 Zn49 1.941 . S
O55 C65 1.283 . S
O56 Zn49 1.965 . S
O56 C64 1.303 . S
O57 Zn50 1.938 . S
O57 C64 1.247 . S
O58 Zn50 1.906 . S
O58 C66 1.304 1_554 S
O59 Zn47 1.924 . S
O59 C67 1.311 . S
O60 Zn51 1.977 . S
O60 C66 1.272 . S
O61 Zn51 1.910 . S
O61 C67 1.231 . S
C62 O46 1.225 . S
C62 O68 1.298 . S
C63 O52 1.226 1_556 S
C63 O53 1.307 . S
C64 O56 1.303 . S
C64 O57 1.247 . S
C65 O54 1.253 . S
C65 O55 1.283 . S
C66 O58 1.304 1_556 S
C66 O60 1.272 . S
C67 O59 1.311 . S
C67 O61 1.231 . S
O68 Zn50 1.953 . S
O68 C62 1.298 . S
O69 Zn70 1.953 . S
O69 C85 1.225 . S
Zn70 O69 1.953 . S
Zn70 O71 1.949 . S
Zn70 O77 1.919 . S
Zn70 O82 1.924 . S
O71 Zn70 1.949 . S
O71 Zn72 1.923 . S
O71 Zn73 1.950 . S
O71 Zn74 1.945 . S
Zn72 O71 1.923 . S
Zn72 O75 1.933 . S
Zn72 O78 1.941 . S
Zn72 O79 1.965 . S
Zn73 O71 1.950 . S
Zn73 O80 1.938 . S
Zn73 O81 1.906 . S
Zn73 O91 1.953 . S
Zn74 O71 1.945 . S
Zn74 O76 1.932 . S
Zn74 O83 1.977 . S
Zn74 O84 1.910 . S
O75 Zn72 1.933 . S
O75 C86 1.226 . S
O76 Zn74 1.932 . S
O76 C86 1.307 . S
O77 Zn70 1.919 . S
O77 C88 1.253 . S
O78 Zn72 1.941 . S
O78 C88 1.283 . S
O79 Zn72 1.965 . S
O79 C87 1.303 . S
O80 Zn73 1.938 . S
O80 C87 1.247 . S
O81 Zn73 1.906 . S
O81 C89 1.304 . S
O82 Zn70 1.924 . S
O82 C90 1.311 . S
O83 Zn74 1.977 . S
O83 C89 1.272 . S
O84 Zn74 1.910 . S
O84 C90 1.231 . S
C85 O69 1.225 . S
C85 O91 1.298 . S
C86 O75 1.226 . S
C86 O76 1.307 . S
C87 O79 1.303 . S
C87 O80 1.247 . S
C88 O77 1.253 . S
C88 O78 1.283 . S
C89 O81 1.304 . S
C89 O83 1.272 . S
C90 O82 1.311 . S
C90 O84 1.231 . S
O91 Zn73 1.953 . S
O91 C85 1.298 . S
O92 Zn93 1.953 . S
O92 C108 1.225 . S
Zn93 O92 1.953 . S
Zn93 O94 1.949 . S
Zn93 O100 1.919 . S
Zn93 O105 1.924 . S
O94 Zn93 1.949 . S
O94 Zn95 1.923 . S
O94 Zn96 1.950 . S
O94 Zn97 1.945 . S
Zn95 O94 1.923 . S
Zn95 O98 1.933 . S
Zn95 O101 1.941 . S
Zn95 O102 1.965 . S
Zn96 O94 1.950 . S
Zn96 O103 1.938 . S
Zn96 O104 1.906 . S
Zn96 O114 1.953 . S
Zn97 O94 1.945 . S
Zn97 O99 1.932 . S
Zn97 O106 1.977 . S
Zn97 O107 1.910 . S
O98 Zn95 1.933 . S
O98 C109 1.226 . S
O99 Zn97 1.932 . S
O99 C109 1.307 . S
O100 Zn93 1.919 . S
O100 C111 1.253 . S
O101 Zn95 1.941 . S
O101 C111 1.283 . S
O102 Zn95 1.965 . S
O102 C110 1.303 . S
O103 Zn96 1.938 . S
O103 C110 1.247 . S
O104 Zn96 1.906 . S
O104 C112 1.304 . S
O105 Zn93 1.924 . S
O105 C113 1.311 . S
O106 Zn97 1.977 . S
O106 C112 1.272 . S
O107 Zn97 1.910 . S
O107 C113 1.231 . S
C108 O92 1.225 . S
C108 O114 1.298 . S
C109 O98 1.226 . S
C109 O99 1.307 . S
C110 O102 1.303 . S
C110 O103 1.247 . S
C111 O100 1.253 . S
C111 O101 1.283 . S
C112 O104 1.304 . S
C112 O106 1.272 . S
C113 O105 1.311 . S
C113 O107 1.231 . S
O114 Zn96 1.953 . S
O114 C108 1.298 . S
O115 Zn116 1.953 . S
O115 C131 1.225 . S
Zn116 O115 1.953 . S
Zn116 O117 1.949 . S
Zn116 O123 1.919 . S
Zn116 O128 1.924 . S
O117 Zn116 1.949 . S
O117 Zn118 1.923 . S
O117 Zn119 1.950 . S
O117 Zn120 1.945 . S
Zn118 O117 1.923 . S
Zn118 O121 1.933 . S
Zn118 O124 1.941 . S
Zn118 O125 1.965 . S
Zn119 O117 1.950 . S
Zn119 O126 1.938 . S
Zn119 O127 1.906 . S
Zn119 O137 1.953 . S
Zn120 O117 1.945 . S
Zn120 O122 1.932 . S
Zn120 O129 1.977 . S
Zn120 O130 1.910 . S
O121 Zn118 1.933 . S
O121 C132 1.226 . S
O122 Zn120 1.932 . S
O122 C132 1.307 . S
O123 Zn116 1.919 . S
O123 C134 1.253 . S
O124 Zn118 1.941 . S
O124 C134 1.283 . S
O125 Zn118 1.965 . S
O125 C133 1.303 . S
O126 Zn119 1.938 . S
O126 C133 1.247 . S
O127 Zn119 1.906 . S
O127 C135 1.304 . S
O128 Zn116 1.924 . S
O128 C136 1.311 . S
O129 Zn120 1.977 . S
O129 C135 1.272 . S
O130 Zn120 1.910 . S
O130 C136 1.231 . S
C131 O115 1.225 . S
C131 O137 1.298 . S
C132 O121 1.226 . S
C132 O122 1.307 . S
C133 O125 1.303 . S
C133 O126 1.247 . S
C134 O123 1.253 . S
C134 O124 1.283 . S
C135 O127 1.304 . S
C135 O129 1.272 . S
C136 O128 1.311 . S
C136 O130 1.231 . S
O137 Zn119 1.953 . S
O137 C131 1.298 . S
O138 Zn139 1.953 1_554 S
O138 C154 1.225 . S
Zn139 O138 1.953 1_556 S
Zn139 O140 1.949 1_556 S
Zn139 O146 1.919 1_556 S
Zn139 O151 1.924 . S
O140 Zn139 1.949 1_554 S
O140 Zn141 1.923 . S
O140 Zn142 1.950 . S
O140 Zn143 1.945 1_554 S
Zn141 O140 1.923 . S
Zn141 O144 1.933 . S
Zn141 O147 1.941 . S
Zn141 O148 1.965 . S
Zn142 O140 1.950 . S
Zn142 O149 1.938 . S
Zn142 O150 1.906 . S
Zn142 O160 1.953 . S
Zn143 O140 1.945 1_556 S
Zn143 O145 1.932 . S
Zn143 O152 1.977 . S
Zn143 O153 1.910 . S
O144 Zn141 1.933 . S
O144 C155 1.226 1_554 S
O145 Zn143 1.932 . S
O145 C155 1.307 . S
O146 Zn139 1.919 1_554 S
O146 C157 1.253 . S
O147 Zn141 1.941 . S
O147 C157 1.283 . S
O148 Zn141 1.965 . S
O148 C156 1.303 . S
O149 Zn142 1.938 . S
O149 C156 1.247 . S
O150 Zn142 1.906 . S
O150 C158 1.304 1_554 S
O151 Zn139 1.924 . S
O151 C159 1.311 . S
O152 Zn143 1.977 . S
O152 C158 1.272 . S
O153 Zn143 1.910 . S
O153 C159 1.231 . S
C154 O138 1.225 . S
C154 O160 1.298 . S
C155 O144 1.226 1_556 S
C155 O145 1.307 . S
C156 O148 1.303 . S
C156 O149 1.247 . S
C157 O146 1.253 . S
C157 O147 1.283 . S
C158 O150 1.304 1_556 S
C158 O152 1.272 . S
C159 O151 1.311 . S
C159 O153 1.231 . S
O160 Zn142 1.953 . S
O160 C154 1.298 . S
O161 Zn162 1.953 1_655 S
O161 C177 1.225 . S
Zn162 O161 1.953 1_455 S
Zn162 O163 1.949 . S
Zn162 O169 1.919 . S
Zn162 O174 1.924 . S
O163 Zn162 1.949 . S
O163 Zn164 1.923 . S
O163 Zn165 1.950 1_455 S
O163 Zn166 1.945 . S
Zn164 O163 1.923 . S
Zn164 O167 1.933 . S
Zn164 O170 1.941 . S
Zn164 O171 1.965 . S
Zn165 O163 1.950 1_655 S
Zn165 O172 1.938 . S
Zn165 O173 1.906 . S
Zn165 O183 1.953 . S
Zn166 O163 1.945 . S
Zn166 O168 1.932 . S
Zn166 O175 1.977 1_455 S
Zn166 O176 1.910 . S
O167 Zn164 1.933 . S
O167 C178 1.226 . S
O168 Zn166 1.932 . S
O168 C178 1.307 . S
O169 Zn162 1.919 . S
O169 C180 1.253 . S
O170 Zn164 1.941 . S
O170 C180 1.283 . S
O171 Zn164 1.965 . S
O171 C179 1.303 1_455 S
O172 Zn165 1.938 . S
O172 C179 1.247 . S
O173 Zn165 1.906 . S
O173 C181 1.304 . S
O174 Zn162 1.924 . S
O174 C182 1.311 1_455 S
O175 Zn166 1.977 1_655 S
O175 C181 1.272 . S
O176 Zn166 1.910 . S
O176 C182 1.231 1_455 S
C177 O161 1.225 . S
C177 O183 1.298 . S
C178 O167 1.226 . S
C178 O168 1.307 . S
C179 O171 1.303 1_655 S
C179 O172 1.247 . S
C180 O169 1.253 . S
C180 O170 1.283 . S
C181 O173 1.304 . S
C181 O175 1.272 . S
C182 O174 1.311 1_655 S
C182 O176 1.231 1_655 S
O183 Zn165 1.953 . S
O183 C177 1.298 . S
C184 C185 1.391 . S
C184 C186 1.394 . S
C184 H200 0.931 . S
C185 C184 1.391 . S
C185 C189 1.376 . S
C186 C184 1.394 . S
C186 C187 1.369 . S
C186 C190 1.531 . S
C187 C186 1.369 . S
C187 C188 1.410 . S
C187 C195 1.503 . S
C188 C187 1.410 . S
C188 C189 1.392 . S
C188 C191 1.511 . S
C189 C185 1.376 . S
C189 C188 1.392 . S
C189 H201 0.929 . S
C190 C186 1.531 . S
C190 H202 0.960 . S
C190 H203 0.962 . S
C190 H204 0.960 . S
C191 C188 1.511 . S
C191 H205 0.961 . S
C191 H206 0.961 . S
C191 H207 0.961 . S
C192 C193 1.370 . S
C192 C194 1.363 . S
C192 H208 0.931 . S
C193 C192 1.370 . S
C193 C197 1.408 . S
C194 C192 1.363 . S
C194 C195 1.370 . S
C194 C198 1.524 . S
C195 C187 1.503 . S
C195 C194 1.370 . S
C195 C196 1.403 . S
C196 C195 1.403 . S
C196 C197 1.404 . S
C196 C199 1.539 . S
C197 C193 1.408 . S
C197 C196 1.404 . S
C197 H209 0.930 . S
C198 C194 1.524 . S
C198 H210 0.956 . S
C198 H211 0.961 . S
C198 H212 0.961 . S
C199 C196 1.539 . S
C199 H213 0.958 . S
C199 H214 0.961 . S
C199 H215 0.960 . S
H200 C184 0.931 . S
H201 C189 0.929 . S
H202 C190 0.960 . S
H203 C190 0.962 . S
H204 C190 0.960 . S
H205 C191 0.961 . S
H206 C191 0.961 . S
H207 C191 0.961 . S
H208 C192 0.931 . S
H209 C197 0.930 . S
H210 C198 0.956 . S
H211 C198 0.961 . S
H212 C198 0.961 . S
H213 C199 0.958 . S
H214 C199 0.961 . S
H215 C199 0.960 . S
C216 C217 1.391 . S
C216 C218 1.394 . S
C216 H232 0.931 . S
C217 C216 1.391 . S
C217 C221 1.376 . S
C218 C216 1.394 . S
C218 C219 1.369 . S
C218 C222 1.531 . S
C219 C218 1.369 . S
C219 C220 1.410 . S
C219 C227 1.503 . S
C220 C219 1.410 . S
C220 C221 1.392 . S
C220 C223 1.511 . S
C221 C217 1.376 . S
C221 C220 1.392 . S
C221 H233 0.929 1_565 S
C222 C218 1.531 . S
C222 H234 0.960 . S
C222 H235 0.962 . S
C222 H236 0.960 . S
C223 C220 1.511 . S
C223 H237 0.961 1_565 S
C223 H238 0.961 . S
C223 H239 0.961 . S
C224 C225 1.370 . S
C224 C226 1.363 . S
C224 H240 0.931 . S
C225 C224 1.370 . S
C225 C229 1.408 . S
C226 C224 1.363 . S
C226 C227 1.370 . S
C226 C230 1.524 . S
C227 C219 1.503 . S
C227 C226 1.370 . S
C227 C228 1.403 . S
C228 C227 1.403 . S
C228 C229 1.404 . S
C228 C231 1.539 . S
C229 C225 1.408 . S
C229 C228 1.404 . S
C229 H241 0.930 . S
C230 C226 1.524 . S
C230 H242 0.956 . S
C230 H243 0.961 . S
C230 H244 0.961 . S
C231 C228 1.539 . S
C231 H245 0.958 . S
C231 H246 0.961 . S
C231 H247 0.960 . S
H232 C216 0.931 . S
H233 C221 0.929 1_545 S
H234 C222 0.960 . S
H235 C222 0.962 . S
H236 C222 0.960 . S
H237 C223 0.961 1_545 S
H238 C223 0.961 . S
H239 C223 0.961 . S
H240 C224 0.931 . S
H241 C229 0.930 . S
H242 C230 0.956 . S
H243 C230 0.961 . S
H244 C230 0.961 . S
H245 C231 0.958 . S
H246 C231 0.961 . S
H247 C231 0.960 . S
C248 C249 1.391 . S
C248 C250 1.394 . S
C248 H264 0.931 . S
C249 C248 1.391 . S
C249 C253 1.376 . S
C250 C248 1.394 . S
C250 C251 1.369 . S
C250 C254 1.526 1_556 S
C251 C250 1.369 . S
C251 C252 1.410 . S
C251 C259 1.503 . S
C252 C251 1.410 . S
C252 C253 1.392 . S
C252 C255 1.511 . S
C253 C249 1.376 . S
C253 C252 1.392 . S
C253 H265 0.929 . S
C254 C250 1.526 1_554 S
C254 H266 0.963 . S
C254 H267 0.960 1_554 S
C254 H268 0.964 . S
C255 C252 1.511 . S
C255 H269 0.961 . S
C255 H270 0.961 . S
C255 H271 0.961 . S
C256 C257 1.370 . S
C256 C258 1.363 1_545 S
C256 H272 0.931 . S
C257 C256 1.370 . S
C257 C261 1.408 1_545 S
C258 C256 1.363 1_565 S
C258 C259 1.370 . S
C258 C262 1.524 1_565 S
C259 C251 1.503 . S
C259 C258 1.370 . S
C259 C260 1.403 . S
C260 C259 1.403 . S
C260 C261 1.404 . S
C260 C263 1.539 1_556 S
C261 C257 1.408 1_565 S
C261 C260 1.404 . S
C261 H273 0.930 1_556 S
C262 C258 1.524 1_545 S
C262 H274 0.954 1_545 S
C262 H275 0.961 1_545 S
C262 H276 0.961 . S
C263 C260 1.539 1_554 S
C263 H277 0.958 . S
C263 H278 0.961 . S
C263 H279 0.960 1_554 S
H264 C248 0.931 . S
H265 C253 0.929 . S
H266 C254 0.963 . S
H267 C254 0.960 1_556 S
H268 C254 0.964 . S
H269 C255 0.961 . S
H270 C255 0.961 . S
H271 C255 0.961 . S
H272 C256 0.931 . S
H273 C261 0.930 1_554 S
H274 C262 0.954 1_565 S
H275 C262 0.961 1_565 S
H276 C262 0.961 . S
H277 C263 0.958 . S
H278 C263 0.961 . S
H279 C263 0.960 1_556 S
C280 C281 1.391 . S
C280 C282 1.394 . S
C280 H296 0.931 . S
C281 C280 1.391 . S
C281 C285 1.376 . S
C282 C280 1.394 . S
C282 C283 1.369 . S
C282 C286 1.531 . S
C283 C282 1.369 . S
C283 C284 1.410 . S
C283 C291 1.503 . S
C284 C283 1.410 . S
C284 C285 1.392 . S
C284 C287 1.511 . S
C285 C281 1.376 . S
C285 C284 1.392 . S
C285 H297 0.929 . S
C286 C282 1.531 . S
C286 H298 0.960 . S
C286 H299 0.962 . S
C286 H300 0.960 . S
C287 C284 1.511 . S
C287 H301 0.961 . S
C287 H302 0.961 . S
C287 H303 0.961 . S
C288 C289 1.370 . S
C288 C290 1.363 . S
C288 H304 0.931 . S
C289 C288 1.370 . S
C289 C293 1.408 . S
C290 C288 1.363 . S
C290 C291 1.370 . S
C290 C294 1.524 . S
C291 C283 1.503 . S
C291 C290 1.370 . S
C291 C292 1.403 . S
C292 C291 1.403 . S
C292 C293 1.404 . S
C292 C295 1.539 1_554 S
C293 C289 1.408 . S
C293 C292 1.404 . S
C293 H305 0.930 . S
C294 C290 1.524 . S
C294 H306 0.956 . S
C294 H307 0.961 . S
C294 H308 0.961 . S
C295 C292 1.539 1_556 S
C295 H309 0.958 . S
C295 H310 0.961 . S
C295 H311 0.960 . S
H296 C280 0.931 . S
H297 C285 0.929 . S
H298 C286 0.960 . S
H299 C286 0.962 . S
H300 C286 0.960 . S
H301 C287 0.961 . S
H302 C287 0.961 . S
H303 C287 0.961 . S
H304 C288 0.931 . S
H305 C293 0.930 . S
H306 C294 0.956 . S
H307 C294 0.961 . S
H308 C294 0.961 . S
H309 C295 0.958 . S
H310 C295 0.961 . S
H311 C295 0.960 . S
C312 C313 1.391 . S
C312 C314 1.394 . S
C312 H328 0.931 . S
C313 C312 1.391 . S
C313 C317 1.374 1_565 S
C314 C312 1.394 . S
C314 C315 1.369 . S
C314 C318 1.531 . S
C315 C314 1.369 . S
C315 C316 1.410 . S
C315 C323 1.503 . S
C316 C315 1.410 . S
C316 C317 1.376 1_565 S
C316 C319 1.511 . S
C317 C313 1.374 1_545 S
C317 C316 1.376 1_545 S
C317 H329 0.949 . S
C318 C314 1.531 . S
C318 H330 0.960 . S
C318 H331 0.962 . S
C318 H332 0.960 . S
C319 C316 1.511 . S
C319 H333 0.961 1_565 S
C319 H334 0.961 . S
C319 H335 0.961 . S
C320 C321 1.370 . S
C320 C322 1.363 . S
C320 H336 0.931 . S
C321 C320 1.370 . S
C321 C325 1.408 . S
C322 C320 1.363 . S
C322 C323 1.370 . S
C322 C326 1.524 . S
C323 C315 1.503 . S
C323 C322 1.370 . S
C323 C324 1.403 . S
C324 C323 1.403 . S
C324 C325 1.404 . S
C324 C327 1.539 . S
C325 C321 1.408 . S
C325 C324 1.404 . S
C325 H337 0.930 . S
C326 C322 1.524 . S
C326 H338 0.956 . S
C326 H339 0.961 . S
C326 H340 0.961 . S
C327 C324 1.539 . S
C327 H341 0.958 . S
C327 H342 0.961 . S
C327 H343 0.960 . S
H328 C312 0.931 . S
H329 C317 0.949 . S
H330 C318 0.960 . S
H331 C318 0.962 . S
H332 C318 0.960 . S
H333 C319 0.961 1_545 S
H334 C319 0.961 . S
H335 C319 0.961 . S
H336 C320 0.931 . S
H337 C325 0.930 . S
H338 C326 0.956 . S
H339 C326 0.961 . S
H340 C326 0.961 . S
H341 C327 0.958 . S
H342 C327 0.961 . S
H343 C327 0.960 . S
C344 C345 1.391 . S
C344 C346 1.394 . S
C344 H360 0.931 . S
C345 C344 1.391 . S
C345 C349 1.376 . S
C346 C344 1.394 . S
C346 C347 1.369 . S
C346 C350 1.531 . S
C347 C346 1.369 . S
C347 C348 1.410 . S
C347 C355 1.503 . S
C348 C347 1.410 . S
C348 C349 1.392 . S
C348 C351 1.511 . S
C349 C345 1.376 . S
C349 C348 1.392 . S
C349 H361 0.929 . S
C350 C346 1.531 . S
C350 H362 0.960 . S
C350 H363 0.962 . S
C350 H364 0.960 . S
C351 C348 1.511 . S
C351 H365 0.961 . S
C351 H366 0.961 . S
C351 H367 0.961 . S
C352 C353 1.370 . S
C352 C354 1.363 . S
C352 H368 0.931 . S
C353 C352 1.370 . S
C353 C357 1.408 . S
C354 C352 1.363 . S
C354 C355 1.370 . S
C354 C358 1.524 . S
C355 C347 1.503 . S
C355 C354 1.370 . S
C355 C356 1.403 . S
C356 C355 1.403 . S
C356 C357 1.404 . S
C356 C359 1.539 . S
C357 C353 1.408 . S
C357 C356 1.404 . S
C357 H369 0.930 . S
C358 C354 1.524 . S
C358 H370 0.956 . S
C358 H371 0.961 . S
C358 H372 0.961 . S
C359 C356 1.539 . S
C359 H373 0.958 . S
C359 H374 0.961 . S
C359 H375 0.960 . S
H360 C344 0.931 . S
H361 C349 0.929 . S
H362 C350 0.960 . S
H363 C350 0.962 . S
H364 C350 0.960 . S
H365 C351 0.961 . S
H366 C351 0.961 . S
H367 C351 0.961 . S
H368 C352 0.931 . S
H369 C357 0.930 . S
H370 C358 0.956 . S
H371 C358 0.961 . S
H372 C358 0.961 . S
H373 C359 0.958 . S
H374 C359 0.961 . S
H375 C359 0.960 . S
C376 C377 1.391 . S
C376 C378 1.394 . S
C376 H392 0.931 . S
C377 C376 1.391 . S
C377 C381 1.376 . S
C378 C376 1.394 . S
C378 C379 1.369 . S
C378 C382 1.531 . S
C379 C378 1.369 . S
C379 C380 1.410 . S
C379 C387 1.503 . S
C380 C379 1.410 . S
C380 C381 1.392 . S
C380 C383 1.511 . S
C381 C377 1.376 . S
C381 C380 1.392 . S
C381 H393 0.929 . S
C382 C378 1.531 . S
C382 H394 0.960 . S
C382 H395 0.962 . S
C382 H396 0.960 . S
C383 C380 1.511 . S
C383 H397 0.961 . S
C383 H398 0.961 . S
C383 H399 0.961 . S
C384 C385 1.370 . S
C384 C386 1.363 . S
C384 H400 0.931 . S
C385 C384 1.370 . S
C385 C389 1.408 . S
C386 C384 1.363 . S
C386 C387 1.370 . S
C386 C390 1.524 . S
C387 C379 1.503 . S
C387 C386 1.370 . S
C387 C388 1.403 . S
C388 C387 1.403 . S
C388 C389 1.404 . S
C388 C391 1.539 1_554 S
C389 C385 1.408 . S
C389 C388 1.404 . S
C389 H401 0.930 1_554 S
C390 C386 1.524 . S
C390 H402 0.956 . S
C390 H403 0.961 . S
C390 H404 0.961 . S
C391 C388 1.539 1_556 S
C391 H405 0.958 . S
C391 H406 0.961 . S
C391 H407 0.960 1_556 S
H392 C376 0.931 . S
H393 C381 0.929 . S
H394 C382 0.960 . S
H395 C382 0.962 . S
H396 C382 0.960 . S
H397 C383 0.961 . S
H398 C383 0.961 . S
H399 C383 0.961 . S
H400 C384 0.931 . S
H401 C389 0.930 1_556 S
H402 C390 0.956 . S
H403 C390 0.961 . S
H404 C390 0.961 . S
H405 C391 0.958 . S
H406 C391 0.961 . S
H407 C391 0.960 1_554 S
C408 C409 1.391 . S
C408 C410 1.394 . S
C408 H424 0.931 . S
C409 C408 1.391 . S
C409 C413 1.376 . S
C410 C408 1.394 . S
C410 C411 1.369 . S
C410 C414 1.531 . S
C411 C410 1.369 . S
C411 C412 1.410 . S
C411 C419 1.503 . S
C412 C411 1.410 . S
C412 C413 1.392 . S
C412 C415 1.511 . S
C413 C409 1.376 . S
C413 C412 1.392 . S
C413 H425 0.929 . S
C414 C410 1.531 . S
C414 H426 0.952 1_556 S
C414 H427 0.962 . S
C414 H428 0.960 . S
C415 C412 1.511 . S
C415 H429 0.962 . S
C415 H430 0.961 1_565 S
C415 H431 0.961 1_565 S
C416 C417 1.370 . S
C416 C418 1.363 1_545 S
C416 H432 0.931 . S
C417 C416 1.370 . S
C417 C421 1.408 1_556 S
C418 C416 1.363 1_565 S
C418 C419 1.370 . S
C418 C422 1.524 . S
C419 C411 1.503 . S
C419 C418 1.370 . S
C419 C420 1.403 . S
C420 C419 1.403 . S
C420 C421 1.404 1_566 S
C420 C423 1.539 1_556 S
C421 C417 1.408 1_554 S
C421 C420 1.404 1_544 S
C421 H433 0.930 . S
C422 C418 1.524 . S
C422 H434 0.956 . S
C422 H435 0.961 . S
C422 H436 0.961 . S
C423 C420 1.539 1_554 S
C423 H437 0.958 . S
C423 H438 0.961 1_565 S
C423 H439 0.960 . S
H424 C408 0.931 . S
H425 C413 0.929 . S
H426 C414 0.952 1_554 S
H427 C414 0.962 . S
H428 C414 0.960 . S
H429 C415 0.962 . S
H430 C415 0.961 1_545 S
H431 C415 0.961 1_545 S
H432 C416 0.931 . S
H433 C421 0.930 . S
H434 C422 0.956 . S
H435 C422 0.961 . S
H436 C422 0.961 . S
H437 C423 0.958 . S
H438 C423 0.961 1_545 S
H439 C423 0.960 . S
C440 C441 1.391 1_554 S
C440 C442 1.394 1_554 S
C440 H456 0.931 . S
C441 C440 1.391 1_556 S
C441 C445 1.376 . S
C442 C440 1.394 1_556 S
C442 C443 1.369 . S
C442 C446 1.531 1_556 S
C443 C442 1.369 . S
C443 C444 1.410 . S
C443 C451 1.503 . S
C444 C443 1.410 . S
C444 C445 1.392 . S
C444 C447 1.511 . S
C445 C441 1.376 . S
C445 C444 1.392 . S
C445 H457 0.929 . S
C446 C442 1.531 1_554 S
C446 H458 0.960 . S
C446 H459 0.962 . S
C446 H460 0.960 . S
C447 C444 1.511 . S
C447 H461 0.961 . S
C447 H462 0.961 . S
C447 H463 0.961 . S
C448 C449 1.370 . S
C448 C450 1.363 . S
C448 H464 0.931 . S
C449 C448 1.370 . S
C449 C453 1.408 . S
C450 C448 1.363 . S
C450 C451 1.370 . S
C450 C454 1.524 . S
C451 C443 1.503 . S
C451 C450 1.370 . S
C451 C452 1.403 . S
C452 C451 1.403 . S
C452 C453 1.404 . S
C452 C455 1.539 . S
C453 C449 1.408 . S
C453 C452 1.404 . S
C453 H465 0.930 . S
C454 C450 1.524 . S
C454 H466 0.956 . S
C454 H467 0.961 . S
C454 H468 0.961 . S
C455 C452 1.539 . S
C455 H469 0.958 . S
C455 H470 0.961 . S
C455 H471 0.960 . S
H456 C440 0.931 . S
H457 C445 0.929 . S
H458 C446 0.960 . S
H459 C446 0.962 . S
H460 C446 0.960 . S
H461 C447 0.961 . S
H462 C447 0.961 . S
H463 C447 0.961 . S
H464 C448 0.931 . S
H465 C453 0.930 . S
H466 C454 0.956 . S
H467 C454 0.961 . S
H468 C454 0.961 . S
H469 C455 0.958 . S
H470 C455 0.961 . S
H471 C455 0.960 . S
C472 C473 1.391 . S
C472 C474 1.394 . S
C472 H488 0.931 . S
C473 C472 1.391 . S
C473 C477 1.376 . S
C474 C472 1.394 . S
C474 C475 1.369 . S
C474 C478 1.531 . S
C475 C474 1.369 . S
C475 C476 1.410 . S
C475 C483 1.503 . S
C476 C475 1.410 . S
C476 C477 1.392 . S
C476 C479 1.511 . S
C477 C473 1.376 . S
C477 C476 1.392 . S
C477 H489 0.929 . S
C478 C474 1.531 . S
C478 H490 0.960 1_554 S
C478 H491 0.962 . S
C478 H492 0.960 1_554 S
C479 C476 1.511 . S
C479 H493 0.961 . S
C479 H494 0.961 . S
C479 H495 0.961 . S
C480 C481 1.370 . S
C480 C482 1.363 . S
C480 H496 0.931 . S
C481 C480 1.370 . S
C481 C485 1.408 . S
C482 C480 1.363 . S
C482 C483 1.370 . S
C482 C486 1.524 . S
C483 C475 1.503 . S
C483 C482 1.370 . S
C483 C484 1.403 . S
C484 C483 1.403 . S
C484 C485 1.404 . S
C484 C487 1.539 . S
C485 C481 1.408 . S
C485 C484 1.404 . S
C485 H497 0.930 1_554 S
C486 C482 1.524 . S
C486 H498 0.956 . S
C486 H499 0.961 . S
C486 H500 0.961 . S
C487 C484 1.539 . S
C487 H501 0.958 1_554 S
C487 H502 0.961 . S
C487 H503 0.960 . S
H488 C472 0.931 . S
H489 C477 0.929 . S
H490 C478 0.960 1_556 S
H491 C478 0.962 . S
H492 C478 0.960 1_556 S
H493 C479 0.961 . S
H494 C479 0.961 . S
H495 C479 0.961 . S
H496 C480 0.931 . S
H497 C485 0.930 1_556 S
H498 C486 0.956 . S
H499 C486 0.961 . S
H500 C486 0.961 . S
H501 C487 0.958 1_556 S
H502 C487 0.961 . S
H503 C487 0.960 . S
C504 C505 1.391 . S
C504 C506 1.394 . S
C504 H520 0.931 . S
C505 C504 1.391 . S
C505 C509 1.376 . S
C506 C504 1.394 . S
C506 C507 1.369 . S
C506 C510 1.531 . S
C507 C506 1.369 . S
C507 C508 1.410 . S
C507 C515 1.503 . S
C508 C507 1.410 . S
C508 C509 1.392 . S
C508 C511 1.511 . S
C509 C505 1.376 . S
C509 C508 1.392 . S
C509 H521 0.929 . S
C510 C506 1.531 . S
C510 H522 0.960 . S
C510 H523 0.962 . S
C510 H524 0.960 . S
C511 C508 1.511 . S
C511 H525 0.961 . S
C511 H526 0.961 . S
C511 H527 0.961 . S
C512 C513 1.370 . S
C512 C514 1.363 . S
C512 H528 0.931 . S
C513 C512 1.370 . S
C513 C517 1.408 . S
C514 C512 1.363 . S
C514 C515 1.370 . S
C514 C518 1.524 . S
C515 C507 1.503 . S
C515 C514 1.370 . S
C515 C516 1.403 . S
C516 C515 1.403 . S
C516 C517 1.404 . S
C516 C519 1.539 . S
C517 C513 1.408 . S
C517 C516 1.404 . S
C517 H529 0.930 . S
C518 C514 1.524 . S
C518 H530 0.956 . S
C518 H531 0.961 . S
C518 H532 0.961 . S
C519 C516 1.539 . S
C519 H533 0.958 . S
C519 H534 0.961 . S
C519 H535 0.960 . S
H520 C504 0.931 . S
H521 C509 0.929 . S
H522 C510 0.960 . S
H523 C510 0.962 . S
H524 C510 0.960 . S
H525 C511 0.961 . S
H526 C511 0.961 . S
H527 C511 0.961 . S
H528 C512 0.931 . S
H529 C517 0.930 . S
H530 C518 0.956 . S
H531 C518 0.961 . S
H532 C518 0.961 . S
H533 C519 0.958 . S
H534 C519 0.961 . S
H535 C519 0.960 . S
C536 C537 1.391 . S
C536 C538 1.394 . S
C536 H552 0.931 . S
C537 C536 1.391 . S
C537 C541 1.376 . S
C538 C536 1.394 . S
C538 C539 1.369 . S
C538 C542 1.531 . S
C539 C538 1.369 . S
C539 C540 1.410 . S
C539 C547 1.503 . S
C540 C539 1.410 . S
C540 C541 1.392 . S
C540 C543 1.511 . S
C541 C537 1.376 . S
C541 C540 1.392 . S
C541 H553 0.929 . S
C542 C538 1.531 . S
C542 H554 0.960 . S
C542 H555 0.962 . S
C542 H556 0.960 . S
C543 C540 1.511 . S
C543 H557 0.961 . S
C543 H558 0.961 . S
C543 H559 0.961 . S
C544 C545 1.370 . S
C544 C546 1.363 . S
C544 H560 0.931 . S
C545 C544 1.370 . S
C545 C549 1.408 . S
C546 C544 1.363 . S
C546 C547 1.370 . S
C546 C550 1.524 . S
C547 C539 1.503 . S
C547 C546 1.370 . S
C547 C548 1.403 . S
C548 C547 1.403 . S
C548 C549 1.404 . S
C548 C551 1.539 . S
C549 C545 1.408 . S
C549 C548 1.404 . S
C549 H561 0.930 . S
C550 C546 1.524 . S
C550 H562 0.956 . S
C550 H563 0.961 . S
C550 H564 0.961 . S
C551 C548 1.539 . S
C551 H565 0.958 . S
C551 H566 0.961 . S
C551 H567 0.960 . S
H552 C536 0.931 . S
H553 C541 0.929 . S
H554 C542 0.960 . S
H555 C542 0.962 . S
H556 C542 0.960 . S
H557 C543 0.961 . S
H558 C543 0.961 . S
H559 C543 0.961 . S
H560 C544 0.931 . S
H561 C549 0.930 . S
H562 C550 0.956 . S
H563 C550 0.961 . S
H564 C550 0.961 . S
H565 C551 0.958 . S
H566 C551 0.961 . S
H567 C551 0.960 . S
C568 C569 1.391 . S
C568 C570 1.394 . S
C568 H584 0.931 . S
C569 C568 1.391 . S
C569 C573 1.376 . S
C570 C568 1.394 . S
C570 C571 1.369 . S
C570 C574 1.531 . S
C571 C570 1.369 . S
C571 C572 1.410 . S
C571 C579 1.503 . S
C572 C571 1.410 . S
C572 C573 1.392 . S
C572 C575 1.511 . S
C573 C569 1.376 . S
C573 C572 1.392 . S
C573 H585 0.929 . S
C574 C570 1.531 . S
C574 H586 0.960 . S
C574 H587 0.962 . S
C574 H588 0.960 . S
C575 C572 1.511 . S
C575 H589 0.961 . S
C575 H590 0.961 . S
C575 H591 0.961 . S
C576 C577 1.370 . S
C576 C578 1.363 . S
C576 H592 0.931 1_554 S
C577 C576 1.370 . S
C577 C581 1.408 . S
C578 C576 1.363 . S
C578 C579 1.370 . S
C578 C582 1.524 1_554 S
C579 C571 1.503 . S
C579 C578 1.370 . S
C579 C580 1.403 . S
C580 C579 1.403 . S
C580 C581 1.404 . S
C580 C583 1.539 . S
C581 C577 1.408 . S
C581 C580 1.404 . S
C581 H593 0.930 . S
C582 C578 1.524 1_556 S
C582 H594 0.956 . S
C582 H595 0.961 . S
C582 H596 0.961 . S
C583 C580 1.539 . S
C583 H597 0.958 . S
C583 H598 0.961 . S
C583 H599 0.960 . S
H584 C568 0.931 . S
H585 C573 0.929 . S
H586 C574 0.960 . S
H587 C574 0.962 . S
H588 C574 0.960 . S
H589 C575 0.961 . S
H590 C575 0.961 . S
H591 C575 0.961 . S
H592 C576 0.931 1_556 S
H593 C581 0.930 . S
H594 C582 0.956 . S
H595 C582 0.961 . S
H596 C582 0.961 . S
H597 C583 0.958 . S
H598 C583 0.961 . S
H599 C583 0.960 . S
C600 C601 1.391 . S
C600 C602 1.394 . S
C600 H616 0.931 . S
C601 C600 1.391 . S
C601 C605 1.376 . S
C602 C600 1.394 . S
C602 C603 1.369 . S
C602 C606 1.531 . S
C603 C602 1.369 . S
C603 C604 1.410 . S
C603 C611 1.503 . S
C604 C603 1.410 . S
C604 C605 1.392 . S
C604 C607 1.511 . S
C605 C601 1.376 . S
C605 C604 1.392 . S
C605 H617 0.929 1_556 S
C606 C602 1.531 . S
C606 H618 0.960 . S
C606 H619 0.962 . S
C606 H620 0.960 . S
C607 C604 1.511 . S
C607 H621 0.961 1_556 S
C607 H622 0.961 . S
C607 H623 0.961 1_556 S
C608 C609 1.370 . S
C608 C610 1.363 . S
C608 H624 0.931 . S
C609 C608 1.370 . S
C609 C613 1.408 . S
C610 C608 1.363 . S
C610 C611 1.370 . S
C610 C614 1.524 . S
C611 C603 1.503 . S
C611 C610 1.370 . S
C611 C612 1.403 . S
C612 C611 1.403 . S
C612 C613 1.404 . S
C612 C615 1.539 1_556 S
C613 C609 1.408 . S
C613 C612 1.404 . S
C613 H625 0.930 . S
C614 C610 1.524 . S
C614 H626 0.956 . S
C614 H627 0.961 . S
C614 H628 0.961 . S
C615 C612 1.539 1_554 S
C615 H629 0.958 . S
C615 H630 0.961 . S
C615 H631 0.960 . S
H616 C600 0.931 . S
H617 C605 0.929 1_554 S
H618 C606 0.960 . S
H619 C606 0.962 . S
H620 C606 0.960 . S
H621 C607 0.961 1_554 S
H622 C607 0.961 . S
H623 C607 0.961 1_554 S
H624 C608 0.931 . S
H625 C613 0.930 . S
H626 C614 0.956 . S
H627 C614 0.961 . S
H628 C614 0.961 . S
H629 C615 0.958 . S
H630 C615 0.961 . S
H631 C615 0.960 . S
C632 C633 1.391 . S
C632 C634 1.394 . S
C632 H648 0.931 . S
C633 C632 1.391 . S
C633 C637 1.376 . S
C634 C632 1.394 . S
C634 C635 1.369 . S
C634 C638 1.531 . S
C635 C634 1.369 . S
C635 C636 1.410 . S
C635 C643 1.503 . S
C636 C635 1.410 . S
C636 C637 1.392 . S
C636 C639 1.511 . S
C637 C633 1.376 . S
C637 C636 1.392 . S
C637 H649 0.929 . S
C638 C634 1.531 . S
C638 H650 0.960 . S
C638 H651 0.962 . S
C638 H652 0.960 . S
C639 C636 1.511 . S
C639 H653 0.961 . S
C639 H654 0.961 . S
C639 H655 0.961 . S
C640 C641 1.370 . S
C640 C642 1.363 . S
C640 H656 0.931 . S
C641 C640 1.370 . S
C641 C645 1.408 . S
C642 C640 1.363 . S
C642 C643 1.370 . S
C642 C646 1.524 . S
C643 C635 1.503 . S
C643 C642 1.370 . S
C643 C644 1.403 . S
C644 C643 1.403 . S
C644 C645 1.404 . S
C644 C647 1.539 . S
C645 C641 1.408 . S
C645 C644 1.404 . S
C645 H657 0.930 . S
C646 C642 1.524 . S
C646 H658 0.956 . S
C646 H659 0.961 . S
C646 H660 0.961 . S
C647 C644 1.539 . S
C647 H661 0.958 . S
C647 H662 0.961 . S
C647 H663 0.960 . S
H648 C632 0.931 . S
H649 C637 0.929 . S
H650 C638 0.960 . S
H651 C638 0.962 . S
H652 C638 0.960 . S
H653 C639 0.961 . S
H654 C639 0.961 . S
H655 C639 0.961 . S
H656 C640 0.931 . S
H657 C645 0.930 . S
H658 C646 0.956 . S
H659 C646 0.961 . S
H660 C646 0.961 . S
H661 C647 0.958 . S
H662 C647 0.961 . S
H663 C647 0.960 . S
C664 C665 1.391 . S
C664 C666 1.394 . S
C664 H680 0.931 . S
C665 C664 1.391 . S
C665 C669 1.376 . S
C666 C664 1.394 . S
C666 C667 1.369 . S
C666 C670 1.531 . S
C667 C666 1.369 . S
C667 C668 1.410 . S
C667 C675 1.503 . S
C668 C667 1.410 . S
C668 C669 1.392 . S
C668 C671 1.511 . S
C669 C665 1.376 . S
C669 C668 1.392 . S
C669 H681 0.929 . S
C670 C666 1.531 . S
C670 H682 0.960 . S
C670 H683 0.962 . S
C670 H684 0.960 . S
C671 C668 1.511 . S
C671 H685 0.961 . S
C671 H686 0.961 . S
C671 H687 0.961 . S
C672 C673 1.370 . S
C672 C674 1.363 . S
C672 H688 0.931 . S
C673 C672 1.370 . S
C673 C677 1.408 . S
C674 C672 1.363 . S
C674 C675 1.370 . S
C674 C678 1.524 . S
C675 C667 1.503 . S
C675 C674 1.370 . S
C675 C676 1.403 . S
C676 C675 1.403 . S
C676 C677 1.404 . S
C676 C679 1.539 . S
C677 C673 1.408 . S
C677 C676 1.404 . S
C677 H689 0.930 . S
C678 C674 1.524 . S
C678 H690 0.956 . S
C678 H691 0.961 . S
C678 H692 0.961 . S
C679 C676 1.539 . S
C679 H693 0.958 . S
C679 H694 0.961 . S
C679 H695 0.960 . S
H680 C664 0.931 . S
H681 C669 0.929 . S
H682 C670 0.960 . S
H683 C670 0.962 . S
H684 C670 0.960 . S
H685 C671 0.961 . S
H686 C671 0.961 . S
H687 C671 0.961 . S
H688 C672 0.931 . S
H689 C677 0.930 . S
H690 C678 0.956 . S
H691 C678 0.961 . S
H692 C678 0.961 . S
H693 C679 0.958 . S
H694 C679 0.961 . S
H695 C679 0.960 . S
C696 C697 1.391 . S
C696 C698 1.394 . S
C696 H712 0.931 . S
C697 C696 1.391 . S
C697 C701 1.376 1_455 S
C698 C696 1.394 . S
C698 C699 1.369 . S
C698 C702 1.531 . S
C699 C698 1.369 . S
C699 C700 1.410 1_455 S
C699 C707 1.503 1_556 S
C700 C699 1.410 1_655 S
C700 C701 1.392 . S
C700 C703 1.511 . S
C701 C697 1.376 1_655 S
C701 C700 1.392 . S
C701 H713 0.929 . S
C702 C698 1.531 . S
C702 H714 0.960 1_556 S
C702 H715 0.962 . S
C702 H716 0.960 . S
C703 C700 1.511 . S
C703 H717 0.961 . S
C703 H718 0.961 1_556 S
C703 H719 0.961 . S
C704 C705 1.370 . S
C704 C706 1.363 . S
C704 H720 0.931 . S
C705 C704 1.370 . S
C705 C709 1.408 1_455 S
C706 C704 1.363 . S
C706 C707 1.370 . S
C706 C710 1.524 . S
C707 C699 1.503 1_554 S
C707 C706 1.370 . S
C707 C708 1.403 1_455 S
C708 C707 1.403 1_655 S
C708 C709 1.404 . S
C708 C711 1.539 . S
C709 C705 1.408 1_655 S
C709 C708 1.404 . S
C709 H721 0.930 . S
C710 C706 1.524 . S
C710 H722 0.956 . S
C710 H723 0.961 1_554 S
C710 H724 0.961 1_545 S
C711 C708 1.539 . S
C711 H725 0.958 . S
C711 H726 0.961 . S
C711 H727 0.960 . S
H712 C696 0.931 . S
H713 C701 0.929 . S
H714 C702 0.960 1_554 S
H715 C702 0.962 . S
H716 C702 0.960 . S
H717 C703 0.961 . S
H718 C703 0.961 1_554 S
H719 C703 0.961 . S
H720 C704 0.931 . S
H721 C709 0.930 . S
H722 C710 0.956 . S
H723 C710 0.961 1_556 S
H724 C710 0.961 1_565 S
H725 C711 0.958 . S
H726 C711 0.961 . S
H727 C711 0.960 . S
C728 C729 1.391 . S
C728 C730 1.394 . S
C728 H744 0.931 . S
C729 C728 1.391 . S
C729 C733 1.376 . S
C730 C728 1.394 . S
C730 C731 1.369 . S
C730 C734 1.531 . S
C731 C730 1.369 . S
C731 C732 1.410 . S
C731 C739 1.503 . S
C732 C731 1.410 . S
C732 C733 1.392 . S
C732 C735 1.511 . S
C733 C729 1.376 . S
C733 C732 1.392 . S
C733 H745 0.929 . S
C734 C730 1.531 . S
C734 H746 0.960 . S
C734 H747 0.962 . S
C734 H748 0.960 . S
C735 C732 1.511 . S
C735 H749 0.961 . S
C735 H750 0.961 . S
C735 H751 0.961 . S
C736 C737 1.370 . S
C736 C738 1.363 . S
C736 H752 0.931 . S
C737 C736 1.370 . S
C737 C741 1.408 . S
C738 C736 1.363 . S
C738 C739 1.370 . S
C738 C742 1.524 . S
C739 C731 1.503 . S
C739 C738 1.370 . S
C739 C740 1.403 . S
C740 C739 1.403 . S
C740 C741 1.404 . S
C740 C743 1.539 . S
C741 C737 1.408 . S
C741 C740 1.404 . S
C741 H753 0.930 . S
C742 C738 1.524 . S
C742 H754 0.956 . S
C742 H755 0.961 . S
C742 H756 0.961 . S
C743 C740 1.539 . S
C743 H757 0.958 . S
C743 H758 0.961 . S
C743 H759 0.960 . S
H744 C728 0.931 . S
H745 C733 0.929 . S
H746 C734 0.960 . S
H747 C734 0.962 . S
H748 C734 0.960 . S
H749 C735 0.961 . S
H750 C735 0.961 . S
H751 C735 0.961 . S
H752 C736 0.931 . S
H753 C741 0.930 . S
H754 C742 0.956 . S
H755 C742 0.961 . S
H756 C742 0.961 . S
H757 C743 0.958 . S
H758 C743 0.961 . S
H759 C743 0.960 . S
C760 C761 1.391 . S
C760 C762 1.394 . S
C760 H776 0.931 . S
C761 C760 1.391 . S
C761 C765 1.376 . S
C762 C760 1.394 . S
C762 C763 1.369 . S
C762 C766 1.531 . S
C763 C762 1.369 . S
C763 C764 1.410 . S
C763 C771 1.503 . S
C764 C763 1.410 . S
C764 C765 1.392 . S
C764 C767 1.511 . S
C765 C761 1.376 . S
C765 C764 1.392 . S
C765 H777 0.929 . S
C766 C762 1.531 . S
C766 H778 0.960 . S
C766 H779 0.962 . S
C766 H780 0.960 . S
C767 C764 1.511 . S
C767 H781 0.961 . S
C767 H782 0.961 . S
C767 H783 0.961 . S
C768 C769 1.370 . S
C768 C770 1.363 . S
C768 H784 0.931 . S
C769 C768 1.370 . S
C769 C773 1.408 . S
C770 C768 1.363 . S
C770 C771 1.370 . S
C770 C774 1.524 . S
C771 C763 1.503 . S
C771 C770 1.370 . S
C771 C772 1.403 . S
C772 C771 1.403 . S
C772 C773 1.404 . S
C772 C775 1.539 . S
C773 C769 1.408 . S
C773 C772 1.404 . S
C773 H785 0.930 . S
C774 C770 1.524 . S
C774 H786 0.956 . S
C774 H787 0.961 . S
C774 H788 0.961 . S
C775 C772 1.539 . S
C775 H789 0.958 . S
C775 H790 0.961 . S
C775 H791 0.960 . S
H776 C760 0.931 . S
H777 C765 0.929 . S
H778 C766 0.960 . S
H779 C766 0.962 . S
H780 C766 0.960 . S
H781 C767 0.961 . S
H782 C767 0.961 . S
H783 C767 0.961 . S
H784 C768 0.931 . S
H785 C773 0.930 . S
H786 C774 0.956 . S
H787 C774 0.961 . S
H788 C774 0.961 . S
H789 C775 0.958 . S
H790 C775 0.961 . S
H791 C775 0.960 . S
C792 C793 1.391 . S
C792 C794 1.394 . S
C792 H808 0.931 . S
C793 C792 1.391 . S
C793 C797 1.376 . S
C794 C792 1.394 . S
C794 C795 1.369 . S
C794 C798 1.531 . S
C795 C794 1.369 . S
C795 C796 1.410 . S
C795 C803 1.503 . S
C796 C795 1.410 . S
C796 C797 1.392 . S
C796 C799 1.511 . S
C797 C793 1.376 . S
C797 C796 1.392 . S
C797 H809 0.929 . S
C798 C794 1.531 . S
C798 H810 0.960 . S
C798 H811 0.962 . S
C798 H812 0.960 . S
C799 C796 1.511 . S
C799 H813 0.961 . S
C799 H814 0.961 . S
C799 H815 0.961 . S
C800 C801 1.370 . S
C800 C802 1.363 . S
C800 H816 0.931 . S
C801 C800 1.370 . S
C801 C805 1.408 . S
C802 C800 1.363 . S
C802 C803 1.370 . S
C802 C806 1.524 . S
C803 C795 1.503 . S
C803 C802 1.370 . S
C803 C804 1.403 . S
C804 C803 1.403 . S
C804 C805 1.404 . S
C804 C807 1.539 . S
C805 C801 1.408 . S
C805 C804 1.404 . S
C805 H817 0.930 . S
C806 C802 1.524 . S
C806 H818 0.956 . S
C806 H819 0.961 . S
C806 H820 0.961 . S
C807 C804 1.539 . S
C807 H821 0.958 . S
C807 H822 0.961 . S
C807 H823 0.960 . S
H808 C792 0.931 . S
H809 C797 0.929 . S
H810 C798 0.960 . S
H811 C798 0.962 . S
H812 C798 0.960 . S
H813 C799 0.961 . S
H814 C799 0.961 . S
H815 C799 0.961 . S
H816 C800 0.931 . S
H817 C805 0.930 . S
H818 C806 0.956 . S
H819 C806 0.961 . S
H820 C806 0.961 . S
H821 C807 0.958 . S
H822 C807 0.961 . S
H823 C807 0.960 . S
C824 C825 1.391 . S
C824 C826 1.394 . S
C824 H840 0.931 . S
C825 C824 1.391 . S
C825 C829 1.376 . S
C826 C824 1.394 . S
C826 C827 1.369 . S
C826 C830 1.531 . S
C827 C826 1.369 . S
C827 C828 1.410 . S
C827 C835 1.503 . S
C828 C827 1.410 . S
C828 C829 1.392 . S
C828 C831 1.511 . S
C829 C825 1.376 . S
C829 C828 1.392 . S
C829 H841 0.929 . S
C830 C826 1.531 . S
C830 H842 0.960 . S
C830 H843 0.962 . S
C830 H844 0.960 . S
C831 C828 1.511 . S
C831 H845 0.961 . S
C831 H846 0.961 . S
C831 H847 0.961 . S
C832 C833 1.370 . S
C832 C834 1.363 . S
C832 H848 0.931 . S
C833 C832 1.370 . S
C833 C837 1.408 . S
C834 C832 1.363 . S
C834 C835 1.370 . S
C834 C838 1.524 . S
C835 C827 1.503 . S
C835 C834 1.370 . S
C835 C836 1.403 . S
C836 C835 1.403 . S
C836 C837 1.404 . S
C836 C839 1.539 . S
C837 C833 1.408 . S
C837 C836 1.404 . S
C837 H849 0.930 . S
C838 C834 1.524 . S
C838 H850 0.956 . S
C838 H851 0.961 . S
C838 H852 0.961 . S
C839 C836 1.539 . S
C839 H853 0.958 . S
C839 H854 0.961 . S
C839 H855 0.960 . S
H840 C824 0.931 . S
H841 C829 0.929 . S
H842 C830 0.960 . S
H843 C830 0.962 . S
H844 C830 0.960 . S
H845 C831 0.961 . S
H846 C831 0.961 . S
H847 C831 0.961 . S
H848 C832 0.931 . S
H849 C837 0.930 . S
H850 C838 0.956 . S
H851 C838 0.961 . S
H852 C838 0.961 . S
H853 C839 0.958 . S
H854 C839 0.961 . S
H855 C839 0.960 . S
C856 C857 1.391 . S
C856 C858 1.394 . S
C856 H872 0.931 . S
C857 C856 1.391 . S
C857 C861 1.376 . S
C858 C856 1.394 . S
C858 C859 1.369 . S
C858 C862 1.531 . S
C859 C858 1.369 . S
C859 C860 1.410 . S
C859 C867 1.503 . S
C860 C859 1.410 . S
C860 C861 1.392 . S
C860 C863 1.511 . S
C861 C857 1.376 . S
C861 C860 1.392 . S
C861 H873 0.929 . S
C862 C858 1.531 . S
C862 H874 0.960 . S
C862 H875 0.962 . S
C862 H876 0.960 . S
C863 C860 1.511 . S
C863 H877 0.961 . S
C863 H878 0.961 . S
C863 H879 0.961 . S
C864 C865 1.370 . S
C864 C866 1.363 . S
C864 H880 0.931 . S
C865 C864 1.370 . S
C865 C869 1.408 . S
C866 C864 1.363 . S
C866 C867 1.370 . S
C866 C870 1.524 . S
C867 C859 1.503 . S
C867 C866 1.370 . S
C867 C868 1.403 . S
C868 C867 1.403 . S
C868 C869 1.404 . S
C868 C871 1.539 . S
C869 C865 1.408 . S
C869 C868 1.404 . S
C869 H881 0.930 . S
C870 C866 1.524 . S
C870 H882 0.956 . S
C870 H883 0.961 . S
C870 H884 0.961 . S
C871 C868 1.539 . S
C871 H885 0.958 . S
C871 H886 0.961 . S
C871 H887 0.960 . S
H872 C856 0.931 . S
H873 C861 0.929 . S
H874 C862 0.960 . S
H875 C862 0.962 . S
H876 C862 0.960 . S
H877 C863 0.961 . S
H878 C863 0.961 . S
H879 C863 0.961 . S
H880 C864 0.931 . S
H881 C869 0.930 . S
H882 C870 0.956 . S
H883 C870 0.961 . S
H884 C870 0.961 . S
H885 C871 0.958 . S
H886 C871 0.961 . S
H887 C871 0.960 . S
C888 C889 1.391 . S
C888 C890 1.394 . S
C888 H904 0.931 . S
C889 C888 1.391 . S
C889 C893 1.376 . S
C890 C888 1.394 . S
C890 C891 1.369 . S
C890 C894 1.531 . S
C891 C890 1.369 . S
C891 C892 1.410 . S
C891 C899 1.503 . S
C892 C891 1.410 . S
C892 C893 1.392 . S
C892 C895 1.511 . S
C893 C889 1.376 . S
C893 C892 1.392 . S
C893 H905 0.929 . S
C894 C890 1.531 . S
C894 H906 0.960 . S
C894 H907 0.962 . S
C894 H908 0.960 . S
C895 C892 1.511 . S
C895 H909 0.961 . S
C895 H910 0.961 . S
C895 H911 0.961 . S
C896 C897 1.370 . S
C896 C898 1.363 . S
C896 H912 0.931 . S
C897 C896 1.370 . S
C897 C901 1.408 . S
C898 C896 1.363 . S
C898 C899 1.370 . S
C898 C902 1.524 . S
C899 C891 1.503 . S
C899 C898 1.370 . S
C899 C900 1.403 . S
C900 C899 1.403 . S
C900 C901 1.404 . S
C900 C903 1.539 . S
C901 C897 1.408 . S
C901 C900 1.404 . S
C901 H913 0.930 . S
C902 C898 1.524 . S
C902 H914 0.956 . S
C902 H915 0.961 . S
C902 H916 0.961 . S
C903 C900 1.539 . S
C903 H917 0.958 . S
C903 H918 0.961 . S
C903 H919 0.960 . S
H904 C888 0.931 . S
H905 C893 0.929 . S
H906 C894 0.960 . S
H907 C894 0.962 . S
H908 C894 0.960 . S
H909 C895 0.961 . S
H910 C895 0.961 . S
H911 C895 0.961 . S
H912 C896 0.931 . S
H913 C901 0.930 . S
H914 C902 0.956 . S
H915 C902 0.961 . S
H916 C902 0.961 . S
H917 C903 0.958 . S
H918 C903 0.961 . S
H919 C903 0.960 . S
C920 C921 1.391 1_455 S
C920 C922 1.394 . S
C920 H936 0.931 . S
C921 C920 1.391 1_655 S
C921 C925 1.376 . S
C922 C920 1.394 . S
C922 C923 1.369 1_455 S
C922 C926 1.531 . S
C923 C922 1.369 1_655 S
C923 C924 1.410 . S
C923 C931 1.503 1_556 S
C924 C923 1.410 . S
C924 C925 1.392 . S
C924 C927 1.511 . S
C925 C921 1.376 . S
C925 C924 1.392 . S
C925 H937 0.929 . S
C926 C922 1.531 . S
C926 H938 0.960 1_556 S
C926 H939 0.962 . S
C926 H940 0.960 . S
C927 C924 1.511 . S
C927 H941 0.961 . S
C927 H942 0.961 1_556 S
C927 H943 0.961 . S
C928 C929 1.364 1_455 S
C928 C930 1.363 1_455 S
C928 H944 0.937 . S
C929 C928 1.364 1_655 S
C929 C933 1.408 . S
C930 C928 1.363 1_655 S
C930 C931 1.372 . S
C930 C934 1.522 1_655 S
C931 C923 1.503 1_554 S
C931 C930 1.372 . S
C931 C932 1.403 . S
C932 C931 1.403 . S
C932 C933 1.404 . S
C932 C935 1.539 . S
C933 C929 1.408 . S
C933 C932 1.404 . S
C933 H945 0.930 . S
C934 C930 1.522 1_455 S
C934 H946 0.956 . S
C934 H947 0.961 1_455 S
C934 H948 0.961 . S
C935 C932 1.539 . S
C935 H949 0.958 . S
C935 H950 0.961 . S
C935 H951 0.960 1_554 S
H936 C920 0.931 . S
H937 C925 0.929 . S
H938 C926 0.960 1_554 S
H939 C926 0.962 . S
H940 C926 0.960 . S
H941 C927 0.961 . S
H942 C927 0.961 1_554 S
H943 C927 0.961 . S
H944 C928 0.937 . S
H945 C933 0.930 . S
H946 C934 0.956 . S
H947 C934 0.961 1_655 S
H948 C934 0.961 . S
H949 C935 0.958 . S
H950 C935 0.961 . S
H951 C935 0.960 1_556 S
C185 C20 1.520 . S
C193 C85 1.528 . S
C217 C16 1.538 1_565 S
C225 C43 1.489 . S
C249 C39 1.523 . S
C257 C66 1.510 . S
C281 C62 1.539 . S
C289 C89 1.489 . S
C313 C19 1.455 1_565 S
C321 C132 1.533 . S
C345 C17 1.529 . S
C353 C111 1.475 . S
C377 C109 1.527 . S
C385 C65 1.500 . S
C409 C134 1.473 . S
C417 C63 1.539 . S
C441 C158 1.486 . S
C449 C131 1.531 . S
C473 C112 1.498 . S
C481 C154 1.536 . S
C505 C181 1.477 . S
C513 C108 1.533 . S
C537 C135 1.520 . S
C545 C177 1.527 . S
C569 C86 1.539 . S
C577 C157 1.476 . S
C601 C155 1.542 . S
C609 C42 1.481 . S
C633 C40 1.542 . S
C641 C180 1.481 . S
C665 C88 1.467 . S
C673 C178 1.539 . S
C697 C18 0.975 . S
C705 C21 0.930 . S
C729 C44 0.894 . S
C737 C41 0.984 1_554 S
C761 C67 1.008 . S
C769 C64 0.996 . S
C793 C90 1.008 1_556 S
C801 C87 0.996 . S
C825 C113 0.930 1_556 S
C833 C110 0.985 . S
C857 C136 1.005 . S
C865 C133 0.995 1_554 S
C889 C159 0.900 . S
C897 C156 0.984 . S
C921 C179 1.004 . S
C929 C182 0.977 . S
