# Generated by pormake.
# Topology wgu, (5)-cn, num edge types: 1
# Building blocks:
#     Node 0, Type 0, BuildingBlock: XOMCOT_clean_sbu_0, # of connection points: 5
#     Node 1, Type 0, BuildingBlock: XOMCOT_clean_sbu_0, # of connection points: 5
#     Node 2, Type 0, BuildingBlock: XOMCOT_clean_sbu_0, # of connection points: 5
#     Node 3, Type 0, BuildingBlock: XOMCOT_clean_sbu_0, # of connection points: 5
#     Node 4, Type 0, BuildingBlock: XOMCOT_clean_sbu_0, # of connection points: 5
#     Node 5, Type 0, BuildingBlock: XOMCOT_clean_sbu_0, # of connection points: 5
#     Node 6, Type 0, BuildingBlock: XOMCOT_clean_sbu_0, # of connection points: 5
#     Node 7, Type 0, BuildingBlock: XOMCOT_clean_sbu_0, # of connection points: 5
#     Edge 8, Type (0, 0), None
#     Edge 9, Type (0, 0), None
#     Edge 10, Type (0, 0), None
#     Edge 11, Type (0, 0), None
#     Edge 12, Type (0, 0), None
#     Edge 13, Type (0, 0), None
#     Edge 14, Type (0, 0), None
#     Edge 15, Type (0, 0), None
#     Edge 16, Type (0, 0), None
#     Edge 17, Type (0, 0), None
#     Edge 18, Type (0, 0), None
#     Edge 19, Type (0, 0), None
#     Edge 20, Type (0, 0), None
#     Edge 21, Type (0, 0), None
#     Edge 22, Type (0, 0), None
#     Edge 23, Type (0, 0), None
#     Edge 24, Type (0, 0), None
#     Edge 25, Type (0, 0), None
#     Edge 26, Type (0, 0), None
#     Edge 27, Type (0, 0), None
# Relax obj value: 0.270
# Max RMSD: 0.163
# Mean RMSD: 0.163
data_MOF--net-wgu--node1-XOMCOT_clean_sbu_0--edge1-none
_symmetry_space_group_name_H-M    P1
_symmetry_Int_Tables_number       1
_symmetry_cell_setting            triclinic
loop_
_symmetry_equiv_pos_as_xyz
'x, y, z'
_cell_length_a     15.644611
_cell_length_b     15.644184
_cell_length_c     14.998823
_cell_angle_alpha  89.998205
_cell_angle_beta   89.996288
_cell_angle_gamma 90.000825
loop_
_atom_site_label
_atom_site_type_symbol
_atom_site_fract_x
_atom_site_fract_y
_atom_site_fract_z
_atom_type_partial_charge
Co0 Co 0.37625 0.40791 0.14866 0.0
C1 C 0.3917 0.23024 0.10487 0.0
C2 C 0.51439 0.28969 0.09262 0.0
C3 C 0.51579 0.21315 0.04645 0.0
N4 N 0.43548 0.30113 0.12768 0.0
N5 N 0.4382 0.17697 0.05484 0.0
H6 H 0.32327 0.22372 0.11112 0.0
H7 H 0.56394 0.33774 0.09002 0.0
C8 C 0.51446 0.55062 0.13798 0.0
O9 O 0.45976 0.6102 0.16089 0.0
N10 N 0.31092 0.51278 0.16557 0.0
C11 C 0.25247 0.52919 0.2303 0.0
C12 C 0.19622 0.59093 0.20088 0.0
C13 C 0.29025 0.56703 0.09901 0.0
N14 N 0.22023 0.61324 0.11837 0.0
C15 C 0.25977 0.38951 1.00655 0.0
C16 C 0.37783 0.38096 0.87002 0.0
C17 C 0.29255 0.35797 0.85379 0.0
C18 C 0.23291 0.36455 0.92223 0.0
C19 C 0.40254 0.40482 0.9563 0.0
N20 N 0.34392 0.40616 0.02375 0.0
H21 H 0.21298 0.39251 0.05924 0.0
H22 H 0.4691 0.41793 0.96958 0.0
H23 H 0.24685 0.49571 0.29292 0.0
H24 H 0.32257 0.56914 0.03527 0.0
O25 O 0.27955 0.34347 0.19367 0.0
O26 O 0.38631 0.39116 0.27674 0.0
O27 O 0.48946 0.47283 0.12721 0.0
C28 C 0.31595 0.34665 0.27084 0.0
H29 H 0.56642 0.19026 1.00347 0.0
H30 H 0.14143 0.61613 0.23584 0.0
H31 H 0.42512 0.37766 0.81736 0.0
H32 H 0.16625 0.34953 0.91067 0.0
Co33 Co 0.71446 0.37627 0.64866 0.0
C34 C 0.89214 0.39172 0.60488 0.0
C35 C 0.83269 0.51441 0.59263 0.0
C36 C 0.90923 0.51581 0.54646 0.0
N37 N 0.82125 0.4355 0.62769 0.0
N38 N 0.94541 0.43822 0.55485 0.0
H39 H 0.89866 0.32329 0.61113 0.0
H40 H 0.78464 0.56396 0.59002 0.0
C41 C 0.57175 0.51447 0.63794 0.0
O42 O 0.51214 0.45975 0.66074 0.0
N43 N 0.60959 0.31093 0.66558 0.0
C44 C 0.59317 0.2525 0.73031 0.0
C45 C 0.53143 0.19624 0.70089 0.0
C46 C 0.55536 0.29025 0.59901 0.0
N47 N 0.50914 0.22024 0.61837 0.0
C48 C 0.73288 0.25979 0.50655 0.0
C49 C 0.74144 0.37786 0.37003 0.0
C50 C 0.76443 0.29259 0.35378 0.0
C51 C 0.75785 0.23294 0.42222 0.0
C52 C 0.71757 0.40257 0.45631 0.0
N53 N 0.71623 0.34395 0.52375 0.0
H54 H 0.72988 0.213 0.55923 0.0
H55 H 0.70445 0.46913 0.46959 0.0
H56 H 0.62664 0.24688 0.79294 0.0
H57 H 0.55326 0.32256 0.53526 0.0
O58 O 0.7789 0.27956 0.69366 0.0
O59 O 0.73121 0.38631 0.77675 0.0
O60 O 0.64955 0.48948 0.62724 0.0
C61 C 0.77571 0.31596 0.77084 0.0
H62 H 0.93213 0.56644 0.50347 0.0
H63 H 0.50621 0.14146 0.73586 0.0
H64 H 0.74473 0.42516 0.31737 0.0
H65 H 0.77287 0.16628 0.41066 0.0
Co66 Co 0.74611 0.71448 0.14868 0.0
C67 C 0.73066 0.89216 0.1049 0.0
C68 C 0.60798 0.8327 0.09265 0.0
C69 C 0.60658 0.90924 0.04648 0.0
N70 N 0.68688 0.82127 0.12772 0.0
N71 N 0.68416 0.94542 0.05486 0.0
H72 H 0.79909 0.89868 0.11115 0.0
H73 H 0.55843 0.78465 0.09005 0.0
C74 C 0.60792 0.57176 0.13792 0.0
O75 O 0.66264 0.51212 0.16062 0.0
N76 N 0.81144 0.60961 0.16558 0.0
C77 C 0.86986 0.59316 0.23032 0.0
C78 C 0.92611 0.53142 0.2009 0.0
C79 C 0.83214 0.55539 0.099 0.0
N80 N 0.90214 0.50915 0.11837 0.0
C81 C 0.86258 0.7329 1.00655 0.0
C82 C 0.7445 0.74146 0.87004 0.0
C83 C 0.82978 0.76445 0.85379 0.0
C84 C 0.88943 0.75788 0.92222 0.0
C85 C 0.7198 0.71758 0.95633 0.0
N86 N 0.77843 0.71624 0.02376 0.0
H87 H 0.90937 0.7299 0.05922 0.0
H88 H 0.65325 0.70446 0.96961 0.0
H89 H 0.87545 0.62662 0.29296 0.0
H90 H 0.79984 0.55329 0.03525 0.0
O91 O 0.84282 0.77891 0.19366 0.0
O92 O 0.73608 0.73123 0.27677 0.0
O93 O 0.63289 0.64957 0.12729 0.0
C94 C 0.80643 0.77573 0.27084 0.0
H95 H 0.55595 0.93212 1.00349 0.0
H96 H 0.98088 0.50619 0.23587 0.0
H97 H 0.69721 0.74475 0.81739 0.0
H98 H 0.95609 0.7729 0.91065 0.0
Co99 Co 0.40789 0.74613 0.64865 0.0
C100 C 0.23022 0.73067 0.60488 0.0
C101 C 0.28968 0.60799 0.59262 0.0
C102 C 0.21315 0.60659 0.54645 0.0
N103 N 0.30111 0.68689 0.62768 0.0
N104 N 0.17696 0.68417 0.55484 0.0
H105 H 0.2237 0.7991 0.61113 0.0
H106 H 0.33773 0.55844 0.59001 0.0
C107 C 0.55061 0.60793 0.63793 0.0
O108 O 0.61022 0.66265 0.66074 0.0
N109 N 0.51276 0.81146 0.66555 0.0
C110 C 0.52919 0.86988 0.7303 0.0
C111 C 0.59094 0.92614 0.70088 0.0
C112 C 0.56699 0.83216 0.59898 0.0
N113 N 0.61322 0.90216 0.61835 0.0
C114 C 0.38949 0.8626 0.50653 0.0
C115 C 0.38093 0.74454 0.37002 0.0
C116 C 0.35794 0.82981 0.35377 0.0
C117 C 0.36452 0.88946 0.4222 0.0
C118 C 0.4048 0.71983 0.4563 0.0
N119 N 0.40614 0.77845 0.52373 0.0
H120 H 0.39248 0.9094 0.55921 0.0
H121 H 0.41792 0.65327 0.46958 0.0
H122 H 0.49572 0.87548 0.79293 0.0
H123 H 0.5691 0.79985 0.53523 0.0
O124 O 0.34346 0.84283 0.69364 0.0
O125 O 0.39114 0.73608 0.77673 0.0
O126 O 0.47281 0.63291 0.62723 0.0
C127 C 0.34664 0.80644 0.77082 0.0
H128 H 0.19026 0.55596 0.50346 0.0
H129 H 0.61616 0.98091 0.73586 0.0
H130 H 0.37764 0.69724 0.31736 0.0
H131 H 0.34949 0.95612 0.41064 0.0
Co132 Co 0.87623 0.21446 0.97023 0.0
C133 C 0.89162 0.39208 1.01418 0.0
C134 C 1.01437 0.33271 0.0262 0.0
C135 C 1.01578 0.4092 0.07248 0.0
N136 N 0.93543 0.32126 0.99122 0.0
N137 N 0.93812 0.44525 0.0643 0.0
H138 H 0.82318 0.3986 1.00795 0.0
H139 H 0.06397 0.2847 0.02864 0.0
C140 C 1.01446 0.07176 0.98091 0.0
O141 O 0.95975 1.01215 0.95807 0.0
N142 N 0.81092 0.10958 0.95331 0.0
C143 C 0.75239 0.09321 0.88865 0.0
C144 C 0.69615 1.03147 0.91813 0.0
C145 C 0.79031 1.05532 0.01988 0.0
N146 N 0.72029 1.00909 1.00058 0.0
C147 C 0.75975 0.23283 0.11235 0.0
C148 C 0.87783 0.24147 0.24884 0.0
C149 C 0.79256 0.26445 0.26509 0.0
C150 C 0.7329 0.25783 0.19667 0.0
C151 C 0.90254 0.21757 0.16257 0.0
N152 N 0.8439 0.21619 0.09514 0.0
H153 H 0.71296 0.22981 0.05967 0.0
H154 H 0.96909 0.20448 0.14928 0.0
H155 H 0.74666 0.12675 0.82608 0.0
H156 H 0.82265 1.05323 0.0836 0.0
O157 O 0.77952 0.2789 0.92524 0.0
O158 O 0.88628 0.23123 0.84215 0.0
O159 O 0.98946 0.14956 0.99163 0.0
C160 C 0.81593 0.27573 0.84806 0.0
H161 H 0.06647 0.43214 0.11535 0.0
H162 H 0.64125 1.00637 0.88328 0.0
H163 H 0.92513 0.24479 0.30149 0.0
H164 H 0.66624 0.27285 0.20824 0.0
Co165 Co 0.90793 0.87624 0.47023 0.0
C166 C 0.73031 0.89163 0.51417 0.0
C167 C 0.78968 1.01439 0.5262 0.0
C168 C 0.71319 1.01579 0.57247 0.0
N169 N 0.80113 0.93545 0.49123 0.0
N170 N 0.67714 0.93814 0.56429 0.0
H171 H 0.72379 0.8232 0.50794 0.0
H172 H 0.83769 0.06398 0.52865 0.0
C173 C 1.05063 1.01447 0.48092 0.0
O174 O 0.11024 0.95976 0.45813 0.0
N175 N 1.01281 0.81093 0.45331 0.0
C176 C 1.02919 0.7524 0.38865 0.0
C177 C 0.09092 0.69616 0.41812 0.0
C178 C 0.06706 0.79031 0.51988 0.0
N179 N 0.11329 0.72029 0.50057 0.0
C180 C 0.88954 0.75977 0.61236 0.0
C181 C 0.8809 0.87786 0.74884 0.0
C182 C 0.85792 0.79258 0.7651 0.0
C183 C 0.86454 0.73292 0.69668 0.0
C184 C 0.90481 0.90256 0.66257 0.0
N185 N 0.90619 0.84392 0.59514 0.0
H186 H 0.89257 0.71297 0.55968 0.0
H187 H 0.91791 0.96911 0.64928 0.0
H188 H 0.99565 0.74668 0.32607 0.0
H189 H 0.06914 0.82265 0.58361 0.0
O190 O 0.84349 0.77953 0.42524 0.0
O191 O 0.89117 0.88629 0.34215 0.0
O192 O 0.97283 0.98947 0.49163 0.0
C193 C 0.84667 0.81593 0.34807 0.0
H194 H 0.69024 0.06649 0.61535 0.0
H195 H 0.11602 0.64127 0.38326 0.0
H196 H 0.87758 0.92516 0.80149 0.0
H197 H 0.84952 0.66625 0.70825 0.0
Co198 Co 0.24614 0.90794 0.97022 0.0
C199 C 0.23075 0.73032 1.01418 0.0
C200 C 0.10799 0.78968 0.02621 0.0
C201 C 0.10659 0.71319 0.07248 0.0
N202 N 0.18694 0.80114 0.99123 0.0
N203 N 0.18425 0.67714 0.0643 0.0
H204 H 0.29919 0.72381 1.00795 0.0
H205 H 1.0584 0.83768 0.02865 0.0
C206 C 0.10792 1.05063 0.98089 0.0
O207 O 0.16261 0.11023 0.95798 0.0
N208 N 0.31145 1.01282 0.95329 0.0
C209 C 0.37 1.02918 0.88864 0.0
C210 C 0.42624 0.09092 0.91812 0.0
C211 C 0.33205 0.06709 0.01986 0.0
N212 N 0.40208 0.11331 1.00056 0.0
C213 C 0.36262 0.88957 0.11233 0.0
C214 C 0.24454 0.88093 0.24884 0.0
C215 C 0.32981 0.85795 0.26508 0.0
C216 C 0.38947 0.86457 0.19666 0.0
C217 C 0.21983 0.90482 0.16257 0.0
N218 N 0.27847 0.9062 0.09513 0.0
H219 H 0.40941 0.89259 0.05965 0.0
H220 H 0.15328 0.91791 0.14928 0.0
H221 H 0.37574 0.99562 0.82608 0.0
H222 H 0.29969 0.06918 0.08358 0.0
O223 O 0.34284 0.8435 0.92522 0.0
O224 O 0.23608 0.89117 0.84215 0.0
O225 O 0.13292 0.97285 0.99165 0.0
C226 C 0.30643 0.84667 0.84805 0.0
H227 H 1.05589 0.69024 0.11535 0.0
H228 H 0.48116 0.11599 0.88328 0.0
H229 H 0.19724 0.8776 0.30149 0.0
H230 H 0.45613 0.84956 0.20822 0.0
Co231 Co 0.21445 0.24616 0.47025 0.0
C232 C 0.39206 0.23077 0.5142 0.0
C233 C 0.33269 0.10801 0.52623 0.0
C234 C 0.40918 0.1066 0.57249 0.0
N235 N 0.32124 0.18695 0.49125 0.0
N236 N 0.44523 0.18426 0.56431 0.0
H237 H 0.39858 0.29921 0.50798 0.0
H238 H 0.28469 1.05841 0.52867 0.0
C239 C 0.07176 0.10793 0.4809 0.0
O240 O 1.01217 0.16262 0.45795 0.0
N241 N 0.10957 0.31147 0.45331 0.0
C242 C 0.09322 0.37002 0.38866 0.0
C243 C 1.03148 0.42625 0.41814 0.0
C244 C 1.0553 0.33207 0.51988 0.0
N245 N 1.00908 0.4021 0.50058 0.0
C246 C 0.23281 0.36265 0.61236 0.0
C247 C 0.24144 0.24457 0.74886 0.0
C248 C 0.26441 0.32985 0.7651 0.0
C249 C 0.2578 0.38951 0.69668 0.0
C250 C 0.21755 0.21986 0.66259 0.0
N251 N 0.21618 0.27849 0.59515 0.0
H252 H 0.22979 0.40944 0.55967 0.0
H253 H 0.20446 0.1533 0.6493 0.0
H254 H 0.12678 0.37576 0.3261 0.0
H255 H 1.0532 0.29971 0.5836 0.0
O256 O 0.27889 0.34286 0.42524 0.0
O257 O 0.23123 0.23609 0.34217 0.0
O258 O 0.14954 0.13294 0.49168 0.0
C259 C 0.27572 0.30645 0.34807 0.0
H260 H 0.43213 1.0559 0.61536 0.0
H261 H 1.00641 0.48117 0.38329 0.0
H262 H 0.24477 0.19726 0.80151 0.0
H263 H 0.27281 0.45617 0.70824 0.0
loop_
_geom_bond_atom_site_label_1
_geom_bond_atom_site_label_2
_geom_bond_distance
_geom_bond_site_symmetry_2
_ccdc_geom_bond_type
Co0 N4 2.148 . S
Co0 N10 2.128 . S
Co0 N20 2.194 1_554 S
Co0 O25 2.351 . S
Co0 O26 2.155 . S
Co0 O27 2.096 . S
C1 N4 1.301 . S
C1 N5 1.328 . S
C1 H6 0.930 . S
C2 C3 1.333 . S
C2 N4 1.317 . S
C2 H7 0.930 . S
C3 C2 1.333 . S
C3 N5 1.350 . S
C3 H29 0.931 . S
N4 Co0 2.148 . S
N4 C1 1.301 . S
N4 C2 1.317 . S
N5 C1 1.328 . S
N5 C3 1.350 . S
H6 C1 0.930 . S
H7 C2 0.930 . S
C8 O9 1.224 . S
C8 O27 1.247 . S
O9 C8 1.224 . S
N10 Co0 2.128 . S
N10 C11 1.355 . S
N10 C13 1.311 . S
C11 N10 1.355 . S
C11 C12 1.363 . S
C11 H23 0.929 . S
C12 C11 1.363 . S
C12 N14 1.375 . S
C12 H30 0.931 . S
C13 N10 1.311 . S
C13 N14 1.347 . S
C13 H24 0.929 . S
N14 C12 1.375 . S
N14 C13 1.347 . S
C15 C18 1.365 . S
C15 N20 1.328 . S
C15 H21 0.929 1_556 S
C16 C17 1.362 . S
C16 C19 1.378 . S
C16 H31 0.929 . S
C17 C16 1.362 . S
C17 C18 1.366 . S
C18 C15 1.365 . S
C18 C17 1.366 . S
C18 H32 0.930 . S
C19 C16 1.378 . S
C19 N20 1.315 . S
C19 H22 0.930 . S
N20 Co0 2.194 1_556 S
N20 C15 1.328 . S
N20 C19 1.315 . S
H21 C15 0.929 1_554 S
H22 C19 0.930 . S
H23 C11 0.929 . S
H24 C13 0.929 . S
O25 Co0 2.351 . S
O25 C28 1.244 . S
O26 Co0 2.155 . S
O26 C28 1.240 . S
O27 Co0 2.096 . S
O27 C8 1.247 . S
C28 O25 1.244 . S
C28 O26 1.240 . S
H29 C3 0.931 . S
H30 C12 0.931 . S
H31 C16 0.929 . S
H32 C18 0.930 . S
Co33 N37 2.148 . S
Co33 N43 2.128 . S
Co33 N53 2.194 . S
Co33 O58 2.351 . S
Co33 O59 2.155 . S
Co33 O60 2.096 . S
C34 N37 1.301 . S
C34 N38 1.328 . S
C34 H39 0.930 . S
C35 C36 1.333 . S
C35 N37 1.317 . S
C35 H40 0.930 . S
C36 C35 1.333 . S
C36 N38 1.350 . S
C36 H62 0.931 . S
N37 Co33 2.148 . S
N37 C34 1.301 . S
N37 C35 1.317 . S
N38 C34 1.328 . S
N38 C36 1.350 . S
H39 C34 0.930 . S
H40 C35 0.930 . S
C41 O42 1.224 . S
C41 O60 1.247 . S
O42 C41 1.224 . S
N43 Co33 2.128 . S
N43 C44 1.355 . S
N43 C46 1.311 . S
C44 N43 1.355 . S
C44 C45 1.363 . S
C44 H56 0.929 . S
C45 C44 1.363 . S
C45 N47 1.375 . S
C45 H63 0.931 . S
C46 N43 1.311 . S
C46 N47 1.347 . S
C46 H57 0.929 . S
N47 C45 1.375 . S
N47 C46 1.347 . S
C48 C51 1.365 . S
C48 N53 1.328 . S
C48 H54 0.929 . S
C49 C50 1.362 . S
C49 C52 1.378 . S
C49 H64 0.929 . S
C50 C49 1.362 . S
C50 C51 1.366 . S
C51 C48 1.365 . S
C51 C50 1.366 . S
C51 H65 0.930 . S
C52 C49 1.378 . S
C52 N53 1.315 . S
C52 H55 0.930 . S
N53 Co33 2.194 . S
N53 C48 1.328 . S
N53 C52 1.315 . S
H54 C48 0.929 . S
H55 C52 0.930 . S
H56 C44 0.929 . S
H57 C46 0.929 . S
O58 Co33 2.351 . S
O58 C61 1.244 . S
O59 Co33 2.155 . S
O59 C61 1.240 . S
O60 Co33 2.096 . S
O60 C41 1.247 . S
C61 O58 1.244 . S
C61 O59 1.240 . S
H62 C36 0.931 . S
H63 C45 0.931 . S
H64 C49 0.929 . S
H65 C51 0.930 . S
Co66 N70 2.148 . S
Co66 N76 2.128 . S
Co66 N86 2.194 1_554 S
Co66 O91 2.351 . S
Co66 O92 2.155 . S
Co66 O93 2.096 . S
C67 N70 1.301 . S
C67 N71 1.328 . S
C67 H72 0.930 . S
C68 C69 1.333 . S
C68 N70 1.317 . S
C68 H73 0.930 . S
C69 C68 1.333 . S
C69 N71 1.350 . S
C69 H95 0.931 . S
N70 Co66 2.148 . S
N70 C67 1.301 . S
N70 C68 1.317 . S
N71 C67 1.328 . S
N71 C69 1.350 . S
H72 C67 0.930 . S
H73 C68 0.930 . S
C74 O75 1.224 . S
C74 O93 1.247 . S
O75 C74 1.224 . S
N76 Co66 2.128 . S
N76 C77 1.355 . S
N76 C79 1.311 . S
C77 N76 1.355 . S
C77 C78 1.363 . S
C77 H89 0.929 . S
C78 C77 1.363 . S
C78 N80 1.375 . S
C78 H96 0.931 . S
C79 N76 1.311 . S
C79 N80 1.347 . S
C79 H90 0.929 . S
N80 C78 1.375 . S
N80 C79 1.347 . S
C81 C84 1.365 . S
C81 N86 1.328 . S
C81 H87 0.929 1_556 S
C82 C83 1.362 . S
C82 C85 1.378 . S
C82 H97 0.929 . S
C83 C82 1.362 . S
C83 C84 1.366 . S
C84 C81 1.365 . S
C84 C83 1.366 . S
C84 H98 0.930 . S
C85 C82 1.378 . S
C85 N86 1.315 . S
C85 H88 0.930 . S
N86 Co66 2.194 1_556 S
N86 C81 1.328 . S
N86 C85 1.315 . S
H87 C81 0.929 1_554 S
H88 C85 0.930 . S
H89 C77 0.929 . S
H90 C79 0.929 . S
O91 Co66 2.351 . S
O91 C94 1.244 . S
O92 Co66 2.155 . S
O92 C94 1.240 . S
O93 Co66 2.096 . S
O93 C74 1.247 . S
C94 O91 1.244 . S
C94 O92 1.240 . S
H95 C69 0.931 . S
H96 C78 0.931 . S
H97 C82 0.929 . S
H98 C84 0.930 . S
Co99 N103 2.148 . S
Co99 N109 2.128 . S
Co99 N119 2.194 . S
Co99 O124 2.351 . S
Co99 O125 2.155 . S
Co99 O126 2.096 . S
C100 N103 1.301 . S
C100 N104 1.328 . S
C100 H105 0.930 . S
C101 C102 1.333 . S
C101 N103 1.317 . S
C101 H106 0.930 . S
C102 C101 1.333 . S
C102 N104 1.350 . S
C102 H128 0.931 . S
N103 Co99 2.148 . S
N103 C100 1.301 . S
N103 C101 1.317 . S
N104 C100 1.328 . S
N104 C102 1.350 . S
H105 C100 0.930 . S
H106 C101 0.930 . S
C107 O108 1.224 . S
C107 O126 1.247 . S
O108 C107 1.224 . S
N109 Co99 2.128 . S
N109 C110 1.355 . S
N109 C112 1.311 . S
C110 N109 1.355 . S
C110 C111 1.363 . S
C110 H122 0.929 . S
C111 C110 1.363 . S
C111 N113 1.375 . S
C111 H129 0.931 . S
C112 N109 1.311 . S
C112 N113 1.347 . S
C112 H123 0.929 . S
N113 C111 1.375 . S
N113 C112 1.347 . S
C114 C117 1.365 . S
C114 N119 1.328 . S
C114 H120 0.929 . S
C115 C116 1.362 . S
C115 C118 1.378 . S
C115 H130 0.929 . S
C116 C115 1.362 . S
C116 C117 1.366 . S
C117 C114 1.365 . S
C117 C116 1.366 . S
C117 H131 0.930 . S
C118 C115 1.378 . S
C118 N119 1.315 . S
C118 H121 0.930 . S
N119 Co99 2.194 . S
N119 C114 1.328 . S
N119 C118 1.315 . S
H120 C114 0.929 . S
H121 C118 0.930 . S
H122 C110 0.929 . S
H123 C112 0.929 . S
O124 Co99 2.351 . S
O124 C127 1.244 . S
O125 Co99 2.155 . S
O125 C127 1.240 . S
O126 Co99 2.096 . S
O126 C107 1.247 . S
C127 O124 1.244 . S
C127 O125 1.240 . S
H128 C102 0.931 . S
H129 C111 0.931 . S
H130 C115 0.929 . S
H131 C117 0.930 . S
Co132 N136 2.148 . S
Co132 N142 2.128 1_545 S
Co132 N152 2.194 1_556 S
Co132 O157 2.351 . S
Co132 O158 2.155 . S
Co132 O159 2.096 . S
C133 N136 1.301 . S
C133 N137 1.328 . S
C133 H138 0.930 . S
C134 C135 1.333 . S
C134 N136 1.317 . S
C134 H139 0.930 . S
C135 C134 1.333 . S
C135 N137 1.350 . S
C135 H161 0.931 . S
N136 Co132 2.148 . S
N136 C133 1.301 . S
N136 C134 1.317 . S
N137 C133 1.328 . S
N137 C135 1.350 . S
H138 C133 0.930 . S
H139 C134 0.930 . S
C140 O141 1.224 . S
C140 O159 1.247 1_554 S
O141 C140 1.224 . S
N142 Co132 2.128 1_565 S
N142 C143 1.355 1_556 S
N142 C145 1.311 . S
C143 N142 1.355 1_554 S
C143 C144 1.363 . S
C143 H155 0.929 . S
C144 C143 1.363 . S
C144 N146 1.377 . S
C144 H162 0.931 . S
C145 N142 1.311 . S
C145 N146 1.346 1_556 S
C145 H156 0.929 . S
N146 C144 1.377 . S
N146 C145 1.346 1_554 S
C147 C150 1.365 . S
C147 N152 1.328 . S
C147 H153 0.929 . S
C148 C149 1.362 . S
C148 C151 1.378 . S
C148 H163 0.929 . S
C149 C148 1.362 . S
C149 C150 1.366 . S
C150 C147 1.365 . S
C150 C149 1.366 . S
C150 H164 0.930 . S
C151 C148 1.378 . S
C151 N152 1.315 . S
C151 H154 0.930 . S
N152 Co132 2.194 1_554 S
N152 C147 1.328 . S
N152 C151 1.315 . S
H153 C147 0.929 . S
H154 C151 0.930 . S
H155 C143 0.929 . S
H156 C145 0.929 . S
O157 Co132 2.351 . S
O157 C160 1.244 . S
O158 Co132 2.155 . S
O158 C160 1.240 . S
O159 Co132 2.096 . S
O159 C140 1.247 1_556 S
C160 O157 1.244 . S
C160 O158 1.240 . S
H161 C135 0.931 . S
H162 C144 0.931 . S
H163 C148 0.929 . S
H164 C150 0.930 . S
Co165 N169 2.148 . S
Co165 N175 2.128 1_655 S
Co165 N185 2.194 . S
Co165 O190 2.351 . S
Co165 O191 2.155 . S
Co165 O192 2.096 . S
C166 N169 1.301 . S
C166 N170 1.328 . S
C166 H171 0.930 . S
C167 C168 1.333 . S
C167 N169 1.317 . S
C167 H172 0.930 . S
C168 C167 1.333 . S
C168 N170 1.350 . S
C168 H194 0.931 . S
N169 Co165 2.148 . S
N169 C166 1.301 . S
N169 C167 1.317 . S
N170 C166 1.328 . S
N170 C168 1.350 . S
H171 C166 0.930 . S
H172 C167 0.930 . S
C173 O174 1.224 . S
C173 O192 1.247 . S
O174 C173 1.224 . S
N175 Co165 2.128 1_455 S
N175 C176 1.355 . S
N175 C178 1.311 . S
C176 N175 1.355 . S
C176 C177 1.363 . S
C176 H188 0.929 . S
C177 C176 1.363 . S
C177 N179 1.375 . S
C177 H195 0.931 . S
C178 N175 1.311 . S
C178 N179 1.347 . S
C178 H189 0.929 . S
N179 C177 1.375 . S
N179 C178 1.347 . S
C180 C183 1.365 . S
C180 N185 1.328 . S
C180 H186 0.929 . S
C181 C182 1.362 . S
C181 C184 1.378 . S
C181 H196 0.929 . S
C182 C181 1.362 . S
C182 C183 1.366 . S
C183 C180 1.365 . S
C183 C182 1.366 . S
C183 H197 0.930 . S
C184 C181 1.378 . S
C184 N185 1.315 . S
C184 H187 0.930 . S
N185 Co165 2.194 . S
N185 C180 1.328 . S
N185 C184 1.315 . S
H186 C180 0.929 . S
H187 C184 0.930 . S
H188 C176 0.929 . S
H189 C178 0.929 . S
O190 Co165 2.351 . S
O190 C193 1.244 . S
O191 Co165 2.155 . S
O191 C193 1.240 . S
O192 Co165 2.096 . S
O192 C173 1.247 . S
C193 O190 1.244 . S
C193 O191 1.240 . S
H194 C168 0.931 . S
H195 C177 0.931 . S
H196 C181 0.929 . S
H197 C183 0.930 . S
Co198 N202 2.148 . S
Co198 N208 2.128 1_565 S
Co198 N218 2.194 1_556 S
Co198 O223 2.351 . S
Co198 O224 2.155 . S
Co198 O225 2.096 . S
C199 N202 1.301 . S
C199 N203 1.328 . S
C199 H204 0.930 . S
C200 C201 1.333 . S
C200 N202 1.317 . S
C200 H205 0.930 . S
C201 C200 1.333 . S
C201 N203 1.350 . S
C201 H227 0.931 . S
N202 Co198 2.148 . S
N202 C199 1.301 . S
N202 C200 1.317 . S
N203 C199 1.328 . S
N203 C201 1.350 . S
H204 C199 0.930 . S
H205 C200 0.930 . S
C206 O207 1.224 . S
C206 O225 1.247 1_554 S
O207 C206 1.224 . S
N208 Co198 2.128 1_545 S
N208 C209 1.355 1_556 S
N208 C211 1.311 . S
C209 N208 1.355 1_554 S
C209 C210 1.363 . S
C209 H221 0.929 . S
C210 C209 1.363 . S
C210 N212 1.377 . S
C210 H228 0.931 . S
C211 N208 1.311 . S
C211 N212 1.346 1_556 S
C211 H222 0.929 . S
N212 C210 1.377 . S
N212 C211 1.346 1_554 S
C213 C216 1.365 . S
C213 N218 1.328 . S
C213 H219 0.929 . S
C214 C215 1.362 . S
C214 C217 1.378 . S
C214 H229 0.929 . S
C215 C214 1.362 . S
C215 C216 1.366 . S
C216 C213 1.365 . S
C216 C215 1.366 . S
C216 H230 0.930 . S
C217 C214 1.378 . S
C217 N218 1.315 . S
C217 H220 0.930 . S
N218 Co198 2.194 1_554 S
N218 C213 1.328 . S
N218 C217 1.315 . S
H219 C213 0.929 . S
H220 C217 0.930 . S
H221 C209 0.929 . S
H222 C211 0.929 . S
O223 Co198 2.351 . S
O223 C226 1.244 . S
O224 Co198 2.155 . S
O224 C226 1.240 . S
O225 Co198 2.096 . S
O225 C206 1.247 1_556 S
C226 O223 1.244 . S
C226 O224 1.240 . S
H227 C201 0.931 . S
H228 C210 0.931 . S
H229 C214 0.929 . S
H230 C216 0.930 . S
Co231 N235 2.148 . S
Co231 N241 2.128 1_455 S
Co231 N251 2.194 . S
Co231 O256 2.351 . S
Co231 O257 2.155 . S
Co231 O258 2.096 . S
C232 N235 1.301 . S
C232 N236 1.328 . S
C232 H237 0.930 . S
C233 C234 1.333 . S
C233 N235 1.317 . S
C233 H238 0.930 . S
C234 C233 1.333 . S
C234 N236 1.350 . S
C234 H260 0.931 . S
N235 Co231 2.148 . S
N235 C232 1.301 . S
N235 C233 1.317 . S
N236 C232 1.328 . S
N236 C234 1.350 . S
H237 C232 0.930 . S
H238 C233 0.930 . S
C239 O240 1.224 . S
C239 O258 1.247 . S
O240 C239 1.224 . S
N241 Co231 2.128 1_655 S
N241 C242 1.355 . S
N241 C244 1.311 . S
C242 N241 1.355 . S
C242 C243 1.363 . S
C242 H254 0.929 . S
C243 C242 1.363 . S
C243 N245 1.375 . S
C243 H261 0.931 . S
C244 N241 1.311 . S
C244 N245 1.347 . S
C244 H255 0.929 . S
N245 C243 1.375 . S
N245 C244 1.347 . S
C246 C249 1.365 . S
C246 N251 1.328 . S
C246 H252 0.929 . S
C247 C248 1.362 . S
C247 C250 1.378 . S
C247 H262 0.929 . S
C248 C247 1.362 . S
C248 C249 1.366 . S
C249 C246 1.365 . S
C249 C248 1.366 . S
C249 H263 0.930 . S
C250 C247 1.378 . S
C250 N251 1.315 . S
C250 H253 0.930 . S
N251 Co231 2.194 . S
N251 C246 1.328 . S
N251 C250 1.315 . S
H252 C246 0.929 . S
H253 C250 0.930 . S
H254 C242 0.929 . S
H255 C244 0.929 . S
O256 Co231 2.351 . S
O256 C259 1.244 . S
O257 Co231 2.155 . S
O257 C259 1.240 . S
O258 Co231 2.096 . S
O258 C239 1.247 . S
C259 O256 1.244 . S
C259 O257 1.240 . S
H260 C234 0.931 . S
H261 C243 0.931 . S
H262 C247 0.929 . S
H263 C249 0.930 . S
N212 N5 1.776 . S
N245 N38 1.771 . S
N146 N71 1.776 . S
N179 N104 1.771 . S
N80 N137 1.771 1_554 S
N113 N170 1.771 . S
N14 N203 1.771 1_554 S
N236 N47 1.771 . S
C74 C8 3.204 . S
C41 C107 3.204 . S
C206 C140 3.204 1_465 S
C173 C239 3.204 1_665 S
C28 C259 2.432 . S
C160 C61 2.432 . S
C193 C94 2.432 . S
C226 C127 2.432 . S
C83 C182 1.101 . S
C116 C215 1.101 . S
C248 C17 1.101 . S
C149 C50 1.101 . S
