# Generated by pormake.
# Topology crb, (4)-cn, num edge types: 1
# Building blocks:
#     Node 0, Type 0, BuildingBlock: KUFVIS_clean_sbu_0, # of connection points: 4
#     Node 1, Type 0, BuildingBlock: KUFVIS_clean_sbu_0, # of connection points: 4
#     Node 2, Type 0, BuildingBlock: KUFVIS_clean_sbu_0, # of connection points: 4
#     Node 3, Type 0, BuildingBlock: KUFVIS_clean_sbu_0, # of connection points: 4
#     Node 4, Type 0, BuildingBlock: KUFVIS_clean_sbu_0, # of connection points: 4
#     Node 5, Type 0, BuildingBlock: KUFVIS_clean_sbu_0, # of connection points: 4
#     Node 6, Type 0, BuildingBlock: KUFVIS_clean_sbu_0, # of connection points: 4
#     Node 7, Type 0, BuildingBlock: KUFVIS_clean_sbu_0, # of connection points: 4
#     Edge 8, Type (0, 0), None
#     Edge 9, Type (0, 0), None
#     Edge 10, Type (0, 0), None
#     Edge 11, Type (0, 0), None
#     Edge 12, Type (0, 0), None
#     Edge 13, Type (0, 0), None
#     Edge 14, Type (0, 0), None
#     Edge 15, Type (0, 0), None
#     Edge 16, Type (0, 0), None
#     Edge 17, Type (0, 0), None
#     Edge 18, Type (0, 0), None
#     Edge 19, Type (0, 0), None
#     Edge 20, Type (0, 0), None
#     Edge 21, Type (0, 0), None
#     Edge 22, Type (0, 0), None
#     Edge 23, Type (0, 0), None
# Relax obj value: 0.084
# Max RMSD: 0.128
# Mean RMSD: 0.128
data_MOF--net-crb--node1-KUFVIS_clean_sbu_0--edge1-none
_symmetry_space_group_name_H-M    P1
_symmetry_Int_Tables_number       1
_symmetry_cell_setting            triclinic
loop_
_symmetry_equiv_pos_as_xyz
'x, y, z'
_cell_length_a     16.716956
_cell_length_b     21.72105
_cell_length_c     10.222209
_cell_angle_alpha  89.298966
_cell_angle_beta   89.501787
_cell_angle_gamma 89.248593
loop_
_atom_site_label
_atom_site_type_symbol
_atom_site_fract_x
_atom_site_fract_y
_atom_site_fract_z
_atom_type_partial_charge
Mn0 Mn 0.41099 0.32493 0.10399 0.0
Mn1 Mn 0.51242 0.19266 0.0695 0.0
C2 C 0.5496 0.323 0.11543 0.0
C3 C 0.35301 0.4245 0.05921 0.0
C4 C 0.39009 0.20883 0.28173 0.0
O5 O 0.34488 0.27317 0.97148 0.0
O6 O 0.43041 0.19322 0.92542 0.0
C7 C 0.52069 0.06939 0.94401 0.0
N8 N 0.53504 0.1062 0.05306 0.0
C9 C 0.62998 0.03183 0.14484 0.0
C10 C 0.62192 -0.00296 0.03447 0.0
C11 C 0.56767 0.0153 0.93832 0.0
C12 C 0.5927 0.08915 0.14678 0.0
H13 H 0.50827 0.10888 0.99773 0.0
C14 C 0.36673 0.22584 0.90208 0.0
O15 O 0.32876 0.38902 0.15236 0.0
O16 O 0.40874 0.40097 0.98443 0.0
N17 N 0.58517 0.19003 0.21736 0.0
C18 C 0.59337 0.23124 0.31656 0.0
C19 C 0.64658 0.21898 0.41876 0.0
C20 C 0.68115 0.16043 0.43145 0.0
C21 C 0.66209 0.11509 0.34144 0.0
C22 C 0.61519 0.13244 0.23406 0.0
H23 H 0.55604 0.27148 0.32519 0.0
O24 O 0.50897 0.36269 0.18442 0.0
O25 O 0.50684 0.2823 0.06082 0.0
O26 O 0.38982 0.26672 0.25996 0.0
O27 O 0.42573 0.17226 0.20298 0.0
C28 C 0.68389 0.05237 0.3559 0.0
C29 C 0.67392 0.01189 0.25278 0.0
H30 H 0.65525 0.95419 1.02377 0.0
H31 H 0.5643 -0.01349 0.85663 0.0
H32 H 0.65598 0.25298 0.49341 0.0
H33 H 0.71827 0.15037 0.51514 0.0
H34 H 0.70547 0.03317 0.44575 0.0
H35 H 0.69695 0.9651 0.25989 0.0
Mn36 Mn 0.76019 0.37049 0.98152 0.0
Mn37 Mn 0.70623 0.22212 0.97297 0.0
C38 C 0.63479 0.33374 0.08051 0.0
C39 C 0.7501 0.47805 0.05763 0.0
C40 C 0.83681 0.27652 0.78785 0.0
O41 O 0.82352 0.32808 0.14 0.0
O42 O 0.78325 0.22985 0.12061 0.0
C43 C 0.79439 0.10225 1.01665 0.0
N44 N 0.73582 0.13739 0.9497 0.0
C45 C 0.70896 0.05683 0.7937 0.0
C46 C 0.76389 0.01965 0.86368 0.0
C47 C 0.80699 0.04267 0.96931 0.0
C48 C 0.69563 0.11598 0.8386 0.0
H49 H 0.76025 0.14192 1.00561 0.0
C50 C 0.82356 0.27089 0.17871 0.0
O51 O 0.81127 0.4557 0.99847 0.0
O52 O 0.6995 0.43677 0.09242 0.0
N53 N 0.63136 0.21158 0.83421 0.0
C54 C 0.57703 0.25297 0.78495 0.0
C55 C 0.52433 0.23483 0.6868 0.0
C56 C 0.52821 0.17444 0.63989 0.0
C57 C 0.58728 0.1338 0.68721 0.0
C58 C 0.63846 0.15453 0.78434 0.0
H59 H 0.57313 0.2994 0.82098 0.0
O60 O 0.66575 0.38549 0.11136 0.0
O61 O 0.67574 0.30672 0.99003 0.0
O62 O 0.84024 0.33083 0.83776 0.0
O63 O 0.78856 0.23702 0.83524 0.0
C64 C 0.59731 0.07332 0.64228 0.0
C65 C 0.65912 0.03548 0.69312 0.0
H66 H 0.76906 0.97092 0.84739 0.0
H67 H 0.84923 0.01272 1.01942 0.0
H68 H 0.48033 0.26711 0.64836 0.0
H69 H 0.48724 0.16032 0.56484 0.0
H70 H 0.55751 0.05522 0.56944 0.0
H71 H 0.66126 -0.01179 0.66276 0.0
Mn72 Mn 0.67761 0.63976 0.15212 0.0
Mn73 Mn 0.5714 0.76728 0.16432 0.0
C74 C 0.53893 0.63795 0.15249 0.0
C75 C 0.73298 0.54466 0.07711 0.0
C76 C 0.70236 0.74444 0.35276 0.0
O77 O 0.73969 0.70402 0.03483 0.0
O78 O 0.64996 0.78539 1.01036 0.0
C79 C 0.52306 0.89714 0.10578 0.0
N80 N 0.53616 0.85067 0.19854 0.0
C81 C 0.45259 0.90408 0.35872 0.0
C82 C 0.44966 0.95471 0.27625 0.0
C83 C 0.47581 0.94792 0.14829 0.0
C84 C 0.48966 0.85066 0.31422 0.0
H85 H 0.55692 0.85793 0.13585 0.0
C86 C 0.71595 0.75522 0.97652 0.0
O87 O 0.75555 0.57103 0.18173 0.0
O88 O 0.68058 0.57541 1.00831 0.0
N89 N 0.51054 0.7456 0.32255 0.0
C90 C 0.51651 0.69381 0.40054 0.0
C91 C 0.46679 0.68606 0.51015 0.0
C92 C 0.41929 0.73522 0.55163 0.0
C93 C 0.42722 0.79194 0.4879 0.0
C94 C 0.47488 0.79543 0.37428 0.0
H95 H 0.56225 0.65973 0.38672 0.0
O96 O 0.57806 0.59404 0.21224 0.0
O97 O 0.58263 0.68292 0.11525 0.0
O98 O 0.70108 0.6869 0.32657 0.0
O99 O 0.66357 0.7826 0.28231 0.0
C100 C 0.39439 0.84604 0.5383 0.0
C101 C 0.41009 0.90262 0.47574 0.0
H102 H 0.41619 -0.00419 0.30324 0.0
H103 H 0.45434 0.9818 0.07995 0.0
H104 H 0.4692 0.6438 0.56729 0.0
H105 H 0.38336 0.73054 0.63952 0.0
H106 H 0.35866 0.84507 0.62704 0.0
H107 H 0.38563 0.94486 0.51458 0.0
Mn108 Mn 0.3261 0.60383 1.01611 0.0
Mn109 Mn 0.38542 0.75164 1.02803 0.0
C110 C 0.45279 0.63178 0.11896 0.0
C111 C 0.33344 0.4919 0.06075 0.0
C112 C 0.25814 0.70709 0.8361 0.0
O113 O 0.26259 0.63949 0.18371 0.0
O114 O 0.30101 0.73882 0.16581 0.0
C115 C 0.29723 0.87198 0.07483 0.0
N116 N 0.35938 0.83828 1.01335 0.0
C117 C 0.3914 0.9224 0.8628 0.0
C118 C 0.32955 0.95683 0.92086 0.0
C119 C 0.28418 0.93202 1.02506 0.0
C120 C 0.40495 0.86283 0.90876 0.0
H121 H 0.33162 0.83205 0.06577 0.0
C122 C 0.26043 0.69638 0.22318 0.0
O123 O 0.27255 0.51815 1.00629 0.0
O124 O 0.383 0.53024 0.10917 0.0
N125 N 0.4671 0.76645 0.89885 0.0
C126 C 0.52012 0.72545 0.84513 0.0
C127 C 0.57488 0.74559 0.74936 0.0
C128 C 0.57352 0.80734 0.70768 0.0
C129 C 0.51626 0.8479 0.76011 0.0
C130 C 0.46374 0.82545 0.85589 0.0
H131 H 0.52054 0.67756 0.87415 0.0
O132 O 0.41956 0.57922 0.13948 0.0
O133 O 0.4125 0.66514 0.03661 0.0
O134 O 0.25 0.65276 0.886 0.0
O135 O 0.30907 0.74432 0.88059 0.0
C136 C 0.50589 0.90883 0.7152 0.0
C137 C 0.44154 0.94538 0.76317 0.0
H138 H 0.31744 0.00367 0.88855 0.0
H139 H 0.2375 0.96006 0.06904 0.0
H140 H 0.61739 0.71343 0.70671 0.0
H141 H 0.61458 0.8226 0.632 0.0
H142 H 0.54473 0.9273 0.63951 0.0
H143 H 0.43365 -0.00805 0.72612 0.0
Mn144 Mn 0.83423 0.86276 0.63638 0.0
Mn145 Mn 0.88085 0.71234 0.65894 0.0
C146 C 0.9655 0.83172 0.67858 0.0
C147 C 0.8453 0.96656 0.55548 0.0
C148 C 0.7649 0.77254 0.85351 0.0
O149 O 0.75393 0.82357 0.50163 0.0
O150 O 0.79906 0.72484 0.51679 0.0
C151 C 0.79247 0.59512 0.61014 0.0
N152 N 0.85137 0.62748 0.67876 0.0
C153 C 0.89155 0.53771 0.80615 0.0
C154 C 0.83528 0.50383 0.737 0.0
C155 C 0.78607 0.53246 0.64313 0.0
C156 C 0.89929 0.59965 0.77585 0.0
H157 H 0.82354 0.63488 0.62776 0.0
C158 C 0.7538 0.76639 0.46447 0.0
O159 O 0.78958 0.94876 0.63347 0.0
O160 O 0.88619 0.92205 0.50305 0.0
N161 N 0.95856 0.69577 0.79844 0.0
C162 C 1.00265 0.73441 0.87412 0.0
C163 C 0.05826 0.71078 0.96417 0.0
C164 C 0.06231 0.64764 0.98889 0.0
C165 C 1.00819 0.6095 0.9272 0.0
C166 C 0.95653 0.63535 0.83306 0.0
H167 H 0.99207 0.78281 0.87861 0.0
O168 O 0.93588 0.88019 0.73537 0.0
O169 O 0.91313 0.7972 0.62639 0.0
O170 O 0.76998 0.82719 0.80419 0.0
O171 O 0.80232 0.72793 0.80087 0.0
C172 C 1.00064 0.54715 0.96099 0.0
C173 C 0.94418 0.51121 0.89755 0.0
H174 H 0.82998 0.45472 0.75326 0.0
H175 H 0.74252 0.50523 0.59276 0.0
H176 H 0.09431 0.74168 1.02061 0.0
H177 H 0.10299 0.62958 0.06229 0.0
H178 H 1.03706 0.52662 0.03756 0.0
H179 H 0.9412 0.46302 0.91942 0.0
Mn180 Mn 0.1738 0.83457 0.50857 0.0
Mn181 Mn 0.0699 0.70617 0.53506 0.0
C182 C 0.0501 0.83117 0.63028 0.0
C183 C 0.21625 0.93967 0.54827 0.0
C184 C 0.21112 0.71954 0.34003 0.0
O185 O 0.2248 0.78362 0.66826 0.0
O186 O 0.1521 0.69452 0.67847 0.0
C187 C 0.05446 0.57293 0.61759 0.0
N188 N 1.04286 0.62068 0.52571 0.0
C189 C 0.95686 0.55897 0.38947 0.0
C190 C 0.96126 0.51266 0.48401 0.0
C191 C 1.00927 0.51981 0.59527 0.0
C192 C 0.99175 0.61451 0.41775 0.0
H193 H 0.06612 0.61776 0.58521 0.0
C194 C 0.2085 0.72966 0.72056 0.0
O195 O 0.25334 0.90156 0.47588 0.0
O196 O 0.15503 0.91664 0.60956 0.0
N197 N 0.99765 0.72032 0.39417 0.0
C198 C 0.98196 0.77455 0.32932 0.0
C199 C 0.93771 0.77439 0.21376 0.0
C200 C 0.91196 0.71843 0.16415 0.0
C201 C 0.92896 0.66366 0.23236 0.0
C202 C 0.97226 0.66668 0.34761 0.0
H203 H 1.00473 0.81779 0.36266 0.0
O204 O 0.09556 0.87866 0.64022 0.0
O205 O 0.07998 0.79173 0.55077 0.0
O206 O 0.22559 0.77429 0.3768 0.0
O207 O 0.15496 0.68834 0.39439 0.0
C208 C 0.90679 0.60578 0.18861 0.0
C209 C 0.91705 0.5533 0.26995 0.0
H210 H 0.92963 0.47 0.47066 0.0
H211 H 1.01445 0.48163 0.66313 0.0
H212 H 0.9258 0.81697 0.1609 0.0
H213 H 0.8816 0.71791 0.0716 0.0
H214 H 0.87898 0.60205 0.0942 0.0
H215 H 0.89413 0.50928 0.24007 0.0
Mn216 Mn 0.25059 0.11075 0.59873 0.0
Mn217 Mn 0.21495 0.26403 0.5657 0.0
C218 C 0.12072 0.14886 0.64038 0.0
C219 C 0.23811 0.0055 0.55211 0.0
C220 C 0.31879 0.21007 0.78323 0.0
O221 O 0.33668 0.13507 0.45206 0.0
O222 O 0.29336 0.2328 0.43625 0.0
C223 C 0.3201 0.36521 0.45825 0.0
N224 N 0.25874 0.34562 0.54474 0.0
C225 C 0.24762 0.4458 0.64637 0.0
C226 C 0.30842 0.46647 0.56263 0.0
C227 C 0.34338 0.42682 0.47036 0.0
C228 C 0.22298 0.38505 0.63645 0.0
H229 H 0.28189 0.33179 0.49315 0.0
C230 C 0.33762 0.18883 0.39589 0.0
O231 O 0.29187 0.0249 0.63117 0.0
O232 O 0.19961 0.04727 0.48514 0.0
N233 N 0.14135 0.30126 0.69243 0.0
C234 C 0.08332 0.2759 0.77067 0.0
C235 C 1.04037 0.31198 0.85992 0.0
C236 C 0.05923 0.37371 0.8743 0.0
C237 C 0.12117 0.39919 0.79981 0.0
C238 C 0.16117 0.36137 0.71026 0.0
H239 H 0.06914 0.22859 0.77142 0.0
O240 O 0.14988 0.10302 0.70761 0.0
O241 O 0.17304 0.17877 0.57171 0.0
O242 O 0.31218 0.15408 0.74851 0.0
O243 O 0.28807 0.25411 0.71703 0.0
C244 C 0.14761 0.45995 0.81588 0.0
C245 C 0.20963 0.48368 0.73795 0.0
H246 H 0.32868 0.51357 0.56741 0.0
H247 H 0.39009 0.44404 0.40636 0.0
H248 H 0.99584 0.29114 0.9233 0.0
H249 H 1.03219 0.39862 0.95382 0.0
H250 H 0.12281 0.48852 0.89047 0.0
H251 H 0.22775 0.53098 0.74971 0.0
Mn252 Mn 0.90979 0.13811 0.48362 0.0
Mn253 Mn 1.02248 0.2622 0.46055 0.0
C254 C 1.03628 0.14492 0.5938 0.0
C255 C 0.86792 0.0334 0.54405 0.0
C256 C 0.8726 0.24733 0.2937 0.0
O257 O 0.86908 0.19688 0.63465 0.0
O258 O 0.9419 0.28649 0.60979 0.0
C259 C 0.06573 0.39706 0.47976 0.0
N260 N 0.05775 0.34349 0.40723 0.0
C261 C 0.13305 0.38726 0.22305 0.0
C262 C 0.13572 0.44249 0.28816 0.0
C263 C 0.10955 0.44491 0.41735 0.0
C264 C 0.09952 0.33708 0.28719 0.0
H265 H 1.03883 0.35363 0.46861 0.0
C266 C 0.88658 0.25311 0.66986 0.0
O267 O 0.82447 0.07343 0.48563 0.0
O268 O 0.93356 0.05616 0.58875 0.0
N269 N 0.08814 0.2323 0.31847 0.0
C270 C 0.10025 0.17249 0.28091 0.0
C271 C 0.14196 0.15946 0.1648 0.0
C272 C 0.16995 0.20778 0.08628 0.0
C273 C 0.15667 0.26842 0.12607 0.0
C274 C 0.11409 0.27874 0.24262 0.0
H275 H 0.07722 0.1342 0.33685 0.0
O276 O 0.99117 0.09794 0.61718 0.0
O277 O 1.00501 0.18077 0.50825 0.0
O278 O 0.85398 0.19553 0.34618 0.0
O279 O 0.93469 0.27599 0.32912 0.0
C280 C 0.18343 0.31934 0.05405 0.0
C281 C 0.1707 0.3788 0.10237 0.0
H282 H 0.16639 0.48164 0.24539 0.0
H283 H 0.12776 0.48446 0.47103 0.0
H284 H 0.15147 0.11224 0.13511 0.0
H285 H 0.20129 0.19778 0.9958 0.0
H286 H 0.21229 0.31374 0.96017 0.0
H287 H 0.19291 0.41782 0.04838 0.0
loop_
_geom_bond_atom_site_label_1
_geom_bond_atom_site_label_2
_geom_bond_distance
_geom_bond_site_symmetry_2
_ccdc_geom_bond_type
Mn0 O5 2.095 1_554 S
Mn0 O15 2.162 . S
Mn0 O16 2.297 1_554 S
Mn0 O24 2.385 . S
Mn0 O25 2.209 . S
Mn0 O26 2.094 . S
Mn1 O6 2.121 1_554 S
Mn1 N8 2.257 1_554 S
Mn1 N17 2.282 . S
Mn1 O25 2.215 . S
Mn1 O27 2.117 . S
C2 O24 1.234 . S
C2 O25 1.283 . S
C3 O15 1.281 1_556 S
C3 O16 1.236 . S
C4 O26 1.240 . S
C4 O27 1.264 . S
O5 Mn0 2.095 1_556 S
O5 C14 1.250 . S
O6 Mn1 2.121 1_556 S
O6 C14 1.258 . S
C7 N8 1.326 . S
C7 C11 1.460 . S
C7 H13 0.929 . S
N8 Mn1 2.257 1_556 S
N8 C7 1.326 . S
N8 C12 1.362 . S
C9 C10 1.258 . S
C9 C12 1.431 . S
C9 C29 1.449 . S
C10 C9 1.258 . S
C10 C11 1.477 . S
C10 H30 0.931 . S
C11 C7 1.460 . S
C11 C10 1.477 . S
C11 H31 0.930 . S
C12 N8 1.362 . S
C12 C9 1.431 . S
C12 C22 1.476 1_556 S
H13 C7 0.929 . S
C14 O5 1.250 . S
C14 O6 1.258 . S
O15 Mn0 2.162 . S
O15 C3 1.281 1_554 S
O16 Mn0 2.297 1_556 S
O16 C3 1.236 . S
N17 Mn1 2.282 . S
N17 C18 1.328 . S
N17 C22 1.318 . S
C18 N17 1.328 . S
C18 C19 1.457 . S
C18 H23 0.929 . S
C19 C18 1.457 . S
C19 C20 1.291 . S
C19 H32 0.931 . S
C20 C19 1.291 . S
C20 C21 1.373 . S
C20 H33 0.929 . S
C21 C20 1.373 . S
C21 C22 1.396 . S
C21 C28 1.403 . S
C22 C12 1.476 1_554 S
C22 N17 1.318 . S
C22 C21 1.396 . S
H23 C18 0.929 . S
O24 Mn0 2.385 . S
O24 C2 1.234 . S
O25 Mn0 2.209 . S
O25 Mn1 2.215 . S
O25 C2 1.283 . S
O26 Mn0 2.094 . S
O26 C4 1.240 . S
O27 Mn1 2.117 . S
O27 C4 1.264 . S
C28 C21 1.403 . S
C28 C29 1.399 1_554 S
C28 H34 0.929 . S
C29 C9 1.449 . S
C29 C28 1.399 1_556 S
C29 H35 0.930 . S
H30 C10 0.931 . S
H31 C11 0.930 . S
H32 C19 0.931 . S
H33 C20 0.929 . S
H34 C28 0.929 . S
H35 C29 0.930 . S
Mn36 O41 2.095 1_556 S
Mn36 O51 2.162 . S
Mn36 O52 2.297 1_556 S
Mn36 O60 2.385 . S
Mn36 O61 2.209 1_556 S
Mn36 O62 2.094 . S
Mn37 O42 2.121 . S
Mn37 N44 2.257 . S
Mn37 N53 2.282 1_554 S
Mn37 O61 2.215 . S
Mn37 O63 2.117 1_554 S
C38 O60 1.234 . S
C38 O61 1.283 1_556 S
C39 O51 1.281 1_554 S
C39 O52 1.236 . S
C40 O62 1.240 . S
C40 O63 1.264 . S
O41 Mn36 2.095 1_554 S
O41 C50 1.250 . S
O42 Mn37 2.121 . S
O42 C50 1.258 . S
C43 N44 1.326 . S
C43 C47 1.460 . S
C43 H49 0.929 . S
N44 Mn37 2.257 . S
N44 C43 1.326 . S
N44 C48 1.362 . S
C45 C46 1.258 . S
C45 C48 1.431 . S
C45 C65 1.449 . S
C46 C45 1.258 . S
C46 C47 1.477 . S
C46 H66 0.931 . S
C47 C43 1.460 . S
C47 C46 1.477 . S
C47 H67 0.930 . S
C48 N44 1.362 . S
C48 C45 1.431 . S
C48 C58 1.476 1_554 S
H49 C43 0.929 . S
C50 O41 1.250 . S
C50 O42 1.258 . S
O51 Mn36 2.162 . S
O51 C39 1.281 1_556 S
O52 Mn36 2.297 1_554 S
O52 C39 1.236 . S
N53 Mn37 2.282 1_556 S
N53 C54 1.328 . S
N53 C58 1.318 . S
C54 N53 1.328 . S
C54 C55 1.457 . S
C54 H59 0.929 . S
C55 C54 1.457 . S
C55 C56 1.291 . S
C55 H68 0.931 . S
C56 C55 1.291 . S
C56 C57 1.373 . S
C56 H69 0.929 . S
C57 C56 1.373 . S
C57 C58 1.396 . S
C57 C64 1.403 . S
C58 C48 1.476 1_556 S
C58 N53 1.318 . S
C58 C57 1.396 . S
H59 C54 0.929 . S
O60 Mn36 2.385 . S
O60 C38 1.234 . S
O61 Mn36 2.209 1_554 S
O61 Mn37 2.215 . S
O61 C38 1.283 1_554 S
O62 Mn36 2.094 . S
O62 C40 1.240 . S
O63 Mn37 2.117 1_556 S
O63 C40 1.264 . S
C64 C57 1.403 . S
C64 C65 1.399 1_556 S
C64 H70 0.929 . S
C65 C45 1.449 . S
C65 C64 1.399 1_554 S
C65 H71 0.930 . S
H66 C46 0.931 . S
H67 C47 0.930 . S
H68 C55 0.931 . S
H69 C56 0.929 . S
H70 C64 0.929 . S
H71 C65 0.930 . S
Mn72 O77 2.095 1_554 S
Mn72 O87 2.162 . S
Mn72 O88 2.297 1_554 S
Mn72 O96 2.385 . S
Mn72 O97 2.209 . S
Mn72 O98 2.094 . S
Mn73 O78 2.121 1_554 S
Mn73 N80 2.257 1_554 S
Mn73 N89 2.282 . S
Mn73 O97 2.215 . S
Mn73 O99 2.117 . S
C74 O96 1.234 . S
C74 O97 1.283 . S
C75 O87 1.281 1_556 S
C75 O88 1.236 . S
C76 O98 1.240 . S
C76 O99 1.264 . S
O77 Mn72 2.095 1_556 S
O77 C86 1.250 . S
O78 Mn73 2.121 1_556 S
O78 C86 1.258 . S
C79 N80 1.326 . S
C79 C83 1.460 . S
C79 H85 0.929 . S
N80 Mn73 2.257 1_556 S
N80 C79 1.326 . S
N80 C84 1.362 . S
C81 C82 1.258 . S
C81 C84 1.431 . S
C81 C101 1.449 . S
C82 C81 1.258 . S
C82 C83 1.477 . S
C82 H102 0.931 . S
C83 C79 1.460 . S
C83 C82 1.477 . S
C83 H103 0.930 . S
C84 N80 1.362 . S
C84 C81 1.431 . S
C84 C94 1.476 1_556 S
H85 C79 0.929 . S
C86 O77 1.250 . S
C86 O78 1.258 . S
O87 Mn72 2.162 . S
O87 C75 1.281 1_554 S
O88 Mn72 2.297 1_556 S
O88 C75 1.236 . S
N89 Mn73 2.282 . S
N89 C90 1.328 . S
N89 C94 1.318 . S
C90 N89 1.328 . S
C90 C91 1.457 . S
C90 H95 0.929 . S
C91 C90 1.457 . S
C91 C92 1.291 . S
C91 H104 0.931 . S
C92 C91 1.291 . S
C92 C93 1.373 . S
C92 H105 0.929 . S
C93 C92 1.373 . S
C93 C94 1.396 . S
C93 C100 1.403 . S
C94 C84 1.476 1_554 S
C94 N89 1.318 . S
C94 C93 1.396 . S
H95 C90 0.929 . S
O96 Mn72 2.385 . S
O96 C74 1.234 . S
O97 Mn72 2.209 . S
O97 Mn73 2.215 . S
O97 C74 1.283 . S
O98 Mn72 2.094 . S
O98 C76 1.240 . S
O99 Mn73 2.117 . S
O99 C76 1.264 . S
C100 C93 1.403 . S
C100 C101 1.399 1_554 S
C100 H106 0.929 . S
C101 C81 1.449 . S
C101 C100 1.399 1_556 S
C101 H107 0.930 . S
H102 C82 0.931 . S
H103 C83 0.930 . S
H104 C91 0.931 . S
H105 C92 0.929 . S
H106 C100 0.929 . S
H107 C101 0.930 . S
Mn108 O113 2.095 1_556 S
Mn108 O123 2.162 . S
Mn108 O124 2.297 1_556 S
Mn108 O132 2.385 . S
Mn108 O133 2.209 1_556 S
Mn108 O134 2.094 . S
Mn109 O114 2.121 . S
Mn109 N116 2.257 . S
Mn109 N125 2.282 1_554 S
Mn109 O133 2.215 . S
Mn109 O135 2.117 1_554 S
C110 O132 1.234 . S
C110 O133 1.283 1_556 S
C111 O123 1.281 1_554 S
C111 O124 1.236 . S
C112 O134 1.240 . S
C112 O135 1.264 . S
O113 Mn108 2.095 1_554 S
O113 C122 1.250 . S
O114 Mn109 2.121 . S
O114 C122 1.258 . S
C115 N116 1.326 . S
C115 C119 1.460 . S
C115 H121 0.929 . S
N116 Mn109 2.257 . S
N116 C115 1.326 . S
N116 C120 1.362 . S
C117 C118 1.258 . S
C117 C120 1.431 . S
C117 C137 1.449 . S
C118 C117 1.258 . S
C118 C119 1.477 . S
C118 H138 0.931 . S
C119 C115 1.460 . S
C119 C118 1.477 . S
C119 H139 0.930 . S
C120 N116 1.362 . S
C120 C117 1.431 . S
C120 C130 1.476 1_554 S
H121 C115 0.929 . S
C122 O113 1.250 . S
C122 O114 1.258 . S
O123 Mn108 2.162 . S
O123 C111 1.281 1_556 S
O124 Mn108 2.297 1_554 S
O124 C111 1.236 . S
N125 Mn109 2.282 1_556 S
N125 C126 1.328 . S
N125 C130 1.318 . S
C126 N125 1.328 . S
C126 C127 1.457 . S
C126 H131 0.929 . S
C127 C126 1.457 . S
C127 C128 1.291 . S
C127 H140 0.931 . S
C128 C127 1.291 . S
C128 C129 1.373 . S
C128 H141 0.929 . S
C129 C128 1.373 . S
C129 C130 1.396 . S
C129 C136 1.403 . S
C130 C120 1.476 1_556 S
C130 N125 1.318 . S
C130 C129 1.396 . S
H131 C126 0.929 . S
O132 Mn108 2.385 . S
O132 C110 1.234 . S
O133 Mn108 2.209 1_554 S
O133 Mn109 2.215 . S
O133 C110 1.283 1_554 S
O134 Mn108 2.094 . S
O134 C112 1.240 . S
O135 Mn109 2.117 1_556 S
O135 C112 1.264 . S
C136 C129 1.403 . S
C136 C137 1.399 1_556 S
C136 H142 0.929 . S
C137 C117 1.449 . S
C137 C136 1.399 1_554 S
C137 H143 0.930 . S
H138 C118 0.931 . S
H139 C119 0.930 . S
H140 C127 0.931 . S
H141 C128 0.929 . S
H142 C136 0.929 . S
H143 C137 0.930 . S
Mn144 O149 2.095 . S
Mn144 O159 2.162 . S
Mn144 O160 2.297 . S
Mn144 O168 2.385 . S
Mn144 O169 2.209 . S
Mn144 O170 2.094 . S
Mn145 O150 2.121 . S
Mn145 N152 2.257 . S
Mn145 N161 2.282 . S
Mn145 O169 2.215 . S
Mn145 O171 2.117 . S
C146 O168 1.234 . S
C146 O169 1.283 . S
C147 O159 1.281 . S
C147 O160 1.236 . S
C148 O170 1.240 . S
C148 O171 1.264 . S
O149 Mn144 2.095 . S
O149 C158 1.250 . S
O150 Mn145 2.121 . S
O150 C158 1.258 . S
C151 N152 1.326 . S
C151 C155 1.460 1_655 S
C151 H157 0.929 . S
N152 Mn145 2.257 . S
N152 C151 1.326 . S
N152 C156 1.362 1_655 S
C153 C154 1.258 . S
C153 C156 1.431 . S
C153 C173 1.449 . S
C154 C153 1.258 . S
C154 C155 1.477 . S
C154 H174 0.931 . S
C155 C151 1.460 1_455 S
C155 C154 1.477 . S
C155 H175 0.930 . S
C156 N152 1.362 1_455 S
C156 C153 1.431 . S
C156 C166 1.476 . S
H157 C151 0.929 . S
C158 O149 1.250 . S
C158 O150 1.258 . S
O159 Mn144 2.162 . S
O159 C147 1.281 . S
O160 Mn144 2.297 . S
O160 C147 1.236 . S
N161 Mn145 2.282 . S
N161 C162 1.328 . S
N161 C166 1.318 1_655 S
C162 N161 1.328 . S
C162 C163 1.457 1_655 S
C162 H167 0.929 . S
C163 C162 1.457 1_455 S
C163 C164 1.291 . S
C163 H176 0.931 . S
C164 C163 1.291 . S
C164 C165 1.373 . S
C164 H177 0.929 . S
C165 C164 1.373 . S
C165 C166 1.396 . S
C165 C172 1.403 . S
C166 C156 1.476 . S
C166 N161 1.318 1_455 S
C166 C165 1.396 . S
H167 C162 0.929 . S
O168 Mn144 2.385 . S
O168 C146 1.234 . S
O169 Mn144 2.209 . S
O169 Mn145 2.215 . S
O169 C146 1.283 . S
O170 Mn144 2.094 . S
O170 C148 1.240 . S
O171 Mn145 2.117 . S
O171 C148 1.264 . S
C172 C165 1.403 . S
C172 C173 1.399 . S
C172 H178 0.929 . S
C173 C153 1.449 . S
C173 C172 1.399 . S
C173 H179 0.930 . S
H174 C154 0.931 . S
H175 C155 0.930 . S
H176 C163 0.931 . S
H177 C164 0.929 . S
H178 C172 0.929 . S
H179 C173 0.930 . S
Mn180 O185 2.095 . S
Mn180 O195 2.162 . S
Mn180 O196 2.297 . S
Mn180 O204 2.385 . S
Mn180 O205 2.209 . S
Mn180 O206 2.094 . S
Mn181 O186 2.121 . S
Mn181 N188 2.257 . S
Mn181 N197 2.282 . S
Mn181 O205 2.215 . S
Mn181 O207 2.117 . S
C182 O204 1.234 . S
C182 O205 1.283 . S
C183 O195 1.281 . S
C183 O196 1.236 . S
C184 O206 1.240 . S
C184 O207 1.264 . S
O185 Mn180 2.095 . S
O185 C194 1.250 . S
O186 Mn181 2.121 . S
O186 C194 1.258 . S
C187 N188 1.326 . S
C187 C191 1.460 1_455 S
C187 H193 0.929 . S
N188 Mn181 2.257 . S
N188 C187 1.326 . S
N188 C192 1.362 1_455 S
C189 C190 1.258 . S
C189 C192 1.431 . S
C189 C209 1.449 . S
C190 C189 1.258 . S
C190 C191 1.477 . S
C190 H210 0.931 . S
C191 C187 1.460 1_655 S
C191 C190 1.477 . S
C191 H211 0.930 . S
C192 N188 1.362 1_655 S
C192 C189 1.431 . S
C192 C202 1.476 . S
H193 C187 0.929 . S
C194 O185 1.250 . S
C194 O186 1.258 . S
O195 Mn180 2.162 . S
O195 C183 1.281 . S
O196 Mn180 2.297 . S
O196 C183 1.236 . S
N197 Mn181 2.282 . S
N197 C198 1.328 . S
N197 C202 1.318 1_455 S
C198 N197 1.328 . S
C198 C199 1.457 1_455 S
C198 H203 0.929 . S
C199 C198 1.457 1_655 S
C199 C200 1.291 . S
C199 H212 0.931 . S
C200 C199 1.291 . S
C200 C201 1.373 . S
C200 H213 0.929 . S
C201 C200 1.373 . S
C201 C202 1.396 . S
C201 C208 1.403 . S
C202 C192 1.476 . S
C202 N197 1.318 1_655 S
C202 C201 1.396 . S
H203 C198 0.929 . S
O204 Mn180 2.385 . S
O204 C182 1.234 . S
O205 Mn180 2.209 . S
O205 Mn181 2.215 . S
O205 C182 1.283 . S
O206 Mn180 2.094 . S
O206 C184 1.240 . S
O207 Mn181 2.117 . S
O207 C184 1.264 . S
C208 C201 1.403 . S
C208 C209 1.399 . S
C208 H214 0.929 . S
C209 C189 1.449 . S
C209 C208 1.399 . S
C209 H215 0.930 . S
H210 C190 0.931 . S
H211 C191 0.930 . S
H212 C199 0.931 . S
H213 C200 0.929 . S
H214 C208 0.929 . S
H215 C209 0.930 . S
Mn216 O221 2.095 . S
Mn216 O231 2.162 . S
Mn216 O232 2.297 . S
Mn216 O240 2.385 . S
Mn216 O241 2.209 . S
Mn216 O242 2.094 . S
Mn217 O222 2.121 . S
Mn217 N224 2.257 . S
Mn217 N233 2.282 . S
Mn217 O241 2.215 . S
Mn217 O243 2.117 . S
C218 O240 1.234 . S
C218 O241 1.283 . S
C219 O231 1.281 . S
C219 O232 1.236 . S
C220 O242 1.240 . S
C220 O243 1.264 . S
O221 Mn216 2.095 . S
O221 C230 1.250 . S
O222 Mn217 2.121 . S
O222 C230 1.258 . S
C223 N224 1.326 . S
C223 C227 1.460 1_455 S
C223 H229 0.929 . S
N224 Mn217 2.257 . S
N224 C223 1.326 . S
N224 C228 1.362 1_455 S
C225 C226 1.258 . S
C225 C228 1.431 . S
C225 C245 1.449 . S
C226 C225 1.258 . S
C226 C227 1.477 . S
C226 H246 0.931 . S
C227 C223 1.460 1_655 S
C227 C226 1.477 . S
C227 H247 0.930 . S
C228 N224 1.362 1_655 S
C228 C225 1.431 . S
C228 C238 1.476 . S
H229 C223 0.929 . S
C230 O221 1.250 . S
C230 O222 1.258 . S
O231 Mn216 2.162 . S
O231 C219 1.281 . S
O232 Mn216 2.297 . S
O232 C219 1.236 . S
N233 Mn217 2.282 . S
N233 C234 1.328 . S
N233 C238 1.318 1_455 S
C234 N233 1.328 . S
C234 C235 1.457 1_455 S
C234 H239 0.929 . S
C235 C234 1.457 1_655 S
C235 C236 1.291 . S
C235 H248 0.931 . S
C236 C235 1.291 . S
C236 C237 1.373 . S
C236 H249 0.929 . S
C237 C236 1.373 . S
C237 C238 1.396 . S
C237 C244 1.403 . S
C238 C228 1.476 . S
C238 N233 1.318 1_655 S
C238 C237 1.396 . S
H239 C234 0.929 . S
O240 Mn216 2.385 . S
O240 C218 1.234 . S
O241 Mn216 2.209 . S
O241 Mn217 2.215 . S
O241 C218 1.283 . S
O242 Mn216 2.094 . S
O242 C220 1.240 . S
O243 Mn217 2.117 . S
O243 C220 1.264 . S
C244 C237 1.403 . S
C244 C245 1.399 . S
C244 H250 0.929 . S
C245 C225 1.449 . S
C245 C244 1.399 . S
C245 H251 0.930 . S
H246 C226 0.931 . S
H247 C227 0.930 . S
H248 C235 0.931 . S
H249 C236 0.929 . S
H250 C244 0.929 . S
H251 C245 0.930 . S
Mn252 O257 2.095 . S
Mn252 O267 2.162 . S
Mn252 O268 2.297 . S
Mn252 O276 2.385 . S
Mn252 O277 2.209 . S
Mn252 O278 2.094 . S
Mn253 O258 2.121 . S
Mn253 N260 2.257 . S
Mn253 N269 2.282 . S
Mn253 O277 2.215 . S
Mn253 O279 2.117 . S
C254 O276 1.234 . S
C254 O277 1.283 . S
C255 O267 1.281 . S
C255 O268 1.236 . S
C256 O278 1.240 . S
C256 O279 1.264 . S
O257 Mn252 2.095 . S
O257 C266 1.250 . S
O258 Mn253 2.121 . S
O258 C266 1.258 . S
C259 N260 1.326 . S
C259 C263 1.460 1_655 S
C259 H265 0.929 . S
N260 Mn253 2.257 . S
N260 C259 1.326 . S
N260 C264 1.362 1_655 S
C261 C262 1.258 . S
C261 C264 1.431 . S
C261 C281 1.449 . S
C262 C261 1.258 . S
C262 C263 1.477 . S
C262 H282 0.931 . S
C263 C259 1.460 1_455 S
C263 C262 1.477 . S
C263 H283 0.930 . S
C264 N260 1.362 1_455 S
C264 C261 1.431 . S
C264 C274 1.476 . S
H265 C259 0.929 . S
C266 O257 1.250 . S
C266 O258 1.258 . S
O267 Mn252 2.162 . S
O267 C255 1.281 . S
O268 Mn252 2.297 . S
O268 C255 1.236 . S
N269 Mn253 2.282 . S
N269 C270 1.328 . S
N269 C274 1.318 1_655 S
C270 N269 1.328 . S
C270 C271 1.457 1_655 S
C270 H275 0.929 . S
C271 C270 1.457 1_455 S
C271 C272 1.291 . S
C271 H284 0.931 . S
C272 C271 1.291 . S
C272 C273 1.373 . S
C272 H285 0.929 . S
C273 C272 1.373 . S
C273 C274 1.396 . S
C273 C280 1.403 . S
C274 C264 1.476 . S
C274 N269 1.318 1_455 S
C274 C273 1.396 . S
H275 C270 0.929 . S
O276 Mn252 2.385 . S
O276 C254 1.234 . S
O277 Mn252 2.209 . S
O277 Mn253 2.215 . S
O277 C254 1.283 . S
O278 Mn252 2.094 . S
O278 C256 1.240 . S
O279 Mn253 2.117 . S
O279 C256 1.264 . S
C280 C273 1.403 . S
C280 C281 1.399 . S
C280 H286 0.929 . S
C281 C261 1.449 . S
C281 C280 1.399 . S
C281 H287 0.930 . S
H282 C262 0.931 . S
H283 C263 0.930 . S
H284 C271 0.931 . S
H285 C272 0.929 . S
H286 C280 0.929 . S
H287 C281 0.930 . S
C3 C111 1.670 1_556 S
C2 C38 1.784 1_554 S
C39 C75 1.670 1_554 S
C110 C74 1.784 1_556 S
C147 C255 1.670 1_565 S
C182 C146 1.784 1_455 S
C219 C183 1.670 1_545 S
C254 C218 1.784 1_655 S
C230 C4 1.493 . S
C50 C256 1.493 . S
C158 C76 1.493 . S
C184 C122 1.493 . S
C194 C112 1.493 . S
C14 C220 1.493 . S
C40 C266 1.493 . S
C86 C148 1.493 . S
