# Generated by pormake.
# Topology bcu, (8)-cn, num edge types: 1
# Building blocks:
#     Node 0, Type 0, BuildingBlock: AJUNOK_clean_sbu_0, # of connection points: 8
#     Node 1, Type 0, BuildingBlock: AJUNOK_clean_sbu_0, # of connection points: 8
#     Edge 2, Type (0, 0), BuildingBlock: TEMPAE_clean_linker_10, # of connection points: 2
#     Edge 3, Type (0, 0), BuildingBlock: TEMPAE_clean_linker_10, # of connection points: 2
#     Edge 4, Type (0, 0), BuildingBlock: TEMPAE_clean_linker_10, # of connection points: 2
#     Edge 5, Type (0, 0), BuildingBlock: TEMPAE_clean_linker_10, # of connection points: 2
#     Edge 6, Type (0, 0), BuildingBlock: TEMPAE_clean_linker_10, # of connection points: 2
#     Edge 7, Type (0, 0), BuildingBlock: TEMPAE_clean_linker_10, # of connection points: 2
#     Edge 8, Type (0, 0), BuildingBlock: TEMPAE_clean_linker_10, # of connection points: 2
#     Edge 9, Type (0, 0), BuildingBlock: TEMPAE_clean_linker_10, # of connection points: 2
# Relax obj value: 0.063
# Max RMSD: 0.173
# Mean RMSD: 0.173
data_MOF--net-bcu--node1-AJUNOK_clean_sbu_0--edge1-TEMPAE_clean_linker_10
_symmetry_space_group_name_H-M    P1
_symmetry_Int_Tables_number       1
_symmetry_cell_setting            triclinic
loop_
_symmetry_equiv_pos_as_xyz
'x, y, z'
_cell_length_a     23.658714
_cell_length_b     23.687815
_cell_length_c     17.172714
_cell_angle_alpha  101.95168
_cell_angle_beta   102.58497
_cell_angle_gamma 110.1017
loop_
_atom_site_label
_atom_site_type_symbol
_atom_site_fract_x
_atom_site_fract_y
_atom_site_fract_z
_atom_type_partial_charge
Cd0 Cd 0.00394 0.98186 0.15002 0.0
Cd1 Cd 0.00243 0.00704 0.87277 0.0
C2 C 0.13392 0.98548 0.25243 0.0
N3 N 0.09377 0.9608 0.17257 0.0
C4 C 0.14782 0.89614 0.13477 0.0
C5 C 0.18716 0.91724 0.21864 0.0
C6 C 0.18083 0.96404 0.27711 0.0
C7 C 0.10063 0.91817 0.11317 0.0
H8 H 0.12696 0.01912 0.29827 0.0
H9 H 0.0676 0.89906 0.0502 0.0
C10 C 0.91247 0.90232 0.93077 0.0
C11 C 0.87548 0.01456 0.77509 0.0
C12 C 0.82635 0.03446 0.7588 0.0
C13 C 0.81654 0.07202 0.82515 0.0
C14 C 0.8561 0.08671 0.90734 0.0
C15 C 0.90563 0.06679 0.92053 0.0
N16 N 0.91482 0.03229 0.85453 0.0
H17 H 0.88343 0.98653 0.72378 0.0
H18 H 0.93769 0.08006 0.9831 0.0
C19 C 0.01403 0.88199 0.77717 0.0
N20 N 0.04638 0.93458 0.84487 0.0
C21 C 0.13851 0.91214 0.86704 0.0
C22 C 0.10693 0.85805 0.79613 0.0
C23 C 0.04332 0.84254 0.75205 0.0
C24 C 0.10712 0.94988 0.89042 0.0
H25 H 0.96611 0.87176 0.7411 0.0
H26 H 0.13193 0.99278 0.94294 0.0
C27 C 0.08496 0.09402 0.09265 0.0
C28 C 0.95954 0.91703 0.26093 0.0
N29 N 0.95799 0.05223 0.17927 0.0
C30 C 0.98736 0.10172 0.25113 0.0
C31 C 0.9591 0.14303 0.27229 0.0
C32 C 0.89992 0.13294 0.21908 0.0
C33 C 0.87109 0.08174 0.14477 0.0
C34 C 0.90114 0.04163 0.12606 0.0
C35 C 0.04823 0.06804 0.75997 0.0
O36 O 0.95598 0.94041 0.99749 0.0
O37 O 0.91546 0.91191 0.86138 0.0
O38 O 0.04838 0.05089 0.02504 0.0
O39 O 0.08292 0.08357 0.16185 0.0
O40 O 0.93306 0.8933 0.18184 0.0
O41 O 0.00554 0.97091 0.28742 0.0
O42 O 0.07464 0.09311 0.83895 0.0
O43 O 0.00082 0.01527 0.73466 0.0
H44 H 0.03243 0.10857 0.29247 0.0
H45 H 0.87894 0.00165 0.06951 0.0
H46 H 0.15178 0.86124 0.08695 0.0
H47 H 0.20912 0.98138 0.34255 0.0
H48 H 0.79821 0.02253 0.69425 0.0
H49 H 0.8498 0.11433 0.96083 0.0
H50 H 0.18774 0.92672 0.90226 0.0
H51 H 0.01662 0.80092 0.69785 0.0
H52 H 0.98254 0.18146 0.33066 0.0
H53 H 0.82582 0.07278 0.10167 0.0
Cd54 Cd 0.42023 0.42205 0.54424 0.0
Cd55 Cd 0.58809 0.56842 0.49456 0.0
C56 C 0.47458 0.35146 0.66452 0.0
N57 N 0.47234 0.36142 0.58895 0.0
C58 C 0.532 0.30033 0.56255 0.0
C59 C 0.53733 0.29104 0.64172 0.0
C60 C 0.50764 0.31701 0.69274 0.0
C61 C 0.49961 0.33618 0.5377 0.0
H62 H 0.45162 0.37132 0.7036 0.0
H63 H 0.49666 0.34432 0.47768 0.0
C64 C 0.47121 0.45415 0.36933 0.0
C65 C 0.50491 0.62089 0.38278 0.0
C66 C 0.46953 0.65449 0.3598 0.0
C67 C 0.45383 0.69029 0.42078 0.0
C68 C 0.47304 0.68951 0.504 0.0
C69 C 0.50777 0.65417 0.52409 0.0
N70 N 0.52285 0.62082 0.46349 0.0
H71 H 0.51924 0.59591 0.33615 0.0
H72 H 0.5237 0.65424 0.58817 0.0
C73 C 0.6637 0.5094 0.39426 0.0
N74 N 0.63032 0.49805 0.44854 0.0
C75 C 0.65024 0.40635 0.45268 0.0
C76 C 0.68507 0.41667 0.39638 0.0
C77 C 0.6917 0.46919 0.36731 0.0
C78 C 0.62351 0.44819 0.47852 0.0
H79 H 0.66906 0.55015 0.37264 0.0
H80 H 0.59772 0.44141 0.52297 0.0
C81 C 0.5459 0.52422 0.67077 0.0
C82 C 0.29613 0.326 0.4959 0.0
N83 N 0.38802 0.50389 0.57737 0.0
C84 C 0.37576 0.51408 0.65155 0.0
C85 C 0.34841 0.55621 0.67225 0.0
C86 C 0.33394 0.58845 0.61631 0.0
C87 C 0.34895 0.57879 0.5413 0.0
C88 C 0.37581 0.53546 0.52255 0.0
C89 C 0.70323 0.67615 0.53669 0.0
O90 O 0.4722 0.46006 0.4447 0.0
O91 O 0.51678 0.49401 0.35592 0.0
O92 O 0.54202 0.52508 0.59623 0.0
O93 O 0.49849 0.48584 0.68285 0.0
O94 O 0.32134 0.36974 0.56531 0.0
O95 O 0.3289 0.32572 0.44632 0.0
O96 O 0.69621 0.64284 0.58592 0.0
O97 O 0.65722 0.65972 0.47088 0.0
H98 H 0.38516 0.48763 0.69336 0.0
H99 H 0.38516 0.52563 0.46339 0.0
H100 H 0.55251 0.28012 0.51985 0.0
H101 H 0.51086 0.31203 0.75461 0.0
H102 H 0.45503 0.65267 0.29469 0.0
H103 H 0.46261 0.71688 0.55332 0.0
H104 H 0.64347 0.36631 0.47629 0.0
H105 H 0.7192 0.47983 0.32536 0.0
H106 H 0.33749 0.56267 0.7307 0.0
H107 H 0.33768 0.60246 0.49639 0.0
C108 C 0.13797 0.20948 0.1533 0.0
C109 C 0.12952 0.15491 0.09339 0.0
C110 C 0.19204 0.26512 0.17416 0.0
C111 C 0.23919 0.26492 0.13569 0.0
C112 C 0.22649 0.21254 0.06694 0.0
C113 C 0.17111 0.15761 0.04617 0.0
C114 C 0.20257 0.3208 0.24571 0.0
C115 C 0.27476 0.21126 0.02277 0.0
C116 C 0.3881 0.41637 0.23078 0.0
C117 C 0.41826 0.40359 0.30051 0.0
C118 C 0.33122 0.37001 0.17173 0.0
C119 C 0.30539 0.30991 0.18296 0.0
C120 C 0.33916 0.29563 0.24958 0.0
C121 C 0.39483 0.34306 0.30807 0.0
C122 C 0.29682 0.38717 0.10178 0.0
C123 C 0.31418 0.23165 0.26306 0.0
H124 H 0.1047 0.20724 0.18843 0.0
H125 H 0.16387 0.11518 0.9992 0.0
H126 H 0.23417 0.32097 0.30401 0.0
H127 H 0.22581 0.36595 0.23345 0.0
H128 H 0.15734 0.3185 0.25661 0.0
H129 H 0.25188 0.17703 0.95852 0.0
H130 H 0.30159 0.25867 0.01872 0.0
H131 H 0.30915 0.19648 0.05871 0.0
H132 H 0.40675 0.46356 0.22524 0.0
H133 H 0.41904 0.33332 0.36139 0.0
H134 H 0.26265 0.40424 0.12234 0.0
H135 H 0.26975 0.34587 0.04452 0.0
H136 H 0.33032 0.42563 0.08585 0.0
H137 H 0.27104 0.22482 0.28227 0.0
H138 H 0.34948 0.22654 0.31244 0.0
H139 H 0.30079 0.19345 0.20402 0.0
C140 C 0.80289 0.14843 0.23382 0.0
C141 C 0.86768 0.17457 0.24231 0.0
C142 C 0.77211 0.18696 0.25802 0.0
C143 C 0.80693 0.25322 0.2911 0.0
C144 C 0.87222 0.27996 0.29911 0.0
C145 C 0.90186 0.24027 0.27481 0.0
C146 C 0.70254 0.15672 0.24913 0.0
C147 C 0.91082 0.35046 0.33384 0.0
C148 C 0.71606 0.35762 0.28599 0.0
C149 C 0.71526 0.37372 0.36904 0.0
C150 C 0.74586 0.31858 0.25983 0.0
C151 C 0.77514 0.29459 0.31792 0.0
C152 C 0.77416 0.31019 0.40164 0.0
C153 C 0.74426 0.34957 0.42619 0.0
C154 C 0.74617 0.30316 0.17008 0.0
C155 C 0.8045 0.28514 0.46529 0.0
H156 H 0.77648 0.0976 0.20982 0.0
H157 H 0.95181 0.26069 0.28071 0.0
H158 H 0.69577 0.16789 0.31155 0.0
H159 H 0.67558 0.17621 0.20931 0.0
H160 H 0.68207 0.10456 0.22103 0.0
H161 H 0.96089 0.36378 0.33491 0.0
H162 H 0.88952 0.37482 0.29557 0.0
H163 H 0.91028 0.36808 0.39867 0.0
H164 H 0.6929 0.37518 0.24104 0.0
H165 H 0.74458 0.3623 0.4907 0.0
H166 H 0.72246 0.25131 0.13929 0.0
H167 H 0.79571 0.31869 0.16849 0.0
H168 H 0.72181 0.32613 0.13294 0.0
H169 H 0.77776 0.23324 0.44771 0.0
H170 H 0.80535 0.30688 0.52961 0.0
H171 H 0.85386 0.29404 0.4661 0.0
C172 C 0.87992 0.83079 0.29104 0.0
C173 C 0.93705 0.8845 0.32002 0.0
C174 C 0.85542 0.80207 0.34692 0.0
C175 C 0.88906 0.82758 0.43405 0.0
C176 C 0.94841 0.87989 0.46335 0.0
C177 C 0.97171 0.90793 0.40589 0.0
C178 C 0.79216 0.74575 0.31274 0.0
C179 C 0.98652 0.90676 0.55523 0.0
C180 C 0.76562 0.78453 0.54035 0.0
C181 C 0.76409 0.72619 0.54668 0.0
C182 C 0.81313 0.82364 0.51548 0.0
C183 C 0.85817 0.8022 0.49337 0.0
C184 C 0.86172 0.7474 0.51085 0.0
C185 C 0.81444 0.70995 0.53801 0.0
C186 C 0.80977 0.88357 0.50217 0.0
C187 C 0.90977 0.72348 0.49019 0.0
H188 H 0.8533 0.81213 0.22474 0.0
H189 H 0.01668 0.94876 0.42845 0.0
H190 H 0.79611 0.70591 0.33453 0.0
H191 H 0.75661 0.75827 0.33644 0.0
H192 H 0.77421 0.72937 0.24309 0.0
H193 H 0.03087 0.94895 0.56832 0.0
H194 H 0.95765 0.91972 0.59271 0.0
H195 H 0.99931 0.87053 0.57696 0.0
H196 H 0.7266 0.79697 0.54764 0.0
H197 H 0.81287 0.6645 0.54274 0.0
H198 H 0.78737 0.87483 0.43445 0.0
H199 H 0.85791 0.92192 0.5218 0.0
H200 H 0.78123 0.89986 0.53756 0.0
H201 H 0.89122 0.69448 0.42324 0.0
H202 H 0.91864 0.69329 0.52883 0.0
H203 H 0.95541 0.76284 0.49986 0.0
C204 C 0.28773 0.92194 0.31282 0.0
C205 C 0.23041 0.88699 0.24695 0.0
C206 C 0.32561 0.89254 0.34536 0.0
C207 C 0.3067 0.82688 0.30982 0.0
C208 C 0.24994 0.79158 0.24199 0.0
C209 C 0.21221 0.82184 0.21204 0.0
C210 C 0.38546 0.93159 0.41849 0.0
C211 C 0.22853 0.72152 0.2018 0.0
C212 C 0.43102 0.7593 0.33679 0.0
C213 C 0.41852 0.72863 0.39682 0.0
C214 C 0.39535 0.79182 0.30855 0.0
C215 C 0.3467 0.79501 0.34233 0.0
C216 C 0.33499 0.76591 0.4048 0.0
C217 C 0.37103 0.73303 0.43127 0.0
C218 C 0.40869 0.82138 0.24093 0.0
C219 C 0.28413 0.76905 0.44332 0.0
H220 H 0.30295 0.97238 0.33957 0.0
H221 H 0.1675 0.79385 0.16257 0.0
H222 H 0.3833 0.91213 0.47179 0.0
H223 H 0.42717 0.9292 0.40087 0.0
H224 H 0.39298 0.98195 0.43998 0.0
H225 H 0.18425 0.70126 0.14783 0.0
H226 H 0.26616 0.71232 0.17963 0.0
H227 H 0.22025 0.69633 0.24871 0.0
H228 H 0.46866 0.75763 0.31125 0.0
H229 H 0.36082 0.70942 0.47737 0.0
H230 H 0.42017 0.87264 0.26304 0.0
H231 H 0.36579 0.79989 0.1849 0.0
H232 H 0.44862 0.81513 0.22177 0.0
H233 H 0.29822 0.81836 0.48198 0.0
H234 H 0.27613 0.73788 0.48363 0.0
H235 H 0.23861 0.7552 0.39398 0.0
C236 C 0.129 0.79318 0.68042 0.0
C237 C 0.14083 0.81953 0.76659 0.0
C238 C 0.16043 0.75669 0.65159 0.0
C239 C 0.20586 0.74734 0.71022 0.0
C240 C 0.21897 0.77469 0.79716 0.0
C241 C 0.1859 0.80988 0.82427 0.0
C242 C 0.14491 0.7281 0.55837 0.0
C243 C 0.26738 0.76611 0.86168 0.0
C244 C 0.24228 0.60339 0.65084 0.0
C245 C 0.29985 0.62885 0.63486 0.0
C246 C 0.21043 0.64116 0.67314 0.0
C247 C 0.23741 0.70628 0.681 0.0
C248 C 0.29517 0.73207 0.66356 0.0
C249 C 0.32558 0.6928 0.64005 0.0
C250 C 0.1483 0.61153 0.68938 0.0
C251 C 0.32598 0.80145 0.67261 0.0
H252 H 0.09547 0.80149 0.63514 0.0
H253 H 0.19488 0.82918 0.8909 0.0
H254 H 0.18721 0.74921 0.53915 0.0
H255 H 0.13218 0.67651 0.54244 0.0
H256 H 0.10515 0.73597 0.52127 0.0
H257 H 0.27474 0.79352 0.92666 0.0
H258 H 0.25181 0.71542 0.85743 0.0
H259 H 0.31351 0.78113 0.84915 0.0
H260 H 0.22227 0.5537 0.64606 0.0
H261 H 0.37046 0.71243 0.62843 0.0
H262 H 0.11092 0.62082 0.6495 0.0
H263 H 0.15318 0.63305 0.75566 0.0
H264 H 0.13232 0.55966 0.67667 0.0
H265 H 0.29112 0.81703 0.6396 0.0
H266 H 0.36669 0.81256 0.64757 0.0
H267 H 0.34328 0.82934 0.7399 0.0
C268 C 0.2308 0.21235 0.46586 0.0
C269 C 0.23512 0.27428 0.4814 0.0
C270 C 0.18609 0.1679 0.48891 0.0
C271 C 0.14501 0.1864 0.52679 0.0
C272 C 0.14225 0.24531 0.52823 0.0
C273 C 0.18818 0.2891 0.50653 0.0
C274 C 0.18928 0.10482 0.4842 0.0
C275 C 0.09745 0.26602 0.56474 0.0
C276 C 0.03477 0.07781 0.61539 0.0
C277 C 0.07217 0.09795 0.69975 0.0
C278 C 0.05771 0.10528 0.55735 0.0
C279 C 0.11946 0.15381 0.5846 0.0
C280 C 0.15738 0.17399 0.66975 0.0
C281 C 0.1331 0.14602 0.72625 0.0
C282 C 0.01557 0.0833 0.46771 0.0
C283 C 0.22371 0.22562 0.70167 0.0
H284 H 0.26708 0.20098 0.44584 0.0
H285 H 0.19126 0.337 0.51728 0.0
H286 H 0.21466 0.10603 0.54745 0.0
H287 H 0.14103 0.06656 0.46377 0.0
H288 H 0.21497 0.0933 0.44053 0.0
H289 H 0.09076 0.30521 0.54357 0.0
H290 H 0.05053 0.22623 0.54717 0.0
H291 H 0.11732 0.28293 0.63419 0.0
H292 H 0.98727 0.04092 0.59483 0.0
H293 H 0.16218 0.16144 0.79123 0.0
H294 H 0.04167 0.07367 0.4239 0.0
H295 H 0.00105 0.12109 0.45475 0.0
H296 H 0.97209 0.04007 0.45423 0.0
H297 H 0.25311 0.2131 0.6647 0.0
H298 H 0.24757 0.23405 0.76891 0.0
H299 H 0.222 0.27044 0.69403 0.0
C300 C 0.71263 0.06599 0.73884 0.0
C301 C 0.76855 0.09921 0.80733 0.0
C302 C 0.67168 0.09455 0.71393 0.0
C303 C 0.6858 0.15723 0.76017 0.0
C304 C 0.73967 0.18955 0.83262 0.0
C305 C 0.78082 0.16056 0.85465 0.0
C306 C 0.61503 0.05873 0.63571 0.0
C307 C 0.7554 0.25587 0.88493 0.0
C308 C 0.62918 0.25974 0.64881 0.0
C309 C 0.57464 0.25571 0.67138 0.0
C310 C 0.6649 0.22695 0.676 0.0
C311 C 0.64697 0.19062 0.72931 0.0
C312 C 0.59253 0.18674 0.75326 0.0
C313 C 0.55655 0.21858 0.72311 0.0
C314 C 0.7221 0.23149 0.64785 0.0
C315 C 0.57263 0.1494 0.8113 0.0
H316 H 0.70147 0.01799 0.70309 0.0
H317 H 0.82398 0.18726 0.90709 0.0
H318 H 0.57111 0.05819 0.64913 0.0
H319 H 0.62095 0.08288 0.58725 0.0
H320 H 0.60873 0.00919 0.60935 0.0
H321 H 0.79426 0.27139 0.94472 0.0
H322 H 0.77019 0.28919 0.84905 0.0
H323 H 0.71299 0.25911 0.8996 0.0
H324 H 0.64473 0.28928 0.61061 0.0
H325 H 0.51399 0.21401 0.73991 0.0
H326 H 0.71848 0.18352 0.6183 0.0
H327 H 0.76574 0.25499 0.70284 0.0
H328 H 0.72726 0.25852 0.60225 0.0
H329 H 0.56236 0.09902 0.78278 0.0
H330 H 0.52994 0.15234 0.82556 0.0
H331 H 0.61192 0.16713 0.87108 0.0
C332 C 0.59801 0.59682 0.81704 0.0
C333 C 0.60281 0.56756 0.74054 0.0
C334 C 0.65079 0.64791 0.87695 0.0
C335 C 0.70865 0.66925 0.85889 0.0
C336 C 0.71545 0.63366 0.78708 0.0
C337 C 0.66197 0.58341 0.7281 0.0
C338 C 0.64274 0.68296 0.95481 0.0
C339 C 0.77741 0.65302 0.76772 0.0
C340 C 0.7981 0.83745 0.87605 0.0
C341 C 0.85701 0.85061 0.93162 0.0
C342 C 0.74659 0.78057 0.85917 0.0
C343 C 0.75478 0.73571 0.89863 0.0
C344 C 0.81225 0.75198 0.96216 0.0
C345 C 0.8633 0.80975 0.97791 0.0
C346 C 0.6858 0.76592 0.79196 0.0
C347 C 0.82224 0.70663 1.00799 0.0
H348 H 0.55219 0.58316 0.82729 0.0
H349 H 0.66573 0.55848 0.6702 0.0
H350 H 0.6869 0.70256 1.00874 0.0
H351 H 0.63171 0.72302 0.94344 0.0
H352 H 0.60315 0.6518 0.97153 0.0
H353 H 0.7768 0.61607 0.71536 0.0
H354 H 0.78691 0.69709 0.75001 0.0
H355 H 0.81715 0.66282 0.82384 0.0
H356 H 0.7934 0.87012 0.84173 0.0
H357 H 0.90915 0.82044 0.02121 0.0
H358 H 0.64416 0.7459 0.81292 0.0
H359 H 0.68064 0.73024 0.73455 0.0
H360 H 0.68496 0.8085 0.77507 0.0
H361 H 0.85456 0.73269 0.07317 0.0
H362 H 0.84488 0.67941 0.97558 0.0
H363 H 0.77693 0.67273 1.01 0.0
loop_
_geom_bond_atom_site_label_1
_geom_bond_atom_site_label_2
_geom_bond_distance
_geom_bond_site_symmetry_2
_ccdc_geom_bond_type
Cd0 N3 2.334 1_655 S
Cd0 N29 2.304 1_565 S
Cd0 O36 2.268 1_554 S
Cd0 O39 2.273 1_665 S
Cd0 O40 2.417 . S
Cd0 O41 2.330 . S
Cd1 N16 2.304 1_455 S
Cd1 N20 2.334 1_545 S
Cd1 O37 2.273 1_445 S
Cd1 O38 2.268 1_556 S
Cd1 O42 2.417 . S
Cd1 O43 2.330 . S
C2 N3 1.332 . S
C2 C6 1.381 . S
C2 H8 0.931 . S
N3 Cd0 2.334 1_455 S
N3 C2 1.332 . S
N3 C7 1.328 . S
C4 C5 1.396 . S
C4 C7 1.378 . S
C4 H46 0.931 1_554 S
C5 C4 1.396 . S
C5 C6 1.382 . S
C6 C2 1.381 . S
C6 C5 1.382 . S
C6 H47 0.930 . S
C7 N3 1.328 . S
C7 C4 1.378 . S
C7 H9 0.930 1_454 S
H8 C2 0.931 . S
H9 C7 0.930 1_656 S
C10 O36 1.238 . S
C10 O37 1.253 . S
C11 C12 1.379 . S
C11 N16 1.337 . S
C11 H17 0.929 . S
C12 C11 1.379 . S
C12 C13 1.380 . S
C12 H48 0.929 . S
C13 C12 1.380 . S
C13 C14 1.399 . S
C14 C13 1.399 . S
C14 C15 1.376 . S
C14 H49 0.931 1_556 S
C15 C14 1.376 . S
C15 N16 1.338 . S
C15 H18 0.930 1_656 S
N16 Cd1 2.304 1_655 S
N16 C11 1.337 . S
N16 C15 1.338 . S
H17 C11 0.929 . S
H18 C15 0.930 1_454 S
C19 N20 1.332 . S
C19 C23 1.381 . S
C19 H25 0.931 . S
N20 Cd1 2.334 1_565 S
N20 C19 1.332 . S
N20 C24 1.328 . S
C21 C22 1.396 . S
C21 C24 1.378 . S
C21 H50 0.931 1_556 S
C22 C21 1.396 . S
C22 C23 1.382 . S
C23 C19 1.381 . S
C23 C22 1.382 . S
C23 H51 0.930 . S
C24 N20 1.328 . S
C24 C21 1.378 . S
C24 H26 0.930 1_566 S
H25 C19 0.931 . S
H26 C24 0.930 1_544 S
C27 O38 1.238 . S
C27 O39 1.253 . S
C28 O40 1.239 . S
C28 O41 1.230 . S
N29 Cd0 2.304 1_545 S
N29 C30 1.337 . S
N29 C34 1.338 . S
C30 N29 1.337 . S
C30 C31 1.379 . S
C30 H44 0.929 . S
C31 C30 1.379 . S
C31 C32 1.380 . S
C31 H52 0.929 . S
C32 C31 1.380 . S
C32 C33 1.399 . S
C33 C32 1.399 . S
C33 C34 1.376 . S
C33 H53 0.931 1_554 S
C34 N29 1.338 . S
C34 C33 1.376 . S
C34 H45 0.930 1_544 S
C35 O42 1.239 . S
C35 O43 1.230 . S
O36 Cd0 2.268 1_556 S
O36 C10 1.238 . S
O37 Cd1 2.273 1_665 S
O37 C10 1.253 . S
O38 Cd1 2.268 1_554 S
O38 C27 1.238 . S
O39 Cd0 2.273 1_445 S
O39 C27 1.253 . S
O40 Cd0 2.417 . S
O40 C28 1.239 . S
O41 Cd0 2.330 . S
O41 C28 1.230 . S
O42 Cd1 2.417 . S
O42 C35 1.239 . S
O43 Cd1 2.330 . S
O43 C35 1.230 . S
H44 C30 0.929 . S
H45 C34 0.930 1_566 S
H46 C4 0.931 1_556 S
H47 C6 0.930 . S
H48 C12 0.929 . S
H49 C14 0.931 1_554 S
H50 C21 0.931 1_554 S
H51 C23 0.930 . S
H52 C31 0.929 . S
H53 C33 0.931 1_556 S
Cd54 N57 2.334 . S
Cd54 N83 2.304 . S
Cd54 O90 2.268 . S
Cd54 O93 2.273 . S
Cd54 O94 2.417 . S
Cd54 O95 2.330 . S
Cd55 N70 2.304 . S
Cd55 N74 2.334 . S
Cd55 O91 2.273 . S
Cd55 O92 2.268 . S
Cd55 O96 2.417 . S
Cd55 O97 2.330 . S
C56 N57 1.332 . S
C56 C60 1.381 . S
C56 H62 0.931 . S
N57 Cd54 2.334 . S
N57 C56 1.332 . S
N57 C61 1.328 . S
C58 C59 1.396 . S
C58 C61 1.378 . S
C58 H100 0.931 . S
C59 C58 1.396 . S
C59 C60 1.382 . S
C60 C56 1.381 . S
C60 C59 1.382 . S
C60 H101 0.930 . S
C61 N57 1.328 . S
C61 C58 1.378 . S
C61 H63 0.930 . S
H62 C56 0.931 . S
H63 C61 0.930 . S
C64 O90 1.238 . S
C64 O91 1.253 . S
C65 C66 1.379 . S
C65 N70 1.337 . S
C65 H71 0.929 . S
C66 C65 1.379 . S
C66 C67 1.380 . S
C66 H102 0.929 . S
C67 C66 1.380 . S
C67 C68 1.399 . S
C68 C67 1.399 . S
C68 C69 1.376 . S
C68 H103 0.931 . S
C69 C68 1.376 . S
C69 N70 1.338 . S
C69 H72 0.930 . S
N70 Cd55 2.304 . S
N70 C65 1.337 . S
N70 C69 1.338 . S
H71 C65 0.929 . S
H72 C69 0.930 . S
C73 N74 1.332 . S
C73 C77 1.381 . S
C73 H79 0.931 . S
N74 Cd55 2.334 . S
N74 C73 1.332 . S
N74 C78 1.328 . S
C75 C76 1.396 . S
C75 C78 1.378 . S
C75 H104 0.931 . S
C76 C75 1.396 . S
C76 C77 1.382 . S
C77 C73 1.381 . S
C77 C76 1.382 . S
C77 H105 0.930 . S
C78 N74 1.328 . S
C78 C75 1.378 . S
C78 H80 0.930 . S
H79 C73 0.931 . S
H80 C78 0.930 . S
C81 O92 1.238 . S
C81 O93 1.253 . S
C82 O94 1.239 . S
C82 O95 1.230 . S
N83 Cd54 2.304 . S
N83 C84 1.337 . S
N83 C88 1.338 . S
C84 N83 1.337 . S
C84 C85 1.379 . S
C84 H98 0.929 . S
C85 C84 1.379 . S
C85 C86 1.380 . S
C85 H106 0.929 . S
C86 C85 1.380 . S
C86 C87 1.399 . S
C87 C86 1.399 . S
C87 C88 1.376 . S
C87 H107 0.931 . S
C88 N83 1.338 . S
C88 C87 1.376 . S
C88 H99 0.930 . S
C89 O96 1.239 . S
C89 O97 1.230 . S
O90 Cd54 2.268 . S
O90 C64 1.238 . S
O91 Cd55 2.273 . S
O91 C64 1.253 . S
O92 Cd55 2.268 . S
O92 C81 1.238 . S
O93 Cd54 2.273 . S
O93 C81 1.253 . S
O94 Cd54 2.417 . S
O94 C82 1.239 . S
O95 Cd54 2.330 . S
O95 C82 1.230 . S
O96 Cd55 2.417 . S
O96 C89 1.239 . S
O97 Cd55 2.330 . S
O97 C89 1.230 . S
H98 C84 0.929 . S
H99 C88 0.930 . S
H100 C58 0.931 . S
H101 C60 0.930 . S
H102 C66 0.929 . S
H103 C68 0.931 . S
H104 C75 0.931 . S
H105 C77 0.930 . S
H106 C85 0.929 . S
H107 C87 0.931 . S
C108 C109 1.391 . S
C108 C110 1.394 . S
C108 H124 0.931 . S
C109 C108 1.391 . S
C109 C113 1.376 . S
C110 C108 1.394 . S
C110 C111 1.369 . S
C110 C114 1.531 . S
C111 C110 1.369 . S
C111 C112 1.410 . S
C111 C119 1.503 . S
C112 C111 1.410 . S
C112 C113 1.392 . S
C112 C115 1.511 . S
C113 C109 1.376 . S
C113 C112 1.392 . S
C113 H125 0.929 . S
C114 C110 1.531 . S
C114 H126 0.960 . S
C114 H127 0.962 . S
C114 H128 0.960 . S
C115 C112 1.511 . S
C115 H129 0.961 . S
C115 H130 0.961 . S
C115 H131 0.961 . S
C116 C117 1.370 . S
C116 C118 1.363 . S
C116 H132 0.931 . S
C117 C116 1.370 . S
C117 C121 1.408 . S
C118 C116 1.363 . S
C118 C119 1.370 . S
C118 C122 1.524 . S
C119 C111 1.503 . S
C119 C118 1.370 . S
C119 C120 1.403 . S
C120 C119 1.403 . S
C120 C121 1.404 . S
C120 C123 1.539 . S
C121 C117 1.408 . S
C121 C120 1.404 . S
C121 H133 0.930 . S
C122 C118 1.524 . S
C122 H134 0.956 . S
C122 H135 0.961 . S
C122 H136 0.961 . S
C123 C120 1.539 . S
C123 H137 0.958 . S
C123 H138 0.961 . S
C123 H139 0.960 . S
H124 C108 0.931 . S
H125 C113 0.929 . S
H126 C114 0.960 . S
H127 C114 0.962 . S
H128 C114 0.960 . S
H129 C115 0.961 . S
H130 C115 0.961 . S
H131 C115 0.961 . S
H132 C116 0.931 . S
H133 C121 0.930 . S
H134 C122 0.956 . S
H135 C122 0.961 . S
H136 C122 0.961 . S
H137 C123 0.958 . S
H138 C123 0.961 . S
H139 C123 0.960 . S
C140 C141 1.391 . S
C140 C142 1.394 . S
C140 H156 0.931 . S
C141 C140 1.391 . S
C141 C145 1.376 . S
C142 C140 1.394 . S
C142 C143 1.369 . S
C142 C146 1.531 . S
C143 C142 1.369 . S
C143 C144 1.410 . S
C143 C151 1.503 . S
C144 C143 1.410 . S
C144 C145 1.392 . S
C144 C147 1.511 . S
C145 C141 1.376 . S
C145 C144 1.392 . S
C145 H157 0.929 . S
C146 C142 1.531 . S
C146 H158 0.960 . S
C146 H159 0.962 . S
C146 H160 0.960 . S
C147 C144 1.511 . S
C147 H161 0.961 . S
C147 H162 0.961 . S
C147 H163 0.961 . S
C148 C149 1.370 . S
C148 C150 1.363 . S
C148 H164 0.931 . S
C149 C148 1.370 . S
C149 C153 1.408 . S
C150 C148 1.363 . S
C150 C151 1.370 . S
C150 C154 1.524 . S
C151 C143 1.503 . S
C151 C150 1.370 . S
C151 C152 1.403 . S
C152 C151 1.403 . S
C152 C153 1.404 . S
C152 C155 1.539 . S
C153 C149 1.408 . S
C153 C152 1.404 . S
C153 H165 0.930 . S
C154 C150 1.524 . S
C154 H166 0.956 . S
C154 H167 0.961 . S
C154 H168 0.961 . S
C155 C152 1.539 . S
C155 H169 0.958 . S
C155 H170 0.961 . S
C155 H171 0.960 . S
H156 C140 0.931 . S
H157 C145 0.929 . S
H158 C146 0.960 . S
H159 C146 0.962 . S
H160 C146 0.960 . S
H161 C147 0.961 . S
H162 C147 0.961 . S
H163 C147 0.961 . S
H164 C148 0.931 . S
H165 C153 0.930 . S
H166 C154 0.956 . S
H167 C154 0.961 . S
H168 C154 0.961 . S
H169 C155 0.958 . S
H170 C155 0.961 . S
H171 C155 0.960 . S
C172 C173 1.391 . S
C172 C174 1.394 . S
C172 H188 0.931 . S
C173 C172 1.391 . S
C173 C177 1.376 . S
C174 C172 1.394 . S
C174 C175 1.369 . S
C174 C178 1.531 . S
C175 C174 1.369 . S
C175 C176 1.410 . S
C175 C183 1.503 . S
C176 C175 1.410 . S
C176 C177 1.392 . S
C176 C179 1.511 . S
C177 C173 1.376 . S
C177 C176 1.392 . S
C177 H189 0.929 . S
C178 C174 1.531 . S
C178 H190 0.960 . S
C178 H191 0.962 . S
C178 H192 0.960 . S
C179 C176 1.511 . S
C179 H193 0.961 . S
C179 H194 0.961 . S
C179 H195 0.961 . S
C180 C181 1.370 . S
C180 C182 1.363 . S
C180 H196 0.931 . S
C181 C180 1.370 . S
C181 C185 1.408 . S
C182 C180 1.363 . S
C182 C183 1.370 . S
C182 C186 1.524 . S
C183 C175 1.503 . S
C183 C182 1.370 . S
C183 C184 1.403 . S
C184 C183 1.403 . S
C184 C185 1.404 . S
C184 C187 1.539 . S
C185 C181 1.408 . S
C185 C184 1.404 . S
C185 H197 0.930 . S
C186 C182 1.524 . S
C186 H198 0.956 . S
C186 H199 0.961 . S
C186 H200 0.961 . S
C187 C184 1.539 . S
C187 H201 0.958 . S
C187 H202 0.961 . S
C187 H203 0.960 . S
H188 C172 0.931 . S
H189 C177 0.929 . S
H190 C178 0.960 . S
H191 C178 0.962 . S
H192 C178 0.960 . S
H193 C179 0.961 . S
H194 C179 0.961 . S
H195 C179 0.961 . S
H196 C180 0.931 . S
H197 C185 0.930 . S
H198 C186 0.956 . S
H199 C186 0.961 . S
H200 C186 0.961 . S
H201 C187 0.958 . S
H202 C187 0.961 . S
H203 C187 0.960 . S
C204 C205 1.391 . S
C204 C206 1.394 . S
C204 H220 0.931 . S
C205 C204 1.391 . S
C205 C209 1.376 . S
C206 C204 1.394 . S
C206 C207 1.369 . S
C206 C210 1.531 . S
C207 C206 1.369 . S
C207 C208 1.410 . S
C207 C215 1.503 . S
C208 C207 1.410 . S
C208 C209 1.392 . S
C208 C211 1.511 . S
C209 C205 1.376 . S
C209 C208 1.392 . S
C209 H221 0.929 . S
C210 C206 1.531 . S
C210 H222 0.960 . S
C210 H223 0.962 . S
C210 H224 0.960 . S
C211 C208 1.511 . S
C211 H225 0.961 . S
C211 H226 0.961 . S
C211 H227 0.961 . S
C212 C213 1.370 . S
C212 C214 1.363 . S
C212 H228 0.931 . S
C213 C212 1.370 . S
C213 C217 1.408 . S
C214 C212 1.363 . S
C214 C215 1.370 . S
C214 C218 1.524 . S
C215 C207 1.503 . S
C215 C214 1.370 . S
C215 C216 1.403 . S
C216 C215 1.403 . S
C216 C217 1.404 . S
C216 C219 1.539 . S
C217 C213 1.408 . S
C217 C216 1.404 . S
C217 H229 0.930 . S
C218 C214 1.524 . S
C218 H230 0.956 . S
C218 H231 0.961 . S
C218 H232 0.961 . S
C219 C216 1.539 . S
C219 H233 0.958 . S
C219 H234 0.961 . S
C219 H235 0.960 . S
H220 C204 0.931 . S
H221 C209 0.929 . S
H222 C210 0.960 . S
H223 C210 0.962 . S
H224 C210 0.960 . S
H225 C211 0.961 . S
H226 C211 0.961 . S
H227 C211 0.961 . S
H228 C212 0.931 . S
H229 C217 0.930 . S
H230 C218 0.956 . S
H231 C218 0.961 . S
H232 C218 0.961 . S
H233 C219 0.958 . S
H234 C219 0.961 . S
H235 C219 0.960 . S
C236 C237 1.391 . S
C236 C238 1.394 . S
C236 H252 0.931 . S
C237 C236 1.391 . S
C237 C241 1.376 . S
C238 C236 1.394 . S
C238 C239 1.369 . S
C238 C242 1.531 . S
C239 C238 1.369 . S
C239 C240 1.410 . S
C239 C247 1.503 . S
C240 C239 1.410 . S
C240 C241 1.392 . S
C240 C243 1.511 . S
C241 C237 1.376 . S
C241 C240 1.392 . S
C241 H253 0.929 . S
C242 C238 1.531 . S
C242 H254 0.960 . S
C242 H255 0.962 . S
C242 H256 0.960 . S
C243 C240 1.511 . S
C243 H257 0.961 . S
C243 H258 0.961 . S
C243 H259 0.961 . S
C244 C245 1.370 . S
C244 C246 1.363 . S
C244 H260 0.931 . S
C245 C244 1.370 . S
C245 C249 1.408 . S
C246 C244 1.363 . S
C246 C247 1.370 . S
C246 C250 1.524 . S
C247 C239 1.503 . S
C247 C246 1.370 . S
C247 C248 1.403 . S
C248 C247 1.403 . S
C248 C249 1.404 . S
C248 C251 1.539 . S
C249 C245 1.408 . S
C249 C248 1.404 . S
C249 H261 0.930 . S
C250 C246 1.524 . S
C250 H262 0.956 . S
C250 H263 0.961 . S
C250 H264 0.961 . S
C251 C248 1.539 . S
C251 H265 0.958 . S
C251 H266 0.961 . S
C251 H267 0.960 . S
H252 C236 0.931 . S
H253 C241 0.929 . S
H254 C242 0.960 . S
H255 C242 0.962 . S
H256 C242 0.960 . S
H257 C243 0.961 . S
H258 C243 0.961 . S
H259 C243 0.961 . S
H260 C244 0.931 . S
H261 C249 0.930 . S
H262 C250 0.956 . S
H263 C250 0.961 . S
H264 C250 0.961 . S
H265 C251 0.958 . S
H266 C251 0.961 . S
H267 C251 0.960 . S
C268 C269 1.391 . S
C268 C270 1.394 . S
C268 H284 0.931 . S
C269 C268 1.391 . S
C269 C273 1.376 . S
C270 C268 1.394 . S
C270 C271 1.369 . S
C270 C274 1.531 . S
C271 C270 1.369 . S
C271 C272 1.410 . S
C271 C279 1.503 . S
C272 C271 1.410 . S
C272 C273 1.392 . S
C272 C275 1.511 . S
C273 C269 1.376 . S
C273 C272 1.392 . S
C273 H285 0.929 . S
C274 C270 1.531 . S
C274 H286 0.960 . S
C274 H287 0.962 . S
C274 H288 0.960 . S
C275 C272 1.511 . S
C275 H289 0.961 . S
C275 H290 0.961 . S
C275 H291 0.961 . S
C276 C277 1.370 . S
C276 C278 1.363 . S
C276 H292 0.931 . S
C277 C276 1.370 . S
C277 C281 1.408 . S
C278 C276 1.363 . S
C278 C279 1.370 . S
C278 C282 1.524 . S
C279 C271 1.503 . S
C279 C278 1.370 . S
C279 C280 1.403 . S
C280 C279 1.403 . S
C280 C281 1.404 . S
C280 C283 1.539 . S
C281 C277 1.408 . S
C281 C280 1.404 . S
C281 H293 0.930 . S
C282 C278 1.524 . S
C282 H294 0.956 . S
C282 H295 0.961 . S
C282 H296 0.961 . S
C283 C280 1.539 . S
C283 H297 0.958 . S
C283 H298 0.961 . S
C283 H299 0.960 . S
H284 C268 0.931 . S
H285 C273 0.929 . S
H286 C274 0.960 . S
H287 C274 0.962 . S
H288 C274 0.960 . S
H289 C275 0.961 . S
H290 C275 0.961 . S
H291 C275 0.961 . S
H292 C276 0.931 . S
H293 C281 0.930 . S
H294 C282 0.956 . S
H295 C282 0.961 . S
H296 C282 0.961 . S
H297 C283 0.958 . S
H298 C283 0.961 . S
H299 C283 0.960 . S
C300 C301 1.391 . S
C300 C302 1.394 . S
C300 H316 0.931 . S
C301 C300 1.391 . S
C301 C305 1.376 . S
C302 C300 1.394 . S
C302 C303 1.369 . S
C302 C306 1.531 . S
C303 C302 1.369 . S
C303 C304 1.410 . S
C303 C311 1.503 . S
C304 C303 1.410 . S
C304 C305 1.392 . S
C304 C307 1.511 . S
C305 C301 1.376 . S
C305 C304 1.392 . S
C305 H317 0.929 . S
C306 C302 1.531 . S
C306 H318 0.960 . S
C306 H319 0.962 . S
C306 H320 0.960 . S
C307 C304 1.511 . S
C307 H321 0.961 . S
C307 H322 0.961 . S
C307 H323 0.961 . S
C308 C309 1.370 . S
C308 C310 1.363 . S
C308 H324 0.931 . S
C309 C308 1.370 . S
C309 C313 1.408 . S
C310 C308 1.363 . S
C310 C311 1.370 . S
C310 C314 1.524 . S
C311 C303 1.503 . S
C311 C310 1.370 . S
C311 C312 1.403 . S
C312 C311 1.403 . S
C312 C313 1.404 . S
C312 C315 1.539 . S
C313 C309 1.408 . S
C313 C312 1.404 . S
C313 H325 0.930 . S
C314 C310 1.524 . S
C314 H326 0.956 . S
C314 H327 0.961 . S
C314 H328 0.961 . S
C315 C312 1.539 . S
C315 H329 0.958 . S
C315 H330 0.961 . S
C315 H331 0.960 . S
H316 C300 0.931 . S
H317 C305 0.929 . S
H318 C306 0.960 . S
H319 C306 0.962 . S
H320 C306 0.960 . S
H321 C307 0.961 . S
H322 C307 0.961 . S
H323 C307 0.961 . S
H324 C308 0.931 . S
H325 C313 0.930 . S
H326 C314 0.956 . S
H327 C314 0.961 . S
H328 C314 0.961 . S
H329 C315 0.958 . S
H330 C315 0.961 . S
H331 C315 0.960 . S
C332 C333 1.391 . S
C332 C334 1.394 . S
C332 H348 0.931 . S
C333 C332 1.391 . S
C333 C337 1.376 . S
C334 C332 1.394 . S
C334 C335 1.369 . S
C334 C338 1.531 . S
C335 C334 1.369 . S
C335 C336 1.410 . S
C335 C343 1.503 . S
C336 C335 1.410 . S
C336 C337 1.392 . S
C336 C339 1.511 . S
C337 C333 1.376 . S
C337 C336 1.392 . S
C337 H349 0.929 . S
C338 C334 1.531 . S
C338 H350 0.960 . S
C338 H351 0.962 . S
C338 H352 0.960 . S
C339 C336 1.511 . S
C339 H353 0.961 . S
C339 H354 0.961 . S
C339 H355 0.961 . S
C340 C341 1.370 . S
C340 C342 1.363 . S
C340 H356 0.931 . S
C341 C340 1.370 . S
C341 C345 1.408 . S
C342 C340 1.363 . S
C342 C343 1.370 . S
C342 C346 1.524 . S
C343 C335 1.503 . S
C343 C342 1.370 . S
C343 C344 1.403 . S
C344 C343 1.403 . S
C344 C345 1.404 . S
C344 C347 1.539 . S
C345 C341 1.408 . S
C345 C344 1.404 . S
C345 H357 0.930 . S
C346 C342 1.524 . S
C346 H358 0.956 . S
C346 H359 0.961 . S
C346 H360 0.961 . S
C347 C344 1.539 . S
C347 H361 0.958 . S
C347 H362 0.961 . S
C347 H363 0.960 . S
H348 C332 0.931 . S
H349 C337 0.929 . S
H350 C338 0.960 . S
H351 C338 0.962 . S
H352 C338 0.960 . S
H353 C339 0.961 . S
H354 C339 0.961 . S
H355 C339 0.961 . S
H356 C340 0.931 . S
H357 C345 0.930 . S
H358 C346 0.956 . S
H359 C346 0.961 . S
H360 C346 0.961 . S
H361 C347 0.958 . S
H362 C347 0.961 . S
H363 C347 0.960 . S
C109 C27 0.427 . S
C117 C64 0.425 . S
C141 C32 1.953 . S
C149 C76 1.990 . S
C173 C28 1.267 . S
C181 C89 1.262 . S
C205 C5 1.953 . S
C213 C67 1.992 . S
C237 C22 1.959 . S
C245 C86 1.989 . S
C269 C82 1.291 . S
C277 C35 1.254 . S
C301 C13 2.003 . S
C309 C59 1.969 . S
C333 C81 0.429 . S
C341 C10 0.429 . S
