# Generated by pormake.
# Topology rhr, (4)-cn, num edge types: 1
# Building blocks:
#     Node 0, Type 0, BuildingBlock: ESEHIV_clean_sbu_0, # of connection points: 4
#     Node 1, Type 0, BuildingBlock: ESEHIV_clean_sbu_0, # of connection points: 4
#     Node 2, Type 0, BuildingBlock: ESEHIV_clean_sbu_0, # of connection points: 4
#     Node 3, Type 0, BuildingBlock: ESEHIV_clean_sbu_0, # of connection points: 4
#     Node 4, Type 0, BuildingBlock: ESEHIV_clean_sbu_0, # of connection points: 4
#     Node 5, Type 0, BuildingBlock: ESEHIV_clean_sbu_0, # of connection points: 4
#     Node 6, Type 0, BuildingBlock: ESEHIV_clean_sbu_0, # of connection points: 4
#     Node 7, Type 0, BuildingBlock: ESEHIV_clean_sbu_0, # of connection points: 4
#     Node 8, Type 0, BuildingBlock: ESEHIV_clean_sbu_0, # of connection points: 4
#     Node 9, Type 0, BuildingBlock: ESEHIV_clean_sbu_0, # of connection points: 4
#     Node 10, Type 0, BuildingBlock: ESEHIV_clean_sbu_0, # of connection points: 4
#     Node 11, Type 0, BuildingBlock: ESEHIV_clean_sbu_0, # of connection points: 4
#     Node 12, Type 0, BuildingBlock: ESEHIV_clean_sbu_0, # of connection points: 4
#     Node 13, Type 0, BuildingBlock: ESEHIV_clean_sbu_0, # of connection points: 4
#     Node 14, Type 0, BuildingBlock: ESEHIV_clean_sbu_0, # of connection points: 4
#     Node 15, Type 0, BuildingBlock: ESEHIV_clean_sbu_0, # of connection points: 4
#     Node 16, Type 0, BuildingBlock: ESEHIV_clean_sbu_0, # of connection points: 4
#     Node 17, Type 0, BuildingBlock: ESEHIV_clean_sbu_0, # of connection points: 4
#     Node 18, Type 0, BuildingBlock: ESEHIV_clean_sbu_0, # of connection points: 4
#     Node 19, Type 0, BuildingBlock: ESEHIV_clean_sbu_0, # of connection points: 4
#     Node 20, Type 0, BuildingBlock: ESEHIV_clean_sbu_0, # of connection points: 4
#     Node 21, Type 0, BuildingBlock: ESEHIV_clean_sbu_0, # of connection points: 4
#     Node 22, Type 0, BuildingBlock: ESEHIV_clean_sbu_0, # of connection points: 4
#     Node 23, Type 0, BuildingBlock: ESEHIV_clean_sbu_0, # of connection points: 4
#     Edge 24, Type (0, 0), BuildingBlock: EZIPEK_clean_linker_0, # of connection points: 2
#     Edge 25, Type (0, 0), BuildingBlock: EZIPEK_clean_linker_0, # of connection points: 2
#     Edge 26, Type (0, 0), BuildingBlock: EZIPEK_clean_linker_0, # of connection points: 2
#     Edge 27, Type (0, 0), BuildingBlock: EZIPEK_clean_linker_0, # of connection points: 2
#     Edge 28, Type (0, 0), BuildingBlock: EZIPEK_clean_linker_0, # of connection points: 2
#     Edge 29, Type (0, 0), BuildingBlock: EZIPEK_clean_linker_0, # of connection points: 2
#     Edge 30, Type (0, 0), BuildingBlock: EZIPEK_clean_linker_0, # of connection points: 2
#     Edge 31, Type (0, 0), BuildingBlock: EZIPEK_clean_linker_0, # of connection points: 2
#     Edge 32, Type (0, 0), BuildingBlock: EZIPEK_clean_linker_0, # of connection points: 2
#     Edge 33, Type (0, 0), BuildingBlock: EZIPEK_clean_linker_0, # of connection points: 2
#     Edge 34, Type (0, 0), BuildingBlock: EZIPEK_clean_linker_0, # of connection points: 2
#     Edge 35, Type (0, 0), BuildingBlock: EZIPEK_clean_linker_0, # of connection points: 2
#     Edge 36, Type (0, 0), BuildingBlock: EZIPEK_clean_linker_0, # of connection points: 2
#     Edge 37, Type (0, 0), BuildingBlock: EZIPEK_clean_linker_0, # of connection points: 2
#     Edge 38, Type (0, 0), BuildingBlock: EZIPEK_clean_linker_0, # of connection points: 2
#     Edge 39, Type (0, 0), BuildingBlock: EZIPEK_clean_linker_0, # of connection points: 2
#     Edge 40, Type (0, 0), BuildingBlock: EZIPEK_clean_linker_0, # of connection points: 2
#     Edge 41, Type (0, 0), BuildingBlock: EZIPEK_clean_linker_0, # of connection points: 2
#     Edge 42, Type (0, 0), BuildingBlock: EZIPEK_clean_linker_0, # of connection points: 2
#     Edge 43, Type (0, 0), BuildingBlock: EZIPEK_clean_linker_0, # of connection points: 2
#     Edge 44, Type (0, 0), BuildingBlock: EZIPEK_clean_linker_0, # of connection points: 2
#     Edge 45, Type (0, 0), BuildingBlock: EZIPEK_clean_linker_0, # of connection points: 2
#     Edge 46, Type (0, 0), BuildingBlock: EZIPEK_clean_linker_0, # of connection points: 2
#     Edge 47, Type (0, 0), BuildingBlock: EZIPEK_clean_linker_0, # of connection points: 2
#     Edge 48, Type (0, 0), BuildingBlock: EZIPEK_clean_linker_0, # of connection points: 2
#     Edge 49, Type (0, 0), BuildingBlock: EZIPEK_clean_linker_0, # of connection points: 2
#     Edge 50, Type (0, 0), BuildingBlock: EZIPEK_clean_linker_0, # of connection points: 2
#     Edge 51, Type (0, 0), BuildingBlock: EZIPEK_clean_linker_0, # of connection points: 2
#     Edge 52, Type (0, 0), BuildingBlock: EZIPEK_clean_linker_0, # of connection points: 2
#     Edge 53, Type (0, 0), BuildingBlock: EZIPEK_clean_linker_0, # of connection points: 2
#     Edge 54, Type (0, 0), BuildingBlock: EZIPEK_clean_linker_0, # of connection points: 2
#     Edge 55, Type (0, 0), BuildingBlock: EZIPEK_clean_linker_0, # of connection points: 2
#     Edge 56, Type (0, 0), BuildingBlock: EZIPEK_clean_linker_0, # of connection points: 2
#     Edge 57, Type (0, 0), BuildingBlock: EZIPEK_clean_linker_0, # of connection points: 2
#     Edge 58, Type (0, 0), BuildingBlock: EZIPEK_clean_linker_0, # of connection points: 2
#     Edge 59, Type (0, 0), BuildingBlock: EZIPEK_clean_linker_0, # of connection points: 2
#     Edge 60, Type (0, 0), BuildingBlock: EZIPEK_clean_linker_0, # of connection points: 2
#     Edge 61, Type (0, 0), BuildingBlock: EZIPEK_clean_linker_0, # of connection points: 2
#     Edge 62, Type (0, 0), BuildingBlock: EZIPEK_clean_linker_0, # of connection points: 2
#     Edge 63, Type (0, 0), BuildingBlock: EZIPEK_clean_linker_0, # of connection points: 2
#     Edge 64, Type (0, 0), BuildingBlock: EZIPEK_clean_linker_0, # of connection points: 2
#     Edge 65, Type (0, 0), BuildingBlock: EZIPEK_clean_linker_0, # of connection points: 2
#     Edge 66, Type (0, 0), BuildingBlock: EZIPEK_clean_linker_0, # of connection points: 2
#     Edge 67, Type (0, 0), BuildingBlock: EZIPEK_clean_linker_0, # of connection points: 2
#     Edge 68, Type (0, 0), BuildingBlock: EZIPEK_clean_linker_0, # of connection points: 2
#     Edge 69, Type (0, 0), BuildingBlock: EZIPEK_clean_linker_0, # of connection points: 2
#     Edge 70, Type (0, 0), BuildingBlock: EZIPEK_clean_linker_0, # of connection points: 2
#     Edge 71, Type (0, 0), BuildingBlock: EZIPEK_clean_linker_0, # of connection points: 2
# Relax obj value: 0.017
# Max RMSD: 0.151
# Mean RMSD: 0.096
data_MOF--net-rhr--node1-ESEHIV_clean_sbu_0--edge1-EZIPEK_clean_linker_0
_symmetry_space_group_name_H-M    P1
_symmetry_Int_Tables_number       1
_symmetry_cell_setting            triclinic
loop_
_symmetry_equiv_pos_as_xyz
'x, y, z'
_cell_length_a     42.222676
_cell_length_b     42.088377
_cell_length_c     41.942188
_cell_angle_alpha  90.209691
_cell_angle_beta   93.990995
_cell_angle_gamma 93.797387
loop_
_atom_site_label
_atom_site_type_symbol
_atom_site_fract_x
_atom_site_fract_y
_atom_site_fract_z
_atom_type_partial_charge
Cu0 Cu 0.36937 0.02971 0.36013 0.0
N1 N 0.40029 1.00046 0.35696 0.0
N2 N 0.42458 0.96738 0.32623 0.0
C3 C 0.41679 0.99757 0.33083 0.0
C4 C 0.41324 0.95075 0.35088 0.0
C5 C 0.39844 0.97119 0.36981 0.0
O6 O 0.37655 0.05916 0.32303 0.0
C7 C 0.316 0.99719 0.39108 0.0
O8 O 0.32147 0.01971 0.41277 0.0
H9 H 0.41905 0.01595 0.31305 0.0
H10 H 0.38366 0.96419 0.38891 0.0
N11 N 0.37589 0.05483 0.39719 0.0
N12 N 0.36504 0.09258 0.43163 0.0
C13 C 0.36306 0.08298 0.4008 0.0
C14 C 0.38747 0.04684 0.42658 0.0
C15 C 0.38057 0.07004 0.44796 0.0
C16 C 0.4006 0.07983 0.32628 0.0
O17 O 0.41641 0.08248 0.35436 0.0
H18 H 0.35019 0.09486 0.3816 0.0
H19 H 0.39792 0.02463 0.43236 0.0
O20 O 0.33016 0.99991 0.36482 0.0
H21 H 0.4132 0.92515 0.35339 0.0
H22 H 0.38501 0.06957 0.47368 0.0
Cu23 Cu 0.03222 0.33775 0.37496 0.0
N24 N 0.05939 0.30259 0.37829 0.0
N25 N 0.09311 0.26854 0.4023 0.0
C26 C 0.07791 0.29582 0.40507 0.0
C27 C 0.08376 0.2577 0.37252 0.0
C28 C 0.06312 0.27853 0.3579 0.0
O29 O 1.00726 0.32993 0.41331 0.0
C30 C 0.07441 0.37747 0.34153 0.0
O31 O 0.06807 0.35325 0.32176 0.0
H32 H 0.07994 0.31051 0.42644 0.0
H33 H 0.05128 0.27596 0.33424 0.0
N34 N 0.99955 0.34093 0.3407 0.0
N35 N 0.95937 0.36268 0.31089 0.0
C36 C 0.98439 0.36785 0.33306 0.0
C37 C 0.98341 0.31796 0.32254 0.0
C38 C 0.95891 0.33117 0.30435 0.0
C39 C 0.99331 0.30175 0.41371 0.0
O40 O 0.99624 0.28247 0.38959 0.0
H41 H 0.99089 0.39071 0.3444 0.0
H42 H 0.98835 0.29308 0.32321 0.0
O43 O 0.06156 0.37648 0.36856 0.0
H44 H 0.09127 0.23613 0.36207 0.0
H45 H 0.9416 0.31839 0.28795 0.0
Cu46 Cu 0.71015 0.02659 0.33944 0.0
N47 N 0.70066 0.04392 0.29897 0.0
N48 N 0.6721 0.06744 0.25989 0.0
C49 C 0.67134 0.05072 0.28726 0.0
C50 C 0.70314 0.07136 0.25407 0.0
C51 C 0.72072 0.05676 0.27822 0.0
O52 O 0.67249 1.00047 0.35156 0.0
C53 C 0.72756 0.06277 0.3994 0.0
O54 O 0.71901 0.03682 0.41472 0.0
H55 H 0.64998 0.04525 0.29956 0.0
H56 H 0.74638 0.05682 0.28127 0.0
N57 N 0.74394 0.99912 0.342 0.0
N58 N 0.78648 0.97879 0.36748 0.0
C59 C 0.77257 1.00561 0.358 0.0
C60 C 0.74025 0.96701 0.34118 0.0
C61 C 0.76654 0.95459 0.35597 0.0
C62 C 0.64815 0.98295 0.3401 0.0
O63 O 0.63015 0.96896 0.36097 0.0
H64 H 0.78081 0.0292 0.36639 0.0
H65 H 0.71808 0.95325 0.33572 0.0
O66 O 0.72389 0.06314 0.36884 0.0
H67 H 0.71245 0.08482 0.23444 0.0
H68 H 0.76832 0.92989 0.36261 0.0
Cu69 Cu 0.99533 0.68986 0.3461 0.0
N70 N 0.01996 0.68548 0.30926 0.0
N71 N 0.04841 0.65827 0.27507 0.0
C72 C 0.03647 0.65918 0.30438 0.0
C73 C 0.03918 0.68534 0.26099 0.0
C74 C 0.02164 0.70181 0.2818 0.0
O75 O 0.96831 0.64926 0.33727 0.0
C76 C 0.04363 0.72781 0.37851 0.0
O77 O 0.03818 0.74294 0.35154 0.0
H78 H 0.03908 0.64054 0.32189 0.0
H79 H 1.01009 0.72359 0.27674 0.0
N80 N 0.96692 0.72329 0.35445 0.0
N81 N 0.93985 0.75552 0.3858 0.0
C82 C 0.95212 0.72649 0.38229 0.0
C83 C 0.96351 0.7514 0.33979 0.0
C84 C 0.947 0.77093 0.35871 0.0
C85 C 0.94859 0.65059 0.3124 0.0
O86 O 0.9434 0.67895 0.30097 0.0
H87 H 0.95202 0.70847 0.40063 0.0
H88 H 0.97404 0.75814 0.31782 0.0
O89 O 0.02851 0.70044 0.38185 0.0
H90 H 0.04447 0.6926 0.2371 0.0
H91 H 0.94187 0.79531 0.35351 0.0
Cu92 Cu 0.33853 1.00183 0.70974 0.0
N93 N 0.33767 0.02619 0.74797 0.0
N94 N 0.36545 0.05942 0.78389 0.0
C95 C 0.36336 0.03055 0.76926 0.0
C96 C 0.33922 0.07341 0.77247 0.0
C97 C 0.32224 0.05303 0.75048 0.0
O98 O 0.37433 0.9731 0.72479 0.0
C99 C 0.3236 0.03784 0.64649 0.0
O100 O 0.32769 1.01256 0.62923 0.0
H101 H 0.38266 0.0151 0.77075 0.0
H102 H 0.30277 0.05941 0.73413 0.0
N103 N 0.30325 0.97138 0.69963 0.0
N104 N 0.26925 0.94122 0.66566 0.0
C105 C 0.28225 0.97093 0.67347 0.0
C106 C 0.30239 0.94081 0.70922 0.0
C107 C 0.28165 0.92239 0.68858 0.0
C108 C 0.4048 0.97542 0.73127 0.0
O109 O 0.42121 1.00021 0.72046 0.0
H110 H 0.27841 0.99144 0.65903 0.0
H111 H 0.31831 0.93185 0.72789 0.0
O112 O 0.33204 0.03753 0.67674 0.0
H113 H 0.33472 0.09805 0.77668 0.0
H114 H 0.2781 0.89668 0.68879 0.0
Cu115 Cu 0.04702 0.37786 0.69696 0.0
N116 N 0.07262 0.37543 0.66228 0.0
N117 N 0.1083 0.35332 0.63353 0.0
C118 C 0.0879 0.34903 0.6567 0.0
C119 C 0.10566 0.38363 0.62381 0.0
C120 C 0.08353 0.39726 0.6416 0.0
O121 O 0.0161 0.34094 0.69085 0.0
C122 C 0.09236 0.4113 0.73417 0.0
O123 O 0.08725 0.42929 0.70906 0.0
H124 H 0.08525 0.32747 0.67054 0.0
H125 H 0.07703 0.42168 0.6405 0.0
N126 N 0.02174 0.41248 0.70058 0.0
N127 N 0.98985 0.44241 0.72634 0.0
C128 C 1.00562 0.41571 0.72685 0.0
C129 C 0.01594 0.43822 0.6826 0.0
C130 C 0.99605 0.45682 0.69856 0.0
C131 C 0.99772 0.34422 0.66561 0.0
O132 O 1.00182 0.37021 0.64872 0.0
H133 H 1.0057 0.39879 0.74624 0.0
H134 H 0.02563 0.44324 0.65983 0.0
O135 O 0.07718 0.3839 0.7347 0.0
H136 H 0.11958 0.39535 0.60601 0.0
H137 H 0.98698 0.47911 0.69056 0.0
Cu138 Cu 0.70522 0.01604 0.68937 0.0
N139 N 0.70157 0.98492 0.72155 0.0
N140 N 0.67723 0.94539 0.74869 0.0
C141 C 0.67349 0.97129 0.73012 0.0
C142 C 0.70898 0.94268 0.75209 0.0
C143 C 0.72391 0.96705 0.73538 0.0
O144 O 0.66848 0.04527 0.69702 0.0
C145 C 0.71877 0.96073 0.64666 0.0
O146 O 0.70242 0.94181 0.6652 0.0
H147 H 0.6506 0.97904 0.72131 0.0
H148 H 0.74907 0.97032 0.73196 0.0
N149 N 0.7425 0.04403 0.69203 0.0
N150 N 0.77895 0.07813 0.67115 0.0
C151 C 0.75764 0.05292 0.66569 0.0
C152 C 0.75512 0.06424 0.71523 0.0
C153 C 0.77754 0.08524 0.70242 0.0
C154 C 0.66553 0.05667 0.72557 0.0
O155 O 0.68607 0.0487 0.74861 0.0
H156 H 0.75116 0.04297 0.64213 0.0
H157 H 0.74712 0.0652 0.73912 0.0
O158 O 0.71614 0.99114 0.64946 0.0
H159 H 0.72045 0.92373 0.76475 0.0
H160 H 0.79025 0.10547 0.7146 0.0
Cu161 Cu 1.01314 0.68013 0.68854 0.0
N162 N 0.03636 0.67536 0.65229 0.0
N163 N 0.07225 0.68872 0.61682 0.0
C164 C 0.05802 0.69786 0.64286 0.0
C165 C 0.05911 0.65929 0.6094 0.0
C166 C 0.03702 0.65103 0.63143 0.0
O167 O 0.99837 0.72309 0.68118 0.0
C168 C 0.04236 0.67076 0.75406 0.0
O169 O 0.01643 0.67945 0.76619 0.0
H170 H 0.06332 0.72057 0.65493 0.0
H171 H 0.02266 0.62883 0.63226 0.0
N172 N 0.97715 0.65054 0.69023 0.0
N173 N 0.93583 0.62145 0.709 0.0
C174 C 0.96245 0.64047 0.71647 0.0
C175 C 0.95878 0.63753 0.66536 0.0
C176 C 0.93336 0.61962 0.67682 0.0
C177 C 0.97054 0.7317 0.6854 0.0
O178 O 0.95232 0.71453 0.70383 0.0
H179 H 0.97035 0.64756 0.7406 0.0
H180 H 0.96306 0.6415 0.64052 0.0
O181 O 0.04488 0.67195 0.72396 0.0
H182 H 0.06512 0.64487 0.58956 0.0
H183 H 0.91426 0.60671 0.66266 0.0
Cu184 Cu 0.33077 0.35427 0.02574 0.0
N185 N 0.29273 0.35728 0.04949 0.0
N186 N 0.25678 0.38113 0.07859 0.0
C187 C 0.28637 0.38328 0.0672 0.0
C188 C 0.2441 0.35246 0.06771 0.0
C189 C 0.26594 0.33804 0.04991 0.0
O190 O 0.32963 0.39446 1.00286 0.0
C191 C 0.36223 0.31875 0.06841 0.0
O192 O 0.3358 0.30155 0.06014 0.0
H193 H 0.30305 0.40375 0.07131 0.0
H194 H 0.26212 0.3154 0.03749 0.0
N195 N 0.33762 0.32213 0.9934 0.0
N196 N 0.36492 0.29314 0.9592 0.0
C197 C 0.36654 0.31628 0.98235 0.0
C198 C 0.31698 0.30178 0.97634 0.0
C199 C 0.33347 0.28427 0.95549 0.0
C200 C 0.30318 0.39425 0.98602 0.0
O201 O 0.28522 0.36751 0.98378 0.0
H202 H 0.38849 0.32921 0.99077 0.0
H203 H 0.29157 0.29987 0.97862 0.0
O204 O 0.36552 0.34703 0.05754 0.0
H205 H 0.22045 0.34267 0.07205 0.0
H206 H 0.323 0.26625 0.93876 0.0
Cu207 Cu 0.68136 0.34772 0.02271 0.0
N208 N 0.68146 0.38013 0.99112 0.0
N209 N 0.70162 0.41476 0.9556 0.0
C210 C 0.70763 0.39094 0.97633 0.0
C211 C 0.67032 0.41897 0.95717 0.0
C212 C 0.65799 0.39766 0.97903 0.0
O213 O 0.72221 0.3593 0.04927 0.0
C214 C 0.6439 0.30123 0.98485 0.0
O215 O 0.62357 0.32312 0.98817 0.0
H216 H 0.73088 0.38193 0.98118 0.0
H217 H 0.63374 0.39547 0.98595 0.0
N218 N 0.64883 0.34716 0.05217 0.0
N219 N 0.61639 0.32766 0.0892 0.0
C220 C 0.63697 0.32082 0.06708 0.0
C221 C 0.63537 0.37156 0.06562 0.0
C222 C 0.61558 0.35969 0.08842 0.0
C223 C 0.72595 0.38838 0.05957 0.0
O224 O 0.70331 0.40748 0.05196 0.0
H225 H 0.64396 0.29707 0.0624 0.0
H226 H 0.64008 0.39635 0.05979 0.0
O227 O 0.67227 0.30629 0.99829 0.0
H228 H 0.65748 0.43669 0.94396 0.0
H229 H 0.60168 0.37353 0.10339 0.0
Cu230 Cu 0.68902 0.7116 0.022 0.0
N231 N 0.70357 0.75162 0.03907 0.0
N232 N 0.69778 0.79901 0.06144 0.0
C233 C 0.68892 0.76763 0.06102 0.0
C234 C 0.71993 0.80284 0.03987 0.0
C235 C 0.72341 0.77352 0.02604 0.0
O236 O 0.64758 0.72087 0.99582 0.0
C237 C 0.70418 0.65 0.05642 0.0
O238 O 0.70055 0.63586 0.02837 0.0
H239 H 0.66959 0.75716 0.07398 0.0
H240 H 0.73689 0.76915 1.00564 0.0
N241 N 0.71536 0.70138 0.98957 0.0
N242 N 0.75239 0.67921 0.96276 0.0
C243 C 0.74394 0.68864 0.99169 0.0
C244 C 0.70615 0.70088 0.95815 0.0
C245 C 0.72883 0.68715 0.94162 0.0
C246 C 0.62838 0.74311 0.99973 0.0
O247 O 0.62804 0.75646 0.02793 0.0
H248 H 0.75763 0.68535 0.01395 0.0
H249 H 0.68355 0.70829 0.94811 0.0
O250 O 0.69661 0.67926 0.05844 0.0
H251 H 0.73012 0.82559 0.03222 0.0
H252 H 0.72723 0.68151 0.91633 0.0
Cu253 Cu 0.37883 0.67722 0.04587 0.0
N254 N 0.37757 0.64448 0.01466 0.0
N255 N 0.35882 0.61671 0.97067 0.0
C256 C 0.35365 0.63987 0.99165 0.0
C257 C 0.38783 0.607 0.98008 0.0
C258 C 0.39929 0.62408 1.00729 0.0
O259 O 0.3471 0.66448 0.07793 0.0
C260 C 0.39911 0.7189 1.00054 0.0
O261 O 0.42124 0.69839 1.0031 0.0
H262 H 0.33284 0.65365 0.98999 0.0
H263 H 0.42214 0.62223 0.02019 0.0
N264 N 0.41811 0.68502 0.07039 0.0
N265 N 0.45721 0.71231 0.10028 0.0
C266 C 0.42898 0.71365 0.08315 0.0
C267 C 0.4402 0.66483 0.08024 0.0
C268 C 0.46438 0.68162 0.09854 0.0
C269 C 0.32295 0.64434 0.07339 0.0
O270 O 0.31406 0.63475 0.04417 0.0
H271 H 0.41637 0.73511 0.08 0.0
H272 H 0.43876 0.63963 0.0748 0.0
O273 O 0.3759 0.71564 0.01881 0.0
H274 H 0.39978 0.58884 0.96818 0.0
H275 H 0.4856 0.6721 0.10965 0.0
Cu276 Cu 0.84246 0.5232 0.85421 0.0
N277 N 0.87614 0.49618 0.85276 0.0
N278 N 0.9137 0.47221 0.82824 0.0
C279 C 0.89928 0.49942 0.8321 0.0
C280 C 0.89972 0.45096 0.84769 0.0
C281 C 0.87657 0.46583 0.86282 0.0
O282 O 0.84289 0.54581 0.81266 0.0
C283 C 0.80003 0.48784 0.89273 0.0
O284 O 0.82323 0.49557 0.91442 0.0
H285 H 0.90359 0.52019 0.81771 0.0
H286 H 0.85921 0.45436 0.87753 0.0
N287 N 0.84936 0.55401 0.88679 0.0
N288 N 0.83852 0.59344 0.91923 0.0
C289 C 0.82777 0.57445 0.89434 0.0
C290 C 0.87467 0.56024 0.90779 0.0
C291 C 0.86799 0.58467 0.92798 0.0
C292 C 0.86533 0.56748 0.80962 0.0
O293 O 0.88387 0.57622 0.83499 0.0
H294 H 0.80433 0.57499 0.88219 0.0
H295 H 0.89621 0.54763 0.90863 0.0
O296 O 0.80286 0.49724 0.86388 0.0
H297 H 0.90394 0.42589 0.84863 0.0
H298 H 0.88317 0.59474 0.94784 0.0
Cu299 Cu 0.51067 0.84385 0.85672 0.0
N300 N 0.47794 0.81181 0.86189 0.0
N301 N 0.44616 0.78452 0.89478 0.0
C302 C 0.45899 0.81341 0.88658 0.0
C303 C 0.45626 0.76407 0.87338 0.0
C304 C 0.47593 0.78085 0.8533 0.0
O305 O 0.53927 0.83486 0.89686 0.0
C306 C 0.47358 0.88221 0.81347 0.0
O307 O 0.47702 0.85679 0.7961 0.0
H308 H 0.45771 0.83482 0.90069 0.0
H309 H 0.49035 0.77062 0.83613 0.0
N310 N 0.53875 0.84133 0.82378 0.0
N311 N 0.57885 0.85956 0.79478 0.0
C312 C 0.55834 0.86664 0.81665 0.0
C313 C 0.54697 0.81729 0.80542 0.0
C314 C 0.57181 0.82847 0.78758 0.0
C315 C 0.55211 0.80755 0.89775 0.0
O316 O 0.5478 0.78922 0.87225 0.0
H317 H 0.5582 0.88973 0.82808 0.0
H318 H 0.53642 0.79318 0.80563 0.0
O319 O 0.48662 0.8829 0.84252 0.0
H320 H 0.45193 0.73845 0.87397 0.0
H321 H 0.58412 0.81474 0.77106 0.0
Cu322 Cu 0.19863 0.54258 0.86065 0.0
N323 N 0.16867 0.57421 0.85766 0.0
N324 N 0.13276 0.6069 0.83702 0.0
C325 C 0.15257 0.584 0.8308 0.0
C326 C 0.13646 0.61179 0.86885 0.0
C327 C 0.15857 0.59167 0.8815 0.0
O328 O 0.18763 0.51025 0.82712 0.0
C329 C 0.25157 0.57748 0.88878 0.0
O330 O 0.23012 0.58311 0.90889 0.0
H331 H 0.15506 0.57433 0.80722 0.0
H332 H 0.16658 0.58985 0.90643 0.0
N333 N 0.19875 0.5189 0.89809 0.0
N334 N 0.22139 0.48587 0.93302 0.0
C335 C 0.22093 0.49776 0.90332 0.0
C336 C 0.18389 0.52017 0.92543 0.0
C337 C 0.19779 0.49948 0.9471 0.0
C338 C 0.15899 0.49805 0.82516 0.0
O339 O 0.13873 0.50952 0.84389 0.0
H340 H 0.23696 0.49155 0.88563 0.0
H341 H 0.16526 0.53573 0.92976 0.0
O342 O 0.24282 0.56167 0.86316 0.0
H343 H 0.12383 0.62853 0.88199 0.0
H344 H 0.19183 0.49556 0.97153 0.0
Cu345 Cu 0.52634 0.1767 0.85734 0.0
N346 N 0.49771 0.21119 0.86057 0.0
N347 N 0.46033 0.24071 0.88181 0.0
C348 C 0.48155 0.21771 0.88686 0.0
C349 C 0.46351 0.24895 0.85099 0.0
C350 C 0.48624 0.23112 0.83819 0.0
O351 O 0.55814 0.18681 0.89458 0.0
C352 C 0.47408 0.13912 0.83368 0.0
O353 O 0.4757 0.16295 0.81361 0.0
H354 H 0.48467 0.20511 0.90919 0.0
H355 H 0.49309 0.23199 0.81382 0.0
N356 N 0.55031 0.16845 0.81949 0.0
N357 N 0.58026 0.14336 0.78416 0.0
C358 C 0.56822 0.14303 0.81381 0.0
C359 C 0.55121 0.18513 0.79217 0.0
C360 C 0.56931 0.17008 0.77085 0.0
C361 C 0.57457 0.21372 0.89388 0.0
O362 O 0.57136 0.23094 0.86793 0.0
H363 H 0.57221 0.12441 0.83107 0.0
H364 H 0.53922 0.20677 0.78773 0.0
O365 O 0.49534 0.13887 0.85718 0.0
H366 H 0.44989 0.26643 0.83829 0.0
H367 H 0.57406 0.17828 0.74711 0.0
Cu368 Cu 0.8329 0.51254 0.19313 0.0
N369 N 0.79671 0.53895 0.18627 0.0
N370 N 0.76438 0.57338 0.15969 0.0
C371 C 0.78537 0.55017 0.15733 0.0
C372 C 0.76252 0.57671 0.19157 0.0
C373 C 0.78199 0.55571 0.20761 0.0
O374 O 0.82899 0.48495 0.15365 0.0
C375 C 0.86989 0.5541 0.23587 0.0
O376 O 0.84492 0.54605 0.25178 0.0
H377 H 0.79367 0.54266 0.13486 0.0
H378 H 0.78613 0.55405 0.23325 0.0
N379 N 0.83778 0.4813 0.2264 0.0
N380 N 0.86411 0.44518 0.25658 0.0
C381 C 0.86628 0.46911 0.23497 0.0
C382 C 0.81677 0.46438 0.24346 0.0
C383 C 0.83282 0.44227 0.2619 0.0
C384 C 0.80329 0.46644 0.15104 0.0
O385 O 0.78354 0.46763 0.17379 0.0
H386 H 0.88827 0.47717 0.22484 0.0
H387 H 0.79144 0.46721 0.24202 0.0
O388 O 0.87033 0.54288 0.20716 0.0
H389 H 0.74877 0.59396 0.20266 0.0
H390 H 0.82216 0.42495 0.27765 0.0
Cu391 Cu 0.55252 0.87978 0.18612 0.0
N392 N 0.57711 0.88843 0.15151 0.0
N393 N 0.61422 0.87965 0.11782 0.0
C394 C 0.59914 0.86888 0.14323 0.0
C395 C 0.6014 0.90729 0.10971 0.0
C396 C 0.57828 0.91263 0.13061 0.0
O397 O 0.53787 0.83398 0.18137 0.0
C398 C 0.58869 0.92587 0.22395 0.0
O399 O 0.58309 0.94205 0.19769 0.0
H400 H 0.60374 0.84683 0.15538 0.0
H401 H 0.56335 0.93256 0.13049 0.0
N402 N 0.51531 0.90145 0.18698 0.0
N403 N 0.47685 0.91998 0.21463 0.0
C404 C 0.50815 0.91604 0.21388 0.0
C405 C 0.48727 0.8961 0.16978 0.0
C406 C 0.46346 0.90747 0.18685 0.0
C407 C 0.52592 0.8253 0.15341 0.0
O408 O 0.52586 0.84632 0.13036 0.0
H409 H 0.52476 0.91974 0.2345 0.0
H410 H 0.48371 0.88213 0.14803 0.0
O411 O 0.57896 0.89627 0.22449 0.0
H412 H 0.60784 0.92204 0.08978 0.0
H413 H 0.43813 0.90467 0.18047 0.0
Cu414 Cu 0.17046 0.52108 0.19628 0.0
N415 N 0.17399 0.49914 0.23617 0.0
N416 N 0.15677 0.4689 0.27694 0.0
C417 C 0.15043 0.47897 0.2466 0.0
C418 C 0.18556 0.48331 0.286 0.0
C419 C 0.19606 0.50188 0.26098 0.0
O420 O 0.1308 0.54581 0.20284 0.0
C421 C 0.20207 0.47302 0.16219 0.0
O422 O 0.22325 0.47973 0.1861 0.0
H423 H 0.12858 0.47235 0.23239 0.0
H424 H 0.21782 0.51699 0.26125 0.0
N425 N 0.20024 0.55554 0.18592 0.0
N426 N 0.2377 0.58576 0.16118 0.0
C427 C 0.23092 0.55811 0.17723 0.0
C428 C 0.18798 0.58235 0.17451 0.0
C429 C 0.21056 0.60078 0.15993 0.0
C430 C 0.13201 0.56419 0.22799 0.0
O431 O 0.15738 0.56384 0.24793 0.0
H432 H 0.24712 0.53934 0.18036 0.0
H433 H 0.16311 0.58697 0.17372 0.0
O434 O 0.17572 0.48738 0.16161 0.0
H435 H 0.19798 0.48086 0.30924 0.0
H436 H 0.20669 0.62273 0.14728 0.0
Cu437 Cu 0.50275 0.18908 0.18703 0.0
N438 N 0.47152 0.19597 0.15439 0.0
N439 N 0.43884 0.22522 0.12444 0.0
C440 C 0.45637 0.22316 0.15233 0.0
C441 C 0.44281 0.19818 0.10824 0.0
C442 C 0.46318 0.18015 0.12679 0.0
O443 O 0.53249 0.22774 0.1838 0.0
C444 C 0.45823 0.15567 0.22494 0.0
O445 O 0.45007 0.14239 0.19694 0.0
H446 H 0.45934 0.2418 0.17034 0.0
H447 H 0.47247 0.158 0.11992 0.0
N448 N 0.52666 0.15373 0.18067 0.0
N449 N 0.56465 0.12016 0.19324 0.0
C450 C 0.55619 0.15057 0.19432 0.0
C451 C 0.51628 0.12433 0.17017 0.0
C452 C 0.53963 0.1036 0.17793 0.0
C453 C 0.54494 0.23099 0.15673 0.0
O454 O 0.53873 0.20838 0.13513 0.0
H455 H 0.5701 0.1696 0.2073 0.0
H456 H 0.49254 0.11787 0.15985 0.0
O457 O 0.48006 0.17867 0.22654 0.0
H458 H 0.43284 0.19261 0.08424 0.0
H459 H 0.53766 0.07804 0.17438 0.0
Cu460 Cu 0.86079 0.86713 0.53492 0.0
N461 N 0.89013 0.85923 0.56994 0.0
N462 N 0.9178 0.83259 0.60786 0.0
C463 C 0.90068 0.83074 0.57922 0.0
C464 C 0.91811 0.86341 0.61683 0.0
C465 C 0.90128 0.8797 0.59349 0.0
O466 O 0.86424 0.83101 0.50227 0.0
C467 C 0.81743 0.90623 0.56987 0.0
O468 O 0.84339 0.9251 0.57388 0.0
H469 H 0.89476 0.80878 0.56597 0.0
H470 H 0.89668 0.9046 0.59434 0.0
N471 N 0.87335 0.90299 0.51141 0.0
N472 N 0.865 0.93834 0.47256 0.0
C473 C 0.86059 0.90776 0.48164 0.0
C474 C 0.88762 0.93131 0.52106 0.0
C475 C 0.88217 0.95329 0.49718 0.0
C476 C 0.89117 0.82888 0.48941 0.0
O477 O 0.91474 0.84941 0.49899 0.0
H478 H 0.84467 0.89025 0.46866 0.0
H479 H 0.89839 0.93645 0.54481 0.0
O480 O 0.81901 0.87965 0.55409 0.0
H481 H 0.92914 0.87328 0.63909 0.0
H482 H 0.8878 0.97873 0.49892 0.0
Cu483 Cu 0.18378 0.84078 0.50009 0.0
N484 N 0.21581 0.85374 0.47144 0.0
N485 N 0.24719 0.88542 0.44135 0.0
C486 C 0.2233 0.88394 0.46154 0.0
C487 C 0.25522 0.8551 0.43864 0.0
C488 C 0.23596 0.83577 0.45697 0.0
O489 O 0.18695 0.87422 0.53461 0.0
C490 C 0.14368 0.80367 0.45471 0.0
O491 O 0.17177 0.7953 0.44761 0.0
H492 H 0.21191 0.90456 0.4695 0.0
H493 H 0.23692 0.81034 0.45971 0.0
N494 N 0.18852 0.80318 0.52368 0.0
N495 N 0.16656 0.76277 0.55139 0.0
C496 C 0.16665 0.79409 0.5445 0.0
C497 C 0.20337 0.77665 0.51771 0.0
C498 C 0.18993 0.75172 0.5349 0.0
C499 C 0.2138 0.87647 0.55135 0.0
O500 O 0.23593 0.85791 0.54361 0.0
H501 H 0.14877 0.8094 0.55173 0.0
H502 H 0.22038 0.77464 0.49986 0.0
O503 O 0.14273 0.82667 0.47503 0.0
H504 H 0.27418 0.84757 0.42487 0.0
H505 H 0.19519 0.72696 0.53341 0.0
Cu506 Cu 0.2249 0.19099 0.5459 0.0
N507 N 0.22053 0.2247 0.57465 0.0
N508 N 0.19769 0.26527 0.59683 0.0
C509 C 0.19289 0.23656 0.58201 0.0
C510 C 0.22951 0.27152 0.59925 0.0
C511 C 0.24349 0.24654 0.58561 0.0
O512 O 0.1878 0.19341 0.51259 0.0
C513 C 0.25708 0.14941 0.59236 0.0
O514 O 0.2662 0.17682 0.60629 0.0
H515 H 0.16965 0.2254 0.5748 0.0
H516 H 0.26854 0.24531 0.58219 0.0
N517 N 0.26119 0.19916 0.52351 0.0
N518 N 0.30072 0.18656 0.49426 0.0
C519 C 0.27687 0.17553 0.5117 0.0
C520 C 0.27583 0.22634 0.51335 0.0
C521 C 0.30024 0.21855 0.49495 0.0
C522 C 0.1845 0.22031 0.4983 0.0
O523 O 0.20551 0.24398 0.50586 0.0
H524 H 0.26998 0.15052 0.51456 0.0
H525 H 0.26869 0.25001 0.51802 0.0
O526 O 0.23604 0.14964 0.56836 0.0
H527 H 0.24166 0.2932 0.6091 0.0
H528 H 0.31559 0.23487 0.48216 0.0
Cu529 Cu 0.86495 0.20116 0.53537 0.0
N530 N 0.82863 0.1963 0.50593 0.0
N531 N 0.79383 0.16952 0.4705 0.0
C532 C 0.81464 0.16759 0.49642 0.0
C533 C 0.79475 0.20082 0.4634 0.0
C534 C 0.81605 0.21722 0.48523 0.0
O535 O 0.86016 0.16294 0.56301 0.0
C536 C 0.9046 0.24002 0.49847 0.0
O537 O 0.88268 0.25929 0.50495 0.0
H538 H 0.82116 0.14532 0.50702 0.0
H539 H 0.82314 0.24236 0.48479 0.0
N540 N 0.86821 0.23544 0.56466 0.0
N541 N 0.89443 0.26956 0.59998 0.0
C542 C 0.8949 0.24185 0.58384 0.0
C543 C 0.84992 0.25991 0.56904 0.0
C544 C 0.86615 0.2811 0.59083 0.0
C545 C 0.83639 0.16374 0.58054 0.0
O546 O 0.8198 0.18908 0.57899 0.0
H547 H 0.91525 0.22745 0.58434 0.0
H548 H 0.82728 0.26298 0.55609 0.0
O549 O 0.90226 0.21132 0.50918 0.0
H550 H 0.78188 0.21094 0.44307 0.0
H551 H 0.85859 0.30396 0.59804 0.0
C552 C 0.30201 0.14799 0.45059 0.0
C553 C 0.31861 0.16709 0.47482 0.0
C554 C 0.36748 0.14142 0.46523 0.0
C555 C 0.34955 0.11866 0.44505 0.0
N556 N 0.29779 0.09713 0.4237 0.0
N557 N 0.36651 0.18063 0.5077 0.0
C558 C 0.31629 0.12125 0.43877 0.0
C559 C 0.35132 0.16367 0.48269 0.0
N560 N 0.27243 0.15549 0.43904 0.0
N561 N 0.39992 0.1422 0.467 0.0
H562 H 0.35517 0.1971 0.52077 0.0
H563 H 0.3895 0.17672 0.5168 0.0
H564 H 0.41229 0.12689 0.45358 0.0
H565 H 0.41439 0.15992 0.47922 0.0
H566 H 0.26019 0.14407 0.41933 0.0
H567 H 0.26174 0.1754 0.4471 0.0
H568 H 0.27304 0.09662 0.42137 0.0
H569 H 0.3067 0.07596 0.41678 0.0
C570 C 0.93827 0.2845 0.42818 0.0
C571 C 0.97095 0.29017 0.43827 0.0
C572 C 0.96138 0.25992 0.48773 0.0
C573 C 0.92917 0.25244 0.47636 0.0
N574 N 0.88875 0.25266 0.43302 0.0
N575 N 0.01455 0.28143 0.47648 0.0
C576 C 0.91821 0.26343 0.44578 0.0
C577 C 0.98274 0.27741 0.46784 0.0
N578 N 0.92622 0.29998 0.40188 0.0
N579 N 0.9713 0.25098 0.51787 0.0
H580 H 0.03024 0.2953 0.46327 0.0
H581 H 0.02566 0.27013 0.4958 0.0
H582 H 0.95671 0.23724 0.53231 0.0
H583 H 0.99324 0.2584 0.52925 0.0
H584 H 0.90206 0.29959 0.39487 0.0
H585 H 0.94016 0.31586 0.38879 0.0
H586 H 0.88031 0.25706 0.40965 0.0
H587 H 0.87388 0.2365 0.44479 0.0
C588 C 0.86037 0.96319 0.4191 0.0
C589 C 0.84627 0.95323 0.44741 0.0
C590 C 0.79452 0.96926 0.42522 0.0
C591 C 0.80773 0.9754 0.39552 0.0
N592 N 0.85236 0.97861 0.36325 0.0
N593 N 0.79968 0.94473 0.47712 0.0
C594 C 0.84061 0.97291 0.39234 0.0
C595 C 0.81332 0.95611 0.45051 0.0
N596 N 0.89256 0.96273 0.41788 0.0
N597 N 0.76373 0.9758 0.42901 0.0
H598 H 0.81275 0.93565 0.49649 0.0
H599 H 0.77525 0.94222 0.47935 0.0
H600 H 0.74883 0.98416 0.41056 0.0
H601 H 0.75364 0.97554 0.45095 0.0
H602 H 0.90505 0.97175 0.39902 0.0
H603 H 0.90711 0.95468 0.4369 0.0
H604 H 0.87545 0.97457 0.35792 0.0
H605 H 0.83819 0.98651 0.34386 0.0
C606 C 0.11545 0.74973 0.439 0.0
C607 C 0.11453 0.78369 0.44062 0.0
C608 C 0.06187 0.77783 0.41065 0.0
C609 C 0.06568 0.74497 0.40418 0.0
N610 N 0.09875 0.70063 0.41014 0.0
N611 N 0.08718 0.83008 0.42428 0.0
C612 C 0.093 0.7311 0.41814 0.0
C613 C 0.08758 0.7977 0.42584 0.0
N614 N 0.13738 0.7349 0.4581 0.0
N615 N 0.03329 0.79015 0.40258 0.0
H616 H 0.10543 0.84553 0.43443 0.0
H617 H 0.07005 0.84165 0.4105 0.0
H618 H 0.01395 0.77654 0.39176 0.0
H619 H 0.02774 0.81276 0.40961 0.0
H620 H 0.13711 0.71027 0.46056 0.0
H621 H 0.15358 0.74715 0.47433 0.0
H622 H 0.12023 0.6906 0.4162 0.0
H623 H 0.08308 0.68612 0.39527 0.0
C624 C 0.25069 0.91983 0.57753 0.0
C625 C 0.22232 0.89982 0.57867 0.0
C626 C 0.22127 0.91441 0.63588 0.0
C627 C 0.2522 0.92997 0.63568 0.0
N628 N 0.29857 0.94245 0.60658 0.0
N629 N 0.1811 0.87677 0.60997 0.0
C630 C 0.26734 0.93173 0.60645 0.0
C631 C 0.20743 0.89714 0.60807 0.0
N632 N 0.26181 0.92746 0.54853 0.0
N633 N 0.20511 0.91634 0.6628 0.0
H634 H 0.17007 0.86446 0.59016 0.0
H635 H 0.17123 0.87076 0.63138 0.0
H636 H 0.21481 0.92875 0.68316 0.0
H637 H 0.18142 0.90812 0.66403 0.0
H638 H 0.28073 0.94417 0.54572 0.0
H639 H 0.2498 0.91961 0.52704 0.0
H640 H 0.31186 0.94133 0.58665 0.0
H641 H 0.31219 0.9493 0.62742 0.0
C642 C 0.12812 0.31822 0.59262 0.0
C643 C 0.13076 0.33113 0.62401 0.0
C644 C 0.17434 0.2968 0.63827 0.0
C645 C 0.17411 0.28651 0.60602 0.0
N646 N 0.15449 0.29229 0.55112 0.0
N647 N 0.16031 0.33732 0.67505 0.0
C648 C 0.15189 0.29845 0.58276 0.0
C649 C 0.15499 0.32165 0.64642 0.0
N650 N 0.10239 0.32418 0.57255 0.0
N651 N 0.19232 0.28199 0.66131 0.0
H652 H 0.14731 0.35637 0.68122 0.0
H653 H 0.17955 0.33357 0.6912 0.0
H654 H 0.20585 0.263 0.65618 0.0
H655 H 0.19129 0.28634 0.68566 0.0
H656 H 0.09734 0.3129 0.55046 0.0
H657 H 0.08455 0.33829 0.57932 0.0
H658 H 0.14078 0.30262 0.53285 0.0
H659 H 0.17252 0.27934 0.54297 0.0
C660 C 0.79086 0.12768 0.5972 0.0
C661 C 0.82409 0.1364 0.60041 0.0
C662 C 0.82816 0.10184 0.64789 0.0
C663 C 0.79443 0.09744 0.64718 0.0
N664 N 0.74366 0.11235 0.62446 0.0
N665 N 0.87427 0.13358 0.63106 0.0
C666 C 0.77579 0.11188 0.62258 0.0
C667 C 0.84286 0.12368 0.62622 0.0
N668 N 0.77358 0.13422 0.56953 0.0
N669 N 0.8461 0.08467 0.66896 0.0
H670 H 0.88581 0.14908 0.61563 0.0
H671 H 0.88834 0.12803 0.6514 0.0
H672 H 0.8359 0.0686 0.68479 0.0
H673 H 0.87073 0.08434 0.66885 0.0
H674 H 0.74997 0.12578 0.56463 0.0
H675 H 0.78387 0.14499 0.55008 0.0
H676 H 0.72924 0.12526 0.60885 0.0
H677 H 0.73194 0.10297 0.64374 0.0
C678 C 0.92582 0.75368 0.65 0.0
C679 C 0.95701 0.75798 0.66547 0.0
C680 C 0.96375 0.80935 0.63787 0.0
C681 C 0.93117 0.807 0.62657 0.0
N682 N 0.87942 0.77976 0.6293 0.0
N683 N 1.00337 0.7937 0.67834 0.0
C684 C 0.91167 0.77997 0.63478 0.0
C685 C 0.9754 0.78691 0.66055 0.0
N686 N 0.91022 0.72416 0.64793 0.0
N687 N 0.9839 0.83237 0.62604 0.0
H688 H 1.01203 0.77873 0.6962 0.0
H689 H 0.01618 0.81569 0.67774 0.0
H690 H 0.97643 0.84817 0.6084 0.0
H691 H 1.00846 0.83348 0.63114 0.0
H692 H 0.88866 0.71963 0.63451 0.0
H693 H 0.92049 0.70353 0.65591 0.0
H694 H 0.86397 0.76175 0.63752 0.0
H695 H 0.86802 0.79922 0.6199 0.0
C696 C 0.4165 0.29643 0.07517 0.0
C697 C 0.38738 0.30301 0.08818 0.0
C698 C 0.39406 0.25996 0.12699 0.0
C699 C 0.42228 0.25242 0.11314 0.0
N700 N 0.46432 0.26696 0.07924 0.0
N701 N 0.35358 0.2978 0.13183 0.0
C702 C 0.43473 0.27183 0.0888 0.0
C703 C 0.37798 0.28694 0.116 0.0
N704 N 0.42606 0.31278 0.0491 0.0
N705 N 0.38177 0.2402 0.14946 0.0
H706 H 0.34196 0.31792 0.12439 0.0
H707 H 0.34697 0.289 0.15374 0.0
H708 H 0.39285 0.22003 0.15759 0.0
H709 H 0.35957 0.24231 0.15829 0.0
H710 H 0.44424 0.30619 0.03543 0.0
H711 H 0.41543 0.33305 0.04083 0.0
H712 H 0.47629 0.28173 0.06356 0.0
H713 H 0.47812 0.24928 0.08902 0.0
C714 C 0.78716 0.45323 0.09217 0.0
C715 C 0.79405 0.4429 0.12397 0.0
C716 C 0.763 0.39177 0.1108 0.0
C717 C 0.75489 0.40266 0.07943 0.0
N718 N 0.76731 0.43945 0.03763 0.0
N719 N 0.797 0.3988 0.16002 0.0
C720 C 0.76979 0.43199 0.06934 0.0
C721 C 0.78479 0.41089 0.13194 0.0
N722 N 0.79544 0.48393 0.08419 0.0
N723 N 0.74833 0.36426 0.12127 0.0
H724 H 0.81325 0.41209 0.17553 0.0
H725 H 0.79367 0.37496 0.16631 0.0
H726 H 0.7329 0.34941 0.10651 0.0
H727 H 0.75 0.35706 0.14502 0.0
H728 H 0.78744 0.49435 0.0629 0.0
H729 H 0.8092 0.49958 0.09963 0.0
H730 H 0.77961 0.45895 0.02794 0.0
H731 H 0.75537 0.42416 0.02051 0.0
C732 C 0.68713 0.83574 0.10499 0.0
C733 C 0.67944 0.82342 0.07381 0.0
C734 C 0.62921 0.84962 0.07104 0.0
C735 C 0.63735 0.86302 0.10175 0.0
N736 N 0.67607 0.87393 0.14576 0.0
N737 N 0.64753 0.82501 0.02412 0.0
C738 C 0.66707 0.85764 0.11805 0.0
C739 C 0.65189 0.83255 0.05583 0.0
N740 N 0.71318 0.82574 0.12222 0.0
N741 N 0.59907 0.85132 0.05733 0.0
H742 H 0.66374 0.81241 0.01244 0.0
H743 H 0.62951 0.83361 1.00896 0.0
H744 H 0.58146 0.86268 0.06828 0.0
H745 H 0.59069 0.83893 0.03655 0.0
H746 H 0.71859 0.83116 0.1463 0.0
H747 H 0.72856 0.81045 0.11257 0.0
H748 H 0.69843 0.87314 0.15774 0.0
H749 H 0.66186 0.89041 0.15535 0.0
C750 C 0.27594 0.58014 0.11838 0.0
C751 C 0.26535 0.59735 0.14437 0.0
C752 C 0.29535 0.64577 0.12617 0.0
C753 C 0.30655 0.62828 0.10064 0.0
N754 N 0.31637 0.57623 0.08054 0.0
N755 N 0.27263 0.64391 0.17793 0.0
C756 C 0.29966 0.59463 0.09938 0.0
C757 C 0.27784 0.6293 0.14986 0.0
N758 N 0.26206 0.55077 0.11026 0.0
N759 N 0.29953 0.67822 0.1269 0.0
H760 H 0.2604 0.63209 0.19568 0.0
H761 H 0.28314 0.66619 0.18486 0.0
H762 H 0.31146 0.69127 0.10983 0.0
H763 H 0.28882 0.69235 0.14293 0.0
H764 H 0.26641 0.5388 0.08937 0.0
H765 H 0.24415 0.53955 0.12275 0.0
H766 H 0.31428 0.55142 0.08079 0.0
H767 H 0.33505 0.58563 0.06768 0.0
C768 C 0.432 0.7654 0.98146 0.0
C769 C 0.40374 0.74534 0.97711 0.0
C770 C 0.39882 0.76072 0.92038 0.0
C771 C 0.43009 0.77571 0.92349 0.0
N772 N 0.47627 0.79364 0.95782 0.0
N773 N 0.35701 0.72785 0.94441 0.0
C774 C 0.44633 0.77911 0.95441 0.0
C775 C 0.38587 0.74463 0.94717 0.0
N776 N 0.44501 0.77123 0.01184 0.0
N777 N 0.3819 0.76189 0.89149 0.0
H778 H 0.34705 0.71677 0.96391 0.0
H779 H 0.3427 0.725 0.9233 0.0
H780 H 0.3909 0.77418 0.87215 0.0
H781 H 0.35867 0.75244 0.88686 0.0
H782 H 0.46405 0.78768 0.01763 0.0
H783 H 0.43445 0.76171 0.03176 0.0
H784 H 0.49103 0.79312 0.97872 0.0
H785 H 0.48758 0.80474 0.93925 0.0
C786 C 0.27414 0.41745 0.93955 0.0
C787 C 0.29005 0.42268 0.97017 0.0
C788 C 0.26456 0.47335 0.97373 0.0
C789 C 0.24417 0.46448 0.94632 0.0
N790 N 0.22632 0.42502 0.90619 0.0
N791 N 0.29922 0.45574 0.01769 0.0
C792 C 0.24826 0.43576 0.92991 0.0
C793 C 0.28527 0.45087 0.98758 0.0
N794 N 0.28377 0.39466 0.91977 0.0
N795 N 0.26503 0.50356 0.98578 0.0
H796 H 0.3158 0.44107 0.02814 0.0
H797 H 0.29306 0.47358 0.03293 0.0
H798 H 0.25153 0.52102 0.97517 0.0
H799 H 0.2812 0.51223 1.00416 0.0
H800 H 0.27468 0.39149 0.89614 0.0
H801 H 0.30331 0.38144 0.92604 0.0
H802 H 0.22664 0.40275 0.89531 0.0
H803 H 0.20584 0.43677 0.89994 0.0
C804 C 0.62765 0.23979 0.91576 0.0
C805 C 0.59619 0.22782 0.92162 0.0
C806 C 0.60319 0.25468 0.9745 0.0
C807 C 0.63184 0.27139 0.96599 0.0
N808 N 0.67087 0.2803 0.92725 0.0
N809 N 0.55336 0.22566 0.95686 0.0
C810 C 0.64426 0.26361 0.93651 0.0
C811 C 0.58403 0.23525 0.95137 0.0
N812 N 0.64176 0.22809 0.89026 0.0
N813 N 0.59435 0.25731 1.00505 0.0
H814 H 0.53874 0.21105 0.94116 0.0
H815 H 0.54168 0.23386 0.97603 0.0
H816 H 0.60798 0.27088 0.02247 0.0
H817 H 0.57556 0.24358 0.01395 0.0
H818 H 0.66553 0.23341 0.88603 0.0
H819 H 0.63046 0.21041 0.87515 0.0
H820 H 0.67891 0.27875 0.90442 0.0
H821 H 0.68393 0.29726 0.94185 0.0
C822 C 0.80364 0.67051 0.94008 0.0
C823 C 0.77695 0.65839 0.95596 0.0
C824 C 0.79637 0.60485 0.95436 0.0
C825 C 0.82043 0.61612 0.93469 0.0
N826 N 0.84682 0.65898 0.90717 0.0
N827 N 0.74471 0.61321 0.97312 0.0
C828 C 0.82428 0.64891 0.92735 0.0
C829 C 0.77262 0.62534 0.96212 0.0
N830 N 0.80899 0.70267 0.93726 0.0
N831 N 0.79635 0.57445 0.96553 0.0
H832 H 0.72604 0.62738 0.97698 0.0
H833 H 0.73889 0.5889 0.97528 0.0
H834 H 0.81348 0.55897 0.95982 0.0
H835 H 0.78125 0.56569 0.98254 0.0
H836 H 0.82933 0.71351 0.92823 0.0
H837 H 0.79388 0.71864 0.94628 0.0
H838 H 0.84903 0.68198 0.89819 0.0
H839 H 0.86235 0.64356 0.898 0.0
C840 C 0.08693 0.43436 0.32218 0.0
C841 C 0.0975 0.40404 0.33133 0.0
C842 C 0.14704 0.41673 0.30416 0.0
C843 C 0.137 0.44735 0.29587 0.0
N844 N 0.10018 0.48761 0.30211 0.0
N845 N 0.14062 0.36946 0.33694 0.0
C846 C 0.10772 0.45681 0.30647 0.0
C847 C 0.12857 0.39632 0.32414 0.0
N848 N 0.05649 0.44119 0.32718 0.0
N849 N 0.1735 0.40646 0.29145 0.0
H850 H 0.12794 0.35439 0.35196 0.0
H851 H 0.16408 0.36378 0.33532 0.0
H852 H 0.18702 0.42047 0.27626 0.0
H853 H 0.18046 0.38325 0.29357 0.0
H854 H 0.04584 0.46104 0.31777 0.0
H855 H 0.04122 0.42594 0.33946 0.0
H856 H 0.08081 0.49723 0.31173 0.0
H857 H 0.11493 0.50435 0.29095 0.0
C858 C 0.11858 0.65386 0.80478 0.0
C859 C 0.11096 0.6223 0.8148 0.0
C860 C 0.06 0.62154 0.78249 0.0
C861 C 0.06637 0.65411 0.77463 0.0
N862 N 0.10045 0.70226 0.77996 0.0
N863 N 0.07345 0.5771 0.81663 0.0
C864 C 0.09542 0.67053 0.78616 0.0
C865 C 0.08141 0.60638 0.80446 0.0
N866 N 0.14838 0.66747 0.81262 0.0
N867 N 0.03392 0.60483 0.7682 0.0
H868 H 0.08882 0.56538 0.83243 0.0
H869 H 0.05097 0.5654 0.813 0.0
H870 H 0.01771 0.61506 0.75212 0.0
H871 H 0.02961 0.5803 0.7702 0.0
H872 H 0.15695 0.68924 0.80387 0.0
H873 H 0.16551 0.65568 0.82627 0.0
H874 H 0.11954 0.71658 0.79019 0.0
H875 H 0.08429 0.71488 0.76593 0.0
C876 C 0.42036 0.08383 0.77946 0.0
C877 C 0.39437 0.07598 0.79834 0.0
C878 C 0.4232 0.10542 0.84392 0.0
C879 C 0.44958 0.11225 0.82515 0.0
N880 N 0.47616 0.10094 0.77796 0.0
N881 N 0.37291 0.07462 0.84977 0.0
C882 C 0.44902 0.09894 0.79393 0.0
C883 C 0.39649 0.08528 0.83106 0.0
N884 N 0.41696 0.0789 0.74715 0.0
N885 N 0.42294 0.11947 0.87328 0.0
H886 H 0.35319 0.0603 0.84065 0.0
H887 H 0.37398 0.07792 0.87444 0.0
H888 H 0.44234 0.13344 0.88354 0.0
H889 H 0.40309 0.1186 0.88673 0.0
H890 H 0.43383 0.08715 0.73164 0.0
H891 H 0.39592 0.06949 0.73528 0.0
H892 H 0.47849 0.08895 0.75657 0.0
H893 H 0.49734 0.11214 0.78791 0.0
C894 C 0.96621 0.47249 0.80548 0.0
C895 C 0.93289 0.46536 0.80217 0.0
C896 C 0.93712 0.44449 0.74795 0.0
C897 C 0.97029 0.45246 0.75087 0.0
N898 N 0.01661 0.4764 0.78021 0.0
N899 N 0.8856 0.44924 0.76927 0.0
C900 C 0.98489 0.46726 0.77908 0.0
C901 C 0.91804 0.45269 0.77305 0.0
N902 N 0.97979 0.48363 0.83421 0.0
N903 N 0.92421 0.42793 0.72159 0.0
H904 H 0.87104 0.45462 0.78736 0.0
H905 H 0.87297 0.44333 0.74764 0.0
H906 H 0.93762 0.42216 0.70267 0.0
H907 H 0.90085 0.41819 0.71921 0.0
H908 H 1.00418 0.48722 0.83958 0.0
H909 H 0.96632 0.48786 0.85355 0.0
H910 H 0.02883 0.48927 0.79895 0.0
H911 H 0.03054 0.47253 0.76114 0.0
C912 C 0.65089 0.91825 0.7935 0.0
C913 C 0.65246 0.92353 0.76022 0.0
C914 C 0.60372 0.88835 0.75007 0.0
C915 C 0.60403 0.88066 0.78298 0.0
N916 N 0.63181 0.88341 0.83507 0.0
N917 N 0.63408 0.90801 0.70642 0.0
C918 C 0.62876 0.89428 0.80446 0.0
C919 C 0.62984 0.90703 0.73836 0.0
N920 N 0.66974 0.93703 0.81472 0.0
N921 N 0.57786 0.8788 0.73018 0.0
H922 H 0.6536 0.92025 0.6972 0.0
H923 H 0.62013 0.89408 0.68954 0.0
H924 H 0.55809 0.86583 0.73819 0.0
H925 H 0.57475 0.88631 0.7066 0.0
H926 H 0.6676 0.93646 0.8393 0.0
H927 H 0.6854 0.95537 0.80746 0.0
H928 H 0.65105 0.89022 0.85108 0.0
H929 H 0.61675 0.86512 0.84341 0.0
C930 C 0.93266 0.62357 0.2586 0.0
C931 C 0.93435 0.62179 0.29277 0.0
C932 C 0.90435 0.56941 0.28648 0.0
C933 C 0.89649 0.57503 0.25333 0.0
N934 N 0.90179 0.61068 0.20879 0.0
N935 N 0.9187 0.59249 0.33909 0.0
C936 C 0.91056 0.60282 0.23954 0.0
C937 C 0.91967 0.59434 0.30669 0.0
N938 N 0.95305 0.64447 0.24406 0.0
N939 N 0.89784 0.53981 0.29862 0.0
H940 H 0.92911 0.6101 0.3547 0.0
H941 H 0.90524 0.57471 0.35026 0.0
H942 H 0.8883 0.52068 0.28435 0.0
H943 H 0.90538 0.53339 0.32175 0.0
H944 H 0.9549 0.64483 0.21941 0.0
H945 H 0.97092 0.65846 0.25682 0.0
H946 H 0.90855 0.63257 0.19891 0.0
H947 H 0.88567 0.59665 0.19397 0.0
C948 C 0.46115 0.93308 0.30049 0.0
C949 C 0.43643 0.95427 0.29777 0.0
C950 C 0.43892 0.95371 0.23955 0.0
C951 C 0.46118 0.92995 0.24222 0.0
N952 N 0.48429 0.88942 0.27522 0.0
N953 N 0.39454 0.97535 0.26344 0.0
C954 C 0.46955 0.91727 0.27274 0.0
C955 C 0.4231 0.96193 0.2669 0.0
N956 N 0.4775 0.92892 0.32922 0.0
N957 N 0.43369 0.96933 0.21144 0.0
H958 H 0.38059 0.97862 0.28258 0.0
H959 H 0.38296 0.97922 0.24116 0.0
H960 H 0.44597 0.96505 0.19131 0.0
H961 H 0.41964 0.98878 0.20933 0.0
H962 H 0.49747 0.91558 0.33165 0.0
H963 H 0.47333 0.94162 0.34972 0.0
H964 H 0.48881 0.87814 0.297 0.0
H965 H 0.48819 0.8757 0.25527 0.0
C966 C 0.63771 0.07371 0.20996 0.0
C967 C 0.64556 0.08135 0.24266 0.0
C968 C 0.59778 0.11128 0.24339 0.0
C969 C 0.59203 0.10703 0.20986 0.0
N970 N 0.60991 0.08867 0.16023 0.0
N971 N 0.63711 0.11395 0.28823 0.0
C972 C 0.61301 0.08946 0.19282 0.0
C973 C 0.62675 0.10207 0.25873 0.0
N974 N 0.65295 0.05048 0.19567 0.0
N975 N 0.57485 0.12254 0.2609 0.0
H976 H 0.65909 0.10912 0.29941 0.0
H977 H 0.62559 0.13133 0.29983 0.0
H978 H 0.55254 0.12733 0.25066 0.0
H979 H 0.57663 0.12341 0.2858 0.0
H980 H 0.64621 0.04174 0.17276 0.0
H981 H 0.67034 0.03782 0.2079 0.0
H982 H 0.62627 0.07871 0.14633 0.0
H983 H 0.5926 0.10068 0.14709 0.0
C984 C 0.74915 0.95833 0.59458 0.0
C985 C 0.74259 0.94597 0.62519 0.0
C986 C 0.77796 0.90213 0.6141 0.0
C987 C 0.78798 0.91706 0.5858 0.0
N988 N 0.78749 0.96516 0.55436 0.0
N989 N 0.76026 0.91028 0.66706 0.0
C990 C 0.77478 0.9468 0.5776 0.0
C991 C 0.75934 0.91876 0.63561 0.0
N992 N 0.73048 0.98054 0.58092 0.0
N993 N 0.78725 0.87243 0.62142 0.0
H994 H 0.75102 0.92372 0.68467 0.0
H995 H 0.77423 0.89262 0.67653 0.0
H996 H 0.80161 0.86009 0.60712 0.0
H997 H 0.7782 0.85901 0.63997 0.0
H998 H 0.73223 0.98814 0.55744 0.0
H999 H 0.71095 0.98863 0.59164 0.0
H1000 H 0.78117 0.98829 0.54965 0.0
H1001 H 0.80664 0.95864 0.54214 0.0
C1002 C 0.11053 0.74078 0.5549 0.0
C1003 C 0.14266 0.74399 0.56785 0.0
C1004 C 0.12843 0.70846 0.61196 0.0
C1005 C 0.09609 0.70706 0.60011 0.0
N1006 N 0.05526 0.72497 0.5632 0.0
N1007 N 0.18153 0.73456 0.61068 0.0
C1008 C 0.08688 0.72409 0.57233 0.0
C1009 C 0.15143 0.72868 0.59692 0.0
N1010 N 0.10285 0.75271 0.52535 0.0
N1011 N 0.13708 0.68986 0.63728 0.0
H1012 H 0.19857 0.74951 0.60031 0.0
H1013 H 0.18894 0.72671 0.63331 0.0
H1014 H 0.12056 0.67526 0.64879 0.0
H1015 H 0.16057 0.68717 0.64548 0.0
H1016 H 0.08081 0.7482 0.51288 0.0
H1017 H 0.11935 0.76523 0.51208 0.0
H1018 H 0.04636 0.73964 0.54525 0.0
H1019 H 0.03759 0.71262 0.57533 0.0
C1020 C 0.25792 0.08921 0.60633 0.0
C1021 C 0.27411 0.11971 0.60365 0.0
C1022 C 0.32223 0.09717 0.63074 0.0
C1023 C 0.30689 0.066 0.63083 0.0
N1024 N 0.26205 0.0322 0.60783 0.0
N1025 N 0.32578 0.14822 0.60405 0.0
C1026 C 0.27541 0.06195 0.61528 0.0
C1027 C 0.30742 0.12243 0.61342 0.0
N1028 N 0.22553 0.08609 0.60171 0.0
N1029 N 0.35151 0.1028 0.64642 0.0
H1030 H 0.31699 0.16547 0.58866 0.0
H1031 H 0.35048 0.15024 0.6079 0.0
H1032 H 0.36422 0.08489 0.6573 0.0
H1033 H 0.36217 0.12567 0.65032 0.0
H1034 H 0.21224 0.06518 0.60676 0.0
H1035 H 0.21172 0.10519 0.5962 0.0
H1036 H 0.2406 0.0283 0.59409 0.0
H1037 H 0.27391 1.01158 0.61144 0.0
C1038 C 0.94828 0.2969 0.60187 0.0
C1039 C 0.92121 0.2861 0.61787 0.0
C1040 C 0.94617 0.30973 0.66811 0.0
C1041 C 0.97393 0.31896 0.6522 0.0
N1042 N 1.00445 0.31334 0.6063 0.0
N1043 N 0.89629 0.277 0.66702 0.0
C1044 C 0.97591 0.30983 0.61983 0.0
C1045 C 0.92079 0.29087 0.65134 0.0
N1046 N 0.9469 0.29665 0.56926 0.0
N1047 N 0.94331 0.32028 0.69853 0.0
H1048 H 0.87752 0.26336 0.65513 0.0
H1049 H 0.89584 0.27693 0.69181 0.0
H1050 H 0.96156 0.33354 0.71159 0.0
H1051 H 0.9223 0.31745 0.71012 0.0
H1052 H 0.96467 0.30747 0.55618 0.0
H1053 H 0.92654 0.28863 0.55528 0.0
H1054 H 1.00799 0.30453 0.58366 0.0
H1055 H 0.02534 0.32201 0.61911 0.0
C1056 C 0.72784 0.11771 0.42516 0.0
C1057 C 0.74434 0.09058 0.41771 0.0
C1058 C 0.79401 0.11777 0.44125 0.0
C1059 C 0.77705 0.14325 0.45212 0.0
N1060 N 0.72635 0.16413 0.45957 0.0
N1061 N 0.79189 0.06202 0.42669 0.0
C1062 C 0.74351 0.1424 0.44533 0.0
C1063 C 0.77704 0.08976 0.42822 0.0
N1064 N 0.69716 0.11988 0.41318 0.0
N1065 N 0.82642 0.12088 0.44183 0.0
H1066 H 0.77999 0.0407 0.41885 0.0
H1067 H 0.81489 0.05947 0.43665 0.0
H1068 H 0.83953 0.14186 0.44899 0.0
H1069 H 0.83986 0.10416 0.43158 0.0
H1070 H 0.68494 0.14045 0.41499 0.0
H1071 H 0.68471 0.10185 0.39939 0.0
H1072 H 0.70157 0.16305 0.45806 0.0
H1073 H 0.73682 0.18139 0.47558 0.0
C1074 C 0.89452 0.78251 0.40868 0.0
C1075 C 0.92479 0.76924 0.41322 0.0
C1076 C 0.92603 0.78627 0.47029 0.0
C1077 C 0.89841 0.80384 0.46452 0.0
N1078 N 0.85767 0.8202 0.42628 0.0
N1079 N 0.97109 0.76253 0.44889 0.0
C1080 C 0.88282 0.80204 0.43322 0.0
C1081 C 0.9408 0.7719 0.44432 0.0
N1082 N 0.87641 0.77567 0.38099 0.0
N1083 N 0.93801 0.78279 0.50109 0.0
H1084 H 0.98294 0.75233 0.43093 0.0
H1085 H 0.98554 0.76742 0.4697 0.0
H1086 H 0.92757 0.79225 0.52052 0.0
H1087 H 0.95598 0.76778 0.50758 0.0
H1088 H 0.853 0.78185 0.37698 0.0
H1089 H 0.88383 0.76092 0.3633 0.0
H1090 H 0.84764 0.8232 0.40319 0.0
H1091 H 0.84807 0.83391 0.44349 0.0
C1092 C 0.31081 0.95171 0.43028 0.0
C1093 C 0.29923 0.96628 0.4014 0.0
C1094 C 0.25366 0.92577 0.39805 0.0
C1095 C 0.26383 0.91347 0.42832 0.0
N1096 N 0.29995 0.91691 0.475 0.0
N1097 N 0.25787 0.96862 0.3592 0.0
C1098 C 0.29183 0.92714 0.44485 0.0
C1099 C 0.27024 0.9535 0.38551 0.0
N1100 N 0.34077 0.96046 0.4432 0.0
N1101 N 0.2283 0.9105 0.38115 0.0
H1102 H 0.26957 0.98843 0.3493 0.0
H1103 H 0.23532 0.96282 0.34831 0.0
H1104 H 0.21547 0.89094 0.39027 0.0
H1105 H 0.22122 0.91582 0.35762 0.0
H1106 H 0.35201 0.94859 0.46207 0.0
H1107 H 0.3558 0.97769 0.43316 0.0
H1108 H 0.31778 0.92824 0.49021 0.0
H1109 H 0.28704 0.89846 0.48584 0.0
C1110 C 0.16897 0.23667 0.44157 0.0
C1111 C 0.15907 0.22631 0.47186 0.0
C1112 C 0.10429 0.24006 0.45416 0.0
C1113 C 0.11521 0.25406 0.42574 0.0
N1114 N 0.15913 0.26909 0.3944 0.0
N1115 N 0.11727 0.22117 0.50807 0.0
C1116 C 0.14787 0.25302 0.41994 0.0
C1117 C 0.1266 0.2286 0.47833 0.0
N1118 N 0.19864 0.23033 0.43324 0.0
N1119 N 0.07235 0.23686 0.45758 0.0
H1120 H 0.13252 0.21188 0.52576 0.0
H1121 H 0.09513 0.22597 0.51574 0.0
H1122 H 0.05575 0.24458 0.4402 0.0
H1123 H 0.06227 0.22421 0.47606 0.0
H1124 H 0.20649 0.23438 0.41052 0.0
H1125 H 0.21434 0.21802 0.44816 0.0
H1126 H 0.18319 0.27231 0.39043 0.0
H1127 H 0.14454 0.28174 0.37866 0.0
C1128 C 0.57544 0.75133 0.96783 0.0
C1129 C 0.60895 0.75779 0.97206 0.0
C1130 C 0.60361 0.8021 0.93299 0.0
C1131 C 0.57051 0.79376 0.92669 0.0
N1132 N 0.52738 0.75414 0.93306 0.0
N1133 N 0.65557 0.78632 0.95403 0.0
C1134 C 0.55718 0.7666 0.94276 0.0
C1135 C 0.62315 0.78235 0.95323 0.0
N1136 N 0.56072 0.7306 0.98794 0.0
N1137 N 0.61652 0.82901 0.91952 0.0
H1138 H 0.6704 0.77248 0.96829 0.0
H1139 H 0.66777 0.80142 0.93878 0.0
H1140 H 0.6031 0.84346 0.90445 0.0
H1141 H 0.63962 0.83845 0.92535 0.0
H1142 H 0.53608 0.72782 0.98872 0.0
H1143 H 0.57324 0.71784 1.00537 0.0
H1144 H 0.51774 0.73247 0.94117 0.0
H1145 H 0.51318 0.76419 0.91504 0.0
C1146 C 0.32528 0.57266 0.9424 0.0
C1147 C 0.33698 0.60509 0.94426 0.0
C1148 C 0.29746 0.61789 0.90112 0.0
C1149 C 0.28562 0.5856 0.89962 0.0
N1150 N 0.2963 0.53115 0.90976 0.0
N1151 N 0.3414 0.65567 0.91812 0.0
C1152 C 0.30239 0.56259 0.9172 0.0
C1153 C 0.32531 0.62681 0.92121 0.0
N1154 N 0.33426 0.55191 0.96573 0.0
N1155 N 0.28149 0.64016 0.88414 0.0
H1156 H 0.36244 0.66209 0.93185 0.0
H1157 H 0.33587 0.67142 0.89978 0.0
H1158 H 0.26203 0.63394 0.86807 0.0
H1159 H 0.28674 0.66458 0.88704 0.0
H1160 H 0.32459 0.52856 0.96679 0.0
H1161 H 0.34922 0.55873 0.9857 0.0
H1162 H 0.30891 0.51308 0.92044 0.0
H1163 H 0.28158 0.52396 0.88974 0.0
C1164 C 0.39428 0.24668 0.94048 0.0
C1165 C 0.39068 0.28016 0.94172 0.0
C1166 C 0.43736 0.28719 0.90853 0.0
C1167 C 0.43797 0.25366 0.90356 0.0
N1168 N 0.41177 0.20191 0.91093 0.0
N1169 N 0.40629 0.33172 0.92112 0.0
C1170 C 0.41506 0.23352 0.91866 0.0
C1171 C 0.41171 0.30026 0.92426 0.0
N1172 N 0.37866 0.22732 0.9611 0.0
N1173 N 0.46202 0.30672 0.89914 0.0
H1174 H 0.38719 0.34179 0.93084 0.0
H1175 H 0.4187 0.34698 0.90614 0.0
H1176 H 0.4816 0.29797 0.88901 0.0
H1177 H 0.46469 0.33096 0.90462 0.0
H1178 H 0.38242 0.20322 0.9636 0.0
H1179 H 0.36468 0.23617 0.97821 0.0
H1180 H 0.39352 0.18655 0.91861 0.0
H1181 H 0.42521 0.19176 0.89416 0.0
C1182 C 0.7388 0.41962 0.91172 0.0
C1183 C 0.72441 0.43353 0.93756 0.0
C1184 C 0.75299 0.48487 0.92658 0.0
C1185 C 0.77058 0.47009 0.90366 0.0
N1186 N 0.78168 0.42252 0.87564 0.0
N1187 N 0.72151 0.47832 0.97267 0.0
C1188 C 0.76366 0.43723 0.89633 0.0
C1189 C 0.73235 0.46597 0.94564 0.0
N1190 N 0.7281 0.38974 0.90151 0.0
N1191 N 0.75553 0.51727 0.92963 0.0
H1192 H 0.70722 0.4649 0.98764 0.0
H1193 H 0.72912 0.50078 0.98185 0.0
H1194 H 0.76985 0.53171 0.91552 0.0
H1195 H 0.74104 0.52984 0.94353 0.0
H1196 H 0.73522 0.37908 0.88099 0.0
H1197 H 0.71 0.37658 0.9123 0.0
H1198 H 0.7805 0.39798 0.87201 0.0
H1199 H 0.79917 0.43486 0.86328 0.0
C1200 C 0.5651 0.30462 0.10863 0.0
C1201 C 0.59888 0.30553 0.10948 0.0
C1202 C 0.59783 0.26033 0.14702 0.0
C1203 C 0.56416 0.26036 0.14704 0.0
N1204 N 0.51708 0.28817 0.1346 0.0
N1205 N 0.64755 0.28939 0.13585 0.0
C1206 C 0.54832 0.2845 0.13012 0.0
C1207 C 0.6153 0.28485 0.13061 0.0
N1208 N 0.5488 0.32135 0.0858 0.0
N1209 N 0.61308 0.23637 0.16208 0.0
H1210 H 0.6607 0.30779 0.12519 0.0
H1211 H 0.66076 0.27706 0.15303 0.0
H1212 H 0.60123 0.2192 0.17562 0.0
H1213 H 0.63697 0.23267 0.15983 0.0
H1214 H 0.52411 0.31941 0.08201 0.0
H1215 H 0.56006 0.33465 0.06843 0.0
H1216 H 0.50481 0.30713 0.12534 0.0
H1217 H 0.50453 0.27404 0.15045 0.0
C1218 C 0.76771 0.60844 0.11106 0.0
C1219 C 0.74933 0.59295 0.13429 0.0
C1220 C 0.70238 0.61987 0.11016 0.0
C1221 C 0.72003 0.63194 0.08453 0.0
N1222 N 0.76872 0.62939 0.05758 0.0
N1223 N 0.69687 0.57956 0.15138 0.0
C1224 C 0.75239 0.62367 0.08411 0.0
C1225 C 0.71602 0.59772 0.1327 0.0
N1226 N 0.80011 0.61022 0.11539 0.0
N1227 N 0.67228 0.62909 0.1128 0.0
H1228 H 0.70552 0.56193 0.16637 0.0
H1229 H 0.67215 0.57951 0.14945 0.0
H1230 H 0.66131 0.64409 0.09633 0.0
H1231 H 0.65929 0.6239 0.13257 0.0
H1232 H 0.81473 0.62377 0.10086 0.0
H1233 H 0.81217 0.60151 0.1357 0.0
H1234 H 0.791 0.62089 0.05475 0.0
H1235 H 0.75868 0.6394 0.03705 0.0
C1236 C 0.50414 0.75132 0.10255 0.0
C1237 C 0.47631 0.73853 0.11612 0.0
C1238 C 0.4834 0.78008 0.15819 0.0
C1239 C 0.5119 0.79233 0.14512 0.0
N1240 N 0.5531 0.78509 0.10935 0.0
N1241 N 0.44265 0.73645 0.15992 0.0
C1242 C 0.52341 0.77638 0.11871 0.0
C1243 C 0.46701 0.75161 0.14499 0.0
N1244 N 0.51127 0.74049 0.07333 0.0
N1245 N 0.47094 0.79659 0.18193 0.0
H1246 H 0.43028 0.71583 0.15055 0.0
H1247 H 0.43646 0.7427 0.1826 0.0
H1248 H 0.48235 0.8171 0.19249 0.0
H1249 H 0.44842 0.79109 0.18985 0.0
H1250 H 0.52922 0.75104 0.06032 0.0
H1251 H 0.4974 0.72248 0.06083 0.0
H1252 H 0.56416 0.77278 0.09213 0.0
H1253 H 0.56798 0.80286 0.12111 0.0
C1254 C 0.22967 0.43243 0.08552 0.0
C1255 C 0.24154 0.40394 0.09859 0.0
C1256 C 0.21898 0.41738 0.14985 0.0
C1257 C 0.21023 0.44762 0.13809 0.0
N1258 N 0.20925 0.48451 0.09444 0.0
N1259 N 0.25037 0.37125 0.14457 0.0
C1260 C 0.21591 0.45514 0.10569 0.0
C1261 C 0.23672 0.39696 0.13111 0.0
N1262 N 0.23084 0.43733 0.05346 0.0
N1263 N 0.20943 0.4077 0.17895 0.0
H1264 H 0.26357 0.35623 0.13168 0.0
H1265 H 0.25103 0.36635 0.16891 0.0
H1266 H 0.19587 0.42149 0.19279 0.0
H1267 H 0.21209 0.38494 0.18793 0.0
H1268 H 0.22024 0.45582 0.04131 0.0
H1269 H 0.24065 0.4213 0.03854 0.0
H1270 H 0.21611 0.49332 0.07263 0.0
H1271 H 0.19812 0.50086 0.10785 0.0
C1272 C 0.87774 0.61397 0.77387 0.0
C1273 C 0.8747 0.58039 0.77801 0.0
C1274 C 0.91063 0.57392 0.73491 0.0
C1275 C 0.91373 0.6074 0.7309 0.0
N1276 N 0.89422 0.65853 0.74064 0.0
N1277 N 0.88063 0.52836 0.75572 0.0
C1278 C 0.89535 0.62719 0.74861 0.0
C1279 C 0.88853 0.56034 0.7562 0.0
N1280 N 0.86428 0.63326 0.79465 0.0
N1281 N 0.93023 0.55519 0.71978 0.0
H1282 H 0.86409 0.51772 0.77032 0.0
H1283 H 0.88782 0.51295 0.73855 0.0
H1284 H 0.947 0.56446 0.70458 0.0
H1285 H 0.93186 0.53104 0.72443 0.0
H1286 H 0.8688 0.65787 0.79572 0.0
H1287 H 0.84932 0.62431 0.81177 0.0
H1288 H 0.8792 0.67391 0.75055 0.0
H1289 H 0.90635 0.66843 0.72184 0.0
C1290 C 0.90682 0.40692 0.25028 0.0
C1291 C 0.88936 0.42571 0.27024 0.0
C1292 C 0.91733 0.40176 0.31745 0.0
C1293 C 0.93679 0.38519 0.29749 0.0
N1294 N 0.95413 0.37789 0.24474 0.0
N1295 N 0.88331 0.44568 0.32306 0.0
C1296 C 0.93264 0.38955 0.26383 0.0
C1297 C 0.89622 0.42443 0.30392 0.0
N1298 N 0.89773 0.40431 0.21846 0.0
N1299 N 0.91769 0.39468 0.34918 0.0
H1300 H 0.8687 0.463 0.31388 0.0
H1301 H 0.88964 0.4482 0.34743 0.0
H1302 H 0.93171 0.37751 0.35959 0.0
H1303 H 0.90185 0.4035 0.36444 0.0
H1304 H 0.90734 0.38856 0.20315 0.0
H1305 H 0.87835 0.41552 0.20803 0.0
H1306 H 0.95438 0.38273 0.22042 0.0
H1307 H 0.97371 0.36614 0.25395 0.0
C1308 C 0.65399 0.95988 0.28474 0.0
C1309 C 0.6369 0.97803 0.3053 0.0
C1310 C 0.58963 0.96792 0.26774 0.0
C1311 C 0.60489 0.9433 0.25248 0.0
N1312 N 0.65277 0.91609 0.24694 0.0
N1313 N 0.58804 1.00166 0.31464 0.0
C1314 C 0.63737 0.93917 0.26133 0.0
C1315 C 0.60458 0.98285 0.29606 0.0
N1316 N 0.68601 0.96509 0.28508 0.0
N1317 N 0.56139 0.97785 0.25487 0.0
H1318 H 0.59911 0.01538 0.33355 0.0
H1319 H 0.56342 1.00274 0.31201 0.0
H1320 H 0.54994 0.96846 0.23385 0.0
H1321 H 0.55085 0.99767 0.26319 0.0
H1322 H 0.69996 0.95447 0.26905 0.0
H1323 H 0.69729 0.98409 0.29808 0.0
H1324 H 0.67566 0.91034 0.25472 0.0
H1325 H 0.64187 0.90128 0.22882 0.0
C1326 C 0.1195 0.62122 0.24122 0.0
C1327 C 0.108 0.58883 0.23498 0.0
C1328 C 0.0556 0.60326 0.25297 0.0
C1329 C 0.0683 0.63454 0.26189 0.0
N1330 N 0.1141 0.67121 0.26913 0.0
N1331 N 0.06536 0.54851 0.2389 0.0
C1332 C 0.10068 0.64289 0.25702 0.0
C1333 C 0.07595 0.57982 0.2417 0.0
N1334 N 0.14852 0.63171 0.23143 0.0
N1335 N 0.02378 0.59613 0.2547 0.0
H1336 H 0.07921 0.53113 0.23041 0.0
H1337 H 0.04379 0.53944 0.24685 0.0
H1338 H 1.00877 0.61243 0.26323 0.0
H1339 H 1.01195 0.57517 0.24568 0.0
H1340 H 0.15672 0.65559 0.23155 0.0
H1341 H 0.16336 0.61697 0.22043 0.0
H1342 H 0.13841 0.67753 0.26999 0.0
H1343 H 0.1013 0.68721 0.28124 0.0
C1344 C 0.40957 0.13757 0.25476 0.0
C1345 C 0.44339 0.14086 0.25375 0.0
C1346 C 0.4476 0.10035 0.29592 0.0
C1347 C 0.41405 0.09889 0.29902 0.0
N1348 N 0.36388 0.12091 0.28456 0.0
N1349 N 0.49445 0.13051 0.27942 0.0
C1350 C 0.3952 0.11875 0.27918 0.0
C1351 C 0.46228 0.12401 0.27635 0.0
N1352 N 0.39104 0.15256 0.23228 0.0
N1353 N 0.46557 0.0779 0.31035 0.0
H1354 H 0.50613 0.14776 0.266 0.0
H1355 H 0.50908 0.12139 0.29773 0.0
H1356 H 0.45602 0.05929 0.32373 0.0
H1357 H 0.48931 0.07554 0.30606 0.0
H1358 H 0.36648 0.14804 0.22889 0.0
H1359 H 0.40051 0.16864 0.21601 0.0
H1360 H 0.34965 0.13749 0.27343 0.0
H1361 H 0.35265 0.10782 0.3021 0.0
C1362 C 0.14269 0.44277 0.75168 0.0
C1363 C 0.11496 0.42494 0.76057 0.0
C1364 C 0.12587 0.44652 0.8149 0.0
C1365 C 0.1479 0.4703 0.80363 0.0
N1366 N 0.17498 0.49216 0.7587 0.0
N1367 N 0.0787 0.41204 0.80156 0.0
C1368 C 0.15623 0.46846 0.77144 0.0
C1369 C 0.10634 0.42695 0.79259 0.0
N1370 N 0.15585 0.4353 0.72401 0.0
N1371 N 0.12407 0.44209 0.84698 0.0
H1372 H 0.06355 0.39742 0.78636 0.0
H1373 H 0.06971 0.41615 0.82363 0.0
H1374 H 0.13943 0.4545 0.86398 0.0
H1375 H 0.11019 0.42347 0.85639 0.0
H1376 H 0.17752 0.44576 0.71754 0.0
H1377 H 0.14682 0.41609 0.70953 0.0
H1378 H 0.17875 0.49326 0.73442 0.0
H1379 H 0.18424 0.51235 0.77138 0.0
C1380 C 0.63249 0.13187 0.7616 0.0
C1381 C 0.60107 0.12124 0.76902 0.0
C1382 C 0.61003 0.06883 0.74362 0.0
C1383 C 0.64088 0.08004 0.73482 0.0
N1384 N 0.6792 0.12446 0.73169 0.0
N1385 N 0.55854 0.08062 0.76238 0.0
C1386 C 0.65125 0.1123 0.74273 0.0
C1387 C 0.58957 0.08994 0.75867 0.0
N1388 N 0.64507 0.16036 0.77402 0.0
N1389 N 0.60058 0.03747 0.73854 0.0
H1390 H 0.54363 0.09511 0.77362 0.0
H1391 H 0.54709 0.05983 0.75253 0.0
H1392 H 0.61397 0.0221 0.7263 0.0
H1393 H 0.58045 0.02635 0.74772 0.0
H1394 H 0.66871 0.16862 0.77265 0.0
H1395 H 0.63244 0.17455 0.78838 0.0
H1396 H 0.68714 0.14837 0.73357 0.0
H1397 H 0.69315 0.11101 0.71792 0.0
C1398 C 0.42513 0.89838 0.77867 0.0
C1399 C 0.45369 0.90802 0.79755 0.0
C1400 C 0.44655 0.963 0.77775 0.0
C1401 C 0.42138 0.95211 0.75454 0.0
N1402 N 0.39167 0.90616 0.73028 0.0
N1403 N 0.49393 0.9502 0.81041 0.0
C1404 C 0.41195 0.91891 0.75448 0.0
C1405 C 0.46496 0.94057 0.79585 0.0
N1406 N 0.40988 0.86954 0.78435 0.0
N1407 N 0.45212 0.99481 0.7841 0.0
H1408 H 0.50792 0.93497 0.82388 0.0
H1409 H 0.50513 0.9726 0.80685 0.0
H1410 H 0.43839 1.01213 0.7737 0.0
H1411 H 0.46791 1.00372 0.8027 0.0
H1412 H 0.38753 0.86233 0.77363 0.0
H1413 H 0.41778 0.85456 0.80258 0.0
H1414 H 0.38646 0.88174 0.72733 0.0
H1415 H 0.38303 0.91942 0.71104 0.0
loop_
_geom_bond_atom_site_label_1
_geom_bond_atom_site_label_2
_geom_bond_distance
_geom_bond_site_symmetry_2
_ccdc_geom_bond_type
Cu0 N1 1.999 1_545 S
Cu0 O6 1.974 . S
Cu0 N11 1.985 . S
Cu0 O20 1.959 1_545 S
N1 Cu0 1.999 1_565 S
N1 C3 1.263 . S
N1 C5 1.389 . S
N2 C3 1.358 . S
N2 C4 1.400 . S
C3 N1 1.263 . S
C3 N2 1.358 . S
C3 H9 0.930 1_565 S
C4 N2 1.400 . S
C4 C5 1.351 . S
C4 H21 0.930 . S
C5 N1 1.389 . S
C5 C4 1.351 . S
C5 H10 0.930 . S
O6 Cu0 1.974 . S
O6 C16 1.282 . S
C7 O8 1.261 . S
C7 O20 1.251 . S
O8 C7 1.261 . S
H9 C3 0.930 1_545 S
H10 C5 0.930 . S
N11 Cu0 1.985 . S
N11 C13 1.335 . S
N11 C14 1.390 . S
N12 C13 1.345 . S
N12 C15 1.336 . S
C13 N11 1.335 . S
C13 N12 1.345 . S
C13 H18 0.930 . S
C14 N11 1.390 . S
C14 C15 1.346 . S
C14 H19 0.930 . S
C15 N12 1.336 . S
C15 C14 1.346 . S
C15 H22 0.929 . S
C16 O6 1.282 . S
C16 O17 1.216 . S
O17 C16 1.216 . S
H18 C13 0.930 . S
H19 C14 0.930 . S
O20 Cu0 1.959 1_565 S
O20 C7 1.251 . S
H21 C4 0.930 . S
H22 C15 0.929 . S
Cu23 N24 1.999 . S
Cu23 O29 1.974 1_455 S
Cu23 N34 1.985 1_455 S
Cu23 O43 1.959 . S
N24 Cu23 1.999 . S
N24 C26 1.263 . S
N24 C28 1.389 . S
N25 C26 1.358 . S
N25 C27 1.400 . S
C26 N24 1.263 . S
C26 N25 1.358 . S
C26 H32 0.930 . S
C27 N25 1.400 . S
C27 C28 1.351 . S
C27 H44 0.930 . S
C28 N24 1.389 . S
C28 C27 1.351 . S
C28 H33 0.930 . S
O29 Cu23 1.974 1_655 S
O29 C39 1.282 . S
C30 O31 1.261 . S
C30 O43 1.251 . S
O31 C30 1.261 . S
H32 C26 0.930 . S
H33 C28 0.930 . S
N34 Cu23 1.985 1_655 S
N34 C36 1.335 . S
N34 C37 1.390 . S
N35 C36 1.345 . S
N35 C38 1.336 . S
C36 N34 1.335 . S
C36 N35 1.345 . S
C36 H41 0.921 1_655 S
C37 N34 1.390 . S
C37 C38 1.346 . S
C37 H42 0.930 . S
C38 N35 1.336 . S
C38 C37 1.346 . S
C38 H45 0.929 . S
C39 O29 1.282 . S
C39 O40 1.216 . S
O40 C39 1.216 . S
H41 C36 0.921 1_455 S
H42 C37 0.930 . S
O43 Cu23 1.959 . S
O43 C30 1.251 . S
H44 C27 0.930 . S
H45 C38 0.929 . S
Cu46 N47 1.999 . S
Cu46 O52 1.974 1_545 S
Cu46 N57 1.985 1_545 S
Cu46 O66 1.959 . S
N47 Cu46 1.999 . S
N47 C49 1.263 . S
N47 C51 1.389 . S
N48 C49 1.358 . S
N48 C50 1.400 . S
C49 N47 1.263 . S
C49 N48 1.358 . S
C49 H55 0.930 . S
C50 N48 1.400 . S
C50 C51 1.351 . S
C50 H67 0.930 . S
C51 N47 1.389 . S
C51 C50 1.351 . S
C51 H56 0.930 . S
O52 Cu46 1.974 1_565 S
O52 C62 1.282 . S
C53 O54 1.261 . S
C53 O66 1.251 . S
O54 C53 1.261 . S
H55 C49 0.930 . S
H56 C51 0.930 . S
N57 Cu46 1.985 1_565 S
N57 C59 1.335 . S
N57 C60 1.390 . S
N58 C59 1.345 . S
N58 C61 1.336 . S
C59 N57 1.335 . S
C59 N58 1.345 . S
C59 H64 0.930 . S
C60 N57 1.390 . S
C60 C61 1.346 . S
C60 H65 0.930 . S
C61 N58 1.336 . S
C61 C60 1.346 . S
C61 H68 0.929 . S
C62 O52 1.282 . S
C62 O63 1.216 . S
O63 C62 1.216 . S
H64 C59 0.930 . S
H65 C60 0.930 . S
O66 Cu46 1.959 . S
O66 C53 1.251 . S
H67 C50 0.930 . S
H68 C61 0.929 . S
Cu69 N70 1.999 . S
Cu69 O75 1.974 1_455 S
Cu69 N80 1.985 1_455 S
Cu69 O89 1.959 . S
N70 Cu69 1.999 . S
N70 C72 1.263 . S
N70 C74 1.389 . S
N71 C72 1.358 . S
N71 C73 1.400 . S
C72 N70 1.263 . S
C72 N71 1.358 . S
C72 H78 0.930 . S
C73 N71 1.400 . S
C73 C74 1.351 . S
C73 H90 0.930 . S
C74 N70 1.389 . S
C74 C73 1.351 . S
C74 H79 0.930 . S
O75 Cu69 1.974 1_655 S
O75 C85 1.282 . S
C76 O77 1.261 . S
C76 O89 1.251 . S
O77 C76 1.261 . S
H78 C72 0.930 . S
H79 C74 0.930 . S
N80 Cu69 1.985 1_655 S
N80 C82 1.335 . S
N80 C83 1.390 . S
N81 C82 1.345 . S
N81 C84 1.336 . S
C82 N80 1.335 . S
C82 N81 1.345 . S
C82 H87 0.930 . S
C83 N80 1.390 . S
C83 C84 1.346 . S
C83 H88 0.930 . S
C84 N81 1.336 . S
C84 C83 1.346 . S
C84 H91 0.929 . S
C85 O75 1.282 . S
C85 O86 1.216 . S
O86 C85 1.216 . S
H87 C82 0.930 . S
H88 C83 0.930 . S
O89 Cu69 1.959 . S
O89 C76 1.251 . S
H90 C73 0.930 . S
H91 C84 0.929 . S
Cu92 N93 1.999 . S
Cu92 O98 1.974 1_545 S
Cu92 N103 1.985 1_545 S
Cu92 O112 1.959 . S
N93 Cu92 1.999 . S
N93 C95 1.263 . S
N93 C97 1.389 . S
N94 C95 1.358 . S
N94 C96 1.400 . S
C95 N93 1.263 . S
C95 N94 1.358 . S
C95 H101 0.930 . S
C96 N94 1.400 . S
C96 C97 1.351 . S
C96 H113 0.930 . S
C97 N93 1.389 . S
C97 C96 1.351 . S
C97 H102 0.930 . S
O98 Cu92 1.974 1_565 S
O98 C108 1.282 . S
C99 O100 1.261 . S
C99 O112 1.251 . S
O100 C99 1.261 . S
H101 C95 0.930 . S
H102 C97 0.930 . S
N103 Cu92 1.985 1_565 S
N103 C105 1.335 . S
N103 C106 1.390 . S
N104 C105 1.345 . S
N104 C107 1.336 . S
C105 N103 1.335 . S
C105 N104 1.345 . S
C105 H110 0.930 . S
C106 N103 1.390 . S
C106 C107 1.346 . S
C106 H111 0.930 . S
C107 N104 1.336 . S
C107 C106 1.346 . S
C107 H114 0.929 . S
C108 O98 1.282 . S
C108 O109 1.216 . S
O109 C108 1.216 . S
H110 C105 0.930 . S
H111 C106 0.930 . S
O112 Cu92 1.959 . S
O112 C99 1.251 . S
H113 C96 0.930 . S
H114 C107 0.929 . S
Cu115 N116 1.999 . S
Cu115 O121 1.974 1_455 S
Cu115 N126 1.985 1_455 S
Cu115 O135 1.959 . S
N116 Cu115 1.999 . S
N116 C118 1.263 . S
N116 C120 1.389 . S
N117 C118 1.358 . S
N117 C119 1.400 . S
C118 N116 1.263 . S
C118 N117 1.358 . S
C118 H124 0.930 . S
C119 N117 1.400 . S
C119 C120 1.351 . S
C119 H136 0.930 . S
C120 N116 1.389 . S
C120 C119 1.351 . S
C120 H125 0.930 . S
O121 Cu115 1.974 1_655 S
O121 C131 1.282 . S
C122 O123 1.261 . S
C122 O135 1.251 . S
O123 C122 1.261 . S
H124 C118 0.930 . S
H125 C120 0.930 . S
N126 Cu115 1.985 1_655 S
N126 C128 1.335 . S
N126 C129 1.390 . S
N127 C128 1.345 . S
N127 C130 1.336 . S
C128 N126 1.335 . S
C128 N127 1.345 . S
C128 H133 0.930 1_655 S
C129 N126 1.390 . S
C129 C130 1.346 . S
C129 H134 0.930 . S
C130 N127 1.336 . S
C130 C129 1.346 . S
C130 H137 0.929 . S
C131 O121 1.282 . S
C131 O132 1.216 . S
O132 C131 1.216 . S
H133 C128 0.930 1_455 S
H134 C129 0.930 . S
O135 Cu115 1.959 . S
O135 C122 1.251 . S
H136 C119 0.930 . S
H137 C130 0.929 . S
Cu138 N139 1.999 1_545 S
Cu138 O144 1.974 . S
Cu138 N149 1.985 . S
Cu138 O158 1.959 1_545 S
N139 Cu138 1.999 1_565 S
N139 C141 1.263 . S
N139 C143 1.389 . S
N140 C141 1.358 . S
N140 C142 1.400 . S
C141 N139 1.263 . S
C141 N140 1.358 . S
C141 H147 0.930 . S
C142 N140 1.400 . S
C142 C143 1.351 . S
C142 H159 0.930 . S
C143 N139 1.389 . S
C143 C142 1.351 . S
C143 H148 0.930 . S
O144 Cu138 1.974 . S
O144 C154 1.282 . S
C145 O146 1.261 . S
C145 O158 1.251 . S
O146 C145 1.261 . S
H147 C141 0.930 . S
H148 C143 0.930 . S
N149 Cu138 1.985 . S
N149 C151 1.335 . S
N149 C152 1.390 . S
N150 C151 1.345 . S
N150 C153 1.336 . S
C151 N149 1.335 . S
C151 N150 1.345 . S
C151 H156 0.930 . S
C152 N149 1.390 . S
C152 C153 1.346 . S
C152 H157 0.930 . S
C153 N150 1.336 . S
C153 C152 1.346 . S
C153 H160 0.929 . S
C154 O144 1.282 . S
C154 O155 1.216 . S
O155 C154 1.216 . S
H156 C151 0.930 . S
H157 C152 0.930 . S
O158 Cu138 1.959 1_565 S
O158 C145 1.251 . S
H159 C142 0.930 . S
H160 C153 0.929 . S
Cu161 N162 1.999 1_655 S
Cu161 O167 1.974 . S
Cu161 N172 1.985 . S
Cu161 O181 1.959 1_655 S
N162 Cu161 1.999 1_455 S
N162 C164 1.263 . S
N162 C166 1.389 . S
N163 C164 1.358 . S
N163 C165 1.400 . S
C164 N162 1.263 . S
C164 N163 1.358 . S
C164 H170 0.930 . S
C165 N163 1.400 . S
C165 C166 1.351 . S
C165 H182 0.930 . S
C166 N162 1.389 . S
C166 C165 1.351 . S
C166 H171 0.930 . S
O167 Cu161 1.974 . S
O167 C177 1.282 . S
C168 O169 1.261 . S
C168 O181 1.251 . S
O169 C168 1.261 . S
H170 C164 0.930 . S
H171 C166 0.930 . S
N172 Cu161 1.985 . S
N172 C174 1.335 . S
N172 C175 1.390 . S
N173 C174 1.345 . S
N173 C176 1.336 . S
C174 N172 1.335 . S
C174 N173 1.345 . S
C174 H179 0.930 . S
C175 N172 1.390 . S
C175 C176 1.346 . S
C175 H180 0.930 . S
C176 N173 1.336 . S
C176 C175 1.346 . S
C176 H183 0.929 . S
C177 O167 1.282 . S
C177 O178 1.216 . S
O178 C177 1.216 . S
H179 C174 0.930 . S
H180 C175 0.930 . S
O181 Cu161 1.959 1_455 S
O181 C168 1.251 . S
H182 C165 0.930 . S
H183 C176 0.929 . S
Cu184 N185 1.999 . S
Cu184 O190 1.974 1_554 S
Cu184 N195 1.985 1_554 S
Cu184 O204 1.959 . S
N185 Cu184 1.999 . S
N185 C187 1.263 . S
N185 C189 1.389 . S
N186 C187 1.358 . S
N186 C188 1.400 . S
C187 N185 1.263 . S
C187 N186 1.358 . S
C187 H193 0.930 . S
C188 N186 1.400 . S
C188 C189 1.351 . S
C188 H205 0.930 . S
C189 N185 1.389 . S
C189 C188 1.351 . S
C189 H194 0.930 . S
O190 Cu184 1.974 1_556 S
O190 C200 1.282 . S
C191 O192 1.261 . S
C191 O204 1.251 . S
O192 C191 1.261 . S
H193 C187 0.930 . S
H194 C189 0.930 . S
N195 Cu184 1.985 1_556 S
N195 C197 1.335 . S
N195 C198 1.390 . S
N196 C197 1.345 . S
N196 C199 1.336 . S
C197 N195 1.335 . S
C197 N196 1.345 . S
C197 H202 0.930 1_556 S
C198 N195 1.390 . S
C198 C199 1.346 . S
C198 H203 0.930 . S
C199 N196 1.336 . S
C199 C198 1.346 . S
C199 H206 0.929 . S
C200 O190 1.282 . S
C200 O201 1.216 . S
O201 C200 1.216 . S
H202 C197 0.930 1_554 S
H203 C198 0.930 . S
O204 Cu184 1.959 . S
O204 C191 1.251 . S
H205 C188 0.930 . S
H206 C199 0.929 . S
Cu207 N208 1.999 1_554 S
Cu207 O213 1.974 . S
Cu207 N218 1.985 . S
Cu207 O227 1.959 1_554 S
N208 Cu207 1.999 1_556 S
N208 C210 1.263 . S
N208 C212 1.389 . S
N209 C210 1.358 . S
N209 C211 1.400 . S
C210 N208 1.263 . S
C210 N209 1.358 . S
C210 H216 0.930 . S
C211 N209 1.400 . S
C211 C212 1.351 . S
C211 H228 0.930 . S
C212 N208 1.389 . S
C212 C211 1.351 . S
C212 H217 0.930 . S
O213 Cu207 1.974 . S
O213 C223 1.282 . S
C214 O215 1.261 . S
C214 O227 1.251 . S
O215 C214 1.261 . S
H216 C210 0.930 . S
H217 C212 0.930 . S
N218 Cu207 1.985 . S
N218 C220 1.335 . S
N218 C221 1.390 . S
N219 C220 1.345 . S
N219 C222 1.336 . S
C220 N218 1.335 . S
C220 N219 1.345 . S
C220 H225 0.930 . S
C221 N218 1.390 . S
C221 C222 1.346 . S
C221 H226 0.930 . S
C222 N219 1.336 . S
C222 C221 1.346 . S
C222 H229 0.929 . S
C223 O213 1.282 . S
C223 O224 1.216 . S
O224 C223 1.216 . S
H225 C220 0.930 . S
H226 C221 0.930 . S
O227 Cu207 1.959 1_556 S
O227 C214 1.251 . S
H228 C211 0.930 . S
H229 C222 0.929 . S
Cu230 N231 1.982 1_556 S
Cu230 O236 1.988 . S
Cu230 N241 2.002 . S
Cu230 O250 1.945 1_556 S
N231 Cu230 1.982 1_554 S
N231 C233 1.263 . S
N231 C235 1.389 . S
N232 C233 1.358 . S
N232 C234 1.400 . S
C233 N231 1.263 . S
C233 N232 1.358 . S
C233 H239 0.930 . S
C234 N232 1.400 . S
C234 C235 1.351 . S
C234 H251 0.930 . S
C235 N231 1.389 . S
C235 C234 1.351 . S
C235 H240 0.930 . S
O236 Cu230 1.988 . S
O236 C246 1.282 . S
C237 O238 1.261 . S
C237 O250 1.251 . S
O238 C237 1.261 . S
H239 C233 0.930 . S
H240 C235 0.930 . S
N241 Cu230 2.002 . S
N241 C243 1.335 . S
N241 C244 1.390 . S
N242 C243 1.345 . S
N242 C245 1.336 . S
C243 N241 1.335 . S
C243 N242 1.345 . S
C243 H248 0.930 . S
C244 N241 1.390 . S
C244 C245 1.346 . S
C244 H249 0.930 . S
C245 N242 1.336 . S
C245 C244 1.346 . S
C245 H252 0.929 . S
C246 O236 1.282 . S
C246 O247 1.216 . S
O247 C246 1.216 . S
H248 C243 0.930 . S
H249 C244 0.930 . S
O250 Cu230 1.945 1_554 S
O250 C237 1.251 . S
H251 C234 0.930 . S
H252 C245 0.929 . S
Cu253 N254 1.999 1_554 S
Cu253 O259 1.974 . S
Cu253 N264 1.985 . S
Cu253 O273 1.959 1_554 S
N254 Cu253 1.999 1_556 S
N254 C256 1.263 . S
N254 C258 1.389 . S
N255 C256 1.358 . S
N255 C257 1.400 . S
C256 N254 1.263 . S
C256 N255 1.358 . S
C256 H262 0.930 . S
C257 N255 1.400 . S
C257 C258 1.351 . S
C257 H274 0.930 . S
C258 N254 1.389 . S
C258 C257 1.351 . S
C258 H263 0.930 . S
O259 Cu253 1.974 . S
O259 C269 1.282 . S
C260 O261 1.261 . S
C260 O273 1.251 . S
O261 C260 1.261 . S
H262 C256 0.930 . S
H263 C258 0.930 . S
N264 Cu253 1.985 . S
N264 C266 1.335 . S
N264 C267 1.390 . S
N265 C266 1.345 . S
N265 C268 1.336 . S
C266 N264 1.335 . S
C266 N265 1.345 . S
C266 H271 0.930 . S
C267 N264 1.390 . S
C267 C268 1.346 . S
C267 H272 0.930 . S
C268 N265 1.336 . S
C268 C267 1.346 . S
C268 H275 0.929 . S
C269 O259 1.282 . S
C269 O270 1.216 . S
O270 C269 1.216 . S
H271 C266 0.930 . S
H272 C267 0.930 . S
O273 Cu253 1.959 1_556 S
O273 C260 1.251 . S
H274 C257 0.930 . S
H275 C268 0.929 . S
Cu276 N277 1.999 . S
Cu276 O282 1.974 . S
Cu276 N287 1.985 . S
Cu276 O296 1.959 . S
N277 Cu276 1.999 . S
N277 C279 1.263 . S
N277 C281 1.389 . S
N278 C279 1.358 . S
N278 C280 1.400 . S
C279 N277 1.263 . S
C279 N278 1.358 . S
C279 H285 0.930 . S
C280 N278 1.400 . S
C280 C281 1.351 . S
C280 H297 0.930 . S
C281 N277 1.389 . S
C281 C280 1.351 . S
C281 H286 0.930 . S
O282 Cu276 1.974 . S
O282 C292 1.282 . S
C283 O284 1.261 . S
C283 O296 1.251 . S
O284 C283 1.261 . S
H285 C279 0.930 . S
H286 C281 0.930 . S
N287 Cu276 1.985 . S
N287 C289 1.335 . S
N287 C290 1.390 . S
N288 C289 1.345 . S
N288 C291 1.336 . S
C289 N287 1.335 . S
C289 N288 1.345 . S
C289 H294 0.930 . S
C290 N287 1.390 . S
C290 C291 1.346 . S
C290 H295 0.930 . S
C291 N288 1.336 . S
C291 C290 1.346 . S
C291 H298 0.929 . S
C292 O282 1.282 . S
C292 O293 1.216 . S
O293 C292 1.216 . S
H294 C289 0.930 . S
H295 C290 0.930 . S
O296 Cu276 1.959 . S
O296 C283 1.251 . S
H297 C280 0.930 . S
H298 C291 0.929 . S
Cu299 N300 1.999 . S
Cu299 O305 1.974 . S
Cu299 N310 1.985 . S
Cu299 O319 1.959 . S
N300 Cu299 1.999 . S
N300 C302 1.263 . S
N300 C304 1.389 . S
N301 C302 1.358 . S
N301 C303 1.400 . S
C302 N300 1.263 . S
C302 N301 1.358 . S
C302 H308 0.930 . S
C303 N301 1.400 . S
C303 C304 1.351 . S
C303 H320 0.930 . S
C304 N300 1.389 . S
C304 C303 1.351 . S
C304 H309 0.930 . S
O305 Cu299 1.974 . S
O305 C315 1.282 . S
C306 O307 1.261 . S
C306 O319 1.251 . S
O307 C306 1.261 . S
H308 C302 0.930 . S
H309 C304 0.930 . S
N310 Cu299 1.985 . S
N310 C312 1.335 . S
N310 C313 1.390 . S
N311 C312 1.345 . S
N311 C314 1.336 . S
C312 N310 1.335 . S
C312 N311 1.345 . S
C312 H317 0.930 . S
C313 N310 1.390 . S
C313 C314 1.346 . S
C313 H318 0.930 . S
C314 N311 1.336 . S
C314 C313 1.346 . S
C314 H321 0.929 . S
C315 O305 1.282 . S
C315 O316 1.216 . S
O316 C315 1.216 . S
H317 C312 0.930 . S
H318 C313 0.930 . S
O319 Cu299 1.959 . S
O319 C306 1.251 . S
H320 C303 0.930 . S
H321 C314 0.929 . S
Cu322 N323 1.999 . S
Cu322 O328 1.974 . S
Cu322 N333 1.985 . S
Cu322 O342 1.959 . S
N323 Cu322 1.999 . S
N323 C325 1.263 . S
N323 C327 1.389 . S
N324 C325 1.358 . S
N324 C326 1.400 . S
C325 N323 1.263 . S
C325 N324 1.358 . S
C325 H331 0.930 . S
C326 N324 1.400 . S
C326 C327 1.351 . S
C326 H343 0.930 . S
C327 N323 1.389 . S
C327 C326 1.351 . S
C327 H332 0.930 . S
O328 Cu322 1.974 . S
O328 C338 1.282 . S
C329 O330 1.261 . S
C329 O342 1.251 . S
O330 C329 1.261 . S
H331 C325 0.930 . S
H332 C327 0.930 . S
N333 Cu322 1.985 . S
N333 C335 1.335 . S
N333 C336 1.390 . S
N334 C335 1.345 . S
N334 C337 1.336 . S
C335 N333 1.335 . S
C335 N334 1.345 . S
C335 H340 0.930 . S
C336 N333 1.390 . S
C336 C337 1.346 . S
C336 H341 0.930 . S
C337 N334 1.336 . S
C337 C336 1.346 . S
C337 H344 0.929 . S
C338 O328 1.282 . S
C338 O339 1.216 . S
O339 C338 1.216 . S
H340 C335 0.930 . S
H341 C336 0.930 . S
O342 Cu322 1.959 . S
O342 C329 1.251 . S
H343 C326 0.930 . S
H344 C337 0.929 . S
Cu345 N346 1.999 . S
Cu345 O351 1.974 . S
Cu345 N356 1.985 . S
Cu345 O365 1.959 . S
N346 Cu345 1.999 . S
N346 C348 1.263 . S
N346 C350 1.389 . S
N347 C348 1.358 . S
N347 C349 1.400 . S
C348 N346 1.263 . S
C348 N347 1.358 . S
C348 H354 0.930 . S
C349 N347 1.400 . S
C349 C350 1.351 . S
C349 H366 0.930 . S
C350 N346 1.389 . S
C350 C349 1.351 . S
C350 H355 0.930 . S
O351 Cu345 1.974 . S
O351 C361 1.282 . S
C352 O353 1.261 . S
C352 O365 1.251 . S
O353 C352 1.261 . S
H354 C348 0.930 . S
H355 C350 0.930 . S
N356 Cu345 1.985 . S
N356 C358 1.335 . S
N356 C359 1.390 . S
N357 C358 1.345 . S
N357 C360 1.336 . S
C358 N356 1.335 . S
C358 N357 1.345 . S
C358 H363 0.930 . S
C359 N356 1.390 . S
C359 C360 1.346 . S
C359 H364 0.930 . S
C360 N357 1.336 . S
C360 C359 1.346 . S
C360 H367 0.929 . S
C361 O351 1.282 . S
C361 O362 1.216 . S
O362 C361 1.216 . S
H363 C358 0.930 . S
H364 C359 0.930 . S
O365 Cu345 1.959 . S
O365 C352 1.251 . S
H366 C349 0.930 . S
H367 C360 0.929 . S
Cu368 N369 1.999 . S
Cu368 O374 1.974 . S
Cu368 N379 1.985 . S
Cu368 O388 1.959 . S
N369 Cu368 1.999 . S
N369 C371 1.263 . S
N369 C373 1.389 . S
N370 C371 1.358 . S
N370 C372 1.400 . S
C371 N369 1.263 . S
C371 N370 1.358 . S
C371 H377 0.930 . S
C372 N370 1.400 . S
C372 C373 1.351 . S
C372 H389 0.930 . S
C373 N369 1.389 . S
C373 C372 1.351 . S
C373 H378 0.930 . S
O374 Cu368 1.974 . S
O374 C384 1.282 . S
C375 O376 1.261 . S
C375 O388 1.251 . S
O376 C375 1.261 . S
H377 C371 0.930 . S
H378 C373 0.930 . S
N379 Cu368 1.985 . S
N379 C381 1.335 . S
N379 C382 1.390 . S
N380 C381 1.345 . S
N380 C383 1.336 . S
C381 N379 1.335 . S
C381 N380 1.345 . S
C381 H386 0.930 . S
C382 N379 1.390 . S
C382 C383 1.346 . S
C382 H387 0.930 . S
C383 N380 1.336 . S
C383 C382 1.346 . S
C383 H390 0.929 . S
C384 O374 1.282 . S
C384 O385 1.216 . S
O385 C384 1.216 . S
H386 C381 0.930 . S
H387 C382 0.930 . S
O388 Cu368 1.959 . S
O388 C375 1.251 . S
H389 C372 0.930 . S
H390 C383 0.929 . S
Cu391 N392 1.999 . S
Cu391 O397 1.974 . S
Cu391 N402 1.985 . S
Cu391 O411 1.959 . S
N392 Cu391 1.999 . S
N392 C394 1.263 . S
N392 C396 1.389 . S
N393 C394 1.358 . S
N393 C395 1.400 . S
C394 N392 1.263 . S
C394 N393 1.358 . S
C394 H400 0.930 . S
C395 N393 1.400 . S
C395 C396 1.351 . S
C395 H412 0.930 . S
C396 N392 1.389 . S
C396 C395 1.351 . S
C396 H401 0.930 . S
O397 Cu391 1.974 . S
O397 C407 1.282 . S
C398 O399 1.261 . S
C398 O411 1.251 . S
O399 C398 1.261 . S
H400 C394 0.930 . S
H401 C396 0.930 . S
N402 Cu391 1.985 . S
N402 C404 1.335 . S
N402 C405 1.390 . S
N403 C404 1.345 . S
N403 C406 1.336 . S
C404 N402 1.335 . S
C404 N403 1.345 . S
C404 H409 0.930 . S
C405 N402 1.390 . S
C405 C406 1.346 . S
C405 H410 0.930 . S
C406 N403 1.336 . S
C406 C405 1.346 . S
C406 H413 0.929 . S
C407 O397 1.282 . S
C407 O408 1.216 . S
O408 C407 1.216 . S
H409 C404 0.930 . S
H410 C405 0.930 . S
O411 Cu391 1.959 . S
O411 C398 1.251 . S
H412 C395 0.930 . S
H413 C406 0.929 . S
Cu414 N415 1.999 . S
Cu414 O420 1.974 . S
Cu414 N425 1.985 . S
Cu414 O434 1.959 . S
N415 Cu414 1.999 . S
N415 C417 1.263 . S
N415 C419 1.389 . S
N416 C417 1.358 . S
N416 C418 1.400 . S
C417 N415 1.263 . S
C417 N416 1.358 . S
C417 H423 0.930 . S
C418 N416 1.400 . S
C418 C419 1.351 . S
C418 H435 0.930 . S
C419 N415 1.389 . S
C419 C418 1.351 . S
C419 H424 0.930 . S
O420 Cu414 1.974 . S
O420 C430 1.282 . S
C421 O422 1.261 . S
C421 O434 1.251 . S
O422 C421 1.261 . S
H423 C417 0.930 . S
H424 C419 0.930 . S
N425 Cu414 1.985 . S
N425 C427 1.335 . S
N425 C428 1.390 . S
N426 C427 1.345 . S
N426 C429 1.336 . S
C427 N425 1.335 . S
C427 N426 1.345 . S
C427 H432 0.930 . S
C428 N425 1.390 . S
C428 C429 1.346 . S
C428 H433 0.930 . S
C429 N426 1.336 . S
C429 C428 1.346 . S
C429 H436 0.929 . S
C430 O420 1.282 . S
C430 O431 1.216 . S
O431 C430 1.216 . S
H432 C427 0.930 . S
H433 C428 0.930 . S
O434 Cu414 1.959 . S
O434 C421 1.251 . S
H435 C418 0.930 . S
H436 C429 0.929 . S
Cu437 N438 1.999 . S
Cu437 O443 1.974 . S
Cu437 N448 1.985 . S
Cu437 O457 1.959 . S
N438 Cu437 1.999 . S
N438 C440 1.263 . S
N438 C442 1.389 . S
N439 C440 1.358 . S
N439 C441 1.400 . S
C440 N438 1.263 . S
C440 N439 1.358 . S
C440 H446 0.930 . S
C441 N439 1.400 . S
C441 C442 1.351 . S
C441 H458 0.930 . S
C442 N438 1.389 . S
C442 C441 1.351 . S
C442 H447 0.930 . S
O443 Cu437 1.974 . S
O443 C453 1.282 . S
C444 O445 1.261 . S
C444 O457 1.251 . S
O445 C444 1.261 . S
H446 C440 0.930 . S
H447 C442 0.930 . S
N448 Cu437 1.985 . S
N448 C450 1.335 . S
N448 C451 1.390 . S
N449 C450 1.345 . S
N449 C452 1.336 . S
C450 N448 1.335 . S
C450 N449 1.345 . S
C450 H455 0.930 . S
C451 N448 1.390 . S
C451 C452 1.346 . S
C451 H456 0.930 . S
C452 N449 1.336 . S
C452 C451 1.346 . S
C452 H459 0.929 . S
C453 O443 1.282 . S
C453 O454 1.216 . S
O454 C453 1.216 . S
H455 C450 0.930 . S
H456 C451 0.930 . S
O457 Cu437 1.959 . S
O457 C444 1.251 . S
H458 C441 0.930 . S
H459 C452 0.929 . S
Cu460 N461 1.999 . S
Cu460 O466 1.974 . S
Cu460 N471 1.985 . S
Cu460 O480 1.959 . S
N461 Cu460 1.999 . S
N461 C463 1.263 . S
N461 C465 1.389 . S
N462 C463 1.358 . S
N462 C464 1.400 . S
C463 N461 1.263 . S
C463 N462 1.358 . S
C463 H469 0.930 . S
C464 N462 1.400 . S
C464 C465 1.351 . S
C464 H481 0.930 . S
C465 N461 1.389 . S
C465 C464 1.351 . S
C465 H470 0.930 . S
O466 Cu460 1.974 . S
O466 C476 1.282 . S
C467 O468 1.261 . S
C467 O480 1.251 . S
O468 C467 1.261 . S
H469 C463 0.930 . S
H470 C465 0.930 . S
N471 Cu460 1.985 . S
N471 C473 1.335 . S
N471 C474 1.390 . S
N472 C473 1.345 . S
N472 C475 1.336 . S
C473 N471 1.335 . S
C473 N472 1.345 . S
C473 H478 0.930 . S
C474 N471 1.390 . S
C474 C475 1.346 . S
C474 H479 0.930 . S
C475 N472 1.336 . S
C475 C474 1.346 . S
C475 H482 0.929 . S
C476 O466 1.282 . S
C476 O477 1.216 . S
O477 C476 1.216 . S
H478 C473 0.930 . S
H479 C474 0.930 . S
O480 Cu460 1.959 . S
O480 C467 1.251 . S
H481 C464 0.930 . S
H482 C475 0.929 . S
Cu483 N484 1.999 . S
Cu483 O489 1.974 . S
Cu483 N494 1.985 . S
Cu483 O503 1.959 . S
N484 Cu483 1.999 . S
N484 C486 1.263 . S
N484 C488 1.389 . S
N485 C486 1.358 . S
N485 C487 1.400 . S
C486 N484 1.263 . S
C486 N485 1.358 . S
C486 H492 0.930 . S
C487 N485 1.400 . S
C487 C488 1.351 . S
C487 H504 0.930 . S
C488 N484 1.389 . S
C488 C487 1.351 . S
C488 H493 0.930 . S
O489 Cu483 1.974 . S
O489 C499 1.282 . S
C490 O491 1.261 . S
C490 O503 1.251 . S
O491 C490 1.261 . S
H492 C486 0.930 . S
H493 C488 0.930 . S
N494 Cu483 1.985 . S
N494 C496 1.335 . S
N494 C497 1.390 . S
N495 C496 1.345 . S
N495 C498 1.336 . S
C496 N494 1.335 . S
C496 N495 1.345 . S
C496 H501 0.930 . S
C497 N494 1.390 . S
C497 C498 1.346 . S
C497 H502 0.930 . S
C498 N495 1.336 . S
C498 C497 1.346 . S
C498 H505 0.929 . S
C499 O489 1.282 . S
C499 O500 1.216 . S
O500 C499 1.216 . S
H501 C496 0.930 . S
H502 C497 0.930 . S
O503 Cu483 1.959 . S
O503 C490 1.251 . S
H504 C487 0.930 . S
H505 C498 0.929 . S
Cu506 N507 1.999 . S
Cu506 O512 1.974 . S
Cu506 N517 1.985 . S
Cu506 O526 1.959 . S
N507 Cu506 1.999 . S
N507 C509 1.263 . S
N507 C511 1.389 . S
N508 C509 1.358 . S
N508 C510 1.400 . S
C509 N507 1.263 . S
C509 N508 1.358 . S
C509 H515 0.930 . S
C510 N508 1.400 . S
C510 C511 1.351 . S
C510 H527 0.930 . S
C511 N507 1.389 . S
C511 C510 1.351 . S
C511 H516 0.930 . S
O512 Cu506 1.974 . S
O512 C522 1.282 . S
C513 O514 1.261 . S
C513 O526 1.251 . S
O514 C513 1.261 . S
H515 C509 0.930 . S
H516 C511 0.930 . S
N517 Cu506 1.985 . S
N517 C519 1.335 . S
N517 C520 1.390 . S
N518 C519 1.345 . S
N518 C521 1.336 . S
C519 N517 1.335 . S
C519 N518 1.345 . S
C519 H524 0.930 . S
C520 N517 1.390 . S
C520 C521 1.346 . S
C520 H525 0.930 . S
C521 N518 1.336 . S
C521 C520 1.346 . S
C521 H528 0.929 . S
C522 O512 1.282 . S
C522 O523 1.216 . S
O523 C522 1.216 . S
H524 C519 0.930 . S
H525 C520 0.930 . S
O526 Cu506 1.959 . S
O526 C513 1.251 . S
H527 C510 0.930 . S
H528 C521 0.929 . S
Cu529 N530 1.999 . S
Cu529 O535 1.974 . S
Cu529 N540 1.985 . S
Cu529 O549 1.959 . S
N530 Cu529 1.999 . S
N530 C532 1.263 . S
N530 C534 1.389 . S
N531 C532 1.358 . S
N531 C533 1.400 . S
C532 N530 1.263 . S
C532 N531 1.358 . S
C532 H538 0.930 . S
C533 N531 1.400 . S
C533 C534 1.351 . S
C533 H550 0.930 . S
C534 N530 1.389 . S
C534 C533 1.351 . S
C534 H539 0.930 . S
O535 Cu529 1.974 . S
O535 C545 1.282 . S
C536 O537 1.261 . S
C536 O549 1.251 . S
O537 C536 1.261 . S
H538 C532 0.930 . S
H539 C534 0.930 . S
N540 Cu529 1.985 . S
N540 C542 1.335 . S
N540 C543 1.390 . S
N541 C542 1.345 . S
N541 C544 1.336 . S
C542 N540 1.335 . S
C542 N541 1.345 . S
C542 H547 0.930 . S
C543 N540 1.390 . S
C543 C544 1.346 . S
C543 H548 0.930 . S
C544 N541 1.336 . S
C544 C543 1.346 . S
C544 H551 0.929 . S
C545 O535 1.282 . S
C545 O546 1.216 . S
O546 C545 1.216 . S
H547 C542 0.930 . S
H548 C543 0.930 . S
O549 Cu529 1.959 . S
O549 C536 1.251 . S
H550 C533 0.930 . S
H551 C544 0.929 . S
C552 C553 1.363 . S
C552 C558 1.379 . S
C552 N560 1.356 . S
C553 C552 1.363 . S
C553 C559 1.363 . S
C554 C555 1.363 . S
C554 C559 1.379 . S
C554 N561 1.356 . S
C555 C554 1.363 . S
C555 C558 1.363 . S
N556 C558 1.356 . S
N556 H568 0.984 . S
N556 H569 0.985 . S
N557 C559 1.356 . S
N557 H562 0.984 . S
N557 H563 0.985 . S
C558 C552 1.379 . S
C558 C555 1.363 . S
C558 N556 1.356 . S
C559 C553 1.363 . S
C559 C554 1.379 . S
C559 N557 1.356 . S
N560 C552 1.356 . S
N560 H566 0.984 . S
N560 H567 0.984 . S
N561 C554 1.356 . S
N561 H564 0.984 . S
N561 H565 0.985 . S
H562 N557 0.984 . S
H563 N557 0.985 . S
H564 N561 0.984 . S
H565 N561 0.985 . S
H566 N560 0.984 . S
H567 N560 0.984 . S
H568 N556 0.984 . S
H569 N556 0.985 . S
C570 C571 1.363 . S
C570 C576 1.379 . S
C570 N578 1.356 . S
C571 C570 1.363 . S
C571 C577 1.363 . S
C572 C573 1.363 . S
C572 C577 1.379 . S
C572 N579 1.356 . S
C573 C572 1.363 . S
C573 C576 1.363 . S
N574 C576 1.356 . S
N574 H586 0.984 . S
N574 H587 0.985 . S
N575 C577 1.356 . S
N575 H580 0.984 1_655 S
N575 H581 0.981 1_655 S
C576 C570 1.379 . S
C576 C573 1.363 . S
C576 N574 1.356 . S
C577 C571 1.363 . S
C577 C572 1.379 . S
C577 N575 1.356 . S
N578 C570 1.356 . S
N578 H584 0.984 . S
N578 H585 0.984 . S
N579 C572 1.356 . S
N579 H582 0.984 . S
N579 H583 0.985 . S
H580 N575 0.984 1_455 S
H581 N575 0.981 1_455 S
H582 N579 0.984 . S
H583 N579 0.985 . S
H584 N578 0.984 . S
H585 N578 0.984 . S
H586 N574 0.984 . S
H587 N574 0.985 . S
C588 C589 1.363 . S
C588 C594 1.379 . S
C588 N596 1.356 . S
C589 C588 1.363 . S
C589 C595 1.363 . S
C590 C591 1.363 . S
C590 C595 1.379 . S
C590 N597 1.356 . S
C591 C590 1.363 . S
C591 C594 1.363 . S
N592 C594 1.356 . S
N592 H604 0.984 . S
N592 H605 0.985 . S
N593 C595 1.356 . S
N593 H598 0.984 . S
N593 H599 0.985 . S
C594 C588 1.379 . S
C594 C591 1.363 . S
C594 N592 1.356 . S
C595 C589 1.363 . S
C595 C590 1.379 . S
C595 N593 1.356 . S
N596 C588 1.356 . S
N596 H602 0.984 . S
N596 H603 0.984 . S
N597 C590 1.356 . S
N597 H600 0.984 . S
N597 H601 0.985 . S
H598 N593 0.984 . S
H599 N593 0.985 . S
H600 N597 0.984 . S
H601 N597 0.985 . S
H602 N596 0.984 . S
H603 N596 0.984 . S
H604 N592 0.984 . S
H605 N592 0.985 . S
C606 C607 1.363 . S
C606 C612 1.379 . S
C606 N614 1.356 . S
C607 C606 1.363 . S
C607 C613 1.363 . S
C608 C609 1.363 . S
C608 C613 1.379 . S
C608 N615 1.356 . S
C609 C608 1.363 . S
C609 C612 1.363 . S
N610 C612 1.356 . S
N610 H622 0.984 . S
N610 H623 0.985 . S
N611 C613 1.356 . S
N611 H616 0.984 . S
N611 H617 0.985 . S
C612 C606 1.379 . S
C612 C609 1.363 . S
C612 N610 1.356 . S
C613 C607 1.363 . S
C613 C608 1.379 . S
C613 N611 1.356 . S
N614 C606 1.356 . S
N614 H620 0.984 . S
N614 H621 0.984 . S
N615 C608 1.356 . S
N615 H618 0.984 . S
N615 H619 0.985 . S
H616 N611 0.984 . S
H617 N611 0.985 . S
H618 N615 0.984 . S
H619 N615 0.985 . S
H620 N614 0.984 . S
H621 N614 0.984 . S
H622 N610 0.984 . S
H623 N610 0.985 . S
C624 C625 1.363 . S
C624 C630 1.379 . S
C624 N632 1.356 . S
C625 C624 1.363 . S
C625 C631 1.363 . S
C626 C627 1.363 . S
C626 C631 1.379 . S
C626 N633 1.356 . S
C627 C626 1.363 . S
C627 C630 1.363 . S
N628 C630 1.356 . S
N628 H640 0.984 . S
N628 H641 0.985 . S
N629 C631 1.356 . S
N629 H634 0.984 . S
N629 H635 0.985 . S
C630 C624 1.379 . S
C630 C627 1.363 . S
C630 N628 1.356 . S
C631 C625 1.363 . S
C631 C626 1.379 . S
C631 N629 1.356 . S
N632 C624 1.356 . S
N632 H638 0.984 . S
N632 H639 0.984 . S
N633 C626 1.356 . S
N633 H636 0.984 . S
N633 H637 0.985 . S
H634 N629 0.984 . S
H635 N629 0.985 . S
H636 N633 0.984 . S
H637 N633 0.985 . S
H638 N632 0.984 . S
H639 N632 0.984 . S
H640 N628 0.984 . S
H641 N628 0.985 . S
C642 C643 1.363 . S
C642 C648 1.379 . S
C642 N650 1.356 . S
C643 C642 1.363 . S
C643 C649 1.363 . S
C644 C645 1.363 . S
C644 C649 1.379 . S
C644 N651 1.356 . S
C645 C644 1.363 . S
C645 C648 1.363 . S
N646 C648 1.356 . S
N646 H658 0.984 . S
N646 H659 0.985 . S
N647 C649 1.356 . S
N647 H652 0.984 . S
N647 H653 0.985 . S
C648 C642 1.379 . S
C648 C645 1.363 . S
C648 N646 1.356 . S
C649 C643 1.363 . S
C649 C644 1.379 . S
C649 N647 1.356 . S
N650 C642 1.356 . S
N650 H656 0.984 . S
N650 H657 0.984 . S
N651 C644 1.356 . S
N651 H654 0.984 . S
N651 H655 0.985 . S
H652 N647 0.984 . S
H653 N647 0.985 . S
H654 N651 0.984 . S
H655 N651 0.985 . S
H656 N650 0.984 . S
H657 N650 0.984 . S
H658 N646 0.984 . S
H659 N646 0.985 . S
C660 C661 1.363 . S
C660 C666 1.379 . S
C660 N668 1.356 . S
C661 C660 1.363 . S
C661 C667 1.363 . S
C662 C663 1.363 . S
C662 C667 1.379 . S
C662 N669 1.356 . S
C663 C662 1.363 . S
C663 C666 1.363 . S
N664 C666 1.356 . S
N664 H676 0.984 . S
N664 H677 0.985 . S
N665 C667 1.356 . S
N665 H670 0.984 . S
N665 H671 0.985 . S
C666 C660 1.379 . S
C666 C663 1.363 . S
C666 N664 1.356 . S
C667 C661 1.363 . S
C667 C662 1.379 . S
C667 N665 1.356 . S
N668 C660 1.356 . S
N668 H674 0.984 . S
N668 H675 0.984 . S
N669 C662 1.356 . S
N669 H672 0.984 . S
N669 H673 0.985 . S
H670 N665 0.984 . S
H671 N665 0.985 . S
H672 N669 0.984 . S
H673 N669 0.985 . S
H674 N668 0.984 . S
H675 N668 0.984 . S
H676 N664 0.984 . S
H677 N664 0.985 . S
C678 C679 1.363 . S
C678 C684 1.379 . S
C678 N686 1.356 . S
C679 C678 1.363 . S
C679 C685 1.363 . S
C680 C681 1.363 . S
C680 C685 1.379 . S
C680 N687 1.356 . S
C681 C680 1.363 . S
C681 C684 1.363 . S
N682 C684 1.356 . S
N682 H694 0.984 . S
N682 H695 0.985 . S
N683 C685 1.356 . S
N683 H688 0.984 . S
N683 H689 0.985 . S
C684 C678 1.379 . S
C684 C681 1.363 . S
C684 N682 1.356 . S
C685 C679 1.363 . S
C685 C680 1.379 . S
C685 N683 1.356 . S
N686 C678 1.356 . S
N686 H692 0.984 . S
N686 H693 0.984 . S
N687 C680 1.356 . S
N687 H690 0.984 . S
N687 H691 0.985 . S
H688 N683 0.984 . S
H689 N683 0.985 . S
H690 N687 0.984 . S
H691 N687 0.985 . S
H692 N686 0.984 . S
H693 N686 0.984 . S
H694 N682 0.984 . S
H695 N682 0.985 . S
C696 C697 1.363 . S
C696 C702 1.379 . S
C696 N704 1.356 . S
C697 C696 1.363 . S
C697 C703 1.363 . S
C698 C699 1.363 . S
C698 C703 1.379 . S
C698 N705 1.356 . S
C699 C698 1.363 . S
C699 C702 1.363 . S
N700 C702 1.356 . S
N700 H712 0.984 . S
N700 H713 0.985 . S
N701 C703 1.356 . S
N701 H706 0.984 . S
N701 H707 0.985 . S
C702 C696 1.379 . S
C702 C699 1.363 . S
C702 N700 1.356 . S
C703 C697 1.363 . S
C703 C698 1.379 . S
C703 N701 1.356 . S
N704 C696 1.356 . S
N704 H710 0.984 . S
N704 H711 0.984 . S
N705 C698 1.356 . S
N705 H708 0.984 . S
N705 H709 0.985 . S
H706 N701 0.984 . S
H707 N701 0.985 . S
H708 N705 0.984 . S
H709 N705 0.985 . S
H710 N704 0.984 . S
H711 N704 0.984 . S
H712 N700 0.984 . S
H713 N700 0.985 . S
C714 C715 1.363 . S
C714 C720 1.379 . S
C714 N722 1.356 . S
C715 C714 1.363 . S
C715 C721 1.363 . S
C716 C717 1.363 . S
C716 C721 1.379 . S
C716 N723 1.356 . S
C717 C716 1.363 . S
C717 C720 1.363 . S
N718 C720 1.356 . S
N718 H730 0.984 . S
N718 H731 0.985 . S
N719 C721 1.356 . S
N719 H724 0.984 . S
N719 H725 0.985 . S
C720 C714 1.379 . S
C720 C717 1.363 . S
C720 N718 1.356 . S
C721 C715 1.363 . S
C721 C716 1.379 . S
C721 N719 1.356 . S
N722 C714 1.356 . S
N722 H728 0.984 . S
N722 H729 0.984 . S
N723 C716 1.356 . S
N723 H726 0.984 . S
N723 H727 0.985 . S
H724 N719 0.984 . S
H725 N719 0.985 . S
H726 N723 0.984 . S
H727 N723 0.985 . S
H728 N722 0.984 . S
H729 N722 0.984 . S
H730 N718 0.984 . S
H731 N718 0.985 . S
C732 C733 1.363 . S
C732 C738 1.379 . S
C732 N740 1.356 . S
C733 C732 1.363 . S
C733 C739 1.363 . S
C734 C735 1.363 . S
C734 C739 1.379 . S
C734 N741 1.356 . S
C735 C734 1.363 . S
C735 C738 1.363 . S
N736 C738 1.356 . S
N736 H748 0.984 . S
N736 H749 0.985 . S
N737 C739 1.356 . S
N737 H742 0.984 . S
N737 H743 0.985 . S
C738 C732 1.379 . S
C738 C735 1.363 . S
C738 N736 1.356 . S
C739 C733 1.363 . S
C739 C734 1.379 . S
C739 N737 1.356 . S
N740 C732 1.356 . S
N740 H746 0.984 . S
N740 H747 0.984 . S
N741 C734 1.356 . S
N741 H744 0.984 . S
N741 H745 0.985 . S
H742 N737 0.984 . S
H743 N737 0.985 . S
H744 N741 0.984 . S
H745 N741 0.985 . S
H746 N740 0.984 . S
H747 N740 0.984 . S
H748 N736 0.984 . S
H749 N736 0.985 . S
C750 C751 1.363 . S
C750 C756 1.379 . S
C750 N758 1.356 . S
C751 C750 1.363 . S
C751 C757 1.363 . S
C752 C753 1.363 . S
C752 C757 1.379 . S
C752 N759 1.356 . S
C753 C752 1.363 . S
C753 C756 1.363 . S
N754 C756 1.356 . S
N754 H766 0.984 . S
N754 H767 0.985 . S
N755 C757 1.356 . S
N755 H760 0.984 . S
N755 H761 0.985 . S
C756 C750 1.379 . S
C756 C753 1.363 . S
C756 N754 1.356 . S
C757 C751 1.363 . S
C757 C752 1.379 . S
C757 N755 1.356 . S
N758 C750 1.356 . S
N758 H764 0.984 . S
N758 H765 0.984 . S
N759 C752 1.356 . S
N759 H762 0.984 . S
N759 H763 0.985 . S
H760 N755 0.984 . S
H761 N755 0.985 . S
H762 N759 0.984 . S
H763 N759 0.985 . S
H764 N758 0.984 . S
H765 N758 0.984 . S
H766 N754 0.984 . S
H767 N754 0.985 . S
C768 C769 1.363 . S
C768 C774 1.379 . S
C768 N776 1.356 . S
C769 C768 1.363 . S
C769 C775 1.363 . S
C770 C771 1.363 . S
C770 C775 1.379 . S
C770 N777 1.356 . S
C771 C770 1.363 . S
C771 C774 1.363 . S
N772 C774 1.356 . S
N772 H784 0.984 . S
N772 H785 0.985 . S
N773 C775 1.356 . S
N773 H778 0.984 . S
N773 H779 0.985 . S
C774 C768 1.379 . S
C774 C771 1.363 . S
C774 N772 1.356 . S
C775 C769 1.363 . S
C775 C770 1.379 . S
C775 N773 1.356 . S
N776 C768 1.356 . S
N776 H782 0.984 . S
N776 H783 0.984 . S
N777 C770 1.356 . S
N777 H780 0.984 . S
N777 H781 0.985 . S
H778 N773 0.984 . S
H779 N773 0.985 . S
H780 N777 0.984 . S
H781 N777 0.985 . S
H782 N776 0.984 . S
H783 N776 0.984 . S
H784 N772 0.984 . S
H785 N772 0.985 . S
C786 C787 1.363 . S
C786 C792 1.379 . S
C786 N794 1.356 . S
C787 C786 1.363 . S
C787 C793 1.363 . S
C788 C789 1.363 . S
C788 C793 1.379 . S
C788 N795 1.356 . S
C789 C788 1.363 . S
C789 C792 1.363 . S
N790 C792 1.356 . S
N790 H802 0.984 . S
N790 H803 0.985 . S
N791 C793 1.356 . S
N791 H796 0.984 . S
N791 H797 0.985 . S
C792 C786 1.379 . S
C792 C789 1.363 . S
C792 N790 1.356 . S
C793 C787 1.363 . S
C793 C788 1.379 . S
C793 N791 1.356 . S
N794 C786 1.356 . S
N794 H800 0.984 . S
N794 H801 0.984 . S
N795 C788 1.356 . S
N795 H798 0.984 . S
N795 H799 0.985 . S
H796 N791 0.984 . S
H797 N791 0.985 . S
H798 N795 0.984 . S
H799 N795 0.985 . S
H800 N794 0.984 . S
H801 N794 0.984 . S
H802 N790 0.984 . S
H803 N790 0.985 . S
C804 C805 1.363 . S
C804 C810 1.379 . S
C804 N812 1.356 . S
C805 C804 1.363 . S
C805 C811 1.363 . S
C806 C807 1.363 . S
C806 C811 1.379 . S
C806 N813 1.356 . S
C807 C806 1.363 . S
C807 C810 1.363 . S
N808 C810 1.356 . S
N808 H820 0.984 . S
N808 H821 0.985 . S
N809 C811 1.356 . S
N809 H814 0.984 . S
N809 H815 0.985 . S
C810 C804 1.379 . S
C810 C807 1.363 . S
C810 N808 1.356 . S
C811 C805 1.363 . S
C811 C806 1.379 . S
C811 N809 1.356 . S
N812 C804 1.356 . S
N812 H818 0.984 . S
N812 H819 0.984 . S
N813 C806 1.356 . S
N813 H816 0.984 . S
N813 H817 0.985 . S
H814 N809 0.984 . S
H815 N809 0.985 . S
H816 N813 0.984 . S
H817 N813 0.985 . S
H818 N812 0.984 . S
H819 N812 0.984 . S
H820 N808 0.984 . S
H821 N808 0.985 . S
C822 C823 1.363 . S
C822 C828 1.379 . S
C822 N830 1.356 . S
C823 C822 1.363 . S
C823 C829 1.363 . S
C824 C825 1.363 . S
C824 C829 1.379 . S
C824 N831 1.356 . S
C825 C824 1.363 . S
C825 C828 1.363 . S
N826 C828 1.356 . S
N826 H838 0.984 . S
N826 H839 0.985 . S
N827 C829 1.356 . S
N827 H832 0.984 . S
N827 H833 0.985 . S
C828 C822 1.379 . S
C828 C825 1.363 . S
C828 N826 1.356 . S
C829 C823 1.363 . S
C829 C824 1.379 . S
C829 N827 1.356 . S
N830 C822 1.356 . S
N830 H836 0.984 . S
N830 H837 0.984 . S
N831 C824 1.356 . S
N831 H834 0.984 . S
N831 H835 0.985 . S
H832 N827 0.984 . S
H833 N827 0.985 . S
H834 N831 0.984 . S
H835 N831 0.985 . S
H836 N830 0.984 . S
H837 N830 0.984 . S
H838 N826 0.984 . S
H839 N826 0.985 . S
C840 C841 1.363 . S
C840 C846 1.379 . S
C840 N848 1.356 . S
C841 C840 1.363 . S
C841 C847 1.363 . S
C842 C843 1.363 . S
C842 C847 1.379 . S
C842 N849 1.356 . S
C843 C842 1.363 . S
C843 C846 1.363 . S
N844 C846 1.356 . S
N844 H856 0.984 . S
N844 H857 0.985 . S
N845 C847 1.356 . S
N845 H850 0.984 . S
N845 H851 0.985 . S
C846 C840 1.379 . S
C846 C843 1.363 . S
C846 N844 1.356 . S
C847 C841 1.363 . S
C847 C842 1.379 . S
C847 N845 1.356 . S
N848 C840 1.356 . S
N848 H854 0.984 . S
N848 H855 0.984 . S
N849 C842 1.356 . S
N849 H852 0.984 . S
N849 H853 0.985 . S
H850 N845 0.984 . S
H851 N845 0.985 . S
H852 N849 0.984 . S
H853 N849 0.985 . S
H854 N848 0.984 . S
H855 N848 0.984 . S
H856 N844 0.984 . S
H857 N844 0.985 . S
C858 C859 1.363 . S
C858 C864 1.379 . S
C858 N866 1.356 . S
C859 C858 1.363 . S
C859 C865 1.363 . S
C860 C861 1.363 . S
C860 C865 1.379 . S
C860 N867 1.356 . S
C861 C860 1.363 . S
C861 C864 1.363 . S
N862 C864 1.356 . S
N862 H874 0.984 . S
N862 H875 0.985 . S
N863 C865 1.356 . S
N863 H868 0.984 . S
N863 H869 0.985 . S
C864 C858 1.379 . S
C864 C861 1.363 . S
C864 N862 1.356 . S
C865 C859 1.363 . S
C865 C860 1.379 . S
C865 N863 1.356 . S
N866 C858 1.356 . S
N866 H872 0.984 . S
N866 H873 0.984 . S
N867 C860 1.356 . S
N867 H870 0.984 . S
N867 H871 0.985 . S
H868 N863 0.984 . S
H869 N863 0.985 . S
H870 N867 0.984 . S
H871 N867 0.985 . S
H872 N866 0.984 . S
H873 N866 0.984 . S
H874 N862 0.984 . S
H875 N862 0.985 . S
C876 C877 1.363 . S
C876 C882 1.379 . S
C876 N884 1.356 . S
C877 C876 1.363 . S
C877 C883 1.363 . S
C878 C879 1.363 . S
C878 C883 1.379 . S
C878 N885 1.356 . S
C879 C878 1.363 . S
C879 C882 1.363 . S
N880 C882 1.356 . S
N880 H892 0.984 . S
N880 H893 0.985 . S
N881 C883 1.356 . S
N881 H886 0.984 . S
N881 H887 0.985 . S
C882 C876 1.379 . S
C882 C879 1.363 . S
C882 N880 1.356 . S
C883 C877 1.363 . S
C883 C878 1.379 . S
C883 N881 1.356 . S
N884 C876 1.356 . S
N884 H890 0.984 . S
N884 H891 0.984 . S
N885 C878 1.356 . S
N885 H888 0.984 . S
N885 H889 0.985 . S
H886 N881 0.984 . S
H887 N881 0.985 . S
H888 N885 0.984 . S
H889 N885 0.985 . S
H890 N884 0.984 . S
H891 N884 0.984 . S
H892 N880 0.984 . S
H893 N880 0.985 . S
C894 C895 1.363 . S
C894 C900 1.379 . S
C894 N902 1.356 . S
C895 C894 1.363 . S
C895 C901 1.363 . S
C896 C897 1.363 . S
C896 C901 1.379 . S
C896 N903 1.356 . S
C897 C896 1.363 . S
C897 C900 1.363 . S
N898 C900 1.356 . S
N898 H910 0.984 . S
N898 H911 0.985 . S
N899 C901 1.356 . S
N899 H904 0.984 . S
N899 H905 0.985 . S
C900 C894 1.379 . S
C900 C897 1.363 . S
C900 N898 1.356 . S
C901 C895 1.363 . S
C901 C896 1.379 . S
C901 N899 1.356 . S
N902 C894 1.356 . S
N902 H908 0.984 . S
N902 H909 0.984 . S
N903 C896 1.356 . S
N903 H906 0.984 . S
N903 H907 0.985 . S
H904 N899 0.984 . S
H905 N899 0.985 . S
H906 N903 0.984 . S
H907 N903 0.985 . S
H908 N902 0.984 . S
H909 N902 0.984 . S
H910 N898 0.984 . S
H911 N898 0.985 . S
C912 C913 1.363 . S
C912 C918 1.379 . S
C912 N920 1.356 . S
C913 C912 1.363 . S
C913 C919 1.363 . S
C914 C915 1.363 . S
C914 C919 1.379 . S
C914 N921 1.356 . S
C915 C914 1.363 . S
C915 C918 1.363 . S
N916 C918 1.356 . S
N916 H928 0.984 . S
N916 H929 0.985 . S
N917 C919 1.356 . S
N917 H922 0.984 . S
N917 H923 0.985 . S
C918 C912 1.379 . S
C918 C915 1.363 . S
C918 N916 1.356 . S
C919 C913 1.363 . S
C919 C914 1.379 . S
C919 N917 1.356 . S
N920 C912 1.356 . S
N920 H926 0.984 . S
N920 H927 0.984 . S
N921 C914 1.356 . S
N921 H924 0.984 . S
N921 H925 0.985 . S
H922 N917 0.984 . S
H923 N917 0.985 . S
H924 N921 0.984 . S
H925 N921 0.985 . S
H926 N920 0.984 . S
H927 N920 0.984 . S
H928 N916 0.984 . S
H929 N916 0.985 . S
C930 C931 1.363 . S
C930 C936 1.379 . S
C930 N938 1.356 . S
C931 C930 1.363 . S
C931 C937 1.363 . S
C932 C933 1.363 . S
C932 C937 1.379 . S
C932 N939 1.356 . S
C933 C932 1.363 . S
C933 C936 1.363 . S
N934 C936 1.356 . S
N934 H946 0.984 . S
N934 H947 0.985 . S
N935 C937 1.356 . S
N935 H940 0.984 . S
N935 H941 0.985 . S
C936 C930 1.379 . S
C936 C933 1.363 . S
C936 N934 1.356 . S
C937 C931 1.363 . S
C937 C932 1.379 . S
C937 N935 1.356 . S
N938 C930 1.356 . S
N938 H944 0.984 . S
N938 H945 0.984 . S
N939 C932 1.356 . S
N939 H942 0.984 . S
N939 H943 0.985 . S
H940 N935 0.984 . S
H941 N935 0.985 . S
H942 N939 0.984 . S
H943 N939 0.985 . S
H944 N938 0.984 . S
H945 N938 0.984 . S
H946 N934 0.984 . S
H947 N934 0.985 . S
C948 C949 1.363 . S
C948 C954 1.379 . S
C948 N956 1.356 . S
C949 C948 1.363 . S
C949 C955 1.363 . S
C950 C951 1.363 . S
C950 C955 1.379 . S
C950 N957 1.356 . S
C951 C950 1.363 . S
C951 C954 1.363 . S
N952 C954 1.356 . S
N952 H964 0.984 . S
N952 H965 0.985 . S
N953 C955 1.347 1_545 S
N953 H958 0.988 . S
N953 H959 0.990 . S
C954 C948 1.379 . S
C954 C951 1.363 . S
C954 N952 1.356 . S
C955 C949 1.363 . S
C955 C950 1.379 . S
C955 N953 1.347 1_565 S
N956 C948 1.356 . S
N956 H962 0.984 . S
N956 H963 0.984 . S
N957 C950 1.356 . S
N957 H960 0.984 . S
N957 H961 0.985 . S
H958 N953 0.988 . S
H959 N953 0.990 . S
H960 N957 0.984 . S
H961 N957 0.985 . S
H962 N956 0.984 . S
H963 N956 0.984 . S
H964 N952 0.984 . S
H965 N952 0.985 . S
C966 C967 1.363 . S
C966 C972 1.379 . S
C966 N974 1.356 . S
C967 C966 1.363 . S
C967 C973 1.363 . S
C968 C969 1.363 . S
C968 C973 1.379 . S
C968 N975 1.356 . S
C969 C968 1.363 . S
C969 C972 1.363 . S
N970 C972 1.356 . S
N970 H982 0.984 . S
N970 H983 0.985 . S
N971 C973 1.356 . S
N971 H976 0.984 . S
N971 H977 0.985 . S
C972 C966 1.379 . S
C972 C969 1.363 . S
C972 N970 1.356 . S
C973 C967 1.363 . S
C973 C968 1.379 . S
C973 N971 1.356 . S
N974 C966 1.356 . S
N974 H980 0.984 . S
N974 H981 0.984 . S
N975 C968 1.356 . S
N975 H978 0.984 . S
N975 H979 0.985 . S
H976 N971 0.984 . S
H977 N971 0.985 . S
H978 N975 0.984 . S
H979 N975 0.985 . S
H980 N974 0.984 . S
H981 N974 0.984 . S
H982 N970 0.984 . S
H983 N970 0.985 . S
C984 C985 1.363 . S
C984 C990 1.379 . S
C984 N992 1.356 . S
C985 C984 1.363 . S
C985 C991 1.363 . S
C986 C987 1.363 . S
C986 C991 1.379 . S
C986 N993 1.356 . S
C987 C986 1.363 . S
C987 C990 1.363 . S
N988 C990 1.356 . S
N988 H1000 0.984 . S
N988 H1001 0.985 . S
N989 C991 1.356 . S
N989 H994 0.984 . S
N989 H995 0.985 . S
C990 C984 1.379 . S
C990 C987 1.363 . S
C990 N988 1.356 . S
C991 C985 1.363 . S
C991 C986 1.379 . S
C991 N989 1.356 . S
N992 C984 1.356 . S
N992 H998 0.984 . S
N992 H999 0.984 . S
N993 C986 1.356 . S
N993 H996 0.984 . S
N993 H997 0.985 . S
H994 N989 0.984 . S
H995 N989 0.985 . S
H996 N993 0.984 . S
H997 N993 0.985 . S
H998 N992 0.984 . S
H999 N992 0.984 . S
H1000 N988 0.984 . S
H1001 N988 0.985 . S
C1002 C1003 1.363 . S
C1002 C1008 1.379 . S
C1002 N1010 1.356 . S
C1003 C1002 1.363 . S
C1003 C1009 1.363 . S
C1004 C1005 1.363 . S
C1004 C1009 1.379 . S
C1004 N1011 1.356 . S
C1005 C1004 1.363 . S
C1005 C1008 1.363 . S
N1006 C1008 1.356 . S
N1006 H1018 0.984 . S
N1006 H1019 0.985 . S
N1007 C1009 1.356 . S
N1007 H1012 0.984 . S
N1007 H1013 0.985 . S
C1008 C1002 1.379 . S
C1008 C1005 1.363 . S
C1008 N1006 1.356 . S
C1009 C1003 1.363 . S
C1009 C1004 1.379 . S
C1009 N1007 1.356 . S
N1010 C1002 1.356 . S
N1010 H1016 0.984 . S
N1010 H1017 0.984 . S
N1011 C1004 1.356 . S
N1011 H1014 0.984 . S
N1011 H1015 0.985 . S
H1012 N1007 0.984 . S
H1013 N1007 0.985 . S
H1014 N1011 0.984 . S
H1015 N1011 0.985 . S
H1016 N1010 0.984 . S
H1017 N1010 0.984 . S
H1018 N1006 0.984 . S
H1019 N1006 0.985 . S
C1020 C1021 1.363 . S
C1020 C1026 1.379 . S
C1020 N1028 1.356 . S
C1021 C1020 1.363 . S
C1021 C1027 1.363 . S
C1022 C1023 1.363 . S
C1022 C1027 1.379 . S
C1022 N1029 1.356 . S
C1023 C1022 1.363 . S
C1023 C1026 1.363 . S
N1024 C1026 1.356 . S
N1024 H1036 0.984 . S
N1024 H1037 0.985 . S
N1025 C1027 1.356 . S
N1025 H1030 0.984 . S
N1025 H1031 0.985 . S
C1026 C1020 1.379 . S
C1026 C1023 1.363 . S
C1026 N1024 1.356 . S
C1027 C1021 1.363 . S
C1027 C1022 1.379 . S
C1027 N1025 1.356 . S
N1028 C1020 1.356 . S
N1028 H1034 0.984 . S
N1028 H1035 0.984 . S
N1029 C1022 1.356 . S
N1029 H1032 0.984 . S
N1029 H1033 0.985 . S
H1030 N1025 0.984 . S
H1031 N1025 0.985 . S
H1032 N1029 0.984 . S
H1033 N1029 0.985 . S
H1034 N1028 0.984 . S
H1035 N1028 0.984 . S
H1036 N1024 0.984 . S
H1037 N1024 0.985 . S
C1038 C1039 1.363 . S
C1038 C1044 1.379 . S
C1038 N1046 1.356 . S
C1039 C1038 1.363 . S
C1039 C1045 1.363 . S
C1040 C1041 1.363 . S
C1040 C1045 1.379 . S
C1040 N1047 1.356 . S
C1041 C1040 1.363 . S
C1041 C1044 1.363 . S
N1042 C1044 1.356 1_455 S
N1042 H1054 0.984 . S
N1042 H1055 0.985 . S
N1043 C1045 1.356 . S
N1043 H1048 0.984 . S
N1043 H1049 0.985 . S
C1044 C1038 1.379 . S
C1044 C1041 1.363 . S
C1044 N1042 1.356 1_655 S
C1045 C1039 1.363 . S
C1045 C1040 1.379 . S
C1045 N1043 1.356 . S
N1046 C1038 1.356 . S
N1046 H1052 0.984 . S
N1046 H1053 0.984 . S
N1047 C1040 1.356 . S
N1047 H1050 0.984 . S
N1047 H1051 0.985 . S
H1048 N1043 0.984 . S
H1049 N1043 0.985 . S
H1050 N1047 0.984 . S
H1051 N1047 0.985 . S
H1052 N1046 0.984 . S
H1053 N1046 0.984 . S
H1054 N1042 0.984 . S
H1055 N1042 0.985 . S
C1056 C1057 1.363 . S
C1056 C1062 1.379 . S
C1056 N1064 1.356 . S
C1057 C1056 1.363 . S
C1057 C1063 1.363 . S
C1058 C1059 1.363 . S
C1058 C1063 1.379 . S
C1058 N1065 1.356 . S
C1059 C1058 1.363 . S
C1059 C1062 1.363 . S
N1060 C1062 1.356 . S
N1060 H1072 0.984 . S
N1060 H1073 0.985 . S
N1061 C1063 1.356 . S
N1061 H1066 0.984 . S
N1061 H1067 0.985 . S
C1062 C1056 1.379 . S
C1062 C1059 1.363 . S
C1062 N1060 1.356 . S
C1063 C1057 1.363 . S
C1063 C1058 1.379 . S
C1063 N1061 1.356 . S
N1064 C1056 1.356 . S
N1064 H1070 0.984 . S
N1064 H1071 0.984 . S
N1065 C1058 1.356 . S
N1065 H1068 0.984 . S
N1065 H1069 0.985 . S
H1066 N1061 0.984 . S
H1067 N1061 0.985 . S
H1068 N1065 0.984 . S
H1069 N1065 0.985 . S
H1070 N1064 0.984 . S
H1071 N1064 0.984 . S
H1072 N1060 0.984 . S
H1073 N1060 0.985 . S
C1074 C1075 1.363 . S
C1074 C1080 1.379 . S
C1074 N1082 1.356 . S
C1075 C1074 1.363 . S
C1075 C1081 1.363 . S
C1076 C1077 1.363 . S
C1076 C1081 1.379 . S
C1076 N1083 1.356 . S
C1077 C1076 1.363 . S
C1077 C1080 1.363 . S
N1078 C1080 1.356 . S
N1078 H1090 0.984 . S
N1078 H1091 0.985 . S
N1079 C1081 1.356 . S
N1079 H1084 0.984 . S
N1079 H1085 0.985 . S
C1080 C1074 1.379 . S
C1080 C1077 1.363 . S
C1080 N1078 1.356 . S
C1081 C1075 1.363 . S
C1081 C1076 1.379 . S
C1081 N1079 1.356 . S
N1082 C1074 1.356 . S
N1082 H1088 0.984 . S
N1082 H1089 0.984 . S
N1083 C1076 1.356 . S
N1083 H1086 0.984 . S
N1083 H1087 0.985 . S
H1084 N1079 0.984 . S
H1085 N1079 0.985 . S
H1086 N1083 0.984 . S
H1087 N1083 0.985 . S
H1088 N1082 0.984 . S
H1089 N1082 0.984 . S
H1090 N1078 0.984 . S
H1091 N1078 0.985 . S
C1092 C1093 1.363 . S
C1092 C1098 1.379 . S
C1092 N1100 1.356 . S
C1093 C1092 1.363 . S
C1093 C1099 1.363 . S
C1094 C1095 1.363 . S
C1094 C1099 1.379 . S
C1094 N1101 1.356 . S
C1095 C1094 1.363 . S
C1095 C1098 1.363 . S
N1096 C1098 1.356 . S
N1096 H1108 0.984 . S
N1096 H1109 0.985 . S
N1097 C1099 1.356 . S
N1097 H1102 0.984 1_565 S
N1097 H1103 0.985 . S
C1098 C1092 1.379 . S
C1098 C1095 1.363 . S
C1098 N1096 1.356 . S
C1099 C1093 1.363 . S
C1099 C1094 1.379 . S
C1099 N1097 1.356 . S
N1100 C1092 1.356 . S
N1100 H1106 0.984 . S
N1100 H1107 0.984 . S
N1101 C1094 1.356 . S
N1101 H1104 0.984 . S
N1101 H1105 0.985 . S
H1102 N1097 0.984 1_545 S
H1103 N1097 0.985 . S
H1104 N1101 0.984 . S
H1105 N1101 0.985 . S
H1106 N1100 0.984 . S
H1107 N1100 0.984 . S
H1108 N1096 0.984 . S
H1109 N1096 0.985 . S
C1110 C1111 1.363 . S
C1110 C1116 1.379 . S
C1110 N1118 1.356 . S
C1111 C1110 1.363 . S
C1111 C1117 1.363 . S
C1112 C1113 1.363 . S
C1112 C1117 1.379 . S
C1112 N1119 1.356 . S
C1113 C1112 1.363 . S
C1113 C1116 1.363 . S
N1114 C1116 1.356 . S
N1114 H1126 0.984 . S
N1114 H1127 0.985 . S
N1115 C1117 1.356 . S
N1115 H1120 0.984 . S
N1115 H1121 0.985 . S
C1116 C1110 1.379 . S
C1116 C1113 1.363 . S
C1116 N1114 1.356 . S
C1117 C1111 1.363 . S
C1117 C1112 1.379 . S
C1117 N1115 1.356 . S
N1118 C1110 1.356 . S
N1118 H1124 0.984 . S
N1118 H1125 0.984 . S
N1119 C1112 1.356 . S
N1119 H1122 0.984 . S
N1119 H1123 0.985 . S
H1120 N1115 0.984 . S
H1121 N1115 0.985 . S
H1122 N1119 0.984 . S
H1123 N1119 0.985 . S
H1124 N1118 0.984 . S
H1125 N1118 0.984 . S
H1126 N1114 0.984 . S
H1127 N1114 0.985 . S
C1128 C1129 1.363 . S
C1128 C1134 1.379 . S
C1128 N1136 1.356 . S
C1129 C1128 1.363 . S
C1129 C1135 1.363 . S
C1130 C1131 1.363 . S
C1130 C1135 1.379 . S
C1130 N1137 1.356 . S
C1131 C1130 1.363 . S
C1131 C1134 1.363 . S
N1132 C1134 1.356 . S
N1132 H1144 0.984 . S
N1132 H1145 0.985 . S
N1133 C1135 1.356 . S
N1133 H1138 0.984 . S
N1133 H1139 0.985 . S
C1134 C1128 1.379 . S
C1134 C1131 1.363 . S
C1134 N1132 1.356 . S
C1135 C1129 1.363 . S
C1135 C1130 1.379 . S
C1135 N1133 1.356 . S
N1136 C1128 1.356 . S
N1136 H1142 0.984 . S
N1136 H1143 0.984 . S
N1137 C1130 1.356 . S
N1137 H1140 0.984 . S
N1137 H1141 0.985 . S
H1138 N1133 0.984 . S
H1139 N1133 0.985 . S
H1140 N1137 0.984 . S
H1141 N1137 0.985 . S
H1142 N1136 0.984 . S
H1143 N1136 0.984 . S
H1144 N1132 0.984 . S
H1145 N1132 0.985 . S
C1146 C1147 1.363 . S
C1146 C1152 1.379 . S
C1146 N1154 1.356 . S
C1147 C1146 1.363 . S
C1147 C1153 1.363 . S
C1148 C1149 1.363 . S
C1148 C1153 1.379 . S
C1148 N1155 1.356 . S
C1149 C1148 1.363 . S
C1149 C1152 1.363 . S
N1150 C1152 1.356 . S
N1150 H1162 0.984 . S
N1150 H1163 0.985 . S
N1151 C1153 1.356 . S
N1151 H1156 0.984 . S
N1151 H1157 0.985 . S
C1152 C1146 1.379 . S
C1152 C1149 1.363 . S
C1152 N1150 1.356 . S
C1153 C1147 1.363 . S
C1153 C1148 1.379 . S
C1153 N1151 1.356 . S
N1154 C1146 1.356 . S
N1154 H1160 0.984 . S
N1154 H1161 0.984 . S
N1155 C1148 1.356 . S
N1155 H1158 0.984 . S
N1155 H1159 0.985 . S
H1156 N1151 0.984 . S
H1157 N1151 0.985 . S
H1158 N1155 0.984 . S
H1159 N1155 0.985 . S
H1160 N1154 0.984 . S
H1161 N1154 0.984 . S
H1162 N1150 0.984 . S
H1163 N1150 0.985 . S
C1164 C1165 1.363 . S
C1164 C1170 1.379 . S
C1164 N1172 1.356 . S
C1165 C1164 1.363 . S
C1165 C1171 1.363 . S
C1166 C1167 1.363 . S
C1166 C1171 1.379 . S
C1166 N1173 1.356 . S
C1167 C1166 1.363 . S
C1167 C1170 1.363 . S
N1168 C1170 1.356 . S
N1168 H1180 0.984 . S
N1168 H1181 0.985 . S
N1169 C1171 1.356 . S
N1169 H1174 0.984 . S
N1169 H1175 0.985 . S
C1170 C1164 1.379 . S
C1170 C1167 1.363 . S
C1170 N1168 1.356 . S
C1171 C1165 1.363 . S
C1171 C1166 1.379 . S
C1171 N1169 1.356 . S
N1172 C1164 1.356 . S
N1172 H1178 0.984 1_556 S
N1172 H1179 0.984 . S
N1173 C1166 1.356 . S
N1173 H1176 0.984 . S
N1173 H1177 0.985 . S
H1174 N1169 0.984 . S
H1175 N1169 0.985 . S
H1176 N1173 0.984 . S
H1177 N1173 0.985 . S
H1178 N1172 0.984 1_554 S
H1179 N1172 0.984 . S
H1180 N1168 0.984 . S
H1181 N1168 0.985 . S
C1182 C1183 1.363 . S
C1182 C1188 1.379 . S
C1182 N1190 1.356 . S
C1183 C1182 1.363 . S
C1183 C1189 1.363 . S
C1184 C1185 1.363 . S
C1184 C1189 1.379 . S
C1184 N1191 1.356 . S
C1185 C1184 1.363 . S
C1185 C1188 1.363 . S
N1186 C1188 1.356 . S
N1186 H1198 0.984 . S
N1186 H1199 0.985 . S
N1187 C1189 1.356 . S
N1187 H1192 0.984 . S
N1187 H1193 0.985 . S
C1188 C1182 1.379 . S
C1188 C1185 1.363 . S
C1188 N1186 1.356 . S
C1189 C1183 1.363 . S
C1189 C1184 1.379 . S
C1189 N1187 1.356 . S
N1190 C1182 1.356 . S
N1190 H1196 0.984 . S
N1190 H1197 0.984 . S
N1191 C1184 1.356 . S
N1191 H1194 0.984 . S
N1191 H1195 0.985 . S
H1192 N1187 0.984 . S
H1193 N1187 0.985 . S
H1194 N1191 0.984 . S
H1195 N1191 0.985 . S
H1196 N1190 0.984 . S
H1197 N1190 0.984 . S
H1198 N1186 0.984 . S
H1199 N1186 0.985 . S
C1200 C1201 1.363 . S
C1200 C1206 1.379 . S
C1200 N1208 1.356 . S
C1201 C1200 1.363 . S
C1201 C1207 1.363 . S
C1202 C1203 1.363 . S
C1202 C1207 1.379 . S
C1202 N1209 1.356 . S
C1203 C1202 1.363 . S
C1203 C1206 1.363 . S
N1204 C1206 1.356 . S
N1204 H1216 0.984 . S
N1204 H1217 0.985 . S
N1205 C1207 1.356 . S
N1205 H1210 0.984 . S
N1205 H1211 0.985 . S
C1206 C1200 1.379 . S
C1206 C1203 1.363 . S
C1206 N1204 1.356 . S
C1207 C1201 1.363 . S
C1207 C1202 1.379 . S
C1207 N1205 1.356 . S
N1208 C1200 1.356 . S
N1208 H1214 0.984 . S
N1208 H1215 0.984 . S
N1209 C1202 1.356 . S
N1209 H1212 0.984 . S
N1209 H1213 0.985 . S
H1210 N1205 0.984 . S
H1211 N1205 0.985 . S
H1212 N1209 0.984 . S
H1213 N1209 0.985 . S
H1214 N1208 0.984 . S
H1215 N1208 0.984 . S
H1216 N1204 0.984 . S
H1217 N1204 0.985 . S
C1218 C1219 1.363 . S
C1218 C1224 1.379 . S
C1218 N1226 1.356 . S
C1219 C1218 1.363 . S
C1219 C1225 1.363 . S
C1220 C1221 1.363 . S
C1220 C1225 1.379 . S
C1220 N1227 1.356 . S
C1221 C1220 1.363 . S
C1221 C1224 1.363 . S
N1222 C1224 1.356 . S
N1222 H1234 0.984 . S
N1222 H1235 0.985 . S
N1223 C1225 1.356 . S
N1223 H1228 0.984 . S
N1223 H1229 0.985 . S
C1224 C1218 1.379 . S
C1224 C1221 1.363 . S
C1224 N1222 1.356 . S
C1225 C1219 1.363 . S
C1225 C1220 1.379 . S
C1225 N1223 1.356 . S
N1226 C1218 1.356 . S
N1226 H1232 0.984 . S
N1226 H1233 0.984 . S
N1227 C1220 1.356 . S
N1227 H1230 0.984 . S
N1227 H1231 0.985 . S
H1228 N1223 0.984 . S
H1229 N1223 0.985 . S
H1230 N1227 0.984 . S
H1231 N1227 0.985 . S
H1232 N1226 0.984 . S
H1233 N1226 0.984 . S
H1234 N1222 0.984 . S
H1235 N1222 0.985 . S
C1236 C1237 1.363 . S
C1236 C1242 1.379 . S
C1236 N1244 1.356 . S
C1237 C1236 1.363 . S
C1237 C1243 1.363 . S
C1238 C1239 1.363 . S
C1238 C1243 1.379 . S
C1238 N1245 1.356 . S
C1239 C1238 1.363 . S
C1239 C1242 1.363 . S
N1240 C1242 1.356 . S
N1240 H1252 0.984 . S
N1240 H1253 0.985 . S
N1241 C1243 1.356 . S
N1241 H1246 0.984 . S
N1241 H1247 0.985 . S
C1242 C1236 1.379 . S
C1242 C1239 1.363 . S
C1242 N1240 1.356 . S
C1243 C1237 1.363 . S
C1243 C1238 1.379 . S
C1243 N1241 1.356 . S
N1244 C1236 1.356 . S
N1244 H1250 0.984 . S
N1244 H1251 0.984 . S
N1245 C1238 1.356 . S
N1245 H1248 0.984 . S
N1245 H1249 0.985 . S
H1246 N1241 0.984 . S
H1247 N1241 0.985 . S
H1248 N1245 0.984 . S
H1249 N1245 0.985 . S
H1250 N1244 0.984 . S
H1251 N1244 0.984 . S
H1252 N1240 0.984 . S
H1253 N1240 0.985 . S
C1254 C1255 1.363 . S
C1254 C1260 1.379 . S
C1254 N1262 1.356 . S
C1255 C1254 1.363 . S
C1255 C1261 1.363 . S
C1256 C1257 1.363 . S
C1256 C1261 1.379 . S
C1256 N1263 1.356 . S
C1257 C1256 1.363 . S
C1257 C1260 1.363 . S
N1258 C1260 1.356 . S
N1258 H1270 0.984 . S
N1258 H1271 0.985 . S
N1259 C1261 1.356 . S
N1259 H1264 0.984 . S
N1259 H1265 0.985 . S
C1260 C1254 1.379 . S
C1260 C1257 1.363 . S
C1260 N1258 1.356 . S
C1261 C1255 1.363 . S
C1261 C1256 1.379 . S
C1261 N1259 1.356 . S
N1262 C1254 1.356 . S
N1262 H1268 0.984 . S
N1262 H1269 0.984 . S
N1263 C1256 1.356 . S
N1263 H1266 0.984 . S
N1263 H1267 0.985 . S
H1264 N1259 0.984 . S
H1265 N1259 0.985 . S
H1266 N1263 0.984 . S
H1267 N1263 0.985 . S
H1268 N1262 0.984 . S
H1269 N1262 0.984 . S
H1270 N1258 0.984 . S
H1271 N1258 0.985 . S
C1272 C1273 1.363 . S
C1272 C1278 1.379 . S
C1272 N1280 1.356 . S
C1273 C1272 1.363 . S
C1273 C1279 1.363 . S
C1274 C1275 1.363 . S
C1274 C1279 1.379 . S
C1274 N1281 1.356 . S
C1275 C1274 1.363 . S
C1275 C1278 1.363 . S
N1276 C1278 1.356 . S
N1276 H1288 0.984 . S
N1276 H1289 0.985 . S
N1277 C1279 1.356 . S
N1277 H1282 0.984 . S
N1277 H1283 0.985 . S
C1278 C1272 1.379 . S
C1278 C1275 1.363 . S
C1278 N1276 1.356 . S
C1279 C1273 1.363 . S
C1279 C1274 1.379 . S
C1279 N1277 1.356 . S
N1280 C1272 1.356 . S
N1280 H1286 0.984 . S
N1280 H1287 0.984 . S
N1281 C1274 1.356 . S
N1281 H1284 0.984 . S
N1281 H1285 0.985 . S
H1282 N1277 0.984 . S
H1283 N1277 0.985 . S
H1284 N1281 0.984 . S
H1285 N1281 0.985 . S
H1286 N1280 0.984 . S
H1287 N1280 0.984 . S
H1288 N1276 0.984 . S
H1289 N1276 0.985 . S
C1290 C1291 1.363 . S
C1290 C1296 1.379 . S
C1290 N1298 1.356 . S
C1291 C1290 1.363 . S
C1291 C1297 1.363 . S
C1292 C1293 1.363 . S
C1292 C1297 1.379 . S
C1292 N1299 1.356 . S
C1293 C1292 1.363 . S
C1293 C1296 1.363 . S
N1294 C1296 1.356 . S
N1294 H1306 0.984 . S
N1294 H1307 0.985 . S
N1295 C1297 1.356 . S
N1295 H1300 0.984 . S
N1295 H1301 0.985 . S
C1296 C1290 1.379 . S
C1296 C1293 1.363 . S
C1296 N1294 1.356 . S
C1297 C1291 1.363 . S
C1297 C1292 1.379 . S
C1297 N1295 1.356 . S
N1298 C1290 1.356 . S
N1298 H1304 0.984 . S
N1298 H1305 0.984 . S
N1299 C1292 1.356 . S
N1299 H1302 0.984 . S
N1299 H1303 0.985 . S
H1300 N1295 0.984 . S
H1301 N1295 0.985 . S
H1302 N1299 0.984 . S
H1303 N1299 0.985 . S
H1304 N1298 0.984 . S
H1305 N1298 0.984 . S
H1306 N1294 0.984 . S
H1307 N1294 0.985 . S
C1308 C1309 1.363 . S
C1308 C1314 1.379 . S
C1308 N1316 1.356 . S
C1309 C1308 1.363 . S
C1309 C1315 1.363 . S
C1310 C1311 1.363 . S
C1310 C1315 1.379 . S
C1310 N1317 1.356 . S
C1311 C1310 1.363 . S
C1311 C1314 1.363 . S
N1312 C1314 1.356 . S
N1312 H1324 0.984 . S
N1312 H1325 0.985 . S
N1313 C1315 1.356 . S
N1313 H1318 0.984 . S
N1313 H1319 0.985 1_565 S
C1314 C1308 1.379 . S
C1314 C1311 1.363 . S
C1314 N1312 1.356 . S
C1315 C1309 1.363 . S
C1315 C1310 1.379 . S
C1315 N1313 1.356 . S
N1316 C1308 1.356 . S
N1316 H1322 0.984 . S
N1316 H1323 0.984 . S
N1317 C1310 1.356 . S
N1317 H1320 0.984 . S
N1317 H1321 0.985 . S
H1318 N1313 0.984 . S
H1319 N1313 0.985 1_545 S
H1320 N1317 0.984 . S
H1321 N1317 0.985 . S
H1322 N1316 0.984 . S
H1323 N1316 0.984 . S
H1324 N1312 0.984 . S
H1325 N1312 0.985 . S
C1326 C1327 1.363 . S
C1326 C1332 1.379 . S
C1326 N1334 1.356 . S
C1327 C1326 1.363 . S
C1327 C1333 1.363 . S
C1328 C1329 1.363 . S
C1328 C1333 1.379 . S
C1328 N1335 1.356 . S
C1329 C1328 1.363 . S
C1329 C1332 1.363 . S
N1330 C1332 1.356 . S
N1330 H1342 0.984 . S
N1330 H1343 0.985 . S
N1331 C1333 1.356 . S
N1331 H1336 0.984 . S
N1331 H1337 0.985 . S
C1332 C1326 1.379 . S
C1332 C1329 1.363 . S
C1332 N1330 1.356 . S
C1333 C1327 1.363 . S
C1333 C1328 1.379 . S
C1333 N1331 1.356 . S
N1334 C1326 1.356 . S
N1334 H1340 0.984 . S
N1334 H1341 0.984 . S
N1335 C1328 1.356 . S
N1335 H1338 0.984 . S
N1335 H1339 0.985 . S
H1336 N1331 0.984 . S
H1337 N1331 0.985 . S
H1338 N1335 0.984 . S
H1339 N1335 0.985 . S
H1340 N1334 0.984 . S
H1341 N1334 0.984 . S
H1342 N1330 0.984 . S
H1343 N1330 0.985 . S
C1344 C1345 1.363 . S
C1344 C1350 1.379 . S
C1344 N1352 1.356 . S
C1345 C1344 1.363 . S
C1345 C1351 1.363 . S
C1346 C1347 1.363 . S
C1346 C1351 1.379 . S
C1346 N1353 1.356 . S
C1347 C1346 1.363 . S
C1347 C1350 1.363 . S
N1348 C1350 1.356 . S
N1348 H1360 0.984 . S
N1348 H1361 0.985 . S
N1349 C1351 1.356 . S
N1349 H1354 0.984 . S
N1349 H1355 0.985 . S
C1350 C1344 1.379 . S
C1350 C1347 1.363 . S
C1350 N1348 1.356 . S
C1351 C1345 1.363 . S
C1351 C1346 1.379 . S
C1351 N1349 1.356 . S
N1352 C1344 1.356 . S
N1352 H1358 0.984 . S
N1352 H1359 0.984 . S
N1353 C1346 1.356 . S
N1353 H1356 0.984 . S
N1353 H1357 0.985 . S
H1354 N1349 0.984 . S
H1355 N1349 0.985 . S
H1356 N1353 0.984 . S
H1357 N1353 0.985 . S
H1358 N1352 0.984 . S
H1359 N1352 0.984 . S
H1360 N1348 0.984 . S
H1361 N1348 0.985 . S
C1362 C1363 1.363 . S
C1362 C1368 1.379 . S
C1362 N1370 1.356 . S
C1363 C1362 1.363 . S
C1363 C1369 1.363 . S
C1364 C1365 1.363 . S
C1364 C1369 1.379 . S
C1364 N1371 1.356 . S
C1365 C1364 1.363 . S
C1365 C1368 1.363 . S
N1366 C1368 1.356 . S
N1366 H1378 0.984 . S
N1366 H1379 0.985 . S
N1367 C1369 1.356 . S
N1367 H1372 0.984 . S
N1367 H1373 0.985 . S
C1368 C1362 1.379 . S
C1368 C1365 1.363 . S
C1368 N1366 1.356 . S
C1369 C1363 1.363 . S
C1369 C1364 1.379 . S
C1369 N1367 1.356 . S
N1370 C1362 1.356 . S
N1370 H1376 0.984 . S
N1370 H1377 0.984 . S
N1371 C1364 1.356 . S
N1371 H1374 0.984 . S
N1371 H1375 0.985 . S
H1372 N1367 0.984 . S
H1373 N1367 0.985 . S
H1374 N1371 0.984 . S
H1375 N1371 0.985 . S
H1376 N1370 0.984 . S
H1377 N1370 0.984 . S
H1378 N1366 0.984 . S
H1379 N1366 0.985 . S
C1380 C1381 1.363 . S
C1380 C1386 1.379 . S
C1380 N1388 1.356 . S
C1381 C1380 1.363 . S
C1381 C1387 1.363 . S
C1382 C1383 1.363 . S
C1382 C1387 1.379 . S
C1382 N1389 1.356 . S
C1383 C1382 1.363 . S
C1383 C1386 1.363 . S
N1384 C1386 1.356 . S
N1384 H1396 0.984 . S
N1384 H1397 0.985 . S
N1385 C1387 1.356 . S
N1385 H1390 0.984 . S
N1385 H1391 0.985 . S
C1386 C1380 1.379 . S
C1386 C1383 1.363 . S
C1386 N1384 1.356 . S
C1387 C1381 1.363 . S
C1387 C1382 1.379 . S
C1387 N1385 1.356 . S
N1388 C1380 1.356 . S
N1388 H1394 0.984 . S
N1388 H1395 0.984 . S
N1389 C1382 1.356 . S
N1389 H1392 0.984 . S
N1389 H1393 0.985 . S
H1390 N1385 0.984 . S
H1391 N1385 0.985 . S
H1392 N1389 0.984 . S
H1393 N1389 0.985 . S
H1394 N1388 0.984 . S
H1395 N1388 0.984 . S
H1396 N1384 0.984 . S
H1397 N1384 0.985 . S
C1398 C1399 1.363 . S
C1398 C1404 1.379 . S
C1398 N1406 1.356 . S
C1399 C1398 1.363 . S
C1399 C1405 1.363 . S
C1400 C1401 1.363 . S
C1400 C1405 1.379 . S
C1400 N1407 1.356 . S
C1401 C1400 1.363 . S
C1401 C1404 1.363 . S
N1402 C1404 1.356 . S
N1402 H1414 0.984 . S
N1402 H1415 0.985 . S
N1403 C1405 1.356 . S
N1403 H1408 0.984 . S
N1403 H1409 0.985 . S
C1404 C1398 1.379 . S
C1404 C1401 1.363 . S
C1404 N1402 1.356 . S
C1405 C1399 1.363 . S
C1405 C1400 1.379 . S
C1405 N1403 1.356 . S
N1406 C1398 1.356 . S
N1406 H1412 0.984 . S
N1406 H1413 0.984 . S
N1407 C1400 1.356 . S
N1407 H1410 0.984 . S
N1407 H1411 0.985 . S
H1408 N1403 0.984 . S
H1409 N1403 0.985 . S
H1410 N1407 0.984 . S
H1411 N1407 0.985 . S
H1412 N1406 0.984 . S
H1413 N1406 0.984 . S
H1414 N1402 0.984 . S
H1415 N1402 0.985 . S
C553 N518 1.248 . S
C555 N12 1.285 . S
C571 C39 1.681 . S
C573 C536 1.683 . S
C589 N472 1.223 . S
C591 N58 1.244 . S
C607 C490 1.763 . S
C609 C76 1.757 . S
C625 C499 1.644 . S
C627 N104 1.572 . S
C643 N117 1.334 . S
C645 N508 1.355 . S
C661 C545 1.572 . S
C663 N150 1.495 . S
C679 C177 1.313 . S
C681 N462 1.310 . S
C697 C191 1.328 . S
C699 N439 1.329 . S
C715 C384 1.855 . S
C717 C223 1.859 . S
C733 N232 1.159 . S
C735 N393 1.187 . S
C751 N426 1.578 . S
C753 C269 1.654 . S
C769 C260 1.656 . S
C771 N301 1.661 . S
C787 C200 1.458 . S
C789 N334 1.377 . S
C805 C361 1.689 . S
C807 C214 1.668 . S
C823 N242 1.219 . S
C825 N288 1.202 . S
C841 C30 1.618 . S
C843 N416 1.596 . S
C859 N324 1.498 . S
C861 C168 1.524 . S
C877 N94 1.581 . S
C879 C352 1.595 . S
C895 N278 1.415 . S
C897 N127 1.324 . S
C913 N140 1.502 . S
C915 N311 1.396 . S
C931 C85 1.876 . S
C933 C375 1.868 . S
C949 N2 1.302 . S
C951 N403 1.211 . S
C967 N48 1.392 . S
C969 N449 1.298 . S
C985 C145 2.028 . S
C987 C467 2.029 . S
C1003 N495 1.393 . S
C1005 N163 1.406 . S
C1021 C513 1.909 . S
C1023 C99 1.906 . S
C1039 N541 1.328 . S
C1041 C131 1.378 . S
C1057 C53 1.530 . S
C1059 N531 1.525 . S
C1075 N81 1.799 . S
C1077 C476 1.801 . S
C1093 C7 1.617 . S
C1095 N485 1.586 . S
C1111 C522 1.613 . S
C1113 N25 1.583 . S
C1129 C246 1.755 . S
C1131 C315 1.750 . S
C1147 N255 1.352 . S
C1149 C329 1.395 . S
C1165 N196 1.725 . S
C1167 N347 1.690 . S
C1183 N209 1.362 . S
C1185 C283 1.411 . S
C1201 N219 1.572 . S
C1203 C453 1.582 . S
C1219 N370 1.599 . S
C1221 C237 1.645 . S
C1237 N265 1.392 . S
C1239 C407 1.405 . S
C1255 N186 1.673 . S
C1257 C421 1.732 . S
C1273 C292 1.295 . S
C1275 N173 1.270 . S
C1291 N380 1.508 . S
C1293 N35 1.522 . S
C1309 C62 1.529 . S
C1311 C398 1.527 . S
C1327 C430 1.758 . S
C1329 N71 1.701 . S
C1345 C444 1.661 . S
C1347 C16 1.656 . S
C1363 C122 1.365 . S
C1365 C338 1.353 . S
C1381 N357 1.904 . S
C1383 C154 1.924 . S
C1399 C306 1.990 . S
C1401 C108 1.983 . S
