# Generated by pormake.
# Topology upb, (4)-cn, num edge types: 1
# Building blocks:
#     Node 0, Type 0, BuildingBlock: TATPOV_clean_sbu_0, # of connection points: 4
#     Node 1, Type 0, BuildingBlock: TATPOV_clean_sbu_0, # of connection points: 4
#     Node 2, Type 0, BuildingBlock: TATPOV_clean_sbu_0, # of connection points: 4
#     Node 3, Type 0, BuildingBlock: TATPOV_clean_sbu_0, # of connection points: 4
#     Node 4, Type 0, BuildingBlock: TATPOV_clean_sbu_0, # of connection points: 4
#     Node 5, Type 0, BuildingBlock: TATPOV_clean_sbu_0, # of connection points: 4
#     Node 6, Type 0, BuildingBlock: TATPOV_clean_sbu_0, # of connection points: 4
#     Node 7, Type 0, BuildingBlock: TATPOV_clean_sbu_0, # of connection points: 4
#     Node 8, Type 0, BuildingBlock: TATPOV_clean_sbu_0, # of connection points: 4
#     Node 9, Type 0, BuildingBlock: TATPOV_clean_sbu_0, # of connection points: 4
#     Node 10, Type 0, BuildingBlock: TATPOV_clean_sbu_0, # of connection points: 4
#     Node 11, Type 0, BuildingBlock: TATPOV_clean_sbu_0, # of connection points: 4
#     Node 12, Type 0, BuildingBlock: TATPOV_clean_sbu_0, # of connection points: 4
#     Node 13, Type 0, BuildingBlock: TATPOV_clean_sbu_0, # of connection points: 4
#     Node 14, Type 0, BuildingBlock: TATPOV_clean_sbu_0, # of connection points: 4
#     Node 15, Type 0, BuildingBlock: TATPOV_clean_sbu_0, # of connection points: 4
#     Edge 16, Type (0, 0), BuildingBlock: UVAHIK_clean_linker_0, # of connection points: 2
#     Edge 17, Type (0, 0), BuildingBlock: UVAHIK_clean_linker_0, # of connection points: 2
#     Edge 18, Type (0, 0), BuildingBlock: UVAHIK_clean_linker_0, # of connection points: 2
#     Edge 19, Type (0, 0), BuildingBlock: UVAHIK_clean_linker_0, # of connection points: 2
#     Edge 20, Type (0, 0), BuildingBlock: UVAHIK_clean_linker_0, # of connection points: 2
#     Edge 21, Type (0, 0), BuildingBlock: UVAHIK_clean_linker_0, # of connection points: 2
#     Edge 22, Type (0, 0), BuildingBlock: UVAHIK_clean_linker_0, # of connection points: 2
#     Edge 23, Type (0, 0), BuildingBlock: UVAHIK_clean_linker_0, # of connection points: 2
#     Edge 24, Type (0, 0), BuildingBlock: UVAHIK_clean_linker_0, # of connection points: 2
#     Edge 25, Type (0, 0), BuildingBlock: UVAHIK_clean_linker_0, # of connection points: 2
#     Edge 26, Type (0, 0), BuildingBlock: UVAHIK_clean_linker_0, # of connection points: 2
#     Edge 27, Type (0, 0), BuildingBlock: UVAHIK_clean_linker_0, # of connection points: 2
#     Edge 28, Type (0, 0), BuildingBlock: UVAHIK_clean_linker_0, # of connection points: 2
#     Edge 29, Type (0, 0), BuildingBlock: UVAHIK_clean_linker_0, # of connection points: 2
#     Edge 30, Type (0, 0), BuildingBlock: UVAHIK_clean_linker_0, # of connection points: 2
#     Edge 31, Type (0, 0), BuildingBlock: UVAHIK_clean_linker_0, # of connection points: 2
#     Edge 32, Type (0, 0), BuildingBlock: UVAHIK_clean_linker_0, # of connection points: 2
#     Edge 33, Type (0, 0), BuildingBlock: UVAHIK_clean_linker_0, # of connection points: 2
#     Edge 34, Type (0, 0), BuildingBlock: UVAHIK_clean_linker_0, # of connection points: 2
#     Edge 35, Type (0, 0), BuildingBlock: UVAHIK_clean_linker_0, # of connection points: 2
#     Edge 36, Type (0, 0), BuildingBlock: UVAHIK_clean_linker_0, # of connection points: 2
#     Edge 37, Type (0, 0), BuildingBlock: UVAHIK_clean_linker_0, # of connection points: 2
#     Edge 38, Type (0, 0), BuildingBlock: UVAHIK_clean_linker_0, # of connection points: 2
#     Edge 39, Type (0, 0), BuildingBlock: UVAHIK_clean_linker_0, # of connection points: 2
#     Edge 40, Type (0, 0), BuildingBlock: UVAHIK_clean_linker_0, # of connection points: 2
#     Edge 41, Type (0, 0), BuildingBlock: UVAHIK_clean_linker_0, # of connection points: 2
#     Edge 42, Type (0, 0), BuildingBlock: UVAHIK_clean_linker_0, # of connection points: 2
#     Edge 43, Type (0, 0), BuildingBlock: UVAHIK_clean_linker_0, # of connection points: 2
#     Edge 44, Type (0, 0), BuildingBlock: UVAHIK_clean_linker_0, # of connection points: 2
#     Edge 45, Type (0, 0), BuildingBlock: UVAHIK_clean_linker_0, # of connection points: 2
#     Edge 46, Type (0, 0), BuildingBlock: UVAHIK_clean_linker_0, # of connection points: 2
#     Edge 47, Type (0, 0), BuildingBlock: UVAHIK_clean_linker_0, # of connection points: 2
# Relax obj value: 0.238
# Max RMSD: 0.113
# Mean RMSD: 0.113
data_MOF--net-upb--node1-TATPOV_clean_sbu_0--edge1-UVAHIK_clean_linker_0
_symmetry_space_group_name_H-M    P1
_symmetry_Int_Tables_number       1
_symmetry_cell_setting            triclinic
loop_
_symmetry_equiv_pos_as_xyz
'x, y, z'
_cell_length_a     51.168676
_cell_length_b     51.153977
_cell_length_c     57.647909
_cell_angle_alpha  90.041152
_cell_angle_beta   89.992687
_cell_angle_gamma 90.019289
loop_
_atom_site_label
_atom_site_type_symbol
_atom_site_fract_x
_atom_site_fract_y
_atom_site_fract_z
_atom_type_partial_charge
Zn0 Zn 0.99078 0.2087 0.33677 0.0
Zn1 Zn 0.00167 0.25513 0.31985 0.0
O2 O 0.99816 0.26281 0.35492 0.0
O3 O 0.98694 0.22432 0.36872 0.0
O4 O 0.01277 0.28985 0.30649 0.0
O5 O 0.02438 0.19329 0.32593 0.0
O6 O 0.03319 0.23156 0.3104 0.0
C7 C 0.99156 0.24838 0.37194 0.0
C8 C 0.95249 0.22579 0.30415 0.0
O9 O 0.96581 0.24689 0.30428 0.0
O10 O 0.95982 0.20628 0.31592 0.0
C11 C 0.03168 0.30153 0.31639 0.0
O12 O 0.04215 0.29096 0.33496 0.0
C13 C 0.03936 0.20776 0.31413 0.0
Zn14 Zn 0.78183 0.0154 0.35964 0.0
Zn15 Zn 0.73726 0.01507 0.33764 0.0
O16 O 0.72619 0.00605 0.37131 0.0
O17 O 0.76444 0.00127 0.38825 0.0
O18 O 0.70316 0.01842 0.32055 0.0
O19 O 0.78671 0.05402 0.35528 0.0
O20 O 0.75263 0.05212 0.33218 0.0
C21 C 0.73976 1.00006 0.38907 0.0
C22 C 0.78115 0.97898 0.32178 0.0
O23 O 0.757 0.98509 0.32096 0.0
O24 O 0.79625 0.99044 0.33591 0.0
C25 C 0.68601 0.0333 0.3295 0.0
O26 O 0.69079 0.04401 0.34979 0.0
C27 C 0.7715 0.065 0.341 0.0
Zn28 Zn 0.98583 0.77814 0.36169 0.0
Zn29 Zn 0.98565 0.73842 0.33391 0.0
O30 O 0.97878 0.72291 0.36669 0.0
O31 O 0.97033 0.75762 0.3879 0.0
O32 O 0.98117 0.70721 0.31257 0.0
O33 O 0.96303 0.7995 0.34091 0.0
O34 O 0.95695 0.76333 0.32097 0.0
C35 C 0.97161 0.73305 0.38586 0.0
C36 C 0.03635 0.76778 0.34221 0.0
O37 O 0.02375 0.75174 0.32944 0.0
O38 O 0.02476 0.78001 0.35829 0.0
C39 C 0.98184 0.68361 0.31953 0.0
O40 O 0.98819 0.67866 0.34115 0.0
C41 C 0.95155 0.78729 0.32479 0.0
Zn42 Zn 0.23429 0.99977 0.37397 0.0
Zn43 Zn 0.27054 0.99207 0.34177 0.0
O44 O 0.2923 0.99666 0.3721 0.0
O45 O 0.26174 0.00528 0.39799 0.0
O46 O 0.29743 0.98288 0.31754 0.0
O47 O 0.21877 0.96406 0.36854 0.0
O48 O 0.24714 0.95913 0.34022 0.0
C49 C 0.28558 0.00252 0.39277 0.0
C50 C 0.23371 0.03905 0.33821 0.0
O51 O 0.25284 0.02607 0.32989 0.0
O52 O 0.22226 0.03135 0.35644 0.0
C53 C 0.32153 0.98889 0.31814 0.0
O54 O 0.3303 0.00371 0.33506 0.0
C55 C 0.22798 0.95052 0.35208 0.0
Zn56 Zn 0.98894 0.77804 0.64183 0.0
Zn57 Zn 0.00237 0.73548 0.66474 0.0
O58 O 0.99533 0.72204 0.63124 0.0
O59 O 0.98587 0.75811 0.61216 0.0
O60 O 0.01464 0.70305 0.68132 0.0
O61 O 0.02214 0.79625 0.65126 0.0
O62 O 0.03428 0.76004 0.66876 0.0
C63 C 0.98899 0.73358 0.61246 0.0
C64 C 0.95291 0.76552 0.67817 0.0
O65 O 0.96901 0.74719 0.6827 0.0
O66 O 0.95693 0.78088 0.66137 0.0
C67 C 0.03306 0.69015 0.67192 0.0
O68 O 0.0425 0.69821 0.65197 0.0
C69 C 0.0389 0.78361 0.66287 0.0
Zn70 Zn 0.2319 0.01058 0.6326 0.0
Zn71 Zn 0.26914 0.01149 0.66352 0.0
O72 O 0.28871 0.01391 0.63204 0.0
O73 O 0.25676 0.02107 0.6073 0.0
O74 O 0.29801 0.01599 0.68707 0.0
O75 O 0.21116 0.03796 0.64946 0.0
O76 O 0.2455 0.0431 0.67193 0.0
C77 C 0.28092 0.01916 0.61157 0.0
C78 C 0.23635 0.96226 0.6577 0.0
O79 O 0.25245 0.97526 0.67008 0.0
O80 O 0.22628 0.97249 0.63982 0.0
C81 C 0.32187 0.01045 0.68329 0.0
O82 O 0.32837 0.99904 0.6637 0.0
C83 C 0.22269 0.05014 0.66559 0.0
Zn84 Zn 0.99764 0.21917 0.64295 0.0
Zn85 Zn 0.99228 0.26437 0.66243 0.0
O86 O 0.99049 0.27293 0.62716 0.0
O87 O 0.98653 0.23354 0.61221 0.0
O88 O 0.98438 0.29904 0.67774 0.0
O89 O 0.97105 0.20224 0.66363 0.0
O90 O 0.96148 0.2421 0.67497 0.0
C91 C 0.98656 0.2581 0.60971 0.0
C92 C 0.04395 0.2352 0.6665 0.0
O93 O 0.02913 0.25329 0.67421 0.0
O94 O 0.03554 0.21915 0.65156 0.0
C95 C 0.96442 0.31108 0.67007 0.0
O96 O 0.95156 0.30101 0.65247 0.0
C97 C 0.95657 0.21768 0.67496 0.0
Zn98 Zn 0.7863 0.99242 0.64865 0.0
Zn99 Zn 0.74302 0.98915 0.67279 0.0
O100 O 0.7311 0.98344 0.63867 0.0
O101 O 0.76834 0.97972 0.61988 0.0
O102 O 0.71018 0.98377 0.69163 0.0
O103 O 0.80457 0.96676 0.66941 0.0
O104 O 0.76669 0.96004 0.68636 0.0
C105 C 0.74364 0.97886 0.61999 0.0
C106 C 0.77273 0.04074 0.67088 0.0
O107 O 0.75511 0.02682 0.68049 0.0
O108 O 0.78756 0.0309 0.65562 0.0
C109 C 0.6872 0.98311 0.68324 0.0
O110 O 0.6837 0.98791 0.66108 0.0
C111 C 0.79081 0.95438 0.68396 0.0
Zn112 Zn 0.49257 0.71898 0.84636 0.0
Zn113 Zn 0.50719 0.76517 0.82956 0.0
O114 O 0.50276 0.7729 0.86453 0.0
O115 O 0.49071 0.73466 0.87838 0.0
O116 O 0.5201 0.79954 0.81703 0.0
O117 O 0.52528 0.70201 0.83431 0.0
O118 O 0.53778 0.74034 0.82105 0.0
C119 C 0.4958 0.75862 0.88156 0.0
C120 C 0.45601 0.73951 0.81355 0.0
O121 O 0.47194 0.75864 0.81258 0.0
O122 O 0.4605 0.72015 0.82658 0.0
C123 C 0.51699 0.8063 0.796 0.0
O124 O 0.50413 0.79076 0.78189 0.0
C125 C 0.54197 0.71598 0.82388 0.0
Zn126 Zn 0.2872 0.53468 0.85488 0.0
Zn127 Zn 0.24278 0.52763 0.83197 0.0
O128 O 0.23153 0.52441 0.86645 0.0
O129 O 0.26863 0.53 0.88521 0.0
O130 O 0.20861 0.52716 0.81474 0.0
O131 O 0.29183 0.57097 0.84275 0.0
O132 O 0.25738 0.56348 0.82086 0.0
C133 C 0.24424 0.5259 0.88544 0.0
C134 C 0.2874 0.48987 0.82355 0.0
O135 O 0.26352 0.4958 0.82013 0.0
O136 O 0.30142 0.50372 0.8369 0.0
C137 C 0.20895 0.52892 0.79275 0.0
O138 O 0.23158 0.52829 0.78197 0.0
C139 C 0.27613 0.57828 0.82714 0.0
Zn140 Zn 0.49739 0.27668 0.85268 0.0
Zn141 Zn 0.48794 0.23654 0.82729 0.0
O142 O 0.48462 0.2225 0.86108 0.0
O143 O 0.48441 0.25897 0.88132 0.0
O144 O 0.4786 0.20521 0.80763 0.0
O145 O 0.47323 0.29932 0.8342 0.0
O146 O 0.45946 0.26331 0.8173 0.0
C147 C 0.48202 0.2344 0.88039 0.0
C148 C 0.54216 0.26152 0.82702 0.0
O149 O 0.52561 0.24662 0.81704 0.0
O150 O 0.53536 0.27504 0.84439 0.0
C151 C 0.48268 0.18167 0.81375 0.0
O152 O 0.4947 0.17701 0.83345 0.0
C153 C 0.4575 0.28787 0.82066 0.0
Zn154 Zn 0.71707 0.48656 0.85467 0.0
Zn155 Zn 0.76049 0.48404 0.83211 0.0
O156 O 0.77216 0.48046 0.86648 0.0
O157 O 0.73438 0.47461 0.88394 0.0
O158 O 0.79423 0.47898 0.81464 0.0
O159 O 0.69942 0.46044 0.83401 0.0
O160 O 0.73836 0.4531 0.81934 0.0
C161 C 0.75907 0.47534 0.88474 0.0
C162 C 0.7293 0.53481 0.83247 0.0
O163 O 0.74728 0.52115 0.82305 0.0
O164 O 0.71472 0.52487 0.84783 0.0
C165 C 0.794 0.47727 0.79264 0.0
O166 O 0.77184 0.48083 0.78157 0.0
C167 C 0.71419 0.44729 0.82084 0.0
Zn168 Zn 0.50473 0.27996 0.14423 0.0
Zn169 Zn 0.51423 0.23394 0.16389 0.0
O170 O 0.50944 0.22412 0.12928 0.0
O171 O 0.50306 0.26256 0.11304 0.0
O172 O 0.52283 0.19964 0.17908 0.0
O173 O 0.53806 0.29469 0.15753 0.0
O174 O 0.54701 0.25588 0.17196 0.0
C175 C 0.50502 0.23796 0.11131 0.0
C176 C 0.46555 0.26575 0.17715 0.0
O177 O 0.4801 0.24585 0.18033 0.0
O178 O 0.47157 0.28298 0.16238 0.0
C179 C 0.52273 0.19823 0.20108 0.0
O180 O 0.51602 0.21896 0.21317 0.0
C181 C 0.55316 0.27975 0.16876 0.0
Zn182 Zn 0.71427 0.50115 0.15298 0.0
Zn183 Zn 0.7608 0.5093 0.17091 0.0
O184 O 0.76909 0.50387 0.13612 0.0
O185 O 0.73035 0.49468 0.12167 0.0
O186 O 0.79596 0.51915 0.18408 0.0
O187 O 0.70101 0.53618 0.16252 0.0
O188 O 0.73917 0.54255 0.17917 0.0
C189 C 0.75475 0.49745 0.11896 0.0
C190 C 0.72748 0.46318 0.18743 0.0
O191 O 0.74955 0.47484 0.1876 0.0
O192 O 0.70908 0.47138 0.17474 0.0
C193 C 0.80245 0.51611 0.20519 0.0
O194 O 0.78618 0.50439 0.21942 0.0
C195 C 0.71605 0.55033 0.17458 0.0
Zn196 Zn 0.49596 0.72193 0.14519 0.0
Zn197 Zn 0.49025 0.76444 0.16888 0.0
O198 O 0.48606 0.77725 0.13487 0.0
O199 O 0.48288 0.73965 0.11649 0.0
O200 O 0.48252 0.79621 0.18849 0.0
O201 O 0.47102 0.70157 0.16502 0.0
O202 O 0.46087 0.73955 0.18038 0.0
C203 C 0.48189 0.76436 0.11629 0.0
C204 C 0.54309 0.73691 0.16799 0.0
O205 O 0.52812 0.75356 0.17773 0.0
O206 O 0.53431 0.7221 0.15223 0.0
C207 C 0.4827 0.81986 0.18172 0.0
O208 O 0.49002 0.82531 0.16042 0.0
C209 C 0.45668 0.71509 0.17826 0.0
Zn210 Zn 0.28554 0.48463 0.14739 0.0
Zn211 Zn 0.24086 0.48328 0.16956 0.0
O212 O 0.23012 0.48176 0.1349 0.0
O213 O 0.26779 0.4755 0.11735 0.0
O214 O 0.20654 0.47873 0.18613 0.0
O215 O 0.30087 0.45639 0.16747 0.0
O216 O 0.26136 0.45131 0.18195 0.0
C217 C 0.24314 0.47733 0.11645 0.0
C218 C 0.27422 0.53238 0.17185 0.0
O219 O 0.25518 0.51927 0.18015 0.0
O220 O 0.289 0.52243 0.15661 0.0
C221 C 0.20624 0.47624 0.20806 0.0
O222 O 0.22823 0.4789 0.2196 0.0
C223 C 0.28513 0.44418 0.18042 0.0
C224 C 0.0663 0.16933 0.30288 0.0
C225 C 0.06401 0.19657 0.30513 0.0
C226 C 0.09007 0.15796 0.29689 0.0
C227 C 0.15916 0.16899 0.30502 0.0
H228 H 0.16269 0.10177 0.27399 0.0
C229 C 0.22412 0.06685 0.30317 0.0
C230 C 0.22457 0.06352 0.32735 0.0
C231 C 0.21147 0.08859 0.29343 0.0
C232 C 0.16247 0.12082 0.28221 0.0
H233 H 0.08456 0.23341 0.30167 0.0
H234 H 0.12666 0.21333 0.29152 0.0
H235 H 0.1253 0.13028 0.2674 0.0
H236 H 0.21422 0.08113 0.3603 0.0
H237 H 0.19258 0.11872 0.34356 0.0
H238 H 0.19569 0.15892 0.32074 0.0
C239 C 0.10985 0.20086 0.29436 0.0
C240 C 0.14088 0.13706 0.27862 0.0
C241 C 0.08579 0.21235 0.30012 0.0
C242 C 0.21394 0.08308 0.34159 0.0
C243 C 0.20178 0.10483 0.33195 0.0
C244 C 0.18078 0.15278 0.30855 0.0
C245 C 0.11232 0.17348 0.29313 0.0
C246 C 0.13825 0.16056 0.29109 0.0
C247 C 0.19964 0.1075 0.30778 0.0
C248 C 0.18186 0.12783 0.2983 0.0
H249 H 0.04981 0.15664 0.30641 0.0
H250 H 0.09128 0.13682 0.2965 0.0
H251 H 0.15782 0.18699 0.31485 0.0
H252 H 0.23221 0.05201 0.29184 0.0
H253 H 0.21015 0.09016 0.27473 0.0
C254 C 0.90702 0.24185 0.298 0.0
C255 C 0.92689 0.22393 0.29265 0.0
C256 C 0.88075 0.23483 0.29489 0.0
C257 C 0.83763 0.17925 0.27534 0.0
H258 H 0.80855 0.1869 0.33704 0.0
C259 C 0.79432 0.1076 0.34659 0.0
C260 C 0.77717 0.09208 0.33347 0.0
C261 C 0.80305 0.13158 0.33812 0.0
C262 C 0.81615 0.18477 0.3196 0.0
H263 H 0.93543 0.18635 0.27723 0.0
H264 H 0.89018 0.17418 0.2716 0.0
H265 H 0.84274 0.21644 0.32426 0.0
H266 H 0.7544 0.0903 0.30179 0.0
H267 H 0.76997 0.13235 0.2868 0.0
H268 H 0.81286 0.14582 0.27169 0.0
C269 C 0.8943 0.19358 0.27818 0.0
C270 C 0.83558 0.20198 0.3121 0.0
C271 C 0.92038 0.20048 0.28146 0.0
C272 C 0.76768 0.10181 0.31227 0.0
C273 C 0.77666 0.12583 0.30365 0.0
C274 C 0.81832 0.16188 0.28294 0.0
C275 C 0.87413 0.20988 0.2863 0.0
C276 C 0.84779 0.19834 0.29046 0.0
C277 C 0.79499 0.14065 0.31624 0.0
C278 C 0.80862 0.16346 0.30572 0.0
H279 H 0.91161 0.26 0.3068 0.0
H280 H 0.86568 0.24803 0.30098 0.0
H281 H 0.84617 0.17629 0.25835 0.0
H282 H 0.80186 0.10077 0.36306 0.0
H283 H 0.81744 0.1422 0.34819 0.0
C284 C 0.7771 0.93498 0.30274 0.0
C285 C 0.7919 0.95746 0.30764 0.0
C286 C 0.78928 0.91261 0.2937 0.0
C287 C 0.8524 0.88812 0.26917 0.0
H288 H 0.84174 0.82968 0.3109 0.0
C289 C 0.93446 0.82796 0.30696 0.0
C290 C 0.93149 0.80111 0.31115 0.0
C291 C 0.91423 0.84236 0.2971 0.0
C292 C 0.84455 0.84543 0.2986 0.0
H293 H 0.83029 0.97508 0.30508 0.0
H294 H 0.85135 0.93657 0.28925 0.0
H295 H 0.80992 0.86508 0.30991 0.0
H296 H 0.9055 0.76794 0.30748 0.0
H297 H 0.86939 0.79355 0.29081 0.0
H298 H 0.8882 0.86945 0.25936 0.0
C299 C 0.83047 0.93588 0.29231 0.0
C300 C 0.82627 0.86576 0.298 0.0
C301 C 0.81845 0.95795 0.3016 0.0
C302 C 0.90827 0.78862 0.3043 0.0
C303 C 0.88766 0.80324 0.29486 0.0
C304 C 0.87072 0.8679 0.26987 0.0
C305 C 0.8163 0.91262 0.28905 0.0
C306 C 0.8308 0.88801 0.28426 0.0
C307 C 0.89033 0.83036 0.29158 0.0
C308 C 0.86767 0.84708 0.28553 0.0
H309 H 0.75659 0.9341 0.30732 0.0
H310 H 0.77784 0.895 0.29127 0.0
H311 H 0.85614 0.90476 0.25804 0.0
H312 H 0.95221 0.83803 0.31202 0.0
H313 H 0.91677 0.86327 0.29511 0.0
C314 C 0.07441 0.77648 0.31572 0.0
C315 C 0.0642 0.77377 0.33821 0.0
C316 C 0.09905 0.78799 0.31239 0.0
C317 C 0.15835 0.81151 0.34438 0.0
H318 H 0.15416 0.87089 0.30277 0.0
C319 C 0.20282 0.91108 0.36419 0.0
C320 C 0.2162 0.9248 0.34676 0.0
C321 C 0.19048 0.88741 0.35924 0.0
C322 C 0.15595 0.85408 0.31408 0.0
H323 H 0.07239 0.77877 0.3748 0.0
H324 H 0.11493 0.79845 0.36917 0.0
H325 H 0.12124 0.83642 0.3005 0.0
H326 H 0.22745 0.92436 0.3105 0.0
H327 H 0.20487 0.88312 0.30162 0.0
H328 H 0.19185 0.83034 0.35917 0.0
C329 C 0.10432 0.79185 0.354 0.0
C330 C 0.13714 0.83425 0.31274 0.0
C331 C 0.07977 0.78072 0.35727 0.0
C332 C 0.21732 0.91414 0.32428 0.0
C333 C 0.20442 0.89064 0.31919 0.0
C334 C 0.17693 0.83145 0.34588 0.0
C335 C 0.11391 0.79654 0.33153 0.0
C336 C 0.13743 0.81337 0.32863 0.0
C337 C 0.19083 0.87713 0.33664 0.0
C338 C 0.17522 0.85344 0.33141 0.0
H339 H 0.06269 0.77137 0.30074 0.0
H340 H 0.10599 0.79117 0.29487 0.0
H341 H 0.15947 0.79541 0.35653 0.0
H342 H 0.20172 0.91873 0.38169 0.0
H343 H 0.17985 0.87758 0.37295 0.0
C344 C 0.06502 0.82408 0.66951 0.0
C345 C 0.06358 0.79666 0.66963 0.0
C346 C 0.08831 0.83681 0.67494 0.0
C347 C 0.15825 0.82925 0.67106 0.0
H348 H 0.15791 0.89417 0.70588 0.0
C349 C 0.22363 0.92947 0.68805 0.0
C350 C 0.22739 0.93595 0.66461 0.0
C351 C 0.20962 0.90689 0.69405 0.0
C352 C 0.15866 0.87579 0.69656 0.0
H353 H 0.08541 0.76104 0.67592 0.0
H354 H 0.12665 0.78351 0.68488 0.0
H355 H 0.12004 0.8653 0.70744 0.0
H356 H 0.22173 0.92287 0.62921 0.0
H357 H 0.19779 0.88358 0.63958 0.0
H358 H 0.19631 0.84049 0.65914 0.0
C359 C 0.1095 0.79502 0.68079 0.0
C360 C 0.13684 0.85939 0.69728 0.0
C361 C 0.08594 0.7822 0.6757 0.0
C362 C 0.21896 0.91841 0.64742 0.0
C363 C 0.2054 0.89576 0.65339 0.0
C364 C 0.18003 0.84577 0.6702 0.0
C365 C 0.11089 0.82247 0.68038 0.0
C366 C 0.13598 0.83652 0.68377 0.0
C367 C 0.19962 0.89027 0.67671 0.0
C368 C 0.18001 0.86974 0.68218 0.0
H369 H 0.04813 0.8358 0.66504 0.0
H370 H 0.08886 0.85797 0.67411 0.0
H371 H 0.15813 0.81176 0.66045 0.0
H372 H 0.22987 0.94272 0.70163 0.0
H373 H 0.20556 0.90307 0.71218 0.0
C374 C 0.18224 0.07468 0.6757 0.0
C375 C 0.2096 0.07285 0.67642 0.0
C376 C 0.16957 0.09699 0.68384 0.0
C377 C 0.1786 0.16652 0.68762 0.0
H378 H 0.11075 0.16289 0.71743 0.0
C379 C 0.07454 0.22675 0.69938 0.0
C380 C 0.07046 0.23097 0.67561 0.0
C381 C 0.09746 0.21443 0.70701 0.0
C382 C 0.12995 0.16458 0.70966 0.0
H383 H 0.24517 0.09261 0.68692 0.0
H384 H 0.22285 0.13226 0.70064 0.0
H385 H 0.13949 0.12496 0.71812 0.0
H386 H 0.08777 0.22822 0.64146 0.0
H387 H 0.12778 0.20745 0.65462 0.0
H388 H 0.1683 0.2056 0.67784 0.0
C389 C 0.21131 0.11616 0.69398 0.0
C390 C 0.14631 0.14272 0.70987 0.0
C391 C 0.22404 0.0935 0.6862 0.0
C392 C 0.0906 0.22526 0.65991 0.0
C393 C 0.11358 0.21342 0.66751 0.0
C394 C 0.16215 0.18837 0.6873 0.0
C395 C 0.18395 0.1182 0.69262 0.0
C396 C 0.1702 0.14305 0.69785 0.0
C397 C 0.11669 0.20657 0.69096 0.0
C398 C 0.1371 0.18717 0.6973 0.0
H399 H 0.17058 0.05903 0.66839 0.0
H400 H 0.1485 0.0981 0.68222 0.0
H401 H 0.1969 0.16735 0.67821 0.0
H402 H 0.05911 0.23074 0.71175 0.0
H403 H 0.09939 0.20951 0.7252 0.0
C404 C 0.91097 0.22306 0.69039 0.0
C405 C 0.93299 0.20721 0.68651 0.0
C406 C 0.8873 0.2119 0.6976 0.0
C407 C 0.8573 0.14997 0.71919 0.0
H408 H 0.80275 0.16523 0.67457 0.0
C409 C 0.78735 0.08581 0.66195 0.0
C410 C 0.77774 0.06788 0.67825 0.0
C411 C 0.79784 0.1096 0.66913 0.0
C412 C 0.81755 0.16102 0.68747 0.0
H413 H 0.94814 0.16774 0.68894 0.0
H414 H 0.90724 0.1484 0.70152 0.0
H415 H 0.84013 0.19452 0.67795 0.0
H416 H 0.7697 0.06141 0.71468 0.0
H417 H 0.78867 0.10313 0.72743 0.0
H418 H 0.83591 0.11525 0.72724 0.0
C419 C 0.90802 0.16938 0.69906 0.0
C420 C 0.8389 0.17792 0.68954 0.0
C421 C 0.93146 0.18043 0.69161 0.0
C422 C 0.77694 0.07499 0.70178 0.0
C423 C 0.7879 0.09876 0.70906 0.0
C424 C 0.83596 0.13308 0.71712 0.0
C425 C 0.88543 0.18479 0.70141 0.0
C426 C 0.85973 0.17173 0.70445 0.0
C427 C 0.79932 0.11586 0.69284 0.0
C428 C 0.81665 0.13763 0.70026 0.0
H429 H 0.9116 0.2438 0.68661 0.0
H430 H 0.87024 0.22427 0.69936 0.0
H431 H 0.87286 0.14495 0.73113 0.0
H432 H 0.78807 0.08081 0.64369 0.0
H433 H 0.80671 0.1221 0.65616 0.0
C434 C 0.78734 0.91348 0.7081 0.0
C435 C 0.80277 0.93255 0.69706 0.0
C436 C 0.79898 0.89122 0.71782 0.0
C437 C 0.86398 0.86218 0.73297 0.0
H438 H 0.83405 0.79831 0.70846 0.0
C439 C 0.90557 0.77365 0.68046 0.0
C440 C 0.9293 0.76997 0.69213 0.0
C441 C 0.88481 0.78627 0.69135 0.0
C442 C 0.84257 0.81588 0.71575 0.0
H443 H 0.84255 0.94406 0.68898 0.0
H444 H 0.86262 0.90555 0.70553 0.0
H445 H 0.80817 0.83821 0.70868 0.0
H446 H 0.94938 0.77416 0.72492 0.0
H447 H 0.91284 0.79633 0.74428 0.0
H448 H 0.89926 0.84067 0.73778 0.0
C449 C 0.84163 0.90764 0.70697 0.0
C450 C 0.8276 0.83876 0.71608 0.0
C451 C 0.83005 0.92966 0.69718 0.0
C452 C 0.93113 0.77666 0.71567 0.0
C453 C 0.9103 0.78957 0.72662 0.0
C454 C 0.87903 0.83941 0.73241 0.0
C455 C 0.82625 0.88779 0.7169 0.0
C456 C 0.83875 0.86253 0.72331 0.0
C457 C 0.88745 0.79581 0.71412 0.0
C458 C 0.86905 0.81641 0.72236 0.0
H459 H 0.76626 0.9152 0.70836 0.0
H460 H 0.78659 0.87635 0.72546 0.0
H461 H 0.87289 0.88004 0.73929 0.0
H462 H 0.90383 0.76872 0.66224 0.0
H463 H 0.86777 0.79081 0.68099 0.0
C464 C 0.5891 0.71857 0.81147 0.0
C465 C 0.56644 0.7037 0.81557 0.0
C466 C 0.61275 0.70619 0.80589 0.0
C467 C 0.64091 0.64267 0.78676 0.0
H468 H 0.6974 0.65886 0.82919 0.0
C469 C 0.71497 0.57988 0.84163 0.0
C470 C 0.72374 0.56182 0.82505 0.0
C471 C 0.70365 0.6034 0.83479 0.0
C472 C 0.68201 0.65434 0.81692 0.0
H473 H 0.55046 0.66442 0.81576 0.0
H474 H 0.59132 0.64303 0.80598 0.0
H475 H 0.65999 0.68829 0.82644 0.0
H476 H 0.72937 0.55485 0.78835 0.0
H477 H 0.70901 0.59612 0.77619 0.0
H478 H 0.66185 0.60771 0.77857 0.0
C479 C 0.591 0.66417 0.807 0.0
C480 C 0.66065 0.6713 0.81523 0.0
C481 C 0.56759 0.67644 0.81287 0.0
C482 C 0.72285 0.56856 0.80146 0.0
C483 C 0.71106 0.59206 0.79453 0.0
C484 C 0.66227 0.62576 0.7884 0.0
C485 C 0.61397 0.67881 0.80389 0.0
C486 C 0.63926 0.66491 0.80102 0.0
C487 C 0.70046 0.60926 0.81115 0.0
C488 C 0.68239 0.63071 0.80441 0.0
H489 H 0.5888 0.73963 0.81342 0.0
H490 H 0.63015 0.71796 0.80357 0.0
H491 H 0.62488 0.63746 0.77537 0.0
H492 H 0.71551 0.57513 0.85995 0.0
H493 H 0.69549 0.61597 0.84807 0.0
C494 C 0.4083 0.74443 0.81485 0.0
C495 C 0.43078 0.74018 0.80156 0.0
C496 C 0.38396 0.73618 0.80681 0.0
C497 C 0.36062 0.68185 0.77138 0.0
H498 H 0.29548 0.70206 0.80065 0.0
C499 C 0.28211 0.60551 0.79153 0.0
C500 C 0.28075 0.60362 0.8158 0.0
C501 C 0.29241 0.62805 0.78115 0.0
C502 C 0.31332 0.69638 0.79187 0.0
H503 H 0.44562 0.72619 0.76873 0.0
H504 H 0.40281 0.71246 0.75407 0.0
H505 H 0.33014 0.73441 0.79573 0.0
H506 H 0.28677 0.62417 0.84817 0.0
H507 H 0.3038 0.66375 0.83016 0.0
H508 H 0.34416 0.64354 0.76852 0.0
C509 C 0.4039 0.72177 0.77092 0.0
C510 C 0.33329 0.71481 0.78921 0.0
C511 C 0.42837 0.72992 0.77912 0.0
C512 C 0.28764 0.62526 0.82942 0.0
C513 C 0.2972 0.64795 0.81907 0.0
C514 C 0.34048 0.66358 0.77366 0.0
C515 C 0.38164 0.72333 0.78528 0.0
C516 C 0.35787 0.70727 0.78047 0.0
C517 C 0.30072 0.64918 0.79493 0.0
C518 C 0.31733 0.67026 0.78528 0.0
H519 H 0.40987 0.75195 0.83238 0.0
H520 H 0.36755 0.73758 0.8186 0.0
H521 H 0.37915 0.67509 0.76461 0.0
H522 H 0.27708 0.58891 0.78073 0.0
H523 H 0.2951 0.6285 0.76252 0.0
C524 C 0.28425 0.44434 0.8072 0.0
C525 C 0.2992 0.46663 0.81249 0.0
C526 C 0.2965 0.42142 0.7994 0.0
C527 C 0.35883 0.39598 0.77542 0.0
H528 H 0.34767 0.33648 0.81587 0.0
C529 C 0.44069 0.33015 0.80565 0.0
C530 C 0.43661 0.30339 0.80958 0.0
C531 C 0.42035 0.34602 0.79801 0.0
C532 C 0.35059 0.35257 0.80393 0.0
H533 H 0.33828 0.483 0.81242 0.0
H534 H 0.35943 0.44348 0.79857 0.0
H535 H 0.31697 0.37302 0.81668 0.0
H536 H 0.4083 0.27195 0.8077 0.0
H537 H 0.37218 0.30011 0.79475 0.0
H538 H 0.39333 0.37632 0.76375 0.0
C539 C 0.33837 0.44348 0.80048 0.0
C540 C 0.333 0.37352 0.80441 0.0
C541 C 0.32628 0.46607 0.80863 0.0
C542 C 0.41196 0.29254 0.80473 0.0
C543 C 0.39133 0.30862 0.79743 0.0
C544 C 0.37635 0.37508 0.77492 0.0
C545 C 0.32375 0.42072 0.79625 0.0
C546 C 0.33774 0.39599 0.79104 0.0
C547 C 0.39527 0.33563 0.79437 0.0
C548 C 0.37317 0.35379 0.79006 0.0
H549 H 0.26333 0.44426 0.81008 0.0
H550 H 0.28479 0.40413 0.79629 0.0
H551 H 0.36269 0.41288 0.76463 0.0
H552 H 0.45953 0.33902 0.80913 0.0
H553 H 0.42398 0.36679 0.79616 0.0
C554 C 0.71926 0.40304 0.80231 0.0
C555 C 0.70331 0.42424 0.8087 0.0
C556 C 0.70802 0.37965 0.79443 0.0
C557 C 0.64481 0.34982 0.77548 0.0
H558 H 0.66601 0.29162 0.81413 0.0
C559 C 0.58883 0.27294 0.83251 0.0
C560 C 0.56853 0.26586 0.81741 0.0
C561 C 0.61173 0.28406 0.82394 0.0
C562 C 0.66005 0.30751 0.8029 0.0
H563 H 0.66339 0.43834 0.81008 0.0
H564 H 0.64393 0.39797 0.79641 0.0
H565 H 0.69393 0.33008 0.81136 0.0
H566 H 0.5571 0.26253 0.78136 0.0
H567 H 0.59733 0.28227 0.76622 0.0
H568 H 0.60981 0.32837 0.76874 0.0
C569 C 0.66504 0.39916 0.79739 0.0
C570 C 0.67618 0.32949 0.80114 0.0
C571 C 0.67619 0.42228 0.80548 0.0
C572 C 0.57252 0.26779 0.79337 0.0
C573 C 0.59544 0.27927 0.78474 0.0
C574 C 0.62864 0.3279 0.7773 0.0
C575 C 0.6807 0.37727 0.79246 0.0
C576 C 0.66797 0.35151 0.78851 0.0
C577 C 0.61477 0.28862 0.80004 0.0
C578 C 0.63536 0.30717 0.79216 0.0
H579 H 0.74025 0.40402 0.80459 0.0
H580 H 0.7206 0.36316 0.79066 0.0
H581 H 0.63821 0.36628 0.76522 0.0
H582 H 0.58628 0.27152 0.85113 0.0
H583 H 0.62599 0.29117 0.83632 0.0
C584 C 0.69926 0.43705 0.21307 0.0
C585 C 0.72268 0.43907 0.20061 0.0
C586 C 0.68902 0.41264 0.21871 0.0
C587 C 0.68758 0.34852 0.19154 0.0
H588 H 0.63306 0.33859 0.23741 0.0
C589 C 0.60017 0.27568 0.18111 0.0
C590 C 0.57728 0.2907 0.17896 0.0
C591 C 0.62323 0.2871 0.18958 0.0
C592 C 0.64857 0.34073 0.22474 0.0
H593 H 0.75512 0.41749 0.18607 0.0
H594 H 0.73736 0.37441 0.19617 0.0
H595 H 0.66751 0.37069 0.24444 0.0
H596 H 0.56014 0.32885 0.18495 0.0
H597 H 0.59996 0.34839 0.20038 0.0
H598 H 0.66779 0.31923 0.17148 0.0
C599 C 0.72676 0.39174 0.20145 0.0
C600 C 0.66821 0.3592 0.22866 0.0
C601 C 0.73714 0.41637 0.19594 0.0
C602 C 0.57754 0.31688 0.18625 0.0
C603 C 0.60024 0.32799 0.19527 0.0
C604 C 0.66815 0.32971 0.18782 0.0
C605 C 0.70187 0.3896 0.21178 0.0
C606 C 0.68697 0.36453 0.21144 0.0
C607 C 0.62336 0.31336 0.19673 0.0
C608 C 0.64771 0.32676 0.20381 0.0
H609 H 0.68769 0.45433 0.21666 0.0
H610 H 0.66975 0.412 0.22645 0.0
H611 H 0.70154 0.35208 0.17779 0.0
H612 H 0.60045 0.25545 0.17556 0.0
H613 H 0.64095 0.27555 0.1904 0.0
C614 C 0.58889 0.72458 0.15939 0.0
C615 C 0.57029 0.73291 0.17567 0.0
C616 C 0.61276 0.71438 0.16663 0.0
C617 C 0.63505 0.6746 0.2141 0.0
H618 H 0.6965 0.66998 0.17491 0.0
C619 C 0.67903 0.57861 0.18667 0.0
C620 C 0.70606 0.57548 0.18357 0.0
C621 C 0.66872 0.60258 0.19349 0.0
C622 C 0.67989 0.67135 0.18649 0.0
H623 H 0.56282 0.73934 0.2122 0.0
H624 H 0.60475 0.72105 0.22505 0.0
H625 H 0.66812 0.70822 0.17234 0.0
H626 H 0.74366 0.5948 0.18589 0.0
H627 H 0.72536 0.63744 0.19723 0.0
H628 H 0.64595 0.63703 0.22722 0.0
C629 C 0.6008 0.72246 0.20664 0.0
C630 C 0.6635 0.69318 0.1849 0.0
C631 C 0.57689 0.73305 0.19931 0.0
C632 C 0.72273 0.59671 0.18816 0.0
C633 C 0.7123 0.62104 0.19461 0.0
C634 C 0.65142 0.65284 0.2157 0.0
C635 C 0.61849 0.71196 0.19038 0.0
C636 C 0.64004 0.69424 0.19763 0.0
C637 C 0.68513 0.62422 0.19712 0.0
C638 C 0.67308 0.65027 0.20088 0.0
H639 H 0.58431 0.72442 0.14104 0.0
H640 H 0.62569 0.7063 0.15359 0.0
H641 H 0.61719 0.6747 0.22418 0.0
H642 H 0.66568 0.56256 0.18345 0.0
H643 H 0.64769 0.60445 0.19485 0.0
C644 C 0.43377 0.67525 0.19257 0.0
C645 C 0.43406 0.7025 0.18968 0.0
C646 C 0.41117 0.66252 0.19999 0.0
C647 C 0.34135 0.66895 0.19408 0.0
H648 H 0.34229 0.60355 0.22805 0.0
C649 C 0.28093 0.56471 0.20402 0.0
C650 C 0.28037 0.55889 0.18021 0.0
C651 C 0.29262 0.58793 0.21182 0.0
C652 C 0.34131 0.62208 0.21901 0.0
H653 H 0.41136 0.738 0.1936 0.0
H654 H 0.37145 0.71555 0.20623 0.0
H655 H 0.37874 0.63398 0.23189 0.0
H656 H 0.28931 0.57341 0.14585 0.0
H657 H 0.30902 0.61388 0.15926 0.0
H658 H 0.30469 0.65628 0.18008 0.0
C659 C 0.38884 0.70413 0.20281 0.0
C660 C 0.36233 0.6394 0.22104 0.0
C661 C 0.41168 0.71695 0.19567 0.0
C662 C 0.28956 0.57748 0.16431 0.0
C663 C 0.3007 0.60076 0.17202 0.0
C664 C 0.32038 0.65158 0.19199 0.0
C665 C 0.38819 0.6767 0.20448 0.0
C666 C 0.36319 0.66234 0.20764 0.0
C667 C 0.30333 0.6058 0.19587 0.0
C668 C 0.32082 0.62734 0.20347 0.0
H669 H 0.45076 0.66359 0.18825 0.0
H670 H 0.41129 0.64136 0.20079 0.0
H671 H 0.3414 0.68644 0.18351 0.0
H672 H 0.27409 0.55056 0.2166 0.0
H673 H 0.29437 0.59135 0.2303 0.0
C674 C 0.3117 0.42352 0.21141 0.0
C675 C 0.29447 0.42089 0.19268 0.0
C676 C 0.32478 0.40167 0.22016 0.0
C677 C 0.33195 0.32872 0.21295 0.0
H678 H 0.40519 0.34537 0.22159 0.0
C679 C 0.4175 0.2688 0.17901 0.0
C680 C 0.44156 0.26975 0.19057 0.0
C681 C 0.39555 0.28094 0.18854 0.0
C682 C 0.38474 0.34024 0.21988 0.0
H683 H 0.27637 0.39377 0.16886 0.0
H684 H 0.29995 0.35573 0.18322 0.0
H685 H 0.3734 0.38021 0.22104 0.0
H686 H 0.46154 0.28235 0.22167 0.0
H687 H 0.4231 0.30388 0.23844 0.0
H688 H 0.3441 0.28872 0.20975 0.0
C689 C 0.30287 0.37425 0.19192 0.0
C690 C 0.36633 0.36034 0.21958 0.0
C691 C 0.28941 0.39605 0.18353 0.0
C692 C 0.44298 0.28106 0.21269 0.0
C693 C 0.42108 0.29351 0.22215 0.0
C694 C 0.35049 0.3086 0.21293 0.0
C695 C 0.32148 0.37691 0.20982 0.0
C696 C 0.3398 0.35501 0.21518 0.0
C697 C 0.39752 0.29471 0.20959 0.0
C698 C 0.37719 0.3143 0.21554 0.0
H699 H 0.31582 0.44264 0.21865 0.0
H700 H 0.33839 0.40444 0.23432 0.0
H701 H 0.31163 0.32375 0.21013 0.0
H702 H 0.41619 0.26054 0.16173 0.0
H703 H 0.37782 0.28174 0.17831 0.0
C704 C 0.03495 0.33487 0.28453 0.0
C705 C 0.04324 0.32547 0.30623 0.0
C706 C 0.04766 0.35605 0.27411 0.0
C707 C 0.09397 0.41063 0.28557 0.0
H708 H 0.11421 0.39987 0.22147 0.0
C709 C 0.18309 0.46053 0.2437 0.0
C710 C 0.18245 0.46655 0.21992 0.0
C711 C 0.16197 0.44796 0.25426 0.0
C712 C 0.10831 0.40354 0.23922 0.0
H713 H 0.07063 0.33169 0.33444 0.0
H714 H 0.09283 0.36836 0.31624 0.0
H715 H 0.08437 0.36928 0.23992 0.0
H716 H 0.1584 0.4656 0.18893 0.0
H717 H 0.12143 0.44392 0.20746 0.0
H718 H 0.11858 0.4445 0.28501 0.0
C719 C 0.07641 0.35956 0.30732 0.0
C720 C 0.09118 0.38595 0.24982 0.0
C721 C 0.06379 0.33836 0.31768 0.0
C722 C 0.15963 0.46104 0.20725 0.0
C723 C 0.13848 0.44848 0.21782 0.0
C724 C 0.1111 0.42825 0.27495 0.0
C725 C 0.06883 0.36835 0.28523 0.0
C726 C 0.08428 0.38894 0.27327 0.0
C727 C 0.13969 0.44116 0.24131 0.0
C728 C 0.11893 0.42458 0.2518 0.0
H729 H 0.0191 0.32544 0.2753 0.0
H730 H 0.04117 0.36256 0.2572 0.0
H731 H 0.08869 0.4137 0.30356 0.0
H732 H 0.20034 0.46455 0.25399 0.0
H733 H 0.16369 0.44242 0.27233 0.0
C734 C 0.65959 0.03365 0.29282 0.0
C735 C 0.66274 0.04138 0.31606 0.0
C736 C 0.63956 0.04429 0.27928 0.0
C737 C 0.57851 0.08388 0.28192 0.0
H738 H 0.60279 0.11098 0.22293 0.0
C739 C 0.53316 0.17344 0.23731 0.0
C740 C 0.53243 0.1745 0.21297 0.0
C741 C 0.54472 0.15227 0.24862 0.0
C742 C 0.59543 0.10311 0.2391 0.0
H743 H 0.64634 0.06507 0.3437 0.0
H744 H 0.61174 0.08375 0.32011 0.0
H745 H 0.63074 0.08191 0.24518 0.0
H746 H 0.54208 0.15349 0.1814 0.0
H747 H 0.5622 0.11644 0.20118 0.0
H748 H 0.54357 0.10599 0.27616 0.0
C749 C 0.62455 0.06937 0.31232 0.0
C750 C 0.61148 0.0864 0.25188 0.0
C751 C 0.64455 0.05878 0.32582 0.0
C752 C 0.54249 0.15336 0.20018 0.0
C753 C 0.55411 0.13218 0.2115 0.0
C754 C 0.56246 0.10063 0.26913 0.0
C755 C 0.62224 0.06279 0.28873 0.0
C756 C 0.6035 0.07714 0.27372 0.0
C757 C 0.55583 0.13166 0.23583 0.0
C758 C 0.57103 0.11098 0.24786 0.0
H759 H 0.67318 0.02015 0.28481 0.0
H760 H 0.63806 0.03854 0.26124 0.0
H761 H 0.57162 0.07673 0.29851 0.0
H762 H 0.52552 0.18936 0.24769 0.0
H763 H 0.54597 0.15264 0.26737 0.0
C764 C 0.83449 0.52483 0.23726 0.0
C765 C 0.82668 0.52843 0.2141 0.0
C766 C 0.85581 0.53865 0.24627 0.0
C767 C 0.88982 0.60053 0.23829 0.0
H768 H 0.94173 0.57123 0.27976 0.0
C769 C 0.9664 0.66699 0.28095 0.0
C770 C 0.97129 0.66252 0.3046 0.0
C771 C 0.95306 0.6484 0.26766 0.0
C772 C 0.92727 0.57978 0.26835 0.0
H773 H 0.83587 0.54856 0.18197 0.0
H774 H 0.87285 0.57278 0.19778 0.0
H775 H 0.90995 0.54246 0.26102 0.0
H776 H 0.96708 0.63449 0.33256 0.0
H777 H 0.94318 0.60255 0.3097 0.0
H778 H 0.90604 0.63789 0.24626 0.0
C779 C 0.86239 0.55936 0.20897 0.0
C780 C 0.90914 0.56326 0.25757 0.0
C781 C 0.84127 0.54538 0.19992 0.0
C782 C 0.96368 0.63854 0.31437 0.0
C783 C 0.95005 0.6201 0.30117 0.0
C784 C 0.90769 0.61706 0.24923 0.0
C785 C 0.86959 0.55652 0.23235 0.0
C786 C 0.89008 0.57352 0.2426 0.0
C787 C 0.94397 0.62506 0.27778 0.0
C788 C 0.92652 0.60698 0.26462 0.0
H789 H 0.82373 0.51186 0.24863 0.0
H790 H 0.86081 0.53619 0.26439 0.0
H791 H 0.8751 0.60907 0.22711 0.0
H792 H 0.97226 0.68516 0.27284 0.0
H793 H 0.94935 0.65264 0.24956 0.0
C794 C 0.33034 0.95964 0.28424 0.0
C795 C 0.33987 0.97648 0.30157 0.0
C796 C 0.34754 0.94535 0.27038 0.0
C797 C 0.41596 0.93946 0.25068 0.0
H798 H 0.39792 0.86608 0.24496 0.0
C799 C 0.46769 0.86602 0.1885 0.0
C800 C 0.47144 0.84045 0.19681 0.0
C801 C 0.45406 0.88444 0.20179 0.0
C802 C 0.40337 0.88647 0.24654 0.0
H803 H 0.37503 0.99257 0.31704 0.0
H804 H 0.40513 0.96745 0.29277 0.0
H805 H 0.36903 0.89537 0.26606 0.0
H806 H 0.4652 0.81469 0.22621 0.0
H807 H 0.44164 0.84677 0.24931 0.0
H808 H 0.45052 0.93028 0.23116 0.0
C809 C 0.3843 0.9654 0.28995 0.0
C810 C 0.38663 0.90333 0.25838 0.0
C811 C 0.36705 0.9797 0.3039 0.0
C812 C 0.46244 0.83411 0.21915 0.0
C813 C 0.44882 0.85246 0.23237 0.0
C814 C 0.4327 0.92253 0.23864 0.0
C815 C 0.37469 0.94756 0.27346 0.0
C816 C 0.39267 0.93002 0.26056 0.0
C817 C 0.44387 0.8776 0.22361 0.0
C818 C 0.4266 0.89583 0.23654 0.0
H819 H 0.30953 0.95686 0.2818 0.0
H820 H 0.33955 0.93214 0.25751 0.0
H821 H 0.42108 0.95995 0.25203 0.0
H822 H 0.47443 0.87156 0.17138 0.0
H823 H 0.45048 0.90364 0.19454 0.0
C824 C 0.18588 0.54058 0.75591 0.0
C825 C 0.18493 0.53618 0.77996 0.0
C826 C 0.1645 0.55148 0.74435 0.0
C827 C 0.10968 0.59529 0.75624 0.0
H828 H 0.09129 0.58027 0.69236 0.0
C829 C 0.03671 0.65998 0.70613 0.0
C830 C 0.04499 0.66747 0.68385 0.0
C831 C 0.04946 0.63981 0.71798 0.0
C832 C 0.09623 0.58472 0.7102 0.0
H833 H 0.1601 0.53807 0.81044 0.0
H834 H 0.12273 0.55694 0.79019 0.0
H835 H 0.12128 0.55132 0.71297 0.0
H836 H 0.07252 0.659 0.65622 0.0
H837 H 0.09488 0.62422 0.67693 0.0
H838 H 0.08545 0.62916 0.75328 0.0
C839 C 0.14019 0.55235 0.78036 0.0
C840 C 0.11338 0.56813 0.722 0.0
C841 C 0.16156 0.5414 0.79193 0.0
C842 C 0.06567 0.65378 0.67338 0.0
C843 C 0.07838 0.63364 0.68519 0.0
C844 C 0.09257 0.61189 0.74444 0.0
C845 C 0.1417 0.55822 0.75658 0.0
C846 C 0.12077 0.57356 0.74499 0.0
C847 C 0.07072 0.62668 0.70778 0.0
C848 C 0.08613 0.60716 0.72111 0.0
H849 H 0.20354 0.5367 0.74614 0.0
H850 H 0.16642 0.55592 0.72607 0.0
H851 H 0.11523 0.60029 0.77382 0.0
H852 H 0.02074 0.67004 0.71464 0.0
H853 H 0.04288 0.63471 0.73525 0.0
C854 C 0.45987 0.16482 0.77832 0.0
C855 C 0.4719 0.15987 0.79979 0.0
C856 C 0.4478 0.14464 0.76598 0.0
C857 C 0.41587 0.08142 0.77504 0.0
H858 H 0.41781 0.07811 0.70786 0.0
C859 C 0.33534 0.03316 0.7199 0.0
C860 C 0.34232 0.02043 0.69919 0.0
C861 C 0.35424 0.04578 0.73334 0.0
C862 C 0.41733 0.07846 0.72664 0.0
H863 H 0.48137 0.12962 0.82478 0.0
H864 H 0.46022 0.09437 0.80318 0.0
H865 H 0.44622 0.1087 0.72829 0.0
H866 H 0.37492 0.00975 0.67704 0.0
H867 H 0.40793 0.03177 0.70059 0.0
H868 H 0.38665 0.05147 0.77336 0.0
C869 C 0.46 0.11394 0.79602 0.0
C870 C 0.43341 0.0962 0.73832 0.0
C871 C 0.47223 0.13412 0.80832 0.0
C872 C 0.36884 0.01948 0.69284 0.0
C873 C 0.38775 0.03222 0.70625 0.0
C874 C 0.3997 0.06374 0.76335 0.0
C875 C 0.44736 0.11906 0.77486 0.0
C876 C 0.43248 0.09825 0.76262 0.0
C877 C 0.38056 0.04603 0.72635 0.0
C878 C 0.39988 0.06242 0.73899 0.0
H879 H 0.45928 0.18441 0.77123 0.0
H880 H 0.43798 0.14931 0.74986 0.0
H881 H 0.41456 0.08263 0.79376 0.0
H882 H 0.3151 0.03421 0.72534 0.0
H883 H 0.34799 0.05642 0.74861 0.0
C884 C 0.96341 0.34214 0.70389 0.0
C885 C 0.95405 0.33456 0.68196 0.0
C886 C 0.95137 0.36255 0.71607 0.0
C887 C 0.905 0.41812 0.70971 0.0
H888 H 0.88612 0.40162 0.77315 0.0
C889 C 0.81643 0.46375 0.75593 0.0
C890 C 0.81746 0.46801 0.78 0.0
C891 C 0.83737 0.452 0.74437 0.0
C892 C 0.89164 0.40688 0.75563 0.0
H893 H 0.92562 0.34331 0.65515 0.0
H894 H 0.90469 0.37864 0.67633 0.0
H895 H 0.91573 0.37293 0.7521 0.0
H896 H 0.84194 0.46455 0.81058 0.0
H897 H 0.87858 0.44427 0.79033 0.0
H898 H 0.88025 0.45166 0.71303 0.0
C899 C 0.92136 0.369 0.68413 0.0
C900 C 0.90865 0.39039 0.74354 0.0
C901 C 0.93325 0.34857 0.67205 0.0
C902 C 0.84042 0.46139 0.79205 0.0
C903 C 0.86138 0.44963 0.78047 0.0
C904 C 0.88802 0.43464 0.7218 0.0
C905 C 0.9299 0.37589 0.70649 0.0
C906 C 0.915 0.39545 0.72025 0.0
C907 C 0.85986 0.44427 0.75658 0.0
C908 C 0.88061 0.42885 0.74472 0.0
H909 H 0.97944 0.33176 0.71198 0.0
H910 H 0.95856 0.36757 0.73318 0.0
H911 H 0.90986 0.42279 0.6919 0.0
H912 H 0.79907 0.46862 0.7461 0.0
H913 H 0.83538 0.44792 0.72602 0.0
C914 C 0.64219 0.9644 0.68702 0.0
C915 C 0.66536 0.97316 0.69755 0.0
C916 C 0.62319 0.95136 0.70004 0.0
C917 C 0.61826 0.91192 0.75331 0.0
H918 H 0.54419 0.91253 0.73908 0.0
C919 C 0.54627 0.84506 0.80151 0.0
C920 C 0.52969 0.83029 0.78712 0.0
C921 C 0.56022 0.86626 0.79258 0.0
C922 C 0.56484 0.91218 0.74322 0.0
H923 H 0.68589 0.97691 0.73029 0.0
H924 H 0.65243 0.95488 0.75312 0.0
H925 H 0.57325 0.94397 0.72025 0.0
H926 H 0.51381 0.827 0.75234 0.0
H927 H 0.53824 0.86401 0.73677 0.0
H928 H 0.60995 0.87997 0.77602 0.0
C929 C 0.64927 0.95731 0.73467 0.0
C930 C 0.5815 0.93013 0.73241 0.0
C931 C 0.66839 0.9701 0.72162 0.0
C932 C 0.5265 0.8379 0.76386 0.0
C933 C 0.54036 0.85922 0.75497 0.0
C934 C 0.60161 0.89416 0.76421 0.0
C935 C 0.62683 0.94701 0.72392 0.0
C936 C 0.6085 0.92993 0.73705 0.0
C937 C 0.55779 0.87326 0.76912 0.0
C938 C 0.5748 0.89381 0.75902 0.0
H939 H 0.63926 0.96644 0.6685 0.0
H940 H 0.6063 0.94353 0.6911 0.0
H941 H 0.63898 0.91076 0.75699 0.0
H942 H 0.54906 0.83984 0.81954 0.0
H943 H 0.57327 0.87693 0.80396 0.0
C944 C 0.00072 0.28299 0.40201 0.0
C945 C 0.9885 0.25945 0.3955 0.0
C946 C 0.99826 0.29249 0.42475 0.0
C947 C 0.95716 0.28685 0.47715 0.0
H948 H 0.02109 0.29542 0.51245 0.0
C949 C 0.96713 0.2547 0.57042 0.0
C950 C 0.9823 0.26892 0.58629 0.0
C951 C 0.96513 0.26272 0.54743 0.0
C952 C 0.00301 0.29385 0.50277 0.0
H953 H 0.96349 0.22795 0.40743 0.0
H954 H 0.959 0.24457 0.44666 0.0
H955 H 0.02306 0.29267 0.4701 0.0
H956 H 0.00662 0.30321 0.59084 0.0
H957 H 0.00368 0.31703 0.55002 0.0
H958 H 0.93725 0.28643 0.50978 0.0
C959 C 0.97048 0.25571 0.43434 0.0
C960 C 0.00415 0.29224 0.47854 0.0
C961 C 0.97328 0.24604 0.4119 0.0
C962 C 0.99473 0.29197 0.57892 0.0
C963 C 0.99313 0.29979 0.55562 0.0
C964 C 0.95602 0.2885 0.50128 0.0
C965 C 0.98306 0.2789 0.44109 0.0
C966 C 0.98135 0.2874 0.46564 0.0
C967 C 0.97855 0.285 0.53962 0.0
C968 C 0.97905 0.29067 0.51439 0.0
H969 H 0.0126 0.29371 0.38971 0.0
H970 H 0.00824 0.31036 0.42957 0.0
H971 H 0.93924 0.28357 0.46756 0.0
H972 H 0.95724 0.23692 0.57565 0.0
H973 H 0.95406 0.25068 0.53548 0.0
C974 C 0.74236 0.95876 0.58079 0.0
C975 C 0.72986 0.97363 0.59798 0.0
C976 C 0.73159 0.9566 0.55869 0.0
C977 C 0.69494 0.99525 0.51809 0.0
H978 H 0.70488 0.93383 0.47961 0.0
C979 C 0.703 0.0018 0.41802 0.0
C980 C 0.72724 0.99166 0.4109 0.0
C981 C 0.6932 0.99601 0.44018 0.0
C982 C 0.70158 0.95107 0.49014 0.0
H983 H 0.69566 0.99692 0.60594 0.0
H984 H 0.67698 0.99368 0.56674 0.0
H985 H 0.70526 0.92953 0.52179 0.0
H986 H 0.75936 0.9663 0.42054 0.0
H987 H 0.74219 0.95586 0.45868 0.0
H988 H 0.6931 0.01703 0.48639 0.0
C989 C 0.69503 0.98351 0.57059 0.0
C990 C 0.7018 0.94862 0.51425 0.0
C991 C 0.70564 0.98529 0.59297 0.0
C992 C 0.74071 0.97452 0.42565 0.0
C993 C 0.73073 0.96834 0.44742 0.0
C994 C 0.69468 0.99769 0.49391 0.0
C995 C 0.70821 0.96955 0.55311 0.0
C996 C 0.69997 0.97089 0.52845 0.0
C997 C 0.7072 0.97945 0.45518 0.0
C998 C 0.69947 0.97583 0.47976 0.0
H999 H 0.76099 0.94946 0.5842 0.0
H1000 H 0.74245 0.94601 0.54557 0.0
H1001 H 0.69356 0.01278 0.52857 0.0
H1002 H 0.69228 0.01513 0.40696 0.0
H1003 H 0.67505 0.00488 0.44578 0.0
C1004 C 0.99831 0.69647 0.58491 0.0
C1005 C 0.98376 0.71875 0.59101 0.0
C1006 C 0.99456 0.68457 0.5632 0.0
C1007 C 0.94891 0.68185 0.51319 0.0
H1008 H 0.01084 0.68573 0.47463 0.0
C1009 C 0.94969 0.72552 0.42369 0.0
C1010 C 0.96705 0.71675 0.40655 0.0
C1011 C 0.94879 0.71332 0.44528 0.0
C1012 C 0.99342 0.68367 0.48515 0.0
H1013 H 0.95289 0.74499 0.58009 0.0
H1014 H 0.94606 0.72416 0.54279 0.0
H1015 H 0.01525 0.68655 0.51676 0.0
H1016 H 0.99602 0.68742 0.39792 0.0
H1017 H 0.99498 0.66637 0.43621 0.0
H1018 H 0.92695 0.68112 0.48159 0.0
C1019 C 0.96041 0.71585 0.55447 0.0
C1020 C 0.99596 0.68415 0.50931 0.0
C1021 C 0.96453 0.72799 0.57575 0.0
C1022 C 0.98237 0.69447 0.41086 0.0
C1023 C 0.98186 0.68252 0.43274 0.0
C1024 C 0.94637 0.68138 0.48908 0.0
C1025 C 0.97571 0.69437 0.54771 0.0
C1026 C 0.97363 0.68488 0.52347 0.0
C1027 C 0.96556 0.69233 0.45036 0.0
C1028 C 0.9685 0.68392 0.47484 0.0
H1029 H 0.01327 0.68902 0.59644 0.0
H1030 H 0.0067 0.66812 0.55832 0.0
H1031 H 0.9314 0.68197 0.52375 0.0
H1032 H 0.93763 0.74261 0.42077 0.0
H1033 H 0.93626 0.7216 0.45853 0.0
C1034 C 0.32017 0.00369 0.58953 0.0
C1035 C 0.29953 0.02156 0.59219 0.0
C1036 C 0.33421 0.00271 0.56865 0.0
C1037 C 0.34619 0.03756 0.51324 0.0
H1038 H 0.33091 0.97113 0.48384 0.0
C1039 C 0.30239 0.02976 0.42471 0.0
C1040 C 0.30502 0.00725 0.41106 0.0
C1041 C 0.31604 0.0322 0.44547 0.0
C1042 C 0.33628 0.98958 0.49174 0.0
H1043 H 0.27874 0.05371 0.57626 0.0
H1044 H 0.30363 0.05262 0.54029 0.0
H1045 H 0.32921 0.97474 0.52588 0.0
H1046 H 0.32516 0.97032 0.40735 0.0
H1047 H 0.34903 0.97429 0.44425 0.0
H1048 H 0.35153 0.05285 0.47902 0.0
C1049 C 0.30895 0.03922 0.55405 0.0
C1050 C 0.33525 0.99164 0.51591 0.0
C1051 C 0.29455 0.03975 0.57456 0.0
C1052 C 0.32303 0.98794 0.41761 0.0
C1053 C 0.33651 0.99017 0.43873 0.0
C1054 C 0.34747 0.03545 0.4891 0.0
C1055 C 0.32824 0.02009 0.55051 0.0
C1056 C 0.3385 0.01605 0.52673 0.0
C1057 C 0.33237 0.01193 0.4533 0.0
C1058 C 0.3407 0.01188 0.47802 0.0
H1059 H 0.32421 0.98936 0.60288 0.0
H1060 H 0.34891 0.98771 0.56628 0.0
H1061 H 0.34914 0.05653 0.5212 0.0
H1062 H 0.28853 0.04486 0.41997 0.0
H1063 H 0.31199 0.04905 0.45627 0.0
C1064 C 0.47604 0.75705 0.92097 0.0
C1065 C 0.49226 0.76992 0.90498 0.0
C1066 C 0.47232 0.76715 0.94315 0.0
C1067 C 0.50432 0.80302 0.98834 0.0
H1068 H 0.43543 0.80028 0.01635 0.0
C1069 C 0.49088 0.80029 0.08775 0.0
C1070 C 0.47713 0.77757 0.09398 0.0
C1071 C 0.49 0.80946 0.06482 0.0
C1072 C 0.45476 0.80152 0.00877 0.0
H1073 H 0.51728 0.80361 0.8997 0.0
H1074 H 0.5114 0.82095 0.9392 0.0
H1075 H 0.43986 0.79724 0.97428 0.0
H1076 H 0.45021 0.74785 0.08192 0.0
H1077 H 0.44822 0.76396 0.04238 0.0
H1078 H 0.51935 0.8053 0.02297 0.0
C1079 C 0.50131 0.8032 0.9342 0.0
C1080 C 0.45729 0.79978 0.98472 0.0
C1081 C 0.50466 0.79329 0.91168 0.0
C1082 C 0.46105 0.76537 0.07752 0.0
C1083 C 0.45978 0.77474 0.05489 0.0
C1084 C 0.5018 0.80466 0.01249 0.0
C1085 C 0.48499 0.79021 0.95007 0.0
C1086 C 0.48215 0.79917 0.97439 0.0
C1087 C 0.47488 0.79635 0.04805 0.0
C1088 C 0.47706 0.80253 0.02297 0.0
H1089 H 0.46606 0.73911 0.91634 0.0
H1090 H 0.46 0.75648 0.95515 0.0
H1091 H 0.52371 0.80254 0.9808 0.0
H1092 H 0.50353 0.80994 0.10015 0.0
H1093 H 0.50181 0.82618 0.06001 0.0
C1094 C 0.21018 0.50502 0.91081 0.0
C1095 C 0.23114 0.52251 0.90804 0.0
C1096 C 0.20058 0.49935 0.93304 0.0
C1097 C 0.20085 0.52211 0.99408 0.0
H1098 H 0.20793 0.44891 0.0103 0.0
C1099 C 0.24278 0.46391 0.0749 0.0
C1100 C 0.23019 0.47632 0.09355 0.0
C1101 C 0.23313 0.46637 0.05239 0.0
C1102 C 0.20543 0.46937 0.006 0.0
H1103 H 0.25731 0.54902 0.92596 0.0
H1104 H 0.2403 0.53963 0.96444 0.0
H1105 H 0.20826 0.46192 0.96951 0.0
H1106 H 0.19673 0.49977 0.10347 0.0
H1107 H 0.18004 0.50452 0.06381 0.0
H1108 H 0.19978 0.5298 0.03054 0.0
C1109 C 0.23133 0.53014 0.94963 0.0
C1110 C 0.20542 0.47679 0.98265 0.0
C1111 C 0.24123 0.53536 0.92761 0.0
C1112 C 0.20682 0.48998 0.08942 0.0
C1113 C 0.19734 0.49278 0.06675 0.0
C1114 C 0.20064 0.51469 0.0174 0.0
C1115 C 0.21138 0.51161 0.95269 0.0
C1116 C 0.20437 0.50335 0.97654 0.0
C1117 C 0.21081 0.48156 0.04794 0.0
C1118 C 0.20416 0.48836 0.02362 0.0
H1119 H 0.20214 0.49479 0.89598 0.0
H1120 H 0.1852 0.48495 0.93496 0.0
H1121 H 0.19982 0.54271 0.98981 0.0
H1122 H 0.26075 0.45312 0.07757 0.0
H1123 H 0.24415 0.45772 0.03829 0.0
C1124 C 0.51091 0.20126 0.08249 0.0
C1125 C 0.50015 0.22565 0.08852 0.0
C1126 C 0.50637 0.19057 0.0604 0.0
C1127 C 0.46113 0.19383 0.01098 0.0
H1128 H 0.52152 0.18844 0.97066 0.0
C1129 C 0.46223 0.23174 0.91951 0.0
C1130 C 0.4775 0.22006 0.90218 0.0
C1131 C 0.46144 0.22121 0.94175 0.0
C1132 C 0.50442 0.18898 0.98172 0.0
H1133 H 0.47547 0.2574 0.07659 0.0
H1134 H 0.46721 0.23862 0.03863 0.0
H1135 H 0.52763 0.19051 0.0127 0.0
H1136 H 0.50291 0.18749 0.894 0.0
H1137 H 0.5021 0.16923 0.93349 0.0
H1138 H 0.43799 0.19415 0.98007 0.0
C1139 C 0.47925 0.22781 0.05075 0.0
C1140 C 0.50794 0.19021 0.00579 0.0
C1141 C 0.48423 0.23869 0.07242 0.0
C1142 C 0.49087 0.19673 0.90711 0.0
C1143 C 0.49051 0.1864 0.92965 0.0
C1144 C 0.4576 0.19249 0.98701 0.0
C1145 C 0.49037 0.20378 0.04442 0.0
C1146 C 0.48641 0.19416 0.02046 0.0
C1147 C 0.47626 0.19895 0.94732 0.0
C1148 C 0.4793 0.19165 0.97208 0.0
H1149 H 0.52325 0.19081 0.09461 0.0
H1150 H 0.51531 0.17209 0.0558 0.0
H1151 H 0.4442 0.19657 0.022 0.0
H1152 H 0.45173 0.24973 0.91611 0.0
H1153 H 0.45056 0.2316 0.95498 0.0
C1154 C 0.75967 0.45597 0.92418 0.0
C1155 C 0.772 0.47147 0.90736 0.0
C1156 C 0.76909 0.45521 0.94682 0.0
C1157 C 0.80032 0.49766 0.98835 0.0
H1158 H 0.79198 0.43672 0.02766 0.0
C1159 C 0.79008 0.50346 0.08899 0.0
C1160 C 0.76628 0.49214 0.09593 0.0
C1161 C 0.79989 0.49898 0.0666 0.0
C1162 C 0.7948 0.45386 0.0169 0.0
H1163 H 0.80463 0.49738 0.90065 0.0
H1164 H 0.82098 0.49649 0.94074 0.0
H1165 H 0.79429 0.43132 0.98563 0.0
H1166 H 0.73469 0.4665 0.08532 0.0
H1167 H 0.75192 0.4584 0.04673 0.0
H1168 H 0.79926 0.52028 0.01968 0.0
C1169 C 0.80408 0.48479 0.93622 0.0
C1170 C 0.79609 0.45079 0.99288 0.0
C1171 C 0.79483 0.4852 0.91331 0.0
C1172 C 0.75297 0.47566 0.08044 0.0
C1173 C 0.76298 0.47079 0.0584 0.0
C1174 C 0.79915 0.50072 0.01246 0.0
C1175 C 0.79093 0.4702 0.9533 0.0
C1176 C 0.79741 0.47275 0.9783 0.0
C1177 C 0.78637 0.48257 0.05114 0.0
C1178 C 0.79498 0.47894 0.02682 0.0
H1179 H 0.74209 0.44511 0.92004 0.0
H1180 H 0.75825 0.44407 0.95957 0.0
H1181 H 0.80123 0.51497 0.97758 0.0
H1182 H 0.80072 0.51627 0.10061 0.0
H1183 H 0.81791 0.50838 0.06132 0.0
loop_
_geom_bond_atom_site_label_1
_geom_bond_atom_site_label_2
_geom_bond_distance
_geom_bond_site_symmetry_2
_ccdc_geom_bond_type
Zn0 O3 2.031 . S
Zn0 O5 2.049 . S
Zn0 O10 2.049 1_455 S
Zn1 O2 1.962 . S
Zn1 O4 1.986 . S
Zn1 O6 1.996 . S
Zn1 O9 1.943 . S
O2 Zn1 1.962 . S
O2 C7 1.254 . S
O3 Zn0 2.031 . S
O3 C7 1.269 . S
O4 Zn1 1.986 . S
O4 C11 1.262 . S
O5 Zn0 2.049 . S
O5 C13 1.260 . S
O6 Zn1 1.996 . S
O6 C13 1.257 . S
C7 O2 1.254 . S
C7 O3 1.269 . S
C8 O9 1.249 1_655 S
C8 O10 1.278 . S
O9 Zn1 1.943 . S
O9 C8 1.249 1_455 S
O10 Zn0 2.049 1_655 S
O10 C8 1.278 . S
C11 O4 1.262 . S
C11 O12 1.232 . S
O12 C11 1.232 . S
C13 O5 1.260 . S
C13 O6 1.257 . S
Zn14 O17 2.031 . S
Zn14 O19 2.049 . S
Zn14 O24 2.049 1_545 S
Zn15 O16 1.962 . S
Zn15 O18 1.986 . S
Zn15 O20 1.996 . S
Zn15 O23 1.943 . S
O16 Zn15 1.962 . S
O16 C21 1.254 . S
O17 Zn14 2.031 . S
O17 C21 1.269 . S
O18 Zn15 1.986 . S
O18 C25 1.262 . S
O19 Zn14 2.049 . S
O19 C27 1.260 . S
O20 Zn15 1.996 . S
O20 C27 1.257 . S
C21 O16 1.254 . S
C21 O17 1.269 . S
C22 O23 1.249 1_565 S
C22 O24 1.278 . S
O23 Zn15 1.943 . S
O23 C22 1.249 1_545 S
O24 Zn14 2.049 1_565 S
O24 C22 1.278 . S
C25 O18 1.262 . S
C25 O26 1.232 . S
O26 C25 1.232 . S
C27 O19 1.260 . S
C27 O20 1.257 . S
Zn28 O31 2.031 . S
Zn28 O33 2.049 . S
Zn28 O38 2.049 1_655 S
Zn29 O30 1.962 . S
Zn29 O32 1.986 . S
Zn29 O34 1.996 . S
Zn29 O37 1.943 . S
O30 Zn29 1.962 . S
O30 C35 1.254 . S
O31 Zn28 2.031 . S
O31 C35 1.269 . S
O32 Zn29 1.986 . S
O32 C39 1.262 . S
O33 Zn28 2.049 . S
O33 C41 1.260 . S
O34 Zn29 1.996 . S
O34 C41 1.257 . S
C35 O30 1.254 . S
C35 O31 1.269 . S
C36 O37 1.249 1_455 S
C36 O38 1.279 . S
O37 Zn29 1.943 . S
O37 C36 1.249 1_655 S
O38 Zn28 2.049 1_455 S
O38 C36 1.279 . S
C39 O32 1.262 . S
C39 O40 1.232 . S
O40 C39 1.232 . S
C41 O33 1.260 . S
C41 O34 1.257 . S
Zn42 O45 2.031 . S
Zn42 O47 2.049 . S
Zn42 O52 2.049 1_565 S
Zn43 O44 1.962 . S
Zn43 O46 1.986 . S
Zn43 O48 1.996 . S
Zn43 O51 1.943 . S
O44 Zn43 1.962 . S
O44 C49 1.254 . S
O45 Zn42 2.031 . S
O45 C49 1.269 . S
O46 Zn43 1.986 . S
O46 C53 1.262 . S
O47 Zn42 2.049 . S
O47 C55 1.260 . S
O48 Zn43 1.996 . S
O48 C55 1.257 . S
C49 O44 1.254 . S
C49 O45 1.269 . S
C50 O51 1.249 1_545 S
C50 O52 1.279 . S
O51 Zn43 1.943 . S
O51 C50 1.249 1_565 S
O52 Zn42 2.049 1_545 S
O52 C50 1.279 . S
C53 O46 1.262 . S
C53 O54 1.232 . S
O54 C53 1.232 . S
C55 O47 1.260 . S
C55 O48 1.257 . S
Zn56 O59 2.031 . S
Zn56 O61 2.049 . S
Zn56 O66 2.049 1_455 S
Zn57 O58 1.962 . S
Zn57 O60 1.986 . S
Zn57 O62 1.996 . S
Zn57 O65 1.943 . S
O58 Zn57 1.962 . S
O58 C63 1.254 . S
O59 Zn56 2.031 . S
O59 C63 1.269 . S
O60 Zn57 1.986 . S
O60 C67 1.262 . S
O61 Zn56 2.049 . S
O61 C69 1.260 . S
O62 Zn57 1.996 . S
O62 C69 1.257 . S
C63 O58 1.254 . S
C63 O59 1.269 . S
C64 O65 1.249 1_655 S
C64 O66 1.279 . S
O65 Zn57 1.943 . S
O65 C64 1.249 1_455 S
O66 Zn56 2.049 1_655 S
O66 C64 1.279 . S
C67 O60 1.262 . S
C67 O68 1.232 . S
O68 C67 1.232 . S
C69 O61 1.260 . S
C69 O62 1.257 . S
Zn70 O73 2.031 . S
Zn70 O75 2.049 . S
Zn70 O80 2.049 1_545 S
Zn71 O72 1.962 . S
Zn71 O74 1.986 . S
Zn71 O76 1.996 . S
Zn71 O79 1.943 . S
O72 Zn71 1.962 . S
O72 C77 1.254 . S
O73 Zn70 2.031 . S
O73 C77 1.269 . S
O74 Zn71 1.986 . S
O74 C81 1.262 . S
O75 Zn70 2.049 . S
O75 C83 1.260 . S
O76 Zn71 1.996 . S
O76 C83 1.257 . S
C77 O72 1.254 . S
C77 O73 1.269 . S
C78 O79 1.249 1_565 S
C78 O80 1.279 . S
O79 Zn71 1.943 . S
O79 C78 1.249 1_545 S
O80 Zn70 2.049 1_565 S
O80 C78 1.279 . S
C81 O74 1.262 . S
C81 O82 1.232 . S
O82 C81 1.232 . S
C83 O75 1.260 . S
C83 O76 1.257 . S
Zn84 O87 2.031 . S
Zn84 O89 2.049 . S
Zn84 O94 2.049 1_655 S
Zn85 O86 1.962 . S
Zn85 O88 1.986 . S
Zn85 O90 1.996 . S
Zn85 O93 1.943 . S
O86 Zn85 1.962 . S
O86 C91 1.254 . S
O87 Zn84 2.031 . S
O87 C91 1.269 . S
O88 Zn85 1.986 . S
O88 C95 1.262 . S
O89 Zn84 2.049 . S
O89 C97 1.260 . S
O90 Zn85 1.996 . S
O90 C97 1.257 . S
C91 O86 1.254 . S
C91 O87 1.269 . S
C92 O93 1.249 1_455 S
C92 O94 1.278 . S
O93 Zn85 1.943 . S
O93 C92 1.249 1_655 S
O94 Zn84 2.049 1_455 S
O94 C92 1.278 . S
C95 O88 1.262 . S
C95 O96 1.232 . S
O96 C95 1.232 . S
C97 O89 1.260 . S
C97 O90 1.257 . S
Zn98 O101 2.031 . S
Zn98 O103 2.049 . S
Zn98 O108 2.049 1_565 S
Zn99 O100 1.962 . S
Zn99 O102 1.986 . S
Zn99 O104 1.996 . S
Zn99 O107 1.943 . S
O100 Zn99 1.962 . S
O100 C105 1.254 . S
O101 Zn98 2.031 . S
O101 C105 1.269 . S
O102 Zn99 1.986 . S
O102 C109 1.262 . S
O103 Zn98 2.049 . S
O103 C111 1.260 . S
O104 Zn99 1.996 . S
O104 C111 1.257 . S
C105 O100 1.254 . S
C105 O101 1.269 . S
C106 O107 1.249 1_545 S
C106 O108 1.278 . S
O107 Zn99 1.943 . S
O107 C106 1.249 1_565 S
O108 Zn98 2.049 1_545 S
O108 C106 1.278 . S
C109 O102 1.262 . S
C109 O110 1.232 . S
O110 C109 1.232 . S
C111 O103 1.260 . S
C111 O104 1.257 . S
Zn112 O115 2.031 . S
Zn112 O117 2.049 . S
Zn112 O122 2.067 . S
Zn113 O114 1.962 . S
Zn113 O116 1.986 . S
Zn113 O118 1.996 . S
Zn113 O121 1.943 . S
O114 Zn113 1.962 . S
O114 C119 1.254 . S
O115 Zn112 2.031 . S
O115 C119 1.269 . S
O116 Zn113 1.986 . S
O116 C123 1.262 . S
O117 Zn112 2.049 . S
O117 C125 1.260 . S
O118 Zn113 1.996 . S
O118 C125 1.257 . S
C119 O114 1.254 . S
C119 O115 1.269 . S
C120 O121 1.249 . S
C120 O122 1.270 . S
O121 Zn113 1.943 . S
O121 C120 1.249 . S
O122 Zn112 2.067 . S
O122 C120 1.270 . S
C123 O116 1.262 . S
C123 O124 1.232 . S
O124 C123 1.232 . S
C125 O117 1.260 . S
C125 O118 1.257 . S
Zn126 O129 2.031 . S
Zn126 O131 2.049 . S
Zn126 O136 2.067 . S
Zn127 O128 1.962 . S
Zn127 O130 1.986 . S
Zn127 O132 1.996 . S
Zn127 O135 1.943 . S
O128 Zn127 1.962 . S
O128 C133 1.254 . S
O129 Zn126 2.031 . S
O129 C133 1.269 . S
O130 Zn127 1.986 . S
O130 C137 1.262 . S
O131 Zn126 2.049 . S
O131 C139 1.260 . S
O132 Zn127 1.996 . S
O132 C139 1.257 . S
C133 O128 1.254 . S
C133 O129 1.269 . S
C134 O135 1.249 . S
C134 O136 1.270 . S
O135 Zn127 1.943 . S
O135 C134 1.249 . S
O136 Zn126 2.067 . S
O136 C134 1.270 . S
C137 O130 1.262 . S
C137 O138 1.232 . S
O138 C137 1.232 . S
C139 O131 1.260 . S
C139 O132 1.257 . S
Zn140 O143 2.031 . S
Zn140 O145 2.049 . S
Zn140 O150 2.067 . S
Zn141 O142 1.962 . S
Zn141 O144 1.986 . S
Zn141 O146 1.996 . S
Zn141 O149 1.943 . S
O142 Zn141 1.962 . S
O142 C147 1.254 . S
O143 Zn140 2.031 . S
O143 C147 1.269 . S
O144 Zn141 1.986 . S
O144 C151 1.262 . S
O145 Zn140 2.049 . S
O145 C153 1.260 . S
O146 Zn141 1.996 . S
O146 C153 1.257 . S
C147 O142 1.254 . S
C147 O143 1.269 . S
C148 O149 1.249 . S
C148 O150 1.270 . S
O149 Zn141 1.943 . S
O149 C148 1.249 . S
O150 Zn140 2.067 . S
O150 C148 1.270 . S
C151 O144 1.262 . S
C151 O152 1.232 . S
O152 C151 1.232 . S
C153 O145 1.260 . S
C153 O146 1.257 . S
Zn154 O157 2.031 . S
Zn154 O159 2.049 . S
Zn154 O164 2.067 . S
Zn155 O156 1.962 . S
Zn155 O158 1.986 . S
Zn155 O160 1.996 . S
Zn155 O163 1.943 . S
O156 Zn155 1.962 . S
O156 C161 1.254 . S
O157 Zn154 2.031 . S
O157 C161 1.269 . S
O158 Zn155 1.986 . S
O158 C165 1.262 . S
O159 Zn154 2.049 . S
O159 C167 1.260 . S
O160 Zn155 1.996 . S
O160 C167 1.257 . S
C161 O156 1.254 . S
C161 O157 1.269 . S
C162 O163 1.249 . S
C162 O164 1.270 . S
O163 Zn155 1.943 . S
O163 C162 1.249 . S
O164 Zn154 2.067 . S
O164 C162 1.270 . S
C165 O158 1.262 . S
C165 O166 1.232 . S
O166 C165 1.232 . S
C167 O159 1.260 . S
C167 O160 1.257 . S
Zn168 O171 2.031 . S
Zn168 O173 2.049 . S
Zn168 O178 2.067 . S
Zn169 O170 1.962 . S
Zn169 O172 1.986 . S
Zn169 O174 1.996 . S
Zn169 O177 1.943 . S
O170 Zn169 1.962 . S
O170 C175 1.254 . S
O171 Zn168 2.031 . S
O171 C175 1.269 . S
O172 Zn169 1.986 . S
O172 C179 1.262 . S
O173 Zn168 2.049 . S
O173 C181 1.260 . S
O174 Zn169 1.996 . S
O174 C181 1.257 . S
C175 O170 1.254 . S
C175 O171 1.269 . S
C176 O177 1.249 . S
C176 O178 1.270 . S
O177 Zn169 1.943 . S
O177 C176 1.249 . S
O178 Zn168 2.067 . S
O178 C176 1.270 . S
C179 O172 1.262 . S
C179 O180 1.232 . S
O180 C179 1.232 . S
C181 O173 1.260 . S
C181 O174 1.257 . S
Zn182 O185 2.031 . S
Zn182 O187 2.049 . S
Zn182 O192 2.067 . S
Zn183 O184 1.962 . S
Zn183 O186 1.986 . S
Zn183 O188 1.996 . S
Zn183 O191 1.943 . S
O184 Zn183 1.962 . S
O184 C189 1.254 . S
O185 Zn182 2.031 . S
O185 C189 1.269 . S
O186 Zn183 1.986 . S
O186 C193 1.262 . S
O187 Zn182 2.049 . S
O187 C195 1.260 . S
O188 Zn183 1.996 . S
O188 C195 1.257 . S
C189 O184 1.254 . S
C189 O185 1.269 . S
C190 O191 1.249 . S
C190 O192 1.270 . S
O191 Zn183 1.943 . S
O191 C190 1.249 . S
O192 Zn182 2.067 . S
O192 C190 1.270 . S
C193 O186 1.262 . S
C193 O194 1.232 . S
O194 C193 1.232 . S
C195 O187 1.260 . S
C195 O188 1.257 . S
Zn196 O199 2.031 . S
Zn196 O201 2.049 . S
Zn196 O206 2.067 . S
Zn197 O198 1.962 . S
Zn197 O200 1.986 . S
Zn197 O202 1.996 . S
Zn197 O205 1.943 . S
O198 Zn197 1.962 . S
O198 C203 1.254 . S
O199 Zn196 2.031 . S
O199 C203 1.269 . S
O200 Zn197 1.986 . S
O200 C207 1.262 . S
O201 Zn196 2.049 . S
O201 C209 1.260 . S
O202 Zn197 1.996 . S
O202 C209 1.257 . S
C203 O198 1.254 . S
C203 O199 1.269 . S
C204 O205 1.249 . S
C204 O206 1.270 . S
O205 Zn197 1.943 . S
O205 C204 1.249 . S
O206 Zn196 2.067 . S
O206 C204 1.270 . S
C207 O200 1.262 . S
C207 O208 1.232 . S
O208 C207 1.232 . S
C209 O201 1.260 . S
C209 O202 1.257 . S
Zn210 O213 2.031 . S
Zn210 O215 2.049 . S
Zn210 O220 2.067 . S
Zn211 O212 1.962 . S
Zn211 O214 1.986 . S
Zn211 O216 1.996 . S
Zn211 O219 1.943 . S
O212 Zn211 1.962 . S
O212 C217 1.254 . S
O213 Zn210 2.031 . S
O213 C217 1.269 . S
O214 Zn211 1.986 . S
O214 C221 1.262 . S
O215 Zn210 2.049 . S
O215 C223 1.260 . S
O216 Zn211 1.996 . S
O216 C223 1.257 . S
C217 O212 1.254 . S
C217 O213 1.269 . S
C218 O219 1.249 . S
C218 O220 1.270 . S
O219 Zn211 1.943 . S
O219 C218 1.249 . S
O220 Zn210 2.067 . S
O220 C218 1.270 . S
C221 O214 1.262 . S
C221 O222 1.232 . S
O222 C221 1.232 . S
C223 O215 1.260 . S
C223 O216 1.257 . S
C224 C225 1.349 . S
C224 C226 1.327 . S
C224 H249 0.950 . S
C225 C224 1.349 . S
C225 C241 1.349 . S
C226 C224 1.327 . S
C226 C245 1.429 . S
C226 H250 0.950 . S
C227 C244 1.574 . S
C227 C246 1.368 . S
C227 H251 0.949 . S
H228 C232 0.949 . S
C229 C230 1.349 . S
C229 C231 1.327 . S
C229 H252 0.950 . S
C230 C229 1.349 . S
C230 C242 1.349 . S
C231 C229 1.327 . S
C231 C247 1.429 . S
C231 H253 0.950 . S
C232 H228 0.949 . S
C232 C240 1.574 . S
C232 C248 1.368 . S
H233 C241 0.950 . S
H234 C239 0.950 . S
H235 C240 0.949 . S
H236 C242 0.950 . S
H237 C243 0.950 . S
H238 C244 0.949 . S
C239 H234 0.950 . S
C239 C241 1.327 . S
C239 C245 1.429 . S
C240 C232 1.574 . S
C240 H235 0.949 . S
C240 C246 1.368 . S
C241 C225 1.349 . S
C241 H233 0.950 . S
C241 C239 1.327 . S
C242 C230 1.349 . S
C242 H236 0.950 . S
C242 C243 1.327 . S
C243 H237 0.950 . S
C243 C242 1.327 . S
C243 C247 1.429 . S
C244 C227 1.574 . S
C244 H238 0.949 . S
C244 C248 1.368 . S
C245 C226 1.429 . S
C245 C239 1.429 . S
C245 C246 1.523 . S
C246 C227 1.368 . S
C246 C240 1.368 . S
C246 C245 1.523 . S
C247 C231 1.429 . S
C247 C243 1.429 . S
C247 C248 1.523 . S
C248 C232 1.368 . S
C248 C244 1.368 . S
C248 C247 1.523 . S
H249 C224 0.950 . S
H250 C226 0.950 . S
H251 C227 0.949 . S
H252 C229 0.950 . S
H253 C231 0.950 . S
C254 C255 1.349 . S
C254 C256 1.327 . S
C254 H279 0.950 . S
C255 C254 1.349 . S
C255 C271 1.349 . S
C256 C254 1.327 . S
C256 C275 1.429 . S
C256 H280 0.950 . S
C257 C274 1.574 . S
C257 C276 1.368 . S
C257 H281 0.949 . S
H258 C262 0.949 . S
C259 C260 1.349 . S
C259 C261 1.327 . S
C259 H282 0.950 . S
C260 C259 1.349 . S
C260 C272 1.349 . S
C261 C259 1.327 . S
C261 C277 1.429 . S
C261 H283 0.950 . S
C262 H258 0.949 . S
C262 C270 1.574 . S
C262 C278 1.368 . S
H263 C271 0.950 . S
H264 C269 0.950 . S
H265 C270 0.949 . S
H266 C272 0.950 . S
H267 C273 0.950 . S
H268 C274 0.949 . S
C269 H264 0.950 . S
C269 C271 1.327 . S
C269 C275 1.429 . S
C270 C262 1.574 . S
C270 H265 0.949 . S
C270 C276 1.368 . S
C271 C255 1.349 . S
C271 H263 0.950 . S
C271 C269 1.327 . S
C272 C260 1.349 . S
C272 H266 0.950 . S
C272 C273 1.327 . S
C273 H267 0.950 . S
C273 C272 1.327 . S
C273 C277 1.429 . S
C274 C257 1.574 . S
C274 H268 0.949 . S
C274 C278 1.368 . S
C275 C256 1.429 . S
C275 C269 1.429 . S
C275 C276 1.523 . S
C276 C257 1.368 . S
C276 C270 1.368 . S
C276 C275 1.523 . S
C277 C261 1.429 . S
C277 C273 1.429 . S
C277 C278 1.523 . S
C278 C262 1.368 . S
C278 C274 1.368 . S
C278 C277 1.523 . S
H279 C254 0.950 . S
H280 C256 0.950 . S
H281 C257 0.949 . S
H282 C259 0.950 . S
H283 C261 0.950 . S
C284 C285 1.349 . S
C284 C286 1.327 . S
C284 H309 0.950 . S
C285 C284 1.349 . S
C285 C301 1.349 . S
C286 C284 1.327 . S
C286 C305 1.429 . S
C286 H310 0.950 . S
C287 C304 1.574 . S
C287 C306 1.368 . S
C287 H311 0.949 . S
H288 C292 0.949 . S
C289 C290 1.349 . S
C289 C291 1.327 . S
C289 H312 0.950 . S
C290 C289 1.349 . S
C290 C302 1.349 . S
C291 C289 1.327 . S
C291 C307 1.429 . S
C291 H313 0.950 . S
C292 H288 0.949 . S
C292 C300 1.574 . S
C292 C308 1.368 . S
H293 C301 0.950 . S
H294 C299 0.950 . S
H295 C300 0.949 . S
H296 C302 0.950 . S
H297 C303 0.950 . S
H298 C304 0.949 . S
C299 H294 0.950 . S
C299 C301 1.327 . S
C299 C305 1.429 . S
C300 C292 1.574 . S
C300 H295 0.949 . S
C300 C306 1.368 . S
C301 C285 1.349 . S
C301 H293 0.950 . S
C301 C299 1.327 . S
C302 C290 1.349 . S
C302 H296 0.950 . S
C302 C303 1.327 . S
C303 H297 0.950 . S
C303 C302 1.327 . S
C303 C307 1.429 . S
C304 C287 1.574 . S
C304 H298 0.949 . S
C304 C308 1.368 . S
C305 C286 1.429 . S
C305 C299 1.429 . S
C305 C306 1.523 . S
C306 C287 1.368 . S
C306 C300 1.368 . S
C306 C305 1.523 . S
C307 C291 1.429 . S
C307 C303 1.429 . S
C307 C308 1.523 . S
C308 C292 1.368 . S
C308 C304 1.368 . S
C308 C307 1.523 . S
H309 C284 0.950 . S
H310 C286 0.950 . S
H311 C287 0.949 . S
H312 C289 0.950 . S
H313 C291 0.950 . S
C314 C315 1.349 . S
C314 C316 1.327 . S
C314 H339 0.950 . S
C315 C314 1.349 . S
C315 C331 1.349 . S
C316 C314 1.327 . S
C316 C335 1.429 . S
C316 H340 0.950 . S
C317 C334 1.574 . S
C317 C336 1.368 . S
C317 H341 0.949 . S
H318 C322 0.949 . S
C319 C320 1.349 . S
C319 C321 1.327 . S
C319 H342 0.950 . S
C320 C319 1.349 . S
C320 C332 1.349 . S
C321 C319 1.327 . S
C321 C337 1.429 . S
C321 H343 0.950 . S
C322 H318 0.949 . S
C322 C330 1.574 . S
C322 C338 1.368 . S
H323 C331 0.950 . S
H324 C329 0.950 . S
H325 C330 0.949 . S
H326 C332 0.950 . S
H327 C333 0.950 . S
H328 C334 0.949 . S
C329 H324 0.950 . S
C329 C331 1.327 . S
C329 C335 1.429 . S
C330 C322 1.574 . S
C330 H325 0.949 . S
C330 C336 1.368 . S
C331 C315 1.349 . S
C331 H323 0.950 . S
C331 C329 1.327 . S
C332 C320 1.349 . S
C332 H326 0.950 . S
C332 C333 1.327 . S
C333 H327 0.950 . S
C333 C332 1.327 . S
C333 C337 1.429 . S
C334 C317 1.574 . S
C334 H328 0.949 . S
C334 C338 1.368 . S
C335 C316 1.429 . S
C335 C329 1.429 . S
C335 C336 1.523 . S
C336 C317 1.368 . S
C336 C330 1.368 . S
C336 C335 1.523 . S
C337 C321 1.429 . S
C337 C333 1.429 . S
C337 C338 1.523 . S
C338 C322 1.368 . S
C338 C334 1.368 . S
C338 C337 1.523 . S
H339 C314 0.950 . S
H340 C316 0.950 . S
H341 C317 0.949 . S
H342 C319 0.950 . S
H343 C321 0.950 . S
C344 C345 1.349 . S
C344 C346 1.327 . S
C344 H369 0.950 . S
C345 C344 1.349 . S
C345 C361 1.349 . S
C346 C344 1.327 . S
C346 C365 1.429 . S
C346 H370 0.950 . S
C347 C364 1.574 . S
C347 C366 1.368 . S
C347 H371 0.949 . S
H348 C352 0.949 . S
C349 C350 1.349 . S
C349 C351 1.327 . S
C349 H372 0.950 . S
C350 C349 1.349 . S
C350 C362 1.349 . S
C351 C349 1.327 . S
C351 C367 1.429 . S
C351 H373 0.950 . S
C352 H348 0.949 . S
C352 C360 1.574 . S
C352 C368 1.368 . S
H353 C361 0.950 . S
H354 C359 0.950 . S
H355 C360 0.949 . S
H356 C362 0.950 . S
H357 C363 0.950 . S
H358 C364 0.949 . S
C359 H354 0.950 . S
C359 C361 1.327 . S
C359 C365 1.429 . S
C360 C352 1.574 . S
C360 H355 0.949 . S
C360 C366 1.368 . S
C361 C345 1.349 . S
C361 H353 0.950 . S
C361 C359 1.327 . S
C362 C350 1.349 . S
C362 H356 0.950 . S
C362 C363 1.327 . S
C363 H357 0.950 . S
C363 C362 1.327 . S
C363 C367 1.429 . S
C364 C347 1.574 . S
C364 H358 0.949 . S
C364 C368 1.368 . S
C365 C346 1.429 . S
C365 C359 1.429 . S
C365 C366 1.523 . S
C366 C347 1.368 . S
C366 C360 1.368 . S
C366 C365 1.523 . S
C367 C351 1.429 . S
C367 C363 1.429 . S
C367 C368 1.523 . S
C368 C352 1.368 . S
C368 C364 1.368 . S
C368 C367 1.523 . S
H369 C344 0.950 . S
H370 C346 0.950 . S
H371 C347 0.949 . S
H372 C349 0.950 . S
H373 C351 0.950 . S
C374 C375 1.349 . S
C374 C376 1.327 . S
C374 H399 0.950 . S
C375 C374 1.349 . S
C375 C391 1.349 . S
C376 C374 1.327 . S
C376 C395 1.429 . S
C376 H400 0.950 . S
C377 C394 1.574 . S
C377 C396 1.368 . S
C377 H401 0.949 . S
H378 C382 0.949 . S
C379 C380 1.349 . S
C379 C381 1.327 . S
C379 H402 0.950 . S
C380 C379 1.349 . S
C380 C392 1.349 . S
C381 C379 1.327 . S
C381 C397 1.429 . S
C381 H403 0.950 . S
C382 H378 0.949 . S
C382 C390 1.574 . S
C382 C398 1.368 . S
H383 C391 0.950 . S
H384 C389 0.950 . S
H385 C390 0.949 . S
H386 C392 0.950 . S
H387 C393 0.950 . S
H388 C394 0.949 . S
C389 H384 0.950 . S
C389 C391 1.327 . S
C389 C395 1.429 . S
C390 C382 1.574 . S
C390 H385 0.949 . S
C390 C396 1.368 . S
C391 C375 1.349 . S
C391 H383 0.950 . S
C391 C389 1.327 . S
C392 C380 1.349 . S
C392 H386 0.950 . S
C392 C393 1.327 . S
C393 H387 0.950 . S
C393 C392 1.327 . S
C393 C397 1.429 . S
C394 C377 1.574 . S
C394 H388 0.949 . S
C394 C398 1.368 . S
C395 C376 1.429 . S
C395 C389 1.429 . S
C395 C396 1.523 . S
C396 C377 1.368 . S
C396 C390 1.368 . S
C396 C395 1.523 . S
C397 C381 1.429 . S
C397 C393 1.429 . S
C397 C398 1.523 . S
C398 C382 1.368 . S
C398 C394 1.368 . S
C398 C397 1.523 . S
H399 C374 0.950 . S
H400 C376 0.950 . S
H401 C377 0.949 . S
H402 C379 0.950 . S
H403 C381 0.950 . S
C404 C405 1.349 . S
C404 C406 1.327 . S
C404 H429 0.950 . S
C405 C404 1.349 . S
C405 C421 1.349 . S
C406 C404 1.327 . S
C406 C425 1.429 . S
C406 H430 0.950 . S
C407 C424 1.574 . S
C407 C426 1.368 . S
C407 H431 0.949 . S
H408 C412 0.949 . S
C409 C410 1.349 . S
C409 C411 1.327 . S
C409 H432 0.950 . S
C410 C409 1.349 . S
C410 C422 1.349 . S
C411 C409 1.327 . S
C411 C427 1.429 . S
C411 H433 0.950 . S
C412 H408 0.949 . S
C412 C420 1.574 . S
C412 C428 1.368 . S
H413 C421 0.950 . S
H414 C419 0.950 . S
H415 C420 0.949 . S
H416 C422 0.950 . S
H417 C423 0.950 . S
H418 C424 0.949 . S
C419 H414 0.950 . S
C419 C421 1.327 . S
C419 C425 1.429 . S
C420 C412 1.574 . S
C420 H415 0.949 . S
C420 C426 1.368 . S
C421 C405 1.349 . S
C421 H413 0.950 . S
C421 C419 1.327 . S
C422 C410 1.349 . S
C422 H416 0.950 . S
C422 C423 1.327 . S
C423 H417 0.950 . S
C423 C422 1.327 . S
C423 C427 1.429 . S
C424 C407 1.574 . S
C424 H418 0.949 . S
C424 C428 1.368 . S
C425 C406 1.429 . S
C425 C419 1.429 . S
C425 C426 1.523 . S
C426 C407 1.368 . S
C426 C420 1.368 . S
C426 C425 1.523 . S
C427 C411 1.429 . S
C427 C423 1.429 . S
C427 C428 1.523 . S
C428 C412 1.368 . S
C428 C424 1.368 . S
C428 C427 1.523 . S
H429 C404 0.950 . S
H430 C406 0.950 . S
H431 C407 0.949 . S
H432 C409 0.950 . S
H433 C411 0.950 . S
C434 C435 1.349 . S
C434 C436 1.327 . S
C434 H459 0.950 . S
C435 C434 1.349 . S
C435 C451 1.349 . S
C436 C434 1.327 . S
C436 C455 1.429 . S
C436 H460 0.950 . S
C437 C454 1.574 . S
C437 C456 1.368 . S
C437 H461 0.949 . S
H438 C442 0.949 . S
C439 C440 1.349 . S
C439 C441 1.327 . S
C439 H462 0.950 . S
C440 C439 1.349 . S
C440 C452 1.349 . S
C441 C439 1.327 . S
C441 C457 1.429 . S
C441 H463 0.950 . S
C442 H438 0.949 . S
C442 C450 1.574 . S
C442 C458 1.368 . S
H443 C451 0.950 . S
H444 C449 0.950 . S
H445 C450 0.949 . S
H446 C452 0.950 . S
H447 C453 0.950 . S
H448 C454 0.949 . S
C449 H444 0.950 . S
C449 C451 1.327 . S
C449 C455 1.429 . S
C450 C442 1.574 . S
C450 H445 0.949 . S
C450 C456 1.368 . S
C451 C435 1.349 . S
C451 H443 0.950 . S
C451 C449 1.327 . S
C452 C440 1.349 . S
C452 H446 0.950 . S
C452 C453 1.327 . S
C453 H447 0.950 . S
C453 C452 1.327 . S
C453 C457 1.429 . S
C454 C437 1.574 . S
C454 H448 0.949 . S
C454 C458 1.368 . S
C455 C436 1.429 . S
C455 C449 1.429 . S
C455 C456 1.523 . S
C456 C437 1.368 . S
C456 C450 1.368 . S
C456 C455 1.523 . S
C457 C441 1.429 . S
C457 C453 1.429 . S
C457 C458 1.523 . S
C458 C442 1.368 . S
C458 C454 1.368 . S
C458 C457 1.523 . S
H459 C434 0.950 . S
H460 C436 0.950 . S
H461 C437 0.949 . S
H462 C439 0.950 . S
H463 C441 0.950 . S
C464 C465 1.349 . S
C464 C466 1.327 . S
C464 H489 0.950 . S
C465 C464 1.349 . S
C465 C481 1.349 . S
C466 C464 1.327 . S
C466 C485 1.429 . S
C466 H490 0.950 . S
C467 C484 1.574 . S
C467 C486 1.368 . S
C467 H491 0.949 . S
H468 C472 0.949 . S
C469 C470 1.349 . S
C469 C471 1.327 . S
C469 H492 0.950 . S
C470 C469 1.349 . S
C470 C482 1.349 . S
C471 C469 1.327 . S
C471 C487 1.429 . S
C471 H493 0.950 . S
C472 H468 0.949 . S
C472 C480 1.574 . S
C472 C488 1.368 . S
H473 C481 0.950 . S
H474 C479 0.950 . S
H475 C480 0.949 . S
H476 C482 0.950 . S
H477 C483 0.950 . S
H478 C484 0.949 . S
C479 H474 0.950 . S
C479 C481 1.327 . S
C479 C485 1.429 . S
C480 C472 1.574 . S
C480 H475 0.949 . S
C480 C486 1.368 . S
C481 C465 1.349 . S
C481 H473 0.950 . S
C481 C479 1.327 . S
C482 C470 1.349 . S
C482 H476 0.950 . S
C482 C483 1.327 . S
C483 H477 0.950 . S
C483 C482 1.327 . S
C483 C487 1.429 . S
C484 C467 1.574 . S
C484 H478 0.949 . S
C484 C488 1.368 . S
C485 C466 1.429 . S
C485 C479 1.429 . S
C485 C486 1.523 . S
C486 C467 1.368 . S
C486 C480 1.368 . S
C486 C485 1.523 . S
C487 C471 1.429 . S
C487 C483 1.429 . S
C487 C488 1.523 . S
C488 C472 1.368 . S
C488 C484 1.368 . S
C488 C487 1.523 . S
H489 C464 0.950 . S
H490 C466 0.950 . S
H491 C467 0.949 . S
H492 C469 0.950 . S
H493 C471 0.950 . S
C494 C495 1.349 . S
C494 C496 1.327 . S
C494 H519 0.950 . S
C495 C494 1.349 . S
C495 C511 1.349 . S
C496 C494 1.327 . S
C496 C515 1.429 . S
C496 H520 0.950 . S
C497 C514 1.574 . S
C497 C516 1.368 . S
C497 H521 0.949 . S
H498 C502 0.949 . S
C499 C500 1.349 . S
C499 C501 1.327 . S
C499 H522 0.950 . S
C500 C499 1.349 . S
C500 C512 1.349 . S
C501 C499 1.327 . S
C501 C517 1.429 . S
C501 H523 0.950 . S
C502 H498 0.949 . S
C502 C510 1.574 . S
C502 C518 1.368 . S
H503 C511 0.950 . S
H504 C509 0.950 . S
H505 C510 0.949 . S
H506 C512 0.950 . S
H507 C513 0.950 . S
H508 C514 0.949 . S
C509 H504 0.950 . S
C509 C511 1.327 . S
C509 C515 1.429 . S
C510 C502 1.574 . S
C510 H505 0.949 . S
C510 C516 1.368 . S
C511 C495 1.349 . S
C511 H503 0.950 . S
C511 C509 1.327 . S
C512 C500 1.349 . S
C512 H506 0.950 . S
C512 C513 1.327 . S
C513 H507 0.950 . S
C513 C512 1.327 . S
C513 C517 1.429 . S
C514 C497 1.574 . S
C514 H508 0.949 . S
C514 C518 1.368 . S
C515 C496 1.429 . S
C515 C509 1.429 . S
C515 C516 1.523 . S
C516 C497 1.368 . S
C516 C510 1.368 . S
C516 C515 1.523 . S
C517 C501 1.429 . S
C517 C513 1.429 . S
C517 C518 1.523 . S
C518 C502 1.368 . S
C518 C514 1.368 . S
C518 C517 1.523 . S
H519 C494 0.950 . S
H520 C496 0.950 . S
H521 C497 0.949 . S
H522 C499 0.950 . S
H523 C501 0.950 . S
C524 C525 1.349 . S
C524 C526 1.327 . S
C524 H549 0.950 . S
C525 C524 1.349 . S
C525 C541 1.349 . S
C526 C524 1.327 . S
C526 C545 1.429 . S
C526 H550 0.950 . S
C527 C544 1.574 . S
C527 C546 1.368 . S
C527 H551 0.949 . S
H528 C532 0.949 . S
C529 C530 1.349 . S
C529 C531 1.327 . S
C529 H552 0.950 . S
C530 C529 1.349 . S
C530 C542 1.349 . S
C531 C529 1.327 . S
C531 C547 1.429 . S
C531 H553 0.950 . S
C532 H528 0.949 . S
C532 C540 1.574 . S
C532 C548 1.368 . S
H533 C541 0.950 . S
H534 C539 0.950 . S
H535 C540 0.949 . S
H536 C542 0.950 . S
H537 C543 0.950 . S
H538 C544 0.949 . S
C539 H534 0.950 . S
C539 C541 1.327 . S
C539 C545 1.429 . S
C540 C532 1.574 . S
C540 H535 0.949 . S
C540 C546 1.368 . S
C541 C525 1.349 . S
C541 H533 0.950 . S
C541 C539 1.327 . S
C542 C530 1.349 . S
C542 H536 0.950 . S
C542 C543 1.327 . S
C543 H537 0.950 . S
C543 C542 1.327 . S
C543 C547 1.429 . S
C544 C527 1.574 . S
C544 H538 0.949 . S
C544 C548 1.368 . S
C545 C526 1.429 . S
C545 C539 1.429 . S
C545 C546 1.523 . S
C546 C527 1.368 . S
C546 C540 1.368 . S
C546 C545 1.523 . S
C547 C531 1.429 . S
C547 C543 1.429 . S
C547 C548 1.523 . S
C548 C532 1.368 . S
C548 C544 1.368 . S
C548 C547 1.523 . S
H549 C524 0.950 . S
H550 C526 0.950 . S
H551 C527 0.949 . S
H552 C529 0.950 . S
H553 C531 0.950 . S
C554 C555 1.349 . S
C554 C556 1.327 . S
C554 H579 0.950 . S
C555 C554 1.349 . S
C555 C571 1.349 . S
C556 C554 1.327 . S
C556 C575 1.429 . S
C556 H580 0.950 . S
C557 C574 1.574 . S
C557 C576 1.368 . S
C557 H581 0.949 . S
H558 C562 0.949 . S
C559 C560 1.349 . S
C559 C561 1.327 . S
C559 H582 0.950 . S
C560 C559 1.349 . S
C560 C572 1.349 . S
C561 C559 1.327 . S
C561 C577 1.429 . S
C561 H583 0.950 . S
C562 H558 0.949 . S
C562 C570 1.574 . S
C562 C578 1.368 . S
H563 C571 0.950 . S
H564 C569 0.950 . S
H565 C570 0.949 . S
H566 C572 0.950 . S
H567 C573 0.950 . S
H568 C574 0.949 . S
C569 H564 0.950 . S
C569 C571 1.327 . S
C569 C575 1.429 . S
C570 C562 1.574 . S
C570 H565 0.949 . S
C570 C576 1.368 . S
C571 C555 1.349 . S
C571 H563 0.950 . S
C571 C569 1.327 . S
C572 C560 1.349 . S
C572 H566 0.950 . S
C572 C573 1.327 . S
C573 H567 0.950 . S
C573 C572 1.327 . S
C573 C577 1.429 . S
C574 C557 1.574 . S
C574 H568 0.949 . S
C574 C578 1.368 . S
C575 C556 1.429 . S
C575 C569 1.429 . S
C575 C576 1.523 . S
C576 C557 1.368 . S
C576 C570 1.368 . S
C576 C575 1.523 . S
C577 C561 1.429 . S
C577 C573 1.429 . S
C577 C578 1.523 . S
C578 C562 1.368 . S
C578 C574 1.368 . S
C578 C577 1.523 . S
H579 C554 0.950 . S
H580 C556 0.950 . S
H581 C557 0.949 . S
H582 C559 0.950 . S
H583 C561 0.950 . S
C584 C585 1.349 . S
C584 C586 1.327 . S
C584 H609 0.950 . S
C585 C584 1.349 . S
C585 C601 1.349 . S
C586 C584 1.327 . S
C586 C605 1.429 . S
C586 H610 0.950 . S
C587 C604 1.574 . S
C587 C606 1.368 . S
C587 H611 0.949 . S
H588 C592 0.949 . S
C589 C590 1.349 . S
C589 C591 1.327 . S
C589 H612 0.950 . S
C590 C589 1.349 . S
C590 C602 1.349 . S
C591 C589 1.327 . S
C591 C607 1.429 . S
C591 H613 0.950 . S
C592 H588 0.949 . S
C592 C600 1.574 . S
C592 C608 1.368 . S
H593 C601 0.950 . S
H594 C599 0.950 . S
H595 C600 0.949 . S
H596 C602 0.950 . S
H597 C603 0.950 . S
H598 C604 0.949 . S
C599 H594 0.950 . S
C599 C601 1.327 . S
C599 C605 1.429 . S
C600 C592 1.574 . S
C600 H595 0.949 . S
C600 C606 1.368 . S
C601 C585 1.349 . S
C601 H593 0.950 . S
C601 C599 1.327 . S
C602 C590 1.349 . S
C602 H596 0.950 . S
C602 C603 1.327 . S
C603 H597 0.950 . S
C603 C602 1.327 . S
C603 C607 1.429 . S
C604 C587 1.574 . S
C604 H598 0.949 . S
C604 C608 1.368 . S
C605 C586 1.429 . S
C605 C599 1.429 . S
C605 C606 1.523 . S
C606 C587 1.368 . S
C606 C600 1.368 . S
C606 C605 1.523 . S
C607 C591 1.429 . S
C607 C603 1.429 . S
C607 C608 1.523 . S
C608 C592 1.368 . S
C608 C604 1.368 . S
C608 C607 1.523 . S
H609 C584 0.950 . S
H610 C586 0.950 . S
H611 C587 0.949 . S
H612 C589 0.950 . S
H613 C591 0.950 . S
C614 C615 1.349 . S
C614 C616 1.327 . S
C614 H639 0.950 . S
C615 C614 1.349 . S
C615 C631 1.349 . S
C616 C614 1.327 . S
C616 C635 1.429 . S
C616 H640 0.950 . S
C617 C634 1.574 . S
C617 C636 1.368 . S
C617 H641 0.949 . S
H618 C622 0.949 . S
C619 C620 1.349 . S
C619 C621 1.327 . S
C619 H642 0.950 . S
C620 C619 1.349 . S
C620 C632 1.349 . S
C621 C619 1.327 . S
C621 C637 1.429 . S
C621 H643 0.950 . S
C622 H618 0.949 . S
C622 C630 1.574 . S
C622 C638 1.368 . S
H623 C631 0.950 . S
H624 C629 0.950 . S
H625 C630 0.949 . S
H626 C632 0.950 . S
H627 C633 0.950 . S
H628 C634 0.949 . S
C629 H624 0.950 . S
C629 C631 1.327 . S
C629 C635 1.429 . S
C630 C622 1.574 . S
C630 H625 0.949 . S
C630 C636 1.368 . S
C631 C615 1.349 . S
C631 H623 0.950 . S
C631 C629 1.327 . S
C632 C620 1.349 . S
C632 H626 0.950 . S
C632 C633 1.327 . S
C633 H627 0.950 . S
C633 C632 1.327 . S
C633 C637 1.429 . S
C634 C617 1.574 . S
C634 H628 0.949 . S
C634 C638 1.368 . S
C635 C616 1.429 . S
C635 C629 1.429 . S
C635 C636 1.523 . S
C636 C617 1.368 . S
C636 C630 1.368 . S
C636 C635 1.523 . S
C637 C621 1.429 . S
C637 C633 1.429 . S
C637 C638 1.523 . S
C638 C622 1.368 . S
C638 C634 1.368 . S
C638 C637 1.523 . S
H639 C614 0.950 . S
H640 C616 0.950 . S
H641 C617 0.949 . S
H642 C619 0.950 . S
H643 C621 0.950 . S
C644 C645 1.349 . S
C644 C646 1.327 . S
C644 H669 0.950 . S
C645 C644 1.349 . S
C645 C661 1.349 . S
C646 C644 1.327 . S
C646 C665 1.429 . S
C646 H670 0.950 . S
C647 C664 1.574 . S
C647 C666 1.368 . S
C647 H671 0.949 . S
H648 C652 0.949 . S
C649 C650 1.349 . S
C649 C651 1.327 . S
C649 H672 0.950 . S
C650 C649 1.349 . S
C650 C662 1.349 . S
C651 C649 1.327 . S
C651 C667 1.429 . S
C651 H673 0.950 . S
C652 H648 0.949 . S
C652 C660 1.574 . S
C652 C668 1.368 . S
H653 C661 0.950 . S
H654 C659 0.950 . S
H655 C660 0.949 . S
H656 C662 0.950 . S
H657 C663 0.950 . S
H658 C664 0.949 . S
C659 H654 0.950 . S
C659 C661 1.327 . S
C659 C665 1.429 . S
C660 C652 1.574 . S
C660 H655 0.949 . S
C660 C666 1.368 . S
C661 C645 1.349 . S
C661 H653 0.950 . S
C661 C659 1.327 . S
C662 C650 1.349 . S
C662 H656 0.950 . S
C662 C663 1.327 . S
C663 H657 0.950 . S
C663 C662 1.327 . S
C663 C667 1.429 . S
C664 C647 1.574 . S
C664 H658 0.949 . S
C664 C668 1.368 . S
C665 C646 1.429 . S
C665 C659 1.429 . S
C665 C666 1.523 . S
C666 C647 1.368 . S
C666 C660 1.368 . S
C666 C665 1.523 . S
C667 C651 1.429 . S
C667 C663 1.429 . S
C667 C668 1.523 . S
C668 C652 1.368 . S
C668 C664 1.368 . S
C668 C667 1.523 . S
H669 C644 0.950 . S
H670 C646 0.950 . S
H671 C647 0.949 . S
H672 C649 0.950 . S
H673 C651 0.950 . S
C674 C675 1.349 . S
C674 C676 1.327 . S
C674 H699 0.950 . S
C675 C674 1.349 . S
C675 C691 1.349 . S
C676 C674 1.327 . S
C676 C695 1.429 . S
C676 H700 0.950 . S
C677 C694 1.574 . S
C677 C696 1.368 . S
C677 H701 0.949 . S
H678 C682 0.949 . S
C679 C680 1.349 . S
C679 C681 1.327 . S
C679 H702 0.950 . S
C680 C679 1.349 . S
C680 C692 1.349 . S
C681 C679 1.327 . S
C681 C697 1.429 . S
C681 H703 0.950 . S
C682 H678 0.949 . S
C682 C690 1.574 . S
C682 C698 1.368 . S
H683 C691 0.950 . S
H684 C689 0.950 . S
H685 C690 0.949 . S
H686 C692 0.950 . S
H687 C693 0.950 . S
H688 C694 0.949 . S
C689 H684 0.950 . S
C689 C691 1.327 . S
C689 C695 1.429 . S
C690 C682 1.574 . S
C690 H685 0.949 . S
C690 C696 1.368 . S
C691 C675 1.349 . S
C691 H683 0.950 . S
C691 C689 1.327 . S
C692 C680 1.349 . S
C692 H686 0.950 . S
C692 C693 1.327 . S
C693 H687 0.950 . S
C693 C692 1.327 . S
C693 C697 1.429 . S
C694 C677 1.574 . S
C694 H688 0.949 . S
C694 C698 1.368 . S
C695 C676 1.429 . S
C695 C689 1.429 . S
C695 C696 1.523 . S
C696 C677 1.368 . S
C696 C690 1.368 . S
C696 C695 1.523 . S
C697 C681 1.429 . S
C697 C693 1.429 . S
C697 C698 1.523 . S
C698 C682 1.368 . S
C698 C694 1.368 . S
C698 C697 1.523 . S
H699 C674 0.950 . S
H700 C676 0.950 . S
H701 C677 0.949 . S
H702 C679 0.950 . S
H703 C681 0.950 . S
C704 C705 1.349 . S
C704 C706 1.327 . S
C704 H729 0.950 . S
C705 C704 1.349 . S
C705 C721 1.349 . S
C706 C704 1.327 . S
C706 C725 1.429 . S
C706 H730 0.950 . S
C707 C724 1.574 . S
C707 C726 1.368 . S
C707 H731 0.949 . S
H708 C712 0.949 . S
C709 C710 1.349 . S
C709 C711 1.327 . S
C709 H732 0.950 . S
C710 C709 1.349 . S
C710 C722 1.349 . S
C711 C709 1.327 . S
C711 C727 1.429 . S
C711 H733 0.950 . S
C712 H708 0.949 . S
C712 C720 1.574 . S
C712 C728 1.368 . S
H713 C721 0.950 . S
H714 C719 0.950 . S
H715 C720 0.949 . S
H716 C722 0.950 . S
H717 C723 0.950 . S
H718 C724 0.949 . S
C719 H714 0.950 . S
C719 C721 1.327 . S
C719 C725 1.429 . S
C720 C712 1.574 . S
C720 H715 0.949 . S
C720 C726 1.368 . S
C721 C705 1.349 . S
C721 H713 0.950 . S
C721 C719 1.327 . S
C722 C710 1.349 . S
C722 H716 0.950 . S
C722 C723 1.327 . S
C723 H717 0.950 . S
C723 C722 1.327 . S
C723 C727 1.429 . S
C724 C707 1.574 . S
C724 H718 0.949 . S
C724 C728 1.368 . S
C725 C706 1.429 . S
C725 C719 1.429 . S
C725 C726 1.523 . S
C726 C707 1.368 . S
C726 C720 1.368 . S
C726 C725 1.523 . S
C727 C711 1.429 . S
C727 C723 1.429 . S
C727 C728 1.523 . S
C728 C712 1.368 . S
C728 C724 1.368 . S
C728 C727 1.523 . S
H729 C704 0.950 . S
H730 C706 0.950 . S
H731 C707 0.949 . S
H732 C709 0.950 . S
H733 C711 0.950 . S
C734 C735 1.349 . S
C734 C736 1.327 . S
C734 H759 0.950 . S
C735 C734 1.349 . S
C735 C751 1.349 . S
C736 C734 1.327 . S
C736 C755 1.429 . S
C736 H760 0.950 . S
C737 C754 1.574 . S
C737 C756 1.368 . S
C737 H761 0.949 . S
H738 C742 0.949 . S
C739 C740 1.349 . S
C739 C741 1.327 . S
C739 H762 0.950 . S
C740 C739 1.349 . S
C740 C752 1.349 . S
C741 C739 1.327 . S
C741 C757 1.429 . S
C741 H763 0.950 . S
C742 H738 0.949 . S
C742 C750 1.574 . S
C742 C758 1.368 . S
H743 C751 0.950 . S
H744 C749 0.950 . S
H745 C750 0.949 . S
H746 C752 0.950 . S
H747 C753 0.950 . S
H748 C754 0.949 . S
C749 H744 0.950 . S
C749 C751 1.327 . S
C749 C755 1.429 . S
C750 C742 1.574 . S
C750 H745 0.949 . S
C750 C756 1.368 . S
C751 C735 1.349 . S
C751 H743 0.950 . S
C751 C749 1.327 . S
C752 C740 1.349 . S
C752 H746 0.950 . S
C752 C753 1.327 . S
C753 H747 0.950 . S
C753 C752 1.327 . S
C753 C757 1.429 . S
C754 C737 1.574 . S
C754 H748 0.949 . S
C754 C758 1.368 . S
C755 C736 1.429 . S
C755 C749 1.429 . S
C755 C756 1.523 . S
C756 C737 1.368 . S
C756 C750 1.368 . S
C756 C755 1.523 . S
C757 C741 1.429 . S
C757 C753 1.429 . S
C757 C758 1.523 . S
C758 C742 1.368 . S
C758 C754 1.368 . S
C758 C757 1.523 . S
H759 C734 0.950 . S
H760 C736 0.950 . S
H761 C737 0.949 . S
H762 C739 0.950 . S
H763 C741 0.950 . S
C764 C765 1.349 . S
C764 C766 1.327 . S
C764 H789 0.950 . S
C765 C764 1.349 . S
C765 C781 1.349 . S
C766 C764 1.327 . S
C766 C785 1.429 . S
C766 H790 0.950 . S
C767 C784 1.574 . S
C767 C786 1.368 . S
C767 H791 0.949 . S
H768 C772 0.949 . S
C769 C770 1.349 . S
C769 C771 1.327 . S
C769 H792 0.950 . S
C770 C769 1.349 . S
C770 C782 1.349 . S
C771 C769 1.327 . S
C771 C787 1.429 . S
C771 H793 0.950 . S
C772 H768 0.949 . S
C772 C780 1.574 . S
C772 C788 1.368 . S
H773 C781 0.950 . S
H774 C779 0.950 . S
H775 C780 0.949 . S
H776 C782 0.950 . S
H777 C783 0.950 . S
H778 C784 0.949 . S
C779 H774 0.950 . S
C779 C781 1.327 . S
C779 C785 1.429 . S
C780 C772 1.574 . S
C780 H775 0.949 . S
C780 C786 1.368 . S
C781 C765 1.349 . S
C781 H773 0.950 . S
C781 C779 1.327 . S
C782 C770 1.349 . S
C782 H776 0.950 . S
C782 C783 1.327 . S
C783 H777 0.950 . S
C783 C782 1.327 . S
C783 C787 1.429 . S
C784 C767 1.574 . S
C784 H778 0.949 . S
C784 C788 1.368 . S
C785 C766 1.429 . S
C785 C779 1.429 . S
C785 C786 1.523 . S
C786 C767 1.368 . S
C786 C780 1.368 . S
C786 C785 1.523 . S
C787 C771 1.429 . S
C787 C783 1.429 . S
C787 C788 1.523 . S
C788 C772 1.368 . S
C788 C784 1.368 . S
C788 C787 1.523 . S
H789 C764 0.950 . S
H790 C766 0.950 . S
H791 C767 0.949 . S
H792 C769 0.950 . S
H793 C771 0.950 . S
C794 C795 1.349 . S
C794 C796 1.327 . S
C794 H819 0.950 . S
C795 C794 1.349 . S
C795 C811 1.349 . S
C796 C794 1.327 . S
C796 C815 1.429 . S
C796 H820 0.950 . S
C797 C814 1.574 . S
C797 C816 1.368 . S
C797 H821 0.949 . S
H798 C802 0.949 . S
C799 C800 1.349 . S
C799 C801 1.327 . S
C799 H822 0.950 . S
C800 C799 1.349 . S
C800 C812 1.349 . S
C801 C799 1.327 . S
C801 C817 1.429 . S
C801 H823 0.950 . S
C802 H798 0.949 . S
C802 C810 1.574 . S
C802 C818 1.368 . S
H803 C811 0.950 . S
H804 C809 0.950 . S
H805 C810 0.949 . S
H806 C812 0.950 . S
H807 C813 0.950 . S
H808 C814 0.949 . S
C809 H804 0.950 . S
C809 C811 1.327 . S
C809 C815 1.429 . S
C810 C802 1.574 . S
C810 H805 0.949 . S
C810 C816 1.368 . S
C811 C795 1.349 . S
C811 H803 0.950 . S
C811 C809 1.327 . S
C812 C800 1.349 . S
C812 H806 0.950 . S
C812 C813 1.327 . S
C813 H807 0.950 . S
C813 C812 1.327 . S
C813 C817 1.429 . S
C814 C797 1.574 . S
C814 H808 0.949 . S
C814 C818 1.368 . S
C815 C796 1.429 . S
C815 C809 1.429 . S
C815 C816 1.523 . S
C816 C797 1.368 . S
C816 C810 1.368 . S
C816 C815 1.523 . S
C817 C801 1.429 . S
C817 C813 1.429 . S
C817 C818 1.523 . S
C818 C802 1.368 . S
C818 C814 1.368 . S
C818 C817 1.523 . S
H819 C794 0.950 . S
H820 C796 0.950 . S
H821 C797 0.949 . S
H822 C799 0.950 . S
H823 C801 0.950 . S
C824 C825 1.349 . S
C824 C826 1.327 . S
C824 H849 0.950 . S
C825 C824 1.349 . S
C825 C841 1.349 . S
C826 C824 1.327 . S
C826 C845 1.429 . S
C826 H850 0.950 . S
C827 C844 1.574 . S
C827 C846 1.368 . S
C827 H851 0.949 . S
H828 C832 0.949 . S
C829 C830 1.349 . S
C829 C831 1.327 . S
C829 H852 0.950 . S
C830 C829 1.349 . S
C830 C842 1.349 . S
C831 C829 1.327 . S
C831 C847 1.429 . S
C831 H853 0.950 . S
C832 H828 0.949 . S
C832 C840 1.574 . S
C832 C848 1.368 . S
H833 C841 0.950 . S
H834 C839 0.950 . S
H835 C840 0.949 . S
H836 C842 0.950 . S
H837 C843 0.950 . S
H838 C844 0.949 . S
C839 H834 0.950 . S
C839 C841 1.327 . S
C839 C845 1.429 . S
C840 C832 1.574 . S
C840 H835 0.949 . S
C840 C846 1.368 . S
C841 C825 1.349 . S
C841 H833 0.950 . S
C841 C839 1.327 . S
C842 C830 1.349 . S
C842 H836 0.950 . S
C842 C843 1.327 . S
C843 H837 0.950 . S
C843 C842 1.327 . S
C843 C847 1.429 . S
C844 C827 1.574 . S
C844 H838 0.949 . S
C844 C848 1.368 . S
C845 C826 1.429 . S
C845 C839 1.429 . S
C845 C846 1.523 . S
C846 C827 1.368 . S
C846 C840 1.368 . S
C846 C845 1.523 . S
C847 C831 1.429 . S
C847 C843 1.429 . S
C847 C848 1.523 . S
C848 C832 1.368 . S
C848 C844 1.368 . S
C848 C847 1.523 . S
H849 C824 0.950 . S
H850 C826 0.950 . S
H851 C827 0.949 . S
H852 C829 0.950 . S
H853 C831 0.950 . S
C854 C855 1.349 . S
C854 C856 1.327 . S
C854 H879 0.950 . S
C855 C854 1.349 . S
C855 C871 1.349 . S
C856 C854 1.327 . S
C856 C875 1.429 . S
C856 H880 0.950 . S
C857 C874 1.574 . S
C857 C876 1.368 . S
C857 H881 0.949 . S
H858 C862 0.949 . S
C859 C860 1.349 . S
C859 C861 1.327 . S
C859 H882 0.950 . S
C860 C859 1.349 . S
C860 C872 1.349 . S
C861 C859 1.327 . S
C861 C877 1.429 . S
C861 H883 0.950 . S
C862 H858 0.949 . S
C862 C870 1.574 . S
C862 C878 1.368 . S
H863 C871 0.950 . S
H864 C869 0.950 . S
H865 C870 0.949 . S
H866 C872 0.950 . S
H867 C873 0.950 . S
H868 C874 0.949 . S
C869 H864 0.950 . S
C869 C871 1.327 . S
C869 C875 1.429 . S
C870 C862 1.574 . S
C870 H865 0.949 . S
C870 C876 1.368 . S
C871 C855 1.349 . S
C871 H863 0.950 . S
C871 C869 1.327 . S
C872 C860 1.349 . S
C872 H866 0.950 . S
C872 C873 1.327 . S
C873 H867 0.950 . S
C873 C872 1.327 . S
C873 C877 1.429 . S
C874 C857 1.574 . S
C874 H868 0.949 . S
C874 C878 1.368 . S
C875 C856 1.429 . S
C875 C869 1.429 . S
C875 C876 1.523 . S
C876 C857 1.368 . S
C876 C870 1.368 . S
C876 C875 1.523 . S
C877 C861 1.429 . S
C877 C873 1.429 . S
C877 C878 1.523 . S
C878 C862 1.368 . S
C878 C874 1.368 . S
C878 C877 1.523 . S
H879 C854 0.950 . S
H880 C856 0.950 . S
H881 C857 0.949 . S
H882 C859 0.950 . S
H883 C861 0.950 . S
C884 C885 1.349 . S
C884 C886 1.327 . S
C884 H909 0.950 . S
C885 C884 1.349 . S
C885 C901 1.349 . S
C886 C884 1.327 . S
C886 C905 1.429 . S
C886 H910 0.950 . S
C887 C904 1.574 . S
C887 C906 1.368 . S
C887 H911 0.949 . S
H888 C892 0.949 . S
C889 C890 1.349 . S
C889 C891 1.327 . S
C889 H912 0.950 . S
C890 C889 1.349 . S
C890 C902 1.349 . S
C891 C889 1.327 . S
C891 C907 1.429 . S
C891 H913 0.950 . S
C892 H888 0.949 . S
C892 C900 1.574 . S
C892 C908 1.368 . S
H893 C901 0.950 . S
H894 C899 0.950 . S
H895 C900 0.949 . S
H896 C902 0.950 . S
H897 C903 0.950 . S
H898 C904 0.949 . S
C899 H894 0.950 . S
C899 C901 1.327 . S
C899 C905 1.429 . S
C900 C892 1.574 . S
C900 H895 0.949 . S
C900 C906 1.368 . S
C901 C885 1.349 . S
C901 H893 0.950 . S
C901 C899 1.327 . S
C902 C890 1.349 . S
C902 H896 0.950 . S
C902 C903 1.327 . S
C903 H897 0.950 . S
C903 C902 1.327 . S
C903 C907 1.429 . S
C904 C887 1.574 . S
C904 H898 0.949 . S
C904 C908 1.368 . S
C905 C886 1.429 . S
C905 C899 1.429 . S
C905 C906 1.523 . S
C906 C887 1.368 . S
C906 C900 1.368 . S
C906 C905 1.523 . S
C907 C891 1.429 . S
C907 C903 1.429 . S
C907 C908 1.523 . S
C908 C892 1.368 . S
C908 C904 1.368 . S
C908 C907 1.523 . S
H909 C884 0.950 . S
H910 C886 0.950 . S
H911 C887 0.949 . S
H912 C889 0.950 . S
H913 C891 0.950 . S
C914 C915 1.349 . S
C914 C916 1.327 . S
C914 H939 0.950 . S
C915 C914 1.349 . S
C915 C931 1.349 . S
C916 C914 1.327 . S
C916 C935 1.429 . S
C916 H940 0.950 . S
C917 C934 1.574 . S
C917 C936 1.368 . S
C917 H941 0.949 . S
H918 C922 0.949 . S
C919 C920 1.349 . S
C919 C921 1.327 . S
C919 H942 0.950 . S
C920 C919 1.349 . S
C920 C932 1.349 . S
C921 C919 1.327 . S
C921 C937 1.429 . S
C921 H943 0.950 . S
C922 H918 0.949 . S
C922 C930 1.574 . S
C922 C938 1.368 . S
H923 C931 0.950 . S
H924 C929 0.950 . S
H925 C930 0.949 . S
H926 C932 0.950 . S
H927 C933 0.950 . S
H928 C934 0.949 . S
C929 H924 0.950 . S
C929 C931 1.327 . S
C929 C935 1.429 . S
C930 C922 1.574 . S
C930 H925 0.949 . S
C930 C936 1.368 . S
C931 C915 1.349 . S
C931 H923 0.950 . S
C931 C929 1.327 . S
C932 C920 1.349 . S
C932 H926 0.950 . S
C932 C933 1.327 . S
C933 H927 0.950 . S
C933 C932 1.327 . S
C933 C937 1.429 . S
C934 C917 1.574 . S
C934 H928 0.949 . S
C934 C938 1.368 . S
C935 C916 1.429 . S
C935 C929 1.429 . S
C935 C936 1.523 . S
C936 C917 1.368 . S
C936 C930 1.368 . S
C936 C935 1.523 . S
C937 C921 1.429 . S
C937 C933 1.429 . S
C937 C938 1.523 . S
C938 C922 1.368 . S
C938 C934 1.368 . S
C938 C937 1.523 . S
H939 C914 0.950 . S
H940 C916 0.950 . S
H941 C917 0.949 . S
H942 C919 0.950 . S
H943 C921 0.950 . S
C944 C945 1.349 . S
C944 C946 1.327 . S
C944 H969 0.950 . S
C945 C944 1.349 . S
C945 C961 1.349 . S
C946 C944 1.327 . S
C946 C965 1.429 . S
C946 H970 0.950 . S
C947 C964 1.574 . S
C947 C966 1.368 1_655 S
C947 H971 0.949 . S
H948 C952 0.949 . S
C949 C950 1.349 . S
C949 C951 1.327 . S
C949 H972 0.950 . S
C950 C949 1.349 . S
C950 C962 1.349 . S
C951 C949 1.327 . S
C951 C967 1.429 . S
C951 H973 0.950 . S
C952 H948 0.949 . S
C952 C960 1.574 . S
C952 C968 1.368 1_455 S
H953 C961 0.950 1_655 S
H954 C959 0.950 . S
H955 C960 0.949 . S
H956 C962 0.950 1_455 S
H957 C963 0.950 . S
H958 C964 0.949 . S
C959 H954 0.950 . S
C959 C961 1.327 1_655 S
C959 C965 1.429 1_655 S
C960 C952 1.574 . S
C960 H955 0.949 . S
C960 C966 1.368 . S
C961 C945 1.349 . S
C961 H953 0.950 1_455 S
C961 C959 1.327 1_455 S
C962 C950 1.349 . S
C962 H956 0.950 1_655 S
C962 C963 1.327 1_655 S
C963 H957 0.950 . S
C963 C962 1.327 1_455 S
C963 C967 1.429 1_455 S
C964 C947 1.574 . S
C964 H958 0.949 . S
C964 C968 1.368 . S
C965 C946 1.429 . S
C965 C959 1.429 1_455 S
C965 C966 1.523 . S
C966 C947 1.368 1_455 S
C966 C960 1.368 . S
C966 C965 1.523 . S
C967 C951 1.429 . S
C967 C963 1.429 1_655 S
C967 C968 1.523 . S
C968 C952 1.368 1_655 S
C968 C964 1.368 . S
C968 C967 1.523 . S
H969 C944 0.950 . S
H970 C946 0.950 . S
H971 C947 0.949 . S
H972 C949 0.950 . S
H973 C951 0.950 . S
C974 C975 1.349 . S
C974 C976 1.327 . S
C974 H999 0.950 . S
C975 C974 1.349 . S
C975 C991 1.349 1_565 S
C976 C974 1.327 . S
C976 C995 1.429 . S
C976 H1000 0.950 . S
C977 C994 1.574 . S
C977 C996 1.368 1_545 S
C977 H1001 0.949 . S
H978 C982 0.949 . S
C979 C980 1.349 . S
C979 C981 1.327 . S
C979 H1002 0.950 . S
C980 C979 1.349 . S
C980 C992 1.349 1_545 S
C981 C979 1.327 . S
C981 C997 1.429 . S
C981 H1003 0.950 . S
C982 H978 0.949 . S
C982 C990 1.574 . S
C982 C998 1.368 1_565 S
H983 C991 0.950 . S
H984 C989 0.950 . S
H985 C990 0.949 . S
H986 C992 0.950 . S
H987 C993 0.950 . S
H988 C994 0.949 . S
C989 H984 0.950 . S
C989 C991 1.327 . S
C989 C995 1.429 1_545 S
C990 C982 1.574 . S
C990 H985 0.949 . S
C990 C996 1.368 . S
C991 C975 1.349 1_545 S
C991 H983 0.950 . S
C991 C989 1.327 . S
C992 C980 1.349 1_565 S
C992 H986 0.950 . S
C992 C993 1.327 . S
C993 H987 0.950 . S
C993 C992 1.327 . S
C993 C997 1.429 1_565 S
C994 C977 1.574 . S
C994 H988 0.949 . S
C994 C998 1.368 . S
C995 C976 1.429 . S
C995 C989 1.429 1_565 S
C995 C996 1.523 . S
C996 C977 1.368 1_565 S
C996 C990 1.368 . S
C996 C995 1.523 . S
C997 C981 1.429 . S
C997 C993 1.429 1_545 S
C997 C998 1.523 . S
C998 C982 1.368 1_545 S
C998 C994 1.368 . S
C998 C997 1.523 . S
H999 C974 0.950 . S
H1000 C976 0.950 . S
H1001 C977 0.949 . S
H1002 C979 0.950 . S
H1003 C981 0.950 . S
C1004 C1005 1.349 . S
C1004 C1006 1.327 . S
C1004 H1029 0.950 . S
C1005 C1004 1.349 . S
C1005 C1021 1.349 . S
C1006 C1004 1.327 . S
C1006 C1025 1.429 . S
C1006 H1030 0.950 . S
C1007 C1024 1.574 . S
C1007 C1026 1.368 1_655 S
C1007 H1031 0.949 . S
H1008 C1012 0.949 . S
C1009 C1010 1.349 . S
C1009 C1011 1.327 . S
C1009 H1032 0.950 . S
C1010 C1009 1.349 . S
C1010 C1022 1.349 . S
C1011 C1009 1.327 . S
C1011 C1027 1.429 . S
C1011 H1033 0.950 . S
C1012 H1008 0.949 . S
C1012 C1020 1.574 . S
C1012 C1028 1.368 1_455 S
H1013 C1021 0.950 1_655 S
H1014 C1019 0.950 . S
H1015 C1020 0.949 . S
H1016 C1022 0.950 1_455 S
H1017 C1023 0.950 . S
H1018 C1024 0.949 . S
C1019 H1014 0.950 . S
C1019 C1021 1.327 1_655 S
C1019 C1025 1.429 1_655 S
C1020 C1012 1.574 . S
C1020 H1015 0.949 . S
C1020 C1026 1.368 . S
C1021 C1005 1.349 . S
C1021 H1013 0.950 1_455 S
C1021 C1019 1.327 1_455 S
C1022 C1010 1.349 . S
C1022 H1016 0.950 1_655 S
C1022 C1023 1.327 1_655 S
C1023 H1017 0.950 . S
C1023 C1022 1.327 1_455 S
C1023 C1027 1.429 1_455 S
C1024 C1007 1.574 . S
C1024 H1018 0.949 . S
C1024 C1028 1.368 . S
C1025 C1006 1.429 . S
C1025 C1019 1.429 1_455 S
C1025 C1026 1.523 . S
C1026 C1007 1.368 1_455 S
C1026 C1020 1.368 . S
C1026 C1025 1.523 . S
C1027 C1011 1.429 . S
C1027 C1023 1.429 1_655 S
C1027 C1028 1.523 . S
C1028 C1012 1.368 1_655 S
C1028 C1024 1.368 . S
C1028 C1027 1.523 . S
H1029 C1004 0.950 . S
H1030 C1006 0.950 . S
H1031 C1007 0.949 . S
H1032 C1009 0.950 . S
H1033 C1011 0.950 . S
C1034 C1035 1.349 1_565 S
C1034 C1036 1.327 . S
C1034 H1059 0.950 . S
C1035 C1034 1.349 1_545 S
C1035 C1051 1.349 . S
C1036 C1034 1.327 . S
C1036 C1055 1.429 1_565 S
C1036 H1060 0.950 . S
C1037 C1054 1.574 . S
C1037 C1056 1.368 . S
C1037 H1061 0.949 . S
H1038 C1042 0.949 . S
C1039 C1040 1.349 1_545 S
C1039 C1041 1.327 . S
C1039 H1062 0.950 . S
C1040 C1039 1.349 1_565 S
C1040 C1052 1.349 . S
C1041 C1039 1.327 . S
C1041 C1057 1.429 1_545 S
C1041 H1063 0.950 . S
C1042 H1038 0.949 . S
C1042 C1050 1.574 . S
C1042 C1058 1.368 . S
H1043 C1051 0.950 . S
H1044 C1049 0.950 . S
H1045 C1050 0.949 . S
H1046 C1052 0.950 . S
H1047 C1053 0.950 . S
H1048 C1054 0.949 . S
C1049 H1044 0.950 . S
C1049 C1051 1.327 . S
C1049 C1055 1.429 . S
C1050 C1042 1.574 . S
C1050 H1045 0.949 . S
C1050 C1056 1.368 1_565 S
C1051 C1035 1.349 . S
C1051 H1043 0.950 . S
C1051 C1049 1.327 . S
C1052 C1040 1.349 . S
C1052 H1046 0.950 . S
C1052 C1053 1.327 . S
C1053 H1047 0.950 . S
C1053 C1052 1.327 . S
C1053 C1057 1.429 . S
C1054 C1037 1.574 . S
C1054 H1048 0.949 . S
C1054 C1058 1.368 1_545 S
C1055 C1036 1.429 1_545 S
C1055 C1049 1.429 . S
C1055 C1056 1.523 . S
C1056 C1037 1.368 . S
C1056 C1050 1.368 1_545 S
C1056 C1055 1.523 . S
C1057 C1041 1.429 1_565 S
C1057 C1053 1.429 . S
C1057 C1058 1.523 . S
C1058 C1042 1.368 . S
C1058 C1054 1.368 1_565 S
C1058 C1057 1.523 . S
H1059 C1034 0.950 . S
H1060 C1036 0.950 . S
H1061 C1037 0.949 . S
H1062 C1039 0.950 . S
H1063 C1041 0.950 . S
C1064 C1065 1.349 . S
C1064 C1066 1.327 . S
C1064 H1089 0.950 . S
C1065 C1064 1.349 . S
C1065 C1081 1.349 . S
C1066 C1064 1.327 . S
C1066 C1085 1.429 . S
C1066 H1090 0.950 . S
C1067 C1084 1.574 1_556 S
C1067 C1086 1.368 . S
C1067 H1091 0.949 . S
H1068 C1072 0.949 . S
C1069 C1070 1.349 . S
C1069 C1071 1.327 . S
C1069 H1092 0.950 . S
C1070 C1069 1.349 . S
C1070 C1082 1.349 . S
C1071 C1069 1.327 . S
C1071 C1087 1.429 . S
C1071 H1093 0.950 . S
C1072 H1068 0.949 . S
C1072 C1080 1.574 1_554 S
C1072 C1088 1.368 . S
H1073 C1081 0.950 . S
H1074 C1079 0.950 . S
H1075 C1080 0.949 . S
H1076 C1082 0.950 . S
H1077 C1083 0.950 . S
H1078 C1084 0.949 . S
C1079 H1074 0.950 . S
C1079 C1081 1.327 . S
C1079 C1085 1.429 . S
C1080 C1072 1.574 1_556 S
C1080 H1075 0.949 . S
C1080 C1086 1.368 . S
C1081 C1065 1.349 . S
C1081 H1073 0.950 . S
C1081 C1079 1.327 . S
C1082 C1070 1.349 . S
C1082 H1076 0.950 . S
C1082 C1083 1.327 . S
C1083 H1077 0.950 . S
C1083 C1082 1.327 . S
C1083 C1087 1.429 . S
C1084 C1067 1.574 1_554 S
C1084 H1078 0.949 . S
C1084 C1088 1.368 . S
C1085 C1066 1.429 . S
C1085 C1079 1.429 . S
C1085 C1086 1.523 . S
C1086 C1067 1.368 . S
C1086 C1080 1.368 . S
C1086 C1085 1.523 . S
C1087 C1071 1.429 . S
C1087 C1083 1.429 . S
C1087 C1088 1.523 . S
C1088 C1072 1.368 . S
C1088 C1084 1.368 . S
C1088 C1087 1.523 . S
H1089 C1064 0.950 . S
H1090 C1066 0.950 . S
H1091 C1067 0.949 . S
H1092 C1069 0.950 . S
H1093 C1071 0.950 . S
C1094 C1095 1.349 . S
C1094 C1096 1.327 . S
C1094 H1119 0.950 . S
C1095 C1094 1.349 . S
C1095 C1111 1.349 . S
C1096 C1094 1.327 . S
C1096 C1115 1.429 . S
C1096 H1120 0.950 . S
C1097 C1114 1.574 1_556 S
C1097 C1116 1.368 . S
C1097 H1121 0.949 . S
H1098 C1102 0.949 . S
C1099 C1100 1.349 . S
C1099 C1101 1.327 . S
C1099 H1122 0.950 . S
C1100 C1099 1.349 . S
C1100 C1112 1.349 . S
C1101 C1099 1.327 . S
C1101 C1117 1.429 . S
C1101 H1123 0.950 . S
C1102 H1098 0.949 . S
C1102 C1110 1.574 1_554 S
C1102 C1118 1.368 . S
H1103 C1111 0.950 . S
H1104 C1109 0.950 . S
H1105 C1110 0.949 . S
H1106 C1112 0.950 . S
H1107 C1113 0.950 . S
H1108 C1114 0.949 . S
C1109 H1104 0.950 . S
C1109 C1111 1.327 . S
C1109 C1115 1.429 . S
C1110 C1102 1.574 1_556 S
C1110 H1105 0.949 . S
C1110 C1116 1.368 . S
C1111 C1095 1.349 . S
C1111 H1103 0.950 . S
C1111 C1109 1.327 . S
C1112 C1100 1.349 . S
C1112 H1106 0.950 . S
C1112 C1113 1.327 . S
C1113 H1107 0.950 . S
C1113 C1112 1.327 . S
C1113 C1117 1.429 . S
C1114 C1097 1.574 1_554 S
C1114 H1108 0.949 . S
C1114 C1118 1.368 . S
C1115 C1096 1.429 . S
C1115 C1109 1.429 . S
C1115 C1116 1.523 . S
C1116 C1097 1.368 . S
C1116 C1110 1.368 . S
C1116 C1115 1.523 . S
C1117 C1101 1.429 . S
C1117 C1113 1.429 . S
C1117 C1118 1.523 . S
C1118 C1102 1.368 . S
C1118 C1114 1.368 . S
C1118 C1117 1.523 . S
H1119 C1094 0.950 . S
H1120 C1096 0.950 . S
H1121 C1097 0.949 . S
H1122 C1099 0.950 . S
H1123 C1101 0.950 . S
C1124 C1125 1.349 . S
C1124 C1126 1.327 . S
C1124 H1149 0.950 . S
C1125 C1124 1.349 . S
C1125 C1141 1.349 . S
C1126 C1124 1.327 . S
C1126 C1145 1.429 . S
C1126 H1150 0.950 . S
C1127 C1144 1.574 1_554 S
C1127 C1146 1.368 . S
C1127 H1151 0.949 . S
H1128 C1132 0.949 . S
C1129 C1130 1.349 . S
C1129 C1131 1.327 . S
C1129 H1152 0.950 . S
C1130 C1129 1.349 . S
C1130 C1142 1.349 . S
C1131 C1129 1.327 . S
C1131 C1147 1.429 . S
C1131 H1153 0.950 . S
C1132 H1128 0.949 . S
C1132 C1140 1.574 1_556 S
C1132 C1148 1.368 . S
H1133 C1141 0.950 . S
H1134 C1139 0.950 . S
H1135 C1140 0.949 . S
H1136 C1142 0.950 . S
H1137 C1143 0.950 . S
H1138 C1144 0.949 . S
C1139 H1134 0.950 . S
C1139 C1141 1.327 . S
C1139 C1145 1.429 . S
C1140 C1132 1.574 1_554 S
C1140 H1135 0.949 . S
C1140 C1146 1.368 . S
C1141 C1125 1.349 . S
C1141 H1133 0.950 . S
C1141 C1139 1.327 . S
C1142 C1130 1.349 . S
C1142 H1136 0.950 . S
C1142 C1143 1.327 . S
C1143 H1137 0.950 . S
C1143 C1142 1.327 . S
C1143 C1147 1.429 . S
C1144 C1127 1.574 1_556 S
C1144 H1138 0.949 . S
C1144 C1148 1.368 . S
C1145 C1126 1.429 . S
C1145 C1139 1.429 . S
C1145 C1146 1.523 . S
C1146 C1127 1.368 . S
C1146 C1140 1.368 . S
C1146 C1145 1.523 . S
C1147 C1131 1.429 . S
C1147 C1143 1.429 . S
C1147 C1148 1.523 . S
C1148 C1132 1.368 . S
C1148 C1144 1.368 . S
C1148 C1147 1.523 . S
H1149 C1124 0.950 . S
H1150 C1126 0.950 . S
H1151 C1127 0.949 . S
H1152 C1129 0.950 . S
H1153 C1131 0.950 . S
C1154 C1155 1.349 . S
C1154 C1156 1.327 . S
C1154 H1179 0.950 . S
C1155 C1154 1.349 . S
C1155 C1171 1.349 . S
C1156 C1154 1.327 . S
C1156 C1175 1.429 . S
C1156 H1180 0.950 . S
C1157 C1174 1.574 1_556 S
C1157 C1176 1.368 . S
C1157 H1181 0.949 . S
H1158 C1162 0.949 . S
C1159 C1160 1.349 . S
C1159 C1161 1.327 . S
C1159 H1182 0.950 . S
C1160 C1159 1.349 . S
C1160 C1172 1.349 . S
C1161 C1159 1.327 . S
C1161 C1177 1.429 . S
C1161 H1183 0.950 . S
C1162 H1158 0.949 . S
C1162 C1170 1.574 1_554 S
C1162 C1178 1.368 . S
H1163 C1171 0.950 . S
H1164 C1169 0.950 . S
H1165 C1170 0.949 . S
H1166 C1172 0.950 . S
H1167 C1173 0.950 . S
H1168 C1174 0.949 . S
C1169 H1164 0.950 . S
C1169 C1171 1.327 . S
C1169 C1175 1.429 . S
C1170 C1162 1.574 1_556 S
C1170 H1165 0.949 . S
C1170 C1176 1.368 . S
C1171 C1155 1.349 . S
C1171 H1163 0.950 . S
C1171 C1169 1.327 . S
C1172 C1160 1.349 . S
C1172 H1166 0.950 . S
C1172 C1173 1.327 . S
C1173 H1167 0.950 . S
C1173 C1172 1.327 . S
C1173 C1177 1.429 . S
C1174 C1157 1.574 1_554 S
C1174 H1168 0.949 . S
C1174 C1178 1.368 . S
C1175 C1156 1.429 . S
C1175 C1169 1.429 . S
C1175 C1176 1.523 . S
C1176 C1157 1.368 . S
C1176 C1170 1.368 . S
C1176 C1175 1.523 . S
C1177 C1161 1.429 . S
C1177 C1173 1.429 . S
C1177 C1178 1.523 . S
C1178 C1162 1.368 . S
C1178 C1174 1.368 . S
C1178 C1177 1.523 . S
H1179 C1154 0.950 . S
H1180 C1156 0.950 . S
H1181 C1157 0.949 . S
H1182 C1159 0.950 . S
H1183 C1161 0.950 . S
C225 C13 1.216 . S
C230 C50 1.206 . S
C255 C8 1.206 . S
C260 C27 1.216 . S
C285 C22 1.206 . S
C290 C41 1.216 . S
C315 C36 1.206 . S
C320 C55 1.216 . S
C345 C69 1.216 . S
C350 C78 1.206 . S
C375 C83 1.216 . S
C380 C92 1.206 . S
C405 C97 1.216 . S
C410 C106 1.206 . S
C435 C111 1.216 . S
C440 C64 1.206 . S
C465 C125 1.216 . S
C470 C162 1.206 . S
C495 C120 1.206 . S
C500 C139 1.216 . S
C525 C134 1.206 . S
C530 C153 1.216 . S
C555 C167 1.216 . S
C560 C148 1.206 . S
C585 C190 1.206 . S
C590 C181 1.216 . S
C615 C204 1.206 . S
C620 C195 1.216 . S
C645 C209 1.216 . S
C650 C218 1.206 . S
C675 C223 1.216 . S
C680 C176 1.206 . S
C705 C11 0.805 . S
C710 C221 0.805 . S
C735 C25 0.805 . S
C740 C179 0.805 . S
C765 C193 0.805 . S
C770 C39 0.805 . S
C795 C53 0.805 . S
C800 C207 0.805 . S
C825 C137 0.805 . S
C830 C67 0.805 . S
C855 C151 0.805 . S
C860 C81 0.805 . S
C885 C95 0.805 . S
C890 C165 0.805 . S
C915 C109 0.805 . S
C920 C123 0.805 . S
C945 C7 1.337 . S
C950 C91 1.337 . S
C975 C105 1.337 . S
C980 C21 1.337 . S
C1005 C63 1.337 . S
C1010 C35 1.337 . S
C1035 C77 1.337 . S
C1040 C49 1.337 . S
C1065 C119 1.337 . S
C1070 C203 1.337 . S
C1095 C133 1.337 . S
C1100 C217 1.337 . S
C1125 C175 1.337 . S
C1130 C147 1.337 . S
C1155 C161 1.337 . S
C1160 C189 1.337 . S
