# Generated by pormake.
# Topology reo-e, (6)-cn, num edge types: 1
# Building blocks:
#     Node 0, Type 0, BuildingBlock: MIDCAF_clean_sbu_0, # of connection points: 6
#     Node 1, Type 0, BuildingBlock: MIDCAF_clean_sbu_0, # of connection points: 6
#     Node 2, Type 0, BuildingBlock: MIDCAF_clean_sbu_0, # of connection points: 6
#     Node 3, Type 0, BuildingBlock: MIDCAF_clean_sbu_0, # of connection points: 6
#     Node 4, Type 0, BuildingBlock: MIDCAF_clean_sbu_0, # of connection points: 6
#     Node 5, Type 0, BuildingBlock: MIDCAF_clean_sbu_0, # of connection points: 6
#     Node 6, Type 0, BuildingBlock: MIDCAF_clean_sbu_0, # of connection points: 6
#     Node 7, Type 0, BuildingBlock: MIDCAF_clean_sbu_0, # of connection points: 6
#     Node 8, Type 0, BuildingBlock: MIDCAF_clean_sbu_0, # of connection points: 6
#     Node 9, Type 0, BuildingBlock: MIDCAF_clean_sbu_0, # of connection points: 6
#     Node 10, Type 0, BuildingBlock: MIDCAF_clean_sbu_0, # of connection points: 6
#     Node 11, Type 0, BuildingBlock: MIDCAF_clean_sbu_0, # of connection points: 6
#     Edge 12, Type (0, 0), BuildingBlock: EYOCIG_clean_linker_4, # of connection points: 2
#     Edge 13, Type (0, 0), BuildingBlock: EYOCIG_clean_linker_4, # of connection points: 2
#     Edge 14, Type (0, 0), BuildingBlock: EYOCIG_clean_linker_4, # of connection points: 2
#     Edge 15, Type (0, 0), BuildingBlock: EYOCIG_clean_linker_4, # of connection points: 2
#     Edge 16, Type (0, 0), BuildingBlock: EYOCIG_clean_linker_4, # of connection points: 2
#     Edge 17, Type (0, 0), BuildingBlock: EYOCIG_clean_linker_4, # of connection points: 2
#     Edge 18, Type (0, 0), BuildingBlock: EYOCIG_clean_linker_4, # of connection points: 2
#     Edge 19, Type (0, 0), BuildingBlock: EYOCIG_clean_linker_4, # of connection points: 2
#     Edge 20, Type (0, 0), BuildingBlock: EYOCIG_clean_linker_4, # of connection points: 2
#     Edge 21, Type (0, 0), BuildingBlock: EYOCIG_clean_linker_4, # of connection points: 2
#     Edge 22, Type (0, 0), BuildingBlock: EYOCIG_clean_linker_4, # of connection points: 2
#     Edge 23, Type (0, 0), BuildingBlock: EYOCIG_clean_linker_4, # of connection points: 2
#     Edge 24, Type (0, 0), BuildingBlock: EYOCIG_clean_linker_4, # of connection points: 2
#     Edge 25, Type (0, 0), BuildingBlock: EYOCIG_clean_linker_4, # of connection points: 2
#     Edge 26, Type (0, 0), BuildingBlock: EYOCIG_clean_linker_4, # of connection points: 2
#     Edge 27, Type (0, 0), BuildingBlock: EYOCIG_clean_linker_4, # of connection points: 2
#     Edge 28, Type (0, 0), BuildingBlock: EYOCIG_clean_linker_4, # of connection points: 2
#     Edge 29, Type (0, 0), BuildingBlock: EYOCIG_clean_linker_4, # of connection points: 2
#     Edge 30, Type (0, 0), BuildingBlock: EYOCIG_clean_linker_4, # of connection points: 2
#     Edge 31, Type (0, 0), BuildingBlock: EYOCIG_clean_linker_4, # of connection points: 2
#     Edge 32, Type (0, 0), BuildingBlock: EYOCIG_clean_linker_4, # of connection points: 2
#     Edge 33, Type (0, 0), BuildingBlock: EYOCIG_clean_linker_4, # of connection points: 2
#     Edge 34, Type (0, 0), BuildingBlock: EYOCIG_clean_linker_4, # of connection points: 2
#     Edge 35, Type (0, 0), BuildingBlock: EYOCIG_clean_linker_4, # of connection points: 2
#     Edge 36, Type (0, 0), BuildingBlock: EYOCIG_clean_linker_4, # of connection points: 2
#     Edge 37, Type (0, 0), BuildingBlock: EYOCIG_clean_linker_4, # of connection points: 2
#     Edge 38, Type (0, 0), BuildingBlock: EYOCIG_clean_linker_4, # of connection points: 2
#     Edge 39, Type (0, 0), BuildingBlock: EYOCIG_clean_linker_4, # of connection points: 2
#     Edge 40, Type (0, 0), BuildingBlock: EYOCIG_clean_linker_4, # of connection points: 2
#     Edge 41, Type (0, 0), BuildingBlock: EYOCIG_clean_linker_4, # of connection points: 2
#     Edge 42, Type (0, 0), BuildingBlock: EYOCIG_clean_linker_4, # of connection points: 2
#     Edge 43, Type (0, 0), BuildingBlock: EYOCIG_clean_linker_4, # of connection points: 2
#     Edge 44, Type (0, 0), BuildingBlock: EYOCIG_clean_linker_4, # of connection points: 2
#     Edge 45, Type (0, 0), BuildingBlock: EYOCIG_clean_linker_4, # of connection points: 2
#     Edge 46, Type (0, 0), BuildingBlock: EYOCIG_clean_linker_4, # of connection points: 2
#     Edge 47, Type (0, 0), BuildingBlock: EYOCIG_clean_linker_4, # of connection points: 2
# Relax obj value: 0.261
# Max RMSD: 0.248
# Mean RMSD: 0.246
data_MOF--net-reo-e--node1-MIDCAF_clean_sbu_0--edge1-EYOCIG_clean_linker_4
_symmetry_space_group_name_H-M    P1
_symmetry_Int_Tables_number       1
_symmetry_cell_setting            triclinic
loop_
_symmetry_equiv_pos_as_xyz
'x, y, z'
_cell_length_a     30.430179
_cell_length_b     30.437917
_cell_length_c     30.439553
_cell_angle_alpha  90.008433
_cell_angle_beta   89.947304
_cell_angle_gamma 90.0717
loop_
_atom_site_label
_atom_site_type_symbol
_atom_site_fract_x
_atom_site_fract_y
_atom_site_fract_z
_atom_type_partial_charge
Zn0 Zn 0.11959 0.24755 0.48041 0.0
Zn1 Zn 0.247 0.12049 0.47937 0.0
Zn2 Zn 0.18208 0.18277 0.47989 0.0
C3 C 0.25642 0.17202 0.4037 0.0
C4 C 0.16424 0.07807 0.47959 0.0
O5 O 0.19068 0.22333 0.53961 0.0
O6 O 0.13895 0.27453 0.53673 0.0
C7 C 0.17053 0.25758 0.40436 0.0
O8 O 0.22256 0.19139 0.42009 0.0
O9 O 0.27392 0.13982 0.42298 0.0
O10 O 0.20499 0.07044 0.47936 0.0
O11 O 0.14954 0.11771 0.47982 0.0
O12 O 0.13842 0.27488 0.42404 0.0
O13 O 0.19012 0.2237 0.42035 0.0
O14 O 0.11706 0.1501 0.48001 0.0
O15 O 0.06963 0.20541 0.48046 0.0
C16 C 0.07737 0.16469 0.48022 0.0
O17 O 0.22307 0.19094 0.5394 0.0
O18 O 0.27438 0.13937 0.53567 0.0
C19 C 0.17125 0.25715 0.55597 0.0
C20 C 0.25703 0.17145 0.55534 0.0
Zn21 Zn 0.84009 0.2478 0.47878 0.0
Zn22 Zn 0.71227 0.12062 0.47935 0.0
Zn23 Zn 0.7774 0.18298 0.47914 0.0
C24 C 0.70299 0.17202 0.55522 0.0
C25 C 0.79498 0.07825 0.47908 0.0
O26 O 0.76908 0.2236 0.41945 0.0
O27 O 0.821 0.27474 0.42237 0.0
C28 C 0.78893 0.25778 0.55474 0.0
O29 O 0.73687 0.19148 0.53889 0.0
O30 O 0.68547 0.13982 0.53585 0.0
O31 O 0.75422 0.07057 0.47914 0.0
O32 O 0.80974 0.1179 0.47909 0.0
O33 O 0.82109 0.27512 0.5351 0.0
O34 O 0.76935 0.22385 0.53873 0.0
O35 O 0.8423 0.1503 0.47909 0.0
O36 O 0.8899 0.20558 0.4789 0.0
C37 C 0.88204 0.16487 0.47903 0.0
O38 O 0.7365 0.19135 0.41965 0.0
O39 O 0.68498 0.13984 0.42315 0.0
C40 C 0.78867 0.25737 0.40309 0.0
C41 C 0.70245 0.17198 0.40362 0.0
Zn42 Zn 0.71296 0.83992 0.4796 0.0
Zn43 Zn 0.84059 0.71302 0.47969 0.0
Zn44 Zn 0.7781 0.77785 0.47961 0.0
C45 C 0.88273 0.796 0.47952 0.0
C46 C 0.78934 0.70304 0.40394 0.0
O47 O 0.73736 0.7695 0.53931 0.0
O48 O 0.68583 0.82087 0.53599 0.0
C49 C 0.79566 0.88257 0.4794 0.0
O50 O 0.84304 0.81061 0.47953 0.0
O51 O 0.89046 0.75528 0.47957 0.0
O52 O 0.82153 0.68571 0.42341 0.0
O53 O 0.76986 0.73695 0.42006 0.0
O54 O 0.75489 0.89006 0.47948 0.0
O55 O 0.8105 0.84298 0.47944 0.0
O56 O 0.73745 0.76928 0.41999 0.0
O57 O 0.68592 0.82066 0.4233 0.0
C58 C 0.70348 0.78858 0.40382 0.0
O59 O 0.76983 0.73722 0.53932 0.0
O60 O 0.82151 0.68599 0.53612 0.0
C61 C 0.70339 0.78882 0.55549 0.0
C62 C 0.78932 0.7034 0.55556 0.0
Zn63 Zn 0.12048 0.7131 0.48035 0.0
Zn64 Zn 0.24776 0.84079 0.47989 0.0
Zn65 Zn 0.18294 0.7781 0.48013 0.0
C66 C 0.16485 0.88274 0.47974 0.0
C67 C 0.25763 0.78912 0.4043 0.0
O68 O 0.19132 0.73761 0.53987 0.0
O69 O 0.13964 0.68625 0.53678 0.0
C70 C 0.07818 0.7958 0.48001 0.0
O71 O 0.1503 0.84301 0.4799 0.0
O72 O 0.20558 0.89062 0.47968 0.0
O73 O 0.27496 0.82146 0.42362 0.0
O74 O 0.22374 0.76962 0.42055 0.0
O75 O 0.07045 0.75506 0.48018 0.0
O76 O 0.11787 0.81049 0.47998 0.0
O77 O 0.19134 0.73717 0.42063 0.0
O78 O 0.13966 0.68583 0.42408 0.0
C79 C 0.17187 0.70321 0.40456 0.0
O80 O 0.22367 0.77011 0.53979 0.0
O81 O 0.27485 0.82197 0.53633 0.0
C82 C 0.17184 0.70374 0.55615 0.0
C83 C 0.2575 0.78978 0.5559 0.0
Zn84 Zn 0.47931 0.24785 0.11951 0.0
Zn85 Zn 0.47931 0.12078 0.2471 0.0
Zn86 Zn 0.47946 0.18298 0.18199 0.0
C87 C 0.55515 0.17223 0.25671 0.0
C88 C 0.47962 0.07828 0.16439 0.0
O89 O 0.41976 0.2236 0.19026 0.0
O90 O 0.42292 0.2749 0.1386 0.0
C91 C 0.5552 0.25775 0.17067 0.0
O92 O 0.53907 0.19155 0.22271 0.0
O93 O 0.53561 0.14011 0.27422 0.0
O94 O 0.4795 0.07071 0.20514 0.0
O95 O 0.47961 0.1179 0.14959 0.0
O96 O 0.53567 0.27509 0.13852 0.0
O97 O 0.53908 0.22384 0.1902 0.0
O98 O 0.47954 0.1503 0.11705 0.0
O99 O 0.47935 0.20567 0.06964 0.0
C100 C 0.47947 0.16494 0.07737 0.0
O101 O 0.41976 0.19129 0.2227 0.0
O102 O 0.42288 0.13978 0.27415 0.0
C103 C 0.4035 0.25743 0.17081 0.0
C104 C 0.40348 0.1719 0.25662 0.0
Zn105 Zn 0.71295 0.48069 0.11916 0.0
Zn106 Zn 0.84021 0.48013 0.24653 0.0
Zn107 Zn 0.77779 0.48042 0.18167 0.0
C108 C 0.78905 0.55595 0.25657 0.0
C109 C 0.88251 0.48045 0.16375 0.0
O110 O 0.73681 0.42087 0.18985 0.0
O111 O 0.68555 0.4244 0.13821 0.0
C112 C 0.70348 0.55643 0.17066 0.0
O113 O 0.76958 0.53994 0.2226 0.0
O114 O 0.82117 0.53637 0.27391 0.0
O115 O 0.89023 0.48032 0.20448 0.0
O116 O 0.84283 0.48047 0.14912 0.0
O117 O 0.68608 0.53711 0.13838 0.0
O118 O 0.73725 0.5401 0.19016 0.0
O119 O 0.81041 0.4805 0.11668 0.0
O120 O 0.7551 0.48061 0.06923 0.0
C121 C 0.79583 0.48055 0.07699 0.0
O122 O 0.76924 0.42067 0.2222 0.0
O123 O 0.82098 0.42367 0.2734 0.0
C124 C 0.70285 0.40483 0.17036 0.0
C125 C 0.78871 0.40434 0.25599 0.0
Zn126 Zn 0.48081 0.84028 0.24742 0.0
Zn127 Zn 0.48052 0.71302 0.11987 0.0
Zn128 Zn 0.48061 0.77793 0.18236 0.0
C129 C 0.4805 0.79592 0.07773 0.0
C130 C 0.40477 0.70321 0.17136 0.0
O131 O 0.5403 0.76957 0.22294 0.0
O132 O 0.53721 0.82113 0.27436 0.0
C133 C 0.48059 0.88264 0.16465 0.0
O134 O 0.48055 0.81056 0.11741 0.0
O135 O 0.48046 0.75519 0.06999 0.0
O136 O 0.42418 0.68583 0.13913 0.0
O137 O 0.42098 0.73713 0.1908 0.0
O138 O 0.48073 0.89029 0.2054 0.0
O139 O 0.48054 0.84299 0.14992 0.0
O140 O 0.42104 0.7695 0.22322 0.0
O141 O 0.42448 0.82105 0.27463 0.0
C142 C 0.40495 0.7889 0.2572 0.0
O143 O 0.54026 0.73726 0.19047 0.0
O144 O 0.53693 0.68596 0.13881 0.0
C145 C 0.55657 0.78896 0.25683 0.0
C146 C 0.55643 0.7034 0.17095 0.0
Zn147 Zn 0.11958 0.48074 0.24706 0.0
Zn148 Zn 0.24753 0.48038 0.12017 0.0
Zn149 Zn 0.18237 0.48052 0.18239 0.0
C150 C 0.25739 0.55611 0.17155 0.0
C151 C 0.16495 0.48062 0.07762 0.0
O152 O 0.19024 0.42086 0.22313 0.0
O153 O 0.13831 0.42429 0.2742 0.0
C154 C 0.17131 0.55629 0.25708 0.0
O155 O 0.22335 0.54002 0.1909 0.0
O156 O 0.27485 0.53662 0.1394 0.0
O157 O 0.20572 0.48053 0.07003 0.0
O158 O 0.15012 0.48065 0.11724 0.0
O159 O 0.1389 0.53698 0.27432 0.0
O160 O 0.19085 0.54007 0.22324 0.0
O161 O 0.11752 0.48075 0.14958 0.0
O162 O 0.06983 0.48094 0.20477 0.0
C163 C 0.07777 0.48089 0.16407 0.0
O164 O 0.22275 0.42072 0.19081 0.0
O165 O 0.27429 0.42392 0.13932 0.0
C166 C 0.17052 0.40474 0.25694 0.0
C167 C 0.25665 0.40446 0.17141 0.0
Zn168 Zn 0.48029 0.71323 0.83994 0.0
Zn169 Zn 0.48099 0.84067 0.71276 0.0
Zn170 Zn 0.48062 0.77818 0.77758 0.0
C171 C 0.48101 0.88284 0.7956 0.0
C172 C 0.4049 0.78972 0.70296 0.0
O173 O 0.54013 0.73726 0.76924 0.0
O174 O 0.53659 0.68596 0.82088 0.0
C175 C 0.48051 0.79597 0.88229 0.0
O176 O 0.48081 0.84315 0.81022 0.0
O177 O 0.48116 0.89059 0.75487 0.0
O178 O 0.42454 0.82185 0.6856 0.0
O179 O 0.42096 0.77012 0.73681 0.0
O180 O 0.48033 0.75523 0.88996 0.0
O181 O 0.48064 0.81066 0.84263 0.0
O182 O 0.42084 0.73763 0.7691 0.0
O183 O 0.42388 0.68627 0.8207 0.0
C184 C 0.40453 0.70374 0.78852 0.0
O185 O 0.54029 0.76968 0.73687 0.0
O186 O 0.53728 0.82138 0.68561 0.0
C187 C 0.55616 0.70332 0.78871 0.0
C188 C 0.55658 0.78912 0.70299 0.0
Zn189 Zn 0.12063 0.48041 0.71237 0.0
Zn190 Zn 0.24806 0.48042 0.83964 0.0
Zn191 Zn 0.18299 0.48041 0.77733 0.0
C192 C 0.16519 0.48041 0.882 0.0
C193 C 0.25767 0.55629 0.7884 0.0
O194 O 0.19127 0.42078 0.73659 0.0
O195 O 0.13971 0.42407 0.68522 0.0
C196 C 0.07832 0.48034 0.79525 0.0
O197 O 0.15046 0.4804 0.84236 0.0
O198 O 0.20594 0.48041 0.88962 0.0
O199 O 0.27517 0.53682 0.8205 0.0
O200 O 0.22373 0.54008 0.76901 0.0
O201 O 0.07067 0.48035 0.75451 0.0
O202 O 0.11798 0.48035 0.80994 0.0
O203 O 0.19132 0.5401 0.73667 0.0
O204 O 0.13975 0.53682 0.68531 0.0
C205 C 0.17189 0.55631 0.7028 0.0
O206 O 0.2237 0.42081 0.76892 0.0
O207 O 0.27512 0.42408 0.82043 0.0
C208 C 0.17183 0.4046 0.70268 0.0
C209 C 0.25762 0.40463 0.78828 0.0
Zn210 Zn 0.48011 0.24778 0.8395 0.0
Zn211 Zn 0.48034 0.12017 0.71235 0.0
Zn212 Zn 0.48015 0.18277 0.77715 0.0
C213 C 0.4804 0.07814 0.79527 0.0
C214 C 0.55609 0.1717 0.70258 0.0
O215 O 0.42051 0.22337 0.76866 0.0
O216 O 0.42382 0.27481 0.82019 0.0
C217 C 0.47992 0.16507 0.88189 0.0
O218 O 0.48023 0.11785 0.80983 0.0
O219 O 0.48047 0.07031 0.75455 0.0
O220 O 0.53669 0.13945 0.68519 0.0
O221 O 0.53984 0.19117 0.73645 0.0
O222 O 0.47992 0.20582 0.88955 0.0
O223 O 0.48002 0.15036 0.84223 0.0
O224 O 0.53981 0.22359 0.76882 0.0
O225 O 0.53656 0.2749 0.82046 0.0
C226 C 0.55603 0.25748 0.78828 0.0
O227 O 0.42055 0.19089 0.73633 0.0
O228 O 0.42394 0.13905 0.68521 0.0
C229 C 0.40436 0.25732 0.78805 0.0
C230 C 0.40443 0.17127 0.7025 0.0
Zn231 Zn 0.84059 0.48071 0.71218 0.0
Zn232 Zn 0.71319 0.48022 0.8396 0.0
Zn233 Zn 0.77806 0.48044 0.77708 0.0
C234 C 0.79602 0.48036 0.88172 0.0
C235 C 0.70352 0.40445 0.78818 0.0
O236 O 0.76967 0.54015 0.73654 0.0
O237 O 0.82145 0.53712 0.68528 0.0
C238 C 0.88281 0.48053 0.79491 0.0
O239 O 0.81065 0.4804 0.84203 0.0
O240 O 0.75528 0.48029 0.88951 0.0
O241 O 0.68615 0.42382 0.82045 0.0
O242 O 0.73738 0.42074 0.76865 0.0
O243 O 0.89057 0.48063 0.75418 0.0
O244 O 0.84311 0.48047 0.80956 0.0
O245 O 0.76976 0.42089 0.73619 0.0
O246 O 0.82146 0.42441 0.68488 0.0
C247 C 0.78926 0.40485 0.70224 0.0
O248 O 0.73723 0.54002 0.76892 0.0
O249 O 0.68593 0.53651 0.82063 0.0
C250 C 0.7892 0.55646 0.70271 0.0
C251 C 0.7033 0.55607 0.78846 0.0
C252 C 0.19146 0.30002 0.33227 0.0
C253 C 0.18543 0.27752 0.36429 0.0
C254 C 0.19145 0.33277 0.29945 0.0
C255 C 0.18544 0.36475 0.2769 0.0
C256 C 0.62717 0.1935 0.29903 0.0
C257 C 0.59518 0.18737 0.27651 0.0
C258 C 0.65997 0.1934 0.33178 0.0
C259 C 0.68253 0.18716 0.3637 0.0
C260 C 0.76805 0.6606 0.33199 0.0
C261 C 0.77424 0.68312 0.36397 0.0
C262 C 0.76797 0.62786 0.29915 0.0
C263 C 0.77404 0.59592 0.27655 0.0
C264 C 0.30011 0.76764 0.33241 0.0
C265 C 0.27756 0.77388 0.36438 0.0
C266 C 0.33292 0.7676 0.29963 0.0
C267 C 0.36492 0.77376 0.27708 0.0
C268 C 0.19316 0.66143 0.6281 0.0
C269 C 0.18702 0.68395 0.59613 0.0
C270 C 0.19315 0.62853 0.66076 0.0
C271 C 0.18699 0.59642 0.68311 0.0
C272 C 0.29964 0.19242 0.62729 0.0
C273 C 0.27703 0.1864 0.59534 0.0
C274 C 0.33246 0.19237 0.66003 0.0
C275 C 0.36445 0.18627 0.68255 0.0
C276 C 0.76802 0.33295 0.65965 0.0
C277 C 0.77416 0.36489 0.68225 0.0
C278 C 0.76796 0.30022 0.6268 0.0
C279 C 0.774 0.27771 0.59478 0.0
C280 C 0.66121 0.76758 0.62765 0.0
C281 C 0.68365 0.77372 0.59559 0.0
C282 C 0.62848 0.76763 0.66053 0.0
C283 C 0.59652 0.77385 0.6831 0.0
C284 C 0.3314 0.19333 0.29881 0.0
C285 C 0.36344 0.18709 0.27637 0.0
C286 C 0.29858 0.19341 0.3316 0.0
C287 C 0.27611 0.18727 0.36364 0.0
C288 C 0.76729 0.33231 0.29824 0.0
C289 C 0.77346 0.36432 0.27576 0.0
C290 C 0.76731 0.29957 0.33106 0.0
C291 C 0.77349 0.27714 0.3631 0.0
C292 C 0.62855 0.76744 0.29899 0.0
C293 C 0.59655 0.77371 0.27656 0.0
C294 C 0.66133 0.76731 0.33175 0.0
C295 C 0.68379 0.77343 0.36377 0.0
C296 C 0.19305 0.66078 0.33256 0.0
C297 C 0.18695 0.68331 0.36455 0.0
C298 C 0.19292 0.62806 0.29971 0.0
C299 C 0.18663 0.59616 0.2771 0.0
C300 C 0.29994 0.76879 0.62789 0.0
C301 C 0.27742 0.77482 0.59591 0.0
C302 C 0.33276 0.76877 0.66063 0.0
C303 C 0.3648 0.77479 0.6831 0.0
C304 C 0.19287 0.29957 0.62781 0.0
C305 C 0.1866 0.27701 0.59588 0.0
C306 C 0.19297 0.33246 0.66049 0.0
C307 C 0.18687 0.36452 0.68292 0.0
C308 C 0.62809 0.19318 0.6602 0.0
C309 C 0.59608 0.18694 0.68271 0.0
C310 C 0.66086 0.19327 0.62736 0.0
C311 C 0.68329 0.18716 0.5953 0.0
C312 C 0.76794 0.62846 0.66047 0.0
C313 C 0.77405 0.59646 0.68295 0.0
C314 C 0.76799 0.66121 0.62766 0.0
C315 C 0.77418 0.68364 0.59561 0.0
C316 C 0.33145 0.29956 0.19232 0.0
C317 C 0.36348 0.27717 0.18604 0.0
C318 C 0.29866 0.3323 0.19251 0.0
C319 C 0.27625 0.36435 0.18648 0.0
C320 C 0.29983 0.62848 0.76714 0.0
C321 C 0.27741 0.59639 0.77331 0.0
C322 C 0.33254 0.66138 0.76713 0.0
C323 C 0.36453 0.68393 0.7733 0.0
C324 C 0.29978 0.33257 0.76687 0.0
C325 C 0.27737 0.3646 0.77311 0.0
C326 C 0.33245 0.29971 0.76678 0.0
C327 C 0.36439 0.27715 0.77289 0.0
C328 C 0.66106 0.33248 0.76691 0.0
C329 C 0.68364 0.36446 0.77302 0.0
C330 C 0.62817 0.29975 0.76697 0.0
C331 C 0.5961 0.2773 0.77316 0.0
C332 C 0.66084 0.62802 0.76738 0.0
C333 C 0.68338 0.59606 0.77344 0.0
C334 C 0.62808 0.66081 0.76744 0.0
C335 C 0.59613 0.68337 0.7736 0.0
C336 C 0.62849 0.66118 0.19209 0.0
C337 C 0.59647 0.68362 0.18598 0.0
C338 C 0.66127 0.62843 0.19205 0.0
C339 C 0.68372 0.59642 0.18587 0.0
C340 C 0.33277 0.6608 0.19281 0.0
C341 C 0.36478 0.68333 0.18658 0.0
C342 C 0.29992 0.62804 0.19287 0.0
C343 C 0.27732 0.59608 0.18671 0.0
C344 C 0.62729 0.30019 0.19168 0.0
C345 C 0.59525 0.27767 0.18564 0.0
C346 C 0.66017 0.33294 0.19159 0.0
C347 C 0.6828 0.36488 0.18543 0.0
C348 C 0.1225 0.95706 0.4796 0.0
C349 C 0.13563 0.91972 0.47967 0.0
C350 C 0.1223 0.00343 0.47959 0.0
C351 C 0.13517 0.0409 0.47962 0.0
C352 C 0.00282 0.12257 0.47978 0.0
C353 C 0.04026 0.13553 0.47996 0.0
C354 C 0.95643 0.12263 0.47949 0.0
C355 C 0.91905 0.13567 0.47928 0.0
C356 C 0.83708 0.00374 0.47906 0.0
C357 C 0.82403 0.04112 0.47905 0.0
C358 C 0.83732 0.95737 0.47915 0.0
C359 C 0.8246 0.91985 0.47926 0.0
C360 C 0.0037 0.83792 0.47966 0.0
C361 C 0.04109 0.82489 0.4798 0.0
C362 C 0.95732 0.83804 0.47954 0.0
C363 C 0.91985 0.82514 0.47952 0.0
C364 C 0.47973 0.12303 0.95644 0.0
C365 C 0.47982 0.13601 0.91903 0.0
C366 C 0.47964 0.12294 0.00281 0.0
C367 C 0.47957 0.13583 0.04026 0.0
C368 C 0.83813 0.48046 0.95617 0.0
C369 C 0.82516 0.48042 0.91877 0.0
C370 C 0.83808 0.4805 0.00253 0.0
C371 C 0.82503 0.48051 0.03994 0.0
C372 C 0.48053 0.83799 0.00322 0.0
C373 C 0.48052 0.82503 0.04064 0.0
C374 C 0.48055 0.83798 0.95685 0.0
C375 C 0.48056 0.82504 0.91942 0.0
C376 C 0.12318 0.48055 0.95661 0.0
C377 C 0.13613 0.48048 0.91917 0.0
C378 C 0.12313 0.48063 0.00298 0.0
C379 C 0.13599 0.48065 0.04042 0.0
C380 C 0.00344 0.48088 0.12172 0.0
C381 C 0.04081 0.48089 0.13481 0.0
C382 C 0.95706 0.48077 0.12165 0.0
C383 C 0.91962 0.48064 0.13462 0.0
C384 C 0.95729 0.48041 0.83705 0.0
C385 C 0.91989 0.48046 0.82402 0.0
C386 C 0.00367 0.48037 0.83718 0.0
C387 C 0.04115 0.48035 0.82431 0.0
C388 C 0.4807 0.00373 0.83754 0.0
C389 C 0.48054 0.04111 0.82447 0.0
C390 C 0.48086 0.95736 0.83765 0.0
C391 C 0.48092 0.91992 0.82473 0.0
C392 C 0.48024 0.95722 0.12267 0.0
C393 C 0.48039 0.91979 0.13562 0.0
C394 C 0.48002 0.00359 0.12258 0.0
C395 C 0.47984 0.04107 0.13542 0.0
loop_
_geom_bond_atom_site_label_1
_geom_bond_atom_site_label_2
_geom_bond_distance
_geom_bond_site_symmetry_2
_ccdc_geom_bond_type
Zn0 O6 1.920 . S
Zn0 O12 1.898 . S
Zn0 O15 1.905 . S
Zn1 O9 1.905 . S
Zn1 O10 1.898 . S
Zn1 O18 1.920 . S
Zn2 O5 2.080 . S
Zn2 O8 2.114 . S
Zn2 O11 2.120 . S
Zn2 O13 2.120 . S
Zn2 O14 2.114 . S
Zn2 O17 2.080 . S
C3 O8 1.166 . S
C3 O9 1.182 . S
C4 O10 1.167 . S
C4 O11 1.299 . S
O5 Zn2 2.080 . S
O5 C19 1.305 . S
O6 Zn0 1.920 . S
O6 C19 1.234 . S
C7 O12 1.167 . S
C7 O13 1.299 . S
O8 Zn2 2.114 . S
O8 C3 1.166 . S
O9 Zn1 1.905 . S
O9 C3 1.182 . S
O10 Zn1 1.898 . S
O10 C4 1.167 . S
O11 Zn2 2.120 . S
O11 C4 1.299 . S
O12 Zn0 1.898 . S
O12 C7 1.167 . S
O13 Zn2 2.120 . S
O13 C7 1.299 . S
O14 Zn2 2.114 . S
O14 C16 1.166 . S
O15 Zn0 1.905 . S
O15 C16 1.182 . S
C16 O14 1.166 . S
C16 O15 1.182 . S
O17 Zn2 2.080 . S
O17 C20 1.305 . S
O18 Zn1 1.920 . S
O18 C20 1.234 . S
C19 O5 1.305 . S
C19 O6 1.234 . S
C20 O17 1.305 . S
C20 O18 1.234 . S
Zn21 O27 1.920 . S
Zn21 O33 1.898 . S
Zn21 O36 1.905 . S
Zn22 O30 1.905 . S
Zn22 O31 1.898 . S
Zn22 O39 1.920 . S
Zn23 O26 2.080 . S
Zn23 O29 2.114 . S
Zn23 O32 2.120 . S
Zn23 O34 2.120 . S
Zn23 O35 2.114 . S
Zn23 O38 2.080 . S
C24 O29 1.166 . S
C24 O30 1.182 . S
C25 O31 1.167 . S
C25 O32 1.299 . S
O26 Zn23 2.080 . S
O26 C40 1.305 . S
O27 Zn21 1.920 . S
O27 C40 1.234 . S
C28 O33 1.167 . S
C28 O34 1.299 . S
O29 Zn23 2.114 . S
O29 C24 1.166 . S
O30 Zn22 1.905 . S
O30 C24 1.182 . S
O31 Zn22 1.898 . S
O31 C25 1.167 . S
O32 Zn23 2.120 . S
O32 C25 1.299 . S
O33 Zn21 1.898 . S
O33 C28 1.167 . S
O34 Zn23 2.120 . S
O34 C28 1.299 . S
O35 Zn23 2.114 . S
O35 C37 1.166 . S
O36 Zn21 1.905 . S
O36 C37 1.182 . S
C37 O35 1.166 . S
C37 O36 1.182 . S
O38 Zn23 2.080 . S
O38 C41 1.305 . S
O39 Zn22 1.920 . S
O39 C41 1.234 . S
C40 O26 1.305 . S
C40 O27 1.234 . S
C41 O38 1.305 . S
C41 O39 1.234 . S
Zn42 O48 1.920 . S
Zn42 O54 1.898 . S
Zn42 O57 1.905 . S
Zn43 O51 1.905 . S
Zn43 O52 1.898 . S
Zn43 O60 1.920 . S
Zn44 O47 2.080 . S
Zn44 O50 2.114 . S
Zn44 O53 2.120 . S
Zn44 O55 2.120 . S
Zn44 O56 2.114 . S
Zn44 O59 2.080 . S
C45 O50 1.166 . S
C45 O51 1.182 . S
C46 O52 1.167 . S
C46 O53 1.299 . S
O47 Zn44 2.080 . S
O47 C61 1.305 . S
O48 Zn42 1.920 . S
O48 C61 1.234 . S
C49 O54 1.167 . S
C49 O55 1.299 . S
O50 Zn44 2.114 . S
O50 C45 1.166 . S
O51 Zn43 1.905 . S
O51 C45 1.182 . S
O52 Zn43 1.898 . S
O52 C46 1.167 . S
O53 Zn44 2.120 . S
O53 C46 1.299 . S
O54 Zn42 1.898 . S
O54 C49 1.167 . S
O55 Zn44 2.120 . S
O55 C49 1.299 . S
O56 Zn44 2.114 . S
O56 C58 1.166 . S
O57 Zn42 1.905 . S
O57 C58 1.182 . S
C58 O56 1.166 . S
C58 O57 1.182 . S
O59 Zn44 2.080 . S
O59 C62 1.305 . S
O60 Zn43 1.920 . S
O60 C62 1.234 . S
C61 O47 1.305 . S
C61 O48 1.234 . S
C62 O59 1.305 . S
C62 O60 1.234 . S
Zn63 O69 1.920 . S
Zn63 O75 1.898 . S
Zn63 O78 1.905 . S
Zn64 O72 1.905 . S
Zn64 O73 1.898 . S
Zn64 O81 1.920 . S
Zn65 O68 2.080 . S
Zn65 O71 2.114 . S
Zn65 O74 2.120 . S
Zn65 O76 2.120 . S
Zn65 O77 2.114 . S
Zn65 O80 2.080 . S
C66 O71 1.166 . S
C66 O72 1.182 . S
C67 O73 1.167 . S
C67 O74 1.299 . S
O68 Zn65 2.080 . S
O68 C82 1.305 . S
O69 Zn63 1.920 . S
O69 C82 1.234 . S
C70 O75 1.167 . S
C70 O76 1.299 . S
O71 Zn65 2.114 . S
O71 C66 1.166 . S
O72 Zn64 1.905 . S
O72 C66 1.182 . S
O73 Zn64 1.898 . S
O73 C67 1.167 . S
O74 Zn65 2.120 . S
O74 C67 1.299 . S
O75 Zn63 1.898 . S
O75 C70 1.167 . S
O76 Zn65 2.120 . S
O76 C70 1.299 . S
O77 Zn65 2.114 . S
O77 C79 1.166 . S
O78 Zn63 1.905 . S
O78 C79 1.182 . S
C79 O77 1.166 . S
C79 O78 1.182 . S
O80 Zn65 2.080 . S
O80 C83 1.305 . S
O81 Zn64 1.920 . S
O81 C83 1.234 . S
C82 O68 1.305 . S
C82 O69 1.234 . S
C83 O80 1.305 . S
C83 O81 1.234 . S
Zn84 O90 1.920 . S
Zn84 O96 1.898 . S
Zn84 O99 1.905 . S
Zn85 O93 1.905 . S
Zn85 O94 1.898 . S
Zn85 O102 1.920 . S
Zn86 O89 2.080 . S
Zn86 O92 2.114 . S
Zn86 O95 2.120 . S
Zn86 O97 2.120 . S
Zn86 O98 2.114 . S
Zn86 O101 2.080 . S
C87 O92 1.166 . S
C87 O93 1.182 . S
C88 O94 1.167 . S
C88 O95 1.299 . S
O89 Zn86 2.080 . S
O89 C103 1.305 . S
O90 Zn84 1.920 . S
O90 C103 1.234 . S
C91 O96 1.167 . S
C91 O97 1.299 . S
O92 Zn86 2.114 . S
O92 C87 1.166 . S
O93 Zn85 1.905 . S
O93 C87 1.182 . S
O94 Zn85 1.898 . S
O94 C88 1.167 . S
O95 Zn86 2.120 . S
O95 C88 1.299 . S
O96 Zn84 1.898 . S
O96 C91 1.167 . S
O97 Zn86 2.120 . S
O97 C91 1.299 . S
O98 Zn86 2.114 . S
O98 C100 1.166 . S
O99 Zn84 1.905 . S
O99 C100 1.182 . S
C100 O98 1.166 . S
C100 O99 1.182 . S
O101 Zn86 2.080 . S
O101 C104 1.305 . S
O102 Zn85 1.920 . S
O102 C104 1.234 . S
C103 O89 1.305 . S
C103 O90 1.234 . S
C104 O101 1.305 . S
C104 O102 1.234 . S
Zn105 O111 1.920 . S
Zn105 O117 1.898 . S
Zn105 O120 1.905 . S
Zn106 O114 1.905 . S
Zn106 O115 1.898 . S
Zn106 O123 1.920 . S
Zn107 O110 2.080 . S
Zn107 O113 2.114 . S
Zn107 O116 2.120 . S
Zn107 O118 2.120 . S
Zn107 O119 2.114 . S
Zn107 O122 2.080 . S
C108 O113 1.166 . S
C108 O114 1.182 . S
C109 O115 1.167 . S
C109 O116 1.299 . S
O110 Zn107 2.080 . S
O110 C124 1.305 . S
O111 Zn105 1.920 . S
O111 C124 1.234 . S
C112 O117 1.167 . S
C112 O118 1.299 . S
O113 Zn107 2.114 . S
O113 C108 1.166 . S
O114 Zn106 1.905 . S
O114 C108 1.182 . S
O115 Zn106 1.898 . S
O115 C109 1.167 . S
O116 Zn107 2.120 . S
O116 C109 1.299 . S
O117 Zn105 1.898 . S
O117 C112 1.167 . S
O118 Zn107 2.120 . S
O118 C112 1.299 . S
O119 Zn107 2.114 . S
O119 C121 1.166 . S
O120 Zn105 1.905 . S
O120 C121 1.182 . S
C121 O119 1.166 . S
C121 O120 1.182 . S
O122 Zn107 2.080 . S
O122 C125 1.305 . S
O123 Zn106 1.920 . S
O123 C125 1.234 . S
C124 O110 1.305 . S
C124 O111 1.234 . S
C125 O122 1.305 . S
C125 O123 1.234 . S
Zn126 O132 1.920 . S
Zn126 O138 1.898 . S
Zn126 O141 1.905 . S
Zn127 O135 1.905 . S
Zn127 O136 1.898 . S
Zn127 O144 1.920 . S
Zn128 O131 2.080 . S
Zn128 O134 2.114 . S
Zn128 O137 2.120 . S
Zn128 O139 2.120 . S
Zn128 O140 2.114 . S
Zn128 O143 2.080 . S
C129 O134 1.166 . S
C129 O135 1.182 . S
C130 O136 1.167 . S
C130 O137 1.299 . S
O131 Zn128 2.080 . S
O131 C145 1.305 . S
O132 Zn126 1.920 . S
O132 C145 1.234 . S
C133 O138 1.167 . S
C133 O139 1.299 . S
O134 Zn128 2.114 . S
O134 C129 1.166 . S
O135 Zn127 1.905 . S
O135 C129 1.182 . S
O136 Zn127 1.898 . S
O136 C130 1.167 . S
O137 Zn128 2.120 . S
O137 C130 1.299 . S
O138 Zn126 1.898 . S
O138 C133 1.167 . S
O139 Zn128 2.120 . S
O139 C133 1.299 . S
O140 Zn128 2.114 . S
O140 C142 1.166 . S
O141 Zn126 1.905 . S
O141 C142 1.182 . S
C142 O140 1.166 . S
C142 O141 1.182 . S
O143 Zn128 2.080 . S
O143 C146 1.305 . S
O144 Zn127 1.920 . S
O144 C146 1.234 . S
C145 O131 1.305 . S
C145 O132 1.234 . S
C146 O143 1.305 . S
C146 O144 1.234 . S
Zn147 O153 1.920 . S
Zn147 O159 1.898 . S
Zn147 O162 1.905 . S
Zn148 O156 1.905 . S
Zn148 O157 1.898 . S
Zn148 O165 1.920 . S
Zn149 O152 2.080 . S
Zn149 O155 2.114 . S
Zn149 O158 2.120 . S
Zn149 O160 2.120 . S
Zn149 O161 2.114 . S
Zn149 O164 2.080 . S
C150 O155 1.166 . S
C150 O156 1.182 . S
C151 O157 1.167 . S
C151 O158 1.299 . S
O152 Zn149 2.080 . S
O152 C166 1.305 . S
O153 Zn147 1.920 . S
O153 C166 1.234 . S
C154 O159 1.167 . S
C154 O160 1.299 . S
O155 Zn149 2.114 . S
O155 C150 1.166 . S
O156 Zn148 1.905 . S
O156 C150 1.182 . S
O157 Zn148 1.898 . S
O157 C151 1.167 . S
O158 Zn149 2.120 . S
O158 C151 1.299 . S
O159 Zn147 1.898 . S
O159 C154 1.167 . S
O160 Zn149 2.120 . S
O160 C154 1.299 . S
O161 Zn149 2.114 . S
O161 C163 1.166 . S
O162 Zn147 1.905 . S
O162 C163 1.182 . S
C163 O161 1.166 . S
C163 O162 1.182 . S
O164 Zn149 2.080 . S
O164 C167 1.305 . S
O165 Zn148 1.920 . S
O165 C167 1.234 . S
C166 O152 1.305 . S
C166 O153 1.234 . S
C167 O164 1.305 . S
C167 O165 1.234 . S
Zn168 O174 1.920 . S
Zn168 O180 1.898 . S
Zn168 O183 1.905 . S
Zn169 O177 1.905 . S
Zn169 O178 1.898 . S
Zn169 O186 1.920 . S
Zn170 O173 2.080 . S
Zn170 O176 2.114 . S
Zn170 O179 2.120 . S
Zn170 O181 2.120 . S
Zn170 O182 2.114 . S
Zn170 O185 2.080 . S
C171 O176 1.166 . S
C171 O177 1.182 . S
C172 O178 1.167 . S
C172 O179 1.299 . S
O173 Zn170 2.080 . S
O173 C187 1.305 . S
O174 Zn168 1.920 . S
O174 C187 1.234 . S
C175 O180 1.167 . S
C175 O181 1.299 . S
O176 Zn170 2.114 . S
O176 C171 1.166 . S
O177 Zn169 1.905 . S
O177 C171 1.182 . S
O178 Zn169 1.898 . S
O178 C172 1.167 . S
O179 Zn170 2.120 . S
O179 C172 1.299 . S
O180 Zn168 1.898 . S
O180 C175 1.167 . S
O181 Zn170 2.120 . S
O181 C175 1.299 . S
O182 Zn170 2.114 . S
O182 C184 1.166 . S
O183 Zn168 1.905 . S
O183 C184 1.182 . S
C184 O182 1.166 . S
C184 O183 1.182 . S
O185 Zn170 2.080 . S
O185 C188 1.305 . S
O186 Zn169 1.920 . S
O186 C188 1.234 . S
C187 O173 1.305 . S
C187 O174 1.234 . S
C188 O185 1.305 . S
C188 O186 1.234 . S
Zn189 O195 1.920 . S
Zn189 O201 1.898 . S
Zn189 O204 1.905 . S
Zn190 O198 1.905 . S
Zn190 O199 1.898 . S
Zn190 O207 1.920 . S
Zn191 O194 2.080 . S
Zn191 O197 2.114 . S
Zn191 O200 2.120 . S
Zn191 O202 2.120 . S
Zn191 O203 2.114 . S
Zn191 O206 2.080 . S
C192 O197 1.166 . S
C192 O198 1.182 . S
C193 O199 1.167 . S
C193 O200 1.299 . S
O194 Zn191 2.080 . S
O194 C208 1.305 . S
O195 Zn189 1.920 . S
O195 C208 1.234 . S
C196 O201 1.167 . S
C196 O202 1.299 . S
O197 Zn191 2.114 . S
O197 C192 1.166 . S
O198 Zn190 1.905 . S
O198 C192 1.182 . S
O199 Zn190 1.898 . S
O199 C193 1.167 . S
O200 Zn191 2.120 . S
O200 C193 1.299 . S
O201 Zn189 1.898 . S
O201 C196 1.167 . S
O202 Zn191 2.120 . S
O202 C196 1.299 . S
O203 Zn191 2.114 . S
O203 C205 1.166 . S
O204 Zn189 1.905 . S
O204 C205 1.182 . S
C205 O203 1.166 . S
C205 O204 1.182 . S
O206 Zn191 2.080 . S
O206 C209 1.305 . S
O207 Zn190 1.920 . S
O207 C209 1.234 . S
C208 O194 1.305 . S
C208 O195 1.234 . S
C209 O206 1.305 . S
C209 O207 1.234 . S
Zn210 O216 1.920 . S
Zn210 O222 1.898 . S
Zn210 O225 1.905 . S
Zn211 O219 1.905 . S
Zn211 O220 1.898 . S
Zn211 O228 1.920 . S
Zn212 O215 2.080 . S
Zn212 O218 2.114 . S
Zn212 O221 2.120 . S
Zn212 O223 2.120 . S
Zn212 O224 2.114 . S
Zn212 O227 2.080 . S
C213 O218 1.166 . S
C213 O219 1.182 . S
C214 O220 1.167 . S
C214 O221 1.299 . S
O215 Zn212 2.080 . S
O215 C229 1.305 . S
O216 Zn210 1.920 . S
O216 C229 1.234 . S
C217 O222 1.167 . S
C217 O223 1.299 . S
O218 Zn212 2.114 . S
O218 C213 1.166 . S
O219 Zn211 1.905 . S
O219 C213 1.182 . S
O220 Zn211 1.898 . S
O220 C214 1.167 . S
O221 Zn212 2.120 . S
O221 C214 1.299 . S
O222 Zn210 1.898 . S
O222 C217 1.167 . S
O223 Zn212 2.120 . S
O223 C217 1.299 . S
O224 Zn212 2.114 . S
O224 C226 1.166 . S
O225 Zn210 1.905 . S
O225 C226 1.182 . S
C226 O224 1.166 . S
C226 O225 1.182 . S
O227 Zn212 2.080 . S
O227 C230 1.305 . S
O228 Zn211 1.920 . S
O228 C230 1.234 . S
C229 O215 1.305 . S
C229 O216 1.234 . S
C230 O227 1.305 . S
C230 O228 1.234 . S
Zn231 O237 1.920 . S
Zn231 O243 1.898 . S
Zn231 O246 1.905 . S
Zn232 O240 1.905 . S
Zn232 O241 1.898 . S
Zn232 O249 1.920 . S
Zn233 O236 2.080 . S
Zn233 O239 2.114 . S
Zn233 O242 2.120 . S
Zn233 O244 2.120 . S
Zn233 O245 2.114 . S
Zn233 O248 2.080 . S
C234 O239 1.166 . S
C234 O240 1.182 . S
C235 O241 1.167 . S
C235 O242 1.299 . S
O236 Zn233 2.080 . S
O236 C250 1.305 . S
O237 Zn231 1.920 . S
O237 C250 1.234 . S
C238 O243 1.167 . S
C238 O244 1.299 . S
O239 Zn233 2.114 . S
O239 C234 1.166 . S
O240 Zn232 1.905 . S
O240 C234 1.182 . S
O241 Zn232 1.898 . S
O241 C235 1.167 . S
O242 Zn233 2.120 . S
O242 C235 1.299 . S
O243 Zn231 1.898 . S
O243 C238 1.167 . S
O244 Zn233 2.120 . S
O244 C238 1.299 . S
O245 Zn233 2.114 . S
O245 C247 1.166 . S
O246 Zn231 1.905 . S
O246 C247 1.182 . S
C247 O245 1.166 . S
C247 O246 1.182 . S
O248 Zn233 2.080 . S
O248 C251 1.305 . S
O249 Zn232 1.920 . S
O249 C251 1.234 . S
C250 O236 1.305 . S
C250 O237 1.234 . S
C251 O248 1.305 . S
C251 O249 1.234 . S
C252 C253 1.170 . S
C252 C254 1.380 . S
C253 C252 1.170 . S
C254 C252 1.380 . S
C254 C255 1.170 . S
C255 C254 1.170 . S
C256 C257 1.170 . S
C256 C258 1.380 . S
C257 C256 1.170 . S
C258 C256 1.380 . S
C258 C259 1.170 . S
C259 C258 1.170 . S
C260 C261 1.170 . S
C260 C262 1.380 . S
C261 C260 1.170 . S
C262 C260 1.380 . S
C262 C263 1.170 . S
C263 C262 1.170 . S
C264 C265 1.170 . S
C264 C266 1.380 . S
C265 C264 1.170 . S
C266 C264 1.380 . S
C266 C267 1.170 . S
C267 C266 1.170 . S
C268 C269 1.170 . S
C268 C270 1.380 . S
C269 C268 1.170 . S
C270 C268 1.380 . S
C270 C271 1.170 . S
C271 C270 1.170 . S
C272 C273 1.170 . S
C272 C274 1.380 . S
C273 C272 1.170 . S
C274 C272 1.380 . S
C274 C275 1.170 . S
C275 C274 1.170 . S
C276 C277 1.170 . S
C276 C278 1.380 . S
C277 C276 1.170 . S
C278 C276 1.380 . S
C278 C279 1.170 . S
C279 C278 1.170 . S
C280 C281 1.170 . S
C280 C282 1.380 . S
C281 C280 1.170 . S
C282 C280 1.380 . S
C282 C283 1.170 . S
C283 C282 1.170 . S
C284 C285 1.170 . S
C284 C286 1.380 . S
C285 C284 1.170 . S
C286 C284 1.380 . S
C286 C287 1.170 . S
C287 C286 1.170 . S
C288 C289 1.170 . S
C288 C290 1.380 . S
C289 C288 1.170 . S
C290 C288 1.380 . S
C290 C291 1.170 . S
C291 C290 1.170 . S
C292 C293 1.170 . S
C292 C294 1.380 . S
C293 C292 1.170 . S
C294 C292 1.380 . S
C294 C295 1.170 . S
C295 C294 1.170 . S
C296 C297 1.170 . S
C296 C298 1.380 . S
C297 C296 1.170 . S
C298 C296 1.380 . S
C298 C299 1.170 . S
C299 C298 1.170 . S
C300 C301 1.170 . S
C300 C302 1.380 . S
C301 C300 1.170 . S
C302 C300 1.380 . S
C302 C303 1.170 . S
C303 C302 1.170 . S
C304 C305 1.170 . S
C304 C306 1.380 . S
C305 C304 1.170 . S
C306 C304 1.380 . S
C306 C307 1.170 . S
C307 C306 1.170 . S
C308 C309 1.170 . S
C308 C310 1.380 . S
C309 C308 1.170 . S
C310 C308 1.380 . S
C310 C311 1.170 . S
C311 C310 1.170 . S
C312 C313 1.170 . S
C312 C314 1.380 . S
C313 C312 1.170 . S
C314 C312 1.380 . S
C314 C315 1.170 . S
C315 C314 1.170 . S
C316 C317 1.170 . S
C316 C318 1.380 . S
C317 C316 1.170 . S
C318 C316 1.380 . S
C318 C319 1.170 . S
C319 C318 1.170 . S
C320 C321 1.170 . S
C320 C322 1.380 . S
C321 C320 1.170 . S
C322 C320 1.380 . S
C322 C323 1.170 . S
C323 C322 1.170 . S
C324 C325 1.170 . S
C324 C326 1.380 . S
C325 C324 1.170 . S
C326 C324 1.380 . S
C326 C327 1.170 . S
C327 C326 1.170 . S
C328 C329 1.170 . S
C328 C330 1.380 . S
C329 C328 1.170 . S
C330 C328 1.380 . S
C330 C331 1.170 . S
C331 C330 1.170 . S
C332 C333 1.170 . S
C332 C334 1.380 . S
C333 C332 1.170 . S
C334 C332 1.380 . S
C334 C335 1.170 . S
C335 C334 1.170 . S
C336 C337 1.170 . S
C336 C338 1.380 . S
C337 C336 1.170 . S
C338 C336 1.380 . S
C338 C339 1.170 . S
C339 C338 1.170 . S
C340 C341 1.170 . S
C340 C342 1.380 . S
C341 C340 1.170 . S
C342 C340 1.380 . S
C342 C343 1.170 . S
C343 C342 1.170 . S
C344 C345 1.170 . S
C344 C346 1.380 . S
C345 C344 1.170 . S
C346 C344 1.380 . S
C346 C347 1.170 . S
C347 C346 1.170 . S
C348 C349 1.170 . S
C348 C350 1.380 1_565 S
C349 C348 1.170 . S
C350 C348 1.380 1_545 S
C350 C351 1.170 . S
C351 C350 1.170 . S
C352 C353 1.170 . S
C352 C354 1.380 1_455 S
C353 C352 1.170 . S
C354 C352 1.380 1_655 S
C354 C355 1.170 . S
C355 C354 1.170 . S
C356 C357 1.170 . S
C356 C358 1.380 1_545 S
C357 C356 1.170 . S
C358 C356 1.380 1_565 S
C358 C359 1.170 . S
C359 C358 1.170 . S
C360 C361 1.170 . S
C360 C362 1.380 1_455 S
C361 C360 1.170 . S
C362 C360 1.380 1_655 S
C362 C363 1.170 . S
C363 C362 1.170 . S
C364 C365 1.170 . S
C364 C366 1.380 1_556 S
C365 C364 1.170 . S
C366 C364 1.380 1_554 S
C366 C367 1.170 . S
C367 C366 1.170 . S
C368 C369 1.170 . S
C368 C370 1.380 1_556 S
C369 C368 1.170 . S
C370 C368 1.380 1_554 S
C370 C371 1.170 . S
C371 C370 1.170 . S
C372 C373 1.170 . S
C372 C374 1.380 1_554 S
C373 C372 1.170 . S
C374 C372 1.380 1_556 S
C374 C375 1.170 . S
C375 C374 1.170 . S
C376 C377 1.170 . S
C376 C378 1.380 1_556 S
C377 C376 1.170 . S
C378 C376 1.380 1_554 S
C378 C379 1.170 . S
C379 C378 1.170 . S
C380 C381 1.170 . S
C380 C382 1.380 1_455 S
C381 C380 1.170 . S
C382 C380 1.380 1_655 S
C382 C383 1.170 . S
C383 C382 1.170 . S
C384 C385 1.170 . S
C384 C386 1.380 1_655 S
C385 C384 1.170 . S
C386 C384 1.380 1_455 S
C386 C387 1.170 . S
C387 C386 1.170 . S
C388 C389 1.170 . S
C388 C390 1.380 1_545 S
C389 C388 1.170 . S
C390 C388 1.380 1_565 S
C390 C391 1.170 . S
C391 C390 1.170 . S
C392 C393 1.170 . S
C392 C394 1.380 1_565 S
C393 C392 1.170 . S
C394 C392 1.380 1_545 S
C394 C395 1.170 . S
C395 C394 1.170 . S
C253 C7 1.438 . S
C255 C166 1.408 . S
C257 C87 1.409 . S
C259 C41 1.493 . S
C261 C46 1.451 . S
C263 C108 1.411 . S
C265 C67 1.477 . S
C267 C142 1.398 . S
C269 C82 1.475 . S
C271 C205 1.476 . S
C273 C20 1.488 . S
C275 C230 1.394 . S
C277 C247 1.450 . S
C279 C28 1.457 . S
C281 C61 1.488 . S
C283 C188 1.394 . S
C285 C104 1.505 . S
C287 C3 1.423 . S
C289 C125 1.482 . S
C291 C40 1.435 . S
C293 C145 1.462 . S
C295 C58 1.420 . S
C297 C79 1.387 . S
C299 C154 1.465 . S
C301 C83 1.403 . S
C303 C172 1.434 . S
C305 C19 1.408 . S
C307 C208 1.483 . S
C309 C214 1.506 . S
C311 C24 1.433 . S
C313 C250 1.428 . S
C315 C62 1.423 . S
C317 C103 1.453 . S
C319 C167 1.471 . S
C321 C193 1.451 . S
C323 C184 1.395 . S
C325 C209 1.435 . S
C327 C229 1.494 . S
C329 C235 1.497 . S
C331 C226 1.405 . S
C333 C251 1.388 . S
C335 C187 1.458 . S
C337 C146 1.426 . S
C339 C112 1.487 . S
C341 C130 1.498 . S
C343 C150 1.413 . S
C345 C91 1.462 . S
C347 C124 1.367 . S
C349 C66 1.354 . S
C351 C4 1.291 . S
C353 C16 1.394 . S
C355 C37 1.404 . S
C357 C25 1.341 . S
C359 C49 1.284 . S
C361 C70 1.288 . S
C363 C45 1.340 . S
C365 C217 1.368 . S
C367 C100 1.342 . S
C369 C234 1.344 . S
C371 C121 1.387 . S
C373 C129 1.313 . S
C375 C175 1.278 . S
C377 C192 1.301 . S
C379 C151 1.304 . S
C381 C163 1.314 . S
C383 C109 1.279 . S
C385 C238 1.349 . S
C387 C196 1.323 . S
C389 C213 1.411 . S
C391 C171 1.376 . S
C393 C133 1.333 . S
C395 C88 1.280 . S
