# Generated by pormake.
# Topology snp, (6)-cn, num edge types: 1
# Building blocks:
#     Node 0, Type 0, BuildingBlock: MIFKUJ_clean_sbu_0, # of connection points: 6
#     Node 1, Type 0, BuildingBlock: MIFKUJ_clean_sbu_0, # of connection points: 6
#     Node 2, Type 0, BuildingBlock: MIFKUJ_clean_sbu_0, # of connection points: 6
#     Node 3, Type 0, BuildingBlock: MIFKUJ_clean_sbu_0, # of connection points: 6
#     Edge 4, Type (0, 0), BuildingBlock: XIVTED_clean_linker_0, # of connection points: 2
#     Edge 5, Type (0, 0), BuildingBlock: XIVTED_clean_linker_0, # of connection points: 2
#     Edge 6, Type (0, 0), BuildingBlock: XIVTED_clean_linker_0, # of connection points: 2
#     Edge 7, Type (0, 0), BuildingBlock: XIVTED_clean_linker_0, # of connection points: 2
#     Edge 8, Type (0, 0), BuildingBlock: XIVTED_clean_linker_0, # of connection points: 2
#     Edge 9, Type (0, 0), BuildingBlock: XIVTED_clean_linker_0, # of connection points: 2
#     Edge 10, Type (0, 0), BuildingBlock: XIVTED_clean_linker_0, # of connection points: 2
#     Edge 11, Type (0, 0), BuildingBlock: XIVTED_clean_linker_0, # of connection points: 2
#     Edge 12, Type (0, 0), BuildingBlock: XIVTED_clean_linker_0, # of connection points: 2
#     Edge 13, Type (0, 0), BuildingBlock: XIVTED_clean_linker_0, # of connection points: 2
#     Edge 14, Type (0, 0), BuildingBlock: XIVTED_clean_linker_0, # of connection points: 2
#     Edge 15, Type (0, 0), BuildingBlock: XIVTED_clean_linker_0, # of connection points: 2
# Relax obj value: 0.280
# Max RMSD: 0.225
# Mean RMSD: 0.225
data_MOF--net-snp--node1-MIFKUJ_clean_sbu_0--edge1-XIVTED_clean_linker_0
_symmetry_space_group_name_H-M    P1
_symmetry_Int_Tables_number       1
_symmetry_cell_setting            triclinic
loop_
_symmetry_equiv_pos_as_xyz
'x, y, z'
_cell_length_a     23.898281
_cell_length_b     23.820234
_cell_length_c     31.061547
_cell_angle_alpha  89.423339
_cell_angle_beta   89.734021
_cell_angle_gamma 90.630851
loop_
_atom_site_label
_atom_site_type_symbol
_atom_site_fract_x
_atom_site_fract_y
_atom_site_fract_z
_atom_type_partial_charge
Zn0 Zn 0.31349 0.9707 0.0661 0.0
Zn1 Zn 0.31625 0.92832 0.93615 0.0
C2 C 0.27165 0.88469 0.12753 0.0
O3 O 0.26089 0.85431 0.09342 0.0
C4 C 0.33554 0.04074 0.89331 0.0
O5 O 0.38343 0.04513 0.91355 0.0
O6 O 0.34126 0.04784 0.07995 0.0
O7 O 0.35487 0.92791 0.02168 0.0
O8 O 0.39624 0.93148 0.95971 0.0
C9 C 0.37556 0.05613 0.11035 0.0
O10 O 0.40896 0.0153 0.12185 0.0
O11 O 0.29608 0.93197 0.12281 0.0
C12 C 0.25298 0.87859 0.87628 0.0
O13 O 0.22125 0.91536 0.89566 0.0
O14 O 0.3011 0.86861 0.89178 0.0
O15 O 0.2586 0.9228 0.98509 0.0
O16 O 0.24119 0.98406 0.03596 0.0
O17 O 0.30353 -0.00133 0.90046 0.0
C18 C 0.39855 0.93926 8e-05 0.0
C19 C 0.2299 0.96335 -0.00064 0.0
Zn20 Zn 0.16899 0.30732 0.56929 0.0
Zn21 Zn 0.19364 0.30845 0.4337 0.0
C22 C 0.21298 0.26689 0.64434 0.0
O23 O 0.16272 0.24442 0.64191 0.0
C24 C 0.07948 0.32948 0.39692 0.0
O25 O 0.08219 0.38085 0.4118 0.0
O26 O 0.09727 0.32063 0.6014 0.0
O27 O 0.18028 0.36525 0.51979 0.0
O28 O 0.19882 0.38871 0.45205 0.0
C29 C 0.0551 0.35184 0.60683 0.0
O30 O 0.04961 0.39846 0.58447 0.0
O31 O 0.22993 0.29984 0.61434 0.0
C32 C 0.23855 0.2358 0.37631 0.0
O33 O 0.19519 0.20946 0.39336 0.0
O34 O 0.25213 0.28365 0.391 0.0
O35 O 0.19574 0.26831 0.48899 0.0
O36 O 0.15775 0.22951 0.54473 0.0
O37 O 0.11923 0.29567 0.4044 0.0
C38 C 0.18627 0.40291 0.4905 0.0
C39 C 0.16979 0.22684 0.50518 0.0
Zn40 Zn 0.80331 0.18281 0.07074 0.0
Zn41 Zn 0.78832 0.18285 0.93242 0.0
C42 C 0.85584 0.21387 0.14332 0.0
O43 O 0.87361 0.16395 0.13248 0.0
C44 C 0.76587 0.1041 0.86417 0.0
O45 O 0.73943 0.14729 0.8477 0.0
O46 O 0.78341 0.10697 0.09488 0.0
O47 O 0.7576 0.20552 0.01878 0.0
O48 O 0.71155 0.19825 0.95905 0.0
C49 C 0.7475 0.09314 0.12334 0.0
O50 O 0.7107 0.13014 0.13595 0.0
O51 O 0.81799 0.23664 0.12046 0.0
C52 C 0.86312 0.22696 0.8753 0.0
O53 O 0.88697 0.18239 0.89198 0.0
O54 O 0.81556 0.24106 0.88972 0.0
O55 O 0.8426 0.17292 0.98115 0.0
O56 O 0.87935 0.16632 0.04493 0.0
O57 O 0.78768 0.10861 0.90122 0.0
C58 C 0.71116 0.19742 6e-05 0.0
C59 C 0.88377 0.1599 0.00456 0.0
Zn60 Zn 0.95769 0.82408 0.56922 0.0
Zn61 Zn 0.9345 0.82021 0.43244 0.0
C62 C 0.91441 0.83171 0.65619 0.0
O63 O 0.96694 0.82237 0.6656 0.0
C64 C 0.03158 0.78893 0.38072 0.0
O65 O 0.00948 0.7383 0.38371 0.0
O66 O 0.03482 0.81482 0.59534 0.0
O67 O 0.9453 0.76329 0.5216 0.0
O68 O 0.92564 0.74143 0.45386 0.0
C69 C 0.05545 0.77253 0.61468 0.0
O70 O 0.02592 0.72594 0.61776 0.0
O71 O 0.89891 0.82899 0.61703 0.0
C72 C 0.88987 0.89055 0.37239 0.0
O73 O 0.93563 0.9163 0.38522 0.0
O74 O 0.87444 0.84578 0.39181 0.0
O75 O 0.93811 0.85995 0.48645 0.0
O76 O 0.96075 0.90348 0.54384 0.0
O77 O 0.00822 0.82904 0.40029 0.0
C78 C 0.93762 0.72637 0.49236 0.0
C79 C 0.95304 0.90509 0.50367 0.0
H80 H 0.89299 0.05055 0.02278 0.0
H81 H 0.20598 0.03978 0.93703 0.0
H82 H 0.97322 0.18545 0.95174 0.0
H83 H 0.13037 0.91831 0.02354 0.0
H84 H 0.11345 0.07994 0.92379 0.0
H85 H 0.97144 -0.01031 0.00595 0.0
C86 C 0.927 0.06684 0.00291 0.0
C87 C 0.92728 0.12271 0.98863 0.0
C88 C 0.11685 0.04357 0.94476 0.0
C89 C 0.01747 0.05407 0.96987 0.0
C90 C 0.16944 0.02041 0.95194 0.0
C91 C 0.17513 0.97583 0.9812 0.0
C92 C 0.0703 0.02236 0.96772 0.0
C93 C 0.12717 0.95257 0.00051 0.0
C94 C 0.97167 0.03222 0.99329 0.0
C95 C 0.97183 0.14235 0.9631 0.0
N96 N 0.07673 0.97668 0.99393 0.0
N97 N 0.0158 0.10814 0.95497 0.0
H98 H 0.04711 0.90588 0.4552 0.0
H99 H 0.06374 0.23603 0.47645 0.0
H100 H 0.91282 0.01088 0.4982 0.0
H101 H 0.2054 0.12587 0.47738 0.0
H102 H 0.00444 0.15821 0.45182 0.0
H103 H 0.09909 -0.01025 0.4311 0.0
C104 C 0.02768 0.94658 0.4578 0.0
C105 C 0.97596 0.95211 0.47855 0.0
C106 C 0.04883 0.1515 0.45606 0.0
C107 C 0.03521 0.04758 0.45237 0.0
C108 C 0.08255 0.1958 0.4699 0.0
C109 C 0.13904 0.18667 0.47891 0.0
C110 C 0.07189 0.09781 0.4522 0.0
C111 C 0.1618 0.13404 0.47069 0.0
C112 C 0.05742 -0.00566 0.44439 0.0
C113 C 0.95284 0.00543 0.48238 0.0
N114 N 0.12785 0.09109 0.45841 0.0
N115 N 0.98304 0.05141 0.46995 0.0
H116 H 0.71518 0.09161 0.03128 0.0
H117 H 0.39113 0.0523 0.99774 0.0
H118 H 0.60333 0.22945 0.01045 0.0
H119 H 0.49872 0.91798 0.0378 0.0
H120 H 0.4653 0.12019 0.01413 0.0
H121 H 0.63516 0.03032 0.04759 0.0
C122 C 0.67377 0.10951 0.0324 0.0
C123 C 0.66561 0.16579 0.02099 0.0
C124 C 0.47262 0.07602 0.02009 0.0
C125 C 0.57358 0.0954 0.03641 0.0
C126 C 0.43044 0.0374 0.01048 0.0
C127 C 0.43959 0.97993 0.01603 0.0
C128 C 0.52466 0.0567 0.03457 0.0
C129 C 0.49059 0.96222 0.03299 0.0
C130 C 0.62794 0.07435 0.0409 0.0
C131 C 0.61105 0.18635 0.0199 0.0
N132 N 0.53168 0.00051 0.04118 0.0
N133 N 0.56692 0.15094 0.02694 0.0
H134 H 0.17288 0.48599 0.43064 0.0
H135 H 0.96748 0.67328 0.56779 0.0
H136 H 0.14549 0.44817 0.56538 0.0
H137 H 0.95742 0.64794 0.43094 0.0
H138 H 0.03743 0.5981 0.57235 0.0
H139 H 0.10605 0.56152 0.43546 0.0
C140 C 0.15362 0.49418 0.46156 0.0
C141 C 0.16281 0.45911 0.49726 0.0
C142 C 0.01937 0.60896 0.5415 0.0
C143 C 0.08523 0.54484 0.50263 0.0
C144 C 0.97985 0.65173 0.53894 0.0
C145 C 0.95969 0.6693 0.49874 0.0
C146 C 0.0379 0.58388 0.50342 0.0
C147 C 0.97348 0.63751 0.46251 0.0
C148 C 0.11473 0.53681 0.46408 0.0
C149 C 0.13771 0.47296 0.53669 0.0
N150 N 0.01275 0.59726 0.46557 0.0
N151 N 0.09898 0.51434 0.53827 0.0
H152 H 0.21128 0.13848 0.33672 0.0
H153 H 0.44291 0.12286 0.16074 0.0
H154 H 0.32469 0.28058 0.32638 0.0
H155 H 0.2705 0.07856 0.13626 0.0
H156 H 0.4123 0.17457 0.22523 0.0
H157 H 0.24649 0.10413 0.26857 0.0
C158 C 0.24391 0.16241 0.3203 0.0
C159 C 0.26481 0.21279 0.33721 0.0
C160 C 0.38144 0.1543 0.20505 0.0
C161 C 0.30529 0.17326 0.25895 0.0
C162 C 0.39875 0.12506 0.16847 0.0
C163 C 0.35913 0.09676 0.14328 0.0
C164 C 0.32469 0.15286 0.21691 0.0
C165 C 0.30238 0.10036 0.15453 0.0
C166 C 0.26366 0.14287 0.28123 0.0
C167 C 0.30745 0.24157 0.31441 0.0
N168 N 0.28702 0.12679 0.19101 0.0
N169 N 0.32659 0.22126 0.27624 0.0
H170 H 0.03801 0.24774 0.63973 0.0
H171 H 0.82074 0.31223 0.82423 0.0
H172 H 0.98142 0.4184 0.65212 0.0
H173 H 0.96243 0.20252 0.83805 0.0
H174 H 0.86027 0.34644 0.75506 0.0
H175 H -0.01385 0.22202 0.70441 0.0
C176 C 0.01421 0.27982 0.6559 0.0
C177 C 0.01513 0.33563 0.64118 0.0
C178 C 0.88253 0.31528 0.77373 0.0
C179 C 0.95569 0.3062 0.71547 0.0
C180 C 0.86027 0.29586 0.81305 0.0
C181 C 0.88811 0.25405 0.83671 0.0
C182 C 0.9321 0.29177 0.7581 0.0
C183 C 0.9391 0.23425 0.82082 0.0
C184 C -0.01525 0.26506 0.69287 0.0
C185 C 0.9822 0.37503 0.66282 0.0
N186 N 0.95901 0.25279 0.78236 0.0
N187 N 0.95405 0.35969 0.69949 0.0
H188 H 0.78436 0.86433 0.34205 0.0
H189 H 0.84069 0.02807 0.12175 0.0
H190 H 0.9352 0.95774 0.3105 0.0
H191 H 0.6814 0.04431 0.18656 0.0
H192 H 0.87103 0.9646 0.17862 0.0
H193 H 0.7429 0.89766 0.27378 0.0
C194 C 0.80867 0.8916 0.32083 0.0
C195 C 0.86289 0.90913 0.33219 0.0
C196 C 0.82889 0.98091 0.17969 0.0
C197 C 0.81693 0.94499 0.25439 0.0
C198 C 0.8113 0.01706 0.14721 0.0
C199 C 0.75886 0.04296 0.15013 0.0
C200 C 0.79358 0.96978 0.21492 0.0
C201 C 0.72263 0.02631 0.18371 0.0
C202 C 0.78515 0.91025 0.28208 0.0
C203 C 0.89297 0.94388 0.30343 0.0
N204 N 0.74101 -0.00873 0.21539 0.0
N205 N 0.86965 0.96048 0.26585 0.0
H206 H 0.10406 0.69706 0.67044 0.0
H207 H 0.19758 0.9396 0.81743 0.0
H208 H 0.1175 0.86845 0.62456 0.0
H209 H 0.27293 0.77745 0.83608 0.0
H210 H 0.16627 0.91109 0.74668 0.0
H211 H 0.16741 0.72055 0.72969 0.0
C212 C 0.12129 0.73922 0.67217 0.0
C213 C 0.10414 0.78129 0.6432 0.0
C214 C 0.19022 0.88178 0.76586 0.0
C215 C 0.17569 0.80821 0.71089 0.0
C216 C 0.2076 0.89781 0.8065 0.0
C217 C 0.23722 0.86047 0.83277 0.0
C218 C 0.20117 0.82738 0.75152 0.0
C219 C 0.24984 0.8072 0.81672 0.0
C220 C 0.15748 0.75248 0.70595 0.0
C221 C 0.12844 0.83493 0.64665 0.0
N222 N 0.23068 0.79164 0.77722 0.0
N223 N 0.1619 0.84716 0.68049 0.0
H224 H 0.82936 0.01209 0.88433 0.0
H225 H 0.81849 0.89263 0.64467 0.0
H226 H 0.72745 0.08195 0.78313 0.0
H227 H 0.9297 0.83137 0.74315 0.0
H228 H 0.77262 0.9511 0.69842 0.0
H229 H 0.85512 0.93558 0.8365 0.0
C230 C 0.81179 0.01101 0.85226 0.0
C231 C 0.77653 0.05389 0.83762 0.0
C232 C 0.80648 0.92417 0.70842 0.0
C233 C 0.80615 0.96643 0.78255 0.0
C234 C 0.83239 0.89041 0.67777 0.0
C235 C 0.87837 0.85747 0.68932 0.0
C236 C 0.82666 0.9249 0.75088 0.0
C237 C 0.89478 0.85659 0.7327 0.0
C238 C 0.82662 0.96731 0.82491 0.0
C239 C 0.75506 0.0501 0.79573 0.0
N240 N 0.8694 0.89027 0.76175 0.0
N241 N 0.77058 0.0075 0.76959 0.0
H242 H 0.25737 0.95097 0.1983 0.0
H243 H 0.08878 0.71386 0.33146 0.0
H244 H 0.23109 0.78173 0.15368 0.0
H245 H 0.08031 0.89067 0.35977 0.0
H246 H 0.15663 0.73516 0.27435 0.0
H247 H 0.20783 0.92633 0.26507 0.0
C248 C 0.24197 0.90835 0.20278 0.0
C249 C 0.24804 0.86838 0.17013 0.0
C250 C 0.14022 0.76924 0.29327 0.0
C251 C 0.19131 0.84002 0.24661 0.0
C252 C 0.10157 0.75712 0.32599 0.0
C253 C 0.07815 0.80058 0.3501 0.0
C254 C 0.15576 0.82524 0.28452 0.0
C255 C 0.09686 0.85581 0.34178 0.0
C256 C 0.21346 0.89444 0.24087 0.0
C257 C 0.22698 0.81397 0.17777 0.0
N258 N 0.13418 0.8666 0.30944 0.0
N259 N 0.19939 0.80146 0.21511 0.0
H260 H 0.23352 0.31104 0.72357 0.0
H261 H 0.28796 0.01193 0.81769 0.0
H262 H 0.27067 0.17083 0.64225 0.0
H263 H 0.35607 0.15428 0.88524 0.0
H264 H 0.27054 0.07241 0.75538 0.0
H265 H 0.27148 0.25869 0.78561 0.0
C266 C 0.25184 0.27021 0.71857 0.0
C267 C 0.25035 0.24541 0.67784 0.0
C268 C 0.2894 0.09047 0.78379 0.0
C269 C 0.29069 0.18479 0.74828 0.0
C270 C 0.29879 0.05614 0.81948 0.0
C271 C 0.32323 0.07835 0.85663 0.0
C272 C 0.30314 0.14781 0.78551 0.0
C273 C 0.33718 0.13576 0.85705 0.0
C274 C 0.2729 0.24025 0.7539 0.0
C275 C 0.27225 0.19159 0.67309 0.0
N276 N 0.32621 0.16892 0.82211 0.0
N277 N 0.2907 0.16267 0.70802 0.0
H278 H 0.81219 0.28822 0.20332 0.0
H279 H 0.06753 0.22877 0.35737 0.0
H280 H 0.96282 0.20226 0.16667 0.0
H281 H -0.00773 0.39253 0.36434 0.0
H282 H 0.00736 0.20648 0.29704 0.0
H283 H 0.85993 0.31963 0.26987 0.0
C284 C 0.85534 0.27686 0.20887 0.0
C285 C 0.88347 0.24194 0.17987 0.0
C286 C 0.00363 0.24717 0.31201 0.0
C287 C 0.93698 0.27624 0.2552 0.0
C288 C 0.03786 0.25993 0.34663 0.0
C289 C 0.03592 0.31313 0.36545 0.0
C290 C 0.96657 0.28747 0.29599 0.0
C291 C -0.00431 0.35129 0.35031 0.0
C292 C 0.88228 0.29446 0.24674 0.0
C293 C 0.93914 0.2281 0.18854 0.0
N294 N 0.9627 0.33794 0.31603 0.0
N295 N 0.9637 0.24472 0.22545 0.0
loop_
_geom_bond_atom_site_label_1
_geom_bond_atom_site_label_2
_geom_bond_distance
_geom_bond_site_symmetry_2
_ccdc_geom_bond_type
Zn0 O6 1.969 . S
Zn0 O7 1.965 . S
Zn0 O11 2.024 1_545 S
Zn0 O16 1.969 . S
Zn1 O8 1.969 . S
Zn1 O14 1.969 . S
Zn1 O15 1.965 . S
Zn1 O17 2.024 1_565 S
C2 O3 1.229 . S
C2 O11 1.058 . S
O3 C2 1.229 . S
C4 O5 1.229 . S
C4 O17 1.058 . S
O5 C4 1.229 . S
O6 Zn0 1.969 . S
O6 C9 1.267 . S
O7 Zn0 1.965 . S
O7 C18 1.243 1_554 S
O8 Zn1 1.969 . S
O8 C18 1.284 1_565 S
C9 O6 1.267 . S
C9 O10 1.228 . S
O10 C9 1.228 . S
O11 Zn0 2.024 1_565 S
O11 C2 1.058 . S
C12 O13 1.228 . S
C12 O14 1.267 . S
O13 C12 1.228 . S
O14 Zn1 1.969 . S
O14 C12 1.267 . S
O15 Zn1 1.965 . S
O15 C19 1.253 1_566 S
O16 Zn0 1.969 . S
O16 C19 1.261 . S
O17 Zn1 2.024 1_545 S
O17 C4 1.058 . S
C18 O7 1.243 1_556 S
C18 O8 1.284 1_545 S
C19 O15 1.253 1_544 S
C19 O16 1.261 . S
Zn20 O26 1.969 . S
Zn20 O27 1.965 . S
Zn20 O31 2.024 . S
Zn20 O36 1.969 . S
Zn21 O28 1.969 . S
Zn21 O34 1.969 . S
Zn21 O35 1.965 . S
Zn21 O37 2.024 . S
C22 O23 1.229 . S
C22 O31 1.058 . S
O23 C22 1.229 . S
C24 O25 1.229 . S
C24 O37 1.058 . S
O25 C24 1.229 . S
O26 Zn20 1.969 . S
O26 C29 1.267 . S
O27 Zn20 1.965 . S
O27 C38 1.260 . S
O28 Zn21 1.969 . S
O28 C38 1.258 . S
C29 O26 1.267 . S
C29 O30 1.228 . S
O30 C29 1.228 . S
O31 Zn20 2.024 . S
O31 C22 1.058 . S
C32 O33 1.228 . S
C32 O34 1.267 . S
O33 C32 1.228 . S
O34 Zn21 1.969 . S
O34 C32 1.267 . S
O35 Zn21 1.965 . S
O35 C39 1.260 . S
O36 Zn20 1.969 . S
O36 C39 1.258 . S
O37 Zn21 2.024 . S
O37 C24 1.058 . S
C38 O27 1.260 . S
C38 O28 1.258 . S
C39 O35 1.260 . S
C39 O36 1.258 . S
Zn40 O46 1.969 . S
Zn40 O47 1.965 . S
Zn40 O51 2.024 . S
Zn40 O56 1.969 . S
Zn41 O48 1.969 . S
Zn41 O54 1.969 . S
Zn41 O55 1.965 . S
Zn41 O57 2.024 . S
C42 O43 1.229 . S
C42 O51 1.058 . S
O43 C42 1.229 . S
C44 O45 1.229 . S
C44 O57 1.058 . S
O45 C44 1.229 . S
O46 Zn40 1.969 . S
O46 C49 1.267 . S
O47 Zn40 1.965 . S
O47 C58 1.244 1_554 S
O48 Zn41 1.969 . S
O48 C58 1.283 . S
C49 O46 1.267 . S
C49 O50 1.228 . S
O50 C49 1.228 . S
O51 Zn40 2.024 . S
O51 C42 1.058 . S
C52 O53 1.228 . S
C52 O54 1.267 . S
O53 C52 1.228 . S
O54 Zn41 1.969 . S
O54 C52 1.267 . S
O55 Zn41 1.965 . S
O55 C59 1.260 1_556 S
O56 Zn40 1.969 . S
O56 C59 1.258 . S
O57 Zn41 2.024 . S
O57 C44 1.058 . S
C58 O47 1.244 1_556 S
C58 O48 1.283 . S
C59 O55 1.260 1_554 S
C59 O56 1.258 . S
Zn60 O66 1.969 . S
Zn60 O67 1.965 . S
Zn60 O71 2.024 1_455 S
Zn60 O76 1.969 . S
Zn61 O68 1.969 . S
Zn61 O74 1.969 . S
Zn61 O75 1.965 . S
Zn61 O77 2.024 1_655 S
C62 O63 1.229 . S
C62 O71 1.058 . S
O63 C62 1.229 . S
C64 O65 1.229 . S
C64 O77 1.058 . S
O65 C64 1.229 . S
O66 Zn60 1.969 . S
O66 C69 1.267 . S
O67 Zn60 1.965 . S
O67 C78 1.260 . S
O68 Zn61 1.969 . S
O68 C78 1.258 1_655 S
C69 O66 1.267 . S
C69 O70 1.228 . S
O70 C69 1.228 . S
O71 Zn60 2.024 1_655 S
O71 C62 1.058 . S
C72 O73 1.228 . S
C72 O74 1.267 . S
O73 C72 1.228 . S
O74 Zn61 1.969 . S
O74 C72 1.267 . S
O75 Zn61 1.965 . S
O75 C79 1.252 1_655 S
O76 Zn60 1.969 . S
O76 C79 1.261 . S
O77 Zn61 2.024 1_455 S
O77 C64 1.058 . S
C78 O67 1.260 . S
C78 O68 1.258 1_455 S
C79 O75 1.252 1_455 S
C79 O76 1.261 . S
H80 C86 0.930 . S
H81 C90 0.930 . S
H82 C95 0.929 . S
H83 C93 0.929 . S
H84 C88 0.929 . S
H85 C94 0.929 . S
C86 H80 0.930 . S
C86 C87 1.367 1_554 S
C86 C94 1.378 1_655 S
C87 C86 1.367 1_556 S
C87 C95 1.433 . S
C88 H84 0.929 . S
C88 C90 1.378 . S
C88 C92 1.350 . S
C89 C92 1.463 . S
C89 C94 1.350 1_556 S
C89 N97 1.427 . S
C90 H81 0.930 . S
C90 C88 1.378 . S
C90 C91 1.357 1_545 S
C91 C90 1.357 1_565 S
C91 C93 1.435 1_556 S
C92 C88 1.350 . S
C92 C89 1.463 . S
C92 N96 1.427 1_556 S
C93 H83 0.929 . S
C93 C91 1.435 1_554 S
C93 N96 1.384 1_565 S
C94 H85 0.929 . S
C94 C86 1.378 1_455 S
C94 C89 1.350 1_554 S
C95 H82 0.929 . S
C95 C87 1.433 . S
C95 N97 1.384 1_655 S
N96 C92 1.427 1_554 S
N96 C93 1.384 1_545 S
N97 C89 1.427 . S
N97 C95 1.384 1_455 S
H98 C104 0.930 . S
H99 C108 0.930 . S
H100 C113 0.929 . S
H101 C111 0.929 . S
H102 C106 0.929 . S
H103 C112 0.929 . S
C104 H98 0.930 . S
C104 C105 1.364 1_455 S
C104 C112 1.378 . S
C105 C104 1.364 1_655 S
C105 C113 1.434 . S
C106 H102 0.929 . S
C106 C108 1.378 . S
C106 C110 1.350 . S
C107 C110 1.463 . S
C107 C112 1.350 1_545 S
C107 N115 1.417 1_455 S
C108 H99 0.930 . S
C108 C106 1.378 . S
C108 C109 1.367 . S
C109 C108 1.367 . S
C109 C111 1.433 . S
C110 C106 1.350 . S
C110 C107 1.463 . S
C110 N114 1.427 . S
C111 H101 0.929 . S
C111 C109 1.433 . S
C111 N114 1.384 . S
C112 H103 0.929 . S
C112 C104 1.378 . S
C112 C107 1.350 1_565 S
C113 H100 0.929 . S
C113 C105 1.434 . S
C113 N115 1.389 1_565 S
N114 C110 1.427 . S
N114 C111 1.384 . S
N115 C107 1.417 1_655 S
N115 C113 1.389 1_545 S
H116 C122 0.930 . S
H117 C126 0.930 . S
H118 C131 0.929 . S
H119 C129 0.929 . S
H120 C124 0.929 . S
H121 C130 0.929 . S
C122 H116 0.930 . S
C122 C123 1.367 . S
C122 C130 1.378 . S
C123 C122 1.367 . S
C123 C131 1.433 1_554 S
C124 H120 0.929 . S
C124 C126 1.378 . S
C124 C128 1.350 1_556 S
C125 C128 1.463 . S
C125 C130 1.350 . S
C125 N133 1.427 1_554 S
C126 H117 0.930 . S
C126 C124 1.378 . S
C126 C127 1.367 1_556 S
C127 C126 1.367 1_554 S
C127 C129 1.433 1_545 S
C128 C124 1.350 1_554 S
C128 C125 1.463 . S
C128 N132 1.427 . S
C129 H119 0.929 . S
C129 C127 1.433 1_565 S
C129 N132 1.384 1_565 S
C130 H121 0.929 . S
C130 C122 1.378 . S
C130 C125 1.350 . S
C131 H118 0.929 . S
C131 C123 1.433 1_556 S
C131 N133 1.384 . S
N132 C128 1.427 . S
N132 C129 1.384 1_545 S
N133 C125 1.427 1_556 S
N133 C131 1.384 . S
H134 C140 0.930 . S
H135 C144 0.930 . S
H136 C149 0.929 . S
H137 C147 0.929 . S
H138 C142 0.929 . S
H139 C148 0.929 . S
C140 H134 0.930 . S
C140 C141 1.367 . S
C140 C148 1.378 . S
C141 C140 1.367 . S
C141 C149 1.433 . S
C142 H138 0.929 . S
C142 C144 1.378 . S
C142 C146 1.350 . S
C143 C146 1.463 . S
C143 C148 1.350 . S
C143 N151 1.427 . S
C144 H135 0.930 . S
C144 C142 1.378 . S
C144 C145 1.367 . S
C145 C144 1.367 . S
C145 C147 1.433 . S
C146 C142 1.350 . S
C146 C143 1.463 . S
C146 N150 1.427 . S
C147 H137 0.929 . S
C147 C145 1.433 . S
C147 N150 1.384 . S
C148 H139 0.929 . S
C148 C140 1.378 . S
C148 C143 1.350 . S
C149 H136 0.929 . S
C149 C141 1.433 . S
C149 N151 1.384 . S
N150 C146 1.427 . S
N150 C147 1.384 . S
N151 C143 1.427 . S
N151 C149 1.384 . S
H152 C158 0.930 . S
H153 C162 0.930 . S
H154 C167 0.929 . S
H155 C165 0.929 . S
H156 C160 0.929 . S
H157 C166 0.929 . S
C158 H152 0.930 . S
C158 C159 1.367 . S
C158 C166 1.378 . S
C159 C158 1.367 . S
C159 C167 1.433 . S
C160 H156 0.929 . S
C160 C162 1.378 . S
C160 C164 1.350 . S
C161 C164 1.463 . S
C161 C166 1.350 . S
C161 N169 1.427 . S
C162 H153 0.930 . S
C162 C160 1.378 . S
C162 C163 1.367 . S
C163 C162 1.367 . S
C163 C165 1.433 . S
C164 C160 1.350 . S
C164 C161 1.463 . S
C164 N168 1.427 . S
C165 H155 0.929 . S
C165 C163 1.433 . S
C165 N168 1.384 . S
C166 H157 0.929 . S
C166 C158 1.378 . S
C166 C161 1.350 . S
C167 H154 0.929 . S
C167 C159 1.433 . S
C167 N169 1.384 . S
N168 C164 1.427 . S
N168 C165 1.384 . S
N169 C161 1.427 . S
N169 C167 1.384 . S
H170 C176 0.930 . S
H171 C180 0.930 . S
H172 C185 0.929 . S
H173 C183 0.929 . S
H174 C178 0.929 . S
H175 C184 0.929 . S
C176 H170 0.930 . S
C176 C177 1.367 . S
C176 C184 1.378 . S
C177 C176 1.367 . S
C177 C185 1.433 1_455 S
C178 H174 0.929 . S
C178 C180 1.378 . S
C178 C182 1.350 . S
C179 C182 1.463 . S
C179 C184 1.350 1_655 S
C179 N187 1.427 . S
C180 H171 0.930 . S
C180 C178 1.378 . S
C180 C181 1.367 . S
C181 C180 1.367 . S
C181 C183 1.433 . S
C182 C178 1.350 . S
C182 C179 1.463 . S
C182 N186 1.427 . S
C183 H173 0.929 . S
C183 C181 1.433 . S
C183 N186 1.384 . S
C184 H175 0.929 . S
C184 C176 1.378 . S
C184 C179 1.350 1_455 S
C185 H172 0.929 . S
C185 C177 1.433 1_655 S
C185 N187 1.384 . S
N186 C182 1.427 . S
N186 C183 1.384 . S
N187 C179 1.427 . S
N187 C185 1.384 . S
H188 C194 0.930 . S
H189 C198 0.930 . S
H190 C203 0.929 . S
H191 C201 0.929 . S
H192 C196 0.929 . S
H193 C202 0.929 . S
C194 H188 0.930 . S
C194 C195 1.367 . S
C194 C202 1.378 . S
C195 C194 1.367 . S
C195 C203 1.433 . S
C196 H192 0.929 . S
C196 C198 1.378 . S
C196 C200 1.350 1_545 S
C197 C200 1.463 . S
C197 C202 1.350 . S
C197 N205 1.427 . S
C198 H189 0.930 . S
C198 C196 1.378 . S
C198 C199 1.367 . S
C199 C198 1.367 . S
C199 C201 1.433 1_545 S
C200 C196 1.350 1_565 S
C200 C197 1.463 . S
C200 N204 1.427 . S
C201 H191 0.929 . S
C201 C199 1.433 1_565 S
C201 N204 1.384 . S
C202 H193 0.929 . S
C202 C194 1.378 . S
C202 C197 1.350 . S
C203 H190 0.929 . S
C203 C195 1.433 . S
C203 N205 1.384 . S
N204 C200 1.427 . S
N204 C201 1.384 . S
N205 C197 1.427 . S
N205 C203 1.384 . S
H206 C212 0.930 . S
H207 C216 0.930 . S
H208 C221 0.929 . S
H209 C219 0.929 . S
H210 C214 0.929 . S
H211 C220 0.929 . S
C212 H206 0.930 . S
C212 C213 1.367 . S
C212 C220 1.378 . S
C213 C212 1.367 . S
C213 C221 1.433 . S
C214 H210 0.929 . S
C214 C216 1.378 . S
C214 C218 1.350 . S
C215 C218 1.463 . S
C215 C220 1.350 . S
C215 N223 1.427 . S
C216 H207 0.930 . S
C216 C214 1.378 . S
C216 C217 1.367 . S
C217 C216 1.367 . S
C217 C219 1.433 . S
C218 C214 1.350 . S
C218 C215 1.463 . S
C218 N222 1.427 . S
C219 H209 0.929 . S
C219 C217 1.433 . S
C219 N222 1.384 . S
C220 H211 0.929 . S
C220 C212 1.378 . S
C220 C215 1.350 . S
C221 H208 0.929 . S
C221 C213 1.433 . S
C221 N223 1.384 . S
N222 C218 1.427 . S
N222 C219 1.384 . S
N223 C215 1.427 . S
N223 C221 1.384 . S
H224 C230 0.930 . S
H225 C234 0.930 . S
H226 C239 0.929 . S
H227 C237 0.929 . S
H228 C232 0.929 1_545 S
H229 C238 0.929 . S
C230 H224 0.930 . S
C230 C231 1.367 1_565 S
C230 C238 1.378 . S
C231 C230 1.367 1_545 S
C231 C239 1.433 . S
C232 H228 0.929 1_565 S
C232 C234 1.378 . S
C232 C236 1.350 . S
C233 C236 1.463 . S
C233 C238 1.350 . S
C233 N241 1.427 1_565 S
C234 H225 0.930 . S
C234 C232 1.378 . S
C234 C235 1.367 . S
C235 C234 1.367 . S
C235 C237 1.433 . S
C236 C232 1.350 . S
C236 C233 1.463 . S
C236 N240 1.427 . S
C237 H227 0.929 . S
C237 C235 1.433 . S
C237 N240 1.384 . S
C238 H229 0.929 . S
C238 C230 1.378 . S
C238 C233 1.350 . S
C239 H226 0.929 . S
C239 C231 1.433 . S
C239 N241 1.384 . S
N240 C236 1.427 . S
N240 C237 1.384 . S
N241 C233 1.427 1_545 S
N241 C239 1.384 . S
H242 C248 0.930 . S
H243 C252 0.930 . S
H244 C257 0.929 . S
H245 C255 0.929 . S
H246 C250 0.929 . S
H247 C256 0.929 . S
C248 H242 0.930 . S
C248 C249 1.367 . S
C248 C256 1.378 . S
C249 C248 1.367 . S
C249 C257 1.433 . S
C250 H246 0.929 . S
C250 C252 1.378 . S
C250 C254 1.350 . S
C251 C254 1.463 . S
C251 C256 1.350 . S
C251 N259 1.427 . S
C252 H243 0.930 . S
C252 C250 1.378 . S
C252 C253 1.367 . S
C253 C252 1.367 . S
C253 C255 1.433 . S
C254 C250 1.350 . S
C254 C251 1.463 . S
C254 N258 1.427 . S
C255 H245 0.929 . S
C255 C253 1.433 . S
C255 N258 1.384 . S
C256 H247 0.929 . S
C256 C248 1.378 . S
C256 C251 1.350 . S
C257 H244 0.929 . S
C257 C249 1.433 . S
C257 N259 1.384 . S
N258 C254 1.427 . S
N258 C255 1.384 . S
N259 C251 1.427 . S
N259 C257 1.384 . S
H260 C266 0.930 . S
H261 C270 0.930 . S
H262 C275 0.929 . S
H263 C273 0.929 . S
H264 C268 0.929 . S
H265 C274 0.929 . S
C266 H260 0.930 . S
C266 C267 1.367 . S
C266 C274 1.378 . S
C267 C266 1.367 . S
C267 C275 1.433 . S
C268 H264 0.929 . S
C268 C270 1.378 . S
C268 C272 1.350 . S
C269 C272 1.463 . S
C269 C274 1.350 . S
C269 N277 1.427 . S
C270 H261 0.930 . S
C270 C268 1.378 . S
C270 C271 1.367 . S
C271 C270 1.367 . S
C271 C273 1.433 . S
C272 C268 1.350 . S
C272 C269 1.463 . S
C272 N276 1.427 . S
C273 H263 0.929 . S
C273 C271 1.433 . S
C273 N276 1.384 . S
C274 H265 0.929 . S
C274 C266 1.378 . S
C274 C269 1.350 . S
C275 H262 0.929 . S
C275 C267 1.433 . S
C275 N277 1.384 . S
N276 C272 1.427 . S
N276 C273 1.384 . S
N277 C269 1.427 . S
N277 C275 1.384 . S
H278 C284 0.930 . S
H279 C288 0.930 . S
H280 C293 0.929 . S
H281 C291 0.929 . S
H282 C286 0.929 . S
H283 C292 0.929 . S
C284 H278 0.930 . S
C284 C285 1.367 . S
C284 C292 1.378 . S
C285 C284 1.367 . S
C285 C293 1.433 . S
C286 H282 0.929 . S
C286 C288 1.378 . S
C286 C290 1.350 1_455 S
C287 C290 1.463 . S
C287 C292 1.350 . S
C287 N295 1.427 . S
C288 H279 0.930 . S
C288 C286 1.378 . S
C288 C289 1.367 . S
C289 C288 1.367 . S
C289 C291 1.433 1_455 S
C290 C286 1.350 1_655 S
C290 C287 1.463 . S
C290 N294 1.427 . S
C291 H281 0.929 . S
C291 C289 1.433 1_655 S
C291 N294 1.384 . S
C292 H283 0.929 . S
C292 C284 1.378 . S
C292 C287 1.350 . S
C293 H280 0.929 . S
C293 C285 1.433 . S
C293 N295 1.384 . S
N294 C290 1.427 . S
N294 C291 1.384 . S
N295 C287 1.427 . S
N295 C293 1.384 . S
C87 C59 0.363 1_556 S
C91 C19 0.394 1_566 S
C105 C79 0.374 1_655 S
C109 C39 0.365 . S
C123 C58 1.163 1_554 S
C127 C18 1.159 1_554 S
C141 C38 1.169 . S
C145 C78 1.181 . S
C159 C32 1.155 . S
C163 C9 1.230 . S
C177 C29 1.214 . S
C181 C52 1.179 . S
C195 C72 1.178 . S
C199 C49 1.213 . S
C213 C69 1.229 . S
C217 C12 1.153 . S
C231 C44 1.654 . S
C235 C62 1.523 . S
C249 C2 1.511 . S
C253 C64 1.650 . S
C267 C22 1.525 . S
C271 C4 1.637 . S
C285 C42 1.533 . S
C289 C24 1.639 . S
