# Generated by pormake.
# Topology wir, (6)-cn, num edge types: 1
# Building blocks:
#     Node 0, Type 0, BuildingBlock: INOVEN_clean_sbu_0, # of connection points: 6
#     Node 1, Type 0, BuildingBlock: INOVEN_clean_sbu_0, # of connection points: 6
#     Node 2, Type 0, BuildingBlock: INOVEN_clean_sbu_0, # of connection points: 6
#     Node 3, Type 0, BuildingBlock: INOVEN_clean_sbu_0, # of connection points: 6
#     Node 4, Type 0, BuildingBlock: INOVEN_clean_sbu_0, # of connection points: 6
#     Node 5, Type 0, BuildingBlock: INOVEN_clean_sbu_0, # of connection points: 6
#     Node 6, Type 0, BuildingBlock: INOVEN_clean_sbu_0, # of connection points: 6
#     Node 7, Type 0, BuildingBlock: INOVEN_clean_sbu_0, # of connection points: 6
#     Node 8, Type 0, BuildingBlock: INOVEN_clean_sbu_0, # of connection points: 6
#     Node 9, Type 0, BuildingBlock: INOVEN_clean_sbu_0, # of connection points: 6
#     Node 10, Type 0, BuildingBlock: INOVEN_clean_sbu_0, # of connection points: 6
#     Node 11, Type 0, BuildingBlock: INOVEN_clean_sbu_0, # of connection points: 6
#     Node 12, Type 0, BuildingBlock: INOVEN_clean_sbu_0, # of connection points: 6
#     Node 13, Type 0, BuildingBlock: INOVEN_clean_sbu_0, # of connection points: 6
#     Node 14, Type 0, BuildingBlock: INOVEN_clean_sbu_0, # of connection points: 6
#     Node 15, Type 0, BuildingBlock: INOVEN_clean_sbu_0, # of connection points: 6
#     Node 16, Type 0, BuildingBlock: INOVEN_clean_sbu_0, # of connection points: 6
#     Node 17, Type 0, BuildingBlock: INOVEN_clean_sbu_0, # of connection points: 6
#     Node 18, Type 0, BuildingBlock: INOVEN_clean_sbu_0, # of connection points: 6
#     Node 19, Type 0, BuildingBlock: INOVEN_clean_sbu_0, # of connection points: 6
#     Node 20, Type 0, BuildingBlock: INOVEN_clean_sbu_0, # of connection points: 6
#     Node 21, Type 0, BuildingBlock: INOVEN_clean_sbu_0, # of connection points: 6
#     Node 22, Type 0, BuildingBlock: INOVEN_clean_sbu_0, # of connection points: 6
#     Node 23, Type 0, BuildingBlock: INOVEN_clean_sbu_0, # of connection points: 6
#     Node 24, Type 0, BuildingBlock: INOVEN_clean_sbu_0, # of connection points: 6
#     Node 25, Type 0, BuildingBlock: INOVEN_clean_sbu_0, # of connection points: 6
#     Node 26, Type 0, BuildingBlock: INOVEN_clean_sbu_0, # of connection points: 6
#     Node 27, Type 0, BuildingBlock: INOVEN_clean_sbu_0, # of connection points: 6
#     Node 28, Type 0, BuildingBlock: INOVEN_clean_sbu_0, # of connection points: 6
#     Node 29, Type 0, BuildingBlock: INOVEN_clean_sbu_0, # of connection points: 6
#     Node 30, Type 0, BuildingBlock: INOVEN_clean_sbu_0, # of connection points: 6
#     Node 31, Type 0, BuildingBlock: INOVEN_clean_sbu_0, # of connection points: 6
#     Edge 32, Type (0, 0), BuildingBlock: ZUJKAS_clean_linker_0, # of connection points: 2
#     Edge 33, Type (0, 0), BuildingBlock: ZUJKAS_clean_linker_0, # of connection points: 2
#     Edge 34, Type (0, 0), BuildingBlock: ZUJKAS_clean_linker_0, # of connection points: 2
#     Edge 35, Type (0, 0), BuildingBlock: ZUJKAS_clean_linker_0, # of connection points: 2
#     Edge 36, Type (0, 0), BuildingBlock: ZUJKAS_clean_linker_0, # of connection points: 2
#     Edge 37, Type (0, 0), BuildingBlock: ZUJKAS_clean_linker_0, # of connection points: 2
#     Edge 38, Type (0, 0), BuildingBlock: ZUJKAS_clean_linker_0, # of connection points: 2
#     Edge 39, Type (0, 0), BuildingBlock: ZUJKAS_clean_linker_0, # of connection points: 2
#     Edge 40, Type (0, 0), BuildingBlock: ZUJKAS_clean_linker_0, # of connection points: 2
#     Edge 41, Type (0, 0), BuildingBlock: ZUJKAS_clean_linker_0, # of connection points: 2
#     Edge 42, Type (0, 0), BuildingBlock: ZUJKAS_clean_linker_0, # of connection points: 2
#     Edge 43, Type (0, 0), BuildingBlock: ZUJKAS_clean_linker_0, # of connection points: 2
#     Edge 44, Type (0, 0), BuildingBlock: ZUJKAS_clean_linker_0, # of connection points: 2
#     Edge 45, Type (0, 0), BuildingBlock: ZUJKAS_clean_linker_0, # of connection points: 2
#     Edge 46, Type (0, 0), BuildingBlock: ZUJKAS_clean_linker_0, # of connection points: 2
#     Edge 47, Type (0, 0), BuildingBlock: ZUJKAS_clean_linker_0, # of connection points: 2
#     Edge 48, Type (0, 0), BuildingBlock: ZUJKAS_clean_linker_0, # of connection points: 2
#     Edge 49, Type (0, 0), BuildingBlock: ZUJKAS_clean_linker_0, # of connection points: 2
#     Edge 50, Type (0, 0), BuildingBlock: ZUJKAS_clean_linker_0, # of connection points: 2
#     Edge 51, Type (0, 0), BuildingBlock: ZUJKAS_clean_linker_0, # of connection points: 2
#     Edge 52, Type (0, 0), BuildingBlock: ZUJKAS_clean_linker_0, # of connection points: 2
#     Edge 53, Type (0, 0), BuildingBlock: ZUJKAS_clean_linker_0, # of connection points: 2
#     Edge 54, Type (0, 0), BuildingBlock: ZUJKAS_clean_linker_0, # of connection points: 2
#     Edge 55, Type (0, 0), BuildingBlock: ZUJKAS_clean_linker_0, # of connection points: 2
#     Edge 56, Type (0, 0), BuildingBlock: ZUJKAS_clean_linker_0, # of connection points: 2
#     Edge 57, Type (0, 0), BuildingBlock: ZUJKAS_clean_linker_0, # of connection points: 2
#     Edge 58, Type (0, 0), BuildingBlock: ZUJKAS_clean_linker_0, # of connection points: 2
#     Edge 59, Type (0, 0), BuildingBlock: ZUJKAS_clean_linker_0, # of connection points: 2
#     Edge 60, Type (0, 0), BuildingBlock: ZUJKAS_clean_linker_0, # of connection points: 2
#     Edge 61, Type (0, 0), BuildingBlock: ZUJKAS_clean_linker_0, # of connection points: 2
#     Edge 62, Type (0, 0), BuildingBlock: ZUJKAS_clean_linker_0, # of connection points: 2
#     Edge 63, Type (0, 0), BuildingBlock: ZUJKAS_clean_linker_0, # of connection points: 2
#     Edge 64, Type (0, 0), BuildingBlock: ZUJKAS_clean_linker_0, # of connection points: 2
#     Edge 65, Type (0, 0), BuildingBlock: ZUJKAS_clean_linker_0, # of connection points: 2
#     Edge 66, Type (0, 0), BuildingBlock: ZUJKAS_clean_linker_0, # of connection points: 2
#     Edge 67, Type (0, 0), BuildingBlock: ZUJKAS_clean_linker_0, # of connection points: 2
#     Edge 68, Type (0, 0), BuildingBlock: ZUJKAS_clean_linker_0, # of connection points: 2
#     Edge 69, Type (0, 0), BuildingBlock: ZUJKAS_clean_linker_0, # of connection points: 2
#     Edge 70, Type (0, 0), BuildingBlock: ZUJKAS_clean_linker_0, # of connection points: 2
#     Edge 71, Type (0, 0), BuildingBlock: ZUJKAS_clean_linker_0, # of connection points: 2
#     Edge 72, Type (0, 0), BuildingBlock: ZUJKAS_clean_linker_0, # of connection points: 2
#     Edge 73, Type (0, 0), BuildingBlock: ZUJKAS_clean_linker_0, # of connection points: 2
#     Edge 74, Type (0, 0), BuildingBlock: ZUJKAS_clean_linker_0, # of connection points: 2
#     Edge 75, Type (0, 0), BuildingBlock: ZUJKAS_clean_linker_0, # of connection points: 2
#     Edge 76, Type (0, 0), BuildingBlock: ZUJKAS_clean_linker_0, # of connection points: 2
#     Edge 77, Type (0, 0), BuildingBlock: ZUJKAS_clean_linker_0, # of connection points: 2
#     Edge 78, Type (0, 0), BuildingBlock: ZUJKAS_clean_linker_0, # of connection points: 2
#     Edge 79, Type (0, 0), BuildingBlock: ZUJKAS_clean_linker_0, # of connection points: 2
#     Edge 80, Type (0, 0), BuildingBlock: ZUJKAS_clean_linker_0, # of connection points: 2
#     Edge 81, Type (0, 0), BuildingBlock: ZUJKAS_clean_linker_0, # of connection points: 2
#     Edge 82, Type (0, 0), BuildingBlock: ZUJKAS_clean_linker_0, # of connection points: 2
#     Edge 83, Type (0, 0), BuildingBlock: ZUJKAS_clean_linker_0, # of connection points: 2
#     Edge 84, Type (0, 0), BuildingBlock: ZUJKAS_clean_linker_0, # of connection points: 2
#     Edge 85, Type (0, 0), BuildingBlock: ZUJKAS_clean_linker_0, # of connection points: 2
#     Edge 86, Type (0, 0), BuildingBlock: ZUJKAS_clean_linker_0, # of connection points: 2
#     Edge 87, Type (0, 0), BuildingBlock: ZUJKAS_clean_linker_0, # of connection points: 2
#     Edge 88, Type (0, 0), BuildingBlock: ZUJKAS_clean_linker_0, # of connection points: 2
#     Edge 89, Type (0, 0), BuildingBlock: ZUJKAS_clean_linker_0, # of connection points: 2
#     Edge 90, Type (0, 0), BuildingBlock: ZUJKAS_clean_linker_0, # of connection points: 2
#     Edge 91, Type (0, 0), BuildingBlock: ZUJKAS_clean_linker_0, # of connection points: 2
#     Edge 92, Type (0, 0), BuildingBlock: ZUJKAS_clean_linker_0, # of connection points: 2
#     Edge 93, Type (0, 0), BuildingBlock: ZUJKAS_clean_linker_0, # of connection points: 2
#     Edge 94, Type (0, 0), BuildingBlock: ZUJKAS_clean_linker_0, # of connection points: 2
#     Edge 95, Type (0, 0), BuildingBlock: ZUJKAS_clean_linker_0, # of connection points: 2
#     Edge 96, Type (0, 0), BuildingBlock: ZUJKAS_clean_linker_0, # of connection points: 2
#     Edge 97, Type (0, 0), BuildingBlock: ZUJKAS_clean_linker_0, # of connection points: 2
#     Edge 98, Type (0, 0), BuildingBlock: ZUJKAS_clean_linker_0, # of connection points: 2
#     Edge 99, Type (0, 0), BuildingBlock: ZUJKAS_clean_linker_0, # of connection points: 2
#     Edge 100, Type (0, 0), BuildingBlock: ZUJKAS_clean_linker_0, # of connection points: 2
#     Edge 101, Type (0, 0), BuildingBlock: ZUJKAS_clean_linker_0, # of connection points: 2
#     Edge 102, Type (0, 0), BuildingBlock: ZUJKAS_clean_linker_0, # of connection points: 2
#     Edge 103, Type (0, 0), BuildingBlock: ZUJKAS_clean_linker_0, # of connection points: 2
#     Edge 104, Type (0, 0), BuildingBlock: ZUJKAS_clean_linker_0, # of connection points: 2
#     Edge 105, Type (0, 0), BuildingBlock: ZUJKAS_clean_linker_0, # of connection points: 2
#     Edge 106, Type (0, 0), BuildingBlock: ZUJKAS_clean_linker_0, # of connection points: 2
#     Edge 107, Type (0, 0), BuildingBlock: ZUJKAS_clean_linker_0, # of connection points: 2
#     Edge 108, Type (0, 0), BuildingBlock: ZUJKAS_clean_linker_0, # of connection points: 2
#     Edge 109, Type (0, 0), BuildingBlock: ZUJKAS_clean_linker_0, # of connection points: 2
#     Edge 110, Type (0, 0), BuildingBlock: ZUJKAS_clean_linker_0, # of connection points: 2
#     Edge 111, Type (0, 0), BuildingBlock: ZUJKAS_clean_linker_0, # of connection points: 2
#     Edge 112, Type (0, 0), BuildingBlock: ZUJKAS_clean_linker_0, # of connection points: 2
#     Edge 113, Type (0, 0), BuildingBlock: ZUJKAS_clean_linker_0, # of connection points: 2
#     Edge 114, Type (0, 0), BuildingBlock: ZUJKAS_clean_linker_0, # of connection points: 2
#     Edge 115, Type (0, 0), BuildingBlock: ZUJKAS_clean_linker_0, # of connection points: 2
#     Edge 116, Type (0, 0), BuildingBlock: ZUJKAS_clean_linker_0, # of connection points: 2
#     Edge 117, Type (0, 0), BuildingBlock: ZUJKAS_clean_linker_0, # of connection points: 2
#     Edge 118, Type (0, 0), BuildingBlock: ZUJKAS_clean_linker_0, # of connection points: 2
#     Edge 119, Type (0, 0), BuildingBlock: ZUJKAS_clean_linker_0, # of connection points: 2
#     Edge 120, Type (0, 0), BuildingBlock: ZUJKAS_clean_linker_0, # of connection points: 2
#     Edge 121, Type (0, 0), BuildingBlock: ZUJKAS_clean_linker_0, # of connection points: 2
#     Edge 122, Type (0, 0), BuildingBlock: ZUJKAS_clean_linker_0, # of connection points: 2
#     Edge 123, Type (0, 0), BuildingBlock: ZUJKAS_clean_linker_0, # of connection points: 2
#     Edge 124, Type (0, 0), BuildingBlock: ZUJKAS_clean_linker_0, # of connection points: 2
#     Edge 125, Type (0, 0), BuildingBlock: ZUJKAS_clean_linker_0, # of connection points: 2
#     Edge 126, Type (0, 0), BuildingBlock: ZUJKAS_clean_linker_0, # of connection points: 2
#     Edge 127, Type (0, 0), BuildingBlock: ZUJKAS_clean_linker_0, # of connection points: 2
# Relax obj value: 0.356
# Max RMSD: 0.201
# Mean RMSD: 0.201
data_MOF--net-wir--node1-INOVEN_clean_sbu_0--edge1-ZUJKAS_clean_linker_0
_symmetry_space_group_name_H-M    P1
_symmetry_Int_Tables_number       1
_symmetry_cell_setting            triclinic
loop_
_symmetry_equiv_pos_as_xyz
'x, y, z'
_cell_length_a     48.38655
_cell_length_b     48.315926
_cell_length_c     133.30254
_cell_angle_alpha  89.971861
_cell_angle_beta   89.910195
_cell_angle_gamma 90.16295
loop_
_atom_site_label
_atom_site_type_symbol
_atom_site_fract_x
_atom_site_fract_y
_atom_site_fract_z
_atom_type_partial_charge
Gd0 Gd 0.25577 0.25129 0.39068 0.0
Gd1 Gd 0.23613 0.20864 0.38496 0.0
C2 C 0.21886 0.22708 0.40642 0.0
C3 C 0.27411 0.30121 0.39328 0.0
C4 C 0.26547 0.32806 0.38924 0.0
C5 C 0.2835 0.35075 0.38945 0.0
C6 C 0.23814 0.33177 0.38606 0.0
C7 C 0.24519 0.38165 0.38557 0.0
C8 C 0.22802 0.3583 0.38431 0.0
C9 C 0.27352 0.37736 0.38749 0.0
C10 C 0.28546 0.21075 0.40177 0.0
C11 C 0.26048 0.24578 0.36664 0.0
C12 C 0.22869 0.15874 0.37829 0.0
C13 C 0.21023 0.14529 0.37111 0.0
C14 C 0.20901 0.11639 0.3708 0.0
C15 C 0.19373 0.16098 0.36462 0.0
C16 C 0.1761 0.11868 0.35706 0.0
C17 C 0.17681 0.14774 0.3576 0.0
C18 C 0.19207 0.10315 0.36383 0.0
C19 C 0.18892 0.24092 0.38521 0.0
O20 O 0.22204 0.25095 0.40201 0.0
O21 O 0.22811 0.20522 0.40164 0.0
O22 O 0.25616 0.2893 0.39917 0.0
O23 O 0.28516 0.28396 0.38694 0.0
O24 O 0.27623 0.23418 0.40486 0.0
O25 O 0.27895 0.20942 0.39233 0.0
O26 O 0.2435 0.2251 0.3687 0.0
O27 O 0.27109 0.25814 0.37451 0.0
O28 O 0.21685 0.16833 0.38632 0.0
O29 O 0.24689 0.17586 0.37457 0.0
O30 O 0.19081 0.21507 0.38752 0.0
O31 O 0.21332 0.24991 0.38266 0.0
H32 H 0.30485 0.34812 0.39169 0.0
H33 H 0.22404 0.31434 0.38567 0.0
H34 H 0.20611 0.36038 0.38289 0.0
H35 H 0.2876 0.3947 0.3882 0.0
H36 H 0.22155 0.10406 0.37582 0.0
H37 H 0.19426 0.18339 0.36488 0.0
H38 H 0.16463 0.1602 0.35251 0.0
H39 H 0.19237 0.08076 0.36348 0.0
Gd40 Gd 0.10489 1.01033 0.63349 0.0
Gd41 Gd 0.14762 0.99086 0.62632 0.0
C42 C 0.13572 0.971 0.64803 0.0
C43 C 0.05729 1.01991 0.64164 0.0
C44 C 1.03224 1.00298 0.64157 0.0
C45 C 1.01316 1.00554 0.64939 0.0
C46 C 1.02971 0.98114 0.63466 0.0
C47 C 0.99143 0.96255 0.64421 0.0
C48 C 1.00929 0.961 0.63596 0.0
C49 C 0.99282 0.98538 0.65071 0.0
C50 C 0.1482 1.04561 0.64061 0.0
C51 C 0.10546 1.01758 0.60949 0.0
C52 C 0.19408 0.99294 0.61701 0.0
C53 C 0.19866 0.99685 0.60618 0.0
C54 C 0.18488 0.98002 0.59917 0.0
C55 C 0.21161 1.02123 0.60289 0.0
C56 C 0.19304 1.01427 0.58615 0.0
C57 C 0.20869 1.02996 0.59297 0.0
C58 C 0.18236 0.98855 0.58921 0.0
C59 C 0.11517 0.94437 0.62668 0.0
O60 O 0.11068 0.97681 0.64497 0.0
O61 O 0.15649 0.97839 0.64223 0.0
O62 O 0.07785 1.00879 0.64643 0.0
O63 O 0.06478 1.0303 0.63304 0.0
O64 O 0.12558 0.05355 0.63628 0.0
O65 O 0.14785 1.01948 0.63977 0.0
O66 O 0.12976 1.00611 0.61106 0.0
O67 O 0.09061 1.02208 0.61756 0.0
O68 O 0.18287 0.96951 0.61987 0.0
O69 O 0.18299 1.01447 0.62138 0.0
O70 O 0.14162 0.94554 0.62823 0.0
O71 O 0.10596 0.9691 0.62455 0.0
H72 H 1.0151 1.02207 0.65484 0.0
H73 H 1.04463 0.97871 0.62865 0.0
H74 H 1.00872 0.94327 0.63099 0.0
H75 H 0.97929 0.98662 0.65718 0.0
H76 H 0.17443 0.96122 0.60148 0.0
H77 H 0.2223 1.03454 0.60816 0.0
H78 H 0.21799 0.04943 0.59073 0.0
H79 H 0.1704 0.97591 0.58409 0.0
Gd80 Gd 0.33204 0.84486 0.89159 0.0
Gd81 Gd 0.35589 0.8866 0.88593 0.0
C82 C 0.37091 0.86733 0.90767 0.0
C83 C 0.3145 0.79683 0.89734 0.0
C84 C 0.32432 0.76948 0.8943 0.0
C85 C 0.30769 0.74596 0.89544 0.0
C86 C 0.35082 0.76694 0.89016 0.0
C87 C 0.34599 0.71687 0.88998 0.0
C88 C 0.36163 0.74093 0.88808 0.0
C89 C 0.31837 0.71979 0.89321 0.0
C90 C 0.29975 0.89002 0.89935 0.0
C91 C 0.32906 0.84906 0.8676 0.0
C92 C 0.36356 0.93639 0.87942 0.0
C93 C 0.37376 0.94944 0.87026 0.0
C94 C 0.38124 0.9334 0.86193 0.0
C95 C 0.3783 0.97801 0.87017 0.0
C96 C 0.39833 0.97463 0.85349 0.0
C97 C 0.39053 0.99054 0.86186 0.0
C98 C 0.39338 0.94593 0.85357 0.0
C99 C 0.39969 0.8507 0.8856 0.0
O100 O 0.36339 0.84365 0.90385 0.0
O101 O 0.36523 0.8898 0.90251 0.0
O102 O 0.33209 0.81159 0.90249 0.0
O103 O 0.30272 0.81102 0.89024 0.0
O104 O 0.29062 0.86872 0.89447 0.0
O105 O 0.3258 0.88761 0.89888 0.0
O106 O 0.34084 0.87301 0.86989 0.0
O107 O 0.32363 0.833 0.87525 0.0
O108 O 0.3821 0.92243 0.88436 0.0
O109 O 0.33972 0.92359 0.87885 0.0
O110 O 0.40035 0.87671 0.88781 0.0
O111 O 0.37442 0.84378 0.88314 0.0
H112 H 0.28687 0.74773 0.89836 0.0
H113 H 0.36367 0.78506 0.88898 0.0
H114 H 0.38302 0.73982 0.88573 0.0
H115 H 0.30552 0.70177 0.89455 0.0
H116 H 0.3781 0.91119 0.86197 0.0
H117 H 0.37297 0.99054 0.87663 0.0
H118 H 0.39443 1.01262 0.86208 0.0
H119 H 0.39881 0.9332 0.84719 0.0
Gd120 Gd 0.49645 0.08851 0.13301 0.0
Gd121 Gd 0.45461 0.11148 0.12674 0.0
C122 C 0.46981 0.12565 0.14883 0.0
C123 C 0.5441 0.07407 0.14011 0.0
C124 C 0.57131 0.08736 0.13958 0.0
C125 C 0.59539 0.07149 0.14022 0.0
C126 C 0.57332 0.1162 0.13864 0.0
C127 C 0.62323 0.1136 0.14052 0.0
C128 C 0.59899 0.12922 0.13917 0.0
C129 C 0.62122 0.08449 0.14061 0.0
C130 C 0.45176 0.05435 0.14002 0.0
C131 C 0.49348 0.08377 0.109 0.0
C132 C 0.40655 0.12081 0.11905 0.0
C133 C 0.39756 0.13437 0.10981 0.0
C134 C 0.41681 0.14841 0.10377 0.0
C135 C 0.36942 0.13557 0.10751 0.0
C136 C 0.37961 0.16555 0.09329 0.0
C137 C 0.36048 0.151 0.09929 0.0
C138 C 0.40788 0.16398 0.09557 0.0
C139 C 0.49018 0.15587 0.12707 0.0
O140 O 0.4943 0.12014 0.14525 0.0
O141 O 0.4484 0.11884 0.14329 0.0
O142 O 0.52553 0.08725 0.14531 0.0
O143 O 0.53441 0.06486 0.13164 0.0
O144 O 0.47401 1.04602 0.13554 0.0
O145 O 0.45298 0.08051 0.13944 0.0
O146 O 0.46959 0.09583 0.11099 0.0
O147 O 0.50894 0.07847 0.11682 0.0
O148 O 0.41867 0.13736 0.12538 0.0
O149 O 0.41934 0.09712 0.11807 0.0
O150 O 0.46414 0.15593 0.1291 0.0
O151 O 0.49748 0.13081 0.12457 0.0
H152 H 0.59417 0.04914 0.14073 0.0
H153 H 0.55491 0.12877 0.13795 0.0
H154 H 0.59947 0.15162 0.13919 0.0
H155 H 0.63948 0.0718 0.14144 0.0
H156 H 0.43866 0.14781 0.10553 0.0
H157 H 0.35434 0.12511 0.11219 0.0
H158 H 0.33853 0.15208 0.09775 0.0
H159 H 0.42306 0.17471 0.09101 0.0
Gd160 Gd 0.26293 0.84985 0.23086 0.0
Gd161 Gd 0.23962 0.89169 0.23657 0.0
C162 C 0.22424 0.87268 0.21491 0.0
C163 C 0.27931 0.80205 0.22451 0.0
C164 C 0.2691 0.7743 0.227 0.0
C165 C 0.26863 0.75394 0.21957 0.0
C166 C 0.25601 0.7693 0.23624 0.0
C167 C 0.23863 0.72534 0.23004 0.0
C168 C 0.24106 0.74491 0.23778 0.0
C169 C 0.25353 0.72967 0.22106 0.0
C170 C 0.2955 0.895 0.22311 0.0
C171 C 0.26674 0.8538 0.25474 0.0
C172 C 0.23197 0.94089 0.2436 0.0
C173 C 0.22158 0.95185 0.25311 0.0
C174 C 0.20644 0.9348 0.25965 0.0
C175 C 0.22573 0.97974 0.2555 0.0
C176 C 0.19899 0.97376 0.27081 0.0
C177 C 0.21458 0.99064 0.26431 0.0
C178 C 0.1951 0.94571 0.26842 0.0
C179 C 0.19561 0.85588 0.23696 0.0
O180 O 0.2307 0.84899 0.21892 0.0
O181 O 0.23091 0.89515 0.21994 0.0
O182 O 0.26183 0.81742 0.21963 0.0
O183 O 0.29146 0.81543 0.23176 0.0
O184 O 0.3045 0.87392 0.22814 0.0
O185 O 0.26948 0.89251 0.22354 0.0
O186 O 0.25518 0.87784 0.25251 0.0
O187 O 0.27174 0.83771 0.24708 0.0
O188 O 0.21369 0.92756 0.23827 0.0
O189 O 0.25592 0.92837 0.24392 0.0
O190 O 0.19515 0.88183 0.23467 0.0
O191 O 0.2208 0.84893 0.23943 0.0
H192 H 0.27838 0.7576 0.21236 0.0
H193 H 0.25599 0.78489 0.24207 0.0
H194 H 0.23014 0.74212 0.24481 0.0
H195 H 0.25181 0.71543 0.21482 0.0
H196 H 0.20313 0.91313 0.25791 0.0
H197 H 0.23729 0.99315 0.25049 0.0
H198 H 0.21773 1.01237 0.26596 0.0
H199 H 0.18348 0.93221 0.27337 0.0
Gd200 Gd 0.49325 1.00862 0.4876 0.0
Gd201 Gd 0.44863 0.98741 0.49382 0.0
C202 C 0.46889 0.96731 0.47243 0.0
C203 C 0.54158 1.02252 0.48091 0.0
C204 C 0.56844 1.00891 0.4817 0.0
C205 C 0.58888 1.01464 0.47458 0.0
C206 C 0.57227 0.98729 0.4886 0.0
C207 C 0.61521 0.97475 0.4803 0.0
C208 C 0.59559 0.97041 0.48794 0.0
C209 C 0.6121 0.99773 0.47388 0.0
C210 C 0.44939 1.04283 0.48015 0.0
C211 C 0.48702 1.01585 0.51143 0.0
C212 C 0.397 0.98115 0.49851 0.0
C213 C 0.37402 0.9911 0.50463 0.0
C214 C 0.35026 0.97464 0.50525 0.0
C215 C 0.3735 1.01835 0.50826 0.0
C216 C 0.32478 1.01318 0.51237 0.0
C217 C 0.349 1.02932 0.51211 0.0
C218 C 0.32582 0.98555 0.50909 0.0
C219 C 0.48255 0.94181 0.49363 0.0
O220 O 0.49266 0.97596 0.47584 0.0
O221 O 0.44656 0.97221 0.47777 0.0
O222 O 0.52347 1.00892 0.47563 0.0
O223 O 0.53122 1.03221 0.48922 0.0
O224 O 0.47139 0.05122 0.48481 0.0
O225 O 0.45079 1.01668 0.48069 0.0
O226 O 0.46131 1.00905 0.50895 0.0
O227 O 0.50494 1.01546 0.50404 0.0
O228 O 0.4166 0.96674 0.50271 0.0
O229 O 0.40617 0.99861 0.49184 0.0
O230 O 0.45645 0.9425 0.49162 0.0
O231 O 0.49075 0.96665 0.49612 0.0
H232 H 0.58604 1.03109 0.46915 0.0
H233 H 0.55648 0.98249 0.49411 0.0
H234 H 0.59747 0.9531 0.49305 0.0
H235 H 0.62644 1.00149 0.46778 0.0
H236 H 0.35022 0.95373 0.5023 0.0
H237 H 0.39167 1.03143 0.50772 0.0
H238 H 0.34892 0.05051 0.51477 0.0
H239 H 0.30747 0.97266 0.50912 0.0
Gd240 Gd 0.33938 0.25018 0.73015 0.0
Gd241 Gd 0.36292 0.20741 0.73579 0.0
C242 C 0.37461 0.22456 0.71345 0.0
C243 C 0.32394 0.29878 0.72433 0.0
C244 C 0.33376 0.32603 0.72758 0.0
C245 C 0.33257 0.3484 0.72096 0.0
C246 C 0.34811 0.32877 0.73668 0.0
C247 C 0.36361 0.37465 0.73179 0.0
C248 C 0.36277 0.35297 0.73881 0.0
C249 C 0.34734 0.37255 0.72304 0.0
C250 C 0.30555 0.20535 0.72295 0.0
C251 C 0.33609 0.24457 0.75414 0.0
C252 C 0.37303 0.15784 0.74209 0.0
C253 C 0.38502 0.14499 0.75097 0.0
C254 C 0.39208 0.11695 0.75064 0.0
C255 C 0.39156 0.16087 0.75944 0.0
C256 C 0.41212 0.12046 0.76728 0.0
C257 C 0.40495 0.14864 0.76757 0.0
C258 C 0.40555 0.10474 0.75874 0.0
C259 C 0.40647 0.24419 0.73562 0.0
O260 O 0.3689 0.24887 0.71717 0.0
O261 O 0.36874 0.2029 0.71906 0.0
O262 O 0.34229 0.2841 0.71956 0.0
O263 O 0.31057 0.28439 0.73104 0.0
O264 O 0.29714 0.22724 0.72765 0.0
O265 O 0.33163 0.20716 0.72328 0.0
O266 O 0.34657 0.22016 0.75174 0.0
O267 O 0.33201 0.26145 0.74661 0.0
O268 O 0.39037 0.17252 0.73682 0.0
O269 O 0.34898 0.16983 0.74319 0.0
O270 O 0.40693 0.21846 0.73308 0.0
O271 O 0.38151 0.25036 0.73855 0.0
H272 H 0.3218 0.34651 0.71387 0.0
H273 H 0.34942 0.31161 0.74188 0.0
H274 H 0.37485 0.35399 0.74563 0.0
H275 H 0.34781 0.38855 0.71735 0.0
H276 H 0.38739 0.10457 0.74408 0.0
H277 H 0.38662 0.18271 0.7597 0.0
H278 H 0.40991 0.16124 0.77405 0.0
H279 H 0.41041 0.08289 0.75838 0.0
Gd280 Gd 0.09309 0.08424 0.98894 0.0
Gd281 Gd 0.1362 0.10285 0.9957 0.0
C282 C 0.12331 0.12114 0.97375 0.0
C283 C 1.04565 0.06525 0.9832 0.0
C284 C 1.0359 0.05748 0.97316 0.0
C285 C 0.05429 1.04596 0.96614 0.0
C286 C 1.01041 0.06765 0.96988 0.0
C287 C 1.02495 0.06156 0.95258 0.0
C288 C 1.00486 0.06952 0.95964 0.0
C289 C 0.04901 0.04832 0.95589 0.0
C290 C 0.13501 0.0556 0.97827 0.0
C291 C 0.09644 0.07762 1.01314 0.0
C292 C 0.18467 0.11063 1.00349 0.0
C293 C 0.19785 0.13251 1.00946 0.0
C294 C 0.19421 0.1607 1.00715 0.0
C295 C 0.21444 0.12501 1.01759 0.0
C296 C 0.22395 0.17352 1.02105 0.0
C297 C 0.22734 0.14532 1.02335 0.0
C298 C 0.20735 0.18108 1.01288 0.0
C299 C 0.10387 0.15025 0.99481 0.0
O300 O 0.09817 0.11648 0.97698 0.0
O301 O 0.14381 0.11297 0.97944 0.0
O302 O 0.06467 0.04967 0.98721 0.0
O303 O 0.05104 0.0916 0.98418 0.0
O304 O 0.11291 0.06671 0.97476 0.0
O305 O 0.13477 0.06057 0.98787 0.0
O306 O 0.1185 0.09309 1.01153 0.0
O307 O 0.08364 0.06892 1.00502 0.0
O308 O 0.17851 0.11684 0.99428 0.0
O309 O 0.16524 0.09645 1.00792 0.0
O310 O 0.12996 0.1483 0.99299 0.0
O311 O 0.09485 0.12592 0.99734 0.0
H312 H 0.07378 1.03724 0.9685 0.0
H313 H 0.99597 0.07662 0.97517 0.0
H314 H 0.98617 0.07997 0.9573 0.0
H315 H 0.06465 1.04181 0.95057 0.0
H316 H 0.18132 0.16699 1.00093 0.0
H317 H 0.21752 0.10341 1.01946 0.0
H318 H 0.24043 0.1389 1.02951 0.0
H319 H 0.2044 0.20267 1.01098 0.0
Gd320 Gd 0.8531 0.88631 0.7434 0.0
Gd321 Gd 0.82914 0.8448 0.73782 0.0
C322 C 0.82532 0.8489 0.7617 0.0
C323 C 0.86181 0.93523 0.75051 0.0
C324 C 0.87466 0.94513 0.75977 0.0
C325 C 0.89094 0.92716 0.76554 0.0
C326 C 0.87205 0.97288 0.76258 0.0
C327 C 0.90268 0.96493 0.77675 0.0
C328 C 0.8859 0.98273 0.77105 0.0
C329 C 0.90498 0.93703 0.77394 0.0
C330 C 0.89716 0.85082 0.74368 0.0
C331 C 0.86774 0.86675 0.72183 0.0
C332 C 0.81421 0.79672 0.73121 0.0
C333 C 0.82921 0.77052 0.73187 0.0
C334 C 0.82636 0.75087 0.72425 0.0
C335 C 0.8499 0.76723 0.73915 0.0
C336 C 0.86747 0.72713 0.73027 0.0
C337 C 0.86881 0.74559 0.73839 0.0
C338 C 0.84532 0.72927 0.72346 0.0
C339 C 0.79628 0.88968 0.73019 0.0
O340 O 0.8388 0.87198 0.75946 0.0
O341 O 0.81822 0.83369 0.75401 0.0
O342 O 0.87873 0.9227 0.74441 0.0
O343 O 0.8381 0.92234 0.75148 0.0
O344 O 0.89761 0.87682 0.74147 0.0
O345 O 0.8719 0.84351 0.74605 0.0
O346 O 0.86205 0.8433 0.72619 0.0
O347 O 0.86095 0.88942 0.72669 0.0
O348 O 0.82619 0.8153 0.72562 0.0
O349 O 0.80551 0.8069 0.73969 0.0
O350 O 0.7874 0.86799 0.73495 0.0
O351 O 0.82239 0.88773 0.73067 0.0
H352 H 0.89311 0.9056 0.76344 0.0
H353 H 0.85967 0.98699 0.75816 0.0
H354 H 0.88393 1.00437 0.77303 0.0
H355 H 0.91748 0.92285 0.77828 0.0
H356 H 0.81071 0.75333 0.71851 0.0
H357 H 0.85258 0.78242 0.74505 0.0
H358 H 0.88548 0.74435 0.74378 0.0
H359 H 0.84389 0.7157 0.71702 0.0
Gd360 Gd 0.96246 0.10505 0.48627 0.0
Gd361 Gd 1.00456 0.08134 0.48076 0.0
C362 C 0.99966 0.07864 0.50471 0.0
C363 C 0.91354 0.11413 0.49327 0.0
C364 C 0.90335 0.12628 0.50262 0.0
C365 C 0.92071 0.14313 0.50844 0.0
C366 C 0.87597 0.12191 0.5056 0.0
C367 C 0.88304 0.1518 0.52009 0.0
C368 C 0.86589 0.13449 0.51429 0.0
C369 C 0.91061 0.1559 0.51708 0.0
C370 C 0.99859 0.14893 0.48648 0.0
C371 C 0.98153 0.11893 0.46446 0.0
C372 C 0.05299 0.0657 0.4749 0.0
C373 C 0.07999 0.07685 0.47782 0.0
C374 C 0.10158 0.07737 0.47085 0.0
C375 C 0.08287 0.09108 0.48696 0.0
C376 C 0.1269 0.10981 0.48144 0.0
C377 C 0.10622 0.10729 0.48878 0.0
C378 C 0.12489 0.09368 0.47264 0.0
C379 C 0.95986 0.04799 0.47313 0.0
O380 O 0.97575 0.09011 0.50233 0.0
O381 O 1.01591 0.07314 0.49713 0.0
O382 O 0.92673 0.13134 0.48743 0.0
O383 O 0.92581 0.0901 0.49403 0.0
O384 O 0.97279 0.14941 0.48405 0.0
O385 O 1.00528 0.12377 0.48911 0.0
O386 O 1.0052 0.11283 0.46853 0.0
O387 O 0.95908 0.11248 0.46955 0.0
O388 O 1.03769 0.0828 0.46979 0.0
O389 O 1.03916 0.05311 0.48196 0.0
O390 O 0.98152 1.03938 0.47788 0.0
O391 O 0.96175 0.07416 0.47357 0.0
H392 H 0.94199 0.14671 0.50622 0.0
H393 H 0.86238 0.10888 0.50119 0.0
H394 H 0.84474 0.13038 0.51652 0.0
H395 H 0.9243 0.16925 0.52131 0.0
H396 H 0.09956 0.06675 0.46373 0.0
H397 H 0.06631 0.09113 0.49243 0.0
H398 H 0.10724 0.11923 0.49565 0.0
H399 H 0.14014 0.09542 0.46672 0.0
Gd400 Gd 0.73388 0.20696 0.24531 0.0
Gd401 Gd 0.75706 0.24864 0.23891 0.0
C402 C 0.76144 0.24616 0.26289 0.0
C403 C 0.72243 0.1598 0.25346 0.0
C404 C 0.70769 0.15296 0.26274 0.0
C405 C 0.69128 0.17304 0.26746 0.0
C406 C 0.70883 0.12617 0.26667 0.0
C407 C 0.67645 0.13926 0.27987 0.0
C408 C 0.69343 0.11938 0.2752 0.0
C409 C 0.6757 0.16623 0.27592 0.0
C410 C 0.68994 0.24313 0.2448 0.0
C411 C 0.72111 0.22084 0.22307 0.0
C412 C 0.77188 0.29583 0.23139 0.0
C413 C 0.75929 0.3232 0.2322 0.0
C414 C 0.76478 0.3431 0.22486 0.0
C415 C 0.73871 0.32808 0.23942 0.0
C416 C 0.72651 0.371 0.23104 0.0
C417 C 0.72252 0.35191 0.23888 0.0
C418 C 0.74856 0.36685 0.22428 0.0
C419 C 0.79141 0.2037 0.23233 0.0
O420 O 0.75165 0.22126 0.2608 0.0
O421 O 0.7646 0.26258 0.25515 0.0
O422 O 0.70712 0.17141 0.24663 0.0
O423 O 0.74645 0.17196 0.25449 0.0
O424 O 0.68957 0.21706 0.2428 0.0
O425 O 0.71499 0.25014 0.24735 0.0
O426 O 0.72547 0.24554 0.22669 0.0
O427 O 0.72855 0.19983 0.22871 0.0
O428 O 0.75695 0.27778 0.22657 0.0
O429 O 0.78237 0.28575 0.2396 0.0
O430 O 0.79951 0.22615 0.23679 0.0
O431 O 0.76526 0.20483 0.23276 0.0
H432 H 0.69017 0.1939 0.26449 0.0
H433 H 0.72146 0.11049 0.26311 0.0
H434 H 0.69502 0.09859 0.27818 0.0
H435 H 0.66275 0.18197 0.27928 0.0
H436 H 0.78042 0.33946 0.21919 0.0
H437 H 0.73411 0.31272 0.24511 0.0
H438 H 0.70591 0.35459 0.24425 0.0
H439 H 0.75199 0.38077 0.21804 0.0
Gd440 Gd 0.63705 0.99313 0.98631 0.0
Gd441 Gd 0.5941 1.01261 0.98045 0.0
C442 C 0.59953 1.01791 1.00447 0.0
C443 C 0.6863 0.98552 0.99344 0.0
C444 C 0.69866 0.96844 1.00129 0.0
C445 C 0.72735 0.96502 1.0015 0.0
C446 C 0.68208 0.95531 1.00851 0.0
C447 C 0.72316 0.93671 1.0165 0.0
C448 C 0.69427 0.93961 1.0161 0.0
C449 C 0.73954 0.94924 1.00905 0.0
C450 C 0.60406 0.94602 0.9857 0.0
C451 C 0.62162 0.97813 0.96447 0.0
C452 C 0.54345 1.02796 0.97781 0.0
C453 C 0.51777 1.01743 0.98222 0.0
C454 C 0.4933 1.01975 0.97676 0.0
C455 C 0.51872 0.99985 0.99061 0.0
C456 C 0.47296 0.98225 0.98656 0.0
C457 C 0.49633 0.98255 0.99283 0.0
C458 C 0.47103 1.00237 0.97891 0.0
C459 C 0.63417 1.04356 0.96955 0.0
O460 O 0.62015 1.0009 1.00249 0.0
O461 O 0.58738 1.02846 0.99655 0.0
O462 O 0.67645 0.97204 0.9858 0.0
O463 O 0.66991 1.00524 0.99645 0.0
O464 O 0.62977 0.94797 0.98321 0.0
O465 O 0.59564 0.97031 0.98851 0.0
O466 O 0.59724 0.98014 0.9686 0.0
O467 O 0.64272 0.98733 0.96966 0.0
O468 O 0.55598 1.0101 0.97209 0.0
O469 O 0.5604 1.04081 0.98382 0.0
O470 O 0.61019 1.0354 0.96658 0.0
O471 O 0.63603 1.03599 0.97888 0.0
H472 H 0.74035 0.97492 0.99592 0.0
H473 H 0.65981 0.95749 1.00834 0.0
H474 H 0.68117 0.93003 1.02171 0.0
H475 H 0.76187 0.94771 1.00926 0.0
H476 H 0.49233 1.03308 0.97023 0.0
H477 H 0.53759 0.99772 0.9949 0.0
H478 H 0.49835 0.96779 0.9989 0.0
H479 H 0.45363 1.00284 0.97382 0.0
Gd480 Gd 0.85459 0.21191 0.87665 0.0
Gd481 Gd 0.83745 0.25488 0.88337 0.0
C482 C 0.82868 0.25045 0.85928 0.0
C483 C 0.86135 0.16207 0.86992 0.0
C484 C 0.88375 0.14799 0.86461 0.0
C485 C 0.88645 0.1193 0.86554 0.0
C486 C 0.90299 0.16301 0.85888 0.0
C487 C 0.92632 0.12025 0.85442 0.0
C488 C 0.92407 0.1492 0.85377 0.0
C489 C 0.9076 0.1055 0.8605 0.0
C490 C 0.90311 0.24301 0.87624 0.0
C491 C 0.87775 0.22754 0.8973 0.0
C492 C 0.82264 0.30517 0.88754 0.0
C493 C 0.83632 0.33196 0.88607 0.0
C494 C 0.82162 0.35658 0.8874 0.0
C495 C 0.86495 0.33296 0.88448 0.0
C496 C 0.8649 0.38251 0.88767 0.0
C497 C 0.87916 0.35798 0.88532 0.0
C498 C 0.83579 0.38177 0.88809 0.0
C499 C 0.80664 0.21381 0.8939 0.0
O500 O 0.84408 0.22847 0.86084 0.0
O501 O 0.82046 0.2635 0.86743 0.0
O502 O 0.86707 0.16942 0.87906 0.0
O503 O 0.84825 0.18128 0.86498 0.0
O504 O 0.90078 0.21681 0.87789 0.0
O505 O 0.87867 0.25308 0.87468 0.0
O506 O 0.87465 0.25196 0.89329 0.0
O507 O 0.86481 0.20699 0.89297 0.0
O508 O 0.83499 0.28883 0.89386 0.0
O509 O 0.81465 0.29221 0.8795 0.0
O510 O 0.81728 0.23627 0.89736 0.0
O511 O 0.81231 0.21383 0.88437 0.0
H512 H 0.87194 0.1075 0.87005 0.0
H513 H 0.90147 0.18531 0.85824 0.0
H514 H 0.93826 0.16104 0.84915 0.0
H515 H 0.90851 0.08315 0.86101 0.0
H516 H 0.79943 0.35615 0.8885 0.0
H517 H 0.87657 0.31407 0.88336 0.0
H518 H 0.90152 0.35749 0.885 0.0
H519 H 0.82409 0.40036 0.88964 0.0
Gd520 Gd 0.63314 0.1033 0.63402 0.0
Gd521 Gd 0.59007 0.08524 0.64036 0.0
C522 C 0.59402 0.07974 0.61613 0.0
C523 C 0.68242 0.10965 0.62666 0.0
C524 C 0.69644 0.12724 0.61915 0.0
C525 C 0.71216 0.15018 0.62227 0.0
C526 C 0.69554 0.12058 0.6089 0.0
C527 C 0.72677 0.15876 0.6051 0.0
C528 C 0.71053 0.13618 0.60196 0.0
C529 C 0.72708 0.16585 0.61532 0.0
C530 C 0.60164 0.15133 0.63443 0.0
C531 C 0.61841 0.12126 0.65569 0.0
C532 C 0.53971 0.06939 0.64363 0.0
C533 C 0.51337 0.07906 0.6395 0.0
C534 C 0.48943 0.06298 0.64044 0.0
C535 C 0.51154 0.10593 0.63559 0.0
C536 C 0.46134 0.10292 0.6359 0.0
C537 C 0.4858 0.11785 0.63388 0.0
C538 C 0.46357 0.07469 0.6385 0.0
C539 C 0.63036 0.05452 0.65119 0.0
O540 O 0.61607 0.09509 0.61794 0.0
O541 O 0.58103 0.07071 0.62417 0.0
O542 O 0.67379 0.12196 0.63475 0.0
O543 O 0.66493 0.0911 0.62342 0.0
O544 O 0.62754 0.14896 0.63653 0.0
O545 O 0.59221 0.12706 0.63201 0.0
O546 O 0.59382 0.11888 0.65175 0.0
O547 O 0.63919 0.11119 0.65054 0.0
O548 O 0.55265 0.08755 0.64913 0.0
O549 O 0.55619 0.05656 0.63746 0.0
O550 O 0.60739 0.06446 0.65443 0.0
O551 O 0.63121 0.0607 0.6417 0.0
H552 H 0.71336 0.15572 0.63014 0.0
H553 H 0.68382 0.10291 0.60626 0.0
H554 H 0.71027 0.12979 0.59417 0.0
H555 H 0.73925 0.18322 0.61796 0.0
H556 H 0.49057 1.04196 0.64325 0.0
H557 H 0.52995 0.11848 0.63464 0.0
H558 H 0.48534 0.13956 0.6319 0.0
H559 H 0.44529 0.0622 0.63976 0.0
Gd560 Gd 0.74829 0.88405 0.37697 0.0
Gd561 Gd 0.76561 0.84054 0.38327 0.0
C562 C 0.77347 0.84534 0.35919 0.0
C563 C 0.74155 0.93388 0.37015 0.0
C564 C 0.71912 0.94972 0.36538 0.0
C565 C 0.69541 0.95778 0.37077 0.0
C566 C 0.72187 0.95769 0.35532 0.0
C567 C 0.67804 0.98209 0.35613 0.0
C568 C 0.70153 0.9736 0.35073 0.0
C569 C 0.67509 0.97394 0.36618 0.0
C570 C 0.69957 0.85337 0.37737 0.0
C571 C 0.72845 0.86763 0.39836 0.0
C572 C 0.77941 0.78967 0.38689 0.0
C573 C 0.76435 0.76408 0.38467 0.0
C574 C 0.77157 0.73949 0.38955 0.0
C575 C 0.73928 0.7656 0.37941 0.0
C576 C 0.72629 0.72031 0.38571 0.0
C577 C 0.72029 0.74388 0.37997 0.0
C578 C 0.75269 0.71757 0.39 0.0
C579 C 0.79691 0.8811 0.39384 0.0
O580 O 0.75871 0.86773 0.36098 0.0
O581 O 0.78142 0.83171 0.36722 0.0
O582 O 0.7383 0.92712 0.37953 0.0
O583 O 0.75244 0.91397 0.36489 0.0
O584 O 0.70238 0.87943 0.37921 0.0
O585 O 0.72363 0.84334 0.37515 0.0
O586 O 0.73093 0.8433 0.39422 0.0
O587 O 0.73893 0.88878 0.39347 0.0
O588 O 0.76687 0.80547 0.39333 0.0
O589 O 0.78879 0.80358 0.37923 0.0
O590 O 0.78651 0.85843 0.39722 0.0
O591 O 0.79099 0.88143 0.38433 0.0
H592 H 0.69269 0.95197 0.37855 0.0
H593 H 0.74003 0.95198 0.35103 0.0
H594 H 0.7047 0.98009 0.34303 0.0
H595 H 0.65722 0.98025 0.37051 0.0
H596 H 0.79072 0.73811 0.39372 0.0
H597 H 0.73338 0.78456 0.37565 0.0
H598 H 0.70003 0.74645 0.37664 0.0
H599 H 0.75765 0.69972 0.39457 0.0
Gd600 Gd 0.95327 0.9896 0.13652 0.0
Gd601 Gd 0.99549 1.01377 0.14179 0.0
C602 C 0.99016 1.01629 0.11791 0.0
C603 C 0.90333 0.98075 0.1304 0.0
C604 C 0.88996 0.9699 0.12139 0.0
C605 C 0.90441 0.96795 0.1123 0.0
C606 C 0.8631 0.95927 0.12212 0.0
C607 C 0.86504 0.94468 0.10467 0.0
C608 C 0.85072 0.94673 0.11383 0.0
C609 C 0.89199 0.95554 0.10398 0.0
C610 C 0.98937 0.94602 0.13605 0.0
C611 C 0.9739 0.97567 0.15818 0.0
C612 C 1.04368 1.03067 0.1475 0.0
C613 C 0.07086 1.02002 0.1446 0.0
C614 C 0.09255 1.02054 0.1515 0.0
C615 C 0.07389 1.0053 0.13557 0.0
C616 C 0.11846 0.98824 0.14108 0.0
C617 C 0.09758 0.98967 0.1338 0.0
C618 C 0.11621 1.00481 0.14976 0.0
C619 C 0.95036 1.04599 0.14965 0.0
O620 O 0.96613 1.00499 0.1204 0.0
O621 O 1.0067 1.02157 0.12541 0.0
O622 O 0.9178 0.96266 0.13537 0.0
O623 O 0.91566 1.00484 0.12964 0.0
O624 O 0.96362 0.9453 0.13857 0.0
O625 O 0.99603 0.97126 0.13344 0.0
O626 O 0.99729 0.98203 0.15391 0.0
O627 O 0.95116 0.98193 0.15327 0.0
O628 O 1.02868 1.0134 0.1527 0.0
O629 O 1.02964 1.04269 0.14041 0.0
O630 O 0.97116 0.05519 0.14448 0.0
O631 O 0.95327 1.01997 0.14936 0.0
H632 H 0.92533 0.97574 0.11165 0.0
H633 H 0.85187 0.96024 0.12915 0.0
H634 H 0.83009 0.93825 0.11465 0.0
H635 H 0.90342 0.95465 0.097 0.0
H636 H 0.09041 1.03154 0.15854 0.0
H637 H 0.05725 1.00444 0.13017 0.0
H638 H 0.09878 0.97735 0.12703 0.0
H639 H 0.13163 1.00389 0.15563 0.0
Gd640 Gd 0.75746 0.74531 0.8902 0.0
Gd641 Gd 0.73724 0.70281 0.88424 0.0
C642 C 0.72377 0.71717 0.90631 0.0
C643 C 0.77389 0.79565 0.89326 0.0
C644 C 0.76512 0.82236 0.88923 0.0
C645 C 0.77029 0.84617 0.89484 0.0
C646 C 0.74697 0.82355 0.88104 0.0
C647 C 0.73472 0.87079 0.88551 0.0
C648 C 0.73206 0.84774 0.87912 0.0
C649 C 0.75528 0.8702 0.89301 0.0
C650 C 0.78813 0.70498 0.90095 0.0
C651 C 0.76184 0.741 0.86618 0.0
C652 C 0.72883 0.65459 0.87628 0.0
C653 C 0.71256 0.64363 0.86786 0.0
C654 C 0.68448 0.65033 0.86662 0.0
C655 C 0.72553 0.62646 0.86084 0.0
C656 C 0.68278 0.62291 0.85136 0.0
C657 C 0.71082 0.61626 0.85264 0.0
C658 C 0.66965 0.63984 0.85846 0.0
C659 C 0.6907 0.73603 0.88539 0.0
O660 O 0.72582 0.74173 0.90229 0.0
O661 O 0.73198 0.69613 0.90087 0.0
O662 O 0.7551 0.78328 0.89866 0.0
O663 O 0.78634 0.77882 0.8871 0.0
O664 O 0.78055 0.72913 0.90392 0.0
O665 O 0.78013 0.70296 0.89166 0.0
O666 O 0.74436 0.72069 0.86817 0.0
O667 O 0.77309 0.75257 0.87409 0.0
O668 O 0.7151 0.66385 0.88398 0.0
O669 O 0.74974 0.6704 0.87391 0.0
O670 O 0.69255 0.71028 0.8879 0.0
O671 O 0.71487 0.74433 0.88235 0.0
H672 H 0.78412 0.84549 0.90123 0.0
H673 H 0.74271 0.8052 0.87662 0.0
H674 H 0.71694 0.84757 0.87314 0.0
H675 H 0.75797 0.88719 0.89821 0.0
H676 H 0.67403 0.66373 0.8719 0.0
H677 H 0.74712 0.62103 0.86167 0.0
H678 H 0.72133 0.60291 0.84735 0.0
H679 H 0.64809 0.64533 0.8576 0.0
Gd680 Gd 0.60088 0.51325 0.1324 0.0
Gd681 Gd 0.64309 0.49043 0.12648 0.0
C682 C 0.62496 0.47584 0.14824 0.0
C683 C 0.5534 0.52842 0.13948 0.0
C684 C 0.52633 0.5148 0.13933 0.0
C685 C 0.50219 0.53018 0.14076 0.0
C686 C 0.52463 0.48605 0.13804 0.0
C687 C 0.47512 0.48758 0.1411 0.0
C688 C 0.49929 0.47253 0.13897 0.0
C689 C 0.4767 0.51668 0.14157 0.0
C690 C 0.64569 0.54731 0.13949 0.0
C691 C 0.60471 0.51762 0.10848 0.0
C692 C 0.69234 0.4806 0.11982 0.0
C693 C 0.70413 0.46572 0.11127 0.0
C694 C 0.68951 0.46296 0.10225 0.0
C695 C 0.72865 0.45094 0.11267 0.0
C696 C 0.72368 0.43003 0.09618 0.0
C697 C 0.73832 0.43319 0.10522 0.0
C698 C 0.69932 0.44538 0.09473 0.0
C699 C 0.60777 0.44579 0.12649 0.0
O700 O 0.60105 0.48014 0.14406 0.0
O701 O 0.64687 0.48432 0.14326 0.0
O702 O 0.57219 0.51604 0.14482 0.0
O703 O 0.56277 0.5365 0.1308 0.0
O704 O 0.62399 0.55564 0.13467 0.0
O705 O 0.64391 0.52119 0.13918 0.0
O706 O 0.62915 0.5069 0.11067 0.0
O707 O 0.58842 0.52189 0.11617 0.0
O708 O 0.67932 0.4647 0.12614 0.0
O709 O 0.67928 0.5038 0.11804 0.0
O710 O 0.63373 0.44583 0.1286 0.0
O711 O 0.60043 0.47084 0.12401 0.0
H712 H 0.50317 0.55247 0.14157 0.0
H713 H 0.5431 0.47391 0.13676 0.0
H714 H 0.49909 0.45014 0.13867 0.0
H715 H 0.45841 0.52893 0.14301 0.0
H716 H 0.67024 0.47387 0.1011 0.0
H717 H 0.73985 0.45241 0.11969 0.0
H718 H 0.75691 0.42142 0.10665 0.0
H719 H 0.68779 0.44381 0.08779 0.0
Gd720 Gd 0.83156 0.34626 0.39191 0.0
Gd721 Gd 0.85246 0.38919 0.38533 0.0
C722 C 0.8683 0.37707 0.40755 0.0
C723 C 0.82003 0.29757 0.39881 0.0
C724 C 0.83152 0.2709 0.39573 0.0
C725 C 0.83181 0.24879 0.40248 0.0
C726 C 0.84608 0.26884 0.38663 0.0
C727 C 0.86437 0.22431 0.39172 0.0
C728 C 0.86226 0.24565 0.38461 0.0
C729 C 0.84807 0.22562 0.40049 0.0
C730 C 0.79633 0.38983 0.39896 0.0
C731 C 0.82591 0.34906 0.36787 0.0
C732 C 0.85587 0.43579 0.37618 0.0
C733 C 0.85697 0.44018 0.36528 0.0
C734 C 0.87484 0.42425 0.35927 0.0
C735 C 0.83648 0.45622 0.36069 0.0
C736 C 0.85015 0.43859 0.34436 0.0
C737 C 0.83301 0.45535 0.35031 0.0
C738 C 0.87156 0.42364 0.34889 0.0
C739 C 0.89759 0.35474 0.38564 0.0
O740 O 0.86176 0.35207 0.40457 0.0
O741 O 0.86259 0.39781 0.4015 0.0
O742 O 0.83783 0.31414 0.40302 0.0
O743 O 0.80484 0.31012 0.39216 0.0
O744 O 0.78853 0.3672 0.39454 0.0
O745 O 0.82246 0.38938 0.39836 0.0
O746 O 0.83541 0.37401 0.36991 0.0
O747 O 0.82318 0.33264 0.37564 0.0
O748 O 0.87734 0.42387 0.38025 0.0
O749 O 0.83238 0.42552 0.37935 0.0
O750 O 0.89719 0.38085 0.38779 0.0
O751 O 0.87275 0.34699 0.38304 0.0
H752 H 0.82094 0.25021 0.40957 0.0
H753 H 0.84634 0.28588 0.38136 0.0
H754 H 0.87438 0.2452 0.37778 0.0
H755 H 0.84953 0.20984 0.40623 0.0
H756 H 0.89049 0.41119 0.36262 0.0
H757 H 0.82228 0.46833 0.36518 0.0
H758 H 0.8167 0.4675 0.34694 0.0
H759 H 0.88504 0.41063 0.34444 0.0
Gd760 Gd 1.00739 0.58561 0.63336 0.0
Gd761 Gd 0.96572 0.60805 0.62715 0.0
C762 C 0.9828 0.62545 0.64867 0.0
C763 C 0.05504 0.57159 0.64052 0.0
C764 C 0.08189 0.58547 0.63984 0.0
C765 C 0.10099 0.5822 0.64758 0.0
C766 C 0.08687 0.60506 0.63225 0.0
C767 C 0.12819 0.62063 0.64094 0.0
C768 C 0.10998 0.62239 0.63276 0.0
C769 C 0.12395 0.59961 0.64814 0.0
C770 C 0.96271 0.55209 0.64082 0.0
C771 C 1.0044 0.58025 0.60939 0.0
C772 C 0.91723 0.61471 0.61959 0.0
C773 C 0.90724 0.62739 0.61032 0.0
C774 C 0.92215 0.64912 0.60582 0.0
C775 C 0.88184 0.61915 0.6063 0.0
C776 C 0.88516 0.65579 0.59387 0.0
C777 C 0.87091 0.63318 0.59807 0.0
C778 C 0.91103 0.66342 0.5977 0.0
C779 C 1.00056 0.65287 0.62685 0.0
O780 O 1.00681 0.61907 0.64489 0.0
O781 O 0.96077 0.61799 0.64359 0.0
O782 O 1.03656 0.585 0.64568 0.0
O783 O 1.04517 0.56178 0.63216 0.0
O784 O 0.98484 0.54344 0.63633 0.0
O785 O 0.96418 0.57822 0.64015 0.0
O786 O 0.98081 0.59289 0.61137 0.0
O787 O 1.01965 0.57457 0.61723 0.0
O788 O 0.92853 0.63199 0.62588 0.0
O789 O 0.93101 0.59156 0.61867 0.0
O790 O 0.97436 0.65295 0.62866 0.0
O791 O 1.00835 0.62766 0.62472 0.0
H792 H 0.09725 0.56738 0.65353 0.0
H793 H 0.07211 0.608 0.62624 0.0
H794 H 0.11273 0.63809 0.62705 0.0
H795 H 0.1371 0.59787 0.65467 0.0
H796 H 0.94199 0.65558 0.60879 0.0
H797 H 0.87015 0.60242 0.60969 0.0
H798 H 0.85082 0.62708 0.59524 0.0
H799 H 0.92241 0.68064 0.5945 0.0
Gd800 Gd 0.76254 0.351 0.73071 0.0
Gd801 Gd 0.74378 0.39442 0.73673 0.0
C802 C 0.72818 0.37966 0.71491 0.0
C803 C 0.77767 0.30035 0.72759 0.0
C804 C 0.7677 0.27395 0.73159 0.0
C805 C 0.77224 0.2499 0.72604 0.0
C806 C 0.74881 0.27353 0.73959 0.0
C807 C 0.73469 0.2269 0.73497 0.0
C808 C 0.73257 0.25004 0.74134 0.0
C809 C 0.75593 0.22652 0.72771 0.0
C810 C 0.79379 0.39088 0.7199 0.0
C811 C 0.76718 0.35619 0.75478 0.0
C812 C 0.73702 0.44311 0.74448 0.0
C813 C 0.7203 0.4545 0.75269 0.0
C814 C 0.69323 0.44507 0.75451 0.0
C815 C 0.73189 0.4746 0.75897 0.0
C816 C 0.68972 0.47563 0.76891 0.0
C817 C 0.71676 0.48504 0.76703 0.0
C818 C 0.67796 0.45574 0.76252 0.0
C819 C 0.69644 0.36189 0.73605 0.0
O820 O 0.73005 0.35512 0.71896 0.0
O821 O 0.73748 0.40066 0.72015 0.0
O822 O 0.75953 0.31326 0.72213 0.0
O823 O 0.79044 0.31681 0.7338 0.0
O824 O 0.78453 0.36747 0.71677 0.0
O825 O 0.78672 0.3925 0.72929 0.0
O826 O 0.75052 0.37701 0.75279 0.0
O827 O 0.77779 0.34385 0.74689 0.0
O828 O 0.7236 0.43431 0.73664 0.0
O829 O 0.75691 0.42648 0.74712 0.0
O830 O 0.69857 0.3877 0.73366 0.0
O831 O 0.72058 0.35321 0.73885 0.0
H832 H 0.78661 0.24999 0.71979 0.0
H833 H 0.74499 0.29208 0.74395 0.0
H834 H 0.71683 0.25089 0.74712 0.0
H835 H 0.75819 0.20935 0.72256 0.0
H836 H 0.68397 0.42932 0.7498 0.0
H837 H 0.75273 0.48207 0.75769 0.0
H838 H 0.72618 0.50061 0.77179 0.0
H839 H 0.65723 0.44805 0.76386 0.0
Gd840 Gd 0.99883 0.50787 0.98864 0.0
Gd841 Gd 0.9557 0.488 0.99501 0.0
C842 C 0.9714 0.47085 0.97308 0.0
C843 C 1.0458 0.52867 0.98321 0.0
C844 C 0.05517 0.53811 0.97329 0.0
C845 C 1.03654 0.55083 0.96664 0.0
C846 C 0.08056 0.52858 0.96964 0.0
C847 C 0.06559 0.53794 0.95259 0.0
C848 C 0.08584 0.52867 0.95936 0.0
C849 C 1.04153 0.55036 0.95633 0.0
C850 C 0.95678 0.53604 0.97782 0.0
C851 C 0.99406 0.51431 1.01277 0.0
C852 C 0.90661 0.47797 1.00201 0.0
C853 C 0.89372 0.45427 1.00704 0.0
C854 C 0.86517 0.45024 1.00621 0.0
C855 C 0.90969 0.43537 1.01252 0.0
C856 C 0.8681 0.41002 1.01711 0.0
C857 C 0.89693 0.41347 1.01758 0.0
C858 C 0.85243 0.42824 1.0112 0.0
C859 C 0.98906 0.44135 0.99431 0.0
O860 O 0.99605 0.47566 0.97667 0.0
O861 O 0.9502 0.47848 0.97857 0.0
O862 O 1.02653 0.54323 0.98757 0.0
O863 O 1.04104 0.5021 0.98373 0.0
O864 O 0.9796 0.52603 0.97446 0.0
O865 O 0.95641 0.53041 0.98738 0.0
O866 O 0.97167 0.49941 1.01098 0.0
O867 O 1.00788 0.52231 1.00479 0.0
O868 O 0.91362 0.47386 0.99273 0.0
O869 O 0.92556 0.49124 1.00702 0.0
O870 O 0.96311 0.44281 0.99228 0.0
O871 O 0.99744 0.46585 0.99693 0.0
H872 H 1.01714 0.55911 0.9693 0.0
H873 H 0.09518 0.5187 0.97464 0.0
H874 H 0.10452 0.51881 0.95667 0.0
H875 H 1.02575 0.55785 0.95125 0.0
H876 H 0.85265 0.46449 1.0019 0.0
H877 H 0.93189 0.43791 1.01306 0.0
H878 H 0.90945 0.39967 1.02208 0.0
H879 H 0.83014 0.42634 1.01083 0.0
Gd880 Gd 0.83978 0.74811 0.22992 0.0
Gd881 Gd 0.86082 0.70355 0.2357 0.0
C882 C 0.87755 0.72214 0.21374 0.0
C883 C 0.82594 0.79735 0.22423 0.0
C884 C 0.8355 0.82449 0.22769 0.0
C885 C 0.83419 0.84716 0.22121 0.0
C886 C 0.84948 0.82698 0.23687 0.0
C887 C 0.86433 0.87341 0.23236 0.0
C888 C 0.86363 0.85134 0.23923 0.0
C889 C 0.84845 0.87144 0.22352 0.0
C890 C 0.80571 0.70451 0.22199 0.0
C891 C 0.83509 0.74171 0.25394 0.0
C892 C 0.86385 0.65203 0.24072 0.0
C893 C 0.86194 0.63092 0.2486 0.0
C894 C 0.88177 0.60984 0.24878 0.0
C895 C 0.83866 0.62907 0.25487 0.0
C896 C 0.85385 0.58397 0.26068 0.0
C897 C 0.83462 0.6057 0.26084 0.0
C898 C 0.87783 0.58657 0.25481 0.0
C899 C 0.90614 0.73785 0.23577 0.0
O900 O 0.86994 0.74631 0.21716 0.0
O901 O 0.87255 0.70024 0.21934 0.0
O902 O 0.84473 0.78264 0.2197 0.0
O903 O 0.81164 0.7829 0.23068 0.0
O904 O 0.79723 0.72593 0.22696 0.0
O905 O 0.83177 0.70623 0.22252 0.0
O906 O 0.84389 0.71663 0.25152 0.0
O907 O 0.8327 0.7591 0.24645 0.0
O908 O 0.88548 0.66826 0.24048 0.0
O909 O 0.8409 0.66436 0.23813 0.0
O910 O 0.9055 0.71194 0.2333 0.0
O911 O 0.88139 0.74549 0.23855 0.0
H912 H 0.82367 0.84547 0.21406 0.0
H913 H 0.85084 0.80958 0.24196 0.0
H914 H 0.8754 0.85224 0.24613 0.0
H915 H 0.84882 0.88773 0.21794 0.0
H916 H 0.8997 0.61079 0.24391 0.0
H917 H 0.82305 0.6451 0.25485 0.0
H918 H 0.81623 0.60438 0.26547 0.0
H919 H 0.89295 0.57008 0.25455 0.0
Gd920 Gd 0.58995 0.58358 0.48716 0.0
Gd921 Gd 0.63202 0.60647 0.49323 0.0
C922 C 0.61621 0.62045 0.47116 0.0
C923 C 0.54204 0.56895 0.48032 0.0
C924 C 0.51534 0.58293 0.48113 0.0
C925 C 0.49064 0.56839 0.47965 0.0
C926 C 0.5146 0.6114 0.48312 0.0
C927 C 0.46491 0.61164 0.48051 0.0
C928 C 0.48968 0.62567 0.48275 0.0
C929 C 0.46552 0.58262 0.47943 0.0
C930 C 0.63464 0.54931 0.48028 0.0
C931 C 0.59338 0.57921 0.51115 0.0
C932 C 0.6808 0.61623 0.50026 0.0
C933 C 0.69177 0.6313 0.50887 0.0
C934 C 0.71778 0.64376 0.508 0.0
C935 C 0.67519 0.63679 0.51729 0.0
C936 C 0.71048 0.66781 0.52375 0.0
C937 C 0.68463 0.65478 0.52475 0.0
C938 C 0.72708 0.6619 0.51537 0.0
C939 C 0.59687 0.6511 0.49295 0.0
O940 O 0.59175 0.61497 0.4748 0.0
O941 O 0.63764 0.61339 0.47662 0.0
O942 O 0.56051 0.58195 0.47497 0.0
O943 O 0.55211 0.55961 0.48871 0.0
O944 O 0.61248 0.54102 0.48489 0.0
O945 O 0.63318 0.57543 0.48063 0.0
O946 O 0.61775 0.59024 0.50901 0.0
O947 O 0.57727 0.57479 0.50343 0.0
O948 O 0.66844 0.63203 0.49378 0.0
O949 O 0.66743 0.59311 0.502 0.0
O950 O 0.62288 0.65097 0.4909 0.0
O951 O 0.58936 0.62609 0.49549 0.0
H952 H 0.49087 0.54627 0.47833 0.0
H953 H 0.53353 0.62286 0.48445 0.0
H954 H 0.49029 0.64797 0.48352 0.0
H955 H 0.44677 0.57108 0.4779 0.0
H956 H 0.73059 0.64003 0.50146 0.0
H957 H 0.65475 0.62778 0.51796 0.0
H958 H 0.67156 0.65894 0.53117 0.0
H959 H 0.74736 0.6712 0.51454 0.0
Gd960 Gd 0.3528 0.39103 0.2447 0.0
Gd961 Gd 0.33332 0.34898 0.23858 0.0
C962 C 0.32615 0.35344 0.26237 0.0
C963 C 0.36178 0.43879 0.25293 0.0
C964 C 0.38164 0.4491 0.26036 0.0
C965 C 0.40874 0.43869 0.26077 0.0
C966 C 0.37337 0.46944 0.26719 0.0
C967 C 0.41909 0.46914 0.27476 0.0
C968 C 0.39192 0.47935 0.27434 0.0
C969 C 0.42741 0.44881 0.26788 0.0
C970 C 0.40018 0.35896 0.24341 0.0
C971 C 0.3667 0.37832 0.22267 0.0
C972 C 0.31939 0.29772 0.2355 0.0
C973 C 0.3344 0.27194 0.23728 0.0
C974 C 0.32512 0.24732 0.23289 0.0
C975 C 0.36058 0.27293 0.24178 0.0
C976 C 0.3702 0.22665 0.23568 0.0
C977 C 0.37843 0.25042 0.24096 0.0
C978 C 0.34289 0.22466 0.23216 0.0
C979 C 0.30168 0.38886 0.22808 0.0
O980 O 0.34543 0.37213 0.26057 0.0
O981 O 0.31407 0.3436 0.25431 0.0
O982 O 0.37208 0.43142 0.24432 0.0
O983 O 0.34319 0.42143 0.25622 0.0
O984 O 0.39777 0.38477 0.24112 0.0
O985 O 0.37616 0.34985 0.24624 0.0
O986 O 0.36534 0.35354 0.22657 0.0
O987 O 0.35772 0.39878 0.2282 0.0
O988 O 0.33062 0.31354 0.22873 0.0
O989 O 0.31187 0.31159 0.24341 0.0
O990 O 0.30937 0.3648 0.22507 0.0
O991 O 0.30975 0.39087 0.23737 0.0
H992 H 0.41549 0.42277 0.25562 0.0
H993 H 0.35257 0.47766 0.26698 0.0
H994 H 0.3851 0.4953 0.27949 0.0
H995 H 0.44817 0.44051 0.26809 0.0
H996 H 0.30501 0.24634 0.22934 0.0
H997 H 0.368 0.29189 0.24518 0.0
H998 H 0.39939 0.25242 0.24373 0.0
H999 H 0.33616 0.20669 0.22795 0.0
Gd1000 Gd 0.456 0.60771 0.98699 0.0
Gd1001 Gd 0.4985 0.58745 0.98006 0.0
C1002 C 0.49722 0.5813 1.0041 0.0
C1003 C 0.40864 0.60729 0.99581 0.0
C1004 C 0.40135 0.60374 1.0065 0.0
C1005 C 0.40714 0.62447 1.0136 0.0
C1006 C 0.39123 0.57802 1.00981 0.0
C1007 C 0.39469 0.59305 1.02712 0.0
C1008 C 0.38818 0.57264 1.02002 0.0
C1009 C 0.40366 0.61919 1.02384 0.0
C1010 C 0.48944 0.6536 0.9869 0.0
C1011 C 0.46921 0.62647 0.96501 0.0
C1012 C 0.54625 0.57386 0.97282 0.0
C1013 C 0.57441 0.58131 0.97581 0.0
C1014 C 0.59591 0.57897 0.96887 0.0
C1015 C 0.57947 0.59326 0.98523 0.0
C1016 C 0.62671 0.60366 0.98026 0.0
C1017 C 0.60549 0.60418 0.98747 0.0
C1018 C 0.62185 0.59004 0.97106 0.0
C1019 C 0.45429 0.55333 0.9726 0.0
O1020 O 0.47215 0.59069 1.00231 0.0
O1021 O 0.51305 0.57877 0.99618 0.0
O1022 O 0.42124 0.63024 0.99324 0.0
O1023 O 0.41951 0.58538 0.99161 0.0
O1024 O 0.46307 0.65292 0.98519 0.0
O1025 O 0.49809 0.62864 0.98905 0.0
O1026 O 0.49394 0.61908 0.96789 0.0
O1027 O 0.44826 0.62056 0.97097 0.0
O1028 O 0.53151 0.59419 0.9693 0.0
O1029 O 0.53257 0.55858 0.97918 0.0
O1030 O 0.47662 0.54492 0.97699 0.0
O1031 O 0.45537 0.57946 0.97347 0.0
H1032 H 0.41504 0.64449 1.01131 0.0
H1033 H 0.38649 0.56171 1.0045 0.0
H1034 H 0.38069 0.55251 1.02239 0.0
H1035 H 0.40862 0.63529 1.0292 0.0
H1036 H 0.59227 0.56991 0.96156 0.0
H1037 H 0.56301 0.59532 0.99068 0.0
H1038 H 0.60855 0.61429 0.99464 0.0
H1039 H 0.63738 0.58968 0.96521 0.0
Gd1040 Gd 0.23677 0.70671 0.74483 0.0
Gd1041 Gd 0.25694 0.74803 0.73941 0.0
C1042 C 0.26331 0.74199 0.76313 0.0
C1043 C 0.22723 0.65734 0.75167 0.0
C1044 C 0.20572 0.64548 0.75812 0.0
C1045 C 0.19976 0.61717 0.75753 0.0
C1046 C 0.19034 0.6624 0.76459 0.0
C1047 C 0.16437 0.62229 0.77036 0.0
C1048 C 0.16991 0.65085 0.77072 0.0
C1049 C 0.17919 0.60563 0.7636 0.0
C1050 C 0.18914 0.73838 0.74432 0.0
C1051 C 0.22031 0.72563 0.72348 0.0
C1052 C 0.27505 0.79829 0.73703 0.0
C1053 C 0.26181 0.82533 0.73802 0.0
C1054 C 0.27762 0.84956 0.73746 0.0
C1055 C 0.23293 0.82702 0.73846 0.0
C1056 C 0.23558 0.87669 0.73571 0.0
C1057 C 0.21989 0.85248 0.73729 0.0
C1058 C 0.26459 0.87517 0.73642 0.0
C1059 C 0.28692 0.70784 0.72823 0.0
O1060 O 0.24386 0.7237 0.76105 0.0
O1061 O 0.27585 0.75209 0.7552 0.0
O1062 O 0.21874 0.66595 0.74298 0.0
O1063 O 0.24432 0.67469 0.75591 0.0
O1064 O 0.19148 0.71256 0.74205 0.0
O1065 O 0.21337 0.7479 0.7468 0.0
O1066 O 0.2231 0.74919 0.72813 0.0
O1067 O 0.22956 0.70362 0.72814 0.0
O1068 O 0.2656 0.78302 0.72977 0.0
O1069 O 0.27822 0.78431 0.74528 0.0
O1070 O 0.27811 0.73154 0.72527 0.0
O1071 O 0.28001 0.70609 0.73765 0.0
H1072 H 0.21125 0.60393 0.75247 0.0
H1073 H 0.19435 0.68445 0.76498 0.0
H1074 H 0.1587 0.66414 0.77584 0.0
H1075 H 0.17563 0.5835 0.76327 0.0
H1076 H 0.29999 0.84854 0.73726 0.0
H1077 H 0.22044 0.80841 0.73899 0.0
H1078 H 0.19757 0.85266 0.73672 0.0
H1079 H 0.27725 0.89349 0.73545 0.0
Gd1080 Gd 0.14656 0.48771 0.48681 0.0
Gd1081 Gd 0.10351 0.50669 0.48074 0.0
C1082 C 0.10859 0.51252 0.50481 0.0
C1083 C 0.19498 0.47925 0.49451 0.0
C1084 C 0.20669 0.46061 0.50218 0.0
C1085 C 0.21375 0.43312 0.49982 0.0
C1086 C 0.21155 0.47045 0.51192 0.0
C1087 C 0.23038 0.42581 0.51679 0.0
C1088 C 0.22318 0.45323 0.51915 0.0
C1089 C 0.2255 0.41589 0.50706 0.0
C1090 C 0.11403 0.4403 0.48577 0.0
C1091 C 0.13362 0.47416 0.46463 0.0
C1092 C 0.05287 0.52172 0.4778 0.0
C1093 C 1.02626 0.51319 0.48213 0.0
C1094 C 1.00376 0.53131 0.482 0.0
C1095 C 1.02242 0.48586 0.48538 0.0
C1096 C 0.97268 0.493 0.48594 0.0
C1097 C 0.99588 0.47577 0.4872 0.0
C1098 C 0.97716 0.52139 0.48405 0.0
C1099 C 0.14313 0.5383 0.47 0.0
O1100 O 0.12946 0.49579 0.50291 0.0
O1101 O 0.09621 0.52255 0.49684 0.0
O1102 O 0.18649 0.46779 0.48624 0.0
O1103 O 0.17827 0.49859 0.49764 0.0
O1104 O 0.13973 0.44266 0.48335 0.0
O1105 O 0.10534 0.46435 0.4887 0.0
O1106 O 0.10871 0.47577 0.4684 0.0
O1107 O 0.15407 0.48265 0.47029 0.0
O1108 O 0.06539 0.50281 0.47252 0.0
O1109 O 0.06967 0.53526 0.48367 0.0
O1110 O 0.11926 0.52993 0.46702 0.0
O1111 O 0.14521 0.53062 0.47934 0.0
H1112 H 0.21042 0.42491 0.49236 0.0
H1113 H 0.20665 0.49161 0.51393 0.0
H1114 H 0.22729 0.46168 0.52653 0.0
H1115 H 0.23087 0.39486 0.50504 0.0
H1116 H 1.00649 0.55268 0.47973 0.0
H1117 H 1.0397 0.47168 0.48574 0.0
H1118 H 0.99364 0.45383 0.48863 0.0
H1119 H 0.95994 0.53552 0.48337 0.0
Gd1120 Gd 0.35996 0.70889 0.37652 0.0
Gd1121 Gd 0.33996 0.75072 0.38269 0.0
C1122 C 0.33368 0.74663 0.3588 0.0
C1123 C 0.36912 0.66102 0.36845 0.0
C1124 C 0.38858 0.65063 0.36089 0.0
C1125 C 0.41604 0.66023 0.36047 0.0
C1126 C 0.37946 0.63109 0.35389 0.0
C1127 C 0.42498 0.63065 0.34613 0.0
C1128 C 0.39748 0.62121 0.34655 0.0
C1129 C 0.43418 0.65013 0.35319 0.0
C1130 C 0.40695 0.74171 0.37764 0.0
C1131 C 0.37413 0.7227 0.39851 0.0
C1132 C 0.32464 0.80135 0.38586 0.0
C1133 C 0.33792 0.82775 0.38344 0.0
C1134 C 0.33168 0.85093 0.38926 0.0
C1135 C 0.36085 0.8284 0.37697 0.0
C1136 C 0.3748 0.87269 0.384 0.0
C1137 C 0.37908 0.85087 0.37719 0.0
C1138 C 0.34991 0.87329 0.38952 0.0
C1139 C 0.30901 0.71007 0.39321 0.0
O1140 O 0.35217 0.72724 0.36059 0.0
O1141 O 0.32215 0.75716 0.36685 0.0
O1142 O 0.37981 0.66888 0.37693 0.0
O1143 O 0.35016 0.67794 0.36523 0.0
O1144 O 0.40497 0.71575 0.37978 0.0
O1145 O 0.38276 0.75056 0.37496 0.0
O1146 O 0.37237 0.74731 0.39451 0.0
O1147 O 0.36529 0.7019 0.39307 0.0
O1148 O 0.33828 0.7866 0.39233 0.0
O1149 O 0.31569 0.78663 0.37835 0.0
O1150 O 0.31646 0.7342 0.39626 0.0
O1151 O 0.317 0.70838 0.3839 0.0
H1152 H 0.42347 0.67554 0.36576 0.0
H1153 H 0.35838 0.62348 0.35409 0.0
H1154 H 0.38998 0.60589 0.34128 0.0
H1155 H 0.45524 0.65779 0.35297 0.0
H1156 H 0.31413 0.85064 0.39432 0.0
H1157 H 0.36598 0.81053 0.37243 0.0
H1158 H 0.39772 0.84997 0.3727 0.0
H1159 H 0.34583 0.8895 0.39493 0.0
Gd1160 Gd 0.13696 0.60818 0.13531 0.0
Gd1161 Gd 0.09237 0.58858 0.14105 0.0
C1162 C 0.1001 0.58182 0.11704 0.0
C1163 C 0.18792 0.61678 0.13001 0.0
C1164 C 0.21003 0.60179 0.12489 0.0
C1165 C 0.20423 0.57866 0.1189 0.0
C1166 C 0.23731 0.61105 0.1259 0.0
C1167 C 0.25273 0.57571 0.11422 0.0
C1168 C 0.25855 0.59809 0.12062 0.0
C1169 C 0.22545 0.56573 0.11358 0.0
C1170 C 0.10419 0.65527 0.13633 0.0
C1171 C 0.11669 0.62477 0.15703 0.0
C1172 C 1.04278 0.56964 0.14353 0.0
C1173 C 1.01632 0.57803 0.13916 0.0
C1174 C 0.99294 0.56114 0.14013 0.0
C1175 C 1.01361 0.60468 0.13513 0.0
C1176 C 0.96354 0.60004 0.13551 0.0
C1177 C 0.98748 0.61568 0.13339 0.0
C1178 C 0.9667 0.57193 0.13815 0.0
C1179 C 0.13342 0.55822 0.15159 0.0
O1180 O 0.12468 0.59209 0.11936 0.0
O1181 O 0.08302 0.57848 0.12459 0.0
O1182 O 0.16675 0.62383 0.12455 0.0
O1183 O 0.1807 0.60704 0.13873 0.0
O1184 O 0.12975 0.65303 0.13893 0.0
O1185 O 0.09564 0.6312 0.1333 0.0
O1186 O 0.09264 0.62099 0.15284 0.0
O1187 O 0.13876 0.61719 0.15197 0.0
O1188 O 0.05407 0.58821 0.14934 0.0
O1189 O 0.06056 0.55821 0.13745 0.0
O1190 O 0.11007 0.5671 0.15486 0.0
O1191 O 0.13421 0.56502 0.14215 0.0
H1192 H 0.18324 0.57105 0.11816 0.0
H1193 H 0.24208 0.62879 0.13057 0.0
H1194 H 0.27928 0.60647 0.12116 0.0
H1195 H 0.22045 0.5484 0.10875 0.0
H1196 H 0.99478 0.54028 0.14303 0.0
H1197 H 1.03159 0.61786 0.13417 0.0
H1198 H 0.9863 0.63733 0.13136 0.0
H1199 H 0.94885 0.55888 0.13949 0.0
Gd1200 Gd 0.24309 0.39018 0.87526 0.0
Gd1201 Gd 0.25789 0.34757 0.88294 0.0
C1202 C 0.2688 0.34913 0.85869 0.0
C1203 C 0.23783 0.43884 0.86735 0.0
C1204 C 0.21665 0.45137 0.86088 0.0
C1205 C 0.20759 0.43809 0.85211 0.0
C1206 C 0.20409 0.47616 0.86385 0.0
C1207 C 0.17421 0.47483 0.84919 0.0
C1208 C 0.183 0.48774 0.85809 0.0
C1209 C 0.1867 0.4498 0.84629 0.0
C1210 C 0.19384 0.35984 0.87478 0.0
C1211 C 0.21708 0.37901 0.89578 0.0
C1212 C 0.27114 0.29773 0.88833 0.0
C1213 C 0.25887 0.27032 0.88666 0.0
C1214 C 0.27472 0.24649 0.88814 0.0
C1215 C 0.23039 0.26781 0.88494 0.0
C1216 C 0.23276 0.21848 0.88846 0.0
C1217 C 0.2174 0.24215 0.88588 0.0
C1218 C 0.26179 0.22066 0.88891 0.0
C1219 C 0.28841 0.38873 0.89345 0.0
O1220 O 0.25487 0.37223 0.85981 0.0
O1221 O 0.2749 0.33606 0.86711 0.0
O1222 O 0.22967 0.43281 0.87639 0.0
O1223 O 0.2532 0.41947 0.86344 0.0
O1224 O 0.19657 0.38619 0.87597 0.0
O1225 O 0.21818 0.34927 0.87359 0.0
O1226 O 0.21989 0.3538 0.89238 0.0
O1227 O 0.23127 0.39836 0.89123 0.0
O1228 O 0.25617 0.31437 0.89373 0.0
O1229 O 0.28212 0.31008 0.88061 0.0
O1230 O 0.27583 0.36745 0.89703 0.0
O1231 O 0.28438 0.38776 0.88381 0.0
H1232 H 0.21666 0.41871 0.84971 0.0
H1233 H 0.21048 0.48649 0.87068 0.0
H1234 H 0.17361 0.50684 0.86061 0.0
H1235 H 0.18084 0.43952 0.8394 0.0
H1236 H 0.29681 0.24805 0.88934 0.0
H1237 H 0.21786 0.28604 0.88367 0.0
H1238 H 0.19506 0.24155 0.8855 0.0
H1239 H 0.27436 0.20274 0.89059 0.0
Gd1240 Gd 0.45192 0.48682 0.63455 0.0
Gd1241 Gd 0.49351 0.51072 0.63999 0.0
C1242 C 0.48911 0.51387 0.6161 0.0
C1243 C 0.40293 0.47742 0.62766 0.0
C1244 C 0.39277 0.46541 0.6183 0.0
C1245 C 0.41057 0.44983 0.6122 0.0
C1246 C 0.36504 0.46851 0.61559 0.0
C1247 C 0.37275 0.44005 0.6008 0.0
C1248 C 0.35508 0.45599 0.60687 0.0
C1249 C 0.40059 0.43711 0.60354 0.0
C1250 C 0.48773 0.44293 0.63413 0.0
C1251 C 0.47164 0.47274 0.65626 0.0
C1252 C 0.54113 0.52849 0.64607 0.0
C1253 C 0.56918 0.51987 0.6434 0.0
C1254 C 0.59047 0.52295 0.65037 0.0
C1255 C 0.57409 0.50552 0.63441 0.0
C1256 C 0.6204 0.49412 0.64003 0.0
C1257 C 0.59958 0.4929 0.63271 0.0
C1258 C 0.61589 0.5102 0.64871 0.0
C1259 C 0.44846 0.54319 0.64786 0.0
O1260 O 0.46489 0.50291 0.61853 0.0
O1261 O 0.50565 0.51852 0.62366 0.0
O1262 O 0.41628 0.46019 0.6334 0.0
O1263 O 0.41509 0.50159 0.62695 0.0
O1264 O 0.46193 0.44242 0.63656 0.0
O1265 O 0.49468 0.4682 0.63161 0.0
O1266 O 0.49513 0.47883 0.65203 0.0
O1267 O 0.44906 0.47933 0.65131 0.0
O1268 O 0.52668 0.51001 0.65092 0.0
O1269 O 0.52708 0.54035 0.63894 0.0
O1270 O 0.46972 0.55223 0.64292 0.0
O1271 O 0.45079 0.5171 0.64739 0.0
H1272 H 0.43213 0.44732 0.6142 0.0
H1273 H 0.35107 0.48039 0.62025 0.0
H1274 H 0.33349 0.45843 0.60494 0.0
H1275 H 0.41469 0.42526 0.59892 0.0
H1276 H 0.58693 0.5338 0.65737 0.0
H1277 H 0.55778 0.50282 0.62894 0.0
H1278 H 0.60244 0.48092 0.62592 0.0
H1279 H 0.63115 0.51122 0.65463 0.0
H1280 H 0.19889 0.40407 0.37648 0.0
H1281 H 0.16852 0.4379 0.38444 0.0
H1282 H 0.2321 0.45624 0.40609 0.0
H1283 H 0.2617 0.42215 0.39863 0.0
H1284 H 0.15479 0.42125 0.40297 0.0
H1285 H 0.19055 0.52828 0.40573 0.0
H1286 H 0.2033 0.50536 0.39608 0.0
H1287 H 0.21986 0.50683 0.40821 0.0
C1288 C 0.20675 0.41595 0.38275 0.0
C1289 C 0.23236 0.40934 0.38716 0.0
C1290 C 0.18943 0.43556 0.38721 0.0
C1291 C 0.19786 0.44936 0.39595 0.0
C1292 C 0.22512 0.44612 0.3993 0.0
H1293 H 0.18259 0.46893 0.45486 0.0
H1294 H 0.19023 0.46769 0.43677 0.0
C1295 C 0.24221 0.4263 0.39497 0.0
C1296 C 0.1772 0.45988 0.4032 0.0
H1297 H 0.17336 0.50733 0.42204 0.0
C1298 C 0.15792 0.44063 0.40693 0.0
C1299 C 0.18107 0.48518 0.40831 0.0
C1300 C 0.19969 0.50761 0.40426 0.0
C1301 C 0.14559 0.44417 0.41636 0.0
C1302 C 0.15233 0.46791 0.42204 0.0
C1303 C 0.1687 0.48884 0.41774 0.0
C1304 C 0.1468 0.46906 0.43294 0.0
C1305 C 0.12787 0.42118 0.42059 0.0
C1306 C 0.11979 0.46973 0.43677 0.0
C1307 C 0.11535 0.46995 0.44714 0.0
C1308 C 0.13788 0.4698 0.4538 0.0
C1309 C 0.16483 0.46885 0.44992 0.0
C1310 C 0.16923 0.46847 0.43959 0.0
H1311 H 0.12714 0.40281 0.41558 0.0
H1312 H 0.13581 0.41459 0.42803 0.0
H1313 H 0.10644 0.42876 0.42164 0.0
H1314 H 0.10223 0.47044 0.43175 0.0
H1315 H 0.09434 0.47113 0.44992 0.0
H1316 H 1.00248 0.92916 0.6596 0.0
H1317 H 0.97235 0.89456 0.667 0.0
H1318 H 0.91338 0.90665 0.64308 0.0
H1319 H 0.94389 0.9423 0.63575 0.0
H1320 H 0.88938 0.9142 0.66 0.0
H1321 H 0.94569 0.81776 0.66487 0.0
H1322 H 0.96967 0.84427 0.66834 0.0
H1323 H 0.95647 0.84305 0.65565 0.0
C1324 C 0.98343 0.9238 0.65578 0.0
C1325 C 0.97514 0.93834 0.64724 0.0
C1326 C 0.96638 0.90366 0.6599 0.0
C1327 C 0.94072 0.89749 0.6555 0.0
C1328 C 0.93322 0.91082 0.64653 0.0
H1329 H 0.8695 0.82309 0.70891 0.0
H1330 H 0.87862 0.82439 0.69089 0.0
C1331 C 0.95047 0.93116 0.64237 0.0
C1332 C 0.92019 0.88223 0.66162 0.0
H1333 H 0.92216 0.8358 0.68079 0.0
C1334 C 0.89591 0.89629 0.66429 0.0
C1335 C 0.92767 0.85815 0.66699 0.0
C1336 C 0.95117 0.83986 0.66368 0.0
C1337 C 0.88188 0.88981 0.67318 0.0
C1338 C 0.89303 0.86945 0.67962 0.0
C1339 C 0.91433 0.85234 0.67609 0.0
C1340 C 0.88598 0.86857 0.69041 0.0
C1341 C 0.85639 0.90611 0.67588 0.0
C1342 C 0.88787 0.89286 0.69619 0.0
C1343 C 0.88248 0.89225 0.70647 0.0
C1344 C 0.87576 0.86721 0.71119 0.0
C1345 C 0.87474 0.84274 0.70547 0.0
C1346 C 0.87974 0.84343 0.69516 0.0
H1347 H 0.84418 0.91092 0.66905 0.0
H1348 H 0.843 0.89473 0.68126 0.0
H1349 H 0.86263 0.92613 0.67928 0.0
H1350 H 0.89382 0.91232 0.69277 0.0
H1351 H 0.88354 0.91136 0.7107 0.0
H1352 H 0.33691 0.67609 0.90378 0.0
H1353 H 0.37175 0.64492 0.90985 0.0
H1354 H 0.4242 0.66511 0.8847 0.0
H1355 H 0.3886 0.69632 0.87828 0.0
H1356 H 0.41125 0.60334 0.90544 0.0
H1357 H 0.45835 0.70888 0.9081 0.0
H1358 H 0.42329 0.70502 0.90381 0.0
H1359 H 0.45147 0.69382 0.89602 0.0
C1360 C 0.355 0.67295 0.89914 0.0
C1361 C 0.36049 0.68987 0.89079 0.0
C1362 C 0.37513 0.65497 0.90268 0.0
C1363 C 0.40102 0.65372 0.89796 0.0
C1364 C 0.40462 0.66653 0.88861 0.0
H1365 H 0.50811 0.63777 0.95065 0.0
H1366 H 0.50053 0.64055 0.93249 0.0
C1367 C 0.38429 0.68446 0.885 0.0
C1368 C 0.42478 0.64571 0.90425 0.0
H1369 H 0.46616 0.67831 0.92129 0.0
C1370 C 0.4243 0.61933 0.90864 0.0
C1371 C 0.44208 0.66655 0.90838 0.0
C1372 C 0.444 0.69519 0.90388 0.0
C1373 C 0.43743 0.61452 0.91784 0.0
C1374 C 0.45106 0.63664 0.92268 0.0
C1375 C 0.45513 0.66163 0.91759 0.0
C1376 C 0.45617 0.63603 0.93358 0.0
C1377 C 0.43443 0.5866 0.92274 0.0
C1378 C 0.43356 0.63409 0.94015 0.0
C1379 C 0.4377 0.63292 0.95048 0.0
C1380 C 0.46458 0.63365 0.95441 0.0
C1381 C 0.48714 0.63712 0.94783 0.0
C1382 C 0.48293 0.63845 0.93747 0.0
H1383 H 0.43176 0.57002 0.91705 0.0
H1384 H 0.45265 0.58172 0.92748 0.0
H1385 H 0.4158 0.58674 0.92761 0.0
H1386 H 0.41266 0.63302 0.93726 0.0
H1387 H 0.41992 0.63022 0.95533 0.0
H1388 H 0.71716 0.2606 0.20852 0.0
H1389 H 0.71335 0.25321 0.1904 0.0
H1390 H 0.70861 0.16504 0.19527 0.0
H1391 H 0.71291 0.17216 0.21332 0.0
H1392 H 0.74708 0.18191 0.17998 0.0
H1393 H 0.64294 0.22969 0.17536 0.0
H1394 H 0.6698 0.24983 0.18117 0.0
H1395 H 0.65597 0.22015 0.18755 0.0
C1396 C 0.71493 0.23966 0.20573 0.0
C1397 C 0.71516 0.21692 0.21233 0.0
C1398 C 0.71288 0.23551 0.19538 0.0
C1399 C 0.71076 0.20861 0.19153 0.0
C1400 C 0.71046 0.18597 0.19812 0.0
H1401 H 0.6606 0.09634 0.15447 0.0
H1402 H 0.69303 0.12516 0.16339 0.0
C1403 C 0.71264 0.19007 0.20843 0.0
C1404 C 0.70816 0.20345 0.18066 0.0
H1405 H 0.65985 0.20314 0.16215 0.0
C1406 C 0.72832 0.18712 0.17595 0.0
C1407 C 0.68402 0.21085 0.17537 0.0
C1408 C 0.66181 0.22851 0.18008 0.0
C1409 C 0.72367 0.17567 0.16644 0.0
C1410 C 0.6981 0.18043 0.16166 0.0
C1411 C 0.67943 0.19941 0.16586 0.0
C1412 C 0.68715 0.16124 0.154 0.0
C1413 C 0.74535 0.15713 0.16191 0.0
C1414 C 0.67404 0.17139 0.14537 0.0
C1415 C 0.65539 0.15467 0.14013 0.0
C1416 C 0.64917 0.1278 0.14358 0.0
C1417 C 0.66484 0.11678 0.1515 0.0
C1418 C 0.68363 0.13335 0.15665 0.0
H1419 H 0.76641 0.1646 0.16386 0.0
H1420 H 0.74306 0.13596 0.16505 0.0
H1421 H 0.74343 0.15601 0.15362 0.0
H1422 H 0.67648 0.19287 0.1432 0.0
H1423 H 0.64421 0.16356 0.13388 0.0
H1424 H 0.24123 0.6727 0.22244 0.0
H1425 H 0.20146 0.64671 0.21658 0.0
H1426 H 0.14723 0.70015 0.23342 0.0
H1427 H 0.18676 0.7281 0.23846 0.0
H1428 H 0.1544 0.6206 0.22036 0.0
H1429 H 0.12943 0.72655 0.20607 0.0
H1430 H 0.16061 0.72054 0.21303 0.0
H1431 H 0.12762 0.72057 0.21932 0.0
C1432 C 0.2209 0.67868 0.22506 0.0
C1433 C 0.21709 0.7034 0.23041 0.0
C1434 C 0.19809 0.66353 0.22181 0.0
C1435 C 0.17122 0.67249 0.22411 0.0
C1436 C 0.16774 0.69373 0.23116 0.0
H1437 H 0.07589 0.64503 0.16919 0.0
H1438 H 0.07844 0.65272 0.18738 0.0
C1439 C 0.19053 0.7095 0.23416 0.0
C1440 C 0.14853 0.66399 0.2173 0.0
H1441 H 0.11589 0.68922 0.19654 0.0
C1442 C 0.14513 0.63561 0.21535 0.0
C1443 C 0.13594 0.68359 0.2108 0.0
C1444 C 0.13854 0.71449 0.21234 0.0
C1445 C 0.13301 0.62648 0.20639 0.0
C1446 C 0.12388 0.64625 0.19935 0.0
C1447 C 0.12337 0.67426 0.20196 0.0
C1448 C 0.12092 0.63936 0.18863 0.0
C1449 C 0.13222 0.5959 0.20416 0.0
C1450 C 0.14425 0.63026 0.18333 0.0
C1451 C 0.14308 0.62649 0.17299 0.0
C1452 C 0.1185 0.63168 0.16776 0.0
C1453 C 0.09514 0.64099 0.17305 0.0
C1454 C 0.09643 0.64507 0.18343 0.0
H1455 H 0.13028 0.58363 0.21118 0.0
H1456 H 0.1148 0.5906 0.19909 0.0
H1457 H 0.15183 0.5898 0.20044 0.0
H1458 H 0.16361 0.6266 0.18718 0.0
H1459 H 0.16135 0.61907 0.16914 0.0
H1460 H 0.70576 0.82749 0.41027 0.0
H1461 H 0.69203 0.83181 0.42792 0.0
H1462 H 0.71553 0.91796 0.42753 0.0
H1463 H 0.72936 0.9139 0.40996 0.0
H1464 H 0.73507 0.8828 0.44505 0.0
H1465 H 0.62207 0.87799 0.4368 0.0
H1466 H 0.64453 0.8519 0.43167 0.0
H1467 H 0.64688 0.88681 0.42718 0.0
C1468 C 0.70785 0.84739 0.41394 0.0
C1469 C 0.71838 0.87045 0.40873 0.0
C1470 C 0.70015 0.84974 0.42401 0.0
C1471 C 0.70293 0.87515 0.42897 0.0
C1472 C 0.71346 0.89814 0.4238 0.0
H1473 H 0.66836 0.9819 0.47358 0.0
H1474 H 0.69432 0.94842 0.46383 0.0
C1475 C 0.72106 0.89585 0.41375 0.0
C1476 C 0.69356 0.87861 0.43941 0.0
H1477 H 0.6353 0.89206 0.45279 0.0
C1478 C 0.71326 0.88425 0.44686 0.0
C1479 C 0.66516 0.87993 0.44174 0.0
C1480 C 0.64329 0.87394 0.43397 0.0
C1481 C 0.70518 0.89307 0.45645 0.0
C1482 C 0.67677 0.89702 0.45848 0.0
C1483 C 0.65711 0.88907 0.45127 0.0
C1484 C 0.66688 0.91396 0.46702 0.0
C1485 C 0.72719 0.89893 0.46416 0.0
C1486 C 0.64345 0.90563 0.47247 0.0
C1487 C 0.62798 0.92508 0.47779 0.0
C1488 C 0.63587 0.95315 0.47779 0.0
C1489 C 0.66138 0.96059 0.4735 0.0
C1490 C 0.67657 0.94125 0.46805 0.0
H1491 H 0.74452 0.88404 0.4634 0.0
H1492 H 0.73577 0.91996 0.46287 0.0
H1493 H 0.71892 0.89775 0.47192 0.0
H1494 H 0.63563 0.88467 0.47181 0.0
H1495 H 0.60846 0.91851 0.48099 0.0
H1496 H 0.51526 0.45855 0.66811 0.0
H1497 H 0.51469 0.45016 0.68624 0.0
H1498 H 0.42638 0.4618 0.68664 0.0
H1499 H 0.42669 0.47033 0.66856 0.0
H1500 H 0.46275 0.4923 0.70253 0.0
H1501 H 0.4779 0.3782 0.69908 0.0
H1502 H 0.49963 0.40203 0.69226 0.0
H1503 H 0.46421 0.39766 0.68866 0.0
C1504 C 0.49569 0.45912 0.67206 0.0
C1505 C 0.47095 0.4649 0.66693 0.0
C1506 C 0.49548 0.45452 0.6824 0.0
C1507 C 0.47056 0.45566 0.68772 0.0
C1508 C 0.44584 0.46115 0.68262 0.0
H1509 H 0.35953 0.4293 0.72652 0.0
H1510 H 0.39775 0.45645 0.72015 0.0
C1511 C 0.446 0.46567 0.67229 0.0
C1512 C 0.46944 0.44962 0.69854 0.0
H1513 H 0.45871 0.39476 0.71393 0.0
C1514 C 0.46261 0.47106 0.70517 0.0
C1515 C 0.47032 0.42209 0.70201 0.0
C1516 C 0.47842 0.39853 0.69519 0.0
C1517 C 0.45349 0.46522 0.71494 0.0
C1518 C 0.45019 0.4373 0.71791 0.0
C1519 C 0.46074 0.41625 0.71169 0.0
C1520 C 0.4297 0.42885 0.72563 0.0
C1521 C 0.4459 0.48895 0.72173 0.0
C1522 C 0.43464 0.40536 0.73157 0.0
C1523 C 0.41252 0.38907 0.73485 0.0
C1524 C 0.38522 0.39645 0.7324 0.0
C1525 C 0.38038 0.42264 0.72821 0.0
C1526 C 0.40244 0.43856 0.72472 0.0
H1527 H 0.46169 0.50561 0.72116 0.0
H1528 H 0.42595 0.49794 0.71926 0.0
H1529 H 0.44411 0.48239 0.72969 0.0
H1530 H 0.45547 0.39762 0.7325 0.0
H1531 H 0.41713 0.36915 0.73816 0.0
H1532 H 0.98151 0.05891 0.93959 0.0
H1533 H 0.97309 0.09151 0.92595 0.0
H1534 H 0.05558 0.12426 0.92923 0.0
H1535 H 0.06415 0.09156 0.94289 0.0
H1536 H 1.01267 0.1614 0.93397 0.0
H1537 H 0.99417 0.11316 0.89704 0.0
H1538 H 0.9786 0.09348 0.90698 0.0
H1539 H 1.01563 0.0973 0.90654 0.0
C1540 C 0.99826 0.07213 0.93707 0.0
C1541 C 1.02332 0.07296 0.94232 0.0
C1542 C 0.99353 0.09067 0.92924 0.0
C1543 C 1.01376 0.1103 0.92662 0.0
C1544 C 1.03984 0.10915 0.93114 0.0
H1545 H 0.92891 0.25127 0.89779 0.0
H1546 H 0.97052 0.22903 0.90458 0.0
C1547 C 1.0447 0.09038 0.9389 0.0
C1548 C 1.00507 0.1353 0.92113 0.0
H1549 H 0.96533 0.15332 0.90115 0.0
C1550 C 1.00329 0.16011 0.9266 0.0
C1551 C 0.99302 0.13357 0.91153 0.0
C1552 C 0.9957 0.10798 0.90514 0.0
C1553 C 0.98676 0.18199 0.92322 0.0
C1554 C 0.97209 0.17883 0.91418 0.0
C1555 C 0.97653 0.15544 0.90816 0.0
C1556 C 0.94791 0.19604 0.91191 0.0
C1557 C 0.98275 0.20708 0.92977 0.0
C1558 C 0.92169 0.18543 0.91423 0.0
C1559 C 0.89815 0.19778 0.91031 0.0
C1560 C 0.90056 0.22107 0.90411 0.0
C1561 C 0.92661 0.23341 0.90263 0.0
C1562 C 0.95034 0.22068 0.90643 0.0
H1563 H 0.99817 0.20806 0.93592 0.0
H1564 H 0.98431 0.22624 0.92519 0.0
H1565 H 0.96173 0.20645 0.93312 0.0
H1566 H 0.91958 0.16643 0.91849 0.0
H1567 H 0.87826 0.18791 0.91149 0.0
H1568 H 0.86692 0.6743 0.72284 0.0
H1569 H 0.90401 0.65319 0.7132 0.0
H1570 H 0.95956 0.71852 0.72228 0.0
H1571 H 0.92223 0.74044 0.73155 0.0
H1572 H 0.95108 0.71936 0.70282 0.0
H1573 H 0.97571 0.61197 0.71308 0.0
H1574 H 0.93895 0.61616 0.71296 0.0
H1575 H 0.95949 0.63554 0.72181 0.0
C1576 C 0.88729 0.68364 0.72307 0.0
C1577 C 0.89141 0.70938 0.72773 0.0
C1578 C 0.90867 0.67131 0.71767 0.0
C1579 C 0.9346 0.68433 0.71699 0.0
C1580 C 0.93973 0.70811 0.72273 0.0
H1581 H 1.02419 0.63185 0.66238 0.0
H1582 H 1.01975 0.64768 0.67978 0.0
C1583 C 0.91829 0.72058 0.72806 0.0
C1584 C 0.95286 0.67746 0.70844 0.0
H1585 H 0.97546 0.62223 0.69482 0.0
C1586 C 0.95736 0.69827 0.70124 0.0
C1587 C 0.96122 0.65005 0.70635 0.0
C1588 C 0.95882 0.62728 0.71404 0.0
C1589 C 0.96721 0.69184 0.69166 0.0
C1590 C 0.97256 0.66398 0.68924 0.0
C1591 C 0.97085 0.64357 0.6967 0.0
C1592 C 0.97588 0.65533 0.67874 0.0
C1593 C 0.96997 0.71452 0.68394 0.0
C1594 C 0.95262 0.65463 0.67248 0.0
C1595 C 0.95497 0.64549 0.66261 0.0
C1596 C 0.98069 0.63709 0.65884 0.0
C1597 C 1.00411 0.63835 0.66508 0.0
C1598 C 1.00166 0.64724 0.67501 0.0
H1599 H 0.97121 0.73529 0.68749 0.0
H1600 H 0.98862 0.71129 0.67922 0.0
H1601 H 0.95163 0.71413 0.67894 0.0
H1602 H 0.93254 0.66078 0.67531 0.0
H1603 H 0.93661 0.6447 0.65797 0.0
H1604 H 0.18107 0.10934 0.47548 0.0
H1605 H 0.20571 0.14948 0.46928 0.0
H1606 H 0.14437 0.2031 0.48248 0.0
H1607 H 0.11846 0.16279 0.48803 0.0
H1608 H 0.14133 0.20796 0.46392 0.0
H1609 H 0.25175 0.21571 0.47126 0.0
H1610 H 0.24573 0.17978 0.46895 0.0
H1611 H 0.22934 0.19637 0.47958 0.0
C1612 C 0.17334 0.1297 0.47738 0.0
C1613 C 0.14726 0.1328 0.48185 0.0
C1614 C 0.1878 0.15286 0.47399 0.0
C1615 C 0.17673 0.17953 0.47525 0.0
C1616 C 0.1532 0.18276 0.48131 0.0
H1617 H 0.20094 0.26947 0.41829 0.0
H1618 H 0.19251 0.26813 0.43643 0.0
C1619 C 0.1384 0.15954 0.48453 0.0
C1620 C 0.18415 0.20119 0.46781 0.0
H1621 H 0.23849 0.21786 0.45267 0.0
C1622 C 0.16267 0.21126 0.46172 0.0
C1623 C 0.21185 0.20618 0.46493 0.0
C1624 C 0.23584 0.19912 0.47164 0.0
C1625 C 0.16808 0.22195 0.45215 0.0
C1626 C 0.19562 0.22273 0.44869 0.0
C1627 C 0.21729 0.21647 0.45529 0.0
C1628 C 0.20168 0.22454 0.43788 0.0
C1629 C 0.14419 0.22936 0.4454 0.0
C1630 C 0.20935 0.2004 0.43276 0.0
C1631 C 0.21392 0.20099 0.42244 0.0
C1632 C 0.21101 0.22581 0.41708 0.0
C1633 C 0.20312 0.24998 0.42223 0.0
C1634 C 0.19849 0.24934 0.43257 0.0
H1635 H 0.12389 0.22718 0.44924 0.0
H1636 H 0.14642 0.25108 0.44282 0.0
H1637 H 0.14426 0.21586 0.43867 0.0
H1638 H 0.21163 0.18101 0.43676 0.0
H1639 H 0.22025 0.18213 0.4187 0.0
H1640 H 0.67086 0.47423 0.15999 0.0
H1641 H 0.67319 0.46304 0.17786 0.0
H1642 H 0.58541 0.44748 0.17832 0.0
H1643 H 0.58279 0.45871 0.1604 0.0
H1644 H 0.63717 0.48906 0.19483 0.0
H1645 H 0.62721 0.3751 0.18886 0.0
H1646 H 0.6392 0.39748 0.17891 0.0
H1647 H 0.60371 0.39851 0.18274 0.0
C1648 C 0.65207 0.46829 0.16387 0.0
C1649 C 0.62669 0.46717 0.15881 0.0
C1650 C 0.65339 0.46218 0.17408 0.0
C1651 C 0.62943 0.45469 0.17935 0.0
C1652 C 0.60405 0.45335 0.17434 0.0
H1653 H 0.67032 0.36571 0.23256 0.0
H1654 H 0.63646 0.39292 0.22344 0.0
C1655 C 0.60267 0.45959 0.16412 0.0
C1656 C 0.63174 0.44686 0.18999 0.0
H1657 H 0.64269 0.39015 0.20448 0.0
C1658 C 0.63774 0.46747 0.19707 0.0
C1659 C 0.63183 0.41879 0.19287 0.0
C1660 C 0.62519 0.39604 0.18549 0.0
C1661 C 0.64597 0.46051 0.20684 0.0
C1662 C 0.64902 0.43228 0.2094 0.0
C1663 C 0.64045 0.41184 0.20256 0.0
C1664 C 0.66603 0.42312 0.21802 0.0
C1665 C 0.65232 0.48345 0.21414 0.0
C1666 C 0.69352 0.43237 0.21872 0.0
C1667 C 0.71288 0.41719 0.22413 0.0
C1668 C 0.70523 0.39211 0.22872 0.0
C1669 C 0.67704 0.38488 0.2291 0.0
C1670 C 0.65757 0.40038 0.22383 0.0
H1671 H 0.63769 0.50091 0.21312 0.0
H1672 H 0.65117 0.47624 0.22204 0.0
H1673 H 0.67341 0.49157 0.21265 0.0
H1674 H 0.7008 0.44958 0.21422 0.0
H1675 H 0.73432 0.42367 0.22392 0.0
H1676 H 0.37866 0.82477 0.92093 0.0
H1677 H 0.39318 0.82827 0.93852 0.0
H1678 H 0.40075 0.91678 0.93538 0.0
H1679 H 0.3863 0.9136 0.91787 0.0
H1680 H 0.44878 0.8819 0.94419 0.0
H1681 H 0.3454 0.86954 0.96213 0.0
H1682 H 0.35597 0.84765 0.95184 0.0
H1683 H 0.34833 0.88337 0.94958 0.0
C1684 C 0.38357 0.84497 0.92398 0.0
C1685 C 0.3814 0.86896 0.91803 0.0
C1686 C 0.39166 0.84688 0.93402 0.0
C1687 C 0.39769 0.87278 0.9382 0.0
C1688 C 0.39597 0.89664 0.93224 0.0
H1689 H 0.41746 0.98027 0.982 0.0
H1690 H 0.39648 0.94173 0.97308 0.0
C1691 C 0.38783 0.89478 0.92225 0.0
C1692 C 0.40668 0.87557 0.9487 0.0
H1693 H 0.3812 0.88795 0.97213 0.0
C1694 C 0.43433 0.88247 0.95042 0.0
C1695 C 0.38754 0.87614 0.95669 0.0
C1696 C 0.35758 0.86877 0.95506 0.0
C1697 C 0.44301 0.89255 0.95974 0.0
C1698 C 0.4234 0.89508 0.96764 0.0
C1699 C 0.39619 0.88579 0.96612 0.0
C1700 C 0.42936 0.91285 0.97644 0.0
C1701 C 0.47239 0.90302 0.96063 0.0
C1702 C 0.45296 0.90848 0.98231 0.0
C1703 C 0.46571 0.9309 0.98705 0.0
C1704 C 0.45433 0.95766 0.98621 0.0
C1705 C 0.42747 0.96027 0.98232 0.0
C1706 C 0.41524 0.93807 0.9773 0.0
H1707 H 0.48355 0.90271 0.95334 0.0
H1708 H 0.47269 0.92458 0.9635 0.0
H1709 H 0.48402 0.88975 0.96593 0.0
H1710 H 0.46349 0.88874 0.98212 0.0
H1711 H 0.48609 0.92771 0.99017 0.0
H1712 H 0.91556 0.40334 0.8816 0.0
H1713 H 0.94654 0.43159 0.89195 0.0
H1714 H 0.88072 0.44405 0.91329 0.0
H1715 H 0.85013 0.41579 0.90329 0.0
H1716 H 0.91854 0.48956 0.91189 0.0
H1717 H 0.97075 0.38747 0.91693 0.0
H1718 H 0.96899 0.40243 0.90459 0.0
H1719 H 0.93807 0.38987 0.91053 0.0
C1720 C 0.9075 0.41271 0.88837 0.0
C1721 C 0.88052 0.4066 0.89172 0.0
C1722 C 0.92522 0.42891 0.89424 0.0
C1723 C 0.91607 0.43926 0.9035 0.0
C1724 C 0.88823 0.43616 0.90618 0.0
H1725 H 0.92315 0.46831 0.9627 0.0
H1726 H 0.91746 0.46529 0.94458 0.0
C1727 C 0.87062 0.41997 0.90038 0.0
C1728 C 0.9356 0.44846 0.91134 0.0
H1729 H 0.97526 0.41981 0.92974 0.0
C1730 C 0.93175 0.47468 0.91563 0.0
C1731 C 0.95304 0.42907 0.91616 0.0
C1732 C 0.95805 0.40058 0.91188 0.0
C1733 C 0.94255 0.48096 0.92511 0.0
C1734 C 0.95706 0.4603 0.93044 0.0
C1735 C 0.96372 0.43539 0.92566 0.0
C1736 C 0.96124 0.46219 0.94139 0.0
C1737 C 0.93689 0.50904 0.92961 0.0
C1738 C 0.98764 0.45988 0.94562 0.0
C1739 C 0.99096 0.46136 0.95603 0.0
C1740 C 0.96784 0.46472 0.96233 0.0
C1741 C 0.94136 0.46573 0.95806 0.0
C1742 C 0.93811 0.46445 0.9477 0.0
H1743 H 0.9349 0.52505 0.92367 0.0
H1744 H 0.91706 0.5083 0.9338 0.0
H1745 H 0.95352 0.51534 0.93488 0.0
H1746 H 1.00564 0.45743 0.94087 0.0
H1747 H 1.01166 0.46062 0.9591 0.0
H1748 H 0.42108 0.09185 0.64978 0.0
H1749 H 0.38958 0.12486 0.65679 0.0
H1750 H 0.41067 0.18355 0.63362 0.0
H1751 H 0.4419 0.14968 0.62611 0.0
H1752 H 0.42749 0.20029 0.65182 0.0
H1753 H 0.3193 0.16823 0.65568 0.0
H1754 H 0.34046 0.13862 0.65806 0.0
H1755 H 0.34127 0.1548 0.64584 0.0
C1756 C 0.41805 0.11098 0.64571 0.0
C1757 C 0.43501 0.11829 0.63754 0.0
C1758 C 0.39972 0.13006 0.64979 0.0
C1759 C 0.3979 0.15687 0.64581 0.0
C1760 C 0.41187 0.16301 0.63685 0.0
H1761 H 0.37457 0.26442 0.69877 0.0
H1762 H 0.37598 0.25675 0.68056 0.0
C1763 C 0.42999 0.14367 0.63264 0.0
C1764 C 0.38816 0.17923 0.65252 0.0
H1765 H 0.34127 0.18706 0.67138 0.0
C1766 C 0.40806 0.19842 0.65584 0.0
C1767 C 0.36275 0.17709 0.6577 0.0
C1768 C 0.33968 0.15872 0.65403 0.0
C1769 C 0.40496 0.21219 0.66503 0.0
C1770 C 0.38127 0.20677 0.6709 0.0
C1771 C 0.35971 0.19071 0.66692 0.0
C1772 C 0.38111 0.21243 0.68177 0.0
C1773 C 0.42833 0.22986 0.66893 0.0
C1774 C 0.38411 0.19011 0.6884 0.0
C1775 C 0.38352 0.19437 0.69872 0.0
C1776 C 0.3798 0.22107 0.70262 0.0
C1777 C 0.37768 0.24362 0.69597 0.0
C1778 C 0.37829 0.2393 0.68559 0.0
H1779 H 0.44541 0.23201 0.6634 0.0
H1780 H 0.42053 0.25081 0.6708 0.0
H1781 H 0.43674 0.22063 0.67592 0.0
H1782 H 0.38661 0.16925 0.68556 0.0
H1783 H 0.38515 0.17658 0.70364 0.0
H1784 H 0.72259 0.6636 0.38534 0.0
H1785 H 0.691 0.6353 0.39549 0.0
H1786 H 0.65041 0.70974 0.40569 0.0
H1787 H 0.68005 0.73728 0.39502 0.0
H1788 H 0.69334 0.63403 0.41355 0.0
H1789 H 0.58596 0.66302 0.40735 0.0
H1790 H 0.61231 0.67215 0.39834 0.0
H1791 H 0.60393 0.69516 0.40861 0.0
C1792 C 0.70593 0.67358 0.38938 0.0
C1793 C 0.70361 0.70251 0.38939 0.0
C1794 C 0.68796 0.65749 0.39522 0.0
C1795 C 0.66803 0.6702 0.40139 0.0
C1796 C 0.66469 0.69904 0.4008 0.0
H1797 H 0.65984 0.64748 0.46297 0.0
H1798 H 0.66893 0.65541 0.44518 0.0
C1799 C 0.68195 0.71494 0.39474 0.0
C1800 C 0.65514 0.65484 0.40989 0.0
H1801 H 0.59933 0.65776 0.42554 0.0
C1802 C 0.67242 0.63855 0.41595 0.0
C1803 C 0.62758 0.65962 0.41306 0.0
C1804 C 0.60642 0.67317 0.40638 0.0
C1805 C 0.66397 0.62964 0.42547 0.0
C1806 C 0.63817 0.63852 0.42927 0.0
C1807 C 0.61966 0.65203 0.42282 0.0
C1808 C 0.63115 0.63578 0.44006 0.0
C1809 C 0.68323 0.61141 0.43143 0.0
C1810 C 0.60593 0.62411 0.44314 0.0
C1811 C 0.60026 0.62054 0.45336 0.0
C1812 C 0.6199 0.62831 0.46059 0.0
C1813 C 0.64452 0.64108 0.45752 0.0
C1814 C 0.64987 0.64524 0.44736 0.0
H1815 H 0.69539 0.59779 0.42638 0.0
H1816 H 0.69815 0.62456 0.43559 0.0
H1817 H 0.67181 0.59822 0.43687 0.0
H1818 H 0.59101 0.61701 0.43766 0.0
H1819 H 0.58114 0.61051 0.45555 0.0
H1820 H 0.21896 0.91855 0.20322 0.0
H1821 H 0.20783 0.92017 0.18536 0.0
H1822 H 0.19876 0.83138 0.18484 0.0
H1823 H 0.2099 0.82946 0.20277 0.0
H1824 H 0.23734 0.88471 0.16844 0.0
H1825 H 0.124 0.86902 0.17385 0.0
H1826 H 0.14443 0.88299 0.18398 0.0
H1827 H 0.14888 0.84765 0.18025 0.0
C1828 C 0.21439 0.89938 0.19934 0.0
C1829 C 0.21515 0.87392 0.20439 0.0
C1830 C 0.20834 0.90031 0.18913 0.0
C1831 C 0.20282 0.87585 0.18383 0.0
C1832 C 0.20318 0.85039 0.18884 0.0
H1833 H 0.11143 0.93461 0.13497 0.0
H1834 H 0.13925 0.89561 0.14039 0.0
C1835 C 0.20935 0.84941 0.19907 0.0
C1836 C 0.19528 0.87782 0.17317 0.0
H1837 H 0.13847 0.89088 0.1591 0.0
C1838 C 0.21578 0.88526 0.16622 0.0
C1839 C 0.16731 0.87756 0.17025 0.0
C1840 C 0.14473 0.86883 0.17742 0.0
C1841 C 0.20866 0.89562 0.15675 0.0
C1842 C 0.18044 0.89948 0.15442 0.0
C1843 C 0.16019 0.88838 0.16087 0.0
C1844 C 0.17124 0.92079 0.14715 0.0
C1845 C 0.23143 0.90395 0.14962 0.0
C1846 C 0.18129 0.94796 0.14825 0.0
C1847 C 0.1657 0.97037 0.14496 0.0
C1848 C 0.13951 0.966 0.14072 0.0
C1849 C 0.13145 0.93881 0.13826 0.0
C1850 C 0.14735 0.91635 0.1414 0.0
H1851 H 0.24813 0.88822 0.1497 0.0
H1852 H 0.22379 0.90637 0.14182 0.0
H1853 H 0.2407 0.92378 0.15215 0.0
H1854 H 0.19943 0.95222 0.15274 0.0
H1855 H 0.17277 0.99111 0.14671 0.0
H1856 H 0.66601 0.98706 0.95235 0.0
H1857 H 0.67004 0.97653 0.93449 0.0
H1858 H 0.58765 0.94222 0.9346 0.0
H1859 H 0.58335 0.95285 0.95253 0.0
H1860 H 0.62987 0.90762 0.92683 0.0
H1861 H 0.63314 1.01132 0.90929 0.0
H1862 H 0.65525 1.00836 0.92005 0.0
H1863 H 0.61844 1.00508 0.92158 0.0
C1864 C 0.64874 0.97726 0.94858 0.0
C1865 C 0.62446 0.97053 0.95383 0.0
C1866 C 0.65089 0.9717 0.93835 0.0
C1867 C 0.62886 0.95926 0.9332 0.0
C1868 C 0.60464 0.95232 0.93843 0.0
H1869 H 0.67899 0.86485 0.88167 0.0
H1870 H 0.64293 0.89221 0.88949 0.0
C1871 C 0.60234 0.95816 0.94866 0.0
C1872 C 0.63284 0.95046 0.9227 0.0
H1873 H 0.65495 0.9743 0.89998 0.0
C1874 C 0.63463 0.92205 0.92083 0.0
C1875 C 0.63885 0.96952 0.91496 0.0
C1876 C 0.63607 1.00029 0.91653 0.0
C1877 C 0.64522 0.91207 0.91175 0.0
C1878 C 0.65319 0.93123 0.90416 0.0
C1879 C 0.64886 0.95965 0.90575 0.0
C1880 C 0.67108 0.92255 0.89568 0.0
C1881 C 0.65031 0.88128 0.91087 0.0
C1882 C 0.69806 0.9332 0.89513 0.0
C1883 C 0.71866 0.91841 0.89016 0.0
C1884 C 0.7127 0.89227 0.88605 0.0
C1885 C 0.68474 0.88447 0.88498 0.0
C1886 C 0.66396 0.89992 0.88962 0.0
H1887 H 0.64702 0.87026 0.91809 0.0
H1888 H 0.63583 0.87223 0.90532 0.0
H1889 H 0.6718 0.87718 0.90836 0.0
H1890 H 0.70397 0.95123 0.89947 0.0
H1891 H 0.73974 0.92587 0.89063 0.0
H1892 H 0.36775 0.42702 0.21252 0.0
H1893 H 0.37358 0.43389 0.19456 0.0
H1894 H 0.38385 0.34596 0.19042 0.0
H1895 H 0.37837 0.33887 0.20855 0.0
H1896 H 0.42291 0.3757 0.18083 0.0
H1897 H 0.32133 0.4194 0.17148 0.0
H1898 H 0.33553 0.43737 0.18204 0.0
H1899 H 0.32754 0.401 0.18306 0.0
C1900 C 0.37131 0.40911 0.20781 0.0
C1901 C 0.37268 0.38242 0.21194 0.0
C1902 C 0.37417 0.41302 0.19752 0.0
C1903 C 0.37819 0.39033 0.19112 0.0
C1904 C 0.3802 0.36366 0.19522 0.0
H1905 H 0.4533 0.43857 0.13394 0.0
H1906 H 0.42131 0.40816 0.14306 0.0
C1907 C 0.37735 0.35971 0.20557 0.0
C1908 C 0.38308 0.39532 0.18033 0.0
H1909 H 0.36056 0.4367 0.16133 0.0
C1910 C 0.40892 0.38815 0.17636 0.0
C1911 C 0.36455 0.41109 0.17447 0.0
C1912 C 0.33557 0.41735 0.17796 0.0
C1913 C 0.41817 0.39941 0.16727 0.0
C1914 C 0.40089 0.41806 0.16202 0.0
C1915 C 0.37382 0.42257 0.16541 0.0
C1916 C 0.41292 0.43786 0.1548 0.0
C1917 C 0.44743 0.39366 0.16392 0.0
C1918 C 0.41712 0.46514 0.15802 0.0
C1919 C 0.43549 0.48238 0.15294 0.0
C1920 C 0.44991 0.47264 0.14449 0.0
C1921 C 0.44307 0.44641 0.14059 0.0
C1922 C 0.4247 0.42906 0.14574 0.0
H1923 H 0.45855 0.37975 0.16918 0.0
H1924 H 0.44719 0.38373 0.15642 0.0
H1925 H 0.45923 0.41333 0.16329 0.0
H1926 H 0.40819 0.47231 0.16501 0.0
H1927 H 0.44023 0.5023 0.15624 0.0
H1928 H 1.02468 0.13343 0.45231 0.0
H1929 H 1.02286 0.14448 0.43436 0.0
H1930 H 0.93431 0.13428 0.4348 0.0
H1931 H 0.93584 0.1232 0.45268 0.0
H1932 H 0.96991 0.10565 0.41782 0.0
H1933 H 0.98495 0.2191 0.42353 0.0
H1934 H 1.00661 0.19415 0.42977 0.0
H1935 H 0.97136 0.19824 0.43364 0.0
C1936 C 1.0048 0.13367 0.44858 0.0
C1937 C 0.98033 0.12764 0.45389 0.0
C1938 C 1.00389 0.13979 0.43834 0.0
C1939 C 0.97852 0.13988 0.43331 0.0
C1940 C 0.95411 0.134 0.43859 0.0
H1941 H 0.86265 0.16953 0.39692 0.0
H1942 H 0.90213 0.14312 0.4025 0.0
C1943 C 0.95497 0.12798 0.44881 0.0
C1944 C 0.97657 0.14767 0.42267 0.0
H1945 H 0.96303 0.20488 0.4088 0.0
C1946 C 0.9692 0.12729 0.41567 0.0
C1947 C 0.97667 0.17576 0.41982 0.0
C1948 C 0.98536 0.19823 0.42703 0.0
C1949 C 0.9587 0.13463 0.40624 0.0
C1950 C 0.95456 0.16294 0.40402 0.0
C1951 C 0.96568 0.18309 0.41049 0.0
C1952 C 0.93284 0.17219 0.39693 0.0
C1953 C 0.95049 0.11198 0.39906 0.0
C1954 C 0.93664 0.19654 0.39133 0.0
C1955 C 0.91382 0.21231 0.38848 0.0
C1956 C 0.88692 0.20364 0.39105 0.0
C1957 C 0.88316 0.17707 0.39509 0.0
C1958 C 0.90593 0.16162 0.39812 0.0
H1959 H 0.9665 0.09555 0.39897 0.0
H1960 H 0.93096 0.10223 0.40167 0.0
H1961 H 0.94763 0.11989 0.39131 0.0
H1962 H 0.95717 0.20504 0.39024 0.0
H1963 H 0.91755 0.23263 0.38531 0.0
H1964 H 0.17968 0.61625 0.64937 0.0
H1965 H 0.20234 0.65265 0.65889 0.0
H1966 H 0.14702 0.71307 0.6462 0.0
H1967 H 0.12247 0.6764 0.63739 0.0
H1968 H 0.22593 0.70285 0.65893 0.0
H1969 H 0.11866 0.71038 0.67431 0.0
H1970 H 0.12762 0.68478 0.66509 0.0
H1971 H 0.12366 0.72048 0.6615 0.0
C1972 C 0.17258 0.63734 0.64846 0.0
C1973 C 0.14835 0.64312 0.64306 0.0
C1974 C 0.18581 0.65826 0.65381 0.0
C1975 C 0.17541 0.68535 0.65364 0.0
C1976 C 0.15458 0.69205 0.64676 0.0
H1977 H 0.19669 0.76656 0.71226 0.0
H1978 H 0.18838 0.76609 0.69409 0.0
C1979 C 0.14078 0.67099 0.64161 0.0
C1980 C 0.18227 0.70394 0.66211 0.0
H1981 H 0.15444 0.72579 0.68429 0.0
C1982 C 0.21024 0.70864 0.66435 0.0
C1983 C 0.16172 0.71163 0.66921 0.0
C1984 C 0.13126 0.7065 0.66748 0.0
C1985 C 0.21833 0.71817 0.67384 0.0
C1986 C 0.19789 0.72324 0.68118 0.0
C1987 C 0.16994 0.72167 0.67859 0.0
C1988 C 0.20473 0.7249 0.69193 0.0
C1989 C 0.24868 0.72101 0.67618 0.0
C1990 C 0.21579 0.70155 0.69669 0.0
C1991 C 0.21994 0.7015 0.70703 0.0
C1992 C 0.2132 0.72487 0.71276 0.0
C1993 C 0.20195 0.74823 0.708 0.0
C1994 C 0.19748 0.74813 0.69764 0.0
H1995 H 0.2609 0.72515 0.66927 0.0
H1996 H 0.25243 0.7379 0.68166 0.0
H1997 H 0.25624 0.70136 0.67949 0.0
H1998 H 0.22079 0.68314 0.69243 0.0
H1999 H 0.22889 0.68331 0.71048 0.0
H2000 H 0.57947 0.14397 0.66805 0.0
H2001 H 0.5848 0.1561 0.68582 0.0
H2002 H 0.66988 0.12995 0.6848 0.0
H2003 H 0.66482 0.11778 0.66711 0.0
H2004 H 0.63372 0.11059 0.70253 0.0
H2005 H 0.63502 0.22411 0.69471 0.0
H2006 H 0.608 0.20292 0.68946 0.0
H2007 H 0.64276 0.19928 0.685 0.0
C2008 C 0.59934 0.14093 0.67162 0.0
C2009 C 0.62184 0.13022 0.66618 0.0
C2010 C 0.60226 0.14769 0.68175 0.0
C2011 C 0.62766 0.14373 0.68657 0.0
C2012 C 0.65006 0.13291 0.68119 0.0
H2013 H 0.73743 0.17142 0.73041 0.0
H2014 H 0.70136 0.1464 0.72163 0.0
C2015 C 0.64722 0.12629 0.67106 0.0
C2016 C 0.63187 0.15249 0.69705 0.0
H2017 H 0.64892 0.20961 0.71055 0.0
C2018 C 0.63647 0.13227 0.70442 0.0
C2019 C 0.63487 0.18074 0.69947 0.0
C2020 C 0.63001 0.20316 0.69179 0.0
C2021 C 0.64585 0.13959 0.71402 0.0
C2022 C 0.65152 0.16772 0.71615 0.0
C2023 C 0.64462 0.188 0.709 0.0
C2024 C 0.66927 0.17653 0.72465 0.0
C2025 C 0.65037 0.11701 0.72165 0.0
C2026 C 0.66307 0.20094 0.72989 0.0
C2027 C 0.68411 0.21598 0.73455 0.0
C2028 C 0.71162 0.20655 0.73417 0.0
C2029 C 0.71667 0.17973 0.73052 0.0
C2030 C 0.69579 0.16507 0.72562 0.0
H2031 H 0.63411 0.10084 0.72097 0.0
H2032 H 0.67053 0.10689 0.72017 0.0
H2033 H 0.65028 0.12516 0.72944 0.0
H2034 H 0.64268 0.21004 0.72936 0.0
H2035 H 0.67917 0.23641 0.73734 0.0
H2036 H 0.21554 0.42252 0.90836 0.0
H2037 H 0.17398 0.44509 0.91469 0.0
H2038 H 0.12384 0.37865 0.90295 0.0
H2039 H 0.16573 0.35548 0.89677 0.0
H2040 H 0.12954 0.45878 0.89942 0.0
H2041 H 0.09409 0.39722 0.93247 0.0
H2042 H 0.13013 0.39704 0.92893 0.0
H2043 H 0.10511 0.38046 0.92105 0.0
C2044 C 0.19577 0.41223 0.90746 0.0
C2045 C 0.19373 0.38737 0.9021 0.0
C2046 C 0.17207 0.42522 0.91098 0.0
C2047 C 0.14597 0.41367 0.90914 0.0
C2048 C 0.14389 0.3878 0.90443 0.0
H2049 H 1.02676 0.50968 0.94206 0.0
H2050 H 1.03587 0.48037 0.92747 0.0
C2051 C 0.16779 0.37452 0.901 0.0
C2052 C 0.12139 0.43034 0.91154 0.0
H2053 H 0.07764 0.4428 0.93098 0.0
C2054 C 0.11746 0.45498 0.90615 0.0
C2055 C 0.10537 0.42497 0.92017 0.0
C2056 C 0.10867 0.3985 0.92603 0.0
C2057 C 0.10014 0.47582 0.90983 0.0
C2058 C 0.0868 0.47186 0.91914 0.0
C2059 C 0.08806 0.44586 0.92385 0.0
C2060 C 0.07752 0.49554 0.92526 0.0
C2061 C 0.09789 0.50265 0.90412 0.0
C2062 C 0.09738 0.51489 0.92845 0.0
C2063 C 0.09231 0.5315 0.93679 0.0
C2064 C 0.06729 0.52901 0.94203 0.0
C2065 C 1.04619 0.5121 0.9381 0.0
C2066 C 0.05137 0.49526 0.9298 0.0
H2067 H 0.09963 0.49901 0.89591 0.0
H2068 H 0.07803 0.51326 0.90571 0.0
H2069 H 0.11511 0.51655 0.90634 0.0
H2070 H 0.11787 0.51513 0.92516 0.0
H2071 H 0.10883 0.54438 0.93968 0.0
H2072 H 1.01777 0.96365 0.17029 0.0
H2073 H 1.01679 0.95503 0.18842 0.0
H2074 H 0.92801 0.96253 0.18831 0.0
H2075 H 0.9287 0.97112 0.17025 0.0
H2076 H 0.96299 0.99445 0.20457 0.0
H2077 H 0.98132 0.88096 0.20072 0.0
H2078 H 1.00235 0.90572 0.19403 0.0
H2079 H 0.96717 0.90019 0.19033 0.0
C2080 C 0.99802 0.96328 0.17412 0.0
C2081 C 0.97325 0.96788 0.16886 0.0
C2082 C 0.99758 0.95858 0.18447 0.0
C2083 C 0.97239 0.95851 0.18965 0.0
C2084 C 0.94767 0.96287 0.1844 0.0
H2085 H 0.85937 0.92818 0.2273 0.0
H2086 H 0.89737 0.95639 0.22136 0.0
C2087 C 0.94807 0.96744 0.17409 0.0
C2088 C 0.97096 0.95211 0.20043 0.0
H2089 H 0.96009 0.89639 0.21539 0.0
C2090 C 0.96314 0.97311 0.20711 0.0
C2091 C 0.97214 0.92447 0.20376 0.0
C2092 C 0.98122 0.90139 0.19689 0.0
C2093 C 0.95335 0.96667 0.21674 0.0
C2094 C 0.95041 0.93856 0.21952 0.0
C2095 C 0.96188 0.91801 0.2133 0.0
C2096 C 0.92957 0.92934 0.22701 0.0
C2097 C 0.94469 0.98993 0.22357 0.0
C2098 C 0.93465 0.90578 0.23289 0.0
C2099 C 0.91271 0.88886 0.2359 0.0
C2100 C 0.88541 0.89569 0.23325 0.0
C2101 C 0.88025 0.92192 0.22913 0.0
C2102 C 0.90216 0.93845 0.22589 0.0
H2103 H 0.96009 1.007 0.22323 0.0
H2104 H 0.9247 0.9985 0.22096 0.0
H2105 H 0.9425 0.98301 0.23148 0.0
H2106 H 0.95559 0.8985 0.23398 0.0
H2107 H 0.91757 0.86895 0.23918 0.0
H2108 H 0.42894 0.59971 0.46539 0.0
H2109 H 0.39968 0.63233 0.45676 0.0
H2110 H 0.41629 0.69395 0.47936 0.0
H2111 H 0.44538 0.66081 0.48837 0.0
H2112 H 0.35532 0.67156 0.46001 0.0
H2113 H 0.45875 0.72069 0.45403 0.0
H2114 H 0.45605 0.68697 0.45974 0.0
H2115 H 0.44519 0.71712 0.46654 0.0
C2116 C 0.42544 0.61961 0.46888 0.0
C2117 C 0.44027 0.62784 0.47744 0.0
C2118 C 0.40865 0.63839 0.46388 0.0
C2119 C 0.40649 0.66573 0.46729 0.0
C2120 C 0.4182 0.67304 0.47652 0.0
H2121 H 0.3868 0.76296 0.41221 0.0
H2122 H 0.38977 0.75759 0.43049 0.0
C2123 C 0.43492 0.65411 0.48162 0.0
C2124 C 0.39718 0.6868 0.46003 0.0
H2125 H 0.42586 0.72602 0.44144 0.0
C2126 C 0.37039 0.6844 0.45615 0.0
C2127 C 0.41681 0.70379 0.45507 0.0
C2128 C 0.44585 0.70743 0.459 0.0
C2129 C 0.36372 0.69587 0.44681 0.0
C2130 C 0.38454 0.70953 0.44122 0.0
C2131 C 0.41013 0.71508 0.4457 0.0
C2132 C 0.38205 0.71348 0.43028 0.0
C2133 C 0.33509 0.69142 0.44268 0.0
C2134 C 0.37787 0.69027 0.42413 0.0
C2135 C 0.37649 0.69317 0.41375 0.0
C2136 C 0.37943 0.71934 0.40931 0.0
C2137 C 0.38452 0.7425 0.41544 0.0
C2138 C 0.38596 0.73955 0.42587 0.0
H2139 H 0.31956 0.69086 0.44882 0.0
H2140 H 0.32932 0.70789 0.43726 0.0
H2141 H 0.33434 0.67115 0.43878 0.0
H2142 H 0.37578 0.6698 0.42737 0.0
H2143 H 0.37255 0.67495 0.40924 0.0
H2144 H 0.36997 0.16977 0.23595 0.0
H2145 H 0.3984 0.13968 0.22532 0.0
H2146 H 0.44331 0.21146 0.21477 0.0
H2147 H 0.41666 0.24069 0.22579 0.0
H2148 H 0.39459 0.13921 0.20714 0.0
H2149 H 0.50416 0.16027 0.21265 0.0
H2150 H 0.47907 0.17074 0.22192 0.0
H2151 H 0.48865 0.19367 0.21174 0.0
C2152 C 0.38688 0.17873 0.2317 0.0
C2153 C 0.39123 0.20746 0.2317 0.0
C2154 C 0.40304 0.16161 0.2256 0.0
C2155 C 0.42329 0.17311 0.21923 0.0
C2156 C 0.42873 0.20164 0.21981 0.0
H2157 H 0.42678 0.15284 0.15736 0.0
H2158 H 0.41817 0.15955 0.17526 0.0
C2159 C 0.4132 0.21854 0.22609 0.0
C2160 C 0.43445 0.15715 0.21059 0.0
H2161 H 0.48936 0.15731 0.19453 0.0
C2162 C 0.41564 0.14244 0.20457 0.0
C2163 C 0.46209 0.16019 0.20724 0.0
C2164 C 0.48459 0.1718 0.21384 0.0
C2165 C 0.42283 0.13356 0.19493 0.0
C2166 C 0.44898 0.14095 0.19097 0.0
C2167 C 0.46882 0.15275 0.19736 0.0
C2168 C 0.45531 0.13838 0.18011 0.0
C2169 C 0.40198 0.11691 0.18903 0.0
C2170 C 0.48004 0.12621 0.17685 0.0
C2171 C 0.48552 0.12349 0.1666 0.0
C2172 C 0.46615 0.13254 0.15948 0.0
C2173 C 0.4419 0.14554 0.16273 0.0
C2174 C 0.4368 0.14893 0.17295 0.0
H2175 H 0.3894 0.10365 0.19411 0.0
H2176 H 0.38757 0.13119 0.18516 0.0
H2177 H 0.41208 0.10347 0.18336 0.0
H2178 H 0.4948 0.11821 0.18221 0.0
H2179 H 0.50432 0.11318 0.16428 0.0
H2180 H 0.67968 0.593 0.97404 0.0
H2181 H 0.7113 0.62854 0.96838 0.0
H2182 H 0.66331 0.69051 0.98385 0.0
H2183 H 0.63017 0.65527 0.98876 0.0
H2184 H 0.65723 0.69771 0.96547 0.0
H2185 H 0.76853 0.68553 0.96962 0.0
H2186 H 0.7558 0.65157 0.96697 0.0
H2187 H 0.74486 0.6691 0.97829 0.0
C2188 C 0.67635 0.61406 0.97654 0.0
C2189 C 0.6516 0.62148 0.98133 0.0
C2190 C 0.69491 0.63449 0.97347 0.0
C2191 C 0.68934 0.66252 0.97543 0.0
C2192 C 0.66777 0.6691 0.98207 0.0
H2193 H 0.71305 0.75825 0.91981 0.0
H2194 H 0.70922 0.75378 0.93806 0.0
C2195 C 0.64875 0.64875 0.9849 0.0
C2196 C 0.69893 0.68344 0.96803 0.0
H2197 H 0.75215 0.69322 0.95161 0.0
C2198 C 0.67831 0.69774 0.9627 0.0
C2199 C 0.72639 0.684 0.96438 0.0
C2200 C 0.75008 0.6719 0.97024 0.0
C2201 C 0.68348 0.70878 0.95318 0.0
C2202 C 0.71007 0.70578 0.94897 0.0
C2203 C 0.73157 0.69483 0.95479 0.0
C2204 C 0.71445 0.70934 0.9381 0.0
C2205 C 0.65976 0.72084 0.94728 0.0
C2206 C 0.71866 0.6858 0.93214 0.0
C2207 C 0.72072 0.68821 0.92175 0.0
C2208 C 0.71862 0.71425 0.91715 0.0
C2209 C 0.71439 0.73784 0.92314 0.0
C2210 C 0.71241 0.7354 0.93356 0.0
H2211 H 0.6398 0.71945 0.95138 0.0
H2212 H 0.66401 0.74297 0.94566 0.0
H2213 H 0.65754 0.70991 0.93999 0.0
H2214 H 0.72 0.66547 0.93554 0.0
H2215 H 0.72431 0.66973 0.91734 0.0
H2216 H 0.18456 0.89921 0.74012 0.0
H2217 H 0.15728 0.92782 0.72864 0.0
H2218 H 0.2286 0.93783 0.70954 0.0
H2219 H 0.25564 0.90935 0.72071 0.0
H2220 H 0.19215 0.9836 0.70908 0.0
H2221 H 0.13859 0.88219 0.70347 0.0
H2222 H 0.13728 0.89778 0.71569 0.0
H2223 H 0.1695 0.88488 0.71093 0.0
C2224 C 0.19462 0.90822 0.73362 0.0
C2225 C 0.22209 0.9013 0.7312 0.0
C2226 C 0.17901 0.92458 0.7271 0.0
C2227 C 0.19077 0.93418 0.71812 0.0
C2228 C 0.21909 0.93046 0.71641 0.0
H2229 H 0.18516 0.96505 0.65749 0.0
H2230 H 0.19285 0.95948 0.67547 0.0
C2231 C 0.23463 0.91416 0.72288 0.0
C2232 C 0.17351 0.94309 0.70959 0.0
H2233 H 0.135 0.91488 0.69073 0.0
C2234 C 0.17898 0.96892 0.70519 0.0
C2235 C 0.15632 0.92384 0.70454 0.0
C2236 C 0.15005 0.89555 0.70883 0.0
C2237 C 0.16943 0.97518 0.69553 0.0
C2238 C 0.15444 0.95491 0.69015 0.0
C2239 C 0.14679 0.93018 0.69489 0.0
C2240 C 0.14937 0.95754 0.67928 0.0
C2241 C 0.17652 1.00295 0.69101 0.0
C2242 C 0.12243 0.95666 0.67544 0.0
C2243 C 0.11797 0.95946 0.66514 0.0
C2244 C 0.14044 0.96297 0.65854 0.0
C2245 C 0.16744 0.96241 0.66238 0.0
C2246 C 0.17185 0.95967 0.67266 0.0
H2247 H 0.1795 1.01889 0.69691 0.0
H2248 H 0.19616 1.00121 0.68675 0.0
H2249 H 0.16014 1.01003 0.68578 0.0
H2250 H 0.10488 0.9545 0.68044 0.0
H2251 H 0.09691 0.95981 0.6624 0.0
H2252 H 0.93286 0.50982 0.47275 0.0
H2253 H 0.89865 0.48055 0.46516 0.0
H2254 H 0.91566 0.41637 0.48675 0.0
H2255 H 0.94975 0.44637 0.49482 0.0
H2256 H 0.93131 0.40235 0.46807 0.0
H2257 H 0.82533 0.44179 0.46564 0.0
H2258 H 0.84872 0.47006 0.46368 0.0
H2259 H 0.84858 0.45217 0.47557 0.0
C2260 C 0.92842 0.49026 0.47637 0.0
C2261 C 0.94501 0.48019 0.48422 0.0
C2262 C 0.90853 0.47336 0.47196 0.0
C2263 C 0.90476 0.44607 0.47529 0.0
C2264 C 0.91838 0.43732 0.48402 0.0
H2265 H 0.87142 0.33935 0.42283 0.0
H2266 H 0.87611 0.34926 0.44077 0.0
C2267 C 0.9381 0.45444 0.48855 0.0
C2268 C 0.89339 0.4257 0.4681 0.0
H2269 H 0.84461 0.42236 0.44974 0.0
C2270 C 0.9118 0.40583 0.46429 0.0
C2271 C 0.86794 0.43011 0.46319 0.0
C2272 C 0.84646 0.44953 0.46733 0.0
C2273 C 0.90711 0.39309 0.455 0.0
C2274 C 0.88318 0.40015 0.44952 0.0
C2275 C 0.86323 0.41743 0.45389 0.0
C2276 C 0.88061 0.39346 0.43876 0.0
C2277 C 0.92901 0.37439 0.45066 0.0
C2278 C 0.88189 0.41503 0.43172 0.0
C2279 C 0.8793 0.4095 0.42151 0.0
C2280 C 0.87531 0.38226 0.41814 0.0
C2281 C 0.87474 0.36055 0.42519 0.0
C2282 C 0.87728 0.36614 0.43544 0.0
H2283 H 0.94762 0.37314 0.45551 0.0
H2284 H 0.92046 0.35321 0.44976 0.0
H2285 H 0.93541 0.38188 0.44312 0.0
H2286 H 0.8847 0.43625 0.43416 0.0
H2287 H 0.87968 0.42667 0.41628 0.0
H2288 H 0.51113 0.95796 0.45925 0.0
H2289 H 0.50734 0.94357 0.4417 0.0
H2290 H 0.41892 0.93649 0.44499 0.0
H2291 H 0.42245 0.9507 0.46253 0.0
H2292 H 0.4457 0.89113 0.43518 0.0
H2293 H 0.47462 0.99359 0.41902 0.0
H2294 H 0.49748 0.97863 0.42817 0.0
H2295 H 0.46361 0.9896 0.4319 0.0
C2296 C 0.49089 0.95308 0.45627 0.0
C2297 C 0.46703 0.95554 0.46226 0.0
C2298 C 0.48879 0.9451 0.44623 0.0
C2299 C 0.46283 0.9395 0.44205 0.0
C2300 C 0.43912 0.94096 0.4481 0.0
H2301 H 0.37373 0.92722 0.39001 0.0
H2302 H 0.40502 0.94631 0.40256 0.0
C2303 C 0.44118 0.94897 0.45812 0.0
C2304 C 0.45999 0.93195 0.43138 0.0
H2305 H 0.46079 0.9589 0.40769 0.0
C2306 C 0.44945 0.9057 0.42912 0.0
C2307 C 0.46483 0.95122 0.42358 0.0
C2308 C 0.47561 0.97994 0.42572 0.0
C2309 C 0.44226 0.89853 0.4193 0.0
C2310 C 0.44644 0.91802 0.41148 0.0
C2311 C 0.45807 0.94393 0.41368 0.0
C2312 C 0.43469 0.91304 0.40141 0.0
C2313 C 0.42849 0.87083 0.41753 0.0
C2314 C 0.44254 0.88968 0.39589 0.0
C2315 C 0.42431 0.87826 0.38891 0.0
C2316 C 0.39824 0.89044 0.3873 0.0
C2317 C 0.39313 0.91677 0.3914 0.0
C2318 C 0.41114 0.92786 0.39852 0.0
H2319 H 0.42266 0.86037 0.42466 0.0
H2320 H 0.40955 0.87331 0.41293 0.0
H2321 H 0.44289 0.85705 0.41343 0.0
H2322 H 0.46108 0.87839 0.39785 0.0
H2323 H 0.42931 0.85815 0.38583 0.0
H2324 H 0.89268 0.67466 0.20435 0.0
H2325 H 0.89463 0.66644 0.18632 0.0
H2326 H 0.87808 0.75269 0.18069 0.0
H2327 H 0.87611 0.76127 0.19883 0.0
H2328 H 0.84588 0.68237 0.17251 0.0
H2329 H 0.94826 0.72893 0.16297 0.0
H2330 H 0.94166 0.71681 0.17556 0.0
H2331 H 0.92406 0.74682 0.17096 0.0
C2332 C 0.88998 0.69204 0.19931 0.0
C2333 C 0.88421 0.71859 0.20302 0.0
C2334 C 0.89087 0.68726 0.18902 0.0
C2335 C 0.88615 0.70891 0.18224 0.0
C2336 C 0.88168 0.73575 0.18585 0.0
H2337 H 0.94227 0.64627 0.12589 0.0
H2338 H 0.91126 0.67959 0.13383 0.0
C2339 C 0.88078 0.7406 0.1962 0.0
C2340 C 0.88555 0.70255 0.17143 0.0
H2341 H 0.92991 0.69621 0.15178 0.0
C2342 C 0.86382 0.6861 0.1678 0.0
C2343 C 0.90858 0.70808 0.16525 0.0
C2344 C 0.93206 0.72616 0.1688 0.0
C2345 C 0.86606 0.67238 0.15857 0.0
C2346 C 0.89087 0.67477 0.15303 0.0
C2347 C 0.91092 0.69417 0.15606 0.0
C2348 C 0.90003 0.6526 0.14613 0.0
C2349 C 0.8428 0.65372 0.15525 0.0
C2350 C 0.9025 0.62574 0.15001 0.0
C2351 C 0.9207 0.60696 0.14568 0.0
C2352 C 0.93688 0.61467 0.13734 0.0
C2353 C 0.93101 0.64 0.13254 0.0
C2354 C 0.91301 0.65902 0.137 0.0
H2355 H 0.82251 0.66305 0.15717 0.0
H2356 H 0.84356 0.64971 0.14705 0.0
H2357 H 0.8442 0.6337 0.15929 0.0
H2358 H 0.89309 0.62031 0.15713 0.0
H2359 H 0.92435 0.58784 0.14968 0.0
H2360 H 0.18296 0.19514 0.88267 0.0
H2361 H 0.15341 0.16599 0.89328 0.0
H2362 H 0.21996 0.1573 0.91449 0.0
H2363 H 0.2491 0.18663 0.90427 0.0
H2364 H 0.1839 0.10956 0.91302 0.0
H2365 H 0.12819 0.20957 0.91852 0.0
H2366 H 0.13054 0.1952 0.9061 0.0
H2367 H 0.16101 0.20842 0.91211 0.0
C2368 C 0.19151 0.18647 0.88948 0.0
C2369 C 0.21824 0.19393 0.89272 0.0
C2370 C 0.17461 0.16972 0.8955 0.0
C2371 C 0.18436 0.1601 0.90476 0.0
C2372 C 0.21203 0.16461 0.90737 0.0
H2373 H 0.17287 0.12504 0.96422 0.0
H2374 H 0.18103 0.13018 0.94628 0.0
C2375 C 0.22881 0.1814 0.90144 0.0
C2376 C 0.16536 0.15002 0.91265 0.0
H2377 H 0.12384 0.17621 0.93103 0.0
C2378 C 0.17005 0.12376 0.9168 0.0
C2379 C 0.14713 0.16855 0.91754 0.0
C2380 C 0.14133 0.19707 0.91341 0.0
C2381 C 0.1589 0.1165 0.92616 0.0
C2382 C 0.14327 0.13627 0.93153 0.0
C2383 C 0.13618 0.16131 0.92692 0.0
C2384 C 0.13771 0.13315 0.94238 0.0
C2385 C 0.1651 0.08827 0.93043 0.0
C2386 C 0.11073 0.13467 0.94619 0.0
C2387 C 0.10598 0.13199 0.95649 0.0
C2388 C 0.12824 0.12819 0.96313 0.0
C2389 C 0.15529 0.12792 0.95931 0.0
C2390 C 0.15996 0.13041 0.94904 0.0
H2391 H 0.16802 0.0728 0.92436 0.0
H2392 H 0.18457 0.08928 0.93481 0.0
H2393 H 0.14828 0.08104 0.93549 0.0
H2394 H 0.09338 0.13746 0.94118 0.0
H2395 H 0.08487 0.13218 0.95921 0.0
H2396 H 0.67366 0.50362 0.64616 0.0
H2397 H 0.7041 0.46808 0.65255 0.0
H2398 H 0.6527 0.40502 0.63916 0.0
H2399 H 0.62093 0.44042 0.63344 0.0
H2400 H 0.64921 0.40119 0.65798 0.0
H2401 H 0.75999 0.4096 0.65056 0.0
H2402 H 0.7482 0.444 0.65295 0.0
H2403 H 0.73495 0.42518 0.64226 0.0
C2404 C 0.66932 0.48224 0.64428 0.0
C2405 C 0.64423 0.47483 0.63972 0.0
C2406 C 0.68714 0.4618 0.64778 0.0
C2407 C 0.68049 0.43368 0.64652 0.0
C2408 C 0.6581 0.42655 0.64033 0.0
H2409 H 0.71308 0.33893 0.7018 0.0
H2410 H 0.70506 0.34361 0.68374 0.0
C2411 C 0.63992 0.44697 0.63703 0.0
C2412 C 0.69078 0.41355 0.65403 0.0
H2413 H 0.74711 0.40255 0.66881 0.0
C2414 C 0.67082 0.40047 0.6601 0.0
C2415 C 0.71891 0.41227 0.65683 0.0
C2416 C 0.74164 0.42333 0.65019 0.0
C2417 C 0.6777 0.38962 0.6695 0.0
C2418 C 0.70531 0.3916 0.67282 0.0
C2419 C 0.72581 0.40162 0.66629 0.0
C2420 C 0.71218 0.38782 0.6835 0.0
C2421 C 0.65495 0.37873 0.67621 0.0
C2422 C 0.71889 0.41114 0.68927 0.0
C2423 C 0.72333 0.40861 0.69955 0.0
C2424 C 0.72116 0.38266 0.70423 0.0
C2425 C 0.71455 0.35926 0.69841 0.0
C2426 C 0.71015 0.36183 0.6881 0.0
H2427 H 0.63416 0.38095 0.67277 0.0
H2428 H 0.65847 0.35645 0.67775 0.0
H2429 H 0.65506 0.38984 0.6835 0.0
H2430 H 0.72029 0.43142 0.68582 0.0
H2431 H 0.7287 0.42694 0.70381 0.0
H2432 H 0.13836 0.21495 0.38469 0.0
H2433 H 0.09153 0.23301 0.38404 0.0
H2434 H 0.12393 0.31606 0.38335 0.0
H2435 H 0.17145 0.29762 0.38357 0.0
H2436 H 0.05781 0.25781 0.39446 0.0
H2437 H 0.06857 0.33196 0.36326 0.0
H2438 H 0.09575 0.30809 0.36638 0.0
H2439 H 0.09185 0.33996 0.37329 0.0
C2440 C 0.13592 0.23719 0.38424 0.0
C2441 C 0.15982 0.25439 0.38404 0.0
C2442 C 0.10844 0.24773 0.38393 0.0
C2443 C 0.10258 0.27639 0.38346 0.0
C2444 C 0.12652 0.29385 0.38334 0.0
H2445 H 0.94896 0.37874 0.38575 0.0
H2446 H 0.99511 0.35923 0.38513 0.0
C2447 C 0.15431 0.28318 0.38353 0.0
C2448 C 0.07186 0.28711 0.38337 0.0
H2449 H 1.02695 0.33441 0.3726 0.0
C2450 C 0.05139 0.27447 0.38956 0.0
C2451 C 0.06183 0.30892 0.37708 0.0
C2452 C 0.08053 0.32284 0.36955 0.0
C2453 C 1.02288 0.28296 0.38982 0.0
C2454 C 1.01302 0.30503 0.38364 0.0
C2455 C 1.03341 0.31762 0.37744 0.0
C2456 C 0.98264 0.31643 0.38382 0.0
C2457 C 1.00371 0.2685 0.39706 0.0
C2458 C 0.95824 0.29974 0.38315 0.0
C2459 C 0.93075 0.31125 0.38344 0.0
C2460 C 0.92616 0.34014 0.38443 0.0
C2461 C 0.95061 0.3565 0.38496 0.0
C2462 C 0.97771 0.34516 0.3846 0.0
H2463 H 1.01526 0.25774 0.4031 0.0
H2464 H 0.98914 0.28335 0.40057 0.0
H2465 H 0.99149 0.2527 0.39295 0.0
H2466 H 0.96028 0.27758 0.3823 0.0
H2467 H 0.91315 0.2974 0.38303 0.0
H2468 H 0.97677 0.70311 0.62307 0.0
H2469 H 0.99581 0.74964 0.62264 0.0
H2470 H 0.07713 0.71673 0.62777 0.0
H2471 H 0.05783 0.66928 0.62796 0.0
H2472 H 1.01658 0.78365 0.63464 0.0
H2473 H 0.10168 0.77004 0.60749 0.0
H2474 H 0.07623 0.74336 0.60962 0.0
H2475 H 0.10481 0.74763 0.61815 0.0
C2476 C 0.99891 0.70529 0.62395 0.0
C2477 C 1.01538 0.68127 0.62538 0.0
C2478 C 1.00996 0.73261 0.62378 0.0
C2479 C 1.03843 0.7382 0.62504 0.0
C2480 C 0.05524 0.71419 0.62644 0.0
H2481 H 0.13929 0.89349 0.62882 0.0
H2482 H 0.12044 0.84691 0.62842 0.0
C2483 C 1.04406 0.68648 0.62656 0.0
C2484 C 0.04939 0.76885 0.62514 0.0
H2485 H 0.09995 0.81306 0.61591 0.0
C2486 C 1.0348 0.78977 0.63045 0.0
C2487 C 0.07324 0.77835 0.61979 0.0
C2488 C 0.08978 0.7588 0.61336 0.0
C2489 C 1.04322 0.81835 0.63073 0.0
C2490 C 0.06708 0.82783 0.62537 0.0
C2491 C 0.08169 0.80693 0.62008 0.0
C2492 C 0.0781 0.85843 0.62552 0.0
C2493 C 1.02669 0.83797 0.63714 0.0
C2494 C 0.06143 0.88244 0.62395 0.0
C2495 C 0.07254 0.91017 0.62416 0.0
C2496 C 0.101 0.9154 0.62592 0.0
C2497 C 0.11737 0.89133 0.62739 0.0
C2498 C 0.10642 0.86398 0.62715 0.0
H2499 H 1.01454 0.82678 0.64296 0.0
H2500 H 1.0403 0.85324 0.64094 0.0
H2501 H 1.0119 0.84937 0.63233 0.0
H2502 H 1.03965 0.8799 0.6224 0.0
H2503 H 0.05876 0.92745 0.62296 0.0
H2504 H 0.44955 0.87395 0.88054 0.0
H2505 H 0.49596 0.85486 0.87995 0.0
H2506 H 0.46323 0.77436 0.8872 0.0
H2507 H 0.41603 0.79364 0.88747 0.0
H2508 H 0.53119 0.83663 0.89162 0.0
H2509 H 0.51493 0.74519 0.86758 0.0
H2510 H 0.48844 0.77091 0.86924 0.0
H2511 H 0.49353 0.74429 0.87855 0.0
C2512 C 0.45176 0.85193 0.88182 0.0
C2513 C 0.42782 0.83569 0.88384 0.0
C2514 C 0.47902 0.84085 0.88156 0.0
C2515 C 0.48467 0.81257 0.88339 0.0
C2516 C 0.46071 0.79602 0.8854 0.0
H2517 H 0.63999 0.71248 0.8891 0.0
H2518 H 0.59339 0.73116 0.88851 0.0
C2519 C 0.43308 0.8072 0.88556 0.0
C2520 C 0.51531 0.80157 0.88347 0.0
H2521 H 0.55839 0.74846 0.87562 0.0
C2522 C 0.53679 0.81736 0.88801 0.0
C2523 C 0.52425 0.77634 0.87887 0.0
C2524 C 0.50419 0.75831 0.8732 0.0
C2525 C 0.5653 0.80889 0.88827 0.0
C2526 C 0.57418 0.78362 0.88371 0.0
C2527 C 0.55275 0.7678 0.87918 0.0
C2528 C 0.60472 0.77255 0.88391 0.0
C2529 C 0.58556 0.82702 0.89382 0.0
C2530 C 0.62861 0.78868 0.88144 0.0
C2531 C 0.65629 0.77767 0.88175 0.0
C2532 C 0.66164 0.74983 0.88453 0.0
C2533 C 0.6377 0.73392 0.88689 0.0
C2534 C 0.61036 0.74478 0.88654 0.0
H2535 H 0.57497 0.84075 0.89929 0.0
H2536 H 0.60102 0.81442 0.89792 0.0
H2537 H 0.59664 0.84039 0.88836 0.0
H2538 H 0.62601 0.80995 0.87911 0.0
H2539 H 0.67346 0.79108 0.87983 0.0
H2540 H 0.46606 0.20682 0.12557 0.0
H2541 H 0.48537 0.25311 0.12482 0.0
H2542 H 0.56743 0.21901 0.12524 0.0
H2543 H 0.54774 0.17171 0.12574 0.0
H2544 H 0.51097 0.28567 0.13599 0.0
H2545 H 0.58435 0.27408 0.10455 0.0
H2546 H 0.55969 0.2474 0.10766 0.0
H2547 H 0.5914 0.25063 0.11465 0.0
C2548 C 0.48836 0.20865 0.12537 0.0
C2549 C 0.50488 0.18434 0.1256 0.0
C2550 C 0.49959 0.23585 0.125 0.0
C2551 C 0.52833 0.24105 0.12484 0.0
C2552 C 0.5452 0.21678 0.12505 0.0
H2553 H 0.63163 0.39457 0.12602 0.0
H2554 H 0.61204 0.34836 0.12557 0.0
C2555 C 0.5338 0.18916 0.12537 0.0
C2556 C 0.53958 0.27156 0.12473 0.0
H2557 H 0.58654 0.31627 0.11352 0.0
C2558 C 0.52743 0.29206 0.13098 0.0
C2559 C 0.56118 0.2814 0.1183 0.0
C2560 C 0.57476 0.26236 0.11084 0.0
C2561 C 0.53617 0.32054 0.13115 0.0
C2562 C 0.55782 0.33033 0.12475 0.0
C2563 C 0.56999 0.30986 0.1185 0.0
C2564 C 0.56926 0.36074 0.12477 0.0
C2565 C 0.5225 0.3397 0.13856 0.0
C2566 C 0.55256 0.38509 0.1243 0.0
C2567 C 0.56411 0.41265 0.12452 0.0
C2568 C 0.59301 0.4173 0.1252 0.0
C2569 C 0.60936 0.39287 0.12548 0.0
C2570 C 0.59798 0.36573 0.12521 0.0
H2571 H 0.51234 0.32808 0.14475 0.0
H2572 H 0.53768 0.35434 0.14186 0.0
H2573 H 0.50634 0.35184 0.13465 0.0
H2574 H 0.53038 0.38297 0.1237 0.0
H2575 H 0.5503 0.43023 0.12434 0.0
H2576 H 0.92278 0.7944 0.23996 0.0
H2577 H 0.97043 0.81362 0.24065 0.0
H2578 H 1.00341 0.73238 0.23532 0.0
H2579 H 0.95704 0.71367 0.2344 0.0
H2580 H 1.01736 0.80875 0.25166 0.0
H2581 H 0.0484 0.7689 0.21468 0.0
H2582 H 1.013 0.76757 0.21887 0.0
H2583 H 1.0372 0.74122 0.22265 0.0
C2584 C 0.9401 0.78054 0.23894 0.0
C2585 C 0.93495 0.75205 0.23706 0.0
C2586 C 0.96783 0.79167 0.23931 0.0
C2587 C 0.99182 0.77501 0.23773 0.0
C2588 C 0.98635 0.74661 0.23618 0.0
H2589 H 0.17948 0.79835 0.23616 0.0
H2590 H 0.13198 0.77877 0.23665 0.0
C2591 C 0.95907 0.73565 0.23578 0.0
C2592 C 1.02223 0.78642 0.23784 0.0
H2593 H 0.08517 0.78391 0.22527 0.0
C2594 C 1.03188 0.80334 0.24579 0.0
C2595 C 1.04251 0.77985 0.23035 0.0
C2596 C 1.03472 0.76364 0.22111 0.0
C2597 C 0.06001 0.81287 0.24656 0.0
C2598 C 0.08029 0.8062 0.2391 0.0
C2599 C 0.07065 0.78929 0.23115 0.0
C2600 C 0.11067 0.81763 0.23915 0.0
C2601 C 0.06782 0.82941 0.25572 0.0
C2602 C 0.11612 0.8462 0.24029 0.0
C2603 C 0.14336 0.85735 0.24005 0.0
C2604 C 0.16739 0.84091 0.23864 0.0
C2605 C 0.16226 0.81212 0.23752 0.0
C2606 C 0.13461 0.80084 0.2377 0.0
H2607 H 0.05409 0.82449 0.26217 0.0
H2608 H 0.08953 0.82548 0.25799 0.0
H2609 H 0.0655 0.85178 0.25405 0.0
H2610 H 0.09905 0.86043 0.24111 0.0
H2611 H 0.14545 0.87958 0.24079 0.0
H2612 H 0.53977 0.9248 0.49493 0.0
H2613 H 0.5583 0.87691 0.49521 0.0
H2614 H 0.47539 0.84463 0.4954 0.0
H2615 H 0.45722 0.89127 0.4949 0.0
H2616 H 0.55794 0.83109 0.507 0.0
H2617 H 0.50117 0.79729 0.47341 0.0
H2618 H 0.50236 0.83311 0.47714 0.0
H2619 H 0.47781 0.80965 0.48281 0.0
C2620 C 0.5254 0.90758 0.49509 0.0
C2621 C 0.49658 0.91298 0.49487 0.0
C2622 C 0.53612 0.87972 0.4952 0.0
C2623 C 0.51864 0.85583 0.495 0.0
C2624 C 0.49003 0.86158 0.49514 0.0
H2625 H 0.53953 0.66749 0.49508 0.0
H2626 H 0.52056 0.71518 0.49583 0.0
C2627 C 0.47947 0.88899 0.49498 0.0
C2628 C 0.5295 0.82527 0.49481 0.0
H2629 H 0.52053 0.76124 0.48337 0.0
C2630 C 0.54973 0.81612 0.50173 0.0
C2631 C 0.51933 0.80442 0.48809 0.0
C2632 C 0.4992 0.81163 0.47988 0.0
C2633 C 0.55916 0.78794 0.50226 0.0
C2634 C 0.5489 0.76709 0.49557 0.0
C2635 C 0.52868 0.77622 0.48866 0.0
C2636 C 0.55999 0.73665 0.49529 0.0
C2637 C 0.57967 0.78071 0.51034 0.0
C2638 C 0.58857 0.73125 0.49458 0.0
C2639 C 0.59938 0.70397 0.49414 0.0
C2640 C 0.58256 0.67975 0.49436 0.0
C2641 C 0.55372 0.68484 0.49504 0.0
C2642 C 0.54275 0.71259 0.49541 0.0
H2643 H 0.57808 0.7951 0.51681 0.0
H2644 H 0.57658 0.75925 0.51311 0.0
H2645 H 0.60091 0.78255 0.50726 0.0
H2646 H 0.60296 0.7484 0.49413 0.0
H2647 H 0.6216 0.702 0.49349 0.0
H2648 H 0.64573 0.38737 0.73599 0.0
H2649 H 0.59898 0.36878 0.73673 0.0
H2650 H 0.6319 0.28624 0.73853 0.0
H2651 H 0.6793 0.30524 0.73823 0.0
H2652 H 0.56579 0.34247 0.72652 0.0
H2653 H 0.57624 0.27173 0.75874 0.0
H2654 H 0.60333 0.29562 0.75536 0.0
H2655 H 0.59982 0.26302 0.74887 0.0
C2656 C 0.6434 0.36515 0.73669 0.0
C2657 C 0.66736 0.34826 0.73719 0.0
C2658 C 0.61599 0.3543 0.73706 0.0
C2659 C 0.61033 0.32563 0.73788 0.0
C2660 C 0.63435 0.30847 0.73827 0.0
H2661 H 0.45796 0.22102 0.73639 0.0
H2662 H 0.50382 0.24132 0.73703 0.0
C2663 C 0.66205 0.31946 0.73803 0.0
C2664 C 0.57971 0.31454 0.73804 0.0
H2665 H 0.53487 0.26783 0.74936 0.0
C2666 C 0.55935 0.32626 0.73164 0.0
C2667 C 0.56969 0.29328 0.74461 0.0
C2668 C 0.58829 0.28036 0.75235 0.0
C2669 C 0.53092 0.31737 0.73143 0.0
C2670 C 0.52107 0.29586 0.73789 0.0
C2671 C 0.54135 0.28419 0.74431 0.0
C2672 C 0.49083 0.28399 0.73776 0.0
C2673 C 0.51186 0.33076 0.72394 0.0
C2674 C 0.46625 0.30035 0.73814 0.0
C2675 C 0.43889 0.28837 0.73784 0.0
C2676 C 0.43468 0.25934 0.73713 0.0
C2677 C 0.45932 0.24334 0.73695 0.0
C2678 C 0.48626 0.25514 0.73732 0.0
H2679 H 0.5235 0.34109 0.71779 0.0
H2680 H 0.49758 0.31532 0.72058 0.0
H2681 H 0.49933 0.34676 0.72779 0.0
H2682 H 0.46803 0.3226 0.73873 0.0
H2683 H 0.42114 0.30195 0.73794 0.0
H2684 H 0.04724 0.1677 0.99701 0.0
H2685 H 1.02874 0.21553 0.99724 0.0
H2686 H 0.11153 0.24772 0.99527 0.0
H2687 H 0.12962 0.20093 0.99471 0.0
H2688 H 1.02924 0.26116 1.00819 0.0
H2689 H 0.08339 0.29513 0.97401 0.0
H2690 H 0.08315 0.25941 0.97786 0.0
H2691 H 0.1077 0.28346 0.98318 0.0
C2692 C 0.06159 0.18489 0.99662 0.0
C2693 C 0.09031 0.1794 0.99578 0.0
C2694 C 0.05089 0.21274 0.99673 0.0
C2695 C 0.06824 0.23661 0.99594 0.0
C2696 C 0.09686 0.23081 0.99545 0.0
H2697 H 1.04591 0.42454 0.99632 0.0
H2698 H 0.06482 0.37687 0.99694 0.0
C2699 C 0.10742 0.20333 0.99527 0.0
C2700 C 0.0571 0.26713 0.99579 0.0
H2701 H 0.06445 0.33111 0.98412 0.0
C2702 C 1.03701 0.27614 1.00282 0.0
C2703 C 0.06651 0.28802 0.98892 0.0
C2704 C 0.08613 0.28098 0.98051 0.0
C2705 C 1.02707 0.30417 1.00332 0.0
C2706 C 1.03673 0.32507 0.99652 0.0
C2707 C 0.05677 0.3161 0.9895 0.0
C2708 C 1.02542 0.35545 0.99631 0.0
C2709 C 1.00661 0.31124 1.01146 0.0
C2710 C 0.9968 0.3609 0.99561 0.0
C2711 C 0.98599 0.38827 0.99521 0.0
C2712 C 1.00289 0.41239 0.99551 0.0
C2713 C 1.0317 0.40721 0.99621 0.0
C2714 C 1.04265 0.37948 0.99651 0.0
H2715 H 1.00817 0.2967 1.01789 0.0
H2716 H 1.00977 0.33264 1.01426 0.0
H2717 H 0.98536 0.30957 1.0084 0.0
H2718 H 0.98241 0.34376 0.99514 0.0
H2719 H 0.9638 0.39043 0.99455 0.0
H2720 H 0.13867 0.71347 0.74141 0.0
H2721 H 0.09178 0.73154 0.74182 0.0
H2722 H 0.12347 0.81206 0.74951 0.0
H2723 H 0.17116 0.79382 0.74891 0.0
H2724 H 0.0565 0.75018 0.75431 0.0
H2725 H 0.07185 0.83933 0.729 0.0
H2726 H 0.09826 0.81358 0.73081 0.0
H2727 H 0.09365 0.84088 0.73985 0.0
C2728 C 0.1361 0.73517 0.7432 0.0
C2729 C 0.15986 0.75176 0.74511 0.0
C2730 C 0.10859 0.74567 0.74345 0.0
C2731 C 0.1026 0.77373 0.74553 0.0
C2732 C 0.12632 0.79052 0.74758 0.0
H2733 H 0.94713 0.87444 0.74825 0.0
H2734 H 0.99356 0.85545 0.74883 0.0
C2735 C 0.15414 0.77988 0.74735 0.0
C2736 C 0.07191 0.78447 0.74562 0.0
H2737 H 1.02838 0.83618 0.73702 0.0
C2738 C 0.05066 0.76904 0.75046 0.0
C2739 C 0.06274 0.80906 0.74066 0.0
C2740 C 0.08269 0.82657 0.7347 0.0
C2741 C 1.02209 0.77739 0.75072 0.0
C2742 C 1.01292 0.80202 0.74577 0.0
C2743 C 1.03419 0.81738 0.74091 0.0
C2744 C 0.98226 0.81293 0.74584 0.0
C2745 C 1.00219 0.75985 0.75668 0.0
C2746 C 0.95829 0.7962 0.74407 0.0
C2747 C 0.93064 0.80735 0.74389 0.0
C2748 C 0.92538 0.83595 0.74536 0.0
C2749 C 0.94934 0.85235 0.74715 0.0
C2750 C 0.97661 0.84132 0.74741 0.0
H2751 H 1.01306 0.74722 0.76241 0.0
H2752 H 0.98653 0.7728 0.76054 0.0
H2753 H 0.99138 0.7454 0.75154 0.0
H2754 H 0.96082 0.77442 0.74248 0.0
H2755 H 0.91355 0.79365 0.74218 0.0
H2756 H 0.97532 0.20008 0.4888 0.0
H2757 H 0.99536 0.2462 0.48917 0.0
H2758 H 0.07685 0.21102 0.48767 0.0
H2759 H 0.05643 0.16396 0.48714 0.0
H2760 H 1.02473 0.27698 0.50068 0.0
H2761 H 0.08957 0.26774 0.46668 0.0
H2762 H 0.06488 0.24139 0.47016 0.0
H2763 H 0.09798 0.24315 0.47628 0.0
C2764 C 0.99764 0.20167 0.4886 0.0
C2765 C 1.01377 0.17715 0.48798 0.0
C2766 C 1.00929 0.22873 0.48882 0.0
C2767 C 1.03806 0.23356 0.48827 0.0
C2768 C 0.05458 0.20907 0.48786 0.0
H2769 H 0.13947 0.38967 0.48421 0.0
H2770 H 0.12146 0.34269 0.48515 0.0
C2771 C 1.04278 0.1816 0.48772 0.0
C2772 C 0.04971 0.26394 0.48821 0.0
H2773 H 0.09291 0.30967 0.47563 0.0
C2774 C 1.03965 0.28384 0.49514 0.0
C2775 C 0.06941 0.2743 0.48112 0.0
C2776 C 0.08097 0.2557 0.47307 0.0
C2777 C 0.04861 0.31228 0.49534 0.0
C2778 C 0.06798 0.32283 0.48815 0.0
C2779 C 0.07813 0.30284 0.48123 0.0
C2780 C 0.07877 0.3536 0.48783 0.0
C2781 C 1.0377 0.33039 0.50364 0.0
C2782 C 0.06165 0.37748 0.48898 0.0
C2783 C 0.07234 0.40534 0.4886 0.0
C2784 C 0.10074 0.41098 0.48688 0.0
C2785 C 0.11756 0.38714 0.48562 0.0
C2786 C 0.10703 0.35958 0.4861 0.0
H2787 H 1.03087 0.31793 0.5102 0.0
H2788 H 0.05357 0.34541 0.50622 0.0
H2789 H 1.01948 0.34198 0.50087 0.0
H2790 H 1.03964 0.37482 0.48998 0.0
H2791 H 0.05815 0.42245 0.48947 0.0
H2792 H 0.67416 0.30044 0.24321 0.0
H2793 H 0.62683 0.32012 0.24351 0.0
H2794 H 0.59338 0.23906 0.24922 0.0
H2795 H 0.63968 0.21979 0.24903 0.0
H2796 H 0.57949 0.31325 0.2322 0.0
H2797 H 0.54961 0.27805 0.27 0.0
H2798 H 0.58491 0.27665 0.26568 0.0
H2799 H 0.56074 0.24976 0.26232 0.0
C2800 C 0.65687 0.28684 0.24479 0.0
C2801 C 0.66181 0.25818 0.2463 0.0
C2802 C 0.62931 0.29817 0.24486 0.0
C2803 C 0.60529 0.28159 0.2466 0.0
C2804 C 0.61055 0.25315 0.24815 0.0
H2805 H 0.41817 0.30393 0.24858 0.0
H2806 H 0.46595 0.28565 0.24915 0.0
C2807 C 0.6377 0.24192 0.24799 0.0
C2808 C 0.57503 0.29309 0.24648 0.0
H2809 H 0.51267 0.29258 0.25942 0.0
C2810 C 0.56518 0.30882 0.23826 0.0
C2811 C 0.55504 0.2876 0.25418 0.0
C2812 C 0.56312 0.27234 0.26358 0.0
C2813 C 0.53707 0.31818 0.23742 0.0
C2814 C 0.51707 0.31281 0.24515 0.0
C2815 C 0.52696 0.29709 0.25337 0.0
C2816 C 0.48659 0.32386 0.24494 0.0
C2817 C 0.52898 0.33288 0.22789 0.0
C2818 C 0.48061 0.3518 0.24264 0.0
C2819 C 0.45313 0.36222 0.24226 0.0
C2820 C 0.42943 0.34569 0.24431 0.0
C2821 C 0.43515 0.31777 0.24688 0.0
C2822 C 0.46298 0.3072 0.24722 0.0
H2823 H 0.54242 0.32668 0.22152 0.0
H2824 H 0.50718 0.3285 0.22583 0.0
H2825 H 0.53153 0.35552 0.22895 0.0
H2826 H 0.4974 0.36609 0.24121 0.0
H2827 H 0.45054 0.38383 0.24034 0.0
H2828 H 0.62834 0.89502 0.9836 0.0
H2829 H 0.60948 0.8483 0.98432 0.0
H2830 H 0.52899 0.88144 0.99083 0.0
H2831 H 0.54809 0.92896 0.99002 0.0
H2832 H 0.58866 0.81456 0.99731 0.0
H2833 H 0.50345 0.82821 0.97026 0.0
H2834 H 0.52947 0.85448 0.97213 0.0
H2835 H 0.50119 0.85101 0.98083 0.0
C2836 C 0.6065 0.89281 0.98521 0.0
C2837 C 0.59021 0.9169 0.98675 0.0
C2838 C 0.59554 0.86541 0.98564 0.0
C2839 C 0.56727 0.85987 0.98749 0.0
C2840 C 0.55072 0.88393 0.98913 0.0
H2841 H 0.46499 0.70434 0.98938 0.0
H2842 H 0.48391 0.75094 0.98977 0.0
C2843 C 0.56185 0.91166 0.98878 0.0
C2844 C 0.55609 0.82927 0.98775 0.0
H2845 H 0.50554 0.7851 0.97855 0.0
C2846 C 0.57044 0.8084 0.99315 0.0
C2847 C 0.53224 0.81976 0.98243 0.0
C2848 C 0.51579 0.83939 0.976 0.0
C2849 C 0.56173 0.77988 0.99358 0.0
C2850 C 0.53798 0.77026 0.98819 0.0
C2851 C 0.52367 0.79118 0.98278 0.0
C2852 C 0.5269 0.73952 0.98831 0.0
C2853 C 0.57788 0.76058 1.00023 0.0
C2854 C 0.54385 0.71539 0.98744 0.0
C2855 C 0.53271 0.68764 0.98739 0.0
C2856 C 0.50389 0.68239 0.98807 0.0
C2857 C 0.48723 0.70651 0.9889 0.0
C2858 C 0.49825 0.7339 0.98905 0.0
H2859 H 0.58925 0.77206 1.00616 0.0
H2860 H 0.56415 0.74519 1.00392 0.0
H2861 H 0.59337 0.74942 0.99563 0.0
H2862 H 0.56591 0.71781 0.98649 0.0
H2863 H 0.54671 0.67037 0.98649 0.0
H2864 H 0.14289 0.38508 0.87501 0.0
H2865 H 0.09614 0.36592 0.875 0.0
H2866 H 0.12962 0.28365 0.87347 0.0
H2867 H 0.17695 0.30303 0.87351 0.0
H2868 H 0.06371 0.33816 0.86271 0.0
H2869 H 0.07531 0.26882 0.89535 0.0
H2870 H 0.10131 0.29407 0.89206 0.0
H2871 H 0.09944 0.2616 0.88547 0.0
C2872 C 0.14067 0.3628 0.87462 0.0
C2873 C 0.16474 0.34602 0.87422 0.0
C2874 C 0.11334 0.35167 0.87463 0.0
C2875 C 0.10799 0.32287 0.87439 0.0
C2876 C 0.13204 0.30588 0.8739 0.0
H2877 H 0.9542 0.21821 0.8769 0.0
H2878 H 1.00076 0.23745 0.87624 0.0
C2879 C 0.15963 0.31712 0.87382 0.0
C2880 C 0.07763 0.31136 0.87454 0.0
H2881 H 1.03329 0.26537 0.88644 0.0
C2882 C 0.05731 0.32224 0.86796 0.0
C2883 C 0.06791 0.29046 0.88128 0.0
C2884 C 0.08698 0.27819 0.88901 0.0
C2885 C 1.02908 0.31277 0.86773 0.0
C2886 C 1.01925 0.29195 0.87452 0.0
C2887 C 1.03962 0.28117 0.88113 0.0
C2888 C 0.98882 0.28037 0.87473 0.0
C2889 C 1.01039 0.32474 0.85982 0.0
C2890 C 0.9646 0.29715 0.87418 0.0
C2891 C 0.93707 0.28578 0.87442 0.0
C2892 C 0.93211 0.25695 0.87536 0.0
C2893 C 0.95627 0.24041 0.87606 0.0
C2894 C 0.98355 0.25165 0.87575 0.0
H2895 H 1.02239 0.33307 0.85337 0.0
H2896 H 0.99566 0.30898 0.85694 0.0
H2897 H 0.99849 0.34213 0.8631 0.0
H2898 H 0.96675 0.31939 0.87377 0.0
H2899 H 0.91966 0.29975 0.87402 0.0
H2900 H 0.464 0.39202 0.63128 0.0
H2901 H 0.48349 0.34575 0.63086 0.0
H2902 H 0.56526 0.3803 0.63321 0.0
H2903 H 0.5454 0.42748 0.63379 0.0
H2904 H 0.51332 0.31475 0.61959 0.0
H2905 H 0.57558 0.32308 0.65416 0.0
H2906 H 0.55145 0.3496 0.65051 0.0
H2907 H 0.58508 0.34792 0.64475 0.0
C2908 C 0.48629 0.39026 0.63165 0.0
C2909 C 0.50266 0.41466 0.63253 0.0
C2910 C 0.49761 0.3631 0.63141 0.0
C2911 C 0.52627 0.35803 0.6322 0.0
C2912 C 0.54304 0.38241 0.63285 0.0
H2913 H 0.62704 0.20209 0.63611 0.0
H2914 H 0.60905 0.24901 0.63528 0.0
C2915 C 0.53158 0.40996 0.63301 0.0
C2916 C 0.53761 0.32756 0.63227 0.0
H2917 H 0.57983 0.28155 0.64501 0.0
C2918 C 0.52787 0.30778 0.62522 0.0
C2919 C 0.55674 0.317 0.63949 0.0
C2920 C 0.56768 0.33535 0.64772 0.0
C2921 C 0.53668 0.27933 0.62501 0.0
C2922 C 0.55564 0.26866 0.63228 0.0
C2923 C 0.56541 0.2885 0.63933 0.0
C2924 C 0.56639 0.23792 0.63256 0.0
C2925 C 0.52608 0.2613 0.61663 0.0
C2926 C 0.54927 0.21397 0.63137 0.0
C2927 C 0.55994 0.18615 0.63172 0.0
C2928 C 0.58833 0.18061 0.63342 0.0
C2929 C 0.60515 0.20454 0.63472 0.0
C2930 C 0.59463 0.23206 0.63429 0.0
H2931 H 0.51945 0.27383 0.61008 0.0
H2932 H 0.54206 0.24644 0.61408 0.0
H2933 H 0.50781 0.24951 0.61932 0.0
H2934 H 0.52728 0.21655 0.63035 0.0
H2935 H 0.54573 0.16898 0.63083 0.0
H2936 H 0.64904 0.87912 0.37863 0.0
H2937 H 0.60204 0.86078 0.37827 0.0
H2938 H 0.63411 0.77865 0.37404 0.0
H2939 H 0.68175 0.79722 0.37447 0.0
H2940 H 0.56863 0.8371 0.36554 0.0
H2941 H 0.58037 0.7589 0.39545 0.0
H2942 H 0.60682 0.7843 0.39286 0.0
H2943 H 0.60372 0.75387 0.38515 0.0
C2944 C 0.64648 0.85704 0.3776 0.0
C2945 C 0.67027 0.84005 0.37658 0.0
C2946 C 0.61898 0.84639 0.37739 0.0
C2947 C 0.61314 0.81784 0.37629 0.0
C2948 C 0.6369 0.80065 0.37516 0.0
H2949 H 0.45752 0.71615 0.3767 0.0
H2950 H 0.50429 0.7347 0.37611 0.0
C2951 C 0.66467 0.81143 0.3753 0.0
C2952 C 0.58256 0.80692 0.37624 0.0
H2953 H 0.53779 0.75898 0.38683 0.0
C2954 C 0.56215 0.81999 0.37026 0.0
C2955 C 0.57272 0.78451 0.38229 0.0
C2956 C 0.5919 0.7697 0.38938 0.0
C2957 C 0.53368 0.81128 0.36993 0.0
C2958 C 0.52372 0.78896 0.37603 0.0
C2959 C 0.5442 0.77598 0.38205 0.0
C2960 C 0.49306 0.778 0.37608 0.0
C2961 C 0.51485 0.82577 0.36264 0.0
C2962 C 0.4691 0.79526 0.37624 0.0
C2963 C 0.44136 0.78432 0.3764 0.0
C2964 C 0.43599 0.75545 0.37658 0.0
C2965 C 0.4599 0.73844 0.37651 0.0
C2966 C 0.48732 0.74925 0.37624 0.0
H2967 H 0.52669 0.83557 0.35643 0.0
H2968 H 0.4996 0.81121 0.35933 0.0
H2969 H 0.50355 0.84243 0.36662 0.0
H2970 H 0.47161 0.81748 0.37651 0.0
H2971 H 0.42417 0.79859 0.37666 0.0
H2972 H 0.96597 0.89495 0.13336 0.0
H2973 H 0.98583 0.84887 0.13289 0.0
H2974 H 0.0674 0.88413 0.13489 0.0
H2975 H 0.04715 0.93115 0.13551 0.0
H2976 H 1.01576 0.81842 0.1214 0.0
H2977 H 0.07855 0.82701 0.15586 0.0
H2978 H 0.05413 0.85335 0.1523 0.0
H2979 H 0.08759 0.85189 0.14641 0.0
C2980 C 0.98828 0.89339 0.13364 0.0
C2981 C 1.00448 0.91791 0.13443 0.0
C2982 C 0.99982 0.86636 0.13337 0.0
C2983 C 1.02854 0.86157 0.13404 0.0
C2984 C 1.04515 0.88606 0.1346 0.0
H2985 H 0.12946 0.70599 0.1382 0.0
H2986 H 0.11147 0.75286 0.1373 0.0
C2987 C 1.03346 0.9135 0.13479 0.0
C2988 C 1.04007 0.83122 0.13407 0.0
H2989 H 0.08237 0.78534 0.14679 0.0
C2990 C 1.03035 0.81146 0.12701 0.0
C2991 C 0.05929 0.82075 0.14127 0.0
C2992 C 0.07037 0.83919 0.14945 0.0
C2993 C 1.03924 0.78307 0.12679 0.0
C2994 C 0.05817 0.77242 0.13407 0.0
C2995 C 0.06795 0.79226 0.14112 0.0
C2996 C 0.06893 0.74172 0.13435 0.0
C2997 C 1.02874 0.76509 0.11837 0.0
C2998 C 0.05189 0.71776 0.13304 0.0
C2999 C 0.06258 0.68996 0.1334 0.0
C3000 C 0.0909 0.68449 0.13525 0.0
C3001 C 0.10762 0.70841 0.13668 0.0
C3002 C 0.0971 0.7359 0.13622 0.0
H3003 H 1.02224 0.77767 0.11181 0.0
H3004 H 1.04474 0.75022 0.11584 0.0
H3005 H 1.01039 0.75333 0.12101 0.0
H3006 H 1.02992 0.72031 0.13193 0.0
H3007 H 0.04845 0.67277 0.13241 0.0
H3008 H 0.24077 0.22742 0.34777 0.0
H3009 H 0.25156 0.24478 0.33079 0.0
H3010 H 0.30593 0.30589 0.34353 0.0
H3011 H 0.29554 0.28842 0.36037 0.0
H3012 H 0.24471 0.29074 0.3201 0.0
H3013 H 0.35797 0.28153 0.32255 0.0
H3014 H 0.33545 0.26701 0.33198 0.0
H3015 H 0.3444 0.30324 0.33226 0.0
C3016 C 0.25527 0.24441 0.34702 0.0
C3017 C 0.26731 0.25594 0.35579 0.0
C3018 C 0.26149 0.25459 0.33714 0.0
C3019 C 0.28037 0.27672 0.33539 0.0
C3020 C 0.29207 0.28838 0.34419 0.0
H3021 H 0.34687 0.36948 0.28128 0.0
H3022 H 0.3356 0.35176 0.29813 0.0
C3023 C 0.28581 0.27831 0.35404 0.0
C3024 C 0.28724 0.28785 0.32459 0.0
H3025 H 0.34082 0.30706 0.30867 0.0
C3026 C 0.26587 0.29402 0.31768 0.0
C3027 C 0.31469 0.29277 0.32095 0.0
C3028 C 0.33946 0.28555 0.32727 0.0
C3029 C 0.27082 0.30515 0.30781 0.0
C3030 C 0.29829 0.31004 0.30416 0.0
C3031 C 0.31966 0.30381 0.31108 0.0
C3032 C 0.30527 0.32143 0.29339 0.0
C3033 C 0.24601 0.31261 0.30156 0.0
C3034 C 0.29286 0.31083 0.28453 0.0
C3035 C 0.2993 0.32126 0.27474 0.0
C3036 C 0.31881 0.34281 0.27311 0.0
C3037 C 0.33159 0.35317 0.28193 0.0
C3038 C 0.32509 0.34275 0.29175 0.0
H3039 H 0.22764 0.31681 0.30632 0.0
H3040 H 0.25008 0.33114 0.29685 0.0
H3041 H 0.24078 0.29497 0.29658 0.0
H3042 H 0.27831 0.29388 0.28508 0.0
H3043 H 0.28901 0.31202 0.26835 0.0
H3044 H 0.04792 0.05331 0.51149 0.0
H3045 H 0.0641 1.0437 0.52853 0.0
H3046 H 0.99059 0.08124 0.5405 0.0
H3047 H 0.97399 0.09014 0.52338 0.0
H3048 H 0.08102 0.06901 0.54402 0.0
H3049 H 0.98726 1.01812 0.55869 0.0
H3050 H 0.99098 1.02655 0.54559 0.0
H3051 H 0.98024 0.05259 0.55446 0.0
C3052 C 1.03481 0.05936 0.51769 0.0
C3053 C 1.00911 0.07239 0.51567 0.0
C3054 C 1.04434 0.05385 0.52765 0.0
C3055 C 1.02881 0.06086 0.53632 0.0
C3056 C 1.00322 0.07431 0.53431 0.0
H3057 H 0.05646 1.04394 0.60336 0.0
H3058 H 1.03938 0.05433 0.58641 0.0
C3059 C 0.99361 0.07976 0.52431 0.0
C3060 C 1.0398 0.05473 0.5472 0.0
H3061 H 1.02168 1.02927 0.57067 0.0
C3062 C 0.06779 0.06018 0.54975 0.0
C3063 C 1.02347 1.04308 0.55513 0.0
C3064 C 0.99393 1.03446 0.55333 0.0
C3065 C 0.0792 0.0552 0.55955 0.0
C3066 C 0.06287 1.04357 0.56748 0.0
C3067 C 1.03487 1.03816 0.56494 0.0
C3068 C 0.07407 1.03705 0.57829 0.0
C3069 C 0.10884 0.0635 0.56131 0.0
C3070 C 0.09954 1.02324 0.58006 0.0
C3071 C 0.10955 1.0174 0.58995 0.0
C3072 C 0.09472 1.02461 0.59875 0.0
C3073 C 0.06906 1.03799 0.59701 0.0
C3074 C 0.05905 1.04395 0.58712 0.0
H3075 H 0.11582 0.07951 0.55588 0.0
H3076 H 0.11189 0.07162 0.56902 0.0
H3077 H 0.12221 1.04512 0.56028 0.0
H3078 H 0.11177 1.01626 0.57378 0.0
H3079 H 0.12899 1.00671 0.59067 0.0
H3080 H 0.29952 0.80267 0.86114 0.0
H3081 H 0.28917 0.78594 0.84418 0.0
H3082 H 0.33237 0.85582 0.83167 0.0
H3083 H 0.34277 0.87266 0.84871 0.0
H3084 H 0.26003 0.80258 0.82824 0.0
H3085 H 0.36748 0.79824 0.8144 0.0
H3086 H 0.35949 0.80392 0.82746 0.0
H3087 H 0.35763 0.83206 0.81863 0.0
C3088 C 0.30698 0.81472 0.85484 0.0
C3089 C 0.32226 0.83938 0.85668 0.0
C3090 C 0.30091 0.80494 0.84494 0.0
C3091 C 0.3101 0.81882 0.83616 0.0
C3092 C 0.32522 0.84367 0.83798 0.0
H3093 H 0.2985 0.78475 0.76941 0.0
H3094 H 0.30849 0.80239 0.78629 0.0
C3095 C 0.33107 0.85365 0.84792 0.0
C3096 C 0.30347 0.8075 0.82537 0.0
H3097 H 0.33246 0.79019 0.80238 0.0
C3098 C 0.27613 0.79988 0.82267 0.0
C3099 C 0.3237 0.80356 0.81766 0.0
C3100 C 0.35376 0.80959 0.81967 0.0
C3101 C 0.26861 0.78961 0.81289 0.0
C3102 C 0.2889 0.78531 0.80519 0.0
C3103 C 0.31628 0.79297 0.80792 0.0
C3104 C 0.28236 0.77359 0.79441 0.0
C3105 C 0.23836 0.78466 0.81088 0.0
C3106 C 0.26445 0.75064 0.79263 0.0
C3107 C 0.25838 0.7405 0.78274 0.0
C3108 C 0.27025 0.75223 0.77397 0.0
C3109 C 0.28864 0.77468 0.77574 0.0
C3110 C 0.29451 0.78497 0.7856 0.0
H3111 H 0.22513 0.79745 0.81587 0.0
H3112 H 0.23294 0.78949 0.80299 0.0
H3113 H 0.23336 0.76264 0.81242 0.0
H3114 H 0.25517 0.74001 0.79893 0.0
H3115 H 0.24432 0.72315 0.78201 0.0
H3116 H 0.46985 0.09544 0.09002 0.0
H3117 H 0.48714 0.08447 0.07306 0.0
H3118 H 0.55839 1.04531 0.086 0.0
H3119 H 0.54113 0.05597 0.10284 0.0
H3120 H 0.53059 0.0977 0.06144 0.0
H3121 H 0.5413 0.98514 0.06682 0.0
H3122 H 0.52384 1.00664 0.07586 0.0
H3123 H 0.56102 1.00443 0.0758 0.0
C3124 C 0.48911 0.08425 0.08934 0.0
C3125 C 0.50357 0.07657 0.09817 0.0
C3126 C 0.49924 0.07794 0.07946 0.0
C3127 C 0.52426 0.06321 0.07778 0.0
C3128 C 0.53875 0.05582 0.08664 0.0
H3129 H 0.62059 1.00245 1.0235 0.0
H3130 H 0.60324 1.01356 1.04042 0.0
C3131 C 0.52876 0.06225 0.09647 0.0
C3132 C 0.53535 0.05624 0.06698 0.0
H3133 H 0.56173 1.00365 1.05205 0.0
C3134 C 0.53715 0.07697 1.05947 0.0
C3135 C 0.54453 1.02936 0.06393 0.0
C3136 C 0.54237 1.00504 0.07097 0.0
C3137 C 0.54801 0.07208 1.04957 0.0
C3138 C 0.55705 1.04514 1.04647 0.0
C3139 C 0.55521 1.0244 1.054 0.0
C3140 C 0.5682 1.0381 1.03567 0.0
C3141 C 0.55069 0.09663 1.04265 0.0
C3142 C 0.55489 1.04721 1.02677 0.0
C3143 C 0.56511 1.04095 1.01695 0.0
C3144 C 0.58917 1.02478 1.01529 0.0
C3145 C 0.60225 1.0151 1.02415 0.0
C3146 C 0.59206 1.02151 1.03402 0.0
H3147 H 0.55247 0.11629 1.04693 0.0
H3148 H 0.56903 0.09478 1.03769 0.0
H3149 H 0.53189 0.09808 1.03793 0.0
H3150 H 0.53599 0.05899 1.02733 0.0
H3151 H 0.55371 0.04869 1.01056 0.0
H3152 H 0.35049 0.72746 0.33972 0.0
H3153 H 0.33938 0.74552 0.3229 0.0
H3154 H 0.28904 0.80879 0.33629 0.0
H3155 H 0.30013 0.79089 0.35302 0.0
H3156 H 0.29374 0.75162 0.31134 0.0
H3157 H 0.33064 0.85831 0.31768 0.0
H3158 H 0.33762 0.83076 0.32645 0.0
H3159 H 0.30464 0.84793 0.32653 0.0
C3160 C 0.33706 0.74527 0.33916 0.0
C3161 C 0.32649 0.75738 0.34808 0.0
C3162 C 0.33058 0.75579 0.32937 0.0
C3163 C 0.31353 0.77936 0.32788 0.0
C3164 C 0.30279 0.79123 0.33681 0.0
H3165 H 0.25449 0.87756 0.27374 0.0
H3166 H 0.26488 0.85994 0.2907 0.0
C3167 C 0.30905 0.7806 0.34657 0.0
C3168 C 0.30669 0.79099 0.31718 0.0
H3169 H 0.30564 0.85062 0.30264 0.0
C3170 C 0.29661 0.77331 0.30952 0.0
C3171 C 0.30978 0.81943 0.31435 0.0
C3172 C 0.3215 0.8402 0.32163 0.0
C3173 C 0.28922 0.78284 0.29966 0.0
C3174 C 0.29265 0.81125 0.29676 0.0
C3175 C 0.30269 0.82894 0.30444 0.0
C3176 C 0.28622 0.82277 0.28598 0.0
C3177 C 0.27654 0.76206 0.29258 0.0
C3178 C 0.29477 0.80897 0.2771 0.0
C3179 C 0.28854 0.81906 0.26728 0.0
C3180 C 0.27379 0.844 0.2656 0.0
C3181 C 0.2658 0.85835 0.27443 0.0
C3182 C 0.27189 0.84807 0.28431 0.0
H3183 H 0.26621 0.74499 0.29674 0.0
H3184 H 0.26109 0.77183 0.28757 0.0
H3185 H 0.29308 0.7527 0.28793 0.0
H3186 H 0.30677 0.7902 0.27769 0.0
H3187 H 0.29558 0.80707 0.26092 0.0
H3188 H 0.61767 0.09047 0.59706 0.0
H3189 H 0.59967 0.0802 0.58016 0.0
H3190 H 0.5272 1.04332 0.59331 0.0
H3191 H 0.54506 0.05353 0.61012 0.0
H3192 H 0.58669 1.03464 0.56915 0.0
H3193 H 0.48766 0.08975 0.57323 0.0
H3194 H 0.51508 0.09329 0.58229 0.0
H3195 H 0.49245 0.06366 0.58264 0.0
C3196 C 0.59782 0.08021 0.59644 0.0
C3197 C 0.58318 0.07313 0.60533 0.0
C3198 C 0.58734 0.0742 0.58659 0.0
C3199 C 0.56129 0.0612 0.58497 0.0
C3200 C 0.54684 0.05394 0.59388 0.0
H3201 H 0.45931 1.01212 0.53026 0.0
H3202 H 0.47679 1.02213 0.54727 0.0
C3203 C 0.55741 0.05968 0.60371 0.0
C3204 C 0.54972 0.05486 0.57418 0.0
H3205 H 0.49235 0.06169 0.55874 0.0
C3206 C 0.56606 1.04085 0.56696 0.0
C3207 C 0.52258 0.06222 0.57084 0.0
C3208 C 0.50347 0.07828 0.5776 0.0
C3209 C 0.55636 1.0337 0.55707 0.0
C3210 C 0.52931 1.0414 0.55365 0.0
C3211 C 0.51297 0.0554 0.56091 0.0
C3212 C 0.51786 1.03534 0.54279 0.0
C3213 C 0.57528 1.01663 0.55057 0.0
C3214 C 0.53389 1.0396 0.53398 0.0
C3215 C 0.52382 1.03354 0.52413 0.0
C3216 C 0.49672 1.02334 0.5223 0.0
C3217 C 0.48022 1.01983 0.53104 0.0
C3218 C 0.49046 1.02568 0.54096 0.0
H3219 H 0.58979 1.00419 0.55517 0.0
H3220 H 0.56348 1.00229 0.54567 0.0
H3221 H 0.58789 1.03064 0.5458 0.0
H3222 H 0.55453 0.04804 0.53463 0.0
H3223 H 0.53761 1.03704 0.51785 0.0
H3224 H 0.34383 0.21742 0.77285 0.0
H3225 H 0.33301 0.23368 0.78998 0.0
H3226 H 0.30257 0.31019 0.77782 0.0
H3227 H 0.31294 0.29397 0.76086 0.0
H3228 H 0.34887 0.27392 0.80259 0.0
H3229 H 0.23908 0.2971 0.79584 0.0
H3230 H 0.25972 0.27871 0.78678 0.0
H3231 H 0.26115 0.31595 0.78745 0.0
C3232 C 0.33459 0.23765 0.77375 0.0
C3233 C 0.32918 0.25389 0.76509 0.0
C3234 C 0.32837 0.24718 0.78372 0.0
C3235 C 0.31605 0.27337 0.78565 0.0
C3236 C 0.31106 0.28964 0.77698 0.0
H3237 H 0.25978 0.37194 0.8396 0.0
H3238 H 0.27143 0.35397 0.82289 0.0
C3239 C 0.31735 0.28022 0.76706 0.0
C3240 C 0.309 0.28385 0.79652 0.0
H3241 H 0.25791 0.31448 0.81104 0.0
C3242 C 0.3288 0.28255 0.80435 0.0
C3243 C 0.28295 0.29558 0.79933 0.0
C3244 C 0.2594 0.29671 0.79195 0.0
C3245 C 0.32388 0.2929 0.81433 0.0
C3246 C 0.29782 0.30469 0.81714 0.0
C3247 C 0.278 0.30584 0.80931 0.0
C3248 C 0.29078 0.31606 0.8279 0.0
C3249 C 0.34754 0.29201 0.82166 0.0
C3250 C 0.29691 0.30147 0.83691 0.0
C3251 C 0.29026 0.31204 0.84667 0.0
C3252 C 0.27677 0.3378 0.8481 0.0
C3253 C 0.27027 0.35222 0.83912 0.0
C3254 C 0.27697 0.34168 0.82937 0.0
H3255 H 0.3678 0.29146 0.81774 0.0
H3256 H 0.34733 0.31021 0.82674 0.0
H3257 H 0.34586 0.27292 0.82625 0.0
H3258 H 0.30651 0.28133 0.83645 0.0
H3259 H 0.29552 0.29965 0.85316 0.0
H3260 H 0.11798 0.09131 1.03217 0.0
H3261 H 0.10001 0.08066 1.04902 0.0
H3262 H 1.03072 1.03839 1.03579 0.0
H3263 H 0.04904 0.04831 1.01902 0.0
H3264 H 0.05881 0.09266 0.06045 0.0
H3265 H 1.0444 0.98039 1.05549 0.0
H3266 H 0.06208 1.00115 1.04625 0.0
H3267 H 1.02482 0.99952 1.04647 0.0
C3268 C 0.09904 0.07945 1.03277 0.0
C3269 C 0.08553 0.0706 1.02387 0.0
C3270 C 0.08849 0.07332 1.04259 0.0
C3271 C 0.06384 0.05781 1.04418 0.0
C3272 C 0.05016 0.04939 1.03525 0.0
H3273 H 0.96449 1.00509 0.09915 0.0
H3274 H 0.98129 1.01502 0.082 0.0
C3275 C 0.06072 0.05542 1.02545 0.0
C3276 C 0.05233 0.0513 1.05497 0.0
H3277 H 1.02392 0.9999 0.07007 0.0
C3278 C 0.05145 0.07218 0.06245 0.0
C3279 C 1.04217 1.02475 1.05811 0.0
C3280 C 1.04364 1.0001 1.0512 0.0
C3281 C 1.04071 0.06773 0.0724 0.0
C3282 C 1.03052 1.04123 0.07552 0.0
C3283 C 1.03129 1.02035 0.06805 0.0
C3284 C 1.01966 1.03479 0.08638 0.0
C3285 C 1.03964 0.09221 0.07939 0.0
C3286 C 1.03502 1.0417 0.09508 0.0
C3287 C 1.02532 1.03591 0.105 0.0
C3288 C 0.99958 1.02272 0.10695 0.0
C3289 C 0.98421 1.01544 0.09826 0.0
C3290 C 0.99406 1.02114 0.08829 0.0
H3291 H 1.03912 0.11206 0.07519 0.0
H3292 H 1.02125 0.09123 0.08437 0.0
H3293 H 0.05848 0.09235 0.08413 0.0
H3294 H 0.0551 0.05135 0.09426 0.0
H3295 H 1.03841 1.04178 0.11123 0.0
H3296 H 0.7942 0.78595 0.85992 0.0
H3297 H 0.80392 0.80369 0.84302 0.0
H3298 H 0.75509 0.73787 0.83038 0.0
H3299 H 0.74469 0.72064 0.84731 0.0
H3300 H 0.82972 0.79085 0.82698 0.0
H3301 H 0.72233 0.79458 0.81341 0.0
H3302 H 0.73029 0.78726 0.82633 0.0
H3303 H 0.73179 0.76019 0.81703 0.0
C3304 C 0.7853 0.77512 0.85359 0.0
C3305 C 0.76833 0.75155 0.85535 0.0
C3306 C 0.791 0.78546 0.84372 0.0
C3307 C 0.78002 0.77308 0.83492 0.0
C3308 C 0.76344 0.74914 0.83669 0.0
H3309 H 0.79525 0.80286 0.76822 0.0
H3310 H 0.78535 0.78597 0.7852 0.0
C3311 C 0.75762 0.73885 0.84657 0.0
C3312 C 0.78637 0.78481 0.82414 0.0
H3313 H 0.75723 0.80108 0.80109 0.0
C3314 C 0.81355 0.79314 0.82143 0.0
C3315 C 0.76604 0.78841 0.81644 0.0
C3316 C 0.73595 0.78243 0.81846 0.0
C3317 C 0.82082 0.80372 0.81166 0.0
C3318 C 0.80053 0.80712 0.80395 0.0
C3319 C 0.77336 0.79884 0.80666 0.0
C3320 C 0.80692 0.81851 0.79315 0.0
C3321 C 0.85079 0.81024 0.80965 0.0
C3322 C 0.82224 0.84322 0.79128 0.0
C3323 C 0.82796 0.85321 0.78134 0.0
C3324 C 0.81865 0.83917 0.77261 0.0
C3325 C 0.80307 0.81472 0.7745 0.0
C3326 C 0.79726 0.80485 0.7844 0.0
H3327 H 0.86465 0.79887 0.81484 0.0
H3328 H 0.85664 0.80492 0.80183 0.0
H3329 H 0.85438 0.8327 0.8108 0.0
H3330 H 0.82966 0.85527 0.79757 0.0
H3331 H 0.83988 0.87207 0.78051 0.0
H3332 H 0.80855 0.29702 0.361 0.0
H3333 H 0.7985 0.28087 0.34392 0.0
H3334 H 0.81634 0.3623 0.33248 0.0
H3335 H 0.82703 0.37823 0.34953 0.0
H3336 H 0.76299 0.28819 0.32982 0.0
H3337 H 0.85912 0.32444 0.31177 0.0
H3338 H 0.85457 0.32557 0.32518 0.0
H3339 H 0.84018 0.35231 0.31734 0.0
C3340 C 0.81053 0.31167 0.35489 0.0
C3341 C 0.819 0.33923 0.357 0.0
C3342 C 0.80464 0.30226 0.34492 0.0
C3343 C 0.80699 0.31967 0.33637 0.0
C3344 C 0.815 0.34742 0.33852 0.0
H3345 H 0.77976 0.29796 0.26962 0.0
H3346 H 0.78968 0.31452 0.28664 0.0
C3347 C 0.82096 0.35684 0.3485 0.0
C3348 C 0.80055 0.30889 0.32549 0.0
H3349 H 0.82413 0.30797 0.30087 0.0
C3350 C 0.77669 0.29256 0.32358 0.0
C3351 C 0.81764 0.31403 0.31689 0.0
C3352 C 0.84443 0.3298 0.31788 0.0
C3353 C 0.7694 0.28225 0.31379 0.0
C3354 C 0.78659 0.28719 0.30521 0.0
C3355 C 0.81042 0.30359 0.30712 0.0
C3356 C 0.78023 0.27618 0.29434 0.0
C3357 C 0.74235 0.26695 0.31279 0.0
C3358 C 0.77171 0.24852 0.29228 0.0
C3359 C 0.76574 0.23887 0.28233 0.0
C3360 C 0.76829 0.25611 0.27375 0.0
C3361 C 0.7773 0.28357 0.27578 0.0
C3362 C 0.78314 0.29323 0.28572 0.0
H3363 H 0.72764 0.27279 0.31883 0.0
H3364 H 0.73242 0.27114 0.30545 0.0
H3365 H 0.74616 0.24439 0.31345 0.0
H3366 H 0.76993 0.23389 0.29839 0.0
H3367 H 0.75917 0.21759 0.28138 0.0
H3368 H 0.79931 0.31158 0.76133 0.0
H3369 H 0.80852 0.29472 0.77839 0.0
H3370 H 0.75929 0.36084 0.79048 0.0
H3371 H 0.74957 0.37731 0.77341 0.0
H3372 H 0.834 0.31005 0.79449 0.0
H3373 H 0.72589 0.30336 0.80737 0.0
H3374 H 0.7345 0.31023 0.79445 0.0
H3375 H 0.73487 0.3378 0.80357 0.0
C3376 C 0.79024 0.32266 0.76758 0.0
C3377 C 0.7734 0.34608 0.76564 0.0
C3378 C 0.79563 0.31284 0.77752 0.0
C3379 C 0.78436 0.32563 0.78619 0.0
C3380 C 0.76787 0.34937 0.78425 0.0
H3381 H 0.797 0.29611 0.85314 0.0
H3382 H 0.78711 0.31343 0.83616 0.0
C3383 C 0.76245 0.35919 0.7743 0.0
C3384 C 0.79035 0.31453 0.79703 0.0
H3385 H 0.76024 0.29786 0.81991 0.0
C3386 C 0.81759 0.30733 0.79994 0.0
C3387 C 0.76964 0.31053 0.80459 0.0
C3388 C 0.73957 0.3156 0.80234 0.0
C3389 C 0.82455 0.29735 0.80979 0.0
C3390 C 0.80386 0.29334 0.81734 0.0
C3391 C 0.77662 0.30059 0.81444 0.0
C3392 C 0.80992 0.28195 0.82813 0.0
C3393 C 0.85461 0.29216 0.81204 0.0
C3394 C 0.82579 0.25772 0.82989 0.0
C3395 C 0.8315 0.2476 0.83976 0.0
C3396 C 0.82156 0.26091 0.84854 0.0
C3397 C 0.80529 0.28486 0.8468 0.0
C3398 C 0.79952 0.29494 0.83691 0.0
H3399 H 0.86834 0.30435 0.80701 0.0
H3400 H 0.85969 0.29747 0.81993 0.0
H3401 H 0.85922 0.26993 0.81081 0.0
H3402 H 0.83371 0.24615 0.82357 0.0
H3403 H 0.84394 0.22912 0.8405 0.0
H3404 H 0.76302 0.86956 0.34027 0.0
H3405 H 0.77313 0.85207 0.3233 0.0
H3406 H 0.8101 0.77936 0.33609 0.0
H3407 H 0.79989 0.79667 0.35299 0.0
H3408 H 0.81758 0.84003 0.31206 0.0
H3409 H 0.76424 0.73963 0.31606 0.0
H3410 H 0.76076 0.76668 0.32528 0.0
H3411 H 0.79062 0.74449 0.32532 0.0
C3412 C 0.77328 0.84977 0.33956 0.0
C3413 C 0.78035 0.83488 0.34838 0.0
C3414 C 0.77919 0.83958 0.32966 0.0
C3415 C 0.79212 0.81362 0.32793 0.0
C3416 C 0.79946 0.79893 0.33677 0.0
H3417 H 0.84156 0.71427 0.27268 0.0
H3418 H 0.83206 0.73122 0.2898 0.0
C3419 C 0.79376 0.80919 0.34664 0.0
C3420 C 0.79829 0.8024 0.31708 0.0
H3421 H 0.79189 0.74516 0.30148 0.0
C3422 C 0.81167 0.81927 0.30983 0.0
C3423 C 0.79124 0.77514 0.31369 0.0
C3424 C 0.7757 0.75549 0.32044 0.0
C3425 C 0.81854 0.80999 0.29987 0.0
C3426 C 0.81124 0.7828 0.29642 0.0
C3427 C 0.79787 0.76591 0.30369 0.0
C3428 C 0.81706 0.77175 0.2855 0.0
C3429 C 0.83482 0.82952 0.29329 0.0
C3430 C 0.81165 0.78772 0.27677 0.0
C3431 C 0.81736 0.77794 0.26685 0.0
C3432 C 0.8284 0.75127 0.26489 0.0
C3433 C 0.83319 0.73488 0.27356 0.0
C3434 C 0.82762 0.74478 0.28354 0.0
H3435 H 0.84708 0.84438 0.29784 0.0
H3436 H 0.84919 0.81819 0.28828 0.0
H3437 H 0.82031 0.84176 0.28864 0.0
H3438 H 0.80256 0.80802 0.27755 0.0
H3439 H 0.81289 0.7916 0.26063 0.0
H3440 H 0.63154 0.51198 0.0896 0.0
H3441 H 0.61419 0.52264 0.07263 0.0
H3442 H 0.53657 0.54818 0.08532 0.0
H3443 H 0.55399 0.53834 0.10213 0.0
H3444 H 0.57654 0.50576 1.05995 0.0
H3445 H 0.54281 0.61237 0.06765 0.0
H3446 H 0.56271 0.59295 0.07662 0.0
H3447 H 0.52576 0.58829 0.07581 0.0
C3448 C 0.61084 0.52017 0.08885 0.0
C3449 C 0.59468 0.52442 0.09762 0.0
C3450 C 0.60067 0.52629 0.07896 0.0
C3451 C 0.57379 0.53723 0.07721 0.0
C3452 C 0.5576 0.54094 0.086 0.0
H3453 H 0.4707 0.58481 1.02299 0.0
H3454 H 0.48859 0.57411 1.03986 0.0
C3455 C 0.56773 0.53491 0.09584 0.0
C3456 C 0.56258 0.54401 0.06642 0.0
H3457 H 0.52689 0.59275 1.05235 0.0
C3458 C 0.56592 0.525 1.0584 0.0
C3459 C 0.54826 0.56898 0.06384 0.0
C3460 C 0.54489 0.59193 0.0714 0.0
C3461 C 0.55528 0.52962 1.04845 0.0
C3462 C 0.54088 0.55452 1.04589 0.0
C3463 C 0.53755 0.57353 1.05391 0.0
C3464 C 0.52943 0.56123 1.03513 0.0
C3465 C 0.55887 0.50685 1.04084 0.0
C3466 C 0.54568 0.55841 1.02631 0.0
C3467 C 0.53529 0.56461 1.01651 0.0
C3468 C 0.50797 0.57422 1.01484 0.0
C3469 C 0.49172 0.5774 1.02365 0.0
C3470 C 0.50218 0.57124 1.03348 0.0
H3471 H 0.56152 0.48639 1.04451 0.0
H3472 H 0.5409 0.5056 1.03569 0.0
H3473 H 0.57773 0.51101 1.03633 0.0
H3474 H 0.56693 0.55177 1.02694 0.0
H3475 H 0.54904 0.562 1.01017 0.0
H3476 H 0.98098 0.59235 0.59043 0.0
H3477 H 0.99802 0.5811 0.57347 0.0
H3478 H 0.06862 0.5407 0.58637 0.0
H3479 H 0.0516 0.55165 0.60322 0.0
H3480 H 1.04156 0.5936 0.56183 0.0
H3481 H 0.05049 0.48086 0.56719 0.0
H3482 H 1.03345 0.50264 0.57626 0.0
H3483 H 0.07059 0.49984 0.57615 0.0
C3484 C 1.00005 0.58084 0.58974 0.0
C3485 C 1.0144 0.57289 0.59857 0.0
C3486 C 1.01004 0.57436 0.57986 0.0
C3487 C 1.03478 0.5592 0.57817 0.0
C3488 C 0.04918 0.55155 0.58702 0.0
H3489 H 0.12975 0.49719 0.5238 0.0
H3490 H 0.11274 0.5086 0.54074 0.0
C3491 C 1.03933 0.55814 0.59686 0.0
C3492 C 1.04568 0.55206 0.56737 0.0
H3493 H 0.07104 0.49905 0.5524 0.0
C3494 C 0.04775 0.57276 0.55986 0.0
C3495 C 0.05439 0.52503 0.5643 0.0
C3496 C 0.0519 0.50074 0.57135 0.0
C3497 C 0.05841 0.5677 0.54993 0.0
C3498 C 0.06695 0.54061 0.54683 0.0
C3499 C 0.06488 0.51991 0.55436 0.0
C3500 C 0.07786 0.53341 0.53602 0.0
C3501 C 0.06141 0.59219 0.54301 0.0
C3502 C 0.06452 0.54258 0.52713 0.0
C3503 C 0.07451 0.5361 0.5173 0.0
C3504 C 0.09838 0.51968 0.51562 0.0
C3505 C 0.11152 0.51 0.52447 0.0
C3506 C 0.10154 0.51659 0.53434 0.0
H3507 H 0.06351 0.61183 0.54728 0.0
H3508 H 0.07968 0.59004 0.53803 0.0
H3509 H 1.0426 0.5939 0.5383 0.0
H3510 H 1.04576 0.55458 0.52772 0.0
H3511 H 0.06311 0.5439 0.51091 0.0
H3512 H 0.05086 0.55772 0.1105 0.0
H3513 H 1.03463 0.54667 0.09358 0.0
H3514 H 0.11024 0.57933 0.08127 0.0
H3515 H 0.1269 0.58955 0.0983 0.0
H3516 H 1.01909 0.5703 0.07771 0.0
H3517 H 0.11086 0.51462 0.06397 0.0
H3518 H 0.10744 0.52465 0.07692 0.0
H3519 H 0.11932 0.54925 0.06766 0.0
C3520 C 0.06443 0.56237 0.10426 0.0
C3521 C 0.09072 0.57446 0.10616 0.0
C3522 C 0.05486 0.55603 0.09436 0.0
C3523 C 0.0709 0.56124 0.08563 0.0
C3524 C 0.09712 0.57373 0.08752 0.0
H3525 H 1.04211 0.54204 1.01886 0.0
H3526 H 0.05933 0.55286 1.03573 0.0
C3527 C 0.10679 0.57997 0.09746 0.0
C3528 C 0.05979 0.55431 0.07483 0.0
H3529 H 0.07716 0.52592 1.05173 0.0
C3530 C 1.03206 0.56039 0.07214 0.0
C3531 C 0.07573 0.54127 0.06709 0.0
C3532 C 0.10487 0.53179 0.06906 0.0
C3533 C 1.02053 0.5547 0.06241 0.0
C3534 C 1.0365 0.54179 1.05468 0.0
C3535 C 0.06424 0.53577 1.05733 0.0
C3536 C 1.02516 0.53473 1.04393 0.0
C3537 C 0.99122 0.56365 0.06044 0.0
C3538 C 0.9999 0.52028 1.04226 0.0
C3539 C 0.98984 0.51389 1.0324 0.0
C3540 C 1.00438 0.52151 1.02356 0.0
C3541 C 1.02972 0.53572 1.02523 0.0
C3542 C 1.03984 0.54195 1.03508 0.0
H3543 H 0.98477 0.58046 0.06562 0.0
H3544 H 0.98863 0.57102 1.05261 0.0
H3545 H 0.97714 0.54581 0.06168 0.0
H3546 H 0.98789 0.51334 1.04864 0.0
H3547 H 0.9705 0.50272 1.03174 0.0
H3548 H 0.53868 0.53693 0.60932 0.0
H3549 H 0.55484 0.5474 0.59231 0.0
H3550 H 0.47854 0.51579 0.58032 0.0
H3551 H 0.46206 0.50586 0.59743 0.0
H3552 H 0.56926 0.52227 0.57622 0.0
H3553 H 0.47905 0.5817 0.56324 0.0
H3554 H 0.48283 0.57144 0.57616 0.0
H3555 H 0.46973 0.54731 0.567 0.0
C3556 C 0.52497 0.53233 0.60313 0.0
C3557 C 0.49855 0.52061 0.60514 0.0
C3558 C 0.53448 0.53836 0.59318 0.0
C3559 C 0.51822 0.53329 0.58452 0.0
C3560 C 0.49186 0.52118 0.58652 0.0
H3561 H 0.54356 0.55575 0.51767 0.0
H3562 H 0.52695 0.54502 0.53463 0.0
C3563 C 0.4823 0.51514 0.59651 0.0
C3564 C 0.52919 0.54004 0.57366 0.0
H3565 H 0.5121 0.57 0.55082 0.0
C3566 C 0.55652 0.53289 0.57077 0.0
C3567 C 0.51349 0.55393 0.56608 0.0
C3568 C 0.48477 0.56431 0.56827 0.0
C3569 C 0.56786 0.53832 0.56096 0.0
C3570 C 0.55219 0.55227 0.55339 0.0
C3571 C 0.52484 0.55938 0.55627 0.0
C3572 C 0.56331 0.5592 0.54257 0.0
C3573 C 0.59655 0.52787 0.55876 0.0
C3574 C 0.58964 0.57144 0.54068 0.0
C3575 C 0.59945 0.57764 0.53074 0.0
C3576 C 0.58347 0.5722 0.52204 0.0
C3577 C 0.55705 0.56034 0.52393 0.0
C3578 C 0.54729 0.55416 0.53384 0.0
H3579 H 0.60217 0.51036 0.56376 0.0
H3580 H 0.59852 0.52087 0.55087 0.0
H3581 H 0.61166 0.54478 0.5601 0.0
H3582 H 0.60278 0.57682 0.54694 0.0
H3583 H 0.61967 0.58701 0.52992 0.0
H3584 H 0.32387 0.16515 0.3982 0.0
H3585 H 0.35097 0.13801 0.41052 0.0
H3586 H 0.31234 0.18282 0.43458 0.0
H3587 H 0.28685 0.21035 0.42246 0.0
H3588 H 0.35041 0.10205 0.42449 0.0
H3589 H 0.38262 0.19078 0.44729 0.0
H3590 H 0.3457 0.18905 0.44702 0.0
H3591 H 0.36482 0.19554 0.43559 0.0
C3592 C 0.32117 0.16955 0.4061 0.0
C3593 C 0.30268 0.19109 0.40897 0.0
C3594 C 0.33703 0.15366 0.41335 0.0
C3595 C 0.33557 0.15803 0.42399 0.0
C3596 C 0.31618 0.17882 0.42672 0.0
H3597 H 0.45589 0.09784 0.47278 0.0
H3598 H 0.4305 0.12312 0.4597 0.0
C3599 C 0.30081 0.1948 0.41956 0.0
C3600 C 0.35325 0.14115 0.4321 0.0
H3601 H 0.38796 0.14673 0.45496 0.0
C3602 C 0.3585 0.11227 0.43109 0.0
C3603 C 0.36546 0.15301 0.44098 0.0
C3604 C 0.36466 0.18381 0.44275 0.0
C3605 C 0.37395 0.09587 0.4383 0.0
C3606 C 0.38472 0.10745 0.44748 0.0
C3607 C 0.38001 0.13644 0.44835 0.0
C3608 C 0.40121 0.09068 0.45596 0.0
C3609 C 0.37941 0.0661 0.43562 0.0
C3610 C 0.39454 0.0631 0.45905 0.0
C3611 C 0.40974 0.04815 0.46664 0.0
C3612 C 0.43251 0.05967 0.47198 0.0
C3613 C 0.43886 0.08741 0.46912 0.0
C3614 C 0.42386 0.10226 0.46144 0.0
H3615 H 0.37891 0.0629 0.42736 0.0
H3616 H 0.39983 0.05917 0.43842 0.0
H3617 H 0.36301 0.05286 0.43894 0.0
H3618 H 0.37699 0.05277 0.45573 0.0
H3619 H 0.40329 1.02722 0.46839 0.0
H3620 H 0.32425 0.17434 0.7063 0.0
H3621 H 0.29874 0.14981 0.69309 0.0
H3622 H 0.22213 0.17183 0.70739 0.0
H3623 H 0.24772 0.19771 0.72021 0.0
H3624 H 0.27108 0.10968 0.68859 0.0
H3625 H 0.18977 0.18657 0.68195 0.0
H3626 H 0.21872 0.19406 0.68996 0.0
H3627 H 0.18906 0.1754 0.69475 0.0
C3628 C 0.3019 0.17434 0.70668 0.0
C3629 C 0.28877 0.18891 0.71466 0.0
C3630 C 0.28687 0.15985 0.69893 0.0
C3631 C 0.2574 0.15853 0.69852 0.0
C3632 C 0.24436 0.17258 0.7067 0.0
H3633 H 0.15383 0.10353 0.64413 0.0
H3634 H 0.17946 0.1288 0.65721 0.0
C3635 C 0.25939 0.18748 0.71436 0.0
C3636 C 0.24109 0.14225 0.68989 0.0
H3637 H 0.18208 0.14231 0.67485 0.0
C3638 C 0.25166 0.11731 0.68568 0.0
C3639 C 0.21552 0.151 0.68537 0.0
C3640 C 0.20273 0.17834 0.68814 0.0
C3641 C 0.23828 0.10168 0.67775 0.0
C3642 C 0.21195 0.10961 0.67363 0.0
C3643 C 0.2016 0.1348 0.67772 0.0
C3644 C 0.1955 0.09302 0.6651 0.0
C3645 C 0.25376 0.07719 0.67361 0.0
C3646 C 0.1942 0.0635 0.66452 0.0
C3647 C 0.17971 0.04876 0.65672 0.0
C3648 C 0.16455 0.0622 0.64898 0.0
C3649 C 0.16501 0.09162 0.64967 0.0
C3650 C 0.17996 0.10641 0.65739 0.0
H3651 H 0.2764 0.07943 0.67476 0.0
H3652 H 0.24709 0.0582 0.67764 0.0
H3653 H 0.24996 0.07451 0.66547 0.0
H3654 H 0.20404 0.05127 0.67028 0.0
H3655 H 0.18003 1.02636 0.65689 0.0
H3656 H 0.17562 1.01182 0.98178 0.0
H3657 H 0.20228 0.98457 0.96933 0.0
H3658 H 0.16751 1.03338 0.94555 0.0
H3659 H 0.14035 0.05912 0.95772 0.0
H3660 H 0.24108 0.98423 0.95625 0.0
H3661 H 0.15417 0.96715 0.9306 0.0
H3662 H 0.16002 1.00349 0.93206 0.0
H3663 H 0.14911 0.98288 0.94268 0.0
C3664 C 0.1734 1.01684 0.97391 0.0
C3665 C 0.15476 1.0383 0.97112 0.0
C3666 C 0.18898 1.00086 0.96659 0.0
C3667 C 0.18713 1.00513 0.95595 0.0
C3668 C 0.16934 1.0274 0.95334 0.0
H3669 H 0.24347 0.88742 0.90562 0.0
H3670 H 0.21862 0.91308 0.91877 0.0
C3671 C 0.15365 1.04291 0.96055 0.0
C3672 C 0.20353 0.98731 0.94773 0.0
H3673 H 0.19866 0.95788 0.92387 0.0
C3674 C 0.23136 0.97864 0.94922 0.0
C3675 C 0.19219 0.97831 0.93828 0.0
C3676 C 0.16218 0.98315 0.93584 0.0
C3677 C 0.24734 0.96291 0.94195 0.0
C3678 C 0.23644 0.95525 0.93227 0.0
C3679 C 0.20841 0.96336 0.9309 0.0
C3680 C 0.2529 0.9386 0.92374 0.0
C3681 C 0.27579 0.95376 0.94507 0.0
C3682 C 0.28135 0.94314 0.92131 0.0
C3683 C 0.29598 0.92786 0.91365 0.0
C3684 C 0.28332 0.90708 0.9076 0.0
C3685 C 0.25479 0.90285 0.90984 0.0
C3686 C 0.24021 0.91799 0.91756 0.0
H3687 H 0.27757 0.95239 0.95336 0.0
H3688 H 0.28103 0.93325 0.94185 0.0
H3689 H 0.29119 0.96922 0.94245 0.0
H3690 H 0.29267 0.95908 0.92524 0.0
H3691 H 0.3176 0.93262 0.91243 0.0
H3692 H 0.27639 0.92612 0.20652 0.0
H3693 H 0.30167 0.95074 0.19321 0.0
H3694 H 0.37855 0.92856 0.20718 0.0
H3695 H 0.35322 0.90275 0.22013 0.0
H3696 H 0.3296 0.99102 0.18862 0.0
H3697 H 0.40999 0.91341 0.18154 0.0
H3698 H 0.38121 0.90615 0.18969 0.0
H3699 H 0.41115 0.92454 0.19434 0.0
C3700 C 0.29875 0.92612 0.20681 0.0
C3701 C 0.31204 0.91154 0.21474 0.0
C3702 C 0.31364 0.94065 0.199 0.0
C3703 C 0.34311 0.94193 0.19846 0.0
C3704 C 0.35631 0.92786 0.2066 0.0
H3705 H 0.44534 0.99639 0.14347 0.0
H3706 H 0.41987 0.97127 0.15667 0.0
C3707 C 0.34142 0.913 0.21433 0.0
C3708 C 0.3593 0.95814 0.18974 0.0
H3709 H 0.4178 0.95759 0.17437 0.0
C3710 C 0.34885 0.98323 0.1856 0.0
C3711 C 0.38464 0.94918 0.18508 0.0
C3712 C 0.39728 0.92173 0.18779 0.0
C3713 C 0.36216 0.99881 0.17762 0.0
C3714 C 0.38825 0.99063 0.17333 0.0
C3715 C 0.39846 0.96529 0.17735 0.0
C3716 C 0.4046 1.00712 0.16472 0.0
C3717 C 0.34685 1.02356 0.17361 0.0
C3718 C 0.40629 1.03664 0.16417 0.0
C3719 C 0.42073 0.0513 0.15631 0.0
C3720 C 0.43541 1.0378 0.14844 0.0
C3721 C 0.43454 1.00837 0.1491 0.0
C3722 C 0.41968 0.99365 0.15689 0.0
H3723 H 0.32423 1.0216 0.17489 0.0
H3724 H 0.35392 1.0424 0.17761 0.0
H3725 H 0.35039 1.02629 0.16544 0.0
H3726 H 0.39681 0.04891 0.17 0.0
H3727 H 0.42075 0.07371 0.15654 0.0
H3728 H 0.74068 0.88502 0.72329 0.0
H3729 H 0.7158 0.91042 0.71011 0.0
H3730 H 0.78805 0.96046 0.70491 0.0
H3731 H 0.81312 0.93414 0.7177 0.0
H3732 H 0.69371 0.95352 0.705 0.0
H3733 H 0.77614 0.95701 0.67667 0.0
H3734 H 0.77963 0.93676 0.68793 0.0
H3735 H 0.78742 0.97337 0.688 0.0
C3736 C 0.75162 0.90128 0.71934 0.0
C3737 C 0.77972 0.90664 0.72193 0.0
C3738 C 0.73699 0.9163 0.71159 0.0
C3739 C 0.74917 0.93799 0.70574 0.0
C3740 C 0.77717 0.94366 0.70854 0.0
H3741 H 0.67444 1.01413 0.64765 0.0
H3742 H 0.70128 0.98692 0.66004 0.0
C3743 C 0.79186 0.92846 0.7162 0.0
C3744 C 0.73262 0.95454 0.69719 0.0
H3745 H 0.73804 0.98685 0.67376 0.0
C3746 C 0.70392 0.96053 0.69822 0.0
C3747 C 0.74405 0.96414 0.6878 0.0
C3748 C 0.77338 0.95726 0.68495 0.0
C3749 C 0.68755 0.97519 0.69081 0.0
C3750 C 0.69934 0.98625 0.6817 0.0
C3751 C 0.72789 0.9797 0.68054 0.0
C3752 C 0.68269 1.00402 0.67351 0.0
C3753 C 0.65697 0.97739 0.69282 0.0
C3754 C 0.66282 1.02442 0.67619 0.0
C3755 C 0.64701 1.03987 0.66899 0.0
C3756 C 0.64996 1.03712 0.65839 0.0
C3757 C 0.67062 1.0176 0.65555 0.0
C3758 C 0.68635 1.00165 0.66285 0.0
H3759 H 0.64957 0.96007 0.69762 0.0
H3760 H 0.65276 0.99691 0.69691 0.0
H3761 H 0.64485 0.97714 0.68576 0.0
H3762 H 0.65942 1.029 0.68403 0.0
H3763 H 0.63217 0.05461 0.67188 0.0
H3764 H 0.91609 0.06423 0.46022 0.0
H3765 H 0.89055 1.03821 0.44732 0.0
H3766 H 0.94097 0.96693 0.45322 0.0
H3767 H 0.96537 0.9925 0.4664 0.0
H3768 H 0.89172 1.01684 0.43037 0.0
H3769 H 0.87707 0.92064 0.45169 0.0
H3770 H 0.89112 0.95116 0.4575 0.0
H3771 H 0.91313 0.92818 0.45039 0.0
C3772 C 0.92168 1.04283 0.45895 0.0
C3773 C 0.94322 1.03109 0.46487 0.0
C3774 C 0.90679 1.02756 0.45133 0.0
C3775 C 0.91218 0.99924 0.44894 0.0
C3776 C 0.93429 0.98783 0.45473 0.0
H3777 H 0.79822 0.88235 0.41454 0.0
H3778 H 0.82407 0.91007 0.42656 0.0
C3779 C 0.94896 1.00299 0.46242 0.0
C3780 C 0.89544 0.98242 0.44052 0.0
H3781 H 0.8677 0.91793 0.43433 0.0
C3782 C 0.88659 0.99519 0.43141 0.0
C3783 C 0.88717 0.95384 0.44128 0.0
C3784 C 0.89231 0.9377 0.45077 0.0
C3785 C 0.87115 0.98117 0.42354 0.0
C3786 C 0.86399 0.95223 0.42412 0.0
C3787 C 0.87259 0.93963 0.43328 0.0
C3788 C 0.84687 0.93505 0.41587 0.0
C3789 C 0.86175 0.99842 0.41478 0.0
C3790 C 0.84929 0.93814 0.40517 0.0
C3791 C 0.83346 0.92194 0.39798 0.0
C3792 C 0.81439 0.90092 0.40094 0.0
C3793 C 0.81229 0.89778 0.41156 0.0
C3794 C 0.82766 0.91405 0.41867 0.0
H3795 H 0.86076 1.02074 0.41676 0.0
H3796 H 0.87679 0.9962 0.40855 0.0
H3797 H 0.84103 0.99182 0.41213 0.0
H3798 H 0.86405 0.95282 0.40219 0.0
H3799 H 0.83672 0.92561 0.39006 0.0
H3800 H 0.94195 0.10389 0.15262 0.0
H3801 H 0.91615 0.1288 0.16575 0.0
H3802 H 0.89647 0.05118 0.17989 0.0
H3803 H 0.92081 1.02651 0.16652 0.0
H3804 H 0.91429 0.14352 0.18341 0.0
H3805 H 0.82304 0.07588 0.18484 0.0
H3806 H 0.85349 0.05639 0.18759 0.0
H3807 H 0.84906 0.07169 0.17532 0.0
C3808 C 0.93186 0.09184 0.15842 0.0
C3809 C 0.93385 0.06243 0.15804 0.0
C3810 C 0.91679 0.10645 0.16617 0.0
C3811 C 0.90254 0.09289 0.17421 0.0
C3812 C 0.9053 0.06344 0.17391 0.0
H3813 H 0.773 0.17053 0.21614 0.0
H3814 H 0.79867 0.14635 0.20289 0.0
C3815 C 0.91998 0.04887 0.1661 0.0
C3816 C 0.88591 0.10924 0.18277 0.0
H3817 H 0.82786 0.1073 0.19836 0.0
C3818 C 0.89534 0.1352 0.18655 0.0
C3819 C 0.86027 0.10026 0.18725 0.0
C3820 C 0.84567 0.07473 0.18348 0.0
C3821 C 0.88123 0.15117 0.19423 0.0
C3822 C 0.85641 0.14144 0.1991 0.0
C3823 C 0.84672 0.11572 0.19519 0.0
C3824 C 0.83996 0.15745 0.20779 0.0
C3825 C 0.89298 0.17927 0.19666 0.0
C3826 C 0.85289 0.17268 0.21572 0.0
C3827 C 0.83772 0.18731 0.22342 0.0
C3828 C 0.80834 0.18736 0.22403 0.0
C3829 C 0.79535 0.17163 0.21629 0.0
C3830 C 0.81048 0.15735 0.20851 0.0
H3831 H 0.90515 0.18775 0.19028 0.0
H3832 H 0.87643 0.19428 0.19852 0.0
H3833 H 0.90719 0.17742 0.20315 0.0
H3834 H 0.87516 0.17311 0.21617 0.0
H3835 H 0.84935 0.19851 0.22905 0.0
H3836 H 0.69201 0.06032 0.97069 0.0
H3837 H 0.72024 0.0861 0.95826 0.0
H3838 H 0.64855 0.09562 0.9396 0.0
H3839 H 0.62119 0.06925 0.95159 0.0
H3840 H 0.73011 0.13195 0.94978 0.0
H3841 H 0.69203 0.07686 0.91662 0.0
H3842 H 0.66359 0.09283 0.92293 0.0
H3843 H 0.68294 0.06574 0.92907 0.0
C3844 C 0.68204 0.06782 0.96396 0.0
C3845 C 0.65342 0.06191 0.96252 0.0
C3846 C 0.69857 0.08288 0.95663 0.0
C3847 C 0.68783 0.09304 0.9473 0.0
C3848 C 0.65906 0.08774 0.94614 0.0
H3849 H 0.78729 0.15675 0.89223 0.0
H3850 H 0.761 0.12861 0.90456 0.0
C3851 C 0.64279 0.07259 0.95333 0.0
C3852 C 0.70583 0.1093 0.93907 0.0
H3853 H 0.7155 0.11936 0.91332 0.0
C3854 C 0.72657 0.12881 0.94184 0.0
C3855 C 0.70323 0.10596 0.92836 0.0
C3856 C 0.68451 0.08401 0.92405 0.0
C3857 C 0.74313 0.14457 0.93475 0.0
C3858 C 0.73925 0.14258 0.92404 0.0
C3859 C 0.71909 0.12246 0.92126 0.0
C3860 C 0.75563 0.16058 0.91583 0.0
C3861 C 0.76574 0.16249 0.93904 0.0
C3862 C 0.76192 0.18913 0.9172 0.0
C3863 C 0.77741 0.20532 0.91008 0.0
C3864 C 0.7874 0.1949 0.90075 0.0
C3865 C 0.78035 0.16658 0.89908 0.0
C3866 C 0.76502 0.15009 0.90635 0.0
H3867 H 0.773 0.15437 0.94638 0.0
H3868 H 0.78379 0.1638 0.93392 0.0
H3869 H 0.75756 0.1836 0.94038 0.0
H3870 H 0.75464 0.19953 0.92386 0.0
H3871 H 0.78161 0.22669 0.912 0.0
H3872 H 0.81479 0.71792 0.91878 0.0
H3873 H 0.84072 0.69017 0.93077 0.0
H3874 H 0.82761 0.61815 0.91242 0.0
H3875 H 0.80262 0.64662 0.90007 0.0
H3876 H 0.83829 0.65611 0.94383 0.0
H3877 H 0.90063 0.59309 0.91797 0.0
H3878 H 0.88031 0.62169 0.91352 0.0
H3879 H 0.86442 0.58838 0.91579 0.0
C3880 C 0.81768 0.69623 0.91704 0.0
C3881 C 0.80633 0.68558 0.90794 0.0
C3882 C 0.83277 0.67981 0.92418 0.0
C3883 C 0.83781 0.65098 0.92297 0.0
C3884 C 0.82604 0.64006 0.9139 0.0
H3885 H 0.96694 0.55453 0.95848 0.0
H3886 H 0.93936 0.58053 0.94649 0.0
C3887 C 0.8111 0.65673 0.90663 0.0
C3888 C 0.85435 0.63337 0.93124 0.0
H3889 H 0.90132 0.57963 0.93496 0.0
C3890 C 0.8521 0.63953 0.94169 0.0
C3891 C 0.87341 0.61123 0.92917 0.0
C3892 C 0.88014 0.60332 0.91852 0.0
C3893 C 0.86714 0.62532 0.94958 0.0
C3894 C 0.88542 0.60252 0.94755 0.0
C3895 C 0.88774 0.59642 0.93709 0.0
C3896 C 0.90301 0.58586 0.95578 0.0
C3897 C 0.86382 0.63616 0.9601 0.0
C3898 C 0.89356 0.57851 0.96566 0.0
C3899 C 0.91021 0.56345 0.9729 0.0
C3900 C 0.93749 0.55412 0.97076 0.0
C3901 C 0.94656 0.56103 0.96086 0.0
C3902 C 0.9302 0.57619 0.95374 0.0
H3903 H 0.85691 0.65807 0.96013 0.0
H3904 H 0.8478 0.62378 0.96405 0.0
H3905 H 0.88349 0.63487 0.96434 0.0
H3906 H 0.87275 0.5838 0.96786 0.0
H3907 H 0.90129 0.55863 0.98015 0.0
H3908 H 0.67828 0.52874 0.15572 0.0
H3909 H 0.70291 0.55429 0.1689 0.0
H3910 H 0.67769 0.63106 0.15543 0.0
H3911 H 0.65186 0.60537 0.14261 0.0
H3912 H 0.74253 0.58303 0.17325 0.0
H3913 H 0.66364 0.6615 0.18129 0.0
H3914 H 0.65655 0.63275 0.17312 0.0
H3915 H 0.67398 0.66326 0.16841 0.0
C3916 C 0.6776 0.55113 0.15552 0.0
C3917 C 0.66217 0.56424 0.14776 0.0
C3918 C 0.69215 0.56619 0.16325 0.0
C3919 C 0.69263 0.5957 0.16389 0.0
C3920 C 0.67768 0.60876 0.15593 0.0
H3921 H 0.7478 0.69714 0.21892 0.0
H3922 H 0.72255 0.67171 0.20578 0.0
C3923 C 0.66279 0.59367 0.14827 0.0
C3924 C 0.70895 0.61202 0.17254 0.0
H3925 H 0.70793 0.67 0.18817 0.0
C3926 C 0.73447 0.60201 0.17642 0.0
C3927 C 0.69969 0.637 0.17738 0.0
C3928 C 0.67186 0.64913 0.17494 0.0
C3929 C 0.75016 0.61538 0.18434 0.0
C3930 C 0.74165 0.64115 0.18881 0.0
C3931 C 0.71589 0.65093 0.18504 0.0
C3932 C 0.75823 0.65755 0.19737 0.0
C3933 C 0.77544 0.60047 0.18809 0.0
C3934 C 0.78768 0.65987 0.19769 0.0
C3935 C 0.80245 0.6743 0.20552 0.0
C3936 C 0.78908 0.68836 0.21356 0.0
C3937 C 0.75969 0.68687 0.21313 0.0
C3938 C 0.74489 0.67202 0.20538 0.0
H3939 H 0.77392 0.57783 0.18672 0.0
H3940 H 0.79386 0.60813 0.18396 0.0
H3941 H 0.77854 0.60376 0.19624 0.0
H3942 H 0.79982 0.6509 0.19173 0.0
H3943 H 0.8248 0.67478 0.20513 0.0
H3944 H 0.81426 0.42336 0.41511 0.0
H3945 H 0.7881 0.44779 0.42818 0.0
H3946 H 0.7121 0.42052 0.41465 0.0
H3947 H 0.73839 0.39483 0.40199 0.0
H3948 H 0.75875 0.48678 0.43244 0.0
H3949 H 0.68125 0.40646 0.44041 0.0
H3950 H 0.71024 0.39975 0.43233 0.0
H3951 H 0.67962 0.41645 0.4275 0.0
C3952 C 0.79192 0.4222 0.41488 0.0
C3953 C 0.77919 0.40623 0.40716 0.0
C3954 C 0.7765 0.43661 0.42254 0.0
C3955 C 0.74701 0.43644 0.42313 0.0
C3956 C 0.73436 0.42099 0.4152 0.0
H3957 H 0.64251 0.49123 0.47745 0.0
H3958 H 0.66884 0.46597 0.46455 0.0
C3959 C 0.74979 0.40619 0.40763 0.0
C3960 C 0.73024 0.45262 0.43168 0.0
H3961 H 0.67174 0.45089 0.44705 0.0
C3962 C 0.73978 0.47843 0.43555 0.0
C3963 C 0.70524 0.44298 0.43644 0.0
C3964 C 0.69361 0.41479 0.43406 0.0
C3965 C 0.72594 0.49405 0.44337 0.0
C3966 C 0.70012 0.48517 0.44773 0.0
C3967 C 0.69082 0.45913 0.44399 0.0
C3968 C 0.68315 0.5017 0.45614 0.0
C3969 C 0.74043 0.51965 0.44714 0.0
C3970 C 0.68058 0.53116 0.45636 0.0
C3971 C 0.66568 0.54592 0.46405 0.0
C3972 C 0.65131 0.53255 0.47204 0.0
C3973 C 0.65301 0.50312 0.47171 0.0
C3974 C 0.66838 0.48833 0.46409 0.0
H3975 H 0.76312 0.51841 0.44591 0.0
H3976 H 0.73286 0.53791 0.44292 0.0
H3977 H 0.73671 0.52288 0.45527 0.0
H3978 H 0.68974 0.5433 0.45041 0.0
H3979 H 0.66505 0.56829 0.46358 0.0
H3980 H 0.79687 0.39027 0.69922 0.0
H3981 H 0.8237 0.41714 0.68718 0.0
H3982 H 0.86097 0.46234 0.71148 0.0
H3983 H 0.83265 0.43601 0.7236 0.0
H3984 H 0.86836 0.42444 0.67998 0.0
H3985 H 0.85801 0.52885 0.69601 0.0
H3986 H 0.87346 0.50542 0.70476 0.0
H3987 H 0.83819 0.50011 0.70076 0.0
C3988 C 0.81053 0.40609 0.70216 0.0
C3989 C 0.81161 0.41022 0.71275 0.0
C3990 C 0.82646 0.42183 0.69505 0.0
C3991 C 0.84523 0.4432 0.69784 0.0
C3992 C 0.8466 0.4473 0.70851 0.0
H3993 H 0.91716 0.56863 0.65277 0.0
H3994 H 0.89063 0.54344 0.66566 0.0
C3995 C 0.83019 0.43163 0.71569 0.0
C3996 C 0.86304 0.45973 0.68963 0.0
H3997 H 0.89058 0.52402 0.6829 0.0
C3998 C 0.87285 0.4463 0.68079 0.0
C3999 C 0.86972 0.48879 0.68992 0.0
C4000 C 0.8591 0.50676 0.6983 0.0
C4001 C 0.88814 0.45989 0.67281 0.0
C4002 C 0.89589 0.48864 0.67331 0.0
C4003 C 0.88586 0.50221 0.68209 0.0
C4004 C 0.91327 0.50484 0.6649 0.0
C4005 C 0.89465 0.44289 0.66364 0.0
C4006 C 0.93627 0.49329 0.65962 0.0
C4007 C 0.95152 0.50793 0.65194 0.0
C4008 C 0.94549 0.53562 0.64902 0.0
C4009 C 0.92303 0.54751 0.65444 0.0
C4010 C 0.90756 0.53275 0.66204 0.0
H4011 H 0.8798 0.42548 0.66274 0.0
H4012 H 0.89403 0.45562 0.65671 0.0
H4013 H 0.91555 0.43378 0.66444 0.0
H4014 H 0.94316 0.47271 0.66153 0.0
H4015 H 0.96861 0.49742 0.64835 0.0
H4016 H 0.28596 0.44711 0.22904 0.0
H4017 H 0.26067 0.47524 0.2165 0.0
H4018 H 0.24983 0.40289 0.19817 0.0
H4019 H 0.27559 0.37559 0.21026 0.0
H4020 H 0.21453 0.48497 0.20794 0.0
H4021 H 0.27044 0.44588 0.17513 0.0
H4022 H 0.25403 0.41752 0.18142 0.0
H4023 H 0.28089 0.43701 0.18767 0.0
C4024 C 0.27823 0.43696 0.22237 0.0
C4025 C 0.28355 0.40817 0.22105 0.0
C4026 C 0.26347 0.45343 0.21498 0.0
C4027 C 0.25313 0.44244 0.20571 0.0
C4028 C 0.25786 0.41354 0.20467 0.0
H4029 H 0.19103 0.54052 0.15018 0.0
H4030 H 0.21911 0.515 0.16268 0.0
C4031 C 0.27265 0.39732 0.21192 0.0
C4032 C 0.23728 0.46029 0.19738 0.0
H4033 H 0.22804 0.46909 0.17157 0.0
C4034 C 0.21786 0.48115 0.20002 0.0
C4035 C 0.24093 0.45734 0.18669 0.0
C4036 C 0.26291 0.43849 0.18254 0.0
C4037 C 0.20238 0.49745 0.19281 0.0
C4038 C 0.20465 0.49316 0.18213 0.0
C4039 C 0.22475 0.47295 0.17949 0.0
C4040 C 0.18684 0.5091 0.17382 0.0
C4041 C 0.18442 0.52022 0.19694 0.0
C4042 C 0.15822 0.51479 0.17507 0.0
C4043 C 0.14206 0.52972 0.16785 0.0
C4044 C 0.15263 0.5398 0.15854 0.0
C4045 C 0.1811 0.53346 0.15701 0.0
C4046 C 0.19754 0.51858 0.16437 0.0
H4047 H 0.19239 0.52786 0.20425 0.0
H4048 H 0.18321 0.53806 0.19171 0.0
H4049 H 0.1633 0.51201 0.19828 0.0
H4050 H 0.14774 0.50741 0.18172 0.0
H4051 H 0.12058 0.53343 0.16968 0.0
H4052 H 0.4587 0.49775 0.96564 0.0
H4053 H 0.43321 0.47282 0.95246 0.0
H4054 H 0.38386 0.54527 0.94725 0.0
H4055 H 0.41013 0.57034 0.96008 0.0
H4056 H 0.3893 0.45095 0.94744 0.0
H4057 H 0.38888 0.533 0.91896 0.0
H4058 H 0.40874 0.53598 0.93031 0.0
H4059 H 0.37245 0.54477 0.93021 0.0
C4060 C 0.44256 0.50871 0.9617 0.0
C4061 C 0.43734 0.53685 0.9643 0.0
C4062 C 0.4275 0.49407 0.95395 0.0
C4063 C 0.40597 0.50629 0.94811 0.0
C4064 C 0.40048 0.53434 0.9509 0.0
H4065 H 0.33136 0.43073 0.88987 0.0
H4066 H 0.35889 0.45731 0.90229 0.0
C4067 C 0.41567 0.54904 0.95858 0.0
C4068 C 0.38944 0.48975 0.93954 0.0
H4069 H 0.35844 0.49525 0.91593 0.0
C4070 C 0.38281 0.46114 0.9406 0.0
C4071 C 0.38052 0.50117 0.93009 0.0
C4072 C 0.38822 0.53031 0.92723 0.0
C4073 C 0.36811 0.44487 0.93316 0.0
C4074 C 0.35782 0.45669 0.92396 0.0
C4075 C 0.36502 0.48512 0.92277 0.0
C4076 C 0.34004 0.44021 0.91574 0.0
C4077 C 0.36495 0.41435 0.93523 0.0
C4078 C 0.31867 0.4213 0.9184 0.0
C4079 C 0.30298 0.40573 0.9112 0.0
C4080 C 0.30654 0.4079 0.90059 0.0
C4081 C 0.32722 0.42753 0.89776 0.0
C4082 C 0.34333 0.44311 0.90508 0.0
H4083 H 0.38179 0.40666 0.94014 0.0
H4084 H 0.34514 0.41067 0.93922 0.0
H4085 H 0.36517 0.40205 0.9282 0.0
H4086 H 0.3135 0.41853 0.92623 0.0
H4087 H 0.28739 0.3917 0.91409 0.0
H4088 H 0.45338 0.59872 0.65492 0.0
H4089 H 0.42842 0.62335 0.66829 0.0
H4090 H 0.37844 0.55095 0.67341 0.0
H4091 H 0.4044 0.5261 0.66046 0.0
H4092 H 0.38595 0.64552 0.67373 0.0
H4093 H 0.38209 0.56199 0.70163 0.0
H4094 H 0.40214 0.55871 0.69032 0.0
H4095 H 0.36551 0.55121 0.69029 0.0
C4096 C 0.43722 0.58769 0.6589 0.0
C4097 C 0.43177 0.55961 0.65624 0.0
C4098 C 0.42247 0.60217 0.66676 0.0
C4099 C 0.40094 0.58987 0.67265 0.0
C4100 C 0.39515 0.56191 0.66977 0.0
H4101 H 0.3261 0.66247 0.73134 0.0
H4102 H 0.35273 0.63589 0.7187 0.0
C4103 C 0.41013 0.54735 0.66201 0.0
C4104 C 0.38467 0.60627 0.68133 0.0
H4105 H 0.35264 0.60023 0.70478 0.0
C4106 C 0.37895 0.6351 0.68047 0.0
C4107 C 0.3751 0.59455 0.69068 0.0
C4108 C 0.38176 0.56503 0.69337 0.0
C4109 C 0.3646 0.65135 0.68801 0.0
C4110 C 0.35354 0.6393 0.69707 0.0
C4111 C 0.3598 0.6106 0.69806 0.0
C4112 C 0.33611 0.6558 0.70541 0.0
C4113 C 0.36278 0.68208 0.68618 0.0
C4114 C 0.31618 0.67632 0.70292 0.0
C4115 C 0.30113 0.69202 0.71027 0.0
C4116 C 0.30375 0.68824 0.72085 0.0
C4117 C 0.32275 0.66691 0.72348 0.0
C4118 C 0.33835 0.65134 0.71603 0.0
H4119 H 0.3801 0.68947 0.68138 0.0
H4120 H 0.3433 0.68672 0.68214 0.0
H4121 H 0.36328 0.69393 0.6933 0.0
H4122 H 0.31165 0.68035 0.69513 0.0
H4123 H 0.28679 0.70744 0.70753 0.0
H4124 H 0.19955 0.55956 0.47168 0.0
H4125 H 0.22723 0.58555 0.45911 0.0
H4126 H 0.15777 0.58538 0.43906 0.0
H4127 H 0.13097 0.55915 0.45123 0.0
H4128 H 0.2328 0.63175 0.44967 0.0
H4129 H 0.20758 0.56524 0.41769 0.0
H4130 H 0.17631 0.57905 0.42281 0.0
H4131 H 0.19738 0.55603 0.43024 0.0
C4132 C 0.18997 0.56495 0.46461 0.0
C4133 C 0.16215 0.55648 0.46285 0.0
C4134 C 0.20616 0.58013 0.45722 0.0
C4135 C 0.19587 0.58768 0.44751 0.0
C4136 C 0.1679 0.57968 0.44598 0.0
H4137 H 0.29716 0.65093 0.39291 0.0
H4138 H 0.27217 0.62245 0.40548 0.0
C4139 C 0.15195 0.56459 0.45325 0.0
C4140 C 0.21338 0.60407 0.43922 0.0
H4141 H 0.22635 0.60954 0.41349 0.0
C4142 C 0.2311 0.6265 0.44179 0.0
C4143 C 0.21308 0.59808 0.42862 0.0
C4144 C 0.19784 0.57312 0.42468 0.0
C4145 C 0.24685 0.64261 0.43458 0.0
C4146 C 0.24516 0.6378 0.42391 0.0
C4147 C 0.22811 0.61478 0.42137 0.0
C4148 C 0.26069 0.65586 0.41553 0.0
C4149 C 0.26629 0.66411 0.43873 0.0
C4150 C 0.2631 0.68518 0.41612 0.0
C4151 C 0.27782 0.7016 0.40887 0.0
C4152 C 0.29079 0.6905 0.40015 0.0
C4153 C 0.28768 0.66125 0.39924 0.0
C4154 C 0.27312 0.64459 0.40666 0.0
H4155 H 0.27348 0.65841 0.44637 0.0
H4156 H 0.28469 0.66681 0.43386 0.0
H4157 H 0.25529 0.68416 0.43936 0.0
H4158 H 0.25334 0.69597 0.42227 0.0
H4159 H 0.27902 0.72368 0.41019 0.0
H4160 H 0.17536 0.13304 0.33733 0.0
H4161 H 0.16077 0.10433 0.32335 0.0
H4162 H 0.12966 1.04282 0.34399 0.0
H4163 H 0.14444 0.07163 0.35812 0.0
H4164 H 0.16816 1.02224 0.3321 0.0
H4165 H 0.09409 0.07794 0.30823 0.0
H4166 H 0.12228 0.10047 0.31132 0.0
H4167 H 0.1001 0.0875 0.32116 0.0
C4168 C 0.16438 0.11396 0.33892 0.0
C4169 C 0.16132 0.10443 0.34882 0.0
C4170 C 0.15587 0.09757 0.33089 0.0
C4171 C 0.14388 0.0715 0.33261 0.0
C4172 C 0.13876 0.06293 0.3425 0.0
H4173 H 0.14644 0.9671 0.27805 0.0
H4174 H 0.12701 0.9866 0.29356 0.0
C4175 C 0.14737 0.0793 0.35055 0.0
C4176 C 0.14236 0.05145 0.32424 0.0
H4177 H 0.12713 0.04771 0.2993 0.0
C4178 C 0.15837 1.02735 0.32502 0.0
C4179 C 0.12941 0.05786 0.31503 0.0
C4180 C 0.11027 0.08223 0.31394 0.0
C4181 C 0.16407 1.01111 0.31659 0.0
C4182 C 0.15369 1.01936 0.30717 0.0
C4183 C 0.13543 1.04177 0.30654 0.0
C4184 C 0.16479 1.00744 0.29784 0.0
C4185 C 0.18259 0.98623 0.31768 0.0
C4186 C 0.19226 1.01307 0.29515 0.0
C4187 C 0.2033 1.00216 0.28635 0.0
C4188 C 0.18705 0.98536 0.28011 0.0
C4189 C 0.15945 0.97979 0.2828 0.0
C4190 C 0.14831 0.99096 0.29159 0.0
H4191 H 0.18264 0.97833 0.32551 0.0
H4192 H 0.176 0.9693 0.31257 0.0
H4193 H 0.20407 0.99219 0.31568 0.0
H4194 H 0.20515 1.02598 0.29988 0.0
H4195 H 0.22467 1.00659 0.28449 0.0
H4196 H 0.17879 0.06699 0.58075 0.0
H4197 H 0.17711 0.08608 0.56375 0.0
H4198 H 0.19299 1.00473 0.5517 0.0
H4199 H 0.19479 0.98579 0.56853 0.0
H4200 H 0.22176 0.08665 0.55318 0.0
H4201 H 0.14618 1.03396 0.5296 0.0
H4202 H 0.14186 1.0363 0.54305 0.0
H4203 H 0.16078 1.00794 0.53752 0.0
C4204 C 0.18145 0.05316 0.57443 0.0
C4205 C 0.1876 1.02501 0.57595 0.0
C4206 C 0.18006 0.06403 0.56474 0.0
C4207 C 0.18451 1.04686 0.55641 0.0
C4208 C 0.18853 1.01835 0.55794 0.0
H4209 H 0.28728 0.98838 0.52464 0.0
H4210 H 0.2451 1.00798 0.53148 0.0
C4211 C 0.18996 1.00752 0.56761 0.0
C4212 C 0.1921 0.05877 0.54655 0.0
H4213 H 0.19561 1.03427 0.5227 0.0
C4214 C 0.2152 0.07642 0.54635 0.0
C4215 C 0.18301 1.04649 0.53753 0.0
C4216 C 0.15634 1.03041 0.53695 0.0
C4217 C 0.23275 0.07704 0.53799 0.0
C4218 C 0.22666 0.05973 0.52974 0.0
C4219 C 0.20067 1.04684 0.52919 0.0
C4220 C 0.24951 1.04747 0.52393 0.0
C4221 C 0.25973 0.09267 0.5387 0.0
C4222 C 0.26584 0.06311 0.51733 0.0
C4223 C 0.29024 0.0519 0.51343 0.0
C4224 C 0.29846 1.02492 0.51607 0.0
C4225 C 0.28142 1.00908 0.52239 0.0
C4226 C 0.25721 1.02024 0.52626 0.0
H4227 H 0.26068 0.10606 0.54547 0.0
H4228 H 0.27721 0.07785 0.53899 0.0
H4229 H 0.26252 0.1059 0.53197 0.0
H4230 H 0.26017 0.08414 0.51544 0.0
H4231 H 0.30278 0.06438 0.50842 0.0
H4232 H 0.45539 0.08405 0.76749 0.0
H4233 H 0.47214 0.05727 0.78189 0.0
H4234 H 0.41409 0.09951 0.80109 0.0
H4235 H 0.39749 0.12628 0.78684 0.0
H4236 H 0.46628 0.09028 0.81005 0.0
H4237 H 0.42227 0.99494 0.79249 0.0
H4238 H 0.44823 1.01399 0.7857 0.0
H4239 H 0.41472 1.02892 0.78762 0.0
C4240 C 0.44648 0.08776 0.77482 0.0
C4241 C 0.42494 0.10698 0.77605 0.0
C4242 C 0.45608 0.07254 0.78301 0.0
C4243 C 0.44405 0.0762 0.79248 0.0
C4244 C 0.42369 0.09648 0.79382 0.0
H4245 H 0.38442 1.02388 0.84498 0.0
H4246 H 0.40563 1.0463 0.83053 0.0
C4247 C 0.41422 0.11177 0.78568 0.0
C4248 C 0.45005 0.05733 0.80089 0.0
H4249 H 0.43131 0.99365 0.80965 0.0
C4250 C 0.45945 0.06887 0.80992 0.0
C4251 C 0.44135 1.02933 0.80064 0.0
C4252 C 0.43095 1.01593 0.79113 0.0
C4253 C 0.45785 0.05396 0.8189 0.0
C4254 C 0.44642 1.02705 0.8188 0.0
C4255 C 0.43991 1.01442 0.80964 0.0
C4256 C 0.43589 1.0141 0.82804 0.0
C4257 C 0.46657 0.06775 0.82854 0.0
C4258 C 0.44557 0.98829 0.83127 0.0
C4259 C 0.43353 0.97543 0.8396 0.0
C4260 C 0.41143 0.9881 0.84471 0.0
C4261 C 0.40177 1.01388 0.84136 0.0
C4262 C 0.41391 1.02674 0.83312 0.0
H4263 H 0.48267 0.08375 0.82715 0.0
H4264 H 0.44843 0.07814 0.83196 0.0
H4265 H 0.47464 0.05238 0.83399 0.0
H4266 H 0.46227 0.97812 0.82732 0.0
H4267 H 0.44158 0.95567 0.84206 0.0
H4268 H 0.25474 0.21766 1.0144 0.0
H4269 H 0.28699 0.2455 1.02445 0.0
H4270 H 0.25897 0.20343 1.0512 0.0
H4271 H 0.2263 0.1767 1.04132 0.0
H4272 H 0.27514 0.25759 1.05504 0.0
H4273 H 0.35486 0.20196 1.03243 0.0
H4274 H 0.33173 0.22586 1.02645 0.0
H4275 H 0.3189 0.19318 1.03096 0.0
C4276 C 0.25489 0.21515 1.02247 0.0
C4277 C 0.23863 0.19456 1.02709 0.0
C4278 C 0.2734 0.23093 1.02819 0.0
C4279 C 0.27588 0.22605 1.03853 0.0
C4280 C 0.25754 0.20753 1.04322 0.0
H4281 H 0.34183 0.15033 0.07932 0.0
H4282 H 0.32414 0.1778 0.06542 0.0
C4283 C 0.23907 0.19198 1.03756 0.0
C4284 C 0.30014 0.23543 1.04437 0.0
H4285 H 0.36383 0.20895 1.04939 0.0
C4286 C 0.29515 0.24826 1.05365 0.0
C4287 C 0.32644 0.22366 1.04248 0.0
C4288 C 0.33352 0.21038 1.03255 0.0
C4289 C 0.31374 0.24515 0.06163 0.0
C4290 C 0.33778 0.22923 0.06015 0.0
C4291 C 0.34506 0.22085 1.05045 0.0
C4292 C 0.34971 0.21358 0.06856 0.0
C4293 C 0.30577 0.25534 0.07191 0.0
C4294 C 0.37003 0.22473 0.07485 0.0
C4295 C 0.38016 0.209 0.08287 0.0
C4296 C 0.36991 0.1821 0.08466 0.0
C4297 C 0.34981 0.17109 0.07822 0.0
C4298 C 0.33983 0.18668 0.07025 0.0
H4299 H 0.28918 0.27117 0.07155 0.0
H4300 H 0.2982 0.23763 0.07647 0.0
H4301 H 0.32402 0.26431 0.07578 0.0
H4302 H 0.37781 0.24549 0.07361 0.0
H4303 H 0.39555 0.21802 0.08778 0.0
H4304 H 0.95687 0.95679 0.78181 0.0
H4305 H 0.98129 0.97519 0.79656 0.0
H4306 H 0.90628 1.01516 0.80627 0.0
H4307 H 0.88189 0.99686 0.79169 0.0
H4308 H 0.98595 1.03408 0.80218 0.0
H4309 H 0.93438 0.97053 0.83114 0.0
H4310 H 0.93634 0.96018 0.81812 0.0
H4311 H 0.91008 0.98397 0.82223 0.0
C4312 C 0.94562 0.9693 0.78717 0.0
C4313 C 0.91751 0.97545 0.78564 0.0
C4314 C 0.95958 0.97979 0.79553 0.0
C4315 C 0.94542 0.99612 0.80253 0.0
C4316 C 0.9174 1.0022 0.80101 0.0
H4317 H 0.93508 0.12873 0.83457 0.0
H4318 H 0.95511 0.09622 0.82283 0.0
C4319 C 0.90356 0.99198 0.79265 0.0
C4320 C 0.95955 1.00823 0.81128 0.0
H4321 H 0.94764 1.01717 0.83616 0.0
C4322 C 0.97842 1.02989 0.8097 0.0
C4323 C 0.95051 1.0021 0.82109 0.0
C4324 C 0.93194 0.97769 0.82327 0.0
C4325 C 0.98547 0.04793 0.81755 0.0
C4326 C 0.97275 1.04439 0.82703 0.0
C4327 C 0.95708 1.02037 0.82887 0.0
C4328 C 0.96959 0.06761 0.8342 0.0
C4329 C 1.00501 0.07156 0.81541 0.0
C4330 C 0.97169 0.06299 0.84458 0.0
C4331 C 0.95964 0.08149 0.85134 0.0
C4332 C 0.9455 0.10492 0.84781 0.0
C4333 C 0.94605 0.11099 0.83752 0.0
C4334 C 0.9578 0.09241 0.83077 0.0
H4335 H 1.02198 0.06464 0.81039 0.0
H4336 H 0.99373 0.08824 0.81143 0.0
H4337 H 1.0141 0.08014 0.8224 0.0
H4338 H 0.98063 1.044 0.8474 0.0
H4339 H 0.95977 0.07653 0.85927 0.0
H4340 H 0.71534 0.17378 0.58574 0.0
H4341 H 0.74882 0.18715 0.57287 0.0
H4342 H 0.81324 0.18999 0.59516 0.0
H4343 H 0.78022 0.1755 0.60801 0.0
H4344 H 0.79058 0.23007 0.56974 0.0
H4345 H 0.83362 0.12472 0.5765 0.0
H4346 H 0.80082 0.13536 0.58161 0.0
H4347 H 0.83243 0.14777 0.58706 0.0
C4348 C 0.73656 0.17762 0.58793 0.0
C4349 C 0.74526 0.17294 0.59785 0.0
C4350 C 0.75557 0.18557 0.5806 0.0
C4351 C 0.78351 0.18907 0.58307 0.0
C4352 C 0.79177 0.18708 0.59312 0.0
H4353 H 0.90989 0.15878 0.538 0.0
H4354 H 0.89058 0.17591 0.55373 0.0
C4355 C 0.77281 0.17894 0.60046 0.0
C4356 C 0.80422 0.1902 0.57495 0.0
H4357 H 0.85048 0.14916 0.56275 0.0
C4358 C 0.8041 0.21265 0.56828 0.0
C4359 C 0.82179 0.16741 0.5731 0.0
C4360 C 0.82219 0.14232 0.57988 0.0
C4361 C 0.82047 0.21246 0.55957 0.0
C4362 C 0.8368 0.18893 0.55744 0.0
C4363 C 0.83801 0.16722 0.56441 0.0
C4364 C 0.85013 0.18447 0.54758 0.0
C4365 C 0.81971 0.23718 0.55267 0.0
C4366 C 0.83396 0.18413 0.53885 0.0
C4367 C 0.84502 0.17467 0.52982 0.0
C4368 C 0.87234 0.16489 0.52938 0.0
C4369 C 0.88885 0.16638 0.53804 0.0
C4370 C 0.87784 0.17611 0.54705 0.0
H4371 H 0.8155 0.25648 0.55693 0.0
H4372 H 0.83945 0.23969 0.54851 0.0
H4373 H 0.80274 0.23442 0.54717 0.0
H4374 H 0.81233 0.1898 0.53912 0.0
H4375 H 0.83189 0.17426 0.52325 0.0
H4376 H 0.65594 0.97853 0.33739 0.0
H4377 H 0.63475 1.01615 0.32799 0.0
H4378 H 0.63342 0.06658 0.35468 0.0
H4379 H 0.65569 1.02922 0.36408 0.0
H4380 H 0.58971 0.05456 0.32865 0.0
H4381 H 0.69204 0.10339 0.33688 0.0
H4382 H 0.68529 0.06772 0.33998 0.0
H4383 H 0.66969 0.09489 0.34721 0.0
C4384 C 0.65055 0.9974 0.34132 0.0
C4385 C 0.6582 1.0013 0.35137 0.0
C4386 C 0.63815 1.01877 0.33597 0.0
C4387 C 0.63315 1.04434 0.3406 0.0
C4388 C 0.63756 1.04711 0.35095 0.0
H4389 H 0.6673 0.17091 0.29663 0.0
H4390 H 0.64569 0.15636 0.31234 0.0
C4391 C 0.65016 1.02571 0.35632 0.0
C4392 C 0.62916 0.06878 0.33411 0.0
H4393 H 0.66832 0.11871 0.32294 0.0
C4394 C 0.60644 0.06925 0.32757 0.0
C4395 C 0.65086 0.08817 0.33279 0.0
C4396 C 0.67594 0.08864 0.33953 0.0
C4397 C 0.60616 0.08683 0.31918 0.0
C4398 C 0.62945 0.10375 0.31722 0.0
C4399 C 0.65056 0.10555 0.32439 0.0
C4400 C 0.63535 0.1152 0.30712 0.0
C4401 C 0.58157 0.086 0.31226 0.0
C4402 C 0.63603 0.09722 0.29885 0.0
C4403 C 0.64805 0.10557 0.28983 0.0
C4404 C 0.66017 0.13192 0.28894 0.0
C4405 C 0.65806 0.1505 0.29703 0.0
C4406 C 0.6457 0.14222 0.30603 0.0
H4407 H 0.56218 0.08307 0.31661 0.0
H4408 H 0.57986 0.10523 0.30774 0.0
H4409 H 0.58357 0.06807 0.30711 0.0
H4410 H 0.62894 0.07602 0.29954 0.0
H4411 H 0.64879 0.09096 0.28368 0.0
H4412 H 0.81159 0.95043 0.09856 0.0
H4413 H 0.7902 0.93179 0.08348 0.0
H4414 H 0.86672 0.89193 0.07544 0.0
H4415 H 0.88832 0.91015 0.0907 0.0
H4416 H 0.8453 0.9258 0.06064 0.0
H4417 H 0.76423 0.85494 0.07462 0.0
H4418 H 0.76365 0.8875 0.08108 0.0
H4419 H 0.79342 0.86543 0.08219 0.0
C4420 C 0.82372 0.93709 0.09375 0.0
C4421 C 0.85167 0.93179 0.09583 0.0
C4422 C 0.81141 0.92635 0.08514 0.0
C4423 C 0.82674 0.91003 0.07847 0.0
C4424 C 0.8545 0.90423 0.08058 0.0
H4425 H 0.76631 0.90006 1.01632 0.0
H4426 H 0.79298 0.88409 1.03084 0.0
C4427 C 0.86684 0.91489 0.08923 0.0
C4428 C 0.81454 0.90245 0.0687 0.0
H4429 H 0.75546 0.87647 1.05842 0.0
C4430 C 0.82609 0.91429 1.06005 0.0
C4431 C 0.78959 0.88733 0.06801 0.0
C4432 C 0.77716 0.87283 0.07697 0.0
C4433 C 0.81192 0.91381 1.0509 0.0
C4434 C 0.78583 0.90055 1.05039 0.0
C4435 C 0.77542 0.8867 1.05885 0.0
C4436 C 0.76727 0.90496 1.04175 0.0
C4437 C 0.8239 0.92954 1.0421 0.0
C4438 C 0.74319 0.92059 1.04316 0.0
C4439 C 0.7279 0.92952 1.03494 0.0
C4440 C 0.73649 0.92301 1.02515 0.0
C4441 C 0.75953 0.90573 1.02379 0.0
C4442 C 0.77474 0.8966 1.03205 0.0
H4443 H 0.84232 0.94199 1.04423 0.0
H4444 H 0.83025 0.9147 1.03619 0.0
H4445 H 0.80822 0.94365 1.03884 0.0
H4446 H 0.73712 0.92728 1.0506 0.0
H4447 H 0.71038 0.94297 1.03622 0.0
H4448 H 0.69925 0.62366 0.83191 0.0
H4449 H 0.6781 0.59963 0.81783 0.0
H4450 H 0.61077 0.5732 0.83687 0.0
H4451 H 0.63237 0.59702 0.85115 0.0
H4452 H 0.63479 0.53035 0.82762 0.0
H4453 H 0.61393 0.60943 0.79907 0.0
H4454 H 0.64793 0.61516 0.80394 0.0
H4455 H 0.61841 0.61811 0.81216 0.0
C4456 C 0.67969 0.61314 0.83306 0.0
C4457 C 0.66757 0.61193 0.84261 0.0
C4458 C 0.66736 0.59976 0.82497 0.0
C4459 C 0.64255 0.58502 0.82625 0.0
C4460 C 0.62971 0.58478 0.8357 0.0
H4461 H 0.6367 0.49534 0.76938 0.0
H4462 H 0.61329 0.51773 0.7836 0.0
C4463 C 0.64203 0.59836 0.84382 0.0
C4464 C 0.63321 0.56645 0.8181 0.0
H4465 H 0.63218 0.5647 0.79257 0.0
C4466 C 0.63313 0.53786 0.81997 0.0
C4467 C 0.63016 0.57607 0.80815 0.0
C4468 C 0.62728 0.60642 0.80575 0.0
C4469 C 0.63408 0.51883 0.81205 0.0
C4470 C 0.63566 0.52878 0.80209 0.0
C4471 C 0.63169 0.55707 0.80022 0.0
C4472 C 0.64718 0.51158 0.79393 0.0
C4473 C 0.63548 0.48836 0.81444 0.0
C4474 C 0.67387 0.50071 0.79506 0.0
C4475 C 0.68722 0.48821 0.787 0.0
C4476 C 0.67421 0.48642 0.77763 0.0
C4477 C 0.64708 0.49635 0.77656 0.0
C4478 C 0.63372 0.50911 0.78465 0.0
H4479 H 0.62315 0.4835 0.82126 0.0
H4480 H 0.62781 0.47555 0.80811 0.0
H4481 H 0.65724 0.48261 0.81601 0.0
H4482 H 0.68497 0.50304 0.80206 0.0
H4483 H 0.70803 0.48051 0.78803 0.0
H4484 H 0.82596 0.37391 1.01264 0.0
H4485 H 0.79508 0.35141 1.02481 0.0
H4486 H 0.84641 0.38119 1.04898 0.0
H4487 H 0.87752 0.40263 1.03695 0.0
H4488 H 0.82087 0.33246 1.05394 0.0
H4489 H 0.74508 0.40726 1.03776 0.0
H4490 H 0.75788 0.38019 1.02982 0.0
H4491 H 0.7807 0.40743 1.03385 0.0
C4492 C 0.83101 0.37482 1.02055 0.0
C4493 C 0.8538 0.39041 1.02389 0.0
C4494 C 0.81336 0.36205 1.02748 0.0
C4495 C 0.81798 0.36539 1.0378 0.0
C4496 C 0.84235 0.3784 1.04105 0.0
H4497 H 0.77726 0.42174 0.09053 0.0
H4498 H 0.79432 0.39368 0.07676 0.0
C4499 C 0.86017 0.39072 1.03415 0.0
C4500 C 0.79586 0.3605 1.04528 0.0
H4501 H 0.73836 0.39307 1.05413 0.0
C4502 C 0.80229 0.34496 1.05387 0.0
C4503 C 0.77137 0.37656 1.04514 0.0
C4504 C 0.76324 0.39391 1.03619 0.0
C4505 C 0.78677 0.34772 0.0627 0.0
C4506 C 0.76441 0.36644 0.06289 0.0
C4507 C 0.75575 0.37895 1.05395 0.0
C4508 C 0.75402 0.37833 0.07237 0.0
C4509 C 0.79567 0.33223 0.07196 0.0
C4510 C 0.72562 0.3792 0.07446 0.0
C4511 C 0.71573 0.39531 0.08239 0.0
C4512 C 0.73408 0.41113 0.08826 0.0
C4513 C 0.76257 0.40949 0.0863 0.0
C4514 C 0.77241 0.39326 0.07845 0.0
H4515 H 0.80499 0.31199 0.06994 0.0
H4516 H 0.81164 0.34451 0.07596 0.0
H4517 H 0.77803 0.32863 0.07714 0.0
H4518 H 0.71109 0.36814 0.06975 0.0
H4519 H 0.6937 0.39577 0.08381 0.0
H4520 H 0.80178 0.42938 0.33445 0.0
H4521 H 0.7934 0.43553 0.31647 0.0
H4522 H 0.88036 0.45146 0.31189 0.0
H4523 H 0.88877 0.44484 0.32974 0.0
H4524 H 0.8019 0.48501 0.30914 0.0
H4525 H 0.86247 0.41292 0.28614 0.0
H4526 H 0.85442 0.40589 0.29914 0.0
H4527 H 0.88418 0.42658 0.29582 0.0
C4528 C 0.81913 0.4335 0.32952 0.0
C4529 C 0.84583 0.43718 0.33343 0.0
C4530 C 0.81438 0.43669 0.31927 0.0
C4531 C 0.83626 0.44371 0.31282 0.0
C4532 C 0.86325 0.44529 0.31665 0.0
H4533 H 0.88989 0.5562 0.27266 0.0
H4534 H 0.88014 0.51583 0.28316 0.0
C4535 C 0.86803 0.44185 0.32688 0.0
C4536 C 0.83054 0.45568 0.30284 0.0
H4537 H 0.85893 0.46086 0.2795 0.0
C4538 C 0.81353 0.47914 0.30252 0.0
C4539 C 0.8456 0.44792 0.2942 0.0
C4540 C 0.86243 0.42173 0.29384 0.0
C4541 C 0.81375 0.4969 0.29423 0.0
C4542 C 0.83109 0.49063 0.286 0.0
C4543 C 0.84591 0.46571 0.28589 0.0
C4544 C 0.83756 0.51183 0.27839 0.0
C4545 C 0.79751 0.52353 0.29478 0.0
C4546 C 0.81697 0.52245 0.2721 0.0
C4547 C 0.8224 0.54572 0.26621 0.0
C4548 C 0.84858 0.55842 0.26645 0.0
C4549 C 0.86956 0.54679 0.27234 0.0
C4550 C 0.86405 0.5237 0.27829 0.0
H4551 H 0.78789 0.52674 0.30226 0.0
H4552 H 0.81108 0.54153 0.29311 0.0
H4553 H 0.78078 0.5231 0.2891 0.0
H4554 H 0.79651 0.5133 0.27201 0.0
H4555 H 0.80606 0.55399 0.26155 0.0
H4556 H 0.71133 0.65811 0.5438 0.0
H4557 H 0.73947 0.68212 0.55613 0.0
H4558 H 0.76252 0.74304 0.53391 0.0
H4559 H 0.73458 0.71856 0.52144 0.0
H4560 H 0.80585 0.71732 0.54036 0.0
H4561 H 0.74784 0.74773 0.57389 0.0
H4562 H 0.73651 0.71373 0.57049 0.0
H4563 H 0.73091 0.74224 0.56197 0.0
C4564 C 0.72144 0.67726 0.54166 0.0
C4565 C 0.72125 0.68625 0.53166 0.0
C4566 C 0.73736 0.69121 0.54875 0.0
C4567 C 0.75301 0.71457 0.54598 0.0
C4568 C 0.75055 0.72515 0.53622 0.0
H4569 H 0.87691 0.71149 0.59355 0.0
H4570 H 0.84979 0.73778 0.58123 0.0
C4571 C 0.73479 0.71105 0.5291 0.0
C4572 C 0.77645 0.72295 0.55241 0.0
H4573 H 0.79325 0.72397 0.57718 0.0
C4574 C 0.80314 0.72003 0.54838 0.0
C4575 C 0.77324 0.72717 0.56283 0.0
C4576 C 0.7455 0.73321 0.56749 0.0
C4577 C 0.82606 0.71687 0.55465 0.0
C4578 C 0.82199 0.71644 0.56512 0.0
C4579 C 0.79616 0.72365 0.56912 0.0
C4580 C 0.84178 0.70237 0.57175 0.0
C4581 C 0.85397 0.71135 0.55002 0.0
C4582 C 0.84619 0.6739 0.57041 0.0
C4583 C 0.86123 0.65891 0.57743 0.0
C4584 C 0.87221 0.67221 0.58587 0.0
C4585 C 0.86879 0.70093 0.58701 0.0
C4586 C 0.85337 0.71591 0.58003 0.0
H4587 H 0.856 0.72186 0.54264 0.0
H4588 H 0.87095 0.7184 0.55502 0.0
H4589 H 0.85627 0.68877 0.54875 0.0
H4590 H 0.83687 0.663 0.56416 0.0
H4591 H 0.86366 0.6368 0.57641 0.0
H4592 H 0.47749 0.61065 0.34852 0.0
H4593 H 0.50504 0.58563 0.33599 0.0
H4594 H 0.44146 0.60027 0.31393 0.0
H4595 H 0.4146 0.62565 0.32624 0.0
H4596 H 0.48873 0.53884 0.32831 0.0
H4597 H 0.50736 0.60684 0.2963 0.0
H4598 H 0.49973 0.62058 0.30861 0.0
H4599 H 0.47222 0.61238 0.29994 0.0
C4600 C 0.46997 0.60928 0.34089 0.0
C4601 C 0.44381 0.61975 0.33834 0.0
C4602 C 0.4857 0.59502 0.33375 0.0
C4603 C 0.4756 0.59142 0.32396 0.0
C4604 C 0.45021 0.60342 0.32132 0.0
H4605 H 0.40937 0.47624 0.29462 0.0
H4606 H 0.43794 0.50094 0.30662 0.0
C4607 C 0.43457 0.61753 0.32841 0.0
C4608 C 0.488 0.57093 0.31703 0.0
H4609 H 0.48822 0.55935 0.29188 0.0
C4610 C 0.48988 0.54342 0.32036 0.0
C4611 C 0.4909 0.57665 0.30668 0.0
C4612 C 0.49278 0.60584 0.30274 0.0
C4613 C 0.48937 0.52146 0.3135 0.0
C4614 C 0.48617 0.52736 0.30318 0.0
C4615 C 0.48957 0.55472 0.29982 0.0
C4616 C 0.47222 0.50755 0.29638 0.0
C4617 C 0.48962 0.49221 0.31743 0.0
C4618 C 0.48179 0.50304 0.28656 0.0
C4619 C 0.46511 0.48917 0.2796 0.0
C4620 C 0.43853 0.48003 0.28235 0.0
C4621 C 0.42966 0.48333 0.29229 0.0
C4622 C 0.44625 0.49703 0.29921 0.0
H4623 H 0.50433 0.49038 0.32379 0.0
H4624 H 0.46878 0.48681 0.32034 0.0
H4625 H 0.49545 0.47713 0.31152 0.0
H4626 H 0.50156 0.51133 0.28418 0.0
H4627 H 0.47236 0.48697 0.27195 0.0
H4628 H 0.41529 0.54935 1.03766 0.0
H4629 H 0.40527 0.53714 1.05518 0.0
H4630 H 0.35556 0.61077 1.05808 0.0
H4631 H 0.36629 0.62341 1.04076 0.0
H4632 H 0.38539 0.60057 0.07491 0.0
H4633 H 0.33095 0.5048 0.06238 0.0
H4634 H 0.36704 0.50763 1.05938 0.0
H4635 H 0.34269 0.53068 1.05361 0.0
C4636 C 0.40247 0.56299 1.04212 0.0
C4637 C 0.39124 0.58713 1.0379 0.0
C4638 C 0.39673 0.55598 1.05208 0.0
C4639 C 0.3792 0.57274 1.05785 0.0
C4640 C 0.36913 0.59753 1.05376 0.0
H4641 H 0.24759 0.56577 0.09431 0.0
H4642 H 0.28446 0.55762 0.08228 0.0
C4643 C 0.37521 0.60474 1.04387 0.0
C4644 C 0.36924 0.56394 0.06786 0.0
H4645 H 0.32411 0.51887 0.0789 0.0
C4646 C 0.37247 0.58239 0.07589 0.0
C4647 C 0.35257 0.54004 0.06909 0.0
C4648 C 0.34788 0.51967 0.06067 0.0
C4649 C 0.35731 0.57914 0.08479 0.0
C4650 C 0.33911 0.55628 0.08574 0.0
C4651 C 0.33808 0.53634 0.07811 0.0
C4652 C 0.31699 0.55594 0.09341 0.0
C4653 C 0.35903 0.60154 0.09266 0.0
C4654 C 0.32287 0.55653 0.10371 0.0
C4655 C 0.30169 0.56146 0.11064 0.0
C4656 C 0.27437 0.56538 0.10734 0.0
C4657 C 0.26835 0.56258 0.09709 0.0
C4658 C 0.28946 0.55797 0.0902 0.0
H4659 H 0.37143 0.61961 0.09011 0.0
H4660 H 0.33803 0.6089 0.0947 0.0
H4661 H 0.36885 0.5931 0.09952 0.0
H4662 H 0.34389 0.55436 0.10636 0.0
H4663 H 0.30679 0.56316 0.11853 0.0
H4664 H 0.16283 0.63151 0.79041 0.0
H4665 H 0.13958 0.60354 0.80305 0.0
H4666 H 0.09989 0.55574 0.7798 0.0
H4667 H 0.12398 0.5834 0.76702 0.0
H4668 H 0.08739 0.5864 0.80868 0.0
H4669 H 0.14851 0.49864 0.79286 0.0
H4670 H 0.15387 0.53361 0.7886 0.0
H4671 H 0.1234 0.51485 0.78491 0.0
C4672 C 0.14855 0.61558 0.78797 0.0
C4673 C 0.14555 0.60929 0.77775 0.0
C4674 C 0.1352 0.5996 0.7952 0.0
C4675 C 0.11848 0.57716 0.79236 0.0
C4676 C 0.11324 0.57254 0.78214 0.0
H4677 H 0.13283 0.45049 0.83811 0.0
H4678 H 0.10566 0.47217 0.82477 0.0
C4679 C 0.12697 0.58832 0.77487 0.0
C4680 C 0.11072 0.55664 0.80013 0.0
H4681 H 0.13335 0.49485 0.80925 0.0
C4682 C 0.09667 0.56598 0.80871 0.0
C4683 C 0.12248 0.52981 0.80012 0.0
C4684 C 0.13802 0.51852 0.79118 0.0
C4685 C 0.09681 0.55054 0.81762 0.0
C4686 C 0.11147 0.52532 0.81792 0.0
C4687 C 0.12232 0.51435 0.80901 0.0
C4688 C 0.12157 0.51339 0.82744 0.0
C4689 C 0.08296 0.56224 0.82681 0.0
C4690 C 0.1391 0.52947 0.83348 0.0
C4691 C 0.15499 0.51713 0.84094 0.0
C4692 C 0.15373 0.48839 0.84252 0.0
C4693 C 0.13467 0.4726 0.83695 0.0
C4694 C 0.11886 0.48499 0.82942 0.0
H4695 H 0.06428 0.57424 0.82471 0.0
H4696 H 0.07693 0.54567 0.83217 0.0
H4697 H 0.09742 0.57664 0.83063 0.0
H4698 H 0.14221 0.55125 0.83191 0.0
H4699 H 0.16968 0.52989 0.84497 0.0
H4700 H 0.27574 0.39299 0.51406 0.0
H4701 H 0.30478 0.37294 0.52717 0.0
H4702 H 0.24711 0.40128 0.54964 0.0
H4703 H 0.21763 0.4202 0.5366 0.0
H4704 H 0.32894 0.4066 0.53957 0.0
H4705 H 0.27221 0.33178 0.56277 0.0
H4706 H 0.26114 0.34046 0.55021 0.0
H4707 H 0.25027 0.36103 0.56081 0.0
C4708 C 0.2687 0.39387 0.52177 0.0
C4709 C 0.24467 0.40855 0.52434 0.0
C4710 C 0.28533 0.38241 0.52925 0.0
C4711 C 0.27809 0.38539 0.5394 0.0
C4712 C 0.25291 0.39806 0.54188 0.0
H4713 H 0.34136 0.46406 0.58638 0.0
H4714 H 0.32398 0.443 0.57097 0.0
C4715 C 0.23627 0.40937 0.53442 0.0
C4716 C 0.29894 0.38134 0.54738 0.0
H4717 H 0.30265 0.36474 0.5722 0.0
C4718 C 0.32369 0.39646 0.54658 0.0
C4719 C 0.29251 0.3678 0.5565 0.0
C4720 C 0.26768 0.34911 0.55755 0.0
C4721 C 0.3402 0.40135 0.555 0.0
C4722 C 0.33156 0.39109 0.5644 0.0
C4723 C 0.30884 0.37308 0.56498 0.0
C4724 C 0.34256 0.40302 0.57374 0.0
C4725 C 0.36554 0.41937 0.55395 0.0
C4726 C 0.35836 0.38726 0.58041 0.0
C4727 C 0.36838 0.3993 0.58924 0.0
C4728 C 0.36227 0.42707 0.59152 0.0
C4729 C 0.34616 0.44258 0.58484 0.0
C4730 C 0.33642 0.43066 0.57603 0.0
H4731 H 0.37388 0.41873 0.54618 0.0
H4732 H 0.35996 0.44112 0.55567 0.0
H4733 H 0.38196 0.41285 0.55925 0.0
H4734 H 0.36305 0.36583 0.57877 0.0
H4735 H 0.3806 0.38687 0.59433 0.0
loop_
_geom_bond_atom_site_label_1
_geom_bond_atom_site_label_2
_geom_bond_distance
_geom_bond_site_symmetry_2
_ccdc_geom_bond_type
Gd0 C3 2.818 . S
Gd0 O20 2.377 . S
Gd0 O22 2.448 . S
Gd0 O23 2.506 . S
Gd0 O24 2.435 . S
Gd0 O25 2.717 . S
Gd0 O27 2.395 . S
Gd0 O31 2.327 . S
Gd1 C12 2.818 . S
Gd1 O21 2.395 . S
Gd1 O25 2.327 . S
Gd1 O26 2.377 . S
Gd1 O28 2.448 . S
Gd1 O29 2.506 . S
Gd1 O30 2.435 . S
Gd1 O31 2.717 . S
C2 O20 1.240 . S
C2 O21 1.240 . S
C3 Gd0 2.818 . S
C3 C4 1.510 . S
C3 O22 1.249 . S
C3 O23 1.252 . S
C4 C3 1.510 . S
C4 C5 1.404 . S
C4 C6 1.352 . S
C5 C4 1.404 . S
C5 C9 1.389 . S
C5 H32 0.930 . S
C6 C4 1.352 . S
C6 C8 1.374 . S
C6 H33 0.931 . S
C7 C8 1.359 . S
C7 C9 1.364 . S
C8 C6 1.374 . S
C8 C7 1.359 . S
C8 H34 0.931 . S
C9 C5 1.389 . S
C9 C7 1.364 . S
C9 H35 0.931 . S
C10 O24 1.256 . S
C10 O25 1.257 . S
C11 O26 1.240 . S
C11 O27 1.240 . S
C12 Gd1 2.818 . S
C12 C13 1.510 . S
C12 O28 1.249 . S
C12 O29 1.252 . S
C13 C12 1.510 . S
C13 C14 1.404 . S
C13 C15 1.352 . S
C14 C13 1.404 . S
C14 C18 1.389 . S
C14 H36 0.930 . S
C15 C13 1.352 . S
C15 C17 1.374 . S
C15 H37 0.931 . S
C16 C17 1.359 . S
C16 C18 1.364 . S
C17 C15 1.374 . S
C17 C16 1.359 . S
C17 H38 0.931 . S
C18 C14 1.389 . S
C18 C16 1.364 . S
C18 H39 0.931 . S
C19 O30 1.256 . S
C19 O31 1.257 . S
O20 Gd0 2.377 . S
O20 C2 1.240 . S
O21 Gd1 2.395 . S
O21 C2 1.240 . S
O22 Gd0 2.448 . S
O22 C3 1.249 . S
O23 Gd0 2.506 . S
O23 C3 1.252 . S
O24 Gd0 2.435 . S
O24 C10 1.256 . S
O25 Gd0 2.717 . S
O25 Gd1 2.327 . S
O25 C10 1.257 . S
O26 Gd1 2.377 . S
O26 C11 1.240 . S
O27 Gd0 2.395 . S
O27 C11 1.240 . S
O28 Gd1 2.448 . S
O28 C12 1.249 . S
O29 Gd1 2.506 . S
O29 C12 1.252 . S
O30 Gd1 2.435 . S
O30 C19 1.256 . S
O31 Gd0 2.327 . S
O31 Gd1 2.717 . S
O31 C19 1.257 . S
H32 C5 0.930 . S
H33 C6 0.931 . S
H34 C8 0.931 . S
H35 C9 0.931 . S
H36 C14 0.930 . S
H37 C15 0.931 . S
H38 C17 0.931 . S
H39 C18 0.931 . S
Gd40 C43 2.818 1_455 S
Gd40 O60 2.377 . S
Gd40 O62 2.448 1_455 S
Gd40 O63 2.506 1_455 S
Gd40 O64 2.435 . S
Gd40 O65 2.717 . S
Gd40 O67 2.395 . S
Gd40 O71 2.327 . S
Gd41 C52 2.818 . S
Gd41 O61 2.395 . S
Gd41 O65 2.327 . S
Gd41 O66 2.377 . S
Gd41 O68 2.448 . S
Gd41 O69 2.506 . S
Gd41 O70 2.435 . S
Gd41 O71 2.717 . S
C42 O60 1.240 . S
C42 O61 1.240 . S
C43 Gd40 2.818 1_655 S
C43 C44 1.510 . S
C43 O62 1.249 . S
C43 O63 1.252 . S
C44 C43 1.510 . S
C44 C45 1.404 . S
C44 C46 1.352 . S
C45 C44 1.404 . S
C45 C49 1.389 . S
C45 H72 0.930 . S
C46 C44 1.352 . S
C46 C48 1.374 . S
C46 H73 0.931 . S
C47 C48 1.359 . S
C47 C49 1.364 . S
C48 C46 1.374 . S
C48 C47 1.359 . S
C48 H74 0.931 . S
C49 C45 1.389 . S
C49 C47 1.364 . S
C49 H75 0.931 . S
C50 O64 1.256 . S
C50 O65 1.257 . S
C51 O66 1.240 . S
C51 O67 1.240 . S
C52 Gd41 2.818 . S
C52 C53 1.510 . S
C52 O68 1.249 . S
C52 O69 1.252 . S
C53 C52 1.510 . S
C53 C54 1.404 . S
C53 C55 1.352 . S
C54 C53 1.404 . S
C54 C58 1.389 . S
C54 H76 0.930 . S
C55 C53 1.352 . S
C55 C57 1.374 . S
C55 H77 0.931 . S
C56 C57 1.359 . S
C56 C58 1.364 . S
C57 C55 1.374 . S
C57 C56 1.359 . S
C57 H78 0.931 . S
C58 C54 1.389 . S
C58 C56 1.364 . S
C58 H79 0.931 . S
C59 O70 1.256 . S
C59 O71 1.257 . S
O60 Gd40 2.377 . S
O60 C42 1.240 . S
O61 Gd41 2.395 . S
O61 C42 1.240 . S
O62 Gd40 2.448 1_655 S
O62 C43 1.249 . S
O63 Gd40 2.506 1_655 S
O63 C43 1.252 . S
O64 Gd40 2.435 . S
O64 C50 1.256 . S
O65 Gd40 2.717 . S
O65 Gd41 2.327 . S
O65 C50 1.257 . S
O66 Gd41 2.377 . S
O66 C51 1.240 . S
O67 Gd40 2.395 . S
O67 C51 1.240 . S
O68 Gd41 2.448 . S
O68 C52 1.249 . S
O69 Gd41 2.506 . S
O69 C52 1.252 . S
O70 Gd41 2.435 . S
O70 C59 1.256 . S
O71 Gd40 2.327 . S
O71 Gd41 2.717 . S
O71 C59 1.257 . S
H72 C45 0.930 . S
H73 C46 0.931 . S
H74 C48 0.931 . S
H75 C49 0.931 . S
H76 C54 0.930 . S
H77 C55 0.931 . S
H78 C57 0.931 . S
H79 C58 0.931 . S
Gd80 C83 2.818 . S
Gd80 O100 2.377 . S
Gd80 O102 2.448 . S
Gd80 O103 2.506 . S
Gd80 O104 2.435 . S
Gd80 O105 2.717 . S
Gd80 O107 2.395 . S
Gd80 O111 2.327 . S
Gd81 C92 2.818 . S
Gd81 O101 2.395 . S
Gd81 O105 2.327 . S
Gd81 O106 2.377 . S
Gd81 O108 2.448 . S
Gd81 O109 2.506 . S
Gd81 O110 2.435 . S
Gd81 O111 2.717 . S
C82 O100 1.240 . S
C82 O101 1.240 . S
C83 Gd80 2.818 . S
C83 C84 1.510 . S
C83 O102 1.249 . S
C83 O103 1.252 . S
C84 C83 1.510 . S
C84 C85 1.404 . S
C84 C86 1.352 . S
C85 C84 1.404 . S
C85 C89 1.389 . S
C85 H112 0.930 . S
C86 C84 1.352 . S
C86 C88 1.374 . S
C86 H113 0.931 . S
C87 C88 1.359 . S
C87 C89 1.364 . S
C88 C86 1.374 . S
C88 C87 1.359 . S
C88 H114 0.931 . S
C89 C85 1.389 . S
C89 C87 1.364 . S
C89 H115 0.931 . S
C90 O104 1.256 . S
C90 O105 1.257 . S
C91 O106 1.240 . S
C91 O107 1.240 . S
C92 Gd81 2.818 . S
C92 C93 1.510 . S
C92 O108 1.249 . S
C92 O109 1.252 . S
C93 C92 1.510 . S
C93 C94 1.404 . S
C93 C95 1.352 . S
C94 C93 1.404 . S
C94 C98 1.389 . S
C94 H116 0.930 . S
C95 C93 1.352 . S
C95 C97 1.374 . S
C95 H117 0.931 . S
C96 C97 1.359 . S
C96 C98 1.364 . S
C97 C95 1.374 . S
C97 C96 1.359 . S
C97 H118 0.931 . S
C98 C94 1.389 . S
C98 C96 1.364 . S
C98 H119 0.931 . S
C99 O110 1.256 . S
C99 O111 1.257 . S
O100 Gd80 2.377 . S
O100 C82 1.240 . S
O101 Gd81 2.395 . S
O101 C82 1.240 . S
O102 Gd80 2.448 . S
O102 C83 1.249 . S
O103 Gd80 2.506 . S
O103 C83 1.252 . S
O104 Gd80 2.435 . S
O104 C90 1.256 . S
O105 Gd80 2.717 . S
O105 Gd81 2.327 . S
O105 C90 1.257 . S
O106 Gd81 2.377 . S
O106 C91 1.240 . S
O107 Gd80 2.395 . S
O107 C91 1.240 . S
O108 Gd81 2.448 . S
O108 C92 1.249 . S
O109 Gd81 2.506 . S
O109 C92 1.252 . S
O110 Gd81 2.435 . S
O110 C99 1.256 . S
O111 Gd80 2.327 . S
O111 Gd81 2.717 . S
O111 C99 1.257 . S
H112 C85 0.930 . S
H113 C86 0.931 . S
H114 C88 0.931 . S
H115 C89 0.931 . S
H116 C94 0.930 . S
H117 C95 0.931 . S
H118 C97 0.931 . S
H119 C98 0.931 . S
Gd120 C123 2.818 . S
Gd120 O140 2.377 . S
Gd120 O142 2.448 . S
Gd120 O143 2.506 . S
Gd120 O144 2.435 . S
Gd120 O145 2.717 . S
Gd120 O147 2.395 . S
Gd120 O151 2.327 . S
Gd121 C132 2.818 . S
Gd121 O141 2.395 . S
Gd121 O145 2.327 . S
Gd121 O146 2.377 . S
Gd121 O148 2.448 . S
Gd121 O149 2.506 . S
Gd121 O150 2.435 . S
Gd121 O151 2.717 . S
C122 O140 1.240 . S
C122 O141 1.240 . S
C123 Gd120 2.818 . S
C123 C124 1.510 . S
C123 O142 1.249 . S
C123 O143 1.252 . S
C124 C123 1.510 . S
C124 C125 1.404 . S
C124 C126 1.352 . S
C125 C124 1.404 . S
C125 C129 1.389 . S
C125 H152 0.930 . S
C126 C124 1.352 . S
C126 C128 1.374 . S
C126 H153 0.931 . S
C127 C128 1.359 . S
C127 C129 1.364 . S
C128 C126 1.374 . S
C128 C127 1.359 . S
C128 H154 0.931 . S
C129 C125 1.389 . S
C129 C127 1.364 . S
C129 H155 0.931 . S
C130 O144 1.256 . S
C130 O145 1.257 . S
C131 O146 1.240 . S
C131 O147 1.240 . S
C132 Gd121 2.818 . S
C132 C133 1.510 . S
C132 O148 1.249 . S
C132 O149 1.252 . S
C133 C132 1.510 . S
C133 C134 1.404 . S
C133 C135 1.352 . S
C134 C133 1.404 . S
C134 C138 1.389 . S
C134 H156 0.930 . S
C135 C133 1.352 . S
C135 C137 1.374 . S
C135 H157 0.931 . S
C136 C137 1.359 . S
C136 C138 1.364 . S
C137 C135 1.374 . S
C137 C136 1.359 . S
C137 H158 0.931 . S
C138 C134 1.389 . S
C138 C136 1.364 . S
C138 H159 0.931 . S
C139 O150 1.256 . S
C139 O151 1.257 . S
O140 Gd120 2.377 . S
O140 C122 1.240 . S
O141 Gd121 2.395 . S
O141 C122 1.240 . S
O142 Gd120 2.448 . S
O142 C123 1.249 . S
O143 Gd120 2.506 . S
O143 C123 1.252 . S
O144 Gd120 2.435 . S
O144 C130 1.256 . S
O145 Gd120 2.717 . S
O145 Gd121 2.327 . S
O145 C130 1.257 . S
O146 Gd121 2.377 . S
O146 C131 1.240 . S
O147 Gd120 2.395 . S
O147 C131 1.240 . S
O148 Gd121 2.448 . S
O148 C132 1.249 . S
O149 Gd121 2.506 . S
O149 C132 1.252 . S
O150 Gd121 2.435 . S
O150 C139 1.256 . S
O151 Gd120 2.327 . S
O151 Gd121 2.717 . S
O151 C139 1.257 . S
H152 C125 0.930 . S
H153 C126 0.931 . S
H154 C128 0.931 . S
H155 C129 0.931 . S
H156 C134 0.930 . S
H157 C135 0.931 . S
H158 C137 0.931 . S
H159 C138 0.931 . S
Gd160 C163 2.818 . S
Gd160 O180 2.377 . S
Gd160 O182 2.448 . S
Gd160 O183 2.506 . S
Gd160 O184 2.435 . S
Gd160 O185 2.717 . S
Gd160 O187 2.395 . S
Gd160 O191 2.327 . S
Gd161 C172 2.818 . S
Gd161 O181 2.395 . S
Gd161 O185 2.327 . S
Gd161 O186 2.377 . S
Gd161 O188 2.448 . S
Gd161 O189 2.506 . S
Gd161 O190 2.435 . S
Gd161 O191 2.717 . S
C162 O180 1.240 . S
C162 O181 1.240 . S
C163 Gd160 2.818 . S
C163 C164 1.510 . S
C163 O182 1.249 . S
C163 O183 1.252 . S
C164 C163 1.510 . S
C164 C165 1.404 . S
C164 C166 1.352 . S
C165 C164 1.404 . S
C165 C169 1.389 . S
C165 H192 0.930 . S
C166 C164 1.352 . S
C166 C168 1.374 . S
C166 H193 0.931 . S
C167 C168 1.359 . S
C167 C169 1.364 . S
C168 C166 1.374 . S
C168 C167 1.359 . S
C168 H194 0.931 . S
C169 C165 1.389 . S
C169 C167 1.364 . S
C169 H195 0.931 . S
C170 O184 1.256 . S
C170 O185 1.257 . S
C171 O186 1.240 . S
C171 O187 1.240 . S
C172 Gd161 2.818 . S
C172 C173 1.510 . S
C172 O188 1.249 . S
C172 O189 1.252 . S
C173 C172 1.510 . S
C173 C174 1.404 . S
C173 C175 1.352 . S
C174 C173 1.404 . S
C174 C178 1.389 . S
C174 H196 0.930 . S
C175 C173 1.352 . S
C175 C177 1.374 . S
C175 H197 0.931 . S
C176 C177 1.359 . S
C176 C178 1.364 . S
C177 C175 1.374 . S
C177 C176 1.359 . S
C177 H198 0.931 . S
C178 C174 1.389 . S
C178 C176 1.364 . S
C178 H199 0.931 . S
C179 O190 1.256 . S
C179 O191 1.257 . S
O180 Gd160 2.377 . S
O180 C162 1.240 . S
O181 Gd161 2.395 . S
O181 C162 1.240 . S
O182 Gd160 2.448 . S
O182 C163 1.249 . S
O183 Gd160 2.506 . S
O183 C163 1.252 . S
O184 Gd160 2.435 . S
O184 C170 1.256 . S
O185 Gd160 2.717 . S
O185 Gd161 2.327 . S
O185 C170 1.257 . S
O186 Gd161 2.377 . S
O186 C171 1.240 . S
O187 Gd160 2.395 . S
O187 C171 1.240 . S
O188 Gd161 2.448 . S
O188 C172 1.249 . S
O189 Gd161 2.506 . S
O189 C172 1.252 . S
O190 Gd161 2.435 . S
O190 C179 1.256 . S
O191 Gd160 2.327 . S
O191 Gd161 2.717 . S
O191 C179 1.257 . S
H192 C165 0.930 . S
H193 C166 0.931 . S
H194 C168 0.931 . S
H195 C169 0.931 . S
H196 C174 0.930 . S
H197 C175 0.931 . S
H198 C177 0.931 . S
H199 C178 0.931 . S
Gd200 C203 2.818 . S
Gd200 O220 2.377 . S
Gd200 O222 2.448 . S
Gd200 O223 2.506 . S
Gd200 O224 2.435 . S
Gd200 O225 2.717 . S
Gd200 O227 2.395 . S
Gd200 O231 2.327 . S
Gd201 C212 2.818 . S
Gd201 O221 2.395 . S
Gd201 O225 2.327 . S
Gd201 O226 2.377 . S
Gd201 O228 2.448 . S
Gd201 O229 2.506 . S
Gd201 O230 2.435 . S
Gd201 O231 2.717 . S
C202 O220 1.240 . S
C202 O221 1.240 . S
C203 Gd200 2.818 . S
C203 C204 1.510 . S
C203 O222 1.249 . S
C203 O223 1.252 . S
C204 C203 1.510 . S
C204 C205 1.404 . S
C204 C206 1.352 . S
C205 C204 1.404 . S
C205 C209 1.389 . S
C205 H232 0.930 . S
C206 C204 1.352 . S
C206 C208 1.374 . S
C206 H233 0.931 . S
C207 C208 1.359 . S
C207 C209 1.364 . S
C208 C206 1.374 . S
C208 C207 1.359 . S
C208 H234 0.931 . S
C209 C205 1.389 . S
C209 C207 1.364 . S
C209 H235 0.931 . S
C210 O224 1.256 . S
C210 O225 1.257 . S
C211 O226 1.240 . S
C211 O227 1.240 . S
C212 Gd201 2.818 . S
C212 C213 1.510 . S
C212 O228 1.249 . S
C212 O229 1.252 . S
C213 C212 1.510 . S
C213 C214 1.404 . S
C213 C215 1.352 . S
C214 C213 1.404 . S
C214 C218 1.389 . S
C214 H236 0.930 . S
C215 C213 1.352 . S
C215 C217 1.374 . S
C215 H237 0.931 . S
C216 C217 1.359 . S
C216 C218 1.364 . S
C217 C215 1.374 . S
C217 C216 1.359 . S
C217 H238 0.931 . S
C218 C214 1.389 . S
C218 C216 1.364 . S
C218 H239 0.931 . S
C219 O230 1.256 . S
C219 O231 1.257 . S
O220 Gd200 2.377 . S
O220 C202 1.240 . S
O221 Gd201 2.395 . S
O221 C202 1.240 . S
O222 Gd200 2.448 . S
O222 C203 1.249 . S
O223 Gd200 2.506 . S
O223 C203 1.252 . S
O224 Gd200 2.435 . S
O224 C210 1.256 . S
O225 Gd200 2.717 . S
O225 Gd201 2.327 . S
O225 C210 1.257 . S
O226 Gd201 2.377 . S
O226 C211 1.240 . S
O227 Gd200 2.395 . S
O227 C211 1.240 . S
O228 Gd201 2.448 . S
O228 C212 1.249 . S
O229 Gd201 2.506 . S
O229 C212 1.252 . S
O230 Gd201 2.435 . S
O230 C219 1.256 . S
O231 Gd200 2.327 . S
O231 Gd201 2.717 . S
O231 C219 1.257 . S
H232 C205 0.930 . S
H233 C206 0.931 . S
H234 C208 0.931 . S
H235 C209 0.931 . S
H236 C214 0.930 . S
H237 C215 0.931 . S
H238 C217 0.931 . S
H239 C218 0.931 . S
Gd240 C243 2.818 . S
Gd240 O260 2.377 . S
Gd240 O262 2.448 . S
Gd240 O263 2.506 . S
Gd240 O264 2.435 . S
Gd240 O265 2.717 . S
Gd240 O267 2.395 . S
Gd240 O271 2.327 . S
Gd241 C252 2.818 . S
Gd241 O261 2.395 . S
Gd241 O265 2.327 . S
Gd241 O266 2.377 . S
Gd241 O268 2.448 . S
Gd241 O269 2.506 . S
Gd241 O270 2.435 . S
Gd241 O271 2.717 . S
C242 O260 1.240 . S
C242 O261 1.240 . S
C243 Gd240 2.818 . S
C243 C244 1.510 . S
C243 O262 1.249 . S
C243 O263 1.252 . S
C244 C243 1.510 . S
C244 C245 1.404 . S
C244 C246 1.352 . S
C245 C244 1.404 . S
C245 C249 1.389 . S
C245 H272 0.930 . S
C246 C244 1.352 . S
C246 C248 1.374 . S
C246 H273 0.931 . S
C247 C248 1.359 . S
C247 C249 1.364 . S
C248 C246 1.374 . S
C248 C247 1.359 . S
C248 H274 0.931 . S
C249 C245 1.389 . S
C249 C247 1.364 . S
C249 H275 0.931 . S
C250 O264 1.256 . S
C250 O265 1.257 . S
C251 O266 1.240 . S
C251 O267 1.240 . S
C252 Gd241 2.818 . S
C252 C253 1.510 . S
C252 O268 1.249 . S
C252 O269 1.252 . S
C253 C252 1.510 . S
C253 C254 1.404 . S
C253 C255 1.352 . S
C254 C253 1.404 . S
C254 C258 1.389 . S
C254 H276 0.930 . S
C255 C253 1.352 . S
C255 C257 1.374 . S
C255 H277 0.931 . S
C256 C257 1.359 . S
C256 C258 1.364 . S
C257 C255 1.374 . S
C257 C256 1.359 . S
C257 H278 0.931 . S
C258 C254 1.389 . S
C258 C256 1.364 . S
C258 H279 0.931 . S
C259 O270 1.256 . S
C259 O271 1.257 . S
O260 Gd240 2.377 . S
O260 C242 1.240 . S
O261 Gd241 2.395 . S
O261 C242 1.240 . S
O262 Gd240 2.448 . S
O262 C243 1.249 . S
O263 Gd240 2.506 . S
O263 C243 1.252 . S
O264 Gd240 2.435 . S
O264 C250 1.256 . S
O265 Gd240 2.717 . S
O265 Gd241 2.327 . S
O265 C250 1.257 . S
O266 Gd241 2.377 . S
O266 C251 1.240 . S
O267 Gd240 2.395 . S
O267 C251 1.240 . S
O268 Gd241 2.448 . S
O268 C252 1.249 . S
O269 Gd241 2.506 . S
O269 C252 1.252 . S
O270 Gd241 2.435 . S
O270 C259 1.256 . S
O271 Gd240 2.327 . S
O271 Gd241 2.717 . S
O271 C259 1.257 . S
H272 C245 0.930 . S
H273 C246 0.931 . S
H274 C248 0.931 . S
H275 C249 0.931 . S
H276 C254 0.930 . S
H277 C255 0.931 . S
H278 C257 0.931 . S
H279 C258 0.931 . S
Gd280 C283 2.818 1_455 S
Gd280 O300 2.377 . S
Gd280 O302 2.448 1_455 S
Gd280 O303 2.506 1_455 S
Gd280 O304 2.435 . S
Gd280 O305 2.717 . S
Gd280 O307 2.395 . S
Gd280 O311 2.327 . S
Gd281 C292 2.818 . S
Gd281 O301 2.395 . S
Gd281 O305 2.327 . S
Gd281 O306 2.377 . S
Gd281 O308 2.448 . S
Gd281 O309 2.506 . S
Gd281 O310 2.435 . S
Gd281 O311 2.717 . S
C282 O300 1.240 . S
C282 O301 1.240 . S
C283 Gd280 2.818 1_655 S
C283 C284 1.510 . S
C283 O302 1.249 . S
C283 O303 1.252 . S
C284 C283 1.510 . S
C284 C285 1.404 . S
C284 C286 1.352 . S
C285 C284 1.404 . S
C285 C289 1.389 . S
C285 H312 0.930 . S
C286 C284 1.352 . S
C286 C288 1.374 . S
C286 H313 0.931 . S
C287 C288 1.359 . S
C287 C289 1.364 . S
C288 C286 1.374 . S
C288 C287 1.359 . S
C288 H314 0.931 . S
C289 C285 1.389 . S
C289 C287 1.364 . S
C289 H315 0.931 . S
C290 O304 1.256 . S
C290 O305 1.257 . S
C291 O306 1.240 . S
C291 O307 1.240 . S
C292 Gd281 2.818 . S
C292 C293 1.510 . S
C292 O308 1.249 . S
C292 O309 1.252 . S
C293 C292 1.510 . S
C293 C294 1.404 . S
C293 C295 1.352 . S
C294 C293 1.404 . S
C294 C298 1.389 . S
C294 H316 0.930 . S
C295 C293 1.352 . S
C295 C297 1.374 . S
C295 H317 0.931 . S
C296 C297 1.359 . S
C296 C298 1.364 . S
C297 C295 1.374 . S
C297 C296 1.359 . S
C297 H318 0.931 . S
C298 C294 1.389 . S
C298 C296 1.364 . S
C298 H319 0.931 . S
C299 O310 1.256 . S
C299 O311 1.257 . S
O300 Gd280 2.377 . S
O300 C282 1.240 . S
O301 Gd281 2.395 . S
O301 C282 1.240 . S
O302 Gd280 2.448 1_655 S
O302 C283 1.249 . S
O303 Gd280 2.506 1_655 S
O303 C283 1.252 . S
O304 Gd280 2.435 . S
O304 C290 1.256 . S
O305 Gd280 2.717 . S
O305 Gd281 2.327 . S
O305 C290 1.257 . S
O306 Gd281 2.377 . S
O306 C291 1.240 . S
O307 Gd280 2.395 . S
O307 C291 1.240 . S
O308 Gd281 2.448 . S
O308 C292 1.249 . S
O309 Gd281 2.506 . S
O309 C292 1.252 . S
O310 Gd281 2.435 . S
O310 C299 1.256 . S
O311 Gd280 2.327 . S
O311 Gd281 2.717 . S
O311 C299 1.257 . S
H312 C285 0.930 . S
H313 C286 0.931 . S
H314 C288 0.931 . S
H315 C289 0.931 . S
H316 C294 0.930 . S
H317 C295 0.931 . S
H318 C297 0.931 . S
H319 C298 0.931 . S
Gd320 C323 2.818 . S
Gd320 O340 2.377 . S
Gd320 O342 2.448 . S
Gd320 O343 2.506 . S
Gd320 O344 2.435 . S
Gd320 O345 2.717 . S
Gd320 O347 2.395 . S
Gd320 O351 2.327 . S
Gd321 C332 2.818 . S
Gd321 O341 2.395 . S
Gd321 O345 2.327 . S
Gd321 O346 2.377 . S
Gd321 O348 2.448 . S
Gd321 O349 2.506 . S
Gd321 O350 2.435 . S
Gd321 O351 2.717 . S
C322 O340 1.240 . S
C322 O341 1.240 . S
C323 Gd320 2.818 . S
C323 C324 1.510 . S
C323 O342 1.249 . S
C323 O343 1.252 . S
C324 C323 1.510 . S
C324 C325 1.404 . S
C324 C326 1.352 . S
C325 C324 1.404 . S
C325 C329 1.389 . S
C325 H352 0.930 . S
C326 C324 1.352 . S
C326 C328 1.374 . S
C326 H353 0.931 . S
C327 C328 1.359 . S
C327 C329 1.364 . S
C328 C326 1.374 . S
C328 C327 1.359 . S
C328 H354 0.931 . S
C329 C325 1.389 . S
C329 C327 1.364 . S
C329 H355 0.931 . S
C330 O344 1.256 . S
C330 O345 1.257 . S
C331 O346 1.240 . S
C331 O347 1.240 . S
C332 Gd321 2.818 . S
C332 C333 1.510 . S
C332 O348 1.249 . S
C332 O349 1.252 . S
C333 C332 1.510 . S
C333 C334 1.404 . S
C333 C335 1.352 . S
C334 C333 1.404 . S
C334 C338 1.389 . S
C334 H356 0.930 . S
C335 C333 1.352 . S
C335 C337 1.374 . S
C335 H357 0.931 . S
C336 C337 1.359 . S
C336 C338 1.364 . S
C337 C335 1.374 . S
C337 C336 1.359 . S
C337 H358 0.931 . S
C338 C334 1.389 . S
C338 C336 1.364 . S
C338 H359 0.931 . S
C339 O350 1.256 . S
C339 O351 1.257 . S
O340 Gd320 2.377 . S
O340 C322 1.240 . S
O341 Gd321 2.395 . S
O341 C322 1.240 . S
O342 Gd320 2.448 . S
O342 C323 1.249 . S
O343 Gd320 2.506 . S
O343 C323 1.252 . S
O344 Gd320 2.435 . S
O344 C330 1.256 . S
O345 Gd320 2.717 . S
O345 Gd321 2.327 . S
O345 C330 1.257 . S
O346 Gd321 2.377 . S
O346 C331 1.240 . S
O347 Gd320 2.395 . S
O347 C331 1.240 . S
O348 Gd321 2.448 . S
O348 C332 1.249 . S
O349 Gd321 2.506 . S
O349 C332 1.252 . S
O350 Gd321 2.435 . S
O350 C339 1.256 . S
O351 Gd320 2.327 . S
O351 Gd321 2.717 . S
O351 C339 1.257 . S
H352 C325 0.930 . S
H353 C326 0.931 . S
H354 C328 0.931 . S
H355 C329 0.931 . S
H356 C334 0.930 . S
H357 C335 0.931 . S
H358 C337 0.931 . S
H359 C338 0.931 . S
Gd360 C363 2.818 . S
Gd360 O380 2.377 . S
Gd360 O382 2.448 . S
Gd360 O383 2.506 . S
Gd360 O384 2.435 . S
Gd360 O385 2.717 . S
Gd360 O387 2.395 . S
Gd360 O391 2.327 . S
Gd361 C372 2.818 1_655 S
Gd361 O381 2.395 . S
Gd361 O385 2.327 . S
Gd361 O386 2.377 . S
Gd361 O388 2.448 1_655 S
Gd361 O389 2.506 1_655 S
Gd361 O390 2.435 . S
Gd361 O391 2.717 . S
C362 O380 1.240 . S
C362 O381 1.240 . S
C363 Gd360 2.818 . S
C363 C364 1.510 . S
C363 O382 1.249 . S
C363 O383 1.252 . S
C364 C363 1.510 . S
C364 C365 1.404 . S
C364 C366 1.352 . S
C365 C364 1.404 . S
C365 C369 1.389 . S
C365 H392 0.930 . S
C366 C364 1.352 . S
C366 C368 1.374 . S
C366 H393 0.931 . S
C367 C368 1.359 . S
C367 C369 1.364 . S
C368 C366 1.374 . S
C368 C367 1.359 . S
C368 H394 0.931 . S
C369 C365 1.389 . S
C369 C367 1.364 . S
C369 H395 0.931 . S
C370 O384 1.256 . S
C370 O385 1.257 . S
C371 O386 1.240 . S
C371 O387 1.240 . S
C372 Gd361 2.818 1_455 S
C372 C373 1.510 . S
C372 O388 1.249 . S
C372 O389 1.252 . S
C373 C372 1.510 . S
C373 C374 1.404 . S
C373 C375 1.352 . S
C374 C373 1.404 . S
C374 C378 1.389 . S
C374 H396 0.930 . S
C375 C373 1.352 . S
C375 C377 1.374 . S
C375 H397 0.931 . S
C376 C377 1.359 . S
C376 C378 1.364 . S
C377 C375 1.374 . S
C377 C376 1.359 . S
C377 H398 0.931 . S
C378 C374 1.389 . S
C378 C376 1.364 . S
C378 H399 0.931 . S
C379 O390 1.256 . S
C379 O391 1.257 . S
O380 Gd360 2.377 . S
O380 C362 1.240 . S
O381 Gd361 2.395 . S
O381 C362 1.240 . S
O382 Gd360 2.448 . S
O382 C363 1.249 . S
O383 Gd360 2.506 . S
O383 C363 1.252 . S
O384 Gd360 2.435 . S
O384 C370 1.256 . S
O385 Gd360 2.717 . S
O385 Gd361 2.327 . S
O385 C370 1.257 . S
O386 Gd361 2.377 . S
O386 C371 1.240 . S
O387 Gd360 2.395 . S
O387 C371 1.240 . S
O388 Gd361 2.448 1_455 S
O388 C372 1.249 . S
O389 Gd361 2.506 1_455 S
O389 C372 1.252 . S
O390 Gd361 2.435 . S
O390 C379 1.256 . S
O391 Gd360 2.327 . S
O391 Gd361 2.717 . S
O391 C379 1.257 . S
H392 C365 0.930 . S
H393 C366 0.931 . S
H394 C368 0.931 . S
H395 C369 0.931 . S
H396 C374 0.930 . S
H397 C375 0.931 . S
H398 C377 0.931 . S
H399 C378 0.931 . S
Gd400 C403 2.818 . S
Gd400 O420 2.377 . S
Gd400 O422 2.448 . S
Gd400 O423 2.506 . S
Gd400 O424 2.435 . S
Gd400 O425 2.717 . S
Gd400 O427 2.395 . S
Gd400 O431 2.327 . S
Gd401 C412 2.818 . S
Gd401 O421 2.395 . S
Gd401 O425 2.327 . S
Gd401 O426 2.377 . S
Gd401 O428 2.448 . S
Gd401 O429 2.506 . S
Gd401 O430 2.435 . S
Gd401 O431 2.717 . S
C402 O420 1.240 . S
C402 O421 1.240 . S
C403 Gd400 2.818 . S
C403 C404 1.510 . S
C403 O422 1.249 . S
C403 O423 1.252 . S
C404 C403 1.510 . S
C404 C405 1.404 . S
C404 C406 1.352 . S
C405 C404 1.404 . S
C405 C409 1.389 . S
C405 H432 0.930 . S
C406 C404 1.352 . S
C406 C408 1.374 . S
C406 H433 0.931 . S
C407 C408 1.359 . S
C407 C409 1.364 . S
C408 C406 1.374 . S
C408 C407 1.359 . S
C408 H434 0.931 . S
C409 C405 1.389 . S
C409 C407 1.364 . S
C409 H435 0.931 . S
C410 O424 1.256 . S
C410 O425 1.257 . S
C411 O426 1.240 . S
C411 O427 1.240 . S
C412 Gd401 2.818 . S
C412 C413 1.510 . S
C412 O428 1.249 . S
C412 O429 1.252 . S
C413 C412 1.510 . S
C413 C414 1.404 . S
C413 C415 1.352 . S
C414 C413 1.404 . S
C414 C418 1.389 . S
C414 H436 0.930 . S
C415 C413 1.352 . S
C415 C417 1.374 . S
C415 H437 0.931 . S
C416 C417 1.359 . S
C416 C418 1.364 . S
C417 C415 1.374 . S
C417 C416 1.359 . S
C417 H438 0.931 . S
C418 C414 1.389 . S
C418 C416 1.364 . S
C418 H439 0.931 . S
C419 O430 1.256 . S
C419 O431 1.257 . S
O420 Gd400 2.377 . S
O420 C402 1.240 . S
O421 Gd401 2.395 . S
O421 C402 1.240 . S
O422 Gd400 2.448 . S
O422 C403 1.249 . S
O423 Gd400 2.506 . S
O423 C403 1.252 . S
O424 Gd400 2.435 . S
O424 C410 1.256 . S
O425 Gd400 2.717 . S
O425 Gd401 2.327 . S
O425 C410 1.257 . S
O426 Gd401 2.377 . S
O426 C411 1.240 . S
O427 Gd400 2.395 . S
O427 C411 1.240 . S
O428 Gd401 2.448 . S
O428 C412 1.249 . S
O429 Gd401 2.506 . S
O429 C412 1.252 . S
O430 Gd401 2.435 . S
O430 C419 1.256 . S
O431 Gd400 2.327 . S
O431 Gd401 2.717 . S
O431 C419 1.257 . S
H432 C405 0.930 . S
H433 C406 0.931 . S
H434 C408 0.931 . S
H435 C409 0.931 . S
H436 C414 0.930 . S
H437 C415 0.931 . S
H438 C417 0.931 . S
H439 C418 0.931 . S
Gd440 C443 2.818 . S
Gd440 O460 2.377 . S
Gd440 O462 2.448 . S
Gd440 O463 2.506 . S
Gd440 O464 2.435 . S
Gd440 O465 2.717 . S
Gd440 O467 2.395 . S
Gd440 O471 2.327 . S
Gd441 C452 2.818 . S
Gd441 O461 2.395 . S
Gd441 O465 2.327 . S
Gd441 O466 2.377 . S
Gd441 O468 2.448 . S
Gd441 O469 2.506 . S
Gd441 O470 2.435 . S
Gd441 O471 2.717 . S
C442 O460 1.240 . S
C442 O461 1.240 . S
C443 Gd440 2.818 . S
C443 C444 1.510 . S
C443 O462 1.249 . S
C443 O463 1.252 . S
C444 C443 1.510 . S
C444 C445 1.404 . S
C444 C446 1.352 . S
C445 C444 1.404 . S
C445 C449 1.389 . S
C445 H472 0.930 . S
C446 C444 1.352 . S
C446 C448 1.374 . S
C446 H473 0.931 . S
C447 C448 1.359 . S
C447 C449 1.364 . S
C448 C446 1.374 . S
C448 C447 1.359 . S
C448 H474 0.931 . S
C449 C445 1.389 . S
C449 C447 1.364 . S
C449 H475 0.931 . S
C450 O464 1.256 . S
C450 O465 1.257 . S
C451 O466 1.240 . S
C451 O467 1.240 . S
C452 Gd441 2.818 . S
C452 C453 1.510 . S
C452 O468 1.249 . S
C452 O469 1.252 . S
C453 C452 1.510 . S
C453 C454 1.404 . S
C453 C455 1.352 . S
C454 C453 1.404 . S
C454 C458 1.389 . S
C454 H476 0.930 . S
C455 C453 1.352 . S
C455 C457 1.374 . S
C455 H477 0.931 . S
C456 C457 1.359 . S
C456 C458 1.364 . S
C457 C455 1.374 . S
C457 C456 1.359 . S
C457 H478 0.931 . S
C458 C454 1.389 . S
C458 C456 1.364 . S
C458 H479 0.931 . S
C459 O470 1.256 . S
C459 O471 1.257 . S
O460 Gd440 2.377 . S
O460 C442 1.240 . S
O461 Gd441 2.395 . S
O461 C442 1.240 . S
O462 Gd440 2.448 . S
O462 C443 1.249 . S
O463 Gd440 2.506 . S
O463 C443 1.252 . S
O464 Gd440 2.435 . S
O464 C450 1.256 . S
O465 Gd440 2.717 . S
O465 Gd441 2.327 . S
O465 C450 1.257 . S
O466 Gd441 2.377 . S
O466 C451 1.240 . S
O467 Gd440 2.395 . S
O467 C451 1.240 . S
O468 Gd441 2.448 . S
O468 C452 1.249 . S
O469 Gd441 2.506 . S
O469 C452 1.252 . S
O470 Gd441 2.435 . S
O470 C459 1.256 . S
O471 Gd440 2.327 . S
O471 Gd441 2.717 . S
O471 C459 1.257 . S
H472 C445 0.930 . S
H473 C446 0.931 . S
H474 C448 0.931 . S
H475 C449 0.931 . S
H476 C454 0.930 . S
H477 C455 0.931 . S
H478 C457 0.931 . S
H479 C458 0.931 . S
Gd480 C483 2.818 . S
Gd480 O500 2.377 . S
Gd480 O502 2.448 . S
Gd480 O503 2.506 . S
Gd480 O504 2.435 . S
Gd480 O505 2.717 . S
Gd480 O507 2.395 . S
Gd480 O511 2.327 . S
Gd481 C492 2.818 . S
Gd481 O501 2.395 . S
Gd481 O505 2.327 . S
Gd481 O506 2.377 . S
Gd481 O508 2.448 . S
Gd481 O509 2.506 . S
Gd481 O510 2.435 . S
Gd481 O511 2.717 . S
C482 O500 1.240 . S
C482 O501 1.240 . S
C483 Gd480 2.818 . S
C483 C484 1.510 . S
C483 O502 1.249 . S
C483 O503 1.252 . S
C484 C483 1.510 . S
C484 C485 1.404 . S
C484 C486 1.352 . S
C485 C484 1.404 . S
C485 C489 1.389 . S
C485 H512 0.930 . S
C486 C484 1.352 . S
C486 C488 1.374 . S
C486 H513 0.931 . S
C487 C488 1.359 . S
C487 C489 1.364 . S
C488 C486 1.374 . S
C488 C487 1.359 . S
C488 H514 0.931 . S
C489 C485 1.389 . S
C489 C487 1.364 . S
C489 H515 0.931 . S
C490 O504 1.256 . S
C490 O505 1.257 . S
C491 O506 1.240 . S
C491 O507 1.240 . S
C492 Gd481 2.818 . S
C492 C493 1.510 . S
C492 O508 1.249 . S
C492 O509 1.252 . S
C493 C492 1.510 . S
C493 C494 1.404 . S
C493 C495 1.352 . S
C494 C493 1.404 . S
C494 C498 1.389 . S
C494 H516 0.930 . S
C495 C493 1.352 . S
C495 C497 1.374 . S
C495 H517 0.931 . S
C496 C497 1.359 . S
C496 C498 1.364 . S
C497 C495 1.374 . S
C497 C496 1.359 . S
C497 H518 0.931 . S
C498 C494 1.389 . S
C498 C496 1.364 . S
C498 H519 0.931 . S
C499 O510 1.256 . S
C499 O511 1.257 . S
O500 Gd480 2.377 . S
O500 C482 1.240 . S
O501 Gd481 2.395 . S
O501 C482 1.240 . S
O502 Gd480 2.448 . S
O502 C483 1.249 . S
O503 Gd480 2.506 . S
O503 C483 1.252 . S
O504 Gd480 2.435 . S
O504 C490 1.256 . S
O505 Gd480 2.717 . S
O505 Gd481 2.327 . S
O505 C490 1.257 . S
O506 Gd481 2.377 . S
O506 C491 1.240 . S
O507 Gd480 2.395 . S
O507 C491 1.240 . S
O508 Gd481 2.448 . S
O508 C492 1.249 . S
O509 Gd481 2.506 . S
O509 C492 1.252 . S
O510 Gd481 2.435 . S
O510 C499 1.256 . S
O511 Gd480 2.327 . S
O511 Gd481 2.717 . S
O511 C499 1.257 . S
H512 C485 0.930 . S
H513 C486 0.931 . S
H514 C488 0.931 . S
H515 C489 0.931 . S
H516 C494 0.930 . S
H517 C495 0.931 . S
H518 C497 0.931 . S
H519 C498 0.931 . S
Gd520 C523 2.818 . S
Gd520 O540 2.377 . S
Gd520 O542 2.448 . S
Gd520 O543 2.506 . S
Gd520 O544 2.435 . S
Gd520 O545 2.717 . S
Gd520 O547 2.395 . S
Gd520 O551 2.327 . S
Gd521 C532 2.818 . S
Gd521 O541 2.395 . S
Gd521 O545 2.327 . S
Gd521 O546 2.377 . S
Gd521 O548 2.448 . S
Gd521 O549 2.506 . S
Gd521 O550 2.435 . S
Gd521 O551 2.717 . S
C522 O540 1.240 . S
C522 O541 1.240 . S
C523 Gd520 2.818 . S
C523 C524 1.510 . S
C523 O542 1.249 . S
C523 O543 1.252 . S
C524 C523 1.510 . S
C524 C525 1.404 . S
C524 C526 1.352 . S
C525 C524 1.404 . S
C525 C529 1.389 . S
C525 H552 0.930 . S
C526 C524 1.352 . S
C526 C528 1.374 . S
C526 H553 0.931 . S
C527 C528 1.359 . S
C527 C529 1.364 . S
C528 C526 1.374 . S
C528 C527 1.359 . S
C528 H554 0.931 . S
C529 C525 1.389 . S
C529 C527 1.364 . S
C529 H555 0.931 . S
C530 O544 1.256 . S
C530 O545 1.257 . S
C531 O546 1.240 . S
C531 O547 1.240 . S
C532 Gd521 2.818 . S
C532 C533 1.510 . S
C532 O548 1.249 . S
C532 O549 1.252 . S
C533 C532 1.510 . S
C533 C534 1.404 . S
C533 C535 1.352 . S
C534 C533 1.404 . S
C534 C538 1.389 . S
C534 H556 0.930 . S
C535 C533 1.352 . S
C535 C537 1.374 . S
C535 H557 0.931 . S
C536 C537 1.359 . S
C536 C538 1.364 . S
C537 C535 1.374 . S
C537 C536 1.359 . S
C537 H558 0.931 . S
C538 C534 1.389 . S
C538 C536 1.364 . S
C538 H559 0.931 . S
C539 O550 1.256 . S
C539 O551 1.257 . S
O540 Gd520 2.377 . S
O540 C522 1.240 . S
O541 Gd521 2.395 . S
O541 C522 1.240 . S
O542 Gd520 2.448 . S
O542 C523 1.249 . S
O543 Gd520 2.506 . S
O543 C523 1.252 . S
O544 Gd520 2.435 . S
O544 C530 1.256 . S
O545 Gd520 2.717 . S
O545 Gd521 2.327 . S
O545 C530 1.257 . S
O546 Gd521 2.377 . S
O546 C531 1.240 . S
O547 Gd520 2.395 . S
O547 C531 1.240 . S
O548 Gd521 2.448 . S
O548 C532 1.249 . S
O549 Gd521 2.506 . S
O549 C532 1.252 . S
O550 Gd521 2.435 . S
O550 C539 1.256 . S
O551 Gd520 2.327 . S
O551 Gd521 2.717 . S
O551 C539 1.257 . S
H552 C525 0.930 . S
H553 C526 0.931 . S
H554 C528 0.931 . S
H555 C529 0.931 . S
H556 C534 0.930 . S
H557 C535 0.931 . S
H558 C537 0.931 . S
H559 C538 0.931 . S
Gd560 C563 2.818 . S
Gd560 O580 2.377 . S
Gd560 O582 2.448 . S
Gd560 O583 2.506 . S
Gd560 O584 2.435 . S
Gd560 O585 2.717 . S
Gd560 O587 2.395 . S
Gd560 O591 2.327 . S
Gd561 C572 2.818 . S
Gd561 O581 2.395 . S
Gd561 O585 2.327 . S
Gd561 O586 2.377 . S
Gd561 O588 2.448 . S
Gd561 O589 2.506 . S
Gd561 O590 2.435 . S
Gd561 O591 2.717 . S
C562 O580 1.240 . S
C562 O581 1.240 . S
C563 Gd560 2.818 . S
C563 C564 1.510 . S
C563 O582 1.249 . S
C563 O583 1.252 . S
C564 C563 1.510 . S
C564 C565 1.404 . S
C564 C566 1.352 . S
C565 C564 1.404 . S
C565 C569 1.389 . S
C565 H592 0.930 . S
C566 C564 1.352 . S
C566 C568 1.374 . S
C566 H593 0.931 . S
C567 C568 1.359 . S
C567 C569 1.364 . S
C568 C566 1.374 . S
C568 C567 1.359 . S
C568 H594 0.931 . S
C569 C565 1.389 . S
C569 C567 1.364 . S
C569 H595 0.931 . S
C570 O584 1.256 . S
C570 O585 1.257 . S
C571 O586 1.240 . S
C571 O587 1.240 . S
C572 Gd561 2.818 . S
C572 C573 1.510 . S
C572 O588 1.249 . S
C572 O589 1.252 . S
C573 C572 1.510 . S
C573 C574 1.404 . S
C573 C575 1.352 . S
C574 C573 1.404 . S
C574 C578 1.389 . S
C574 H596 0.930 . S
C575 C573 1.352 . S
C575 C577 1.374 . S
C575 H597 0.931 . S
C576 C577 1.359 . S
C576 C578 1.364 . S
C577 C575 1.374 . S
C577 C576 1.359 . S
C577 H598 0.931 . S
C578 C574 1.389 . S
C578 C576 1.364 . S
C578 H599 0.931 . S
C579 O590 1.256 . S
C579 O591 1.257 . S
O580 Gd560 2.377 . S
O580 C562 1.240 . S
O581 Gd561 2.395 . S
O581 C562 1.240 . S
O582 Gd560 2.448 . S
O582 C563 1.249 . S
O583 Gd560 2.506 . S
O583 C563 1.252 . S
O584 Gd560 2.435 . S
O584 C570 1.256 . S
O585 Gd560 2.717 . S
O585 Gd561 2.327 . S
O585 C570 1.257 . S
O586 Gd561 2.377 . S
O586 C571 1.240 . S
O587 Gd560 2.395 . S
O587 C571 1.240 . S
O588 Gd561 2.448 . S
O588 C572 1.249 . S
O589 Gd561 2.506 . S
O589 C572 1.252 . S
O590 Gd561 2.435 . S
O590 C579 1.256 . S
O591 Gd560 2.327 . S
O591 Gd561 2.717 . S
O591 C579 1.257 . S
H592 C565 0.930 . S
H593 C566 0.931 . S
H594 C568 0.931 . S
H595 C569 0.931 . S
H596 C574 0.930 . S
H597 C575 0.931 . S
H598 C577 0.931 . S
H599 C578 0.931 . S
Gd600 C603 2.818 . S
Gd600 O620 2.377 . S
Gd600 O622 2.448 . S
Gd600 O623 2.506 . S
Gd600 O624 2.435 . S
Gd600 O625 2.717 . S
Gd600 O627 2.395 . S
Gd600 O631 2.327 . S
Gd601 C612 2.818 1_655 S
Gd601 O621 2.395 . S
Gd601 O625 2.327 . S
Gd601 O626 2.377 . S
Gd601 O628 2.448 1_655 S
Gd601 O629 2.506 1_655 S
Gd601 O630 2.435 . S
Gd601 O631 2.717 . S
C602 O620 1.240 . S
C602 O621 1.240 . S
C603 Gd600 2.818 . S
C603 C604 1.510 . S
C603 O622 1.249 . S
C603 O623 1.252 . S
C604 C603 1.510 . S
C604 C605 1.404 . S
C604 C606 1.352 . S
C605 C604 1.404 . S
C605 C609 1.389 . S
C605 H632 0.930 . S
C606 C604 1.352 . S
C606 C608 1.374 . S
C606 H633 0.931 . S
C607 C608 1.359 . S
C607 C609 1.364 . S
C608 C606 1.374 . S
C608 C607 1.359 . S
C608 H634 0.931 . S
C609 C605 1.389 . S
C609 C607 1.364 . S
C609 H635 0.931 . S
C610 O624 1.256 . S
C610 O625 1.257 . S
C611 O626 1.240 . S
C611 O627 1.240 . S
C612 Gd601 2.818 1_455 S
C612 C613 1.510 . S
C612 O628 1.249 . S
C612 O629 1.252 . S
C613 C612 1.510 . S
C613 C614 1.404 . S
C613 C615 1.352 . S
C614 C613 1.404 . S
C614 C618 1.389 . S
C614 H636 0.930 . S
C615 C613 1.352 . S
C615 C617 1.374 . S
C615 H637 0.931 . S
C616 C617 1.359 . S
C616 C618 1.364 . S
C617 C615 1.374 . S
C617 C616 1.359 . S
C617 H638 0.931 . S
C618 C614 1.389 . S
C618 C616 1.364 . S
C618 H639 0.931 . S
C619 O630 1.256 . S
C619 O631 1.257 . S
O620 Gd600 2.377 . S
O620 C602 1.240 . S
O621 Gd601 2.395 . S
O621 C602 1.240 . S
O622 Gd600 2.448 . S
O622 C603 1.249 . S
O623 Gd600 2.506 . S
O623 C603 1.252 . S
O624 Gd600 2.435 . S
O624 C610 1.256 . S
O625 Gd600 2.717 . S
O625 Gd601 2.327 . S
O625 C610 1.257 . S
O626 Gd601 2.377 . S
O626 C611 1.240 . S
O627 Gd600 2.395 . S
O627 C611 1.240 . S
O628 Gd601 2.448 1_455 S
O628 C612 1.249 . S
O629 Gd601 2.506 1_455 S
O629 C612 1.252 . S
O630 Gd601 2.435 . S
O630 C619 1.256 . S
O631 Gd600 2.327 . S
O631 Gd601 2.717 . S
O631 C619 1.257 . S
H632 C605 0.930 . S
H633 C606 0.931 . S
H634 C608 0.931 . S
H635 C609 0.931 . S
H636 C614 0.930 . S
H637 C615 0.931 . S
H638 C617 0.931 . S
H639 C618 0.931 . S
Gd640 C643 2.818 . S
Gd640 O660 2.377 . S
Gd640 O662 2.448 . S
Gd640 O663 2.506 . S
Gd640 O664 2.435 . S
Gd640 O665 2.717 . S
Gd640 O667 2.395 . S
Gd640 O671 2.327 . S
Gd641 C652 2.818 . S
Gd641 O661 2.395 . S
Gd641 O665 2.327 . S
Gd641 O666 2.377 . S
Gd641 O668 2.448 . S
Gd641 O669 2.506 . S
Gd641 O670 2.435 . S
Gd641 O671 2.717 . S
C642 O660 1.240 . S
C642 O661 1.240 . S
C643 Gd640 2.818 . S
C643 C644 1.510 . S
C643 O662 1.249 . S
C643 O663 1.252 . S
C644 C643 1.510 . S
C644 C645 1.404 . S
C644 C646 1.352 . S
C645 C644 1.404 . S
C645 C649 1.389 . S
C645 H672 0.930 . S
C646 C644 1.352 . S
C646 C648 1.374 . S
C646 H673 0.931 . S
C647 C648 1.359 . S
C647 C649 1.364 . S
C648 C646 1.374 . S
C648 C647 1.359 . S
C648 H674 0.931 . S
C649 C645 1.389 . S
C649 C647 1.364 . S
C649 H675 0.931 . S
C650 O664 1.256 . S
C650 O665 1.257 . S
C651 O666 1.240 . S
C651 O667 1.240 . S
C652 Gd641 2.818 . S
C652 C653 1.510 . S
C652 O668 1.249 . S
C652 O669 1.252 . S
C653 C652 1.510 . S
C653 C654 1.404 . S
C653 C655 1.352 . S
C654 C653 1.404 . S
C654 C658 1.389 . S
C654 H676 0.930 . S
C655 C653 1.352 . S
C655 C657 1.374 . S
C655 H677 0.931 . S
C656 C657 1.359 . S
C656 C658 1.364 . S
C657 C655 1.374 . S
C657 C656 1.359 . S
C657 H678 0.931 . S
C658 C654 1.389 . S
C658 C656 1.364 . S
C658 H679 0.931 . S
C659 O670 1.256 . S
C659 O671 1.257 . S
O660 Gd640 2.377 . S
O660 C642 1.240 . S
O661 Gd641 2.395 . S
O661 C642 1.240 . S
O662 Gd640 2.448 . S
O662 C643 1.249 . S
O663 Gd640 2.506 . S
O663 C643 1.252 . S
O664 Gd640 2.435 . S
O664 C650 1.256 . S
O665 Gd640 2.717 . S
O665 Gd641 2.327 . S
O665 C650 1.257 . S
O666 Gd641 2.377 . S
O666 C651 1.240 . S
O667 Gd640 2.395 . S
O667 C651 1.240 . S
O668 Gd641 2.448 . S
O668 C652 1.249 . S
O669 Gd641 2.506 . S
O669 C652 1.252 . S
O670 Gd641 2.435 . S
O670 C659 1.256 . S
O671 Gd640 2.327 . S
O671 Gd641 2.717 . S
O671 C659 1.257 . S
H672 C645 0.930 . S
H673 C646 0.931 . S
H674 C648 0.931 . S
H675 C649 0.931 . S
H676 C654 0.930 . S
H677 C655 0.931 . S
H678 C657 0.931 . S
H679 C658 0.931 . S
Gd680 C683 2.818 . S
Gd680 O700 2.377 . S
Gd680 O702 2.448 . S
Gd680 O703 2.506 . S
Gd680 O704 2.435 . S
Gd680 O705 2.717 . S
Gd680 O707 2.395 . S
Gd680 O711 2.327 . S
Gd681 C692 2.818 . S
Gd681 O701 2.395 . S
Gd681 O705 2.327 . S
Gd681 O706 2.377 . S
Gd681 O708 2.448 . S
Gd681 O709 2.506 . S
Gd681 O710 2.435 . S
Gd681 O711 2.717 . S
C682 O700 1.240 . S
C682 O701 1.240 . S
C683 Gd680 2.818 . S
C683 C684 1.510 . S
C683 O702 1.249 . S
C683 O703 1.252 . S
C684 C683 1.510 . S
C684 C685 1.404 . S
C684 C686 1.352 . S
C685 C684 1.404 . S
C685 C689 1.389 . S
C685 H712 0.930 . S
C686 C684 1.352 . S
C686 C688 1.374 . S
C686 H713 0.931 . S
C687 C688 1.359 . S
C687 C689 1.364 . S
C688 C686 1.374 . S
C688 C687 1.359 . S
C688 H714 0.931 . S
C689 C685 1.389 . S
C689 C687 1.364 . S
C689 H715 0.931 . S
C690 O704 1.256 . S
C690 O705 1.257 . S
C691 O706 1.240 . S
C691 O707 1.240 . S
C692 Gd681 2.818 . S
C692 C693 1.510 . S
C692 O708 1.249 . S
C692 O709 1.252 . S
C693 C692 1.510 . S
C693 C694 1.404 . S
C693 C695 1.352 . S
C694 C693 1.404 . S
C694 C698 1.389 . S
C694 H716 0.930 . S
C695 C693 1.352 . S
C695 C697 1.374 . S
C695 H717 0.931 . S
C696 C697 1.359 . S
C696 C698 1.364 . S
C697 C695 1.374 . S
C697 C696 1.359 . S
C697 H718 0.931 . S
C698 C694 1.389 . S
C698 C696 1.364 . S
C698 H719 0.931 . S
C699 O710 1.256 . S
C699 O711 1.257 . S
O700 Gd680 2.377 . S
O700 C682 1.240 . S
O701 Gd681 2.395 . S
O701 C682 1.240 . S
O702 Gd680 2.448 . S
O702 C683 1.249 . S
O703 Gd680 2.506 . S
O703 C683 1.252 . S
O704 Gd680 2.435 . S
O704 C690 1.256 . S
O705 Gd680 2.717 . S
O705 Gd681 2.327 . S
O705 C690 1.257 . S
O706 Gd681 2.377 . S
O706 C691 1.240 . S
O707 Gd680 2.395 . S
O707 C691 1.240 . S
O708 Gd681 2.448 . S
O708 C692 1.249 . S
O709 Gd681 2.506 . S
O709 C692 1.252 . S
O710 Gd681 2.435 . S
O710 C699 1.256 . S
O711 Gd680 2.327 . S
O711 Gd681 2.717 . S
O711 C699 1.257 . S
H712 C685 0.930 . S
H713 C686 0.931 . S
H714 C688 0.931 . S
H715 C689 0.931 . S
H716 C694 0.930 . S
H717 C695 0.931 . S
H718 C697 0.931 . S
H719 C698 0.931 . S
Gd720 C723 2.818 . S
Gd720 O740 2.377 . S
Gd720 O742 2.448 . S
Gd720 O743 2.506 . S
Gd720 O744 2.435 . S
Gd720 O745 2.717 . S
Gd720 O747 2.395 . S
Gd720 O751 2.327 . S
Gd721 C732 2.818 . S
Gd721 O741 2.395 . S
Gd721 O745 2.327 . S
Gd721 O746 2.377 . S
Gd721 O748 2.448 . S
Gd721 O749 2.506 . S
Gd721 O750 2.435 . S
Gd721 O751 2.717 . S
C722 O740 1.240 . S
C722 O741 1.240 . S
C723 Gd720 2.818 . S
C723 C724 1.510 . S
C723 O742 1.249 . S
C723 O743 1.252 . S
C724 C723 1.510 . S
C724 C725 1.404 . S
C724 C726 1.352 . S
C725 C724 1.404 . S
C725 C729 1.389 . S
C725 H752 0.930 . S
C726 C724 1.352 . S
C726 C728 1.374 . S
C726 H753 0.931 . S
C727 C728 1.359 . S
C727 C729 1.364 . S
C728 C726 1.374 . S
C728 C727 1.359 . S
C728 H754 0.931 . S
C729 C725 1.389 . S
C729 C727 1.364 . S
C729 H755 0.931 . S
C730 O744 1.256 . S
C730 O745 1.257 . S
C731 O746 1.240 . S
C731 O747 1.240 . S
C732 Gd721 2.818 . S
C732 C733 1.510 . S
C732 O748 1.249 . S
C732 O749 1.252 . S
C733 C732 1.510 . S
C733 C734 1.404 . S
C733 C735 1.352 . S
C734 C733 1.404 . S
C734 C738 1.389 . S
C734 H756 0.930 . S
C735 C733 1.352 . S
C735 C737 1.374 . S
C735 H757 0.931 . S
C736 C737 1.359 . S
C736 C738 1.364 . S
C737 C735 1.374 . S
C737 C736 1.359 . S
C737 H758 0.931 . S
C738 C734 1.389 . S
C738 C736 1.364 . S
C738 H759 0.931 . S
C739 O750 1.256 . S
C739 O751 1.257 . S
O740 Gd720 2.377 . S
O740 C722 1.240 . S
O741 Gd721 2.395 . S
O741 C722 1.240 . S
O742 Gd720 2.448 . S
O742 C723 1.249 . S
O743 Gd720 2.506 . S
O743 C723 1.252 . S
O744 Gd720 2.435 . S
O744 C730 1.256 . S
O745 Gd720 2.717 . S
O745 Gd721 2.327 . S
O745 C730 1.257 . S
O746 Gd721 2.377 . S
O746 C731 1.240 . S
O747 Gd720 2.395 . S
O747 C731 1.240 . S
O748 Gd721 2.448 . S
O748 C732 1.249 . S
O749 Gd721 2.506 . S
O749 C732 1.252 . S
O750 Gd721 2.435 . S
O750 C739 1.256 . S
O751 Gd720 2.327 . S
O751 Gd721 2.717 . S
O751 C739 1.257 . S
H752 C725 0.930 . S
H753 C726 0.931 . S
H754 C728 0.931 . S
H755 C729 0.931 . S
H756 C734 0.930 . S
H757 C735 0.931 . S
H758 C737 0.931 . S
H759 C738 0.931 . S
Gd760 C763 2.818 1_655 S
Gd760 O780 2.377 . S
Gd760 O782 2.448 1_655 S
Gd760 O783 2.506 1_655 S
Gd760 O784 2.435 . S
Gd760 O785 2.717 . S
Gd760 O787 2.395 . S
Gd760 O791 2.327 . S
Gd761 C772 2.818 . S
Gd761 O781 2.395 . S
Gd761 O785 2.327 . S
Gd761 O786 2.377 . S
Gd761 O788 2.448 . S
Gd761 O789 2.506 . S
Gd761 O790 2.435 . S
Gd761 O791 2.717 . S
C762 O780 1.240 . S
C762 O781 1.240 . S
C763 Gd760 2.818 1_455 S
C763 C764 1.510 . S
C763 O782 1.249 . S
C763 O783 1.252 . S
C764 C763 1.510 . S
C764 C765 1.404 . S
C764 C766 1.352 . S
C765 C764 1.404 . S
C765 C769 1.389 . S
C765 H792 0.930 . S
C766 C764 1.352 . S
C766 C768 1.374 . S
C766 H793 0.931 . S
C767 C768 1.359 . S
C767 C769 1.364 . S
C768 C766 1.374 . S
C768 C767 1.359 . S
C768 H794 0.931 . S
C769 C765 1.389 . S
C769 C767 1.364 . S
C769 H795 0.931 . S
C770 O784 1.256 . S
C770 O785 1.257 . S
C771 O786 1.240 . S
C771 O787 1.240 . S
C772 Gd761 2.818 . S
C772 C773 1.510 . S
C772 O788 1.249 . S
C772 O789 1.252 . S
C773 C772 1.510 . S
C773 C774 1.404 . S
C773 C775 1.352 . S
C774 C773 1.404 . S
C774 C778 1.389 . S
C774 H796 0.930 . S
C775 C773 1.352 . S
C775 C777 1.374 . S
C775 H797 0.931 . S
C776 C777 1.359 . S
C776 C778 1.364 . S
C777 C775 1.374 . S
C777 C776 1.359 . S
C777 H798 0.931 . S
C778 C774 1.389 . S
C778 C776 1.364 . S
C778 H799 0.931 . S
C779 O790 1.256 . S
C779 O791 1.257 . S
O780 Gd760 2.377 . S
O780 C762 1.240 . S
O781 Gd761 2.395 . S
O781 C762 1.240 . S
O782 Gd760 2.448 1_455 S
O782 C763 1.249 . S
O783 Gd760 2.506 1_455 S
O783 C763 1.252 . S
O784 Gd760 2.435 . S
O784 C770 1.256 . S
O785 Gd760 2.717 . S
O785 Gd761 2.327 . S
O785 C770 1.257 . S
O786 Gd761 2.377 . S
O786 C771 1.240 . S
O787 Gd760 2.395 . S
O787 C771 1.240 . S
O788 Gd761 2.448 . S
O788 C772 1.249 . S
O789 Gd761 2.506 . S
O789 C772 1.252 . S
O790 Gd761 2.435 . S
O790 C779 1.256 . S
O791 Gd760 2.327 . S
O791 Gd761 2.717 . S
O791 C779 1.257 . S
H792 C765 0.930 . S
H793 C766 0.931 . S
H794 C768 0.931 . S
H795 C769 0.931 . S
H796 C774 0.930 . S
H797 C775 0.931 . S
H798 C777 0.931 . S
H799 C778 0.931 . S
Gd800 C803 2.818 . S
Gd800 O820 2.377 . S
Gd800 O822 2.448 . S
Gd800 O823 2.506 . S
Gd800 O824 2.435 . S
Gd800 O825 2.717 . S
Gd800 O827 2.395 . S
Gd800 O831 2.327 . S
Gd801 C812 2.818 . S
Gd801 O821 2.395 . S
Gd801 O825 2.327 . S
Gd801 O826 2.377 . S
Gd801 O828 2.448 . S
Gd801 O829 2.506 . S
Gd801 O830 2.435 . S
Gd801 O831 2.717 . S
C802 O820 1.240 . S
C802 O821 1.240 . S
C803 Gd800 2.818 . S
C803 C804 1.510 . S
C803 O822 1.249 . S
C803 O823 1.252 . S
C804 C803 1.510 . S
C804 C805 1.404 . S
C804 C806 1.352 . S
C805 C804 1.404 . S
C805 C809 1.389 . S
C805 H832 0.930 . S
C806 C804 1.352 . S
C806 C808 1.374 . S
C806 H833 0.931 . S
C807 C808 1.359 . S
C807 C809 1.364 . S
C808 C806 1.374 . S
C808 C807 1.359 . S
C808 H834 0.931 . S
C809 C805 1.389 . S
C809 C807 1.364 . S
C809 H835 0.931 . S
C810 O824 1.256 . S
C810 O825 1.257 . S
C811 O826 1.240 . S
C811 O827 1.240 . S
C812 Gd801 2.818 . S
C812 C813 1.510 . S
C812 O828 1.249 . S
C812 O829 1.252 . S
C813 C812 1.510 . S
C813 C814 1.404 . S
C813 C815 1.352 . S
C814 C813 1.404 . S
C814 C818 1.389 . S
C814 H836 0.930 . S
C815 C813 1.352 . S
C815 C817 1.374 . S
C815 H837 0.931 . S
C816 C817 1.359 . S
C816 C818 1.364 . S
C817 C815 1.374 . S
C817 C816 1.359 . S
C817 H838 0.931 . S
C818 C814 1.389 . S
C818 C816 1.364 . S
C818 H839 0.931 . S
C819 O830 1.256 . S
C819 O831 1.257 . S
O820 Gd800 2.377 . S
O820 C802 1.240 . S
O821 Gd801 2.395 . S
O821 C802 1.240 . S
O822 Gd800 2.448 . S
O822 C803 1.249 . S
O823 Gd800 2.506 . S
O823 C803 1.252 . S
O824 Gd800 2.435 . S
O824 C810 1.256 . S
O825 Gd800 2.717 . S
O825 Gd801 2.327 . S
O825 C810 1.257 . S
O826 Gd801 2.377 . S
O826 C811 1.240 . S
O827 Gd800 2.395 . S
O827 C811 1.240 . S
O828 Gd801 2.448 . S
O828 C812 1.249 . S
O829 Gd801 2.506 . S
O829 C812 1.252 . S
O830 Gd801 2.435 . S
O830 C819 1.256 . S
O831 Gd800 2.327 . S
O831 Gd801 2.717 . S
O831 C819 1.257 . S
H832 C805 0.930 . S
H833 C806 0.931 . S
H834 C808 0.931 . S
H835 C809 0.931 . S
H836 C814 0.930 . S
H837 C815 0.931 . S
H838 C817 0.931 . S
H839 C818 0.931 . S
Gd840 C843 2.818 1_655 S
Gd840 O860 2.377 . S
Gd840 O862 2.448 1_655 S
Gd840 O863 2.506 1_655 S
Gd840 O864 2.435 . S
Gd840 O865 2.717 . S
Gd840 O867 2.395 . S
Gd840 O871 2.327 . S
Gd841 C852 2.818 . S
Gd841 O861 2.395 . S
Gd841 O865 2.327 . S
Gd841 O866 2.377 . S
Gd841 O868 2.448 . S
Gd841 O869 2.506 . S
Gd841 O870 2.435 . S
Gd841 O871 2.717 . S
C842 O860 1.240 . S
C842 O861 1.240 . S
C843 Gd840 2.818 1_455 S
C843 C844 1.510 . S
C843 O862 1.249 . S
C843 O863 1.252 . S
C844 C843 1.510 . S
C844 C845 1.404 . S
C844 C846 1.352 . S
C845 C844 1.404 . S
C845 C849 1.389 . S
C845 H872 0.930 . S
C846 C844 1.352 . S
C846 C848 1.374 . S
C846 H873 0.931 . S
C847 C848 1.359 . S
C847 C849 1.364 . S
C848 C846 1.374 . S
C848 C847 1.359 . S
C848 H874 0.931 . S
C849 C845 1.389 . S
C849 C847 1.364 . S
C849 H875 0.931 . S
C850 O864 1.256 . S
C850 O865 1.257 . S
C851 O866 1.240 . S
C851 O867 1.240 . S
C852 Gd841 2.818 . S
C852 C853 1.510 . S
C852 O868 1.249 . S
C852 O869 1.252 . S
C853 C852 1.510 . S
C853 C854 1.404 . S
C853 C855 1.352 . S
C854 C853 1.404 . S
C854 C858 1.389 . S
C854 H876 0.930 . S
C855 C853 1.352 . S
C855 C857 1.374 . S
C855 H877 0.931 . S
C856 C857 1.359 . S
C856 C858 1.364 . S
C857 C855 1.374 . S
C857 C856 1.359 . S
C857 H878 0.931 . S
C858 C854 1.389 . S
C858 C856 1.364 . S
C858 H879 0.931 . S
C859 O870 1.256 . S
C859 O871 1.257 . S
O860 Gd840 2.377 . S
O860 C842 1.240 . S
O861 Gd841 2.395 . S
O861 C842 1.240 . S
O862 Gd840 2.448 1_455 S
O862 C843 1.249 . S
O863 Gd840 2.506 1_455 S
O863 C843 1.252 . S
O864 Gd840 2.435 . S
O864 C850 1.256 . S
O865 Gd840 2.717 . S
O865 Gd841 2.327 . S
O865 C850 1.257 . S
O866 Gd841 2.377 . S
O866 C851 1.240 . S
O867 Gd840 2.395 . S
O867 C851 1.240 . S
O868 Gd841 2.448 . S
O868 C852 1.249 . S
O869 Gd841 2.506 . S
O869 C852 1.252 . S
O870 Gd841 2.435 . S
O870 C859 1.256 . S
O871 Gd840 2.327 . S
O871 Gd841 2.717 . S
O871 C859 1.257 . S
H872 C845 0.930 . S
H873 C846 0.931 . S
H874 C848 0.931 . S
H875 C849 0.931 . S
H876 C854 0.930 . S
H877 C855 0.931 . S
H878 C857 0.931 . S
H879 C858 0.931 . S
Gd880 C883 2.818 . S
Gd880 O900 2.377 . S
Gd880 O902 2.448 . S
Gd880 O903 2.506 . S
Gd880 O904 2.435 . S
Gd880 O905 2.717 . S
Gd880 O907 2.395 . S
Gd880 O911 2.327 . S
Gd881 C892 2.818 . S
Gd881 O901 2.395 . S
Gd881 O905 2.327 . S
Gd881 O906 2.377 . S
Gd881 O908 2.448 . S
Gd881 O909 2.506 . S
Gd881 O910 2.435 . S
Gd881 O911 2.717 . S
C882 O900 1.240 . S
C882 O901 1.240 . S
C883 Gd880 2.818 . S
C883 C884 1.510 . S
C883 O902 1.249 . S
C883 O903 1.252 . S
C884 C883 1.510 . S
C884 C885 1.404 . S
C884 C886 1.352 . S
C885 C884 1.404 . S
C885 C889 1.389 . S
C885 H912 0.930 . S
C886 C884 1.352 . S
C886 C888 1.374 . S
C886 H913 0.931 . S
C887 C888 1.359 . S
C887 C889 1.364 . S
C888 C886 1.374 . S
C888 C887 1.359 . S
C888 H914 0.931 . S
C889 C885 1.389 . S
C889 C887 1.364 . S
C889 H915 0.931 . S
C890 O904 1.256 . S
C890 O905 1.257 . S
C891 O906 1.240 . S
C891 O907 1.240 . S
C892 Gd881 2.818 . S
C892 C893 1.510 . S
C892 O908 1.249 . S
C892 O909 1.252 . S
C893 C892 1.510 . S
C893 C894 1.404 . S
C893 C895 1.352 . S
C894 C893 1.404 . S
C894 C898 1.389 . S
C894 H916 0.930 . S
C895 C893 1.352 . S
C895 C897 1.374 . S
C895 H917 0.931 . S
C896 C897 1.359 . S
C896 C898 1.364 . S
C897 C895 1.374 . S
C897 C896 1.359 . S
C897 H918 0.931 . S
C898 C894 1.389 . S
C898 C896 1.364 . S
C898 H919 0.931 . S
C899 O910 1.256 . S
C899 O911 1.257 . S
O900 Gd880 2.377 . S
O900 C882 1.240 . S
O901 Gd881 2.395 . S
O901 C882 1.240 . S
O902 Gd880 2.448 . S
O902 C883 1.249 . S
O903 Gd880 2.506 . S
O903 C883 1.252 . S
O904 Gd880 2.435 . S
O904 C890 1.256 . S
O905 Gd880 2.717 . S
O905 Gd881 2.327 . S
O905 C890 1.257 . S
O906 Gd881 2.377 . S
O906 C891 1.240 . S
O907 Gd880 2.395 . S
O907 C891 1.240 . S
O908 Gd881 2.448 . S
O908 C892 1.249 . S
O909 Gd881 2.506 . S
O909 C892 1.252 . S
O910 Gd881 2.435 . S
O910 C899 1.256 . S
O911 Gd880 2.327 . S
O911 Gd881 2.717 . S
O911 C899 1.257 . S
H912 C885 0.930 . S
H913 C886 0.931 . S
H914 C888 0.931 . S
H915 C889 0.931 . S
H916 C894 0.930 . S
H917 C895 0.931 . S
H918 C897 0.931 . S
H919 C898 0.931 . S
Gd920 C923 2.818 . S
Gd920 O940 2.377 . S
Gd920 O942 2.448 . S
Gd920 O943 2.506 . S
Gd920 O944 2.435 . S
Gd920 O945 2.717 . S
Gd920 O947 2.395 . S
Gd920 O951 2.327 . S
Gd921 C932 2.818 . S
Gd921 O941 2.395 . S
Gd921 O945 2.327 . S
Gd921 O946 2.377 . S
Gd921 O948 2.448 . S
Gd921 O949 2.506 . S
Gd921 O950 2.435 . S
Gd921 O951 2.717 . S
C922 O940 1.240 . S
C922 O941 1.240 . S
C923 Gd920 2.818 . S
C923 C924 1.510 . S
C923 O942 1.249 . S
C923 O943 1.252 . S
C924 C923 1.510 . S
C924 C925 1.404 . S
C924 C926 1.352 . S
C925 C924 1.404 . S
C925 C929 1.389 . S
C925 H952 0.930 . S
C926 C924 1.352 . S
C926 C928 1.374 . S
C926 H953 0.931 . S
C927 C928 1.359 . S
C927 C929 1.364 . S
C928 C926 1.374 . S
C928 C927 1.359 . S
C928 H954 0.931 . S
C929 C925 1.389 . S
C929 C927 1.364 . S
C929 H955 0.931 . S
C930 O944 1.256 . S
C930 O945 1.257 . S
C931 O946 1.240 . S
C931 O947 1.240 . S
C932 Gd921 2.818 . S
C932 C933 1.510 . S
C932 O948 1.249 . S
C932 O949 1.252 . S
C933 C932 1.510 . S
C933 C934 1.404 . S
C933 C935 1.352 . S
C934 C933 1.404 . S
C934 C938 1.389 . S
C934 H956 0.930 . S
C935 C933 1.352 . S
C935 C937 1.374 . S
C935 H957 0.931 . S
C936 C937 1.359 . S
C936 C938 1.364 . S
C937 C935 1.374 . S
C937 C936 1.359 . S
C937 H958 0.931 . S
C938 C934 1.389 . S
C938 C936 1.364 . S
C938 H959 0.931 . S
C939 O950 1.256 . S
C939 O951 1.257 . S
O940 Gd920 2.377 . S
O940 C922 1.240 . S
O941 Gd921 2.395 . S
O941 C922 1.240 . S
O942 Gd920 2.448 . S
O942 C923 1.249 . S
O943 Gd920 2.506 . S
O943 C923 1.252 . S
O944 Gd920 2.435 . S
O944 C930 1.256 . S
O945 Gd920 2.717 . S
O945 Gd921 2.327 . S
O945 C930 1.257 . S
O946 Gd921 2.377 . S
O946 C931 1.240 . S
O947 Gd920 2.395 . S
O947 C931 1.240 . S
O948 Gd921 2.448 . S
O948 C932 1.249 . S
O949 Gd921 2.506 . S
O949 C932 1.252 . S
O950 Gd921 2.435 . S
O950 C939 1.256 . S
O951 Gd920 2.327 . S
O951 Gd921 2.717 . S
O951 C939 1.257 . S
H952 C925 0.930 . S
H953 C926 0.931 . S
H954 C928 0.931 . S
H955 C929 0.931 . S
H956 C934 0.930 . S
H957 C935 0.931 . S
H958 C937 0.931 . S
H959 C938 0.931 . S
Gd960 C963 2.818 . S
Gd960 O980 2.377 . S
Gd960 O982 2.448 . S
Gd960 O983 2.506 . S
Gd960 O984 2.435 . S
Gd960 O985 2.717 . S
Gd960 O987 2.395 . S
Gd960 O991 2.327 . S
Gd961 C972 2.818 . S
Gd961 O981 2.395 . S
Gd961 O985 2.327 . S
Gd961 O986 2.377 . S
Gd961 O988 2.448 . S
Gd961 O989 2.506 . S
Gd961 O990 2.435 . S
Gd961 O991 2.717 . S
C962 O980 1.240 . S
C962 O981 1.240 . S
C963 Gd960 2.818 . S
C963 C964 1.510 . S
C963 O982 1.249 . S
C963 O983 1.252 . S
C964 C963 1.510 . S
C964 C965 1.404 . S
C964 C966 1.352 . S
C965 C964 1.404 . S
C965 C969 1.389 . S
C965 H992 0.930 . S
C966 C964 1.352 . S
C966 C968 1.374 . S
C966 H993 0.931 . S
C967 C968 1.359 . S
C967 C969 1.364 . S
C968 C966 1.374 . S
C968 C967 1.359 . S
C968 H994 0.931 . S
C969 C965 1.389 . S
C969 C967 1.364 . S
C969 H995 0.931 . S
C970 O984 1.256 . S
C970 O985 1.257 . S
C971 O986 1.240 . S
C971 O987 1.240 . S
C972 Gd961 2.818 . S
C972 C973 1.510 . S
C972 O988 1.249 . S
C972 O989 1.252 . S
C973 C972 1.510 . S
C973 C974 1.404 . S
C973 C975 1.352 . S
C974 C973 1.404 . S
C974 C978 1.389 . S
C974 H996 0.930 . S
C975 C973 1.352 . S
C975 C977 1.374 . S
C975 H997 0.931 . S
C976 C977 1.359 . S
C976 C978 1.364 . S
C977 C975 1.374 . S
C977 C976 1.359 . S
C977 H998 0.931 . S
C978 C974 1.389 . S
C978 C976 1.364 . S
C978 H999 0.931 . S
C979 O990 1.256 . S
C979 O991 1.257 . S
O980 Gd960 2.377 . S
O980 C962 1.240 . S
O981 Gd961 2.395 . S
O981 C962 1.240 . S
O982 Gd960 2.448 . S
O982 C963 1.249 . S
O983 Gd960 2.506 . S
O983 C963 1.252 . S
O984 Gd960 2.435 . S
O984 C970 1.256 . S
O985 Gd960 2.717 . S
O985 Gd961 2.327 . S
O985 C970 1.257 . S
O986 Gd961 2.377 . S
O986 C971 1.240 . S
O987 Gd960 2.395 . S
O987 C971 1.240 . S
O988 Gd961 2.448 . S
O988 C972 1.249 . S
O989 Gd961 2.506 . S
O989 C972 1.252 . S
O990 Gd961 2.435 . S
O990 C979 1.256 . S
O991 Gd960 2.327 . S
O991 Gd961 2.717 . S
O991 C979 1.257 . S
H992 C965 0.930 . S
H993 C966 0.931 . S
H994 C968 0.931 . S
H995 C969 0.931 . S
H996 C974 0.930 . S
H997 C975 0.931 . S
H998 C977 0.931 . S
H999 C978 0.931 . S
Gd1000 C1003 2.818 . S
Gd1000 O1020 2.377 . S
Gd1000 O1022 2.448 . S
Gd1000 O1023 2.506 . S
Gd1000 O1024 2.435 . S
Gd1000 O1025 2.717 . S
Gd1000 O1027 2.395 . S
Gd1000 O1031 2.327 . S
Gd1001 C1012 2.818 . S
Gd1001 O1021 2.395 . S
Gd1001 O1025 2.327 . S
Gd1001 O1026 2.377 . S
Gd1001 O1028 2.448 . S
Gd1001 O1029 2.506 . S
Gd1001 O1030 2.435 . S
Gd1001 O1031 2.717 . S
C1002 O1020 1.240 . S
C1002 O1021 1.240 . S
C1003 Gd1000 2.818 . S
C1003 C1004 1.510 . S
C1003 O1022 1.249 . S
C1003 O1023 1.252 . S
C1004 C1003 1.510 . S
C1004 C1005 1.404 . S
C1004 C1006 1.352 . S
C1005 C1004 1.404 . S
C1005 C1009 1.389 . S
C1005 H1032 0.930 . S
C1006 C1004 1.352 . S
C1006 C1008 1.374 . S
C1006 H1033 0.931 . S
C1007 C1008 1.359 . S
C1007 C1009 1.364 . S
C1008 C1006 1.374 . S
C1008 C1007 1.359 . S
C1008 H1034 0.931 . S
C1009 C1005 1.389 . S
C1009 C1007 1.364 . S
C1009 H1035 0.931 . S
C1010 O1024 1.256 . S
C1010 O1025 1.257 . S
C1011 O1026 1.240 . S
C1011 O1027 1.240 . S
C1012 Gd1001 2.818 . S
C1012 C1013 1.510 . S
C1012 O1028 1.249 . S
C1012 O1029 1.252 . S
C1013 C1012 1.510 . S
C1013 C1014 1.404 . S
C1013 C1015 1.352 . S
C1014 C1013 1.404 . S
C1014 C1018 1.389 . S
C1014 H1036 0.930 . S
C1015 C1013 1.352 . S
C1015 C1017 1.374 . S
C1015 H1037 0.931 . S
C1016 C1017 1.359 . S
C1016 C1018 1.364 . S
C1017 C1015 1.374 . S
C1017 C1016 1.359 . S
C1017 H1038 0.931 . S
C1018 C1014 1.389 . S
C1018 C1016 1.364 . S
C1018 H1039 0.931 . S
C1019 O1030 1.256 . S
C1019 O1031 1.257 . S
O1020 Gd1000 2.377 . S
O1020 C1002 1.240 . S
O1021 Gd1001 2.395 . S
O1021 C1002 1.240 . S
O1022 Gd1000 2.448 . S
O1022 C1003 1.249 . S
O1023 Gd1000 2.506 . S
O1023 C1003 1.252 . S
O1024 Gd1000 2.435 . S
O1024 C1010 1.256 . S
O1025 Gd1000 2.717 . S
O1025 Gd1001 2.327 . S
O1025 C1010 1.257 . S
O1026 Gd1001 2.377 . S
O1026 C1011 1.240 . S
O1027 Gd1000 2.395 . S
O1027 C1011 1.240 . S
O1028 Gd1001 2.448 . S
O1028 C1012 1.249 . S
O1029 Gd1001 2.506 . S
O1029 C1012 1.252 . S
O1030 Gd1001 2.435 . S
O1030 C1019 1.256 . S
O1031 Gd1000 2.327 . S
O1031 Gd1001 2.717 . S
O1031 C1019 1.257 . S
H1032 C1005 0.930 . S
H1033 C1006 0.931 . S
H1034 C1008 0.931 . S
H1035 C1009 0.931 . S
H1036 C1014 0.930 . S
H1037 C1015 0.931 . S
H1038 C1017 0.931 . S
H1039 C1018 0.931 . S
Gd1040 C1043 2.818 . S
Gd1040 O1060 2.377 . S
Gd1040 O1062 2.448 . S
Gd1040 O1063 2.506 . S
Gd1040 O1064 2.435 . S
Gd1040 O1065 2.717 . S
Gd1040 O1067 2.395 . S
Gd1040 O1071 2.327 . S
Gd1041 C1052 2.818 . S
Gd1041 O1061 2.395 . S
Gd1041 O1065 2.327 . S
Gd1041 O1066 2.377 . S
Gd1041 O1068 2.448 . S
Gd1041 O1069 2.506 . S
Gd1041 O1070 2.435 . S
Gd1041 O1071 2.717 . S
C1042 O1060 1.240 . S
C1042 O1061 1.240 . S
C1043 Gd1040 2.818 . S
C1043 C1044 1.510 . S
C1043 O1062 1.249 . S
C1043 O1063 1.252 . S
C1044 C1043 1.510 . S
C1044 C1045 1.404 . S
C1044 C1046 1.352 . S
C1045 C1044 1.404 . S
C1045 C1049 1.389 . S
C1045 H1072 0.930 . S
C1046 C1044 1.352 . S
C1046 C1048 1.374 . S
C1046 H1073 0.931 . S
C1047 C1048 1.359 . S
C1047 C1049 1.364 . S
C1048 C1046 1.374 . S
C1048 C1047 1.359 . S
C1048 H1074 0.931 . S
C1049 C1045 1.389 . S
C1049 C1047 1.364 . S
C1049 H1075 0.931 . S
C1050 O1064 1.256 . S
C1050 O1065 1.257 . S
C1051 O1066 1.240 . S
C1051 O1067 1.240 . S
C1052 Gd1041 2.818 . S
C1052 C1053 1.510 . S
C1052 O1068 1.249 . S
C1052 O1069 1.252 . S
C1053 C1052 1.510 . S
C1053 C1054 1.404 . S
C1053 C1055 1.352 . S
C1054 C1053 1.404 . S
C1054 C1058 1.389 . S
C1054 H1076 0.930 . S
C1055 C1053 1.352 . S
C1055 C1057 1.374 . S
C1055 H1077 0.931 . S
C1056 C1057 1.359 . S
C1056 C1058 1.364 . S
C1057 C1055 1.374 . S
C1057 C1056 1.359 . S
C1057 H1078 0.931 . S
C1058 C1054 1.389 . S
C1058 C1056 1.364 . S
C1058 H1079 0.931 . S
C1059 O1070 1.256 . S
C1059 O1071 1.257 . S
O1060 Gd1040 2.377 . S
O1060 C1042 1.240 . S
O1061 Gd1041 2.395 . S
O1061 C1042 1.240 . S
O1062 Gd1040 2.448 . S
O1062 C1043 1.249 . S
O1063 Gd1040 2.506 . S
O1063 C1043 1.252 . S
O1064 Gd1040 2.435 . S
O1064 C1050 1.256 . S
O1065 Gd1040 2.717 . S
O1065 Gd1041 2.327 . S
O1065 C1050 1.257 . S
O1066 Gd1041 2.377 . S
O1066 C1051 1.240 . S
O1067 Gd1040 2.395 . S
O1067 C1051 1.240 . S
O1068 Gd1041 2.448 . S
O1068 C1052 1.249 . S
O1069 Gd1041 2.506 . S
O1069 C1052 1.252 . S
O1070 Gd1041 2.435 . S
O1070 C1059 1.256 . S
O1071 Gd1040 2.327 . S
O1071 Gd1041 2.717 . S
O1071 C1059 1.257 . S
H1072 C1045 0.930 . S
H1073 C1046 0.931 . S
H1074 C1048 0.931 . S
H1075 C1049 0.931 . S
H1076 C1054 0.930 . S
H1077 C1055 0.931 . S
H1078 C1057 0.931 . S
H1079 C1058 0.931 . S
Gd1080 C1083 2.818 . S
Gd1080 O1100 2.377 . S
Gd1080 O1102 2.448 . S
Gd1080 O1103 2.506 . S
Gd1080 O1104 2.435 . S
Gd1080 O1105 2.717 . S
Gd1080 O1107 2.395 . S
Gd1080 O1111 2.327 . S
Gd1081 C1092 2.818 1_455 S
Gd1081 O1101 2.395 . S
Gd1081 O1105 2.327 . S
Gd1081 O1106 2.377 . S
Gd1081 O1108 2.448 1_455 S
Gd1081 O1109 2.506 1_455 S
Gd1081 O1110 2.435 . S
Gd1081 O1111 2.717 . S
C1082 O1100 1.240 . S
C1082 O1101 1.240 . S
C1083 Gd1080 2.818 . S
C1083 C1084 1.510 . S
C1083 O1102 1.249 . S
C1083 O1103 1.252 . S
C1084 C1083 1.510 . S
C1084 C1085 1.404 . S
C1084 C1086 1.352 . S
C1085 C1084 1.404 . S
C1085 C1089 1.389 . S
C1085 H1112 0.930 . S
C1086 C1084 1.352 . S
C1086 C1088 1.374 . S
C1086 H1113 0.931 . S
C1087 C1088 1.359 . S
C1087 C1089 1.364 . S
C1088 C1086 1.374 . S
C1088 C1087 1.359 . S
C1088 H1114 0.931 . S
C1089 C1085 1.389 . S
C1089 C1087 1.364 . S
C1089 H1115 0.931 . S
C1090 O1104 1.256 . S
C1090 O1105 1.257 . S
C1091 O1106 1.240 . S
C1091 O1107 1.240 . S
C1092 Gd1081 2.818 1_655 S
C1092 C1093 1.510 . S
C1092 O1108 1.249 . S
C1092 O1109 1.252 . S
C1093 C1092 1.510 . S
C1093 C1094 1.404 . S
C1093 C1095 1.352 . S
C1094 C1093 1.404 . S
C1094 C1098 1.389 . S
C1094 H1116 0.930 . S
C1095 C1093 1.352 . S
C1095 C1097 1.374 . S
C1095 H1117 0.931 . S
C1096 C1097 1.359 . S
C1096 C1098 1.364 . S
C1097 C1095 1.374 . S
C1097 C1096 1.359 . S
C1097 H1118 0.931 . S
C1098 C1094 1.389 . S
C1098 C1096 1.364 . S
C1098 H1119 0.931 . S
C1099 O1110 1.256 . S
C1099 O1111 1.257 . S
O1100 Gd1080 2.377 . S
O1100 C1082 1.240 . S
O1101 Gd1081 2.395 . S
O1101 C1082 1.240 . S
O1102 Gd1080 2.448 . S
O1102 C1083 1.249 . S
O1103 Gd1080 2.506 . S
O1103 C1083 1.252 . S
O1104 Gd1080 2.435 . S
O1104 C1090 1.256 . S
O1105 Gd1080 2.717 . S
O1105 Gd1081 2.327 . S
O1105 C1090 1.257 . S
O1106 Gd1081 2.377 . S
O1106 C1091 1.240 . S
O1107 Gd1080 2.395 . S
O1107 C1091 1.240 . S
O1108 Gd1081 2.448 1_655 S
O1108 C1092 1.249 . S
O1109 Gd1081 2.506 1_655 S
O1109 C1092 1.252 . S
O1110 Gd1081 2.435 . S
O1110 C1099 1.256 . S
O1111 Gd1080 2.327 . S
O1111 Gd1081 2.717 . S
O1111 C1099 1.257 . S
H1112 C1085 0.930 . S
H1113 C1086 0.931 . S
H1114 C1088 0.931 . S
H1115 C1089 0.931 . S
H1116 C1094 0.930 . S
H1117 C1095 0.931 . S
H1118 C1097 0.931 . S
H1119 C1098 0.931 . S
Gd1120 C1123 2.818 . S
Gd1120 O1140 2.377 . S
Gd1120 O1142 2.448 . S
Gd1120 O1143 2.506 . S
Gd1120 O1144 2.435 . S
Gd1120 O1145 2.717 . S
Gd1120 O1147 2.395 . S
Gd1120 O1151 2.327 . S
Gd1121 C1132 2.818 . S
Gd1121 O1141 2.395 . S
Gd1121 O1145 2.327 . S
Gd1121 O1146 2.377 . S
Gd1121 O1148 2.448 . S
Gd1121 O1149 2.506 . S
Gd1121 O1150 2.435 . S
Gd1121 O1151 2.717 . S
C1122 O1140 1.240 . S
C1122 O1141 1.240 . S
C1123 Gd1120 2.818 . S
C1123 C1124 1.510 . S
C1123 O1142 1.249 . S
C1123 O1143 1.252 . S
C1124 C1123 1.510 . S
C1124 C1125 1.404 . S
C1124 C1126 1.352 . S
C1125 C1124 1.404 . S
C1125 C1129 1.389 . S
C1125 H1152 0.930 . S
C1126 C1124 1.352 . S
C1126 C1128 1.374 . S
C1126 H1153 0.931 . S
C1127 C1128 1.359 . S
C1127 C1129 1.364 . S
C1128 C1126 1.374 . S
C1128 C1127 1.359 . S
C1128 H1154 0.931 . S
C1129 C1125 1.389 . S
C1129 C1127 1.364 . S
C1129 H1155 0.931 . S
C1130 O1144 1.256 . S
C1130 O1145 1.257 . S
C1131 O1146 1.240 . S
C1131 O1147 1.240 . S
C1132 Gd1121 2.818 . S
C1132 C1133 1.510 . S
C1132 O1148 1.249 . S
C1132 O1149 1.252 . S
C1133 C1132 1.510 . S
C1133 C1134 1.404 . S
C1133 C1135 1.352 . S
C1134 C1133 1.404 . S
C1134 C1138 1.389 . S
C1134 H1156 0.930 . S
C1135 C1133 1.352 . S
C1135 C1137 1.374 . S
C1135 H1157 0.931 . S
C1136 C1137 1.359 . S
C1136 C1138 1.364 . S
C1137 C1135 1.374 . S
C1137 C1136 1.359 . S
C1137 H1158 0.931 . S
C1138 C1134 1.389 . S
C1138 C1136 1.364 . S
C1138 H1159 0.931 . S
C1139 O1150 1.256 . S
C1139 O1151 1.257 . S
O1140 Gd1120 2.377 . S
O1140 C1122 1.240 . S
O1141 Gd1121 2.395 . S
O1141 C1122 1.240 . S
O1142 Gd1120 2.448 . S
O1142 C1123 1.249 . S
O1143 Gd1120 2.506 . S
O1143 C1123 1.252 . S
O1144 Gd1120 2.435 . S
O1144 C1130 1.256 . S
O1145 Gd1120 2.717 . S
O1145 Gd1121 2.327 . S
O1145 C1130 1.257 . S
O1146 Gd1121 2.377 . S
O1146 C1131 1.240 . S
O1147 Gd1120 2.395 . S
O1147 C1131 1.240 . S
O1148 Gd1121 2.448 . S
O1148 C1132 1.249 . S
O1149 Gd1121 2.506 . S
O1149 C1132 1.252 . S
O1150 Gd1121 2.435 . S
O1150 C1139 1.256 . S
O1151 Gd1120 2.327 . S
O1151 Gd1121 2.717 . S
O1151 C1139 1.257 . S
H1152 C1125 0.930 . S
H1153 C1126 0.931 . S
H1154 C1128 0.931 . S
H1155 C1129 0.931 . S
H1156 C1134 0.930 . S
H1157 C1135 0.931 . S
H1158 C1137 0.931 . S
H1159 C1138 0.931 . S
Gd1160 C1163 2.818 . S
Gd1160 O1180 2.377 . S
Gd1160 O1182 2.448 . S
Gd1160 O1183 2.506 . S
Gd1160 O1184 2.435 . S
Gd1160 O1185 2.717 . S
Gd1160 O1187 2.395 . S
Gd1160 O1191 2.327 . S
Gd1161 C1172 2.818 1_455 S
Gd1161 O1181 2.395 . S
Gd1161 O1185 2.327 . S
Gd1161 O1186 2.377 . S
Gd1161 O1188 2.448 1_455 S
Gd1161 O1189 2.506 1_455 S
Gd1161 O1190 2.435 . S
Gd1161 O1191 2.717 . S
C1162 O1180 1.240 . S
C1162 O1181 1.240 . S
C1163 Gd1160 2.818 . S
C1163 C1164 1.510 . S
C1163 O1182 1.249 . S
C1163 O1183 1.252 . S
C1164 C1163 1.510 . S
C1164 C1165 1.404 . S
C1164 C1166 1.352 . S
C1165 C1164 1.404 . S
C1165 C1169 1.389 . S
C1165 H1192 0.930 . S
C1166 C1164 1.352 . S
C1166 C1168 1.374 . S
C1166 H1193 0.931 . S
C1167 C1168 1.359 . S
C1167 C1169 1.364 . S
C1168 C1166 1.374 . S
C1168 C1167 1.359 . S
C1168 H1194 0.931 . S
C1169 C1165 1.389 . S
C1169 C1167 1.364 . S
C1169 H1195 0.931 . S
C1170 O1184 1.256 . S
C1170 O1185 1.257 . S
C1171 O1186 1.240 . S
C1171 O1187 1.240 . S
C1172 Gd1161 2.818 1_655 S
C1172 C1173 1.510 . S
C1172 O1188 1.249 . S
C1172 O1189 1.252 . S
C1173 C1172 1.510 . S
C1173 C1174 1.404 . S
C1173 C1175 1.352 . S
C1174 C1173 1.404 . S
C1174 C1178 1.389 . S
C1174 H1196 0.930 . S
C1175 C1173 1.352 . S
C1175 C1177 1.374 . S
C1175 H1197 0.931 . S
C1176 C1177 1.359 . S
C1176 C1178 1.364 . S
C1177 C1175 1.374 . S
C1177 C1176 1.359 . S
C1177 H1198 0.931 . S
C1178 C1174 1.389 . S
C1178 C1176 1.364 . S
C1178 H1199 0.931 . S
C1179 O1190 1.256 . S
C1179 O1191 1.257 . S
O1180 Gd1160 2.377 . S
O1180 C1162 1.240 . S
O1181 Gd1161 2.395 . S
O1181 C1162 1.240 . S
O1182 Gd1160 2.448 . S
O1182 C1163 1.249 . S
O1183 Gd1160 2.506 . S
O1183 C1163 1.252 . S
O1184 Gd1160 2.435 . S
O1184 C1170 1.256 . S
O1185 Gd1160 2.717 . S
O1185 Gd1161 2.327 . S
O1185 C1170 1.257 . S
O1186 Gd1161 2.377 . S
O1186 C1171 1.240 . S
O1187 Gd1160 2.395 . S
O1187 C1171 1.240 . S
O1188 Gd1161 2.448 1_655 S
O1188 C1172 1.249 . S
O1189 Gd1161 2.506 1_655 S
O1189 C1172 1.252 . S
O1190 Gd1161 2.435 . S
O1190 C1179 1.256 . S
O1191 Gd1160 2.327 . S
O1191 Gd1161 2.717 . S
O1191 C1179 1.257 . S
H1192 C1165 0.930 . S
H1193 C1166 0.931 . S
H1194 C1168 0.931 . S
H1195 C1169 0.931 . S
H1196 C1174 0.930 . S
H1197 C1175 0.931 . S
H1198 C1177 0.931 . S
H1199 C1178 0.931 . S
Gd1200 C1203 2.818 . S
Gd1200 O1220 2.377 . S
Gd1200 O1222 2.448 . S
Gd1200 O1223 2.506 . S
Gd1200 O1224 2.435 . S
Gd1200 O1225 2.717 . S
Gd1200 O1227 2.395 . S
Gd1200 O1231 2.327 . S
Gd1201 C1212 2.818 . S
Gd1201 O1221 2.395 . S
Gd1201 O1225 2.327 . S
Gd1201 O1226 2.377 . S
Gd1201 O1228 2.448 . S
Gd1201 O1229 2.506 . S
Gd1201 O1230 2.435 . S
Gd1201 O1231 2.717 . S
C1202 O1220 1.240 . S
C1202 O1221 1.240 . S
C1203 Gd1200 2.818 . S
C1203 C1204 1.510 . S
C1203 O1222 1.249 . S
C1203 O1223 1.252 . S
C1204 C1203 1.510 . S
C1204 C1205 1.404 . S
C1204 C1206 1.352 . S
C1205 C1204 1.404 . S
C1205 C1209 1.389 . S
C1205 H1232 0.930 . S
C1206 C1204 1.352 . S
C1206 C1208 1.374 . S
C1206 H1233 0.931 . S
C1207 C1208 1.359 . S
C1207 C1209 1.364 . S
C1208 C1206 1.374 . S
C1208 C1207 1.359 . S
C1208 H1234 0.931 . S
C1209 C1205 1.389 . S
C1209 C1207 1.364 . S
C1209 H1235 0.931 . S
C1210 O1224 1.256 . S
C1210 O1225 1.257 . S
C1211 O1226 1.240 . S
C1211 O1227 1.240 . S
C1212 Gd1201 2.818 . S
C1212 C1213 1.510 . S
C1212 O1228 1.249 . S
C1212 O1229 1.252 . S
C1213 C1212 1.510 . S
C1213 C1214 1.404 . S
C1213 C1215 1.352 . S
C1214 C1213 1.404 . S
C1214 C1218 1.389 . S
C1214 H1236 0.930 . S
C1215 C1213 1.352 . S
C1215 C1217 1.374 . S
C1215 H1237 0.931 . S
C1216 C1217 1.359 . S
C1216 C1218 1.364 . S
C1217 C1215 1.374 . S
C1217 C1216 1.359 . S
C1217 H1238 0.931 . S
C1218 C1214 1.389 . S
C1218 C1216 1.364 . S
C1218 H1239 0.931 . S
C1219 O1230 1.256 . S
C1219 O1231 1.257 . S
O1220 Gd1200 2.377 . S
O1220 C1202 1.240 . S
O1221 Gd1201 2.395 . S
O1221 C1202 1.240 . S
O1222 Gd1200 2.448 . S
O1222 C1203 1.249 . S
O1223 Gd1200 2.506 . S
O1223 C1203 1.252 . S
O1224 Gd1200 2.435 . S
O1224 C1210 1.256 . S
O1225 Gd1200 2.717 . S
O1225 Gd1201 2.327 . S
O1225 C1210 1.257 . S
O1226 Gd1201 2.377 . S
O1226 C1211 1.240 . S
O1227 Gd1200 2.395 . S
O1227 C1211 1.240 . S
O1228 Gd1201 2.448 . S
O1228 C1212 1.249 . S
O1229 Gd1201 2.506 . S
O1229 C1212 1.252 . S
O1230 Gd1201 2.435 . S
O1230 C1219 1.256 . S
O1231 Gd1200 2.327 . S
O1231 Gd1201 2.717 . S
O1231 C1219 1.257 . S
H1232 C1205 0.930 . S
H1233 C1206 0.931 . S
H1234 C1208 0.931 . S
H1235 C1209 0.931 . S
H1236 C1214 0.930 . S
H1237 C1215 0.931 . S
H1238 C1217 0.931 . S
H1239 C1218 0.931 . S
Gd1240 C1243 2.818 . S
Gd1240 O1260 2.377 . S
Gd1240 O1262 2.448 . S
Gd1240 O1263 2.506 . S
Gd1240 O1264 2.435 . S
Gd1240 O1265 2.717 . S
Gd1240 O1267 2.395 . S
Gd1240 O1271 2.327 . S
Gd1241 C1252 2.818 . S
Gd1241 O1261 2.395 . S
Gd1241 O1265 2.327 . S
Gd1241 O1266 2.377 . S
Gd1241 O1268 2.448 . S
Gd1241 O1269 2.506 . S
Gd1241 O1270 2.435 . S
Gd1241 O1271 2.717 . S
C1242 O1260 1.240 . S
C1242 O1261 1.240 . S
C1243 Gd1240 2.818 . S
C1243 C1244 1.510 . S
C1243 O1262 1.249 . S
C1243 O1263 1.252 . S
C1244 C1243 1.510 . S
C1244 C1245 1.404 . S
C1244 C1246 1.352 . S
C1245 C1244 1.404 . S
C1245 C1249 1.389 . S
C1245 H1272 0.930 . S
C1246 C1244 1.352 . S
C1246 C1248 1.374 . S
C1246 H1273 0.931 . S
C1247 C1248 1.359 . S
C1247 C1249 1.364 . S
C1248 C1246 1.374 . S
C1248 C1247 1.359 . S
C1248 H1274 0.931 . S
C1249 C1245 1.389 . S
C1249 C1247 1.364 . S
C1249 H1275 0.931 . S
C1250 O1264 1.256 . S
C1250 O1265 1.257 . S
C1251 O1266 1.240 . S
C1251 O1267 1.240 . S
C1252 Gd1241 2.818 . S
C1252 C1253 1.510 . S
C1252 O1268 1.249 . S
C1252 O1269 1.252 . S
C1253 C1252 1.510 . S
C1253 C1254 1.404 . S
C1253 C1255 1.352 . S
C1254 C1253 1.404 . S
C1254 C1258 1.389 . S
C1254 H1276 0.930 . S
C1255 C1253 1.352 . S
C1255 C1257 1.374 . S
C1255 H1277 0.931 . S
C1256 C1257 1.359 . S
C1256 C1258 1.364 . S
C1257 C1255 1.374 . S
C1257 C1256 1.359 . S
C1257 H1278 0.931 . S
C1258 C1254 1.389 . S
C1258 C1256 1.364 . S
C1258 H1279 0.931 . S
C1259 O1270 1.256 . S
C1259 O1271 1.257 . S
O1260 Gd1240 2.377 . S
O1260 C1242 1.240 . S
O1261 Gd1241 2.395 . S
O1261 C1242 1.240 . S
O1262 Gd1240 2.448 . S
O1262 C1243 1.249 . S
O1263 Gd1240 2.506 . S
O1263 C1243 1.252 . S
O1264 Gd1240 2.435 . S
O1264 C1250 1.256 . S
O1265 Gd1240 2.717 . S
O1265 Gd1241 2.327 . S
O1265 C1250 1.257 . S
O1266 Gd1241 2.377 . S
O1266 C1251 1.240 . S
O1267 Gd1240 2.395 . S
O1267 C1251 1.240 . S
O1268 Gd1241 2.448 . S
O1268 C1252 1.249 . S
O1269 Gd1241 2.506 . S
O1269 C1252 1.252 . S
O1270 Gd1241 2.435 . S
O1270 C1259 1.256 . S
O1271 Gd1240 2.327 . S
O1271 Gd1241 2.717 . S
O1271 C1259 1.257 . S
H1272 C1245 0.930 . S
H1273 C1246 0.931 . S
H1274 C1248 0.931 . S
H1275 C1249 0.931 . S
H1276 C1254 0.930 . S
H1277 C1255 0.931 . S
H1278 C1257 0.931 . S
H1279 C1258 0.931 . S
H1280 C1288 0.929 . S
H1281 C1290 0.930 . S
H1282 C1292 0.930 . S
H1283 C1295 0.929 . S
H1284 C1298 0.930 . S
H1285 C1300 0.960 . S
H1286 C1300 0.960 . S
H1287 C1300 0.960 . S
C1288 H1280 0.929 . S
C1288 C1289 1.377 . S
C1288 C1290 1.384 . S
C1289 C1288 1.377 . S
C1289 C1295 1.390 . S
C1290 H1281 0.930 . S
C1290 C1288 1.384 . S
C1290 C1291 1.372 . S
C1291 C1290 1.372 . S
C1291 C1292 1.400 . S
C1291 C1296 1.490 . S
C1292 H1282 0.930 . S
C1292 C1291 1.400 . S
C1292 C1295 1.386 . S
H1293 C1309 0.930 . S
H1294 C1310 0.931 . S
C1295 H1283 0.929 . S
C1295 C1289 1.390 . S
C1295 C1292 1.386 . S
C1296 C1291 1.490 . S
C1296 C1298 1.395 . S
C1296 C1299 1.403 . S
H1297 C1303 0.930 . S
C1298 H1284 0.930 . S
C1298 C1296 1.395 . S
C1298 C1301 1.403 . S
C1299 C1296 1.403 . S
C1299 C1300 1.524 . S
C1299 C1303 1.400 . S
C1300 H1285 0.960 . S
C1300 H1286 0.960 . S
C1300 H1287 0.960 . S
C1300 C1299 1.524 . S
C1301 C1298 1.403 . S
C1301 C1302 1.392 . S
C1301 C1305 1.495 . S
C1302 C1301 1.392 . S
C1302 C1303 1.385 . S
C1302 C1304 1.478 . S
C1303 H1297 0.930 . S
C1303 C1299 1.400 . S
C1303 C1302 1.385 . S
C1304 C1302 1.478 . S
C1304 C1306 1.381 . S
C1304 C1310 1.383 . S
C1305 C1301 1.495 . S
C1305 H1311 0.959 . S
C1305 H1312 0.961 . S
C1305 H1313 0.960 . S
C1306 C1304 1.381 . S
C1306 C1307 1.394 . S
C1306 H1314 0.930 . S
C1307 C1306 1.394 . S
C1307 C1308 1.383 . S
C1307 H1315 0.929 . S
C1308 C1307 1.383 . S
C1308 C1309 1.377 . S
C1309 H1293 0.930 . S
C1309 C1308 1.377 . S
C1309 C1310 1.379 . S
C1310 H1294 0.931 . S
C1310 C1304 1.383 . S
C1310 C1309 1.379 . S
H1311 C1305 0.959 . S
H1312 C1305 0.961 . S
H1313 C1305 0.960 . S
H1314 C1306 0.930 . S
H1315 C1307 0.929 . S
H1316 C1324 0.929 . S
H1317 C1326 0.930 . S
H1318 C1328 0.930 . S
H1319 C1331 0.929 . S
H1320 C1334 0.930 . S
H1321 C1336 0.960 . S
H1322 C1336 0.960 . S
H1323 C1336 0.960 . S
C1324 H1316 0.929 . S
C1324 C1325 1.377 . S
C1324 C1326 1.384 . S
C1325 C1324 1.377 . S
C1325 C1331 1.390 . S
C1326 H1317 0.930 . S
C1326 C1324 1.384 . S
C1326 C1327 1.372 . S
C1327 C1326 1.372 . S
C1327 C1328 1.400 . S
C1327 C1332 1.490 . S
C1328 H1318 0.930 . S
C1328 C1327 1.400 . S
C1328 C1331 1.386 . S
H1329 C1345 0.930 . S
H1330 C1346 0.931 . S
C1331 H1319 0.929 . S
C1331 C1325 1.390 . S
C1331 C1328 1.386 . S
C1332 C1327 1.490 . S
C1332 C1334 1.395 . S
C1332 C1335 1.403 . S
H1333 C1339 0.930 . S
C1334 H1320 0.930 . S
C1334 C1332 1.395 . S
C1334 C1337 1.403 . S
C1335 C1332 1.403 . S
C1335 C1336 1.524 . S
C1335 C1339 1.400 . S
C1336 H1321 0.960 . S
C1336 H1322 0.960 . S
C1336 H1323 0.960 . S
C1336 C1335 1.524 . S
C1337 C1334 1.403 . S
C1337 C1338 1.392 . S
C1337 C1341 1.495 . S
C1338 C1337 1.392 . S
C1338 C1339 1.385 . S
C1338 C1340 1.478 . S
C1339 H1333 0.930 . S
C1339 C1335 1.400 . S
C1339 C1338 1.385 . S
C1340 C1338 1.478 . S
C1340 C1342 1.381 . S
C1340 C1346 1.383 . S
C1341 C1337 1.495 . S
C1341 H1347 0.959 . S
C1341 H1348 0.961 . S
C1341 H1349 0.960 . S
C1342 C1340 1.381 . S
C1342 C1343 1.394 . S
C1342 H1350 0.930 . S
C1343 C1342 1.394 . S
C1343 C1344 1.383 . S
C1343 H1351 0.929 . S
C1344 C1343 1.383 . S
C1344 C1345 1.377 . S
C1345 H1329 0.930 . S
C1345 C1344 1.377 . S
C1345 C1346 1.379 . S
C1346 H1330 0.931 . S
C1346 C1340 1.383 . S
C1346 C1345 1.379 . S
H1347 C1341 0.959 . S
H1348 C1341 0.961 . S
H1349 C1341 0.960 . S
H1350 C1342 0.930 . S
H1351 C1343 0.929 . S
H1352 C1360 0.929 . S
H1353 C1362 0.930 . S
H1354 C1364 0.930 . S
H1355 C1367 0.929 . S
H1356 C1370 0.930 . S
H1357 C1372 0.960 . S
H1358 C1372 0.960 . S
H1359 C1372 0.960 . S
C1360 H1352 0.929 . S
C1360 C1361 1.377 . S
C1360 C1362 1.384 . S
C1361 C1360 1.377 . S
C1361 C1367 1.390 . S
C1362 H1353 0.930 . S
C1362 C1360 1.384 . S
C1362 C1363 1.372 . S
C1363 C1362 1.372 . S
C1363 C1364 1.400 . S
C1363 C1368 1.490 . S
C1364 H1354 0.930 . S
C1364 C1363 1.400 . S
C1364 C1367 1.386 . S
H1365 C1381 0.930 . S
H1366 C1382 0.931 . S
C1367 H1355 0.929 . S
C1367 C1361 1.390 . S
C1367 C1364 1.386 . S
C1368 C1363 1.490 . S
C1368 C1370 1.395 . S
C1368 C1371 1.403 . S
H1369 C1375 0.930 . S
C1370 H1356 0.930 . S
C1370 C1368 1.395 . S
C1370 C1373 1.403 . S
C1371 C1368 1.403 . S
C1371 C1372 1.524 . S
C1371 C1375 1.400 . S
C1372 H1357 0.960 . S
C1372 H1358 0.960 . S
C1372 H1359 0.960 . S
C1372 C1371 1.524 . S
C1373 C1370 1.403 . S
C1373 C1374 1.392 . S
C1373 C1377 1.495 . S
C1374 C1373 1.392 . S
C1374 C1375 1.385 . S
C1374 C1376 1.478 . S
C1375 H1369 0.930 . S
C1375 C1371 1.400 . S
C1375 C1374 1.385 . S
C1376 C1374 1.478 . S
C1376 C1378 1.381 . S
C1376 C1382 1.383 . S
C1377 C1373 1.495 . S
C1377 H1383 0.959 . S
C1377 H1384 0.961 . S
C1377 H1385 0.960 . S
C1378 C1376 1.381 . S
C1378 C1379 1.394 . S
C1378 H1386 0.930 . S
C1379 C1378 1.394 . S
C1379 C1380 1.383 . S
C1379 H1387 0.929 . S
C1380 C1379 1.383 . S
C1380 C1381 1.377 . S
C1381 H1365 0.930 . S
C1381 C1380 1.377 . S
C1381 C1382 1.379 . S
C1382 H1366 0.931 . S
C1382 C1376 1.383 . S
C1382 C1381 1.379 . S
H1383 C1377 0.959 . S
H1384 C1377 0.961 . S
H1385 C1377 0.960 . S
H1386 C1378 0.930 . S
H1387 C1379 0.929 . S
H1388 C1396 0.929 . S
H1389 C1398 0.930 . S
H1390 C1400 0.930 . S
H1391 C1403 0.929 . S
H1392 C1406 0.930 . S
H1393 C1408 0.960 . S
H1394 C1408 0.960 . S
H1395 C1408 0.960 . S
C1396 H1388 0.929 . S
C1396 C1397 1.377 . S
C1396 C1398 1.384 . S
C1397 C1396 1.377 . S
C1397 C1403 1.390 . S
C1398 H1389 0.930 . S
C1398 C1396 1.384 . S
C1398 C1399 1.372 . S
C1399 C1398 1.372 . S
C1399 C1400 1.400 . S
C1399 C1404 1.490 . S
C1400 H1390 0.930 . S
C1400 C1399 1.400 . S
C1400 C1403 1.386 . S
H1401 C1417 0.930 . S
H1402 C1418 0.931 . S
C1403 H1391 0.929 . S
C1403 C1397 1.390 . S
C1403 C1400 1.386 . S
C1404 C1399 1.490 . S
C1404 C1406 1.395 . S
C1404 C1407 1.403 . S
H1405 C1411 0.930 . S
C1406 H1392 0.930 . S
C1406 C1404 1.395 . S
C1406 C1409 1.403 . S
C1407 C1404 1.403 . S
C1407 C1408 1.524 . S
C1407 C1411 1.400 . S
C1408 H1393 0.960 . S
C1408 H1394 0.960 . S
C1408 H1395 0.960 . S
C1408 C1407 1.524 . S
C1409 C1406 1.403 . S
C1409 C1410 1.392 . S
C1409 C1413 1.495 . S
C1410 C1409 1.392 . S
C1410 C1411 1.385 . S
C1410 C1412 1.478 . S
C1411 H1405 0.930 . S
C1411 C1407 1.400 . S
C1411 C1410 1.385 . S
C1412 C1410 1.478 . S
C1412 C1414 1.381 . S
C1412 C1418 1.383 . S
C1413 C1409 1.495 . S
C1413 H1419 0.959 . S
C1413 H1420 0.961 . S
C1413 H1421 0.960 . S
C1414 C1412 1.381 . S
C1414 C1415 1.394 . S
C1414 H1422 0.930 . S
C1415 C1414 1.394 . S
C1415 C1416 1.383 . S
C1415 H1423 0.929 . S
C1416 C1415 1.383 . S
C1416 C1417 1.377 . S
C1417 H1401 0.930 . S
C1417 C1416 1.377 . S
C1417 C1418 1.379 . S
C1418 H1402 0.931 . S
C1418 C1412 1.383 . S
C1418 C1417 1.379 . S
H1419 C1413 0.959 . S
H1420 C1413 0.961 . S
H1421 C1413 0.960 . S
H1422 C1414 0.930 . S
H1423 C1415 0.929 . S
H1424 C1432 0.929 . S
H1425 C1434 0.930 . S
H1426 C1436 0.930 . S
H1427 C1439 0.929 . S
H1428 C1442 0.930 . S
H1429 C1444 0.960 . S
H1430 C1444 0.960 . S
H1431 C1444 0.960 . S
C1432 H1424 0.929 . S
C1432 C1433 1.377 . S
C1432 C1434 1.384 . S
C1433 C1432 1.377 . S
C1433 C1439 1.390 . S
C1434 H1425 0.930 . S
C1434 C1432 1.384 . S
C1434 C1435 1.372 . S
C1435 C1434 1.372 . S
C1435 C1436 1.400 . S
C1435 C1440 1.490 . S
C1436 H1426 0.930 . S
C1436 C1435 1.400 . S
C1436 C1439 1.386 . S
H1437 C1453 0.930 . S
H1438 C1454 0.931 . S
C1439 H1427 0.929 . S
C1439 C1433 1.390 . S
C1439 C1436 1.386 . S
C1440 C1435 1.490 . S
C1440 C1442 1.395 . S
C1440 C1443 1.403 . S
H1441 C1447 0.930 . S
C1442 H1428 0.930 . S
C1442 C1440 1.395 . S
C1442 C1445 1.403 . S
C1443 C1440 1.403 . S
C1443 C1444 1.524 . S
C1443 C1447 1.400 . S
C1444 H1429 0.960 . S
C1444 H1430 0.960 . S
C1444 H1431 0.960 . S
C1444 C1443 1.524 . S
C1445 C1442 1.403 . S
C1445 C1446 1.392 . S
C1445 C1449 1.495 . S
C1446 C1445 1.392 . S
C1446 C1447 1.385 . S
C1446 C1448 1.478 . S
C1447 H1441 0.930 . S
C1447 C1443 1.400 . S
C1447 C1446 1.385 . S
C1448 C1446 1.478 . S
C1448 C1450 1.381 . S
C1448 C1454 1.383 . S
C1449 C1445 1.495 . S
C1449 H1455 0.959 . S
C1449 H1456 0.961 . S
C1449 H1457 0.960 . S
C1450 C1448 1.381 . S
C1450 C1451 1.394 . S
C1450 H1458 0.930 . S
C1451 C1450 1.394 . S
C1451 C1452 1.383 . S
C1451 H1459 0.929 . S
C1452 C1451 1.383 . S
C1452 C1453 1.377 . S
C1453 H1437 0.930 . S
C1453 C1452 1.377 . S
C1453 C1454 1.379 . S
C1454 H1438 0.931 . S
C1454 C1448 1.383 . S
C1454 C1453 1.379 . S
H1455 C1449 0.959 . S
H1456 C1449 0.961 . S
H1457 C1449 0.960 . S
H1458 C1450 0.930 . S
H1459 C1451 0.929 . S
H1460 C1468 0.929 . S
H1461 C1470 0.930 . S
H1462 C1472 0.930 . S
H1463 C1475 0.929 . S
H1464 C1478 0.930 . S
H1465 C1480 0.960 . S
H1466 C1480 0.960 . S
H1467 C1480 0.960 . S
C1468 H1460 0.929 . S
C1468 C1469 1.377 . S
C1468 C1470 1.384 . S
C1469 C1468 1.377 . S
C1469 C1475 1.390 . S
C1470 H1461 0.930 . S
C1470 C1468 1.384 . S
C1470 C1471 1.372 . S
C1471 C1470 1.372 . S
C1471 C1472 1.400 . S
C1471 C1476 1.490 . S
C1472 H1462 0.930 . S
C1472 C1471 1.400 . S
C1472 C1475 1.386 . S
H1473 C1489 0.930 . S
H1474 C1490 0.931 . S
C1475 H1463 0.929 . S
C1475 C1469 1.390 . S
C1475 C1472 1.386 . S
C1476 C1471 1.490 . S
C1476 C1478 1.395 . S
C1476 C1479 1.403 . S
H1477 C1483 0.930 . S
C1478 H1464 0.930 . S
C1478 C1476 1.395 . S
C1478 C1481 1.403 . S
C1479 C1476 1.403 . S
C1479 C1480 1.524 . S
C1479 C1483 1.400 . S
C1480 H1465 0.960 . S
C1480 H1466 0.960 . S
C1480 H1467 0.960 . S
C1480 C1479 1.524 . S
C1481 C1478 1.403 . S
C1481 C1482 1.392 . S
C1481 C1485 1.495 . S
C1482 C1481 1.392 . S
C1482 C1483 1.385 . S
C1482 C1484 1.478 . S
C1483 H1477 0.930 . S
C1483 C1479 1.400 . S
C1483 C1482 1.385 . S
C1484 C1482 1.478 . S
C1484 C1486 1.381 . S
C1484 C1490 1.383 . S
C1485 C1481 1.495 . S
C1485 H1491 0.959 . S
C1485 H1492 0.961 . S
C1485 H1493 0.960 . S
C1486 C1484 1.381 . S
C1486 C1487 1.394 . S
C1486 H1494 0.930 . S
C1487 C1486 1.394 . S
C1487 C1488 1.383 . S
C1487 H1495 0.929 . S
C1488 C1487 1.383 . S
C1488 C1489 1.377 . S
C1489 H1473 0.930 . S
C1489 C1488 1.377 . S
C1489 C1490 1.379 . S
C1490 H1474 0.931 . S
C1490 C1484 1.383 . S
C1490 C1489 1.379 . S
H1491 C1485 0.959 . S
H1492 C1485 0.961 . S
H1493 C1485 0.960 . S
H1494 C1486 0.930 . S
H1495 C1487 0.929 . S
H1496 C1504 0.929 . S
H1497 C1506 0.930 . S
H1498 C1508 0.930 . S
H1499 C1511 0.929 . S
H1500 C1514 0.930 . S
H1501 C1516 0.960 . S
H1502 C1516 0.960 . S
H1503 C1516 0.960 . S
C1504 H1496 0.929 . S
C1504 C1505 1.377 . S
C1504 C1506 1.384 . S
C1505 C1504 1.377 . S
C1505 C1511 1.390 . S
C1506 H1497 0.930 . S
C1506 C1504 1.384 . S
C1506 C1507 1.372 . S
C1507 C1506 1.372 . S
C1507 C1508 1.400 . S
C1507 C1512 1.490 . S
C1508 H1498 0.930 . S
C1508 C1507 1.400 . S
C1508 C1511 1.386 . S
H1509 C1525 0.930 . S
H1510 C1526 0.931 . S
C1511 H1499 0.929 . S
C1511 C1505 1.390 . S
C1511 C1508 1.386 . S
C1512 C1507 1.490 . S
C1512 C1514 1.395 . S
C1512 C1515 1.403 . S
H1513 C1519 0.930 . S
C1514 H1500 0.930 . S
C1514 C1512 1.395 . S
C1514 C1517 1.403 . S
C1515 C1512 1.403 . S
C1515 C1516 1.524 . S
C1515 C1519 1.400 . S
C1516 H1501 0.960 . S
C1516 H1502 0.960 . S
C1516 H1503 0.960 . S
C1516 C1515 1.524 . S
C1517 C1514 1.403 . S
C1517 C1518 1.392 . S
C1517 C1521 1.495 . S
C1518 C1517 1.392 . S
C1518 C1519 1.385 . S
C1518 C1520 1.478 . S
C1519 H1513 0.930 . S
C1519 C1515 1.400 . S
C1519 C1518 1.385 . S
C1520 C1518 1.478 . S
C1520 C1522 1.381 . S
C1520 C1526 1.383 . S
C1521 C1517 1.495 . S
C1521 H1527 0.959 . S
C1521 H1528 0.961 . S
C1521 H1529 0.960 . S
C1522 C1520 1.381 . S
C1522 C1523 1.394 . S
C1522 H1530 0.930 . S
C1523 C1522 1.394 . S
C1523 C1524 1.383 . S
C1523 H1531 0.929 . S
C1524 C1523 1.383 . S
C1524 C1525 1.377 . S
C1525 H1509 0.930 . S
C1525 C1524 1.377 . S
C1525 C1526 1.379 . S
C1526 H1510 0.931 . S
C1526 C1520 1.383 . S
C1526 C1525 1.379 . S
H1527 C1521 0.959 . S
H1528 C1521 0.961 . S
H1529 C1521 0.960 . S
H1530 C1522 0.930 . S
H1531 C1523 0.929 . S
H1532 C1540 0.929 . S
H1533 C1542 0.930 . S
H1534 C1544 0.930 . S
H1535 C1547 0.929 . S
H1536 C1550 0.930 . S
H1537 C1552 0.960 . S
H1538 C1552 0.960 . S
H1539 C1552 0.960 . S
C1540 H1532 0.929 . S
C1540 C1541 1.377 . S
C1540 C1542 1.384 . S
C1541 C1540 1.377 . S
C1541 C1547 1.390 . S
C1542 H1533 0.930 . S
C1542 C1540 1.384 . S
C1542 C1543 1.372 . S
C1543 C1542 1.372 . S
C1543 C1544 1.400 . S
C1543 C1548 1.490 . S
C1544 H1534 0.930 . S
C1544 C1543 1.400 . S
C1544 C1547 1.386 . S
H1545 C1561 0.930 . S
H1546 C1562 0.931 . S
C1547 H1535 0.929 . S
C1547 C1541 1.390 . S
C1547 C1544 1.386 . S
C1548 C1543 1.490 . S
C1548 C1550 1.395 . S
C1548 C1551 1.403 . S
H1549 C1555 0.930 . S
C1550 H1536 0.930 . S
C1550 C1548 1.395 . S
C1550 C1553 1.403 . S
C1551 C1548 1.403 . S
C1551 C1552 1.524 . S
C1551 C1555 1.400 . S
C1552 H1537 0.960 . S
C1552 H1538 0.960 . S
C1552 H1539 0.960 . S
C1552 C1551 1.524 . S
C1553 C1550 1.403 . S
C1553 C1554 1.392 . S
C1553 C1557 1.495 . S
C1554 C1553 1.392 . S
C1554 C1555 1.385 . S
C1554 C1556 1.478 . S
C1555 H1549 0.930 . S
C1555 C1551 1.400 . S
C1555 C1554 1.385 . S
C1556 C1554 1.478 . S
C1556 C1558 1.381 . S
C1556 C1562 1.383 . S
C1557 C1553 1.495 . S
C1557 H1563 0.959 . S
C1557 H1564 0.961 . S
C1557 H1565 0.960 . S
C1558 C1556 1.381 . S
C1558 C1559 1.394 . S
C1558 H1566 0.930 . S
C1559 C1558 1.394 . S
C1559 C1560 1.383 . S
C1559 H1567 0.929 . S
C1560 C1559 1.383 . S
C1560 C1561 1.377 . S
C1561 H1545 0.930 . S
C1561 C1560 1.377 . S
C1561 C1562 1.379 . S
C1562 H1546 0.931 . S
C1562 C1556 1.383 . S
C1562 C1561 1.379 . S
H1563 C1557 0.959 . S
H1564 C1557 0.961 . S
H1565 C1557 0.960 . S
H1566 C1558 0.930 . S
H1567 C1559 0.929 . S
H1568 C1576 0.929 . S
H1569 C1578 0.930 . S
H1570 C1580 0.930 . S
H1571 C1583 0.929 . S
H1572 C1586 0.930 . S
H1573 C1588 0.960 . S
H1574 C1588 0.960 . S
H1575 C1588 0.960 . S
C1576 H1568 0.929 . S
C1576 C1577 1.377 . S
C1576 C1578 1.384 . S
C1577 C1576 1.377 . S
C1577 C1583 1.390 . S
C1578 H1569 0.930 . S
C1578 C1576 1.384 . S
C1578 C1579 1.372 . S
C1579 C1578 1.372 . S
C1579 C1580 1.400 . S
C1579 C1584 1.490 . S
C1580 H1570 0.930 . S
C1580 C1579 1.400 . S
C1580 C1583 1.386 . S
H1581 C1597 0.930 . S
H1582 C1598 0.931 . S
C1583 H1571 0.929 . S
C1583 C1577 1.390 . S
C1583 C1580 1.386 . S
C1584 C1579 1.490 . S
C1584 C1586 1.395 . S
C1584 C1587 1.403 . S
H1585 C1591 0.930 . S
C1586 H1572 0.930 . S
C1586 C1584 1.395 . S
C1586 C1589 1.403 . S
C1587 C1584 1.403 . S
C1587 C1588 1.524 . S
C1587 C1591 1.400 . S
C1588 H1573 0.960 . S
C1588 H1574 0.960 . S
C1588 H1575 0.960 . S
C1588 C1587 1.524 . S
C1589 C1586 1.403 . S
C1589 C1590 1.392 . S
C1589 C1593 1.495 . S
C1590 C1589 1.392 . S
C1590 C1591 1.385 . S
C1590 C1592 1.478 . S
C1591 H1585 0.930 . S
C1591 C1587 1.400 . S
C1591 C1590 1.385 . S
C1592 C1590 1.478 . S
C1592 C1594 1.381 . S
C1592 C1598 1.383 . S
C1593 C1589 1.495 . S
C1593 H1599 0.959 . S
C1593 H1600 0.961 . S
C1593 H1601 0.960 . S
C1594 C1592 1.381 . S
C1594 C1595 1.394 . S
C1594 H1602 0.930 . S
C1595 C1594 1.394 . S
C1595 C1596 1.383 . S
C1595 H1603 0.929 . S
C1596 C1595 1.383 . S
C1596 C1597 1.377 . S
C1597 H1581 0.930 . S
C1597 C1596 1.377 . S
C1597 C1598 1.379 . S
C1598 H1582 0.931 . S
C1598 C1592 1.383 . S
C1598 C1597 1.379 . S
H1599 C1593 0.959 . S
H1600 C1593 0.961 . S
H1601 C1593 0.960 . S
H1602 C1594 0.930 . S
H1603 C1595 0.929 . S
H1604 C1612 0.929 . S
H1605 C1614 0.930 . S
H1606 C1616 0.930 . S
H1607 C1619 0.929 . S
H1608 C1622 0.930 . S
H1609 C1624 0.960 . S
H1610 C1624 0.960 . S
H1611 C1624 0.960 . S
C1612 H1604 0.929 . S
C1612 C1613 1.377 . S
C1612 C1614 1.384 . S
C1613 C1612 1.377 . S
C1613 C1619 1.390 . S
C1614 H1605 0.930 . S
C1614 C1612 1.384 . S
C1614 C1615 1.372 . S
C1615 C1614 1.372 . S
C1615 C1616 1.400 . S
C1615 C1620 1.490 . S
C1616 H1606 0.930 . S
C1616 C1615 1.400 . S
C1616 C1619 1.386 . S
H1617 C1633 0.930 . S
H1618 C1634 0.931 . S
C1619 H1607 0.929 . S
C1619 C1613 1.390 . S
C1619 C1616 1.386 . S
C1620 C1615 1.490 . S
C1620 C1622 1.395 . S
C1620 C1623 1.403 . S
H1621 C1627 0.930 . S
C1622 H1608 0.930 . S
C1622 C1620 1.395 . S
C1622 C1625 1.403 . S
C1623 C1620 1.403 . S
C1623 C1624 1.524 . S
C1623 C1627 1.400 . S
C1624 H1609 0.960 . S
C1624 H1610 0.960 . S
C1624 H1611 0.960 . S
C1624 C1623 1.524 . S
C1625 C1622 1.403 . S
C1625 C1626 1.392 . S
C1625 C1629 1.495 . S
C1626 C1625 1.392 . S
C1626 C1627 1.385 . S
C1626 C1628 1.478 . S
C1627 H1621 0.930 . S
C1627 C1623 1.400 . S
C1627 C1626 1.385 . S
C1628 C1626 1.478 . S
C1628 C1630 1.381 . S
C1628 C1634 1.383 . S
C1629 C1625 1.495 . S
C1629 H1635 0.959 . S
C1629 H1636 0.961 . S
C1629 H1637 0.960 . S
C1630 C1628 1.381 . S
C1630 C1631 1.394 . S
C1630 H1638 0.930 . S
C1631 C1630 1.394 . S
C1631 C1632 1.383 . S
C1631 H1639 0.929 . S
C1632 C1631 1.383 . S
C1632 C1633 1.377 . S
C1633 H1617 0.930 . S
C1633 C1632 1.377 . S
C1633 C1634 1.379 . S
C1634 H1618 0.931 . S
C1634 C1628 1.383 . S
C1634 C1633 1.379 . S
H1635 C1629 0.959 . S
H1636 C1629 0.961 . S
H1637 C1629 0.960 . S
H1638 C1630 0.930 . S
H1639 C1631 0.929 . S
H1640 C1648 0.929 . S
H1641 C1650 0.930 . S
H1642 C1652 0.930 . S
H1643 C1655 0.929 . S
H1644 C1658 0.930 . S
H1645 C1660 0.960 . S
H1646 C1660 0.960 . S
H1647 C1660 0.960 . S
C1648 H1640 0.929 . S
C1648 C1649 1.377 . S
C1648 C1650 1.384 . S
C1649 C1648 1.377 . S
C1649 C1655 1.390 . S
C1650 H1641 0.930 . S
C1650 C1648 1.384 . S
C1650 C1651 1.372 . S
C1651 C1650 1.372 . S
C1651 C1652 1.400 . S
C1651 C1656 1.490 . S
C1652 H1642 0.930 . S
C1652 C1651 1.400 . S
C1652 C1655 1.386 . S
H1653 C1669 0.930 . S
H1654 C1670 0.931 . S
C1655 H1643 0.929 . S
C1655 C1649 1.390 . S
C1655 C1652 1.386 . S
C1656 C1651 1.490 . S
C1656 C1658 1.395 . S
C1656 C1659 1.403 . S
H1657 C1663 0.930 . S
C1658 H1644 0.930 . S
C1658 C1656 1.395 . S
C1658 C1661 1.403 . S
C1659 C1656 1.403 . S
C1659 C1660 1.524 . S
C1659 C1663 1.400 . S
C1660 H1645 0.960 . S
C1660 H1646 0.960 . S
C1660 H1647 0.960 . S
C1660 C1659 1.524 . S
C1661 C1658 1.403 . S
C1661 C1662 1.392 . S
C1661 C1665 1.495 . S
C1662 C1661 1.392 . S
C1662 C1663 1.385 . S
C1662 C1664 1.478 . S
C1663 H1657 0.930 . S
C1663 C1659 1.400 . S
C1663 C1662 1.385 . S
C1664 C1662 1.478 . S
C1664 C1666 1.381 . S
C1664 C1670 1.383 . S
C1665 C1661 1.495 . S
C1665 H1671 0.959 . S
C1665 H1672 0.961 . S
C1665 H1673 0.960 . S
C1666 C1664 1.381 . S
C1666 C1667 1.394 . S
C1666 H1674 0.930 . S
C1667 C1666 1.394 . S
C1667 C1668 1.383 . S
C1667 H1675 0.929 . S
C1668 C1667 1.383 . S
C1668 C1669 1.377 . S
C1669 H1653 0.930 . S
C1669 C1668 1.377 . S
C1669 C1670 1.379 . S
C1670 H1654 0.931 . S
C1670 C1664 1.383 . S
C1670 C1669 1.379 . S
H1671 C1665 0.959 . S
H1672 C1665 0.961 . S
H1673 C1665 0.960 . S
H1674 C1666 0.930 . S
H1675 C1667 0.929 . S
H1676 C1684 0.929 . S
H1677 C1686 0.930 . S
H1678 C1688 0.930 . S
H1679 C1691 0.929 . S
H1680 C1694 0.930 . S
H1681 C1696 0.960 . S
H1682 C1696 0.960 . S
H1683 C1696 0.960 . S
C1684 H1676 0.929 . S
C1684 C1685 1.377 . S
C1684 C1686 1.384 . S
C1685 C1684 1.377 . S
C1685 C1691 1.390 . S
C1686 H1677 0.930 . S
C1686 C1684 1.384 . S
C1686 C1687 1.372 . S
C1687 C1686 1.372 . S
C1687 C1688 1.400 . S
C1687 C1692 1.490 . S
C1688 H1678 0.930 . S
C1688 C1687 1.400 . S
C1688 C1691 1.386 . S
H1689 C1705 0.930 . S
H1690 C1706 0.931 . S
C1691 H1679 0.929 . S
C1691 C1685 1.390 . S
C1691 C1688 1.386 . S
C1692 C1687 1.490 . S
C1692 C1694 1.395 . S
C1692 C1695 1.403 . S
H1693 C1699 0.930 . S
C1694 H1680 0.930 . S
C1694 C1692 1.395 . S
C1694 C1697 1.403 . S
C1695 C1692 1.403 . S
C1695 C1696 1.524 . S
C1695 C1699 1.400 . S
C1696 H1681 0.960 . S
C1696 H1682 0.960 . S
C1696 H1683 0.960 . S
C1696 C1695 1.524 . S
C1697 C1694 1.403 . S
C1697 C1698 1.392 . S
C1697 C1701 1.495 . S
C1698 C1697 1.392 . S
C1698 C1699 1.385 . S
C1698 C1700 1.478 . S
C1699 H1693 0.930 . S
C1699 C1695 1.400 . S
C1699 C1698 1.385 . S
C1700 C1698 1.478 . S
C1700 C1702 1.381 . S
C1700 C1706 1.383 . S
C1701 C1697 1.495 . S
C1701 H1707 0.959 . S
C1701 H1708 0.961 . S
C1701 H1709 0.960 . S
C1702 C1700 1.381 . S
C1702 C1703 1.394 . S
C1702 H1710 0.930 . S
C1703 C1702 1.394 . S
C1703 C1704 1.383 . S
C1703 H1711 0.929 . S
C1704 C1703 1.383 . S
C1704 C1705 1.377 . S
C1705 H1689 0.930 . S
C1705 C1704 1.377 . S
C1705 C1706 1.379 . S
C1706 H1690 0.931 . S
C1706 C1700 1.383 . S
C1706 C1705 1.379 . S
H1707 C1701 0.959 . S
H1708 C1701 0.961 . S
H1709 C1701 0.960 . S
H1710 C1702 0.930 . S
H1711 C1703 0.929 . S
H1712 C1720 0.929 . S
H1713 C1722 0.930 . S
H1714 C1724 0.930 . S
H1715 C1727 0.929 . S
H1716 C1730 0.930 . S
H1717 C1732 0.960 . S
H1718 C1732 0.960 . S
H1719 C1732 0.960 . S
C1720 H1712 0.929 . S
C1720 C1721 1.377 . S
C1720 C1722 1.384 . S
C1721 C1720 1.377 . S
C1721 C1727 1.390 . S
C1722 H1713 0.930 . S
C1722 C1720 1.384 . S
C1722 C1723 1.372 . S
C1723 C1722 1.372 . S
C1723 C1724 1.400 . S
C1723 C1728 1.490 . S
C1724 H1714 0.930 . S
C1724 C1723 1.400 . S
C1724 C1727 1.386 . S
H1725 C1741 0.930 . S
H1726 C1742 0.931 . S
C1727 H1715 0.929 . S
C1727 C1721 1.390 . S
C1727 C1724 1.386 . S
C1728 C1723 1.490 . S
C1728 C1730 1.395 . S
C1728 C1731 1.403 . S
H1729 C1735 0.930 . S
C1730 H1716 0.930 . S
C1730 C1728 1.395 . S
C1730 C1733 1.403 . S
C1731 C1728 1.403 . S
C1731 C1732 1.524 . S
C1731 C1735 1.400 . S
C1732 H1717 0.960 . S
C1732 H1718 0.960 . S
C1732 H1719 0.960 . S
C1732 C1731 1.524 . S
C1733 C1730 1.403 . S
C1733 C1734 1.392 . S
C1733 C1737 1.495 . S
C1734 C1733 1.392 . S
C1734 C1735 1.385 . S
C1734 C1736 1.478 . S
C1735 H1729 0.930 . S
C1735 C1731 1.400 . S
C1735 C1734 1.385 . S
C1736 C1734 1.478 . S
C1736 C1738 1.381 . S
C1736 C1742 1.383 . S
C1737 C1733 1.495 . S
C1737 H1743 0.959 . S
C1737 H1744 0.961 . S
C1737 H1745 0.960 . S
C1738 C1736 1.381 . S
C1738 C1739 1.394 . S
C1738 H1746 0.930 . S
C1739 C1738 1.394 . S
C1739 C1740 1.383 . S
C1739 H1747 0.929 . S
C1740 C1739 1.383 . S
C1740 C1741 1.377 . S
C1741 H1725 0.930 . S
C1741 C1740 1.377 . S
C1741 C1742 1.379 . S
C1742 H1726 0.931 . S
C1742 C1736 1.383 . S
C1742 C1741 1.379 . S
H1743 C1737 0.959 . S
H1744 C1737 0.961 . S
H1745 C1737 0.960 . S
H1746 C1738 0.930 . S
H1747 C1739 0.929 . S
H1748 C1756 0.929 . S
H1749 C1758 0.930 . S
H1750 C1760 0.930 . S
H1751 C1763 0.929 . S
H1752 C1766 0.930 . S
H1753 C1768 0.960 . S
H1754 C1768 0.960 . S
H1755 C1768 0.960 . S
C1756 H1748 0.929 . S
C1756 C1757 1.377 . S
C1756 C1758 1.384 . S
C1757 C1756 1.377 . S
C1757 C1763 1.390 . S
C1758 H1749 0.930 . S
C1758 C1756 1.384 . S
C1758 C1759 1.372 . S
C1759 C1758 1.372 . S
C1759 C1760 1.400 . S
C1759 C1764 1.490 . S
C1760 H1750 0.930 . S
C1760 C1759 1.400 . S
C1760 C1763 1.386 . S
H1761 C1777 0.930 . S
H1762 C1778 0.931 . S
C1763 H1751 0.929 . S
C1763 C1757 1.390 . S
C1763 C1760 1.386 . S
C1764 C1759 1.490 . S
C1764 C1766 1.395 . S
C1764 C1767 1.403 . S
H1765 C1771 0.930 . S
C1766 H1752 0.930 . S
C1766 C1764 1.395 . S
C1766 C1769 1.403 . S
C1767 C1764 1.403 . S
C1767 C1768 1.524 . S
C1767 C1771 1.400 . S
C1768 H1753 0.960 . S
C1768 H1754 0.960 . S
C1768 H1755 0.960 . S
C1768 C1767 1.524 . S
C1769 C1766 1.403 . S
C1769 C1770 1.392 . S
C1769 C1773 1.495 . S
C1770 C1769 1.392 . S
C1770 C1771 1.385 . S
C1770 C1772 1.478 . S
C1771 H1765 0.930 . S
C1771 C1767 1.400 . S
C1771 C1770 1.385 . S
C1772 C1770 1.478 . S
C1772 C1774 1.381 . S
C1772 C1778 1.383 . S
C1773 C1769 1.495 . S
C1773 H1779 0.959 . S
C1773 H1780 0.961 . S
C1773 H1781 0.960 . S
C1774 C1772 1.381 . S
C1774 C1775 1.394 . S
C1774 H1782 0.930 . S
C1775 C1774 1.394 . S
C1775 C1776 1.383 . S
C1775 H1783 0.929 . S
C1776 C1775 1.383 . S
C1776 C1777 1.377 . S
C1777 H1761 0.930 . S
C1777 C1776 1.377 . S
C1777 C1778 1.379 . S
C1778 H1762 0.931 . S
C1778 C1772 1.383 . S
C1778 C1777 1.379 . S
H1779 C1773 0.959 . S
H1780 C1773 0.961 . S
H1781 C1773 0.960 . S
H1782 C1774 0.930 . S
H1783 C1775 0.929 . S
H1784 C1792 0.929 . S
H1785 C1794 0.930 . S
H1786 C1796 0.930 . S
H1787 C1799 0.929 . S
H1788 C1802 0.930 . S
H1789 C1804 0.960 . S
H1790 C1804 0.960 . S
H1791 C1804 0.960 . S
C1792 H1784 0.929 . S
C1792 C1793 1.377 . S
C1792 C1794 1.384 . S
C1793 C1792 1.377 . S
C1793 C1799 1.390 . S
C1794 H1785 0.930 . S
C1794 C1792 1.384 . S
C1794 C1795 1.372 . S
C1795 C1794 1.372 . S
C1795 C1796 1.400 . S
C1795 C1800 1.490 . S
C1796 H1786 0.930 . S
C1796 C1795 1.400 . S
C1796 C1799 1.386 . S
H1797 C1813 0.930 . S
H1798 C1814 0.931 . S
C1799 H1787 0.929 . S
C1799 C1793 1.390 . S
C1799 C1796 1.386 . S
C1800 C1795 1.490 . S
C1800 C1802 1.395 . S
C1800 C1803 1.403 . S
H1801 C1807 0.930 . S
C1802 H1788 0.930 . S
C1802 C1800 1.395 . S
C1802 C1805 1.403 . S
C1803 C1800 1.403 . S
C1803 C1804 1.524 . S
C1803 C1807 1.400 . S
C1804 H1789 0.960 . S
C1804 H1790 0.960 . S
C1804 H1791 0.960 . S
C1804 C1803 1.524 . S
C1805 C1802 1.403 . S
C1805 C1806 1.392 . S
C1805 C1809 1.495 . S
C1806 C1805 1.392 . S
C1806 C1807 1.385 . S
C1806 C1808 1.478 . S
C1807 H1801 0.930 . S
C1807 C1803 1.400 . S
C1807 C1806 1.385 . S
C1808 C1806 1.478 . S
C1808 C1810 1.381 . S
C1808 C1814 1.383 . S
C1809 C1805 1.495 . S
C1809 H1815 0.959 . S
C1809 H1816 0.961 . S
C1809 H1817 0.960 . S
C1810 C1808 1.381 . S
C1810 C1811 1.394 . S
C1810 H1818 0.930 . S
C1811 C1810 1.394 . S
C1811 C1812 1.383 . S
C1811 H1819 0.929 . S
C1812 C1811 1.383 . S
C1812 C1813 1.377 . S
C1813 H1797 0.930 . S
C1813 C1812 1.377 . S
C1813 C1814 1.379 . S
C1814 H1798 0.931 . S
C1814 C1808 1.383 . S
C1814 C1813 1.379 . S
H1815 C1809 0.959 . S
H1816 C1809 0.961 . S
H1817 C1809 0.960 . S
H1818 C1810 0.930 . S
H1819 C1811 0.929 . S
H1820 C1828 0.929 . S
H1821 C1830 0.930 . S
H1822 C1832 0.930 . S
H1823 C1835 0.929 . S
H1824 C1838 0.930 . S
H1825 C1840 0.960 . S
H1826 C1840 0.960 . S
H1827 C1840 0.960 . S
C1828 H1820 0.929 . S
C1828 C1829 1.377 . S
C1828 C1830 1.384 . S
C1829 C1828 1.377 . S
C1829 C1835 1.390 . S
C1830 H1821 0.930 . S
C1830 C1828 1.384 . S
C1830 C1831 1.372 . S
C1831 C1830 1.372 . S
C1831 C1832 1.400 . S
C1831 C1836 1.490 . S
C1832 H1822 0.930 . S
C1832 C1831 1.400 . S
C1832 C1835 1.386 . S
H1833 C1849 0.930 . S
H1834 C1850 0.931 . S
C1835 H1823 0.929 . S
C1835 C1829 1.390 . S
C1835 C1832 1.386 . S
C1836 C1831 1.490 . S
C1836 C1838 1.395 . S
C1836 C1839 1.403 . S
H1837 C1843 0.930 . S
C1838 H1824 0.930 . S
C1838 C1836 1.395 . S
C1838 C1841 1.403 . S
C1839 C1836 1.403 . S
C1839 C1840 1.524 . S
C1839 C1843 1.400 . S
C1840 H1825 0.960 . S
C1840 H1826 0.960 . S
C1840 H1827 0.960 . S
C1840 C1839 1.524 . S
C1841 C1838 1.403 . S
C1841 C1842 1.392 . S
C1841 C1845 1.495 . S
C1842 C1841 1.392 . S
C1842 C1843 1.385 . S
C1842 C1844 1.478 . S
C1843 H1837 0.930 . S
C1843 C1839 1.400 . S
C1843 C1842 1.385 . S
C1844 C1842 1.478 . S
C1844 C1846 1.381 . S
C1844 C1850 1.383 . S
C1845 C1841 1.495 . S
C1845 H1851 0.959 . S
C1845 H1852 0.961 . S
C1845 H1853 0.960 . S
C1846 C1844 1.381 . S
C1846 C1847 1.394 . S
C1846 H1854 0.930 . S
C1847 C1846 1.394 . S
C1847 C1848 1.383 . S
C1847 H1855 0.929 . S
C1848 C1847 1.383 . S
C1848 C1849 1.377 . S
C1849 H1833 0.930 . S
C1849 C1848 1.377 . S
C1849 C1850 1.379 . S
C1850 H1834 0.931 . S
C1850 C1844 1.383 . S
C1850 C1849 1.379 . S
H1851 C1845 0.959 . S
H1852 C1845 0.961 . S
H1853 C1845 0.960 . S
H1854 C1846 0.930 . S
H1855 C1847 0.929 . S
H1856 C1864 0.929 . S
H1857 C1866 0.930 . S
H1858 C1868 0.930 . S
H1859 C1871 0.929 . S
H1860 C1874 0.930 . S
H1861 C1876 0.960 . S
H1862 C1876 0.960 . S
H1863 C1876 0.960 . S
C1864 H1856 0.929 . S
C1864 C1865 1.377 . S
C1864 C1866 1.384 . S
C1865 C1864 1.377 . S
C1865 C1871 1.390 . S
C1866 H1857 0.930 . S
C1866 C1864 1.384 . S
C1866 C1867 1.372 . S
C1867 C1866 1.372 . S
C1867 C1868 1.400 . S
C1867 C1872 1.490 . S
C1868 H1858 0.930 . S
C1868 C1867 1.400 . S
C1868 C1871 1.386 . S
H1869 C1885 0.930 . S
H1870 C1886 0.931 . S
C1871 H1859 0.929 . S
C1871 C1865 1.390 . S
C1871 C1868 1.386 . S
C1872 C1867 1.490 . S
C1872 C1874 1.395 . S
C1872 C1875 1.403 . S
H1873 C1879 0.930 . S
C1874 H1860 0.930 . S
C1874 C1872 1.395 . S
C1874 C1877 1.403 . S
C1875 C1872 1.403 . S
C1875 C1876 1.524 . S
C1875 C1879 1.400 . S
C1876 H1861 0.960 . S
C1876 H1862 0.960 . S
C1876 H1863 0.960 . S
C1876 C1875 1.524 . S
C1877 C1874 1.403 . S
C1877 C1878 1.392 . S
C1877 C1881 1.495 . S
C1878 C1877 1.392 . S
C1878 C1879 1.385 . S
C1878 C1880 1.478 . S
C1879 H1873 0.930 . S
C1879 C1875 1.400 . S
C1879 C1878 1.385 . S
C1880 C1878 1.478 . S
C1880 C1882 1.381 . S
C1880 C1886 1.383 . S
C1881 C1877 1.495 . S
C1881 H1887 0.959 . S
C1881 H1888 0.961 . S
C1881 H1889 0.960 . S
C1882 C1880 1.381 . S
C1882 C1883 1.394 . S
C1882 H1890 0.930 . S
C1883 C1882 1.394 . S
C1883 C1884 1.383 . S
C1883 H1891 0.929 . S
C1884 C1883 1.383 . S
C1884 C1885 1.377 . S
C1885 H1869 0.930 . S
C1885 C1884 1.377 . S
C1885 C1886 1.379 . S
C1886 H1870 0.931 . S
C1886 C1880 1.383 . S
C1886 C1885 1.379 . S
H1887 C1881 0.959 . S
H1888 C1881 0.961 . S
H1889 C1881 0.960 . S
H1890 C1882 0.930 . S
H1891 C1883 0.929 . S
H1892 C1900 0.929 . S
H1893 C1902 0.930 . S
H1894 C1904 0.930 . S
H1895 C1907 0.929 . S
H1896 C1910 0.930 . S
H1897 C1912 0.960 . S
H1898 C1912 0.960 . S
H1899 C1912 0.960 . S
C1900 H1892 0.929 . S
C1900 C1901 1.377 . S
C1900 C1902 1.384 . S
C1901 C1900 1.377 . S
C1901 C1907 1.390 . S
C1902 H1893 0.930 . S
C1902 C1900 1.384 . S
C1902 C1903 1.372 . S
C1903 C1902 1.372 . S
C1903 C1904 1.400 . S
C1903 C1908 1.490 . S
C1904 H1894 0.930 . S
C1904 C1903 1.400 . S
C1904 C1907 1.386 . S
H1905 C1921 0.930 . S
H1906 C1922 0.931 . S
C1907 H1895 0.929 . S
C1907 C1901 1.390 . S
C1907 C1904 1.386 . S
C1908 C1903 1.490 . S
C1908 C1910 1.395 . S
C1908 C1911 1.403 . S
H1909 C1915 0.930 . S
C1910 H1896 0.930 . S
C1910 C1908 1.395 . S
C1910 C1913 1.403 . S
C1911 C1908 1.403 . S
C1911 C1912 1.524 . S
C1911 C1915 1.400 . S
C1912 H1897 0.960 . S
C1912 H1898 0.960 . S
C1912 H1899 0.960 . S
C1912 C1911 1.524 . S
C1913 C1910 1.403 . S
C1913 C1914 1.392 . S
C1913 C1917 1.495 . S
C1914 C1913 1.392 . S
C1914 C1915 1.385 . S
C1914 C1916 1.478 . S
C1915 H1909 0.930 . S
C1915 C1911 1.400 . S
C1915 C1914 1.385 . S
C1916 C1914 1.478 . S
C1916 C1918 1.381 . S
C1916 C1922 1.383 . S
C1917 C1913 1.495 . S
C1917 H1923 0.959 . S
C1917 H1924 0.961 . S
C1917 H1925 0.960 . S
C1918 C1916 1.381 . S
C1918 C1919 1.394 . S
C1918 H1926 0.930 . S
C1919 C1918 1.394 . S
C1919 C1920 1.383 . S
C1919 H1927 0.929 . S
C1920 C1919 1.383 . S
C1920 C1921 1.377 . S
C1921 H1905 0.930 . S
C1921 C1920 1.377 . S
C1921 C1922 1.379 . S
C1922 H1906 0.931 . S
C1922 C1916 1.383 . S
C1922 C1921 1.379 . S
H1923 C1917 0.959 . S
H1924 C1917 0.961 . S
H1925 C1917 0.960 . S
H1926 C1918 0.930 . S
H1927 C1919 0.929 . S
H1928 C1936 0.929 . S
H1929 C1938 0.930 . S
H1930 C1940 0.930 . S
H1931 C1943 0.929 . S
H1932 C1946 0.930 . S
H1933 C1948 0.960 . S
H1934 C1948 0.960 . S
H1935 C1948 0.960 . S
C1936 H1928 0.929 . S
C1936 C1937 1.377 . S
C1936 C1938 1.384 . S
C1937 C1936 1.377 . S
C1937 C1943 1.390 . S
C1938 H1929 0.930 . S
C1938 C1936 1.384 . S
C1938 C1939 1.372 . S
C1939 C1938 1.372 . S
C1939 C1940 1.400 . S
C1939 C1944 1.490 . S
C1940 H1930 0.930 . S
C1940 C1939 1.400 . S
C1940 C1943 1.386 . S
H1941 C1957 0.930 . S
H1942 C1958 0.931 . S
C1943 H1931 0.929 . S
C1943 C1937 1.390 . S
C1943 C1940 1.386 . S
C1944 C1939 1.490 . S
C1944 C1946 1.395 . S
C1944 C1947 1.403 . S
H1945 C1951 0.930 . S
C1946 H1932 0.930 . S
C1946 C1944 1.395 . S
C1946 C1949 1.403 . S
C1947 C1944 1.403 . S
C1947 C1948 1.524 . S
C1947 C1951 1.400 . S
C1948 H1933 0.960 . S
C1948 H1934 0.960 . S
C1948 H1935 0.960 . S
C1948 C1947 1.524 . S
C1949 C1946 1.403 . S
C1949 C1950 1.392 . S
C1949 C1953 1.495 . S
C1950 C1949 1.392 . S
C1950 C1951 1.385 . S
C1950 C1952 1.478 . S
C1951 H1945 0.930 . S
C1951 C1947 1.400 . S
C1951 C1950 1.385 . S
C1952 C1950 1.478 . S
C1952 C1954 1.381 . S
C1952 C1958 1.383 . S
C1953 C1949 1.495 . S
C1953 H1959 0.959 . S
C1953 H1960 0.961 . S
C1953 H1961 0.960 . S
C1954 C1952 1.381 . S
C1954 C1955 1.394 . S
C1954 H1962 0.930 . S
C1955 C1954 1.394 . S
C1955 C1956 1.383 . S
C1955 H1963 0.929 . S
C1956 C1955 1.383 . S
C1956 C1957 1.377 . S
C1957 H1941 0.930 . S
C1957 C1956 1.377 . S
C1957 C1958 1.379 . S
C1958 H1942 0.931 . S
C1958 C1952 1.383 . S
C1958 C1957 1.379 . S
H1959 C1953 0.959 . S
H1960 C1953 0.961 . S
H1961 C1953 0.960 . S
H1962 C1954 0.930 . S
H1963 C1955 0.929 . S
H1964 C1972 0.929 . S
H1965 C1974 0.930 . S
H1966 C1976 0.930 . S
H1967 C1979 0.929 . S
H1968 C1982 0.930 . S
H1969 C1984 0.960 . S
H1970 C1984 0.960 . S
H1971 C1984 0.960 . S
C1972 H1964 0.929 . S
C1972 C1973 1.377 . S
C1972 C1974 1.384 . S
C1973 C1972 1.377 . S
C1973 C1979 1.390 . S
C1974 H1965 0.930 . S
C1974 C1972 1.384 . S
C1974 C1975 1.372 . S
C1975 C1974 1.372 . S
C1975 C1976 1.400 . S
C1975 C1980 1.490 . S
C1976 H1966 0.930 . S
C1976 C1975 1.400 . S
C1976 C1979 1.386 . S
H1977 C1993 0.930 . S
H1978 C1994 0.931 . S
C1979 H1967 0.929 . S
C1979 C1973 1.390 . S
C1979 C1976 1.386 . S
C1980 C1975 1.490 . S
C1980 C1982 1.395 . S
C1980 C1983 1.403 . S
H1981 C1987 0.930 . S
C1982 H1968 0.930 . S
C1982 C1980 1.395 . S
C1982 C1985 1.403 . S
C1983 C1980 1.403 . S
C1983 C1984 1.524 . S
C1983 C1987 1.400 . S
C1984 H1969 0.960 . S
C1984 H1970 0.960 . S
C1984 H1971 0.960 . S
C1984 C1983 1.524 . S
C1985 C1982 1.403 . S
C1985 C1986 1.392 . S
C1985 C1989 1.495 . S
C1986 C1985 1.392 . S
C1986 C1987 1.385 . S
C1986 C1988 1.478 . S
C1987 H1981 0.930 . S
C1987 C1983 1.400 . S
C1987 C1986 1.385 . S
C1988 C1986 1.478 . S
C1988 C1990 1.381 . S
C1988 C1994 1.383 . S
C1989 C1985 1.495 . S
C1989 H1995 0.959 . S
C1989 H1996 0.961 . S
C1989 H1997 0.960 . S
C1990 C1988 1.381 . S
C1990 C1991 1.394 . S
C1990 H1998 0.930 . S
C1991 C1990 1.394 . S
C1991 C1992 1.383 . S
C1991 H1999 0.929 . S
C1992 C1991 1.383 . S
C1992 C1993 1.377 . S
C1993 H1977 0.930 . S
C1993 C1992 1.377 . S
C1993 C1994 1.379 . S
C1994 H1978 0.931 . S
C1994 C1988 1.383 . S
C1994 C1993 1.379 . S
H1995 C1989 0.959 . S
H1996 C1989 0.961 . S
H1997 C1989 0.960 . S
H1998 C1990 0.930 . S
H1999 C1991 0.929 . S
H2000 C2008 0.929 . S
H2001 C2010 0.930 . S
H2002 C2012 0.930 . S
H2003 C2015 0.929 . S
H2004 C2018 0.930 . S
H2005 C2020 0.960 . S
H2006 C2020 0.960 . S
H2007 C2020 0.960 . S
C2008 H2000 0.929 . S
C2008 C2009 1.377 . S
C2008 C2010 1.384 . S
C2009 C2008 1.377 . S
C2009 C2015 1.390 . S
C2010 H2001 0.930 . S
C2010 C2008 1.384 . S
C2010 C2011 1.372 . S
C2011 C2010 1.372 . S
C2011 C2012 1.400 . S
C2011 C2016 1.490 . S
C2012 H2002 0.930 . S
C2012 C2011 1.400 . S
C2012 C2015 1.386 . S
H2013 C2029 0.930 . S
H2014 C2030 0.931 . S
C2015 H2003 0.929 . S
C2015 C2009 1.390 . S
C2015 C2012 1.386 . S
C2016 C2011 1.490 . S
C2016 C2018 1.395 . S
C2016 C2019 1.403 . S
H2017 C2023 0.930 . S
C2018 H2004 0.930 . S
C2018 C2016 1.395 . S
C2018 C2021 1.403 . S
C2019 C2016 1.403 . S
C2019 C2020 1.524 . S
C2019 C2023 1.400 . S
C2020 H2005 0.960 . S
C2020 H2006 0.960 . S
C2020 H2007 0.960 . S
C2020 C2019 1.524 . S
C2021 C2018 1.403 . S
C2021 C2022 1.392 . S
C2021 C2025 1.495 . S
C2022 C2021 1.392 . S
C2022 C2023 1.385 . S
C2022 C2024 1.478 . S
C2023 H2017 0.930 . S
C2023 C2019 1.400 . S
C2023 C2022 1.385 . S
C2024 C2022 1.478 . S
C2024 C2026 1.381 . S
C2024 C2030 1.383 . S
C2025 C2021 1.495 . S
C2025 H2031 0.959 . S
C2025 H2032 0.961 . S
C2025 H2033 0.960 . S
C2026 C2024 1.381 . S
C2026 C2027 1.394 . S
C2026 H2034 0.930 . S
C2027 C2026 1.394 . S
C2027 C2028 1.383 . S
C2027 H2035 0.929 . S
C2028 C2027 1.383 . S
C2028 C2029 1.377 . S
C2029 H2013 0.930 . S
C2029 C2028 1.377 . S
C2029 C2030 1.379 . S
C2030 H2014 0.931 . S
C2030 C2024 1.383 . S
C2030 C2029 1.379 . S
H2031 C2025 0.959 . S
H2032 C2025 0.961 . S
H2033 C2025 0.960 . S
H2034 C2026 0.930 . S
H2035 C2027 0.929 . S
H2036 C2044 0.929 . S
H2037 C2046 0.930 . S
H2038 C2048 0.930 . S
H2039 C2051 0.929 . S
H2040 C2054 0.930 . S
H2041 C2056 0.960 . S
H2042 C2056 0.960 . S
H2043 C2056 0.960 . S
C2044 H2036 0.929 . S
C2044 C2045 1.377 . S
C2044 C2046 1.384 . S
C2045 C2044 1.377 . S
C2045 C2051 1.390 . S
C2046 H2037 0.930 . S
C2046 C2044 1.384 . S
C2046 C2047 1.372 . S
C2047 C2046 1.372 . S
C2047 C2048 1.400 . S
C2047 C2052 1.490 . S
C2048 H2038 0.930 . S
C2048 C2047 1.400 . S
C2048 C2051 1.386 . S
H2049 C2065 0.930 . S
H2050 C2066 0.931 . S
C2051 H2039 0.929 . S
C2051 C2045 1.390 . S
C2051 C2048 1.386 . S
C2052 C2047 1.490 . S
C2052 C2054 1.395 . S
C2052 C2055 1.403 . S
H2053 C2059 0.930 . S
C2054 H2040 0.930 . S
C2054 C2052 1.395 . S
C2054 C2057 1.403 . S
C2055 C2052 1.403 . S
C2055 C2056 1.524 . S
C2055 C2059 1.400 . S
C2056 H2041 0.960 . S
C2056 H2042 0.960 . S
C2056 H2043 0.960 . S
C2056 C2055 1.524 . S
C2057 C2054 1.403 . S
C2057 C2058 1.392 . S
C2057 C2061 1.495 . S
C2058 C2057 1.392 . S
C2058 C2059 1.385 . S
C2058 C2060 1.478 . S
C2059 H2053 0.930 . S
C2059 C2055 1.400 . S
C2059 C2058 1.385 . S
C2060 C2058 1.478 . S
C2060 C2062 1.381 . S
C2060 C2066 1.383 . S
C2061 C2057 1.495 . S
C2061 H2067 0.959 . S
C2061 H2068 0.961 . S
C2061 H2069 0.960 . S
C2062 C2060 1.381 . S
C2062 C2063 1.394 . S
C2062 H2070 0.930 . S
C2063 C2062 1.394 . S
C2063 C2064 1.383 . S
C2063 H2071 0.929 . S
C2064 C2063 1.383 . S
C2064 C2065 1.377 . S
C2065 H2049 0.930 . S
C2065 C2064 1.377 . S
C2065 C2066 1.379 . S
C2066 H2050 0.931 . S
C2066 C2060 1.383 . S
C2066 C2065 1.379 . S
H2067 C2061 0.959 . S
H2068 C2061 0.961 . S
H2069 C2061 0.960 . S
H2070 C2062 0.930 . S
H2071 C2063 0.929 . S
H2072 C2080 0.929 . S
H2073 C2082 0.930 . S
H2074 C2084 0.930 . S
H2075 C2087 0.929 . S
H2076 C2090 0.930 . S
H2077 C2092 0.960 . S
H2078 C2092 0.960 . S
H2079 C2092 0.960 . S
C2080 H2072 0.929 . S
C2080 C2081 1.377 . S
C2080 C2082 1.384 . S
C2081 C2080 1.377 . S
C2081 C2087 1.390 . S
C2082 H2073 0.930 . S
C2082 C2080 1.384 . S
C2082 C2083 1.372 . S
C2083 C2082 1.372 . S
C2083 C2084 1.400 . S
C2083 C2088 1.490 . S
C2084 H2074 0.930 . S
C2084 C2083 1.400 . S
C2084 C2087 1.386 . S
H2085 C2101 0.930 . S
H2086 C2102 0.931 . S
C2087 H2075 0.929 . S
C2087 C2081 1.390 . S
C2087 C2084 1.386 . S
C2088 C2083 1.490 . S
C2088 C2090 1.395 . S
C2088 C2091 1.403 . S
H2089 C2095 0.930 . S
C2090 H2076 0.930 . S
C2090 C2088 1.395 . S
C2090 C2093 1.403 . S
C2091 C2088 1.403 . S
C2091 C2092 1.524 . S
C2091 C2095 1.400 . S
C2092 H2077 0.960 . S
C2092 H2078 0.960 . S
C2092 H2079 0.960 . S
C2092 C2091 1.524 . S
C2093 C2090 1.403 . S
C2093 C2094 1.392 . S
C2093 C2097 1.495 . S
C2094 C2093 1.392 . S
C2094 C2095 1.385 . S
C2094 C2096 1.478 . S
C2095 H2089 0.930 . S
C2095 C2091 1.400 . S
C2095 C2094 1.385 . S
C2096 C2094 1.478 . S
C2096 C2098 1.381 . S
C2096 C2102 1.383 . S
C2097 C2093 1.495 . S
C2097 H2103 0.959 . S
C2097 H2104 0.961 . S
C2097 H2105 0.960 . S
C2098 C2096 1.381 . S
C2098 C2099 1.394 . S
C2098 H2106 0.930 . S
C2099 C2098 1.394 . S
C2099 C2100 1.383 . S
C2099 H2107 0.929 . S
C2100 C2099 1.383 . S
C2100 C2101 1.377 . S
C2101 H2085 0.930 . S
C2101 C2100 1.377 . S
C2101 C2102 1.379 . S
C2102 H2086 0.931 . S
C2102 C2096 1.383 . S
C2102 C2101 1.379 . S
H2103 C2097 0.959 . S
H2104 C2097 0.961 . S
H2105 C2097 0.960 . S
H2106 C2098 0.930 . S
H2107 C2099 0.929 . S
H2108 C2116 0.929 . S
H2109 C2118 0.930 . S
H2110 C2120 0.930 . S
H2111 C2123 0.929 . S
H2112 C2126 0.930 . S
H2113 C2128 0.960 . S
H2114 C2128 0.960 . S
H2115 C2128 0.960 . S
C2116 H2108 0.929 . S
C2116 C2117 1.377 . S
C2116 C2118 1.384 . S
C2117 C2116 1.377 . S
C2117 C2123 1.390 . S
C2118 H2109 0.930 . S
C2118 C2116 1.384 . S
C2118 C2119 1.372 . S
C2119 C2118 1.372 . S
C2119 C2120 1.400 . S
C2119 C2124 1.490 . S
C2120 H2110 0.930 . S
C2120 C2119 1.400 . S
C2120 C2123 1.386 . S
H2121 C2137 0.930 . S
H2122 C2138 0.931 . S
C2123 H2111 0.929 . S
C2123 C2117 1.390 . S
C2123 C2120 1.386 . S
C2124 C2119 1.490 . S
C2124 C2126 1.395 . S
C2124 C2127 1.403 . S
H2125 C2131 0.930 . S
C2126 H2112 0.930 . S
C2126 C2124 1.395 . S
C2126 C2129 1.403 . S
C2127 C2124 1.403 . S
C2127 C2128 1.524 . S
C2127 C2131 1.400 . S
C2128 H2113 0.960 . S
C2128 H2114 0.960 . S
C2128 H2115 0.960 . S
C2128 C2127 1.524 . S
C2129 C2126 1.403 . S
C2129 C2130 1.392 . S
C2129 C2133 1.495 . S
C2130 C2129 1.392 . S
C2130 C2131 1.385 . S
C2130 C2132 1.478 . S
C2131 H2125 0.930 . S
C2131 C2127 1.400 . S
C2131 C2130 1.385 . S
C2132 C2130 1.478 . S
C2132 C2134 1.381 . S
C2132 C2138 1.383 . S
C2133 C2129 1.495 . S
C2133 H2139 0.959 . S
C2133 H2140 0.961 . S
C2133 H2141 0.960 . S
C2134 C2132 1.381 . S
C2134 C2135 1.394 . S
C2134 H2142 0.930 . S
C2135 C2134 1.394 . S
C2135 C2136 1.383 . S
C2135 H2143 0.929 . S
C2136 C2135 1.383 . S
C2136 C2137 1.377 . S
C2137 H2121 0.930 . S
C2137 C2136 1.377 . S
C2137 C2138 1.379 . S
C2138 H2122 0.931 . S
C2138 C2132 1.383 . S
C2138 C2137 1.379 . S
H2139 C2133 0.959 . S
H2140 C2133 0.961 . S
H2141 C2133 0.960 . S
H2142 C2134 0.930 . S
H2143 C2135 0.929 . S
H2144 C2152 0.929 . S
H2145 C2154 0.930 . S
H2146 C2156 0.930 . S
H2147 C2159 0.929 . S
H2148 C2162 0.930 . S
H2149 C2164 0.960 . S
H2150 C2164 0.960 . S
H2151 C2164 0.960 . S
C2152 H2144 0.929 . S
C2152 C2153 1.377 . S
C2152 C2154 1.384 . S
C2153 C2152 1.377 . S
C2153 C2159 1.390 . S
C2154 H2145 0.930 . S
C2154 C2152 1.384 . S
C2154 C2155 1.372 . S
C2155 C2154 1.372 . S
C2155 C2156 1.400 . S
C2155 C2160 1.490 . S
C2156 H2146 0.930 . S
C2156 C2155 1.400 . S
C2156 C2159 1.386 . S
H2157 C2173 0.930 . S
H2158 C2174 0.931 . S
C2159 H2147 0.929 . S
C2159 C2153 1.390 . S
C2159 C2156 1.386 . S
C2160 C2155 1.490 . S
C2160 C2162 1.395 . S
C2160 C2163 1.403 . S
H2161 C2167 0.930 . S
C2162 H2148 0.930 . S
C2162 C2160 1.395 . S
C2162 C2165 1.403 . S
C2163 C2160 1.403 . S
C2163 C2164 1.524 . S
C2163 C2167 1.400 . S
C2164 H2149 0.960 . S
C2164 H2150 0.960 . S
C2164 H2151 0.960 . S
C2164 C2163 1.524 . S
C2165 C2162 1.403 . S
C2165 C2166 1.392 . S
C2165 C2169 1.495 . S
C2166 C2165 1.392 . S
C2166 C2167 1.385 . S
C2166 C2168 1.478 . S
C2167 H2161 0.930 . S
C2167 C2163 1.400 . S
C2167 C2166 1.385 . S
C2168 C2166 1.478 . S
C2168 C2170 1.381 . S
C2168 C2174 1.383 . S
C2169 C2165 1.495 . S
C2169 H2175 0.959 . S
C2169 H2176 0.961 . S
C2169 H2177 0.960 . S
C2170 C2168 1.381 . S
C2170 C2171 1.394 . S
C2170 H2178 0.930 . S
C2171 C2170 1.394 . S
C2171 C2172 1.383 . S
C2171 H2179 0.929 . S
C2172 C2171 1.383 . S
C2172 C2173 1.377 . S
C2173 H2157 0.930 . S
C2173 C2172 1.377 . S
C2173 C2174 1.379 . S
C2174 H2158 0.931 . S
C2174 C2168 1.383 . S
C2174 C2173 1.379 . S
H2175 C2169 0.959 . S
H2176 C2169 0.961 . S
H2177 C2169 0.960 . S
H2178 C2170 0.930 . S
H2179 C2171 0.929 . S
H2180 C2188 0.929 . S
H2181 C2190 0.930 . S
H2182 C2192 0.930 . S
H2183 C2195 0.929 . S
H2184 C2198 0.930 . S
H2185 C2200 0.960 . S
H2186 C2200 0.960 . S
H2187 C2200 0.960 . S
C2188 H2180 0.929 . S
C2188 C2189 1.377 . S
C2188 C2190 1.384 . S
C2189 C2188 1.377 . S
C2189 C2195 1.390 . S
C2190 H2181 0.930 . S
C2190 C2188 1.384 . S
C2190 C2191 1.372 . S
C2191 C2190 1.372 . S
C2191 C2192 1.400 . S
C2191 C2196 1.490 . S
C2192 H2182 0.930 . S
C2192 C2191 1.400 . S
C2192 C2195 1.386 . S
H2193 C2209 0.930 . S
H2194 C2210 0.931 . S
C2195 H2183 0.929 . S
C2195 C2189 1.390 . S
C2195 C2192 1.386 . S
C2196 C2191 1.490 . S
C2196 C2198 1.395 . S
C2196 C2199 1.403 . S
H2197 C2203 0.930 . S
C2198 H2184 0.930 . S
C2198 C2196 1.395 . S
C2198 C2201 1.403 . S
C2199 C2196 1.403 . S
C2199 C2200 1.524 . S
C2199 C2203 1.400 . S
C2200 H2185 0.960 . S
C2200 H2186 0.960 . S
C2200 H2187 0.960 . S
C2200 C2199 1.524 . S
C2201 C2198 1.403 . S
C2201 C2202 1.392 . S
C2201 C2205 1.495 . S
C2202 C2201 1.392 . S
C2202 C2203 1.385 . S
C2202 C2204 1.478 . S
C2203 H2197 0.930 . S
C2203 C2199 1.400 . S
C2203 C2202 1.385 . S
C2204 C2202 1.478 . S
C2204 C2206 1.381 . S
C2204 C2210 1.383 . S
C2205 C2201 1.495 . S
C2205 H2211 0.959 . S
C2205 H2212 0.961 . S
C2205 H2213 0.960 . S
C2206 C2204 1.381 . S
C2206 C2207 1.394 . S
C2206 H2214 0.930 . S
C2207 C2206 1.394 . S
C2207 C2208 1.383 . S
C2207 H2215 0.929 . S
C2208 C2207 1.383 . S
C2208 C2209 1.377 . S
C2209 H2193 0.930 . S
C2209 C2208 1.377 . S
C2209 C2210 1.379 . S
C2210 H2194 0.931 . S
C2210 C2204 1.383 . S
C2210 C2209 1.379 . S
H2211 C2205 0.959 . S
H2212 C2205 0.961 . S
H2213 C2205 0.960 . S
H2214 C2206 0.930 . S
H2215 C2207 0.929 . S
H2216 C2224 0.929 . S
H2217 C2226 0.930 . S
H2218 C2228 0.930 . S
H2219 C2231 0.929 . S
H2220 C2234 0.930 . S
H2221 C2236 0.960 . S
H2222 C2236 0.960 . S
H2223 C2236 0.960 . S
C2224 H2216 0.929 . S
C2224 C2225 1.377 . S
C2224 C2226 1.384 . S
C2225 C2224 1.377 . S
C2225 C2231 1.390 . S
C2226 H2217 0.930 . S
C2226 C2224 1.384 . S
C2226 C2227 1.372 . S
C2227 C2226 1.372 . S
C2227 C2228 1.400 . S
C2227 C2232 1.490 . S
C2228 H2218 0.930 . S
C2228 C2227 1.400 . S
C2228 C2231 1.386 . S
H2229 C2245 0.930 . S
H2230 C2246 0.931 . S
C2231 H2219 0.929 . S
C2231 C2225 1.390 . S
C2231 C2228 1.386 . S
C2232 C2227 1.490 . S
C2232 C2234 1.395 . S
C2232 C2235 1.403 . S
H2233 C2239 0.930 . S
C2234 H2220 0.930 . S
C2234 C2232 1.395 . S
C2234 C2237 1.403 . S
C2235 C2232 1.403 . S
C2235 C2236 1.524 . S
C2235 C2239 1.400 . S
C2236 H2221 0.960 . S
C2236 H2222 0.960 . S
C2236 H2223 0.960 . S
C2236 C2235 1.524 . S
C2237 C2234 1.403 . S
C2237 C2238 1.392 . S
C2237 C2241 1.495 . S
C2238 C2237 1.392 . S
C2238 C2239 1.385 . S
C2238 C2240 1.478 . S
C2239 H2233 0.930 . S
C2239 C2235 1.400 . S
C2239 C2238 1.385 . S
C2240 C2238 1.478 . S
C2240 C2242 1.381 . S
C2240 C2246 1.383 . S
C2241 C2237 1.495 . S
C2241 H2247 0.959 . S
C2241 H2248 0.961 . S
C2241 H2249 0.960 . S
C2242 C2240 1.381 . S
C2242 C2243 1.394 . S
C2242 H2250 0.930 . S
C2243 C2242 1.394 . S
C2243 C2244 1.383 . S
C2243 H2251 0.929 . S
C2244 C2243 1.383 . S
C2244 C2245 1.377 . S
C2245 H2229 0.930 . S
C2245 C2244 1.377 . S
C2245 C2246 1.379 . S
C2246 H2230 0.931 . S
C2246 C2240 1.383 . S
C2246 C2245 1.379 . S
H2247 C2241 0.959 . S
H2248 C2241 0.961 . S
H2249 C2241 0.960 . S
H2250 C2242 0.930 . S
H2251 C2243 0.929 . S
H2252 C2260 0.929 . S
H2253 C2262 0.930 . S
H2254 C2264 0.930 . S
H2255 C2267 0.929 . S
H2256 C2270 0.930 . S
H2257 C2272 0.960 . S
H2258 C2272 0.960 . S
H2259 C2272 0.960 . S
C2260 H2252 0.929 . S
C2260 C2261 1.377 . S
C2260 C2262 1.384 . S
C2261 C2260 1.377 . S
C2261 C2267 1.390 . S
C2262 H2253 0.930 . S
C2262 C2260 1.384 . S
C2262 C2263 1.372 . S
C2263 C2262 1.372 . S
C2263 C2264 1.400 . S
C2263 C2268 1.490 . S
C2264 H2254 0.930 . S
C2264 C2263 1.400 . S
C2264 C2267 1.386 . S
H2265 C2281 0.930 . S
H2266 C2282 0.931 . S
C2267 H2255 0.929 . S
C2267 C2261 1.390 . S
C2267 C2264 1.386 . S
C2268 C2263 1.490 . S
C2268 C2270 1.395 . S
C2268 C2271 1.403 . S
H2269 C2275 0.930 . S
C2270 H2256 0.930 . S
C2270 C2268 1.395 . S
C2270 C2273 1.403 . S
C2271 C2268 1.403 . S
C2271 C2272 1.524 . S
C2271 C2275 1.400 . S
C2272 H2257 0.960 . S
C2272 H2258 0.960 . S
C2272 H2259 0.960 . S
C2272 C2271 1.524 . S
C2273 C2270 1.403 . S
C2273 C2274 1.392 . S
C2273 C2277 1.495 . S
C2274 C2273 1.392 . S
C2274 C2275 1.385 . S
C2274 C2276 1.478 . S
C2275 H2269 0.930 . S
C2275 C2271 1.400 . S
C2275 C2274 1.385 . S
C2276 C2274 1.478 . S
C2276 C2278 1.381 . S
C2276 C2282 1.383 . S
C2277 C2273 1.495 . S
C2277 H2283 0.959 . S
C2277 H2284 0.961 . S
C2277 H2285 0.960 . S
C2278 C2276 1.381 . S
C2278 C2279 1.394 . S
C2278 H2286 0.930 . S
C2279 C2278 1.394 . S
C2279 C2280 1.383 . S
C2279 H2287 0.929 . S
C2280 C2279 1.383 . S
C2280 C2281 1.377 . S
C2281 H2265 0.930 . S
C2281 C2280 1.377 . S
C2281 C2282 1.379 . S
C2282 H2266 0.931 . S
C2282 C2276 1.383 . S
C2282 C2281 1.379 . S
H2283 C2277 0.959 . S
H2284 C2277 0.961 . S
H2285 C2277 0.960 . S
H2286 C2278 0.930 . S
H2287 C2279 0.929 . S
H2288 C2296 0.929 . S
H2289 C2298 0.930 . S
H2290 C2300 0.930 . S
H2291 C2303 0.929 . S
H2292 C2306 0.930 . S
H2293 C2308 0.960 . S
H2294 C2308 0.960 . S
H2295 C2308 0.960 . S
C2296 H2288 0.929 . S
C2296 C2297 1.377 . S
C2296 C2298 1.384 . S
C2297 C2296 1.377 . S
C2297 C2303 1.390 . S
C2298 H2289 0.930 . S
C2298 C2296 1.384 . S
C2298 C2299 1.372 . S
C2299 C2298 1.372 . S
C2299 C2300 1.400 . S
C2299 C2304 1.490 . S
C2300 H2290 0.930 . S
C2300 C2299 1.400 . S
C2300 C2303 1.386 . S
H2301 C2317 0.930 . S
H2302 C2318 0.931 . S
C2303 H2291 0.929 . S
C2303 C2297 1.390 . S
C2303 C2300 1.386 . S
C2304 C2299 1.490 . S
C2304 C2306 1.395 . S
C2304 C2307 1.403 . S
H2305 C2311 0.930 . S
C2306 H2292 0.930 . S
C2306 C2304 1.395 . S
C2306 C2309 1.403 . S
C2307 C2304 1.403 . S
C2307 C2308 1.524 . S
C2307 C2311 1.400 . S
C2308 H2293 0.960 . S
C2308 H2294 0.960 . S
C2308 H2295 0.960 . S
C2308 C2307 1.524 . S
C2309 C2306 1.403 . S
C2309 C2310 1.392 . S
C2309 C2313 1.495 . S
C2310 C2309 1.392 . S
C2310 C2311 1.385 . S
C2310 C2312 1.478 . S
C2311 H2305 0.930 . S
C2311 C2307 1.400 . S
C2311 C2310 1.385 . S
C2312 C2310 1.478 . S
C2312 C2314 1.381 . S
C2312 C2318 1.383 . S
C2313 C2309 1.495 . S
C2313 H2319 0.959 . S
C2313 H2320 0.961 . S
C2313 H2321 0.960 . S
C2314 C2312 1.381 . S
C2314 C2315 1.394 . S
C2314 H2322 0.930 . S
C2315 C2314 1.394 . S
C2315 C2316 1.383 . S
C2315 H2323 0.929 . S
C2316 C2315 1.383 . S
C2316 C2317 1.377 . S
C2317 H2301 0.930 . S
C2317 C2316 1.377 . S
C2317 C2318 1.379 . S
C2318 H2302 0.931 . S
C2318 C2312 1.383 . S
C2318 C2317 1.379 . S
H2319 C2313 0.959 . S
H2320 C2313 0.961 . S
H2321 C2313 0.960 . S
H2322 C2314 0.930 . S
H2323 C2315 0.929 . S
H2324 C2332 0.929 . S
H2325 C2334 0.930 . S
H2326 C2336 0.930 . S
H2327 C2339 0.929 . S
H2328 C2342 0.930 . S
H2329 C2344 0.960 . S
H2330 C2344 0.960 . S
H2331 C2344 0.960 . S
C2332 H2324 0.929 . S
C2332 C2333 1.377 . S
C2332 C2334 1.384 . S
C2333 C2332 1.377 . S
C2333 C2339 1.390 . S
C2334 H2325 0.930 . S
C2334 C2332 1.384 . S
C2334 C2335 1.372 . S
C2335 C2334 1.372 . S
C2335 C2336 1.400 . S
C2335 C2340 1.490 . S
C2336 H2326 0.930 . S
C2336 C2335 1.400 . S
C2336 C2339 1.386 . S
H2337 C2353 0.930 . S
H2338 C2354 0.931 . S
C2339 H2327 0.929 . S
C2339 C2333 1.390 . S
C2339 C2336 1.386 . S
C2340 C2335 1.490 . S
C2340 C2342 1.395 . S
C2340 C2343 1.403 . S
H2341 C2347 0.930 . S
C2342 H2328 0.930 . S
C2342 C2340 1.395 . S
C2342 C2345 1.403 . S
C2343 C2340 1.403 . S
C2343 C2344 1.524 . S
C2343 C2347 1.400 . S
C2344 H2329 0.960 . S
C2344 H2330 0.960 . S
C2344 H2331 0.960 . S
C2344 C2343 1.524 . S
C2345 C2342 1.403 . S
C2345 C2346 1.392 . S
C2345 C2349 1.495 . S
C2346 C2345 1.392 . S
C2346 C2347 1.385 . S
C2346 C2348 1.478 . S
C2347 H2341 0.930 . S
C2347 C2343 1.400 . S
C2347 C2346 1.385 . S
C2348 C2346 1.478 . S
C2348 C2350 1.381 . S
C2348 C2354 1.383 . S
C2349 C2345 1.495 . S
C2349 H2355 0.959 . S
C2349 H2356 0.961 . S
C2349 H2357 0.960 . S
C2350 C2348 1.381 . S
C2350 C2351 1.394 . S
C2350 H2358 0.930 . S
C2351 C2350 1.394 . S
C2351 C2352 1.383 . S
C2351 H2359 0.929 . S
C2352 C2351 1.383 . S
C2352 C2353 1.377 . S
C2353 H2337 0.930 . S
C2353 C2352 1.377 . S
C2353 C2354 1.379 . S
C2354 H2338 0.931 . S
C2354 C2348 1.383 . S
C2354 C2353 1.379 . S
H2355 C2349 0.959 . S
H2356 C2349 0.961 . S
H2357 C2349 0.960 . S
H2358 C2350 0.930 . S
H2359 C2351 0.929 . S
H2360 C2368 0.929 . S
H2361 C2370 0.930 . S
H2362 C2372 0.930 . S
H2363 C2375 0.929 . S
H2364 C2378 0.930 . S
H2365 C2380 0.960 . S
H2366 C2380 0.960 . S
H2367 C2380 0.960 . S
C2368 H2360 0.929 . S
C2368 C2369 1.377 . S
C2368 C2370 1.384 . S
C2369 C2368 1.377 . S
C2369 C2375 1.390 . S
C2370 H2361 0.930 . S
C2370 C2368 1.384 . S
C2370 C2371 1.372 . S
C2371 C2370 1.372 . S
C2371 C2372 1.400 . S
C2371 C2376 1.490 . S
C2372 H2362 0.930 . S
C2372 C2371 1.400 . S
C2372 C2375 1.386 . S
H2373 C2389 0.930 . S
H2374 C2390 0.931 . S
C2375 H2363 0.929 . S
C2375 C2369 1.390 . S
C2375 C2372 1.386 . S
C2376 C2371 1.490 . S
C2376 C2378 1.395 . S
C2376 C2379 1.403 . S
H2377 C2383 0.930 . S
C2378 H2364 0.930 . S
C2378 C2376 1.395 . S
C2378 C2381 1.403 . S
C2379 C2376 1.403 . S
C2379 C2380 1.524 . S
C2379 C2383 1.400 . S
C2380 H2365 0.960 . S
C2380 H2366 0.960 . S
C2380 H2367 0.960 . S
C2380 C2379 1.524 . S
C2381 C2378 1.403 . S
C2381 C2382 1.392 . S
C2381 C2385 1.495 . S
C2382 C2381 1.392 . S
C2382 C2383 1.385 . S
C2382 C2384 1.478 . S
C2383 H2377 0.930 . S
C2383 C2379 1.400 . S
C2383 C2382 1.385 . S
C2384 C2382 1.478 . S
C2384 C2386 1.381 . S
C2384 C2390 1.383 . S
C2385 C2381 1.495 . S
C2385 H2391 0.959 . S
C2385 H2392 0.961 . S
C2385 H2393 0.960 . S
C2386 C2384 1.381 . S
C2386 C2387 1.394 . S
C2386 H2394 0.930 . S
C2387 C2386 1.394 . S
C2387 C2388 1.383 . S
C2387 H2395 0.929 . S
C2388 C2387 1.383 . S
C2388 C2389 1.377 . S
C2389 H2373 0.930 . S
C2389 C2388 1.377 . S
C2389 C2390 1.379 . S
C2390 H2374 0.931 . S
C2390 C2384 1.383 . S
C2390 C2389 1.379 . S
H2391 C2385 0.959 . S
H2392 C2385 0.961 . S
H2393 C2385 0.960 . S
H2394 C2386 0.930 . S
H2395 C2387 0.929 . S
H2396 C2404 0.929 . S
H2397 C2406 0.930 . S
H2398 C2408 0.930 . S
H2399 C2411 0.929 . S
H2400 C2414 0.930 . S
H2401 C2416 0.960 . S
H2402 C2416 0.960 . S
H2403 C2416 0.960 . S
C2404 H2396 0.929 . S
C2404 C2405 1.377 . S
C2404 C2406 1.384 . S
C2405 C2404 1.377 . S
C2405 C2411 1.390 . S
C2406 H2397 0.930 . S
C2406 C2404 1.384 . S
C2406 C2407 1.372 . S
C2407 C2406 1.372 . S
C2407 C2408 1.400 . S
C2407 C2412 1.490 . S
C2408 H2398 0.930 . S
C2408 C2407 1.400 . S
C2408 C2411 1.386 . S
H2409 C2425 0.930 . S
H2410 C2426 0.931 . S
C2411 H2399 0.929 . S
C2411 C2405 1.390 . S
C2411 C2408 1.386 . S
C2412 C2407 1.490 . S
C2412 C2414 1.395 . S
C2412 C2415 1.403 . S
H2413 C2419 0.930 . S
C2414 H2400 0.930 . S
C2414 C2412 1.395 . S
C2414 C2417 1.403 . S
C2415 C2412 1.403 . S
C2415 C2416 1.524 . S
C2415 C2419 1.400 . S
C2416 H2401 0.960 . S
C2416 H2402 0.960 . S
C2416 H2403 0.960 . S
C2416 C2415 1.524 . S
C2417 C2414 1.403 . S
C2417 C2418 1.392 . S
C2417 C2421 1.495 . S
C2418 C2417 1.392 . S
C2418 C2419 1.385 . S
C2418 C2420 1.478 . S
C2419 H2413 0.930 . S
C2419 C2415 1.400 . S
C2419 C2418 1.385 . S
C2420 C2418 1.478 . S
C2420 C2422 1.381 . S
C2420 C2426 1.383 . S
C2421 C2417 1.495 . S
C2421 H2427 0.959 . S
C2421 H2428 0.961 . S
C2421 H2429 0.960 . S
C2422 C2420 1.381 . S
C2422 C2423 1.394 . S
C2422 H2430 0.930 . S
C2423 C2422 1.394 . S
C2423 C2424 1.383 . S
C2423 H2431 0.929 . S
C2424 C2423 1.383 . S
C2424 C2425 1.377 . S
C2425 H2409 0.930 . S
C2425 C2424 1.377 . S
C2425 C2426 1.379 . S
C2426 H2410 0.931 . S
C2426 C2420 1.383 . S
C2426 C2425 1.379 . S
H2427 C2421 0.959 . S
H2428 C2421 0.961 . S
H2429 C2421 0.960 . S
H2430 C2422 0.930 . S
H2431 C2423 0.929 . S
H2432 C2440 0.929 . S
H2433 C2442 0.930 . S
H2434 C2444 0.930 . S
H2435 C2447 0.929 . S
H2436 C2450 0.930 . S
H2437 C2452 0.960 . S
H2438 C2452 0.960 . S
H2439 C2452 0.960 . S
C2440 H2432 0.929 . S
C2440 C2441 1.377 . S
C2440 C2442 1.384 . S
C2441 C2440 1.377 . S
C2441 C2447 1.390 . S
C2442 H2433 0.930 . S
C2442 C2440 1.384 . S
C2442 C2443 1.372 . S
C2443 C2442 1.372 . S
C2443 C2444 1.400 . S
C2443 C2448 1.490 . S
C2444 H2434 0.930 . S
C2444 C2443 1.400 . S
C2444 C2447 1.386 . S
H2445 C2461 0.930 . S
H2446 C2462 0.931 . S
C2447 H2435 0.929 . S
C2447 C2441 1.390 . S
C2447 C2444 1.386 . S
C2448 C2443 1.490 . S
C2448 C2450 1.395 . S
C2448 C2451 1.403 . S
H2449 C2455 0.930 . S
C2450 H2436 0.930 . S
C2450 C2448 1.395 . S
C2450 C2453 1.403 1_455 S
C2451 C2448 1.403 . S
C2451 C2452 1.524 . S
C2451 C2455 1.400 1_455 S
C2452 H2437 0.960 . S
C2452 H2438 0.960 . S
C2452 H2439 0.960 . S
C2452 C2451 1.524 . S
C2453 C2450 1.403 1_655 S
C2453 C2454 1.392 . S
C2453 C2457 1.495 . S
C2454 C2453 1.392 . S
C2454 C2455 1.385 . S
C2454 C2456 1.478 . S
C2455 H2449 0.930 . S
C2455 C2451 1.400 1_655 S
C2455 C2454 1.385 . S
C2456 C2454 1.478 . S
C2456 C2458 1.381 . S
C2456 C2462 1.383 . S
C2457 C2453 1.495 . S
C2457 H2463 0.959 . S
C2457 H2464 0.961 . S
C2457 H2465 0.960 . S
C2458 C2456 1.381 . S
C2458 C2459 1.394 . S
C2458 H2466 0.930 . S
C2459 C2458 1.394 . S
C2459 C2460 1.383 . S
C2459 H2467 0.929 . S
C2460 C2459 1.383 . S
C2460 C2461 1.377 . S
C2461 H2445 0.930 . S
C2461 C2460 1.377 . S
C2461 C2462 1.379 . S
C2462 H2446 0.931 . S
C2462 C2456 1.383 . S
C2462 C2461 1.379 . S
H2463 C2457 0.959 . S
H2464 C2457 0.961 . S
H2465 C2457 0.960 . S
H2466 C2458 0.930 . S
H2467 C2459 0.929 . S
H2468 C2476 0.929 . S
H2469 C2478 0.930 . S
H2470 C2480 0.930 . S
H2471 C2483 0.929 . S
H2472 C2486 0.930 . S
H2473 C2488 0.960 . S
H2474 C2488 0.960 . S
H2475 C2488 0.960 . S
C2476 H2468 0.929 . S
C2476 C2477 1.377 . S
C2476 C2478 1.384 . S
C2477 C2476 1.377 . S
C2477 C2483 1.390 . S
C2478 H2469 0.930 . S
C2478 C2476 1.384 . S
C2478 C2479 1.372 . S
C2479 C2478 1.372 . S
C2479 C2480 1.400 . S
C2479 C2484 1.490 . S
C2480 H2470 0.930 . S
C2480 C2479 1.400 . S
C2480 C2483 1.386 . S
H2481 C2497 0.930 . S
H2482 C2498 0.931 . S
C2483 H2471 0.929 . S
C2483 C2477 1.390 . S
C2483 C2480 1.386 . S
C2484 C2479 1.490 . S
C2484 C2486 1.395 . S
C2484 C2487 1.403 1_655 S
H2485 C2491 0.930 . S
C2486 H2472 0.930 . S
C2486 C2484 1.395 . S
C2486 C2489 1.403 . S
C2487 C2484 1.403 1_455 S
C2487 C2488 1.524 . S
C2487 C2491 1.400 . S
C2488 H2473 0.960 . S
C2488 H2474 0.960 . S
C2488 H2475 0.960 . S
C2488 C2487 1.524 . S
C2489 C2486 1.403 . S
C2489 C2490 1.379 1_655 S
C2489 C2493 1.495 . S
C2490 C2489 1.379 1_455 S
C2490 C2491 1.396 . S
C2490 C2492 1.480 . S
C2491 H2485 0.930 . S
C2491 C2487 1.400 . S
C2491 C2490 1.396 . S
C2492 C2490 1.480 . S
C2492 C2494 1.381 . S
C2492 C2498 1.383 . S
C2493 C2489 1.495 . S
C2493 H2499 0.959 . S
C2493 H2500 0.961 . S
C2493 H2501 0.960 . S
C2494 C2492 1.381 . S
C2494 C2495 1.394 . S
C2494 H2502 0.930 . S
C2495 C2494 1.394 . S
C2495 C2496 1.383 . S
C2495 H2503 0.929 . S
C2496 C2495 1.383 . S
C2496 C2497 1.377 . S
C2497 H2481 0.930 . S
C2497 C2496 1.377 . S
C2497 C2498 1.379 . S
C2498 H2482 0.931 . S
C2498 C2492 1.383 . S
C2498 C2497 1.379 . S
H2499 C2493 0.959 . S
H2500 C2493 0.961 . S
H2501 C2493 0.960 . S
H2502 C2494 0.930 . S
H2503 C2495 0.929 . S
H2504 C2512 0.929 . S
H2505 C2514 0.930 . S
H2506 C2516 0.930 . S
H2507 C2519 0.929 . S
H2508 C2522 0.930 . S
H2509 C2524 0.960 . S
H2510 C2524 0.960 . S
H2511 C2524 0.960 . S
C2512 H2504 0.929 . S
C2512 C2513 1.377 . S
C2512 C2514 1.384 . S
C2513 C2512 1.377 . S
C2513 C2519 1.390 . S
C2514 H2505 0.930 . S
C2514 C2512 1.384 . S
C2514 C2515 1.372 . S
C2515 C2514 1.372 . S
C2515 C2516 1.400 . S
C2515 C2520 1.490 . S
C2516 H2506 0.930 . S
C2516 C2515 1.400 . S
C2516 C2519 1.386 . S
H2517 C2533 0.930 . S
H2518 C2534 0.931 . S
C2519 H2507 0.929 . S
C2519 C2513 1.390 . S
C2519 C2516 1.386 . S
C2520 C2515 1.490 . S
C2520 C2522 1.395 . S
C2520 C2523 1.403 . S
H2521 C2527 0.930 . S
C2522 H2508 0.930 . S
C2522 C2520 1.395 . S
C2522 C2525 1.403 . S
C2523 C2520 1.403 . S
C2523 C2524 1.524 . S
C2523 C2527 1.400 . S
C2524 H2509 0.960 . S
C2524 H2510 0.960 . S
C2524 H2511 0.960 . S
C2524 C2523 1.524 . S
C2525 C2522 1.403 . S
C2525 C2526 1.392 . S
C2525 C2529 1.495 . S
C2526 C2525 1.392 . S
C2526 C2527 1.385 . S
C2526 C2528 1.478 . S
C2527 H2521 0.930 . S
C2527 C2523 1.400 . S
C2527 C2526 1.385 . S
C2528 C2526 1.478 . S
C2528 C2530 1.381 . S
C2528 C2534 1.383 . S
C2529 C2525 1.495 . S
C2529 H2535 0.959 . S
C2529 H2536 0.961 . S
C2529 H2537 0.960 . S
C2530 C2528 1.381 . S
C2530 C2531 1.394 . S
C2530 H2538 0.930 . S
C2531 C2530 1.394 . S
C2531 C2532 1.383 . S
C2531 H2539 0.929 . S
C2532 C2531 1.383 . S
C2532 C2533 1.377 . S
C2533 H2517 0.930 . S
C2533 C2532 1.377 . S
C2533 C2534 1.379 . S
C2534 H2518 0.931 . S
C2534 C2528 1.383 . S
C2534 C2533 1.379 . S
H2535 C2529 0.959 . S
H2536 C2529 0.961 . S
H2537 C2529 0.960 . S
H2538 C2530 0.930 . S
H2539 C2531 0.929 . S
H2540 C2548 0.929 . S
H2541 C2550 0.930 . S
H2542 C2552 0.930 . S
H2543 C2555 0.929 . S
H2544 C2558 0.930 . S
H2545 C2560 0.960 . S
H2546 C2560 0.960 . S
H2547 C2560 0.960 . S
C2548 H2540 0.929 . S
C2548 C2549 1.377 . S
C2548 C2550 1.384 . S
C2549 C2548 1.377 . S
C2549 C2555 1.390 . S
C2550 H2541 0.930 . S
C2550 C2548 1.384 . S
C2550 C2551 1.372 . S
C2551 C2550 1.372 . S
C2551 C2552 1.400 . S
C2551 C2556 1.490 . S
C2552 H2542 0.930 . S
C2552 C2551 1.400 . S
C2552 C2555 1.386 . S
H2553 C2569 0.930 . S
H2554 C2570 0.931 . S
C2555 H2543 0.929 . S
C2555 C2549 1.390 . S
C2555 C2552 1.386 . S
C2556 C2551 1.490 . S
C2556 C2558 1.395 . S
C2556 C2559 1.403 . S
H2557 C2563 0.930 . S
C2558 H2544 0.930 . S
C2558 C2556 1.395 . S
C2558 C2561 1.403 . S
C2559 C2556 1.403 . S
C2559 C2560 1.524 . S
C2559 C2563 1.400 . S
C2560 H2545 0.960 . S
C2560 H2546 0.960 . S
C2560 H2547 0.960 . S
C2560 C2559 1.524 . S
C2561 C2558 1.403 . S
C2561 C2562 1.392 . S
C2561 C2565 1.495 . S
C2562 C2561 1.392 . S
C2562 C2563 1.385 . S
C2562 C2564 1.478 . S
C2563 H2557 0.930 . S
C2563 C2559 1.400 . S
C2563 C2562 1.385 . S
C2564 C2562 1.478 . S
C2564 C2566 1.381 . S
C2564 C2570 1.383 . S
C2565 C2561 1.495 . S
C2565 H2571 0.959 . S
C2565 H2572 0.961 . S
C2565 H2573 0.960 . S
C2566 C2564 1.381 . S
C2566 C2567 1.394 . S
C2566 H2574 0.930 . S
C2567 C2566 1.394 . S
C2567 C2568 1.383 . S
C2567 H2575 0.929 . S
C2568 C2567 1.383 . S
C2568 C2569 1.377 . S
C2569 H2553 0.930 . S
C2569 C2568 1.377 . S
C2569 C2570 1.379 . S
C2570 H2554 0.931 . S
C2570 C2564 1.383 . S
C2570 C2569 1.379 . S
H2571 C2565 0.959 . S
H2572 C2565 0.961 . S
H2573 C2565 0.960 . S
H2574 C2566 0.930 . S
H2575 C2567 0.929 . S
H2576 C2584 0.929 . S
H2577 C2586 0.930 . S
H2578 C2588 0.930 . S
H2579 C2591 0.929 . S
H2580 C2594 0.930 . S
H2581 C2596 0.960 . S
H2582 C2596 0.960 . S
H2583 C2596 0.960 . S
C2584 H2576 0.929 . S
C2584 C2585 1.377 . S
C2584 C2586 1.384 . S
C2585 C2584 1.377 . S
C2585 C2591 1.390 . S
C2586 H2577 0.930 . S
C2586 C2584 1.384 . S
C2586 C2587 1.372 . S
C2587 C2586 1.372 . S
C2587 C2588 1.400 . S
C2587 C2592 1.490 . S
C2588 H2578 0.930 . S
C2588 C2587 1.400 . S
C2588 C2591 1.386 . S
H2589 C2605 0.930 . S
H2590 C2606 0.931 . S
C2591 H2579 0.929 . S
C2591 C2585 1.390 . S
C2591 C2588 1.386 . S
C2592 C2587 1.490 . S
C2592 C2594 1.395 . S
C2592 C2595 1.403 . S
H2593 C2599 0.930 . S
C2594 H2580 0.930 . S
C2594 C2592 1.395 . S
C2594 C2597 1.403 1_655 S
C2595 C2592 1.403 . S
C2595 C2596 1.524 . S
C2595 C2599 1.400 1_655 S
C2596 H2581 0.960 . S
C2596 H2582 0.960 . S
C2596 H2583 0.960 . S
C2596 C2595 1.524 . S
C2597 C2594 1.403 1_455 S
C2597 C2598 1.392 . S
C2597 C2601 1.495 . S
C2598 C2597 1.392 . S
C2598 C2599 1.385 . S
C2598 C2600 1.478 . S
C2599 H2593 0.930 . S
C2599 C2595 1.400 1_455 S
C2599 C2598 1.385 . S
C2600 C2598 1.478 . S
C2600 C2602 1.381 . S
C2600 C2606 1.383 . S
C2601 C2597 1.495 . S
C2601 H2607 0.959 . S
C2601 H2608 0.961 . S
C2601 H2609 0.960 . S
C2602 C2600 1.381 . S
C2602 C2603 1.394 . S
C2602 H2610 0.930 . S
C2603 C2602 1.394 . S
C2603 C2604 1.383 . S
C2603 H2611 0.929 . S
C2604 C2603 1.383 . S
C2604 C2605 1.377 . S
C2605 H2589 0.930 . S
C2605 C2604 1.377 . S
C2605 C2606 1.379 . S
C2606 H2590 0.931 . S
C2606 C2600 1.383 . S
C2606 C2605 1.379 . S
H2607 C2601 0.959 . S
H2608 C2601 0.961 . S
H2609 C2601 0.960 . S
H2610 C2602 0.930 . S
H2611 C2603 0.929 . S
H2612 C2620 0.929 . S
H2613 C2622 0.930 . S
H2614 C2624 0.930 . S
H2615 C2627 0.929 . S
H2616 C2630 0.930 . S
H2617 C2632 0.960 . S
H2618 C2632 0.960 . S
H2619 C2632 0.960 . S
C2620 H2612 0.929 . S
C2620 C2621 1.377 . S
C2620 C2622 1.384 . S
C2621 C2620 1.377 . S
C2621 C2627 1.390 . S
C2622 H2613 0.930 . S
C2622 C2620 1.384 . S
C2622 C2623 1.372 . S
C2623 C2622 1.372 . S
C2623 C2624 1.400 . S
C2623 C2628 1.490 . S
C2624 H2614 0.930 . S
C2624 C2623 1.400 . S
C2624 C2627 1.386 . S
H2625 C2641 0.930 . S
H2626 C2642 0.931 . S
C2627 H2615 0.929 . S
C2627 C2621 1.390 . S
C2627 C2624 1.386 . S
C2628 C2623 1.490 . S
C2628 C2630 1.395 . S
C2628 C2631 1.403 . S
H2629 C2635 0.930 . S
C2630 H2616 0.930 . S
C2630 C2628 1.395 . S
C2630 C2633 1.403 . S
C2631 C2628 1.403 . S
C2631 C2632 1.524 . S
C2631 C2635 1.400 . S
C2632 H2617 0.960 . S
C2632 H2618 0.960 . S
C2632 H2619 0.960 . S
C2632 C2631 1.524 . S
C2633 C2630 1.403 . S
C2633 C2634 1.392 . S
C2633 C2637 1.495 . S
C2634 C2633 1.392 . S
C2634 C2635 1.385 . S
C2634 C2636 1.478 . S
C2635 H2629 0.930 . S
C2635 C2631 1.400 . S
C2635 C2634 1.385 . S
C2636 C2634 1.478 . S
C2636 C2638 1.381 . S
C2636 C2642 1.383 . S
C2637 C2633 1.495 . S
C2637 H2643 0.959 . S
C2637 H2644 0.961 . S
C2637 H2645 0.960 . S
C2638 C2636 1.381 . S
C2638 C2639 1.394 . S
C2638 H2646 0.930 . S
C2639 C2638 1.394 . S
C2639 C2640 1.383 . S
C2639 H2647 0.929 . S
C2640 C2639 1.383 . S
C2640 C2641 1.377 . S
C2641 H2625 0.930 . S
C2641 C2640 1.377 . S
C2641 C2642 1.379 . S
C2642 H2626 0.931 . S
C2642 C2636 1.383 . S
C2642 C2641 1.379 . S
H2643 C2637 0.959 . S
H2644 C2637 0.961 . S
H2645 C2637 0.960 . S
H2646 C2638 0.930 . S
H2647 C2639 0.929 . S
H2648 C2656 0.929 . S
H2649 C2658 0.930 . S
H2650 C2660 0.930 . S
H2651 C2663 0.929 . S
H2652 C2666 0.930 . S
H2653 C2668 0.960 . S
H2654 C2668 0.960 . S
H2655 C2668 0.960 . S
C2656 H2648 0.929 . S
C2656 C2657 1.377 . S
C2656 C2658 1.384 . S
C2657 C2656 1.377 . S
C2657 C2663 1.390 . S
C2658 H2649 0.930 . S
C2658 C2656 1.384 . S
C2658 C2659 1.372 . S
C2659 C2658 1.372 . S
C2659 C2660 1.400 . S
C2659 C2664 1.490 . S
C2660 H2650 0.930 . S
C2660 C2659 1.400 . S
C2660 C2663 1.386 . S
H2661 C2677 0.930 . S
H2662 C2678 0.931 . S
C2663 H2651 0.929 . S
C2663 C2657 1.390 . S
C2663 C2660 1.386 . S
C2664 C2659 1.490 . S
C2664 C2666 1.395 . S
C2664 C2667 1.403 . S
H2665 C2671 0.930 . S
C2666 H2652 0.930 . S
C2666 C2664 1.395 . S
C2666 C2669 1.403 . S
C2667 C2664 1.403 . S
C2667 C2668 1.524 . S
C2667 C2671 1.400 . S
C2668 H2653 0.960 . S
C2668 H2654 0.960 . S
C2668 H2655 0.960 . S
C2668 C2667 1.524 . S
C2669 C2666 1.403 . S
C2669 C2670 1.392 . S
C2669 C2673 1.495 . S
C2670 C2669 1.392 . S
C2670 C2671 1.385 . S
C2670 C2672 1.478 . S
C2671 H2665 0.930 . S
C2671 C2667 1.400 . S
C2671 C2670 1.385 . S
C2672 C2670 1.478 . S
C2672 C2674 1.381 . S
C2672 C2678 1.383 . S
C2673 C2669 1.495 . S
C2673 H2679 0.959 . S
C2673 H2680 0.961 . S
C2673 H2681 0.960 . S
C2674 C2672 1.381 . S
C2674 C2675 1.394 . S
C2674 H2682 0.930 . S
C2675 C2674 1.394 . S
C2675 C2676 1.383 . S
C2675 H2683 0.929 . S
C2676 C2675 1.383 . S
C2676 C2677 1.377 . S
C2677 H2661 0.930 . S
C2677 C2676 1.377 . S
C2677 C2678 1.379 . S
C2678 H2662 0.931 . S
C2678 C2672 1.383 . S
C2678 C2677 1.379 . S
H2679 C2673 0.959 . S
H2680 C2673 0.961 . S
H2681 C2673 0.960 . S
H2682 C2674 0.930 . S
H2683 C2675 0.929 . S
H2684 C2692 0.922 1_655 S
H2685 C2694 0.913 1_655 S
H2686 C2696 0.930 . S
H2687 C2699 0.929 . S
H2688 C2702 0.930 . S
H2689 C2704 0.960 . S
H2690 C2704 0.960 . S
H2691 C2704 0.960 . S
C2692 H2684 0.922 1_455 S
C2692 C2693 1.377 . S
C2692 C2694 1.390 . S
C2693 C2692 1.377 . S
C2693 C2699 1.390 . S
C2694 H2685 0.913 1_455 S
C2694 C2692 1.390 . S
C2694 C2695 1.383 . S
C2695 C2694 1.383 . S
C2695 C2696 1.400 . S
C2695 C2700 1.490 . S
C2696 H2686 0.930 . S
C2696 C2695 1.400 . S
C2696 C2699 1.386 . S
H2697 C2713 0.930 1_455 S
H2698 C2714 0.931 . S
C2699 H2687 0.929 . S
C2699 C2693 1.390 . S
C2699 C2696 1.386 . S
C2700 C2695 1.490 . S
C2700 C2702 1.395 . S
C2700 C2703 1.403 1_455 S
H2701 C2707 0.930 . S
C2702 H2688 0.930 . S
C2702 C2700 1.395 . S
C2702 C2705 1.403 . S
C2703 C2700 1.403 1_655 S
C2703 C2704 1.524 . S
C2703 C2707 1.400 . S
C2704 H2689 0.960 . S
C2704 H2690 0.960 . S
C2704 H2691 0.960 . S
C2704 C2703 1.524 . S
C2705 C2702 1.403 . S
C2705 C2706 1.392 1_455 S
C2705 C2709 1.495 . S
C2706 C2705 1.392 1_655 S
C2706 C2707 1.385 . S
C2706 C2708 1.478 . S
C2707 H2701 0.930 . S
C2707 C2703 1.400 . S
C2707 C2706 1.385 . S
C2708 C2706 1.478 . S
C2708 C2710 1.381 . S
C2708 C2714 1.383 1_655 S
C2709 C2705 1.495 . S
C2709 H2715 0.959 . S
C2709 H2716 0.961 . S
C2709 H2717 0.960 . S
C2710 C2708 1.381 . S
C2710 C2711 1.394 . S
C2710 H2718 0.930 . S
C2711 C2710 1.394 . S
C2711 C2712 1.383 . S
C2711 H2719 0.929 . S
C2712 C2711 1.383 . S
C2712 C2713 1.377 . S
C2713 H2697 0.930 1_655 S
C2713 C2712 1.377 . S
C2713 C2714 1.379 1_655 S
C2714 H2698 0.931 . S
C2714 C2708 1.383 1_455 S
C2714 C2713 1.379 1_455 S
H2715 C2709 0.959 . S
H2716 C2709 0.961 . S
H2717 C2709 0.960 . S
H2718 C2710 0.930 . S
H2719 C2711 0.929 . S
H2720 C2728 0.929 . S
H2721 C2730 0.930 . S
H2722 C2732 0.930 . S
H2723 C2735 0.929 . S
H2724 C2738 0.930 . S
H2725 C2740 0.960 . S
H2726 C2740 0.960 . S
H2727 C2740 0.960 . S
C2728 H2720 0.929 . S
C2728 C2729 1.377 . S
C2728 C2730 1.384 . S
C2729 C2728 1.377 . S
C2729 C2735 1.390 . S
C2730 H2721 0.930 . S
C2730 C2728 1.384 . S
C2730 C2731 1.372 . S
C2731 C2730 1.372 . S
C2731 C2732 1.400 . S
C2731 C2736 1.490 . S
C2732 H2722 0.930 . S
C2732 C2731 1.400 . S
C2732 C2735 1.386 . S
H2733 C2749 0.930 . S
H2734 C2750 0.931 . S
C2735 H2723 0.929 . S
C2735 C2729 1.390 . S
C2735 C2732 1.386 . S
C2736 C2731 1.490 . S
C2736 C2738 1.395 . S
C2736 C2739 1.403 . S
H2737 C2743 0.930 . S
C2738 H2724 0.930 . S
C2738 C2736 1.395 . S
C2738 C2741 1.403 1_455 S
C2739 C2736 1.403 . S
C2739 C2740 1.524 . S
C2739 C2743 1.400 1_455 S
C2740 H2725 0.960 . S
C2740 H2726 0.960 . S
C2740 H2727 0.960 . S
C2740 C2739 1.524 . S
C2741 C2738 1.403 1_655 S
C2741 C2742 1.392 . S
C2741 C2745 1.495 . S
C2742 C2741 1.392 . S
C2742 C2743 1.385 . S
C2742 C2744 1.478 . S
C2743 H2737 0.930 . S
C2743 C2739 1.400 1_655 S
C2743 C2742 1.385 . S
C2744 C2742 1.478 . S
C2744 C2746 1.381 . S
C2744 C2750 1.383 . S
C2745 C2741 1.495 . S
C2745 H2751 0.959 . S
C2745 H2752 0.961 . S
C2745 H2753 0.960 . S
C2746 C2744 1.381 . S
C2746 C2747 1.394 . S
C2746 H2754 0.930 . S
C2747 C2746 1.394 . S
C2747 C2748 1.383 . S
C2747 H2755 0.929 . S
C2748 C2747 1.383 . S
C2748 C2749 1.377 . S
C2749 H2733 0.930 . S
C2749 C2748 1.377 . S
C2749 C2750 1.379 . S
C2750 H2734 0.931 . S
C2750 C2744 1.383 . S
C2750 C2749 1.379 . S
H2751 C2745 0.959 . S
H2752 C2745 0.961 . S
H2753 C2745 0.960 . S
H2754 C2746 0.930 . S
H2755 C2747 0.929 . S
H2756 C2764 0.929 . S
H2757 C2766 0.930 . S
H2758 C2768 0.930 1_455 S
H2759 C2771 0.929 . S
H2760 C2774 0.930 . S
H2761 C2776 0.960 . S
H2762 C2776 0.960 . S
H2763 C2776 0.960 . S
C2764 H2756 0.929 . S
C2764 C2765 1.377 . S
C2764 C2766 1.384 . S
C2765 C2764 1.377 . S
C2765 C2771 1.390 . S
C2766 H2757 0.930 . S
C2766 C2764 1.384 . S
C2766 C2767 1.372 . S
C2767 C2766 1.372 . S
C2767 C2768 1.400 . S
C2767 C2772 1.490 . S
C2768 H2758 0.930 1_655 S
C2768 C2767 1.400 . S
C2768 C2771 1.386 . S
H2769 C2785 0.930 . S
H2770 C2786 0.931 . S
C2771 H2759 0.929 . S
C2771 C2765 1.390 . S
C2771 C2768 1.386 . S
C2772 C2767 1.490 . S
C2772 C2774 1.395 . S
C2772 C2775 1.403 1_655 S
H2773 C2779 0.930 . S
C2774 H2760 0.930 . S
C2774 C2772 1.395 . S
C2774 C2777 1.403 . S
C2775 C2772 1.403 1_455 S
C2775 C2776 1.524 . S
C2775 C2779 1.400 . S
C2776 H2761 0.960 . S
C2776 H2762 0.960 . S
C2776 H2763 0.960 . S
C2776 C2775 1.524 . S
C2777 C2774 1.403 . S
C2777 C2778 1.394 1_655 S
C2777 C2781 1.495 . S
C2778 C2777 1.394 1_455 S
C2778 C2779 1.384 . S
C2778 C2780 1.477 . S
C2779 H2773 0.930 . S
C2779 C2775 1.400 . S
C2779 C2778 1.384 . S
C2780 C2778 1.477 . S
C2780 C2782 1.381 . S
C2780 C2786 1.383 . S
C2781 C2777 1.495 . S
C2781 H2787 0.959 . S
C2781 H2788 0.961 . S
C2781 H2789 0.960 . S
C2782 C2780 1.381 . S
C2782 C2783 1.394 . S
C2782 H2790 0.930 1_455 S
C2783 C2782 1.394 . S
C2783 C2784 1.383 . S
C2783 H2791 0.929 . S
C2784 C2783 1.383 . S
C2784 C2785 1.377 . S
C2785 H2769 0.930 . S
C2785 C2784 1.377 . S
C2785 C2786 1.379 . S
C2786 H2770 0.931 . S
C2786 C2780 1.383 . S
C2786 C2785 1.379 . S
H2787 C2781 0.959 . S
H2788 C2781 0.961 . S
H2789 C2781 0.960 . S
H2790 C2782 0.930 1_655 S
H2791 C2783 0.929 . S
H2792 C2800 0.929 . S
H2793 C2802 0.930 . S
H2794 C2804 0.930 . S
H2795 C2807 0.929 . S
H2796 C2810 0.930 . S
H2797 C2812 0.960 . S
H2798 C2812 0.960 . S
H2799 C2812 0.960 . S
C2800 H2792 0.929 . S
C2800 C2801 1.377 . S
C2800 C2802 1.384 . S
C2801 C2800 1.377 . S
C2801 C2807 1.390 . S
C2802 H2793 0.930 . S
C2802 C2800 1.384 . S
C2802 C2803 1.372 . S
C2803 C2802 1.372 . S
C2803 C2804 1.400 . S
C2803 C2808 1.490 . S
C2804 H2794 0.930 . S
C2804 C2803 1.400 . S
C2804 C2807 1.386 . S
H2805 C2821 0.930 . S
H2806 C2822 0.931 . S
C2807 H2795 0.929 . S
C2807 C2801 1.390 . S
C2807 C2804 1.386 . S
C2808 C2803 1.490 . S
C2808 C2810 1.395 . S
C2808 C2811 1.403 . S
H2809 C2815 0.930 . S
C2810 H2796 0.930 . S
C2810 C2808 1.395 . S
C2810 C2813 1.403 . S
C2811 C2808 1.403 . S
C2811 C2812 1.524 . S
C2811 C2815 1.400 . S
C2812 H2797 0.960 . S
C2812 H2798 0.960 . S
C2812 H2799 0.960 . S
C2812 C2811 1.524 . S
C2813 C2810 1.403 . S
C2813 C2814 1.392 . S
C2813 C2817 1.495 . S
C2814 C2813 1.392 . S
C2814 C2815 1.385 . S
C2814 C2816 1.478 . S
C2815 H2809 0.930 . S
C2815 C2811 1.400 . S
C2815 C2814 1.385 . S
C2816 C2814 1.478 . S
C2816 C2818 1.381 . S
C2816 C2822 1.383 . S
C2817 C2813 1.495 . S
C2817 H2823 0.959 . S
C2817 H2824 0.961 . S
C2817 H2825 0.960 . S
C2818 C2816 1.381 . S
C2818 C2819 1.394 . S
C2818 H2826 0.930 . S
C2819 C2818 1.394 . S
C2819 C2820 1.383 . S
C2819 H2827 0.929 . S
C2820 C2819 1.383 . S
C2820 C2821 1.377 . S
C2821 H2805 0.930 . S
C2821 C2820 1.377 . S
C2821 C2822 1.379 . S
C2822 H2806 0.931 . S
C2822 C2816 1.383 . S
C2822 C2821 1.379 . S
H2823 C2817 0.959 . S
H2824 C2817 0.961 . S
H2825 C2817 0.960 . S
H2826 C2818 0.930 . S
H2827 C2819 0.929 . S
H2828 C2836 0.929 . S
H2829 C2838 0.930 . S
H2830 C2840 0.930 . S
H2831 C2843 0.929 . S
H2832 C2846 0.930 . S
H2833 C2848 0.960 . S
H2834 C2848 0.960 . S
H2835 C2848 0.960 . S
C2836 H2828 0.929 . S
C2836 C2837 1.377 . S
C2836 C2838 1.384 . S
C2837 C2836 1.377 . S
C2837 C2843 1.390 . S
C2838 H2829 0.930 . S
C2838 C2836 1.384 . S
C2838 C2839 1.372 . S
C2839 C2838 1.372 . S
C2839 C2840 1.400 . S
C2839 C2844 1.490 . S
C2840 H2830 0.930 . S
C2840 C2839 1.400 . S
C2840 C2843 1.386 . S
H2841 C2857 0.930 . S
H2842 C2858 0.931 . S
C2843 H2831 0.929 . S
C2843 C2837 1.390 . S
C2843 C2840 1.386 . S
C2844 C2839 1.490 . S
C2844 C2846 1.395 . S
C2844 C2847 1.403 . S
H2845 C2851 0.930 . S
C2846 H2832 0.930 . S
C2846 C2844 1.395 . S
C2846 C2849 1.403 . S
C2847 C2844 1.403 . S
C2847 C2848 1.524 . S
C2847 C2851 1.400 . S
C2848 H2833 0.960 . S
C2848 H2834 0.960 . S
C2848 H2835 0.960 . S
C2848 C2847 1.524 . S
C2849 C2846 1.403 . S
C2849 C2850 1.392 . S
C2849 C2853 1.495 . S
C2850 C2849 1.392 . S
C2850 C2851 1.385 . S
C2850 C2852 1.478 . S
C2851 H2845 0.930 . S
C2851 C2847 1.400 . S
C2851 C2850 1.385 . S
C2852 C2850 1.478 . S
C2852 C2854 1.381 . S
C2852 C2858 1.383 . S
C2853 C2849 1.495 . S
C2853 H2859 0.959 . S
C2853 H2860 0.961 . S
C2853 H2861 0.960 . S
C2854 C2852 1.381 . S
C2854 C2855 1.394 . S
C2854 H2862 0.930 . S
C2855 C2854 1.394 . S
C2855 C2856 1.383 . S
C2855 H2863 0.929 . S
C2856 C2855 1.383 . S
C2856 C2857 1.377 . S
C2857 H2841 0.930 . S
C2857 C2856 1.377 . S
C2857 C2858 1.379 . S
C2858 H2842 0.931 . S
C2858 C2852 1.383 . S
C2858 C2857 1.379 . S
H2859 C2853 0.959 . S
H2860 C2853 0.961 . S
H2861 C2853 0.960 . S
H2862 C2854 0.930 . S
H2863 C2855 0.929 . S
H2864 C2872 0.929 . S
H2865 C2874 0.930 . S
H2866 C2876 0.930 . S
H2867 C2879 0.929 . S
H2868 C2882 0.930 . S
H2869 C2884 0.960 . S
H2870 C2884 0.960 . S
H2871 C2884 0.960 . S
C2872 H2864 0.929 . S
C2872 C2873 1.377 . S
C2872 C2874 1.384 . S
C2873 C2872 1.377 . S
C2873 C2879 1.390 . S
C2874 H2865 0.930 . S
C2874 C2872 1.384 . S
C2874 C2875 1.372 . S
C2875 C2874 1.372 . S
C2875 C2876 1.400 . S
C2875 C2880 1.490 . S
C2876 H2866 0.930 . S
C2876 C2875 1.400 . S
C2876 C2879 1.386 . S
H2877 C2893 0.930 . S
H2878 C2894 0.931 . S
C2879 H2867 0.929 . S
C2879 C2873 1.390 . S
C2879 C2876 1.386 . S
C2880 C2875 1.490 . S
C2880 C2882 1.395 . S
C2880 C2883 1.403 . S
H2881 C2887 0.930 . S
C2882 H2868 0.930 . S
C2882 C2880 1.395 . S
C2882 C2885 1.403 1_455 S
C2883 C2880 1.403 . S
C2883 C2884 1.524 . S
C2883 C2887 1.400 1_455 S
C2884 H2869 0.960 . S
C2884 H2870 0.960 . S
C2884 H2871 0.960 . S
C2884 C2883 1.524 . S
C2885 C2882 1.403 1_655 S
C2885 C2886 1.392 . S
C2885 C2889 1.495 . S
C2886 C2885 1.392 . S
C2886 C2887 1.385 . S
C2886 C2888 1.478 . S
C2887 H2881 0.930 . S
C2887 C2883 1.400 1_655 S
C2887 C2886 1.385 . S
C2888 C2886 1.478 . S
C2888 C2890 1.381 . S
C2888 C2894 1.383 . S
C2889 C2885 1.495 . S
C2889 H2895 0.959 . S
C2889 H2896 0.961 . S
C2889 H2897 0.960 . S
C2890 C2888 1.381 . S
C2890 C2891 1.394 . S
C2890 H2898 0.930 . S
C2891 C2890 1.394 . S
C2891 C2892 1.383 . S
C2891 H2899 0.929 . S
C2892 C2891 1.383 . S
C2892 C2893 1.377 . S
C2893 H2877 0.930 . S
C2893 C2892 1.377 . S
C2893 C2894 1.379 . S
C2894 H2878 0.931 . S
C2894 C2888 1.383 . S
C2894 C2893 1.379 . S
H2895 C2889 0.959 . S
H2896 C2889 0.961 . S
H2897 C2889 0.960 . S
H2898 C2890 0.930 . S
H2899 C2891 0.929 . S
H2900 C2908 0.929 . S
H2901 C2910 0.930 . S
H2902 C2912 0.930 . S
H2903 C2915 0.929 . S
H2904 C2918 0.930 . S
H2905 C2920 0.960 . S
H2906 C2920 0.960 . S
H2907 C2920 0.960 . S
C2908 H2900 0.929 . S
C2908 C2909 1.377 . S
C2908 C2910 1.384 . S
C2909 C2908 1.377 . S
C2909 C2915 1.390 . S
C2910 H2901 0.930 . S
C2910 C2908 1.384 . S
C2910 C2911 1.372 . S
C2911 C2910 1.372 . S
C2911 C2912 1.400 . S
C2911 C2916 1.490 . S
C2912 H2902 0.930 . S
C2912 C2911 1.400 . S
C2912 C2915 1.386 . S
H2913 C2929 0.930 . S
H2914 C2930 0.931 . S
C2915 H2903 0.929 . S
C2915 C2909 1.390 . S
C2915 C2912 1.386 . S
C2916 C2911 1.490 . S
C2916 C2918 1.395 . S
C2916 C2919 1.403 . S
H2917 C2923 0.930 . S
C2918 H2904 0.930 . S
C2918 C2916 1.395 . S
C2918 C2921 1.403 . S
C2919 C2916 1.403 . S
C2919 C2920 1.524 . S
C2919 C2923 1.400 . S
C2920 H2905 0.960 . S
C2920 H2906 0.960 . S
C2920 H2907 0.960 . S
C2920 C2919 1.524 . S
C2921 C2918 1.403 . S
C2921 C2922 1.392 . S
C2921 C2925 1.495 . S
C2922 C2921 1.392 . S
C2922 C2923 1.385 . S
C2922 C2924 1.478 . S
C2923 H2917 0.930 . S
C2923 C2919 1.400 . S
C2923 C2922 1.385 . S
C2924 C2922 1.478 . S
C2924 C2926 1.381 . S
C2924 C2930 1.383 . S
C2925 C2921 1.495 . S
C2925 H2931 0.959 . S
C2925 H2932 0.961 . S
C2925 H2933 0.960 . S
C2926 C2924 1.381 . S
C2926 C2927 1.394 . S
C2926 H2934 0.930 . S
C2927 C2926 1.394 . S
C2927 C2928 1.383 . S
C2927 H2935 0.929 . S
C2928 C2927 1.383 . S
C2928 C2929 1.377 . S
C2929 H2913 0.930 . S
C2929 C2928 1.377 . S
C2929 C2930 1.379 . S
C2930 H2914 0.931 . S
C2930 C2924 1.383 . S
C2930 C2929 1.379 . S
H2931 C2925 0.959 . S
H2932 C2925 0.961 . S
H2933 C2925 0.960 . S
H2934 C2926 0.930 . S
H2935 C2927 0.929 . S
H2936 C2944 0.929 . S
H2937 C2946 0.930 . S
H2938 C2948 0.930 . S
H2939 C2951 0.929 . S
H2940 C2954 0.930 . S
H2941 C2956 0.960 . S
H2942 C2956 0.960 . S
H2943 C2956 0.960 . S
C2944 H2936 0.929 . S
C2944 C2945 1.377 . S
C2944 C2946 1.384 . S
C2945 C2944 1.377 . S
C2945 C2951 1.390 . S
C2946 H2937 0.930 . S
C2946 C2944 1.384 . S
C2946 C2947 1.372 . S
C2947 C2946 1.372 . S
C2947 C2948 1.400 . S
C2947 C2952 1.490 . S
C2948 H2938 0.930 . S
C2948 C2947 1.400 . S
C2948 C2951 1.386 . S
H2949 C2965 0.930 . S
H2950 C2966 0.931 . S
C2951 H2939 0.929 . S
C2951 C2945 1.390 . S
C2951 C2948 1.386 . S
C2952 C2947 1.490 . S
C2952 C2954 1.395 . S
C2952 C2955 1.403 . S
H2953 C2959 0.930 . S
C2954 H2940 0.930 . S
C2954 C2952 1.395 . S
C2954 C2957 1.403 . S
C2955 C2952 1.403 . S
C2955 C2956 1.524 . S
C2955 C2959 1.400 . S
C2956 H2941 0.960 . S
C2956 H2942 0.960 . S
C2956 H2943 0.960 . S
C2956 C2955 1.524 . S
C2957 C2954 1.403 . S
C2957 C2958 1.392 . S
C2957 C2961 1.495 . S
C2958 C2957 1.392 . S
C2958 C2959 1.385 . S
C2958 C2960 1.478 . S
C2959 H2953 0.930 . S
C2959 C2955 1.400 . S
C2959 C2958 1.385 . S
C2960 C2958 1.478 . S
C2960 C2962 1.381 . S
C2960 C2966 1.383 . S
C2961 C2957 1.495 . S
C2961 H2967 0.959 . S
C2961 H2968 0.961 . S
C2961 H2969 0.960 . S
C2962 C2960 1.381 . S
C2962 C2963 1.394 . S
C2962 H2970 0.930 . S
C2963 C2962 1.394 . S
C2963 C2964 1.383 . S
C2963 H2971 0.929 . S
C2964 C2963 1.383 . S
C2964 C2965 1.377 . S
C2965 H2949 0.930 . S
C2965 C2964 1.377 . S
C2965 C2966 1.379 . S
C2966 H2950 0.931 . S
C2966 C2960 1.383 . S
C2966 C2965 1.379 . S
H2967 C2961 0.959 . S
H2968 C2961 0.961 . S
H2969 C2961 0.960 . S
H2970 C2962 0.930 . S
H2971 C2963 0.929 . S
H2972 C2980 0.929 . S
H2973 C2982 0.930 . S
H2974 C2984 0.930 . S
H2975 C2987 0.929 . S
H2976 C2990 0.930 . S
H2977 C2992 0.960 1_455 S
H2978 C2992 0.960 . S
H2979 C2992 0.960 1_455 S
C2980 H2972 0.929 . S
C2980 C2981 1.377 . S
C2980 C2982 1.384 . S
C2981 C2980 1.377 . S
C2981 C2987 1.390 1_655 S
C2982 H2973 0.930 . S
C2982 C2980 1.384 . S
C2982 C2983 1.372 . S
C2983 C2982 1.372 . S
C2983 C2984 1.400 1_655 S
C2983 C2988 1.490 . S
C2984 H2974 0.930 . S
C2984 C2983 1.400 1_455 S
C2984 C2987 1.386 . S
H2985 C3001 0.930 . S
H2986 C3002 0.931 . S
C2987 H2975 0.929 . S
C2987 C2981 1.390 1_455 S
C2987 C2984 1.386 . S
C2988 C2983 1.490 . S
C2988 C2990 1.395 . S
C2988 C2991 1.403 . S
H2989 C2995 0.930 . S
C2990 H2976 0.930 . S
C2990 C2988 1.395 . S
C2990 C2993 1.403 . S
C2991 C2988 1.403 . S
C2991 C2992 1.524 . S
C2991 C2995 1.400 1_655 S
C2992 H2977 0.960 1_655 S
C2992 H2978 0.960 . S
C2992 H2979 0.960 1_655 S
C2992 C2991 1.524 . S
C2993 C2990 1.403 . S
C2993 C2994 1.392 1_655 S
C2993 C2997 1.495 . S
C2994 C2993 1.392 1_455 S
C2994 C2995 1.385 . S
C2994 C2996 1.478 . S
C2995 H2989 0.930 . S
C2995 C2991 1.400 1_455 S
C2995 C2994 1.385 . S
C2996 C2994 1.478 . S
C2996 C2998 1.381 1_455 S
C2996 C3002 1.383 . S
C2997 C2993 1.495 . S
C2997 H3003 0.959 . S
C2997 H3004 0.961 1_655 S
C2997 H3005 0.960 . S
C2998 C2996 1.381 1_655 S
C2998 C2999 1.394 . S
C2998 H3006 0.930 . S
C2999 C2998 1.394 . S
C2999 C3000 1.383 1_655 S
C2999 H3007 0.929 . S
C3000 C2999 1.383 1_455 S
C3000 C3001 1.377 . S
C3001 H2985 0.930 . S
C3001 C3000 1.377 . S
C3001 C3002 1.379 . S
C3002 H2986 0.931 . S
C3002 C2996 1.383 . S
C3002 C3001 1.379 . S
H3003 C2997 0.959 . S
H3004 C2997 0.961 1_455 S
H3005 C2997 0.960 . S
H3006 C2998 0.930 . S
H3007 C2999 0.929 . S
H3008 C3016 0.929 . S
H3009 C3018 0.930 . S
H3010 C3020 0.930 . S
H3011 C3023 0.929 . S
H3012 C3026 0.930 . S
H3013 C3028 0.960 . S
H3014 C3028 0.960 . S
H3015 C3028 0.960 . S
C3016 H3008 0.929 . S
C3016 C3017 1.377 . S
C3016 C3018 1.384 . S
C3017 C3016 1.377 . S
C3017 C3023 1.390 . S
C3018 H3009 0.930 . S
C3018 C3016 1.384 . S
C3018 C3019 1.372 . S
C3019 C3018 1.372 . S
C3019 C3020 1.400 . S
C3019 C3024 1.490 . S
C3020 H3010 0.930 . S
C3020 C3019 1.400 . S
C3020 C3023 1.386 . S
H3021 C3037 0.930 . S
H3022 C3038 0.931 . S
C3023 H3011 0.929 . S
C3023 C3017 1.390 . S
C3023 C3020 1.386 . S
C3024 C3019 1.490 . S
C3024 C3026 1.395 . S
C3024 C3027 1.403 . S
H3025 C3031 0.930 . S
C3026 H3012 0.930 . S
C3026 C3024 1.395 . S
C3026 C3029 1.403 . S
C3027 C3024 1.403 . S
C3027 C3028 1.524 . S
C3027 C3031 1.400 . S
C3028 H3013 0.960 . S
C3028 H3014 0.960 . S
C3028 H3015 0.960 . S
C3028 C3027 1.524 . S
C3029 C3026 1.403 . S
C3029 C3030 1.392 . S
C3029 C3033 1.495 . S
C3030 C3029 1.392 . S
C3030 C3031 1.385 . S
C3030 C3032 1.478 . S
C3031 H3025 0.930 . S
C3031 C3027 1.400 . S
C3031 C3030 1.385 . S
C3032 C3030 1.478 . S
C3032 C3034 1.381 . S
C3032 C3038 1.383 . S
C3033 C3029 1.495 . S
C3033 H3039 0.959 . S
C3033 H3040 0.961 . S
C3033 H3041 0.960 . S
C3034 C3032 1.381 . S
C3034 C3035 1.394 . S
C3034 H3042 0.930 . S
C3035 C3034 1.394 . S
C3035 C3036 1.383 . S
C3035 H3043 0.929 . S
C3036 C3035 1.383 . S
C3036 C3037 1.377 . S
C3037 H3021 0.930 . S
C3037 C3036 1.377 . S
C3037 C3038 1.379 . S
C3038 H3022 0.931 . S
C3038 C3032 1.383 . S
C3038 C3037 1.379 . S
H3039 C3033 0.959 . S
H3040 C3033 0.961 . S
H3041 C3033 0.960 . S
H3042 C3034 0.930 . S
H3043 C3035 0.929 . S
H3044 C3052 0.922 1_465 S
H3045 C3054 0.906 1_455 S
H3046 C3056 0.930 . S
H3047 C3059 0.929 . S
H3048 C3062 0.930 . S
H3049 C3064 0.960 . S
H3050 C3064 0.960 . S
H3051 C3064 0.940 1_545 S
C3052 H3044 0.922 1_645 S
C3052 C3053 1.377 . S
C3052 C3054 1.393 1_545 S
C3053 C3052 1.377 . S
C3053 C3059 1.390 . S
C3054 H3045 0.906 1_655 S
C3054 C3052 1.393 1_565 S
C3054 C3055 1.388 1_565 S
C3055 C3054 1.388 1_545 S
C3055 C3056 1.400 . S
C3055 C3060 1.490 . S
C3056 H3046 0.930 . S
C3056 C3055 1.400 . S
C3056 C3059 1.386 . S
H3057 C3073 0.955 . S
H3058 C3074 0.931 1_655 S
C3059 H3047 0.929 . S
C3059 C3053 1.390 . S
C3059 C3056 1.386 . S
C3060 C3055 1.490 . S
C3060 C3062 1.395 1_655 S
C3060 C3063 1.403 1_545 S
H3061 C3067 0.930 . S
C3062 H3048 0.930 . S
C3062 C3060 1.395 1_455 S
C3062 C3065 1.403 . S
C3063 C3060 1.403 1_565 S
C3063 C3064 1.524 . S
C3063 C3067 1.400 . S
C3064 H3049 0.960 . S
C3064 H3050 0.960 . S
C3064 H3051 0.940 1_565 S
C3064 C3063 1.524 . S
C3065 C3062 1.403 . S
C3065 C3066 1.392 1_545 S
C3065 C3069 1.495 . S
C3066 C3065 1.392 1_565 S
C3066 C3067 1.385 1_455 S
C3066 C3068 1.478 . S
C3067 H3061 0.930 . S
C3067 C3063 1.400 . S
C3067 C3066 1.385 1_655 S
C3068 C3066 1.478 . S
C3068 C3070 1.381 . S
C3068 C3074 1.383 1_565 S
C3069 C3065 1.495 . S
C3069 H3075 0.959 . S
C3069 H3076 0.961 . S
C3069 H3077 0.960 1_545 S
C3070 C3068 1.381 . S
C3070 C3071 1.394 . S
C3070 H3078 0.930 . S
C3071 C3070 1.394 . S
C3071 C3072 1.383 . S
C3071 H3079 0.929 . S
C3072 C3071 1.383 . S
C3072 C3073 1.344 1_565 S
C3073 H3057 0.955 . S
C3073 C3072 1.344 1_545 S
C3073 C3074 1.389 . S
C3074 H3058 0.931 1_455 S
C3074 C3068 1.383 1_545 S
C3074 C3073 1.389 . S
H3075 C3069 0.959 . S
H3076 C3069 0.961 . S
H3077 C3069 0.960 1_565 S
H3078 C3070 0.930 . S
H3079 C3071 0.929 . S
H3080 C3088 0.929 . S
H3081 C3090 0.930 . S
H3082 C3092 0.930 . S
H3083 C3095 0.929 . S
H3084 C3098 0.930 . S
H3085 C3100 0.960 . S
H3086 C3100 0.960 . S
H3087 C3100 0.960 . S
C3088 H3080 0.929 . S
C3088 C3089 1.377 . S
C3088 C3090 1.384 . S
C3089 C3088 1.377 . S
C3089 C3095 1.390 . S
C3090 H3081 0.930 . S
C3090 C3088 1.384 . S
C3090 C3091 1.372 . S
C3091 C3090 1.372 . S
C3091 C3092 1.400 . S
C3091 C3096 1.490 . S
C3092 H3082 0.930 . S
C3092 C3091 1.400 . S
C3092 C3095 1.386 . S
H3093 C3109 0.930 . S
H3094 C3110 0.931 . S
C3095 H3083 0.929 . S
C3095 C3089 1.390 . S
C3095 C3092 1.386 . S
C3096 C3091 1.490 . S
C3096 C3098 1.395 . S
C3096 C3099 1.403 . S
H3097 C3103 0.930 . S
C3098 H3084 0.930 . S
C3098 C3096 1.395 . S
C3098 C3101 1.403 . S
C3099 C3096 1.403 . S
C3099 C3100 1.524 . S
C3099 C3103 1.400 . S
C3100 H3085 0.960 . S
C3100 H3086 0.960 . S
C3100 H3087 0.960 . S
C3100 C3099 1.524 . S
C3101 C3098 1.403 . S
C3101 C3102 1.392 . S
C3101 C3105 1.495 . S
C3102 C3101 1.392 . S
C3102 C3103 1.385 . S
C3102 C3104 1.478 . S
C3103 H3097 0.930 . S
C3103 C3099 1.400 . S
C3103 C3102 1.385 . S
C3104 C3102 1.478 . S
C3104 C3106 1.381 . S
C3104 C3110 1.383 . S
C3105 C3101 1.495 . S
C3105 H3111 0.959 . S
C3105 H3112 0.961 . S
C3105 H3113 0.960 . S
C3106 C3104 1.381 . S
C3106 C3107 1.394 . S
C3106 H3114 0.930 . S
C3107 C3106 1.394 . S
C3107 C3108 1.383 . S
C3107 H3115 0.929 . S
C3108 C3107 1.383 . S
C3108 C3109 1.377 . S
C3109 H3093 0.930 . S
C3109 C3108 1.377 . S
C3109 C3110 1.379 . S
C3110 H3094 0.931 . S
C3110 C3104 1.383 . S
C3110 C3109 1.379 . S
H3111 C3105 0.959 . S
H3112 C3105 0.961 . S
H3113 C3105 0.960 . S
H3114 C3106 0.930 . S
H3115 C3107 0.929 . S
H3116 C3124 0.929 . S
H3117 C3126 0.930 . S
H3118 C3128 0.930 . S
H3119 C3131 0.929 . S
H3120 C3134 0.930 . S
H3121 C3136 0.960 . S
H3122 C3136 0.960 . S
H3123 C3136 0.960 . S
C3124 H3116 0.929 . S
C3124 C3125 1.377 . S
C3124 C3126 1.384 . S
C3125 C3124 1.377 . S
C3125 C3131 1.390 1_545 S
C3126 H3117 0.930 . S
C3126 C3124 1.384 . S
C3126 C3127 1.372 . S
C3127 C3126 1.372 . S
C3127 C3128 1.400 1_545 S
C3127 C3132 1.490 . S
C3128 H3118 0.930 . S
C3128 C3127 1.400 1_565 S
C3128 C3131 1.386 . S
H3129 C3145 0.930 . S
H3130 C3146 0.931 . S
C3131 H3119 0.929 . S
C3131 C3125 1.390 1_565 S
C3131 C3128 1.386 . S
C3132 C3127 1.490 . S
C3132 C3134 1.395 . S
C3132 C3135 1.403 1_545 S
H3133 C3139 0.930 . S
C3134 H3120 0.930 . S
C3134 C3132 1.395 . S
C3134 C3137 1.403 1_554 S
C3135 C3132 1.403 1_565 S
C3135 C3136 1.524 . S
C3135 C3139 1.400 1_554 S
C3136 H3121 0.960 . S
C3136 H3122 0.960 . S
C3136 H3123 0.960 . S
C3136 C3135 1.524 . S
C3137 C3134 1.403 1_556 S
C3137 C3138 1.393 1_545 S
C3137 C3141 1.495 . S
C3138 C3137 1.393 1_565 S
C3138 C3139 1.385 . S
C3138 C3140 1.477 . S
C3139 H3133 0.930 . S
C3139 C3135 1.400 1_556 S
C3139 C3138 1.385 . S
C3140 C3138 1.477 . S
C3140 C3142 1.381 1_565 S
C3140 C3146 1.383 . S
C3141 C3137 1.495 . S
C3141 H3147 0.959 . S
C3141 H3148 0.961 . S
C3141 H3149 0.960 . S
C3142 C3140 1.381 1_545 S
C3142 C3143 1.394 . S
C3142 H3150 0.930 . S
C3143 C3142 1.394 . S
C3143 C3144 1.383 1_545 S
C3143 H3151 0.929 . S
C3144 C3143 1.383 1_565 S
C3144 C3145 1.377 . S
C3145 H3129 0.930 . S
C3145 C3144 1.377 . S
C3145 C3146 1.379 . S
C3146 H3130 0.931 . S
C3146 C3140 1.383 . S
C3146 C3145 1.379 . S
H3147 C3141 0.959 . S
H3148 C3141 0.961 . S
H3149 C3141 0.960 . S
H3150 C3142 0.930 . S
H3151 C3143 0.929 . S
H3152 C3160 0.929 . S
H3153 C3162 0.930 . S
H3154 C3164 0.930 . S
H3155 C3167 0.929 . S
H3156 C3170 0.930 . S
H3157 C3172 0.960 . S
H3158 C3172 0.960 . S
H3159 C3172 0.960 . S
C3160 H3152 0.929 . S
C3160 C3161 1.377 . S
C3160 C3162 1.384 . S
C3161 C3160 1.377 . S
C3161 C3167 1.390 . S
C3162 H3153 0.930 . S
C3162 C3160 1.384 . S
C3162 C3163 1.372 . S
C3163 C3162 1.372 . S
C3163 C3164 1.400 . S
C3163 C3168 1.490 . S
C3164 H3154 0.930 . S
C3164 C3163 1.400 . S
C3164 C3167 1.386 . S
H3165 C3181 0.930 . S
H3166 C3182 0.931 . S
C3167 H3155 0.929 . S
C3167 C3161 1.390 . S
C3167 C3164 1.386 . S
C3168 C3163 1.490 . S
C3168 C3170 1.395 . S
C3168 C3171 1.403 . S
H3169 C3175 0.930 . S
C3170 H3156 0.930 . S
C3170 C3168 1.395 . S
C3170 C3173 1.403 . S
C3171 C3168 1.403 . S
C3171 C3172 1.524 . S
C3171 C3175 1.400 . S
C3172 H3157 0.960 . S
C3172 H3158 0.960 . S
C3172 H3159 0.960 . S
C3172 C3171 1.524 . S
C3173 C3170 1.403 . S
C3173 C3174 1.392 . S
C3173 C3177 1.495 . S
C3174 C3173 1.392 . S
C3174 C3175 1.385 . S
C3174 C3176 1.478 . S
C3175 H3169 0.930 . S
C3175 C3171 1.400 . S
C3175 C3174 1.385 . S
C3176 C3174 1.478 . S
C3176 C3178 1.381 . S
C3176 C3182 1.383 . S
C3177 C3173 1.495 . S
C3177 H3183 0.959 . S
C3177 H3184 0.961 . S
C3177 H3185 0.960 . S
C3178 C3176 1.381 . S
C3178 C3179 1.394 . S
C3178 H3186 0.930 . S
C3179 C3178 1.394 . S
C3179 C3180 1.383 . S
C3179 H3187 0.929 . S
C3180 C3179 1.383 . S
C3180 C3181 1.377 . S
C3181 H3165 0.930 . S
C3181 C3180 1.377 . S
C3181 C3182 1.379 . S
C3182 H3166 0.931 . S
C3182 C3176 1.383 . S
C3182 C3181 1.379 . S
H3183 C3177 0.959 . S
H3184 C3177 0.961 . S
H3185 C3177 0.960 . S
H3186 C3178 0.930 . S
H3187 C3179 0.929 . S
H3188 C3196 0.929 . S
H3189 C3198 0.930 . S
H3190 C3200 0.930 1_565 S
H3191 C3203 0.929 . S
H3192 C3206 0.930 . S
H3193 C3208 0.960 . S
H3194 C3208 0.960 . S
H3195 C3208 0.960 . S
C3196 H3188 0.929 . S
C3196 C3197 1.377 . S
C3196 C3198 1.384 . S
C3197 C3196 1.377 . S
C3197 C3203 1.390 . S
C3198 H3189 0.930 . S
C3198 C3196 1.384 . S
C3198 C3199 1.372 . S
C3199 C3198 1.372 . S
C3199 C3200 1.400 . S
C3199 C3204 1.490 . S
C3200 H3190 0.930 1_545 S
C3200 C3199 1.400 . S
C3200 C3203 1.386 . S
H3201 C3217 0.930 . S
H3202 C3218 0.931 . S
C3203 H3191 0.929 . S
C3203 C3197 1.390 . S
C3203 C3200 1.386 . S
C3204 C3199 1.490 . S
C3204 C3206 1.395 1_545 S
C3204 C3207 1.403 . S
H3205 C3211 0.930 . S
C3206 H3192 0.930 . S
C3206 C3204 1.395 1_565 S
C3206 C3209 1.403 . S
C3207 C3204 1.403 . S
C3207 C3208 1.524 . S
C3207 C3211 1.400 . S
C3208 H3193 0.960 . S
C3208 H3194 0.960 . S
C3208 H3195 0.960 . S
C3208 C3207 1.524 . S
C3209 C3206 1.403 . S
C3209 C3210 1.392 . S
C3209 C3213 1.495 . S
C3210 C3209 1.392 . S
C3210 C3211 1.385 1_565 S
C3210 C3212 1.478 . S
C3211 H3205 0.930 . S
C3211 C3207 1.400 . S
C3211 C3210 1.385 1_545 S
C3212 C3210 1.478 . S
C3212 C3214 1.381 . S
C3212 C3218 1.383 . S
C3213 C3209 1.495 . S
C3213 H3219 0.959 . S
C3213 H3220 0.961 . S
C3213 H3221 0.960 . S
C3214 C3212 1.381 . S
C3214 C3215 1.394 . S
C3214 H3222 0.930 1_565 S
C3215 C3214 1.394 . S
C3215 C3216 1.383 . S
C3215 H3223 0.939 . S
C3216 C3215 1.383 . S
C3216 C3217 1.377 . S
C3217 H3201 0.930 . S
C3217 C3216 1.377 . S
C3217 C3218 1.379 . S
C3218 H3202 0.931 . S
C3218 C3212 1.383 . S
C3218 C3217 1.379 . S
H3219 C3213 0.959 . S
H3220 C3213 0.961 . S
H3221 C3213 0.960 . S
H3222 C3214 0.930 1_545 S
H3223 C3215 0.939 . S
H3224 C3232 0.929 . S
H3225 C3234 0.930 . S
H3226 C3236 0.930 . S
H3227 C3239 0.929 . S
H3228 C3242 0.930 . S
H3229 C3244 0.960 . S
H3230 C3244 0.960 . S
H3231 C3244 0.960 . S
C3232 H3224 0.929 . S
C3232 C3233 1.377 . S
C3232 C3234 1.384 . S
C3233 C3232 1.377 . S
C3233 C3239 1.390 . S
C3234 H3225 0.930 . S
C3234 C3232 1.384 . S
C3234 C3235 1.372 . S
C3235 C3234 1.372 . S
C3235 C3236 1.400 . S
C3235 C3240 1.490 . S
C3236 H3226 0.930 . S
C3236 C3235 1.400 . S
C3236 C3239 1.386 . S
H3237 C3253 0.930 . S
H3238 C3254 0.931 . S
C3239 H3227 0.929 . S
C3239 C3233 1.390 . S
C3239 C3236 1.386 . S
C3240 C3235 1.490 . S
C3240 C3242 1.395 . S
C3240 C3243 1.403 . S
H3241 C3247 0.930 . S
C3242 H3228 0.930 . S
C3242 C3240 1.395 . S
C3242 C3245 1.403 . S
C3243 C3240 1.403 . S
C3243 C3244 1.524 . S
C3243 C3247 1.400 . S
C3244 H3229 0.960 . S
C3244 H3230 0.960 . S
C3244 H3231 0.960 . S
C3244 C3243 1.524 . S
C3245 C3242 1.403 . S
C3245 C3246 1.392 . S
C3245 C3249 1.495 . S
C3246 C3245 1.392 . S
C3246 C3247 1.385 . S
C3246 C3248 1.478 . S
C3247 H3241 0.930 . S
C3247 C3243 1.400 . S
C3247 C3246 1.385 . S
C3248 C3246 1.478 . S
C3248 C3250 1.381 . S
C3248 C3254 1.383 . S
C3249 C3245 1.495 . S
C3249 H3255 0.959 . S
C3249 H3256 0.961 . S
C3249 H3257 0.960 . S
C3250 C3248 1.381 . S
C3250 C3251 1.394 . S
C3250 H3258 0.930 . S
C3251 C3250 1.394 . S
C3251 C3252 1.383 . S
C3251 H3259 0.929 . S
C3252 C3251 1.383 . S
C3252 C3253 1.377 . S
C3253 H3237 0.930 . S
C3253 C3252 1.377 . S
C3253 C3254 1.379 . S
C3254 H3238 0.931 . S
C3254 C3248 1.383 . S
C3254 C3253 1.379 . S
H3255 C3249 0.959 . S
H3256 C3249 0.961 . S
H3257 C3249 0.960 . S
H3258 C3250 0.930 . S
H3259 C3251 0.929 . S
H3260 C3268 0.929 . S
H3261 C3270 0.930 . S
H3262 C3272 0.930 1_655 S
H3263 C3275 0.929 1_665 S
H3264 C3278 0.933 . S
H3265 C3280 0.960 . S
H3266 C3280 0.960 . S
H3267 C3280 0.960 . S
C3268 H3260 0.929 . S
C3268 C3269 1.377 . S
C3268 C3270 1.384 . S
C3269 C3268 1.377 . S
C3269 C3275 1.390 . S
C3270 H3261 0.930 . S
C3270 C3268 1.384 . S
C3270 C3271 1.372 . S
C3271 C3270 1.372 . S
C3271 C3272 1.400 1_545 S
C3271 C3276 1.490 . S
C3272 H3262 0.930 1_455 S
C3272 C3271 1.400 1_565 S
C3272 C3275 1.386 1_565 S
H3273 C3289 0.930 . S
H3274 C3290 0.931 . S
C3275 H3263 0.929 1_445 S
C3275 C3269 1.390 . S
C3275 C3272 1.386 1_545 S
C3276 C3271 1.490 . S
C3276 C3278 1.381 1_455 S
C3276 C3279 1.403 1_545 S
H3277 C3283 0.930 . S
C3278 H3264 0.933 . S
C3278 C3276 1.381 1_655 S
C3278 C3281 1.417 1_556 S
C3279 C3276 1.403 1_565 S
C3279 C3280 1.524 . S
C3279 C3283 1.400 1_556 S
C3280 H3265 0.960 . S
C3280 H3266 0.960 . S
C3280 H3267 0.960 . S
C3280 C3279 1.524 . S
C3281 C3278 1.417 1_554 S
C3281 C3282 1.406 . S
C3281 C3285 1.495 . S
C3282 C3281 1.406 . S
C3282 C3283 1.373 1_645 S
C3282 C3284 1.475 1_545 S
C3283 H3277 0.930 . S
C3283 C3279 1.400 1_554 S
C3283 C3282 1.373 1_465 S
C3284 C3282 1.475 1_565 S
C3284 C3286 1.396 1_565 S
C3284 C3290 1.383 . S
C3285 C3281 1.495 . S
C3285 H3291 0.959 . S
C3285 H3292 0.961 . S
C3285 H3293 0.960 . S
C3286 C3284 1.396 1_545 S
C3286 C3287 1.401 1_545 S
C3286 H3294 0.909 1_655 S
C3287 C3286 1.401 1_565 S
C3287 C3288 1.383 . S
C3287 H3295 0.929 1_665 S
C3288 C3287 1.383 . S
C3288 C3289 1.377 . S
C3289 H3273 0.930 . S
C3289 C3288 1.377 . S
C3289 C3290 1.379 . S
C3290 H3274 0.931 . S
C3290 C3284 1.383 . S
C3290 C3289 1.379 . S
H3291 C3285 0.959 . S
H3292 C3285 0.961 . S
H3293 C3285 0.960 . S
H3294 C3286 0.909 1_455 S
H3295 C3287 0.929 1_445 S
H3296 C3304 0.929 . S
H3297 C3306 0.930 . S
H3298 C3308 0.930 . S
H3299 C3311 0.929 . S
H3300 C3314 0.930 . S
H3301 C3316 0.960 . S
H3302 C3316 0.960 . S
H3303 C3316 0.960 . S
C3304 H3296 0.929 . S
C3304 C3305 1.377 . S
C3304 C3306 1.384 . S
C3305 C3304 1.377 . S
C3305 C3311 1.390 . S
C3306 H3297 0.930 . S
C3306 C3304 1.384 . S
C3306 C3307 1.372 . S
C3307 C3306 1.372 . S
C3307 C3308 1.400 . S
C3307 C3312 1.490 . S
C3308 H3298 0.930 . S
C3308 C3307 1.400 . S
C3308 C3311 1.386 . S
H3309 C3325 0.930 . S
H3310 C3326 0.931 . S
C3311 H3299 0.929 . S
C3311 C3305 1.390 . S
C3311 C3308 1.386 . S
C3312 C3307 1.490 . S
C3312 C3314 1.395 . S
C3312 C3315 1.403 . S
H3313 C3319 0.930 . S
C3314 H3300 0.930 . S
C3314 C3312 1.395 . S
C3314 C3317 1.403 . S
C3315 C3312 1.403 . S
C3315 C3316 1.524 . S
C3315 C3319 1.400 . S
C3316 H3301 0.960 . S
C3316 H3302 0.960 . S
C3316 H3303 0.960 . S
C3316 C3315 1.524 . S
C3317 C3314 1.403 . S
C3317 C3318 1.392 . S
C3317 C3321 1.495 . S
C3318 C3317 1.392 . S
C3318 C3319 1.385 . S
C3318 C3320 1.478 . S
C3319 H3313 0.930 . S
C3319 C3315 1.400 . S
C3319 C3318 1.385 . S
C3320 C3318 1.478 . S
C3320 C3322 1.381 . S
C3320 C3326 1.383 . S
C3321 C3317 1.495 . S
C3321 H3327 0.959 . S
C3321 H3328 0.961 . S
C3321 H3329 0.960 . S
C3322 C3320 1.381 . S
C3322 C3323 1.394 . S
C3322 H3330 0.930 . S
C3323 C3322 1.394 . S
C3323 C3324 1.383 . S
C3323 H3331 0.929 . S
C3324 C3323 1.383 . S
C3324 C3325 1.377 . S
C3325 H3309 0.930 . S
C3325 C3324 1.377 . S
C3325 C3326 1.379 . S
C3326 H3310 0.931 . S
C3326 C3320 1.383 . S
C3326 C3325 1.379 . S
H3327 C3321 0.959 . S
H3328 C3321 0.961 . S
H3329 C3321 0.960 . S
H3330 C3322 0.930 . S
H3331 C3323 0.929 . S
H3332 C3340 0.929 . S
H3333 C3342 0.930 . S
H3334 C3344 0.930 . S
H3335 C3347 0.929 . S
H3336 C3350 0.930 . S
H3337 C3352 0.960 . S
H3338 C3352 0.960 . S
H3339 C3352 0.960 . S
C3340 H3332 0.929 . S
C3340 C3341 1.377 . S
C3340 C3342 1.384 . S
C3341 C3340 1.377 . S
C3341 C3347 1.390 . S
C3342 H3333 0.930 . S
C3342 C3340 1.384 . S
C3342 C3343 1.372 . S
C3343 C3342 1.372 . S
C3343 C3344 1.400 . S
C3343 C3348 1.490 . S
C3344 H3334 0.930 . S
C3344 C3343 1.400 . S
C3344 C3347 1.386 . S
H3345 C3361 0.930 . S
H3346 C3362 0.931 . S
C3347 H3335 0.929 . S
C3347 C3341 1.390 . S
C3347 C3344 1.386 . S
C3348 C3343 1.490 . S
C3348 C3350 1.395 . S
C3348 C3351 1.403 . S
H3349 C3355 0.930 . S
C3350 H3336 0.930 . S
C3350 C3348 1.395 . S
C3350 C3353 1.403 . S
C3351 C3348 1.403 . S
C3351 C3352 1.524 . S
C3351 C3355 1.400 . S
C3352 H3337 0.960 . S
C3352 H3338 0.960 . S
C3352 H3339 0.960 . S
C3352 C3351 1.524 . S
C3353 C3350 1.403 . S
C3353 C3354 1.392 . S
C3353 C3357 1.495 . S
C3354 C3353 1.392 . S
C3354 C3355 1.385 . S
C3354 C3356 1.478 . S
C3355 H3349 0.930 . S
C3355 C3351 1.400 . S
C3355 C3354 1.385 . S
C3356 C3354 1.478 . S
C3356 C3358 1.381 . S
C3356 C3362 1.383 . S
C3357 C3353 1.495 . S
C3357 H3363 0.959 . S
C3357 H3364 0.961 . S
C3357 H3365 0.960 . S
C3358 C3356 1.381 . S
C3358 C3359 1.394 . S
C3358 H3366 0.930 . S
C3359 C3358 1.394 . S
C3359 C3360 1.383 . S
C3359 H3367 0.929 . S
C3360 C3359 1.383 . S
C3360 C3361 1.377 . S
C3361 H3345 0.930 . S
C3361 C3360 1.377 . S
C3361 C3362 1.379 . S
C3362 H3346 0.931 . S
C3362 C3356 1.383 . S
C3362 C3361 1.379 . S
H3363 C3357 0.959 . S
H3364 C3357 0.961 . S
H3365 C3357 0.960 . S
H3366 C3358 0.930 . S
H3367 C3359 0.929 . S
H3368 C3376 0.929 . S
H3369 C3378 0.930 . S
H3370 C3380 0.930 . S
H3371 C3383 0.929 . S
H3372 C3386 0.930 . S
H3373 C3388 0.960 . S
H3374 C3388 0.960 . S
H3375 C3388 0.960 . S
C3376 H3368 0.929 . S
C3376 C3377 1.377 . S
C3376 C3378 1.384 . S
C3377 C3376 1.377 . S
C3377 C3383 1.390 . S
C3378 H3369 0.930 . S
C3378 C3376 1.384 . S
C3378 C3379 1.372 . S
C3379 C3378 1.372 . S
C3379 C3380 1.400 . S
C3379 C3384 1.490 . S
C3380 H3370 0.930 . S
C3380 C3379 1.400 . S
C3380 C3383 1.386 . S
H3381 C3397 0.930 . S
H3382 C3398 0.931 . S
C3383 H3371 0.929 . S
C3383 C3377 1.390 . S
C3383 C3380 1.386 . S
C3384 C3379 1.490 . S
C3384 C3386 1.395 . S
C3384 C3387 1.403 . S
H3385 C3391 0.930 . S
C3386 H3372 0.930 . S
C3386 C3384 1.395 . S
C3386 C3389 1.403 . S
C3387 C3384 1.403 . S
C3387 C3388 1.524 . S
C3387 C3391 1.400 . S
C3388 H3373 0.960 . S
C3388 H3374 0.960 . S
C3388 H3375 0.960 . S
C3388 C3387 1.524 . S
C3389 C3386 1.403 . S
C3389 C3390 1.392 . S
C3389 C3393 1.495 . S
C3390 C3389 1.392 . S
C3390 C3391 1.385 . S
C3390 C3392 1.478 . S
C3391 H3385 0.930 . S
C3391 C3387 1.400 . S
C3391 C3390 1.385 . S
C3392 C3390 1.478 . S
C3392 C3394 1.381 . S
C3392 C3398 1.383 . S
C3393 C3389 1.495 . S
C3393 H3399 0.959 . S
C3393 H3400 0.961 . S
C3393 H3401 0.960 . S
C3394 C3392 1.381 . S
C3394 C3395 1.394 . S
C3394 H3402 0.930 . S
C3395 C3394 1.394 . S
C3395 C3396 1.383 . S
C3395 H3403 0.929 . S
C3396 C3395 1.383 . S
C3396 C3397 1.377 . S
C3397 H3381 0.930 . S
C3397 C3396 1.377 . S
C3397 C3398 1.379 . S
C3398 H3382 0.931 . S
C3398 C3392 1.383 . S
C3398 C3397 1.379 . S
H3399 C3393 0.959 . S
H3400 C3393 0.961 . S
H3401 C3393 0.960 . S
H3402 C3394 0.930 . S
H3403 C3395 0.929 . S
H3404 C3412 0.929 . S
H3405 C3414 0.930 . S
H3406 C3416 0.930 . S
H3407 C3419 0.929 . S
H3408 C3422 0.930 . S
H3409 C3424 0.960 . S
H3410 C3424 0.960 . S
H3411 C3424 0.960 . S
C3412 H3404 0.929 . S
C3412 C3413 1.377 . S
C3412 C3414 1.384 . S
C3413 C3412 1.377 . S
C3413 C3419 1.390 . S
C3414 H3405 0.930 . S
C3414 C3412 1.384 . S
C3414 C3415 1.372 . S
C3415 C3414 1.372 . S
C3415 C3416 1.400 . S
C3415 C3420 1.490 . S
C3416 H3406 0.930 . S
C3416 C3415 1.400 . S
C3416 C3419 1.386 . S
H3417 C3433 0.930 . S
H3418 C3434 0.931 . S
C3419 H3407 0.929 . S
C3419 C3413 1.390 . S
C3419 C3416 1.386 . S
C3420 C3415 1.490 . S
C3420 C3422 1.395 . S
C3420 C3423 1.403 . S
H3421 C3427 0.930 . S
C3422 H3408 0.930 . S
C3422 C3420 1.395 . S
C3422 C3425 1.403 . S
C3423 C3420 1.403 . S
C3423 C3424 1.524 . S
C3423 C3427 1.400 . S
C3424 H3409 0.960 . S
C3424 H3410 0.960 . S
C3424 H3411 0.960 . S
C3424 C3423 1.524 . S
C3425 C3422 1.403 . S
C3425 C3426 1.392 . S
C3425 C3429 1.495 . S
C3426 C3425 1.392 . S
C3426 C3427 1.385 . S
C3426 C3428 1.478 . S
C3427 H3421 0.930 . S
C3427 C3423 1.400 . S
C3427 C3426 1.385 . S
C3428 C3426 1.478 . S
C3428 C3430 1.381 . S
C3428 C3434 1.383 . S
C3429 C3425 1.495 . S
C3429 H3435 0.959 . S
C3429 H3436 0.961 . S
C3429 H3437 0.960 . S
C3430 C3428 1.381 . S
C3430 C3431 1.394 . S
C3430 H3438 0.930 . S
C3431 C3430 1.394 . S
C3431 C3432 1.383 . S
C3431 H3439 0.929 . S
C3432 C3431 1.383 . S
C3432 C3433 1.377 . S
C3433 H3417 0.930 . S
C3433 C3432 1.377 . S
C3433 C3434 1.379 . S
C3434 H3418 0.931 . S
C3434 C3428 1.383 . S
C3434 C3433 1.379 . S
H3435 C3429 0.959 . S
H3436 C3429 0.961 . S
H3437 C3429 0.960 . S
H3438 C3430 0.930 . S
H3439 C3431 0.929 . S
H3440 C3448 0.929 . S
H3441 C3450 0.930 . S
H3442 C3452 0.930 . S
H3443 C3455 0.929 . S
H3444 C3458 0.930 . S
H3445 C3460 0.960 . S
H3446 C3460 0.960 . S
H3447 C3460 0.960 . S
C3448 H3440 0.929 . S
C3448 C3449 1.377 . S
C3448 C3450 1.384 . S
C3449 C3448 1.377 . S
C3449 C3455 1.390 . S
C3450 H3441 0.930 . S
C3450 C3448 1.384 . S
C3450 C3451 1.372 . S
C3451 C3450 1.372 . S
C3451 C3452 1.400 . S
C3451 C3456 1.490 . S
C3452 H3442 0.930 . S
C3452 C3451 1.400 . S
C3452 C3455 1.386 . S
H3453 C3469 0.930 . S
H3454 C3470 0.931 . S
C3455 H3443 0.929 . S
C3455 C3449 1.390 . S
C3455 C3452 1.386 . S
C3456 C3451 1.490 . S
C3456 C3458 1.395 . S
C3456 C3459 1.403 . S
H3457 C3463 0.930 . S
C3458 H3444 0.930 . S
C3458 C3456 1.395 . S
C3458 C3461 1.403 1_554 S
C3459 C3456 1.403 . S
C3459 C3460 1.524 . S
C3459 C3463 1.400 1_554 S
C3460 H3445 0.960 . S
C3460 H3446 0.960 . S
C3460 H3447 0.960 . S
C3460 C3459 1.524 . S
C3461 C3458 1.403 1_556 S
C3461 C3462 1.392 . S
C3461 C3465 1.495 . S
C3462 C3461 1.392 . S
C3462 C3463 1.385 . S
C3462 C3464 1.478 . S
C3463 H3457 0.930 . S
C3463 C3459 1.400 1_556 S
C3463 C3462 1.385 . S
C3464 C3462 1.478 . S
C3464 C3466 1.381 . S
C3464 C3470 1.383 . S
C3465 C3461 1.495 . S
C3465 H3471 0.959 . S
C3465 H3472 0.961 . S
C3465 H3473 0.960 . S
C3466 C3464 1.381 . S
C3466 C3467 1.394 . S
C3466 H3474 0.930 . S
C3467 C3466 1.394 . S
C3467 C3468 1.383 . S
C3467 H3475 0.929 . S
C3468 C3467 1.383 . S
C3468 C3469 1.377 . S
C3469 H3453 0.930 . S
C3469 C3468 1.377 . S
C3469 C3470 1.379 . S
C3470 H3454 0.931 . S
C3470 C3464 1.383 . S
C3470 C3469 1.379 . S
H3471 C3465 0.959 . S
H3472 C3465 0.961 . S
H3473 C3465 0.960 . S
H3474 C3466 0.930 . S
H3475 C3467 0.929 . S
H3476 C3484 0.929 1_455 S
H3477 C3486 0.930 . S
H3478 C3488 0.930 . S
H3479 C3491 0.929 . S
H3480 C3494 0.930 . S
H3481 C3496 0.960 . S
H3482 C3496 0.960 . S
H3483 C3496 0.960 . S
C3484 H3476 0.929 1_655 S
C3484 C3485 1.377 . S
C3484 C3486 1.384 1_655 S
C3485 C3484 1.377 . S
C3485 C3491 1.390 . S
C3486 H3477 0.930 . S
C3486 C3484 1.384 1_455 S
C3486 C3487 1.372 1_455 S
C3487 C3486 1.372 1_655 S
C3487 C3488 1.400 . S
C3487 C3492 1.490 . S
C3488 H3478 0.930 . S
C3488 C3487 1.400 . S
C3488 C3491 1.386 . S
H3489 C3505 0.907 1_655 S
H3490 C3506 0.931 1_655 S
C3491 H3479 0.929 . S
C3491 C3485 1.390 . S
C3491 C3488 1.386 . S
C3492 C3487 1.490 . S
C3492 C3494 1.395 1_655 S
C3492 C3495 1.403 . S
H3493 C3499 0.930 . S
C3494 H3480 0.930 . S
C3494 C3492 1.395 1_455 S
C3494 C3497 1.403 . S
C3495 C3492 1.403 . S
C3495 C3496 1.524 . S
C3495 C3499 1.400 . S
C3496 H3481 0.960 . S
C3496 H3482 0.960 . S
C3496 H3483 0.960 . S
C3496 C3495 1.524 . S
C3497 C3494 1.403 . S
C3497 C3498 1.392 . S
C3497 C3501 1.495 . S
C3498 C3497 1.392 . S
C3498 C3499 1.385 1_455 S
C3498 C3500 1.478 . S
C3499 H3493 0.930 . S
C3499 C3495 1.400 . S
C3499 C3498 1.385 1_655 S
C3500 C3498 1.478 . S
C3500 C3502 1.381 . S
C3500 C3506 1.383 . S
C3501 C3497 1.495 . S
C3501 H3507 0.959 . S
C3501 H3508 0.961 . S
C3501 H3509 0.960 . S
C3502 C3500 1.381 . S
C3502 C3503 1.394 . S
C3502 H3510 0.930 . S
C3503 C3502 1.394 . S
C3503 C3504 1.383 . S
C3503 H3511 0.929 . S
C3504 C3503 1.383 . S
C3504 C3505 1.377 . S
C3505 H3489 0.907 1_455 S
C3505 C3504 1.377 . S
C3505 C3506 1.379 . S
C3506 H3490 0.931 1_455 S
C3506 C3500 1.383 . S
C3506 C3505 1.379 . S
H3507 C3501 0.959 . S
H3508 C3501 0.961 . S
H3509 C3501 0.960 . S
H3510 C3502 0.930 . S
H3511 C3503 0.929 . S
H3512 C3520 0.929 1_655 S
H3513 C3522 0.930 . S
H3514 C3524 0.930 . S
H3515 C3527 0.929 . S
H3516 C3530 0.930 . S
H3517 C3532 0.960 . S
H3518 C3532 0.960 . S
H3519 C3532 0.960 . S
C3520 H3512 0.929 1_455 S
C3520 C3521 1.377 . S
C3520 C3522 1.384 1_455 S
C3521 C3520 1.377 . S
C3521 C3527 1.390 . S
C3522 H3513 0.930 . S
C3522 C3520 1.384 1_655 S
C3522 C3523 1.372 1_655 S
C3523 C3522 1.372 1_455 S
C3523 C3524 1.400 . S
C3523 C3528 1.490 . S
C3524 H3514 0.930 . S
C3524 C3523 1.400 . S
C3524 C3527 1.386 . S
H3525 C3541 0.930 1_455 S
H3526 C3542 0.931 . S
C3527 H3515 0.929 . S
C3527 C3521 1.390 . S
C3527 C3524 1.386 . S
C3528 C3523 1.490 . S
C3528 C3530 1.395 1_455 S
C3528 C3531 1.403 . S
H3529 C3535 0.930 . S
C3530 H3516 0.930 . S
C3530 C3528 1.395 1_655 S
C3530 C3533 1.403 1_554 S
C3531 C3528 1.403 . S
C3531 C3532 1.524 . S
C3531 C3535 1.400 1_554 S
C3532 H3517 0.960 . S
C3532 H3518 0.960 . S
C3532 H3519 0.960 . S
C3532 C3531 1.524 . S
C3533 C3530 1.403 1_556 S
C3533 C3534 1.392 . S
C3533 C3537 1.495 . S
C3534 C3533 1.392 . S
C3534 C3535 1.385 1_655 S
C3534 C3536 1.478 . S
C3535 H3529 0.930 . S
C3535 C3531 1.400 1_556 S
C3535 C3534 1.385 1_455 S
C3536 C3534 1.478 . S
C3536 C3538 1.381 . S
C3536 C3542 1.383 1_655 S
C3537 C3533 1.495 . S
C3537 H3543 0.959 . S
C3537 H3544 0.961 . S
C3537 H3545 0.960 . S
C3538 C3536 1.381 . S
C3538 C3539 1.394 . S
C3538 H3546 0.930 . S
C3539 C3538 1.394 . S
C3539 C3540 1.383 . S
C3539 H3547 0.929 . S
C3540 C3539 1.383 . S
C3540 C3541 1.377 . S
C3541 H3525 0.930 1_655 S
C3541 C3540 1.377 . S
C3541 C3542 1.379 1_655 S
C3542 H3526 0.931 . S
C3542 C3536 1.383 1_455 S
C3542 C3541 1.379 1_455 S
H3543 C3537 0.959 . S
H3544 C3537 0.961 . S
H3545 C3537 0.960 . S
H3546 C3538 0.930 . S
H3547 C3539 0.929 . S
H3548 C3556 0.929 . S
H3549 C3558 0.930 . S
H3550 C3560 0.930 . S
H3551 C3563 0.929 . S
H3552 C3566 0.930 . S
H3553 C3568 0.960 . S
H3554 C3568 0.960 . S
H3555 C3568 0.960 . S
C3556 H3548 0.929 . S
C3556 C3557 1.377 . S
C3556 C3558 1.384 . S
C3557 C3556 1.377 . S
C3557 C3563 1.390 . S
C3558 H3549 0.930 . S
C3558 C3556 1.384 . S
C3558 C3559 1.372 . S
C3559 C3558 1.372 . S
C3559 C3560 1.400 . S
C3559 C3564 1.490 . S
C3560 H3550 0.930 . S
C3560 C3559 1.400 . S
C3560 C3563 1.386 . S
H3561 C3577 0.930 . S
H3562 C3578 0.931 . S
C3563 H3551 0.929 . S
C3563 C3557 1.390 . S
C3563 C3560 1.386 . S
C3564 C3559 1.490 . S
C3564 C3566 1.395 . S
C3564 C3567 1.403 . S
H3565 C3571 0.930 . S
C3566 H3552 0.930 . S
C3566 C3564 1.395 . S
C3566 C3569 1.403 . S
C3567 C3564 1.403 . S
C3567 C3568 1.524 . S
C3567 C3571 1.400 . S
C3568 H3553 0.960 . S
C3568 H3554 0.960 . S
C3568 H3555 0.960 . S
C3568 C3567 1.524 . S
C3569 C3566 1.403 . S
C3569 C3570 1.392 . S
C3569 C3573 1.495 . S
C3570 C3569 1.392 . S
C3570 C3571 1.385 . S
C3570 C3572 1.478 . S
C3571 H3565 0.930 . S
C3571 C3567 1.400 . S
C3571 C3570 1.385 . S
C3572 C3570 1.478 . S
C3572 C3574 1.381 . S
C3572 C3578 1.383 . S
C3573 C3569 1.495 . S
C3573 H3579 0.959 . S
C3573 H3580 0.961 . S
C3573 H3581 0.960 . S
C3574 C3572 1.381 . S
C3574 C3575 1.394 . S
C3574 H3582 0.930 . S
C3575 C3574 1.394 . S
C3575 C3576 1.383 . S
C3575 H3583 0.929 . S
C3576 C3575 1.383 . S
C3576 C3577 1.377 . S
C3577 H3561 0.930 . S
C3577 C3576 1.377 . S
C3577 C3578 1.379 . S
C3578 H3562 0.931 . S
C3578 C3572 1.383 . S
C3578 C3577 1.379 . S
H3579 C3573 0.959 . S
H3580 C3573 0.961 . S
H3581 C3573 0.960 . S
H3582 C3574 0.930 . S
H3583 C3575 0.929 . S
H3584 C3592 0.929 . S
H3585 C3594 0.930 . S
H3586 C3596 0.930 . S
H3587 C3599 0.929 . S
H3588 C3602 0.930 . S
H3589 C3604 0.960 . S
H3590 C3604 0.960 . S
H3591 C3604 0.960 . S
C3592 H3584 0.929 . S
C3592 C3593 1.377 . S
C3592 C3594 1.384 . S
C3593 C3592 1.377 . S
C3593 C3599 1.390 . S
C3594 H3585 0.930 . S
C3594 C3592 1.384 . S
C3594 C3595 1.372 . S
C3595 C3594 1.372 . S
C3595 C3596 1.400 . S
C3595 C3600 1.490 . S
C3596 H3586 0.930 . S
C3596 C3595 1.400 . S
C3596 C3599 1.386 . S
H3597 C3613 0.930 . S
H3598 C3614 0.931 . S
C3599 H3587 0.929 . S
C3599 C3593 1.390 . S
C3599 C3596 1.386 . S
C3600 C3595 1.490 . S
C3600 C3602 1.395 . S
C3600 C3603 1.403 . S
H3601 C3607 0.930 . S
C3602 H3588 0.930 . S
C3602 C3600 1.395 . S
C3602 C3605 1.403 . S
C3603 C3600 1.403 . S
C3603 C3604 1.524 . S
C3603 C3607 1.400 . S
C3604 H3589 0.960 . S
C3604 H3590 0.960 . S
C3604 H3591 0.960 . S
C3604 C3603 1.524 . S
C3605 C3602 1.403 . S
C3605 C3606 1.392 . S
C3605 C3609 1.495 . S
C3606 C3605 1.392 . S
C3606 C3607 1.385 . S
C3606 C3608 1.478 . S
C3607 H3601 0.930 . S
C3607 C3603 1.400 . S
C3607 C3606 1.385 . S
C3608 C3606 1.478 . S
C3608 C3610 1.381 . S
C3608 C3614 1.383 . S
C3609 C3605 1.495 . S
C3609 H3615 0.959 . S
C3609 H3616 0.961 . S
C3609 H3617 0.960 . S
C3610 C3608 1.381 . S
C3610 C3611 1.394 . S
C3610 H3618 0.930 . S
C3611 C3610 1.394 . S
C3611 C3612 1.383 . S
C3611 H3619 0.929 . S
C3612 C3611 1.383 . S
C3612 C3613 1.377 . S
C3613 H3597 0.930 . S
C3613 C3612 1.377 . S
C3613 C3614 1.379 . S
C3614 H3598 0.931 . S
C3614 C3608 1.383 . S
C3614 C3613 1.379 . S
H3615 C3609 0.959 . S
H3616 C3609 0.961 . S
H3617 C3609 0.960 . S
H3618 C3610 0.930 . S
H3619 C3611 0.929 . S
H3620 C3628 0.929 . S
H3621 C3630 0.930 . S
H3622 C3632 0.930 . S
H3623 C3635 0.929 . S
H3624 C3638 0.930 . S
H3625 C3640 0.960 . S
H3626 C3640 0.960 . S
H3627 C3640 0.960 . S
C3628 H3620 0.929 . S
C3628 C3629 1.377 . S
C3628 C3630 1.384 . S
C3629 C3628 1.377 . S
C3629 C3635 1.390 . S
C3630 H3621 0.930 . S
C3630 C3628 1.384 . S
C3630 C3631 1.372 . S
C3631 C3630 1.372 . S
C3631 C3632 1.400 . S
C3631 C3636 1.490 . S
C3632 H3622 0.930 . S
C3632 C3631 1.400 . S
C3632 C3635 1.386 . S
H3633 C3649 0.930 . S
H3634 C3650 0.931 . S
C3635 H3623 0.929 . S
C3635 C3629 1.390 . S
C3635 C3632 1.386 . S
C3636 C3631 1.490 . S
C3636 C3638 1.395 . S
C3636 C3639 1.403 . S
H3637 C3643 0.930 . S
C3638 H3624 0.930 . S
C3638 C3636 1.395 . S
C3638 C3641 1.403 . S
C3639 C3636 1.403 . S
C3639 C3640 1.524 . S
C3639 C3643 1.400 . S
C3640 H3625 0.960 . S
C3640 H3626 0.960 . S
C3640 H3627 0.960 . S
C3640 C3639 1.524 . S
C3641 C3638 1.403 . S
C3641 C3642 1.392 . S
C3641 C3645 1.495 . S
C3642 C3641 1.392 . S
C3642 C3643 1.385 . S
C3642 C3644 1.478 . S
C3643 H3637 0.930 . S
C3643 C3639 1.400 . S
C3643 C3642 1.385 . S
C3644 C3642 1.478 . S
C3644 C3646 1.381 . S
C3644 C3650 1.383 . S
C3645 C3641 1.495 . S
C3645 H3651 0.959 . S
C3645 H3652 0.961 . S
C3645 H3653 0.960 . S
C3646 C3644 1.381 . S
C3646 C3647 1.394 . S
C3646 H3654 0.930 . S
C3647 C3646 1.394 . S
C3647 C3648 1.383 . S
C3647 H3655 0.929 . S
C3648 C3647 1.383 . S
C3648 C3649 1.377 . S
C3649 H3633 0.930 . S
C3649 C3648 1.377 . S
C3649 C3650 1.379 . S
C3650 H3634 0.931 . S
C3650 C3644 1.383 . S
C3650 C3649 1.379 . S
H3651 C3645 0.959 . S
H3652 C3645 0.961 . S
H3653 C3645 0.960 . S
H3654 C3646 0.930 . S
H3655 C3647 0.929 . S
H3656 C3664 0.929 . S
H3657 C3666 0.930 . S
H3658 C3668 0.930 . S
H3659 C3671 0.929 . S
H3660 C3674 0.930 . S
H3661 C3676 0.960 . S
H3662 C3676 0.960 . S
H3663 C3676 0.960 . S
C3664 H3656 0.929 . S
C3664 C3665 1.377 . S
C3664 C3666 1.384 . S
C3665 C3664 1.377 . S
C3665 C3671 1.390 . S
C3666 H3657 0.930 . S
C3666 C3664 1.384 . S
C3666 C3667 1.372 . S
C3667 C3666 1.372 . S
C3667 C3668 1.400 . S
C3667 C3672 1.490 . S
C3668 H3658 0.930 . S
C3668 C3667 1.400 . S
C3668 C3671 1.386 . S
H3669 C3685 0.930 . S
H3670 C3686 0.931 . S
C3671 H3659 0.929 . S
C3671 C3665 1.390 . S
C3671 C3668 1.386 . S
C3672 C3667 1.490 . S
C3672 C3674 1.395 . S
C3672 C3675 1.403 . S
H3673 C3679 0.930 . S
C3674 H3660 0.930 . S
C3674 C3672 1.395 . S
C3674 C3677 1.403 . S
C3675 C3672 1.403 . S
C3675 C3676 1.524 . S
C3675 C3679 1.400 . S
C3676 H3661 0.960 . S
C3676 H3662 0.960 . S
C3676 H3663 0.960 . S
C3676 C3675 1.524 . S
C3677 C3674 1.403 . S
C3677 C3678 1.392 . S
C3677 C3681 1.495 . S
C3678 C3677 1.392 . S
C3678 C3679 1.385 . S
C3678 C3680 1.478 . S
C3679 H3673 0.930 . S
C3679 C3675 1.400 . S
C3679 C3678 1.385 . S
C3680 C3678 1.478 . S
C3680 C3682 1.381 . S
C3680 C3686 1.383 . S
C3681 C3677 1.495 . S
C3681 H3687 0.959 . S
C3681 H3688 0.961 . S
C3681 H3689 0.960 . S
C3682 C3680 1.381 . S
C3682 C3683 1.394 . S
C3682 H3690 0.930 . S
C3683 C3682 1.394 . S
C3683 C3684 1.383 . S
C3683 H3691 0.929 . S
C3684 C3683 1.383 . S
C3684 C3685 1.377 . S
C3685 H3669 0.930 . S
C3685 C3684 1.377 . S
C3685 C3686 1.379 . S
C3686 H3670 0.931 . S
C3686 C3680 1.383 . S
C3686 C3685 1.379 . S
H3687 C3681 0.959 . S
H3688 C3681 0.961 . S
H3689 C3681 0.960 . S
H3690 C3682 0.930 . S
H3691 C3683 0.929 . S
H3692 C3700 0.929 . S
H3693 C3702 0.930 . S
H3694 C3704 0.930 . S
H3695 C3707 0.929 . S
H3696 C3710 0.930 . S
H3697 C3712 0.960 . S
H3698 C3712 0.960 . S
H3699 C3712 0.960 . S
C3700 H3692 0.929 . S
C3700 C3701 1.377 . S
C3700 C3702 1.384 . S
C3701 C3700 1.377 . S
C3701 C3707 1.390 . S
C3702 H3693 0.930 . S
C3702 C3700 1.384 . S
C3702 C3703 1.372 . S
C3703 C3702 1.372 . S
C3703 C3704 1.400 . S
C3703 C3708 1.490 . S
C3704 H3694 0.930 . S
C3704 C3703 1.400 . S
C3704 C3707 1.386 . S
H3705 C3721 0.930 . S
H3706 C3722 0.931 . S
C3707 H3695 0.929 . S
C3707 C3701 1.390 . S
C3707 C3704 1.386 . S
C3708 C3703 1.490 . S
C3708 C3710 1.395 . S
C3708 C3711 1.403 . S
H3709 C3715 0.930 . S
C3710 H3696 0.930 . S
C3710 C3708 1.395 . S
C3710 C3713 1.403 . S
C3711 C3708 1.403 . S
C3711 C3712 1.524 . S
C3711 C3715 1.400 . S
C3712 H3697 0.960 . S
C3712 H3698 0.960 . S
C3712 H3699 0.960 . S
C3712 C3711 1.524 . S
C3713 C3710 1.403 . S
C3713 C3714 1.392 . S
C3713 C3717 1.495 . S
C3714 C3713 1.392 . S
C3714 C3715 1.385 . S
C3714 C3716 1.478 . S
C3715 H3709 0.930 . S
C3715 C3711 1.400 . S
C3715 C3714 1.385 . S
C3716 C3714 1.478 . S
C3716 C3718 1.381 . S
C3716 C3722 1.383 . S
C3717 C3713 1.495 . S
C3717 H3723 0.959 . S
C3717 H3724 0.961 . S
C3717 H3725 0.960 . S
C3718 C3716 1.381 . S
C3718 C3719 1.394 . S
C3718 H3726 0.930 . S
C3719 C3718 1.394 . S
C3719 C3720 1.383 . S
C3719 H3727 0.929 . S
C3720 C3719 1.383 . S
C3720 C3721 1.377 . S
C3721 H3705 0.930 . S
C3721 C3720 1.377 . S
C3721 C3722 1.379 . S
C3722 H3706 0.931 . S
C3722 C3716 1.383 . S
C3722 C3721 1.379 . S
H3723 C3717 0.959 . S
H3724 C3717 0.961 . S
H3725 C3717 0.960 . S
H3726 C3718 0.930 . S
H3727 C3719 0.929 . S
H3728 C3736 0.929 . S
H3729 C3738 0.930 . S
H3730 C3740 0.930 . S
H3731 C3743 0.929 . S
H3732 C3746 0.930 . S
H3733 C3748 0.960 . S
H3734 C3748 0.960 . S
H3735 C3748 0.960 . S
C3736 H3728 0.929 . S
C3736 C3737 1.377 . S
C3736 C3738 1.384 . S
C3737 C3736 1.377 . S
C3737 C3743 1.390 . S
C3738 H3729 0.930 . S
C3738 C3736 1.384 . S
C3738 C3739 1.372 . S
C3739 C3738 1.372 . S
C3739 C3740 1.400 . S
C3739 C3744 1.490 . S
C3740 H3730 0.930 . S
C3740 C3739 1.400 . S
C3740 C3743 1.386 . S
H3741 C3757 0.930 . S
H3742 C3758 0.931 . S
C3743 H3731 0.929 . S
C3743 C3737 1.390 . S
C3743 C3740 1.386 . S
C3744 C3739 1.490 . S
C3744 C3746 1.395 . S
C3744 C3747 1.403 . S
H3745 C3751 0.930 . S
C3746 H3732 0.930 . S
C3746 C3744 1.395 . S
C3746 C3749 1.403 . S
C3747 C3744 1.403 . S
C3747 C3748 1.524 . S
C3747 C3751 1.400 . S
C3748 H3733 0.960 . S
C3748 H3734 0.960 . S
C3748 H3735 0.960 . S
C3748 C3747 1.524 . S
C3749 C3746 1.403 . S
C3749 C3750 1.392 . S
C3749 C3753 1.495 . S
C3750 C3749 1.392 . S
C3750 C3751 1.385 . S
C3750 C3752 1.478 . S
C3751 H3745 0.930 . S
C3751 C3747 1.400 . S
C3751 C3750 1.385 . S
C3752 C3750 1.478 . S
C3752 C3754 1.381 . S
C3752 C3758 1.383 . S
C3753 C3749 1.495 . S
C3753 H3759 0.959 . S
C3753 H3760 0.961 . S
C3753 H3761 0.960 . S
C3754 C3752 1.381 . S
C3754 C3755 1.394 . S
C3754 H3762 0.930 . S
C3755 C3754 1.394 . S
C3755 C3756 1.383 . S
C3755 H3763 0.929 . S
C3756 C3755 1.383 . S
C3756 C3757 1.377 . S
C3757 H3741 0.930 . S
C3757 C3756 1.377 . S
C3757 C3758 1.379 . S
C3758 H3742 0.931 . S
C3758 C3752 1.383 . S
C3758 C3757 1.379 . S
H3759 C3753 0.959 . S
H3760 C3753 0.961 . S
H3761 C3753 0.960 . S
H3762 C3754 0.930 . S
H3763 C3755 0.929 . S
H3764 C3772 0.929 . S
H3765 C3774 0.930 . S
H3766 C3776 0.930 . S
H3767 C3779 0.929 . S
H3768 C3782 0.930 . S
H3769 C3784 0.960 . S
H3770 C3784 0.960 . S
H3771 C3784 0.960 . S
C3772 H3764 0.929 . S
C3772 C3773 1.377 . S
C3772 C3774 1.384 . S
C3773 C3772 1.377 . S
C3773 C3779 1.390 . S
C3774 H3765 0.930 . S
C3774 C3772 1.384 . S
C3774 C3775 1.372 . S
C3775 C3774 1.372 . S
C3775 C3776 1.400 . S
C3775 C3780 1.490 . S
C3776 H3766 0.930 . S
C3776 C3775 1.400 . S
C3776 C3779 1.386 . S
H3777 C3793 0.930 . S
H3778 C3794 0.931 . S
C3779 H3767 0.929 . S
C3779 C3773 1.390 . S
C3779 C3776 1.386 . S
C3780 C3775 1.490 . S
C3780 C3782 1.395 . S
C3780 C3783 1.403 . S
H3781 C3787 0.930 . S
C3782 H3768 0.930 . S
C3782 C3780 1.395 . S
C3782 C3785 1.403 . S
C3783 C3780 1.403 . S
C3783 C3784 1.524 . S
C3783 C3787 1.400 . S
C3784 H3769 0.960 . S
C3784 H3770 0.960 . S
C3784 H3771 0.960 . S
C3784 C3783 1.524 . S
C3785 C3782 1.403 . S
C3785 C3786 1.392 . S
C3785 C3789 1.495 . S
C3786 C3785 1.392 . S
C3786 C3787 1.385 . S
C3786 C3788 1.478 . S
C3787 H3781 0.930 . S
C3787 C3783 1.400 . S
C3787 C3786 1.385 . S
C3788 C3786 1.478 . S
C3788 C3790 1.381 . S
C3788 C3794 1.383 . S
C3789 C3785 1.495 . S
C3789 H3795 0.959 . S
C3789 H3796 0.961 . S
C3789 H3797 0.960 . S
C3790 C3788 1.381 . S
C3790 C3791 1.394 . S
C3790 H3798 0.930 . S
C3791 C3790 1.394 . S
C3791 C3792 1.383 . S
C3791 H3799 0.929 . S
C3792 C3791 1.383 . S
C3792 C3793 1.377 . S
C3793 H3777 0.930 . S
C3793 C3792 1.377 . S
C3793 C3794 1.379 . S
C3794 H3778 0.931 . S
C3794 C3788 1.383 . S
C3794 C3793 1.379 . S
H3795 C3789 0.959 . S
H3796 C3789 0.961 . S
H3797 C3789 0.960 . S
H3798 C3790 0.930 . S
H3799 C3791 0.929 . S
H3800 C3808 0.929 . S
H3801 C3810 0.930 . S
H3802 C3812 0.930 . S
H3803 C3815 0.929 . S
H3804 C3818 0.930 . S
H3805 C3820 0.960 . S
H3806 C3820 0.960 . S
H3807 C3820 0.960 . S
C3808 H3800 0.929 . S
C3808 C3809 1.377 . S
C3808 C3810 1.384 . S
C3809 C3808 1.377 . S
C3809 C3815 1.390 . S
C3810 H3801 0.930 . S
C3810 C3808 1.384 . S
C3810 C3811 1.372 . S
C3811 C3810 1.372 . S
C3811 C3812 1.400 . S
C3811 C3816 1.490 . S
C3812 H3802 0.930 . S
C3812 C3811 1.400 . S
C3812 C3815 1.386 . S
H3813 C3829 0.930 . S
H3814 C3830 0.931 . S
C3815 H3803 0.929 . S
C3815 C3809 1.390 . S
C3815 C3812 1.386 . S
C3816 C3811 1.490 . S
C3816 C3818 1.395 . S
C3816 C3819 1.403 . S
H3817 C3823 0.930 . S
C3818 H3804 0.930 . S
C3818 C3816 1.395 . S
C3818 C3821 1.403 . S
C3819 C3816 1.403 . S
C3819 C3820 1.524 . S
C3819 C3823 1.400 . S
C3820 H3805 0.960 . S
C3820 H3806 0.960 . S
C3820 H3807 0.960 . S
C3820 C3819 1.524 . S
C3821 C3818 1.403 . S
C3821 C3822 1.392 . S
C3821 C3825 1.495 . S
C3822 C3821 1.392 . S
C3822 C3823 1.385 . S
C3822 C3824 1.478 . S
C3823 H3817 0.930 . S
C3823 C3819 1.400 . S
C3823 C3822 1.385 . S
C3824 C3822 1.478 . S
C3824 C3826 1.381 . S
C3824 C3830 1.383 . S
C3825 C3821 1.495 . S
C3825 H3831 0.959 . S
C3825 H3832 0.961 . S
C3825 H3833 0.960 . S
C3826 C3824 1.381 . S
C3826 C3827 1.394 . S
C3826 H3834 0.930 . S
C3827 C3826 1.394 . S
C3827 C3828 1.383 . S
C3827 H3835 0.929 . S
C3828 C3827 1.383 . S
C3828 C3829 1.377 . S
C3829 H3813 0.930 . S
C3829 C3828 1.377 . S
C3829 C3830 1.379 . S
C3830 H3814 0.931 . S
C3830 C3824 1.383 . S
C3830 C3829 1.379 . S
H3831 C3825 0.959 . S
H3832 C3825 0.961 . S
H3833 C3825 0.960 . S
H3834 C3826 0.930 . S
H3835 C3827 0.929 . S
H3836 C3844 0.929 . S
H3837 C3846 0.930 . S
H3838 C3848 0.930 . S
H3839 C3851 0.929 . S
H3840 C3854 0.930 . S
H3841 C3856 0.960 . S
H3842 C3856 0.960 . S
H3843 C3856 0.960 . S
C3844 H3836 0.929 . S
C3844 C3845 1.377 . S
C3844 C3846 1.384 . S
C3845 C3844 1.377 . S
C3845 C3851 1.390 . S
C3846 H3837 0.930 . S
C3846 C3844 1.384 . S
C3846 C3847 1.372 . S
C3847 C3846 1.372 . S
C3847 C3848 1.400 . S
C3847 C3852 1.490 . S
C3848 H3838 0.930 . S
C3848 C3847 1.400 . S
C3848 C3851 1.386 . S
H3849 C3865 0.930 . S
H3850 C3866 0.931 . S
C3851 H3839 0.929 . S
C3851 C3845 1.390 . S
C3851 C3848 1.386 . S
C3852 C3847 1.490 . S
C3852 C3854 1.395 . S
C3852 C3855 1.403 . S
H3853 C3859 0.930 . S
C3854 H3840 0.930 . S
C3854 C3852 1.395 . S
C3854 C3857 1.403 . S
C3855 C3852 1.403 . S
C3855 C3856 1.524 . S
C3855 C3859 1.400 . S
C3856 H3841 0.960 . S
C3856 H3842 0.960 . S
C3856 H3843 0.960 . S
C3856 C3855 1.524 . S
C3857 C3854 1.403 . S
C3857 C3858 1.392 . S
C3857 C3861 1.495 . S
C3858 C3857 1.392 . S
C3858 C3859 1.385 . S
C3858 C3860 1.478 . S
C3859 H3853 0.930 . S
C3859 C3855 1.400 . S
C3859 C3858 1.385 . S
C3860 C3858 1.478 . S
C3860 C3862 1.381 . S
C3860 C3866 1.383 . S
C3861 C3857 1.495 . S
C3861 H3867 0.959 . S
C3861 H3868 0.961 . S
C3861 H3869 0.960 . S
C3862 C3860 1.381 . S
C3862 C3863 1.394 . S
C3862 H3870 0.930 . S
C3863 C3862 1.394 . S
C3863 C3864 1.383 . S
C3863 H3871 0.929 . S
C3864 C3863 1.383 . S
C3864 C3865 1.377 . S
C3865 H3849 0.930 . S
C3865 C3864 1.377 . S
C3865 C3866 1.379 . S
C3866 H3850 0.931 . S
C3866 C3860 1.383 . S
C3866 C3865 1.379 . S
H3867 C3861 0.959 . S
H3868 C3861 0.961 . S
H3869 C3861 0.960 . S
H3870 C3862 0.930 . S
H3871 C3863 0.929 . S
H3872 C3880 0.929 . S
H3873 C3882 0.930 . S
H3874 C3884 0.930 . S
H3875 C3887 0.929 . S
H3876 C3890 0.930 . S
H3877 C3892 0.960 . S
H3878 C3892 0.960 . S
H3879 C3892 0.960 . S
C3880 H3872 0.929 . S
C3880 C3881 1.377 . S
C3880 C3882 1.384 . S
C3881 C3880 1.377 . S
C3881 C3887 1.390 . S
C3882 H3873 0.930 . S
C3882 C3880 1.384 . S
C3882 C3883 1.372 . S
C3883 C3882 1.372 . S
C3883 C3884 1.400 . S
C3883 C3888 1.490 . S
C3884 H3874 0.930 . S
C3884 C3883 1.400 . S
C3884 C3887 1.386 . S
H3885 C3901 0.930 . S
H3886 C3902 0.931 . S
C3887 H3875 0.929 . S
C3887 C3881 1.390 . S
C3887 C3884 1.386 . S
C3888 C3883 1.490 . S
C3888 C3890 1.395 . S
C3888 C3891 1.403 . S
H3889 C3895 0.930 . S
C3890 H3876 0.930 . S
C3890 C3888 1.395 . S
C3890 C3893 1.403 . S
C3891 C3888 1.403 . S
C3891 C3892 1.524 . S
C3891 C3895 1.400 . S
C3892 H3877 0.960 . S
C3892 H3878 0.960 . S
C3892 H3879 0.960 . S
C3892 C3891 1.524 . S
C3893 C3890 1.403 . S
C3893 C3894 1.392 . S
C3893 C3897 1.495 . S
C3894 C3893 1.392 . S
C3894 C3895 1.385 . S
C3894 C3896 1.478 . S
C3895 H3889 0.930 . S
C3895 C3891 1.400 . S
C3895 C3894 1.385 . S
C3896 C3894 1.478 . S
C3896 C3898 1.381 . S
C3896 C3902 1.383 . S
C3897 C3893 1.495 . S
C3897 H3903 0.959 . S
C3897 H3904 0.961 . S
C3897 H3905 0.960 . S
C3898 C3896 1.381 . S
C3898 C3899 1.394 . S
C3898 H3906 0.930 . S
C3899 C3898 1.394 . S
C3899 C3900 1.383 . S
C3899 H3907 0.929 . S
C3900 C3899 1.383 . S
C3900 C3901 1.377 . S
C3901 H3885 0.930 . S
C3901 C3900 1.377 . S
C3901 C3902 1.379 . S
C3902 H3886 0.931 . S
C3902 C3896 1.383 . S
C3902 C3901 1.379 . S
H3903 C3897 0.959 . S
H3904 C3897 0.961 . S
H3905 C3897 0.960 . S
H3906 C3898 0.930 . S
H3907 C3899 0.929 . S
H3908 C3916 0.929 . S
H3909 C3918 0.930 . S
H3910 C3920 0.930 . S
H3911 C3923 0.929 . S
H3912 C3926 0.930 . S
H3913 C3928 0.960 . S
H3914 C3928 0.960 . S
H3915 C3928 0.960 . S
C3916 H3908 0.929 . S
C3916 C3917 1.377 . S
C3916 C3918 1.384 . S
C3917 C3916 1.377 . S
C3917 C3923 1.390 . S
C3918 H3909 0.930 . S
C3918 C3916 1.384 . S
C3918 C3919 1.372 . S
C3919 C3918 1.372 . S
C3919 C3920 1.400 . S
C3919 C3924 1.490 . S
C3920 H3910 0.930 . S
C3920 C3919 1.400 . S
C3920 C3923 1.386 . S
H3921 C3937 0.930 . S
H3922 C3938 0.931 . S
C3923 H3911 0.929 . S
C3923 C3917 1.390 . S
C3923 C3920 1.386 . S
C3924 C3919 1.490 . S
C3924 C3926 1.395 . S
C3924 C3927 1.403 . S
H3925 C3931 0.930 . S
C3926 H3912 0.930 . S
C3926 C3924 1.395 . S
C3926 C3929 1.403 . S
C3927 C3924 1.403 . S
C3927 C3928 1.524 . S
C3927 C3931 1.400 . S
C3928 H3913 0.960 . S
C3928 H3914 0.960 . S
C3928 H3915 0.960 . S
C3928 C3927 1.524 . S
C3929 C3926 1.403 . S
C3929 C3930 1.392 . S
C3929 C3933 1.495 . S
C3930 C3929 1.392 . S
C3930 C3931 1.385 . S
C3930 C3932 1.478 . S
C3931 H3925 0.930 . S
C3931 C3927 1.400 . S
C3931 C3930 1.385 . S
C3932 C3930 1.478 . S
C3932 C3934 1.381 . S
C3932 C3938 1.383 . S
C3933 C3929 1.495 . S
C3933 H3939 0.959 . S
C3933 H3940 0.961 . S
C3933 H3941 0.960 . S
C3934 C3932 1.381 . S
C3934 C3935 1.394 . S
C3934 H3942 0.930 . S
C3935 C3934 1.394 . S
C3935 C3936 1.383 . S
C3935 H3943 0.929 . S
C3936 C3935 1.383 . S
C3936 C3937 1.377 . S
C3937 H3921 0.930 . S
C3937 C3936 1.377 . S
C3937 C3938 1.379 . S
C3938 H3922 0.931 . S
C3938 C3932 1.383 . S
C3938 C3937 1.379 . S
H3939 C3933 0.959 . S
H3940 C3933 0.961 . S
H3941 C3933 0.960 . S
H3942 C3934 0.930 . S
H3943 C3935 0.929 . S
H3944 C3952 0.929 . S
H3945 C3954 0.930 . S
H3946 C3956 0.930 . S
H3947 C3959 0.929 . S
H3948 C3962 0.930 . S
H3949 C3964 0.960 . S
H3950 C3964 0.960 . S
H3951 C3964 0.960 . S
C3952 H3944 0.929 . S
C3952 C3953 1.377 . S
C3952 C3954 1.384 . S
C3953 C3952 1.377 . S
C3953 C3959 1.390 . S
C3954 H3945 0.930 . S
C3954 C3952 1.384 . S
C3954 C3955 1.372 . S
C3955 C3954 1.372 . S
C3955 C3956 1.400 . S
C3955 C3960 1.490 . S
C3956 H3946 0.930 . S
C3956 C3955 1.400 . S
C3956 C3959 1.386 . S
H3957 C3973 0.930 . S
H3958 C3974 0.931 . S
C3959 H3947 0.929 . S
C3959 C3953 1.390 . S
C3959 C3956 1.386 . S
C3960 C3955 1.490 . S
C3960 C3962 1.395 . S
C3960 C3963 1.403 . S
H3961 C3967 0.930 . S
C3962 H3948 0.930 . S
C3962 C3960 1.395 . S
C3962 C3965 1.403 . S
C3963 C3960 1.403 . S
C3963 C3964 1.524 . S
C3963 C3967 1.400 . S
C3964 H3949 0.960 . S
C3964 H3950 0.960 . S
C3964 H3951 0.960 . S
C3964 C3963 1.524 . S
C3965 C3962 1.403 . S
C3965 C3966 1.392 . S
C3965 C3969 1.495 . S
C3966 C3965 1.392 . S
C3966 C3967 1.385 . S
C3966 C3968 1.478 . S
C3967 H3961 0.930 . S
C3967 C3963 1.400 . S
C3967 C3966 1.385 . S
C3968 C3966 1.478 . S
C3968 C3970 1.381 . S
C3968 C3974 1.383 . S
C3969 C3965 1.495 . S
C3969 H3975 0.959 . S
C3969 H3976 0.961 . S
C3969 H3977 0.960 . S
C3970 C3968 1.381 . S
C3970 C3971 1.394 . S
C3970 H3978 0.930 . S
C3971 C3970 1.394 . S
C3971 C3972 1.383 . S
C3971 H3979 0.929 . S
C3972 C3971 1.383 . S
C3972 C3973 1.377 . S
C3973 H3957 0.930 . S
C3973 C3972 1.377 . S
C3973 C3974 1.379 . S
C3974 H3958 0.931 . S
C3974 C3968 1.383 . S
C3974 C3973 1.379 . S
H3975 C3969 0.959 . S
H3976 C3969 0.961 . S
H3977 C3969 0.960 . S
H3978 C3970 0.930 . S
H3979 C3971 0.929 . S
H3980 C3988 0.929 . S
H3981 C3990 0.930 . S
H3982 C3992 0.930 . S
H3983 C3995 0.929 . S
H3984 C3998 0.930 . S
H3985 C4000 0.960 . S
H3986 C4000 0.960 . S
H3987 C4000 0.960 . S
C3988 H3980 0.929 . S
C3988 C3989 1.377 . S
C3988 C3990 1.384 . S
C3989 C3988 1.377 . S
C3989 C3995 1.390 . S
C3990 H3981 0.930 . S
C3990 C3988 1.384 . S
C3990 C3991 1.372 . S
C3991 C3990 1.372 . S
C3991 C3992 1.400 . S
C3991 C3996 1.490 . S
C3992 H3982 0.930 . S
C3992 C3991 1.400 . S
C3992 C3995 1.386 . S
H3993 C4009 0.930 . S
H3994 C4010 0.931 . S
C3995 H3983 0.929 . S
C3995 C3989 1.390 . S
C3995 C3992 1.386 . S
C3996 C3991 1.490 . S
C3996 C3998 1.395 . S
C3996 C3999 1.403 . S
H3997 C4003 0.930 . S
C3998 H3984 0.930 . S
C3998 C3996 1.395 . S
C3998 C4001 1.403 . S
C3999 C3996 1.403 . S
C3999 C4000 1.524 . S
C3999 C4003 1.400 . S
C4000 H3985 0.960 . S
C4000 H3986 0.960 . S
C4000 H3987 0.960 . S
C4000 C3999 1.524 . S
C4001 C3998 1.403 . S
C4001 C4002 1.392 . S
C4001 C4005 1.495 . S
C4002 C4001 1.392 . S
C4002 C4003 1.385 . S
C4002 C4004 1.478 . S
C4003 H3997 0.930 . S
C4003 C3999 1.400 . S
C4003 C4002 1.385 . S
C4004 C4002 1.478 . S
C4004 C4006 1.381 . S
C4004 C4010 1.383 . S
C4005 C4001 1.495 . S
C4005 H4011 0.959 . S
C4005 H4012 0.961 . S
C4005 H4013 0.960 . S
C4006 C4004 1.381 . S
C4006 C4007 1.394 . S
C4006 H4014 0.930 . S
C4007 C4006 1.394 . S
C4007 C4008 1.383 . S
C4007 H4015 0.929 . S
C4008 C4007 1.383 . S
C4008 C4009 1.377 . S
C4009 H3993 0.930 . S
C4009 C4008 1.377 . S
C4009 C4010 1.379 . S
C4010 H3994 0.931 . S
C4010 C4004 1.383 . S
C4010 C4009 1.379 . S
H4011 C4005 0.959 . S
H4012 C4005 0.961 . S
H4013 C4005 0.960 . S
H4014 C4006 0.930 . S
H4015 C4007 0.929 . S
H4016 C4024 0.929 . S
H4017 C4026 0.930 . S
H4018 C4028 0.930 . S
H4019 C4031 0.929 . S
H4020 C4034 0.930 . S
H4021 C4036 0.960 . S
H4022 C4036 0.960 . S
H4023 C4036 0.960 . S
C4024 H4016 0.929 . S
C4024 C4025 1.377 . S
C4024 C4026 1.384 . S
C4025 C4024 1.377 . S
C4025 C4031 1.390 . S
C4026 H4017 0.930 . S
C4026 C4024 1.384 . S
C4026 C4027 1.372 . S
C4027 C4026 1.372 . S
C4027 C4028 1.400 . S
C4027 C4032 1.490 . S
C4028 H4018 0.930 . S
C4028 C4027 1.400 . S
C4028 C4031 1.386 . S
H4029 C4045 0.930 . S
H4030 C4046 0.931 . S
C4031 H4019 0.929 . S
C4031 C4025 1.390 . S
C4031 C4028 1.386 . S
C4032 C4027 1.490 . S
C4032 C4034 1.395 . S
C4032 C4035 1.403 . S
H4033 C4039 0.930 . S
C4034 H4020 0.930 . S
C4034 C4032 1.395 . S
C4034 C4037 1.403 . S
C4035 C4032 1.403 . S
C4035 C4036 1.524 . S
C4035 C4039 1.400 . S
C4036 H4021 0.960 . S
C4036 H4022 0.960 . S
C4036 H4023 0.960 . S
C4036 C4035 1.524 . S
C4037 C4034 1.403 . S
C4037 C4038 1.392 . S
C4037 C4041 1.495 . S
C4038 C4037 1.392 . S
C4038 C4039 1.385 . S
C4038 C4040 1.478 . S
C4039 H4033 0.930 . S
C4039 C4035 1.400 . S
C4039 C4038 1.385 . S
C4040 C4038 1.478 . S
C4040 C4042 1.381 . S
C4040 C4046 1.383 . S
C4041 C4037 1.495 . S
C4041 H4047 0.959 . S
C4041 H4048 0.961 . S
C4041 H4049 0.960 . S
C4042 C4040 1.381 . S
C4042 C4043 1.394 . S
C4042 H4050 0.930 . S
C4043 C4042 1.394 . S
C4043 C4044 1.383 . S
C4043 H4051 0.929 . S
C4044 C4043 1.383 . S
C4044 C4045 1.377 . S
C4045 H4029 0.930 . S
C4045 C4044 1.377 . S
C4045 C4046 1.379 . S
C4046 H4030 0.931 . S
C4046 C4040 1.383 . S
C4046 C4045 1.379 . S
H4047 C4041 0.959 . S
H4048 C4041 0.961 . S
H4049 C4041 0.960 . S
H4050 C4042 0.930 . S
H4051 C4043 0.929 . S
H4052 C4060 0.929 . S
H4053 C4062 0.930 . S
H4054 C4064 0.930 . S
H4055 C4067 0.929 . S
H4056 C4070 0.930 . S
H4057 C4072 0.960 . S
H4058 C4072 0.960 . S
H4059 C4072 0.960 . S
C4060 H4052 0.929 . S
C4060 C4061 1.377 . S
C4060 C4062 1.384 . S
C4061 C4060 1.377 . S
C4061 C4067 1.390 . S
C4062 H4053 0.930 . S
C4062 C4060 1.384 . S
C4062 C4063 1.372 . S
C4063 C4062 1.372 . S
C4063 C4064 1.400 . S
C4063 C4068 1.490 . S
C4064 H4054 0.930 . S
C4064 C4063 1.400 . S
C4064 C4067 1.386 . S
H4065 C4081 0.930 . S
H4066 C4082 0.931 . S
C4067 H4055 0.929 . S
C4067 C4061 1.390 . S
C4067 C4064 1.386 . S
C4068 C4063 1.490 . S
C4068 C4070 1.395 . S
C4068 C4071 1.403 . S
H4069 C4075 0.930 . S
C4070 H4056 0.930 . S
C4070 C4068 1.395 . S
C4070 C4073 1.403 . S
C4071 C4068 1.403 . S
C4071 C4072 1.524 . S
C4071 C4075 1.400 . S
C4072 H4057 0.960 . S
C4072 H4058 0.960 . S
C4072 H4059 0.960 . S
C4072 C4071 1.524 . S
C4073 C4070 1.403 . S
C4073 C4074 1.392 . S
C4073 C4077 1.495 . S
C4074 C4073 1.392 . S
C4074 C4075 1.385 . S
C4074 C4076 1.478 . S
C4075 H4069 0.930 . S
C4075 C4071 1.400 . S
C4075 C4074 1.385 . S
C4076 C4074 1.478 . S
C4076 C4078 1.381 . S
C4076 C4082 1.383 . S
C4077 C4073 1.495 . S
C4077 H4083 0.959 . S
C4077 H4084 0.961 . S
C4077 H4085 0.960 . S
C4078 C4076 1.381 . S
C4078 C4079 1.394 . S
C4078 H4086 0.930 . S
C4079 C4078 1.394 . S
C4079 C4080 1.383 . S
C4079 H4087 0.929 . S
C4080 C4079 1.383 . S
C4080 C4081 1.377 . S
C4081 H4065 0.930 . S
C4081 C4080 1.377 . S
C4081 C4082 1.379 . S
C4082 H4066 0.931 . S
C4082 C4076 1.383 . S
C4082 C4081 1.379 . S
H4083 C4077 0.959 . S
H4084 C4077 0.961 . S
H4085 C4077 0.960 . S
H4086 C4078 0.930 . S
H4087 C4079 0.929 . S
H4088 C4096 0.929 . S
H4089 C4098 0.930 . S
H4090 C4100 0.930 . S
H4091 C4103 0.929 . S
H4092 C4106 0.930 . S
H4093 C4108 0.960 . S
H4094 C4108 0.960 . S
H4095 C4108 0.960 . S
C4096 H4088 0.929 . S
C4096 C4097 1.377 . S
C4096 C4098 1.384 . S
C4097 C4096 1.377 . S
C4097 C4103 1.390 . S
C4098 H4089 0.930 . S
C4098 C4096 1.384 . S
C4098 C4099 1.372 . S
C4099 C4098 1.372 . S
C4099 C4100 1.400 . S
C4099 C4104 1.490 . S
C4100 H4090 0.930 . S
C4100 C4099 1.400 . S
C4100 C4103 1.386 . S
H4101 C4117 0.930 . S
H4102 C4118 0.931 . S
C4103 H4091 0.929 . S
C4103 C4097 1.390 . S
C4103 C4100 1.386 . S
C4104 C4099 1.490 . S
C4104 C4106 1.395 . S
C4104 C4107 1.403 . S
H4105 C4111 0.930 . S
C4106 H4092 0.930 . S
C4106 C4104 1.395 . S
C4106 C4109 1.403 . S
C4107 C4104 1.403 . S
C4107 C4108 1.524 . S
C4107 C4111 1.400 . S
C4108 H4093 0.960 . S
C4108 H4094 0.960 . S
C4108 H4095 0.960 . S
C4108 C4107 1.524 . S
C4109 C4106 1.403 . S
C4109 C4110 1.392 . S
C4109 C4113 1.495 . S
C4110 C4109 1.392 . S
C4110 C4111 1.385 . S
C4110 C4112 1.478 . S
C4111 H4105 0.930 . S
C4111 C4107 1.400 . S
C4111 C4110 1.385 . S
C4112 C4110 1.478 . S
C4112 C4114 1.381 . S
C4112 C4118 1.383 . S
C4113 C4109 1.495 . S
C4113 H4119 0.959 . S
C4113 H4120 0.961 . S
C4113 H4121 0.960 . S
C4114 C4112 1.381 . S
C4114 C4115 1.394 . S
C4114 H4122 0.930 . S
C4115 C4114 1.394 . S
C4115 C4116 1.383 . S
C4115 H4123 0.929 . S
C4116 C4115 1.383 . S
C4116 C4117 1.377 . S
C4117 H4101 0.930 . S
C4117 C4116 1.377 . S
C4117 C4118 1.379 . S
C4118 H4102 0.931 . S
C4118 C4112 1.383 . S
C4118 C4117 1.379 . S
H4119 C4113 0.959 . S
H4120 C4113 0.961 . S
H4121 C4113 0.960 . S
H4122 C4114 0.930 . S
H4123 C4115 0.929 . S
H4124 C4132 0.929 . S
H4125 C4134 0.930 . S
H4126 C4136 0.930 . S
H4127 C4139 0.929 . S
H4128 C4142 0.930 . S
H4129 C4144 0.960 . S
H4130 C4144 0.960 . S
H4131 C4144 0.960 . S
C4132 H4124 0.929 . S
C4132 C4133 1.377 . S
C4132 C4134 1.384 . S
C4133 C4132 1.377 . S
C4133 C4139 1.390 . S
C4134 H4125 0.930 . S
C4134 C4132 1.384 . S
C4134 C4135 1.372 . S
C4135 C4134 1.372 . S
C4135 C4136 1.400 . S
C4135 C4140 1.490 . S
C4136 H4126 0.930 . S
C4136 C4135 1.400 . S
C4136 C4139 1.386 . S
H4137 C4153 0.930 . S
H4138 C4154 0.931 . S
C4139 H4127 0.929 . S
C4139 C4133 1.390 . S
C4139 C4136 1.386 . S
C4140 C4135 1.490 . S
C4140 C4142 1.395 . S
C4140 C4143 1.403 . S
H4141 C4147 0.930 . S
C4142 H4128 0.930 . S
C4142 C4140 1.395 . S
C4142 C4145 1.403 . S
C4143 C4140 1.403 . S
C4143 C4144 1.524 . S
C4143 C4147 1.400 . S
C4144 H4129 0.960 . S
C4144 H4130 0.960 . S
C4144 H4131 0.960 . S
C4144 C4143 1.524 . S
C4145 C4142 1.403 . S
C4145 C4146 1.392 . S
C4145 C4149 1.495 . S
C4146 C4145 1.392 . S
C4146 C4147 1.385 . S
C4146 C4148 1.478 . S
C4147 H4141 0.930 . S
C4147 C4143 1.400 . S
C4147 C4146 1.385 . S
C4148 C4146 1.478 . S
C4148 C4150 1.381 . S
C4148 C4154 1.383 . S
C4149 C4145 1.495 . S
C4149 H4155 0.959 . S
C4149 H4156 0.961 . S
C4149 H4157 0.960 . S
C4150 C4148 1.381 . S
C4150 C4151 1.394 . S
C4150 H4158 0.930 . S
C4151 C4150 1.394 . S
C4151 C4152 1.383 . S
C4151 H4159 0.929 . S
C4152 C4151 1.383 . S
C4152 C4153 1.377 . S
C4153 H4137 0.930 . S
C4153 C4152 1.377 . S
C4153 C4154 1.379 . S
C4154 H4138 0.931 . S
C4154 C4148 1.383 . S
C4154 C4153 1.379 . S
H4155 C4149 0.959 . S
H4156 C4149 0.961 . S
H4157 C4149 0.960 . S
H4158 C4150 0.930 . S
H4159 C4151 0.929 . S
H4160 C4168 0.929 . S
H4161 C4170 0.930 . S
H4162 C4172 0.930 . S
H4163 C4175 0.929 . S
H4164 C4178 0.930 . S
H4165 C4180 0.960 . S
H4166 C4180 0.960 . S
H4167 C4180 0.960 . S
C4168 H4160 0.929 . S
C4168 C4169 1.377 . S
C4168 C4170 1.384 . S
C4169 C4168 1.377 . S
C4169 C4175 1.390 . S
C4170 H4161 0.930 . S
C4170 C4168 1.384 . S
C4170 C4171 1.372 . S
C4171 C4170 1.372 . S
C4171 C4172 1.400 . S
C4171 C4176 1.490 . S
C4172 H4162 0.930 . S
C4172 C4171 1.400 . S
C4172 C4175 1.386 . S
H4173 C4189 0.930 . S
H4174 C4190 0.931 . S
C4175 H4163 0.929 . S
C4175 C4169 1.390 . S
C4175 C4172 1.386 . S
C4176 C4171 1.490 . S
C4176 C4178 1.395 . S
C4176 C4179 1.403 . S
H4177 C4183 0.930 . S
C4178 H4164 0.930 . S
C4178 C4176 1.395 . S
C4178 C4181 1.403 1_545 S
C4179 C4176 1.403 . S
C4179 C4180 1.524 . S
C4179 C4183 1.400 1_545 S
C4180 H4165 0.960 . S
C4180 H4166 0.960 . S
C4180 H4167 0.960 . S
C4180 C4179 1.524 . S
C4181 C4178 1.403 1_565 S
C4181 C4182 1.392 . S
C4181 C4185 1.495 . S
C4182 C4181 1.392 . S
C4182 C4183 1.385 . S
C4182 C4184 1.478 . S
C4183 H4177 0.930 . S
C4183 C4179 1.400 1_565 S
C4183 C4182 1.385 . S
C4184 C4182 1.478 . S
C4184 C4186 1.381 . S
C4184 C4190 1.383 . S
C4185 C4181 1.495 . S
C4185 H4191 0.959 . S
C4185 H4192 0.961 . S
C4185 H4193 0.960 . S
C4186 C4184 1.381 . S
C4186 C4187 1.394 . S
C4186 H4194 0.930 . S
C4187 C4186 1.394 . S
C4187 C4188 1.383 . S
C4187 H4195 0.929 . S
C4188 C4187 1.383 . S
C4188 C4189 1.377 . S
C4189 H4173 0.930 . S
C4189 C4188 1.377 . S
C4189 C4190 1.379 . S
C4190 H4174 0.931 . S
C4190 C4184 1.383 . S
C4190 C4189 1.379 . S
H4191 C4185 0.959 . S
H4192 C4185 0.961 . S
H4193 C4185 0.960 . S
H4194 C4186 0.930 . S
H4195 C4187 0.929 . S
H4196 C4204 0.929 . S
H4197 C4206 0.930 . S
H4198 C4208 0.930 . S
H4199 C4211 0.929 . S
H4200 C4214 0.930 1_545 S
H4201 C4216 0.960 . S
H4202 C4216 0.960 . S
H4203 C4216 0.960 . S
C4204 H4196 0.929 . S
C4204 C4205 1.377 . S
C4204 C4206 1.384 . S
C4205 C4204 1.377 . S
C4205 C4211 1.390 . S
C4206 H4197 0.930 . S
C4206 C4204 1.384 . S
C4206 C4207 1.372 . S
C4207 C4206 1.372 . S
C4207 C4208 1.400 . S
C4207 C4212 1.490 . S
C4208 H4198 0.930 . S
C4208 C4207 1.400 . S
C4208 C4211 1.386 . S
H4209 C4225 0.930 . S
H4210 C4226 0.931 . S
C4211 H4199 0.929 . S
C4211 C4205 1.390 . S
C4211 C4208 1.386 . S
C4212 C4207 1.490 . S
C4212 C4214 1.395 . S
C4212 C4215 1.403 . S
H4213 C4219 0.930 . S
C4214 H4200 0.930 1_565 S
C4214 C4212 1.395 . S
C4214 C4217 1.403 . S
C4215 C4212 1.403 . S
C4215 C4216 1.524 . S
C4215 C4219 1.400 . S
C4216 H4201 0.960 . S
C4216 H4202 0.960 . S
C4216 H4203 0.960 . S
C4216 C4215 1.524 . S
C4217 C4214 1.403 . S
C4217 C4218 1.392 . S
C4217 C4221 1.495 1_565 S
C4218 C4217 1.392 . S
C4218 C4219 1.385 . S
C4218 C4220 1.478 . S
C4219 H4213 0.930 . S
C4219 C4215 1.400 . S
C4219 C4218 1.385 . S
C4220 C4218 1.478 . S
C4220 C4222 1.381 . S
C4220 C4226 1.383 . S
C4221 C4217 1.495 1_545 S
C4221 H4227 0.959 . S
C4221 H4228 0.961 . S
C4221 H4229 0.960 . S
C4222 C4220 1.381 . S
C4222 C4223 1.394 . S
C4222 H4230 0.930 . S
C4223 C4222 1.394 . S
C4223 C4224 1.383 . S
C4223 H4231 0.929 . S
C4224 C4223 1.383 . S
C4224 C4225 1.377 . S
C4225 H4209 0.930 . S
C4225 C4224 1.377 . S
C4225 C4226 1.379 . S
C4226 H4210 0.931 . S
C4226 C4220 1.383 . S
C4226 C4225 1.379 . S
H4227 C4221 0.959 . S
H4228 C4221 0.961 . S
H4229 C4221 0.960 . S
H4230 C4222 0.930 . S
H4231 C4223 0.929 . S
H4232 C4240 0.929 . S
H4233 C4242 0.930 . S
H4234 C4244 0.930 . S
H4235 C4247 0.929 . S
H4236 C4250 0.930 . S
H4237 C4252 0.960 . S
H4238 C4252 0.960 1_545 S
H4239 C4252 0.960 . S
C4240 H4232 0.929 . S
C4240 C4241 1.377 . S
C4240 C4242 1.384 . S
C4241 C4240 1.377 . S
C4241 C4247 1.390 . S
C4242 H4233 0.930 . S
C4242 C4240 1.384 . S
C4242 C4243 1.372 . S
C4243 C4242 1.372 . S
C4243 C4244 1.400 . S
C4243 C4248 1.490 . S
C4244 H4234 0.930 . S
C4244 C4243 1.400 . S
C4244 C4247 1.386 . S
H4245 C4261 0.930 . S
H4246 C4262 0.931 . S
C4247 H4235 0.929 . S
C4247 C4241 1.390 . S
C4247 C4244 1.386 . S
C4248 C4243 1.490 . S
C4248 C4250 1.395 . S
C4248 C4251 1.403 1_545 S
H4249 C4255 0.930 . S
C4250 H4236 0.930 . S
C4250 C4248 1.395 . S
C4250 C4253 1.403 . S
C4251 C4248 1.403 1_565 S
C4251 C4252 1.524 . S
C4251 C4255 1.400 . S
C4252 H4237 0.960 . S
C4252 H4238 0.960 1_565 S
C4252 H4239 0.960 . S
C4252 C4251 1.524 . S
C4253 C4250 1.403 . S
C4253 C4254 1.392 1_545 S
C4253 C4257 1.495 . S
C4254 C4253 1.392 1_565 S
C4254 C4255 1.385 . S
C4254 C4256 1.478 . S
C4255 H4249 0.930 . S
C4255 C4251 1.400 . S
C4255 C4254 1.385 . S
C4256 C4254 1.478 . S
C4256 C4258 1.381 . S
C4256 C4262 1.383 . S
C4257 C4253 1.495 . S
C4257 H4263 0.959 . S
C4257 H4264 0.961 1_545 S
C4257 H4265 0.960 . S
C4258 C4256 1.381 . S
C4258 C4259 1.394 . S
C4258 H4266 0.930 . S
C4259 C4258 1.394 . S
C4259 C4260 1.383 . S
C4259 H4267 0.929 . S
C4260 C4259 1.383 . S
C4260 C4261 1.377 . S
C4261 H4245 0.930 . S
C4261 C4260 1.377 . S
C4261 C4262 1.379 . S
C4262 H4246 0.931 . S
C4262 C4256 1.383 . S
C4262 C4261 1.379 . S
H4263 C4257 0.959 . S
H4264 C4257 0.961 1_565 S
H4265 C4257 0.960 . S
H4266 C4258 0.930 . S
H4267 C4259 0.929 . S
H4268 C4276 0.929 . S
H4269 C4278 0.930 . S
H4270 C4280 0.931 . S
H4271 C4283 0.894 1_565 S
H4272 C4286 0.930 . S
H4273 C4288 0.960 . S
H4274 C4288 0.960 . S
H4275 C4288 0.960 . S
C4276 H4268 0.929 . S
C4276 C4277 1.377 . S
C4276 C4278 1.384 . S
C4277 C4276 1.377 . S
C4277 C4283 1.390 . S
C4278 H4269 0.930 . S
C4278 C4276 1.384 . S
C4278 C4279 1.372 . S
C4279 C4278 1.372 . S
C4279 C4280 1.400 . S
C4279 C4284 1.490 . S
C4280 H4270 0.931 . S
C4280 C4279 1.400 . S
C4280 C4283 1.386 . S
H4281 C4297 0.900 1_565 S
H4282 C4298 0.941 . S
C4283 H4271 0.894 1_545 S
C4283 C4277 1.390 . S
C4283 C4280 1.386 . S
C4284 C4279 1.490 . S
C4284 C4286 1.395 1_556 S
C4284 C4287 1.403 . S
H4285 C4291 0.930 . S
C4286 H4272 0.930 . S
C4286 C4284 1.395 1_554 S
C4286 C4289 1.403 . S
C4287 C4284 1.403 . S
C4287 C4288 1.524 . S
C4287 C4291 1.400 . S
C4288 H4273 0.960 . S
C4288 H4274 0.960 . S
C4288 H4275 0.960 . S
C4288 C4287 1.524 . S
C4289 C4286 1.403 . S
C4289 C4290 1.392 . S
C4289 C4293 1.495 . S
C4290 C4289 1.392 . S
C4290 C4291 1.385 1_554 S
C4290 C4292 1.478 . S
C4291 H4285 0.930 . S
C4291 C4287 1.400 . S
C4291 C4290 1.385 1_556 S
C4292 C4290 1.478 . S
C4292 C4294 1.381 . S
C4292 C4298 1.383 . S
C4293 C4289 1.495 . S
C4293 H4299 0.959 . S
C4293 H4300 0.961 . S
C4293 H4301 0.960 . S
C4294 C4292 1.381 . S
C4294 C4295 1.394 . S
C4294 H4302 0.930 . S
C4295 C4294 1.394 . S
C4295 C4296 1.383 . S
C4295 H4303 0.929 . S
C4296 C4295 1.383 . S
C4296 C4297 1.377 . S
C4297 H4281 0.900 1_545 S
C4297 C4296 1.377 . S
C4297 C4298 1.379 . S
C4298 H4282 0.941 . S
C4298 C4292 1.383 . S
C4298 C4297 1.379 . S
H4299 C4293 0.959 . S
H4300 C4293 0.961 . S
H4301 C4293 0.960 . S
H4302 C4294 0.930 . S
H4303 C4295 0.929 . S
H4304 C4312 0.929 . S
H4305 C4314 0.930 . S
H4306 C4316 0.930 . S
H4307 C4319 0.929 . S
H4308 C4322 0.930 . S
H4309 C4324 0.960 . S
H4310 C4324 0.960 . S
H4311 C4324 0.960 . S
C4312 H4304 0.929 . S
C4312 C4313 1.377 . S
C4312 C4314 1.384 . S
C4313 C4312 1.377 . S
C4313 C4319 1.390 . S
C4314 H4305 0.930 . S
C4314 C4312 1.384 . S
C4314 C4315 1.372 . S
C4315 C4314 1.372 . S
C4315 C4316 1.400 . S
C4315 C4320 1.490 . S
C4316 H4306 0.930 . S
C4316 C4315 1.400 . S
C4316 C4319 1.386 . S
H4317 C4333 0.930 . S
H4318 C4334 0.931 . S
C4319 H4307 0.929 . S
C4319 C4313 1.390 . S
C4319 C4316 1.386 . S
C4320 C4315 1.490 . S
C4320 C4322 1.395 1_565 S
C4320 C4323 1.403 . S
H4321 C4327 0.932 . S
C4322 H4308 0.930 . S
C4322 C4320 1.395 1_545 S
C4322 C4325 1.403 . S
C4323 C4320 1.403 . S
C4323 C4324 1.524 . S
C4323 C4327 1.400 1_565 S
C4324 H4309 0.960 . S
C4324 H4310 0.960 . S
C4324 H4311 0.960 . S
C4324 C4323 1.524 . S
C4325 C4322 1.403 . S
C4325 C4326 1.392 . S
C4325 C4329 1.495 . S
C4326 C4325 1.392 . S
C4326 C4327 1.385 . S
C4326 C4328 1.478 . S
C4327 H4321 0.932 . S
C4327 C4323 1.400 1_545 S
C4327 C4326 1.385 . S
C4328 C4326 1.478 . S
C4328 C4330 1.381 . S
C4328 C4334 1.383 . S
C4329 C4325 1.495 . S
C4329 H4335 0.959 . S
C4329 H4336 0.961 . S
C4329 H4337 0.960 . S
C4330 C4328 1.381 . S
C4330 C4331 1.394 . S
C4330 H4338 0.930 . S
C4331 C4330 1.394 . S
C4331 C4332 1.383 . S
C4331 H4339 0.929 . S
C4332 C4331 1.383 . S
C4332 C4333 1.377 . S
C4333 H4317 0.930 . S
C4333 C4332 1.377 . S
C4333 C4334 1.379 . S
C4334 H4318 0.931 . S
C4334 C4328 1.383 . S
C4334 C4333 1.379 . S
H4335 C4329 0.959 . S
H4336 C4329 0.961 . S
H4337 C4329 0.960 . S
H4338 C4330 0.930 . S
H4339 C4331 0.929 . S
H4340 C4348 0.929 . S
H4341 C4350 0.930 . S
H4342 C4352 0.930 . S
H4343 C4355 0.929 . S
H4344 C4358 0.930 . S
H4345 C4360 0.960 . S
H4346 C4360 0.960 . S
H4347 C4360 0.960 . S
C4348 H4340 0.929 . S
C4348 C4349 1.377 . S
C4348 C4350 1.384 . S
C4349 C4348 1.377 . S
C4349 C4355 1.390 . S
C4350 H4341 0.930 . S
C4350 C4348 1.384 . S
C4350 C4351 1.372 . S
C4351 C4350 1.372 . S
C4351 C4352 1.400 . S
C4351 C4356 1.490 . S
C4352 H4342 0.930 . S
C4352 C4351 1.400 . S
C4352 C4355 1.386 . S
H4353 C4369 0.930 . S
H4354 C4370 0.931 . S
C4355 H4343 0.929 . S
C4355 C4349 1.390 . S
C4355 C4352 1.386 . S
C4356 C4351 1.490 . S
C4356 C4358 1.395 . S
C4356 C4359 1.403 . S
H4357 C4363 0.930 . S
C4358 H4344 0.930 . S
C4358 C4356 1.395 . S
C4358 C4361 1.403 . S
C4359 C4356 1.403 . S
C4359 C4360 1.524 . S
C4359 C4363 1.400 . S
C4360 H4345 0.960 . S
C4360 H4346 0.960 . S
C4360 H4347 0.960 . S
C4360 C4359 1.524 . S
C4361 C4358 1.403 . S
C4361 C4362 1.392 . S
C4361 C4365 1.495 . S
C4362 C4361 1.392 . S
C4362 C4363 1.385 . S
C4362 C4364 1.478 . S
C4363 H4357 0.930 . S
C4363 C4359 1.400 . S
C4363 C4362 1.385 . S
C4364 C4362 1.478 . S
C4364 C4366 1.381 . S
C4364 C4370 1.383 . S
C4365 C4361 1.495 . S
C4365 H4371 0.959 . S
C4365 H4372 0.961 . S
C4365 H4373 0.960 . S
C4366 C4364 1.381 . S
C4366 C4367 1.394 . S
C4366 H4374 0.935 . S
C4367 C4366 1.394 . S
C4367 C4368 1.383 . S
C4367 H4375 0.937 . S
C4368 C4367 1.383 . S
C4368 C4369 1.377 . S
C4369 H4353 0.930 . S
C4369 C4368 1.377 . S
C4369 C4370 1.379 . S
C4370 H4354 0.931 . S
C4370 C4364 1.383 . S
C4370 C4369 1.379 . S
H4371 C4365 0.959 . S
H4372 C4365 0.961 . S
H4373 C4365 0.960 . S
H4374 C4366 0.935 . S
H4375 C4367 0.937 . S
H4376 C4384 0.929 . S
H4377 C4386 0.930 . S
H4378 C4388 0.930 . S
H4379 C4391 0.929 . S
H4380 C4394 0.930 . S
H4381 C4396 0.959 . S
H4382 C4396 0.961 1_565 S
H4383 C4396 0.960 1_565 S
C4384 H4376 0.929 . S
C4384 C4385 1.377 . S
C4384 C4386 1.384 . S
C4385 C4384 1.377 . S
C4385 C4391 1.390 . S
C4386 H4377 0.930 . S
C4386 C4384 1.384 . S
C4386 C4387 1.372 . S
C4387 C4386 1.372 . S
C4387 C4388 1.400 . S
C4387 C4392 1.490 . S
C4388 H4378 0.930 . S
C4388 C4387 1.400 . S
C4388 C4391 1.386 . S
H4389 C4405 0.930 . S
H4390 C4406 0.931 . S
C4391 H4379 0.929 . S
C4391 C4385 1.390 . S
C4391 C4388 1.386 . S
C4392 C4387 1.490 . S
C4392 C4394 1.395 . S
C4392 C4395 1.403 . S
H4393 C4399 0.930 . S
C4394 H4380 0.930 . S
C4394 C4392 1.395 . S
C4394 C4397 1.403 . S
C4395 C4392 1.403 . S
C4395 C4396 1.524 1_565 S
C4395 C4399 1.400 1_565 S
C4396 H4381 0.959 . S
C4396 H4382 0.961 1_545 S
C4396 H4383 0.960 1_545 S
C4396 C4395 1.524 1_545 S
C4397 C4394 1.403 . S
C4397 C4398 1.392 1_565 S
C4397 C4401 1.495 . S
C4398 C4397 1.392 1_545 S
C4398 C4399 1.385 . S
C4398 C4400 1.478 . S
C4399 H4393 0.930 . S
C4399 C4395 1.400 1_545 S
C4399 C4398 1.385 . S
C4400 C4398 1.478 . S
C4400 C4402 1.381 . S
C4400 C4406 1.383 . S
C4401 C4397 1.495 . S
C4401 H4407 0.959 . S
C4401 H4408 0.961 1_565 S
C4401 H4409 0.960 . S
C4402 C4400 1.381 . S
C4402 C4403 1.394 . S
C4402 H4410 0.930 . S
C4403 C4402 1.394 . S
C4403 C4404 1.383 . S
C4403 H4411 0.929 . S
C4404 C4403 1.383 . S
C4404 C4405 1.377 . S
C4405 H4389 0.930 . S
C4405 C4404 1.377 . S
C4405 C4406 1.379 . S
C4406 H4390 0.931 . S
C4406 C4400 1.383 . S
C4406 C4405 1.379 . S
H4407 C4401 0.959 . S
H4408 C4401 0.961 1_545 S
H4409 C4401 0.960 . S
H4410 C4402 0.930 . S
H4411 C4403 0.929 . S
H4412 C4420 0.929 . S
H4413 C4422 0.930 . S
H4414 C4424 0.930 . S
H4415 C4427 0.929 . S
H4416 C4430 0.930 . S
H4417 C4432 0.941 1_545 S
H4418 C4432 0.932 1_545 S
H4419 C4432 0.981 . S
C4420 H4412 0.929 . S
C4420 C4421 1.377 . S
C4420 C4422 1.384 . S
C4421 C4420 1.377 . S
C4421 C4427 1.390 . S
C4422 H4413 0.930 . S
C4422 C4420 1.384 . S
C4422 C4423 1.372 . S
C4423 C4422 1.372 . S
C4423 C4424 1.400 . S
C4423 C4428 1.490 . S
C4424 H4414 0.930 . S
C4424 C4423 1.400 . S
C4424 C4427 1.386 . S
H4425 C4441 0.930 . S
H4426 C4442 0.931 . S
C4427 H4415 0.929 . S
C4427 C4421 1.390 . S
C4427 C4424 1.386 . S
C4428 C4423 1.490 . S
C4428 C4430 1.395 1_554 S
C4428 C4431 1.403 . S
H4429 C4435 0.939 . S
C4430 H4416 0.930 . S
C4430 C4428 1.395 1_556 S
C4430 C4433 1.403 . S
C4431 C4428 1.403 . S
C4431 C4432 1.553 . S
C4431 C4435 1.433 . S
C4432 H4417 0.941 1_565 S
C4432 H4418 0.932 1_565 S
C4432 H4419 0.981 . S
C4432 C4431 1.553 . S
C4433 C4430 1.403 . S
C4433 C4434 1.392 . S
C4433 C4437 1.495 . S
C4434 C4433 1.392 . S
C4434 C4435 1.346 1_556 S
C4434 C4436 1.478 . S
C4435 H4429 0.939 . S
C4435 C4431 1.433 . S
C4435 C4434 1.346 1_554 S
C4436 C4434 1.478 . S
C4436 C4438 1.381 . S
C4436 C4442 1.383 . S
C4437 C4433 1.495 . S
C4437 H4443 0.959 . S
C4437 H4444 0.961 . S
C4437 H4445 0.960 . S
C4438 C4436 1.381 . S
C4438 C4439 1.394 . S
C4438 H4446 0.930 . S
C4439 C4438 1.394 . S
C4439 C4440 1.383 . S
C4439 H4447 0.929 . S
C4440 C4439 1.383 . S
C4440 C4441 1.377 . S
C4441 H4425 0.930 . S
C4441 C4440 1.377 . S
C4441 C4442 1.379 . S
C4442 H4426 0.931 . S
C4442 C4436 1.383 . S
C4442 C4441 1.379 . S
H4443 C4437 0.959 . S
H4444 C4437 0.961 . S
H4445 C4437 0.960 . S
H4446 C4438 0.930 . S
H4447 C4439 0.929 . S
H4448 C4456 0.929 . S
H4449 C4458 0.930 . S
H4450 C4460 0.930 . S
H4451 C4463 0.929 . S
H4452 C4466 0.930 . S
H4453 C4468 0.960 . S
H4454 C4468 0.960 . S
H4455 C4468 0.960 . S
C4456 H4448 0.929 . S
C4456 C4457 1.377 . S
C4456 C4458 1.384 . S
C4457 C4456 1.377 . S
C4457 C4463 1.390 . S
C4458 H4449 0.930 . S
C4458 C4456 1.384 . S
C4458 C4459 1.372 . S
C4459 C4458 1.372 . S
C4459 C4460 1.400 . S
C4459 C4464 1.490 . S
C4460 H4450 0.930 . S
C4460 C4459 1.400 . S
C4460 C4463 1.386 . S
H4461 C4477 0.930 . S
H4462 C4478 0.931 . S
C4463 H4451 0.929 . S
C4463 C4457 1.390 . S
C4463 C4460 1.386 . S
C4464 C4459 1.490 . S
C4464 C4466 1.395 . S
C4464 C4467 1.403 . S
H4465 C4471 0.930 . S
C4466 H4452 0.930 . S
C4466 C4464 1.395 . S
C4466 C4469 1.403 . S
C4467 C4464 1.403 . S
C4467 C4468 1.524 . S
C4467 C4471 1.400 . S
C4468 H4453 0.960 . S
C4468 H4454 0.960 . S
C4468 H4455 0.960 . S
C4468 C4467 1.524 . S
C4469 C4466 1.403 . S
C4469 C4470 1.392 . S
C4469 C4473 1.495 . S
C4470 C4469 1.392 . S
C4470 C4471 1.385 . S
C4470 C4472 1.478 . S
C4471 H4465 0.930 . S
C4471 C4467 1.400 . S
C4471 C4470 1.385 . S
C4472 C4470 1.478 . S
C4472 C4474 1.381 . S
C4472 C4478 1.383 . S
C4473 C4469 1.495 . S
C4473 H4479 0.959 . S
C4473 H4480 0.961 . S
C4473 H4481 0.960 . S
C4474 C4472 1.381 . S
C4474 C4475 1.394 . S
C4474 H4482 0.930 . S
C4475 C4474 1.394 . S
C4475 C4476 1.383 . S
C4475 H4483 0.929 . S
C4476 C4475 1.383 . S
C4476 C4477 1.377 . S
C4477 H4461 0.930 . S
C4477 C4476 1.377 . S
C4477 C4478 1.379 . S
C4478 H4462 0.931 . S
C4478 C4472 1.383 . S
C4478 C4477 1.379 . S
H4479 C4473 0.959 . S
H4480 C4473 0.961 . S
H4481 C4473 0.960 . S
H4482 C4474 0.930 . S
H4483 C4475 0.929 . S
H4484 C4492 0.929 . S
H4485 C4494 0.930 . S
H4486 C4496 0.930 . S
H4487 C4499 0.929 . S
H4488 C4502 0.930 . S
H4489 C4504 0.960 . S
H4490 C4504 0.960 . S
H4491 C4504 0.960 . S
C4492 H4484 0.929 . S
C4492 C4493 1.377 . S
C4492 C4494 1.384 . S
C4493 C4492 1.377 . S
C4493 C4499 1.390 . S
C4494 H4485 0.930 . S
C4494 C4492 1.384 . S
C4494 C4495 1.372 . S
C4495 C4494 1.372 . S
C4495 C4496 1.400 . S
C4495 C4500 1.490 . S
C4496 H4486 0.930 . S
C4496 C4495 1.400 . S
C4496 C4499 1.386 . S
H4497 C4513 0.930 . S
H4498 C4514 0.931 . S
C4499 H4487 0.929 . S
C4499 C4493 1.390 . S
C4499 C4496 1.386 . S
C4500 C4495 1.490 . S
C4500 C4502 1.395 1_556 S
C4500 C4503 1.403 . S
H4501 C4507 0.930 . S
C4502 H4488 0.930 . S
C4502 C4500 1.395 1_554 S
C4502 C4505 1.403 . S
C4503 C4500 1.403 . S
C4503 C4504 1.524 . S
C4503 C4507 1.400 . S
C4504 H4489 0.960 . S
C4504 H4490 0.960 . S
C4504 H4491 0.960 . S
C4504 C4503 1.524 . S
C4505 C4502 1.403 . S
C4505 C4506 1.392 . S
C4505 C4509 1.495 . S
C4506 C4505 1.392 . S
C4506 C4507 1.385 1_554 S
C4506 C4508 1.478 . S
C4507 H4501 0.930 . S
C4507 C4503 1.400 . S
C4507 C4506 1.385 1_556 S
C4508 C4506 1.478 . S
C4508 C4510 1.381 . S
C4508 C4514 1.383 . S
C4509 C4505 1.495 . S
C4509 H4515 0.959 . S
C4509 H4516 0.961 . S
C4509 H4517 0.960 . S
C4510 C4508 1.381 . S
C4510 C4511 1.394 . S
C4510 H4518 0.930 . S
C4511 C4510 1.394 . S
C4511 C4512 1.383 . S
C4511 H4519 0.929 . S
C4512 C4511 1.383 . S
C4512 C4513 1.377 . S
C4513 H4497 0.930 . S
C4513 C4512 1.377 . S
C4513 C4514 1.379 . S
C4514 H4498 0.931 . S
C4514 C4508 1.383 . S
C4514 C4513 1.379 . S
H4515 C4509 0.959 . S
H4516 C4509 0.961 . S
H4517 C4509 0.960 . S
H4518 C4510 0.930 . S
H4519 C4511 0.929 . S
H4520 C4528 0.929 . S
H4521 C4530 0.930 . S
H4522 C4532 0.930 . S
H4523 C4535 0.929 . S
H4524 C4538 0.930 . S
H4525 C4540 0.960 . S
H4526 C4540 0.960 . S
H4527 C4540 0.960 . S
C4528 H4520 0.929 . S
C4528 C4529 1.377 . S
C4528 C4530 1.384 . S
C4529 C4528 1.377 . S
C4529 C4535 1.390 . S
C4530 H4521 0.930 . S
C4530 C4528 1.384 . S
C4530 C4531 1.372 . S
C4531 C4530 1.372 . S
C4531 C4532 1.400 . S
C4531 C4536 1.490 . S
C4532 H4522 0.930 . S
C4532 C4531 1.400 . S
C4532 C4535 1.386 . S
H4533 C4549 0.930 . S
H4534 C4550 0.931 . S
C4535 H4523 0.929 . S
C4535 C4529 1.390 . S
C4535 C4532 1.386 . S
C4536 C4531 1.490 . S
C4536 C4538 1.395 . S
C4536 C4539 1.403 . S
H4537 C4543 0.930 . S
C4538 H4524 0.930 . S
C4538 C4536 1.395 . S
C4538 C4541 1.403 . S
C4539 C4536 1.403 . S
C4539 C4540 1.524 . S
C4539 C4543 1.400 . S
C4540 H4525 0.960 . S
C4540 H4526 0.960 . S
C4540 H4527 0.960 . S
C4540 C4539 1.524 . S
C4541 C4538 1.403 . S
C4541 C4542 1.392 . S
C4541 C4545 1.495 . S
C4542 C4541 1.392 . S
C4542 C4543 1.385 . S
C4542 C4544 1.478 . S
C4543 H4537 0.930 . S
C4543 C4539 1.400 . S
C4543 C4542 1.385 . S
C4544 C4542 1.478 . S
C4544 C4546 1.381 . S
C4544 C4550 1.383 . S
C4545 C4541 1.495 . S
C4545 H4551 0.959 . S
C4545 H4552 0.961 . S
C4545 H4553 0.960 . S
C4546 C4544 1.381 . S
C4546 C4547 1.394 . S
C4546 H4554 0.930 . S
C4547 C4546 1.394 . S
C4547 C4548 1.383 . S
C4547 H4555 0.929 . S
C4548 C4547 1.383 . S
C4548 C4549 1.377 . S
C4549 H4533 0.930 . S
C4549 C4548 1.377 . S
C4549 C4550 1.379 . S
C4550 H4534 0.931 . S
C4550 C4544 1.383 . S
C4550 C4549 1.379 . S
H4551 C4545 0.959 . S
H4552 C4545 0.961 . S
H4553 C4545 0.960 . S
H4554 C4546 0.930 . S
H4555 C4547 0.929 . S
H4556 C4564 0.929 . S
H4557 C4566 0.930 . S
H4558 C4568 0.930 . S
H4559 C4571 0.929 . S
H4560 C4574 0.930 . S
H4561 C4576 0.960 . S
H4562 C4576 0.960 . S
H4563 C4576 0.960 . S
C4564 H4556 0.929 . S
C4564 C4565 1.377 . S
C4564 C4566 1.384 . S
C4565 C4564 1.377 . S
C4565 C4571 1.390 . S
C4566 H4557 0.930 . S
C4566 C4564 1.384 . S
C4566 C4567 1.372 . S
C4567 C4566 1.372 . S
C4567 C4568 1.400 . S
C4567 C4572 1.490 . S
C4568 H4558 0.930 . S
C4568 C4567 1.400 . S
C4568 C4571 1.386 . S
H4569 C4585 0.930 . S
H4570 C4586 0.931 . S
C4571 H4559 0.929 . S
C4571 C4565 1.390 . S
C4571 C4568 1.386 . S
C4572 C4567 1.490 . S
C4572 C4574 1.395 . S
C4572 C4575 1.403 . S
H4573 C4579 0.930 . S
C4574 H4560 0.930 . S
C4574 C4572 1.395 . S
C4574 C4577 1.403 . S
C4575 C4572 1.403 . S
C4575 C4576 1.524 . S
C4575 C4579 1.400 . S
C4576 H4561 0.960 . S
C4576 H4562 0.960 . S
C4576 H4563 0.960 . S
C4576 C4575 1.524 . S
C4577 C4574 1.403 . S
C4577 C4578 1.392 . S
C4577 C4581 1.495 . S
C4578 C4577 1.392 . S
C4578 C4579 1.385 . S
C4578 C4580 1.478 . S
C4579 H4573 0.930 . S
C4579 C4575 1.400 . S
C4579 C4578 1.385 . S
C4580 C4578 1.478 . S
C4580 C4582 1.381 . S
C4580 C4586 1.383 . S
C4581 C4577 1.495 . S
C4581 H4587 0.959 . S
C4581 H4588 0.961 . S
C4581 H4589 0.960 . S
C4582 C4580 1.381 . S
C4582 C4583 1.394 . S
C4582 H4590 0.930 . S
C4583 C4582 1.394 . S
C4583 C4584 1.383 . S
C4583 H4591 0.929 . S
C4584 C4583 1.383 . S
C4584 C4585 1.377 . S
C4585 H4569 0.930 . S
C4585 C4584 1.377 . S
C4585 C4586 1.379 . S
C4586 H4570 0.931 . S
C4586 C4580 1.383 . S
C4586 C4585 1.379 . S
H4587 C4581 0.959 . S
H4588 C4581 0.961 . S
H4589 C4581 0.960 . S
H4590 C4582 0.930 . S
H4591 C4583 0.929 . S
H4592 C4600 0.929 . S
H4593 C4602 0.930 . S
H4594 C4604 0.930 . S
H4595 C4607 0.929 . S
H4596 C4610 0.930 . S
H4597 C4612 0.960 . S
H4598 C4612 0.960 . S
H4599 C4612 0.960 . S
C4600 H4592 0.929 . S
C4600 C4601 1.377 . S
C4600 C4602 1.384 . S
C4601 C4600 1.377 . S
C4601 C4607 1.390 . S
C4602 H4593 0.930 . S
C4602 C4600 1.384 . S
C4602 C4603 1.372 . S
C4603 C4602 1.372 . S
C4603 C4604 1.400 . S
C4603 C4608 1.490 . S
C4604 H4594 0.930 . S
C4604 C4603 1.400 . S
C4604 C4607 1.386 . S
H4605 C4621 0.930 . S
H4606 C4622 0.931 . S
C4607 H4595 0.929 . S
C4607 C4601 1.390 . S
C4607 C4604 1.386 . S
C4608 C4603 1.490 . S
C4608 C4610 1.395 . S
C4608 C4611 1.403 . S
H4609 C4615 0.930 . S
C4610 H4596 0.930 . S
C4610 C4608 1.395 . S
C4610 C4613 1.403 . S
C4611 C4608 1.403 . S
C4611 C4612 1.524 . S
C4611 C4615 1.400 . S
C4612 H4597 0.960 . S
C4612 H4598 0.960 . S
C4612 H4599 0.960 . S
C4612 C4611 1.524 . S
C4613 C4610 1.403 . S
C4613 C4614 1.392 . S
C4613 C4617 1.495 . S
C4614 C4613 1.392 . S
C4614 C4615 1.385 . S
C4614 C4616 1.478 . S
C4615 H4609 0.930 . S
C4615 C4611 1.400 . S
C4615 C4614 1.385 . S
C4616 C4614 1.478 . S
C4616 C4618 1.381 . S
C4616 C4622 1.383 . S
C4617 C4613 1.495 . S
C4617 H4623 0.959 . S
C4617 H4624 0.961 . S
C4617 H4625 0.960 . S
C4618 C4616 1.381 . S
C4618 C4619 1.394 . S
C4618 H4626 0.930 . S
C4619 C4618 1.394 . S
C4619 C4620 1.383 . S
C4619 H4627 0.929 . S
C4620 C4619 1.383 . S
C4620 C4621 1.377 . S
C4621 H4605 0.930 . S
C4621 C4620 1.377 . S
C4621 C4622 1.379 . S
C4622 H4606 0.931 . S
C4622 C4616 1.383 . S
C4622 C4621 1.379 . S
H4623 C4617 0.959 . S
H4624 C4617 0.961 . S
H4625 C4617 0.960 . S
H4626 C4618 0.930 . S
H4627 C4619 0.929 . S
H4628 C4636 0.929 . S
H4629 C4638 0.930 . S
H4630 C4640 0.930 . S
H4631 C4643 0.929 . S
H4632 C4646 0.930 . S
H4633 C4648 0.960 . S
H4634 C4648 0.960 . S
H4635 C4648 0.960 . S
C4636 H4628 0.929 . S
C4636 C4637 1.377 . S
C4636 C4638 1.384 . S
C4637 C4636 1.377 . S
C4637 C4643 1.390 . S
C4638 H4629 0.930 . S
C4638 C4636 1.384 . S
C4638 C4639 1.372 . S
C4639 C4638 1.372 . S
C4639 C4640 1.400 . S
C4639 C4644 1.490 . S
C4640 H4630 0.930 . S
C4640 C4639 1.400 . S
C4640 C4643 1.386 . S
H4641 C4657 0.930 . S
H4642 C4658 0.931 . S
C4643 H4631 0.929 . S
C4643 C4637 1.390 . S
C4643 C4640 1.386 . S
C4644 C4639 1.490 . S
C4644 C4646 1.395 1_556 S
C4644 C4647 1.403 . S
H4645 C4651 0.930 . S
C4646 H4632 0.930 . S
C4646 C4644 1.395 1_554 S
C4646 C4649 1.403 . S
C4647 C4644 1.403 . S
C4647 C4648 1.524 . S
C4647 C4651 1.400 . S
C4648 H4633 0.960 . S
C4648 H4634 0.960 . S
C4648 H4635 0.960 . S
C4648 C4647 1.524 . S
C4649 C4646 1.403 . S
C4649 C4650 1.392 . S
C4649 C4653 1.495 . S
C4650 C4649 1.392 . S
C4650 C4651 1.385 1_554 S
C4650 C4652 1.478 . S
C4651 H4645 0.930 . S
C4651 C4647 1.400 . S
C4651 C4650 1.385 1_556 S
C4652 C4650 1.478 . S
C4652 C4654 1.381 . S
C4652 C4658 1.383 . S
C4653 C4649 1.495 . S
C4653 H4659 0.959 . S
C4653 H4660 0.961 . S
C4653 H4661 0.960 . S
C4654 C4652 1.381 . S
C4654 C4655 1.394 . S
C4654 H4662 0.930 . S
C4655 C4654 1.394 . S
C4655 C4656 1.383 . S
C4655 H4663 0.929 . S
C4656 C4655 1.383 . S
C4656 C4657 1.377 . S
C4657 H4641 0.930 . S
C4657 C4656 1.377 . S
C4657 C4658 1.379 . S
C4658 H4642 0.931 . S
C4658 C4652 1.383 . S
C4658 C4657 1.379 . S
H4659 C4653 0.959 . S
H4660 C4653 0.961 . S
H4661 C4653 0.960 . S
H4662 C4654 0.930 . S
H4663 C4655 0.929 . S
H4664 C4672 0.929 . S
H4665 C4674 0.930 . S
H4666 C4676 0.930 . S
H4667 C4679 0.929 . S
H4668 C4682 0.930 . S
H4669 C4684 0.960 . S
H4670 C4684 0.960 . S
H4671 C4684 0.960 . S
C4672 H4664 0.929 . S
C4672 C4673 1.377 . S
C4672 C4674 1.384 . S
C4673 C4672 1.377 . S
C4673 C4679 1.390 . S
C4674 H4665 0.930 . S
C4674 C4672 1.384 . S
C4674 C4675 1.372 . S
C4675 C4674 1.372 . S
C4675 C4676 1.400 . S
C4675 C4680 1.490 . S
C4676 H4666 0.930 . S
C4676 C4675 1.400 . S
C4676 C4679 1.386 . S
H4677 C4693 0.930 . S
H4678 C4694 0.931 . S
C4679 H4667 0.929 . S
C4679 C4673 1.390 . S
C4679 C4676 1.386 . S
C4680 C4675 1.490 . S
C4680 C4682 1.395 . S
C4680 C4683 1.403 . S
H4681 C4687 0.930 . S
C4682 H4668 0.930 . S
C4682 C4680 1.395 . S
C4682 C4685 1.403 . S
C4683 C4680 1.403 . S
C4683 C4684 1.524 . S
C4683 C4687 1.400 . S
C4684 H4669 0.960 . S
C4684 H4670 0.960 . S
C4684 H4671 0.960 . S
C4684 C4683 1.524 . S
C4685 C4682 1.403 . S
C4685 C4686 1.392 . S
C4685 C4689 1.495 . S
C4686 C4685 1.392 . S
C4686 C4687 1.385 . S
C4686 C4688 1.478 . S
C4687 H4681 0.930 . S
C4687 C4683 1.400 . S
C4687 C4686 1.385 . S
C4688 C4686 1.478 . S
C4688 C4690 1.381 . S
C4688 C4694 1.383 . S
C4689 C4685 1.495 . S
C4689 H4695 0.959 . S
C4689 H4696 0.961 . S
C4689 H4697 0.960 . S
C4690 C4688 1.381 . S
C4690 C4691 1.394 . S
C4690 H4698 0.930 . S
C4691 C4690 1.394 . S
C4691 C4692 1.383 . S
C4691 H4699 0.929 . S
C4692 C4691 1.383 . S
C4692 C4693 1.377 . S
C4693 H4677 0.930 . S
C4693 C4692 1.377 . S
C4693 C4694 1.379 . S
C4694 H4678 0.931 . S
C4694 C4688 1.383 . S
C4694 C4693 1.379 . S
H4695 C4689 0.959 . S
H4696 C4689 0.961 . S
H4697 C4689 0.960 . S
H4698 C4690 0.930 . S
H4699 C4691 0.929 . S
H4700 C4708 0.929 . S
H4701 C4710 0.930 . S
H4702 C4712 0.930 . S
H4703 C4715 0.929 . S
H4704 C4718 0.930 . S
H4705 C4720 0.960 . S
H4706 C4720 0.960 . S
H4707 C4720 0.960 . S
C4708 H4700 0.929 . S
C4708 C4709 1.377 . S
C4708 C4710 1.384 . S
C4709 C4708 1.377 . S
C4709 C4715 1.390 . S
C4710 H4701 0.930 . S
C4710 C4708 1.384 . S
C4710 C4711 1.372 . S
C4711 C4710 1.372 . S
C4711 C4712 1.400 . S
C4711 C4716 1.490 . S
C4712 H4702 0.930 . S
C4712 C4711 1.400 . S
C4712 C4715 1.386 . S
H4713 C4729 0.930 . S
H4714 C4730 0.931 . S
C4715 H4703 0.929 . S
C4715 C4709 1.390 . S
C4715 C4712 1.386 . S
C4716 C4711 1.490 . S
C4716 C4718 1.395 . S
C4716 C4719 1.403 . S
H4717 C4723 0.930 . S
C4718 H4704 0.930 . S
C4718 C4716 1.395 . S
C4718 C4721 1.403 . S
C4719 C4716 1.403 . S
C4719 C4720 1.524 . S
C4719 C4723 1.400 . S
C4720 H4705 0.960 . S
C4720 H4706 0.960 . S
C4720 H4707 0.960 . S
C4720 C4719 1.524 . S
C4721 C4718 1.403 . S
C4721 C4722 1.392 . S
C4721 C4725 1.495 . S
C4722 C4721 1.392 . S
C4722 C4723 1.385 . S
C4722 C4724 1.478 . S
C4723 H4717 0.930 . S
C4723 C4719 1.400 . S
C4723 C4722 1.385 . S
C4724 C4722 1.478 . S
C4724 C4726 1.381 . S
C4724 C4730 1.383 . S
C4725 C4721 1.495 . S
C4725 H4731 0.959 . S
C4725 H4732 0.961 . S
C4725 H4733 0.960 . S
C4726 C4724 1.381 . S
C4726 C4727 1.394 . S
C4726 H4734 0.930 . S
C4727 C4726 1.394 . S
C4727 C4728 1.383 . S
C4727 H4735 0.929 . S
C4728 C4727 1.383 . S
C4728 C4729 1.377 . S
C4729 H4713 0.930 . S
C4729 C4728 1.377 . S
C4729 C4730 1.379 . S
C4730 H4714 0.931 . S
C4730 C4724 1.383 . S
C4730 C4729 1.379 . S
H4731 C4725 0.959 . S
H4732 C4725 0.961 . S
H4733 C4725 0.960 . S
H4734 C4726 0.930 . S
H4735 C4727 0.929 . S
C1289 C7 0.435 . S
C1308 C1091 0.554 . S
C1325 C47 0.443 . S
C1344 C331 0.441 . S
C1361 C87 0.433 . S
C1380 C1011 0.403 . S
C1397 C411 0.486 . S
C1416 C127 0.487 . S
C1433 C167 0.449 . S
C1452 C1171 0.484 . S
C1469 C571 0.455 . S
C1488 C207 0.383 . S
C1505 C1251 0.473 . S
C1524 C247 0.380 . S
C1541 C287 0.446 . S
C1560 C491 0.455 . S
C1577 C336 0.439 . S
C1596 C762 0.434 . S
C1613 C376 0.442 . S
C1632 C2 0.449 . S
C1649 C682 0.452 . S
C1668 C416 0.412 . S
C1685 C82 0.486 . S
C1704 C456 0.474 . S
C1721 C496 0.422 . S
C1740 C842 0.501 . S
C1757 C536 0.449 . S
C1776 C242 0.543 . S
C1793 C576 0.422 . S
C1812 C922 0.398 . S
C1829 C162 0.453 . S
C1848 C616 0.417 . S
C1865 C451 0.464 . S
C1884 C647 0.502 . S
C1901 C971 0.453 . S
C1920 C687 0.408 . S
C1937 C371 0.470 . S
C1956 C727 0.371 . S
C1973 C767 0.444 . S
C1992 C1051 0.447 . S
C2009 C531 0.463 . S
C2028 C807 0.362 . S
C2045 C1211 0.483 . S
C2064 C847 0.513 . S
C2081 C611 0.467 . S
C2100 C887 0.364 . S
C2117 C927 0.433 . S
C2136 C1131 0.404 . S
C2153 C976 0.419 . S
C2172 C122 0.403 . S
C2189 C1016 0.440 . S
C2208 C642 0.440 . S
C2225 C1056 0.417 . S
C2244 C42 0.452 . S
C2261 C1096 0.448 . S
C2280 C722 0.489 . S
C2297 C202 0.482 . S
C2316 C1136 0.439 . S
C2333 C882 0.461 . S
C2352 C1176 0.479 . S
C2369 C1216 0.421 . S
C2388 C282 0.495 . S
C2405 C1256 0.426 . S
C2424 C802 0.398 . S
C2441 C19 2.395 . S
C2460 C739 2.405 . S
C2477 C779 2.397 . S
C2496 C59 2.409 . S
C2513 C99 2.397 . S
C2532 C659 2.408 . S
C2549 C139 2.397 . S
C2568 C699 2.409 . S
C2585 C899 2.397 . S
C2604 C179 2.387 . S
C2621 C219 2.398 . S
C2640 C939 2.393 . S
C2657 C819 2.390 . S
C2676 C259 2.374 . S
C2693 C299 2.398 . S
C2712 C859 2.402 . S
C2729 C1050 2.395 . S
C2748 C330 2.409 . S
C2765 C370 2.396 . S
C2784 C1090 2.409 . S
C2801 C410 2.391 . S
C2820 C970 2.372 . S
C2837 C450 2.396 . S
C2856 C1010 2.409 . S
C2873 C1210 2.392 . S
C2892 C490 2.399 . S
C2909 C1250 2.394 . S
C2928 C530 2.408 . S
C2945 C570 2.394 . S
C2964 C1130 2.408 . S
C2981 C610 2.391 . S
C3000 C1170 2.392 . S
C3017 C11 3.158 . S
C3036 C962 3.162 . S
C3053 C362 3.161 . S
C3072 C51 3.160 . S
C3089 C91 3.160 . S
C3108 C1042 3.149 . S
C3125 C131 3.158 . S
C3144 C442 3.163 . S
C3161 C1122 3.157 . S
C3180 C171 3.157 . S
C3197 C522 3.156 . S
C3216 C211 3.143 . S
C3233 C251 3.156 . S
C3252 C1202 3.152 . S
C3269 C291 3.159 . S
C3288 C602 3.164 . S
C3305 C651 3.160 . S
C3324 C322 3.149 . S
C3341 C731 3.157 . S
C3360 C402 3.142 . S
C3377 C811 3.160 . S
C3396 C482 3.153 . S
C3413 C562 3.158 . S
C3432 C891 3.162 . S
C3449 C691 3.159 . S
C3468 C1002 3.164 . S
C3485 C771 3.156 . S
C3504 C1082 3.151 . S
C3521 C1162 3.160 . S
C3540 C851 3.164 . S
C3557 C1242 3.160 . S
C3576 C931 3.153 . S
C3593 C10 4.652 . S
C3612 C210 4.638 1_545 S
C3629 C250 4.652 . S
C3648 C50 4.638 1_545 S
C3665 C290 4.652 1_565 S
C3684 C90 4.637 . S
C3701 C170 4.651 . S
C3720 C130 4.645 1_565 S
C3737 C339 4.653 . S
C3756 C539 4.639 1_565 S
C3773 C379 4.656 1_565 S
C3792 C579 4.657 . S
C3809 C619 4.651 1_545 S
C3828 C419 4.640 . S
C3845 C459 4.655 1_545 S
C3864 C499 4.648 . S
C3881 C650 4.653 . S
C3900 C850 4.657 . S
C3917 C690 4.651 . S
C3936 C890 4.642 . S
C3953 C730 4.651 . S
C3972 C930 4.641 . S
C3989 C810 4.653 . S
C4008 C770 4.658 . S
C4025 C979 4.654 . S
C4044 C1179 4.643 . S
C4061 C1019 4.653 . S
C4080 C1219 4.638 . S
C4097 C1259 4.651 . S
C4116 C1059 4.638 . S
C4133 C1099 4.655 . S
C4152 C1139 4.646 . S
C4169 C16 0.911 . S
C4188 C176 0.914 . S
C4205 C56 0.917 . S
C4224 C216 0.923 . S
C4241 C256 0.911 . S
C4260 C96 0.895 . S
C4277 C296 0.907 . S
C4296 C136 0.882 . S
C4313 C327 0.913 . S
C4332 C487 0.940 . S
C4349 C527 0.912 . S
C4368 C367 0.884 . S
C4385 C567 0.917 . S
C4404 C407 0.885 . S
C4421 C607 0.917 . S
C4440 C447 0.885 . S
C4457 C656 0.919 . S
C4476 C816 0.941 . S
C4493 C856 0.909 . S
C4512 C696 0.887 . S
C4529 C736 0.916 . S
C4548 C896 0.921 . S
C4565 C936 0.916 . S
C4584 C776 0.933 . S
C4601 C1127 0.916 . S
C4620 C967 0.933 . S
C4637 C1007 0.911 . S
C4656 C1167 0.888 . S
C4673 C1047 0.907 . S
C4692 C1207 0.908 . S
C4709 C1087 0.915 . S
C4728 C1247 0.937 . S
