# Generated by pormake.
# Topology smd, (6)-cn, num edge types: 1
# Building blocks:
#     Node 0, Type 0, BuildingBlock: OJICUG_clean_sbu_0, # of connection points: 6
#     Node 1, Type 0, BuildingBlock: OJICUG_clean_sbu_0, # of connection points: 6
#     Node 2, Type 0, BuildingBlock: OJICUG_clean_sbu_0, # of connection points: 6
#     Node 3, Type 0, BuildingBlock: OJICUG_clean_sbu_0, # of connection points: 6
#     Node 4, Type 0, BuildingBlock: OJICUG_clean_sbu_0, # of connection points: 6
#     Node 5, Type 0, BuildingBlock: OJICUG_clean_sbu_0, # of connection points: 6
#     Node 6, Type 0, BuildingBlock: OJICUG_clean_sbu_0, # of connection points: 6
#     Node 7, Type 0, BuildingBlock: OJICUG_clean_sbu_0, # of connection points: 6
#     Node 8, Type 0, BuildingBlock: OJICUG_clean_sbu_0, # of connection points: 6
#     Node 9, Type 0, BuildingBlock: OJICUG_clean_sbu_0, # of connection points: 6
#     Node 10, Type 0, BuildingBlock: OJICUG_clean_sbu_0, # of connection points: 6
#     Node 11, Type 0, BuildingBlock: OJICUG_clean_sbu_0, # of connection points: 6
#     Node 12, Type 0, BuildingBlock: OJICUG_clean_sbu_0, # of connection points: 6
#     Node 13, Type 0, BuildingBlock: OJICUG_clean_sbu_0, # of connection points: 6
#     Node 14, Type 0, BuildingBlock: OJICUG_clean_sbu_0, # of connection points: 6
#     Node 15, Type 0, BuildingBlock: OJICUG_clean_sbu_0, # of connection points: 6
#     Node 16, Type 0, BuildingBlock: OJICUG_clean_sbu_0, # of connection points: 6
#     Node 17, Type 0, BuildingBlock: OJICUG_clean_sbu_0, # of connection points: 6
#     Edge 18, Type (0, 0), BuildingBlock: XIVTED_clean_linker_0, # of connection points: 2
#     Edge 19, Type (0, 0), BuildingBlock: XIVTED_clean_linker_0, # of connection points: 2
#     Edge 20, Type (0, 0), BuildingBlock: XIVTED_clean_linker_0, # of connection points: 2
#     Edge 21, Type (0, 0), BuildingBlock: XIVTED_clean_linker_0, # of connection points: 2
#     Edge 22, Type (0, 0), BuildingBlock: XIVTED_clean_linker_0, # of connection points: 2
#     Edge 23, Type (0, 0), BuildingBlock: XIVTED_clean_linker_0, # of connection points: 2
#     Edge 24, Type (0, 0), BuildingBlock: XIVTED_clean_linker_0, # of connection points: 2
#     Edge 25, Type (0, 0), BuildingBlock: XIVTED_clean_linker_0, # of connection points: 2
#     Edge 26, Type (0, 0), BuildingBlock: XIVTED_clean_linker_0, # of connection points: 2
#     Edge 27, Type (0, 0), BuildingBlock: XIVTED_clean_linker_0, # of connection points: 2
#     Edge 28, Type (0, 0), BuildingBlock: XIVTED_clean_linker_0, # of connection points: 2
#     Edge 29, Type (0, 0), BuildingBlock: XIVTED_clean_linker_0, # of connection points: 2
#     Edge 30, Type (0, 0), BuildingBlock: XIVTED_clean_linker_0, # of connection points: 2
#     Edge 31, Type (0, 0), BuildingBlock: XIVTED_clean_linker_0, # of connection points: 2
#     Edge 32, Type (0, 0), BuildingBlock: XIVTED_clean_linker_0, # of connection points: 2
#     Edge 33, Type (0, 0), BuildingBlock: XIVTED_clean_linker_0, # of connection points: 2
#     Edge 34, Type (0, 0), BuildingBlock: XIVTED_clean_linker_0, # of connection points: 2
#     Edge 35, Type (0, 0), BuildingBlock: XIVTED_clean_linker_0, # of connection points: 2
#     Edge 36, Type (0, 0), BuildingBlock: XIVTED_clean_linker_0, # of connection points: 2
#     Edge 37, Type (0, 0), BuildingBlock: XIVTED_clean_linker_0, # of connection points: 2
#     Edge 38, Type (0, 0), BuildingBlock: XIVTED_clean_linker_0, # of connection points: 2
#     Edge 39, Type (0, 0), BuildingBlock: XIVTED_clean_linker_0, # of connection points: 2
#     Edge 40, Type (0, 0), BuildingBlock: XIVTED_clean_linker_0, # of connection points: 2
#     Edge 41, Type (0, 0), BuildingBlock: XIVTED_clean_linker_0, # of connection points: 2
#     Edge 42, Type (0, 0), BuildingBlock: XIVTED_clean_linker_0, # of connection points: 2
#     Edge 43, Type (0, 0), BuildingBlock: XIVTED_clean_linker_0, # of connection points: 2
#     Edge 44, Type (0, 0), BuildingBlock: XIVTED_clean_linker_0, # of connection points: 2
#     Edge 45, Type (0, 0), BuildingBlock: XIVTED_clean_linker_0, # of connection points: 2
#     Edge 46, Type (0, 0), BuildingBlock: XIVTED_clean_linker_0, # of connection points: 2
#     Edge 47, Type (0, 0), BuildingBlock: XIVTED_clean_linker_0, # of connection points: 2
#     Edge 48, Type (0, 0), BuildingBlock: XIVTED_clean_linker_0, # of connection points: 2
#     Edge 49, Type (0, 0), BuildingBlock: XIVTED_clean_linker_0, # of connection points: 2
#     Edge 50, Type (0, 0), BuildingBlock: XIVTED_clean_linker_0, # of connection points: 2
#     Edge 51, Type (0, 0), BuildingBlock: XIVTED_clean_linker_0, # of connection points: 2
#     Edge 52, Type (0, 0), BuildingBlock: XIVTED_clean_linker_0, # of connection points: 2
#     Edge 53, Type (0, 0), BuildingBlock: XIVTED_clean_linker_0, # of connection points: 2
#     Edge 54, Type (0, 0), BuildingBlock: XIVTED_clean_linker_0, # of connection points: 2
#     Edge 55, Type (0, 0), BuildingBlock: XIVTED_clean_linker_0, # of connection points: 2
#     Edge 56, Type (0, 0), BuildingBlock: XIVTED_clean_linker_0, # of connection points: 2
#     Edge 57, Type (0, 0), BuildingBlock: XIVTED_clean_linker_0, # of connection points: 2
#     Edge 58, Type (0, 0), BuildingBlock: XIVTED_clean_linker_0, # of connection points: 2
#     Edge 59, Type (0, 0), BuildingBlock: XIVTED_clean_linker_0, # of connection points: 2
#     Edge 60, Type (0, 0), BuildingBlock: XIVTED_clean_linker_0, # of connection points: 2
#     Edge 61, Type (0, 0), BuildingBlock: XIVTED_clean_linker_0, # of connection points: 2
#     Edge 62, Type (0, 0), BuildingBlock: XIVTED_clean_linker_0, # of connection points: 2
#     Edge 63, Type (0, 0), BuildingBlock: XIVTED_clean_linker_0, # of connection points: 2
#     Edge 64, Type (0, 0), BuildingBlock: XIVTED_clean_linker_0, # of connection points: 2
#     Edge 65, Type (0, 0), BuildingBlock: XIVTED_clean_linker_0, # of connection points: 2
#     Edge 66, Type (0, 0), BuildingBlock: XIVTED_clean_linker_0, # of connection points: 2
#     Edge 67, Type (0, 0), BuildingBlock: XIVTED_clean_linker_0, # of connection points: 2
#     Edge 68, Type (0, 0), BuildingBlock: XIVTED_clean_linker_0, # of connection points: 2
#     Edge 69, Type (0, 0), BuildingBlock: XIVTED_clean_linker_0, # of connection points: 2
#     Edge 70, Type (0, 0), BuildingBlock: XIVTED_clean_linker_0, # of connection points: 2
#     Edge 71, Type (0, 0), BuildingBlock: XIVTED_clean_linker_0, # of connection points: 2
# Relax obj value: 0.160
# Max RMSD: 0.216
# Mean RMSD: 0.216
data_MOF--net-smd--node1-OJICUG_clean_sbu_0--edge1-XIVTED_clean_linker_0
_symmetry_space_group_name_H-M    P1
_symmetry_Int_Tables_number       1
_symmetry_cell_setting            triclinic
loop_
_symmetry_equiv_pos_as_xyz
'x, y, z'
_cell_length_a     76.578485
_cell_length_b     76.575293
_cell_length_c     15.976685
_cell_angle_alpha  90.034771
_cell_angle_beta   90.00867
_cell_angle_gamma 119.99673
loop_
_atom_site_label
_atom_site_type_symbol
_atom_site_fract_x
_atom_site_fract_y
_atom_site_fract_z
_atom_type_partial_charge
Sc0 Sc -0.00932 0.22625 0.55458 0.0
Sc1 Sc 0.01451 0.20096 0.63671 0.0
Sc2 Sc 0.0278 0.24958 0.71142 0.0
O3 O 0.01098 0.22559 0.63444 0.0
C4 C 0.02653 0.2717 0.54397 0.0
C5 C 0.00789 0.20417 0.44094 0.0
C6 C 0.05974 0.23775 0.64678 0.0
C7 C 0.96675 0.18096 0.62198 0.0
C8 C 0.98532 0.24714 0.7181 0.0
C9 C 0.01949 0.21284 0.8308 0.0
O10 O 0.0119 0.25629 0.50975 0.0
O11 O 0.01509 0.19885 0.50109 0.0
O12 O 0.05548 0.25058 0.6764 0.0
O13 O 0.96733 0.19657 0.59132 0.0
O14 O 0.00203 0.25172 0.75287 0.0
O15 O 0.01461 0.19983 0.77269 0.0
O16 O 0.97991 0.2384 0.64769 0.0
O17 O 0.98253 0.18025 0.64075 0.0
O18 O 0.02463 0.23111 0.81737 0.0
O19 O -0.00129 0.21393 0.45129 0.0
O20 O 0.03328 0.27125 0.61595 0.0
O21 O 0.04665 0.21952 0.63125 0.0
Sc22 Sc 0.78869 0.77662 0.44105 0.0
Sc23 Sc 0.81409 0.8244 0.53412 0.0
Sc24 Sc 0.76829 0.78661 0.6181 0.0
O25 O 0.79033 0.7958 0.53117 0.0
C26 C 0.74267 0.76634 0.45594 0.0
C27 C 0.80683 0.81676 0.33712 0.0
C28 C 0.77793 0.83137 0.57195 0.0
C29 C 0.8353 0.79917 0.49725 0.0
C30 C 0.77152 0.74669 0.59311 0.0
C31 C 0.80611 0.81329 0.72935 0.0
O32 O 0.75685 0.76522 0.41906 0.0
O33 O 0.81672 0.82806 0.3982 0.0
O34 O 0.76827 0.81508 0.61378 0.0
O35 O 0.8204 0.78583 0.4552 0.0
O36 O 0.76514 0.75693 0.63198 0.0
O37 O 0.81556 0.8258 0.67085 0.0
O38 O 0.78187 0.75278 0.52663 0.0
O39 O 0.83493 0.81359 0.53517 0.0
O40 O 0.7897 0.79697 0.71733 0.0
O41 O 0.79465 0.79807 0.34523 0.0
O42 O 0.74489 0.77495 0.52624 0.0
O43 O 0.79411 0.83618 0.53244 0.0
Sc44 Sc 0.2407 0.02715 0.40345 0.0
Sc45 Sc 0.19098 0.00276 0.47652 0.0
Sc46 Sc 0.22724 -0.0038 0.57987 0.0
O47 O 0.21974 0.00878 0.48624 0.0
C48 C 0.25048 0.99125 0.42835 0.0
C49 C 0.20369 0.0068 0.28285 0.0
C50 C 0.18448 0.96049 0.51815 0.0
C51 C 0.21553 0.04935 0.44725 0.0
C52 C 0.26685 0.03984 0.56695 0.0
C53 C 0.19779 0.00558 0.67509 0.0
O54 O 0.25352 0.00735 0.39152 0.0
O55 O 0.19095 0.00383 0.34009 0.0
O56 O 0.19897 0.96776 0.57059 0.0
O57 O 0.22993 0.0486 0.41016 0.0
O58 O 0.25652 0.02268 0.6016 0.0
O59 O 0.18603 0.00096 0.61226 0.0
O60 O 0.26186 0.04426 0.49812 0.0
O61 O 0.20081 0.03413 0.48169 0.0
O62 O 0.21518 0.00754 0.67071 0.0
O63 O 0.22198 0.01244 0.29822 0.0
O64 O 0.23987 0.98436 0.49396 0.0
O65 O 0.18078 0.97138 0.46968 0.0
Sc66 Sc 0.02605 0.79073 0.63639 0.0
Sc67 Sc 0.01129 0.82465 0.56542 0.0
Sc68 Sc -0.00988 0.77648 0.47923 0.0
O69 O 0.00907 0.7973 0.56111 0.0
C70 C 0.02726 0.76823 0.47727 0.0
C71 C 0.05665 0.83582 0.58107 0.0
C72 C 0.00866 0.81509 0.36914 0.0
C73 C 0.01528 0.8158 0.75924 0.0
C74 C 0.98297 0.74986 0.63484 0.0
C75 C 0.96522 0.79793 0.53646 0.0
O76 O 0.03688 0.78089 0.53445 0.0
O77 O 0.04324 0.83911 0.55054 0.0
O78 O 0.00445 0.79692 0.37815 0.0
O79 O 0.01722 0.80056 0.74458 0.0
O80 O 0.97531 0.7554 0.57753 0.0
O81 O 0.97942 0.81174 0.57901 0.0
O82 O 0.00142 0.76022 0.65709 0.0
O83 O 0.01408 0.82669 0.70168 0.0
O84 O 0.9677 0.78575 0.49049 0.0
O85 O 0.0526 0.82003 0.62222 0.0
O86 O 0.00938 0.76352 0.45634 0.0
O87 O 0.00907 0.8262 0.42953 0.0
Sc88 Sc 0.22955 0.24496 0.62414 0.0
Sc89 Sc 0.19156 0.20134 0.52794 0.0
Sc90 Sc 0.23938 0.22748 0.43834 0.0
O91 O 0.22027 0.22465 0.53032 0.0
C92 C 0.25139 0.2735 0.47119 0.0
C93 C 0.18574 0.23763 0.57538 0.0
C94 C 0.20023 0.2113 0.33222 0.0
C95 C 0.20116 0.20611 0.7248 0.0
C96 C 0.26815 0.23978 0.59453 0.0
C97 C 0.21565 0.18001 0.47965 0.0
O98 O 0.24237 0.27019 0.54098 0.0
O99 O 0.18084 0.22219 0.53005 0.0
O100 O 0.21851 0.22455 0.34373 0.0
O101 O 0.21823 0.22181 0.71617 0.0
O102 O 0.26229 0.23115 0.52406 0.0
O103 O 0.20199 0.18017 0.52453 0.0
O104 O 0.25843 0.24636 0.63614 0.0
O105 O 0.18872 0.19828 0.66447 0.0
O106 O 0.22863 0.19534 0.43864 0.0
O107 O 0.20154 0.24586 0.62115 0.0
O108 O 0.25222 0.2598 0.42913 0.0
O109 O 0.18909 0.20007 0.39118 0.0
Sc110 Sc 0.76602 0.99022 0.70309 0.0
Sc111 Sc 0.815 0.00392 0.63239 0.0
Sc112 Sc 0.78991 0.02779 0.54828 0.0
O113 O 0.79031 0.00734 0.62817 0.0
C114 C 0.74469 0.99138 0.53325 0.0
C115 C 0.7787 0.9585 0.6424 0.0
C116 C 0.8124 0.01069 0.43642 0.0
C117 C 0.80242 -0.00082 0.82584 0.0
C118 C 0.76749 0.03245 0.70774 0.0
C119 C 0.83496 0.05171 0.61837 0.0
O120 O 0.74494 0.98424 0.60457 0.0
O121 O 0.79683 0.97178 0.62675 0.0
O122 O 0.80268 0.01993 0.44617 0.0
O123 O 0.78419 -0.00592 0.81115 0.0
O124 O 0.7772 0.03839 0.63966 0.0
O125 O 0.83558 0.03589 0.63697 0.0
O126 O 0.76272 0.01559 0.74159 0.0
O127 O 0.81557 0.0038 0.7685 0.0
O128 O 0.81943 0.05121 0.58709 0.0
O129 O 0.7657 0.96263 0.67111 0.0
O130 O 0.76005 0.00653 0.50141 0.0
O131 O 0.81748 0.00336 0.49689 0.0
Sc132 Sc 0.65488 0.56008 0.69306 0.0
Sc133 Sc 0.66205 0.52317 0.78578 0.0
Sc134 Sc 0.68319 0.57086 0.87494 0.0
O135 O 0.66687 0.55151 0.78438 0.0
C136 C 0.69766 0.60026 0.72434 0.0
C137 C 0.66687 0.53375 0.58984 0.0
C138 C 0.70743 0.54782 0.83048 0.0
C139 C 0.61973 0.51597 0.74004 0.0
C140 C 0.64743 0.58053 0.84624 0.0
C141 C 0.66107 0.53191 0.98126 0.0
O142 O 0.68075 0.59051 0.68675 0.0
O143 O 0.6615 0.52076 0.64853 0.0
O144 O 0.70475 0.56021 0.87461 0.0
O145 O 0.62714 0.53089 0.68967 0.0
O146 O 0.66367 0.58386 0.88234 0.0
O147 O 0.66188 0.52102 0.92269 0.0
O148 O 0.64051 0.5697 0.78111 0.0
O149 O 0.63043 0.51206 0.78882 0.0
O150 O 0.6652 0.54993 0.96921 0.0
O151 O 0.6688 0.55103 0.60087 0.0
O152 O 0.70214 0.59351 0.78828 0.0
O153 O 0.69372 0.53432 0.78469 0.0
Sc154 Sc 0.4463 0.10727 0.72256 0.0
Sc155 Sc 0.48494 0.14945 0.81903 0.0
Sc156 Sc 0.43774 0.12452 0.91259 0.0
O157 O 0.45607 0.12696 0.81812 0.0
C158 C 0.40775 0.1119 0.75947 0.0
C159 C 0.47579 0.14475 0.62285 0.0
C160 C 0.46162 0.17173 0.8619 0.0
C161 C 0.48933 0.11279 0.77264 0.0
C162 C 0.42557 0.07855 0.87757 0.0
C163 C 0.47729 0.14176 0.01494 0.0
O164 O 0.41763 0.1062 0.71402 0.0
O165 O 0.48829 0.1509 0.68316 0.0
O166 O 0.44881 0.15701 0.90695 0.0
O167 O 0.47425 0.10607 0.72285 0.0
O168 O 0.42545 0.09219 0.92312 0.0
O169 O 0.48771 0.15273 0.9544 0.0
O170 O 0.43345 0.08193 0.80514 0.0
O171 O 0.49417 0.12747 0.82264 0.0
O172 O 0.4592 0.12789 1.00619 0.0
O173 O 0.45766 0.13094 0.63172 0.0
O174 O 0.41373 0.11995 0.8309 0.0
O175 O 0.47486 0.17079 0.81673 0.0
Sc176 Sc 0.90807 0.35933 0.71202 0.0
Sc177 Sc 0.86181 0.34834 0.79305 0.0
Sc178 Sc 0.88556 0.32236 0.86159 0.0
O179 O 0.885 0.34332 0.78991 0.0
C180 C 0.90728 0.31732 0.71518 0.0
C181 C 0.87177 0.34841 0.59777 0.0
C182 C 0.83938 0.30128 0.80377 0.0
C183 C 0.89689 0.39171 0.77018 0.0
C184 C 0.93072 0.36044 0.87077 0.0
C185 C 0.86692 0.34007 0.98638 0.0
O186 O 0.91643 0.33613 0.70025 0.0
O187 O 0.86272 0.35219 0.65635 0.0
O188 O 0.85381 0.30125 0.84341 0.0
O189 O 0.90478 0.38583 0.71512 0.0
O190 O 0.91797 0.34188 0.88582 0.0
O191 O 0.85838 0.34473 0.92896 0.0
O192 O 0.92779 0.3708 0.8163 0.0
O193 O 0.88206 0.37951 0.81443 0.0
O194 O 0.87917 0.33383 0.97147 0.0
O195 O 0.88771 0.34744 0.6093 0.0
O196 O 0.89092 0.30892 0.75544 0.0
O197 O 0.84048 0.31719 0.77416 0.0
Sc198 Sc 0.68335 0.12688 0.83306 0.0
Sc199 Sc 0.66155 0.15205 0.73896 0.0
Sc200 Sc 0.64951 0.10393 0.67228 0.0
O201 O 0.66491 0.12779 0.74739 0.0
C202 C 0.6924 0.10607 0.69273 0.0
C203 C 0.70735 0.17285 0.77384 0.0
C204 C 0.66087 0.13871 0.54659 0.0
C205 C 0.66276 0.14578 0.93654 0.0
C206 C 0.64653 0.08154 0.8344 0.0
C207 C 0.61734 0.1172 0.71371 0.0
O208 O 0.69973 0.12168 0.73842 0.0
O209 O 0.69338 0.17192 0.72785 0.0
O210 O 0.66114 0.12265 0.56447 0.0
O211 O 0.66738 0.13207 0.92956 0.0
O212 O 0.6368 0.0844 0.77706 0.0
O213 O 0.62972 0.13326 0.75164 0.0
O214 O 0.66456 0.09463 0.85377 0.0
O215 O 0.66288 0.15651 0.87509 0.0
O216 O 0.62279 0.10692 0.66953 0.0
O217 O 0.70475 0.15866 0.82285 0.0
O218 O 0.67397 0.09693 0.66943 0.0
O219 O 0.65941 0.14997 0.60206 0.0
Sc220 Sc 0.8869 0.57651 0.88944 0.0
Sc221 Sc 0.86168 0.52656 0.82 0.0
Sc222 Sc 0.90717 0.56137 0.73083 0.0
O223 O 0.88515 0.55479 0.81408 0.0
C224 C 0.90588 0.6024 0.73316 0.0
C225 C 0.8401 0.5519 0.83869 0.0
C226 C 0.86962 0.53499 0.62319 0.0
C227 C 0.86851 0.54001 0.01321 0.0
C228 C 0.93222 0.58393 0.88614 0.0
C229 C 0.89642 0.51782 0.7908 0.0
O230 O 0.89198 0.59633 0.78711 0.0
O231 O 0.84071 0.53704 0.80631 0.0
O232 O 0.88572 0.55183 0.63206 0.0
O233 O 0.88122 0.55835 0.99814 0.0
O234 O 0.92881 0.57111 0.82876 0.0
O235 O 0.8817 0.51507 0.8363 0.0
O236 O 0.91939 0.58911 0.9084 0.0
O237 O 0.85925 0.52698 0.95598 0.0
O238 O 0.90447 0.53193 0.73735 0.0
O239 O 0.85501 0.56623 0.87692 0.0
O240 O 0.91414 0.59217 0.7129 0.0
O241 O 0.86092 0.52269 0.68352 0.0
Sc242 Sc 0.44151 0.32881 0.90158 0.0
Sc243 Sc 0.48828 0.34887 0.80692 0.0
Sc244 Sc 0.45021 0.35285 0.70754 0.0
O245 O 0.45973 0.3434 0.8053 0.0
C246 C 0.41141 0.31019 0.74908 0.0
C247 C 0.46404 0.30386 0.85581 0.0
C248 C 0.47933 0.34385 0.61072 0.0
C249 C 0.48101 0.35054 1.00234 0.0
C250 C 0.4298 0.3626 0.85897 0.0
C251 C 0.49358 0.3901 0.75663 0.0
O252 O 0.41738 0.30884 0.82162 0.0
O253 O 0.47718 0.31721 0.80737 0.0
O254 O 0.46121 0.33957 0.6195 0.0
O255 O 0.46342 0.34774 0.99238 0.0
O256 O 0.43759 0.3663 0.78636 0.0
O257 O 0.49822 0.38027 0.80766 0.0
O258 O 0.42962 0.34924 0.90727 0.0
O259 O 0.49085 0.34862 0.94266 0.0
O260 O 0.47849 0.38176 0.70671 0.0
O261 O 0.452 0.30692 0.90121 0.0
O262 O 0.42133 0.32532 0.70131 0.0
O263 O 0.4918 0.35034 0.67108 0.0
Sc264 Sc 0.32222 0.89403 0.10871 0.0
Sc265 Sc 0.34163 0.86395 0.18457 0.0
Sc266 Sc 0.36141 0.91365 0.25904 0.0
O267 O 0.34174 0.89057 0.18415 0.0
C268 C 0.36192 0.93734 0.09434 0.0
C269 C 0.33537 0.8691 0.99011 0.0
C270 C 0.38873 0.89588 0.19416 0.0
C271 C 0.29459 0.84901 0.17391 0.0
C272 C 0.32182 0.9173 0.27358 0.0
C273 C 0.3481 0.87569 0.37861 0.0
O274 O 0.34533 0.92344 0.06438 0.0
O275 O 0.34168 0.8624 0.04872 0.0
O276 O 0.38672 0.91031 0.22238 0.0
O277 O 0.29671 0.86541 0.14477 0.0
O278 O 0.33861 0.92037 0.30268 0.0
O279 O 0.34157 0.86256 0.32039 0.0
O280 O 0.31422 0.9079 0.20581 0.0
O281 O 0.30939 0.84644 0.18983 0.0
O282 O 0.35579 0.89446 0.36534 0.0
O283 O 0.32786 0.88036 1.00279 0.0
O284 O 0.36932 0.93551 0.16255 0.0
O285 O 0.37385 0.87847 0.17939 0.0
Sc286 Sc 0.11474 0.42978 0.09473 0.0
Sc287 Sc 0.14531 0.47931 0.17064 0.0
Sc288 Sc 0.09563 0.44998 0.24455 0.0
O289 O 0.11854 0.45301 0.16995 0.0
C290 C 0.07226 0.42748 0.07764 0.0
C291 C 0.1405 0.46778 0.97646 0.0
C292 C 0.11392 0.49524 0.18072 0.0
C293 C 0.15937 0.44643 0.16184 0.0
C294 C 0.0909 0.40621 0.2588 0.0
C295 C 0.13357 0.47433 0.36466 0.0
O296 O 0.08592 0.42435 0.04841 0.0
O297 O 0.14691 0.48092 0.03467 0.0
O298 O 0.0993 0.47883 0.20809 0.0
O299 O 0.14285 0.43217 0.1335 0.0
O300 O 0.089 0.42054 0.2895 0.0
O301 O 0.14673 0.48067 0.30666 0.0
O302 O 0.0997 0.40763 0.1898 0.0
O303 O 0.1623 0.46402 0.17596 0.0
O304 O 0.11478 0.46349 0.35105 0.0
O305 O 0.12928 0.44904 0.9896 0.0
O306 O 0.07389 0.43637 0.1467 0.0
O307 O 0.13123 0.49749 0.16586 0.0
Sc308 Sc 0.58005 0.69729 0.04655 0.0
Sc309 Sc 0.53127 0.68035 0.12633 0.0
Sc310 Sc 0.55959 0.65872 0.19891 0.0
O311 O 0.55697 0.67876 0.12391 0.0
C312 C 0.58005 0.65608 0.02857 0.0
C313 C 0.54189 0.68661 0.93167 0.0
C314 C 0.51403 0.6329 0.13773 0.0
C315 C 0.5658 0.7267 0.11856 0.0
C316 C 0.60404 0.69638 0.20828 0.0
C317 C 0.53671 0.6738 0.32012 0.0
O318 O 0.58341 0.67284 0.99818 0.0
O319 O 0.52901 0.68009 0.99067 0.0
O320 O 0.5303 0.63425 0.16445 0.0
O321 O 0.57946 0.72367 0.0889 0.0
O322 O 0.58944 0.68091 0.24201 0.0
O323 O 0.53046 0.68072 0.26218 0.0
O324 O 0.6026 0.70335 0.13834 0.0
O325 O 0.54782 0.71265 0.13161 0.0
O326 O 0.54705 0.66531 0.30631 0.0
O327 O 0.56061 0.69371 0.94353 0.0
O328 O 0.57208 0.64958 0.09978 0.0
O329 O 0.5122 0.64819 0.12259 0.0
Sc330 Sc 0.35817 0.4582 0.23566 0.0
Sc331 Sc 0.33678 0.48619 0.15692 0.0
Sc332 Sc 0.32097 0.43754 0.07846 0.0
O333 O 0.33864 0.46066 0.15696 0.0
C334 C 0.36154 0.43628 0.07047 0.0
C335 C 0.38425 0.5031 0.16837 0.0
C336 C 0.3313 0.47534 0.96226 0.0
C337 C 0.34349 0.48234 0.35143 0.0
C338 C 0.32072 0.41416 0.24511 0.0
C339 C 0.29062 0.45136 0.14503 0.0
O340 O 0.36665 0.44365 0.14344 0.0
O341 O 0.36895 0.5051 0.15536 0.0
O342 O 0.32453 0.45669 0.97458 0.0
O343 O 0.35247 0.47245 0.33907 0.0
O344 O 0.31503 0.41535 0.17178 0.0
O345 O 0.30448 0.4694 0.15884 0.0
O346 O 0.3352 0.42908 0.28249 0.0
O347 O 0.33576 0.48746 0.29269 0.0
O348 O 0.29402 0.43775 0.11735 0.0
O349 O 0.38294 0.48682 0.19514 0.0
O350 O 0.34612 0.43466 0.0329 0.0
O351 O 0.3375 0.48829 0.02107 0.0
Sc352 Sc 0.56606 0.9197 0.23287 0.0
Sc353 Sc 0.53815 0.86975 0.16039 0.0
Sc354 Sc 0.58703 0.90171 0.08177 0.0
O355 O 0.56377 0.89707 0.15843 0.0
C356 C 0.58642 0.94264 0.0626 0.0
C357 C 0.52043 0.89956 0.17216 0.0
C358 C 0.54895 0.87435 0.966 0.0
C359 C 0.54358 0.88174 0.35422 0.0
C360 C 0.61074 0.92682 0.24351 0.0
C361 C 0.57262 0.85783 0.1509 0.0
O362 O 0.57819 0.94114 0.13323 0.0
O363 O 0.51886 0.88255 0.1571 0.0
O364 O 0.56768 0.88592 0.97831 0.0
O365 O 0.55374 0.90058 0.34038 0.0
O366 O 0.60951 0.91816 0.17428 0.0
O367 O 0.5547 0.85404 0.16423 0.0
O368 O 0.59603 0.92777 0.27567 0.0
O369 O 0.53743 0.86855 0.29629 0.0
O370 O 0.58643 0.87461 0.1227 0.0
O371 O 0.53661 0.91461 0.19884 0.0
O372 O 0.59027 0.92946 0.03359 0.0
O373 O 0.53598 0.86795 0.0247 0.0
Sc374 Sc 0.09741 0.65328 0.24944 0.0
Sc375 Sc 0.14736 0.67343 0.17801 0.0
Sc376 Sc 0.11797 0.69408 0.10721 0.0
O377 O 0.1209 0.67359 0.17821 0.0
C378 C 0.07462 0.65431 0.08618 0.0
C379 C 0.1157 0.62628 0.18428 0.0
C380 C 0.14192 0.68074 0.98425 0.0
C381 C 0.13474 0.66618 0.37185 0.0
C382 C 0.09461 0.69353 0.27128 0.0
C383 C 0.16331 0.72064 0.17145 0.0
O384 O 0.0766 0.64514 0.14829 0.0
O385 O 0.13283 0.64129 0.16722 0.0
O386 O 0.13035 0.68785 0.99843 0.0
O387 O 0.11607 0.65921 0.35786 0.0
O388 O 0.10571 0.70253 0.20884 0.0
O389 O 0.16528 0.70555 0.18875 0.0
O390 O 0.08971 0.67559 0.29216 0.0
O391 O 0.148 0.67215 0.31412 0.0
O392 O 0.14723 0.71892 0.14057 0.0
O393 O 0.10143 0.62815 0.21529 0.0
O394 O 0.08785 0.67215 0.06525 0.0
O395 O 0.14919 0.67471 0.04186 0.0
H396 H 0.08083 0.36978 0.19022 0.0
H397 H 0.04699 0.30879 0.61623 0.0
H398 H 0.07899 0.39738 0.42344 0.0
H399 H 0.02671 0.27976 0.37577 0.0
H400 H 0.06217 0.34156 0.54761 0.0
H401 H 0.0645 0.33695 0.25852 0.0
C402 C 0.07711 0.36898 0.25605 0.0
C403 C 0.08141 0.38643 0.3014 0.0
C404 C 0.05436 0.32803 0.50989 0.0
C405 C 0.06266 0.34876 0.37966 0.0
C406 C 0.0458 0.30929 0.5488 0.0
C407 C 0.03566 0.29147 0.50147 0.0
C408 C 0.05309 0.32904 0.42279 0.0
C409 C 0.03439 0.2931 0.41455 0.0
C410 C 0.06763 0.35018 0.29467 0.0
C411 C 0.07598 0.38435 0.38617 0.0
N412 N 0.04317 0.3116 0.3778 0.0
N413 N 0.067 0.36584 0.42282 0.0
H414 H 0.73229 0.75517 0.29228 0.0
H415 H 0.61365 0.69579 0.37421 0.0
H416 H 0.70673 0.75413 0.53447 0.0
H417 H 0.64021 0.71935 0.13241 0.0
H418 H 0.64766 0.71276 0.4358 0.0
H419 H 0.69822 0.73751 0.23328 0.0
C420 C 0.71954 0.75126 0.33295 0.0
C421 C 0.72235 0.75624 0.4182 0.0
C422 C 0.64591 0.71419 0.3693 0.0
C423 C 0.68345 0.73586 0.35159 0.0
C424 C 0.62659 0.70448 0.33424 0.0
C425 C 0.6241 0.70629 0.24831 0.0
C426 C 0.66276 0.72537 0.31759 0.0
C427 C 0.64137 0.71772 0.19917 0.0
C428 C 0.70013 0.74123 0.29931 0.0
C429 C 0.70527 0.75077 0.46816 0.0
N430 N 0.65995 0.72673 0.23442 0.0
N431 N 0.68652 0.74077 0.4342 0.0
H432 H 0.23438 0.9508 0.42234 0.0
H433 H 0.33896 0.95479 0.34413 0.0
H434 H 0.2891 0.00656 0.37014 0.0
H435 H 0.28149 0.90251 0.28701 0.0
H436 H 0.32149 0.97336 0.37996 0.0
H437 H 0.25199 0.93226 0.39333 0.0
C438 C 0.25007 0.95909 0.40359 0.0
C439 C 0.26031 0.98018 0.39784 0.0
C440 C 0.31275 0.95776 0.36048 0.0
C441 C 0.28067 0.95915 0.36716 0.0
C442 C 0.32265 0.94708 0.34141 0.0
C443 C 0.31158 0.9271 0.31302 0.0
C444 C 0.2917 0.9482 0.35226 0.0
C445 C 0.29053 0.9179 0.3088 0.0
C446 C 0.26012 0.94853 0.38747 0.0
C447 C 0.28065 0.99026 0.374 0.0
N448 N 0.28126 0.92853 0.32814 0.0
N449 N 0.29029 0.97964 0.36033 0.0
H450 H 0.29708 0.07265 0.48859 0.0
H451 H 0.37609 0.10452 0.86012 0.0
H452 H 0.28198 0.04073 0.72432 0.0
H453 H 0.39257 0.10648 0.60037 0.0
H454 H 0.34082 0.09023 0.81811 0.0
H455 H 0.33138 0.09425 0.5386 0.0
C456 C 0.30083 0.07037 0.55149 0.0
C457 C 0.28665 0.05463 0.6021 0.0
C458 C 0.35225 0.09412 0.77052 0.0
C459 C 0.32588 0.07951 0.65927 0.0
C460 C 0.37236 0.10238 0.79411 0.0
C461 C 0.38723 0.10655 0.73344 0.0
C462 C 0.3471 0.09043 0.68574 0.0
C463 C 0.38154 0.10333 0.649 0.0
C464 C 0.32045 0.08269 0.57958 0.0
C465 C 0.29248 0.0525 0.68297 0.0
N466 N 0.36185 0.0954 0.62754 0.0
N467 N 0.31175 0.06479 0.70909 0.0
H468 H 0.89146 0.27656 0.70956 0.0
H469 H -0.00155 0.28452 0.78323 0.0
H470 H 0.94804 0.33273 0.71174 0.0
H471 H 0.94451 0.22912 0.71867 0.0
H472 H 0.97879 0.30177 0.78529 0.0
H473 H 0.9098 0.25841 0.73055 0.0
C474 C 0.90778 0.28503 0.71276 0.0
C475 C 0.91826 0.30615 0.70817 0.0
C476 C 0.9712 0.28575 0.77238 0.0
C477 C 0.93925 0.28558 0.73505 0.0
C478 C 0.98232 0.27583 0.77292 0.0
C479 C 0.97304 0.25544 0.75041 0.0
C480 C 0.95073 0.27507 0.74969 0.0
C481 C 0.95218 0.24491 0.736 0.0
C482 C 0.91821 0.2747 0.72569 0.0
C483 C 0.93938 0.31642 0.71363 0.0
N484 N 0.94175 0.25491 0.73478 0.0
N485 N 0.94918 0.30603 0.72751 0.0
H486 H 0.75719 0.72883 0.74657 0.0
H487 H 0.70224 0.61849 0.57145 0.0
H488 H 0.76879 0.71635 0.49528 0.0
H489 H 0.7242 0.63033 0.82594 0.0
H490 H 0.72309 0.65468 0.54115 0.0
H491 H 0.74145 0.69266 0.77844 0.0
C492 C 0.75666 0.71857 0.69861 0.0
C493 C 0.76434 0.72562 0.61832 0.0
C494 C 0.72345 0.64921 0.60326 0.0
C495 C 0.746 0.6845 0.65347 0.0
C496 C 0.71159 0.62865 0.62049 0.0
C497 C 0.71159 0.62143 0.70105 0.0
C498 C 0.73483 0.66257 0.66771 0.0
C499 C 0.7239 0.63524 0.76268 0.0
C500 C 0.74772 0.69802 0.71676 0.0
C501 C 0.76319 0.71164 0.55824 0.0
N502 N 0.7348 0.65521 0.7451 0.0
N503 N 0.75389 0.69171 0.57662 0.0
H504 H -0.00349 0.72593 0.70028 0.0
H505 H 0.88931 0.62685 0.73199 0.0
H506 H 0.9419 0.72626 0.63559 0.0
H507 H 0.94438 0.62638 0.67886 0.0
H508 H 0.90765 0.6636 0.71596 0.0
H509 H 0.9767 0.68952 0.72099 0.0
C510 C 0.98031 0.71843 0.69234 0.0
C511 C 0.97083 0.72906 0.66553 0.0
C512 C 0.91558 0.65535 0.70696 0.0
C513 C 0.94825 0.68752 0.68772 0.0
C514 C 0.90515 0.63444 0.71553 0.0
C515 C 0.91536 0.62359 0.70675 0.0
C516 C 0.93637 0.66539 0.69128 0.0
C517 C 0.93589 0.63412 0.68566 0.0
C518 C 0.96908 0.69763 0.70297 0.0
C519 C 0.94979 0.71854 0.65557 0.0
N520 N 0.94579 0.6545 0.6798 0.0
N521 N 0.93916 0.69826 0.66632 0.0
H522 H 0.2845 0.25127 0.75178 0.0
H523 H 0.39507 0.30116 0.5913 0.0
H524 H 0.2979 0.23925 0.50276 0.0
H525 H 0.38088 0.2841 0.85079 0.0
H526 H 0.35948 0.279 0.55612 0.0
H527 H 0.31975 0.26387 0.79075 0.0
C528 C 0.29475 0.25101 0.70576 0.0
C529 C 0.2883 0.24442 0.62373 0.0
C530 C 0.36429 0.27987 0.62049 0.0
C531 C 0.32851 0.25904 0.66732 0.0
C532 C 0.38455 0.29254 0.64057 0.0
C533 C 0.3909 0.29461 0.72409 0.0
C534 C 0.35032 0.26966 0.68467 0.0
C535 C 0.37664 0.28301 0.78553 0.0
C536 C 0.31481 0.25811 0.72806 0.0
C537 C 0.30221 0.24427 0.56666 0.0
N538 N 0.35692 0.27132 0.76483 0.0
N539 N 0.32176 0.25187 0.58907 0.0
H540 H 0.73334 0.12325 0.69352 0.0
H541 H 0.72917 0.01789 0.76495 0.0
H542 H 0.67846 0.06559 0.68336 0.0
H543 H 0.78396 0.07318 0.70813 0.0
H544 H 0.71067 0.03633 0.76186 0.0
H545 H 0.75243 0.10588 0.71545 0.0
C546 C 0.72537 0.10691 0.69411 0.0
C547 C 0.70431 0.09583 0.68576 0.0
C548 C 0.72682 0.04448 0.7517 0.0
C549 C 0.72595 0.07592 0.71388 0.0
C550 C 0.73743 0.03405 0.75521 0.0
C551 C 0.75809 0.04406 0.73663 0.0
C552 C 0.73702 0.06502 0.7301 0.0
C553 C 0.76801 0.06494 0.72264 0.0
C554 C 0.73623 0.09702 0.70756 0.0
C555 C 0.6947 0.0747 0.68807 0.0
N556 N 0.75735 0.0747 0.7187 0.0
N557 N 0.70559 0.06542 0.70273 0.0
H558 H 0.64752 0.93913 0.17318 0.0
H559 H 0.70743 0.96937 0.60218 0.0
H560 H 0.61927 0.93768 0.40902 0.0
H561 H 0.73715 0.99276 0.36523 0.0
H562 H 0.67492 0.95448 0.53186 0.0
H563 H 0.68034 0.95568 0.24217 0.0
C564 C 0.6482 0.94222 0.23964 0.0
C565 C 0.63058 0.93689 0.28565 0.0
C566 C 0.68854 0.96289 0.49525 0.0
C567 C 0.66816 0.95581 0.36466 0.0
C568 C 0.70715 0.97128 0.53511 0.0
C569 C 0.72509 0.98223 0.48931 0.0
C570 C 0.68777 0.96516 0.40862 0.0
C571 C 0.72371 0.98443 0.40282 0.0
C572 C 0.66697 0.9518 0.27868 0.0
C573 C 0.63244 0.94151 0.37126 0.0
N574 N 0.70532 0.9758 0.36502 0.0
N575 N 0.65092 0.95057 0.40822 0.0
H576 H 0.00891 0.72997 0.41169 0.0
H577 H 0.11211 0.73369 0.30141 0.0
H578 H 0.06738 0.78157 0.46262 0.0
H579 H 0.05657 0.67755 0.33645 0.0
H580 H 0.09552 0.75193 0.3505 0.0
H581 H 0.02551 0.711 0.36894 0.0
C582 C 0.02523 0.73739 0.41256 0.0
C583 C 0.03681 0.75737 0.4405 0.0
C584 C 0.08699 0.73561 0.34848 0.0
C585 C 0.05577 0.73579 0.39291 0.0
C586 C 0.09647 0.7252 0.32084 0.0
C587 C 0.08569 0.70411 0.31533 0.0
C588 C 0.06644 0.72489 0.3692 0.0
C589 C 0.06545 0.69382 0.34078 0.0
C590 C 0.03465 0.72649 0.38927 0.0
C591 C 0.05788 0.76618 0.44165 0.0
N592 N 0.05635 0.70435 0.36565 0.0
N593 N 0.06666 0.75536 0.41809 0.0
H594 H 0.32012 0.40386 0.4116 0.0
H595 H 0.26412 0.28605 0.31124 0.0
H596 H 0.29865 0.37828 0.16623 0.0
H597 H 0.26272 0.30843 0.55797 0.0
H598 H 0.28164 0.32066 0.25955 0.0
H599 H 0.30347 0.36946 0.46977 0.0
C600 C 0.31193 0.39109 0.37017 0.0
C601 C 0.31068 0.39397 0.28411 0.0
C602 C 0.27745 0.31798 0.32501 0.0
C603 C 0.29204 0.35493 0.34947 0.0
C604 C 0.2675 0.29824 0.35454 0.0
C605 C 0.26182 0.29434 0.43884 0.0
C606 C 0.28199 0.33397 0.3803 0.0
C607 C 0.26664 0.31076 0.49223 0.0
C608 C 0.30243 0.37155 0.40329 0.0
C609 C 0.29989 0.37689 0.2331 0.0
N610 N 0.27653 0.32991 0.46211 0.0
N611 N 0.29112 0.35817 0.26647 0.0
H612 H 0.95396 0.39974 0.91396 0.0
H613 H 0.05327 0.39278 0.98504 0.0
H614 H 0.95329 0.34307 0.91163 0.0
H615 H 0.04637 0.44201 0.07685 0.0
H616 H 0.01811 0.37583 0.9368 0.0
H617 H 0.98919 0.41672 0.95804 0.0
C618 C 0.96121 0.39085 0.92395 0.0
C619 C 0.95076 0.36999 0.90992 0.0
C620 C 0.02441 0.39041 0.96699 0.0
C621 C -0.00887 0.38935 0.95798 0.0
C622 C 0.04449 0.40019 0.99339 0.0
C623 C 0.05265 0.41879 0.03493 0.0
C624 C 0.01265 0.39949 0.98132 0.0
C625 C 0.04059 0.42764 0.04536 0.0
C626 C 0.9813 0.40054 0.94871 0.0
C627 C 0.96081 0.35915 0.9231 0.0
N628 N 0.02118 0.4179 0.0188 0.0
N629 N 0.98059 0.36901 0.94567 0.0
H630 H 0.66406 0.61788 0.91687 0.0
H631 H 0.5623 0.61532 0.01602 0.0
H632 H 0.60717 0.56726 0.83974 0.0
H633 H 0.61583 0.67065 0.947 0.0
H634 H 0.57838 0.59632 0.96795 0.0
H635 H 0.64669 0.63659 0.95051 0.0
C636 C 0.64789 0.61063 0.90828 0.0
C637 C 0.63697 0.59103 0.87588 0.0
C638 C 0.58644 0.6126 0.96218 0.0
C639 C 0.6172 0.61224 0.9135 0.0
C640 C 0.57729 0.62339 0.98918 0.0
C641 C 0.58779 0.6445 0.98486 0.0
C642 C 0.60638 0.62308 0.93325 0.0
C643 C 0.60721 0.65435 0.95036 0.0
C644 C 0.63807 0.62137 0.92633 0.0
C645 C 0.61609 0.58238 0.8646 0.0
N646 N 0.61608 0.64355 0.92717 0.0
N647 N 0.60681 0.59301 0.884 0.0
H648 H 0.41932 0.06566 0.04032 0.0
H649 H 0.35549 0.94854 0.93794 0.0
H650 H 0.40967 0.0439 0.7856 0.0
H651 H 0.39152 0.97235 0.16176 0.0
H652 H 0.37091 0.98309 0.8826 0.0
H653 H 0.40399 0.03078 0.08961 0.0
C654 C 0.41389 0.05355 0.99488 0.0
C655 C 0.41588 0.05765 0.90889 0.0
C656 C 0.37545 0.98057 0.94355 0.0
C657 C 0.39825 0.01787 0.96456 0.0
C658 C 0.3667 0.96092 0.97504 0.0
C659 C 0.3722 0.95749 0.05455 0.0
C660 C 0.38939 -0.00321 0.99281 0.0
C661 C 0.38681 0.97415 0.10004 0.0
C662 C 0.40526 0.0337 0.02292 0.0
C663 C 0.40861 0.04138 0.85254 0.0
N664 N 0.39471 0.99305 0.06892 0.0
N665 N 0.40001 0.02216 0.88135 0.0
H666 H 0.66587 0.06227 0.89246 0.0
H667 H 0.56834 0.96541 0.05577 0.0
H668 H 0.60658 0.05475 0.85751 0.0
H669 H 0.62039 0.96301 0.96798 0.0
H670 H 0.58263 -0.00058 0.99781 0.0
H671 H 0.65025 0.02722 0.93973 0.0
C672 C 0.64958 0.05332 0.89603 0.0
C673 C 0.63744 0.06135 0.87164 0.0
C674 C 0.59077 0.99133 0.99037 0.0
C675 C 0.61963 0.02146 0.92457 0.0
C676 C 0.58265 0.97199 0.02321 0.0
C677 C 0.59326 0.96152 0.01643 0.0
C678 C 0.60982 0.00036 0.95251 0.0
C679 C 0.61172 0.9706 0.97384 0.0
C680 C 0.64071 0.03331 0.92182 0.0
C681 C 0.61642 0.04906 0.87591 0.0
N682 N 0.61962 0.98971 0.94449 0.0
N683 N 0.60814 0.0297 0.9024 0.0
H684 H 0.05052 0.61416 0.05938 0.0
H685 H 0.95362 0.62251 0.94762 0.0
H686 H 0.05379 0.67144 0.01967 0.0
H687 H 0.95755 0.56898 0.90319 0.0
H688 H 0.98932 0.64038 0.98909 0.0
H689 H 0.01556 0.597 0.01189 0.0
C690 C 0.04392 0.62311 0.03929 0.0
C691 C 0.05501 0.64421 0.04308 0.0
C692 C 0.98228 0.62471 0.97046 0.0
C693 C 0.01488 0.62471 0.99098 0.0
C694 C 0.9619 0.61446 0.94794 0.0
C695 C 0.95267 0.59426 0.92218 0.0
C696 C -0.00671 0.61454 0.96819 0.0
C697 C 0.96412 0.58457 0.92244 0.0
C698 C 0.02396 0.61333 0.01256 0.0
C699 C 0.04577 0.65513 0.01674 0.0
N700 N 0.9838 0.59479 0.94516 0.0
N701 N 0.02608 0.64523 0.99274 0.0
H702 H 0.39193 0.43294 0.14326 0.0
H703 H 0.41432 0.38092 0.76154 0.0
H704 H 0.35787 0.41958 0.91312 0.0
H705 H 0.42313 0.37039 0.01954 0.0
H706 H 0.39828 0.39999 0.80854 0.0
H707 H 0.40875 0.41556 0.08962 0.0
C708 C 0.38806 0.42654 0.08095 0.0
C709 C 0.37326 0.42765 0.03285 0.0
C710 C 0.40373 0.39347 0.85461 0.0
C711 C 0.39268 0.40763 0.97133 0.0
C712 C 0.41296 0.38269 0.82808 0.0
C713 C 0.42011 0.3741 0.8869 0.0
C714 C 0.402 0.396 0.94045 0.0
C715 C 0.41778 0.3767 0.97218 0.0
C716 C 0.39764 0.41648 0.05076 0.0
C717 C 0.36908 0.41903 0.95251 0.0
N718 N 0.40906 0.38757 0.99641 0.0
N719 N 0.37877 0.40934 0.92412 0.0
H720 H 0.07316 0.22823 0.50802 0.0
H721 H 0.1787 0.25729 0.70369 0.0
H722 H 0.09376 0.26163 0.7389 0.0
H723 H 0.16051 0.23536 0.45166 0.0
H724 H 0.1503 0.26359 0.7129 0.0
H725 H 0.10717 0.23495 0.48032 0.0
C726 C 0.085 0.23715 0.55256 0.0
C727 C 0.08075 0.24414 0.62631 0.0
C728 C 0.15282 0.2578 0.65507 0.0
C729 C 0.11969 0.25163 0.59617 0.0
C730 C 0.16901 0.25424 0.64977 0.0
C731 C 0.17157 0.24532 0.57758 0.0
C732 C 0.13927 0.25237 0.58765 0.0
C733 C 0.15873 0.24175 0.50931 0.0
C734 C 0.10445 0.24108 0.53669 0.0
C735 C 0.09657 0.25591 0.68153 0.0
N736 N 0.143 0.24503 0.51647 0.0
N737 N 0.11538 0.25896 0.66621 0.0
H738 H 0.75219 0.9242 0.7283 0.0
H739 H 0.78258 0.85725 0.44727 0.0
H740 H 0.79169 0.94505 0.51393 0.0
H741 H 0.75761 0.83917 0.69514 0.0
H742 H 0.77696 0.88578 0.45498 0.0
H743 H 0.74603 0.88983 0.7024 0.0
C744 C 0.75927 0.92145 0.67517 0.0
C745 C 0.77271 0.93742 0.62387 0.0
C746 C 0.77249 0.87549 0.50749 0.0
C747 C 0.76559 0.89852 0.59351 0.0
C748 C 0.77568 0.85919 0.50308 0.0
C749 C 0.77095 0.84613 0.57143 0.0
C750 C 0.76478 0.87899 0.58129 0.0
C751 C 0.76163 0.84906 0.64144 0.0
C752 C 0.75581 0.90193 0.66061 0.0
C753 C 0.78152 0.93319 0.55584 0.0
N754 N 0.75918 0.86548 0.64536 0.0
N755 N 0.77787 0.91419 0.54291 0.0
H756 H 0.0896 0.84453 0.6782 0.0
H757 H 0.16109 0.93806 0.3887 0.0
H758 H 0.07185 0.86115 0.44879 0.0
H759 H 0.17498 0.93351 0.64685 0.0
H760 H 0.13244 0.90395 0.39616 0.0
H761 H 0.12443 0.87179 0.65467 0.0
C762 C 0.0931 0.85377 0.62257 0.0
C763 C 0.07786 0.85095 0.56613 0.0
C764 C 0.1419 0.91029 0.45094 0.0
C765 C 0.11734 0.88159 0.53837 0.0
C766 C 0.15824 0.92974 0.4467 0.0
C767 C 0.17004 0.93873 0.51794 0.0
C768 C 0.13715 0.89987 0.52726 0.0
C769 C 0.16603 0.92714 0.59087 0.0
C770 C 0.11289 0.86924 0.60922 0.0
C771 C 0.08309 0.86315 0.49478 0.0
N772 N 0.14959 0.90835 0.5943 0.0
N773 N 0.10238 0.87799 0.48318 0.0
H774 H 0.24277 0.17312 0.39432 0.0
H775 H 0.18848 0.05707 0.52608 0.0
H776 H 0.19003 0.14372 0.55245 0.0
H777 H 0.24304 0.08586 0.37834 0.0
H778 H 0.18885 0.08887 0.53372 0.0
H779 H 0.24316 0.14146 0.38558 0.0
C780 C 0.23128 0.16005 0.42723 0.0
C781 C 0.21632 0.1611 0.47413 0.0
C782 C 0.20077 0.08829 0.4996 0.0
C783 C 0.21671 0.12489 0.46422 0.0
C784 C 0.20057 0.07007 0.49504 0.0
C785 C 0.21576 0.06873 0.45135 0.0
C786 C 0.21625 0.10539 0.46016 0.0
C787 C 0.23102 0.08618 0.41269 0.0
C788 C 0.23154 0.14199 0.4222 0.0
C789 C 0.20185 0.14367 0.51551 0.0
N790 N 0.23087 0.10382 0.41796 0.0
N791 N 0.20241 0.12631 0.50945 0.0
H792 H 0.84114 0.08935 0.57935 0.0
H793 H 0.95873 0.1447 0.68868 0.0
H794 H 0.87112 0.0593 0.68452 0.0
H795 H 0.92934 0.17509 0.58115 0.0
H796 H 0.92613 0.11388 0.69805 0.0
H797 H 0.87266 0.12144 0.59012 0.0
C798 C 0.85428 0.08948 0.60522 0.0
C799 C 0.85347 0.07151 0.63032 0.0
C800 C 0.92679 0.12731 0.67281 0.0
C801 C 0.88963 0.10825 0.64256 0.0
C802 C 0.94543 0.14496 0.66739 0.0
C803 C 0.94687 0.16253 0.63333 0.0
C804 C 0.9094 0.12715 0.64377 0.0
C805 C 0.92903 0.16191 0.60737 0.0
C806 C 0.87229 0.10783 0.61128 0.0
C807 C 0.871 0.07269 0.66372 0.0
N808 N 0.91106 0.14447 0.61263 0.0
N809 N 0.88836 0.09071 0.66835 0.0
H810 H 0.95381 0.82101 0.62631 0.0
H811 H 0.84382 0.77191 0.42207 0.0
H812 H 0.93124 0.77214 0.44746 0.0
H813 H 0.86918 0.82336 0.58823 0.0
H814 H 0.87483 0.77031 0.43566 0.0
H815 H 0.92176 0.82037 0.61938 0.0
C816 C 0.9421 0.81006 0.58581 0.0
C817 C 0.94532 0.7967 0.53697 0.0
C818 C 0.87354 0.78192 0.4691 0.0
C819 C 0.9085 0.79595 0.52848 0.0
C820 C 0.85586 0.78286 0.46132 0.0
C821 C 0.85388 0.79785 0.50376 0.0
C822 C 0.88929 0.79602 0.51981 0.0
C823 C 0.86999 0.81159 0.55395 0.0
C824 C 0.92378 0.80973 0.58178 0.0
C825 C 0.92948 0.78279 0.48601 0.0
N826 N 0.88697 0.81034 0.56047 0.0
N827 N 0.91177 0.78284 0.4828 0.0
H828 H 0.80605 0.52594 0.75232 0.0
H829 H 0.7415 0.57492 0.91579 0.0
H830 H 0.83043 0.57826 0.91357 0.0
H831 H 0.71882 0.52379 0.74838 0.0
H832 H 0.77428 0.57674 0.91566 0.0
H833 H 0.77411 0.52546 0.7493 0.0
C834 C 0.80473 0.53738 0.78702 0.0
C835 C 0.82097 0.55212 0.8336 0.0
C836 C 0.76211 0.56516 0.87897 0.0
C837 C 0.78427 0.55161 0.83048 0.0
C838 C 0.74337 0.56407 0.8791 0.0
C839 C 0.72734 0.54915 0.83214 0.0
C840 C 0.76479 0.55122 0.83164 0.0
C841 C 0.73069 0.53554 0.78564 0.0
C842 C 0.78644 0.53709 0.78522 0.0
C843 C 0.81832 0.56661 0.87688 0.0
N844 N 0.74902 0.53691 0.78668 0.0
N845 N 0.80027 0.56594 0.87452 0.0
H846 H 0.43852 0.27054 0.94988 0.0
H847 H 0.4859 0.20566 0.77222 0.0
H848 H 0.48707 0.29188 0.77006 0.0
H849 H 0.43712 0.18184 0.95152 0.0
H850 H 0.48604 0.23733 0.77239 0.0
H851 H 0.43734 0.23797 0.95307 0.0
C852 C 0.44893 0.26843 0.91116 0.0
C853 C 0.46293 0.28403 0.85963 0.0
C854 C 0.47527 0.22523 0.81182 0.0
C855 C 0.46162 0.24688 0.86306 0.0
C856 C 0.47517 0.20704 0.81181 0.0
C857 C 0.46147 0.19097 0.86207 0.0
C858 C 0.46159 0.22753 0.86241 0.0
C859 C 0.44795 0.19381 0.91179 0.0
C860 C 0.44823 0.24983 0.91304 0.0
C861 C 0.47601 0.28039 0.81082 0.0
N862 N 0.44835 0.21178 0.91076 0.0
N863 N 0.47502 0.26224 0.81382 0.0
H864 H 0.74166 0.17923 0.8531 0.0
H865 H 0.80592 0.29455 0.71551 0.0
H866 H 0.7187 0.20838 0.69141 0.0
H867 H 0.82945 0.26418 0.8667 0.0
H868 H 0.77419 0.26291 0.70228 0.0
H869 H 0.77425 0.21003 0.85491 0.0
C870 C 0.74346 0.19209 0.81778 0.0
C871 C 0.72735 0.19125 0.77244 0.0
C872 C 0.78633 0.26316 0.73807 0.0
C873 C 0.76472 0.22662 0.77439 0.0
C874 C 0.80446 0.28123 0.74584 0.0
C875 C 0.82036 0.28207 0.79281 0.0
C876 C 0.78405 0.24581 0.77774 0.0
C877 C 0.8176 0.26429 0.83015 0.0
C878 C 0.76212 0.20969 0.81878 0.0
C879 C 0.73066 0.20837 0.72744 0.0
N880 N 0.79974 0.2469 0.82209 0.0
N881 N 0.74898 0.22541 0.7299 0.0
H882 H 0.89371 0.49502 0.92548 0.0
H883 H 0.91687 0.42211 0.65595 0.0
H884 H 0.91544 0.50778 0.67099 0.0
H885 H 0.89357 0.41038 0.90822 0.0
H886 H 0.92391 0.45693 0.66954 0.0
H887 H 0.90126 0.46775 0.9299 0.0
C888 C 0.90021 0.49212 0.87066 0.0
C889 C 0.90348 0.50325 0.79706 0.0
C890 C 0.91757 0.44679 0.72229 0.0
C891 C 0.91192 0.47192 0.8011 0.0
C892 C 0.91356 0.42697 0.71455 0.0
C893 C 0.90411 0.4133 0.78026 0.0
C894 C 0.91211 0.4528 0.79628 0.0
C895 C 0.90033 0.42033 0.85519 0.0
C896 C 0.9046 0.47661 0.87325 0.0
C897 C 0.91243 0.49929 0.72855 0.0
N898 N 0.90412 0.43953 0.86076 0.0
N899 N 0.91597 0.48362 0.73158 0.0
H900 H 0.50516 0.41489 0.61914 0.0
H901 H 0.59685 0.49982 0.87741 0.0
H902 H 0.513 0.4149 0.88648 0.0
H903 H 0.59316 0.50103 0.60839 0.0
H904 H 0.56186 0.47294 0.88234 0.0
H905 H 0.53289 0.45005 0.61427 0.0
C906 C 0.51241 0.42247 0.67689 0.0
C907 C 0.50718 0.412 0.75313 0.0
C908 C 0.56851 0.47916 0.82204 0.0
C909 C 0.53862 0.45184 0.74818 0.0
C910 C 0.5885 0.49448 0.81933 0.0
C911 C 0.59786 0.50224 0.74233 0.0
C912 C 0.55795 0.47113 0.74697 0.0
C913 C 0.58639 0.49519 0.66891 0.0
C914 C 0.52823 0.44245 0.6741 0.0
C915 C 0.51692 0.42238 0.82624 0.0
N916 N 0.56705 0.47963 0.67279 0.0
N917 N 0.53229 0.44163 0.8218 0.0
H918 H 0.5866 0.09696 0.60042 0.0
H919 H 0.50961 0.10805 0.90094 0.0
H920 H 0.59914 0.12116 0.85121 0.0
H921 H 0.50052 0.09956 0.63424 0.0
H922 H 0.53792 0.10209 0.89006 0.0
H923 H 0.55124 0.08844 0.61804 0.0
C924 C 0.58182 0.10021 0.65937 0.0
C925 C 0.59576 0.11014 0.72391 0.0
C926 C 0.52958 0.10122 0.83394 0.0
C927 C 0.55571 0.10018 0.74486 0.0
C928 C 0.51342 0.10458 0.84021 0.0
C929 C 0.5031 0.1047 0.76812 0.0
C930 C 0.53572 0.09838 0.75478 0.0
C931 C 0.50831 0.09975 0.69111 0.0
C932 C 0.56174 0.09536 0.66936 0.0
C933 C 0.58893 0.11393 0.79926 0.0
N934 N 0.52464 0.09722 0.68603 0.0
N935 N 0.56943 0.10903 0.80745 0.0
H936 H 0.48582 0.87389 0.08905 0.0
H937 H 0.42525 0.92781 0.24398 0.0
H938 H 0.51358 0.92945 0.23028 0.0
H939 H 0.39888 0.87122 0.11016 0.0
H940 H 0.45854 0.93101 0.227 0.0
H941 H 0.45477 0.87514 0.08291 0.0
C942 C 0.48543 0.88643 0.11852 0.0
C943 C 0.50228 0.90145 0.16128 0.0
C944 C 0.44545 0.91799 0.20092 0.0
C945 C 0.46657 0.90291 0.15485 0.0
C946 C 0.42645 0.91616 0.21048 0.0
C947 C 0.40919 0.89909 0.17942 0.0
C948 C 0.44714 0.90268 0.15979 0.0
C949 C 0.41168 0.88451 0.13628 0.0
C950 C 0.46766 0.88715 0.11489 0.0
C951 C 0.50092 0.91749 0.19709 0.0
N952 N 0.43024 0.88659 0.12823 0.0
N953 N 0.48327 0.91769 0.19386 0.0
H954 H 0.13935 0.61621 0.09209 0.0
H955 H 0.08302 0.50083 0.23694 0.0
H956 H 0.08552 0.5898 0.24406 0.0
H957 H 0.13872 0.5301 0.09716 0.0
H958 H 0.08104 0.53176 0.22694 0.0
H959 H 0.1366 0.58331 0.07974 0.0
C960 C 0.12686 0.60346 0.12267 0.0
C961 C 0.11279 0.60587 0.17018 0.0
C962 C 0.09358 0.5313 0.19795 0.0
C963 C 0.1096 0.56794 0.15652 0.0
C964 C 0.09471 0.51365 0.20342 0.0
C965 C 0.11119 0.51292 0.16872 0.0
C966 C 0.10901 0.54827 0.15719 0.0
C967 C 0.12586 0.52999 0.12591 0.0
C968 C 0.12529 0.58462 0.11548 0.0
C969 C 0.09677 0.58867 0.2072 0.0
N970 N 0.12447 0.54694 0.12185 0.0
N971 N 0.09572 0.57044 0.20033 0.0
H972 H 0.4786 0.62337 0.05996 0.0
H973 H 0.42148 0.50864 0.2122 0.0
H974 H 0.5084 0.59639 0.19238 0.0
H975 H 0.3929 0.53789 0.08776 0.0
H976 H 0.45422 0.53925 0.19262 0.0
H977 H 0.44792 0.5907 0.05584 0.0
C978 C 0.47874 0.61054 0.08784 0.0
C979 C 0.49605 0.61271 0.12761 0.0
C980 C 0.44076 0.53886 0.1692 0.0
C981 C 0.4608 0.57515 0.12351 0.0
C982 C 0.42208 0.5214 0.18029 0.0
C983 C 0.40437 0.52077 0.15258 0.0
C984 C 0.44168 0.55571 0.12994 0.0
C985 C 0.40607 0.53773 0.1113 0.0
C986 C 0.46118 0.59185 0.08541 0.0
C987 C 0.49537 0.59545 0.16155 0.0
N988 N 0.42435 0.5545 0.10171 0.0
N989 N 0.47793 0.57741 0.15951 0.0
H990 H 0.54698 0.73816 0.23147 0.0
H991 H 0.60175 0.85204 0.07719 0.0
H992 H 0.59612 0.7623 0.05439 0.0
H993 H 0.55308 0.82604 0.25632 0.0
H994 H 0.6042 0.82134 0.0846 0.0
H995 H 0.5531 0.77201 0.25746 0.0
C996 C 0.55912 0.75065 0.19811 0.0
C997 C 0.5708 0.74741 0.1394 0.0
C998 C 0.59322 0.82253 0.12321 0.0
C999 C 0.57786 0.78631 0.16848 0.0
C1000 C 0.59187 0.84005 0.11923 0.0
C1001 C 0.5769 0.84134 0.16486 0.0
C1002 C 0.57954 0.80637 0.17334 0.0
C1003 C 0.56453 0.82546 0.2186 0.0
C1004 C 0.56269 0.77002 0.21329 0.0
C1005 C 0.58664 0.76417 0.09953 0.0
N1006 N 0.56598 0.80856 0.2206 0.0
N1007 N 0.58953 0.78295 0.1138 0.0
H1008 H 0.28394 0.81544 0.26764 0.0
H1009 H 0.16945 0.75708 0.11245 0.0
H1010 H 0.25848 0.84317 0.11185 0.0
H1011 H 0.19739 0.73061 0.26093 0.0
H1012 H 0.20035 0.78991 0.12472 0.0
H1013 H 0.25083 0.78558 0.27935 0.0
C1014 C 0.27135 0.81529 0.23608 0.0
C1015 C 0.27407 0.83175 0.18764 0.0
C1016 C 0.1996 0.77692 0.15515 0.0
C1017 C 0.23594 0.79737 0.20049 0.0
C1018 C 0.18196 0.75819 0.14834 0.0
C1019 C 0.18091 0.74099 0.18475 0.0
C1020 C 0.21621 0.77842 0.19889 0.0
C1021 C 0.19757 0.74335 0.23071 0.0
C1022 C 0.25239 0.7982 0.24293 0.0
C1023 C 0.25709 0.83077 0.14942 0.0
N1024 N 0.21453 0.76164 0.23593 0.0
N1025 N 0.23874 0.81375 0.15586 0.0
H1026 H 0.25539 0.42036 0.07965 0.0
H1027 H 0.19096 0.46695 0.26776 0.0
H1028 H 0.27817 0.4712 0.24818 0.0
H1029 H 0.16667 0.41817 0.08869 0.0
H1030 H 0.22131 0.46449 0.27801 0.0
H1031 H 0.22132 0.41536 0.09768 0.0
C1032 C 0.25319 0.43029 0.12116 0.0
C1033 C 0.26967 0.44644 0.16128 0.0
C1034 C 0.20933 0.45417 0.23686 0.0
C1035 C 0.23095 0.44079 0.1823 0.0
C1036 C 0.19198 0.4556 0.23094 0.0
C1037 C 0.17644 0.44298 0.17619 0.0
C1038 C 0.21135 0.44021 0.18681 0.0
C1039 C 0.1784 0.42829 0.13124 0.0
C1040 C 0.23379 0.42745 0.1313 0.0
C1041 C 0.26599 0.4588 0.21464 0.0
N1042 N 0.19573 0.4275 0.13652 0.0
N1043 N 0.24709 0.45579 0.22304 0.0
H1044 H 0.97811 0.18436 0.32768 0.0
H1045 H 0.04832 0.23349 0.94705 0.0
H1046 H 0.04258 0.21339 0.35695 0.0
H1047 H -0.00905 0.17926 0.91402 0.0
H1048 H 0.04673 0.22651 0.0971 0.0
H1049 H 0.98201 0.18177 0.17674 0.0
C1050 C -0.00694 0.18978 0.3022 0.0
C1051 C 0.01007 0.19907 0.35422 0.0
C1052 C 0.03466 0.21592 0.05693 0.0
C1053 C 0.01469 0.19676 0.18197 0.0
C1054 C 0.0355 0.21995 0.97151 0.0
C1055 C 0.01967 0.20697 0.91856 0.0
C1056 C 0.01756 0.19913 0.0901 0.0
C1057 C 0.00344 0.1896 0.953 0.0
C1058 C -0.00472 0.18828 0.2163 0.0
C1059 C 0.02913 0.20601 0.31863 0.0
N1060 N 0.00258 0.18639 0.03716 0.0
N1061 N 0.03099 0.20513 0.23418 0.0
H1062 H 0.8425 0.84344 0.25872 0.0
H1063 H 0.80035 0.78671 0.8523 0.0
H1064 H 0.77839 0.80685 0.21864 0.0
H1065 H 0.82702 0.85057 0.80655 0.0
H1066 H 0.80423 0.79338 1.00232 0.0
H1067 H 0.84733 0.84727 0.1052 0.0
C1068 C 0.82945 0.8369 0.21794 0.0
C1069 C 0.81003 0.82462 0.25088 0.0
C1070 C 0.80962 0.80595 0.95916 0.0
C1071 C 0.81547 0.82864 0.07806 0.0
C1072 C 0.80744 0.8022 0.87375 0.0
C1073 C 0.81308 0.81809 0.81701 0.0
C1074 C 0.81753 0.8257 0.98847 0.0
C1075 C 0.82244 0.83791 0.84847 0.0
C1076 C 0.83223 0.83901 0.13084 0.0
C1077 C 0.79362 0.81622 0.19561 0.0
N1078 N 0.82407 0.84121 0.93287 0.0
N1079 N 0.79675 0.818 0.11193 0.0
H1080 H 0.16791 0.98138 0.19995 0.0
H1081 H 0.21451 0.03927 0.76886 0.0
H1082 H 0.22724 0.03292 0.16459 0.0
H1083 H 0.16763 0.97692 0.77199 0.0
H1084 H 0.21152 0.04073 0.92042 0.0
H1085 H 0.16117 0.98244 0.04894 0.0
C1086 C 0.17939 0.99293 0.16065 0.0
C1087 C 0.19829 0.00683 0.19413 0.0
C1088 C 0.20153 0.02681 0.88801 0.0
C1089 C 0.19052 0.00854 0.02407 0.0
C1090 C 0.20309 0.02608 0.80152 0.0
C1091 C 0.19126 0.008 0.75853 0.0
C1092 C 0.18837 0.00919 0.93213 0.0
C1093 C 0.17686 0.99118 0.80344 0.0
C1094 C 0.17555 -0.00645 0.07499 0.0
C1095 C 0.21263 0.02162 0.14107 0.0
N1096 N 0.17606 0.99204 0.88852 0.0
N1097 N 0.20844 0.02208 0.05912 0.0
H1098 H -0.00616 0.83049 0.84481 0.0
H1099 H 0.04075 0.82121 0.27843 0.0
H1100 H 0.04058 0.81518 0.87396 0.0
H1101 H 0.98749 0.82667 0.26748 0.0
H1102 H 0.04555 0.82768 0.12846 0.0
H1103 H -0.00475 0.83675 0.99715 0.0
C1104 C 0.00454 0.82874 0.88306 0.0
C1105 C 0.01683 0.82194 0.84757 0.0
C1106 C 0.03295 0.8278 0.15859 0.0
C1107 C 0.01875 0.82927 0.01965 0.0
C1108 C 0.03033 0.82424 0.24421 0.0
C1109 C 0.01375 0.82343 0.28441 0.0
C1110 C 0.01854 0.83001 0.11236 0.0
C1111 C 0.00052 0.82731 0.23795 0.0
C1112 C 0.00534 0.83227 0.96962 0.0
C1113 C 0.03053 0.81998 0.89924 0.0
N1114 N 0.00298 0.83009 0.1536 0.0
N1115 N 0.03104 0.82352 0.98238 0.0
H1116 H 0.17009 0.17628 0.2596 0.0
H1117 H 0.22531 0.20423 0.84326 0.0
H1118 H 0.21464 0.23797 0.20377 0.0
H1119 H 0.16451 0.19208 0.80388 0.0
H1120 H 0.21946 0.20173 0.99419 0.0
H1121 H 0.16513 0.16937 0.10759 0.0
C1122 C 0.17836 0.18847 0.21576 0.0
C1123 C 0.19303 0.20768 0.24437 0.0
C1124 C 0.20722 0.199 0.95221 0.0
C1125 C 0.18759 0.19978 0.07272 0.0
C1126 C 0.2105 0.20037 0.86634 0.0
C1127 C 0.19542 0.19851 0.8112 0.0
C1128 C 0.18877 0.19578 0.98345 0.0
C1129 C 0.17648 0.19353 0.84452 0.0
C1130 C 0.17555 0.18447 0.12946 0.0
C1131 C 0.20343 0.22288 0.18475 0.0
N1132 N 0.17378 0.19277 0.92923 0.0
N1133 N 0.20082 0.21849 0.10197 0.0
H1134 H 0.83335 0.04037 0.3241 0.0
H1135 H 0.78076 0.97115 0.94343 0.0
H1136 H 0.80175 0.97577 0.35171 0.0
H1137 H 0.8366 0.02696 0.90873 0.0
H1138 H 0.78794 0.97256 0.09322 0.0
H1139 H 0.8353 0.0364 0.17272 0.0
C1140 C 0.82729 0.02536 0.29818 0.0
C1141 C 0.81746 0.00836 0.34986 0.0
C1142 C 0.7988 0.98433 0.05275 0.0
C1143 C 0.81897 0.00368 0.1772 0.0
C1144 C 0.79466 0.98361 0.96748 0.0
C1145 C 0.80806 -0.00095 0.91408 0.0
C1146 C 0.81619 0.00093 0.08538 0.0
C1147 C 0.82591 0.01478 0.94806 0.0
C1148 C 0.82839 0.0231 0.21203 0.0
C1149 C 0.8096 0.98922 0.31369 0.0
N1150 N 0.82927 0.01556 0.0321 0.0
N1151 N 0.81012 0.98736 0.22908 0.0
H1152 H 0.66795 0.50324 0.05564 0.0
H1153 H 0.69179 0.55877 0.47026 0.0
H1154 H 0.64712 0.54512 0.10799 0.0
H1155 H 0.64554 0.49691 0.51031 0.0
H1156 H 0.68864 0.55275 0.31948 0.0
H1157 H 0.66985 0.49872 0.20802 0.0
C1158 C 0.66322 0.51098 0.09879 0.0
C1159 C 0.65766 0.52482 0.06917 0.0
C1160 C 0.67961 0.54037 0.3616 0.0
C1161 C 0.66004 0.51988 0.24116 0.0
C1162 C 0.68137 0.54375 0.44741 0.0
C1163 C 0.66873 0.52837 0.50271 0.0
C1164 C 0.66515 0.52152 0.33058 0.0
C1165 C 0.65556 0.50914 0.46957 0.0
C1166 C 0.66438 0.50843 0.18529 0.0
C1167 C 0.65182 0.53458 0.12786 0.0
N1168 N 0.65375 0.50631 0.38492 0.0
N1169 N 0.65357 0.53224 0.21088 0.0
H1170 H 0.5036 0.13922 0.54078 0.0
H1171 H 0.48757 0.17652 0.0973 0.0
H1172 H 0.46332 0.16273 0.50923 0.0
H1173 H 0.4829 0.11844 0.12811 0.0
H1174 H 0.49254 0.18203 0.24941 0.0
H1175 H 0.5098 0.14226 0.38878 0.0
C1176 C 0.49666 0.14569 0.50208 0.0
C1177 C 0.48306 0.15089 0.53686 0.0
C1178 C 0.491 0.16836 0.22222 0.0
C1179 C 0.49018 0.15453 0.3649 0.0
C1180 C 0.48833 0.16528 0.13587 0.0
C1181 C 0.48498 0.14707 0.10087 0.0
C1182 C 0.49078 0.15332 0.27295 0.0
C1183 C 0.48558 0.13271 0.15321 0.0
C1184 C 0.50007 0.14726 0.4158 0.0
C1185 C 0.474 0.15872 0.48434 0.0
N1186 N 0.48841 0.13613 0.23697 0.0
N1187 N 0.47772 0.16032 0.40065 0.0
H1188 H 0.86138 0.36817 0.07385 0.0
H1189 H 0.86112 0.31536 0.50484 0.0
H1190 H 0.85983 0.31136 0.09946 0.0
H1191 H 0.8649 0.37338 0.49684 0.0
H1192 H 0.8539 0.31132 0.35556 0.0
H1193 H 0.8567 0.3685 0.22676 0.0
C1194 C 0.8597 0.35566 0.11146 0.0
C1195 C 0.86135 0.3399 0.07476 0.0
C1196 C 0.85603 0.32488 0.38603 0.0
C1197 C 0.8559 0.34005 0.24771 0.0
C1198 C 0.86006 0.3271 0.47135 0.0
C1199 C 0.86364 0.34471 0.51236 0.0
C1200 C 0.85614 0.34066 0.34061 0.0
C1201 C 0.86213 0.35954 0.46677 0.0
C1202 C 0.85708 0.35585 0.19841 0.0
C1203 C 0.85905 0.324 0.12567 0.0
N1204 N 0.85885 0.35738 0.38253 0.0
N1205 N 0.85659 0.32457 0.20924 0.0
H1206 H 0.63163 0.11873 0.02849 0.0
H1207 H 0.67395 0.1752 0.46558 0.0
H1208 H 0.68232 0.1792 0.03677 0.0
H1209 H 0.64415 0.11095 0.42381 0.0
H1210 H 0.67096 0.18 0.31417 0.0
H1211 H 0.62837 0.11944 0.18018 0.0
C1212 C 0.64166 0.13241 0.06238 0.0
C1213 C 0.65723 0.14892 0.02081 0.0
C1214 C 0.66503 0.16491 0.3389 0.0
C1215 C 0.65419 0.14959 0.19437 0.0
C1216 C 0.66676 0.16217 0.4248 0.0
C1217 C 0.65959 0.14268 0.45691 0.0
C1218 C 0.65554 0.14797 0.28617 0.0
C1219 C 0.65025 0.12627 0.40173 0.0
C1220 C 0.63996 0.13276 0.14887 0.0
C1221 C 0.67003 0.16625 0.06716 0.0
N1222 N 0.64847 0.1293 0.31952 0.0
N1223 N 0.66848 0.16605 0.15225 0.0
H1224 H 0.85962 0.56123 0.121 0.0
H1225 H 0.86212 0.50227 0.52688 0.0
H1226 H 0.86363 0.50715 0.10466 0.0
H1227 H 0.85935 0.55708 0.52627 0.0
H1228 H 0.85632 0.49942 0.37435 0.0
H1229 H 0.85306 0.55563 0.26987 0.0
C1230 C 0.85905 0.54808 0.14922 0.0
C1231 C 0.86253 0.53483 0.10124 0.0
C1232 C 0.8565 0.51178 0.40804 0.0
C1233 C 0.85533 0.5284 0.27279 0.0
C1234 C 0.85963 0.51329 0.49488 0.0
C1235 C 0.86123 0.52996 0.53831 0.0
C1236 C 0.85494 0.52703 0.36554 0.0
C1237 C 0.85826 0.54406 0.49458 0.0
C1238 C 0.85523 0.54482 0.23431 0.0
C1239 C 0.86118 0.51778 0.14017 0.0
N1240 N 0.85543 0.54236 0.41067 0.0
N1241 N 0.85805 0.51522 0.22447 0.0
H1242 H 0.49221 0.32642 0.08222 0.0
H1243 H 0.50729 0.37735 0.53027 0.0
H1244 H 0.48516 0.37831 0.11921 0.0
H1245 H 0.46674 0.31372 0.49511 0.0
H1246 H 0.51333 0.38103 0.37822 0.0
H1247 H 0.49702 0.32524 0.23416 0.0
C1248 C 0.4924 0.33797 0.12209 0.0
C1249 C 0.48841 0.35256 0.08878 0.0
C1250 C 0.5036 0.36621 0.40444 0.0
C1251 C 0.4941 0.35142 0.26071 0.0
C1252 C 0.50028 0.36406 0.49076 0.0
C1253 C 0.48665 0.34517 0.52461 0.0
C1254 C 0.49359 0.34925 0.3525 0.0
C1255 C 0.47747 0.32847 0.47099 0.0
C1256 C 0.49497 0.33718 0.20835 0.0
C1257 C 0.4883 0.36691 0.14288 0.0
N1258 N 0.48111 0.33088 0.38725 0.0
N1259 N 0.49111 0.36601 0.22647 0.0
H1260 H 0.31574 0.84484 0.45849 0.0
H1261 H 0.36805 0.87139 0.91006 0.0
H1262 H 0.37704 0.89231 0.49818 0.0
H1263 H 0.30626 0.85596 0.87111 0.0
H1264 H 0.37153 0.86848 0.75806 0.0
H1265 H 0.31234 0.83832 0.61037 0.0
C1266 C 0.32859 0.85352 0.49897 0.0
C1267 C 0.34663 0.86922 0.46645 0.0
C1268 C 0.35712 0.86533 0.78337 0.0
C1269 C 0.34299 0.86169 0.63839 0.0
C1270 C 0.35512 0.86688 0.86971 0.0
C1271 C 0.3369 0.86403 0.90245 0.0
C1272 C 0.34065 0.86042 0.73037 0.0
C1273 C 0.32059 0.85842 0.84779 0.0
C1274 C 0.32663 0.84987 0.58524 0.0
C1275 C 0.36283 0.88019 0.52129 0.0
N1276 N 0.32285 0.85682 0.76429 0.0
N1277 N 0.36063 0.87624 0.6047 0.0
H1278 H 0.1537 0.45129 0.86011 0.0
H1279 H 0.11738 0.4877 0.48157 0.0
H1280 H 0.13863 0.49807 0.89303 0.0
H1281 H 0.16361 0.47189 0.44776 0.0
H1282 H 0.12427 0.49125 0.6322 0.0
H1283 H 0.15715 0.45794 0.70931 0.0
C1284 C 0.15147 0.46321 0.83549 0.0
C1285 C 0.14584 0.47415 0.88864 0.0
C1286 C 0.13318 0.4874 0.59171 0.0
C1287 C 0.14923 0.48144 0.71643 0.0
C1288 C 0.12922 0.48529 0.50598 0.0
C1289 C 0.13994 0.47946 0.45263 0.0
C1290 C 0.14752 0.48299 0.62466 0.0
C1291 C 0.1551 0.4765 0.48703 0.0
C1292 C 0.1535 0.46704 0.74965 0.0
C1293 C 0.14308 0.48941 0.85394 0.0
N1294 N 0.15816 0.47786 0.57137 0.0
N1295 N 0.14436 0.49232 0.76954 0.0
H1296 H 0.51134 0.65425 0.85071 0.0
H1297 H 0.53886 0.70658 0.39937 0.0
H1298 H 0.55797 0.71601 0.81391 0.0
H1299 H 0.52422 0.64509 0.44067 0.0
H1300 H 0.53545 0.71017 0.55094 0.0
H1301 H 0.50538 0.65093 0.69846 0.0
C1302 C 0.51988 0.66724 0.81079 0.0
C1303 C 0.53521 0.68539 0.84426 0.0
C1304 C 0.53264 0.69582 0.52623 0.0
C1305 C 0.52841 0.68179 0.67174 0.0
C1306 C 0.5345 0.69375 0.44013 0.0
C1307 C 0.53199 0.67558 0.40813 0.0
C1308 C 0.52772 0.67943 0.57973 0.0
C1309 C 0.52648 0.65941 0.46335 0.0
C1310 C 0.51659 0.66531 0.72426 0.0
C1311 C 0.54608 0.70174 0.79006 0.0
N1312 N 0.52454 0.6617 0.54653 0.0
N1313 N 0.54252 0.69955 0.70633 0.0
H1314 H 0.30149 0.45794 0.84702 0.0
H1315 H 0.37349 0.49832 0.46642 0.0
H1316 H 0.36248 0.50672 0.87865 0.0
H1317 H 0.31021 0.47774 0.43536 0.0
H1318 H 0.37015 0.5018 0.61703 0.0
H1319 H 0.30402 0.4648 0.69656 0.0
C1320 C 0.31531 0.47034 0.82219 0.0
C1321 C 0.33184 0.48177 0.87485 0.0
C1322 C 0.35708 0.49693 0.57716 0.0
C1323 C 0.335 0.48936 0.7029 0.0
C1324 C 0.35895 0.49489 0.49141 0.0
C1325 C 0.34207 0.48769 0.43885 0.0
C1326 C 0.33804 0.49112 0.61097 0.0
C1327 C 0.32357 0.48341 0.47399 0.0
C1328 C 0.31671 0.47429 0.73653 0.0
C1329 C 0.3494 0.49765 0.83992 0.0
N1330 N 0.32193 0.48475 0.55837 0.0
N1331 N 0.35069 0.50071 0.75561 0.0
H1332 H 0.51829 0.87592 0.88493 0.0
H1333 H 0.54616 0.85138 0.43357 0.0
H1334 H 0.56533 0.86137 0.84804 0.0
H1335 H 0.53084 0.89777 0.47472 0.0
H1336 H 0.5429 0.8445 0.5852 0.0
H1337 H 0.51235 0.87324 0.73267 0.0
C1338 C 0.52694 0.87161 0.84498 0.0
C1339 C 0.54237 0.86896 0.87844 0.0
C1340 C 0.53991 0.85591 0.56044 0.0
C1341 C 0.53558 0.86569 0.70591 0.0
C1342 C 0.54169 0.85977 0.47432 0.0
C1343 C 0.53894 0.87527 0.44225 0.0
C1344 C 0.53484 0.86728 0.61391 0.0
C1345 C 0.53328 0.88583 0.49744 0.0
C1346 C 0.52365 0.87021 0.75846 0.0
C1347 C 0.55337 0.86363 0.82421 0.0
N1348 N 0.53143 0.88166 0.58066 0.0
N1349 N 0.54981 0.86222 0.74048 0.0
H1350 H 0.11782 0.63687 0.48948 0.0
H1351 H 0.15412 0.70998 0.86635 0.0
H1352 H 0.16501 0.69846 0.45469 0.0
H1353 H 0.14002 0.64848 0.90153 0.0
H1354 H 0.1573 0.70643 0.71548 0.0
H1355 H 0.12447 0.64041 0.64042 0.0
C1356 C 0.12982 0.65104 0.51375 0.0
C1357 C 0.14091 0.66741 0.46005 0.0
C1358 C 0.1539 0.69384 0.75635 0.0
C1359 C 0.14818 0.67172 0.63224 0.0
C1360 C 0.15201 0.69582 0.84218 0.0
C1361 C 0.1468 0.67948 0.89598 0.0
C1362 C 0.14986 0.67517 0.72385 0.0
C1363 C 0.14417 0.66144 0.86189 0.0
C1364 C 0.13364 0.65302 0.59962 0.0
C1365 C 0.15624 0.68547 0.49426 0.0
N1366 N 0.14529 0.6596 0.77751 0.0
N1367 N 0.15915 0.68731 0.57866 0.0
loop_
_geom_bond_atom_site_label_1
_geom_bond_atom_site_label_2
_geom_bond_distance
_geom_bond_site_symmetry_2
_ccdc_geom_bond_type
Sc0 O3 2.025 1_655 S
Sc0 O10 2.105 1_655 S
Sc0 O13 2.105 . S
Sc0 O16 2.105 . S
Sc0 O19 2.105 1_655 S
Sc1 O3 2.025 . S
Sc1 O11 2.105 . S
Sc1 O15 2.105 . S
Sc1 O17 2.105 1_455 S
Sc1 O21 2.105 . S
Sc2 O3 2.025 . S
Sc2 O12 2.105 . S
Sc2 O14 2.105 . S
Sc2 O18 2.105 . S
Sc2 O20 2.105 . S
O3 Sc0 2.025 1_455 S
O3 Sc1 2.025 . S
O3 Sc2 2.025 . S
C4 O10 1.268 . S
C4 O20 1.268 . S
C5 O11 1.268 . S
C5 O19 1.268 . S
C6 O12 1.268 . S
C6 O21 1.268 . S
C7 O13 1.268 . S
C7 O17 1.268 . S
C8 O14 1.268 1_655 S
C8 O16 1.268 . S
C9 O15 1.268 . S
C9 O18 1.268 . S
O10 Sc0 2.105 1_455 S
O10 C4 1.268 . S
O11 Sc1 2.105 . S
O11 C5 1.268 . S
O12 Sc2 2.105 . S
O12 C6 1.268 . S
O13 Sc0 2.105 . S
O13 C7 1.268 . S
O14 Sc2 2.105 . S
O14 C8 1.268 1_455 S
O15 Sc1 2.105 . S
O15 C9 1.268 . S
O16 Sc0 2.105 . S
O16 C8 1.268 . S
O17 Sc1 2.105 1_655 S
O17 C7 1.268 . S
O18 Sc2 2.105 . S
O18 C9 1.268 . S
O19 Sc0 2.105 1_455 S
O19 C5 1.268 . S
O20 Sc2 2.105 . S
O20 C4 1.268 . S
O21 Sc1 2.105 . S
O21 C6 1.268 . S
Sc22 O25 2.025 . S
Sc22 O32 2.105 . S
Sc22 O35 2.105 . S
Sc22 O38 2.105 . S
Sc22 O41 2.105 . S
Sc23 O25 2.025 . S
Sc23 O33 2.105 . S
Sc23 O37 2.105 . S
Sc23 O39 2.105 . S
Sc23 O43 2.105 . S
Sc24 O25 2.025 . S
Sc24 O34 2.105 . S
Sc24 O36 2.105 . S
Sc24 O40 2.105 . S
Sc24 O42 2.105 . S
O25 Sc22 2.025 . S
O25 Sc23 2.025 . S
O25 Sc24 2.025 . S
C26 O32 1.268 . S
C26 O42 1.268 . S
C27 O33 1.268 . S
C27 O41 1.268 . S
C28 O34 1.268 . S
C28 O43 1.268 . S
C29 O35 1.268 . S
C29 O39 1.268 . S
C30 O36 1.268 . S
C30 O38 1.268 . S
C31 O37 1.268 . S
C31 O40 1.268 . S
O32 Sc22 2.105 . S
O32 C26 1.268 . S
O33 Sc23 2.105 . S
O33 C27 1.268 . S
O34 Sc24 2.105 . S
O34 C28 1.268 . S
O35 Sc22 2.105 . S
O35 C29 1.268 . S
O36 Sc24 2.105 . S
O36 C30 1.268 . S
O37 Sc23 2.105 . S
O37 C31 1.268 . S
O38 Sc22 2.105 . S
O38 C30 1.268 . S
O39 Sc23 2.105 . S
O39 C29 1.268 . S
O40 Sc24 2.105 . S
O40 C31 1.268 . S
O41 Sc22 2.105 . S
O41 C27 1.268 . S
O42 Sc24 2.105 . S
O42 C26 1.268 . S
O43 Sc23 2.105 . S
O43 C28 1.268 . S
Sc44 O47 2.025 . S
Sc44 O54 2.105 . S
Sc44 O57 2.105 . S
Sc44 O60 2.105 . S
Sc44 O63 2.105 . S
Sc45 O47 2.025 . S
Sc45 O55 2.105 . S
Sc45 O59 2.105 . S
Sc45 O61 2.105 . S
Sc45 O65 2.105 1_545 S
Sc46 O47 2.025 1_565 S
Sc46 O56 2.105 . S
Sc46 O58 2.105 1_565 S
Sc46 O62 2.105 1_565 S
Sc46 O64 2.105 . S
O47 Sc44 2.025 . S
O47 Sc45 2.025 . S
O47 Sc46 2.025 1_545 S
C48 O54 1.268 1_565 S
C48 O64 1.268 . S
C49 O55 1.268 . S
C49 O63 1.268 . S
C50 O56 1.268 . S
C50 O65 1.268 . S
C51 O57 1.268 . S
C51 O61 1.268 . S
C52 O58 1.268 . S
C52 O60 1.268 . S
C53 O59 1.268 . S
C53 O62 1.268 . S
O54 Sc44 2.105 . S
O54 C48 1.268 1_545 S
O55 Sc45 2.105 . S
O55 C49 1.268 . S
O56 Sc46 2.105 . S
O56 C50 1.268 . S
O57 Sc44 2.105 . S
O57 C51 1.268 . S
O58 Sc46 2.105 1_545 S
O58 C52 1.268 . S
O59 Sc45 2.105 . S
O59 C53 1.268 . S
O60 Sc44 2.105 . S
O60 C52 1.268 . S
O61 Sc45 2.105 . S
O61 C51 1.268 . S
O62 Sc46 2.105 1_545 S
O62 C53 1.268 . S
O63 Sc44 2.105 . S
O63 C49 1.268 . S
O64 Sc46 2.105 . S
O64 C48 1.268 . S
O65 Sc45 2.105 1_565 S
O65 C50 1.268 . S
Sc66 O69 2.025 . S
Sc66 O76 2.105 . S
Sc66 O79 2.105 . S
Sc66 O82 2.105 . S
Sc66 O85 2.105 . S
Sc67 O69 2.025 . S
Sc67 O77 2.105 . S
Sc67 O81 2.105 1_455 S
Sc67 O83 2.105 . S
Sc67 O87 2.105 . S
Sc68 O69 2.025 1_655 S
Sc68 O78 2.105 1_655 S
Sc68 O80 2.105 . S
Sc68 O84 2.105 . S
Sc68 O86 2.105 1_655 S
O69 Sc66 2.025 . S
O69 Sc67 2.025 . S
O69 Sc68 2.025 1_455 S
C70 O76 1.268 . S
C70 O86 1.268 . S
C71 O77 1.268 . S
C71 O85 1.268 . S
C72 O78 1.268 . S
C72 O87 1.268 . S
C73 O79 1.268 . S
C73 O83 1.268 . S
C74 O80 1.268 . S
C74 O82 1.268 1_655 S
C75 O81 1.268 . S
C75 O84 1.268 . S
O76 Sc66 2.105 . S
O76 C70 1.268 . S
O77 Sc67 2.105 . S
O77 C71 1.268 . S
O78 Sc68 2.105 1_455 S
O78 C72 1.268 . S
O79 Sc66 2.105 . S
O79 C73 1.268 . S
O80 Sc68 2.105 . S
O80 C74 1.268 . S
O81 Sc67 2.105 1_655 S
O81 C75 1.268 . S
O82 Sc66 2.105 . S
O82 C74 1.268 1_455 S
O83 Sc67 2.105 . S
O83 C73 1.268 . S
O84 Sc68 2.105 . S
O84 C75 1.268 . S
O85 Sc66 2.105 . S
O85 C71 1.268 . S
O86 Sc68 2.105 1_455 S
O86 C70 1.268 . S
O87 Sc67 2.105 . S
O87 C72 1.268 . S
Sc88 O91 2.025 . S
Sc88 O98 2.105 . S
Sc88 O101 2.105 . S
Sc88 O104 2.105 . S
Sc88 O107 2.105 . S
Sc89 O91 2.025 . S
Sc89 O99 2.105 . S
Sc89 O103 2.105 . S
Sc89 O105 2.105 . S
Sc89 O109 2.105 . S
Sc90 O91 2.025 . S
Sc90 O100 2.105 . S
Sc90 O102 2.105 . S
Sc90 O106 2.105 . S
Sc90 O108 2.105 . S
O91 Sc88 2.025 . S
O91 Sc89 2.025 . S
O91 Sc90 2.025 . S
C92 O98 1.268 . S
C92 O108 1.268 . S
C93 O99 1.268 . S
C93 O107 1.268 . S
C94 O100 1.268 . S
C94 O109 1.268 . S
C95 O101 1.268 . S
C95 O105 1.268 . S
C96 O102 1.268 . S
C96 O104 1.268 . S
C97 O103 1.268 . S
C97 O106 1.268 . S
O98 Sc88 2.105 . S
O98 C92 1.268 . S
O99 Sc89 2.105 . S
O99 C93 1.268 . S
O100 Sc90 2.105 . S
O100 C94 1.268 . S
O101 Sc88 2.105 . S
O101 C95 1.268 . S
O102 Sc90 2.105 . S
O102 C96 1.268 . S
O103 Sc89 2.105 . S
O103 C97 1.268 . S
O104 Sc88 2.105 . S
O104 C96 1.268 . S
O105 Sc89 2.105 . S
O105 C95 1.268 . S
O106 Sc90 2.105 . S
O106 C97 1.268 . S
O107 Sc88 2.105 . S
O107 C93 1.268 . S
O108 Sc90 2.105 . S
O108 C92 1.268 . S
O109 Sc89 2.105 . S
O109 C94 1.268 . S
Sc110 O113 2.025 1_565 S
Sc110 O120 2.105 . S
Sc110 O123 2.105 1_565 S
Sc110 O126 2.105 1_565 S
Sc110 O129 2.105 . S
Sc111 O113 2.025 . S
Sc111 O121 2.105 1_545 S
Sc111 O125 2.105 . S
Sc111 O127 2.105 . S
Sc111 O131 2.105 . S
Sc112 O113 2.025 . S
Sc112 O122 2.105 . S
Sc112 O124 2.105 . S
Sc112 O128 2.105 . S
Sc112 O130 2.105 . S
O113 Sc110 2.025 1_545 S
O113 Sc111 2.025 . S
O113 Sc112 2.025 . S
C114 O120 1.268 . S
C114 O130 1.268 1_565 S
C115 O121 1.268 . S
C115 O129 1.268 . S
C116 O122 1.268 . S
C116 O131 1.268 . S
C117 O123 1.268 . S
C117 O127 1.268 . S
C118 O124 1.268 . S
C118 O126 1.268 . S
C119 O125 1.268 . S
C119 O128 1.268 . S
O120 Sc110 2.105 . S
O120 C114 1.268 . S
O121 Sc111 2.105 1_565 S
O121 C115 1.268 . S
O122 Sc112 2.105 . S
O122 C116 1.268 . S
O123 Sc110 2.105 1_545 S
O123 C117 1.268 . S
O124 Sc112 2.105 . S
O124 C118 1.268 . S
O125 Sc111 2.105 . S
O125 C119 1.268 . S
O126 Sc110 2.105 1_545 S
O126 C118 1.268 . S
O127 Sc111 2.105 . S
O127 C117 1.268 . S
O128 Sc112 2.105 . S
O128 C119 1.268 . S
O129 Sc110 2.105 . S
O129 C115 1.268 . S
O130 Sc112 2.105 . S
O130 C114 1.268 1_545 S
O131 Sc111 2.105 . S
O131 C116 1.268 . S
Sc132 O135 2.025 . S
Sc132 O142 2.105 . S
Sc132 O145 2.105 . S
Sc132 O148 2.105 . S
Sc132 O151 2.105 . S
Sc133 O135 2.025 . S
Sc133 O143 2.105 . S
Sc133 O147 2.105 . S
Sc133 O149 2.105 . S
Sc133 O153 2.105 . S
Sc134 O135 2.025 . S
Sc134 O144 2.105 . S
Sc134 O146 2.105 . S
Sc134 O150 2.105 1_556 S
Sc134 O152 2.105 . S
O135 Sc132 2.025 . S
O135 Sc133 2.025 . S
O135 Sc134 2.025 . S
C136 O142 1.268 . S
C136 O152 1.268 . S
C137 O143 1.268 . S
C137 O151 1.268 . S
C138 O144 1.268 . S
C138 O153 1.268 . S
C139 O145 1.268 . S
C139 O149 1.268 . S
C140 O146 1.268 . S
C140 O148 1.268 . S
C141 O147 1.268 1_554 S
C141 O150 1.268 . S
O142 Sc132 2.105 . S
O142 C136 1.268 . S
O143 Sc133 2.105 . S
O143 C137 1.268 . S
O144 Sc134 2.105 . S
O144 C138 1.268 . S
O145 Sc132 2.105 . S
O145 C139 1.268 . S
O146 Sc134 2.105 . S
O146 C140 1.268 . S
O147 Sc133 2.105 . S
O147 C141 1.268 1_556 S
O148 Sc132 2.105 . S
O148 C140 1.268 . S
O149 Sc133 2.105 . S
O149 C139 1.268 . S
O150 Sc134 2.105 1_554 S
O150 C141 1.268 . S
O151 Sc132 2.105 . S
O151 C137 1.268 . S
O152 Sc134 2.105 . S
O152 C136 1.268 . S
O153 Sc133 2.105 . S
O153 C138 1.268 . S
Sc154 O157 2.025 . S
Sc154 O164 2.105 . S
Sc154 O167 2.105 . S
Sc154 O170 2.105 . S
Sc154 O173 2.105 . S
Sc155 O157 2.025 . S
Sc155 O165 2.105 . S
Sc155 O169 2.105 . S
Sc155 O171 2.105 . S
Sc155 O175 2.105 . S
Sc156 O157 2.025 . S
Sc156 O166 2.105 . S
Sc156 O168 2.105 . S
Sc156 O172 2.105 1_556 S
Sc156 O174 2.105 . S
O157 Sc154 2.025 . S
O157 Sc155 2.025 . S
O157 Sc156 2.025 . S
C158 O164 1.268 . S
C158 O174 1.268 . S
C159 O165 1.268 . S
C159 O173 1.268 . S
C160 O166 1.268 . S
C160 O175 1.268 . S
C161 O167 1.268 . S
C161 O171 1.268 . S
C162 O168 1.268 . S
C162 O170 1.268 . S
C163 O169 1.268 1_554 S
C163 O172 1.268 . S
O164 Sc154 2.105 . S
O164 C158 1.268 . S
O165 Sc155 2.105 . S
O165 C159 1.268 . S
O166 Sc156 2.105 . S
O166 C160 1.268 . S
O167 Sc154 2.105 . S
O167 C161 1.268 . S
O168 Sc156 2.105 . S
O168 C162 1.268 . S
O169 Sc155 2.105 . S
O169 C163 1.268 1_556 S
O170 Sc154 2.105 . S
O170 C162 1.268 . S
O171 Sc155 2.105 . S
O171 C161 1.268 . S
O172 Sc156 2.105 1_554 S
O172 C163 1.268 . S
O173 Sc154 2.105 . S
O173 C159 1.268 . S
O174 Sc156 2.105 . S
O174 C158 1.268 . S
O175 Sc155 2.105 . S
O175 C160 1.268 . S
Sc176 O179 2.025 . S
Sc176 O186 2.105 . S
Sc176 O189 2.105 . S
Sc176 O192 2.105 . S
Sc176 O195 2.105 . S
Sc177 O179 2.025 . S
Sc177 O187 2.105 . S
Sc177 O191 2.105 . S
Sc177 O193 2.105 . S
Sc177 O197 2.105 . S
Sc178 O179 2.025 . S
Sc178 O188 2.105 . S
Sc178 O190 2.105 . S
Sc178 O194 2.105 1_556 S
Sc178 O196 2.105 . S
O179 Sc176 2.025 . S
O179 Sc177 2.025 . S
O179 Sc178 2.025 . S
C180 O186 1.268 . S
C180 O196 1.268 . S
C181 O187 1.268 . S
C181 O195 1.268 . S
C182 O188 1.268 . S
C182 O197 1.268 . S
C183 O189 1.268 . S
C183 O193 1.268 . S
C184 O190 1.268 . S
C184 O192 1.268 . S
C185 O191 1.268 1_554 S
C185 O194 1.268 . S
O186 Sc176 2.105 . S
O186 C180 1.268 . S
O187 Sc177 2.105 . S
O187 C181 1.268 . S
O188 Sc178 2.105 . S
O188 C182 1.268 . S
O189 Sc176 2.105 . S
O189 C183 1.268 . S
O190 Sc178 2.105 . S
O190 C184 1.268 . S
O191 Sc177 2.105 . S
O191 C185 1.268 1_556 S
O192 Sc176 2.105 . S
O192 C184 1.268 . S
O193 Sc177 2.105 . S
O193 C183 1.268 . S
O194 Sc178 2.105 1_554 S
O194 C185 1.268 . S
O195 Sc176 2.105 . S
O195 C181 1.268 . S
O196 Sc178 2.105 . S
O196 C180 1.268 . S
O197 Sc177 2.105 . S
O197 C182 1.268 . S
Sc198 O201 2.025 . S
Sc198 O208 2.105 . S
Sc198 O211 2.105 1_556 S
Sc198 O214 2.105 . S
Sc198 O217 2.105 . S
Sc199 O201 2.025 . S
Sc199 O209 2.105 . S
Sc199 O213 2.105 . S
Sc199 O215 2.105 . S
Sc199 O219 2.105 . S
Sc200 O201 2.025 . S
Sc200 O210 2.105 . S
Sc200 O212 2.105 . S
Sc200 O216 2.105 . S
Sc200 O218 2.105 . S
O201 Sc198 2.025 . S
O201 Sc199 2.025 . S
O201 Sc200 2.025 . S
C202 O208 1.268 . S
C202 O218 1.268 . S
C203 O209 1.268 . S
C203 O217 1.268 . S
C204 O210 1.268 . S
C204 O219 1.268 . S
C205 O211 1.268 . S
C205 O215 1.268 1_554 S
C206 O212 1.268 . S
C206 O214 1.268 . S
C207 O213 1.268 . S
C207 O216 1.268 . S
O208 Sc198 2.105 . S
O208 C202 1.268 . S
O209 Sc199 2.105 . S
O209 C203 1.268 . S
O210 Sc200 2.105 . S
O210 C204 1.268 . S
O211 Sc198 2.105 1_554 S
O211 C205 1.268 . S
O212 Sc200 2.105 . S
O212 C206 1.268 . S
O213 Sc199 2.105 . S
O213 C207 1.268 . S
O214 Sc198 2.105 . S
O214 C206 1.268 . S
O215 Sc199 2.105 . S
O215 C205 1.268 1_556 S
O216 Sc200 2.105 . S
O216 C207 1.268 . S
O217 Sc198 2.105 . S
O217 C203 1.268 . S
O218 Sc200 2.105 . S
O218 C202 1.268 . S
O219 Sc199 2.105 . S
O219 C204 1.268 . S
Sc220 O223 2.025 . S
Sc220 O230 2.105 . S
Sc220 O233 2.105 1_556 S
Sc220 O236 2.105 . S
Sc220 O239 2.105 . S
Sc221 O223 2.025 . S
Sc221 O231 2.105 . S
Sc221 O235 2.105 . S
Sc221 O237 2.105 . S
Sc221 O241 2.105 . S
Sc222 O223 2.025 . S
Sc222 O232 2.105 . S
Sc222 O234 2.105 . S
Sc222 O238 2.105 . S
Sc222 O240 2.105 . S
O223 Sc220 2.025 . S
O223 Sc221 2.025 . S
O223 Sc222 2.025 . S
C224 O230 1.268 . S
C224 O240 1.268 . S
C225 O231 1.268 . S
C225 O239 1.268 . S
C226 O232 1.268 . S
C226 O241 1.268 . S
C227 O233 1.268 . S
C227 O237 1.268 1_554 S
C228 O234 1.268 . S
C228 O236 1.268 . S
C229 O235 1.268 . S
C229 O238 1.268 . S
O230 Sc220 2.105 . S
O230 C224 1.268 . S
O231 Sc221 2.105 . S
O231 C225 1.268 . S
O232 Sc222 2.105 . S
O232 C226 1.268 . S
O233 Sc220 2.105 1_554 S
O233 C227 1.268 . S
O234 Sc222 2.105 . S
O234 C228 1.268 . S
O235 Sc221 2.105 . S
O235 C229 1.268 . S
O236 Sc220 2.105 . S
O236 C228 1.268 . S
O237 Sc221 2.105 . S
O237 C227 1.268 1_556 S
O238 Sc222 2.105 . S
O238 C229 1.268 . S
O239 Sc220 2.105 . S
O239 C225 1.268 . S
O240 Sc222 2.105 . S
O240 C224 1.268 . S
O241 Sc221 2.105 . S
O241 C226 1.268 . S
Sc242 O245 2.025 . S
Sc242 O252 2.105 . S
Sc242 O255 2.105 1_556 S
Sc242 O258 2.105 . S
Sc242 O261 2.105 . S
Sc243 O245 2.025 . S
Sc243 O253 2.105 . S
Sc243 O257 2.105 . S
Sc243 O259 2.105 . S
Sc243 O263 2.105 . S
Sc244 O245 2.025 . S
Sc244 O254 2.105 . S
Sc244 O256 2.105 . S
Sc244 O260 2.105 . S
Sc244 O262 2.105 . S
O245 Sc242 2.025 . S
O245 Sc243 2.025 . S
O245 Sc244 2.025 . S
C246 O252 1.268 . S
C246 O262 1.268 . S
C247 O253 1.268 . S
C247 O261 1.268 . S
C248 O254 1.268 . S
C248 O263 1.268 . S
C249 O255 1.268 . S
C249 O259 1.268 1_554 S
C250 O256 1.268 . S
C250 O258 1.268 . S
C251 O257 1.268 . S
C251 O260 1.268 . S
O252 Sc242 2.105 . S
O252 C246 1.268 . S
O253 Sc243 2.105 . S
O253 C247 1.268 . S
O254 Sc244 2.105 . S
O254 C248 1.268 . S
O255 Sc242 2.105 1_554 S
O255 C249 1.268 . S
O256 Sc244 2.105 . S
O256 C250 1.268 . S
O257 Sc243 2.105 . S
O257 C251 1.268 . S
O258 Sc242 2.105 . S
O258 C250 1.268 . S
O259 Sc243 2.105 . S
O259 C249 1.268 1_556 S
O260 Sc244 2.105 . S
O260 C251 1.268 . S
O261 Sc242 2.105 . S
O261 C247 1.268 . S
O262 Sc244 2.105 . S
O262 C246 1.268 . S
O263 Sc243 2.105 . S
O263 C248 1.268 . S
Sc264 O267 2.025 . S
Sc264 O274 2.105 . S
Sc264 O277 2.105 . S
Sc264 O280 2.105 . S
Sc264 O283 2.105 1_554 S
Sc265 O267 2.025 . S
Sc265 O275 2.105 . S
Sc265 O279 2.105 . S
Sc265 O281 2.105 . S
Sc265 O285 2.105 . S
Sc266 O267 2.025 . S
Sc266 O276 2.105 . S
Sc266 O278 2.105 . S
Sc266 O282 2.105 . S
Sc266 O284 2.105 . S
O267 Sc264 2.025 . S
O267 Sc265 2.025 . S
O267 Sc266 2.025 . S
C268 O274 1.268 . S
C268 O284 1.268 . S
C269 O275 1.268 1_556 S
C269 O283 1.268 . S
C270 O276 1.268 . S
C270 O285 1.268 . S
C271 O277 1.268 . S
C271 O281 1.268 . S
C272 O278 1.268 . S
C272 O280 1.268 . S
C273 O279 1.268 . S
C273 O282 1.268 . S
O274 Sc264 2.105 . S
O274 C268 1.268 . S
O275 Sc265 2.105 . S
O275 C269 1.268 1_554 S
O276 Sc266 2.105 . S
O276 C270 1.268 . S
O277 Sc264 2.105 . S
O277 C271 1.268 . S
O278 Sc266 2.105 . S
O278 C272 1.268 . S
O279 Sc265 2.105 . S
O279 C273 1.268 . S
O280 Sc264 2.105 . S
O280 C272 1.268 . S
O281 Sc265 2.105 . S
O281 C271 1.268 . S
O282 Sc266 2.105 . S
O282 C273 1.268 . S
O283 Sc264 2.105 1_556 S
O283 C269 1.268 . S
O284 Sc266 2.105 . S
O284 C268 1.268 . S
O285 Sc265 2.105 . S
O285 C270 1.268 . S
Sc286 O289 2.025 . S
Sc286 O296 2.105 . S
Sc286 O299 2.105 . S
Sc286 O302 2.105 . S
Sc286 O305 2.105 1_554 S
Sc287 O289 2.025 . S
Sc287 O297 2.105 . S
Sc287 O301 2.105 . S
Sc287 O303 2.105 . S
Sc287 O307 2.105 . S
Sc288 O289 2.025 . S
Sc288 O298 2.105 . S
Sc288 O300 2.105 . S
Sc288 O304 2.105 . S
Sc288 O306 2.105 . S
O289 Sc286 2.025 . S
O289 Sc287 2.025 . S
O289 Sc288 2.025 . S
C290 O296 1.268 . S
C290 O306 1.268 . S
C291 O297 1.268 1_556 S
C291 O305 1.268 . S
C292 O298 1.268 . S
C292 O307 1.268 . S
C293 O299 1.268 . S
C293 O303 1.268 . S
C294 O300 1.268 . S
C294 O302 1.268 . S
C295 O301 1.268 . S
C295 O304 1.268 . S
O296 Sc286 2.105 . S
O296 C290 1.268 . S
O297 Sc287 2.105 . S
O297 C291 1.268 1_554 S
O298 Sc288 2.105 . S
O298 C292 1.268 . S
O299 Sc286 2.105 . S
O299 C293 1.268 . S
O300 Sc288 2.105 . S
O300 C294 1.268 . S
O301 Sc287 2.105 . S
O301 C295 1.268 . S
O302 Sc286 2.105 . S
O302 C294 1.268 . S
O303 Sc287 2.105 . S
O303 C293 1.268 . S
O304 Sc288 2.105 . S
O304 C295 1.268 . S
O305 Sc286 2.105 1_556 S
O305 C291 1.268 . S
O306 Sc288 2.105 . S
O306 C290 1.268 . S
O307 Sc287 2.105 . S
O307 C292 1.268 . S
Sc308 O311 2.025 . S
Sc308 O318 2.105 . S
Sc308 O321 2.105 . S
Sc308 O324 2.105 . S
Sc308 O327 2.105 1_554 S
Sc309 O311 2.025 . S
Sc309 O319 2.105 . S
Sc309 O323 2.105 . S
Sc309 O325 2.105 . S
Sc309 O329 2.105 . S
Sc310 O311 2.025 . S
Sc310 O320 2.105 . S
Sc310 O322 2.105 . S
Sc310 O326 2.105 . S
Sc310 O328 2.105 . S
O311 Sc308 2.025 . S
O311 Sc309 2.025 . S
O311 Sc310 2.025 . S
C312 O318 1.268 . S
C312 O328 1.268 . S
C313 O319 1.268 1_556 S
C313 O327 1.268 . S
C314 O320 1.268 . S
C314 O329 1.268 . S
C315 O321 1.268 . S
C315 O325 1.268 . S
C316 O322 1.268 . S
C316 O324 1.268 . S
C317 O323 1.268 . S
C317 O326 1.268 . S
O318 Sc308 2.105 . S
O318 C312 1.268 . S
O319 Sc309 2.105 . S
O319 C313 1.268 1_554 S
O320 Sc310 2.105 . S
O320 C314 1.268 . S
O321 Sc308 2.105 . S
O321 C315 1.268 . S
O322 Sc310 2.105 . S
O322 C316 1.268 . S
O323 Sc309 2.105 . S
O323 C317 1.268 . S
O324 Sc308 2.105 . S
O324 C316 1.268 . S
O325 Sc309 2.105 . S
O325 C315 1.268 . S
O326 Sc310 2.105 . S
O326 C317 1.268 . S
O327 Sc308 2.105 1_556 S
O327 C313 1.268 . S
O328 Sc310 2.105 . S
O328 C312 1.268 . S
O329 Sc309 2.105 . S
O329 C314 1.268 . S
Sc330 O333 2.025 . S
Sc330 O340 2.105 . S
Sc330 O343 2.105 . S
Sc330 O346 2.105 . S
Sc330 O349 2.105 . S
Sc331 O333 2.025 . S
Sc331 O341 2.105 . S
Sc331 O345 2.105 . S
Sc331 O347 2.105 . S
Sc331 O351 2.105 . S
Sc332 O333 2.025 . S
Sc332 O342 2.105 1_554 S
Sc332 O344 2.105 . S
Sc332 O348 2.105 . S
Sc332 O350 2.105 . S
O333 Sc330 2.025 . S
O333 Sc331 2.025 . S
O333 Sc332 2.025 . S
C334 O340 1.268 . S
C334 O350 1.268 . S
C335 O341 1.268 . S
C335 O349 1.268 . S
C336 O342 1.268 . S
C336 O351 1.268 1_556 S
C337 O343 1.268 . S
C337 O347 1.268 . S
C338 O344 1.268 . S
C338 O346 1.268 . S
C339 O345 1.268 . S
C339 O348 1.268 . S
O340 Sc330 2.105 . S
O340 C334 1.268 . S
O341 Sc331 2.105 . S
O341 C335 1.268 . S
O342 Sc332 2.105 1_556 S
O342 C336 1.268 . S
O343 Sc330 2.105 . S
O343 C337 1.268 . S
O344 Sc332 2.105 . S
O344 C338 1.268 . S
O345 Sc331 2.105 . S
O345 C339 1.268 . S
O346 Sc330 2.105 . S
O346 C338 1.268 . S
O347 Sc331 2.105 . S
O347 C337 1.268 . S
O348 Sc332 2.105 . S
O348 C339 1.268 . S
O349 Sc330 2.105 . S
O349 C335 1.268 . S
O350 Sc332 2.105 . S
O350 C334 1.268 . S
O351 Sc331 2.105 . S
O351 C336 1.268 1_554 S
Sc352 O355 2.025 . S
Sc352 O362 2.105 . S
Sc352 O365 2.105 . S
Sc352 O368 2.105 . S
Sc352 O371 2.105 . S
Sc353 O355 2.025 . S
Sc353 O363 2.105 . S
Sc353 O367 2.105 . S
Sc353 O369 2.105 . S
Sc353 O373 2.105 . S
Sc354 O355 2.025 . S
Sc354 O364 2.105 1_554 S
Sc354 O366 2.105 . S
Sc354 O370 2.105 . S
Sc354 O372 2.105 . S
O355 Sc352 2.025 . S
O355 Sc353 2.025 . S
O355 Sc354 2.025 . S
C356 O362 1.268 . S
C356 O372 1.268 . S
C357 O363 1.268 . S
C357 O371 1.268 . S
C358 O364 1.268 . S
C358 O373 1.268 1_556 S
C359 O365 1.268 . S
C359 O369 1.268 . S
C360 O366 1.268 . S
C360 O368 1.268 . S
C361 O367 1.268 . S
C361 O370 1.268 . S
O362 Sc352 2.105 . S
O362 C356 1.268 . S
O363 Sc353 2.105 . S
O363 C357 1.268 . S
O364 Sc354 2.105 1_556 S
O364 C358 1.268 . S
O365 Sc352 2.105 . S
O365 C359 1.268 . S
O366 Sc354 2.105 . S
O366 C360 1.268 . S
O367 Sc353 2.105 . S
O367 C361 1.268 . S
O368 Sc352 2.105 . S
O368 C360 1.268 . S
O369 Sc353 2.105 . S
O369 C359 1.268 . S
O370 Sc354 2.105 . S
O370 C361 1.268 . S
O371 Sc352 2.105 . S
O371 C357 1.268 . S
O372 Sc354 2.105 . S
O372 C356 1.268 . S
O373 Sc353 2.105 . S
O373 C358 1.268 1_554 S
Sc374 O377 2.025 . S
Sc374 O384 2.105 . S
Sc374 O387 2.105 . S
Sc374 O390 2.105 . S
Sc374 O393 2.105 . S
Sc375 O377 2.025 . S
Sc375 O385 2.105 . S
Sc375 O389 2.105 . S
Sc375 O391 2.105 . S
Sc375 O395 2.105 . S
Sc376 O377 2.025 . S
Sc376 O386 2.105 1_554 S
Sc376 O388 2.105 . S
Sc376 O392 2.105 . S
Sc376 O394 2.105 . S
O377 Sc374 2.025 . S
O377 Sc375 2.025 . S
O377 Sc376 2.025 . S
C378 O384 1.268 . S
C378 O394 1.268 . S
C379 O385 1.268 . S
C379 O393 1.268 . S
C380 O386 1.268 . S
C380 O395 1.268 1_556 S
C381 O387 1.268 . S
C381 O391 1.268 . S
C382 O388 1.268 . S
C382 O390 1.268 . S
C383 O389 1.268 . S
C383 O392 1.268 . S
O384 Sc374 2.105 . S
O384 C378 1.268 . S
O385 Sc375 2.105 . S
O385 C379 1.268 . S
O386 Sc376 2.105 1_556 S
O386 C380 1.268 . S
O387 Sc374 2.105 . S
O387 C381 1.268 . S
O388 Sc376 2.105 . S
O388 C382 1.268 . S
O389 Sc375 2.105 . S
O389 C383 1.268 . S
O390 Sc374 2.105 . S
O390 C382 1.268 . S
O391 Sc375 2.105 . S
O391 C381 1.268 . S
O392 Sc376 2.105 . S
O392 C383 1.268 . S
O393 Sc374 2.105 . S
O393 C379 1.268 . S
O394 Sc376 2.105 . S
O394 C378 1.268 . S
O395 Sc375 2.105 . S
O395 C380 1.268 1_554 S
H396 C402 0.930 . S
H397 C406 0.930 . S
H398 C411 0.929 . S
H399 C409 0.929 . S
H400 C404 0.929 . S
H401 C410 0.929 . S
C402 H396 0.930 . S
C402 C403 1.367 . S
C402 C410 1.378 . S
C403 C402 1.367 . S
C403 C411 1.433 . S
C404 H400 0.929 . S
C404 C406 1.378 . S
C404 C408 1.350 . S
C405 C408 1.463 . S
C405 C410 1.350 . S
C405 N413 1.427 . S
C406 H397 0.930 . S
C406 C404 1.378 . S
C406 C407 1.367 . S
C407 C406 1.367 . S
C407 C409 1.433 . S
C408 C404 1.350 . S
C408 C405 1.463 . S
C408 N412 1.427 . S
C409 H399 0.929 . S
C409 C407 1.433 . S
C409 N412 1.384 . S
C410 H401 0.929 . S
C410 C402 1.378 . S
C410 C405 1.350 . S
C411 H398 0.929 . S
C411 C403 1.433 . S
C411 N413 1.384 . S
N412 C408 1.427 . S
N412 C409 1.384 . S
N413 C405 1.427 . S
N413 C411 1.384 . S
H414 C420 0.930 . S
H415 C424 0.930 . S
H416 C429 0.929 . S
H417 C427 0.929 . S
H418 C422 0.929 . S
H419 C428 0.929 . S
C420 H414 0.930 . S
C420 C421 1.367 . S
C420 C428 1.378 . S
C421 C420 1.367 . S
C421 C429 1.433 . S
C422 H418 0.929 . S
C422 C424 1.378 . S
C422 C426 1.350 . S
C423 C426 1.463 . S
C423 C428 1.350 . S
C423 N431 1.427 . S
C424 H415 0.930 . S
C424 C422 1.378 . S
C424 C425 1.367 . S
C425 C424 1.367 . S
C425 C427 1.433 . S
C426 C422 1.350 . S
C426 C423 1.463 . S
C426 N430 1.427 . S
C427 H417 0.929 . S
C427 C425 1.433 . S
C427 N430 1.384 . S
C428 H419 0.929 . S
C428 C420 1.378 . S
C428 C423 1.350 . S
C429 H416 0.929 . S
C429 C421 1.433 . S
C429 N431 1.384 . S
N430 C426 1.427 . S
N430 C427 1.384 . S
N431 C423 1.427 . S
N431 C429 1.384 . S
H432 C438 0.930 . S
H433 C442 0.930 . S
H434 C447 0.929 1_545 S
H435 C445 0.929 . S
H436 C440 0.929 . S
H437 C446 0.929 . S
C438 H432 0.930 . S
C438 C439 1.367 . S
C438 C446 1.378 . S
C439 C438 1.367 . S
C439 C447 1.433 . S
C440 H436 0.929 . S
C440 C442 1.378 . S
C440 C444 1.350 . S
C441 C444 1.463 . S
C441 C446 1.350 . S
C441 N449 1.427 . S
C442 H433 0.930 . S
C442 C440 1.378 . S
C442 C443 1.367 . S
C443 C442 1.367 . S
C443 C445 1.433 . S
C444 C440 1.350 . S
C444 C441 1.463 . S
C444 N448 1.427 . S
C445 H435 0.929 . S
C445 C443 1.433 . S
C445 N448 1.384 . S
C446 H437 0.929 . S
C446 C438 1.378 . S
C446 C441 1.350 . S
C447 H434 0.929 1_565 S
C447 C439 1.433 . S
C447 N449 1.384 . S
N448 C444 1.427 . S
N448 C445 1.384 . S
N449 C441 1.427 . S
N449 C447 1.384 . S
H450 C456 0.930 . S
H451 C460 0.930 . S
H452 C465 0.929 . S
H453 C463 0.929 . S
H454 C458 0.929 . S
H455 C464 0.929 . S
C456 H450 0.930 . S
C456 C457 1.367 . S
C456 C464 1.378 . S
C457 C456 1.367 . S
C457 C465 1.433 . S
C458 H454 0.929 . S
C458 C460 1.378 . S
C458 C462 1.350 . S
C459 C462 1.463 . S
C459 C464 1.350 . S
C459 N467 1.427 . S
C460 H451 0.930 . S
C460 C458 1.378 . S
C460 C461 1.367 . S
C461 C460 1.367 . S
C461 C463 1.433 . S
C462 C458 1.350 . S
C462 C459 1.463 . S
C462 N466 1.427 . S
C463 H453 0.929 . S
C463 C461 1.433 . S
C463 N466 1.384 . S
C464 H455 0.929 . S
C464 C456 1.378 . S
C464 C459 1.350 . S
C465 H452 0.929 . S
C465 C457 1.433 . S
C465 N467 1.384 . S
N466 C462 1.427 . S
N466 C463 1.384 . S
N467 C459 1.427 . S
N467 C465 1.384 . S
H468 C474 0.930 . S
H469 C478 0.930 1_455 S
H470 C483 0.929 . S
H471 C481 0.929 . S
H472 C476 0.929 . S
H473 C482 0.929 . S
C474 H468 0.930 . S
C474 C475 1.367 . S
C474 C482 1.378 . S
C475 C474 1.367 . S
C475 C483 1.433 . S
C476 H472 0.929 . S
C476 C478 1.378 . S
C476 C480 1.350 . S
C477 C480 1.463 . S
C477 C482 1.350 . S
C477 N485 1.427 . S
C478 H469 0.930 1_655 S
C478 C476 1.378 . S
C478 C479 1.367 . S
C479 C478 1.367 . S
C479 C481 1.433 . S
C480 C476 1.350 . S
C480 C477 1.463 . S
C480 N484 1.427 . S
C481 H471 0.929 . S
C481 C479 1.433 . S
C481 N484 1.384 . S
C482 H473 0.929 . S
C482 C474 1.378 . S
C482 C477 1.350 . S
C483 H470 0.929 . S
C483 C475 1.433 . S
C483 N485 1.384 . S
N484 C480 1.427 . S
N484 C481 1.384 . S
N485 C477 1.427 . S
N485 C483 1.384 . S
H486 C492 0.930 . S
H487 C496 0.930 . S
H488 C501 0.929 . S
H489 C499 0.929 . S
H490 C494 0.929 . S
H491 C500 0.929 . S
C492 H486 0.930 . S
C492 C493 1.367 . S
C492 C500 1.378 . S
C493 C492 1.367 . S
C493 C501 1.433 . S
C494 H490 0.929 . S
C494 C496 1.378 . S
C494 C498 1.350 . S
C495 C498 1.463 . S
C495 C500 1.350 . S
C495 N503 1.427 . S
C496 H487 0.930 . S
C496 C494 1.378 . S
C496 C497 1.367 . S
C497 C496 1.367 . S
C497 C499 1.433 . S
C498 C494 1.350 . S
C498 C495 1.463 . S
C498 N502 1.427 . S
C499 H489 0.929 . S
C499 C497 1.433 . S
C499 N502 1.384 . S
C500 H491 0.929 . S
C500 C492 1.378 . S
C500 C495 1.350 . S
C501 H488 0.929 . S
C501 C493 1.433 . S
C501 N503 1.384 . S
N502 C498 1.427 . S
N502 C499 1.384 . S
N503 C495 1.427 . S
N503 C501 1.384 . S
H504 C510 0.930 . S
H505 C514 0.930 . S
H506 C519 0.929 . S
H507 C517 0.929 . S
H508 C512 0.929 . S
H509 C518 0.929 . S
C510 H504 0.930 . S
C510 C511 1.367 . S
C510 C518 1.378 . S
C511 C510 1.367 . S
C511 C519 1.433 . S
C512 H508 0.929 . S
C512 C514 1.378 . S
C512 C516 1.350 . S
C513 C516 1.463 . S
C513 C518 1.350 . S
C513 N521 1.427 . S
C514 H505 0.930 . S
C514 C512 1.378 . S
C514 C515 1.367 . S
C515 C514 1.367 . S
C515 C517 1.433 . S
C516 C512 1.350 . S
C516 C513 1.463 . S
C516 N520 1.427 . S
C517 H507 0.929 . S
C517 C515 1.433 . S
C517 N520 1.384 . S
C518 H509 0.929 . S
C518 C510 1.378 . S
C518 C513 1.350 . S
C519 H506 0.929 . S
C519 C511 1.433 . S
C519 N521 1.384 . S
N520 C516 1.427 . S
N520 C517 1.384 . S
N521 C513 1.427 . S
N521 C519 1.384 . S
H522 C528 0.930 . S
H523 C532 0.930 . S
H524 C537 0.929 . S
H525 C535 0.929 . S
H526 C530 0.929 . S
H527 C536 0.929 . S
C528 H522 0.930 . S
C528 C529 1.367 . S
C528 C536 1.378 . S
C529 C528 1.367 . S
C529 C537 1.433 . S
C530 H526 0.929 . S
C530 C532 1.378 . S
C530 C534 1.350 . S
C531 C534 1.463 . S
C531 C536 1.350 . S
C531 N539 1.427 . S
C532 H523 0.930 . S
C532 C530 1.378 . S
C532 C533 1.367 . S
C533 C532 1.367 . S
C533 C535 1.433 . S
C534 C530 1.350 . S
C534 C531 1.463 . S
C534 N538 1.427 . S
C535 H525 0.929 . S
C535 C533 1.433 . S
C535 N538 1.384 . S
C536 H527 0.929 . S
C536 C528 1.378 . S
C536 C531 1.350 . S
C537 H524 0.929 . S
C537 C529 1.433 . S
C537 N539 1.384 . S
N538 C534 1.427 . S
N538 C535 1.384 . S
N539 C531 1.427 . S
N539 C537 1.384 . S
H540 C546 0.930 . S
H541 C550 0.930 . S
H542 C555 0.929 . S
H543 C553 0.929 . S
H544 C548 0.929 . S
H545 C554 0.929 . S
C546 H540 0.930 . S
C546 C547 1.367 . S
C546 C554 1.378 . S
C547 C546 1.367 . S
C547 C555 1.433 . S
C548 H544 0.929 . S
C548 C550 1.378 . S
C548 C552 1.350 . S
C549 C552 1.463 . S
C549 C554 1.350 . S
C549 N557 1.427 . S
C550 H541 0.930 . S
C550 C548 1.378 . S
C550 C551 1.367 . S
C551 C550 1.367 . S
C551 C553 1.433 . S
C552 C548 1.350 . S
C552 C549 1.463 . S
C552 N556 1.427 . S
C553 H543 0.929 . S
C553 C551 1.433 . S
C553 N556 1.384 . S
C554 H545 0.929 . S
C554 C546 1.378 . S
C554 C549 1.350 . S
C555 H542 0.929 . S
C555 C547 1.433 . S
C555 N557 1.384 . S
N556 C552 1.427 . S
N556 C553 1.384 . S
N557 C549 1.427 . S
N557 C555 1.384 . S
H558 C564 0.930 . S
H559 C568 0.930 . S
H560 C573 0.929 . S
H561 C571 0.929 . S
H562 C566 0.929 . S
H563 C572 0.929 . S
C564 H558 0.930 . S
C564 C565 1.367 . S
C564 C572 1.378 . S
C565 C564 1.367 . S
C565 C573 1.433 . S
C566 H562 0.929 . S
C566 C568 1.378 . S
C566 C570 1.350 . S
C567 C570 1.463 . S
C567 C572 1.350 . S
C567 N575 1.427 . S
C568 H559 0.930 . S
C568 C566 1.378 . S
C568 C569 1.367 . S
C569 C568 1.367 . S
C569 C571 1.433 . S
C570 C566 1.350 . S
C570 C567 1.463 . S
C570 N574 1.427 . S
C571 H561 0.929 . S
C571 C569 1.433 . S
C571 N574 1.384 . S
C572 H563 0.929 . S
C572 C564 1.378 . S
C572 C567 1.350 . S
C573 H560 0.929 . S
C573 C565 1.433 . S
C573 N575 1.384 . S
N574 C570 1.427 . S
N574 C571 1.384 . S
N575 C567 1.427 . S
N575 C573 1.384 . S
H576 C582 0.930 . S
H577 C586 0.930 . S
H578 C591 0.929 . S
H579 C589 0.929 . S
H580 C584 0.929 . S
H581 C590 0.929 . S
C582 H576 0.930 . S
C582 C583 1.367 . S
C582 C590 1.378 . S
C583 C582 1.367 . S
C583 C591 1.433 . S
C584 H580 0.929 . S
C584 C586 1.378 . S
C584 C588 1.350 . S
C585 C588 1.463 . S
C585 C590 1.350 . S
C585 N593 1.427 . S
C586 H577 0.930 . S
C586 C584 1.378 . S
C586 C587 1.367 . S
C587 C586 1.367 . S
C587 C589 1.433 . S
C588 C584 1.350 . S
C588 C585 1.463 . S
C588 N592 1.427 . S
C589 H579 0.929 . S
C589 C587 1.433 . S
C589 N592 1.384 . S
C590 H581 0.929 . S
C590 C582 1.378 . S
C590 C585 1.350 . S
C591 H578 0.929 . S
C591 C583 1.433 . S
C591 N593 1.384 . S
N592 C588 1.427 . S
N592 C589 1.384 . S
N593 C585 1.427 . S
N593 C591 1.384 . S
H594 C600 0.930 . S
H595 C604 0.930 . S
H596 C609 0.929 . S
H597 C607 0.929 . S
H598 C602 0.929 . S
H599 C608 0.929 . S
C600 H594 0.930 . S
C600 C601 1.367 . S
C600 C608 1.378 . S
C601 C600 1.367 . S
C601 C609 1.433 . S
C602 H598 0.929 . S
C602 C604 1.378 . S
C602 C606 1.350 . S
C603 C606 1.463 . S
C603 C608 1.350 . S
C603 N611 1.427 . S
C604 H595 0.930 . S
C604 C602 1.378 . S
C604 C605 1.367 . S
C605 C604 1.367 . S
C605 C607 1.433 . S
C606 C602 1.350 . S
C606 C603 1.463 . S
C606 N610 1.427 . S
C607 H597 0.929 . S
C607 C605 1.433 . S
C607 N610 1.384 . S
C608 H599 0.929 . S
C608 C600 1.378 . S
C608 C603 1.350 . S
C609 H596 0.929 . S
C609 C601 1.433 . S
C609 N611 1.384 . S
N610 C606 1.427 . S
N610 C607 1.384 . S
N611 C603 1.427 . S
N611 C609 1.384 . S
H612 C618 0.930 1_554 S
H613 C622 0.930 1_556 S
H614 C627 0.929 . S
H615 C625 0.929 . S
H616 C620 0.929 . S
H617 C626 0.929 . S
C618 H612 0.930 1_556 S
C618 C619 1.367 . S
C618 C626 1.378 1_556 S
C619 C618 1.367 . S
C619 C627 1.433 . S
C620 H616 0.929 . S
C620 C622 1.378 1_556 S
C620 C624 1.350 1_556 S
C621 C624 1.463 1_556 S
C621 C626 1.350 1_456 S
C621 N629 1.427 1_455 S
C622 H613 0.930 1_554 S
C622 C620 1.378 1_554 S
C622 C623 1.367 . S
C623 C622 1.367 . S
C623 C625 1.433 . S
C624 C620 1.350 1_554 S
C624 C621 1.463 1_554 S
C624 N628 1.427 . S
C625 H615 0.929 . S
C625 C623 1.433 . S
C625 N628 1.384 . S
C626 H617 0.929 . S
C626 C618 1.378 1_554 S
C626 C621 1.350 1_654 S
C627 H614 0.929 . S
C627 C619 1.433 . S
C627 N629 1.384 . S
N628 C624 1.427 . S
N628 C625 1.384 . S
N629 C621 1.427 1_655 S
N629 C627 1.384 . S
H630 C636 0.930 . S
H631 C640 0.930 . S
H632 C645 0.929 . S
H633 C643 0.929 . S
H634 C638 0.929 . S
H635 C644 0.929 . S
C636 H630 0.930 . S
C636 C637 1.367 . S
C636 C644 1.378 . S
C637 C636 1.367 . S
C637 C645 1.433 1_556 S
C638 H634 0.929 . S
C638 C640 1.378 . S
C638 C642 1.350 . S
C639 C642 1.463 1_556 S
C639 C644 1.350 . S
C639 N647 1.427 1_556 S
C640 H631 0.930 . S
C640 C638 1.378 . S
C640 C641 1.367 . S
C641 C640 1.367 . S
C641 C643 1.433 1_554 S
C642 C638 1.350 . S
C642 C639 1.463 1_554 S
C642 N646 1.427 1_554 S
C643 H633 0.929 . S
C643 C641 1.433 1_556 S
C643 N646 1.384 . S
C644 H635 0.929 . S
C644 C636 1.378 . S
C644 C639 1.350 . S
C645 H632 0.929 . S
C645 C637 1.433 1_554 S
C645 N647 1.384 . S
N646 C642 1.427 1_556 S
N646 C643 1.384 . S
N647 C639 1.427 1_554 S
N647 C645 1.384 . S
H648 C654 0.930 . S
H649 C658 0.930 . S
H650 C663 0.929 . S
H651 C661 0.929 . S
H652 C656 0.929 . S
H653 C662 0.929 . S
C654 H648 0.930 . S
C654 C655 1.367 1_554 S
C654 C662 1.378 . S
C655 C654 1.367 1_556 S
C655 C663 1.433 . S
C656 H652 0.929 . S
C656 C658 1.378 . S
C656 C660 1.350 1_566 S
C657 C660 1.463 1_556 S
C657 C662 1.350 1_556 S
C657 N665 1.427 . S
C658 H649 0.930 . S
C658 C656 1.378 . S
C658 C659 1.367 1_556 S
C659 C658 1.367 1_554 S
C659 C661 1.433 . S
C660 C656 1.350 1_544 S
C660 C657 1.463 1_554 S
C660 N664 1.427 1_545 S
C661 H651 0.929 . S
C661 C659 1.433 . S
C661 N664 1.384 . S
C662 H653 0.929 . S
C662 C654 1.378 . S
C662 C657 1.350 1_554 S
C663 H650 0.929 . S
C663 C655 1.433 . S
C663 N665 1.384 . S
N664 C660 1.427 1_565 S
N664 C661 1.384 . S
N665 C657 1.427 . S
N665 C663 1.384 . S
H666 C672 0.930 . S
H667 C676 0.930 . S
H668 C681 0.929 . S
H669 C679 0.929 . S
H670 C674 0.929 1_545 S
H671 C680 0.929 . S
C672 H666 0.930 . S
C672 C673 1.367 . S
C672 C680 1.378 . S
C673 C672 1.367 . S
C673 C681 1.433 1_556 S
C674 H670 0.929 1_565 S
C674 C676 1.378 . S
C674 C678 1.350 1_565 S
C675 C678 1.463 1_556 S
C675 C680 1.350 . S
C675 N683 1.427 1_556 S
C676 H667 0.930 . S
C676 C674 1.378 . S
C676 C677 1.367 . S
C677 C676 1.367 . S
C677 C679 1.433 1_554 S
C678 C674 1.350 1_545 S
C678 C675 1.463 1_554 S
C678 N682 1.427 1_544 S
C679 H669 0.929 . S
C679 C677 1.433 1_556 S
C679 N682 1.384 . S
C680 H671 0.929 . S
C680 C672 1.378 . S
C680 C675 1.350 . S
C681 H668 0.929 . S
C681 C673 1.433 1_554 S
C681 N683 1.384 . S
N682 C678 1.427 1_566 S
N682 C679 1.384 . S
N683 C675 1.427 1_554 S
N683 C681 1.384 . S
H684 C690 0.930 . S
H685 C694 0.930 . S
H686 C699 0.929 . S
H687 C697 0.929 . S
H688 C692 0.929 . S
H689 C698 0.929 . S
C690 H684 0.930 . S
C690 C691 1.367 1_556 S
C690 C698 1.378 . S
C691 C690 1.367 1_554 S
C691 C699 1.433 . S
C692 H688 0.929 . S
C692 C694 1.378 . S
C692 C696 1.350 1_654 S
C693 C696 1.463 1_554 S
C693 C698 1.350 1_554 S
C693 N701 1.427 . S
C694 H685 0.930 . S
C694 C692 1.378 . S
C694 C695 1.367 1_554 S
C695 C694 1.367 1_556 S
C695 C697 1.433 . S
C696 C692 1.350 1_456 S
C696 C693 1.463 1_556 S
C696 N700 1.427 1_455 S
C697 H687 0.929 . S
C697 C695 1.433 . S
C697 N700 1.384 . S
C698 H689 0.929 . S
C698 C690 1.378 . S
C698 C693 1.350 1_556 S
C699 H686 0.929 . S
C699 C691 1.433 . S
C699 N701 1.384 . S
N700 C696 1.427 1_655 S
N700 C697 1.384 . S
N701 C693 1.427 . S
N701 C699 1.384 . S
H702 C708 0.930 . S
H703 C712 0.930 . S
H704 C717 0.929 . S
H705 C715 0.929 . S
H706 C710 0.929 . S
H707 C716 0.929 . S
C708 H702 0.930 . S
C708 C709 1.367 . S
C708 C716 1.378 . S
C709 C708 1.367 . S
C709 C717 1.433 1_554 S
C710 H706 0.929 . S
C710 C712 1.378 . S
C710 C714 1.350 . S
C711 C714 1.463 1_554 S
C711 C716 1.350 . S
C711 N719 1.427 1_554 S
C712 H703 0.930 . S
C712 C710 1.378 . S
C712 C713 1.367 . S
C713 C712 1.367 . S
C713 C715 1.433 1_556 S
C714 C710 1.350 . S
C714 C711 1.463 1_556 S
C714 N718 1.427 1_556 S
C715 H705 0.929 . S
C715 C713 1.433 1_554 S
C715 N718 1.384 . S
C716 H707 0.929 . S
C716 C708 1.378 . S
C716 C711 1.350 . S
C717 H704 0.929 . S
C717 C709 1.433 1_556 S
C717 N719 1.384 . S
N718 C714 1.427 1_554 S
N718 C715 1.384 . S
N719 C711 1.427 1_556 S
N719 C717 1.384 . S
H720 C726 0.930 . S
H721 C730 0.930 . S
H722 C735 0.929 . S
H723 C733 0.929 . S
H724 C728 0.929 . S
H725 C734 0.929 . S
C726 H720 0.930 . S
C726 C727 1.367 . S
C726 C734 1.378 . S
C727 C726 1.367 . S
C727 C735 1.433 . S
C728 H724 0.929 . S
C728 C730 1.378 . S
C728 C732 1.350 . S
C729 C732 1.463 . S
C729 C734 1.350 . S
C729 N737 1.427 . S
C730 H721 0.930 . S
C730 C728 1.378 . S
C730 C731 1.367 . S
C731 C730 1.367 . S
C731 C733 1.433 . S
C732 C728 1.350 . S
C732 C729 1.463 . S
C732 N736 1.427 . S
C733 H723 0.929 . S
C733 C731 1.433 . S
C733 N736 1.384 . S
C734 H725 0.929 . S
C734 C726 1.378 . S
C734 C729 1.350 . S
C735 H722 0.929 . S
C735 C727 1.433 . S
C735 N737 1.384 . S
N736 C732 1.427 . S
N736 C733 1.384 . S
N737 C729 1.427 . S
N737 C735 1.384 . S
H738 C744 0.930 . S
H739 C748 0.930 . S
H740 C753 0.929 . S
H741 C751 0.929 . S
H742 C746 0.929 . S
H743 C752 0.929 . S
C744 H738 0.930 . S
C744 C745 1.367 . S
C744 C752 1.378 . S
C745 C744 1.367 . S
C745 C753 1.433 . S
C746 H742 0.929 . S
C746 C748 1.378 . S
C746 C750 1.350 . S
C747 C750 1.463 . S
C747 C752 1.350 . S
C747 N755 1.427 . S
C748 H739 0.930 . S
C748 C746 1.378 . S
C748 C749 1.367 . S
C749 C748 1.367 . S
C749 C751 1.433 . S
C750 C746 1.350 . S
C750 C747 1.463 . S
C750 N754 1.427 . S
C751 H741 0.929 . S
C751 C749 1.433 . S
C751 N754 1.384 . S
C752 H743 0.929 . S
C752 C744 1.378 . S
C752 C747 1.350 . S
C753 H740 0.929 . S
C753 C745 1.433 . S
C753 N755 1.384 . S
N754 C750 1.427 . S
N754 C751 1.384 . S
N755 C747 1.427 . S
N755 C753 1.384 . S
H756 C762 0.930 . S
H757 C766 0.930 . S
H758 C771 0.929 . S
H759 C769 0.929 . S
H760 C764 0.929 . S
H761 C770 0.929 . S
C762 H756 0.930 . S
C762 C763 1.367 . S
C762 C770 1.378 . S
C763 C762 1.367 . S
C763 C771 1.433 . S
C764 H760 0.929 . S
C764 C766 1.378 . S
C764 C768 1.350 . S
C765 C768 1.463 . S
C765 C770 1.350 . S
C765 N773 1.427 . S
C766 H757 0.930 . S
C766 C764 1.378 . S
C766 C767 1.367 . S
C767 C766 1.367 . S
C767 C769 1.433 . S
C768 C764 1.350 . S
C768 C765 1.463 . S
C768 N772 1.427 . S
C769 H759 0.929 . S
C769 C767 1.433 . S
C769 N772 1.384 . S
C770 H761 0.929 . S
C770 C762 1.378 . S
C770 C765 1.350 . S
C771 H758 0.929 . S
C771 C763 1.433 . S
C771 N773 1.384 . S
N772 C768 1.427 . S
N772 C769 1.384 . S
N773 C765 1.427 . S
N773 C771 1.384 . S
H774 C780 0.930 . S
H775 C784 0.930 . S
H776 C789 0.929 . S
H777 C787 0.929 . S
H778 C782 0.929 . S
H779 C788 0.929 . S
C780 H774 0.930 . S
C780 C781 1.367 . S
C780 C788 1.378 . S
C781 C780 1.367 . S
C781 C789 1.433 . S
C782 H778 0.929 . S
C782 C784 1.378 . S
C782 C786 1.350 . S
C783 C786 1.463 . S
C783 C788 1.350 . S
C783 N791 1.427 . S
C784 H775 0.930 . S
C784 C782 1.378 . S
C784 C785 1.367 . S
C785 C784 1.367 . S
C785 C787 1.433 . S
C786 C782 1.350 . S
C786 C783 1.463 . S
C786 N790 1.427 . S
C787 H777 0.929 . S
C787 C785 1.433 . S
C787 N790 1.384 . S
C788 H779 0.929 . S
C788 C780 1.378 . S
C788 C783 1.350 . S
C789 H776 0.929 . S
C789 C781 1.433 . S
C789 N791 1.384 . S
N790 C786 1.427 . S
N790 C787 1.384 . S
N791 C783 1.427 . S
N791 C789 1.384 . S
H792 C798 0.930 . S
H793 C802 0.930 . S
H794 C807 0.929 . S
H795 C805 0.929 . S
H796 C800 0.929 . S
H797 C806 0.929 . S
C798 H792 0.930 . S
C798 C799 1.367 . S
C798 C806 1.378 . S
C799 C798 1.367 . S
C799 C807 1.433 . S
C800 H796 0.929 . S
C800 C802 1.378 . S
C800 C804 1.350 . S
C801 C804 1.463 . S
C801 C806 1.350 . S
C801 N809 1.427 . S
C802 H793 0.930 . S
C802 C800 1.378 . S
C802 C803 1.367 . S
C803 C802 1.367 . S
C803 C805 1.433 . S
C804 C800 1.350 . S
C804 C801 1.463 . S
C804 N808 1.427 . S
C805 H795 0.929 . S
C805 C803 1.433 . S
C805 N808 1.384 . S
C806 H797 0.929 . S
C806 C798 1.378 . S
C806 C801 1.350 . S
C807 H794 0.929 . S
C807 C799 1.433 . S
C807 N809 1.384 . S
N808 C804 1.427 . S
N808 C805 1.384 . S
N809 C801 1.427 . S
N809 C807 1.384 . S
H810 C816 0.930 . S
H811 C820 0.930 . S
H812 C825 0.929 . S
H813 C823 0.929 . S
H814 C818 0.929 . S
H815 C824 0.929 . S
C816 H810 0.930 . S
C816 C817 1.367 . S
C816 C824 1.378 . S
C817 C816 1.367 . S
C817 C825 1.433 . S
C818 H814 0.929 . S
C818 C820 1.378 . S
C818 C822 1.350 . S
C819 C822 1.463 . S
C819 C824 1.350 . S
C819 N827 1.427 . S
C820 H811 0.930 . S
C820 C818 1.378 . S
C820 C821 1.367 . S
C821 C820 1.367 . S
C821 C823 1.433 . S
C822 C818 1.350 . S
C822 C819 1.463 . S
C822 N826 1.427 . S
C823 H813 0.929 . S
C823 C821 1.433 . S
C823 N826 1.384 . S
C824 H815 0.929 . S
C824 C816 1.378 . S
C824 C819 1.350 . S
C825 H812 0.929 . S
C825 C817 1.433 . S
C825 N827 1.384 . S
N826 C822 1.427 . S
N826 C823 1.384 . S
N827 C819 1.427 . S
N827 C825 1.384 . S
H828 C834 0.930 . S
H829 C838 0.930 . S
H830 C843 0.929 . S
H831 C841 0.929 . S
H832 C836 0.929 . S
H833 C842 0.929 . S
C834 H828 0.930 . S
C834 C835 1.367 . S
C834 C842 1.378 . S
C835 C834 1.367 . S
C835 C843 1.433 . S
C836 H832 0.929 . S
C836 C838 1.378 . S
C836 C840 1.350 . S
C837 C840 1.463 . S
C837 C842 1.350 . S
C837 N845 1.427 . S
C838 H829 0.930 . S
C838 C836 1.378 . S
C838 C839 1.367 . S
C839 C838 1.367 . S
C839 C841 1.433 . S
C840 C836 1.350 . S
C840 C837 1.463 . S
C840 N844 1.427 . S
C841 H831 0.929 . S
C841 C839 1.433 . S
C841 N844 1.384 . S
C842 H833 0.929 . S
C842 C834 1.378 . S
C842 C837 1.350 . S
C843 H830 0.929 . S
C843 C835 1.433 . S
C843 N845 1.384 . S
N844 C840 1.427 . S
N844 C841 1.384 . S
N845 C837 1.427 . S
N845 C843 1.384 . S
H846 C852 0.930 . S
H847 C856 0.930 . S
H848 C861 0.929 . S
H849 C859 0.929 . S
H850 C854 0.929 . S
H851 C860 0.929 . S
C852 H846 0.930 . S
C852 C853 1.367 . S
C852 C860 1.378 . S
C853 C852 1.367 . S
C853 C861 1.433 . S
C854 H850 0.929 . S
C854 C856 1.378 . S
C854 C858 1.350 . S
C855 C858 1.463 . S
C855 C860 1.350 . S
C855 N863 1.427 . S
C856 H847 0.930 . S
C856 C854 1.378 . S
C856 C857 1.367 . S
C857 C856 1.367 . S
C857 C859 1.433 . S
C858 C854 1.350 . S
C858 C855 1.463 . S
C858 N862 1.427 . S
C859 H849 0.929 . S
C859 C857 1.433 . S
C859 N862 1.384 . S
C860 H851 0.929 . S
C860 C852 1.378 . S
C860 C855 1.350 . S
C861 H848 0.929 . S
C861 C853 1.433 . S
C861 N863 1.384 . S
N862 C858 1.427 . S
N862 C859 1.384 . S
N863 C855 1.427 . S
N863 C861 1.384 . S
H864 C870 0.930 . S
H865 C874 0.930 . S
H866 C879 0.929 . S
H867 C877 0.929 . S
H868 C872 0.929 . S
H869 C878 0.929 . S
C870 H864 0.930 . S
C870 C871 1.367 . S
C870 C878 1.378 . S
C871 C870 1.367 . S
C871 C879 1.433 . S
C872 H868 0.929 . S
C872 C874 1.378 . S
C872 C876 1.350 . S
C873 C876 1.463 . S
C873 C878 1.350 . S
C873 N881 1.427 . S
C874 H865 0.930 . S
C874 C872 1.378 . S
C874 C875 1.367 . S
C875 C874 1.367 . S
C875 C877 1.433 . S
C876 C872 1.350 . S
C876 C873 1.463 . S
C876 N880 1.427 . S
C877 H867 0.929 . S
C877 C875 1.433 . S
C877 N880 1.384 . S
C878 H869 0.929 . S
C878 C870 1.378 . S
C878 C873 1.350 . S
C879 H866 0.929 . S
C879 C871 1.433 . S
C879 N881 1.384 . S
N880 C876 1.427 . S
N880 C877 1.384 . S
N881 C873 1.427 . S
N881 C879 1.384 . S
H882 C888 0.930 . S
H883 C892 0.930 . S
H884 C897 0.929 . S
H885 C895 0.929 . S
H886 C890 0.929 . S
H887 C896 0.929 . S
C888 H882 0.930 . S
C888 C889 1.367 . S
C888 C896 1.378 . S
C889 C888 1.367 . S
C889 C897 1.433 . S
C890 H886 0.929 . S
C890 C892 1.378 . S
C890 C894 1.350 . S
C891 C894 1.463 . S
C891 C896 1.350 . S
C891 N899 1.427 . S
C892 H883 0.930 . S
C892 C890 1.378 . S
C892 C893 1.367 . S
C893 C892 1.367 . S
C893 C895 1.433 . S
C894 C890 1.350 . S
C894 C891 1.463 . S
C894 N898 1.427 . S
C895 H885 0.929 . S
C895 C893 1.433 . S
C895 N898 1.384 . S
C896 H887 0.929 . S
C896 C888 1.378 . S
C896 C891 1.350 . S
C897 H884 0.929 . S
C897 C889 1.433 . S
C897 N899 1.384 . S
N898 C894 1.427 . S
N898 C895 1.384 . S
N899 C891 1.427 . S
N899 C897 1.384 . S
H900 C906 0.930 . S
H901 C910 0.930 . S
H902 C915 0.929 . S
H903 C913 0.929 . S
H904 C908 0.929 . S
H905 C914 0.929 . S
C906 H900 0.930 . S
C906 C907 1.367 . S
C906 C914 1.378 . S
C907 C906 1.367 . S
C907 C915 1.433 . S
C908 H904 0.929 . S
C908 C910 1.378 . S
C908 C912 1.350 . S
C909 C912 1.463 . S
C909 C914 1.350 . S
C909 N917 1.427 . S
C910 H901 0.930 . S
C910 C908 1.378 . S
C910 C911 1.367 . S
C911 C910 1.367 . S
C911 C913 1.433 . S
C912 C908 1.350 . S
C912 C909 1.463 . S
C912 N916 1.427 . S
C913 H903 0.929 . S
C913 C911 1.433 . S
C913 N916 1.384 . S
C914 H905 0.929 . S
C914 C906 1.378 . S
C914 C909 1.350 . S
C915 H902 0.929 . S
C915 C907 1.433 . S
C915 N917 1.384 . S
N916 C912 1.427 . S
N916 C913 1.384 . S
N917 C909 1.427 . S
N917 C915 1.384 . S
H918 C924 0.930 . S
H919 C928 0.930 . S
H920 C933 0.929 . S
H921 C931 0.929 . S
H922 C926 0.929 . S
H923 C932 0.929 . S
C924 H918 0.930 . S
C924 C925 1.367 . S
C924 C932 1.378 . S
C925 C924 1.367 . S
C925 C933 1.433 . S
C926 H922 0.929 . S
C926 C928 1.378 . S
C926 C930 1.350 . S
C927 C930 1.463 . S
C927 C932 1.350 . S
C927 N935 1.427 . S
C928 H919 0.930 . S
C928 C926 1.378 . S
C928 C929 1.367 . S
C929 C928 1.367 . S
C929 C931 1.433 . S
C930 C926 1.350 . S
C930 C927 1.463 . S
C930 N934 1.427 . S
C931 H921 0.929 . S
C931 C929 1.433 . S
C931 N934 1.384 . S
C932 H923 0.929 . S
C932 C924 1.378 . S
C932 C927 1.350 . S
C933 H920 0.929 . S
C933 C925 1.433 . S
C933 N935 1.384 . S
N934 C930 1.427 . S
N934 C931 1.384 . S
N935 C927 1.427 . S
N935 C933 1.384 . S
H936 C942 0.930 . S
H937 C946 0.930 . S
H938 C951 0.929 . S
H939 C949 0.929 . S
H940 C944 0.929 . S
H941 C950 0.929 . S
C942 H936 0.930 . S
C942 C943 1.367 . S
C942 C950 1.378 . S
C943 C942 1.367 . S
C943 C951 1.433 . S
C944 H940 0.929 . S
C944 C946 1.378 . S
C944 C948 1.350 . S
C945 C948 1.463 . S
C945 C950 1.350 . S
C945 N953 1.427 . S
C946 H937 0.930 . S
C946 C944 1.378 . S
C946 C947 1.367 . S
C947 C946 1.367 . S
C947 C949 1.433 . S
C948 C944 1.350 . S
C948 C945 1.463 . S
C948 N952 1.427 . S
C949 H939 0.929 . S
C949 C947 1.433 . S
C949 N952 1.384 . S
C950 H941 0.929 . S
C950 C942 1.378 . S
C950 C945 1.350 . S
C951 H938 0.929 . S
C951 C943 1.433 . S
C951 N953 1.384 . S
N952 C948 1.427 . S
N952 C949 1.384 . S
N953 C945 1.427 . S
N953 C951 1.384 . S
H954 C960 0.930 . S
H955 C964 0.930 . S
H956 C969 0.929 . S
H957 C967 0.929 . S
H958 C962 0.929 . S
H959 C968 0.929 . S
C960 H954 0.930 . S
C960 C961 1.367 . S
C960 C968 1.378 . S
C961 C960 1.367 . S
C961 C969 1.433 . S
C962 H958 0.929 . S
C962 C964 1.378 . S
C962 C966 1.350 . S
C963 C966 1.463 . S
C963 C968 1.350 . S
C963 N971 1.427 . S
C964 H955 0.930 . S
C964 C962 1.378 . S
C964 C965 1.367 . S
C965 C964 1.367 . S
C965 C967 1.433 . S
C966 C962 1.350 . S
C966 C963 1.463 . S
C966 N970 1.427 . S
C967 H957 0.929 . S
C967 C965 1.433 . S
C967 N970 1.384 . S
C968 H959 0.929 . S
C968 C960 1.378 . S
C968 C963 1.350 . S
C969 H956 0.929 . S
C969 C961 1.433 . S
C969 N971 1.384 . S
N970 C966 1.427 . S
N970 C967 1.384 . S
N971 C963 1.427 . S
N971 C969 1.384 . S
H972 C978 0.930 . S
H973 C982 0.930 . S
H974 C987 0.929 . S
H975 C985 0.929 . S
H976 C980 0.929 . S
H977 C986 0.929 . S
C978 H972 0.930 . S
C978 C979 1.367 . S
C978 C986 1.378 . S
C979 C978 1.367 . S
C979 C987 1.433 . S
C980 H976 0.929 . S
C980 C982 1.378 . S
C980 C984 1.350 . S
C981 C984 1.463 . S
C981 C986 1.350 . S
C981 N989 1.427 . S
C982 H973 0.930 . S
C982 C980 1.378 . S
C982 C983 1.367 . S
C983 C982 1.367 . S
C983 C985 1.433 . S
C984 C980 1.350 . S
C984 C981 1.463 . S
C984 N988 1.427 . S
C985 H975 0.929 . S
C985 C983 1.433 . S
C985 N988 1.384 . S
C986 H977 0.929 . S
C986 C978 1.378 . S
C986 C981 1.350 . S
C987 H974 0.929 . S
C987 C979 1.433 . S
C987 N989 1.384 . S
N988 C984 1.427 . S
N988 C985 1.384 . S
N989 C981 1.427 . S
N989 C987 1.384 . S
H990 C996 0.930 . S
H991 C1000 0.930 . S
H992 C1005 0.929 . S
H993 C1003 0.929 . S
H994 C998 0.929 . S
H995 C1004 0.929 . S
C996 H990 0.930 . S
C996 C997 1.367 . S
C996 C1004 1.378 . S
C997 C996 1.367 . S
C997 C1005 1.433 . S
C998 H994 0.929 . S
C998 C1000 1.378 . S
C998 C1002 1.350 . S
C999 C1002 1.463 . S
C999 C1004 1.350 . S
C999 N1007 1.427 . S
C1000 H991 0.930 . S
C1000 C998 1.378 . S
C1000 C1001 1.367 . S
C1001 C1000 1.367 . S
C1001 C1003 1.433 . S
C1002 C998 1.350 . S
C1002 C999 1.463 . S
C1002 N1006 1.427 . S
C1003 H993 0.929 . S
C1003 C1001 1.433 . S
C1003 N1006 1.384 . S
C1004 H995 0.929 . S
C1004 C996 1.378 . S
C1004 C999 1.350 . S
C1005 H992 0.929 . S
C1005 C997 1.433 . S
C1005 N1007 1.384 . S
N1006 C1002 1.427 . S
N1006 C1003 1.384 . S
N1007 C999 1.427 . S
N1007 C1005 1.384 . S
H1008 C1014 0.930 . S
H1009 C1018 0.930 . S
H1010 C1023 0.929 . S
H1011 C1021 0.929 . S
H1012 C1016 0.929 . S
H1013 C1022 0.929 . S
C1014 H1008 0.930 . S
C1014 C1015 1.367 . S
C1014 C1022 1.378 . S
C1015 C1014 1.367 . S
C1015 C1023 1.433 . S
C1016 H1012 0.929 . S
C1016 C1018 1.378 . S
C1016 C1020 1.350 . S
C1017 C1020 1.463 . S
C1017 C1022 1.350 . S
C1017 N1025 1.427 . S
C1018 H1009 0.930 . S
C1018 C1016 1.378 . S
C1018 C1019 1.367 . S
C1019 C1018 1.367 . S
C1019 C1021 1.433 . S
C1020 C1016 1.350 . S
C1020 C1017 1.463 . S
C1020 N1024 1.427 . S
C1021 H1011 0.929 . S
C1021 C1019 1.433 . S
C1021 N1024 1.384 . S
C1022 H1013 0.929 . S
C1022 C1014 1.378 . S
C1022 C1017 1.350 . S
C1023 H1010 0.929 . S
C1023 C1015 1.433 . S
C1023 N1025 1.384 . S
N1024 C1020 1.427 . S
N1024 C1021 1.384 . S
N1025 C1017 1.427 . S
N1025 C1023 1.384 . S
H1026 C1032 0.930 . S
H1027 C1036 0.930 . S
H1028 C1041 0.929 . S
H1029 C1039 0.929 . S
H1030 C1034 0.929 . S
H1031 C1040 0.929 . S
C1032 H1026 0.930 . S
C1032 C1033 1.367 . S
C1032 C1040 1.378 . S
C1033 C1032 1.367 . S
C1033 C1041 1.433 . S
C1034 H1030 0.929 . S
C1034 C1036 1.378 . S
C1034 C1038 1.350 . S
C1035 C1038 1.463 . S
C1035 C1040 1.350 . S
C1035 N1043 1.427 . S
C1036 H1027 0.930 . S
C1036 C1034 1.378 . S
C1036 C1037 1.367 . S
C1037 C1036 1.367 . S
C1037 C1039 1.433 . S
C1038 C1034 1.350 . S
C1038 C1035 1.463 . S
C1038 N1042 1.427 . S
C1039 H1029 0.929 . S
C1039 C1037 1.433 . S
C1039 N1042 1.384 . S
C1040 H1031 0.929 . S
C1040 C1032 1.378 . S
C1040 C1035 1.350 . S
C1041 H1028 0.929 . S
C1041 C1033 1.433 . S
C1041 N1043 1.384 . S
N1042 C1038 1.427 . S
N1042 C1039 1.384 . S
N1043 C1035 1.427 . S
N1043 C1041 1.384 . S
H1044 C1050 0.922 1_655 S
H1045 C1054 0.930 . S
H1046 C1059 0.929 . S
H1047 C1057 0.929 . S
H1048 C1052 0.929 . S
H1049 C1058 0.940 . S
C1050 H1044 0.922 1_455 S
C1050 C1051 1.376 . S
C1050 C1058 1.377 1_455 S
C1051 C1050 1.376 . S
C1051 C1059 1.433 . S
C1052 H1048 0.929 . S
C1052 C1054 1.378 . S
C1052 C1056 1.350 . S
C1053 C1056 1.463 1_554 S
C1053 C1058 1.340 1_455 S
C1053 N1061 1.427 . S
C1054 H1045 0.930 . S
C1054 C1052 1.378 . S
C1054 C1055 1.367 . S
C1055 C1054 1.367 . S
C1055 C1057 1.433 1_455 S
C1056 C1052 1.350 . S
C1056 C1053 1.463 1_556 S
C1056 N1060 1.427 1_455 S
C1057 H1047 0.929 . S
C1057 C1055 1.433 1_655 S
C1057 N1060 1.384 . S
C1058 H1049 0.940 . S
C1058 C1050 1.377 1_655 S
C1058 C1053 1.340 1_655 S
C1059 H1046 0.929 . S
C1059 C1051 1.433 . S
C1059 N1061 1.384 . S
N1060 C1056 1.427 1_655 S
N1060 C1057 1.384 . S
N1061 C1053 1.427 . S
N1061 C1059 1.384 . S
H1062 C1068 0.930 . S
H1063 C1072 0.930 . S
H1064 C1077 0.929 . S
H1065 C1075 0.929 . S
H1066 C1070 0.929 . S
H1067 C1076 0.929 . S
C1068 H1062 0.930 . S
C1068 C1069 1.367 . S
C1068 C1076 1.378 . S
C1069 C1068 1.367 . S
C1069 C1077 1.433 . S
C1070 H1066 0.929 . S
C1070 C1072 1.378 . S
C1070 C1074 1.350 . S
C1071 C1074 1.463 1_554 S
C1071 C1076 1.350 . S
C1071 N1079 1.427 . S
C1072 H1063 0.930 . S
C1072 C1070 1.378 . S
C1072 C1073 1.367 . S
C1073 C1072 1.367 . S
C1073 C1075 1.433 . S
C1074 C1070 1.350 . S
C1074 C1071 1.463 1_556 S
C1074 N1078 1.427 . S
C1075 H1065 0.929 . S
C1075 C1073 1.433 . S
C1075 N1078 1.384 . S
C1076 H1067 0.929 . S
C1076 C1068 1.378 . S
C1076 C1071 1.350 . S
C1077 H1064 0.929 . S
C1077 C1069 1.433 . S
C1077 N1079 1.384 . S
N1078 C1074 1.427 . S
N1078 C1075 1.384 . S
N1079 C1071 1.427 . S
N1079 C1077 1.384 . S
H1080 C1086 0.930 . S
H1081 C1090 0.930 . S
H1082 C1095 0.929 . S
H1083 C1093 0.929 1_565 S
H1084 C1088 0.929 . S
H1085 C1094 0.934 . S
C1086 H1080 0.930 . S
C1086 C1087 1.367 1_565 S
C1086 C1094 1.378 . S
C1087 C1086 1.367 1_545 S
C1087 C1095 1.433 . S
C1088 H1084 0.929 . S
C1088 C1090 1.378 . S
C1088 C1092 1.350 . S
C1089 C1092 1.463 1_554 S
C1089 C1094 1.345 1_545 S
C1089 N1097 1.427 . S
C1090 H1081 0.930 . S
C1090 C1088 1.378 . S
C1090 C1091 1.367 . S
C1091 C1090 1.367 . S
C1091 C1093 1.433 . S
C1092 C1088 1.350 . S
C1092 C1089 1.463 1_556 S
C1092 N1096 1.427 . S
C1093 H1083 0.929 1_545 S
C1093 C1091 1.433 . S
C1093 N1096 1.384 . S
C1094 H1085 0.934 . S
C1094 C1086 1.378 . S
C1094 C1089 1.345 1_565 S
C1095 H1082 0.929 . S
C1095 C1087 1.433 . S
C1095 N1097 1.384 . S
N1096 C1092 1.427 . S
N1096 C1093 1.384 . S
N1097 C1089 1.427 . S
N1097 C1095 1.384 . S
H1098 C1104 0.930 1_655 S
H1099 C1108 0.930 . S
H1100 C1113 0.929 . S
H1101 C1111 0.929 1_655 S
H1102 C1106 0.929 . S
H1103 C1112 0.929 1_655 S
C1104 H1098 0.930 1_455 S
C1104 C1105 1.367 . S
C1104 C1112 1.378 . S
C1105 C1104 1.367 . S
C1105 C1113 1.433 . S
C1106 H1102 0.929 . S
C1106 C1108 1.378 . S
C1106 C1110 1.350 . S
C1107 C1110 1.463 1_556 S
C1107 C1112 1.350 . S
C1107 N1115 1.427 . S
C1108 H1099 0.930 . S
C1108 C1106 1.378 . S
C1108 C1109 1.367 . S
C1109 C1108 1.367 . S
C1109 C1111 1.433 . S
C1110 C1106 1.350 . S
C1110 C1107 1.463 1_554 S
C1110 N1114 1.427 . S
C1111 H1101 0.929 1_455 S
C1111 C1109 1.433 . S
C1111 N1114 1.384 . S
C1112 H1103 0.929 1_455 S
C1112 C1104 1.378 . S
C1112 C1107 1.350 . S
C1113 H1100 0.929 . S
C1113 C1105 1.433 . S
C1113 N1115 1.384 . S
N1114 C1110 1.427 . S
N1114 C1111 1.384 . S
N1115 C1107 1.427 . S
N1115 C1113 1.384 . S
H1116 C1122 0.930 . S
H1117 C1126 0.930 . S
H1118 C1131 0.929 . S
H1119 C1129 0.929 . S
H1120 C1124 0.929 . S
H1121 C1130 0.929 . S
C1122 H1116 0.930 . S
C1122 C1123 1.367 . S
C1122 C1130 1.378 . S
C1123 C1122 1.367 . S
C1123 C1131 1.433 . S
C1124 H1120 0.929 . S
C1124 C1126 1.378 . S
C1124 C1128 1.350 . S
C1125 C1128 1.463 1_554 S
C1125 C1130 1.350 . S
C1125 N1133 1.427 . S
C1126 H1117 0.930 . S
C1126 C1124 1.378 . S
C1126 C1127 1.367 . S
C1127 C1126 1.367 . S
C1127 C1129 1.433 . S
C1128 C1124 1.350 . S
C1128 C1125 1.463 1_556 S
C1128 N1132 1.427 . S
C1129 H1119 0.929 . S
C1129 C1127 1.433 . S
C1129 N1132 1.384 . S
C1130 H1121 0.929 . S
C1130 C1122 1.378 . S
C1130 C1125 1.350 . S
C1131 H1118 0.929 . S
C1131 C1123 1.433 . S
C1131 N1133 1.384 . S
N1132 C1128 1.427 . S
N1132 C1129 1.384 . S
N1133 C1125 1.427 . S
N1133 C1131 1.384 . S
H1134 C1140 0.930 . S
H1135 C1144 0.930 . S
H1136 C1149 0.929 . S
H1137 C1147 0.929 . S
H1138 C1142 0.929 . S
H1139 C1148 0.929 . S
C1140 H1134 0.930 . S
C1140 C1141 1.367 . S
C1140 C1148 1.378 . S
C1141 C1140 1.367 . S
C1141 C1149 1.433 1_545 S
C1142 H1138 0.929 . S
C1142 C1144 1.378 . S
C1142 C1146 1.350 1_565 S
C1143 C1146 1.463 1_554 S
C1143 C1148 1.350 . S
C1143 N1151 1.427 1_545 S
C1144 H1135 0.930 . S
C1144 C1142 1.378 . S
C1144 C1145 1.367 1_565 S
C1145 C1144 1.367 1_545 S
C1145 C1147 1.433 . S
C1146 C1142 1.350 1_545 S
C1146 C1143 1.463 1_556 S
C1146 N1150 1.427 . S
C1147 H1137 0.929 . S
C1147 C1145 1.433 . S
C1147 N1150 1.384 . S
C1148 H1139 0.929 . S
C1148 C1140 1.378 . S
C1148 C1143 1.350 . S
C1149 H1136 0.929 . S
C1149 C1141 1.433 1_565 S
C1149 N1151 1.384 . S
N1150 C1146 1.427 . S
N1150 C1147 1.384 . S
N1151 C1143 1.427 1_565 S
N1151 C1149 1.384 . S
H1152 C1158 0.930 . S
H1153 C1162 0.930 . S
H1154 C1167 0.929 . S
H1155 C1165 0.929 . S
H1156 C1160 0.929 . S
H1157 C1166 0.929 . S
C1158 H1152 0.930 . S
C1158 C1159 1.367 . S
C1158 C1166 1.378 . S
C1159 C1158 1.367 . S
C1159 C1167 1.433 . S
C1160 H1156 0.929 . S
C1160 C1162 1.378 . S
C1160 C1164 1.350 . S
C1161 C1164 1.463 . S
C1161 C1166 1.350 . S
C1161 N1169 1.427 . S
C1162 H1153 0.930 . S
C1162 C1160 1.378 . S
C1162 C1163 1.367 . S
C1163 C1162 1.367 . S
C1163 C1165 1.433 . S
C1164 C1160 1.350 . S
C1164 C1161 1.463 . S
C1164 N1168 1.427 . S
C1165 H1155 0.929 . S
C1165 C1163 1.433 . S
C1165 N1168 1.384 . S
C1166 H1157 0.929 . S
C1166 C1158 1.378 . S
C1166 C1161 1.350 . S
C1167 H1154 0.929 . S
C1167 C1159 1.433 . S
C1167 N1169 1.384 . S
N1168 C1164 1.427 . S
N1168 C1165 1.384 . S
N1169 C1161 1.427 . S
N1169 C1167 1.384 . S
H1170 C1176 0.930 . S
H1171 C1180 0.930 . S
H1172 C1185 0.929 . S
H1173 C1183 0.929 . S
H1174 C1178 0.929 . S
H1175 C1184 0.929 . S
C1176 H1170 0.930 . S
C1176 C1177 1.367 . S
C1176 C1184 1.378 . S
C1177 C1176 1.367 . S
C1177 C1185 1.433 . S
C1178 H1174 0.929 . S
C1178 C1180 1.378 . S
C1178 C1182 1.350 . S
C1179 C1182 1.463 . S
C1179 C1184 1.350 . S
C1179 N1187 1.427 . S
C1180 H1171 0.930 . S
C1180 C1178 1.378 . S
C1180 C1181 1.367 . S
C1181 C1180 1.367 . S
C1181 C1183 1.433 . S
C1182 C1178 1.350 . S
C1182 C1179 1.463 . S
C1182 N1186 1.427 . S
C1183 H1173 0.929 . S
C1183 C1181 1.433 . S
C1183 N1186 1.384 . S
C1184 H1175 0.929 . S
C1184 C1176 1.378 . S
C1184 C1179 1.350 . S
C1185 H1172 0.929 . S
C1185 C1177 1.433 . S
C1185 N1187 1.384 . S
N1186 C1182 1.427 . S
N1186 C1183 1.384 . S
N1187 C1179 1.427 . S
N1187 C1185 1.384 . S
H1188 C1194 0.930 . S
H1189 C1198 0.930 . S
H1190 C1203 0.929 . S
H1191 C1201 0.929 . S
H1192 C1196 0.929 . S
H1193 C1202 0.929 . S
C1194 H1188 0.930 . S
C1194 C1195 1.367 . S
C1194 C1202 1.378 . S
C1195 C1194 1.367 . S
C1195 C1203 1.433 . S
C1196 H1192 0.929 . S
C1196 C1198 1.378 . S
C1196 C1200 1.350 . S
C1197 C1200 1.463 . S
C1197 C1202 1.350 . S
C1197 N1205 1.427 . S
C1198 H1189 0.930 . S
C1198 C1196 1.378 . S
C1198 C1199 1.367 . S
C1199 C1198 1.367 . S
C1199 C1201 1.433 . S
C1200 C1196 1.350 . S
C1200 C1197 1.463 . S
C1200 N1204 1.427 . S
C1201 H1191 0.929 . S
C1201 C1199 1.433 . S
C1201 N1204 1.384 . S
C1202 H1193 0.929 . S
C1202 C1194 1.378 . S
C1202 C1197 1.350 . S
C1203 H1190 0.929 . S
C1203 C1195 1.433 . S
C1203 N1205 1.384 . S
N1204 C1200 1.427 . S
N1204 C1201 1.384 . S
N1205 C1197 1.427 . S
N1205 C1203 1.384 . S
H1206 C1212 0.930 . S
H1207 C1216 0.930 . S
H1208 C1221 0.929 . S
H1209 C1219 0.929 . S
H1210 C1214 0.929 . S
H1211 C1220 0.929 . S
C1212 H1206 0.930 . S
C1212 C1213 1.367 . S
C1212 C1220 1.378 . S
C1213 C1212 1.367 . S
C1213 C1221 1.433 . S
C1214 H1210 0.929 . S
C1214 C1216 1.378 . S
C1214 C1218 1.350 . S
C1215 C1218 1.463 . S
C1215 C1220 1.350 . S
C1215 N1223 1.427 . S
C1216 H1207 0.930 . S
C1216 C1214 1.378 . S
C1216 C1217 1.367 . S
C1217 C1216 1.367 . S
C1217 C1219 1.433 . S
C1218 C1214 1.350 . S
C1218 C1215 1.463 . S
C1218 N1222 1.427 . S
C1219 H1209 0.929 . S
C1219 C1217 1.433 . S
C1219 N1222 1.384 . S
C1220 H1211 0.929 . S
C1220 C1212 1.378 . S
C1220 C1215 1.350 . S
C1221 H1208 0.929 . S
C1221 C1213 1.433 . S
C1221 N1223 1.384 . S
N1222 C1218 1.427 . S
N1222 C1219 1.384 . S
N1223 C1215 1.427 . S
N1223 C1221 1.384 . S
H1224 C1230 0.930 . S
H1225 C1234 0.930 . S
H1226 C1239 0.929 . S
H1227 C1237 0.929 . S
H1228 C1232 0.929 . S
H1229 C1238 0.929 . S
C1230 H1224 0.930 . S
C1230 C1231 1.367 . S
C1230 C1238 1.378 . S
C1231 C1230 1.367 . S
C1231 C1239 1.433 . S
C1232 H1228 0.929 . S
C1232 C1234 1.378 . S
C1232 C1236 1.350 . S
C1233 C1236 1.463 . S
C1233 C1238 1.350 . S
C1233 N1241 1.427 . S
C1234 H1225 0.930 . S
C1234 C1232 1.378 . S
C1234 C1235 1.367 . S
C1235 C1234 1.367 . S
C1235 C1237 1.433 . S
C1236 C1232 1.350 . S
C1236 C1233 1.463 . S
C1236 N1240 1.427 . S
C1237 H1227 0.929 . S
C1237 C1235 1.433 . S
C1237 N1240 1.384 . S
C1238 H1229 0.929 . S
C1238 C1230 1.378 . S
C1238 C1233 1.350 . S
C1239 H1226 0.929 . S
C1239 C1231 1.433 . S
C1239 N1241 1.384 . S
N1240 C1236 1.427 . S
N1240 C1237 1.384 . S
N1241 C1233 1.427 . S
N1241 C1239 1.384 . S
H1242 C1248 0.930 . S
H1243 C1252 0.930 . S
H1244 C1257 0.929 . S
H1245 C1255 0.929 . S
H1246 C1250 0.929 . S
H1247 C1256 0.929 . S
C1248 H1242 0.930 . S
C1248 C1249 1.367 . S
C1248 C1256 1.378 . S
C1249 C1248 1.367 . S
C1249 C1257 1.433 . S
C1250 H1246 0.929 . S
C1250 C1252 1.378 . S
C1250 C1254 1.350 . S
C1251 C1254 1.463 . S
C1251 C1256 1.350 . S
C1251 N1259 1.427 . S
C1252 H1243 0.930 . S
C1252 C1250 1.378 . S
C1252 C1253 1.367 . S
C1253 C1252 1.367 . S
C1253 C1255 1.433 . S
C1254 C1250 1.350 . S
C1254 C1251 1.463 . S
C1254 N1258 1.427 . S
C1255 H1245 0.929 . S
C1255 C1253 1.433 . S
C1255 N1258 1.384 . S
C1256 H1247 0.929 . S
C1256 C1248 1.378 . S
C1256 C1251 1.350 . S
C1257 H1244 0.929 . S
C1257 C1249 1.433 . S
C1257 N1259 1.384 . S
N1258 C1254 1.427 . S
N1258 C1255 1.384 . S
N1259 C1251 1.427 . S
N1259 C1257 1.384 . S
H1260 C1266 0.930 . S
H1261 C1270 0.930 . S
H1262 C1275 0.929 . S
H1263 C1273 0.929 . S
H1264 C1268 0.929 . S
H1265 C1274 0.929 . S
C1266 H1260 0.930 . S
C1266 C1267 1.367 . S
C1266 C1274 1.378 . S
C1267 C1266 1.367 . S
C1267 C1275 1.433 . S
C1268 H1264 0.929 . S
C1268 C1270 1.378 . S
C1268 C1272 1.350 . S
C1269 C1272 1.463 . S
C1269 C1274 1.350 . S
C1269 N1277 1.427 . S
C1270 H1261 0.930 . S
C1270 C1268 1.378 . S
C1270 C1271 1.367 . S
C1271 C1270 1.367 . S
C1271 C1273 1.433 . S
C1272 C1268 1.350 . S
C1272 C1269 1.463 . S
C1272 N1276 1.427 . S
C1273 H1263 0.929 . S
C1273 C1271 1.433 . S
C1273 N1276 1.384 . S
C1274 H1265 0.929 . S
C1274 C1266 1.378 . S
C1274 C1269 1.350 . S
C1275 H1262 0.929 . S
C1275 C1267 1.433 . S
C1275 N1277 1.384 . S
N1276 C1272 1.427 . S
N1276 C1273 1.384 . S
N1277 C1269 1.427 . S
N1277 C1275 1.384 . S
H1278 C1284 0.930 . S
H1279 C1288 0.930 . S
H1280 C1293 0.929 . S
H1281 C1291 0.929 . S
H1282 C1286 0.929 . S
H1283 C1292 0.929 . S
C1284 H1278 0.930 . S
C1284 C1285 1.367 . S
C1284 C1292 1.378 . S
C1285 C1284 1.367 . S
C1285 C1293 1.433 . S
C1286 H1282 0.929 . S
C1286 C1288 1.378 . S
C1286 C1290 1.350 . S
C1287 C1290 1.463 . S
C1287 C1292 1.350 . S
C1287 N1295 1.427 . S
C1288 H1279 0.930 . S
C1288 C1286 1.378 . S
C1288 C1289 1.367 . S
C1289 C1288 1.367 . S
C1289 C1291 1.433 . S
C1290 C1286 1.350 . S
C1290 C1287 1.463 . S
C1290 N1294 1.427 . S
C1291 H1281 0.929 . S
C1291 C1289 1.433 . S
C1291 N1294 1.384 . S
C1292 H1283 0.929 . S
C1292 C1284 1.378 . S
C1292 C1287 1.350 . S
C1293 H1280 0.929 . S
C1293 C1285 1.433 . S
C1293 N1295 1.384 . S
N1294 C1290 1.427 . S
N1294 C1291 1.384 . S
N1295 C1287 1.427 . S
N1295 C1293 1.384 . S
H1296 C1302 0.930 . S
H1297 C1306 0.930 . S
H1298 C1311 0.929 . S
H1299 C1309 0.929 . S
H1300 C1304 0.929 . S
H1301 C1310 0.929 . S
C1302 H1296 0.930 . S
C1302 C1303 1.367 . S
C1302 C1310 1.378 . S
C1303 C1302 1.367 . S
C1303 C1311 1.433 . S
C1304 H1300 0.929 . S
C1304 C1306 1.378 . S
C1304 C1308 1.350 . S
C1305 C1308 1.463 . S
C1305 C1310 1.350 . S
C1305 N1313 1.427 . S
C1306 H1297 0.930 . S
C1306 C1304 1.378 . S
C1306 C1307 1.367 . S
C1307 C1306 1.367 . S
C1307 C1309 1.433 . S
C1308 C1304 1.350 . S
C1308 C1305 1.463 . S
C1308 N1312 1.427 . S
C1309 H1299 0.929 . S
C1309 C1307 1.433 . S
C1309 N1312 1.384 . S
C1310 H1301 0.929 . S
C1310 C1302 1.378 . S
C1310 C1305 1.350 . S
C1311 H1298 0.929 . S
C1311 C1303 1.433 . S
C1311 N1313 1.384 . S
N1312 C1308 1.427 . S
N1312 C1309 1.384 . S
N1313 C1305 1.427 . S
N1313 C1311 1.384 . S
H1314 C1320 0.930 . S
H1315 C1324 0.930 . S
H1316 C1329 0.929 . S
H1317 C1327 0.929 . S
H1318 C1322 0.929 . S
H1319 C1328 0.929 . S
C1320 H1314 0.930 . S
C1320 C1321 1.367 . S
C1320 C1328 1.378 . S
C1321 C1320 1.367 . S
C1321 C1329 1.433 . S
C1322 H1318 0.929 . S
C1322 C1324 1.378 . S
C1322 C1326 1.350 . S
C1323 C1326 1.463 . S
C1323 C1328 1.350 . S
C1323 N1331 1.427 . S
C1324 H1315 0.930 . S
C1324 C1322 1.378 . S
C1324 C1325 1.367 . S
C1325 C1324 1.367 . S
C1325 C1327 1.433 . S
C1326 C1322 1.350 . S
C1326 C1323 1.463 . S
C1326 N1330 1.427 . S
C1327 H1317 0.929 . S
C1327 C1325 1.433 . S
C1327 N1330 1.384 . S
C1328 H1319 0.929 . S
C1328 C1320 1.378 . S
C1328 C1323 1.350 . S
C1329 H1316 0.929 . S
C1329 C1321 1.433 . S
C1329 N1331 1.384 . S
N1330 C1326 1.427 . S
N1330 C1327 1.384 . S
N1331 C1323 1.427 . S
N1331 C1329 1.384 . S
H1332 C1338 0.930 . S
H1333 C1342 0.930 . S
H1334 C1347 0.929 . S
H1335 C1345 0.929 . S
H1336 C1340 0.929 . S
H1337 C1346 0.929 . S
C1338 H1332 0.930 . S
C1338 C1339 1.367 . S
C1338 C1346 1.378 . S
C1339 C1338 1.367 . S
C1339 C1347 1.433 . S
C1340 H1336 0.929 . S
C1340 C1342 1.378 . S
C1340 C1344 1.350 . S
C1341 C1344 1.463 . S
C1341 C1346 1.350 . S
C1341 N1349 1.427 . S
C1342 H1333 0.930 . S
C1342 C1340 1.378 . S
C1342 C1343 1.367 . S
C1343 C1342 1.367 . S
C1343 C1345 1.433 . S
C1344 C1340 1.350 . S
C1344 C1341 1.463 . S
C1344 N1348 1.427 . S
C1345 H1335 0.929 . S
C1345 C1343 1.433 . S
C1345 N1348 1.384 . S
C1346 H1337 0.929 . S
C1346 C1338 1.378 . S
C1346 C1341 1.350 . S
C1347 H1334 0.929 . S
C1347 C1339 1.433 . S
C1347 N1349 1.384 . S
N1348 C1344 1.427 . S
N1348 C1345 1.384 . S
N1349 C1341 1.427 . S
N1349 C1347 1.384 . S
H1350 C1356 0.930 . S
H1351 C1360 0.930 . S
H1352 C1365 0.929 . S
H1353 C1363 0.929 . S
H1354 C1358 0.929 . S
H1355 C1364 0.929 . S
C1356 H1350 0.930 . S
C1356 C1357 1.367 . S
C1356 C1364 1.378 . S
C1357 C1356 1.367 . S
C1357 C1365 1.433 . S
C1358 H1354 0.929 . S
C1358 C1360 1.378 . S
C1358 C1362 1.350 . S
C1359 C1362 1.463 . S
C1359 C1364 1.350 . S
C1359 N1367 1.427 . S
C1360 H1351 0.930 . S
C1360 C1358 1.378 . S
C1360 C1361 1.367 . S
C1361 C1360 1.367 . S
C1361 C1363 1.433 . S
C1362 C1358 1.350 . S
C1362 C1359 1.463 . S
C1362 N1366 1.427 . S
C1363 H1353 0.929 . S
C1363 C1361 1.433 . S
C1363 N1366 1.384 . S
C1364 H1355 0.929 . S
C1364 C1356 1.378 . S
C1364 C1359 1.350 . S
C1365 H1352 0.929 . S
C1365 C1357 1.433 . S
C1365 N1367 1.384 . S
N1366 C1362 1.427 . S
N1366 C1363 1.384 . S
N1367 C1359 1.427 . S
N1367 C1365 1.384 . S
C403 C294 1.184 . S
C407 C4 1.186 . S
C421 C26 1.202 . S
C425 C316 1.194 . S
C439 C48 1.198 . S
C443 C272 1.187 . S
C457 C52 1.186 . S
C461 C158 1.185 . S
C475 C180 1.196 . S
C479 C8 1.185 . S
C493 C30 1.198 . S
C497 C136 1.202 . S
C511 C74 1.184 . S
C515 C224 1.191 . S
C529 C96 1.201 . S
C533 C246 1.198 . S
C547 C202 1.201 . S
C551 C118 1.194 . S
C565 C360 1.186 . S
C569 C114 1.185 . S
C583 C70 1.196 . S
C587 C382 1.202 . S
C601 C338 1.202 . S
C605 C92 1.197 . S
C619 C184 1.201 . S
C623 C290 1.192 . S
C637 C140 1.184 . S
C641 C312 1.192 . S
C655 C162 1.198 . S
C659 C268 1.201 . S
C673 C206 1.184 . S
C677 C356 1.189 . S
C691 C378 1.202 . S
C695 C228 1.196 . S
C709 C334 1.185 . S
C713 C250 1.186 . S
C727 C6 1.613 . S
C731 C93 1.604 . S
C745 C115 1.610 . S
C749 C28 1.607 . S
C763 C71 1.606 . S
C767 C50 1.611 . S
C781 C97 1.607 . S
C785 C51 1.610 . S
C799 C119 1.613 . S
C803 C7 1.605 . S
C817 C75 1.613 . S
C821 C29 1.604 . S
C835 C225 1.604 . S
C839 C138 1.613 . S
C853 C247 1.610 . S
C857 C160 1.607 . S
C871 C203 1.608 . S
C875 C182 1.609 . S
C889 C229 1.614 . S
C893 C183 1.604 . S
C907 C251 1.607 . S
C911 C139 1.611 . S
C925 C207 1.604 . S
C929 C161 1.613 . S
C943 C357 1.604 . S
C947 C270 1.614 . S
C961 C379 1.606 . S
C965 C292 1.611 . S
C979 C314 1.613 . S
C983 C335 1.605 . S
C997 C315 1.610 . S
C1001 C361 1.607 . S
C1015 C271 1.606 . S
C1019 C383 1.611 . S
C1033 C339 1.610 . S
C1037 C293 1.607 . S
C1051 C5 1.628 . S
C1055 C9 1.625 . S
C1069 C27 1.634 . S
C1073 C31 1.627 . S
C1087 C49 1.636 . S
C1091 C53 1.633 . S
C1105 C73 1.636 . S
C1109 C72 1.631 . S
C1123 C94 1.634 . S
C1127 C95 1.627 . S
C1141 C116 1.626 . S
C1145 C117 1.626 . S
C1159 C141 1.634 . S
C1163 C137 1.627 . S
C1177 C159 1.626 . S
C1181 C163 1.632 . S
C1195 C185 1.636 . S
C1199 C181 1.632 . S
C1213 C205 1.628 . S
C1217 C204 1.634 . S
C1231 C227 1.625 . S
C1235 C226 1.629 . S
C1249 C249 1.631 . S
C1253 C248 1.625 . S
C1267 C273 1.627 . S
C1271 C269 1.634 . S
C1285 C291 1.633 . S
C1289 C295 1.627 . S
C1303 C313 1.635 . S
C1307 C317 1.628 . S
C1321 C336 1.632 . S
C1325 C337 1.626 . S
C1339 C358 1.628 . S
C1343 C359 1.634 . S
C1357 C381 1.630 . S
C1361 C380 1.625 . S
