# Generated by pormake.
# Topology umn, (4)-cn, num edge types: 1
# Building blocks:
#     Node 0, Type 0, BuildingBlock: QUQFOY_clean_sbu_1, # of connection points: 4
#     Node 1, Type 0, BuildingBlock: QUQFOY_clean_sbu_1, # of connection points: 4
#     Node 2, Type 0, BuildingBlock: QUQFOY_clean_sbu_1, # of connection points: 4
#     Node 3, Type 0, BuildingBlock: QUQFOY_clean_sbu_1, # of connection points: 4
#     Node 4, Type 0, BuildingBlock: QUQFOY_clean_sbu_1, # of connection points: 4
#     Node 5, Type 0, BuildingBlock: QUQFOY_clean_sbu_1, # of connection points: 4
#     Node 6, Type 0, BuildingBlock: QUQFOY_clean_sbu_1, # of connection points: 4
#     Node 7, Type 0, BuildingBlock: QUQFOY_clean_sbu_1, # of connection points: 4
#     Node 8, Type 0, BuildingBlock: QUQFOY_clean_sbu_1, # of connection points: 4
#     Node 9, Type 0, BuildingBlock: QUQFOY_clean_sbu_1, # of connection points: 4
#     Node 10, Type 0, BuildingBlock: QUQFOY_clean_sbu_1, # of connection points: 4
#     Node 11, Type 0, BuildingBlock: QUQFOY_clean_sbu_1, # of connection points: 4
#     Node 12, Type 0, BuildingBlock: QUQFOY_clean_sbu_1, # of connection points: 4
#     Node 13, Type 0, BuildingBlock: QUQFOY_clean_sbu_1, # of connection points: 4
#     Node 14, Type 0, BuildingBlock: QUQFOY_clean_sbu_1, # of connection points: 4
#     Node 15, Type 0, BuildingBlock: QUQFOY_clean_sbu_1, # of connection points: 4
#     Node 16, Type 0, BuildingBlock: QUQFOY_clean_sbu_1, # of connection points: 4
#     Node 17, Type 0, BuildingBlock: QUQFOY_clean_sbu_1, # of connection points: 4
#     Node 18, Type 0, BuildingBlock: QUQFOY_clean_sbu_1, # of connection points: 4
#     Node 19, Type 0, BuildingBlock: QUQFOY_clean_sbu_1, # of connection points: 4
#     Node 20, Type 0, BuildingBlock: QUQFOY_clean_sbu_1, # of connection points: 4
#     Node 21, Type 0, BuildingBlock: QUQFOY_clean_sbu_1, # of connection points: 4
#     Node 22, Type 0, BuildingBlock: QUQFOY_clean_sbu_1, # of connection points: 4
#     Node 23, Type 0, BuildingBlock: QUQFOY_clean_sbu_1, # of connection points: 4
#     Node 24, Type 0, BuildingBlock: QUQFOY_clean_sbu_1, # of connection points: 4
#     Node 25, Type 0, BuildingBlock: QUQFOY_clean_sbu_1, # of connection points: 4
#     Node 26, Type 0, BuildingBlock: QUQFOY_clean_sbu_1, # of connection points: 4
#     Node 27, Type 0, BuildingBlock: QUQFOY_clean_sbu_1, # of connection points: 4
#     Node 28, Type 0, BuildingBlock: QUQFOY_clean_sbu_1, # of connection points: 4
#     Node 29, Type 0, BuildingBlock: QUQFOY_clean_sbu_1, # of connection points: 4
#     Node 30, Type 0, BuildingBlock: QUQFOY_clean_sbu_1, # of connection points: 4
#     Node 31, Type 0, BuildingBlock: QUQFOY_clean_sbu_1, # of connection points: 4
#     Node 32, Type 0, BuildingBlock: QUQFOY_clean_sbu_1, # of connection points: 4
#     Node 33, Type 0, BuildingBlock: QUQFOY_clean_sbu_1, # of connection points: 4
#     Node 34, Type 0, BuildingBlock: QUQFOY_clean_sbu_1, # of connection points: 4
#     Node 35, Type 0, BuildingBlock: QUQFOY_clean_sbu_1, # of connection points: 4
#     Edge 36, Type (0, 0), BuildingBlock: OJICUG_clean_linker_0, # of connection points: 2
#     Edge 37, Type (0, 0), BuildingBlock: OJICUG_clean_linker_0, # of connection points: 2
#     Edge 38, Type (0, 0), BuildingBlock: OJICUG_clean_linker_0, # of connection points: 2
#     Edge 39, Type (0, 0), BuildingBlock: OJICUG_clean_linker_0, # of connection points: 2
#     Edge 40, Type (0, 0), BuildingBlock: OJICUG_clean_linker_0, # of connection points: 2
#     Edge 41, Type (0, 0), BuildingBlock: OJICUG_clean_linker_0, # of connection points: 2
#     Edge 42, Type (0, 0), BuildingBlock: OJICUG_clean_linker_0, # of connection points: 2
#     Edge 43, Type (0, 0), BuildingBlock: OJICUG_clean_linker_0, # of connection points: 2
#     Edge 44, Type (0, 0), BuildingBlock: OJICUG_clean_linker_0, # of connection points: 2
#     Edge 45, Type (0, 0), BuildingBlock: OJICUG_clean_linker_0, # of connection points: 2
#     Edge 46, Type (0, 0), BuildingBlock: OJICUG_clean_linker_0, # of connection points: 2
#     Edge 47, Type (0, 0), BuildingBlock: OJICUG_clean_linker_0, # of connection points: 2
#     Edge 48, Type (0, 0), BuildingBlock: OJICUG_clean_linker_0, # of connection points: 2
#     Edge 49, Type (0, 0), BuildingBlock: OJICUG_clean_linker_0, # of connection points: 2
#     Edge 50, Type (0, 0), BuildingBlock: OJICUG_clean_linker_0, # of connection points: 2
#     Edge 51, Type (0, 0), BuildingBlock: OJICUG_clean_linker_0, # of connection points: 2
#     Edge 52, Type (0, 0), BuildingBlock: OJICUG_clean_linker_0, # of connection points: 2
#     Edge 53, Type (0, 0), BuildingBlock: OJICUG_clean_linker_0, # of connection points: 2
#     Edge 54, Type (0, 0), BuildingBlock: OJICUG_clean_linker_0, # of connection points: 2
#     Edge 55, Type (0, 0), BuildingBlock: OJICUG_clean_linker_0, # of connection points: 2
#     Edge 56, Type (0, 0), BuildingBlock: OJICUG_clean_linker_0, # of connection points: 2
#     Edge 57, Type (0, 0), BuildingBlock: OJICUG_clean_linker_0, # of connection points: 2
#     Edge 58, Type (0, 0), BuildingBlock: OJICUG_clean_linker_0, # of connection points: 2
#     Edge 59, Type (0, 0), BuildingBlock: OJICUG_clean_linker_0, # of connection points: 2
#     Edge 60, Type (0, 0), BuildingBlock: OJICUG_clean_linker_0, # of connection points: 2
#     Edge 61, Type (0, 0), BuildingBlock: OJICUG_clean_linker_0, # of connection points: 2
#     Edge 62, Type (0, 0), BuildingBlock: OJICUG_clean_linker_0, # of connection points: 2
#     Edge 63, Type (0, 0), BuildingBlock: OJICUG_clean_linker_0, # of connection points: 2
#     Edge 64, Type (0, 0), BuildingBlock: OJICUG_clean_linker_0, # of connection points: 2
#     Edge 65, Type (0, 0), BuildingBlock: OJICUG_clean_linker_0, # of connection points: 2
#     Edge 66, Type (0, 0), BuildingBlock: OJICUG_clean_linker_0, # of connection points: 2
#     Edge 67, Type (0, 0), BuildingBlock: OJICUG_clean_linker_0, # of connection points: 2
#     Edge 68, Type (0, 0), BuildingBlock: OJICUG_clean_linker_0, # of connection points: 2
#     Edge 69, Type (0, 0), BuildingBlock: OJICUG_clean_linker_0, # of connection points: 2
#     Edge 70, Type (0, 0), BuildingBlock: OJICUG_clean_linker_0, # of connection points: 2
#     Edge 71, Type (0, 0), BuildingBlock: OJICUG_clean_linker_0, # of connection points: 2
#     Edge 72, Type (0, 0), BuildingBlock: OJICUG_clean_linker_0, # of connection points: 2
#     Edge 73, Type (0, 0), BuildingBlock: OJICUG_clean_linker_0, # of connection points: 2
#     Edge 74, Type (0, 0), BuildingBlock: OJICUG_clean_linker_0, # of connection points: 2
#     Edge 75, Type (0, 0), BuildingBlock: OJICUG_clean_linker_0, # of connection points: 2
#     Edge 76, Type (0, 0), BuildingBlock: OJICUG_clean_linker_0, # of connection points: 2
#     Edge 77, Type (0, 0), BuildingBlock: OJICUG_clean_linker_0, # of connection points: 2
#     Edge 78, Type (0, 0), BuildingBlock: OJICUG_clean_linker_0, # of connection points: 2
#     Edge 79, Type (0, 0), BuildingBlock: OJICUG_clean_linker_0, # of connection points: 2
#     Edge 80, Type (0, 0), BuildingBlock: OJICUG_clean_linker_0, # of connection points: 2
#     Edge 81, Type (0, 0), BuildingBlock: OJICUG_clean_linker_0, # of connection points: 2
#     Edge 82, Type (0, 0), BuildingBlock: OJICUG_clean_linker_0, # of connection points: 2
#     Edge 83, Type (0, 0), BuildingBlock: OJICUG_clean_linker_0, # of connection points: 2
#     Edge 84, Type (0, 0), BuildingBlock: OJICUG_clean_linker_0, # of connection points: 2
#     Edge 85, Type (0, 0), BuildingBlock: OJICUG_clean_linker_0, # of connection points: 2
#     Edge 86, Type (0, 0), BuildingBlock: OJICUG_clean_linker_0, # of connection points: 2
#     Edge 87, Type (0, 0), BuildingBlock: OJICUG_clean_linker_0, # of connection points: 2
#     Edge 88, Type (0, 0), BuildingBlock: OJICUG_clean_linker_0, # of connection points: 2
#     Edge 89, Type (0, 0), BuildingBlock: OJICUG_clean_linker_0, # of connection points: 2
#     Edge 90, Type (0, 0), BuildingBlock: OJICUG_clean_linker_0, # of connection points: 2
#     Edge 91, Type (0, 0), BuildingBlock: OJICUG_clean_linker_0, # of connection points: 2
#     Edge 92, Type (0, 0), BuildingBlock: OJICUG_clean_linker_0, # of connection points: 2
#     Edge 93, Type (0, 0), BuildingBlock: OJICUG_clean_linker_0, # of connection points: 2
#     Edge 94, Type (0, 0), BuildingBlock: OJICUG_clean_linker_0, # of connection points: 2
#     Edge 95, Type (0, 0), BuildingBlock: OJICUG_clean_linker_0, # of connection points: 2
#     Edge 96, Type (0, 0), BuildingBlock: OJICUG_clean_linker_0, # of connection points: 2
#     Edge 97, Type (0, 0), BuildingBlock: OJICUG_clean_linker_0, # of connection points: 2
#     Edge 98, Type (0, 0), BuildingBlock: OJICUG_clean_linker_0, # of connection points: 2
#     Edge 99, Type (0, 0), BuildingBlock: OJICUG_clean_linker_0, # of connection points: 2
#     Edge 100, Type (0, 0), BuildingBlock: OJICUG_clean_linker_0, # of connection points: 2
#     Edge 101, Type (0, 0), BuildingBlock: OJICUG_clean_linker_0, # of connection points: 2
#     Edge 102, Type (0, 0), BuildingBlock: OJICUG_clean_linker_0, # of connection points: 2
#     Edge 103, Type (0, 0), BuildingBlock: OJICUG_clean_linker_0, # of connection points: 2
#     Edge 104, Type (0, 0), BuildingBlock: OJICUG_clean_linker_0, # of connection points: 2
#     Edge 105, Type (0, 0), BuildingBlock: OJICUG_clean_linker_0, # of connection points: 2
#     Edge 106, Type (0, 0), BuildingBlock: OJICUG_clean_linker_0, # of connection points: 2
#     Edge 107, Type (0, 0), BuildingBlock: OJICUG_clean_linker_0, # of connection points: 2
# Relax obj value: 0.081
# Max RMSD: 0.122
# Mean RMSD: 0.122
data_MOF--net-umn--node1-QUQFOY_clean_sbu_1--edge1-OJICUG_clean_linker_0
_symmetry_space_group_name_H-M    P1
_symmetry_Int_Tables_number       1
_symmetry_cell_setting            triclinic
loop_
_symmetry_equiv_pos_as_xyz
'x, y, z'
_cell_length_a     68.370208
_cell_length_b     68.380736
_cell_length_c     27.993118
_cell_angle_alpha  89.98577
_cell_angle_beta   89.991635
_cell_angle_gamma 119.99383
loop_
_atom_site_label
_atom_site_type_symbol
_atom_site_fract_x
_atom_site_fract_y
_atom_site_fract_z
_atom_type_partial_charge
O0 O 0.31871 0.08428 0.30926 0.0
Cd1 Cd 0.30576 0.08311 0.24317 0.0
Cd2 Cd 0.31995 0.05117 0.23069 0.0
O3 O 0.32998 0.05925 0.30201 0.0
O4 O 0.30027 0.10907 0.24661 0.0
O5 O 0.32294 0.10692 0.19336 0.0
C6 C 0.31416 0.11811 0.21167 0.0
C7 C 0.34127 0.04413 0.17343 0.0
C8 C 0.32684 0.07289 0.32752 0.0
C9 C 0.26961 0.03593 0.22965 0.0
O10 O 0.2854 0.03134 0.22472 0.0
O11 O 0.27392 0.05604 0.23612 0.0
O12 O 0.33238 0.03121 0.20997 0.0
O13 O 0.33886 0.06164 0.16995 0.0
O14 O 0.90962 0.23684 0.30945 0.0
Cd15 Cd 0.90926 0.22487 0.24267 0.0
Cd16 Cd 0.94272 0.27041 0.23029 0.0
O17 O 0.93604 0.27267 0.30251 0.0
O18 O 0.88279 0.19379 0.24788 0.0
O19 O 0.88475 0.21852 0.19472 0.0
C20 C 0.87349 0.19869 0.21358 0.0
C21 C 0.94959 0.29873 0.17314 0.0
C22 C 0.9221 0.25609 0.3281 0.0
C23 C 0.95561 0.23367 0.22594 0.0
O24 O 0.96122 0.25437 0.22171 0.0
O25 O 0.93525 0.21861 0.23317 0.0
O26 O 0.96311 0.30253 0.20847 0.0
O27 O 0.9316 0.27909 0.17093 0.0
O28 O 0.76122 0.67452 0.31221 0.0
Cd29 Cd 0.77333 0.68701 0.246 0.0
Cd30 Cd 0.72736 0.67304 0.23218 0.0
O31 O 0.72498 0.66325 0.3038 0.0
O32 O 0.80464 0.69222 0.25031 0.0
O33 O 0.77988 0.66943 0.19714 0.0
C34 C 0.79979 0.67816 0.21572 0.0
C35 C 0.69941 0.65165 0.17433 0.0
C36 C 0.7416 0.66649 0.32995 0.0
C37 C 0.76269 0.72329 0.23014 0.0
O38 O 0.74227 0.70758 0.2254 0.0
O39 O 0.77837 0.71889 0.2374 0.0
O40 O 0.69514 0.66063 0.21036 0.0
O41 O 0.71934 0.654 0.17173 0.0
O42 O 0.08322 0.32104 0.221 0.0
Cd43 Cd 0.08174 0.30759 0.2867 0.0
Cd44 Cd 0.04943 0.32122 0.29951 0.0
O45 O 0.05735 0.3312 0.2281 0.0
O46 O 0.10772 0.30214 0.28315 0.0
O47 O 0.10524 0.32422 0.33738 0.0
C48 C 0.11651 0.31559 0.31883 0.0
C49 C 0.04244 0.34254 0.35685 0.0
C50 C 0.07141 0.32868 0.20269 0.0
C51 C 0.03457 0.27106 0.29968 0.0
O52 O 0.02977 0.28665 0.30565 0.0
O53 O 0.05473 0.27565 0.2925 0.0
O54 O 0.02942 0.33355 0.32051 0.0
O55 O 0.06001 0.3402 0.3601 0.0
O56 O 0.67313 0.76164 0.2177 0.0
Cd57 Cd 0.68585 0.77377 0.28377 0.0
Cd58 Cd 0.67216 0.72798 0.29772 0.0
O59 O 0.66242 0.72553 0.22607 0.0
O60 O 0.69093 0.80504 0.27979 0.0
O61 O 0.66845 0.78023 0.33329 0.0
C62 C 0.67706 0.80015 0.3148 0.0
C63 C 0.6507 0.70008 0.35563 0.0
C64 C 0.66536 0.74207 0.19996 0.0
C65 C 0.72234 0.76336 0.29928 0.0
O66 O 0.70671 0.74294 0.30458 0.0
O67 O 0.7178 0.77893 0.29165 0.0
O68 O 0.65973 0.69578 0.31974 0.0
O69 O 0.65305 0.72001 0.35808 0.0
O70 O 0.23651 0.91092 0.2203 0.0
Cd71 Cd 0.22437 0.9107 0.28684 0.0
Cd72 Cd 0.26963 0.94435 0.29955 0.0
O73 O 0.27213 0.93783 0.22736 0.0
O74 O 0.1934 0.88405 0.2818 0.0
O75 O 0.21816 0.88646 0.33542 0.0
C76 C 0.19836 0.875 0.31651 0.0
C77 C 0.29778 0.95108 0.35695 0.0
C78 C 0.25573 0.92366 0.20174 0.0
C79 C 0.23272 0.95694 0.30313 0.0
O80 O 0.25343 0.96271 0.30802 0.0
O81 O 0.21784 0.93656 0.29551 0.0
O82 O 0.30167 0.96471 0.32179 0.0
O83 O 0.27815 0.93307 0.35888 0.0
O84 O 0.67084 0.9106 0.72041 0.0
Cd85 Cd 0.68263 0.91037 0.78706 0.0
Cd86 Cd 0.66981 0.94326 0.7999 0.0
O87 O 0.66064 0.93642 0.72784 0.0
O88 O 0.68752 0.88408 0.78189 0.0
O89 O 0.66461 0.88582 0.83502 0.0
C90 C 0.67331 0.87468 0.81615 0.0
C91 C 0.64828 0.94984 0.85737 0.0
C92 C 0.66361 0.92275 0.70205 0.0
C93 C 0.71968 0.9569 0.80382 0.0
O94 O 0.70435 0.96218 0.808 0.0
O95 O 0.71473 0.93664 0.79661 0.0
O96 O 0.65774 0.96334 0.82189 0.0
O97 O 0.65023 0.93202 0.85956 0.0
O98 O 0.08321 0.76287 0.72099 0.0
Cd99 Cd 0.08198 0.77469 0.787 0.0
Cd100 Cd 0.05067 0.7284 0.80027 0.0
O101 O 0.05878 0.72644 0.72897 0.0
O102 O 0.10771 0.80624 0.78343 0.0
O103 O 0.10587 0.78155 0.83669 0.0
C104 C 0.11689 0.80153 0.81832 0.0
C105 C 0.04405 0.70026 0.85779 0.0
C106 C 0.07211 0.74324 0.70312 0.0
C107 C 0.03462 0.76289 0.80116 0.0
O108 O 0.03039 0.74264 0.80613 0.0
O109 O 0.05459 0.77893 0.7944 0.0
O110 O 0.03109 0.69599 0.82125 0.0
O111 O 0.06137 0.72031 0.86114 0.0
O112 O 0.23604 0.32234 0.72443 0.0
Cd113 Cd 0.22442 0.31046 0.79125 0.0
Cd114 Cd 0.27033 0.32348 0.80246 0.0
O115 O 0.27214 0.33265 0.73049 0.0
O116 O 0.1931 0.30525 0.7866 0.0
O117 O 0.21776 0.32828 0.83953 0.0
C118 C 0.19787 0.31943 0.82088 0.0
C119 C 0.29881 0.34504 0.8592 0.0
C120 C 0.2553 0.32964 0.70538 0.0
C121 C 0.23426 0.27355 0.80652 0.0
O122 O 0.25486 0.28895 0.81039 0.0
O123 O 0.21883 0.27841 0.80016 0.0
O124 O 0.30263 0.33558 0.82341 0.0
O125 O 0.27904 0.34307 0.86212 0.0
O126 O 0.90871 0.67034 0.81291 0.0
Cd127 Cd 0.90848 0.68249 0.74664 0.0
Cd128 Cd 0.94191 0.67056 0.73288 0.0
O129 O 0.93539 0.66134 0.80497 0.0
O130 O 0.88189 0.68691 0.75191 0.0
O131 O 0.88424 0.66464 0.69802 0.0
C132 C 0.87281 0.67298 0.71709 0.0
C133 C 0.94864 0.64925 0.67517 0.0
C134 C 0.92135 0.66363 0.83098 0.0
C135 C 0.95482 0.72017 0.73003 0.0
O136 O 0.96042 0.70512 0.72475 0.0
O137 O 0.9345 0.71482 0.73805 0.0
O138 O 0.96223 0.65886 0.71042 0.0
O139 O 0.93067 0.65094 0.67329 0.0
O140 O 0.3252 0.23922 0.80966 0.0
Cd141 Cd 0.31216 0.22687 0.7439 0.0
Cd142 Cd 0.32351 0.27222 0.73139 0.0
O143 O 0.33299 0.27459 0.80323 0.0
O144 O 0.3075 0.19577 0.7491 0.0
O145 O 0.32919 0.21999 0.69399 0.0
C146 C 0.32093 0.20031 0.71342 0.0
C147 C 0.34455 0.30073 0.67429 0.0
C148 C 0.33149 0.25836 0.82839 0.0
C149 C 0.27406 0.23528 0.7302 0.0
O150 O 0.28889 0.25593 0.72397 0.0
O151 O 0.27971 0.2205 0.73787 0.0
O152 O 0.33485 0.30432 0.70996 0.0
O153 O 0.34305 0.28117 0.67161 0.0
O154 O 0.75964 0.08486 0.81134 0.0
Cd155 Cd 0.77181 0.08365 0.74571 0.0
Cd156 Cd 0.72578 0.05141 0.73222 0.0
O157 O 0.72355 0.05924 0.80359 0.0
O158 O 0.80325 0.10957 0.74982 0.0
O159 O 0.77885 0.10738 0.69545 0.0
C160 C 0.79871 0.11854 0.71427 0.0
C161 C 0.69754 0.04438 0.67467 0.0
C162 C 0.74009 0.07313 0.82931 0.0
C163 C 0.76108 0.03649 0.73207 0.0
O164 O 0.74071 0.03176 0.7262 0.0
O165 O 0.77669 0.05661 0.73941 0.0
O166 O 0.69348 0.03137 0.71106 0.0
O167 O 0.71744 0.06197 0.67149 0.0
O168 O 0.98649 0.41699 0.64177 0.0
Cd169 Cd 0.97367 0.416 0.57561 0.0
Cd170 Cd 0.98746 0.3837 0.56332 0.0
O171 O -0.00271 0.39159 0.6348 0.0
O172 O 0.96822 0.44197 0.57954 0.0
O173 O 0.99087 0.43997 0.52605 0.0
C174 C 0.98208 0.4511 0.5446 0.0
C175 C 0.00877 0.37661 0.50614 0.0
C176 C 0.99432 0.40537 0.66021 0.0
C177 C 0.93724 0.36892 0.56181 0.0
O178 O 0.95289 0.36412 0.55694 0.0
O179 O 0.94176 0.38909 0.56838 0.0
O180 O -0.00027 0.36361 0.54251 0.0
O181 O 0.00651 0.39422 0.5028 0.0
O182 O 0.5772 0.57152 0.64289 0.0
Cd183 Cd 0.5764 0.5596 0.57586 0.0
Cd184 Cd 0.61014 0.60493 0.56367 0.0
O185 O 0.60374 0.6073 0.636 0.0
O186 O 0.54968 0.52869 0.5812 0.0
O187 O 0.55176 0.55366 0.52855 0.0
C188 C 0.54036 0.53383 0.54733 0.0
C189 C 0.61702 0.63325 0.50656 0.0
C190 C 0.58983 0.59072 0.66162 0.0
C191 C 0.62249 0.56782 0.55847 0.0
O192 O 0.62833 0.5886 0.55468 0.0
O193 O 0.60206 0.5529 0.56554 0.0
O194 O 0.63065 0.63698 0.54164 0.0
O195 O 0.59893 0.61369 0.50458 0.0
O196 O 0.42627 0.00718 0.64572 0.0
Cd197 Cd 0.43833 0.0193 0.57926 0.0
Cd198 Cd 0.39249 0.00578 0.56573 0.0
O199 O 0.3901 0.99629 0.63758 0.0
O200 O 0.46956 0.02429 0.58373 0.0
O201 O 0.44472 0.00144 0.53077 0.0
C202 C 0.46463 0.01013 0.54931 0.0
C203 C 0.3645 0.98432 0.50803 0.0
C204 C 0.40673 -0.00054 0.66366 0.0
C205 C 0.42818 0.05588 0.56269 0.0
O206 O 0.40769 0.04031 0.55825 0.0
O207 O 0.44372 0.05127 0.57004 0.0
O208 O 0.36031 0.99351 0.54379 0.0
O209 O 0.38436 0.9865 0.50565 0.0
O210 O 0.75011 0.65433 0.55477 0.0
Cd211 Cd 0.74847 0.64074 0.62036 0.0
Cd212 Cd 0.71629 0.65458 0.63309 0.0
O213 O 0.72444 0.66477 0.56186 0.0
O214 O 0.77438 0.63519 0.61681 0.0
O215 O 0.77197 0.65729 0.67109 0.0
C216 C 0.78322 0.64864 0.65247 0.0
C217 C 0.70926 0.67585 0.69046 0.0
C218 C 0.73848 0.66218 0.5365 0.0
C219 C 0.7012 0.60435 0.63276 0.0
O220 O 0.6965 0.62 0.63874 0.0
O221 O 0.72134 0.60883 0.62586 0.0
O222 O 0.69632 0.66697 0.65396 0.0
O223 O 0.72676 0.67341 0.69389 0.0
O224 O 0.33922 0.09535 0.55173 0.0
Cd225 Cd 0.35247 0.10759 0.61738 0.0
Cd226 Cd 0.33852 0.06163 0.63155 0.0
O227 O 0.32852 0.05923 0.56009 0.0
O228 O 0.35794 0.139 0.61307 0.0
O229 O 0.33566 0.11459 0.66736 0.0
C230 C 0.34436 0.13444 0.6485 0.0
C231 C 0.31716 0.03367 0.68948 0.0
C232 C 0.33132 0.07574 0.53406 0.0
C233 C 0.38878 0.09679 0.63203 0.0
O234 O 0.37308 0.07644 0.63784 0.0
O235 O 0.38434 0.11242 0.62432 0.0
O236 O 0.32606 0.02939 0.65332 0.0
O237 O 0.31959 0.05362 0.69221 0.0
O238 O 0.90293 0.24354 0.55367 0.0
Cd239 Cd 0.8908 0.24357 0.62008 0.0
Cd240 Cd 0.93627 0.27709 0.63271 0.0
O241 O 0.93862 0.27034 0.56059 0.0
O242 O 0.85968 0.21715 0.61495 0.0
O243 O 0.88421 0.21931 0.66887 0.0
C244 C 0.86442 0.20801 0.64984 0.0
C245 C 0.96453 0.28393 0.68998 0.0
C246 C 0.92217 0.25616 0.53507 0.0
C247 C 0.89958 0.29002 0.63585 0.0
O248 O 0.92025 0.29563 0.64093 0.0
O249 O 0.88459 0.26967 0.6283 0.0
O250 O 0.96838 0.29744 0.65461 0.0
O251 O 0.94486 0.26597 0.69221 0.0
O252 O 0.33916 0.24525 0.05367 0.0
Cd253 Cd 0.35007 0.24438 0.12088 0.0
Cd254 Cd 0.33716 0.27708 0.13362 0.0
O255 O 0.32845 0.27068 0.06125 0.0
O256 O 0.35463 0.21787 0.11606 0.0
O257 O 0.33127 0.21967 0.16791 0.0
C258 C 0.33999 0.20844 0.14957 0.0
C259 C 0.31536 0.28332 0.19095 0.0
C260 C 0.33191 0.25738 0.03528 0.0
C261 C 0.387 0.29068 0.13942 0.0
O262 O 0.37164 0.29596 0.1427 0.0
O263 O 0.38211 0.27044 0.13225 0.0
O264 O 0.32496 0.29701 0.15582 0.0
O265 O 0.3173 0.26548 0.19281 0.0
O266 O 0.7494 0.09484 0.05393 0.0
Cd267 Cd 0.74846 0.10673 0.12005 0.0
Cd268 Cd 0.71664 0.0606 0.13315 0.0
O269 O 0.72447 0.05855 0.06167 0.0
O270 O 0.77434 0.13819 0.11615 0.0
O271 O 0.77243 0.11353 0.16953 0.0
C272 C 0.7835 0.13347 0.15105 0.0
C273 C 0.70995 0.03245 0.19067 0.0
C274 C 0.73798 0.07528 0.03589 0.0
C275 C 0.70129 0.09561 0.13466 0.0
O276 O 0.69675 0.07525 0.13956 0.0
O277 O 0.72136 0.11142 0.12772 0.0
O278 O 0.69688 0.02826 0.15436 0.0
O279 O 0.72743 0.05241 0.19374 0.0
O280 O 0.90261 0.65552 0.05681 0.0
Cd281 Cd 0.89094 0.64358 0.12357 0.0
Cd282 Cd 0.93669 0.65636 0.13502 0.0
O283 O 0.93864 0.6656 0.06307 0.0
O284 O 0.85971 0.63864 0.1192 0.0
O285 O 0.88455 0.66148 0.17211 0.0
C286 C 0.86465 0.65281 0.15358 0.0
C287 C 0.96507 0.67787 0.19195 0.0
C288 C 0.92188 0.66273 0.03787 0.0
C289 C 0.90051 0.60648 0.13875 0.0
O290 O 0.92113 0.62181 0.14284 0.0
O291 O 0.88516 0.61145 0.13225 0.0
O292 O 0.96894 0.66841 0.15623 0.0
O293 O 0.94532 0.67592 0.19472 0.0
O294 O 0.57482 0.00451 0.14599 0.0
Cd295 Cd 0.5749 0.01689 0.07981 0.0
Cd296 Cd 0.60794 0.00432 0.06615 0.0
O297 O 0.60107 0.99489 0.13808 0.0
O298 O 0.54853 0.02167 0.08491 0.0
O299 O 0.55068 -0.00071 0.03099 0.0
C300 C 0.53939 0.00779 0.05002 0.0
C301 C 0.61471 0.98302 1.00845 0.0
C302 C 0.58715 0.99741 0.16403 0.0
C303 C 0.62147 0.05414 0.06372 0.0
O304 O 0.6268 0.03889 0.05852 0.0
O305 O 0.60121 0.04907 0.07149 0.0
O306 O 0.62815 0.99244 0.04401 0.0
O307 O 0.59685 0.9849 1.00625 0.0
O308 O 0.99051 0.57082 0.14276 0.0
Cd309 Cd 0.97758 0.5586 0.07687 0.0
Cd310 Cd 0.98949 0.60413 0.06436 0.0
O311 O -0.00102 0.6064 0.13617 0.0
O312 O 0.97274 0.52743 0.08173 0.0
O313 O 0.99466 0.55177 0.02704 0.0
C314 C 0.98627 0.53202 0.04622 0.0
C315 C 0.01064 0.63264 1.00729 0.0
C316 C -0.00288 0.59004 0.16142 0.0
C317 C 0.93986 0.56754 0.06297 0.0
O318 O 0.95489 0.58815 0.05703 0.0
O319 O 0.94524 0.55256 0.07046 0.0
O320 O 0.00106 0.6363 0.04308 0.0
O321 O 0.00897 0.61301 1.00447 0.0
O322 O 0.42814 0.41979 0.14604 0.0
Cd323 Cd 0.44045 0.41795 0.08102 0.0
Cd324 Cd 0.3944 0.38606 0.06684 0.0
O325 O 0.39204 0.3943 0.1378 0.0
O326 O 0.47194 0.44377 0.08471 0.0
O327 O 0.44762 0.44127 0.02979 0.0
C328 C 0.46746 0.45251 0.04864 0.0
C329 C 0.36633 0.37903 1.00885 0.0
C330 C 0.40849 0.40826 0.16361 0.0
C331 C 0.42926 0.37059 0.06873 0.0
O332 O 0.40901 0.36607 0.06202 0.0
O333 O 0.44497 0.39064 0.07619 0.0
O334 O 0.3621 0.36617 0.04556 0.0
O335 O 0.38632 0.39646 1.00552 0.0
O336 O 0.65362 0.75076 0.97497 0.0
Cd337 Cd 0.64055 0.74962 0.90903 0.0
Cd338 Cd 0.65438 0.7173 0.89662 0.0
O339 O 0.66436 0.72532 0.96798 0.0
O340 O 0.63498 0.77551 0.91321 0.0
O341 O 0.65751 0.77357 0.8593 0.0
C342 C 0.64872 0.78466 0.87808 0.0
C343 C 0.6756 0.71008 0.83947 0.0
C344 C 0.66151 0.73918 0.99335 0.0
C345 C 0.60414 0.70248 0.89561 0.0
O346 O 0.6198 0.69771 0.89049 0.0
O347 O 0.60864 0.72264 0.90224 0.0
O348 O 0.66658 0.69715 0.87595 0.0
O349 O 0.67336 0.72769 0.83599 0.0
O350 O 0.24325 0.90472 0.97604 0.0
Cd351 Cd 0.24286 0.89274 0.90926 0.0
Cd352 Cd 0.27647 0.93823 0.89709 0.0
O353 O 0.26979 0.94051 0.96928 0.0
O354 O 0.21633 0.8617 0.91459 0.0
O355 O 0.21831 0.88643 0.86141 0.0
C356 C 0.20701 0.86662 0.88036 0.0
C357 C 0.28345 0.9666 0.84002 0.0
C358 C 0.25578 0.92393 0.99478 0.0
C359 C 0.28916 0.90135 0.89278 0.0
O360 O 0.29486 0.92207 0.88857 0.0
O361 O 0.26877 0.88634 0.89985 0.0
O362 O 0.29696 0.97033 0.87533 0.0
O363 O 0.26542 0.947 0.83776 0.0
O364 O 0.09355 0.34029 0.97813 0.0
Cd365 Cd 0.10564 0.35272 0.91186 0.0
Cd366 Cd 0.05957 0.33876 0.89829 0.0
O367 O 0.0573 0.32909 0.97 0.0
O368 O 0.13703 0.35812 0.91658 0.0
O369 O 0.11248 0.33521 0.86326 0.0
C370 C 0.13235 0.34408 0.88204 0.0
C371 C 0.03152 0.31734 0.84062 0.0
C372 C 0.07397 0.33234 0.99603 0.0
C373 C 0.09497 0.38899 0.89593 0.0
O374 O 0.07453 0.3733 0.89133 0.0
O375 O 0.11065 0.38457 0.90311 0.0
O376 O 0.02732 0.32638 0.87665 0.0
O377 O 0.05142 0.31964 0.83794 0.0
O378 O 0.41611 0.98886 0.8888 0.0
Cd379 Cd 0.41482 0.97556 0.95457 0.0
Cd380 Cd 0.38221 0.98886 0.96712 0.0
O381 O 0.39005 -0.00122 0.89566 0.0
O382 O 0.44084 0.97019 0.95049 0.0
O383 O 0.43855 0.99233 1.00481 0.0
C384 C 0.44978 0.98372 0.98598 0.0
C385 C 0.37509 0.01013 0.02433 0.0
C386 C 0.40419 0.99635 0.87035 0.0
C387 C 0.36774 0.93879 0.96764 0.0
O388 O 0.36277 0.95427 0.97342 0.0
O389 O 0.38796 0.94354 0.96062 0.0
O390 O 0.36205 0.00101 0.98807 0.0
O391 O 0.39274 0.00793 0.02757 0.0
O392 O 0.00538 0.42735 0.88471 0.0
Cd393 Cd 0.0183 0.43956 0.95061 0.0
Cd394 Cd 0.00467 0.39368 0.96457 0.0
O395 O 0.99493 0.39129 0.8929 0.0
O396 O 0.0236 0.47091 0.94619 0.0
O397 O 0.00121 0.44641 1.00023 0.0
C398 C 0.0099 0.46627 0.98141 0.0
C399 C 0.98325 0.3657 0.0224 0.0
C400 C -0.00228 0.4078 0.86689 0.0
C401 C 0.05482 0.42911 0.96579 0.0
O402 O 0.03923 0.4087 0.97136 0.0
O403 O 0.05024 0.44464 0.95807 0.0
O404 O 0.99231 0.36147 0.98645 0.0
O405 O 0.98556 0.3856 0.02495 0.0
O406 O 0.57125 0.57773 0.88728 0.0
Cd407 Cd 0.55908 0.57757 0.95374 0.0
Cd408 Cd 0.60431 0.61143 0.96627 0.0
O409 O 0.60677 0.60493 0.89405 0.0
O410 O 0.52811 0.55094 0.94848 0.0
O411 O 0.55271 0.55332 1.00243 0.0
C412 C 0.53295 0.54188 0.98334 0.0
C413 C 0.63256 0.61829 0.0235 0.0
C414 C 0.59041 0.59059 0.86858 0.0
C415 C 0.56724 0.62378 0.96981 0.0
O416 O 0.58797 0.62965 0.97488 0.0
O417 O 0.55245 0.60338 0.9621 0.0
O418 O 0.63634 0.63191 0.98837 0.0
O419 O 0.61297 0.60023 0.02549 0.0
O420 O 0.0054 0.57754 0.38665 0.0
Cd421 Cd 0.0168 0.57703 0.45357 0.0
Cd422 Cd 0.0038 0.60974 0.46642 0.0
O423 O 0.99484 0.60308 0.39422 0.0
O424 O 0.0216 0.55068 0.44862 0.0
O425 O -0.00156 0.55242 0.50112 0.0
C426 C 0.00719 0.54125 0.48255 0.0
C427 C 0.98213 0.61614 0.52383 0.0
C428 C -0.0019 0.58963 0.3683 0.0
C429 C 0.0537 0.6235 0.4712 0.0
O430 O 0.03831 0.62872 0.47496 0.0
O431 O 0.04884 0.60327 0.46399 0.0
O432 O 0.99162 0.62971 0.48847 0.0
O433 O 0.98411 0.59833 0.5259 0.0
O434 O 0.4164 0.43101 0.3877 0.0
Cd435 Cd 0.41513 0.44268 0.45385 0.0
Cd436 Cd 0.38425 0.39635 0.46709 0.0
O437 O 0.39249 0.39448 0.39585 0.0
O438 O 0.44085 0.47425 0.45081 0.0
O439 O 0.43894 0.44932 0.50351 0.0
C440 C 0.44999 0.46937 0.48551 0.0
C441 C 0.37779 0.36828 0.52467 0.0
C442 C 0.40558 0.41135 0.3699 0.0
C443 C 0.36771 0.43048 0.46813 0.0
O444 O 0.36371 0.41029 0.4728 0.0
O445 O 0.38761 0.44669 0.46157 0.0
O446 O 0.36487 0.36391 0.48803 0.0
O447 O 0.395 0.3884 0.52807 0.0
O448 O 0.56763 0.98818 0.38959 0.0
Cd449 Cd 0.55586 0.97589 0.4561 0.0
Cd450 Cd 0.60166 0.98889 0.468 0.0
O451 O 0.60367 -0.00167 0.39619 0.0
O452 O 0.52459 0.97085 0.45194 0.0
O453 O 0.54939 0.99352 0.50512 0.0
C454 C 0.52948 0.98486 0.4866 0.0
C455 C 0.63001 0.01035 0.52505 0.0
C456 C 0.58697 0.99553 0.37087 0.0
C457 C 0.56568 0.93893 0.47085 0.0
O458 O 0.58625 0.95433 0.47538 0.0
O459 O 0.55028 0.9438 0.46417 0.0
O460 O 0.63392 0.00101 0.48918 0.0
O461 O 0.61021 0.00829 0.52794 0.0
O462 O 0.24173 0.3369 0.48046 0.0
Cd463 Cd 0.24151 0.34915 0.41429 0.0
Cd464 Cd 0.2751 0.33751 0.40031 0.0
O465 O 0.2687 0.32831 0.47243 0.0
O466 O 0.21486 0.35347 0.41955 0.0
O467 O 0.21737 0.33138 0.36541 0.0
C468 C 0.20588 0.33965 0.38451 0.0
C469 C 0.28182 0.31623 0.34252 0.0
C470 C 0.25454 0.33039 0.49848 0.0
C471 C 0.28777 0.38702 0.39766 0.0
O472 O 0.29348 0.37207 0.39208 0.0
O473 O 0.26744 0.38154 0.40597 0.0
O474 O 0.29546 0.32589 0.37767 0.0
O475 O 0.2638 0.31785 0.34078 0.0
O476 O 0.6556 0.9033 0.4766 0.0
Cd477 Cd 0.64307 0.89122 0.41039 0.0
Cd478 Cd 0.65515 0.9367 0.39785 0.0
O479 O 0.66458 0.93902 0.46973 0.0
O480 O 0.63844 0.86012 0.41485 0.0
O481 O 0.66059 0.88483 0.36092 0.0
C482 C 0.65223 0.865 0.37971 0.0
C483 C 0.6764 0.96506 0.34062 0.0
C484 C 0.66239 0.92257 0.49516 0.0
C485 C 0.60546 0.90018 0.39577 0.0
O486 O 0.62056 0.9208 0.39037 0.0
O487 O 0.61076 0.88512 0.40309 0.0
O488 O 0.66686 0.96885 0.3763 0.0
O489 O 0.67466 0.94539 0.33802 0.0
O490 O 0.09438 0.75213 0.47896 0.0
Cd491 Cd 0.10655 0.75063 0.41352 0.0
Cd492 Cd 0.06053 0.7187 0.39975 0.0
O493 O 0.05823 0.72676 0.4709 0.0
O494 O 0.13798 0.77658 0.4171 0.0
O495 O 0.11342 0.77411 0.36281 0.0
C496 C 0.13332 0.78538 0.38142 0.0
C497 C 0.03245 0.71177 0.34187 0.0
C498 C 0.07476 0.74059 0.49671 0.0
C499 C 0.09554 0.70339 0.40046 0.0
O500 O 0.07522 0.69881 0.39437 0.0
O501 O 0.11124 0.72347 0.40773 0.0
O502 O 0.02824 0.69882 0.37842 0.0
O503 O 0.05242 0.72924 0.33868 0.0
C504 C 0.23572 0.99392 0.31694 0.0
C505 C 0.22824 0.9748 0.28806 0.0
H506 H 0.25363 0.02993 0.31859 0.0
C507 C 0.22625 0.97675 0.23852 0.0
H508 H 0.23748 0.99277 0.35515 0.0
C509 C 0.23672 -0.00192 0.21731 0.0
C510 C 0.24796 0.01734 0.24597 0.0
H511 H 0.22056 0.96213 0.21557 0.0
H512 H 0.23891 -0.00064 0.17888 0.0
C513 C 0.24498 0.01521 0.29579 0.0
C514 C -0.00318 0.23789 0.3116 0.0
C515 C 0.01608 0.24942 0.28303 0.0
H516 H 0.96085 0.2213 0.31324 0.0
C517 C 0.01404 0.24658 0.23318 0.0
H518 H -0.00196 0.23998 0.35005 0.0
C519 C 0.99276 0.2371 0.21196 0.0
C520 C 0.97357 0.22932 0.24079 0.0
H521 H 0.02878 0.25543 0.21047 0.0
H522 H 0.99163 0.23895 0.17378 0.0
C523 C 0.97551 0.22722 0.2903 0.0
C524 C 0.75826 0.75634 0.21493 0.0
C525 C 0.76595 0.74522 0.24488 0.0
H526 H 0.73928 0.77333 0.21105 0.0
C527 C 0.76696 0.74896 0.29443 0.0
H528 H 0.7572 0.75351 0.1767 0.0
C529 C 0.75553 0.75914 0.31431 0.0
C530 C 0.74427 0.76668 0.28438 0.0
H531 H 0.77276 0.74039 0.31817 0.0
H532 H 0.75276 0.7581 0.35256 0.0
C533 C 0.74797 0.76765 0.23481 0.0
C534 C 0.746 0.97741 0.73979 0.0
C535 C 0.74191 0.97512 0.78927 0.0
H536 H 0.75579 0.00029 0.68067 0.0
C537 C 0.75314 0.99414 0.8186 0.0
H538 H 0.73736 0.96286 0.7165 0.0
C539 C 0.76489 0.01556 0.79796 0.0
C540 C 0.7642 0.01791 0.74818 0.0
H541 H 0.75009 0.99274 0.85677 0.0
H542 H 0.77064 0.03014 0.82109 0.0
C543 C 0.75659 -0.00116 0.71907 0.0
C544 C 0.99665 0.75748 0.81473 0.0
C545 C 0.01571 0.76555 0.78539 0.0
H546 H 0.96072 0.73755 0.81771 0.0
C547 C 0.0132 0.7662 0.73566 0.0
H548 H -0.00176 0.75669 0.8531 0.0
C549 C 0.99177 0.75406 0.71523 0.0
C550 C 0.97286 0.74246 0.74475 0.0
H551 H 0.02777 0.7723 0.71238 0.0
H552 H 0.99035 0.75108 0.67705 0.0
C553 C 0.97517 0.74647 0.79425 0.0
C554 C 0.24893 0.22943 0.79672 0.0
C555 C 0.25199 0.23097 0.7469 0.0
H556 H 0.24036 0.24289 0.8571 0.0
C557 C 0.23994 0.23832 0.71898 0.0
H558 H 0.25815 0.22381 0.81895 0.0
C559 C 0.2285 0.24799 0.74109 0.0
C560 C 0.23038 0.25152 0.79077 0.0
H561 H 0.24215 0.23972 0.68056 0.0
H562 H 0.22215 0.25655 0.71876 0.0
C563 C 0.23867 0.24031 0.81879 0.0
C564 C 0.9124 0.34844 0.62784 0.0
C565 C 0.91549 0.35046 0.57804 0.0
H566 H 0.90458 0.32608 0.68744 0.0
C567 C 0.90416 0.33117 0.5495 0.0
H568 H 0.92111 0.36319 0.65053 0.0
C569 C 0.89347 0.30988 0.57088 0.0
C570 C 0.89532 0.30798 0.62049 0.0
H571 H 0.90643 0.33237 0.51109 0.0
H572 H 0.88769 0.29521 0.54805 0.0
C573 C 0.9029 0.32718 0.64918 0.0
C574 C 0.64208 0.56081 0.62261 0.0
C575 C 0.64026 0.56315 0.57314 0.0
H576 H 0.66447 0.57318 0.68261 0.0
C577 C 0.6595 0.57092 0.54447 0.0
H578 H 0.62736 0.55488 0.64541 0.0
C579 C 0.68073 0.58017 0.56588 0.0
C580 C 0.68268 0.5828 0.61578 0.0
H581 H 0.65847 0.57296 0.50633 0.0
H582 H 0.69552 0.58904 0.54332 0.0
C583 C 0.66334 0.57125 0.64412 0.0
C584 C 0.41398 0.1006 0.56707 0.0
C585 C 0.41057 0.09988 0.61672 0.0
H586 H 0.42273 0.08606 0.50895 0.0
C587 C 0.42188 0.09235 0.64652 0.0
H588 H 0.40526 0.10628 0.54345 0.0
C589 C 0.43307 0.08195 0.62654 0.0
C590 C 0.43175 0.07796 0.57705 0.0
H591 H 0.41932 0.09152 0.68483 0.0
H592 H 0.4389 0.0734 0.65029 0.0
C593 C 0.42403 0.08906 0.54713 0.0
C594 C 0.42473 0.33289 0.0561 0.0
C595 C 0.43204 0.35187 0.08537 0.0
H596 H 0.40559 0.29693 0.05292 0.0
C597 C 0.43218 0.34936 0.1352 0.0
H598 H 0.42435 0.33448 0.01764 0.0
C599 C 0.42027 0.32787 0.15548 0.0
C600 C 0.40937 0.30894 0.12579 0.0
H601 H 0.43769 0.36387 0.15843 0.0
H602 H 0.41683 0.32635 0.1935 0.0
C603 C 0.41397 0.31139 0.07651 0.0
C604 C 0.64207 0.08012 0.12817 0.0
C605 C 0.63969 0.0763 0.07861 0.0
H606 H 0.66512 0.08978 0.18695 0.0
C607 C 0.65863 0.08777 0.04912 0.0
H608 H 0.62759 0.07129 0.15158 0.0
C609 C 0.68009 0.09954 0.06954 0.0
C610 C 0.68258 0.09865 0.11922 0.0
H611 H 0.65715 0.08492 1.01089 0.0
H612 H 0.69463 0.10551 0.04619 0.0
C613 C 0.66356 0.09075 0.14862 0.0
C614 C 0.90465 0.57309 0.15119 0.0
C615 C 0.89656 0.58442 0.123 0.0
H616 H 0.9238 0.55626 0.1517 0.0
C617 C 0.89473 0.58089 0.07332 0.0
H618 H 0.90628 0.57569 0.1895 0.0
C619 C 0.906 0.571 0.05141 0.0
C620 C 0.91785 0.56347 0.07951 0.0
H621 H 0.88854 0.58956 0.05089 0.0
H622 H 0.90826 0.57235 1.013 0.0
C623 C 0.91473 0.562 0.12931 0.0
C624 C 0.57018 0.66076 0.98325 0.0
C625 C 0.56268 0.64157 0.95459 0.0
H626 H 0.58815 0.69677 0.98451 0.0
C627 C 0.56064 0.6434 0.90502 0.0
H628 H 0.57197 0.6597 0.02148 0.0
C629 C 0.57113 0.66468 0.88357 0.0
C630 C 0.58244 0.684 0.91203 0.0
H631 H 0.5549 0.62872 0.88223 0.0
H632 H 0.5733 0.66586 0.84514 0.0
C633 C 0.57946 0.682 0.96186 0.0
C634 C 0.33003 0.9055 0.97916 0.0
C635 C 0.3494 0.91708 0.95088 0.0
H636 H 0.29405 0.88884 0.98022 0.0
C637 C 0.34754 0.91422 0.90103 0.0
H638 H 0.33111 0.90759 0.01762 0.0
C639 C 0.32633 0.90471 0.87945 0.0
C640 C 0.30703 0.89691 0.90796 0.0
H641 H 0.36235 0.92311 0.87853 0.0
H642 H 0.32533 0.90657 0.84123 0.0
C643 C 0.3088 0.89479 0.95752 0.0
C644 C 0.09943 0.4147 0.96024 0.0
C645 C 0.09829 0.41094 0.91068 0.0
H646 H 0.08538 0.42387 0.01863 0.0
C647 C 0.09051 0.42204 0.88091 0.0
H648 H 0.10529 0.40614 0.98385 0.0
C649 C 0.08028 0.43337 0.901 0.0
C650 C 0.07672 0.43242 0.95062 0.0
H651 H 0.08935 0.4192 0.84268 0.0
H652 H 0.07154 0.43904 0.8774 0.0
C653 C 0.08806 0.42489 0.98034 0.0
C654 C 0.09884 0.68221 0.46649 0.0
C655 C 0.09846 0.68471 0.4167 0.0
H656 H 0.08376 0.65922 0.52491 0.0
C657 C 0.09101 0.66573 0.38739 0.0
H658 H 0.10446 0.69673 0.48975 0.0
C659 C 0.08033 0.64423 0.40781 0.0
C660 C 0.07599 0.6418 0.4572 0.0
H661 H 0.09044 0.66731 0.34896 0.0
H662 H 0.07185 0.62977 0.38428 0.0
C663 C 0.08702 0.66073 0.48682 0.0
C664 C 0.32457 0.42108 0.38257 0.0
C665 C 0.30574 0.40937 0.41226 0.0
H666 H 0.36056 0.43964 0.37938 0.0
C667 C 0.30811 0.41345 0.46173 0.0
H668 H 0.32309 0.41803 0.3444 0.0
C669 C 0.32963 0.42471 0.48201 0.0
C670 C 0.34865 0.43291 0.45251 0.0
H671 H 0.29373 0.40445 0.48529 0.0
H672 H 0.33131 0.424 0.52038 0.0
C673 C 0.34602 0.43345 0.4028 0.0
C674 C 0.58007 0.89454 0.46162 0.0
C675 C 0.5834 0.8961 0.41187 0.0
H676 H 0.57137 0.90807 0.52165 0.0
C677 C 0.57168 0.9037 0.38356 0.0
H678 H 0.58905 0.88873 0.48414 0.0
C679 C 0.56032 0.91355 0.40526 0.0
C680 C 0.56191 0.91695 0.45497 0.0
H681 H 0.57411 0.90514 0.34519 0.0
H682 H 0.55423 0.92227 0.3827 0.0
C683 C 0.5699 0.90557 0.48331 0.0
C684 C 0.32897 0.05593 0.45624 0.0
C685 C 0.32855 0.07354 0.48142 0.0
H686 H 0.32942 0.04212 0.38745 0.0
C687 C 0.32858 0.09112 0.45536 0.0
H688 H 0.32937 0.04234 0.47528 0.0
C689 C 0.3291 0.09125 0.40566 0.0
C690 C 0.32955 0.07376 0.38021 0.0
H691 H 0.32846 0.10507 0.47342 0.0
H692 H 0.32892 0.10507 0.38712 0.0
C693 C 0.3295 0.05606 0.406 0.0
C694 C 0.94095 0.27434 0.45664 0.0
C695 C 0.92375 0.25606 0.48215 0.0
H696 H 0.95376 0.28912 0.38761 0.0
C697 C 0.90589 0.23864 0.45643 0.0
H698 H 0.95475 0.28823 0.47541 0.0
C699 C 0.90503 0.23944 0.40687 0.0
C700 C 0.92209 0.25758 0.38104 0.0
H701 H 0.89223 0.22437 0.47467 0.0
H702 H 0.89095 0.22552 0.38873 0.0
C703 C 0.94013 0.27509 0.40645 0.0
C704 C 0.75739 0.66537 0.45864 0.0
C705 C 0.73948 0.66506 0.48386 0.0
H706 H 0.77164 0.6652 0.39111 0.0
C707 C 0.72149 0.66432 0.45784 0.0
H708 H 0.77145 0.66575 0.47738 0.0
C709 C 0.72147 0.66375 0.40761 0.0
C710 C 0.73948 0.66399 0.38266 0.0
H711 H 0.70723 0.66366 0.47622 0.0
H712 H 0.70762 0.66354 0.38839 0.0
C713 C 0.75738 0.6648 0.40896 0.0
C714 C 0.09009 0.33159 0.12464 0.0
C715 C 0.07225 0.33137 0.14999 0.0
H716 H 0.10414 0.3312 0.05701 0.0
C717 C 0.05419 0.33054 0.1241 0.0
H718 H 0.1042 0.33203 0.14325 0.0
C719 C 0.05403 0.32981 0.07387 0.0
C720 C 0.07197 0.32997 0.04878 0.0
H721 H 0.03998 0.32994 0.14259 0.0
H722 H 0.04013 0.32954 0.05475 0.0
C723 C 0.08993 0.33085 0.07496 0.0
C724 C 0.66339 0.75769 0.12097 0.0
C725 C 0.66288 0.73993 0.14725 0.0
H726 H 0.66423 0.77175 0.05259 0.0
C727 C 0.66302 0.72213 0.12228 0.0
H728 H 0.66349 0.7718 0.13884 0.0
C729 C 0.6637 0.72222 0.07205 0.0
C730 C 0.66417 0.74008 0.04604 0.0
H731 H 0.66305 0.70839 0.14148 0.0
H732 H 0.66336 0.70812 0.05364 0.0
C733 C 0.66406 0.75779 0.07129 0.0
C734 C 0.27457 0.94197 0.12343 0.0
C735 C 0.25732 0.92367 0.14882 0.0
H736 H 0.28746 0.95683 0.0545 0.0
C737 C 0.23944 0.90634 0.12298 0.0
H738 H 0.28839 0.9558 0.1423 0.0
C739 C 0.23861 0.90722 0.07343 0.0
C740 C 0.25573 0.92537 0.04773 0.0
H741 H 0.22574 0.89205 0.14111 0.0
H742 H 0.22452 0.89336 0.0552 0.0
C743 C 0.27378 0.9428 0.07325 0.0
C744 C 0.66197 0.94055 0.62391 0.0
C745 C 0.66183 0.92266 0.64916 0.0
H746 H 0.66286 0.95501 0.55506 0.0
C747 C 0.663 0.90569 0.62317 0.0
H748 H 0.66148 0.9541 0.64289 0.0
C749 C 0.66434 0.9065 0.57356 0.0
C750 C 0.66441 0.92422 0.54801 0.0
H751 H 0.66312 0.89173 0.64121 0.0
H752 H 0.66503 0.89292 0.55516 0.0
C753 C 0.66325 0.94133 0.5737 0.0
C754 C 0.09001 0.75931 0.57494 0.0
C755 C 0.07257 0.74146 0.54927 0.0
H756 H 0.1039 0.77341 0.64289 0.0
C757 C 0.05516 0.72341 0.57483 0.0
H758 H 0.1038 0.77341 0.55655 0.0
C759 C 0.05536 0.72327 0.62507 0.0
C760 C 0.07293 0.74123 0.65048 0.0
H761 H 0.04169 0.70919 0.5561 0.0
H762 H 0.04159 0.70937 0.64392 0.0
C763 C 0.0902 0.75919 0.62465 0.0
C764 C 0.27317 0.32979 0.57621 0.0
C765 C 0.25467 0.32856 0.55133 0.0
H766 H 0.28831 0.3317 0.64477 0.0
C767 C 0.23725 0.32869 0.57767 0.0
H768 H 0.28706 0.33012 0.55696 0.0
C769 C 0.23822 0.33016 0.62726 0.0
C770 C 0.25658 0.33138 0.65245 0.0
H771 H 0.22281 0.32795 0.55991 0.0
H772 H 0.2243 0.33007 0.64591 0.0
C773 C 0.27411 0.33119 0.62641 0.0
C774 C 0.90502 0.66357 0.95969 0.0
C775 C 0.92324 0.66454 0.98496 0.0
H776 H 0.88975 0.66159 0.89227 0.0
C777 C 0.94069 0.66415 0.959 0.0
H778 H 0.89116 0.66364 0.97829 0.0
C779 C 0.93979 0.66279 0.9088 0.0
C780 C 0.92143 0.66179 0.88383 0.0
H781 H 0.95478 0.66447 0.97742 0.0
H782 H 0.95362 0.66295 0.8896 0.0
C783 C 0.90409 0.66214 0.9101 0.0
C784 C 0.32988 0.27523 0.95746 0.0
C785 C 0.33062 0.2577 0.98232 0.0
H786 H 0.33017 0.28967 0.88893 0.0
C787 C 0.33299 0.24151 0.95595 0.0
H788 H 0.32846 0.2882 0.97672 0.0
C789 C 0.33454 0.24267 0.90637 0.0
C790 C 0.33359 0.25996 0.88122 0.0
H791 H 0.33385 0.22786 0.97363 0.0
H792 H 0.33609 0.22965 0.88766 0.0
C793 C 0.33135 0.27635 0.90728 0.0
C794 C 0.72061 0.0558 0.90751 0.0
C795 C 0.73804 0.07385 0.88196 0.0
H796 H 0.70714 0.04166 0.97659 0.0
C797 C 0.75562 0.09156 0.90766 0.0
H798 H 0.70703 0.04169 0.88876 0.0
C799 C 0.75593 0.0913 0.95736 0.0
C800 C 0.73864 0.07335 0.98318 0.0
H801 H 0.76943 0.10565 0.88931 0.0
H802 H 0.76975 0.10542 0.9756 0.0
C803 C 0.72093 0.05554 0.95775 0.0
C804 C 0.99648 0.38831 0.73883 0.0
C805 C -0.0032 0.40613 0.71296 0.0
H806 H 0.99588 0.37441 0.80817 0.0
C807 C 0.99637 0.42364 0.73834 0.0
H808 H 0.99639 0.37435 0.72033 0.0
C809 C 0.99557 0.42342 0.78802 0.0
C810 C 0.99526 0.40572 0.81417 0.0
H811 H 0.9964 0.43756 0.71976 0.0
H812 H 0.99545 0.43739 0.80599 0.0
C813 C 0.99569 0.38809 0.78906 0.0
C814 C 0.60893 0.60895 0.79008 0.0
C815 C 0.59192 0.59054 0.81565 0.0
H816 H 0.62146 0.62388 0.72103 0.0
C817 C 0.57413 0.57302 0.79001 0.0
H818 H 0.62267 0.62293 0.80881 0.0
C819 C 0.57313 0.57385 0.74048 0.0
C820 C 0.58999 0.59213 0.71459 0.0
H821 H 0.56062 0.55864 0.80828 0.0
H822 H 0.5591 0.55986 0.72242 0.0
C823 C 0.60798 0.60973 0.73992 0.0
C824 C 0.42291 -0.0008 0.79241 0.0
C825 C 0.40502 -0.00106 0.81764 0.0
H826 H 0.437 -0.00131 0.72492 0.0
C827 C 0.38692 -0.00204 0.79162 0.0
H828 H 0.43706 -0.00024 0.81112 0.0
C829 C 0.38677 0.99712 0.7414 0.0
C830 C 0.40475 0.99728 0.71645 0.0
H831 H 0.37268 0.99733 0.81001 0.0
H832 H 0.37283 0.99672 0.72218 0.0
C833 C 0.42275 -0.00167 0.74275 0.0
C834 C 0.56967 0.99572 0.243 0.0
C835 C 0.58702 0.99533 0.21685 0.0
H836 H 0.55658 0.99701 0.31116 0.0
C837 C 0.60522 0.99604 0.24194 0.0
H838 H 0.55546 0.99539 0.22506 0.0
C839 C 0.60596 0.99718 0.29216 0.0
C840 C 0.5885 0.99759 0.31802 0.0
H841 H 0.61906 0.99617 0.22284 0.0
H842 H 0.61993 0.99728 0.31067 0.0
C843 C 0.57044 0.9969 0.29263 0.0
C844 C 0.99619 0.60745 0.29038 0.0
C845 C 0.99653 0.58974 0.31539 0.0
H846 H 0.99673 0.6219 0.22173 0.0
C847 C -0.00169 0.57317 0.28915 0.0
H848 H 0.99524 0.6207 0.30954 0.0
C849 C -0.00028 0.57416 0.23955 0.0
C850 C -0.00076 0.59166 0.21425 0.0
H851 H -0.00117 0.55937 0.30698 0.0
H852 H 0.00084 0.56086 0.22094 0.0
C853 C -0.00246 0.6084 0.24018 0.0
C854 C 0.38892 0.39112 0.24175 0.0
C855 C 0.40617 0.40928 0.21609 0.0
H856 H 0.37547 0.37711 0.3109 0.0
C857 C 0.42337 0.42739 0.24164 0.0
H858 H 0.37565 0.37672 0.22309 0.0
C859 C 0.42351 0.4274 0.29136 0.0
C860 C 0.40644 0.40931 0.31729 0.0
H861 H 0.43703 0.44157 0.22316 0.0
H862 H 0.43704 0.4418 0.30953 0.0
C863 C 0.38909 0.39111 0.29198 0.0
C864 C 0.34281 0.17342 0.14393 0.0
C865 C 0.33325 0.1853 0.16545 0.0
H866 H 0.34421 0.14285 0.1414 0.0
C867 C 0.31704 0.17471 0.20152 0.0
H868 H 0.35531 0.18109 0.11588 0.0
C869 C 0.31065 0.15277 0.216 0.0
C870 C 0.32032 0.14095 0.1947 0.0
H871 H 0.30931 0.18338 0.21865 0.0
H872 H 0.29821 0.14513 0.24417 0.0
C873 C 0.33641 0.15147 0.1584 0.0
C874 C 0.81806 0.1717 0.14621 0.0
C875 C 0.8063 0.15029 0.16792 0.0
H876 H 0.84855 0.20376 0.14341 0.0
C877 C 0.81681 0.14498 0.20468 0.0
H878 H 0.81044 0.1763 0.11767 0.0
C879 C 0.83867 0.16071 0.2193 0.0
C880 C 0.85047 0.18208 0.19744 0.0
H881 H 0.80822 0.12863 0.22201 0.0
H882 H 0.84631 0.15608 0.24776 0.0
C883 C 0.83993 0.18743 0.16082 0.0
C884 C 0.81102 0.65592 0.16274 0.0
C885 C 0.81646 0.6719 0.19922 0.0
H886 H 0.82194 0.63728 0.11995 0.0
C887 C 0.83787 0.68147 0.22087 0.0
H888 H 0.79466 0.64819 0.14548 0.0
C889 C 0.8535 0.67519 0.20638 0.0
C890 C 0.84805 0.65919 0.16995 0.0
H891 H 0.84257 0.69381 0.2492 0.0
H892 H 0.86986 0.6829 0.22366 0.0
C893 C 0.82665 0.64963 0.14826 0.0
C894 C 0.14924 0.33668 0.37427 0.0
C895 C 0.13913 0.32136 0.33653 0.0
H896 H 0.17827 0.35452 0.41887 0.0
C897 C 0.15114 0.31201 0.31469 0.0
H898 H 0.14045 0.3442 0.39174 0.0
C899 C 0.17285 0.31795 0.33011 0.0
C900 C 0.183 0.33337 0.36768 0.0
H901 H 0.14383 0.30016 0.28542 0.0
H902 H 0.18166 0.31049 0.31255 0.0
C903 C 0.17094 0.34262 0.38969 0.0
C904 C 0.67412 0.85383 0.32546 0.0
C905 C 0.65849 0.84841 0.36269 0.0
H906 H 0.69232 0.84286 0.28133 0.0
C907 C 0.64915 0.82703 0.38443 0.0
H908 H 0.68165 0.87016 0.3081 0.0
C909 C 0.6553 0.81139 0.36922 0.0
C910 C 0.67091 0.8168 0.33196 0.0
H911 H 0.63709 0.82235 0.41333 0.0
H912 H 0.64775 0.79505 0.38655 0.0
C913 C 0.68027 0.83818 0.31025 0.0
C914 C 0.14483 0.81822 0.32635 0.0
C915 C 0.15013 0.80805 0.36385 0.0
H916 H 0.15589 0.84737 0.28217 0.0
C917 C 0.17149 0.82004 0.38564 0.0
H918 H 0.12852 0.80944 0.30893 0.0
C919 C 0.18718 0.84182 0.37044 0.0
C920 C 0.18183 0.85204 0.33314 0.0
H921 H 0.17609 0.81268 0.41473 0.0
H922 H 0.20347 0.85063 0.38796 0.0
C923 C 0.16052 0.83999 0.31116 0.0
C924 C 0.67656 0.83992 0.81013 0.0
C925 C 0.66698 0.85167 0.83217 0.0
H926 H 0.67823 0.8095 0.8071 0.0
C927 C 0.65111 0.84106 0.86881 0.0
H928 H 0.68881 0.84761 0.78164 0.0
C929 C 0.64501 0.81918 0.88326 0.0
C930 C 0.65466 0.80747 0.86135 0.0
H931 H 0.64339 0.84963 0.88636 0.0
H932 H 0.6328 0.8115 0.91182 0.0
C933 C 0.67046 0.81804 0.82456 0.0
C934 C 0.15023 0.81302 0.87184 0.0
C935 C 0.13969 0.81836 0.83519 0.0
H936 H 0.17979 0.82405 0.91465 0.0
C937 C 0.15145 0.83976 0.81348 0.0
H938 H 0.14165 0.79667 0.88916 0.0
C939 C 0.17336 0.85546 0.82794 0.0
C940 C 0.18394 0.85007 0.86441 0.0
H941 H 0.1438 0.84439 0.78503 0.0
H942 H 0.18198 0.87178 0.81052 0.0
C943 C 0.17213 0.82871 0.8863 0.0
C944 C 0.14393 0.32202 0.82939 0.0
C945 C 0.14918 0.33798 0.8658 0.0
H946 H 0.15516 0.30356 0.78688 0.0
C947 C 0.17057 0.34773 0.88763 0.0
H948 H 0.1276 0.31416 0.812 0.0
C949 C 0.18637 0.34162 0.87337 0.0
C950 C 0.1811 0.32564 0.837 0.0
H951 H 0.17512 0.36007 0.91591 0.0
H952 H 0.2027 0.34947 0.89077 0.0
C953 C 0.15973 0.31591 0.81515 0.0
C954 C 0.83786 0.67592 0.72261 0.0
C955 C 0.84987 0.66663 0.70054 0.0
H956 H 0.80734 0.67745 0.72497 0.0
C957 C 0.83961 0.65109 0.66322 0.0
H958 H 0.84527 0.68791 0.75161 0.0
C959 C 0.81784 0.64506 0.64809 0.0
C960 C 0.80588 0.65444 0.66998 0.0
H961 H 0.84839 0.64359 0.64562 0.0
H962 H 0.81045 0.63312 0.61899 0.0
C963 C 0.81609 0.66989 0.70748 0.0
C964 C 0.34215 0.18853 0.65866 0.0
C965 C 0.32688 0.18348 0.69645 0.0
H966 H 0.35975 0.17702 0.61407 0.0
C967 C 0.31756 0.16224 0.71877 0.0
H968 H 0.34966 0.20476 0.64086 0.0
C969 C 0.32336 0.14635 0.70354 0.0
C970 C 0.33861 0.15138 0.6657 0.0
H971 H 0.30576 0.15784 0.74811 0.0
H972 H 0.31583 0.13011 0.72132 0.0
C973 C 0.34796 0.17264 0.64344 0.0
C974 C 0.85283 0.17479 0.70386 0.0
C975 C 0.84768 0.18513 0.66648 0.0
H976 H 0.84143 0.14558 0.74807 0.0
C977 C 0.82638 0.17326 0.64438 0.0
H978 H 0.8691 0.18346 0.72149 0.0
C979 C 0.81053 0.15153 0.65948 0.0
C980 C 0.81564 0.14122 0.69699 0.0
H981 H 0.8219 0.18075 0.61534 0.0
H982 H 0.79424 0.14288 0.64192 0.0
C983 C 0.83697 0.15305 0.71896 0.0
C984 C 0.97846 0.48568 0.5494 0.0
C985 C 0.98814 0.47394 0.52781 0.0
H986 H 0.97692 0.51619 0.55223 0.0
C987 C 0.00409 0.48451 0.49128 0.0
H988 H 0.96613 0.47802 0.57775 0.0
C989 C 0.01032 0.50641 0.47681 0.0
C990 C 0.00071 0.5182 0.49855 0.0
H991 H 0.0119 0.47594 0.47405 0.0
H992 H 0.02269 0.5141 0.44854 0.0
C993 C 0.98467 0.50759 0.53492 0.0
C994 C 0.50662 0.52308 0.49547 0.0
C995 C 0.5172 0.51747 0.53156 0.0
H996 H 0.47702 0.51233 0.45287 0.0
C997 C 0.50529 0.49606 0.5532 0.0
H998 H 0.51531 0.53946 0.47825 0.0
C999 C 0.48334 0.48052 0.5388 0.0
C1000 C 0.47282 0.48607 0.50247 0.0
H1001 H 0.51295 0.49123 0.58127 0.0
H1002 H 0.4747 0.46412 0.55588 0.0
C1003 C 0.48465 0.50755 0.48107 0.0
C1004 C 0.49142 0.98158 0.48166 0.0
C1005 C 0.51284 0.99114 0.50326 0.0
H1006 H 0.45942 0.98014 0.47904 0.0
C1007 C 0.51829 0.00706 0.53985 0.0
H1008 H 0.48671 0.96928 0.45325 0.0
C1009 C 0.50265 0.01332 0.55449 0.0
C1010 C 0.48125 0.00378 0.53285 0.0
H1011 H 0.53466 0.01477 0.55708 0.0
H1012 H 0.50737 0.02563 0.58288 0.0
C1013 C 0.47579 0.98784 0.4963 0.0
C1014 C 0.48438 0.98012 0.98116 0.0
C1015 C 0.4725 0.98956 1.00316 0.0
H1016 H 0.51485 0.97851 0.97852 0.0
C1017 C 0.48282 0.00504 0.04057 0.0
H1018 H 0.47691 0.96815 0.95213 0.0
C1019 C 0.50459 0.01101 0.05555 0.0
C1020 C 0.5165 0.00162 0.03344 0.0
H1021 H 0.47414 0.01265 0.05813 0.0
H1022 H 0.51208 0.02301 0.08453 0.0
C1023 C 0.50615 0.98608 0.99615 0.0
C1024 C 0.98281 0.4939 0.05132 0.0
C1025 C 0.99221 0.5152 0.0292 0.0
H1026 H 0.98108 0.46177 0.05377 0.0
C1027 C 0.00759 0.52031 0.99159 0.0
H1028 H 0.97093 0.48945 0.08051 0.0
C1029 C 0.01345 0.50445 0.9764 0.0
C1030 C 0.00403 0.48315 0.9985 0.0
H1031 H 0.01517 0.53658 0.97393 0.0
H1032 H 0.02533 0.50889 0.94719 0.0
C1033 C 0.98866 0.47804 0.03612 0.0
C1034 C 0.47929 0.48522 0.99305 0.0
C1035 C 0.48442 0.47509 0.0309 0.0
H1036 H 0.49058 0.5143 0.94852 0.0
C1037 C 0.50573 0.48705 0.05292 0.0
H1038 H 0.46302 0.47647 0.97545 0.0
C1039 C 0.52153 0.50877 0.03761 0.0
C1040 C 0.51634 0.51896 0.99999 0.0
H1041 H 0.5102 0.47971 0.08227 0.0
H1042 H 0.53777 0.51757 0.05533 0.0
C1043 C 0.49509 0.50694 0.97776 0.0
C1044 C 0.35744 0.03292 0.05087 0.0
C1045 C 0.36896 0.0213 0.0623 0.0
H1046 H 0.34039 0.04998 0.07709 0.0
C1047 C 0.37278 0.01878 0.11067 0.0
H1048 H 0.35419 0.03507 1.01391 0.0
C1049 C 0.36424 0.02667 0.14682 0.0
C1050 C 0.35241 0.03797 0.13539 0.0
H1051 H 0.38142 0.00974 0.12059 0.0
H1052 H 0.36659 0.02363 0.1838 0.0
C1053 C 0.34961 0.04153 0.08701 0.0
C1054 C 0.95141 0.30927 0.08666 0.0
C1055 C 0.9556 0.31587 0.13484 0.0
H1056 H 0.95732 0.31989 1.01324 0.0
C1057 C 0.96744 0.33906 0.14568 0.0
H1058 H 0.94254 0.29154 0.07719 0.0
C1059 C 0.97523 0.3553 0.10912 0.0
C1060 C 0.97208 0.34867 0.0609 0.0
H1061 H 0.97098 0.34464 0.18249 0.0
H1062 H 0.98471 0.37302 0.11856 0.0
C1063 C 0.95993 0.32549 0.05007 0.0
C1064 C 0.64304 0.6199 0.10995 0.0
C1065 C 0.64967 0.62423 0.0618 0.0
H1066 H 0.6536 0.62562 0.1834 0.0
C1067 C 0.67287 0.63612 0.051 0.0
H1068 H 0.62529 0.61097 0.11938 0.0
C1069 C 0.68908 0.64383 0.08759 0.0
C1070 C 0.68242 0.64055 0.13579 0.0
H1071 H 0.67848 0.63977 1.01421 0.0
H1072 H 0.70681 0.65336 0.07819 0.0
C1073 C 0.65923 0.62834 0.14657 0.0
C1074 C 0.02501 0.36552 0.38353 0.0
C1075 C 0.03637 0.35373 0.3949 0.0
H1076 H 0.00813 0.38273 0.40985 0.0
C1077 C 0.04006 0.35105 0.44326 0.0
H1078 H 0.02187 0.36779 0.34658 0.0
C1079 C 0.03155 0.35895 0.47946 0.0
C1080 C 0.01988 0.37043 0.46809 0.0
H1081 H 0.04857 0.34187 0.45314 0.0
H1082 H 0.0338 0.35579 0.51641 0.0
C1083 C 0.01722 0.37414 0.41973 0.0
C1084 C 0.61872 0.64373 0.42009 0.0
C1085 C 0.62302 0.65037 0.46824 0.0
H1086 H 0.62455 0.65429 0.34663 0.0
C1087 C 0.63497 0.67356 0.479 0.0
H1088 H 0.60976 0.62599 0.41069 0.0
C1089 C 0.64276 0.68977 0.44238 0.0
C1090 C 0.63951 0.6831 0.39419 0.0
H1091 H 0.63859 0.67917 0.51578 0.0
H1092 H 0.65233 0.7075 0.45175 0.0
C1093 C 0.62724 0.65992 0.38344 0.0
C1094 C 0.35422 0.97636 0.4213 0.0
C1095 C 0.34752 0.97322 0.46947 0.0
H1096 H 0.34369 0.97223 0.34786 0.0
C1097 C 0.32431 0.96117 0.48017 0.0
H1098 H 0.37197 0.98577 0.41196 0.0
C1099 C 0.30815 0.95275 0.44349 0.0
C1100 C 0.31484 0.95695 0.39535 0.0
H1101 H 0.31866 0.95856 0.51698 0.0
H1102 H 0.2904 0.94395 0.45285 0.0
C1103 C 0.33805 0.96868 0.38464 0.0
C1104 C 0.63986 0.95176 0.944 0.0
C1105 C 0.6371 0.95568 0.89583 0.0
H1106 H 0.63536 0.95779 0.01746 0.0
C1107 C 0.62533 0.96713 0.88511 0.0
H1108 H 0.64905 0.9432 0.95336 0.0
C1109 C 0.61683 0.9748 0.92178 0.0
C1110 C 0.62066 0.97194 0.96994 0.0
H1111 H 0.62301 0.97046 0.84832 0.0
H1112 H 0.60826 0.98398 0.91242 0.0
C1113 C 0.6321 0.96018 0.98066 0.0
C1114 C 0.01952 0.64358 0.92099 0.0
C1115 C 0.02172 0.64996 0.96929 0.0
H1116 H 0.02445 0.65451 0.84778 0.0
C1117 C 0.03289 0.6731 0.98058 0.0
H1118 H 0.01082 0.62589 0.91117 0.0
C1119 C 0.04136 0.6895 0.94434 0.0
C1120 C 0.03811 0.68308 0.89599 0.0
H1121 H 0.03478 0.67852 0.01749 0.0
H1122 H 0.04947 0.70717 0.95413 0.0
C1123 C 0.02726 0.65995 0.88472 0.0
C1124 C 0.33925 0.36756 0.88595 0.0
C1125 C 0.3161 0.35628 0.89718 0.0
H1126 H 0.37331 0.38435 0.91248 0.0
C1127 C 0.30967 0.35408 0.94547 0.0
H1128 H 0.34471 0.36945 0.84906 0.0
C1129 C 0.32602 0.36195 0.98177 0.0
C1130 C 0.34917 0.37292 0.97055 0.0
H1131 H 0.29197 0.34529 0.95526 0.0
H1132 H 0.32055 0.35916 0.0187 0.0
C1133 C 0.35562 0.37616 0.92222 0.0
C1134 C 0.95059 0.64094 0.58849 0.0
C1135 C 0.95454 0.63815 0.63662 0.0
H1136 H 0.95668 0.63657 0.51497 0.0
C1137 C 0.96606 0.62645 0.64723 0.0
H1138 H 0.94196 0.65007 0.57921 0.0
C1139 C 0.9738 0.61805 0.6105 0.0
C1140 C 0.97092 0.62191 0.56236 0.0
H1141 H 0.96941 0.62412 0.684 0.0
H1142 H 0.98305 0.60955 0.61978 0.0
C1143 C 0.95907 0.63328 0.55175 0.0
C1144 C 0.35352 0.31166 0.58801 0.0
C1145 C 0.3556 0.31805 0.63629 0.0
H1146 H 0.35851 0.32256 0.51477 0.0
C1147 C 0.36661 0.3412 0.64753 0.0
H1148 H 0.34494 0.29397 0.57823 0.0
C1149 C 0.37505 0.35758 0.61126 0.0
C1150 C 0.37191 0.35115 0.56293 0.0
H1151 H 0.3684 0.34662 0.68441 0.0
H1152 H 0.38302 0.37525 0.62101 0.0
C1153 C 0.36122 0.32802 0.5517 0.0
C1154 C 0.64083 0.01912 0.61141 0.0
C1155 C 0.64726 0.02158 0.56311 0.0
H1156 H 0.65172 0.02401 0.68464 0.0
C1157 C 0.67042 0.03314 0.55186 0.0
H1158 H 0.62313 0.01011 0.6212 0.0
C1159 C 0.68678 0.04175 0.58814 0.0
C1160 C 0.68034 0.03825 0.63647 0.0
H1161 H 0.67588 0.03523 0.51495 0.0
H1162 H 0.70448 0.05017 0.57837 0.0
C1163 C 0.65719 0.027 0.64771 0.0
C1164 C 0.7068 0.68435 0.77684 0.0
C1165 C 0.70316 0.68705 0.72846 0.0
H1166 H 0.7005 0.68912 0.84994 0.0
C1167 C 0.69187 0.69889 0.71699 0.0
H1168 H 0.71525 0.67513 0.78679 0.0
C1169 C 0.68409 0.70755 0.75311 0.0
C1170 C 0.68669 0.70383 0.8015 0.0
H1171 H 0.68878 0.70119 0.68001 0.0
H1172 H 0.67505 0.71619 0.74315 0.0
C1173 C 0.69829 0.69229 0.81297 0.0
C1174 C 0.29375 0.99346 0.71706 0.0
C1175 C 0.306 0.01663 0.72795 0.0
H1176 H 0.27627 0.95949 0.74407 0.0
C1177 C 0.30924 0.02322 0.77619 0.0
H1178 H 0.29106 0.98788 0.6802 0.0
C1179 C 0.30144 0.00696 0.8127 0.0
C1180 C 0.2895 0.98378 0.80179 0.0
H1181 H 0.3188 0.04093 0.78568 0.0
H1182 H 0.30505 0.01251 0.84952 0.0
C1183 C 0.28522 0.97722 0.7536 0.0
C1184 C 0.97506 0.2857 0.77646 0.0
C1185 C 0.98166 0.28989 0.72827 0.0
H1186 H 0.98569 0.29154 0.84987 0.0
C1187 C 0.00485 0.30165 0.71739 0.0
H1188 H 0.95732 0.27687 0.78596 0.0
C1189 C 0.02109 0.30937 0.75392 0.0
C1190 C 0.01447 0.30623 0.80215 0.0
H1191 H 0.01044 0.30519 0.68057 0.0
H1192 H 0.03882 0.3188 0.74445 0.0
C1193 C 0.99128 0.29415 0.81302 0.0
C1194 C 0.29225 0.30038 0.21899 0.0
C1195 C 0.30411 0.28901 0.22952 0.0
H1196 H 0.27513 0.31712 0.24659 0.0
C1197 C 0.30697 0.28509 0.27763 0.0
H1198 H 0.28987 0.30371 0.18224 0.0
C1199 C 0.29923 0.29345 0.31443 0.0
C1200 C 0.2877 0.30515 0.3039 0.0
H1201 H 0.31623 0.27658 0.28684 0.0
H1202 H 0.30257 0.29109 0.35118 0.0
C1203 C 0.28376 0.30799 0.25579 0.0
C1204 C 0.69293 0.99215 0.21783 0.0
C1205 C 0.70399 0.0153 0.22895 0.0
H1206 H 0.6763 0.95812 0.24453 0.0
C1207 C 0.70741 0.02179 0.27725 0.0
H1208 H 0.68999 0.98665 0.18093 0.0
C1209 C 0.6989 0.00546 0.31361 0.0
C1210 C 0.68753 0.9823 0.30248 0.0
H1211 H 0.71567 0.03949 0.28692 0.0
H1212 H 0.70092 0.01094 0.35049 0.0
C1213 C 0.68516 0.97583 0.25422 0.0
C1214 C 0.99216 0.69465 0.31467 0.0
C1215 C 0.01532 0.70569 0.30354 0.0
H1216 H 0.95813 0.67794 0.288 0.0
C1217 C 0.02181 0.70904 0.25523 0.0
H1218 H 0.98665 0.69177 0.35157 0.0
C1219 C 0.00548 0.70045 0.21889 0.0
C1220 C 0.98231 0.68909 0.23003 0.0
H1221 H 0.03952 0.71729 0.24556 0.0
H1222 H 0.01097 0.70241 0.18202 0.0
C1223 C 0.97584 0.6868 0.27829 0.0
loop_
_geom_bond_atom_site_label_1
_geom_bond_atom_site_label_2
_geom_bond_distance
_geom_bond_site_symmetry_2
_ccdc_geom_bond_type
O0 Cd1 2.223 . S
O0 C8 1.315 . S
Cd1 O0 2.223 . S
Cd1 O4 2.297 . S
Cd1 O5 2.439 . S
Cd1 O11 2.240 . S
Cd2 O3 2.240 . S
Cd2 O10 2.223 . S
Cd2 O12 2.297 . S
Cd2 O13 2.439 . S
O3 Cd2 2.240 . S
O3 C8 1.279 . S
O4 Cd1 2.297 . S
O4 C6 1.247 . S
O5 Cd1 2.439 . S
O5 C6 1.208 . S
C6 O4 1.247 . S
C6 O5 1.208 . S
C7 O12 1.247 . S
C7 O13 1.208 . S
C8 O0 1.315 . S
C8 O3 1.279 . S
C9 O10 1.315 . S
C9 O11 1.279 . S
O10 Cd2 2.223 . S
O10 C9 1.315 . S
O11 Cd1 2.240 . S
O11 C9 1.279 . S
O12 Cd2 2.297 . S
O12 C7 1.247 . S
O13 Cd2 2.439 . S
O13 C7 1.208 . S
O14 Cd15 2.223 . S
O14 C22 1.315 . S
Cd15 O14 2.223 . S
Cd15 O18 2.297 . S
Cd15 O19 2.439 . S
Cd15 O25 2.240 . S
Cd16 O17 2.240 . S
Cd16 O24 2.223 . S
Cd16 O26 2.297 . S
Cd16 O27 2.439 . S
O17 Cd16 2.240 . S
O17 C22 1.279 . S
O18 Cd15 2.297 . S
O18 C20 1.247 . S
O19 Cd15 2.439 . S
O19 C20 1.208 . S
C20 O18 1.247 . S
C20 O19 1.208 . S
C21 O26 1.247 . S
C21 O27 1.208 . S
C22 O14 1.315 . S
C22 O17 1.279 . S
C23 O24 1.315 . S
C23 O25 1.279 . S
O24 Cd16 2.223 . S
O24 C23 1.315 . S
O25 Cd15 2.240 . S
O25 C23 1.279 . S
O26 Cd16 2.297 . S
O26 C21 1.247 . S
O27 Cd16 2.439 . S
O27 C21 1.208 . S
O28 Cd29 2.223 . S
O28 C36 1.315 . S
Cd29 O28 2.223 . S
Cd29 O32 2.297 . S
Cd29 O33 2.439 . S
Cd29 O39 2.240 . S
Cd30 O31 2.240 . S
Cd30 O38 2.223 . S
Cd30 O40 2.297 . S
Cd30 O41 2.439 . S
O31 Cd30 2.240 . S
O31 C36 1.279 . S
O32 Cd29 2.297 . S
O32 C34 1.247 . S
O33 Cd29 2.439 . S
O33 C34 1.208 . S
C34 O32 1.247 . S
C34 O33 1.208 . S
C35 O40 1.247 . S
C35 O41 1.208 . S
C36 O28 1.315 . S
C36 O31 1.279 . S
C37 O38 1.315 . S
C37 O39 1.279 . S
O38 Cd30 2.223 . S
O38 C37 1.315 . S
O39 Cd29 2.240 . S
O39 C37 1.279 . S
O40 Cd30 2.297 . S
O40 C35 1.247 . S
O41 Cd30 2.439 . S
O41 C35 1.208 . S
O42 Cd43 2.223 . S
O42 C50 1.315 . S
Cd43 O42 2.223 . S
Cd43 O46 2.297 . S
Cd43 O47 2.439 . S
Cd43 O53 2.240 . S
Cd44 O45 2.240 . S
Cd44 O52 2.223 . S
Cd44 O54 2.297 . S
Cd44 O55 2.439 . S
O45 Cd44 2.240 . S
O45 C50 1.279 . S
O46 Cd43 2.297 . S
O46 C48 1.247 . S
O47 Cd43 2.439 . S
O47 C48 1.208 . S
C48 O46 1.247 . S
C48 O47 1.208 . S
C49 O54 1.247 . S
C49 O55 1.208 . S
C50 O42 1.315 . S
C50 O45 1.279 . S
C51 O52 1.315 . S
C51 O53 1.279 . S
O52 Cd44 2.223 . S
O52 C51 1.315 . S
O53 Cd43 2.240 . S
O53 C51 1.279 . S
O54 Cd44 2.297 . S
O54 C49 1.247 . S
O55 Cd44 2.439 . S
O55 C49 1.208 . S
O56 Cd57 2.223 . S
O56 C64 1.315 . S
Cd57 O56 2.223 . S
Cd57 O60 2.297 . S
Cd57 O61 2.439 . S
Cd57 O67 2.240 . S
Cd58 O59 2.240 . S
Cd58 O66 2.223 . S
Cd58 O68 2.297 . S
Cd58 O69 2.439 . S
O59 Cd58 2.240 . S
O59 C64 1.279 . S
O60 Cd57 2.297 . S
O60 C62 1.247 . S
O61 Cd57 2.439 . S
O61 C62 1.208 . S
C62 O60 1.247 . S
C62 O61 1.208 . S
C63 O68 1.247 . S
C63 O69 1.208 . S
C64 O56 1.315 . S
C64 O59 1.279 . S
C65 O66 1.315 . S
C65 O67 1.279 . S
O66 Cd58 2.223 . S
O66 C65 1.315 . S
O67 Cd57 2.240 . S
O67 C65 1.279 . S
O68 Cd58 2.297 . S
O68 C63 1.247 . S
O69 Cd58 2.439 . S
O69 C63 1.208 . S
O70 Cd71 2.223 . S
O70 C78 1.315 . S
Cd71 O70 2.223 . S
Cd71 O74 2.297 . S
Cd71 O75 2.439 . S
Cd71 O81 2.240 . S
Cd72 O73 2.240 . S
Cd72 O80 2.223 . S
Cd72 O82 2.297 . S
Cd72 O83 2.439 . S
O73 Cd72 2.240 . S
O73 C78 1.279 . S
O74 Cd71 2.297 . S
O74 C76 1.247 . S
O75 Cd71 2.439 . S
O75 C76 1.208 . S
C76 O74 1.247 . S
C76 O75 1.208 . S
C77 O82 1.247 . S
C77 O83 1.208 . S
C78 O70 1.315 . S
C78 O73 1.279 . S
C79 O80 1.315 . S
C79 O81 1.279 . S
O80 Cd72 2.223 . S
O80 C79 1.315 . S
O81 Cd71 2.240 . S
O81 C79 1.279 . S
O82 Cd72 2.297 . S
O82 C77 1.247 . S
O83 Cd72 2.439 . S
O83 C77 1.208 . S
O84 Cd85 2.223 . S
O84 C92 1.315 . S
Cd85 O84 2.223 . S
Cd85 O88 2.297 . S
Cd85 O89 2.439 . S
Cd85 O95 2.240 . S
Cd86 O87 2.240 . S
Cd86 O94 2.223 . S
Cd86 O96 2.297 . S
Cd86 O97 2.439 . S
O87 Cd86 2.240 . S
O87 C92 1.279 . S
O88 Cd85 2.297 . S
O88 C90 1.247 . S
O89 Cd85 2.439 . S
O89 C90 1.208 . S
C90 O88 1.247 . S
C90 O89 1.208 . S
C91 O96 1.247 . S
C91 O97 1.208 . S
C92 O84 1.315 . S
C92 O87 1.279 . S
C93 O94 1.315 . S
C93 O95 1.279 . S
O94 Cd86 2.223 . S
O94 C93 1.315 . S
O95 Cd85 2.240 . S
O95 C93 1.279 . S
O96 Cd86 2.297 . S
O96 C91 1.247 . S
O97 Cd86 2.439 . S
O97 C91 1.208 . S
O98 Cd99 2.223 . S
O98 C106 1.315 . S
Cd99 O98 2.223 . S
Cd99 O102 2.297 . S
Cd99 O103 2.439 . S
Cd99 O109 2.240 . S
Cd100 O101 2.240 . S
Cd100 O108 2.223 . S
Cd100 O110 2.297 . S
Cd100 O111 2.439 . S
O101 Cd100 2.240 . S
O101 C106 1.279 . S
O102 Cd99 2.297 . S
O102 C104 1.247 . S
O103 Cd99 2.439 . S
O103 C104 1.208 . S
C104 O102 1.247 . S
C104 O103 1.208 . S
C105 O110 1.247 . S
C105 O111 1.208 . S
C106 O98 1.315 . S
C106 O101 1.279 . S
C107 O108 1.315 . S
C107 O109 1.279 . S
O108 Cd100 2.223 . S
O108 C107 1.315 . S
O109 Cd99 2.240 . S
O109 C107 1.279 . S
O110 Cd100 2.297 . S
O110 C105 1.247 . S
O111 Cd100 2.439 . S
O111 C105 1.208 . S
O112 Cd113 2.223 . S
O112 C120 1.315 . S
Cd113 O112 2.223 . S
Cd113 O116 2.297 . S
Cd113 O117 2.439 . S
Cd113 O123 2.240 . S
Cd114 O115 2.240 . S
Cd114 O122 2.223 . S
Cd114 O124 2.297 . S
Cd114 O125 2.439 . S
O115 Cd114 2.240 . S
O115 C120 1.279 . S
O116 Cd113 2.297 . S
O116 C118 1.247 . S
O117 Cd113 2.439 . S
O117 C118 1.208 . S
C118 O116 1.247 . S
C118 O117 1.208 . S
C119 O124 1.247 . S
C119 O125 1.208 . S
C120 O112 1.315 . S
C120 O115 1.279 . S
C121 O122 1.315 . S
C121 O123 1.279 . S
O122 Cd114 2.223 . S
O122 C121 1.315 . S
O123 Cd113 2.240 . S
O123 C121 1.279 . S
O124 Cd114 2.297 . S
O124 C119 1.247 . S
O125 Cd114 2.439 . S
O125 C119 1.208 . S
O126 Cd127 2.223 . S
O126 C134 1.315 . S
Cd127 O126 2.223 . S
Cd127 O130 2.297 . S
Cd127 O131 2.439 . S
Cd127 O137 2.240 . S
Cd128 O129 2.240 . S
Cd128 O136 2.223 . S
Cd128 O138 2.297 . S
Cd128 O139 2.439 . S
O129 Cd128 2.240 . S
O129 C134 1.279 . S
O130 Cd127 2.297 . S
O130 C132 1.247 . S
O131 Cd127 2.439 . S
O131 C132 1.208 . S
C132 O130 1.247 . S
C132 O131 1.208 . S
C133 O138 1.247 . S
C133 O139 1.208 . S
C134 O126 1.315 . S
C134 O129 1.279 . S
C135 O136 1.315 . S
C135 O137 1.279 . S
O136 Cd128 2.223 . S
O136 C135 1.315 . S
O137 Cd127 2.240 . S
O137 C135 1.279 . S
O138 Cd128 2.297 . S
O138 C133 1.247 . S
O139 Cd128 2.439 . S
O139 C133 1.208 . S
O140 Cd141 2.223 . S
O140 C148 1.315 . S
Cd141 O140 2.223 . S
Cd141 O144 2.297 . S
Cd141 O145 2.439 . S
Cd141 O151 2.240 . S
Cd142 O143 2.240 . S
Cd142 O150 2.223 . S
Cd142 O152 2.297 . S
Cd142 O153 2.439 . S
O143 Cd142 2.240 . S
O143 C148 1.279 . S
O144 Cd141 2.297 . S
O144 C146 1.247 . S
O145 Cd141 2.439 . S
O145 C146 1.208 . S
C146 O144 1.247 . S
C146 O145 1.208 . S
C147 O152 1.247 . S
C147 O153 1.208 . S
C148 O140 1.315 . S
C148 O143 1.279 . S
C149 O150 1.315 . S
C149 O151 1.279 . S
O150 Cd142 2.223 . S
O150 C149 1.315 . S
O151 Cd141 2.240 . S
O151 C149 1.279 . S
O152 Cd142 2.297 . S
O152 C147 1.247 . S
O153 Cd142 2.439 . S
O153 C147 1.208 . S
O154 Cd155 2.223 . S
O154 C162 1.315 . S
Cd155 O154 2.223 . S
Cd155 O158 2.297 . S
Cd155 O159 2.439 . S
Cd155 O165 2.240 . S
Cd156 O157 2.240 . S
Cd156 O164 2.223 . S
Cd156 O166 2.297 . S
Cd156 O167 2.439 . S
O157 Cd156 2.240 . S
O157 C162 1.279 . S
O158 Cd155 2.297 . S
O158 C160 1.247 . S
O159 Cd155 2.439 . S
O159 C160 1.208 . S
C160 O158 1.247 . S
C160 O159 1.208 . S
C161 O166 1.247 . S
C161 O167 1.208 . S
C162 O154 1.315 . S
C162 O157 1.279 . S
C163 O164 1.315 . S
C163 O165 1.279 . S
O164 Cd156 2.223 . S
O164 C163 1.315 . S
O165 Cd155 2.240 . S
O165 C163 1.279 . S
O166 Cd156 2.297 . S
O166 C161 1.247 . S
O167 Cd156 2.439 . S
O167 C161 1.208 . S
O168 Cd169 2.223 . S
O168 C176 1.315 1_655 S
Cd169 O168 2.223 . S
Cd169 O172 2.297 . S
Cd169 O173 2.439 1_655 S
Cd169 O179 2.240 . S
Cd170 O171 2.240 . S
Cd170 O178 2.223 . S
Cd170 O180 2.297 . S
Cd170 O181 2.439 . S
O171 Cd170 2.240 . S
O171 C176 1.279 . S
O172 Cd169 2.297 . S
O172 C174 1.247 1_655 S
O173 Cd169 2.439 1_455 S
O173 C174 1.208 . S
C174 O172 1.247 1_455 S
C174 O173 1.208 . S
C175 O180 1.247 . S
C175 O181 1.208 . S
C176 O168 1.315 1_455 S
C176 O171 1.279 . S
C177 O178 1.315 1_655 S
C177 O179 1.279 . S
O178 Cd170 2.223 . S
O178 C177 1.315 1_455 S
O179 Cd169 2.240 . S
O179 C177 1.279 . S
O180 Cd170 2.297 . S
O180 C175 1.247 . S
O181 Cd170 2.439 . S
O181 C175 1.208 . S
O182 Cd183 2.223 . S
O182 C190 1.315 . S
Cd183 O182 2.223 . S
Cd183 O186 2.297 . S
Cd183 O187 2.439 . S
Cd183 O193 2.240 . S
Cd184 O185 2.240 . S
Cd184 O192 2.223 . S
Cd184 O194 2.297 . S
Cd184 O195 2.439 . S
O185 Cd184 2.240 . S
O185 C190 1.279 . S
O186 Cd183 2.297 . S
O186 C188 1.247 . S
O187 Cd183 2.439 . S
O187 C188 1.208 . S
C188 O186 1.247 . S
C188 O187 1.208 . S
C189 O194 1.247 . S
C189 O195 1.208 . S
C190 O182 1.315 . S
C190 O185 1.279 . S
C191 O192 1.315 . S
C191 O193 1.279 . S
O192 Cd184 2.223 . S
O192 C191 1.315 . S
O193 Cd183 2.240 . S
O193 C191 1.279 . S
O194 Cd184 2.297 . S
O194 C189 1.247 . S
O195 Cd184 2.439 . S
O195 C189 1.208 . S
O196 Cd197 2.223 . S
O196 C204 1.315 1_545 S
Cd197 O196 2.223 . S
Cd197 O200 2.297 . S
Cd197 O201 2.439 1_545 S
Cd197 O207 2.240 . S
Cd198 O199 2.240 . S
Cd198 O206 2.223 . S
Cd198 O208 2.297 . S
Cd198 O209 2.439 . S
O199 Cd198 2.240 . S
O199 C204 1.279 . S
O200 Cd197 2.297 . S
O200 C202 1.247 1_545 S
O201 Cd197 2.439 1_565 S
O201 C202 1.208 . S
C202 O200 1.247 1_565 S
C202 O201 1.208 . S
C203 O208 1.247 . S
C203 O209 1.208 . S
C204 O196 1.315 1_565 S
C204 O199 1.279 . S
C205 O206 1.315 1_545 S
C205 O207 1.279 . S
O206 Cd198 2.223 . S
O206 C205 1.315 1_565 S
O207 Cd197 2.240 . S
O207 C205 1.279 . S
O208 Cd198 2.297 . S
O208 C203 1.247 . S
O209 Cd198 2.439 . S
O209 C203 1.208 . S
O210 Cd211 2.223 . S
O210 C218 1.315 . S
Cd211 O210 2.223 . S
Cd211 O214 2.297 . S
Cd211 O215 2.439 . S
Cd211 O221 2.240 . S
Cd212 O213 2.240 . S
Cd212 O220 2.223 . S
Cd212 O222 2.297 . S
Cd212 O223 2.439 . S
O213 Cd212 2.240 . S
O213 C218 1.279 . S
O214 Cd211 2.297 . S
O214 C216 1.247 . S
O215 Cd211 2.439 . S
O215 C216 1.208 . S
C216 O214 1.247 . S
C216 O215 1.208 . S
C217 O222 1.247 . S
C217 O223 1.208 . S
C218 O210 1.315 . S
C218 O213 1.279 . S
C219 O220 1.315 . S
C219 O221 1.279 . S
O220 Cd212 2.223 . S
O220 C219 1.315 . S
O221 Cd211 2.240 . S
O221 C219 1.279 . S
O222 Cd212 2.297 . S
O222 C217 1.247 . S
O223 Cd212 2.439 . S
O223 C217 1.208 . S
O224 Cd225 2.223 . S
O224 C232 1.315 . S
Cd225 O224 2.223 . S
Cd225 O228 2.297 . S
Cd225 O229 2.439 . S
Cd225 O235 2.240 . S
Cd226 O227 2.240 . S
Cd226 O234 2.223 . S
Cd226 O236 2.297 . S
Cd226 O237 2.439 . S
O227 Cd226 2.240 . S
O227 C232 1.279 . S
O228 Cd225 2.297 . S
O228 C230 1.247 . S
O229 Cd225 2.439 . S
O229 C230 1.208 . S
C230 O228 1.247 . S
C230 O229 1.208 . S
C231 O236 1.247 . S
C231 O237 1.208 . S
C232 O224 1.315 . S
C232 O227 1.279 . S
C233 O234 1.315 . S
C233 O235 1.279 . S
O234 Cd226 2.223 . S
O234 C233 1.315 . S
O235 Cd225 2.240 . S
O235 C233 1.279 . S
O236 Cd226 2.297 . S
O236 C231 1.247 . S
O237 Cd226 2.439 . S
O237 C231 1.208 . S
O238 Cd239 2.223 . S
O238 C246 1.315 . S
Cd239 O238 2.223 . S
Cd239 O242 2.297 . S
Cd239 O243 2.439 . S
Cd239 O249 2.240 . S
Cd240 O241 2.240 . S
Cd240 O248 2.223 . S
Cd240 O250 2.297 . S
Cd240 O251 2.439 . S
O241 Cd240 2.240 . S
O241 C246 1.279 . S
O242 Cd239 2.297 . S
O242 C244 1.247 . S
O243 Cd239 2.439 . S
O243 C244 1.208 . S
C244 O242 1.247 . S
C244 O243 1.208 . S
C245 O250 1.247 . S
C245 O251 1.208 . S
C246 O238 1.315 . S
C246 O241 1.279 . S
C247 O248 1.315 . S
C247 O249 1.279 . S
O248 Cd240 2.223 . S
O248 C247 1.315 . S
O249 Cd239 2.240 . S
O249 C247 1.279 . S
O250 Cd240 2.297 . S
O250 C245 1.247 . S
O251 Cd240 2.439 . S
O251 C245 1.208 . S
O252 Cd253 2.223 . S
O252 C260 1.315 . S
Cd253 O252 2.223 . S
Cd253 O256 2.297 . S
Cd253 O257 2.439 . S
Cd253 O263 2.240 . S
Cd254 O255 2.240 . S
Cd254 O262 2.223 . S
Cd254 O264 2.297 . S
Cd254 O265 2.439 . S
O255 Cd254 2.240 . S
O255 C260 1.279 . S
O256 Cd253 2.297 . S
O256 C258 1.247 . S
O257 Cd253 2.439 . S
O257 C258 1.208 . S
C258 O256 1.247 . S
C258 O257 1.208 . S
C259 O264 1.247 . S
C259 O265 1.208 . S
C260 O252 1.315 . S
C260 O255 1.279 . S
C261 O262 1.315 . S
C261 O263 1.279 . S
O262 Cd254 2.223 . S
O262 C261 1.315 . S
O263 Cd253 2.240 . S
O263 C261 1.279 . S
O264 Cd254 2.297 . S
O264 C259 1.247 . S
O265 Cd254 2.439 . S
O265 C259 1.208 . S
O266 Cd267 2.223 . S
O266 C274 1.315 . S
Cd267 O266 2.223 . S
Cd267 O270 2.297 . S
Cd267 O271 2.439 . S
Cd267 O277 2.240 . S
Cd268 O269 2.240 . S
Cd268 O276 2.223 . S
Cd268 O278 2.297 . S
Cd268 O279 2.439 . S
O269 Cd268 2.240 . S
O269 C274 1.279 . S
O270 Cd267 2.297 . S
O270 C272 1.247 . S
O271 Cd267 2.439 . S
O271 C272 1.208 . S
C272 O270 1.247 . S
C272 O271 1.208 . S
C273 O278 1.247 . S
C273 O279 1.208 . S
C274 O266 1.315 . S
C274 O269 1.279 . S
C275 O276 1.315 . S
C275 O277 1.279 . S
O276 Cd268 2.223 . S
O276 C275 1.315 . S
O277 Cd267 2.240 . S
O277 C275 1.279 . S
O278 Cd268 2.297 . S
O278 C273 1.247 . S
O279 Cd268 2.439 . S
O279 C273 1.208 . S
O280 Cd281 2.223 . S
O280 C288 1.315 . S
Cd281 O280 2.223 . S
Cd281 O284 2.297 . S
Cd281 O285 2.439 . S
Cd281 O291 2.240 . S
Cd282 O283 2.240 . S
Cd282 O290 2.223 . S
Cd282 O292 2.297 . S
Cd282 O293 2.439 . S
O283 Cd282 2.240 . S
O283 C288 1.279 . S
O284 Cd281 2.297 . S
O284 C286 1.247 . S
O285 Cd281 2.439 . S
O285 C286 1.208 . S
C286 O284 1.247 . S
C286 O285 1.208 . S
C287 O292 1.247 . S
C287 O293 1.208 . S
C288 O280 1.315 . S
C288 O283 1.279 . S
C289 O290 1.315 . S
C289 O291 1.279 . S
O290 Cd282 2.223 . S
O290 C289 1.315 . S
O291 Cd281 2.240 . S
O291 C289 1.279 . S
O292 Cd282 2.297 . S
O292 C287 1.247 . S
O293 Cd282 2.439 . S
O293 C287 1.208 . S
O294 Cd295 2.223 . S
O294 C302 1.315 1_545 S
Cd295 O294 2.223 . S
Cd295 O298 2.297 . S
Cd295 O299 2.439 1_545 S
Cd295 O305 2.240 . S
Cd296 O297 2.240 . S
Cd296 O304 2.223 . S
Cd296 O306 2.297 . S
Cd296 O307 2.439 1_554 S
O297 Cd296 2.240 . S
O297 C302 1.279 . S
O298 Cd295 2.297 . S
O298 C300 1.247 1_545 S
O299 Cd295 2.439 1_565 S
O299 C300 1.208 . S
C300 O298 1.247 1_565 S
C300 O299 1.208 . S
C301 O306 1.247 1_556 S
C301 O307 1.208 . S
C302 O294 1.315 1_565 S
C302 O297 1.279 . S
C303 O304 1.315 1_545 S
C303 O305 1.279 . S
O304 Cd296 2.223 . S
O304 C303 1.315 1_565 S
O305 Cd295 2.240 . S
O305 C303 1.279 . S
O306 Cd296 2.297 . S
O306 C301 1.247 1_554 S
O307 Cd296 2.439 1_556 S
O307 C301 1.208 . S
O308 Cd309 2.223 . S
O308 C316 1.315 1_655 S
Cd309 O308 2.223 . S
Cd309 O312 2.297 . S
Cd309 O313 2.439 1_655 S
Cd309 O319 2.240 . S
Cd310 O311 2.240 . S
Cd310 O318 2.223 . S
Cd310 O320 2.297 . S
Cd310 O321 2.439 1_554 S
O311 Cd310 2.240 . S
O311 C316 1.279 . S
O312 Cd309 2.297 . S
O312 C314 1.247 1_655 S
O313 Cd309 2.439 1_455 S
O313 C314 1.208 . S
C314 O312 1.247 1_455 S
C314 O313 1.208 . S
C315 O320 1.247 1_556 S
C315 O321 1.208 . S
C316 O308 1.315 1_455 S
C316 O311 1.279 . S
C317 O318 1.315 1_655 S
C317 O319 1.279 . S
O318 Cd310 2.223 . S
O318 C317 1.315 1_455 S
O319 Cd309 2.240 . S
O319 C317 1.279 . S
O320 Cd310 2.297 . S
O320 C315 1.247 1_554 S
O321 Cd310 2.439 1_556 S
O321 C315 1.208 . S
O322 Cd323 2.223 . S
O322 C330 1.315 . S
Cd323 O322 2.223 . S
Cd323 O326 2.297 . S
Cd323 O327 2.439 . S
Cd323 O333 2.240 . S
Cd324 O325 2.240 . S
Cd324 O332 2.223 . S
Cd324 O334 2.297 . S
Cd324 O335 2.439 1_554 S
O325 Cd324 2.240 . S
O325 C330 1.279 . S
O326 Cd323 2.297 . S
O326 C328 1.247 . S
O327 Cd323 2.439 . S
O327 C328 1.208 . S
C328 O326 1.247 . S
C328 O327 1.208 . S
C329 O334 1.247 1_556 S
C329 O335 1.208 . S
C330 O322 1.315 . S
C330 O325 1.279 . S
C331 O332 1.315 . S
C331 O333 1.279 . S
O332 Cd324 2.223 . S
O332 C331 1.315 . S
O333 Cd323 2.240 . S
O333 C331 1.279 . S
O334 Cd324 2.297 . S
O334 C329 1.247 1_554 S
O335 Cd324 2.439 1_556 S
O335 C329 1.208 . S
O336 Cd337 2.223 . S
O336 C344 1.315 . S
Cd337 O336 2.223 . S
Cd337 O340 2.297 . S
Cd337 O341 2.439 . S
Cd337 O347 2.240 . S
Cd338 O339 2.240 . S
Cd338 O346 2.223 . S
Cd338 O348 2.297 . S
Cd338 O349 2.439 . S
O339 Cd338 2.240 . S
O339 C344 1.279 . S
O340 Cd337 2.297 . S
O340 C342 1.247 . S
O341 Cd337 2.439 . S
O341 C342 1.208 . S
C342 O340 1.247 . S
C342 O341 1.208 . S
C343 O348 1.247 . S
C343 O349 1.208 . S
C344 O336 1.315 . S
C344 O339 1.279 . S
C345 O346 1.315 . S
C345 O347 1.279 . S
O346 Cd338 2.223 . S
O346 C345 1.315 . S
O347 Cd337 2.240 . S
O347 C345 1.279 . S
O348 Cd338 2.297 . S
O348 C343 1.247 . S
O349 Cd338 2.439 . S
O349 C343 1.208 . S
O350 Cd351 2.223 . S
O350 C358 1.315 . S
Cd351 O350 2.223 . S
Cd351 O354 2.297 . S
Cd351 O355 2.439 . S
Cd351 O361 2.240 . S
Cd352 O353 2.240 . S
Cd352 O360 2.223 . S
Cd352 O362 2.297 . S
Cd352 O363 2.439 . S
O353 Cd352 2.240 . S
O353 C358 1.279 . S
O354 Cd351 2.297 . S
O354 C356 1.247 . S
O355 Cd351 2.439 . S
O355 C356 1.208 . S
C356 O354 1.247 . S
C356 O355 1.208 . S
C357 O362 1.247 . S
C357 O363 1.208 . S
C358 O350 1.315 . S
C358 O353 1.279 . S
C359 O360 1.315 . S
C359 O361 1.279 . S
O360 Cd352 2.223 . S
O360 C359 1.315 . S
O361 Cd351 2.240 . S
O361 C359 1.279 . S
O362 Cd352 2.297 . S
O362 C357 1.247 . S
O363 Cd352 2.439 . S
O363 C357 1.208 . S
O364 Cd365 2.223 . S
O364 C372 1.315 . S
Cd365 O364 2.223 . S
Cd365 O368 2.297 . S
Cd365 O369 2.439 . S
Cd365 O375 2.240 . S
Cd366 O367 2.240 . S
Cd366 O374 2.223 . S
Cd366 O376 2.297 . S
Cd366 O377 2.439 . S
O367 Cd366 2.240 . S
O367 C372 1.279 . S
O368 Cd365 2.297 . S
O368 C370 1.247 . S
O369 Cd365 2.439 . S
O369 C370 1.208 . S
C370 O368 1.247 . S
C370 O369 1.208 . S
C371 O376 1.247 . S
C371 O377 1.208 . S
C372 O364 1.315 . S
C372 O367 1.279 . S
C373 O374 1.315 . S
C373 O375 1.279 . S
O374 Cd366 2.223 . S
O374 C373 1.315 . S
O375 Cd365 2.240 . S
O375 C373 1.279 . S
O376 Cd366 2.297 . S
O376 C371 1.247 . S
O377 Cd366 2.439 . S
O377 C371 1.208 . S
O378 Cd379 2.223 . S
O378 C386 1.315 1_565 S
Cd379 O378 2.223 . S
Cd379 O382 2.297 . S
Cd379 O383 2.439 1_565 S
Cd379 O389 2.240 . S
Cd380 O381 2.240 . S
Cd380 O388 2.223 . S
Cd380 O390 2.297 . S
Cd380 O391 2.439 1_556 S
O381 Cd380 2.240 . S
O381 C386 1.279 . S
O382 Cd379 2.297 . S
O382 C384 1.247 1_565 S
O383 Cd379 2.439 1_545 S
O383 C384 1.208 . S
C384 O382 1.247 1_545 S
C384 O383 1.208 . S
C385 O390 1.247 1_554 S
C385 O391 1.208 . S
C386 O378 1.315 1_545 S
C386 O381 1.279 . S
C387 O388 1.315 1_565 S
C387 O389 1.279 . S
O388 Cd380 2.223 . S
O388 C387 1.315 1_545 S
O389 Cd379 2.240 . S
O389 C387 1.279 . S
O390 Cd380 2.297 . S
O390 C385 1.247 1_556 S
O391 Cd380 2.439 1_554 S
O391 C385 1.208 . S
O392 Cd393 2.223 . S
O392 C400 1.315 1_455 S
Cd393 O392 2.223 . S
Cd393 O396 2.297 . S
Cd393 O397 2.439 1_455 S
Cd393 O403 2.240 . S
Cd394 O395 2.240 . S
Cd394 O402 2.223 . S
Cd394 O404 2.297 . S
Cd394 O405 2.439 1_556 S
O395 Cd394 2.240 . S
O395 C400 1.279 . S
O396 Cd393 2.297 . S
O396 C398 1.247 1_455 S
O397 Cd393 2.439 1_655 S
O397 C398 1.208 . S
C398 O396 1.247 1_655 S
C398 O397 1.208 . S
C399 O404 1.247 1_554 S
C399 O405 1.208 . S
C400 O392 1.315 1_655 S
C400 O395 1.279 . S
C401 O402 1.315 1_455 S
C401 O403 1.279 . S
O402 Cd394 2.223 . S
O402 C401 1.315 1_655 S
O403 Cd393 2.240 . S
O403 C401 1.279 . S
O404 Cd394 2.297 . S
O404 C399 1.247 1_556 S
O405 Cd394 2.439 1_554 S
O405 C399 1.208 . S
O406 Cd407 2.223 . S
O406 C414 1.315 . S
Cd407 O406 2.223 . S
Cd407 O410 2.297 . S
Cd407 O411 2.439 . S
Cd407 O417 2.240 . S
Cd408 O409 2.240 . S
Cd408 O416 2.223 . S
Cd408 O418 2.297 . S
Cd408 O419 2.439 1_556 S
O409 Cd408 2.240 . S
O409 C414 1.279 . S
O410 Cd407 2.297 . S
O410 C412 1.247 . S
O411 Cd407 2.439 . S
O411 C412 1.208 . S
C412 O410 1.247 . S
C412 O411 1.208 . S
C413 O418 1.247 1_554 S
C413 O419 1.208 . S
C414 O406 1.315 . S
C414 O409 1.279 . S
C415 O416 1.315 . S
C415 O417 1.279 . S
O416 Cd408 2.223 . S
O416 C415 1.315 . S
O417 Cd407 2.240 . S
O417 C415 1.279 . S
O418 Cd408 2.297 . S
O418 C413 1.247 1_556 S
O419 Cd408 2.439 1_554 S
O419 C413 1.208 . S
O420 Cd421 2.223 . S
O420 C428 1.315 1_455 S
Cd421 O420 2.223 . S
Cd421 O424 2.297 . S
Cd421 O425 2.439 1_455 S
Cd421 O431 2.240 . S
Cd422 O423 2.240 . S
Cd422 O430 2.223 . S
Cd422 O432 2.297 . S
Cd422 O433 2.439 . S
O423 Cd422 2.240 . S
O423 C428 1.279 . S
O424 Cd421 2.297 . S
O424 C426 1.247 1_455 S
O425 Cd421 2.439 1_655 S
O425 C426 1.208 . S
C426 O424 1.247 1_655 S
C426 O425 1.208 . S
C427 O432 1.247 . S
C427 O433 1.208 . S
C428 O420 1.315 1_655 S
C428 O423 1.279 . S
C429 O430 1.315 1_455 S
C429 O431 1.279 . S
O430 Cd422 2.223 . S
O430 C429 1.315 1_655 S
O431 Cd421 2.240 . S
O431 C429 1.279 . S
O432 Cd422 2.297 . S
O432 C427 1.247 . S
O433 Cd422 2.439 . S
O433 C427 1.208 . S
O434 Cd435 2.223 . S
O434 C442 1.315 . S
Cd435 O434 2.223 . S
Cd435 O438 2.297 . S
Cd435 O439 2.439 . S
Cd435 O445 2.240 . S
Cd436 O437 2.240 . S
Cd436 O444 2.223 . S
Cd436 O446 2.297 . S
Cd436 O447 2.439 . S
O437 Cd436 2.240 . S
O437 C442 1.279 . S
O438 Cd435 2.297 . S
O438 C440 1.247 . S
O439 Cd435 2.439 . S
O439 C440 1.208 . S
C440 O438 1.247 . S
C440 O439 1.208 . S
C441 O446 1.247 . S
C441 O447 1.208 . S
C442 O434 1.315 . S
C442 O437 1.279 . S
C443 O444 1.315 . S
C443 O445 1.279 . S
O444 Cd436 2.223 . S
O444 C443 1.315 . S
O445 Cd435 2.240 . S
O445 C443 1.279 . S
O446 Cd436 2.297 . S
O446 C441 1.247 . S
O447 Cd436 2.439 . S
O447 C441 1.208 . S
O448 Cd449 2.223 . S
O448 C456 1.315 1_565 S
Cd449 O448 2.223 . S
Cd449 O452 2.297 . S
Cd449 O453 2.439 1_565 S
Cd449 O459 2.240 . S
Cd450 O451 2.240 . S
Cd450 O458 2.223 . S
Cd450 O460 2.297 . S
Cd450 O461 2.439 . S
O451 Cd450 2.240 . S
O451 C456 1.279 . S
O452 Cd449 2.297 . S
O452 C454 1.247 1_565 S
O453 Cd449 2.439 1_545 S
O453 C454 1.208 . S
C454 O452 1.247 1_545 S
C454 O453 1.208 . S
C455 O460 1.247 . S
C455 O461 1.208 . S
C456 O448 1.315 1_545 S
C456 O451 1.279 . S
C457 O458 1.315 1_565 S
C457 O459 1.279 . S
O458 Cd450 2.223 . S
O458 C457 1.315 1_545 S
O459 Cd449 2.240 . S
O459 C457 1.279 . S
O460 Cd450 2.297 . S
O460 C455 1.247 . S
O461 Cd450 2.439 . S
O461 C455 1.208 . S
O462 Cd463 2.223 . S
O462 C470 1.315 . S
Cd463 O462 2.223 . S
Cd463 O466 2.297 . S
Cd463 O467 2.439 . S
Cd463 O473 2.240 . S
Cd464 O465 2.240 . S
Cd464 O472 2.223 . S
Cd464 O474 2.297 . S
Cd464 O475 2.439 . S
O465 Cd464 2.240 . S
O465 C470 1.279 . S
O466 Cd463 2.297 . S
O466 C468 1.247 . S
O467 Cd463 2.439 . S
O467 C468 1.208 . S
C468 O466 1.247 . S
C468 O467 1.208 . S
C469 O474 1.247 . S
C469 O475 1.208 . S
C470 O462 1.315 . S
C470 O465 1.279 . S
C471 O472 1.315 . S
C471 O473 1.279 . S
O472 Cd464 2.223 . S
O472 C471 1.315 . S
O473 Cd463 2.240 . S
O473 C471 1.279 . S
O474 Cd464 2.297 . S
O474 C469 1.247 . S
O475 Cd464 2.439 . S
O475 C469 1.208 . S
O476 Cd477 2.223 . S
O476 C484 1.315 . S
Cd477 O476 2.223 . S
Cd477 O480 2.297 . S
Cd477 O481 2.439 . S
Cd477 O487 2.240 . S
Cd478 O479 2.240 . S
Cd478 O486 2.223 . S
Cd478 O488 2.297 . S
Cd478 O489 2.439 . S
O479 Cd478 2.240 . S
O479 C484 1.279 . S
O480 Cd477 2.297 . S
O480 C482 1.247 . S
O481 Cd477 2.439 . S
O481 C482 1.208 . S
C482 O480 1.247 . S
C482 O481 1.208 . S
C483 O488 1.247 . S
C483 O489 1.208 . S
C484 O476 1.315 . S
C484 O479 1.279 . S
C485 O486 1.315 . S
C485 O487 1.279 . S
O486 Cd478 2.223 . S
O486 C485 1.315 . S
O487 Cd477 2.240 . S
O487 C485 1.279 . S
O488 Cd478 2.297 . S
O488 C483 1.247 . S
O489 Cd478 2.439 . S
O489 C483 1.208 . S
O490 Cd491 2.223 . S
O490 C498 1.315 . S
Cd491 O490 2.223 . S
Cd491 O494 2.297 . S
Cd491 O495 2.439 . S
Cd491 O501 2.240 . S
Cd492 O493 2.240 . S
Cd492 O500 2.223 . S
Cd492 O502 2.297 . S
Cd492 O503 2.439 . S
O493 Cd492 2.240 . S
O493 C498 1.279 . S
O494 Cd491 2.297 . S
O494 C496 1.247 . S
O495 Cd491 2.439 . S
O495 C496 1.208 . S
C496 O494 1.247 . S
C496 O495 1.208 . S
C497 O502 1.247 . S
C497 O503 1.208 . S
C498 O490 1.315 . S
C498 O493 1.279 . S
C499 O500 1.315 . S
C499 O501 1.279 . S
O500 Cd492 2.223 . S
O500 C499 1.315 . S
O501 Cd491 2.240 . S
O501 C499 1.279 . S
O502 Cd492 2.297 . S
O502 C497 1.247 . S
O503 Cd492 2.439 . S
O503 C497 1.208 . S
C504 C505 1.387 . S
C504 H508 0.950 . S
C504 C513 1.390 1_565 S
C505 C504 1.387 . S
C505 C507 1.387 . S
H506 C513 0.950 . S
C507 C505 1.387 . S
C507 C509 1.390 1_565 S
C507 H511 0.950 . S
H508 C504 0.950 . S
C509 C507 1.390 1_545 S
C509 C510 1.387 . S
C509 H512 0.950 . S
C510 C509 1.387 . S
C510 C513 1.387 . S
H511 C507 0.950 . S
H512 C509 0.950 . S
C513 C504 1.390 1_545 S
C513 H506 0.950 . S
C513 C510 1.387 . S
C514 C515 1.387 . S
C514 H518 0.950 . S
C514 C523 1.390 1_455 S
C515 C514 1.387 . S
C515 C517 1.387 . S
H516 C523 0.950 . S
C517 C515 1.387 . S
C517 C519 1.390 1_455 S
C517 H521 0.950 . S
H518 C514 0.950 . S
C519 C517 1.390 1_655 S
C519 C520 1.387 . S
C519 H522 0.950 . S
C520 C519 1.387 . S
C520 C523 1.387 . S
H521 C517 0.950 . S
H522 C519 0.950 . S
C523 C514 1.390 1_655 S
C523 H516 0.950 . S
C523 C520 1.387 . S
C524 C525 1.387 . S
C524 H528 0.950 . S
C524 C533 1.390 . S
C525 C524 1.387 . S
C525 C527 1.387 . S
H526 C533 0.950 . S
C527 C525 1.387 . S
C527 C529 1.390 . S
C527 H531 0.950 . S
H528 C524 0.950 . S
C529 C527 1.390 . S
C529 C530 1.387 . S
C529 H532 0.950 . S
C530 C529 1.387 . S
C530 C533 1.387 . S
H531 C527 0.950 . S
H532 C529 0.950 . S
C533 C524 1.390 . S
C533 H526 0.950 . S
C533 C530 1.387 . S
C534 C535 1.387 . S
C534 H538 0.950 . S
C534 C543 1.390 1_565 S
C535 C534 1.387 . S
C535 C537 1.387 . S
H536 C543 0.950 . S
C537 C535 1.387 . S
C537 C539 1.390 1_565 S
C537 H541 0.950 . S
H538 C534 0.950 . S
C539 C537 1.390 1_545 S
C539 C540 1.387 . S
C539 H542 0.950 . S
C540 C539 1.387 . S
C540 C543 1.387 . S
H541 C537 0.950 . S
H542 C539 0.950 . S
C543 C534 1.390 1_545 S
C543 H536 0.950 . S
C543 C540 1.387 . S
C544 C545 1.387 . S
C544 H548 0.950 . S
C544 C553 1.390 1_455 S
C545 C544 1.387 . S
C545 C547 1.387 . S
H546 C553 0.950 . S
C547 C545 1.387 . S
C547 C549 1.390 1_455 S
C547 H551 0.950 . S
H548 C544 0.950 . S
C549 C547 1.390 1_655 S
C549 C550 1.387 . S
C549 H552 0.950 . S
C550 C549 1.387 . S
C550 C553 1.387 . S
H551 C547 0.950 . S
H552 C549 0.950 . S
C553 C544 1.390 1_655 S
C553 H546 0.950 . S
C553 C550 1.387 . S
C554 C555 1.387 . S
C554 H558 0.950 . S
C554 C563 1.390 . S
C555 C554 1.387 . S
C555 C557 1.387 . S
H556 C563 0.950 . S
C557 C555 1.387 . S
C557 C559 1.390 . S
C557 H561 0.950 . S
H558 C554 0.950 . S
C559 C557 1.390 . S
C559 C560 1.387 . S
C559 H562 0.950 . S
C560 C559 1.387 . S
C560 C563 1.387 . S
H561 C557 0.950 . S
H562 C559 0.950 . S
C563 C554 1.390 . S
C563 H556 0.950 . S
C563 C560 1.387 . S
C564 C565 1.387 . S
C564 H568 0.950 1_655 S
C564 C573 1.390 . S
C565 C564 1.387 . S
C565 C567 1.387 . S
H566 C573 0.950 . S
C567 C565 1.387 . S
C567 C569 1.390 . S
C567 H571 0.950 . S
H568 C564 0.950 1_455 S
C569 C567 1.390 . S
C569 C570 1.387 . S
C569 H572 0.950 . S
C570 C569 1.387 . S
C570 C573 1.387 . S
H571 C567 0.950 . S
H572 C569 0.950 . S
C573 C564 1.390 . S
C573 H566 0.950 . S
C573 C570 1.387 . S
C574 C575 1.387 . S
C574 H578 0.950 . S
C574 C583 1.390 . S
C575 C574 1.387 . S
C575 C577 1.387 . S
H576 C583 0.950 . S
C577 C575 1.387 . S
C577 C579 1.390 . S
C577 H581 0.950 . S
H578 C574 0.950 . S
C579 C577 1.390 . S
C579 C580 1.387 . S
C579 H582 0.950 . S
C580 C579 1.387 . S
C580 C583 1.387 . S
H581 C577 0.950 . S
H582 C579 0.950 . S
C583 C574 1.390 . S
C583 H576 0.950 . S
C583 C580 1.387 . S
C584 C585 1.387 . S
C584 H588 0.950 . S
C584 C593 1.390 . S
C585 C584 1.387 . S
C585 C587 1.387 . S
H586 C593 0.950 . S
C587 C585 1.387 . S
C587 C589 1.390 . S
C587 H591 0.950 . S
H588 C584 0.950 . S
C589 C587 1.390 . S
C589 C590 1.387 . S
C589 H592 0.950 . S
C590 C589 1.387 . S
C590 C593 1.387 . S
H591 C587 0.950 . S
H592 C589 0.950 . S
C593 C584 1.390 . S
C593 H586 0.950 . S
C593 C590 1.387 . S
C594 C595 1.387 . S
C594 H598 0.950 . S
C594 C603 1.390 . S
C595 C594 1.387 . S
C595 C597 1.387 . S
H596 C603 0.950 . S
C597 C595 1.387 . S
C597 C599 1.390 . S
C597 H601 0.950 . S
H598 C594 0.950 . S
C599 C597 1.390 . S
C599 C600 1.387 . S
C599 H602 0.950 . S
C600 C599 1.387 . S
C600 C603 1.387 . S
H601 C597 0.950 . S
H602 C599 0.950 . S
C603 C594 1.390 . S
C603 H596 0.950 . S
C603 C600 1.387 . S
C604 C605 1.387 . S
C604 H608 0.950 . S
C604 C613 1.390 . S
C605 C604 1.387 . S
C605 C607 1.387 . S
H606 C613 0.950 . S
C607 C605 1.387 . S
C607 C609 1.390 . S
C607 H611 0.950 . S
H608 C604 0.950 . S
C609 C607 1.390 . S
C609 C610 1.387 . S
C609 H612 0.950 . S
C610 C609 1.387 . S
C610 C613 1.387 . S
H611 C607 0.950 . S
H612 C609 0.950 . S
C613 C604 1.390 . S
C613 H606 0.950 . S
C613 C610 1.387 . S
C614 C615 1.387 . S
C614 H618 0.950 . S
C614 C623 1.390 . S
C615 C614 1.387 . S
C615 C617 1.387 . S
H616 C623 0.950 . S
C617 C615 1.387 . S
C617 C619 1.390 . S
C617 H621 0.950 . S
H618 C614 0.950 . S
C619 C617 1.390 . S
C619 C620 1.387 . S
C619 H622 0.950 . S
C620 C619 1.387 . S
C620 C623 1.387 . S
H621 C617 0.950 . S
H622 C619 0.950 . S
C623 C614 1.390 . S
C623 H616 0.950 . S
C623 C620 1.387 . S
C624 C625 1.387 . S
C624 H628 0.950 . S
C624 C633 1.390 . S
C625 C624 1.387 . S
C625 C627 1.387 . S
H626 C633 0.950 . S
C627 C625 1.387 . S
C627 C629 1.390 . S
C627 H631 0.950 . S
H628 C624 0.950 . S
C629 C627 1.390 . S
C629 C630 1.387 . S
C629 H632 0.950 . S
C630 C629 1.387 . S
C630 C633 1.387 . S
H631 C627 0.950 . S
H632 C629 0.950 . S
C633 C624 1.390 . S
C633 H626 0.950 . S
C633 C630 1.387 . S
C634 C635 1.387 . S
C634 H638 0.950 . S
C634 C643 1.390 . S
C635 C634 1.387 . S
C635 C637 1.387 . S
H636 C643 0.950 . S
C637 C635 1.387 . S
C637 C639 1.390 . S
C637 H641 0.950 . S
H638 C634 0.950 . S
C639 C637 1.390 . S
C639 C640 1.387 . S
C639 H642 0.950 . S
C640 C639 1.387 . S
C640 C643 1.387 . S
H641 C637 0.950 . S
H642 C639 0.950 . S
C643 C634 1.390 . S
C643 H636 0.950 . S
C643 C640 1.387 . S
C644 C645 1.387 . S
C644 H648 0.950 . S
C644 C653 1.390 . S
C645 C644 1.387 . S
C645 C647 1.387 . S
H646 C653 0.950 . S
C647 C645 1.387 . S
C647 C649 1.390 . S
C647 H651 0.950 . S
H648 C644 0.950 . S
C649 C647 1.390 . S
C649 C650 1.387 . S
C649 H652 0.950 . S
C650 C649 1.387 . S
C650 C653 1.387 . S
H651 C647 0.950 . S
H652 C649 0.950 . S
C653 C644 1.390 . S
C653 H646 0.950 . S
C653 C650 1.387 . S
C654 C655 1.387 . S
C654 H658 0.950 . S
C654 C663 1.390 . S
C655 C654 1.387 . S
C655 C657 1.387 . S
H656 C663 0.950 1_655 S
C657 C655 1.387 . S
C657 C659 1.390 . S
C657 H661 0.950 . S
H658 C654 0.950 . S
C659 C657 1.390 . S
C659 C660 1.387 . S
C659 H662 0.950 . S
C660 C659 1.387 . S
C660 C663 1.387 . S
H661 C657 0.950 . S
H662 C659 0.950 . S
C663 C654 1.390 . S
C663 H656 0.950 1_455 S
C663 C660 1.387 . S
C664 C665 1.387 . S
C664 H668 0.950 . S
C664 C673 1.390 . S
C665 C664 1.387 . S
C665 C667 1.387 . S
H666 C673 0.950 . S
C667 C665 1.387 . S
C667 C669 1.390 . S
C667 H671 0.950 . S
H668 C664 0.950 . S
C669 C667 1.390 . S
C669 C670 1.387 . S
C669 H672 0.950 . S
C670 C669 1.387 . S
C670 C673 1.387 . S
H671 C667 0.950 . S
H672 C669 0.950 . S
C673 C664 1.390 . S
C673 H666 0.950 . S
C673 C670 1.387 . S
C674 C675 1.387 . S
C674 H678 0.950 . S
C674 C683 1.390 . S
C675 C674 1.387 . S
C675 C677 1.387 . S
H676 C683 0.950 . S
C677 C675 1.387 . S
C677 C679 1.390 . S
C677 H681 0.950 . S
H678 C674 0.950 . S
C679 C677 1.390 . S
C679 C680 1.387 . S
C679 H682 0.950 . S
C680 C679 1.387 . S
C680 C683 1.387 . S
H681 C677 0.950 . S
H682 C679 0.950 . S
C683 C674 1.390 . S
C683 H676 0.950 . S
C683 C680 1.387 . S
C684 C685 1.387 . S
C684 H688 0.950 . S
C684 C693 1.390 . S
C685 C684 1.387 . S
C685 C687 1.387 . S
H686 C693 0.950 . S
C687 C685 1.387 . S
C687 C689 1.390 . S
C687 H691 0.950 . S
H688 C684 0.950 . S
C689 C687 1.390 . S
C689 C690 1.387 . S
C689 H692 0.950 . S
C690 C689 1.387 . S
C690 C693 1.387 . S
H691 C687 0.950 . S
H692 C689 0.950 . S
C693 C684 1.390 . S
C693 H686 0.950 . S
C693 C690 1.387 . S
C694 C695 1.387 . S
C694 H698 0.950 . S
C694 C703 1.390 . S
C695 C694 1.387 . S
C695 C697 1.387 . S
H696 C703 0.950 . S
C697 C695 1.387 . S
C697 C699 1.390 . S
C697 H701 0.950 . S
H698 C694 0.950 . S
C699 C697 1.390 . S
C699 C700 1.387 . S
C699 H702 0.950 . S
C700 C699 1.387 . S
C700 C703 1.387 . S
H701 C697 0.950 . S
H702 C699 0.950 . S
C703 C694 1.390 . S
C703 H696 0.950 . S
C703 C700 1.387 . S
C704 C705 1.387 . S
C704 H708 0.950 . S
C704 C713 1.390 . S
C705 C704 1.387 . S
C705 C707 1.387 . S
H706 C713 0.950 . S
C707 C705 1.387 . S
C707 C709 1.390 . S
C707 H711 0.950 . S
H708 C704 0.950 . S
C709 C707 1.390 . S
C709 C710 1.387 . S
C709 H712 0.950 . S
C710 C709 1.387 . S
C710 C713 1.387 . S
H711 C707 0.950 . S
H712 C709 0.950 . S
C713 C704 1.390 . S
C713 H706 0.950 . S
C713 C710 1.387 . S
C714 C715 1.387 . S
C714 H718 0.950 . S
C714 C723 1.390 . S
C715 C714 1.387 . S
C715 C717 1.387 . S
H716 C723 0.950 . S
C717 C715 1.387 . S
C717 C719 1.390 . S
C717 H721 0.950 . S
H718 C714 0.950 . S
C719 C717 1.390 . S
C719 C720 1.387 . S
C719 H722 0.950 . S
C720 C719 1.387 . S
C720 C723 1.387 . S
H721 C717 0.950 . S
H722 C719 0.950 . S
C723 C714 1.390 . S
C723 H716 0.950 . S
C723 C720 1.387 . S
C724 C725 1.387 . S
C724 H728 0.950 . S
C724 C733 1.390 . S
C725 C724 1.387 . S
C725 C727 1.387 . S
H726 C733 0.950 . S
C727 C725 1.387 . S
C727 C729 1.390 . S
C727 H731 0.950 . S
H728 C724 0.950 . S
C729 C727 1.390 . S
C729 C730 1.387 . S
C729 H732 0.950 . S
C730 C729 1.387 . S
C730 C733 1.387 . S
H731 C727 0.950 . S
H732 C729 0.950 . S
C733 C724 1.390 . S
C733 H726 0.950 . S
C733 C730 1.387 . S
C734 C735 1.387 . S
C734 H738 0.950 . S
C734 C743 1.390 . S
C735 C734 1.387 . S
C735 C737 1.387 . S
H736 C743 0.950 . S
C737 C735 1.387 . S
C737 C739 1.390 . S
C737 H741 0.950 . S
H738 C734 0.950 . S
C739 C737 1.390 . S
C739 C740 1.387 . S
C739 H742 0.950 . S
C740 C739 1.387 . S
C740 C743 1.387 . S
H741 C737 0.950 . S
H742 C739 0.950 . S
C743 C734 1.390 . S
C743 H736 0.950 . S
C743 C740 1.387 . S
C744 C745 1.387 . S
C744 H748 0.950 . S
C744 C753 1.390 . S
C745 C744 1.387 . S
C745 C747 1.387 . S
H746 C753 0.950 . S
C747 C745 1.387 . S
C747 C749 1.390 . S
C747 H751 0.950 . S
H748 C744 0.950 . S
C749 C747 1.390 . S
C749 C750 1.387 . S
C749 H752 0.950 . S
C750 C749 1.387 . S
C750 C753 1.387 . S
H751 C747 0.950 . S
H752 C749 0.950 . S
C753 C744 1.390 . S
C753 H746 0.950 . S
C753 C750 1.387 . S
C754 C755 1.387 . S
C754 H758 0.950 . S
C754 C763 1.390 . S
C755 C754 1.387 . S
C755 C757 1.387 . S
H756 C763 0.950 . S
C757 C755 1.387 . S
C757 C759 1.390 . S
C757 H761 0.950 . S
H758 C754 0.950 . S
C759 C757 1.390 . S
C759 C760 1.387 . S
C759 H762 0.950 . S
C760 C759 1.387 . S
C760 C763 1.387 . S
H761 C757 0.950 . S
H762 C759 0.950 . S
C763 C754 1.390 . S
C763 H756 0.950 . S
C763 C760 1.387 . S
C764 C765 1.387 . S
C764 H768 0.950 . S
C764 C773 1.390 . S
C765 C764 1.387 . S
C765 C767 1.387 . S
H766 C773 0.950 . S
C767 C765 1.387 . S
C767 C769 1.390 . S
C767 H771 0.950 . S
H768 C764 0.950 . S
C769 C767 1.390 . S
C769 C770 1.387 . S
C769 H772 0.950 . S
C770 C769 1.387 . S
C770 C773 1.387 . S
H771 C767 0.950 . S
H772 C769 0.950 . S
C773 C764 1.390 . S
C773 H766 0.950 . S
C773 C770 1.387 . S
C774 C775 1.387 . S
C774 H778 0.950 . S
C774 C783 1.390 . S
C775 C774 1.387 . S
C775 C777 1.387 . S
H776 C783 0.950 . S
C777 C775 1.387 . S
C777 C779 1.390 . S
C777 H781 0.950 . S
H778 C774 0.950 . S
C779 C777 1.390 . S
C779 C780 1.387 . S
C779 H782 0.950 . S
C780 C779 1.387 . S
C780 C783 1.387 . S
H781 C777 0.950 . S
H782 C779 0.950 . S
C783 C774 1.390 . S
C783 H776 0.950 . S
C783 C780 1.387 . S
C784 C785 1.387 . S
C784 H788 0.950 . S
C784 C793 1.390 . S
C785 C784 1.387 . S
C785 C787 1.387 . S
H786 C793 0.950 . S
C787 C785 1.387 . S
C787 C789 1.390 . S
C787 H791 0.950 . S
H788 C784 0.950 . S
C789 C787 1.390 . S
C789 C790 1.387 . S
C789 H792 0.950 . S
C790 C789 1.387 . S
C790 C793 1.387 . S
H791 C787 0.950 . S
H792 C789 0.950 . S
C793 C784 1.390 . S
C793 H786 0.950 . S
C793 C790 1.387 . S
C794 C795 1.387 . S
C794 H798 0.950 . S
C794 C803 1.390 . S
C795 C794 1.387 . S
C795 C797 1.387 . S
H796 C803 0.950 . S
C797 C795 1.387 . S
C797 C799 1.390 . S
C797 H801 0.950 . S
H798 C794 0.950 . S
C799 C797 1.390 . S
C799 C800 1.387 . S
C799 H802 0.950 . S
C800 C799 1.387 . S
C800 C803 1.387 . S
H801 C797 0.950 . S
H802 C799 0.950 . S
C803 C794 1.390 . S
C803 H796 0.950 . S
C803 C800 1.387 . S
C804 C805 1.387 1_655 S
C804 H808 0.950 . S
C804 C813 1.390 . S
C805 C804 1.387 1_455 S
C805 C807 1.387 . S
H806 C813 0.950 . S
C807 C805 1.387 . S
C807 C809 1.390 . S
C807 H811 0.950 . S
H808 C804 0.950 . S
C809 C807 1.390 . S
C809 C810 1.387 1_455 S
C809 H812 0.950 . S
C810 C809 1.387 1_655 S
C810 C813 1.387 . S
H811 C807 0.950 . S
H812 C809 0.950 . S
C813 C804 1.390 . S
C813 H806 0.950 . S
C813 C810 1.387 . S
C814 C815 1.387 . S
C814 H818 0.950 . S
C814 C823 1.390 . S
C815 C814 1.387 . S
C815 C817 1.387 . S
H816 C823 0.950 . S
C817 C815 1.387 . S
C817 C819 1.390 . S
C817 H821 0.950 . S
H818 C814 0.950 . S
C819 C817 1.390 . S
C819 C820 1.387 . S
C819 H822 0.950 . S
C820 C819 1.387 . S
C820 C823 1.387 . S
H821 C817 0.950 . S
H822 C819 0.950 . S
C823 C814 1.390 . S
C823 H816 0.950 . S
C823 C820 1.387 . S
C824 C825 1.387 . S
C824 H828 0.950 . S
C824 C833 1.390 1_545 S
C825 C824 1.387 . S
C825 C827 1.387 . S
H826 C833 0.950 . S
C827 C825 1.387 . S
C827 C829 1.390 1_545 S
C827 H831 0.950 . S
H828 C824 0.950 . S
C829 C827 1.390 1_565 S
C829 C830 1.387 . S
C829 H832 0.950 . S
C830 C829 1.387 . S
C830 C833 1.387 . S
H831 C827 0.950 . S
H832 C829 0.950 . S
C833 C824 1.390 1_565 S
C833 H826 0.950 . S
C833 C830 1.387 . S
C834 C835 1.387 . S
C834 H838 0.950 . S
C834 C843 1.390 1_565 S
C835 C834 1.387 . S
C835 C837 1.387 . S
H836 C843 0.950 . S
C837 C835 1.387 . S
C837 C839 1.390 1_565 S
C837 H841 0.950 . S
H838 C834 0.950 . S
C839 C837 1.390 1_545 S
C839 C840 1.387 . S
C839 H842 0.950 . S
C840 C839 1.387 . S
C840 C843 1.387 . S
H841 C837 0.950 . S
H842 C839 0.950 . S
C843 C834 1.390 1_545 S
C843 H836 0.950 . S
C843 C840 1.387 . S
C844 C845 1.389 1_455 S
C844 H848 0.955 . S
C844 C853 1.396 . S
C845 C844 1.389 1_655 S
C845 C847 1.387 . S
H846 C853 0.950 . S
C847 C845 1.387 . S
C847 C849 1.397 . S
C847 H851 0.950 . S
H848 C844 0.955 . S
C849 C847 1.397 . S
C849 C850 1.389 1_655 S
C849 H852 0.955 . S
C850 C849 1.389 1_455 S
C850 C853 1.387 . S
H851 C847 0.950 . S
H852 C849 0.955 . S
C853 C844 1.396 . S
C853 H846 0.950 . S
C853 C850 1.387 . S
C854 C855 1.387 . S
C854 H858 0.950 . S
C854 C863 1.390 . S
C855 C854 1.387 . S
C855 C857 1.387 . S
H856 C863 0.950 . S
C857 C855 1.387 . S
C857 C859 1.390 . S
C857 H861 0.950 . S
H858 C854 0.950 . S
C859 C857 1.390 . S
C859 C860 1.387 . S
C859 H862 0.950 . S
C860 C859 1.387 . S
C860 C863 1.387 . S
H861 C857 0.950 . S
H862 C859 0.950 . S
C863 C854 1.390 . S
C863 H856 0.950 . S
C863 C860 1.387 . S
C864 C865 1.387 . S
C864 H868 0.950 . S
C864 C873 1.390 . S
C865 C864 1.387 . S
C865 C867 1.387 . S
H866 C873 0.950 . S
C867 C865 1.387 . S
C867 C869 1.390 . S
C867 H871 0.950 . S
H868 C864 0.950 . S
C869 C867 1.390 . S
C869 C870 1.387 . S
C869 H872 0.950 . S
C870 C869 1.387 . S
C870 C873 1.387 . S
H871 C867 0.950 . S
H872 C869 0.950 . S
C873 C864 1.390 . S
C873 H866 0.950 . S
C873 C870 1.387 . S
C874 C875 1.387 . S
C874 H878 0.950 . S
C874 C883 1.390 . S
C875 C874 1.387 . S
C875 C877 1.387 . S
H876 C883 0.950 . S
C877 C875 1.387 . S
C877 C879 1.390 . S
C877 H881 0.950 . S
H878 C874 0.950 . S
C879 C877 1.390 . S
C879 C880 1.387 . S
C879 H882 0.950 . S
C880 C879 1.387 . S
C880 C883 1.387 . S
H881 C877 0.950 . S
H882 C879 0.950 . S
C883 C874 1.390 . S
C883 H876 0.950 . S
C883 C880 1.387 . S
C884 C885 1.387 . S
C884 H888 0.950 . S
C884 C893 1.390 . S
C885 C884 1.387 . S
C885 C887 1.387 . S
H886 C893 0.950 . S
C887 C885 1.387 . S
C887 C889 1.390 . S
C887 H891 0.950 . S
H888 C884 0.950 . S
C889 C887 1.390 . S
C889 C890 1.387 . S
C889 H892 0.950 . S
C890 C889 1.387 . S
C890 C893 1.387 . S
H891 C887 0.950 . S
H892 C889 0.950 . S
C893 C884 1.390 . S
C893 H886 0.950 . S
C893 C890 1.387 . S
C894 C895 1.387 . S
C894 H898 0.950 . S
C894 C903 1.390 . S
C895 C894 1.387 . S
C895 C897 1.387 . S
H896 C903 0.950 . S
C897 C895 1.387 . S
C897 C899 1.390 . S
C897 H901 0.950 . S
H898 C894 0.950 . S
C899 C897 1.390 . S
C899 C900 1.387 . S
C899 H902 0.950 . S
C900 C899 1.387 . S
C900 C903 1.387 . S
H901 C897 0.950 . S
H902 C899 0.950 . S
C903 C894 1.390 . S
C903 H896 0.950 . S
C903 C900 1.387 . S
C904 C905 1.387 . S
C904 H908 0.950 . S
C904 C913 1.390 . S
C905 C904 1.387 . S
C905 C907 1.387 . S
H906 C913 0.950 . S
C907 C905 1.387 . S
C907 C909 1.390 . S
C907 H911 0.950 . S
H908 C904 0.950 . S
C909 C907 1.390 . S
C909 C910 1.387 . S
C909 H912 0.950 . S
C910 C909 1.387 . S
C910 C913 1.387 . S
H911 C907 0.950 . S
H912 C909 0.950 . S
C913 C904 1.390 . S
C913 H906 0.950 . S
C913 C910 1.387 . S
C914 C915 1.387 . S
C914 H918 0.950 . S
C914 C923 1.390 . S
C915 C914 1.387 . S
C915 C917 1.387 . S
H916 C923 0.950 . S
C917 C915 1.387 . S
C917 C919 1.390 . S
C917 H921 0.950 . S
H918 C914 0.950 . S
C919 C917 1.390 . S
C919 C920 1.387 . S
C919 H922 0.950 . S
C920 C919 1.387 . S
C920 C923 1.387 . S
H921 C917 0.950 . S
H922 C919 0.950 . S
C923 C914 1.390 . S
C923 H916 0.950 . S
C923 C920 1.387 . S
C924 C925 1.387 . S
C924 H928 0.950 . S
C924 C933 1.390 . S
C925 C924 1.387 . S
C925 C927 1.387 . S
H926 C933 0.950 . S
C927 C925 1.387 . S
C927 C929 1.390 . S
C927 H931 0.950 . S
H928 C924 0.950 . S
C929 C927 1.390 . S
C929 C930 1.387 . S
C929 H932 0.950 . S
C930 C929 1.387 . S
C930 C933 1.387 . S
H931 C927 0.950 . S
H932 C929 0.950 . S
C933 C924 1.390 . S
C933 H926 0.950 . S
C933 C930 1.387 . S
C934 C935 1.387 . S
C934 H938 0.950 . S
C934 C943 1.390 . S
C935 C934 1.387 . S
C935 C937 1.387 . S
H936 C943 0.950 . S
C937 C935 1.387 . S
C937 C939 1.390 . S
C937 H941 0.950 . S
H938 C934 0.950 . S
C939 C937 1.390 . S
C939 C940 1.387 . S
C939 H942 0.950 . S
C940 C939 1.387 . S
C940 C943 1.387 . S
H941 C937 0.950 . S
H942 C939 0.950 . S
C943 C934 1.390 . S
C943 H936 0.950 . S
C943 C940 1.387 . S
C944 C945 1.387 . S
C944 H948 0.950 . S
C944 C953 1.390 . S
C945 C944 1.387 . S
C945 C947 1.387 . S
H946 C953 0.950 . S
C947 C945 1.387 . S
C947 C949 1.390 . S
C947 H951 0.950 . S
H948 C944 0.950 . S
C949 C947 1.390 . S
C949 C950 1.387 . S
C949 H952 0.950 . S
C950 C949 1.387 . S
C950 C953 1.387 . S
H951 C947 0.950 . S
H952 C949 0.950 . S
C953 C944 1.390 . S
C953 H946 0.950 . S
C953 C950 1.387 . S
C954 C955 1.387 . S
C954 H958 0.950 . S
C954 C963 1.390 . S
C955 C954 1.387 . S
C955 C957 1.387 . S
H956 C963 0.950 . S
C957 C955 1.387 . S
C957 C959 1.390 . S
C957 H961 0.950 . S
H958 C954 0.950 . S
C959 C957 1.390 . S
C959 C960 1.387 . S
C959 H962 0.950 . S
C960 C959 1.387 . S
C960 C963 1.387 . S
H961 C957 0.950 . S
H962 C959 0.950 . S
C963 C954 1.390 . S
C963 H956 0.950 . S
C963 C960 1.387 . S
C964 C965 1.387 . S
C964 H968 0.950 . S
C964 C973 1.390 . S
C965 C964 1.387 . S
C965 C967 1.387 . S
H966 C973 0.950 . S
C967 C965 1.387 . S
C967 C969 1.390 . S
C967 H971 0.950 . S
H968 C964 0.950 . S
C969 C967 1.390 . S
C969 C970 1.387 . S
C969 H972 0.950 . S
C970 C969 1.387 . S
C970 C973 1.387 . S
H971 C967 0.950 . S
H972 C969 0.950 . S
C973 C964 1.390 . S
C973 H966 0.950 . S
C973 C970 1.387 . S
C974 C975 1.387 . S
C974 H978 0.950 . S
C974 C983 1.390 . S
C975 C974 1.387 . S
C975 C977 1.387 . S
H976 C983 0.950 . S
C977 C975 1.387 . S
C977 C979 1.390 . S
C977 H981 0.950 . S
H978 C974 0.950 . S
C979 C977 1.390 . S
C979 C980 1.387 . S
C979 H982 0.950 . S
C980 C979 1.387 . S
C980 C983 1.387 . S
H981 C977 0.950 . S
H982 C979 0.950 . S
C983 C974 1.390 . S
C983 H976 0.950 . S
C983 C980 1.387 . S
C984 C985 1.387 1_655 S
C984 H988 0.950 . S
C984 C993 1.390 . S
C985 C984 1.387 1_455 S
C985 C987 1.387 . S
H986 C993 0.950 . S
C987 C985 1.387 . S
C987 C989 1.390 . S
C987 H991 0.950 . S
H988 C984 0.950 . S
C989 C987 1.390 . S
C989 C990 1.387 1_455 S
C989 H992 0.950 . S
C990 C989 1.387 1_655 S
C990 C993 1.387 . S
H991 C987 0.950 . S
H992 C989 0.950 . S
C993 C984 1.390 . S
C993 H986 0.950 . S
C993 C990 1.387 . S
C994 C995 1.387 . S
C994 H998 0.950 . S
C994 C1003 1.390 . S
C995 C994 1.387 . S
C995 C997 1.387 . S
H996 C1003 0.950 . S
C997 C995 1.387 . S
C997 C999 1.390 . S
C997 H1001 0.950 . S
H998 C994 0.950 . S
C999 C997 1.390 . S
C999 C1000 1.387 . S
C999 H1002 0.950 . S
C1000 C999 1.387 . S
C1000 C1003 1.387 . S
H1001 C997 0.950 . S
H1002 C999 0.950 . S
C1003 C994 1.390 . S
C1003 H996 0.950 . S
C1003 C1000 1.387 . S
C1004 C1005 1.387 1_565 S
C1004 H1008 0.950 . S
C1004 C1013 1.390 . S
C1005 C1004 1.387 1_545 S
C1005 C1007 1.387 . S
H1006 C1013 0.950 . S
C1007 C1005 1.387 . S
C1007 C1009 1.390 . S
C1007 H1011 0.950 . S
H1008 C1004 0.950 . S
C1009 C1007 1.390 . S
C1009 C1010 1.387 1_545 S
C1009 H1012 0.950 . S
C1010 C1009 1.387 1_565 S
C1010 C1013 1.387 . S
H1011 C1007 0.950 . S
H1012 C1009 0.950 . S
C1013 C1004 1.390 . S
C1013 H1006 0.950 . S
C1013 C1010 1.387 . S
C1014 C1015 1.387 1_565 S
C1014 H1018 0.950 . S
C1014 C1023 1.390 . S
C1015 C1014 1.387 1_545 S
C1015 C1017 1.387 1_556 S
H1016 C1023 0.950 . S
C1017 C1015 1.387 1_554 S
C1017 C1019 1.390 . S
C1017 H1021 0.950 . S
H1018 C1014 0.950 . S
C1019 C1017 1.390 . S
C1019 C1020 1.387 1_545 S
C1019 H1022 0.950 . S
C1020 C1019 1.387 1_565 S
C1020 C1023 1.387 1_554 S
H1021 C1017 0.950 . S
H1022 C1019 0.950 . S
C1023 C1014 1.390 . S
C1023 H1016 0.950 . S
C1023 C1020 1.387 1_556 S
C1024 C1025 1.387 1_655 S
C1024 H1028 0.950 . S
C1024 C1033 1.390 . S
C1025 C1024 1.387 1_455 S
C1025 C1027 1.387 1_554 S
H1026 C1033 0.950 . S
C1027 C1025 1.387 1_556 S
C1027 C1029 1.390 . S
C1027 H1031 0.950 . S
H1028 C1024 0.950 . S
C1029 C1027 1.390 . S
C1029 C1030 1.387 1_455 S
C1029 H1032 0.950 . S
C1030 C1029 1.387 1_655 S
C1030 C1033 1.387 1_556 S
H1031 C1027 0.950 . S
H1032 C1029 0.950 . S
C1033 C1024 1.390 . S
C1033 H1026 0.950 . S
C1033 C1030 1.387 1_554 S
C1034 C1035 1.387 1_556 S
C1034 H1038 0.950 . S
C1034 C1043 1.390 . S
C1035 C1034 1.387 1_554 S
C1035 C1037 1.387 . S
H1036 C1043 0.950 . S
C1037 C1035 1.387 . S
C1037 C1039 1.390 . S
C1037 H1041 0.950 . S
H1038 C1034 0.950 . S
C1039 C1037 1.390 . S
C1039 C1040 1.387 1_554 S
C1039 H1042 0.950 . S
C1040 C1039 1.387 1_556 S
C1040 C1043 1.387 . S
H1041 C1037 0.950 . S
H1042 C1039 0.950 . S
C1043 C1034 1.390 . S
C1043 H1036 0.950 . S
C1043 C1040 1.387 . S
C1044 C1045 1.387 . S
C1044 H1048 0.950 . S
C1044 C1053 1.390 . S
C1045 C1044 1.387 . S
C1045 C1047 1.387 . S
H1046 C1053 0.950 . S
C1047 C1045 1.387 . S
C1047 C1049 1.390 . S
C1047 H1051 0.950 . S
H1048 C1044 0.950 . S
C1049 C1047 1.390 . S
C1049 C1050 1.387 . S
C1049 H1052 0.950 . S
C1050 C1049 1.387 . S
C1050 C1053 1.387 . S
H1051 C1047 0.950 . S
H1052 C1049 0.950 . S
C1053 C1044 1.390 . S
C1053 H1046 0.950 . S
C1053 C1050 1.387 . S
C1054 C1055 1.387 . S
C1054 H1058 0.950 . S
C1054 C1063 1.390 . S
C1055 C1054 1.387 . S
C1055 C1057 1.387 . S
H1056 C1063 0.950 . S
C1057 C1055 1.387 . S
C1057 C1059 1.390 . S
C1057 H1061 0.950 . S
H1058 C1054 0.950 . S
C1059 C1057 1.390 . S
C1059 C1060 1.387 . S
C1059 H1062 0.950 . S
C1060 C1059 1.387 . S
C1060 C1063 1.387 . S
H1061 C1057 0.950 . S
H1062 C1059 0.950 . S
C1063 C1054 1.390 . S
C1063 H1056 0.950 . S
C1063 C1060 1.387 . S
C1064 C1065 1.387 . S
C1064 H1068 0.950 . S
C1064 C1073 1.390 . S
C1065 C1064 1.387 . S
C1065 C1067 1.387 . S
H1066 C1073 0.950 . S
C1067 C1065 1.387 . S
C1067 C1069 1.390 . S
C1067 H1071 0.950 . S
H1068 C1064 0.950 . S
C1069 C1067 1.390 . S
C1069 C1070 1.387 . S
C1069 H1072 0.950 . S
C1070 C1069 1.387 . S
C1070 C1073 1.387 . S
H1071 C1067 0.950 . S
H1072 C1069 0.950 . S
C1073 C1064 1.390 . S
C1073 H1066 0.950 . S
C1073 C1070 1.387 . S
C1074 C1075 1.387 . S
C1074 H1078 0.950 . S
C1074 C1083 1.390 . S
C1075 C1074 1.387 . S
C1075 C1077 1.387 . S
H1076 C1083 0.950 . S
C1077 C1075 1.387 . S
C1077 C1079 1.390 . S
C1077 H1081 0.950 . S
H1078 C1074 0.950 . S
C1079 C1077 1.390 . S
C1079 C1080 1.387 . S
C1079 H1082 0.950 . S
C1080 C1079 1.387 . S
C1080 C1083 1.387 . S
H1081 C1077 0.950 . S
H1082 C1079 0.950 . S
C1083 C1074 1.390 . S
C1083 H1076 0.950 . S
C1083 C1080 1.387 . S
C1084 C1085 1.387 . S
C1084 H1088 0.950 . S
C1084 C1093 1.390 . S
C1085 C1084 1.387 . S
C1085 C1087 1.387 . S
H1086 C1093 0.950 . S
C1087 C1085 1.387 . S
C1087 C1089 1.390 . S
C1087 H1091 0.950 . S
H1088 C1084 0.950 . S
C1089 C1087 1.390 . S
C1089 C1090 1.387 . S
C1089 H1092 0.950 . S
C1090 C1089 1.387 . S
C1090 C1093 1.387 . S
H1091 C1087 0.950 . S
H1092 C1089 0.950 . S
C1093 C1084 1.390 . S
C1093 H1086 0.950 . S
C1093 C1090 1.387 . S
C1094 C1095 1.387 . S
C1094 H1098 0.950 . S
C1094 C1103 1.390 . S
C1095 C1094 1.387 . S
C1095 C1097 1.387 . S
H1096 C1103 0.950 . S
C1097 C1095 1.387 . S
C1097 C1099 1.390 . S
C1097 H1101 0.950 . S
H1098 C1094 0.950 . S
C1099 C1097 1.390 . S
C1099 C1100 1.387 . S
C1099 H1102 0.950 . S
C1100 C1099 1.387 . S
C1100 C1103 1.387 . S
H1101 C1097 0.950 . S
H1102 C1099 0.950 . S
C1103 C1094 1.390 . S
C1103 H1096 0.950 . S
C1103 C1100 1.387 . S
C1104 C1105 1.387 . S
C1104 H1108 0.950 . S
C1104 C1113 1.390 . S
C1105 C1104 1.387 . S
C1105 C1107 1.387 . S
H1106 C1113 0.950 . S
C1107 C1105 1.387 . S
C1107 C1109 1.390 . S
C1107 H1111 0.950 . S
H1108 C1104 0.950 . S
C1109 C1107 1.390 . S
C1109 C1110 1.387 . S
C1109 H1112 0.950 . S
C1110 C1109 1.387 . S
C1110 C1113 1.387 . S
H1111 C1107 0.950 . S
H1112 C1109 0.950 . S
C1113 C1104 1.390 . S
C1113 H1106 0.950 . S
C1113 C1110 1.387 . S
C1114 C1115 1.387 . S
C1114 H1118 0.950 . S
C1114 C1123 1.390 . S
C1115 C1114 1.387 . S
C1115 C1117 1.387 . S
H1116 C1123 0.950 . S
C1117 C1115 1.387 . S
C1117 C1119 1.390 . S
C1117 H1121 0.950 . S
H1118 C1114 0.950 . S
C1119 C1117 1.390 . S
C1119 C1120 1.387 . S
C1119 H1122 0.950 . S
C1120 C1119 1.387 . S
C1120 C1123 1.387 . S
H1121 C1117 0.950 . S
H1122 C1119 0.950 . S
C1123 C1114 1.390 . S
C1123 H1116 0.950 . S
C1123 C1120 1.387 . S
C1124 C1125 1.387 . S
C1124 H1128 0.950 . S
C1124 C1133 1.390 . S
C1125 C1124 1.387 . S
C1125 C1127 1.387 . S
H1126 C1133 0.950 . S
C1127 C1125 1.387 . S
C1127 C1129 1.390 . S
C1127 H1131 0.950 . S
H1128 C1124 0.950 . S
C1129 C1127 1.390 . S
C1129 C1130 1.387 . S
C1129 H1132 0.950 . S
C1130 C1129 1.387 . S
C1130 C1133 1.387 . S
H1131 C1127 0.950 . S
H1132 C1129 0.950 . S
C1133 C1124 1.390 . S
C1133 H1126 0.950 . S
C1133 C1130 1.387 . S
C1134 C1135 1.387 . S
C1134 H1138 0.950 . S
C1134 C1143 1.390 . S
C1135 C1134 1.387 . S
C1135 C1137 1.387 . S
H1136 C1143 0.950 . S
C1137 C1135 1.387 . S
C1137 C1139 1.390 . S
C1137 H1141 0.950 . S
H1138 C1134 0.950 . S
C1139 C1137 1.390 . S
C1139 C1140 1.387 . S
C1139 H1142 0.950 . S
C1140 C1139 1.387 . S
C1140 C1143 1.387 . S
H1141 C1137 0.950 . S
H1142 C1139 0.950 . S
C1143 C1134 1.390 . S
C1143 H1136 0.950 . S
C1143 C1140 1.387 . S
C1144 C1145 1.387 . S
C1144 H1148 0.950 . S
C1144 C1153 1.390 . S
C1145 C1144 1.387 . S
C1145 C1147 1.387 . S
H1146 C1153 0.950 . S
C1147 C1145 1.387 . S
C1147 C1149 1.390 . S
C1147 H1151 0.950 . S
H1148 C1144 0.950 . S
C1149 C1147 1.390 . S
C1149 C1150 1.387 . S
C1149 H1152 0.950 . S
C1150 C1149 1.387 . S
C1150 C1153 1.387 . S
H1151 C1147 0.950 . S
H1152 C1149 0.950 . S
C1153 C1144 1.390 . S
C1153 H1146 0.950 . S
C1153 C1150 1.387 . S
C1154 C1155 1.387 . S
C1154 H1158 0.950 . S
C1154 C1163 1.390 . S
C1155 C1154 1.387 . S
C1155 C1157 1.387 . S
H1156 C1163 0.950 . S
C1157 C1155 1.387 . S
C1157 C1159 1.390 . S
C1157 H1161 0.950 . S
H1158 C1154 0.950 . S
C1159 C1157 1.390 . S
C1159 C1160 1.387 . S
C1159 H1162 0.950 . S
C1160 C1159 1.387 . S
C1160 C1163 1.387 . S
H1161 C1157 0.950 . S
H1162 C1159 0.950 . S
C1163 C1154 1.390 . S
C1163 H1156 0.950 . S
C1163 C1160 1.387 . S
C1164 C1165 1.387 . S
C1164 H1168 0.950 . S
C1164 C1173 1.390 . S
C1165 C1164 1.387 . S
C1165 C1167 1.387 . S
H1166 C1173 0.950 . S
C1167 C1165 1.387 . S
C1167 C1169 1.390 . S
C1167 H1171 0.950 . S
H1168 C1164 0.950 . S
C1169 C1167 1.390 . S
C1169 C1170 1.387 . S
C1169 H1172 0.950 . S
C1170 C1169 1.387 . S
C1170 C1173 1.387 . S
H1171 C1167 0.950 . S
H1172 C1169 0.950 . S
C1173 C1164 1.390 . S
C1173 H1166 0.950 . S
C1173 C1170 1.387 . S
C1174 C1175 1.387 . S
C1174 H1178 0.950 . S
C1174 C1183 1.390 1_545 S
C1175 C1174 1.387 . S
C1175 C1177 1.387 . S
H1176 C1183 0.950 . S
C1177 C1175 1.387 . S
C1177 C1179 1.390 1_545 S
C1177 H1181 0.950 . S
H1178 C1174 0.950 . S
C1179 C1177 1.390 1_565 S
C1179 C1180 1.387 . S
C1179 H1182 0.950 . S
C1180 C1179 1.387 . S
C1180 C1183 1.387 . S
H1181 C1177 0.950 . S
H1182 C1179 0.950 . S
C1183 C1174 1.390 1_565 S
C1183 H1176 0.950 . S
C1183 C1180 1.387 . S
C1184 C1185 1.387 . S
C1184 H1188 0.950 . S
C1184 C1193 1.390 1_655 S
C1185 C1184 1.387 . S
C1185 C1187 1.387 . S
H1186 C1193 0.950 . S
C1187 C1185 1.387 . S
C1187 C1189 1.390 1_655 S
C1187 H1191 0.950 . S
H1188 C1184 0.950 . S
C1189 C1187 1.390 1_455 S
C1189 C1190 1.387 . S
C1189 H1192 0.950 . S
C1190 C1189 1.387 . S
C1190 C1193 1.387 . S
H1191 C1187 0.950 . S
H1192 C1189 0.950 . S
C1193 C1184 1.390 1_455 S
C1193 H1186 0.950 . S
C1193 C1190 1.387 . S
C1194 C1195 1.387 . S
C1194 H1198 0.950 . S
C1194 C1203 1.390 . S
C1195 C1194 1.387 . S
C1195 C1197 1.387 . S
H1196 C1203 0.950 . S
C1197 C1195 1.387 . S
C1197 C1199 1.390 . S
C1197 H1201 0.950 . S
H1198 C1194 0.950 . S
C1199 C1197 1.390 . S
C1199 C1200 1.387 . S
C1199 H1202 0.950 . S
C1200 C1199 1.387 . S
C1200 C1203 1.387 . S
H1201 C1197 0.950 . S
H1202 C1199 0.950 . S
C1203 C1194 1.390 . S
C1203 H1196 0.950 . S
C1203 C1200 1.387 . S
C1204 C1205 1.387 . S
C1204 H1208 0.950 . S
C1204 C1213 1.390 1_545 S
C1205 C1204 1.387 . S
C1205 C1207 1.387 . S
H1206 C1213 0.950 . S
C1207 C1205 1.387 . S
C1207 C1209 1.390 1_545 S
C1207 H1211 0.950 . S
H1208 C1204 0.950 . S
C1209 C1207 1.390 1_565 S
C1209 C1210 1.387 . S
C1209 H1212 0.950 . S
C1210 C1209 1.387 . S
C1210 C1213 1.387 . S
H1211 C1207 0.950 . S
H1212 C1209 0.950 . S
C1213 C1204 1.390 1_565 S
C1213 H1206 0.950 . S
C1213 C1210 1.387 . S
C1214 C1215 1.387 1_655 S
C1214 H1218 0.950 . S
C1214 C1223 1.390 . S
C1215 C1214 1.387 1_455 S
C1215 C1217 1.387 . S
H1216 C1223 0.950 . S
C1217 C1215 1.387 . S
C1217 C1219 1.390 . S
C1217 H1221 0.950 . S
H1218 C1214 0.950 . S
C1219 C1217 1.390 . S
C1219 C1220 1.387 1_455 S
C1219 H1222 0.950 . S
C1220 C1219 1.387 1_655 S
C1220 C1223 1.387 . S
H1221 C1217 0.950 . S
H1222 C1219 0.950 . S
C1223 C1214 1.390 . S
C1223 H1216 0.950 . S
C1223 C1220 1.387 . S
C505 C79 1.262 . S
C510 C9 1.262 . S
C515 C51 1.264 . S
C520 C23 1.261 . S
C525 C37 1.263 . S
C530 C65 1.260 . S
C535 C93 1.262 . S
C540 C163 1.262 . S
C545 C107 1.261 . S
C550 C135 1.264 . S
C555 C149 1.264 . S
C560 C121 1.260 . S
C565 C177 1.262 . S
C570 C247 1.262 . S
C575 C191 1.261 . S
C580 C219 1.264 . S
C585 C233 1.260 . S
C590 C205 1.263 . S
C595 C331 1.262 . S
C600 C261 1.262 . S
C605 C303 1.264 . S
C610 C275 1.261 . S
C615 C289 1.261 . S
C620 C317 1.264 . S
C625 C415 1.263 . S
C630 C345 1.263 . S
C635 C387 1.264 . S
C640 C359 1.261 . S
C645 C373 1.261 . S
C650 C401 1.264 . S
C655 C499 1.263 . S
C660 C429 1.263 . S
C665 C471 1.261 . S
C670 C443 1.264 . S
C675 C485 1.264 . S
C680 C457 1.260 . S
C685 C232 1.621 . S
C690 C8 1.621 . S
C695 C246 1.621 . S
C700 C22 1.621 . S
C705 C218 1.624 . S
C710 C36 1.624 . S
C715 C50 1.624 . S
C720 C372 1.624 1_554 S
C725 C64 1.624 . S
C730 C344 1.624 1_554 S
C735 C78 1.621 . S
C740 C358 1.621 1_554 S
C745 C92 1.624 . S
C750 C484 1.624 . S
C755 C498 1.621 . S
C760 C106 1.622 . S
C765 C470 1.624 . S
C770 C120 1.624 . S
C775 C288 1.621 1_556 S
C780 C134 1.621 . S
C785 C260 1.623 1_556 S
C790 C148 1.623 . S
C795 C162 1.624 . S
C800 C274 1.624 1_556 S
C805 C176 1.621 . S
C810 C400 1.621 . S
C815 C414 1.621 . S
C820 C190 1.621 . S
C825 C386 1.624 . S
C830 C204 1.624 . S
C835 C302 1.621 . S
C840 C456 1.621 . S
C845 C428 1.624 . S
C850 C316 1.624 . S
C855 C330 1.622 . S
C860 C442 1.621 . S
C865 C258 1.493 . S
C870 C6 1.493 . S
C875 C272 1.492 . S
C880 C20 1.492 . S
C885 C34 1.492 . S
C890 C286 1.492 . S
C895 C48 1.493 . S
C900 C468 1.493 . S
C905 C482 1.491 . S
C910 C62 1.491 . S
C915 C496 1.490 . S
C920 C76 1.490 . S
C925 C90 1.493 . S
C930 C342 1.493 . S
C935 C104 1.491 . S
C940 C356 1.491 . S
C945 C370 1.492 . S
C950 C118 1.492 . S
C955 C132 1.493 . S
C960 C216 1.493 . S
C965 C146 1.491 . S
C970 C230 1.491 . S
C975 C244 1.492 . S
C980 C160 1.492 . S
C985 C174 1.493 . S
C990 C426 1.493 . S
C995 C188 1.494 . S
C1000 C440 1.494 . S
C1005 C454 1.492 . S
C1010 C202 1.492 . S
C1015 C384 1.491 . S
C1020 C300 1.491 . S
C1025 C314 1.493 . S
C1030 C398 1.493 . S
C1035 C328 1.490 . S
C1040 C412 1.490 . S
C1045 C385 1.296 . S
C1050 C7 1.295 . S
C1055 C21 1.293 . S
C1060 C399 1.293 . S
C1065 C413 1.295 . S
C1070 C35 1.295 . S
C1075 C49 1.295 . S
C1080 C175 1.294 . S
C1085 C189 1.295 . S
C1090 C63 1.295 . S
C1095 C203 1.292 . S
C1100 C77 1.293 . S
C1105 C91 1.294 . S
C1110 C301 1.293 . S
C1115 C315 1.293 . S
C1120 C105 1.293 . S
C1125 C119 1.295 . S
C1130 C329 1.295 . S
C1135 C133 1.296 . S
C1140 C427 1.295 . S
C1145 C147 1.293 . S
C1150 C441 1.293 . S
C1155 C455 1.295 . S
C1160 C161 1.295 . S
C1165 C217 1.293 . S
C1170 C343 1.293 . S
C1175 C231 1.293 . S
C1180 C357 1.293 . S
C1185 C245 1.295 . S
C1190 C371 1.295 . S
C1195 C259 1.295 . S
C1200 C469 1.296 . S
C1205 C273 1.293 . S
C1210 C483 1.293 . S
C1215 C497 1.294 . S
C1220 C287 1.295 . S
