# Generated by pormake.
# Topology zfk, (5)-cn, num edge types: 1
# Building blocks:
#     Node 0, Type 0, BuildingBlock: BEQFEK_clean_sbu_0, # of connection points: 5
#     Node 1, Type 0, BuildingBlock: BEQFEK_clean_sbu_0, # of connection points: 5
#     Node 2, Type 0, BuildingBlock: BEQFEK_clean_sbu_0, # of connection points: 5
#     Node 3, Type 0, BuildingBlock: BEQFEK_clean_sbu_0, # of connection points: 5
#     Node 4, Type 0, BuildingBlock: BEQFEK_clean_sbu_0, # of connection points: 5
#     Node 5, Type 0, BuildingBlock: BEQFEK_clean_sbu_0, # of connection points: 5
#     Node 6, Type 0, BuildingBlock: BEQFEK_clean_sbu_0, # of connection points: 5
#     Node 7, Type 0, BuildingBlock: BEQFEK_clean_sbu_0, # of connection points: 5
#     Node 8, Type 0, BuildingBlock: BEQFEK_clean_sbu_0, # of connection points: 5
#     Node 9, Type 0, BuildingBlock: BEQFEK_clean_sbu_0, # of connection points: 5
#     Node 10, Type 0, BuildingBlock: BEQFEK_clean_sbu_0, # of connection points: 5
#     Node 11, Type 0, BuildingBlock: BEQFEK_clean_sbu_0, # of connection points: 5
#     Node 12, Type 0, BuildingBlock: BEQFEK_clean_sbu_0, # of connection points: 5
#     Node 13, Type 0, BuildingBlock: BEQFEK_clean_sbu_0, # of connection points: 5
#     Node 14, Type 0, BuildingBlock: BEQFEK_clean_sbu_0, # of connection points: 5
#     Node 15, Type 0, BuildingBlock: BEQFEK_clean_sbu_0, # of connection points: 5
#     Edge 16, Type (0, 0), BuildingBlock: EZIPEK_clean_linker_0, # of connection points: 2
#     Edge 17, Type (0, 0), BuildingBlock: EZIPEK_clean_linker_0, # of connection points: 2
#     Edge 18, Type (0, 0), BuildingBlock: EZIPEK_clean_linker_0, # of connection points: 2
#     Edge 19, Type (0, 0), BuildingBlock: EZIPEK_clean_linker_0, # of connection points: 2
#     Edge 20, Type (0, 0), BuildingBlock: EZIPEK_clean_linker_0, # of connection points: 2
#     Edge 21, Type (0, 0), BuildingBlock: EZIPEK_clean_linker_0, # of connection points: 2
#     Edge 22, Type (0, 0), BuildingBlock: EZIPEK_clean_linker_0, # of connection points: 2
#     Edge 23, Type (0, 0), BuildingBlock: EZIPEK_clean_linker_0, # of connection points: 2
#     Edge 24, Type (0, 0), BuildingBlock: EZIPEK_clean_linker_0, # of connection points: 2
#     Edge 25, Type (0, 0), BuildingBlock: EZIPEK_clean_linker_0, # of connection points: 2
#     Edge 26, Type (0, 0), BuildingBlock: EZIPEK_clean_linker_0, # of connection points: 2
#     Edge 27, Type (0, 0), BuildingBlock: EZIPEK_clean_linker_0, # of connection points: 2
#     Edge 28, Type (0, 0), BuildingBlock: EZIPEK_clean_linker_0, # of connection points: 2
#     Edge 29, Type (0, 0), BuildingBlock: EZIPEK_clean_linker_0, # of connection points: 2
#     Edge 30, Type (0, 0), BuildingBlock: EZIPEK_clean_linker_0, # of connection points: 2
#     Edge 31, Type (0, 0), BuildingBlock: EZIPEK_clean_linker_0, # of connection points: 2
#     Edge 32, Type (0, 0), BuildingBlock: EZIPEK_clean_linker_0, # of connection points: 2
#     Edge 33, Type (0, 0), BuildingBlock: EZIPEK_clean_linker_0, # of connection points: 2
#     Edge 34, Type (0, 0), BuildingBlock: EZIPEK_clean_linker_0, # of connection points: 2
#     Edge 35, Type (0, 0), BuildingBlock: EZIPEK_clean_linker_0, # of connection points: 2
#     Edge 36, Type (0, 0), BuildingBlock: EZIPEK_clean_linker_0, # of connection points: 2
#     Edge 37, Type (0, 0), BuildingBlock: EZIPEK_clean_linker_0, # of connection points: 2
#     Edge 38, Type (0, 0), BuildingBlock: EZIPEK_clean_linker_0, # of connection points: 2
#     Edge 39, Type (0, 0), BuildingBlock: EZIPEK_clean_linker_0, # of connection points: 2
#     Edge 40, Type (0, 0), BuildingBlock: EZIPEK_clean_linker_0, # of connection points: 2
#     Edge 41, Type (0, 0), BuildingBlock: EZIPEK_clean_linker_0, # of connection points: 2
#     Edge 42, Type (0, 0), BuildingBlock: EZIPEK_clean_linker_0, # of connection points: 2
#     Edge 43, Type (0, 0), BuildingBlock: EZIPEK_clean_linker_0, # of connection points: 2
#     Edge 44, Type (0, 0), BuildingBlock: EZIPEK_clean_linker_0, # of connection points: 2
#     Edge 45, Type (0, 0), BuildingBlock: EZIPEK_clean_linker_0, # of connection points: 2
#     Edge 46, Type (0, 0), BuildingBlock: EZIPEK_clean_linker_0, # of connection points: 2
#     Edge 47, Type (0, 0), BuildingBlock: EZIPEK_clean_linker_0, # of connection points: 2
#     Edge 48, Type (0, 0), BuildingBlock: EZIPEK_clean_linker_0, # of connection points: 2
#     Edge 49, Type (0, 0), BuildingBlock: EZIPEK_clean_linker_0, # of connection points: 2
#     Edge 50, Type (0, 0), BuildingBlock: EZIPEK_clean_linker_0, # of connection points: 2
#     Edge 51, Type (0, 0), BuildingBlock: EZIPEK_clean_linker_0, # of connection points: 2
#     Edge 52, Type (0, 0), BuildingBlock: EZIPEK_clean_linker_0, # of connection points: 2
#     Edge 53, Type (0, 0), BuildingBlock: EZIPEK_clean_linker_0, # of connection points: 2
#     Edge 54, Type (0, 0), BuildingBlock: EZIPEK_clean_linker_0, # of connection points: 2
#     Edge 55, Type (0, 0), BuildingBlock: EZIPEK_clean_linker_0, # of connection points: 2
# Relax obj value: 0.151
# Max RMSD: 0.133
# Mean RMSD: 0.132
data_MOF--net-zfk--node1-BEQFEK_clean_sbu_0--edge1-EZIPEK_clean_linker_0
_symmetry_space_group_name_H-M    P1
_symmetry_Int_Tables_number       1
_symmetry_cell_setting            triclinic
loop_
_symmetry_equiv_pos_as_xyz
'x, y, z'
_cell_length_a     23.084714
_cell_length_b     23.000302
_cell_length_c     58.719441
_cell_angle_alpha  90.146478
_cell_angle_beta   89.94678
_cell_angle_gamma 89.994907
loop_
_atom_site_label
_atom_site_type_symbol
_atom_site_fract_x
_atom_site_fract_y
_atom_site_fract_z
_atom_type_partial_charge
Co0 Co 0.01824 0.29178 0.10287 0.0
Co1 Co 0.07135 0.30006 0.15281 0.0
C2 C 0.98339 0.21023 0.14188 0.0
O3 O 0.98115 0.22883 0.12139 0.0
O4 O 0.01489 0.23593 0.15666 0.0
C5 C 0.9395 0.26874 0.06472 0.0
O6 O 0.90312 0.24793 0.07984 0.0
C7 C 0.09625 0.32276 0.20232 0.0
C8 C 0.18326 0.36226 0.19938 0.0
C9 C 0.14061 0.34815 0.21497 0.0
N10 N 0.11198 0.32228 0.18021 0.0
N11 N 0.16426 0.34555 0.17871 0.0
C12 C 0.03985 0.29998 0.21107 0.0
H13 H 0.04678 0.25567 0.21797 0.0
H14 H 0.00754 0.29751 0.19712 0.0
H15 H 0.02323 0.32778 0.22509 0.0
C16 C 0.01077 0.4202 0.11076 0.0
N17 N 0.02133 0.36544 0.11782 0.0
N18 N 0.03839 0.36719 0.13919 0.0
C19 C 0.03604 0.42254 0.14672 0.0
C20 C 0.01977 0.45838 0.12892 0.0
C21 C -0.00542 0.43557 0.08687 0.0
H22 H 0.01902 0.40788 0.0747 0.0
H23 H 0.94775 0.42682 0.08439 0.0
H24 H 0.0032 0.48215 0.08331 0.0
O25 O 0.09604 0.26327 0.09779 0.0
O26 O 0.13169 0.26577 0.13295 0.0
H27 H 0.09388 0.44235 0.174 0.0
H28 H 0.02792 0.48418 0.17442 0.0
C29 C 0.0466 0.44066 0.1708 0.0
H30 H 0.02671 0.40848 0.18243 0.0
H31 H 0.18649 0.35134 0.16342 0.0
O32 O 0.98584 0.29349 0.07133 0.0
C33 C 0.13632 0.25349 0.11189 0.0
Co34 Co 0.18357 0.03069 0.6045 0.0
Co35 Co 0.19489 0.08024 0.65482 0.0
C36 C 0.28248 -0.00268 0.63304 0.0
O37 O 0.25042 0.98625 0.61599 0.0
O38 O 0.26566 0.03102 0.64906 0.0
C39 C 0.19608 0.96341 0.56369 0.0
O40 O 0.21861 0.92451 0.57742 0.0
C41 C 0.18296 0.08178 0.70575 0.0
C42 C 0.19158 0.17607 0.71231 0.0
C43 C 0.18185 0.12346 0.72291 0.0
N44 N 0.19239 0.10875 0.68574 0.0
N45 N 0.19792 0.16506 0.68993 0.0
C46 C 0.17485 0.01774 0.70841 0.0
H47 H 0.17049 -0.00364 0.69152 0.0
H48 H 0.13598 0.00901 0.71901 0.0
H49 H 0.21286 -0.00057 0.71745 0.0
C50 C 0.06112 0.01739 0.61957 0.0
N51 N 0.11746 0.02833 0.62393 0.0
N52 N 0.12228 0.0494 0.64476 0.0
C53 C 0.06891 0.05384 0.65399 0.0
C54 C 0.02848 0.03328 0.6385 0.0
C55 C 0.03881 -0.00259 0.59698 0.0
H56 H 0.06666 0.96186 0.59034 0.0
H57 H -0.00677 0.98237 0.59828 0.0
H58 H 0.04115 0.03402 0.58474 0.0
O59 O 0.2134 0.11086 0.60194 0.0
O60 O 0.21206 0.14875 0.63677 0.0
H61 H 0.00923 0.09667 0.67709 0.0
H62 H 0.06588 0.05515 0.69026 0.0
C63 C 0.05564 0.08447 0.67589 0.0
H64 H 0.08231 0.12433 0.67739 0.0
H65 H 0.20514 0.19639 0.67745 0.0
O66 O 0.17114 0.00797 0.57205 0.0
C67 C 0.22275 0.15262 0.61564 0.0
Co68 Co 0.47302 0.18585 0.09872 0.0
Co69 Co 0.4233 0.16969 0.14896 0.0
C70 C 0.45721 0.28536 0.13307 0.0
O71 O 0.47102 0.26343 0.11386 0.0
O72 O 0.44029 0.2541 0.14972 0.0
C73 C 0.54323 0.23689 0.06292 0.0
O74 O 0.56262 0.27168 0.07897 0.0
C75 C 0.40051 0.15078 0.19907 0.0
C76 C 0.33427 0.0816 0.19674 0.0
C77 C 0.36612 0.11395 0.21212 0.0
N78 N 0.38973 0.14024 0.17687 0.0
N79 N 0.34953 0.09931 0.17575 0.0
C80 C 0.4442 0.19344 0.20762 0.0
H81 H 0.46719 0.21455 0.19324 0.0
H82 H 0.47592 0.17099 0.21874 0.0
H83 H 0.42203 0.22691 0.21813 0.0
C84 C 0.52516 0.07379 0.11123 0.0
N85 N 0.50268 0.12559 0.11741 0.0
N86 N 0.48702 0.12312 0.13899 0.0
C87 C 0.50272 0.0711 0.14741 0.0
C88 C 0.5246 0.03711 0.13001 0.0
C89 C 0.5339 0.0559 0.08699 0.0
H90 H 0.49151 0.05613 0.07808 0.0
H91 H 0.56236 0.0879 0.07841 0.0
H92 H 0.55342 0.01187 0.08578 0.0
O93 O 0.39313 0.16763 0.09158 0.0
O94 O 0.35955 0.16143 0.12679 0.0
H95 H 0.44356 0.03304 0.17104 0.0
H96 H 0.51799 0.01416 0.17575 0.0
C97 C 0.48846 0.05002 0.17074 0.0
H98 H 0.49311 0.08638 0.18297 0.0
H99 H 0.33369 0.08205 0.16058 0.0
O100 O 0.51051 0.19448 0.06823 0.0
C101 C 0.35156 0.16028 0.10535 0.0
Co102 Co 0.30435 0.4873 0.60046 0.0
Co103 Co 0.31673 0.43809 0.6509 0.0
C104 C 0.20414 0.47656 0.63418 0.0
O105 O 0.22711 0.48849 0.61506 0.0
O106 O 0.23393 0.45938 0.65114 0.0
C107 C 0.25394 0.55535 0.5644 0.0
O108 O 0.22025 0.57619 0.58051 0.0
C109 C 0.32403 0.41341 0.701 0.0
C110 C 0.39132 0.34501 0.701 0.0
C111 C 0.3553 0.37661 0.71523 0.0
N112 N 0.34133 0.40421 0.67935 0.0
N113 N 0.38135 0.36304 0.67957 0.0
C114 C 0.27738 0.45517 0.70764 0.0
H115 H 0.23477 0.43627 0.70297 0.0
H116 H 0.28259 0.49626 0.69798 0.0
H117 H 0.27791 0.46405 0.72622 0.0
C118 C 0.41755 0.53488 0.61328 0.0
N119 N 0.36509 0.51472 0.61946 0.0
N120 N 0.36699 0.49884 0.64104 0.0
C121 C 0.41971 0.51173 0.64947 0.0
C122 C 0.45419 0.5324 0.63199 0.0
C123 C 0.43539 0.54343 0.58905 0.0
H124 H 0.40271 0.57053 0.58019 0.0
H125 H 0.47862 0.56439 0.58792 0.0
H126 H 0.43695 0.50054 0.58036 0.0
O127 O 0.31872 0.40637 0.59356 0.0
O128 O 0.32226 0.37336 0.62893 0.0
H129 H 0.4566 0.4489 0.67195 0.0
H130 H 0.47766 0.52245 0.67782 0.0
C131 C 0.44088 0.4944 0.67253 0.0
H132 H 0.40549 0.49836 0.6852 0.0
H133 H 0.40199 0.34723 0.66502 0.0
O134 O 0.2969 0.52352 0.56976 0.0
C135 C 0.32322 0.36478 0.60749 0.0
Co136 Co 0.01959 0.17297 0.93292 0.0
Co137 Co 0.07092 0.16484 0.88281 0.0
C138 C 0.03025 0.27583 0.89998 0.0
O139 O 0.01781 0.25112 0.91874 0.0
O140 O 0.0496 0.24775 0.88284 0.0
C141 C 0.94393 0.2183 0.96808 0.0
O142 O 0.9229 0.25155 0.95191 0.0
C143 C 0.10425 0.1557 0.83338 0.0
C144 C 0.15942 0.07718 0.83493 0.0
C145 C 0.13712 0.11788 0.82002 0.0
N146 N 0.10666 0.13756 0.85515 0.0
N147 N 0.14036 0.09109 0.85589 0.0
C148 C 0.07119 0.20797 0.82571 0.0
H149 H 0.02412 0.19915 0.82738 0.0
H150 H 0.08136 0.21907 0.80776 0.0
H151 H 0.08154 0.24541 0.83695 0.0
C152 C 0.97677 0.05909 0.91796 0.0
N153 N -0.00514 0.11319 0.91303 0.0
N154 N 0.00872 0.11551 0.89127 0.0
C155 C -0.00488 0.06449 0.88137 0.0
C156 C 0.97758 0.02615 0.89809 0.0
C157 C 0.96929 0.03705 0.94175 0.0
H158 H -0.00535 0.06394 0.95388 0.0
H159 H 0.92285 0.04011 0.94649 0.0
H160 H 0.98277 0.99086 0.94309 0.0
O161 O 0.09932 0.15831 0.94069 0.0
O162 O 0.13361 0.15753 0.90549 0.0
H163 H 0.04464 0.02866 0.85372 0.0
H164 H 0.96808 0.02052 0.85092 0.0
C165 C 0.00269 0.05075 0.85662 0.0
H166 H 0.00086 0.09113 0.84637 0.0
H167 H 0.14975 0.06827 0.87074 0.0
O168 O 0.97956 0.17809 0.96297 0.0
C169 C 0.14129 0.15442 0.92693 0.0
Co170 Co 0.30768 0.03006 0.42929 0.0
Co171 Co 0.32093 0.04222 0.37581 0.0
C172 C 0.21037 0.00941 0.39418 0.0
O173 O 0.23267 0.01495 0.41387 0.0
O174 O 0.24028 0.01447 0.37604 0.0
C175 C 0.25893 0.97088 0.46794 0.0
O176 O 0.23018 0.94173 0.45236 0.0
C177 C 0.33076 0.05335 0.32517 0.0
C178 C 0.40429 0.11487 0.32326 0.0
C179 C 0.3647 0.08495 0.31007 0.0
N180 N 0.3495 0.06432 0.34645 0.0
N181 N 0.39329 0.10126 0.3451 0.0
C182 C 0.28055 0.01498 0.31957 0.0
H183 H 0.23991 0.04028 0.32156 0.0
H184 H 0.27892 0.97783 0.33159 0.0
H185 H 0.28338 -0.00099 0.30175 0.0
C186 C 0.42453 0.98055 0.42223 0.0
N187 N 0.37183 -0.00512 0.41418 0.0
N188 N 0.37355 0.99416 0.39173 0.0
C189 C 0.42631 0.97628 0.38492 0.0
C190 C 0.46094 0.96906 0.40389 0.0
C191 C 0.44199 0.98755 0.44661 0.0
H192 H 0.41646 0.02284 0.45475 0.0
H193 H 0.43259 0.94647 0.45575 0.0
H194 H 0.48902 -0.0032 0.44816 0.0
O195 O 0.31554 0.1148 0.42862 0.0
O196 O 0.31714 0.11712 0.39124 0.0
H197 H 0.4682 0.017 0.35666 0.0
H198 H 0.47934 0.94017 0.35839 0.0
C199 C 0.44675 0.97518 0.36074 0.0
H200 H 0.40993 0.96775 0.34898 0.0
H201 H 0.41535 0.11775 0.3592 0.0
O202 O 0.29765 0.00716 0.46187 0.0
C203 C 0.3165 0.14352 0.41018 0.0
Co204 Co 0.46656 0.30255 0.92762 0.0
Co205 Co 0.40837 0.30579 0.87816 0.0
C206 C 0.50007 0.21913 0.89015 0.0
O207 O 0.50516 0.23943 0.91029 0.0
O208 O 0.46683 0.24366 0.87575 0.0
C209 C 0.54511 0.2849 0.96606 0.0
O210 O 0.58219 0.26442 0.95108 0.0
C211 C 0.39443 0.32655 0.82821 0.0
C212 C 0.29951 0.33666 0.82564 0.0
C213 C 0.34994 0.33775 0.81292 0.0
N214 N 0.37143 0.31989 0.84915 0.0
N215 N 0.31459 0.32579 0.84739 0.0
C216 C 0.45755 0.32208 0.8229 0.0
H217 H 0.48352 0.32168 0.83881 0.0
H218 H 0.47098 0.35899 0.81196 0.0
H219 H 0.46557 0.28132 0.81325 0.0
C220 C 0.47155 0.42939 0.91839 0.0
N221 N 0.46052 0.37436 0.91178 0.0
N222 N 0.43715 0.37529 0.89129 0.0
C223 C 0.43318 0.43081 0.88423 0.0
C224 C 0.45445 0.46676 0.90114 0.0
C225 C 0.49653 0.44561 0.94099 0.0
H226 H 0.54046 0.42643 0.94248 0.0
H227 H 0.49923 0.4935 0.94312 0.0
H228 H 0.46937 0.42685 0.95473 0.0
O229 O 0.38972 0.27088 0.93273 0.0
O230 O 0.34956 0.27115 0.89824 0.0
H231 H 0.40812 0.49752 0.86013 0.0
H232 H 0.43411 0.43047 0.84794 0.0
C233 C 0.40812 0.44951 0.86195 0.0
H234 H 0.36302 0.43341 0.8605 0.0
H235 H 0.286 0.3228 0.86109 0.0
O236 O 0.49814 0.30797 0.95924 0.0
C237 C 0.34816 0.25926 0.91939 0.0
Co238 Co 0.16767 0.4699 0.43043 0.0
Co239 Co 0.17015 0.45119 0.37733 0.0
C240 C 0.26496 0.5085 0.39669 0.0
O241 O 0.2418 0.49636 0.41584 0.0
O242 O 0.2374 0.5028 0.37801 0.0
C243 C 0.19167 0.5453 0.46873 0.0
O244 O 0.20888 0.58243 0.45317 0.0
C245 C 0.16972 0.42961 0.32686 0.0
C246 C 0.10967 0.35468 0.32558 0.0
C247 C 0.14354 0.39018 0.31214 0.0
N248 N 0.15206 0.41768 0.3482 0.0
N249 N 0.11631 0.3728 0.34721 0.0
C250 C 0.21082 0.47731 0.32086 0.0
H251 H 0.19983 0.51706 0.33072 0.0
H252 H 0.20982 0.4866 0.30232 0.0
H253 H 0.25531 0.46398 0.32574 0.0
C254 C 0.04434 0.49648 0.41903 0.0
N255 N 0.10022 0.48806 0.41312 0.0
N256 N 0.10352 0.48394 0.39078 0.0
C257 C 0.05063 0.49189 0.38175 0.0
C258 C 0.01111 0.49847 0.39927 0.0
C259 C 0.02296 0.49708 0.44306 0.0
H260 H 0.04599 0.46344 0.45311 0.0
H261 H 0.03303 0.54 0.45074 0.0
H262 H 0.97546 0.48989 0.44389 0.0
O263 O 0.17755 0.38556 0.43187 0.0
O264 O 0.19656 0.38404 0.39497 0.0
H265 H 0.02348 0.44244 0.35278 0.0
H266 H 0.00052 0.51665 0.35232 0.0
C267 C 0.03694 0.48754 0.35688 0.0
H268 H 0.0752 0.49961 0.34652 0.0
H269 H 0.09546 0.35514 0.36133 0.0
O270 O 0.16776 0.49793 0.46259 0.0
C271 C 0.1979 0.36009 0.41443 0.0
Co272 Co 0.96511 0.68095 0.9307 0.0
Co273 Co 0.9312 0.66329 0.87867 0.0
C274 C 0.98003 0.77509 0.89599 0.0
O275 O 0.98896 0.75284 0.91547 0.0
O276 O 0.95899 0.7458 0.87941 0.0
C277 C 0.02515 0.726 0.96979 0.0
O278 O 0.05463 0.75547 0.95456 0.0
C279 C 0.92046 0.64909 0.8278 0.0
C280 C 0.85444 0.57936 0.82718 0.0
C281 C 0.8879 0.61418 0.81329 0.0
N282 N 0.9071 0.63493 0.84942 0.0
N283 N 0.86756 0.59332 0.8488 0.0
C284 C 0.9614 0.69647 0.82125 0.0
H285 H 0.99192 0.70577 0.8354 0.0
H286 H 0.98561 0.68431 0.80561 0.0
H287 H 0.93619 0.73643 0.81756 0.0
C288 C 0.01402 0.56336 0.92244 0.0
N289 N 0.99145 0.61386 0.91499 0.0
N290 N 0.98195 0.60977 0.89292 0.0
C291 C 0.00021 0.5574 0.88557 0.0
C292 C 0.01961 0.52578 0.904 0.0
C293 C 0.02269 0.5491 0.94701 0.0
H294 H 0.98415 0.56292 0.95697 0.0
H295 H 0.06044 0.57399 0.95346 0.0
H296 H 0.03074 0.50196 0.94952 0.0
O297 O 0.88019 0.6872 0.93084 0.0
O298 O 0.85732 0.66647 0.89503 0.0
H299 H 0.94922 0.51641 0.85979 0.0
H300 H 0.02494 0.49935 0.85841 0.0
C301 C -0.00667 0.5347 0.86183 0.0
H302 H 0.00014 0.57007 0.84935 0.0
H303 H 0.84927 0.57447 0.86325 0.0
O304 O 0.98915 0.68741 0.96329 0.0
C305 C 0.84302 0.68123 0.91508 0.0
Co306 Co 0.81182 0.98139 0.43292 0.0
Co307 Co 0.81765 0.93299 0.38238 0.0
C308 C 0.71035 0.97996 0.39847 0.0
O309 O 0.73445 0.98636 0.41784 0.0
O310 O 0.73884 0.96501 0.38076 0.0
C311 C 0.76736 0.05588 0.46852 0.0
O312 O 0.73314 0.07638 0.45259 0.0
C313 C 0.82864 0.89826 0.33327 0.0
C314 C 0.89938 0.8338 0.33615 0.0
C315 C 0.8636 0.86094 0.32056 0.0
N316 N 0.84372 0.89371 0.35534 0.0
N317 N 0.88554 0.8546 0.35687 0.0
C318 C 0.7821 0.9377 0.3247 0.0
H319 H 0.79604 0.9835 0.32706 0.0
H320 H 0.77273 0.92967 0.30643 0.0
H321 H 0.74217 0.9313 0.33493 0.0
C322 C 0.92736 0.02383 0.41915 0.0
N323 N 0.87417 0.00383 0.4139 0.0
N324 N 0.87364 0.98777 0.39234 0.0
C325 C 0.92543 5e-05 0.38298 0.0
C326 C 0.96171 0.02108 0.39974 0.0
C327 C 0.94755 0.03448 0.44297 0.0
H328 H 0.91658 0.06374 0.45178 0.0
H329 H 0.99156 0.05394 0.4432 0.0
H330 H 0.94822 0.99262 0.45233 0.0
O331 O 0.81959 0.89978 0.44034 0.0
O332 O 0.80924 0.86969 0.40462 0.0
H333 H 0.96171 0.94077 0.35879 0.0
H334 H 0.97728 0.01561 0.35321 0.0
C335 C 0.94317 0.98521 0.35918 0.0
H336 H 0.90546 0.98788 0.34759 0.0
H337 H 0.90538 0.8428 0.37213 0.0
O338 O 0.80767 0.02067 0.46316 0.0
C339 C 0.81131 0.85974 0.42587 0.0
Co340 Co 0.50354 0.81472 0.92969 0.0
Co341 Co 0.54276 0.80941 0.87784 0.0
C342 C 0.47402 0.71666 0.89567 0.0
O343 O 0.47835 0.74031 0.91524 0.0
O344 O 0.48907 0.7431 0.87756 0.0
C345 C 0.42613 0.79073 0.96742 0.0
O346 O 0.39243 0.76711 0.95194 0.0
C347 C 0.56219 0.82229 0.82742 0.0
C348 C 0.65615 0.84091 0.82739 0.0
C349 C 0.60858 0.83574 0.8133 0.0
N350 N 0.58138 0.82082 0.84909 0.0
N351 N 0.6377 0.83158 0.8488 0.0
C352 C 0.50101 0.81125 0.82039 0.0
H353 H 0.47249 0.8072 0.83554 0.0
H354 H 0.48561 0.84715 0.80934 0.0
H355 H 0.49917 0.77053 0.81024 0.0
C356 C 0.48591 0.93906 0.91621 0.0
N357 N 0.4947 0.88255 0.9109 0.0
N358 N 0.51044 0.87911 0.88933 0.0
C359 C 0.51203 0.93283 0.88034 0.0
C360 C 0.49712 0.97274 0.89699 0.0
C361 C 0.47345 0.96046 0.93975 0.0
H362 H 0.43526 0.93704 0.94662 0.0
H363 H 0.46522 0.00802 0.93995 0.0
H364 H 0.51085 0.95036 0.95092 0.0
O365 O 0.58592 0.80066 0.93471 0.0
O366 O 0.6056 0.78576 0.89813 0.0
H367 H 0.53197 0.99324 0.8529 0.0
H368 H 0.51035 0.92135 0.84434 0.0
C369 C 0.53511 0.94648 0.85714 0.0
H370 H 0.58137 0.93395 0.85623 0.0
H371 H 0.66361 0.83339 0.8633 0.0
O372 O 0.4708 0.81898 0.96116 0.0
C373 C 0.61982 0.78401 0.919 0.0
Co374 Co 0.67846 0.52153 0.42806 0.0
Co375 Co 0.66886 0.5767 0.37829 0.0
C376 C 0.765 0.49824 0.39005 0.0
O377 O 0.74666 0.49386 0.41047 0.0
O378 O 0.73533 0.52409 0.37491 0.0
C379 C 0.70935 0.44393 0.46535 0.0
O380 O 0.73538 0.41233 0.44974 0.0
C381 C 0.64727 0.59102 0.32848 0.0
C382 C 0.6262 0.68459 0.32673 0.0
C383 C 0.6316 0.63499 0.31354 0.0
N384 N 0.65044 0.61345 0.34966 0.0
N385 N 0.63795 0.6695 0.3484 0.0
C386 C 0.65906 0.52891 0.32264 0.0
H387 H 0.7025 0.52567 0.31461 0.0
H388 H 0.65823 0.50158 0.33819 0.0
H389 H 0.62665 0.51298 0.31014 0.0
C390 C 0.55297 0.50399 0.41911 0.0
N391 N 0.60673 0.51815 0.41207 0.0
N392 N 0.6034 0.54047 0.39143 0.0
C393 C 0.54772 0.54044 0.38466 0.0
C394 C 0.51408 0.51789 0.40195 0.0
C395 C 0.53904 0.48166 0.44234 0.0
H396 H 0.55957 0.43842 0.44452 0.0
H397 H 0.49157 0.47776 0.44497 0.0
H398 H 0.55779 0.51124 0.45535 0.0
O399 O 0.69768 0.60234 0.43385 0.0
O400 O 0.69744 0.63864 0.39869 0.0
H401 H 0.53674 0.61268 0.36223 0.0
H402 H 0.47876 0.56021 0.36083 0.0
C403 C 0.52627 0.56568 0.36277 0.0
H404 H 0.5482 0.54382 0.34832 0.0
H405 H 0.6372 0.6975 0.36238 0.0
O406 O 0.67841 0.48704 0.45932 0.0
C407 C 0.7063 0.64359 0.41999 0.0
Co408 Co 0.95053 0.80638 0.10476 0.0
Co409 Co 0.90402 0.79832 0.15554 0.0
C410 C 0.98482 0.70826 0.13434 0.0
O411 O -0.00697 0.73861 0.11658 0.0
O412 O 0.95279 0.72629 0.15067 0.0
C413 C 0.02115 0.79345 0.06506 0.0
O414 O 0.05966 0.77381 0.07959 0.0
C415 C 0.90221 0.81149 0.2065 0.0
C416 C 0.80767 0.81089 0.21254 0.0
C417 C 0.86036 0.81644 0.22342 0.0
N418 N 0.87527 0.80401 0.18635 0.0
N419 N 0.81878 0.80335 0.19024 0.0
C420 C 0.96639 0.81396 0.20952 0.0
H421 H 0.98856 0.81568 0.19274 0.0
H422 H 0.97819 0.8525 0.21994 0.0
H423 H 0.98084 0.77474 0.2189 0.0
C424 C 0.96814 0.92962 0.11904 0.0
N425 N 0.95543 0.87362 0.12374 0.0
N426 N 0.93613 0.87009 0.14484 0.0
C427 C 0.935 0.92399 0.15398 0.0
C428 C 0.95553 0.96343 0.13808 0.0
C429 C 0.98743 0.9506 0.09619 0.0
H430 H 0.95095 0.94652 0.084 0.0
H431 H 0.02328 0.92274 0.08988 0.0
H432 H 0.00173 -0.00334 0.09693 0.0
O433 O 0.86989 0.77826 0.1024 0.0
O434 O 0.83506 0.78093 0.13766 0.0
H435 H 0.8667 0.91583 0.17849 0.0
H436 H 0.90097 0.98626 0.17833 0.0
C437 C 0.90854 0.93884 0.1765 0.0
H438 H 0.93834 0.92484 0.19019 0.0
H439 H 0.78745 0.7986 0.17759 0.0
O440 O 0.9748 0.81673 0.07247 0.0
C441 C 0.82924 0.76978 0.11662 0.0
Co442 Co 0.69924 0.97998 0.60362 0.0
Co443 Co 0.68886 0.93368 0.65428 0.0
C444 C 0.78217 0.01556 0.64234 0.0
O445 O 0.7637 0.01579 0.62181 0.0
O446 O 0.75541 0.98695 0.65769 0.0
C447 C 0.72048 0.0592 0.56531 0.0
O448 O 0.73877 0.09733 0.58034 0.0
C449 C 0.66753 0.90885 0.70386 0.0
C450 C 0.6176 0.82722 0.70027 0.0
C451 C 0.63813 0.86648 0.7162 0.0
N452 N 0.66387 0.89534 0.68157 0.0
N453 N 0.63423 0.84635 0.67967 0.0
C454 C 0.69934 0.96041 0.71301 0.0
H455 H 0.74538 0.94828 0.71561 0.0
H456 H 0.69773 -0.00333 0.70059 0.0
H457 H 0.6812 0.97451 0.72963 0.0
C458 C 0.57112 0.98773 0.6109 0.0
N459 N 0.6258 0.98114 0.61855 0.0
N460 N 0.6239 0.96909 0.64043 0.0
C461 C 0.56858 0.97163 0.64768 0.0
C462 C 0.53292 0.98173 0.62917 0.0
C463 C 0.55572 -0.00517 0.58634 0.0
H464 H 0.58775 0.97193 0.57544 0.0
H465 H 0.55689 0.04172 0.58201 0.0
H466 H 0.51152 0.97805 0.58285 0.0
O467 O 0.72283 0.90005 0.5992 0.0
O468 O 0.71798 0.86931 0.63502 0.0
H469 H 0.54309 0.91929 0.67609 0.0
H470 H 0.50858 0.98914 0.67503 0.0
C471 C 0.54996 0.96576 0.67199 0.0
H472 H 0.58378 0.98363 0.68342 0.0
H473 H 0.62453 0.82639 0.66417 0.0
O474 O 0.69852 0.01148 0.57198 0.0
C475 C 0.72936 0.8609 0.61408 0.0
Co476 Co 0.49239 0.68592 0.10022 0.0
Co477 Co 0.54009 0.67429 0.15096 0.0
C478 C 0.50253 0.78723 0.13384 0.0
O479 O 0.49111 0.76395 0.11467 0.0
O480 O 0.51857 0.75741 0.15098 0.0
C481 C 0.4228 0.73419 0.0638 0.0
O482 O 0.40026 0.76715 0.07982 0.0
C483 C 0.56319 0.66626 0.20119 0.0
C484 C 0.63082 0.5982 0.20129 0.0
C485 C 0.59893 0.63404 0.21551 0.0
N486 N 0.57318 0.64957 0.17952 0.0
N487 N 0.61397 0.60917 0.17979 0.0
C488 C 0.5211 0.7127 0.2078 0.0
H489 H 0.47834 0.70321 0.2 0.0
H490 H 0.51669 0.71625 0.22657 0.0
H491 H 0.5362 0.75491 0.20086 0.0
C492 C 0.44174 0.57306 0.11335 0.0
N493 N 0.46421 0.62505 0.11925 0.0
N494 N 0.48043 0.62307 0.14078 0.0
C495 C 0.46624 0.57069 0.14938 0.0
C496 C 0.44335 0.53653 0.13218 0.0
C497 C 0.43108 0.55514 0.08924 0.0
H498 H 0.47291 0.55432 0.0799 0.0
H499 H 0.40281 0.58771 0.0809 0.0
H500 H 0.41058 0.51154 0.08831 0.0
O501 O 0.57383 0.67222 0.09382 0.0
O502 O 0.60531 0.67013 0.12943 0.0
H503 H 0.52874 0.53336 0.1718 0.0
H504 H 0.45535 0.51263 0.17775 0.0
C505 C 0.48347 0.54934 0.17242 0.0
H506 H 0.47979 0.58491 0.18509 0.0
H507 H 0.63012 0.58874 0.16525 0.0
O508 O 0.4567 0.69287 0.06931 0.0
C509 C 0.61483 0.66935 0.10807 0.0
Co510 Co 0.80442 0.51041 0.59959 0.0
Co511 Co 0.81327 0.55188 0.65118 0.0
C512 C 0.70357 0.5109 0.63391 0.0
O513 O 0.7268 0.50583 0.6143 0.0
O514 O 0.73324 0.52233 0.65168 0.0
C515 C 0.76088 0.43982 0.56213 0.0
O516 O 0.72962 0.41357 0.57773 0.0
C517 C 0.83193 0.56701 0.70136 0.0
C518 C 0.87953 0.65046 0.70139 0.0
C519 C 0.85883 0.60724 0.71551 0.0
N520 N 0.83707 0.5854 0.6797 0.0
N521 N 0.86529 0.63549 0.67995 0.0
C522 C 0.80321 0.51163 0.70832 0.0
H523 H 0.79423 0.48396 0.69321 0.0
H524 H 0.83115 0.48795 0.72057 0.0
H525 H 0.76183 0.52185 0.71708 0.0
C526 C 0.91831 0.46162 0.61181 0.0
N527 N 0.8662 0.4827 0.61805 0.0
N528 N 0.86827 0.49782 0.63973 0.0
C529 C 0.92108 0.48496 0.64802 0.0
C530 C 0.95495 0.46317 0.63056 0.0
C531 C 0.93551 0.4514 0.58758 0.0
H532 H 0.92587 0.4908 0.57739 0.0
H533 H 0.90912 0.41526 0.58059 0.0
H534 H 0.98215 0.44029 0.58606 0.0
O535 O 0.81509 0.59318 0.59444 0.0
O536 O 0.80891 0.61933 0.63081 0.0
H537 H 0.94832 0.55067 0.67149 0.0
H538 H 0.98494 0.48212 0.67492 0.0
C539 C 0.94267 0.50282 0.67101 0.0
H540 H 0.91093 0.48979 0.68417 0.0
H541 H 0.87558 0.65923 0.6654 0.0
O542 O 0.79898 0.47673 0.56821 0.0
C543 C 0.81093 0.63182 0.60979 0.0
C544 C 0.91875 0.18867 1.00805 0.0
C545 C 0.93443 0.23309 0.99252 0.0
C546 C 0.93758 0.30298 0.02419 0.0
C547 C 0.93145 0.25684 0.03997 0.0
N548 N 0.92679 0.15296 0.04658 0.0
N549 N 0.97065 0.33095 0.98679 0.0
C550 C 0.92426 0.19887 0.03187 0.0
C551 C 0.94655 0.29008 1.00077 0.0
N552 N 0.89804 0.13683 1.00007 0.0
N553 N 0.93427 0.35927 0.03155 0.0
H554 H 0.98154 0.32307 0.96984 0.0
H555 H 0.98575 0.37092 0.9927 0.0
H556 H 0.92623 0.37016 0.04852 0.0
H557 H 0.93313 0.39463 0.02049 0.0
H558 H 0.88071 0.10495 1.01066 0.0
H559 H 0.89263 0.1282 0.98275 0.0
H560 H 0.92811 0.10983 0.04114 0.0
H561 H 0.93356 0.15748 0.06402 0.0
C562 C 0.18365 0.97553 0.49912 0.0
C563 C 0.24219 0.9662 0.49235 0.0
C564 C 0.27077 0.96069 0.53245 0.0
C565 C 0.21149 0.96272 0.53909 0.0
N566 N 0.1107 0.96257 0.52842 0.0
N567 N 0.33937 0.93793 0.50254 0.0
C568 C 0.16764 0.96726 0.52231 0.0
C569 C 0.28513 0.95518 0.50902 0.0
N570 N 0.14393 -0.00439 0.48377 0.0
N571 N 0.31364 0.96762 0.54829 0.0
H572 H 0.35123 0.93205 0.48555 0.0
H573 H 0.37058 0.92372 0.51407 0.0
H574 H 0.30555 0.97512 0.56551 0.0
H575 H 0.35715 0.97247 0.54396 0.0
H576 H 0.10234 0.0088 0.48835 0.0
H577 H 0.15406 0.00496 0.46687 0.0
H578 H 0.07714 0.95952 0.51663 0.0
H579 H 0.09741 0.95627 0.54522 0.0
C580 C 0.57 0.20781 0.02296 0.0
C581 C 0.55161 0.25154 0.03842 0.0
C582 C 0.54444 0.32024 1.00658 0.0
C583 C 0.55316 0.27411 0.99089 0.0
N584 N 0.56298 0.17033 0.98461 0.0
N585 N 0.50972 0.34721 0.04394 0.0
C586 C 0.56346 0.21686 0.99914 0.0
C587 C 0.53613 0.30745 0.03004 0.0
N588 N 0.59447 0.15785 0.03099 0.0
N589 N 0.54483 0.37647 0.99916 0.0
H590 H 0.4994 0.33915 0.06091 0.0
H591 H 0.4923 0.38606 0.03794 0.0
H592 H 0.55262 0.3874 0.9822 0.0
H593 H 0.54392 0.41206 1.01017 0.0
H594 H 0.6135 0.12679 0.02041 0.0
H595 H 0.60143 0.15061 0.0483 0.0
H596 H 0.56424 0.12741 0.99023 0.0
H597 H 0.55507 0.17376 0.96721 0.0
C598 C 0.16315 0.54645 0.51005 0.0
C599 C 0.20637 0.55453 0.49318 0.0
C600 C 0.27722 0.57576 0.52331 0.0
C601 C 0.23619 0.55911 0.54005 0.0
N602 N 0.14309 0.51529 0.54847 0.0
N603 N 0.30836 0.56489 0.48423 0.0
C604 C 0.17973 0.5412 0.53325 0.0
C605 C 0.26447 0.56641 0.49988 0.0
N606 N 0.10605 0.54463 0.50398 0.0
N607 N 0.32812 0.60124 0.52974 0.0
H608 H 0.30213 0.55497 0.46709 0.0
H609 H 0.35195 0.56728 0.48872 0.0
H610 H 0.33842 0.6097 0.54672 0.0
H611 H 0.35717 0.61932 0.51815 0.0
H612 H 0.07245 0.54435 0.51585 0.0
H613 H 0.09217 0.54974 0.48721 0.0
H614 H 0.10397 0.49625 0.54368 0.0
H615 H 0.15415 0.50674 0.56532 0.0
C616 C 0.03021 0.71718 0.03446 0.0
C617 C 0.02512 0.77684 0.04064 0.0
C618 C 0.0146 0.8024 1.00036 0.0
C619 C 0.02695 0.74382 0.99413 0.0
N620 N 0.05752 0.64781 1.00529 0.0
N621 N 0.02211 0.87743 0.02928 0.0
C622 C 0.03809 0.7019 1.01121 0.0
C623 C 0.02026 0.81986 0.02351 0.0
N624 N 0.02392 0.67468 0.05053 0.0
N625 N -0.00592 0.84065 0.98449 0.0
H626 H 0.02652 0.89178 0.04606 0.0
H627 H 0.02476 0.91064 0.0173 0.0
H628 H 0.98642 0.82929 0.96757 0.0
H629 H 0.97882 0.88197 0.98863 0.0
H630 H 0.02129 0.63063 0.04648 0.0
H631 H 0.01485 0.6833 0.0676 0.0
H632 H 0.07193 0.6175 0.01717 0.0
H633 H 0.06471 0.63533 0.98844 0.0
C634 C 0.69742 0.05034 0.50153 0.0
C635 C 0.75328 0.06496 0.49302 0.0
C636 C 0.78818 0.07771 0.53217 0.0
C637 C 0.73114 0.06776 0.54053 0.0
N638 N 0.62905 0.06013 0.53259 0.0
N639 N 0.84762 0.10608 0.5 0.0
C640 C 0.68498 0.05917 0.52499 0.0
C641 C 0.7973 0.08308 0.50829 0.0
N642 N 0.65738 0.02416 0.48776 0.0
N643 N 0.83438 0.07808 0.54672 0.0
H644 H 0.85519 0.1116 0.48262 0.0
H645 H 0.87898 0.12511 0.51037 0.0
H646 H 0.83063 0.0719 0.56422 0.0
H647 H 0.87723 0.07879 0.54114 0.0
H648 H 0.61849 0.00725 0.49387 0.0
H649 H 0.66514 0.0135 0.47078 0.0
H650 H 0.59343 0.05933 0.52171 0.0
H651 H 0.61848 0.06829 0.54957 0.0
C652 C 0.41186 0.71844 0.99944 0.0
C653 C 0.41808 0.77708 0.99207 0.0
C654 C 0.42909 0.80783 0.03187 0.0
C655 C 0.41666 0.75025 0.0393 0.0
N656 N 0.38194 0.6543 0.0299 0.0
N657 N 0.41827 0.87897 1.00184 0.0
C658 C 0.4034 0.70671 0.02298 0.0
C659 C 0.42201 0.82222 1.00849 0.0
N660 N 0.41813 0.6734 0.9844 0.0
N661 N 0.45161 0.84796 0.04663 0.0
H662 H 0.41161 0.89109 0.98494 0.0
H663 H 0.41548 0.91341 1.01336 0.0
H664 H 0.46143 0.83892 0.06356 0.0
H665 H 0.46673 0.88846 0.04138 0.0
H666 H 0.41977 0.63006 0.98949 0.0
H667 H 0.42834 0.67898 0.96727 0.0
H668 H 0.36654 0.62298 0.01857 0.0
H669 H 0.37365 0.64483 0.04695 0.0
C670 C 0.78063 0.43305 0.49785 0.0
C671 C 0.72231 0.43529 0.49001 0.0
C672 C 0.6888 0.44151 0.52962 0.0
C673 C 0.7466 0.4334 0.53746 0.0
N674 N 0.84508 0.40662 0.52865 0.0
N675 N 0.62065 0.42671 0.49882 0.0
C676 C 0.79172 0.42437 0.52143 0.0
C677 C 0.67632 0.43466 0.50604 0.0
N678 N 0.82564 0.44322 0.48325 0.0
N679 N 0.64633 0.45976 0.54422 0.0
H680 H 0.61012 0.41992 0.48175 0.0
H681 H 0.58605 0.42051 0.50997 0.0
H682 H 0.65357 0.46909 0.56135 0.0
H683 H 0.60515 0.47191 0.53876 0.0
H684 H 0.86832 0.44793 0.48872 0.0
H685 H 0.82017 0.4534 0.46611 0.0
H686 H 0.87802 0.39423 0.51749 0.0
H687 H 0.8542 0.39815 0.54571 0.0
C688 C 0.91862 0.12513 0.13163 0.0
C689 C 0.96014 0.15024 0.1466 0.0
C690 C -0.00488 0.05331 0.15674 0.0
C691 C 0.95681 0.02801 0.14067 0.0
N692 N 0.87166 0.03764 0.11722 0.0
N693 N 0.01157 0.13489 0.18187 0.0
C694 C 0.91523 0.06331 0.12939 0.0
C695 C 0.99039 0.11342 0.16185 0.0
N696 N 0.88199 0.16079 0.11992 0.0
N697 N 0.03708 0.02033 0.16682 0.0
H698 H 0.00118 0.17638 0.18776 0.0
H699 H 0.03093 0.1088 0.19419 0.0
H700 H 0.04241 0.97609 0.16347 0.0
H701 H 0.06979 0.03819 0.17687 0.0
H702 H 0.85572 0.14721 0.10654 0.0
H703 H 0.87815 0.20491 0.12389 0.0
H704 H 0.83723 0.06017 0.11001 0.0
H705 H 0.86764 0.99268 0.11551 0.0
C706 C 0.37479 0.94148 0.6412 0.0
C707 C 0.34576 0.98775 0.63026 0.0
C708 C 0.43885 0.03122 0.61996 0.0
C709 C 0.46827 0.98263 0.629 0.0
N710 N 0.46239 0.88347 0.64245 0.0
N711 N 0.35155 0.06392 0.60188 0.0
C712 C 0.43576 0.93522 0.63802 0.0
C713 C 0.37814 0.02853 0.61727 0.0
N714 N 0.34442 0.90359 0.65448 0.0
N715 N 0.46803 0.08126 0.61493 0.0
H716 H 0.3075 0.06188 0.59847 0.0
H717 H 0.3745 0.09067 0.59075 0.0
H718 H 0.51224 0.08653 0.6179 0.0
H719 H 0.44698 0.11951 0.61023 0.0
H720 H 0.3643 0.87244 0.66469 0.0
H721 H 0.29951 0.90605 0.65635 0.0
H722 H 0.4399 0.84621 0.64727 0.0
H723 H 0.50609 0.87615 0.63895 0.0
C724 C 0.50058 0.44396 0.12887 0.0
C725 C 0.44611 0.47192 0.13187 0.0
C726 C 0.39866 0.37715 0.13576 0.0
C727 C 0.45378 0.34954 0.13467 0.0
N728 N 0.55775 0.35629 0.13372 0.0
N729 N 0.34475 0.46668 0.14132 0.0
C730 C 0.50492 0.38291 0.1322 0.0
C731 C 0.39555 0.43893 0.13628 0.0
N732 N 0.54796 0.47557 0.12235 0.0
N733 N 0.34915 0.34449 0.13508 0.0
H734 H 0.34047 0.51184 0.14104 0.0
H735 H 0.30804 0.44528 0.14731 0.0
H736 H 0.34919 0.29917 0.13458 0.0
H737 H 0.30795 0.36224 0.13314 0.0
H738 H 0.58711 0.45689 0.11744 0.0
H739 H 0.54714 0.52046 0.12003 0.0
H740 H 0.59684 0.37876 0.13451 0.0
H741 H 0.56233 0.31164 0.13628 0.0
C742 C 0.10745 0.5247 0.63242 0.0
C743 C 0.14036 0.47325 0.63501 0.0
C744 C 0.05154 0.41461 0.6346 0.0
C745 C 0.01912 0.46564 0.63033 0.0
N746 N 0.01595 0.56823 0.62165 0.0
N747 N 0.14567 0.3682 0.63431 0.0
C748 C 0.04704 0.52046 0.62818 0.0
C749 C 0.11299 0.41782 0.63504 0.0
N750 N 0.13389 0.57761 0.63465 0.0
N751 N 0.02354 0.36329 0.63866 0.0
H752 H 0.19083 0.36825 0.6346 0.0
H753 H 0.12827 0.32701 0.63155 0.0
H754 H 0.97864 0.35889 0.63755 0.0
H755 H 0.04436 0.32611 0.64458 0.0
H756 H 0.11153 0.61688 0.63532 0.0
H757 H 0.17814 0.582 0.63784 0.0
H758 H 0.03477 0.6079 0.61743 0.0
H759 H 0.9715 0.56723 0.61857 0.0
C760 C 0.97148 0.42854 0.90559 0.0
C761 C 0.02342 0.46155 0.90441 0.0
C762 C 0.08024 0.37232 0.90021 0.0
C763 C 0.02788 0.33984 0.89945 0.0
N764 N 0.92375 0.33645 0.89817 0.0
N765 N 0.12626 0.46696 0.89785 0.0
C766 C 0.97347 0.36783 0.90128 0.0
C767 C 0.07758 0.43403 0.90093 0.0
N768 N 0.92038 0.45516 0.91118 0.0
N769 N 0.13238 0.34417 0.90132 0.0
H770 H 0.12622 0.51221 0.89924 0.0
H771 H 0.16581 0.44989 0.89253 0.0
H772 H 0.1364 0.29903 0.9007 0.0
H773 H 0.17147 0.36517 0.90458 0.0
H774 H 0.88236 0.43266 0.91478 0.0
H775 H 0.91672 0.49974 0.91406 0.0
H776 H 0.8828 0.35507 0.89688 0.0
H777 H 0.92386 0.29184 0.89487 0.0
C778 C 0.05728 0.0687 0.39265 0.0
C779 C 0.02572 0.0183 0.39862 0.0
C780 C 0.11458 0.95963 0.397 0.0
C781 C 0.14664 0.01091 0.39294 0.0
N782 N 0.15075 0.11552 0.38984 0.0
N783 N 0.02342 0.91654 0.40873 0.0
C784 C 0.11859 0.06578 0.39142 0.0
C785 C 0.05411 0.96384 0.40141 0.0
N786 N 0.02852 0.11906 0.38765 0.0
N787 N 0.14202 0.90697 0.39624 0.0
H788 H 0.97893 0.91744 0.41175 0.0
H789 H 0.04236 0.87729 0.41337 0.0
H790 H 0.18636 0.903 0.3931 0.0
H791 H 0.12062 0.8672 0.39685 0.0
H792 H 0.04846 0.15529 0.38049 0.0
H793 H 0.98369 0.12342 0.38921 0.0
H794 H 0.13337 0.15684 0.3922 0.0
H795 H 0.1956 0.11556 0.38777 0.0
C796 C 0.55476 0.12856 0.90183 0.0
C797 C 0.51742 0.15704 0.88619 0.0
C798 C 0.46769 0.06566 0.87843 0.0
C799 C 0.50278 0.03697 0.8947 0.0
N800 N 0.59071 0.03714 0.91699 0.0
N801 N 0.46493 0.14362 0.85106 0.0
C802 C 0.54977 0.06721 0.90503 0.0
C803 C 0.48221 0.12278 0.8717 0.0
N804 N 0.59519 0.16035 0.91335 0.0
N805 N 0.42036 0.0385 0.86938 0.0
H806 H 0.48131 0.18232 0.84442 0.0
H807 H 0.44191 0.11861 0.83932 0.0
H808 H 0.40771 -0.00332 0.87411 0.0
H809 H 0.39084 0.05983 0.85888 0.0
H810 H 0.61856 0.14473 0.9272 0.0
H811 H 0.60471 0.20322 0.90889 0.0
H812 H 0.62866 0.05573 0.9232 0.0
H813 H 0.58906 0.99226 0.91931 0.0
C814 C 0.4172 0.56506 0.40804 0.0
C815 C 0.45003 0.51498 0.4022 0.0
C816 C 0.36241 0.46515 0.38928 0.0
C817 C 0.32879 0.51404 0.3963 0.0
N818 N 0.3223 0.60745 0.41474 0.0
N819 N 0.4545 0.41445 0.391 0.0
C820 C 0.35571 0.56314 0.40641 0.0
C821 C 0.42276 0.46419 0.39389 0.0
N822 N 0.44504 0.61478 0.41465 0.0
N823 N 0.33687 0.41956 0.37813 0.0
H824 H 0.49902 0.41243 0.39394 0.0
H825 H 0.43637 0.37391 0.38763 0.0
H826 H 0.2926 0.41635 0.37518 0.0
H827 H 0.35999 0.38636 0.37018 0.0
H828 H 0.42449 0.65477 0.41657 0.0
H829 H 0.48975 0.61687 0.41711 0.0
H830 H 0.33835 0.64109 0.42481 0.0
H831 H 0.27749 0.60905 0.41251 0.0
C832 C 0.02635 0.87047 0.88605 0.0
C833 C 0.97902 0.83924 0.89509 0.0
C834 C 0.92823 0.93053 0.90311 0.0
C835 C 0.97797 0.9618 0.89649 0.0
N836 N 0.08089 0.95987 0.88846 0.0
N837 N 0.89302 0.84108 0.91891 0.0
C838 C 0.029 0.9315 0.88968 0.0
C839 C 0.93218 0.86959 0.90556 0.0
N840 N 0.06927 0.84196 0.87457 0.0
N841 N 0.87701 0.95874 0.90692 0.0
H842 H 0.89431 0.79652 0.92174 0.0
H843 H 0.86215 0.86258 0.92879 0.0
H844 H 0.8723 0.00361 0.90512 0.0
H845 H 0.83816 0.93684 0.90976 0.0
H846 H 0.10217 0.8636 0.86586 0.0
H847 H 0.06911 0.79695 0.87223 0.0
H848 H 0.12005 0.93864 0.88546 0.0
H849 H 0.08583 0.00338 0.89305 0.0
C850 C 0.61425 0.03021 0.40067 0.0
C851 C 0.64637 0.97815 0.39808 0.0
C852 C 0.55766 0.9203 0.40279 0.0
C853 C 0.5251 0.97234 0.40354 0.0
N854 N 0.52023 0.07706 0.40073 0.0
N855 N 0.6493 0.87335 0.39455 0.0
C856 C 0.55279 0.02744 0.40184 0.0
C857 C 0.6182 0.92307 0.39842 0.0
N858 N 0.64269 0.08218 0.40243 0.0
N859 N 0.53079 0.86836 0.40691 0.0
H860 H 0.69407 0.87279 0.39235 0.0
H861 H 0.63059 0.83267 0.39207 0.0
H862 H 0.48637 0.86498 0.40995 0.0
H863 H 0.55271 0.82927 0.40918 0.0
H864 H 0.62265 0.12088 0.40721 0.0
H865 H 0.68743 0.08611 0.40037 0.0
H866 H 0.53718 0.11763 0.39661 0.0
H867 H 0.47532 0.07751 0.40255 0.0
C868 C 0.51274 0.55633 0.89421 0.0
C869 C 0.45903 0.53097 0.90022 0.0
C870 C 0.41366 0.62748 0.90235 0.0
C871 C 0.46657 0.65272 0.89508 0.0
N872 N 0.56597 0.64153 0.88235 0.0
N873 N 0.35697 0.53976 0.9082 0.0
C874 C 0.51588 0.6172 0.89041 0.0
C875 C 0.40903 0.56583 0.90379 0.0
N876 N 0.56124 0.52223 0.89274 0.0
N877 N 0.3683 0.66267 0.90827 0.0
H878 H 0.35259 0.49505 0.91059 0.0
H879 H 0.31755 0.56168 0.90837 0.0
H880 H 0.36913 0.70767 0.90607 0.0
H881 H 0.3309 0.648 0.91632 0.0
H882 H 0.60318 0.53849 0.89154 0.0
H883 H 0.56042 0.47711 0.89431 0.0
H884 H 0.60021 0.61761 0.8756 0.0
H885 H 0.57297 0.68601 0.88104 0.0
C886 C 0.86205 0.53333 0.37706 0.0
C887 C 0.82795 0.48743 0.38613 0.0
C888 C 0.91679 0.4431 0.40126 0.0
C889 C 0.94724 0.49547 0.39656 0.0
N890 N 0.94594 0.59425 0.38297 0.0
N891 N 0.82346 0.39564 0.40561 0.0
C892 C 0.91883 0.54183 0.38545 0.0
C893 C 0.85572 0.44119 0.39781 0.0
N894 N 0.84174 0.5674 0.3598 0.0
N895 N 0.94627 0.39481 0.40825 0.0
H896 H 0.77991 0.39043 0.40127 0.0
H897 H 0.83927 0.36441 0.41681 0.0
H898 H 0.99091 0.39441 0.41091 0.0
H899 H 0.92728 0.35394 0.40974 0.0
H900 H 0.86687 0.59927 0.35197 0.0
H901 H 0.80425 0.55777 0.35072 0.0
H902 H 0.92478 0.63116 0.37694 0.0
H903 H 0.98769 0.60217 0.38904 0.0
C904 C 0.04827 0.61992 0.14091 0.0
C905 C -0.00329 0.64492 0.13239 0.0
C906 C 0.95925 0.54805 0.12334 0.0
C907 C 0.01275 0.52293 0.12965 0.0
N908 N 0.11353 0.53731 0.13933 0.0
N909 N 0.91328 0.63273 0.10784 0.0
C910 C 0.05899 0.55953 0.13703 0.0
C911 C 0.95532 0.60905 0.12124 0.0
N912 N 0.08689 0.65361 0.15257 0.0
N913 N 0.91113 0.5143 0.12035 0.0
H914 H 0.90961 0.67715 0.10508 0.0
H915 H 0.8858 0.60761 0.09773 0.0
H916 H 0.91098 0.46951 0.12302 0.0
H917 H 0.87002 0.5319 0.11776 0.0
H918 H 0.12257 0.6366 0.16113 0.0
H919 H 0.08072 0.69816 0.155 0.0
H920 H 0.14971 0.56291 0.14277 0.0
H921 H 0.12355 0.49416 0.13551 0.0
C922 C 0.8692 0.07597 0.63091 0.0
C923 C 0.84253 0.03766 0.64673 0.0
C924 C 0.9375 0.00095 0.65815 0.0
C925 C 0.96426 0.03549 0.64115 0.0
N926 N 0.95825 0.11773 0.61586 0.0
N927 N 0.85534 0.99213 0.68337 0.0
C928 C 0.93088 0.07676 0.62883 0.0
C929 C 0.8778 0.00884 0.6629 0.0
N930 N 0.8352 0.11215 0.61827 0.0
N931 N 0.96859 0.95949 0.66942 0.0
H932 H 0.81432 0.00521 0.68875 0.0
H933 H 0.88038 0.97406 0.6963 0.0
H934 H 0.01243 0.95176 0.66634 0.0
H935 H 0.94944 0.92934 0.68031 0.0
H936 H 0.84986 0.13588 0.60435 0.0
H937 H 0.79142 0.1183 0.62205 0.0
H938 H 0.93716 0.15186 0.60777 0.0
H939 H 0.0032 0.12016 0.61439 0.0
C940 C 0.56417 0.87679 0.13437 0.0
C941 C 0.508 0.85122 0.13443 0.0
C942 C 0.46426 0.94652 0.1276 0.0
C943 C 0.5199 0.9727 0.12969 0.0
N944 N 0.62172 0.96459 0.13789 0.0
N945 N 0.40435 0.86138 0.1341 0.0
C946 C 0.56957 0.93833 0.1339 0.0
C947 C 0.45794 0.88604 0.13185 0.0
N948 N 0.61242 0.84225 0.13359 0.0
N949 N 0.41764 0.97929 0.12114 0.0
H950 H 0.39847 0.81712 0.13723 0.0
H951 H 0.36603 0.88517 0.13485 0.0
H952 H 0.41998 0.02382 0.11808 0.0
H953 H 0.37747 0.96173 0.11696 0.0
H954 H 0.654 0.85823 0.13075 0.0
H955 H 0.61079 0.79697 0.13394 0.0
H956 H 0.65805 0.94241 0.14378 0.0
H957 H 0.62769 0.00947 0.13676 0.0
C958 C 0.5441 0.47117 0.62882 0.0
C959 C 0.51829 0.52704 0.6314 0.0
C960 C 0.6136 0.57087 0.63783 0.0
C961 C 0.63965 0.51514 0.63482 0.0
N962 N 0.63198 0.41383 0.62489 0.0
N963 N 0.52704 0.63076 0.63496 0.0
C964 C 0.60547 0.46572 0.62958 0.0
C965 C 0.55269 0.5771 0.635 0.0
N966 N 0.50975 0.42317 0.62604 0.0
N967 N 0.6472 0.61796 0.64325 0.0
H968 H 0.48245 0.63656 0.63317 0.0
H969 H 0.54965 0.66986 0.63503 0.0
H970 H 0.69227 0.61688 0.64374 0.0
H971 H 0.63072 0.65802 0.64835 0.0
H972 H 0.52476 0.38062 0.62709 0.0
H973 H 0.46509 0.4254 0.62363 0.0
H974 H 0.61078 0.37783 0.61813 0.0
H975 H 0.67646 0.40737 0.62676 0.0
C976 C 0.10495 0.4128 0.2733 0.0
C977 C 0.14758 0.38568 0.287 0.0
C978 C 0.18485 0.33296 0.25369 0.0
C979 C 0.14292 0.36109 0.23983 0.0
N980 N 0.07378 0.43888 0.23533 0.0
N981 N 0.2346 0.32873 0.29019 0.0
C982 C 0.10593 0.40419 0.24932 0.0
C983 C 0.18984 0.34869 0.27711 0.0
N984 N 0.06271 0.44591 0.28328 0.0
N985 N 0.21842 0.28971 0.24463 0.0
H986 H 0.23872 0.33882 0.30744 0.0
H987 H 0.27011 0.30617 0.28376 0.0
H988 H 0.2147 0.27552 0.22782 0.0
H989 H 0.24746 0.26501 0.25403 0.0
H990 H 0.02621 0.46066 0.27463 0.0
H991 H 0.06232 0.45586 0.30062 0.0
H992 H 0.05069 0.47503 0.24099 0.0
H993 H 0.07454 0.43489 0.21768 0.0
C994 C 0.11205 0.11723 0.75569 0.0
C995 C 0.16997 0.11627 0.74758 0.0
C996 C 0.20598 0.12129 0.78681 0.0
C997 C 0.14803 0.11871 0.79501 0.0
N998 N 0.04712 0.09929 0.78731 0.0
N999 N 0.2719 0.10596 0.75505 0.0
C1000 C 0.1013 0.11251 0.77947 0.0
C1001 C 0.21693 0.11448 0.76308 0.0
N1002 N 0.06728 0.12416 0.74073 0.0
N1003 N 0.25033 0.13266 0.8016 0.0
H1004 H 0.28128 0.10165 0.73774 0.0
H1005 H 0.30744 0.09811 0.76549 0.0
H1006 H 0.24379 0.14211 0.81878 0.0
H1007 H 0.29331 0.13747 0.79667 0.0
H1008 H 0.02476 0.13199 0.74584 0.0
H1009 H 0.07326 0.12645 0.72316 0.0
H1010 H 0.01277 0.08827 0.77665 0.0
H1011 H 0.03771 0.09368 0.80452 0.0
C1012 C 0.31792 0.12202 0.27428 0.0
C1013 C 0.36144 0.08802 0.28488 0.0
C1014 C 0.40937 0.07293 0.24802 0.0
C1015 C 0.36511 0.1059 0.23726 0.0
N1016 N 0.27134 0.15194 0.23923 0.0
N1017 N 0.44183 0.02184 0.28185 0.0
C1018 C 0.31749 0.12731 0.25013 0.0
C1019 C 0.40534 0.06089 0.27173 0.0
N1020 N 0.27855 0.15147 0.28737 0.0
N1021 N 0.45527 0.05301 0.23554 0.0
H1022 H 0.43952 0.01149 0.29912 0.0
H1023 H 0.47108 -0.00413 0.27297 0.0
H1024 H 0.45745 0.05681 0.21793 0.0
H1025 H 0.4926 0.03539 0.24266 0.0
H1026 H 0.24973 0.18204 0.2809 0.0
H1027 H 0.27707 0.14828 0.30507 0.0
H1028 H 0.23188 0.16022 0.24722 0.0
H1029 H 0.27087 0.16044 0.2218 0.0
C1030 C 0.33829 0.30258 0.77271 0.0
C1031 C 0.35337 0.34801 0.78793 0.0
C1032 C 0.37172 0.41262 0.75542 0.0
C1033 C 0.35122 0.36876 0.74036 0.0
N1034 N 0.3046 0.27585 0.73506 0.0
N1035 N 0.37634 0.449 0.79422 0.0
C1036 C 0.33161 0.31477 0.74913 0.0
C1037 C 0.3678 0.40389 0.77941 0.0
N1038 N 0.33211 0.24721 0.78069 0.0
N1039 N 0.39705 0.46161 0.74683 0.0
H1040 H 0.37475 0.444 0.81185 0.0
H1041 H 0.3806 0.49208 0.78907 0.0
H1042 H 0.4006 0.46967 0.72942 0.0
H1043 H 0.41859 0.49209 0.75686 0.0
H1044 H 0.32821 0.21123 0.77002 0.0
H1045 H 0.33665 0.23659 0.79786 0.0
H1046 H 0.28408 0.23842 0.74092 0.0
H1047 H 0.29761 0.28374 0.71779 0.0
C1048 C 0.83142 0.63658 0.77818 0.0
C1049 C 0.88327 0.61561 0.7881 0.0
C1050 C 0.91996 0.58915 0.75021 0.0
C1051 C 0.86605 0.60602 0.74059 0.0
N1052 N 0.76684 0.6358 0.74575 0.0
N1053 N 0.974 0.56465 0.78436 0.0
C1054 C 0.82067 0.62666 0.75469 0.0
C1055 C 0.92698 0.59006 0.77433 0.0
N1056 N 0.79344 0.66832 0.79104 0.0
N1057 N 0.96448 0.57259 0.73625 0.0
H1058 H 0.98094 0.56538 0.80191 0.0
H1059 H 0.00416 0.53955 0.77555 0.0
H1060 H 0.95987 0.568 0.71867 0.0
H1061 H 0.00677 0.56639 0.74188 0.0
H1062 H 0.75833 0.69042 0.78414 0.0
H1063 H 0.80026 0.6776 0.80823 0.0
H1064 H 0.73024 0.64222 0.75583 0.0
H1065 H 0.75766 0.63181 0.72843 0.0
C1066 C 0.86067 0.7808 0.26364 0.0
C1067 C 0.86755 0.82747 0.24818 0.0
C1068 C 0.87869 0.89528 0.28021 0.0
C1069 C 0.864 0.85 0.29556 0.0
N1070 N 0.83341 0.75094 0.30173 0.0
N1071 N 0.87568 0.93053 0.2414 0.0
C1072 C 0.85323 0.79294 0.28724 0.0
C1073 C 0.87467 0.88515 0.25636 0.0
N1074 N 0.86184 0.72486 0.25574 0.0
N1075 N 0.8988 0.9472 0.28837 0.0
H1076 H 0.87354 0.92481 0.22382 0.0
H1077 H 0.8741 0.97393 0.24647 0.0
H1078 H 0.90359 0.95593 0.30569 0.0
H1079 H 0.9159 0.97956 0.27796 0.0
H1080 H 0.86353 0.68868 0.26634 0.0
H1081 H 0.86666 0.71463 0.23852 0.0
H1082 H 0.82145 0.70947 0.2965 0.0
H1083 H 0.82406 0.75882 0.31883 0.0
C1084 C 0.63818 0.79893 0.77505 0.0
C1085 C 0.61031 0.84232 0.78818 0.0
C1086 C 0.59572 0.90039 0.75363 0.0
C1087 C 0.6306 0.86048 0.74122 0.0
N1088 N 0.69445 0.77747 0.74138 0.0
N1089 N 0.56902 0.93845 0.79073 0.0
C1090 C 0.6543 0.8112 0.75226 0.0
C1091 C 0.59069 0.89425 0.77769 0.0
N1092 N 0.64774 0.74518 0.78412 0.0
N1093 N 0.56575 0.94277 0.74242 0.0
H1094 H 0.56414 0.93524 0.80832 0.0
H1095 H 0.56002 0.97968 0.78433 0.0
H1096 H 0.56802 0.94833 0.72483 0.0
H1097 H 0.53496 0.96916 0.75029 0.0
H1098 H 0.66061 0.70976 0.77425 0.0
H1099 H 0.63653 0.73448 0.80081 0.0
H1100 H 0.71798 0.74532 0.74971 0.0
H1101 H 0.70891 0.78575 0.72487 0.0
C1102 C 0.65947 0.65338 0.25018 0.0
C1103 C 0.60534 0.63668 0.24075 0.0
C1104 C 0.56734 0.62002 0.27934 0.0
C1105 C 0.62303 0.63192 0.28847 0.0
N1106 N 0.72484 0.64805 0.2823 0.0
N1107 N 0.51067 0.59425 0.24601 0.0
C1108 C 0.6699 0.64504 0.27379 0.0
C1109 C 0.55989 0.61742 0.25524 0.0
N1110 N 0.70019 0.67956 0.23674 0.0
N1111 N 0.52142 0.61191 0.2937 0.0
H1112 H 0.50372 0.59131 0.22851 0.0
H1113 H 0.47876 0.57368 0.2556 0.0
H1114 H 0.5257 0.61123 0.31138 0.0
H1115 H 0.47862 0.60973 0.28817 0.0
H1116 H 0.73799 0.69813 0.24316 0.0
H1117 H 0.6936 0.6881 0.2195 0.0
H1118 H 0.76139 0.64983 0.27192 0.0
H1119 H 0.7342 0.64296 0.29956 0.0
C1120 C 0.27541 0.2087 0.08264 0.0
C1121 C 0.2911 0.16245 0.09717 0.0
C1122 C 0.19393 0.16231 0.11342 0.0
C1123 C 0.18609 0.21893 0.1043 0.0
N1124 N 0.21708 0.29546 0.07893 0.0
N1125 N 0.26192 0.08401 0.12128 0.0
C1126 C 0.22547 0.24156 0.08808 0.0
C1127 C 0.24842 0.13482 0.11056 0.0
N1128 N 0.30793 0.2208 0.06384 0.0
N1129 N 0.14948 0.13548 0.12467 0.0
H1130 H 0.301 0.06254 0.11806 0.0
H1131 H 0.23573 0.06396 0.13336 0.0
H1132 H 0.10869 0.15446 0.12658 0.0
H1133 H 0.15125 0.09293 0.1306 0.0
H1134 H 0.29643 0.25222 0.05192 0.0
H1135 H 0.34178 0.19387 0.0586 0.0
H1136 H 0.24802 0.31641 0.06896 0.0
H1137 H 0.1809 0.321 0.08259 0.0
C1138 C 0.27199 0.289 0.58516 0.0
C1139 C 0.3187 0.30414 0.59951 0.0
C1140 C 0.31425 0.21001 0.61809 0.0
C1141 C 0.25873 0.20147 0.6079 0.0
N1142 N 0.1855 0.23047 0.58084 0.0
N1143 N 0.39899 0.27277 0.62178 0.0
C1144 C 0.2384 0.23943 0.59068 0.0
C1145 C 0.34511 0.26169 0.61319 0.0
N1146 N 0.2606 0.32151 0.56628 0.0
N1147 N 0.33587 0.17017 0.63312 0.0
H1148 H 0.42111 0.31101 0.61769 0.0
H1149 H 0.42316 0.2438 0.63145 0.0
H1150 H 0.31565 0.13074 0.63656 0.0
H1151 H 0.37369 0.1757 0.64246 0.0
H1152 H 0.22912 0.31064 0.55432 0.0
H1153 H 0.28796 0.35499 0.56106 0.0
H1154 H 0.16565 0.26045 0.57012 0.0
H1155 H 0.15942 0.19474 0.58459 0.0
C1156 C 0.24499 0.13354 0.92164 0.0
C1157 C 0.20127 0.15852 0.93532 0.0
C1158 C 0.26228 0.24128 0.9444 0.0
C1159 C 0.30197 0.22134 0.92774 0.0
N1160 N 0.34341 0.13993 0.90736 0.0
N1161 N 0.18184 0.21538 0.96892 0.0
C1162 C 0.29759 0.1642 0.91869 0.0
C1163 C 0.21467 0.20536 0.94999 0.0
N1164 N 0.23385 0.0827 0.91042 0.0
N1165 N 0.26806 0.29536 0.95379 0.0
H1166 H 0.14948 0.18659 0.97404 0.0
H1167 H 0.19167 0.24732 0.98092 0.0
H1168 H 0.3027 0.32285 0.95005 0.0
H1169 H 0.23658 0.31426 0.96415 0.0
H1170 H 0.26071 0.06492 0.89798 0.0
H1171 H 0.19592 0.05916 0.9135 0.0
H1172 H 0.34418 0.09702 0.90172 0.0
H1173 H 0.38286 0.16145 0.90532 0.0
C1174 C 0.27309 0.29319 0.43205 0.0
C1175 C 0.22803 0.30353 0.41591 0.0
C1176 C 0.2673 0.2273 0.392 0.0
C1177 C 0.30118 0.2064 0.4103 0.0
N1178 N 0.34236 0.22415 0.44739 0.0
N1179 N 0.17456 0.26842 0.38329 0.0
C1180 C 0.30563 0.2406 0.43039 0.0
C1181 C 0.22243 0.26628 0.39688 0.0
N1182 N 0.28785 0.33453 0.44777 0.0
N1183 N 0.2792 0.21259 0.36995 0.0
H1184 H 0.13831 0.29313 0.38769 0.0
H1185 H 0.16865 0.24042 0.36948 0.0
H1186 H 0.31764 0.19197 0.36527 0.0
H1187 H 0.25587 0.22951 0.35627 0.0
H1188 H 0.32415 0.33115 0.4582 0.0
H1189 H 0.26746 0.3747 0.44914 0.0
H1190 H 0.34175 0.24275 0.46359 0.0
H1191 H 0.37306 0.19132 0.44516 0.0
C1192 C 0.74441 0.68393 0.93329 0.0
C1193 C 0.7858 0.70835 0.91823 0.0
C1194 C 0.72359 0.79282 0.91258 0.0
C1195 C 0.6786 0.76395 0.92405 0.0
N1196 N 0.64309 0.67991 0.94422 0.0
N1197 N 0.80938 0.78232 0.89002 0.0
C1198 C 0.6882 0.70921 0.93449 0.0
C1199 C 0.774 0.76174 0.90686 0.0
N1200 N 0.75829 0.63619 0.94595 0.0
N1201 N 0.71765 0.8502 0.90701 0.0
H1202 H 0.84873 0.76374 0.88549 0.0
H1203 H 0.79778 0.81677 0.87946 0.0
H1204 H 0.68084 0.87421 0.91137 0.0
H1205 H 0.75128 0.87506 0.90029 0.0
H1206 H 0.73182 0.62001 0.95883 0.0
H1207 H 0.79805 0.61492 0.94451 0.0
H1208 H 0.64591 0.6369 0.94961 0.0
H1209 H 0.60168 0.6976 0.94573 0.0
C1210 C 0.70429 0.74219 0.43729 0.0
C1211 C 0.73645 0.69545 0.42816 0.0
C1212 C 0.82493 0.7536 0.42769 0.0
C1213 C 0.79096 0.80265 0.43339 0.0
N1214 N 0.70032 0.8454 0.44554 0.0
N1215 N 0.82828 0.64962 0.42033 0.0
C1216 C 0.73154 0.79714 0.43952 0.0
C1217 C 0.79739 0.69885 0.42532 0.0
N1218 N 0.64784 0.73372 0.44357 0.0
N1219 N 0.88267 0.76081 0.42329 0.0
H1220 H 0.80893 0.60886 0.41857 0.0
H1221 H 0.87318 0.64784 0.41928 0.0
H1222 H 0.90367 0.80044 0.42602 0.0
H1223 H 0.90974 0.72864 0.41681 0.0
H1224 H 0.62266 0.76448 0.452 0.0
H1225 H 0.62693 0.69377 0.44172 0.0
H1226 H 0.6555 0.84625 0.44725 0.0
H1227 H 0.71909 0.88597 0.44829 0.0
C1228 C 0.76877 0.67997 0.11989 0.0
C1229 C 0.77873 0.73514 0.10946 0.0
C1230 C 0.69082 0.72341 0.08676 0.0
C1231 C 0.67562 0.67571 0.10067 0.0
N1232 N 0.70709 0.59424 0.12237 0.0
N1233 N 0.75033 0.80957 0.08276 0.0
C1234 C 0.71762 0.64902 0.11444 0.0
C1235 C 0.74085 0.75632 0.09236 0.0
N1236 N 0.80646 0.65871 0.13581 0.0
N1237 N 0.65817 0.73622 0.06806 0.0
H1238 H 0.78617 0.83531 0.08664 0.0
H1239 H 0.72061 0.83026 0.0722 0.0
H1240 H 0.62451 0.70943 0.06261 0.0
H1241 H 0.66902 0.76831 0.05634 0.0
H1242 H 0.79832 0.62236 0.14581 0.0
H1243 H 0.84588 0.6782 0.13974 0.0
H1244 H 0.73687 0.56929 0.13135 0.0
H1245 H 0.66921 0.57192 0.11804 0.0
C1246 C 0.71945 0.76262 0.59702 0.0
C1247 C 0.75493 0.80525 0.60733 0.0
C1248 C 0.83516 0.73631 0.60993 0.0
C1249 C 0.79642 0.69162 0.60355 0.0
N1250 N 0.70116 0.66009 0.59156 0.0
N1251 N 0.84705 0.83626 0.62244 0.0
C1252 C 0.7388 0.70424 0.59663 0.0
C1253 C 0.81337 0.79338 0.61316 0.0
N1254 N 0.66694 0.77783 0.58806 0.0
N1255 N 0.89244 0.72348 0.61303 0.0
H1256 H 0.83318 0.8793 0.62392 0.0
H1257 H 0.88784 0.82918 0.62942 0.0
H1258 H 0.90885 0.68162 0.61054 0.0
H1259 H 0.92429 0.75445 0.6162 0.0
H1260 H 0.64169 0.74985 0.57826 0.0
H1261 H 0.65063 0.82009 0.58881 0.0
H1262 H 0.6567 0.66594 0.58968 0.0
H1263 H 0.71348 0.61661 0.59052 0.0
loop_
_geom_bond_atom_site_label_1
_geom_bond_atom_site_label_2
_geom_bond_distance
_geom_bond_site_symmetry_2
_ccdc_geom_bond_type
Co0 O3 1.970 . S
Co0 N17 1.989 . S
Co0 O25 1.967 . S
Co0 O32 1.920 . S
Co1 O4 1.966 . S
Co1 N10 2.022 . S
Co1 N18 1.993 . S
Co1 O26 1.941 . S
C2 O3 1.258 . S
C2 O4 1.263 . S
O3 Co0 1.970 . S
O3 C2 1.258 . S
O4 Co1 1.966 . S
O4 C2 1.263 . S
C5 O6 1.235 1_455 S
C5 O32 1.289 . S
O6 C5 1.235 1_655 S
C7 C9 1.400 . S
C7 N10 1.351 . S
C7 C12 1.501 . S
C8 C9 1.387 . S
C8 N11 1.341 . S
C9 C7 1.400 . S
C9 C8 1.387 . S
N10 Co1 2.022 . S
N10 C7 1.351 . S
N10 N11 1.365 . S
N11 C8 1.341 . S
N11 N10 1.365 . S
N11 H31 0.862 . S
C12 C7 1.501 . S
C12 H13 0.961 . S
C12 H14 0.961 1_455 S
C12 H15 0.960 . S
H13 C12 0.961 . S
H14 C12 0.961 1_655 S
H15 C12 0.960 . S
C16 N17 1.342 . S
C16 C20 1.401 . S
C16 C21 1.499 . S
N17 Co0 1.989 . S
N17 C16 1.342 . S
N17 N18 1.388 . S
N18 Co1 1.993 . S
N18 N17 1.388 . S
N18 C19 1.346 . S
C19 N18 1.346 . S
C19 C20 1.396 . S
C19 C29 1.510 . S
C20 C16 1.401 . S
C20 C19 1.396 . S
C21 C16 1.499 . S
C21 H22 0.959 . S
C21 H23 0.960 1_455 S
C21 H24 0.961 . S
H22 C21 0.959 . S
H23 C21 0.960 1_655 S
H24 C21 0.961 . S
O25 Co0 1.967 . S
O25 C33 1.258 . S
O26 Co1 1.941 . S
O26 C33 1.266 . S
H27 C29 0.959 . S
H28 C29 0.961 1_655 S
C29 C19 1.510 . S
C29 H27 0.959 . S
C29 H28 0.961 1_455 S
C29 H30 0.960 . S
H30 C29 0.960 . S
H31 N11 0.862 . S
O32 Co0 1.920 . S
O32 C5 1.289 . S
C33 O25 1.258 . S
C33 O26 1.266 . S
Co34 O37 1.970 . S
Co34 N51 1.989 . S
Co34 O59 1.967 . S
Co34 O66 1.920 . S
Co35 O38 1.966 . S
Co35 N44 2.022 . S
Co35 N52 1.993 . S
Co35 O60 1.941 . S
C36 O37 1.258 . S
C36 O38 1.263 . S
O37 Co34 1.970 . S
O37 C36 1.258 . S
O38 Co35 1.966 . S
O38 C36 1.263 . S
C39 O40 1.235 1_545 S
C39 O66 1.289 . S
O40 C39 1.235 1_565 S
C41 C43 1.400 . S
C41 N44 1.351 . S
C41 C46 1.501 . S
C42 C43 1.387 . S
C42 N45 1.341 . S
C43 C41 1.400 . S
C43 C42 1.387 . S
N44 Co35 2.022 . S
N44 C41 1.351 . S
N44 N45 1.365 . S
N45 C42 1.341 . S
N45 N44 1.365 . S
N45 H65 0.862 . S
C46 C41 1.501 . S
C46 H47 0.961 . S
C46 H48 0.961 1_545 S
C46 H49 0.960 . S
H47 C46 0.961 . S
H48 C46 0.961 1_565 S
H49 C46 0.960 . S
C50 N51 1.342 . S
C50 C54 1.401 . S
C50 C55 1.499 . S
N51 Co34 1.989 . S
N51 C50 1.342 . S
N51 N52 1.388 . S
N52 Co35 1.993 . S
N52 N51 1.388 . S
N52 C53 1.346 . S
C53 N52 1.346 . S
C53 C54 1.396 . S
C53 C63 1.510 . S
C54 C50 1.401 . S
C54 C53 1.396 . S
C55 C50 1.499 . S
C55 H56 0.959 . S
C55 H57 0.960 1_545 S
C55 H58 0.961 . S
H56 C55 0.959 . S
H57 C55 0.960 1_565 S
H58 C55 0.961 . S
O59 Co34 1.967 . S
O59 C67 1.258 . S
O60 Co35 1.941 . S
O60 C67 1.266 . S
H61 C63 0.959 . S
H62 C63 0.961 1_565 S
C63 C53 1.510 . S
C63 H61 0.959 . S
C63 H62 0.961 1_545 S
C63 H64 0.960 . S
H64 C63 0.960 . S
H65 N45 0.862 . S
O66 Co34 1.920 . S
O66 C39 1.289 . S
C67 O59 1.258 . S
C67 O60 1.266 . S
Co68 O71 1.970 . S
Co68 N85 1.989 . S
Co68 O93 1.967 . S
Co68 O100 1.920 . S
Co69 O72 1.966 . S
Co69 N78 2.022 . S
Co69 N86 1.993 . S
Co69 O94 1.941 . S
C70 O71 1.258 . S
C70 O72 1.263 . S
O71 Co68 1.970 . S
O71 C70 1.258 . S
O72 Co69 1.966 . S
O72 C70 1.263 . S
C73 O74 1.235 . S
C73 O100 1.289 . S
O74 C73 1.235 . S
C75 C77 1.400 . S
C75 N78 1.351 . S
C75 C80 1.501 . S
C76 C77 1.387 . S
C76 N79 1.341 . S
C77 C75 1.400 . S
C77 C76 1.387 . S
N78 Co69 2.022 . S
N78 C75 1.351 . S
N78 N79 1.365 . S
N79 C76 1.341 . S
N79 N78 1.365 . S
N79 H99 0.862 . S
C80 C75 1.501 . S
C80 H81 0.961 . S
C80 H82 0.961 . S
C80 H83 0.960 . S
H81 C80 0.961 . S
H82 C80 0.961 . S
H83 C80 0.960 . S
C84 N85 1.342 . S
C84 C88 1.401 . S
C84 C89 1.499 . S
N85 Co68 1.989 . S
N85 C84 1.342 . S
N85 N86 1.388 . S
N86 Co69 1.993 . S
N86 N85 1.388 . S
N86 C87 1.346 . S
C87 N86 1.346 . S
C87 C88 1.396 . S
C87 C97 1.510 . S
C88 C84 1.401 . S
C88 C87 1.396 . S
C89 C84 1.499 . S
C89 H90 0.959 . S
C89 H91 0.960 . S
C89 H92 0.961 . S
H90 C89 0.959 . S
H91 C89 0.960 . S
H92 C89 0.961 . S
O93 Co68 1.967 . S
O93 C101 1.258 . S
O94 Co69 1.941 . S
O94 C101 1.266 . S
H95 C97 0.959 . S
H96 C97 0.961 . S
C97 C87 1.510 . S
C97 H95 0.959 . S
C97 H96 0.961 . S
C97 H98 0.960 . S
H98 C97 0.960 . S
H99 N79 0.862 . S
O100 Co68 1.920 . S
O100 C73 1.289 . S
C101 O93 1.258 . S
C101 O94 1.266 . S
Co102 O105 1.970 . S
Co102 N119 1.989 . S
Co102 O127 1.967 . S
Co102 O134 1.920 . S
Co103 O106 1.966 . S
Co103 N112 2.022 . S
Co103 N120 1.993 . S
Co103 O128 1.941 . S
C104 O105 1.258 . S
C104 O106 1.263 . S
O105 Co102 1.970 . S
O105 C104 1.258 . S
O106 Co103 1.966 . S
O106 C104 1.263 . S
C107 O108 1.235 . S
C107 O134 1.289 . S
O108 C107 1.235 . S
C109 C111 1.400 . S
C109 N112 1.351 . S
C109 C114 1.501 . S
C110 C111 1.387 . S
C110 N113 1.341 . S
C111 C109 1.400 . S
C111 C110 1.387 . S
N112 Co103 2.022 . S
N112 C109 1.351 . S
N112 N113 1.365 . S
N113 C110 1.341 . S
N113 N112 1.365 . S
N113 H133 0.862 . S
C114 C109 1.501 . S
C114 H115 0.961 . S
C114 H116 0.961 . S
C114 H117 0.960 . S
H115 C114 0.961 . S
H116 C114 0.961 . S
H117 C114 0.960 . S
C118 N119 1.342 . S
C118 C122 1.401 . S
C118 C123 1.499 . S
N119 Co102 1.989 . S
N119 C118 1.342 . S
N119 N120 1.388 . S
N120 Co103 1.993 . S
N120 N119 1.388 . S
N120 C121 1.346 . S
C121 N120 1.346 . S
C121 C122 1.396 . S
C121 C131 1.510 . S
C122 C118 1.401 . S
C122 C121 1.396 . S
C123 C118 1.499 . S
C123 H124 0.959 . S
C123 H125 0.960 . S
C123 H126 0.961 . S
H124 C123 0.959 . S
H125 C123 0.960 . S
H126 C123 0.961 . S
O127 Co102 1.967 . S
O127 C135 1.258 . S
O128 Co103 1.941 . S
O128 C135 1.266 . S
H129 C131 0.959 . S
H130 C131 0.961 . S
C131 C121 1.510 . S
C131 H129 0.959 . S
C131 H130 0.961 . S
C131 H132 0.960 . S
H132 C131 0.960 . S
H133 N113 0.862 . S
O134 Co102 1.920 . S
O134 C107 1.289 . S
C135 O127 1.258 . S
C135 O128 1.266 . S
Co136 O139 1.970 . S
Co136 N153 1.989 . S
Co136 O161 1.967 . S
Co136 O168 1.920 . S
Co137 O140 1.966 . S
Co137 N146 2.022 . S
Co137 N154 1.993 . S
Co137 O162 1.941 . S
C138 O139 1.258 . S
C138 O140 1.263 . S
O139 Co136 1.970 . S
O139 C138 1.258 . S
O140 Co137 1.966 . S
O140 C138 1.263 . S
C141 O142 1.235 1_455 S
C141 O168 1.289 . S
O142 C141 1.235 1_655 S
C143 C145 1.400 . S
C143 N146 1.351 . S
C143 C148 1.501 . S
C144 C145 1.387 . S
C144 N147 1.341 . S
C145 C143 1.400 . S
C145 C144 1.387 . S
N146 Co137 2.022 . S
N146 C143 1.351 . S
N146 N147 1.365 . S
N147 C144 1.341 . S
N147 N146 1.365 . S
N147 H167 0.862 . S
C148 C143 1.501 . S
C148 H149 0.961 . S
C148 H150 0.961 1_455 S
C148 H151 0.960 . S
H149 C148 0.961 . S
H150 C148 0.961 1_655 S
H151 C148 0.960 . S
C152 N153 1.342 . S
C152 C156 1.401 . S
C152 C157 1.499 . S
N153 Co136 1.989 . S
N153 C152 1.342 . S
N153 N154 1.388 . S
N154 Co137 1.993 . S
N154 N153 1.388 . S
N154 C155 1.346 . S
C155 N154 1.346 . S
C155 C156 1.396 . S
C155 C165 1.510 . S
C156 C152 1.401 . S
C156 C155 1.396 . S
C157 C152 1.499 . S
C157 H158 0.959 . S
C157 H159 0.960 1_455 S
C157 H160 0.961 . S
H158 C157 0.959 . S
H159 C157 0.960 1_655 S
H160 C157 0.961 . S
O161 Co136 1.967 . S
O161 C169 1.258 . S
O162 Co137 1.941 . S
O162 C169 1.266 . S
H163 C165 0.959 . S
H164 C165 0.961 1_655 S
C165 C155 1.510 . S
C165 H163 0.959 . S
C165 H164 0.961 1_455 S
C165 H166 0.960 . S
H166 C165 0.960 . S
H167 N147 0.862 . S
O168 Co136 1.920 . S
O168 C141 1.289 . S
C169 O161 1.258 . S
C169 O162 1.266 . S
Co170 O173 1.970 . S
Co170 N187 1.989 . S
Co170 O195 1.967 . S
Co170 O202 1.920 . S
Co171 O174 1.966 . S
Co171 N180 2.022 . S
Co171 N188 1.993 . S
Co171 O196 1.941 . S
C172 O173 1.258 . S
C172 O174 1.263 . S
O173 Co170 1.970 . S
O173 C172 1.258 . S
O174 Co171 1.966 . S
O174 C172 1.263 . S
C175 O176 1.235 1_545 S
C175 O202 1.289 . S
O176 C175 1.235 1_565 S
C177 C179 1.400 . S
C177 N180 1.351 . S
C177 C182 1.501 . S
C178 C179 1.387 . S
C178 N181 1.341 . S
C179 C177 1.400 . S
C179 C178 1.387 . S
N180 Co171 2.022 . S
N180 C177 1.351 . S
N180 N181 1.365 . S
N181 C178 1.341 . S
N181 N180 1.365 . S
N181 H201 0.862 . S
C182 C177 1.501 . S
C182 H183 0.961 . S
C182 H184 0.961 1_545 S
C182 H185 0.960 . S
H183 C182 0.961 . S
H184 C182 0.961 1_565 S
H185 C182 0.960 . S
C186 N187 1.342 . S
C186 C190 1.401 . S
C186 C191 1.499 . S
N187 Co170 1.989 . S
N187 C186 1.342 . S
N187 N188 1.388 . S
N188 Co171 1.993 . S
N188 N187 1.388 . S
N188 C189 1.346 . S
C189 N188 1.346 . S
C189 C190 1.396 . S
C189 C199 1.510 . S
C190 C186 1.401 . S
C190 C189 1.396 . S
C191 C186 1.499 . S
C191 H192 0.959 . S
C191 H193 0.960 1_545 S
C191 H194 0.961 . S
H192 C191 0.959 . S
H193 C191 0.960 1_565 S
H194 C191 0.961 . S
O195 Co170 1.967 . S
O195 C203 1.258 . S
O196 Co171 1.941 . S
O196 C203 1.266 . S
H197 C199 0.959 . S
H198 C199 0.961 1_565 S
C199 C189 1.510 . S
C199 H197 0.959 . S
C199 H198 0.961 1_545 S
C199 H200 0.960 . S
H200 C199 0.960 . S
H201 N181 0.862 . S
O202 Co170 1.920 . S
O202 C175 1.289 . S
C203 O195 1.258 . S
C203 O196 1.266 . S
Co204 O207 1.970 . S
Co204 N221 1.989 . S
Co204 O229 1.967 . S
Co204 O236 1.920 . S
Co205 O208 1.966 . S
Co205 N214 2.022 . S
Co205 N222 1.993 . S
Co205 O230 1.941 . S
C206 O207 1.258 . S
C206 O208 1.263 . S
O207 Co204 1.970 . S
O207 C206 1.258 . S
O208 Co205 1.966 . S
O208 C206 1.263 . S
C209 O210 1.235 . S
C209 O236 1.289 . S
O210 C209 1.235 . S
C211 C213 1.400 . S
C211 N214 1.351 . S
C211 C216 1.501 . S
C212 C213 1.387 . S
C212 N215 1.341 . S
C213 C211 1.400 . S
C213 C212 1.387 . S
N214 Co205 2.022 . S
N214 C211 1.351 . S
N214 N215 1.365 . S
N215 C212 1.341 . S
N215 N214 1.365 . S
N215 H235 0.862 . S
C216 C211 1.501 . S
C216 H217 0.961 . S
C216 H218 0.961 . S
C216 H219 0.960 . S
H217 C216 0.961 . S
H218 C216 0.961 . S
H219 C216 0.960 . S
C220 N221 1.342 . S
C220 C224 1.401 . S
C220 C225 1.499 . S
N221 Co204 1.989 . S
N221 C220 1.342 . S
N221 N222 1.388 . S
N222 Co205 1.993 . S
N222 N221 1.388 . S
N222 C223 1.346 . S
C223 N222 1.346 . S
C223 C224 1.396 . S
C223 C233 1.510 . S
C224 C220 1.401 . S
C224 C223 1.396 . S
C225 C220 1.499 . S
C225 H226 0.959 . S
C225 H227 0.960 . S
C225 H228 0.961 . S
H226 C225 0.959 . S
H227 C225 0.960 . S
H228 C225 0.961 . S
O229 Co204 1.967 . S
O229 C237 1.258 . S
O230 Co205 1.941 . S
O230 C237 1.266 . S
H231 C233 0.959 . S
H232 C233 0.961 . S
C233 C223 1.510 . S
C233 H231 0.959 . S
C233 H232 0.961 . S
C233 H234 0.960 . S
H234 C233 0.960 . S
H235 N215 0.862 . S
O236 Co204 1.920 . S
O236 C209 1.289 . S
C237 O229 1.258 . S
C237 O230 1.266 . S
Co238 O241 1.970 . S
Co238 N255 1.989 . S
Co238 O263 1.967 . S
Co238 O270 1.920 . S
Co239 O242 1.966 . S
Co239 N248 2.022 . S
Co239 N256 1.993 . S
Co239 O264 1.941 . S
C240 O241 1.258 . S
C240 O242 1.263 . S
O241 Co238 1.970 . S
O241 C240 1.258 . S
O242 Co239 1.966 . S
O242 C240 1.263 . S
C243 O244 1.235 . S
C243 O270 1.289 . S
O244 C243 1.235 . S
C245 C247 1.400 . S
C245 N248 1.351 . S
C245 C250 1.501 . S
C246 C247 1.387 . S
C246 N249 1.341 . S
C247 C245 1.400 . S
C247 C246 1.387 . S
N248 Co239 2.022 . S
N248 C245 1.351 . S
N248 N249 1.365 . S
N249 C246 1.341 . S
N249 N248 1.365 . S
N249 H269 0.862 . S
C250 C245 1.501 . S
C250 H251 0.961 . S
C250 H252 0.961 . S
C250 H253 0.960 . S
H251 C250 0.961 . S
H252 C250 0.961 . S
H253 C250 0.960 . S
C254 N255 1.342 . S
C254 C258 1.401 . S
C254 C259 1.499 . S
N255 Co238 1.989 . S
N255 C254 1.342 . S
N255 N256 1.388 . S
N256 Co239 1.993 . S
N256 N255 1.388 . S
N256 C257 1.346 . S
C257 N256 1.346 . S
C257 C258 1.396 . S
C257 C267 1.510 . S
C258 C254 1.401 . S
C258 C257 1.396 . S
C259 C254 1.499 . S
C259 H260 0.959 . S
C259 H261 0.960 . S
C259 H262 0.961 . S
H260 C259 0.959 . S
H261 C259 0.960 . S
H262 C259 0.961 . S
O263 Co238 1.967 . S
O263 C271 1.258 . S
O264 Co239 1.941 . S
O264 C271 1.266 . S
H265 C267 0.959 . S
H266 C267 0.961 . S
C267 C257 1.510 . S
C267 H265 0.959 . S
C267 H266 0.961 . S
C267 H268 0.960 . S
H268 C267 0.960 . S
H269 N249 0.862 . S
O270 Co238 1.920 . S
O270 C243 1.289 . S
C271 O263 1.258 . S
C271 O264 1.266 . S
Co272 O275 1.970 . S
Co272 N289 1.989 . S
Co272 O297 1.967 . S
Co272 O304 1.920 . S
Co273 O276 1.966 . S
Co273 N282 2.022 . S
Co273 N290 1.993 . S
Co273 O298 1.941 . S
C274 O275 1.258 . S
C274 O276 1.263 . S
O275 Co272 1.970 . S
O275 C274 1.258 . S
O276 Co273 1.966 . S
O276 C274 1.263 . S
C277 O278 1.235 1_655 S
C277 O304 1.289 . S
O278 C277 1.235 1_455 S
C279 C281 1.400 . S
C279 N282 1.351 . S
C279 C284 1.501 . S
C280 C281 1.387 . S
C280 N283 1.341 . S
C281 C279 1.400 . S
C281 C280 1.387 . S
N282 Co273 2.022 . S
N282 C279 1.351 . S
N282 N283 1.365 . S
N283 C280 1.341 . S
N283 N282 1.365 . S
N283 H303 0.862 . S
C284 C279 1.501 . S
C284 H285 0.961 . S
C284 H286 0.961 1_655 S
C284 H287 0.960 . S
H285 C284 0.961 . S
H286 C284 0.961 1_455 S
H287 C284 0.960 . S
C288 N289 1.342 . S
C288 C292 1.401 . S
C288 C293 1.499 . S
N289 Co272 1.989 . S
N289 C288 1.342 . S
N289 N290 1.388 . S
N290 Co273 1.993 . S
N290 N289 1.388 . S
N290 C291 1.346 . S
C291 N290 1.346 . S
C291 C292 1.396 . S
C291 C301 1.510 . S
C292 C288 1.401 . S
C292 C291 1.396 . S
C293 C288 1.499 . S
C293 H294 0.959 . S
C293 H295 0.960 1_655 S
C293 H296 0.961 . S
H294 C293 0.959 . S
H295 C293 0.960 1_455 S
H296 C293 0.961 . S
O297 Co272 1.967 . S
O297 C305 1.258 . S
O298 Co273 1.941 . S
O298 C305 1.266 . S
H299 C301 0.959 . S
H300 C301 0.961 1_455 S
C301 C291 1.510 . S
C301 H299 0.959 . S
C301 H300 0.961 1_655 S
C301 H302 0.960 . S
H302 C301 0.960 . S
H303 N283 0.862 . S
O304 Co272 1.920 . S
O304 C277 1.289 . S
C305 O297 1.258 . S
C305 O298 1.266 . S
Co306 O309 1.970 . S
Co306 N323 1.989 . S
Co306 O331 1.967 . S
Co306 O338 1.920 . S
Co307 O310 1.966 . S
Co307 N316 2.022 . S
Co307 N324 1.993 . S
Co307 O332 1.941 . S
C308 O309 1.258 . S
C308 O310 1.263 . S
O309 Co306 1.970 . S
O309 C308 1.258 . S
O310 Co307 1.966 . S
O310 C308 1.263 . S
C311 O312 1.235 1_565 S
C311 O338 1.289 . S
O312 C311 1.235 1_545 S
C313 C315 1.400 . S
C313 N316 1.351 . S
C313 C318 1.501 . S
C314 C315 1.387 . S
C314 N317 1.341 . S
C315 C313 1.400 . S
C315 C314 1.387 . S
N316 Co307 2.022 . S
N316 C313 1.351 . S
N316 N317 1.365 . S
N317 C314 1.341 . S
N317 N316 1.365 . S
N317 H337 0.862 . S
C318 C313 1.501 . S
C318 H319 0.961 . S
C318 H320 0.961 1_565 S
C318 H321 0.960 . S
H319 C318 0.961 . S
H320 C318 0.961 1_545 S
H321 C318 0.960 . S
C322 N323 1.342 . S
C322 C326 1.401 . S
C322 C327 1.499 . S
N323 Co306 1.989 . S
N323 C322 1.342 . S
N323 N324 1.388 . S
N324 Co307 1.993 . S
N324 N323 1.388 . S
N324 C325 1.346 . S
C325 N324 1.346 . S
C325 C326 1.396 . S
C325 C335 1.510 . S
C326 C322 1.401 . S
C326 C325 1.396 . S
C327 C322 1.499 . S
C327 H328 0.959 . S
C327 H329 0.960 1_565 S
C327 H330 0.961 . S
H328 C327 0.959 . S
H329 C327 0.960 1_545 S
H330 C327 0.961 . S
O331 Co306 1.967 . S
O331 C339 1.258 . S
O332 Co307 1.941 . S
O332 C339 1.266 . S
H333 C335 0.959 . S
H334 C335 0.961 1_545 S
C335 C325 1.510 . S
C335 H333 0.959 . S
C335 H334 0.961 1_565 S
C335 H336 0.960 . S
H336 C335 0.960 . S
H337 N317 0.862 . S
O338 Co306 1.920 . S
O338 C311 1.289 . S
C339 O331 1.258 . S
C339 O332 1.266 . S
Co340 O343 1.970 . S
Co340 N357 1.989 . S
Co340 O365 1.967 . S
Co340 O372 1.920 . S
Co341 O344 1.966 . S
Co341 N350 2.022 . S
Co341 N358 1.993 . S
Co341 O366 1.941 . S
C342 O343 1.258 . S
C342 O344 1.263 . S
O343 Co340 1.970 . S
O343 C342 1.258 . S
O344 Co341 1.966 . S
O344 C342 1.263 . S
C345 O346 1.235 . S
C345 O372 1.289 . S
O346 C345 1.235 . S
C347 C349 1.400 . S
C347 N350 1.351 . S
C347 C352 1.501 . S
C348 C349 1.387 . S
C348 N351 1.341 . S
C349 C347 1.400 . S
C349 C348 1.387 . S
N350 Co341 2.022 . S
N350 C347 1.351 . S
N350 N351 1.365 . S
N351 C348 1.341 . S
N351 N350 1.365 . S
N351 H371 0.862 . S
C352 C347 1.501 . S
C352 H353 0.961 . S
C352 H354 0.961 . S
C352 H355 0.960 . S
H353 C352 0.961 . S
H354 C352 0.961 . S
H355 C352 0.960 . S
C356 N357 1.342 . S
C356 C360 1.401 . S
C356 C361 1.499 . S
N357 Co340 1.989 . S
N357 C356 1.342 . S
N357 N358 1.388 . S
N358 Co341 1.993 . S
N358 N357 1.388 . S
N358 C359 1.346 . S
C359 N358 1.346 . S
C359 C360 1.396 . S
C359 C369 1.510 . S
C360 C356 1.401 . S
C360 C359 1.396 . S
C361 C356 1.499 . S
C361 H362 0.959 . S
C361 H363 0.960 . S
C361 H364 0.961 . S
H362 C361 0.959 . S
H363 C361 0.960 . S
H364 C361 0.961 . S
O365 Co340 1.967 . S
O365 C373 1.258 . S
O366 Co341 1.941 . S
O366 C373 1.266 . S
H367 C369 0.959 . S
H368 C369 0.961 . S
C369 C359 1.510 . S
C369 H367 0.959 . S
C369 H368 0.961 . S
C369 H370 0.960 . S
H370 C369 0.960 . S
H371 N351 0.862 . S
O372 Co340 1.920 . S
O372 C345 1.289 . S
C373 O365 1.258 . S
C373 O366 1.266 . S
Co374 O377 1.970 . S
Co374 N391 1.989 . S
Co374 O399 1.967 . S
Co374 O406 1.920 . S
Co375 O378 1.966 . S
Co375 N384 2.022 . S
Co375 N392 1.993 . S
Co375 O400 1.941 . S
C376 O377 1.258 . S
C376 O378 1.263 . S
O377 Co374 1.970 . S
O377 C376 1.258 . S
O378 Co375 1.966 . S
O378 C376 1.263 . S
C379 O380 1.235 . S
C379 O406 1.289 . S
O380 C379 1.235 . S
C381 C383 1.400 . S
C381 N384 1.351 . S
C381 C386 1.501 . S
C382 C383 1.387 . S
C382 N385 1.341 . S
C383 C381 1.400 . S
C383 C382 1.387 . S
N384 Co375 2.022 . S
N384 C381 1.351 . S
N384 N385 1.365 . S
N385 C382 1.341 . S
N385 N384 1.365 . S
N385 H405 0.862 . S
C386 C381 1.501 . S
C386 H387 0.961 . S
C386 H388 0.961 . S
C386 H389 0.960 . S
H387 C386 0.961 . S
H388 C386 0.961 . S
H389 C386 0.960 . S
C390 N391 1.342 . S
C390 C394 1.401 . S
C390 C395 1.499 . S
N391 Co374 1.989 . S
N391 C390 1.342 . S
N391 N392 1.388 . S
N392 Co375 1.993 . S
N392 N391 1.388 . S
N392 C393 1.346 . S
C393 N392 1.346 . S
C393 C394 1.396 . S
C393 C403 1.510 . S
C394 C390 1.401 . S
C394 C393 1.396 . S
C395 C390 1.499 . S
C395 H396 0.959 . S
C395 H397 0.960 . S
C395 H398 0.961 . S
H396 C395 0.959 . S
H397 C395 0.960 . S
H398 C395 0.961 . S
O399 Co374 1.967 . S
O399 C407 1.258 . S
O400 Co375 1.941 . S
O400 C407 1.266 . S
H401 C403 0.959 . S
H402 C403 0.961 . S
C403 C393 1.510 . S
C403 H401 0.959 . S
C403 H402 0.961 . S
C403 H404 0.960 . S
H404 C403 0.960 . S
H405 N385 0.862 . S
O406 Co374 1.920 . S
O406 C379 1.289 . S
C407 O399 1.258 . S
C407 O400 1.266 . S
Co408 O411 1.970 . S
Co408 N425 1.989 . S
Co408 O433 1.967 . S
Co408 O440 1.920 . S
Co409 O412 1.966 . S
Co409 N418 2.022 . S
Co409 N426 1.993 . S
Co409 O434 1.941 . S
C410 O411 1.258 . S
C410 O412 1.263 . S
O411 Co408 1.970 . S
O411 C410 1.258 . S
O412 Co409 1.966 . S
O412 C410 1.263 . S
C413 O414 1.235 1_655 S
C413 O440 1.289 . S
O414 C413 1.235 1_455 S
C415 C417 1.400 . S
C415 N418 1.351 . S
C415 C420 1.501 . S
C416 C417 1.387 . S
C416 N419 1.341 . S
C417 C415 1.400 . S
C417 C416 1.387 . S
N418 Co409 2.022 . S
N418 C415 1.351 . S
N418 N419 1.365 . S
N419 C416 1.341 . S
N419 N418 1.365 . S
N419 H439 0.862 . S
C420 C415 1.501 . S
C420 H421 0.961 . S
C420 H422 0.961 1_655 S
C420 H423 0.960 . S
H421 C420 0.961 . S
H422 C420 0.961 1_455 S
H423 C420 0.960 . S
C424 N425 1.342 . S
C424 C428 1.401 . S
C424 C429 1.499 . S
N425 Co408 1.989 . S
N425 C424 1.342 . S
N425 N426 1.388 . S
N426 Co409 1.993 . S
N426 N425 1.388 . S
N426 C427 1.346 . S
C427 N426 1.346 . S
C427 C428 1.396 . S
C427 C437 1.510 . S
C428 C424 1.401 . S
C428 C427 1.396 . S
C429 C424 1.499 . S
C429 H430 0.959 . S
C429 H431 0.960 1_655 S
C429 H432 0.961 . S
H430 C429 0.959 . S
H431 C429 0.960 1_455 S
H432 C429 0.961 . S
O433 Co408 1.967 . S
O433 C441 1.258 . S
O434 Co409 1.941 . S
O434 C441 1.266 . S
H435 C437 0.959 . S
H436 C437 0.961 1_455 S
C437 C427 1.510 . S
C437 H435 0.959 . S
C437 H436 0.961 1_655 S
C437 H438 0.960 . S
H438 C437 0.960 . S
H439 N419 0.862 . S
O440 Co408 1.920 . S
O440 C413 1.289 . S
C441 O433 1.258 . S
C441 O434 1.266 . S
Co442 O445 1.970 . S
Co442 N459 1.989 . S
Co442 O467 1.967 . S
Co442 O474 1.920 . S
Co443 O446 1.966 . S
Co443 N452 2.022 . S
Co443 N460 1.993 . S
Co443 O468 1.941 . S
C444 O445 1.258 . S
C444 O446 1.263 . S
O445 Co442 1.970 . S
O445 C444 1.258 . S
O446 Co443 1.966 . S
O446 C444 1.263 . S
C447 O448 1.235 1_565 S
C447 O474 1.289 . S
O448 C447 1.235 1_545 S
C449 C451 1.400 . S
C449 N452 1.351 . S
C449 C454 1.501 . S
C450 C451 1.387 . S
C450 N453 1.341 . S
C451 C449 1.400 . S
C451 C450 1.387 . S
N452 Co443 2.022 . S
N452 C449 1.351 . S
N452 N453 1.365 . S
N453 C450 1.341 . S
N453 N452 1.365 . S
N453 H473 0.862 . S
C454 C449 1.501 . S
C454 H455 0.961 . S
C454 H456 0.961 1_565 S
C454 H457 0.960 . S
H455 C454 0.961 . S
H456 C454 0.961 1_545 S
H457 C454 0.960 . S
C458 N459 1.342 . S
C458 C462 1.401 . S
C458 C463 1.499 . S
N459 Co442 1.989 . S
N459 C458 1.342 . S
N459 N460 1.388 . S
N460 Co443 1.993 . S
N460 N459 1.388 . S
N460 C461 1.346 . S
C461 N460 1.346 . S
C461 C462 1.396 . S
C461 C471 1.510 . S
C462 C458 1.401 . S
C462 C461 1.396 . S
C463 C458 1.499 . S
C463 H464 0.959 . S
C463 H465 0.960 1_565 S
C463 H466 0.961 . S
H464 C463 0.959 . S
H465 C463 0.960 1_545 S
H466 C463 0.961 . S
O467 Co442 1.967 . S
O467 C475 1.258 . S
O468 Co443 1.941 . S
O468 C475 1.266 . S
H469 C471 0.959 . S
H470 C471 0.961 1_545 S
C471 C461 1.510 . S
C471 H469 0.959 . S
C471 H470 0.961 1_565 S
C471 H472 0.960 . S
H472 C471 0.960 . S
H473 N453 0.862 . S
O474 Co442 1.920 . S
O474 C447 1.289 . S
C475 O467 1.258 . S
C475 O468 1.266 . S
Co476 O479 1.970 . S
Co476 N493 1.989 . S
Co476 O501 1.967 . S
Co476 O508 1.920 . S
Co477 O480 1.966 . S
Co477 N486 2.022 . S
Co477 N494 1.993 . S
Co477 O502 1.941 . S
C478 O479 1.258 . S
C478 O480 1.263 . S
O479 Co476 1.970 . S
O479 C478 1.258 . S
O480 Co477 1.966 . S
O480 C478 1.263 . S
C481 O482 1.235 . S
C481 O508 1.289 . S
O482 C481 1.235 . S
C483 C485 1.400 . S
C483 N486 1.351 . S
C483 C488 1.501 . S
C484 C485 1.387 . S
C484 N487 1.341 . S
C485 C483 1.400 . S
C485 C484 1.387 . S
N486 Co477 2.022 . S
N486 C483 1.351 . S
N486 N487 1.365 . S
N487 C484 1.341 . S
N487 N486 1.365 . S
N487 H507 0.862 . S
C488 C483 1.501 . S
C488 H489 0.961 . S
C488 H490 0.961 . S
C488 H491 0.960 . S
H489 C488 0.961 . S
H490 C488 0.961 . S
H491 C488 0.960 . S
C492 N493 1.342 . S
C492 C496 1.401 . S
C492 C497 1.499 . S
N493 Co476 1.989 . S
N493 C492 1.342 . S
N493 N494 1.388 . S
N494 Co477 1.993 . S
N494 N493 1.388 . S
N494 C495 1.346 . S
C495 N494 1.346 . S
C495 C496 1.396 . S
C495 C505 1.510 . S
C496 C492 1.401 . S
C496 C495 1.396 . S
C497 C492 1.499 . S
C497 H498 0.959 . S
C497 H499 0.960 . S
C497 H500 0.961 . S
H498 C497 0.959 . S
H499 C497 0.960 . S
H500 C497 0.961 . S
O501 Co476 1.967 . S
O501 C509 1.258 . S
O502 Co477 1.941 . S
O502 C509 1.266 . S
H503 C505 0.959 . S
H504 C505 0.961 . S
C505 C495 1.510 . S
C505 H503 0.959 . S
C505 H504 0.961 . S
C505 H506 0.960 . S
H506 C505 0.960 . S
H507 N487 0.862 . S
O508 Co476 1.920 . S
O508 C481 1.289 . S
C509 O501 1.258 . S
C509 O502 1.266 . S
Co510 O513 1.970 . S
Co510 N527 1.989 . S
Co510 O535 1.967 . S
Co510 O542 1.920 . S
Co511 O514 1.966 . S
Co511 N520 2.022 . S
Co511 N528 1.993 . S
Co511 O536 1.941 . S
C512 O513 1.258 . S
C512 O514 1.263 . S
O513 Co510 1.970 . S
O513 C512 1.258 . S
O514 Co511 1.966 . S
O514 C512 1.263 . S
C515 O516 1.235 . S
C515 O542 1.289 . S
O516 C515 1.235 . S
C517 C519 1.400 . S
C517 N520 1.351 . S
C517 C522 1.501 . S
C518 C519 1.387 . S
C518 N521 1.341 . S
C519 C517 1.400 . S
C519 C518 1.387 . S
N520 Co511 2.022 . S
N520 C517 1.351 . S
N520 N521 1.365 . S
N521 C518 1.341 . S
N521 N520 1.365 . S
N521 H541 0.862 . S
C522 C517 1.501 . S
C522 H523 0.961 . S
C522 H524 0.961 . S
C522 H525 0.960 . S
H523 C522 0.961 . S
H524 C522 0.961 . S
H525 C522 0.960 . S
C526 N527 1.342 . S
C526 C530 1.401 . S
C526 C531 1.499 . S
N527 Co510 1.989 . S
N527 C526 1.342 . S
N527 N528 1.388 . S
N528 Co511 1.993 . S
N528 N527 1.388 . S
N528 C529 1.346 . S
C529 N528 1.346 . S
C529 C530 1.396 . S
C529 C539 1.510 . S
C530 C526 1.401 . S
C530 C529 1.396 . S
C531 C526 1.499 . S
C531 H532 0.959 . S
C531 H533 0.960 . S
C531 H534 0.961 . S
H532 C531 0.959 . S
H533 C531 0.960 . S
H534 C531 0.961 . S
O535 Co510 1.967 . S
O535 C543 1.258 . S
O536 Co511 1.941 . S
O536 C543 1.266 . S
H537 C539 0.959 . S
H538 C539 0.961 . S
C539 C529 1.510 . S
C539 H537 0.959 . S
C539 H538 0.961 . S
C539 H540 0.960 . S
H540 C539 0.960 . S
H541 N521 0.862 . S
O542 Co510 1.920 . S
O542 C515 1.289 . S
C543 O535 1.258 . S
C543 O536 1.266 . S
C544 C545 1.363 1_655 S
C544 C550 1.379 1_556 S
C544 N552 1.356 . S
C545 C544 1.363 1_455 S
C545 C551 1.363 . S
C546 C547 1.363 . S
C546 C551 1.379 1_554 S
C546 N553 1.356 . S
C547 C546 1.363 . S
C547 C550 1.363 1_455 S
N548 C550 1.356 . S
N548 H560 0.984 . S
N548 H561 0.985 . S
N549 C551 1.356 . S
N549 H554 0.984 . S
N549 H555 0.985 . S
C550 C544 1.379 1_554 S
C550 C547 1.363 1_655 S
C550 N548 1.356 . S
C551 C545 1.363 . S
C551 C546 1.379 1_556 S
C551 N549 1.356 . S
N552 C544 1.356 . S
N552 H558 0.984 . S
N552 H559 0.984 . S
N553 C546 1.356 . S
N553 H556 0.984 . S
N553 H557 0.985 . S
H554 N549 0.984 . S
H555 N549 0.985 . S
H556 N553 0.984 . S
H557 N553 0.985 . S
H558 N552 0.984 . S
H559 N552 0.984 . S
H560 N548 0.984 . S
H561 N548 0.985 . S
C562 C563 1.363 1_565 S
C562 C568 1.379 . S
C562 N570 1.356 . S
C563 C562 1.363 1_545 S
C563 C569 1.363 . S
C564 C565 1.363 . S
C564 C569 1.379 . S
C564 N571 1.356 . S
C565 C564 1.363 . S
C565 C568 1.363 1_545 S
N566 C568 1.356 . S
N566 H578 0.984 . S
N566 H579 0.985 . S
N567 C569 1.356 . S
N567 H572 0.984 . S
N567 H573 0.985 . S
C568 C562 1.379 . S
C568 C565 1.363 1_565 S
C568 N566 1.356 . S
C569 C563 1.363 . S
C569 C564 1.379 . S
C569 N567 1.356 . S
N570 C562 1.356 . S
N570 H576 0.984 . S
N570 H577 0.984 . S
N571 C564 1.356 . S
N571 H574 0.984 . S
N571 H575 0.985 . S
H572 N567 0.984 . S
H573 N567 0.985 . S
H574 N571 0.984 . S
H575 N571 0.985 . S
H576 N570 0.984 . S
H577 N570 0.984 . S
H578 N566 0.984 . S
H579 N566 0.985 . S
C580 C581 1.363 . S
C580 C586 1.379 1_554 S
C580 N588 1.356 . S
C581 C580 1.363 . S
C581 C587 1.363 . S
C582 C583 1.363 . S
C582 C587 1.379 1_556 S
C582 N589 1.356 . S
C583 C582 1.363 . S
C583 C586 1.363 . S
N584 C586 1.356 . S
N584 H596 0.984 . S
N584 H597 0.985 . S
N585 C587 1.356 . S
N585 H590 0.984 . S
N585 H591 0.985 . S
C586 C580 1.379 1_556 S
C586 C583 1.363 . S
C586 N584 1.356 . S
C587 C581 1.363 . S
C587 C582 1.379 1_554 S
C587 N585 1.356 . S
N588 C580 1.356 . S
N588 H594 0.987 . S
N588 H595 0.984 . S
N589 C582 1.356 . S
N589 H592 0.984 . S
N589 H593 0.987 . S
H590 N585 0.984 . S
H591 N585 0.985 . S
H592 N589 0.984 . S
H593 N589 0.987 . S
H594 N588 0.987 . S
H595 N588 0.984 . S
H596 N584 0.984 . S
H597 N584 0.985 . S
C598 C599 1.363 . S
C598 C604 1.379 . S
C598 N606 1.356 . S
C599 C598 1.363 . S
C599 C605 1.363 . S
C600 C601 1.363 . S
C600 C605 1.379 . S
C600 N607 1.356 . S
C601 C600 1.363 . S
C601 C604 1.363 . S
N602 C604 1.356 . S
N602 H614 0.984 . S
N602 H615 0.985 . S
N603 C605 1.356 . S
N603 H608 0.984 . S
N603 H609 0.985 . S
C604 C598 1.379 . S
C604 C601 1.363 . S
C604 N602 1.356 . S
C605 C599 1.363 . S
C605 C600 1.379 . S
C605 N603 1.356 . S
N606 C598 1.356 . S
N606 H612 0.984 . S
N606 H613 0.984 . S
N607 C600 1.356 . S
N607 H610 0.984 . S
N607 H611 0.985 . S
H608 N603 0.984 . S
H609 N603 0.985 . S
H610 N607 0.984 . S
H611 N607 0.985 . S
H612 N606 0.984 . S
H613 N606 0.984 . S
H614 N602 0.984 . S
H615 N602 0.985 . S
C616 C617 1.363 1_455 S
C616 C622 1.379 1_554 S
C616 N624 1.356 . S
C617 C616 1.363 1_655 S
C617 C623 1.363 . S
C618 C619 1.363 . S
C618 C623 1.379 1_556 S
C618 N625 1.356 . S
C619 C618 1.363 . S
C619 C622 1.363 1_655 S
N620 C622 1.356 . S
N620 H632 0.984 . S
N620 H633 0.985 . S
N621 C623 1.356 . S
N621 H626 0.984 . S
N621 H627 0.985 . S
C622 C616 1.379 1_556 S
C622 C619 1.363 1_455 S
C622 N620 1.356 . S
C623 C617 1.363 . S
C623 C618 1.379 1_554 S
C623 N621 1.356 . S
N624 C616 1.356 . S
N624 H630 0.984 . S
N624 H631 0.984 . S
N625 C618 1.356 . S
N625 H628 0.984 . S
N625 H629 0.985 . S
H626 N621 0.984 . S
H627 N621 0.985 . S
H628 N625 0.984 . S
H629 N625 0.985 . S
H630 N624 0.984 . S
H631 N624 0.984 . S
H632 N620 0.984 . S
H633 N620 0.985 . S
C634 C635 1.363 . S
C634 C640 1.379 . S
C634 N642 1.356 . S
C635 C634 1.363 . S
C635 C641 1.363 1_565 S
C636 C637 1.363 1_545 S
C636 C641 1.379 . S
C636 N643 1.356 . S
C637 C636 1.363 1_565 S
C637 C640 1.363 . S
N638 C640 1.356 . S
N638 H650 0.984 . S
N638 H651 0.985 . S
N639 C641 1.356 . S
N639 H644 0.984 . S
N639 H645 0.985 . S
C640 C634 1.379 . S
C640 C637 1.363 . S
C640 N638 1.356 . S
C641 C635 1.363 1_545 S
C641 C636 1.379 . S
C641 N639 1.356 . S
N642 C634 1.356 . S
N642 H648 0.984 . S
N642 H649 0.984 . S
N643 C636 1.356 . S
N643 H646 0.984 . S
N643 H647 0.985 . S
H644 N639 0.984 . S
H645 N639 0.985 . S
H646 N643 0.984 . S
H647 N643 0.985 . S
H648 N642 0.984 . S
H649 N642 0.984 . S
H650 N638 0.984 . S
H651 N638 0.985 . S
C652 C653 1.363 . S
C652 C658 1.379 1_556 S
C652 N660 1.356 . S
C653 C652 1.363 . S
C653 C659 1.363 . S
C654 C655 1.363 . S
C654 C659 1.379 1_554 S
C654 N661 1.356 . S
C655 C654 1.363 . S
C655 C658 1.363 . S
N656 C658 1.356 . S
N656 H668 0.984 . S
N656 H669 0.985 . S
N657 C659 1.356 . S
N657 H662 0.984 . S
N657 H663 0.985 . S
C658 C652 1.379 1_554 S
C658 C655 1.363 . S
C658 N656 1.356 . S
C659 C653 1.363 . S
C659 C654 1.379 1_556 S
C659 N657 1.356 . S
N660 C652 1.356 . S
N660 H666 0.984 . S
N660 H667 0.984 . S
N661 C654 1.356 . S
N661 H664 0.984 . S
N661 H665 0.985 . S
H662 N657 0.984 . S
H663 N657 0.985 . S
H664 N661 0.984 . S
H665 N661 0.985 . S
H666 N660 0.984 . S
H667 N660 0.984 . S
H668 N656 0.984 . S
H669 N656 0.985 . S
C670 C671 1.363 . S
C670 C676 1.379 . S
C670 N678 1.356 . S
C671 C670 1.363 . S
C671 C677 1.363 . S
C672 C673 1.363 . S
C672 C677 1.379 . S
C672 N679 1.356 . S
C673 C672 1.363 . S
C673 C676 1.363 . S
N674 C676 1.356 . S
N674 H686 0.984 . S
N674 H687 0.985 . S
N675 C677 1.356 . S
N675 H680 0.984 . S
N675 H681 0.985 . S
C676 C670 1.379 . S
C676 C673 1.363 . S
C676 N674 1.356 . S
C677 C671 1.363 . S
C677 C672 1.379 . S
C677 N675 1.356 . S
N678 C670 1.356 . S
N678 H684 0.984 . S
N678 H685 0.984 . S
N679 C672 1.356 . S
N679 H682 0.984 . S
N679 H683 0.985 . S
H680 N675 0.984 . S
H681 N675 0.985 . S
H682 N679 0.984 . S
H683 N679 0.985 . S
H684 N678 0.984 . S
H685 N678 0.984 . S
H686 N674 0.984 . S
H687 N674 0.985 . S
C688 C689 1.363 1_655 S
C688 C694 1.379 . S
C688 N696 1.356 . S
C689 C688 1.363 1_455 S
C689 C695 1.363 . S
C690 C691 1.363 1_455 S
C690 C695 1.379 . S
C690 N697 1.356 . S
C691 C690 1.363 1_655 S
C691 C694 1.363 . S
N692 C694 1.356 . S
N692 H704 0.984 . S
N692 H705 0.969 1_545 S
N693 C695 1.356 . S
N693 H698 0.984 . S
N693 H699 0.985 . S
C694 C688 1.379 . S
C694 C691 1.363 . S
C694 N692 1.356 . S
C695 C689 1.363 . S
C695 C690 1.379 . S
C695 N693 1.356 . S
N696 C688 1.356 . S
N696 H702 0.984 . S
N696 H703 0.984 . S
N697 C690 1.356 . S
N697 H700 0.984 1_545 S
N697 H701 0.985 . S
H698 N693 0.984 . S
H699 N693 0.985 . S
H700 N697 0.984 1_565 S
H701 N697 0.985 . S
H702 N696 0.984 . S
H703 N696 0.984 . S
H704 N692 0.984 . S
H705 N692 0.969 1_565 S
C706 C707 1.363 1_565 S
C706 C712 1.379 . S
C706 N714 1.356 . S
C707 C706 1.363 1_545 S
C707 C713 1.363 . S
C708 C709 1.363 1_545 S
C708 C713 1.379 . S
C708 N715 1.356 . S
C709 C708 1.363 1_565 S
C709 C712 1.363 . S
N710 C712 1.356 . S
N710 H722 0.984 . S
N710 H723 0.985 . S
N711 C713 1.356 . S
N711 H716 0.984 . S
N711 H717 0.985 . S
C712 C706 1.379 . S
C712 C709 1.363 . S
C712 N710 1.356 . S
C713 C707 1.363 . S
C713 C708 1.379 . S
C713 N711 1.356 . S
N714 C706 1.356 . S
N714 H720 0.984 . S
N714 H721 0.984 . S
N715 C708 1.356 . S
N715 H718 0.984 . S
N715 H719 0.985 . S
H716 N711 0.984 . S
H717 N711 0.985 . S
H718 N715 0.984 . S
H719 N715 0.985 . S
H720 N714 0.984 . S
H721 N714 0.984 . S
H722 N710 0.984 . S
H723 N710 0.985 . S
C724 C725 1.363 . S
C724 C730 1.379 . S
C724 N732 1.356 . S
C725 C724 1.363 . S
C725 C731 1.363 . S
C726 C727 1.363 . S
C726 C731 1.379 . S
C726 N733 1.356 . S
C727 C726 1.363 . S
C727 C730 1.363 . S
N728 C730 1.356 . S
N728 H740 0.984 . S
N728 H741 0.985 . S
N729 C731 1.356 . S
N729 H734 0.984 . S
N729 H735 0.985 . S
C730 C724 1.379 . S
C730 C727 1.363 . S
C730 N728 1.356 . S
C731 C725 1.363 . S
C731 C726 1.379 . S
C731 N729 1.356 . S
N732 C724 1.356 . S
N732 H738 0.984 . S
N732 H739 0.984 . S
N733 C726 1.356 . S
N733 H736 0.984 . S
N733 H737 0.985 . S
H734 N729 0.984 . S
H735 N729 0.985 . S
H736 N733 0.984 . S
H737 N733 0.985 . S
H738 N732 0.984 . S
H739 N732 0.984 . S
H740 N728 0.984 . S
H741 N728 0.985 . S
C742 C743 1.363 . S
C742 C748 1.379 . S
C742 N750 1.356 . S
C743 C742 1.363 . S
C743 C749 1.363 . S
C744 C745 1.363 . S
C744 C749 1.379 . S
C744 N751 1.356 . S
C745 C744 1.363 . S
C745 C748 1.363 . S
N746 C748 1.356 . S
N746 H758 0.984 . S
N746 H759 0.985 1_455 S
N747 C749 1.356 . S
N747 H752 0.984 . S
N747 H753 0.985 . S
C748 C742 1.379 . S
C748 C745 1.363 . S
C748 N746 1.356 . S
C749 C743 1.363 . S
C749 C744 1.379 . S
C749 N747 1.356 . S
N750 C742 1.356 . S
N750 H756 0.984 . S
N750 H757 0.984 . S
N751 C744 1.356 . S
N751 H754 0.984 1_455 S
N751 H755 0.985 . S
H752 N747 0.984 . S
H753 N747 0.985 . S
H754 N751 0.984 1_655 S
H755 N751 0.985 . S
H756 N750 0.984 . S
H757 N750 0.984 . S
H758 N746 0.984 . S
H759 N746 0.985 1_655 S
C760 C761 1.363 . S
C760 C766 1.379 . S
C760 N768 1.356 . S
C761 C760 1.363 . S
C761 C767 1.363 1_655 S
C762 C763 1.363 . S
C762 C767 1.379 . S
C762 N769 1.356 . S
C763 C762 1.363 . S
C763 C766 1.363 1_455 S
N764 C766 1.356 . S
N764 H776 0.984 . S
N764 H777 0.985 . S
N765 C767 1.356 . S
N765 H770 0.984 . S
N765 H771 0.985 . S
C766 C760 1.379 . S
C766 C763 1.363 1_655 S
C766 N764 1.356 . S
C767 C761 1.363 1_455 S
C767 C762 1.379 . S
C767 N765 1.356 . S
N768 C760 1.356 . S
N768 H774 0.984 . S
N768 H775 0.984 . S
N769 C762 1.356 . S
N769 H772 0.984 . S
N769 H773 0.985 . S
H770 N765 0.984 . S
H771 N765 0.985 . S
H772 N769 0.984 . S
H773 N769 0.985 . S
H774 N768 0.984 . S
H775 N768 0.984 . S
H776 N764 0.984 . S
H777 N764 0.985 . S
C778 C779 1.363 1_545 S
C778 C784 1.379 . S
C778 N786 1.356 . S
C779 C778 1.363 1_565 S
C779 C785 1.363 . S
C780 C781 1.363 1_565 S
C780 C785 1.379 . S
C780 N787 1.356 . S
C781 C780 1.363 1_545 S
C781 C784 1.363 . S
N782 C784 1.356 . S
N782 H794 0.984 . S
N782 H795 0.985 . S
N783 C785 1.356 . S
N783 H788 0.984 1_455 S
N783 H789 0.985 . S
C784 C778 1.379 . S
C784 C781 1.363 . S
C784 N782 1.356 . S
C785 C779 1.363 . S
C785 C780 1.379 . S
C785 N783 1.356 . S
N786 C778 1.356 . S
N786 H792 0.984 . S
N786 H793 0.984 1_455 S
N787 C780 1.356 . S
N787 H790 0.984 . S
N787 H791 0.985 . S
H788 N783 0.984 1_655 S
H789 N783 0.985 . S
H790 N787 0.984 . S
H791 N787 0.985 . S
H792 N786 0.984 . S
H793 N786 0.984 1_655 S
H794 N782 0.984 . S
H795 N782 0.985 . S
C796 C797 1.363 . S
C796 C802 1.379 . S
C796 N804 1.356 . S
C797 C796 1.363 . S
C797 C803 1.363 . S
C798 C799 1.363 . S
C798 C803 1.379 . S
C798 N805 1.356 . S
C799 C798 1.363 . S
C799 C802 1.363 . S
N800 C802 1.356 . S
N800 H812 0.984 . S
N800 H813 0.970 1_545 S
N801 C803 1.356 . S
N801 H806 0.984 . S
N801 H807 0.985 . S
C802 C796 1.379 . S
C802 C799 1.363 . S
C802 N800 1.356 . S
C803 C797 1.363 . S
C803 C798 1.379 . S
C803 N801 1.356 . S
N804 C796 1.356 . S
N804 H810 0.984 . S
N804 H811 0.984 . S
N805 C798 1.356 . S
N805 H808 0.984 1_545 S
N805 H809 0.985 . S
H806 N801 0.984 . S
H807 N801 0.985 . S
H808 N805 0.984 1_565 S
H809 N805 0.985 . S
H810 N804 0.984 . S
H811 N804 0.984 . S
H812 N800 0.984 . S
H813 N800 0.970 1_565 S
C814 C815 1.363 . S
C814 C820 1.379 . S
C814 N822 1.356 . S
C815 C814 1.363 . S
C815 C821 1.363 . S
C816 C817 1.363 . S
C816 C821 1.379 . S
C816 N823 1.356 . S
C817 C816 1.363 . S
C817 C820 1.363 . S
N818 C820 1.356 . S
N818 H830 0.984 . S
N818 H831 0.985 . S
N819 C821 1.356 . S
N819 H824 0.984 . S
N819 H825 0.985 . S
C820 C814 1.379 . S
C820 C817 1.363 . S
C820 N818 1.356 . S
C821 C815 1.363 . S
C821 C816 1.379 . S
C821 N819 1.356 . S
N822 C814 1.356 . S
N822 H828 0.984 . S
N822 H829 0.984 . S
N823 C816 1.356 . S
N823 H826 0.984 . S
N823 H827 0.985 . S
H824 N819 0.984 . S
H825 N819 0.985 . S
H826 N823 0.984 . S
H827 N823 0.985 . S
H828 N822 0.984 . S
H829 N822 0.984 . S
H830 N818 0.984 . S
H831 N818 0.985 . S
C832 C833 1.363 1_455 S
C832 C838 1.379 . S
C832 N840 1.356 . S
C833 C832 1.363 1_655 S
C833 C839 1.363 . S
C834 C835 1.363 1_655 S
C834 C839 1.379 . S
C834 N841 1.356 . S
C835 C834 1.363 1_455 S
C835 C838 1.363 . S
N836 C838 1.356 . S
N836 H848 0.984 . S
N836 H849 0.985 1_565 S
N837 C839 1.356 . S
N837 H842 0.984 . S
N837 H843 0.985 . S
C838 C832 1.379 . S
C838 C835 1.363 . S
C838 N836 1.356 . S
C839 C833 1.363 . S
C839 C834 1.379 . S
C839 N837 1.356 . S
N840 C832 1.356 . S
N840 H846 0.984 . S
N840 H847 0.984 . S
N841 C834 1.356 . S
N841 H844 0.984 1_565 S
N841 H845 0.985 . S
H842 N837 0.984 . S
H843 N837 0.985 . S
H844 N841 0.984 1_545 S
H845 N841 0.985 . S
H846 N840 0.984 . S
H847 N840 0.984 . S
H848 N836 0.984 . S
H849 N836 0.985 1_545 S
C850 C851 1.363 1_545 S
C850 C856 1.379 . S
C850 N858 1.356 . S
C851 C850 1.363 1_565 S
C851 C857 1.363 . S
C852 C853 1.363 1_565 S
C852 C857 1.379 . S
C852 N859 1.356 . S
C853 C852 1.363 1_545 S
C853 C856 1.363 . S
N854 C856 1.356 . S
N854 H866 0.984 . S
N854 H867 0.985 . S
N855 C857 1.356 . S
N855 H860 0.984 . S
N855 H861 0.985 . S
C856 C850 1.379 . S
C856 C853 1.363 . S
C856 N854 1.356 . S
C857 C851 1.363 . S
C857 C852 1.379 . S
C857 N855 1.356 . S
N858 C850 1.356 . S
N858 H864 0.984 . S
N858 H865 0.984 . S
N859 C852 1.356 . S
N859 H862 0.984 . S
N859 H863 0.985 . S
H860 N855 0.984 . S
H861 N855 0.985 . S
H862 N859 0.984 . S
H863 N859 0.985 . S
H864 N858 0.984 . S
H865 N858 0.984 . S
H866 N854 0.984 . S
H867 N854 0.985 . S
C868 C869 1.363 . S
C868 C874 1.379 . S
C868 N876 1.356 . S
C869 C868 1.363 . S
C869 C875 1.363 . S
C870 C871 1.363 . S
C870 C875 1.379 . S
C870 N877 1.356 . S
C871 C870 1.363 . S
C871 C874 1.363 . S
N872 C874 1.356 . S
N872 H884 0.984 . S
N872 H885 0.985 . S
N873 C875 1.356 . S
N873 H878 0.984 . S
N873 H879 0.985 . S
C874 C868 1.379 . S
C874 C871 1.363 . S
C874 N872 1.356 . S
C875 C869 1.363 . S
C875 C870 1.379 . S
C875 N873 1.356 . S
N876 C868 1.356 . S
N876 H882 0.984 . S
N876 H883 0.984 . S
N877 C870 1.356 . S
N877 H880 0.984 . S
N877 H881 0.985 . S
H878 N873 0.984 . S
H879 N873 0.985 . S
H880 N877 0.984 . S
H881 N877 0.985 . S
H882 N876 0.984 . S
H883 N876 0.984 . S
H884 N872 0.984 . S
H885 N872 0.985 . S
C886 C887 1.363 . S
C886 C892 1.379 . S
C886 N894 1.356 . S
C887 C886 1.363 . S
C887 C893 1.363 . S
C888 C889 1.363 . S
C888 C893 1.379 . S
C888 N895 1.356 . S
C889 C888 1.363 . S
C889 C892 1.363 . S
N890 C892 1.356 . S
N890 H902 0.984 . S
N890 H903 0.985 1_655 S
N891 C893 1.356 . S
N891 H896 0.984 . S
N891 H897 0.985 . S
C892 C886 1.379 . S
C892 C889 1.363 . S
C892 N890 1.356 . S
C893 C887 1.363 . S
C893 C888 1.379 . S
C893 N891 1.356 . S
N894 C886 1.356 . S
N894 H900 0.984 . S
N894 H901 0.984 . S
N895 C888 1.356 . S
N895 H898 0.984 1_655 S
N895 H899 0.985 . S
H896 N891 0.984 . S
H897 N891 0.985 . S
H898 N895 0.984 1_455 S
H899 N895 0.985 . S
H900 N894 0.984 . S
H901 N894 0.984 . S
H902 N890 0.984 . S
H903 N890 0.985 1_455 S
C904 C905 1.363 1_455 S
C904 C910 1.379 . S
C904 N912 1.356 . S
C905 C904 1.363 1_655 S
C905 C911 1.363 . S
C906 C907 1.363 1_655 S
C906 C911 1.379 . S
C906 N913 1.356 . S
C907 C906 1.363 1_455 S
C907 C910 1.363 . S
N908 C910 1.356 . S
N908 H920 0.984 . S
N908 H921 0.985 . S
N909 C911 1.356 . S
N909 H914 0.984 . S
N909 H915 0.985 . S
C910 C904 1.379 . S
C910 C907 1.363 . S
C910 N908 1.356 . S
C911 C905 1.363 . S
C911 C906 1.379 . S
C911 N909 1.356 . S
N912 C904 1.356 . S
N912 H918 0.984 . S
N912 H919 0.984 . S
N913 C906 1.356 . S
N913 H916 0.984 . S
N913 H917 0.985 . S
H914 N909 0.984 . S
H915 N909 0.985 . S
H916 N913 0.984 . S
H917 N913 0.985 . S
H918 N912 0.984 . S
H919 N912 0.984 . S
H920 N908 0.984 . S
H921 N908 0.985 . S
C922 C923 1.363 . S
C922 C928 1.378 1_565 S
C922 N930 1.356 . S
C923 C922 1.363 . S
C923 C929 1.363 . S
C924 C925 1.363 . S
C924 C929 1.379 1_545 S
C924 N931 1.356 . S
C925 C924 1.363 . S
C925 C928 1.363 . S
N926 C928 1.356 . S
N926 H938 0.984 . S
N926 H939 0.985 1_655 S
N927 C929 1.356 . S
N927 H932 0.984 . S
N927 H933 0.985 . S
C928 C922 1.378 1_545 S
C928 C925 1.363 . S
C928 N926 1.356 . S
C929 C923 1.363 . S
C929 C924 1.379 1_565 S
C929 N927 1.356 . S
N930 C922 1.356 . S
N930 H936 0.984 . S
N930 H937 0.984 . S
N931 C924 1.356 . S
N931 H934 0.984 1_655 S
N931 H935 0.985 . S
H932 N927 0.984 . S
H933 N927 0.985 . S
H934 N931 0.984 1_455 S
H935 N931 0.985 . S
H936 N930 0.984 . S
H937 N930 0.984 . S
H938 N926 0.984 . S
H939 N926 0.985 1_455 S
C940 C941 1.363 . S
C940 C946 1.379 . S
C940 N948 1.356 . S
C941 C940 1.363 . S
C941 C947 1.363 . S
C942 C943 1.363 . S
C942 C947 1.379 . S
C942 N949 1.356 . S
C943 C942 1.363 . S
C943 C946 1.363 . S
N944 C946 1.356 . S
N944 H956 0.984 . S
N944 H957 0.985 1_565 S
N945 C947 1.356 . S
N945 H950 0.984 . S
N945 H951 0.985 . S
C946 C940 1.379 . S
C946 C943 1.363 . S
C946 N944 1.356 . S
C947 C941 1.363 . S
C947 C942 1.379 . S
C947 N945 1.356 . S
N948 C940 1.356 . S
N948 H954 0.984 . S
N948 H955 0.984 . S
N949 C942 1.356 . S
N949 H952 0.984 1_565 S
N949 H953 0.985 . S
H950 N945 0.984 . S
H951 N945 0.985 . S
H952 N949 0.984 1_545 S
H953 N949 0.985 . S
H954 N948 0.984 . S
H955 N948 0.984 . S
H956 N944 0.984 . S
H957 N944 0.985 1_545 S
C958 C959 1.363 . S
C958 C964 1.379 . S
C958 N966 1.356 . S
C959 C958 1.363 . S
C959 C965 1.363 . S
C960 C961 1.363 . S
C960 C965 1.379 . S
C960 N967 1.356 . S
C961 C960 1.363 . S
C961 C964 1.363 . S
N962 C964 1.356 . S
N962 H974 0.984 . S
N962 H975 0.985 . S
N963 C965 1.356 . S
N963 H968 0.984 . S
N963 H969 0.985 . S
C964 C958 1.379 . S
C964 C961 1.363 . S
C964 N962 1.356 . S
C965 C959 1.363 . S
C965 C960 1.379 . S
C965 N963 1.356 . S
N966 C958 1.356 . S
N966 H972 0.984 . S
N966 H973 0.984 . S
N967 C960 1.356 . S
N967 H970 0.984 . S
N967 H971 0.985 . S
H968 N963 0.984 . S
H969 N963 0.985 . S
H970 N967 0.984 . S
H971 N967 0.985 . S
H972 N966 0.984 . S
H973 N966 0.984 . S
H974 N962 0.984 . S
H975 N962 0.985 . S
C976 C977 1.363 . S
C976 C982 1.379 . S
C976 N984 1.356 . S
C977 C976 1.363 . S
C977 C983 1.363 . S
C978 C979 1.363 . S
C978 C983 1.379 . S
C978 N985 1.356 . S
C979 C978 1.363 . S
C979 C982 1.363 . S
N980 C982 1.356 1_655 S
N980 H992 0.984 . S
N980 H993 0.985 . S
N981 C983 1.356 . S
N981 H986 0.984 . S
N981 H987 0.985 . S
C982 C976 1.379 . S
C982 C979 1.363 . S
C982 N980 1.356 1_455 S
C983 C977 1.363 . S
C983 C978 1.379 . S
C983 N981 1.356 . S
N984 C976 1.356 . S
N984 H990 0.984 . S
N984 H991 0.984 . S
N985 C978 1.356 . S
N985 H988 0.984 . S
N985 H989 0.985 . S
H986 N981 0.984 . S
H987 N981 0.985 . S
H988 N985 0.984 . S
H989 N985 0.985 . S
H990 N984 0.984 . S
H991 N984 0.984 . S
H992 N980 0.984 . S
H993 N980 0.985 . S
C994 C995 1.363 . S
C994 C1000 1.379 . S
C994 N1002 1.356 1_545 S
C995 C994 1.363 . S
C995 C1001 1.363 . S
C996 C997 1.363 . S
C996 C1001 1.379 . S
C996 N1003 1.356 . S
C997 C996 1.363 . S
C997 C1000 1.363 . S
N998 C1000 1.356 1_655 S
N998 H1010 0.984 . S
N998 H1011 0.985 . S
N999 C1001 1.356 . S
N999 H1004 0.984 . S
N999 H1005 0.985 . S
C1000 C994 1.379 . S
C1000 C997 1.363 . S
C1000 N998 1.356 1_455 S
C1001 C995 1.363 . S
C1001 C996 1.379 . S
C1001 N999 1.356 . S
N1002 C994 1.356 1_565 S
N1002 H1008 0.984 . S
N1002 H1009 0.984 . S
N1003 C996 1.356 . S
N1003 H1006 0.984 . S
N1003 H1007 0.985 . S
H1004 N999 0.984 . S
H1005 N999 0.985 . S
H1006 N1003 0.984 . S
H1007 N1003 0.985 . S
H1008 N1002 0.984 . S
H1009 N1002 0.984 . S
H1010 N998 0.984 . S
H1011 N998 0.985 . S
C1012 C1013 1.363 . S
C1012 C1018 1.379 . S
C1012 N1020 1.356 . S
C1013 C1012 1.363 . S
C1013 C1019 1.363 . S
C1014 C1015 1.363 . S
C1014 C1019 1.379 . S
C1014 N1021 1.356 . S
C1015 C1014 1.363 . S
C1015 C1018 1.363 . S
N1016 C1018 1.356 . S
N1016 H1028 0.984 . S
N1016 H1029 0.985 . S
N1017 C1019 1.356 1_565 S
N1017 H1022 0.984 . S
N1017 H1023 0.985 . S
C1018 C1012 1.379 . S
C1018 C1015 1.363 . S
C1018 N1016 1.356 . S
C1019 C1013 1.363 . S
C1019 C1014 1.379 . S
C1019 N1017 1.356 1_545 S
N1020 C1012 1.356 . S
N1020 H1026 0.984 . S
N1020 H1027 0.984 . S
N1021 C1014 1.356 . S
N1021 H1024 0.984 . S
N1021 H1025 0.985 . S
H1022 N1017 0.984 . S
H1023 N1017 0.985 . S
H1024 N1021 0.984 . S
H1025 N1021 0.985 . S
H1026 N1020 0.984 . S
H1027 N1020 0.984 . S
H1028 N1016 0.984 . S
H1029 N1016 0.985 . S
C1030 C1031 1.363 . S
C1030 C1036 1.379 . S
C1030 N1038 1.356 . S
C1031 C1030 1.363 . S
C1031 C1037 1.363 . S
C1032 C1033 1.363 . S
C1032 C1037 1.379 . S
C1032 N1039 1.356 . S
C1033 C1032 1.363 . S
C1033 C1036 1.363 . S
N1034 C1036 1.356 . S
N1034 H1046 0.984 . S
N1034 H1047 0.985 . S
N1035 C1037 1.356 . S
N1035 H1040 0.984 . S
N1035 H1041 0.985 . S
C1036 C1030 1.379 . S
C1036 C1033 1.363 . S
C1036 N1034 1.356 . S
C1037 C1031 1.363 . S
C1037 C1032 1.379 . S
C1037 N1035 1.356 . S
N1038 C1030 1.356 . S
N1038 H1044 0.984 . S
N1038 H1045 0.984 . S
N1039 C1032 1.356 . S
N1039 H1042 0.984 . S
N1039 H1043 0.985 . S
H1040 N1035 0.984 . S
H1041 N1035 0.985 . S
H1042 N1039 0.984 . S
H1043 N1039 0.985 . S
H1044 N1038 0.984 . S
H1045 N1038 0.984 . S
H1046 N1034 0.984 . S
H1047 N1034 0.985 . S
C1048 C1049 1.363 . S
C1048 C1054 1.379 . S
C1048 N1056 1.356 . S
C1049 C1048 1.363 . S
C1049 C1055 1.363 . S
C1050 C1051 1.363 . S
C1050 C1055 1.379 . S
C1050 N1057 1.356 . S
C1051 C1050 1.363 . S
C1051 C1054 1.363 . S
N1052 C1054 1.356 . S
N1052 H1064 0.984 . S
N1052 H1065 0.985 . S
N1053 C1055 1.356 1_455 S
N1053 H1058 0.984 . S
N1053 H1059 0.985 . S
C1054 C1048 1.379 . S
C1054 C1051 1.363 . S
C1054 N1052 1.356 . S
C1055 C1049 1.363 . S
C1055 C1050 1.379 . S
C1055 N1053 1.356 1_655 S
N1056 C1048 1.356 . S
N1056 H1062 0.984 . S
N1056 H1063 0.984 . S
N1057 C1050 1.356 . S
N1057 H1060 0.984 . S
N1057 H1061 0.985 . S
H1058 N1053 0.984 . S
H1059 N1053 0.985 . S
H1060 N1057 0.984 . S
H1061 N1057 0.985 . S
H1062 N1056 0.984 . S
H1063 N1056 0.984 . S
H1064 N1052 0.984 . S
H1065 N1052 0.985 . S
C1066 C1067 1.363 . S
C1066 C1072 1.379 . S
C1066 N1074 1.356 . S
C1067 C1066 1.363 . S
C1067 C1073 1.363 . S
C1068 C1069 1.363 . S
C1068 C1073 1.379 . S
C1068 N1075 1.356 1_565 S
C1069 C1068 1.363 . S
C1069 C1072 1.363 . S
N1070 C1072 1.356 . S
N1070 H1082 0.984 . S
N1070 H1083 0.985 . S
N1071 C1073 1.356 1_455 S
N1071 H1076 0.984 . S
N1071 H1077 0.985 . S
C1072 C1066 1.379 . S
C1072 C1069 1.363 . S
C1072 N1070 1.356 . S
C1073 C1067 1.363 . S
C1073 C1068 1.379 . S
C1073 N1071 1.356 1_655 S
N1074 C1066 1.356 . S
N1074 H1080 0.984 . S
N1074 H1081 0.984 . S
N1075 C1068 1.356 1_545 S
N1075 H1078 0.984 . S
N1075 H1079 0.985 . S
H1076 N1071 0.984 . S
H1077 N1071 0.985 . S
H1078 N1075 0.984 . S
H1079 N1075 0.985 . S
H1080 N1074 0.984 . S
H1081 N1074 0.984 . S
H1082 N1070 0.984 . S
H1083 N1070 0.985 . S
C1084 C1085 1.363 . S
C1084 C1090 1.379 . S
C1084 N1092 1.356 . S
C1085 C1084 1.363 . S
C1085 C1091 1.363 . S
C1086 C1087 1.363 . S
C1086 C1091 1.379 . S
C1086 N1093 1.356 1_565 S
C1087 C1086 1.363 . S
C1087 C1090 1.363 . S
N1088 C1090 1.356 . S
N1088 H1100 0.984 . S
N1088 H1101 0.985 . S
N1089 C1091 1.356 . S
N1089 H1094 0.984 . S
N1089 H1095 0.985 . S
C1090 C1084 1.379 . S
C1090 C1087 1.363 . S
C1090 N1088 1.356 . S
C1091 C1085 1.363 . S
C1091 C1086 1.379 . S
C1091 N1089 1.356 . S
N1092 C1084 1.356 . S
N1092 H1098 0.984 . S
N1092 H1099 0.984 . S
N1093 C1086 1.356 1_545 S
N1093 H1096 0.984 . S
N1093 H1097 0.985 . S
H1094 N1089 0.984 . S
H1095 N1089 0.985 . S
H1096 N1093 0.984 . S
H1097 N1093 0.985 . S
H1098 N1092 0.984 . S
H1099 N1092 0.984 . S
H1100 N1088 0.984 . S
H1101 N1088 0.985 . S
C1102 C1103 1.363 . S
C1102 C1108 1.379 . S
C1102 N1110 1.356 . S
C1103 C1102 1.363 . S
C1103 C1109 1.363 . S
C1104 C1105 1.363 . S
C1104 C1109 1.379 . S
C1104 N1111 1.356 . S
C1105 C1104 1.363 . S
C1105 C1108 1.363 . S
N1106 C1108 1.356 . S
N1106 H1118 0.984 . S
N1106 H1119 0.985 . S
N1107 C1109 1.356 . S
N1107 H1112 0.984 . S
N1107 H1113 0.985 . S
C1108 C1102 1.379 . S
C1108 C1105 1.363 . S
C1108 N1106 1.356 . S
C1109 C1103 1.363 . S
C1109 C1104 1.379 . S
C1109 N1107 1.356 . S
N1110 C1102 1.356 . S
N1110 H1116 0.984 . S
N1110 H1117 0.984 . S
N1111 C1104 1.356 . S
N1111 H1114 0.984 . S
N1111 H1115 0.985 . S
H1112 N1107 0.984 . S
H1113 N1107 0.985 . S
H1114 N1111 0.984 . S
H1115 N1111 0.985 . S
H1116 N1110 0.984 . S
H1117 N1110 0.984 . S
H1118 N1106 0.984 . S
H1119 N1106 0.985 . S
C1120 C1121 1.363 . S
C1120 C1126 1.379 . S
C1120 N1128 1.356 . S
C1121 C1120 1.363 . S
C1121 C1127 1.363 . S
C1122 C1123 1.363 . S
C1122 C1127 1.379 . S
C1122 N1129 1.356 . S
C1123 C1122 1.363 . S
C1123 C1126 1.363 . S
N1124 C1126 1.356 . S
N1124 H1136 0.984 . S
N1124 H1137 0.985 . S
N1125 C1127 1.356 . S
N1125 H1130 0.984 . S
N1125 H1131 0.985 . S
C1126 C1120 1.379 . S
C1126 C1123 1.363 . S
C1126 N1124 1.356 . S
C1127 C1121 1.363 . S
C1127 C1122 1.379 . S
C1127 N1125 1.356 . S
N1128 C1120 1.356 . S
N1128 H1134 0.984 . S
N1128 H1135 0.984 . S
N1129 C1122 1.356 . S
N1129 H1132 0.984 . S
N1129 H1133 0.985 . S
H1130 N1125 0.984 . S
H1131 N1125 0.985 . S
H1132 N1129 0.984 . S
H1133 N1129 0.985 . S
H1134 N1128 0.984 . S
H1135 N1128 0.984 . S
H1136 N1124 0.984 . S
H1137 N1124 0.985 . S
C1138 C1139 1.363 . S
C1138 C1144 1.379 . S
C1138 N1146 1.356 . S
C1139 C1138 1.363 . S
C1139 C1145 1.363 . S
C1140 C1141 1.363 . S
C1140 C1145 1.379 . S
C1140 N1147 1.356 . S
C1141 C1140 1.363 . S
C1141 C1144 1.363 . S
N1142 C1144 1.356 . S
N1142 H1154 0.984 . S
N1142 H1155 0.985 . S
N1143 C1145 1.356 . S
N1143 H1148 0.984 . S
N1143 H1149 0.985 . S
C1144 C1138 1.379 . S
C1144 C1141 1.363 . S
C1144 N1142 1.356 . S
C1145 C1139 1.363 . S
C1145 C1140 1.379 . S
C1145 N1143 1.356 . S
N1146 C1138 1.356 . S
N1146 H1152 0.984 . S
N1146 H1153 0.984 . S
N1147 C1140 1.356 . S
N1147 H1150 0.984 . S
N1147 H1151 0.985 . S
H1148 N1143 0.984 . S
H1149 N1143 0.985 . S
H1150 N1147 0.984 . S
H1151 N1147 0.985 . S
H1152 N1146 0.984 . S
H1153 N1146 0.984 . S
H1154 N1142 0.984 . S
H1155 N1142 0.985 . S
C1156 C1157 1.363 . S
C1156 C1162 1.379 . S
C1156 N1164 1.356 . S
C1157 C1156 1.363 . S
C1157 C1163 1.363 . S
C1158 C1159 1.363 . S
C1158 C1163 1.379 . S
C1158 N1165 1.356 . S
C1159 C1158 1.363 . S
C1159 C1162 1.363 . S
N1160 C1162 1.356 . S
N1160 H1172 0.984 . S
N1160 H1173 0.985 . S
N1161 C1163 1.356 . S
N1161 H1166 0.984 . S
N1161 H1167 0.985 . S
C1162 C1156 1.379 . S
C1162 C1159 1.363 . S
C1162 N1160 1.356 . S
C1163 C1157 1.363 . S
C1163 C1158 1.379 . S
C1163 N1161 1.356 . S
N1164 C1156 1.356 . S
N1164 H1170 0.984 . S
N1164 H1171 0.984 . S
N1165 C1158 1.356 . S
N1165 H1168 0.984 . S
N1165 H1169 0.985 . S
H1166 N1161 0.984 . S
H1167 N1161 0.985 . S
H1168 N1165 0.984 . S
H1169 N1165 0.985 . S
H1170 N1164 0.984 . S
H1171 N1164 0.984 . S
H1172 N1160 0.984 . S
H1173 N1160 0.985 . S
C1174 C1175 1.363 . S
C1174 C1180 1.379 . S
C1174 N1182 1.356 . S
C1175 C1174 1.363 . S
C1175 C1181 1.363 . S
C1176 C1177 1.363 . S
C1176 C1181 1.379 . S
C1176 N1183 1.356 . S
C1177 C1176 1.363 . S
C1177 C1180 1.363 . S
N1178 C1180 1.356 . S
N1178 H1190 0.984 . S
N1178 H1191 0.985 . S
N1179 C1181 1.356 . S
N1179 H1184 0.984 . S
N1179 H1185 0.985 . S
C1180 C1174 1.379 . S
C1180 C1177 1.363 . S
C1180 N1178 1.356 . S
C1181 C1175 1.363 . S
C1181 C1176 1.379 . S
C1181 N1179 1.356 . S
N1182 C1174 1.356 . S
N1182 H1188 0.984 . S
N1182 H1189 0.984 . S
N1183 C1176 1.356 . S
N1183 H1186 0.984 . S
N1183 H1187 0.985 . S
H1184 N1179 0.984 . S
H1185 N1179 0.985 . S
H1186 N1183 0.984 . S
H1187 N1183 0.985 . S
H1188 N1182 0.984 . S
H1189 N1182 0.984 . S
H1190 N1178 0.984 . S
H1191 N1178 0.985 . S
C1192 C1193 1.363 . S
C1192 C1198 1.379 . S
C1192 N1200 1.356 . S
C1193 C1192 1.363 . S
C1193 C1199 1.363 . S
C1194 C1195 1.363 . S
C1194 C1199 1.379 . S
C1194 N1201 1.356 . S
C1195 C1194 1.363 . S
C1195 C1198 1.363 . S
N1196 C1198 1.356 . S
N1196 H1208 0.984 . S
N1196 H1209 0.985 . S
N1197 C1199 1.356 . S
N1197 H1202 0.984 . S
N1197 H1203 0.985 . S
C1198 C1192 1.379 . S
C1198 C1195 1.363 . S
C1198 N1196 1.356 . S
C1199 C1193 1.363 . S
C1199 C1194 1.379 . S
C1199 N1197 1.356 . S
N1200 C1192 1.356 . S
N1200 H1206 0.984 . S
N1200 H1207 0.984 . S
N1201 C1194 1.356 . S
N1201 H1204 0.984 . S
N1201 H1205 0.985 . S
H1202 N1197 0.984 . S
H1203 N1197 0.985 . S
H1204 N1201 0.984 . S
H1205 N1201 0.985 . S
H1206 N1200 0.984 . S
H1207 N1200 0.984 . S
H1208 N1196 0.984 . S
H1209 N1196 0.985 . S
C1210 C1211 1.363 . S
C1210 C1216 1.379 . S
C1210 N1218 1.356 . S
C1211 C1210 1.363 . S
C1211 C1217 1.363 . S
C1212 C1213 1.363 . S
C1212 C1217 1.379 . S
C1212 N1219 1.356 . S
C1213 C1212 1.363 . S
C1213 C1216 1.363 . S
N1214 C1216 1.356 . S
N1214 H1226 0.984 . S
N1214 H1227 0.985 . S
N1215 C1217 1.356 . S
N1215 H1220 0.984 . S
N1215 H1221 0.985 . S
C1216 C1210 1.379 . S
C1216 C1213 1.363 . S
C1216 N1214 1.356 . S
C1217 C1211 1.363 . S
C1217 C1212 1.379 . S
C1217 N1215 1.356 . S
N1218 C1210 1.356 . S
N1218 H1224 0.984 . S
N1218 H1225 0.984 . S
N1219 C1212 1.356 . S
N1219 H1222 0.984 . S
N1219 H1223 0.985 . S
H1220 N1215 0.984 . S
H1221 N1215 0.985 . S
H1222 N1219 0.984 . S
H1223 N1219 0.985 . S
H1224 N1218 0.984 . S
H1225 N1218 0.984 . S
H1226 N1214 0.984 . S
H1227 N1214 0.985 . S
C1228 C1229 1.363 . S
C1228 C1234 1.379 . S
C1228 N1236 1.356 . S
C1229 C1228 1.363 . S
C1229 C1235 1.363 . S
C1230 C1231 1.363 . S
C1230 C1235 1.379 . S
C1230 N1237 1.356 . S
C1231 C1230 1.363 . S
C1231 C1234 1.363 . S
N1232 C1234 1.356 . S
N1232 H1244 0.984 . S
N1232 H1245 0.985 . S
N1233 C1235 1.356 . S
N1233 H1238 0.984 . S
N1233 H1239 0.985 . S
C1234 C1228 1.379 . S
C1234 C1231 1.363 . S
C1234 N1232 1.356 . S
C1235 C1229 1.363 . S
C1235 C1230 1.379 . S
C1235 N1233 1.356 . S
N1236 C1228 1.356 . S
N1236 H1242 0.984 . S
N1236 H1243 0.984 . S
N1237 C1230 1.356 . S
N1237 H1240 0.984 . S
N1237 H1241 0.985 . S
H1238 N1233 0.984 . S
H1239 N1233 0.985 . S
H1240 N1237 0.984 . S
H1241 N1237 0.985 . S
H1242 N1236 0.984 . S
H1243 N1236 0.984 . S
H1244 N1232 0.984 . S
H1245 N1232 0.985 . S
C1246 C1247 1.363 . S
C1246 C1252 1.379 . S
C1246 N1254 1.356 . S
C1247 C1246 1.363 . S
C1247 C1253 1.363 . S
C1248 C1249 1.363 . S
C1248 C1253 1.379 . S
C1248 N1255 1.356 . S
C1249 C1248 1.363 . S
C1249 C1252 1.363 . S
N1250 C1252 1.356 . S
N1250 H1262 0.984 . S
N1250 H1263 0.985 . S
N1251 C1253 1.356 . S
N1251 H1256 0.984 . S
N1251 H1257 0.985 . S
C1252 C1246 1.379 . S
C1252 C1249 1.363 . S
C1252 N1250 1.356 . S
C1253 C1247 1.363 . S
C1253 C1248 1.379 . S
C1253 N1251 1.356 . S
N1254 C1246 1.356 . S
N1254 H1260 0.984 . S
N1254 H1261 0.984 . S
N1255 C1248 1.356 . S
N1255 H1258 0.984 . S
N1255 H1259 0.985 . S
H1256 N1251 0.984 . S
H1257 N1251 0.985 . S
H1258 N1255 0.984 . S
H1259 N1255 0.985 . S
H1260 N1254 0.984 . S
H1261 N1254 0.984 . S
H1262 N1250 0.984 . S
H1263 N1250 0.985 . S
C545 C141 1.614 . S
C547 C5 1.614 . S
C563 C175 1.614 . S
C565 C39 1.614 . S
C581 C73 1.614 . S
C583 C209 1.614 . S
C599 C243 1.614 . S
C601 C107 1.614 . S
C617 C413 1.614 . S
C619 C277 1.614 . S
C635 C311 1.614 . S
C637 C447 1.614 . S
C653 C345 1.614 . S
C655 C481 1.614 . S
C671 C379 1.614 . S
C673 C515 1.614 . S
C689 C2 1.429 . S
C691 C428 1.453 1_545 S
C707 C36 1.429 . S
C709 C462 1.453 . S
C725 C496 1.453 . S
C727 C70 1.429 . S
C743 C104 1.428 . S
C745 C530 1.453 1_455 S
C761 C292 1.453 . S
C763 C138 1.429 . S
C779 C326 1.453 1_455 S
C781 C172 1.429 . S
C797 C206 1.428 . S
C799 C360 1.453 1_545 S
C815 C394 1.453 . S
C817 C240 1.429 . S
C833 C274 1.429 . S
C835 C156 1.453 1_565 S
C851 C308 1.429 . S
C853 C190 1.453 . S
C869 C224 1.453 . S
C871 C342 1.429 . S
C887 C376 1.428 . S
C889 C258 1.453 1_655 S
C905 C410 1.429 . S
C907 C20 1.453 . S
C923 C444 1.429 . S
C925 C54 1.453 1_655 S
C941 C478 1.428 . S
C943 C88 1.453 1_565 S
C959 C122 1.453 . S
C961 C512 1.429 . S
C977 C247 1.650 . S
C979 C9 1.650 . S
C995 C43 1.650 . S
C997 C145 1.650 . S
C1013 C179 1.650 . S
C1015 C77 1.650 . S
C1031 C213 1.650 . S
C1033 C111 1.650 . S
C1049 C281 1.650 . S
C1051 C519 1.650 . S
C1067 C417 1.650 . S
C1069 C315 1.650 . S
C1085 C349 1.650 . S
C1087 C451 1.650 . S
C1103 C485 1.650 . S
C1105 C383 1.650 . S
C1121 C101 0.468 . S
C1123 C33 0.468 . S
C1139 C135 0.468 . S
C1141 C67 0.468 . S
C1157 C169 0.468 . S
C1159 C237 0.468 . S
C1175 C271 0.468 . S
C1177 C203 0.468 . S
C1193 C305 0.468 . S
C1195 C373 0.468 . S
C1211 C407 0.468 . S
C1213 C339 0.468 . S
C1229 C441 0.468 . S
C1231 C509 0.468 . S
C1247 C475 0.468 . S
C1249 C543 0.468 . S
