# Generated by pormake.
# Topology ukp, (4)-cn, num edge types: 1
# Building blocks:
#     Node 0, Type 0, BuildingBlock: CEKHIL_clean_sbu_0, # of connection points: 4
#     Node 1, Type 0, BuildingBlock: CEKHIL_clean_sbu_0, # of connection points: 4
#     Node 2, Type 0, BuildingBlock: CEKHIL_clean_sbu_0, # of connection points: 4
#     Node 3, Type 0, BuildingBlock: CEKHIL_clean_sbu_0, # of connection points: 4
#     Node 4, Type 0, BuildingBlock: CEKHIL_clean_sbu_0, # of connection points: 4
#     Node 5, Type 0, BuildingBlock: CEKHIL_clean_sbu_0, # of connection points: 4
#     Node 6, Type 0, BuildingBlock: CEKHIL_clean_sbu_0, # of connection points: 4
#     Node 7, Type 0, BuildingBlock: CEKHIL_clean_sbu_0, # of connection points: 4
#     Node 8, Type 0, BuildingBlock: CEKHIL_clean_sbu_0, # of connection points: 4
#     Node 9, Type 0, BuildingBlock: CEKHIL_clean_sbu_0, # of connection points: 4
#     Node 10, Type 0, BuildingBlock: CEKHIL_clean_sbu_0, # of connection points: 4
#     Node 11, Type 0, BuildingBlock: CEKHIL_clean_sbu_0, # of connection points: 4
#     Node 12, Type 0, BuildingBlock: CEKHIL_clean_sbu_0, # of connection points: 4
#     Node 13, Type 0, BuildingBlock: CEKHIL_clean_sbu_0, # of connection points: 4
#     Node 14, Type 0, BuildingBlock: CEKHIL_clean_sbu_0, # of connection points: 4
#     Node 15, Type 0, BuildingBlock: CEKHIL_clean_sbu_0, # of connection points: 4
#     Node 16, Type 0, BuildingBlock: CEKHIL_clean_sbu_0, # of connection points: 4
#     Node 17, Type 0, BuildingBlock: CEKHIL_clean_sbu_0, # of connection points: 4
#     Node 18, Type 0, BuildingBlock: CEKHIL_clean_sbu_0, # of connection points: 4
#     Node 19, Type 0, BuildingBlock: CEKHIL_clean_sbu_0, # of connection points: 4
#     Node 20, Type 0, BuildingBlock: CEKHIL_clean_sbu_0, # of connection points: 4
#     Node 21, Type 0, BuildingBlock: CEKHIL_clean_sbu_0, # of connection points: 4
#     Node 22, Type 0, BuildingBlock: CEKHIL_clean_sbu_0, # of connection points: 4
#     Node 23, Type 0, BuildingBlock: CEKHIL_clean_sbu_0, # of connection points: 4
#     Node 24, Type 0, BuildingBlock: CEKHIL_clean_sbu_0, # of connection points: 4
#     Node 25, Type 0, BuildingBlock: CEKHIL_clean_sbu_0, # of connection points: 4
#     Node 26, Type 0, BuildingBlock: CEKHIL_clean_sbu_0, # of connection points: 4
#     Node 27, Type 0, BuildingBlock: CEKHIL_clean_sbu_0, # of connection points: 4
#     Node 28, Type 0, BuildingBlock: CEKHIL_clean_sbu_0, # of connection points: 4
#     Node 29, Type 0, BuildingBlock: CEKHIL_clean_sbu_0, # of connection points: 4
#     Node 30, Type 0, BuildingBlock: CEKHIL_clean_sbu_0, # of connection points: 4
#     Node 31, Type 0, BuildingBlock: CEKHIL_clean_sbu_0, # of connection points: 4
#     Node 32, Type 0, BuildingBlock: CEKHIL_clean_sbu_0, # of connection points: 4
#     Node 33, Type 0, BuildingBlock: CEKHIL_clean_sbu_0, # of connection points: 4
#     Node 34, Type 0, BuildingBlock: CEKHIL_clean_sbu_0, # of connection points: 4
#     Node 35, Type 0, BuildingBlock: CEKHIL_clean_sbu_0, # of connection points: 4
#     Node 36, Type 0, BuildingBlock: CEKHIL_clean_sbu_0, # of connection points: 4
#     Node 37, Type 0, BuildingBlock: CEKHIL_clean_sbu_0, # of connection points: 4
#     Node 38, Type 0, BuildingBlock: CEKHIL_clean_sbu_0, # of connection points: 4
#     Node 39, Type 0, BuildingBlock: CEKHIL_clean_sbu_0, # of connection points: 4
#     Node 40, Type 0, BuildingBlock: CEKHIL_clean_sbu_0, # of connection points: 4
#     Node 41, Type 0, BuildingBlock: CEKHIL_clean_sbu_0, # of connection points: 4
#     Node 42, Type 0, BuildingBlock: CEKHIL_clean_sbu_0, # of connection points: 4
#     Node 43, Type 0, BuildingBlock: CEKHIL_clean_sbu_0, # of connection points: 4
#     Node 44, Type 0, BuildingBlock: CEKHIL_clean_sbu_0, # of connection points: 4
#     Node 45, Type 0, BuildingBlock: CEKHIL_clean_sbu_0, # of connection points: 4
#     Node 46, Type 0, BuildingBlock: CEKHIL_clean_sbu_0, # of connection points: 4
#     Node 47, Type 0, BuildingBlock: CEKHIL_clean_sbu_0, # of connection points: 4
#     Edge 48, Type (0, 0), BuildingBlock: ZUJKAS_clean_linker_0, # of connection points: 2
#     Edge 49, Type (0, 0), BuildingBlock: ZUJKAS_clean_linker_0, # of connection points: 2
#     Edge 50, Type (0, 0), BuildingBlock: ZUJKAS_clean_linker_0, # of connection points: 2
#     Edge 51, Type (0, 0), BuildingBlock: ZUJKAS_clean_linker_0, # of connection points: 2
#     Edge 52, Type (0, 0), BuildingBlock: ZUJKAS_clean_linker_0, # of connection points: 2
#     Edge 53, Type (0, 0), BuildingBlock: ZUJKAS_clean_linker_0, # of connection points: 2
#     Edge 54, Type (0, 0), BuildingBlock: ZUJKAS_clean_linker_0, # of connection points: 2
#     Edge 55, Type (0, 0), BuildingBlock: ZUJKAS_clean_linker_0, # of connection points: 2
#     Edge 56, Type (0, 0), BuildingBlock: ZUJKAS_clean_linker_0, # of connection points: 2
#     Edge 57, Type (0, 0), BuildingBlock: ZUJKAS_clean_linker_0, # of connection points: 2
#     Edge 58, Type (0, 0), BuildingBlock: ZUJKAS_clean_linker_0, # of connection points: 2
#     Edge 59, Type (0, 0), BuildingBlock: ZUJKAS_clean_linker_0, # of connection points: 2
#     Edge 60, Type (0, 0), BuildingBlock: ZUJKAS_clean_linker_0, # of connection points: 2
#     Edge 61, Type (0, 0), BuildingBlock: ZUJKAS_clean_linker_0, # of connection points: 2
#     Edge 62, Type (0, 0), BuildingBlock: ZUJKAS_clean_linker_0, # of connection points: 2
#     Edge 63, Type (0, 0), BuildingBlock: ZUJKAS_clean_linker_0, # of connection points: 2
#     Edge 64, Type (0, 0), BuildingBlock: ZUJKAS_clean_linker_0, # of connection points: 2
#     Edge 65, Type (0, 0), BuildingBlock: ZUJKAS_clean_linker_0, # of connection points: 2
#     Edge 66, Type (0, 0), BuildingBlock: ZUJKAS_clean_linker_0, # of connection points: 2
#     Edge 67, Type (0, 0), BuildingBlock: ZUJKAS_clean_linker_0, # of connection points: 2
#     Edge 68, Type (0, 0), BuildingBlock: ZUJKAS_clean_linker_0, # of connection points: 2
#     Edge 69, Type (0, 0), BuildingBlock: ZUJKAS_clean_linker_0, # of connection points: 2
#     Edge 70, Type (0, 0), BuildingBlock: ZUJKAS_clean_linker_0, # of connection points: 2
#     Edge 71, Type (0, 0), BuildingBlock: ZUJKAS_clean_linker_0, # of connection points: 2
#     Edge 72, Type (0, 0), BuildingBlock: ZUJKAS_clean_linker_0, # of connection points: 2
#     Edge 73, Type (0, 0), BuildingBlock: ZUJKAS_clean_linker_0, # of connection points: 2
#     Edge 74, Type (0, 0), BuildingBlock: ZUJKAS_clean_linker_0, # of connection points: 2
#     Edge 75, Type (0, 0), BuildingBlock: ZUJKAS_clean_linker_0, # of connection points: 2
#     Edge 76, Type (0, 0), BuildingBlock: ZUJKAS_clean_linker_0, # of connection points: 2
#     Edge 77, Type (0, 0), BuildingBlock: ZUJKAS_clean_linker_0, # of connection points: 2
#     Edge 78, Type (0, 0), BuildingBlock: ZUJKAS_clean_linker_0, # of connection points: 2
#     Edge 79, Type (0, 0), BuildingBlock: ZUJKAS_clean_linker_0, # of connection points: 2
#     Edge 80, Type (0, 0), BuildingBlock: ZUJKAS_clean_linker_0, # of connection points: 2
#     Edge 81, Type (0, 0), BuildingBlock: ZUJKAS_clean_linker_0, # of connection points: 2
#     Edge 82, Type (0, 0), BuildingBlock: ZUJKAS_clean_linker_0, # of connection points: 2
#     Edge 83, Type (0, 0), BuildingBlock: ZUJKAS_clean_linker_0, # of connection points: 2
#     Edge 84, Type (0, 0), BuildingBlock: ZUJKAS_clean_linker_0, # of connection points: 2
#     Edge 85, Type (0, 0), BuildingBlock: ZUJKAS_clean_linker_0, # of connection points: 2
#     Edge 86, Type (0, 0), BuildingBlock: ZUJKAS_clean_linker_0, # of connection points: 2
#     Edge 87, Type (0, 0), BuildingBlock: ZUJKAS_clean_linker_0, # of connection points: 2
#     Edge 88, Type (0, 0), BuildingBlock: ZUJKAS_clean_linker_0, # of connection points: 2
#     Edge 89, Type (0, 0), BuildingBlock: ZUJKAS_clean_linker_0, # of connection points: 2
#     Edge 90, Type (0, 0), BuildingBlock: ZUJKAS_clean_linker_0, # of connection points: 2
#     Edge 91, Type (0, 0), BuildingBlock: ZUJKAS_clean_linker_0, # of connection points: 2
#     Edge 92, Type (0, 0), BuildingBlock: ZUJKAS_clean_linker_0, # of connection points: 2
#     Edge 93, Type (0, 0), BuildingBlock: ZUJKAS_clean_linker_0, # of connection points: 2
#     Edge 94, Type (0, 0), BuildingBlock: ZUJKAS_clean_linker_0, # of connection points: 2
#     Edge 95, Type (0, 0), BuildingBlock: ZUJKAS_clean_linker_0, # of connection points: 2
#     Edge 96, Type (0, 0), BuildingBlock: ZUJKAS_clean_linker_0, # of connection points: 2
#     Edge 97, Type (0, 0), BuildingBlock: ZUJKAS_clean_linker_0, # of connection points: 2
#     Edge 98, Type (0, 0), BuildingBlock: ZUJKAS_clean_linker_0, # of connection points: 2
#     Edge 99, Type (0, 0), BuildingBlock: ZUJKAS_clean_linker_0, # of connection points: 2
#     Edge 100, Type (0, 0), BuildingBlock: ZUJKAS_clean_linker_0, # of connection points: 2
#     Edge 101, Type (0, 0), BuildingBlock: ZUJKAS_clean_linker_0, # of connection points: 2
#     Edge 102, Type (0, 0), BuildingBlock: ZUJKAS_clean_linker_0, # of connection points: 2
#     Edge 103, Type (0, 0), BuildingBlock: ZUJKAS_clean_linker_0, # of connection points: 2
#     Edge 104, Type (0, 0), BuildingBlock: ZUJKAS_clean_linker_0, # of connection points: 2
#     Edge 105, Type (0, 0), BuildingBlock: ZUJKAS_clean_linker_0, # of connection points: 2
#     Edge 106, Type (0, 0), BuildingBlock: ZUJKAS_clean_linker_0, # of connection points: 2
#     Edge 107, Type (0, 0), BuildingBlock: ZUJKAS_clean_linker_0, # of connection points: 2
#     Edge 108, Type (0, 0), BuildingBlock: ZUJKAS_clean_linker_0, # of connection points: 2
#     Edge 109, Type (0, 0), BuildingBlock: ZUJKAS_clean_linker_0, # of connection points: 2
#     Edge 110, Type (0, 0), BuildingBlock: ZUJKAS_clean_linker_0, # of connection points: 2
#     Edge 111, Type (0, 0), BuildingBlock: ZUJKAS_clean_linker_0, # of connection points: 2
#     Edge 112, Type (0, 0), BuildingBlock: ZUJKAS_clean_linker_0, # of connection points: 2
#     Edge 113, Type (0, 0), BuildingBlock: ZUJKAS_clean_linker_0, # of connection points: 2
#     Edge 114, Type (0, 0), BuildingBlock: ZUJKAS_clean_linker_0, # of connection points: 2
#     Edge 115, Type (0, 0), BuildingBlock: ZUJKAS_clean_linker_0, # of connection points: 2
#     Edge 116, Type (0, 0), BuildingBlock: ZUJKAS_clean_linker_0, # of connection points: 2
#     Edge 117, Type (0, 0), BuildingBlock: ZUJKAS_clean_linker_0, # of connection points: 2
#     Edge 118, Type (0, 0), BuildingBlock: ZUJKAS_clean_linker_0, # of connection points: 2
#     Edge 119, Type (0, 0), BuildingBlock: ZUJKAS_clean_linker_0, # of connection points: 2
#     Edge 120, Type (0, 0), BuildingBlock: ZUJKAS_clean_linker_0, # of connection points: 2
#     Edge 121, Type (0, 0), BuildingBlock: ZUJKAS_clean_linker_0, # of connection points: 2
#     Edge 122, Type (0, 0), BuildingBlock: ZUJKAS_clean_linker_0, # of connection points: 2
#     Edge 123, Type (0, 0), BuildingBlock: ZUJKAS_clean_linker_0, # of connection points: 2
#     Edge 124, Type (0, 0), BuildingBlock: ZUJKAS_clean_linker_0, # of connection points: 2
#     Edge 125, Type (0, 0), BuildingBlock: ZUJKAS_clean_linker_0, # of connection points: 2
#     Edge 126, Type (0, 0), BuildingBlock: ZUJKAS_clean_linker_0, # of connection points: 2
#     Edge 127, Type (0, 0), BuildingBlock: ZUJKAS_clean_linker_0, # of connection points: 2
#     Edge 128, Type (0, 0), BuildingBlock: ZUJKAS_clean_linker_0, # of connection points: 2
#     Edge 129, Type (0, 0), BuildingBlock: ZUJKAS_clean_linker_0, # of connection points: 2
#     Edge 130, Type (0, 0), BuildingBlock: ZUJKAS_clean_linker_0, # of connection points: 2
#     Edge 131, Type (0, 0), BuildingBlock: ZUJKAS_clean_linker_0, # of connection points: 2
#     Edge 132, Type (0, 0), BuildingBlock: ZUJKAS_clean_linker_0, # of connection points: 2
#     Edge 133, Type (0, 0), BuildingBlock: ZUJKAS_clean_linker_0, # of connection points: 2
#     Edge 134, Type (0, 0), BuildingBlock: ZUJKAS_clean_linker_0, # of connection points: 2
#     Edge 135, Type (0, 0), BuildingBlock: ZUJKAS_clean_linker_0, # of connection points: 2
#     Edge 136, Type (0, 0), BuildingBlock: ZUJKAS_clean_linker_0, # of connection points: 2
#     Edge 137, Type (0, 0), BuildingBlock: ZUJKAS_clean_linker_0, # of connection points: 2
#     Edge 138, Type (0, 0), BuildingBlock: ZUJKAS_clean_linker_0, # of connection points: 2
#     Edge 139, Type (0, 0), BuildingBlock: ZUJKAS_clean_linker_0, # of connection points: 2
#     Edge 140, Type (0, 0), BuildingBlock: ZUJKAS_clean_linker_0, # of connection points: 2
#     Edge 141, Type (0, 0), BuildingBlock: ZUJKAS_clean_linker_0, # of connection points: 2
#     Edge 142, Type (0, 0), BuildingBlock: ZUJKAS_clean_linker_0, # of connection points: 2
#     Edge 143, Type (0, 0), BuildingBlock: ZUJKAS_clean_linker_0, # of connection points: 2
# Relax obj value: 0.217
# Max RMSD: 0.304
# Mean RMSD: 0.304
data_MOF--net-ukp--node1-CEKHIL_clean_sbu_0--edge1-ZUJKAS_clean_linker_0
_symmetry_space_group_name_H-M    P1
_symmetry_Int_Tables_number       1
_symmetry_cell_setting            triclinic
loop_
_symmetry_equiv_pos_as_xyz
'x, y, z'
_cell_length_a     79.101199
_cell_length_b     79.085047
_cell_length_c     79.109406
_cell_angle_alpha  89.991338
_cell_angle_beta   89.988157
_cell_angle_gamma 90.008027
loop_
_atom_site_label
_atom_site_type_symbol
_atom_site_fract_x
_atom_site_fract_y
_atom_site_fract_z
_atom_type_partial_charge
Co0 Co 0.17663 0.25736 0.3675 0.0
O1 O 0.17103 0.24804 0.38896 0.0
O2 O 0.15227 0.25733 0.37018 0.0
C3 C 0.19522 0.23728 0.35981 0.0
O4 O 0.17839 0.26746 0.34392 0.0
Co5 Co 0.2134 0.2698 0.3622 0.0
O6 O 0.20617 0.26966 0.33815 0.0
C7 C 0.18998 0.29068 0.38207 0.0
C8 C 0.1554 0.25065 0.38489 0.0
C9 C 0.1907 0.27013 0.33362 0.0
O10 O 0.17798 0.28052 0.37798 0.0
O11 O 0.20547 0.28804 0.37812 0.0
O12 O 0.17912 0.23489 0.35776 0.0
O13 O 0.19933 0.2507 0.36823 0.0
Co14 Co 0.98706 0.93 0.62328 0.0
O15 O 0.99581 0.92967 0.64577 0.0
O16 O 0.9895 0.9068 0.63076 0.0
C17 C 0.00556 0.94877 0.61258 0.0
O18 O 0.97812 0.92612 0.59939 0.0
Co19 Co 0.9714 0.96357 0.61036 0.0
O20 O 0.97457 0.95212 0.58826 0.0
C21 C 0.95141 0.9419 0.63305 0.0
C22 C 0.99522 0.91333 0.64476 0.0
C23 C 0.97561 0.93611 0.58678 0.0
O24 O 0.9633 0.93083 0.63247 0.0
O25 O 0.95254 0.95639 0.62588 0.0
O26 O 0.00965 0.93294 0.61399 0.0
O27 O 0.99141 0.95301 0.61965 0.0
Co28 Co 0.31974 0.73813 0.86836 0.0
O29 O 0.32354 0.7462 0.89072 0.0
O30 O 0.34384 0.73865 0.8728 0.0
C31 C 0.30115 0.75826 0.86067 0.0
O32 O 0.31986 0.7294 0.84414 0.0
Co33 Co 0.28374 0.72521 0.85975 0.0
O34 O 0.29252 0.72779 0.83634 0.0
C35 C 0.30642 0.70356 0.87968 0.0
C36 C 0.3395 0.74431 0.88764 0.0
C37 C 0.30826 0.72761 0.83287 0.0
O38 O 0.31834 0.71432 0.8772 0.0
O39 O 0.29116 0.70603 0.87485 0.0
O40 O 0.31729 0.76114 0.85993 0.0
O41 O 0.29687 0.74419 0.86787 0.0
Co42 Co 0.50957 0.06207 0.12272 0.0
O43 O 0.5025 0.06572 0.14551 0.0
O44 O 0.51018 0.08604 0.1277 0.0
C45 C 0.48846 0.0446 0.11517 0.0
O46 O 0.51723 0.06255 0.09809 0.0
Co47 Co 0.52054 0.02589 0.11232 0.0
O48 O 0.51756 0.03547 0.08934 0.0
C49 C 0.54433 0.04718 0.13141 0.0
C50 C 0.50476 0.08169 0.14262 0.0
C51 C 0.51821 0.0513 0.08633 0.0
O52 O 0.53366 0.05942 0.13056 0.0
O53 O 0.5412 0.03235 0.12571 0.0
O54 O 0.48621 0.06085 0.11514 0.0
O55 O 0.50253 0.03947 0.1218 0.0
Co56 Co 0.18007 0.73861 0.12709 0.0
O57 O 0.1759 0.74585 0.10454 0.0
O58 O 0.15588 0.73919 0.1231 0.0
C59 C 0.19885 0.75888 0.13373 0.0
O60 O 0.18041 0.73093 0.15167 0.0
Co61 Co 0.21625 0.7258 0.13521 0.0
O62 O 0.20791 0.72867 0.15871 0.0
C63 C 0.19307 0.7037 0.11645 0.0
C64 C 0.15998 0.74437 0.10801 0.0
C65 C 0.19227 0.72904 0.16267 0.0
O66 O 0.18119 0.71447 0.11908 0.0
O67 O 0.20846 0.70635 0.12072 0.0
O68 O 0.18276 0.7619 0.13456 0.0
O69 O 0.20295 0.74457 0.12693 0.0
Co70 Co 0.51167 0.92963 0.37858 0.0
O71 O 0.50177 0.92912 0.35659 0.0
O72 O 0.50887 0.90637 0.37144 0.0
C73 C 0.49364 0.94848 0.3899 0.0
O74 O 0.52184 0.9259 0.40194 0.0
Co75 Co 0.52792 0.96354 0.38997 0.0
O76 O 0.52896 0.95165 0.41202 0.0
C77 C 0.54596 0.94212 0.36563 0.0
C78 C 0.50241 0.9128 0.35773 0.0
C79 C 0.52701 0.93575 0.41381 0.0
O80 O 0.53487 0.93048 0.36807 0.0
O81 O 0.54475 0.95693 0.37207 0.0
O82 O 0.48958 0.93261 0.38899 0.0
O83 O 0.50745 0.95265 0.38217 0.0
Co84 Co 0.32123 0.25889 0.62477 0.0
O85 O 0.32813 0.24953 0.60373 0.0
O86 O 0.3457 0.25928 0.62342 0.0
C87 C 0.30271 0.23848 0.63173 0.0
O88 O 0.31799 0.26899 0.64821 0.0
Co89 Co 0.28395 0.2706 0.62791 0.0
O90 O 0.28988 0.27081 0.6523 0.0
C91 C 0.30799 0.2918 0.60917 0.0
C92 C 0.34348 0.25233 0.60867 0.0
C93 C 0.30504 0.2715 0.65776 0.0
O94 O 0.31997 0.28197 0.61408 0.0
O95 O 0.29237 0.28881 0.61222 0.0
O96 O 0.31875 0.23643 0.63448 0.0
O97 O 0.29874 0.25173 0.62296 0.0
Co98 Co 0.98551 0.07172 0.87587 0.0
O99 O 0.99427 0.07294 0.85345 0.0
O100 O 0.98774 0.09521 0.86929 0.0
C101 C 0.00412 0.05268 0.88578 0.0
O102 O 0.97651 0.07466 0.89984 0.0
Co103 Co 0.97011 0.03753 0.88747 0.0
O104 O 0.97259 0.04829 0.90999 0.0
C105 C 0.95038 0.05956 0.86495 0.0
C106 C 0.99344 0.08921 0.85505 0.0
C107 C 0.97372 0.06424 0.91203 0.0
O108 O 0.96185 0.07097 0.86651 0.0
O109 O 0.95173 0.04478 0.87143 0.0
O110 O 0.0081 0.06859 0.88513 0.0
O111 O 0.99 0.04865 0.87857 0.0
Co112 Co 0.36817 0.17906 0.25655 0.0
O113 O 0.39081 0.17826 0.24821 0.0
O114 O 0.37536 0.15571 0.25466 0.0
C115 C 0.35827 0.19777 0.23756 0.0
O116 O 0.34411 0.17566 0.26526 0.0
Co117 Co 0.35541 0.21295 0.27152 0.0
O118 O 0.33321 0.20184 0.26789 0.0
C119 C 0.37775 0.19143 0.29204 0.0
C120 C 0.38959 0.16196 0.24921 0.0
C121 C 0.33155 0.18582 0.26729 0.0
O122 O 0.37706 0.18015 0.28037 0.0
O123 O 0.37072 0.20597 0.29065 0.0
O124 O 0.35934 0.18184 0.23374 0.0
O125 O 0.36502 0.20204 0.25184 0.0
Co126 Co 0.06774 0.11892 0.50886 0.0
O127 O 0.06948 0.14135 0.50035 0.0
O128 O 0.09141 0.12496 0.50666 0.0
C129 C 0.04852 0.10979 0.49009 0.0
O130 O 0.06998 0.09476 0.51763 0.0
Co131 Co 0.03334 0.10816 0.52419 0.0
O132 O 0.04326 0.08535 0.5208 0.0
C133 C 0.05603 0.12974 0.54419 0.0
C134 C 0.08571 0.13939 0.50111 0.0
C135 C 0.05914 0.08281 0.51986 0.0
O136 O 0.06726 0.12808 0.53257 0.0
O137 O 0.0411 0.12358 0.54293 0.0
O138 O 0.06445 0.11 0.4862 0.0
O139 O 0.04461 0.11694 0.50429 0.0
Co140 Co 0.12839 0.81548 0.76186 0.0
O141 O 0.10574 0.81927 0.75444 0.0
O142 O 0.12404 0.83958 0.76092 0.0
C143 C 0.13545 0.79644 0.74195 0.0
O144 O 0.15296 0.81568 0.76966 0.0
Co145 Co 0.13729 0.7797 0.77529 0.0
O146 O 0.16064 0.78837 0.77224 0.0
C147 C 0.11803 0.80286 0.79702 0.0
C148 C 0.10901 0.83526 0.75576 0.0
C149 C 0.16424 0.80409 0.77169 0.0
O150 O 0.12029 0.81459 0.78599 0.0
O151 O 0.12273 0.78754 0.79466 0.0
O152 O 0.13603 0.8125 0.73866 0.0
O153 O 0.12865 0.79247 0.7563 0.0
Co154 Co 0.42633 0.87707 0.01162 0.0
O155 O 0.42534 0.85433 0.00372 0.0
O156 O 0.4029 0.87013 0.00968 0.0
C157 C 0.44522 0.88634 0.99247 0.0
O158 O 0.42318 0.90131 0.01978 0.0
Co159 Co 0.46046 0.88959 0.02638 0.0
O160 O 0.44945 0.9119 0.02293 0.0
C161 C 0.43888 0.8673 0.0469 0.0
C162 C 0.40906 0.85578 0.00443 0.0
C163 C 0.43347 0.91373 0.02195 0.0
O164 O 0.42724 0.86864 0.03563 0.0
O165 O 0.45368 0.87364 0.04508 0.0
O166 O 0.4293 0.88542 0.98864 0.0
O167 O 0.44935 0.87984 0.00691 0.0
Co168 Co 0.36884 0.81471 0.24024 0.0
O169 O 0.39103 0.81952 0.24833 0.0
O170 O 0.37218 0.83898 0.24087 0.0
C171 C 0.36188 0.7958 0.26032 0.0
O172 O 0.3446 0.81384 0.23162 0.0
Co173 Co 0.36193 0.77844 0.22713 0.0
O174 O 0.33814 0.78627 0.22868 0.0
C175 C 0.38088 0.80205 0.20565 0.0
C176 C 0.38717 0.83533 0.2466 0.0
C177 C 0.33391 0.80183 0.22899 0.0
O178 O 0.37776 0.81379 0.21643 0.0
O179 O 0.37679 0.78657 0.20807 0.0
O180 O 0.36056 0.81189 0.26321 0.0
O181 O 0.36929 0.79179 0.24628 0.0
Co182 Co 0.43036 0.12275 0.48687 0.0
O183 O 0.42556 0.14521 0.49396 0.0
O184 O 0.40606 0.12598 0.48769 0.0
C185 C 0.44946 0.11693 0.50708 0.0
O186 O 0.43144 0.09807 0.47944 0.0
Co187 Co 0.46652 0.11565 0.47366 0.0
O188 O 0.45917 0.09198 0.47746 0.0
C189 C 0.44246 0.13328 0.45155 0.0
C190 C 0.40974 0.14123 0.49271 0.0
C191 C 0.4437 0.08745 0.47794 0.0
O192 O 0.43094 0.13066 0.4627 0.0
O193 O 0.45796 0.12918 0.45383 0.0
O194 O 0.43342 0.11559 0.51014 0.0
O195 O 0.45333 0.12371 0.49266 0.0
Co196 Co 0.13054 0.17868 0.73687 0.0
O197 O 0.10811 0.17634 0.74536 0.0
O198 O 0.12468 0.15491 0.73785 0.0
C199 C 0.13963 0.19709 0.75652 0.0
O200 O 0.15461 0.17693 0.7278 0.0
Co201 Co 0.14132 0.21376 0.72315 0.0
O202 O 0.16415 0.2037 0.72594 0.0
C203 C 0.11985 0.19194 0.70206 0.0
C204 C 0.11021 0.16019 0.74367 0.0
C205 C 0.1666 0.18777 0.72593 0.0
O206 O 0.12132 0.18026 0.71324 0.0
O207 O 0.12611 0.20677 0.70394 0.0
O208 O 0.13949 0.18099 0.75967 0.0
O209 O 0.1325 0.2016 0.74249 0.0
Co210 Co 0.07139 0.88094 0.98969 0.0
O211 O 0.0748 0.859 -0.00102 0.0
O212 O 0.09543 0.87647 0.99122 0.0
C213 C 0.05222 0.88979 0.00873 0.0
O214 O 0.07187 0.90477 0.97994 0.0
Co215 Co 0.03577 0.88887 0.97524 0.0
O216 O 0.04456 0.91235 0.97677 0.0
C217 C 0.05895 0.86754 0.95556 0.0
C218 C 0.09083 0.86196 0.9975 0.0
C219 C 0.06029 0.91587 0.97725 0.0
O220 O 0.07067 0.87086 0.96632 0.0
O221 O 0.04363 0.87243 0.95744 0.0
O222 O 0.06825 0.89054 0.01214 0.0
O223 O 0.04835 0.88181 0.99498 0.0
Co224 Co 0.25753 0.3702 0.17927 0.0
O225 O 0.25058 0.39289 0.17522 0.0
O226 O 0.2562 0.37413 0.15509 0.0
C227 C 0.2376 0.36413 0.1986 0.0
O228 O 0.26472 0.34543 0.17954 0.0
Co229 Co 0.27108 0.36193 0.21513 0.0
O230 O 0.26732 0.33848 0.20703 0.0
C231 C 0.293 0.38008 0.19123 0.0
C232 C 0.25134 0.3893 0.15928 0.0
C233 C 0.26655 0.33444 0.19143 0.0
O234 O 0.28183 0.37773 0.17966 0.0
O235 O 0.29067 0.37586 0.2067 0.0
O236 O 0.23421 0.36321 0.18259 0.0
O237 O 0.25216 0.37062 0.20232 0.0
Co238 Co 0.75562 0.12493 0.81126 0.0
O239 O 0.74777 0.10216 0.81252 0.0
O240 O 0.75398 0.11815 0.83475 0.0
C241 C 0.73627 0.13409 0.79262 0.0
O242 O 0.76374 0.14927 0.81414 0.0
Co243 Co 0.77005 0.13733 0.777 0.0
O244 O 0.76622 0.15967 0.78776 0.0
C245 C 0.79128 0.11605 0.79885 0.0
C246 C 0.74866 0.10374 0.82879 0.0
C247 C 0.76564 0.16168 0.80374 0.0
O248 O 0.77962 0.11659 0.81016 0.0
O249 O 0.78965 0.12276 0.7842 0.0
O250 O 0.73262 0.13318 0.80858 0.0
O251 O 0.75065 0.12756 0.78829 0.0
Co252 Co 0.11797 0.50981 0.07019 0.0
O253 O 0.13961 0.50071 0.07537 0.0
O254 O 0.12105 0.50955 0.09454 0.0
C255 C 0.11026 0.48966 0.05168 0.0
O256 O 0.09423 0.51965 0.06868 0.0
Co257 Co 0.11246 0.52226 0.03342 0.0
O258 O 0.0885 0.52181 0.04087 0.0
C259 C 0.13192 0.54345 0.05687 0.0
C260 C 0.13577 0.503 0.0911 0.0
C261 C 0.08393 0.52225 0.05633 0.0
O262 O 0.12812 0.5331 0.06881 0.0
O263 O 0.12797 0.54084 0.04139 0.0
O264 O 0.10848 0.48724 0.06781 0.0
O265 O 0.1185 0.50317 0.04748 0.0
Co266 Co 0.73715 0.86937 0.31397 0.0
O267 O 0.74493 0.89159 0.31911 0.0
O268 O 0.73726 0.87249 0.33826 0.0
C269 C 0.7576 0.86276 0.29539 0.0
O270 O 0.7288 0.84502 0.31266 0.0
Co271 Co 0.72488 0.86272 0.2773 0.0
O272 O 0.72664 0.83887 0.28495 0.0
C273 C 0.70295 0.88158 0.30054 0.0
C274 C 0.74291 0.88758 0.33485 0.0
C275 C 0.72668 0.83444 0.30046 0.0
O276 O 0.7133 0.87813 0.31258 0.0
O277 O 0.70583 0.87773 0.28508 0.0
O278 O 0.76026 0.86131 0.31151 0.0
O279 O 0.74358 0.87011 0.29123 0.0
Co280 Co 0.87618 0.98758 0.06451 0.0
O281 O 0.85354 0.99576 0.06509 0.0
O282 O 0.86866 0.98929 0.08781 0.0
C283 C 0.88622 0.00692 0.04623 0.0
O284 O 0.90031 0.97916 0.06799 0.0
Co285 Co 0.88909 0.97323 0.03033 0.0
O286 O 0.9112 0.97647 0.04176 0.0
C287 C 0.86656 0.95243 0.05132 0.0
C288 C 0.85456 0.99491 0.0814 0.0
C289 C 0.91284 0.97717 0.05778 0.0
O290 O 0.86757 0.96366 0.06304 0.0
O291 O 0.87321 0.95435 0.03668 0.0
O292 O 0.88487 0.01049 0.06218 0.0
O293 O 0.87954 0.99269 0.04165 0.0
Co294 Co 0.23889 0.62493 0.67701 0.0
O295 O 0.24745 0.60332 0.67079 0.0
O296 O 0.23925 0.62306 0.65255 0.0
C297 C 0.25905 0.63123 0.69601 0.0
O298 O 0.22972 0.64887 0.67961 0.0
Co299 Co 0.22639 0.62916 0.71394 0.0
O300 O 0.22757 0.65343 0.70763 0.0
C301 C 0.20484 0.6113 0.68953 0.0
C302 C 0.24539 0.60802 0.65527 0.0
C303 C 0.22738 0.65871 0.69239 0.0
O304 O 0.21531 0.61535 0.67777 0.0
O305 O 0.20751 0.6145 0.70517 0.0
O306 O 0.26168 0.63371 0.68001 0.0
O307 O 0.24533 0.62311 0.6997 0.0
Co308 Co 0.11919 0.48459 0.43106 0.0
O309 O 0.14157 0.49288 0.42759 0.0
O310 O 0.12392 0.48548 0.40703 0.0
C311 C 0.11108 0.50452 0.44967 0.0
O312 O 0.09497 0.4758 0.43056 0.0
Co313 Co 0.11023 0.47133 0.46687 0.0
O314 O 0.08693 0.47344 0.45778 0.0
C315 C 0.13053 0.44995 0.44424 0.0
C316 C 0.13863 0.49134 0.41157 0.0
C317 C 0.08359 0.47355 0.44201 0.0
O318 O 0.12818 0.46081 0.43238 0.0
O319 O 0.12544 0.45229 0.45944 0.0
O320 O 0.11062 0.50752 0.43356 0.0
O321 O 0.11832 0.49048 0.45398 0.0
Co322 Co 0.3767 0.50843 0.92997 0.0
O323 O 0.35408 0.5001 0.92903 0.0
O324 O 0.36982 0.50612 0.90657 0.0
C325 C 0.38638 0.48964 0.94901 0.0
O326 O 0.40081 0.51702 0.92676 0.0
Co327 Co 0.38894 0.52375 0.96395 0.0
O328 O 0.4113 0.52025 0.95305 0.0
C329 C 0.36684 0.54396 0.94192 0.0
C330 C 0.35556 0.50064 0.91274 0.0
C331 C 0.41319 0.51934 0.93706 0.0
O332 O 0.36796 0.53234 0.9306 0.0
O333 O 0.37329 0.54251 0.95671 0.0
O334 O 0.38544 0.48563 0.93314 0.0
O335 O 0.37958 0.50398 0.95303 0.0
Co336 Co 0.68137 0.76016 0.87162 0.0
O337 O 0.68159 0.75225 0.89439 0.0
O338 O 0.65835 0.75766 0.87962 0.0
C339 C 0.70016 0.7415 0.86134 0.0
O340 O 0.67694 0.76811 0.84748 0.0
Co341 Co 0.71442 0.77585 0.85757 0.0
O342 O 0.70273 0.77151 0.83581 0.0
C343 C 0.69294 0.79625 0.88003 0.0
C344 C 0.66524 0.75251 0.89367 0.0
C345 C 0.68672 0.77016 0.83462 0.0
O346 O 0.68201 0.78422 0.87995 0.0
O347 O 0.70731 0.79512 0.87264 0.0
O348 O 0.68442 0.73729 0.86316 0.0
O349 O 0.70436 0.75598 0.86775 0.0
Co350 Co 0.48922 0.42848 0.12046 0.0
O351 O 0.49633 0.42358 0.14292 0.0
O352 O 0.4904 0.40416 0.1235 0.0
C353 C 0.50911 0.44799 0.1148 0.0
O354 O 0.4818 0.42966 0.09579 0.0
Co355 Co 0.4757 0.4647 0.11362 0.0
O356 O 0.47912 0.4574 0.08986 0.0
C357 C 0.45396 0.44027 0.13123 0.0
C358 C 0.49532 0.40778 0.13879 0.0
C359 C 0.47986 0.44195 0.08526 0.0
O360 O 0.46498 0.42871 0.12823 0.0
O361 O 0.45634 0.45588 0.12762 0.0
O362 O 0.51252 0.43201 0.11337 0.0
O363 O 0.49463 0.45147 0.1216 0.0
Co364 Co 0.82176 0.23895 0.3709 0.0
O365 O 0.82778 0.24731 0.39261 0.0
O366 O 0.8462 0.23918 0.37299 0.0
C367 C 0.80297 0.25935 0.36468 0.0
O368 O 0.81937 0.22995 0.3469 0.0
Co369 Co 0.78483 0.22681 0.36588 0.0
O370 O 0.79137 0.22923 0.34174 0.0
C371 C 0.80882 0.20487 0.38395 0.0
C372 C 0.84335 0.24529 0.38801 0.0
C373 C 0.80669 0.2286 0.33678 0.0
O374 O 0.82072 0.21531 0.38027 0.0
O375 O 0.79325 0.20766 0.38045 0.0
O376 O 0.819 0.26184 0.36231 0.0
O377 O 0.79908 0.24553 0.37254 0.0
Co378 Co 0.00788 0.56741 0.61985 0.0
O379 O 0.00058 0.57235 0.64228 0.0
O380 O 0.00776 0.5917 0.6232 0.0
C381 C 0.98735 0.54877 0.61354 0.0
O382 O 0.01573 0.56627 0.59532 0.0
Co383 Co 0.02006 0.53077 0.6127 0.0
O384 O 0.01755 0.53856 0.58898 0.0
C385 C 0.04258 0.55408 0.63082 0.0
C386 C 0.00249 0.58814 0.63839 0.0
C387 C 0.01753 0.5541 0.58463 0.0
O388 O 0.03195 0.56606 0.62801 0.0
O389 O 0.03969 0.53864 0.62686 0.0
O390 O 0.98458 0.56489 0.61228 0.0
O391 O 0.00153 0.54464 0.62057 0.0
Co392 Co 0.67789 0.24007 0.62338 0.0
O393 O 0.67291 0.24828 0.60134 0.0
O394 O 0.6536 0.24065 0.62032 0.0
C395 C 0.69678 0.26011 0.63043 0.0
O396 O 0.6791 0.23139 0.64757 0.0
Co397 Co 0.71434 0.2271 0.62976 0.0
O398 O 0.70682 0.22905 0.65362 0.0
C399 C 0.69066 0.20571 0.6108 0.0
C400 C 0.65714 0.24652 0.60535 0.0
C401 C 0.69132 0.22923 0.65812 0.0
O402 O 0.67884 0.21631 0.61427 0.0
O403 O 0.70617 0.20825 0.6147 0.0
O404 O 0.68069 0.26299 0.63183 0.0
O405 O 0.70075 0.2462 0.62275 0.0
Co406 Co 0.00896 0.42511 0.87845 0.0
O407 O 0.99719 0.41995 0.85809 0.0
O408 O 0.00795 0.40078 0.87563 0.0
C409 C 0.99047 0.44425 0.88844 0.0
O410 O 0.02166 0.42646 0.9008 0.0
Co411 Co 0.02296 0.46176 0.88152 0.0
O412 O 0.02982 0.45363 0.9042 0.0
C413 C 0.04079 0.43748 0.86 0.0
C414 C -0.00017 0.40422 0.86173 0.0
C415 C 0.0288 0.43837 0.90931 0.0
O416 O 0.03094 0.42581 0.86557 0.0
O417 O 0.03879 0.45313 0.86361 0.0
O418 O 0.98775 0.4282 0.89058 0.0
O419 O 0.00296 0.44798 0.87856 0.0
Co420 Co 0.81705 0.75893 0.1237 0.0
O421 O 0.82235 0.75005 0.10201 0.0
O422 O 0.84141 0.75827 0.12095 0.0
C423 C 0.79813 0.73905 0.13107 0.0
O424 O 0.81545 0.76837 0.14759 0.0
Co425 Co 0.78045 0.77195 0.12907 0.0
O426 O 0.78763 0.77095 0.15309 0.0
C427 C 0.80438 0.79282 0.10984 0.0
C428 C 0.83807 0.75191 0.10614 0.0
C429 C 0.80305 0.77093 0.15784 0.0
O430 O 0.81618 0.78239 0.11384 0.0
O431 O 0.78881 0.79034 0.11354 0.0
O432 O 0.81419 0.73628 0.13282 0.0
O433 O 0.79423 0.7527 0.12291 0.0
Co434 Co 0.48712 0.56848 0.37541 0.0
O435 O 0.49458 0.57201 0.35279 0.0
O436 O 0.48783 0.59254 0.37075 0.0
C437 C 0.50721 0.54978 0.38276 0.0
O438 O 0.4792 0.56883 0.39992 0.0
Co439 Co 0.47401 0.5326 0.3844 0.0
O440 O 0.47685 0.54152 0.4077 0.0
C441 C 0.45225 0.55539 0.36479 0.0
C442 C 0.49307 0.58802 0.3558 0.0
C443 C 0.47724 0.55725 0.41123 0.0
O444 O 0.46306 0.56727 0.36724 0.0
O445 O 0.45477 0.54008 0.36947 0.0
O446 O 0.51032 0.56588 0.38317 0.0
O447 O 0.49294 0.54557 0.37593 0.0
Co448 Co 0.86991 0.68196 0.75887 0.0
O449 O 0.89258 0.68131 0.75067 0.0
O450 O 0.87724 0.65865 0.75697 0.0
C451 C 0.85994 0.70056 0.73982 0.0
O452 O 0.84583 0.67843 0.76733 0.0
Co453 Co 0.85698 0.71595 0.77362 0.0
O454 O 0.83484 0.70455 0.77043 0.0
C455 C 0.8794 0.69464 0.79425 0.0
C456 C 0.89142 0.665 0.7515 0.0
C457 C 0.83327 0.68853 0.76955 0.0
O458 O 0.87857 0.68313 0.7828 0.0
O459 O 0.87264 0.70926 0.79255 0.0
O460 O 0.86115 0.68464 0.73602 0.0
O461 O 0.86668 0.70491 0.75408 0.0
Co462 Co 0.56836 0.61915 0.007 0.0
O463 O 0.57495 0.64047 -0.00206 0.0
O464 O 0.59278 0.62101 0.00769 0.0
C465 C 0.55002 0.61211 0.98646 0.0
O466 O 0.56551 0.59558 0.01695 0.0
Co467 Co 0.5311 0.6152 0.01851 0.0
O468 O 0.5375 0.59093 0.01889 0.0
C469 C 0.55471 0.63397 0.04013 0.0
C470 C 0.59035 0.63588 0.00105 0.0
C471 C 0.55277 0.58579 0.0196 0.0
O472 O 0.56676 0.62956 0.03017 0.0
O473 O 0.53915 0.63062 0.03712 0.0
O474 O 0.56611 0.60956 0.98444 0.0
O475 O 0.54588 0.62068 -0.00023 0.0
Co476 Co 0.6303 0.32065 0.2606 0.0
O477 O 0.60787 0.32331 0.25231 0.0
O478 O 0.6249 0.34455 0.25923 0.0
C479 C 0.6385 0.30179 0.24095 0.0
O480 O 0.65447 0.32198 0.26938 0.0
Co481 Co 0.64055 0.2854 0.27429 0.0
O482 O 0.66353 0.29505 0.27117 0.0
C483 C 0.61939 0.30765 0.29535 0.0
C484 C 0.61032 0.33944 0.25354 0.0
C485 C 0.66629 0.31094 0.27113 0.0
O486 O 0.62133 0.31949 0.28438 0.0
O487 O 0.62505 0.29262 0.29319 0.0
O488 O 0.63895 0.31786 0.2377 0.0
O489 O 0.63154 0.29766 0.25516 0.0
Co490 Co 0.92988 0.37593 0.51103 0.0
O491 O 0.92482 0.35385 0.50299 0.0
O492 O 0.90554 0.373 0.51012 0.0
C493 C 0.94902 0.38238 0.491 0.0
O494 O 0.93123 0.40021 0.51952 0.0
Co495 Co 0.96622 0.38192 0.52437 0.0
O496 O 0.95895 0.40588 0.52262 0.0
C497 C 0.94208 0.36333 0.54556 0.0
C498 C 0.90905 0.35795 0.50443 0.0
C499 C 0.94352 0.41057 0.52213 0.0
O500 O 0.93043 0.36705 0.53486 0.0
O501 O 0.95769 0.3669 0.54314 0.0
O502 O 0.93298 0.38406 0.48806 0.0
O503 O 0.95282 0.37497 0.50511 0.0
Co504 Co 0.86726 0.31314 0.73859 0.0
O505 O 0.8899 0.3141 0.74676 0.0
O506 O 0.87426 0.33656 0.74052 0.0
C507 C 0.85777 0.2944 0.75779 0.0
O508 O 0.84315 0.31633 0.7301 0.0
Co509 Co 0.85477 0.27908 0.72381 0.0
O510 O 0.83244 0.29009 0.72718 0.0
C511 C 0.87683 0.30074 0.70315 0.0
C512 C 0.88851 0.33039 0.74602 0.0
C513 C 0.83069 0.3061 0.7279 0.0
O514 O 0.87587 0.31216 0.71468 0.0
O515 O 0.87028 0.28601 0.70478 0.0
O516 O 0.85868 0.31035 0.76146 0.0
O517 O 0.86437 0.2901 0.74343 0.0
Co518 Co 0.92893 0.6209 0.98763 0.0
O519 O 0.92186 0.64242 0.99567 0.0
O520 O 0.90443 0.62181 0.98777 0.0
C521 C 0.94787 0.61576 0.0082 0.0
O522 O 0.93246 0.59686 0.97907 0.0
Co523 Co 0.96609 0.61779 0.97549 0.0
O524 O 0.96062 0.59333 0.97674 0.0
C525 C 0.94135 0.63492 0.95377 0.0
C526 C 0.90654 0.63702 0.99372 0.0
C527 C 0.94558 0.58748 0.9768 0.0
O528 O 0.9296 0.63006 0.96389 0.0
O529 O 0.95708 0.63254 0.95677 0.0
O530 O 0.93192 0.61285 0.01065 0.0
O531 O 0.95151 0.62357 0.99427 0.0
Co532 Co 0.62577 0.67922 0.23499 0.0
O533 O 0.60316 0.67672 0.24289 0.0
O534 O 0.6201 0.65539 0.23602 0.0
C535 C 0.63417 0.69779 0.25481 0.0
O536 O 0.65009 0.67768 0.22662 0.0
Co537 Co 0.63651 0.7145 0.22155 0.0
O538 O 0.65935 0.70457 0.22476 0.0
C539 C 0.61543 0.69256 0.20015 0.0
C540 C 0.60547 0.66058 0.24152 0.0
C541 C 0.66198 0.68867 0.22497 0.0
O542 O 0.61723 0.68064 0.21106 0.0
O543 O 0.6211 0.70756 0.20248 0.0
O544 O 0.63405 0.68171 0.25804 0.0
O545 O 0.62738 0.70214 0.24057 0.0
Co546 Co 0.56892 0.38013 0.48822 0.0
O547 O 0.57442 0.35811 0.49607 0.0
O548 O 0.5933 0.37751 0.48842 0.0
C549 C 0.5501 0.38633 0.50861 0.0
O550 O 0.56708 0.40437 0.47975 0.0
Co551 Co 0.53217 0.38569 0.4757 0.0
O552 O 0.53923 0.40973 0.47725 0.0
C553 C 0.55603 0.36729 0.45405 0.0
C554 C 0.5901 0.36236 0.49404 0.0
C555 C 0.55461 0.41458 0.4774 0.0
O556 O 0.56789 0.37124 0.46441 0.0
O557 O 0.54043 0.37067 0.45684 0.0
O558 O 0.56617 0.3882 0.5113 0.0
O559 O 0.54617 0.37889 0.49457 0.0
Co560 Co 0.756 0.87109 0.68172 0.0
O561 O 0.74758 0.8937 0.68177 0.0
O562 O 0.7537 0.879 0.65865 0.0
C563 C 0.73736 0.86036 0.70031 0.0
O564 O 0.76463 0.84715 0.67744 0.0
Co565 Co 0.77153 0.85741 0.71502 0.0
O566 O 0.76785 0.83555 0.70326 0.0
C567 C 0.79175 0.88028 0.69378 0.0
C568 C 0.74823 0.89297 0.66543 0.0
C569 C 0.76685 0.83434 0.68723 0.0
O570 O 0.77986 0.87997 0.68269 0.0
O571 O 0.79056 0.87288 0.70814 0.0
O572 O 0.73329 0.86205 0.68452 0.0
O573 O 0.75162 0.86715 0.70465 0.0
Co574 Co 0.25733 0.62628 0.31629 0.0
O575 O 0.24918 0.60375 0.31895 0.0
O576 O 0.25602 0.62084 0.34016 0.0
C577 C 0.23773 0.63475 0.29753 0.0
O578 O 0.26593 0.65056 0.31759 0.0
Co579 Co 0.27124 0.63617 0.28096 0.0
O580 O 0.26883 0.65922 0.2906 0.0
C581 C 0.29229 0.61551 0.30352 0.0
C582 C 0.25039 0.60622 0.33508 0.0
C583 C 0.26837 0.6622 0.30645 0.0
O584 O 0.28119 0.61753 0.31521 0.0
O585 O 0.29022 0.62087 0.28838 0.0
O586 O 0.2344 0.63475 0.31359 0.0
O587 O 0.25189 0.62771 0.29331 0.0
Co588 Co 0.61696 0.01114 0.56923 0.0
O589 O 0.63918 0.00284 0.57353 0.0
O590 O 0.62124 0.01151 0.59335 0.0
C591 C 0.6089 0.9905 0.55141 0.0
O592 O 0.59286 0.02023 0.56887 0.0
Co593 Co 0.60881 0.02284 0.53269 0.0
O594 O 0.58532 0.02162 0.54145 0.0
C595 C 0.62899 0.04499 0.55463 0.0
C596 C 0.63601 0.00541 0.58938 0.0
C597 C 0.58172 0.02224 0.55716 0.0
O598 O 0.62626 0.03473 0.56694 0.0
O599 O 0.62417 0.04201 0.53946 0.0
O600 O 0.60812 0.98821 0.56763 0.0
O601 O 0.61643 0.00423 0.54662 0.0
Co602 Co 0.23668 0.37009 0.81375 0.0
O603 O 0.24318 0.3929 0.81822 0.0
O604 O 0.23695 0.37388 0.83793 0.0
C605 C 0.2573 0.36421 0.79509 0.0
O606 O 0.22985 0.34524 0.81331 0.0
Co607 Co 0.22467 0.36115 0.77745 0.0
O608 O 0.2283 0.33779 0.78588 0.0
C609 C 0.2016 0.37928 0.80028 0.0
C610 C 0.24177 0.38915 0.83409 0.0
C611 C 0.22858 0.33402 0.80156 0.0
O612 O 0.21229 0.37727 0.81236 0.0
O613 O 0.20462 0.37491 0.78499 0.0
O614 O 0.26023 0.3634 0.8112 0.0
O615 O 0.24279 0.37052 0.79091 0.0
Co616 Co 0.37695 0.48686 0.56203 0.0
O617 O 0.3544 0.49477 0.56495 0.0
O618 O 0.3716 0.48759 0.58596 0.0
C619 C 0.38512 0.50708 0.54376 0.0
O620 O 0.4013 0.47848 0.56304 0.0
Co621 Co 0.38678 0.47397 0.52635 0.0
O622 O 0.40983 0.47628 0.53597 0.0
C623 C 0.36644 0.4521 0.54845 0.0
C624 C 0.35694 0.49329 0.58105 0.0
C625 C 0.41291 0.47639 0.5518 0.0
O626 O 0.36836 0.46295 0.5604 0.0
O627 O 0.37178 0.4546 0.53337 0.0
O628 O 0.38522 0.50991 0.55991 0.0
O629 O 0.37821 0.49296 0.53917 0.0
Co630 Co 0.73614 0.12711 0.17643 0.0
O631 O 0.74888 0.10791 0.16944 0.0
O632 O 0.73642 0.12607 0.15194 0.0
C633 C 0.75477 0.13666 0.19563 0.0
O634 O 0.72246 0.14871 0.17973 0.0
Co635 Co 0.7232 0.1275 0.21345 0.0
O636 O 0.71753 0.1512 0.20767 0.0
C637 C 0.7052 0.10688 0.18841 0.0
C638 C 0.74555 0.11255 0.15412 0.0
C639 C 0.71693 0.15699 0.19263 0.0
O640 O 0.71493 0.11296 0.17689 0.0
O641 O 0.70708 0.11021 0.20414 0.0
O642 O 0.75672 0.14018 0.17972 0.0
O643 O 0.74295 0.12587 0.19907 0.0
Co644 Co 0.61692 0.98909 0.93034 0.0
O645 O 0.6389 0.99761 0.92535 0.0
O646 O 0.62005 0.98973 0.90605 0.0
C647 C 0.60972 0.00893 0.94937 0.0
O648 O 0.5928 0.98 0.93148 0.0
Co649 Co 0.61064 0.97566 0.96659 0.0
O650 O 0.58676 0.97748 0.95918 0.0
C651 C 0.62976 0.95463 0.94273 0.0
C652 C 0.63501 0.99563 0.90957 0.0
C653 C 0.58227 0.97763 0.94369 0.0
O654 O 0.62643 0.9655 0.93113 0.0
O655 O 0.62549 0.95672 0.95821 0.0
O656 O 0.60818 0.01188 0.93331 0.0
O657 O 0.61748 0.99504 0.95325 0.0
Co658 Co 0.87588 0.00734 0.43124 0.0
O659 O 0.85315 -0.00057 0.42984 0.0
O660 O 0.86942 0.00531 0.40772 0.0
C661 C 0.88492 0.98829 0.45034 0.0
O662 O 0.90015 0.01547 0.42842 0.0
Co663 Co 0.88807 0.02212 0.46547 0.0
O664 O 0.91048 0.01812 0.45483 0.0
C665 C 0.86672 0.04301 0.44327 0.0
C666 C 0.85496 2e-05 0.41359 0.0
C667 C 0.91249 0.01731 0.43886 0.0
O668 O 0.86758 0.03142 0.4319 0.0
O669 O 0.87304 0.04132 0.45809 0.0
O670 O 0.88422 0.98438 0.43443 0.0
O671 O 0.87827 0.0027 0.45432 0.0
H672 H 0.11388 0.13606 0.4815 0.0
H673 H 0.12593 0.15842 0.46364 0.0
H674 H 0.09343 0.19511 0.48761 0.0
H675 H 0.08116 0.17282 0.50507 0.0
H676 H 0.08885 0.19291 0.45311 0.0
H677 H 0.15689 0.19962 0.46911 0.0
H678 H 0.15011 0.17828 0.46531 0.0
H679 H 0.1419 0.18966 0.48318 0.0
C680 C 0.10988 0.14902 0.48339 0.0
C681 C 0.09661 0.15282 0.49453 0.0
C682 C 0.1167 0.16176 0.47318 0.0
C683 C 0.11047 0.17838 0.47428 0.0
C684 C 0.09831 0.18235 0.48652 0.0
H685 H 0.1515 0.26102 0.41693 0.0
H686 H 0.13702 0.24523 0.4392 0.0
C687 C 0.09139 0.16966 0.49653 0.0
C688 C 0.11479 0.19108 0.46132 0.0
H689 H 0.1475 0.21291 0.44386 0.0
C690 C 0.10165 0.19743 0.45117 0.0
C691 C 0.13146 0.1969 0.45887 0.0
C692 C 0.1459 0.19089 0.46978 0.0
C693 C 0.10479 0.2094 0.43849 0.0
C694 C 0.12153 0.21494 0.43578 0.0
C695 C 0.13463 0.20867 0.44603 0.0
C696 C 0.12605 0.22686 0.42215 0.0
C697 C 0.09018 0.21608 0.42821 0.0
C698 C 0.12377 0.22235 0.40512 0.0
C699 C 0.13173 0.23163 0.39235 0.0
C700 C 0.14219 0.24528 0.3966 0.0
C701 C 0.14328 0.25062 0.41345 0.0
C702 C 0.13515 0.24155 0.42614 0.0
H703 H 0.07794 0.21437 0.43491 0.0
H704 H 0.09186 0.2297 0.42526 0.0
H705 H 0.08947 0.20902 0.41611 0.0
H706 H 0.11705 0.21089 0.40179 0.0
H707 H 0.1311 0.22713 0.37943 0.0
H708 H 0.11355 0.86238 0.73514 0.0
H709 H 0.09119 0.87729 0.71978 0.0
H710 H 0.05344 0.85039 0.74863 0.0
H711 H 0.07578 0.83483 0.76322 0.0
H712 H 0.04779 0.84627 0.71688 0.0
H713 H 0.0584 0.91452 0.72728 0.0
H714 H 0.0772 0.90449 0.71961 0.0
H715 H 0.06872 0.89858 0.73993 0.0
C716 C 0.10048 0.86016 0.73858 0.0
C717 C 0.09628 0.84756 0.7503 0.0
C718 C 0.08769 0.86869 0.72984 0.0
C719 C 0.07059 0.86503 0.73309 0.0
C720 C 0.06651 0.85338 0.74585 0.0
H721 H 0.9933 0.92029 0.6781 0.0
H722 H 0.00929 0.90687 0.70085 0.0
C723 C 0.07925 0.84459 0.75425 0.0
C724 C 0.0571 0.87145 0.72177 0.0
H725 H 0.04196 0.90703 0.70277 0.0
C726 C 0.04634 0.85961 0.71402 0.0
C727 C 0.05508 0.88883 0.7181 0.0
C728 C 0.06536 0.90232 0.72682 0.0
C729 C 0.03391 0.86459 0.70242 0.0
C730 C 0.03259 0.88185 0.69798 0.0
C731 C 0.04305 0.89375 0.70605 0.0
C732 C 0.02078 0.88794 0.68477 0.0
C733 C 0.02228 0.85131 0.6952 0.0
C734 C 0.0214 0.88135 0.66826 0.0
C735 C 0.01188 0.88874 0.65531 0.0
C736 C 0.00202 0.90309 0.65865 0.0
C737 C 0.00085 0.90921 0.67526 0.0
C738 C 0.01003 0.90161 0.68823 0.0
H739 H 0.02095 0.84039 0.70395 0.0
H740 H 0.00951 0.85651 0.69258 0.0
H741 H 0.02769 0.84648 0.68319 0.0
H742 H 0.0299 0.87108 0.66516 0.0
H743 H 0.01318 0.884 0.64253 0.0
H744 H 0.38069 0.85819 0.98505 0.0
H745 H 0.36871 0.83538 0.96782 0.0
H746 H 0.40219 0.79959 0.99184 0.0
H747 H 0.41458 0.82244 0.0085 0.0
H748 H 0.40586 0.79918 0.95848 0.0
H749 H 0.33768 0.79557 0.97401 0.0
H750 H 0.34424 0.81657 0.96852 0.0
H751 H 0.35262 0.80666 0.98721 0.0
C752 C 0.38499 0.84533 0.98706 0.0
C753 C 0.39852 0.84197 -0.002 0.0
C754 C 0.37817 0.83231 0.97723 0.0
C755 C 0.38458 0.81578 0.97856 0.0
C756 C 0.39713 0.81226 0.99056 0.0
H757 H 0.3396 0.73519 0.92035 0.0
H758 H 0.35367 0.75023 0.94336 0.0
C759 C 0.40413 0.82527 0.00012 0.0
C760 C 0.37989 0.80267 0.96608 0.0
H761 H 0.34638 0.78246 0.94817 0.0
C762 C 0.39286 0.79533 0.95638 0.0
C763 C 0.36298 0.79764 0.9634 0.0
C764 C 0.34861 0.8044 0.97396 0.0
C765 C 0.38935 0.7833 0.94385 0.0
C766 C 0.37237 0.77881 0.94069 0.0
C767 C 0.35943 0.78592 0.9506 0.0
C768 C 0.36745 0.7672 0.92688 0.0
C769 C 0.40385 0.7755 0.93423 0.0
C770 C 0.3713 0.77111 0.90996 0.0
C771 C 0.3636 0.76218 0.89679 0.0
C772 C 0.35173 0.74955 0.90047 0.0
C773 C 0.34884 0.74484 0.9173 0.0
C774 C 0.35677 0.75349 0.93042 0.0
H775 H 0.41577 0.77599 0.94164 0.0
H776 H 0.40117 0.76213 0.93088 0.0
H777 H 0.40591 0.78272 0.92237 0.0
H778 H 0.37923 0.78185 0.90693 0.0
H779 H 0.36569 0.76621 0.88387 0.0
H780 H 0.3882 0.13283 0.23087 0.0
H781 H 0.41192 0.11941 0.21614 0.0
H782 H 0.44652 0.15414 0.24018 0.0
H783 H 0.42274 0.16808 0.2541 0.0
H784 H 0.45157 0.15449 0.20807 0.0
H785 H 0.44885 0.08761 0.22797 0.0
H786 H 0.42894 0.09426 0.21949 0.0
H787 H 0.43689 0.10388 0.23856 0.0
C788 C 0.40093 0.13722 0.23333 0.0
C789 C 0.40374 0.15143 0.24354 0.0
C790 C 0.4145 0.12954 0.22498 0.0
C791 C 0.43106 0.13568 0.22715 0.0
C792 C 0.43388 0.14921 0.23826 0.0
H793 H 0.51062 0.08 0.17618 0.0
H794 H 0.49586 0.09588 0.1982 0.0
C795 C 0.42032 0.15711 0.24625 0.0
C796 C 0.44512 0.12934 0.2165 0.0
H797 H 0.46386 0.09335 0.20211 0.0
C798 C 0.45446 0.14112 0.20699 0.0
C799 C 0.44908 0.11196 0.21523 0.0
C800 C 0.44052 0.09875 0.22601 0.0
C801 C 0.46724 0.13596 0.19585 0.0
C802 C 0.47037 0.1185 0.1937 0.0
C803 C 0.46142 0.10677 0.20363 0.0
C804 C 0.48216 0.11188 0.18071 0.0
C805 C 0.47725 0.14931 0.18659 0.0
C806 C 0.48006 0.11619 0.16358 0.0
C807 C 0.48893 0.10747 0.15102 0.0
C808 C 0.49958 0.09402 0.15543 0.0
C809 C 0.50247 0.0904 0.17254 0.0
C810 C 0.49397 0.09939 0.18509 0.0
H811 H 0.47788 0.16122 0.19402 0.0
H812 H 0.49033 0.14503 0.18387 0.0
H813 H 0.47087 0.15226 0.17445 0.0
H814 H 0.47072 0.12545 0.1598 0.0
H815 H 0.48629 0.11022 0.13786 0.0
H816 H 0.1323 0.7641 0.11352 0.0
H817 H 0.11886 0.78195 0.09199 0.0
H818 H 0.14725 0.75637 0.05307 0.0
H819 H 0.16089 0.73886 0.0745 0.0
H820 H 0.15405 0.79115 0.05616 0.0
H821 H 0.08504 0.77829 0.05211 0.0
H822 H 0.0935 0.78058 0.07309 0.0
H823 H 0.09992 0.76299 0.06028 0.0
C824 C 0.135 0.76178 0.10029 0.0
C825 C 0.14762 0.75025 0.09556 0.0
C826 C 0.12739 0.772 0.08802 0.0
C827 C 0.1322 0.77051 0.07099 0.0
C828 C 0.14346 0.75772 0.06616 0.0
H829 H 0.09197 0.82916 0.98893 0.0
H830 H 0.10489 0.80654 0.00555 0.0
C831 C 0.15116 0.74769 0.07838 0.0
C832 C 0.12791 0.78387 0.0587 0.0
H833 H 0.09521 0.80273 0.03808 0.0
C834 C 0.1412 0.79363 0.05208 0.0
C835 C 0.11116 0.78703 0.05352 0.0
C836 C 0.09655 0.77662 0.05999 0.0
C837 C 0.13818 0.80652 0.04032 0.0
C838 C 0.1214 0.80986 0.03529 0.0
C839 C 0.1081 0.80008 0.04193 0.0
C840 C 0.11712 0.82347 0.02323 0.0
C841 C 0.15299 0.81627 0.03328 0.0
C842 C 0.12053 0.84047 0.02713 0.0
C843 C 0.1135 0.85341 0.01733 0.0
C844 C 0.10278 0.84939 0.00382 0.0
C845 C 0.10038 0.83245 -0.00077 0.0
C846 C 0.10761 0.81957 0.00879 0.0
H847 H 0.16501 0.80914 0.03466 0.0
H848 H 0.15108 0.8193 0.0197 0.0
H849 H 0.15432 0.82834 0.04031 0.0
H850 H 0.12757 0.84376 0.03839 0.0
H851 H 0.11514 0.86643 0.02127 0.0
H852 H 0.50341 0.91877 0.32418 0.0
H853 H 0.4855 0.90587 0.30256 0.0
H854 H 0.46493 0.87182 0.33993 0.0
H855 H 0.48353 0.88422 0.36146 0.0
H856 H 0.4679 0.85656 0.31014 0.0
H857 H 0.4364 0.91843 0.30098 0.0
H858 H 0.45862 0.91938 0.29661 0.0
H859 H 0.45141 0.9147 0.3177 0.0
C860 C 0.49536 0.90824 0.32764 0.0
C861 C 0.49468 0.9025 0.34441 0.0
C862 C 0.485 0.90103 0.31536 0.0
C863 C 0.47342 0.88837 0.3198 0.0
C864 C 0.47363 0.88176 0.3363 0.0
H865 H 0.38097 0.86108 0.26842 0.0
H866 H 0.40252 0.87575 0.28525 0.0
C867 C 0.48431 0.88874 0.34855 0.0
C868 C 0.46058 0.88263 0.30747 0.0
H869 H 0.42905 0.8967 0.28152 0.0
C870 C 0.4594 0.86532 0.30389 0.0
C871 C 0.44921 0.89407 0.29966 0.0
C872 C 0.44882 0.91264 0.30406 0.0
C873 C 0.44731 0.85913 0.29252 0.0
C874 C 0.43657 0.87068 0.284 0.0
C875 C 0.43756 0.88795 0.28778 0.0
C876 C 0.42371 0.86483 0.27175 0.0
C877 C 0.44586 0.84023 0.29019 0.0
C878 C 0.4285 0.85485 0.2579 0.0
C879 C 0.41627 0.84631 0.24855 0.0
C880 C 0.3991 0.84815 0.25253 0.0
C881 C 0.39418 0.85967 0.26506 0.0
C882 C 0.40647 0.86792 0.27472 0.0
H883 H 0.45144 0.83322 0.30101 0.0
H884 H 0.43245 0.8363 0.2888 0.0
H885 H 0.45282 0.83644 0.27862 0.0
H886 H 0.44173 0.85278 0.25504 0.0
H887 H 0.42026 0.83747 0.23887 0.0
H888 H 0.36403 0.22597 0.61525 0.0
H889 H 0.37704 0.20845 0.59334 0.0
H890 H 0.36569 0.24666 0.55607 0.0
H891 H 0.35211 0.26383 0.5779 0.0
H892 H 0.35021 0.21691 0.54951 0.0
H893 H 0.41805 0.20538 0.56309 0.0
H894 H 0.40453 0.20149 0.58088 0.0
H895 H 0.40645 0.22259 0.57261 0.0
C896 C 0.36523 0.231 0.60256 0.0
C897 C 0.35732 0.24623 0.59816 0.0
C898 C 0.37257 0.22096 0.59002 0.0
C899 C 0.37227 0.22625 0.57307 0.0
C900 C 0.36601 0.24236 0.56907 0.0
H901 H 0.40875 0.17453 0.48613 0.0
H902 H 0.39597 0.19583 0.50449 0.0
C903 C 0.35845 0.25224 0.58154 0.0
C904 C 0.37551 0.21399 0.55935 0.0
H905 H 0.40476 0.18668 0.54342 0.0
C906 C 0.3622 0.21041 0.54809 0.0
C907 C 0.39107 0.20541 0.55767 0.0
C908 C 0.40589 0.20901 0.56911 0.0
C909 C 0.36408 0.19843 0.53518 0.0
C910 C 0.37955 0.18983 0.53362 0.0
C911 C 0.39285 0.19334 0.54483 0.0
C912 C 0.3827 0.17764 0.51997 0.0
C913 C 0.34966 0.19504 0.5232 0.0
C914 C 0.37851 0.16052 0.52208 0.0
C915 C 0.38562 0.14832 0.51143 0.0
C916 C 0.39712 0.15326 0.49886 0.0
C917 C 0.39983 0.17051 0.49573 0.0
C918 C 0.39264 0.18265 0.50623 0.0
H919 H 0.33846 0.20307 0.52593 0.0
H920 H 0.35384 0.1974 0.51 0.0
H921 H 0.34589 0.18154 0.52407 0.0
H922 H 0.37091 0.15652 0.53275 0.0
H923 H 0.38361 0.13506 0.51421 0.0
H924 H 0.113 0.13281 0.76426 0.0
H925 H 0.08969 0.11959 0.77981 0.0
H926 H 0.05383 0.1491 0.75112 0.0
H927 H 0.07715 0.16288 0.73627 0.0
H928 H 0.0494 0.15398 0.78341 0.0
H929 H 0.05364 0.08507 0.77235 0.0
H930 H 0.07336 0.09358 0.77958 0.0
H931 H 0.06493 0.10016 0.75948 0.0
C932 C 0.1001 0.13593 0.76088 0.0
C933 C 0.09673 0.14876 0.74914 0.0
C934 C 0.08678 0.12839 0.76974 0.0
C935 C 0.06998 0.13333 0.7666 0.0
C936 C 0.06667 0.14516 0.7538 0.0
H937 H 0.98896 0.08451 0.82166 0.0
H938 H 0.00518 0.09756 0.79885 0.0
C939 C 0.07995 0.15293 0.74526 0.0
C940 C 0.05617 0.12808 0.77809 0.0
H941 H 0.03795 0.09387 0.79683 0.0
C942 C 0.04671 0.14081 0.78614 0.0
C943 C 0.0526 0.11094 0.78159 0.0
C944 C 0.06156 0.09667 0.77265 0.0
C945 C 0.03403 0.13687 0.79786 0.0
C946 C 0.03108 0.11976 0.80203 0.0
C947 C 0.04027 0.10702 0.7937 0.0
C948 C 0.01891 0.11461 0.81527 0.0
C949 C 0.0239 0.15109 0.80556 0.0
C950 C 0.02065 0.12045 0.83198 0.0
C951 C 0.01103 0.11329 0.84498 0.0
C952 C -8e-05 0.09995 0.84142 0.0
C953 C 0.99747 0.09482 0.82463 0.0
C954 C 0.00678 0.10219 0.81164 0.0
H955 H 0.02365 0.16233 0.79713 0.0
H956 H 0.01068 0.14714 0.80818 0.0
H957 H 0.02986 0.15498 0.81764 0.0
H958 H 0.03018 0.12974 0.83516 0.0
H959 H 0.01329 0.1172 0.85791 0.0
H960 H 0.25761 0.42274 0.15868 0.0
H961 H 0.23907 0.44418 0.14636 0.0
H962 H 0.21011 0.40502 0.12181 0.0
H963 H 0.22903 0.3835 0.13379 0.0
H964 H 0.2123 0.43554 0.10313 0.0
H965 H 0.19247 0.44626 0.16957 0.0
H966 H 0.21473 0.44909 0.16611 0.0
H967 H 0.2054 0.42855 0.16325 0.0
C968 C 0.24773 0.4188 0.15005 0.0
C969 C 0.24462 0.40157 0.14717 0.0
C970 C 0.23705 0.431 0.14321 0.0
C971 C 0.22294 0.42608 0.13371 0.0
C972 C 0.22087 0.409 0.1293 0.0
H973 H 0.12934 0.48033 0.11608 0.0
H974 H 0.15092 0.46205 0.12896 0.0
C975 C 0.23175 0.39675 0.13598 0.0
C976 C 0.2095 0.43848 0.13001 0.0
H977 H 0.18149 0.46531 0.14906 0.0
C978 C 0.20555 0.44205 0.11314 0.0
C979 C 0.20043 0.44659 0.14317 0.0
C980 C 0.20332 0.44233 0.16154 0.0
C981 C 0.1931 0.45396 0.10904 0.0
C982 C 0.18469 0.46274 0.1222 0.0
C983 C 0.18823 0.45879 0.13907 0.0
C984 C 0.17204 0.47592 0.11843 0.0
C985 C 0.18889 0.45692 0.09066 0.0
C986 C 0.17691 0.49037 0.10942 0.0
C987 C 0.16469 0.50068 0.10209 0.0
C988 C 0.14749 0.49685 0.10398 0.0
C989 C 0.14257 0.48362 0.11471 0.0
C990 C 0.15486 0.47312 0.1219 0.0
H991 H 0.19332 0.44635 0.08253 0.0
H992 H 0.17506 0.45847 0.08886 0.0
H993 H 0.19521 0.46867 0.08631 0.0
H994 H 0.19015 0.49288 0.10692 0.0
H995 H 0.16869 0.5108 0.09374 0.0
H996 H 0.73175 0.10647 0.85871 0.0
H997 H 0.71509 0.08411 0.87222 0.0
H998 H 0.73453 0.04787 0.83634 0.0
H999 H 0.7506 0.07028 0.82246 0.0
H1000 H 0.7012 0.04769 0.83642 0.0
H1001 H 0.72378 0.04442 0.90253 0.0
H1002 H 0.71795 0.06551 0.89661 0.0
H1003 H 0.73543 0.0553 0.8862 0.0
C1004 C 0.73287 0.09361 0.85411 0.0
C1005 C 0.74235 0.09003 0.83957 0.0
C1006 C 0.72337 0.08084 0.86182 0.0
C1007 C 0.7236 0.0643 0.8553 0.0
C1008 C 0.73411 0.06054 0.84153 0.0
H1009 H 0.66762 0.98631 0.90773 0.0
H1010 H 0.68984 0.00043 0.89154 0.0
C1011 C 0.74333 0.07332 0.83367 0.0
C1012 C 0.71147 0.05143 0.86141 0.0
H1013 H 0.69661 0.03221 0.89694 0.0
C1014 C 0.70035 0.0441 0.84963 0.0
C1015 C 0.71046 0.04666 0.87858 0.0
C1016 C 0.72267 0.05326 0.89167 0.0
C1017 C 0.68798 0.03243 0.85463 0.0
C1018 C 0.68639 0.02835 0.87194 0.0
C1019 C 0.69777 0.03538 0.88365 0.0
C1020 C 0.67273 0.01734 0.87847 0.0
C1021 C 0.67685 0.02457 0.84128 0.0
C1022 C 0.65565 0.02155 0.87583 0.0
C1023 C 0.6429 0.01312 0.88473 0.0
C1024 C 0.64719 0.00072 0.89663 0.0
C1025 C 0.66411 0.9958 0.89849 0.0
C1026 C 0.67677 0.00393 0.88935 0.0
H1027 H 0.68324 0.02437 0.82878 0.0
H1028 H 0.67322 0.01144 0.84469 0.0
H1029 H 0.66516 0.03222 0.83995 0.0
H1030 H 0.65223 0.03211 0.86782 0.0
H1031 H 0.62993 0.0173 0.88342 0.0
H1032 H 0.73494 0.92061 0.33705 0.0
H1033 H 0.75096 0.9421 0.35248 0.0
H1034 H 0.78097 0.90292 0.37575 0.0
H1035 H 0.76431 0.88135 0.36093 0.0
H1036 H 0.77697 0.92978 0.39659 0.0
H1037 H 0.79724 0.9513 0.33302 0.0
H1038 H 0.77482 0.95275 0.33612 0.0
H1039 H 0.78496 0.93237 0.33623 0.0
C1040 C 0.74451 0.91662 0.346 0.0
C1041 C 0.74852 0.89945 0.34786 0.0
C1042 C 0.75378 0.92887 0.35461 0.0
C1043 C 0.76755 0.92409 0.3647 0.0
C1044 C 0.7705 0.90685 0.36785 0.0
H1045 H 0.85849 0.9811 0.38504 0.0
H1046 H 0.83639 0.96354 0.37216 0.0
C1047 C 0.76093 0.89455 0.3595 0.0
C1048 C 0.77982 0.93694 0.37052 0.0
H1049 H 0.80666 0.96764 0.35627 0.0
C1050 C 0.78344 0.93809 0.38781 0.0
C1051 C 0.7886 0.94743 0.35893 0.0
C1052 C 0.78637 0.94581 0.34003 0.0
C1053 C 0.79545 0.94962 0.39389 0.0
C1054 C 0.80361 0.96068 0.38238 0.0
C1055 C 0.80015 0.95938 0.36507 0.0
C1056 C 0.81629 0.97319 0.38807 0.0
C1057 C 0.79966 0.94941 0.41251 0.0
C1058 C 0.81207 0.98512 0.40048 0.0
C1059 C 0.82466 0.9949 0.40795 0.0
C1060 C 0.84154 0.99325 0.40276 0.0
C1061 C 0.84552 0.98262 0.38915 0.0
C1062 C 0.83293 0.97254 0.38189 0.0
H1063 H 0.79605 0.93723 0.41851 0.0
H1064 H 0.81338 0.95153 0.41463 0.0
H1065 H 0.79255 0.95963 0.41897 0.0
H1066 H 0.79919 0.98624 0.40499 0.0
H1067 H 0.82133 0.00316 0.41836 0.0
H1068 H 0.85658 0.01053 0.11222 0.0
H1069 H 0.83482 0.02901 0.12449 0.0
H1070 H 0.79996 0.01401 0.08535 0.0
H1071 H 0.82154 0.99575 0.07304 0.0
H1072 H 0.80813 0.0496 0.08696 0.0
H1073 H 0.78791 0.02287 0.14885 0.0
H1074 H 0.81028 0.02352 0.14472 0.0
H1075 H 0.79698 0.00997 0.13232 0.0
C1076 C 0.84406 0.0107 0.10667 0.0
C1077 C 0.84072 0.00189 0.09164 0.0
C1078 C 0.83168 0.02128 0.11364 0.0
C1079 C 0.81587 0.0229 0.10571 0.0
C1080 C 0.81212 0.01295 0.09157 0.0
H1081 H 0.73256 0.08367 0.14176 0.0
H1082 H 0.74871 0.06189 0.12674 0.0
C1083 C 0.82444 0.00252 0.0846 0.0
C1084 C 0.80411 0.03655 0.11054 0.0
H1085 H 0.77802 0.05023 0.14192 0.0
C1086 C 0.80144 0.04973 0.09894 0.0
C1087 C 0.79545 0.03656 0.12611 0.0
C1088 C 0.79764 0.02244 0.13874 0.0
C1089 C 0.7904 0.06309 0.10258 0.0
C1090 C 0.78194 0.06328 0.11829 0.0
C1091 C 0.78448 0.04998 0.12982 0.0
C1092 C 0.77096 0.07747 0.1235 0.0
C1093 C 0.78782 0.0768 0.08958 0.0
C1094 C 0.77788 0.09365 0.12587 0.0
C1095 C 0.76856 0.10614 0.13418 0.0
C1096 C 0.7523 0.10253 0.1402 0.0
C1097 C 0.74494 0.08678 0.13677 0.0
C1098 C 0.75421 0.07432 0.1284 0.0
H1099 H 0.79134 0.07245 0.0767 0.0
H1100 H 0.77447 0.08115 0.0894 0.0
H1101 H 0.79595 0.08778 0.09279 0.0
H1102 H 0.7909 0.09623 0.1225 0.0
H1103 H 0.7746 0.11805 0.13723 0.0
H1104 H 0.23627 0.57568 0.65029 0.0
H1105 H 0.25341 0.55437 0.63586 0.0
H1106 H 0.28652 0.59357 0.61735 0.0
H1107 H 0.26896 0.61501 0.63135 0.0
H1108 H 0.28319 0.56602 0.59506 0.0
H1109 H 0.29825 0.54548 0.66042 0.0
H1110 H 0.27609 0.5448 0.65557 0.0
H1111 H 0.28697 0.56477 0.65586 0.0
C1112 C 0.24675 0.57976 0.64246 0.0
C1113 C 0.25137 0.59686 0.64183 0.0
C1114 C 0.25664 0.5676 0.63443 0.0
C1115 C 0.2715 0.5724 0.62607 0.0
C1116 C 0.27515 0.58965 0.62391 0.0
H1117 H 0.36196 0.51275 0.60902 0.0
H1118 H 0.3406 0.53137 0.62174 0.0
C1119 C 0.26506 0.60188 0.63174 0.0
C1120 C 0.28412 0.55945 0.62142 0.0
H1121 H 0.30908 0.52843 0.63821 0.0
C1122 C 0.28885 0.55778 0.60446 0.0
C1123 C 0.29182 0.54908 0.63385 0.0
C1124 C 0.28818 0.5512 0.65247 0.0
C1125 C 0.30076 0.54564 0.59948 0.0
C1126 C 0.30776 0.53466 0.61178 0.0
C1127 C 0.30341 0.53665 0.62881 0.0
C1128 C 0.31984 0.52123 0.60707 0.0
C1129 C 0.30596 0.54487 0.58113 0.0
C1130 C 0.31494 0.50866 0.5956 0.0
C1131 C 0.32705 0.49817 0.58832 0.0
C1132 C 0.34415 0.49989 0.5927 0.0
C1133 C 0.3488 0.51112 0.6056 0.0
C1134 C 0.33666 0.52183 0.61274 0.0
H1135 H 0.30295 0.55681 0.57437 0.0
H1136 H 0.31972 0.54237 0.57989 0.0
H1137 H 0.29902 0.53446 0.57479 0.0
H1138 H 0.30192 0.50772 0.59144 0.0
H1139 H 0.32322 0.48952 0.57841 0.0
H1140 H 0.25556 0.57263 0.33277 0.0
H1141 H 0.23882 0.55055 0.34648 0.0
H1142 H 0.21275 0.58852 0.37574 0.0
H1143 H 0.23013 0.61062 0.36254 0.0
H1144 H 0.21676 0.55961 0.39343 0.0
H1145 H 0.19088 0.54519 0.32995 0.0
H1146 H 0.21337 0.5425 0.33103 0.0
H1147 H 0.2043 0.56318 0.33393 0.0
C1148 C 0.24664 0.57616 0.34255 0.0
C1149 C 0.24399 0.59322 0.34661 0.0
C1150 C 0.23695 0.5636 0.3502 0.0
C1151 C 0.22412 0.56798 0.3616 0.0
C1152 C 0.22247 0.58491 0.36678 0.0
H1153 H 0.13306 0.51196 0.38464 0.0
H1154 H 0.15455 0.52971 0.37098 0.0
C1155 C 0.23245 0.59749 0.35937 0.0
C1156 C 0.21166 0.55515 0.3671 0.0
H1157 H 0.18284 0.52665 0.35216 0.0
C1158 C 0.20935 0.55239 0.38443 0.0
C1159 C 0.20168 0.54608 0.35529 0.0
C1160 C 0.20252 0.54949 0.33653 0.0
C1161 C 0.1975 0.54059 0.39031 0.0
C1162 C 0.18817 0.53087 0.37849 0.0
C1163 C 0.19027 0.53384 0.36116 0.0
C1164 C 0.17566 0.51809 0.384 0.0
C1165 C 0.19476 0.53905 0.40915 0.0
C1166 C 0.18055 0.50498 0.39488 0.0
C1167 C 0.16833 0.49508 0.40281 0.0
C1168 C 0.15112 0.49779 0.39953 0.0
C1169 C 0.14631 0.50958 0.3872 0.0
C1170 C 0.15855 0.51978 0.37952 0.0
H1171 H 0.19918 0.55051 0.41598 0.0
H1172 H 0.1812 0.53703 0.41216 0.0
H1173 H 0.20206 0.5281 0.41401 0.0
H1174 H 0.19373 0.5031 0.39805 0.0
H1175 H 0.17226 0.48598 0.41227 0.0
H1176 H 0.322 0.5038 0.91805 0.0
H1177 H 0.29954 0.48719 0.90483 0.0
H1178 H 0.33618 0.46415 0.8716 0.0
H1179 H 0.35859 0.48146 0.88429 0.0
H1180 H 0.30699 0.46865 0.85578 0.0
H1181 H 0.29468 0.43847 0.91778 0.0
H1182 H 0.29154 0.46091 0.9183 0.0
H1183 H 0.3123 0.45248 0.91427 0.0
C1184 C 0.32515 0.4955 0.90762 0.0
C1185 C 0.34195 0.49375 0.90221 0.0
C1186 C 0.31237 0.48588 0.90023 0.0
C1187 C 0.31631 0.47397 0.88771 0.0
C1188 C 0.33291 0.47313 0.88141 0.0
H1189 H 0.26238 0.38322 0.86088 0.0
H1190 H 0.27919 0.40471 0.87559 0.0
C1191 C 0.34568 0.48307 0.88856 0.0
C1192 C 0.30334 0.4618 0.88185 0.0
H1193 H 0.27564 0.43163 0.89562 0.0
C1194 C 0.30012 0.46057 0.86448 0.0
C1195 C 0.29469 0.45097 0.89322 0.0
C1196 C 0.29859 0.45061 0.9119 0.0
C1197 C 0.28841 0.44888 0.85814 0.0
C1198 C 0.27915 0.43863 0.86957 0.0
C1199 C 0.28247 0.43976 0.88693 0.0
C1200 C 0.26676 0.42595 0.86356 0.0
C1201 C 0.28658 0.44725 0.8392 0.0
C1202 C 0.25346 0.43081 0.85288 0.0
C1203 C 0.24413 0.41858 0.84428 0.0
C1204 C 0.24756 0.40136 0.84675 0.0
C1205 C 0.25946 0.39646 0.85893 0.0
C1206 C 0.26911 0.40872 0.86723 0.0
H1207 H 0.29776 0.45239 0.83243 0.0
H1208 H 0.28488 0.43384 0.8354 0.0
H1209 H 0.27534 0.45451 0.83499 0.0
H1210 H 0.25103 0.44405 0.85035 0.0
H1211 H 0.23493 0.42259 0.83496 0.0
H1212 H 0.6148 0.63089 0.9776 0.0
H1213 H 0.63044 0.6535 0.96332 0.0
H1214 H 0.61151 0.68955 -0.00034 0.0
H1215 H 0.59537 0.66706 0.01344 0.0
H1216 H 0.60272 0.69784 0.96838 0.0
H1217 H 0.67118 0.68341 0.96935 0.0
H1218 H 0.65882 0.66584 0.9621 0.0
H1219 H 0.65637 0.67328 0.98347 0.0
C1220 C 0.61469 0.6435 0.98295 0.0
C1221 C 0.6041 0.64736 0.99661 0.0
C1222 C 0.62359 0.65642 0.9748 0.0
C1223 C 0.62215 0.67322 0.98045 0.0
C1224 C 0.61278 0.67669 0.9951 0.0
H1225 H 0.67368 0.75352 0.9267 0.0
H1226 H 0.66154 0.7365 0.94941 0.0
C1227 C 0.60369 0.66386 0.00304 0.0
C1228 C 0.62788 0.68736 0.96963 0.0
H1229 H 0.66172 0.70273 0.94789 0.0
C1230 C 0.6157 0.69907 0.96411 0.0
C1231 C 0.64477 0.68896 0.96409 0.0
C1232 C 0.65856 0.67729 0.9702 0.0
C1233 C 0.61986 0.71213 0.95289 0.0
C1234 C 0.63658 0.71324 0.94673 0.0
C1235 C 0.64886 0.7018 0.95257 0.0
C1236 C 0.64167 0.72587 0.93391 0.0
C1237 C 0.60634 0.72457 0.94778 0.0
C1238 C 0.63404 0.72609 0.91786 0.0
C1239 C 0.64079 0.73608 0.90492 0.0
C1240 C 0.65543 0.74563 0.90784 0.0
C1241 C 0.66239 0.74618 0.92415 0.0
C1242 C 0.65552 0.73643 0.9371 0.0
H1243 H 0.59609 0.72524 0.95737 0.0
H1244 H 0.61166 0.73744 0.94597 0.0
H1245 H 0.6006 0.72042 0.93568 0.0
H1246 H 0.62352 0.71779 0.91504 0.0
H1247 H 0.63536 0.7353 0.89237 0.0
H1248 H 0.57685 0.3374 0.25916 0.0
H1249 H 0.55477 0.34958 0.24131 0.0
H1250 H 0.5925 0.37806 0.21406 0.0
H1251 H 0.61464 0.36623 0.23236 0.0
H1252 H 0.56144 0.39498 0.21729 0.0
H1253 H 0.55319 0.32949 0.19354 0.0
H1254 H 0.55019 0.33146 0.21594 0.0
H1255 H 0.57062 0.33565 0.20688 0.0
C1256 C 0.58031 0.34678 0.24978 0.0
C1257 C 0.59734 0.35088 0.24699 0.0
C1258 C 0.56775 0.35356 0.2395 0.0
C1259 C 0.57213 0.36421 0.22604 0.0
C1260 C 0.58894 0.36968 0.2243 0.0
H1261 H 0.51827 0.38293 0.13285 0.0
H1262 H 0.53623 0.37008 0.15466 0.0
C1263 C 0.60154 0.36307 0.23482 0.0
C1264 C 0.55948 0.36822 0.21291 0.0
H1265 H 0.53344 0.34988 0.18374 0.0
C1266 C 0.5553 0.38516 0.20996 0.0
C1267 C 0.55185 0.35533 0.20308 0.0
C1268 C 0.55679 0.33698 0.20486 0.0
C1269 C 0.54332 0.38956 0.19767 0.0
C1270 C 0.53505 0.37661 0.18845 0.0
C1271 C 0.53955 0.3597 0.1911 0.0
C1272 C 0.5221 0.38062 0.17561 0.0
C1273 C 0.53991 0.40807 0.19443 0.0
C1274 C 0.50757 0.38962 0.18027 0.0
C1275 C 0.49747 0.39702 0.16789 0.0
C1276 C 0.50155 0.39512 0.15074 0.0
C1277 C 0.51482 0.38435 0.14603 0.0
C1278 C 0.52514 0.37717 0.15846 0.0
H1279 H 0.5503 0.4162 0.19925 0.0
H1280 H 0.53828 0.41057 0.18072 0.0
H1281 H 0.5281 0.41181 0.20101 0.0
H1282 H 0.5048 0.39202 0.19346 0.0
H1283 H 0.48727 0.40531 0.17175 0.0
H1284 H 0.90705 0.3246 0.51051 0.0
H1285 H 0.89441 0.3039 0.49138 0.0
H1286 H 0.87122 0.34424 0.46297 0.0
H1287 H 0.88369 0.36508 0.48236 0.0
H1288 H 0.85232 0.31028 0.46617 0.0
H1289 H 0.91865 0.30756 0.44306 0.0
H1290 H 0.91598 0.30494 0.46549 0.0
H1291 H 0.91068 0.32476 0.45579 0.0
C1292 C 0.89856 0.32897 0.50069 0.0
C1293 C 0.89631 0.34632 0.49778 0.0
C1294 C 0.89148 0.31719 0.48972 0.0
C1295 C 0.88228 0.32266 0.47563 0.0
C1296 C 0.87838 0.33988 0.4738 0.0
H1297 H 0.86595 0.27003 0.38107 0.0
H1298 H 0.87798 0.2888 0.40264 0.0
C1299 C 0.88535 0.35172 0.48493 0.0
C1300 C 0.87911 0.31073 0.4617 0.0
H1301 H 0.89963 0.2873 0.43179 0.0
C1302 C 0.8626 0.30527 0.45861 0.0
C1303 C 0.8926 0.30457 0.45168 0.0
C1304 C 0.91048 0.31083 0.45401 0.0
C1305 C 0.85926 0.29327 0.446 0.0
C1306 C 0.87288 0.2864 0.43659 0.0
C1307 C 0.88932 0.29235 0.43929 0.0
C1308 C 0.87004 0.27323 0.4237 0.0
C1309 C 0.84116 0.28815 0.44276 0.0
C1310 C 0.86293 0.25771 0.42845 0.0
C1311 C 0.85608 0.24708 0.41621 0.0
C1312 C 0.85661 0.2517 0.39911 0.0
C1313 C 0.8657 0.26611 0.39419 0.0
C1314 C 0.87237 0.27691 0.4065 0.0
H1315 H 0.83208 0.29755 0.44792 0.0
H1316 H 0.83874 0.28665 0.42901 0.0
H1317 H 0.83864 0.27584 0.44901 0.0
H1318 H 0.86138 0.25452 0.44168 0.0
H1319 H 0.84896 0.23607 0.42021 0.0
H1320 H 0.88942 0.63562 0.73359 0.0
H1321 H 0.91231 0.6229 0.717 0.0
H1322 H 0.94766 0.65859 0.73836 0.0
H1323 H 0.92471 0.67171 0.7543 0.0
H1324 H 0.94887 0.65949 0.70521 0.0
H1325 H 0.95191 0.59265 0.72566 0.0
H1326 H 0.93097 0.59859 0.71932 0.0
H1327 H 0.9405 0.60849 0.73748 0.0
C1328 C 0.90219 0.64033 0.73512 0.0
C1329 C 0.90539 0.65461 0.74512 0.0
C1330 C 0.91527 0.63307 0.72567 0.0
C1331 C 0.93172 0.63977 0.72648 0.0
C1332 C 0.93506 0.65327 0.73748 0.0
H1333 H 0.01144 0.58942 0.67116 0.0
H1334 H 0.99686 0.60509 0.69344 0.0
C1335 C 0.92199 0.66069 0.74663 0.0
C1336 C 0.94497 0.63413 0.71451 0.0
H1337 H 0.96488 0.59924 0.69906 0.0
C1338 C 0.95257 0.64633 0.70403 0.0
C1339 C 0.94988 0.61703 0.71307 0.0
C1340 C 0.94301 0.60348 0.72461 0.0
C1341 C 0.96465 0.64183 0.69187 0.0
C1342 C 0.9689 0.62461 0.68983 0.0
C1343 C 0.96159 0.61247 0.70058 0.0
C1344 C 0.98035 0.61859 0.67629 0.0
C1345 C 0.97276 0.65559 0.68144 0.0
C1346 C 0.97657 0.62171 0.65919 0.0
C1347 C 0.98527 0.61311 0.64642 0.0
C1348 C 0.99751 0.60103 0.65068 0.0
C1349 C 0.00209 0.5988 0.66766 0.0
C1350 C 0.99369 0.60764 0.68036 0.0
H1351 H 0.97267 0.66788 0.68825 0.0
H1352 H 0.98601 0.65239 0.67811 0.0
H1353 H 0.96547 0.65727 0.66957 0.0
H1354 H 0.96609 0.62981 0.65573 0.0
H1355 H 0.98134 0.61472 0.6334 0.0
H1356 H 0.6159 0.36812 0.51598 0.0
H1357 H 0.62924 0.34598 0.53321 0.0
H1358 H 0.60581 0.30773 0.50222 0.0
H1359 H 0.59235 0.32972 0.48523 0.0
H1360 H 0.59534 0.31045 0.53825 0.0
H1361 H 0.66495 0.30572 0.52833 0.0
H1362 H 0.6555 0.32645 0.52924 0.0
H1363 H 0.65081 0.31276 0.51182 0.0
C1364 C 0.61441 0.355 0.51233 0.0
C1365 C 0.60317 0.35048 0.49939 0.0
C1366 C 0.62191 0.34239 0.52222 0.0
C1367 C 0.61833 0.3253 0.51899 0.0
C1368 C 0.60866 0.32087 0.50485 0.0
H1369 H 0.65404 0.23848 0.57252 0.0
H1370 H 0.64112 0.25653 0.55104 0.0
C1371 C 0.60109 0.3334 0.49512 0.0
C1372 C 0.62177 0.31234 0.53188 0.0
H1373 H 0.65306 0.28915 0.55007 0.0
C1374 C 0.60794 0.3057 0.54084 0.0
C1375 C 0.6382 0.30636 0.53515 0.0
C1376 C 0.65329 0.31307 0.52563 0.0
C1377 C 0.61012 0.29301 0.55299 0.0
C1378 C 0.62658 0.28698 0.5563 0.0
C1379 C 0.64042 0.29374 0.54738 0.0
C1380 C 0.63 0.27383 0.56907 0.0
C1381 C 0.59483 0.28603 0.562 0.0
C1382 C 0.627 0.27699 0.58629 0.0
C1383 C 0.63404 0.26641 0.59858 0.0
C1384 C 0.64434 0.25285 0.59367 0.0
C1385 C 0.64597 0.24882 0.5765 0.0
C1386 C 0.63875 0.25919 0.56426 0.0
H1387 H 0.58297 0.28873 0.55497 0.0
H1388 H 0.59594 0.27215 0.56383 0.0
H1389 H 0.5938 0.29203 0.57464 0.0
H1390 H 0.6205 0.28837 0.59025 0.0
H1391 H 0.63298 0.26991 0.61178 0.0
H1392 H 0.88582 0.36022 0.7632 0.0
H1393 H 0.90787 0.37283 0.781 0.0
H1394 H 0.94388 0.3364 0.76223 0.0
H1395 H 0.92186 0.32355 0.74488 0.0
H1396 H 0.94092 0.3356 0.79645 0.0
H1397 H 0.95006 0.40156 0.77433 0.0
H1398 H 0.9284 0.39612 0.77837 0.0
H1399 H 0.93968 0.38569 0.76162 0.0
C1400 C 0.89859 0.35535 0.76245 0.0
C1401 C 0.9022 0.34091 0.7528 0.0
C1402 C 0.91117 0.36253 0.77262 0.0
C1403 C 0.92749 0.35549 0.77295 0.0
C1404 C 0.93135 0.34194 0.76222 0.0
H1405 H 0.00969 0.39925 0.82968 0.0
H1406 H 0.99359 0.38442 0.80783 0.0
C1407 C 0.9188 0.33467 0.75228 0.0
C1408 C 0.93992 0.36072 0.78588 0.0
H1409 H 0.96192 0.39446 0.80106 0.0
C1410 C 0.94566 0.34844 0.79738 0.0
C1411 C 0.94607 0.37742 0.787 0.0
C1412 C 0.94087 0.39094 0.77458 0.0
C1413 C 0.9573 0.35247 0.81011 0.0
C1414 C 0.96309 0.36929 0.81153 0.0
C1415 C 0.95747 0.38153 0.79992 0.0
C1416 C 0.9747 0.37476 0.82513 0.0
C1417 C 0.96339 0.33865 0.82176 0.0
C1418 C 0.96988 0.3735 0.84219 0.0
C1419 C 0.97933 0.38163 0.85472 0.0
C1420 C 0.99351 0.39125 0.85023 0.0
C1421 C -0.00108 0.39162 0.83337 0.0
C1422 C 0.98966 0.3833 0.82091 0.0
H1423 H 0.96185 0.32595 0.81595 0.0
H1424 H 0.97688 0.34044 0.82517 0.0
H1425 H 0.95579 0.3389 0.83355 0.0
H1426 H 0.95819 0.36728 0.84569 0.0
H1427 H 0.97474 0.38163 0.86763 0.0
H1428 H 0.84033 0.75718 0.0727 0.0
H1429 H 0.85352 0.73777 0.05261 0.0
H1430 H 0.87663 0.71063 0.09385 0.0
H1431 H 0.86358 0.7303 0.11409 0.0
H1432 H 0.89569 0.71447 0.05872 0.0
H1433 H 0.83047 0.68813 0.05851 0.0
H1434 H 0.83217 0.71069 0.05609 0.0
H1435 H 0.83857 0.70098 0.07556 0.0
C1436 C 0.84892 0.74758 0.0774 0.0
C1437 C 0.85099 0.74512 0.09483 0.0
C1438 C 0.85632 0.73647 0.06596 0.0
C1439 C 0.86569 0.72267 0.07186 0.0
C1440 C 0.86936 0.72125 0.08916 0.0
H1441 H 0.8849 0.62872 0.01884 0.0
H1442 H 0.87236 0.64954 0.03809 0.0
C1443 C 0.86206 0.73254 0.10066 0.0
C1444 C 0.86921 0.70858 0.06026 0.0
H1445 H 0.84937 0.67751 0.0378 0.0
C1446 C 0.88564 0.70631 0.05418 0.0
C1447 C 0.85604 0.69782 0.05472 0.0
C1448 C 0.83832 0.69936 0.06162 0.0
C1449 C 0.88916 0.69382 0.04212 0.0
C1450 C 0.87577 0.68371 0.0358 0.0
C1451 C 0.85948 0.68554 0.04243 0.0
C1452 C 0.87873 0.67106 0.02243 0.0
C1453 C 0.9072 0.69149 0.03632 0.0
C1454 C 0.88507 0.67625 0.00671 0.0
C1455 C 0.89224 0.66443 0.99581 0.0
C1456 C 0.89276 0.64731 0.00037 0.0
C1457 C 0.88434 0.64186 0.01499 0.0
C1458 C 0.87738 0.65375 0.02606 0.0
H1459 H 0.91635 0.69702 0.04543 0.0
H1460 H 0.91022 0.67789 0.0346 0.0
H1461 H 0.90895 0.69796 0.02399 0.0
H1462 H 0.88584 0.68956 0.00357 0.0
H1463 H 0.89883 0.66886 0.98464 0.0
H1464 H 0.51372 0.61522 0.35987 0.0
H1465 H 0.52996 0.62879 0.33722 0.0
H1466 H 0.50141 0.60085 0.30004 0.0
H1467 H 0.48573 0.58684 0.32266 0.0
H1468 H 0.53445 0.59491 0.29732 0.0
H1469 H 0.52377 0.66405 0.30096 0.0
H1470 H 0.52987 0.65502 0.32085 0.0
H1471 H 0.51009 0.64901 0.31135 0.0
C1472 C 0.51047 0.61258 0.34683 0.0
C1473 C 0.49855 0.60007 0.34288 0.0
C1474 C 0.51975 0.62029 0.3339 0.0
C1475 C 0.51689 0.61579 0.31694 0.0
C1476 C 0.50386 0.60443 0.31303 0.0
H1477 H 0.57208 0.66344 0.23579 0.0
H1478 H 0.54953 0.64994 0.25203 0.0
C1479 C 0.49485 0.59654 0.32592 0.0
C1480 C 0.52892 0.62088 0.30355 0.0
H1481 H 0.54788 0.65489 0.28519 0.0
C1482 C 0.53723 0.60804 0.29449 0.0
C1483 C 0.53251 0.63798 0.2999 0.0
C1484 C 0.52347 0.65231 0.30867 0.0
C1485 C 0.5492 0.61183 0.282 0.0
C1486 C 0.55323 0.62892 0.27877 0.0
C1487 C 0.54477 0.64176 0.28768 0.0
C1488 C 0.5664 0.63396 0.26648 0.0
C1489 C 0.55728 0.59751 0.27232 0.0
C1490 C 0.58327 0.62877 0.26859 0.0
C1491 C 0.59614 0.63618 0.25898 0.0
C1492 C 0.59224 0.6491 0.24749 0.0
C1493 C 0.5753 0.65342 0.24458 0.0
C1494 C 0.56246 0.64582 0.25391 0.0
H1495 H 0.54921 0.58601 0.27247 0.0
H1496 H 0.55975 0.60111 0.25898 0.0
H1497 H 0.56951 0.59422 0.27835 0.0
H1498 H 0.58664 0.61988 0.27844 0.0
H1499 H 0.60918 0.63291 0.26162 0.0
H1500 H 0.73017 0.89177 0.63612 0.0
H1501 H 0.71403 0.91512 0.62371 0.0
H1502 H 0.73579 0.94955 0.66005 0.0
H1503 H 0.7512 0.9261 0.67294 0.0
H1504 H 0.70308 0.95208 0.66056 0.0
H1505 H 0.72368 0.95446 0.59385 0.0
H1506 H 0.71662 0.93368 0.59949 0.0
H1507 H 0.73502 0.94251 0.60962 0.0
C1508 C 0.73185 0.90443 0.64108 0.0
C1509 C 0.74184 0.90723 0.65544 0.0
C1510 C 0.72267 0.91778 0.63398 0.0
C1511 C 0.72377 0.93414 0.64089 0.0
C1512 C 0.73469 0.93705 0.65455 0.0
H1513 H 0.66897 0.01377 0.58948 0.0
H1514 H 0.69143 -0.00062 0.60507 0.0
C1515 C 0.74354 0.92369 0.66185 0.0
C1516 C 0.71221 0.94774 0.63522 0.0
H1517 H 0.69703 0.96761 0.60019 0.0
C1518 C 0.70195 0.95568 0.64738 0.0
C1519 C 0.71085 0.95259 0.61809 0.0
C1520 C 0.72227 0.94548 0.60456 0.0
C1521 C 0.69003 0.96797 0.6428 0.0
C1522 C 0.68793 0.97204 0.62554 0.0
C1523 C 0.69854 0.96446 0.61345 0.0
C1524 C 0.6744 0.98346 0.61944 0.0
C1525 C 0.67989 0.97647 0.65654 0.0
C1526 C 0.65732 0.97996 0.62301 0.0
C1527 C 0.64447 0.98858 0.61446 0.0
C1528 C 0.6486 0.00044 0.60197 0.0
C1529 C 0.66557 0.00471 0.59919 0.0
C1530 C 0.67837 0.99642 0.60799 0.0
H1531 H 0.68695 0.97666 0.66868 0.0
H1532 H 0.67655 0.98966 0.65309 0.0
H1533 H 0.66804 0.96926 0.65866 0.0
H1534 H 0.65391 0.96975 0.63146 0.0
H1535 H 0.63144 0.98489 0.6165 0.0
H1536 H 0.20662 0.35022 0.19316 0.0
H1537 H 0.189 0.33491 0.21342 0.0
H1538 H 0.2257 0.3446 0.25258 0.0
H1539 H 0.24326 0.36016 0.23245 0.0
H1540 H 0.19806 0.30633 0.22967 0.0
H1541 H 0.18166 0.35522 0.2766 0.0
H1542 H 0.18956 0.3604 0.2558 0.0
H1543 H 0.20398 0.35513 0.27263 0.0
C1544 C 0.21081 0.34933 0.20617 0.0
C1545 C 0.22634 0.35635 0.21125 0.0
C1546 C 0.20071 0.3406 0.21771 0.0
C1547 C 0.20591 0.33883 0.23454 0.0
C1548 C 0.22123 0.34618 0.23974 0.0
H1549 H 0.211 0.26666 0.30623 0.0
H1550 H 0.20859 0.28157 0.27948 0.0
C1551 C 0.23133 0.35496 0.22821 0.0
C1552 C 0.19636 0.32787 0.24631 0.0
H1553 H 0.18257 0.32624 0.28705 0.0
C1554 C 0.19426 0.31076 0.24208 0.0
C1555 C 0.19092 0.3337 0.26229 0.0
C1556 C 0.19147 0.35217 0.26701 0.0
C1557 C 0.18846 0.29903 0.25404 0.0
C1558 C 0.18502 0.30457 0.27068 0.0
C1559 C 0.18544 0.32193 0.27435 0.0
C1560 C 0.18416 0.29262 0.28504 0.0
C1561 C 0.18685 0.28073 0.24898 0.0
C1562 C 0.17106 0.29358 0.297 0.0
C1563 C 0.17246 0.28506 0.31245 0.0
C1564 C 0.18713 0.27575 0.3162 0.0
C1565 C 0.19961 0.27386 0.30372 0.0
C1566 C 0.19815 0.28223 0.28832 0.0
H1567 H 0.18313 0.2796 0.23548 0.0
H1568 H 0.19929 0.27441 0.25047 0.0
H1569 H 0.17741 0.27398 0.25688 0.0
H1570 H 0.16022 0.30164 0.29475 0.0
H1571 H 0.16266 0.28677 0.32187 0.0
H1572 H 0.90571 0.96162 0.44344 0.0
H1573 H 0.92377 0.94623 0.46328 0.0
H1574 H 0.90425 0.97635 0.50435 0.0
H1575 H 0.88653 0.9921 0.48452 0.0
H1576 H 0.93832 0.97568 0.50363 0.0
H1577 H 0.91342 0.91017 0.49839 0.0
H1578 H 0.91972 0.9198 0.47881 0.0
H1579 H 0.90209 0.92828 0.49035 0.0
C1580 C 0.90511 0.96481 0.45675 0.0
C1581 C 0.89472 0.97807 0.46247 0.0
C1582 C 0.91537 0.95592 0.46807 0.0
C1583 C 0.9152 0.95999 0.48533 0.0
C1584 C 0.90453 0.97297 0.49108 0.0
H1585 H 0.94632 0.92112 0.57808 0.0
H1586 H 0.93395 0.92283 0.54983 0.0
C1587 C 0.89441 0.98196 0.47976 0.0
C1588 C 0.92702 0.95178 0.49732 0.0
H1589 H 0.93707 0.91424 0.51623 0.0
C1590 C 0.93814 0.96223 0.50631 0.0
C1591 C 0.92677 0.9342 0.5007 0.0
C1592 C 0.91478 0.92243 0.49167 0.0
C1593 C 0.94847 0.95581 0.51916 0.0
C1594 C 0.94815 0.93824 0.52273 0.0
C1595 C 0.93747 0.92763 0.5133 0.0
C1596 C 0.957 0.93134 0.53775 0.0
C1597 C 0.9588 0.96817 0.52944 0.0
C1598 C 0.9744 0.93405 0.54002 0.0
C1599 C 0.98138 0.9334 0.55624 0.0
C1600 C 0.97116 0.92934 0.57015 0.0
C1601 C 0.95446 0.92405 0.56745 0.0
C1602 C 0.94737 0.92512 0.55131 0.0
H1603 H 0.95486 0.98148 0.52726 0.0
H1604 H 0.95766 0.96546 0.54317 0.0
H1605 H 0.97231 0.96709 0.52583 0.0
H1606 H 0.98215 0.93843 0.52962 0.0
H1607 H 0.99425 0.93769 0.55812 0.0
H1608 H 0.29653 0.74052 0.80344 0.0
H1609 H 0.29522 0.72519 0.77661 0.0
H1610 H 0.3271 0.68612 0.79736 0.0
H1611 H 0.32907 0.70186 0.82396 0.0
H1612 H 0.3296 0.68923 0.76136 0.0
H1613 H 0.26341 0.68485 0.78438 0.0
H1614 H 0.27037 0.70613 0.78069 0.0
H1615 H 0.28018 0.69368 0.79702 0.0
C1616 C 0.30395 0.72911 0.80193 0.0
C1617 C 0.31276 0.72223 0.8157 0.0
C1618 C 0.30312 0.72031 0.78668 0.0
C1619 C 0.31061 0.70429 0.78525 0.0
C1620 C 0.32114 0.69842 0.79828 0.0
H1621 H 0.25957 0.62511 0.72992 0.0
H1622 H 0.27493 0.64104 0.75154 0.0
C1623 C 0.3223 0.70744 0.81344 0.0
C1624 C 0.30476 0.69246 0.772 0.0
H1625 H 0.26919 0.67266 0.75789 0.0
C1626 C 0.31641 0.68556 0.76054 0.0
C1627 C 0.28763 0.68732 0.77134 0.0
C1628 C 0.2747 0.69323 0.78411 0.0
C1629 C 0.31125 0.67391 0.74813 0.0
C1630 C 0.29395 0.66937 0.74705 0.0
C1631 C 0.28244 0.67613 0.7587 0.0
C1632 C 0.28714 0.65798 0.7338 0.0
C1633 C 0.3244 0.66637 0.73656 0.0
C1634 C 0.28915 0.66197 0.71664 0.0
C1635 C 0.28059 0.65271 0.70429 0.0
C1636 C 0.26957 0.63955 0.70892 0.0
C1637 C 0.26793 0.63523 0.72603 0.0
C1638 C 0.27673 0.64431 0.73836 0.0
H1639 H 0.33715 0.66662 0.74245 0.0
H1640 H 0.32125 0.65311 0.73318 0.0
H1641 H 0.32501 0.67393 0.72476 0.0
H1642 H 0.2967 0.67273 0.71281 0.0
H1643 H 0.282 0.65639 0.69118 0.0
H1644 H 0.59406 0.03911 0.94388 0.0
H1645 H 0.57839 0.05625 0.9643 0.0
H1646 H 0.59027 0.02025 0.00352 0.0
H1647 H 0.60629 0.00329 0.98327 0.0
H1648 H 0.55073 0.04765 0.98128 0.0
H1649 H 0.60036 0.06412 0.0272 0.0
H1650 H 0.60523 0.05594 0.00645 0.0
H1651 H 0.60036 0.04174 0.02362 0.0
C1652 C 0.59355 0.03499 0.95693 0.0
C1653 C 0.60142 0.01986 0.96202 0.0
C1654 C 0.58459 0.0448 0.96856 0.0
C1655 C 0.58339 0.0397 0.9855 0.0
C1656 C 0.59143 0.0247 0.99063 0.0
H1657 H 0.51172 0.03373 0.05763 0.0
H1658 H 0.52554 0.03734 0.03052 0.0
C1659 C 0.60047 0.01493 0.97902 0.0
C1660 C 0.57256 0.04912 0.99755 0.0
H1661 H 0.57166 0.06249 0.03845 0.0
C1662 C 0.55538 0.05129 0.99365 0.0
C1663 C 0.57866 0.05449 0.01347 0.0
C1664 C 0.59721 0.05413 0.01783 0.0
C1665 C 0.54386 0.05703 0.00587 0.0
C1666 C 0.54965 0.06022 0.02248 0.0
C1667 C 0.56709 0.05977 0.02581 0.0
C1668 C 0.53796 0.06086 0.03714 0.0
C1669 C 0.52553 0.05894 0.001 0.0
C1670 C 0.53992 0.07309 0.04989 0.0
C1671 C 0.53211 0.07091 0.06564 0.0
C1672 C 0.52244 0.05635 0.06886 0.0
C1673 C 0.51926 0.045 0.05558 0.0
C1674 C 0.52701 0.04717 0.03993 0.0
H1675 H 0.52439 0.0635 0.98777 0.0
H1676 H 0.51923 0.04642 0.00168 0.0
H1677 H 0.51879 0.06788 0.00947 0.0
H1678 H 0.54835 0.08372 0.04804 0.0
H1679 H 0.53479 0.07986 0.07565 0.0
H1680 H 0.21219 0.73365 0.19016 0.0
H1681 H 0.20944 0.71943 0.21721 0.0
H1682 H 0.16004 0.70123 0.20291 0.0
H1683 H 0.16302 0.71505 0.17527 0.0
H1684 H 0.18879 0.71655 0.24447 0.0
H1685 H 0.18706 0.65786 0.20534 0.0
H1686 H 0.19073 0.67831 0.19603 0.0
H1687 H 0.16989 0.67251 0.20299 0.0
C1688 C 0.20056 0.72694 0.19287 0.0
C1689 C 0.18806 0.72498 0.1804 0.0
C1690 C 0.19894 0.7189 0.20842 0.0
C1691 C 0.18478 0.70881 0.21186 0.0
C1692 C 0.17129 0.70858 0.20029 0.0
H1693 H 0.20684 0.64877 0.30354 0.0
H1694 H 0.1897 0.6657 0.28412 0.0
C1695 C 0.17295 0.71659 0.18457 0.0
C1696 C 0.18585 0.6967 0.22611 0.0
H1697 H 0.19429 0.65503 0.23365 0.0
C1698 C 0.18956 0.70303 0.24228 0.0
C1699 C 0.18696 0.67906 0.22313 0.0
C1700 C 0.18355 0.67145 0.20595 0.0
C1701 C 0.19574 0.69243 0.2551 0.0
C1702 C 0.19783 0.67498 0.25173 0.0
C1703 C 0.19275 0.66844 0.23608 0.0
C1704 C 0.20732 0.66375 0.2633 0.0
C1705 C 0.20122 0.7002 0.27165 0.0
C1706 C 0.22259 0.65652 0.25781 0.0
C1707 C 0.2323 0.64667 0.26878 0.0
C1708 C 0.22692 0.64395 0.28545 0.0
C1709 C 0.21137 0.65078 0.29078 0.0
C1710 C 0.20161 0.66053 0.27975 0.0
H1711 H 0.20136 0.71423 0.27114 0.0
H1712 H 0.19234 0.6963 0.28178 0.0
H1713 H 0.21405 0.69572 0.27519 0.0
H1714 H 0.22721 0.65884 0.24512 0.0
H1715 H 0.24419 0.64156 0.26432 0.0
H1716 H 0.60464 0.99466 0.51743 0.0
H1717 H 0.58763 0.97717 0.49841 0.0
H1718 H 0.57564 0.94352 0.53958 0.0
H1719 H 0.59262 0.96097 0.55876 0.0
H1720 H 0.58495 0.92746 0.50655 0.0
H1721 H 0.53432 0.97573 0.50271 0.0
H1722 H 0.55517 0.98415 0.49939 0.0
H1723 H 0.54972 0.97526 0.51958 0.0
C1724 C 0.5985 0.98347 0.52241 0.0
C1725 C 0.59985 0.97925 0.53959 0.0
C1726 C 0.58877 0.97353 0.51156 0.0
C1727 C 0.58027 0.9592 0.51769 0.0
C1728 C 0.58208 0.95457 0.53467 0.0
H1729 H 0.5076 0.93035 0.44155 0.0
H1730 H 0.51827 0.92921 0.47065 0.0
C1731 C 0.59175 0.96457 0.54558 0.0
C1732 C 0.56905 0.94957 0.5063 0.0
H1733 H 0.53518 0.95526 0.48046 0.0
C1734 C 0.57385 0.93333 0.50103 0.0
C1735 C 0.55429 0.95701 0.4996 0.0
C1736 C 0.54793 0.97393 0.50572 0.0
C1737 C 0.56506 0.92498 0.48804 0.0
C1738 C 0.55138 0.93329 0.48001 0.0
C1739 C 0.54572 0.94886 0.48644 0.0
C1740 C 0.54464 0.92785 0.46336 0.0
C1741 C 0.57083 0.90761 0.48273 0.0
C1742 C 0.5558 0.92645 0.44962 0.0
C1743 C 0.54968 0.92684 0.43309 0.0
C1744 C 0.53234 0.92871 0.43006 0.0
C1745 C 0.52101 0.92854 0.44368 0.0
C1746 C 0.52712 0.92799 0.46027 0.0
H1747 H 0.57559 0.90037 0.49379 0.0
H1748 H 0.5605 0.90032 0.47664 0.0
H1749 H 0.58146 0.90886 0.47365 0.0
H1750 H 0.56935 0.92681 0.45155 0.0
H1751 H 0.55862 0.92738 0.42271 0.0
H1752 H 0.28178 0.27075 0.683 0.0
H1753 H 0.28337 0.285 0.71013 0.0
H1754 H 0.33532 0.29846 0.70034 0.0
H1755 H 0.33368 0.28451 0.67265 0.0
H1756 H 0.30297 0.28397 0.73887 0.0
H1757 H 0.31198 0.34432 0.70344 0.0
H1758 H 0.30682 0.32484 0.6928 0.0
H1759 H 0.32775 0.32815 0.70096 0.0
C1760 C 0.29365 0.27653 0.68665 0.0
C1761 C 0.30747 0.27692 0.67548 0.0
C1762 C 0.29458 0.28457 0.70225 0.0
C1763 C 0.30933 0.29312 0.70707 0.0
C1764 C 0.3237 0.29223 0.69666 0.0
H1765 H 0.28773 0.34917 0.80124 0.0
H1766 H 0.305 0.33289 0.78136 0.0
C1767 C 0.32277 0.28418 0.68092 0.0
C1768 C 0.30852 0.30449 0.7219 0.0
H1769 H 0.30351 0.34625 0.73157 0.0
C1770 C 0.30352 0.2976 0.73748 0.0
C1771 C 0.30917 0.32228 0.71994 0.0
C1772 C 0.31413 0.33043 0.7034 0.0
C1773 C 0.29781 0.30798 0.75068 0.0
C1774 C 0.29747 0.3257 0.7483 0.0
C1775 C 0.30378 0.33264 0.73326 0.0
C1776 C 0.28832 0.33697 0.76008 0.0
C1777 C 0.29092 0.29983 0.76652 0.0
C1778 C 0.27362 0.3452 0.7545 0.0
C1779 C 0.26383 0.35461 0.76574 0.0
C1780 C 0.26857 0.35592 0.78278 0.0
C1781 C 0.2837 0.34827 0.78819 0.0
C1782 C 0.29354 0.3389 0.77689 0.0
H1783 H 0.28987 0.28588 0.7653 0.0
H1784 H 0.29946 0.30264 0.77728 0.0
H1785 H 0.27825 0.30502 0.7696 0.0
H1786 H 0.26941 0.34387 0.74153 0.0
H1787 H 0.25229 0.36042 0.7612 0.0
H1788 H 0.89168 0.00231 0.01248 0.0
H1789 H 0.91014 0.01893 0.99404 0.0
H1790 H 0.9227 0.05172 0.03576 0.0
H1791 H 0.90403 0.03533 0.05423 0.0
H1792 H 0.91707 0.06937 0.00573 0.0
H1793 H 0.96176 0.01651 0.99627 0.0
H1794 H 0.94048 0.01042 0.99134 0.0
H1795 H 0.94587 0.01635 0.01265 0.0
C1796 C 0.8983 0.0131 0.0177 0.0
C1797 C 0.89652 0.01745 0.03479 0.0
C1798 C 0.9089 0.02253 0.0072 0.0
C1799 C 0.91802 0.03634 0.01365 0.0
C1800 C 0.91585 0.04104 0.03058 0.0
H1801 H 0.99344 0.06303 0.93991 0.0
H1802 H 0.98279 0.06242 0.96896 0.0
C1803 C 0.9052 0.03165 0.04109 0.0
C1804 C 0.93 0.04558 0.00265 0.0
H1805 H 0.96259 0.03866 0.9755 0.0
C1806 C 0.92724 0.06279 -0.00071 0.0
C1807 C 0.94366 0.03717 0.99481 0.0
C1808 C 0.94826 0.01915 -0.0009 0.0
C1809 C 0.93694 0.07143 0.98715 0.0
C1810 C 0.94938 0.06246 0.97792 0.0
C1811 C 0.95298 0.04562 0.98237 0.0
C1812 C 0.95711 0.06909 0.96214 0.0
C1813 C 0.93352 0.08994 0.98417 0.0
C1814 C 0.94658 0.07431 0.9488 0.0
C1815 C 0.95283 0.07516 0.93231 0.0
C1816 C 0.96958 0.07052 0.92892 0.0
C1817 C 0.98054 0.06694 0.94236 0.0
C1818 C 0.9744 0.06647 0.95892 0.0
H1819 H 0.9299 0.0963 0.99616 0.0
H1820 H 0.94469 0.09651 0.97876 0.0
H1821 H 0.92274 0.09128 0.9753 0.0
H1822 H 0.93314 0.07599 0.95075 0.0
H1823 H 0.94409 0.07754 0.92203 0.0
H1824 H 0.30188 0.19149 0.2513 0.0
H1825 H 0.27441 0.19219 0.2655 0.0
H1826 H 0.2965 0.16853 0.30936 0.0
H1827 H 0.32381 0.16713 0.29485 0.0
H1828 H 0.26023 0.16304 0.30585 0.0
H1829 H 0.27999 0.23035 0.30078 0.0
H1830 H 0.27706 0.21986 0.28088 0.0
H1831 H 0.29369 0.21315 0.29487 0.0
C1832 C 0.30058 0.18548 0.26354 0.0
C1833 C 0.31486 0.17932 0.27206 0.0
C1834 C 0.28494 0.186 0.2717 0.0
C1835 C 0.2836 0.18089 0.28864 0.0
C1836 C 0.29731 0.17262 0.29631 0.0
H1837 H 0.22944 0.23756 0.36393 0.0
H1838 H 0.25039 0.22143 0.34787 0.0
C1839 C 0.31289 0.17175 0.28799 0.0
C1840 C 0.26981 0.18766 0.29933 0.0
H1841 H 0.25448 0.22489 0.31478 0.0
C1842 C 0.25887 0.17655 0.30779 0.0
C1843 C 0.2684 0.20529 0.30215 0.0
C1844 C 0.28048 0.21788 0.29434 0.0
C1845 C 0.24638 0.18267 0.3189 0.0
C1846 C 0.24477 0.20034 0.32138 0.0
C1847 C 0.25574 0.21136 0.31288 0.0
C1848 C 0.23196 0.20798 0.33273 0.0
C1849 C 0.23534 0.17019 0.32818 0.0
C1850 C 0.21465 0.20559 0.32974 0.0
C1851 C 0.20267 0.21468 0.33901 0.0
C1852 C 0.20782 0.22652 0.35124 0.0
C1853 C 0.22512 0.22857 0.35454 0.0
C1854 C 0.23708 0.21933 0.3454 0.0
H1855 H 0.24121 0.15744 0.32866 0.0
H1856 H 0.23278 0.17448 0.3413 0.0
H1857 H 0.22307 0.16903 0.32148 0.0
H1858 H 0.21039 0.19724 0.31976 0.0
H1859 H 0.1894 0.2129 0.33614 0.0
H1860 H 0.00022 0.98247 0.60737 0.0
H1861 H 0.01529 0.00105 0.58776 0.0
H1862 H 0.04747 0.95959 0.57292 0.0
H1863 H 0.03271 0.94103 0.59279 0.0
H1864 H 0.06537 0.98898 0.57685 0.0
H1865 H 0.00923 -0.00022 0.53679 0.0
H1866 H 0.00491 0.00486 0.55846 0.0
H1867 H 0.00996 0.98341 0.55267 0.0
C1868 C 0.01056 0.97735 0.6 0.0
C1869 C 0.01522 0.9603 0.60154 0.0
C1870 C 0.01909 0.98792 0.58872 0.0
C1871 C 0.03226 0.98159 0.57863 0.0
C1872 C 0.03727 0.9647 0.5805 0.0
H1873 H 0.05459 0.05473 0.50093 0.0
H1874 H 0.0535 0.02588 0.51208 0.0
C1875 C 0.02881 0.95413 0.59186 0.0
C1876 C 0.04062 0.99267 0.56606 0.0
H1877 H 0.03157 0.02027 0.53436 0.0
C1878 C 0.05808 0.99566 0.56735 0.0
C1879 C 0.03126 0.00084 0.55323 0.0
C1880 C 0.01285 0.99691 0.55006 0.0
C1881 C 0.06613 0.00765 0.55699 0.0
C1882 C 0.05635 0.01717 0.54541 0.0
C1883 C 0.03916 0.01318 0.54331 0.0
C1884 C 0.0628 0.03267 0.53693 0.0
C1885 C 0.08496 0.01009 0.55874 0.0
C1886 C 0.06961 0.04587 0.54673 0.0
C1887 C 0.07076 0.06222 0.54013 0.0
C1888 C 0.06479 0.06564 0.52382 0.0
C1889 C 0.05951 0.05225 0.51348 0.0
C1890 C 0.05876 0.03582 0.51991 0.0
H1891 H 0.09126 0.99793 0.56185 0.0
H1892 H 0.09067 0.01526 0.547 0.0
H1893 H 0.0875 0.01895 0.56931 0.0
H1894 H 0.07242 0.04399 0.55998 0.0
H1895 H 0.07448 0.07247 0.54843 0.0
H1896 H 0.1759 0.83264 0.78756 0.0
H1897 H 0.20386 0.83604 0.80057 0.0
H1898 H 0.21981 0.78886 0.77827 0.0
H1899 H 0.19231 0.78565 0.7651 0.0
H1900 H 0.21341 0.8146 0.82406 0.0
H1901 H 0.26315 0.81431 0.77575 0.0
H1902 H 0.24145 0.81929 0.77064 0.0
H1903 H 0.24864 0.79762 0.77093 0.0
C1904 C 0.18564 0.8234 0.78487 0.0
C1905 C 0.18189 0.80876 0.77553 0.0
C1906 C 0.20159 0.82532 0.79235 0.0
C1907 C 0.214 0.81275 0.79036 0.0
C1908 C 0.21066 0.79894 0.77974 0.0
H1909 H 0.26717 0.75349 0.85704 0.0
H1910 H 0.24734 0.77123 0.84138 0.0
C1911 C 0.19481 0.797 0.77235 0.0
C1912 C 0.22888 0.81195 0.80175 0.0
H1913 H 0.26979 0.79836 0.802 0.0
C1914 C 0.22589 0.81159 0.81925 0.0
C1915 C 0.2453 0.80837 0.79563 0.0
C1916 C 0.24982 0.81012 0.7772 0.0
C1917 C 0.23832 0.80597 0.83055 0.0
C1918 C 0.25396 0.80019 0.82414 0.0
C1919 C 0.25761 0.80233 0.80689 0.0
C1920 C 0.26587 0.79027 0.83467 0.0
C1921 C 0.23429 0.80562 0.84919 0.0
C1922 C 0.28295 0.79487 0.83582 0.0
C1923 C 0.29435 0.78462 0.84461 0.0
C1924 C 0.28887 0.76955 0.85232 0.0
C1925 C 0.27174 0.76508 0.85134 0.0
C1926 C 0.26037 0.7753 0.8425 0.0
H1927 H 0.22523 0.81582 0.85256 0.0
H1928 H 0.22826 0.79336 0.85239 0.0
H1929 H 0.24587 0.8071 0.85699 0.0
H1930 H 0.28749 0.80628 0.82975 0.0
H1931 H 0.30751 0.78839 0.84514 0.0
H1932 H 0.49073 0.01033 0.11178 0.0
H1933 H 0.47406 0.99228 0.093 0.0
H1934 H 0.4444 0.03534 0.07755 0.0
H1935 H 0.46082 0.05346 0.09652 0.0
H1936 H 0.42506 0.00528 0.08177 0.0
H1937 H 0.48143 0.99559 0.04153 0.0
H1938 H 0.48543 0.99036 0.06323 0.0
H1939 H 0.48041 0.01182 0.05753 0.0
C1940 C 0.48052 0.01592 0.10456 0.0
C1941 C 0.47721 0.03332 0.10547 0.0
C1942 C 0.47105 0.00562 0.09381 0.0
C1943 C 0.45824 0.01258 0.08368 0.0
C1944 C 0.4543 0.02978 0.0852 0.0
H1945 H 0.43709 0.94241 0.00365 0.0
H1946 H 0.43704 0.97096 0.01555 0.0
C1947 C 0.46373 0.04009 0.09602 0.0
C1948 C 0.44978 0.002 0.0708 0.0
H1949 H 0.45886 0.97577 0.03801 0.0
C1950 C 0.43233 -0.00103 0.072 0.0
C1951 C 0.45915 0.99437 0.05766 0.0
C1952 C 0.4776 -0.00166 0.05476 0.0
C1953 C 0.42428 0.9874 0.06117 0.0
C1954 C 0.43406 0.9784 0.04917 0.0
C1955 C 0.45125 0.98249 0.04723 0.0
C1956 C 0.42772 0.9632 0.04011 0.0
C1957 C 0.40547 0.98482 0.06287 0.0
C1958 C 0.42113 0.94956 0.04944 0.0
C1959 C 0.4206 0.93336 0.0424 0.0
C1960 C 0.427 0.93056 0.02613 0.0
C1961 C 0.4319 0.94439 0.01618 0.0
C1962 C 0.43198 0.96066 0.02303 0.0
H1963 H 0.39912 0.99684 0.06643 0.0
H1964 H 0.39976 0.98005 0.05097 0.0
H1965 H 0.40298 0.97557 0.07312 0.0
H1966 H 0.41813 0.95097 0.06271 0.0
H1967 H 0.41712 0.92278 0.05038 0.0
H1968 H 0.30661 0.78118 0.231 0.0
H1969 H 0.27992 0.78453 0.21624 0.0
H1970 H 0.29426 0.83499 0.20123 0.0
H1971 H 0.32151 0.8315 0.21569 0.0
H1972 H 0.2527 0.80588 0.2149 0.0
H1973 H 0.29163 0.81036 0.15623 0.0
H1974 H 0.30098 0.80535 0.17638 0.0
H1975 H 0.29422 0.82657 0.17192 0.0
C1976 C 0.304 0.79314 0.22485 0.0
C1977 C 0.31635 0.80589 0.22409 0.0
C1978 C 0.28866 0.79509 0.2165 0.0
C1979 C 0.2853 0.80983 0.20724 0.0
C1980 C 0.2968 0.82335 0.20797 0.0
H1981 H 0.19304 0.7899 0.14757 0.0
H1982 H 0.21274 0.80712 0.1641 0.0
C1983 C 0.31229 0.82138 0.21635 0.0
C1984 C 0.27101 0.80957 0.19515 0.0
H1985 H 0.26329 0.80316 0.15317 0.0
C1986 C 0.25483 0.80574 0.20136 0.0
C1987 C 0.27393 0.80933 0.17748 0.0
C1988 C 0.29111 0.81303 0.17001 0.0
C1989 C 0.24192 0.80018 0.19054 0.0
C1990 C 0.24522 0.79885 0.17301 0.0
C1991 C 0.2609 0.80414 0.16664 0.0
C1992 C 0.23366 0.78969 0.16151 0.0
C1993 C 0.22536 0.79446 0.19812 0.0
C1994 C 0.23913 0.77457 0.15395 0.0
C1995 C 0.228 0.76483 0.14434 0.0
C1996 C 0.21118 0.77001 0.1422 0.0
C1997 C 0.20591 0.78551 0.14917 0.0
C1998 C 0.2171 0.79533 0.15868 0.0
H1999 H 0.22586 0.79385 0.21214 0.0
H2000 H 0.21524 0.80349 0.19452 0.0
H2001 H 0.2218 0.78179 0.19323 0.0
H2002 H 0.25189 0.77002 0.15596 0.0
H2003 H 0.23242 0.75299 0.13908 0.0
H2004 H 0.50097 0.98144 0.39698 0.0
H2005 H 0.48414 0.00122 0.41377 0.0
H2006 H 0.44618 0.96278 0.42136 0.0
H2007 H 0.46313 0.94282 0.40489 0.0
H2008 H 0.45131 0.01248 0.40814 0.0
H2009 H 0.45626 0.97842 0.46957 0.0
H2010 H 0.46963 0.9734 0.45178 0.0
H2011 H 0.44794 0.96671 0.45196 0.0
C2012 C 0.48906 0.97721 0.40224 0.0
C2013 C 0.4834 0.96059 0.3997 0.0
C2014 C 0.47944 0.9885 0.4118 0.0
C2015 C 0.464 0.98339 0.41896 0.0
C2016 C 0.45819 0.96688 0.41622 0.0
H2017 H 0.41559 0.0732 0.46322 0.0
H2018 H 0.41416 0.04476 0.4508 0.0
C2019 C 0.46786 0.95554 0.40674 0.0
C2020 C 0.45417 0.99557 0.42921 0.0
H2021 H 0.44315 0.00499 0.46984 0.0
C2022 C 0.44922 0.01078 0.42159 0.0
C2023 C 0.45135 0.99315 0.44671 0.0
C2024 C 0.45664 0.9771 0.45559 0.0
C2025 C 0.44275 0.0242 0.43118 0.0
C2026 C 0.44081 0.02216 0.44887 0.0
C2027 C 0.44453 0.00645 0.45628 0.0
C2028 C 0.43873 0.03704 0.46007 0.0
C2029 C 0.43943 0.04087 0.42246 0.0
C2030 C 0.45227 0.04149 0.47059 0.0
C2031 C 0.453 0.0575 0.47781 0.0
C2032 C 0.44023 0.06941 0.47461 0.0
C2033 C 0.42569 0.06431 0.46574 0.0
C2034 C 0.42493 0.04814 0.45853 0.0
H2035 H 0.44366 0.04082 0.40907 0.0
H2036 H 0.42567 0.04357 0.42264 0.0
H2037 H 0.44602 0.05131 0.42913 0.0
H2038 H 0.46299 0.03309 0.47211 0.0
H2039 H 0.46421 0.06097 0.4849 0.0
H2040 H 0.17492 0.1701 0.69793 0.0
H2041 H 0.20237 0.17151 0.68388 0.0
H2042 H 0.22384 0.19503 0.7282 0.0
H2043 H 0.19609 0.19451 0.7418 0.0
H2044 H 0.22591 0.21516 0.70293 0.0
H2045 H 0.24915 0.15324 0.68078 0.0
H2046 H 0.22753 0.15618 0.67473 0.0
H2047 H 0.23301 0.15512 0.69683 0.0
C2048 C 0.18573 0.17475 0.70495 0.0
C2049 C 0.18353 0.18219 0.72089 0.0
C2050 C 0.20147 0.17553 0.69693 0.0
C2051 C 0.21523 0.18343 0.70494 0.0
C2052 C 0.21341 0.18893 0.72173 0.0
H2053 H 0.3086 0.2124 0.65343 0.0
H2054 H 0.28791 0.19745 0.67086 0.0
C2055 C 0.19761 0.18854 0.72956 0.0
C2056 C 0.22983 0.18941 0.69476 0.0
H2057 H 0.25844 0.17775 0.66456 0.0
C2058 C 0.2332 0.20686 0.6948 0.0
C2059 C 0.23941 0.17868 0.68412 0.0
C2060 C 0.23719 0.15975 0.68425 0.0
C2061 C 0.24542 0.21394 0.68416 0.0
C2062 C 0.25415 0.20339 0.67271 0.0
C2063 C 0.25138 0.18585 0.67308 0.0
C2064 C 0.26631 0.21057 0.66046 0.0
C2065 C 0.24883 0.2327 0.68529 0.0
C2066 C 0.26092 0.22247 0.64843 0.0
C2067 C 0.2727 0.23116 0.63855 0.0
C2068 C 0.29004 0.22793 0.64046 0.0
C2069 C 0.29531 0.21524 0.65176 0.0
C2070 C 0.28352 0.20663 0.66169 0.0
H2071 H 0.24456 0.23803 0.69757 0.0
H2072 H 0.2625 0.23547 0.68372 0.0
H2073 H 0.24182 0.2393 0.67508 0.0
H2074 H 0.24762 0.22547 0.64712 0.0
H2075 H 0.26828 0.24075 0.62983 0.0
H2076 H 0.05531 0.94451 0.9953 0.0
H2077 H 0.05277 0.9729 0.98312 0.0
H2078 H 0.07053 0.95379 0.93521 0.0
H2079 H 0.07403 0.92571 0.94769 0.0
H2080 H 0.07778 0.98735 0.93869 0.0
H2081 H 0.01052 0.97441 0.95489 0.0
H2082 H 0.02437 0.97619 0.97274 0.0
H2083 H 0.02692 0.95897 0.95808 0.0
C2084 C 0.05953 0.94667 0.98244 0.0
C2085 C 0.06488 0.9331 0.97236 0.0
C2086 C 0.05789 0.96279 0.97543 0.0
C2087 C 0.06086 0.96528 0.95811 0.0
C2088 C 0.06804 0.95213 0.94858 0.0
H2089 H 0.00042 0.01847 0.88709 0.0
H2090 H 0.01594 -0.00143 0.90495 0.0
C2091 C 0.07011 0.9361 0.95571 0.0
C2092 C 0.05373 0.98015 0.94921 0.0
H2093 H 0.01608 -0.00142 0.93896 0.0
C2094 C 0.06432 0.98996 0.93886 0.0
C2095 C 0.03609 0.98331 0.94924 0.0
C2096 C 0.02377 0.9726 0.9592 0.0
C2097 C 0.05769 0.00255 0.92821 0.0
C2098 C 0.04006 0.00557 0.92821 0.0
C2099 C 0.02959 0.99618 0.93898 0.0
C2100 C 0.03186 0.01764 0.91648 0.0
C2101 C 0.06949 0.01195 0.91653 0.0
C2102 C 0.03573 0.03494 0.91697 0.0
C2103 C 0.02699 0.04629 0.90663 0.0
C2104 C 0.01406 0.04055 0.89584 0.0
C2105 C 0.01031 0.02323 0.89528 0.0
C2106 C 0.01916 0.01188 0.90547 0.0
H2107 H 0.08185 0.00541 0.9152 0.0
H2108 H 0.06379 0.01344 0.90379 0.0
H2109 H 0.07191 0.02475 0.92174 0.0
H2110 H 0.04518 0.03972 0.92564 0.0
H2111 H 0.03005 0.05962 0.90743 0.0
H2112 H 0.26087 0.3072 0.21139 0.0
H2113 H 0.27425 0.27969 0.20891 0.0
H2114 H 0.2934 0.29319 0.15965 0.0
H2115 H 0.28041 0.32128 0.16236 0.0
H2116 H 0.27658 0.25217 0.18844 0.0
H2117 H 0.33636 0.28965 0.18719 0.0
H2118 H 0.31615 0.29955 0.19058 0.0
H2119 H 0.32198 0.29234 0.16983 0.0
C2120 C 0.2676 0.30422 0.19983 0.0
C2121 C 0.27006 0.31656 0.1873 0.0
C2122 C 0.27516 0.2884 0.19838 0.0
C2123 C 0.28529 0.28458 0.18434 0.0
C2124 C 0.28602 0.29609 0.17081 0.0
H2125 H 0.34369 0.19168 0.20687 0.0
H2126 H 0.32666 0.21118 0.18987 0.0
C2127 C 0.27847 0.31206 0.1723 0.0
C2128 C 0.29697 0.26997 0.18563 0.0
H2129 H 0.33831 0.26129 0.19452 0.0
C2130 C 0.29014 0.25399 0.18934 0.0
C2131 C 0.31467 0.27246 0.18691 0.0
C2132 C 0.32281 0.28941 0.18352 0.0
C2133 C 0.30033 0.24087 0.19564 0.0
C2134 C 0.31783 0.24376 0.1979 0.0
C2135 C 0.32485 0.25923 0.19284 0.0
C2136 C 0.32866 0.23194 0.20756 0.0
C2137 C 0.29209 0.22452 0.20104 0.0
C2138 C 0.33581 0.23731 0.2229 0.0
C2139 C 0.34567 0.2263 0.23254 0.0
C2140 C 0.34854 0.20969 0.22701 0.0
C2141 C 0.34161 0.2044 0.2115 0.0
C2142 C 0.3318 0.21547 0.20181 0.0
H2143 H 0.27807 0.22533 0.20086 0.0
H2144 H 0.29598 0.21426 0.19231 0.0
H2145 H 0.29621 0.22097 0.21398 0.0
H2146 H 0.33353 0.24999 0.22756 0.0
H2147 H 0.35083 0.23073 0.24442 0.0
H2148 H 0.78384 0.17034 0.8319 0.0
H2149 H 0.79805 0.19756 0.83632 0.0
H2150 H 0.77158 0.21817 0.79328 0.0
H2151 H 0.75723 0.1914 0.78917 0.0
H2152 H 0.81953 0.20717 0.81351 0.0
H2153 H 0.77517 0.25983 0.82079 0.0
H2154 H 0.7689 0.23825 0.82495 0.0
H2155 H 0.76753 0.24693 0.80387 0.0
C2156 C 0.78046 0.18097 0.82395 0.0
C2157 C 0.76965 0.17875 0.81004 0.0
C2158 C 0.78864 0.1965 0.82643 0.0
C2159 C 0.78592 0.20998 0.81515 0.0
C2160 C 0.7737 0.20819 0.80241 0.0
H2161 H 0.8505 0.26119 0.75168 0.0
H2162 H 0.83469 0.2418 0.76984 0.0
C2163 C 0.7656 0.19277 0.79993 0.0
C2164 C 0.79816 0.22416 0.8139 0.0
H2165 H 0.79983 0.26554 0.80189 0.0
C2166 C 0.81529 0.22007 0.81153 0.0
C2167 C 0.79287 0.2411 0.81165 0.0
C2168 C 0.77512 0.24675 0.81566 0.0
C2169 C 0.82677 0.23197 0.80516 0.0
C2170 C 0.82087 0.24822 0.80065 0.0
C2171 C 0.80425 0.25289 0.80482 0.0
C2172 C 0.83115 0.25985 0.79014 0.0
C2173 C 0.84495 0.22676 0.80269 0.0
C2174 C 0.83401 0.27657 0.7953 0.0
C2175 C 0.84285 0.28772 0.78482 0.0
C2176 C 0.84893 0.28236 0.76898 0.0
C2177 C 0.8461 0.26562 0.76386 0.0
C2178 C 0.83718 0.25451 0.7743 0.0
H2179 H 0.84873 0.21707 0.81213 0.0
H2180 H 0.84643 0.22107 0.78995 0.0
H2181 H 0.85364 0.23774 0.80374 0.0
H2182 H 0.82933 0.281 0.80738 0.0
H2183 H 0.84481 0.30058 0.7891 0.0
H2184 H 0.98172 0.61195 0.00233 0.0
H2185 H 0.00189 0.5962 0.01969 0.0
H2186 H 0.96328 0.58785 0.05731 0.0
H2187 H 0.94291 0.60307 0.03974 0.0
H2188 H 0.0139 0.59938 0.05215 0.0
H2189 H 0.97672 0.53998 0.04513 0.0
H2190 H 0.97214 0.55868 0.03294 0.0
H2191 H 0.96595 0.55748 0.05476 0.0
C2192 C 0.97758 0.60691 0.01436 0.0
C2193 C 0.96071 0.60848 0.01956 0.0
C2194 C 0.98911 0.59794 0.02429 0.0
C2195 C 0.98397 0.59055 0.03962 0.0
C2196 C 0.96739 0.59307 0.04534 0.0
H2197 H 0.07144 0.53797 0.08473 0.0
H2198 H 0.04445 0.55322 0.08675 0.0
C2199 C 0.95581 0.60184 0.03532 0.0
C2200 C 0.99579 0.57938 0.04889 0.0
H2201 H 0.00321 0.53786 0.05802 0.0
C2202 C 0.01151 0.58597 0.05375 0.0
C2203 C 0.9925 0.56191 0.05101 0.0
C2204 C 0.97599 0.554 0.0456 0.0
C2205 C 0.02453 0.57538 0.05948 0.0
C2206 C 0.02155 0.55776 0.06072 0.0
C2207 C 0.00538 0.55138 0.05715 0.0
C2208 C 0.03575 0.54561 0.06194 0.0
C2209 C 0.04173 0.58297 0.06277 0.0
C2210 C 0.03913 0.53528 0.04795 0.0
C2211 C 0.05431 0.52648 0.04686 0.0
C2212 C 0.06645 0.52786 0.05974 0.0
C2213 C 0.06236 0.5368 0.07455 0.0
C2214 C 0.04704 0.54564 0.07565 0.0
H2215 H 0.04235 0.59654 0.05916 0.0
H2216 H 0.04473 0.58198 0.07643 0.0
H2217 H 0.05161 0.57603 0.05562 0.0
H2218 H 0.03055 0.53495 0.03727 0.0
H2219 H 0.05696 0.51942 0.03542 0.0
H2220 H 0.64002 0.73126 0.24896 0.0
H2221 H 0.65695 0.7506 0.26608 0.0
H2222 H 0.66553 0.71107 0.30267 0.0
H2223 H 0.6489 0.69149 0.28537 0.0
H2224 H 0.65324 0.76125 0.29944 0.0
H2225 H 0.71348 0.72588 0.29031 0.0
H2226 H 0.69491 0.72152 0.27782 0.0
H2227 H 0.69599 0.71456 0.29939 0.0
C2228 C 0.64544 0.7267 0.26068 0.0
C2229 C 0.64327 0.70984 0.26576 0.0
C2230 C 0.65508 0.73776 0.27047 0.0
C2231 C 0.66267 0.73219 0.28553 0.0
C2232 C 0.66004 0.71552 0.29094 0.0
H2233 H 0.71315 0.8211 0.32963 0.0
H2234 H 0.69965 0.79328 0.33244 0.0
C2235 C 0.65047 0.7044 0.28109 0.0
C2236 C 0.67371 0.74394 0.29503 0.0
H2237 H 0.71525 0.75265 0.30274 0.0
C2238 C 0.66677 0.75929 0.30053 0.0
C2239 C 0.69131 0.74118 0.29653 0.0
C2240 C 0.69947 0.72496 0.29064 0.0
C2241 C 0.6771 0.77258 0.3061 0.0
C2242 C 0.69485 0.77025 0.30652 0.0
C2243 C 0.70164 0.75435 0.30246 0.0
C2244 C 0.70646 0.78494 0.30727 0.0
C2245 C 0.669 0.78943 0.31 0.0
C2246 C 0.7159 0.78886 0.29279 0.0
C2247 C 0.72373 0.80454 0.29125 0.0
C2248 C 0.72224 0.81666 0.30415 0.0
C2249 C 0.71434 0.81208 0.31941 0.0
C2250 C 0.70651 0.79625 0.32097 0.0
H2251 H 0.65527 0.78955 0.30706 0.0
H2252 H 0.67054 0.79231 0.32363 0.0
H2253 H 0.67519 0.79966 0.30265 0.0
H2254 H 0.71618 0.78029 0.28211 0.0
H2255 H 0.73004 0.80754 0.27946 0.0
H2256 H 0.01806 0.89108 0.00413 0.0
H2257 H 0.99782 0.9091 0.01904 0.0
H2258 H 0.03796 0.92876 0.05025 0.0
H2259 H 0.05827 0.91058 0.03558 0.0
H2260 H 0.00777 0.92219 0.06832 0.0
H2261 H 0.99646 0.96041 0.01082 0.0
H2262 H 0.99334 0.93823 0.00719 0.0
H2263 H 0.01402 0.94596 0.0127 0.0
C2264 C 0.02255 0.89913 0.01426 0.0
C2265 C 0.03974 0.89954 0.01859 0.0
C2266 C 0.011 0.90945 0.02272 0.0
C2267 C 0.01648 0.92046 0.03553 0.0
C2268 C 0.03352 0.92041 0.04035 0.0
H2269 H 0.94085 0.99641 0.05447 0.0
H2270 H 0.96981 0.98558 0.05463 0.0
C2271 C 0.04508 0.91003 0.03193 0.0
C2272 C 0.00444 0.93246 0.04331 0.0
H2273 H 0.97589 0.96285 0.03283 0.0
C2274 C 0.00092 0.93128 0.06067 0.0
C2275 C 0.99599 0.9447 0.03343 0.0
C2276 C 0.00026 0.94756 0.01504 0.0
C2277 C 0.98826 0.94126 0.06816 0.0
C2278 C 0.97869 0.95238 0.0579 0.0
C2279 C 0.98307 0.95429 0.04078 0.0
C2280 C 0.9629 0.96069 0.06378 0.0
C2281 C 0.98517 0.93963 0.08689 0.0
C2282 C 0.94956 0.95078 0.0701 0.0
C2283 C 0.9331 0.95719 0.07051 0.0
C2284 C 0.92976 0.97344 0.0643 0.0
C2285 C 0.94325 0.98392 0.05957 0.0
C2286 C 0.95975 0.97767 0.05953 0.0
H2287 H 0.99711 0.93668 0.09368 0.0
H2288 H 0.97969 0.95137 0.09229 0.0
H2289 H 0.97629 0.92902 0.0892 0.0
H2290 H 0.95149 0.93756 0.07307 0.0
H2291 H 0.92279 0.94879 0.07382 0.0
H2292 H 0.23053 0.68451 0.71473 0.0
H2293 H 0.21634 0.71171 0.71365 0.0
H2294 H 0.19913 0.701 0.66302 0.0
H2295 H 0.21303 0.67325 0.66421 0.0
H2296 H 0.21535 0.74023 0.69394 0.0
H2297 H 0.15512 0.70378 0.68955 0.0
H2298 H 0.17509 0.69348 0.69331 0.0
H2299 H 0.17008 0.70142 0.67263 0.0
C2300 C 0.22399 0.68801 0.70322 0.0
C2301 C 0.2225 0.67655 0.68973 0.0
C2302 C 0.21596 0.70365 0.70258 0.0
C2303 C 0.2063 0.70819 0.68844 0.0
C2304 C 0.2062 0.69754 0.67421 0.0
H2305 H 0.15003 0.80206 0.71122 0.0
H2306 H 0.16624 0.782 0.6941 0.0
C2307 C 0.21426 0.68176 0.67486 0.0
C2308 C 0.19478 0.72289 0.68995 0.0
H2309 H 0.15329 0.73204 0.69758 0.0
C2310 C 0.20174 0.73862 0.69433 0.0
C2311 C 0.17703 0.72065 0.69055 0.0
C2312 C 0.1688 0.70394 0.68636 0.0
C2313 C 0.19155 0.75177 0.70054 0.0
C2314 C 0.17392 0.74915 0.70205 0.0
C2315 C 0.16683 0.73391 0.69645 0.0
C2316 C 0.16297 0.76109 0.71142 0.0
C2317 C 0.19989 0.76782 0.70663 0.0
C2318 C 0.15523 0.75579 0.7265 0.0
C2319 C 0.14582 0.76714 0.73621 0.0
C2320 C 0.14404 0.78401 0.73102 0.0
C2321 C 0.15131 0.78915 0.71561 0.0
C2322 C 0.16064 0.77775 0.70585 0.0
H2323 H 0.21388 0.76668 0.70712 0.0
H2324 H 0.19669 0.77832 0.6979 0.0
H2325 H 0.19523 0.77126 0.71942 0.0
H2326 H 0.15685 0.74295 0.731 0.0
H2327 H 0.14034 0.76281 0.74799 0.0
H2328 H 0.94358 0.39511 0.45956 0.0
H2329 H 0.96382 0.40962 0.44128 0.0
H2330 H 0.00298 0.40167 0.4784 0.0
H2331 H 0.98288 0.38676 0.49657 0.0
H2332 H 0.97969 0.43825 0.44778 0.0
H2333 H 0.02753 0.38912 0.43569 0.0
H2334 H 0.00689 0.38419 0.44413 0.0
H2335 H 0.02374 0.39086 0.45795 0.0
C2336 C 0.95659 0.39622 0.46372 0.0
C2337 C 0.96168 0.38982 0.47951 0.0
C2338 C 0.96812 0.4045 0.45323 0.0
C2339 C 0.98497 0.40652 0.45833 0.0
C2340 C 0.99015 0.39986 0.47398 0.0
H2341 H 0.05485 0.48028 0.45925 0.0
H2342 H 0.02811 0.46546 0.45655 0.0
C2343 C 0.97864 0.39145 0.48443 0.0
C2344 C 0.99676 0.41697 0.44817 0.0
H2345 H 0.03768 0.41828 0.43486 0.0
C2346 C 0.99225 0.43377 0.44456 0.0
C2347 C 0.01292 0.41104 0.44338 0.0
C2348 C 0.01796 0.39274 0.44531 0.0
C2349 C 0.00407 0.44521 0.43793 0.0
C2350 C 0.02089 0.43978 0.43525 0.0
C2351 C 0.02486 0.42257 0.43716 0.0
C2352 C 0.03509 0.45192 0.43377 0.0
C2353 C -0.00141 0.46316 0.43456 0.0
C2354 C 0.04784 0.4497 0.42159 0.0
C2355 C 0.06331 0.45817 0.4232 0.0
C2356 C 0.06625 0.46875 0.43716 0.0
C2357 C 0.05294 0.47211 0.44841 0.0
C2358 C 0.03754 0.46375 0.44677 0.0
H2359 H 0.98529 0.46351 0.43006 0.0
H2360 H -0.00083 0.47049 0.4465 0.0
H2361 H 0.00678 0.46939 0.42501 0.0
H2362 H 0.04625 0.44056 0.41151 0.0
H2363 H 0.0734 0.45531 0.41439 0.0
H2364 H 0.44284 0.50382 0.944 0.0
H2365 H 0.47028 0.51808 0.94425 0.0
H2366 H 0.44841 0.56066 0.91816 0.0
H2367 H 0.42112 0.54606 0.91723 0.0
H2368 H 0.485 0.55663 0.91328 0.0
H2369 H 0.46394 0.55559 0.98035 0.0
H2370 H 0.46686 0.53509 0.97108 0.0
H2371 H 0.45051 0.54882 0.96325 0.0
C2372 C 0.44419 0.51576 0.93741 0.0
C2373 C 0.42997 0.52394 0.93068 0.0
C2374 C 0.45982 0.52395 0.93765 0.0
C2375 C 0.46119 0.5406 0.93167 0.0
C2376 C 0.44757 0.54783 0.9229 0.0
H2377 H 0.51598 0.61744 0.98577 0.0
H2378 H 0.49486 0.60149 0.96979 0.0
C2379 C 0.43199 0.53947 0.92232 0.0
C2380 C 0.4749 0.55161 0.93804 0.0
H2381 H 0.48981 0.56885 0.97463 0.0
C2382 C 0.48615 0.55931 0.92668 0.0
C2383 C 0.47603 0.55541 0.9555 0.0
C2384 C 0.46362 0.54844 0.96827 0.0
C2385 C 0.4987 0.57056 0.93241 0.0
C2386 C 0.50006 0.57395 0.94994 0.0
C2387 C 0.48875 0.56627 0.9612 0.0
C2388 C 0.51306 0.58533 0.95722 0.0
C2389 C 0.5101 0.57898 0.91964 0.0
C2390 C 0.53032 0.58177 0.95523 0.0
C2391 C 0.5424 0.591 0.96423 0.0
C2392 C 0.5374 0.60374 0.97559 0.0
C2393 C 0.52018 0.60765 0.97716 0.0
C2394 C 0.50813 0.59857 0.96801 0.0
H2395 H 0.50435 0.57902 0.90683 0.0
H2396 H 0.51297 0.59221 0.92335 0.0
H2397 H 0.52219 0.5719 0.91891 0.0
H2398 H 0.53442 0.57137 0.94734 0.0
H2399 H 0.5556 0.58766 0.96282 0.0
H2400 H 0.67084 0.79848 0.82451 0.0
H2401 H 0.67142 0.80917 0.79566 0.0
H2402 H 0.68825 0.76037 0.77788 0.0
H2403 H 0.6887 0.75008 0.80704 0.0
H2404 H 0.71051 0.78176 0.77086 0.0
H2405 H 0.65103 0.81091 0.75035 0.0
H2406 H 0.65566 0.81863 0.7711 0.0
H2407 H 0.65175 0.79635 0.76792 0.0
C2408 C 0.67372 0.7898 0.81431 0.0
C2409 C 0.67963 0.77349 0.81786 0.0
C2410 C 0.67402 0.7959 0.79773 0.0
C2411 C 0.67991 0.78562 0.78447 0.0
C2412 C 0.68371 0.76858 0.78786 0.0
H2413 H 0.70967 0.84134 0.69247 0.0
H2414 H 0.69459 0.82148 0.71083 0.0
C2415 C 0.68382 0.76263 0.80449 0.0
C2416 C 0.686 0.79362 0.76858 0.0
H2417 H 0.67714 0.82544 0.74077 0.0
C2418 C 0.70298 0.79095 0.76402 0.0
C2419 C 0.6763 0.8055 0.75935 0.0
C2420 C 0.65762 0.80783 0.76236 0.0
C2421 C 0.71082 0.8007 0.7515 0.0
C2422 C 0.70164 0.81388 0.74371 0.0
C2423 C 0.68431 0.81566 0.74717 0.0
C2424 C 0.71015 0.82645 0.73275 0.0
C2425 C 0.72902 0.79702 0.74706 0.0
C2426 C 0.72361 0.83611 0.73913 0.0
C2427 C 0.7323 0.84739 0.72868 0.0
C2428 C 0.72753 0.84933 0.71172 0.0
C2429 C 0.71366 0.84008 0.7055 0.0
C2430 C 0.70502 0.82874 0.71595 0.0
H2431 H 0.7323 0.78361 0.74967 0.0
H2432 H 0.73165 0.79974 0.73354 0.0
H2433 H 0.73741 0.80507 0.75491 0.0
H2434 H 0.72752 0.83481 0.75219 0.0
H2435 H 0.74286 0.85442 0.73384 0.0
H2436 H 0.48545 0.46278 0.05865 0.0
H2437 H 0.47176 0.46131 0.03121 0.0
H2438 H 0.45235 0.41178 0.0433 0.0
H2439 H 0.46568 0.41343 0.07129 0.0
H2440 H 0.46895 0.44157 0.00305 0.0
H2441 H 0.40965 0.44008 0.04123 0.0
H2442 H 0.43005 0.443 0.0509 0.0
H2443 H 0.42382 0.42247 0.0434 0.0
C2444 C 0.4786 0.45138 0.05535 0.0
C2445 C 0.47617 0.43845 0.0673 0.0
C2446 C 0.47086 0.45051 0.03959 0.0
C2447 C 0.46058 0.43668 0.03543 0.0
C2448 C 0.45987 0.42277 0.04648 0.0
H2449 H 0.40123 0.45905 0.94325 0.0
H2450 H 0.41862 0.44251 0.9628 0.0
C2451 C 0.4676 0.42367 0.06239 0.0
C2452 C 0.44875 0.43849 0.02101 0.0
H2453 H 0.40731 0.44747 0.0129 0.0
C2454 C 0.45541 0.44246 0.00503 0.0
C2455 C 0.43109 0.4398 0.02373 0.0
C2456 C 0.42315 0.43623 0.04073 0.0
C2457 C 0.44507 0.44886 0.99209 0.0
C2458 C 0.42758 0.45101 0.99517 0.0
C2459 C 0.42075 0.44586 0.01068 0.0
C2460 C 0.41652 0.46041 0.98336 0.0
C2461 C 0.45312 0.45442 0.9757 0.0
C2462 C 0.40917 0.4757 0.98863 0.0
C2463 C 0.39909 0.48508 0.97758 0.0
C2464 C 0.39622 0.47933 0.96106 0.0
C2465 C 0.40331 0.46385 0.9559 0.0
C2466 C 0.41333 0.45442 0.967 0.0
H2467 H 0.46715 0.4545 0.97644 0.0
H2468 H 0.44934 0.44562 0.96546 0.0
H2469 H 0.44875 0.46729 0.97217 0.0
H2470 H 0.41146 0.48052 0.00124 0.0
H2471 H 0.3938 0.49694 0.98191 0.0
H2472 H 0.79169 0.24212 0.30919 0.0
H2473 H 0.78865 0.22822 0.28173 0.0
H2474 H 0.82331 0.18922 0.29758 0.0
H2475 H 0.82694 0.20354 0.32485 0.0
H2476 H 0.8236 0.19516 0.26198 0.0
H2477 H 0.75891 0.18616 0.28775 0.0
H2478 H 0.76485 0.20793 0.2854 0.0
H2479 H 0.77595 0.19472 0.30022 0.0
C2480 C 0.79922 0.23099 0.30649 0.0
C2481 C 0.8094 0.22374 0.31908 0.0
C2482 C 0.79741 0.22302 0.29088 0.0
C2483 C 0.80534 0.20744 0.28789 0.0
C2484 C 0.81699 0.20118 0.29972 0.0
H2485 H 0.7565 0.12916 0.22924 0.0
H2486 H 0.77115 0.14518 0.25128 0.0
C2487 C 0.8191 0.20938 0.31526 0.0
C2488 C 0.79925 0.19642 0.27406 0.0
H2489 H 0.76382 0.17621 0.26013 0.0
C2490 C 0.81055 0.19097 0.26152 0.0
C2491 C 0.78231 0.19063 0.2738 0.0
C2492 C 0.76983 0.195 0.28759 0.0
C2493 C 0.80522 0.18013 0.24847 0.0
C2494 C 0.78809 0.17492 0.24787 0.0
C2495 C 0.77693 0.18023 0.26056 0.0
C2496 C 0.78118 0.16411 0.23421 0.0
C2497 C 0.81804 0.17413 0.23569 0.0
C2498 C 0.78207 0.16933 0.21728 0.0
C2499 C 0.77388 0.16008 0.20468 0.0
C2500 C 0.76438 0.14564 0.20883 0.0
C2501 C 0.76369 0.14027 0.22571 0.0
C2502 C 0.77208 0.14939 0.23828 0.0
H2503 H 0.8311 0.17475 0.24083 0.0
H2504 H 0.81542 0.16094 0.23164 0.0
H2505 H 0.8175 0.18242 0.22439 0.0
H2506 H 0.78858 0.18089 0.21387 0.0
H2507 H 0.77453 0.16458 0.19176 0.0
H2508 H 0.01247 0.53376 0.55754 0.0
H2509 H 0.02698 0.53541 0.53055 0.0
H2510 H 0.04688 0.58441 0.54398 0.0
H2511 H 0.03273 0.58253 0.57155 0.0
H2512 H 0.03056 0.55546 0.50294 0.0
H2513 H 0.08931 0.55588 0.54196 0.0
H2514 H 0.06875 0.55308 0.55133 0.0
H2515 H 0.07528 0.5736 0.54406 0.0
C2516 C 0.01962 0.54508 0.55464 0.0
C2517 C 0.0219 0.55778 0.56685 0.0
C2518 C 0.02785 0.54606 0.53913 0.0
C2519 C 0.03846 0.55978 0.53547 0.0
C2520 C 0.03912 0.57348 0.54677 0.0
H2521 H 0.09733 0.53552 0.44357 0.0
H2522 H 0.08088 0.55303 0.46305 0.0
C2523 C 0.0309 0.57247 0.56245 0.0
C2524 C 0.05052 0.55806 0.52122 0.0
H2525 H 0.09193 0.54849 0.51365 0.0
C2526 C 0.04405 0.55434 0.50511 0.0
C2527 C 0.06812 0.55649 0.52418 0.0
C2528 C 0.07586 0.55986 0.5413 0.0
C2529 C 0.05446 0.54778 0.49231 0.0
C2530 C 0.07186 0.54531 0.49563 0.0
C2531 C 0.07856 0.55033 0.51125 0.0
C2532 C 0.08288 0.53558 0.48402 0.0
C2533 C 0.04649 0.54236 0.47584 0.0
C2534 C 0.09004 0.52029 0.48955 0.0
C2535 C 0.09965 0.51038 0.47855 0.0
C2536 C 0.10219 0.51556 0.46179 0.0
C2537 C 0.09544 0.53113 0.4564 0.0
C2538 C 0.08596 0.54111 0.46747 0.0
H2539 H 0.03246 0.54234 0.47649 0.0
H2540 H 0.05035 0.55123 0.46568 0.0
H2541 H 0.0508 0.52949 0.47224 0.0
H2542 H 0.08785 0.51582 0.50231 0.0
H2543 H 0.10471 0.49848 0.48306 0.0
H2544 H 0.71255 0.23221 0.68487 0.0
H2545 H 0.7098 0.21831 0.71208 0.0
H2546 H 0.65901 0.20295 0.69942 0.0
H2547 H 0.66191 0.21646 0.67163 0.0
H2548 H 0.68934 0.21727 0.73996 0.0
H2549 H 0.68377 0.15809 0.70191 0.0
H2550 H 0.68843 0.17813 0.69215 0.0
H2551 H 0.66744 0.1737 0.69962 0.0
C2552 C 0.70065 0.22615 0.68794 0.0
C2553 C 0.68765 0.22493 0.67591 0.0
C2554 C 0.69904 0.21832 0.7036 0.0
C2555 C 0.68439 0.20917 0.70757 0.0
C2556 C 0.67059 0.20959 0.69639 0.0
H2557 H 0.70574 0.14871 0.79917 0.0
H2558 H 0.68875 0.1662 0.78011 0.0
C2559 C 0.67223 0.2174 0.68058 0.0
C2560 C 0.68509 0.19728 0.72201 0.0
H2561 H 0.69182 0.1554 0.73002 0.0
C2562 C 0.68943 0.2037 0.73798 0.0
C2563 C 0.68527 0.17957 0.71929 0.0
C2564 C 0.68108 0.17187 0.70233 0.0
C2565 C 0.69537 0.19302 0.75085 0.0
C2566 C 0.69664 0.17547 0.74768 0.0
C2567 C 0.69089 0.1689 0.73227 0.0
C2568 C 0.7061 0.16408 0.75909 0.0
C2569 C 0.70153 0.20072 0.76718 0.0
C2570 C 0.7212 0.15669 0.75337 0.0
C2571 C 0.73085 0.14659 0.76414 0.0
C2572 C 0.72555 0.14374 0.78082 0.0
C2573 C 0.71019 0.15079 0.78639 0.0
C2574 C 0.7005 0.16084 0.77557 0.0
H2575 H 0.70181 0.21476 0.76667 0.0
H2576 H 0.69299 0.1969 0.77763 0.0
H2577 H 0.71442 0.19608 0.77024 0.0
H2578 H 0.72571 0.15905 0.74065 0.0
H2579 H 0.74261 0.14132 0.75951 0.0
H2580 H 0.06 0.44796 0.91835 0.0
H2581 H 0.07285 0.44621 0.94623 0.0
H2582 H 0.02933 0.41904 0.96481 0.0
H2583 H 0.01638 0.42062 0.93646 0.0
H2584 H 0.0372 0.44888 0.98267 0.0
H2585 H 0.09448 0.40982 0.97582 0.0
H2586 H 0.09259 0.42433 0.95851 0.0
H2587 H 0.07674 0.40822 0.96149 0.0
C2588 C 0.05337 0.44121 0.92826 0.0
C2589 C 0.03724 0.43445 0.92537 0.0
C2590 C 0.06078 0.44008 0.94415 0.0
C2591 C 0.05217 0.43227 0.95752 0.0
C2592 C 0.03627 0.42489 0.95455 0.0
H2593 H 0.09015 0.46242 0.05812 0.0
H2594 H 0.07515 0.44475 0.03758 0.0
C2595 C 0.02891 0.42578 0.93844 0.0
C2596 C 0.05892 0.43446 0.97481 0.0
H2597 H 0.09659 0.43355 0.99578 0.0
C2598 C 0.04995 0.44502 0.9859 0.0
C2599 C 0.07554 0.42939 0.97899 0.0
C2600 C 0.08531 0.41716 0.96812 0.0
C2601 C 0.05782 0.45204 0.00015 0.0
C2602 C 0.07499 0.44831 0.00331 0.0
C2603 C 0.08347 0.43655 0.99312 0.0
C2604 C 0.08481 0.45808 0.01578 0.0
C2605 C 0.04824 0.46448 0.01098 0.0
C2606 C 0.09531 0.47125 0.0102 0.0
C2607 C 0.10382 0.48142 0.02185 0.0
C2608 C 0.102 0.47849 0.03925 0.0
C2609 C 0.09177 0.465 0.04477 0.0
C2610 C 0.0832 0.45488 0.0331 0.0
H2611 H 0.03499 0.46621 0.00667 0.0
H2612 H 0.04808 0.46002 0.02428 0.0
H2613 H 0.05472 0.47694 0.01077 0.0
H2614 H 0.09661 0.47387 0.99682 0.0
H2615 H 0.11162 0.4917 0.01725 0.0
H2616 H 0.75231 0.85882 0.26153 0.0
H2617 H 0.76938 0.84232 0.24177 0.0
H2618 H 0.80534 0.83168 0.28136 0.0
H2619 H 0.78808 0.84782 0.30134 0.0
H2620 H 0.80282 0.84489 0.23128 0.0
H2621 H 0.79137 0.78454 0.26581 0.0
H2622 H 0.77961 0.80353 0.2704 0.0
H2623 H 0.80108 0.80145 0.27747 0.0
C2624 C 0.76391 0.85309 0.266 0.0
C2625 C 0.76876 0.85443 0.283 0.0
C2626 C 0.77367 0.84369 0.25471 0.0
C2627 C 0.78848 0.83556 0.26019 0.0
C2628 C 0.79379 0.83756 0.27697 0.0
H2629 H 0.83223 0.78409 0.17152 0.0
H2630 H 0.83486 0.79776 0.19928 0.0
C2631 C 0.78395 0.84685 0.28832 0.0
C2632 C 0.79768 0.82438 0.24834 0.0
H2633 H 0.80424 0.78272 0.23928 0.0
C2634 C 0.8035 0.83132 0.23311 0.0
C2635 C 0.7986 0.8067 0.25092 0.0
C2636 C 0.79227 0.79851 0.26696 0.0
C2637 C 0.80888 0.82095 0.21978 0.0
C2638 C 0.80878 0.80317 0.22195 0.0
C2639 C 0.80437 0.79634 0.23772 0.0
C2640 C 0.80937 0.79167 0.20719 0.0
C2641 C 0.81319 0.82908 0.20304 0.0
C2642 C 0.79469 0.78266 0.20305 0.0
C2643 C 0.79323 0.77474 0.18742 0.0
C2644 C 0.80641 0.77573 0.17556 0.0
C2645 C 0.82178 0.7833 0.18034 0.0
C2646 C 0.82326 0.79121 0.19612 0.0
H2647 H 0.81066 0.8429 0.20301 0.0
H2648 H 0.8268 0.82715 0.20028 0.0
H2649 H 0.80576 0.82319 0.19269 0.0
H2650 H 0.78385 0.78271 0.21144 0.0
H2651 H 0.78135 0.76869 0.18427 0.0
H2652 H 0.39925 0.53763 0.55094 0.0
H2653 H 0.41493 0.55619 0.53182 0.0
H2654 H 0.40657 0.52103 0.49097 0.0
H2655 H 0.3906 0.50257 0.50995 0.0
H2656 H 0.44379 0.54939 0.51543 0.0
H2657 H 0.39465 0.5655 0.46879 0.0
H2658 H 0.38964 0.55642 0.48914 0.0
H2659 H 0.39559 0.54304 0.47167 0.0
C2660 C 0.40056 0.53396 0.53782 0.0
C2661 C 0.39367 0.51866 0.5319 0.0
C2662 C 0.40952 0.54459 0.52693 0.0
C2663 C 0.41167 0.54016 0.50991 0.0
C2664 C 0.40467 0.52494 0.50395 0.0
H2665 H 0.48421 0.53922 0.43944 0.0
H2666 H 0.47021 0.54184 0.46659 0.0
C2667 C 0.39565 0.51433 0.51482 0.0
C2668 C 0.42235 0.5506 0.49862 0.0
H2669 H 0.42367 0.56579 0.45839 0.0
C2670 C 0.43931 0.55337 0.5031 0.0
C2671 C 0.41642 0.55641 0.4828 0.0
C2672 C 0.39801 0.55537 0.47792 0.0
C2673 C 0.45086 0.56012 0.49144 0.0
C2674 C 0.44535 0.56377 0.47483 0.0
C2675 C 0.42803 0.56275 0.47102 0.0
C2676 C 0.45735 0.56526 0.46049 0.0
C2677 C 0.46898 0.56254 0.49684 0.0
C2678 C 0.45527 0.57783 0.44809 0.0
C2679 C 0.46323 0.57623 0.43234 0.0
C2680 C 0.47315 0.56193 0.42881 0.0
C2681 C 0.4765 0.5503 0.4418 0.0
C2682 C 0.46863 0.55191 0.45745 0.0
H2683 H 0.46962 0.56662 0.51026 0.0
H2684 H 0.47578 0.55031 0.49585 0.0
H2685 H 0.47556 0.57206 0.48889 0.0
H2686 H 0.44657 0.5882 0.45014 0.0
H2687 H 0.46041 0.58536 0.42253 0.0
H2688 H 0.73366 0.74709 0.85513 0.0
H2689 H 0.75205 0.73124 0.83595 0.0
H2690 H 0.71086 0.69758 0.82392 0.0
H2691 H 0.6925 0.71313 0.84335 0.0
H2692 H 0.74103 0.68051 0.82805 0.0
H2693 H 0.74874 0.73469 0.78466 0.0
H2694 H 0.75426 0.74032 0.80592 0.0
H2695 H 0.73285 0.73427 0.80104 0.0
C2696 C 0.72856 0.73626 0.84848 0.0
C2697 C 0.71164 0.73142 0.85064 0.0
C2698 C 0.73903 0.72728 0.83746 0.0
C2699 C 0.73269 0.71346 0.82827 0.0
C2700 C 0.71595 0.70826 0.83082 0.0
H2701 H 0.80495 0.69032 0.75046 0.0
H2702 H 0.77614 0.69014 0.76173 0.0
C2703 C 0.7055 0.71718 0.84191 0.0
C2704 C 0.74356 0.70472 0.8158 0.0
H2705 H 0.76984 0.71291 0.78279 0.0
C2706 C 0.74716 0.68747 0.81795 0.0
C2707 C 0.75098 0.71361 0.80221 0.0
C2708 C 0.74635 0.73169 0.79818 0.0
C2709 C 0.75911 0.67925 0.80768 0.0
C2710 C 0.76796 0.68868 0.7953 0.0
C2711 C 0.76328 0.70558 0.79235 0.0
C2712 C 0.78358 0.68243 0.78694 0.0
C2713 C 0.76226 0.66064 0.81041 0.0
C2714 C 0.79718 0.6768 0.79692 0.0
C2715 C 0.81354 0.67634 0.79027 0.0
C2716 C 0.81653 0.68184 0.77371 0.0
C2717 C 0.80282 0.68578 0.76321 0.0
C2718 C 0.7864 0.68582 0.76971 0.0
H2719 H 0.75038 0.65409 0.81404 0.0
H2720 H 0.7675 0.65449 0.79893 0.0
H2721 H 0.77133 0.659 0.82098 0.0
H2722 H 0.79555 0.67452 0.81031 0.0
H2723 H 0.82402 0.67363 0.79867 0.0
H2724 H 0.50253 0.48166 0.11095 0.0
H2725 H 0.51878 0.50204 0.09433 0.0
H2726 H 0.55635 0.46391 0.08391 0.0
H2727 H 0.53997 0.44333 0.10021 0.0
H2728 H 0.55217 0.51389 0.09635 0.0
H2729 H 0.54055 0.47821 0.03672 0.0
H2730 H 0.52924 0.47362 0.05599 0.0
H2731 H 0.55083 0.46703 0.05362 0.0
C2732 C 0.51433 0.47766 0.10527 0.0
C2733 C 0.51986 0.46087 0.10668 0.0
C2734 C 0.52362 0.48931 0.09581 0.0
C2735 C 0.5386 0.48437 0.08767 0.0
C2736 C 0.54464 0.46786 0.08981 0.0
H2737 H 0.5816 0.57198 0.03333 0.0
H2738 H 0.58371 0.54479 0.04817 0.0
C2739 C 0.5353 0.45616 0.09919 0.0
C2740 C 0.54716 0.49639 0.07618 0.0
H2741 H 0.55285 0.50499 0.03429 0.0
C2742 C 0.55268 0.51188 0.0828 0.0
C2743 C 0.54782 0.49359 0.05852 0.0
C2744 C 0.54172 0.47728 0.05069 0.0
C2745 C 0.55769 0.52515 0.07215 0.0
C2746 C 0.55742 0.52269 0.05442 0.0
C2747 C 0.55312 0.50676 0.04788 0.0
C2748 C 0.558 0.53723 0.04266 0.0
C2749 C 0.56187 0.54208 0.07991 0.0
C2750 C 0.54326 0.5414 0.03375 0.0
C2751 C 0.54206 0.55673 0.02522 0.0
C2752 C 0.55559 0.56825 0.02543 0.0
C2753 C 0.57091 0.56343 0.03308 0.0
C2754 C 0.5721 0.54797 0.04165 0.0
H2755 H 0.55946 0.54234 0.09375 0.0
H2756 H 0.57543 0.54496 0.0778 0.0
H2757 H 0.55429 0.55224 0.07389 0.0
H2758 H 0.53226 0.53324 0.03426 0.0
H2759 H 0.53019 0.55992 0.01919 0.0
H2760 H 0.69594 0.30201 0.2566 0.0
H2761 H 0.72312 0.30092 0.27133 0.0
H2762 H 0.70162 0.32871 0.31302 0.0
H2763 H 0.67465 0.33053 0.29792 0.0
H2764 H 0.73777 0.33261 0.30975 0.0
H2765 H 0.71626 0.26571 0.30909 0.0
H2766 H 0.71967 0.27453 0.28847 0.0
H2767 H 0.70315 0.28282 0.30174 0.0
C2768 C 0.69734 0.3087 0.26848 0.0
C2769 C 0.6833 0.31623 0.27625 0.0
C2770 C 0.7128 0.30799 0.27693 0.0
C2771 C 0.71416 0.31427 0.29347 0.0
C2772 C 0.70078 0.3237 0.30031 0.0
H2773 H 0.76894 0.25957 0.37016 0.0
H2774 H 0.74761 0.27563 0.35454 0.0
C2775 C 0.68539 0.32478 0.29165 0.0
C2776 C 0.72764 0.30786 0.30473 0.0
H2777 H 0.7423 0.27127 0.32217 0.0
C2778 C 0.73884 0.31922 0.3125 0.0
C2779 C 0.72864 0.29041 0.30863 0.0
C2780 C 0.71621 0.27766 0.3017 0.0
C2781 C 0.75126 0.31349 0.32387 0.0
C2782 C 0.75259 0.29595 0.32727 0.0
C2783 C 0.74127 0.2847 0.31957 0.0
C2784 C 0.76565 0.28864 0.33855 0.0
C2785 C 0.76258 0.32627 0.33237 0.0
C2786 C 0.78287 0.29087 0.33498 0.0
C2787 C 0.79506 0.28186 0.34404 0.0
C2788 C 0.7902 0.27023 0.35658 0.0
C2789 C 0.77301 0.2684 0.36051 0.0
C2790 C 0.76085 0.27759 0.35162 0.0
H2791 H 0.75667 0.33902 0.33261 0.0
H2792 H 0.76559 0.32245 0.34553 0.0
H2793 H 0.77459 0.32727 0.3252 0.0
H2794 H 0.78688 0.29895 0.32468 0.0
H2795 H 0.80824 0.28346 0.34068 0.0
H2796 H 0.99262 0.51489 0.6098 0.0
H2797 H 0.97579 0.49508 0.59313 0.0
H2798 H 0.94001 0.53467 0.58183 0.0
H2799 H 0.95704 0.5547 0.59817 0.0
H2800 H 0.94225 0.48465 0.59529 0.0
H2801 H 0.95473 0.51882 0.53495 0.0
H2802 H 0.96624 0.52346 0.55408 0.0
H2803 H 0.94482 0.53058 0.55168 0.0
C2804 C 0.98111 0.51935 0.60389 0.0
C2805 C 0.97625 0.53637 0.60512 0.0
C2806 C 0.97148 0.50803 0.5944 0.0
C2807 C 0.9568 0.51349 0.58603 0.0
C2808 C 0.95147 0.53029 0.5879 0.0
H2809 H 0.91404 0.42437 0.53447 0.0
H2810 H 0.9111 0.45226 0.54782 0.0
C2811 C 0.96117 0.54167 0.59731 0.0
C2812 C 0.94776 0.50159 0.57477 0.0
H2813 H 0.94198 0.49223 0.53306 0.0
C2814 C 0.94181 0.48639 0.58169 0.0
C2815 C 0.94716 0.50404 0.55706 0.0
C2816 C 0.95365 0.52004 0.5489 0.0
C2817 C 0.93662 0.47298 0.57133 0.0
C2818 C 0.93705 0.47502 0.55354 0.0
C2819 C 0.9416 0.49076 0.54669 0.0
C2820 C 0.93668 0.46017 0.54213 0.0
C2821 C 0.93218 0.45629 0.57948 0.0
C2822 C 0.95153 0.45597 0.53342 0.0
C2823 C 0.95317 0.44027 0.52569 0.0
C2824 C 0.93999 0.42838 0.52655 0.0
C2825 C 0.92447 0.43321 0.53377 0.0
C2826 C 0.92282 0.44907 0.54151 0.0
H2827 H 0.93444 0.45636 0.59334 0.0
H2828 H 0.9186 0.45351 0.57732 0.0
H2829 H 0.93972 0.4459 0.57381 0.0
H2830 H 0.96235 0.46438 0.53361 0.0
H2831 H 0.96517 0.43707 0.51992 0.0
H2832 H 0.82304 0.32434 0.70015 0.0
H2833 H 0.79553 0.3242 0.68627 0.0
H2834 H 0.77319 0.30173 0.73073 0.0
H2835 H 0.80103 0.30086 0.74412 0.0
H2836 H 0.76972 0.28173 0.70608 0.0
H2837 H 0.74984 0.34409 0.68243 0.0
H2838 H 0.77132 0.34033 0.67634 0.0
H2839 H 0.76595 0.34185 0.69846 0.0
C2840 C 0.81207 0.32021 0.70725 0.0
C2841 C 0.81402 0.31262 0.72314 0.0
C2842 C 0.79628 0.32017 0.69932 0.0
C2843 C 0.7822 0.3129 0.70739 0.0
C2844 C 0.78385 0.30733 0.7242 0.0
H2845 H 0.69037 0.28706 0.6509 0.0
H2846 H 0.71024 0.30146 0.66968 0.0
C2847 C 0.79971 0.30694 0.73192 0.0
C2848 C 0.76739 0.30746 0.69721 0.0
H2849 H 0.74063 0.31971 0.66558 0.0
C2850 C 0.76315 0.2902 0.69753 0.0
C2851 C 0.75865 0.31838 0.68603 0.0
C2852 C 0.76158 0.33722 0.68595 0.0
C2853 C 0.75109 0.28344 0.68651 0.0
C2854 C 0.74347 0.29408 0.67437 0.0
C2855 C 0.74691 0.3115 0.6746 0.0
C2856 C 0.73197 0.28709 0.6614 0.0
C2857 C 0.74675 0.26488 0.6879 0.0
C2858 C 0.73776 0.27468 0.6501 0.0
C2859 C 0.72643 0.2663 0.63945 0.0
C2860 C 0.70917 0.27037 0.63984 0.0
C2861 C 0.7036 0.28357 0.6504 0.0
C2862 C 0.71492 0.29186 0.66111 0.0
H2863 H 0.74985 0.25979 0.70062 0.0
H2864 H 0.73312 0.26265 0.6854 0.0
H2865 H 0.75421 0.25767 0.67846 0.0
H2866 H 0.75097 0.27105 0.64994 0.0
H2867 H 0.7311 0.2563 0.63135 0.0
H2868 H 0.96941 0.56289 0.97898 0.0
H2869 H 0.96846 0.53495 0.96632 0.0
H2870 H 0.91624 0.54264 0.9526 0.0
H2871 H 0.91723 0.57113 0.96492 0.0
H2872 H 0.94986 0.50586 0.96905 0.0
H2873 H 0.93932 0.53744 0.90689 0.0
H2874 H 0.94425 0.54931 0.9257 0.0
H2875 H 0.92352 0.54044 0.92293 0.0
C2876 C 0.95761 0.55861 0.97348 0.0
C2877 C 0.94352 0.5694 0.97253 0.0
C2878 C 0.95706 0.54255 0.96635 0.0
C2879 C 0.94241 0.53688 0.95816 0.0
C2880 C 0.92779 0.54696 0.95854 0.0
H2881 H 0.9622 0.43929 0.9075 0.0
H2882 H 0.94666 0.46033 0.92403 0.0
C2883 C 0.92834 0.56317 0.96568 0.0
C2884 C 0.94356 0.52143 0.94766 0.0
H2885 H 0.94771 0.5092 0.90648 0.0
C2886 C 0.94902 0.5064 0.95537 0.0
C2887 C 0.94256 0.52229 0.92981 0.0
C2888 C 0.9372 0.53822 0.92075 0.0
C2889 C 0.95469 0.49264 0.94572 0.0
C2890 C 0.9545 0.49386 0.92787 0.0
C2891 C 0.94788 0.5084 0.92017 0.0
C2892 C 0.96295 0.48117 0.91703 0.0
C2893 C 0.96197 0.47745 0.95469 0.0
C2894 C 0.97688 0.48604 0.90714 0.0
C2895 C 0.98564 0.47412 0.89753 0.0
C2896 C 0.98065 0.4571 0.8977 0.0
C2897 C 0.96643 0.45231 0.90726 0.0
C2898 C 0.95758 0.46428 0.91677 0.0
H2899 H 0.964 0.47986 0.96838 0.0
H2900 H 0.95311 0.46664 0.95346 0.0
H2901 H 0.97422 0.4737 0.94895 0.0
H2902 H 0.9812 0.49904 0.90716 0.0
H2903 H 0.99653 0.47817 0.89027 0.0
H2904 H 0.67132 0.67081 0.19744 0.0
H2905 H 0.69914 0.67233 0.18421 0.0
H2906 H 0.71909 0.69645 0.22893 0.0
H2907 H 0.69092 0.69588 0.24167 0.0
H2908 H 0.7222 0.71628 0.20395 0.0
H2909 H 0.74588 0.65451 0.18223 0.0
H2910 H 0.72444 0.65719 0.17546 0.0
H2911 H 0.72922 0.65627 0.19774 0.0
C2912 C 0.68187 0.67563 0.20474 0.0
C2913 C 0.67911 0.68323 0.2205 0.0
C2914 C 0.69783 0.67646 0.19719 0.0
C2915 C 0.71128 0.68455 0.20553 0.0
C2916 C 0.70891 0.69022 0.22221 0.0
H2917 H 0.80429 0.71275 0.15243 0.0
H2918 H 0.784 0.69816 0.1706 0.0
C2919 C 0.69287 0.6898 0.22954 0.0
C2920 C 0.72613 0.69054 0.19571 0.0
H2921 H 0.75477 0.679 0.16551 0.0
C2922 C 0.72952 0.70799 0.19584 0.0
C2923 C 0.73581 0.67985 0.18512 0.0
C2924 C 0.73374 0.6609 0.18528 0.0
C2925 C 0.74174 0.71511 0.18524 0.0
C2926 C 0.75041 0.70463 0.17367 0.0
C2927 C 0.74773 0.68707 0.17407 0.0
C2928 C 0.7623 0.71187 0.16119 0.0
C2929 C 0.74517 0.73387 0.18649 0.0
C2930 C 0.7567 0.72399 0.14947 0.0
C2931 C 0.76827 0.73248 0.13918 0.0
C2932 C 0.78558 0.72881 0.14032 0.0
C2933 C 0.79102 0.71593 0.15134 0.0
C2934 C 0.77946 0.70754 0.1617 0.0
H2935 H 0.74128 0.73901 0.19897 0.0
H2936 H 0.75879 0.73669 0.18454 0.0
H2937 H 0.73783 0.74059 0.17661 0.0
H2938 H 0.74343 0.72725 0.14867 0.0
H2939 H 0.76372 0.74222 0.1307 0.0
H2940 H 0.50139 0.51623 0.3884 0.0
H2941 H 0.51846 0.49692 0.40546 0.0
H2942 H 0.55513 0.53641 0.41385 0.0
H2943 H 0.53792 0.55593 0.39711 0.0
H2944 H 0.55192 0.48608 0.40241 0.0
H2945 H 0.54184 0.52251 0.46185 0.0
H2946 H 0.52966 0.52648 0.44299 0.0
H2947 H 0.55116 0.53364 0.44436 0.0
C2948 C 0.51314 0.52076 0.39377 0.0
C2949 C 0.51824 0.53761 0.39158 0.0
C2950 C 0.52289 0.50973 0.40349 0.0
C2951 C 0.53792 0.51533 0.41112 0.0
C2952 C 0.54341 0.53194 0.40835 0.0
H2953 H 0.58347 0.42838 0.46372 0.0
H2954 H 0.58554 0.45594 0.44956 0.0
C2955 C 0.5336 0.54303 0.39872 0.0
C2956 C 0.54726 0.50378 0.42248 0.0
H2957 H 0.55491 0.49609 0.46423 0.0
C2958 C 0.55293 0.48834 0.4159 0.0
C2959 C 0.5486 0.50693 0.44004 0.0
C2960 C 0.54243 0.52322 0.44783 0.0
C2961 C 0.55865 0.47537 0.42654 0.0
C2962 C 0.55904 0.47813 0.44423 0.0
C2963 C 0.55468 0.49408 0.45066 0.0
C2964 C 0.56015 0.46375 0.45618 0.0
C2965 C 0.56281 0.4584 0.41885 0.0
C2966 C 0.54577 0.45967 0.46569 0.0
C2967 C 0.54464 0.44416 0.47389 0.0
C2968 C 0.55786 0.43236 0.47269 0.0
C2969 C 0.57301 0.43716 0.4647 0.0
C2970 C 0.57416 0.45283 0.4565 0.0
H2971 H 0.55984 0.45788 0.40513 0.0
H2972 H 0.5765 0.45579 0.42042 0.0
H2973 H 0.55565 0.44819 0.42531 0.0
H2974 H 0.53486 0.46796 0.46576 0.0
H2975 H 0.53292 0.44098 0.48025 0.0
H2976 H 0.74832 0.8056 0.68898 0.0
H2977 H 0.76064 0.77719 0.68962 0.0
H2978 H 0.8084 0.7977 0.6731 0.0
H2979 H 0.79579 0.82585 0.67147 0.0
H2980 H 0.80557 0.76385 0.66516 0.0
H2981 H 0.78851 0.77608 0.73238 0.0
H2982 H 0.7709 0.77417 0.71824 0.0
H2983 H 0.78535 0.79163 0.71608 0.0
C2984 C 0.76112 0.80379 0.68445 0.0
C2985 C 0.77118 0.81778 0.6802 0.0
C2986 C 0.76822 0.78763 0.68503 0.0
C2987 C 0.7856 0.78549 0.68208 0.0
C2988 C 0.795 0.79909 0.67559 0.0
H2989 H 0.85762 0.73477 0.74302 0.0
H2990 H 0.83933 0.75393 0.72709 0.0
C2991 C 0.78778 0.81517 0.67457 0.0
C2992 C 0.79472 0.77072 0.68915 0.0
H2993 H 0.80533 0.7526 0.72686 0.0
C2994 C 0.80539 0.76121 0.67862 0.0
C2995 C 0.79469 0.76753 0.7068 0.0
C2996 C 0.78438 0.77795 0.71908 0.0
C2997 C 0.81637 0.74892 0.68531 0.0
C2998 C 0.81641 0.74593 0.70296 0.0
C2999 C 0.80529 0.75498 0.71335 0.0
C3000 C 0.82855 0.73434 0.71127 0.0
C3001 C 0.82834 0.73982 0.67358 0.0
C3002 C 0.82866 0.717 0.70758 0.0
C3003 C 0.83925 0.70607 0.71656 0.0
C3004 C 0.8497 0.71227 0.72955 0.0
C3005 C 0.8497 0.72965 0.73309 0.0
C3006 C 0.83926 0.74058 0.724 0.0
H3007 H 0.82943 0.74629 0.66116 0.0
H3008 H 0.84113 0.73882 0.67928 0.0
H3009 H 0.82357 0.72682 0.6713 0.0
H3010 H 0.82023 0.71184 0.69811 0.0
H3011 H 0.83889 0.69269 0.71366 0.0
H3012 H 0.28615 0.67185 0.33456 0.0
H3013 H 0.30094 0.6989 0.33813 0.0
H3014 H 0.27673 0.71792 0.29308 0.0
H3015 H 0.26184 0.69131 0.28973 0.0
H3016 H 0.32359 0.70763 0.3155 0.0
H3017 H 0.27884 0.76041 0.31985 0.0
H3018 H 0.27257 0.73893 0.32447 0.0
H3019 H 0.27201 0.74686 0.30307 0.0
C3020 C 0.28342 0.68211 0.32591 0.0
C3021 C 0.27304 0.67946 0.31175 0.0
C3022 C 0.29193 0.69753 0.32791 0.0
C3023 C 0.28995 0.7105 0.3159 0.0
C3024 C 0.27826 0.70833 0.30273 0.0
H3025 H 0.35704 0.76203 0.25471 0.0
H3026 H 0.34137 0.7422 0.27251 0.0
C3027 C 0.26985 0.693 0.30071 0.0
C3028 C 0.30225 0.72462 0.31477 0.0
H3029 H 0.30442 0.76587 0.30247 0.0
C3030 C 0.31945 0.7205 0.31318 0.0
C3031 C 0.29705 0.74151 0.31208 0.0
C3032 C 0.27911 0.74717 0.31517 0.0
C3033 C 0.33122 0.73236 0.30725 0.0
C3034 C 0.32554 0.7486 0.3024 0.0
C3035 C 0.30873 0.75326 0.30571 0.0
C3036 C 0.3363 0.7603 0.29244 0.0
C3037 C 0.3495 0.72715 0.30569 0.0
C3038 C 0.33841 0.77714 0.29755 0.0
C3039 C 0.34714 0.78854 0.28726 0.0
C3040 C 0.35389 0.78331 0.27166 0.0
C3041 C 0.3521 0.76638 0.26672 0.0
C3042 C 0.34326 0.75501 0.27696 0.0
H3043 H 0.35284 0.71757 0.3154 0.0
H3044 H 0.35157 0.72131 0.2931 0.0
H3045 H 0.35813 0.73814 0.30702 0.0
H3046 H 0.33307 0.78154 0.30937 0.0
H3047 H 0.34834 0.80154 0.29142 0.0
H3048 H 0.44386 0.10471 0.53869 0.0
H3049 H 0.46375 0.08971 0.55693 0.0
H3050 H 0.50298 0.09645 0.51962 0.0
H3051 H 0.48322 0.11183 0.50147 0.0
H3052 H 0.47878 0.0605 0.55004 0.0
H3053 H 0.52794 0.10829 0.56241 0.0
H3054 H 0.5074 0.11381 0.55411 0.0
H3055 H 0.52399 0.10676 0.54016 0.0
C3056 C 0.45682 0.10325 0.53449 0.0
C3057 C 0.46202 0.10941 0.51864 0.0
C3058 C 0.46815 0.09468 0.54495 0.0
C3059 C 0.4849 0.09215 0.53977 0.0
C3060 C 0.49022 0.09864 0.52409 0.0
H3061 H 0.55313 0.01649 0.53922 0.0
H3062 H 0.52678 0.03207 0.54145 0.0
C3063 C 0.47891 0.10732 0.51366 0.0
C3064 C 0.4964 0.08133 0.54985 0.0
H3065 H 0.5372 0.07889 0.56331 0.0
C3066 C 0.49143 0.06463 0.55333 0.0
C3067 C 0.51269 0.08681 0.5547 0.0
C3068 C 0.51823 0.10497 0.55283 0.0
C3069 C 0.50292 0.05285 0.55994 0.0
C3070 C 0.51985 0.05784 0.56276 0.0
C3071 C 0.52429 0.07494 0.56092 0.0
C3072 C 0.5337 0.04534 0.5644 0.0
C3073 C 0.49697 0.03503 0.56316 0.0
C3074 C 0.54626 0.04718 0.57683 0.0
C3075 C 0.56151 0.03828 0.5755 0.0
C3076 C 0.56442 0.02765 0.56156 0.0
C3077 C 0.55125 0.0247 0.55003 0.0
C3078 C 0.53608 0.0335 0.5514 0.0
H3079 H 0.48359 0.03496 0.56744 0.0
H3080 H 0.49758 0.02772 0.5512 0.0
H3081 H 0.50486 0.02857 0.57281 0.0
H3082 H 0.54472 0.05632 0.58691 0.0
H3083 H 0.57148 0.04082 0.58453 0.0
H3084 H 0.214 0.32148 0.83044 0.0
H3085 H 0.20187 0.29315 0.83388 0.0
H3086 H 0.22275 0.2785 0.78564 0.0
H3087 H 0.23511 0.30637 0.78239 0.0
H3088 H 0.17784 0.28356 0.81329 0.0
H3089 H 0.22693 0.23472 0.80998 0.0
H3090 H 0.23189 0.25642 0.81517 0.0
H3091 H 0.23084 0.24961 0.7934 0.0
C3092 C 0.21657 0.31197 0.82093 0.0
C3093 C 0.22524 0.31619 0.80601 0.0
C3094 C 0.20961 0.2958 0.82289 0.0
C3095 C 0.21142 0.28363 0.81006 0.0
C3096 C 0.22143 0.28746 0.79591 0.0
H3097 H 0.14378 0.23102 0.75191 0.0
H3098 H 0.16013 0.25048 0.76945 0.0
C3099 C 0.22833 0.30353 0.79395 0.0
C3100 C 0.20029 0.26855 0.8094 0.0
H3101 H 0.20018 0.22797 0.79484 0.0
C3102 C 0.18274 0.27124 0.8098 0.0
C3103 C 0.20654 0.25233 0.80519 0.0
C3104 C 0.2251 0.24811 0.80612 0.0
C3105 C 0.17144 0.25876 0.8043 0.0
C3106 C 0.17789 0.24338 0.7979 0.0
C3107 C 0.19526 0.23997 0.79929 0.0
C3108 C 0.16719 0.23163 0.78802 0.0
C3109 C 0.15274 0.26248 0.80468 0.0
C3110 C 0.16604 0.2145 0.79242 0.0
C3111 C 0.15681 0.20332 0.78232 0.0
C3112 C 0.14869 0.20909 0.76757 0.0
C3113 C 0.14979 0.22625 0.76324 0.0
C3114 C 0.15903 0.2374 0.77334 0.0
H3115 H 0.14958 0.27135 0.8151 0.0
H3116 H 0.149 0.26858 0.79262 0.0
H3117 H 0.1452 0.25074 0.80629 0.0
H3118 H 0.17239 0.20976 0.8036 0.0
H3119 H 0.15622 0.19013 0.78595 0.0
H3120 H 0.44154 0.48099 0.53363 0.0
H3121 H 0.46827 0.46653 0.53768 0.0
H3122 H 0.45089 0.4473 0.58569 0.0
H3123 H 0.42355 0.46139 0.58135 0.0
H3124 H 0.49404 0.46362 0.55983 0.0
H3125 H 0.4558 0.40432 0.55855 0.0
H3126 H 0.44635 0.42467 0.55464 0.0
H3127 H 0.45235 0.41875 0.57574 0.0
C3128 C 0.44349 0.47398 0.54524 0.0
C3129 C 0.43028 0.4719 0.55693 0.0
C3130 C 0.45885 0.46579 0.5476 0.0
C3131 C 0.4614 0.45539 0.56173 0.0
C3132 C 0.44899 0.45488 0.57445 0.0
H3133 H 0.55532 0.39896 0.54021 0.0
H3134 H 0.53502 0.414 0.55808 0.0
C3135 C 0.43345 0.46307 0.57204 0.0
C3136 C 0.47585 0.44346 0.56138 0.0
H3137 H 0.48441 0.40213 0.55232 0.0
C3138 C 0.49209 0.4501 0.55863 0.0
C3139 C 0.4732 0.42581 0.55977 0.0
C3140 C 0.45601 0.41788 0.56223 0.0
C3141 C 0.50533 0.43987 0.5527 0.0
C3142 C 0.50231 0.42243 0.54998 0.0
C3143 C 0.48657 0.41553 0.55431 0.0
C3144 C 0.5143 0.41173 0.54036 0.0
C3145 C 0.52191 0.4481 0.54804 0.0
C3146 C 0.50917 0.40473 0.52485 0.0
C3147 C 0.52064 0.39588 0.51477 0.0
C3148 C 0.53748 0.39401 0.51996 0.0
C3149 C 0.54244 0.40041 0.5358 0.0
C3150 C 0.5309 0.40908 0.54599 0.0
H3151 H 0.5211 0.46212 0.54816 0.0
H3152 H 0.53175 0.44426 0.55726 0.0
H3153 H 0.52607 0.444 0.53527 0.0
H3154 H 0.49639 0.40659 0.52028 0.0
H3155 H 0.51645 0.39104 0.50267 0.0
H3156 H 0.65761 0.30773 0.21279 0.0
H3157 H 0.67086 0.2867 0.19423 0.0
H3158 H 0.64985 0.24666 0.22472 0.0
H3159 H 0.63667 0.26751 0.24329 0.0
H3160 H 0.69445 0.26173 0.20474 0.0
H3161 H 0.63807 0.23242 0.17586 0.0
H3162 H 0.63769 0.25325 0.18528 0.0
H3163 H 0.63573 0.23468 0.19831 0.0
C3164 C 0.6557 0.29443 0.21543 0.0
C3165 C 0.64609 0.28922 0.22947 0.0
C3166 C 0.66324 0.28247 0.20479 0.0
C3167 C 0.66103 0.26516 0.20791 0.0
C3168 C 0.65135 0.25997 0.22186 0.0
H3169 H 0.69617 0.17313 0.21455 0.0
H3170 H 0.68372 0.20104 0.21187 0.0
C3171 C 0.64395 0.27188 0.23255 0.0
C3172 C 0.6699 0.25229 0.19767 0.0
H3173 H 0.66269 0.21402 0.17926 0.0
C3174 C 0.6876 0.25158 0.19856 0.0
C3175 C 0.66095 0.23923 0.1894 0.0
C3176 C 0.64206 0.24001 0.18698 0.0
C3177 C 0.69638 0.23712 0.19319 0.0
C3178 C 0.68716 0.22322 0.18684 0.0
C3179 C 0.6697 0.22473 0.18421 0.0
C3180 C 0.69446 0.20609 0.18726 0.0
C3181 C 0.7152 0.23604 0.19592 0.0
C3182 C 0.70454 0.19968 0.17414 0.0
C3183 C 0.71174 0.18351 0.1756 0.0
C3184 C 0.70902 0.17377 0.19026 0.0
C3185 C 0.6987 0.18031 0.20316 0.0
C3186 C 0.69149 0.19625 0.20164 0.0
H3187 H 0.72079 0.24852 0.19918 0.0
H3188 H 0.71788 0.22706 0.20638 0.0
H3189 H 0.72148 0.23112 0.18437 0.0
H3190 H 0.70695 0.2072 0.16296 0.0
H3191 H 0.71965 0.1788 0.16546 0.0
H3192 H 0.47827 0.89348 -0.00078 0.0
H3193 H 0.49784 0.90994 0.98186 0.0
H3194 H 0.45931 0.91602 0.94376 0.0
H3195 H 0.4395 0.89986 0.96125 0.0
H3196 H 0.50936 0.90427 0.94898 0.0
H3197 H 0.47357 0.96478 0.95361 0.0
H3198 H 0.46903 0.94696 0.96712 0.0
H3199 H 0.46251 0.94671 0.94539 0.0
C3200 C 0.47397 0.89829 0.98714 0.0
C3201 C 0.45734 0.89549 0.98164 0.0
C3202 C 0.48516 0.90765 0.97721 0.0
C3203 C 0.47995 0.91436 0.96162 0.0
C3204 C 0.46348 0.91122 0.95588 0.0
H3205 H 0.56918 0.96242 0.91526 0.0
H3206 H 0.54141 0.94863 0.91317 0.0
C3207 C 0.45223 0.90192 0.96586 0.0
C3208 C 0.49188 0.92488 0.95175 0.0
H3209 H 0.50052 0.96588 0.94142 0.0
C3210 C 0.50736 0.91769 0.94697 0.0
C3211 C 0.48907 0.94234 0.94905 0.0
C3212 C 0.47271 0.95076 0.95411 0.0
C3213 C 0.52066 0.9277 0.94088 0.0
C3214 C 0.51825 0.94538 0.93921 0.0
C3215 C 0.50228 0.95233 0.94264 0.0
C3216 C 0.53289 0.95699 0.9378 0.0
C3217 C 0.53759 0.91946 0.93773 0.0
C3218 C 0.5367 0.96731 0.95169 0.0
C3219 C 0.55234 0.97527 0.95283 0.0
C3220 C 0.56453 0.97305 0.9401 0.0
C3221 C 0.56007 0.96422 0.92533 0.0
C3222 C 0.54428 0.95623 0.92418 0.0
H3223 H 0.53775 0.90595 0.94156 0.0
H3224 H 0.54064 0.92013 0.92405 0.0
H3225 H 0.54771 0.92618 0.94477 0.0
H3226 H 0.52807 0.9682 0.9623 0.0
H3227 H 0.55529 0.98227 0.96423 0.0
H3228 H 0.05516 0.08722 0.46495 0.0
H3229 H 0.0349 0.06955 0.44973 0.0
H3230 H 0.9939 0.09337 0.47671 0.0
H3231 H 0.01417 0.11065 0.49242 0.0
H3232 H 0.99241 0.05994 0.47862 0.0
H3233 H 0.00212 0.07819 0.41157 0.0
H3234 H 0.02101 0.07159 0.42227 0.0
H3235 H 0.01032 0.09051 0.42895 0.0
C3236 C 0.0418 0.08885 0.46746 0.0
C3237 C 0.03619 0.10026 0.4799 0.0
C3238 C 0.03024 0.07884 0.45864 0.0
C3239 C 0.01288 0.08031 0.46189 0.0
C3240 C 0.00726 0.09209 0.47396 0.0
H3241 H 0.92139 0.0451 0.42123 0.0
H3242 H 0.94932 0.05826 0.42284 0.0
C3243 C 0.01882 0.10192 0.48294 0.0
C3244 C 0.00063 0.06846 0.45414 0.0
H3245 H 0.98397 0.05477 0.41669 0.0
C3246 C 0.9906 0.0588 0.46508 0.0
C3247 C -0.00165 0.06697 0.43645 0.0
C3248 C 0.0084 0.07747 0.4241 0.0
C3249 C 0.97795 0.04809 0.45894 0.0
C3250 C 0.9757 0.04643 0.44124 0.0
C3251 C 0.98596 0.05583 0.43022 0.0
C3252 C 0.96136 0.03656 0.43438 0.0
C3253 C 0.96657 0.03937 0.47159 0.0
C3254 C 0.9593 0.0195 0.43888 0.0
C3255 C 0.94327 0.01215 0.43835 0.0
C3256 C 0.92938 0.02155 0.43262 0.0
C3257 C 0.93201 0.0376 0.42555 0.0
C3258 C 0.94796 0.04513 0.42651 0.0
H3259 H 0.96769 0.04496 0.48443 0.0
H3260 H 0.95313 0.04014 0.46763 0.0
H3261 H 0.97015 0.02584 0.47251 0.0
H3262 H 0.96962 0.01256 0.4446 0.0
H3263 H 0.94143 -0.00024 0.44393 0.0
H3264 H 0.14305 0.42559 0.46567 0.0
H3265 H 0.15613 0.3986 0.45794 0.0
H3266 H 0.14914 0.41031 0.40515 0.0
H3267 H 0.13664 0.43739 0.41268 0.0
H3268 H 0.14341 0.37228 0.44172 0.0
H3269 H 0.19759 0.39616 0.40474 0.0
H3270 H 0.18482 0.40982 0.4178 0.0
H3271 H 0.17809 0.40441 0.39671 0.0
C3272 C 0.14447 0.4225 0.45241 0.0
C3273 C 0.13891 0.43375 0.43981 0.0
C3274 C 0.15195 0.40706 0.44801 0.0
C3275 C 0.15397 0.40256 0.43094 0.0
C3276 C 0.14825 0.4137 0.41838 0.0
H3277 H 0.15849 0.30423 0.38618 0.0
H3278 H 0.15092 0.3308 0.39971 0.0
C3279 C 0.14097 0.42918 0.42274 0.0
C3280 C 0.16119 0.38587 0.42618 0.0
H3281 H 0.18973 0.36714 0.39976 0.0
C3282 C 0.15371 0.37116 0.43273 0.0
C3283 C 0.17486 0.38434 0.41471 0.0
C3284 C 0.18441 0.39954 0.40825 0.0
C3285 C 0.15897 0.35501 0.42753 0.0
C3286 C 0.17174 0.35354 0.41506 0.0
C3287 C 0.17977 0.36823 0.40912 0.0
C3288 C 0.17644 0.33701 0.40742 0.0
C3289 C 0.15078 0.33974 0.4355 0.0
C3290 C 0.19341 0.33182 0.40672 0.0
C3291 C 0.19787 0.31671 0.39864 0.0
C3292 C 0.18542 0.30645 0.39116 0.0
C3293 C 0.16842 0.31167 0.39198 0.0
C3294 C 0.16402 0.32684 0.39985 0.0
H3295 H 0.14613 0.34264 0.44844 0.0
H3296 H 0.1397 0.33589 0.4278 0.0
H3297 H 0.15968 0.32891 0.43626 0.0
H3298 H 0.20324 0.33952 0.41235 0.0
H3299 H 0.21107 0.31309 0.39824 0.0
H3300 H 0.94405 0.91236 0.64957 0.0
H3301 H 0.91695 0.90355 0.6614 0.0
H3302 H 0.89513 0.95157 0.64777 0.0
H3303 H 0.92225 0.96063 0.63588 0.0
H3304 H 0.88639 0.93898 0.68146 0.0
H3305 H 0.87598 0.89188 0.63036 0.0
H3306 H 0.89593 0.89027 0.64111 0.0
H3307 H 0.89133 0.90869 0.62864 0.0
C3308 C 0.93357 0.92115 0.64915 0.0
C3309 C 0.93535 0.93719 0.6416 0.0
C3310 C 0.91806 0.91604 0.6559 0.0
C3311 C 0.904 0.92682 0.65524 0.0
C3312 C 0.90584 0.94306 0.64834 0.0
H3313 H 0.79904 0.89749 0.66464 0.0
H3314 H 0.826 0.9098 0.65615 0.0
C3315 C 0.92136 0.94819 0.64154 0.0
C3316 C 0.88726 0.92086 0.66118 0.0
H3317 H 0.85643 0.89178 0.65299 0.0
C3318 C 0.8798 0.92868 0.67525 0.0
C3319 C 0.87864 0.90755 0.65291 0.0
C3320 C 0.88576 0.89916 0.63733 0.0
C3321 C 0.86401 0.92332 0.68146 0.0
C3322 C 0.85559 0.90974 0.67342 0.0
C3323 C 0.86297 0.90212 0.6592 0.0
C3324 C 0.83898 0.90334 0.67932 0.0
C3325 C 0.85634 0.93237 0.69638 0.0
C3326 C 0.8373 0.89568 0.69524 0.0
C3327 C 0.82185 0.88856 0.70018 0.0
C3328 C 0.80781 0.88892 0.68924 0.0
C3329 C 0.80953 0.89693 0.67342 0.0
C3330 C 0.82495 0.90399 0.66851 0.0
H3331 H 0.86245 0.94482 0.69865 0.0
H3332 H 0.84258 0.93437 0.69447 0.0
H3333 H 0.85802 0.92453 0.70789 0.0
H3334 H 0.84805 0.89479 0.70366 0.0
H3335 H 0.82105 0.88245 0.7124 0.0
H3336 H 0.33776 0.68955 0.88239 0.0
H3337 H 0.34544 0.66244 0.89476 0.0
H3338 H 0.29338 0.6538 0.90855 0.0
H3339 H 0.28543 0.68074 0.89545 0.0
H3340 H 0.3439 0.65075 0.92558 0.0
H3341 H 0.30351 0.61048 0.88477 0.0
H3342 H 0.30668 0.63267 0.88067 0.0
H3343 H 0.29185 0.62594 0.89657 0.0
C3344 C 0.32789 0.68191 0.88803 0.0
C3345 C 0.31094 0.68729 0.88784 0.0
C3346 C 0.33233 0.66638 0.89513 0.0
C3347 C 0.31998 0.65589 0.90238 0.0
C3348 C 0.30308 0.66141 0.90263 0.0
H3349 H 0.35463 0.56884 0.96288 0.0
H3350 H 0.34179 0.59579 0.95464 0.0
C3351 C 0.29857 0.67688 0.89524 0.0
C3352 C 0.32503 0.63929 0.90965 0.0
H3353 H 0.31833 0.59672 0.90672 0.0
C3354 C 0.33828 0.63893 0.92148 0.0
C3355 C 0.31783 0.62384 0.90418 0.0
C3356 C 0.3043 0.62317 0.89073 0.0
C3357 C 0.34478 0.62362 0.92768 0.0
C3358 C 0.3374 0.60818 0.92242 0.0
C3359 C 0.3239 0.60855 0.91087 0.0
C3360 C 0.34423 0.59147 0.92771 0.0
C3361 C 0.36001 0.62417 0.93918 0.0
C3362 C 0.3492 0.57972 0.91538 0.0
C3363 C 0.35616 0.56418 0.92004 0.0
C3364 C 0.35847 0.56007 0.93719 0.0
C3365 C 0.3532 0.5717 0.94957 0.0
C3366 C 0.34596 0.58717 0.94487 0.0
H3367 H 0.36682 0.63642 0.93821 0.0
H3368 H 0.35581 0.62266 0.95248 0.0
H3369 H 0.36901 0.61384 0.93617 0.0
H3370 H 0.34798 0.5827 0.90206 0.0
H3371 H 0.36011 0.55557 0.91015 0.0
H3372 H 0.67809 0.0968 0.20753 0.0
H3373 H 0.65222 0.08316 0.1977 0.0
H3374 H 0.67278 0.08012 0.1473 0.0
H3375 H 0.69861 0.09405 0.15692 0.0
H3376 H 0.64188 0.09421 0.14747 0.0
H3377 H 0.64024 0.03511 0.18491 0.0
H3378 H 0.64286 0.05353 0.19788 0.0
H3379 H 0.65907 0.04788 0.18294 0.0
C3380 C 0.67728 0.09296 0.19442 0.0
C3381 C 0.69044 0.09661 0.18302 0.0
C3382 C 0.66248 0.08505 0.18884 0.0
C3383 C 0.66062 0.08043 0.1718 0.0
C3384 C 0.67396 0.08353 0.16052 0.0
H3385 H 0.5726 0.02697 0.13086 0.0
H3386 H 0.60115 0.03429 0.14035 0.0
C3387 C 0.68872 0.09151 0.16606 0.0
C3388 C 0.6442 0.07389 0.16546 0.0
H3389 H 0.61413 0.04354 0.17192 0.0
C3390 C 0.63591 0.08303 0.15271 0.0
C3391 C 0.63648 0.05918 0.17213 0.0
C3392 C 0.6452 0.04825 0.1851 0.0
C3393 C 0.61989 0.0782 0.14684 0.0
C3394 C 0.61176 0.06405 0.15418 0.0
C3395 C 0.62028 0.05454 0.16649 0.0
C3396 C 0.5943 0.05918 0.14936 0.0
C3397 C 0.61185 0.08828 0.13276 0.0
C3398 C 0.58091 0.07056 0.15173 0.0
C3399 C 0.56462 0.06647 0.1463 0.0
C3400 C 0.56133 0.05081 0.1385 0.0
C3401 C 0.57466 0.03914 0.13678 0.0
C3402 C 0.591 0.0433 0.14218 0.0
H3403 H 0.62145 0.0954 0.12537 0.0
H3404 H 0.6047 0.07996 0.12401 0.0
H3405 H 0.60292 0.09759 0.13828 0.0
H3406 H 0.5831 0.08274 0.15761 0.0
H3407 H 0.55466 0.07571 0.14801 0.0
H3408 H 0.16145 0.6904 0.11267 0.0
H3409 H 0.15367 0.66303 0.10092 0.0
H3410 H 0.20611 0.65251 0.09026 0.0
H3411 H 0.21412 0.67976 0.10259 0.0
H3412 H 0.15707 0.65005 0.0702 0.0
H3413 H 0.19296 0.61066 0.11585 0.0
H3414 H 0.18997 0.63307 0.11875 0.0
H3415 H 0.20584 0.6254 0.10438 0.0
C3416 C 0.17138 0.6823 0.10784 0.0
C3417 C 0.18844 0.68726 0.10868 0.0
C3418 C 0.16689 0.66663 0.1011 0.0
C3419 C 0.17931 0.65557 0.09493 0.0
C3420 C 0.19633 0.66063 0.09534 0.0
H3421 H 0.14738 0.56656 0.03596 0.0
H3422 H 0.16041 0.59347 0.04402 0.0
C3423 C 0.20088 0.67626 0.1023 0.0
C3424 C 0.17423 0.63882 0.08809 0.0
H3425 H 0.17928 0.59628 0.09355 0.0
C3426 C 0.16197 0.63828 0.07526 0.0
C3427 C 0.18049 0.62346 0.09484 0.0
C3428 C 0.19291 0.6231 0.10932 0.0
C3429 C 0.15555 0.62287 0.06922 0.0
C3430 C 0.16198 0.60751 0.07579 0.0
C3431 C 0.17448 0.60805 0.0884 0.0
C3432 C 0.15505 0.5908 0.07073 0.0
C3433 C 0.14141 0.62326 0.05641 0.0
C3434 C 0.14833 0.58001 0.08311 0.0
C3435 C 0.14119 0.56452 0.0786 0.0
C3436 C 0.14049 0.55947 0.06155 0.0
C3437 C 0.14755 0.57013 0.04918 0.0
C3438 C 0.15491 0.58558 0.05376 0.0
H3439 H 0.13504 0.63577 0.05604 0.0
H3440 H 0.14666 0.62075 0.04365 0.0
H3441 H 0.13177 0.61344 0.05923 0.0
H3442 H 0.14832 0.58372 0.0963 0.0
H3443 H 0.13588 0.55668 0.08849 0.0
H3444 H 0.68005 0.89696 0.27937 0.0
H3445 H 0.65337 0.91062 0.28723 0.0
H3446 H 0.66229 0.89799 0.33952 0.0
H3447 H 0.68906 0.8849 0.33193 0.0
H3448 H 0.62558 0.89819 0.30124 0.0
H3449 H 0.65121 0.94708 0.34387 0.0
H3450 H 0.66458 0.93475 0.3301 0.0
H3451 H 0.6581 0.92649 0.35033 0.0
C3452 C 0.67638 0.89723 0.29256 0.0
C3453 C 0.68679 0.88997 0.30503 0.0
C3454 C 0.66114 0.90504 0.29703 0.0
C3455 C 0.656 0.9057 0.31402 0.0
C3456 C 0.66623 0.89818 0.32641 0.0
H3457 H 0.5574 0.91067 0.35717 0.0
H3458 H 0.58351 0.90336 0.34264 0.0
C3459 C 0.68151 0.89056 0.322 0.0
C3460 C 0.63962 0.9135 0.31886 0.0
H3461 H 0.62171 0.94024 0.34759 0.0
C3462 C 0.62474 0.90758 0.3112 0.0
C3463 C 0.63849 0.92606 0.33157 0.0
C3464 C 0.65398 0.93409 0.33929 0.0
C3465 C 0.60876 0.91319 0.31653 0.0
C3466 C 0.60761 0.92465 0.33024 0.0
C3467 C 0.62252 0.93125 0.33727 0.0
C3468 C 0.59119 0.92926 0.33814 0.0
C3469 C 0.59332 0.90675 0.30737 0.0
C3470 C 0.58695 0.94628 0.34094 0.0
C3471 C 0.57213 0.95053 0.34963 0.0
C3472 C 0.56122 0.93783 0.35562 0.0
C3473 C 0.56539 0.92081 0.35256 0.0
C3474 C 0.58029 0.91658 0.3441 0.0
H3475 H 0.59631 0.90355 0.29403 0.0
H3476 H 0.5888 0.89502 0.31362 0.0
H3477 H 0.58293 0.91619 0.3075 0.0
H3478 H 0.59521 0.9563 0.33656 0.0
H3479 H 0.56929 0.96376 0.35175 0.0
H3480 H 0.35526 0.42735 0.52672 0.0
H3481 H 0.34257 0.40007 0.53413 0.0
H3482 H 0.34732 0.4122 0.58707 0.0
H3483 H 0.35944 0.43954 0.57985 0.0
H3484 H 0.35542 0.37414 0.5511 0.0
H3485 H 0.29918 0.39688 0.58562 0.0
H3486 H 0.3121 0.41076 0.57294 0.0
H3487 H 0.31814 0.40569 0.59432 0.0
C3488 C 0.35343 0.42428 0.53994 0.0
C3489 C 0.35826 0.43573 0.55267 0.0
C3490 C 0.34618 0.40868 0.54415 0.0
C3491 C 0.34365 0.40421 0.56116 0.0
C3492 C 0.34862 0.41555 0.57386 0.0
H3493 H 0.33937 0.306 0.60647 0.0
H3494 H 0.34701 0.33266 0.59313 0.0
C3495 C 0.35568 0.43118 0.56968 0.0
C3496 C 0.33666 0.38737 0.56575 0.0
H3497 H 0.30748 0.36809 0.59106 0.0
C3498 C 0.34478 0.37281 0.55965 0.0
C3499 C 0.32257 0.38557 0.57665 0.0
C3500 C 0.31239 0.40057 0.5826 0.0
C3501 C 0.3397 0.35657 0.56474 0.0
C3502 C 0.32644 0.35485 0.57665 0.0
C3503 C 0.31781 0.36937 0.58213 0.0
C3504 C 0.32177 0.33825 0.58415 0.0
C3505 C 0.34862 0.34146 0.55726 0.0
C3506 C 0.3049 0.33268 0.58404 0.0
C3507 C 0.30039 0.31751 0.59199 0.0
C3508 C 0.31268 0.30759 0.60017 0.0
C3509 C 0.32958 0.31318 0.60014 0.0
C3510 C 0.33402 0.32841 0.59237 0.0
H3511 H 0.35382 0.3444 0.54455 0.0
H3512 H 0.35938 0.33789 0.56552 0.0
H3513 H 0.34 0.33043 0.55614 0.0
H3514 H 0.29519 0.34012 0.57788 0.0
H3515 H 0.28727 0.3136 0.59177 0.0
H3516 H 0.94266 0.08966 0.84966 0.0
H3517 H 0.91601 0.09788 0.83649 0.0
H3518 H 0.89557 0.04833 0.84638 0.0
H3519 H 0.92225 0.03986 0.85958 0.0
H3520 H 0.88864 0.06227 0.8127 0.0
H3521 H 0.87258 0.10605 0.8653 0.0
H3522 H 0.89309 0.10907 0.85599 0.0
H3523 H 0.88856 0.08987 0.86724 0.0
C3524 C 0.93258 0.08042 0.84899 0.0
C3525 C 0.9346 0.06411 0.85586 0.0
C3526 C 0.91733 0.08518 0.84147 0.0
C3527 C 0.90379 0.07378 0.84067 0.0
C3528 C 0.90589 0.05732 0.84693 0.0
H3529 H 0.79837 0.09778 0.8273 0.0
H3530 H 0.82563 0.08658 0.83626 0.0
C3531 C 0.92115 0.05253 0.8545 0.0
C3532 C 0.88724 0.07927 0.83389 0.0
H3533 H 0.8544 0.10616 0.84161 0.0
C3534 C 0.88111 0.07185 0.81899 0.0
C3535 C 0.87743 0.09165 0.84226 0.0
C3536 C 0.88312 0.09956 0.85866 0.0
C3537 C 0.86545 0.07665 0.8121 0.0
C3538 C 0.85579 0.08926 0.82032 0.0
C3539 C 0.86188 0.09656 0.8353 0.0
C3540 C 0.83908 0.09485 0.81394 0.0
C3541 C 0.85921 0.06801 0.7963 0.0
C3542 C 0.83756 0.10311 0.7983 0.0
C3543 C 0.82192 0.10955 0.79308 0.0
C3544 C 0.80757 0.10796 0.80348 0.0
C3545 C 0.80913 0.09933 0.81897 0.0
C3546 C 0.82472 0.09289 0.82414 0.0
H3547 H 0.86619 0.05609 0.79376 0.0
H3548 H 0.84551 0.0651 0.79729 0.0
H3549 H 0.86105 0.07656 0.78534 0.0
H3550 H 0.84856 0.10502 0.79037 0.0
H3551 H 0.82121 0.1162 0.78113 0.0
H3552 H 0.41134 0.14573 0.4431 0.0
H3553 H 0.40208 0.15673 0.41586 0.0
H3554 H 0.45206 0.14914 0.39552 0.0
H3555 H 0.46161 0.13817 0.42289 0.0
H3556 H 0.43673 0.18084 0.38661 0.0
H3557 H 0.39437 0.12623 0.37426 0.0
H3558 H 0.39083 0.13649 0.3942 0.0
H3559 H 0.41053 0.12584 0.39036 0.0
C3560 C 0.42045 0.1464 0.43289 0.0
C3561 C 0.43722 0.14088 0.43519 0.0
C3562 C 0.41508 0.15266 0.41729 0.0
C3563 C 0.4263 0.15347 0.40361 0.0
C3564 C 0.44318 0.14852 0.40593 0.0
H3565 H 0.39615 0.16294 0.2988 0.0
H3566 H 0.40902 0.15459 0.32552 0.0
C3567 C 0.4486 0.14224 0.42158 0.0
C3568 C 0.42024 0.15918 0.38682 0.0
H3569 H 0.39207 0.14959 0.35558 0.0
C3570 C 0.42702 0.17399 0.37977 0.0
C3571 C 0.4077 0.15011 0.37786 0.0
C3572 C 0.40052 0.1337 0.38445 0.0
C3573 C 0.42132 0.18017 0.3641 0.0
C3574 C 0.40841 0.17137 0.3554 0.0
C3575 C 0.40187 0.15639 0.36233 0.0
C3576 C 0.40159 0.17723 0.33894 0.0
C3577 C 0.42931 0.19591 0.35689 0.0
C3578 C 0.39317 0.1928 0.33756 0.0
C3579 C 0.38578 0.19768 0.32223 0.0
C3580 C 0.38655 0.18699 0.30803 0.0
C3581 C 0.39524 0.17151 0.30944 0.0
C3582 C 0.40262 0.16669 0.32473 0.0
H3583 H 0.4417 0.19869 0.3629 0.0
H3584 H 0.43119 0.19468 0.34303 0.0
H3585 H 0.42083 0.20685 0.35918 0.0
H3586 H 0.39194 0.201 0.34846 0.0
H3587 H 0.37911 0.20963 0.32166 0.0
H3588 H 0.0377 0.1335 0.57353 0.0
H3589 H 0.0471 0.14644 0.60003 0.0
H3590 H 0.09493 0.159 0.5771 0.0
H3591 H 0.08581 0.14605 0.55069 0.0
H3592 H 0.09797 0.14202 0.6077 0.0
H3593 H 0.05392 0.19643 0.61318 0.0
H3594 H 0.04393 0.17634 0.60957 0.0
H3595 H 0.05733 0.18526 0.59355 0.0
C3596 C 0.05014 0.1392 0.57404 0.0
C3597 C 0.061 0.13866 0.55995 0.0
C3598 C 0.05546 0.14667 0.58919 0.0
C3599 C 0.07165 0.15382 0.59047 0.0
C3600 C 0.08237 0.15359 0.57636 0.0
H3601 H 0.1173 0.21098 0.67303 0.0
H3602 H 0.10502 0.20232 0.64592 0.0
C3603 C 0.0771 0.14615 0.56125 0.0
C3604 C 0.07798 0.16047 0.60681 0.0
H3605 H 0.07109 0.19046 0.63714 0.0
C3606 C 0.09213 0.15264 0.61411 0.0
C3607 C 0.07043 0.17444 0.61505 0.0
C3608 C 0.05565 0.18374 0.60741 0.0
C3609 C 0.09878 0.15822 0.62956 0.0
C3610 C 0.09093 0.17185 0.63806 0.0
C3611 C 0.07698 0.17992 0.63064 0.0
C3612 C 0.09706 0.1777 0.65475 0.0
C3613 C 0.11426 0.14957 0.6366 0.0
C3614 C 0.09621 0.16689 0.66876 0.0
C3615 C 0.1032 0.17174 0.68421 0.0
C3616 C 0.11114 0.18758 0.68601 0.0
C3617 C 0.11134 0.19869 0.6721 0.0
C3618 C 0.10433 0.19378 0.6566 0.0
H3619 H 0.12106 0.1422 0.62676 0.0
H3620 H 0.12313 0.15892 0.64216 0.0
H3621 H 0.11037 0.14069 0.64674 0.0
H3622 H 0.0904 0.15453 0.66765 0.0
H3623 H 0.10262 0.16291 0.69466 0.0
H3624 H 0.03802 0.85153 0.93296 0.0
H3625 H 0.04606 0.83695 0.90687 0.0
H3626 H 0.09846 0.84871 0.91642 0.0
H3627 H 0.09063 0.86265 0.94272 0.0
H3628 H 0.05998 0.84892 0.87952 0.0
H3629 H 0.10285 0.8 0.90476 0.0
H3630 H 0.08939 0.8125 0.91829 0.0
H3631 H 0.10953 0.82062 0.91133 0.0
C3632 C 0.05128 0.85083 0.9296 0.0
C3633 C 0.06368 0.85819 0.94 0.0
C3634 C 0.05586 0.84248 0.91468 0.0
C3635 C 0.07292 0.84141 0.9098 0.0
C3636 C 0.08528 0.84884 0.92013 0.0
H3637 H 0.11285 0.83464 0.80949 0.0
H3638 H 0.10075 0.84261 0.83663 0.0
C3639 C 0.08075 0.85695 0.93514 0.0
C3640 C 0.07772 0.83358 0.89339 0.0
H3641 H 0.10587 0.80642 0.87508 0.0
C3642 C 0.06985 0.83944 0.87859 0.0
C3643 C 0.09037 0.82096 0.89211 0.0
C3644 C 0.09837 0.81303 0.90751 0.0
C3645 C 0.07477 0.83361 0.86257 0.0
C3646 C 0.08833 0.822 0.86124 0.0
C3647 C 0.09567 0.81554 0.87605 0.0
C3648 C 0.09553 0.81695 0.84463 0.0
C3649 C 0.06533 0.83997 0.84726 0.0
C3650 C 0.09723 0.79981 0.84027 0.0
C3651 C 0.10447 0.79516 0.8248 0.0
C3652 C 0.1101 0.80758 0.81336 0.0
C3653 C 0.10844 0.82472 0.81784 0.0
C3654 C 0.1014 0.82933 0.83335 0.0
H3655 H 0.0522 0.84369 0.85056 0.0
H3656 H 0.07182 0.85136 0.84223 0.0
H3657 H 0.06483 0.83027 0.83713 0.0
H3658 H 0.09292 0.79003 0.84884 0.0
H3659 H 0.10559 0.78185 0.82178 0.0
H3660 H 0.46065 0.85443 0.07069 0.0
H3661 H 0.45333 0.84014 0.09717 0.0
H3662 H 0.40034 0.84677 0.08613 0.0
H3663 H 0.4075 0.86039 0.05947 0.0
H3664 H 0.43768 0.85119 0.12397 0.0
H3665 H 0.40019 0.79809 0.09865 0.0
H3666 H 0.41282 0.81152 0.08522 0.0
H3667 H 0.39183 0.81786 0.09144 0.0
C3668 C 0.44744 0.85268 0.07383 0.0
C3669 C 0.43467 0.85843 0.06288 0.0
C3670 C 0.44327 0.8445 0.08897 0.0
C3671 C 0.42627 0.842 0.09351 0.0
C3672 C 0.41353 0.84798 0.08269 0.0
H3673 H 0.38421 0.83384 0.19269 0.0
H3674 H 0.39662 0.84219 0.16584 0.0
C3675 C 0.41767 0.85591 0.06747 0.0
C3676 C 0.42177 0.83407 0.10996 0.0
H3677 H 0.39567 0.8048 0.12806 0.0
C3678 C 0.42868 0.84088 0.12483 0.0
C3679 C 0.41031 0.82036 0.11117 0.0
C3680 C 0.40353 0.81142 0.09574 0.0
C3681 C 0.42385 0.83491 0.14084 0.0
C3682 C 0.41133 0.82215 0.14205 0.0
C3683 C 0.40505 0.81478 0.12718 0.0
C3684 C 0.40402 0.81687 0.15855 0.0
C3685 C 0.43226 0.84236 0.15625 0.0
C3686 C 0.40341 0.79972 0.1632 0.0
C3687 C 0.39596 0.79482 0.17851 0.0
C3688 C 0.38904 0.80699 0.18948 0.0
C3689 C 0.38963 0.82413 0.18471 0.0
C3690 C 0.39686 0.82897 0.16937 0.0
H3691 H 0.44517 0.84702 0.15324 0.0
H3692 H 0.42476 0.85332 0.16077 0.0
H3693 H 0.43321 0.83298 0.16665 0.0
H3694 H 0.40872 0.79013 0.15499 0.0
H3695 H 0.39568 0.78152 0.18177 0.0
H3696 H 0.44098 0.40833 0.13326 0.0
H3697 H 0.41363 0.39967 0.14449 0.0
H3698 H 0.40261 0.45138 0.15791 0.0
H3699 H 0.4298 0.46029 0.14611 0.0
H3700 H 0.40053 0.40123 0.17524 0.0
H3701 H 0.36092 0.4393 0.13169 0.0
H3702 H 0.38335 0.43666 0.12864 0.0
H3703 H 0.37553 0.4518 0.14372 0.0
C3704 C 0.43276 0.41791 0.13858 0.0
C3705 C 0.43756 0.43505 0.13867 0.0
C3706 C 0.41711 0.41291 0.14501 0.0
C3707 C 0.40591 0.42489 0.1518 0.0
C3708 C 0.41082 0.44196 0.15233 0.0
H3709 H 0.31787 0.39319 0.21163 0.0
H3710 H 0.34518 0.40487 0.2029 0.0
C3711 C 0.42642 0.44702 0.14567 0.0
C3712 C 0.38921 0.41936 0.15837 0.0
H3713 H 0.34667 0.42516 0.1539 0.0
C3714 C 0.38874 0.40647 0.17058 0.0
C3715 C 0.37382 0.42603 0.15211 0.0
C3716 C 0.37337 0.43908 0.1382 0.0
C3717 C 0.37336 0.39998 0.17663 0.0
C3718 C 0.35798 0.40697 0.1707 0.0
C3719 C 0.35845 0.41993 0.15857 0.0
C3720 C 0.34125 0.40042 0.17618 0.0
C3721 C 0.37377 0.38529 0.18881 0.0
C3722 C 0.32969 0.3946 0.16405 0.0
C3723 C 0.31398 0.38823 0.16896 0.0
C3724 C 0.30949 0.38743 0.18616 0.0
C3725 C 0.32099 0.39346 0.1983 0.0
C3726 C 0.33666 0.40004 0.19334 0.0
H3727 H 0.38607 0.37853 0.18838 0.0
H3728 H 0.37195 0.39007 0.20186 0.0
H3729 H 0.36353 0.3761 0.18601 0.0
H3730 H 0.33291 0.39478 0.15074 0.0
H3731 H 0.30548 0.38367 0.15925 0.0
H3732 H 0.85524 0.92807 0.0293 0.0
H3733 H 0.84166 0.90113 0.03633 0.0
H3734 H 0.84565 0.91296 0.08941 0.0
H3735 H 0.85858 0.94003 0.08252 0.0
H3736 H 0.85329 0.87491 0.05294 0.0
H3737 H 0.79747 0.89855 0.08749 0.0
H3738 H 0.81088 0.91233 0.07522 0.0
H3739 H 0.81652 0.90674 0.09659 0.0
C3740 C 0.85304 0.92501 0.04246 0.0
C3741 C 0.85787 0.93629 0.05533 0.0
C3742 C 0.84528 0.9096 0.04646 0.0
C3743 C 0.84228 0.90514 0.06339 0.0
C3744 C 0.84727 0.91632 0.07624 0.0
H3745 H 0.83597 0.80644 0.10715 0.0
H3746 H 0.84405 0.83317 0.09423 0.0
C3747 C 0.8548 0.93178 0.07226 0.0
C3748 C 0.83485 0.88843 0.06777 0.0
H3749 H 0.8052 0.86953 0.09283 0.0
C3750 C 0.84261 0.87375 0.06147 0.0
C3751 C 0.82069 0.88683 0.07861 0.0
C3752 C 0.81081 0.90197 0.0847 0.0
C3753 C 0.83712 0.85758 0.06633 0.0
C3754 C 0.82384 0.85603 0.07825 0.0
C3755 C 0.81556 0.87068 0.08391 0.0
C3756 C 0.81885 0.83945 0.0856 0.0
C3757 C 0.84562 0.84236 0.05859 0.0
C3758 C 0.80186 0.83426 0.0856 0.0
C3759 C 0.7971 0.81906 0.09334 0.0
C3760 C 0.80927 0.80872 0.10116 0.0
C3761 C 0.82628 0.81394 0.10106 0.0
C3762 C 0.83097 0.82921 0.09354 0.0
H3763 H 0.85076 0.84534 0.04586 0.0
H3764 H 0.8564 0.83847 0.06668 0.0
H3765 H 0.83676 0.83153 0.05742 0.0
H3766 H 0.79225 0.84201 0.07967 0.0
H3767 H 0.7839 0.81543 0.0932 0.0
H3768 H 0.19147 0.60897 0.65777 0.0
H3769 H 0.16404 0.59762 0.64958 0.0
H3770 H 0.1541 0.58375 0.70137 0.0
H3771 H 0.18138 0.59565 0.70983 0.0
H3772 H 0.15055 0.56688 0.65124 0.0
H3773 H 0.11255 0.61087 0.69048 0.0
H3774 H 0.13494 0.61362 0.68726 0.0
H3775 H 0.12731 0.59851 0.70247 0.0
C3776 C 0.1835 0.60349 0.66747 0.0
C3777 C 0.1886 0.60336 0.68451 0.0
C3778 C 0.16779 0.59698 0.66274 0.0
C3779 C 0.15685 0.59011 0.67489 0.0
C3780 C 0.16212 0.58941 0.69183 0.0
H3781 H 0.06677 0.53283 0.6439 0.0
H3782 H 0.09437 0.54062 0.65553 0.0
C3783 C 0.17778 0.59611 0.69663 0.0
C3784 C 0.13992 0.58383 0.6697 0.0
H3785 H 0.09759 0.58928 0.67622 0.0
C3786 C 0.13896 0.57174 0.65673 0.0
C3787 C 0.1248 0.59038 0.67669 0.0
C3788 C 0.12488 0.60418 0.68987 0.0
C3789 C 0.12333 0.56613 0.65045 0.0
C3790 C 0.10821 0.57238 0.65771 0.0
C3791 C 0.10918 0.58435 0.67078 0.0
C3792 C 0.09126 0.56748 0.65128 0.0
C3793 C 0.12321 0.55406 0.63566 0.0
C3794 C 0.08006 0.58002 0.64562 0.0
C3795 C 0.06418 0.57565 0.63927 0.0
C3796 C 0.05916 0.55861 0.63834 0.0
C3797 C 0.07029 0.54606 0.64428 0.0
C3798 C 0.08613 0.55048 0.65083 0.0
H3799 H 0.13546 0.55413 0.62879 0.0
H3800 H 0.12099 0.54103 0.64035 0.0
H3801 H 0.11299 0.55728 0.62659 0.0
H3802 H 0.0837 0.59323 0.64589 0.0
H3803 H 0.05598 0.58567 0.6348 0.0
H3804 H 0.6356 0.9261 0.9618 0.0
H3805 H 0.64826 0.89945 0.95242 0.0
H3806 H 0.65625 0.92058 0.90281 0.0
H3807 H 0.64352 0.94712 0.91193 0.0
H3808 H 0.64037 0.88957 0.90207 0.0
H3809 H 0.69769 0.88719 0.94251 0.0
H3810 H 0.67825 0.89038 0.95382 0.0
H3811 H 0.68561 0.90632 0.9394 0.0
C3812 C 0.64022 0.92516 0.94895 0.0
C3813 C 0.63846 0.93878 0.93763 0.0
C3814 C 0.64754 0.90993 0.94364 0.0
C3815 C 0.65335 0.90809 0.92696 0.0
C3816 C 0.65188 0.92174 0.91574 0.0
H3817 H 0.7108 0.82611 0.88098 0.0
H3818 H 0.70158 0.85319 0.89286 0.0
C3819 C 0.64456 0.93691 0.92101 0.0
C3820 C 0.66001 0.89167 0.9208 0.0
H3821 H 0.69129 0.86244 0.92666 0.0
C3822 C 0.65152 0.88366 0.90743 0.0
C3823 C 0.67467 0.88407 0.92768 0.0
C3824 C 0.68471 0.89247 0.94155 0.0
C3825 C 0.65715 0.86817 0.9009 0.0
C3826 C 0.67152 0.86032 0.9081 0.0
C3827 C 0.68019 0.86842 0.92129 0.0
C3828 C 0.67763 0.84368 0.90201 0.0
C3829 C 0.64781 0.86043 0.88617 0.0
C3830 C 0.6674 0.8293 0.90361 0.0
C3831 C 0.67259 0.81383 0.89685 0.0
C3832 C 0.68819 0.8124 0.88838 0.0
C3833 C 0.6987 0.82673 0.88736 0.0
C3834 C 0.69347 0.84223 0.89415 0.0
H3835 H 0.63977 0.86986 0.87955 0.0
H3836 H 0.65677 0.85486 0.87691 0.0
H3837 H 0.63947 0.85017 0.89087 0.0
H3838 H 0.65525 0.8301 0.90989 0.0
H3839 H 0.6642 0.80308 0.89804 0.0
H3840 H 0.84018 0.19055 0.38532 0.0
H3841 H 0.848 0.16314 0.39698 0.0
H3842 H 0.79645 0.155 0.41286 0.0
H3843 H 0.78835 0.18224 0.40058 0.0
H3844 H 0.8474 0.15064 0.42776 0.0
H3845 H 0.80497 0.11222 0.38727 0.0
H3846 H 0.8085 0.13444 0.38363 0.0
H3847 H 0.79394 0.12762 0.39973 0.0
C3848 C 0.83046 0.18296 0.3913 0.0
C3849 C 0.81358 0.18856 0.39189 0.0
C3850 C 0.83497 0.16726 0.39798 0.0
C3851 C 0.82277 0.15682 0.40554 0.0
C3852 C 0.80601 0.16259 0.40666 0.0
H3853 H 0.85557 0.06826 0.46435 0.0
H3854 H 0.84375 0.0957 0.45628 0.0
C3855 C 0.80141 0.17823 0.39974 0.0
C3856 C 0.82779 0.13996 0.4122 0.0
H3857 H 0.81982 0.09765 0.40875 0.0
C3858 C 0.84135 0.13905 0.42362 0.0
C3859 C 0.82005 0.12481 0.40662 0.0
C3860 C 0.80617 0.12475 0.39351 0.0
C3861 C 0.84754 0.12346 0.42945 0.0
C3862 C 0.83954 0.10832 0.42418 0.0
C3863 C 0.82584 0.10925 0.41292 0.0
C3864 C 0.8458 0.09135 0.42933 0.0
C3865 C 0.86302 0.12338 0.44061 0.0
C3866 C 0.85018 0.07945 0.41692 0.0
C3867 C 0.85656 0.06363 0.42149 0.0
C3868 C 0.85885 0.05939 0.43861 0.0
C3869 C 0.85413 0.07119 0.45106 0.0
C3870 C 0.8475 0.08694 0.44646 0.0
H3871 H 0.87025 0.13538 0.43954 0.0
H3872 H 0.85906 0.12195 0.45398 0.0
H3873 H 0.87157 0.11273 0.43735 0.0
H3874 H 0.84895 0.08251 0.40362 0.0
H3875 H 0.86009 0.0549 0.41155 0.0
H3876 H 0.71143 0.18224 0.59577 0.0
H3877 H 0.70321 0.15537 0.58277 0.0
H3878 H 0.65099 0.16548 0.5948 0.0
H3879 H 0.65896 0.19248 0.60722 0.0
H3880 H 0.68912 0.1285 0.5964 0.0
H3881 H 0.64631 0.15185 0.54648 0.0
H3882 H 0.66005 0.16579 0.5582 0.0
H3883 H 0.6399 0.15951 0.56681 0.0
C3884 C 0.69817 0.17882 0.59548 0.0
C3885 C 0.68586 0.1896 0.60245 0.0
C3886 C 0.69349 0.16346 0.58804 0.0
C3887 C 0.67643 0.15853 0.58747 0.0
C3888 C 0.66416 0.16921 0.59455 0.0
H3889 H 0.63493 0.05874 0.58572 0.0
H3890 H 0.64779 0.08589 0.5923 0.0
C3891 C 0.66879 0.18463 0.6018 0.0
C3892 C 0.67149 0.1418 0.58045 0.0
H3893 H 0.64308 0.12254 0.55426 0.0
C3894 C 0.67922 0.12722 0.587 0.0
C3895 C 0.65881 0.14007 0.56793 0.0
C3896 C 0.65094 0.15517 0.55932 0.0
C3897 C 0.67408 0.11099 0.58198 0.0
C3898 C 0.6605 0.10926 0.57045 0.0
C3899 C 0.65332 0.12383 0.56329 0.0
C3900 C 0.65303 0.09252 0.56627 0.0
C3901 C 0.68332 0.09589 0.5891 0.0
C3902 C 0.65112 0.08738 0.54937 0.0
C3903 C 0.64344 0.07189 0.54551 0.0
C3904 C 0.63755 0.06124 0.55849 0.0
C3905 C 0.6395 0.06647 0.57539 0.0
C3906 C 0.64699 0.08199 0.5792 0.0
H3907 H 0.69651 0.09918 0.5926 0.0
H3908 H 0.6768 0.09156 0.60074 0.0
H3909 H 0.68364 0.08525 0.57994 0.0
H3910 H 0.65555 0.09536 0.53917 0.0
H3911 H 0.64211 0.06828 0.53237 0.0
H3912 H 0.05315 0.40551 0.85557 0.0
H3913 H 0.07982 0.39729 0.84257 0.0
H3914 H 0.08927 0.44918 0.82869 0.0
H3915 H 0.06279 0.45768 0.84225 0.0
H3916 H 0.09308 0.39917 0.81156 0.0
H3917 H 0.13097 0.43842 0.8557 0.0
H3918 H 0.10864 0.43495 0.85855 0.0
H3919 H 0.11603 0.4503 0.84347 0.0
C3920 C 0.0608 0.41522 0.84965 0.0
C3921 C 0.05591 0.43232 0.85018 0.0
C3922 C 0.07607 0.41046 0.8422 0.0
C3923 C 0.08675 0.42266 0.835 0.0
C3924 C 0.08147 0.43961 0.83461 0.0
H3925 H 0.17755 0.39179 0.77857 0.0
H3926 H 0.14969 0.40314 0.78583 0.0
C3927 C 0.06627 0.44443 0.84226 0.0
C3928 C 0.10365 0.4176 0.82858 0.0
H3929 H 0.14594 0.42403 0.83432 0.0
C3930 C 0.10466 0.40465 0.81647 0.0
C3931 C 0.11874 0.42456 0.83522 0.0
C3932 C 0.11861 0.4377 0.84907 0.0
C3933 C 0.12032 0.39833 0.81097 0.0
C3934 C 0.1354 0.40553 0.81738 0.0
C3935 C 0.13438 0.41863 0.8293 0.0
C3936 C 0.15239 0.39901 0.81275 0.0
C3937 C 0.12051 0.38356 0.79888 0.0
C3938 C 0.16342 0.39346 0.82549 0.0
C3939 C 0.17944 0.3873 0.82143 0.0
C3940 C 0.18478 0.38643 0.80449 0.0
C3941 C 0.17378 0.39214 0.79173 0.0
C3942 C 0.1578 0.39852 0.79585 0.0
H3943 H 0.10822 0.37675 0.79878 0.0
H3944 H 0.12292 0.38826 0.78589 0.0
H3945 H 0.13064 0.37443 0.80221 0.0
H3946 H 0.15956 0.39374 0.83863 0.0
H3947 H 0.18754 0.38296 0.83159 0.0
H3948 H 0.30479 0.61029 0.33522 0.0
H3949 H 0.33197 0.59823 0.34313 0.0
H3950 H 0.3436 0.58949 0.29057 0.0
H3951 H 0.31655 0.6022 0.28246 0.0
H3952 H 0.34528 0.56797 0.33922 0.0
H3953 H 0.38499 0.61472 0.30513 0.0
H3954 H 0.36251 0.61737 0.30767 0.0
H3955 H 0.37067 0.60341 0.29167 0.0
C3956 C 0.31308 0.6058 0.32529 0.0
C3957 C 0.30851 0.60733 0.30817 0.0
C3958 C 0.32865 0.59888 0.32986 0.0
C3959 C 0.33999 0.59319 0.31746 0.0
C3960 C 0.33527 0.5942 0.30036 0.0
H3961 H 0.42903 0.53434 0.34978 0.0
H3962 H 0.40201 0.54229 0.33689 0.0
C3963 C 0.31975 0.60137 0.29574 0.0
C3964 C 0.35669 0.58631 0.32265 0.0
H3965 H 0.39926 0.5922 0.31852 0.0
C3966 C 0.3571 0.57323 0.33466 0.0
C3967 C 0.37211 0.59332 0.31684 0.0
C3968 C 0.37262 0.60808 0.30475 0.0
C3969 C 0.37242 0.5672 0.34129 0.0
C3970 C 0.38785 0.57403 0.33529 0.0
C3971 C 0.38745 0.58687 0.32302 0.0
C3972 C 0.40449 0.56899 0.34244 0.0
C3973 C 0.37185 0.55414 0.3552 0.0
C3974 C 0.41518 0.58139 0.34927 0.0
C3975 C 0.43074 0.57694 0.35629 0.0
C3976 C 0.43593 0.55994 0.35678 0.0
C3977 C 0.42531 0.54752 0.34977 0.0
C3978 C 0.40981 0.55204 0.34249 0.0
H3979 H 0.35924 0.55366 0.36138 0.0
H3980 H 0.37443 0.54148 0.34976 0.0
H3981 H 0.38152 0.55679 0.36502 0.0
H3982 H 0.41138 0.59456 0.34939 0.0
H3983 H 0.43855 0.58685 0.36161 0.0
H3984 H 0.96107 0.65338 0.93192 0.0
H3985 H 0.95236 0.66676 0.90539 0.0
H3986 H 0.90169 0.64788 0.91247 0.0
H3987 H 0.91008 0.63504 0.93916 0.0
H3988 H 0.94103 0.65339 0.87713 0.0
H3989 H 0.8916 0.6961 0.90175 0.0
H3990 H 0.90618 0.68519 0.91548 0.0
H3991 H 0.88749 0.67466 0.90779 0.0
C3992 C 0.94803 0.65221 0.92789 0.0
C3993 C 0.93626 0.64323 0.93775 0.0
C3994 C 0.94307 0.65987 0.91273 0.0
C3995 C 0.92627 0.65866 0.90709 0.0
C3996 C 0.91458 0.6495 0.9168 0.0
H3997 H 0.88877 0.66337 0.80557 0.0
H3998 H 0.90133 0.65604 0.83269 0.0
C3999 C 0.91945 0.64204 0.93203 0.0
C4000 C 0.92111 0.66615 0.89064 0.0
H4001 H 0.89053 0.69019 0.8719 0.0
C4002 C 0.93012 0.66162 0.87603 0.0
C4003 C 0.90708 0.67718 0.88917 0.0
C4004 C 0.89766 0.68371 0.90442 0.0
C4005 C 0.92506 0.6672 0.85996 0.0
C4006 C 0.91028 0.67718 0.85838 0.0
C4007 C 0.90171 0.68233 0.87305 0.0
C4008 C 0.9031 0.68185 0.84164 0.0
C4009 C 0.93569 0.66238 0.84487 0.0
C4010 C 0.89936 0.69878 0.83778 0.0
C4011 C 0.89184 0.70302 0.82233 0.0
C4012 C 0.88795 0.6904 0.81041 0.0
C4013 C 0.89178 0.67347 0.81432 0.0
C4014 C 0.8991 0.66924 0.82982 0.0
H4015 H 0.94906 0.66016 0.84855 0.0
H4016 H 0.93077 0.65043 0.83939 0.0
H4017 H 0.93537 0.67231 0.83495 0.0
H4018 H 0.9022 0.70872 0.84676 0.0
H4019 H 0.88904 0.71618 0.81976 0.0
H4020 H 0.53367 0.64979 0.06287 0.0
H4021 H 0.54156 0.66323 0.08963 0.0
H4022 H 0.5938 0.65044 0.08067 0.0
H4023 H 0.58618 0.63757 0.05382 0.0
H4024 H 0.55519 0.64992 0.11707 0.0
H4025 H 0.59866 0.69906 0.09327 0.0
H4026 H 0.58496 0.68721 0.07942 0.0
H4027 H 0.60499 0.67856 0.08601 0.0
C4028 C 0.54686 0.65003 0.06651 0.0
C4029 C 0.55929 0.64269 0.0561 0.0
C4030 C 0.55135 0.65771 0.08182 0.0
C4031 C 0.56833 0.65818 0.08703 0.0
C4032 C 0.5807 0.65075 0.07671 0.0
H4033 H 0.60891 0.66125 0.18717 0.0
H4034 H 0.59604 0.65427 0.16011 0.0
C4035 C 0.57627 0.64326 0.06137 0.0
C4036 C 0.5731 0.66548 0.10367 0.0
H4037 H 0.60166 0.69166 0.12271 0.0
C4038 C 0.56518 0.65924 0.11828 0.0
C4039 C 0.5859 0.6779 0.1053 0.0
C4040 C 0.59397 0.6862 0.09013 0.0
C4041 C 0.57026 0.66446 0.13447 0.0
C4042 C 0.58397 0.67585 0.13612 0.0
C4043 C 0.59133 0.68272 0.1215 0.0
C4044 C 0.59138 0.68025 0.15283 0.0
C4045 C 0.56081 0.65768 0.1496 0.0
C4046 C 0.59364 0.69722 0.15758 0.0
C4047 C 0.60135 0.70129 0.17298 0.0
C4048 C 0.6069 0.68845 0.18396 0.0
C4049 C 0.60459 0.67148 0.17916 0.0
C4050 C 0.59709 0.66744 0.1637 0.0
H4051 H 0.54758 0.65434 0.14627 0.0
H4052 H 0.56711 0.64598 0.15412 0.0
H4053 H 0.56057 0.66698 0.16011 0.0
H4054 H 0.58946 0.70733 0.14934 0.0
H4055 H 0.60295 0.71449 0.17627 0.0
H4056 H 0.60722 0.2859 0.31957 0.0
H4057 H 0.59339 0.29325 0.34627 0.0
H4058 H 0.59883 0.34624 0.33452 0.0
H4059 H 0.61208 0.33905 0.3077 0.0
H4060 H 0.60509 0.30988 0.3727 0.0
H4061 H 0.55017 0.34508 0.34791 0.0
H4062 H 0.56358 0.33243 0.33448 0.0
H4063 H 0.56953 0.35374 0.33996 0.0
C4064 C 0.60531 0.29911 0.3226 0.0
C4065 C 0.61065 0.31187 0.3114 0.0
C4066 C 0.5974 0.3033 0.33787 0.0
C4067 C 0.59472 0.3203 0.34227 0.0
C4068 C 0.60022 0.33303 0.33119 0.0
H4069 H 0.5876 0.36482 0.44037 0.0
H4070 H 0.59575 0.35182 0.41372 0.0
C4071 C 0.60794 0.32888 0.31587 0.0
C4072 C 0.58706 0.32485 0.35881 0.0
H4073 H 0.55741 0.35039 0.37705 0.0
C4074 C 0.5945 0.31855 0.37364 0.0
C4075 C 0.57301 0.33588 0.3601 0.0
C4076 C 0.5635 0.34201 0.34474 0.0
C4077 C 0.58882 0.3236 0.38968 0.0
C4078 C 0.57566 0.33568 0.39093 0.0
C4079 C 0.56768 0.34134 0.37612 0.0
C4080 C 0.57056 0.34324 0.40736 0.0
C4081 C 0.597 0.31589 0.40509 0.0
C4082 C 0.55353 0.34333 0.41244 0.0
C4083 C 0.54873 0.3511 0.42761 0.0
C4084 C 0.56088 0.35888 0.438 0.0
C4085 C 0.57791 0.35877 0.43282 0.0
C4086 C 0.58264 0.35121 0.41761 0.0
H4087 H 0.60208 0.30309 0.40229 0.0
H4088 H 0.60778 0.32393 0.4091 0.0
H4089 H 0.58795 0.31487 0.41577 0.0
H4090 H 0.54395 0.33739 0.40467 0.0
H4091 H 0.53552 0.35096 0.43121 0.0
H4092 H 0.88438 0.33237 0.69167 0.0
H4093 H 0.89705 0.34029 0.66477 0.0
H4094 H 0.90177 0.28764 0.65132 0.0
H4095 H 0.88841 0.27957 0.67808 0.0
H4096 H 0.92698 0.33459 0.65148 0.0
H4097 H 0.87821 0.3055 0.61027 0.0
H4098 H 0.87555 0.30741 0.63282 0.0
H4099 H 0.88838 0.29073 0.62416 0.0
C4100 C 0.8881 0.32242 0.68303 0.0
C4101 C 0.88527 0.30531 0.68702 0.0
C4102 C 0.89537 0.32699 0.66762 0.0
C4103 C 0.90015 0.3146 0.65585 0.0
C4104 C 0.89779 0.29746 0.65997 0.0
H4105 H 0.96188 0.346 0.56829 0.0
H4106 H 0.95286 0.33265 0.59476 0.0
C4107 C 0.89025 0.29286 0.67533 0.0
C4108 C 0.90755 0.31985 0.63937 0.0
H4109 H 0.90174 0.31778 0.59664 0.0
C4110 C 0.92149 0.33087 0.63947 0.0
C4111 C 0.90028 0.31515 0.62371 0.0
C4112 C 0.88469 0.30418 0.62267 0.0
C4113 C 0.92811 0.33762 0.62444 0.0
C4114 C 0.92098 0.33274 0.60876 0.0
C4115 C 0.90729 0.32142 0.60864 0.0
C4116 C 0.92664 0.34017 0.59243 0.0
C4117 C 0.94215 0.3505 0.62561 0.0
C4118 C 0.91483 0.3483 0.58198 0.0
C4119 C 0.91987 0.3556 0.56673 0.0
C4120 C 0.93689 0.35509 0.56159 0.0
C4121 C 0.94871 0.34679 0.57197 0.0
C4122 C 0.94359 0.33924 0.58716 0.0
H4123 H 0.94301 0.35612 0.63845 0.0
H4124 H 0.9544 0.34424 0.62285 0.0
H4125 H 0.9403 0.36087 0.61633 0.0
H4126 H 0.90169 0.3492 0.58573 0.0
H4127 H 0.91041 0.36192 0.5591 0.0
loop_
_geom_bond_atom_site_label_1
_geom_bond_atom_site_label_2
_geom_bond_distance
_geom_bond_site_symmetry_2
_ccdc_geom_bond_type
Co0 O1 2.216 . S
Co0 O2 2.091 . S
Co0 O4 2.004 . S
Co0 O10 2.021 . S
Co0 O12 2.137 . S
Co0 O13 2.244 . S
O1 Co0 2.216 . S
O1 C8 1.247 . S
O2 Co0 2.091 . S
O2 C8 1.261 . S
C3 O12 1.247 . S
C3 O13 1.272 . S
O4 Co0 2.004 . S
O4 C9 1.259 . S
Co5 O6 2.061 . S
Co5 O11 2.052 . S
Co5 O13 2.135 . S
O6 Co5 2.061 . S
O6 C9 1.235 . S
C7 O10 1.238 . S
C7 O11 1.241 . S
C8 O1 1.247 . S
C8 O2 1.261 . S
C9 O4 1.259 . S
C9 O6 1.235 . S
O10 Co0 2.021 . S
O10 C7 1.238 . S
O11 Co5 2.052 . S
O11 C7 1.241 . S
O12 Co0 2.137 . S
O12 C3 1.247 . S
O13 Co0 2.244 . S
O13 C3 1.272 . S
O13 Co5 2.135 . S
Co14 O15 2.219 . S
Co14 O16 2.091 1_655 S
Co14 O18 2.004 . S
Co14 O24 2.021 . S
Co14 O26 2.137 1_655 S
Co14 O27 2.244 . S
O15 Co14 2.219 . S
O15 C22 1.244 1_655 S
O16 Co14 2.091 1_455 S
O16 C22 1.261 . S
C17 O26 1.247 1_655 S
C17 O27 1.272 . S
O18 Co14 2.004 . S
O18 C23 1.259 . S
Co19 O20 2.061 . S
Co19 O25 2.052 . S
Co19 O27 2.135 . S
O20 Co19 2.061 . S
O20 C23 1.235 . S
C21 O24 1.238 . S
C21 O25 1.241 . S
C22 O15 1.244 1_455 S
C22 O16 1.261 . S
C23 O18 1.259 . S
C23 O20 1.235 . S
O24 Co14 2.021 . S
O24 C21 1.238 . S
O25 Co19 2.052 . S
O25 C21 1.241 . S
O26 Co14 2.137 1_455 S
O26 C17 1.247 1_455 S
O27 Co14 2.244 . S
O27 C17 1.272 . S
O27 Co19 2.135 . S
Co28 O29 2.216 . S
Co28 O30 2.091 . S
Co28 O32 2.004 . S
Co28 O38 2.021 . S
Co28 O40 2.137 . S
Co28 O41 2.244 . S
O29 Co28 2.216 . S
O29 C36 1.247 . S
O30 Co28 2.091 . S
O30 C36 1.261 . S
C31 O40 1.247 . S
C31 O41 1.272 . S
O32 Co28 2.004 . S
O32 C37 1.259 . S
Co33 O34 2.061 . S
Co33 O39 2.052 . S
Co33 O41 2.135 . S
O34 Co33 2.061 . S
O34 C37 1.235 . S
C35 O38 1.238 . S
C35 O39 1.241 . S
C36 O29 1.247 . S
C36 O30 1.261 . S
C37 O32 1.259 . S
C37 O34 1.235 . S
O38 Co28 2.021 . S
O38 C35 1.238 . S
O39 Co33 2.052 . S
O39 C35 1.241 . S
O40 Co28 2.137 . S
O40 C31 1.247 . S
O41 Co28 2.244 . S
O41 C31 1.272 . S
O41 Co33 2.135 . S
Co42 O43 2.216 . S
Co42 O44 2.091 . S
Co42 O46 2.004 . S
Co42 O52 2.021 . S
Co42 O54 2.137 . S
Co42 O55 2.244 . S
O43 Co42 2.216 . S
O43 C50 1.247 . S
O44 Co42 2.091 . S
O44 C50 1.261 . S
C45 O54 1.247 . S
C45 O55 1.272 . S
O46 Co42 2.004 . S
O46 C51 1.259 . S
Co47 O48 2.061 . S
Co47 O53 2.052 . S
Co47 O55 2.135 . S
O48 Co47 2.061 . S
O48 C51 1.235 . S
C49 O52 1.238 . S
C49 O53 1.241 . S
C50 O43 1.247 . S
C50 O44 1.261 . S
C51 O46 1.259 . S
C51 O48 1.235 . S
O52 Co42 2.021 . S
O52 C49 1.238 . S
O53 Co47 2.052 . S
O53 C49 1.241 . S
O54 Co42 2.137 . S
O54 C45 1.247 . S
O55 Co42 2.244 . S
O55 C45 1.272 . S
O55 Co47 2.135 . S
Co56 O57 2.216 . S
Co56 O58 2.091 . S
Co56 O60 2.004 . S
Co56 O66 2.021 . S
Co56 O68 2.137 . S
Co56 O69 2.244 . S
O57 Co56 2.216 . S
O57 C64 1.247 . S
O58 Co56 2.091 . S
O58 C64 1.261 . S
C59 O68 1.247 . S
C59 O69 1.272 . S
O60 Co56 2.004 . S
O60 C65 1.259 . S
Co61 O62 2.061 . S
Co61 O67 2.052 . S
Co61 O69 2.135 . S
O62 Co61 2.061 . S
O62 C65 1.235 . S
C63 O66 1.238 . S
C63 O67 1.241 . S
C64 O57 1.247 . S
C64 O58 1.261 . S
C65 O60 1.259 . S
C65 O62 1.235 . S
O66 Co56 2.021 . S
O66 C63 1.238 . S
O67 Co61 2.052 . S
O67 C63 1.241 . S
O68 Co56 2.137 . S
O68 C59 1.247 . S
O69 Co56 2.244 . S
O69 C59 1.272 . S
O69 Co61 2.135 . S
Co70 O71 2.216 . S
Co70 O72 2.091 . S
Co70 O74 2.004 . S
Co70 O80 2.021 . S
Co70 O82 2.137 . S
Co70 O83 2.244 . S
O71 Co70 2.216 . S
O71 C78 1.247 . S
O72 Co70 2.091 . S
O72 C78 1.261 . S
C73 O82 1.247 . S
C73 O83 1.272 . S
O74 Co70 2.004 . S
O74 C79 1.259 . S
Co75 O76 2.061 . S
Co75 O81 2.052 . S
Co75 O83 2.135 . S
O76 Co75 2.061 . S
O76 C79 1.235 . S
C77 O80 1.238 . S
C77 O81 1.241 . S
C78 O71 1.247 . S
C78 O72 1.261 . S
C79 O74 1.259 . S
C79 O76 1.235 . S
O80 Co70 2.021 . S
O80 C77 1.238 . S
O81 Co75 2.052 . S
O81 C77 1.241 . S
O82 Co70 2.137 . S
O82 C73 1.247 . S
O83 Co70 2.244 . S
O83 C73 1.272 . S
O83 Co75 2.135 . S
Co84 O85 2.216 . S
Co84 O86 2.091 . S
Co84 O88 2.004 . S
Co84 O94 2.021 . S
Co84 O96 2.137 . S
Co84 O97 2.244 . S
O85 Co84 2.216 . S
O85 C92 1.247 . S
O86 Co84 2.091 . S
O86 C92 1.261 . S
C87 O96 1.247 . S
C87 O97 1.272 . S
O88 Co84 2.004 . S
O88 C93 1.259 . S
Co89 O90 2.061 . S
Co89 O95 2.052 . S
Co89 O97 2.135 . S
O90 Co89 2.061 . S
O90 C93 1.235 . S
C91 O94 1.238 . S
C91 O95 1.241 . S
C92 O85 1.247 . S
C92 O86 1.261 . S
C93 O88 1.259 . S
C93 O90 1.235 . S
O94 Co84 2.021 . S
O94 C91 1.238 . S
O95 Co89 2.052 . S
O95 C91 1.241 . S
O96 Co84 2.137 . S
O96 C87 1.247 . S
O97 Co84 2.244 . S
O97 C87 1.272 . S
O97 Co89 2.135 . S
Co98 O99 2.219 . S
Co98 O100 2.091 1_655 S
Co98 O102 2.004 . S
Co98 O108 2.021 . S
Co98 O110 2.137 1_655 S
Co98 O111 2.244 . S
O99 Co98 2.219 . S
O99 C106 1.244 1_655 S
O100 Co98 2.091 1_455 S
O100 C106 1.261 . S
C101 O110 1.247 1_655 S
C101 O111 1.272 . S
O102 Co98 2.004 . S
O102 C107 1.259 . S
Co103 O104 2.061 . S
Co103 O109 2.052 . S
Co103 O111 2.135 . S
O104 Co103 2.061 . S
O104 C107 1.235 . S
C105 O108 1.238 . S
C105 O109 1.241 . S
C106 O99 1.244 1_455 S
C106 O100 1.261 . S
C107 O102 1.259 . S
C107 O104 1.235 . S
O108 Co98 2.021 . S
O108 C105 1.238 . S
O109 Co103 2.052 . S
O109 C105 1.241 . S
O110 Co98 2.137 1_455 S
O110 C101 1.247 1_455 S
O111 Co98 2.244 . S
O111 C101 1.272 . S
O111 Co103 2.135 . S
Co112 O113 2.216 . S
Co112 O114 2.091 . S
Co112 O116 2.004 . S
Co112 O122 2.021 . S
Co112 O124 2.137 . S
Co112 O125 2.244 . S
O113 Co112 2.216 . S
O113 C120 1.247 . S
O114 Co112 2.091 . S
O114 C120 1.261 . S
C115 O124 1.247 . S
C115 O125 1.272 . S
O116 Co112 2.004 . S
O116 C121 1.259 . S
Co117 O118 2.061 . S
Co117 O123 2.052 . S
Co117 O125 2.135 . S
O118 Co117 2.061 . S
O118 C121 1.235 . S
C119 O122 1.238 . S
C119 O123 1.241 . S
C120 O113 1.247 . S
C120 O114 1.261 . S
C121 O116 1.259 . S
C121 O118 1.235 . S
O122 Co112 2.021 . S
O122 C119 1.238 . S
O123 Co117 2.052 . S
O123 C119 1.241 . S
O124 Co112 2.137 . S
O124 C115 1.247 . S
O125 Co112 2.244 . S
O125 C115 1.272 . S
O125 Co117 2.135 . S
Co126 O127 2.216 . S
Co126 O128 2.091 . S
Co126 O130 2.004 . S
Co126 O136 2.021 . S
Co126 O138 2.137 . S
Co126 O139 2.244 . S
O127 Co126 2.216 . S
O127 C134 1.247 . S
O128 Co126 2.091 . S
O128 C134 1.261 . S
C129 O138 1.247 . S
C129 O139 1.272 . S
O130 Co126 2.004 . S
O130 C135 1.259 . S
Co131 O132 2.061 . S
Co131 O137 2.052 . S
Co131 O139 2.135 . S
O132 Co131 2.061 . S
O132 C135 1.235 . S
C133 O136 1.238 . S
C133 O137 1.241 . S
C134 O127 1.247 . S
C134 O128 1.261 . S
C135 O130 1.259 . S
C135 O132 1.235 . S
O136 Co126 2.021 . S
O136 C133 1.238 . S
O137 Co131 2.052 . S
O137 C133 1.241 . S
O138 Co126 2.137 . S
O138 C129 1.247 . S
O139 Co126 2.244 . S
O139 C129 1.272 . S
O139 Co131 2.135 . S
Co140 O141 2.216 . S
Co140 O142 2.091 . S
Co140 O144 2.004 . S
Co140 O150 2.021 . S
Co140 O152 2.137 . S
Co140 O153 2.244 . S
O141 Co140 2.216 . S
O141 C148 1.247 . S
O142 Co140 2.091 . S
O142 C148 1.261 . S
C143 O152 1.247 . S
C143 O153 1.272 . S
O144 Co140 2.004 . S
O144 C149 1.259 . S
Co145 O146 2.061 . S
Co145 O151 2.052 . S
Co145 O153 2.135 . S
O146 Co145 2.061 . S
O146 C149 1.235 . S
C147 O150 1.238 . S
C147 O151 1.241 . S
C148 O141 1.247 . S
C148 O142 1.261 . S
C149 O144 1.259 . S
C149 O146 1.235 . S
O150 Co140 2.021 . S
O150 C147 1.238 . S
O151 Co145 2.052 . S
O151 C147 1.241 . S
O152 Co140 2.137 . S
O152 C143 1.247 . S
O153 Co140 2.244 . S
O153 C143 1.272 . S
O153 Co145 2.135 . S
Co154 O155 2.236 . S
Co154 O156 2.091 1_554 S
Co154 O158 2.004 . S
Co154 O164 2.021 . S
Co154 O166 2.137 1_554 S
Co154 O167 2.244 . S
O155 Co154 2.236 . S
O155 C162 1.229 1_554 S
O156 Co154 2.091 1_556 S
O156 C162 1.261 . S
C157 O166 1.247 1_554 S
C157 O167 1.272 . S
O158 Co154 2.004 . S
O158 C163 1.259 . S
Co159 O160 2.061 . S
Co159 O165 2.052 . S
Co159 O167 2.135 . S
O160 Co159 2.061 . S
O160 C163 1.235 . S
C161 O164 1.238 . S
C161 O165 1.241 . S
C162 O155 1.229 1_556 S
C162 O156 1.261 . S
C163 O158 1.259 . S
C163 O160 1.235 . S
O164 Co154 2.021 . S
O164 C161 1.238 . S
O165 Co159 2.052 . S
O165 C161 1.241 . S
O166 Co154 2.137 1_556 S
O166 C157 1.247 1_556 S
O167 Co154 2.244 . S
O167 C157 1.272 . S
O167 Co159 2.135 . S
Co168 O169 2.216 . S
Co168 O170 2.091 . S
Co168 O172 2.004 . S
Co168 O178 2.021 . S
Co168 O180 2.137 . S
Co168 O181 2.244 . S
O169 Co168 2.216 . S
O169 C176 1.247 . S
O170 Co168 2.091 . S
O170 C176 1.261 . S
C171 O180 1.247 . S
C171 O181 1.272 . S
O172 Co168 2.004 . S
O172 C177 1.259 . S
Co173 O174 2.061 . S
Co173 O179 2.052 . S
Co173 O181 2.135 . S
O174 Co173 2.061 . S
O174 C177 1.235 . S
C175 O178 1.238 . S
C175 O179 1.241 . S
C176 O169 1.247 . S
C176 O170 1.261 . S
C177 O172 1.259 . S
C177 O174 1.235 . S
O178 Co168 2.021 . S
O178 C175 1.238 . S
O179 Co173 2.052 . S
O179 C175 1.241 . S
O180 Co168 2.137 . S
O180 C171 1.247 . S
O181 Co168 2.244 . S
O181 C171 1.272 . S
O181 Co173 2.135 . S
Co182 O183 2.216 . S
Co182 O184 2.091 . S
Co182 O186 2.004 . S
Co182 O192 2.021 . S
Co182 O194 2.137 . S
Co182 O195 2.244 . S
O183 Co182 2.216 . S
O183 C190 1.247 . S
O184 Co182 2.091 . S
O184 C190 1.261 . S
C185 O194 1.247 . S
C185 O195 1.272 . S
O186 Co182 2.004 . S
O186 C191 1.259 . S
Co187 O188 2.061 . S
Co187 O193 2.052 . S
Co187 O195 2.135 . S
O188 Co187 2.061 . S
O188 C191 1.235 . S
C189 O192 1.238 . S
C189 O193 1.241 . S
C190 O183 1.247 . S
C190 O184 1.261 . S
C191 O186 1.259 . S
C191 O188 1.235 . S
O192 Co182 2.021 . S
O192 C189 1.238 . S
O193 Co187 2.052 . S
O193 C189 1.241 . S
O194 Co182 2.137 . S
O194 C185 1.247 . S
O195 Co182 2.244 . S
O195 C185 1.272 . S
O195 Co187 2.135 . S
Co196 O197 2.216 . S
Co196 O198 2.091 . S
Co196 O200 2.004 . S
Co196 O206 2.021 . S
Co196 O208 2.137 . S
Co196 O209 2.244 . S
O197 Co196 2.216 . S
O197 C204 1.247 . S
O198 Co196 2.091 . S
O198 C204 1.261 . S
C199 O208 1.247 . S
C199 O209 1.272 . S
O200 Co196 2.004 . S
O200 C205 1.259 . S
Co201 O202 2.061 . S
Co201 O207 2.052 . S
Co201 O209 2.135 . S
O202 Co201 2.061 . S
O202 C205 1.235 . S
C203 O206 1.238 . S
C203 O207 1.241 . S
C204 O197 1.247 . S
C204 O198 1.261 . S
C205 O200 1.259 . S
C205 O202 1.235 . S
O206 Co196 2.021 . S
O206 C203 1.238 . S
O207 Co201 2.052 . S
O207 C203 1.241 . S
O208 Co196 2.137 . S
O208 C199 1.247 . S
O209 Co196 2.244 . S
O209 C199 1.272 . S
O209 Co201 2.135 . S
Co210 O211 2.219 . S
Co210 O212 2.091 1_556 S
Co210 O214 2.004 . S
Co210 O220 2.021 . S
Co210 O222 2.137 1_556 S
Co210 O223 2.244 . S
O211 Co210 2.219 . S
O211 C218 1.244 1_556 S
O212 Co210 2.091 1_554 S
O212 C218 1.261 . S
C213 O222 1.247 1_556 S
C213 O223 1.272 . S
O214 Co210 2.004 . S
O214 C219 1.259 . S
Co215 O216 2.061 . S
Co215 O221 2.052 . S
Co215 O223 2.135 . S
O216 Co215 2.061 . S
O216 C219 1.235 . S
C217 O220 1.238 . S
C217 O221 1.241 . S
C218 O211 1.244 1_554 S
C218 O212 1.261 . S
C219 O214 1.259 . S
C219 O216 1.235 . S
O220 Co210 2.021 . S
O220 C217 1.238 . S
O221 Co215 2.052 . S
O221 C217 1.241 . S
O222 Co210 2.137 1_554 S
O222 C213 1.247 1_554 S
O223 Co210 2.244 . S
O223 C213 1.272 . S
O223 Co215 2.135 . S
Co224 O225 2.216 . S
Co224 O226 2.091 . S
Co224 O228 2.004 . S
Co224 O234 2.021 . S
Co224 O236 2.137 . S
Co224 O237 2.244 . S
O225 Co224 2.216 . S
O225 C232 1.247 . S
O226 Co224 2.091 . S
O226 C232 1.261 . S
C227 O236 1.247 . S
C227 O237 1.272 . S
O228 Co224 2.004 . S
O228 C233 1.259 . S
Co229 O230 2.061 . S
Co229 O235 2.052 . S
Co229 O237 2.135 . S
O230 Co229 2.061 . S
O230 C233 1.235 . S
C231 O234 1.238 . S
C231 O235 1.241 . S
C232 O225 1.247 . S
C232 O226 1.261 . S
C233 O228 1.259 . S
C233 O230 1.235 . S
O234 Co224 2.021 . S
O234 C231 1.238 . S
O235 Co229 2.052 . S
O235 C231 1.241 . S
O236 Co224 2.137 . S
O236 C227 1.247 . S
O237 Co224 2.244 . S
O237 C227 1.272 . S
O237 Co229 2.135 . S
Co238 O239 2.216 . S
Co238 O240 2.091 . S
Co238 O242 2.004 . S
Co238 O248 2.021 . S
Co238 O250 2.137 . S
Co238 O251 2.244 . S
O239 Co238 2.216 . S
O239 C246 1.247 . S
O240 Co238 2.091 . S
O240 C246 1.261 . S
C241 O250 1.247 . S
C241 O251 1.272 . S
O242 Co238 2.004 . S
O242 C247 1.259 . S
Co243 O244 2.061 . S
Co243 O249 2.052 . S
Co243 O251 2.135 . S
O244 Co243 2.061 . S
O244 C247 1.235 . S
C245 O248 1.238 . S
C245 O249 1.241 . S
C246 O239 1.247 . S
C246 O240 1.261 . S
C247 O242 1.259 . S
C247 O244 1.235 . S
O248 Co238 2.021 . S
O248 C245 1.238 . S
O249 Co243 2.052 . S
O249 C245 1.241 . S
O250 Co238 2.137 . S
O250 C241 1.247 . S
O251 Co238 2.244 . S
O251 C241 1.272 . S
O251 Co243 2.135 . S
Co252 O253 2.216 . S
Co252 O254 2.091 . S
Co252 O256 2.004 . S
Co252 O262 2.021 . S
Co252 O264 2.137 . S
Co252 O265 2.244 . S
O253 Co252 2.216 . S
O253 C260 1.247 . S
O254 Co252 2.091 . S
O254 C260 1.261 . S
C255 O264 1.247 . S
C255 O265 1.272 . S
O256 Co252 2.004 . S
O256 C261 1.259 . S
Co257 O258 2.061 . S
Co257 O263 2.052 . S
Co257 O265 2.135 . S
O258 Co257 2.061 . S
O258 C261 1.235 . S
C259 O262 1.238 . S
C259 O263 1.241 . S
C260 O253 1.247 . S
C260 O254 1.261 . S
C261 O256 1.259 . S
C261 O258 1.235 . S
O262 Co252 2.021 . S
O262 C259 1.238 . S
O263 Co257 2.052 . S
O263 C259 1.241 . S
O264 Co252 2.137 . S
O264 C255 1.247 . S
O265 Co252 2.244 . S
O265 C255 1.272 . S
O265 Co257 2.135 . S
Co266 O267 2.216 . S
Co266 O268 2.091 . S
Co266 O270 2.004 . S
Co266 O276 2.021 . S
Co266 O278 2.137 . S
Co266 O279 2.244 . S
O267 Co266 2.216 . S
O267 C274 1.247 . S
O268 Co266 2.091 . S
O268 C274 1.261 . S
C269 O278 1.247 . S
C269 O279 1.272 . S
O270 Co266 2.004 . S
O270 C275 1.259 . S
Co271 O272 2.061 . S
Co271 O277 2.052 . S
Co271 O279 2.135 . S
O272 Co271 2.061 . S
O272 C275 1.235 . S
C273 O276 1.238 . S
C273 O277 1.241 . S
C274 O267 1.247 . S
C274 O268 1.261 . S
C275 O270 1.259 . S
C275 O272 1.235 . S
O276 Co266 2.021 . S
O276 C273 1.238 . S
O277 Co271 2.052 . S
O277 C273 1.241 . S
O278 Co266 2.137 . S
O278 C269 1.247 . S
O279 Co266 2.244 . S
O279 C269 1.272 . S
O279 Co271 2.135 . S
Co280 O281 2.219 . S
Co280 O282 2.091 1_565 S
Co280 O284 2.004 . S
Co280 O290 2.021 . S
Co280 O292 2.137 1_565 S
Co280 O293 2.244 . S
O281 Co280 2.219 . S
O281 C288 1.244 1_565 S
O282 Co280 2.091 1_545 S
O282 C288 1.261 . S
C283 O292 1.247 1_565 S
C283 O293 1.272 . S
O284 Co280 2.004 . S
O284 C289 1.259 . S
Co285 O286 2.061 . S
Co285 O291 2.052 . S
Co285 O293 2.135 . S
O286 Co285 2.061 . S
O286 C289 1.235 . S
C287 O290 1.238 . S
C287 O291 1.241 . S
C288 O281 1.244 1_545 S
C288 O282 1.261 . S
C289 O284 1.259 . S
C289 O286 1.235 . S
O290 Co280 2.021 . S
O290 C287 1.238 . S
O291 Co285 2.052 . S
O291 C287 1.241 . S
O292 Co280 2.137 1_545 S
O292 C283 1.247 1_545 S
O293 Co280 2.244 . S
O293 C283 1.272 . S
O293 Co285 2.135 . S
Co294 O295 2.216 . S
Co294 O296 2.091 . S
Co294 O298 2.004 . S
Co294 O304 2.021 . S
Co294 O306 2.137 . S
Co294 O307 2.244 . S
O295 Co294 2.216 . S
O295 C302 1.247 . S
O296 Co294 2.091 . S
O296 C302 1.261 . S
C297 O306 1.247 . S
C297 O307 1.272 . S
O298 Co294 2.004 . S
O298 C303 1.259 . S
Co299 O300 2.061 . S
Co299 O305 2.052 . S
Co299 O307 2.135 . S
O300 Co299 2.061 . S
O300 C303 1.235 . S
C301 O304 1.238 . S
C301 O305 1.241 . S
C302 O295 1.247 . S
C302 O296 1.261 . S
C303 O298 1.259 . S
C303 O300 1.235 . S
O304 Co294 2.021 . S
O304 C301 1.238 . S
O305 Co299 2.052 . S
O305 C301 1.241 . S
O306 Co294 2.137 . S
O306 C297 1.247 . S
O307 Co294 2.244 . S
O307 C297 1.272 . S
O307 Co299 2.135 . S
Co308 O309 2.216 . S
Co308 O310 2.091 . S
Co308 O312 2.004 . S
Co308 O318 2.021 . S
Co308 O320 2.137 . S
Co308 O321 2.244 . S
O309 Co308 2.216 . S
O309 C316 1.247 . S
O310 Co308 2.091 . S
O310 C316 1.261 . S
C311 O320 1.247 . S
C311 O321 1.272 . S
O312 Co308 2.004 . S
O312 C317 1.259 . S
Co313 O314 2.061 . S
Co313 O319 2.052 . S
Co313 O321 2.135 . S
O314 Co313 2.061 . S
O314 C317 1.235 . S
C315 O318 1.238 . S
C315 O319 1.241 . S
C316 O309 1.247 . S
C316 O310 1.261 . S
C317 O312 1.259 . S
C317 O314 1.235 . S
O318 Co308 2.021 . S
O318 C315 1.238 . S
O319 Co313 2.052 . S
O319 C315 1.241 . S
O320 Co308 2.137 . S
O320 C311 1.247 . S
O321 Co308 2.244 . S
O321 C311 1.272 . S
O321 Co313 2.135 . S
Co322 O323 2.216 . S
Co322 O324 2.091 . S
Co322 O326 2.004 . S
Co322 O332 2.021 . S
Co322 O334 2.137 . S
Co322 O335 2.244 . S
O323 Co322 2.216 . S
O323 C330 1.247 . S
O324 Co322 2.091 . S
O324 C330 1.261 . S
C325 O334 1.247 . S
C325 O335 1.272 . S
O326 Co322 2.004 . S
O326 C331 1.259 . S
Co327 O328 2.061 . S
Co327 O333 2.052 . S
Co327 O335 2.135 . S
O328 Co327 2.061 . S
O328 C331 1.235 . S
C329 O332 1.238 . S
C329 O333 1.241 . S
C330 O323 1.247 . S
C330 O324 1.261 . S
C331 O326 1.259 . S
C331 O328 1.235 . S
O332 Co322 2.021 . S
O332 C329 1.238 . S
O333 Co327 2.052 . S
O333 C329 1.241 . S
O334 Co322 2.137 . S
O334 C325 1.247 . S
O335 Co322 2.244 . S
O335 C325 1.272 . S
O335 Co327 2.135 . S
Co336 O337 2.216 . S
Co336 O338 2.091 . S
Co336 O340 2.004 . S
Co336 O346 2.021 . S
Co336 O348 2.137 . S
Co336 O349 2.244 . S
O337 Co336 2.216 . S
O337 C344 1.247 . S
O338 Co336 2.091 . S
O338 C344 1.261 . S
C339 O348 1.247 . S
C339 O349 1.272 . S
O340 Co336 2.004 . S
O340 C345 1.259 . S
Co341 O342 2.061 . S
Co341 O347 2.052 . S
Co341 O349 2.135 . S
O342 Co341 2.061 . S
O342 C345 1.235 . S
C343 O346 1.238 . S
C343 O347 1.241 . S
C344 O337 1.247 . S
C344 O338 1.261 . S
C345 O340 1.259 . S
C345 O342 1.235 . S
O346 Co336 2.021 . S
O346 C343 1.238 . S
O347 Co341 2.052 . S
O347 C343 1.241 . S
O348 Co336 2.137 . S
O348 C339 1.247 . S
O349 Co336 2.244 . S
O349 C339 1.272 . S
O349 Co341 2.135 . S
Co350 O351 2.216 . S
Co350 O352 2.091 . S
Co350 O354 2.004 . S
Co350 O360 2.021 . S
Co350 O362 2.137 . S
Co350 O363 2.244 . S
O351 Co350 2.216 . S
O351 C358 1.247 . S
O352 Co350 2.091 . S
O352 C358 1.261 . S
C353 O362 1.247 . S
C353 O363 1.272 . S
O354 Co350 2.004 . S
O354 C359 1.259 . S
Co355 O356 2.061 . S
Co355 O361 2.052 . S
Co355 O363 2.135 . S
O356 Co355 2.061 . S
O356 C359 1.235 . S
C357 O360 1.238 . S
C357 O361 1.241 . S
C358 O351 1.247 . S
C358 O352 1.261 . S
C359 O354 1.259 . S
C359 O356 1.235 . S
O360 Co350 2.021 . S
O360 C357 1.238 . S
O361 Co355 2.052 . S
O361 C357 1.241 . S
O362 Co350 2.137 . S
O362 C353 1.247 . S
O363 Co350 2.244 . S
O363 C353 1.272 . S
O363 Co355 2.135 . S
Co364 O365 2.216 . S
Co364 O366 2.091 . S
Co364 O368 2.004 . S
Co364 O374 2.021 . S
Co364 O376 2.137 . S
Co364 O377 2.244 . S
O365 Co364 2.216 . S
O365 C372 1.247 . S
O366 Co364 2.091 . S
O366 C372 1.261 . S
C367 O376 1.247 . S
C367 O377 1.272 . S
O368 Co364 2.004 . S
O368 C373 1.259 . S
Co369 O370 2.061 . S
Co369 O375 2.052 . S
Co369 O377 2.135 . S
O370 Co369 2.061 . S
O370 C373 1.235 . S
C371 O374 1.238 . S
C371 O375 1.241 . S
C372 O365 1.247 . S
C372 O366 1.261 . S
C373 O368 1.259 . S
C373 O370 1.235 . S
O374 Co364 2.021 . S
O374 C371 1.238 . S
O375 Co369 2.052 . S
O375 C371 1.241 . S
O376 Co364 2.137 . S
O376 C367 1.247 . S
O377 Co364 2.244 . S
O377 C367 1.272 . S
O377 Co369 2.135 . S
Co378 O379 2.236 . S
Co378 O380 2.091 1_455 S
Co378 O382 2.004 . S
Co378 O388 2.021 . S
Co378 O390 2.137 1_455 S
Co378 O391 2.244 . S
O379 Co378 2.236 . S
O379 C386 1.229 1_455 S
O380 Co378 2.091 1_655 S
O380 C386 1.261 . S
C381 O390 1.247 1_455 S
C381 O391 1.272 . S
O382 Co378 2.004 . S
O382 C387 1.259 . S
Co383 O384 2.061 . S
Co383 O389 2.052 . S
Co383 O391 2.135 . S
O384 Co383 2.061 . S
O384 C387 1.235 . S
C385 O388 1.238 . S
C385 O389 1.241 . S
C386 O379 1.229 1_655 S
C386 O380 1.261 . S
C387 O382 1.259 . S
C387 O384 1.235 . S
O388 Co378 2.021 . S
O388 C385 1.238 . S
O389 Co383 2.052 . S
O389 C385 1.241 . S
O390 Co378 2.137 1_655 S
O390 C381 1.247 1_655 S
O391 Co378 2.244 . S
O391 C381 1.272 . S
O391 Co383 2.135 . S
Co392 O393 2.216 . S
Co392 O394 2.091 . S
Co392 O396 2.004 . S
Co392 O402 2.021 . S
Co392 O404 2.137 . S
Co392 O405 2.244 . S
O393 Co392 2.216 . S
O393 C400 1.247 . S
O394 Co392 2.091 . S
O394 C400 1.261 . S
C395 O404 1.247 . S
C395 O405 1.272 . S
O396 Co392 2.004 . S
O396 C401 1.259 . S
Co397 O398 2.061 . S
Co397 O403 2.052 . S
Co397 O405 2.135 . S
O398 Co397 2.061 . S
O398 C401 1.235 . S
C399 O402 1.238 . S
C399 O403 1.241 . S
C400 O393 1.247 . S
C400 O394 1.261 . S
C401 O396 1.259 . S
C401 O398 1.235 . S
O402 Co392 2.021 . S
O402 C399 1.238 . S
O403 Co397 2.052 . S
O403 C399 1.241 . S
O404 Co392 2.137 . S
O404 C395 1.247 . S
O405 Co392 2.244 . S
O405 C395 1.272 . S
O405 Co397 2.135 . S
Co406 O407 2.236 . S
Co406 O408 2.091 1_455 S
Co406 O410 2.004 . S
Co406 O416 2.021 . S
Co406 O418 2.137 1_455 S
Co406 O419 2.244 . S
O407 Co406 2.236 . S
O407 C414 1.229 1_455 S
O408 Co406 2.091 1_655 S
O408 C414 1.261 . S
C409 O418 1.247 1_455 S
C409 O419 1.272 . S
O410 Co406 2.004 . S
O410 C415 1.259 . S
Co411 O412 2.061 . S
Co411 O417 2.052 . S
Co411 O419 2.135 . S
O412 Co411 2.061 . S
O412 C415 1.235 . S
C413 O416 1.238 . S
C413 O417 1.241 . S
C414 O407 1.229 1_655 S
C414 O408 1.261 . S
C415 O410 1.259 . S
C415 O412 1.235 . S
O416 Co406 2.021 . S
O416 C413 1.238 . S
O417 Co411 2.052 . S
O417 C413 1.241 . S
O418 Co406 2.137 1_655 S
O418 C409 1.247 1_655 S
O419 Co406 2.244 . S
O419 C409 1.272 . S
O419 Co411 2.135 . S
Co420 O421 2.216 . S
Co420 O422 2.091 . S
Co420 O424 2.004 . S
Co420 O430 2.021 . S
Co420 O432 2.137 . S
Co420 O433 2.244 . S
O421 Co420 2.216 . S
O421 C428 1.247 . S
O422 Co420 2.091 . S
O422 C428 1.261 . S
C423 O432 1.247 . S
C423 O433 1.272 . S
O424 Co420 2.004 . S
O424 C429 1.259 . S
Co425 O426 2.061 . S
Co425 O431 2.052 . S
Co425 O433 2.135 . S
O426 Co425 2.061 . S
O426 C429 1.235 . S
C427 O430 1.238 . S
C427 O431 1.241 . S
C428 O421 1.247 . S
C428 O422 1.261 . S
C429 O424 1.259 . S
C429 O426 1.235 . S
O430 Co420 2.021 . S
O430 C427 1.238 . S
O431 Co425 2.052 . S
O431 C427 1.241 . S
O432 Co420 2.137 . S
O432 C423 1.247 . S
O433 Co420 2.244 . S
O433 C423 1.272 . S
O433 Co425 2.135 . S
Co434 O435 2.216 . S
Co434 O436 2.091 . S
Co434 O438 2.004 . S
Co434 O444 2.021 . S
Co434 O446 2.137 . S
Co434 O447 2.244 . S
O435 Co434 2.216 . S
O435 C442 1.247 . S
O436 Co434 2.091 . S
O436 C442 1.261 . S
C437 O446 1.247 . S
C437 O447 1.272 . S
O438 Co434 2.004 . S
O438 C443 1.259 . S
Co439 O440 2.061 . S
Co439 O445 2.052 . S
Co439 O447 2.135 . S
O440 Co439 2.061 . S
O440 C443 1.235 . S
C441 O444 1.238 . S
C441 O445 1.241 . S
C442 O435 1.247 . S
C442 O436 1.261 . S
C443 O438 1.259 . S
C443 O440 1.235 . S
O444 Co434 2.021 . S
O444 C441 1.238 . S
O445 Co439 2.052 . S
O445 C441 1.241 . S
O446 Co434 2.137 . S
O446 C437 1.247 . S
O447 Co434 2.244 . S
O447 C437 1.272 . S
O447 Co439 2.135 . S
Co448 O449 2.216 . S
Co448 O450 2.091 . S
Co448 O452 2.004 . S
Co448 O458 2.021 . S
Co448 O460 2.137 . S
Co448 O461 2.244 . S
O449 Co448 2.216 . S
O449 C456 1.247 . S
O450 Co448 2.091 . S
O450 C456 1.261 . S
C451 O460 1.247 . S
C451 O461 1.272 . S
O452 Co448 2.004 . S
O452 C457 1.259 . S
Co453 O454 2.061 . S
Co453 O459 2.052 . S
Co453 O461 2.135 . S
O454 Co453 2.061 . S
O454 C457 1.235 . S
C455 O458 1.238 . S
C455 O459 1.241 . S
C456 O449 1.247 . S
C456 O450 1.261 . S
C457 O452 1.259 . S
C457 O454 1.235 . S
O458 Co448 2.021 . S
O458 C455 1.238 . S
O459 Co453 2.052 . S
O459 C455 1.241 . S
O460 Co448 2.137 . S
O460 C451 1.247 . S
O461 Co448 2.244 . S
O461 C451 1.272 . S
O461 Co453 2.135 . S
Co462 O463 2.236 . S
Co462 O464 2.091 1_554 S
Co462 O466 2.004 . S
Co462 O472 2.021 . S
Co462 O474 2.137 1_554 S
Co462 O475 2.244 . S
O463 Co462 2.236 . S
O463 C470 1.229 1_554 S
O464 Co462 2.091 1_556 S
O464 C470 1.261 . S
C465 O474 1.247 1_554 S
C465 O475 1.272 . S
O466 Co462 2.004 . S
O466 C471 1.259 . S
Co467 O468 2.061 . S
Co467 O473 2.052 . S
Co467 O475 2.135 . S
O468 Co467 2.061 . S
O468 C471 1.235 . S
C469 O472 1.238 . S
C469 O473 1.241 . S
C470 O463 1.229 1_556 S
C470 O464 1.261 . S
C471 O466 1.259 . S
C471 O468 1.235 . S
O472 Co462 2.021 . S
O472 C469 1.238 . S
O473 Co467 2.052 . S
O473 C469 1.241 . S
O474 Co462 2.137 1_556 S
O474 C465 1.247 1_556 S
O475 Co462 2.244 . S
O475 C465 1.272 . S
O475 Co467 2.135 . S
Co476 O477 2.216 . S
Co476 O478 2.091 . S
Co476 O480 2.004 . S
Co476 O486 2.021 . S
Co476 O488 2.137 . S
Co476 O489 2.244 . S
O477 Co476 2.216 . S
O477 C484 1.247 . S
O478 Co476 2.091 . S
O478 C484 1.261 . S
C479 O488 1.247 . S
C479 O489 1.272 . S
O480 Co476 2.004 . S
O480 C485 1.259 . S
Co481 O482 2.061 . S
Co481 O487 2.052 . S
Co481 O489 2.135 . S
O482 Co481 2.061 . S
O482 C485 1.235 . S
C483 O486 1.238 . S
C483 O487 1.241 . S
C484 O477 1.247 . S
C484 O478 1.261 . S
C485 O480 1.259 . S
C485 O482 1.235 . S
O486 Co476 2.021 . S
O486 C483 1.238 . S
O487 Co481 2.052 . S
O487 C483 1.241 . S
O488 Co476 2.137 . S
O488 C479 1.247 . S
O489 Co476 2.244 . S
O489 C479 1.272 . S
O489 Co481 2.135 . S
Co490 O491 2.216 . S
Co490 O492 2.091 . S
Co490 O494 2.004 . S
Co490 O500 2.021 . S
Co490 O502 2.137 . S
Co490 O503 2.244 . S
O491 Co490 2.216 . S
O491 C498 1.247 . S
O492 Co490 2.091 . S
O492 C498 1.261 . S
C493 O502 1.247 . S
C493 O503 1.272 . S
O494 Co490 2.004 . S
O494 C499 1.259 . S
Co495 O496 2.061 . S
Co495 O501 2.052 . S
Co495 O503 2.135 . S
O496 Co495 2.061 . S
O496 C499 1.235 . S
C497 O500 1.238 . S
C497 O501 1.241 . S
C498 O491 1.247 . S
C498 O492 1.261 . S
C499 O494 1.259 . S
C499 O496 1.235 . S
O500 Co490 2.021 . S
O500 C497 1.238 . S
O501 Co495 2.052 . S
O501 C497 1.241 . S
O502 Co490 2.137 . S
O502 C493 1.247 . S
O503 Co490 2.244 . S
O503 C493 1.272 . S
O503 Co495 2.135 . S
Co504 O505 2.216 . S
Co504 O506 2.091 . S
Co504 O508 2.004 . S
Co504 O514 2.021 . S
Co504 O516 2.137 . S
Co504 O517 2.244 . S
O505 Co504 2.216 . S
O505 C512 1.247 . S
O506 Co504 2.091 . S
O506 C512 1.261 . S
C507 O516 1.247 . S
C507 O517 1.272 . S
O508 Co504 2.004 . S
O508 C513 1.259 . S
Co509 O510 2.061 . S
Co509 O515 2.052 . S
Co509 O517 2.135 . S
O510 Co509 2.061 . S
O510 C513 1.235 . S
C511 O514 1.238 . S
C511 O515 1.241 . S
C512 O505 1.247 . S
C512 O506 1.261 . S
C513 O508 1.259 . S
C513 O510 1.235 . S
O514 Co504 2.021 . S
O514 C511 1.238 . S
O515 Co509 2.052 . S
O515 C511 1.241 . S
O516 Co504 2.137 . S
O516 C507 1.247 . S
O517 Co504 2.244 . S
O517 C507 1.272 . S
O517 Co509 2.135 . S
Co518 O519 2.219 . S
Co518 O520 2.091 1_556 S
Co518 O522 2.004 . S
Co518 O528 2.021 . S
Co518 O530 2.137 1_556 S
Co518 O531 2.244 . S
O519 Co518 2.219 . S
O519 C526 1.244 1_556 S
O520 Co518 2.091 1_554 S
O520 C526 1.261 . S
C521 O530 1.247 1_556 S
C521 O531 1.272 . S
O522 Co518 2.004 . S
O522 C527 1.259 . S
Co523 O524 2.061 . S
Co523 O529 2.052 . S
Co523 O531 2.135 . S
O524 Co523 2.061 . S
O524 C527 1.235 . S
C525 O528 1.238 . S
C525 O529 1.241 . S
C526 O519 1.244 1_554 S
C526 O520 1.261 . S
C527 O522 1.259 . S
C527 O524 1.235 . S
O528 Co518 2.021 . S
O528 C525 1.238 . S
O529 Co523 2.052 . S
O529 C525 1.241 . S
O530 Co518 2.137 1_554 S
O530 C521 1.247 1_554 S
O531 Co518 2.244 . S
O531 C521 1.272 . S
O531 Co523 2.135 . S
Co532 O533 2.216 . S
Co532 O534 2.091 . S
Co532 O536 2.004 . S
Co532 O542 2.021 . S
Co532 O544 2.137 . S
Co532 O545 2.244 . S
O533 Co532 2.216 . S
O533 C540 1.247 . S
O534 Co532 2.091 . S
O534 C540 1.261 . S
C535 O544 1.247 . S
C535 O545 1.272 . S
O536 Co532 2.004 . S
O536 C541 1.259 . S
Co537 O538 2.061 . S
Co537 O543 2.052 . S
Co537 O545 2.135 . S
O538 Co537 2.061 . S
O538 C541 1.235 . S
C539 O542 1.238 . S
C539 O543 1.241 . S
C540 O533 1.247 . S
C540 O534 1.261 . S
C541 O536 1.259 . S
C541 O538 1.235 . S
O542 Co532 2.021 . S
O542 C539 1.238 . S
O543 Co537 2.052 . S
O543 C539 1.241 . S
O544 Co532 2.137 . S
O544 C535 1.247 . S
O545 Co532 2.244 . S
O545 C535 1.272 . S
O545 Co537 2.135 . S
Co546 O547 2.216 . S
Co546 O548 2.091 . S
Co546 O550 2.004 . S
Co546 O556 2.021 . S
Co546 O558 2.137 . S
Co546 O559 2.244 . S
O547 Co546 2.216 . S
O547 C554 1.247 . S
O548 Co546 2.091 . S
O548 C554 1.261 . S
C549 O558 1.247 . S
C549 O559 1.272 . S
O550 Co546 2.004 . S
O550 C555 1.259 . S
Co551 O552 2.061 . S
Co551 O557 2.052 . S
Co551 O559 2.135 . S
O552 Co551 2.061 . S
O552 C555 1.235 . S
C553 O556 1.238 . S
C553 O557 1.241 . S
C554 O547 1.247 . S
C554 O548 1.261 . S
C555 O550 1.259 . S
C555 O552 1.235 . S
O556 Co546 2.021 . S
O556 C553 1.238 . S
O557 Co551 2.052 . S
O557 C553 1.241 . S
O558 Co546 2.137 . S
O558 C549 1.247 . S
O559 Co546 2.244 . S
O559 C549 1.272 . S
O559 Co551 2.135 . S
Co560 O561 2.216 . S
Co560 O562 2.091 . S
Co560 O564 2.004 . S
Co560 O570 2.021 . S
Co560 O572 2.137 . S
Co560 O573 2.244 . S
O561 Co560 2.216 . S
O561 C568 1.247 . S
O562 Co560 2.091 . S
O562 C568 1.261 . S
C563 O572 1.247 . S
C563 O573 1.272 . S
O564 Co560 2.004 . S
O564 C569 1.259 . S
Co565 O566 2.061 . S
Co565 O571 2.052 . S
Co565 O573 2.135 . S
O566 Co565 2.061 . S
O566 C569 1.235 . S
C567 O570 1.238 . S
C567 O571 1.241 . S
C568 O561 1.247 . S
C568 O562 1.261 . S
C569 O564 1.259 . S
C569 O566 1.235 . S
O570 Co560 2.021 . S
O570 C567 1.238 . S
O571 Co565 2.052 . S
O571 C567 1.241 . S
O572 Co560 2.137 . S
O572 C563 1.247 . S
O573 Co560 2.244 . S
O573 C563 1.272 . S
O573 Co565 2.135 . S
Co574 O575 2.216 . S
Co574 O576 2.091 . S
Co574 O578 2.004 . S
Co574 O584 2.021 . S
Co574 O586 2.137 . S
Co574 O587 2.244 . S
O575 Co574 2.216 . S
O575 C582 1.247 . S
O576 Co574 2.091 . S
O576 C582 1.261 . S
C577 O586 1.247 . S
C577 O587 1.272 . S
O578 Co574 2.004 . S
O578 C583 1.259 . S
Co579 O580 2.061 . S
Co579 O585 2.052 . S
Co579 O587 2.135 . S
O580 Co579 2.061 . S
O580 C583 1.235 . S
C581 O584 1.238 . S
C581 O585 1.241 . S
C582 O575 1.247 . S
C582 O576 1.261 . S
C583 O578 1.259 . S
C583 O580 1.235 . S
O584 Co574 2.021 . S
O584 C581 1.238 . S
O585 Co579 2.052 . S
O585 C581 1.241 . S
O586 Co574 2.137 . S
O586 C577 1.247 . S
O587 Co574 2.244 . S
O587 C577 1.272 . S
O587 Co579 2.135 . S
Co588 O589 2.236 . S
Co588 O590 2.091 1_545 S
Co588 O592 2.004 . S
Co588 O598 2.021 . S
Co588 O600 2.137 1_545 S
Co588 O601 2.244 . S
O589 Co588 2.236 . S
O589 C596 1.229 1_545 S
O590 Co588 2.091 1_565 S
O590 C596 1.261 . S
C591 O600 1.247 1_545 S
C591 O601 1.272 . S
O592 Co588 2.004 . S
O592 C597 1.259 . S
Co593 O594 2.061 . S
Co593 O599 2.052 . S
Co593 O601 2.135 . S
O594 Co593 2.061 . S
O594 C597 1.235 . S
C595 O598 1.238 . S
C595 O599 1.241 . S
C596 O589 1.229 1_565 S
C596 O590 1.261 . S
C597 O592 1.259 . S
C597 O594 1.235 . S
O598 Co588 2.021 . S
O598 C595 1.238 . S
O599 Co593 2.052 . S
O599 C595 1.241 . S
O600 Co588 2.137 1_565 S
O600 C591 1.247 1_565 S
O601 Co588 2.244 . S
O601 C591 1.272 . S
O601 Co593 2.135 . S
Co602 O603 2.216 . S
Co602 O604 2.091 . S
Co602 O606 2.004 . S
Co602 O612 2.021 . S
Co602 O614 2.137 . S
Co602 O615 2.244 . S
O603 Co602 2.216 . S
O603 C610 1.247 . S
O604 Co602 2.091 . S
O604 C610 1.261 . S
C605 O614 1.247 . S
C605 O615 1.272 . S
O606 Co602 2.004 . S
O606 C611 1.259 . S
Co607 O608 2.061 . S
Co607 O613 2.052 . S
Co607 O615 2.135 . S
O608 Co607 2.061 . S
O608 C611 1.235 . S
C609 O612 1.238 . S
C609 O613 1.241 . S
C610 O603 1.247 . S
C610 O604 1.261 . S
C611 O606 1.259 . S
C611 O608 1.235 . S
O612 Co602 2.021 . S
O612 C609 1.238 . S
O613 Co607 2.052 . S
O613 C609 1.241 . S
O614 Co602 2.137 . S
O614 C605 1.247 . S
O615 Co602 2.244 . S
O615 C605 1.272 . S
O615 Co607 2.135 . S
Co616 O617 2.216 . S
Co616 O618 2.091 . S
Co616 O620 2.004 . S
Co616 O626 2.021 . S
Co616 O628 2.137 . S
Co616 O629 2.244 . S
O617 Co616 2.216 . S
O617 C624 1.247 . S
O618 Co616 2.091 . S
O618 C624 1.261 . S
C619 O628 1.247 . S
C619 O629 1.272 . S
O620 Co616 2.004 . S
O620 C625 1.259 . S
Co621 O622 2.061 . S
Co621 O627 2.052 . S
Co621 O629 2.135 . S
O622 Co621 2.061 . S
O622 C625 1.235 . S
C623 O626 1.238 . S
C623 O627 1.241 . S
C624 O617 1.247 . S
C624 O618 1.261 . S
C625 O620 1.259 . S
C625 O622 1.235 . S
O626 Co616 2.021 . S
O626 C623 1.238 . S
O627 Co621 2.052 . S
O627 C623 1.241 . S
O628 Co616 2.137 . S
O628 C619 1.247 . S
O629 Co616 2.244 . S
O629 C619 1.272 . S
O629 Co621 2.135 . S
Co630 O631 2.216 . S
Co630 O632 2.091 . S
Co630 O634 2.004 . S
Co630 O640 2.021 . S
Co630 O642 2.137 . S
Co630 O643 2.244 . S
O631 Co630 2.216 . S
O631 C638 1.247 . S
O632 Co630 2.091 . S
O632 C638 1.261 . S
C633 O642 1.247 . S
C633 O643 1.272 . S
O634 Co630 2.004 . S
O634 C639 1.259 . S
Co635 O636 2.061 . S
Co635 O641 2.052 . S
Co635 O643 2.135 . S
O636 Co635 2.061 . S
O636 C639 1.235 . S
C637 O640 1.238 . S
C637 O641 1.241 . S
C638 O631 1.247 . S
C638 O632 1.261 . S
C639 O634 1.259 . S
C639 O636 1.235 . S
O640 Co630 2.021 . S
O640 C637 1.238 . S
O641 Co635 2.052 . S
O641 C637 1.241 . S
O642 Co630 2.137 . S
O642 C633 1.247 . S
O643 Co630 2.244 . S
O643 C633 1.272 . S
O643 Co635 2.135 . S
Co644 O645 2.219 . S
Co644 O646 2.091 1_565 S
Co644 O648 2.004 . S
Co644 O654 2.021 . S
Co644 O656 2.137 1_565 S
Co644 O657 2.244 . S
O645 Co644 2.219 . S
O645 C652 1.244 1_565 S
O646 Co644 2.091 1_545 S
O646 C652 1.261 . S
C647 O656 1.247 1_565 S
C647 O657 1.272 . S
O648 Co644 2.004 . S
O648 C653 1.259 . S
Co649 O650 2.061 . S
Co649 O655 2.052 . S
Co649 O657 2.135 . S
O650 Co649 2.061 . S
O650 C653 1.235 . S
C651 O654 1.238 . S
C651 O655 1.241 . S
C652 O645 1.244 1_545 S
C652 O646 1.261 . S
C653 O648 1.259 . S
C653 O650 1.235 . S
O654 Co644 2.021 . S
O654 C651 1.238 . S
O655 Co649 2.052 . S
O655 C651 1.241 . S
O656 Co644 2.137 1_545 S
O656 C647 1.247 1_545 S
O657 Co644 2.244 . S
O657 C647 1.272 . S
O657 Co649 2.135 . S
Co658 O659 2.236 . S
Co658 O660 2.091 1_545 S
Co658 O662 2.004 . S
Co658 O668 2.021 . S
Co658 O670 2.137 1_545 S
Co658 O671 2.244 . S
O659 Co658 2.236 . S
O659 C666 1.229 1_545 S
O660 Co658 2.091 1_565 S
O660 C666 1.261 . S
C661 O670 1.247 1_545 S
C661 O671 1.272 . S
O662 Co658 2.004 . S
O662 C667 1.259 . S
Co663 O664 2.061 . S
Co663 O669 2.052 . S
Co663 O671 2.135 . S
O664 Co663 2.061 . S
O664 C667 1.235 . S
C665 O668 1.238 . S
C665 O669 1.241 . S
C666 O659 1.229 1_565 S
C666 O660 1.261 . S
C667 O662 1.259 . S
C667 O664 1.235 . S
O668 Co658 2.021 . S
O668 C665 1.238 . S
O669 Co663 2.052 . S
O669 C665 1.241 . S
O670 Co658 2.137 1_565 S
O670 C661 1.247 1_565 S
O671 Co658 2.244 . S
O671 C661 1.272 . S
O671 Co663 2.135 . S
H672 C680 0.929 . S
H673 C682 0.930 . S
H674 C684 0.930 . S
H675 C687 0.929 . S
H676 C690 0.930 . S
H677 C692 0.960 . S
H678 C692 0.960 . S
H679 C692 0.960 . S
C680 H672 0.929 . S
C680 C681 1.377 . S
C680 C682 1.384 . S
C681 C680 1.377 . S
C681 C687 1.390 . S
C682 H673 0.930 . S
C682 C680 1.384 . S
C682 C683 1.372 . S
C683 C682 1.372 . S
C683 C684 1.400 . S
C683 C688 1.490 . S
C684 H674 0.930 . S
C684 C683 1.400 . S
C684 C687 1.386 . S
H685 C701 0.930 . S
H686 C702 0.931 . S
C687 H675 0.929 . S
C687 C681 1.390 . S
C687 C684 1.386 . S
C688 C683 1.490 . S
C688 C690 1.395 . S
C688 C691 1.403 . S
H689 C695 0.930 . S
C690 H676 0.930 . S
C690 C688 1.395 . S
C690 C693 1.403 . S
C691 C688 1.403 . S
C691 C692 1.524 . S
C691 C695 1.400 . S
C692 H677 0.960 . S
C692 H678 0.960 . S
C692 H679 0.960 . S
C692 C691 1.524 . S
C693 C690 1.403 . S
C693 C694 1.392 . S
C693 C697 1.495 . S
C694 C693 1.392 . S
C694 C695 1.385 . S
C694 C696 1.478 . S
C695 H689 0.930 . S
C695 C691 1.400 . S
C695 C694 1.385 . S
C696 C694 1.478 . S
C696 C698 1.381 . S
C696 C702 1.383 . S
C697 C693 1.495 . S
C697 H703 0.959 . S
C697 H704 0.961 . S
C697 H705 0.960 . S
C698 C696 1.381 . S
C698 C699 1.394 . S
C698 H706 0.930 . S
C699 C698 1.394 . S
C699 C700 1.383 . S
C699 H707 0.929 . S
C700 C699 1.383 . S
C700 C701 1.377 . S
C701 H685 0.930 . S
C701 C700 1.377 . S
C701 C702 1.379 . S
C702 H686 0.931 . S
C702 C696 1.383 . S
C702 C701 1.379 . S
H703 C697 0.959 . S
H704 C697 0.961 . S
H705 C697 0.960 . S
H706 C698 0.930 . S
H707 C699 0.929 . S
H708 C716 0.929 . S
H709 C718 0.930 . S
H710 C720 0.930 . S
H711 C723 0.929 . S
H712 C726 0.930 . S
H713 C728 0.960 . S
H714 C728 0.960 . S
H715 C728 0.960 . S
C716 H708 0.929 . S
C716 C717 1.377 . S
C716 C718 1.384 . S
C717 C716 1.377 . S
C717 C723 1.390 . S
C718 H709 0.930 . S
C718 C716 1.384 . S
C718 C719 1.372 . S
C719 C718 1.372 . S
C719 C720 1.400 . S
C719 C724 1.490 . S
C720 H710 0.930 . S
C720 C719 1.400 . S
C720 C723 1.386 . S
H721 C737 0.930 . S
H722 C738 0.931 . S
C723 H711 0.929 . S
C723 C717 1.390 . S
C723 C720 1.386 . S
C724 C719 1.490 . S
C724 C726 1.395 . S
C724 C727 1.403 . S
H725 C731 0.930 . S
C726 H712 0.930 . S
C726 C724 1.395 . S
C726 C729 1.403 . S
C727 C724 1.403 . S
C727 C728 1.524 . S
C727 C731 1.400 . S
C728 H713 0.960 . S
C728 H714 0.960 . S
C728 H715 0.960 . S
C728 C727 1.524 . S
C729 C726 1.403 . S
C729 C730 1.392 . S
C729 C733 1.495 . S
C730 C729 1.392 . S
C730 C731 1.385 . S
C730 C732 1.478 . S
C731 H725 0.930 . S
C731 C727 1.400 . S
C731 C730 1.385 . S
C732 C730 1.478 . S
C732 C734 1.381 . S
C732 C738 1.383 . S
C733 C729 1.495 . S
C733 H739 0.959 . S
C733 H740 0.961 . S
C733 H741 0.960 . S
C734 C732 1.381 . S
C734 C735 1.394 . S
C734 H742 0.930 . S
C735 C734 1.394 . S
C735 C736 1.383 . S
C735 H743 0.929 . S
C736 C735 1.383 . S
C736 C737 1.377 . S
C737 H721 0.930 . S
C737 C736 1.377 . S
C737 C738 1.379 . S
C738 H722 0.931 . S
C738 C732 1.383 . S
C738 C737 1.379 . S
H739 C733 0.959 . S
H740 C733 0.961 . S
H741 C733 0.960 . S
H742 C734 0.930 . S
H743 C735 0.929 . S
H744 C752 0.929 . S
H745 C754 0.930 . S
H746 C756 0.930 . S
H747 C759 0.929 . S
H748 C762 0.930 . S
H749 C764 0.960 . S
H750 C764 0.960 . S
H751 C764 0.960 . S
C752 H744 0.929 . S
C752 C753 1.377 . S
C752 C754 1.384 . S
C753 C752 1.377 . S
C753 C759 1.390 . S
C754 H745 0.930 . S
C754 C752 1.384 . S
C754 C755 1.372 . S
C755 C754 1.372 . S
C755 C756 1.400 . S
C755 C760 1.490 . S
C756 H746 0.930 . S
C756 C755 1.400 . S
C756 C759 1.386 . S
H757 C773 0.930 . S
H758 C774 0.931 . S
C759 H747 0.929 . S
C759 C753 1.390 . S
C759 C756 1.386 . S
C760 C755 1.490 . S
C760 C762 1.395 . S
C760 C763 1.403 . S
H761 C767 0.930 . S
C762 H748 0.930 . S
C762 C760 1.395 . S
C762 C765 1.403 . S
C763 C760 1.403 . S
C763 C764 1.524 . S
C763 C767 1.400 . S
C764 H749 0.960 . S
C764 H750 0.960 . S
C764 H751 0.960 . S
C764 C763 1.524 . S
C765 C762 1.403 . S
C765 C766 1.392 . S
C765 C769 1.495 . S
C766 C765 1.392 . S
C766 C767 1.385 . S
C766 C768 1.478 . S
C767 H761 0.930 . S
C767 C763 1.400 . S
C767 C766 1.385 . S
C768 C766 1.478 . S
C768 C770 1.381 . S
C768 C774 1.383 . S
C769 C765 1.495 . S
C769 H775 0.959 . S
C769 H776 0.961 . S
C769 H777 0.960 . S
C770 C768 1.381 . S
C770 C771 1.394 . S
C770 H778 0.930 . S
C771 C770 1.394 . S
C771 C772 1.383 . S
C771 H779 0.929 . S
C772 C771 1.383 . S
C772 C773 1.377 . S
C773 H757 0.930 . S
C773 C772 1.377 . S
C773 C774 1.379 . S
C774 H758 0.931 . S
C774 C768 1.383 . S
C774 C773 1.379 . S
H775 C769 0.959 . S
H776 C769 0.961 . S
H777 C769 0.960 . S
H778 C770 0.930 . S
H779 C771 0.929 . S
H780 C788 0.929 . S
H781 C790 0.930 . S
H782 C792 0.930 . S
H783 C795 0.929 . S
H784 C798 0.930 . S
H785 C800 0.960 . S
H786 C800 0.960 . S
H787 C800 0.960 . S
C788 H780 0.929 . S
C788 C789 1.377 . S
C788 C790 1.384 . S
C789 C788 1.377 . S
C789 C795 1.390 . S
C790 H781 0.930 . S
C790 C788 1.384 . S
C790 C791 1.372 . S
C791 C790 1.372 . S
C791 C792 1.400 . S
C791 C796 1.490 . S
C792 H782 0.930 . S
C792 C791 1.400 . S
C792 C795 1.386 . S
H793 C809 0.930 . S
H794 C810 0.931 . S
C795 H783 0.929 . S
C795 C789 1.390 . S
C795 C792 1.386 . S
C796 C791 1.490 . S
C796 C798 1.395 . S
C796 C799 1.403 . S
H797 C803 0.930 . S
C798 H784 0.930 . S
C798 C796 1.395 . S
C798 C801 1.403 . S
C799 C796 1.403 . S
C799 C800 1.524 . S
C799 C803 1.400 . S
C800 H785 0.960 . S
C800 H786 0.960 . S
C800 H787 0.960 . S
C800 C799 1.524 . S
C801 C798 1.403 . S
C801 C802 1.392 . S
C801 C805 1.495 . S
C802 C801 1.392 . S
C802 C803 1.385 . S
C802 C804 1.478 . S
C803 H797 0.930 . S
C803 C799 1.400 . S
C803 C802 1.385 . S
C804 C802 1.478 . S
C804 C806 1.381 . S
C804 C810 1.383 . S
C805 C801 1.495 . S
C805 H811 0.959 . S
C805 H812 0.961 . S
C805 H813 0.960 . S
C806 C804 1.381 . S
C806 C807 1.394 . S
C806 H814 0.930 . S
C807 C806 1.394 . S
C807 C808 1.383 . S
C807 H815 0.929 . S
C808 C807 1.383 . S
C808 C809 1.377 . S
C809 H793 0.930 . S
C809 C808 1.377 . S
C809 C810 1.379 . S
C810 H794 0.931 . S
C810 C804 1.383 . S
C810 C809 1.379 . S
H811 C805 0.959 . S
H812 C805 0.961 . S
H813 C805 0.960 . S
H814 C806 0.930 . S
H815 C807 0.929 . S
H816 C824 0.929 . S
H817 C826 0.930 . S
H818 C828 0.930 . S
H819 C831 0.929 . S
H820 C834 0.930 . S
H821 C836 0.960 . S
H822 C836 0.960 . S
H823 C836 0.960 . S
C824 H816 0.929 . S
C824 C825 1.377 . S
C824 C826 1.384 . S
C825 C824 1.377 . S
C825 C831 1.390 . S
C826 H817 0.930 . S
C826 C824 1.384 . S
C826 C827 1.372 . S
C827 C826 1.372 . S
C827 C828 1.400 . S
C827 C832 1.490 . S
C828 H818 0.930 . S
C828 C827 1.400 . S
C828 C831 1.386 . S
H829 C845 0.930 . S
H830 C846 0.931 . S
C831 H819 0.929 . S
C831 C825 1.390 . S
C831 C828 1.386 . S
C832 C827 1.490 . S
C832 C834 1.395 . S
C832 C835 1.403 . S
H833 C839 0.930 . S
C834 H820 0.930 . S
C834 C832 1.395 . S
C834 C837 1.403 . S
C835 C832 1.403 . S
C835 C836 1.524 . S
C835 C839 1.400 . S
C836 H821 0.960 . S
C836 H822 0.960 . S
C836 H823 0.960 . S
C836 C835 1.524 . S
C837 C834 1.403 . S
C837 C838 1.392 . S
C837 C841 1.495 . S
C838 C837 1.392 . S
C838 C839 1.385 . S
C838 C840 1.478 . S
C839 H833 0.930 . S
C839 C835 1.400 . S
C839 C838 1.385 . S
C840 C838 1.478 . S
C840 C842 1.381 . S
C840 C846 1.383 . S
C841 C837 1.495 . S
C841 H847 0.959 . S
C841 H848 0.961 . S
C841 H849 0.960 . S
C842 C840 1.381 . S
C842 C843 1.394 . S
C842 H850 0.930 . S
C843 C842 1.394 . S
C843 C844 1.383 . S
C843 H851 0.929 . S
C844 C843 1.383 . S
C844 C845 1.377 . S
C845 H829 0.930 . S
C845 C844 1.377 . S
C845 C846 1.379 . S
C846 H830 0.931 . S
C846 C840 1.383 . S
C846 C845 1.379 . S
H847 C841 0.959 . S
H848 C841 0.961 . S
H849 C841 0.960 . S
H850 C842 0.930 . S
H851 C843 0.929 . S
H852 C860 0.929 . S
H853 C862 0.930 . S
H854 C864 0.930 . S
H855 C867 0.929 . S
H856 C870 0.930 . S
H857 C872 0.960 . S
H858 C872 0.960 . S
H859 C872 0.960 . S
C860 H852 0.929 . S
C860 C861 1.377 . S
C860 C862 1.384 . S
C861 C860 1.377 . S
C861 C867 1.390 . S
C862 H853 0.930 . S
C862 C860 1.384 . S
C862 C863 1.372 . S
C863 C862 1.372 . S
C863 C864 1.400 . S
C863 C868 1.490 . S
C864 H854 0.930 . S
C864 C863 1.400 . S
C864 C867 1.386 . S
H865 C881 0.930 . S
H866 C882 0.931 . S
C867 H855 0.929 . S
C867 C861 1.390 . S
C867 C864 1.386 . S
C868 C863 1.490 . S
C868 C870 1.395 . S
C868 C871 1.403 . S
H869 C875 0.930 . S
C870 H856 0.930 . S
C870 C868 1.395 . S
C870 C873 1.403 . S
C871 C868 1.403 . S
C871 C872 1.524 . S
C871 C875 1.400 . S
C872 H857 0.960 . S
C872 H858 0.960 . S
C872 H859 0.960 . S
C872 C871 1.524 . S
C873 C870 1.403 . S
C873 C874 1.392 . S
C873 C877 1.495 . S
C874 C873 1.392 . S
C874 C875 1.385 . S
C874 C876 1.478 . S
C875 H869 0.930 . S
C875 C871 1.400 . S
C875 C874 1.385 . S
C876 C874 1.478 . S
C876 C878 1.381 . S
C876 C882 1.383 . S
C877 C873 1.495 . S
C877 H883 0.959 . S
C877 H884 0.961 . S
C877 H885 0.960 . S
C878 C876 1.381 . S
C878 C879 1.394 . S
C878 H886 0.930 . S
C879 C878 1.394 . S
C879 C880 1.383 . S
C879 H887 0.929 . S
C880 C879 1.383 . S
C880 C881 1.377 . S
C881 H865 0.930 . S
C881 C880 1.377 . S
C881 C882 1.379 . S
C882 H866 0.931 . S
C882 C876 1.383 . S
C882 C881 1.379 . S
H883 C877 0.959 . S
H884 C877 0.961 . S
H885 C877 0.960 . S
H886 C878 0.930 . S
H887 C879 0.929 . S
H888 C896 0.929 . S
H889 C898 0.930 . S
H890 C900 0.930 . S
H891 C903 0.929 . S
H892 C906 0.930 . S
H893 C908 0.960 . S
H894 C908 0.960 . S
H895 C908 0.960 . S
C896 H888 0.929 . S
C896 C897 1.377 . S
C896 C898 1.384 . S
C897 C896 1.377 . S
C897 C903 1.390 . S
C898 H889 0.930 . S
C898 C896 1.384 . S
C898 C899 1.372 . S
C899 C898 1.372 . S
C899 C900 1.400 . S
C899 C904 1.490 . S
C900 H890 0.930 . S
C900 C899 1.400 . S
C900 C903 1.386 . S
H901 C917 0.930 . S
H902 C918 0.931 . S
C903 H891 0.929 . S
C903 C897 1.390 . S
C903 C900 1.386 . S
C904 C899 1.490 . S
C904 C906 1.395 . S
C904 C907 1.403 . S
H905 C911 0.930 . S
C906 H892 0.930 . S
C906 C904 1.395 . S
C906 C909 1.403 . S
C907 C904 1.403 . S
C907 C908 1.524 . S
C907 C911 1.400 . S
C908 H893 0.960 . S
C908 H894 0.960 . S
C908 H895 0.960 . S
C908 C907 1.524 . S
C909 C906 1.403 . S
C909 C910 1.392 . S
C909 C913 1.495 . S
C910 C909 1.392 . S
C910 C911 1.385 . S
C910 C912 1.478 . S
C911 H905 0.930 . S
C911 C907 1.400 . S
C911 C910 1.385 . S
C912 C910 1.478 . S
C912 C914 1.381 . S
C912 C918 1.383 . S
C913 C909 1.495 . S
C913 H919 0.959 . S
C913 H920 0.961 . S
C913 H921 0.960 . S
C914 C912 1.381 . S
C914 C915 1.394 . S
C914 H922 0.930 . S
C915 C914 1.394 . S
C915 C916 1.383 . S
C915 H923 0.929 . S
C916 C915 1.383 . S
C916 C917 1.377 . S
C917 H901 0.930 . S
C917 C916 1.377 . S
C917 C918 1.379 . S
C918 H902 0.931 . S
C918 C912 1.383 . S
C918 C917 1.379 . S
H919 C913 0.959 . S
H920 C913 0.961 . S
H921 C913 0.960 . S
H922 C914 0.930 . S
H923 C915 0.929 . S
H924 C932 0.929 . S
H925 C934 0.930 . S
H926 C936 0.930 . S
H927 C939 0.929 . S
H928 C942 0.930 . S
H929 C944 0.960 . S
H930 C944 0.960 . S
H931 C944 0.960 . S
C932 H924 0.929 . S
C932 C933 1.377 . S
C932 C934 1.384 . S
C933 C932 1.377 . S
C933 C939 1.390 . S
C934 H925 0.930 . S
C934 C932 1.384 . S
C934 C935 1.372 . S
C935 C934 1.372 . S
C935 C936 1.400 . S
C935 C940 1.490 . S
C936 H926 0.930 . S
C936 C935 1.400 . S
C936 C939 1.386 . S
H937 C953 0.930 . S
H938 C954 0.931 . S
C939 H927 0.929 . S
C939 C933 1.390 . S
C939 C936 1.386 . S
C940 C935 1.490 . S
C940 C942 1.395 . S
C940 C943 1.403 . S
H941 C947 0.930 . S
C942 H928 0.930 . S
C942 C940 1.395 . S
C942 C945 1.403 . S
C943 C940 1.403 . S
C943 C944 1.524 . S
C943 C947 1.400 . S
C944 H929 0.960 . S
C944 H930 0.960 . S
C944 H931 0.960 . S
C944 C943 1.524 . S
C945 C942 1.403 . S
C945 C946 1.392 . S
C945 C949 1.495 . S
C946 C945 1.392 . S
C946 C947 1.385 . S
C946 C948 1.478 . S
C947 H941 0.930 . S
C947 C943 1.400 . S
C947 C946 1.385 . S
C948 C946 1.478 . S
C948 C950 1.381 . S
C948 C954 1.383 . S
C949 C945 1.495 . S
C949 H955 0.959 . S
C949 H956 0.961 . S
C949 H957 0.960 . S
C950 C948 1.381 . S
C950 C951 1.394 . S
C950 H958 0.930 . S
C951 C950 1.394 . S
C951 C952 1.383 . S
C951 H959 0.929 . S
C952 C951 1.383 . S
C952 C953 1.377 . S
C953 H937 0.930 . S
C953 C952 1.377 . S
C953 C954 1.379 . S
C954 H938 0.931 . S
C954 C948 1.383 . S
C954 C953 1.379 . S
H955 C949 0.959 . S
H956 C949 0.961 . S
H957 C949 0.960 . S
H958 C950 0.930 . S
H959 C951 0.929 . S
H960 C968 0.929 . S
H961 C970 0.930 . S
H962 C972 0.930 . S
H963 C975 0.929 . S
H964 C978 0.930 . S
H965 C980 0.960 . S
H966 C980 0.960 . S
H967 C980 0.960 . S
C968 H960 0.929 . S
C968 C969 1.377 . S
C968 C970 1.384 . S
C969 C968 1.377 . S
C969 C975 1.390 . S
C970 H961 0.930 . S
C970 C968 1.384 . S
C970 C971 1.372 . S
C971 C970 1.372 . S
C971 C972 1.400 . S
C971 C976 1.490 . S
C972 H962 0.930 . S
C972 C971 1.400 . S
C972 C975 1.386 . S
H973 C989 0.930 . S
H974 C990 0.931 . S
C975 H963 0.929 . S
C975 C969 1.390 . S
C975 C972 1.386 . S
C976 C971 1.490 . S
C976 C978 1.395 . S
C976 C979 1.403 . S
H977 C983 0.930 . S
C978 H964 0.930 . S
C978 C976 1.395 . S
C978 C981 1.403 . S
C979 C976 1.403 . S
C979 C980 1.524 . S
C979 C983 1.400 . S
C980 H965 0.960 . S
C980 H966 0.960 . S
C980 H967 0.960 . S
C980 C979 1.524 . S
C981 C978 1.403 . S
C981 C982 1.392 . S
C981 C985 1.495 . S
C982 C981 1.392 . S
C982 C983 1.385 . S
C982 C984 1.478 . S
C983 H977 0.930 . S
C983 C979 1.400 . S
C983 C982 1.385 . S
C984 C982 1.478 . S
C984 C986 1.381 . S
C984 C990 1.383 . S
C985 C981 1.495 . S
C985 H991 0.959 . S
C985 H992 0.961 . S
C985 H993 0.960 . S
C986 C984 1.381 . S
C986 C987 1.394 . S
C986 H994 0.930 . S
C987 C986 1.394 . S
C987 C988 1.383 . S
C987 H995 0.929 . S
C988 C987 1.383 . S
C988 C989 1.377 . S
C989 H973 0.930 . S
C989 C988 1.377 . S
C989 C990 1.379 . S
C990 H974 0.931 . S
C990 C984 1.383 . S
C990 C989 1.379 . S
H991 C985 0.959 . S
H992 C985 0.961 . S
H993 C985 0.960 . S
H994 C986 0.930 . S
H995 C987 0.929 . S
H996 C1004 0.929 . S
H997 C1006 0.930 . S
H998 C1008 0.930 . S
H999 C1011 0.929 . S
H1000 C1014 0.930 . S
H1001 C1016 0.960 . S
H1002 C1016 0.960 . S
H1003 C1016 0.960 . S
C1004 H996 0.929 . S
C1004 C1005 1.377 . S
C1004 C1006 1.384 . S
C1005 C1004 1.377 . S
C1005 C1011 1.390 . S
C1006 H997 0.930 . S
C1006 C1004 1.384 . S
C1006 C1007 1.372 . S
C1007 C1006 1.372 . S
C1007 C1008 1.400 . S
C1007 C1012 1.490 . S
C1008 H998 0.930 . S
C1008 C1007 1.400 . S
C1008 C1011 1.386 . S
H1009 C1025 0.930 . S
H1010 C1026 0.931 . S
C1011 H999 0.929 . S
C1011 C1005 1.390 . S
C1011 C1008 1.386 . S
C1012 C1007 1.490 . S
C1012 C1014 1.395 . S
C1012 C1015 1.403 . S
H1013 C1019 0.930 . S
C1014 H1000 0.930 . S
C1014 C1012 1.395 . S
C1014 C1017 1.403 . S
C1015 C1012 1.403 . S
C1015 C1016 1.524 . S
C1015 C1019 1.400 . S
C1016 H1001 0.960 . S
C1016 H1002 0.960 . S
C1016 H1003 0.960 . S
C1016 C1015 1.524 . S
C1017 C1014 1.403 . S
C1017 C1018 1.392 . S
C1017 C1021 1.495 . S
C1018 C1017 1.392 . S
C1018 C1019 1.385 . S
C1018 C1020 1.478 . S
C1019 H1013 0.930 . S
C1019 C1015 1.400 . S
C1019 C1018 1.385 . S
C1020 C1018 1.478 . S
C1020 C1022 1.381 . S
C1020 C1026 1.383 . S
C1021 C1017 1.495 . S
C1021 H1027 0.959 . S
C1021 H1028 0.961 . S
C1021 H1029 0.960 . S
C1022 C1020 1.381 . S
C1022 C1023 1.394 . S
C1022 H1030 0.930 . S
C1023 C1022 1.394 . S
C1023 C1024 1.383 . S
C1023 H1031 0.929 . S
C1024 C1023 1.383 . S
C1024 C1025 1.377 . S
C1025 H1009 0.930 . S
C1025 C1024 1.377 . S
C1025 C1026 1.379 . S
C1026 H1010 0.931 . S
C1026 C1020 1.383 . S
C1026 C1025 1.379 . S
H1027 C1021 0.959 . S
H1028 C1021 0.961 . S
H1029 C1021 0.960 . S
H1030 C1022 0.930 . S
H1031 C1023 0.929 . S
H1032 C1040 0.929 . S
H1033 C1042 0.930 . S
H1034 C1044 0.930 . S
H1035 C1047 0.929 . S
H1036 C1050 0.930 . S
H1037 C1052 0.960 . S
H1038 C1052 0.960 . S
H1039 C1052 0.960 . S
C1040 H1032 0.929 . S
C1040 C1041 1.377 . S
C1040 C1042 1.384 . S
C1041 C1040 1.377 . S
C1041 C1047 1.390 . S
C1042 H1033 0.930 . S
C1042 C1040 1.384 . S
C1042 C1043 1.372 . S
C1043 C1042 1.372 . S
C1043 C1044 1.400 . S
C1043 C1048 1.490 . S
C1044 H1034 0.930 . S
C1044 C1043 1.400 . S
C1044 C1047 1.386 . S
H1045 C1061 0.930 . S
H1046 C1062 0.931 . S
C1047 H1035 0.929 . S
C1047 C1041 1.390 . S
C1047 C1044 1.386 . S
C1048 C1043 1.490 . S
C1048 C1050 1.395 . S
C1048 C1051 1.403 . S
H1049 C1055 0.930 . S
C1050 H1036 0.930 . S
C1050 C1048 1.395 . S
C1050 C1053 1.403 . S
C1051 C1048 1.403 . S
C1051 C1052 1.524 . S
C1051 C1055 1.400 . S
C1052 H1037 0.960 . S
C1052 H1038 0.960 . S
C1052 H1039 0.960 . S
C1052 C1051 1.524 . S
C1053 C1050 1.403 . S
C1053 C1054 1.392 . S
C1053 C1057 1.495 . S
C1054 C1053 1.392 . S
C1054 C1055 1.385 . S
C1054 C1056 1.478 . S
C1055 H1049 0.930 . S
C1055 C1051 1.400 . S
C1055 C1054 1.385 . S
C1056 C1054 1.478 . S
C1056 C1058 1.381 . S
C1056 C1062 1.383 . S
C1057 C1053 1.495 . S
C1057 H1063 0.959 . S
C1057 H1064 0.961 . S
C1057 H1065 0.960 . S
C1058 C1056 1.381 . S
C1058 C1059 1.394 . S
C1058 H1066 0.930 . S
C1059 C1058 1.394 . S
C1059 C1060 1.383 . S
C1059 H1067 0.929 . S
C1060 C1059 1.383 . S
C1060 C1061 1.377 . S
C1061 H1045 0.930 . S
C1061 C1060 1.377 . S
C1061 C1062 1.379 . S
C1062 H1046 0.931 . S
C1062 C1056 1.383 . S
C1062 C1061 1.379 . S
H1063 C1057 0.959 . S
H1064 C1057 0.961 . S
H1065 C1057 0.960 . S
H1066 C1058 0.930 . S
H1067 C1059 0.929 . S
H1068 C1076 0.929 . S
H1069 C1078 0.930 . S
H1070 C1080 0.930 . S
H1071 C1083 0.929 . S
H1072 C1086 0.930 . S
H1073 C1088 0.960 . S
H1074 C1088 0.960 . S
H1075 C1088 0.960 . S
C1076 H1068 0.929 . S
C1076 C1077 1.377 . S
C1076 C1078 1.384 . S
C1077 C1076 1.377 . S
C1077 C1083 1.390 . S
C1078 H1069 0.930 . S
C1078 C1076 1.384 . S
C1078 C1079 1.372 . S
C1079 C1078 1.372 . S
C1079 C1080 1.400 . S
C1079 C1084 1.490 . S
C1080 H1070 0.930 . S
C1080 C1079 1.400 . S
C1080 C1083 1.386 . S
H1081 C1097 0.930 . S
H1082 C1098 0.931 . S
C1083 H1071 0.929 . S
C1083 C1077 1.390 . S
C1083 C1080 1.386 . S
C1084 C1079 1.490 . S
C1084 C1086 1.395 . S
C1084 C1087 1.403 . S
H1085 C1091 0.930 . S
C1086 H1072 0.930 . S
C1086 C1084 1.395 . S
C1086 C1089 1.403 . S
C1087 C1084 1.403 . S
C1087 C1088 1.524 . S
C1087 C1091 1.400 . S
C1088 H1073 0.960 . S
C1088 H1074 0.960 . S
C1088 H1075 0.960 . S
C1088 C1087 1.524 . S
C1089 C1086 1.403 . S
C1089 C1090 1.392 . S
C1089 C1093 1.495 . S
C1090 C1089 1.392 . S
C1090 C1091 1.385 . S
C1090 C1092 1.478 . S
C1091 H1085 0.930 . S
C1091 C1087 1.400 . S
C1091 C1090 1.385 . S
C1092 C1090 1.478 . S
C1092 C1094 1.381 . S
C1092 C1098 1.383 . S
C1093 C1089 1.495 . S
C1093 H1099 0.959 . S
C1093 H1100 0.961 . S
C1093 H1101 0.960 . S
C1094 C1092 1.381 . S
C1094 C1095 1.394 . S
C1094 H1102 0.930 . S
C1095 C1094 1.394 . S
C1095 C1096 1.383 . S
C1095 H1103 0.929 . S
C1096 C1095 1.383 . S
C1096 C1097 1.377 . S
C1097 H1081 0.930 . S
C1097 C1096 1.377 . S
C1097 C1098 1.379 . S
C1098 H1082 0.931 . S
C1098 C1092 1.383 . S
C1098 C1097 1.379 . S
H1099 C1093 0.959 . S
H1100 C1093 0.961 . S
H1101 C1093 0.960 . S
H1102 C1094 0.930 . S
H1103 C1095 0.929 . S
H1104 C1112 0.929 . S
H1105 C1114 0.930 . S
H1106 C1116 0.930 . S
H1107 C1119 0.929 . S
H1108 C1122 0.930 . S
H1109 C1124 0.960 . S
H1110 C1124 0.960 . S
H1111 C1124 0.960 . S
C1112 H1104 0.929 . S
C1112 C1113 1.377 . S
C1112 C1114 1.384 . S
C1113 C1112 1.377 . S
C1113 C1119 1.390 . S
C1114 H1105 0.930 . S
C1114 C1112 1.384 . S
C1114 C1115 1.372 . S
C1115 C1114 1.372 . S
C1115 C1116 1.400 . S
C1115 C1120 1.490 . S
C1116 H1106 0.930 . S
C1116 C1115 1.400 . S
C1116 C1119 1.386 . S
H1117 C1133 0.930 . S
H1118 C1134 0.931 . S
C1119 H1107 0.929 . S
C1119 C1113 1.390 . S
C1119 C1116 1.386 . S
C1120 C1115 1.490 . S
C1120 C1122 1.395 . S
C1120 C1123 1.403 . S
H1121 C1127 0.930 . S
C1122 H1108 0.930 . S
C1122 C1120 1.395 . S
C1122 C1125 1.403 . S
C1123 C1120 1.403 . S
C1123 C1124 1.524 . S
C1123 C1127 1.400 . S
C1124 H1109 0.960 . S
C1124 H1110 0.960 . S
C1124 H1111 0.960 . S
C1124 C1123 1.524 . S
C1125 C1122 1.403 . S
C1125 C1126 1.392 . S
C1125 C1129 1.495 . S
C1126 C1125 1.392 . S
C1126 C1127 1.385 . S
C1126 C1128 1.478 . S
C1127 H1121 0.930 . S
C1127 C1123 1.400 . S
C1127 C1126 1.385 . S
C1128 C1126 1.478 . S
C1128 C1130 1.381 . S
C1128 C1134 1.383 . S
C1129 C1125 1.495 . S
C1129 H1135 0.959 . S
C1129 H1136 0.961 . S
C1129 H1137 0.960 . S
C1130 C1128 1.381 . S
C1130 C1131 1.394 . S
C1130 H1138 0.930 . S
C1131 C1130 1.394 . S
C1131 C1132 1.383 . S
C1131 H1139 0.929 . S
C1132 C1131 1.383 . S
C1132 C1133 1.377 . S
C1133 H1117 0.930 . S
C1133 C1132 1.377 . S
C1133 C1134 1.379 . S
C1134 H1118 0.931 . S
C1134 C1128 1.383 . S
C1134 C1133 1.379 . S
H1135 C1129 0.959 . S
H1136 C1129 0.961 . S
H1137 C1129 0.960 . S
H1138 C1130 0.930 . S
H1139 C1131 0.929 . S
H1140 C1148 0.929 . S
H1141 C1150 0.930 . S
H1142 C1152 0.930 . S
H1143 C1155 0.929 . S
H1144 C1158 0.930 . S
H1145 C1160 0.960 . S
H1146 C1160 0.960 . S
H1147 C1160 0.960 . S
C1148 H1140 0.929 . S
C1148 C1149 1.377 . S
C1148 C1150 1.384 . S
C1149 C1148 1.377 . S
C1149 C1155 1.390 . S
C1150 H1141 0.930 . S
C1150 C1148 1.384 . S
C1150 C1151 1.372 . S
C1151 C1150 1.372 . S
C1151 C1152 1.400 . S
C1151 C1156 1.490 . S
C1152 H1142 0.930 . S
C1152 C1151 1.400 . S
C1152 C1155 1.386 . S
H1153 C1169 0.930 . S
H1154 C1170 0.931 . S
C1155 H1143 0.929 . S
C1155 C1149 1.390 . S
C1155 C1152 1.386 . S
C1156 C1151 1.490 . S
C1156 C1158 1.395 . S
C1156 C1159 1.403 . S
H1157 C1163 0.930 . S
C1158 H1144 0.930 . S
C1158 C1156 1.395 . S
C1158 C1161 1.403 . S
C1159 C1156 1.403 . S
C1159 C1160 1.524 . S
C1159 C1163 1.400 . S
C1160 H1145 0.960 . S
C1160 H1146 0.960 . S
C1160 H1147 0.960 . S
C1160 C1159 1.524 . S
C1161 C1158 1.403 . S
C1161 C1162 1.392 . S
C1161 C1165 1.495 . S
C1162 C1161 1.392 . S
C1162 C1163 1.385 . S
C1162 C1164 1.478 . S
C1163 H1157 0.930 . S
C1163 C1159 1.400 . S
C1163 C1162 1.385 . S
C1164 C1162 1.478 . S
C1164 C1166 1.381 . S
C1164 C1170 1.383 . S
C1165 C1161 1.495 . S
C1165 H1171 0.959 . S
C1165 H1172 0.961 . S
C1165 H1173 0.960 . S
C1166 C1164 1.381 . S
C1166 C1167 1.394 . S
C1166 H1174 0.930 . S
C1167 C1166 1.394 . S
C1167 C1168 1.383 . S
C1167 H1175 0.929 . S
C1168 C1167 1.383 . S
C1168 C1169 1.377 . S
C1169 H1153 0.930 . S
C1169 C1168 1.377 . S
C1169 C1170 1.379 . S
C1170 H1154 0.931 . S
C1170 C1164 1.383 . S
C1170 C1169 1.379 . S
H1171 C1165 0.959 . S
H1172 C1165 0.961 . S
H1173 C1165 0.960 . S
H1174 C1166 0.930 . S
H1175 C1167 0.929 . S
H1176 C1184 0.929 . S
H1177 C1186 0.930 . S
H1178 C1188 0.930 . S
H1179 C1191 0.929 . S
H1180 C1194 0.930 . S
H1181 C1196 0.960 . S
H1182 C1196 0.960 . S
H1183 C1196 0.960 . S
C1184 H1176 0.929 . S
C1184 C1185 1.377 . S
C1184 C1186 1.384 . S
C1185 C1184 1.377 . S
C1185 C1191 1.390 . S
C1186 H1177 0.930 . S
C1186 C1184 1.384 . S
C1186 C1187 1.372 . S
C1187 C1186 1.372 . S
C1187 C1188 1.400 . S
C1187 C1192 1.490 . S
C1188 H1178 0.930 . S
C1188 C1187 1.400 . S
C1188 C1191 1.386 . S
H1189 C1205 0.930 . S
H1190 C1206 0.931 . S
C1191 H1179 0.929 . S
C1191 C1185 1.390 . S
C1191 C1188 1.386 . S
C1192 C1187 1.490 . S
C1192 C1194 1.395 . S
C1192 C1195 1.403 . S
H1193 C1199 0.930 . S
C1194 H1180 0.930 . S
C1194 C1192 1.395 . S
C1194 C1197 1.403 . S
C1195 C1192 1.403 . S
C1195 C1196 1.524 . S
C1195 C1199 1.400 . S
C1196 H1181 0.960 . S
C1196 H1182 0.960 . S
C1196 H1183 0.960 . S
C1196 C1195 1.524 . S
C1197 C1194 1.403 . S
C1197 C1198 1.392 . S
C1197 C1201 1.495 . S
C1198 C1197 1.392 . S
C1198 C1199 1.385 . S
C1198 C1200 1.478 . S
C1199 H1193 0.930 . S
C1199 C1195 1.400 . S
C1199 C1198 1.385 . S
C1200 C1198 1.478 . S
C1200 C1202 1.381 . S
C1200 C1206 1.383 . S
C1201 C1197 1.495 . S
C1201 H1207 0.959 . S
C1201 H1208 0.961 . S
C1201 H1209 0.960 . S
C1202 C1200 1.381 . S
C1202 C1203 1.394 . S
C1202 H1210 0.930 . S
C1203 C1202 1.394 . S
C1203 C1204 1.383 . S
C1203 H1211 0.929 . S
C1204 C1203 1.383 . S
C1204 C1205 1.377 . S
C1205 H1189 0.930 . S
C1205 C1204 1.377 . S
C1205 C1206 1.379 . S
C1206 H1190 0.931 . S
C1206 C1200 1.383 . S
C1206 C1205 1.379 . S
H1207 C1201 0.959 . S
H1208 C1201 0.961 . S
H1209 C1201 0.960 . S
H1210 C1202 0.930 . S
H1211 C1203 0.929 . S
H1212 C1220 0.929 . S
H1213 C1222 0.930 . S
H1214 C1224 0.930 . S
H1215 C1227 0.929 . S
H1216 C1230 0.930 . S
H1217 C1232 0.960 . S
H1218 C1232 0.960 . S
H1219 C1232 0.960 . S
C1220 H1212 0.929 . S
C1220 C1221 1.377 . S
C1220 C1222 1.384 . S
C1221 C1220 1.377 . S
C1221 C1227 1.390 . S
C1222 H1213 0.930 . S
C1222 C1220 1.384 . S
C1222 C1223 1.372 . S
C1223 C1222 1.372 . S
C1223 C1224 1.400 . S
C1223 C1228 1.490 . S
C1224 H1214 0.930 . S
C1224 C1223 1.400 . S
C1224 C1227 1.386 . S
H1225 C1241 0.930 . S
H1226 C1242 0.931 . S
C1227 H1215 0.929 . S
C1227 C1221 1.390 . S
C1227 C1224 1.386 . S
C1228 C1223 1.490 . S
C1228 C1230 1.395 . S
C1228 C1231 1.403 . S
H1229 C1235 0.930 . S
C1230 H1216 0.930 . S
C1230 C1228 1.395 . S
C1230 C1233 1.403 . S
C1231 C1228 1.403 . S
C1231 C1232 1.524 . S
C1231 C1235 1.400 . S
C1232 H1217 0.960 . S
C1232 H1218 0.960 . S
C1232 H1219 0.960 . S
C1232 C1231 1.524 . S
C1233 C1230 1.403 . S
C1233 C1234 1.392 . S
C1233 C1237 1.495 . S
C1234 C1233 1.392 . S
C1234 C1235 1.385 . S
C1234 C1236 1.478 . S
C1235 H1229 0.930 . S
C1235 C1231 1.400 . S
C1235 C1234 1.385 . S
C1236 C1234 1.478 . S
C1236 C1238 1.381 . S
C1236 C1242 1.383 . S
C1237 C1233 1.495 . S
C1237 H1243 0.959 . S
C1237 H1244 0.961 . S
C1237 H1245 0.960 . S
C1238 C1236 1.381 . S
C1238 C1239 1.394 . S
C1238 H1246 0.930 . S
C1239 C1238 1.394 . S
C1239 C1240 1.383 . S
C1239 H1247 0.929 . S
C1240 C1239 1.383 . S
C1240 C1241 1.377 . S
C1241 H1225 0.930 . S
C1241 C1240 1.377 . S
C1241 C1242 1.379 . S
C1242 H1226 0.931 . S
C1242 C1236 1.383 . S
C1242 C1241 1.379 . S
H1243 C1237 0.959 . S
H1244 C1237 0.961 . S
H1245 C1237 0.960 . S
H1246 C1238 0.930 . S
H1247 C1239 0.929 . S
H1248 C1256 0.929 . S
H1249 C1258 0.930 . S
H1250 C1260 0.930 . S
H1251 C1263 0.929 . S
H1252 C1266 0.930 . S
H1253 C1268 0.960 . S
H1254 C1268 0.960 . S
H1255 C1268 0.960 . S
C1256 H1248 0.929 . S
C1256 C1257 1.377 . S
C1256 C1258 1.384 . S
C1257 C1256 1.377 . S
C1257 C1263 1.390 . S
C1258 H1249 0.930 . S
C1258 C1256 1.384 . S
C1258 C1259 1.372 . S
C1259 C1258 1.372 . S
C1259 C1260 1.400 . S
C1259 C1264 1.490 . S
C1260 H1250 0.930 . S
C1260 C1259 1.400 . S
C1260 C1263 1.386 . S
H1261 C1277 0.930 . S
H1262 C1278 0.931 . S
C1263 H1251 0.929 . S
C1263 C1257 1.390 . S
C1263 C1260 1.386 . S
C1264 C1259 1.490 . S
C1264 C1266 1.395 . S
C1264 C1267 1.403 . S
H1265 C1271 0.930 . S
C1266 H1252 0.930 . S
C1266 C1264 1.395 . S
C1266 C1269 1.403 . S
C1267 C1264 1.403 . S
C1267 C1268 1.524 . S
C1267 C1271 1.400 . S
C1268 H1253 0.960 . S
C1268 H1254 0.960 . S
C1268 H1255 0.960 . S
C1268 C1267 1.524 . S
C1269 C1266 1.403 . S
C1269 C1270 1.392 . S
C1269 C1273 1.495 . S
C1270 C1269 1.392 . S
C1270 C1271 1.385 . S
C1270 C1272 1.478 . S
C1271 H1265 0.930 . S
C1271 C1267 1.400 . S
C1271 C1270 1.385 . S
C1272 C1270 1.478 . S
C1272 C1274 1.381 . S
C1272 C1278 1.383 . S
C1273 C1269 1.495 . S
C1273 H1279 0.959 . S
C1273 H1280 0.961 . S
C1273 H1281 0.960 . S
C1274 C1272 1.381 . S
C1274 C1275 1.394 . S
C1274 H1282 0.930 . S
C1275 C1274 1.394 . S
C1275 C1276 1.383 . S
C1275 H1283 0.929 . S
C1276 C1275 1.383 . S
C1276 C1277 1.377 . S
C1277 H1261 0.930 . S
C1277 C1276 1.377 . S
C1277 C1278 1.379 . S
C1278 H1262 0.931 . S
C1278 C1272 1.383 . S
C1278 C1277 1.379 . S
H1279 C1273 0.959 . S
H1280 C1273 0.961 . S
H1281 C1273 0.960 . S
H1282 C1274 0.930 . S
H1283 C1275 0.929 . S
H1284 C1292 0.929 . S
H1285 C1294 0.930 . S
H1286 C1296 0.930 . S
H1287 C1299 0.929 . S
H1288 C1302 0.930 . S
H1289 C1304 0.960 . S
H1290 C1304 0.960 . S
H1291 C1304 0.960 . S
C1292 H1284 0.929 . S
C1292 C1293 1.377 . S
C1292 C1294 1.384 . S
C1293 C1292 1.377 . S
C1293 C1299 1.390 . S
C1294 H1285 0.930 . S
C1294 C1292 1.384 . S
C1294 C1295 1.372 . S
C1295 C1294 1.372 . S
C1295 C1296 1.400 . S
C1295 C1300 1.490 . S
C1296 H1286 0.930 . S
C1296 C1295 1.400 . S
C1296 C1299 1.386 . S
H1297 C1313 0.930 . S
H1298 C1314 0.931 . S
C1299 H1287 0.929 . S
C1299 C1293 1.390 . S
C1299 C1296 1.386 . S
C1300 C1295 1.490 . S
C1300 C1302 1.395 . S
C1300 C1303 1.403 . S
H1301 C1307 0.930 . S
C1302 H1288 0.930 . S
C1302 C1300 1.395 . S
C1302 C1305 1.403 . S
C1303 C1300 1.403 . S
C1303 C1304 1.524 . S
C1303 C1307 1.400 . S
C1304 H1289 0.960 . S
C1304 H1290 0.960 . S
C1304 H1291 0.960 . S
C1304 C1303 1.524 . S
C1305 C1302 1.403 . S
C1305 C1306 1.392 . S
C1305 C1309 1.495 . S
C1306 C1305 1.392 . S
C1306 C1307 1.385 . S
C1306 C1308 1.478 . S
C1307 H1301 0.930 . S
C1307 C1303 1.400 . S
C1307 C1306 1.385 . S
C1308 C1306 1.478 . S
C1308 C1310 1.381 . S
C1308 C1314 1.383 . S
C1309 C1305 1.495 . S
C1309 H1315 0.959 . S
C1309 H1316 0.961 . S
C1309 H1317 0.960 . S
C1310 C1308 1.381 . S
C1310 C1311 1.394 . S
C1310 H1318 0.930 . S
C1311 C1310 1.394 . S
C1311 C1312 1.383 . S
C1311 H1319 0.929 . S
C1312 C1311 1.383 . S
C1312 C1313 1.377 . S
C1313 H1297 0.930 . S
C1313 C1312 1.377 . S
C1313 C1314 1.379 . S
C1314 H1298 0.931 . S
C1314 C1308 1.383 . S
C1314 C1313 1.379 . S
H1315 C1309 0.959 . S
H1316 C1309 0.961 . S
H1317 C1309 0.960 . S
H1318 C1310 0.930 . S
H1319 C1311 0.929 . S
H1320 C1328 0.929 . S
H1321 C1330 0.930 . S
H1322 C1332 0.930 . S
H1323 C1335 0.929 . S
H1324 C1338 0.930 . S
H1325 C1340 0.960 . S
H1326 C1340 0.960 . S
H1327 C1340 0.960 . S
C1328 H1320 0.929 . S
C1328 C1329 1.377 . S
C1328 C1330 1.384 . S
C1329 C1328 1.377 . S
C1329 C1335 1.390 . S
C1330 H1321 0.930 . S
C1330 C1328 1.384 . S
C1330 C1331 1.372 . S
C1331 C1330 1.372 . S
C1331 C1332 1.400 . S
C1331 C1336 1.490 . S
C1332 H1322 0.930 . S
C1332 C1331 1.400 . S
C1332 C1335 1.386 . S
H1333 C1349 0.930 . S
H1334 C1350 0.931 . S
C1335 H1323 0.929 . S
C1335 C1329 1.390 . S
C1335 C1332 1.386 . S
C1336 C1331 1.490 . S
C1336 C1338 1.395 . S
C1336 C1339 1.403 . S
H1337 C1343 0.930 . S
C1338 H1324 0.930 . S
C1338 C1336 1.395 . S
C1338 C1341 1.403 . S
C1339 C1336 1.403 . S
C1339 C1340 1.524 . S
C1339 C1343 1.400 . S
C1340 H1325 0.960 . S
C1340 H1326 0.960 . S
C1340 H1327 0.960 . S
C1340 C1339 1.524 . S
C1341 C1338 1.403 . S
C1341 C1342 1.392 . S
C1341 C1345 1.495 . S
C1342 C1341 1.392 . S
C1342 C1343 1.385 . S
C1342 C1344 1.478 . S
C1343 H1337 0.930 . S
C1343 C1339 1.400 . S
C1343 C1342 1.385 . S
C1344 C1342 1.478 . S
C1344 C1346 1.381 . S
C1344 C1350 1.383 . S
C1345 C1341 1.495 . S
C1345 H1351 0.959 . S
C1345 H1352 0.961 . S
C1345 H1353 0.960 . S
C1346 C1344 1.381 . S
C1346 C1347 1.394 . S
C1346 H1354 0.930 . S
C1347 C1346 1.394 . S
C1347 C1348 1.383 . S
C1347 H1355 0.929 . S
C1348 C1347 1.383 . S
C1348 C1349 1.377 . S
C1349 H1333 0.930 . S
C1349 C1348 1.377 . S
C1349 C1350 1.379 . S
C1350 H1334 0.931 . S
C1350 C1344 1.383 . S
C1350 C1349 1.379 . S
H1351 C1345 0.959 . S
H1352 C1345 0.961 . S
H1353 C1345 0.960 . S
H1354 C1346 0.930 . S
H1355 C1347 0.929 . S
H1356 C1364 0.929 . S
H1357 C1366 0.930 . S
H1358 C1368 0.930 . S
H1359 C1371 0.929 . S
H1360 C1374 0.930 . S
H1361 C1376 0.960 . S
H1362 C1376 0.960 . S
H1363 C1376 0.960 . S
C1364 H1356 0.929 . S
C1364 C1365 1.377 . S
C1364 C1366 1.384 . S
C1365 C1364 1.377 . S
C1365 C1371 1.390 . S
C1366 H1357 0.930 . S
C1366 C1364 1.384 . S
C1366 C1367 1.372 . S
C1367 C1366 1.372 . S
C1367 C1368 1.400 . S
C1367 C1372 1.490 . S
C1368 H1358 0.930 . S
C1368 C1367 1.400 . S
C1368 C1371 1.386 . S
H1369 C1385 0.930 . S
H1370 C1386 0.931 . S
C1371 H1359 0.929 . S
C1371 C1365 1.390 . S
C1371 C1368 1.386 . S
C1372 C1367 1.490 . S
C1372 C1374 1.395 . S
C1372 C1375 1.403 . S
H1373 C1379 0.930 . S
C1374 H1360 0.930 . S
C1374 C1372 1.395 . S
C1374 C1377 1.403 . S
C1375 C1372 1.403 . S
C1375 C1376 1.524 . S
C1375 C1379 1.400 . S
C1376 H1361 0.960 . S
C1376 H1362 0.960 . S
C1376 H1363 0.960 . S
C1376 C1375 1.524 . S
C1377 C1374 1.403 . S
C1377 C1378 1.392 . S
C1377 C1381 1.495 . S
C1378 C1377 1.392 . S
C1378 C1379 1.385 . S
C1378 C1380 1.478 . S
C1379 H1373 0.930 . S
C1379 C1375 1.400 . S
C1379 C1378 1.385 . S
C1380 C1378 1.478 . S
C1380 C1382 1.381 . S
C1380 C1386 1.383 . S
C1381 C1377 1.495 . S
C1381 H1387 0.959 . S
C1381 H1388 0.961 . S
C1381 H1389 0.960 . S
C1382 C1380 1.381 . S
C1382 C1383 1.394 . S
C1382 H1390 0.930 . S
C1383 C1382 1.394 . S
C1383 C1384 1.383 . S
C1383 H1391 0.929 . S
C1384 C1383 1.383 . S
C1384 C1385 1.377 . S
C1385 H1369 0.930 . S
C1385 C1384 1.377 . S
C1385 C1386 1.379 . S
C1386 H1370 0.931 . S
C1386 C1380 1.383 . S
C1386 C1385 1.379 . S
H1387 C1381 0.959 . S
H1388 C1381 0.961 . S
H1389 C1381 0.960 . S
H1390 C1382 0.930 . S
H1391 C1383 0.929 . S
H1392 C1400 0.929 . S
H1393 C1402 0.930 . S
H1394 C1404 0.930 . S
H1395 C1407 0.929 . S
H1396 C1410 0.930 . S
H1397 C1412 0.960 . S
H1398 C1412 0.960 . S
H1399 C1412 0.960 . S
C1400 H1392 0.929 . S
C1400 C1401 1.377 . S
C1400 C1402 1.384 . S
C1401 C1400 1.377 . S
C1401 C1407 1.390 . S
C1402 H1393 0.930 . S
C1402 C1400 1.384 . S
C1402 C1403 1.372 . S
C1403 C1402 1.372 . S
C1403 C1404 1.400 . S
C1403 C1408 1.490 . S
C1404 H1394 0.930 . S
C1404 C1403 1.400 . S
C1404 C1407 1.386 . S
H1405 C1421 0.930 . S
H1406 C1422 0.931 . S
C1407 H1395 0.929 . S
C1407 C1401 1.390 . S
C1407 C1404 1.386 . S
C1408 C1403 1.490 . S
C1408 C1410 1.395 . S
C1408 C1411 1.403 . S
H1409 C1415 0.930 . S
C1410 H1396 0.930 . S
C1410 C1408 1.395 . S
C1410 C1413 1.403 . S
C1411 C1408 1.403 . S
C1411 C1412 1.524 . S
C1411 C1415 1.400 . S
C1412 H1397 0.960 . S
C1412 H1398 0.960 . S
C1412 H1399 0.960 . S
C1412 C1411 1.524 . S
C1413 C1410 1.403 . S
C1413 C1414 1.392 . S
C1413 C1417 1.495 . S
C1414 C1413 1.392 . S
C1414 C1415 1.385 . S
C1414 C1416 1.478 . S
C1415 H1409 0.930 . S
C1415 C1411 1.400 . S
C1415 C1414 1.385 . S
C1416 C1414 1.478 . S
C1416 C1418 1.381 . S
C1416 C1422 1.383 . S
C1417 C1413 1.495 . S
C1417 H1423 0.959 . S
C1417 H1424 0.961 . S
C1417 H1425 0.960 . S
C1418 C1416 1.381 . S
C1418 C1419 1.394 . S
C1418 H1426 0.930 . S
C1419 C1418 1.394 . S
C1419 C1420 1.383 . S
C1419 H1427 0.929 . S
C1420 C1419 1.383 . S
C1420 C1421 1.377 . S
C1421 H1405 0.930 . S
C1421 C1420 1.377 . S
C1421 C1422 1.379 . S
C1422 H1406 0.931 . S
C1422 C1416 1.383 . S
C1422 C1421 1.379 . S
H1423 C1417 0.959 . S
H1424 C1417 0.961 . S
H1425 C1417 0.960 . S
H1426 C1418 0.930 . S
H1427 C1419 0.929 . S
H1428 C1436 0.929 . S
H1429 C1438 0.930 . S
H1430 C1440 0.930 . S
H1431 C1443 0.929 . S
H1432 C1446 0.930 . S
H1433 C1448 0.960 . S
H1434 C1448 0.960 . S
H1435 C1448 0.960 . S
C1436 H1428 0.929 . S
C1436 C1437 1.377 . S
C1436 C1438 1.384 . S
C1437 C1436 1.377 . S
C1437 C1443 1.390 . S
C1438 H1429 0.930 . S
C1438 C1436 1.384 . S
C1438 C1439 1.372 . S
C1439 C1438 1.372 . S
C1439 C1440 1.400 . S
C1439 C1444 1.490 . S
C1440 H1430 0.930 . S
C1440 C1439 1.400 . S
C1440 C1443 1.386 . S
H1441 C1457 0.930 . S
H1442 C1458 0.931 . S
C1443 H1431 0.929 . S
C1443 C1437 1.390 . S
C1443 C1440 1.386 . S
C1444 C1439 1.490 . S
C1444 C1446 1.395 . S
C1444 C1447 1.403 . S
H1445 C1451 0.930 . S
C1446 H1432 0.930 . S
C1446 C1444 1.395 . S
C1446 C1449 1.403 . S
C1447 C1444 1.403 . S
C1447 C1448 1.524 . S
C1447 C1451 1.400 . S
C1448 H1433 0.960 . S
C1448 H1434 0.960 . S
C1448 H1435 0.960 . S
C1448 C1447 1.524 . S
C1449 C1446 1.403 . S
C1449 C1450 1.392 . S
C1449 C1453 1.495 . S
C1450 C1449 1.392 . S
C1450 C1451 1.385 . S
C1450 C1452 1.478 . S
C1451 H1445 0.930 . S
C1451 C1447 1.400 . S
C1451 C1450 1.385 . S
C1452 C1450 1.478 . S
C1452 C1454 1.381 . S
C1452 C1458 1.383 . S
C1453 C1449 1.495 . S
C1453 H1459 0.959 . S
C1453 H1460 0.961 . S
C1453 H1461 0.960 . S
C1454 C1452 1.381 . S
C1454 C1455 1.394 . S
C1454 H1462 0.930 . S
C1455 C1454 1.394 . S
C1455 C1456 1.383 . S
C1455 H1463 0.929 . S
C1456 C1455 1.383 . S
C1456 C1457 1.377 . S
C1457 H1441 0.930 . S
C1457 C1456 1.377 . S
C1457 C1458 1.379 . S
C1458 H1442 0.931 . S
C1458 C1452 1.383 . S
C1458 C1457 1.379 . S
H1459 C1453 0.959 . S
H1460 C1453 0.961 . S
H1461 C1453 0.960 . S
H1462 C1454 0.930 . S
H1463 C1455 0.929 . S
H1464 C1472 0.929 . S
H1465 C1474 0.930 . S
H1466 C1476 0.930 . S
H1467 C1479 0.929 . S
H1468 C1482 0.930 . S
H1469 C1484 0.960 . S
H1470 C1484 0.960 . S
H1471 C1484 0.960 . S
C1472 H1464 0.929 . S
C1472 C1473 1.377 . S
C1472 C1474 1.384 . S
C1473 C1472 1.377 . S
C1473 C1479 1.390 . S
C1474 H1465 0.930 . S
C1474 C1472 1.384 . S
C1474 C1475 1.372 . S
C1475 C1474 1.372 . S
C1475 C1476 1.400 . S
C1475 C1480 1.490 . S
C1476 H1466 0.930 . S
C1476 C1475 1.400 . S
C1476 C1479 1.386 . S
H1477 C1493 0.930 . S
H1478 C1494 0.931 . S
C1479 H1467 0.929 . S
C1479 C1473 1.390 . S
C1479 C1476 1.386 . S
C1480 C1475 1.490 . S
C1480 C1482 1.395 . S
C1480 C1483 1.403 . S
H1481 C1487 0.930 . S
C1482 H1468 0.930 . S
C1482 C1480 1.395 . S
C1482 C1485 1.403 . S
C1483 C1480 1.403 . S
C1483 C1484 1.524 . S
C1483 C1487 1.400 . S
C1484 H1469 0.960 . S
C1484 H1470 0.960 . S
C1484 H1471 0.960 . S
C1484 C1483 1.524 . S
C1485 C1482 1.403 . S
C1485 C1486 1.392 . S
C1485 C1489 1.495 . S
C1486 C1485 1.392 . S
C1486 C1487 1.385 . S
C1486 C1488 1.478 . S
C1487 H1481 0.930 . S
C1487 C1483 1.400 . S
C1487 C1486 1.385 . S
C1488 C1486 1.478 . S
C1488 C1490 1.381 . S
C1488 C1494 1.383 . S
C1489 C1485 1.495 . S
C1489 H1495 0.959 . S
C1489 H1496 0.961 . S
C1489 H1497 0.960 . S
C1490 C1488 1.381 . S
C1490 C1491 1.394 . S
C1490 H1498 0.930 . S
C1491 C1490 1.394 . S
C1491 C1492 1.383 . S
C1491 H1499 0.929 . S
C1492 C1491 1.383 . S
C1492 C1493 1.377 . S
C1493 H1477 0.930 . S
C1493 C1492 1.377 . S
C1493 C1494 1.379 . S
C1494 H1478 0.931 . S
C1494 C1488 1.383 . S
C1494 C1493 1.379 . S
H1495 C1489 0.959 . S
H1496 C1489 0.961 . S
H1497 C1489 0.960 . S
H1498 C1490 0.930 . S
H1499 C1491 0.929 . S
H1500 C1508 0.929 . S
H1501 C1510 0.930 . S
H1502 C1512 0.930 . S
H1503 C1515 0.929 . S
H1504 C1518 0.930 . S
H1505 C1520 0.960 . S
H1506 C1520 0.960 . S
H1507 C1520 0.960 . S
C1508 H1500 0.929 . S
C1508 C1509 1.377 . S
C1508 C1510 1.384 . S
C1509 C1508 1.377 . S
C1509 C1515 1.390 . S
C1510 H1501 0.930 . S
C1510 C1508 1.384 . S
C1510 C1511 1.372 . S
C1511 C1510 1.372 . S
C1511 C1512 1.400 . S
C1511 C1516 1.490 . S
C1512 H1502 0.930 . S
C1512 C1511 1.400 . S
C1512 C1515 1.386 . S
H1513 C1529 0.930 . S
H1514 C1530 0.931 . S
C1515 H1503 0.929 . S
C1515 C1509 1.390 . S
C1515 C1512 1.386 . S
C1516 C1511 1.490 . S
C1516 C1518 1.395 . S
C1516 C1519 1.403 . S
H1517 C1523 0.930 . S
C1518 H1504 0.930 . S
C1518 C1516 1.395 . S
C1518 C1521 1.403 . S
C1519 C1516 1.403 . S
C1519 C1520 1.524 . S
C1519 C1523 1.400 . S
C1520 H1505 0.960 . S
C1520 H1506 0.960 . S
C1520 H1507 0.960 . S
C1520 C1519 1.524 . S
C1521 C1518 1.403 . S
C1521 C1522 1.392 . S
C1521 C1525 1.495 . S
C1522 C1521 1.392 . S
C1522 C1523 1.385 . S
C1522 C1524 1.478 . S
C1523 H1517 0.930 . S
C1523 C1519 1.400 . S
C1523 C1522 1.385 . S
C1524 C1522 1.478 . S
C1524 C1526 1.381 . S
C1524 C1530 1.383 . S
C1525 C1521 1.495 . S
C1525 H1531 0.959 . S
C1525 H1532 0.961 . S
C1525 H1533 0.960 . S
C1526 C1524 1.381 . S
C1526 C1527 1.394 . S
C1526 H1534 0.930 . S
C1527 C1526 1.394 . S
C1527 C1528 1.383 . S
C1527 H1535 0.929 . S
C1528 C1527 1.383 . S
C1528 C1529 1.377 . S
C1529 H1513 0.930 . S
C1529 C1528 1.377 . S
C1529 C1530 1.379 . S
C1530 H1514 0.931 . S
C1530 C1524 1.383 . S
C1530 C1529 1.379 . S
H1531 C1525 0.959 . S
H1532 C1525 0.961 . S
H1533 C1525 0.960 . S
H1534 C1526 0.930 . S
H1535 C1527 0.929 . S
H1536 C1544 0.929 . S
H1537 C1546 0.930 . S
H1538 C1548 0.930 . S
H1539 C1551 0.929 . S
H1540 C1554 0.930 . S
H1541 C1556 0.960 . S
H1542 C1556 0.960 . S
H1543 C1556 0.960 . S
C1544 H1536 0.929 . S
C1544 C1545 1.377 . S
C1544 C1546 1.384 . S
C1545 C1544 1.377 . S
C1545 C1551 1.390 . S
C1546 H1537 0.930 . S
C1546 C1544 1.384 . S
C1546 C1547 1.372 . S
C1547 C1546 1.372 . S
C1547 C1548 1.400 . S
C1547 C1552 1.490 . S
C1548 H1538 0.930 . S
C1548 C1547 1.400 . S
C1548 C1551 1.386 . S
H1549 C1565 0.930 . S
H1550 C1566 0.931 . S
C1551 H1539 0.929 . S
C1551 C1545 1.390 . S
C1551 C1548 1.386 . S
C1552 C1547 1.490 . S
C1552 C1554 1.395 . S
C1552 C1555 1.403 . S
H1553 C1559 0.930 . S
C1554 H1540 0.930 . S
C1554 C1552 1.395 . S
C1554 C1557 1.403 . S
C1555 C1552 1.403 . S
C1555 C1556 1.524 . S
C1555 C1559 1.400 . S
C1556 H1541 0.960 . S
C1556 H1542 0.960 . S
C1556 H1543 0.960 . S
C1556 C1555 1.524 . S
C1557 C1554 1.403 . S
C1557 C1558 1.392 . S
C1557 C1561 1.495 . S
C1558 C1557 1.392 . S
C1558 C1559 1.385 . S
C1558 C1560 1.478 . S
C1559 H1553 0.930 . S
C1559 C1555 1.400 . S
C1559 C1558 1.385 . S
C1560 C1558 1.478 . S
C1560 C1562 1.381 . S
C1560 C1566 1.383 . S
C1561 C1557 1.495 . S
C1561 H1567 0.959 . S
C1561 H1568 0.961 . S
C1561 H1569 0.960 . S
C1562 C1560 1.381 . S
C1562 C1563 1.394 . S
C1562 H1570 0.930 . S
C1563 C1562 1.394 . S
C1563 C1564 1.383 . S
C1563 H1571 0.929 . S
C1564 C1563 1.383 . S
C1564 C1565 1.377 . S
C1565 H1549 0.930 . S
C1565 C1564 1.377 . S
C1565 C1566 1.379 . S
C1566 H1550 0.931 . S
C1566 C1560 1.383 . S
C1566 C1565 1.379 . S
H1567 C1561 0.959 . S
H1568 C1561 0.961 . S
H1569 C1561 0.960 . S
H1570 C1562 0.930 . S
H1571 C1563 0.929 . S
H1572 C1580 0.929 . S
H1573 C1582 0.930 . S
H1574 C1584 0.930 . S
H1575 C1587 0.942 . S
H1576 C1590 0.930 . S
H1577 C1592 0.960 . S
H1578 C1592 0.960 . S
H1579 C1592 0.960 . S
C1580 H1572 0.929 . S
C1580 C1581 1.377 . S
C1580 C1582 1.384 . S
C1581 C1580 1.377 . S
C1581 C1587 1.388 1_565 S
C1582 H1573 0.930 . S
C1582 C1580 1.384 . S
C1582 C1583 1.372 . S
C1583 C1582 1.372 . S
C1583 C1584 1.400 . S
C1583 C1588 1.490 . S
C1584 H1574 0.930 . S
C1584 C1583 1.400 . S
C1584 C1587 1.375 1_565 S
H1585 C1601 0.930 . S
H1586 C1602 0.931 . S
C1587 H1575 0.942 . S
C1587 C1581 1.388 1_545 S
C1587 C1584 1.375 1_545 S
C1588 C1583 1.490 . S
C1588 C1590 1.395 . S
C1588 C1591 1.403 . S
H1589 C1595 0.930 . S
C1590 H1576 0.930 . S
C1590 C1588 1.395 . S
C1590 C1593 1.403 . S
C1591 C1588 1.403 . S
C1591 C1592 1.524 . S
C1591 C1595 1.400 . S
C1592 H1577 0.960 . S
C1592 H1578 0.960 . S
C1592 H1579 0.960 . S
C1592 C1591 1.524 . S
C1593 C1590 1.403 . S
C1593 C1594 1.392 . S
C1593 C1597 1.495 . S
C1594 C1593 1.392 . S
C1594 C1595 1.385 . S
C1594 C1596 1.478 . S
C1595 H1589 0.930 . S
C1595 C1591 1.400 . S
C1595 C1594 1.385 . S
C1596 C1594 1.478 . S
C1596 C1598 1.381 . S
C1596 C1602 1.383 . S
C1597 C1593 1.495 . S
C1597 H1603 0.959 . S
C1597 H1604 0.961 . S
C1597 H1605 0.960 . S
C1598 C1596 1.381 . S
C1598 C1599 1.394 . S
C1598 H1606 0.930 . S
C1599 C1598 1.394 . S
C1599 C1600 1.383 . S
C1599 H1607 0.929 . S
C1600 C1599 1.383 . S
C1600 C1601 1.377 . S
C1601 H1585 0.930 . S
C1601 C1600 1.377 . S
C1601 C1602 1.379 . S
C1602 H1586 0.931 . S
C1602 C1596 1.383 . S
C1602 C1601 1.379 . S
H1603 C1597 0.959 . S
H1604 C1597 0.961 . S
H1605 C1597 0.960 . S
H1606 C1598 0.930 . S
H1607 C1599 0.929 . S
H1608 C1616 0.929 . S
H1609 C1618 0.930 . S
H1610 C1620 0.930 . S
H1611 C1623 0.929 . S
H1612 C1626 0.930 . S
H1613 C1628 0.960 . S
H1614 C1628 0.960 . S
H1615 C1628 0.960 . S
C1616 H1608 0.929 . S
C1616 C1617 1.377 . S
C1616 C1618 1.384 . S
C1617 C1616 1.377 . S
C1617 C1623 1.390 . S
C1618 H1609 0.930 . S
C1618 C1616 1.384 . S
C1618 C1619 1.372 . S
C1619 C1618 1.372 . S
C1619 C1620 1.400 . S
C1619 C1624 1.490 . S
C1620 H1610 0.930 . S
C1620 C1619 1.400 . S
C1620 C1623 1.386 . S
H1621 C1637 0.930 . S
H1622 C1638 0.931 . S
C1623 H1611 0.929 . S
C1623 C1617 1.390 . S
C1623 C1620 1.386 . S
C1624 C1619 1.490 . S
C1624 C1626 1.395 . S
C1624 C1627 1.403 . S
H1625 C1631 0.930 . S
C1626 H1612 0.930 . S
C1626 C1624 1.395 . S
C1626 C1629 1.403 . S
C1627 C1624 1.403 . S
C1627 C1628 1.524 . S
C1627 C1631 1.400 . S
C1628 H1613 0.960 . S
C1628 H1614 0.960 . S
C1628 H1615 0.960 . S
C1628 C1627 1.524 . S
C1629 C1626 1.403 . S
C1629 C1630 1.392 . S
C1629 C1633 1.495 . S
C1630 C1629 1.392 . S
C1630 C1631 1.385 . S
C1630 C1632 1.478 . S
C1631 H1625 0.930 . S
C1631 C1627 1.400 . S
C1631 C1630 1.385 . S
C1632 C1630 1.478 . S
C1632 C1634 1.381 . S
C1632 C1638 1.383 . S
C1633 C1629 1.495 . S
C1633 H1639 0.959 . S
C1633 H1640 0.961 . S
C1633 H1641 0.960 . S
C1634 C1632 1.381 . S
C1634 C1635 1.394 . S
C1634 H1642 0.930 . S
C1635 C1634 1.394 . S
C1635 C1636 1.383 . S
C1635 H1643 0.929 . S
C1636 C1635 1.383 . S
C1636 C1637 1.377 . S
C1637 H1621 0.930 . S
C1637 C1636 1.377 . S
C1637 C1638 1.379 . S
C1638 H1622 0.931 . S
C1638 C1632 1.383 . S
C1638 C1637 1.379 . S
H1639 C1633 0.959 . S
H1640 C1633 0.961 . S
H1641 C1633 0.960 . S
H1642 C1634 0.930 . S
H1643 C1635 0.929 . S
H1644 C1652 0.929 . S
H1645 C1654 0.930 . S
H1646 C1656 0.930 . S
H1647 C1659 0.980 . S
H1648 C1662 0.930 . S
H1649 C1664 0.960 . S
H1650 C1664 0.960 1_556 S
H1651 C1664 0.960 . S
C1652 H1644 0.929 . S
C1652 C1653 1.377 . S
C1652 C1654 1.384 . S
C1653 C1652 1.377 . S
C1653 C1659 1.380 1_545 S
C1654 H1645 0.930 . S
C1654 C1652 1.384 . S
C1654 C1655 1.372 . S
C1655 C1654 1.372 . S
C1655 C1656 1.400 . S
C1655 C1660 1.490 . S
C1656 H1646 0.930 . S
C1656 C1655 1.400 . S
C1656 C1659 1.349 1_545 S
H1657 C1673 0.930 . S
H1658 C1674 0.931 . S
C1659 H1647 0.980 . S
C1659 C1653 1.380 1_565 S
C1659 C1656 1.349 1_565 S
C1660 C1655 1.490 . S
C1660 C1662 1.395 . S
C1660 C1663 1.403 1_556 S
H1661 C1667 0.930 . S
C1662 H1648 0.930 . S
C1662 C1660 1.395 . S
C1662 C1665 1.403 1_556 S
C1663 C1660 1.403 1_554 S
C1663 C1664 1.524 . S
C1663 C1667 1.400 . S
C1664 H1649 0.960 . S
C1664 H1650 0.960 1_554 S
C1664 H1651 0.960 . S
C1664 C1663 1.524 . S
C1665 C1662 1.403 1_554 S
C1665 C1666 1.392 . S
C1665 C1669 1.495 . S
C1666 C1665 1.392 . S
C1666 C1667 1.385 . S
C1666 C1668 1.478 . S
C1667 H1661 0.930 . S
C1667 C1663 1.400 . S
C1667 C1666 1.385 . S
C1668 C1666 1.478 . S
C1668 C1670 1.381 . S
C1668 C1674 1.383 . S
C1669 C1665 1.495 . S
C1669 H1675 0.959 1_554 S
C1669 H1676 0.961 . S
C1669 H1677 0.960 . S
C1670 C1668 1.381 . S
C1670 C1671 1.394 . S
C1670 H1678 0.930 . S
C1671 C1670 1.394 . S
C1671 C1672 1.383 . S
C1671 H1679 0.929 . S
C1672 C1671 1.383 . S
C1672 C1673 1.377 . S
C1673 H1657 0.930 . S
C1673 C1672 1.377 . S
C1673 C1674 1.379 . S
C1674 H1658 0.931 . S
C1674 C1668 1.383 . S
C1674 C1673 1.379 . S
H1675 C1669 0.959 1_556 S
H1676 C1669 0.961 . S
H1677 C1669 0.960 . S
H1678 C1670 0.930 . S
H1679 C1671 0.929 . S
H1680 C1688 0.929 . S
H1681 C1690 0.930 . S
H1682 C1692 0.930 . S
H1683 C1695 0.929 . S
H1684 C1698 0.930 . S
H1685 C1700 0.960 . S
H1686 C1700 0.960 . S
H1687 C1700 0.960 . S
C1688 H1680 0.929 . S
C1688 C1689 1.377 . S
C1688 C1690 1.384 . S
C1689 C1688 1.377 . S
C1689 C1695 1.390 . S
C1690 H1681 0.930 . S
C1690 C1688 1.384 . S
C1690 C1691 1.372 . S
C1691 C1690 1.372 . S
C1691 C1692 1.400 . S
C1691 C1696 1.490 . S
C1692 H1682 0.930 . S
C1692 C1691 1.400 . S
C1692 C1695 1.386 . S
H1693 C1709 0.930 . S
H1694 C1710 0.931 . S
C1695 H1683 0.929 . S
C1695 C1689 1.390 . S
C1695 C1692 1.386 . S
C1696 C1691 1.490 . S
C1696 C1698 1.395 . S
C1696 C1699 1.403 . S
H1697 C1703 0.930 . S
C1698 H1684 0.930 . S
C1698 C1696 1.395 . S
C1698 C1701 1.403 . S
C1699 C1696 1.403 . S
C1699 C1700 1.524 . S
C1699 C1703 1.400 . S
C1700 H1685 0.960 . S
C1700 H1686 0.960 . S
C1700 H1687 0.960 . S
C1700 C1699 1.524 . S
C1701 C1698 1.403 . S
C1701 C1702 1.392 . S
C1701 C1705 1.495 . S
C1702 C1701 1.392 . S
C1702 C1703 1.385 . S
C1702 C1704 1.478 . S
C1703 H1697 0.930 . S
C1703 C1699 1.400 . S
C1703 C1702 1.385 . S
C1704 C1702 1.478 . S
C1704 C1706 1.381 . S
C1704 C1710 1.383 . S
C1705 C1701 1.495 . S
C1705 H1711 0.959 . S
C1705 H1712 0.961 . S
C1705 H1713 0.960 . S
C1706 C1704 1.381 . S
C1706 C1707 1.394 . S
C1706 H1714 0.930 . S
C1707 C1706 1.394 . S
C1707 C1708 1.383 . S
C1707 H1715 0.929 . S
C1708 C1707 1.383 . S
C1708 C1709 1.377 . S
C1709 H1693 0.930 . S
C1709 C1708 1.377 . S
C1709 C1710 1.379 . S
C1710 H1694 0.931 . S
C1710 C1704 1.383 . S
C1710 C1709 1.379 . S
H1711 C1705 0.959 . S
H1712 C1705 0.961 . S
H1713 C1705 0.960 . S
H1714 C1706 0.930 . S
H1715 C1707 0.929 . S
H1716 C1724 0.929 . S
H1717 C1726 0.930 . S
H1718 C1728 0.930 . S
H1719 C1731 0.929 . S
H1720 C1734 0.930 . S
H1721 C1736 0.960 . S
H1722 C1736 0.960 . S
H1723 C1736 0.960 . S
C1724 H1716 0.929 . S
C1724 C1725 1.377 1_545 S
C1724 C1726 1.384 1_545 S
C1725 C1724 1.377 1_565 S
C1725 C1731 1.390 . S
C1726 H1717 0.930 . S
C1726 C1724 1.384 1_565 S
C1726 C1727 1.372 . S
C1727 C1726 1.372 . S
C1727 C1728 1.400 . S
C1727 C1732 1.490 . S
C1728 H1718 0.930 . S
C1728 C1727 1.400 . S
C1728 C1731 1.386 . S
H1729 C1745 0.930 . S
H1730 C1746 0.931 . S
C1731 H1719 0.929 . S
C1731 C1725 1.390 . S
C1731 C1728 1.386 . S
C1732 C1727 1.490 . S
C1732 C1734 1.395 . S
C1732 C1735 1.403 . S
H1733 C1739 0.930 . S
C1734 H1720 0.930 . S
C1734 C1732 1.395 . S
C1734 C1737 1.403 . S
C1735 C1732 1.403 . S
C1735 C1736 1.524 . S
C1735 C1739 1.400 . S
C1736 H1721 0.960 . S
C1736 H1722 0.960 . S
C1736 H1723 0.960 . S
C1736 C1735 1.524 . S
C1737 C1734 1.403 . S
C1737 C1738 1.392 . S
C1737 C1741 1.495 . S
C1738 C1737 1.392 . S
C1738 C1739 1.385 . S
C1738 C1740 1.478 . S
C1739 H1733 0.930 . S
C1739 C1735 1.400 . S
C1739 C1738 1.385 . S
C1740 C1738 1.478 . S
C1740 C1742 1.381 . S
C1740 C1746 1.383 . S
C1741 C1737 1.495 . S
C1741 H1747 0.959 . S
C1741 H1748 0.961 . S
C1741 H1749 0.960 . S
C1742 C1740 1.381 . S
C1742 C1743 1.394 . S
C1742 H1750 0.930 . S
C1743 C1742 1.394 . S
C1743 C1744 1.383 . S
C1743 H1751 0.929 . S
C1744 C1743 1.383 . S
C1744 C1745 1.377 . S
C1745 H1729 0.930 . S
C1745 C1744 1.377 . S
C1745 C1746 1.379 . S
C1746 H1730 0.931 . S
C1746 C1740 1.383 . S
C1746 C1745 1.379 . S
H1747 C1741 0.959 . S
H1748 C1741 0.961 . S
H1749 C1741 0.960 . S
H1750 C1742 0.930 . S
H1751 C1743 0.929 . S
H1752 C1760 0.929 . S
H1753 C1762 0.930 . S
H1754 C1764 0.930 . S
H1755 C1767 0.929 . S
H1756 C1770 0.930 . S
H1757 C1772 0.960 . S
H1758 C1772 0.960 . S
H1759 C1772 0.960 . S
C1760 H1752 0.929 . S
C1760 C1761 1.377 . S
C1760 C1762 1.384 . S
C1761 C1760 1.377 . S
C1761 C1767 1.390 . S
C1762 H1753 0.930 . S
C1762 C1760 1.384 . S
C1762 C1763 1.372 . S
C1763 C1762 1.372 . S
C1763 C1764 1.400 . S
C1763 C1768 1.490 . S
C1764 H1754 0.930 . S
C1764 C1763 1.400 . S
C1764 C1767 1.386 . S
H1765 C1781 0.930 . S
H1766 C1782 0.931 . S
C1767 H1755 0.929 . S
C1767 C1761 1.390 . S
C1767 C1764 1.386 . S
C1768 C1763 1.490 . S
C1768 C1770 1.395 . S
C1768 C1771 1.403 . S
H1769 C1775 0.930 . S
C1770 H1756 0.930 . S
C1770 C1768 1.395 . S
C1770 C1773 1.403 . S
C1771 C1768 1.403 . S
C1771 C1772 1.524 . S
C1771 C1775 1.400 . S
C1772 H1757 0.960 . S
C1772 H1758 0.960 . S
C1772 H1759 0.960 . S
C1772 C1771 1.524 . S
C1773 C1770 1.403 . S
C1773 C1774 1.392 . S
C1773 C1777 1.495 . S
C1774 C1773 1.392 . S
C1774 C1775 1.385 . S
C1774 C1776 1.478 . S
C1775 H1769 0.930 . S
C1775 C1771 1.400 . S
C1775 C1774 1.385 . S
C1776 C1774 1.478 . S
C1776 C1778 1.381 . S
C1776 C1782 1.383 . S
C1777 C1773 1.495 . S
C1777 H1783 0.959 . S
C1777 H1784 0.961 . S
C1777 H1785 0.960 . S
C1778 C1776 1.381 . S
C1778 C1779 1.394 . S
C1778 H1786 0.930 . S
C1779 C1778 1.394 . S
C1779 C1780 1.383 . S
C1779 H1787 0.929 . S
C1780 C1779 1.383 . S
C1780 C1781 1.377 . S
C1781 H1765 0.930 . S
C1781 C1780 1.377 . S
C1781 C1782 1.379 . S
C1782 H1766 0.931 . S
C1782 C1776 1.383 . S
C1782 C1781 1.379 . S
H1783 C1777 0.959 . S
H1784 C1777 0.961 . S
H1785 C1777 0.960 . S
H1786 C1778 0.930 . S
H1787 C1779 0.929 . S
H1788 C1796 0.929 1_565 S
H1789 C1798 0.930 . S
H1790 C1800 0.930 . S
H1791 C1803 0.929 . S
H1792 C1806 0.931 1_554 S
H1793 C1808 0.960 . S
H1794 C1808 0.960 . S
H1795 C1808 0.960 . S
C1796 H1788 0.929 1_545 S
C1796 C1797 1.377 . S
C1796 C1798 1.384 . S
C1797 C1796 1.377 . S
C1797 C1803 1.390 . S
C1798 H1789 0.930 . S
C1798 C1796 1.384 . S
C1798 C1799 1.372 . S
C1799 C1798 1.372 . S
C1799 C1800 1.400 . S
C1799 C1804 1.490 . S
C1800 H1790 0.930 . S
C1800 C1799 1.400 . S
C1800 C1803 1.386 . S
H1801 C1817 0.930 . S
H1802 C1818 0.931 . S
C1803 H1791 0.929 . S
C1803 C1797 1.390 . S
C1803 C1800 1.386 . S
C1804 C1799 1.490 . S
C1804 C1806 1.395 1_554 S
C1804 C1807 1.419 . S
H1805 C1811 0.930 . S
C1806 H1792 0.931 1_556 S
C1806 C1804 1.395 1_556 S
C1806 C1809 1.403 . S
C1807 C1804 1.419 . S
C1807 C1808 1.549 . S
C1807 C1811 1.358 1_554 S
C1808 H1793 0.960 . S
C1808 H1794 0.960 . S
C1808 H1795 0.960 . S
C1808 C1807 1.549 . S
C1809 C1806 1.403 . S
C1809 C1810 1.392 . S
C1809 C1813 1.495 . S
C1810 C1809 1.392 . S
C1810 C1811 1.385 . S
C1810 C1812 1.478 . S
C1811 H1805 0.930 . S
C1811 C1807 1.358 1_556 S
C1811 C1810 1.385 . S
C1812 C1810 1.478 . S
C1812 C1814 1.381 . S
C1812 C1818 1.383 . S
C1813 C1809 1.495 . S
C1813 H1819 0.959 . S
C1813 H1820 0.961 . S
C1813 H1821 0.960 . S
C1814 C1812 1.381 . S
C1814 C1815 1.394 . S
C1814 H1822 0.930 . S
C1815 C1814 1.394 . S
C1815 C1816 1.383 . S
C1815 H1823 0.929 . S
C1816 C1815 1.383 . S
C1816 C1817 1.377 . S
C1817 H1801 0.930 . S
C1817 C1816 1.377 . S
C1817 C1818 1.379 . S
C1818 H1802 0.931 . S
C1818 C1812 1.383 . S
C1818 C1817 1.379 . S
H1819 C1813 0.959 . S
H1820 C1813 0.961 . S
H1821 C1813 0.960 . S
H1822 C1814 0.930 . S
H1823 C1815 0.929 . S
H1824 C1832 0.929 . S
H1825 C1834 0.930 . S
H1826 C1836 0.930 . S
H1827 C1839 0.929 . S
H1828 C1842 0.930 . S
H1829 C1844 0.960 . S
H1830 C1844 0.960 . S
H1831 C1844 0.960 . S
C1832 H1824 0.929 . S
C1832 C1833 1.377 . S
C1832 C1834 1.384 . S
C1833 C1832 1.377 . S
C1833 C1839 1.390 . S
C1834 H1825 0.930 . S
C1834 C1832 1.384 . S
C1834 C1835 1.372 . S
C1835 C1834 1.372 . S
C1835 C1836 1.400 . S
C1835 C1840 1.490 . S
C1836 H1826 0.930 . S
C1836 C1835 1.400 . S
C1836 C1839 1.386 . S
H1837 C1853 0.930 . S
H1838 C1854 0.931 . S
C1839 H1827 0.929 . S
C1839 C1833 1.390 . S
C1839 C1836 1.386 . S
C1840 C1835 1.490 . S
C1840 C1842 1.395 . S
C1840 C1843 1.403 . S
H1841 C1847 0.930 . S
C1842 H1828 0.930 . S
C1842 C1840 1.395 . S
C1842 C1845 1.403 . S
C1843 C1840 1.403 . S
C1843 C1844 1.524 . S
C1843 C1847 1.400 . S
C1844 H1829 0.960 . S
C1844 H1830 0.960 . S
C1844 H1831 0.960 . S
C1844 C1843 1.524 . S
C1845 C1842 1.403 . S
C1845 C1846 1.392 . S
C1845 C1849 1.495 . S
C1846 C1845 1.392 . S
C1846 C1847 1.385 . S
C1846 C1848 1.478 . S
C1847 H1841 0.930 . S
C1847 C1843 1.400 . S
C1847 C1846 1.385 . S
C1848 C1846 1.478 . S
C1848 C1850 1.381 . S
C1848 C1854 1.383 . S
C1849 C1845 1.495 . S
C1849 H1855 0.959 . S
C1849 H1856 0.961 . S
C1849 H1857 0.960 . S
C1850 C1848 1.381 . S
C1850 C1851 1.394 . S
C1850 H1858 0.930 . S
C1851 C1850 1.394 . S
C1851 C1852 1.383 . S
C1851 H1859 0.929 . S
C1852 C1851 1.383 . S
C1852 C1853 1.377 . S
C1853 H1837 0.930 . S
C1853 C1852 1.377 . S
C1853 C1854 1.379 . S
C1854 H1838 0.931 . S
C1854 C1848 1.383 . S
C1854 C1853 1.379 . S
H1855 C1849 0.959 . S
H1856 C1849 0.961 . S
H1857 C1849 0.960 . S
H1858 C1850 0.930 . S
H1859 C1851 0.929 . S
H1860 C1868 0.929 . S
H1861 C1870 0.930 . S
H1862 C1872 0.930 . S
H1863 C1875 0.906 1_655 S
H1864 C1878 0.930 . S
H1865 C1880 0.960 . S
H1866 C1880 0.968 . S
H1867 C1880 0.960 1_565 S
C1868 H1860 0.929 . S
C1868 C1869 1.377 . S
C1868 C1870 1.384 . S
C1869 C1868 1.377 . S
C1869 C1875 1.390 . S
C1870 H1861 0.930 . S
C1870 C1868 1.384 . S
C1870 C1871 1.372 . S
C1871 C1870 1.372 . S
C1871 C1872 1.400 . S
C1871 C1876 1.490 . S
C1872 H1862 0.930 . S
C1872 C1871 1.400 . S
C1872 C1875 1.386 . S
H1873 C1889 0.930 . S
H1874 C1890 0.931 . S
C1875 H1863 0.906 1_455 S
C1875 C1869 1.390 . S
C1875 C1872 1.386 . S
C1876 C1871 1.490 . S
C1876 C1878 1.395 . S
C1876 C1879 1.403 1_565 S
H1877 C1883 0.930 . S
C1878 H1864 0.930 . S
C1878 C1876 1.395 . S
C1878 C1881 1.403 1_565 S
C1879 C1876 1.403 1_545 S
C1879 C1880 1.524 . S
C1879 C1883 1.400 . S
C1880 H1865 0.960 . S
C1880 H1866 0.968 . S
C1880 H1867 0.960 1_545 S
C1880 C1879 1.524 . S
C1881 C1878 1.403 1_545 S
C1881 C1882 1.392 . S
C1881 C1885 1.495 . S
C1882 C1881 1.392 . S
C1882 C1883 1.385 . S
C1882 C1884 1.478 . S
C1883 H1877 0.930 . S
C1883 C1879 1.400 . S
C1883 C1882 1.385 . S
C1884 C1882 1.478 . S
C1884 C1886 1.381 . S
C1884 C1890 1.383 . S
C1885 C1881 1.495 . S
C1885 H1891 0.959 1_545 S
C1885 H1892 0.961 . S
C1885 H1893 0.960 . S
C1886 C1884 1.381 . S
C1886 C1887 1.394 . S
C1886 H1894 0.930 . S
C1887 C1886 1.394 . S
C1887 C1888 1.383 . S
C1887 H1895 0.929 . S
C1888 C1887 1.383 . S
C1888 C1889 1.377 . S
C1889 H1873 0.930 . S
C1889 C1888 1.377 . S
C1889 C1890 1.379 . S
C1890 H1874 0.931 . S
C1890 C1884 1.383 . S
C1890 C1889 1.379 . S
H1891 C1885 0.959 1_565 S
H1892 C1885 0.961 . S
H1893 C1885 0.960 . S
H1894 C1886 0.930 . S
H1895 C1887 0.929 . S
H1896 C1904 0.929 . S
H1897 C1906 0.930 . S
H1898 C1908 0.930 . S
H1899 C1911 0.929 . S
H1900 C1914 0.930 . S
H1901 C1916 0.960 . S
H1902 C1916 0.960 . S
H1903 C1916 0.960 . S
C1904 H1896 0.929 . S
C1904 C1905 1.377 . S
C1904 C1906 1.384 . S
C1905 C1904 1.377 . S
C1905 C1911 1.390 . S
C1906 H1897 0.930 . S
C1906 C1904 1.384 . S
C1906 C1907 1.372 . S
C1907 C1906 1.372 . S
C1907 C1908 1.400 . S
C1907 C1912 1.490 . S
C1908 H1898 0.930 . S
C1908 C1907 1.400 . S
C1908 C1911 1.386 . S
H1909 C1925 0.930 . S
H1910 C1926 0.931 . S
C1911 H1899 0.929 . S
C1911 C1905 1.390 . S
C1911 C1908 1.386 . S
C1912 C1907 1.490 . S
C1912 C1914 1.395 . S
C1912 C1915 1.403 . S
H1913 C1919 0.930 . S
C1914 H1900 0.930 . S
C1914 C1912 1.395 . S
C1914 C1917 1.403 . S
C1915 C1912 1.403 . S
C1915 C1916 1.524 . S
C1915 C1919 1.400 . S
C1916 H1901 0.960 . S
C1916 H1902 0.960 . S
C1916 H1903 0.960 . S
C1916 C1915 1.524 . S
C1917 C1914 1.403 . S
C1917 C1918 1.392 . S
C1917 C1921 1.495 . S
C1918 C1917 1.392 . S
C1918 C1919 1.385 . S
C1918 C1920 1.478 . S
C1919 H1913 0.930 . S
C1919 C1915 1.400 . S
C1919 C1918 1.385 . S
C1920 C1918 1.478 . S
C1920 C1922 1.381 . S
C1920 C1926 1.383 . S
C1921 C1917 1.495 . S
C1921 H1927 0.959 . S
C1921 H1928 0.961 . S
C1921 H1929 0.960 . S
C1922 C1920 1.381 . S
C1922 C1923 1.394 . S
C1922 H1930 0.930 . S
C1923 C1922 1.394 . S
C1923 C1924 1.383 . S
C1923 H1931 0.929 . S
C1924 C1923 1.383 . S
C1924 C1925 1.377 . S
C1925 H1909 0.930 . S
C1925 C1924 1.377 . S
C1925 C1926 1.379 . S
C1926 H1910 0.931 . S
C1926 C1920 1.383 . S
C1926 C1925 1.379 . S
H1927 C1921 0.959 . S
H1928 C1921 0.961 . S
H1929 C1921 0.960 . S
H1930 C1922 0.930 . S
H1931 C1923 0.929 . S
H1932 C1940 0.929 . S
H1933 C1942 0.930 . S
H1934 C1944 0.930 . S
H1935 C1947 0.929 . S
H1936 C1950 0.930 . S
H1937 C1952 0.960 . S
H1938 C1952 0.960 . S
H1939 C1952 0.960 . S
C1940 H1932 0.929 . S
C1940 C1941 1.377 . S
C1940 C1942 1.384 . S
C1941 C1940 1.377 . S
C1941 C1947 1.390 . S
C1942 H1933 0.930 . S
C1942 C1940 1.384 . S
C1942 C1943 1.372 . S
C1943 C1942 1.372 . S
C1943 C1944 1.400 . S
C1943 C1948 1.490 . S
C1944 H1934 0.930 . S
C1944 C1943 1.400 . S
C1944 C1947 1.386 . S
H1945 C1961 0.930 . S
H1946 C1962 0.931 . S
C1947 H1935 0.929 . S
C1947 C1941 1.390 . S
C1947 C1944 1.386 . S
C1948 C1943 1.490 . S
C1948 C1950 1.395 1_545 S
C1948 C1951 1.403 . S
H1949 C1955 0.930 . S
C1950 H1936 0.930 . S
C1950 C1948 1.395 1_565 S
C1950 C1953 1.403 . S
C1951 C1948 1.403 . S
C1951 C1952 1.524 . S
C1951 C1955 1.400 1_545 S
C1952 H1937 0.960 . S
C1952 H1938 0.960 . S
C1952 H1939 0.960 . S
C1952 C1951 1.524 . S
C1953 C1950 1.403 . S
C1953 C1954 1.392 . S
C1953 C1957 1.495 . S
C1954 C1953 1.392 . S
C1954 C1955 1.385 . S
C1954 C1956 1.478 . S
C1955 H1949 0.930 . S
C1955 C1951 1.400 1_565 S
C1955 C1954 1.385 . S
C1956 C1954 1.478 . S
C1956 C1958 1.381 . S
C1956 C1962 1.383 . S
C1957 C1953 1.495 . S
C1957 H1963 0.959 . S
C1957 H1964 0.961 . S
C1957 H1965 0.960 . S
C1958 C1956 1.381 . S
C1958 C1959 1.394 . S
C1958 H1966 0.930 . S
C1959 C1958 1.394 . S
C1959 C1960 1.383 . S
C1959 H1967 0.929 . S
C1960 C1959 1.383 . S
C1960 C1961 1.377 . S
C1961 H1945 0.930 . S
C1961 C1960 1.377 . S
C1961 C1962 1.379 . S
C1962 H1946 0.931 . S
C1962 C1956 1.383 . S
C1962 C1961 1.379 . S
H1963 C1957 0.959 . S
H1964 C1957 0.961 . S
H1965 C1957 0.960 . S
H1966 C1958 0.930 . S
H1967 C1959 0.929 . S
H1968 C1976 0.929 . S
H1969 C1978 0.930 . S
H1970 C1980 0.930 . S
H1971 C1983 0.929 . S
H1972 C1986 0.930 . S
H1973 C1988 0.960 . S
H1974 C1988 0.960 . S
H1975 C1988 0.960 . S
C1976 H1968 0.929 . S
C1976 C1977 1.377 . S
C1976 C1978 1.384 . S
C1977 C1976 1.377 . S
C1977 C1983 1.390 . S
C1978 H1969 0.930 . S
C1978 C1976 1.384 . S
C1978 C1979 1.372 . S
C1979 C1978 1.372 . S
C1979 C1980 1.400 . S
C1979 C1984 1.490 . S
C1980 H1970 0.930 . S
C1980 C1979 1.400 . S
C1980 C1983 1.386 . S
H1981 C1997 0.930 . S
H1982 C1998 0.931 . S
C1983 H1971 0.929 . S
C1983 C1977 1.390 . S
C1983 C1980 1.386 . S
C1984 C1979 1.490 . S
C1984 C1986 1.395 . S
C1984 C1987 1.403 . S
H1985 C1991 0.930 . S
C1986 H1972 0.930 . S
C1986 C1984 1.395 . S
C1986 C1989 1.403 . S
C1987 C1984 1.403 . S
C1987 C1988 1.524 . S
C1987 C1991 1.400 . S
C1988 H1973 0.960 . S
C1988 H1974 0.960 . S
C1988 H1975 0.960 . S
C1988 C1987 1.524 . S
C1989 C1986 1.403 . S
C1989 C1990 1.392 . S
C1989 C1993 1.495 . S
C1990 C1989 1.392 . S
C1990 C1991 1.385 . S
C1990 C1992 1.478 . S
C1991 H1985 0.930 . S
C1991 C1987 1.400 . S
C1991 C1990 1.385 . S
C1992 C1990 1.478 . S
C1992 C1994 1.381 . S
C1992 C1998 1.383 . S
C1993 C1989 1.495 . S
C1993 H1999 0.959 . S
C1993 H2000 0.961 . S
C1993 H2001 0.960 . S
C1994 C1992 1.381 . S
C1994 C1995 1.394 . S
C1994 H2002 0.930 . S
C1995 C1994 1.394 . S
C1995 C1996 1.383 . S
C1995 H2003 0.929 . S
C1996 C1995 1.383 . S
C1996 C1997 1.377 . S
C1997 H1981 0.930 . S
C1997 C1996 1.377 . S
C1997 C1998 1.379 . S
C1998 H1982 0.931 . S
C1998 C1992 1.383 . S
C1998 C1997 1.379 . S
H1999 C1993 0.959 . S
H2000 C1993 0.961 . S
H2001 C1993 0.960 . S
H2002 C1994 0.930 . S
H2003 C1995 0.929 . S
H2004 C2012 0.929 . S
H2005 C2014 0.930 . S
H2006 C2016 0.930 . S
H2007 C2019 0.929 . S
H2008 C2022 0.930 . S
H2009 C2024 0.960 . S
H2010 C2024 0.960 . S
H2011 C2024 0.960 . S
C2012 H2004 0.929 . S
C2012 C2013 1.377 . S
C2012 C2014 1.384 . S
C2013 C2012 1.377 . S
C2013 C2019 1.390 . S
C2014 H2005 0.930 . S
C2014 C2012 1.384 . S
C2014 C2015 1.372 . S
C2015 C2014 1.372 . S
C2015 C2016 1.400 . S
C2015 C2020 1.490 . S
C2016 H2006 0.930 . S
C2016 C2015 1.400 . S
C2016 C2019 1.386 . S
H2017 C2033 0.930 . S
H2018 C2034 0.931 . S
C2019 H2007 0.929 . S
C2019 C2013 1.390 . S
C2019 C2016 1.386 . S
C2020 C2015 1.490 . S
C2020 C2022 1.395 1_565 S
C2020 C2023 1.403 . S
H2021 C2027 0.930 . S
C2022 H2008 0.930 . S
C2022 C2020 1.395 1_545 S
C2022 C2025 1.403 . S
C2023 C2020 1.403 . S
C2023 C2024 1.524 . S
C2023 C2027 1.400 1_565 S
C2024 H2009 0.960 . S
C2024 H2010 0.960 . S
C2024 H2011 0.960 . S
C2024 C2023 1.524 . S
C2025 C2022 1.403 . S
C2025 C2026 1.392 . S
C2025 C2029 1.495 . S
C2026 C2025 1.392 . S
C2026 C2027 1.385 . S
C2026 C2028 1.478 . S
C2027 H2021 0.930 . S
C2027 C2023 1.400 1_545 S
C2027 C2026 1.385 . S
C2028 C2026 1.478 . S
C2028 C2030 1.381 . S
C2028 C2034 1.383 . S
C2029 C2025 1.495 . S
C2029 H2035 0.959 . S
C2029 H2036 0.961 . S
C2029 H2037 0.960 . S
C2030 C2028 1.381 . S
C2030 C2031 1.394 . S
C2030 H2038 0.930 . S
C2031 C2030 1.394 . S
C2031 C2032 1.383 . S
C2031 H2039 0.929 . S
C2032 C2031 1.383 . S
C2032 C2033 1.377 . S
C2033 H2017 0.930 . S
C2033 C2032 1.377 . S
C2033 C2034 1.379 . S
C2034 H2018 0.931 . S
C2034 C2028 1.383 . S
C2034 C2033 1.379 . S
H2035 C2029 0.959 . S
H2036 C2029 0.961 . S
H2037 C2029 0.960 . S
H2038 C2030 0.930 . S
H2039 C2031 0.929 . S
H2040 C2048 0.929 . S
H2041 C2050 0.930 . S
H2042 C2052 0.930 . S
H2043 C2055 0.929 . S
H2044 C2058 0.930 . S
H2045 C2060 0.960 . S
H2046 C2060 0.960 . S
H2047 C2060 0.960 . S
C2048 H2040 0.929 . S
C2048 C2049 1.377 . S
C2048 C2050 1.384 . S
C2049 C2048 1.377 . S
C2049 C2055 1.390 . S
C2050 H2041 0.930 . S
C2050 C2048 1.384 . S
C2050 C2051 1.372 . S
C2051 C2050 1.372 . S
C2051 C2052 1.400 . S
C2051 C2056 1.490 . S
C2052 H2042 0.930 . S
C2052 C2051 1.400 . S
C2052 C2055 1.386 . S
H2053 C2069 0.930 . S
H2054 C2070 0.931 . S
C2055 H2043 0.929 . S
C2055 C2049 1.390 . S
C2055 C2052 1.386 . S
C2056 C2051 1.490 . S
C2056 C2058 1.395 . S
C2056 C2059 1.403 . S
H2057 C2063 0.930 . S
C2058 H2044 0.930 . S
C2058 C2056 1.395 . S
C2058 C2061 1.403 . S
C2059 C2056 1.403 . S
C2059 C2060 1.524 . S
C2059 C2063 1.400 . S
C2060 H2045 0.960 . S
C2060 H2046 0.960 . S
C2060 H2047 0.960 . S
C2060 C2059 1.524 . S
C2061 C2058 1.403 . S
C2061 C2062 1.392 . S
C2061 C2065 1.495 . S
C2062 C2061 1.392 . S
C2062 C2063 1.385 . S
C2062 C2064 1.478 . S
C2063 H2057 0.930 . S
C2063 C2059 1.400 . S
C2063 C2062 1.385 . S
C2064 C2062 1.478 . S
C2064 C2066 1.381 . S
C2064 C2070 1.383 . S
C2065 C2061 1.495 . S
C2065 H2071 0.959 . S
C2065 H2072 0.961 . S
C2065 H2073 0.960 . S
C2066 C2064 1.381 . S
C2066 C2067 1.394 . S
C2066 H2074 0.930 . S
C2067 C2066 1.394 . S
C2067 C2068 1.383 . S
C2067 H2075 0.929 . S
C2068 C2067 1.383 . S
C2068 C2069 1.377 . S
C2069 H2053 0.930 . S
C2069 C2068 1.377 . S
C2069 C2070 1.379 . S
C2070 H2054 0.931 . S
C2070 C2064 1.383 . S
C2070 C2069 1.379 . S
H2071 C2065 0.959 . S
H2072 C2065 0.961 . S
H2073 C2065 0.960 . S
H2074 C2066 0.930 . S
H2075 C2067 0.929 . S
H2076 C2084 0.929 . S
H2077 C2086 0.930 . S
H2078 C2088 0.930 . S
H2079 C2091 0.929 . S
H2080 C2094 0.920 1_545 S
H2081 C2096 0.960 . S
H2082 C2096 0.960 . S
H2083 C2096 0.960 . S
C2084 H2076 0.929 . S
C2084 C2085 1.377 . S
C2084 C2086 1.384 . S
C2085 C2084 1.377 . S
C2085 C2091 1.390 . S
C2086 H2077 0.930 . S
C2086 C2084 1.384 . S
C2086 C2087 1.372 . S
C2087 C2086 1.372 . S
C2087 C2088 1.400 . S
C2087 C2092 1.490 . S
C2088 H2078 0.930 . S
C2088 C2087 1.400 . S
C2088 C2091 1.386 . S
H2089 C2105 0.930 . S
H2090 C2106 0.931 . S
C2091 H2079 0.929 . S
C2091 C2085 1.390 . S
C2091 C2088 1.386 . S
C2092 C2087 1.490 . S
C2092 C2094 1.395 . S
C2092 C2095 1.403 . S
H2093 C2099 0.930 . S
C2094 H2080 0.920 1_565 S
C2094 C2092 1.395 . S
C2094 C2097 1.403 1_565 S
C2095 C2092 1.403 . S
C2095 C2096 1.524 . S
C2095 C2099 1.400 . S
C2096 H2081 0.960 . S
C2096 H2082 0.960 . S
C2096 H2083 0.960 . S
C2096 C2095 1.524 . S
C2097 C2094 1.403 1_545 S
C2097 C2098 1.392 . S
C2097 C2101 1.495 . S
C2098 C2097 1.392 . S
C2098 C2099 1.385 1_545 S
C2098 C2100 1.478 . S
C2099 H2093 0.930 . S
C2099 C2095 1.400 . S
C2099 C2098 1.385 1_565 S
C2100 C2098 1.478 . S
C2100 C2102 1.381 . S
C2100 C2106 1.383 . S
C2101 C2097 1.495 . S
C2101 H2107 0.959 . S
C2101 H2108 0.961 . S
C2101 H2109 0.960 . S
C2102 C2100 1.381 . S
C2102 C2103 1.394 . S
C2102 H2110 0.930 . S
C2103 C2102 1.394 . S
C2103 C2104 1.383 . S
C2103 H2111 0.926 1_455 S
C2104 C2103 1.383 . S
C2104 C2105 1.377 . S
C2105 H2089 0.930 . S
C2105 C2104 1.377 . S
C2105 C2106 1.379 . S
C2106 H2090 0.931 . S
C2106 C2100 1.383 . S
C2106 C2105 1.379 . S
H2107 C2101 0.959 . S
H2108 C2101 0.961 . S
H2109 C2101 0.960 . S
H2110 C2102 0.930 . S
H2111 C2103 0.926 1_655 S
H2112 C2120 0.929 . S
H2113 C2122 0.930 . S
H2114 C2124 0.930 . S
H2115 C2127 0.929 . S
H2116 C2130 0.930 . S
H2117 C2132 0.960 . S
H2118 C2132 0.960 . S
H2119 C2132 0.960 . S
C2120 H2112 0.929 . S
C2120 C2121 1.377 . S
C2120 C2122 1.384 . S
C2121 C2120 1.377 . S
C2121 C2127 1.390 . S
C2122 H2113 0.930 . S
C2122 C2120 1.384 . S
C2122 C2123 1.372 . S
C2123 C2122 1.372 . S
C2123 C2124 1.400 . S
C2123 C2128 1.490 . S
C2124 H2114 0.930 . S
C2124 C2123 1.400 . S
C2124 C2127 1.386 . S
H2125 C2141 0.930 . S
H2126 C2142 0.931 . S
C2127 H2115 0.929 . S
C2127 C2121 1.390 . S
C2127 C2124 1.386 . S
C2128 C2123 1.490 . S
C2128 C2130 1.395 . S
C2128 C2131 1.403 . S
H2129 C2135 0.930 . S
C2130 H2116 0.930 . S
C2130 C2128 1.395 . S
C2130 C2133 1.403 . S
C2131 C2128 1.403 . S
C2131 C2132 1.524 . S
C2131 C2135 1.400 . S
C2132 H2117 0.960 . S
C2132 H2118 0.960 . S
C2132 H2119 0.960 . S
C2132 C2131 1.524 . S
C2133 C2130 1.403 . S
C2133 C2134 1.392 . S
C2133 C2137 1.495 . S
C2134 C2133 1.392 . S
C2134 C2135 1.385 . S
C2134 C2136 1.478 . S
C2135 H2129 0.930 . S
C2135 C2131 1.400 . S
C2135 C2134 1.385 . S
C2136 C2134 1.478 . S
C2136 C2138 1.381 . S
C2136 C2142 1.383 . S
C2137 C2133 1.495 . S
C2137 H2143 0.959 . S
C2137 H2144 0.961 . S
C2137 H2145 0.960 . S
C2138 C2136 1.381 . S
C2138 C2139 1.394 . S
C2138 H2146 0.930 . S
C2139 C2138 1.394 . S
C2139 C2140 1.383 . S
C2139 H2147 0.929 . S
C2140 C2139 1.383 . S
C2140 C2141 1.377 . S
C2141 H2125 0.930 . S
C2141 C2140 1.377 . S
C2141 C2142 1.379 . S
C2142 H2126 0.931 . S
C2142 C2136 1.383 . S
C2142 C2141 1.379 . S
H2143 C2137 0.959 . S
H2144 C2137 0.961 . S
H2145 C2137 0.960 . S
H2146 C2138 0.930 . S
H2147 C2139 0.929 . S
H2148 C2156 0.929 . S
H2149 C2158 0.930 . S
H2150 C2160 0.930 . S
H2151 C2163 0.929 . S
H2152 C2166 0.930 . S
H2153 C2168 0.960 . S
H2154 C2168 0.960 . S
H2155 C2168 0.960 . S
C2156 H2148 0.929 . S
C2156 C2157 1.377 . S
C2156 C2158 1.384 . S
C2157 C2156 1.377 . S
C2157 C2163 1.390 . S
C2158 H2149 0.930 . S
C2158 C2156 1.384 . S
C2158 C2159 1.372 . S
C2159 C2158 1.372 . S
C2159 C2160 1.400 . S
C2159 C2164 1.490 . S
C2160 H2150 0.930 . S
C2160 C2159 1.400 . S
C2160 C2163 1.386 . S
H2161 C2177 0.930 . S
H2162 C2178 0.931 . S
C2163 H2151 0.929 . S
C2163 C2157 1.390 . S
C2163 C2160 1.386 . S
C2164 C2159 1.490 . S
C2164 C2166 1.395 . S
C2164 C2167 1.403 . S
H2165 C2171 0.930 . S
C2166 H2152 0.930 . S
C2166 C2164 1.395 . S
C2166 C2169 1.403 . S
C2167 C2164 1.403 . S
C2167 C2168 1.524 . S
C2167 C2171 1.400 . S
C2168 H2153 0.960 . S
C2168 H2154 0.960 . S
C2168 H2155 0.960 . S
C2168 C2167 1.524 . S
C2169 C2166 1.403 . S
C2169 C2170 1.392 . S
C2169 C2173 1.495 . S
C2170 C2169 1.392 . S
C2170 C2171 1.385 . S
C2170 C2172 1.478 . S
C2171 H2165 0.930 . S
C2171 C2167 1.400 . S
C2171 C2170 1.385 . S
C2172 C2170 1.478 . S
C2172 C2174 1.381 . S
C2172 C2178 1.383 . S
C2173 C2169 1.495 . S
C2173 H2179 0.959 . S
C2173 H2180 0.961 . S
C2173 H2181 0.960 . S
C2174 C2172 1.381 . S
C2174 C2175 1.394 . S
C2174 H2182 0.930 . S
C2175 C2174 1.394 . S
C2175 C2176 1.383 . S
C2175 H2183 0.929 . S
C2176 C2175 1.383 . S
C2176 C2177 1.377 . S
C2177 H2161 0.930 . S
C2177 C2176 1.377 . S
C2177 C2178 1.379 . S
C2178 H2162 0.931 . S
C2178 C2172 1.383 . S
C2178 C2177 1.379 . S
H2179 C2173 0.959 . S
H2180 C2173 0.961 . S
H2181 C2173 0.960 . S
H2182 C2174 0.930 . S
H2183 C2175 0.929 . S
H2184 C2192 0.929 . S
H2185 C2194 0.930 1_556 S
H2186 C2196 0.930 . S
H2187 C2199 0.929 . S
H2188 C2202 0.930 . S
H2189 C2204 0.960 . S
H2190 C2204 0.960 . S
H2191 C2204 0.960 . S
C2192 H2184 0.929 . S
C2192 C2193 1.377 1_556 S
C2192 C2194 1.384 1_556 S
C2193 C2192 1.377 1_554 S
C2193 C2199 1.390 . S
C2194 H2185 0.930 1_554 S
C2194 C2192 1.384 1_554 S
C2194 C2195 1.372 . S
C2195 C2194 1.372 . S
C2195 C2196 1.400 . S
C2195 C2200 1.490 . S
C2196 H2186 0.930 . S
C2196 C2195 1.400 . S
C2196 C2199 1.386 . S
H2197 C2213 0.930 . S
H2198 C2214 0.931 . S
C2199 H2187 0.929 . S
C2199 C2193 1.390 . S
C2199 C2196 1.386 . S
C2200 C2195 1.490 . S
C2200 C2202 1.395 1_655 S
C2200 C2203 1.403 . S
H2201 C2207 0.930 . S
C2202 H2188 0.930 . S
C2202 C2200 1.395 1_455 S
C2202 C2205 1.403 . S
C2203 C2200 1.403 . S
C2203 C2204 1.524 . S
C2203 C2207 1.400 1_655 S
C2204 H2189 0.960 . S
C2204 H2190 0.960 . S
C2204 H2191 0.960 . S
C2204 C2203 1.524 . S
C2205 C2202 1.403 . S
C2205 C2206 1.392 . S
C2205 C2209 1.495 . S
C2206 C2205 1.392 . S
C2206 C2207 1.385 . S
C2206 C2208 1.478 . S
C2207 H2201 0.930 . S
C2207 C2203 1.400 1_455 S
C2207 C2206 1.385 . S
C2208 C2206 1.478 . S
C2208 C2210 1.381 . S
C2208 C2214 1.383 . S
C2209 C2205 1.495 . S
C2209 H2215 0.959 . S
C2209 H2216 0.961 . S
C2209 H2217 0.960 . S
C2210 C2208 1.381 . S
C2210 C2211 1.394 . S
C2210 H2218 0.930 . S
C2211 C2210 1.394 . S
C2211 C2212 1.383 . S
C2211 H2219 0.929 . S
C2212 C2211 1.383 . S
C2212 C2213 1.377 . S
C2213 H2197 0.930 . S
C2213 C2212 1.377 . S
C2213 C2214 1.379 . S
C2214 H2198 0.931 . S
C2214 C2208 1.383 . S
C2214 C2213 1.379 . S
H2215 C2209 0.959 . S
H2216 C2209 0.961 . S
H2217 C2209 0.960 . S
H2218 C2210 0.930 . S
H2219 C2211 0.929 . S
H2220 C2228 0.929 . S
H2221 C2230 0.930 . S
H2222 C2232 0.930 . S
H2223 C2235 0.929 . S
H2224 C2238 0.930 . S
H2225 C2240 0.960 . S
H2226 C2240 0.960 . S
H2227 C2240 0.960 . S
C2228 H2220 0.929 . S
C2228 C2229 1.377 . S
C2228 C2230 1.384 . S
C2229 C2228 1.377 . S
C2229 C2235 1.390 . S
C2230 H2221 0.930 . S
C2230 C2228 1.384 . S
C2230 C2231 1.372 . S
C2231 C2230 1.372 . S
C2231 C2232 1.400 . S
C2231 C2236 1.490 . S
C2232 H2222 0.930 . S
C2232 C2231 1.400 . S
C2232 C2235 1.386 . S
H2233 C2249 0.930 . S
H2234 C2250 0.931 . S
C2235 H2223 0.929 . S
C2235 C2229 1.390 . S
C2235 C2232 1.386 . S
C2236 C2231 1.490 . S
C2236 C2238 1.395 . S
C2236 C2239 1.403 . S
H2237 C2243 0.930 . S
C2238 H2224 0.930 . S
C2238 C2236 1.395 . S
C2238 C2241 1.403 . S
C2239 C2236 1.403 . S
C2239 C2240 1.524 . S
C2239 C2243 1.400 . S
C2240 H2225 0.960 . S
C2240 H2226 0.960 . S
C2240 H2227 0.960 . S
C2240 C2239 1.524 . S
C2241 C2238 1.403 . S
C2241 C2242 1.392 . S
C2241 C2245 1.495 . S
C2242 C2241 1.392 . S
C2242 C2243 1.385 . S
C2242 C2244 1.478 . S
C2243 H2237 0.930 . S
C2243 C2239 1.400 . S
C2243 C2242 1.385 . S
C2244 C2242 1.478 . S
C2244 C2246 1.381 . S
C2244 C2250 1.383 . S
C2245 C2241 1.495 . S
C2245 H2251 0.959 . S
C2245 H2252 0.961 . S
C2245 H2253 0.960 . S
C2246 C2244 1.381 . S
C2246 C2247 1.394 . S
C2246 H2254 0.930 . S
C2247 C2246 1.394 . S
C2247 C2248 1.383 . S
C2247 H2255 0.929 . S
C2248 C2247 1.383 . S
C2248 C2249 1.377 . S
C2249 H2233 0.930 . S
C2249 C2248 1.377 . S
C2249 C2250 1.379 . S
C2250 H2234 0.931 . S
C2250 C2244 1.383 . S
C2250 C2249 1.379 . S
H2251 C2245 0.959 . S
H2252 C2245 0.961 . S
H2253 C2245 0.960 . S
H2254 C2246 0.930 . S
H2255 C2247 0.929 . S
H2256 C2264 0.929 . S
H2257 C2266 0.930 . S
H2258 C2268 0.930 . S
H2259 C2271 0.944 . S
H2260 C2274 0.930 . S
H2261 C2276 0.960 . S
H2262 C2276 0.960 . S
H2263 C2276 0.978 . S
C2264 H2256 0.929 . S
C2264 C2265 1.377 . S
C2264 C2266 1.384 . S
C2265 C2264 1.377 . S
C2265 C2271 1.387 1_554 S
C2266 H2257 0.930 . S
C2266 C2264 1.384 . S
C2266 C2267 1.372 . S
C2267 C2266 1.372 . S
C2267 C2268 1.400 . S
C2267 C2272 1.490 . S
C2268 H2258 0.930 . S
C2268 C2267 1.400 . S
C2268 C2271 1.374 1_554 S
H2269 C2285 0.930 . S
H2270 C2286 0.931 . S
C2271 H2259 0.944 . S
C2271 C2265 1.387 1_556 S
C2271 C2268 1.374 1_556 S
C2272 C2267 1.490 . S
C2272 C2274 1.395 . S
C2272 C2275 1.403 1_455 S
H2273 C2279 0.930 . S
C2274 H2260 0.930 . S
C2274 C2272 1.395 . S
C2274 C2277 1.403 1_455 S
C2275 C2272 1.403 1_655 S
C2275 C2276 1.524 . S
C2275 C2279 1.400 . S
C2276 H2261 0.960 . S
C2276 H2262 0.960 . S
C2276 H2263 0.978 . S
C2276 C2275 1.524 . S
C2277 C2274 1.403 1_655 S
C2277 C2278 1.392 . S
C2277 C2281 1.491 1_655 S
C2278 C2277 1.392 . S
C2278 C2279 1.385 . S
C2278 C2280 1.478 . S
C2279 H2273 0.930 . S
C2279 C2275 1.400 . S
C2279 C2278 1.385 . S
C2280 C2278 1.478 . S
C2280 C2282 1.381 . S
C2280 C2286 1.383 . S
C2281 C2277 1.491 1_455 S
C2281 H2287 0.982 . S
C2281 H2288 0.964 . S
C2281 H2289 0.939 1_455 S
C2282 C2280 1.381 . S
C2282 C2283 1.394 . S
C2282 H2290 0.930 . S
C2283 C2282 1.394 . S
C2283 C2284 1.383 . S
C2283 H2291 0.929 . S
C2284 C2283 1.383 . S
C2284 C2285 1.377 . S
C2285 H2269 0.930 . S
C2285 C2284 1.377 . S
C2285 C2286 1.379 . S
C2286 H2270 0.931 . S
C2286 C2280 1.383 . S
C2286 C2285 1.379 . S
H2287 C2281 0.982 . S
H2288 C2281 0.964 . S
H2289 C2281 0.939 1_655 S
H2290 C2282 0.930 . S
H2291 C2283 0.929 . S
H2292 C2300 0.929 . S
H2293 C2302 0.930 . S
H2294 C2304 0.930 . S
H2295 C2307 0.929 . S
H2296 C2310 0.930 . S
H2297 C2312 0.960 . S
H2298 C2312 0.960 . S
H2299 C2312 0.960 . S
C2300 H2292 0.929 . S
C2300 C2301 1.377 . S
C2300 C2302 1.384 . S
C2301 C2300 1.377 . S
C2301 C2307 1.390 . S
C2302 H2293 0.930 . S
C2302 C2300 1.384 . S
C2302 C2303 1.372 . S
C2303 C2302 1.372 . S
C2303 C2304 1.400 . S
C2303 C2308 1.490 . S
C2304 H2294 0.930 . S
C2304 C2303 1.400 . S
C2304 C2307 1.386 . S
H2305 C2321 0.930 . S
H2306 C2322 0.931 . S
C2307 H2295 0.929 . S
C2307 C2301 1.390 . S
C2307 C2304 1.386 . S
C2308 C2303 1.490 . S
C2308 C2310 1.395 . S
C2308 C2311 1.403 . S
H2309 C2315 0.930 . S
C2310 H2296 0.930 . S
C2310 C2308 1.395 . S
C2310 C2313 1.403 . S
C2311 C2308 1.403 . S
C2311 C2312 1.524 . S
C2311 C2315 1.400 . S
C2312 H2297 0.960 . S
C2312 H2298 0.960 . S
C2312 H2299 0.960 . S
C2312 C2311 1.524 . S
C2313 C2310 1.403 . S
C2313 C2314 1.392 . S
C2313 C2317 1.495 . S
C2314 C2313 1.392 . S
C2314 C2315 1.385 . S
C2314 C2316 1.478 . S
C2315 H2309 0.930 . S
C2315 C2311 1.400 . S
C2315 C2314 1.385 . S
C2316 C2314 1.478 . S
C2316 C2318 1.381 . S
C2316 C2322 1.383 . S
C2317 C2313 1.495 . S
C2317 H2323 0.959 . S
C2317 H2324 0.961 . S
C2317 H2325 0.960 . S
C2318 C2316 1.381 . S
C2318 C2319 1.394 . S
C2318 H2326 0.930 . S
C2319 C2318 1.394 . S
C2319 C2320 1.383 . S
C2319 H2327 0.929 . S
C2320 C2319 1.383 . S
C2320 C2321 1.377 . S
C2321 H2305 0.930 . S
C2321 C2320 1.377 . S
C2321 C2322 1.379 . S
C2322 H2306 0.931 . S
C2322 C2316 1.383 . S
C2322 C2321 1.379 . S
H2323 C2317 0.959 . S
H2324 C2317 0.961 . S
H2325 C2317 0.960 . S
H2326 C2318 0.930 . S
H2327 C2319 0.929 . S
H2328 C2336 0.929 . S
H2329 C2338 0.930 . S
H2330 C2340 0.930 . S
H2331 C2343 0.929 . S
H2332 C2346 0.930 . S
H2333 C2348 0.960 . S
H2334 C2348 0.960 . S
H2335 C2348 0.960 . S
C2336 H2328 0.929 . S
C2336 C2337 1.377 . S
C2336 C2338 1.384 . S
C2337 C2336 1.377 . S
C2337 C2343 1.390 . S
C2338 H2329 0.930 . S
C2338 C2336 1.384 . S
C2338 C2339 1.372 . S
C2339 C2338 1.372 . S
C2339 C2340 1.400 . S
C2339 C2344 1.490 . S
C2340 H2330 0.930 . S
C2340 C2339 1.400 . S
C2340 C2343 1.386 . S
H2341 C2357 0.930 . S
H2342 C2358 0.931 . S
C2343 H2331 0.929 . S
C2343 C2337 1.390 . S
C2343 C2340 1.386 . S
C2344 C2339 1.490 . S
C2344 C2346 1.395 . S
C2344 C2347 1.403 1_655 S
H2345 C2351 0.930 . S
C2346 H2332 0.930 . S
C2346 C2344 1.395 . S
C2346 C2349 1.423 . S
C2347 C2344 1.403 1_455 S
C2347 C2348 1.524 . S
C2347 C2351 1.400 . S
C2348 H2333 0.960 . S
C2348 H2334 0.960 . S
C2348 H2335 0.960 . S
C2348 C2347 1.524 . S
C2349 C2346 1.423 . S
C2349 C2350 1.363 1_655 S
C2349 C2353 1.506 . S
C2350 C2349 1.363 1_455 S
C2350 C2351 1.385 . S
C2350 C2352 1.478 . S
C2351 H2345 0.930 . S
C2351 C2347 1.400 . S
C2351 C2350 1.385 . S
C2352 C2350 1.478 . S
C2352 C2354 1.381 . S
C2352 C2358 1.383 . S
C2353 C2349 1.506 . S
C2353 H2359 0.959 . S
C2353 H2360 0.961 . S
C2353 H2361 0.960 . S
C2354 C2352 1.381 . S
C2354 C2355 1.394 . S
C2354 H2362 0.930 . S
C2355 C2354 1.394 . S
C2355 C2356 1.383 . S
C2355 H2363 0.929 . S
C2356 C2355 1.383 . S
C2356 C2357 1.377 . S
C2357 H2341 0.930 . S
C2357 C2356 1.377 . S
C2357 C2358 1.379 . S
C2358 H2342 0.931 . S
C2358 C2352 1.383 . S
C2358 C2357 1.379 . S
H2359 C2353 0.959 . S
H2360 C2353 0.961 . S
H2361 C2353 0.960 . S
H2362 C2354 0.930 . S
H2363 C2355 0.929 . S
H2364 C2372 0.929 . S
H2365 C2374 0.930 . S
H2366 C2376 0.930 . S
H2367 C2379 0.929 . S
H2368 C2382 0.930 . S
H2369 C2384 0.960 . S
H2370 C2384 0.960 . S
H2371 C2384 0.960 . S
C2372 H2364 0.929 . S
C2372 C2373 1.377 . S
C2372 C2374 1.384 . S
C2373 C2372 1.377 . S
C2373 C2379 1.390 . S
C2374 H2365 0.930 . S
C2374 C2372 1.384 . S
C2374 C2375 1.372 . S
C2375 C2374 1.372 . S
C2375 C2376 1.400 . S
C2375 C2380 1.490 . S
C2376 H2366 0.930 . S
C2376 C2375 1.400 . S
C2376 C2379 1.386 . S
H2377 C2393 0.930 . S
H2378 C2394 0.931 . S
C2379 H2367 0.929 . S
C2379 C2373 1.390 . S
C2379 C2376 1.386 . S
C2380 C2375 1.490 . S
C2380 C2382 1.395 . S
C2380 C2383 1.403 . S
H2381 C2387 0.930 . S
C2382 H2368 0.930 . S
C2382 C2380 1.395 . S
C2382 C2385 1.403 . S
C2383 C2380 1.403 . S
C2383 C2384 1.524 . S
C2383 C2387 1.400 . S
C2384 H2369 0.960 . S
C2384 H2370 0.960 . S
C2384 H2371 0.960 . S
C2384 C2383 1.524 . S
C2385 C2382 1.403 . S
C2385 C2386 1.392 . S
C2385 C2389 1.495 . S
C2386 C2385 1.392 . S
C2386 C2387 1.385 . S
C2386 C2388 1.478 . S
C2387 H2381 0.930 . S
C2387 C2383 1.400 . S
C2387 C2386 1.385 . S
C2388 C2386 1.478 . S
C2388 C2390 1.381 . S
C2388 C2394 1.383 . S
C2389 C2385 1.495 . S
C2389 H2395 0.959 . S
C2389 H2396 0.961 . S
C2389 H2397 0.960 . S
C2390 C2388 1.381 . S
C2390 C2391 1.394 . S
C2390 H2398 0.930 . S
C2391 C2390 1.394 . S
C2391 C2392 1.383 . S
C2391 H2399 0.929 1_556 S
C2392 C2391 1.383 . S
C2392 C2393 1.377 . S
C2393 H2377 0.930 . S
C2393 C2392 1.377 . S
C2393 C2394 1.379 . S
C2394 H2378 0.931 . S
C2394 C2388 1.383 . S
C2394 C2393 1.379 . S
H2395 C2389 0.959 . S
H2396 C2389 0.961 . S
H2397 C2389 0.960 . S
H2398 C2390 0.930 . S
H2399 C2391 0.929 1_554 S
H2400 C2408 0.929 . S
H2401 C2410 0.930 . S
H2402 C2412 0.930 . S
H2403 C2415 0.929 . S
H2404 C2418 0.930 . S
H2405 C2420 0.960 . S
H2406 C2420 0.960 . S
H2407 C2420 0.960 . S
C2408 H2400 0.929 . S
C2408 C2409 1.377 . S
C2408 C2410 1.384 . S
C2409 C2408 1.377 . S
C2409 C2415 1.390 . S
C2410 H2401 0.930 . S
C2410 C2408 1.384 . S
C2410 C2411 1.372 . S
C2411 C2410 1.372 . S
C2411 C2412 1.400 . S
C2411 C2416 1.490 . S
C2412 H2402 0.930 . S
C2412 C2411 1.400 . S
C2412 C2415 1.386 . S
H2413 C2429 0.930 . S
H2414 C2430 0.931 . S
C2415 H2403 0.929 . S
C2415 C2409 1.390 . S
C2415 C2412 1.386 . S
C2416 C2411 1.490 . S
C2416 C2418 1.395 . S
C2416 C2419 1.403 . S
H2417 C2423 0.930 . S
C2418 H2404 0.930 . S
C2418 C2416 1.395 . S
C2418 C2421 1.403 . S
C2419 C2416 1.403 . S
C2419 C2420 1.524 . S
C2419 C2423 1.400 . S
C2420 H2405 0.960 . S
C2420 H2406 0.960 . S
C2420 H2407 0.960 . S
C2420 C2419 1.524 . S
C2421 C2418 1.403 . S
C2421 C2422 1.392 . S
C2421 C2425 1.495 . S
C2422 C2421 1.392 . S
C2422 C2423 1.385 . S
C2422 C2424 1.478 . S
C2423 H2417 0.930 . S
C2423 C2419 1.400 . S
C2423 C2422 1.385 . S
C2424 C2422 1.478 . S
C2424 C2426 1.381 . S
C2424 C2430 1.383 . S
C2425 C2421 1.495 . S
C2425 H2431 0.959 . S
C2425 H2432 0.961 . S
C2425 H2433 0.960 . S
C2426 C2424 1.381 . S
C2426 C2427 1.394 . S
C2426 H2434 0.930 . S
C2427 C2426 1.394 . S
C2427 C2428 1.383 . S
C2427 H2435 0.929 . S
C2428 C2427 1.383 . S
C2428 C2429 1.377 . S
C2429 H2413 0.930 . S
C2429 C2428 1.377 . S
C2429 C2430 1.379 . S
C2430 H2414 0.931 . S
C2430 C2424 1.383 . S
C2430 C2429 1.379 . S
H2431 C2425 0.959 . S
H2432 C2425 0.961 . S
H2433 C2425 0.960 . S
H2434 C2426 0.930 . S
H2435 C2427 0.929 . S
H2436 C2444 0.929 . S
H2437 C2446 0.930 . S
H2438 C2448 0.930 . S
H2439 C2451 0.929 . S
H2440 C2454 0.932 . S
H2441 C2456 0.960 . S
H2442 C2456 0.960 . S
H2443 C2456 0.960 . S
C2444 H2436 0.929 . S
C2444 C2445 1.377 . S
C2444 C2446 1.384 . S
C2445 C2444 1.377 . S
C2445 C2451 1.390 . S
C2446 H2437 0.930 . S
C2446 C2444 1.384 . S
C2446 C2447 1.372 . S
C2447 C2446 1.372 . S
C2447 C2448 1.400 . S
C2447 C2452 1.490 . S
C2448 H2438 0.930 . S
C2448 C2447 1.400 . S
C2448 C2451 1.386 . S
H2449 C2465 0.930 . S
H2450 C2466 0.931 . S
C2451 H2439 0.929 . S
C2451 C2445 1.390 . S
C2451 C2448 1.386 . S
C2452 C2447 1.490 . S
C2452 C2454 1.395 . S
C2452 C2455 1.403 . S
H2453 C2459 0.930 . S
C2454 H2440 0.932 . S
C2454 C2452 1.395 . S
C2454 C2457 1.403 1_554 S
C2455 C2452 1.403 . S
C2455 C2456 1.524 . S
C2455 C2459 1.400 . S
C2456 H2441 0.960 . S
C2456 H2442 0.960 . S
C2456 H2443 0.960 . S
C2456 C2455 1.524 . S
C2457 C2454 1.403 1_556 S
C2457 C2458 1.392 . S
C2457 C2461 1.495 . S
C2458 C2457 1.392 . S
C2458 C2459 1.385 1_556 S
C2458 C2460 1.478 . S
C2459 H2453 0.930 . S
C2459 C2455 1.400 . S
C2459 C2458 1.385 1_554 S
C2460 C2458 1.478 . S
C2460 C2462 1.381 . S
C2460 C2466 1.383 . S
C2461 C2457 1.495 . S
C2461 H2467 0.959 . S
C2461 H2468 0.961 . S
C2461 H2469 0.960 . S
C2462 C2460 1.381 . S
C2462 C2463 1.394 . S
C2462 H2470 0.930 . S
C2463 C2462 1.394 . S
C2463 C2464 1.383 . S
C2463 H2471 0.929 . S
C2464 C2463 1.383 . S
C2464 C2465 1.377 . S
C2465 H2449 0.930 . S
C2465 C2464 1.377 . S
C2465 C2466 1.379 . S
C2466 H2450 0.931 . S
C2466 C2460 1.383 . S
C2466 C2465 1.379 . S
H2467 C2461 0.959 . S
H2468 C2461 0.961 . S
H2469 C2461 0.960 . S
H2470 C2462 0.930 . S
H2471 C2463 0.929 . S
H2472 C2480 0.929 . S
H2473 C2482 0.930 . S
H2474 C2484 0.930 . S
H2475 C2487 0.929 . S
H2476 C2490 0.930 . S
H2477 C2492 0.960 . S
H2478 C2492 0.960 . S
H2479 C2492 0.960 . S
C2480 H2472 0.929 . S
C2480 C2481 1.377 . S
C2480 C2482 1.384 . S
C2481 C2480 1.377 . S
C2481 C2487 1.390 . S
C2482 H2473 0.930 . S
C2482 C2480 1.384 . S
C2482 C2483 1.372 . S
C2483 C2482 1.372 . S
C2483 C2484 1.400 . S
C2483 C2488 1.490 . S
C2484 H2474 0.930 . S
C2484 C2483 1.400 . S
C2484 C2487 1.386 . S
H2485 C2501 0.930 . S
H2486 C2502 0.931 . S
C2487 H2475 0.929 . S
C2487 C2481 1.390 . S
C2487 C2484 1.386 . S
C2488 C2483 1.490 . S
C2488 C2490 1.395 . S
C2488 C2491 1.403 . S
H2489 C2495 0.930 . S
C2490 H2476 0.930 . S
C2490 C2488 1.395 . S
C2490 C2493 1.403 . S
C2491 C2488 1.403 . S
C2491 C2492 1.524 . S
C2491 C2495 1.400 . S
C2492 H2477 0.960 . S
C2492 H2478 0.960 . S
C2492 H2479 0.960 . S
C2492 C2491 1.524 . S
C2493 C2490 1.403 . S
C2493 C2494 1.392 . S
C2493 C2497 1.495 . S
C2494 C2493 1.392 . S
C2494 C2495 1.385 . S
C2494 C2496 1.478 . S
C2495 H2489 0.930 . S
C2495 C2491 1.400 . S
C2495 C2494 1.385 . S
C2496 C2494 1.478 . S
C2496 C2498 1.381 . S
C2496 C2502 1.383 . S
C2497 C2493 1.495 . S
C2497 H2503 0.959 . S
C2497 H2504 0.961 . S
C2497 H2505 0.960 . S
C2498 C2496 1.381 . S
C2498 C2499 1.394 . S
C2498 H2506 0.930 . S
C2499 C2498 1.394 . S
C2499 C2500 1.383 . S
C2499 H2507 0.929 . S
C2500 C2499 1.383 . S
C2500 C2501 1.377 . S
C2501 H2485 0.930 . S
C2501 C2500 1.377 . S
C2501 C2502 1.379 . S
C2502 H2486 0.931 . S
C2502 C2496 1.383 . S
C2502 C2501 1.379 . S
H2503 C2497 0.959 . S
H2504 C2497 0.961 . S
H2505 C2497 0.960 . S
H2506 C2498 0.930 . S
H2507 C2499 0.929 . S
H2508 C2516 0.929 . S
H2509 C2518 0.930 . S
H2510 C2520 0.930 . S
H2511 C2523 0.929 . S
H2512 C2526 0.930 . S
H2513 C2528 0.960 . S
H2514 C2528 0.960 . S
H2515 C2528 0.960 . S
C2516 H2508 0.929 . S
C2516 C2517 1.377 . S
C2516 C2518 1.384 . S
C2517 C2516 1.377 . S
C2517 C2523 1.390 . S
C2518 H2509 0.930 . S
C2518 C2516 1.384 . S
C2518 C2519 1.372 . S
C2519 C2518 1.372 . S
C2519 C2520 1.400 . S
C2519 C2524 1.490 . S
C2520 H2510 0.930 . S
C2520 C2519 1.400 . S
C2520 C2523 1.386 . S
H2521 C2537 0.930 . S
H2522 C2538 0.931 . S
C2523 H2511 0.929 . S
C2523 C2517 1.390 . S
C2523 C2520 1.386 . S
C2524 C2519 1.490 . S
C2524 C2526 1.395 . S
C2524 C2527 1.403 . S
H2525 C2531 0.930 . S
C2526 H2512 0.930 . S
C2526 C2524 1.395 . S
C2526 C2529 1.403 . S
C2527 C2524 1.403 . S
C2527 C2528 1.524 . S
C2527 C2531 1.400 . S
C2528 H2513 0.960 . S
C2528 H2514 0.960 . S
C2528 H2515 0.960 . S
C2528 C2527 1.524 . S
C2529 C2526 1.403 . S
C2529 C2530 1.392 . S
C2529 C2533 1.495 . S
C2530 C2529 1.392 . S
C2530 C2531 1.385 . S
C2530 C2532 1.478 . S
C2531 H2525 0.930 . S
C2531 C2527 1.400 . S
C2531 C2530 1.385 . S
C2532 C2530 1.478 . S
C2532 C2534 1.381 . S
C2532 C2538 1.383 . S
C2533 C2529 1.495 . S
C2533 H2539 0.959 . S
C2533 H2540 0.961 . S
C2533 H2541 0.960 . S
C2534 C2532 1.381 . S
C2534 C2535 1.394 . S
C2534 H2542 0.930 . S
C2535 C2534 1.394 . S
C2535 C2536 1.383 . S
C2535 H2543 0.929 . S
C2536 C2535 1.383 . S
C2536 C2537 1.377 . S
C2537 H2521 0.930 . S
C2537 C2536 1.377 . S
C2537 C2538 1.379 . S
C2538 H2522 0.931 . S
C2538 C2532 1.383 . S
C2538 C2537 1.379 . S
H2539 C2533 0.959 . S
H2540 C2533 0.961 . S
H2541 C2533 0.960 . S
H2542 C2534 0.930 . S
H2543 C2535 0.929 . S
H2544 C2552 0.929 . S
H2545 C2554 0.930 . S
H2546 C2556 0.930 . S
H2547 C2559 0.929 . S
H2548 C2562 0.930 . S
H2549 C2564 0.960 . S
H2550 C2564 0.960 . S
H2551 C2564 0.960 . S
C2552 H2544 0.929 . S
C2552 C2553 1.377 . S
C2552 C2554 1.384 . S
C2553 C2552 1.377 . S
C2553 C2559 1.390 . S
C2554 H2545 0.930 . S
C2554 C2552 1.384 . S
C2554 C2555 1.372 . S
C2555 C2554 1.372 . S
C2555 C2556 1.400 . S
C2555 C2560 1.490 . S
C2556 H2546 0.930 . S
C2556 C2555 1.400 . S
C2556 C2559 1.386 . S
H2557 C2573 0.930 . S
H2558 C2574 0.931 . S
C2559 H2547 0.929 . S
C2559 C2553 1.390 . S
C2559 C2556 1.386 . S
C2560 C2555 1.490 . S
C2560 C2562 1.395 . S
C2560 C2563 1.403 . S
H2561 C2567 0.930 . S
C2562 H2548 0.930 . S
C2562 C2560 1.395 . S
C2562 C2565 1.403 . S
C2563 C2560 1.403 . S
C2563 C2564 1.524 . S
C2563 C2567 1.400 . S
C2564 H2549 0.960 . S
C2564 H2550 0.960 . S
C2564 H2551 0.960 . S
C2564 C2563 1.524 . S
C2565 C2562 1.403 . S
C2565 C2566 1.392 . S
C2565 C2569 1.495 . S
C2566 C2565 1.392 . S
C2566 C2567 1.385 . S
C2566 C2568 1.478 . S
C2567 H2561 0.930 . S
C2567 C2563 1.400 . S
C2567 C2566 1.385 . S
C2568 C2566 1.478 . S
C2568 C2570 1.381 . S
C2568 C2574 1.383 . S
C2569 C2565 1.495 . S
C2569 H2575 0.959 . S
C2569 H2576 0.961 . S
C2569 H2577 0.960 . S
C2570 C2568 1.381 . S
C2570 C2571 1.394 . S
C2570 H2578 0.930 . S
C2571 C2570 1.394 . S
C2571 C2572 1.383 . S
C2571 H2579 0.929 . S
C2572 C2571 1.383 . S
C2572 C2573 1.377 . S
C2573 H2557 0.930 . S
C2573 C2572 1.377 . S
C2573 C2574 1.379 . S
C2574 H2558 0.931 . S
C2574 C2568 1.383 . S
C2574 C2573 1.379 . S
H2575 C2569 0.959 . S
H2576 C2569 0.961 . S
H2577 C2569 0.960 . S
H2578 C2570 0.930 . S
H2579 C2571 0.929 . S
H2580 C2588 0.929 . S
H2581 C2590 0.930 . S
H2582 C2592 0.930 . S
H2583 C2595 0.929 . S
H2584 C2598 0.930 . S
H2585 C2600 0.960 . S
H2586 C2600 0.960 . S
H2587 C2600 0.960 . S
C2588 H2580 0.929 . S
C2588 C2589 1.377 . S
C2588 C2590 1.384 . S
C2589 C2588 1.377 . S
C2589 C2595 1.390 . S
C2590 H2581 0.930 . S
C2590 C2588 1.384 . S
C2590 C2591 1.372 . S
C2591 C2590 1.372 . S
C2591 C2592 1.400 . S
C2591 C2596 1.490 . S
C2592 H2582 0.930 . S
C2592 C2591 1.400 . S
C2592 C2595 1.386 . S
H2593 C2609 0.930 . S
H2594 C2610 0.931 . S
C2595 H2583 0.929 . S
C2595 C2589 1.390 . S
C2595 C2592 1.386 . S
C2596 C2591 1.490 . S
C2596 C2598 1.395 . S
C2596 C2599 1.403 . S
H2597 C2603 0.930 . S
C2598 H2584 0.930 . S
C2598 C2596 1.395 . S
C2598 C2601 1.403 . S
C2599 C2596 1.403 . S
C2599 C2600 1.524 . S
C2599 C2603 1.400 1_556 S
C2600 H2585 0.960 . S
C2600 H2586 0.960 . S
C2600 H2587 0.960 . S
C2600 C2599 1.524 . S
C2601 C2598 1.403 . S
C2601 C2602 1.392 1_556 S
C2601 C2605 1.495 . S
C2602 C2601 1.392 1_554 S
C2602 C2603 1.385 . S
C2602 C2604 1.478 . S
C2603 H2597 0.930 . S
C2603 C2599 1.400 1_554 S
C2603 C2602 1.385 . S
C2604 C2602 1.478 . S
C2604 C2606 1.381 . S
C2604 C2610 1.383 . S
C2605 C2601 1.495 . S
C2605 H2611 0.959 . S
C2605 H2612 0.961 1_556 S
C2605 H2613 0.960 . S
C2606 C2604 1.381 . S
C2606 C2607 1.394 . S
C2606 H2614 0.930 . S
C2607 C2606 1.394 . S
C2607 C2608 1.383 . S
C2607 H2615 0.929 . S
C2608 C2607 1.383 . S
C2608 C2609 1.377 . S
C2609 H2593 0.930 . S
C2609 C2608 1.377 . S
C2609 C2610 1.379 . S
C2610 H2594 0.931 . S
C2610 C2604 1.383 . S
C2610 C2609 1.379 . S
H2611 C2605 0.959 . S
H2612 C2605 0.961 1_554 S
H2613 C2605 0.960 . S
H2614 C2606 0.930 . S
H2615 C2607 0.929 . S
H2616 C2624 0.929 . S
H2617 C2626 0.930 . S
H2618 C2628 0.930 . S
H2619 C2631 0.929 . S
H2620 C2634 0.930 . S
H2621 C2636 0.960 . S
H2622 C2636 0.960 . S
H2623 C2636 0.960 . S
C2624 H2616 0.929 . S
C2624 C2625 1.377 . S
C2624 C2626 1.384 . S
C2625 C2624 1.377 . S
C2625 C2631 1.390 . S
C2626 H2617 0.930 . S
C2626 C2624 1.384 . S
C2626 C2627 1.372 . S
C2627 C2626 1.372 . S
C2627 C2628 1.400 . S
C2627 C2632 1.490 . S
C2628 H2618 0.930 . S
C2628 C2627 1.400 . S
C2628 C2631 1.386 . S
H2629 C2645 0.930 . S
H2630 C2646 0.931 . S
C2631 H2619 0.929 . S
C2631 C2625 1.390 . S
C2631 C2628 1.386 . S
C2632 C2627 1.490 . S
C2632 C2634 1.395 . S
C2632 C2635 1.403 . S
H2633 C2639 0.930 . S
C2634 H2620 0.930 . S
C2634 C2632 1.395 . S
C2634 C2637 1.403 . S
C2635 C2632 1.403 . S
C2635 C2636 1.524 . S
C2635 C2639 1.400 . S
C2636 H2621 0.960 . S
C2636 H2622 0.960 . S
C2636 H2623 0.960 . S
C2636 C2635 1.524 . S
C2637 C2634 1.403 . S
C2637 C2638 1.392 . S
C2637 C2641 1.495 . S
C2638 C2637 1.392 . S
C2638 C2639 1.385 . S
C2638 C2640 1.478 . S
C2639 H2633 0.930 . S
C2639 C2635 1.400 . S
C2639 C2638 1.385 . S
C2640 C2638 1.478 . S
C2640 C2642 1.381 . S
C2640 C2646 1.383 . S
C2641 C2637 1.495 . S
C2641 H2647 0.959 . S
C2641 H2648 0.961 . S
C2641 H2649 0.960 . S
C2642 C2640 1.381 . S
C2642 C2643 1.394 . S
C2642 H2650 0.930 . S
C2643 C2642 1.394 . S
C2643 C2644 1.383 . S
C2643 H2651 0.929 . S
C2644 C2643 1.383 . S
C2644 C2645 1.377 . S
C2645 H2629 0.930 . S
C2645 C2644 1.377 . S
C2645 C2646 1.379 . S
C2646 H2630 0.931 . S
C2646 C2640 1.383 . S
C2646 C2645 1.379 . S
H2647 C2641 0.959 . S
H2648 C2641 0.961 . S
H2649 C2641 0.960 . S
H2650 C2642 0.930 . S
H2651 C2643 0.929 . S
H2652 C2660 0.929 . S
H2653 C2662 0.930 . S
H2654 C2664 0.930 . S
H2655 C2667 0.929 . S
H2656 C2670 0.930 . S
H2657 C2672 0.960 . S
H2658 C2672 0.960 . S
H2659 C2672 0.960 . S
C2660 H2652 0.929 . S
C2660 C2661 1.377 . S
C2660 C2662 1.384 . S
C2661 C2660 1.377 . S
C2661 C2667 1.390 . S
C2662 H2653 0.930 . S
C2662 C2660 1.384 . S
C2662 C2663 1.372 . S
C2663 C2662 1.372 . S
C2663 C2664 1.400 . S
C2663 C2668 1.490 . S
C2664 H2654 0.930 . S
C2664 C2663 1.400 . S
C2664 C2667 1.386 . S
H2665 C2681 0.930 . S
H2666 C2682 0.931 . S
C2667 H2655 0.929 . S
C2667 C2661 1.390 . S
C2667 C2664 1.386 . S
C2668 C2663 1.490 . S
C2668 C2670 1.395 . S
C2668 C2671 1.403 . S
H2669 C2675 0.930 . S
C2670 H2656 0.930 . S
C2670 C2668 1.395 . S
C2670 C2673 1.403 . S
C2671 C2668 1.403 . S
C2671 C2672 1.524 . S
C2671 C2675 1.400 . S
C2672 H2657 0.960 . S
C2672 H2658 0.960 . S
C2672 H2659 0.960 . S
C2672 C2671 1.524 . S
C2673 C2670 1.403 . S
C2673 C2674 1.392 . S
C2673 C2677 1.495 . S
C2674 C2673 1.392 . S
C2674 C2675 1.385 . S
C2674 C2676 1.478 . S
C2675 H2669 0.930 . S
C2675 C2671 1.400 . S
C2675 C2674 1.385 . S
C2676 C2674 1.478 . S
C2676 C2678 1.381 . S
C2676 C2682 1.383 . S
C2677 C2673 1.495 . S
C2677 H2683 0.959 . S
C2677 H2684 0.961 . S
C2677 H2685 0.960 . S
C2678 C2676 1.381 . S
C2678 C2679 1.394 . S
C2678 H2686 0.930 . S
C2679 C2678 1.394 . S
C2679 C2680 1.383 . S
C2679 H2687 0.929 . S
C2680 C2679 1.383 . S
C2680 C2681 1.377 . S
C2681 H2665 0.930 . S
C2681 C2680 1.377 . S
C2681 C2682 1.379 . S
C2682 H2666 0.931 . S
C2682 C2676 1.383 . S
C2682 C2681 1.379 . S
H2683 C2677 0.959 . S
H2684 C2677 0.961 . S
H2685 C2677 0.960 . S
H2686 C2678 0.930 . S
H2687 C2679 0.929 . S
H2688 C2696 0.929 . S
H2689 C2698 0.930 . S
H2690 C2700 0.930 . S
H2691 C2703 0.929 . S
H2692 C2706 0.930 . S
H2693 C2708 0.960 . S
H2694 C2708 0.960 . S
H2695 C2708 0.960 . S
C2696 H2688 0.929 . S
C2696 C2697 1.377 . S
C2696 C2698 1.384 . S
C2697 C2696 1.377 . S
C2697 C2703 1.390 . S
C2698 H2689 0.930 . S
C2698 C2696 1.384 . S
C2698 C2699 1.372 . S
C2699 C2698 1.372 . S
C2699 C2700 1.400 . S
C2699 C2704 1.490 . S
C2700 H2690 0.930 . S
C2700 C2699 1.400 . S
C2700 C2703 1.386 . S
H2701 C2717 0.930 . S
H2702 C2718 0.931 . S
C2703 H2691 0.929 . S
C2703 C2697 1.390 . S
C2703 C2700 1.386 . S
C2704 C2699 1.490 . S
C2704 C2706 1.395 . S
C2704 C2707 1.403 . S
H2705 C2711 0.930 . S
C2706 H2692 0.930 . S
C2706 C2704 1.395 . S
C2706 C2709 1.403 . S
C2707 C2704 1.403 . S
C2707 C2708 1.524 . S
C2707 C2711 1.400 . S
C2708 H2693 0.960 . S
C2708 H2694 0.960 . S
C2708 H2695 0.960 . S
C2708 C2707 1.524 . S
C2709 C2706 1.403 . S
C2709 C2710 1.392 . S
C2709 C2713 1.495 . S
C2710 C2709 1.392 . S
C2710 C2711 1.385 . S
C2710 C2712 1.478 . S
C2711 H2705 0.930 . S
C2711 C2707 1.400 . S
C2711 C2710 1.385 . S
C2712 C2710 1.478 . S
C2712 C2714 1.381 . S
C2712 C2718 1.383 . S
C2713 C2709 1.495 . S
C2713 H2719 0.959 . S
C2713 H2720 0.961 . S
C2713 H2721 0.960 . S
C2714 C2712 1.381 . S
C2714 C2715 1.394 . S
C2714 H2722 0.930 . S
C2715 C2714 1.394 . S
C2715 C2716 1.383 . S
C2715 H2723 0.929 . S
C2716 C2715 1.383 . S
C2716 C2717 1.377 . S
C2717 H2701 0.930 . S
C2717 C2716 1.377 . S
C2717 C2718 1.379 . S
C2718 H2702 0.931 . S
C2718 C2712 1.383 . S
C2718 C2717 1.379 . S
H2719 C2713 0.959 . S
H2720 C2713 0.961 . S
H2721 C2713 0.960 . S
H2722 C2714 0.930 . S
H2723 C2715 0.929 . S
H2724 C2732 0.929 . S
H2725 C2734 0.930 . S
H2726 C2736 0.930 . S
H2727 C2739 0.929 . S
H2728 C2742 0.930 . S
H2729 C2744 0.960 . S
H2730 C2744 0.960 . S
H2731 C2744 0.960 . S
C2732 H2724 0.929 . S
C2732 C2733 1.377 . S
C2732 C2734 1.384 . S
C2733 C2732 1.377 . S
C2733 C2739 1.390 . S
C2734 H2725 0.930 . S
C2734 C2732 1.384 . S
C2734 C2735 1.372 . S
C2735 C2734 1.372 . S
C2735 C2736 1.400 . S
C2735 C2740 1.490 . S
C2736 H2726 0.930 . S
C2736 C2735 1.400 . S
C2736 C2739 1.386 . S
H2737 C2753 0.930 . S
H2738 C2754 0.931 . S
C2739 H2727 0.929 . S
C2739 C2733 1.390 . S
C2739 C2736 1.386 . S
C2740 C2735 1.490 . S
C2740 C2742 1.395 . S
C2740 C2743 1.403 . S
H2741 C2747 0.930 . S
C2742 H2728 0.930 . S
C2742 C2740 1.395 . S
C2742 C2745 1.403 . S
C2743 C2740 1.403 . S
C2743 C2744 1.524 . S
C2743 C2747 1.400 . S
C2744 H2729 0.960 . S
C2744 H2730 0.960 . S
C2744 H2731 0.960 . S
C2744 C2743 1.524 . S
C2745 C2742 1.403 . S
C2745 C2746 1.392 . S
C2745 C2749 1.495 . S
C2746 C2745 1.392 . S
C2746 C2747 1.385 . S
C2746 C2748 1.478 . S
C2747 H2741 0.930 . S
C2747 C2743 1.400 . S
C2747 C2746 1.385 . S
C2748 C2746 1.478 . S
C2748 C2750 1.381 . S
C2748 C2754 1.383 . S
C2749 C2745 1.495 . S
C2749 H2755 0.959 . S
C2749 H2756 0.961 . S
C2749 H2757 0.960 . S
C2750 C2748 1.381 . S
C2750 C2751 1.394 . S
C2750 H2758 0.930 . S
C2751 C2750 1.394 . S
C2751 C2752 1.383 . S
C2751 H2759 0.929 . S
C2752 C2751 1.383 . S
C2752 C2753 1.377 . S
C2753 H2737 0.930 . S
C2753 C2752 1.377 . S
C2753 C2754 1.379 . S
C2754 H2738 0.931 . S
C2754 C2748 1.383 . S
C2754 C2753 1.379 . S
H2755 C2749 0.959 . S
H2756 C2749 0.961 . S
H2757 C2749 0.960 . S
H2758 C2750 0.930 . S
H2759 C2751 0.929 . S
H2760 C2768 0.929 . S
H2761 C2770 0.930 . S
H2762 C2772 0.930 . S
H2763 C2775 0.929 . S
H2764 C2778 0.930 . S
H2765 C2780 0.960 . S
H2766 C2780 0.960 . S
H2767 C2780 0.960 . S
C2768 H2760 0.929 . S
C2768 C2769 1.377 . S
C2768 C2770 1.384 . S
C2769 C2768 1.377 . S
C2769 C2775 1.390 . S
C2770 H2761 0.930 . S
C2770 C2768 1.384 . S
C2770 C2771 1.372 . S
C2771 C2770 1.372 . S
C2771 C2772 1.400 . S
C2771 C2776 1.490 . S
C2772 H2762 0.930 . S
C2772 C2771 1.400 . S
C2772 C2775 1.386 . S
H2773 C2789 0.930 . S
H2774 C2790 0.931 . S
C2775 H2763 0.929 . S
C2775 C2769 1.390 . S
C2775 C2772 1.386 . S
C2776 C2771 1.490 . S
C2776 C2778 1.395 . S
C2776 C2779 1.403 . S
H2777 C2783 0.930 . S
C2778 H2764 0.930 . S
C2778 C2776 1.395 . S
C2778 C2781 1.403 . S
C2779 C2776 1.403 . S
C2779 C2780 1.524 . S
C2779 C2783 1.400 . S
C2780 H2765 0.960 . S
C2780 H2766 0.960 . S
C2780 H2767 0.960 . S
C2780 C2779 1.524 . S
C2781 C2778 1.403 . S
C2781 C2782 1.392 . S
C2781 C2785 1.495 . S
C2782 C2781 1.392 . S
C2782 C2783 1.385 . S
C2782 C2784 1.478 . S
C2783 H2777 0.930 . S
C2783 C2779 1.400 . S
C2783 C2782 1.385 . S
C2784 C2782 1.478 . S
C2784 C2786 1.381 . S
C2784 C2790 1.383 . S
C2785 C2781 1.495 . S
C2785 H2791 0.959 . S
C2785 H2792 0.961 . S
C2785 H2793 0.960 . S
C2786 C2784 1.381 . S
C2786 C2787 1.394 . S
C2786 H2794 0.930 . S
C2787 C2786 1.394 . S
C2787 C2788 1.383 . S
C2787 H2795 0.929 . S
C2788 C2787 1.383 . S
C2788 C2789 1.377 . S
C2789 H2773 0.930 . S
C2789 C2788 1.377 . S
C2789 C2790 1.379 . S
C2790 H2774 0.931 . S
C2790 C2784 1.383 . S
C2790 C2789 1.379 . S
H2791 C2785 0.959 . S
H2792 C2785 0.961 . S
H2793 C2785 0.960 . S
H2794 C2786 0.930 . S
H2795 C2787 0.929 . S
H2796 C2804 0.929 . S
H2797 C2806 0.907 1_455 S
H2798 C2808 0.930 . S
H2799 C2811 0.929 . S
H2800 C2814 0.930 . S
H2801 C2816 0.960 . S
H2802 C2816 0.960 . S
H2803 C2816 0.960 . S
C2804 H2796 0.929 . S
C2804 C2805 1.377 1_455 S
C2804 C2806 1.384 1_455 S
C2805 C2804 1.377 1_655 S
C2805 C2811 1.390 . S
C2806 H2797 0.907 1_655 S
C2806 C2804 1.384 1_655 S
C2806 C2807 1.372 . S
C2807 C2806 1.372 . S
C2807 C2808 1.400 . S
C2807 C2812 1.490 . S
C2808 H2798 0.930 . S
C2808 C2807 1.400 . S
C2808 C2811 1.386 . S
H2809 C2825 0.930 . S
H2810 C2826 0.931 . S
C2811 H2799 0.929 . S
C2811 C2805 1.390 . S
C2811 C2808 1.386 . S
C2812 C2807 1.490 . S
C2812 C2814 1.395 . S
C2812 C2815 1.403 . S
H2813 C2819 0.930 . S
C2814 H2800 0.930 . S
C2814 C2812 1.395 . S
C2814 C2817 1.403 . S
C2815 C2812 1.403 . S
C2815 C2816 1.524 . S
C2815 C2819 1.400 . S
C2816 H2801 0.960 . S
C2816 H2802 0.960 . S
C2816 H2803 0.960 . S
C2816 C2815 1.524 . S
C2817 C2814 1.403 . S
C2817 C2818 1.392 . S
C2817 C2821 1.495 . S
C2818 C2817 1.392 . S
C2818 C2819 1.385 . S
C2818 C2820 1.478 . S
C2819 H2813 0.930 . S
C2819 C2815 1.400 . S
C2819 C2818 1.385 . S
C2820 C2818 1.478 . S
C2820 C2822 1.381 . S
C2820 C2826 1.383 . S
C2821 C2817 1.495 . S
C2821 H2827 0.959 . S
C2821 H2828 0.961 . S
C2821 H2829 0.960 . S
C2822 C2820 1.381 . S
C2822 C2823 1.394 . S
C2822 H2830 0.930 . S
C2823 C2822 1.394 . S
C2823 C2824 1.383 . S
C2823 H2831 0.929 . S
C2824 C2823 1.383 . S
C2824 C2825 1.377 . S
C2825 H2809 0.930 . S
C2825 C2824 1.377 . S
C2825 C2826 1.379 . S
C2826 H2810 0.931 . S
C2826 C2820 1.383 . S
C2826 C2825 1.379 . S
H2827 C2821 0.959 . S
H2828 C2821 0.961 . S
H2829 C2821 0.960 . S
H2830 C2822 0.930 . S
H2831 C2823 0.929 . S
H2832 C2840 0.929 . S
H2833 C2842 0.930 . S
H2834 C2844 0.930 . S
H2835 C2847 0.929 . S
H2836 C2850 0.930 . S
H2837 C2852 0.960 . S
H2838 C2852 0.960 . S
H2839 C2852 0.960 . S
C2840 H2832 0.929 . S
C2840 C2841 1.377 . S
C2840 C2842 1.384 . S
C2841 C2840 1.377 . S
C2841 C2847 1.390 . S
C2842 H2833 0.930 . S
C2842 C2840 1.384 . S
C2842 C2843 1.372 . S
C2843 C2842 1.372 . S
C2843 C2844 1.400 . S
C2843 C2848 1.490 . S
C2844 H2834 0.930 . S
C2844 C2843 1.400 . S
C2844 C2847 1.386 . S
H2845 C2861 0.930 . S
H2846 C2862 0.931 . S
C2847 H2835 0.929 . S
C2847 C2841 1.390 . S
C2847 C2844 1.386 . S
C2848 C2843 1.490 . S
C2848 C2850 1.395 . S
C2848 C2851 1.403 . S
H2849 C2855 0.930 . S
C2850 H2836 0.930 . S
C2850 C2848 1.395 . S
C2850 C2853 1.403 . S
C2851 C2848 1.403 . S
C2851 C2852 1.524 . S
C2851 C2855 1.400 . S
C2852 H2837 0.960 . S
C2852 H2838 0.960 . S
C2852 H2839 0.960 . S
C2852 C2851 1.524 . S
C2853 C2850 1.403 . S
C2853 C2854 1.392 . S
C2853 C2857 1.495 . S
C2854 C2853 1.392 . S
C2854 C2855 1.385 . S
C2854 C2856 1.478 . S
C2855 H2849 0.930 . S
C2855 C2851 1.400 . S
C2855 C2854 1.385 . S
C2856 C2854 1.478 . S
C2856 C2858 1.381 . S
C2856 C2862 1.383 . S
C2857 C2853 1.495 . S
C2857 H2863 0.959 . S
C2857 H2864 0.961 . S
C2857 H2865 0.960 . S
C2858 C2856 1.381 . S
C2858 C2859 1.394 . S
C2858 H2866 0.930 . S
C2859 C2858 1.394 . S
C2859 C2860 1.383 . S
C2859 H2867 0.929 . S
C2860 C2859 1.383 . S
C2860 C2861 1.377 . S
C2861 H2845 0.930 . S
C2861 C2860 1.377 . S
C2861 C2862 1.379 . S
C2862 H2846 0.931 . S
C2862 C2856 1.383 . S
C2862 C2861 1.379 . S
H2863 C2857 0.959 . S
H2864 C2857 0.961 . S
H2865 C2857 0.960 . S
H2866 C2858 0.930 . S
H2867 C2859 0.929 . S
H2868 C2876 0.929 . S
H2869 C2878 0.930 . S
H2870 C2880 0.930 . S
H2871 C2883 0.929 . S
H2872 C2886 0.930 . S
H2873 C2888 0.960 . S
H2874 C2888 0.960 . S
H2875 C2888 0.960 . S
C2876 H2868 0.929 . S
C2876 C2877 1.377 . S
C2876 C2878 1.384 . S
C2877 C2876 1.377 . S
C2877 C2883 1.390 . S
C2878 H2869 0.930 . S
C2878 C2876 1.384 . S
C2878 C2879 1.372 . S
C2879 C2878 1.372 . S
C2879 C2880 1.400 . S
C2879 C2884 1.490 . S
C2880 H2870 0.930 . S
C2880 C2879 1.400 . S
C2880 C2883 1.386 . S
H2881 C2897 0.930 . S
H2882 C2898 0.931 . S
C2883 H2871 0.929 . S
C2883 C2877 1.390 . S
C2883 C2880 1.386 . S
C2884 C2879 1.490 . S
C2884 C2886 1.395 . S
C2884 C2887 1.403 . S
H2885 C2891 0.930 . S
C2886 H2872 0.930 . S
C2886 C2884 1.395 . S
C2886 C2889 1.403 . S
C2887 C2884 1.403 . S
C2887 C2888 1.524 . S
C2887 C2891 1.400 . S
C2888 H2873 0.960 . S
C2888 H2874 0.960 . S
C2888 H2875 0.960 . S
C2888 C2887 1.524 . S
C2889 C2886 1.403 . S
C2889 C2890 1.392 . S
C2889 C2893 1.495 . S
C2890 C2889 1.392 . S
C2890 C2891 1.385 . S
C2890 C2892 1.478 . S
C2891 H2885 0.930 . S
C2891 C2887 1.400 . S
C2891 C2890 1.385 . S
C2892 C2890 1.478 . S
C2892 C2894 1.381 . S
C2892 C2898 1.383 . S
C2893 C2889 1.495 . S
C2893 H2899 0.959 . S
C2893 H2900 0.961 . S
C2893 H2901 0.960 1_655 S
C2894 C2892 1.381 . S
C2894 C2895 1.394 1_655 S
C2894 H2902 0.935 . S
C2895 C2894 1.394 1_455 S
C2895 C2896 1.375 1_455 S
C2895 H2903 0.929 . S
C2896 C2895 1.375 1_655 S
C2896 C2897 1.399 . S
C2897 H2881 0.930 . S
C2897 C2896 1.399 . S
C2897 C2898 1.379 . S
C2898 H2882 0.931 . S
C2898 C2892 1.383 . S
C2898 C2897 1.379 . S
H2899 C2893 0.959 . S
H2900 C2893 0.961 . S
H2901 C2893 0.960 1_455 S
H2902 C2894 0.935 . S
H2903 C2895 0.929 . S
H2904 C2912 0.929 . S
H2905 C2914 0.930 . S
H2906 C2916 0.930 . S
H2907 C2919 0.929 . S
H2908 C2922 0.930 . S
H2909 C2924 0.960 . S
H2910 C2924 0.960 . S
H2911 C2924 0.960 . S
C2912 H2904 0.929 . S
C2912 C2913 1.377 . S
C2912 C2914 1.384 . S
C2913 C2912 1.377 . S
C2913 C2919 1.390 . S
C2914 H2905 0.930 . S
C2914 C2912 1.384 . S
C2914 C2915 1.372 . S
C2915 C2914 1.372 . S
C2915 C2916 1.400 . S
C2915 C2920 1.490 . S
C2916 H2906 0.930 . S
C2916 C2915 1.400 . S
C2916 C2919 1.386 . S
H2917 C2933 0.930 . S
H2918 C2934 0.931 . S
C2919 H2907 0.929 . S
C2919 C2913 1.390 . S
C2919 C2916 1.386 . S
C2920 C2915 1.490 . S
C2920 C2922 1.395 . S
C2920 C2923 1.403 . S
H2921 C2927 0.930 . S
C2922 H2908 0.930 . S
C2922 C2920 1.395 . S
C2922 C2925 1.403 . S
C2923 C2920 1.403 . S
C2923 C2924 1.524 . S
C2923 C2927 1.400 . S
C2924 H2909 0.960 . S
C2924 H2910 0.960 . S
C2924 H2911 0.960 . S
C2924 C2923 1.524 . S
C2925 C2922 1.403 . S
C2925 C2926 1.392 . S
C2925 C2929 1.495 . S
C2926 C2925 1.392 . S
C2926 C2927 1.385 . S
C2926 C2928 1.478 . S
C2927 H2921 0.930 . S
C2927 C2923 1.400 . S
C2927 C2926 1.385 . S
C2928 C2926 1.478 . S
C2928 C2930 1.381 . S
C2928 C2934 1.383 . S
C2929 C2925 1.495 . S
C2929 H2935 0.959 . S
C2929 H2936 0.961 . S
C2929 H2937 0.960 . S
C2930 C2928 1.381 . S
C2930 C2931 1.394 . S
C2930 H2938 0.930 . S
C2931 C2930 1.394 . S
C2931 C2932 1.383 . S
C2931 H2939 0.929 . S
C2932 C2931 1.383 . S
C2932 C2933 1.377 . S
C2933 H2917 0.930 . S
C2933 C2932 1.377 . S
C2933 C2934 1.379 . S
C2934 H2918 0.931 . S
C2934 C2928 1.383 . S
C2934 C2933 1.379 . S
H2935 C2929 0.959 . S
H2936 C2929 0.961 . S
H2937 C2929 0.960 . S
H2938 C2930 0.930 . S
H2939 C2931 0.929 . S
H2940 C2948 0.929 . S
H2941 C2950 0.930 . S
H2942 C2952 0.930 . S
H2943 C2955 0.929 . S
H2944 C2958 0.930 . S
H2945 C2960 0.960 . S
H2946 C2960 0.960 . S
H2947 C2960 0.960 . S
C2948 H2940 0.929 . S
C2948 C2949 1.377 . S
C2948 C2950 1.384 . S
C2949 C2948 1.377 . S
C2949 C2955 1.390 . S
C2950 H2941 0.930 . S
C2950 C2948 1.384 . S
C2950 C2951 1.372 . S
C2951 C2950 1.372 . S
C2951 C2952 1.400 . S
C2951 C2956 1.490 . S
C2952 H2942 0.930 . S
C2952 C2951 1.400 . S
C2952 C2955 1.386 . S
H2953 C2969 0.930 . S
H2954 C2970 0.931 . S
C2955 H2943 0.929 . S
C2955 C2949 1.390 . S
C2955 C2952 1.386 . S
C2956 C2951 1.490 . S
C2956 C2958 1.395 . S
C2956 C2959 1.403 . S
H2957 C2963 0.930 . S
C2958 H2944 0.930 . S
C2958 C2956 1.395 . S
C2958 C2961 1.403 . S
C2959 C2956 1.403 . S
C2959 C2960 1.524 . S
C2959 C2963 1.400 . S
C2960 H2945 0.960 . S
C2960 H2946 0.960 . S
C2960 H2947 0.960 . S
C2960 C2959 1.524 . S
C2961 C2958 1.403 . S
C2961 C2962 1.392 . S
C2961 C2965 1.495 . S
C2962 C2961 1.392 . S
C2962 C2963 1.385 . S
C2962 C2964 1.478 . S
C2963 H2957 0.930 . S
C2963 C2959 1.400 . S
C2963 C2962 1.385 . S
C2964 C2962 1.478 . S
C2964 C2966 1.381 . S
C2964 C2970 1.383 . S
C2965 C2961 1.495 . S
C2965 H2971 0.959 . S
C2965 H2972 0.961 . S
C2965 H2973 0.960 . S
C2966 C2964 1.381 . S
C2966 C2967 1.394 . S
C2966 H2974 0.930 . S
C2967 C2966 1.394 . S
C2967 C2968 1.383 . S
C2967 H2975 0.929 . S
C2968 C2967 1.383 . S
C2968 C2969 1.377 . S
C2969 H2953 0.930 . S
C2969 C2968 1.377 . S
C2969 C2970 1.379 . S
C2970 H2954 0.931 . S
C2970 C2964 1.383 . S
C2970 C2969 1.379 . S
H2971 C2965 0.959 . S
H2972 C2965 0.961 . S
H2973 C2965 0.960 . S
H2974 C2966 0.930 . S
H2975 C2967 0.929 . S
H2976 C2984 0.929 . S
H2977 C2986 0.930 . S
H2978 C2988 0.930 . S
H2979 C2991 0.929 . S
H2980 C2994 0.930 . S
H2981 C2996 0.960 . S
H2982 C2996 0.960 . S
H2983 C2996 0.960 . S
C2984 H2976 0.929 . S
C2984 C2985 1.377 . S
C2984 C2986 1.384 . S
C2985 C2984 1.377 . S
C2985 C2991 1.390 . S
C2986 H2977 0.930 . S
C2986 C2984 1.384 . S
C2986 C2987 1.372 . S
C2987 C2986 1.372 . S
C2987 C2988 1.400 . S
C2987 C2992 1.490 . S
C2988 H2978 0.930 . S
C2988 C2987 1.400 . S
C2988 C2991 1.386 . S
H2989 C3005 0.930 . S
H2990 C3006 0.931 . S
C2991 H2979 0.929 . S
C2991 C2985 1.390 . S
C2991 C2988 1.386 . S
C2992 C2987 1.490 . S
C2992 C2994 1.395 . S
C2992 C2995 1.403 . S
H2993 C2999 0.930 . S
C2994 H2980 0.930 . S
C2994 C2992 1.395 . S
C2994 C2997 1.403 . S
C2995 C2992 1.403 . S
C2995 C2996 1.524 . S
C2995 C2999 1.400 . S
C2996 H2981 0.960 . S
C2996 H2982 0.960 . S
C2996 H2983 0.960 . S
C2996 C2995 1.524 . S
C2997 C2994 1.403 . S
C2997 C2998 1.392 . S
C2997 C3001 1.495 . S
C2998 C2997 1.392 . S
C2998 C2999 1.385 . S
C2998 C3000 1.478 . S
C2999 H2993 0.930 . S
C2999 C2995 1.400 . S
C2999 C2998 1.385 . S
C3000 C2998 1.478 . S
C3000 C3002 1.381 . S
C3000 C3006 1.383 . S
C3001 C2997 1.495 . S
C3001 H3007 0.959 . S
C3001 H3008 0.961 . S
C3001 H3009 0.960 . S
C3002 C3000 1.381 . S
C3002 C3003 1.394 . S
C3002 H3010 0.930 . S
C3003 C3002 1.394 . S
C3003 C3004 1.383 . S
C3003 H3011 0.929 . S
C3004 C3003 1.383 . S
C3004 C3005 1.377 . S
C3005 H2989 0.930 . S
C3005 C3004 1.377 . S
C3005 C3006 1.379 . S
C3006 H2990 0.931 . S
C3006 C3000 1.383 . S
C3006 C3005 1.379 . S
H3007 C3001 0.959 . S
H3008 C3001 0.961 . S
H3009 C3001 0.960 . S
H3010 C3002 0.930 . S
H3011 C3003 0.929 . S
H3012 C3020 0.929 . S
H3013 C3022 0.930 . S
H3014 C3024 0.930 . S
H3015 C3027 0.929 . S
H3016 C3030 0.930 . S
H3017 C3032 0.960 . S
H3018 C3032 0.960 . S
H3019 C3032 0.960 . S
C3020 H3012 0.929 . S
C3020 C3021 1.377 . S
C3020 C3022 1.384 . S
C3021 C3020 1.377 . S
C3021 C3027 1.390 . S
C3022 H3013 0.930 . S
C3022 C3020 1.384 . S
C3022 C3023 1.372 . S
C3023 C3022 1.372 . S
C3023 C3024 1.400 . S
C3023 C3028 1.490 . S
C3024 H3014 0.930 . S
C3024 C3023 1.400 . S
C3024 C3027 1.386 . S
H3025 C3041 0.930 . S
H3026 C3042 0.931 . S
C3027 H3015 0.929 . S
C3027 C3021 1.390 . S
C3027 C3024 1.386 . S
C3028 C3023 1.490 . S
C3028 C3030 1.395 . S
C3028 C3031 1.403 . S
H3029 C3035 0.930 . S
C3030 H3016 0.930 . S
C3030 C3028 1.395 . S
C3030 C3033 1.403 . S
C3031 C3028 1.403 . S
C3031 C3032 1.524 . S
C3031 C3035 1.400 . S
C3032 H3017 0.960 . S
C3032 H3018 0.960 . S
C3032 H3019 0.960 . S
C3032 C3031 1.524 . S
C3033 C3030 1.403 . S
C3033 C3034 1.392 . S
C3033 C3037 1.495 . S
C3034 C3033 1.392 . S
C3034 C3035 1.385 . S
C3034 C3036 1.478 . S
C3035 H3029 0.930 . S
C3035 C3031 1.400 . S
C3035 C3034 1.385 . S
C3036 C3034 1.478 . S
C3036 C3038 1.381 . S
C3036 C3042 1.383 . S
C3037 C3033 1.495 . S
C3037 H3043 0.959 . S
C3037 H3044 0.961 . S
C3037 H3045 0.960 . S
C3038 C3036 1.381 . S
C3038 C3039 1.394 . S
C3038 H3046 0.930 . S
C3039 C3038 1.394 . S
C3039 C3040 1.383 . S
C3039 H3047 0.929 . S
C3040 C3039 1.383 . S
C3040 C3041 1.377 . S
C3041 H3025 0.930 . S
C3041 C3040 1.377 . S
C3041 C3042 1.379 . S
C3042 H3026 0.931 . S
C3042 C3036 1.383 . S
C3042 C3041 1.379 . S
H3043 C3037 0.959 . S
H3044 C3037 0.961 . S
H3045 C3037 0.960 . S
H3046 C3038 0.930 . S
H3047 C3039 0.929 . S
H3048 C3056 0.929 . S
H3049 C3058 0.930 . S
H3050 C3060 0.930 . S
H3051 C3063 0.929 . S
H3052 C3066 0.930 . S
H3053 C3068 0.960 . S
H3054 C3068 0.960 . S
H3055 C3068 0.960 . S
C3056 H3048 0.929 . S
C3056 C3057 1.377 . S
C3056 C3058 1.384 . S
C3057 C3056 1.377 . S
C3057 C3063 1.390 . S
C3058 H3049 0.930 . S
C3058 C3056 1.384 . S
C3058 C3059 1.372 . S
C3059 C3058 1.372 . S
C3059 C3060 1.400 . S
C3059 C3064 1.490 . S
C3060 H3050 0.930 . S
C3060 C3059 1.400 . S
C3060 C3063 1.386 . S
H3061 C3077 0.930 . S
H3062 C3078 0.931 . S
C3063 H3051 0.929 . S
C3063 C3057 1.390 . S
C3063 C3060 1.386 . S
C3064 C3059 1.490 . S
C3064 C3066 1.395 . S
C3064 C3067 1.403 . S
H3065 C3071 0.930 . S
C3066 H3052 0.930 . S
C3066 C3064 1.395 . S
C3066 C3069 1.403 . S
C3067 C3064 1.403 . S
C3067 C3068 1.524 . S
C3067 C3071 1.400 . S
C3068 H3053 0.960 . S
C3068 H3054 0.960 . S
C3068 H3055 0.960 . S
C3068 C3067 1.524 . S
C3069 C3066 1.403 . S
C3069 C3070 1.392 . S
C3069 C3073 1.495 . S
C3070 C3069 1.392 . S
C3070 C3071 1.385 . S
C3070 C3072 1.478 . S
C3071 H3065 0.930 . S
C3071 C3067 1.400 . S
C3071 C3070 1.385 . S
C3072 C3070 1.478 . S
C3072 C3074 1.381 . S
C3072 C3078 1.383 . S
C3073 C3069 1.495 . S
C3073 H3079 0.959 . S
C3073 H3080 0.961 . S
C3073 H3081 0.960 . S
C3074 C3072 1.381 . S
C3074 C3075 1.394 . S
C3074 H3082 0.930 . S
C3075 C3074 1.394 . S
C3075 C3076 1.383 . S
C3075 H3083 0.929 . S
C3076 C3075 1.383 . S
C3076 C3077 1.377 . S
C3077 H3061 0.930 . S
C3077 C3076 1.377 . S
C3077 C3078 1.379 . S
C3078 H3062 0.931 . S
C3078 C3072 1.383 . S
C3078 C3077 1.379 . S
H3079 C3073 0.959 . S
H3080 C3073 0.961 . S
H3081 C3073 0.960 . S
H3082 C3074 0.930 . S
H3083 C3075 0.929 . S
H3084 C3092 0.929 . S
H3085 C3094 0.930 . S
H3086 C3096 0.930 . S
H3087 C3099 0.929 . S
H3088 C3102 0.930 . S
H3089 C3104 0.960 . S
H3090 C3104 0.960 . S
H3091 C3104 0.960 . S
C3092 H3084 0.929 . S
C3092 C3093 1.377 . S
C3092 C3094 1.384 . S
C3093 C3092 1.377 . S
C3093 C3099 1.390 . S
C3094 H3085 0.930 . S
C3094 C3092 1.384 . S
C3094 C3095 1.372 . S
C3095 C3094 1.372 . S
C3095 C3096 1.400 . S
C3095 C3100 1.490 . S
C3096 H3086 0.930 . S
C3096 C3095 1.400 . S
C3096 C3099 1.386 . S
H3097 C3113 0.930 . S
H3098 C3114 0.931 . S
C3099 H3087 0.929 . S
C3099 C3093 1.390 . S
C3099 C3096 1.386 . S
C3100 C3095 1.490 . S
C3100 C3102 1.395 . S
C3100 C3103 1.403 . S
H3101 C3107 0.930 . S
C3102 H3088 0.930 . S
C3102 C3100 1.395 . S
C3102 C3105 1.403 . S
C3103 C3100 1.403 . S
C3103 C3104 1.524 . S
C3103 C3107 1.400 . S
C3104 H3089 0.960 . S
C3104 H3090 0.960 . S
C3104 H3091 0.960 . S
C3104 C3103 1.524 . S
C3105 C3102 1.403 . S
C3105 C3106 1.392 . S
C3105 C3109 1.495 . S
C3106 C3105 1.392 . S
C3106 C3107 1.385 . S
C3106 C3108 1.478 . S
C3107 H3101 0.930 . S
C3107 C3103 1.400 . S
C3107 C3106 1.385 . S
C3108 C3106 1.478 . S
C3108 C3110 1.381 . S
C3108 C3114 1.383 . S
C3109 C3105 1.495 . S
C3109 H3115 0.959 . S
C3109 H3116 0.961 . S
C3109 H3117 0.960 . S
C3110 C3108 1.381 . S
C3110 C3111 1.394 . S
C3110 H3118 0.930 . S
C3111 C3110 1.394 . S
C3111 C3112 1.383 . S
C3111 H3119 0.929 . S
C3112 C3111 1.383 . S
C3112 C3113 1.377 . S
C3113 H3097 0.930 . S
C3113 C3112 1.377 . S
C3113 C3114 1.379 . S
C3114 H3098 0.931 . S
C3114 C3108 1.383 . S
C3114 C3113 1.379 . S
H3115 C3109 0.959 . S
H3116 C3109 0.961 . S
H3117 C3109 0.960 . S
H3118 C3110 0.930 . S
H3119 C3111 0.929 . S
H3120 C3128 0.929 . S
H3121 C3130 0.930 . S
H3122 C3132 0.930 . S
H3123 C3135 0.929 . S
H3124 C3138 0.930 . S
H3125 C3140 0.960 . S
H3126 C3140 0.960 . S
H3127 C3140 0.960 . S
C3128 H3120 0.929 . S
C3128 C3129 1.377 . S
C3128 C3130 1.384 . S
C3129 C3128 1.377 . S
C3129 C3135 1.390 . S
C3130 H3121 0.930 . S
C3130 C3128 1.384 . S
C3130 C3131 1.372 . S
C3131 C3130 1.372 . S
C3131 C3132 1.400 . S
C3131 C3136 1.490 . S
C3132 H3122 0.930 . S
C3132 C3131 1.400 . S
C3132 C3135 1.386 . S
H3133 C3149 0.930 . S
H3134 C3150 0.931 . S
C3135 H3123 0.929 . S
C3135 C3129 1.390 . S
C3135 C3132 1.386 . S
C3136 C3131 1.490 . S
C3136 C3138 1.395 . S
C3136 C3139 1.403 . S
H3137 C3143 0.930 . S
C3138 H3124 0.930 . S
C3138 C3136 1.395 . S
C3138 C3141 1.403 . S
C3139 C3136 1.403 . S
C3139 C3140 1.524 . S
C3139 C3143 1.400 . S
C3140 H3125 0.960 . S
C3140 H3126 0.960 . S
C3140 H3127 0.960 . S
C3140 C3139 1.524 . S
C3141 C3138 1.403 . S
C3141 C3142 1.392 . S
C3141 C3145 1.495 . S
C3142 C3141 1.392 . S
C3142 C3143 1.385 . S
C3142 C3144 1.478 . S
C3143 H3137 0.930 . S
C3143 C3139 1.400 . S
C3143 C3142 1.385 . S
C3144 C3142 1.478 . S
C3144 C3146 1.381 . S
C3144 C3150 1.383 . S
C3145 C3141 1.495 . S
C3145 H3151 0.959 . S
C3145 H3152 0.961 . S
C3145 H3153 0.960 . S
C3146 C3144 1.381 . S
C3146 C3147 1.394 . S
C3146 H3154 0.930 . S
C3147 C3146 1.394 . S
C3147 C3148 1.383 . S
C3147 H3155 0.929 . S
C3148 C3147 1.383 . S
C3148 C3149 1.377 . S
C3149 H3133 0.930 . S
C3149 C3148 1.377 . S
C3149 C3150 1.379 . S
C3150 H3134 0.931 . S
C3150 C3144 1.383 . S
C3150 C3149 1.379 . S
H3151 C3145 0.959 . S
H3152 C3145 0.961 . S
H3153 C3145 0.960 . S
H3154 C3146 0.930 . S
H3155 C3147 0.929 . S
H3156 C3164 0.929 . S
H3157 C3166 0.930 . S
H3158 C3168 0.930 . S
H3159 C3171 0.929 . S
H3160 C3174 0.930 . S
H3161 C3176 0.960 . S
H3162 C3176 0.960 . S
H3163 C3176 0.960 . S
C3164 H3156 0.929 . S
C3164 C3165 1.377 . S
C3164 C3166 1.384 . S
C3165 C3164 1.377 . S
C3165 C3171 1.390 . S
C3166 H3157 0.930 . S
C3166 C3164 1.384 . S
C3166 C3167 1.372 . S
C3167 C3166 1.372 . S
C3167 C3168 1.400 . S
C3167 C3172 1.490 . S
C3168 H3158 0.930 . S
C3168 C3167 1.400 . S
C3168 C3171 1.386 . S
H3169 C3185 0.930 . S
H3170 C3186 0.931 . S
C3171 H3159 0.929 . S
C3171 C3165 1.390 . S
C3171 C3168 1.386 . S
C3172 C3167 1.490 . S
C3172 C3174 1.395 . S
C3172 C3175 1.403 . S
H3173 C3179 0.930 . S
C3174 H3160 0.930 . S
C3174 C3172 1.395 . S
C3174 C3177 1.403 . S
C3175 C3172 1.403 . S
C3175 C3176 1.524 . S
C3175 C3179 1.400 . S
C3176 H3161 0.960 . S
C3176 H3162 0.960 . S
C3176 H3163 0.960 . S
C3176 C3175 1.524 . S
C3177 C3174 1.403 . S
C3177 C3178 1.392 . S
C3177 C3181 1.495 . S
C3178 C3177 1.392 . S
C3178 C3179 1.385 . S
C3178 C3180 1.478 . S
C3179 H3173 0.930 . S
C3179 C3175 1.400 . S
C3179 C3178 1.385 . S
C3180 C3178 1.478 . S
C3180 C3182 1.381 . S
C3180 C3186 1.383 . S
C3181 C3177 1.495 . S
C3181 H3187 0.959 . S
C3181 H3188 0.961 . S
C3181 H3189 0.960 . S
C3182 C3180 1.381 . S
C3182 C3183 1.394 . S
C3182 H3190 0.930 . S
C3183 C3182 1.394 . S
C3183 C3184 1.383 . S
C3183 H3191 0.929 . S
C3184 C3183 1.383 . S
C3184 C3185 1.377 . S
C3185 H3169 0.930 . S
C3185 C3184 1.377 . S
C3185 C3186 1.379 . S
C3186 H3170 0.931 . S
C3186 C3180 1.383 . S
C3186 C3185 1.379 . S
H3187 C3181 0.959 . S
H3188 C3181 0.961 . S
H3189 C3181 0.960 . S
H3190 C3182 0.930 . S
H3191 C3183 0.929 . S
H3192 C3200 0.929 . S
H3193 C3202 0.930 1_554 S
H3194 C3204 0.930 . S
H3195 C3207 0.929 . S
H3196 C3210 0.930 . S
H3197 C3212 0.960 . S
H3198 C3212 0.960 . S
H3199 C3212 0.960 . S
C3200 H3192 0.929 . S
C3200 C3201 1.377 1_554 S
C3200 C3202 1.384 1_554 S
C3201 C3200 1.377 1_556 S
C3201 C3207 1.390 . S
C3202 H3193 0.930 1_556 S
C3202 C3200 1.384 1_556 S
C3202 C3203 1.372 . S
C3203 C3202 1.372 . S
C3203 C3204 1.400 . S
C3203 C3208 1.490 . S
C3204 H3194 0.930 . S
C3204 C3203 1.400 . S
C3204 C3207 1.386 . S
H3205 C3221 0.930 . S
H3206 C3222 0.931 . S
C3207 H3195 0.929 . S
C3207 C3201 1.390 . S
C3207 C3204 1.386 . S
C3208 C3203 1.490 . S
C3208 C3210 1.395 . S
C3208 C3211 1.403 . S
H3209 C3215 0.930 . S
C3210 H3196 0.930 . S
C3210 C3208 1.395 . S
C3210 C3213 1.403 . S
C3211 C3208 1.403 . S
C3211 C3212 1.524 . S
C3211 C3215 1.400 . S
C3212 H3197 0.960 . S
C3212 H3198 0.960 . S
C3212 H3199 0.960 . S
C3212 C3211 1.524 . S
C3213 C3210 1.403 . S
C3213 C3214 1.392 . S
C3213 C3217 1.495 . S
C3214 C3213 1.392 . S
C3214 C3215 1.385 . S
C3214 C3216 1.478 . S
C3215 H3209 0.930 . S
C3215 C3211 1.400 . S
C3215 C3214 1.385 . S
C3216 C3214 1.478 . S
C3216 C3218 1.381 . S
C3216 C3222 1.383 . S
C3217 C3213 1.495 . S
C3217 H3223 0.959 . S
C3217 H3224 0.961 . S
C3217 H3225 0.960 . S
C3218 C3216 1.381 . S
C3218 C3219 1.394 . S
C3218 H3226 0.930 . S
C3219 C3218 1.394 . S
C3219 C3220 1.383 . S
C3219 H3227 0.929 . S
C3220 C3219 1.383 . S
C3220 C3221 1.377 . S
C3221 H3205 0.930 . S
C3221 C3220 1.377 . S
C3221 C3222 1.379 . S
C3222 H3206 0.931 . S
C3222 C3216 1.383 . S
C3222 C3221 1.379 . S
H3223 C3217 0.959 . S
H3224 C3217 0.961 . S
H3225 C3217 0.960 . S
H3226 C3218 0.930 . S
H3227 C3219 0.929 . S
H3228 C3236 0.929 . S
H3229 C3238 0.930 . S
H3230 C3240 0.930 . S
H3231 C3243 0.929 . S
H3232 C3246 0.930 . S
H3233 C3248 0.960 . S
H3234 C3248 0.960 . S
H3235 C3248 0.960 . S
C3236 H3228 0.929 . S
C3236 C3237 1.377 . S
C3236 C3238 1.384 . S
C3237 C3236 1.377 . S
C3237 C3243 1.390 . S
C3238 H3229 0.930 . S
C3238 C3236 1.384 . S
C3238 C3239 1.372 . S
C3239 C3238 1.372 . S
C3239 C3240 1.400 . S
C3239 C3244 1.490 . S
C3240 H3230 0.930 . S
C3240 C3239 1.400 . S
C3240 C3243 1.386 . S
H3241 C3257 0.930 . S
H3242 C3258 0.931 . S
C3243 H3231 0.929 . S
C3243 C3237 1.390 . S
C3243 C3240 1.386 . S
C3244 C3239 1.490 . S
C3244 C3246 1.395 1_455 S
C3244 C3247 1.403 . S
H3245 C3251 0.930 . S
C3246 H3232 0.930 . S
C3246 C3244 1.395 1_655 S
C3246 C3249 1.403 . S
C3247 C3244 1.403 . S
C3247 C3248 1.524 . S
C3247 C3251 1.400 1_455 S
C3248 H3233 0.960 . S
C3248 H3234 0.960 . S
C3248 H3235 0.960 . S
C3248 C3247 1.524 . S
C3249 C3246 1.403 . S
C3249 C3250 1.392 . S
C3249 C3253 1.495 . S
C3250 C3249 1.392 . S
C3250 C3251 1.385 . S
C3250 C3252 1.478 . S
C3251 H3245 0.930 . S
C3251 C3247 1.400 1_655 S
C3251 C3250 1.385 . S
C3252 C3250 1.478 . S
C3252 C3254 1.381 . S
C3252 C3258 1.383 . S
C3253 C3249 1.495 . S
C3253 H3259 0.959 . S
C3253 H3260 0.961 . S
C3253 H3261 0.960 . S
C3254 C3252 1.381 . S
C3254 C3255 1.394 . S
C3254 H3262 0.930 . S
C3255 C3254 1.394 . S
C3255 C3256 1.383 . S
C3255 H3263 0.929 . S
C3256 C3255 1.383 . S
C3256 C3257 1.377 . S
C3257 H3241 0.930 . S
C3257 C3256 1.377 . S
C3257 C3258 1.379 . S
C3258 H3242 0.931 . S
C3258 C3252 1.383 . S
C3258 C3257 1.379 . S
H3259 C3253 0.959 . S
H3260 C3253 0.961 . S
H3261 C3253 0.960 . S
H3262 C3254 0.930 . S
H3263 C3255 0.929 . S
H3264 C3272 0.929 . S
H3265 C3274 0.930 . S
H3266 C3276 0.930 . S
H3267 C3279 0.929 . S
H3268 C3282 0.930 . S
H3269 C3284 0.960 . S
H3270 C3284 0.960 . S
H3271 C3284 0.960 . S
C3272 H3264 0.929 . S
C3272 C3273 1.377 . S
C3272 C3274 1.384 . S
C3273 C3272 1.377 . S
C3273 C3279 1.390 . S
C3274 H3265 0.930 . S
C3274 C3272 1.384 . S
C3274 C3275 1.372 . S
C3275 C3274 1.372 . S
C3275 C3276 1.400 . S
C3275 C3280 1.490 . S
C3276 H3266 0.930 . S
C3276 C3275 1.400 . S
C3276 C3279 1.386 . S
H3277 C3293 0.930 . S
H3278 C3294 0.931 . S
C3279 H3267 0.929 . S
C3279 C3273 1.390 . S
C3279 C3276 1.386 . S
C3280 C3275 1.490 . S
C3280 C3282 1.395 . S
C3280 C3283 1.403 . S
H3281 C3287 0.930 . S
C3282 H3268 0.930 . S
C3282 C3280 1.395 . S
C3282 C3285 1.403 . S
C3283 C3280 1.403 . S
C3283 C3284 1.524 . S
C3283 C3287 1.400 . S
C3284 H3269 0.960 . S
C3284 H3270 0.960 . S
C3284 H3271 0.960 . S
C3284 C3283 1.524 . S
C3285 C3282 1.403 . S
C3285 C3286 1.392 . S
C3285 C3289 1.495 . S
C3286 C3285 1.392 . S
C3286 C3287 1.385 . S
C3286 C3288 1.478 . S
C3287 H3281 0.930 . S
C3287 C3283 1.400 . S
C3287 C3286 1.385 . S
C3288 C3286 1.478 . S
C3288 C3290 1.381 . S
C3288 C3294 1.383 . S
C3289 C3285 1.495 . S
C3289 H3295 0.959 . S
C3289 H3296 0.961 . S
C3289 H3297 0.960 . S
C3290 C3288 1.381 . S
C3290 C3291 1.394 . S
C3290 H3298 0.930 . S
C3291 C3290 1.394 . S
C3291 C3292 1.383 . S
C3291 H3299 0.929 . S
C3292 C3291 1.383 . S
C3292 C3293 1.377 . S
C3293 H3277 0.930 . S
C3293 C3292 1.377 . S
C3293 C3294 1.379 . S
C3294 H3278 0.931 . S
C3294 C3288 1.383 . S
C3294 C3293 1.379 . S
H3295 C3289 0.959 . S
H3296 C3289 0.961 . S
H3297 C3289 0.960 . S
H3298 C3290 0.930 . S
H3299 C3291 0.929 . S
H3300 C3308 0.929 . S
H3301 C3310 0.930 . S
H3302 C3312 0.930 . S
H3303 C3315 0.929 . S
H3304 C3318 0.930 . S
H3305 C3320 0.960 . S
H3306 C3320 0.960 . S
H3307 C3320 0.960 . S
C3308 H3300 0.929 . S
C3308 C3309 1.377 . S
C3308 C3310 1.384 . S
C3309 C3308 1.377 . S
C3309 C3315 1.390 . S
C3310 H3301 0.930 . S
C3310 C3308 1.384 . S
C3310 C3311 1.372 . S
C3311 C3310 1.372 . S
C3311 C3312 1.400 . S
C3311 C3316 1.490 . S
C3312 H3302 0.930 . S
C3312 C3311 1.400 . S
C3312 C3315 1.386 . S
H3313 C3329 0.930 . S
H3314 C3330 0.931 . S
C3315 H3303 0.929 . S
C3315 C3309 1.390 . S
C3315 C3312 1.386 . S
C3316 C3311 1.490 . S
C3316 C3318 1.395 . S
C3316 C3319 1.403 . S
H3317 C3323 0.930 . S
C3318 H3304 0.930 . S
C3318 C3316 1.395 . S
C3318 C3321 1.403 . S
C3319 C3316 1.403 . S
C3319 C3320 1.524 . S
C3319 C3323 1.400 . S
C3320 H3305 0.960 . S
C3320 H3306 0.960 . S
C3320 H3307 0.960 . S
C3320 C3319 1.524 . S
C3321 C3318 1.403 . S
C3321 C3322 1.392 . S
C3321 C3325 1.495 . S
C3322 C3321 1.392 . S
C3322 C3323 1.385 . S
C3322 C3324 1.478 . S
C3323 H3317 0.930 . S
C3323 C3319 1.400 . S
C3323 C3322 1.385 . S
C3324 C3322 1.478 . S
C3324 C3326 1.381 . S
C3324 C3330 1.383 . S
C3325 C3321 1.495 . S
C3325 H3331 0.959 . S
C3325 H3332 0.961 . S
C3325 H3333 0.960 . S
C3326 C3324 1.381 . S
C3326 C3327 1.394 . S
C3326 H3334 0.930 . S
C3327 C3326 1.394 . S
C3327 C3328 1.383 . S
C3327 H3335 0.929 . S
C3328 C3327 1.383 . S
C3328 C3329 1.377 . S
C3329 H3313 0.930 . S
C3329 C3328 1.377 . S
C3329 C3330 1.379 . S
C3330 H3314 0.931 . S
C3330 C3324 1.383 . S
C3330 C3329 1.379 . S
H3331 C3325 0.959 . S
H3332 C3325 0.961 . S
H3333 C3325 0.960 . S
H3334 C3326 0.930 . S
H3335 C3327 0.929 . S
H3336 C3344 0.929 . S
H3337 C3346 0.930 . S
H3338 C3348 0.930 . S
H3339 C3351 0.929 . S
H3340 C3354 0.930 . S
H3341 C3356 0.960 . S
H3342 C3356 0.960 . S
H3343 C3356 0.960 . S
C3344 H3336 0.929 . S
C3344 C3345 1.377 . S
C3344 C3346 1.384 . S
C3345 C3344 1.377 . S
C3345 C3351 1.390 . S
C3346 H3337 0.930 . S
C3346 C3344 1.384 . S
C3346 C3347 1.372 . S
C3347 C3346 1.372 . S
C3347 C3348 1.400 . S
C3347 C3352 1.490 . S
C3348 H3338 0.930 . S
C3348 C3347 1.400 . S
C3348 C3351 1.386 . S
H3349 C3365 0.930 . S
H3350 C3366 0.931 . S
C3351 H3339 0.929 . S
C3351 C3345 1.390 . S
C3351 C3348 1.386 . S
C3352 C3347 1.490 . S
C3352 C3354 1.395 . S
C3352 C3355 1.403 . S
H3353 C3359 0.930 . S
C3354 H3340 0.930 . S
C3354 C3352 1.395 . S
C3354 C3357 1.403 . S
C3355 C3352 1.403 . S
C3355 C3356 1.524 . S
C3355 C3359 1.400 . S
C3356 H3341 0.960 . S
C3356 H3342 0.960 . S
C3356 H3343 0.960 . S
C3356 C3355 1.524 . S
C3357 C3354 1.403 . S
C3357 C3358 1.392 . S
C3357 C3361 1.495 . S
C3358 C3357 1.392 . S
C3358 C3359 1.385 . S
C3358 C3360 1.478 . S
C3359 H3353 0.930 . S
C3359 C3355 1.400 . S
C3359 C3358 1.385 . S
C3360 C3358 1.478 . S
C3360 C3362 1.381 . S
C3360 C3366 1.383 . S
C3361 C3357 1.495 . S
C3361 H3367 0.959 . S
C3361 H3368 0.961 . S
C3361 H3369 0.960 . S
C3362 C3360 1.381 . S
C3362 C3363 1.394 . S
C3362 H3370 0.930 . S
C3363 C3362 1.394 . S
C3363 C3364 1.383 . S
C3363 H3371 0.929 . S
C3364 C3363 1.383 . S
C3364 C3365 1.377 . S
C3365 H3349 0.930 . S
C3365 C3364 1.377 . S
C3365 C3366 1.379 . S
C3366 H3350 0.931 . S
C3366 C3360 1.383 . S
C3366 C3365 1.379 . S
H3367 C3361 0.959 . S
H3368 C3361 0.961 . S
H3369 C3361 0.960 . S
H3370 C3362 0.930 . S
H3371 C3363 0.929 . S
H3372 C3380 0.929 . S
H3373 C3382 0.930 . S
H3374 C3384 0.930 . S
H3375 C3387 0.929 . S
H3376 C3390 0.930 . S
H3377 C3392 0.960 . S
H3378 C3392 0.960 . S
H3379 C3392 0.960 . S
C3380 H3372 0.929 . S
C3380 C3381 1.377 . S
C3380 C3382 1.384 . S
C3381 C3380 1.377 . S
C3381 C3387 1.390 . S
C3382 H3373 0.930 . S
C3382 C3380 1.384 . S
C3382 C3383 1.372 . S
C3383 C3382 1.372 . S
C3383 C3384 1.400 . S
C3383 C3388 1.490 . S
C3384 H3374 0.930 . S
C3384 C3383 1.400 . S
C3384 C3387 1.386 . S
H3385 C3401 0.930 . S
H3386 C3402 0.931 . S
C3387 H3375 0.929 . S
C3387 C3381 1.390 . S
C3387 C3384 1.386 . S
C3388 C3383 1.490 . S
C3388 C3390 1.395 . S
C3388 C3391 1.403 . S
H3389 C3395 0.930 . S
C3390 H3376 0.930 . S
C3390 C3388 1.395 . S
C3390 C3393 1.403 . S
C3391 C3388 1.403 . S
C3391 C3392 1.524 . S
C3391 C3395 1.400 . S
C3392 H3377 0.960 . S
C3392 H3378 0.960 . S
C3392 H3379 0.960 . S
C3392 C3391 1.524 . S
C3393 C3390 1.403 . S
C3393 C3394 1.392 . S
C3393 C3397 1.495 . S
C3394 C3393 1.392 . S
C3394 C3395 1.385 . S
C3394 C3396 1.478 . S
C3395 H3389 0.930 . S
C3395 C3391 1.400 . S
C3395 C3394 1.385 . S
C3396 C3394 1.478 . S
C3396 C3398 1.381 . S
C3396 C3402 1.383 . S
C3397 C3393 1.495 . S
C3397 H3403 0.959 . S
C3397 H3404 0.961 . S
C3397 H3405 0.960 . S
C3398 C3396 1.381 . S
C3398 C3399 1.394 . S
C3398 H3406 0.930 . S
C3399 C3398 1.394 . S
C3399 C3400 1.383 . S
C3399 H3407 0.929 . S
C3400 C3399 1.383 . S
C3400 C3401 1.377 . S
C3401 H3385 0.930 . S
C3401 C3400 1.377 . S
C3401 C3402 1.379 . S
C3402 H3386 0.931 . S
C3402 C3396 1.383 . S
C3402 C3401 1.379 . S
H3403 C3397 0.959 . S
H3404 C3397 0.961 . S
H3405 C3397 0.960 . S
H3406 C3398 0.930 . S
H3407 C3399 0.929 . S
H3408 C3416 0.929 . S
H3409 C3418 0.930 . S
H3410 C3420 0.930 . S
H3411 C3423 0.929 . S
H3412 C3426 0.930 . S
H3413 C3428 0.960 . S
H3414 C3428 0.960 . S
H3415 C3428 0.960 . S
C3416 H3408 0.929 . S
C3416 C3417 1.377 . S
C3416 C3418 1.384 . S
C3417 C3416 1.377 . S
C3417 C3423 1.390 . S
C3418 H3409 0.930 . S
C3418 C3416 1.384 . S
C3418 C3419 1.372 . S
C3419 C3418 1.372 . S
C3419 C3420 1.400 . S
C3419 C3424 1.490 . S
C3420 H3410 0.930 . S
C3420 C3419 1.400 . S
C3420 C3423 1.386 . S
H3421 C3437 0.930 . S
H3422 C3438 0.931 . S
C3423 H3411 0.929 . S
C3423 C3417 1.390 . S
C3423 C3420 1.386 . S
C3424 C3419 1.490 . S
C3424 C3426 1.395 . S
C3424 C3427 1.403 . S
H3425 C3431 0.930 . S
C3426 H3412 0.930 . S
C3426 C3424 1.395 . S
C3426 C3429 1.403 . S
C3427 C3424 1.403 . S
C3427 C3428 1.524 . S
C3427 C3431 1.400 . S
C3428 H3413 0.960 . S
C3428 H3414 0.960 . S
C3428 H3415 0.960 . S
C3428 C3427 1.524 . S
C3429 C3426 1.403 . S
C3429 C3430 1.392 . S
C3429 C3433 1.495 . S
C3430 C3429 1.392 . S
C3430 C3431 1.385 . S
C3430 C3432 1.478 . S
C3431 H3425 0.930 . S
C3431 C3427 1.400 . S
C3431 C3430 1.385 . S
C3432 C3430 1.478 . S
C3432 C3434 1.381 . S
C3432 C3438 1.383 . S
C3433 C3429 1.495 . S
C3433 H3439 0.959 . S
C3433 H3440 0.961 . S
C3433 H3441 0.960 . S
C3434 C3432 1.381 . S
C3434 C3435 1.394 . S
C3434 H3442 0.930 . S
C3435 C3434 1.394 . S
C3435 C3436 1.383 . S
C3435 H3443 0.929 . S
C3436 C3435 1.383 . S
C3436 C3437 1.377 . S
C3437 H3421 0.930 . S
C3437 C3436 1.377 . S
C3437 C3438 1.379 . S
C3438 H3422 0.931 . S
C3438 C3432 1.383 . S
C3438 C3437 1.379 . S
H3439 C3433 0.959 . S
H3440 C3433 0.961 . S
H3441 C3433 0.960 . S
H3442 C3434 0.930 . S
H3443 C3435 0.929 . S
H3444 C3452 0.929 . S
H3445 C3454 0.930 . S
H3446 C3456 0.930 . S
H3447 C3459 0.929 . S
H3448 C3462 0.930 . S
H3449 C3464 0.960 . S
H3450 C3464 0.960 . S
H3451 C3464 0.960 . S
C3452 H3444 0.929 . S
C3452 C3453 1.377 . S
C3452 C3454 1.384 . S
C3453 C3452 1.377 . S
C3453 C3459 1.390 . S
C3454 H3445 0.930 . S
C3454 C3452 1.384 . S
C3454 C3455 1.372 . S
C3455 C3454 1.372 . S
C3455 C3456 1.400 . S
C3455 C3460 1.490 . S
C3456 H3446 0.930 . S
C3456 C3455 1.400 . S
C3456 C3459 1.386 . S
H3457 C3473 0.930 . S
H3458 C3474 0.931 . S
C3459 H3447 0.929 . S
C3459 C3453 1.390 . S
C3459 C3456 1.386 . S
C3460 C3455 1.490 . S
C3460 C3462 1.395 . S
C3460 C3463 1.403 . S
H3461 C3467 0.930 . S
C3462 H3448 0.930 . S
C3462 C3460 1.395 . S
C3462 C3465 1.403 . S
C3463 C3460 1.403 . S
C3463 C3464 1.524 . S
C3463 C3467 1.400 . S
C3464 H3449 0.960 . S
C3464 H3450 0.960 . S
C3464 H3451 0.960 . S
C3464 C3463 1.524 . S
C3465 C3462 1.403 . S
C3465 C3466 1.392 . S
C3465 C3469 1.495 . S
C3466 C3465 1.392 . S
C3466 C3467 1.385 . S
C3466 C3468 1.478 . S
C3467 H3461 0.930 . S
C3467 C3463 1.400 . S
C3467 C3466 1.385 . S
C3468 C3466 1.478 . S
C3468 C3470 1.381 . S
C3468 C3474 1.383 . S
C3469 C3465 1.495 . S
C3469 H3475 0.959 . S
C3469 H3476 0.961 . S
C3469 H3477 0.960 . S
C3470 C3468 1.381 . S
C3470 C3471 1.394 . S
C3470 H3478 0.930 . S
C3471 C3470 1.394 . S
C3471 C3472 1.383 . S
C3471 H3479 0.929 . S
C3472 C3471 1.383 . S
C3472 C3473 1.377 . S
C3473 H3457 0.930 . S
C3473 C3472 1.377 . S
C3473 C3474 1.379 . S
C3474 H3458 0.931 . S
C3474 C3468 1.383 . S
C3474 C3473 1.379 . S
H3475 C3469 0.959 . S
H3476 C3469 0.961 . S
H3477 C3469 0.960 . S
H3478 C3470 0.930 . S
H3479 C3471 0.929 . S
H3480 C3488 0.929 . S
H3481 C3490 0.930 . S
H3482 C3492 0.930 . S
H3483 C3495 0.929 . S
H3484 C3498 0.930 . S
H3485 C3500 0.960 . S
H3486 C3500 0.960 . S
H3487 C3500 0.960 . S
C3488 H3480 0.929 . S
C3488 C3489 1.377 . S
C3488 C3490 1.384 . S
C3489 C3488 1.377 . S
C3489 C3495 1.390 . S
C3490 H3481 0.930 . S
C3490 C3488 1.384 . S
C3490 C3491 1.372 . S
C3491 C3490 1.372 . S
C3491 C3492 1.400 . S
C3491 C3496 1.490 . S
C3492 H3482 0.930 . S
C3492 C3491 1.400 . S
C3492 C3495 1.386 . S
H3493 C3509 0.930 . S
H3494 C3510 0.931 . S
C3495 H3483 0.929 . S
C3495 C3489 1.390 . S
C3495 C3492 1.386 . S
C3496 C3491 1.490 . S
C3496 C3498 1.395 . S
C3496 C3499 1.403 . S
H3497 C3503 0.930 . S
C3498 H3484 0.930 . S
C3498 C3496 1.395 . S
C3498 C3501 1.403 . S
C3499 C3496 1.403 . S
C3499 C3500 1.524 . S
C3499 C3503 1.400 . S
C3500 H3485 0.960 . S
C3500 H3486 0.960 . S
C3500 H3487 0.960 . S
C3500 C3499 1.524 . S
C3501 C3498 1.403 . S
C3501 C3502 1.392 . S
C3501 C3505 1.495 . S
C3502 C3501 1.392 . S
C3502 C3503 1.385 . S
C3502 C3504 1.478 . S
C3503 H3497 0.930 . S
C3503 C3499 1.400 . S
C3503 C3502 1.385 . S
C3504 C3502 1.478 . S
C3504 C3506 1.381 . S
C3504 C3510 1.383 . S
C3505 C3501 1.495 . S
C3505 H3511 0.959 . S
C3505 H3512 0.961 . S
C3505 H3513 0.960 . S
C3506 C3504 1.381 . S
C3506 C3507 1.394 . S
C3506 H3514 0.930 . S
C3507 C3506 1.394 . S
C3507 C3508 1.383 . S
C3507 H3515 0.929 . S
C3508 C3507 1.383 . S
C3508 C3509 1.377 . S
C3509 H3493 0.930 . S
C3509 C3508 1.377 . S
C3509 C3510 1.379 . S
C3510 H3494 0.931 . S
C3510 C3504 1.383 . S
C3510 C3509 1.379 . S
H3511 C3505 0.959 . S
H3512 C3505 0.961 . S
H3513 C3505 0.960 . S
H3514 C3506 0.930 . S
H3515 C3507 0.929 . S
H3516 C3524 0.929 . S
H3517 C3526 0.930 . S
H3518 C3528 0.930 . S
H3519 C3531 0.929 . S
H3520 C3534 0.930 . S
H3521 C3536 0.960 . S
H3522 C3536 0.960 . S
H3523 C3536 0.960 . S
C3524 H3516 0.929 . S
C3524 C3525 1.377 . S
C3524 C3526 1.384 . S
C3525 C3524 1.377 . S
C3525 C3531 1.390 . S
C3526 H3517 0.930 . S
C3526 C3524 1.384 . S
C3526 C3527 1.372 . S
C3527 C3526 1.372 . S
C3527 C3528 1.400 . S
C3527 C3532 1.490 . S
C3528 H3518 0.930 . S
C3528 C3527 1.400 . S
C3528 C3531 1.386 . S
H3529 C3545 0.930 . S
H3530 C3546 0.931 . S
C3531 H3519 0.929 . S
C3531 C3525 1.390 . S
C3531 C3528 1.386 . S
C3532 C3527 1.490 . S
C3532 C3534 1.395 . S
C3532 C3535 1.403 . S
H3533 C3539 0.930 . S
C3534 H3520 0.930 . S
C3534 C3532 1.395 . S
C3534 C3537 1.403 . S
C3535 C3532 1.403 . S
C3535 C3536 1.524 . S
C3535 C3539 1.400 . S
C3536 H3521 0.960 . S
C3536 H3522 0.960 . S
C3536 H3523 0.960 . S
C3536 C3535 1.524 . S
C3537 C3534 1.403 . S
C3537 C3538 1.392 . S
C3537 C3541 1.495 . S
C3538 C3537 1.392 . S
C3538 C3539 1.385 . S
C3538 C3540 1.478 . S
C3539 H3533 0.930 . S
C3539 C3535 1.400 . S
C3539 C3538 1.385 . S
C3540 C3538 1.478 . S
C3540 C3542 1.381 . S
C3540 C3546 1.383 . S
C3541 C3537 1.495 . S
C3541 H3547 0.959 . S
C3541 H3548 0.961 . S
C3541 H3549 0.960 . S
C3542 C3540 1.381 . S
C3542 C3543 1.394 . S
C3542 H3550 0.930 . S
C3543 C3542 1.394 . S
C3543 C3544 1.383 . S
C3543 H3551 0.929 . S
C3544 C3543 1.383 . S
C3544 C3545 1.377 . S
C3545 H3529 0.930 . S
C3545 C3544 1.377 . S
C3545 C3546 1.379 . S
C3546 H3530 0.931 . S
C3546 C3540 1.383 . S
C3546 C3545 1.379 . S
H3547 C3541 0.959 . S
H3548 C3541 0.961 . S
H3549 C3541 0.960 . S
H3550 C3542 0.930 . S
H3551 C3543 0.929 . S
H3552 C3560 0.929 . S
H3553 C3562 0.930 . S
H3554 C3564 0.930 . S
H3555 C3567 0.929 . S
H3556 C3570 0.930 . S
H3557 C3572 0.960 . S
H3558 C3572 0.960 . S
H3559 C3572 0.960 . S
C3560 H3552 0.929 . S
C3560 C3561 1.377 . S
C3560 C3562 1.384 . S
C3561 C3560 1.377 . S
C3561 C3567 1.390 . S
C3562 H3553 0.930 . S
C3562 C3560 1.384 . S
C3562 C3563 1.372 . S
C3563 C3562 1.372 . S
C3563 C3564 1.400 . S
C3563 C3568 1.490 . S
C3564 H3554 0.930 . S
C3564 C3563 1.400 . S
C3564 C3567 1.386 . S
H3565 C3581 0.930 . S
H3566 C3582 0.931 . S
C3567 H3555 0.929 . S
C3567 C3561 1.390 . S
C3567 C3564 1.386 . S
C3568 C3563 1.490 . S
C3568 C3570 1.395 . S
C3568 C3571 1.403 . S
H3569 C3575 0.930 . S
C3570 H3556 0.930 . S
C3570 C3568 1.395 . S
C3570 C3573 1.403 . S
C3571 C3568 1.403 . S
C3571 C3572 1.524 . S
C3571 C3575 1.400 . S
C3572 H3557 0.960 . S
C3572 H3558 0.960 . S
C3572 H3559 0.960 . S
C3572 C3571 1.524 . S
C3573 C3570 1.403 . S
C3573 C3574 1.392 . S
C3573 C3577 1.495 . S
C3574 C3573 1.392 . S
C3574 C3575 1.385 . S
C3574 C3576 1.478 . S
C3575 H3569 0.930 . S
C3575 C3571 1.400 . S
C3575 C3574 1.385 . S
C3576 C3574 1.478 . S
C3576 C3578 1.381 . S
C3576 C3582 1.383 . S
C3577 C3573 1.495 . S
C3577 H3583 0.959 . S
C3577 H3584 0.961 . S
C3577 H3585 0.960 . S
C3578 C3576 1.381 . S
C3578 C3579 1.394 . S
C3578 H3586 0.930 . S
C3579 C3578 1.394 . S
C3579 C3580 1.383 . S
C3579 H3587 0.929 . S
C3580 C3579 1.383 . S
C3580 C3581 1.377 . S
C3581 H3565 0.930 . S
C3581 C3580 1.377 . S
C3581 C3582 1.379 . S
C3582 H3566 0.931 . S
C3582 C3576 1.383 . S
C3582 C3581 1.379 . S
H3583 C3577 0.959 . S
H3584 C3577 0.961 . S
H3585 C3577 0.960 . S
H3586 C3578 0.930 . S
H3587 C3579 0.929 . S
H3588 C3596 0.929 . S
H3589 C3598 0.930 . S
H3590 C3600 0.930 . S
H3591 C3603 0.929 . S
H3592 C3606 0.930 . S
H3593 C3608 0.960 . S
H3594 C3608 0.960 . S
H3595 C3608 0.960 . S
C3596 H3588 0.929 . S
C3596 C3597 1.377 . S
C3596 C3598 1.384 . S
C3597 C3596 1.377 . S
C3597 C3603 1.390 . S
C3598 H3589 0.930 . S
C3598 C3596 1.384 . S
C3598 C3599 1.372 . S
C3599 C3598 1.372 . S
C3599 C3600 1.400 . S
C3599 C3604 1.490 . S
C3600 H3590 0.930 . S
C3600 C3599 1.400 . S
C3600 C3603 1.386 . S
H3601 C3617 0.930 . S
H3602 C3618 0.931 . S
C3603 H3591 0.929 . S
C3603 C3597 1.390 . S
C3603 C3600 1.386 . S
C3604 C3599 1.490 . S
C3604 C3606 1.395 . S
C3604 C3607 1.403 . S
H3605 C3611 0.930 . S
C3606 H3592 0.930 . S
C3606 C3604 1.395 . S
C3606 C3609 1.403 . S
C3607 C3604 1.403 . S
C3607 C3608 1.524 . S
C3607 C3611 1.400 . S
C3608 H3593 0.960 . S
C3608 H3594 0.960 . S
C3608 H3595 0.960 . S
C3608 C3607 1.524 . S
C3609 C3606 1.403 . S
C3609 C3610 1.392 . S
C3609 C3613 1.495 . S
C3610 C3609 1.392 . S
C3610 C3611 1.385 . S
C3610 C3612 1.478 . S
C3611 H3605 0.930 . S
C3611 C3607 1.400 . S
C3611 C3610 1.385 . S
C3612 C3610 1.478 . S
C3612 C3614 1.381 . S
C3612 C3618 1.383 . S
C3613 C3609 1.495 . S
C3613 H3619 0.959 . S
C3613 H3620 0.961 . S
C3613 H3621 0.960 . S
C3614 C3612 1.381 . S
C3614 C3615 1.394 . S
C3614 H3622 0.930 . S
C3615 C3614 1.394 . S
C3615 C3616 1.383 . S
C3615 H3623 0.929 . S
C3616 C3615 1.383 . S
C3616 C3617 1.377 . S
C3617 H3601 0.930 . S
C3617 C3616 1.377 . S
C3617 C3618 1.379 . S
C3618 H3602 0.931 . S
C3618 C3612 1.383 . S
C3618 C3617 1.379 . S
H3619 C3613 0.959 . S
H3620 C3613 0.961 . S
H3621 C3613 0.960 . S
H3622 C3614 0.930 . S
H3623 C3615 0.929 . S
H3624 C3632 0.929 . S
H3625 C3634 0.930 . S
H3626 C3636 0.930 . S
H3627 C3639 0.929 . S
H3628 C3642 0.930 . S
H3629 C3644 0.960 . S
H3630 C3644 0.960 . S
H3631 C3644 0.960 . S
C3632 H3624 0.929 . S
C3632 C3633 1.377 . S
C3632 C3634 1.384 . S
C3633 C3632 1.377 . S
C3633 C3639 1.390 . S
C3634 H3625 0.930 . S
C3634 C3632 1.384 . S
C3634 C3635 1.372 . S
C3635 C3634 1.372 . S
C3635 C3636 1.400 . S
C3635 C3640 1.490 . S
C3636 H3626 0.930 . S
C3636 C3635 1.400 . S
C3636 C3639 1.386 . S
H3637 C3653 0.930 . S
H3638 C3654 0.931 . S
C3639 H3627 0.929 . S
C3639 C3633 1.390 . S
C3639 C3636 1.386 . S
C3640 C3635 1.490 . S
C3640 C3642 1.395 . S
C3640 C3643 1.403 . S
H3641 C3647 0.930 . S
C3642 H3628 0.930 . S
C3642 C3640 1.395 . S
C3642 C3645 1.403 . S
C3643 C3640 1.403 . S
C3643 C3644 1.524 . S
C3643 C3647 1.400 . S
C3644 H3629 0.960 . S
C3644 H3630 0.960 . S
C3644 H3631 0.960 . S
C3644 C3643 1.524 . S
C3645 C3642 1.403 . S
C3645 C3646 1.392 . S
C3645 C3649 1.495 . S
C3646 C3645 1.392 . S
C3646 C3647 1.385 . S
C3646 C3648 1.478 . S
C3647 H3641 0.930 . S
C3647 C3643 1.400 . S
C3647 C3646 1.385 . S
C3648 C3646 1.478 . S
C3648 C3650 1.381 . S
C3648 C3654 1.383 . S
C3649 C3645 1.495 . S
C3649 H3655 0.959 . S
C3649 H3656 0.961 . S
C3649 H3657 0.960 . S
C3650 C3648 1.381 . S
C3650 C3651 1.394 . S
C3650 H3658 0.930 . S
C3651 C3650 1.394 . S
C3651 C3652 1.383 . S
C3651 H3659 0.929 . S
C3652 C3651 1.383 . S
C3652 C3653 1.377 . S
C3653 H3637 0.930 . S
C3653 C3652 1.377 . S
C3653 C3654 1.379 . S
C3654 H3638 0.931 . S
C3654 C3648 1.383 . S
C3654 C3653 1.379 . S
H3655 C3649 0.959 . S
H3656 C3649 0.961 . S
H3657 C3649 0.960 . S
H3658 C3650 0.930 . S
H3659 C3651 0.929 . S
H3660 C3668 0.929 . S
H3661 C3670 0.930 . S
H3662 C3672 0.930 . S
H3663 C3675 0.929 . S
H3664 C3678 0.930 . S
H3665 C3680 0.960 . S
H3666 C3680 0.960 . S
H3667 C3680 0.960 . S
C3668 H3660 0.929 . S
C3668 C3669 1.377 . S
C3668 C3670 1.384 . S
C3669 C3668 1.377 . S
C3669 C3675 1.390 . S
C3670 H3661 0.930 . S
C3670 C3668 1.384 . S
C3670 C3671 1.372 . S
C3671 C3670 1.372 . S
C3671 C3672 1.400 . S
C3671 C3676 1.490 . S
C3672 H3662 0.930 . S
C3672 C3671 1.400 . S
C3672 C3675 1.386 . S
H3673 C3689 0.930 . S
H3674 C3690 0.931 . S
C3675 H3663 0.929 . S
C3675 C3669 1.390 . S
C3675 C3672 1.386 . S
C3676 C3671 1.490 . S
C3676 C3678 1.395 . S
C3676 C3679 1.403 . S
H3677 C3683 0.930 . S
C3678 H3664 0.930 . S
C3678 C3676 1.395 . S
C3678 C3681 1.403 . S
C3679 C3676 1.403 . S
C3679 C3680 1.524 . S
C3679 C3683 1.400 . S
C3680 H3665 0.960 . S
C3680 H3666 0.960 . S
C3680 H3667 0.960 . S
C3680 C3679 1.524 . S
C3681 C3678 1.403 . S
C3681 C3682 1.392 . S
C3681 C3685 1.495 . S
C3682 C3681 1.392 . S
C3682 C3683 1.385 . S
C3682 C3684 1.478 . S
C3683 H3677 0.930 . S
C3683 C3679 1.400 . S
C3683 C3682 1.385 . S
C3684 C3682 1.478 . S
C3684 C3686 1.381 . S
C3684 C3690 1.383 . S
C3685 C3681 1.495 . S
C3685 H3691 0.959 . S
C3685 H3692 0.961 . S
C3685 H3693 0.960 . S
C3686 C3684 1.381 . S
C3686 C3687 1.394 . S
C3686 H3694 0.930 . S
C3687 C3686 1.394 . S
C3687 C3688 1.383 . S
C3687 H3695 0.929 . S
C3688 C3687 1.383 . S
C3688 C3689 1.377 . S
C3689 H3673 0.930 . S
C3689 C3688 1.377 . S
C3689 C3690 1.379 . S
C3690 H3674 0.931 . S
C3690 C3684 1.383 . S
C3690 C3689 1.379 . S
H3691 C3685 0.959 . S
H3692 C3685 0.961 . S
H3693 C3685 0.960 . S
H3694 C3686 0.930 . S
H3695 C3687 0.929 . S
H3696 C3704 0.929 . S
H3697 C3706 0.930 . S
H3698 C3708 0.930 . S
H3699 C3711 0.929 . S
H3700 C3714 0.930 . S
H3701 C3716 0.960 . S
H3702 C3716 0.960 . S
H3703 C3716 0.960 . S
C3704 H3696 0.929 . S
C3704 C3705 1.377 . S
C3704 C3706 1.384 . S
C3705 C3704 1.377 . S
C3705 C3711 1.390 . S
C3706 H3697 0.930 . S
C3706 C3704 1.384 . S
C3706 C3707 1.372 . S
C3707 C3706 1.372 . S
C3707 C3708 1.400 . S
C3707 C3712 1.490 . S
C3708 H3698 0.930 . S
C3708 C3707 1.400 . S
C3708 C3711 1.386 . S
H3709 C3725 0.930 . S
H3710 C3726 0.931 . S
C3711 H3699 0.929 . S
C3711 C3705 1.390 . S
C3711 C3708 1.386 . S
C3712 C3707 1.490 . S
C3712 C3714 1.395 . S
C3712 C3715 1.403 . S
H3713 C3719 0.930 . S
C3714 H3700 0.930 . S
C3714 C3712 1.395 . S
C3714 C3717 1.403 . S
C3715 C3712 1.403 . S
C3715 C3716 1.524 . S
C3715 C3719 1.400 . S
C3716 H3701 0.960 . S
C3716 H3702 0.960 . S
C3716 H3703 0.960 . S
C3716 C3715 1.524 . S
C3717 C3714 1.403 . S
C3717 C3718 1.392 . S
C3717 C3721 1.495 . S
C3718 C3717 1.392 . S
C3718 C3719 1.385 . S
C3718 C3720 1.478 . S
C3719 H3713 0.930 . S
C3719 C3715 1.400 . S
C3719 C3718 1.385 . S
C3720 C3718 1.478 . S
C3720 C3722 1.381 . S
C3720 C3726 1.383 . S
C3721 C3717 1.495 . S
C3721 H3727 0.959 . S
C3721 H3728 0.961 . S
C3721 H3729 0.960 . S
C3722 C3720 1.381 . S
C3722 C3723 1.394 . S
C3722 H3730 0.930 . S
C3723 C3722 1.394 . S
C3723 C3724 1.383 . S
C3723 H3731 0.929 . S
C3724 C3723 1.383 . S
C3724 C3725 1.377 . S
C3725 H3709 0.930 . S
C3725 C3724 1.377 . S
C3725 C3726 1.379 . S
C3726 H3710 0.931 . S
C3726 C3720 1.383 . S
C3726 C3725 1.379 . S
H3727 C3721 0.959 . S
H3728 C3721 0.961 . S
H3729 C3721 0.960 . S
H3730 C3722 0.930 . S
H3731 C3723 0.929 . S
H3732 C3740 0.929 . S
H3733 C3742 0.930 . S
H3734 C3744 0.930 . S
H3735 C3747 0.929 . S
H3736 C3750 0.930 . S
H3737 C3752 0.960 . S
H3738 C3752 0.960 . S
H3739 C3752 0.960 . S
C3740 H3732 0.929 . S
C3740 C3741 1.377 . S
C3740 C3742 1.384 . S
C3741 C3740 1.377 . S
C3741 C3747 1.390 . S
C3742 H3733 0.930 . S
C3742 C3740 1.384 . S
C3742 C3743 1.372 . S
C3743 C3742 1.372 . S
C3743 C3744 1.400 . S
C3743 C3748 1.490 . S
C3744 H3734 0.930 . S
C3744 C3743 1.400 . S
C3744 C3747 1.386 . S
H3745 C3761 0.930 . S
H3746 C3762 0.931 . S
C3747 H3735 0.929 . S
C3747 C3741 1.390 . S
C3747 C3744 1.386 . S
C3748 C3743 1.490 . S
C3748 C3750 1.395 . S
C3748 C3751 1.403 . S
H3749 C3755 0.930 . S
C3750 H3736 0.930 . S
C3750 C3748 1.395 . S
C3750 C3753 1.403 . S
C3751 C3748 1.403 . S
C3751 C3752 1.524 . S
C3751 C3755 1.400 . S
C3752 H3737 0.960 . S
C3752 H3738 0.960 . S
C3752 H3739 0.960 . S
C3752 C3751 1.524 . S
C3753 C3750 1.403 . S
C3753 C3754 1.392 . S
C3753 C3757 1.495 . S
C3754 C3753 1.392 . S
C3754 C3755 1.385 . S
C3754 C3756 1.478 . S
C3755 H3749 0.930 . S
C3755 C3751 1.400 . S
C3755 C3754 1.385 . S
C3756 C3754 1.478 . S
C3756 C3758 1.381 . S
C3756 C3762 1.383 . S
C3757 C3753 1.495 . S
C3757 H3763 0.959 . S
C3757 H3764 0.961 . S
C3757 H3765 0.960 . S
C3758 C3756 1.381 . S
C3758 C3759 1.394 . S
C3758 H3766 0.930 . S
C3759 C3758 1.394 . S
C3759 C3760 1.383 . S
C3759 H3767 0.929 . S
C3760 C3759 1.383 . S
C3760 C3761 1.377 . S
C3761 H3745 0.930 . S
C3761 C3760 1.377 . S
C3761 C3762 1.379 . S
C3762 H3746 0.931 . S
C3762 C3756 1.383 . S
C3762 C3761 1.379 . S
H3763 C3757 0.959 . S
H3764 C3757 0.961 . S
H3765 C3757 0.960 . S
H3766 C3758 0.930 . S
H3767 C3759 0.929 . S
H3768 C3776 0.929 . S
H3769 C3778 0.930 . S
H3770 C3780 0.930 . S
H3771 C3783 0.929 . S
H3772 C3786 0.930 . S
H3773 C3788 0.960 . S
H3774 C3788 0.960 . S
H3775 C3788 0.960 . S
C3776 H3768 0.929 . S
C3776 C3777 1.377 . S
C3776 C3778 1.384 . S
C3777 C3776 1.377 . S
C3777 C3783 1.390 . S
C3778 H3769 0.930 . S
C3778 C3776 1.384 . S
C3778 C3779 1.372 . S
C3779 C3778 1.372 . S
C3779 C3780 1.400 . S
C3779 C3784 1.490 . S
C3780 H3770 0.930 . S
C3780 C3779 1.400 . S
C3780 C3783 1.386 . S
H3781 C3797 0.930 . S
H3782 C3798 0.931 . S
C3783 H3771 0.929 . S
C3783 C3777 1.390 . S
C3783 C3780 1.386 . S
C3784 C3779 1.490 . S
C3784 C3786 1.395 . S
C3784 C3787 1.403 . S
H3785 C3791 0.930 . S
C3786 H3772 0.930 . S
C3786 C3784 1.395 . S
C3786 C3789 1.403 . S
C3787 C3784 1.403 . S
C3787 C3788 1.524 . S
C3787 C3791 1.400 . S
C3788 H3773 0.960 . S
C3788 H3774 0.960 . S
C3788 H3775 0.960 . S
C3788 C3787 1.524 . S
C3789 C3786 1.403 . S
C3789 C3790 1.392 . S
C3789 C3793 1.495 . S
C3790 C3789 1.392 . S
C3790 C3791 1.385 . S
C3790 C3792 1.478 . S
C3791 H3785 0.930 . S
C3791 C3787 1.400 . S
C3791 C3790 1.385 . S
C3792 C3790 1.478 . S
C3792 C3794 1.381 . S
C3792 C3798 1.383 . S
C3793 C3789 1.495 . S
C3793 H3799 0.959 . S
C3793 H3800 0.961 . S
C3793 H3801 0.960 . S
C3794 C3792 1.381 . S
C3794 C3795 1.394 . S
C3794 H3802 0.930 . S
C3795 C3794 1.394 . S
C3795 C3796 1.383 . S
C3795 H3803 0.929 . S
C3796 C3795 1.383 . S
C3796 C3797 1.377 . S
C3797 H3781 0.930 . S
C3797 C3796 1.377 . S
C3797 C3798 1.379 . S
C3798 H3782 0.931 . S
C3798 C3792 1.383 . S
C3798 C3797 1.379 . S
H3799 C3793 0.959 . S
H3800 C3793 0.961 . S
H3801 C3793 0.960 . S
H3802 C3794 0.930 . S
H3803 C3795 0.929 . S
H3804 C3812 0.929 . S
H3805 C3814 0.930 . S
H3806 C3816 0.930 . S
H3807 C3819 0.929 . S
H3808 C3822 0.930 . S
H3809 C3824 0.960 . S
H3810 C3824 0.960 . S
H3811 C3824 0.960 . S
C3812 H3804 0.929 . S
C3812 C3813 1.377 . S
C3812 C3814 1.384 . S
C3813 C3812 1.377 . S
C3813 C3819 1.390 . S
C3814 H3805 0.930 . S
C3814 C3812 1.384 . S
C3814 C3815 1.372 . S
C3815 C3814 1.372 . S
C3815 C3816 1.400 . S
C3815 C3820 1.490 . S
C3816 H3806 0.930 . S
C3816 C3815 1.400 . S
C3816 C3819 1.386 . S
H3817 C3833 0.930 . S
H3818 C3834 0.931 . S
C3819 H3807 0.929 . S
C3819 C3813 1.390 . S
C3819 C3816 1.386 . S
C3820 C3815 1.490 . S
C3820 C3822 1.395 . S
C3820 C3823 1.403 . S
H3821 C3827 0.930 . S
C3822 H3808 0.930 . S
C3822 C3820 1.395 . S
C3822 C3825 1.403 . S
C3823 C3820 1.403 . S
C3823 C3824 1.524 . S
C3823 C3827 1.400 . S
C3824 H3809 0.960 . S
C3824 H3810 0.960 . S
C3824 H3811 0.960 . S
C3824 C3823 1.524 . S
C3825 C3822 1.403 . S
C3825 C3826 1.392 . S
C3825 C3829 1.495 . S
C3826 C3825 1.392 . S
C3826 C3827 1.385 . S
C3826 C3828 1.478 . S
C3827 H3821 0.930 . S
C3827 C3823 1.400 . S
C3827 C3826 1.385 . S
C3828 C3826 1.478 . S
C3828 C3830 1.381 . S
C3828 C3834 1.383 . S
C3829 C3825 1.495 . S
C3829 H3835 0.959 . S
C3829 H3836 0.961 . S
C3829 H3837 0.960 . S
C3830 C3828 1.381 . S
C3830 C3831 1.394 . S
C3830 H3838 0.930 . S
C3831 C3830 1.394 . S
C3831 C3832 1.383 . S
C3831 H3839 0.929 . S
C3832 C3831 1.383 . S
C3832 C3833 1.377 . S
C3833 H3817 0.930 . S
C3833 C3832 1.377 . S
C3833 C3834 1.379 . S
C3834 H3818 0.931 . S
C3834 C3828 1.383 . S
C3834 C3833 1.379 . S
H3835 C3829 0.959 . S
H3836 C3829 0.961 . S
H3837 C3829 0.960 . S
H3838 C3830 0.930 . S
H3839 C3831 0.929 . S
H3840 C3848 0.929 . S
H3841 C3850 0.930 . S
H3842 C3852 0.930 . S
H3843 C3855 0.929 . S
H3844 C3858 0.930 . S
H3845 C3860 0.960 . S
H3846 C3860 0.960 . S
H3847 C3860 0.960 . S
C3848 H3840 0.929 . S
C3848 C3849 1.377 . S
C3848 C3850 1.384 . S
C3849 C3848 1.377 . S
C3849 C3855 1.390 . S
C3850 H3841 0.930 . S
C3850 C3848 1.384 . S
C3850 C3851 1.372 . S
C3851 C3850 1.372 . S
C3851 C3852 1.400 . S
C3851 C3856 1.490 . S
C3852 H3842 0.930 . S
C3852 C3851 1.400 . S
C3852 C3855 1.386 . S
H3853 C3869 0.930 . S
H3854 C3870 0.931 . S
C3855 H3843 0.929 . S
C3855 C3849 1.390 . S
C3855 C3852 1.386 . S
C3856 C3851 1.490 . S
C3856 C3858 1.395 . S
C3856 C3859 1.403 . S
H3857 C3863 0.930 . S
C3858 H3844 0.930 . S
C3858 C3856 1.395 . S
C3858 C3861 1.403 . S
C3859 C3856 1.403 . S
C3859 C3860 1.524 . S
C3859 C3863 1.400 . S
C3860 H3845 0.960 . S
C3860 H3846 0.960 . S
C3860 H3847 0.960 . S
C3860 C3859 1.524 . S
C3861 C3858 1.403 . S
C3861 C3862 1.392 . S
C3861 C3865 1.495 . S
C3862 C3861 1.392 . S
C3862 C3863 1.385 . S
C3862 C3864 1.478 . S
C3863 H3857 0.930 . S
C3863 C3859 1.400 . S
C3863 C3862 1.385 . S
C3864 C3862 1.478 . S
C3864 C3866 1.381 . S
C3864 C3870 1.383 . S
C3865 C3861 1.495 . S
C3865 H3871 0.959 . S
C3865 H3872 0.961 . S
C3865 H3873 0.960 . S
C3866 C3864 1.381 . S
C3866 C3867 1.394 . S
C3866 H3874 0.930 . S
C3867 C3866 1.394 . S
C3867 C3868 1.383 . S
C3867 H3875 0.929 . S
C3868 C3867 1.383 . S
C3868 C3869 1.377 . S
C3869 H3853 0.930 . S
C3869 C3868 1.377 . S
C3869 C3870 1.379 . S
C3870 H3854 0.931 . S
C3870 C3864 1.383 . S
C3870 C3869 1.379 . S
H3871 C3865 0.959 . S
H3872 C3865 0.961 . S
H3873 C3865 0.960 . S
H3874 C3866 0.930 . S
H3875 C3867 0.929 . S
H3876 C3884 0.929 . S
H3877 C3886 0.930 . S
H3878 C3888 0.930 . S
H3879 C3891 0.929 . S
H3880 C3894 0.930 . S
H3881 C3896 0.960 . S
H3882 C3896 0.960 . S
H3883 C3896 0.960 . S
C3884 H3876 0.929 . S
C3884 C3885 1.377 . S
C3884 C3886 1.384 . S
C3885 C3884 1.377 . S
C3885 C3891 1.390 . S
C3886 H3877 0.930 . S
C3886 C3884 1.384 . S
C3886 C3887 1.372 . S
C3887 C3886 1.372 . S
C3887 C3888 1.400 . S
C3887 C3892 1.490 . S
C3888 H3878 0.930 . S
C3888 C3887 1.400 . S
C3888 C3891 1.386 . S
H3889 C3905 0.930 . S
H3890 C3906 0.931 . S
C3891 H3879 0.929 . S
C3891 C3885 1.390 . S
C3891 C3888 1.386 . S
C3892 C3887 1.490 . S
C3892 C3894 1.395 . S
C3892 C3895 1.403 . S
H3893 C3899 0.930 . S
C3894 H3880 0.930 . S
C3894 C3892 1.395 . S
C3894 C3897 1.403 . S
C3895 C3892 1.403 . S
C3895 C3896 1.524 . S
C3895 C3899 1.400 . S
C3896 H3881 0.960 . S
C3896 H3882 0.960 . S
C3896 H3883 0.960 . S
C3896 C3895 1.524 . S
C3897 C3894 1.403 . S
C3897 C3898 1.392 . S
C3897 C3901 1.495 . S
C3898 C3897 1.392 . S
C3898 C3899 1.385 . S
C3898 C3900 1.478 . S
C3899 H3893 0.930 . S
C3899 C3895 1.400 . S
C3899 C3898 1.385 . S
C3900 C3898 1.478 . S
C3900 C3902 1.381 . S
C3900 C3906 1.383 . S
C3901 C3897 1.495 . S
C3901 H3907 0.959 . S
C3901 H3908 0.961 . S
C3901 H3909 0.960 . S
C3902 C3900 1.381 . S
C3902 C3903 1.394 . S
C3902 H3910 0.930 . S
C3903 C3902 1.394 . S
C3903 C3904 1.383 . S
C3903 H3911 0.929 . S
C3904 C3903 1.383 . S
C3904 C3905 1.377 . S
C3905 H3889 0.930 . S
C3905 C3904 1.377 . S
C3905 C3906 1.379 . S
C3906 H3890 0.931 . S
C3906 C3900 1.383 . S
C3906 C3905 1.379 . S
H3907 C3901 0.959 . S
H3908 C3901 0.961 . S
H3909 C3901 0.960 . S
H3910 C3902 0.930 . S
H3911 C3903 0.929 . S
H3912 C3920 0.929 . S
H3913 C3922 0.930 . S
H3914 C3924 0.930 . S
H3915 C3927 0.929 . S
H3916 C3930 0.930 . S
H3917 C3932 0.960 . S
H3918 C3932 0.960 . S
H3919 C3932 0.960 . S
C3920 H3912 0.929 . S
C3920 C3921 1.377 . S
C3920 C3922 1.384 . S
C3921 C3920 1.377 . S
C3921 C3927 1.390 . S
C3922 H3913 0.930 . S
C3922 C3920 1.384 . S
C3922 C3923 1.372 . S
C3923 C3922 1.372 . S
C3923 C3924 1.400 . S
C3923 C3928 1.490 . S
C3924 H3914 0.930 . S
C3924 C3923 1.400 . S
C3924 C3927 1.386 . S
H3925 C3941 0.930 . S
H3926 C3942 0.931 . S
C3927 H3915 0.929 . S
C3927 C3921 1.390 . S
C3927 C3924 1.386 . S
C3928 C3923 1.490 . S
C3928 C3930 1.395 . S
C3928 C3931 1.403 . S
H3929 C3935 0.930 . S
C3930 H3916 0.930 . S
C3930 C3928 1.395 . S
C3930 C3933 1.403 . S
C3931 C3928 1.403 . S
C3931 C3932 1.524 . S
C3931 C3935 1.400 . S
C3932 H3917 0.960 . S
C3932 H3918 0.960 . S
C3932 H3919 0.960 . S
C3932 C3931 1.524 . S
C3933 C3930 1.403 . S
C3933 C3934 1.392 . S
C3933 C3937 1.495 . S
C3934 C3933 1.392 . S
C3934 C3935 1.385 . S
C3934 C3936 1.478 . S
C3935 H3929 0.930 . S
C3935 C3931 1.400 . S
C3935 C3934 1.385 . S
C3936 C3934 1.478 . S
C3936 C3938 1.381 . S
C3936 C3942 1.383 . S
C3937 C3933 1.495 . S
C3937 H3943 0.959 . S
C3937 H3944 0.961 . S
C3937 H3945 0.960 . S
C3938 C3936 1.381 . S
C3938 C3939 1.394 . S
C3938 H3946 0.930 . S
C3939 C3938 1.394 . S
C3939 C3940 1.383 . S
C3939 H3947 0.929 . S
C3940 C3939 1.383 . S
C3940 C3941 1.377 . S
C3941 H3925 0.930 . S
C3941 C3940 1.377 . S
C3941 C3942 1.379 . S
C3942 H3926 0.931 . S
C3942 C3936 1.383 . S
C3942 C3941 1.379 . S
H3943 C3937 0.959 . S
H3944 C3937 0.961 . S
H3945 C3937 0.960 . S
H3946 C3938 0.930 . S
H3947 C3939 0.929 . S
H3948 C3956 0.929 . S
H3949 C3958 0.930 . S
H3950 C3960 0.930 . S
H3951 C3963 0.929 . S
H3952 C3966 0.930 . S
H3953 C3968 0.960 . S
H3954 C3968 0.960 . S
H3955 C3968 0.960 . S
C3956 H3948 0.929 . S
C3956 C3957 1.377 . S
C3956 C3958 1.384 . S
C3957 C3956 1.377 . S
C3957 C3963 1.390 . S
C3958 H3949 0.930 . S
C3958 C3956 1.384 . S
C3958 C3959 1.372 . S
C3959 C3958 1.372 . S
C3959 C3960 1.400 . S
C3959 C3964 1.490 . S
C3960 H3950 0.930 . S
C3960 C3959 1.400 . S
C3960 C3963 1.386 . S
H3961 C3977 0.930 . S
H3962 C3978 0.931 . S
C3963 H3951 0.929 . S
C3963 C3957 1.390 . S
C3963 C3960 1.386 . S
C3964 C3959 1.490 . S
C3964 C3966 1.395 . S
C3964 C3967 1.403 . S
H3965 C3971 0.930 . S
C3966 H3952 0.930 . S
C3966 C3964 1.395 . S
C3966 C3969 1.403 . S
C3967 C3964 1.403 . S
C3967 C3968 1.524 . S
C3967 C3971 1.400 . S
C3968 H3953 0.960 . S
C3968 H3954 0.960 . S
C3968 H3955 0.960 . S
C3968 C3967 1.524 . S
C3969 C3966 1.403 . S
C3969 C3970 1.392 . S
C3969 C3973 1.495 . S
C3970 C3969 1.392 . S
C3970 C3971 1.385 . S
C3970 C3972 1.478 . S
C3971 H3965 0.930 . S
C3971 C3967 1.400 . S
C3971 C3970 1.385 . S
C3972 C3970 1.478 . S
C3972 C3974 1.381 . S
C3972 C3978 1.383 . S
C3973 C3969 1.495 . S
C3973 H3979 0.959 . S
C3973 H3980 0.961 . S
C3973 H3981 0.960 . S
C3974 C3972 1.381 . S
C3974 C3975 1.394 . S
C3974 H3982 0.930 . S
C3975 C3974 1.394 . S
C3975 C3976 1.383 . S
C3975 H3983 0.929 . S
C3976 C3975 1.383 . S
C3976 C3977 1.377 . S
C3977 H3961 0.930 . S
C3977 C3976 1.377 . S
C3977 C3978 1.379 . S
C3978 H3962 0.931 . S
C3978 C3972 1.383 . S
C3978 C3977 1.379 . S
H3979 C3973 0.959 . S
H3980 C3973 0.961 . S
H3981 C3973 0.960 . S
H3982 C3974 0.930 . S
H3983 C3975 0.929 . S
H3984 C3992 0.929 . S
H3985 C3994 0.930 . S
H3986 C3996 0.930 . S
H3987 C3999 0.929 . S
H3988 C4002 0.930 . S
H3989 C4004 0.960 . S
H3990 C4004 0.960 . S
H3991 C4004 0.960 . S
C3992 H3984 0.929 . S
C3992 C3993 1.377 . S
C3992 C3994 1.384 . S
C3993 C3992 1.377 . S
C3993 C3999 1.390 . S
C3994 H3985 0.930 . S
C3994 C3992 1.384 . S
C3994 C3995 1.372 . S
C3995 C3994 1.372 . S
C3995 C3996 1.400 . S
C3995 C4000 1.490 . S
C3996 H3986 0.930 . S
C3996 C3995 1.400 . S
C3996 C3999 1.386 . S
H3997 C4013 0.930 . S
H3998 C4014 0.931 . S
C3999 H3987 0.929 . S
C3999 C3993 1.390 . S
C3999 C3996 1.386 . S
C4000 C3995 1.490 . S
C4000 C4002 1.395 . S
C4000 C4003 1.403 . S
H4001 C4007 0.930 . S
C4002 H3988 0.930 . S
C4002 C4000 1.395 . S
C4002 C4005 1.403 . S
C4003 C4000 1.403 . S
C4003 C4004 1.524 . S
C4003 C4007 1.400 . S
C4004 H3989 0.960 . S
C4004 H3990 0.960 . S
C4004 H3991 0.960 . S
C4004 C4003 1.524 . S
C4005 C4002 1.403 . S
C4005 C4006 1.392 . S
C4005 C4009 1.495 . S
C4006 C4005 1.392 . S
C4006 C4007 1.385 . S
C4006 C4008 1.478 . S
C4007 H4001 0.930 . S
C4007 C4003 1.400 . S
C4007 C4006 1.385 . S
C4008 C4006 1.478 . S
C4008 C4010 1.381 . S
C4008 C4014 1.383 . S
C4009 C4005 1.495 . S
C4009 H4015 0.959 . S
C4009 H4016 0.961 . S
C4009 H4017 0.960 . S
C4010 C4008 1.381 . S
C4010 C4011 1.394 . S
C4010 H4018 0.930 . S
C4011 C4010 1.394 . S
C4011 C4012 1.383 . S
C4011 H4019 0.929 . S
C4012 C4011 1.383 . S
C4012 C4013 1.377 . S
C4013 H3997 0.930 . S
C4013 C4012 1.377 . S
C4013 C4014 1.379 . S
C4014 H3998 0.931 . S
C4014 C4008 1.383 . S
C4014 C4013 1.379 . S
H4015 C4009 0.959 . S
H4016 C4009 0.961 . S
H4017 C4009 0.960 . S
H4018 C4010 0.930 . S
H4019 C4011 0.929 . S
H4020 C4028 0.929 . S
H4021 C4030 0.930 . S
H4022 C4032 0.930 . S
H4023 C4035 0.929 . S
H4024 C4038 0.930 . S
H4025 C4040 0.960 . S
H4026 C4040 0.960 . S
H4027 C4040 0.960 . S
C4028 H4020 0.929 . S
C4028 C4029 1.377 . S
C4028 C4030 1.384 . S
C4029 C4028 1.377 . S
C4029 C4035 1.390 . S
C4030 H4021 0.930 . S
C4030 C4028 1.384 . S
C4030 C4031 1.372 . S
C4031 C4030 1.372 . S
C4031 C4032 1.400 . S
C4031 C4036 1.490 . S
C4032 H4022 0.930 . S
C4032 C4031 1.400 . S
C4032 C4035 1.386 . S
H4033 C4049 0.930 . S
H4034 C4050 0.931 . S
C4035 H4023 0.929 . S
C4035 C4029 1.390 . S
C4035 C4032 1.386 . S
C4036 C4031 1.490 . S
C4036 C4038 1.395 . S
C4036 C4039 1.403 . S
H4037 C4043 0.930 . S
C4038 H4024 0.930 . S
C4038 C4036 1.395 . S
C4038 C4041 1.403 . S
C4039 C4036 1.403 . S
C4039 C4040 1.524 . S
C4039 C4043 1.400 . S
C4040 H4025 0.960 . S
C4040 H4026 0.960 . S
C4040 H4027 0.960 . S
C4040 C4039 1.524 . S
C4041 C4038 1.403 . S
C4041 C4042 1.392 . S
C4041 C4045 1.495 . S
C4042 C4041 1.392 . S
C4042 C4043 1.385 . S
C4042 C4044 1.478 . S
C4043 H4037 0.930 . S
C4043 C4039 1.400 . S
C4043 C4042 1.385 . S
C4044 C4042 1.478 . S
C4044 C4046 1.381 . S
C4044 C4050 1.383 . S
C4045 C4041 1.495 . S
C4045 H4051 0.959 . S
C4045 H4052 0.961 . S
C4045 H4053 0.960 . S
C4046 C4044 1.381 . S
C4046 C4047 1.394 . S
C4046 H4054 0.930 . S
C4047 C4046 1.394 . S
C4047 C4048 1.383 . S
C4047 H4055 0.929 . S
C4048 C4047 1.383 . S
C4048 C4049 1.377 . S
C4049 H4033 0.930 . S
C4049 C4048 1.377 . S
C4049 C4050 1.379 . S
C4050 H4034 0.931 . S
C4050 C4044 1.383 . S
C4050 C4049 1.379 . S
H4051 C4045 0.959 . S
H4052 C4045 0.961 . S
H4053 C4045 0.960 . S
H4054 C4046 0.930 . S
H4055 C4047 0.929 . S
H4056 C4064 0.929 . S
H4057 C4066 0.930 . S
H4058 C4068 0.930 . S
H4059 C4071 0.929 . S
H4060 C4074 0.930 . S
H4061 C4076 0.960 . S
H4062 C4076 0.960 . S
H4063 C4076 0.960 . S
C4064 H4056 0.929 . S
C4064 C4065 1.377 . S
C4064 C4066 1.384 . S
C4065 C4064 1.377 . S
C4065 C4071 1.390 . S
C4066 H4057 0.930 . S
C4066 C4064 1.384 . S
C4066 C4067 1.372 . S
C4067 C4066 1.372 . S
C4067 C4068 1.400 . S
C4067 C4072 1.490 . S
C4068 H4058 0.930 . S
C4068 C4067 1.400 . S
C4068 C4071 1.386 . S
H4069 C4085 0.930 . S
H4070 C4086 0.931 . S
C4071 H4059 0.929 . S
C4071 C4065 1.390 . S
C4071 C4068 1.386 . S
C4072 C4067 1.490 . S
C4072 C4074 1.395 . S
C4072 C4075 1.403 . S
H4073 C4079 0.930 . S
C4074 H4060 0.930 . S
C4074 C4072 1.395 . S
C4074 C4077 1.403 . S
C4075 C4072 1.403 . S
C4075 C4076 1.524 . S
C4075 C4079 1.400 . S
C4076 H4061 0.960 . S
C4076 H4062 0.960 . S
C4076 H4063 0.960 . S
C4076 C4075 1.524 . S
C4077 C4074 1.403 . S
C4077 C4078 1.392 . S
C4077 C4081 1.495 . S
C4078 C4077 1.392 . S
C4078 C4079 1.385 . S
C4078 C4080 1.478 . S
C4079 H4073 0.930 . S
C4079 C4075 1.400 . S
C4079 C4078 1.385 . S
C4080 C4078 1.478 . S
C4080 C4082 1.381 . S
C4080 C4086 1.383 . S
C4081 C4077 1.495 . S
C4081 H4087 0.959 . S
C4081 H4088 0.961 . S
C4081 H4089 0.960 . S
C4082 C4080 1.381 . S
C4082 C4083 1.394 . S
C4082 H4090 0.930 . S
C4083 C4082 1.394 . S
C4083 C4084 1.383 . S
C4083 H4091 0.929 . S
C4084 C4083 1.383 . S
C4084 C4085 1.377 . S
C4085 H4069 0.930 . S
C4085 C4084 1.377 . S
C4085 C4086 1.379 . S
C4086 H4070 0.931 . S
C4086 C4080 1.383 . S
C4086 C4085 1.379 . S
H4087 C4081 0.959 . S
H4088 C4081 0.961 . S
H4089 C4081 0.960 . S
H4090 C4082 0.930 . S
H4091 C4083 0.929 . S
H4092 C4100 0.929 . S
H4093 C4102 0.930 . S
H4094 C4104 0.930 . S
H4095 C4107 0.929 . S
H4096 C4110 0.930 . S
H4097 C4112 0.960 . S
H4098 C4112 0.960 . S
H4099 C4112 0.960 . S
C4100 H4092 0.929 . S
C4100 C4101 1.377 . S
C4100 C4102 1.384 . S
C4101 C4100 1.377 . S
C4101 C4107 1.390 . S
C4102 H4093 0.930 . S
C4102 C4100 1.384 . S
C4102 C4103 1.372 . S
C4103 C4102 1.372 . S
C4103 C4104 1.400 . S
C4103 C4108 1.490 . S
C4104 H4094 0.930 . S
C4104 C4103 1.400 . S
C4104 C4107 1.386 . S
H4105 C4121 0.930 . S
H4106 C4122 0.931 . S
C4107 H4095 0.929 . S
C4107 C4101 1.390 . S
C4107 C4104 1.386 . S
C4108 C4103 1.490 . S
C4108 C4110 1.395 . S
C4108 C4111 1.403 . S
H4109 C4115 0.930 . S
C4110 H4096 0.930 . S
C4110 C4108 1.395 . S
C4110 C4113 1.403 . S
C4111 C4108 1.403 . S
C4111 C4112 1.524 . S
C4111 C4115 1.400 . S
C4112 H4097 0.960 . S
C4112 H4098 0.960 . S
C4112 H4099 0.960 . S
C4112 C4111 1.524 . S
C4113 C4110 1.403 . S
C4113 C4114 1.392 . S
C4113 C4117 1.495 . S
C4114 C4113 1.392 . S
C4114 C4115 1.385 . S
C4114 C4116 1.478 . S
C4115 H4109 0.930 . S
C4115 C4111 1.400 . S
C4115 C4114 1.385 . S
C4116 C4114 1.478 . S
C4116 C4118 1.381 . S
C4116 C4122 1.383 . S
C4117 C4113 1.495 . S
C4117 H4123 0.959 . S
C4117 H4124 0.961 . S
C4117 H4125 0.960 . S
C4118 C4116 1.381 . S
C4118 C4119 1.394 . S
C4118 H4126 0.930 . S
C4119 C4118 1.394 . S
C4119 C4120 1.383 . S
C4119 H4127 0.929 . S
C4120 C4119 1.383 . S
C4120 C4121 1.377 . S
C4121 H4105 0.930 . S
C4121 C4120 1.377 . S
C4121 C4122 1.379 . S
C4122 H4106 0.931 . S
C4122 C4116 1.383 . S
C4122 C4121 1.379 . S
H4123 C4117 0.959 . S
H4124 C4117 0.961 . S
H4125 C4117 0.960 . S
H4126 C4118 0.930 . S
H4127 C4119 0.929 . S
C681 C134 1.725 . S
C700 C8 1.731 . S
C717 C148 1.720 . S
C736 C22 1.723 . S
C753 C162 1.724 . S
C772 C36 1.734 . S
C789 C120 1.723 . S
C808 C50 1.734 . S
C825 C64 1.725 . S
C844 C218 1.722 . S
C861 C78 1.718 . S
C880 C176 1.715 . S
C897 C92 1.722 . S
C916 C190 1.733 . S
C933 C204 1.720 . S
C952 C106 1.725 . S
C969 C232 1.722 . S
C988 C260 1.705 . S
C1005 C246 1.725 . S
C1024 C652 1.715 . S
C1041 C274 1.723 . S
C1060 C666 1.709 . S
C1077 C288 1.724 . S
C1096 C638 1.714 . S
C1113 C302 1.724 . S
C1132 C624 1.711 . S
C1149 C582 1.718 . S
C1168 C316 1.716 . S
C1185 C330 1.718 . S
C1204 C610 1.714 . S
C1221 C470 1.722 . S
C1240 C344 1.732 . S
C1257 C484 1.718 . S
C1276 C358 1.710 . S
C1293 C498 1.718 . S
C1312 C372 1.707 . S
C1329 C456 1.725 . S
C1348 C386 1.717 . S
C1365 C554 1.725 . S
C1384 C400 1.735 . S
C1401 C512 1.724 . S
C1420 C414 1.717 . S
C1437 C428 1.719 . S
C1456 C526 1.710 . S
C1473 C442 1.726 . S
C1492 C540 1.727 . S
C1509 C568 1.724 . S
C1528 C596 1.735 . S
C1545 C227 0.762 . S
C1564 C9 0.829 . S
C1581 C661 0.748 1_565 S
C1600 C23 0.747 . S
C1617 C37 0.745 . S
C1636 C297 0.724 . S
C1653 C647 0.749 1_545 S
C1672 C51 0.756 . S
C1689 C65 0.734 . S
C1708 C577 0.698 . S
C1725 C591 0.753 1_565 S
C1744 C79 0.752 . S
C1761 C93 0.735 . S
C1780 C605 0.705 . S
C1797 C283 0.756 1_545 S
C1816 C107 0.774 . S
C1833 C121 0.751 . S
C1852 C3 0.742 . S
C1869 C17 0.761 1_455 S
C1888 C135 0.813 . S
C1905 C149 0.767 . S
C1924 C31 0.802 . S
C1941 C45 0.755 . S
C1960 C163 0.767 . S
C1977 C177 0.734 . S
C1996 C59 0.699 . S
C2013 C73 0.746 . S
C2032 C191 0.702 . S
C2049 C205 0.759 . S
C2068 C87 0.785 . S
C2085 C219 0.742 . S
C2104 C101 0.716 1_455 S
C2121 C233 0.734 . S
C2140 C115 0.698 . S
C2157 C247 0.767 . S
C2176 C507 0.803 . S
C2193 C521 0.745 1_554 S
C2212 C261 0.698 . S
C2229 C535 0.745 . S
C2248 C275 0.696 . S
C2265 C213 0.762 1_554 S
C2284 C289 0.827 . S
C2301 C303 0.735 . S
C2320 C143 0.705 . S
C2337 C493 0.759 . S
C2356 C317 0.818 . S
C2373 C331 0.739 . S
C2392 C465 0.706 1_556 S
C2409 C345 0.751 . S
C2428 C563 0.763 . S
C2445 C359 0.736 . S
C2464 C325 0.700 . S
C2481 C373 0.743 . S
C2500 C633 0.717 . S
C2517 C387 0.734 . S
C2536 C311 0.698 . S
C2553 C401 0.735 . S
C2572 C241 0.703 . S
C2589 C415 0.744 . S
C2608 C255 0.740 . S
C2625 C269 0.747 . S
C2644 C429 0.710 . S
C2661 C619 0.755 . S
C2680 C443 0.791 . S
C2697 C339 0.762 . S
C2716 C457 0.828 . S
C2733 C353 0.744 . S
C2752 C471 0.688 . S
C2769 C485 0.744 . S
C2788 C367 0.722 . S
C2805 C381 0.748 1_655 S
C2824 C499 0.717 . S
C2841 C513 0.757 . S
C2860 C395 0.780 . S
C2877 C527 0.743 . S
C2896 C409 0.728 1_655 S
C2913 C541 0.751 . S
C2932 C423 0.762 . S
C2949 C437 0.742 . S
C2968 C555 0.677 . S
C2985 C569 0.751 . S
C3004 C451 0.743 . S
C3021 C583 0.764 . S
C3040 C171 0.797 . S
C3057 C185 0.762 . S
C3076 C597 0.829 . S
C3093 C611 0.760 . S
C3112 C199 0.772 . S
C3129 C625 0.736 . S
C3148 C549 0.710 . S
C3165 C479 0.747 . S
C3184 C639 0.740 . S
C3201 C157 0.745 1_556 S
C3220 C653 0.693 . S
C3237 C129 0.740 . S
C3256 C667 0.671 . S
C3273 C315 1.210 . S
C3292 C7 1.233 . S
C3309 C21 1.214 . S
C3328 C567 1.203 . S
C3345 C35 1.202 . S
C3364 C329 1.182 . S
C3381 C637 1.205 . S
C3400 C49 1.216 . S
C3417 C63 1.207 . S
C3436 C259 1.178 . S
C3453 C273 1.213 . S
C3472 C77 1.238 . S
C3489 C623 1.208 . S
C3508 C91 1.226 . S
C3525 C105 1.209 . S
C3544 C245 1.184 . S
C3561 C189 1.215 . S
C3580 C119 1.209 . S
C3597 C133 1.205 . S
C3616 C203 1.216 . S
C3633 C217 1.216 . S
C3652 C147 1.227 . S
C3669 C161 1.212 . S
C3688 C175 1.238 . S
C3705 C357 1.203 . S
C3724 C231 1.191 . S
C3741 C287 1.215 . S
C3760 C427 1.235 . S
C3777 C301 1.202 . S
C3796 C385 1.191 . S
C3813 C651 1.204 . S
C3832 C343 1.204 . S
C3849 C371 1.203 . S
C3868 C665 1.183 . S
C3885 C399 1.211 . S
C3904 C595 1.235 . S
C3921 C413 1.207 . S
C3940 C609 1.177 . S
C3957 C581 1.204 . S
C3976 C441 1.176 . S
C3993 C525 1.216 . S
C4012 C455 1.221 . S
C4029 C469 1.214 . S
C4048 C539 1.237 . S
C4065 C483 1.209 . S
C4084 C553 1.231 . S
C4101 C511 1.207 . S
C4120 C497 1.178 . S
