# Generated by pormake.
# Topology lcv-a, (4)-cn, num edge types: 1
# Building blocks:
#     Node 0, Type 0, BuildingBlock: AZAVOO_clean_sbu_0, # of connection points: 4
#     Node 1, Type 0, BuildingBlock: AZAVOO_clean_sbu_0, # of connection points: 4
#     Node 2, Type 0, BuildingBlock: AZAVOO_clean_sbu_0, # of connection points: 4
#     Node 3, Type 0, BuildingBlock: AZAVOO_clean_sbu_0, # of connection points: 4
#     Node 4, Type 0, BuildingBlock: AZAVOO_clean_sbu_0, # of connection points: 4
#     Node 5, Type 0, BuildingBlock: AZAVOO_clean_sbu_0, # of connection points: 4
#     Node 6, Type 0, BuildingBlock: AZAVOO_clean_sbu_0, # of connection points: 4
#     Node 7, Type 0, BuildingBlock: AZAVOO_clean_sbu_0, # of connection points: 4
#     Node 8, Type 0, BuildingBlock: AZAVOO_clean_sbu_0, # of connection points: 4
#     Node 9, Type 0, BuildingBlock: AZAVOO_clean_sbu_0, # of connection points: 4
#     Node 10, Type 0, BuildingBlock: AZAVOO_clean_sbu_0, # of connection points: 4
#     Node 11, Type 0, BuildingBlock: AZAVOO_clean_sbu_0, # of connection points: 4
#     Node 12, Type 0, BuildingBlock: AZAVOO_clean_sbu_0, # of connection points: 4
#     Node 13, Type 0, BuildingBlock: AZAVOO_clean_sbu_0, # of connection points: 4
#     Node 14, Type 0, BuildingBlock: AZAVOO_clean_sbu_0, # of connection points: 4
#     Node 15, Type 0, BuildingBlock: AZAVOO_clean_sbu_0, # of connection points: 4
#     Node 16, Type 0, BuildingBlock: AZAVOO_clean_sbu_0, # of connection points: 4
#     Node 17, Type 0, BuildingBlock: AZAVOO_clean_sbu_0, # of connection points: 4
#     Node 18, Type 0, BuildingBlock: AZAVOO_clean_sbu_0, # of connection points: 4
#     Node 19, Type 0, BuildingBlock: AZAVOO_clean_sbu_0, # of connection points: 4
#     Node 20, Type 0, BuildingBlock: AZAVOO_clean_sbu_0, # of connection points: 4
#     Node 21, Type 0, BuildingBlock: AZAVOO_clean_sbu_0, # of connection points: 4
#     Node 22, Type 0, BuildingBlock: AZAVOO_clean_sbu_0, # of connection points: 4
#     Node 23, Type 0, BuildingBlock: AZAVOO_clean_sbu_0, # of connection points: 4
#     Node 24, Type 0, BuildingBlock: AZAVOO_clean_sbu_0, # of connection points: 4
#     Node 25, Type 0, BuildingBlock: AZAVOO_clean_sbu_0, # of connection points: 4
#     Node 26, Type 0, BuildingBlock: AZAVOO_clean_sbu_0, # of connection points: 4
#     Node 27, Type 0, BuildingBlock: AZAVOO_clean_sbu_0, # of connection points: 4
#     Node 28, Type 0, BuildingBlock: AZAVOO_clean_sbu_0, # of connection points: 4
#     Node 29, Type 0, BuildingBlock: AZAVOO_clean_sbu_0, # of connection points: 4
#     Node 30, Type 0, BuildingBlock: AZAVOO_clean_sbu_0, # of connection points: 4
#     Node 31, Type 0, BuildingBlock: AZAVOO_clean_sbu_0, # of connection points: 4
#     Node 32, Type 0, BuildingBlock: AZAVOO_clean_sbu_0, # of connection points: 4
#     Node 33, Type 0, BuildingBlock: AZAVOO_clean_sbu_0, # of connection points: 4
#     Node 34, Type 0, BuildingBlock: AZAVOO_clean_sbu_0, # of connection points: 4
#     Node 35, Type 0, BuildingBlock: AZAVOO_clean_sbu_0, # of connection points: 4
#     Node 36, Type 0, BuildingBlock: AZAVOO_clean_sbu_0, # of connection points: 4
#     Node 37, Type 0, BuildingBlock: AZAVOO_clean_sbu_0, # of connection points: 4
#     Node 38, Type 0, BuildingBlock: AZAVOO_clean_sbu_0, # of connection points: 4
#     Node 39, Type 0, BuildingBlock: AZAVOO_clean_sbu_0, # of connection points: 4
#     Node 40, Type 0, BuildingBlock: AZAVOO_clean_sbu_0, # of connection points: 4
#     Node 41, Type 0, BuildingBlock: AZAVOO_clean_sbu_0, # of connection points: 4
#     Node 42, Type 0, BuildingBlock: AZAVOO_clean_sbu_0, # of connection points: 4
#     Node 43, Type 0, BuildingBlock: AZAVOO_clean_sbu_0, # of connection points: 4
#     Node 44, Type 0, BuildingBlock: AZAVOO_clean_sbu_0, # of connection points: 4
#     Node 45, Type 0, BuildingBlock: AZAVOO_clean_sbu_0, # of connection points: 4
#     Node 46, Type 0, BuildingBlock: AZAVOO_clean_sbu_0, # of connection points: 4
#     Node 47, Type 0, BuildingBlock: AZAVOO_clean_sbu_0, # of connection points: 4
#     Edge 48, Type (0, 0), None
#     Edge 49, Type (0, 0), None
#     Edge 50, Type (0, 0), None
#     Edge 51, Type (0, 0), None
#     Edge 52, Type (0, 0), None
#     Edge 53, Type (0, 0), None
#     Edge 54, Type (0, 0), None
#     Edge 55, Type (0, 0), None
#     Edge 56, Type (0, 0), None
#     Edge 57, Type (0, 0), None
#     Edge 58, Type (0, 0), None
#     Edge 59, Type (0, 0), None
#     Edge 60, Type (0, 0), None
#     Edge 61, Type (0, 0), None
#     Edge 62, Type (0, 0), None
#     Edge 63, Type (0, 0), None
#     Edge 64, Type (0, 0), None
#     Edge 65, Type (0, 0), None
#     Edge 66, Type (0, 0), None
#     Edge 67, Type (0, 0), None
#     Edge 68, Type (0, 0), None
#     Edge 69, Type (0, 0), None
#     Edge 70, Type (0, 0), None
#     Edge 71, Type (0, 0), None
#     Edge 72, Type (0, 0), None
#     Edge 73, Type (0, 0), None
#     Edge 74, Type (0, 0), None
#     Edge 75, Type (0, 0), None
#     Edge 76, Type (0, 0), None
#     Edge 77, Type (0, 0), None
#     Edge 78, Type (0, 0), None
#     Edge 79, Type (0, 0), None
#     Edge 80, Type (0, 0), None
#     Edge 81, Type (0, 0), None
#     Edge 82, Type (0, 0), None
#     Edge 83, Type (0, 0), None
#     Edge 84, Type (0, 0), None
#     Edge 85, Type (0, 0), None
#     Edge 86, Type (0, 0), None
#     Edge 87, Type (0, 0), None
#     Edge 88, Type (0, 0), None
#     Edge 89, Type (0, 0), None
#     Edge 90, Type (0, 0), None
#     Edge 91, Type (0, 0), None
#     Edge 92, Type (0, 0), None
#     Edge 93, Type (0, 0), None
#     Edge 94, Type (0, 0), None
#     Edge 95, Type (0, 0), None
#     Edge 96, Type (0, 0), None
#     Edge 97, Type (0, 0), None
#     Edge 98, Type (0, 0), None
#     Edge 99, Type (0, 0), None
#     Edge 100, Type (0, 0), None
#     Edge 101, Type (0, 0), None
#     Edge 102, Type (0, 0), None
#     Edge 103, Type (0, 0), None
#     Edge 104, Type (0, 0), None
#     Edge 105, Type (0, 0), None
#     Edge 106, Type (0, 0), None
#     Edge 107, Type (0, 0), None
#     Edge 108, Type (0, 0), None
#     Edge 109, Type (0, 0), None
#     Edge 110, Type (0, 0), None
#     Edge 111, Type (0, 0), None
#     Edge 112, Type (0, 0), None
#     Edge 113, Type (0, 0), None
#     Edge 114, Type (0, 0), None
#     Edge 115, Type (0, 0), None
#     Edge 116, Type (0, 0), None
#     Edge 117, Type (0, 0), None
#     Edge 118, Type (0, 0), None
#     Edge 119, Type (0, 0), None
#     Edge 120, Type (0, 0), None
#     Edge 121, Type (0, 0), None
#     Edge 122, Type (0, 0), None
#     Edge 123, Type (0, 0), None
#     Edge 124, Type (0, 0), None
#     Edge 125, Type (0, 0), None
#     Edge 126, Type (0, 0), None
#     Edge 127, Type (0, 0), None
#     Edge 128, Type (0, 0), None
#     Edge 129, Type (0, 0), None
#     Edge 130, Type (0, 0), None
#     Edge 131, Type (0, 0), None
#     Edge 132, Type (0, 0), None
#     Edge 133, Type (0, 0), None
#     Edge 134, Type (0, 0), None
#     Edge 135, Type (0, 0), None
#     Edge 136, Type (0, 0), None
#     Edge 137, Type (0, 0), None
#     Edge 138, Type (0, 0), None
#     Edge 139, Type (0, 0), None
#     Edge 140, Type (0, 0), None
#     Edge 141, Type (0, 0), None
#     Edge 142, Type (0, 0), None
#     Edge 143, Type (0, 0), None
# Relax obj value: 0.755
# Max RMSD: 0.327
# Mean RMSD: 0.312
data_MOF--net-lcv-a--node1-AZAVOO_clean_sbu_0--edge1-none
_symmetry_space_group_name_H-M    P1
_symmetry_Int_Tables_number       1
_symmetry_cell_setting            triclinic
loop_
_symmetry_equiv_pos_as_xyz
'x, y, z'
_cell_length_a     40.056815
_cell_length_b     40.067837
_cell_length_c     40.056497
_cell_angle_alpha  96.464097
_cell_angle_beta   96.442171
_cell_angle_gamma 96.446344
loop_
_atom_site_label
_atom_site_type_symbol
_atom_site_fract_x
_atom_site_fract_y
_atom_site_fract_z
_atom_type_partial_charge
Mg0 Mg 0.02956 0.33696 0.21457 0.0
O1 O 0.97752 0.32598 0.1697 0.0
O2 O 0.00091 0.31836 0.12319 0.0
Mg3 Mg 0.05105 0.27792 0.13828 0.0
C4 C 0.97385 0.31445 0.13776 0.0
C5 C 0.97758 0.37651 0.26388 0.0
O6 O 0.97724 0.40463 0.28382 0.0
O7 O 0.00794 0.28697 0.23022 0.0
O8 O 0.01456 0.25101 0.18398 0.0
O9 O 0.06509 0.37317 0.19131 0.0
O10 O 0.07466 0.32056 0.19012 0.0
C11 C 0.00394 0.25739 0.21336 0.0
C12 C 0.08335 0.34987 0.18233 0.0
O13 O 0.00374 0.37315 0.24912 0.0
Mg14 Mg 0.90082 0.80087 0.40095 0.0
O15 O 0.93292 0.76207 0.42384 0.0
O16 O 0.97912 0.77595 0.40089 0.0
Mg17 Mg 0.98637 0.83107 0.38471 0.0
C18 C 0.96136 0.75532 0.41574 0.0
C19 C 0.84991 0.76019 0.4491 0.0
O20 O 0.82017 0.74374 0.45129 0.0
O21 O 0.91747 0.84093 0.45236 0.0
O22 O 0.96209 0.84545 0.42842 0.0
O23 O 0.9097 0.77099 0.34786 0.0
O24 O 0.93597 0.8203 0.36657 0.0
C25 C 0.94838 0.85388 0.45388 0.0
C26 C 0.93298 0.79484 0.34443 0.0
O27 O 0.85493 0.77214 0.42154 0.0
Mg28 Mg 0.50305 0.67614 0.68486 0.0
O29 O 0.56177 0.69488 0.69523 0.0
O30 O 0.54388 0.68845 0.64351 0.0
Mg31 Mg 0.49807 0.69239 0.67804 0.0
C32 C 0.56765 0.70163 0.66635 0.0
C33 C 0.52731 0.6161 0.72991 0.0
O34 O 0.5243 0.58433 0.73537 0.0
O35 O 0.50263 0.70821 0.73741 0.0
O36 O 0.45917 0.7167 0.70697 0.0
O37 O 0.48539 0.64918 0.62842 0.0
O38 O 0.44816 0.66119 0.65979 0.0
C39 C 0.48471 0.72988 0.72717 0.0
C40 C 0.45407 0.65321 0.62991 0.0
O41 O 0.50744 0.62482 0.70606 0.0
Mg42 Mg 0.55287 0.35387 0.00846 0.0
O43 O 0.56871 0.33763 0.95468 0.0
O44 O 0.51429 0.32546 0.94075 0.0
Mg45 Mg 0.48654 0.29298 0.97676 0.0
C46 C 0.54385 0.32741 0.93198 0.0
C47 C 0.59682 0.41587 0.04489 0.0
O48 O 0.5789 0.40513 0.06798 0.0
O49 O 0.50314 0.37539 0.98363 0.0
O50 O 0.47047 0.33845 0.00457 0.0
O51 O 0.58742 0.31526 0.02364 0.0
O52 O 0.53277 0.3031 0.01203 0.0
C53 C 0.47306 0.36086 0.985 0.0
C54 C 0.56169 0.2922 0.01495 0.0
O55 O 0.58872 0.40273 0.01422 0.0
Mg56 Mg 0.05147 0.7089 0.43665 0.0
O57 O 0.99211 0.7091 0.41189 0.0
O58 O 0.9997 0.73915 0.45716 0.0
Mg59 Mg 0.04792 0.73102 0.42811 0.0
C60 C 0.97948 0.72935 0.43114 0.0
C61 C 0.05552 0.63114 0.43339 0.0
O62 O 0.08798 0.64217 0.44039 0.0
O63 O 0.05836 0.69882 0.37798 0.0
O64 O 0.08997 0.74506 0.39426 0.0
O65 O 0.05085 0.73205 0.49427 0.0
O66 O 0.07288 0.76698 0.4627 0.0
C67 C 0.07641 0.7238 0.36967 0.0
C68 C 0.06551 0.76191 0.49185 0.0
O69 O 0.0343 0.65238 0.43302 0.0
Mg70 Mg 0.58982 0.79344 0.60146 0.0
O71 O 0.59115 0.74389 0.63492 0.0
O72 O 0.57317 0.76021 0.68425 0.0
Mg73 Mg 0.52479 0.80014 0.66733 0.0
C74 C 0.58331 0.737 0.66408 0.0
C75 C 0.64106 0.75163 0.55262 0.0
O76 O 0.67333 0.75188 0.55038 0.0
O77 O 0.5443 0.76299 0.56634 0.0
O78 O 0.50684 0.7647 0.60393 0.0
O79 O 0.6178 0.83403 0.64179 0.0
O80 O 0.56274 0.8307 0.63103 0.0
C81 C 0.51436 0.75649 0.57418 0.0
C82 C 0.58998 0.84546 0.64837 0.0
O83 O 0.63261 0.77197 0.57601 0.0
Mg84 Mg 0.53003 0.29769 0.81673 0.0
O85 O 0.54346 0.32474 0.87193 0.0
O86 O 0.53834 0.27728 0.8954 0.0
Mg87 Mg 0.50157 0.23221 0.86071 0.0
C88 C 0.54711 0.30923 0.8981 0.0
C89 C 0.56633 0.35408 0.77429 0.0
O90 O 0.59324 0.37086 0.76537 0.0
O91 O 0.57472 0.26617 0.83335 0.0
O92 O 0.53728 0.2229 0.82222 0.0
O93 O 0.47633 0.31694 0.81252 0.0
O94 O 0.48357 0.26976 0.83064 0.0
C95 C 0.56649 0.23508 0.83622 0.0
C96 C 0.46286 0.29118 0.82504 0.0
O97 O 0.57003 0.3346 0.79715 0.0
Mg98 Mg 0.92218 0.21775 0.06088 0.0
O99 O 0.93919 0.27173 0.09666 0.0
O100 O 0.95965 0.25622 0.14436 0.0
Mg101 Mg 0.99683 0.21641 0.12844 0.0
C102 C 0.95211 0.28014 0.12764 0.0
C103 C 0.8569 0.25676 0.03296 0.0
O104 O 0.83515 0.26066 0.00718 0.0
O105 O 0.96618 0.24002 0.03336 0.0
O106 O 0.97993 0.20729 0.07015 0.0
O107 O 0.907 0.17823 0.10001 0.0
O108 O 0.95754 0.18978 0.08922 0.0
C109 C 0.98944 0.23098 0.0535 0.0
C110 C 0.9375 0.17083 0.10296 0.0
O111 O 0.87961 0.2376 0.02797 0.0
Mg112 Mg 0.21452 0.02946 0.33709 0.0
O113 O 0.16965 0.97741 0.32614 0.0
O114 O 0.12314 0.00079 0.31854 0.0
Mg115 Mg 0.13821 0.0509 0.27807 0.0
C116 C 0.13772 0.97374 0.31463 0.0
C117 C 0.26396 0.97758 0.3766 0.0
O118 O 0.28404 0.97737 0.40465 0.0
O119 O 0.23017 0.00784 0.28711 0.0
O120 O 0.18392 0.01443 0.25116 0.0
O121 O 0.19125 0.06498 0.37332 0.0
O122 O 0.19005 0.07453 0.32071 0.0
C123 C 0.2133 0.00381 0.25754 0.0
C124 C 0.18227 0.08323 0.35002 0.0
O125 O 0.24917 0.00372 0.37323 0.0
Mg126 Mg 0.35408 0.00814 0.55269 0.0
O127 O 0.33801 0.95437 0.5695 0.0
O128 O 0.32465 0.94043 0.51542 0.0
Mg129 Mg 0.29354 0.97656 0.48657 0.0
C130 C 0.32748 0.93164 0.54478 0.0
C131 C 0.416 0.04476 0.5969 0.0
O132 O 0.40525 0.06788 0.57905 0.0
O133 O 0.37615 0.9843 0.50212 0.0
O134 O 0.33917 0.00489 0.46965 0.0
O135 O 0.31542 0.02335 0.58734 0.0
O136 O 0.30325 0.01184 0.53271 0.0
C137 C 0.36241 0.98623 0.47173 0.0
C138 C 0.29233 0.01476 0.56163 0.0
O139 O 0.40291 0.0141 0.58869 0.0
Mg140 Mg 0.3165 0.03011 0.79777 0.0
O141 O 0.3716 0.04414 0.82494 0.0
O142 O 0.39515 0.03819 0.77764 0.0
Mg143 Mg 0.36046 0.00183 0.73194 0.0
C144 C 0.39776 0.04779 0.80944 0.0
C145 C 0.27398 0.06638 0.85409 0.0
O146 O 0.26497 0.09325 0.87088 0.0
O147 O 0.33302 0.07494 0.76639 0.0
O148 O 0.32203 0.03758 0.7231 0.0
O149 O 0.31251 0.97635 0.817 0.0
O150 O 0.33047 0.98341 0.76972 0.0
C151 C 0.33611 0.06673 0.73536 0.0
C152 C 0.32493 0.96272 0.79123 0.0
O153 O 0.29687 0.07013 0.83465 0.0
Mg154 Mg 0.29337 0.1012 0.08968 0.0
O155 O 0.24379 0.13464 0.091 0.0
O156 O 0.26011 0.18396 0.07308 0.0
Mg157 Mg 0.3001 0.16708 0.02471 0.0
C158 C 0.23688 0.16378 0.08316 0.0
C159 C 0.25159 0.05231 0.14091 0.0
O160 O 0.25186 0.05007 0.17318 0.0
O161 O 0.26295 0.06608 0.04415 0.0
O162 O 0.26467 0.10367 0.00672 0.0
O163 O 0.33392 0.14155 0.1177 0.0
O164 O 0.33065 0.1308 0.06264 0.0
C165 C 0.25646 0.07393 0.01421 0.0
C166 C 0.34538 0.14813 0.0899 0.0
O167 O 0.2719 0.07571 0.13245 0.0
Mg168 Mg 0.1847 0.00275 0.17614 0.0
O169 O 0.19504 0.06147 0.19484 0.0
O170 O 0.14333 0.04355 0.18844 0.0
Mg171 Mg 0.17786 0.99776 0.1924 0.0
C172 C 0.16616 0.06733 0.20159 0.0
C173 C 0.22971 0.02703 0.11606 0.0
O174 O 0.23517 0.02403 0.08428 0.0
O175 O 0.23725 0.00238 0.2082 0.0
O176 O 0.20679 0.95889 0.21675 0.0
O177 O 0.12827 0.98506 0.14919 0.0
O178 O 0.15967 0.94786 0.16118 0.0
C179 C 0.22704 0.98441 0.22986 0.0
C180 C 0.12979 0.95375 0.15321 0.0
O181 O 0.20588 0.00714 0.12479 0.0
Mg182 Mg 0.30087 0.90043 0.40057 0.0
O183 O 0.26188 0.92276 0.43261 0.0
O184 O 0.27729 0.90126 0.47936 0.0
Mg185 Mg 0.33227 0.88423 0.48596 0.0
C186 C 0.25612 0.91558 0.46162 0.0
C187 C 0.26023 0.94879 0.34981 0.0
O188 O 0.24384 0.95106 0.32007 0.0
O189 O 0.34072 0.95178 0.4177 0.0
O190 O 0.34675 0.92878 0.46308 0.0
O191 O 0.27114 0.84739 0.40942 0.0
O192 O 0.32045 0.86632 0.43565 0.0
C193 C 0.3545 0.95374 0.44844 0.0
C194 C 0.29499 0.84419 0.43279 0.0
O195 O 0.2722 0.92124 0.35477 0.0
Mg196 Mg 0.43662 0.05138 0.70907 0.0
O197 O 0.41192 0.99202 0.70921 0.0
O198 O 0.45709 0.9996 0.7393 0.0
Mg199 Mg 0.42804 0.0478 0.73125 0.0
C200 C 0.43112 0.97932 0.72944 0.0
C201 C 0.43336 0.05548 0.63131 0.0
O202 O 0.44034 0.08793 0.64234 0.0
O203 O 0.37796 0.05827 0.699 0.0
O204 O 0.3942 0.08986 0.7453 0.0
O205 O 0.49423 0.05075 0.7322 0.0
O206 O 0.46267 0.07281 0.76715 0.0
C207 C 0.36965 0.0763 0.724 0.0
C208 C 0.49181 0.06542 0.76207 0.0
O209 O 0.43301 0.03425 0.65254 0.0
Mg210 Mg 0.21791 0.06071 0.92226 0.0
O211 O 0.27188 0.09649 0.93928 0.0
O212 O 0.25636 0.14417 0.95971 0.0
Mg213 Mg 0.21653 0.12828 0.99689 0.0
C214 C 0.28031 0.12746 0.9522 0.0
C215 C 0.25697 0.03274 0.857 0.0
O216 O 0.26088 0.00693 0.83528 0.0
O217 O 0.24018 0.0332 0.96626 0.0
O218 O 0.2074 0.06999 0.98 0.0
O219 O 0.17839 0.09983 0.90706 0.0
O220 O 0.18991 0.08905 0.9576 0.0
C221 C 0.23109 0.05333 0.98949 0.0
C222 C 0.17097 0.10279 0.93754 0.0
O223 O 0.2378 0.0278 0.87971 0.0
Mg224 Mg 0.33702 0.21436 0.02968 0.0
O225 O 0.32609 0.16952 0.97761 0.0
O226 O 0.31848 0.12299 0.00099 0.0
Mg227 Mg 0.27803 0.13812 0.05112 0.0
C228 C 0.31462 0.13759 0.97395 0.0
C229 C 0.37654 0.26336 0.97766 0.0
O230 O 0.40489 0.28283 0.97736 0.0
O231 O 0.28709 0.23004 0.00802 0.0
O232 O 0.25113 0.18383 0.01462 0.0
O233 O 0.3733 0.19114 0.06514 0.0
O234 O 0.32064 0.18997 0.07475 0.0
C235 C 0.25751 0.21319 0.004 0.0
C236 C 0.34998 0.18223 0.08342 0.0
O237 O 0.37309 0.24864 0.00378 0.0
Mg238 Mg 0.79781 0.31637 0.03041 0.0
O239 O 0.82494 0.3715 0.0448 0.0
O240 O 0.77785 0.39517 0.03746 0.0
Mg241 Mg 0.73159 0.36014 0.00201 0.0
C242 C 0.80946 0.39771 0.0479 0.0
C243 C 0.85404 0.27376 0.06662 0.0
O244 O 0.87081 0.2647 0.09347 0.0
O245 O 0.76648 0.3328 0.07528 0.0
O246 O 0.72319 0.32184 0.03795 0.0
O247 O 0.81714 0.3125 0.97668 0.0
O248 O 0.76968 0.33021 0.98355 0.0
C249 C 0.73549 0.33601 0.06704 0.0
C250 C 0.79134 0.32479 0.96294 0.0
O251 O 0.83466 0.2967 0.07041 0.0
Mg252 Mg 0.00826 0.5525 0.35414 0.0
O253 O 0.95453 0.56908 0.338 0.0
O254 O 0.94057 0.51497 0.3246 0.0
Mg255 Mg 0.97697 0.48629 0.29354 0.0
C256 C 0.9318 0.54437 0.32745 0.0
C257 C 0.04481 0.59673 0.41604 0.0
O258 O 0.06796 0.57887 0.40533 0.0
O259 O 0.98407 0.50207 0.37607 0.0
O260 O 0.00503 0.46959 0.33936 0.0
O261 O 0.02348 0.58719 0.31553 0.0
O262 O 0.01205 0.53257 0.30331 0.0
C263 C 0.98609 0.47171 0.36236 0.0
C264 C 0.0149 0.56149 0.29242 0.0
O265 O 0.01415 0.58852 0.40294 0.0
Mg266 Mg 0.67627 0.68469 0.50309 0.0
O267 O 0.69498 0.69507 0.56181 0.0
O268 O 0.68857 0.64336 0.54392 0.0
Mg269 Mg 0.69251 0.67787 0.49811 0.0
C270 C 0.70173 0.6662 0.56769 0.0
C271 C 0.61622 0.72975 0.52735 0.0
O272 O 0.58444 0.73522 0.52434 0.0
O273 O 0.70831 0.73724 0.50267 0.0
O274 O 0.71682 0.70679 0.45921 0.0
O275 O 0.6493 0.62827 0.48544 0.0
O276 O 0.66131 0.65961 0.4482 0.0
C277 C 0.73 0.72699 0.48475 0.0
C278 C 0.65333 0.62974 0.45412 0.0
O279 O 0.62493 0.70589 0.50748 0.0
Mg280 Mg 0.06082 0.92204 0.21794 0.0
O281 O 0.09661 0.93905 0.27191 0.0
O282 O 0.1443 0.95954 0.25637 0.0
Mg283 Mg 0.12836 0.99671 0.21658 0.0
C284 C 0.12759 0.95199 0.28031 0.0
C285 C 0.03289 0.85675 0.25698 0.0
O286 O 0.00709 0.83501 0.26086 0.0
O287 O 0.03329 0.96603 0.24023 0.0
O288 O 0.07006 0.97979 0.20747 0.0
O289 O 0.09993 0.90685 0.17839 0.0
O290 O 0.08915 0.9574 0.18998 0.0
C291 C 0.05342 0.98929 0.23118 0.0
C292 C 0.10291 0.93735 0.17104 0.0
O293 O 0.02793 0.87944 0.2378 0.0
Mg294 Mg 0.20916 0.93642 0.55138 0.0
O295 O 0.20968 0.91154 0.49216 0.0
O296 O 0.23961 0.95685 0.49994 0.0
Mg297 Mg 0.2308 0.92812 0.5482 0.0
C298 C 0.23003 0.93081 0.47971 0.0
C299 C 0.13145 0.93322 0.5555 0.0
O300 O 0.14256 0.94019 0.58794 0.0
O301 O 0.19885 0.87774 0.5581 0.0
O302 O 0.24483 0.89404 0.59012 0.0
O303 O 0.23231 0.99409 0.55086 0.0
O304 O 0.26731 0.96246 0.5727 0.0
C305 C 0.22372 0.86942 0.57629 0.0
C306 C 0.26221 0.99163 0.56539 0.0
O307 O 0.15264 0.93287 0.53421 0.0
Mg308 Mg 0.90058 0.40043 0.30101 0.0
O309 O 0.92255 0.43245 0.26185 0.0
O310 O 0.90157 0.4794 0.27776 0.0
Mg311 Mg 0.88456 0.48608 0.33281 0.0
C312 C 0.91564 0.46162 0.25639 0.0
C313 C 0.94884 0.34968 0.2602 0.0
O314 O 0.95117 0.31993 0.24384 0.0
O315 O 0.95223 0.41735 0.34088 0.0
O316 O 0.92836 0.462 0.34649 0.0
O317 O 0.84746 0.40921 0.27132 0.0
O318 O 0.86648 0.43568 0.32054 0.0
C319 C 0.95378 0.44809 0.35444 0.0
C320 C 0.84433 0.43271 0.29509 0.0
O321 O 0.92129 0.35459 0.27223 0.0
Mg322 Mg 0.60141 0.5897 0.79362 0.0
O323 O 0.63487 0.59101 0.74405 0.0
O324 O 0.68417 0.57304 0.76036 0.0
Mg325 Mg 0.66726 0.52467 0.80031 0.0
C326 C 0.66401 0.58315 0.73713 0.0
C327 C 0.55258 0.64094 0.7518 0.0
O328 O 0.55035 0.6732 0.75205 0.0
O329 O 0.56628 0.54418 0.76318 0.0
O330 O 0.60385 0.50672 0.76489 0.0
O331 O 0.64175 0.61767 0.8342 0.0
O332 O 0.63098 0.56263 0.83088 0.0
C333 C 0.57411 0.51424 0.75669 0.0
C334 C 0.64833 0.58987 0.84564 0.0
O335 O 0.57596 0.63249 0.77214 0.0
Mg336 Mg 0.52972 0.83707 0.71461 0.0
O337 O 0.47768 0.82615 0.66973 0.0
O338 O 0.5011 0.81851 0.62324 0.0
Mg339 Mg 0.55124 0.77809 0.63836 0.0
C340 C 0.47403 0.81461 0.6378 0.0
C341 C 0.47794 0.87647 0.76421 0.0
O342 O 0.4779 0.90438 0.78455 0.0
O343 O 0.50811 0.78712 0.73027 0.0
O344 O 0.51472 0.75115 0.68403 0.0
O345 O 0.5652 0.87336 0.69139 0.0
O346 O 0.57483 0.82073 0.69021 0.0
C347 C 0.50409 0.75754 0.71341 0.0
C348 C 0.58349 0.85007 0.68248 0.0
O349 O 0.50406 0.8731 0.74939 0.0
Mg350 Mg 0.40051 0.29979 0.90019 0.0
O351 O 0.43139 0.25977 0.92182 0.0
O352 O 0.47906 0.27833 0.90423 0.0
Mg353 Mg 0.48637 0.33242 0.88677 0.0
C354 C 0.46125 0.25566 0.91636 0.0
C355 C 0.3497 0.25992 0.9489 0.0
O356 O 0.31991 0.24368 0.95123 0.0
O357 O 0.42013 0.33615 0.95152 0.0
O358 O 0.45954 0.36065 0.92566 0.0
O359 O 0.40916 0.27121 0.84682 0.0
O360 O 0.4365 0.31956 0.86734 0.0
C361 C 0.44875 0.35444 0.9531 0.0
C362 C 0.43317 0.29475 0.84452 0.0
O363 O 0.35463 0.27182 0.9213 0.0
Mg364 Mg 0.00288 0.17597 0.18476 0.0
O365 O 0.06161 0.19468 0.1951 0.0
O366 O 0.04369 0.18828 0.14339 0.0
Mg367 Mg 0.99789 0.19225 0.17793 0.0
C368 C 0.06747 0.20144 0.16622 0.0
C369 C 0.02714 0.1159 0.22976 0.0
O370 O 0.02414 0.08412 0.23521 0.0
O371 O 0.00252 0.20806 0.23731 0.0
O372 O 0.95901 0.21661 0.20686 0.0
O373 O 0.98523 0.14901 0.12832 0.0
O374 O 0.94798 0.16103 0.15974 0.0
C375 C 0.98455 0.22972 0.2271 0.0
C376 C 0.95392 0.15304 0.12987 0.0
O377 O 0.00726 0.12463 0.20593 0.0
Mg378 Mg 0.05288 0.85384 0.50812 0.0
O379 O 0.07009 0.83777 0.45442 0.0
O380 O 0.01596 0.82577 0.44055 0.0
Mg381 Mg 0.98703 0.79356 0.47566 0.0
C382 C 0.04528 0.82765 0.43169 0.0
C383 C 0.09705 0.91584 0.54486 0.0
O384 O 0.07925 0.90511 0.56804 0.0
O385 O 0.00226 0.87583 0.4842 0.0
O386 O 0.97004 0.83859 0.50483 0.0
O387 O 0.08739 0.81514 0.52352 0.0
O388 O 0.03276 0.803 0.5116 0.0
C389 C 0.97198 0.86185 0.48619 0.0
C390 C 0.06166 0.79208 0.51484 0.0
O391 O 0.08882 0.90272 0.5142 0.0
Mg392 Mg 0.55134 0.20903 0.93656 0.0
O393 O 0.49211 0.20957 0.91171 0.0
O394 O 0.50012 0.23931 0.95709 0.0
Mg395 Mg 0.54836 0.23039 0.92839 0.0
C396 C 0.47966 0.22968 0.93123 0.0
C397 C 0.55539 0.13137 0.9334 0.0
O398 O 0.58783 0.14248 0.94036 0.0
O399 O 0.55797 0.1986 0.87786 0.0
O400 O 0.59018 0.24448 0.8942 0.0
O401 O 0.55096 0.23221 0.99429 0.0
O402 O 0.57264 0.26721 0.96255 0.0
C403 C 0.57623 0.22343 0.86958 0.0
C404 C 0.56542 0.26212 0.99177 0.0
O405 O 0.5341 0.15254 0.93305 0.0
Mg406 Mg 0.08962 0.29326 0.10136 0.0
O407 O 0.09095 0.24371 0.1348 0.0
O408 O 0.07301 0.26003 0.18414 0.0
Mg409 Mg 0.02463 0.29999 0.16727 0.0
C410 C 0.08313 0.23682 0.16395 0.0
C411 C 0.14086 0.25148 0.05247 0.0
O412 O 0.17312 0.25176 0.05023 0.0
O413 O 0.04409 0.26283 0.06624 0.0
O414 O 0.00665 0.26456 0.10384 0.0
O415 O 0.11766 0.33381 0.14169 0.0
O416 O 0.06256 0.33053 0.13093 0.0
C417 C 0.01415 0.25636 0.07409 0.0
C418 C 0.08983 0.34526 0.14822 0.0
O419 O 0.1324 0.2718 0.07588 0.0
Mg420 Mg 0.03024 0.79764 0.31658 0.0
O421 O 0.04423 0.8248 0.37168 0.0
O422 O 0.03839 0.77749 0.39523 0.0
Mg423 Mg 0.00193 0.73186 0.36054 0.0
C424 C 0.04793 0.80929 0.39782 0.0
C425 C 0.06653 0.8539 0.27404 0.0
O426 O 0.0934 0.87068 0.26504 0.0
O427 O 0.07504 0.76623 0.33313 0.0
O428 O 0.03766 0.7229 0.32209 0.0
O429 O 0.97649 0.8169 0.31257 0.0
O430 O 0.98356 0.76962 0.33055 0.0
C431 C 0.06681 0.73519 0.33615 0.0
C432 C 0.96288 0.79115 0.32502 0.0
O433 O 0.07028 0.8345 0.29696 0.0
Mg434 Mg 0.42241 0.71792 0.56089 0.0
O435 O 0.43939 0.77188 0.59669 0.0
O436 O 0.45982 0.75638 0.6444 0.0
Mg437 Mg 0.49701 0.71655 0.62852 0.0
C438 C 0.45229 0.7803 0.62767 0.0
C439 C 0.35718 0.757 0.53281 0.0
O440 O 0.33552 0.76088 0.50695 0.0
O441 O 0.46644 0.7402 0.53342 0.0
O442 O 0.48016 0.70742 0.57022 0.0
O443 O 0.40717 0.67838 0.60001 0.0
O444 O 0.45774 0.68995 0.58927 0.0
C445 C 0.48966 0.73112 0.55357 0.0
C446 C 0.43768 0.67102 0.60302 0.0
O447 O 0.37989 0.73781 0.52794 0.0
Mg448 Mg 0.71455 0.52962 0.83717 0.0
O449 O 0.66968 0.47757 0.82631 0.0
O450 O 0.62319 0.50098 0.8187 0.0
Mg451 Mg 0.6383 0.5511 0.77825 0.0
C452 C 0.63775 0.47392 0.81479 0.0
C453 C 0.7644 0.47802 0.8765 0.0
O454 O 0.78504 0.47825 0.90425 0.0
O455 O 0.7302 0.50799 0.78724 0.0
O456 O 0.68397 0.51459 0.7513 0.0
O457 O 0.69136 0.56509 0.87352 0.0
O458 O 0.69015 0.5747 0.82087 0.0
C459 C 0.71334 0.50396 0.75767 0.0
C460 C 0.68243 0.58337 0.85022 0.0
O461 O 0.7495 0.50407 0.87309 0.0
Mg462 Mg 0.85397 0.50776 0.05303 0.0
O463 O 0.83795 0.45416 0.07085 0.0
O464 O 0.82746 0.44065 0.01674 0.0
Mg465 Mg 0.79407 0.47437 0.98747 0.0
C466 C 0.82823 0.43154 0.04587 0.0
C467 C 0.916 0.54474 0.09714 0.0
O468 O 0.90519 0.5679 0.07937 0.0
O469 O 0.87597 0.48398 0.0022 0.0
O470 O 0.83841 0.50459 0.97044 0.0
O471 O 0.81519 0.52339 0.08736 0.0
O472 O 0.80306 0.51103 0.0328 0.0
C473 C 0.86171 0.48599 0.97202 0.0
C474 C 0.7921 0.5146 0.06166 0.0
O475 O 0.90292 0.51408 0.0889 0.0
Mg476 Mg 0.81663 0.52985 0.29788 0.0
O477 O 0.87178 0.54345 0.325 0.0
O478 O 0.89515 0.53872 0.27748 0.0
Mg479 Mg 0.86057 0.50161 0.23235 0.0
C480 C 0.89787 0.5475 0.30945 0.0
C481 C 0.77421 0.56622 0.35426 0.0
O482 O 0.76529 0.59313 0.37104 0.0
O483 O 0.83327 0.57459 0.26638 0.0
O484 O 0.82209 0.53722 0.22306 0.0
O485 O 0.81241 0.47613 0.31712 0.0
O486 O 0.83058 0.48327 0.26994 0.0
C487 C 0.83614 0.56641 0.23528 0.0
C488 C 0.82495 0.46258 0.29141 0.0
O489 O 0.79707 0.5699 0.33476 0.0
Mg490 Mg 0.79355 0.60131 0.58987 0.0
O491 O 0.744 0.63478 0.5912 0.0
O492 O 0.76031 0.68408 0.57322 0.0
Mg493 Mg 0.80027 0.66715 0.52484 0.0
C494 C 0.73711 0.66392 0.58337 0.0
C495 C 0.75174 0.55245 0.64112 0.0
O496 O 0.75201 0.55021 0.67339 0.0
O497 O 0.76311 0.56618 0.54436 0.0
O498 O 0.76481 0.60375 0.5069 0.0
O499 O 0.83414 0.64164 0.61785 0.0
O500 O 0.83082 0.63087 0.56279 0.0
C501 C 0.75661 0.57402 0.51442 0.0
C502 C 0.84558 0.64821 0.59003 0.0
O503 O 0.77207 0.57584 0.63266 0.0
Mg504 Mg 0.68479 0.50292 0.67631 0.0
O505 O 0.69518 0.56164 0.69502 0.0
O506 O 0.64343 0.54374 0.68859 0.0
Mg507 Mg 0.67795 0.49794 0.69254 0.0
C508 C 0.66629 0.56749 0.70175 0.0
C509 C 0.72987 0.52717 0.61627 0.0
O510 O 0.73534 0.52416 0.58449 0.0
O511 O 0.73733 0.50252 0.70836 0.0
O512 O 0.70683 0.45904 0.71689 0.0
O513 O 0.62835 0.48525 0.64935 0.0
O514 O 0.65972 0.44803 0.66135 0.0
C515 C 0.72708 0.48455 0.73001 0.0
C516 C 0.62984 0.45394 0.65338 0.0
O517 O 0.70601 0.5073 0.62499 0.0
Mg518 Mg 0.80118 0.40111 0.90104 0.0
O519 O 0.76302 0.42524 0.93348 0.0
O520 O 0.77358 0.39886 0.97792 0.0
Mg521 Mg 0.82927 0.38483 0.98645 0.0
C522 C 0.7544 0.41544 0.96064 0.0
C523 C 0.76045 0.44901 0.84992 0.0
O524 O 0.74396 0.45106 0.82017 0.0
O525 O 0.84135 0.45237 0.91723 0.0
O526 O 0.84437 0.4282 0.96172 0.0
O527 O 0.77124 0.34798 0.90992 0.0
O528 O 0.82058 0.36647 0.93616 0.0
C529 C 0.85341 0.45373 0.94837 0.0
C530 C 0.79513 0.34429 0.93305 0.0
O531 O 0.77239 0.42149 0.85507 0.0
Mg532 Mg 0.93653 0.55123 0.20923 0.0
O533 O 0.9116 0.49208 0.20987 0.0
O534 O 0.95689 0.49996 0.23983 0.0
Mg535 Mg 0.92832 0.54823 0.23065 0.0
C536 C 0.93086 0.4797 0.23029 0.0
C537 C 0.93337 0.55536 0.13155 0.0
O538 O 0.94032 0.5878 0.14268 0.0
O539 O 0.87783 0.55788 0.1988 0.0
O540 O 0.89414 0.59009 0.24469 0.0
O541 O 0.99422 0.55074 0.23239 0.0
O542 O 0.96254 0.57254 0.2674 0.0
C543 C 0.86953 0.57613 0.22364 0.0
C544 C 0.99173 0.56524 0.26231 0.0
O545 O 0.93303 0.53406 0.15271 0.0
Mg546 Mg 0.71806 0.56072 0.42247 0.0
O547 O 0.77202 0.59651 0.43946 0.0
O548 O 0.75651 0.64421 0.45987 0.0
Mg549 Mg 0.71667 0.62836 0.49705 0.0
C550 C 0.78045 0.62749 0.45236 0.0
C551 C 0.75716 0.53262 0.35725 0.0
O552 O 0.76104 0.50674 0.3356 0.0
O553 O 0.74032 0.53325 0.4665 0.0
O554 O 0.70753 0.57005 0.48021 0.0
O555 O 0.67852 0.59983 0.40722 0.0
O556 O 0.69007 0.5891 0.45779 0.0
C557 C 0.73123 0.5534 0.48972 0.0
C558 C 0.67115 0.60284 0.43772 0.0
O559 O 0.73797 0.52776 0.37997 0.0
Mg560 Mg 0.83719 0.71444 0.52977 0.0
O561 O 0.82626 0.66956 0.47773 0.0
O562 O 0.81863 0.62305 0.50115 0.0
Mg563 Mg 0.7782 0.63821 0.55128 0.0
C564 C 0.81476 0.63763 0.4741 0.0
C565 C 0.87661 0.76404 0.47798 0.0
O566 O 0.90453 0.78435 0.47793 0.0
O567 O 0.78724 0.7301 0.50816 0.0
O568 O 0.75128 0.68388 0.51476 0.0
O569 O 0.87349 0.69122 0.56525 0.0
O570 O 0.82084 0.69004 0.57487 0.0
C571 C 0.75767 0.71324 0.50414 0.0
C572 C 0.85018 0.68231 0.58354 0.0
O573 O 0.87324 0.74922 0.50409 0.0
Mg574 Mg 0.29788 0.81651 0.53004 0.0
O575 O 0.325 0.87164 0.54375 0.0
O576 O 0.27751 0.89501 0.53871 0.0
Mg577 Mg 0.23224 0.86041 0.50177 0.0
C578 C 0.30943 0.89771 0.54775 0.0
C579 C 0.35422 0.77407 0.56642 0.0
O580 O 0.37099 0.76514 0.59334 0.0
O581 O 0.26638 0.83311 0.5748 0.0
O582 O 0.22303 0.82195 0.53742 0.0
O583 O 0.31712 0.81235 0.47627 0.0
O584 O 0.26989 0.83044 0.48343 0.0
C585 C 0.23529 0.836 0.5666 0.0
C586 C 0.29137 0.82485 0.46272 0.0
O587 O 0.33475 0.79695 0.57011 0.0
Mg588 Mg 0.50802 0.05278 0.85401 0.0
O589 O 0.45434 0.07001 0.83794 0.0
O590 O 0.44049 0.01588 0.82598 0.0
Mg591 Mg 0.47556 0.98694 0.79372 0.0
C592 C 0.43163 0.04519 0.82781 0.0
C593 C 0.54476 0.09696 0.91602 0.0
O594 O 0.56795 0.07917 0.90528 0.0
O595 O 0.48411 0.00214 0.87598 0.0
O596 O 0.50477 0.97 0.83874 0.0
O597 O 0.52346 0.08728 0.81532 0.0
O598 O 0.51152 0.03267 0.80315 0.0
C599 C 0.48609 0.97187 0.86198 0.0
C600 C 0.51478 0.06156 0.79224 0.0
O601 O 0.51411 0.08871 0.90291 0.0
Mg602 Mg 0.1761 0.1846 0.00293 0.0
O603 O 0.19477 0.19495 0.06166 0.0
O604 O 0.18836 0.14321 0.04372 0.0
Mg605 Mg 0.19236 0.17776 0.99794 0.0
C606 C 0.20151 0.16606 0.06749 0.0
C607 C 0.11602 0.22962 0.02718 0.0
O608 O 0.08424 0.23507 0.02418 0.0
O609 O 0.20818 0.23714 0.00258 0.0
O610 O 0.21674 0.20668 0.95907 0.0
O611 O 0.14913 0.12817 0.98527 0.0
O612 O 0.16117 0.15956 0.94802 0.0
C613 C 0.22984 0.22693 0.9846 0.0
C614 C 0.15318 0.1297 0.95396 0.0
O615 O 0.12475 0.20578 0.0073 0.0
Mg616 Mg 0.56082 0.42229 0.71812 0.0
O617 O 0.59663 0.43927 0.77207 0.0
O618 O 0.64433 0.45971 0.75653 0.0
Mg619 Mg 0.62844 0.49689 0.71672 0.0
C620 C 0.62761 0.45218 0.78047 0.0
C621 C 0.53272 0.35708 0.75724 0.0
O622 O 0.50684 0.33544 0.76112 0.0
O623 O 0.53335 0.46633 0.74041 0.0
O624 O 0.57014 0.48003 0.70761 0.0
O625 O 0.59994 0.40706 0.67857 0.0
O626 O 0.58919 0.45761 0.69013 0.0
C627 C 0.55349 0.48954 0.73131 0.0
C628 C 0.60295 0.43755 0.6712 0.0
O629 O 0.52787 0.37978 0.73805 0.0
Mg630 Mg 0.70899 0.43661 0.05161 0.0
O631 O 0.7087 0.41215 0.99207 0.0
O632 O 0.73929 0.45711 0.99945 0.0
Mg633 Mg 0.73177 0.42778 0.04758 0.0
C634 C 0.7289 0.43124 0.97917 0.0
C635 C 0.63119 0.43325 0.05568 0.0
O636 O 0.64217 0.44023 0.08815 0.0
O637 O 0.69919 0.37796 0.0586 0.0
O638 O 0.74582 0.39416 0.08968 0.0
O639 O 0.73207 0.49413 0.05083 0.0
O640 O 0.767 0.4627 0.07314 0.0
C641 C 0.72433 0.36966 0.07645 0.0
C642 C 0.7619 0.49178 0.06564 0.0
O643 O 0.65246 0.43291 0.03448 0.0
Mg644 Mg 0.4009 0.90071 0.80101 0.0
O645 O 0.4239 0.93284 0.76226 0.0
O646 O 0.4007 0.97892 0.77591 0.0
Mg647 Mg 0.38463 0.98625 0.83106 0.0
C648 C 0.41568 0.96118 0.75538 0.0
C649 C 0.44906 0.84978 0.76035 0.0
O650 O 0.45125 0.82004 0.7439 0.0
O651 O 0.45229 0.91734 0.84109 0.0
O652 O 0.42833 0.96196 0.84548 0.0
O653 O 0.34782 0.90955 0.7711 0.0
O654 O 0.3665 0.93586 0.82042 0.0
C655 C 0.45378 0.94827 0.85395 0.0
C656 C 0.34439 0.93285 0.79494 0.0
O657 O 0.4215 0.85481 0.77229 0.0
Mg658 Mg 0.10129 0.08949 0.29343 0.0
O659 O 0.13473 0.09082 0.24387 0.0
O660 O 0.18407 0.07287 0.26018 0.0
Mg661 Mg 0.1672 0.02451 0.30016 0.0
C662 C 0.16389 0.083 0.23698 0.0
C663 C 0.05242 0.14073 0.25164 0.0
O664 O 0.05019 0.17299 0.2519 0.0
O665 O 0.06617 0.04396 0.263 0.0
O666 O 0.10376 0.00651 0.26475 0.0
O667 O 0.14163 0.11752 0.33398 0.0
O668 O 0.13086 0.06244 0.33069 0.0
C669 C 0.07401 0.01401 0.25656 0.0
C670 C 0.14815 0.08971 0.34543 0.0
O671 O 0.07582 0.13227 0.27196 0.0
loop_
_geom_bond_atom_site_label_1
_geom_bond_atom_site_label_2
_geom_bond_distance
_geom_bond_site_symmetry_2
_ccdc_geom_bond_type
Mg0 O1 2.028 1_455 S
Mg0 O7 1.986 . S
Mg0 O9 2.114 . S
Mg0 O10 2.251 . S
Mg0 O13 2.010 . S
O1 Mg0 2.028 1_655 S
O1 C4 1.250 . S
O2 Mg3 2.028 1_655 S
O2 C4 1.248 . S
Mg3 O2 2.028 1_455 S
Mg3 O8 2.032 . S
Mg3 O10 2.079 . S
C4 O1 1.250 . S
C4 O2 1.248 . S
C5 O6 1.264 1_655 S
C5 O13 1.249 1_655 S
O6 C5 1.264 1_455 S
O7 Mg0 1.986 . S
O7 C11 1.246 . S
O8 Mg3 2.032 . S
O8 C11 1.259 . S
O9 Mg0 2.114 . S
O9 C12 1.252 . S
O10 Mg0 2.251 . S
O10 Mg3 2.079 . S
O10 C12 1.273 . S
C11 O7 1.246 . S
C11 O8 1.259 . S
C12 O9 1.252 . S
C12 O10 1.273 . S
O13 Mg0 2.010 . S
O13 C5 1.249 1_455 S
Mg14 O15 2.028 . S
Mg14 O21 1.986 . S
Mg14 O23 2.114 . S
Mg14 O24 2.251 . S
Mg14 O27 2.010 . S
O15 Mg14 2.028 . S
O15 C18 1.250 . S
O16 Mg17 2.028 1_655 S
O16 C18 1.248 . S
Mg17 O16 2.028 1_455 S
Mg17 O22 2.032 1_455 S
Mg17 O24 2.079 1_455 S
C18 O15 1.250 . S
C18 O16 1.248 . S
C19 O20 1.264 . S
C19 O27 1.249 . S
O20 C19 1.264 . S
O21 Mg14 1.986 . S
O21 C25 1.246 . S
O22 Mg17 2.032 1_655 S
O22 C25 1.259 . S
O23 Mg14 2.114 . S
O23 C26 1.252 . S
O24 Mg14 2.251 . S
O24 Mg17 2.079 1_655 S
O24 C26 1.273 . S
C25 O21 1.246 . S
C25 O22 1.259 . S
C26 O23 1.252 . S
C26 O24 1.273 . S
O27 Mg14 2.010 . S
O27 C19 1.249 . S
Mg28 O29 2.028 . S
Mg28 O35 1.986 . S
Mg28 O37 2.114 . S
Mg28 O38 2.251 . S
Mg28 O41 2.010 . S
O29 Mg28 2.028 . S
O29 C32 1.250 . S
O30 Mg31 2.028 . S
O30 C32 1.248 . S
Mg31 O30 2.028 . S
Mg31 O36 2.032 . S
Mg31 O38 2.079 . S
C32 O29 1.250 . S
C32 O30 1.248 . S
C33 O34 1.264 . S
C33 O41 1.249 . S
O34 C33 1.264 . S
O35 Mg28 1.986 . S
O35 C39 1.246 . S
O36 Mg31 2.032 . S
O36 C39 1.259 . S
O37 Mg28 2.114 . S
O37 C40 1.252 . S
O38 Mg28 2.251 . S
O38 Mg31 2.079 . S
O38 C40 1.273 . S
C39 O35 1.246 . S
C39 O36 1.259 . S
C40 O37 1.252 . S
C40 O38 1.273 . S
O41 Mg28 2.010 . S
O41 C33 1.249 . S
Mg42 O43 2.028 . S
Mg42 O49 1.986 . S
Mg42 O51 2.114 . S
Mg42 O52 2.251 . S
Mg42 O55 2.010 1_556 S
O43 Mg42 2.028 . S
O43 C46 1.250 . S
O44 Mg45 2.028 . S
O44 C46 1.248 . S
Mg45 O44 2.028 . S
Mg45 O50 2.032 . S
Mg45 O52 2.079 . S
C46 O43 1.250 . S
C46 O44 1.248 . S
C47 O48 1.264 . S
C47 O55 1.249 . S
O48 C47 1.264 . S
O49 Mg42 1.986 . S
O49 C53 1.246 . S
O50 Mg45 2.032 . S
O50 C53 1.259 . S
O51 Mg42 2.114 . S
O51 C54 1.252 . S
O52 Mg42 2.251 . S
O52 Mg45 2.079 . S
O52 C54 1.273 . S
C53 O49 1.246 . S
C53 O50 1.259 . S
C54 O51 1.252 . S
C54 O52 1.273 . S
O55 Mg42 2.010 1_554 S
O55 C47 1.249 . S
Mg56 O57 2.003 1_455 S
Mg56 O63 1.986 . S
Mg56 O65 2.114 . S
Mg56 O66 2.251 . S
Mg56 O69 2.010 . S
O57 Mg56 2.003 1_655 S
O57 C60 1.267 . S
O58 Mg59 2.028 1_655 S
O58 C60 1.248 . S
Mg59 O58 2.028 1_455 S
Mg59 O64 2.032 . S
Mg59 O66 2.079 . S
C60 O57 1.267 . S
C60 O58 1.248 . S
C61 O62 1.264 . S
C61 O69 1.249 . S
O62 C61 1.264 . S
O63 Mg56 1.986 . S
O63 C67 1.246 . S
O64 Mg59 2.032 . S
O64 C67 1.259 . S
O65 Mg56 2.114 . S
O65 C68 1.252 . S
O66 Mg56 2.251 . S
O66 Mg59 2.079 . S
O66 C68 1.273 . S
C67 O63 1.246 . S
C67 O64 1.259 . S
C68 O65 1.252 . S
C68 O66 1.273 . S
O69 Mg56 2.010 . S
O69 C61 1.249 . S
Mg70 O71 2.028 . S
Mg70 O77 1.986 . S
Mg70 O79 2.114 . S
Mg70 O80 2.251 . S
Mg70 O83 2.010 . S
O71 Mg70 2.028 . S
O71 C74 1.250 . S
O72 Mg73 2.028 . S
O72 C74 1.248 . S
Mg73 O72 2.028 . S
Mg73 O78 2.032 . S
Mg73 O80 2.079 . S
C74 O71 1.250 . S
C74 O72 1.248 . S
C75 O76 1.264 . S
C75 O83 1.249 . S
O76 C75 1.264 . S
O77 Mg70 1.986 . S
O77 C81 1.246 . S
O78 Mg73 2.032 . S
O78 C81 1.259 . S
O79 Mg70 2.114 . S
O79 C82 1.252 . S
O80 Mg70 2.251 . S
O80 Mg73 2.079 . S
O80 C82 1.273 . S
C81 O77 1.246 . S
C81 O78 1.259 . S
C82 O79 1.252 . S
C82 O80 1.273 . S
O83 Mg70 2.010 . S
O83 C75 1.249 . S
Mg84 O85 2.028 . S
Mg84 O91 1.986 . S
Mg84 O93 2.114 . S
Mg84 O94 2.251 . S
Mg84 O97 2.010 . S
O85 Mg84 2.028 . S
O85 C88 1.250 . S
O86 Mg87 2.028 . S
O86 C88 1.248 . S
Mg87 O86 2.028 . S
Mg87 O92 2.032 . S
Mg87 O94 2.079 . S
C88 O85 1.250 . S
C88 O86 1.248 . S
C89 O90 1.264 . S
C89 O97 1.249 . S
O90 C89 1.264 . S
O91 Mg84 1.986 . S
O91 C95 1.246 . S
O92 Mg87 2.032 . S
O92 C95 1.259 . S
O93 Mg84 2.114 . S
O93 C96 1.252 . S
O94 Mg84 2.251 . S
O94 Mg87 2.079 . S
O94 C96 1.273 . S
C95 O91 1.246 . S
C95 O92 1.259 . S
C96 O93 1.252 . S
C96 O94 1.273 . S
O97 Mg84 2.010 . S
O97 C89 1.249 . S
Mg98 O99 2.028 . S
Mg98 O105 1.986 . S
Mg98 O107 2.114 . S
Mg98 O108 2.251 . S
Mg98 O111 2.010 . S
O99 Mg98 2.028 . S
O99 C102 1.250 . S
O100 Mg101 2.028 1_655 S
O100 C102 1.248 . S
Mg101 O100 2.028 1_455 S
Mg101 O106 2.032 . S
Mg101 O108 2.079 1_455 S
C102 O99 1.250 . S
C102 O100 1.248 . S
C103 O104 1.264 . S
C103 O111 1.249 . S
O104 C103 1.264 . S
O105 Mg98 1.986 . S
O105 C109 1.246 1_655 S
O106 Mg101 2.032 . S
O106 C109 1.259 . S
O107 Mg98 2.114 . S
O107 C110 1.252 . S
O108 Mg98 2.251 . S
O108 Mg101 2.079 1_655 S
O108 C110 1.273 . S
C109 O105 1.246 1_455 S
C109 O106 1.259 . S
C110 O107 1.252 . S
C110 O108 1.273 . S
O111 Mg98 2.010 . S
O111 C103 1.249 . S
Mg112 O113 2.028 1_545 S
Mg112 O119 1.986 . S
Mg112 O121 2.114 . S
Mg112 O122 2.251 . S
Mg112 O125 2.010 . S
O113 Mg112 2.028 1_565 S
O113 C116 1.250 . S
O114 Mg115 2.028 1_565 S
O114 C116 1.248 . S
Mg115 O114 2.028 1_545 S
Mg115 O120 2.032 . S
Mg115 O122 2.079 . S
C116 O113 1.250 . S
C116 O114 1.248 . S
C117 O118 1.264 1_565 S
C117 O125 1.249 1_565 S
O118 C117 1.264 1_545 S
O119 Mg112 1.986 . S
O119 C123 1.246 . S
O120 Mg115 2.032 . S
O120 C123 1.259 . S
O121 Mg112 2.114 . S
O121 C124 1.252 . S
O122 Mg112 2.251 . S
O122 Mg115 2.079 . S
O122 C124 1.273 . S
C123 O119 1.246 . S
C123 O120 1.259 . S
C124 O121 1.252 . S
C124 O122 1.273 . S
O125 Mg112 2.010 . S
O125 C117 1.249 1_545 S
Mg126 O127 2.028 . S
Mg126 O133 1.986 . S
Mg126 O135 2.114 . S
Mg126 O136 2.251 . S
Mg126 O139 2.010 1_565 S
O127 Mg126 2.028 . S
O127 C130 1.250 . S
O128 Mg129 2.028 . S
O128 C130 1.248 . S
Mg129 O128 2.028 . S
Mg129 O134 2.032 . S
Mg129 O136 2.079 . S
C130 O127 1.250 . S
C130 O128 1.248 . S
C131 O132 1.264 . S
C131 O139 1.249 . S
O132 C131 1.264 . S
O133 Mg126 1.986 . S
O133 C137 1.246 . S
O134 Mg129 2.032 . S
O134 C137 1.259 . S
O135 Mg126 2.114 . S
O135 C138 1.252 . S
O136 Mg126 2.251 . S
O136 Mg129 2.079 . S
O136 C138 1.273 . S
C137 O133 1.246 . S
C137 O134 1.259 . S
C138 O135 1.252 . S
C138 O136 1.273 . S
O139 Mg126 2.010 1_545 S
O139 C131 1.249 . S
Mg140 O141 2.028 . S
Mg140 O147 1.986 . S
Mg140 O149 2.114 1_545 S
Mg140 O150 2.251 1_545 S
Mg140 O153 2.010 . S
O141 Mg140 2.028 . S
O141 C144 1.250 . S
O142 Mg143 2.028 . S
O142 C144 1.248 . S
Mg143 O142 2.028 . S
Mg143 O148 2.032 . S
Mg143 O150 2.079 1_545 S
C144 O141 1.250 . S
C144 O142 1.248 . S
C145 O146 1.264 . S
C145 O153 1.249 . S
O146 C145 1.264 . S
O147 Mg140 1.986 . S
O147 C151 1.246 . S
O148 Mg143 2.032 . S
O148 C151 1.259 . S
O149 Mg140 2.114 1_565 S
O149 C152 1.252 . S
O150 Mg140 2.251 1_565 S
O150 Mg143 2.079 1_565 S
O150 C152 1.273 . S
C151 O147 1.246 . S
C151 O148 1.259 . S
C152 O149 1.252 . S
C152 O150 1.273 . S
O153 Mg140 2.010 . S
O153 C145 1.249 . S
Mg154 O155 2.028 . S
Mg154 O161 1.986 . S
Mg154 O163 2.114 . S
Mg154 O164 2.251 . S
Mg154 O167 2.010 . S
O155 Mg154 2.028 . S
O155 C158 1.250 . S
O156 Mg157 2.028 . S
O156 C158 1.248 . S
Mg157 O156 2.028 . S
Mg157 O162 2.032 . S
Mg157 O164 2.079 . S
C158 O155 1.250 . S
C158 O156 1.248 . S
C159 O160 1.264 . S
C159 O167 1.249 . S
O160 C159 1.264 . S
O161 Mg154 1.986 . S
O161 C165 1.246 . S
O162 Mg157 2.032 . S
O162 C165 1.259 . S
O163 Mg154 2.114 . S
O163 C166 1.252 . S
O164 Mg154 2.251 . S
O164 Mg157 2.079 . S
O164 C166 1.273 . S
C165 O161 1.246 . S
C165 O162 1.259 . S
C166 O163 1.252 . S
C166 O164 1.273 . S
O167 Mg154 2.010 . S
O167 C159 1.249 . S
Mg168 O169 2.028 1_565 S
Mg168 O175 1.985 1_565 S
Mg168 O177 2.114 . S
Mg168 O178 2.251 . S
Mg168 O181 2.010 1_565 S
O169 Mg168 2.028 1_545 S
O169 C172 1.250 . S
O170 Mg171 2.028 1_545 S
O170 C172 1.248 . S
Mg171 O170 2.028 1_565 S
Mg171 O176 2.032 . S
Mg171 O178 2.079 . S
C172 O169 1.250 . S
C172 O170 1.248 . S
C173 O174 1.275 . S
C173 O181 1.249 . S
O174 C173 1.275 . S
O175 Mg168 1.985 1_545 S
O175 C179 1.241 1_545 S
O176 Mg171 2.032 . S
O176 C179 1.259 . S
O177 Mg168 2.114 . S
O177 C180 1.252 . S
O178 Mg168 2.251 . S
O178 Mg171 2.079 . S
O178 C180 1.273 . S
C179 O175 1.241 1_565 S
C179 O176 1.259 . S
C180 O177 1.252 . S
C180 O178 1.273 . S
O181 Mg168 2.010 1_545 S
O181 C173 1.249 . S
Mg182 O183 2.028 . S
Mg182 O189 1.986 . S
Mg182 O191 2.114 . S
Mg182 O192 2.251 . S
Mg182 O195 2.010 . S
O183 Mg182 2.028 . S
O183 C186 1.250 . S
O184 Mg185 2.028 . S
O184 C186 1.248 . S
Mg185 O184 2.028 . S
Mg185 O190 2.032 . S
Mg185 O192 2.079 . S
C186 O183 1.250 . S
C186 O184 1.248 . S
C187 O188 1.264 . S
C187 O195 1.249 . S
O188 C187 1.264 . S
O189 Mg182 1.986 . S
O189 C193 1.246 . S
O190 Mg185 2.032 . S
O190 C193 1.259 . S
O191 Mg182 2.114 . S
O191 C194 1.252 . S
O192 Mg182 2.251 . S
O192 Mg185 2.079 . S
O192 C194 1.273 . S
C193 O189 1.246 . S
C193 O190 1.259 . S
C194 O191 1.252 . S
C194 O192 1.273 . S
O195 Mg182 2.010 . S
O195 C187 1.249 . S
Mg196 O197 2.003 1_545 S
Mg196 O203 1.986 . S
Mg196 O205 2.114 . S
Mg196 O206 2.251 . S
Mg196 O209 2.010 . S
O197 Mg196 2.003 1_565 S
O197 C200 1.267 . S
O198 Mg199 2.028 1_565 S
O198 C200 1.248 . S
Mg199 O198 2.028 1_545 S
Mg199 O204 2.032 . S
Mg199 O206 2.079 . S
C200 O197 1.267 . S
C200 O198 1.248 . S
C201 O202 1.264 . S
C201 O209 1.249 . S
O202 C201 1.264 . S
O203 Mg196 1.986 . S
O203 C207 1.246 . S
O204 Mg199 2.032 . S
O204 C207 1.259 . S
O205 Mg196 2.114 . S
O205 C208 1.252 . S
O206 Mg196 2.251 . S
O206 Mg199 2.079 . S
O206 C208 1.273 . S
C207 O203 1.246 . S
C207 O204 1.259 . S
C208 O205 1.252 . S
C208 O206 1.273 . S
O209 Mg196 2.010 . S
O209 C201 1.249 . S
Mg210 O211 2.028 . S
Mg210 O217 1.986 . S
Mg210 O219 2.114 . S
Mg210 O220 2.251 . S
Mg210 O223 2.010 . S
O211 Mg210 2.028 . S
O211 C214 1.250 . S
O212 Mg213 2.028 1_556 S
O212 C214 1.248 . S
Mg213 O212 2.028 1_554 S
Mg213 O218 2.032 . S
Mg213 O220 2.079 1_554 S
C214 O211 1.250 . S
C214 O212 1.248 . S
C215 O216 1.264 . S
C215 O223 1.249 . S
O216 C215 1.264 . S
O217 Mg210 1.986 . S
O217 C221 1.246 1_556 S
O218 Mg213 2.032 . S
O218 C221 1.259 . S
O219 Mg210 2.114 . S
O219 C222 1.252 . S
O220 Mg210 2.251 . S
O220 Mg213 2.079 1_556 S
O220 C222 1.273 . S
C221 O217 1.246 1_554 S
C221 O218 1.259 . S
C222 O219 1.252 . S
C222 O220 1.273 . S
O223 Mg210 2.010 . S
O223 C215 1.249 . S
Mg224 O225 2.028 1_554 S
Mg224 O231 1.986 . S
Mg224 O233 2.114 . S
Mg224 O234 2.251 . S
Mg224 O237 2.010 . S
O225 Mg224 2.028 1_556 S
O225 C228 1.250 . S
O226 Mg227 2.028 1_556 S
O226 C228 1.248 . S
Mg227 O226 2.028 1_554 S
Mg227 O232 2.032 . S
Mg227 O234 2.079 . S
C228 O225 1.250 . S
C228 O226 1.248 . S
C229 O230 1.264 1_556 S
C229 O237 1.249 1_556 S
O230 C229 1.264 1_554 S
O231 Mg224 1.986 . S
O231 C235 1.246 . S
O232 Mg227 2.032 . S
O232 C235 1.259 . S
O233 Mg224 2.114 . S
O233 C236 1.252 . S
O234 Mg224 2.251 . S
O234 Mg227 2.079 . S
O234 C236 1.273 . S
C235 O231 1.246 . S
C235 O232 1.259 . S
C236 O233 1.252 . S
C236 O234 1.273 . S
O237 Mg224 2.010 . S
O237 C229 1.249 1_554 S
Mg238 O239 2.028 . S
Mg238 O245 1.986 . S
Mg238 O247 2.114 1_554 S
Mg238 O248 2.251 1_554 S
Mg238 O251 2.010 . S
O239 Mg238 2.028 . S
O239 C242 1.250 . S
O240 Mg241 2.028 . S
O240 C242 1.248 . S
Mg241 O240 2.028 . S
Mg241 O246 2.032 . S
Mg241 O248 2.079 1_554 S
C242 O239 1.250 . S
C242 O240 1.248 . S
C243 O244 1.264 . S
C243 O251 1.249 . S
O244 C243 1.264 . S
O245 Mg238 1.986 . S
O245 C249 1.246 . S
O246 Mg241 2.032 . S
O246 C249 1.259 . S
O247 Mg238 2.114 1_556 S
O247 C250 1.252 . S
O248 Mg238 2.251 1_556 S
O248 Mg241 2.079 1_556 S
O248 C250 1.273 . S
C249 O245 1.246 . S
C249 O246 1.259 . S
C250 O247 1.252 . S
C250 O248 1.273 . S
O251 Mg238 2.010 . S
O251 C243 1.249 . S
Mg252 O253 2.028 . S
Mg252 O259 1.986 . S
Mg252 O261 2.114 . S
Mg252 O262 2.251 . S
Mg252 O265 2.010 1_655 S
O253 Mg252 2.028 . S
O253 C256 1.250 . S
O254 Mg255 2.028 . S
O254 C256 1.248 . S
Mg255 O254 2.028 . S
Mg255 O260 2.032 . S
Mg255 O262 2.079 . S
C256 O253 1.250 . S
C256 O254 1.248 . S
C257 O258 1.264 . S
C257 O265 1.249 . S
O258 C257 1.264 . S
O259 Mg252 1.986 . S
O259 C263 1.246 . S
O260 Mg255 2.032 . S
O260 C263 1.259 . S
O261 Mg252 2.114 . S
O261 C264 1.252 . S
O262 Mg252 2.251 . S
O262 Mg255 2.079 . S
O262 C264 1.273 . S
C263 O259 1.246 . S
C263 O260 1.259 . S
C264 O261 1.252 . S
C264 O262 1.273 . S
O265 Mg252 2.010 1_455 S
O265 C257 1.249 . S
Mg266 O267 2.028 . S
Mg266 O273 1.986 . S
Mg266 O275 2.114 . S
Mg266 O276 2.251 . S
Mg266 O279 2.010 . S
O267 Mg266 2.028 . S
O267 C270 1.250 . S
O268 Mg269 2.028 . S
O268 C270 1.248 . S
Mg269 O268 2.028 . S
Mg269 O274 2.032 . S
Mg269 O276 2.079 . S
C270 O267 1.250 . S
C270 O268 1.248 . S
C271 O272 1.264 . S
C271 O279 1.249 . S
O272 C271 1.264 . S
O273 Mg266 1.986 . S
O273 C277 1.246 . S
O274 Mg269 2.032 . S
O274 C277 1.259 . S
O275 Mg266 2.114 . S
O275 C278 1.252 . S
O276 Mg266 2.251 . S
O276 Mg269 2.079 . S
O276 C278 1.273 . S
C277 O273 1.246 . S
C277 O274 1.259 . S
C278 O275 1.252 . S
C278 O276 1.273 . S
O279 Mg266 2.010 . S
O279 C271 1.249 . S
Mg280 O281 2.028 . S
Mg280 O287 1.986 . S
Mg280 O289 2.114 . S
Mg280 O290 2.251 . S
Mg280 O293 2.010 . S
O281 Mg280 2.028 . S
O281 C284 1.250 . S
O282 Mg283 2.028 1_565 S
O282 C284 1.248 . S
Mg283 O282 2.028 1_545 S
Mg283 O288 2.032 . S
Mg283 O290 2.079 1_545 S
C284 O281 1.250 . S
C284 O282 1.248 . S
C285 O286 1.264 . S
C285 O293 1.249 . S
O286 C285 1.264 . S
O287 Mg280 1.986 . S
O287 C291 1.246 1_565 S
O288 Mg283 2.032 . S
O288 C291 1.259 . S
O289 Mg280 2.114 . S
O289 C292 1.252 . S
O290 Mg280 2.251 . S
O290 Mg283 2.079 1_565 S
O290 C292 1.273 . S
C291 O287 1.246 1_545 S
C291 O288 1.259 . S
C292 O289 1.252 . S
C292 O290 1.273 . S
O293 Mg280 2.010 . S
O293 C285 1.249 . S
Mg294 O295 2.028 . S
Mg294 O301 1.986 . S
Mg294 O303 2.114 . S
Mg294 O304 2.251 . S
Mg294 O307 2.010 . S
O295 Mg294 2.028 . S
O295 C298 1.250 . S
O296 Mg297 2.028 . S
O296 C298 1.248 . S
Mg297 O296 2.028 . S
Mg297 O302 2.032 . S
Mg297 O304 2.079 . S
C298 O295 1.250 . S
C298 O296 1.248 . S
C299 O300 1.264 . S
C299 O307 1.249 . S
O300 C299 1.264 . S
O301 Mg294 1.986 . S
O301 C305 1.246 . S
O302 Mg297 2.032 . S
O302 C305 1.259 . S
O303 Mg294 2.114 . S
O303 C306 1.252 . S
O304 Mg294 2.251 . S
O304 Mg297 2.079 . S
O304 C306 1.273 . S
C305 O301 1.246 . S
C305 O302 1.259 . S
C306 O303 1.252 . S
C306 O304 1.273 . S
O307 Mg294 2.010 . S
O307 C299 1.249 . S
Mg308 O309 2.028 . S
Mg308 O315 1.986 . S
Mg308 O317 2.114 . S
Mg308 O318 2.251 . S
Mg308 O321 2.010 . S
O309 Mg308 2.028 . S
O309 C312 1.250 . S
O310 Mg311 2.028 . S
O310 C312 1.248 . S
Mg311 O310 2.028 . S
Mg311 O316 2.032 . S
Mg311 O318 2.079 . S
C312 O309 1.250 . S
C312 O310 1.248 . S
C313 O314 1.264 . S
C313 O321 1.249 . S
O314 C313 1.264 . S
O315 Mg308 1.986 . S
O315 C319 1.246 . S
O316 Mg311 2.032 . S
O316 C319 1.259 . S
O317 Mg308 2.114 . S
O317 C320 1.252 . S
O318 Mg308 2.251 . S
O318 Mg311 2.079 . S
O318 C320 1.273 . S
C319 O315 1.246 . S
C319 O316 1.259 . S
C320 O317 1.252 . S
C320 O318 1.273 . S
O321 Mg308 2.010 . S
O321 C313 1.249 . S
Mg322 O323 2.028 . S
Mg322 O329 1.986 . S
Mg322 O331 2.114 . S
Mg322 O332 2.251 . S
Mg322 O335 2.010 . S
O323 Mg322 2.028 . S
O323 C326 1.250 . S
O324 Mg325 2.028 . S
O324 C326 1.248 . S
Mg325 O324 2.028 . S
Mg325 O330 2.032 . S
Mg325 O332 2.079 . S
C326 O323 1.250 . S
C326 O324 1.248 . S
C327 O328 1.264 . S
C327 O335 1.249 . S
O328 C327 1.264 . S
O329 Mg322 1.986 . S
O329 C333 1.246 . S
O330 Mg325 2.032 . S
O330 C333 1.259 . S
O331 Mg322 2.114 . S
O331 C334 1.252 . S
O332 Mg322 2.251 . S
O332 Mg325 2.079 . S
O332 C334 1.273 . S
C333 O329 1.246 . S
C333 O330 1.259 . S
C334 O331 1.252 . S
C334 O332 1.273 . S
O335 Mg322 2.010 . S
O335 C327 1.249 . S
Mg336 O337 2.028 . S
Mg336 O343 1.986 . S
Mg336 O345 2.114 . S
Mg336 O346 2.251 . S
Mg336 O349 2.010 . S
O337 Mg336 2.028 . S
O337 C340 1.250 . S
O338 Mg339 2.028 . S
O338 C340 1.248 . S
Mg339 O338 2.028 . S
Mg339 O344 2.032 . S
Mg339 O346 2.079 . S
C340 O337 1.250 . S
C340 O338 1.248 . S
C341 O342 1.264 . S
C341 O349 1.249 . S
O342 C341 1.264 . S
O343 Mg336 1.986 . S
O343 C347 1.246 . S
O344 Mg339 2.032 . S
O344 C347 1.259 . S
O345 Mg336 2.114 . S
O345 C348 1.252 . S
O346 Mg336 2.251 . S
O346 Mg339 2.079 . S
O346 C348 1.273 . S
C347 O343 1.246 . S
C347 O344 1.259 . S
C348 O345 1.252 . S
C348 O346 1.273 . S
O349 Mg336 2.010 . S
O349 C341 1.249 . S
Mg350 O351 2.028 . S
Mg350 O357 1.986 . S
Mg350 O359 2.114 . S
Mg350 O360 2.251 . S
Mg350 O363 2.010 . S
O351 Mg350 2.028 . S
O351 C354 1.250 . S
O352 Mg353 2.028 . S
O352 C354 1.248 . S
Mg353 O352 2.028 . S
Mg353 O358 2.032 . S
Mg353 O360 2.079 . S
C354 O351 1.250 . S
C354 O352 1.248 . S
C355 O356 1.264 . S
C355 O363 1.249 . S
O356 C355 1.264 . S
O357 Mg350 1.986 . S
O357 C361 1.246 . S
O358 Mg353 2.032 . S
O358 C361 1.259 . S
O359 Mg350 2.114 . S
O359 C362 1.252 . S
O360 Mg350 2.251 . S
O360 Mg353 2.079 . S
O360 C362 1.273 . S
C361 O357 1.246 . S
C361 O358 1.259 . S
C362 O359 1.252 . S
C362 O360 1.273 . S
O363 Mg350 2.010 . S
O363 C355 1.249 . S
Mg364 O365 2.028 1_655 S
Mg364 O371 1.985 1_655 S
Mg364 O373 2.114 . S
Mg364 O374 2.251 . S
Mg364 O377 2.010 1_655 S
O365 Mg364 2.028 1_455 S
O365 C368 1.250 . S
O366 Mg367 2.028 1_455 S
O366 C368 1.248 . S
Mg367 O366 2.028 1_655 S
Mg367 O372 2.032 . S
Mg367 O374 2.079 . S
C368 O365 1.250 . S
C368 O366 1.248 . S
C369 O370 1.275 . S
C369 O377 1.249 . S
O370 C369 1.275 . S
O371 Mg364 1.985 1_455 S
O371 C375 1.241 1_455 S
O372 Mg367 2.032 . S
O372 C375 1.259 . S
O373 Mg364 2.114 . S
O373 C376 1.252 . S
O374 Mg364 2.251 . S
O374 Mg367 2.079 . S
O374 C376 1.273 . S
C375 O371 1.241 1_655 S
C375 O372 1.259 . S
C376 O373 1.252 . S
C376 O374 1.273 . S
O377 Mg364 2.010 1_455 S
O377 C369 1.249 . S
Mg378 O379 2.028 . S
Mg378 O385 1.986 . S
Mg378 O387 2.114 . S
Mg378 O388 2.251 . S
Mg378 O391 2.010 . S
O379 Mg378 2.028 . S
O379 C382 1.250 . S
O380 Mg381 2.028 1_455 S
O380 C382 1.248 . S
Mg381 O380 2.028 1_655 S
Mg381 O386 2.032 . S
Mg381 O388 2.079 1_655 S
C382 O379 1.250 . S
C382 O380 1.248 . S
C383 O384 1.264 . S
C383 O391 1.249 . S
O384 C383 1.264 . S
O385 Mg378 1.986 . S
O385 C389 1.246 1_455 S
O386 Mg381 2.032 . S
O386 C389 1.259 . S
O387 Mg378 2.114 . S
O387 C390 1.252 . S
O388 Mg378 2.251 . S
O388 Mg381 2.079 1_455 S
O388 C390 1.273 . S
C389 O385 1.246 1_655 S
C389 O386 1.259 . S
C390 O387 1.252 . S
C390 O388 1.273 . S
O391 Mg378 2.010 . S
O391 C383 1.249 . S
Mg392 O393 2.028 . S
Mg392 O399 1.986 . S
Mg392 O401 2.114 . S
Mg392 O402 2.251 . S
Mg392 O405 2.010 . S
O393 Mg392 2.028 . S
O393 C396 1.250 . S
O394 Mg395 2.028 . S
O394 C396 1.248 . S
Mg395 O394 2.028 . S
Mg395 O400 2.032 . S
Mg395 O402 2.079 . S
C396 O393 1.250 . S
C396 O394 1.248 . S
C397 O398 1.264 . S
C397 O405 1.249 . S
O398 C397 1.264 . S
O399 Mg392 1.986 . S
O399 C403 1.246 . S
O400 Mg395 2.032 . S
O400 C403 1.259 . S
O401 Mg392 2.114 . S
O401 C404 1.252 . S
O402 Mg392 2.251 . S
O402 Mg395 2.079 . S
O402 C404 1.273 . S
C403 O399 1.246 . S
C403 O400 1.259 . S
C404 O401 1.252 . S
C404 O402 1.273 . S
O405 Mg392 2.010 . S
O405 C397 1.249 . S
Mg406 O407 2.028 . S
Mg406 O413 1.986 . S
Mg406 O415 2.114 . S
Mg406 O416 2.251 . S
Mg406 O419 2.010 . S
O407 Mg406 2.028 . S
O407 C410 1.250 . S
O408 Mg409 2.028 . S
O408 C410 1.248 . S
Mg409 O408 2.028 . S
Mg409 O414 2.032 . S
Mg409 O416 2.079 . S
C410 O407 1.250 . S
C410 O408 1.248 . S
C411 O412 1.264 . S
C411 O419 1.249 . S
O412 C411 1.264 . S
O413 Mg406 1.986 . S
O413 C417 1.246 . S
O414 Mg409 2.032 . S
O414 C417 1.259 . S
O415 Mg406 2.114 . S
O415 C418 1.252 . S
O416 Mg406 2.251 . S
O416 Mg409 2.079 . S
O416 C418 1.273 . S
C417 O413 1.246 . S
C417 O414 1.259 . S
C418 O415 1.252 . S
C418 O416 1.273 . S
O419 Mg406 2.010 . S
O419 C411 1.249 . S
Mg420 O421 2.028 . S
Mg420 O427 1.986 . S
Mg420 O429 2.114 1_455 S
Mg420 O430 2.251 1_455 S
Mg420 O433 2.010 . S
O421 Mg420 2.028 . S
O421 C424 1.250 . S
O422 Mg423 2.028 . S
O422 C424 1.248 . S
Mg423 O422 2.028 . S
Mg423 O428 2.032 . S
Mg423 O430 2.079 1_455 S
C424 O421 1.250 . S
C424 O422 1.248 . S
C425 O426 1.264 . S
C425 O433 1.249 . S
O426 C425 1.264 . S
O427 Mg420 1.986 . S
O427 C431 1.246 . S
O428 Mg423 2.032 . S
O428 C431 1.259 . S
O429 Mg420 2.114 1_655 S
O429 C432 1.252 . S
O430 Mg420 2.251 1_655 S
O430 Mg423 2.079 1_655 S
O430 C432 1.273 . S
C431 O427 1.246 . S
C431 O428 1.259 . S
C432 O429 1.252 . S
C432 O430 1.273 . S
O433 Mg420 2.010 . S
O433 C425 1.249 . S
Mg434 O435 2.028 . S
Mg434 O441 1.986 . S
Mg434 O443 2.114 . S
Mg434 O444 2.251 . S
Mg434 O447 2.010 . S
O435 Mg434 2.028 . S
O435 C438 1.250 . S
O436 Mg437 2.028 . S
O436 C438 1.248 . S
Mg437 O436 2.028 . S
Mg437 O442 2.032 . S
Mg437 O444 2.079 . S
C438 O435 1.250 . S
C438 O436 1.248 . S
C439 O440 1.264 . S
C439 O447 1.249 . S
O440 C439 1.264 . S
O441 Mg434 1.986 . S
O441 C445 1.246 . S
O442 Mg437 2.032 . S
O442 C445 1.259 . S
O443 Mg434 2.114 . S
O443 C446 1.252 . S
O444 Mg434 2.251 . S
O444 Mg437 2.079 . S
O444 C446 1.273 . S
C445 O441 1.246 . S
C445 O442 1.259 . S
C446 O443 1.252 . S
C446 O444 1.273 . S
O447 Mg434 2.010 . S
O447 C439 1.249 . S
Mg448 O449 2.028 . S
Mg448 O455 1.986 . S
Mg448 O457 2.114 . S
Mg448 O458 2.251 . S
Mg448 O461 2.010 . S
O449 Mg448 2.028 . S
O449 C452 1.250 . S
O450 Mg451 2.028 . S
O450 C452 1.248 . S
Mg451 O450 2.028 . S
Mg451 O456 2.032 . S
Mg451 O458 2.079 . S
C452 O449 1.250 . S
C452 O450 1.248 . S
C453 O454 1.264 . S
C453 O461 1.249 . S
O454 C453 1.264 . S
O455 Mg448 1.986 . S
O455 C459 1.246 . S
O456 Mg451 2.032 . S
O456 C459 1.259 . S
O457 Mg448 2.114 . S
O457 C460 1.252 . S
O458 Mg448 2.251 . S
O458 Mg451 2.079 . S
O458 C460 1.273 . S
C459 O455 1.246 . S
C459 O456 1.259 . S
C460 O457 1.252 . S
C460 O458 1.273 . S
O461 Mg448 2.010 . S
O461 C453 1.249 . S
Mg462 O463 2.028 . S
Mg462 O469 1.986 . S
Mg462 O471 2.114 . S
Mg462 O472 2.251 . S
Mg462 O475 2.010 . S
O463 Mg462 2.028 . S
O463 C466 1.250 . S
O464 Mg465 2.028 1_554 S
O464 C466 1.248 . S
Mg465 O464 2.028 1_556 S
Mg465 O470 2.032 . S
Mg465 O472 2.079 1_556 S
C466 O463 1.250 . S
C466 O464 1.248 . S
C467 O468 1.264 . S
C467 O475 1.249 . S
O468 C467 1.264 . S
O469 Mg462 1.986 . S
O469 C473 1.246 1_554 S
O470 Mg465 2.032 . S
O470 C473 1.259 . S
O471 Mg462 2.114 . S
O471 C474 1.252 . S
O472 Mg462 2.251 . S
O472 Mg465 2.079 1_554 S
O472 C474 1.273 . S
C473 O469 1.246 1_556 S
C473 O470 1.259 . S
C474 O471 1.252 . S
C474 O472 1.273 . S
O475 Mg462 2.010 . S
O475 C467 1.249 . S
Mg476 O477 2.028 . S
Mg476 O483 1.986 . S
Mg476 O485 2.114 . S
Mg476 O486 2.251 . S
Mg476 O489 2.010 . S
O477 Mg476 2.028 . S
O477 C480 1.250 . S
O478 Mg479 2.028 . S
O478 C480 1.248 . S
Mg479 O478 2.028 . S
Mg479 O484 2.032 . S
Mg479 O486 2.079 . S
C480 O477 1.250 . S
C480 O478 1.248 . S
C481 O482 1.264 . S
C481 O489 1.249 . S
O482 C481 1.264 . S
O483 Mg476 1.986 . S
O483 C487 1.246 . S
O484 Mg479 2.032 . S
O484 C487 1.259 . S
O485 Mg476 2.114 . S
O485 C488 1.252 . S
O486 Mg476 2.251 . S
O486 Mg479 2.079 . S
O486 C488 1.273 . S
C487 O483 1.246 . S
C487 O484 1.259 . S
C488 O485 1.252 . S
C488 O486 1.273 . S
O489 Mg476 2.010 . S
O489 C481 1.249 . S
Mg490 O491 2.028 . S
Mg490 O497 1.986 . S
Mg490 O499 2.114 . S
Mg490 O500 2.251 . S
Mg490 O503 2.010 . S
O491 Mg490 2.028 . S
O491 C494 1.250 . S
O492 Mg493 2.028 . S
O492 C494 1.248 . S
Mg493 O492 2.028 . S
Mg493 O498 2.032 . S
Mg493 O500 2.079 . S
C494 O491 1.250 . S
C494 O492 1.248 . S
C495 O496 1.264 . S
C495 O503 1.249 . S
O496 C495 1.264 . S
O497 Mg490 1.986 . S
O497 C501 1.246 . S
O498 Mg493 2.032 . S
O498 C501 1.259 . S
O499 Mg490 2.114 . S
O499 C502 1.252 . S
O500 Mg490 2.251 . S
O500 Mg493 2.079 . S
O500 C502 1.273 . S
C501 O497 1.246 . S
C501 O498 1.259 . S
C502 O499 1.252 . S
C502 O500 1.273 . S
O503 Mg490 2.010 . S
O503 C495 1.249 . S
Mg504 O505 2.028 . S
Mg504 O511 1.986 . S
Mg504 O513 2.114 . S
Mg504 O514 2.251 . S
Mg504 O517 2.010 . S
O505 Mg504 2.028 . S
O505 C508 1.250 . S
O506 Mg507 2.028 . S
O506 C508 1.248 . S
Mg507 O506 2.028 . S
Mg507 O512 2.032 . S
Mg507 O514 2.079 . S
C508 O505 1.250 . S
C508 O506 1.248 . S
C509 O510 1.264 . S
C509 O517 1.249 . S
O510 C509 1.264 . S
O511 Mg504 1.986 . S
O511 C515 1.246 . S
O512 Mg507 2.032 . S
O512 C515 1.259 . S
O513 Mg504 2.114 . S
O513 C516 1.252 . S
O514 Mg504 2.251 . S
O514 Mg507 2.079 . S
O514 C516 1.273 . S
C515 O511 1.246 . S
C515 O512 1.259 . S
C516 O513 1.252 . S
C516 O514 1.273 . S
O517 Mg504 2.010 . S
O517 C509 1.249 . S
Mg518 O519 2.028 . S
Mg518 O525 1.986 . S
Mg518 O527 2.114 . S
Mg518 O528 2.251 . S
Mg518 O531 2.010 . S
O519 Mg518 2.028 . S
O519 C522 1.250 . S
O520 Mg521 2.028 1_556 S
O520 C522 1.248 . S
Mg521 O520 2.028 1_554 S
Mg521 O526 2.032 1_554 S
Mg521 O528 2.079 1_554 S
C522 O519 1.250 . S
C522 O520 1.248 . S
C523 O524 1.264 . S
C523 O531 1.249 . S
O524 C523 1.264 . S
O525 Mg518 1.986 . S
O525 C529 1.246 . S
O526 Mg521 2.032 1_556 S
O526 C529 1.259 . S
O527 Mg518 2.114 . S
O527 C530 1.252 . S
O528 Mg518 2.251 . S
O528 Mg521 2.079 1_556 S
O528 C530 1.273 . S
C529 O525 1.246 . S
C529 O526 1.259 . S
C530 O527 1.252 . S
C530 O528 1.273 . S
O531 Mg518 2.010 . S
O531 C523 1.249 . S
Mg532 O533 2.028 . S
Mg532 O539 1.986 . S
Mg532 O541 2.114 . S
Mg532 O542 2.251 . S
Mg532 O545 2.010 . S
O533 Mg532 2.028 . S
O533 C536 1.250 . S
O534 Mg535 2.028 . S
O534 C536 1.248 . S
Mg535 O534 2.028 . S
Mg535 O540 2.032 . S
Mg535 O542 2.079 . S
C536 O533 1.250 . S
C536 O534 1.248 . S
C537 O538 1.264 . S
C537 O545 1.249 . S
O538 C537 1.264 . S
O539 Mg532 1.986 . S
O539 C543 1.246 . S
O540 Mg535 2.032 . S
O540 C543 1.259 . S
O541 Mg532 2.114 . S
O541 C544 1.252 . S
O542 Mg532 2.251 . S
O542 Mg535 2.079 . S
O542 C544 1.273 . S
C543 O539 1.246 . S
C543 O540 1.259 . S
C544 O541 1.252 . S
C544 O542 1.273 . S
O545 Mg532 2.010 . S
O545 C537 1.249 . S
Mg546 O547 2.028 . S
Mg546 O553 1.986 . S
Mg546 O555 2.114 . S
Mg546 O556 2.251 . S
Mg546 O559 2.010 . S
O547 Mg546 2.028 . S
O547 C550 1.250 . S
O548 Mg549 2.028 . S
O548 C550 1.248 . S
Mg549 O548 2.028 . S
Mg549 O554 2.032 . S
Mg549 O556 2.079 . S
C550 O547 1.250 . S
C550 O548 1.248 . S
C551 O552 1.264 . S
C551 O559 1.249 . S
O552 C551 1.264 . S
O553 Mg546 1.986 . S
O553 C557 1.246 . S
O554 Mg549 2.032 . S
O554 C557 1.259 . S
O555 Mg546 2.114 . S
O555 C558 1.252 . S
O556 Mg546 2.251 . S
O556 Mg549 2.079 . S
O556 C558 1.273 . S
C557 O553 1.246 . S
C557 O554 1.259 . S
C558 O555 1.252 . S
C558 O556 1.273 . S
O559 Mg546 2.010 . S
O559 C551 1.249 . S
Mg560 O561 2.028 . S
Mg560 O567 1.986 . S
Mg560 O569 2.114 . S
Mg560 O570 2.251 . S
Mg560 O573 2.010 . S
O561 Mg560 2.028 . S
O561 C564 1.250 . S
O562 Mg563 2.028 . S
O562 C564 1.248 . S
Mg563 O562 2.028 . S
Mg563 O568 2.032 . S
Mg563 O570 2.079 . S
C564 O561 1.250 . S
C564 O562 1.248 . S
C565 O566 1.264 . S
C565 O573 1.249 . S
O566 C565 1.264 . S
O567 Mg560 1.986 . S
O567 C571 1.246 . S
O568 Mg563 2.032 . S
O568 C571 1.259 . S
O569 Mg560 2.114 . S
O569 C572 1.252 . S
O570 Mg560 2.251 . S
O570 Mg563 2.079 . S
O570 C572 1.273 . S
C571 O567 1.246 . S
C571 O568 1.259 . S
C572 O569 1.252 . S
C572 O570 1.273 . S
O573 Mg560 2.010 . S
O573 C565 1.249 . S
Mg574 O575 2.028 . S
Mg574 O581 1.986 . S
Mg574 O583 2.114 . S
Mg574 O584 2.251 . S
Mg574 O587 2.010 . S
O575 Mg574 2.028 . S
O575 C578 1.250 . S
O576 Mg577 2.028 . S
O576 C578 1.248 . S
Mg577 O576 2.028 . S
Mg577 O582 2.032 . S
Mg577 O584 2.079 . S
C578 O575 1.250 . S
C578 O576 1.248 . S
C579 O580 1.264 . S
C579 O587 1.249 . S
O580 C579 1.264 . S
O581 Mg574 1.986 . S
O581 C585 1.246 . S
O582 Mg577 2.032 . S
O582 C585 1.259 . S
O583 Mg574 2.114 . S
O583 C586 1.252 . S
O584 Mg574 2.251 . S
O584 Mg577 2.079 . S
O584 C586 1.273 . S
C585 O581 1.246 . S
C585 O582 1.259 . S
C586 O583 1.252 . S
C586 O584 1.273 . S
O587 Mg574 2.010 . S
O587 C579 1.249 . S
Mg588 O589 2.028 . S
Mg588 O595 1.986 . S
Mg588 O597 2.114 . S
Mg588 O598 2.251 . S
Mg588 O601 2.010 . S
O589 Mg588 2.028 . S
O589 C592 1.250 . S
O590 Mg591 2.028 1_545 S
O590 C592 1.248 . S
Mg591 O590 2.028 1_565 S
Mg591 O596 2.032 . S
Mg591 O598 2.079 1_565 S
C592 O589 1.250 . S
C592 O590 1.248 . S
C593 O594 1.264 . S
C593 O601 1.249 . S
O594 C593 1.264 . S
O595 Mg588 1.986 . S
O595 C599 1.246 1_545 S
O596 Mg591 2.032 . S
O596 C599 1.259 . S
O597 Mg588 2.114 . S
O597 C600 1.252 . S
O598 Mg588 2.251 . S
O598 Mg591 2.079 1_545 S
O598 C600 1.273 . S
C599 O595 1.246 1_565 S
C599 O596 1.259 . S
C600 O597 1.252 . S
C600 O598 1.273 . S
O601 Mg588 2.010 . S
O601 C593 1.249 . S
Mg602 O603 2.028 1_556 S
Mg602 O609 1.985 1_556 S
Mg602 O611 2.114 . S
Mg602 O612 2.251 . S
Mg602 O615 2.010 1_556 S
O603 Mg602 2.028 1_554 S
O603 C606 1.250 . S
O604 Mg605 2.028 1_554 S
O604 C606 1.248 . S
Mg605 O604 2.028 1_556 S
Mg605 O610 2.032 . S
Mg605 O612 2.079 . S
C606 O603 1.250 . S
C606 O604 1.248 . S
C607 O608 1.275 . S
C607 O615 1.249 . S
O608 C607 1.275 . S
O609 Mg602 1.985 1_554 S
O609 C613 1.241 1_554 S
O610 Mg605 2.032 . S
O610 C613 1.259 . S
O611 Mg602 2.114 . S
O611 C614 1.252 . S
O612 Mg602 2.251 . S
O612 Mg605 2.079 . S
O612 C614 1.273 . S
C613 O609 1.241 1_556 S
C613 O610 1.259 . S
C614 O611 1.252 . S
C614 O612 1.273 . S
O615 Mg602 2.010 1_554 S
O615 C607 1.249 . S
Mg616 O617 2.028 . S
Mg616 O623 1.986 . S
Mg616 O625 2.114 . S
Mg616 O626 2.251 . S
Mg616 O629 2.010 . S
O617 Mg616 2.028 . S
O617 C620 1.250 . S
O618 Mg619 2.028 . S
O618 C620 1.248 . S
Mg619 O618 2.028 . S
Mg619 O624 2.032 . S
Mg619 O626 2.079 . S
C620 O617 1.250 . S
C620 O618 1.248 . S
C621 O622 1.264 . S
C621 O629 1.249 . S
O622 C621 1.264 . S
O623 Mg616 1.986 . S
O623 C627 1.246 . S
O624 Mg619 2.032 . S
O624 C627 1.259 . S
O625 Mg616 2.114 . S
O625 C628 1.252 . S
O626 Mg616 2.251 . S
O626 Mg619 2.079 . S
O626 C628 1.273 . S
C627 O623 1.246 . S
C627 O624 1.259 . S
C628 O625 1.252 . S
C628 O626 1.273 . S
O629 Mg616 2.010 . S
O629 C621 1.249 . S
Mg630 O631 2.003 1_554 S
Mg630 O637 1.986 . S
Mg630 O639 2.114 . S
Mg630 O640 2.251 . S
Mg630 O643 2.010 . S
O631 Mg630 2.003 1_556 S
O631 C634 1.267 . S
O632 Mg633 2.028 1_556 S
O632 C634 1.248 . S
Mg633 O632 2.028 1_554 S
Mg633 O638 2.032 . S
Mg633 O640 2.079 . S
C634 O631 1.267 . S
C634 O632 1.248 . S
C635 O636 1.264 . S
C635 O643 1.249 . S
O636 C635 1.264 . S
O637 Mg630 1.986 . S
O637 C641 1.246 . S
O638 Mg633 2.032 . S
O638 C641 1.259 . S
O639 Mg630 2.114 . S
O639 C642 1.252 . S
O640 Mg630 2.251 . S
O640 Mg633 2.079 . S
O640 C642 1.273 . S
C641 O637 1.246 . S
C641 O638 1.259 . S
C642 O639 1.252 . S
C642 O640 1.273 . S
O643 Mg630 2.010 . S
O643 C635 1.249 . S
Mg644 O645 2.028 . S
Mg644 O651 1.986 . S
Mg644 O653 2.114 . S
Mg644 O654 2.251 . S
Mg644 O657 2.010 . S
O645 Mg644 2.028 . S
O645 C648 1.250 . S
O646 Mg647 2.028 1_565 S
O646 C648 1.248 . S
Mg647 O646 2.028 1_545 S
Mg647 O652 2.032 1_545 S
Mg647 O654 2.079 1_545 S
C648 O645 1.250 . S
C648 O646 1.248 . S
C649 O650 1.264 . S
C649 O657 1.249 . S
O650 C649 1.264 . S
O651 Mg644 1.986 . S
O651 C655 1.246 . S
O652 Mg647 2.032 1_565 S
O652 C655 1.259 . S
O653 Mg644 2.114 . S
O653 C656 1.252 . S
O654 Mg644 2.251 . S
O654 Mg647 2.079 1_565 S
O654 C656 1.273 . S
C655 O651 1.246 . S
C655 O652 1.259 . S
C656 O653 1.252 . S
C656 O654 1.273 . S
O657 Mg644 2.010 . S
O657 C649 1.249 . S
Mg658 O659 2.028 . S
Mg658 O665 1.986 . S
Mg658 O667 2.114 . S
Mg658 O668 2.251 . S
Mg658 O671 2.010 . S
O659 Mg658 2.028 . S
O659 C662 1.250 . S
O660 Mg661 2.028 . S
O660 C662 1.248 . S
Mg661 O660 2.028 . S
Mg661 O666 2.032 . S
Mg661 O668 2.079 . S
C662 O659 1.250 . S
C662 O660 1.248 . S
C663 O664 1.264 . S
C663 O671 1.249 . S
O664 C663 1.264 . S
O665 Mg658 1.986 . S
O665 C669 1.246 . S
O666 Mg661 2.032 . S
O666 C669 1.259 . S
O667 Mg658 2.114 . S
O667 C670 1.252 . S
O668 Mg658 2.251 . S
O668 Mg661 2.079 . S
O668 C670 1.273 . S
C669 O665 1.246 . S
C669 O666 1.259 . S
C670 O667 1.252 . S
C670 O668 1.273 . S
O671 Mg658 2.010 . S
O671 C663 1.249 . S
C11 C375 0.859 1_455 S
C389 C25 1.197 . S
C39 C347 0.859 . S
C361 C53 1.197 . S
C67 C431 1.020 . S
C81 C445 0.952 . S
C95 C403 1.019 . S
C109 C417 0.952 . S
C179 C123 0.859 1_565 S
C137 C193 1.197 . S
C207 C151 1.020 . S
C165 C221 0.951 . S
C613 C235 0.860 1_556 S
C641 C249 1.020 . S
C319 C263 1.197 . S
C571 C277 0.859 . S
C669 C291 0.952 . S
C585 C305 1.019 . S
C333 C627 0.952 . S
C459 C515 0.859 . S
C529 C473 1.197 . S
C487 C543 1.019 . S
C557 C501 0.952 . S
C599 C655 1.197 . S
C4 C102 0.942 . S
C60 C18 1.102 . S
C32 C74 1.321 . S
C46 C88 0.890 . S
C284 C116 0.942 . S
C578 C130 0.890 . S
C144 C592 0.890 . S
C158 C606 1.321 . S
C662 C172 1.321 . S
C186 C298 1.102 . S
C200 C648 1.102 . S
C214 C228 0.942 . S
C242 C466 0.890 . S
C256 C480 0.890 . S
C494 C270 1.321 . S
C312 C536 1.102 . S
C508 C326 1.321 . S
C438 C340 0.941 . S
C354 C396 1.102 . S
C410 C368 1.321 . S
C382 C424 0.890 . S
C452 C620 0.942 . S
C634 C522 1.102 . S
C564 C550 0.941 . S
C12 C418 1.430 . S
C432 C26 1.717 . S
C40 C446 1.447 . S
C54 C404 1.867 . S
C390 C68 1.868 . S
C82 C348 1.431 . S
C362 C96 1.716 . S
C110 C376 1.447 . S
C670 C124 1.430 . S
C138 C306 1.867 . S
C152 C656 1.717 . S
C236 C166 1.430 . S
C180 C292 1.447 . S
C194 C586 1.716 . S
C600 C208 1.868 . S
C614 C222 1.447 . S
C530 C250 1.717 . S
C544 C264 1.867 . S
C558 C278 1.447 . S
C320 C488 1.716 . S
C460 C334 1.431 . S
C474 C642 1.868 . S
C502 C572 1.431 . S
C628 C516 1.447 . S
C5 C313 3.009 . S
C19 C565 3.011 . S
C327 C33 2.473 . S
C635 C47 1.167 . S
C257 C61 1.167 . S
C271 C75 2.473 . S
C89 C621 1.565 . S
C103 C243 1.566 . S
C187 C117 3.009 . S
C131 C201 1.167 . S
C215 C145 1.566 . S
C173 C159 2.471 . S
C229 C355 3.009 . S
C425 C285 1.566 . S
C383 C299 1.166 . S
C341 C649 3.011 . S
C663 C369 2.471 . S
C593 C397 1.166 . S
C607 C411 2.471 . S
C579 C439 1.565 . S
C523 C453 3.011 . S
C537 C467 1.166 . S
C481 C551 1.565 . S
C495 C509 2.473 . S
