# Generated by pormake.
# Topology zff, (5)-cn, num edge types: 1
# Building blocks:
#     Node 0, Type 0, BuildingBlock: XOMCOT_clean_sbu_1, # of connection points: 5
#     Node 1, Type 0, BuildingBlock: XOMCOT_clean_sbu_1, # of connection points: 5
#     Node 2, Type 0, BuildingBlock: XOMCOT_clean_sbu_1, # of connection points: 5
#     Node 3, Type 0, BuildingBlock: XOMCOT_clean_sbu_1, # of connection points: 5
#     Node 4, Type 0, BuildingBlock: XOMCOT_clean_sbu_1, # of connection points: 5
#     Node 5, Type 0, BuildingBlock: XOMCOT_clean_sbu_1, # of connection points: 5
#     Node 6, Type 0, BuildingBlock: XOMCOT_clean_sbu_1, # of connection points: 5
#     Node 7, Type 0, BuildingBlock: XOMCOT_clean_sbu_1, # of connection points: 5
#     Node 8, Type 0, BuildingBlock: XOMCOT_clean_sbu_1, # of connection points: 5
#     Node 9, Type 0, BuildingBlock: XOMCOT_clean_sbu_1, # of connection points: 5
#     Node 10, Type 0, BuildingBlock: XOMCOT_clean_sbu_1, # of connection points: 5
#     Node 11, Type 0, BuildingBlock: XOMCOT_clean_sbu_1, # of connection points: 5
#     Node 12, Type 0, BuildingBlock: XOMCOT_clean_sbu_1, # of connection points: 5
#     Node 13, Type 0, BuildingBlock: XOMCOT_clean_sbu_1, # of connection points: 5
#     Node 14, Type 0, BuildingBlock: XOMCOT_clean_sbu_1, # of connection points: 5
#     Node 15, Type 0, BuildingBlock: XOMCOT_clean_sbu_1, # of connection points: 5
#     Edge 16, Type (0, 0), BuildingBlock: TEMPAE_clean_linker_10, # of connection points: 2
#     Edge 17, Type (0, 0), BuildingBlock: TEMPAE_clean_linker_10, # of connection points: 2
#     Edge 18, Type (0, 0), BuildingBlock: TEMPAE_clean_linker_10, # of connection points: 2
#     Edge 19, Type (0, 0), BuildingBlock: TEMPAE_clean_linker_10, # of connection points: 2
#     Edge 20, Type (0, 0), BuildingBlock: TEMPAE_clean_linker_10, # of connection points: 2
#     Edge 21, Type (0, 0), BuildingBlock: TEMPAE_clean_linker_10, # of connection points: 2
#     Edge 22, Type (0, 0), BuildingBlock: TEMPAE_clean_linker_10, # of connection points: 2
#     Edge 23, Type (0, 0), BuildingBlock: TEMPAE_clean_linker_10, # of connection points: 2
#     Edge 24, Type (0, 0), BuildingBlock: TEMPAE_clean_linker_10, # of connection points: 2
#     Edge 25, Type (0, 0), BuildingBlock: TEMPAE_clean_linker_10, # of connection points: 2
#     Edge 26, Type (0, 0), BuildingBlock: TEMPAE_clean_linker_10, # of connection points: 2
#     Edge 27, Type (0, 0), BuildingBlock: TEMPAE_clean_linker_10, # of connection points: 2
#     Edge 28, Type (0, 0), BuildingBlock: TEMPAE_clean_linker_10, # of connection points: 2
#     Edge 29, Type (0, 0), BuildingBlock: TEMPAE_clean_linker_10, # of connection points: 2
#     Edge 30, Type (0, 0), BuildingBlock: TEMPAE_clean_linker_10, # of connection points: 2
#     Edge 31, Type (0, 0), BuildingBlock: TEMPAE_clean_linker_10, # of connection points: 2
#     Edge 32, Type (0, 0), BuildingBlock: TEMPAE_clean_linker_10, # of connection points: 2
#     Edge 33, Type (0, 0), BuildingBlock: TEMPAE_clean_linker_10, # of connection points: 2
#     Edge 34, Type (0, 0), BuildingBlock: TEMPAE_clean_linker_10, # of connection points: 2
#     Edge 35, Type (0, 0), BuildingBlock: TEMPAE_clean_linker_10, # of connection points: 2
#     Edge 36, Type (0, 0), BuildingBlock: TEMPAE_clean_linker_10, # of connection points: 2
#     Edge 37, Type (0, 0), BuildingBlock: TEMPAE_clean_linker_10, # of connection points: 2
#     Edge 38, Type (0, 0), BuildingBlock: TEMPAE_clean_linker_10, # of connection points: 2
#     Edge 39, Type (0, 0), BuildingBlock: TEMPAE_clean_linker_10, # of connection points: 2
#     Edge 40, Type (0, 0), BuildingBlock: TEMPAE_clean_linker_10, # of connection points: 2
#     Edge 41, Type (0, 0), BuildingBlock: TEMPAE_clean_linker_10, # of connection points: 2
#     Edge 42, Type (0, 0), BuildingBlock: TEMPAE_clean_linker_10, # of connection points: 2
#     Edge 43, Type (0, 0), BuildingBlock: TEMPAE_clean_linker_10, # of connection points: 2
#     Edge 44, Type (0, 0), BuildingBlock: TEMPAE_clean_linker_10, # of connection points: 2
#     Edge 45, Type (0, 0), BuildingBlock: TEMPAE_clean_linker_10, # of connection points: 2
#     Edge 46, Type (0, 0), BuildingBlock: TEMPAE_clean_linker_10, # of connection points: 2
#     Edge 47, Type (0, 0), BuildingBlock: TEMPAE_clean_linker_10, # of connection points: 2
#     Edge 48, Type (0, 0), BuildingBlock: TEMPAE_clean_linker_10, # of connection points: 2
#     Edge 49, Type (0, 0), BuildingBlock: TEMPAE_clean_linker_10, # of connection points: 2
#     Edge 50, Type (0, 0), BuildingBlock: TEMPAE_clean_linker_10, # of connection points: 2
#     Edge 51, Type (0, 0), BuildingBlock: TEMPAE_clean_linker_10, # of connection points: 2
#     Edge 52, Type (0, 0), BuildingBlock: TEMPAE_clean_linker_10, # of connection points: 2
#     Edge 53, Type (0, 0), BuildingBlock: TEMPAE_clean_linker_10, # of connection points: 2
#     Edge 54, Type (0, 0), BuildingBlock: TEMPAE_clean_linker_10, # of connection points: 2
#     Edge 55, Type (0, 0), BuildingBlock: TEMPAE_clean_linker_10, # of connection points: 2
# Relax obj value: 0.157
# Max RMSD: 0.194
# Mean RMSD: 0.194
data_MOF--net-zff--node1-XOMCOT_clean_sbu_1--edge1-TEMPAE_clean_linker_10
_symmetry_space_group_name_H-M    P1
_symmetry_Int_Tables_number       1
_symmetry_cell_setting            triclinic
loop_
_symmetry_equiv_pos_as_xyz
'x, y, z'
_cell_length_a     37.671477
_cell_length_b     37.998717
_cell_length_c     66.049726
_cell_angle_alpha  89.834924
_cell_angle_beta   89.760649
_cell_angle_gamma 89.955363
loop_
_atom_site_label
_atom_site_type_symbol
_atom_site_fract_x
_atom_site_fract_y
_atom_site_fract_z
_atom_type_partial_charge
C0 C 0.95477 0.31267 0.40693 0.0
C1 C 0.94955 0.3133 0.42753 0.0
N2 N 0.98127 0.3104 0.43672 0.0
N3 N 0.98969 0.30938 0.40275 0.0
C4 C 0.00522 0.30788 0.42133 0.0
H5 H 0.93425 0.31477 0.39559 0.0
Co6 Co 0.00657 0.30946 0.37533 0.0
C7 C 0.07626 0.28528 0.39123 0.0
O8 O 0.08471 0.31574 0.39921 0.0
N9 N 0.02314 0.30979 0.3479 0.0
C10 C 0.04444 0.29015 0.3185 0.0
C11 C 0.03339 0.28083 0.33764 0.0
C12 C 0.02851 0.33662 0.33448 0.0
N13 N 0.04145 0.32532 0.31636 0.0
O14 O 0.03127 0.3515 0.38017 0.0
H15 H 0.03315 0.25441 0.34376 0.0
H16 H 0.02293 0.36389 0.33788 0.0
O17 O 0.04678 0.28107 0.38225 0.0
C18 C 0.00827 0.37592 0.38013 0.0
O19 O 0.97498 0.36833 0.37629 0.0
N20 N 0.97954 0.26944 0.37049 0.0
C21 C 0.92541 0.2198 0.36917 0.0
C22 C 0.95536 0.21426 0.38137 0.0
C23 C 0.9822 0.23952 0.38186 0.0
C24 C 0.95175 0.27438 0.3577 0.0
C25 C 0.92448 0.24969 0.35665 0.0
H26 H 0.00358 0.23628 0.39256 0.0
H27 H 0.94968 0.29866 0.34918 0.0
H28 H 0.03346 0.30581 0.42367 0.0
H29 H 0.92416 0.31553 0.43515 0.0
H30 H 0.0548 0.27231 0.30717 0.0
H31 H 0.95695 0.19188 0.39152 0.0
H32 H 0.90212 0.25476 0.34681 0.0
C33 C 0.73581 0.02662 0.44921 0.0
C34 C 0.74305 0.02675 0.46959 0.0
N35 N 0.71529 0.01264 0.47968 0.0
N36 N 0.7034 0.01264 0.446 0.0
C37 C 0.69175 0.00411 0.46495 0.0
H38 H 0.75315 0.03687 0.43757 0.0
Co39 Co 0.6798 0.00942 0.42036 0.0
C40 C 0.72151 0.05355 0.3921 0.0
O41 O 0.71614 0.03032 0.37773 0.0
N42 N 0.65504 0.00719 0.39477 0.0
C43 C 0.63179 0.9905 0.36527 0.0
C44 C 0.64827 0.97931 0.38272 0.0
C45 C 0.64089 0.03493 0.38437 0.0
N46 N 0.62735 0.02562 0.36614 0.0
O47 O 0.64435 0.04075 0.42967 0.0
H48 H 0.65513 0.95235 0.38596 0.0
H49 H 0.64226 0.06184 0.38964 0.0
O50 O 0.7087 0.04828 0.40984 0.0
C51 C 0.62236 0.01933 0.43763 0.0
O52 O 0.62952 0.98549 0.43706 0.0
N53 N 0.71283 0.9748 0.4124 0.0
C54 C 0.75446 0.91498 0.4055 0.0
C55 C 0.76898 0.94888 0.40353 0.0
C56 C 0.74787 0.97849 0.40735 0.0
C57 C 0.69898 0.94208 0.41536 0.0
C58 C 0.71892 0.91192 0.41158 0.0
H59 H 0.76032 0.00398 0.40686 0.0
H60 H 0.67187 0.93933 0.42053 0.0
H61 H 0.66635 -0.00794 0.46799 0.0
H62 H 0.76667 0.03764 0.47638 0.0
H63 H 0.62391 0.97391 0.35277 0.0
H64 H 0.7967 0.95254 0.39967 0.0
H65 H 0.70643 0.88645 0.41337 0.0
C66 C 0.04486 0.70545 0.40266 0.0
C67 C 0.04796 0.70556 0.42339 0.0
N68 N 0.01551 0.7007 0.43159 0.0
N69 N 0.01054 0.70082 0.3976 0.0
C70 C 0.99328 0.6977 0.41559 0.0
H71 H 0.06633 0.70868 0.3919 0.0
Co72 Co 0.99347 0.6998 0.37068 0.0
C73 C 0.91642 0.71049 0.37637 0.0
O74 O 0.9084 0.68374 0.36469 0.0
N75 N 0.97621 0.69842 0.3436 0.0
C76 C 0.95066 0.71396 0.31455 0.0
C77 C 0.96299 0.72575 0.33292 0.0
C78 C 0.97146 0.67022 0.33127 0.0
N79 N 0.95582 0.6789 0.31347 0.0
O80 O 0.9791 0.65293 0.37475 0.0
H81 H 0.96121 0.75248 0.33842 0.0
H82 H 0.97875 0.64363 0.33535 0.0
O83 O 0.94875 0.71799 0.37976 0.0
C84 C 0.00756 0.63497 0.37352 0.0
O85 O 0.0374 0.65096 0.36878 0.0
N86 N 0.01118 0.74514 0.36694 0.0
C87 C 0.06127 0.79658 0.37463 0.0
C88 C 0.02783 0.79807 0.38394 0.0
C89 C 0.00286 0.77205 0.37979 0.0
C90 C 0.04167 0.74592 0.3558 0.0
C91 C 0.06724 0.77173 0.35936 0.0
H92 H 0.9792 0.77111 0.389 0.0
H93 H 0.04819 0.72395 0.34609 0.0
H94 H 0.9649 0.69387 0.41692 0.0
H95 H 0.07241 0.70857 0.43176 0.0
H96 H 0.93746 0.72986 0.30323 0.0
H97 H 0.02237 0.81706 0.39576 0.0
H98 H 0.09288 0.76973 0.35196 0.0
C99 C 0.31543 0.03888 0.44558 0.0
C100 C 0.31435 0.04567 0.46601 0.0
N101 N 0.30838 0.01527 0.47614 0.0
N102 N 0.31025 0.0043 0.44245 0.0
C103 C 0.30616 0.9905 0.46133 0.0
H104 H 0.32029 0.05792 0.43368 0.0
Co105 Co 0.3115 0.98312 0.41644 0.0
C106 C 0.28281 0.91319 0.42354 0.0
O107 O 0.31296 0.89927 0.41747 0.0
N108 N 0.31286 0.96123 0.39011 0.0
C109 C 0.29301 0.93581 0.36197 0.0
C110 C 0.28352 0.95204 0.37972 0.0
C111 C 0.3401 0.94987 0.37812 0.0
N112 N 0.32873 0.93405 0.36083 0.0
O113 O 0.35297 0.95909 0.42436 0.0
H114 H 0.25658 0.95643 0.38487 0.0
H115 H 0.36773 0.95232 0.38222 0.0
O116 O 0.28041 0.94641 0.42554 0.0
C117 C 0.37632 0.98232 0.42039 0.0
O118 O 0.36693 0.01038 0.41003 0.0
N119 N 0.2727 0.01052 0.4088 0.0
C120 C 0.22575 0.06594 0.40185 0.0
C121 C 0.21904 0.04113 0.41723 0.0
C122 C 0.2428 0.01346 0.42041 0.0
C123 C 0.27892 0.03331 0.39326 0.0
C124 C 0.2554 0.06073 0.38923 0.0
H125 H 0.23874 -0.00371 0.43327 0.0
H126 H 0.30321 0.03126 0.38455 0.0
H127 H 0.30178 0.96278 0.46408 0.0
H128 H 0.31867 0.07118 0.47276 0.0
H129 H 0.27461 0.92618 0.35076 0.0
H130 H 0.19698 0.04422 0.42763 0.0
H131 H 0.26133 0.07852 0.37685 0.0
C132 C 0.93834 0.70442 0.61123 0.0
C133 C 0.93372 0.70614 0.59062 0.0
N134 N 0.96378 0.69516 0.58151 0.0
N135 N 0.97151 0.69306 0.6154 0.0
C136 C 0.98593 0.68659 0.59688 0.0
H137 H 0.9184 0.71088 0.62242 0.0
Co138 Co 0.99097 0.68519 0.6418 0.0
C139 C 0.04632 0.73433 0.62307 0.0
O140 O 0.0288 0.74353 0.60675 0.0
N141 N 0.01091 0.67746 0.66803 0.0
C142 C 0.03938 0.69095 0.69649 0.0
C143 C 0.02295 0.70413 0.67962 0.0
C144 C 0.02031 0.64796 0.67851 0.0
N145 N 0.03797 0.6556 0.69588 0.0
O146 O 0.01281 0.64374 0.63213 0.0
H147 H 0.02118 0.73171 0.67568 0.0
H148 H 0.01584 0.62149 0.6731 0.0
O149 O 0.03256 0.7131 0.63585 0.0
C150 C 0.9863 0.62297 0.63139 0.0
O151 O 0.95543 0.63392 0.63832 0.0
N152 N 0.96559 0.72357 0.65173 0.0
C153 C 0.9098 0.76847 0.66083 0.0
C154 C 0.93966 0.78112 0.65036 0.0
C155 C 0.96748 0.75798 0.64578 0.0
C156 C 0.93813 0.71187 0.66339 0.0
C157 C 0.90982 0.73387 0.66807 0.0
H158 H 0.98884 0.76717 0.6363 0.0
H159 H 0.93691 0.68443 0.66773 0.0
H160 H 0.01265 0.67674 0.59474 0.0
H161 H 0.90982 0.71451 0.58295 0.0
H162 H 0.05209 0.70628 0.7082 0.0
H163 H 0.94029 0.80779 0.64453 0.0
H164 H 0.88724 0.72341 0.67632 0.0
C165 C 0.34536 0.96221 0.65589 0.0
C166 C 0.34799 0.96302 0.63518 0.0
N167 N 0.32301 0.98496 0.62792 0.0
N168 N 0.31907 0.98375 0.66205 0.0
C169 C 0.30553 -0.00283 0.64455 0.0
H170 H 0.36182 0.94684 0.66597 0.0
Co171 Co 0.31083 0.98828 0.69016 0.0
C172 C 0.25558 0.04045 0.69641 0.0
O173 O 0.24232 0.01962 0.71044 0.0
N174 N 0.3049 -0.00776 0.71931 0.0
C175 C 0.30019 0.97967 0.75229 0.0
C176 C 0.29313 0.96826 0.73292 0.0
C177 C 0.31848 0.01831 0.73113 0.0
N178 N 0.31668 0.01107 0.75123 0.0
O179 O 0.35199 0.01557 0.69198 0.0
H180 H 0.28159 0.94312 0.72934 0.0
H181 H 0.33082 0.04175 0.72501 0.0
O182 O 0.2829 0.03087 0.68627 0.0
C183 C 0.37698 -0.00173 0.70013 0.0
O184 O 0.37112 0.9658 0.7062 0.0
N185 N 0.27166 0.95844 0.68738 0.0
C186 C 0.22508 0.9049 0.67641 0.0
C187 C 0.21731 0.94008 0.67182 0.0
C188 C 0.24139 0.96638 0.67696 0.0
C189 C 0.27983 0.92427 0.69163 0.0
C190 C 0.25671 0.89708 0.68653 0.0
H191 H 0.23656 -0.00749 0.67123 0.0
H192 H 0.30523 0.91801 0.69833 0.0
H193 H 0.28385 0.01586 0.64401 0.0
H194 H 0.36675 0.94829 0.62607 0.0
H195 H 0.29531 0.96484 0.76603 0.0
H196 H 0.19388 0.94697 0.66322 0.0
H197 H 0.26395 0.87014 0.69 0.0
C198 C 0.04509 0.32165 0.61777 0.0
C199 C 0.0492 0.32288 0.59712 0.0
N200 N 0.01842 0.3133 0.58843 0.0
N201 N 0.01188 0.31116 0.62247 0.0
C202 C -0.00386 0.30617 0.60418 0.0
H203 H 0.0649 0.32898 0.62877 0.0
Co204 Co -0.00409 0.31148 0.64985 0.0
C205 C 0.93308 0.26701 0.63773 0.0
O206 O 0.91524 0.29118 0.62779 0.0
N207 N 0.97995 0.31232 0.67763 0.0
C208 C 0.96617 0.29291 0.7086 0.0
C209 C 0.98101 0.28431 0.69025 0.0
C210 C 0.96405 0.33787 0.68899 0.0
N211 N 0.95519 0.32663 0.70793 0.0
O212 O 0.96253 0.34599 0.64287 0.0
H213 H 0.99178 0.25882 0.68642 0.0
H214 H 0.95812 0.36395 0.68338 0.0
O215 O 0.96298 0.27424 0.64548 0.0
C216 C 0.98031 0.37418 0.64446 0.0
O217 O 0.01259 0.37282 0.65188 0.0
N218 N 0.03132 0.27912 0.65625 0.0
C219 C 0.09048 0.23687 0.66314 0.0
C220 C 0.06184 0.22448 0.65166 0.0
C221 C 0.03278 0.24619 0.6481 0.0
C222 C 0.05858 0.29163 0.66763 0.0
C223 C 0.0885 0.2709 0.6713 0.0
H224 H 0.01201 0.23672 0.63831 0.0
H225 H 0.05742 0.31821 0.67342 0.0
H226 H 0.96859 0.29904 0.60236 0.0
H227 H 0.07307 0.33063 0.58909 0.0
H228 H 0.96384 0.27546 0.72151 0.0
H229 H 0.06186 0.19823 0.64532 0.0
H230 H 0.11015 0.28176 0.68001 0.0
C231 C 0.70589 0.05131 0.6624 0.0
C232 C 0.70597 0.05753 0.64188 0.0
N233 N 0.69884 0.02716 0.63213 0.0
N234 N 0.69901 0.01707 0.66591 0.0
C235 C 0.69466 0.00301 0.64718 0.0
H236 H 0.71147 0.0704 0.67408 0.0
Co237 Co 0.69858 -0.00389 0.69205 0.0
C238 C 0.69819 0.92058 0.68314 0.0
O239 O 0.67201 0.91455 0.69588 0.0
N240 N 0.69744 0.97457 0.71852 0.0
C241 C 0.71187 0.94026 0.74472 0.0
C242 C 0.72366 0.9552 0.72687 0.0
C243 C 0.66994 0.97104 0.73189 0.0
N244 N 0.67787 0.94996 0.74792 0.0
O245 O 0.64996 0.98914 0.68951 0.0
H246 H 0.74942 0.95091 0.72001 0.0
H247 H 0.64391 0.98219 0.7295 0.0
O248 O 0.70944 0.95171 0.68032 0.0
C249 C 0.63556 0.01814 0.69455 0.0
O250 O 0.65591 0.04399 0.7008 0.0
N251 N 0.74676 0.00647 0.69441 0.0
C252 C 0.80415 0.05103 0.68772 0.0
C253 C 0.79859 0.02164 0.67523 0.0
C254 C 0.77 -0.00077 0.67905 0.0
C255 C 0.75428 0.03181 0.70823 0.0
C256 C 0.78346 0.0539 0.70544 0.0
H257 H 0.76379 0.97946 0.66789 0.0
H258 H 0.73547 0.03747 0.72021 0.0
H259 H 0.68873 0.97553 0.64468 0.0
H260 H 0.71196 0.08252 0.63477 0.0
H261 H 0.72717 0.92301 0.7544 0.0
H262 H 0.81355 0.01785 0.66139 0.0
H263 H 0.78764 0.07498 0.71616 0.0
C264 C 0.51838 0.74929 0.94387 0.0
C265 C 0.51665 0.74261 0.96436 0.0
N266 N 0.50098 0.77017 0.97359 0.0
N267 N 0.50389 0.78103 0.93983 0.0
C268 C 0.49337 0.79296 0.95834 0.0
H269 H 0.53006 0.73201 0.93274 0.0
Co270 Co 0.50109 0.80359 0.91386 0.0
C271 C 0.54968 0.76499 0.88661 0.0
O272 O 0.52715 0.7697 0.87171 0.0
N273 N 0.49891 0.82759 0.88802 0.0
C274 C 0.48245 0.84872 0.8579 0.0
C275 C 0.47127 0.83166 0.87525 0.0
C276 C 0.52635 0.8438 0.87815 0.0
N277 N 0.51728 0.85616 0.85956 0.0
O278 O 0.53057 0.83993 0.92322 0.0
H279 H 0.44462 0.82239 0.87796 0.0
H280 H 0.55308 0.84471 0.88407 0.0
O281 O 0.5423 0.77669 0.9043 0.0
C282 C 0.50839 0.8617 0.93056 0.0
O283 O 0.47432 0.85456 0.92947 0.0
N284 N 0.46844 0.76888 0.90573 0.0
C285 C 0.412 0.72228 0.89972 0.0
C286 C 0.44731 0.71114 0.89732 0.0
C287 C 0.47514 0.73457 0.90083 0.0
C288 C 0.43436 0.77981 0.90872 0.0
C289 C 0.40576 0.75717 0.90559 0.0
H290 H 0.50173 0.72431 0.90029 0.0
H291 H 0.42935 0.80638 0.9138 0.0
H292 H 0.48034 0.81792 0.96073 0.0
H293 H 0.52723 0.71959 0.9719 0.0
H294 H 0.46606 0.85488 0.84495 0.0
H295 H 0.45355 0.6844 0.89295 0.0
H296 H 0.37907 0.76676 0.90824 0.0
C297 C 0.17176 0.43827 0.8973 0.0
C298 C 0.17045 0.43588 0.918 0.0
N299 N 0.18008 0.46707 0.92588 0.0
N300 N 0.18234 0.47078 0.89175 0.0
C301 C 0.18739 0.48791 0.90959 0.0
H302 H 0.16459 0.41768 0.88683 0.0
Co303 Co 0.18297 0.48267 0.8639 0.0
C304 C 0.23565 0.53849 0.85841 0.0
O305 O 0.24592 0.52225 0.8419 0.0
N306 N 0.18132 0.49357 0.83503 0.0
C307 C 0.18892 0.49143 0.80148 0.0
C308 C 0.20032 0.47884 0.81983 0.0
C309 C 0.15827 0.51523 0.82505 0.0
N310 N 0.16199 0.51419 0.80454 0.0
O311 O 0.14068 0.50732 0.86799 0.0
H312 H 0.22183 0.46037 0.82164 0.0
H313 H 0.13846 0.53094 0.83268 0.0
O314 O 0.21067 0.52533 0.86922 0.0
C315 C 0.11611 0.48547 0.86429 0.0
O316 O 0.1243 0.45461 0.85668 0.0
N317 N 0.22324 0.45439 0.86108 0.0
C318 C 0.2664 0.39713 0.87014 0.0
C319 C 0.27613 0.43111 0.87614 0.0
C320 C 0.25378 0.45942 0.87179 0.0
C321 C 0.21472 0.42181 0.85401 0.0
C322 C 0.23609 0.3928 0.85823 0.0
H323 H 0.25917 0.48416 0.87911 0.0
H324 H 0.18942 0.41776 0.84669 0.0
H325 H 0.19495 0.51531 0.91061 0.0
H326 H 0.16272 0.41283 0.92662 0.0
H327 H 0.20016 0.48415 0.787 0.0
H328 H 0.29883 0.43525 0.88585 0.0
H329 H 0.22762 0.36688 0.85348 0.0
C330 C 0.52706 0.19034 0.95089 0.0
C331 C 0.53306 0.19151 0.97138 0.0
N332 N 0.50327 0.18141 0.98112 0.0
N333 N 0.49326 0.18036 0.94738 0.0
C334 C 0.47984 0.17386 0.96618 0.0
H335 H 0.54632 0.19654 0.93923 0.0
Co336 Co 0.47318 0.17511 0.92087 0.0
C337 C 0.41119 0.21585 0.94091 0.0
O338 O 0.42275 0.22186 0.95929 0.0
N339 N 0.45255 0.16977 0.89445 0.0
C340 C 0.42413 0.18559 0.86631 0.0
C341 C 0.44024 0.19732 0.88357 0.0
C342 C 0.44322 0.14119 0.8832 0.0
N343 N 0.42557 0.15017 0.86597 0.0
O344 O 0.45494 0.13116 0.92883 0.0
H345 H 0.44177 0.22456 0.88819 0.0
H346 H 0.44803 0.11432 0.88791 0.0
O347 O 0.43044 0.19931 0.92822 0.0
C348 C 0.48289 0.11241 0.92744 0.0
O349 O 0.51193 0.12647 0.91984 0.0
N350 N 0.49493 0.217 0.91276 0.0
C351 C 0.54531 0.26874 0.90568 0.0
C352 C 0.51812 0.27429 0.91986 0.0
C353 C 0.49269 0.24807 0.92304 0.0
C354 C 0.5201 0.21211 0.89816 0.0
C355 C 0.5453 0.23798 0.89414 0.0
H356 H 0.47361 0.25137 0.93509 0.0
H357 H 0.52218 0.18697 0.89062 0.0
H358 H 0.45323 0.16419 0.96887 0.0
H359 H 0.55769 0.19899 0.97856 0.0
H360 H 0.41197 0.20216 0.85493 0.0
H361 H 0.5178 0.29772 0.92917 0.0
H362 H 0.56631 0.23274 0.8833 0.0
C363 C 0.79804 0.53038 0.91183 0.0
C364 C 0.79856 0.53481 0.9325 0.0
N365 N 0.79716 0.50288 0.9414 0.0
N366 N 0.79639 0.49576 0.90753 0.0
C367 C 0.79574 0.47962 0.92589 0.0
H368 H 0.79946 0.55109 0.90059 0.0
Co369 Co 0.79863 0.47634 0.8811 0.0
C370 C 0.77171 0.40494 0.88941 0.0
O371 O 0.8002 0.39014 0.88166 0.0
N372 N 0.80106 0.45652 0.85459 0.0
C373 C 0.78416 0.43143 0.82578 0.0
C374 C 0.77302 0.44387 0.84427 0.0
C375 C 0.82914 0.45131 0.84189 0.0
N376 N 0.81955 0.43608 0.82412 0.0
O377 O 0.84077 0.45282 0.88835 0.0
H378 H 0.74604 0.44343 0.84994 0.0
H379 H 0.85606 0.45874 0.84554 0.0
O380 O 0.76917 0.43829 0.88996 0.0
C381 C 0.86317 0.47781 0.88723 0.0
O382 O 0.85273 0.50851 0.88018 0.0
N383 N 0.75907 0.50274 0.87391 0.0
C384 C 0.71121 0.55776 0.8691 0.0
C385 C 0.70376 0.52998 0.88251 0.0
C386 C 0.72821 0.50272 0.88478 0.0
C387 C 0.76572 0.52824 0.85988 0.0
C388 C 0.74197 0.55594 0.85711 0.0
H389 H 0.72382 0.48359 0.8966 0.0
H390 H 0.79078 0.52839 0.85182 0.0
H391 H 0.79553 0.45133 0.92784 0.0
H392 H 0.79995 0.5597 0.94039 0.0
H393 H 0.76738 0.41912 0.81459 0.0
H394 H 0.68067 0.53068 0.89233 0.0
H395 H 0.74853 0.57669 0.84646 0.0
C396 C 0.44274 0.19198 0.163 0.0
C397 C 0.43694 0.19067 0.14246 0.0
N398 N 0.46833 0.18597 0.13297 0.0
N399 N 0.47769 0.18831 0.16669 0.0
C400 C 0.49266 0.18434 0.14807 0.0
H401 H 0.42277 0.19612 0.17456 0.0
Co402 Co 0.49721 0.19141 0.19303 0.0
C403 C 0.57369 0.19002 0.1861 0.0
O404 O 0.57718 0.1639 0.19902 0.0
N405 N 0.51692 0.19386 0.21984 0.0
C406 C 0.54999 0.21131 0.24591 0.0
C407 C 0.53597 0.22083 0.22743 0.0
C408 C 0.51954 0.16835 0.23432 0.0
N409 N 0.53987 0.17811 0.25028 0.0
O410 O 0.50583 0.14321 0.19231 0.0
H411 H 0.54081 0.24541 0.2196 0.0
H412 H 0.50844 0.1423 0.23279 0.0
O413 O 0.543 0.20189 0.1819 0.0
C414 C 0.47752 0.12733 0.19748 0.0
O415 O 0.44996 0.14598 0.20337 0.0
N416 N 0.48542 0.23909 0.19337 0.0
C417 C 0.43987 0.29398 0.18318 0.0
C418 C 0.4708 0.28758 0.17175 0.0
C419 C 0.49365 0.26036 0.17733 0.0
C420 C 0.45834 0.24757 0.20613 0.0
C421 C 0.43568 0.27554 0.20157 0.0
H422 H 0.5148 0.25338 0.167 0.0
H423 H 0.45191 0.2303 0.21866 0.0
H424 H 0.52092 0.18148 0.14557 0.0
H425 H 0.41144 0.19305 0.1351 0.0
H426 H 0.56698 0.2275 0.25521 0.0
H427 H 0.4757 0.30074 0.15748 0.0
H428 H 0.41338 0.28051 0.21153 0.0
C429 C 0.81455 0.43292 0.1216 0.0
C430 C 0.81375 0.42783 0.101 0.0
N431 N 0.80545 0.4586 0.09203 0.0
N432 N 0.80684 0.46678 0.12584 0.0
C433 C 0.80124 0.48177 0.10743 0.0
H434 H 0.82168 0.41336 0.1328 0.0
Co435 Co 0.81104 0.48572 0.15229 0.0
C436 C 0.77476 0.55068 0.13799 0.0
O437 O 0.80207 0.56254 0.12762 0.0
N438 N 0.81538 0.50498 0.17895 0.0
C439 C 0.79889 0.52531 0.20919 0.0
C440 C 0.788 0.50806 0.1921 0.0
C441 C 0.84286 0.52097 0.18863 0.0
N442 N 0.83342 0.53382 0.20709 0.0
O443 O 0.8485 0.51416 0.14286 0.0
H444 H 0.76121 0.49924 0.18929 0.0
H445 H 0.86894 0.52434 0.18201 0.0
O446 O 0.77617 0.52124 0.14715 0.0
C447 C 0.87462 0.49307 0.14389 0.0
O448 O 0.87029 0.46253 0.15294 0.0
N449 N 0.77646 0.45439 0.16121 0.0
C450 C 0.73467 0.39591 0.16942 0.0
C451 C 0.72058 0.42471 0.15882 0.0
C452 C 0.74219 0.4537 0.15458 0.0
C453 C 0.78997 0.42737 0.17237 0.0
C454 C 0.76952 0.39771 0.17659 0.0
H455 H 0.73197 0.47452 0.14508 0.0
H456 H 0.81744 0.42809 0.17704 0.0
H457 H 0.79596 0.50938 0.10513 0.0
H458 H 0.81946 0.40346 0.09318 0.0
H459 H 0.78231 0.53132 0.22214 0.0
H460 H 0.69385 0.42389 0.15286 0.0
H461 H 0.78117 0.37591 0.18483 0.0
C462 C 0.53391 0.82274 0.15323 0.0
C463 C 0.53732 0.82179 0.13257 0.0
N464 N 0.50961 0.80401 0.12482 0.0
N465 N 0.50412 0.80579 0.15891 0.0
C466 C 0.48955 0.79474 0.14119 0.0
H467 H 0.55243 0.83466 0.16362 0.0
Co468 Co 0.49438 0.80128 0.18691 0.0
C469 C 0.43435 0.75414 0.19226 0.0
O470 O 0.45027 0.74151 0.20836 0.0
N471 N 0.48554 0.79892 0.21607 0.0
C472 C 0.49108 0.79131 0.24951 0.0
C473 C 0.50402 0.78212 0.23074 0.0
C474 C 0.46105 0.81795 0.22675 0.0
N475 N 0.46412 0.81419 0.24713 0.0
O476 O 0.472 0.84513 0.18633 0.0
H477 H 0.52597 0.76443 0.22838 0.0
H478 H 0.44149 0.83477 0.2197 0.0
O479 O 0.44941 0.77791 0.18153 0.0
C480 C 0.49335 0.86761 0.19354 0.0
O481 O 0.52482 0.85717 0.19968 0.0
N482 N 0.51988 0.75912 0.1866 0.0
C483 C 0.57186 0.70959 0.1765 0.0
C484 C 0.53663 0.70543 0.17001 0.0
C485 C 0.51105 0.73055 0.17515 0.0
C486 C 0.55383 0.76347 0.19308 0.0
C487 C 0.57984 0.73849 0.18888 0.0
H488 H 0.48524 0.72848 0.16825 0.0
H489 H 0.56115 0.78745 0.20079 0.0
H490 H 0.46547 0.77933 0.14032 0.0
H491 H 0.55875 0.83344 0.12389 0.0
H492 H 0.50178 0.78261 0.26386 0.0
H493 H 0.52924 0.68434 0.15989 0.0
H494 H 0.60636 0.7428 0.1946 0.0
C495 C 0.18204 0.53349 0.10677 0.0
C496 C 0.18235 0.53836 0.08618 0.0
N497 N 0.1852 0.50674 0.07716 0.0
N498 N 0.18509 0.49892 0.11114 0.0
C499 C 0.18692 0.48317 0.09267 0.0
H500 H 0.17878 0.55401 0.11793 0.0
Co501 Co 0.1809 0.48184 0.13836 0.0
C502 C 0.22578 0.41861 0.12602 0.0
O503 O 0.20298 0.40188 0.11455 0.0
N504 N 0.17649 0.46486 0.1658 0.0
C505 C 0.19354 0.44846 0.19672 0.0
C506 C 0.20432 0.46233 0.17854 0.0
C507 C 0.14868 0.45212 0.17695 0.0
N508 N 0.15851 0.44164 0.19588 0.0
O509 O 0.14458 0.45108 0.12996 0.0
H510 H 0.23111 0.47037 0.175 0.0
H511 H 0.12194 0.44983 0.17119 0.0
O512 O 0.21722 0.44753 0.13432 0.0
C513 C 0.11858 0.47234 0.12882 0.0
O514 O 0.12266 0.50482 0.1352 0.0
N515 N 0.21484 0.51458 0.1463 0.0
C516 C 0.25878 0.57135 0.15474 0.0
C517 C 0.27041 0.5442 0.14199 0.0
C518 C 0.24796 0.51606 0.13787 0.0
C519 C 0.20314 0.54046 0.15889 0.0
C520 C 0.22483 0.56904 0.16346 0.0
H521 H 0.25658 0.49645 0.12711 0.0
H522 H 0.17645 0.53931 0.16497 0.0
H523 H 0.18776 0.45498 0.09058 0.0
H524 H 0.18024 0.56342 0.07846 0.0
H525 H 0.21043 0.44409 0.2097 0.0
H526 H 0.29611 0.54533 0.13461 0.0
H527 H 0.21496 0.58928 0.17353 0.0
C528 C 0.03747 0.58317 0.38805 0.0
C529 C 0.00831 0.59729 0.37776 0.0
C530 C 0.04084 0.54687 0.39079 0.0
C531 C 0.01492 0.5244 0.38246 0.0
C532 C 0.98507 0.53865 0.37229 0.0
C533 C 0.98184 0.57521 0.37032 0.0
C534 C 0.07236 0.53256 0.40224 0.0
C535 C 0.95723 0.51527 0.36294 0.0
C536 C 0.0372 0.43057 0.36875 0.0
C537 C 0.01774 0.41246 0.38347 0.0
C538 C 0.03782 0.4674 0.36868 0.0
C539 C 0.01919 0.4859 0.38401 0.0
C540 C 0.00208 0.46738 0.39986 0.0
C541 C 0.00103 0.43066 0.39918 0.0
C542 C 0.05591 0.48639 0.35138 0.0
C543 C 0.98291 0.48629 0.41676 0.0
H544 H 0.05775 0.60061 0.3939 0.0
H545 H 0.95956 0.58645 0.3622 0.0
H546 H 0.06328 0.51478 0.41457 0.0
H547 H 0.08934 0.51676 0.39194 0.0
H548 H 0.08879 0.55379 0.40892 0.0
H549 H 0.93598 0.5306 0.35531 0.0
H550 H 0.96979 0.49756 0.35165 0.0
H551 H 0.94488 0.49839 0.37474 0.0
H552 H 0.04956 0.41609 0.35647 0.0
H553 H 0.98578 0.41618 0.41042 0.0
H554 H 0.074 0.50699 0.3572 0.0
H555 H 0.03563 0.49975 0.34194 0.0
H556 H 0.07138 0.4682 0.34158 0.0
H557 H -0.00033 0.50769 0.42294 0.0
H558 H 0.97547 0.46817 0.42931 0.0
H559 H 0.95834 0.49856 0.41079 0.0
C560 C 0.57197 0.01109 0.46056 0.0
C561 C 0.58679 0.02948 0.44417 0.0
C562 C 0.53532 0.00591 0.46188 0.0
C563 C 0.51347 0.01964 0.44644 0.0
C564 C 0.52793 0.04269 0.43163 0.0
C565 C 0.5648 0.04742 0.43067 0.0
C566 C 0.52085 0.98191 0.47818 0.0
C567 C 0.50515 0.05867 0.41526 0.0
C568 C 0.43912 0.96539 0.42451 0.0
C569 C 0.40965 0.98407 0.43141 0.0
C570 C 0.47331 0.97538 0.43047 0.0
C571 C 0.47759 0.00486 0.44342 0.0
C572 C 0.44754 0.02183 0.45169 0.0
C573 C 0.41379 0.01122 0.44549 0.0
C574 C 0.50488 0.95618 0.42166 0.0
C575 C 0.4509 0.05309 0.46561 0.0
H576 H 0.58932 -0.00258 0.47104 0.0
H577 H 0.57645 0.06147 0.41797 0.0
H578 H 0.49459 0.99113 0.48367 0.0
H579 H 0.51726 0.95513 0.47184 0.0
H580 H 0.53924 0.97998 0.49125 0.0
H581 H 0.51919 0.08013 0.40704 0.0
H582 H 0.49795 0.03801 0.40417 0.0
H583 H 0.48015 0.06928 0.42174 0.0
H584 H 0.43561 0.94483 0.41334 0.0
H585 H 0.39071 0.02584 0.45056 0.0
H586 H 0.52371 0.94876 0.43382 0.0
H587 H 0.5192 0.97378 0.41096 0.0
H588 H 0.49697 0.932 0.41341 0.0
H589 H 0.47283 0.04938 0.47656 0.0
H590 H 0.42589 0.058 0.47413 0.0
H591 H 0.45701 0.07689 0.45647 0.0
C592 C 0.97947 0.41543 0.61601 0.0
C593 C 0.9685 0.40716 0.63571 0.0
C594 C 0.98144 0.45054 0.60963 0.0
C595 C 0.97239 0.47744 0.62346 0.0
C596 C 0.95814 0.46877 0.64276 0.0
C597 C 0.95663 0.4335 0.64871 0.0
C598 C -0.00365 0.45871 0.58891 0.0
C599 C 0.94759 0.49678 0.65783 0.0
C600 C 0.01683 0.56531 0.62839 0.0
C601 C 0.98848 0.58726 0.62335 0.0
C602 C 0.01346 0.52876 0.62633 0.0
C603 C 0.98111 0.51456 0.61905 0.0
C604 C 0.95448 0.53708 0.61149 0.0
C605 C 0.95847 0.57335 0.61381 0.0
C606 C 0.04279 0.50535 0.63412 0.0
C607 C 0.92003 0.52297 0.60322 0.0
H608 H 0.98943 0.3947 0.60624 0.0
H609 H 0.94893 0.42673 0.66408 0.0
H610 H 0.98277 0.48166 0.58198 0.0
H611 H 0.0249 0.46537 0.59031 0.0
H612 H 0.99399 0.43581 0.57858 0.0
H613 H 0.93413 0.48552 0.67137 0.0
H614 H 0.97159 0.51114 0.66291 0.0
H615 H 0.92955 0.51623 0.65069 0.0
H616 H 0.04005 0.5763 0.63567 0.0
H617 H 0.93684 0.5907 0.60955 0.0
H618 H 0.04753 0.48307 0.62364 0.0
H619 H 0.03483 0.49415 0.649 0.0
H620 H 0.06802 0.52003 0.63611 0.0
H621 H 0.92464 0.49929 0.59378 0.0
H622 H 0.90587 0.54305 0.59403 0.0
H623 H 0.9025 0.51517 0.61601 0.0
C624 C 0.58163 0.05155 0.70438 0.0
C625 C 0.59695 0.02232 0.6948 0.0
C626 C 0.54478 0.05494 0.70584 0.0
C627 C 0.52313 0.02854 0.69741 0.0
C628 C 0.53845 -0.00027 0.68699 0.0
C629 C 0.57534 -0.00312 0.68589 0.0
C630 C 0.52914 0.08582 0.71715 0.0
C631 C 0.51591 0.97124 0.67763 0.0
C632 C 0.43445 0.00146 0.71756 0.0
C633 C 0.41239 0.01319 0.70197 0.0
C634 C 0.47056 0.0094 0.71732 0.0
C635 C 0.48458 0.02892 0.70088 0.0
C636 C 0.46179 0.04362 0.68614 0.0
C637 C 0.42557 0.03571 0.68696 0.0
C638 C 0.49409 -0.00595 0.73358 0.0
C639 C 0.47599 0.0647 0.66848 0.0
H640 H 0.59838 0.07134 0.71125 0.0
H641 H 0.58723 0.9745 0.6783 0.0
H642 H 0.50735 0.09805 0.70833 0.0
H643 H 0.51757 0.07654 0.73168 0.0
H644 H 0.54935 0.10625 0.72049 0.0
H645 H 0.53197 0.9521 0.6688 0.0
H646 H 0.50151 0.95669 0.68972 0.0
H647 H 0.49573 0.98303 0.66748 0.0
H648 H 0.42377 0.98463 0.72939 0.0
H649 H 0.40818 0.04485 0.67499 0.0
H650 H 0.51353 0.01384 0.73891 0.0
H651 H 0.50932 0.97158 0.72726 0.0
H652 H 0.4785 0.98443 0.7468 0.0
H653 H 0.49672 0.08344 0.67348 0.0
H654 H 0.45463 0.0796 0.66069 0.0
H655 H 0.48842 0.04657 0.65738 0.0
C656 C 0.53571 0.9193 0.92412 0.0
C657 C 0.51856 0.8965 0.93754 0.0
C658 C 0.53265 0.95574 0.92664 0.0
C659 C 0.51252 0.96898 0.94314 0.0
C660 C 0.49924 0.94583 0.95811 0.0
C661 C 0.5021 0.9096 0.95499 0.0
C662 C 0.5474 0.97976 0.91041 0.0
C663 C 0.47871 0.95904 0.97624 0.0
C664 C 0.51474 0.06767 0.94709 0.0
C665 C 0.48504 0.07679 0.93552 0.0
C666 C 0.52273 0.03245 0.95109 0.0
C667 C 0.50083 0.00606 0.94286 0.0
C668 C 0.4693 0.01532 0.93241 0.0
C669 C 0.46157 0.05091 0.92899 0.0
C670 C 0.55592 0.02358 0.9628 0.0
C671 C 0.44524 0.98769 0.92347 0.0
H672 H 0.548 0.90884 0.91052 0.0
H673 H 0.48886 0.89156 0.9653 0.0
H674 H 0.52519 0.99082 0.90141 0.0
H675 H 0.56181 0.00214 0.91728 0.0
H676 H 0.5657 0.9657 0.89996 0.0
H677 H 0.47717 0.93883 0.9884 0.0
H678 H 0.49095 0.98322 0.98247 0.0
H679 H 0.45126 0.96574 0.97157 0.0
H680 H 0.53267 0.08811 0.9522 0.0
H681 H 0.43881 0.05833 0.91992 0.0
H682 H 0.57701 0.01503 0.95212 0.0
H683 H 0.55102 0.00156 0.97351 0.0
H684 H 0.56593 0.04658 0.9714 0.0
H685 H 0.45958 0.9734 0.91129 0.0
H686 H 0.42068 -0.00074 0.91699 0.0
H687 H 0.43764 0.9681 0.93518 0.0
C688 C 0.91772 0.50336 0.90086 0.0
C689 C 0.90025 0.47387 0.89309 0.0
C690 C 0.95468 0.50503 0.90098 0.0
C691 C 0.97423 0.47645 0.8931 0.0
C692 C 0.95673 0.44484 0.88768 0.0
C693 C 0.91953 0.44391 0.88772 0.0
C694 C 0.97237 0.53899 0.90713 0.0
C695 C 0.97701 0.41353 0.87971 0.0
C696 C 0.05281 0.4981 0.85985 0.0
C697 C 0.08088 0.49012 0.87271 0.0
C698 C 0.01781 0.49476 0.86664 0.0
C699 C 0.01122 0.48234 0.88658 0.0
C700 C 0.03975 0.47535 0.89983 0.0
C701 C 0.07451 0.47945 0.89268 0.0
C702 C 0.98793 0.50318 0.85221 0.0
C703 C 0.0337 0.46169 0.92105 0.0
H704 H 0.90245 0.52626 0.9054 0.0
H705 H 0.90576 0.42109 0.88183 0.0
H706 H -0.00311 0.53382 0.91588 0.0
H707 H 0.98006 0.55392 0.89332 0.0
H708 H 0.95441 0.5558 0.91635 0.0
H709 H 0.96064 0.38923 0.88 0.0
H710 H 0.98518 0.41872 0.86382 0.0
H711 H 0.00145 0.40899 0.88867 0.0
H712 H 0.05828 0.50564 0.84429 0.0
H713 H 0.0967 0.47249 0.90231 0.0
H714 H 0.96939 0.52238 0.85919 0.0
H715 H 0.9726 0.47895 0.84893 0.0
H716 H -0.00227 0.51428 0.83764 0.0
H717 H 0.01272 0.47705 0.92888 0.0
H718 H 0.05831 0.46255 0.93026 0.0
H719 H 0.0245 0.434 0.92032 0.0
C720 C 0.49804 0.92381 0.21175 0.0
C721 C 0.48302 0.9043 0.19605 0.0
C722 C 0.49236 0.95998 0.21305 0.0
C723 C 0.47172 0.97677 0.19804 0.0
C724 C 0.45466 0.95683 0.18287 0.0
C725 C 0.46032 0.92046 0.18216 0.0
C726 C 0.5103 0.98044 0.22971 0.0
C727 C 0.43256 0.97414 0.16663 0.0
C728 C 0.44766 0.07166 0.20732 0.0
C729 C 0.47549 0.0889 0.19723 0.0
C730 C 0.44553 0.03495 0.20739 0.0
C731 C 0.47167 0.01541 0.19694 0.0
C732 C 0.49939 0.03272 0.18637 0.0
C733 C 0.50109 0.0694 0.18676 0.0
C734 C 0.41597 0.01708 0.21902 0.0
C735 C 0.52761 0.01248 0.17497 0.0
H736 H 0.51502 0.91091 0.22273 0.0
H737 H 0.44868 0.90506 0.17009 0.0
H738 H 0.53212 -0.00348 0.22317 0.0
H739 H 0.49127 -0.00122 0.23702 0.0
H740 H 0.52165 0.96291 0.24152 0.0
H741 H 0.41758 0.9546 0.15756 0.0
H742 H 0.41351 -0.00694 0.17339 0.0
H743 H 0.45018 0.98922 0.15627 0.0
H744 H 0.42786 0.08682 0.21546 0.0
H745 H 0.52241 0.08281 0.17881 0.0
H746 H 0.42728 0.00136 0.23162 0.0
H747 H 0.40152 -0.00144 0.20906 0.0
H748 H 0.39668 0.03622 0.22542 0.0
H749 H 0.54331 -0.00368 0.18571 0.0
H750 H 0.54607 0.03008 0.16656 0.0
H751 H 0.5151 -0.0058 0.16404 0.0
C752 C 0.91192 0.47577 0.11525 0.0
C753 C 0.90661 0.49799 0.13187 0.0
C754 C 0.94616 0.46896 0.10798 0.0
C755 C 0.97534 0.4846 0.11783 0.0
C756 C 0.96958 0.51009 0.13319 0.0
C757 C 0.93501 0.51637 0.14013 0.0
C758 C 0.95101 0.44229 0.09132 0.0
C759 C 9e-05 0.52795 0.14379 0.0
C760 C 0.06156 0.44117 0.13054 0.0
C761 C 0.08467 0.46307 0.11984 0.0
C762 C 0.02482 0.44477 0.12806 0.0
C763 C 0.01168 0.47091 0.11464 0.0
C764 C 0.03521 0.48905 0.10162 0.0
C765 C 0.07173 0.485 0.10448 0.0
C766 C 0.00035 0.42416 0.14181 0.0
C767 C 0.02222 0.51625 0.0867 0.0
H768 H 0.88961 0.46135 0.10909 0.0
H769 H 0.93057 0.53309 0.15319 0.0
H770 H 0.97431 0.44862 0.08165 0.0
H771 H 0.95551 0.41597 0.09816 0.0
H772 H 0.92702 0.44067 0.08163 0.0
H773 H 0.99096 0.54964 0.15379 0.0
H774 H 0.01454 0.5084 0.15318 0.0
H775 H 0.01917 0.53882 0.13258 0.0
H776 H 0.07187 0.42443 0.14248 0.0
H777 H 0.09003 0.50184 0.09621 0.0
H778 H 0.97691 0.41459 0.13335 0.0
H779 H 0.99062 0.44155 0.15412 0.0
H780 H 0.01402 0.40126 0.1488 0.0
H781 H -0.00323 0.50813 0.07974 0.0
H782 H 0.04208 0.52102 0.07452 0.0
H783 H 0.01759 0.54146 0.09474 0.0
C784 C 0.05072 0.33004 0.27919 0.0
C785 C 0.05179 0.34554 0.2985 0.0
C786 C 0.06431 0.34731 0.2619 0.0
C787 C 0.07961 0.38122 0.26369 0.0
C788 C 0.07924 0.39781 0.28297 0.0
C789 C 0.0653 0.37989 0.30008 0.0
C790 C 0.0637 0.32845 0.24182 0.0
C791 C 0.09514 0.43388 0.28574 0.0
C792 C 0.1542 0.40332 0.22628 0.0
C793 C 0.13767 0.42568 0.21214 0.0
C794 C 0.13576 0.38926 0.24303 0.0
C795 C 0.09937 0.39727 0.24597 0.0
C796 C 0.08215 0.41933 0.2316 0.0
C797 C 0.10141 0.43318 0.21487 0.0
C798 C 0.15541 0.36564 0.25762 0.0
C799 C 0.04342 0.42853 0.234 0.0
H800 H 0.0397 0.30389 0.27761 0.0
H801 H 0.0664 0.3922 0.31483 0.0
H802 H 0.05253 0.34579 0.2299 0.0
H803 H 0.09122 0.3217 0.23719 0.0
H804 H 0.04787 0.30382 0.24246 0.0
H805 H 0.0893 0.44487 0.30096 0.0
H806 H 0.12437 0.43234 0.28378 0.0
H807 H 0.08493 0.45229 0.27406 0.0
H808 H 0.18189 0.39651 0.22422 0.0
H809 H 0.0883 0.45049 0.2042 0.0
H810 H 0.14292 0.33922 0.25797 0.0
H811 H 0.15373 0.37653 0.27316 0.0
H812 H 0.18386 0.36252 0.2535 0.0
H813 H 0.02721 0.40417 0.23435 0.0
H814 H 0.03372 0.44572 0.22156 0.0
H815 H 0.0391 0.44219 0.24863 0.0
C816 C 0.58412 0.16292 0.27682 0.0
C817 C 0.55122 0.15676 0.26746 0.0
C818 C 0.59589 0.14231 0.2933 0.0
C819 C 0.57426 0.11476 0.30097 0.0
C820 C 0.54085 0.10858 0.29174 0.0
C821 C 0.52989 0.12939 0.27509 0.0
C822 C 0.63193 0.14963 0.30225 0.0
C823 C 0.51666 0.07982 0.29942 0.0
C824 C 0.61938 0.03914 0.32962 0.0
C825 C 0.61394 0.04819 0.35003 0.0
C826 C 0.60663 0.06039 0.31368 0.0
C827 C 0.58736 0.09156 0.31802 0.0
C828 C 0.58155 0.10079 0.33861 0.0
C829 C 0.59514 0.07925 0.35432 0.0
C830 C 0.61421 0.04961 0.2921 0.0
C831 C 0.56083 0.13341 0.34407 0.0
H832 H 0.60121 0.18348 0.27096 0.0
H833 H 0.50436 0.12447 0.26818 0.0
H834 H 0.62935 0.15509 0.31868 0.0
H835 H 0.64915 0.1261 0.30062 0.0
H836 H 0.64533 0.17237 0.29488 0.0
H837 H 0.49092 0.07928 0.29129 0.0
H838 H 0.52977 0.05386 0.2976 0.0
H839 H 0.5114 0.08345 0.31583 0.0
H840 H 0.63431 0.01559 0.32605 0.0
H841 H 0.59051 0.08638 0.36998 0.0
H842 H 0.62947 0.07061 0.28426 0.0
H843 H 0.58896 0.04621 0.28375 0.0
H844 H 0.62954 0.02468 0.29119 0.0
H845 H 0.57454 0.15706 0.33803 0.0
H846 H 0.5575 0.13642 0.3607 0.0
H847 H 0.53418 0.13249 0.33699 0.0
C848 C 0.89142 0.55063 0.22249 0.0
C849 C 0.85433 0.55409 0.2214 0.0
C850 C 0.91136 0.56938 0.23702 0.0
C851 C 0.89391 0.59226 0.25083 0.0
C852 C 0.85659 0.59611 0.2496 0.0
C853 C 0.83745 0.57725 0.23496 0.0
C854 C 0.95108 0.56453 0.23771 0.0
C855 C 0.83669 0.62028 0.26379 0.0
C856 C 0.93395 0.6208 0.30143 0.0
C857 C 0.94394 0.65576 0.29737 0.0
C858 C 0.91914 0.5993 0.28624 0.0
C859 C 0.91424 0.61286 0.26639 0.0
C860 C 0.92576 0.64757 0.26202 0.0
C861 C 0.94031 0.66849 0.27748 0.0
C862 C 0.90724 0.56256 0.2917 0.0
C863 C 0.92146 0.66318 0.24112 0.0
H864 H 0.90482 0.53278 0.21223 0.0
H865 H 0.80903 0.58099 0.23408 0.0
H866 H 0.96451 0.59029 0.23571 0.0
H867 H 0.95897 0.55409 0.25273 0.0
H868 H 0.96081 0.54623 0.22582 0.0
H869 H 0.80759 0.61998 0.26112 0.0
H870 H 0.84166 0.61244 0.27972 0.0
H871 H 0.84637 0.64767 0.26193 0.0
H872 H 0.93633 0.61062 0.31669 0.0
H873 H 0.94851 0.69515 0.27402 0.0
H874 H 0.91773 0.54332 0.28058 0.0
H875 H 0.87784 0.56114 0.29114 0.0
H876 H 0.91601 0.55463 0.30709 0.0
H877 H 0.93265 0.64519 0.22954 0.0
H878 H 0.93463 0.68922 0.23964 0.0
H879 H 0.89282 0.66649 0.23775 0.0
C880 C 0.42852 0.86511 0.25985 0.0
C881 C 0.44477 0.83227 0.2632 0.0
C882 C 0.41075 0.88321 0.27561 0.0
C883 C 0.40906 0.86834 0.29534 0.0
C884 C 0.42554 0.83534 0.29882 0.0
C885 C 0.44293 0.81779 0.28281 0.0
C886 C 0.39354 0.91821 0.27108 0.0
C887 C 0.42455 0.81827 0.31949 0.0
C888 C 0.38544 0.92569 0.34148 0.0
C889 C 0.34937 0.91767 0.34462 0.0
C890 C 0.40511 0.91022 0.32549 0.0
C891 C 0.3885 0.88614 0.31211 0.0
C892 C 0.3522 0.87798 0.3152 0.0
C893 C 0.33335 0.89349 0.33134 0.0
C894 C 0.44379 0.91954 0.32293 0.0
C895 C 0.33317 0.85253 0.30148 0.0
H896 H 0.43007 0.877 0.24495 0.0
H897 H 0.45484 0.79235 0.28569 0.0
H898 H 0.36448 0.91633 0.27367 0.0
H899 H 0.40382 0.93862 0.28149 0.0
H900 H 0.39831 0.92696 0.25523 0.0
H901 H 0.44002 0.79339 0.32002 0.0
H902 H 0.43532 0.83656 0.33099 0.0
H903 H 0.39669 0.81243 0.32383 0.0
H904 H 0.39832 0.94435 0.35138 0.0
H905 H 0.3059 0.88613 0.33362 0.0
H906 H 0.44847 0.93071 0.30762 0.0
H907 H 0.4603 0.89544 0.32421 0.0
H908 H 0.45287 0.93885 0.3344 0.0
H909 H 0.33544 0.8614 0.28551 0.0
H910 H 0.30459 0.84988 0.30538 0.0
H911 H 0.34574 0.82618 0.30248 0.0
C912 C 0.14497 0.5232 0.76837 0.0
C913 C 0.14138 0.53237 0.78897 0.0
C914 C 0.12659 0.54125 0.75298 0.0
C915 C 0.10324 0.5691 0.75801 0.0
C916 C 0.09838 0.57785 0.77872 0.0
C917 C 0.11754 0.55964 0.79386 0.0
C918 C 0.13302 0.53108 0.73117 0.0
C919 C 0.07345 0.60706 0.78487 0.0
C920 C 0.08785 0.64131 0.71862 0.0
C921 C 0.05485 0.6322 0.71032 0.0
C922 C 0.10377 0.62096 0.73393 0.0
C923 C 0.08619 0.5907 0.74152 0.0
C924 C 0.05299 0.58101 0.73303 0.0
C925 C 0.03788 0.60169 0.71741 0.0
C926 C 0.13948 0.63203 0.74202 0.0
C927 C 0.03308 0.54924 0.74076 0.0
H928 H 0.16236 0.5019 0.76402 0.0
H929 H 0.11411 0.56735 0.80949 0.0
H930 H 0.10749 0.52504 0.72363 0.0
H931 H 0.14521 0.55349 0.72289 0.0
H932 H 0.15079 0.50788 0.72972 0.0
H933 H 0.07005 0.60866 0.80156 0.0
H934 H 0.08385 0.63263 0.7793 0.0
H935 H 0.04703 0.60311 0.77786 0.0
H936 H 0.10135 0.6646 0.71306 0.0
H937 H 0.01226 0.5947 0.71121 0.0
H938 H 0.15894 0.61033 0.74014 0.0
H939 H 0.13738 0.63758 0.75846 0.0
H940 H 0.14999 0.65585 0.73427 0.0
H941 H 0.04975 0.52532 0.73921 0.0
H942 H 0.00777 0.545 0.73255 0.0
H943 H 0.02711 0.55248 0.75711 0.0
C944 C 0.4233 0.09432 0.84606 0.0
C945 C 0.40966 0.12784 0.85057 0.0
C946 C 0.40907 0.07383 0.83014 0.0
C947 C 0.38043 0.08701 0.81839 0.0
C948 C 0.36617 0.12047 0.82318 0.0
C949 C 0.38071 0.14019 0.83914 0.0
C950 C 0.42499 0.03822 0.82573 0.0
C951 C 0.33561 0.13573 0.8113 0.0
C952 C 0.36187 0.05268 0.76483 0.0
C953 C 0.33262 0.03029 0.76796 0.0
C954 C 0.37813 0.07056 0.78107 0.0
C955 C 0.36506 0.06613 0.80111 0.0
C956 C 0.33579 0.04335 0.80439 0.0
C957 C 0.31998 0.02589 0.78789 0.0
C958 C 0.40918 0.09453 0.77673 0.0
C959 C 0.32078 0.03772 0.82538 0.0
H960 H 0.44563 0.08444 0.85465 0.0
H961 H 0.36914 0.16552 0.84267 0.0
H962 H 0.40411 0.01768 0.82646 0.0
H963 H 0.43609 0.03794 0.81015 0.0
H964 H 0.44642 0.03119 0.83652 0.0
H965 H 0.32749 0.1621 0.81689 0.0
H966 H 0.3431 0.1381 0.79509 0.0
H967 H 0.31236 0.11789 0.8122 0.0
H968 H 0.37249 0.05593 0.74969 0.0
H969 H 0.29732 0.00901 0.79062 0.0
H970 H 0.43228 0.08673 0.78609 0.0
H971 H 0.40218 0.12196 0.78089 0.0
H972 H 0.41722 0.09407 0.76053 0.0
H973 H 0.34207 0.0291 0.83584 0.0
H974 H 0.29924 0.01777 0.82564 0.0
H975 H 0.31004 0.06288 0.8313 0.0
C976 C 0.82685 0.42251 0.78755 0.0
C977 C 0.84164 0.42562 0.80699 0.0
C978 C 0.84659 0.40935 0.77105 0.0
C979 C 0.88239 0.39898 0.77378 0.0
C980 C 0.89804 0.40342 0.79314 0.0
C981 C 0.87758 0.41665 0.80946 0.0
C982 C 0.82859 0.40535 0.7508 0.0
C983 C 0.9361 0.39292 0.79684 0.0
C984 C 0.91686 0.32662 0.73863 0.0
C985 C 0.93678 0.34534 0.7241 0.0
C986 C 0.89969 0.34367 0.75485 0.0
C987 C 0.90213 0.38071 0.75686 0.0
C988 C 0.92203 0.39994 0.74223 0.0
C989 C 0.93897 0.38212 0.72604 0.0
C990 C 0.87855 0.32191 0.76979 0.0
C991 C 0.92547 0.4394 0.74372 0.0
H992 H 0.79946 0.43006 0.7852 0.0
H993 H 0.88942 0.41877 0.82432 0.0
H994 H 0.84455 0.41822 0.73873 0.0
H995 H 0.8266 0.37703 0.74693 0.0
H996 H 0.80147 0.41685 0.75072 0.0
H997 H 0.94548 0.40117 0.81203 0.0
H998 H 0.93871 0.36392 0.79565 0.0
H999 H 0.9537 0.40471 0.78515 0.0
H1000 H 0.91421 0.29838 0.73721 0.0
H1001 H 0.9544 0.39693 0.71509 0.0
H1002 H 0.85029 0.33015 0.76952 0.0
H1003 H 0.88845 0.32634 0.78537 0.0
H1004 H 0.87996 0.29329 0.76647 0.0
H1005 H 0.89883 0.45179 0.74301 0.0
H1006 H 0.94226 0.45056 0.73142 0.0
H1007 H 0.93721 0.4466 0.75852 0.0
C1008 C 0.5326 0.86584 0.82328 0.0
C1009 C 0.54016 0.87114 0.8439 0.0
C1010 C 0.55448 0.87969 0.80779 0.0
C1011 C 0.58484 0.89988 0.81279 0.0
C1012 C 0.59245 0.90571 0.83358 0.0
C1013 C 0.57029 0.89111 0.84881 0.0
C1014 C 0.54538 0.87211 0.78599 0.0
C1015 C 0.62414 0.92735 0.83974 0.0
C1016 C 0.66043 0.90516 0.77372 0.0
C1017 C 0.65451 0.93782 0.76418 0.0
C1018 C 0.63828 0.8928 0.7895 0.0
C1019 C 0.60925 0.9135 0.79628 0.0
C1020 C 0.6031 0.94655 0.78679 0.0
C1021 C 0.62555 0.95817 0.77086 0.0
C1022 C 0.64572 0.85718 0.79874 0.0
C1023 C 0.57272 0.96972 0.79347 0.0
H1024 H 0.50983 0.85006 0.81918 0.0
H1025 H 0.5763 0.89572 0.86461 0.0
H1026 H 0.54219 0.89711 0.77748 0.0
H1027 H 0.56739 0.85732 0.77873 0.0
H1028 H 0.52058 0.85654 0.78453 0.0
H1029 H 0.62563 0.93093 0.85641 0.0
H1030 H 0.64891 0.9144 0.83449 0.0
H1031 H 0.62299 0.95364 0.83242 0.0
H1032 H 0.68214 0.88874 0.76858 0.0
H1033 H 0.6207 0.98347 0.76381 0.0
H1034 H 0.62249 0.83965 0.7966 0.0
H1035 H 0.64992 0.8598 0.81528 0.0
H1036 H 0.66946 0.84436 0.79197 0.0
H1037 H 0.54715 0.95588 0.79113 0.0
H1038 H 0.57199 -0.00492 0.78507 0.0
H1039 H 0.5749 0.97531 0.8099 0.0
C1040 C 0.11897 0.24821 0.41069 0.0
C1041 C 0.10033 0.25494 0.39281 0.0
C1042 C 0.13946 0.2175 0.41273 0.0
C1043 C 0.14206 0.19377 0.39627 0.0
C1044 C 0.12409 0.20117 0.37798 0.0
C1045 C 0.103 0.23142 0.3766 0.0
C1046 C 0.15755 0.20998 0.43264 0.0
C1047 C 0.12705 0.17712 0.35988 0.0
C1048 C 0.2199 0.13059 0.3946 0.0
C1049 C 0.20388 0.09851 0.40007 0.0
C1050 C 0.20007 0.16171 0.39323 0.0
C1051 C 0.1635 0.16112 0.39806 0.0
C1052 C 0.14717 0.12912 0.40394 0.0
C1053 C 0.16743 0.09812 0.4046 0.0
C1054 C 0.21826 0.1952 0.38648 0.0
C1055 C 0.10828 0.12763 0.40952 0.0
H1056 H 0.11647 0.26627 0.42329 0.0
H1057 H 0.08871 0.23684 0.36272 0.0
H1058 H 0.14791 0.18456 0.43888 0.0
H1059 H 0.1866 0.20738 0.4303 0.0
H1060 H 0.15262 0.23094 0.444 0.0
H1061 H 0.11263 0.18754 0.3465 0.0
H1062 H 0.15537 0.17341 0.35569 0.0
H1063 H 0.11614 0.15081 0.36369 0.0
H1064 H 0.24817 0.13164 0.39162 0.0
H1065 H 0.15459 0.07356 0.4086 0.0
H1066 H 0.21626 0.21538 0.39853 0.0
H1067 H 0.20485 0.20599 0.37288 0.0
H1068 H 0.24676 0.19102 0.38281 0.0
H1069 H 0.10233 0.14714 0.42154 0.0
H1070 H 0.10012 0.10114 0.41496 0.0
H1071 H 0.09189 0.13465 0.39619 0.0
C1072 C 0.89811 0.15997 0.37329 0.0
C1073 C 0.89396 0.19644 0.37103 0.0
C1074 C 0.86867 0.13809 0.37658 0.0
C1075 C 0.83425 0.15302 0.37748 0.0
C1076 C 0.82978 0.18969 0.37486 0.0
C1077 C 0.8597 0.21098 0.37177 0.0
C1078 C 0.87442 0.09903 0.37934 0.0
C1079 C 0.79346 0.20651 0.37561 0.0
C1080 C 0.75806 0.09002 0.36857 0.0
C1081 C 0.74729 0.08217 0.38843 0.0
C1082 C 0.78556 0.11398 0.36476 0.0
C1083 C 0.80295 0.13015 0.38122 0.0
C1084 C 0.79134 0.12337 0.40128 0.0
C1085 C 0.76337 0.09966 0.40463 0.0
C1086 C 0.79676 0.12109 0.34315 0.0
C1087 C 0.80937 0.14007 0.41922 0.0
H1088 H 0.92445 0.14853 0.37256 0.0
H1089 H 0.85627 0.23922 0.37047 0.0
H1090 H 0.86403 0.09056 0.39432 0.0
H1091 H 0.85954 0.08428 0.36765 0.0
H1092 H 0.9029 0.09161 0.3783 0.0
H1093 H 0.79443 0.23526 0.37258 0.0
H1094 H 0.77576 0.19405 0.36432 0.0
H1095 H 0.78129 0.20221 0.39074 0.0
H1096 H 0.74545 0.07689 0.35595 0.0
H1097 H 0.75505 0.09388 0.42 0.0
H1098 H 0.82413 0.11118 0.34064 0.0
H1099 H 0.79709 0.14982 0.34013 0.0
H1100 H 0.7789 0.10831 0.33203 0.0
H1101 H 0.83739 0.13115 0.41993 0.0
H1102 H 0.7961 0.1333 0.43377 0.0
H1103 H 0.80971 0.16912 0.41752 0.0
C1104 C 0.85541 0.73661 0.37383 0.0
C1105 C 0.88884 0.73571 0.38307 0.0
C1106 C 0.83129 0.76391 0.37803 0.0
C1107 C 0.84099 0.7909 0.39168 0.0
C1108 C 0.87397 0.7891 0.40178 0.0
C1109 C 0.89733 0.7614 0.39748 0.0
C1110 C 0.79606 0.76467 0.36722 0.0
C1111 C 0.88534 0.81729 0.41648 0.0
C1112 C 0.80093 0.88209 0.38578 0.0
C1113 C 0.7763 0.88294 0.40176 0.0
C1114 C 0.82174 0.85209 0.38216 0.0
C1115 C 0.81764 0.82205 0.3947 0.0
C1116 C 0.79251 0.8225 0.41066 0.0
C1117 C 0.77235 0.85299 0.4141 0.0
C1118 C 0.84848 0.85269 0.36506 0.0
C1119 C 0.7873 0.79095 0.42431 0.0
H1120 H 0.84862 0.71681 0.36272 0.0
H1121 H 0.9228 0.76047 0.40502 0.0
H1122 H 0.77408 0.76838 0.37824 0.0
H1123 H 0.79539 0.78729 0.35658 0.0
H1124 H 0.79118 0.74016 0.35854 0.0
H1125 H 0.91112 0.81109 0.42379 0.0
H1126 H 0.88794 0.84281 0.40839 0.0
H1127 H 0.86494 0.82079 0.42846 0.0
H1128 H 0.8038 0.90485 0.37599 0.0
H1129 H 0.75385 0.85351 0.42669 0.0
H1130 H 0.8432 0.83078 0.35443 0.0
H1131 H 0.8756 0.84875 0.37116 0.0
H1132 H 0.84795 0.87786 0.35646 0.0
H1133 H 0.78182 0.76718 0.41513 0.0
H1134 H 0.76513 0.79475 0.43523 0.0
H1135 H 0.81196 0.78578 0.43295 0.0
C1136 C 0.09903 0.8107 0.40423 0.0
C1137 C 0.09161 0.81546 0.38361 0.0
C1138 C 0.12967 0.82497 0.4129 0.0
C1139 C 0.15315 0.84493 0.40069 0.0
C1140 C 0.14542 0.8504 0.37992 0.0
C1141 C 0.11488 0.83518 0.37155 0.0
C1142 C 0.13735 0.81796 0.43497 0.0
C1143 C 0.1696 0.87207 0.36652 0.0
C1144 C 0.21665 0.90994 0.42435 0.0
C1145 C 0.24943 0.89286 0.42177 0.0
C1146 C 0.18493 0.89418 0.41815 0.0
C1147 C 0.18586 0.86016 0.40957 0.0
C1148 C 0.21842 0.8416 0.40842 0.0
C1149 C 0.24991 0.85825 0.41445 0.0
C1150 C 0.15076 0.91489 0.41959 0.0
C1151 C 0.22029 0.80488 0.3998 0.0
H1152 H 0.08142 0.79467 0.41345 0.0
H1153 H 0.1092 0.83855 0.35558 0.0
H1154 H 0.16292 0.80368 0.43643 0.0
H1155 H 0.14013 0.84315 0.44325 0.0
H1156 H 0.11619 0.80211 0.4424 0.0
H1157 H 0.15913 0.87486 0.3509 0.0
H1158 H 0.17313 0.8987 0.37305 0.0
H1159 H 0.19622 0.85963 0.36571 0.0
H1160 H 0.21586 0.93653 0.43019 0.0
H1161 H 0.27503 0.84473 0.41249 0.0
H1162 H 0.12994 0.89914 0.42732 0.0
H1163 H 0.14102 0.92095 0.40414 0.0
H1164 H 0.15417 0.94004 0.4279 0.0
H1165 H 0.19984 0.78782 0.40691 0.0
H1166 H 0.24677 0.79262 0.40205 0.0
H1167 H 0.21474 0.80581 0.38333 0.0
C1168 C 0.16477 0.8791 0.67182 0.0
C1169 C 0.20156 0.8765 0.66914 0.0
C1170 C 0.14196 0.85354 0.66391 0.0
C1171 C 0.15634 0.82492 0.6529 0.0
C1172 C 0.19352 0.8219 0.65036 0.0
C1173 C 0.21575 0.84772 0.6586 0.0
C1174 C 0.10242 0.85738 0.66715 0.0
C1175 C 0.20973 0.79191 0.63855 0.0
C1176 C 0.09491 0.7468 0.64762 0.0
C1177 C 0.07843 0.75408 0.62904 0.0
C1178 C 0.12143 0.76885 0.65523 0.0
C1179 C 0.13215 0.79858 0.64383 0.0
C1180 C 0.11745 0.80469 0.62443 0.0
C1181 C 0.09064 0.7824 0.61728 0.0
C1182 C 0.13646 0.76145 0.67598 0.0
C1183 C 0.12869 0.83585 0.6117 0.0
H1184 H 0.15384 0.90125 0.68008 0.0
H1185 H 0.2442 0.84596 0.65628 0.0
H1186 H 0.08893 0.86013 0.65233 0.0
H1187 H 0.09165 0.83343 0.6746 0.0
H1188 H 0.09564 0.88058 0.6766 0.0
H1189 H 0.23921 0.79272 0.63859 0.0
H1190 H 0.20095 0.76633 0.64496 0.0
H1191 H 0.20048 0.79294 0.62264 0.0
H1192 H 0.08613 0.72462 0.65667 0.0
H1193 H 0.07832 0.78804 0.60283 0.0
H1194 H 0.12803 0.78247 0.6866 0.0
H1195 H 0.16589 0.76164 0.67547 0.0
H1196 H 0.12745 0.73571 0.68215 0.0
H1197 H 0.1195 0.86052 0.61899 0.0
H1198 H 0.11758 0.83477 0.59616 0.0
H1199 H 0.15805 0.83717 0.61061 0.0
C1200 C 0.25292 0.1015 0.68224 0.0
C1201 C 0.2357 0.07223 0.69067 0.0
C1202 C 0.2337 0.13201 0.67726 0.0
C1203 C 0.19647 0.13258 0.68031 0.0
C1204 C 0.17904 0.10278 0.68853 0.0
C1205 C 0.19895 0.07316 0.69383 0.0
C1206 C 0.25315 0.16366 0.66897 0.0
C1207 C 0.13924 0.10202 0.69157 0.0
C1208 C 0.13863 0.21323 0.68555 0.0
C1209 C 0.12189 0.21401 0.66662 0.0
C1210 C 0.16541 0.18862 0.68969 0.0
C1211 C 0.17505 0.16382 0.6747 0.0
C1212 C 0.15991 0.16592 0.65518 0.0
C1213 C 0.13383 0.19129 0.65131 0.0
C1214 C 0.18159 0.18763 0.71056 0.0
C1215 C 0.16921 0.13971 0.63884 0.0
H1216 H 0.28142 0.10076 0.67993 0.0
H1217 H 0.18555 0.05036 0.70014 0.0
H1218 H 0.2428 0.17063 0.65378 0.0
H1219 H 0.24848 0.18668 0.67893 0.0
H1220 H 0.28221 0.15907 0.66773 0.0
H1221 H 0.12978 0.07636 0.69762 0.0
H1222 H 0.1311 0.12303 0.70225 0.0
H1223 H 0.12567 0.1072 0.67698 0.0
H1224 H 0.12966 0.23063 0.69749 0.0
H1225 H 0.12188 0.19249 0.63642 0.0
H1226 H 0.21076 0.18391 0.70958 0.0
H1227 H 0.17054 0.16502 0.71917 0.0
H1228 H 0.17598 0.21208 0.71919 0.0
H1229 H 0.19839 0.13675 0.63741 0.0
H1230 H 0.15831 0.14744 0.62387 0.0
H1231 H 0.15825 0.11354 0.64299 0.0
C1232 C 0.85587 0.07562 0.6676 0.0
C1233 C 0.82681 0.08103 0.68067 0.0
C1234 C 0.87407 0.10413 0.65879 0.0
C1235 C 0.86398 0.13892 0.66379 0.0
C1236 C 0.83565 0.14466 0.67748 0.0
C1237 C 0.81703 0.11581 0.68539 0.0
C1238 C 0.90372 0.09704 0.6439 0.0
C1239 C 0.82477 0.18137 0.68373 0.0
C1240 C 0.93045 0.21303 0.65912 0.0
C1241 C 0.9169 0.23256 0.6428 0.0
C1242 C 0.91395 0.18213 0.6658 0.0
C1243 C 0.88379 0.16957 0.65545 0.0
C1244 C 0.87105 0.18799 0.63824 0.0
C1245 C 0.88743 0.21968 0.63229 0.0
C1246 C 0.92774 0.16405 0.6846 0.0
C1247 C 0.8396 0.17468 0.62644 0.0
H1248 H 0.86424 0.0491 0.66399 0.0
H1249 H 0.79409 0.12087 0.69486 0.0
H1250 H 0.89827 0.11079 0.62939 0.0
H1251 H 0.9291 0.10757 0.64977 0.0
H1252 H 0.90715 0.06851 0.64082 0.0
H1253 H 0.80337 0.18124 0.69535 0.0
H1254 H 0.84796 0.19572 0.68991 0.0
H1255 H 0.8153 0.19632 0.67036 0.0
H1256 H 0.95329 0.22257 0.6673 0.0
H1257 H 0.87708 0.2344 0.61954 0.0
H1258 H 0.93331 0.13592 0.68151 0.0
H1259 H 0.90721 0.16502 0.69669 0.0
H1260 H 0.95235 0.17648 0.69041 0.0
H1261 H 0.84306 0.14637 0.62283 0.0
H1262 H 0.83571 0.18953 0.61211 0.0
H1263 H 0.81515 0.17714 0.63574 0.0
C1264 C 0.87703 0.82238 0.67181 0.0
C1265 C 0.87703 0.78956 0.66232 0.0
C1266 C 0.84538 0.84155 0.67397 0.0
C1267 C 0.81337 0.82775 0.66602 0.0
C1268 C 0.81357 0.79503 0.6559 0.0
C1269 C 0.8454 0.77615 0.65434 0.0
C1270 C 0.84605 0.87627 0.68503 0.0
C1271 C 0.7802 0.77995 0.64678 0.0
C1272 C 0.72896 0.86382 0.68948 0.0
C1273 C 0.72151 0.89187 0.67639 0.0
C1274 C 0.75811 0.84169 0.68585 0.0
C1275 C 0.77967 0.84752 0.66854 0.0
C1276 C 0.7704 0.87402 0.65443 0.0
C1277 C 0.74158 0.89615 0.65864 0.0
C1278 C 0.76736 0.81385 0.70131 0.0
C1279 C 0.79218 0.88049 0.63554 0.0
H1280 H 0.9016 0.83257 0.67796 0.0
H1281 H 0.84569 0.75088 0.64674 0.0
H1282 H 0.83662 0.89766 0.67493 0.0
H1283 H 0.82774 0.87524 0.69823 0.0
H1284 H 0.87303 0.88309 0.69049 0.0
H1285 H 0.7852 0.75478 0.63874 0.0
H1286 H 0.76013 0.77526 0.65882 0.0
H1287 H 0.76853 0.79904 0.63593 0.0
H1288 H 0.71376 0.86085 0.70336 0.0
H1289 H 0.73577 0.91795 0.64854 0.0
H1290 H 0.7925 0.8211 0.70895 0.0
H1291 H 0.77172 0.7881 0.69385 0.0
H1292 H 0.74632 0.81075 0.71302 0.0
H1293 H 0.81808 0.8922 0.63973 0.0
H1294 H 0.77866 0.89868 0.62486 0.0
H1295 H 0.79775 0.85535 0.62763 0.0
C1296 C 0.58855 0.7296 0.86392 0.0
C1297 C 0.57922 0.73997 0.8836 0.0
C1298 C 0.61238 0.70188 0.86063 0.0
C1299 C 0.62702 0.68402 0.87745 0.0
C1300 C 0.61926 0.69561 0.89734 0.0
C1301 C 0.59557 0.72369 0.90019 0.0
C1302 C 0.62052 0.69065 0.83919 0.0
C1303 C 0.63449 0.67719 0.91564 0.0
C1304 C 0.65227 0.58813 0.87101 0.0
C1305 C 0.68932 0.59018 0.86949 0.0
C1306 C 0.63166 0.61857 0.87341 0.0
C1307 C 0.64855 0.65182 0.87425 0.0
C1308 C 0.68585 0.65416 0.87224 0.0
C1309 C 0.70581 0.62329 0.86994 0.0
C1310 C 0.59186 0.61512 0.87541 0.0
C1311 C 0.70472 0.68919 0.87301 0.0
H1312 H 0.57635 0.74242 0.85102 0.0
H1313 H 0.58867 0.73173 0.91542 0.0
H1314 H 0.64962 0.68847 0.83684 0.0
H1315 H 0.60897 0.66426 0.83641 0.0
H1316 H 0.60962 0.70931 0.82782 0.0
H1317 H 0.62794 0.69104 0.92997 0.0
H1318 H 0.62384 0.65001 0.91656 0.0
H1319 H 0.66377 0.6751 0.91425 0.0
H1320 H 0.63942 0.56263 0.87052 0.0
H1321 H 0.7345 0.62503 0.86918 0.0
H1322 H 0.57855 0.63083 0.86346 0.0
H1323 H 0.58302 0.62572 0.89023 0.0
H1324 H 0.58284 0.58737 0.87422 0.0
H1325 H 0.69349 0.70742 0.86155 0.0
H1326 H 0.73371 0.6866 0.87024 0.0
H1327 H 0.70059 0.70144 0.88806 0.0
C1328 C 0.38486 0.66208 0.90217 0.0
C1329 C 0.38198 0.69752 0.89635 0.0
C1330 C 0.35799 0.63783 0.8977 0.0
C1331 C 0.3272 0.64934 0.8874 0.0
C1332 C 0.32322 0.68538 0.88245 0.0
C1333 C 0.35075 0.709 0.88685 0.0
C1334 C 0.36337 0.59955 0.90312 0.0
C1335 C 0.29062 0.69872 0.87163 0.0
C1336 C 0.28463 0.58157 0.85344 0.0
C1337 C 0.25665 0.56896 0.86552 0.0
C1338 C 0.30719 0.60819 0.86027 0.0
C1339 C 0.3015 0.62299 0.87964 0.0
C1340 C 0.27253 0.6114 0.89167 0.0
C1341 C 0.25044 0.58434 0.88449 0.0
C1342 C 0.33787 0.61963 0.84698 0.0
C1343 C 0.26541 0.62698 0.91228 0.0
H1344 H 0.40842 0.6531 0.91 0.0
H1345 H 0.34828 0.73624 0.88217 0.0
H1346 H 0.33996 0.58927 0.91146 0.0
H1347 H 0.36615 0.58384 0.88906 0.0
H1348 H 0.3874 0.59534 0.91251 0.0
H1349 H 0.28938 0.72793 0.87133 0.0
H1350 H 0.29076 0.68907 0.85579 0.0
H1351 H 0.26619 0.6885 0.87902 0.0
H1352 H 0.28956 0.57007 0.83869 0.0
H1353 H 0.22883 0.57481 0.89389 0.0
H1354 H 0.36334 0.61395 0.85472 0.0
H1355 H 0.33671 0.64843 0.84429 0.0
H1356 H 0.33803 0.60609 0.8321 0.0
H1357 H 0.28755 0.62036 0.92264 0.0
H1358 H 0.24026 0.6171 0.91905 0.0
H1359 H 0.26408 0.6561 0.91123 0.0
C1360 C 0.36923 0.2668 0.9424 0.0
C1361 C 0.38101 0.23616 0.93271 0.0
C1362 C 0.34681 0.2906 0.93237 0.0
C1363 C 0.33629 0.28357 0.91221 0.0
C1364 C 0.34582 0.25136 0.90301 0.0
C1365 C 0.3677 0.22784 0.9135 0.0
C1366 C 0.33643 0.32437 0.94284 0.0
C1367 C 0.33519 0.24284 0.88155 0.0
C1368 C 0.26424 0.34036 0.88905 0.0
C1369 C 0.28439 0.3662 0.87905 0.0
C1370 C 0.28072 0.31293 0.89969 0.0
C1371 C 0.31819 0.31124 0.90018 0.0
C1372 C 0.33866 0.33664 0.88958 0.0
C1373 C 0.32147 0.36405 0.87926 0.0
C1374 C 0.25808 0.28655 0.91098 0.0
C1375 C 0.37873 0.3353 0.8895 0.0
H1376 H 0.37918 0.2733 0.9573 0.0
H1377 H 0.37596 0.20369 0.90617 0.0
H1378 H 0.35062 0.34677 0.93567 0.0
H1379 H 0.30756 0.32932 0.94118 0.0
H1380 H 0.34302 0.3239 0.95922 0.0
H1381 H 0.34131 0.21513 0.87748 0.0
H1382 H 0.30641 0.24756 0.87932 0.0
H1383 H 0.34971 0.2604 0.87093 0.0
H1384 H 0.23553 0.34241 0.88922 0.0
H1385 H 0.33697 0.38405 0.87153 0.0
H1386 H 0.26287 0.28891 0.92748 0.0
H1387 H 0.26544 0.25936 0.90655 0.0
H1388 H 0.22929 0.29042 0.90813 0.0
H1389 H 0.38878 0.33874 0.90514 0.0
H1390 H 0.39063 0.35602 0.87971 0.0
H1391 H 0.38799 0.30921 0.88412 0.0
C1392 C 0.71056 0.40024 0.90375 0.0
C1393 C 0.74018 0.38372 0.89496 0.0
C1394 C 0.67853 0.38222 0.90657 0.0
C1395 C 0.67629 0.34643 0.901 0.0
C1396 C 0.70664 0.32891 0.89325 0.0
C1397 C 0.73824 0.34786 0.89019 0.0
C1398 C 0.64672 0.40193 0.91473 0.0
C1399 C 0.7054 0.29046 0.88763 0.0
C1400 C 0.59902 0.2934 0.92186 0.0
C1401 C 0.57668 0.29179 0.90501 0.0
C1402 C 0.6317 0.31095 0.92077 0.0
C1403 C 0.64173 0.32784 0.9025 0.0
C1404 C 0.61862 0.32717 0.88562 0.0
C1405 C 0.58651 0.30863 0.88699 0.0
C1406 C 0.65593 0.31048 0.93893 0.0
C1407 C 0.62801 0.34567 0.86606 0.0
H1408 H 0.71201 0.42766 0.90799 0.0
H1409 H 0.76105 0.33481 0.88353 0.0
H1410 H 0.62539 0.40234 0.90319 0.0
H1411 H 0.63591 0.38838 0.92831 0.0
H1412 H 0.6532 0.42951 0.91885 0.0
H1413 H 0.73199 0.28001 0.88347 0.0
H1414 H 0.69466 0.27468 0.90042 0.0
H1415 H 0.68731 0.28674 0.8746 0.0
H1416 H 0.59153 0.27965 0.93564 0.0
H1417 H 0.56919 0.30696 0.87396 0.0
H1418 H 0.66241 0.33774 0.94358 0.0
H1419 H 0.68132 0.29737 0.93489 0.0
H1420 H 0.64396 0.29645 0.95206 0.0
H1421 H 0.63365 0.37386 0.869 0.0
H1422 H 0.60643 0.34391 0.8547 0.0
H1423 H 0.65244 0.33395 0.85949 0.0
C1424 C 0.631 0.21793 0.19532 0.0
C1425 C 0.60429 0.21241 0.18098 0.0
C1426 C 0.65524 0.24567 0.19301 0.0
C1427 C 0.65305 0.26775 0.17575 0.0
C1428 C 0.62794 0.2604 0.16045 0.0
C1429 C 0.60352 0.23303 0.16338 0.0
C1430 C 0.6813 0.25299 0.20978 0.0
C1431 C 0.62536 0.28277 0.14158 0.0
C1432 C 0.68014 0.36353 0.18021 0.0
C1433 C 0.71413 0.36305 0.17161 0.0
C1434 C 0.66029 0.33246 0.18202 0.0
C1435 C 0.67454 0.30043 0.17459 0.0
C1436 C 0.70883 0.29991 0.16578 0.0
C1437 C 0.72839 0.33124 0.16458 0.0
C1438 C 0.62403 0.33392 0.19183 0.0
C1439 C 0.72451 0.26646 0.15728 0.0
H1440 H 0.63128 0.20232 0.20908 0.0
H1441 H 0.5828 0.22872 0.15231 0.0
H1442 H 0.70839 0.25692 0.20355 0.0
H1443 H 0.6736 0.27765 0.21763 0.0
H1444 H 0.68212 0.23136 0.22113 0.0
H1445 H 0.60784 0.27073 0.13002 0.0
H1446 H 0.6145 0.30902 0.14555 0.0
H1447 H 0.65204 0.28693 0.13482 0.0
H1448 H 0.66929 0.38819 0.18568 0.0
H1449 H 0.75457 0.33108 0.1577 0.0
H1450 H 0.6226 0.31488 0.20458 0.0
H1451 H 0.60344 0.32624 0.18072 0.0
H1452 H 0.61754 0.36057 0.19765 0.0
H1453 H 0.72556 0.24585 0.16919 0.0
H1454 H 0.75171 0.27047 0.15113 0.0
H1455 H 0.70734 0.25635 0.145 0.0
C1456 C 0.59397 0.65004 0.16531 0.0
C1457 C 0.60063 0.68576 0.16918 0.0
C1458 C 0.621 0.62768 0.15827 0.0
C1459 C 0.65579 0.64104 0.15569 0.0
C1460 C 0.6627 0.677 0.15938 0.0
C1461 C 0.63495 0.69901 0.16565 0.0
C1462 C 0.61249 0.58961 0.15397 0.0
C1463 C 0.69966 0.69207 0.15731 0.0
C1464 C 0.73199 0.57713 0.16193 0.0
C1465 C 0.74416 0.57358 0.142 0.0
C1466 C 0.7033 0.59909 0.16656 0.0
C1467 C 0.68561 0.61698 0.15072 0.0
C1468 C 0.69732 0.61284 0.13043 0.0
C1469 C 0.72707 0.59162 0.12634 0.0
C1470 C 0.6925 0.60373 0.18845 0.0
C1471 C 0.67833 0.63064 0.11312 0.0
H1472 H 0.56777 0.63929 0.16806 0.0
H1473 H 0.64037 0.72672 0.1678 0.0
H1474 H 0.62295 0.582 0.13887 0.0
H1475 H 0.62556 0.57249 0.16535 0.0
H1476 H 0.58349 0.58437 0.15441 0.0
H1477 H 0.70052 0.7207 0.16063 0.0
H1478 H 0.71788 0.67829 0.16786 0.0
H1479 H 0.70996 0.6878 0.14176 0.0
H1480 H 0.74559 0.56341 0.17403 0.0
H1481 H 0.73649 0.58851 0.11091 0.0
H1482 H 0.66457 0.59534 0.19067 0.0
H1483 H 0.69409 0.63195 0.19264 0.0
H1484 H 0.70955 0.58837 0.19895 0.0
H1485 H 0.6497 0.62379 0.11353 0.0
H1486 H 0.68944 0.62299 0.09816 0.0
H1487 H 0.68027 0.65962 0.11466 0.0
C1488 C 0.26744 0.63634 0.15885 0.0
C1489 C 0.28177 0.60223 0.15856 0.0
C1490 C 0.28894 0.66564 0.16275 0.0
C1491 C 0.32556 0.6606 0.16638 0.0
C1492 C 0.34031 0.62635 0.16561 0.0
C1493 C 0.3182 0.59757 0.1618 0.0
C1494 C 0.27239 0.70181 0.16348 0.0
C1495 C 0.37932 0.61993 0.16941 0.0
C1496 C 0.39511 0.7324 0.16464 0.0
C1497 C 0.40195 0.73648 0.18532 0.0
C1498 C 0.36848 0.70929 0.15808 0.0
C1499 C 0.34827 0.69043 0.17262 0.0
C1500 C 0.35315 0.69692 0.1935 0.0
C1501 C 0.38013 0.71973 0.19959 0.0
C1502 C 0.36397 0.70303 0.13569 0.0
C1503 C 0.33177 0.67775 0.20948 0.0
H1504 H 0.23939 0.64014 0.15597 0.0
H1505 H 0.32935 0.57126 0.1618 0.0
H1506 H 0.27414 0.7124 0.17908 0.0
H1507 H 0.28711 0.72016 0.15342 0.0
H1508 H 0.24405 0.70154 0.1589 0.0
H1509 H 0.38696 0.59202 0.16694 0.0
H1510 H 0.39567 0.63679 0.1593 0.0
H1511 H 0.38587 0.62708 0.18524 0.0
H1512 H 0.41204 0.74533 0.1536 0.0
H1513 H 0.38517 0.72332 0.21561 0.0
H1514 H 0.33545 0.70242 0.13161 0.0
H1515 H 0.37546 0.67705 0.1317 0.0
H1516 H 0.37746 0.72354 0.12643 0.0
H1517 H 0.30307 0.67863 0.20583 0.0
H1518 H 0.3357 0.68904 0.2248 0.0
H1519 H 0.33984 0.64966 0.20987 0.0
C1520 C 0.27293 0.37186 0.12239 0.0
C1521 C 0.26022 0.40248 0.13174 0.0
C1522 C 0.30435 0.35557 0.12913 0.0
C1523 C 0.32266 0.36962 0.146 0.0
C1524 C 0.31041 0.40098 0.1551 0.0
C1525 C 0.27993 0.41735 0.14757 0.0
C1526 C 0.31748 0.32289 0.11854 0.0
C1527 C 0.32834 0.41632 0.1735 0.0
C1528 C 0.37465 0.30637 0.17902 0.0
C1529 C 0.41007 0.31535 0.17455 0.0
C1530 C 0.34614 0.32399 0.16994 0.0
C1531 C 0.3529 0.35031 0.15526 0.0
C1532 C 0.38834 0.35936 0.15038 0.0
C1533 C 0.41644 0.3424 0.1604 0.0
C1534 C 0.30869 0.31439 0.17612 0.0
C1535 C 0.39659 0.38671 0.13441 0.0
H1536 H 0.25821 0.36047 0.10996 0.0
H1537 H 0.27093 0.44134 0.15468 0.0
H1538 H 0.34628 0.32516 0.11518 0.0
H1539 H 0.31388 0.29971 0.12857 0.0
H1540 H 0.30308 0.318 0.10417 0.0
H1541 H 0.31586 0.44136 0.1785 0.0
H1542 H 0.32697 0.39719 0.18621 0.0
H1543 H 0.35681 0.42131 0.17033 0.0
H1544 H 0.36883 0.2849 0.1893 0.0
H1545 H 0.44341 0.35025 0.15693 0.0
H1546 H 0.29408 0.30383 0.16293 0.0
H1547 H 0.29429 0.3382 0.18135 0.0
H1548 H 0.308 0.29443 0.18844 0.0
H1549 H 0.38262 0.38021 0.12014 0.0
H1550 H 0.42549 0.38871 0.13119 0.0
H1551 H 0.38686 0.41286 0.13937 0.0
C1552 C 0.01539 0.29195 0.46725 0.0
C1553 C 0.98733 0.31086 0.45846 0.0
C1554 C 0.02015 0.29112 0.48849 0.0
C1555 C -0.00341 0.30998 0.50136 0.0
C1556 C 0.96854 0.32946 0.4925 0.0
C1557 C 0.96423 0.32955 0.47132 0.0
C1558 C 0.05032 0.26987 0.49719 0.0
C1559 C 0.94314 0.35054 0.50541 0.0
C1560 C 0.98917 0.28769 0.55808 0.0
C1561 C 0.01142 0.31302 0.56681 0.0
C1562 C 0.98443 0.28604 0.53685 0.0
C1563 C 0.00192 0.3106 0.52398 0.0
C1564 C 0.02382 0.33663 0.53281 0.0
C1565 C 0.02836 0.33741 0.55397 0.0
C1566 C 0.96097 0.25774 0.52817 0.0
C1567 C 0.04247 0.36384 0.51991 0.0
H1568 H 0.0332 0.27719 0.45755 0.0
H1569 H 0.94283 0.34476 0.46477 0.0
H1570 H 0.06851 0.28734 0.50568 0.0
H1571 H 0.03983 0.25013 0.50808 0.0
H1572 H 0.06582 0.25598 0.4853 0.0
H1573 H 0.92248 0.36402 0.49627 0.0
H1574 H 0.92982 0.33309 0.51658 0.0
H1575 H 0.95797 0.37067 0.51408 0.0
H1576 H 0.9762 0.26861 0.56782 0.0
H1577 H 0.04513 0.35748 0.56052 0.0
H1578 H 0.9764 0.24143 0.51735 0.0
H1579 H 0.93883 0.26989 0.51961 0.0
H1580 H 0.94967 0.2403 0.54008 0.0
H1581 H 0.06021 0.35069 0.50882 0.0
H1582 H 0.05854 0.38237 0.52907 0.0
H1583 H 0.0227 0.37921 0.51116 0.0
C1584 C 0.69352 0.05103 0.59714 0.0
C1585 C 0.69768 0.02207 0.61026 0.0
C1586 C 0.69474 0.04725 0.57594 0.0
C1587 C 0.69966 0.01352 0.56729 0.0
C1588 C 0.70263 0.98392 0.58034 0.0
C1589 C 0.7018 0.98853 0.60157 0.0
C1590 C 0.69169 0.07968 0.56278 0.0
C1591 C 0.70745 0.9474 0.57185 0.0
C1592 C 0.67765 0.00619 0.51076 0.0
C1593 C 0.71128 0.00983 0.50161 0.0
C1594 C 0.67355 0.00594 0.53204 0.0
C1595 C 0.70366 0.00985 0.54469 0.0
C1596 C 0.73767 0.01256 0.53559 0.0
C1597 C 0.74106 0.0122 0.51434 0.0
C1598 C 0.63681 0.00246 0.541 0.0
C1599 C 0.77058 0.017 0.54832 0.0
H1600 H 0.68946 0.07701 0.60338 0.0
H1601 H 0.70523 0.96585 0.61132 0.0
H1602 H 0.71639 0.08311 0.55378 0.0
H1603 H 0.66954 0.07662 0.55192 0.0
H1604 H 0.68709 0.10394 0.57176 0.0
H1605 H 0.70649 0.92682 0.58383 0.0
H1606 H 0.68653 0.94179 0.56053 0.0
H1607 H 0.7334 0.94559 0.56393 0.0
H1608 H 0.65429 0.00447 0.50134 0.0
H1609 H 0.76731 0.01416 0.50775 0.0
H1610 H 0.62919 0.02742 0.54854 0.0
H1611 H 0.63641 0.98149 0.55273 0.0
H1612 H 0.61658 -0.00375 0.52935 0.0
H1613 H 0.76884 0.04197 0.55694 0.0
H1614 H 0.79524 0.01746 0.53904 0.0
H1615 H 0.7726 -0.0047 0.55952 0.0
C1616 C 0.95391 0.71893 0.54703 0.0
C1617 C 0.97084 0.69472 0.55991 0.0
C1618 C 0.96039 0.71923 0.52604 0.0
C1619 C 0.98432 0.69458 0.5175 0.0
C1620 C 0.00135 0.66987 0.53036 0.0
C1621 C 0.99457 0.67035 0.55139 0.0
C1622 C 0.94198 0.74637 0.51304 0.0
C1623 C 0.02686 0.64298 0.5219 0.0
C1624 C 0.97888 0.67881 0.46035 0.0
C1625 C 0.00706 0.69943 0.45302 0.0
C1626 C 0.97144 0.67656 0.48128 0.0
C1627 C 0.99242 0.69567 0.49524 0.0
C1628 C 0.02066 0.71677 0.48787 0.0
C1629 C 0.02765 0.71831 0.46695 0.0
C1630 C 0.94121 0.65362 0.48845 0.0
C1631 C 0.04341 0.73803 0.50209 0.0
H1632 H 0.93602 0.73826 0.55344 0.0
H1633 H 0.00751 0.65135 0.56114 0.0
H1634 H 0.96199 0.76349 0.50557 0.0
H1635 H 0.92673 0.73321 0.50089 0.0
H1636 H 0.92354 0.76322 0.52192 0.0
H1637 H 0.03701 0.6248 0.53375 0.0
H1638 H 0.01361 0.62725 0.51 0.0
H1639 H 0.04976 0.65648 0.51468 0.0
H1640 H 0.96306 0.66388 0.44976 0.0
H1641 H 0.0491 0.73476 0.46146 0.0
H1642 H 0.92124 0.66982 0.49658 0.0
H1643 H 0.95117 0.63365 0.49933 0.0
H1644 H 0.92787 0.63986 0.47577 0.0
H1645 H 0.02664 0.75698 0.51058 0.0
H1646 H 0.06455 0.75289 0.494 0.0
H1647 H 0.05607 0.72042 0.51338 0.0
C1648 C 0.28392 -0.00684 0.59796 0.0
C1649 C 0.31785 -0.00706 0.60664 0.0
C1650 C 0.27951 -0.00356 0.57675 0.0
C1651 C 0.30969 0.00023 0.56392 0.0
C1652 C 0.34386 0.00118 0.57281 0.0
C1653 C 0.34747 -0.00275 0.59389 0.0
C1654 C 0.24263 -0.00517 0.56801 0.0
C1655 C 0.37681 0.00598 0.55999 0.0
C1656 C 0.309 0.97753 0.50729 0.0
C1657 C 0.3062 0.01088 0.49811 0.0
C1658 C 0.30871 0.97352 0.52859 0.0
C1659 C 0.30598 0.00353 0.54126 0.0
C1660 C 0.30229 0.0371 0.53214 0.0
C1661 C 0.30211 0.0403 0.51088 0.0
C1662 C 0.31226 0.93713 0.53756 0.0
C1663 C 0.29965 0.06994 0.54489 0.0
H1664 H 0.26099 0.98937 0.60768 0.0
H1665 H 0.37373 -0.00268 0.60052 0.0
H1666 H 0.23728 0.01872 0.55883 0.0
H1667 H 0.24052 0.97188 0.55773 0.0
H1668 H 0.22187 -0.00747 0.57993 0.0
H1669 H 0.40133 0.00727 0.56925 0.0
H1670 H 0.37941 0.98383 0.54918 0.0
H1671 H 0.37471 0.03053 0.55094 0.0
H1672 H 0.31221 0.95445 0.49791 0.0
H1673 H 0.29899 0.06622 0.50434 0.0
H1674 H 0.291 0.93249 0.54894 0.0
H1675 H 0.33804 0.9348 0.54551 0.0
H1676 H 0.31086 0.91624 0.52586 0.0
H1677 H 0.27754 0.0675 0.55594 0.0
H1678 H 0.29533 0.09397 0.5356 0.0
H1679 H 0.32444 0.07334 0.55368 0.0
C1680 C 0.49367 0.74535 1.00824 0.0
C1681 C 0.49598 0.77474 0.9953 0.0
C1682 C 0.49208 0.74905 1.02947 0.0
C1683 C 0.49278 0.78304 0.03825 0.0
C1684 C 0.49362 0.81289 1.02527 0.0
C1685 C 0.49517 0.80842 1.00405 0.0
C1686 C 0.49105 0.7164 0.04254 0.0
C1687 C 0.49442 0.84965 0.03383 0.0
C1688 C 0.47058 0.79451 0.09484 0.0
C1689 C 0.50455 0.79631 0.10347 0.0
C1690 C 0.46616 0.7901 0.07371 0.0
C1691 C 0.49637 0.78716 0.06085 0.0
C1692 C 0.5306 0.78801 0.06963 0.0
C1693 C 0.5342 0.79248 0.09065 0.0
C1694 C 0.42917 0.78926 0.06508 0.0
C1695 C 0.56365 0.78453 0.05676 0.0
H1696 H 0.49352 0.7192 1.00178 0.0
H1697 H 0.49714 0.83137 0.99436 0.0
H1698 H 0.51624 0.71407 0.05109 0.0
H1699 H 0.4692 0.71824 0.0538 0.0
H1700 H 0.48739 0.69209 0.03349 0.0
H1701 H 0.49159 0.8701 1.02188 0.0
H1702 H 0.47284 0.8531 0.04513 0.0
H1703 H 0.51994 0.85395 0.04177 0.0
H1704 H 0.44752 0.79757 0.10453 0.0
H1705 H 0.56057 0.79304 0.09711 0.0
H1706 H 0.4253 0.76489 0.05615 0.0
H1707 H 0.42549 0.81182 0.05459 0.0
H1708 H 0.40842 0.79052 0.07705 0.0
H1709 H 0.56313 0.75931 0.04834 0.0
H1710 H 0.58834 0.78546 0.06588 0.0
H1711 H 0.5646 0.80606 0.04538 0.0
C1712 C 0.20293 0.47237 0.04664 0.0
C1713 C 0.18438 0.50053 0.05545 0.0
C1714 C 0.20356 0.46758 1.0254 0.0
C1715 C 0.1849 0.49126 1.01259 0.0
C1716 C 0.16581 0.51943 1.02147 0.0
C1717 C 0.16582 0.52369 0.04263 0.0
C1718 C 0.22428 0.43719 1.01665 0.0
C1719 C 0.14499 0.545 1.0086 0.0
C1720 C 0.20662 0.49702 0.95571 0.0
C1721 C 0.18043 0.47532 0.94733 0.0
C1722 C 0.20869 0.50223 0.97688 0.0
C1723 C 0.18372 0.48572 0.99002 0.0
C1724 C 0.15674 0.46454 0.9815 0.0
C1725 C 0.1555 0.45959 0.96041 0.0
C1726 C 0.23789 0.52502 0.98524 0.0
C1727 C 0.1291 0.44692 0.99469 0.0
H1728 H 0.21754 0.4545 0.05633 0.0
H1729 H 0.1508 0.54514 0.0492 0.0
H1730 H 0.20615 0.41938 1.00836 0.0
H1731 H 0.24416 0.4471 1.00558 0.0
H1732 H 0.23824 0.42173 1.0285 0.0
H1733 H 0.13218 0.56599 1.01775 0.0
H1734 H 0.1627 0.55753 0.99723 0.0
H1735 H 0.12407 0.53073 1.00017 0.0
H1736 H 0.2261 0.50905 0.94576 0.0
H1737 H 0.13478 0.44328 0.95409 0.0
H1738 H 0.25444 0.50945 0.99586 0.0
H1739 H 0.2263 0.54717 0.99396 0.0
H1740 H 0.25527 0.53594 0.97314 0.0
H1741 H 0.14215 0.4291 1.00572 0.0
H1742 H 0.10976 0.4314 0.98574 0.0
H1743 H 0.11433 0.46701 1.00351 0.0
C1744 C 0.50145 0.16431 0.10276 0.0
C1745 C 0.47402 0.18462 0.11121 0.0
C1746 C 0.50617 0.16207 0.08156 0.0
C1747 C 0.48326 0.18095 0.06839 0.0
C1748 C 0.45578 0.20174 0.0769 0.0
C1749 C 0.45144 0.20319 0.09807 0.0
C1750 C 0.53566 0.13939 0.07322 0.0
C1751 C 0.4311 0.22289 0.06362 0.0
C1752 C 0.5159 0.20509 1.01526 0.0
C1753 C 0.49786 0.18096 1.00291 0.0
C1754 C 0.51157 0.20517 0.03644 0.0
C1755 C 0.48879 0.18028 0.0458 0.0
C1756 C 0.47053 0.15571 0.03347 0.0
C1757 C 0.47506 0.15651 1.01221 0.0
C1758 C 0.53111 0.23229 0.04879 0.0
C1759 C 0.44622 0.12852 0.04275 0.0
H1760 H 0.51882 0.14964 0.11272 0.0
H1761 H 0.43054 0.21943 0.10437 0.0
H1762 H 0.52461 0.1196 0.06265 0.0
H1763 H 0.5546 0.15584 0.06445 0.0
H1764 H 0.55047 0.12544 0.08534 0.0
H1765 H 0.41077 0.2374 0.07253 0.0
H1766 H 0.44659 0.24214 0.05454 0.0
H1767 H 0.41736 0.20529 0.05282 0.0
H1768 H 0.53309 0.22452 1.00828 0.0
H1769 H 0.46124 0.13761 1.00287 0.0
H1770 H 0.54804 0.21909 0.06023 0.0
H1771 H 0.5118 0.24895 0.05713 0.0
H1772 H 0.54813 0.24961 0.03928 0.0
H1773 H 0.46095 0.1126 0.05405 0.0
H1774 H 0.43481 0.11057 1.03124 0.0
H1775 H 0.42413 0.14173 0.0509 0.0
C1776 C 0.7794 0.46762 0.9715 0.0
C1777 C 0.79848 0.4957 0.96295 0.0
C1778 C 0.77948 0.46147 0.99259 0.0
C1779 C 0.79969 0.48351 1.00548 0.0
C1780 C 0.81944 0.51155 0.99684 0.0
C1781 C 0.81836 0.51743 0.9758 0.0
C1782 C 0.75766 0.43158 1.00112 0.0
C1783 C 0.84198 0.53525 1.00983 0.0
C1784 C 0.77915 0.48877 0.06228 0.0
C1785 C 0.80415 0.46539 0.07045 0.0
C1786 C 0.77696 0.49447 0.04119 0.0
C1787 C 0.80084 0.47695 1.02792 0.0
C1788 C 0.82648 0.45374 0.03618 0.0
C1789 C 0.82762 0.44806 0.05724 0.0
C1790 C 0.74892 0.51907 0.03309 0.0
C1791 C 0.85302 0.43511 1.02278 0.0
H1792 H 0.76374 0.45094 0.96171 0.0
H1793 H 0.83358 0.53888 0.96931 0.0
H1794 H 0.77516 0.41256 1.00904 0.0
H1795 H 0.73849 0.44181 1.01246 0.0
H1796 H 0.74275 0.41735 0.98919 0.0
H1797 H 0.85608 0.55565 1.00079 0.0
H1798 H 0.82518 0.54858 1.02131 0.0
H1799 H 0.86195 0.51937 1.01813 0.0
H1800 H 0.7608 0.50201 0.07238 0.0
H1801 H 0.84736 0.43038 0.06346 0.0
H1802 H 0.73196 0.50501 1.02206 0.0
H1803 H 0.76164 0.54129 1.0249 0.0
H1804 H 0.73175 0.52991 0.04529 0.0
H1805 H 0.83896 0.41853 1.01159 0.0
H1806 H 0.87148 0.41816 1.03155 0.0
H1807 H 0.86885 0.45471 1.01413 0.0
loop_
_geom_bond_atom_site_label_1
_geom_bond_atom_site_label_2
_geom_bond_distance
_geom_bond_site_symmetry_2
_ccdc_geom_bond_type
C0 C1 1.351 . S
C0 N3 1.368 1_655 S
C0 H5 0.931 . S
C1 C0 1.351 . S
C1 N2 1.373 1_655 S
C1 H29 0.930 . S
N2 C1 1.373 1_455 S
N2 C4 1.340 . S
N3 C0 1.368 1_455 S
N3 C4 1.321 . S
N3 Co6 2.135 . S
C4 N2 1.340 . S
C4 N3 1.321 . S
C4 H28 0.930 . S
H5 C0 0.931 . S
Co6 N3 2.135 . S
Co6 N9 2.121 . S
Co6 O14 2.055 . S
Co6 O17 2.039 . S
Co6 N20 2.140 1_455 S
C7 O8 1.227 . S
C7 O17 1.265 . S
O8 C7 1.227 . S
N9 Co6 2.121 . S
N9 C11 1.375 . S
N9 C12 1.313 . S
C10 C11 1.338 . S
C10 N13 1.377 . S
C10 H30 0.930 . S
C11 N9 1.375 . S
C11 C10 1.338 . S
C11 H15 0.931 . S
C12 N9 1.313 . S
C12 N13 1.344 . S
C12 H16 0.930 . S
N13 C10 1.377 . S
N13 C12 1.344 . S
O14 Co6 2.055 . S
O14 C18 1.253 . S
H15 C11 0.931 . S
H16 C12 0.930 . S
O17 Co6 2.039 . S
O17 C7 1.265 . S
C18 O14 1.253 . S
C18 O19 1.227 1_455 S
O19 C18 1.227 1_655 S
N20 Co6 2.140 1_655 S
N20 C23 1.346 . S
N20 C24 1.345 . S
C21 C22 1.387 . S
C21 C25 1.391 . S
C22 C21 1.387 . S
C22 C23 1.369 . S
C22 H31 0.929 . S
C23 N20 1.346 . S
C23 C22 1.369 . S
C23 H26 0.928 . S
C24 N20 1.345 . S
C24 C25 1.371 . S
C24 H27 0.931 . S
C25 C21 1.391 . S
C25 C24 1.371 . S
C25 H32 0.930 . S
H26 C23 0.928 . S
H27 C24 0.931 . S
H28 C4 0.930 . S
H29 C1 0.930 . S
H30 C10 0.930 . S
H31 C22 0.929 . S
H32 C25 0.930 . S
C33 C34 1.351 . S
C33 N36 1.368 1_565 S
C33 H38 0.931 . S
C34 C33 1.351 . S
C34 N35 1.373 1_565 S
C34 H62 0.930 . S
N35 C34 1.373 1_545 S
N35 C37 1.340 . S
N36 C33 1.368 1_545 S
N36 C37 1.321 . S
N36 Co39 2.135 . S
C37 N35 1.340 . S
C37 N36 1.321 . S
C37 H61 0.930 . S
H38 C33 0.931 . S
Co39 N36 2.135 . S
Co39 N42 2.121 . S
Co39 O47 2.055 . S
Co39 O50 2.039 . S
Co39 N53 2.140 1_545 S
C40 O41 1.227 . S
C40 O50 1.265 . S
O41 C40 1.227 . S
N42 Co39 2.121 . S
N42 C44 1.375 . S
N42 C45 1.313 . S
C43 C44 1.338 . S
C43 N46 1.377 . S
C43 H63 0.930 . S
C44 N42 1.375 . S
C44 C43 1.338 . S
C44 H48 0.931 . S
C45 N42 1.313 . S
C45 N46 1.344 . S
C45 H49 0.930 . S
N46 C43 1.377 . S
N46 C45 1.344 . S
O47 Co39 2.055 . S
O47 C51 1.253 . S
H48 C44 0.931 . S
H49 C45 0.930 . S
O50 Co39 2.039 . S
O50 C40 1.265 . S
C51 O47 1.253 . S
C51 O52 1.227 1_545 S
O52 C51 1.227 1_565 S
N53 Co39 2.140 1_565 S
N53 C56 1.346 . S
N53 C57 1.345 . S
C54 C55 1.387 . S
C54 C58 1.391 . S
C55 C54 1.387 . S
C55 C56 1.369 . S
C55 H64 0.929 . S
C56 N53 1.346 . S
C56 C55 1.369 . S
C56 H59 0.928 . S
C57 N53 1.345 . S
C57 C58 1.371 . S
C57 H60 0.931 . S
C58 C54 1.391 . S
C58 C57 1.371 . S
C58 H65 0.930 . S
H59 C56 0.928 . S
H60 C57 0.931 . S
H61 C37 0.930 . S
H62 C34 0.930 . S
H63 C43 0.930 . S
H64 C55 0.929 . S
H65 C58 0.930 . S
C66 C67 1.351 . S
C66 N69 1.368 1_455 S
C66 H71 0.931 . S
C67 C66 1.351 . S
C67 N68 1.373 1_455 S
C67 H95 0.930 . S
N68 C67 1.373 1_655 S
N68 C70 1.340 . S
N69 C66 1.368 1_655 S
N69 C70 1.321 . S
N69 Co72 2.135 . S
C70 N68 1.340 . S
C70 N69 1.321 . S
C70 H94 0.930 . S
H71 C66 0.931 . S
Co72 N69 2.135 . S
Co72 N75 2.121 . S
Co72 O80 2.055 . S
Co72 O83 2.039 . S
Co72 N86 2.140 1_655 S
C73 O74 1.227 . S
C73 O83 1.265 . S
O74 C73 1.227 . S
N75 Co72 2.121 . S
N75 C77 1.375 . S
N75 C78 1.313 . S
C76 C77 1.338 . S
C76 N79 1.377 . S
C76 H96 0.930 . S
C77 N75 1.375 . S
C77 C76 1.338 . S
C77 H81 0.931 . S
C78 N75 1.313 . S
C78 N79 1.344 . S
C78 H82 0.930 . S
N79 C76 1.377 . S
N79 C78 1.344 . S
O80 Co72 2.055 . S
O80 C84 1.253 . S
H81 C77 0.931 . S
H82 C78 0.930 . S
O83 Co72 2.039 . S
O83 C73 1.265 . S
C84 O80 1.253 . S
C84 O85 1.227 1_655 S
O85 C84 1.227 1_455 S
N86 Co72 2.140 1_455 S
N86 C89 1.346 . S
N86 C90 1.345 . S
C87 C88 1.387 . S
C87 C91 1.391 . S
C88 C87 1.387 . S
C88 C89 1.369 . S
C88 H97 0.929 . S
C89 N86 1.346 . S
C89 C88 1.369 . S
C89 H92 0.928 . S
C90 N86 1.345 . S
C90 C91 1.371 . S
C90 H93 0.931 . S
C91 C87 1.391 . S
C91 C90 1.371 . S
C91 H98 0.930 . S
H92 C89 0.928 . S
H93 C90 0.931 . S
H94 C70 0.930 . S
H95 C67 0.930 . S
H96 C76 0.930 . S
H97 C88 0.929 . S
H98 C91 0.930 . S
C99 C100 1.351 . S
C99 N102 1.368 1_545 S
C99 H104 0.931 . S
C100 C99 1.351 . S
C100 N101 1.373 1_545 S
C100 H128 0.930 . S
N101 C100 1.373 1_565 S
N101 C103 1.340 . S
N102 C99 1.368 1_565 S
N102 C103 1.321 . S
N102 Co105 2.135 . S
C103 N101 1.340 . S
C103 N102 1.321 . S
C103 H127 0.930 . S
H104 C99 0.931 . S
Co105 N102 2.135 . S
Co105 N108 2.121 . S
Co105 O113 2.055 . S
Co105 O116 2.039 . S
Co105 N119 2.140 1_565 S
C106 O107 1.227 . S
C106 O116 1.265 . S
O107 C106 1.227 . S
N108 Co105 2.121 . S
N108 C110 1.375 . S
N108 C111 1.313 . S
C109 C110 1.338 . S
C109 N112 1.377 . S
C109 H129 0.930 . S
C110 N108 1.375 . S
C110 C109 1.338 . S
C110 H114 0.931 . S
C111 N108 1.313 . S
C111 N112 1.344 . S
C111 H115 0.930 . S
N112 C109 1.377 . S
N112 C111 1.344 . S
O113 Co105 2.055 . S
O113 C117 1.253 . S
H114 C110 0.931 . S
H115 C111 0.930 . S
O116 Co105 2.039 . S
O116 C106 1.265 . S
C117 O113 1.253 . S
C117 O118 1.227 1_565 S
O118 C117 1.227 1_545 S
N119 Co105 2.140 1_545 S
N119 C122 1.346 . S
N119 C123 1.345 . S
C120 C121 1.387 . S
C120 C124 1.391 . S
C121 C120 1.387 . S
C121 C122 1.369 . S
C121 H130 0.929 . S
C122 N119 1.346 . S
C122 C121 1.369 . S
C122 H125 0.928 . S
C123 N119 1.345 . S
C123 C124 1.371 . S
C123 H126 0.931 . S
C124 C120 1.391 . S
C124 C123 1.371 . S
C124 H131 0.930 . S
H125 C122 0.928 . S
H126 C123 0.931 . S
H127 C103 0.930 . S
H128 C100 0.930 . S
H129 C109 0.930 . S
H130 C121 0.929 . S
H131 C124 0.930 . S
C132 C133 1.351 . S
C132 N135 1.368 1_655 S
C132 H137 0.931 . S
C133 C132 1.351 . S
C133 N134 1.373 1_655 S
C133 H161 0.930 . S
N134 C133 1.373 1_455 S
N134 C136 1.340 . S
N135 C132 1.368 1_455 S
N135 C136 1.321 . S
N135 Co138 2.135 . S
C136 N134 1.340 . S
C136 N135 1.321 . S
C136 H160 0.930 . S
H137 C132 0.931 . S
Co138 N135 2.135 . S
Co138 N141 2.121 . S
Co138 O146 2.055 . S
Co138 O149 2.039 . S
Co138 N152 2.140 1_455 S
C139 O140 1.227 . S
C139 O149 1.265 . S
O140 C139 1.227 . S
N141 Co138 2.121 . S
N141 C143 1.375 . S
N141 C144 1.313 . S
C142 C143 1.338 . S
C142 N145 1.377 . S
C142 H162 0.930 . S
C143 N141 1.375 . S
C143 C142 1.338 . S
C143 H147 0.931 . S
C144 N141 1.313 . S
C144 N145 1.344 . S
C144 H148 0.930 . S
N145 C142 1.377 . S
N145 C144 1.344 . S
O146 Co138 2.055 . S
O146 C150 1.253 . S
H147 C143 0.931 . S
H148 C144 0.930 . S
O149 Co138 2.039 . S
O149 C139 1.265 . S
C150 O146 1.253 . S
C150 O151 1.227 1_455 S
O151 C150 1.227 1_655 S
N152 Co138 2.140 1_655 S
N152 C155 1.346 . S
N152 C156 1.345 . S
C153 C154 1.387 . S
C153 C157 1.391 . S
C154 C153 1.387 . S
C154 C155 1.369 . S
C154 H163 0.929 . S
C155 N152 1.346 . S
C155 C154 1.369 . S
C155 H158 0.928 . S
C156 N152 1.345 . S
C156 C157 1.371 . S
C156 H159 0.931 . S
C157 C153 1.391 . S
C157 C156 1.371 . S
C157 H164 0.930 . S
H158 C155 0.928 . S
H159 C156 0.931 . S
H160 C136 0.930 . S
H161 C133 0.930 . S
H162 C142 0.930 . S
H163 C154 0.929 . S
H164 C157 0.930 . S
C165 C166 1.351 . S
C165 N168 1.368 1_565 S
C165 H170 0.931 . S
C166 C165 1.351 . S
C166 N167 1.373 1_565 S
C166 H194 0.930 . S
N167 C166 1.373 1_545 S
N167 C169 1.340 . S
N168 C165 1.368 1_545 S
N168 C169 1.321 . S
N168 Co171 2.135 . S
C169 N167 1.340 . S
C169 N168 1.321 . S
C169 H193 0.930 . S
H170 C165 0.931 . S
Co171 N168 2.135 . S
Co171 N174 2.121 . S
Co171 O179 2.055 . S
Co171 O182 2.039 . S
Co171 N185 2.140 1_545 S
C172 O173 1.227 . S
C172 O182 1.265 . S
O173 C172 1.227 . S
N174 Co171 2.121 . S
N174 C176 1.375 . S
N174 C177 1.313 . S
C175 C176 1.338 . S
C175 N178 1.377 . S
C175 H195 0.930 . S
C176 N174 1.375 . S
C176 C175 1.338 . S
C176 H180 0.931 . S
C177 N174 1.313 . S
C177 N178 1.344 . S
C177 H181 0.930 . S
N178 C175 1.377 . S
N178 C177 1.344 . S
O179 Co171 2.055 . S
O179 C183 1.253 . S
H180 C176 0.931 . S
H181 C177 0.930 . S
O182 Co171 2.039 . S
O182 C172 1.265 . S
C183 O179 1.253 . S
C183 O184 1.227 1_545 S
O184 C183 1.227 1_565 S
N185 Co171 2.140 1_565 S
N185 C188 1.346 . S
N185 C189 1.345 . S
C186 C187 1.387 . S
C186 C190 1.391 . S
C187 C186 1.387 . S
C187 C188 1.369 . S
C187 H196 0.929 . S
C188 N185 1.346 . S
C188 C187 1.369 . S
C188 H191 0.928 . S
C189 N185 1.345 . S
C189 C190 1.371 . S
C189 H192 0.931 . S
C190 C186 1.391 . S
C190 C189 1.371 . S
C190 H197 0.930 . S
H191 C188 0.928 . S
H192 C189 0.931 . S
H193 C169 0.930 . S
H194 C166 0.930 . S
H195 C175 0.930 . S
H196 C187 0.929 . S
H197 C190 0.930 . S
C198 C199 1.351 . S
C198 N201 1.368 1_455 S
C198 H203 0.931 . S
C199 C198 1.351 . S
C199 N200 1.373 1_455 S
C199 H227 0.930 . S
N200 C199 1.373 1_655 S
N200 C202 1.340 . S
N201 C198 1.368 1_655 S
N201 C202 1.321 . S
N201 Co204 2.135 . S
C202 N200 1.340 . S
C202 N201 1.321 . S
C202 H226 0.930 . S
H203 C198 0.931 . S
Co204 N201 2.135 . S
Co204 N207 2.121 . S
Co204 O212 2.055 . S
Co204 O215 2.039 . S
Co204 N218 2.140 1_655 S
C205 O206 1.227 . S
C205 O215 1.265 . S
O206 C205 1.227 . S
N207 Co204 2.121 . S
N207 C209 1.375 . S
N207 C210 1.313 . S
C208 C209 1.338 . S
C208 N211 1.377 . S
C208 H228 0.930 . S
C209 N207 1.375 . S
C209 C208 1.338 . S
C209 H213 0.931 . S
C210 N207 1.313 . S
C210 N211 1.344 . S
C210 H214 0.930 . S
N211 C208 1.377 . S
N211 C210 1.344 . S
O212 Co204 2.055 . S
O212 C216 1.253 . S
H213 C209 0.931 . S
H214 C210 0.930 . S
O215 Co204 2.039 . S
O215 C205 1.265 . S
C216 O212 1.253 . S
C216 O217 1.227 1_655 S
O217 C216 1.227 1_455 S
N218 Co204 2.140 1_455 S
N218 C221 1.346 . S
N218 C222 1.345 . S
C219 C220 1.387 . S
C219 C223 1.391 . S
C220 C219 1.387 . S
C220 C221 1.369 . S
C220 H229 0.929 . S
C221 N218 1.346 . S
C221 C220 1.369 . S
C221 H224 0.928 . S
C222 N218 1.345 . S
C222 C223 1.371 . S
C222 H225 0.931 . S
C223 C219 1.391 . S
C223 C222 1.371 . S
C223 H230 0.930 . S
H224 C221 0.928 . S
H225 C222 0.931 . S
H226 C202 0.930 . S
H227 C199 0.930 . S
H228 C208 0.930 . S
H229 C220 0.929 . S
H230 C223 0.930 . S
C231 C232 1.351 . S
C231 N234 1.368 1_545 S
C231 H236 0.931 . S
C232 C231 1.351 . S
C232 N233 1.373 1_545 S
C232 H260 0.930 . S
N233 C232 1.373 1_565 S
N233 C235 1.340 . S
N234 C231 1.368 1_565 S
N234 C235 1.321 . S
N234 Co237 2.135 . S
C235 N233 1.340 . S
C235 N234 1.321 . S
C235 H259 0.930 . S
H236 C231 0.931 . S
Co237 N234 2.135 . S
Co237 N240 2.121 . S
Co237 O245 2.055 . S
Co237 O248 2.039 . S
Co237 N251 2.140 1_565 S
C238 O239 1.227 . S
C238 O248 1.265 . S
O239 C238 1.227 . S
N240 Co237 2.121 . S
N240 C242 1.375 . S
N240 C243 1.313 . S
C241 C242 1.338 . S
C241 N244 1.377 . S
C241 H261 0.930 . S
C242 N240 1.375 . S
C242 C241 1.338 . S
C242 H246 0.931 . S
C243 N240 1.313 . S
C243 N244 1.344 . S
C243 H247 0.930 . S
N244 C241 1.377 . S
N244 C243 1.344 . S
O245 Co237 2.055 . S
O245 C249 1.253 . S
H246 C242 0.931 . S
H247 C243 0.930 . S
O248 Co237 2.039 . S
O248 C238 1.265 . S
C249 O245 1.253 . S
C249 O250 1.227 1_565 S
O250 C249 1.227 1_545 S
N251 Co237 2.140 1_545 S
N251 C254 1.346 . S
N251 C255 1.345 . S
C252 C253 1.387 . S
C252 C256 1.391 . S
C253 C252 1.387 . S
C253 C254 1.369 . S
C253 H262 0.929 . S
C254 N251 1.346 . S
C254 C253 1.369 . S
C254 H257 0.928 . S
C255 N251 1.345 . S
C255 C256 1.371 . S
C255 H258 0.931 . S
C256 C252 1.391 . S
C256 C255 1.371 . S
C256 H263 0.930 . S
H257 C254 0.928 . S
H258 C255 0.931 . S
H259 C235 0.930 . S
H260 C232 0.930 . S
H261 C241 0.930 . S
H262 C253 0.929 . S
H263 C256 0.930 . S
C264 C265 1.351 . S
C264 N267 1.368 . S
C264 H269 0.931 . S
C265 C264 1.351 . S
C265 N266 1.373 . S
C265 H293 0.930 . S
N266 C265 1.373 . S
N266 C268 1.340 . S
N267 C264 1.368 . S
N267 C268 1.321 . S
N267 Co270 2.135 . S
C268 N266 1.340 . S
C268 N267 1.321 . S
C268 H292 0.930 . S
H269 C264 0.931 . S
Co270 N267 2.135 . S
Co270 N273 2.121 . S
Co270 O278 2.055 . S
Co270 O281 2.039 . S
Co270 N284 2.140 . S
C271 O272 1.227 . S
C271 O281 1.265 . S
O272 C271 1.227 . S
N273 Co270 2.121 . S
N273 C275 1.375 . S
N273 C276 1.313 . S
C274 C275 1.338 . S
C274 N277 1.377 . S
C274 H294 0.930 . S
C275 N273 1.375 . S
C275 C274 1.338 . S
C275 H279 0.931 . S
C276 N273 1.313 . S
C276 N277 1.344 . S
C276 H280 0.930 . S
N277 C274 1.377 . S
N277 C276 1.344 . S
O278 Co270 2.055 . S
O278 C282 1.253 . S
H279 C275 0.931 . S
H280 C276 0.930 . S
O281 Co270 2.039 . S
O281 C271 1.265 . S
C282 O278 1.253 . S
C282 O283 1.227 . S
O283 C282 1.227 . S
N284 Co270 2.140 . S
N284 C287 1.346 . S
N284 C288 1.345 . S
C285 C286 1.387 . S
C285 C289 1.391 . S
C286 C285 1.387 . S
C286 C287 1.369 . S
C286 H295 0.929 . S
C287 N284 1.346 . S
C287 C286 1.369 . S
C287 H290 0.928 . S
C288 N284 1.345 . S
C288 C289 1.371 . S
C288 H291 0.931 . S
C289 C285 1.391 . S
C289 C288 1.371 . S
C289 H296 0.930 . S
H290 C287 0.928 . S
H291 C288 0.931 . S
H292 C268 0.930 . S
H293 C265 0.930 . S
H294 C274 0.930 . S
H295 C286 0.929 . S
H296 C289 0.930 . S
C297 C298 1.351 . S
C297 N300 1.368 . S
C297 H302 0.931 . S
C298 C297 1.351 . S
C298 N299 1.373 . S
C298 H326 0.930 . S
N299 C298 1.373 . S
N299 C301 1.340 . S
N300 C297 1.368 . S
N300 C301 1.321 . S
N300 Co303 2.135 . S
C301 N299 1.340 . S
C301 N300 1.321 . S
C301 H325 0.930 . S
H302 C297 0.931 . S
Co303 N300 2.135 . S
Co303 N306 2.121 . S
Co303 O311 2.055 . S
Co303 O314 2.039 . S
Co303 N317 2.140 . S
C304 O305 1.227 . S
C304 O314 1.265 . S
O305 C304 1.227 . S
N306 Co303 2.121 . S
N306 C308 1.375 . S
N306 C309 1.313 . S
C307 C308 1.338 . S
C307 N310 1.377 . S
C307 H327 0.930 . S
C308 N306 1.375 . S
C308 C307 1.338 . S
C308 H312 0.931 . S
C309 N306 1.313 . S
C309 N310 1.344 . S
C309 H313 0.930 . S
N310 C307 1.377 . S
N310 C309 1.344 . S
O311 Co303 2.055 . S
O311 C315 1.253 . S
H312 C308 0.931 . S
H313 C309 0.930 . S
O314 Co303 2.039 . S
O314 C304 1.265 . S
C315 O311 1.253 . S
C315 O316 1.227 . S
O316 C315 1.227 . S
N317 Co303 2.140 . S
N317 C320 1.346 . S
N317 C321 1.345 . S
C318 C319 1.387 . S
C318 C322 1.391 . S
C319 C318 1.387 . S
C319 C320 1.369 . S
C319 H328 0.929 . S
C320 N317 1.346 . S
C320 C319 1.369 . S
C320 H323 0.928 . S
C321 N317 1.345 . S
C321 C322 1.371 . S
C321 H324 0.931 . S
C322 C318 1.391 . S
C322 C321 1.371 . S
C322 H329 0.930 . S
H323 C320 0.928 . S
H324 C321 0.931 . S
H325 C301 0.930 . S
H326 C298 0.930 . S
H327 C307 0.930 . S
H328 C319 0.929 . S
H329 C322 0.930 . S
C330 C331 1.351 . S
C330 N333 1.368 . S
C330 H335 0.931 . S
C331 C330 1.351 . S
C331 N332 1.373 . S
C331 H359 0.930 . S
N332 C331 1.373 . S
N332 C334 1.340 . S
N333 C330 1.368 . S
N333 C334 1.321 . S
N333 Co336 2.135 . S
C334 N332 1.340 . S
C334 N333 1.321 . S
C334 H358 0.930 . S
H335 C330 0.931 . S
Co336 N333 2.135 . S
Co336 N339 2.121 . S
Co336 O344 2.055 . S
Co336 O347 2.039 . S
Co336 N350 2.140 . S
C337 O338 1.227 . S
C337 O347 1.265 . S
O338 C337 1.227 . S
N339 Co336 2.121 . S
N339 C341 1.375 . S
N339 C342 1.313 . S
C340 C341 1.338 . S
C340 N343 1.377 . S
C340 H360 0.930 . S
C341 N339 1.375 . S
C341 C340 1.338 . S
C341 H345 0.931 . S
C342 N339 1.313 . S
C342 N343 1.344 . S
C342 H346 0.930 . S
N343 C340 1.377 . S
N343 C342 1.344 . S
O344 Co336 2.055 . S
O344 C348 1.253 . S
H345 C341 0.931 . S
H346 C342 0.930 . S
O347 Co336 2.039 . S
O347 C337 1.265 . S
C348 O344 1.253 . S
C348 O349 1.227 . S
O349 C348 1.227 . S
N350 Co336 2.140 . S
N350 C353 1.346 . S
N350 C354 1.345 . S
C351 C352 1.387 . S
C351 C355 1.391 . S
C352 C351 1.387 . S
C352 C353 1.369 . S
C352 H361 0.929 . S
C353 N350 1.346 . S
C353 C352 1.369 . S
C353 H356 0.928 . S
C354 N350 1.345 . S
C354 C355 1.371 . S
C354 H357 0.931 . S
C355 C351 1.391 . S
C355 C354 1.371 . S
C355 H362 0.930 . S
H356 C353 0.928 . S
H357 C354 0.931 . S
H358 C334 0.930 . S
H359 C331 0.930 . S
H360 C340 0.930 . S
H361 C352 0.929 . S
H362 C355 0.930 . S
C363 C364 1.351 . S
C363 N366 1.368 . S
C363 H368 0.931 . S
C364 C363 1.351 . S
C364 N365 1.373 . S
C364 H392 0.930 . S
N365 C364 1.373 . S
N365 C367 1.340 . S
N366 C363 1.368 . S
N366 C367 1.321 . S
N366 Co369 2.135 . S
C367 N365 1.340 . S
C367 N366 1.321 . S
C367 H391 0.930 . S
H368 C363 0.931 . S
Co369 N366 2.135 . S
Co369 N372 2.121 . S
Co369 O377 2.055 . S
Co369 O380 2.039 . S
Co369 N383 2.140 . S
C370 O371 1.227 . S
C370 O380 1.265 . S
O371 C370 1.227 . S
N372 Co369 2.121 . S
N372 C374 1.375 . S
N372 C375 1.313 . S
C373 C374 1.338 . S
C373 N376 1.377 . S
C373 H393 0.930 . S
C374 N372 1.375 . S
C374 C373 1.338 . S
C374 H378 0.931 . S
C375 N372 1.313 . S
C375 N376 1.344 . S
C375 H379 0.930 . S
N376 C373 1.377 . S
N376 C375 1.344 . S
O377 Co369 2.055 . S
O377 C381 1.253 . S
H378 C374 0.931 . S
H379 C375 0.930 . S
O380 Co369 2.039 . S
O380 C370 1.265 . S
C381 O377 1.253 . S
C381 O382 1.227 . S
O382 C381 1.227 . S
N383 Co369 2.140 . S
N383 C386 1.346 . S
N383 C387 1.345 . S
C384 C385 1.387 . S
C384 C388 1.391 . S
C385 C384 1.387 . S
C385 C386 1.369 . S
C385 H394 0.929 . S
C386 N383 1.346 . S
C386 C385 1.369 . S
C386 H389 0.928 . S
C387 N383 1.345 . S
C387 C388 1.371 . S
C387 H390 0.931 . S
C388 C384 1.391 . S
C388 C387 1.371 . S
C388 H395 0.930 . S
H389 C386 0.928 . S
H390 C387 0.931 . S
H391 C367 0.930 . S
H392 C364 0.930 . S
H393 C373 0.930 . S
H394 C385 0.929 . S
H395 C388 0.930 . S
C396 C397 1.351 . S
C396 N399 1.368 . S
C396 H401 0.931 . S
C397 C396 1.351 . S
C397 N398 1.373 . S
C397 H425 0.930 . S
N398 C397 1.373 . S
N398 C400 1.340 . S
N399 C396 1.368 . S
N399 C400 1.321 . S
N399 Co402 2.135 . S
C400 N398 1.340 . S
C400 N399 1.321 . S
C400 H424 0.930 . S
H401 C396 0.931 . S
Co402 N399 2.135 . S
Co402 N405 2.121 . S
Co402 O410 2.055 . S
Co402 O413 2.039 . S
Co402 N416 2.140 . S
C403 O404 1.227 . S
C403 O413 1.265 . S
O404 C403 1.227 . S
N405 Co402 2.121 . S
N405 C407 1.375 . S
N405 C408 1.313 . S
C406 C407 1.338 . S
C406 N409 1.377 . S
C406 H426 0.930 . S
C407 N405 1.375 . S
C407 C406 1.338 . S
C407 H411 0.931 . S
C408 N405 1.313 . S
C408 N409 1.344 . S
C408 H412 0.930 . S
N409 C406 1.377 . S
N409 C408 1.344 . S
O410 Co402 2.055 . S
O410 C414 1.253 . S
H411 C407 0.931 . S
H412 C408 0.930 . S
O413 Co402 2.039 . S
O413 C403 1.265 . S
C414 O410 1.253 . S
C414 O415 1.227 . S
O415 C414 1.227 . S
N416 Co402 2.140 . S
N416 C419 1.346 . S
N416 C420 1.345 . S
C417 C418 1.387 . S
C417 C421 1.391 . S
C418 C417 1.387 . S
C418 C419 1.369 . S
C418 H427 0.929 . S
C419 N416 1.346 . S
C419 C418 1.369 . S
C419 H422 0.928 . S
C420 N416 1.345 . S
C420 C421 1.371 . S
C420 H423 0.931 . S
C421 C417 1.391 . S
C421 C420 1.371 . S
C421 H428 0.930 . S
H422 C419 0.928 . S
H423 C420 0.931 . S
H424 C400 0.930 . S
H425 C397 0.930 . S
H426 C406 0.930 . S
H427 C418 0.929 . S
H428 C421 0.930 . S
C429 C430 1.351 . S
C429 N432 1.368 . S
C429 H434 0.931 . S
C430 C429 1.351 . S
C430 N431 1.373 . S
C430 H458 0.930 . S
N431 C430 1.373 . S
N431 C433 1.340 . S
N432 C429 1.368 . S
N432 C433 1.321 . S
N432 Co435 2.135 . S
C433 N431 1.340 . S
C433 N432 1.321 . S
C433 H457 0.930 . S
H434 C429 0.931 . S
Co435 N432 2.135 . S
Co435 N438 2.121 . S
Co435 O443 2.055 . S
Co435 O446 2.039 . S
Co435 N449 2.140 . S
C436 O437 1.227 . S
C436 O446 1.265 . S
O437 C436 1.227 . S
N438 Co435 2.121 . S
N438 C440 1.375 . S
N438 C441 1.313 . S
C439 C440 1.338 . S
C439 N442 1.377 . S
C439 H459 0.930 . S
C440 N438 1.375 . S
C440 C439 1.338 . S
C440 H444 0.931 . S
C441 N438 1.313 . S
C441 N442 1.344 . S
C441 H445 0.930 . S
N442 C439 1.377 . S
N442 C441 1.344 . S
O443 Co435 2.055 . S
O443 C447 1.253 . S
H444 C440 0.931 . S
H445 C441 0.930 . S
O446 Co435 2.039 . S
O446 C436 1.265 . S
C447 O443 1.253 . S
C447 O448 1.227 . S
O448 C447 1.227 . S
N449 Co435 2.140 . S
N449 C452 1.346 . S
N449 C453 1.345 . S
C450 C451 1.387 . S
C450 C454 1.391 . S
C451 C450 1.387 . S
C451 C452 1.369 . S
C451 H460 0.929 . S
C452 N449 1.346 . S
C452 C451 1.369 . S
C452 H455 0.928 . S
C453 N449 1.345 . S
C453 C454 1.371 . S
C453 H456 0.931 . S
C454 C450 1.391 . S
C454 C453 1.371 . S
C454 H461 0.930 . S
H455 C452 0.928 . S
H456 C453 0.931 . S
H457 C433 0.930 . S
H458 C430 0.930 . S
H459 C439 0.930 . S
H460 C451 0.929 . S
H461 C454 0.930 . S
C462 C463 1.351 . S
C462 N465 1.368 . S
C462 H467 0.931 . S
C463 C462 1.351 . S
C463 N464 1.373 . S
C463 H491 0.930 . S
N464 C463 1.373 . S
N464 C466 1.340 . S
N465 C462 1.368 . S
N465 C466 1.321 . S
N465 Co468 2.135 . S
C466 N464 1.340 . S
C466 N465 1.321 . S
C466 H490 0.930 . S
H467 C462 0.931 . S
Co468 N465 2.135 . S
Co468 N471 2.121 . S
Co468 O476 2.055 . S
Co468 O479 2.039 . S
Co468 N482 2.140 . S
C469 O470 1.227 . S
C469 O479 1.265 . S
O470 C469 1.227 . S
N471 Co468 2.121 . S
N471 C473 1.375 . S
N471 C474 1.313 . S
C472 C473 1.338 . S
C472 N475 1.377 . S
C472 H492 0.930 . S
C473 N471 1.375 . S
C473 C472 1.338 . S
C473 H477 0.931 . S
C474 N471 1.313 . S
C474 N475 1.344 . S
C474 H478 0.930 . S
N475 C472 1.377 . S
N475 C474 1.344 . S
O476 Co468 2.055 . S
O476 C480 1.253 . S
H477 C473 0.931 . S
H478 C474 0.930 . S
O479 Co468 2.039 . S
O479 C469 1.265 . S
C480 O476 1.253 . S
C480 O481 1.227 . S
O481 C480 1.227 . S
N482 Co468 2.140 . S
N482 C485 1.346 . S
N482 C486 1.345 . S
C483 C484 1.387 . S
C483 C487 1.391 . S
C484 C483 1.387 . S
C484 C485 1.369 . S
C484 H493 0.929 . S
C485 N482 1.346 . S
C485 C484 1.369 . S
C485 H488 0.928 . S
C486 N482 1.345 . S
C486 C487 1.371 . S
C486 H489 0.931 . S
C487 C483 1.391 . S
C487 C486 1.371 . S
C487 H494 0.930 . S
H488 C485 0.928 . S
H489 C486 0.931 . S
H490 C466 0.930 . S
H491 C463 0.930 . S
H492 C472 0.930 . S
H493 C484 0.929 . S
H494 C487 0.930 . S
C495 C496 1.351 . S
C495 N498 1.368 . S
C495 H500 0.931 . S
C496 C495 1.351 . S
C496 N497 1.373 . S
C496 H524 0.930 . S
N497 C496 1.373 . S
N497 C499 1.340 . S
N498 C495 1.368 . S
N498 C499 1.321 . S
N498 Co501 2.135 . S
C499 N497 1.340 . S
C499 N498 1.321 . S
C499 H523 0.930 . S
H500 C495 0.931 . S
Co501 N498 2.135 . S
Co501 N504 2.121 . S
Co501 O509 2.055 . S
Co501 O512 2.039 . S
Co501 N515 2.140 . S
C502 O503 1.227 . S
C502 O512 1.265 . S
O503 C502 1.227 . S
N504 Co501 2.121 . S
N504 C506 1.375 . S
N504 C507 1.313 . S
C505 C506 1.338 . S
C505 N508 1.377 . S
C505 H525 0.930 . S
C506 N504 1.375 . S
C506 C505 1.338 . S
C506 H510 0.931 . S
C507 N504 1.313 . S
C507 N508 1.344 . S
C507 H511 0.930 . S
N508 C505 1.377 . S
N508 C507 1.344 . S
O509 Co501 2.055 . S
O509 C513 1.253 . S
H510 C506 0.931 . S
H511 C507 0.930 . S
O512 Co501 2.039 . S
O512 C502 1.265 . S
C513 O509 1.253 . S
C513 O514 1.227 . S
O514 C513 1.227 . S
N515 Co501 2.140 . S
N515 C518 1.346 . S
N515 C519 1.345 . S
C516 C517 1.387 . S
C516 C520 1.391 . S
C517 C516 1.387 . S
C517 C518 1.369 . S
C517 H526 0.929 . S
C518 N515 1.346 . S
C518 C517 1.369 . S
C518 H521 0.928 . S
C519 N515 1.345 . S
C519 C520 1.371 . S
C519 H522 0.931 . S
C520 C516 1.391 . S
C520 C519 1.371 . S
C520 H527 0.930 . S
H521 C518 0.928 . S
H522 C519 0.931 . S
H523 C499 0.930 . S
H524 C496 0.930 . S
H525 C505 0.930 . S
H526 C517 0.929 . S
H527 C520 0.930 . S
C528 C529 1.391 1_455 S
C528 C530 1.394 . S
C528 H544 0.931 . S
C529 C528 1.391 1_655 S
C529 C533 1.376 . S
C530 C528 1.394 . S
C530 C531 1.369 1_455 S
C530 C534 1.531 . S
C531 C530 1.369 1_655 S
C531 C532 1.410 . S
C531 C539 1.503 1_655 S
C532 C531 1.410 . S
C532 C533 1.392 . S
C532 C535 1.511 . S
C533 C529 1.376 . S
C533 C532 1.392 . S
C533 H545 0.929 . S
C534 C530 1.531 . S
C534 H546 0.960 . S
C534 H547 0.962 . S
C534 H548 0.960 . S
C535 C532 1.511 . S
C535 H549 0.961 . S
C535 H550 0.961 . S
C535 H551 0.961 . S
C536 C537 1.370 . S
C536 C538 1.363 . S
C536 H552 0.931 . S
C537 C536 1.370 . S
C537 C541 1.414 . S
C538 C536 1.363 . S
C538 C539 1.370 . S
C538 C542 1.524 . S
C539 C531 1.503 1_455 S
C539 C538 1.370 . S
C539 C540 1.403 1_455 S
C540 C539 1.403 1_655 S
C540 C541 1.401 1_655 S
C540 C543 1.539 . S
C541 C537 1.414 . S
C541 C540 1.401 1_455 S
C541 H553 0.927 1_455 S
C542 C538 1.524 . S
C542 H554 0.956 . S
C542 H555 0.949 1_455 S
C542 H556 0.961 . S
C543 C540 1.539 . S
C543 H557 0.958 . S
C543 H558 0.961 . S
C543 H559 0.960 . S
H544 C528 0.931 . S
H545 C533 0.929 . S
H546 C534 0.960 . S
H547 C534 0.962 . S
H548 C534 0.960 . S
H549 C535 0.961 . S
H550 C535 0.961 . S
H551 C535 0.961 . S
H552 C536 0.931 . S
H553 C541 0.927 1_655 S
H554 C542 0.956 . S
H555 C542 0.949 1_655 S
H556 C542 0.961 . S
H557 C543 0.958 . S
H558 C543 0.961 . S
H559 C543 0.960 . S
C560 C561 1.391 1_565 S
C560 C562 1.394 . S
C560 H576 0.931 . S
C561 C560 1.391 1_545 S
C561 C565 1.376 . S
C562 C560 1.394 . S
C562 C563 1.369 1_565 S
C562 C566 1.531 . S
C563 C562 1.369 1_545 S
C563 C564 1.410 . S
C563 C571 1.503 . S
C564 C563 1.410 . S
C564 C565 1.392 . S
C564 C567 1.511 . S
C565 C561 1.376 . S
C565 C564 1.392 . S
C565 H577 0.929 . S
C566 C562 1.531 . S
C566 H578 0.960 . S
C566 H579 0.962 . S
C566 H580 0.960 . S
C567 C564 1.511 . S
C567 H581 0.961 . S
C567 H582 0.961 . S
C567 H583 0.961 . S
C568 C569 1.370 . S
C568 C570 1.363 . S
C568 H584 0.931 . S
C569 C568 1.370 . S
C569 C573 1.408 1_565 S
C570 C568 1.363 . S
C570 C571 1.370 1_565 S
C570 C574 1.524 . S
C571 C563 1.503 . S
C571 C570 1.370 1_545 S
C571 C572 1.403 . S
C572 C571 1.403 . S
C572 C573 1.404 . S
C572 C575 1.539 . S
C573 C569 1.408 1_545 S
C573 C572 1.404 . S
C573 H585 0.930 . S
C574 C570 1.524 . S
C574 H586 0.956 . S
C574 H587 0.961 . S
C574 H588 0.961 . S
C575 C572 1.539 . S
C575 H589 0.958 . S
C575 H590 0.961 . S
C575 H591 0.960 . S
H576 C560 0.931 . S
H577 C565 0.929 . S
H578 C566 0.960 . S
H579 C566 0.962 . S
H580 C566 0.960 . S
H581 C567 0.961 . S
H582 C567 0.961 . S
H583 C567 0.961 . S
H584 C568 0.931 . S
H585 C573 0.930 . S
H586 C574 0.956 . S
H587 C574 0.961 . S
H588 C574 0.961 . S
H589 C575 0.958 . S
H590 C575 0.961 . S
H591 C575 0.960 . S
C592 C593 1.383 1_455 S
C592 C594 1.395 . S
C592 H608 0.937 . S
C593 C592 1.383 1_655 S
C593 C597 1.376 . S
C594 C592 1.395 . S
C594 C595 1.369 1_455 S
C594 C598 1.531 . S
C595 C594 1.369 1_655 S
C595 C596 1.410 . S
C595 C603 1.503 . S
C596 C595 1.410 . S
C596 C597 1.392 . S
C596 C599 1.511 . S
C597 C593 1.376 . S
C597 C596 1.392 . S
C597 H609 0.929 . S
C598 C594 1.531 . S
C598 H610 0.960 . S
C598 H611 0.962 . S
C598 H612 0.960 . S
C599 C596 1.511 . S
C599 H613 0.961 . S
C599 H614 0.961 . S
C599 H615 0.961 . S
C600 C601 1.370 . S
C600 C602 1.363 . S
C600 H616 0.931 . S
C601 C600 1.370 . S
C601 C605 1.408 1_455 S
C602 C600 1.363 . S
C602 C603 1.370 1_455 S
C602 C606 1.524 . S
C603 C595 1.503 . S
C603 C602 1.370 1_655 S
C603 C604 1.403 . S
C604 C603 1.403 . S
C604 C605 1.404 . S
C604 C607 1.539 . S
C605 C601 1.408 1_655 S
C605 C604 1.404 . S
C605 H617 0.930 . S
C606 C602 1.524 . S
C606 H618 0.956 . S
C606 H619 0.961 . S
C606 H620 0.961 . S
C607 C604 1.539 . S
C607 H621 0.958 . S
C607 H622 0.961 . S
C607 H623 0.960 . S
H608 C592 0.937 . S
H609 C597 0.929 . S
H610 C598 0.960 . S
H611 C598 0.962 . S
H612 C598 0.960 . S
H613 C599 0.961 . S
H614 C599 0.961 . S
H615 C599 0.961 . S
H616 C600 0.931 . S
H617 C605 0.930 . S
H618 C606 0.956 . S
H619 C606 0.961 . S
H620 C606 0.961 . S
H621 C607 0.958 . S
H622 C607 0.961 . S
H623 C607 0.960 . S
C624 C625 1.391 1_545 S
C624 C626 1.394 . S
C624 H640 0.931 . S
C625 C624 1.391 1_565 S
C625 C629 1.376 . S
C626 C624 1.394 . S
C626 C627 1.369 . S
C626 C630 1.531 . S
C627 C626 1.369 . S
C627 C628 1.410 1_545 S
C627 C635 1.503 . S
C628 C627 1.410 1_565 S
C628 C629 1.392 . S
C628 C631 1.511 . S
C629 C625 1.376 . S
C629 C628 1.392 . S
C629 H641 0.929 . S
C630 C626 1.531 . S
C630 H642 0.960 . S
C630 H643 0.962 . S
C630 H644 0.960 . S
C631 C628 1.511 . S
C631 H645 0.961 . S
C631 H646 0.961 . S
C631 H647 0.961 . S
C632 C633 1.370 1_565 S
C632 C634 1.363 . S
C632 H648 0.931 . S
C633 C632 1.370 1_545 S
C633 C637 1.408 . S
C634 C632 1.363 . S
C634 C635 1.370 1_565 S
C634 C638 1.524 . S
C635 C627 1.503 . S
C635 C634 1.370 1_545 S
C635 C636 1.403 . S
C636 C635 1.403 . S
C636 C637 1.404 . S
C636 C639 1.539 . S
C637 C633 1.408 . S
C637 C636 1.404 . S
C637 H649 0.930 . S
C638 C634 1.524 . S
C638 H650 0.956 . S
C638 H651 0.961 . S
C638 H652 0.961 . S
C639 C636 1.539 . S
C639 H653 0.958 . S
C639 H654 0.961 . S
C639 H655 0.960 . S
H640 C624 0.931 . S
H641 C629 0.929 . S
H642 C630 0.960 . S
H643 C630 0.962 . S
H644 C630 0.960 . S
H645 C631 0.961 . S
H646 C631 0.961 . S
H647 C631 0.961 . S
H648 C632 0.931 . S
H649 C637 0.930 . S
H650 C638 0.956 . S
H651 C638 0.961 . S
H652 C638 0.961 . S
H653 C639 0.958 . S
H654 C639 0.961 . S
H655 C639 0.960 . S
C656 C657 1.391 . S
C656 C658 1.394 . S
C656 H672 0.931 . S
C657 C656 1.391 . S
C657 C661 1.376 . S
C658 C656 1.394 . S
C658 C659 1.369 . S
C658 C662 1.531 . S
C659 C658 1.369 . S
C659 C660 1.410 . S
C659 C667 1.503 1_565 S
C660 C659 1.410 . S
C660 C661 1.392 . S
C660 C663 1.511 . S
C661 C657 1.376 . S
C661 C660 1.392 . S
C661 H673 0.929 . S
C662 C658 1.531 . S
C662 H674 0.960 . S
C662 H675 0.962 . S
C662 H676 0.960 . S
C663 C660 1.511 . S
C663 H677 0.961 . S
C663 H678 0.961 1_565 S
C663 H679 0.961 . S
C664 C665 1.370 . S
C664 C666 1.363 . S
C664 H680 0.931 . S
C665 C664 1.370 . S
C665 C669 1.408 . S
C666 C664 1.363 . S
C666 C667 1.370 . S
C666 C670 1.524 . S
C667 C659 1.503 1_545 S
C667 C666 1.370 . S
C667 C668 1.403 . S
C668 C667 1.403 . S
C668 C669 1.404 . S
C668 C671 1.539 . S
C669 C665 1.408 . S
C669 C668 1.404 . S
C669 H681 0.930 . S
C670 C666 1.524 . S
C670 H682 0.956 . S
C670 H683 0.961 . S
C670 H684 0.961 . S
C671 C668 1.539 . S
C671 H685 0.958 . S
C671 H686 0.961 . S
C671 H687 0.960 1_545 S
H672 C656 0.931 . S
H673 C661 0.929 . S
H674 C662 0.960 . S
H675 C662 0.962 . S
H676 C662 0.960 . S
H677 C663 0.961 . S
H678 C663 0.961 1_545 S
H679 C663 0.961 . S
H680 C664 0.931 . S
H681 C669 0.930 . S
H682 C670 0.956 . S
H683 C670 0.961 . S
H684 C670 0.961 . S
H685 C671 0.958 . S
H686 C671 0.961 . S
H687 C671 0.960 1_565 S
C688 C689 1.391 . S
C688 C690 1.394 . S
C688 H704 0.931 . S
C689 C688 1.391 . S
C689 C693 1.376 . S
C690 C688 1.394 . S
C690 C691 1.369 . S
C690 C694 1.531 . S
C691 C690 1.369 . S
C691 C692 1.410 . S
C691 C699 1.503 1_655 S
C692 C691 1.410 . S
C692 C693 1.392 . S
C692 C695 1.511 . S
C693 C689 1.376 . S
C693 C692 1.392 . S
C693 H705 0.929 . S
C694 C690 1.531 . S
C694 H706 0.960 1_655 S
C694 H707 0.962 . S
C694 H708 0.960 . S
C695 C692 1.511 . S
C695 H709 0.961 . S
C695 H710 0.961 1_655 S
C695 H711 0.961 . S
C696 C697 1.370 . S
C696 C698 1.363 . S
C696 H712 0.931 . S
C697 C696 1.370 . S
C697 C701 1.408 . S
C698 C696 1.363 . S
C698 C699 1.370 . S
C698 C702 1.524 . S
C699 C691 1.503 1_455 S
C699 C698 1.370 . S
C699 C700 1.403 . S
C700 C699 1.403 . S
C700 C701 1.404 . S
C700 C703 1.539 . S
C701 C697 1.408 . S
C701 C700 1.404 . S
C701 H713 0.930 . S
C702 C698 1.524 . S
C702 H714 0.956 1_455 S
C702 H715 0.961 1_455 S
C702 H716 0.961 . S
C703 C700 1.539 . S
C703 H717 0.958 . S
C703 H718 0.961 . S
C703 H719 0.960 . S
H704 C688 0.931 . S
H705 C693 0.929 . S
H706 C694 0.960 1_455 S
H707 C694 0.962 . S
H708 C694 0.960 . S
H709 C695 0.961 . S
H710 C695 0.961 1_455 S
H711 C695 0.961 . S
H712 C696 0.931 . S
H713 C701 0.930 . S
H714 C702 0.956 1_655 S
H715 C702 0.961 1_655 S
H716 C702 0.961 . S
H717 C703 0.958 . S
H718 C703 0.961 . S
H719 C703 0.960 . S
C720 C721 1.391 . S
C720 C722 1.394 . S
C720 H736 0.931 . S
C721 C720 1.391 . S
C721 C725 1.376 . S
C722 C720 1.394 . S
C722 C723 1.369 . S
C722 C726 1.531 . S
C723 C722 1.369 . S
C723 C724 1.410 . S
C723 C731 1.503 1_565 S
C724 C723 1.410 . S
C724 C725 1.392 . S
C724 C727 1.511 . S
C725 C721 1.376 . S
C725 C724 1.392 . S
C725 H737 0.929 . S
C726 C722 1.531 . S
C726 H738 0.960 . S
C726 H739 0.962 . S
C726 H740 0.960 . S
C727 C724 1.511 . S
C727 H741 0.961 . S
C727 H742 0.961 1_565 S
C727 H743 0.961 . S
C728 C729 1.370 . S
C728 C730 1.363 . S
C728 H744 0.931 . S
C729 C728 1.370 . S
C729 C733 1.408 . S
C730 C728 1.363 . S
C730 C731 1.370 . S
C730 C734 1.524 . S
C731 C723 1.503 1_545 S
C731 C730 1.370 . S
C731 C732 1.403 . S
C732 C731 1.403 . S
C732 C733 1.404 . S
C732 C735 1.539 . S
C733 C729 1.408 . S
C733 C732 1.404 . S
C733 H745 0.930 . S
C734 C730 1.524 . S
C734 H746 0.956 . S
C734 H747 0.961 . S
C734 H748 0.961 . S
C735 C732 1.539 . S
C735 H749 0.958 . S
C735 H750 0.961 . S
C735 H751 0.960 1_545 S
H736 C720 0.931 . S
H737 C725 0.929 . S
H738 C726 0.960 . S
H739 C726 0.962 . S
H740 C726 0.960 . S
H741 C727 0.961 . S
H742 C727 0.961 1_545 S
H743 C727 0.961 . S
H744 C728 0.931 . S
H745 C733 0.930 . S
H746 C734 0.956 . S
H747 C734 0.961 . S
H748 C734 0.961 . S
H749 C735 0.958 . S
H750 C735 0.961 . S
H751 C735 0.960 1_565 S
C752 C753 1.391 . S
C752 C754 1.394 . S
C752 H768 0.931 . S
C753 C752 1.391 . S
C753 C757 1.376 . S
C754 C752 1.394 . S
C754 C755 1.369 . S
C754 C758 1.531 . S
C755 C754 1.369 . S
C755 C756 1.410 . S
C755 C763 1.503 1_655 S
C756 C755 1.410 . S
C756 C757 1.392 . S
C756 C759 1.511 . S
C757 C753 1.376 . S
C757 C756 1.392 . S
C757 H769 0.929 . S
C758 C754 1.531 . S
C758 H770 0.960 . S
C758 H771 0.962 . S
C758 H772 0.960 . S
C759 C756 1.511 . S
C759 H773 0.961 . S
C759 H774 0.961 1_655 S
C759 H775 0.961 . S
C760 C761 1.370 . S
C760 C762 1.363 . S
C760 H776 0.931 . S
C761 C760 1.370 . S
C761 C765 1.408 . S
C762 C760 1.363 . S
C762 C763 1.370 . S
C762 C766 1.524 . S
C763 C755 1.503 1_455 S
C763 C762 1.370 . S
C763 C764 1.403 . S
C764 C763 1.403 . S
C764 C765 1.404 . S
C764 C767 1.539 . S
C765 C761 1.408 . S
C765 C764 1.404 . S
C765 H777 0.930 . S
C766 C762 1.524 . S
C766 H778 0.956 1_455 S
C766 H779 0.970 . S
C766 H780 0.961 . S
C767 C764 1.539 . S
C767 H781 0.958 . S
C767 H782 0.961 . S
C767 H783 0.960 . S
H768 C752 0.931 . S
H769 C757 0.929 . S
H770 C758 0.960 . S
H771 C758 0.962 . S
H772 C758 0.960 . S
H773 C759 0.961 . S
H774 C759 0.961 1_455 S
H775 C759 0.961 . S
H776 C760 0.931 . S
H777 C765 0.930 . S
H778 C766 0.956 1_655 S
H779 C766 0.970 . S
H780 C766 0.961 . S
H781 C767 0.958 . S
H782 C767 0.961 . S
H783 C767 0.960 . S
C784 C785 1.391 . S
C784 C786 1.394 . S
C784 H800 0.931 . S
C785 C784 1.391 . S
C785 C789 1.376 . S
C786 C784 1.394 . S
C786 C787 1.369 . S
C786 C790 1.531 . S
C787 C786 1.369 . S
C787 C788 1.410 . S
C787 C795 1.503 . S
C788 C787 1.410 . S
C788 C789 1.392 . S
C788 C791 1.511 . S
C789 C785 1.376 . S
C789 C788 1.392 . S
C789 H801 0.929 . S
C790 C786 1.531 . S
C790 H802 0.960 . S
C790 H803 0.962 . S
C790 H804 0.960 . S
C791 C788 1.511 . S
C791 H805 0.961 . S
C791 H806 0.961 . S
C791 H807 0.961 . S
C792 C793 1.370 . S
C792 C794 1.363 . S
C792 H808 0.931 . S
C793 C792 1.370 . S
C793 C797 1.408 . S
C794 C792 1.363 . S
C794 C795 1.370 . S
C794 C798 1.524 . S
C795 C787 1.503 . S
C795 C794 1.370 . S
C795 C796 1.403 . S
C796 C795 1.403 . S
C796 C797 1.404 . S
C796 C799 1.539 . S
C797 C793 1.408 . S
C797 C796 1.404 . S
C797 H809 0.930 . S
C798 C794 1.524 . S
C798 H810 0.956 . S
C798 H811 0.961 . S
C798 H812 0.961 . S
C799 C796 1.539 . S
C799 H813 0.958 . S
C799 H814 0.961 . S
C799 H815 0.960 . S
H800 C784 0.931 . S
H801 C789 0.929 . S
H802 C790 0.960 . S
H803 C790 0.962 . S
H804 C790 0.960 . S
H805 C791 0.961 . S
H806 C791 0.961 . S
H807 C791 0.961 . S
H808 C792 0.931 . S
H809 C797 0.930 . S
H810 C798 0.956 . S
H811 C798 0.961 . S
H812 C798 0.961 . S
H813 C799 0.958 . S
H814 C799 0.961 . S
H815 C799 0.960 . S
C816 C817 1.391 . S
C816 C818 1.394 . S
C816 H832 0.931 . S
C817 C816 1.391 . S
C817 C821 1.376 . S
C818 C816 1.394 . S
C818 C819 1.369 . S
C818 C822 1.531 . S
C819 C818 1.369 . S
C819 C820 1.410 . S
C819 C827 1.503 . S
C820 C819 1.410 . S
C820 C821 1.392 . S
C820 C823 1.511 . S
C821 C817 1.376 . S
C821 C820 1.392 . S
C821 H833 0.929 . S
C822 C818 1.531 . S
C822 H834 0.960 . S
C822 H835 0.962 . S
C822 H836 0.960 . S
C823 C820 1.511 . S
C823 H837 0.961 . S
C823 H838 0.961 . S
C823 H839 0.961 . S
C824 C825 1.370 . S
C824 C826 1.363 . S
C824 H840 0.931 . S
C825 C824 1.370 . S
C825 C829 1.408 . S
C826 C824 1.363 . S
C826 C827 1.370 . S
C826 C830 1.524 . S
C827 C819 1.503 . S
C827 C826 1.370 . S
C827 C828 1.403 . S
C828 C827 1.403 . S
C828 C829 1.404 . S
C828 C831 1.539 . S
C829 C825 1.408 . S
C829 C828 1.404 . S
C829 H841 0.930 . S
C830 C826 1.524 . S
C830 H842 0.956 . S
C830 H843 0.961 . S
C830 H844 0.961 . S
C831 C828 1.539 . S
C831 H845 0.958 . S
C831 H846 0.961 . S
C831 H847 0.960 . S
H832 C816 0.931 . S
H833 C821 0.929 . S
H834 C822 0.960 . S
H835 C822 0.962 . S
H836 C822 0.960 . S
H837 C823 0.961 . S
H838 C823 0.961 . S
H839 C823 0.961 . S
H840 C824 0.931 . S
H841 C829 0.930 . S
H842 C830 0.956 . S
H843 C830 0.961 . S
H844 C830 0.961 . S
H845 C831 0.958 . S
H846 C831 0.961 . S
H847 C831 0.960 . S
C848 C849 1.391 . S
C848 C850 1.394 . S
C848 H864 0.931 . S
C849 C848 1.391 . S
C849 C853 1.376 . S
C850 C848 1.394 . S
C850 C851 1.369 . S
C850 C854 1.531 . S
C851 C850 1.369 . S
C851 C852 1.410 . S
C851 C859 1.503 . S
C852 C851 1.410 . S
C852 C853 1.392 . S
C852 C855 1.511 . S
C853 C849 1.376 . S
C853 C852 1.392 . S
C853 H865 0.929 . S
C854 C850 1.531 . S
C854 H866 0.960 . S
C854 H867 0.962 . S
C854 H868 0.960 . S
C855 C852 1.511 . S
C855 H869 0.961 . S
C855 H870 0.961 . S
C855 H871 0.961 . S
C856 C857 1.370 . S
C856 C858 1.363 . S
C856 H872 0.931 . S
C857 C856 1.370 . S
C857 C861 1.408 . S
C858 C856 1.363 . S
C858 C859 1.370 . S
C858 C862 1.524 . S
C859 C851 1.503 . S
C859 C858 1.370 . S
C859 C860 1.403 . S
C860 C859 1.403 . S
C860 C861 1.404 . S
C860 C863 1.539 . S
C861 C857 1.408 . S
C861 C860 1.404 . S
C861 H873 0.930 . S
C862 C858 1.524 . S
C862 H874 0.956 . S
C862 H875 0.961 . S
C862 H876 0.961 . S
C863 C860 1.539 . S
C863 H877 0.958 . S
C863 H878 0.961 . S
C863 H879 0.960 . S
H864 C848 0.931 . S
H865 C853 0.929 . S
H866 C854 0.960 . S
H867 C854 0.962 . S
H868 C854 0.960 . S
H869 C855 0.961 . S
H870 C855 0.961 . S
H871 C855 0.961 . S
H872 C856 0.931 . S
H873 C861 0.930 . S
H874 C862 0.956 . S
H875 C862 0.961 . S
H876 C862 0.961 . S
H877 C863 0.958 . S
H878 C863 0.961 . S
H879 C863 0.960 . S
C880 C881 1.391 . S
C880 C882 1.394 . S
C880 H896 0.931 . S
C881 C880 1.391 . S
C881 C885 1.376 . S
C882 C880 1.394 . S
C882 C883 1.369 . S
C882 C886 1.531 . S
C883 C882 1.369 . S
C883 C884 1.410 . S
C883 C891 1.503 . S
C884 C883 1.410 . S
C884 C885 1.392 . S
C884 C887 1.511 . S
C885 C881 1.376 . S
C885 C884 1.392 . S
C885 H897 0.929 . S
C886 C882 1.531 . S
C886 H898 0.960 . S
C886 H899 0.962 . S
C886 H900 0.960 . S
C887 C884 1.511 . S
C887 H901 0.961 . S
C887 H902 0.961 . S
C887 H903 0.961 . S
C888 C889 1.370 . S
C888 C890 1.363 . S
C888 H904 0.931 . S
C889 C888 1.370 . S
C889 C893 1.408 . S
C890 C888 1.363 . S
C890 C891 1.370 . S
C890 C894 1.524 . S
C891 C883 1.503 . S
C891 C890 1.370 . S
C891 C892 1.403 . S
C892 C891 1.403 . S
C892 C893 1.404 . S
C892 C895 1.539 . S
C893 C889 1.408 . S
C893 C892 1.404 . S
C893 H905 0.930 . S
C894 C890 1.524 . S
C894 H906 0.956 . S
C894 H907 0.961 . S
C894 H908 0.961 . S
C895 C892 1.539 . S
C895 H909 0.958 . S
C895 H910 0.961 . S
C895 H911 0.960 . S
H896 C880 0.931 . S
H897 C885 0.929 . S
H898 C886 0.960 . S
H899 C886 0.962 . S
H900 C886 0.960 . S
H901 C887 0.961 . S
H902 C887 0.961 . S
H903 C887 0.961 . S
H904 C888 0.931 . S
H905 C893 0.930 . S
H906 C894 0.956 . S
H907 C894 0.961 . S
H908 C894 0.961 . S
H909 C895 0.958 . S
H910 C895 0.961 . S
H911 C895 0.960 . S
C912 C913 1.391 . S
C912 C914 1.394 . S
C912 H928 0.931 . S
C913 C912 1.391 . S
C913 C917 1.376 . S
C914 C912 1.394 . S
C914 C915 1.369 . S
C914 C918 1.531 . S
C915 C914 1.369 . S
C915 C916 1.410 . S
C915 C923 1.503 . S
C916 C915 1.410 . S
C916 C917 1.392 . S
C916 C919 1.511 . S
C917 C913 1.376 . S
C917 C916 1.392 . S
C917 H929 0.929 . S
C918 C914 1.531 . S
C918 H930 0.960 . S
C918 H931 0.962 . S
C918 H932 0.960 . S
C919 C916 1.511 . S
C919 H933 0.961 . S
C919 H934 0.961 . S
C919 H935 0.961 . S
C920 C921 1.370 . S
C920 C922 1.363 . S
C920 H936 0.931 . S
C921 C920 1.370 . S
C921 C925 1.408 . S
C922 C920 1.363 . S
C922 C923 1.370 . S
C922 C926 1.524 . S
C923 C915 1.503 . S
C923 C922 1.370 . S
C923 C924 1.403 . S
C924 C923 1.403 . S
C924 C925 1.404 . S
C924 C927 1.539 . S
C925 C921 1.408 . S
C925 C924 1.404 . S
C925 H937 0.930 . S
C926 C922 1.524 . S
C926 H938 0.956 . S
C926 H939 0.961 . S
C926 H940 0.961 . S
C927 C924 1.539 . S
C927 H941 0.958 . S
C927 H942 0.961 . S
C927 H943 0.960 . S
H928 C912 0.931 . S
H929 C917 0.929 . S
H930 C918 0.960 . S
H931 C918 0.962 . S
H932 C918 0.960 . S
H933 C919 0.961 . S
H934 C919 0.961 . S
H935 C919 0.961 . S
H936 C920 0.931 . S
H937 C925 0.930 . S
H938 C926 0.956 . S
H939 C926 0.961 . S
H940 C926 0.961 . S
H941 C927 0.958 . S
H942 C927 0.961 . S
H943 C927 0.960 . S
C944 C945 1.391 . S
C944 C946 1.394 . S
C944 H960 0.931 . S
C945 C944 1.391 . S
C945 C949 1.376 . S
C946 C944 1.394 . S
C946 C947 1.369 . S
C946 C950 1.531 . S
C947 C946 1.369 . S
C947 C948 1.410 . S
C947 C955 1.503 . S
C948 C947 1.410 . S
C948 C949 1.392 . S
C948 C951 1.511 . S
C949 C945 1.376 . S
C949 C948 1.392 . S
C949 H961 0.929 . S
C950 C946 1.531 . S
C950 H962 0.960 . S
C950 H963 0.962 . S
C950 H964 0.960 . S
C951 C948 1.511 . S
C951 H965 0.961 . S
C951 H966 0.961 . S
C951 H967 0.961 . S
C952 C953 1.370 . S
C952 C954 1.363 . S
C952 H968 0.931 . S
C953 C952 1.370 . S
C953 C957 1.408 . S
C954 C952 1.363 . S
C954 C955 1.370 . S
C954 C958 1.524 . S
C955 C947 1.503 . S
C955 C954 1.370 . S
C955 C956 1.403 . S
C956 C955 1.403 . S
C956 C957 1.404 . S
C956 C959 1.539 . S
C957 C953 1.408 . S
C957 C956 1.404 . S
C957 H969 0.930 . S
C958 C954 1.524 . S
C958 H970 0.956 . S
C958 H971 0.961 . S
C958 H972 0.961 . S
C959 C956 1.539 . S
C959 H973 0.958 . S
C959 H974 0.961 . S
C959 H975 0.960 . S
H960 C944 0.931 . S
H961 C949 0.929 . S
H962 C950 0.960 . S
H963 C950 0.962 . S
H964 C950 0.960 . S
H965 C951 0.961 . S
H966 C951 0.961 . S
H967 C951 0.961 . S
H968 C952 0.931 . S
H969 C957 0.930 . S
H970 C958 0.956 . S
H971 C958 0.961 . S
H972 C958 0.961 . S
H973 C959 0.958 . S
H974 C959 0.961 . S
H975 C959 0.960 . S
C976 C977 1.391 . S
C976 C978 1.394 . S
C976 H992 0.931 . S
C977 C976 1.391 . S
C977 C981 1.376 . S
C978 C976 1.394 . S
C978 C979 1.369 . S
C978 C982 1.531 . S
C979 C978 1.369 . S
C979 C980 1.410 . S
C979 C987 1.503 . S
C980 C979 1.410 . S
C980 C981 1.392 . S
C980 C983 1.511 . S
C981 C977 1.376 . S
C981 C980 1.392 . S
C981 H993 0.929 . S
C982 C978 1.531 . S
C982 H994 0.960 . S
C982 H995 0.962 . S
C982 H996 0.960 . S
C983 C980 1.511 . S
C983 H997 0.961 . S
C983 H998 0.961 . S
C983 H999 0.961 . S
C984 C985 1.370 . S
C984 C986 1.363 . S
C984 H1000 0.931 . S
C985 C984 1.370 . S
C985 C989 1.408 . S
C986 C984 1.363 . S
C986 C987 1.370 . S
C986 C990 1.524 . S
C987 C979 1.503 . S
C987 C986 1.370 . S
C987 C988 1.403 . S
C988 C987 1.403 . S
C988 C989 1.404 . S
C988 C991 1.539 . S
C989 C985 1.408 . S
C989 C988 1.404 . S
C989 H1001 0.930 . S
C990 C986 1.524 . S
C990 H1002 0.956 . S
C990 H1003 0.961 . S
C990 H1004 0.961 . S
C991 C988 1.539 . S
C991 H1005 0.958 . S
C991 H1006 0.961 . S
C991 H1007 0.960 . S
H992 C976 0.931 . S
H993 C981 0.929 . S
H994 C982 0.960 . S
H995 C982 0.962 . S
H996 C982 0.960 . S
H997 C983 0.961 . S
H998 C983 0.961 . S
H999 C983 0.961 . S
H1000 C984 0.931 . S
H1001 C989 0.930 . S
H1002 C990 0.956 . S
H1003 C990 0.961 . S
H1004 C990 0.961 . S
H1005 C991 0.958 . S
H1006 C991 0.961 . S
H1007 C991 0.960 . S
C1008 C1009 1.391 . S
C1008 C1010 1.394 . S
C1008 H1024 0.931 . S
C1009 C1008 1.391 . S
C1009 C1013 1.376 . S
C1010 C1008 1.394 . S
C1010 C1011 1.369 . S
C1010 C1014 1.531 . S
C1011 C1010 1.369 . S
C1011 C1012 1.410 . S
C1011 C1019 1.503 . S
C1012 C1011 1.410 . S
C1012 C1013 1.392 . S
C1012 C1015 1.511 . S
C1013 C1009 1.376 . S
C1013 C1012 1.392 . S
C1013 H1025 0.929 . S
C1014 C1010 1.531 . S
C1014 H1026 0.960 . S
C1014 H1027 0.962 . S
C1014 H1028 0.960 . S
C1015 C1012 1.511 . S
C1015 H1029 0.961 . S
C1015 H1030 0.961 . S
C1015 H1031 0.961 . S
C1016 C1017 1.370 . S
C1016 C1018 1.363 . S
C1016 H1032 0.931 . S
C1017 C1016 1.370 . S
C1017 C1021 1.408 . S
C1018 C1016 1.363 . S
C1018 C1019 1.370 . S
C1018 C1022 1.524 . S
C1019 C1011 1.503 . S
C1019 C1018 1.370 . S
C1019 C1020 1.403 . S
C1020 C1019 1.403 . S
C1020 C1021 1.404 . S
C1020 C1023 1.539 . S
C1021 C1017 1.408 . S
C1021 C1020 1.404 . S
C1021 H1033 0.930 . S
C1022 C1018 1.524 . S
C1022 H1034 0.956 . S
C1022 H1035 0.961 . S
C1022 H1036 0.961 . S
C1023 C1020 1.539 . S
C1023 H1037 0.958 . S
C1023 H1038 0.961 . S
C1023 H1039 0.960 . S
H1024 C1008 0.931 . S
H1025 C1013 0.929 . S
H1026 C1014 0.960 . S
H1027 C1014 0.962 . S
H1028 C1014 0.960 . S
H1029 C1015 0.961 . S
H1030 C1015 0.961 . S
H1031 C1015 0.961 . S
H1032 C1016 0.931 . S
H1033 C1021 0.930 . S
H1034 C1022 0.956 . S
H1035 C1022 0.961 . S
H1036 C1022 0.961 . S
H1037 C1023 0.958 . S
H1038 C1023 0.961 . S
H1039 C1023 0.960 . S
C1040 C1041 1.391 . S
C1040 C1042 1.394 . S
C1040 H1056 0.931 . S
C1041 C1040 1.391 . S
C1041 C1045 1.376 . S
C1042 C1040 1.394 . S
C1042 C1043 1.369 . S
C1042 C1046 1.531 . S
C1043 C1042 1.369 . S
C1043 C1044 1.410 . S
C1043 C1051 1.503 . S
C1044 C1043 1.410 . S
C1044 C1045 1.392 . S
C1044 C1047 1.511 . S
C1045 C1041 1.376 . S
C1045 C1044 1.392 . S
C1045 H1057 0.929 . S
C1046 C1042 1.531 . S
C1046 H1058 0.960 . S
C1046 H1059 0.962 . S
C1046 H1060 0.960 . S
C1047 C1044 1.511 . S
C1047 H1061 0.961 . S
C1047 H1062 0.961 . S
C1047 H1063 0.961 . S
C1048 C1049 1.370 . S
C1048 C1050 1.363 . S
C1048 H1064 0.931 . S
C1049 C1048 1.370 . S
C1049 C1053 1.408 . S
C1050 C1048 1.363 . S
C1050 C1051 1.370 . S
C1050 C1054 1.524 . S
C1051 C1043 1.503 . S
C1051 C1050 1.370 . S
C1051 C1052 1.403 . S
C1052 C1051 1.403 . S
C1052 C1053 1.404 . S
C1052 C1055 1.539 . S
C1053 C1049 1.408 . S
C1053 C1052 1.404 . S
C1053 H1065 0.930 . S
C1054 C1050 1.524 . S
C1054 H1066 0.956 . S
C1054 H1067 0.961 . S
C1054 H1068 0.961 . S
C1055 C1052 1.539 . S
C1055 H1069 0.958 . S
C1055 H1070 0.961 . S
C1055 H1071 0.960 . S
H1056 C1040 0.931 . S
H1057 C1045 0.929 . S
H1058 C1046 0.960 . S
H1059 C1046 0.962 . S
H1060 C1046 0.960 . S
H1061 C1047 0.961 . S
H1062 C1047 0.961 . S
H1063 C1047 0.961 . S
H1064 C1048 0.931 . S
H1065 C1053 0.930 . S
H1066 C1054 0.956 . S
H1067 C1054 0.961 . S
H1068 C1054 0.961 . S
H1069 C1055 0.958 . S
H1070 C1055 0.961 . S
H1071 C1055 0.960 . S
C1072 C1073 1.391 . S
C1072 C1074 1.394 . S
C1072 H1088 0.931 . S
C1073 C1072 1.391 . S
C1073 C1077 1.376 . S
C1074 C1072 1.394 . S
C1074 C1075 1.369 . S
C1074 C1078 1.531 . S
C1075 C1074 1.369 . S
C1075 C1076 1.410 . S
C1075 C1083 1.503 . S
C1076 C1075 1.410 . S
C1076 C1077 1.392 . S
C1076 C1079 1.511 . S
C1077 C1073 1.376 . S
C1077 C1076 1.392 . S
C1077 H1089 0.929 . S
C1078 C1074 1.531 . S
C1078 H1090 0.960 . S
C1078 H1091 0.962 . S
C1078 H1092 0.960 . S
C1079 C1076 1.511 . S
C1079 H1093 0.961 . S
C1079 H1094 0.961 . S
C1079 H1095 0.961 . S
C1080 C1081 1.370 . S
C1080 C1082 1.363 . S
C1080 H1096 0.931 . S
C1081 C1080 1.370 . S
C1081 C1085 1.408 . S
C1082 C1080 1.363 . S
C1082 C1083 1.370 . S
C1082 C1086 1.524 . S
C1083 C1075 1.503 . S
C1083 C1082 1.370 . S
C1083 C1084 1.403 . S
C1084 C1083 1.403 . S
C1084 C1085 1.404 . S
C1084 C1087 1.539 . S
C1085 C1081 1.408 . S
C1085 C1084 1.404 . S
C1085 H1097 0.930 . S
C1086 C1082 1.524 . S
C1086 H1098 0.956 . S
C1086 H1099 0.961 . S
C1086 H1100 0.961 . S
C1087 C1084 1.539 . S
C1087 H1101 0.958 . S
C1087 H1102 0.961 . S
C1087 H1103 0.960 . S
H1088 C1072 0.931 . S
H1089 C1077 0.929 . S
H1090 C1078 0.960 . S
H1091 C1078 0.962 . S
H1092 C1078 0.960 . S
H1093 C1079 0.961 . S
H1094 C1079 0.961 . S
H1095 C1079 0.961 . S
H1096 C1080 0.931 . S
H1097 C1085 0.930 . S
H1098 C1086 0.956 . S
H1099 C1086 0.961 . S
H1100 C1086 0.961 . S
H1101 C1087 0.958 . S
H1102 C1087 0.961 . S
H1103 C1087 0.960 . S
C1104 C1105 1.391 . S
C1104 C1106 1.394 . S
C1104 H1120 0.931 . S
C1105 C1104 1.391 . S
C1105 C1109 1.376 . S
C1106 C1104 1.394 . S
C1106 C1107 1.369 . S
C1106 C1110 1.531 . S
C1107 C1106 1.369 . S
C1107 C1108 1.410 . S
C1107 C1115 1.503 . S
C1108 C1107 1.410 . S
C1108 C1109 1.392 . S
C1108 C1111 1.511 . S
C1109 C1105 1.376 . S
C1109 C1108 1.392 . S
C1109 H1121 0.929 . S
C1110 C1106 1.531 . S
C1110 H1122 0.960 . S
C1110 H1123 0.962 . S
C1110 H1124 0.960 . S
C1111 C1108 1.511 . S
C1111 H1125 0.961 . S
C1111 H1126 0.961 . S
C1111 H1127 0.961 . S
C1112 C1113 1.370 . S
C1112 C1114 1.363 . S
C1112 H1128 0.931 . S
C1113 C1112 1.370 . S
C1113 C1117 1.408 . S
C1114 C1112 1.363 . S
C1114 C1115 1.370 . S
C1114 C1118 1.524 . S
C1115 C1107 1.503 . S
C1115 C1114 1.370 . S
C1115 C1116 1.403 . S
C1116 C1115 1.403 . S
C1116 C1117 1.404 . S
C1116 C1119 1.539 . S
C1117 C1113 1.408 . S
C1117 C1116 1.404 . S
C1117 H1129 0.930 . S
C1118 C1114 1.524 . S
C1118 H1130 0.956 . S
C1118 H1131 0.961 . S
C1118 H1132 0.961 . S
C1119 C1116 1.539 . S
C1119 H1133 0.958 . S
C1119 H1134 0.961 . S
C1119 H1135 0.960 . S
H1120 C1104 0.931 . S
H1121 C1109 0.929 . S
H1122 C1110 0.960 . S
H1123 C1110 0.962 . S
H1124 C1110 0.960 . S
H1125 C1111 0.961 . S
H1126 C1111 0.961 . S
H1127 C1111 0.961 . S
H1128 C1112 0.931 . S
H1129 C1117 0.930 . S
H1130 C1118 0.956 . S
H1131 C1118 0.961 . S
H1132 C1118 0.961 . S
H1133 C1119 0.958 . S
H1134 C1119 0.961 . S
H1135 C1119 0.960 . S
C1136 C1137 1.391 . S
C1136 C1138 1.394 . S
C1136 H1152 0.931 . S
C1137 C1136 1.391 . S
C1137 C1141 1.376 . S
C1138 C1136 1.394 . S
C1138 C1139 1.369 . S
C1138 C1142 1.531 . S
C1139 C1138 1.369 . S
C1139 C1140 1.410 . S
C1139 C1147 1.503 . S
C1140 C1139 1.410 . S
C1140 C1141 1.392 . S
C1140 C1143 1.511 . S
C1141 C1137 1.376 . S
C1141 C1140 1.392 . S
C1141 H1153 0.929 . S
C1142 C1138 1.531 . S
C1142 H1154 0.960 . S
C1142 H1155 0.962 . S
C1142 H1156 0.960 . S
C1143 C1140 1.511 . S
C1143 H1157 0.961 . S
C1143 H1158 0.961 . S
C1143 H1159 0.961 . S
C1144 C1145 1.370 . S
C1144 C1146 1.363 . S
C1144 H1160 0.931 . S
C1145 C1144 1.370 . S
C1145 C1149 1.408 . S
C1146 C1144 1.363 . S
C1146 C1147 1.370 . S
C1146 C1150 1.524 . S
C1147 C1139 1.503 . S
C1147 C1146 1.370 . S
C1147 C1148 1.403 . S
C1148 C1147 1.403 . S
C1148 C1149 1.404 . S
C1148 C1151 1.539 . S
C1149 C1145 1.408 . S
C1149 C1148 1.404 . S
C1149 H1161 0.930 . S
C1150 C1146 1.524 . S
C1150 H1162 0.956 . S
C1150 H1163 0.961 . S
C1150 H1164 0.961 . S
C1151 C1148 1.539 . S
C1151 H1165 0.958 . S
C1151 H1166 0.961 . S
C1151 H1167 0.960 . S
H1152 C1136 0.931 . S
H1153 C1141 0.929 . S
H1154 C1142 0.960 . S
H1155 C1142 0.962 . S
H1156 C1142 0.960 . S
H1157 C1143 0.961 . S
H1158 C1143 0.961 . S
H1159 C1143 0.961 . S
H1160 C1144 0.931 . S
H1161 C1149 0.930 . S
H1162 C1150 0.956 . S
H1163 C1150 0.961 . S
H1164 C1150 0.961 . S
H1165 C1151 0.958 . S
H1166 C1151 0.961 . S
H1167 C1151 0.960 . S
C1168 C1169 1.391 . S
C1168 C1170 1.394 . S
C1168 H1184 0.931 . S
C1169 C1168 1.391 . S
C1169 C1173 1.376 . S
C1170 C1168 1.394 . S
C1170 C1171 1.369 . S
C1170 C1174 1.531 . S
C1171 C1170 1.369 . S
C1171 C1172 1.410 . S
C1171 C1179 1.503 . S
C1172 C1171 1.410 . S
C1172 C1173 1.392 . S
C1172 C1175 1.511 . S
C1173 C1169 1.376 . S
C1173 C1172 1.392 . S
C1173 H1185 0.929 . S
C1174 C1170 1.531 . S
C1174 H1186 0.960 . S
C1174 H1187 0.962 . S
C1174 H1188 0.960 . S
C1175 C1172 1.511 . S
C1175 H1189 0.961 . S
C1175 H1190 0.961 . S
C1175 H1191 0.961 . S
C1176 C1177 1.370 . S
C1176 C1178 1.363 . S
C1176 H1192 0.931 . S
C1177 C1176 1.370 . S
C1177 C1181 1.408 . S
C1178 C1176 1.363 . S
C1178 C1179 1.370 . S
C1178 C1182 1.524 . S
C1179 C1171 1.503 . S
C1179 C1178 1.370 . S
C1179 C1180 1.403 . S
C1180 C1179 1.403 . S
C1180 C1181 1.404 . S
C1180 C1183 1.539 . S
C1181 C1177 1.408 . S
C1181 C1180 1.404 . S
C1181 H1193 0.930 . S
C1182 C1178 1.524 . S
C1182 H1194 0.956 . S
C1182 H1195 0.961 . S
C1182 H1196 0.961 . S
C1183 C1180 1.539 . S
C1183 H1197 0.958 . S
C1183 H1198 0.961 . S
C1183 H1199 0.960 . S
H1184 C1168 0.931 . S
H1185 C1173 0.929 . S
H1186 C1174 0.960 . S
H1187 C1174 0.962 . S
H1188 C1174 0.960 . S
H1189 C1175 0.961 . S
H1190 C1175 0.961 . S
H1191 C1175 0.961 . S
H1192 C1176 0.931 . S
H1193 C1181 0.930 . S
H1194 C1182 0.956 . S
H1195 C1182 0.961 . S
H1196 C1182 0.961 . S
H1197 C1183 0.958 . S
H1198 C1183 0.961 . S
H1199 C1183 0.960 . S
C1200 C1201 1.391 . S
C1200 C1202 1.394 . S
C1200 H1216 0.931 . S
C1201 C1200 1.391 . S
C1201 C1205 1.376 . S
C1202 C1200 1.394 . S
C1202 C1203 1.369 . S
C1202 C1206 1.531 . S
C1203 C1202 1.369 . S
C1203 C1204 1.410 . S
C1203 C1211 1.503 . S
C1204 C1203 1.410 . S
C1204 C1205 1.392 . S
C1204 C1207 1.511 . S
C1205 C1201 1.376 . S
C1205 C1204 1.392 . S
C1205 H1217 0.929 . S
C1206 C1202 1.531 . S
C1206 H1218 0.960 . S
C1206 H1219 0.962 . S
C1206 H1220 0.960 . S
C1207 C1204 1.511 . S
C1207 H1221 0.961 . S
C1207 H1222 0.961 . S
C1207 H1223 0.961 . S
C1208 C1209 1.370 . S
C1208 C1210 1.363 . S
C1208 H1224 0.931 . S
C1209 C1208 1.370 . S
C1209 C1213 1.408 . S
C1210 C1208 1.363 . S
C1210 C1211 1.370 . S
C1210 C1214 1.524 . S
C1211 C1203 1.503 . S
C1211 C1210 1.370 . S
C1211 C1212 1.403 . S
C1212 C1211 1.403 . S
C1212 C1213 1.404 . S
C1212 C1215 1.539 . S
C1213 C1209 1.408 . S
C1213 C1212 1.404 . S
C1213 H1225 0.930 . S
C1214 C1210 1.524 . S
C1214 H1226 0.956 . S
C1214 H1227 0.961 . S
C1214 H1228 0.961 . S
C1215 C1212 1.539 . S
C1215 H1229 0.958 . S
C1215 H1230 0.961 . S
C1215 H1231 0.960 . S
H1216 C1200 0.931 . S
H1217 C1205 0.929 . S
H1218 C1206 0.960 . S
H1219 C1206 0.962 . S
H1220 C1206 0.960 . S
H1221 C1207 0.961 . S
H1222 C1207 0.961 . S
H1223 C1207 0.961 . S
H1224 C1208 0.931 . S
H1225 C1213 0.930 . S
H1226 C1214 0.956 . S
H1227 C1214 0.961 . S
H1228 C1214 0.961 . S
H1229 C1215 0.958 . S
H1230 C1215 0.961 . S
H1231 C1215 0.960 . S
C1232 C1233 1.391 . S
C1232 C1234 1.394 . S
C1232 H1248 0.931 . S
C1233 C1232 1.391 . S
C1233 C1237 1.376 . S
C1234 C1232 1.394 . S
C1234 C1235 1.369 . S
C1234 C1238 1.531 . S
C1235 C1234 1.369 . S
C1235 C1236 1.410 . S
C1235 C1243 1.503 . S
C1236 C1235 1.410 . S
C1236 C1237 1.392 . S
C1236 C1239 1.511 . S
C1237 C1233 1.376 . S
C1237 C1236 1.392 . S
C1237 H1249 0.929 . S
C1238 C1234 1.531 . S
C1238 H1250 0.960 . S
C1238 H1251 0.962 . S
C1238 H1252 0.960 . S
C1239 C1236 1.511 . S
C1239 H1253 0.961 . S
C1239 H1254 0.961 . S
C1239 H1255 0.961 . S
C1240 C1241 1.370 . S
C1240 C1242 1.363 . S
C1240 H1256 0.931 . S
C1241 C1240 1.370 . S
C1241 C1245 1.408 . S
C1242 C1240 1.363 . S
C1242 C1243 1.370 . S
C1242 C1246 1.524 . S
C1243 C1235 1.503 . S
C1243 C1242 1.370 . S
C1243 C1244 1.403 . S
C1244 C1243 1.403 . S
C1244 C1245 1.404 . S
C1244 C1247 1.539 . S
C1245 C1241 1.408 . S
C1245 C1244 1.404 . S
C1245 H1257 0.930 . S
C1246 C1242 1.524 . S
C1246 H1258 0.956 . S
C1246 H1259 0.961 . S
C1246 H1260 0.961 . S
C1247 C1244 1.539 . S
C1247 H1261 0.958 . S
C1247 H1262 0.961 . S
C1247 H1263 0.960 . S
H1248 C1232 0.931 . S
H1249 C1237 0.929 . S
H1250 C1238 0.960 . S
H1251 C1238 0.962 . S
H1252 C1238 0.960 . S
H1253 C1239 0.961 . S
H1254 C1239 0.961 . S
H1255 C1239 0.961 . S
H1256 C1240 0.931 . S
H1257 C1245 0.930 . S
H1258 C1246 0.956 . S
H1259 C1246 0.961 . S
H1260 C1246 0.961 . S
H1261 C1247 0.958 . S
H1262 C1247 0.961 . S
H1263 C1247 0.960 . S
C1264 C1265 1.391 . S
C1264 C1266 1.394 . S
C1264 H1280 0.931 . S
C1265 C1264 1.391 . S
C1265 C1269 1.376 . S
C1266 C1264 1.394 . S
C1266 C1267 1.369 . S
C1266 C1270 1.531 . S
C1267 C1266 1.369 . S
C1267 C1268 1.410 . S
C1267 C1275 1.503 . S
C1268 C1267 1.410 . S
C1268 C1269 1.392 . S
C1268 C1271 1.511 . S
C1269 C1265 1.376 . S
C1269 C1268 1.392 . S
C1269 H1281 0.929 . S
C1270 C1266 1.531 . S
C1270 H1282 0.960 . S
C1270 H1283 0.962 . S
C1270 H1284 0.960 . S
C1271 C1268 1.511 . S
C1271 H1285 0.961 . S
C1271 H1286 0.961 . S
C1271 H1287 0.961 . S
C1272 C1273 1.370 . S
C1272 C1274 1.363 . S
C1272 H1288 0.931 . S
C1273 C1272 1.370 . S
C1273 C1277 1.408 . S
C1274 C1272 1.363 . S
C1274 C1275 1.370 . S
C1274 C1278 1.524 . S
C1275 C1267 1.503 . S
C1275 C1274 1.370 . S
C1275 C1276 1.403 . S
C1276 C1275 1.403 . S
C1276 C1277 1.404 . S
C1276 C1279 1.539 . S
C1277 C1273 1.408 . S
C1277 C1276 1.404 . S
C1277 H1289 0.930 . S
C1278 C1274 1.524 . S
C1278 H1290 0.956 . S
C1278 H1291 0.961 . S
C1278 H1292 0.961 . S
C1279 C1276 1.539 . S
C1279 H1293 0.958 . S
C1279 H1294 0.961 . S
C1279 H1295 0.960 . S
H1280 C1264 0.931 . S
H1281 C1269 0.929 . S
H1282 C1270 0.960 . S
H1283 C1270 0.962 . S
H1284 C1270 0.960 . S
H1285 C1271 0.961 . S
H1286 C1271 0.961 . S
H1287 C1271 0.961 . S
H1288 C1272 0.931 . S
H1289 C1277 0.930 . S
H1290 C1278 0.956 . S
H1291 C1278 0.961 . S
H1292 C1278 0.961 . S
H1293 C1279 0.958 . S
H1294 C1279 0.961 . S
H1295 C1279 0.960 . S
C1296 C1297 1.391 . S
C1296 C1298 1.394 . S
C1296 H1312 0.931 . S
C1297 C1296 1.391 . S
C1297 C1301 1.376 . S
C1298 C1296 1.394 . S
C1298 C1299 1.369 . S
C1298 C1302 1.531 . S
C1299 C1298 1.369 . S
C1299 C1300 1.410 . S
C1299 C1307 1.503 . S
C1300 C1299 1.410 . S
C1300 C1301 1.392 . S
C1300 C1303 1.511 . S
C1301 C1297 1.376 . S
C1301 C1300 1.392 . S
C1301 H1313 0.929 . S
C1302 C1298 1.531 . S
C1302 H1314 0.960 . S
C1302 H1315 0.962 . S
C1302 H1316 0.960 . S
C1303 C1300 1.511 . S
C1303 H1317 0.961 . S
C1303 H1318 0.961 . S
C1303 H1319 0.961 . S
C1304 C1305 1.370 . S
C1304 C1306 1.363 . S
C1304 H1320 0.931 . S
C1305 C1304 1.370 . S
C1305 C1309 1.408 . S
C1306 C1304 1.363 . S
C1306 C1307 1.370 . S
C1306 C1310 1.524 . S
C1307 C1299 1.503 . S
C1307 C1306 1.370 . S
C1307 C1308 1.403 . S
C1308 C1307 1.403 . S
C1308 C1309 1.404 . S
C1308 C1311 1.539 . S
C1309 C1305 1.408 . S
C1309 C1308 1.404 . S
C1309 H1321 0.930 . S
C1310 C1306 1.524 . S
C1310 H1322 0.956 . S
C1310 H1323 0.961 . S
C1310 H1324 0.961 . S
C1311 C1308 1.539 . S
C1311 H1325 0.958 . S
C1311 H1326 0.961 . S
C1311 H1327 0.960 . S
H1312 C1296 0.931 . S
H1313 C1301 0.929 . S
H1314 C1302 0.960 . S
H1315 C1302 0.962 . S
H1316 C1302 0.960 . S
H1317 C1303 0.961 . S
H1318 C1303 0.961 . S
H1319 C1303 0.961 . S
H1320 C1304 0.931 . S
H1321 C1309 0.930 . S
H1322 C1310 0.956 . S
H1323 C1310 0.961 . S
H1324 C1310 0.961 . S
H1325 C1311 0.958 . S
H1326 C1311 0.961 . S
H1327 C1311 0.960 . S
C1328 C1329 1.391 . S
C1328 C1330 1.394 . S
C1328 H1344 0.931 . S
C1329 C1328 1.391 . S
C1329 C1333 1.376 . S
C1330 C1328 1.394 . S
C1330 C1331 1.369 . S
C1330 C1334 1.531 . S
C1331 C1330 1.369 . S
C1331 C1332 1.410 . S
C1331 C1339 1.503 . S
C1332 C1331 1.410 . S
C1332 C1333 1.392 . S
C1332 C1335 1.511 . S
C1333 C1329 1.376 . S
C1333 C1332 1.392 . S
C1333 H1345 0.929 . S
C1334 C1330 1.531 . S
C1334 H1346 0.960 . S
C1334 H1347 0.962 . S
C1334 H1348 0.960 . S
C1335 C1332 1.511 . S
C1335 H1349 0.961 . S
C1335 H1350 0.961 . S
C1335 H1351 0.961 . S
C1336 C1337 1.370 . S
C1336 C1338 1.363 . S
C1336 H1352 0.931 . S
C1337 C1336 1.370 . S
C1337 C1341 1.408 . S
C1338 C1336 1.363 . S
C1338 C1339 1.370 . S
C1338 C1342 1.524 . S
C1339 C1331 1.503 . S
C1339 C1338 1.370 . S
C1339 C1340 1.403 . S
C1340 C1339 1.403 . S
C1340 C1341 1.404 . S
C1340 C1343 1.539 . S
C1341 C1337 1.408 . S
C1341 C1340 1.404 . S
C1341 H1353 0.930 . S
C1342 C1338 1.524 . S
C1342 H1354 0.956 . S
C1342 H1355 0.961 . S
C1342 H1356 0.961 . S
C1343 C1340 1.539 . S
C1343 H1357 0.958 . S
C1343 H1358 0.961 . S
C1343 H1359 0.960 . S
H1344 C1328 0.931 . S
H1345 C1333 0.929 . S
H1346 C1334 0.960 . S
H1347 C1334 0.962 . S
H1348 C1334 0.960 . S
H1349 C1335 0.961 . S
H1350 C1335 0.961 . S
H1351 C1335 0.961 . S
H1352 C1336 0.931 . S
H1353 C1341 0.930 . S
H1354 C1342 0.956 . S
H1355 C1342 0.961 . S
H1356 C1342 0.961 . S
H1357 C1343 0.958 . S
H1358 C1343 0.961 . S
H1359 C1343 0.960 . S
C1360 C1361 1.391 . S
C1360 C1362 1.394 . S
C1360 H1376 0.931 . S
C1361 C1360 1.391 . S
C1361 C1365 1.376 . S
C1362 C1360 1.394 . S
C1362 C1363 1.369 . S
C1362 C1366 1.531 . S
C1363 C1362 1.369 . S
C1363 C1364 1.410 . S
C1363 C1371 1.503 . S
C1364 C1363 1.410 . S
C1364 C1365 1.392 . S
C1364 C1367 1.511 . S
C1365 C1361 1.376 . S
C1365 C1364 1.392 . S
C1365 H1377 0.929 . S
C1366 C1362 1.531 . S
C1366 H1378 0.960 . S
C1366 H1379 0.962 . S
C1366 H1380 0.960 . S
C1367 C1364 1.511 . S
C1367 H1381 0.961 . S
C1367 H1382 0.961 . S
C1367 H1383 0.961 . S
C1368 C1369 1.370 . S
C1368 C1370 1.363 . S
C1368 H1384 0.931 . S
C1369 C1368 1.370 . S
C1369 C1373 1.408 . S
C1370 C1368 1.363 . S
C1370 C1371 1.370 . S
C1370 C1374 1.524 . S
C1371 C1363 1.503 . S
C1371 C1370 1.370 . S
C1371 C1372 1.403 . S
C1372 C1371 1.403 . S
C1372 C1373 1.404 . S
C1372 C1375 1.539 . S
C1373 C1369 1.408 . S
C1373 C1372 1.404 . S
C1373 H1385 0.930 . S
C1374 C1370 1.524 . S
C1374 H1386 0.956 . S
C1374 H1387 0.961 . S
C1374 H1388 0.961 . S
C1375 C1372 1.539 . S
C1375 H1389 0.958 . S
C1375 H1390 0.961 . S
C1375 H1391 0.960 . S
H1376 C1360 0.931 . S
H1377 C1365 0.929 . S
H1378 C1366 0.960 . S
H1379 C1366 0.962 . S
H1380 C1366 0.960 . S
H1381 C1367 0.961 . S
H1382 C1367 0.961 . S
H1383 C1367 0.961 . S
H1384 C1368 0.931 . S
H1385 C1373 0.930 . S
H1386 C1374 0.956 . S
H1387 C1374 0.961 . S
H1388 C1374 0.961 . S
H1389 C1375 0.958 . S
H1390 C1375 0.961 . S
H1391 C1375 0.960 . S
C1392 C1393 1.391 . S
C1392 C1394 1.394 . S
C1392 H1408 0.931 . S
C1393 C1392 1.391 . S
C1393 C1397 1.376 . S
C1394 C1392 1.394 . S
C1394 C1395 1.369 . S
C1394 C1398 1.531 . S
C1395 C1394 1.369 . S
C1395 C1396 1.410 . S
C1395 C1403 1.503 . S
C1396 C1395 1.410 . S
C1396 C1397 1.392 . S
C1396 C1399 1.511 . S
C1397 C1393 1.376 . S
C1397 C1396 1.392 . S
C1397 H1409 0.929 . S
C1398 C1394 1.531 . S
C1398 H1410 0.960 . S
C1398 H1411 0.962 . S
C1398 H1412 0.960 . S
C1399 C1396 1.511 . S
C1399 H1413 0.961 . S
C1399 H1414 0.961 . S
C1399 H1415 0.961 . S
C1400 C1401 1.370 . S
C1400 C1402 1.363 . S
C1400 H1416 0.931 . S
C1401 C1400 1.370 . S
C1401 C1405 1.408 . S
C1402 C1400 1.363 . S
C1402 C1403 1.370 . S
C1402 C1406 1.524 . S
C1403 C1395 1.503 . S
C1403 C1402 1.370 . S
C1403 C1404 1.403 . S
C1404 C1403 1.403 . S
C1404 C1405 1.404 . S
C1404 C1407 1.539 . S
C1405 C1401 1.408 . S
C1405 C1404 1.404 . S
C1405 H1417 0.930 . S
C1406 C1402 1.524 . S
C1406 H1418 0.956 . S
C1406 H1419 0.961 . S
C1406 H1420 0.961 . S
C1407 C1404 1.539 . S
C1407 H1421 0.958 . S
C1407 H1422 0.961 . S
C1407 H1423 0.960 . S
H1408 C1392 0.931 . S
H1409 C1397 0.929 . S
H1410 C1398 0.960 . S
H1411 C1398 0.962 . S
H1412 C1398 0.960 . S
H1413 C1399 0.961 . S
H1414 C1399 0.961 . S
H1415 C1399 0.961 . S
H1416 C1400 0.931 . S
H1417 C1405 0.930 . S
H1418 C1406 0.956 . S
H1419 C1406 0.961 . S
H1420 C1406 0.961 . S
H1421 C1407 0.958 . S
H1422 C1407 0.961 . S
H1423 C1407 0.960 . S
C1424 C1425 1.391 . S
C1424 C1426 1.394 . S
C1424 H1440 0.931 . S
C1425 C1424 1.391 . S
C1425 C1429 1.376 . S
C1426 C1424 1.394 . S
C1426 C1427 1.369 . S
C1426 C1430 1.531 . S
C1427 C1426 1.369 . S
C1427 C1428 1.410 . S
C1427 C1435 1.503 . S
C1428 C1427 1.410 . S
C1428 C1429 1.392 . S
C1428 C1431 1.511 . S
C1429 C1425 1.376 . S
C1429 C1428 1.392 . S
C1429 H1441 0.929 . S
C1430 C1426 1.531 . S
C1430 H1442 0.960 . S
C1430 H1443 0.962 . S
C1430 H1444 0.960 . S
C1431 C1428 1.511 . S
C1431 H1445 0.961 . S
C1431 H1446 0.961 . S
C1431 H1447 0.961 . S
C1432 C1433 1.370 . S
C1432 C1434 1.363 . S
C1432 H1448 0.931 . S
C1433 C1432 1.370 . S
C1433 C1437 1.408 . S
C1434 C1432 1.363 . S
C1434 C1435 1.370 . S
C1434 C1438 1.524 . S
C1435 C1427 1.503 . S
C1435 C1434 1.370 . S
C1435 C1436 1.403 . S
C1436 C1435 1.403 . S
C1436 C1437 1.404 . S
C1436 C1439 1.539 . S
C1437 C1433 1.408 . S
C1437 C1436 1.404 . S
C1437 H1449 0.930 . S
C1438 C1434 1.524 . S
C1438 H1450 0.956 . S
C1438 H1451 0.961 . S
C1438 H1452 0.961 . S
C1439 C1436 1.539 . S
C1439 H1453 0.958 . S
C1439 H1454 0.961 . S
C1439 H1455 0.960 . S
H1440 C1424 0.931 . S
H1441 C1429 0.929 . S
H1442 C1430 0.960 . S
H1443 C1430 0.962 . S
H1444 C1430 0.960 . S
H1445 C1431 0.961 . S
H1446 C1431 0.961 . S
H1447 C1431 0.961 . S
H1448 C1432 0.931 . S
H1449 C1437 0.930 . S
H1450 C1438 0.956 . S
H1451 C1438 0.961 . S
H1452 C1438 0.961 . S
H1453 C1439 0.958 . S
H1454 C1439 0.961 . S
H1455 C1439 0.960 . S
C1456 C1457 1.391 . S
C1456 C1458 1.394 . S
C1456 H1472 0.931 . S
C1457 C1456 1.391 . S
C1457 C1461 1.376 . S
C1458 C1456 1.394 . S
C1458 C1459 1.369 . S
C1458 C1462 1.531 . S
C1459 C1458 1.369 . S
C1459 C1460 1.410 . S
C1459 C1467 1.503 . S
C1460 C1459 1.410 . S
C1460 C1461 1.392 . S
C1460 C1463 1.511 . S
C1461 C1457 1.376 . S
C1461 C1460 1.392 . S
C1461 H1473 0.929 . S
C1462 C1458 1.531 . S
C1462 H1474 0.960 . S
C1462 H1475 0.962 . S
C1462 H1476 0.960 . S
C1463 C1460 1.511 . S
C1463 H1477 0.961 . S
C1463 H1478 0.961 . S
C1463 H1479 0.961 . S
C1464 C1465 1.370 . S
C1464 C1466 1.363 . S
C1464 H1480 0.931 . S
C1465 C1464 1.370 . S
C1465 C1469 1.408 . S
C1466 C1464 1.363 . S
C1466 C1467 1.370 . S
C1466 C1470 1.524 . S
C1467 C1459 1.503 . S
C1467 C1466 1.370 . S
C1467 C1468 1.403 . S
C1468 C1467 1.403 . S
C1468 C1469 1.404 . S
C1468 C1471 1.539 . S
C1469 C1465 1.408 . S
C1469 C1468 1.404 . S
C1469 H1481 0.930 . S
C1470 C1466 1.524 . S
C1470 H1482 0.956 . S
C1470 H1483 0.961 . S
C1470 H1484 0.961 . S
C1471 C1468 1.539 . S
C1471 H1485 0.958 . S
C1471 H1486 0.961 . S
C1471 H1487 0.960 . S
H1472 C1456 0.931 . S
H1473 C1461 0.929 . S
H1474 C1462 0.960 . S
H1475 C1462 0.962 . S
H1476 C1462 0.960 . S
H1477 C1463 0.961 . S
H1478 C1463 0.961 . S
H1479 C1463 0.961 . S
H1480 C1464 0.931 . S
H1481 C1469 0.930 . S
H1482 C1470 0.956 . S
H1483 C1470 0.961 . S
H1484 C1470 0.961 . S
H1485 C1471 0.958 . S
H1486 C1471 0.961 . S
H1487 C1471 0.960 . S
C1488 C1489 1.391 . S
C1488 C1490 1.394 . S
C1488 H1504 0.931 . S
C1489 C1488 1.391 . S
C1489 C1493 1.376 . S
C1490 C1488 1.394 . S
C1490 C1491 1.369 . S
C1490 C1494 1.531 . S
C1491 C1490 1.369 . S
C1491 C1492 1.410 . S
C1491 C1499 1.503 . S
C1492 C1491 1.410 . S
C1492 C1493 1.392 . S
C1492 C1495 1.511 . S
C1493 C1489 1.376 . S
C1493 C1492 1.392 . S
C1493 H1505 0.929 . S
C1494 C1490 1.531 . S
C1494 H1506 0.960 . S
C1494 H1507 0.962 . S
C1494 H1508 0.960 . S
C1495 C1492 1.511 . S
C1495 H1509 0.961 . S
C1495 H1510 0.961 . S
C1495 H1511 0.961 . S
C1496 C1497 1.370 . S
C1496 C1498 1.363 . S
C1496 H1512 0.931 . S
C1497 C1496 1.370 . S
C1497 C1501 1.408 . S
C1498 C1496 1.363 . S
C1498 C1499 1.370 . S
C1498 C1502 1.524 . S
C1499 C1491 1.503 . S
C1499 C1498 1.370 . S
C1499 C1500 1.403 . S
C1500 C1499 1.403 . S
C1500 C1501 1.404 . S
C1500 C1503 1.539 . S
C1501 C1497 1.408 . S
C1501 C1500 1.404 . S
C1501 H1513 0.930 . S
C1502 C1498 1.524 . S
C1502 H1514 0.956 . S
C1502 H1515 0.961 . S
C1502 H1516 0.961 . S
C1503 C1500 1.539 . S
C1503 H1517 0.958 . S
C1503 H1518 0.961 . S
C1503 H1519 0.960 . S
H1504 C1488 0.931 . S
H1505 C1493 0.929 . S
H1506 C1494 0.960 . S
H1507 C1494 0.962 . S
H1508 C1494 0.960 . S
H1509 C1495 0.961 . S
H1510 C1495 0.961 . S
H1511 C1495 0.961 . S
H1512 C1496 0.931 . S
H1513 C1501 0.930 . S
H1514 C1502 0.956 . S
H1515 C1502 0.961 . S
H1516 C1502 0.961 . S
H1517 C1503 0.958 . S
H1518 C1503 0.961 . S
H1519 C1503 0.960 . S
C1520 C1521 1.391 . S
C1520 C1522 1.394 . S
C1520 H1536 0.931 . S
C1521 C1520 1.391 . S
C1521 C1525 1.376 . S
C1522 C1520 1.394 . S
C1522 C1523 1.369 . S
C1522 C1526 1.531 . S
C1523 C1522 1.369 . S
C1523 C1524 1.410 . S
C1523 C1531 1.503 . S
C1524 C1523 1.410 . S
C1524 C1525 1.392 . S
C1524 C1527 1.511 . S
C1525 C1521 1.376 . S
C1525 C1524 1.392 . S
C1525 H1537 0.929 . S
C1526 C1522 1.531 . S
C1526 H1538 0.960 . S
C1526 H1539 0.962 . S
C1526 H1540 0.960 . S
C1527 C1524 1.511 . S
C1527 H1541 0.961 . S
C1527 H1542 0.961 . S
C1527 H1543 0.961 . S
C1528 C1529 1.370 . S
C1528 C1530 1.363 . S
C1528 H1544 0.931 . S
C1529 C1528 1.370 . S
C1529 C1533 1.408 . S
C1530 C1528 1.363 . S
C1530 C1531 1.370 . S
C1530 C1534 1.524 . S
C1531 C1523 1.503 . S
C1531 C1530 1.370 . S
C1531 C1532 1.403 . S
C1532 C1531 1.403 . S
C1532 C1533 1.404 . S
C1532 C1535 1.539 . S
C1533 C1529 1.408 . S
C1533 C1532 1.404 . S
C1533 H1545 0.930 . S
C1534 C1530 1.524 . S
C1534 H1546 0.956 . S
C1534 H1547 0.961 . S
C1534 H1548 0.961 . S
C1535 C1532 1.539 . S
C1535 H1549 0.958 . S
C1535 H1550 0.961 . S
C1535 H1551 0.960 . S
H1536 C1520 0.931 . S
H1537 C1525 0.929 . S
H1538 C1526 0.960 . S
H1539 C1526 0.962 . S
H1540 C1526 0.960 . S
H1541 C1527 0.961 . S
H1542 C1527 0.961 . S
H1543 C1527 0.961 . S
H1544 C1528 0.931 . S
H1545 C1533 0.930 . S
H1546 C1534 0.956 . S
H1547 C1534 0.961 . S
H1548 C1534 0.961 . S
H1549 C1535 0.958 . S
H1550 C1535 0.961 . S
H1551 C1535 0.960 . S
C1552 C1553 1.391 . S
C1552 C1554 1.394 . S
C1552 H1568 0.931 . S
C1553 C1552 1.391 . S
C1553 C1557 1.376 1_455 S
C1554 C1552 1.394 . S
C1554 C1555 1.369 . S
C1554 C1558 1.531 . S
C1555 C1554 1.369 . S
C1555 C1556 1.410 1_455 S
C1555 C1563 1.503 . S
C1556 C1555 1.410 1_655 S
C1556 C1557 1.392 . S
C1556 C1559 1.511 . S
C1557 C1553 1.376 1_655 S
C1557 C1556 1.392 . S
C1557 H1569 0.929 . S
C1558 C1554 1.531 . S
C1558 H1570 0.960 . S
C1558 H1571 0.962 . S
C1558 H1572 0.960 . S
C1559 C1556 1.511 . S
C1559 H1573 0.961 . S
C1559 H1574 0.961 . S
C1559 H1575 0.961 . S
C1560 C1561 1.370 . S
C1560 C1562 1.363 . S
C1560 H1576 0.931 . S
C1561 C1560 1.370 . S
C1561 C1565 1.408 1_655 S
C1562 C1560 1.363 . S
C1562 C1563 1.370 1_655 S
C1562 C1566 1.524 . S
C1563 C1555 1.503 . S
C1563 C1562 1.370 1_455 S
C1563 C1564 1.403 . S
C1564 C1563 1.403 . S
C1564 C1565 1.404 . S
C1564 C1567 1.539 . S
C1565 C1561 1.408 1_455 S
C1565 C1564 1.404 . S
C1565 H1577 0.930 . S
C1566 C1562 1.524 . S
C1566 H1578 0.956 . S
C1566 H1579 0.961 . S
C1566 H1580 0.961 . S
C1567 C1564 1.539 . S
C1567 H1581 0.958 . S
C1567 H1582 0.961 . S
C1567 H1583 0.960 . S
H1568 C1552 0.931 . S
H1569 C1557 0.929 . S
H1570 C1558 0.960 . S
H1571 C1558 0.962 . S
H1572 C1558 0.960 . S
H1573 C1559 0.961 . S
H1574 C1559 0.961 . S
H1575 C1559 0.961 . S
H1576 C1560 0.931 . S
H1577 C1565 0.930 . S
H1578 C1566 0.956 . S
H1579 C1566 0.961 . S
H1580 C1566 0.961 . S
H1581 C1567 0.958 . S
H1582 C1567 0.961 . S
H1583 C1567 0.960 . S
C1584 C1585 1.391 1_545 S
C1584 C1586 1.394 . S
C1584 H1600 0.931 . S
C1585 C1584 1.391 1_565 S
C1585 C1589 1.376 . S
C1586 C1584 1.394 . S
C1586 C1587 1.369 . S
C1586 C1590 1.531 . S
C1587 C1586 1.369 . S
C1587 C1588 1.410 1_545 S
C1587 C1595 1.503 . S
C1588 C1587 1.410 1_565 S
C1588 C1589 1.392 . S
C1588 C1591 1.511 . S
C1589 C1585 1.376 . S
C1589 C1588 1.392 . S
C1589 H1601 0.929 . S
C1590 C1586 1.531 . S
C1590 H1602 0.960 . S
C1590 H1603 0.962 . S
C1590 H1604 0.960 . S
C1591 C1588 1.511 . S
C1591 H1605 0.961 . S
C1591 H1606 0.961 . S
C1591 H1607 0.961 . S
C1592 C1593 1.370 1_565 S
C1592 C1594 1.363 . S
C1592 H1608 0.931 . S
C1593 C1592 1.370 1_545 S
C1593 C1597 1.408 . S
C1594 C1592 1.363 . S
C1594 C1595 1.370 1_565 S
C1594 C1598 1.524 . S
C1595 C1587 1.503 . S
C1595 C1594 1.370 1_545 S
C1595 C1596 1.403 . S
C1596 C1595 1.403 . S
C1596 C1597 1.404 . S
C1596 C1599 1.539 . S
C1597 C1593 1.408 . S
C1597 C1596 1.404 . S
C1597 H1609 0.930 . S
C1598 C1594 1.524 . S
C1598 H1610 0.956 . S
C1598 H1611 0.961 . S
C1598 H1612 0.961 . S
C1599 C1596 1.539 . S
C1599 H1613 0.958 . S
C1599 H1614 0.961 . S
C1599 H1615 0.960 . S
H1600 C1584 0.931 . S
H1601 C1589 0.929 . S
H1602 C1590 0.960 . S
H1603 C1590 0.962 . S
H1604 C1590 0.960 . S
H1605 C1591 0.961 . S
H1606 C1591 0.961 . S
H1607 C1591 0.961 . S
H1608 C1592 0.931 . S
H1609 C1597 0.930 . S
H1610 C1598 0.956 . S
H1611 C1598 0.961 . S
H1612 C1598 0.961 . S
H1613 C1599 0.958 . S
H1614 C1599 0.961 . S
H1615 C1599 0.960 . S
C1616 C1617 1.391 1_655 S
C1616 C1618 1.394 . S
C1616 H1632 0.931 . S
C1617 C1616 1.391 1_455 S
C1617 C1621 1.376 . S
C1618 C1616 1.394 . S
C1618 C1619 1.369 1_655 S
C1618 C1622 1.531 . S
C1619 C1618 1.369 1_455 S
C1619 C1620 1.410 . S
C1619 C1627 1.507 . S
C1620 C1619 1.410 . S
C1620 C1621 1.392 . S
C1620 C1623 1.511 . S
C1621 C1617 1.376 . S
C1621 C1620 1.392 . S
C1621 H1633 0.929 . S
C1622 C1618 1.531 . S
C1622 H1634 0.960 . S
C1622 H1635 0.962 . S
C1622 H1636 0.960 . S
C1623 C1620 1.511 . S
C1623 H1637 0.961 . S
C1623 H1638 0.961 . S
C1623 H1639 0.961 . S
C1624 C1625 1.370 . S
C1624 C1626 1.363 . S
C1624 H1640 0.931 . S
C1625 C1624 1.370 . S
C1625 C1629 1.408 1_655 S
C1626 C1624 1.363 . S
C1626 C1627 1.356 1_655 S
C1626 C1630 1.524 . S
C1627 C1619 1.507 . S
C1627 C1626 1.356 1_455 S
C1627 C1628 1.414 . S
C1628 C1627 1.414 . S
C1628 C1629 1.404 . S
C1628 C1631 1.539 . S
C1629 C1625 1.408 1_455 S
C1629 C1628 1.404 . S
C1629 H1641 0.930 . S
C1630 C1626 1.524 . S
C1630 H1642 0.956 . S
C1630 H1643 0.961 . S
C1630 H1644 0.961 . S
C1631 C1628 1.539 . S
C1631 H1645 0.958 . S
C1631 H1646 0.961 . S
C1631 H1647 0.960 . S
H1632 C1616 0.931 . S
H1633 C1621 0.929 . S
H1634 C1622 0.960 . S
H1635 C1622 0.962 . S
H1636 C1622 0.960 . S
H1637 C1623 0.961 . S
H1638 C1623 0.961 . S
H1639 C1623 0.961 . S
H1640 C1624 0.931 . S
H1641 C1629 0.930 . S
H1642 C1630 0.956 . S
H1643 C1630 0.961 . S
H1644 C1630 0.961 . S
H1645 C1631 0.958 . S
H1646 C1631 0.961 . S
H1647 C1631 0.960 . S
C1648 C1649 1.391 . S
C1648 C1650 1.394 . S
C1648 H1664 0.931 . S
C1649 C1648 1.391 . S
C1649 C1653 1.376 . S
C1650 C1648 1.394 . S
C1650 C1651 1.369 . S
C1650 C1654 1.531 . S
C1651 C1650 1.369 . S
C1651 C1652 1.410 . S
C1651 C1659 1.503 . S
C1652 C1651 1.410 . S
C1652 C1653 1.392 . S
C1652 C1655 1.511 . S
C1653 C1649 1.376 . S
C1653 C1652 1.392 . S
C1653 H1665 0.929 . S
C1654 C1650 1.531 . S
C1654 H1666 0.960 . S
C1654 H1667 0.962 1_545 S
C1654 H1668 0.960 . S
C1655 C1652 1.511 . S
C1655 H1669 0.961 . S
C1655 H1670 0.960 1_545 S
C1655 H1671 0.961 . S
C1656 C1657 1.370 . S
C1656 C1658 1.363 . S
C1656 H1672 0.931 . S
C1657 C1656 1.370 . S
C1657 C1661 1.408 1_565 S
C1658 C1656 1.363 . S
C1658 C1659 1.370 1_565 S
C1658 C1662 1.524 . S
C1659 C1651 1.503 . S
C1659 C1658 1.370 1_545 S
C1659 C1660 1.403 . S
C1660 C1659 1.403 . S
C1660 C1661 1.404 . S
C1660 C1663 1.539 . S
C1661 C1657 1.408 1_545 S
C1661 C1660 1.404 . S
C1661 H1673 0.930 . S
C1662 C1658 1.524 . S
C1662 H1674 0.956 . S
C1662 H1675 0.961 . S
C1662 H1676 0.961 . S
C1663 C1660 1.539 . S
C1663 H1677 0.958 . S
C1663 H1678 0.961 . S
C1663 H1679 0.960 . S
H1664 C1648 0.931 . S
H1665 C1653 0.929 . S
H1666 C1654 0.960 . S
H1667 C1654 0.962 1_565 S
H1668 C1654 0.960 . S
H1669 C1655 0.961 . S
H1670 C1655 0.960 1_565 S
H1671 C1655 0.961 . S
H1672 C1656 0.931 . S
H1673 C1661 0.930 . S
H1674 C1662 0.956 . S
H1675 C1662 0.961 . S
H1676 C1662 0.961 . S
H1677 C1663 0.958 . S
H1678 C1663 0.961 . S
H1679 C1663 0.960 . S
C1680 C1681 1.391 . S
C1680 C1682 1.394 . S
C1680 H1696 0.931 . S
C1681 C1680 1.391 . S
C1681 C1685 1.376 . S
C1682 C1680 1.394 . S
C1682 C1683 1.369 . S
C1682 C1686 1.531 . S
C1683 C1682 1.369 . S
C1683 C1684 1.410 . S
C1683 C1691 1.503 1_556 S
C1684 C1683 1.410 . S
C1684 C1685 1.392 . S
C1684 C1687 1.511 . S
C1685 C1681 1.376 . S
C1685 C1684 1.392 . S
C1685 H1697 0.929 . S
C1686 C1682 1.531 . S
C1686 H1698 0.938 1_556 S
C1686 H1699 0.962 . S
C1686 H1700 0.960 . S
C1687 C1684 1.511 . S
C1687 H1701 0.961 . S
C1687 H1702 0.961 1_556 S
C1687 H1703 0.961 . S
C1688 C1689 1.370 . S
C1688 C1690 1.363 . S
C1688 H1704 0.931 . S
C1689 C1688 1.370 . S
C1689 C1693 1.408 . S
C1690 C1688 1.363 . S
C1690 C1691 1.370 . S
C1690 C1694 1.524 . S
C1691 C1683 1.503 1_554 S
C1691 C1690 1.370 . S
C1691 C1692 1.403 . S
C1692 C1691 1.403 . S
C1692 C1693 1.404 . S
C1692 C1695 1.539 . S
C1693 C1689 1.408 . S
C1693 C1692 1.404 . S
C1693 H1705 0.930 . S
C1694 C1690 1.524 . S
C1694 H1706 0.956 1_554 S
C1694 H1707 0.961 1_554 S
C1694 H1708 0.961 . S
C1695 C1692 1.539 . S
C1695 H1709 0.958 . S
C1695 H1710 0.961 . S
C1695 H1711 0.960 . S
H1696 C1680 0.931 . S
H1697 C1685 0.929 . S
H1698 C1686 0.938 1_554 S
H1699 C1686 0.962 . S
H1700 C1686 0.960 . S
H1701 C1687 0.961 . S
H1702 C1687 0.961 1_554 S
H1703 C1687 0.961 . S
H1704 C1688 0.931 . S
H1705 C1693 0.930 . S
H1706 C1694 0.956 1_556 S
H1707 C1694 0.961 1_556 S
H1708 C1694 0.961 . S
H1709 C1695 0.958 . S
H1710 C1695 0.961 . S
H1711 C1695 0.960 . S
C1712 C1713 1.391 . S
C1712 C1714 1.394 . S
C1712 H1728 0.931 . S
C1713 C1712 1.391 . S
C1713 C1717 1.376 . S
C1714 C1712 1.394 . S
C1714 C1715 1.369 . S
C1714 C1718 1.531 . S
C1715 C1714 1.369 . S
C1715 C1716 1.410 . S
C1715 C1723 1.503 1_554 S
C1716 C1715 1.410 . S
C1716 C1717 1.392 . S
C1716 C1719 1.511 . S
C1717 C1713 1.376 . S
C1717 C1716 1.392 . S
C1717 H1729 0.929 . S
C1718 C1714 1.531 . S
C1718 H1730 0.960 1_554 S
C1718 H1731 0.962 . S
C1718 H1732 0.960 . S
C1719 C1716 1.511 . S
C1719 H1733 0.961 . S
C1719 H1734 0.945 1_554 S
C1719 H1735 0.961 . S
C1720 C1721 1.370 . S
C1720 C1722 1.363 . S
C1720 H1736 0.931 . S
C1721 C1720 1.370 . S
C1721 C1725 1.408 . S
C1722 C1720 1.363 . S
C1722 C1723 1.370 . S
C1722 C1726 1.524 . S
C1723 C1715 1.503 1_556 S
C1723 C1722 1.370 . S
C1723 C1724 1.403 . S
C1724 C1723 1.403 . S
C1724 C1725 1.404 . S
C1724 C1727 1.539 . S
C1725 C1721 1.408 . S
C1725 C1724 1.404 . S
C1725 H1737 0.930 . S
C1726 C1722 1.524 . S
C1726 H1738 0.956 1_556 S
C1726 H1739 0.961 1_556 S
C1726 H1740 0.961 . S
C1727 C1724 1.539 . S
C1727 H1741 0.958 . S
C1727 H1742 0.961 . S
C1727 H1743 0.960 . S
H1728 C1712 0.931 . S
H1729 C1717 0.929 . S
H1730 C1718 0.960 1_556 S
H1731 C1718 0.962 . S
H1732 C1718 0.960 . S
H1733 C1719 0.961 . S
H1734 C1719 0.945 1_556 S
H1735 C1719 0.961 . S
H1736 C1720 0.931 . S
H1737 C1725 0.930 . S
H1738 C1726 0.956 1_554 S
H1739 C1726 0.961 1_554 S
H1740 C1726 0.961 . S
H1741 C1727 0.958 . S
H1742 C1727 0.961 . S
H1743 C1727 0.960 . S
C1744 C1745 1.391 . S
C1744 C1746 1.394 . S
C1744 H1760 0.931 . S
C1745 C1744 1.391 . S
C1745 C1749 1.376 . S
C1746 C1744 1.394 . S
C1746 C1747 1.369 . S
C1746 C1750 1.531 . S
C1747 C1746 1.369 . S
C1747 C1748 1.410 . S
C1747 C1755 1.503 1_554 S
C1748 C1747 1.410 . S
C1748 C1749 1.392 . S
C1748 C1751 1.511 . S
C1749 C1745 1.376 . S
C1749 C1748 1.392 . S
C1749 H1761 0.929 . S
C1750 C1746 1.531 . S
C1750 H1762 0.960 1_554 S
C1750 H1763 0.962 . S
C1750 H1764 0.960 . S
C1751 C1748 1.511 . S
C1751 H1765 0.961 . S
C1751 H1766 0.961 . S
C1751 H1767 0.961 . S
C1752 C1753 1.370 . S
C1752 C1754 1.363 . S
C1752 H1768 0.931 . S
C1753 C1752 1.370 . S
C1753 C1757 1.408 . S
C1754 C1752 1.363 . S
C1754 C1755 1.370 . S
C1754 C1758 1.524 . S
C1755 C1747 1.503 1_556 S
C1755 C1754 1.370 . S
C1755 C1756 1.403 . S
C1756 C1755 1.403 . S
C1756 C1757 1.404 . S
C1756 C1759 1.539 . S
C1757 C1753 1.408 . S
C1757 C1756 1.404 . S
C1757 H1769 0.930 . S
C1758 C1754 1.524 . S
C1758 H1770 0.956 . S
C1758 H1771 0.961 1_556 S
C1758 H1772 0.961 . S
C1759 C1756 1.539 . S
C1759 H1773 0.958 . S
C1759 H1774 0.961 . S
C1759 H1775 0.941 1_556 S
H1760 C1744 0.931 . S
H1761 C1749 0.929 . S
H1762 C1750 0.960 1_556 S
H1763 C1750 0.962 . S
H1764 C1750 0.960 . S
H1765 C1751 0.961 . S
H1766 C1751 0.961 . S
H1767 C1751 0.961 . S
H1768 C1752 0.931 . S
H1769 C1757 0.930 . S
H1770 C1758 0.956 . S
H1771 C1758 0.961 1_554 S
H1772 C1758 0.961 . S
H1773 C1759 0.958 . S
H1774 C1759 0.961 . S
H1775 C1759 0.941 1_554 S
C1776 C1777 1.391 . S
C1776 C1778 1.394 . S
C1776 H1792 0.931 . S
C1777 C1776 1.391 . S
C1777 C1781 1.376 . S
C1778 C1776 1.394 . S
C1778 C1779 1.369 . S
C1778 C1782 1.531 . S
C1779 C1778 1.369 . S
C1779 C1780 1.410 . S
C1779 C1787 1.503 1_556 S
C1780 C1779 1.410 . S
C1780 C1781 1.392 . S
C1780 C1783 1.511 . S
C1781 C1777 1.376 . S
C1781 C1780 1.392 . S
C1781 H1793 0.929 . S
C1782 C1778 1.531 . S
C1782 H1794 0.960 . S
C1782 H1795 0.962 . S
C1782 H1796 0.960 . S
C1783 C1780 1.511 . S
C1783 H1797 0.961 . S
C1783 H1798 0.961 1_556 S
C1783 H1799 0.961 . S
C1784 C1785 1.370 . S
C1784 C1786 1.363 . S
C1784 H1800 0.931 . S
C1785 C1784 1.370 . S
C1785 C1789 1.408 . S
C1786 C1784 1.363 . S
C1786 C1787 1.370 . S
C1786 C1790 1.524 . S
C1787 C1779 1.503 1_554 S
C1787 C1786 1.370 . S
C1787 C1788 1.403 . S
C1788 C1787 1.403 . S
C1788 C1789 1.404 . S
C1788 C1791 1.539 . S
C1789 C1785 1.408 . S
C1789 C1788 1.404 . S
C1789 H1801 0.930 . S
C1790 C1786 1.524 . S
C1790 H1802 0.956 1_554 S
C1790 H1803 0.961 1_554 S
C1790 H1804 0.961 . S
C1791 C1788 1.539 . S
C1791 H1805 0.958 . S
C1791 H1806 0.961 . S
C1791 H1807 0.960 . S
H1792 C1776 0.931 . S
H1793 C1781 0.929 . S
H1794 C1782 0.960 . S
H1795 C1782 0.962 . S
H1796 C1782 0.960 . S
H1797 C1783 0.961 . S
H1798 C1783 0.961 1_554 S
H1799 C1783 0.961 . S
H1800 C1784 0.931 . S
H1801 C1789 0.930 . S
H1802 C1790 0.956 1_556 S
H1803 C1790 0.961 1_556 S
H1804 C1790 0.961 . S
H1805 C1791 0.958 . S
H1806 C1791 0.961 . S
H1807 C1791 0.960 . S
C529 C84 0.472 . S
C537 C18 0.446 . S
C561 C51 0.483 . S
C569 C117 0.438 . S
C593 C216 0.483 . S
C601 C150 0.438 . S
C625 C249 0.449 . S
C633 C183 0.456 . S
C657 C282 0.442 . S
C665 C348 0.458 . S
C689 C381 0.484 . S
C697 C315 0.437 . S
C721 C480 0.438 . S
C729 C414 0.459 . S
C753 C447 0.465 . S
C761 C513 0.450 . S
C785 N13 1.765 . S
C793 N508 1.767 . S
C817 N409 1.777 . S
C825 N46 1.764 . S
C849 N442 1.726 . S
C857 N79 1.753 . S
C881 N475 1.745 . S
C889 N112 1.764 . S
C913 N310 1.773 . S
C921 N145 1.766 . S
C945 N343 1.734 . S
C953 N178 1.760 . S
C977 N376 1.755 . S
C985 N211 1.747 . S
C1009 N277 1.777 . S
C1017 N244 1.764 . S
C1041 C7 1.347 . S
C1049 C120 1.359 . S
C1073 C21 1.340 . S
C1081 C40 1.366 . S
C1105 C73 1.382 . S
C1113 C54 1.372 . S
C1137 C87 1.377 . S
C1145 C106 1.359 . S
C1169 C186 1.356 . S
C1177 C139 1.357 . S
C1201 C172 1.373 . S
C1209 C219 1.358 . S
C1233 C252 1.358 . S
C1241 C205 1.375 . S
C1265 C153 1.354 . S
C1273 C238 1.375 . S
C1297 C271 1.382 . S
C1305 C384 1.372 . S
C1329 C285 1.381 . S
C1337 C304 1.373 . S
C1361 C337 1.362 . S
C1369 C318 1.376 . S
C1393 C370 1.341 . S
C1401 C351 1.363 . S
C1425 C403 1.364 . S
C1433 C450 1.357 . S
C1457 C483 1.353 . S
C1465 C436 1.374 . S
C1489 C516 1.385 . S
C1497 C469 1.364 . S
C1521 C502 1.348 . S
C1529 C417 1.358 . S
C1553 N2 1.545 . S
C1561 N200 1.558 . S
C1585 N233 1.587 . S
C1593 N35 1.584 . S
C1617 N134 1.598 . S
C1625 N68 1.579 . S
C1649 N167 1.577 . S
C1657 N101 1.566 . S
C1681 N266 1.593 . S
C1689 N464 1.574 . S
C1713 N497 1.562 . S
C1721 N299 1.561 . S
C1745 N398 1.537 . S
C1753 N332 1.559 . S
C1777 N365 1.599 . S
C1785 N431 1.580 . S
