# Generated by pormake.
# Topology vby, (6)-cn, num edge types: 1
# Building blocks:
#     Node 0, Type 0, BuildingBlock: PAMTOO_clean_sbu_0, # of connection points: 6
#     Node 1, Type 0, BuildingBlock: PAMTOO_clean_sbu_0, # of connection points: 6
#     Node 2, Type 0, BuildingBlock: PAMTOO_clean_sbu_0, # of connection points: 6
#     Node 3, Type 0, BuildingBlock: PAMTOO_clean_sbu_0, # of connection points: 6
#     Node 4, Type 0, BuildingBlock: PAMTOO_clean_sbu_0, # of connection points: 6
#     Node 5, Type 0, BuildingBlock: PAMTOO_clean_sbu_0, # of connection points: 6
#     Node 6, Type 0, BuildingBlock: PAMTOO_clean_sbu_0, # of connection points: 6
#     Node 7, Type 0, BuildingBlock: PAMTOO_clean_sbu_0, # of connection points: 6
#     Edge 8, Type (0, 0), BuildingBlock: UVAHIK_clean_linker_0, # of connection points: 2
#     Edge 9, Type (0, 0), BuildingBlock: UVAHIK_clean_linker_0, # of connection points: 2
#     Edge 10, Type (0, 0), BuildingBlock: UVAHIK_clean_linker_0, # of connection points: 2
#     Edge 11, Type (0, 0), BuildingBlock: UVAHIK_clean_linker_0, # of connection points: 2
#     Edge 12, Type (0, 0), BuildingBlock: UVAHIK_clean_linker_0, # of connection points: 2
#     Edge 13, Type (0, 0), BuildingBlock: UVAHIK_clean_linker_0, # of connection points: 2
#     Edge 14, Type (0, 0), BuildingBlock: UVAHIK_clean_linker_0, # of connection points: 2
#     Edge 15, Type (0, 0), BuildingBlock: UVAHIK_clean_linker_0, # of connection points: 2
#     Edge 16, Type (0, 0), BuildingBlock: UVAHIK_clean_linker_0, # of connection points: 2
#     Edge 17, Type (0, 0), BuildingBlock: UVAHIK_clean_linker_0, # of connection points: 2
#     Edge 18, Type (0, 0), BuildingBlock: UVAHIK_clean_linker_0, # of connection points: 2
#     Edge 19, Type (0, 0), BuildingBlock: UVAHIK_clean_linker_0, # of connection points: 2
#     Edge 20, Type (0, 0), BuildingBlock: UVAHIK_clean_linker_0, # of connection points: 2
#     Edge 21, Type (0, 0), BuildingBlock: UVAHIK_clean_linker_0, # of connection points: 2
#     Edge 22, Type (0, 0), BuildingBlock: UVAHIK_clean_linker_0, # of connection points: 2
#     Edge 23, Type (0, 0), BuildingBlock: UVAHIK_clean_linker_0, # of connection points: 2
#     Edge 24, Type (0, 0), BuildingBlock: UVAHIK_clean_linker_0, # of connection points: 2
#     Edge 25, Type (0, 0), BuildingBlock: UVAHIK_clean_linker_0, # of connection points: 2
#     Edge 26, Type (0, 0), BuildingBlock: UVAHIK_clean_linker_0, # of connection points: 2
#     Edge 27, Type (0, 0), BuildingBlock: UVAHIK_clean_linker_0, # of connection points: 2
#     Edge 28, Type (0, 0), BuildingBlock: UVAHIK_clean_linker_0, # of connection points: 2
#     Edge 29, Type (0, 0), BuildingBlock: UVAHIK_clean_linker_0, # of connection points: 2
#     Edge 30, Type (0, 0), BuildingBlock: UVAHIK_clean_linker_0, # of connection points: 2
#     Edge 31, Type (0, 0), BuildingBlock: UVAHIK_clean_linker_0, # of connection points: 2
# Relax obj value: 0.138
# Max RMSD: 0.188
# Mean RMSD: 0.178
data_MOF--net-vby--node1-PAMTOO_clean_sbu_0--edge1-UVAHIK_clean_linker_0
_symmetry_space_group_name_H-M    P1
_symmetry_Int_Tables_number       1
_symmetry_cell_setting            triclinic
loop_
_symmetry_equiv_pos_as_xyz
'x, y, z'
_cell_length_a     19.932167
_cell_length_b     122.60735
_cell_length_c     38.704429
_cell_angle_alpha  85.4503
_cell_angle_beta   94.630266
_cell_angle_gamma 89.970363
loop_
_atom_site_label
_atom_site_type_symbol
_atom_site_fract_x
_atom_site_fract_y
_atom_site_fract_z
_atom_type_partial_charge
Dy0 Dy 0.11003 0.39576 0.00483 0.0
Dy1 Dy 0.10622 0.36847 0.01608 0.0
C2 C 0.10284 0.38337 0.07958 0.0
O3 O 0.21515 0.39012 0.02084 0.0
O4 O 0.2121 0.37245 0.00501 0.0
O5 O 0.14934 0.4111 0.02109 0.0
O6 O 0.08549 0.41076 0.97298 0.0
O7 O 0.06418 0.37395 0.96244 0.0
O8 O 0.13049 0.38887 0.95514 0.0
O9 O 1.00138 0.37373 0.02261 0.0
O10 O 1.00009 0.39174 -0.00048 0.0
O11 O 0.10423 0.35314 0.99257 0.0
O12 O 0.09893 0.35321 0.0483 0.0
C13 C 0.24559 0.38123 0.01322 0.0
O14 O 0.07967 0.39163 0.05827 0.0
O15 O 0.13141 0.37482 0.06819 0.0
C16 C 0.09004 0.42764 0.00048 0.0
C17 C 0.0548 0.44982 0.00546 0.0
C18 C 0.09589 0.44408 0.03212 0.0
C19 C 0.11348 0.43314 0.0296 0.0
C20 C 0.04669 0.43324 0.97453 0.0
C21 C 0.02908 0.44418 0.97705 0.0
C22 C 0.11875 0.41685 -0.00541 0.0
C23 C 0.093 0.38122 0.942 0.0
C24 C 0.96914 0.38284 0.01107 0.0
C25 C 0.13977 0.33682 0.02684 0.0
C26 C 0.19006 0.31513 0.02995 0.0
C27 C 0.20581 0.32289 0.00307 0.0
C28 C 0.18091 0.33361 0.00151 0.0
C29 C 0.12701 0.32925 0.05465 0.0
C30 C 0.15204 0.31855 0.05628 0.0
C31 C 0.10149 0.34725 0.02197 0.0
H32 H 0.11727 0.44818 0.05417 0.0
H33 H 0.14788 0.42915 0.0498 0.0
H34 H 0.02839 0.4293 0.95154 0.0
H35 H 0.99654 0.4483 0.95629 0.0
H36 H 0.23446 0.32055 0.9822 0.0
H37 H 0.19139 0.33922 0.97958 0.0
H38 H 0.09511 0.33148 0.07439 0.0
H39 H 0.13999 0.31286 0.07771 0.0
Dy40 Dy 0.931 0.64828 0.00718 0.0
Dy41 Dy 0.92702 0.62085 0.01745 0.0
C42 C 0.94226 0.63519 0.08115 0.0
O43 O 0.03591 0.64301 0.00095 0.0
O44 O 0.03686 0.6249 0.02315 0.0
O45 O 0.93756 0.66356 0.03105 0.0
O46 O 0.93435 0.66361 0.97496 0.0
O47 O 0.95673 0.62501 0.96393 0.0
O48 O 0.90937 0.64222 0.95437 0.0
O49 O 0.8219 0.62659 0.00187 0.0
O50 O 0.82494 0.64428 0.01773 0.0
O51 O 0.88762 0.60557 0.00068 0.0
O52 O 0.95164 0.60576 0.04876 0.0
C53 C 0.06795 0.63386 0.01217 0.0
O54 O 0.97003 0.64277 0.06133 0.0
O55 O 0.90669 0.62739 0.06761 0.0
C56 C 0.8984 0.67997 -0.00163 0.0
C57 C 0.84866 0.70162 -0.00235 0.0
C58 C 0.83447 0.69369 0.02435 0.0
C59 C 0.85916 0.68298 0.02475 0.0
C60 C 0.90955 0.68772 0.9708 0.0
C61 C 0.88483 0.69841 0.97036 0.0
C62 C 0.9363 0.66951 0.00159 0.0
C63 C 0.93571 0.63347 0.94292 0.0
C64 C 0.79151 0.63549 0.00952 0.0
C65 C 0.94693 0.58898 0.02076 0.0
C66 C 0.98198 0.56682 0.01529 0.0
C67 C 0.94052 0.5726 0.98886 0.0
C68 C 0.92301 0.58353 0.99162 0.0
C69 C 0.99071 0.58335 0.04645 0.0
C70 C 1.00822 0.57242 0.04368 0.0
C71 C 0.91829 0.59975 0.02698 0.0
H72 H 0.80718 0.69588 0.04591 0.0
H73 H 0.84996 0.67721 0.0465 0.0
H74 H 0.93996 0.68564 0.95026 0.0
H75 H 0.89562 0.70424 0.94905 0.0
H76 H 0.91876 0.56852 0.96683 0.0
H77 H 0.88829 0.58755 0.97163 0.0
H78 H 1.00941 0.58725 0.06943 0.0
H79 H 0.04106 0.56827 0.06426 0.0
Dy80 Dy 0.10593 0.6462 0.51878 0.0
Dy81 Dy 0.11277 0.61895 0.52086 0.0
C82 C 0.09497 0.63376 0.45093 0.0
O83 O 1.00181 0.64061 0.52824 0.0
O84 O 1.00252 0.62292 0.51157 0.0
O85 O 0.11314 0.66175 0.48902 0.0
O86 O 0.08702 0.66121 0.54247 0.0
O87 O 0.08303 0.62316 0.57253 0.0
O88 O 0.13509 0.63984 0.57358 0.0
O89 O 0.21752 0.62447 0.53499 0.0
O90 O 0.21253 0.64213 0.51002 0.0
O91 O 0.14173 0.6031 0.54656 0.0
O92 O 0.10048 0.60449 0.49273 0.0
C93 C 0.97048 0.6316 0.52007 0.0
O94 O 0.06507 0.64103 0.46749 0.0
O95 O 0.1332 0.62614 0.46804 0.0
C96 C 0.13557 0.67785 0.51876 0.0
C97 C 0.18287 0.69946 0.52432 0.0
C98 C 0.16952 0.69535 0.4916 0.0
C99 C 0.14605 0.6847 0.48887 0.0
C100 C 0.15158 0.68177 0.55161 0.0
C101 C 0.17539 0.69246 0.55435 0.0
C102 C 0.09941 0.66741 0.51475 0.0
C103 C 0.10679 0.63138 0.58953 0.0
C104 C 0.24709 0.6334 0.52301 0.0
C105 C 0.09186 0.58697 0.52381 0.0
C106 C 0.05383 0.56466 0.53 0.0
C107 C 0.07316 0.57017 0.55976 0.0
C108 C 0.09221 0.58119 0.5567 0.0
C109 C 0.07025 0.58157 0.49424 0.0
C110 C 0.05137 0.57059 0.49727 0.0
C111 C 0.1232 0.5979 0.51923 0.0
H112 H 0.17573 0.70048 0.46797 0.0
H113 H 0.13354 0.68197 0.4632 0.0
H114 H 0.14339 0.67674 0.57517 0.0
H115 H 0.18489 0.6954 0.57994 0.0
H116 H 0.07486 0.56591 0.58542 0.0
H117 H 0.10932 0.58506 0.58 0.0
H118 H 0.07073 0.58571 0.46846 0.0
H119 H 0.03792 0.56661 0.4737 0.0
Dy120 Dy 0.93082 0.36716 0.50875 0.0
Dy121 Dy 0.92496 0.39455 0.49676 0.0
C122 C 0.93394 0.37987 0.43461 0.0
O123 O 0.03748 0.37241 0.51812 0.0
O124 O 0.03402 0.39045 0.49524 0.0
O125 O 0.91803 0.35166 0.48665 0.0
O126 O 0.95434 0.3521 0.54098 0.0
O127 O 0.96261 0.39019 0.55185 0.0
O128 O 0.90941 0.37367 0.55904 0.0
O129 O 0.82137 0.38914 0.5074 0.0
O130 O 0.82225 0.37113 0.49451 0.0
O131 O 0.88795 0.40986 0.51168 0.0
O132 O 0.94527 0.40964 0.4663 0.0
C133 C 0.0674 0.38149 0.50747 0.0
O134 O 0.96416 0.3724 0.45653 0.0
O135 O 0.89851 0.38768 0.44578 0.0
C136 C 0.90053 0.33564 0.52396 0.0
C137 C 0.8485 0.31419 0.53199 0.0
C138 C 0.81664 0.32212 0.50781 0.0
C139 C 0.84234 0.33273 0.50382 0.0
C140 C 0.93034 0.32791 0.54926 0.0
C141 C 0.90455 0.31731 0.55333 0.0
C142 C 0.93652 0.34596 0.51577 0.0
C143 C 0.93978 0.38214 0.57202 0.0
C144 C 0.78997 0.38006 0.5004 0.0
C145 C 0.94286 0.42646 0.49378 0.0
C146 C 0.97432 0.44847 0.50493 0.0
C147 C 0.96835 0.4407 0.53328 0.0
C148 C 0.95253 0.42979 0.52776 0.0
C149 C 0.95214 0.43409 0.46563 0.0
C150 C 0.96778 0.44496 0.47111 0.0
C151 C 0.9144 0.41565 0.48654 0.0
H152 H 0.77277 0.32003 0.49133 0.0
H153 H 0.81815 0.33851 0.48407 0.0
H154 H 0.97567 0.3299 0.56482 0.0
H155 H 0.93075 0.31141 0.57197 0.0
H156 H 0.97275 0.44314 0.55964 0.0
H157 H 0.94536 0.4241 0.55001 0.0
H158 H 0.94462 0.43175 0.43919 0.0
H159 H 0.97321 0.45069 0.44874 0.0
Dy160 Dy 0.6091 0.89594 0.00369 0.0
Dy161 Dy 0.60551 0.86865 0.01591 0.0
C162 C 0.602 0.88383 0.07885 0.0
O163 O 0.71427 0.89034 0.01988 0.0
O164 O 0.7113 0.8726 0.0046 0.0
O165 O 0.64823 0.91136 0.01906 0.0
O166 O 0.58387 0.91081 0.97115 0.0
O167 O 0.56372 0.87395 0.96206 0.0
O168 O 0.63002 0.88885 0.9544 0.0
O169 O 0.50078 0.87394 0.02258 0.0
O170 O 0.49924 0.89184 -0.00149 0.0
O171 O 0.60147 0.85323 0.99294 0.0
O172 O 0.60037 0.85349 0.04884 0.0
C173 C 0.74476 0.88142 0.01253 0.0
O174 O 0.57897 0.89204 0.0573 0.0
O175 O 0.63039 0.87521 0.06775 0.0
C176 C 0.58851 0.92779 -0.00228 0.0
C177 C 0.55392 0.94984 0.00492 0.0
C178 C 0.57404 0.94275 0.03434 0.0
C179 C 0.59122 0.93184 0.0308 0.0
C180 C 0.56586 0.93474 0.96854 0.0
C181 C 0.54857 0.94562 0.97207 0.0
C182 C 0.61739 0.91699 0.99236 0.0
C183 C 0.5926 0.88116 0.94145 0.0
C184 C 0.46841 0.88299 0.01056 0.0
C185 C 0.63913 0.83701 0.02709 0.0
C186 C 0.68953 0.81534 0.02962 0.0
C187 C 0.70497 0.82316 0.00284 0.0
C188 C 0.68 0.83387 0.00156 0.0
C189 C 0.62671 0.82939 0.05481 0.0
C190 C 0.65178 0.81869 0.05615 0.0
C191 C 0.60081 0.84744 0.02262 0.0
H192 H 0.57782 0.94569 0.06007 0.0
H193 H 0.60872 0.9267 0.05383 0.0
H194 H 0.56422 0.93188 0.9427 0.0
H195 H 0.5341 0.95086 0.94881 0.0
H196 H 0.73344 0.82087 0.98183 0.0
H197 H 0.69023 0.83953 0.97971 0.0
H198 H 0.59504 0.83157 0.07471 0.0
H199 H 0.63999 0.81296 0.07752 0.0
Dy200 Dy 0.42937 0.14803 0.00728 0.0
Dy201 Dy 0.42549 0.12062 0.01849 0.0
C202 C 0.44025 0.13519 0.08165 0.0
O203 O 0.53409 0.14271 0.00076 0.0
O204 O 0.53522 0.12474 0.02424 0.0
O205 O 0.43917 0.16343 0.03034 0.0
O206 O 0.42958 0.16323 0.97425 0.0
O207 O 0.4551 0.12455 0.96483 0.0
O208 O 0.40765 0.14174 0.95483 0.0
O209 O 0.32035 0.12635 0.00278 0.0
O210 O 0.32348 0.14407 0.01833 0.0
O211 O 0.38625 0.10526 0.00252 0.0
O212 O 0.45063 0.10564 0.05047 0.0
C213 C 0.56625 0.13363 0.01262 0.0
O214 O 0.46796 0.14273 0.06166 0.0
O215 O 0.40479 0.12734 0.06833 0.0
C216 C 0.39717 0.17972 -0.00198 0.0
C217 C 0.34776 0.20136 -0.00194 0.0
C218 C 0.33446 0.1934 0.02485 0.0
C219 C 0.35902 0.18269 0.02487 0.0
C220 C 0.40739 0.1875 0.97039 0.0
C221 C 0.38284 0.19819 0.97034 0.0
C222 C 0.43482 0.16925 0.0006 0.0
C223 C 0.43406 0.13297 0.94362 0.0
C224 C 0.28999 0.13527 0.01031 0.0
C225 C 0.44592 0.08877 0.02331 0.0
C226 C 0.48067 0.06676 0.01552 0.0
C227 C 0.45995 0.0739 0.9863 0.0
C228 C 0.44268 0.08479 0.99013 0.0
C229 C 0.46914 0.08178 0.05229 0.0
C230 C 0.48649 0.07092 0.04847 0.0
C231 C 0.41707 0.09954 0.02903 0.0
H232 H 0.30798 0.19557 0.04671 0.0
H233 H 0.35055 0.17689 0.04666 0.0
H234 H 0.43692 0.18544 0.94949 0.0
H235 H 0.39291 0.20405 0.94897 0.0
H236 H 0.45579 0.071 0.96049 0.0
H237 H 0.42472 0.08995 0.96726 0.0
H238 H 0.47118 0.08458 0.07821 0.0
H239 H 0.5014 0.06564 0.07159 0.0
Dy240 Dy 0.60549 0.14649 0.51953 0.0
Dy241 Dy 0.61056 0.11903 0.52107 0.0
C242 C 0.595 0.13413 0.45115 0.0
O243 O 0.49969 0.14118 0.52516 0.0
O244 O 0.50062 0.12302 0.51266 0.0
O245 O 0.62034 0.16218 0.49208 0.0
O246 O 0.58145 0.16134 0.54301 0.0
O247 O 0.58015 0.12323 0.57259 0.0
O248 O 0.63226 0.1399 0.57434 0.0
O249 O 0.7157 0.12431 0.53474 0.0
O250 O 0.71224 0.14228 0.51224 0.0
O251 O 0.64032 0.10316 0.54645 0.0
O252 O 0.59603 0.10459 0.49311 0.0
C253 C 0.46863 0.13202 0.51852 0.0
O254 O 0.56687 0.14165 0.46747 0.0
O255 O 0.6312 0.12625 0.4683 0.0
C256 C 0.6376 0.17785 0.52488 0.0
C257 C 0.68913 0.19914 0.53223 0.0
C258 C 0.71358 0.19252 0.50787 0.0
C259 C 0.68808 0.182 0.50419 0.0
C260 C 0.61524 0.18428 0.55021 0.0
C261 C 0.64087 0.19478 0.55396 0.0
C262 C 0.60109 0.16768 0.51711 0.0
C263 C 0.60352 0.13141 0.58986 0.0
C264 C 0.74583 0.13334 0.524 0.0
C265 C 0.58967 0.08699 0.52428 0.0
C266 C 0.55682 0.06447 0.52827 0.0
C267 C 0.58855 0.06919 0.55722 0.0
C268 C 0.60517 0.08032 0.55517 0.0
C269 C 0.55455 0.08238 0.49605 0.0
C270 C 0.53825 0.07127 0.49805 0.0
C271 C 0.6201 0.09799 0.51929 0.0
H272 H 0.75142 0.19557 0.49106 0.0
H273 H 0.70625 0.1773 0.48427 0.0
H274 H 0.57567 0.18137 0.56616 0.0
H275 H 0.62037 0.19968 0.57274 0.0
H276 H 0.60398 0.06416 0.5808 0.0
H277 H 0.63317 0.08355 0.57721 0.0
H278 H 0.54244 0.08723 0.47171 0.0
H279 H 0.51295 0.06792 0.47546 0.0
Dy280 Dy 0.42939 0.86726 0.50771 0.0
Dy281 Dy 0.42383 0.89464 0.49643 0.0
C282 C 0.4332 0.88016 0.43398 0.0
O283 O 0.53603 0.87245 0.51779 0.0
O284 O 0.53291 0.8905 0.49502 0.0
O285 O 0.41919 0.85193 0.48436 0.0
O286 O 0.44956 0.85202 0.53944 0.0
O287 O 0.46148 0.89018 0.55146 0.0
O288 O 0.40879 0.87361 0.55838 0.0
O289 O 0.32032 0.88923 0.50719 0.0
O290 O 0.3209 0.87132 0.49343 0.0
O291 O 0.38815 0.90997 0.51198 0.0
O292 O 0.44319 0.90975 0.46581 0.0
C293 C 0.56615 0.88153 0.50729 0.0
O294 O 0.46355 0.8727 0.45583 0.0
O295 O 0.39735 0.88789 0.44527 0.0
C296 C 0.39649 0.83573 0.51979 0.0
C297 C 0.3447 0.81424 0.52908 0.0
C298 C 0.339 0.82008 0.49617 0.0
C299 C 0.36461 0.83066 0.49159 0.0
C300 C 0.40021 0.83007 0.55295 0.0
C301 C 0.37435 0.81947 0.55757 0.0
C302 C 0.43421 0.84604 0.51352 0.0
C303 C 0.43896 0.88207 0.57149 0.0
C304 C 0.28875 0.88021 0.49981 0.0
C305 C 0.44295 0.92647 0.49355 0.0
C306 C 0.48178 0.9481 0.50615 0.0
C307 C 0.48452 0.93977 0.53352 0.0
C308 C 0.46524 0.92905 0.52729 0.0
C309 C 0.44217 0.93467 0.46614 0.0
C310 C 0.46129 0.94535 0.4723 0.0
C311 C 0.4134 0.91576 0.48645 0.0
H312 H 0.31759 0.8163 0.47349 0.0
H313 H 0.36193 0.83467 0.46555 0.0
H314 H 0.4252 0.83367 0.57515 0.0
H315 H 0.37886 0.81529 0.58338 0.0
H316 H 0.50088 0.94156 0.55983 0.0
H317 H 0.46621 0.92287 0.54895 0.0
H318 H 0.42441 0.9329 0.43997 0.0
H319 H 0.45743 0.95153 0.45065 0.0
C320 C 0.35526 0.3912 0.01494 0.0
C321 C 0.32002 0.38128 0.01356 0.0
C322 C 0.42525 0.39139 0.01458 0.0
C323 C 0.57672 0.37444 0.03455 0.0
H324 H 0.65942 0.39606 0.97305 0.0
C325 C 0.85989 0.37299 0.01532 0.0
C326 C 0.89479 0.38291 0.01111 0.0
C327 C 0.78991 0.37291 0.01553 0.0
C328 C 0.63734 0.39007 0.99078 0.0
H329 H 0.33102 0.36376 0.01105 0.0
H330 H 0.45373 0.36411 0.01086 0.0
H331 H 0.53721 0.3956 0.9738 0.0
H332 H 0.88331 0.40055 0.004 0.0
H333 H 0.76106 0.40044 0.00529 0.0
H334 H 0.67647 0.36902 0.05216 0.0
C335 C 0.42682 0.37173 0.01216 0.0
C336 C 0.56725 0.38979 0.99107 0.0
C337 C 0.35657 0.37154 0.01211 0.0
C338 C 0.85794 0.39276 0.0071 0.0
C339 C 0.78776 0.39269 0.00768 0.0
C340 C 0.64682 0.37479 0.03455 0.0
C341 C 0.4618 0.38167 0.0132 0.0
C342 C 0.53621 0.38194 0.01286 0.0
C343 C 0.75283 0.38275 0.01193 0.0
C344 C 0.67812 0.38257 0.01252 0.0
H345 H 0.32878 0.39887 0.01598 0.0
H346 H 0.45089 0.39916 0.01576 0.0
H347 H 0.55423 0.36841 0.05199 0.0
H348 H 0.88653 0.36523 0.0181 0.0
H349 H 0.76487 0.36508 0.01809 0.0
C350 C 0.17734 0.64371 0.00866 0.0
C351 C 0.14234 0.63379 0.0123 0.0
C352 C 0.24732 0.6438 0.00848 0.0
C353 C 0.39986 0.62654 0.03224 0.0
H354 H 0.48274 0.64846 0.9718 0.0
C355 C 0.68178 0.62553 0.00761 0.0
C356 C 0.71708 0.63544 0.00923 0.0
C357 C 0.61181 0.62533 0.00809 0.0
C358 C 0.46032 0.64235 0.98903 0.0
H359 H 0.15369 0.61614 0.01854 0.0
H360 H 0.27596 0.61626 0.01733 0.0
H361 H 0.36054 0.64785 0.97183 0.0
H362 H 0.70614 0.65293 0.01233 0.0
H363 H 0.58349 0.65257 0.01276 0.0
H364 H 0.50003 0.62094 0.04882 0.0
C365 C 0.24931 0.62401 0.01533 0.0
C366 C 0.39024 0.64201 0.98915 0.0
C367 C 0.17913 0.62393 0.01586 0.0
C368 C 0.68056 0.64516 0.01105 0.0
C369 C 0.61034 0.64497 0.01115 0.0
C370 C 0.46994 0.62683 0.03184 0.0
C371 C 0.28433 0.63396 0.01157 0.0
C372 C 0.35903 0.63413 0.0109 0.0
C373 C 0.57531 0.63503 0.00986 0.0
C374 C 0.50091 0.63476 0.01033 0.0
H375 H 0.15076 0.65148 0.00625 0.0
H376 H 0.27244 0.65162 0.00632 0.0
H377 H 0.37784 0.62048 0.04975 0.0
H378 H 0.7082 0.61787 0.00628 0.0
H379 H 0.58614 0.61757 0.00671 0.0
C380 C 0.86366 0.63866 0.54031 0.0
C381 C 0.8962 0.63133 0.52086 0.0
C382 C 0.79364 0.63861 0.54092 0.0
C383 C 0.63837 0.63194 0.49071 0.0
H384 H 0.55764 0.6319 0.57865 0.0
C385 C 0.35488 0.641 0.50175 0.0
C386 C 0.32165 0.63346 0.52365 0.0
C387 C 0.42508 0.64065 0.50128 0.0
C388 C 0.57948 0.6319 0.55392 0.0
H389 H 0.88048 0.61823 0.48667 0.0
H390 H 0.75752 0.61832 0.48719 0.0
H391 H 0.68024 0.63116 0.57805 0.0
H392 H 0.33638 0.61979 0.56273 0.0
H393 H 0.4588 0.61937 0.56241 0.0
H394 H 0.53751 0.63285 0.46658 0.0
C395 C 0.78663 0.62404 0.50211 0.0
C396 C 0.64958 0.63153 0.55356 0.0
C397 C 0.85696 0.62395 0.50198 0.0
C398 C 0.36031 0.62571 0.54549 0.0
C399 C 0.43047 0.62548 0.54543 0.0
C400 C 0.56823 0.6325 0.49104 0.0
C401 C 0.75431 0.63136 0.52167 0.0
C402 C 0.67978 0.63152 0.52197 0.0
C403 C 0.46358 0.63289 0.52313 0.0
C404 C 0.53805 0.63246 0.52266 0.0
H405 H 0.89234 0.64442 0.55528 0.0
H406 H 0.77011 0.64438 0.55604 0.0
H407 H 0.66031 0.63203 0.46598 0.0
H408 H 0.3266 0.64705 0.48451 0.0
H409 H 0.44934 0.64651 0.484 0.0
C410 C 0.67957 0.38987 0.4993 0.0
C411 C 0.71552 0.37997 0.49989 0.0
C412 C 0.60957 0.3899 0.49959 0.0
C413 C 0.46831 0.37298 0.52576 0.0
H414 H 0.36028 0.39359 0.4634 0.0
C415 C 0.17794 0.37151 0.51373 0.0
C416 C 0.1419 0.38144 0.50823 0.0
C417 C 0.24786 0.37131 0.51293 0.0
C418 C 0.38966 0.38789 0.48138 0.0
H419 H 0.70582 0.36232 0.50118 0.0
H420 H 0.58317 0.36239 0.50201 0.0
H421 H 0.48204 0.39315 0.46092 0.0
H422 H 0.15155 0.399 0.49832 0.0
H423 H 0.27377 0.39871 0.49786 0.0
H424 H 0.37641 0.36785 0.54677 0.0
C425 C 0.60954 0.37012 0.50133 0.0
C426 C 0.45945 0.38761 0.47981 0.0
C427 C 0.67969 0.37009 0.50065 0.0
C428 C 0.17766 0.3912 0.50245 0.0
C429 C 0.24778 0.39102 0.50195 0.0
C430 C 0.39856 0.37333 0.52757 0.0
C431 C 0.5738 0.38004 0.50081 0.0
C432 C 0.49952 0.38015 0.50197 0.0
C433 C 0.28377 0.38106 0.50692 0.0
C434 C 0.35825 0.38078 0.50537 0.0
H435 H 0.70545 0.39764 0.49862 0.0
H436 H 0.58351 0.39766 0.49952 0.0
H437 H 0.49801 0.36725 0.54351 0.0
H438 H 0.15208 0.36381 0.51798 0.0
H439 H 0.27354 0.36347 0.51628 0.0
C440 C 0.85578 0.8717 0.01183 0.0
C441 C 0.81919 0.88146 0.01288 0.0
C442 C 0.92604 0.87189 0.0119 0.0
C443 C 0.06648 0.88986 0.99017 0.0
H444 H 0.17566 0.86933 0.05213 0.0
C445 C 0.35712 0.8929 0.00616 0.0
C446 C 0.39406 0.88306 0.01064 0.0
C447 C 0.28694 0.89283 0.00672 0.0
C448 C 0.14602 0.87503 0.03427 0.0
H449 H 0.8279 0.89907 0.01459 0.0
H450 H 0.95002 0.89936 0.0144 0.0
H451 H 0.0534 0.86872 0.0519 0.0
H452 H 0.38597 0.86539 0.01849 0.0
H453 H 0.26429 0.86524 0.01845 0.0
H454 H 0.15866 0.89605 0.97195 0.0
C455 C 0.9244 0.89158 0.01352 0.0
C456 C 0.07592 0.87468 0.03425 0.0
C457 C 0.8544 0.89139 0.01387 0.0
C458 C 0.35925 0.87315 0.01533 0.0
C459 C 0.28926 0.87306 0.01552 0.0
C460 C 0.13657 0.89014 0.9899 0.0
C461 C 0.961 0.88184 0.01255 0.0
C462 C 0.03542 0.8821 0.01224 0.0
C463 C 0.25208 0.88289 0.01142 0.0
C464 C 0.17735 0.88272 0.01196 0.0
H465 H 0.83025 0.86392 0.01107 0.0
H466 H 0.95297 0.86425 0.01091 0.0
H467 H 0.03645 0.89561 0.97265 0.0
H468 H 0.38242 0.90068 0.00267 0.0
H469 H 0.26018 0.90057 0.00395 0.0
C470 C 0.17898 0.14495 0.01155 0.0
C471 C 0.21555 0.13522 0.01007 0.0
C472 C 0.10875 0.14476 0.01165 0.0
C473 C 0.96011 0.12717 0.99188 0.0
H474 H 0.87124 0.1467 0.04799 0.0
C475 C 0.67751 0.12369 0.01723 0.0
C476 C 0.64067 0.13355 0.01288 0.0
C477 C 0.74776 0.12376 0.01704 0.0
C478 C 0.89537 0.14124 0.03204 0.0
H479 H 0.20682 0.11763 0.00801 0.0
H480 H 0.0853 0.11727 0.00914 0.0
H481 H 0.99338 0.14718 0.04716 0.0
H482 H 0.64902 0.15123 0.00536 0.0
H483 H 0.77112 0.15131 0.00539 0.0
H484 H 0.8618 0.12112 0.97734 0.0
C485 C 0.11033 0.1251 0.00927 0.0
C486 C 0.96539 0.14155 0.0314 0.0
C487 C 0.18031 0.1253 0.00882 0.0
C488 C 0.67568 0.14347 0.00867 0.0
C489 C 0.74575 0.14354 0.00891 0.0
C490 C 0.89015 0.12679 0.99282 0.0
C491 C 0.07348 0.13482 0.01063 0.0
C492 C 0.99875 0.13454 0.01122 0.0
C493 C 0.78257 0.1337 0.013 0.0
C494 C 0.85703 0.13386 0.01279 0.0
H495 H 0.20451 0.15273 0.01236 0.0
H496 H 0.08209 0.15243 0.01216 0.0
H497 H 0.98374 0.12178 0.97554 0.0
H498 H 0.65212 0.11591 0.02048 0.0
H499 H 0.77495 0.11605 0.02046 0.0
C500 C 0.35847 0.12204 0.5195 0.0
C501 C 0.39421 0.13192 0.51808 0.0
C502 C 0.28835 0.12208 0.52027 0.0
C503 C 0.14664 0.13987 0.53917 0.0
H504 H 0.03726 0.11894 0.49026 0.0
C505 C 0.85603 0.14301 0.51833 0.0
C506 C 0.82028 0.13326 0.52447 0.0
C507 C 0.92618 0.14282 0.51801 0.0
C508 C 0.06725 0.12478 0.50427 0.0
H509 H 0.38395 0.14961 0.51537 0.0
H510 H 0.26228 0.14967 0.51577 0.0
H511 H 0.15927 0.1186 0.48829 0.0
H512 H 0.83049 0.11564 0.53507 0.0
H513 H 0.95254 0.11534 0.5343 0.0
H514 H 0.05428 0.14616 0.55461 0.0
C515 C 0.28825 0.14187 0.51731 0.0
C516 C 0.13721 0.12457 0.50325 0.0
C517 C 0.35819 0.14183 0.51685 0.0
C518 C 0.85631 0.12332 0.53033 0.0
C519 C 0.92626 0.12312 0.52966 0.0
C520 C 0.07669 0.14014 0.53992 0.0
C521 C 0.25237 0.132 0.51935 0.0
C522 C 0.17786 0.13212 0.52067 0.0
C523 C 0.96195 0.13286 0.52344 0.0
C524 C 0.03625 0.1326 0.52251 0.0
H525 H 0.3847 0.11427 0.52065 0.0
H526 H 0.26255 0.11431 0.52226 0.0
H527 H 0.1763 0.14567 0.55349 0.0
H528 H 0.82989 0.1508 0.51373 0.0
H529 H 0.95235 0.15044 0.51291 0.0
C530 C 0.67667 0.87152 0.5138 0.0
C531 C 0.64068 0.88147 0.50823 0.0
C532 C 0.74662 0.87133 0.51311 0.0
C533 C 0.89751 0.88825 0.52352 0.0
H534 H 0.97859 0.86699 0.47023 0.0
C535 C 0.17851 0.89003 0.49915 0.0
C536 C 0.21433 0.88013 0.49952 0.0
C537 C 0.10862 0.89007 0.49995 0.0
C538 C 0.95698 0.87287 0.48566 0.0
H539 H 0.65044 0.89904 0.49818 0.0
H540 H 0.7729 0.89868 0.49738 0.0
H541 H 0.85677 0.86732 0.47293 0.0
H542 H 0.2045 0.86249 0.5009 0.0
H543 H 0.08247 0.86254 0.50313 0.0
H544 H 0.9974 0.8937 0.53684 0.0
C545 C 0.74668 0.89104 0.50222 0.0
C546 C 0.88711 0.87308 0.4871 0.0
C547 C 0.67653 0.89123 0.50253 0.0
C548 C 0.17842 0.87026 0.5004 0.0
C549 C 0.10836 0.8703 0.50154 0.0
C550 C 0.9674 0.88797 0.52237 0.0
C551 C 0.78238 0.88107 0.50719 0.0
C552 C 0.85662 0.8808 0.50592 0.0
C553 C 0.07257 0.88021 0.5015 0.0
C554 C 0.99811 0.88033 0.50325 0.0
H555 H 0.65079 0.86383 0.51818 0.0
H556 H 0.77284 0.86353 0.51741 0.0
H557 H 0.8755 0.89418 0.53864 0.0
H558 H 0.20442 0.8978 0.49812 0.0
H559 H 0.08282 0.89787 0.49909 0.0
C560 C 0.99138 0.54781 0.04479 0.0
C561 C 0.99382 0.55485 0.0144 0.0
C562 C 0.99835 0.53649 0.04379 0.0
C563 C 0.06001 0.51523 0.99114 0.0
H564 H 0.94232 0.49626 0.04352 0.0
C565 C 0.04544 0.46881 0.97574 0.0
C566 C 0.04277 0.46179 0.00617 0.0
C567 C 0.0383 0.48013 0.97661 0.0
C568 C 0.97607 0.50143 0.02904 0.0
H569 H 1.00708 0.55547 0.95922 0.0
H570 H 0.01838 0.5357 0.95738 0.0
H571 H 0.93389 0.51604 0.04538 0.0
H572 H 0.02891 0.46122 0.06128 0.0
H573 H 1.01741 0.48099 0.06291 0.0
H574 H 0.10224 0.50061 0.97482 0.0
C575 C 1.01154 0.53896 0.98207 0.0
C576 C 0.97128 0.51278 0.03012 0.0
C577 C 1.00445 0.55029 0.98306 0.0
C578 C 0.03174 0.46639 0.03741 0.0
C579 C 0.02452 0.47772 0.03828 0.0
C580 C 0.06482 0.50387 0.99007 0.0
C581 C 1.00796 0.53191 0.01238 0.0
C582 C 1.01323 0.51982 0.01121 0.0
C583 C 0.02831 0.48474 0.00793 0.0
C584 C 0.0229 0.49683 0.009 0.0
H585 H 0.98237 0.55101 0.06931 0.0
H586 H 0.99619 0.53133 0.06771 0.0
H587 H 0.09376 0.52039 0.97666 0.0
H588 H 0.05475 0.46559 0.9513 0.0
H589 H 0.04063 0.48527 0.95266 0.0
C590 C 0.02739 0.4638 0.53726 0.0
C591 C 0.98297 0.46031 0.51029 0.0
C592 C 0.03421 0.47496 0.54225 0.0
C593 C 0.94562 0.50156 0.52305 0.0
H594 H 0.12283 0.51409 0.53908 0.0
C595 C 0.99 0.54821 0.51033 0.0
C596 C 0.04033 0.55266 0.53256 0.0
C597 C 0.98132 0.53689 0.51055 0.0
C598 C 0.07284 0.51072 0.5352 0.0
H599 H 0.90992 0.46584 0.46791 0.0
H600 H 0.92233 0.48522 0.47637 0.0
H601 H 0.11172 0.49445 0.53408 0.0
H602 H 0.12018 0.54855 0.57301 0.0
H603 H 0.10364 0.52885 0.57415 0.0
H604 H 0.90656 0.51778 0.52412 0.0
C605 C 0.95178 0.47935 0.49375 0.0
C606 C 0.06653 0.49944 0.53227 0.0
C607 C 0.94531 0.46824 0.48862 0.0
C608 C 0.08043 0.54546 0.55576 0.0
C609 C 0.0716 0.53412 0.55605 0.0
C610 C 0.95186 0.51281 0.52616 0.0
C611 C 0.99622 0.48287 0.52063 0.0
C612 C 1.0029 0.49475 0.52572 0.0
C613 C 0.02252 0.52967 0.53312 0.0
C614 C 1.0156 0.51758 0.53187 0.0
H615 H 0.0573 0.45792 0.55431 0.0
H616 H 0.06859 0.4774 0.56333 0.0
H617 H 0.89575 0.49818 0.51862 0.0
H618 H 0.95761 0.55349 0.49241 0.0
H619 H 0.94343 0.53379 0.49226 0.0
C620 C 0.49068 0.96748 0.98767 0.0
C621 C 0.54286 0.96173 0.00802 0.0
C622 C 0.48355 0.9788 0.98874 0.0
C623 C 0.5807 1.00334 0.01082 0.0
H624 H 0.40462 0.01693 0.00873 0.0
C625 C 0.54428 0.04912 0.03229 0.0
C626 C 0.49186 0.05489 0.01216 0.0
C627 C 0.55147 0.03781 0.03106 0.0
C628 C 0.45415 0.01329 0.00888 0.0
H629 H 0.62813 0.96342 0.0457 0.0
H630 H 0.61483 0.98309 0.04809 0.0
H631 H 0.41387 0.9971 0.00908 0.0
H632 H 0.40628 0.05322 0.97465 0.0
H633 H 0.41972 0.03356 0.97193 0.0
H634 H 0.62099 0.01953 0.01062 0.0
C635 C 0.57985 0.97887 0.03098 0.0
C636 C 0.45944 1.0019 0.00913 0.0
C637 C 0.5869 0.96755 0.02997 0.0
C638 C 0.44769 0.04908 0.99021 0.0
C639 C 0.45482 0.03777 0.98902 0.0
C640 C 0.57541 0.01473 0.01056 0.0
C641 C 0.52853 0.98466 0.01011 0.0
C642 C 0.52279 0.99678 0.01013 0.0
C643 C 0.50633 0.03197 0.00971 0.0
C644 C 0.51207 0.01985 0.00958 0.0
H645 H 0.45553 0.96324 0.9707 0.0
H646 H 0.44373 0.983 0.97214 0.0
H647 H 0.63023 0.99969 0.01099 0.0
H648 H 0.57956 0.05335 0.04924 0.0
H649 H 0.59144 0.0336 0.04753 0.0
C650 C 0.56548 0.0469 0.49986 0.0
C651 C 0.54828 0.0524 0.52847 0.0
C652 C 0.56066 0.03552 0.50023 0.0
C653 C 0.47716 0.01159 0.54047 0.0
H654 H 0.62268 0.99549 0.50666 0.0
C655 C 0.47521 0.96428 0.54218 0.0
C656 C 0.497 0.95971 0.51275 0.0
C657 C 0.48483 0.9754 0.54687 0.0
C658 C 0.58121 0.99985 0.51585 0.0
H659 H 0.51172 0.05023 0.57978 0.0
H660 H 0.50284 0.03028 0.58034 0.0
H661 H 0.6312 0.01524 0.50915 0.0
H662 H 0.54844 0.96325 0.46589 0.0
H663 H 0.56342 0.98261 0.47348 0.0
H664 H 0.42634 0.99626 0.54638 0.0
C665 C 0.52006 0.03482 0.55762 0.0
C666 C 0.58621 0.01118 0.51734 0.0
C667 C 0.52552 0.04623 0.55739 0.0
C668 C 0.53017 0.9665 0.48863 0.0
C669 C 0.53954 0.97761 0.49324 0.0
C670 C 0.47189 1.00025 0.53873 0.0
C671 C 0.53817 0.02934 0.52913 0.0
C672 C 0.53398 0.01721 0.52932 0.0
C673 C 0.51641 0.98225 0.52224 0.0
C674 C 0.52358 0.99423 0.52605 0.0
H675 H 0.58407 0.05137 0.47736 0.0
H676 H 0.57429 0.03157 0.47772 0.0
H677 H 0.43579 0.01601 0.54953 0.0
H678 H 0.4489 0.95934 0.56115 0.0
H679 H 0.46716 0.97863 0.56977 0.0
C680 C 0.16303 0.29509 0.03797 0.0
C681 C 0.2089 0.30338 0.02911 0.0
C682 C 0.17856 0.28409 0.03527 0.0
C683 C 0.28696 0.26633 0.99032 0.0
H684 H 0.2381 0.24393 0.06009 0.0
C685 C 0.37479 0.2214 0.99112 0.0
C686 C 0.32938 0.21307 0.00019 0.0
C687 C 0.35941 0.23237 0.99441 0.0
C688 C 0.25131 0.25006 0.04013 0.0
H689 H 0.30802 0.30647 0.01127 0.0
H690 H 0.33509 0.28725 0.00652 0.0
H691 H 0.21442 0.2631 0.06725 0.0
H692 H 0.23149 0.20984 0.01932 0.0
H693 H 0.20442 0.22903 0.02491 0.0
H694 H 0.32363 0.25331 0.96313 0.0
C695 C 0.28663 0.28931 0.01512 0.0
C696 C 0.23787 0.26106 0.04428 0.0
C697 C 0.27114 0.30033 0.01789 0.0
C698 C 0.26791 0.21603 0.01244 0.0
C699 C 0.25247 0.22703 0.01571 0.0
C700 C 0.30032 0.25533 0.98615 0.0
C701 C 0.2403 0.28105 0.02354 0.0
C702 C 0.25557 0.26934 0.01944 0.0
C703 C 0.29819 0.23534 0.00686 0.0
C704 C 0.28276 0.24705 0.01102 0.0
H705 H 0.11406 0.29712 0.04602 0.0
H706 H 0.14127 0.27797 0.04146 0.0
H707 H 0.30019 0.27247 0.97038 0.0
H708 H 0.42321 0.21942 0.9823 0.0
H709 H 0.39636 0.23851 0.98793 0.0
C710 C 0.66267 0.7953 0.0373 0.0
C711 C 0.70844 0.8036 0.02853 0.0
C712 C 0.67832 0.7843 0.03448 0.0
C713 C 0.78735 0.76661 0.98958 0.0
H714 H 0.73792 0.74416 0.05907 0.0
C715 C 0.87564 0.72166 0.99066 0.0
C716 C 0.83007 0.71334 -0.0005 0.0
C717 C 0.86012 0.73264 0.99385 0.0
C718 C 0.7513 0.7503 0.03919 0.0
H719 H 0.80747 0.80676 0.01066 0.0
H720 H 0.83482 0.78755 0.00574 0.0
H721 H 0.71404 0.76332 0.06628 0.0
H722 H 0.73167 0.71012 0.01805 0.0
H723 H 0.70442 0.7293 0.02351 0.0
H724 H 0.82449 0.7536 0.96245 0.0
C725 C 0.78632 0.78958 0.01436 0.0
C726 C 0.73773 0.7613 0.04336 0.0
C727 C 0.77068 0.8006 0.01723 0.0
C728 C 0.76824 0.7163 0.01137 0.0
C729 C 0.75269 0.7273 0.01456 0.0
C730 C 0.80087 0.75561 0.98539 0.0
C731 C 0.74012 0.7813 0.02273 0.0
C732 C 0.75559 0.7696 0.01861 0.0
C733 C 0.79861 0.73561 0.00599 0.0
C734 C 0.78308 0.74731 0.01015 0.0
H735 H 0.61369 0.7973 0.0454 0.0
H736 H 0.6411 0.77817 0.04062 0.0
H737 H 0.80074 0.77275 0.9697 0.0
H738 H 0.92431 0.71969 0.98214 0.0
H739 H 0.89719 0.73879 0.98758 0.0
C740 C 0.16486 0.71931 0.50481 0.0
C741 C 0.20023 0.7112 0.52678 0.0
C742 C 0.18025 0.73036 0.50679 0.0
C743 C 0.26596 0.74996 0.56396 0.0
H744 H 0.25818 0.76874 0.47823 0.0
C745 C 0.36297 0.79479 0.55453 0.0
C746 C 0.32372 0.80255 0.53293 0.0
C747 C 0.34674 0.78366 0.5557 0.0
C748 C 0.25988 0.76363 0.50245 0.0
H749 H 0.27951 0.7084 0.56824 0.0
H750 H 0.30741 0.72774 0.57137 0.0
H751 H 0.23466 0.74932 0.4762 0.0
H752 H 0.23451 0.80464 0.49697 0.0
H753 H 0.20688 0.78525 0.49871 0.0
H754 H 0.29241 0.76435 0.59003 0.0
C755 C 0.26691 0.72554 0.55291 0.0
C756 C 0.2463 0.75248 0.50132 0.0
C757 C 0.25112 0.71445 0.55107 0.0
C758 C 0.26669 0.7989 0.51337 0.0
C759 C 0.25078 0.78778 0.51437 0.0
C760 C 0.28006 0.76113 0.56505 0.0
C761 C 0.2318 0.73365 0.53067 0.0
C762 C 0.24857 0.74549 0.53206 0.0
C763 C 0.29116 0.78 0.53515 0.0
C764 C 0.27666 0.76811 0.53431 0.0
H765 H 0.12433 0.71712 0.48634 0.0
H766 H 0.15095 0.73635 0.48981 0.0
H767 H 0.26742 0.74488 0.5882 0.0
H768 H 0.4078 0.79724 0.56959 0.0
H769 H 0.37919 0.77787 0.57176 0.0
C770 C 0.82585 0.29617 0.56498 0.0
C771 C 0.82686 0.30254 0.53315 0.0
C772 C 0.81042 0.28501 0.56571 0.0
C773 C 0.81128 0.26162 0.51126 0.0
H774 H 0.69675 0.24787 0.57817 0.0
C775 C 0.71579 0.21739 0.50236 0.0
C776 C 0.71024 0.21078 0.53338 0.0
C777 C 0.73158 0.22849 0.5031 0.0
C778 C 0.72963 0.25154 0.55962 0.0
H779 H 0.8119 0.30213 0.47713 0.0
H780 H 0.78411 0.28276 0.47844 0.0
H781 H 0.71921 0.26744 0.57804 0.0
H782 H 0.71869 0.21064 0.5896 0.0
H783 H 0.74704 0.22999 0.59096 0.0
H784 H 0.82217 0.24576 0.49292 0.0
C785 C 0.79578 0.28637 0.50285 0.0
C786 C 0.74235 0.26277 0.5595 0.0
C787 C 0.81085 0.29752 0.50213 0.0
C788 C 0.72184 0.21553 0.56521 0.0
C789 C 0.73789 0.22663 0.56598 0.0
C790 C 0.79881 0.25039 0.51146 0.0
C791 C 0.79609 0.27994 0.53462 0.0
C792 C 0.78299 0.26797 0.53517 0.0
C793 C 0.7425 0.23328 0.53491 0.0
C794 C 0.75749 0.2452 0.5355 0.0
H795 H 0.83748 0.29979 0.58936 0.0
H796 H 0.81145 0.28029 0.59062 0.0
H797 H 0.84386 0.26531 0.49258 0.0
H798 H 0.70592 0.21407 0.47735 0.0
H799 H 0.7335 0.23337 0.47863 0.0
C800 C 0.10992 0.37431 0.14025 0.0
C801 C 0.09186 0.38341 0.11695 0.0
C802 C 0.09387 0.37401 0.17482 0.0
C803 C 0.04342 0.39152 0.24222 0.0
H804 H 0.97178 0.36446 0.2827 0.0
C805 C 0.92492 0.38892 0.37394 0.0
C806 C 0.94519 0.37994 0.39729 0.0
C807 C 0.94081 0.38931 0.33932 0.0
C808 C 0.99217 0.37205 0.27185 0.0
H809 H 0.04439 0.39947 0.11202 0.0
H810 H 1.01605 0.39889 0.17202 0.0
H811 H 1.0074 0.36531 0.22375 0.0
H812 H 0.99629 0.36418 0.40234 0.0
H813 H 0.0239 0.36489 0.34215 0.0
H814 H 0.02792 0.39826 0.29033 0.0
C815 C 0.04314 0.39203 0.16374 0.0
C816 C 1.01284 0.37253 0.23813 0.0
C817 C 0.05916 0.39233 0.12924 0.0
C818 C 0.97995 0.37123 0.38506 0.0
C819 C 0.99552 0.3716 0.35049 0.0
C820 C 0.02261 0.39105 0.27592 0.0
C821 C 0.05947 0.38281 0.18682 0.0
C822 C 0.03881 0.38226 0.22294 0.0
C823 C 0.9769 0.3807 0.32734 0.0
C824 C 0.99689 0.3813 0.29113 0.0
H825 H 0.13527 0.36731 0.13168 0.0
H826 H 0.10811 0.36686 0.19211 0.0
H827 H 0.06398 0.3991 0.23145 0.0
H828 H 0.89809 0.39577 0.38253 0.0
H829 H 0.92506 0.39637 0.32195 0.0
C830 C 0.97174 0.6448 0.13479 0.0
C831 C 0.95458 0.63511 0.11925 0.0
C832 C 0.9861 0.64466 0.17075 0.0
C833 C 0.97166 0.62723 0.25348 0.0
H834 H 0.10679 0.64713 0.28907 0.0
C835 C 0.08979 0.62433 0.39586 0.0
C836 C 0.08322 0.63395 0.41278 0.0
C837 C 0.07486 0.62439 0.35993 0.0
C838 C 0.06887 0.64156 0.27939 0.0
H839 H 0.9393 0.61768 0.12895 0.0
H840 H 0.96722 0.61731 0.1914 0.0
H841 H 0.07894 0.64727 0.22654 0.0
H842 H 0.05778 0.65122 0.40547 0.0
H843 H 0.03377 0.65138 0.3424 0.0
H844 H 0.96396 0.62129 0.30664 0.0
C845 C 0.96745 0.62511 0.17619 0.0
C846 C 0.05237 0.64168 0.2436 0.0
C847 C 0.95173 0.62529 0.14031 0.0
C848 C 0.06306 0.64368 0.39307 0.0
C849 C 0.04958 0.64379 0.35707 0.0
C850 C 0.98922 0.62697 0.28923 0.0
C851 C 0.98507 0.63479 0.19193 0.0
C852 C 1.00313 0.63457 0.23012 0.0
C853 C 0.05462 0.63412 0.3403 0.0
C854 C 0.03762 0.63418 0.30244 0.0
H855 H 0.97372 0.65251 0.11917 0.0
H856 H 0.99776 0.65233 0.18186 0.0
H857 H 0.93264 0.62178 0.24431 0.0
H858 H 0.10488 0.6167 0.41047 0.0
H859 H 0.07932 0.61685 0.34744 0.0
C860 C 0.95696 0.6234 0.89121 0.0
C861 C 0.94613 0.63335 0.90558 0.0
C862 C 0.97301 0.62326 0.8568 0.0
C863 C 0.97567 0.64058 0.77333 0.0
H864 H 0.10583 0.61882 0.75372 0.0
C865 C 0.09922 0.64142 0.64298 0.0
C866 C 0.09623 0.63153 0.62686 0.0
C867 C 0.08265 0.64174 0.6773 0.0
C868 C 0.06922 0.62491 0.75882 0.0
H869 H 0.94252 0.65098 0.89499 0.0
H870 H 0.97249 0.65079 0.83523 0.0
H871 H 0.07123 0.61928 0.81254 0.0
H872 H 0.07574 0.61416 0.63445 0.0
H873 H 0.04815 0.61471 0.69464 0.0
H874 H 0.97527 0.64632 0.71954 0.0
C875 C 0.9671 0.64305 0.85022 0.0
C876 C 0.04896 0.62514 0.79247 0.0
C877 C 0.95006 0.64317 0.88455 0.0
C878 C 0.07848 0.62191 0.64613 0.0
C879 C 0.06287 0.62221 0.6806 0.0
C880 C 0.99666 0.64042 0.73976 0.0
C881 C 0.97971 0.63309 0.83604 0.0
C882 C 1.00151 0.63293 0.80015 0.0
C883 C 0.06378 0.63215 0.69632 0.0
C884 C 0.04332 0.63254 0.73216 0.0
H885 H 0.95362 0.61568 0.90667 0.0
H886 H 0.98056 0.61542 0.84658 0.0
H887 H 0.93836 0.64659 0.77806 0.0
H888 H 0.11238 0.64898 0.62879 0.0
H889 H 0.08431 0.64949 0.68895 0.0
C890 C 0.9869 0.39108 0.62454 0.0
C891 C 0.9514 0.38239 0.61018 0.0
C892 C 1.00133 0.39106 0.66045 0.0
C893 C 0.95018 0.37895 0.74439 0.0
H894 H 0.13012 0.38697 0.77885 0.0
C895 C 0.04179 0.37269 0.88959 0.0
C896 C 0.07989 0.38112 0.90389 0.0
C897 C 0.02678 0.37281 0.8537 0.0
C898 C 0.07944 0.38483 0.76965 0.0
H899 H 0.90212 0.36694 0.62241 0.0
H900 H 0.92752 0.3669 0.68511 0.0
H901 H 0.10088 0.38744 0.71635 0.0
H902 H 0.13274 0.39623 0.8917 0.0
H903 H 0.10587 0.39649 0.82907 0.0
H904 H 0.9286 0.37639 0.79766 0.0
C905 C 0.94378 0.37377 0.66855 0.0
C906 C 0.06269 0.3851 0.73386 0.0
C907 C 0.92948 0.37377 0.6326 0.0
C908 C 0.10347 0.38959 0.8815 0.0
C909 C 0.0883 0.38972 0.84558 0.0
C910 C 0.96687 0.37871 0.78019 0.0
C911 C 0.98044 0.38236 0.68281 0.0
C912 C 0.9979 0.38216 0.72084 0.0
C913 C 0.04938 0.38137 0.8313 0.0
C914 C 0.03173 0.38163 0.79323 0.0
H915 H 1.00436 0.39788 0.60806 0.0
H916 H 0.0288 0.39787 0.67071 0.0
H917 H 0.89959 0.37678 0.73514 0.0
H918 H 0.02317 0.36601 0.90609 0.0
H919 H 0.99768 0.36615 0.84349 0.0
C920 C 0.55875 0.89299 0.12824 0.0
C921 C 0.59123 0.88401 0.1162 0.0
C922 C 0.54294 0.89281 0.16276 0.0
C923 C 0.58348 0.87908 0.25024 0.0
H924 H 0.40492 0.88894 0.26712 0.0
C925 C 0.48015 0.87169 0.38441 0.0
C926 C 0.44512 0.88036 0.39672 0.0
C927 C 0.49662 0.87218 0.34998 0.0
C928 C 0.45521 0.88628 0.2629 0.0
H929 H 0.63424 0.8679 0.13137 0.0
H930 H 0.60647 0.86759 0.19166 0.0
H931 H 0.43912 0.88994 0.20787 0.0
H932 H 0.39849 0.89623 0.38224 0.0
H933 H 0.42785 0.89713 0.32206 0.0
H934 H 0.59969 0.87543 0.30523 0.0
C935 C 0.59361 0.8748 0.17436 0.0
C936 C 0.47483 0.88685 0.22895 0.0
C937 C 0.60935 0.87497 0.13977 0.0
C938 C 0.4253 0.8894 0.37354 0.0
C939 C 0.44199 0.8899 0.33903 0.0
C940 C 0.56392 0.87852 0.28418 0.0
C941 C 0.55934 0.88365 0.18609 0.0
C942 C 0.53912 0.88323 0.22225 0.0
C943 C 0.47867 0.88136 0.32701 0.0
C944 C 0.49945 0.88207 0.29089 0.0
H945 H 0.5443 0.90011 0.11086 0.0
H946 H 0.51754 0.89983 0.17116 0.0
H947 H 0.63366 0.87637 0.24597 0.0
H948 H 0.49572 0.86456 0.4015 0.0
H949 H 0.52365 0.86536 0.34137 0.0
C950 C 0.4706 0.14489 0.13501 0.0
C951 C 0.45262 0.1352 0.11973 0.0
C952 C 0.48519 0.14482 0.17093 0.0
C953 C 0.46977 0.12766 0.25404 0.0
H954 H 0.60755 0.14724 0.28893 0.0
C955 C 0.58809 0.12463 0.39619 0.0
C956 C 0.58348 0.13432 0.41299 0.0
C957 C 0.57302 0.1247 0.36029 0.0
C958 C 0.56888 0.14176 0.27945 0.0
H959 H 0.43609 0.11781 0.12987 0.0
H960 H 0.46431 0.11755 0.19226 0.0
H961 H 0.57899 0.14732 0.22647 0.0
H962 H 0.56144 0.15171 0.40542 0.0
H963 H 0.5371 0.15186 0.34238 0.0
H964 H 0.46192 0.12187 0.3073 0.0
C965 C 0.46504 0.12531 0.17687 0.0
C966 C 0.55199 0.14185 0.2437 0.0
C967 C 0.44915 0.12543 0.14102 0.0
C968 C 0.56521 0.14412 0.39314 0.0
C969 C 0.55154 0.14422 0.35715 0.0
C970 C 0.48766 0.12744 0.28973 0.0
C971 C 0.48352 0.135 0.19234 0.0
C972 C 0.50185 0.13485 0.23048 0.0
C973 C 0.55453 0.13449 0.34052 0.0
C974 C 0.53704 0.13453 0.30271 0.0
H975 H 0.47309 0.15256 0.11921 0.0
H976 H 0.49756 0.1525 0.18186 0.0
H977 H 0.43007 0.1223 0.24504 0.0
H978 H 0.60168 0.11695 0.41089 0.0
H979 H 0.57591 0.11711 0.34792 0.0
C980 C 0.45583 0.12282 0.89209 0.0
C981 C 0.44443 0.13278 0.9063 0.0
C982 C 0.4715 0.12266 0.85762 0.0
C983 C 0.47178 0.13994 0.77391 0.0
H984 H 0.60316 0.11845 0.75384 0.0
C985 C 0.59531 0.14127 0.6436 0.0
C986 C 0.59264 0.13143 0.62718 0.0
C987 C 0.5787 0.14146 0.67794 0.0
C988 C 0.5662 0.12446 0.75908 0.0
H989 H 0.43958 0.15039 0.89541 0.0
H990 H 0.46892 0.15017 0.83561 0.0
H991 H 0.56904 0.1188 0.8128 0.0
H992 H 0.57272 0.11404 0.63426 0.0
H993 H 0.54508 0.11437 0.69452 0.0
H994 H 0.47063 0.14574 0.72015 0.0
C995 C 0.46419 0.14244 0.85073 0.0
C996 C 0.54621 0.12463 0.7928 0.0
C997 C 0.44753 0.14258 0.8851 0.0
C998 C 0.57516 0.12174 0.64617 0.0
C999 C 0.55955 0.12192 0.68067 0.0
C1000 C 0.49251 0.13986 0.74029 0.0
C1001 C 0.47722 0.13248 0.83666 0.0
C1002 C 0.49841 0.13233 0.80065 0.0
C1003 C 0.56014 0.13181 0.69668 0.0
C1004 C 0.53967 0.13208 0.73254 0.0
H1005 H 0.45318 0.11512 0.9077 0.0
H1006 H 0.47946 0.11483 0.84749 0.0
H1007 H 0.43413 0.14588 0.77876 0.0
H1008 H 0.60826 0.14888 0.62962 0.0
H1009 H 0.5801 0.14918 0.68982 0.0
C1010 C 0.48621 0.89092 0.62416 0.0
C1011 C 0.45075 0.88225 0.60967 0.0
C1012 C 0.50078 0.89083 0.66007 0.0
C1013 C 0.45 0.87861 0.74391 0.0
H1014 H 0.62993 0.88665 0.7783 0.0
C1015 C 0.54154 0.87251 0.88921 0.0
C1016 C 0.57959 0.88097 0.90336 0.0
C1017 C 0.52659 0.87257 0.85333 0.0
C1018 C 0.57925 0.8845 0.76913 0.0
H1019 H 0.4017 0.86676 0.62168 0.0
H1020 H 0.42731 0.86662 0.6844 0.0
H1021 H 0.60059 0.88713 0.71582 0.0
H1022 H 0.6324 0.89607 0.89091 0.0
H1023 H 0.60563 0.89622 0.82832 0.0
H1024 H 0.4285 0.87603 0.79718 0.0
C1025 C 0.44345 0.87352 0.66793 0.0
C1026 C 0.56245 0.88477 0.73334 0.0
C1027 C 0.42902 0.87358 0.63197 0.0
C1028 C 0.60318 0.88941 0.88083 0.0
C1029 C 0.58807 0.88947 0.84493 0.0
C1030 C 0.46674 0.87836 0.77971 0.0
C1031 C 0.48007 0.88209 0.68232 0.0
C1032 C 0.49765 0.88183 0.72035 0.0
C1033 C 0.54921 0.88109 0.83079 0.0
C1034 C 0.53158 0.8813 0.79273 0.0
H1035 H 0.50352 0.89775 0.60778 0.0
H1036 H 0.5282 0.89764 0.67043 0.0
H1037 H 0.39941 0.87643 0.73467 0.0
H1038 H 0.52291 0.86586 0.90583 0.0
H1039 H 0.49751 0.86589 0.84323 0.0
loop_
_geom_bond_atom_site_label_1
_geom_bond_atom_site_label_2
_geom_bond_distance
_geom_bond_site_symmetry_2
_ccdc_geom_bond_type
Dy0 O3 2.307 . S
Dy0 O5 2.395 . S
Dy0 O6 2.379 1_554 S
Dy0 O8 2.339 1_554 S
Dy0 O10 2.298 1_455 S
Dy0 O14 2.275 . S
Dy0 C22 2.738 . S
Dy1 O4 2.298 . S
Dy1 O7 2.275 1_554 S
Dy1 O9 2.307 1_455 S
Dy1 O11 2.395 1_554 S
Dy1 O12 2.379 . S
Dy1 O15 2.339 . S
Dy1 C31 2.738 . S
C2 O14 1.254 . S
C2 O15 1.257 . S
O3 Dy0 2.307 . S
O3 C13 1.266 . S
O4 Dy1 2.298 . S
O4 C13 1.236 . S
O5 Dy0 2.395 . S
O5 C22 1.255 . S
O6 Dy0 2.379 1_556 S
O6 C22 1.249 1_556 S
O7 Dy1 2.275 1_556 S
O7 C23 1.254 . S
O8 Dy0 2.339 1_556 S
O8 C23 1.257 . S
O9 Dy1 2.307 1_655 S
O9 C24 1.266 . S
O10 Dy0 2.298 1_655 S
O10 C24 1.236 . S
O11 Dy1 2.395 1_556 S
O11 C31 1.255 1_556 S
O12 Dy1 2.379 . S
O12 C31 1.249 . S
C13 O3 1.266 . S
C13 O4 1.236 . S
O14 Dy0 2.275 . S
O14 C2 1.254 . S
O15 Dy1 2.339 . S
O15 C2 1.257 . S
C16 C19 1.344 . S
C16 C20 1.328 1_554 S
C16 C22 1.516 1_655 S
C17 C18 1.304 . S
C17 C21 1.308 1_554 S
C18 C17 1.304 . S
C18 C19 1.371 . S
C18 H32 0.930 . S
C19 C16 1.344 . S
C19 C18 1.371 . S
C19 H33 0.931 . S
C20 C16 1.328 1_556 S
C20 C21 1.437 . S
C20 H34 0.931 . S
C21 C17 1.308 1_556 S
C21 C20 1.437 . S
C21 H35 0.944 . S
C22 Dy0 2.738 . S
C22 O5 1.255 . S
C22 O6 1.249 1_554 S
C22 C16 1.516 1_455 S
C23 O7 1.254 . S
C23 O8 1.257 . S
C24 O9 1.266 . S
C24 O10 1.236 . S
C25 C28 1.344 1_554 S
C25 C29 1.328 . S
C25 C31 1.516 . S
C26 C27 1.304 1_554 S
C26 C30 1.323 . S
C27 C26 1.304 1_556 S
C27 C28 1.371 . S
C27 H36 0.930 . S
C28 C25 1.344 1_556 S
C28 C27 1.371 . S
C28 H37 0.931 . S
C29 C25 1.328 . S
C29 C30 1.433 . S
C29 H38 0.931 . S
C30 C26 1.323 . S
C30 C29 1.433 . S
C30 H39 0.933 . S
C31 Dy1 2.738 . S
C31 O11 1.255 1_554 S
C31 O12 1.249 . S
C31 C25 1.516 . S
H32 C18 0.930 . S
H33 C19 0.931 . S
H34 C20 0.931 . S
H35 C21 0.944 . S
H36 C27 0.930 . S
H37 C28 0.931 . S
H38 C29 0.931 . S
H39 C30 0.933 . S
Dy40 O43 2.307 1_655 S
Dy40 O45 2.395 . S
Dy40 O46 2.379 1_554 S
Dy40 O48 2.339 1_554 S
Dy40 O50 2.298 . S
Dy40 O54 2.275 . S
Dy40 C62 2.738 . S
Dy41 O44 2.298 1_655 S
Dy41 O47 2.275 1_554 S
Dy41 O49 2.307 . S
Dy41 O51 2.395 1_554 S
Dy41 O52 2.379 . S
Dy41 O55 2.339 . S
Dy41 C71 2.738 . S
C42 O54 1.254 . S
C42 O55 1.257 . S
O43 Dy40 2.307 1_455 S
O43 C53 1.266 . S
O44 Dy41 2.298 1_455 S
O44 C53 1.236 . S
O45 Dy40 2.395 . S
O45 C62 1.255 . S
O46 Dy40 2.379 1_556 S
O46 C62 1.249 1_556 S
O47 Dy41 2.275 1_556 S
O47 C63 1.254 . S
O48 Dy40 2.339 1_556 S
O48 C63 1.257 . S
O49 Dy41 2.307 . S
O49 C64 1.266 . S
O50 Dy40 2.298 . S
O50 C64 1.236 . S
O51 Dy41 2.395 1_556 S
O51 C71 1.255 1_556 S
O52 Dy41 2.379 . S
O52 C71 1.249 . S
C53 O43 1.266 . S
C53 O44 1.236 . S
O54 Dy40 2.275 . S
O54 C42 1.254 . S
O55 Dy41 2.339 . S
O55 C42 1.257 . S
C56 C59 1.344 . S
C56 C60 1.328 1_554 S
C56 C62 1.516 . S
C57 C58 1.304 . S
C57 C61 1.323 1_554 S
C58 C57 1.304 . S
C58 C59 1.371 . S
C58 H72 0.930 . S
C59 C56 1.344 . S
C59 C58 1.371 . S
C59 H73 0.931 . S
C60 C56 1.328 1_556 S
C60 C61 1.433 . S
C60 H74 0.931 . S
C61 C57 1.323 1_556 S
C61 C60 1.433 . S
C61 H75 0.933 . S
C62 Dy40 2.738 . S
C62 O45 1.255 . S
C62 O46 1.249 1_554 S
C62 C56 1.516 . S
C63 O47 1.254 . S
C63 O48 1.257 . S
C64 O49 1.266 . S
C64 O50 1.236 . S
C65 C68 1.344 1_554 S
C65 C69 1.328 . S
C65 C71 1.516 1_455 S
C66 C67 1.304 1_554 S
C66 C70 1.323 . S
C67 C66 1.304 1_556 S
C67 C68 1.371 . S
C67 H76 0.930 . S
C68 C65 1.344 1_556 S
C68 C67 1.371 . S
C68 H77 0.931 . S
C69 C65 1.328 . S
C69 C70 1.433 . S
C69 H78 0.931 . S
C70 C66 1.323 . S
C70 C69 1.433 . S
C70 H79 0.933 . S
C71 Dy41 2.738 . S
C71 O51 1.255 1_554 S
C71 O52 1.249 . S
C71 C65 1.516 1_655 S
H72 C58 0.930 . S
H73 C59 0.931 . S
H74 C60 0.931 . S
H75 C61 0.933 . S
H76 C67 0.930 . S
H77 C68 0.931 . S
H78 C69 0.931 . S
H79 C70 0.933 . S
Dy80 O83 2.307 1_455 S
Dy80 O85 2.395 . S
Dy80 O86 2.379 . S
Dy80 O88 2.339 . S
Dy80 O90 2.298 . S
Dy80 O94 2.275 . S
Dy80 C102 2.738 . S
Dy81 O84 2.298 1_455 S
Dy81 O87 2.275 . S
Dy81 O89 2.307 . S
Dy81 O91 2.395 . S
Dy81 O92 2.379 . S
Dy81 O95 2.339 . S
Dy81 C111 2.738 . S
C82 O94 1.254 . S
C82 O95 1.257 . S
O83 Dy80 2.307 1_655 S
O83 C93 1.266 . S
O84 Dy81 2.298 1_655 S
O84 C93 1.236 . S
O85 Dy80 2.395 . S
O85 C102 1.255 . S
O86 Dy80 2.379 . S
O86 C102 1.249 . S
O87 Dy81 2.275 . S
O87 C103 1.254 . S
O88 Dy80 2.339 . S
O88 C103 1.257 . S
O89 Dy81 2.307 . S
O89 C104 1.266 . S
O90 Dy80 2.298 . S
O90 C104 1.236 . S
O91 Dy81 2.395 . S
O91 C111 1.255 . S
O92 Dy81 2.379 . S
O92 C111 1.249 . S
C93 O83 1.266 . S
C93 O84 1.236 . S
O94 Dy80 2.275 . S
O94 C82 1.254 . S
O95 Dy81 2.339 . S
O95 C82 1.257 . S
C96 C99 1.344 . S
C96 C100 1.328 . S
C96 C102 1.516 . S
C97 C98 1.304 . S
C97 C101 1.323 . S
C98 C97 1.304 . S
C98 C99 1.371 . S
C98 H112 0.930 . S
C99 C96 1.344 . S
C99 C98 1.371 . S
C99 H113 0.931 . S
C100 C96 1.328 . S
C100 C101 1.433 . S
C100 H114 0.931 . S
C101 C97 1.323 . S
C101 C100 1.433 . S
C101 H115 0.933 . S
C102 Dy80 2.738 . S
C102 O85 1.255 . S
C102 O86 1.249 . S
C102 C96 1.516 . S
C103 O87 1.254 . S
C103 O88 1.257 . S
C104 O89 1.266 . S
C104 O90 1.236 . S
C105 C108 1.344 . S
C105 C109 1.328 . S
C105 C111 1.516 1_655 S
C106 C107 1.304 . S
C106 C110 1.323 . S
C107 C106 1.304 . S
C107 C108 1.371 . S
C107 H116 0.930 . S
C108 C105 1.344 . S
C108 C107 1.371 . S
C108 H117 0.931 . S
C109 C105 1.328 . S
C109 C110 1.433 . S
C109 H118 0.931 . S
C110 C106 1.323 . S
C110 C109 1.433 . S
C110 H119 0.933 . S
C111 Dy81 2.738 . S
C111 O91 1.255 . S
C111 O92 1.249 . S
C111 C105 1.516 1_455 S
H112 C98 0.930 . S
H113 C99 0.931 . S
H114 C100 0.931 . S
H115 C101 0.933 . S
H116 C107 0.930 . S
H117 C108 0.931 . S
H118 C109 0.931 . S
H119 C110 0.933 . S
Dy120 O123 2.307 1_655 S
Dy120 O125 2.395 . S
Dy120 O126 2.379 . S
Dy120 O128 2.339 . S
Dy120 O130 2.298 . S
Dy120 O134 2.275 . S
Dy120 C142 2.738 . S
Dy121 O124 2.298 1_655 S
Dy121 O127 2.275 . S
Dy121 O129 2.307 . S
Dy121 O131 2.395 . S
Dy121 O132 2.379 . S
Dy121 O135 2.339 . S
Dy121 C151 2.738 . S
C122 O134 1.254 . S
C122 O135 1.257 . S
O123 Dy120 2.307 1_455 S
O123 C133 1.266 . S
O124 Dy121 2.298 1_455 S
O124 C133 1.236 . S
O125 Dy120 2.395 . S
O125 C142 1.255 . S
O126 Dy120 2.379 . S
O126 C142 1.249 . S
O127 Dy121 2.275 . S
O127 C143 1.254 . S
O128 Dy120 2.339 . S
O128 C143 1.257 . S
O129 Dy121 2.307 . S
O129 C144 1.266 . S
O130 Dy120 2.298 . S
O130 C144 1.236 . S
O131 Dy121 2.395 . S
O131 C151 1.255 . S
O132 Dy121 2.379 . S
O132 C151 1.249 . S
C133 O123 1.266 . S
C133 O124 1.236 . S
O134 Dy120 2.275 . S
O134 C122 1.254 . S
O135 Dy121 2.339 . S
O135 C122 1.257 . S
C136 C139 1.344 . S
C136 C140 1.328 . S
C136 C142 1.516 . S
C137 C138 1.304 . S
C137 C141 1.323 . S
C138 C137 1.304 . S
C138 C139 1.371 . S
C138 H152 0.930 . S
C139 C136 1.344 . S
C139 C138 1.371 . S
C139 H153 0.931 . S
C140 C136 1.328 . S
C140 C141 1.433 . S
C140 H154 0.931 . S
C141 C137 1.323 . S
C141 C140 1.433 . S
C141 H155 0.933 . S
C142 Dy120 2.738 . S
C142 O125 1.255 . S
C142 O126 1.249 . S
C142 C136 1.516 . S
C143 O127 1.254 . S
C143 O128 1.257 . S
C144 O129 1.266 . S
C144 O130 1.236 . S
C145 C148 1.344 . S
C145 C149 1.328 . S
C145 C151 1.516 1_455 S
C146 C147 1.304 . S
C146 C150 1.323 . S
C147 C146 1.304 . S
C147 C148 1.371 . S
C147 H156 0.930 . S
C148 C145 1.344 . S
C148 C147 1.371 . S
C148 H157 0.931 . S
C149 C145 1.328 . S
C149 C150 1.433 . S
C149 H158 0.931 . S
C150 C146 1.323 . S
C150 C149 1.433 . S
C150 H159 0.933 . S
C151 Dy121 2.738 . S
C151 O131 1.255 . S
C151 O132 1.249 . S
C151 C145 1.516 1_655 S
H152 C138 0.930 . S
H153 C139 0.931 . S
H154 C140 0.931 . S
H155 C141 0.933 . S
H156 C147 0.930 . S
H157 C148 0.931 . S
H158 C149 0.931 . S
H159 C150 0.933 . S
Dy160 O163 2.307 . S
Dy160 O165 2.395 . S
Dy160 O166 2.379 1_554 S
Dy160 O168 2.339 1_554 S
Dy160 O170 2.298 . S
Dy160 O174 2.275 . S
Dy160 C182 2.738 . S
Dy161 O164 2.298 . S
Dy161 O167 2.275 1_554 S
Dy161 O169 2.307 . S
Dy161 O171 2.395 1_554 S
Dy161 O172 2.379 . S
Dy161 O175 2.339 . S
Dy161 C191 2.738 . S
C162 O174 1.254 . S
C162 O175 1.257 . S
O163 Dy160 2.307 . S
O163 C173 1.266 . S
O164 Dy161 2.298 . S
O164 C173 1.236 . S
O165 Dy160 2.395 . S
O165 C182 1.255 . S
O166 Dy160 2.379 1_556 S
O166 C182 1.249 1_556 S
O167 Dy161 2.275 1_556 S
O167 C183 1.254 . S
O168 Dy160 2.339 1_556 S
O168 C183 1.257 . S
O169 Dy161 2.307 . S
O169 C184 1.266 . S
O170 Dy160 2.298 . S
O170 C184 1.236 . S
O171 Dy161 2.395 1_556 S
O171 C191 1.255 1_556 S
O172 Dy161 2.379 . S
O172 C191 1.249 . S
C173 O163 1.266 . S
C173 O164 1.236 . S
O174 Dy160 2.275 . S
O174 C162 1.254 . S
O175 Dy161 2.339 . S
O175 C162 1.257 . S
C176 C179 1.344 . S
C176 C180 1.328 1_554 S
C176 C182 1.516 . S
C177 C178 1.304 . S
C177 C181 1.311 1_554 S
C178 C177 1.304 . S
C178 C179 1.371 . S
C178 H192 0.930 . S
C179 C176 1.344 . S
C179 C178 1.371 . S
C179 H193 0.931 . S
C180 C176 1.328 1_556 S
C180 C181 1.436 . S
C180 H194 0.931 . S
C181 C177 1.311 1_556 S
C181 C180 1.436 . S
C181 H195 0.942 . S
C182 Dy160 2.738 . S
C182 O165 1.255 . S
C182 O166 1.249 1_554 S
C182 C176 1.516 . S
C183 O167 1.254 . S
C183 O168 1.257 . S
C184 O169 1.266 . S
C184 O170 1.236 . S
C185 C188 1.344 1_554 S
C185 C189 1.328 . S
C185 C191 1.516 . S
C186 C187 1.304 1_554 S
C186 C190 1.323 . S
C187 C186 1.304 1_556 S
C187 C188 1.371 . S
C187 H196 0.930 . S
C188 C185 1.344 1_556 S
C188 C187 1.371 . S
C188 H197 0.931 . S
C189 C185 1.328 . S
C189 C190 1.433 . S
C189 H198 0.931 . S
C190 C186 1.323 . S
C190 C189 1.433 . S
C190 H199 0.933 . S
C191 Dy161 2.738 . S
C191 O171 1.255 1_554 S
C191 O172 1.249 . S
C191 C185 1.516 . S
H192 C178 0.930 . S
H193 C179 0.931 . S
H194 C180 0.931 . S
H195 C181 0.942 . S
H196 C187 0.930 . S
H197 C188 0.931 . S
H198 C189 0.931 . S
H199 C190 0.933 . S
Dy200 O203 2.307 . S
Dy200 O205 2.395 . S
Dy200 O206 2.379 1_554 S
Dy200 O208 2.339 1_554 S
Dy200 O210 2.298 . S
Dy200 O214 2.275 . S
Dy200 C222 2.738 . S
Dy201 O204 2.298 . S
Dy201 O207 2.275 1_554 S
Dy201 O209 2.307 . S
Dy201 O211 2.395 1_554 S
Dy201 O212 2.379 . S
Dy201 O215 2.339 . S
Dy201 C231 2.738 . S
C202 O214 1.254 . S
C202 O215 1.257 . S
O203 Dy200 2.307 . S
O203 C213 1.266 . S
O204 Dy201 2.298 . S
O204 C213 1.236 . S
O205 Dy200 2.395 . S
O205 C222 1.255 . S
O206 Dy200 2.379 1_556 S
O206 C222 1.249 1_556 S
O207 Dy201 2.275 1_556 S
O207 C223 1.254 . S
O208 Dy200 2.339 1_556 S
O208 C223 1.257 . S
O209 Dy201 2.307 . S
O209 C224 1.266 . S
O210 Dy200 2.298 . S
O210 C224 1.236 . S
O211 Dy201 2.395 1_556 S
O211 C231 1.255 1_556 S
O212 Dy201 2.379 . S
O212 C231 1.249 . S
C213 O203 1.266 . S
C213 O204 1.236 . S
O214 Dy200 2.275 . S
O214 C202 1.254 . S
O215 Dy201 2.339 . S
O215 C202 1.257 . S
C216 C219 1.344 . S
C216 C220 1.328 1_554 S
C216 C222 1.516 . S
C217 C218 1.304 . S
C217 C221 1.323 1_554 S
C218 C217 1.304 . S
C218 C219 1.371 . S
C218 H232 0.930 . S
C219 C216 1.344 . S
C219 C218 1.371 . S
C219 H233 0.931 . S
C220 C216 1.328 1_556 S
C220 C221 1.433 . S
C220 H234 0.931 . S
C221 C217 1.323 1_556 S
C221 C220 1.433 . S
C221 H235 0.933 . S
C222 Dy200 2.738 . S
C222 O205 1.255 . S
C222 O206 1.249 1_554 S
C222 C216 1.516 . S
C223 O207 1.254 . S
C223 O208 1.257 . S
C224 O209 1.266 . S
C224 O210 1.236 . S
C225 C228 1.344 1_554 S
C225 C229 1.328 . S
C225 C231 1.516 . S
C226 C227 1.304 1_554 S
C226 C230 1.323 . S
C227 C226 1.304 1_556 S
C227 C228 1.371 . S
C227 H236 0.930 . S
C228 C225 1.344 1_556 S
C228 C227 1.371 . S
C228 H237 0.931 . S
C229 C225 1.328 . S
C229 C230 1.433 . S
C229 H238 0.931 . S
C230 C226 1.323 . S
C230 C229 1.433 . S
C230 H239 0.933 . S
C231 Dy201 2.738 . S
C231 O211 1.255 1_554 S
C231 O212 1.249 . S
C231 C225 1.516 . S
H232 C218 0.930 . S
H233 C219 0.931 . S
H234 C220 0.931 . S
H235 C221 0.933 . S
H236 C227 0.930 . S
H237 C228 0.931 . S
H238 C229 0.931 . S
H239 C230 0.933 . S
Dy240 O243 2.307 . S
Dy240 O245 2.395 . S
Dy240 O246 2.379 . S
Dy240 O248 2.339 . S
Dy240 O250 2.298 . S
Dy240 O254 2.275 . S
Dy240 C262 2.738 . S
Dy241 O244 2.298 . S
Dy241 O247 2.275 . S
Dy241 O249 2.307 . S
Dy241 O251 2.395 . S
Dy241 O252 2.379 . S
Dy241 O255 2.339 . S
Dy241 C271 2.738 . S
C242 O254 1.254 . S
C242 O255 1.257 . S
O243 Dy240 2.307 . S
O243 C253 1.266 . S
O244 Dy241 2.298 . S
O244 C253 1.236 . S
O245 Dy240 2.395 . S
O245 C262 1.255 . S
O246 Dy240 2.379 . S
O246 C262 1.249 . S
O247 Dy241 2.275 . S
O247 C263 1.254 . S
O248 Dy240 2.339 . S
O248 C263 1.257 . S
O249 Dy241 2.307 . S
O249 C264 1.266 . S
O250 Dy240 2.298 . S
O250 C264 1.236 . S
O251 Dy241 2.395 . S
O251 C271 1.255 . S
O252 Dy241 2.379 . S
O252 C271 1.249 . S
C253 O243 1.266 . S
C253 O244 1.236 . S
O254 Dy240 2.275 . S
O254 C242 1.254 . S
O255 Dy241 2.339 . S
O255 C242 1.257 . S
C256 C259 1.344 . S
C256 C260 1.328 . S
C256 C262 1.516 . S
C257 C258 1.304 . S
C257 C261 1.323 . S
C258 C257 1.304 . S
C258 C259 1.371 . S
C258 H272 0.930 . S
C259 C256 1.344 . S
C259 C258 1.371 . S
C259 H273 0.931 . S
C260 C256 1.328 . S
C260 C261 1.433 . S
C260 H274 0.931 . S
C261 C257 1.323 . S
C261 C260 1.433 . S
C261 H275 0.933 . S
C262 Dy240 2.738 . S
C262 O245 1.255 . S
C262 O246 1.249 . S
C262 C256 1.516 . S
C263 O247 1.254 . S
C263 O248 1.257 . S
C264 O249 1.266 . S
C264 O250 1.236 . S
C265 C268 1.344 . S
C265 C269 1.328 . S
C265 C271 1.516 . S
C266 C267 1.304 . S
C266 C270 1.323 . S
C267 C266 1.304 . S
C267 C268 1.371 . S
C267 H276 0.930 . S
C268 C265 1.344 . S
C268 C267 1.371 . S
C268 H277 0.931 . S
C269 C265 1.328 . S
C269 C270 1.433 . S
C269 H278 0.931 . S
C270 C266 1.323 . S
C270 C269 1.433 . S
C270 H279 0.933 . S
C271 Dy241 2.738 . S
C271 O251 1.255 . S
C271 O252 1.249 . S
C271 C265 1.516 . S
H272 C258 0.930 . S
H273 C259 0.931 . S
H274 C260 0.931 . S
H275 C261 0.933 . S
H276 C267 0.930 . S
H277 C268 0.931 . S
H278 C269 0.931 . S
H279 C270 0.933 . S
Dy280 O283 2.307 . S
Dy280 O285 2.395 . S
Dy280 O286 2.379 . S
Dy280 O288 2.339 . S
Dy280 O290 2.298 . S
Dy280 O294 2.275 . S
Dy280 C302 2.738 . S
Dy281 O284 2.298 . S
Dy281 O287 2.275 . S
Dy281 O289 2.307 . S
Dy281 O291 2.395 . S
Dy281 O292 2.379 . S
Dy281 O295 2.339 . S
Dy281 C311 2.738 . S
C282 O294 1.254 . S
C282 O295 1.257 . S
O283 Dy280 2.307 . S
O283 C293 1.266 . S
O284 Dy281 2.298 . S
O284 C293 1.236 . S
O285 Dy280 2.395 . S
O285 C302 1.255 . S
O286 Dy280 2.379 . S
O286 C302 1.249 . S
O287 Dy281 2.275 . S
O287 C303 1.254 . S
O288 Dy280 2.339 . S
O288 C303 1.257 . S
O289 Dy281 2.307 . S
O289 C304 1.266 . S
O290 Dy280 2.298 . S
O290 C304 1.236 . S
O291 Dy281 2.395 . S
O291 C311 1.255 . S
O292 Dy281 2.379 . S
O292 C311 1.249 . S
C293 O283 1.266 . S
C293 O284 1.236 . S
O294 Dy280 2.275 . S
O294 C282 1.254 . S
O295 Dy281 2.339 . S
O295 C282 1.257 . S
C296 C299 1.344 . S
C296 C300 1.328 . S
C296 C302 1.516 . S
C297 C298 1.304 . S
C297 C301 1.323 . S
C298 C297 1.304 . S
C298 C299 1.371 . S
C298 H312 0.930 . S
C299 C296 1.344 . S
C299 C298 1.371 . S
C299 H313 0.931 . S
C300 C296 1.328 . S
C300 C301 1.433 . S
C300 H314 0.931 . S
C301 C297 1.323 . S
C301 C300 1.433 . S
C301 H315 0.933 . S
C302 Dy280 2.738 . S
C302 O285 1.255 . S
C302 O286 1.249 . S
C302 C296 1.516 . S
C303 O287 1.254 . S
C303 O288 1.257 . S
C304 O289 1.266 . S
C304 O290 1.236 . S
C305 C308 1.344 . S
C305 C309 1.328 . S
C305 C311 1.516 . S
C306 C307 1.304 . S
C306 C310 1.323 . S
C307 C306 1.304 . S
C307 C308 1.371 . S
C307 H316 0.930 . S
C308 C305 1.344 . S
C308 C307 1.371 . S
C308 H317 0.931 . S
C309 C305 1.328 . S
C309 C310 1.433 . S
C309 H318 0.931 . S
C310 C306 1.323 . S
C310 C309 1.433 . S
C310 H319 0.933 . S
C311 Dy281 2.738 . S
C311 O291 1.255 . S
C311 O292 1.249 . S
C311 C305 1.516 . S
H312 C298 0.930 . S
H313 C299 0.931 . S
H314 C300 0.931 . S
H315 C301 0.933 . S
H316 C307 0.930 . S
H317 C308 0.931 . S
H318 C309 0.931 . S
H319 C310 0.933 . S
C320 C321 1.349 . S
C320 C322 1.327 . S
C320 H345 0.943 1_554 S
C321 C320 1.349 . S
C321 C337 1.349 . S
C322 C320 1.327 . S
C322 C341 1.429 . S
C322 H346 0.950 1_554 S
C323 C340 1.574 . S
C323 C342 1.368 . S
C323 H347 0.949 . S
H324 C328 0.946 1_556 S
C325 C326 1.349 . S
C325 C327 1.327 . S
C325 H348 0.950 . S
C326 C325 1.349 . S
C326 C338 1.349 . S
C327 C325 1.327 . S
C327 C343 1.429 . S
C327 H349 0.950 . S
C328 H324 0.946 1_554 S
C328 C336 1.574 . S
C328 C344 1.368 . S
H329 C337 0.950 . S
H330 C335 0.950 . S
H331 C336 0.943 1_556 S
H332 C338 0.950 . S
H333 C339 0.950 . S
H334 C340 0.949 . S
C335 H330 0.950 . S
C335 C337 1.327 . S
C335 C341 1.429 . S
C336 C328 1.574 . S
C336 H331 0.943 1_554 S
C336 C342 1.368 . S
C337 C321 1.349 . S
C337 H329 0.950 . S
C337 C335 1.327 . S
C338 C326 1.349 . S
C338 H332 0.950 . S
C338 C339 1.327 . S
C339 H333 0.950 . S
C339 C338 1.327 . S
C339 C343 1.429 . S
C340 C323 1.574 . S
C340 H334 0.949 . S
C340 C344 1.368 . S
C341 C322 1.429 . S
C341 C335 1.429 . S
C341 C342 1.523 . S
C342 C323 1.368 . S
C342 C336 1.368 . S
C342 C341 1.523 . S
C343 C327 1.429 . S
C343 C339 1.429 . S
C343 C344 1.523 . S
C344 C328 1.368 . S
C344 C340 1.368 . S
C344 C343 1.523 . S
H345 C320 0.943 1_556 S
H346 C322 0.950 1_556 S
H347 C323 0.949 . S
H348 C325 0.950 . S
H349 C327 0.950 . S
C350 C351 1.349 1_556 S
C350 C352 1.327 . S
C350 H375 0.950 . S
C351 C350 1.349 1_554 S
C351 C367 1.349 . S
C352 C350 1.327 . S
C352 C371 1.429 1_556 S
C352 H376 0.950 . S
C353 C370 1.574 . S
C353 C372 1.368 . S
C353 H377 0.949 . S
H354 C358 0.949 . S
C355 C356 1.349 . S
C355 C357 1.327 . S
C355 H378 0.950 . S
C356 C355 1.349 . S
C356 C368 1.349 1_554 S
C357 C355 1.327 . S
C357 C373 1.429 . S
C357 H379 0.950 . S
C358 H354 0.949 . S
C358 C366 1.574 . S
C358 C374 1.368 1_556 S
H359 C367 0.950 . S
H360 C365 0.950 . S
H361 C366 0.949 . S
H362 C368 0.950 . S
H363 C369 0.950 . S
H364 C370 0.949 . S
C365 H360 0.950 . S
C365 C367 1.327 . S
C365 C371 1.429 . S
C366 C358 1.574 . S
C366 H361 0.949 . S
C366 C372 1.368 1_556 S
C367 C351 1.349 . S
C367 H359 0.950 . S
C367 C365 1.327 . S
C368 C356 1.349 1_556 S
C368 H362 0.950 . S
C368 C369 1.327 . S
C369 H363 0.950 . S
C369 C368 1.327 . S
C369 C373 1.429 1_556 S
C370 C353 1.574 . S
C370 H364 0.949 . S
C370 C374 1.368 . S
C371 C352 1.429 1_554 S
C371 C365 1.429 . S
C371 C372 1.523 . S
C372 C353 1.368 . S
C372 C366 1.368 1_554 S
C372 C371 1.523 . S
C373 C357 1.429 . S
C373 C369 1.429 1_554 S
C373 C374 1.523 . S
C374 C358 1.368 1_554 S
C374 C370 1.368 . S
C374 C373 1.523 . S
H375 C350 0.950 . S
H376 C352 0.950 . S
H377 C353 0.949 . S
H378 C355 0.950 . S
H379 C357 0.950 . S
C380 C381 1.349 . S
C380 C382 1.327 . S
C380 H405 0.950 . S
C381 C380 1.349 . S
C381 C397 1.349 . S
C382 C380 1.327 . S
C382 C401 1.429 . S
C382 H406 0.950 . S
C383 C400 1.574 . S
C383 C402 1.368 . S
C383 H407 0.949 . S
H384 C388 0.949 . S
C385 C386 1.349 . S
C385 C387 1.327 . S
C385 H408 0.950 . S
C386 C385 1.349 . S
C386 C398 1.349 . S
C387 C385 1.327 . S
C387 C403 1.429 . S
C387 H409 0.950 . S
C388 H384 0.949 . S
C388 C396 1.574 . S
C388 C404 1.368 . S
H389 C397 0.950 . S
H390 C395 0.950 . S
H391 C396 0.949 . S
H392 C398 0.950 . S
H393 C399 0.950 . S
H394 C400 0.949 . S
C395 H390 0.950 . S
C395 C397 1.327 . S
C395 C401 1.429 . S
C396 C388 1.574 . S
C396 H391 0.949 . S
C396 C402 1.368 . S
C397 C381 1.349 . S
C397 H389 0.950 . S
C397 C395 1.327 . S
C398 C386 1.349 . S
C398 H392 0.950 . S
C398 C399 1.327 . S
C399 H393 0.950 . S
C399 C398 1.327 . S
C399 C403 1.429 . S
C400 C383 1.574 . S
C400 H394 0.949 . S
C400 C404 1.368 . S
C401 C382 1.429 . S
C401 C395 1.429 . S
C401 C402 1.523 . S
C402 C383 1.368 . S
C402 C396 1.368 . S
C402 C401 1.523 . S
C403 C387 1.429 . S
C403 C399 1.429 . S
C403 C404 1.523 . S
C404 C388 1.368 . S
C404 C400 1.368 . S
C404 C403 1.523 . S
H405 C380 0.950 . S
H406 C382 0.950 . S
H407 C383 0.949 . S
H408 C385 0.950 . S
H409 C387 0.950 . S
C410 C411 1.349 . S
C410 C412 1.327 . S
C410 H435 0.950 . S
C411 C410 1.349 . S
C411 C427 1.349 . S
C412 C410 1.327 . S
C412 C431 1.429 . S
C412 H436 0.950 . S
C413 C430 1.574 . S
C413 C432 1.368 . S
C413 H437 0.949 . S
H414 C418 0.949 . S
C415 C416 1.349 . S
C415 C417 1.327 . S
C415 H438 0.950 . S
C416 C415 1.349 . S
C416 C428 1.349 . S
C417 C415 1.327 . S
C417 C433 1.429 . S
C417 H439 0.950 . S
C418 H414 0.949 . S
C418 C426 1.574 . S
C418 C434 1.368 . S
H419 C427 0.950 . S
H420 C425 0.950 . S
H421 C426 0.949 . S
H422 C428 0.950 . S
H423 C429 0.950 . S
H424 C430 0.949 . S
C425 H420 0.950 . S
C425 C427 1.327 . S
C425 C431 1.429 . S
C426 C418 1.574 . S
C426 H421 0.949 . S
C426 C432 1.368 . S
C427 C411 1.349 . S
C427 H419 0.950 . S
C427 C425 1.327 . S
C428 C416 1.349 . S
C428 H422 0.950 . S
C428 C429 1.327 . S
C429 H423 0.950 . S
C429 C428 1.327 . S
C429 C433 1.429 . S
C430 C413 1.574 . S
C430 H424 0.949 . S
C430 C434 1.368 . S
C431 C412 1.429 . S
C431 C425 1.429 . S
C431 C432 1.523 . S
C432 C413 1.368 . S
C432 C426 1.368 . S
C432 C431 1.523 . S
C433 C417 1.429 . S
C433 C429 1.429 . S
C433 C434 1.523 . S
C434 C418 1.368 . S
C434 C430 1.368 . S
C434 C433 1.523 . S
H435 C410 0.950 . S
H436 C412 0.950 . S
H437 C413 0.949 . S
H438 C415 0.950 . S
H439 C417 0.950 . S
C440 C441 1.349 . S
C440 C442 1.327 . S
C440 H465 0.950 . S
C441 C440 1.349 . S
C441 C457 1.349 . S
C442 C440 1.327 . S
C442 C461 1.429 . S
C442 H466 0.950 . S
C443 C460 1.574 . S
C443 C462 1.368 1_455 S
C443 H467 0.949 1_454 S
H444 C448 0.949 . S
C445 C446 1.349 . S
C445 C447 1.327 . S
C445 H468 0.950 1_554 S
C446 C445 1.349 . S
C446 C458 1.349 . S
C447 C445 1.327 . S
C447 C463 1.429 . S
C447 H469 0.950 1_554 S
C448 H444 0.949 . S
C448 C456 1.574 . S
C448 C464 1.368 . S
H449 C457 0.950 1_556 S
H450 C455 0.950 1_556 S
H451 C456 0.949 . S
H452 C458 0.950 . S
H453 C459 0.950 . S
H454 C460 0.949 1_556 S
C455 H450 0.950 1_554 S
C455 C457 1.327 . S
C455 C461 1.429 . S
C456 C448 1.574 . S
C456 H451 0.949 . S
C456 C462 1.368 1_455 S
C457 C441 1.349 . S
C457 H449 0.950 1_554 S
C457 C455 1.327 . S
C458 C446 1.349 . S
C458 H452 0.950 . S
C458 C459 1.327 . S
C459 H453 0.950 . S
C459 C458 1.327 . S
C459 C463 1.429 . S
C460 C443 1.574 . S
C460 H454 0.949 1_554 S
C460 C464 1.368 . S
C461 C442 1.429 . S
C461 C455 1.429 . S
C461 C462 1.523 . S
C462 C443 1.368 1_655 S
C462 C456 1.368 1_655 S
C462 C461 1.523 . S
C463 C447 1.429 . S
C463 C459 1.429 . S
C463 C464 1.523 . S
C464 C448 1.368 . S
C464 C460 1.368 . S
C464 C463 1.523 . S
H465 C440 0.950 . S
H466 C442 0.950 . S
H467 C443 0.949 1_656 S
H468 C445 0.950 1_556 S
H469 C447 0.950 1_556 S
C470 C471 1.349 . S
C470 C472 1.327 . S
C470 H495 0.950 . S
C471 C470 1.349 . S
C471 C487 1.349 1_554 S
C472 C470 1.327 . S
C472 C491 1.429 . S
C472 H496 0.950 . S
C473 C490 1.574 . S
C473 C492 1.368 1_656 S
C473 H497 0.949 1_655 S
H474 C478 0.949 . S
C475 C476 1.349 1_556 S
C475 C477 1.327 . S
C475 H498 0.950 . S
C476 C475 1.349 1_554 S
C476 C488 1.349 . S
C477 C475 1.327 . S
C477 C493 1.429 1_556 S
C477 H499 0.950 . S
C478 H474 0.949 . S
C478 C486 1.574 . S
C478 C494 1.368 . S
H479 C487 0.950 . S
H480 C485 0.950 . S
H481 C486 0.949 1_455 S
H482 C488 0.950 . S
H483 C489 0.950 . S
H484 C490 0.949 . S
C485 H480 0.950 . S
C485 C487 1.327 . S
C485 C491 1.429 1_556 S
C486 C478 1.574 . S
C486 H481 0.949 1_655 S
C486 C492 1.368 1_655 S
C487 C471 1.349 1_556 S
C487 H479 0.950 . S
C487 C485 1.327 . S
C488 C476 1.349 . S
C488 H482 0.950 . S
C488 C489 1.327 . S
C489 H483 0.950 . S
C489 C488 1.327 . S
C489 C493 1.429 . S
C490 C473 1.574 . S
C490 H484 0.949 . S
C490 C494 1.368 1_556 S
C491 C472 1.429 . S
C491 C485 1.429 1_554 S
C491 C492 1.523 . S
C492 C473 1.368 1_454 S
C492 C486 1.368 1_455 S
C492 C491 1.523 . S
C493 C477 1.429 1_554 S
C493 C489 1.429 . S
C493 C494 1.523 . S
C494 C478 1.368 . S
C494 C490 1.368 1_554 S
C494 C493 1.523 . S
H495 C470 0.950 . S
H496 C472 0.950 . S
H497 C473 0.949 1_455 S
H498 C475 0.950 . S
H499 C477 0.950 . S
C500 C501 1.349 . S
C500 C502 1.327 . S
C500 H525 0.950 . S
C501 C500 1.349 . S
C501 C517 1.349 . S
C502 C500 1.327 . S
C502 C521 1.429 . S
C502 H526 0.950 . S
C503 C520 1.574 . S
C503 C522 1.368 . S
C503 H527 0.949 . S
H504 C508 0.949 1_655 S
C505 C506 1.349 . S
C505 C507 1.327 . S
C505 H528 0.950 . S
C506 C505 1.349 . S
C506 C518 1.349 . S
C507 C505 1.327 . S
C507 C523 1.429 . S
C507 H529 0.950 . S
C508 H504 0.949 1_455 S
C508 C516 1.574 . S
C508 C524 1.368 1_455 S
H509 C517 0.950 . S
H510 C515 0.950 . S
H511 C516 0.949 . S
H512 C518 0.950 . S
H513 C519 0.950 . S
H514 C520 0.949 . S
C515 H510 0.950 . S
C515 C517 1.327 . S
C515 C521 1.429 . S
C516 C508 1.574 . S
C516 H511 0.949 . S
C516 C522 1.368 . S
C517 C501 1.349 . S
C517 H509 0.950 . S
C517 C515 1.327 . S
C518 C506 1.349 . S
C518 H512 0.950 . S
C518 C519 1.327 . S
C519 H513 0.950 . S
C519 C518 1.327 . S
C519 C523 1.429 . S
C520 C503 1.574 . S
C520 H514 0.949 . S
C520 C524 1.368 1_455 S
C521 C502 1.429 . S
C521 C515 1.429 . S
C521 C522 1.523 . S
C522 C503 1.368 . S
C522 C516 1.368 . S
C522 C521 1.523 . S
C523 C507 1.429 . S
C523 C519 1.429 . S
C523 C524 1.523 . S
C524 C508 1.368 1_655 S
C524 C520 1.368 1_655 S
C524 C523 1.523 . S
H525 C500 0.950 . S
H526 C502 0.950 . S
H527 C503 0.949 . S
H528 C505 0.950 . S
H529 C507 0.950 . S
C530 C531 1.349 . S
C530 C532 1.327 . S
C530 H555 0.950 . S
C531 C530 1.349 . S
C531 C547 1.349 . S
C532 C530 1.327 . S
C532 C551 1.429 . S
C532 H556 0.950 . S
C533 C550 1.574 . S
C533 C552 1.368 . S
C533 H557 0.949 . S
H534 C538 0.949 . S
C535 C536 1.349 . S
C535 C537 1.327 . S
C535 H558 0.950 . S
C536 C535 1.349 . S
C536 C548 1.349 . S
C537 C535 1.327 . S
C537 C553 1.429 . S
C537 H559 0.950 . S
C538 H534 0.949 . S
C538 C546 1.574 . S
C538 C554 1.368 1_655 S
H539 C547 0.950 . S
H540 C545 0.950 . S
H541 C546 0.949 . S
H542 C548 0.950 . S
H543 C549 0.950 . S
H544 C550 0.949 1_455 S
C545 H540 0.950 . S
C545 C547 1.327 . S
C545 C551 1.429 . S
C546 C538 1.574 . S
C546 H541 0.949 . S
C546 C552 1.368 . S
C547 C531 1.349 . S
C547 H539 0.950 . S
C547 C545 1.327 . S
C548 C536 1.349 . S
C548 H542 0.950 . S
C548 C549 1.327 . S
C549 H543 0.950 . S
C549 C548 1.327 . S
C549 C553 1.429 . S
C550 C533 1.574 . S
C550 H544 0.949 1_655 S
C550 C554 1.368 1_655 S
C551 C532 1.429 . S
C551 C545 1.429 . S
C551 C552 1.523 . S
C552 C533 1.368 . S
C552 C546 1.368 . S
C552 C551 1.523 . S
C553 C537 1.429 . S
C553 C549 1.429 . S
C553 C554 1.523 . S
C554 C538 1.368 1_455 S
C554 C550 1.368 1_455 S
C554 C553 1.523 . S
H555 C530 0.950 . S
H556 C532 0.950 . S
H557 C533 0.949 . S
H558 C535 0.950 . S
H559 C537 0.950 . S
C560 C561 1.349 . S
C560 C562 1.327 . S
C560 H585 0.950 . S
C561 C560 1.349 . S
C561 C577 1.349 1_554 S
C562 C560 1.327 . S
C562 C581 1.429 . S
C562 H586 0.950 1_455 S
C563 C580 1.574 . S
C563 C582 1.368 1_556 S
C563 H587 0.949 . S
H564 C568 0.949 . S
C565 C566 1.349 . S
C565 C567 1.327 1_554 S
C565 H588 0.950 1_554 S
C566 C565 1.349 . S
C566 C578 1.349 . S
C567 C565 1.327 1_556 S
C567 C583 1.418 1_556 S
C567 H589 0.961 1_655 S
C568 H564 0.949 . S
C568 C576 1.574 . S
C568 C584 1.368 . S
H569 C577 0.950 . S
H570 C575 0.950 . S
H571 C576 0.949 . S
H572 C578 0.950 . S
H573 C579 0.950 . S
H574 C580 0.949 . S
C575 H570 0.950 . S
C575 C577 1.327 . S
C575 C581 1.429 1_556 S
C576 C568 1.574 . S
C576 H571 0.949 . S
C576 C582 1.368 1_655 S
C577 C561 1.349 1_556 S
C577 H569 0.950 . S
C577 C575 1.327 . S
C578 C566 1.349 . S
C578 H572 0.950 . S
C578 C579 1.327 . S
C579 H573 0.950 . S
C579 C578 1.327 . S
C579 C583 1.429 . S
C580 C563 1.574 . S
C580 H574 0.949 . S
C580 C584 1.368 1_456 S
C581 C562 1.429 . S
C581 C575 1.429 1_554 S
C581 C582 1.523 . S
C582 C563 1.368 1_554 S
C582 C576 1.368 1_455 S
C582 C581 1.523 . S
C583 C567 1.418 1_554 S
C583 C579 1.429 . S
C583 C584 1.523 . S
C584 C568 1.368 . S
C584 C580 1.368 1_654 S
C584 C583 1.523 . S
H585 C560 0.950 . S
H586 C562 0.950 1_655 S
H587 C563 0.949 . S
H588 C565 0.950 1_556 S
H589 C567 0.961 1_455 S
C590 C591 1.349 . S
C590 C592 1.327 . S
C590 H615 0.950 . S
C591 C590 1.349 . S
C591 C607 1.349 . S
C592 C590 1.327 . S
C592 C611 1.429 . S
C592 H616 0.950 . S
C593 C610 1.574 . S
C593 C612 1.368 1_655 S
C593 H617 0.949 . S
H594 C598 0.949 . S
C595 C596 1.349 . S
C595 C597 1.327 . S
C595 H618 0.950 . S
C596 C595 1.349 . S
C596 C608 1.349 . S
C597 C595 1.327 . S
C597 C613 1.429 . S
C597 H619 0.950 . S
C598 H594 0.949 . S
C598 C606 1.574 . S
C598 C614 1.368 1_455 S
H599 C607 0.950 . S
H600 C605 0.950 1_655 S
H601 C606 0.949 . S
H602 C608 0.950 . S
H603 C609 0.950 1_455 S
H604 C610 0.949 . S
C605 H600 0.950 1_455 S
C605 C607 1.327 . S
C605 C611 1.429 . S
C606 C598 1.574 . S
C606 H601 0.949 . S
C606 C612 1.368 . S
C607 C591 1.349 . S
C607 H599 0.950 . S
C607 C605 1.327 . S
C608 C596 1.349 . S
C608 H602 0.950 . S
C608 C609 1.327 . S
C609 H603 0.950 1_655 S
C609 C608 1.327 . S
C609 C613 1.429 . S
C610 C593 1.574 . S
C610 H604 0.949 . S
C610 C614 1.368 . S
C611 C592 1.429 . S
C611 C605 1.429 . S
C611 C612 1.523 . S
C612 C593 1.368 1_455 S
C612 C606 1.368 . S
C612 C611 1.523 . S
C613 C597 1.429 . S
C613 C609 1.429 . S
C613 C614 1.523 . S
C614 C598 1.368 1_655 S
C614 C610 1.368 . S
C614 C613 1.523 . S
H615 C590 0.950 . S
H616 C592 0.950 . S
H617 C593 0.949 . S
H618 C595 0.950 . S
H619 C597 0.950 . S
C620 C621 1.349 1_556 S
C620 C622 1.327 . S
C620 H645 0.950 . S
C621 C620 1.349 1_554 S
C621 C637 1.349 . S
C622 C620 1.327 . S
C622 C641 1.429 1_556 S
C622 H646 0.950 . S
C623 C640 1.574 1_565 S
C623 C642 1.368 . S
C623 H647 0.949 . S
H624 C628 0.949 . S
C625 C626 1.349 . S
C625 C627 1.327 . S
C625 H648 0.950 . S
C626 C625 1.349 . S
C626 C638 1.349 1_554 S
C627 C625 1.327 . S
C627 C643 1.429 . S
C627 H649 0.950 . S
C628 H624 0.949 . S
C628 C636 1.574 1_545 S
C628 C644 1.368 1_556 S
H629 C637 0.950 . S
H630 C635 0.950 . S
H631 C636 0.949 . S
H632 C638 0.950 . S
H633 C639 0.950 . S
H634 C640 0.949 . S
C635 H630 0.950 . S
C635 C637 1.327 . S
C635 C641 1.429 . S
C636 C628 1.574 1_565 S
C636 H631 0.949 . S
C636 C642 1.368 1_556 S
C637 C621 1.349 . S
C637 H629 0.950 . S
C637 C635 1.327 . S
C638 C626 1.349 1_556 S
C638 H632 0.950 . S
C638 C639 1.327 . S
C639 H633 0.950 . S
C639 C638 1.327 . S
C639 C643 1.429 1_556 S
C640 C623 1.574 1_545 S
C640 H634 0.949 . S
C640 C644 1.368 . S
C641 C622 1.429 1_554 S
C641 C635 1.429 . S
C641 C642 1.523 . S
C642 C623 1.368 . S
C642 C636 1.368 1_554 S
C642 C641 1.523 . S
C643 C627 1.429 . S
C643 C639 1.429 1_554 S
C643 C644 1.523 . S
C644 C628 1.368 1_554 S
C644 C640 1.368 . S
C644 C643 1.523 . S
H645 C620 0.950 . S
H646 C622 0.950 . S
H647 C623 0.949 . S
H648 C625 0.950 . S
H649 C627 0.950 . S
C650 C651 1.349 . S
C650 C652 1.327 . S
C650 H675 0.950 . S
C651 C650 1.349 . S
C651 C667 1.349 . S
C652 C650 1.327 . S
C652 C671 1.429 . S
C652 H676 0.950 . S
C653 C670 1.574 1_545 S
C653 C672 1.368 . S
C653 H677 0.949 . S
H654 C658 0.949 . S
C655 C656 1.349 . S
C655 C657 1.327 . S
C655 H678 0.950 . S
C656 C655 1.349 . S
C656 C668 1.349 . S
C657 C655 1.327 . S
C657 C673 1.429 . S
C657 H679 0.950 . S
C658 H654 0.949 . S
C658 C666 1.574 1_565 S
C658 C674 1.368 . S
H659 C667 0.950 . S
H660 C665 0.950 . S
H661 C666 0.949 . S
H662 C668 0.950 . S
H663 C669 0.950 . S
H664 C670 0.949 . S
C665 H660 0.950 . S
C665 C667 1.327 . S
C665 C671 1.429 . S
C666 C658 1.574 1_545 S
C666 H661 0.949 . S
C666 C672 1.368 . S
C667 C651 1.349 . S
C667 H659 0.950 . S
C667 C665 1.327 . S
C668 C656 1.349 . S
C668 H662 0.950 . S
C668 C669 1.327 . S
C669 H663 0.950 . S
C669 C668 1.327 . S
C669 C673 1.429 . S
C670 C653 1.574 1_565 S
C670 H664 0.949 . S
C670 C674 1.368 . S
C671 C652 1.429 . S
C671 C665 1.429 . S
C671 C672 1.523 . S
C672 C653 1.368 . S
C672 C666 1.368 . S
C672 C671 1.523 . S
C673 C657 1.429 . S
C673 C669 1.429 . S
C673 C674 1.523 . S
C674 C658 1.368 . S
C674 C670 1.368 . S
C674 C673 1.523 . S
H675 C650 0.950 . S
H676 C652 0.950 . S
H677 C653 0.949 . S
H678 C655 0.950 . S
H679 C657 0.950 . S
C680 C681 1.349 . S
C680 C682 1.327 . S
C680 H705 0.950 . S
C681 C680 1.349 . S
C681 C697 1.349 1_554 S
C682 C680 1.327 . S
C682 C701 1.429 . S
C682 H706 0.950 . S
C683 C700 1.574 . S
C683 C702 1.368 1_556 S
C683 H707 0.949 . S
H684 C688 0.949 . S
C685 C686 1.340 1_556 S
C685 C687 1.327 . S
C685 H708 0.959 . S
C686 C685 1.340 1_554 S
C686 C698 1.349 . S
C687 C685 1.327 . S
C687 C703 1.429 1_556 S
C687 H709 0.950 . S
C688 H684 0.949 . S
C688 C696 1.574 . S
C688 C704 1.368 . S
H689 C697 0.950 . S
H690 C695 0.950 . S
H691 C696 0.949 . S
H692 C698 0.950 . S
H693 C699 0.950 . S
H694 C700 0.949 . S
C695 H690 0.950 . S
C695 C697 1.327 . S
C695 C701 1.429 1_556 S
C696 C688 1.574 . S
C696 H691 0.949 . S
C696 C702 1.368 . S
C697 C681 1.349 1_556 S
C697 H689 0.950 . S
C697 C695 1.327 . S
C698 C686 1.349 . S
C698 H692 0.950 . S
C698 C699 1.327 . S
C699 H693 0.950 . S
C699 C698 1.327 . S
C699 C703 1.429 . S
C700 C683 1.574 . S
C700 H694 0.949 . S
C700 C704 1.368 1_556 S
C701 C682 1.429 . S
C701 C695 1.429 1_554 S
C701 C702 1.523 . S
C702 C683 1.368 1_554 S
C702 C696 1.368 . S
C702 C701 1.523 . S
C703 C687 1.429 1_554 S
C703 C699 1.429 . S
C703 C704 1.523 . S
C704 C688 1.368 . S
C704 C700 1.368 1_554 S
C704 C703 1.523 . S
H705 C680 0.950 . S
H706 C682 0.950 . S
H707 C683 0.949 . S
H708 C685 0.959 . S
H709 C687 0.950 . S
C710 C711 1.349 . S
C710 C712 1.327 . S
C710 H735 0.950 . S
C711 C710 1.349 . S
C711 C727 1.349 1_554 S
C712 C710 1.327 . S
C712 C731 1.429 . S
C712 H736 0.950 . S
C713 C730 1.574 . S
C713 C732 1.368 1_556 S
C713 H737 0.949 . S
H714 C718 0.949 . S
C715 C716 1.340 1_556 S
C715 C717 1.327 . S
C715 H738 0.959 . S
C716 C715 1.340 1_554 S
C716 C728 1.349 . S
C717 C715 1.327 . S
C717 C733 1.429 1_556 S
C717 H739 0.950 . S
C718 H714 0.949 . S
C718 C726 1.574 . S
C718 C734 1.368 . S
H719 C727 0.950 . S
H720 C725 0.950 . S
H721 C726 0.949 . S
H722 C728 0.950 . S
H723 C729 0.950 . S
H724 C730 0.949 . S
C725 H720 0.950 . S
C725 C727 1.327 . S
C725 C731 1.429 1_556 S
C726 C718 1.574 . S
C726 H721 0.949 . S
C726 C732 1.368 . S
C727 C711 1.349 1_556 S
C727 H719 0.950 . S
C727 C725 1.327 . S
C728 C716 1.349 . S
C728 H722 0.950 . S
C728 C729 1.327 . S
C729 H723 0.950 . S
C729 C728 1.327 . S
C729 C733 1.429 . S
C730 C713 1.574 . S
C730 H724 0.949 . S
C730 C734 1.368 1_556 S
C731 C712 1.429 . S
C731 C725 1.429 1_554 S
C731 C732 1.523 . S
C732 C713 1.368 1_554 S
C732 C726 1.368 . S
C732 C731 1.523 . S
C733 C717 1.429 1_554 S
C733 C729 1.429 . S
C733 C734 1.523 . S
C734 C718 1.368 . S
C734 C730 1.368 1_554 S
C734 C733 1.523 . S
H735 C710 0.950 . S
H736 C712 0.950 . S
H737 C713 0.949 . S
H738 C715 0.959 . S
H739 C717 0.950 . S
C740 C741 1.349 . S
C740 C742 1.327 . S
C740 H765 0.950 . S
C741 C740 1.349 . S
C741 C757 1.349 . S
C742 C740 1.327 . S
C742 C761 1.429 . S
C742 H766 0.950 . S
C743 C760 1.574 . S
C743 C762 1.368 . S
C743 H767 0.949 . S
H744 C748 0.949 . S
C745 C746 1.349 . S
C745 C747 1.327 . S
C745 H768 0.950 . S
C746 C745 1.349 . S
C746 C758 1.349 . S
C747 C745 1.327 . S
C747 C763 1.429 . S
C747 H769 0.950 . S
C748 H744 0.949 . S
C748 C756 1.574 . S
C748 C764 1.368 . S
H749 C757 0.950 . S
H750 C755 0.950 . S
H751 C756 0.949 . S
H752 C758 0.950 . S
H753 C759 0.950 . S
H754 C760 0.949 . S
C755 H750 0.950 . S
C755 C757 1.327 . S
C755 C761 1.429 . S
C756 C748 1.574 . S
C756 H751 0.949 . S
C756 C762 1.368 . S
C757 C741 1.349 . S
C757 H749 0.950 . S
C757 C755 1.327 . S
C758 C746 1.349 . S
C758 H752 0.950 . S
C758 C759 1.327 . S
C759 H753 0.950 . S
C759 C758 1.327 . S
C759 C763 1.429 . S
C760 C743 1.574 . S
C760 H754 0.949 . S
C760 C764 1.368 . S
C761 C742 1.429 . S
C761 C755 1.429 . S
C761 C762 1.523 . S
C762 C743 1.368 . S
C762 C756 1.368 . S
C762 C761 1.523 . S
C763 C747 1.429 . S
C763 C759 1.429 . S
C763 C764 1.523 . S
C764 C748 1.368 . S
C764 C760 1.368 . S
C764 C763 1.523 . S
H765 C740 0.950 . S
H766 C742 0.950 . S
H767 C743 0.949 . S
H768 C745 0.950 . S
H769 C747 0.950 . S
C770 C771 1.349 . S
C770 C772 1.327 . S
C770 H795 0.950 . S
C771 C770 1.349 . S
C771 C787 1.349 . S
C772 C770 1.327 . S
C772 C791 1.429 . S
C772 H796 0.950 . S
C773 C790 1.574 . S
C773 C792 1.368 . S
C773 H797 0.949 . S
H774 C778 0.949 . S
C775 C776 1.349 . S
C775 C777 1.327 . S
C775 H798 0.950 . S
C776 C775 1.349 . S
C776 C788 1.349 . S
C777 C775 1.327 . S
C777 C793 1.429 . S
C777 H799 0.950 . S
C778 H774 0.949 . S
C778 C786 1.574 . S
C778 C794 1.368 . S
H779 C787 0.950 . S
H780 C785 0.950 . S
H781 C786 0.949 . S
H782 C788 0.950 . S
H783 C789 0.950 . S
H784 C790 0.949 . S
C785 H780 0.950 . S
C785 C787 1.327 . S
C785 C791 1.429 . S
C786 C778 1.574 . S
C786 H781 0.949 . S
C786 C792 1.368 . S
C787 C771 1.349 . S
C787 H779 0.950 . S
C787 C785 1.327 . S
C788 C776 1.349 . S
C788 H782 0.950 . S
C788 C789 1.327 . S
C789 H783 0.950 . S
C789 C788 1.327 . S
C789 C793 1.429 . S
C790 C773 1.574 . S
C790 H784 0.949 . S
C790 C794 1.368 . S
C791 C772 1.429 . S
C791 C785 1.429 . S
C791 C792 1.523 . S
C792 C773 1.368 . S
C792 C786 1.368 . S
C792 C791 1.523 . S
C793 C777 1.429 . S
C793 C789 1.429 . S
C793 C794 1.523 . S
C794 C778 1.368 . S
C794 C790 1.368 . S
C794 C793 1.523 . S
H795 C770 0.950 . S
H796 C772 0.950 . S
H797 C773 0.949 . S
H798 C775 0.950 . S
H799 C777 0.950 . S
C800 C801 1.349 . S
C800 C802 1.327 . S
C800 H825 0.950 . S
C801 C800 1.349 . S
C801 C817 1.349 . S
C802 C800 1.327 . S
C802 C821 1.429 . S
C802 H826 0.950 . S
C803 C820 1.574 . S
C803 C822 1.368 1_655 S
C803 H827 0.949 . S
H804 C808 0.949 . S
C805 C806 1.349 . S
C805 C807 1.327 . S
C805 H828 0.950 . S
C806 C805 1.349 . S
C806 C818 1.349 . S
C807 C805 1.327 . S
C807 C823 1.429 . S
C807 H829 0.950 . S
C808 H804 0.949 . S
C808 C816 1.574 . S
C808 C824 1.368 1_455 S
H809 C817 0.948 1_655 S
H810 C815 0.955 . S
H811 C816 0.949 . S
H812 C818 0.950 . S
H813 C819 0.950 1_455 S
H814 C820 0.949 . S
C815 H810 0.955 . S
C815 C817 1.324 1_655 S
C815 C821 1.426 1_655 S
C816 C808 1.574 . S
C816 H811 0.949 . S
C816 C822 1.368 . S
C817 C801 1.349 . S
C817 H809 0.948 1_455 S
C817 C815 1.324 1_455 S
C818 C806 1.349 . S
C818 H812 0.950 . S
C818 C819 1.327 . S
C819 H813 0.950 1_655 S
C819 C818 1.327 . S
C819 C823 1.429 . S
C820 C803 1.574 . S
C820 H814 0.949 . S
C820 C824 1.368 . S
C821 C802 1.429 . S
C821 C815 1.426 1_455 S
C821 C822 1.523 . S
C822 C803 1.368 1_455 S
C822 C816 1.368 . S
C822 C821 1.523 . S
C823 C807 1.429 . S
C823 C819 1.429 . S
C823 C824 1.523 . S
C824 C808 1.368 1_655 S
C824 C820 1.368 . S
C824 C823 1.523 . S
H825 C800 0.950 . S
H826 C802 0.950 . S
H827 C803 0.949 . S
H828 C805 0.950 . S
H829 C807 0.950 . S
C830 C831 1.349 . S
C830 C832 1.327 . S
C830 H855 0.950 . S
C831 C830 1.349 . S
C831 C847 1.349 . S
C832 C830 1.327 . S
C832 C851 1.429 . S
C832 H856 0.950 . S
C833 C850 1.574 . S
C833 C852 1.368 1_455 S
C833 H857 0.949 . S
H834 C838 0.949 . S
C835 C836 1.349 . S
C835 C837 1.327 . S
C835 H858 0.950 . S
C836 C835 1.349 . S
C836 C848 1.349 . S
C837 C835 1.327 . S
C837 C853 1.429 . S
C837 H859 0.950 . S
C838 H834 0.949 . S
C838 C846 1.574 . S
C838 C854 1.368 1_655 S
H839 C847 0.945 1_455 S
H840 C845 0.950 1_455 S
H841 C846 0.949 . S
H842 C848 0.950 . S
H843 C849 0.950 1_655 S
H844 C850 0.949 . S
C845 H840 0.950 1_655 S
C845 C847 1.327 . S
C845 C851 1.429 . S
C846 C838 1.574 . S
C846 H841 0.949 . S
C846 C852 1.368 . S
C847 C831 1.349 . S
C847 H839 0.945 1_655 S
C847 C845 1.327 . S
C848 C836 1.349 . S
C848 H842 0.950 . S
C848 C849 1.327 . S
C849 H843 0.950 1_455 S
C849 C848 1.327 . S
C849 C853 1.429 . S
C850 C833 1.574 . S
C850 H844 0.949 . S
C850 C854 1.368 . S
C851 C832 1.429 . S
C851 C845 1.429 . S
C851 C852 1.523 . S
C852 C833 1.368 1_655 S
C852 C846 1.368 . S
C852 C851 1.523 . S
C853 C837 1.429 . S
C853 C849 1.429 . S
C853 C854 1.523 . S
C854 C838 1.368 1_455 S
C854 C850 1.368 . S
C854 C853 1.523 . S
H855 C830 0.950 . S
H856 C832 0.950 . S
H857 C833 0.949 . S
H858 C835 0.950 . S
H859 C837 0.950 . S
C860 C861 1.349 . S
C860 C862 1.327 . S
C860 H885 0.950 . S
C861 C860 1.349 . S
C861 C877 1.349 . S
C862 C860 1.327 . S
C862 C881 1.429 . S
C862 H886 0.950 . S
C863 C880 1.574 . S
C863 C882 1.368 1_455 S
C863 H887 0.949 . S
H864 C868 0.949 . S
C865 C866 1.349 . S
C865 C867 1.327 . S
C865 H888 0.950 . S
C866 C865 1.349 . S
C866 C878 1.349 . S
C867 C865 1.327 . S
C867 C883 1.429 . S
C867 H889 0.950 . S
C868 H864 0.949 . S
C868 C876 1.574 . S
C868 C884 1.368 1_655 S
H869 C877 0.950 1_455 S
H870 C875 0.950 . S
H871 C876 0.949 . S
H872 C878 0.950 1_655 S
H873 C879 0.950 . S
H874 C880 0.949 . S
C875 H870 0.950 . S
C875 C877 1.327 1_455 S
C875 C881 1.429 1_455 S
C876 C868 1.574 . S
C876 H871 0.949 . S
C876 C882 1.368 . S
C877 C861 1.349 . S
C877 H869 0.950 1_655 S
C877 C875 1.327 1_655 S
C878 C866 1.349 . S
C878 H872 0.950 1_455 S
C878 C879 1.327 1_455 S
C879 H873 0.950 . S
C879 C878 1.327 1_655 S
C879 C883 1.429 1_655 S
C880 C863 1.574 . S
C880 H874 0.949 . S
C880 C884 1.368 . S
C881 C862 1.429 . S
C881 C875 1.429 1_655 S
C881 C882 1.523 . S
C882 C863 1.368 1_655 S
C882 C876 1.368 . S
C882 C881 1.523 . S
C883 C867 1.429 . S
C883 C879 1.429 1_455 S
C883 C884 1.523 . S
C884 C868 1.368 1_455 S
C884 C880 1.368 . S
C884 C883 1.523 . S
H885 C860 0.950 . S
H886 C862 0.950 . S
H887 C863 0.949 . S
H888 C865 0.950 . S
H889 C867 0.950 . S
C890 C891 1.349 . S
C890 C892 1.327 . S
C890 H915 0.950 . S
C891 C890 1.349 . S
C891 C907 1.349 . S
C892 C890 1.327 . S
C892 C911 1.429 . S
C892 H916 0.950 . S
C893 C910 1.574 . S
C893 C912 1.368 1_455 S
C893 H917 0.949 . S
H894 C898 0.949 . S
C895 C896 1.349 . S
C895 C897 1.327 . S
C895 H918 0.950 . S
C896 C895 1.349 . S
C896 C908 1.349 . S
C897 C895 1.327 . S
C897 C913 1.429 . S
C897 H919 0.950 . S
C898 H894 0.949 . S
C898 C906 1.574 . S
C898 C914 1.368 1_655 S
H899 C907 0.950 1_455 S
H900 C905 0.950 . S
H901 C906 0.949 . S
H902 C908 0.950 . S
H903 C909 0.950 1_655 S
H904 C910 0.949 . S
C905 H900 0.950 . S
C905 C907 1.327 1_455 S
C905 C911 1.429 1_455 S
C906 C898 1.574 . S
C906 H901 0.949 . S
C906 C912 1.368 . S
C907 C891 1.349 . S
C907 H899 0.950 1_655 S
C907 C905 1.327 1_655 S
C908 C896 1.349 . S
C908 H902 0.950 . S
C908 C909 1.327 . S
C909 H903 0.950 1_455 S
C909 C908 1.327 . S
C909 C913 1.429 . S
C910 C893 1.574 . S
C910 H904 0.949 . S
C910 C914 1.368 . S
C911 C892 1.429 . S
C911 C905 1.429 1_655 S
C911 C912 1.523 . S
C912 C893 1.368 1_655 S
C912 C906 1.368 . S
C912 C911 1.523 . S
C913 C897 1.429 . S
C913 C909 1.429 . S
C913 C914 1.523 . S
C914 C898 1.368 1_455 S
C914 C910 1.368 . S
C914 C913 1.523 . S
H915 C890 0.950 . S
H916 C892 0.950 . S
H917 C893 0.949 . S
H918 C895 0.950 . S
H919 C897 0.950 . S
C920 C921 1.349 . S
C920 C922 1.327 . S
C920 H945 0.950 . S
C921 C920 1.349 . S
C921 C937 1.349 . S
C922 C920 1.327 . S
C922 C941 1.429 . S
C922 H946 0.950 . S
C923 C940 1.574 . S
C923 C942 1.368 . S
C923 H947 0.949 . S
H924 C928 0.949 . S
C925 C926 1.349 . S
C925 C927 1.327 . S
C925 H948 0.950 . S
C926 C925 1.349 . S
C926 C938 1.349 . S
C927 C925 1.327 . S
C927 C943 1.429 . S
C927 H949 0.950 . S
C928 H924 0.949 . S
C928 C936 1.574 . S
C928 C944 1.368 . S
H929 C937 0.950 . S
H930 C935 0.950 . S
H931 C936 0.949 . S
H932 C938 0.950 . S
H933 C939 0.950 . S
H934 C940 0.949 . S
C935 H930 0.950 . S
C935 C937 1.327 . S
C935 C941 1.429 . S
C936 C928 1.574 . S
C936 H931 0.949 . S
C936 C942 1.368 . S
C937 C921 1.349 . S
C937 H929 0.950 . S
C937 C935 1.327 . S
C938 C926 1.349 . S
C938 H932 0.950 . S
C938 C939 1.327 . S
C939 H933 0.950 . S
C939 C938 1.327 . S
C939 C943 1.429 . S
C940 C923 1.574 . S
C940 H934 0.949 . S
C940 C944 1.368 . S
C941 C922 1.429 . S
C941 C935 1.429 . S
C941 C942 1.523 . S
C942 C923 1.368 . S
C942 C936 1.368 . S
C942 C941 1.523 . S
C943 C927 1.429 . S
C943 C939 1.429 . S
C943 C944 1.523 . S
C944 C928 1.368 . S
C944 C940 1.368 . S
C944 C943 1.523 . S
H945 C920 0.950 . S
H946 C922 0.950 . S
H947 C923 0.949 . S
H948 C925 0.950 . S
H949 C927 0.950 . S
C950 C951 1.349 . S
C950 C952 1.327 . S
C950 H975 0.950 . S
C951 C950 1.349 . S
C951 C967 1.349 . S
C952 C950 1.327 . S
C952 C971 1.429 . S
C952 H976 0.950 . S
C953 C970 1.574 . S
C953 C972 1.368 . S
C953 H977 0.949 . S
H954 C958 0.949 . S
C955 C956 1.349 . S
C955 C957 1.327 . S
C955 H978 0.950 . S
C956 C955 1.349 . S
C956 C968 1.349 . S
C957 C955 1.327 . S
C957 C973 1.429 . S
C957 H979 0.950 . S
C958 H954 0.949 . S
C958 C966 1.574 . S
C958 C974 1.368 . S
H959 C967 0.950 . S
H960 C965 0.950 . S
H961 C966 0.949 . S
H962 C968 0.950 . S
H963 C969 0.950 . S
H964 C970 0.949 . S
C965 H960 0.950 . S
C965 C967 1.327 . S
C965 C971 1.429 . S
C966 C958 1.574 . S
C966 H961 0.949 . S
C966 C972 1.368 . S
C967 C951 1.349 . S
C967 H959 0.950 . S
C967 C965 1.327 . S
C968 C956 1.349 . S
C968 H962 0.950 . S
C968 C969 1.327 . S
C969 H963 0.950 . S
C969 C968 1.327 . S
C969 C973 1.429 . S
C970 C953 1.574 . S
C970 H964 0.949 . S
C970 C974 1.368 . S
C971 C952 1.429 . S
C971 C965 1.429 . S
C971 C972 1.523 . S
C972 C953 1.368 . S
C972 C966 1.368 . S
C972 C971 1.523 . S
C973 C957 1.429 . S
C973 C969 1.429 . S
C973 C974 1.523 . S
C974 C958 1.368 . S
C974 C970 1.368 . S
C974 C973 1.523 . S
H975 C950 0.950 . S
H976 C952 0.950 . S
H977 C953 0.949 . S
H978 C955 0.950 . S
H979 C957 0.950 . S
C980 C981 1.349 . S
C980 C982 1.327 . S
C980 H1005 0.950 . S
C981 C980 1.349 . S
C981 C997 1.349 . S
C982 C980 1.327 . S
C982 C1001 1.429 . S
C982 H1006 0.950 . S
C983 C1000 1.574 . S
C983 C1002 1.368 . S
C983 H1007 0.949 . S
H984 C988 0.949 . S
C985 C986 1.349 . S
C985 C987 1.327 . S
C985 H1008 0.950 . S
C986 C985 1.349 . S
C986 C998 1.349 . S
C987 C985 1.327 . S
C987 C1003 1.429 . S
C987 H1009 0.950 . S
C988 H984 0.949 . S
C988 C996 1.574 . S
C988 C1004 1.368 . S
H989 C997 0.950 . S
H990 C995 0.950 . S
H991 C996 0.949 . S
H992 C998 0.950 . S
H993 C999 0.950 . S
H994 C1000 0.949 . S
C995 H990 0.950 . S
C995 C997 1.327 . S
C995 C1001 1.429 . S
C996 C988 1.574 . S
C996 H991 0.949 . S
C996 C1002 1.368 . S
C997 C981 1.349 . S
C997 H989 0.950 . S
C997 C995 1.327 . S
C998 C986 1.349 . S
C998 H992 0.950 . S
C998 C999 1.327 . S
C999 H993 0.950 . S
C999 C998 1.327 . S
C999 C1003 1.429 . S
C1000 C983 1.574 . S
C1000 H994 0.949 . S
C1000 C1004 1.368 . S
C1001 C982 1.429 . S
C1001 C995 1.429 . S
C1001 C1002 1.523 . S
C1002 C983 1.368 . S
C1002 C996 1.368 . S
C1002 C1001 1.523 . S
C1003 C987 1.429 . S
C1003 C999 1.429 . S
C1003 C1004 1.523 . S
C1004 C988 1.368 . S
C1004 C1000 1.368 . S
C1004 C1003 1.523 . S
H1005 C980 0.950 . S
H1006 C982 0.950 . S
H1007 C983 0.949 . S
H1008 C985 0.950 . S
H1009 C987 0.950 . S
C1010 C1011 1.349 . S
C1010 C1012 1.327 . S
C1010 H1035 0.950 . S
C1011 C1010 1.349 . S
C1011 C1027 1.349 . S
C1012 C1010 1.327 . S
C1012 C1031 1.429 . S
C1012 H1036 0.950 . S
C1013 C1030 1.574 . S
C1013 C1032 1.368 . S
C1013 H1037 0.949 . S
H1014 C1018 0.949 . S
C1015 C1016 1.349 . S
C1015 C1017 1.327 . S
C1015 H1038 0.950 . S
C1016 C1015 1.349 . S
C1016 C1028 1.349 . S
C1017 C1015 1.327 . S
C1017 C1033 1.429 . S
C1017 H1039 0.950 . S
C1018 H1014 0.949 . S
C1018 C1026 1.574 . S
C1018 C1034 1.368 . S
H1019 C1027 0.950 . S
H1020 C1025 0.950 . S
H1021 C1026 0.949 . S
H1022 C1028 0.950 . S
H1023 C1029 0.950 . S
H1024 C1030 0.949 . S
C1025 H1020 0.950 . S
C1025 C1027 1.327 . S
C1025 C1031 1.429 . S
C1026 C1018 1.574 . S
C1026 H1021 0.949 . S
C1026 C1032 1.368 . S
C1027 C1011 1.349 . S
C1027 H1019 0.950 . S
C1027 C1025 1.327 . S
C1028 C1016 1.349 . S
C1028 H1022 0.950 . S
C1028 C1029 1.327 . S
C1029 H1023 0.950 . S
C1029 C1028 1.327 . S
C1029 C1033 1.429 . S
C1030 C1013 1.574 . S
C1030 H1024 0.949 . S
C1030 C1034 1.368 . S
C1031 C1012 1.429 . S
C1031 C1025 1.429 . S
C1031 C1032 1.523 . S
C1032 C1013 1.368 . S
C1032 C1026 1.368 . S
C1032 C1031 1.523 . S
C1033 C1017 1.429 . S
C1033 C1029 1.429 . S
C1033 C1034 1.523 . S
C1034 C1018 1.368 . S
C1034 C1030 1.368 . S
C1034 C1033 1.523 . S
H1035 C1010 0.950 . S
H1036 C1012 0.950 . S
H1037 C1013 0.949 . S
H1038 C1015 0.950 . S
H1039 C1017 0.950 . S
C321 C13 2.122 . S
C326 C24 2.122 . S
C351 C53 2.122 . S
C356 C64 2.122 . S
C381 C93 2.120 . S
C386 C104 2.120 . S
C411 C144 2.136 . S
C416 C133 2.136 . S
C441 C173 2.122 . S
C446 C184 2.122 . S
C471 C224 2.122 . S
C476 C213 2.122 . S
C501 C253 2.120 . S
C506 C264 2.120 . S
C531 C293 2.136 . S
C536 C304 2.136 . S
C561 C66 2.199 . S
C566 C17 2.199 . S
C591 C146 2.217 . S
C596 C106 2.217 . S
C621 C177 2.199 . S
C626 C226 2.199 . S
C651 C266 2.218 . S
C656 C306 2.218 . S
C681 C26 1.628 . S
C686 C217 1.628 . S
C711 C186 1.628 . S
C716 C57 1.628 . S
C741 C97 1.655 . S
C746 C297 1.654 . S
C771 C137 1.654 . S
C776 C257 1.655 . S
C801 C2 1.658 . S
C806 C122 1.634 . S
C831 C42 1.504 . S
C836 C82 1.481 . S
C861 C63 1.623 . S
C866 C103 1.602 . S
C891 C143 1.467 . S
C896 C23 1.459 . S
C921 C162 1.658 . S
C926 C282 1.634 . S
C951 C202 1.503 . S
C956 C242 1.480 . S
C981 C223 1.624 . S
C986 C263 1.602 . S
C1011 C303 1.466 . S
C1016 C183 1.459 . S
