# Generated by pormake.
# Topology umd, (4)-cn, num edge types: 1
# Building blocks:
#     Node 0, Type 0, BuildingBlock: GALJAG_clean_sbu_0, # of connection points: 4
#     Node 1, Type 0, BuildingBlock: GALJAG_clean_sbu_0, # of connection points: 4
#     Node 2, Type 0, BuildingBlock: GALJAG_clean_sbu_0, # of connection points: 4
#     Node 3, Type 0, BuildingBlock: GALJAG_clean_sbu_0, # of connection points: 4
#     Node 4, Type 0, BuildingBlock: GALJAG_clean_sbu_0, # of connection points: 4
#     Node 5, Type 0, BuildingBlock: GALJAG_clean_sbu_0, # of connection points: 4
#     Node 6, Type 0, BuildingBlock: GALJAG_clean_sbu_0, # of connection points: 4
#     Node 7, Type 0, BuildingBlock: GALJAG_clean_sbu_0, # of connection points: 4
#     Node 8, Type 0, BuildingBlock: GALJAG_clean_sbu_0, # of connection points: 4
#     Node 9, Type 0, BuildingBlock: GALJAG_clean_sbu_0, # of connection points: 4
#     Node 10, Type 0, BuildingBlock: GALJAG_clean_sbu_0, # of connection points: 4
#     Node 11, Type 0, BuildingBlock: GALJAG_clean_sbu_0, # of connection points: 4
#     Node 12, Type 0, BuildingBlock: GALJAG_clean_sbu_0, # of connection points: 4
#     Node 13, Type 0, BuildingBlock: GALJAG_clean_sbu_0, # of connection points: 4
#     Node 14, Type 0, BuildingBlock: GALJAG_clean_sbu_0, # of connection points: 4
#     Node 15, Type 0, BuildingBlock: GALJAG_clean_sbu_0, # of connection points: 4
#     Edge 16, Type (0, 0), BuildingBlock: MIFKUJ_clean_linker_0, # of connection points: 2
#     Edge 17, Type (0, 0), BuildingBlock: MIFKUJ_clean_linker_0, # of connection points: 2
#     Edge 18, Type (0, 0), BuildingBlock: MIFKUJ_clean_linker_0, # of connection points: 2
#     Edge 19, Type (0, 0), BuildingBlock: MIFKUJ_clean_linker_0, # of connection points: 2
#     Edge 20, Type (0, 0), BuildingBlock: MIFKUJ_clean_linker_0, # of connection points: 2
#     Edge 21, Type (0, 0), BuildingBlock: MIFKUJ_clean_linker_0, # of connection points: 2
#     Edge 22, Type (0, 0), BuildingBlock: MIFKUJ_clean_linker_0, # of connection points: 2
#     Edge 23, Type (0, 0), BuildingBlock: MIFKUJ_clean_linker_0, # of connection points: 2
#     Edge 24, Type (0, 0), BuildingBlock: MIFKUJ_clean_linker_0, # of connection points: 2
#     Edge 25, Type (0, 0), BuildingBlock: MIFKUJ_clean_linker_0, # of connection points: 2
#     Edge 26, Type (0, 0), BuildingBlock: MIFKUJ_clean_linker_0, # of connection points: 2
#     Edge 27, Type (0, 0), BuildingBlock: MIFKUJ_clean_linker_0, # of connection points: 2
#     Edge 28, Type (0, 0), BuildingBlock: MIFKUJ_clean_linker_0, # of connection points: 2
#     Edge 29, Type (0, 0), BuildingBlock: MIFKUJ_clean_linker_0, # of connection points: 2
#     Edge 30, Type (0, 0), BuildingBlock: MIFKUJ_clean_linker_0, # of connection points: 2
#     Edge 31, Type (0, 0), BuildingBlock: MIFKUJ_clean_linker_0, # of connection points: 2
#     Edge 32, Type (0, 0), BuildingBlock: MIFKUJ_clean_linker_0, # of connection points: 2
#     Edge 33, Type (0, 0), BuildingBlock: MIFKUJ_clean_linker_0, # of connection points: 2
#     Edge 34, Type (0, 0), BuildingBlock: MIFKUJ_clean_linker_0, # of connection points: 2
#     Edge 35, Type (0, 0), BuildingBlock: MIFKUJ_clean_linker_0, # of connection points: 2
#     Edge 36, Type (0, 0), BuildingBlock: MIFKUJ_clean_linker_0, # of connection points: 2
#     Edge 37, Type (0, 0), BuildingBlock: MIFKUJ_clean_linker_0, # of connection points: 2
#     Edge 38, Type (0, 0), BuildingBlock: MIFKUJ_clean_linker_0, # of connection points: 2
#     Edge 39, Type (0, 0), BuildingBlock: MIFKUJ_clean_linker_0, # of connection points: 2
#     Edge 40, Type (0, 0), BuildingBlock: MIFKUJ_clean_linker_0, # of connection points: 2
#     Edge 41, Type (0, 0), BuildingBlock: MIFKUJ_clean_linker_0, # of connection points: 2
#     Edge 42, Type (0, 0), BuildingBlock: MIFKUJ_clean_linker_0, # of connection points: 2
#     Edge 43, Type (0, 0), BuildingBlock: MIFKUJ_clean_linker_0, # of connection points: 2
#     Edge 44, Type (0, 0), BuildingBlock: MIFKUJ_clean_linker_0, # of connection points: 2
#     Edge 45, Type (0, 0), BuildingBlock: MIFKUJ_clean_linker_0, # of connection points: 2
#     Edge 46, Type (0, 0), BuildingBlock: MIFKUJ_clean_linker_0, # of connection points: 2
#     Edge 47, Type (0, 0), BuildingBlock: MIFKUJ_clean_linker_0, # of connection points: 2
# Relax obj value: 0.079
# Max RMSD: 0.208
# Mean RMSD: 0.208
data_MOF--net-umd--node1-GALJAG_clean_sbu_0--edge1-MIFKUJ_clean_linker_0
_symmetry_space_group_name_H-M    P1
_symmetry_Int_Tables_number       1
_symmetry_cell_setting            triclinic
loop_
_symmetry_equiv_pos_as_xyz
'x, y, z'
_cell_length_a     51.715743
_cell_length_b     51.723256
_cell_length_c     73.456095
_cell_angle_alpha  90.011045
_cell_angle_beta   89.970404
_cell_angle_gamma 90.016339
loop_
_atom_site_label
_atom_site_type_symbol
_atom_site_fract_x
_atom_site_fract_y
_atom_site_fract_z
_atom_type_partial_charge
In0 In 0.17653 0.43845 0.12912 0.0
O1 O 0.17268 0.39438 0.131 0.0
O2 O 0.20966 0.41161 0.13512 0.0
C3 C 0.12795 0.45524 0.12432 0.0
C4 C 0.19469 0.44839 0.09555 0.0
C5 C 0.18549 0.45817 0.16228 0.0
O6 O 0.13308 0.43155 0.12675 0.0
O7 O 0.1473 0.47012 0.12423 0.0
O8 O 0.20057 0.46262 0.14906 0.0
O9 O 0.16631 0.44402 0.15864 0.0
C10 C 0.19649 0.39111 0.1342 0.0
O11 O 0.19977 0.46315 0.10883 0.0
O12 O 0.18086 0.4291 0.09942 0.0
In13 In 0.56683 0.18369 0.62897 0.0
O14 O 0.54488 0.2062 0.60678 0.0
O15 O 0.57678 0.18236 0.59926 0.0
C16 C 0.54576 0.19459 0.6615 0.0
C17 C 0.6135 0.20531 0.63405 0.0
C18 C 0.54978 0.13477 0.62674 0.0
O19 O 0.53859 0.20628 0.6472 0.0
O20 O 0.56319 0.17786 0.65914 0.0
O21 O 0.57292 0.14002 0.631 0.0
O22 O 0.53561 0.15413 0.6236 0.0
C23 C 0.55894 0.19728 0.59411 0.0
O24 O 0.61098 0.18143 0.63073 0.0
O25 O 0.59264 0.21794 0.63471 0.0
In26 In 0.81892 0.56673 0.12444 0.0
O27 O 0.79336 0.54278 0.1052 0.0
O28 O 0.81232 0.57623 0.09486 0.0
C29 C 0.8109 0.54591 0.15745 0.0
C30 C 0.79844 0.61372 0.13006 0.0
C31 C 0.86813 0.55156 0.11915 0.0
O32 O 0.799 0.53793 0.14349 0.0
O33 O 0.82652 0.56421 0.15463 0.0
O34 O 0.86232 0.57474 0.12273 0.0
O35 O 0.84914 0.53636 0.118 0.0
C36 C 0.79745 0.55744 0.09172 0.0
O37 O 0.82179 0.61084 0.12533 0.0
O38 O 0.7859 0.59298 0.13214 0.0
In39 In 0.43706 0.82696 0.62543 0.0
O40 O 0.39285 0.82627 0.62831 0.0
O41 O 0.41184 0.79367 0.61668 0.0
C42 C 0.44816 0.87721 0.63108 0.0
C43 C 0.45657 0.81982 0.59182 0.0
C44 C 0.45315 0.80593 0.65695 0.0
O45 O 0.46411 0.85921 0.63376 0.0
O46 O 0.42609 0.86993 0.62572 0.0
O47 O 0.46746 0.8069 0.64301 0.0
O48 O 0.43078 0.81514 0.65483 0.0
C49 C 0.39078 0.8039 0.62149 0.0
O50 O 0.46276 0.80541 0.60502 0.0
O51 O 0.44103 0.83776 0.59575 0.0
In52 In 0.17905 0.56571 0.37922 0.0
O53 O 0.17421 0.6099 0.37994 0.0
O54 O 0.20924 0.59404 0.36959 0.0
C55 C 0.13061 0.5484 0.38502 0.0
C56 C 0.20158 0.55298 0.41102 0.0
C57 C 0.18735 0.54575 0.34597 0.0
O58 O 0.13523 0.5719 0.3815 0.0
O59 O 0.15034 0.53414 0.38588 0.0
O60 O 0.20335 0.5428 0.35881 0.0
O61 O 0.16741 0.5586 0.35 0.0
C62 C 0.19629 0.61407 0.37312 0.0
O63 O 0.20342 0.53885 0.39706 0.0
O64 O 0.18887 0.57353 0.40876 0.0
In65 In 0.44131 0.18043 0.87442 0.0
O66 O 0.47118 0.181 0.89737 0.0
O67 O 0.44725 0.21396 0.89426 0.0
C68 C 0.46201 0.2041 0.845 0.0
C69 C 0.38977 0.18874 0.87633 0.0
C70 C 0.44781 0.12842 0.87213 0.0
O71 O 0.43832 0.20552 0.84891 0.0
O72 O 0.47544 0.19174 0.85638 0.0
O73 O 0.45527 0.14393 0.86005 0.0
O74 O 0.43601 0.13894 0.88519 0.0
C75 C 0.46479 0.20295 0.90328 0.0
O76 O 0.40402 0.18748 0.89023 0.0
O77 O 0.40131 0.1845 0.86147 0.0
In78 In 0.82692 0.42294 0.37092 0.0
O79 O 0.82864 0.37864 0.37008 0.0
O80 O 0.79249 0.3975 0.36556 0.0
C81 C 0.87583 0.43972 0.37511 0.0
C82 C 0.80742 0.43457 0.40383 0.0
C83 C 0.81777 0.44016 0.33709 0.0
O84 O 0.87056 0.41589 0.3738 0.0
O85 O 0.85656 0.45459 0.37434 0.0
O86 O 0.80692 0.45015 0.35086 0.0
O87 O 0.83316 0.42187 0.34054 0.0
C88 C 0.80472 0.37643 0.36669 0.0
O89 O 0.80258 0.4483 0.39 0.0
O90 O 0.82188 0.41538 0.40092 0.0
In91 In 0.56165 0.81919 0.8725 0.0
O92 O 0.53665 0.79531 0.89207 0.0
O93 O 0.56915 0.8158 0.90259 0.0
C94 C 0.54271 0.80759 0.83942 0.0
C95 C 0.60887 0.79787 0.86941 0.0
C96 C 0.54633 0.86892 0.87534 0.0
O97 O 0.53255 0.79872 0.85379 0.0
O98 O 0.56185 0.82226 0.84192 0.0
O99 O 0.56876 0.86286 0.87 0.0
O100 O 0.53197 0.85004 0.87925 0.0
C101 C 0.55007 0.8013 0.90585 0.0
O102 O 0.6059 0.82149 0.87343 0.0
O103 O 0.58815 0.78535 0.86717 0.0
In104 In 0.82023 0.56345 0.8723 0.0
O105 O 0.82399 0.60777 0.87199 0.0
O106 O 0.78765 0.59062 0.86555 0.0
C107 C 0.86878 0.54505 0.87512 0.0
C108 C 0.80115 0.5537 0.90566 0.0
C109 C 0.80887 0.54589 0.83888 0.0
O110 O 0.86414 0.56889 0.87301 0.0
O111 O 0.84898 0.53084 0.87612 0.0
O112 O 0.79578 0.53919 0.85268 0.0
O113 O 0.82759 0.56084 0.84216 0.0
C114 C 0.80058 0.6111 0.86752 0.0
O115 O 0.79596 0.53926 0.89224 0.0
O116 O 0.81597 0.5724 0.90214 0.0
In117 In 0.43495 0.81233 0.36947 0.0
O118 O 0.46491 0.79754 0.39013 0.0
O119 O 0.42586 0.8006 0.39856 0.0
C120 C 0.46234 0.79094 0.34212 0.0
C121 C 0.3859 0.79633 0.36496 0.0
C122 C 0.44256 0.86399 0.36607 0.0
O123 O 0.47313 0.8011 0.35578 0.0
O124 O 0.438 0.79088 0.34265 0.0
O125 O 0.44025 0.84921 0.35256 0.0
O126 O 0.43973 0.85299 0.38123 0.0
C127 C 0.44873 0.795 0.40285 0.0
O128 O 0.39126 0.81989 0.36771 0.0
O129 O 0.40512 0.78132 0.36456 0.0
In130 In 0.17766 0.42921 0.8723 0.0
O131 O 0.19981 0.45335 0.89334 0.0
O132 O 0.17189 0.42619 0.90268 0.0
C133 C 0.19393 0.44819 0.84029 0.0
C134 C 0.20171 0.38305 0.87184 0.0
C135 C 0.12773 0.44386 0.87012 0.0
O136 O 0.19911 0.45916 0.85525 0.0
O137 O 0.18062 0.4278 0.84158 0.0
O138 O 0.13426 0.42028 0.86975 0.0
O139 O 0.14629 0.45957 0.8714 0.0
C140 C 0.18835 0.44321 0.90676 0.0
O141 O 0.17731 0.38476 0.87243 0.0
O142 O 0.2135 0.4044 0.87149 0.0
In143 In 0.56388 0.1693 0.36821 0.0
O144 O 0.60813 0.16662 0.36759 0.0
O145 O 0.59033 0.20357 0.36463 0.0
C146 C 0.55044 0.11887 0.36723 0.0
C147 C 0.55547 0.18354 0.40294 0.0
C148 C 0.54044 0.18604 0.33767 0.0
O149 O 0.57085 0.12707 0.35975 0.0
O150 O 0.53723 0.13592 0.37516 0.0
O151 O 0.52958 0.18763 0.35306 0.0
O152 O 0.56266 0.1761 0.33786 0.0
C153 C 0.61105 0.1907 0.36528 0.0
O154 O 0.54264 0.19316 0.38992 0.0
O155 O 0.57225 0.1671 0.39829 0.0
In156 In 0.81839 0.44339 0.62611 0.0
O157 O 0.82323 0.39934 0.62834 0.0
O158 O 0.78818 0.41632 0.63761 0.0
C159 C 0.86833 0.45734 0.6229 0.0
C160 C 0.80028 0.44968 0.59199 0.0
C161 C 0.80476 0.47036 0.65591 0.0
O162 O 0.8616 0.43599 0.62984 0.0
O163 O 0.8499 0.47121 0.6173 0.0
O164 O 0.78942 0.46738 0.64268 0.0
O165 O 0.82668 0.46011 0.6539 0.0
C166 C 0.80106 0.39594 0.63519 0.0
O167 O 0.7977 0.46701 0.60397 0.0
O168 O 0.81169 0.42955 0.59732 0.0
In169 In 0.56132 0.82803 0.12667 0.0
O170 O 0.6056 0.8281 0.12524 0.0
O171 O 0.58556 0.79203 0.12516 0.0
C172 C 0.54597 0.87756 0.12763 0.0
C173 C 0.54458 0.81671 0.09301 0.0
C174 C 0.54904 0.81428 0.16081 0.0
O175 O 0.56963 0.87141 0.1266 0.0
O176 O 0.53044 0.85876 0.12837 0.0
O177 O 0.53633 0.80608 0.14724 0.0
O178 O 0.5675 0.82931 0.15701 0.0
C179 C 0.60701 0.80367 0.1247 0.0
O180 O 0.53426 0.80657 0.10693 0.0
O181 O 0.56287 0.83215 0.09631 0.0
In182 In 0.18075 0.55906 0.62816 0.0
O183 O 0.20528 0.53383 0.60923 0.0
O184 O 0.1717 0.55195 0.59843 0.0
C185 C 0.19985 0.54345 0.66041 0.0
C186 C 0.20326 0.60568 0.62415 0.0
C187 C 0.12992 0.54889 0.632 0.0
O188 O 0.19885 0.52865 0.64675 0.0
O189 O 0.19146 0.56601 0.65771 0.0
O190 O 0.13801 0.57052 0.62636 0.0
O191 O 0.14742 0.53289 0.63593 0.0
C192 C 0.19105 0.53771 0.59552 0.0
O193 O 0.18065 0.60338 0.63051 0.0
O194 O 0.21398 0.58469 0.61977 0.0
In195 In 0.43829 0.18873 0.12115 0.0
O196 O 0.46806 0.21018 0.10354 0.0
O197 O 0.43428 0.19498 0.09084 0.0
C198 C 0.45044 0.20049 0.15583 0.0
C199 C 0.391 0.20985 0.12066 0.0
C200 C 0.45339 0.13896 0.11892 0.0
O201 O 0.46309 0.20956 0.14254 0.0
O202 O 0.43204 0.18575 0.15151 0.0
O203 O 0.42982 0.14533 0.11899 0.0
O204 O 0.46901 0.1576 0.11979 0.0
C205 C 0.45523 0.20718 0.08905 0.0
O206 O 0.3943 0.18562 0.12004 0.0
O207 O 0.41151 0.22312 0.12152 0.0
H208 H 0.08327 0.42737 0.12072 0.0
H209 H 0.03914 0.44434 0.1181 0.0
H210 H 0.06864 0.52225 0.12094 0.0
H211 H 0.11267 0.50551 0.12346 0.0
H212 H 0.02711 0.51333 0.14427 0.0
H213 H 0.04966 0.50014 0.0814 0.0
H214 H 0.06509 0.47491 0.05506 0.0
H215 H 0.00235 0.4214 0.06185 0.0
H216 H 0.98672 0.44611 0.08841 0.0
H217 H 0.91248 0.58017 0.1213 0.0
H218 H 0.95704 0.56421 0.12039 0.0
H219 H 0.92896 0.48642 0.11259 0.0
H220 H 0.88449 0.50228 0.11315 0.0
H221 H 0.97011 0.49544 0.09141 0.0
H222 H 0.94766 0.50736 0.15419 0.0
H223 H 0.93195 0.53152 0.18095 0.0
H224 H 0.99437 0.58566 0.17525 0.0
H225 H 0.01015 0.56216 0.14821 0.0
C226 C 0.08031 0.4481 0.12071 0.0
C227 C 0.10136 0.46513 0.12228 0.0
C228 C 0.05516 0.45775 0.11917 0.0
C229 C 0.05072 0.48453 0.11926 0.0
C230 C 0.07171 0.50153 0.12085 0.0
C231 C 0.09683 0.49192 0.12223 0.0
C232 C 0.02414 0.49492 0.11806 0.0
C233 C 0.01473 0.50975 0.13261 0.0
C234 C 0.0079 0.48962 0.10304 0.0
C235 C 0.01716 0.47483 0.087 0.0
C236 C 0.03927 0.48287 0.07737 0.0
C237 C 0.04803 0.46869 0.06239 0.0
C238 C 0.03476 0.44653 0.05682 0.0
C239 C 0.01263 0.43855 0.0662 0.0
C240 C 0.0038 0.45265 0.0812 0.0
C241 C 0.91585 0.55971 0.11923 0.0
C242 C 0.89504 0.54245 0.1174 0.0
C243 C 0.94128 0.55061 0.11878 0.0
C244 C 0.94628 0.52407 0.11668 0.0
C245 C 0.92553 0.50695 0.11425 0.0
C246 C 0.90014 0.51605 0.11463 0.0
C247 C 0.97305 0.51399 0.11761 0.0
C248 C 0.98249 0.49913 0.10305 0.0
C249 C 0.98929 0.51908 0.13271 0.0
C250 C 0.97993 0.53315 0.14905 0.0
C251 C 0.95792 0.52454 0.15855 0.0
C252 C 0.94902 0.53809 0.17378 0.0
C253 C 0.96214 0.56011 0.17979 0.0
C254 C 0.98421 0.56862 0.17058 0.0
C255 C 0.99313 0.5552 0.15529 0.0
H256 H 0.95523 0.57056 0.19159 0.0
H257 H 0.04158 0.43558 0.04521 0.0
H258 H 0.42159 0.91995 0.61954 0.0
H259 H 0.43691 0.96485 0.61958 0.0
H260 H 0.50714 0.94096 0.6464 0.0
H261 H 0.492 0.89623 0.64642 0.0
H262 H 0.48798 0.98688 0.66017 0.0
H263 H 0.50727 0.94856 0.60177 0.0
H264 H 0.4965 0.92596 0.5732 0.0
H265 H 0.44463 0.98731 0.55851 0.0
H266 H 0.45481 0.0101 0.58716 0.0
H267 H 0.57262 0.09052 0.63923 0.0
H268 H 0.55369 0.04706 0.64014 0.0
H269 H 0.48488 0.07572 0.61383 0.0
H270 H 0.50356 0.11913 0.61296 0.0
H271 H 0.50128 0.02839 0.59995 0.0
H272 H 0.48424 0.06842 0.65707 0.0
H273 H 0.49586 0.09191 0.68499 0.0
H274 H 0.54234 0.0278 0.70253 0.0
H275 H 0.53186 0.0043 0.67424 0.0
C276 C 0.44011 0.92437 0.62567 0.0
C277 C 0.45569 0.90462 0.63285 0.0
C278 C 0.44887 0.94996 0.62562 0.0
C279 C 0.47328 0.95613 0.63281 0.0
C280 C 0.48827 0.93659 0.64077 0.0
C281 C 0.47963 0.91105 0.6407 0.0
C282 C 0.48399 0.98257 0.63114 0.0
C283 C 0.4911 0.99589 0.64702 0.0
C284 C 0.48758 0.99446 0.61397 0.0
C285 C 0.48157 0.98088 0.5967 0.0
C286 C 0.4934 0.95712 0.59252 0.0
C287 C 0.48743 0.9443 0.5763 0.0
C288 C 0.46983 0.95515 0.56407 0.0
C289 C 0.45822 0.9789 0.56801 0.0
C290 C 0.46409 0.99178 0.58423 0.0
C291 C 0.55357 0.08747 0.6335 0.0
C292 C 0.53948 0.10819 0.62614 0.0
C293 C 0.54277 0.0627 0.63406 0.0
C294 C 0.51781 0.0583 0.62719 0.0
C295 C 0.50414 0.07876 0.61921 0.0
C296 C 0.51481 0.10354 0.61881 0.0
C297 C 0.50549 0.03259 0.62897 0.0
C298 C 0.49806 0.01943 0.61312 0.0
C299 C 0.50155 0.0209 0.64617 0.0
C300 C 0.5075 0.0347 0.6634 0.0
C301 C 0.49716 0.0594 0.66677 0.0
C302 C 0.50352 0.07273 0.68269 0.0
C303 C 0.51977 0.06134 0.69559 0.0
C304 C 0.52975 0.03661 0.69253 0.0
C305 C 0.52368 0.0233 0.67651 0.0
H306 H 0.52461 0.07168 0.70794 0.0
H307 H 0.46524 0.9452 0.55152 0.0
H308 H 0.11729 0.49833 0.39122 0.0
H309 H 0.07399 0.47958 0.39143 0.0
H310 H 0.04093 0.55512 0.38276 0.0
H311 H 0.08442 0.57417 0.38257 0.0
H312 H 0.0137 0.52517 0.40841 0.0
H313 H 0.04755 0.51665 0.34763 0.0
H314 H 0.08013 0.50402 0.32477 0.0
H315 H 0.07325 0.42467 0.34123 0.0
H316 H 0.0409 0.43689 0.3644 0.0
H317 H 0.89056 0.49009 0.37603 0.0
H318 H 0.93407 0.50745 0.3795 0.0
H319 H 0.96469 0.43 0.38282 0.0
H320 H 0.92095 0.41237 0.37895 0.0
H321 H 0.99377 0.45973 0.36099 0.0
H322 H 0.95861 0.46746 0.42086 0.0
H323 H 0.92624 0.47975 0.44395 0.0
H324 H 0.93573 0.55975 0.42988 0.0
H325 H 0.96785 0.54793 0.40648 0.0
C326 C 0.10082 0.51104 0.38952 0.0
C327 C 0.10423 0.53772 0.38675 0.0
C328 C 0.0761 0.50026 0.38961 0.0
C329 C 0.05432 0.51592 0.38688 0.0
C330 C 0.05754 0.54272 0.38485 0.0
C331 C 0.08235 0.55355 0.3847 0.0
C332 C 0.02834 0.50406 0.38536 0.0
C333 C 0.00919 0.51109 0.39794 0.0
C334 C 0.0228 0.48517 0.37197 0.0
C335 C 0.04199 0.47773 0.35788 0.0
C336 C 0.05312 0.49653 0.34647 0.0
C337 C 0.07153 0.48945 0.33344 0.0
C338 C 0.0788 0.46357 0.33158 0.0
C339 C 0.06762 0.44471 0.34271 0.0
C340 C 0.04923 0.4517 0.35578 0.0
C341 C 0.90652 0.4767 0.37754 0.0
C342 C 0.90235 0.44985 0.3773 0.0
C343 C 0.93139 0.48668 0.37961 0.0
C344 C 0.95259 0.47005 0.38172 0.0
C345 C 0.94856 0.44318 0.38129 0.0
C346 C 0.92361 0.43314 0.37912 0.0
C347 C 0.97895 0.48089 0.38402 0.0
C348 C 0.99823 0.47369 0.37156 0.0
C349 C 0.98462 0.49954 0.39758 0.0
C350 C 0.96551 0.50677 0.4118 0.0
C351 C 0.95367 0.48767 0.42259 0.0
C352 C 0.93537 0.49454 0.43575 0.0
C353 C 0.9289 0.5205 0.43836 0.0
C354 C 0.94075 0.53964 0.42784 0.0
C355 C 0.95903 0.53287 0.41463 0.0
H356 H 0.91475 0.52579 0.44856 0.0
H357 H 0.09305 0.45813 0.3215 0.0
H358 H 0.56577 0.9114 0.85801 0.0
H359 H 0.54808 0.95527 0.85821 0.0
H360 H 0.48867 0.93104 0.89586 0.0
H361 H 0.50557 0.88695 0.89496 0.0
H362 H 0.4675 0.95908 0.87171 0.0
H363 H 0.54253 0.96979 0.90861 0.0
H364 H 0.58864 0.96697 0.91689 0.0
H365 H 0.60859 0.01513 0.87139 0.0
H366 H 0.56261 0.01796 0.86268 0.0
H367 H 0.43199 0.09018 0.89544 0.0
H368 H 0.44752 0.04534 0.89647 0.0
H369 H 0.49584 0.0598 0.84971 0.0
H370 H 0.48023 0.10435 0.84843 0.0
H371 H 0.52191 0.03718 0.87996 0.0
H372 H 0.44458 0.025 0.8438 0.0
H373 H 0.3978 0.02817 0.83771 0.0
H374 H 0.38169 0.98307 0.88546 0.0
H375 H 0.42839 0.97993 0.89198 0.0
C376 C 0.54907 0.91554 0.86643 0.0
C377 C 0.53703 0.89584 0.87646 0.0
C378 C 0.53902 0.94064 0.86661 0.0
C379 C 0.51718 0.94664 0.87724 0.0
C380 C 0.50545 0.92696 0.8875 0.0
C381 C 0.51518 0.90178 0.88703 0.0
C382 C 0.50601 0.97316 0.87717 0.0
C383 C 0.4794 0.97609 0.87382 0.0
C384 C 0.52145 0.99551 0.8797 0.0
C385 C 0.54913 0.99389 0.8849 0.0
C386 C 0.55676 0.97962 0.90029 0.0
C387 C 0.58287 0.97805 0.90507 0.0
C388 C 0.60153 0.99081 0.89465 0.0
C389 C 0.59411 0.00523 0.87944 0.0
C390 C 0.56803 0.00685 0.87459 0.0
C391 C 0.44564 0.08366 0.88524 0.0
C392 C 0.45489 0.10074 0.87185 0.0
C393 C 0.4545 0.0581 0.88585 0.0
C394 C 0.47287 0.04935 0.87319 0.0
C395 C 0.48173 0.06624 0.85963 0.0
C396 C 0.47268 0.09164 0.85887 0.0
C397 C 0.48364 0.02288 0.87438 0.0
C398 C 0.51013 0.02005 0.87796 0.0
C399 C 0.46802 0.00065 0.87244 0.0
C400 C 0.43996 0.00248 0.86848 0.0
C401 C 0.43105 0.01596 0.8531 0.0
C402 C 0.40455 0.01771 0.84954 0.0
C403 C 0.38678 0.00589 0.86122 0.0
C404 C 0.39548 0.99224 0.87644 0.0
C405 C 0.42196 0.99046 0.88006 0.0
H406 H 0.36628 0.00726 0.85844 0.0
H407 H 0.62174 0.98957 0.89838 0.0
H408 H 0.91474 0.57118 0.87322 0.0
H409 H 0.9583 0.55267 0.87222 0.0
H410 H 0.92599 0.47596 0.87629 0.0
H411 H 0.88253 0.49434 0.87767 0.0
H412 H 0.96753 0.47999 0.89729 0.0
H413 H 0.94673 0.50019 0.83538 0.0
H414 H 0.93264 0.52787 0.80992 0.0
H415 H 0.99696 0.57869 0.81923 0.0
H416 H 0.01124 0.5515 0.84493 0.0
H417 H 0.08343 0.41459 0.87042 0.0
H418 H 0.03864 0.43033 0.87082 0.0
H419 H 0.06625 0.50901 0.86931 0.0
H420 H 0.11077 0.49351 0.86875 0.0
H421 H 0.0263 0.50202 0.84619 0.0
H422 H 0.04602 0.48212 0.90887 0.0
H423 H 0.05992 0.45403 0.93416 0.0
H424 H 0.99733 0.40186 0.92291 0.0
H425 H 0.98326 0.42949 0.89738 0.0
C426 C 0.91696 0.55039 0.87401 0.0
C427 C 0.89523 0.53421 0.87545 0.0
C428 C 0.94183 0.53981 0.87334 0.0
C429 C 0.94539 0.51288 0.8739 0.0
C430 C 0.92373 0.49677 0.8758 0.0
C431 C 0.89889 0.50732 0.87655 0.0
C432 C 0.97165 0.50145 0.87232 0.0
C433 C 0.98025 0.48454 0.88598 0.0
C434 C 0.98839 0.50761 0.85768 0.0
C435 C 0.97991 0.52394 0.84219 0.0
C436 C 0.95776 0.51738 0.83208 0.0
C437 C 0.94976 0.53296 0.8176 0.0
C438 C 0.96386 0.55506 0.81299 0.0
C439 C 0.98604 0.56158 0.82283 0.0
C440 C 0.99411 0.54608 0.83735 0.0
C441 C 0.07989 0.43522 0.87008 0.0
C442 C 0.10059 0.45281 0.86961 0.0
C443 C 0.05434 0.44419 0.87039 0.0
C444 C 0.04913 0.47087 0.87026 0.0
C445 C 0.0698 0.48837 0.86941 0.0
C446 C 0.09525 0.47945 0.86915 0.0
C447 C 0.02225 0.4808 0.87125 0.0
C448 C 0.01353 0.49741 0.85745 0.0
C449 C 0.00538 0.47428 0.88571 0.0
C450 C 0.01376 0.45772 0.90109 0.0
C451 C 0.03535 0.46455 0.9117 0.0
C452 C 0.04324 0.44874 0.92609 0.0
C453 C 0.02956 0.42614 0.9301 0.0
C454 C 0.00793 0.41935 0.91976 0.0
C455 C -2e-05 0.43508 0.90534 0.0
H456 H 0.0357 0.41392 0.94125 0.0
H457 H 0.95764 0.5671 0.80177 0.0
H458 H 0.56263 0.08238 0.34166 0.0
H459 H 0.54539 0.03812 0.33954 0.0
H460 H 0.50249 0.04997 0.38919 0.0
H461 H 0.51889 0.09429 0.39107 0.0
H462 H 0.53476 0.00014 0.38452 0.0
H463 H 0.46873 0.05535 0.35658 0.0
H464 H 0.45449 0.08784 0.33416 0.0
H465 H 0.47984 0.03877 0.2905 0.0
H466 H 0.49462 0.00616 0.31272 0.0
H467 H 0.44556 0.90003 0.39301 0.0
H468 H 0.46508 0.94295 0.39123 0.0
H469 H 0.47977 0.93171 0.33393 0.0
H470 H 0.45961 0.88891 0.33555 0.0
H471 H 0.46566 0.98004 0.3398 0.0
H472 H 0.52803 0.92361 0.36468 0.0
H473 H 0.54648 0.89029 0.38483 0.0
H474 H 0.53386 0.93925 0.4312 0.0
H475 H 0.51497 0.97276 0.41134 0.0
C476 C 0.54968 0.0754 0.35217 0.0
C477 C 0.54201 0.09167 0.36651 0.0
C478 C 0.53983 0.05025 0.35092 0.0
C479 C 0.52267 0.04096 0.3642 0.0
C480 C 0.51572 0.05688 0.37883 0.0
C481 C 0.52504 0.08215 0.37986 0.0
C482 C 0.51127 0.01486 0.36272 0.0
C483 C 0.51951 0.99571 0.37487 0.0
C484 C 0.49215 0.00899 0.34962 0.0
C485 C 0.48308 0.02849 0.3363 0.0
C486 C 0.47152 0.05162 0.34221 0.0
C487 C 0.46329 0.07002 0.32954 0.0
C488 C 0.46634 0.06541 0.31092 0.0
C489 C 0.47754 0.04234 0.30493 0.0
C490 C 0.48584 0.02389 0.31755 0.0
C491 C 0.4526 0.90685 0.37998 0.0
C492 C 0.45117 0.8911 0.36444 0.0
C493 C 0.46393 0.93131 0.37899 0.0
C494 C 0.47442 0.94032 0.36253 0.0
C495 C 0.47193 0.92511 0.34679 0.0
C496 C 0.46038 0.90068 0.34774 0.0
C497 C 0.4886 0.96527 0.36199 0.0
C498 C 0.48101 0.98425 0.34942 0.0
C499 C 0.50881 0.97079 0.37443 0.0
C500 C 0.51988 0.95062 0.38652 0.0
C501 C 0.52897 0.92719 0.37919 0.0
C502 C 0.53955 0.90829 0.39056 0.0
C503 C 0.54134 0.91266 0.40928 0.0
C504 C 0.53248 0.93591 0.41668 0.0
C505 C 0.52184 0.95488 0.40538 0.0
H506 H 0.54966 0.89804 0.41803 0.0
H507 H 0.45995 0.07968 0.30113 0.0
H508 H 0.91093 0.43309 0.63678 0.0
H509 H 0.95509 0.45002 0.63839 0.0
H510 H 0.93085 0.51916 0.61036 0.0
H511 H 0.88677 0.50226 0.60853 0.0
H512 H 0.97703 0.50204 0.59783 0.0
H513 H 0.93824 0.51978 0.65577 0.0
H514 H 0.915 0.5092 0.68412 0.0
H515 H 0.97568 0.45691 0.69944 0.0
H516 H 0.99911 0.46689 0.67103 0.0
H517 H 0.08857 0.57656 0.6193 0.0
H518 H 0.04327 0.56257 0.61818 0.0
H519 H 0.06383 0.4913 0.64502 0.0
H520 H 0.10893 0.50517 0.64627 0.0
H521 H 0.0188 0.51134 0.6583 0.0
H522 H 0.05669 0.49247 0.59985 0.0
H523 H 0.0799 0.50296 0.57146 0.0
H524 H 0.02077 0.55757 0.55717 0.0
H525 H 0.99739 0.54767 0.58563 0.0
C526 C 0.91508 0.45178 0.63081 0.0
C527 C 0.8954 0.46641 0.6226 0.0
C528 C 0.94026 0.46149 0.63183 0.0
C529 C 0.94614 0.48602 0.62473 0.0
C530 C 0.9267 0.50024 0.61597 0.0
C531 C 0.90153 0.49057 0.61497 0.0
C532 C 0.97242 0.49709 0.62677 0.0
C533 C 0.98603 0.50441 0.61106 0.0
C534 C 0.98428 0.49982 0.64403 0.0
C535 C 0.97031 0.4939 0.66118 0.0
C536 C 0.94653 0.50587 0.66512 0.0
C537 C 0.93334 0.50001 0.68121 0.0
C538 C 0.94382 0.48235 0.69356 0.0
C539 C 0.96756 0.47056 0.68985 0.0
C540 C 0.98082 0.47633 0.67376 0.0
C541 C 0.08334 0.55806 0.62514 0.0
C542 C 0.10227 0.54189 0.63277 0.0
C543 C 0.05752 0.55004 0.62442 0.0
C544 C 0.05029 0.52576 0.63132 0.0
C545 C 0.06901 0.51008 0.63959 0.0
C546 C 0.09478 0.51801 0.64024 0.0
C547 C 0.02345 0.51613 0.62936 0.0
C548 C 0.00973 0.50908 0.64507 0.0
C549 C 0.01149 0.51366 0.61212 0.0
C550 C 0.02544 0.51954 0.59496 0.0
C551 C 0.04875 0.50687 0.59072 0.0
C552 C 0.06191 0.51268 0.57461 0.0
C553 C 0.05185 0.53097 0.56254 0.0
C554 C 0.02856 0.54344 0.56655 0.0
C555 C 0.01534 0.53773 0.58266 0.0
H556 H 0.06207 0.53544 0.55007 0.0
H557 H 0.93358 0.47784 0.70601 0.0
H558 H 0.42407 0.09498 0.1208 0.0
H559 H 0.43963 0.05022 0.12187 0.0
H560 H 0.51832 0.07726 0.11751 0.0
H561 H 0.50296 0.12187 0.11632 0.0
H562 H 0.50948 0.03556 0.09576 0.0
H563 H 0.49477 0.05993 0.15813 0.0
H564 H 0.46927 0.07647 0.18399 0.0
H565 H 0.41441 0.01493 0.17713 0.0
H566 H 0.43943 0.99818 0.15105 0.0
H567 H 0.57483 0.92169 0.12428 0.0
H568 H 0.55888 0.96625 0.12259 0.0
H569 H 0.48053 0.93875 0.12837 0.0
H570 H 0.4963 0.89435 0.13028 0.0
H571 H 0.48888 0.98063 0.14922 0.0
H572 H 0.50369 0.95591 0.08708 0.0
H573 H 0.52905 0.93933 0.06116 0.0
H574 H 0.58341 0.00146 0.06741 0.0
H575 H 0.55856 0.01821 0.09356 0.0
C576 C 0.44466 0.09133 0.11995 0.0
C577 C 0.46232 0.11188 0.11856 0.0
C578 C 0.45352 0.06581 0.12064 0.0
C579 C 0.48015 0.0605 0.11997 0.0
C580 C 0.49771 0.08096 0.11807 0.0
C581 C 0.4889 0.10643 0.11745 0.0
C582 C 0.48984 0.03367 0.12159 0.0
C583 C 0.50523 0.02362 0.10754 0.0
C584 C 0.48386 0.018 0.13681 0.0
C585 C 0.46883 0.02797 0.15252 0.0
C586 C 0.47716 0.05005 0.16204 0.0
C587 C 0.46281 0.05944 0.17676 0.0
C588 C 0.44019 0.04682 0.18217 0.0
C589 C 0.43192 0.02471 0.17291 0.0
C590 C 0.44618 0.01525 0.15817 0.0
C591 C 0.55423 0.9252 0.12527 0.0
C592 C 0.5368 0.90457 0.12735 0.0
C593 C 0.54514 0.95061 0.12423 0.0
C594 C 0.51849 0.95575 0.12515 0.0
C595 C 0.50115 0.9352 0.12761 0.0
C596 C 0.5102 0.90985 0.12865 0.0
C597 C 0.50855 0.98249 0.12339 0.0
C598 C 0.49311 0.99253 0.13743 0.0
C599 C 0.51446 0.99815 0.10815 0.0
C600 C 0.52941 0.98816 0.0924 0.0
C601 C 0.52116 0.96592 0.08303 0.0
C602 C 0.53543 0.95651 0.06827 0.0
C603 C 0.55787 0.96929 0.06267 0.0
C604 C 0.56605 0.99155 0.07178 0.0
C605 C 0.55187 0.00102 0.08656 0.0
H606 H 0.56888 0.96198 0.05124 0.0
H607 H 0.42912 0.05412 0.19357 0.0
H608 H 0.15143 0.5404 0.31939 0.0
H609 H 0.15769 0.5235 0.28866 0.0
H610 H 0.23857 0.51107 0.29991 0.0
H611 H 0.23236 0.52769 0.33099 0.0
H612 H 0.22445 0.53804 0.26477 0.0
H613 H 0.20742 0.46074 0.29933 0.0
H614 H 0.18328 0.43472 0.32176 0.0
H615 H 0.11444 0.44158 0.28947 0.0
H616 H 0.13807 0.46799 0.26699 0.0
H617 H 0.23118 0.47267 0.17817 0.0
H618 H 0.23771 0.48577 0.20998 0.0
H619 H 0.15543 0.4802 0.21936 0.0
H620 H 0.14915 0.46593 0.18809 0.0
H621 H 0.17832 0.45842 0.24569 0.0
H622 H 0.19034 0.53968 0.21421 0.0
H623 H 0.21061 0.56941 0.19216 0.0
H624 H 0.28418 0.55894 0.21821 0.0
H625 H 0.26438 0.52889 0.24029 0.0
C626 C 0.17056 0.53406 0.31535 0.0
C627 C 0.19142 0.53527 0.32755 0.0
C628 C 0.17408 0.52442 0.29782 0.0
C629 C 0.19855 0.51604 0.29212 0.0
C630 C 0.21956 0.51749 0.30414 0.0
C631 C 0.21596 0.52683 0.32185 0.0
C632 C 0.20167 0.50555 0.27357 0.0
C633 C 0.2149 0.52033 0.26057 0.0
C634 C 0.18863 0.48282 0.2682 0.0
C635 C 0.1745 0.46647 0.28152 0.0
C636 C 0.1871 0.45683 0.29707 0.0
C637 C 0.17351 0.442 0.30979 0.0
C638 C 0.14733 0.43654 0.30706 0.0
C639 C 0.13472 0.44582 0.29157 0.0
C640 C 0.14821 0.46069 0.27882 0.0
C641 C 0.21456 0.47446 0.18707 0.0
C642 C 0.18969 0.46825 0.18078 0.0
C643 C 0.21827 0.48199 0.2052 0.0
C644 C 0.19704 0.48408 0.21709 0.0
C645 C 0.17216 0.4785 0.21055 0.0
C646 C 0.16855 0.47046 0.19265 0.0
C647 C 0.20034 0.4914 0.23651 0.0
C648 C 0.18835 0.47591 0.24978 0.0
C649 C 0.21404 0.5138 0.24202 0.0
C650 C 0.22595 0.5318 0.22874 0.0
C651 C 0.21088 0.54356 0.21514 0.0
C652 C 0.22227 0.56049 0.20266 0.0
C653 C 0.24868 0.56599 0.20374 0.0
C654 C 0.26374 0.55462 0.21735 0.0
C655 C 0.25244 0.53764 0.22986 0.0
H656 H 0.25747 0.57911 0.19407 0.0
H657 H 0.13683 0.42509 0.31694 0.0
H658 H 0.55862 0.17038 0.69289 0.0
H659 H 0.54148 0.1778 0.72324 0.0
H660 H 0.49134 0.23743 0.70232 0.0
H661 H 0.50881 0.23022 0.67154 0.0
H662 H 0.51444 0.25194 0.73442 0.0
H663 H 0.46554 0.18045 0.71344 0.0
H664 H 0.45559 0.13794 0.69996 0.0
H665 H 0.50062 0.10042 0.74131 0.0
H666 H 0.51117 0.14272 0.75492 0.0
H667 H 0.43813 0.23398 0.8193 0.0
H668 H 0.45157 0.23966 0.78749 0.0
H669 H 0.52143 0.19692 0.79828 0.0
H670 H 0.50852 0.19165 0.83008 0.0
H671 H 0.48209 0.17718 0.7701 0.0
H672 H 0.53306 0.25116 0.78923 0.0
H673 H 0.53902 0.294 0.80332 0.0
H674 H 0.48551 0.32718 0.76524 0.0
H675 H 0.47893 0.28439 0.75109 0.0
C676 C 0.54392 0.18509 0.69465 0.0
C677 C 0.53496 0.19964 0.67979 0.0
C678 C 0.53406 0.18923 0.71204 0.0
C679 C 0.51485 0.20788 0.715 0.0
C680 C 0.50607 0.22284 0.70028 0.0
C681 C 0.51599 0.21866 0.68274 0.0
C682 C 0.50439 0.21149 0.73363 0.0
C683 C 0.50689 0.23571 0.74212 0.0
C684 C 0.49466 0.19028 0.74371 0.0
C685 C 0.48924 0.16482 0.73516 0.0
C686 C 0.47358 0.16317 0.71955 0.0
C687 C 0.46776 0.1391 0.71192 0.0
C688 C 0.47739 0.1165 0.71983 0.0
C689 C 0.49311 0.11794 0.73525 0.0
C690 C 0.49899 0.14196 0.74293 0.0
C691 C 0.45671 0.22647 0.81501 0.0
C692 C 0.47222 0.21224 0.82712 0.0
C693 C 0.46433 0.22976 0.79687 0.0
C694 C 0.48741 0.21864 0.79063 0.0
C695 C 0.50359 0.2057 0.80293 0.0
C696 C 0.4962 0.20276 0.82109 0.0
C697 C 0.49303 0.21726 0.77095 0.0
C698 C 0.48941 0.19342 0.76229 0.0
C699 C 0.50134 0.23884 0.76074 0.0
C700 C 0.50522 0.26451 0.76927 0.0
C701 C 0.52231 0.26752 0.78401 0.0
C702 C 0.52587 0.29181 0.79196 0.0
C703 C 0.51258 0.31328 0.78523 0.0
C704 C 0.49575 0.31051 0.77048 0.0
C705 C 0.49211 0.28625 0.76248 0.0
H706 H 0.51538 0.33208 0.7914 0.0
H707 H 0.47258 0.09786 0.71406 0.0
H708 H 0.83377 0.56144 0.18885 0.0
H709 H 0.83082 0.54128 0.21877 0.0
H710 H 0.77805 0.48425 0.1974 0.0
H711 H 0.78069 0.50462 0.16725 0.0
H712 H 0.76368 0.5014 0.23165 0.0
H713 H 0.83884 0.46766 0.20246 0.0
H714 H 0.88002 0.46943 0.18557 0.0
H715 H 0.91469 0.51261 0.22911 0.0
H716 H 0.87358 0.51142 0.24617 0.0
H717 H 0.83309 0.41662 0.30588 0.0
H718 H 0.8273 0.43175 0.27471 0.0
H719 H 0.78706 0.4992 0.29458 0.0
H720 H 0.79218 0.48369 0.3259 0.0
H721 H 0.84618 0.47238 0.25941 0.0
H722 H 0.74497 0.52096 0.26226 0.0
H723 H 0.70321 0.51514 0.27797 0.0
H724 H 0.71939 0.43436 0.28515 0.0
H725 H 0.76107 0.43962 0.26926 0.0
C726 C 0.82138 0.54471 0.19051 0.0
C727 C 0.80763 0.53444 0.17569 0.0
C728 C 0.81975 0.53321 0.20761 0.0
C729 C 0.8045 0.5111 0.21021 0.0
C730 C 0.78997 0.5013 0.19562 0.0
C731 C 0.79157 0.51286 0.17844 0.0
C732 C 0.80483 0.49773 0.22801 0.0
C733 C 0.78166 0.49497 0.23776 0.0
C734 C 0.82825 0.48886 0.23572 0.0
C735 C 0.85306 0.48961 0.22553 0.0
C736 C 0.85518 0.47771 0.20838 0.0
C737 C 0.87852 0.47858 0.19878 0.0
C738 C 0.89995 0.49114 0.20626 0.0
C739 C 0.89807 0.50288 0.22334 0.0
C740 C 0.87476 0.50209 0.23299 0.0
C741 C 0.82282 0.43458 0.30361 0.0
C742 C 0.81316 0.44905 0.3183 0.0
C743 C 0.81954 0.44321 0.28579 0.0
C744 C 0.80665 0.46654 0.28228 0.0
C745 C 0.7967 0.48092 0.29693 0.0
C746 C 0.79976 0.47214 0.31481 0.0
C747 C 0.80507 0.47643 0.26336 0.0
C748 C 0.8281 0.47864 0.25337 0.0
C749 C 0.78143 0.48418 0.25531 0.0
C750 C 0.75626 0.48076 0.26472 0.0
C751 C 0.73957 0.50194 0.26712 0.0
C752 C 0.71592 0.49874 0.27607 0.0
C753 C 0.70869 0.47442 0.2826 0.0
C754 C 0.72506 0.45322 0.28015 0.0
C755 C 0.74872 0.4563 0.27119 0.0
H756 H 0.69037 0.47199 0.28954 0.0
H757 H 0.91802 0.49169 0.19885 0.0
H758 H 0.56853 0.81457 0.80777 0.0
H759 H 0.55264 0.80791 0.77693 0.0
H760 H 0.47959 0.7812 0.79823 0.0
H761 H 0.49585 0.78708 0.82942 0.0
H762 H 0.49328 0.75366 0.76851 0.0
H763 H 0.48561 0.84273 0.7835 0.0
H764 H 0.49957 0.88535 0.79488 0.0
H765 H 0.55725 0.88956 0.75292 0.0
H766 H 0.5439 0.84676 0.74144 0.0
H767 H 0.42425 0.7924 0.68644 0.0
H768 H 0.43968 0.78532 0.71758 0.0
H769 H 0.51839 0.79464 0.69933 0.0
H770 H 0.50315 0.8012 0.66808 0.0
H771 H 0.49953 0.82998 0.7278 0.0
H772 H 0.50428 0.73929 0.71282 0.0
H773 H 0.48681 0.69782 0.70175 0.0
H774 H 0.42949 0.69866 0.74405 0.0
H775 H 0.44638 0.74037 0.75522 0.0
C776 C 0.54913 0.80711 0.80592 0.0
C777 C 0.53326 0.80167 0.82096 0.0
C778 C 0.54006 0.80333 0.78828 0.0
C779 C 0.51473 0.79461 0.78528 0.0
C780 C 0.49916 0.78808 0.80027 0.0
C781 C 0.5084 0.79153 0.81803 0.0
C782 C 0.5044 0.79372 0.76647 0.0
C783 C 0.49433 0.77042 0.75967 0.0
C784 C 0.50585 0.81559 0.75491 0.0
C785 C 0.5139 0.84141 0.76171 0.0
C786 C 0.50141 0.85265 0.77678 0.0
C787 C 0.50919 0.87685 0.78324 0.0
C788 C 0.52932 0.89013 0.77465 0.0
C789 C 0.54168 0.87924 0.75957 0.0
C790 C 0.534 0.85502 0.75307 0.0
C791 C 0.44487 0.79234 0.68902 0.0
C792 C 0.46253 0.79749 0.67492 0.0
C793 C 0.45363 0.78822 0.70676 0.0
C794 C 0.48012 0.7895 0.71067 0.0
C795 C 0.49786 0.7935 0.69649 0.0
C796 C 0.48915 0.79718 0.67869 0.0
C797 C 0.48903 0.78982 0.72976 0.0
C798 C 0.49859 0.81319 0.73664 0.0
C799 C 0.48654 0.76821 0.7414 0.0
C800 C 0.47642 0.74311 0.73474 0.0
C801 C 0.48778 0.73078 0.71966 0.0
C802 C 0.47803 0.70719 0.71339 0.0
C803 C 0.45701 0.69565 0.72216 0.0
C804 C 0.44575 0.70764 0.73725 0.0
C805 C 0.45542 0.73124 0.74357 0.0
H806 H 0.44948 0.67739 0.71728 0.0
H807 H 0.53532 0.90887 0.77967 0.0
H808 H 0.7647 0.52222 0.82651 0.0
H809 H 0.75366 0.51226 0.79474 0.0
H810 H 0.82771 0.542 0.77746 0.0
H811 H 0.83846 0.55247 0.80884 0.0
H812 H 0.79101 0.55993 0.75616 0.0
H813 H 0.81442 0.47605 0.78133 0.0
H814 H 0.80991 0.43937 0.80256 0.0
H815 H 0.73163 0.42776 0.78488 0.0
H816 H 0.7356 0.4646 0.76369 0.0
H817 H 0.83691 0.49412 0.67957 0.0
H818 H 0.82639 0.51091 0.70976 0.0
H819 H 0.7462 0.49113 0.70163 0.0
H820 H 0.75658 0.47481 0.67098 0.0
H821 H 0.77215 0.47083 0.73498 0.0
H822 H 0.75462 0.5498 0.70427 0.0
H823 H 0.76242 0.58503 0.68234 0.0
H824 H 0.83282 0.60483 0.70999 0.0
H825 H 0.82567 0.56946 0.73193 0.0
C826 C 0.77861 0.52645 0.81589 0.0
C827 C 0.80243 0.5381 0.82011 0.0
C828 C 0.77229 0.52079 0.79778 0.0
C829 C 0.78986 0.52642 0.78372 0.0
C830 C 0.81373 0.53773 0.78804 0.0
C831 C 0.81993 0.54356 0.80601 0.0
C832 C 0.78395 0.52055 0.7644 0.0
C833 C 0.78682 0.54045 0.75154 0.0
C834 C 0.77757 0.49534 0.75839 0.0
C835 C 0.77518 0.47327 0.77113 0.0
C836 C 0.79618 0.46581 0.7821 0.0
C837 C 0.79373 0.44497 0.79409 0.0
C838 C 0.77046 0.43131 0.79512 0.0
C839 C 0.74961 0.43841 0.78411 0.0
C840 C 0.75195 0.45925 0.7721 0.0
C841 C 0.81696 0.49379 0.68408 0.0
C842 C 0.79753 0.48324 0.67302 0.0
C843 C 0.81097 0.5034 0.70128 0.0
C844 C 0.78554 0.50226 0.70784 0.0
C845 C 0.76591 0.49223 0.69671 0.0
C846 C 0.77182 0.48307 0.67924 0.0
C847 C 0.78042 0.50996 0.72685 0.0
C848 C 0.77549 0.49046 0.73965 0.0
C849 C 0.78527 0.53545 0.73282 0.0
C850 C 0.78964 0.55688 0.71972 0.0
C851 C 0.77187 0.56154 0.70561 0.0
C852 C 0.77616 0.58156 0.69318 0.0
C853 C 0.79811 0.59714 0.69476 0.0
C854 C 0.81581 0.59275 0.70879 0.0
C855 C 0.81162 0.57275 0.72125 0.0
H856 H 0.8014 0.61263 0.68513 0.0
H857 H 0.76861 0.41517 0.80441 0.0
H858 H 0.51299 0.80039 0.33393 0.0
H859 H 0.53299 0.79724 0.30378 0.0
H860 H 0.46347 0.76234 0.28262 0.0
H861 H 0.44341 0.76533 0.31266 0.0
H862 H 0.50904 0.74313 0.26616 0.0
H863 H 0.46783 0.82458 0.28093 0.0
H864 H 0.46079 0.8629 0.3003 0.0
H865 H 0.54022 0.88502 0.29339 0.0
H866 H 0.54785 0.84653 0.27425 0.0
H867 H 0.50893 0.78455 0.17339 0.0
H868 H 0.49855 0.77462 0.20521 0.0
H869 H 0.56538 0.81793 0.22275 0.0
H870 H 0.57557 0.82821 0.19116 0.0
H871 H 0.52413 0.83136 0.24178 0.0
H872 H 0.56451 0.75185 0.22448 0.0
H873 H 0.57168 0.71298 0.20571 0.0
H874 H 0.49452 0.68701 0.21724 0.0
H875 H 0.48676 0.72593 0.23587 0.0
C876 C 0.50228 0.79131 0.32299 0.0
C877 C 0.47653 0.78348 0.32552 0.0
C878 C 0.5137 0.78957 0.30579 0.0
C879 C 0.4995 0.77996 0.29096 0.0
C880 C 0.47469 0.76987 0.29389 0.0
C881 C 0.46323 0.77171 0.31104 0.0
C882 C 0.50878 0.78387 0.27212 0.0
C883 C 0.51228 0.76237 0.26075 0.0
C884 C 0.5132 0.80902 0.26522 0.0
C885 C 0.50848 0.83253 0.27633 0.0
C886 C 0.48383 0.83753 0.28364 0.0
C887 C 0.47973 0.85928 0.29458 0.0
C888 C 0.50006 0.87635 0.29812 0.0
C889 C 0.5245 0.87175 0.29067 0.0
C890 C 0.52873 0.84997 0.27978 0.0
C891 C 0.52145 0.7918 0.18405 0.0
C892 C 0.54299 0.80722 0.17981 0.0
C893 C 0.5156 0.78601 0.2022 0.0
C894 C 0.53133 0.79538 0.21635 0.0
C895 C 0.55298 0.81051 0.21207 0.0
C896 C 0.55878 0.81635 0.194 0.0
C897 C 0.52458 0.79058 0.23567 0.0
C898 C 0.5213 0.81202 0.24716 0.0
C899 C 0.52038 0.76538 0.24262 0.0
C900 C 0.52498 0.74194 0.23143 0.0
C901 C 0.549 0.73796 0.22289 0.0
C902 C 0.55318 0.7159 0.21229 0.0
C903 C 0.53354 0.69757 0.21024 0.0
C904 C 0.5097 0.70124 0.21882 0.0
C905 C 0.50541 0.72328 0.22941 0.0
H906 H 0.53682 0.68049 0.20204 0.0
H907 H 0.49685 0.89316 0.3066 0.0
H908 H 0.19212 0.42403 0.80745 0.0
H909 H 0.20234 0.44233 0.77765 0.0
H910 H 0.22365 0.51445 0.80305 0.0
H911 H 0.21362 0.49614 0.83305 0.0
H912 H 0.18759 0.5194 0.77491 0.0
H913 H 0.26982 0.47972 0.78468 0.0
H914 H 0.29963 0.44431 0.79266 0.0
H915 H 0.27094 0.39919 0.74795 0.0
H916 H 0.24066 0.43417 0.73985 0.0
H917 H 0.21374 0.57329 0.68929 0.0
H918 H 0.22196 0.55901 0.72048 0.0
H919 H 0.21134 0.47966 0.70387 0.0
H920 H 0.20421 0.49382 0.67249 0.0
H921 H 0.24733 0.48198 0.72905 0.0
H922 H 0.16127 0.51645 0.7222 0.0
H923 H 0.12884 0.54949 0.71419 0.0
H924 H 0.16172 0.60157 0.75339 0.0
H925 H 0.19458 0.56893 0.76147 0.0
C926 C 0.19927 0.44369 0.80672 0.0
C927 C 0.20199 0.45872 0.82253 0.0
C928 C 0.20525 0.45405 0.7897 0.0
C929 C 0.21393 0.47965 0.7882 0.0
C930 C 0.2171 0.4946 0.80399 0.0
C931 C 0.21139 0.48413 0.82107 0.0
C932 C 0.21748 0.4913 0.76999 0.0
C933 C 0.20109 0.51166 0.76499 0.0
C934 C 0.23455 0.48059 0.75697 0.0
C935 C 0.25283 0.45953 0.76174 0.0
C936 C 0.26971 0.46217 0.77663 0.0
C937 C 0.28673 0.44218 0.78116 0.0
C938 C 0.28715 0.4195 0.77084 0.0
C939 C 0.27059 0.41677 0.75594 0.0
C940 C 0.25352 0.43669 0.75136 0.0
C941 C 0.2136 0.55278 0.69226 0.0
C942 C 0.20804 0.53465 0.67857 0.0
C943 C 0.21821 0.54465 0.71008 0.0
C944 C 0.21664 0.51832 0.71459 0.0
C945 C 0.21255 0.50009 0.70071 0.0
C946 C 0.2084 0.50819 0.68281 0.0
C947 C 0.21718 0.5099 0.73389 0.0
C948 C 0.23421 0.49008 0.73906 0.0
C949 C 0.20036 0.52078 0.74705 0.0
C950 C 0.18055 0.54038 0.74228 0.0
C951 C 0.16169 0.53502 0.72902 0.0
C952 C 0.14322 0.55366 0.72448 0.0
C953 C 0.14327 0.57765 0.73324 0.0
C954 C 0.16174 0.58301 0.74659 0.0
C955 C 0.18029 0.56444 0.75116 0.0
H956 H 0.12896 0.59206 0.7297 0.0
H957 H 0.30033 0.40404 0.77437 0.0
H958 H 0.56475 0.19921 0.30638 0.0
H959 H 0.54513 0.20876 0.27688 0.0
H960 H 0.46919 0.2001 0.3004 0.0
H961 H 0.48882 0.19105 0.33023 0.0
H962 H 0.48092 0.16857 0.26836 0.0
H963 H 0.4837 0.25683 0.2883 0.0
H964 H 0.50424 0.29578 0.30116 0.0
H965 H 0.55892 0.2968 0.25716 0.0
H966 H 0.53895 0.25761 0.24417 0.0
H967 H 0.41967 0.193 0.18526 0.0
H968 H 0.43136 0.1971 0.2173 0.0
H969 H 0.50782 0.22251 0.20193 0.0
H970 H 0.49582 0.21931 0.1697 0.0
H971 H 0.49229 0.24796 0.23126 0.0
H972 H 0.49569 0.15932 0.21322 0.0
H973 H 0.47959 0.11866 0.19991 0.0
H974 H 0.41888 0.11586 0.23977 0.0
H975 H 0.43442 0.15679 0.25316 0.0
C976 C 0.54386 0.19974 0.30534 0.0
C977 C 0.52825 0.19433 0.32052 0.0
C978 C 0.53271 0.2053 0.28852 0.0
C979 C 0.50577 0.20522 0.28653 0.0
C980 C 0.49005 0.20037 0.30175 0.0
C981 C 0.50124 0.19528 0.31873 0.0
C982 C 0.4944 0.20793 0.26818 0.0
C983 C 0.48279 0.18612 0.26037 0.0
C984 C 0.49794 0.2305 0.25761 0.0
C985 C 0.50993 0.25415 0.26534 0.0
C986 C 0.50024 0.26522 0.28144 0.0
C987 C 0.51175 0.28738 0.28874 0.0
C988 C 0.5329 0.29873 0.28 0.0
C989 C 0.54254 0.28798 0.26392 0.0
C990 C 0.53111 0.26581 0.25657 0.0
C991 C 0.43889 0.19975 0.18871 0.0
C992 C 0.45697 0.20555 0.17503 0.0
C993 C 0.44556 0.20202 0.20702 0.0
C994 C 0.47064 0.20955 0.21202 0.0
C995 C 0.48838 0.21656 0.19838 0.0
C996 C 0.48155 0.21467 0.17999 0.0
C997 C 0.47875 0.20856 0.23139 0.0
C998 C 0.48995 0.23056 0.23934 0.0
C999 C 0.47541 0.18593 0.24202 0.0
C1000 C 0.46603 0.16128 0.23405 0.0
C1001 C 0.47877 0.15015 0.21905 0.0
C1002 C 0.46977 0.12703 0.21151 0.0
C1003 C 0.44817 0.11471 0.21895 0.0
C1004 C 0.43557 0.12546 0.23399 0.0
C1005 C 0.44448 0.14861 0.24157 0.0
H1006 H 0.44123 0.0968 0.21309 0.0
H1007 H 0.54179 0.31588 0.28567 0.0
H1008 H 0.22536 0.47639 0.91998 0.0
H1009 H 0.23341 0.48748 0.95204 0.0
H1010 H 0.17078 0.43742 0.96832 0.0
H1011 H 0.16265 0.42643 0.93663 0.0
H1012 H 0.1689 0.48325 0.98602 0.0
H1013 H 0.2323 0.41718 0.97095 0.0
H1014 H 0.26907 0.39942 0.95359 0.0
H1015 H 0.3163 0.46356 0.97014 0.0
H1016 H 0.27964 0.48185 0.98742 0.0
H1017 H 0.18811 0.41689 0.06654 0.0
H1018 H 0.19558 0.42684 0.0346 0.0
H1019 H 0.22664 0.5013 0.04931 0.0
H1020 H 0.21886 0.49159 0.08171 0.0
H1021 H 0.25054 0.45705 0.01633 0.0
H1022 H 0.18384 0.51956 0.0353 0.0
H1023 H 0.14557 0.53088 0.05373 0.0
H1024 H 0.10341 0.46772 0.03007 0.0
H1025 H 0.1416 0.45582 0.01171 0.0
C1026 C 0.2133 0.46787 0.93044 0.0
C1027 C 0.19342 0.45051 0.92584 0.0
C1028 C 0.21793 0.4742 0.9487 0.0
C1029 C 0.20266 0.46328 0.96253 0.0
C1030 C 0.18266 0.44621 0.95786 0.0
C1031 C 0.17813 0.43983 0.93974 0.0
C1032 C 0.20754 0.46869 0.98201 0.0
C1033 C 0.18695 0.47802 0.99258 0.0
C1034 C 0.23115 0.46207 0.99057 0.0
C1035 C 0.25316 0.45106 0.98025 0.0
C1036 C 0.25046 0.4276 0.97075 0.0
C1037 C 0.27129 0.41742 0.96095 0.0
C1038 C 0.29498 0.43041 0.9607 0.0
C1039 C 0.29792 0.45356 0.9703 0.0
C1040 C 0.27713 0.46384 0.9801 0.0
C1041 C 0.19686 0.43528 0.06309 0.0
C1042 C 0.20263 0.45361 0.07661 0.0
C1043 C 0.20123 0.44085 0.04483 0.0
C1044 C 0.21155 0.46478 0.0397 0.0
C1045 C 0.21869 0.4827 0.05313 0.0
C1046 C 0.2142 0.47716 0.07155 0.0
C1047 C 0.21184 0.47134 0.02018 0.0
C1048 C 0.2331 0.46376 0.00961 0.0
C1049 C 0.18877 0.47929 0.01156 0.0
C1050 C 0.16561 0.48673 0.02225 0.0
C1051 C 0.16646 0.508 0.03414 0.0
C1052 C 0.14478 0.51453 0.04455 0.0
C1053 C 0.12209 0.5 0.0431 0.0
C1054 C 0.121 0.47896 0.03119 0.0
C1055 C 0.14264 0.47234 0.02076 0.0
H1056 H 0.10534 0.50508 0.05119 0.0
H1057 H 0.31109 0.42249 0.95311 0.0
H1058 H 0.58165 0.16508 0.43208 0.0
H1059 H 0.57346 0.17343 0.46415 0.0
H1060 H 0.5111 0.22499 0.45 0.0
H1061 H 0.51933 0.21674 0.41748 0.0
H1062 H 0.54399 0.24347 0.47895 0.0
H1063 H 0.49364 0.16949 0.46467 0.0
H1064 H 0.48434 0.12711 0.45077 0.0
H1065 H 0.54374 0.09208 0.48328 0.0
H1066 H 0.5537 0.13432 0.49716 0.0
H1067 H 0.52127 0.22743 0.57805 0.0
H1068 H 0.51234 0.23139 0.54518 0.0
H1069 H 0.57685 0.1812 0.53357 0.0
H1070 H 0.58599 0.17741 0.5659 0.0
H1071 H 0.52874 0.16611 0.51745 0.0
H1072 H 0.58401 0.24204 0.52637 0.0
H1073 H 0.59406 0.28457 0.53979 0.0
H1074 H 0.52399 0.31581 0.51746 0.0
H1075 H 0.51337 0.27331 0.5041 0.0
C1076 C 0.56624 0.1783 0.43571 0.0
C1077 C 0.55098 0.19009 0.42226 0.0
C1078 C 0.56156 0.18302 0.45407 0.0
C1079 C 0.54144 0.19952 0.45943 0.0
C1080 C 0.52664 0.2121 0.44609 0.0
C1081 C 0.53132 0.20732 0.42758 0.0
C1082 C 0.5359 0.2026 0.4791 0.0
C1083 C 0.53995 0.22673 0.48738 0.0
C1084 C 0.53058 0.18074 0.49005 0.0
C1085 C 0.52446 0.15514 0.48193 0.0
C1086 C 0.50482 0.15279 0.46879 0.0
C1087 C 0.49942 0.12878 0.46091 0.0
C1088 C 0.51345 0.10692 0.46613 0.0
C1089 C 0.53287 0.10902 0.47926 0.0
C1090 C 0.53837 0.133 0.48716 0.0
C1091 C 0.53366 0.21752 0.56842 0.0
C1092 C 0.55425 0.20201 0.57454 0.0
C1093 C 0.52854 0.21979 0.54972 0.0
C1094 C 0.54385 0.2064 0.53703 0.0
C1095 C 0.56471 0.19151 0.54317 0.0
C1096 C 0.56994 0.18944 0.56168 0.0
C1097 C 0.53811 0.20666 0.51731 0.0
C1098 C 0.53189 0.18305 0.50902 0.0
C1099 C 0.54129 0.22898 0.50643 0.0
C1100 C 0.54771 0.25444 0.51447 0.0
C1101 C 0.57061 0.25791 0.52449 0.0
C1102 C 0.57645 0.28202 0.53204 0.0
C1103 C 0.55963 0.30286 0.52955 0.0
C1104 C 0.53697 0.29963 0.51943 0.0
C1105 C 0.53104 0.27555 0.51186 0.0
H1106 H 0.56418 0.32151 0.5354 0.0
H1107 H 0.50925 0.08835 0.46001 0.0
H1108 H 0.79674 0.59122 0.06363 0.0
H1109 H 0.78282 0.5834 0.03253 0.0
H1110 H 0.75945 0.50599 0.04705 0.0
H1111 H 0.77371 0.51375 0.07853 0.0
H1112 H 0.78988 0.50618 0.01733 0.0
H1113 H 0.71327 0.54933 0.03399 0.0
H1114 H 0.68546 0.58234 0.04825 0.0
H1115 H 0.7195 0.64101 0.01457 0.0
H1116 H 0.74778 0.60848 0.00027 0.0
H1117 H 0.77595 0.51099 0.91928 0.0
H1118 H 0.76139 0.5043 0.95086 0.0
H1119 H 0.78876 0.58052 0.96498 0.0
H1120 H 0.80321 0.58723 0.93385 0.0
H1121 H 0.74114 0.56974 0.98022 0.0
H1122 H 0.82601 0.52779 0.9722 0.0
H1123 H 0.85479 0.49532 0.95823 0.0
H1124 H 0.8043 0.43449 0.97615 0.0
H1125 H 0.77507 0.46669 0.99005 0.0
C1126 C 0.78834 0.57261 0.0603 0.0
C1127 C 0.78646 0.55302 0.07346 0.0
C1128 C 0.78012 0.56824 0.04253 0.0
C1129 C 0.76973 0.54422 0.03749 0.0
C1130 C 0.76721 0.52473 0.0507 0.0
C1131 C 0.77534 0.52918 0.06864 0.0
C1132 C 0.76437 0.53914 0.01799 0.0
C1133 C 0.77849 0.51955 0.00925 0.0
C1134 C 0.74956 0.55658 0.00743 0.0
C1135 C 0.73265 0.57638 0.01602 0.0
C1136 C 0.71492 0.56929 0.02967 0.0
C1137 C 0.69903 0.58792 0.03774 0.0
C1138 C 0.70062 0.61372 0.03225 0.0
C1139 C 0.71819 0.62099 0.01874 0.0
C1140 C 0.73412 0.60244 0.01061 0.0
C1141 C 0.77859 0.52633 0.92914 0.0
C1142 C 0.79088 0.54954 0.92417 0.0
C1143 C 0.77028 0.5225 0.94712 0.0
C1144 C 0.77401 0.54193 0.96023 0.0
C1145 C 0.78552 0.56534 0.95506 0.0
C1146 C 0.79396 0.56907 0.93727 0.0
C1147 C 0.76785 0.53787 0.97971 0.0
C1148 C 0.75156 0.55572 0.98839 0.0
C1149 C 0.78064 0.51887 0.99022 0.0
C1150 C 0.79822 0.49961 0.98192 0.0
C1151 C 0.82097 0.5075 0.97302 0.0
C1152 C 0.83737 0.48915 0.96515 0.0
C1153 C 0.83133 0.46286 0.96624 0.0
C1154 C 0.80892 0.45486 0.97527 0.0
C1155 C 0.79243 0.47314 0.98314 0.0
H1156 H 0.84406 0.44868 0.96014 0.0
H1157 H 0.68833 0.62812 0.03853 0.0
H1158 H 0.44679 0.84977 0.56232 0.0
H1159 H 0.45548 0.83976 0.53053 0.0
H1160 H 0.49418 0.76943 0.5465 0.0
H1161 H 0.48504 0.77919 0.57858 0.0
H1162 H 0.49626 0.83232 0.50968 0.0
H1163 H 0.47832 0.72304 0.51433 0.0
H1164 H 0.45676 0.69134 0.53439 0.0
H1165 H 0.40283 0.74948 0.55173 0.0
H1166 H 0.42385 0.78138 0.5316 0.0
H1167 H 0.49736 0.79185 0.41748 0.0
H1168 H 0.50837 0.78875 0.4499 0.0
H1169 H 0.42737 0.78188 0.46319 0.0
H1170 H 0.41635 0.78467 0.43101 0.0
H1171 H 0.45569 0.75242 0.48553 0.0
H1172 H 0.45625 0.84026 0.46283 0.0
H1173 H 0.47056 0.87607 0.44306 0.0
H1174 H 0.54852 0.86661 0.46202 0.0
H1175 H 0.53469 0.83048 0.48174 0.0
C1176 C 0.45744 0.83231 0.55912 0.0
C1177 C 0.465 0.81511 0.57291 0.0
C1178 C 0.46253 0.82669 0.54092 0.0
C1179 C 0.47526 0.80373 0.53611 0.0
C1180 C 0.48408 0.78712 0.54991 0.0
C1181 C 0.47892 0.79274 0.56821 0.0
C1182 C 0.47717 0.79662 0.5166 0.0
C1183 C 0.48786 0.8146 0.50443 0.0
C1184 C 0.46586 0.77369 0.5097 0.0
C1185 C 0.45289 0.75463 0.52168 0.0
C1186 C 0.46184 0.72901 0.52241 0.0
C1187 C 0.44971 0.71102 0.53378 0.0
C1188 C 0.42851 0.71843 0.54438 0.0
C1189 C 0.41931 0.7438 0.54357 0.0
C1190 C 0.43134 0.76184 0.5322 0.0
C1191 C 0.482 0.78907 0.42731 0.0
C1192 C 0.45599 0.7888 0.42178 0.0
C1193 C 0.4883 0.78737 0.44581 0.0
C1194 C 0.46866 0.7854 0.45896 0.0
C1195 C 0.44284 0.78335 0.45329 0.0
C1196 C 0.43656 0.7851 0.43489 0.0
C1197 C 0.4743 0.78838 0.47864 0.0
C1198 C 0.46502 0.76964 0.49082 0.0
C1199 C 0.48609 0.81105 0.48555 0.0
C1200 C 0.49452 0.83248 0.47355 0.0
C1201 C 0.47649 0.84566 0.46264 0.0
C1202 C 0.48449 0.86603 0.45148 0.0
C1203 C 0.51043 0.87356 0.45126 0.0
C1204 C 0.52844 0.86071 0.46218 0.0
C1205 C 0.52053 0.84028 0.47334 0.0
H1206 H 0.51654 0.88944 0.44271 0.0
H1207 H 0.41917 0.70448 0.55319 0.0
H1208 H 0.20586 0.58318 0.44106 0.0
H1209 H 0.21594 0.56946 0.47197 0.0
H1210 H 0.22897 0.4916 0.45296 0.0
H1211 H 0.21878 0.50532 0.42178 0.0
H1212 H 0.19523 0.49285 0.48081 0.0
H1213 H 0.27929 0.52451 0.47064 0.0
H1214 H 0.31306 0.55452 0.45994 0.0
H1215 H 0.28592 0.61253 0.49714 0.0
H1216 H 0.25172 0.58304 0.50788 0.0
H1217 H 0.23653 0.51642 0.58366 0.0
H1218 H 0.24837 0.50627 0.55207 0.0
H1219 H 0.17192 0.5284 0.53448 0.0
H1220 H 0.16004 0.53836 0.56577 0.0
H1221 H 0.25024 0.54066 0.52472 0.0
H1222 H 0.15339 0.49594 0.49833 0.0
H1223 H 0.12033 0.46521 0.50911 0.0
H1224 H 0.17579 0.43017 0.5449 0.0
H1225 H 0.20931 0.46044 0.53415 0.0
C1226 C 0.21137 0.56324 0.44338 0.0
C1227 C 0.21141 0.54528 0.42906 0.0
C1228 C 0.21731 0.55545 0.46104 0.0
C1229 C 0.22342 0.52955 0.46475 0.0
C1230 C 0.22445 0.51171 0.45035 0.0
C1231 C 0.21868 0.51958 0.43258 0.0
C1232 C 0.22561 0.521 0.48393 0.0
C1233 C 0.20756 0.50294 0.49041 0.0
C1234 C 0.24223 0.53364 0.49636 0.0
C1235 C 0.26288 0.55151 0.49006 0.0
C1236 C 0.28042 0.54371 0.47648 0.0
C1237 C 0.29966 0.56064 0.47041 0.0
C1238 C 0.30163 0.58541 0.47786 0.0
C1239 C 0.28439 0.59331 0.4914 0.0
C1240 C 0.2651 0.57647 0.49752 0.0
C1241 C 0.22214 0.51856 0.57306 0.0
C1242 C 0.19741 0.52827 0.57712 0.0
C1243 C 0.22894 0.51282 0.55506 0.0
C1244 C 0.21096 0.51635 0.54095 0.0
C1245 C 0.18596 0.52506 0.54516 0.0
C1246 C 0.17924 0.53093 0.56305 0.0
C1247 C 0.21869 0.51383 0.52161 0.0
C1248 C 0.23853 0.52987 0.51511 0.0
C1249 C 0.20389 0.49914 0.50915 0.0
C1250 C 0.18389 0.48054 0.51543 0.0
C1251 C 0.15862 0.48155 0.50838 0.0
C1252 C 0.13977 0.46424 0.51453 0.0
C1253 C 0.14595 0.44576 0.52769 0.0
C1254 C 0.17102 0.44452 0.53472 0.0
C1255 C 0.18994 0.46178 0.52863 0.0
H1256 H 0.13132 0.4324 0.53244 0.0
H1257 H 0.31654 0.59849 0.47313 0.0
H1258 H 0.44064 0.23734 0.92537 0.0
H1259 H 0.45086 0.2468 0.95695 0.0
H1260 H 0.52059 0.20121 0.95263 0.0
H1261 H 0.50926 0.19023 0.9212 0.0
H1262 H 0.49823 0.18646 0.98028 0.0
H1263 H 0.51952 0.27076 0.96156 0.0
H1264 H 0.51586 0.31234 0.94538 0.0
H1265 H 0.44578 0.32942 0.97433 0.0
H1266 H 0.44876 0.28778 0.9905 0.0
H1267 H 0.50489 0.21117 0.07654 0.0
H1268 H 0.51836 0.21968 0.04494 0.0
H1269 H 0.43878 0.23231 0.02987 0.0
H1270 H 0.42522 0.22297 0.06108 0.0
H1271 H 0.47952 0.26805 0.01325 0.0
H1272 H 0.45603 0.17631 0.02427 0.0
H1273 H 0.46209 0.13528 0.04086 0.0
H1274 H 0.54249 0.13481 0.02621 0.0
H1275 H 0.53693 0.17608 0.00976 0.0
C1276 C 0.45849 0.22987 0.93101 0.0
C1277 C 0.47411 0.21297 0.92089 0.0
C1278 C 0.46449 0.23548 0.9491 0.0
C1279 C 0.48674 0.22502 0.95729 0.0
C1280 C 0.50329 0.20949 0.94672 0.0
C1281 C 0.49688 0.20329 0.92874 0.0
C1282 C 0.49054 0.22734 0.97734 0.0
C1283 C 0.49497 0.20459 0.98735 0.0
C1284 C 0.48626 0.25085 0.98685 0.0
C1285 C 0.48435 0.27604 0.97722 0.0
C1286 C 0.50324 0.2833 0.96441 0.0
C1287 C 0.50129 0.3069 0.95524 0.0
C1288 C 0.4806 0.3235 0.95882 0.0
C1289 C 0.46182 0.31655 0.97159 0.0
C1290 C 0.46366 0.29296 0.98079 0.0
C1291 C 0.49042 0.21632 0.06652 0.0
C1292 C 0.46404 0.21626 0.0711 0.0
C1293 C 0.49811 0.2212 0.04856 0.0
C1294 C 0.47952 0.22669 0.03518 0.0
C1295 C 0.45338 0.22832 0.04007 0.0
C1296 C 0.44566 0.22281 0.05783 0.0
C1297 C 0.48641 0.22724 0.01567 0.0
C1298 C 0.4838 0.25036 0.00591 0.0
C1299 C 0.49294 0.20429 0.00635 0.0
C1300 C 0.49615 0.17937 0.01601 0.0
C1301 C 0.47504 0.16754 0.02473 0.0
C1302 C 0.47837 0.14424 0.03408 0.0
C1303 C 0.50268 0.13248 0.03464 0.0
C1304 C 0.52369 0.14397 0.0258 0.0
C1305 C 0.52046 0.16731 0.01647 0.0
H1306 H 0.50523 0.11444 0.04188 0.0
H1307 H 0.47912 0.34176 0.9517 0.0
H1308 H 0.78644 0.47996 0.41641 0.0
H1309 H 0.77399 0.48994 0.44799 0.0
H1310 H 0.79417 0.41227 0.464 0.0
H1311 H 0.80666 0.40233 0.43281 0.0
H1312 H 0.74858 0.42915 0.47992 0.0
H1313 H 0.83697 0.45976 0.46915 0.0
H1314 H 0.86941 0.48682 0.45351 0.0
H1315 H 0.8281 0.55529 0.46925 0.0
H1316 H 0.79526 0.52857 0.48481 0.0
H1317 H 0.79931 0.41265 0.56594 0.0
H1318 H 0.78908 0.41766 0.53384 0.0
H1319 H 0.77208 0.4984 0.54247 0.0
H1320 H 0.78263 0.49352 0.57495 0.0
H1321 H 0.80452 0.49071 0.51358 0.0
H1322 H 0.72295 0.45809 0.5319 0.0
H1323 H 0.69277 0.42954 0.54837 0.0
H1324 H 0.7218 0.36392 0.51898 0.0
H1325 H 0.7524 0.39199 0.5025 0.0
C1326 C 0.78787 0.465 0.42667 0.0
C1327 C 0.79767 0.44044 0.42224 0.0
C1328 C 0.7808 0.47071 0.44465 0.0
C1329 C 0.78324 0.45184 0.45829 0.0
C1330 C 0.79203 0.42706 0.45366 0.0
C1331 C 0.79932 0.42146 0.43585 0.0
C1332 C 0.77855 0.45786 0.47771 0.0
C1333 C 0.76061 0.44275 0.48731 0.0
C1334 C 0.79374 0.47618 0.48721 0.0
C1335 C 0.8135 0.49218 0.47791 0.0
C1336 C 0.83471 0.48057 0.46914 0.0
C1337 C 0.85318 0.49584 0.46032 0.0
C1338 C 0.85076 0.52275 0.46032 0.0
C1339 C 0.82991 0.53444 0.46921 0.0
C1340 C 0.81137 0.51925 0.47803 0.0
C1341 C 0.79311 0.43144 0.5611 0.0
C1342 C 0.7918 0.45272 0.57293 0.0
C1343 C 0.78708 0.43424 0.54274 0.0
C1344 C 0.77945 0.45832 0.5358 0.0
C1345 C 0.77774 0.47961 0.54761 0.0
C1346 C 0.7837 0.47679 0.56611 0.0
C1347 C 0.77534 0.46113 0.51594 0.0
C1348 C 0.79167 0.47785 0.50621 0.0
C1349 C 0.75874 0.44418 0.50633 0.0
C1350 C 0.74001 0.4272 0.51596 0.0
C1351 C 0.72297 0.43756 0.52899 0.0
C1352 C 0.70578 0.42145 0.53833 0.0
C1353 C 0.70537 0.39493 0.53473 0.0
C1354 C 0.72211 0.38447 0.52173 0.0
C1355 C 0.73934 0.40049 0.51235 0.0
H1356 H 0.69208 0.38249 0.542 0.0
H1357 H 0.86506 0.53455 0.45348 0.0
H1358 H 0.50715 0.78281 0.08088 0.0
H1359 H 0.49553 0.77373 0.04898 0.0
H1360 H 0.55281 0.82884 0.03105 0.0
H1361 H 0.5641 0.83811 0.06241 0.0
H1362 H 0.50894 0.83493 0.01261 0.0
H1363 H 0.56439 0.76291 0.03205 0.0
H1364 H 0.57429 0.72478 0.05099 0.0
H1365 H 0.5044 0.688 0.03292 0.0
H1366 H 0.49398 0.72608 0.01402 0.0
H1367 H 0.57874 0.8091 0.93615 0.0
H1368 H 0.56534 0.80363 0.96769 0.0
H1369 H 0.49248 0.77187 0.95003 0.0
H1370 H 0.50576 0.77748 0.91806 0.0
H1371 H 0.52707 0.7489 0.98554 0.0
H1372 H 0.47814 0.82088 0.96042 0.0
H1373 H 0.47436 0.85896 0.94038 0.0
H1374 H 0.53638 0.89615 0.9691 0.0
H1375 H 0.5408 0.85809 0.98911 0.0
C1376 C 0.51708 0.79303 0.07007 0.0
C1377 C 0.53655 0.81113 0.07412 0.0
C1378 C 0.51047 0.78781 0.0519 0.0
C1379 C 0.5233 0.80064 0.03765 0.0
C1380 C 0.54248 0.81888 0.04181 0.0
C1381 C 0.54902 0.82406 0.05979 0.0
C1382 C 0.51794 0.79503 0.01822 0.0
C1383 C 0.51238 0.81598 0.00674 0.0
C1384 C 0.52192 0.77023 0.01053 0.0
C1385 C 0.52824 0.74742 0.02185 0.0
C1386 C 0.55105 0.74676 0.03224 0.0
C1387 C 0.55677 0.72516 0.04294 0.0
C1388 C 0.53994 0.70402 0.04321 0.0
C1389 C 0.51739 0.70441 0.03273 0.0
C1390 C 0.51156 0.72599 0.02203 0.0
C1391 C 0.56003 0.80052 0.9389 0.0
C1392 C 0.54316 0.79399 0.92465 0.0
C1393 C 0.55247 0.7973 0.95693 0.0
C1394 C 0.52794 0.78747 0.96109 0.0
C1395 C 0.51154 0.77939 0.94699 0.0
C1396 C 0.51912 0.78267 0.9288 0.0
C1397 C 0.51901 0.78898 0.98013 0.0
C1398 C 0.52216 0.76745 0.9915 0.0
C1399 C 0.51303 0.81331 0.98779 0.0
C1400 C 0.50984 0.8366 0.97621 0.0
C1401 C 0.49104 0.83714 0.9624 0.0
C1402 C 0.48878 0.85872 0.95105 0.0
C1403 C 0.50514 0.87995 0.95345 0.0
C1404 C 0.52371 0.87969 0.96726 0.0
C1405 C 0.52606 0.85814 0.97863 0.0
H1406 H 0.50341 0.89661 0.94462 0.0
H1407 H 0.5444 0.6873 0.05149 0.0
H1408 H 0.24666 0.38106 0.14186 0.0
H1409 H 0.26926 0.34001 0.13886 0.0
H1410 H 0.19759 0.30189 0.12554 0.0
H1411 H 0.17455 0.34339 0.12829 0.0
H1412 H 0.24629 0.27873 0.15419 0.0
H1413 H 0.21789 0.29999 0.0926 0.0
H1414 H 0.20808 0.33154 0.06838 0.0
H1415 H 0.28619 0.35957 0.07037 0.0
H1416 H 0.29632 0.32846 0.09483 0.0
H1417 H 0.3436 0.18659 0.12439 0.0
H1418 H 0.30116 0.20801 0.1253 0.0
H1419 H 0.33832 0.28188 0.11749 0.0
H1420 H 0.3804 0.26081 0.11662 0.0
H1421 H 0.29517 0.27624 0.09605 0.0
H1422 H 0.32172 0.26243 0.15919 0.0
H1423 H 0.33373 0.23515 0.1854 0.0
H1424 H 0.26101 0.19537 0.18177 0.0
H1425 H 0.24874 0.22224 0.15537 0.0
C1426 C 0.23554 0.36394 0.13859 0.0
C1427 C 0.20888 0.36547 0.13511 0.0
C1428 C 0.24848 0.34049 0.13695 0.0
C1429 C 0.23505 0.31811 0.13191 0.0
C1430 C 0.20817 0.31908 0.12947 0.0
C1431 C 0.19511 0.34272 0.13102 0.0
C1432 C 0.25023 0.2949 0.12735 0.0
C1433 C 0.25631 0.27739 0.14125 0.0
C1434 C 0.26359 0.29372 0.1106 0.0
C1435 C 0.25779 0.31203 0.09561 0.0
C1436 C 0.23291 0.31301 0.08795 0.0
C1437 C 0.2273 0.33079 0.07418 0.0
C1438 C 0.24649 0.34759 0.06787 0.0
C1439 C 0.27135 0.34656 0.07528 0.0
C1440 C 0.27704 0.32884 0.08908 0.0
C1441 C 0.3426 0.20737 0.12275 0.0
C1442 C 0.36526 0.22208 0.12051 0.0
C1443 C 0.31841 0.21954 0.12329 0.0
C1444 C 0.31666 0.2465 0.12145 0.0
C1445 C 0.33925 0.26103 0.11881 0.0
C1446 C 0.3633 0.24898 0.11843 0.0
C1447 C 0.29169 0.26025 0.12303 0.0
C1448 C 0.28415 0.27636 0.10862 0.0
C1449 C 0.27709 0.26013 0.13933 0.0
C1450 C 0.28448 0.24405 0.15517 0.0
C1451 C 0.30841 0.2477 0.16389 0.0
C1452 C 0.31524 0.23236 0.17879 0.0
C1453 C 0.29819 0.21347 0.1852 0.0
C1454 C 0.27423 0.20995 0.17675 0.0
C1455 C 0.26733 0.22523 0.16182 0.0
H1456 H 0.3035 0.20162 0.19675 0.0
H1457 H 0.2421 0.36136 0.05722 0.0
H1458 H 0.81902 0.34859 0.62403 0.0
H1459 H 0.7965 0.30692 0.6267 0.0
H1460 H 0.7352 0.34404 0.65681 0.0
H1461 H 0.75751 0.38536 0.65429 0.0
H1462 H 0.74567 0.29652 0.67047 0.0
H1463 H 0.73086 0.33622 0.61112 0.0
H1464 H 0.74481 0.3536 0.58142 0.0
H1465 H 0.7796 0.28065 0.56803 0.0
H1466 H 0.76609 0.26295 0.59778 0.0
H1467 H 0.62237 0.2518 0.6498 0.0
H1468 H 0.6635 0.27441 0.65291 0.0
H1469 H 0.70293 0.2106 0.62724 0.0
H1470 H 0.66151 0.18748 0.62431 0.0
H1471 H 0.7137 0.26061 0.61201 0.0
H1472 H 0.71596 0.21884 0.66946 0.0
H1473 H 0.69869 0.20328 0.69876 0.0
H1474 H 0.68491 0.28152 0.71571 0.0
H1475 H 0.70172 0.29757 0.6864 0.0
C1476 C 0.80099 0.34768 0.63151 0.0
C1477 C 0.78986 0.37021 0.6388 0.0
C1478 C 0.78814 0.32393 0.63298 0.0
C1479 C 0.76406 0.32246 0.6418 0.0
C1480 C 0.75377 0.3447 0.64997 0.0
C1481 C 0.76648 0.36835 0.64843 0.0
C1482 C 0.74812 0.29866 0.64125 0.0
C1483 C 0.7388 0.2885 0.65771 0.0
C1484 C 0.7397 0.28778 0.62459 0.0
C1485 C 0.7478 0.29839 0.60674 0.0
C1486 C 0.74167 0.32397 0.6019 0.0
C1487 C 0.74946 0.33386 0.58505 0.0
C1488 C 0.76317 0.31827 0.57287 0.0
C1489 C 0.76904 0.29272 0.5775 0.0
C1490 C 0.76133 0.28275 0.59434 0.0
C1491 C 0.6398 0.24243 0.64497 0.0
C1492 C 0.63878 0.21793 0.63678 0.0
C1493 C 0.66331 0.25531 0.64685 0.0
C1494 C 0.68625 0.24406 0.64045 0.0
C1495 C 0.68541 0.21948 0.63237 0.0
C1496 C 0.66183 0.20633 0.63074 0.0
C1497 C 0.7105 0.2592 0.64123 0.0
C1498 C 0.7213 0.26784 0.6248 0.0
C1499 C 0.72004 0.2689 0.65792 0.0
C1500 C 0.71005 0.2594 0.67567 0.0
C1501 C 0.7091 0.23274 0.67938 0.0
C1502 C 0.69941 0.22383 0.696 0.0
C1503 C 0.69069 0.2414 0.70908 0.0
C1504 C 0.69169 0.26793 0.70557 0.0
C1505 C 0.70135 0.27694 0.68896 0.0
H1506 H 0.68319 0.23446 0.72194 0.0
H1507 H 0.76917 0.32596 0.55983 0.0
H1508 H 0.74989 0.62341 0.14206 0.0
H1509 H 0.72606 0.66389 0.13987 0.0
H1510 H 0.79392 0.70216 0.11896 0.0
H1511 H 0.81818 0.66133 0.12105 0.0
H1512 H 0.75575 0.73084 0.14727 0.0
H1513 H 0.76225 0.69075 0.08802 0.0
H1514 H 0.76318 0.65187 0.06858 0.0
H1515 H 0.68561 0.6332 0.08476 0.0
H1516 H 0.68441 0.67172 0.10459 0.0
H1517 H 0.65638 0.82303 0.12158 0.0
H1518 H 0.69682 0.79807 0.12016 0.0
H1519 H 0.65316 0.72724 0.12474 0.0
H1520 H 0.61314 0.75175 0.12577 0.0
H1521 H 0.68883 0.7227 0.09917 0.0
H1522 H 0.6847 0.75593 0.16154 0.0
H1523 H 0.68357 0.79078 0.18446 0.0
H1524 H 0.75555 0.82057 0.16417 0.0
H1525 H 0.75692 0.78602 0.14098 0.0
C1526 C 0.75997 0.6405 0.13733 0.0
C1527 C 0.78579 0.63917 0.1315 0.0
C1528 C 0.74635 0.66362 0.13616 0.0
C1529 C 0.75826 0.68582 0.12916 0.0
C1530 C 0.78453 0.68514 0.12446 0.0
C1531 C 0.79826 0.66185 0.1256 0.0
C1532 C 0.74189 0.70827 0.12469 0.0
C1533 C 0.74156 0.7296 0.13643 0.0
C1534 C 0.72333 0.7063 0.11065 0.0
C1535 C 0.72331 0.68406 0.09786 0.0
C1536 C 0.74541 0.67833 0.08745 0.0
C1537 C 0.746 0.65635 0.07639 0.0
C1538 C 0.72451 0.64003 0.0755 0.0
C1539 C 0.70226 0.64585 0.0855 0.0
C1540 C 0.7016 0.66779 0.09663 0.0
C1541 C 0.65553 0.80213 0.12222 0.0
C1542 C 0.63164 0.78932 0.12378 0.0
C1543 C 0.67859 0.78793 0.12144 0.0
C1544 C 0.67799 0.76079 0.12237 0.0
C1545 C 0.6541 0.74813 0.12385 0.0
C1546 C 0.63121 0.7622 0.12452 0.0
C1547 C 0.70192 0.74502 0.1222 0.0
C1548 C 0.7036 0.72473 0.10956 0.0
C1549 C 0.72159 0.74797 0.13547 0.0
C1550 C 0.72074 0.76864 0.1494 0.0
C1551 C 0.70017 0.77004 0.16189 0.0
C1552 C 0.69951 0.7897 0.17494 0.0
C1553 C 0.71943 0.80793 0.17573 0.0
C1554 C 0.7401 0.80648 0.16351 0.0
C1555 C 0.74083 0.78686 0.15042 0.0
H1556 H 0.71889 0.82314 0.18584 0.0
H1557 H 0.72516 0.62285 0.06712 0.0
H1558 H 0.18855 0.65314 0.6375 0.0
H1559 H 0.21467 0.6929 0.63796 0.0
H1560 H 0.27523 0.65366 0.60847 0.0
H1561 H 0.24959 0.61421 0.60809 0.0
H1562 H 0.29276 0.67667 0.63941 0.0
H1563 H 0.23735 0.69835 0.58806 0.0
H1564 H 0.19531 0.70684 0.57339 0.0
H1565 H 0.18063 0.76841 0.61123 0.0
H1566 H 0.22246 0.76005 0.62628 0.0
H1567 H 0.38201 0.75934 0.60319 0.0
H1568 H 0.34377 0.73194 0.60466 0.0
H1569 H 0.30562 0.78804 0.63881 0.0
H1570 H 0.34414 0.81595 0.63731 0.0
H1571 H 0.27241 0.76158 0.61141 0.0
H1572 H 0.33016 0.74305 0.66049 0.0
H1573 H 0.37276 0.73513 0.67449 0.0
H1574 H 0.38267 0.66754 0.64127 0.0
H1575 H 0.34032 0.67531 0.62684 0.0
C1576 C 0.20729 0.65319 0.63092 0.0
C1577 C 0.21715 0.63055 0.62289 0.0
C1578 C 0.22215 0.67587 0.63118 0.0
C1579 C 0.24693 0.67613 0.62333 0.0
C1580 C 0.25624 0.6538 0.61473 0.0
C1581 C 0.24154 0.63127 0.6145 0.0
C1582 C 0.2642 0.69887 0.62487 0.0
C1583 C 0.28827 0.69522 0.63327 0.0
C1584 C 0.25795 0.72336 0.6175 0.0
C1585 C 0.23286 0.72835 0.60844 0.0
C1586 C 0.22504 0.71353 0.59336 0.0
C1587 C 0.20128 0.71836 0.58495 0.0
C1588 C 0.18527 0.73809 0.59142 0.0
C1589 C 0.19302 0.75309 0.60627 0.0
C1590 C 0.21676 0.74833 0.61473 0.0
C1591 C 0.36537 0.76611 0.61079 0.0
C1592 C 0.36615 0.7896 0.62035 0.0
C1593 C 0.34352 0.75045 0.61158 0.0
C1594 C 0.32209 0.75785 0.62204 0.0
C1595 C 0.32205 0.78205 0.63068 0.0
C1596 C 0.34403 0.79788 0.62985 0.0
C1597 C 0.30122 0.73884 0.62522 0.0
C1598 C 0.27657 0.74319 0.61787 0.0
C1599 C 0.3068 0.7149 0.63364 0.0
C1600 C 0.33211 0.70986 0.64252 0.0
C1601 C 0.34149 0.72659 0.65609 0.0
C1602 C 0.36559 0.72212 0.66411 0.0
C1603 C 0.38042 0.70086 0.65876 0.0
C1604 C 0.37116 0.68399 0.64541 0.0
C1605 C 0.34709 0.68841 0.63732 0.0
H1606 H 0.39908 0.69743 0.66498 0.0
H1607 H 0.16688 0.7418 0.58489 0.0
H1608 H 0.34044 0.81876 0.3761 0.0
H1609 H 0.29704 0.79915 0.37516 0.0
H1610 H 0.32862 0.73234 0.34791 0.0
H1611 H 0.37163 0.75148 0.34903 0.0
H1612 H 0.2805 0.74856 0.33365 0.0
H1613 H 0.32293 0.73153 0.39259 0.0
H1614 H 0.34206 0.74596 0.42164 0.0
H1615 H 0.27147 0.78513 0.43536 0.0
H1616 H 0.25207 0.77117 0.40625 0.0
H1617 H 0.23826 0.62611 0.35287 0.0
H1618 H 0.25854 0.66815 0.34906 0.0
H1619 H 0.19914 0.70329 0.38209 0.0
H1620 H 0.17852 0.66073 0.38601 0.0
H1621 H 0.24793 0.71673 0.39312 0.0
H1622 H 0.20184 0.71989 0.33802 0.0
H1623 H 0.18321 0.70404 0.30923 0.0
H1624 H 0.25943 0.69121 0.28788 0.0
H1625 H 0.27856 0.70658 0.31663 0.0
C1626 C 0.33792 0.80008 0.36967 0.0
C1627 C 0.35933 0.78649 0.36277 0.0
C1628 C 0.31321 0.78894 0.36915 0.0
C1629 C 0.30969 0.76431 0.36147 0.0
C1630 C 0.3309 0.75142 0.35379 0.0
C1631 C 0.35549 0.76229 0.35456 0.0
C1632 C 0.28476 0.75038 0.36275 0.0
C1633 C 0.27309 0.74177 0.34662 0.0
C1634 C 0.27458 0.74239 0.37971 0.0
C1635 C 0.2862 0.75063 0.39719 0.0
C1636 C 0.31158 0.74339 0.40175 0.0
C1637 C 0.32245 0.75145 0.41822 0.0
C1638 C 0.30802 0.76654 0.43031 0.0
C1639 C 0.28265 0.77351 0.42596 0.0
C1640 C 0.27171 0.76554 0.40949 0.0
C1641 C 0.22927 0.64279 0.35916 0.0
C1642 C 0.20686 0.64015 0.36979 0.0
C1643 C 0.24077 0.66689 0.35684 0.0
C1644 C 0.23015 0.68895 0.36507 0.0
C1645 C 0.20749 0.68653 0.37549 0.0
C1646 C 0.19576 0.66228 0.3777 0.0
C1647 C 0.24455 0.71368 0.36395 0.0
C1648 C 0.25434 0.72433 0.38011 0.0
C1649 C 0.25296 0.72359 0.34699 0.0
C1650 C 0.24164 0.71442 0.32954 0.0
C1651 C 0.21465 0.71356 0.32723 0.0
C1652 C 0.20399 0.70467 0.31091 0.0
C1653 C 0.22013 0.69663 0.29674 0.0
C1654 C 0.24696 0.69749 0.29886 0.0
C1655 C 0.25772 0.70635 0.31516 0.0
H1656 H 0.21184 0.68974 0.28411 0.0
H1657 H 0.31646 0.77275 0.44306 0.0
H1658 H 0.36087 0.19837 0.90666 0.0
H1659 H 0.32067 0.22311 0.90827 0.0
H1660 H 0.31887 0.22778 0.84963 0.0
H1661 H 0.35863 0.20249 0.84795 0.0
H1662 H 0.31743 0.27066 0.89877 0.0
H1663 H 0.25911 0.24045 0.83394 0.0
H1664 H 0.2479 0.20053 0.81736 0.0
H1665 H 0.25978 0.15596 0.86595 0.0
H1666 H 0.2707 0.19563 0.88289 0.0
H1667 H 0.25227 0.37559 0.86381 0.0
H1668 H 0.27716 0.3358 0.86628 0.0
H1669 H 0.20866 0.29464 0.88316 0.0
H1670 H 0.18326 0.33465 0.88024 0.0
H1671 H 0.23854 0.26524 0.86055 0.0
H1672 H 0.25124 0.31361 0.91491 0.0
H1673 H 0.26047 0.35254 0.93318 0.0
H1674 H 0.33634 0.35733 0.90967 0.0
H1675 H 0.32744 0.31867 0.89104 0.0
C1676 C 0.35148 0.20402 0.8941 0.0
C1677 C 0.36299 0.19867 0.87718 0.0
C1678 C 0.32853 0.21823 0.89504 0.0
C1679 C 0.3167 0.22741 0.87909 0.0
C1680 C 0.32733 0.22063 0.86213 0.0
C1681 C 0.35017 0.20624 0.86119 0.0
C1682 C 0.29562 0.24691 0.88017 0.0
C1683 C 0.30005 0.26925 0.89057 0.0
C1684 C 0.27266 0.245 0.86974 0.0
C1685 C 0.26591 0.22105 0.85966 0.0
C1686 C 0.2592 0.22216 0.84112 0.0
C1687 C 0.25293 0.19957 0.83165 0.0
C1688 C 0.25319 0.17572 0.84058 0.0
C1689 C 0.25968 0.17443 0.85902 0.0
C1690 C 0.26595 0.19697 0.86856 0.0
C1691 C 0.2424 0.35806 0.86793 0.0
C1692 C 0.21588 0.35827 0.87205 0.0
C1693 C 0.25668 0.33533 0.86938 0.0
C1694 C 0.24489 0.31239 0.8753 0.0
C1695 C 0.21815 0.3122 0.87868 0.0
C1696 C 0.20371 0.33502 0.87704 0.0
C1697 C 0.26104 0.28913 0.87857 0.0
C1698 C 0.25571 0.26626 0.86899 0.0
C1699 C 0.28296 0.29024 0.89007 0.0
C1700 C 0.28861 0.31327 0.90152 0.0
C1701 C 0.26985 0.32303 0.91357 0.0
C1702 C 0.27503 0.34505 0.924 0.0
C1703 C 0.29897 0.35741 0.92258 0.0
C1704 C 0.31781 0.34773 0.91076 0.0
C1705 C 0.31272 0.32573 0.90029 0.0
H1706 H 0.30293 0.37448 0.93064 0.0
H1707 H 0.24833 0.15825 0.83323 0.0
H1708 H 0.65909 0.17034 0.37239 0.0
H1709 H 0.70095 0.1928 0.37014 0.0
H1710 H 0.66189 0.26155 0.35149 0.0
H1711 H 0.62041 0.23952 0.35379 0.0
H1712 H 0.70613 0.25015 0.33137 0.0
H1713 H 0.67809 0.25566 0.39512 0.0
H1714 H 0.66637 0.23644 0.42473 0.0
H1715 H 0.74031 0.19885 0.42741 0.0
H1716 H 0.75231 0.21763 0.39768 0.0
H1717 H 0.75627 0.36874 0.35396 0.0
H1718 H 0.73299 0.32813 0.351 0.0
H1719 H 0.79943 0.28657 0.37108 0.0
H1720 H 0.82316 0.32766 0.3741 0.0
H1721 H 0.75305 0.27249 0.38815 0.0
H1722 H 0.78466 0.27815 0.32798 0.0
H1723 H 0.79591 0.29905 0.29888 0.0
H1724 H 0.7158 0.31586 0.28917 0.0
H1725 H 0.70407 0.29542 0.31834 0.0
C1726 C 0.65956 0.19019 0.3677 0.0
C1727 C 0.63653 0.20325 0.36335 0.0
C1728 C 0.68341 0.20295 0.36643 0.0
C1729 C 0.68445 0.22881 0.36063 0.0
C1730 C 0.66151 0.24155 0.35589 0.0
C1731 C 0.6378 0.22898 0.35732 0.0
C1732 C 0.70899 0.24353 0.36022 0.0
C1733 C 0.71657 0.25491 0.34373 0.0
C1734 C 0.72316 0.24892 0.37625 0.0
C1735 C 0.71594 0.23772 0.39409 0.0
C1736 C 0.69174 0.24311 0.40196 0.0
C1737 C 0.68507 0.23234 0.41877 0.0
C1738 C 0.70254 0.21635 0.42791 0.0
C1739 C 0.72676 0.21118 0.42029 0.0
C1740 C 0.73351 0.22187 0.40346 0.0
C1741 C 0.76608 0.35099 0.35764 0.0
C1742 C 0.79154 0.35136 0.36427 0.0
C1743 C 0.75279 0.32775 0.35583 0.0
C1744 C 0.76461 0.30431 0.36058 0.0
C1745 C 0.79008 0.30448 0.36721 0.0
C1746 C 0.80357 0.32788 0.36889 0.0
C1747 C 0.7493 0.28016 0.35944 0.0
C1748 C 0.74339 0.267 0.37562 0.0
C1749 C 0.73665 0.27311 0.3431 0.0
C1750 C 0.7435 0.28524 0.3254 0.0
C1751 C 0.76944 0.28641 0.31969 0.0
C1752 C 0.77591 0.29818 0.30317 0.0
C1753 C 0.75658 0.30878 0.29218 0.0
C1754 C 0.73075 0.3076 0.29768 0.0
C1755 C 0.72417 0.29587 0.3142 0.0
H1756 H 0.76163 0.31789 0.2794 0.0
H1757 H 0.69735 0.20804 0.44093 0.0
H1758 H 0.7547 0.62127 0.85146 0.0
H1759 H 0.73227 0.66245 0.84948 0.0
H1760 H 0.79602 0.70031 0.8764 0.0
H1761 H 0.81886 0.65861 0.87845 0.0
H1762 H 0.74862 0.71234 0.89168 0.0
H1763 H 0.78537 0.71517 0.83299 0.0
H1764 H 0.79927 0.69878 0.80303 0.0
H1765 H 0.72024 0.68393 0.78853 0.0
H1766 H 0.70585 0.69986 0.8185 0.0
H1767 H 0.65638 0.81668 0.87965 0.0
H1768 H 0.69827 0.79434 0.87732 0.0
H1769 H 0.66048 0.72904 0.85226 0.0
H1770 H 0.61894 0.75097 0.85464 0.0
H1771 H 0.7065 0.74276 0.83492 0.0
H1772 H 0.67316 0.72836 0.89666 0.0
H1773 H 0.65895 0.74332 0.92695 0.0
H1774 H 0.73249 0.77999 0.93537 0.0
H1775 H 0.747 0.76549 0.905 0.0
C1776 C 0.76416 0.63837 0.85679 0.0
C1777 C 0.78851 0.63674 0.86514 0.0
C1778 C 0.75137 0.66196 0.85553 0.0
C1779 C 0.76261 0.68452 0.86258 0.0
C1780 C 0.78713 0.68313 0.87075 0.0
C1781 C 0.80014 0.65938 0.87187 0.0
C1782 C 0.74736 0.70879 0.86247 0.0
C1783 C 0.74004 0.7196 0.87922 0.0
C1784 C 0.73607 0.71817 0.84621 0.0
C1785 C 0.74454 0.70871 0.82805 0.0
C1786 C 0.77095 0.70829 0.82346 0.0
C1787 C 0.77892 0.69909 0.80646 0.0
C1788 C 0.76065 0.69032 0.79389 0.0
C1789 C 0.73437 0.69077 0.79828 0.0
C1790 C 0.72629 0.69994 0.81526 0.0
C1791 C 0.65714 0.79763 0.87354 0.0
C1792 C 0.63442 0.78547 0.86742 0.0
C1793 C 0.68101 0.78494 0.87222 0.0
C1794 C 0.68243 0.76006 0.86461 0.0
C1795 C 0.65983 0.74829 0.85808 0.0
C1796 C 0.63607 0.76078 0.85956 0.0
C1797 C 0.70692 0.74523 0.86416 0.0
C1798 C 0.71589 0.73622 0.84729 0.0
C1799 C 0.71974 0.73755 0.88028 0.0
C1800 C 0.71102 0.74618 0.8985 0.0
C1801 C 0.68621 0.73981 0.90492 0.0
C1802 C 0.67811 0.74816 0.9221 0.0
C1803 C 0.69477 0.76268 0.93305 0.0
C1804 C 0.71959 0.7688 0.92686 0.0
C1805 C 0.72775 0.76053 0.90967 0.0
H1806 H 0.68848 0.76912 0.94635 0.0
H1807 H 0.76686 0.68319 0.78074 0.0
loop_
_geom_bond_atom_site_label_1
_geom_bond_atom_site_label_2
_geom_bond_distance
_geom_bond_site_symmetry_2
_ccdc_geom_bond_type
In0 O1 2.294 . S
In0 O2 2.326 . S
In0 O6 2.266 . S
In0 O7 2.326 . S
In0 O8 2.266 . S
In0 O9 2.326 . S
In0 O11 2.294 . S
In0 O12 2.326 . S
O1 In0 2.294 . S
O1 C10 1.240 . S
O2 In0 2.326 . S
O2 C10 1.252 . S
C3 O6 1.252 . S
C3 O7 1.260 . S
C4 O11 1.240 . S
C4 O12 1.252 . S
C5 O8 1.252 . S
C5 O9 1.260 . S
O6 In0 2.266 . S
O6 C3 1.252 . S
O7 In0 2.326 . S
O7 C3 1.260 . S
O8 In0 2.266 . S
O8 C5 1.252 . S
O9 In0 2.326 . S
O9 C5 1.260 . S
C10 O1 1.240 . S
C10 O2 1.252 . S
O11 In0 2.294 . S
O11 C4 1.240 . S
O12 In0 2.326 . S
O12 C4 1.252 . S
In13 O14 2.294 . S
In13 O15 2.326 . S
In13 O19 2.266 . S
In13 O20 2.326 . S
In13 O21 2.266 . S
In13 O22 2.326 . S
In13 O24 2.294 . S
In13 O25 2.326 . S
O14 In13 2.294 . S
O14 C23 1.240 . S
O15 In13 2.326 . S
O15 C23 1.252 . S
C16 O19 1.252 . S
C16 O20 1.260 . S
C17 O24 1.240 . S
C17 O25 1.252 . S
C18 O21 1.252 . S
C18 O22 1.260 . S
O19 In13 2.266 . S
O19 C16 1.252 . S
O20 In13 2.326 . S
O20 C16 1.260 . S
O21 In13 2.266 . S
O21 C18 1.252 . S
O22 In13 2.326 . S
O22 C18 1.260 . S
C23 O14 1.240 . S
C23 O15 1.252 . S
O24 In13 2.294 . S
O24 C17 1.240 . S
O25 In13 2.326 . S
O25 C17 1.252 . S
In26 O27 2.294 . S
In26 O28 2.326 . S
In26 O32 2.266 . S
In26 O33 2.326 . S
In26 O34 2.266 . S
In26 O35 2.326 . S
In26 O37 2.294 . S
In26 O38 2.326 . S
O27 In26 2.294 . S
O27 C36 1.240 . S
O28 In26 2.326 . S
O28 C36 1.252 . S
C29 O32 1.252 . S
C29 O33 1.260 . S
C30 O37 1.240 . S
C30 O38 1.252 . S
C31 O34 1.252 . S
C31 O35 1.260 . S
O32 In26 2.266 . S
O32 C29 1.252 . S
O33 In26 2.326 . S
O33 C29 1.260 . S
O34 In26 2.266 . S
O34 C31 1.252 . S
O35 In26 2.326 . S
O35 C31 1.260 . S
C36 O27 1.240 . S
C36 O28 1.252 . S
O37 In26 2.294 . S
O37 C30 1.240 . S
O38 In26 2.326 . S
O38 C30 1.252 . S
In39 O40 2.294 . S
In39 O41 2.326 . S
In39 O45 2.266 . S
In39 O46 2.326 . S
In39 O47 2.266 . S
In39 O48 2.326 . S
In39 O50 2.294 . S
In39 O51 2.326 . S
O40 In39 2.294 . S
O40 C49 1.240 . S
O41 In39 2.326 . S
O41 C49 1.252 . S
C42 O45 1.252 . S
C42 O46 1.260 . S
C43 O50 1.240 . S
C43 O51 1.252 . S
C44 O47 1.252 . S
C44 O48 1.260 . S
O45 In39 2.266 . S
O45 C42 1.252 . S
O46 In39 2.326 . S
O46 C42 1.260 . S
O47 In39 2.266 . S
O47 C44 1.252 . S
O48 In39 2.326 . S
O48 C44 1.260 . S
C49 O40 1.240 . S
C49 O41 1.252 . S
O50 In39 2.294 . S
O50 C43 1.240 . S
O51 In39 2.326 . S
O51 C43 1.252 . S
In52 O53 2.294 . S
In52 O54 2.326 . S
In52 O58 2.266 . S
In52 O59 2.326 . S
In52 O60 2.266 . S
In52 O61 2.326 . S
In52 O63 2.294 . S
In52 O64 2.326 . S
O53 In52 2.294 . S
O53 C62 1.240 . S
O54 In52 2.326 . S
O54 C62 1.252 . S
C55 O58 1.252 . S
C55 O59 1.260 . S
C56 O63 1.240 . S
C56 O64 1.252 . S
C57 O60 1.252 . S
C57 O61 1.260 . S
O58 In52 2.266 . S
O58 C55 1.252 . S
O59 In52 2.326 . S
O59 C55 1.260 . S
O60 In52 2.266 . S
O60 C57 1.252 . S
O61 In52 2.326 . S
O61 C57 1.260 . S
C62 O53 1.240 . S
C62 O54 1.252 . S
O63 In52 2.294 . S
O63 C56 1.240 . S
O64 In52 2.326 . S
O64 C56 1.252 . S
In65 O66 2.294 . S
In65 O67 2.326 . S
In65 O71 2.266 . S
In65 O72 2.326 . S
In65 O73 2.266 . S
In65 O74 2.326 . S
In65 O76 2.294 . S
In65 O77 2.326 . S
O66 In65 2.294 . S
O66 C75 1.240 . S
O67 In65 2.326 . S
O67 C75 1.252 . S
C68 O71 1.252 . S
C68 O72 1.260 . S
C69 O76 1.240 . S
C69 O77 1.252 . S
C70 O73 1.252 . S
C70 O74 1.260 . S
O71 In65 2.266 . S
O71 C68 1.252 . S
O72 In65 2.326 . S
O72 C68 1.260 . S
O73 In65 2.266 . S
O73 C70 1.252 . S
O74 In65 2.326 . S
O74 C70 1.260 . S
C75 O66 1.240 . S
C75 O67 1.252 . S
O76 In65 2.294 . S
O76 C69 1.240 . S
O77 In65 2.326 . S
O77 C69 1.252 . S
In78 O79 2.294 . S
In78 O80 2.326 . S
In78 O84 2.266 . S
In78 O85 2.326 . S
In78 O86 2.266 . S
In78 O87 2.326 . S
In78 O89 2.294 . S
In78 O90 2.326 . S
O79 In78 2.294 . S
O79 C88 1.240 . S
O80 In78 2.326 . S
O80 C88 1.252 . S
C81 O84 1.252 . S
C81 O85 1.260 . S
C82 O89 1.240 . S
C82 O90 1.252 . S
C83 O86 1.252 . S
C83 O87 1.260 . S
O84 In78 2.266 . S
O84 C81 1.252 . S
O85 In78 2.326 . S
O85 C81 1.260 . S
O86 In78 2.266 . S
O86 C83 1.252 . S
O87 In78 2.326 . S
O87 C83 1.260 . S
C88 O79 1.240 . S
C88 O80 1.252 . S
O89 In78 2.294 . S
O89 C82 1.240 . S
O90 In78 2.326 . S
O90 C82 1.252 . S
In91 O92 2.294 . S
In91 O93 2.326 . S
In91 O97 2.266 . S
In91 O98 2.326 . S
In91 O99 2.266 . S
In91 O100 2.326 . S
In91 O102 2.294 . S
In91 O103 2.326 . S
O92 In91 2.294 . S
O92 C101 1.240 . S
O93 In91 2.326 . S
O93 C101 1.252 . S
C94 O97 1.252 . S
C94 O98 1.260 . S
C95 O102 1.240 . S
C95 O103 1.252 . S
C96 O99 1.252 . S
C96 O100 1.260 . S
O97 In91 2.266 . S
O97 C94 1.252 . S
O98 In91 2.326 . S
O98 C94 1.260 . S
O99 In91 2.266 . S
O99 C96 1.252 . S
O100 In91 2.326 . S
O100 C96 1.260 . S
C101 O92 1.240 . S
C101 O93 1.252 . S
O102 In91 2.294 . S
O102 C95 1.240 . S
O103 In91 2.326 . S
O103 C95 1.252 . S
In104 O105 2.294 . S
In104 O106 2.326 . S
In104 O110 2.266 . S
In104 O111 2.326 . S
In104 O112 2.266 . S
In104 O113 2.326 . S
In104 O115 2.294 . S
In104 O116 2.326 . S
O105 In104 2.294 . S
O105 C114 1.240 . S
O106 In104 2.326 . S
O106 C114 1.252 . S
C107 O110 1.252 . S
C107 O111 1.260 . S
C108 O115 1.240 . S
C108 O116 1.252 . S
C109 O112 1.252 . S
C109 O113 1.260 . S
O110 In104 2.266 . S
O110 C107 1.252 . S
O111 In104 2.326 . S
O111 C107 1.260 . S
O112 In104 2.266 . S
O112 C109 1.252 . S
O113 In104 2.326 . S
O113 C109 1.260 . S
C114 O105 1.240 . S
C114 O106 1.252 . S
O115 In104 2.294 . S
O115 C108 1.240 . S
O116 In104 2.326 . S
O116 C108 1.252 . S
In117 O118 2.294 . S
In117 O119 2.326 . S
In117 O123 2.266 . S
In117 O124 2.326 . S
In117 O125 2.266 . S
In117 O126 2.326 . S
In117 O128 2.294 . S
In117 O129 2.326 . S
O118 In117 2.294 . S
O118 C127 1.240 . S
O119 In117 2.326 . S
O119 C127 1.252 . S
C120 O123 1.252 . S
C120 O124 1.260 . S
C121 O128 1.240 . S
C121 O129 1.252 . S
C122 O125 1.252 . S
C122 O126 1.260 . S
O123 In117 2.266 . S
O123 C120 1.252 . S
O124 In117 2.326 . S
O124 C120 1.260 . S
O125 In117 2.266 . S
O125 C122 1.252 . S
O126 In117 2.326 . S
O126 C122 1.260 . S
C127 O118 1.240 . S
C127 O119 1.252 . S
O128 In117 2.294 . S
O128 C121 1.240 . S
O129 In117 2.326 . S
O129 C121 1.252 . S
In130 O131 2.294 . S
In130 O132 2.326 . S
In130 O136 2.266 . S
In130 O137 2.326 . S
In130 O138 2.266 . S
In130 O139 2.326 . S
In130 O141 2.294 . S
In130 O142 2.326 . S
O131 In130 2.294 . S
O131 C140 1.240 . S
O132 In130 2.326 . S
O132 C140 1.252 . S
C133 O136 1.252 . S
C133 O137 1.260 . S
C134 O141 1.240 . S
C134 O142 1.252 . S
C135 O138 1.252 . S
C135 O139 1.260 . S
O136 In130 2.266 . S
O136 C133 1.252 . S
O137 In130 2.326 . S
O137 C133 1.260 . S
O138 In130 2.266 . S
O138 C135 1.252 . S
O139 In130 2.326 . S
O139 C135 1.260 . S
C140 O131 1.240 . S
C140 O132 1.252 . S
O141 In130 2.294 . S
O141 C134 1.240 . S
O142 In130 2.326 . S
O142 C134 1.252 . S
In143 O144 2.294 . S
In143 O145 2.326 . S
In143 O149 2.266 . S
In143 O150 2.326 . S
In143 O151 2.266 . S
In143 O152 2.326 . S
In143 O154 2.294 . S
In143 O155 2.326 . S
O144 In143 2.294 . S
O144 C153 1.240 . S
O145 In143 2.326 . S
O145 C153 1.252 . S
C146 O149 1.252 . S
C146 O150 1.260 . S
C147 O154 1.240 . S
C147 O155 1.252 . S
C148 O151 1.252 . S
C148 O152 1.260 . S
O149 In143 2.266 . S
O149 C146 1.252 . S
O150 In143 2.326 . S
O150 C146 1.260 . S
O151 In143 2.266 . S
O151 C148 1.252 . S
O152 In143 2.326 . S
O152 C148 1.260 . S
C153 O144 1.240 . S
C153 O145 1.252 . S
O154 In143 2.294 . S
O154 C147 1.240 . S
O155 In143 2.326 . S
O155 C147 1.252 . S
In156 O157 2.294 . S
In156 O158 2.326 . S
In156 O162 2.266 . S
In156 O163 2.326 . S
In156 O164 2.266 . S
In156 O165 2.326 . S
In156 O167 2.294 . S
In156 O168 2.326 . S
O157 In156 2.294 . S
O157 C166 1.240 . S
O158 In156 2.326 . S
O158 C166 1.252 . S
C159 O162 1.252 . S
C159 O163 1.260 . S
C160 O167 1.240 . S
C160 O168 1.252 . S
C161 O164 1.252 . S
C161 O165 1.260 . S
O162 In156 2.266 . S
O162 C159 1.252 . S
O163 In156 2.326 . S
O163 C159 1.260 . S
O164 In156 2.266 . S
O164 C161 1.252 . S
O165 In156 2.326 . S
O165 C161 1.260 . S
C166 O157 1.240 . S
C166 O158 1.252 . S
O167 In156 2.294 . S
O167 C160 1.240 . S
O168 In156 2.326 . S
O168 C160 1.252 . S
In169 O170 2.294 . S
In169 O171 2.326 . S
In169 O175 2.266 . S
In169 O176 2.326 . S
In169 O177 2.266 . S
In169 O178 2.326 . S
In169 O180 2.294 . S
In169 O181 2.326 . S
O170 In169 2.294 . S
O170 C179 1.240 . S
O171 In169 2.326 . S
O171 C179 1.252 . S
C172 O175 1.252 . S
C172 O176 1.260 . S
C173 O180 1.240 . S
C173 O181 1.252 . S
C174 O177 1.252 . S
C174 O178 1.260 . S
O175 In169 2.266 . S
O175 C172 1.252 . S
O176 In169 2.326 . S
O176 C172 1.260 . S
O177 In169 2.266 . S
O177 C174 1.252 . S
O178 In169 2.326 . S
O178 C174 1.260 . S
C179 O170 1.240 . S
C179 O171 1.252 . S
O180 In169 2.294 . S
O180 C173 1.240 . S
O181 In169 2.326 . S
O181 C173 1.252 . S
In182 O183 2.294 . S
In182 O184 2.326 . S
In182 O188 2.266 . S
In182 O189 2.326 . S
In182 O190 2.266 . S
In182 O191 2.326 . S
In182 O193 2.294 . S
In182 O194 2.326 . S
O183 In182 2.294 . S
O183 C192 1.240 . S
O184 In182 2.326 . S
O184 C192 1.252 . S
C185 O188 1.252 . S
C185 O189 1.260 . S
C186 O193 1.240 . S
C186 O194 1.252 . S
C187 O190 1.252 . S
C187 O191 1.260 . S
O188 In182 2.266 . S
O188 C185 1.252 . S
O189 In182 2.326 . S
O189 C185 1.260 . S
O190 In182 2.266 . S
O190 C187 1.252 . S
O191 In182 2.326 . S
O191 C187 1.260 . S
C192 O183 1.240 . S
C192 O184 1.252 . S
O193 In182 2.294 . S
O193 C186 1.240 . S
O194 In182 2.326 . S
O194 C186 1.252 . S
In195 O196 2.294 . S
In195 O197 2.326 . S
In195 O201 2.266 . S
In195 O202 2.326 . S
In195 O203 2.266 . S
In195 O204 2.326 . S
In195 O206 2.294 . S
In195 O207 2.326 . S
O196 In195 2.294 . S
O196 C205 1.240 . S
O197 In195 2.326 . S
O197 C205 1.252 . S
C198 O201 1.252 . S
C198 O202 1.260 . S
C199 O206 1.240 . S
C199 O207 1.252 . S
C200 O203 1.252 . S
C200 O204 1.260 . S
O201 In195 2.266 . S
O201 C198 1.252 . S
O202 In195 2.326 . S
O202 C198 1.260 . S
O203 In195 2.266 . S
O203 C200 1.252 . S
O204 In195 2.326 . S
O204 C200 1.260 . S
C205 O196 1.240 . S
C205 O197 1.252 . S
O206 In195 2.294 . S
O206 C199 1.240 . S
O207 In195 2.326 . S
O207 C199 1.252 . S
H208 C226 0.951 . S
H209 C228 0.951 . S
H210 C230 0.950 . S
H211 C231 0.950 . S
H212 C233 0.950 . S
H213 C236 0.950 . S
H214 C237 0.950 . S
H215 C239 0.950 . S
H216 C240 0.950 . S
H217 C241 0.951 . S
H218 C243 0.951 . S
H219 C245 0.950 . S
H220 C246 0.950 . S
H221 C248 0.950 . S
H222 C251 0.950 . S
H223 C252 0.950 . S
H224 C254 0.950 . S
H225 C255 0.950 . S
C226 H208 0.951 . S
C226 C227 1.366 . S
C226 C228 1.388 . S
C227 C226 1.366 . S
C227 C231 1.385 . S
C228 H209 0.951 . S
C228 C226 1.388 . S
C228 C229 1.366 . S
C229 C228 1.366 . S
C229 C230 1.414 . S
C229 C232 1.499 . S
C230 H210 0.950 . S
C230 C229 1.414 . S
C230 C231 1.374 . S
C231 H211 0.950 . S
C231 C227 1.385 . S
C231 C230 1.374 . S
C232 C229 1.499 . S
C232 C233 1.373 . S
C232 C234 1.389 . S
C233 H212 0.950 . S
C233 C232 1.373 . S
C233 C249 1.377 1_455 S
C234 C232 1.389 . S
C234 C235 1.524 . S
C234 C248 1.377 1_455 S
C235 C234 1.524 . S
C235 C236 1.397 . S
C235 C240 1.363 1_455 S
C236 H213 0.950 . S
C236 C235 1.397 . S
C236 C237 1.334 . S
C237 H214 0.950 . S
C237 C236 1.334 . S
C237 C238 1.287 . S
C238 C237 1.287 . S
C238 C239 1.524 1_455 S
C238 H257 0.913 . S
C239 H215 0.950 . S
C239 C238 1.524 1_655 S
C239 C240 1.415 . S
C240 H216 0.950 . S
C240 C235 1.363 1_655 S
C240 C239 1.415 . S
C241 H217 0.951 . S
C241 C242 1.366 . S
C241 C243 1.388 . S
C242 C241 1.366 . S
C242 C246 1.385 . S
C243 H218 0.951 . S
C243 C241 1.388 . S
C243 C244 1.366 . S
C244 C243 1.366 . S
C244 C245 1.414 . S
C244 C247 1.499 . S
C245 H219 0.950 . S
C245 C244 1.414 . S
C245 C246 1.374 . S
C246 H220 0.950 . S
C246 C242 1.385 . S
C246 C245 1.374 . S
C247 C244 1.499 . S
C247 C248 1.373 . S
C247 C249 1.389 . S
C248 H221 0.950 . S
C248 C234 1.377 1_655 S
C248 C247 1.373 . S
C249 C233 1.377 1_655 S
C249 C247 1.389 . S
C249 C250 1.524 . S
C250 C249 1.524 . S
C250 C251 1.397 . S
C250 C255 1.363 1_655 S
C251 H222 0.950 . S
C251 C250 1.397 . S
C251 C252 1.334 . S
C252 H223 0.950 . S
C252 C251 1.334 . S
C252 C253 1.287 . S
C253 C252 1.287 . S
C253 C254 1.524 1_655 S
C253 H256 0.999 . S
C254 H224 0.950 . S
C254 C253 1.524 1_455 S
C254 C255 1.415 . S
C255 H225 0.950 . S
C255 C250 1.363 1_455 S
C255 C254 1.415 . S
H256 C253 0.999 . S
H257 C238 0.913 . S
H258 C276 0.951 . S
H259 C278 0.951 . S
H260 C280 0.950 . S
H261 C281 0.950 . S
H262 C283 0.950 . S
H263 C286 0.950 . S
H264 C287 0.950 . S
H265 C289 0.950 . S
H266 C290 0.950 . S
H267 C291 0.951 . S
H268 C293 0.951 . S
H269 C295 0.950 . S
H270 C296 0.950 . S
H271 C298 0.950 . S
H272 C301 0.950 . S
H273 C302 0.950 . S
H274 C304 0.950 . S
H275 C305 0.950 . S
C276 H258 0.951 . S
C276 C277 1.366 . S
C276 C278 1.388 . S
C277 C276 1.366 . S
C277 C281 1.385 . S
C278 H259 0.951 . S
C278 C276 1.388 . S
C278 C279 1.366 . S
C279 C278 1.366 . S
C279 C280 1.414 . S
C279 C282 1.499 . S
C280 H260 0.950 . S
C280 C279 1.414 . S
C280 C281 1.374 . S
C281 H261 0.950 . S
C281 C277 1.385 . S
C281 C280 1.374 . S
C282 C279 1.499 . S
C282 C283 1.373 . S
C282 C284 1.389 . S
C283 H262 0.950 . S
C283 C282 1.373 . S
C283 C299 1.377 1_565 S
C284 C282 1.389 . S
C284 C285 1.524 . S
C284 C298 1.377 1_565 S
C285 C284 1.524 . S
C285 C286 1.397 . S
C285 C290 1.363 . S
C286 H263 0.950 . S
C286 C285 1.397 . S
C286 C287 1.334 . S
C287 H264 0.950 . S
C287 C286 1.334 . S
C287 C288 1.287 . S
C288 C287 1.287 . S
C288 C289 1.524 . S
C288 H307 0.913 . S
C289 H265 0.950 . S
C289 C288 1.524 . S
C289 C290 1.415 . S
C290 H266 0.950 . S
C290 C285 1.363 . S
C290 C289 1.415 . S
C291 H267 0.951 . S
C291 C292 1.366 . S
C291 C293 1.388 . S
C292 C291 1.366 . S
C292 C296 1.385 . S
C293 H268 0.951 . S
C293 C291 1.388 . S
C293 C294 1.366 . S
C294 C293 1.366 . S
C294 C295 1.414 . S
C294 C297 1.499 . S
C295 H269 0.950 . S
C295 C294 1.414 . S
C295 C296 1.374 . S
C296 H270 0.950 . S
C296 C292 1.385 . S
C296 C295 1.374 . S
C297 C294 1.499 . S
C297 C298 1.373 . S
C297 C299 1.389 . S
C298 H271 0.950 . S
C298 C284 1.377 1_545 S
C298 C297 1.373 . S
C299 C283 1.377 1_545 S
C299 C297 1.389 . S
C299 C300 1.524 . S
C300 C299 1.524 . S
C300 C301 1.397 . S
C300 C305 1.363 . S
C301 H272 0.950 . S
C301 C300 1.397 . S
C301 C302 1.334 . S
C302 H273 0.950 . S
C302 C301 1.334 . S
C302 C303 1.287 . S
C303 C302 1.287 . S
C303 C304 1.524 . S
C303 H306 0.999 . S
C304 H274 0.950 . S
C304 C303 1.524 . S
C304 C305 1.415 . S
C305 H275 0.950 . S
C305 C300 1.363 . S
C305 C304 1.415 . S
H306 C303 0.999 . S
H307 C288 0.913 . S
H308 C326 0.951 . S
H309 C328 0.951 . S
H310 C330 0.950 . S
H311 C331 0.950 . S
H312 C333 0.950 . S
H313 C336 0.950 . S
H314 C337 0.950 . S
H315 C339 0.950 . S
H316 C340 0.950 . S
H317 C341 0.951 . S
H318 C343 0.951 . S
H319 C345 0.950 . S
H320 C346 0.950 . S
H321 C348 0.950 . S
H322 C351 0.950 . S
H323 C352 0.950 . S
H324 C354 0.950 . S
H325 C355 0.950 . S
C326 H308 0.951 . S
C326 C327 1.366 . S
C326 C328 1.388 . S
C327 C326 1.366 . S
C327 C331 1.385 . S
C328 H309 0.951 . S
C328 C326 1.388 . S
C328 C329 1.366 . S
C329 C328 1.366 . S
C329 C330 1.414 . S
C329 C332 1.499 . S
C330 H310 0.950 . S
C330 C329 1.414 . S
C330 C331 1.374 . S
C331 H311 0.950 . S
C331 C327 1.385 . S
C331 C330 1.374 . S
C332 C329 1.499 . S
C332 C333 1.373 . S
C332 C334 1.389 . S
C333 H312 0.950 . S
C333 C332 1.373 . S
C333 C349 1.377 1_455 S
C334 C332 1.389 . S
C334 C335 1.524 . S
C334 C348 1.377 1_455 S
C335 C334 1.524 . S
C335 C336 1.397 . S
C335 C340 1.363 . S
C336 H313 0.950 . S
C336 C335 1.397 . S
C336 C337 1.334 . S
C337 H314 0.950 . S
C337 C336 1.334 . S
C337 C338 1.287 . S
C338 C337 1.287 . S
C338 C339 1.524 . S
C338 H357 0.913 . S
C339 H315 0.950 . S
C339 C338 1.524 . S
C339 C340 1.415 . S
C340 H316 0.950 . S
C340 C335 1.363 . S
C340 C339 1.415 . S
C341 H317 0.951 . S
C341 C342 1.366 . S
C341 C343 1.388 . S
C342 C341 1.366 . S
C342 C346 1.385 . S
C343 H318 0.951 . S
C343 C341 1.388 . S
C343 C344 1.366 . S
C344 C343 1.366 . S
C344 C345 1.414 . S
C344 C347 1.499 . S
C345 H319 0.950 . S
C345 C344 1.414 . S
C345 C346 1.374 . S
C346 H320 0.950 . S
C346 C342 1.385 . S
C346 C345 1.374 . S
C347 C344 1.499 . S
C347 C348 1.373 . S
C347 C349 1.389 . S
C348 H321 0.950 . S
C348 C334 1.377 1_655 S
C348 C347 1.373 . S
C349 C333 1.377 1_655 S
C349 C347 1.389 . S
C349 C350 1.524 . S
C350 C349 1.524 . S
C350 C351 1.397 . S
C350 C355 1.363 . S
C351 H322 0.950 . S
C351 C350 1.397 . S
C351 C352 1.334 . S
C352 H323 0.950 . S
C352 C351 1.334 . S
C352 C353 1.287 . S
C353 C352 1.287 . S
C353 C354 1.524 . S
C353 H356 0.999 . S
C354 H324 0.950 . S
C354 C353 1.524 . S
C354 C355 1.415 . S
C355 H325 0.950 . S
C355 C350 1.363 . S
C355 C354 1.415 . S
H356 C353 0.999 . S
H357 C338 0.913 . S
H358 C376 0.951 . S
H359 C378 0.951 . S
H360 C380 0.950 . S
H361 C381 0.950 . S
H362 C383 0.950 . S
H363 C386 0.950 . S
H364 C387 0.950 . S
H365 C389 0.950 . S
H366 C390 0.950 . S
H367 C391 0.951 . S
H368 C393 0.951 . S
H369 C395 0.950 . S
H370 C396 0.950 . S
H371 C398 0.950 . S
H372 C401 0.950 . S
H373 C402 0.950 . S
H374 C404 0.950 . S
H375 C405 0.950 . S
C376 H358 0.951 . S
C376 C377 1.366 . S
C376 C378 1.388 . S
C377 C376 1.366 . S
C377 C381 1.385 . S
C378 H359 0.951 . S
C378 C376 1.388 . S
C378 C379 1.366 . S
C379 C378 1.366 . S
C379 C380 1.414 . S
C379 C382 1.499 . S
C380 H360 0.950 . S
C380 C379 1.414 . S
C380 C381 1.374 . S
C381 H361 0.950 . S
C381 C377 1.385 . S
C381 C380 1.374 . S
C382 C379 1.499 . S
C382 C383 1.373 . S
C382 C384 1.389 . S
C383 H362 0.950 . S
C383 C382 1.373 . S
C383 C399 1.377 1_565 S
C384 C382 1.389 . S
C384 C385 1.524 . S
C384 C398 1.377 1_565 S
C385 C384 1.524 . S
C385 C386 1.397 . S
C385 C390 1.363 1_565 S
C386 H363 0.950 . S
C386 C385 1.397 . S
C386 C387 1.334 . S
C387 H364 0.950 . S
C387 C386 1.334 . S
C387 C388 1.313 . S
C388 C387 1.313 . S
C388 C389 1.499 1_565 S
C388 H407 0.916 . S
C389 H365 0.950 . S
C389 C388 1.499 1_545 S
C389 C390 1.415 . S
C390 H366 0.950 . S
C390 C385 1.363 1_545 S
C390 C389 1.415 . S
C391 H367 0.951 . S
C391 C392 1.366 . S
C391 C393 1.388 . S
C392 C391 1.366 . S
C392 C396 1.385 . S
C393 H368 0.951 . S
C393 C391 1.388 . S
C393 C394 1.366 . S
C394 C393 1.366 . S
C394 C395 1.414 . S
C394 C397 1.499 . S
C395 H369 0.950 . S
C395 C394 1.414 . S
C395 C396 1.374 . S
C396 H370 0.950 . S
C396 C392 1.385 . S
C396 C395 1.374 . S
C397 C394 1.499 . S
C397 C398 1.373 . S
C397 C399 1.389 . S
C398 H371 0.950 . S
C398 C384 1.377 1_545 S
C398 C397 1.373 . S
C399 C383 1.377 1_545 S
C399 C397 1.389 . S
C399 C400 1.524 . S
C400 C399 1.524 . S
C400 C401 1.397 . S
C400 C405 1.363 1_545 S
C401 H372 0.950 . S
C401 C400 1.397 . S
C401 C402 1.334 . S
C402 H373 0.950 . S
C402 C401 1.334 . S
C402 C403 1.313 . S
C403 C402 1.313 . S
C403 C404 1.499 1_545 S
C403 H406 0.999 . S
C404 H374 0.950 . S
C404 C403 1.499 1_565 S
C404 C405 1.415 . S
C405 H375 0.950 . S
C405 C400 1.363 1_565 S
C405 C404 1.415 . S
H406 C403 0.999 . S
H407 C388 0.916 . S
H408 C426 0.951 . S
H409 C428 0.951 . S
H410 C430 0.950 . S
H411 C431 0.950 . S
H412 C433 0.950 . S
H413 C436 0.950 . S
H414 C437 0.950 . S
H415 C439 0.950 . S
H416 C440 0.950 . S
H417 C441 0.951 . S
H418 C443 0.951 . S
H419 C445 0.950 . S
H420 C446 0.950 . S
H421 C448 0.950 . S
H422 C451 0.950 . S
H423 C452 0.950 . S
H424 C454 0.950 . S
H425 C455 0.950 . S
C426 H408 0.951 . S
C426 C427 1.366 . S
C426 C428 1.388 . S
C427 C426 1.366 . S
C427 C431 1.385 . S
C428 H409 0.951 . S
C428 C426 1.388 . S
C428 C429 1.366 . S
C429 C428 1.366 . S
C429 C430 1.414 . S
C429 C432 1.499 . S
C430 H410 0.950 . S
C430 C429 1.414 . S
C430 C431 1.374 . S
C431 H411 0.950 . S
C431 C427 1.385 . S
C431 C430 1.374 . S
C432 C429 1.499 . S
C432 C433 1.373 . S
C432 C434 1.389 . S
C433 H412 0.950 . S
C433 C432 1.373 . S
C433 C449 1.377 1_655 S
C434 C432 1.389 . S
C434 C435 1.524 . S
C434 C448 1.377 1_655 S
C435 C434 1.524 . S
C435 C436 1.397 . S
C435 C440 1.363 1_655 S
C436 H413 0.950 . S
C436 C435 1.397 . S
C436 C437 1.334 . S
C437 H414 0.950 . S
C437 C436 1.334 . S
C437 C438 1.287 . S
C438 C437 1.287 . S
C438 C439 1.524 1_655 S
C438 H457 0.913 . S
C439 H415 0.950 . S
C439 C438 1.524 1_455 S
C439 C440 1.415 . S
C440 H416 0.950 . S
C440 C435 1.363 1_455 S
C440 C439 1.415 . S
C441 H417 0.951 . S
C441 C442 1.366 . S
C441 C443 1.388 . S
C442 C441 1.366 . S
C442 C446 1.385 . S
C443 H418 0.951 . S
C443 C441 1.388 . S
C443 C444 1.366 . S
C444 C443 1.366 . S
C444 C445 1.414 . S
C444 C447 1.499 . S
C445 H419 0.950 . S
C445 C444 1.414 . S
C445 C446 1.374 . S
C446 H420 0.950 . S
C446 C442 1.385 . S
C446 C445 1.374 . S
C447 C444 1.499 . S
C447 C448 1.373 . S
C447 C449 1.389 . S
C448 H421 0.950 . S
C448 C434 1.377 1_455 S
C448 C447 1.373 . S
C449 C433 1.377 1_455 S
C449 C447 1.389 . S
C449 C450 1.524 . S
C450 C449 1.524 . S
C450 C451 1.397 . S
C450 C455 1.363 1_455 S
C451 H422 0.950 . S
C451 C450 1.397 . S
C451 C452 1.334 . S
C452 H423 0.950 . S
C452 C451 1.334 . S
C452 C453 1.287 . S
C453 C452 1.287 . S
C453 C454 1.524 1_455 S
C453 H456 0.999 . S
C454 H424 0.950 . S
C454 C453 1.524 1_655 S
C454 C455 1.415 . S
C455 H425 0.950 . S
C455 C450 1.363 1_655 S
C455 C454 1.415 . S
H456 C453 0.999 . S
H457 C438 0.913 . S
H458 C476 0.951 . S
H459 C478 0.951 . S
H460 C480 0.950 . S
H461 C481 0.950 . S
H462 C483 0.950 . S
H463 C486 0.950 . S
H464 C487 0.950 . S
H465 C489 0.950 . S
H466 C490 0.950 . S
H467 C491 0.951 . S
H468 C493 0.951 . S
H469 C495 0.950 . S
H470 C496 0.950 . S
H471 C498 0.950 . S
H472 C501 0.950 . S
H473 C502 0.950 . S
H474 C504 0.950 . S
H475 C505 0.950 . S
C476 H458 0.951 . S
C476 C477 1.366 . S
C476 C478 1.388 . S
C477 C476 1.366 . S
C477 C481 1.385 . S
C478 H459 0.951 . S
C478 C476 1.388 . S
C478 C479 1.366 . S
C479 C478 1.366 . S
C479 C480 1.414 . S
C479 C482 1.499 . S
C480 H460 0.950 . S
C480 C479 1.414 . S
C480 C481 1.374 . S
C481 H461 0.950 . S
C481 C477 1.385 . S
C481 C480 1.374 . S
C482 C479 1.499 . S
C482 C483 1.373 . S
C482 C484 1.389 . S
C483 H462 0.950 . S
C483 C482 1.373 . S
C483 C499 1.377 1_545 S
C484 C482 1.389 . S
C484 C485 1.524 . S
C484 C498 1.377 1_545 S
C485 C484 1.524 . S
C485 C486 1.397 . S
C485 C490 1.363 . S
C486 H463 0.950 . S
C486 C485 1.397 . S
C486 C487 1.334 . S
C487 H464 0.950 . S
C487 C486 1.334 . S
C487 C488 1.287 . S
C488 C487 1.287 . S
C488 C489 1.524 . S
C488 H507 0.913 . S
C489 H465 0.950 . S
C489 C488 1.524 . S
C489 C490 1.415 . S
C490 H466 0.950 . S
C490 C485 1.363 . S
C490 C489 1.415 . S
C491 H467 0.951 . S
C491 C492 1.366 . S
C491 C493 1.388 . S
C492 C491 1.366 . S
C492 C496 1.385 . S
C493 H468 0.951 . S
C493 C491 1.388 . S
C493 C494 1.366 . S
C494 C493 1.366 . S
C494 C495 1.414 . S
C494 C497 1.499 . S
C495 H469 0.950 . S
C495 C494 1.414 . S
C495 C496 1.374 . S
C496 H470 0.950 . S
C496 C492 1.385 . S
C496 C495 1.374 . S
C497 C494 1.499 . S
C497 C498 1.373 . S
C497 C499 1.389 . S
C498 H471 0.950 . S
C498 C484 1.377 1_565 S
C498 C497 1.373 . S
C499 C483 1.377 1_565 S
C499 C497 1.389 . S
C499 C500 1.524 . S
C500 C499 1.524 . S
C500 C501 1.397 . S
C500 C505 1.363 . S
C501 H472 0.950 . S
C501 C500 1.397 . S
C501 C502 1.334 . S
C502 H473 0.950 . S
C502 C501 1.334 . S
C502 C503 1.287 . S
C503 C502 1.287 . S
C503 C504 1.524 . S
C503 H506 0.999 . S
C504 H474 0.950 . S
C504 C503 1.524 . S
C504 C505 1.415 . S
C505 H475 0.950 . S
C505 C500 1.363 . S
C505 C504 1.415 . S
H506 C503 0.999 . S
H507 C488 0.913 . S
H508 C526 0.951 . S
H509 C528 0.951 . S
H510 C530 0.950 . S
H511 C531 0.950 . S
H512 C533 0.950 . S
H513 C536 0.950 . S
H514 C537 0.950 . S
H515 C539 0.950 . S
H516 C540 0.950 1_455 S
H517 C541 0.951 . S
H518 C543 0.951 . S
H519 C545 0.950 . S
H520 C546 0.950 . S
H521 C548 0.950 . S
H522 C551 0.950 . S
H523 C552 0.950 . S
H524 C554 0.950 . S
H525 C555 0.950 1_655 S
C526 H508 0.951 . S
C526 C527 1.366 . S
C526 C528 1.388 . S
C527 C526 1.366 . S
C527 C531 1.385 . S
C528 H509 0.951 . S
C528 C526 1.388 . S
C528 C529 1.366 . S
C529 C528 1.366 . S
C529 C530 1.414 . S
C529 C532 1.499 . S
C530 H510 0.950 . S
C530 C529 1.414 . S
C530 C531 1.374 . S
C531 H511 0.950 . S
C531 C527 1.385 . S
C531 C530 1.374 . S
C532 C529 1.499 . S
C532 C533 1.373 . S
C532 C534 1.389 . S
C533 H512 0.950 . S
C533 C532 1.373 . S
C533 C549 1.377 1_655 S
C534 C532 1.389 . S
C534 C535 1.524 . S
C534 C548 1.377 1_655 S
C535 C534 1.524 . S
C535 C536 1.397 . S
C535 C540 1.363 . S
C536 H513 0.950 . S
C536 C535 1.397 . S
C536 C537 1.334 . S
C537 H514 0.950 . S
C537 C536 1.334 . S
C537 C538 1.287 . S
C538 C537 1.287 . S
C538 C539 1.524 . S
C538 H557 0.913 . S
C539 H515 0.950 . S
C539 C538 1.524 . S
C539 C540 1.415 . S
C540 H516 0.950 1_655 S
C540 C535 1.363 . S
C540 C539 1.415 . S
C541 H517 0.951 . S
C541 C542 1.366 . S
C541 C543 1.388 . S
C542 C541 1.366 . S
C542 C546 1.385 . S
C543 H518 0.951 . S
C543 C541 1.388 . S
C543 C544 1.366 . S
C544 C543 1.366 . S
C544 C545 1.414 . S
C544 C547 1.499 . S
C545 H519 0.950 . S
C545 C544 1.414 . S
C545 C546 1.374 . S
C546 H520 0.950 . S
C546 C542 1.385 . S
C546 C545 1.374 . S
C547 C544 1.499 . S
C547 C548 1.373 . S
C547 C549 1.389 . S
C548 H521 0.950 . S
C548 C534 1.377 1_455 S
C548 C547 1.373 . S
C549 C533 1.377 1_455 S
C549 C547 1.389 . S
C549 C550 1.524 . S
C550 C549 1.524 . S
C550 C551 1.397 . S
C550 C555 1.363 . S
C551 H522 0.950 . S
C551 C550 1.397 . S
C551 C552 1.334 . S
C552 H523 0.950 . S
C552 C551 1.334 . S
C552 C553 1.287 . S
C553 C552 1.287 . S
C553 C554 1.524 . S
C553 H556 0.999 . S
C554 H524 0.950 . S
C554 C553 1.524 . S
C554 C555 1.415 . S
C555 H525 0.950 1_455 S
C555 C550 1.363 . S
C555 C554 1.415 . S
H556 C553 0.999 . S
H557 C538 0.913 . S
H558 C576 0.951 . S
H559 C578 0.951 . S
H560 C580 0.950 . S
H561 C581 0.950 . S
H562 C583 0.950 . S
H563 C586 0.950 . S
H564 C587 0.950 . S
H565 C589 0.950 . S
H566 C590 0.950 1_565 S
H567 C591 0.951 . S
H568 C593 0.951 . S
H569 C595 0.950 . S
H570 C596 0.950 . S
H571 C598 0.950 . S
H572 C601 0.950 . S
H573 C602 0.950 . S
H574 C604 0.950 . S
H575 C605 0.950 1_545 S
C576 H558 0.951 . S
C576 C577 1.366 . S
C576 C578 1.388 . S
C577 C576 1.366 . S
C577 C581 1.385 . S
C578 H559 0.951 . S
C578 C576 1.388 . S
C578 C579 1.366 . S
C579 C578 1.366 . S
C579 C580 1.414 . S
C579 C582 1.499 . S
C580 H560 0.950 . S
C580 C579 1.414 . S
C580 C581 1.374 . S
C581 H561 0.950 . S
C581 C577 1.385 . S
C581 C580 1.374 . S
C582 C579 1.499 . S
C582 C583 1.373 . S
C582 C584 1.389 . S
C583 H562 0.950 . S
C583 C582 1.373 . S
C583 C599 1.377 1_545 S
C584 C582 1.389 . S
C584 C585 1.524 . S
C584 C598 1.377 1_545 S
C585 C584 1.524 . S
C585 C586 1.397 . S
C585 C590 1.363 . S
C586 H563 0.950 . S
C586 C585 1.397 . S
C586 C587 1.334 . S
C587 H564 0.950 . S
C587 C586 1.334 . S
C587 C588 1.287 . S
C588 C587 1.287 . S
C588 C589 1.524 . S
C588 H607 0.913 . S
C589 H565 0.950 . S
C589 C588 1.524 . S
C589 C590 1.415 . S
C590 H566 0.950 1_545 S
C590 C585 1.363 . S
C590 C589 1.415 . S
C591 H567 0.951 . S
C591 C592 1.366 . S
C591 C593 1.388 . S
C592 C591 1.366 . S
C592 C596 1.385 . S
C593 H568 0.951 . S
C593 C591 1.388 . S
C593 C594 1.366 . S
C594 C593 1.366 . S
C594 C595 1.414 . S
C594 C597 1.499 . S
C595 H569 0.950 . S
C595 C594 1.414 . S
C595 C596 1.374 . S
C596 H570 0.950 . S
C596 C592 1.385 . S
C596 C595 1.374 . S
C597 C594 1.499 . S
C597 C598 1.373 . S
C597 C599 1.389 . S
C598 H571 0.950 . S
C598 C584 1.377 1_565 S
C598 C597 1.373 . S
C599 C583 1.377 1_565 S
C599 C597 1.389 . S
C599 C600 1.524 . S
C600 C599 1.524 . S
C600 C601 1.397 . S
C600 C605 1.363 . S
C601 H572 0.950 . S
C601 C600 1.397 . S
C601 C602 1.334 . S
C602 H573 0.950 . S
C602 C601 1.334 . S
C602 C603 1.287 . S
C603 C602 1.287 . S
C603 C604 1.524 . S
C603 H606 0.999 . S
C604 H574 0.950 . S
C604 C603 1.524 . S
C604 C605 1.415 . S
C605 H575 0.950 1_565 S
C605 C600 1.363 . S
C605 C604 1.415 . S
H606 C603 0.999 . S
H607 C588 0.913 . S
H608 C626 0.951 . S
H609 C628 0.951 . S
H610 C630 0.950 . S
H611 C631 0.950 . S
H612 C633 0.950 . S
H613 C636 0.950 . S
H614 C637 0.950 . S
H615 C639 0.950 . S
H616 C640 0.950 . S
H617 C641 0.951 . S
H618 C643 0.951 . S
H619 C645 0.950 . S
H620 C646 0.950 . S
H621 C648 0.950 . S
H622 C651 0.950 . S
H623 C652 0.950 . S
H624 C654 0.950 . S
H625 C655 0.950 . S
C626 H608 0.951 . S
C626 C627 1.366 . S
C626 C628 1.388 . S
C627 C626 1.366 . S
C627 C631 1.385 . S
C628 H609 0.951 . S
C628 C626 1.388 . S
C628 C629 1.366 . S
C629 C628 1.366 . S
C629 C630 1.414 . S
C629 C632 1.499 . S
C630 H610 0.950 . S
C630 C629 1.414 . S
C630 C631 1.374 . S
C631 H611 0.950 . S
C631 C627 1.385 . S
C631 C630 1.374 . S
C632 C629 1.499 . S
C632 C633 1.373 . S
C632 C634 1.389 . S
C633 H612 0.950 . S
C633 C632 1.373 . S
C633 C649 1.377 . S
C634 C632 1.389 . S
C634 C635 1.524 . S
C634 C648 1.377 . S
C635 C634 1.524 . S
C635 C636 1.397 . S
C635 C640 1.363 . S
C636 H613 0.950 . S
C636 C635 1.397 . S
C636 C637 1.334 . S
C637 H614 0.950 . S
C637 C636 1.334 . S
C637 C638 1.287 . S
C638 C637 1.287 . S
C638 C639 1.524 . S
C638 H657 0.913 . S
C639 H615 0.950 . S
C639 C638 1.524 . S
C639 C640 1.415 . S
C640 H616 0.950 . S
C640 C635 1.363 . S
C640 C639 1.415 . S
C641 H617 0.951 . S
C641 C642 1.366 . S
C641 C643 1.388 . S
C642 C641 1.366 . S
C642 C646 1.385 . S
C643 H618 0.951 . S
C643 C641 1.388 . S
C643 C644 1.366 . S
C644 C643 1.366 . S
C644 C645 1.414 . S
C644 C647 1.499 . S
C645 H619 0.950 . S
C645 C644 1.414 . S
C645 C646 1.374 . S
C646 H620 0.950 . S
C646 C642 1.385 . S
C646 C645 1.374 . S
C647 C644 1.499 . S
C647 C648 1.373 . S
C647 C649 1.389 . S
C648 H621 0.950 . S
C648 C634 1.377 . S
C648 C647 1.373 . S
C649 C633 1.377 . S
C649 C647 1.389 . S
C649 C650 1.524 . S
C650 C649 1.524 . S
C650 C651 1.397 . S
C650 C655 1.363 . S
C651 H622 0.950 . S
C651 C650 1.397 . S
C651 C652 1.334 . S
C652 H623 0.950 . S
C652 C651 1.334 . S
C652 C653 1.287 . S
C653 C652 1.287 . S
C653 C654 1.524 . S
C653 H656 0.999 . S
C654 H624 0.950 . S
C654 C653 1.524 . S
C654 C655 1.415 . S
C655 H625 0.950 . S
C655 C650 1.363 . S
C655 C654 1.415 . S
H656 C653 0.999 . S
H657 C638 0.913 . S
H658 C676 0.951 . S
H659 C678 0.951 . S
H660 C680 0.950 . S
H661 C681 0.950 . S
H662 C683 0.950 . S
H663 C686 0.950 . S
H664 C687 0.950 . S
H665 C689 0.950 . S
H666 C690 0.950 . S
H667 C691 0.951 . S
H668 C693 0.951 . S
H669 C695 0.950 . S
H670 C696 0.950 . S
H671 C698 0.950 . S
H672 C701 0.950 . S
H673 C702 0.950 . S
H674 C704 0.950 . S
H675 C705 0.950 . S
C676 H658 0.951 . S
C676 C677 1.366 . S
C676 C678 1.388 . S
C677 C676 1.366 . S
C677 C681 1.385 . S
C678 H659 0.951 . S
C678 C676 1.388 . S
C678 C679 1.366 . S
C679 C678 1.366 . S
C679 C680 1.414 . S
C679 C682 1.499 . S
C680 H660 0.950 . S
C680 C679 1.414 . S
C680 C681 1.374 . S
C681 H661 0.950 . S
C681 C677 1.385 . S
C681 C680 1.374 . S
C682 C679 1.499 . S
C682 C683 1.373 . S
C682 C684 1.389 . S
C683 H662 0.950 . S
C683 C682 1.373 . S
C683 C699 1.377 . S
C684 C682 1.389 . S
C684 C685 1.524 . S
C684 C698 1.377 . S
C685 C684 1.524 . S
C685 C686 1.397 . S
C685 C690 1.363 . S
C686 H663 0.950 . S
C686 C685 1.397 . S
C686 C687 1.334 . S
C687 H664 0.950 . S
C687 C686 1.334 . S
C687 C688 1.287 . S
C688 C687 1.287 . S
C688 C689 1.524 . S
C688 H707 0.913 . S
C689 H665 0.950 . S
C689 C688 1.524 . S
C689 C690 1.415 . S
C690 H666 0.950 . S
C690 C685 1.363 . S
C690 C689 1.415 . S
C691 H667 0.951 . S
C691 C692 1.366 . S
C691 C693 1.388 . S
C692 C691 1.366 . S
C692 C696 1.385 . S
C693 H668 0.951 . S
C693 C691 1.388 . S
C693 C694 1.366 . S
C694 C693 1.366 . S
C694 C695 1.414 . S
C694 C697 1.499 . S
C695 H669 0.950 . S
C695 C694 1.414 . S
C695 C696 1.374 . S
C696 H670 0.950 . S
C696 C692 1.385 . S
C696 C695 1.374 . S
C697 C694 1.499 . S
C697 C698 1.373 . S
C697 C699 1.389 . S
C698 H671 0.950 . S
C698 C684 1.377 . S
C698 C697 1.373 . S
C699 C683 1.377 . S
C699 C697 1.389 . S
C699 C700 1.524 . S
C700 C699 1.524 . S
C700 C701 1.397 . S
C700 C705 1.363 . S
C701 H672 0.950 . S
C701 C700 1.397 . S
C701 C702 1.334 . S
C702 H673 0.950 . S
C702 C701 1.334 . S
C702 C703 1.287 . S
C703 C702 1.287 . S
C703 C704 1.524 . S
C703 H706 0.999 . S
C704 H674 0.950 . S
C704 C703 1.524 . S
C704 C705 1.415 . S
C705 H675 0.950 . S
C705 C700 1.363 . S
C705 C704 1.415 . S
H706 C703 0.999 . S
H707 C688 0.913 . S
H708 C726 0.951 . S
H709 C728 0.951 . S
H710 C730 0.950 . S
H711 C731 0.950 . S
H712 C733 0.950 . S
H713 C736 0.950 . S
H714 C737 0.950 . S
H715 C739 0.950 . S
H716 C740 0.950 . S
H717 C741 0.951 . S
H718 C743 0.951 . S
H719 C745 0.950 . S
H720 C746 0.950 . S
H721 C748 0.950 . S
H722 C751 0.950 . S
H723 C752 0.950 . S
H724 C754 0.950 . S
H725 C755 0.950 . S
C726 H708 0.951 . S
C726 C727 1.366 . S
C726 C728 1.388 . S
C727 C726 1.366 . S
C727 C731 1.385 . S
C728 H709 0.951 . S
C728 C726 1.388 . S
C728 C729 1.366 . S
C729 C728 1.366 . S
C729 C730 1.414 . S
C729 C732 1.499 . S
C730 H710 0.950 . S
C730 C729 1.414 . S
C730 C731 1.374 . S
C731 H711 0.950 . S
C731 C727 1.385 . S
C731 C730 1.374 . S
C732 C729 1.499 . S
C732 C733 1.373 . S
C732 C734 1.389 . S
C733 H712 0.950 . S
C733 C732 1.373 . S
C733 C749 1.377 . S
C734 C732 1.389 . S
C734 C735 1.524 . S
C734 C748 1.377 . S
C735 C734 1.524 . S
C735 C736 1.397 . S
C735 C740 1.363 . S
C736 H713 0.950 . S
C736 C735 1.397 . S
C736 C737 1.334 . S
C737 H714 0.950 . S
C737 C736 1.334 . S
C737 C738 1.287 . S
C738 C737 1.287 . S
C738 C739 1.524 . S
C738 H757 0.913 . S
C739 H715 0.950 . S
C739 C738 1.524 . S
C739 C740 1.415 . S
C740 H716 0.950 . S
C740 C735 1.363 . S
C740 C739 1.415 . S
C741 H717 0.951 . S
C741 C742 1.366 . S
C741 C743 1.388 . S
C742 C741 1.366 . S
C742 C746 1.385 . S
C743 H718 0.951 . S
C743 C741 1.388 . S
C743 C744 1.366 . S
C744 C743 1.366 . S
C744 C745 1.414 . S
C744 C747 1.499 . S
C745 H719 0.950 . S
C745 C744 1.414 . S
C745 C746 1.374 . S
C746 H720 0.950 . S
C746 C742 1.385 . S
C746 C745 1.374 . S
C747 C744 1.499 . S
C747 C748 1.373 . S
C747 C749 1.389 . S
C748 H721 0.950 . S
C748 C734 1.377 . S
C748 C747 1.373 . S
C749 C733 1.377 . S
C749 C747 1.389 . S
C749 C750 1.524 . S
C750 C749 1.524 . S
C750 C751 1.397 . S
C750 C755 1.363 . S
C751 H722 0.950 . S
C751 C750 1.397 . S
C751 C752 1.334 . S
C752 H723 0.950 . S
C752 C751 1.334 . S
C752 C753 1.287 . S
C753 C752 1.287 . S
C753 C754 1.524 . S
C753 H756 0.999 . S
C754 H724 0.950 . S
C754 C753 1.524 . S
C754 C755 1.415 . S
C755 H725 0.950 . S
C755 C750 1.363 . S
C755 C754 1.415 . S
H756 C753 0.999 . S
H757 C738 0.913 . S
H758 C776 0.951 . S
H759 C778 0.951 . S
H760 C780 0.950 . S
H761 C781 0.950 . S
H762 C783 0.950 . S
H763 C786 0.950 . S
H764 C787 0.950 . S
H765 C789 0.950 . S
H766 C790 0.950 . S
H767 C791 0.951 . S
H768 C793 0.951 . S
H769 C795 0.950 . S
H770 C796 0.950 . S
H771 C798 0.950 . S
H772 C801 0.950 . S
H773 C802 0.950 . S
H774 C804 0.950 . S
H775 C805 0.950 . S
C776 H758 0.951 . S
C776 C777 1.366 . S
C776 C778 1.388 . S
C777 C776 1.366 . S
C777 C781 1.385 . S
C778 H759 0.951 . S
C778 C776 1.388 . S
C778 C779 1.366 . S
C779 C778 1.366 . S
C779 C780 1.414 . S
C779 C782 1.499 . S
C780 H760 0.950 . S
C780 C779 1.414 . S
C780 C781 1.374 . S
C781 H761 0.950 . S
C781 C777 1.385 . S
C781 C780 1.374 . S
C782 C779 1.499 . S
C782 C783 1.373 . S
C782 C784 1.389 . S
C783 H762 0.950 . S
C783 C782 1.373 . S
C783 C799 1.377 . S
C784 C782 1.389 . S
C784 C785 1.524 . S
C784 C798 1.377 . S
C785 C784 1.524 . S
C785 C786 1.397 . S
C785 C790 1.363 . S
C786 H763 0.950 . S
C786 C785 1.397 . S
C786 C787 1.334 . S
C787 H764 0.950 . S
C787 C786 1.334 . S
C787 C788 1.287 . S
C788 C787 1.287 . S
C788 C789 1.524 . S
C788 H807 0.913 . S
C789 H765 0.950 . S
C789 C788 1.524 . S
C789 C790 1.415 . S
C790 H766 0.950 . S
C790 C785 1.363 . S
C790 C789 1.415 . S
C791 H767 0.951 . S
C791 C792 1.366 . S
C791 C793 1.388 . S
C792 C791 1.366 . S
C792 C796 1.385 . S
C793 H768 0.951 . S
C793 C791 1.388 . S
C793 C794 1.366 . S
C794 C793 1.366 . S
C794 C795 1.414 . S
C794 C797 1.499 . S
C795 H769 0.950 . S
C795 C794 1.414 . S
C795 C796 1.374 . S
C796 H770 0.950 . S
C796 C792 1.385 . S
C796 C795 1.374 . S
C797 C794 1.499 . S
C797 C798 1.373 . S
C797 C799 1.389 . S
C798 H771 0.950 . S
C798 C784 1.377 . S
C798 C797 1.373 . S
C799 C783 1.377 . S
C799 C797 1.389 . S
C799 C800 1.524 . S
C800 C799 1.524 . S
C800 C801 1.397 . S
C800 C805 1.363 . S
C801 H772 0.950 . S
C801 C800 1.397 . S
C801 C802 1.334 . S
C802 H773 0.950 . S
C802 C801 1.334 . S
C802 C803 1.287 . S
C803 C802 1.287 . S
C803 C804 1.524 . S
C803 H806 0.999 . S
C804 H774 0.950 . S
C804 C803 1.524 . S
C804 C805 1.415 . S
C805 H775 0.950 . S
C805 C800 1.363 . S
C805 C804 1.415 . S
H806 C803 0.999 . S
H807 C788 0.913 . S
H808 C826 0.951 . S
H809 C828 0.951 . S
H810 C830 0.950 . S
H811 C831 0.950 . S
H812 C833 0.950 . S
H813 C836 0.950 . S
H814 C837 0.950 . S
H815 C839 0.950 . S
H816 C840 0.950 . S
H817 C841 0.951 . S
H818 C843 0.951 . S
H819 C845 0.950 . S
H820 C846 0.950 . S
H821 C848 0.950 . S
H822 C851 0.950 . S
H823 C852 0.950 . S
H824 C854 0.950 . S
H825 C855 0.950 . S
C826 H808 0.951 . S
C826 C827 1.366 . S
C826 C828 1.388 . S
C827 C826 1.366 . S
C827 C831 1.385 . S
C828 H809 0.951 . S
C828 C826 1.388 . S
C828 C829 1.366 . S
C829 C828 1.366 . S
C829 C830 1.414 . S
C829 C832 1.499 . S
C830 H810 0.950 . S
C830 C829 1.414 . S
C830 C831 1.374 . S
C831 H811 0.950 . S
C831 C827 1.385 . S
C831 C830 1.374 . S
C832 C829 1.499 . S
C832 C833 1.373 . S
C832 C834 1.389 . S
C833 H812 0.950 . S
C833 C832 1.373 . S
C833 C849 1.377 . S
C834 C832 1.389 . S
C834 C835 1.524 . S
C834 C848 1.377 . S
C835 C834 1.524 . S
C835 C836 1.397 . S
C835 C840 1.363 . S
C836 H813 0.950 . S
C836 C835 1.397 . S
C836 C837 1.334 . S
C837 H814 0.950 . S
C837 C836 1.334 . S
C837 C838 1.287 . S
C838 C837 1.287 . S
C838 C839 1.524 . S
C838 H857 0.913 . S
C839 H815 0.950 . S
C839 C838 1.524 . S
C839 C840 1.415 . S
C840 H816 0.950 . S
C840 C835 1.363 . S
C840 C839 1.415 . S
C841 H817 0.951 . S
C841 C842 1.366 . S
C841 C843 1.388 . S
C842 C841 1.366 . S
C842 C846 1.385 . S
C843 H818 0.951 . S
C843 C841 1.388 . S
C843 C844 1.366 . S
C844 C843 1.366 . S
C844 C845 1.414 . S
C844 C847 1.499 . S
C845 H819 0.950 . S
C845 C844 1.414 . S
C845 C846 1.374 . S
C846 H820 0.950 . S
C846 C842 1.385 . S
C846 C845 1.374 . S
C847 C844 1.499 . S
C847 C848 1.373 . S
C847 C849 1.389 . S
C848 H821 0.950 . S
C848 C834 1.377 . S
C848 C847 1.373 . S
C849 C833 1.377 . S
C849 C847 1.389 . S
C849 C850 1.524 . S
C850 C849 1.524 . S
C850 C851 1.397 . S
C850 C855 1.363 . S
C851 H822 0.950 . S
C851 C850 1.397 . S
C851 C852 1.334 . S
C852 H823 0.950 . S
C852 C851 1.334 . S
C852 C853 1.287 . S
C853 C852 1.287 . S
C853 C854 1.524 . S
C853 H856 0.999 . S
C854 H824 0.950 . S
C854 C853 1.524 . S
C854 C855 1.415 . S
C855 H825 0.950 . S
C855 C850 1.363 . S
C855 C854 1.415 . S
H856 C853 0.999 . S
H857 C838 0.913 . S
H858 C876 0.951 . S
H859 C878 0.951 . S
H860 C880 0.950 . S
H861 C881 0.950 . S
H862 C883 0.950 . S
H863 C886 0.950 . S
H864 C887 0.950 . S
H865 C889 0.950 . S
H866 C890 0.950 . S
H867 C891 0.951 . S
H868 C893 0.951 . S
H869 C895 0.950 . S
H870 C896 0.950 . S
H871 C898 0.950 . S
H872 C901 0.950 . S
H873 C902 0.950 . S
H874 C904 0.950 . S
H875 C905 0.950 . S
C876 H858 0.951 . S
C876 C877 1.366 . S
C876 C878 1.388 . S
C877 C876 1.366 . S
C877 C881 1.385 . S
C878 H859 0.951 . S
C878 C876 1.388 . S
C878 C879 1.366 . S
C879 C878 1.366 . S
C879 C880 1.414 . S
C879 C882 1.499 . S
C880 H860 0.950 . S
C880 C879 1.414 . S
C880 C881 1.374 . S
C881 H861 0.950 . S
C881 C877 1.385 . S
C881 C880 1.374 . S
C882 C879 1.499 . S
C882 C883 1.373 . S
C882 C884 1.389 . S
C883 H862 0.950 . S
C883 C882 1.373 . S
C883 C899 1.377 . S
C884 C882 1.389 . S
C884 C885 1.524 . S
C884 C898 1.377 . S
C885 C884 1.524 . S
C885 C886 1.397 . S
C885 C890 1.363 . S
C886 H863 0.950 . S
C886 C885 1.397 . S
C886 C887 1.334 . S
C887 H864 0.950 . S
C887 C886 1.334 . S
C887 C888 1.287 . S
C888 C887 1.287 . S
C888 C889 1.524 . S
C888 H907 0.913 . S
C889 H865 0.950 . S
C889 C888 1.524 . S
C889 C890 1.415 . S
C890 H866 0.950 . S
C890 C885 1.363 . S
C890 C889 1.415 . S
C891 H867 0.951 . S
C891 C892 1.366 . S
C891 C893 1.388 . S
C892 C891 1.366 . S
C892 C896 1.385 . S
C893 H868 0.951 . S
C893 C891 1.388 . S
C893 C894 1.366 . S
C894 C893 1.366 . S
C894 C895 1.414 . S
C894 C897 1.499 . S
C895 H869 0.950 . S
C895 C894 1.414 . S
C895 C896 1.374 . S
C896 H870 0.950 . S
C896 C892 1.385 . S
C896 C895 1.374 . S
C897 C894 1.499 . S
C897 C898 1.373 . S
C897 C899 1.389 . S
C898 H871 0.950 . S
C898 C884 1.377 . S
C898 C897 1.373 . S
C899 C883 1.377 . S
C899 C897 1.389 . S
C899 C900 1.524 . S
C900 C899 1.524 . S
C900 C901 1.397 . S
C900 C905 1.363 . S
C901 H872 0.950 . S
C901 C900 1.397 . S
C901 C902 1.334 . S
C902 H873 0.950 . S
C902 C901 1.334 . S
C902 C903 1.287 . S
C903 C902 1.287 . S
C903 C904 1.524 . S
C903 H906 0.999 . S
C904 H874 0.950 . S
C904 C903 1.524 . S
C904 C905 1.415 . S
C905 H875 0.950 . S
C905 C900 1.363 . S
C905 C904 1.415 . S
H906 C903 0.999 . S
H907 C888 0.913 . S
H908 C926 0.951 . S
H909 C928 0.951 . S
H910 C930 0.950 . S
H911 C931 0.950 . S
H912 C933 0.950 . S
H913 C936 0.950 . S
H914 C937 0.950 . S
H915 C939 0.950 . S
H916 C940 0.950 . S
H917 C941 0.951 . S
H918 C943 0.951 . S
H919 C945 0.950 . S
H920 C946 0.950 . S
H921 C948 0.950 . S
H922 C951 0.950 . S
H923 C952 0.950 . S
H924 C954 0.950 . S
H925 C955 0.950 . S
C926 H908 0.951 . S
C926 C927 1.366 . S
C926 C928 1.388 . S
C927 C926 1.366 . S
C927 C931 1.385 . S
C928 H909 0.951 . S
C928 C926 1.388 . S
C928 C929 1.366 . S
C929 C928 1.366 . S
C929 C930 1.414 . S
C929 C932 1.499 . S
C930 H910 0.950 . S
C930 C929 1.414 . S
C930 C931 1.374 . S
C931 H911 0.950 . S
C931 C927 1.385 . S
C931 C930 1.374 . S
C932 C929 1.499 . S
C932 C933 1.373 . S
C932 C934 1.389 . S
C933 H912 0.950 . S
C933 C932 1.373 . S
C933 C949 1.377 . S
C934 C932 1.389 . S
C934 C935 1.524 . S
C934 C948 1.377 . S
C935 C934 1.524 . S
C935 C936 1.397 . S
C935 C940 1.363 . S
C936 H913 0.950 . S
C936 C935 1.397 . S
C936 C937 1.334 . S
C937 H914 0.950 . S
C937 C936 1.334 . S
C937 C938 1.287 . S
C938 C937 1.287 . S
C938 C939 1.524 . S
C938 H957 0.913 . S
C939 H915 0.950 . S
C939 C938 1.524 . S
C939 C940 1.415 . S
C940 H916 0.950 . S
C940 C935 1.363 . S
C940 C939 1.415 . S
C941 H917 0.951 . S
C941 C942 1.366 . S
C941 C943 1.388 . S
C942 C941 1.366 . S
C942 C946 1.385 . S
C943 H918 0.951 . S
C943 C941 1.388 . S
C943 C944 1.366 . S
C944 C943 1.366 . S
C944 C945 1.414 . S
C944 C947 1.499 . S
C945 H919 0.950 . S
C945 C944 1.414 . S
C945 C946 1.374 . S
C946 H920 0.950 . S
C946 C942 1.385 . S
C946 C945 1.374 . S
C947 C944 1.499 . S
C947 C948 1.373 . S
C947 C949 1.389 . S
C948 H921 0.950 . S
C948 C934 1.377 . S
C948 C947 1.373 . S
C949 C933 1.377 . S
C949 C947 1.389 . S
C949 C950 1.524 . S
C950 C949 1.524 . S
C950 C951 1.397 . S
C950 C955 1.363 . S
C951 H922 0.950 . S
C951 C950 1.397 . S
C951 C952 1.334 . S
C952 H923 0.950 . S
C952 C951 1.334 . S
C952 C953 1.287 . S
C953 C952 1.287 . S
C953 C954 1.524 . S
C953 H956 0.999 . S
C954 H924 0.950 . S
C954 C953 1.524 . S
C954 C955 1.415 . S
C955 H925 0.950 . S
C955 C950 1.363 . S
C955 C954 1.415 . S
H956 C953 0.999 . S
H957 C938 0.913 . S
H958 C976 0.951 . S
H959 C978 0.951 . S
H960 C980 0.950 . S
H961 C981 0.950 . S
H962 C983 0.950 . S
H963 C986 0.950 . S
H964 C987 0.950 . S
H965 C989 0.950 . S
H966 C990 0.950 . S
H967 C991 0.951 . S
H968 C993 0.951 . S
H969 C995 0.950 . S
H970 C996 0.950 . S
H971 C998 0.950 . S
H972 C1001 0.950 . S
H973 C1002 0.950 . S
H974 C1004 0.950 . S
H975 C1005 0.950 . S
C976 H958 0.951 . S
C976 C977 1.366 . S
C976 C978 1.388 . S
C977 C976 1.366 . S
C977 C981 1.385 . S
C978 H959 0.951 . S
C978 C976 1.388 . S
C978 C979 1.366 . S
C979 C978 1.366 . S
C979 C980 1.414 . S
C979 C982 1.499 . S
C980 H960 0.950 . S
C980 C979 1.414 . S
C980 C981 1.374 . S
C981 H961 0.950 . S
C981 C977 1.385 . S
C981 C980 1.374 . S
C982 C979 1.499 . S
C982 C983 1.373 . S
C982 C984 1.389 . S
C983 H962 0.950 . S
C983 C982 1.373 . S
C983 C999 1.377 . S
C984 C982 1.389 . S
C984 C985 1.524 . S
C984 C998 1.377 . S
C985 C984 1.524 . S
C985 C986 1.397 . S
C985 C990 1.363 . S
C986 H963 0.950 . S
C986 C985 1.397 . S
C986 C987 1.334 . S
C987 H964 0.950 . S
C987 C986 1.334 . S
C987 C988 1.287 . S
C988 C987 1.287 . S
C988 C989 1.524 . S
C988 H1007 0.913 . S
C989 H965 0.950 . S
C989 C988 1.524 . S
C989 C990 1.415 . S
C990 H966 0.950 . S
C990 C985 1.363 . S
C990 C989 1.415 . S
C991 H967 0.951 . S
C991 C992 1.366 . S
C991 C993 1.388 . S
C992 C991 1.366 . S
C992 C996 1.385 . S
C993 H968 0.951 . S
C993 C991 1.388 . S
C993 C994 1.366 . S
C994 C993 1.366 . S
C994 C995 1.414 . S
C994 C997 1.499 . S
C995 H969 0.950 . S
C995 C994 1.414 . S
C995 C996 1.374 . S
C996 H970 0.950 . S
C996 C992 1.385 . S
C996 C995 1.374 . S
C997 C994 1.499 . S
C997 C998 1.373 . S
C997 C999 1.389 . S
C998 H971 0.950 . S
C998 C984 1.377 . S
C998 C997 1.373 . S
C999 C983 1.377 . S
C999 C997 1.389 . S
C999 C1000 1.524 . S
C1000 C999 1.524 . S
C1000 C1001 1.397 . S
C1000 C1005 1.363 . S
C1001 H972 0.950 . S
C1001 C1000 1.397 . S
C1001 C1002 1.334 . S
C1002 H973 0.950 . S
C1002 C1001 1.334 . S
C1002 C1003 1.287 . S
C1003 C1002 1.287 . S
C1003 C1004 1.524 . S
C1003 H1006 0.999 . S
C1004 H974 0.950 . S
C1004 C1003 1.524 . S
C1004 C1005 1.415 . S
C1005 H975 0.950 . S
C1005 C1000 1.363 . S
C1005 C1004 1.415 . S
H1006 C1003 0.999 . S
H1007 C988 0.913 . S
H1008 C1026 0.951 . S
H1009 C1028 0.951 . S
H1010 C1030 0.950 . S
H1011 C1031 0.950 . S
H1012 C1033 0.950 . S
H1013 C1036 0.950 . S
H1014 C1037 0.950 . S
H1015 C1039 0.950 . S
H1016 C1040 0.950 . S
H1017 C1041 0.951 . S
H1018 C1043 0.951 . S
H1019 C1045 0.950 . S
H1020 C1046 0.950 . S
H1021 C1048 0.950 . S
H1022 C1051 0.950 . S
H1023 C1052 0.950 . S
H1024 C1054 0.950 . S
H1025 C1055 0.950 . S
C1026 H1008 0.951 . S
C1026 C1027 1.366 . S
C1026 C1028 1.388 . S
C1027 C1026 1.366 . S
C1027 C1031 1.385 . S
C1028 H1009 0.951 . S
C1028 C1026 1.388 . S
C1028 C1029 1.366 . S
C1029 C1028 1.366 . S
C1029 C1030 1.414 . S
C1029 C1032 1.499 . S
C1030 H1010 0.950 . S
C1030 C1029 1.414 . S
C1030 C1031 1.374 . S
C1031 H1011 0.950 . S
C1031 C1027 1.385 . S
C1031 C1030 1.374 . S
C1032 C1029 1.499 . S
C1032 C1033 1.373 . S
C1032 C1034 1.389 . S
C1033 H1012 0.950 . S
C1033 C1032 1.373 . S
C1033 C1049 1.377 1_556 S
C1034 C1032 1.389 . S
C1034 C1035 1.524 . S
C1034 C1048 1.377 1_556 S
C1035 C1034 1.524 . S
C1035 C1036 1.397 . S
C1035 C1040 1.363 . S
C1036 H1013 0.950 . S
C1036 C1035 1.397 . S
C1036 C1037 1.334 . S
C1037 H1014 0.950 . S
C1037 C1036 1.334 . S
C1037 C1038 1.287 . S
C1038 C1037 1.287 . S
C1038 C1039 1.524 . S
C1038 H1057 0.913 . S
C1039 H1015 0.950 . S
C1039 C1038 1.524 . S
C1039 C1040 1.415 . S
C1040 H1016 0.950 . S
C1040 C1035 1.363 . S
C1040 C1039 1.415 . S
C1041 H1017 0.951 . S
C1041 C1042 1.366 . S
C1041 C1043 1.388 . S
C1042 C1041 1.366 . S
C1042 C1046 1.385 . S
C1043 H1018 0.951 . S
C1043 C1041 1.388 . S
C1043 C1044 1.366 . S
C1044 C1043 1.366 . S
C1044 C1045 1.414 . S
C1044 C1047 1.499 . S
C1045 H1019 0.950 . S
C1045 C1044 1.414 . S
C1045 C1046 1.374 . S
C1046 H1020 0.950 . S
C1046 C1042 1.385 . S
C1046 C1045 1.374 . S
C1047 C1044 1.499 . S
C1047 C1048 1.373 . S
C1047 C1049 1.389 . S
C1048 H1021 0.950 . S
C1048 C1034 1.377 1_554 S
C1048 C1047 1.373 . S
C1049 C1033 1.377 1_554 S
C1049 C1047 1.389 . S
C1049 C1050 1.524 . S
C1050 C1049 1.524 . S
C1050 C1051 1.397 . S
C1050 C1055 1.363 . S
C1051 H1022 0.950 . S
C1051 C1050 1.397 . S
C1051 C1052 1.334 . S
C1052 H1023 0.950 . S
C1052 C1051 1.334 . S
C1052 C1053 1.287 . S
C1053 C1052 1.287 . S
C1053 C1054 1.524 . S
C1053 H1056 0.999 . S
C1054 H1024 0.950 . S
C1054 C1053 1.524 . S
C1054 C1055 1.415 . S
C1055 H1025 0.950 . S
C1055 C1050 1.363 . S
C1055 C1054 1.415 . S
H1056 C1053 0.999 . S
H1057 C1038 0.913 . S
H1058 C1076 0.951 . S
H1059 C1078 0.951 . S
H1060 C1080 0.950 . S
H1061 C1081 0.950 . S
H1062 C1083 0.950 . S
H1063 C1086 0.950 . S
H1064 C1087 0.950 . S
H1065 C1089 0.950 . S
H1066 C1090 0.950 . S
H1067 C1091 0.951 . S
H1068 C1093 0.951 . S
H1069 C1095 0.950 . S
H1070 C1096 0.950 . S
H1071 C1098 0.950 . S
H1072 C1101 0.950 . S
H1073 C1102 0.950 . S
H1074 C1104 0.950 . S
H1075 C1105 0.950 . S
C1076 H1058 0.951 . S
C1076 C1077 1.366 . S
C1076 C1078 1.388 . S
C1077 C1076 1.366 . S
C1077 C1081 1.385 . S
C1078 H1059 0.951 . S
C1078 C1076 1.388 . S
C1078 C1079 1.366 . S
C1079 C1078 1.366 . S
C1079 C1080 1.414 . S
C1079 C1082 1.499 . S
C1080 H1060 0.950 . S
C1080 C1079 1.414 . S
C1080 C1081 1.374 . S
C1081 H1061 0.950 . S
C1081 C1077 1.385 . S
C1081 C1080 1.374 . S
C1082 C1079 1.499 . S
C1082 C1083 1.373 . S
C1082 C1084 1.389 . S
C1083 H1062 0.950 . S
C1083 C1082 1.373 . S
C1083 C1099 1.377 . S
C1084 C1082 1.389 . S
C1084 C1085 1.524 . S
C1084 C1098 1.377 . S
C1085 C1084 1.524 . S
C1085 C1086 1.397 . S
C1085 C1090 1.363 . S
C1086 H1063 0.950 . S
C1086 C1085 1.397 . S
C1086 C1087 1.334 . S
C1087 H1064 0.950 . S
C1087 C1086 1.334 . S
C1087 C1088 1.287 . S
C1088 C1087 1.287 . S
C1088 C1089 1.524 . S
C1088 H1107 0.913 . S
C1089 H1065 0.950 . S
C1089 C1088 1.524 . S
C1089 C1090 1.415 . S
C1090 H1066 0.950 . S
C1090 C1085 1.363 . S
C1090 C1089 1.415 . S
C1091 H1067 0.951 . S
C1091 C1092 1.366 . S
C1091 C1093 1.388 . S
C1092 C1091 1.366 . S
C1092 C1096 1.385 . S
C1093 H1068 0.951 . S
C1093 C1091 1.388 . S
C1093 C1094 1.366 . S
C1094 C1093 1.366 . S
C1094 C1095 1.414 . S
C1094 C1097 1.499 . S
C1095 H1069 0.950 . S
C1095 C1094 1.414 . S
C1095 C1096 1.374 . S
C1096 H1070 0.950 . S
C1096 C1092 1.385 . S
C1096 C1095 1.374 . S
C1097 C1094 1.499 . S
C1097 C1098 1.373 . S
C1097 C1099 1.389 . S
C1098 H1071 0.950 . S
C1098 C1084 1.377 . S
C1098 C1097 1.373 . S
C1099 C1083 1.377 . S
C1099 C1097 1.389 . S
C1099 C1100 1.524 . S
C1100 C1099 1.524 . S
C1100 C1101 1.397 . S
C1100 C1105 1.363 . S
C1101 H1072 0.950 . S
C1101 C1100 1.397 . S
C1101 C1102 1.334 . S
C1102 H1073 0.950 . S
C1102 C1101 1.334 . S
C1102 C1103 1.287 . S
C1103 C1102 1.287 . S
C1103 C1104 1.524 . S
C1103 H1106 0.999 . S
C1104 H1074 0.950 . S
C1104 C1103 1.524 . S
C1104 C1105 1.415 . S
C1105 H1075 0.950 . S
C1105 C1100 1.363 . S
C1105 C1104 1.415 . S
H1106 C1103 0.999 . S
H1107 C1088 0.913 . S
H1108 C1126 0.951 . S
H1109 C1128 0.951 . S
H1110 C1130 0.950 . S
H1111 C1131 0.950 . S
H1112 C1133 0.950 . S
H1113 C1136 0.950 . S
H1114 C1137 0.950 . S
H1115 C1139 0.950 . S
H1116 C1140 0.950 . S
H1117 C1141 0.951 . S
H1118 C1143 0.951 . S
H1119 C1145 0.950 . S
H1120 C1146 0.950 . S
H1121 C1148 0.950 . S
H1122 C1151 0.950 . S
H1123 C1152 0.950 . S
H1124 C1154 0.950 . S
H1125 C1155 0.950 . S
C1126 H1108 0.951 . S
C1126 C1127 1.366 . S
C1126 C1128 1.388 . S
C1127 C1126 1.366 . S
C1127 C1131 1.385 . S
C1128 H1109 0.951 . S
C1128 C1126 1.388 . S
C1128 C1129 1.366 . S
C1129 C1128 1.366 . S
C1129 C1130 1.414 . S
C1129 C1132 1.499 . S
C1130 H1110 0.950 . S
C1130 C1129 1.414 . S
C1130 C1131 1.374 . S
C1131 H1111 0.950 . S
C1131 C1127 1.385 . S
C1131 C1130 1.374 . S
C1132 C1129 1.499 . S
C1132 C1133 1.373 . S
C1132 C1134 1.389 . S
C1133 H1112 0.950 . S
C1133 C1132 1.373 . S
C1133 C1149 1.377 1_554 S
C1134 C1132 1.389 . S
C1134 C1135 1.524 . S
C1134 C1148 1.377 1_554 S
C1135 C1134 1.524 . S
C1135 C1136 1.397 . S
C1135 C1140 1.363 . S
C1136 H1113 0.950 . S
C1136 C1135 1.397 . S
C1136 C1137 1.334 . S
C1137 H1114 0.950 . S
C1137 C1136 1.334 . S
C1137 C1138 1.287 . S
C1138 C1137 1.287 . S
C1138 C1139 1.524 . S
C1138 H1157 0.913 . S
C1139 H1115 0.950 . S
C1139 C1138 1.524 . S
C1139 C1140 1.415 . S
C1140 H1116 0.950 . S
C1140 C1135 1.363 . S
C1140 C1139 1.415 . S
C1141 H1117 0.951 . S
C1141 C1142 1.366 . S
C1141 C1143 1.388 . S
C1142 C1141 1.366 . S
C1142 C1146 1.385 . S
C1143 H1118 0.951 . S
C1143 C1141 1.388 . S
C1143 C1144 1.366 . S
C1144 C1143 1.366 . S
C1144 C1145 1.414 . S
C1144 C1147 1.499 . S
C1145 H1119 0.950 . S
C1145 C1144 1.414 . S
C1145 C1146 1.374 . S
C1146 H1120 0.950 . S
C1146 C1142 1.385 . S
C1146 C1145 1.374 . S
C1147 C1144 1.499 . S
C1147 C1148 1.373 . S
C1147 C1149 1.389 . S
C1148 H1121 0.950 . S
C1148 C1134 1.377 1_556 S
C1148 C1147 1.373 . S
C1149 C1133 1.377 1_556 S
C1149 C1147 1.389 . S
C1149 C1150 1.524 . S
C1150 C1149 1.524 . S
C1150 C1151 1.397 . S
C1150 C1155 1.363 . S
C1151 H1122 0.950 . S
C1151 C1150 1.397 . S
C1151 C1152 1.334 . S
C1152 H1123 0.950 . S
C1152 C1151 1.334 . S
C1152 C1153 1.287 . S
C1153 C1152 1.287 . S
C1153 C1154 1.524 . S
C1153 H1156 0.999 . S
C1154 H1124 0.950 . S
C1154 C1153 1.524 . S
C1154 C1155 1.415 . S
C1155 H1125 0.950 . S
C1155 C1150 1.363 . S
C1155 C1154 1.415 . S
H1156 C1153 0.999 . S
H1157 C1138 0.913 . S
H1158 C1176 0.951 . S
H1159 C1178 0.951 . S
H1160 C1180 0.950 . S
H1161 C1181 0.950 . S
H1162 C1183 0.950 . S
H1163 C1186 0.950 . S
H1164 C1187 0.950 . S
H1165 C1189 0.950 . S
H1166 C1190 0.950 . S
H1167 C1191 0.951 . S
H1168 C1193 0.951 . S
H1169 C1195 0.950 . S
H1170 C1196 0.950 . S
H1171 C1198 0.950 . S
H1172 C1201 0.950 . S
H1173 C1202 0.950 . S
H1174 C1204 0.950 . S
H1175 C1205 0.950 . S
C1176 H1158 0.951 . S
C1176 C1177 1.366 . S
C1176 C1178 1.388 . S
C1177 C1176 1.366 . S
C1177 C1181 1.385 . S
C1178 H1159 0.951 . S
C1178 C1176 1.388 . S
C1178 C1179 1.366 . S
C1179 C1178 1.366 . S
C1179 C1180 1.414 . S
C1179 C1182 1.499 . S
C1180 H1160 0.950 . S
C1180 C1179 1.414 . S
C1180 C1181 1.374 . S
C1181 H1161 0.950 . S
C1181 C1177 1.385 . S
C1181 C1180 1.374 . S
C1182 C1179 1.499 . S
C1182 C1183 1.373 . S
C1182 C1184 1.389 . S
C1183 H1162 0.950 . S
C1183 C1182 1.373 . S
C1183 C1199 1.377 . S
C1184 C1182 1.389 . S
C1184 C1185 1.524 . S
C1184 C1198 1.377 . S
C1185 C1184 1.524 . S
C1185 C1186 1.397 . S
C1185 C1190 1.363 . S
C1186 H1163 0.950 . S
C1186 C1185 1.397 . S
C1186 C1187 1.334 . S
C1187 H1164 0.950 . S
C1187 C1186 1.334 . S
C1187 C1188 1.287 . S
C1188 C1187 1.287 . S
C1188 C1189 1.524 . S
C1188 H1207 0.913 . S
C1189 H1165 0.950 . S
C1189 C1188 1.524 . S
C1189 C1190 1.415 . S
C1190 H1166 0.950 . S
C1190 C1185 1.363 . S
C1190 C1189 1.415 . S
C1191 H1167 0.951 . S
C1191 C1192 1.366 . S
C1191 C1193 1.388 . S
C1192 C1191 1.366 . S
C1192 C1196 1.385 . S
C1193 H1168 0.951 . S
C1193 C1191 1.388 . S
C1193 C1194 1.366 . S
C1194 C1193 1.366 . S
C1194 C1195 1.414 . S
C1194 C1197 1.499 . S
C1195 H1169 0.950 . S
C1195 C1194 1.414 . S
C1195 C1196 1.374 . S
C1196 H1170 0.950 . S
C1196 C1192 1.385 . S
C1196 C1195 1.374 . S
C1197 C1194 1.499 . S
C1197 C1198 1.373 . S
C1197 C1199 1.389 . S
C1198 H1171 0.950 . S
C1198 C1184 1.377 . S
C1198 C1197 1.373 . S
C1199 C1183 1.377 . S
C1199 C1197 1.389 . S
C1199 C1200 1.524 . S
C1200 C1199 1.524 . S
C1200 C1201 1.397 . S
C1200 C1205 1.363 . S
C1201 H1172 0.950 . S
C1201 C1200 1.397 . S
C1201 C1202 1.334 . S
C1202 H1173 0.950 . S
C1202 C1201 1.334 . S
C1202 C1203 1.287 . S
C1203 C1202 1.287 . S
C1203 C1204 1.524 . S
C1203 H1206 0.999 . S
C1204 H1174 0.950 . S
C1204 C1203 1.524 . S
C1204 C1205 1.415 . S
C1205 H1175 0.950 . S
C1205 C1200 1.363 . S
C1205 C1204 1.415 . S
H1206 C1203 0.999 . S
H1207 C1188 0.913 . S
H1208 C1226 0.951 . S
H1209 C1228 0.951 . S
H1210 C1230 0.950 . S
H1211 C1231 0.950 . S
H1212 C1233 0.950 . S
H1213 C1236 0.950 . S
H1214 C1237 0.950 . S
H1215 C1239 0.950 . S
H1216 C1240 0.950 . S
H1217 C1241 0.951 . S
H1218 C1243 0.951 . S
H1219 C1245 0.950 . S
H1220 C1246 0.950 . S
H1221 C1248 0.950 . S
H1222 C1251 0.950 . S
H1223 C1252 0.950 . S
H1224 C1254 0.950 . S
H1225 C1255 0.950 . S
C1226 H1208 0.951 . S
C1226 C1227 1.366 . S
C1226 C1228 1.388 . S
C1227 C1226 1.366 . S
C1227 C1231 1.385 . S
C1228 H1209 0.951 . S
C1228 C1226 1.388 . S
C1228 C1229 1.366 . S
C1229 C1228 1.366 . S
C1229 C1230 1.414 . S
C1229 C1232 1.499 . S
C1230 H1210 0.950 . S
C1230 C1229 1.414 . S
C1230 C1231 1.374 . S
C1231 H1211 0.950 . S
C1231 C1227 1.385 . S
C1231 C1230 1.374 . S
C1232 C1229 1.499 . S
C1232 C1233 1.373 . S
C1232 C1234 1.389 . S
C1233 H1212 0.950 . S
C1233 C1232 1.373 . S
C1233 C1249 1.377 . S
C1234 C1232 1.389 . S
C1234 C1235 1.524 . S
C1234 C1248 1.377 . S
C1235 C1234 1.524 . S
C1235 C1236 1.397 . S
C1235 C1240 1.363 . S
C1236 H1213 0.950 . S
C1236 C1235 1.397 . S
C1236 C1237 1.334 . S
C1237 H1214 0.950 . S
C1237 C1236 1.334 . S
C1237 C1238 1.287 . S
C1238 C1237 1.287 . S
C1238 C1239 1.524 . S
C1238 H1257 0.913 . S
C1239 H1215 0.950 . S
C1239 C1238 1.524 . S
C1239 C1240 1.415 . S
C1240 H1216 0.950 . S
C1240 C1235 1.363 . S
C1240 C1239 1.415 . S
C1241 H1217 0.951 . S
C1241 C1242 1.366 . S
C1241 C1243 1.388 . S
C1242 C1241 1.366 . S
C1242 C1246 1.385 . S
C1243 H1218 0.951 . S
C1243 C1241 1.388 . S
C1243 C1244 1.366 . S
C1244 C1243 1.366 . S
C1244 C1245 1.414 . S
C1244 C1247 1.499 . S
C1245 H1219 0.950 . S
C1245 C1244 1.414 . S
C1245 C1246 1.374 . S
C1246 H1220 0.950 . S
C1246 C1242 1.385 . S
C1246 C1245 1.374 . S
C1247 C1244 1.499 . S
C1247 C1248 1.373 . S
C1247 C1249 1.389 . S
C1248 H1221 0.950 . S
C1248 C1234 1.377 . S
C1248 C1247 1.373 . S
C1249 C1233 1.377 . S
C1249 C1247 1.389 . S
C1249 C1250 1.524 . S
C1250 C1249 1.524 . S
C1250 C1251 1.397 . S
C1250 C1255 1.363 . S
C1251 H1222 0.950 . S
C1251 C1250 1.397 . S
C1251 C1252 1.334 . S
C1252 H1223 0.950 . S
C1252 C1251 1.334 . S
C1252 C1253 1.287 . S
C1253 C1252 1.287 . S
C1253 C1254 1.524 . S
C1253 H1256 0.999 . S
C1254 H1224 0.950 . S
C1254 C1253 1.524 . S
C1254 C1255 1.415 . S
C1255 H1225 0.950 . S
C1255 C1250 1.363 . S
C1255 C1254 1.415 . S
H1256 C1253 0.999 . S
H1257 C1238 0.913 . S
H1258 C1276 0.951 . S
H1259 C1278 0.951 . S
H1260 C1280 0.950 . S
H1261 C1281 0.950 . S
H1262 C1283 0.950 . S
H1263 C1286 0.950 . S
H1264 C1287 0.950 . S
H1265 C1289 0.950 . S
H1266 C1290 0.950 . S
H1267 C1291 0.951 . S
H1268 C1293 0.951 . S
H1269 C1295 0.950 . S
H1270 C1296 0.950 . S
H1271 C1298 0.950 . S
H1272 C1301 0.950 . S
H1273 C1302 0.950 . S
H1274 C1304 0.950 . S
H1275 C1305 0.950 . S
C1276 H1258 0.951 . S
C1276 C1277 1.366 . S
C1276 C1278 1.388 . S
C1277 C1276 1.366 . S
C1277 C1281 1.385 . S
C1278 H1259 0.951 . S
C1278 C1276 1.388 . S
C1278 C1279 1.366 . S
C1279 C1278 1.366 . S
C1279 C1280 1.414 . S
C1279 C1282 1.499 . S
C1280 H1260 0.950 . S
C1280 C1279 1.414 . S
C1280 C1281 1.374 . S
C1281 H1261 0.950 . S
C1281 C1277 1.385 . S
C1281 C1280 1.374 . S
C1282 C1279 1.499 . S
C1282 C1283 1.373 . S
C1282 C1284 1.389 . S
C1283 H1262 0.950 . S
C1283 C1282 1.373 . S
C1283 C1299 1.377 1_556 S
C1284 C1282 1.389 . S
C1284 C1285 1.524 . S
C1284 C1298 1.377 1_556 S
C1285 C1284 1.524 . S
C1285 C1286 1.397 . S
C1285 C1290 1.363 . S
C1286 H1263 0.950 . S
C1286 C1285 1.397 . S
C1286 C1287 1.334 . S
C1287 H1264 0.950 . S
C1287 C1286 1.334 . S
C1287 C1288 1.287 . S
C1288 C1287 1.287 . S
C1288 C1289 1.524 . S
C1288 H1307 0.913 . S
C1289 H1265 0.950 . S
C1289 C1288 1.524 . S
C1289 C1290 1.415 . S
C1290 H1266 0.950 . S
C1290 C1285 1.363 . S
C1290 C1289 1.415 . S
C1291 H1267 0.951 . S
C1291 C1292 1.366 . S
C1291 C1293 1.388 . S
C1292 C1291 1.366 . S
C1292 C1296 1.385 . S
C1293 H1268 0.951 . S
C1293 C1291 1.388 . S
C1293 C1294 1.366 . S
C1294 C1293 1.366 . S
C1294 C1295 1.414 . S
C1294 C1297 1.499 . S
C1295 H1269 0.950 . S
C1295 C1294 1.414 . S
C1295 C1296 1.374 . S
C1296 H1270 0.950 . S
C1296 C1292 1.385 . S
C1296 C1295 1.374 . S
C1297 C1294 1.499 . S
C1297 C1298 1.373 . S
C1297 C1299 1.389 . S
C1298 H1271 0.950 . S
C1298 C1284 1.377 1_554 S
C1298 C1297 1.373 . S
C1299 C1283 1.377 1_554 S
C1299 C1297 1.389 . S
C1299 C1300 1.524 . S
C1300 C1299 1.524 . S
C1300 C1301 1.397 . S
C1300 C1305 1.363 . S
C1301 H1272 0.950 . S
C1301 C1300 1.397 . S
C1301 C1302 1.334 . S
C1302 H1273 0.950 . S
C1302 C1301 1.334 . S
C1302 C1303 1.287 . S
C1303 C1302 1.287 . S
C1303 C1304 1.524 . S
C1303 H1306 0.999 . S
C1304 H1274 0.950 . S
C1304 C1303 1.524 . S
C1304 C1305 1.415 . S
C1305 H1275 0.950 . S
C1305 C1300 1.363 . S
C1305 C1304 1.415 . S
H1306 C1303 0.999 . S
H1307 C1288 0.913 . S
H1308 C1326 0.951 . S
H1309 C1328 0.951 . S
H1310 C1330 0.950 . S
H1311 C1331 0.950 . S
H1312 C1333 0.950 . S
H1313 C1336 0.950 . S
H1314 C1337 0.950 . S
H1315 C1339 0.950 . S
H1316 C1340 0.950 . S
H1317 C1341 0.951 . S
H1318 C1343 0.951 . S
H1319 C1345 0.950 . S
H1320 C1346 0.950 . S
H1321 C1348 0.950 . S
H1322 C1351 0.950 . S
H1323 C1352 0.950 . S
H1324 C1354 0.950 . S
H1325 C1355 0.950 . S
C1326 H1308 0.951 . S
C1326 C1327 1.366 . S
C1326 C1328 1.388 . S
C1327 C1326 1.366 . S
C1327 C1331 1.385 . S
C1328 H1309 0.951 . S
C1328 C1326 1.388 . S
C1328 C1329 1.366 . S
C1329 C1328 1.366 . S
C1329 C1330 1.414 . S
C1329 C1332 1.499 . S
C1330 H1310 0.950 . S
C1330 C1329 1.414 . S
C1330 C1331 1.374 . S
C1331 H1311 0.950 . S
C1331 C1327 1.385 . S
C1331 C1330 1.374 . S
C1332 C1329 1.499 . S
C1332 C1333 1.373 . S
C1332 C1334 1.389 . S
C1333 H1312 0.950 . S
C1333 C1332 1.373 . S
C1333 C1349 1.377 . S
C1334 C1332 1.389 . S
C1334 C1335 1.524 . S
C1334 C1348 1.377 . S
C1335 C1334 1.524 . S
C1335 C1336 1.397 . S
C1335 C1340 1.363 . S
C1336 H1313 0.950 . S
C1336 C1335 1.397 . S
C1336 C1337 1.334 . S
C1337 H1314 0.950 . S
C1337 C1336 1.334 . S
C1337 C1338 1.287 . S
C1338 C1337 1.287 . S
C1338 C1339 1.524 . S
C1338 H1357 0.913 . S
C1339 H1315 0.950 . S
C1339 C1338 1.524 . S
C1339 C1340 1.415 . S
C1340 H1316 0.950 . S
C1340 C1335 1.363 . S
C1340 C1339 1.415 . S
C1341 H1317 0.951 . S
C1341 C1342 1.366 . S
C1341 C1343 1.388 . S
C1342 C1341 1.366 . S
C1342 C1346 1.385 . S
C1343 H1318 0.951 . S
C1343 C1341 1.388 . S
C1343 C1344 1.366 . S
C1344 C1343 1.366 . S
C1344 C1345 1.414 . S
C1344 C1347 1.499 . S
C1345 H1319 0.950 . S
C1345 C1344 1.414 . S
C1345 C1346 1.374 . S
C1346 H1320 0.950 . S
C1346 C1342 1.385 . S
C1346 C1345 1.374 . S
C1347 C1344 1.499 . S
C1347 C1348 1.373 . S
C1347 C1349 1.389 . S
C1348 H1321 0.950 . S
C1348 C1334 1.377 . S
C1348 C1347 1.373 . S
C1349 C1333 1.377 . S
C1349 C1347 1.389 . S
C1349 C1350 1.524 . S
C1350 C1349 1.524 . S
C1350 C1351 1.397 . S
C1350 C1355 1.363 . S
C1351 H1322 0.950 . S
C1351 C1350 1.397 . S
C1351 C1352 1.334 . S
C1352 H1323 0.950 . S
C1352 C1351 1.334 . S
C1352 C1353 1.287 . S
C1353 C1352 1.287 . S
C1353 C1354 1.524 . S
C1353 H1356 0.999 . S
C1354 H1324 0.950 . S
C1354 C1353 1.524 . S
C1354 C1355 1.415 . S
C1355 H1325 0.950 . S
C1355 C1350 1.363 . S
C1355 C1354 1.415 . S
H1356 C1353 0.999 . S
H1357 C1338 0.913 . S
H1358 C1376 0.951 . S
H1359 C1378 0.951 . S
H1360 C1380 0.950 . S
H1361 C1381 0.950 . S
H1362 C1383 0.950 . S
H1363 C1386 0.950 . S
H1364 C1387 0.950 . S
H1365 C1389 0.950 . S
H1366 C1390 0.950 . S
H1367 C1391 0.951 . S
H1368 C1393 0.951 . S
H1369 C1395 0.950 . S
H1370 C1396 0.950 . S
H1371 C1398 0.950 . S
H1372 C1401 0.950 . S
H1373 C1402 0.950 . S
H1374 C1404 0.950 . S
H1375 C1405 0.950 . S
C1376 H1358 0.951 . S
C1376 C1377 1.366 . S
C1376 C1378 1.388 . S
C1377 C1376 1.366 . S
C1377 C1381 1.385 . S
C1378 H1359 0.951 . S
C1378 C1376 1.388 . S
C1378 C1379 1.366 . S
C1379 C1378 1.366 . S
C1379 C1380 1.414 . S
C1379 C1382 1.499 . S
C1380 H1360 0.950 . S
C1380 C1379 1.414 . S
C1380 C1381 1.374 . S
C1381 H1361 0.950 . S
C1381 C1377 1.385 . S
C1381 C1380 1.374 . S
C1382 C1379 1.499 . S
C1382 C1383 1.373 . S
C1382 C1384 1.389 . S
C1383 H1362 0.950 . S
C1383 C1382 1.373 . S
C1383 C1399 1.377 1_554 S
C1384 C1382 1.389 . S
C1384 C1385 1.524 . S
C1384 C1398 1.377 1_554 S
C1385 C1384 1.524 . S
C1385 C1386 1.397 . S
C1385 C1390 1.363 . S
C1386 H1363 0.950 . S
C1386 C1385 1.397 . S
C1386 C1387 1.334 . S
C1387 H1364 0.950 . S
C1387 C1386 1.334 . S
C1387 C1388 1.287 . S
C1388 C1387 1.287 . S
C1388 C1389 1.524 . S
C1388 H1407 0.913 . S
C1389 H1365 0.950 . S
C1389 C1388 1.524 . S
C1389 C1390 1.415 . S
C1390 H1366 0.950 . S
C1390 C1385 1.363 . S
C1390 C1389 1.415 . S
C1391 H1367 0.951 . S
C1391 C1392 1.366 . S
C1391 C1393 1.388 . S
C1392 C1391 1.366 . S
C1392 C1396 1.385 . S
C1393 H1368 0.951 . S
C1393 C1391 1.388 . S
C1393 C1394 1.366 . S
C1394 C1393 1.366 . S
C1394 C1395 1.414 . S
C1394 C1397 1.499 . S
C1395 H1369 0.950 . S
C1395 C1394 1.414 . S
C1395 C1396 1.374 . S
C1396 H1370 0.950 . S
C1396 C1392 1.385 . S
C1396 C1395 1.374 . S
C1397 C1394 1.499 . S
C1397 C1398 1.373 . S
C1397 C1399 1.389 . S
C1398 H1371 0.950 . S
C1398 C1384 1.377 1_556 S
C1398 C1397 1.373 . S
C1399 C1383 1.377 1_556 S
C1399 C1397 1.389 . S
C1399 C1400 1.524 . S
C1400 C1399 1.524 . S
C1400 C1401 1.397 . S
C1400 C1405 1.363 . S
C1401 H1372 0.950 . S
C1401 C1400 1.397 . S
C1401 C1402 1.334 . S
C1402 H1373 0.950 . S
C1402 C1401 1.334 . S
C1402 C1403 1.287 . S
C1403 C1402 1.287 . S
C1403 C1404 1.524 . S
C1403 H1406 0.999 . S
C1404 H1374 0.950 . S
C1404 C1403 1.524 . S
C1404 C1405 1.415 . S
C1405 H1375 0.950 . S
C1405 C1400 1.363 . S
C1405 C1404 1.415 . S
H1406 C1403 0.999 . S
H1407 C1388 0.913 . S
H1408 C1426 0.951 . S
H1409 C1428 0.951 . S
H1410 C1430 0.950 . S
H1411 C1431 0.950 . S
H1412 C1433 0.950 . S
H1413 C1436 0.950 . S
H1414 C1437 0.950 . S
H1415 C1439 0.950 . S
H1416 C1440 0.950 . S
H1417 C1441 0.951 . S
H1418 C1443 0.951 . S
H1419 C1445 0.950 . S
H1420 C1446 0.950 . S
H1421 C1448 0.950 . S
H1422 C1451 0.950 . S
H1423 C1452 0.950 . S
H1424 C1454 0.950 . S
H1425 C1455 0.950 . S
C1426 H1408 0.951 . S
C1426 C1427 1.366 . S
C1426 C1428 1.388 . S
C1427 C1426 1.366 . S
C1427 C1431 1.385 . S
C1428 H1409 0.951 . S
C1428 C1426 1.388 . S
C1428 C1429 1.366 . S
C1429 C1428 1.366 . S
C1429 C1430 1.414 . S
C1429 C1432 1.499 . S
C1430 H1410 0.950 . S
C1430 C1429 1.414 . S
C1430 C1431 1.374 . S
C1431 H1411 0.950 . S
C1431 C1427 1.385 . S
C1431 C1430 1.374 . S
C1432 C1429 1.499 . S
C1432 C1433 1.373 . S
C1432 C1434 1.389 . S
C1433 H1412 0.950 . S
C1433 C1432 1.373 . S
C1433 C1449 1.377 . S
C1434 C1432 1.389 . S
C1434 C1435 1.524 . S
C1434 C1448 1.377 . S
C1435 C1434 1.524 . S
C1435 C1436 1.397 . S
C1435 C1440 1.363 . S
C1436 H1413 0.950 . S
C1436 C1435 1.397 . S
C1436 C1437 1.334 . S
C1437 H1414 0.950 . S
C1437 C1436 1.334 . S
C1437 C1438 1.287 . S
C1438 C1437 1.287 . S
C1438 C1439 1.524 . S
C1438 H1457 0.913 . S
C1439 H1415 0.950 . S
C1439 C1438 1.524 . S
C1439 C1440 1.415 . S
C1440 H1416 0.950 . S
C1440 C1435 1.363 . S
C1440 C1439 1.415 . S
C1441 H1417 0.951 . S
C1441 C1442 1.366 . S
C1441 C1443 1.388 . S
C1442 C1441 1.366 . S
C1442 C1446 1.385 . S
C1443 H1418 0.951 . S
C1443 C1441 1.388 . S
C1443 C1444 1.366 . S
C1444 C1443 1.366 . S
C1444 C1445 1.414 . S
C1444 C1447 1.499 . S
C1445 H1419 0.950 . S
C1445 C1444 1.414 . S
C1445 C1446 1.374 . S
C1446 H1420 0.950 . S
C1446 C1442 1.385 . S
C1446 C1445 1.374 . S
C1447 C1444 1.499 . S
C1447 C1448 1.373 . S
C1447 C1449 1.389 . S
C1448 H1421 0.950 . S
C1448 C1434 1.377 . S
C1448 C1447 1.373 . S
C1449 C1433 1.377 . S
C1449 C1447 1.389 . S
C1449 C1450 1.524 . S
C1450 C1449 1.524 . S
C1450 C1451 1.397 . S
C1450 C1455 1.363 . S
C1451 H1422 0.950 . S
C1451 C1450 1.397 . S
C1451 C1452 1.334 . S
C1452 H1423 0.950 . S
C1452 C1451 1.334 . S
C1452 C1453 1.287 . S
C1453 C1452 1.287 . S
C1453 C1454 1.524 . S
C1453 H1456 0.999 . S
C1454 H1424 0.950 . S
C1454 C1453 1.524 . S
C1454 C1455 1.415 . S
C1455 H1425 0.950 . S
C1455 C1450 1.363 . S
C1455 C1454 1.415 . S
H1456 C1453 0.999 . S
H1457 C1438 0.913 . S
H1458 C1476 0.951 . S
H1459 C1478 0.951 . S
H1460 C1480 0.950 . S
H1461 C1481 0.950 . S
H1462 C1483 0.950 . S
H1463 C1486 0.950 . S
H1464 C1487 0.950 . S
H1465 C1489 0.950 . S
H1466 C1490 0.950 . S
H1467 C1491 0.951 . S
H1468 C1493 0.951 . S
H1469 C1495 0.950 . S
H1470 C1496 0.950 . S
H1471 C1498 0.950 . S
H1472 C1501 0.950 . S
H1473 C1502 0.950 . S
H1474 C1504 0.950 . S
H1475 C1505 0.950 . S
C1476 H1458 0.951 . S
C1476 C1477 1.366 . S
C1476 C1478 1.388 . S
C1477 C1476 1.366 . S
C1477 C1481 1.385 . S
C1478 H1459 0.951 . S
C1478 C1476 1.388 . S
C1478 C1479 1.366 . S
C1479 C1478 1.366 . S
C1479 C1480 1.414 . S
C1479 C1482 1.499 . S
C1480 H1460 0.950 . S
C1480 C1479 1.414 . S
C1480 C1481 1.374 . S
C1481 H1461 0.950 . S
C1481 C1477 1.385 . S
C1481 C1480 1.374 . S
C1482 C1479 1.499 . S
C1482 C1483 1.373 . S
C1482 C1484 1.389 . S
C1483 H1462 0.950 . S
C1483 C1482 1.373 . S
C1483 C1499 1.377 . S
C1484 C1482 1.389 . S
C1484 C1485 1.524 . S
C1484 C1498 1.377 . S
C1485 C1484 1.524 . S
C1485 C1486 1.397 . S
C1485 C1490 1.363 . S
C1486 H1463 0.950 . S
C1486 C1485 1.397 . S
C1486 C1487 1.334 . S
C1487 H1464 0.950 . S
C1487 C1486 1.334 . S
C1487 C1488 1.287 . S
C1488 C1487 1.287 . S
C1488 C1489 1.524 . S
C1488 H1507 0.913 . S
C1489 H1465 0.950 . S
C1489 C1488 1.524 . S
C1489 C1490 1.415 . S
C1490 H1466 0.950 . S
C1490 C1485 1.363 . S
C1490 C1489 1.415 . S
C1491 H1467 0.951 . S
C1491 C1492 1.366 . S
C1491 C1493 1.388 . S
C1492 C1491 1.366 . S
C1492 C1496 1.385 . S
C1493 H1468 0.951 . S
C1493 C1491 1.388 . S
C1493 C1494 1.366 . S
C1494 C1493 1.366 . S
C1494 C1495 1.414 . S
C1494 C1497 1.499 . S
C1495 H1469 0.950 . S
C1495 C1494 1.414 . S
C1495 C1496 1.374 . S
C1496 H1470 0.950 . S
C1496 C1492 1.385 . S
C1496 C1495 1.374 . S
C1497 C1494 1.499 . S
C1497 C1498 1.373 . S
C1497 C1499 1.389 . S
C1498 H1471 0.950 . S
C1498 C1484 1.377 . S
C1498 C1497 1.373 . S
C1499 C1483 1.377 . S
C1499 C1497 1.389 . S
C1499 C1500 1.524 . S
C1500 C1499 1.524 . S
C1500 C1501 1.397 . S
C1500 C1505 1.363 . S
C1501 H1472 0.950 . S
C1501 C1500 1.397 . S
C1501 C1502 1.334 . S
C1502 H1473 0.950 . S
C1502 C1501 1.334 . S
C1502 C1503 1.287 . S
C1503 C1502 1.287 . S
C1503 C1504 1.524 . S
C1503 H1506 0.999 . S
C1504 H1474 0.950 . S
C1504 C1503 1.524 . S
C1504 C1505 1.415 . S
C1505 H1475 0.950 . S
C1505 C1500 1.363 . S
C1505 C1504 1.415 . S
H1506 C1503 0.999 . S
H1507 C1488 0.913 . S
H1508 C1526 0.951 . S
H1509 C1528 0.951 . S
H1510 C1530 0.950 . S
H1511 C1531 0.950 . S
H1512 C1533 0.950 . S
H1513 C1536 0.950 . S
H1514 C1537 0.950 . S
H1515 C1539 0.950 . S
H1516 C1540 0.950 . S
H1517 C1541 0.951 . S
H1518 C1543 0.951 . S
H1519 C1545 0.950 . S
H1520 C1546 0.950 . S
H1521 C1548 0.950 . S
H1522 C1551 0.950 . S
H1523 C1552 0.950 . S
H1524 C1554 0.950 . S
H1525 C1555 0.950 . S
C1526 H1508 0.951 . S
C1526 C1527 1.366 . S
C1526 C1528 1.388 . S
C1527 C1526 1.366 . S
C1527 C1531 1.385 . S
C1528 H1509 0.951 . S
C1528 C1526 1.388 . S
C1528 C1529 1.366 . S
C1529 C1528 1.366 . S
C1529 C1530 1.414 . S
C1529 C1532 1.499 . S
C1530 H1510 0.950 . S
C1530 C1529 1.414 . S
C1530 C1531 1.374 . S
C1531 H1511 0.950 . S
C1531 C1527 1.385 . S
C1531 C1530 1.374 . S
C1532 C1529 1.499 . S
C1532 C1533 1.373 . S
C1532 C1534 1.389 . S
C1533 H1512 0.950 . S
C1533 C1532 1.373 . S
C1533 C1549 1.377 . S
C1534 C1532 1.389 . S
C1534 C1535 1.524 . S
C1534 C1548 1.377 . S
C1535 C1534 1.524 . S
C1535 C1536 1.397 . S
C1535 C1540 1.363 . S
C1536 H1513 0.950 . S
C1536 C1535 1.397 . S
C1536 C1537 1.334 . S
C1537 H1514 0.950 . S
C1537 C1536 1.334 . S
C1537 C1538 1.287 . S
C1538 C1537 1.287 . S
C1538 C1539 1.524 . S
C1538 H1557 0.913 . S
C1539 H1515 0.950 . S
C1539 C1538 1.524 . S
C1539 C1540 1.415 . S
C1540 H1516 0.950 . S
C1540 C1535 1.363 . S
C1540 C1539 1.415 . S
C1541 H1517 0.951 . S
C1541 C1542 1.366 . S
C1541 C1543 1.388 . S
C1542 C1541 1.366 . S
C1542 C1546 1.385 . S
C1543 H1518 0.951 . S
C1543 C1541 1.388 . S
C1543 C1544 1.366 . S
C1544 C1543 1.366 . S
C1544 C1545 1.414 . S
C1544 C1547 1.499 . S
C1545 H1519 0.950 . S
C1545 C1544 1.414 . S
C1545 C1546 1.374 . S
C1546 H1520 0.950 . S
C1546 C1542 1.385 . S
C1546 C1545 1.374 . S
C1547 C1544 1.499 . S
C1547 C1548 1.373 . S
C1547 C1549 1.389 . S
C1548 H1521 0.950 . S
C1548 C1534 1.377 . S
C1548 C1547 1.373 . S
C1549 C1533 1.377 . S
C1549 C1547 1.389 . S
C1549 C1550 1.524 . S
C1550 C1549 1.524 . S
C1550 C1551 1.397 . S
C1550 C1555 1.363 . S
C1551 H1522 0.950 . S
C1551 C1550 1.397 . S
C1551 C1552 1.334 . S
C1552 H1523 0.950 . S
C1552 C1551 1.334 . S
C1552 C1553 1.287 . S
C1553 C1552 1.287 . S
C1553 C1554 1.524 . S
C1553 H1556 0.999 . S
C1554 H1524 0.950 . S
C1554 C1553 1.524 . S
C1554 C1555 1.415 . S
C1555 H1525 0.950 . S
C1555 C1550 1.363 . S
C1555 C1554 1.415 . S
H1556 C1553 0.999 . S
H1557 C1538 0.913 . S
H1558 C1576 0.951 . S
H1559 C1578 0.951 . S
H1560 C1580 0.950 . S
H1561 C1581 0.950 . S
H1562 C1583 0.950 . S
H1563 C1586 0.950 . S
H1564 C1587 0.950 . S
H1565 C1589 0.950 . S
H1566 C1590 0.950 . S
H1567 C1591 0.951 . S
H1568 C1593 0.951 . S
H1569 C1595 0.950 . S
H1570 C1596 0.950 . S
H1571 C1598 0.950 . S
H1572 C1601 0.950 . S
H1573 C1602 0.950 . S
H1574 C1604 0.950 . S
H1575 C1605 0.950 . S
C1576 H1558 0.951 . S
C1576 C1577 1.366 . S
C1576 C1578 1.388 . S
C1577 C1576 1.366 . S
C1577 C1581 1.385 . S
C1578 H1559 0.951 . S
C1578 C1576 1.388 . S
C1578 C1579 1.366 . S
C1579 C1578 1.366 . S
C1579 C1580 1.414 . S
C1579 C1582 1.499 . S
C1580 H1560 0.950 . S
C1580 C1579 1.414 . S
C1580 C1581 1.374 . S
C1581 H1561 0.950 . S
C1581 C1577 1.385 . S
C1581 C1580 1.374 . S
C1582 C1579 1.499 . S
C1582 C1583 1.373 . S
C1582 C1584 1.389 . S
C1583 H1562 0.950 . S
C1583 C1582 1.373 . S
C1583 C1599 1.377 . S
C1584 C1582 1.389 . S
C1584 C1585 1.524 . S
C1584 C1598 1.377 . S
C1585 C1584 1.524 . S
C1585 C1586 1.397 . S
C1585 C1590 1.363 . S
C1586 H1563 0.950 . S
C1586 C1585 1.397 . S
C1586 C1587 1.334 . S
C1587 H1564 0.950 . S
C1587 C1586 1.334 . S
C1587 C1588 1.287 . S
C1588 C1587 1.287 . S
C1588 C1589 1.524 . S
C1588 H1607 0.913 . S
C1589 H1565 0.950 . S
C1589 C1588 1.524 . S
C1589 C1590 1.415 . S
C1590 H1566 0.950 . S
C1590 C1585 1.363 . S
C1590 C1589 1.415 . S
C1591 H1567 0.951 . S
C1591 C1592 1.366 . S
C1591 C1593 1.388 . S
C1592 C1591 1.366 . S
C1592 C1596 1.385 . S
C1593 H1568 0.951 . S
C1593 C1591 1.388 . S
C1593 C1594 1.366 . S
C1594 C1593 1.366 . S
C1594 C1595 1.414 . S
C1594 C1597 1.499 . S
C1595 H1569 0.950 . S
C1595 C1594 1.414 . S
C1595 C1596 1.374 . S
C1596 H1570 0.950 . S
C1596 C1592 1.385 . S
C1596 C1595 1.374 . S
C1597 C1594 1.499 . S
C1597 C1598 1.373 . S
C1597 C1599 1.389 . S
C1598 H1571 0.950 . S
C1598 C1584 1.377 . S
C1598 C1597 1.373 . S
C1599 C1583 1.377 . S
C1599 C1597 1.389 . S
C1599 C1600 1.524 . S
C1600 C1599 1.524 . S
C1600 C1601 1.397 . S
C1600 C1605 1.363 . S
C1601 H1572 0.950 . S
C1601 C1600 1.397 . S
C1601 C1602 1.334 . S
C1602 H1573 0.950 . S
C1602 C1601 1.334 . S
C1602 C1603 1.287 . S
C1603 C1602 1.287 . S
C1603 C1604 1.524 . S
C1603 H1606 0.999 . S
C1604 H1574 0.950 . S
C1604 C1603 1.524 . S
C1604 C1605 1.415 . S
C1605 H1575 0.950 . S
C1605 C1600 1.363 . S
C1605 C1604 1.415 . S
H1606 C1603 0.999 . S
H1607 C1588 0.913 . S
H1608 C1626 0.951 . S
H1609 C1628 0.951 . S
H1610 C1630 0.950 . S
H1611 C1631 0.950 . S
H1612 C1633 0.950 . S
H1613 C1636 0.950 . S
H1614 C1637 0.950 . S
H1615 C1639 0.950 . S
H1616 C1640 0.950 . S
H1617 C1641 0.951 . S
H1618 C1643 0.951 . S
H1619 C1645 0.950 . S
H1620 C1646 0.950 . S
H1621 C1648 0.950 . S
H1622 C1651 0.950 . S
H1623 C1652 0.950 . S
H1624 C1654 0.950 . S
H1625 C1655 0.950 . S
C1626 H1608 0.951 . S
C1626 C1627 1.366 . S
C1626 C1628 1.388 . S
C1627 C1626 1.366 . S
C1627 C1631 1.385 . S
C1628 H1609 0.951 . S
C1628 C1626 1.388 . S
C1628 C1629 1.366 . S
C1629 C1628 1.366 . S
C1629 C1630 1.414 . S
C1629 C1632 1.499 . S
C1630 H1610 0.950 . S
C1630 C1629 1.414 . S
C1630 C1631 1.374 . S
C1631 H1611 0.950 . S
C1631 C1627 1.385 . S
C1631 C1630 1.374 . S
C1632 C1629 1.499 . S
C1632 C1633 1.373 . S
C1632 C1634 1.389 . S
C1633 H1612 0.950 . S
C1633 C1632 1.373 . S
C1633 C1649 1.377 . S
C1634 C1632 1.389 . S
C1634 C1635 1.524 . S
C1634 C1648 1.377 . S
C1635 C1634 1.524 . S
C1635 C1636 1.397 . S
C1635 C1640 1.363 . S
C1636 H1613 0.950 . S
C1636 C1635 1.397 . S
C1636 C1637 1.334 . S
C1637 H1614 0.950 . S
C1637 C1636 1.334 . S
C1637 C1638 1.287 . S
C1638 C1637 1.287 . S
C1638 C1639 1.524 . S
C1638 H1657 0.913 . S
C1639 H1615 0.950 . S
C1639 C1638 1.524 . S
C1639 C1640 1.415 . S
C1640 H1616 0.950 . S
C1640 C1635 1.363 . S
C1640 C1639 1.415 . S
C1641 H1617 0.951 . S
C1641 C1642 1.366 . S
C1641 C1643 1.388 . S
C1642 C1641 1.366 . S
C1642 C1646 1.385 . S
C1643 H1618 0.951 . S
C1643 C1641 1.388 . S
C1643 C1644 1.366 . S
C1644 C1643 1.366 . S
C1644 C1645 1.414 . S
C1644 C1647 1.499 . S
C1645 H1619 0.950 . S
C1645 C1644 1.414 . S
C1645 C1646 1.374 . S
C1646 H1620 0.950 . S
C1646 C1642 1.385 . S
C1646 C1645 1.374 . S
C1647 C1644 1.499 . S
C1647 C1648 1.373 . S
C1647 C1649 1.389 . S
C1648 H1621 0.950 . S
C1648 C1634 1.377 . S
C1648 C1647 1.373 . S
C1649 C1633 1.377 . S
C1649 C1647 1.389 . S
C1649 C1650 1.524 . S
C1650 C1649 1.524 . S
C1650 C1651 1.397 . S
C1650 C1655 1.363 . S
C1651 H1622 0.950 . S
C1651 C1650 1.397 . S
C1651 C1652 1.334 . S
C1652 H1623 0.950 . S
C1652 C1651 1.334 . S
C1652 C1653 1.287 . S
C1653 C1652 1.287 . S
C1653 C1654 1.524 . S
C1653 H1656 0.999 . S
C1654 H1624 0.950 . S
C1654 C1653 1.524 . S
C1654 C1655 1.415 . S
C1655 H1625 0.950 . S
C1655 C1650 1.363 . S
C1655 C1654 1.415 . S
H1656 C1653 0.999 . S
H1657 C1638 0.913 . S
H1658 C1676 0.951 . S
H1659 C1678 0.951 . S
H1660 C1680 0.950 . S
H1661 C1681 0.950 . S
H1662 C1683 0.950 . S
H1663 C1686 0.950 . S
H1664 C1687 0.950 . S
H1665 C1689 0.950 . S
H1666 C1690 0.950 . S
H1667 C1691 0.951 . S
H1668 C1693 0.951 . S
H1669 C1695 0.950 . S
H1670 C1696 0.950 . S
H1671 C1698 0.950 . S
H1672 C1701 0.950 . S
H1673 C1702 0.950 . S
H1674 C1704 0.950 . S
H1675 C1705 0.950 . S
C1676 H1658 0.951 . S
C1676 C1677 1.366 . S
C1676 C1678 1.388 . S
C1677 C1676 1.366 . S
C1677 C1681 1.385 . S
C1678 H1659 0.951 . S
C1678 C1676 1.388 . S
C1678 C1679 1.366 . S
C1679 C1678 1.366 . S
C1679 C1680 1.414 . S
C1679 C1682 1.499 . S
C1680 H1660 0.950 . S
C1680 C1679 1.414 . S
C1680 C1681 1.374 . S
C1681 H1661 0.950 . S
C1681 C1677 1.385 . S
C1681 C1680 1.374 . S
C1682 C1679 1.499 . S
C1682 C1683 1.373 . S
C1682 C1684 1.389 . S
C1683 H1662 0.950 . S
C1683 C1682 1.373 . S
C1683 C1699 1.377 . S
C1684 C1682 1.389 . S
C1684 C1685 1.524 . S
C1684 C1698 1.377 . S
C1685 C1684 1.524 . S
C1685 C1686 1.397 . S
C1685 C1690 1.363 . S
C1686 H1663 0.950 . S
C1686 C1685 1.397 . S
C1686 C1687 1.334 . S
C1687 H1664 0.950 . S
C1687 C1686 1.334 . S
C1687 C1688 1.287 . S
C1688 C1687 1.287 . S
C1688 C1689 1.524 . S
C1688 H1707 0.913 . S
C1689 H1665 0.950 . S
C1689 C1688 1.524 . S
C1689 C1690 1.415 . S
C1690 H1666 0.950 . S
C1690 C1685 1.363 . S
C1690 C1689 1.415 . S
C1691 H1667 0.951 . S
C1691 C1692 1.366 . S
C1691 C1693 1.388 . S
C1692 C1691 1.366 . S
C1692 C1696 1.385 . S
C1693 H1668 0.951 . S
C1693 C1691 1.388 . S
C1693 C1694 1.366 . S
C1694 C1693 1.366 . S
C1694 C1695 1.414 . S
C1694 C1697 1.499 . S
C1695 H1669 0.950 . S
C1695 C1694 1.414 . S
C1695 C1696 1.374 . S
C1696 H1670 0.950 . S
C1696 C1692 1.385 . S
C1696 C1695 1.374 . S
C1697 C1694 1.499 . S
C1697 C1698 1.373 . S
C1697 C1699 1.389 . S
C1698 H1671 0.950 . S
C1698 C1684 1.377 . S
C1698 C1697 1.373 . S
C1699 C1683 1.377 . S
C1699 C1697 1.389 . S
C1699 C1700 1.524 . S
C1700 C1699 1.524 . S
C1700 C1701 1.397 . S
C1700 C1705 1.363 . S
C1701 H1672 0.950 . S
C1701 C1700 1.397 . S
C1701 C1702 1.334 . S
C1702 H1673 0.950 . S
C1702 C1701 1.334 . S
C1702 C1703 1.287 . S
C1703 C1702 1.287 . S
C1703 C1704 1.524 . S
C1703 H1706 0.999 . S
C1704 H1674 0.950 . S
C1704 C1703 1.524 . S
C1704 C1705 1.415 . S
C1705 H1675 0.950 . S
C1705 C1700 1.363 . S
C1705 C1704 1.415 . S
H1706 C1703 0.999 . S
H1707 C1688 0.913 . S
H1708 C1726 0.951 . S
H1709 C1728 0.951 . S
H1710 C1730 0.950 . S
H1711 C1731 0.950 . S
H1712 C1733 0.950 . S
H1713 C1736 0.950 . S
H1714 C1737 0.950 . S
H1715 C1739 0.950 . S
H1716 C1740 0.950 . S
H1717 C1741 0.951 . S
H1718 C1743 0.951 . S
H1719 C1745 0.950 . S
H1720 C1746 0.950 . S
H1721 C1748 0.950 . S
H1722 C1751 0.950 . S
H1723 C1752 0.950 . S
H1724 C1754 0.950 . S
H1725 C1755 0.950 . S
C1726 H1708 0.951 . S
C1726 C1727 1.366 . S
C1726 C1728 1.388 . S
C1727 C1726 1.366 . S
C1727 C1731 1.385 . S
C1728 H1709 0.951 . S
C1728 C1726 1.388 . S
C1728 C1729 1.366 . S
C1729 C1728 1.366 . S
C1729 C1730 1.414 . S
C1729 C1732 1.499 . S
C1730 H1710 0.950 . S
C1730 C1729 1.414 . S
C1730 C1731 1.374 . S
C1731 H1711 0.950 . S
C1731 C1727 1.385 . S
C1731 C1730 1.374 . S
C1732 C1729 1.499 . S
C1732 C1733 1.373 . S
C1732 C1734 1.389 . S
C1733 H1712 0.950 . S
C1733 C1732 1.373 . S
C1733 C1749 1.377 . S
C1734 C1732 1.389 . S
C1734 C1735 1.524 . S
C1734 C1748 1.377 . S
C1735 C1734 1.524 . S
C1735 C1736 1.397 . S
C1735 C1740 1.363 . S
C1736 H1713 0.950 . S
C1736 C1735 1.397 . S
C1736 C1737 1.334 . S
C1737 H1714 0.950 . S
C1737 C1736 1.334 . S
C1737 C1738 1.287 . S
C1738 C1737 1.287 . S
C1738 C1739 1.524 . S
C1738 H1757 0.913 . S
C1739 H1715 0.950 . S
C1739 C1738 1.524 . S
C1739 C1740 1.415 . S
C1740 H1716 0.950 . S
C1740 C1735 1.363 . S
C1740 C1739 1.415 . S
C1741 H1717 0.951 . S
C1741 C1742 1.366 . S
C1741 C1743 1.388 . S
C1742 C1741 1.366 . S
C1742 C1746 1.385 . S
C1743 H1718 0.951 . S
C1743 C1741 1.388 . S
C1743 C1744 1.366 . S
C1744 C1743 1.366 . S
C1744 C1745 1.414 . S
C1744 C1747 1.499 . S
C1745 H1719 0.950 . S
C1745 C1744 1.414 . S
C1745 C1746 1.374 . S
C1746 H1720 0.950 . S
C1746 C1742 1.385 . S
C1746 C1745 1.374 . S
C1747 C1744 1.499 . S
C1747 C1748 1.373 . S
C1747 C1749 1.389 . S
C1748 H1721 0.950 . S
C1748 C1734 1.377 . S
C1748 C1747 1.373 . S
C1749 C1733 1.377 . S
C1749 C1747 1.389 . S
C1749 C1750 1.524 . S
C1750 C1749 1.524 . S
C1750 C1751 1.397 . S
C1750 C1755 1.363 . S
C1751 H1722 0.950 . S
C1751 C1750 1.397 . S
C1751 C1752 1.334 . S
C1752 H1723 0.950 . S
C1752 C1751 1.334 . S
C1752 C1753 1.287 . S
C1753 C1752 1.287 . S
C1753 C1754 1.524 . S
C1753 H1756 0.999 . S
C1754 H1724 0.950 . S
C1754 C1753 1.524 . S
C1754 C1755 1.415 . S
C1755 H1725 0.950 . S
C1755 C1750 1.363 . S
C1755 C1754 1.415 . S
H1756 C1753 0.999 . S
H1757 C1738 0.913 . S
H1758 C1776 0.951 . S
H1759 C1778 0.951 . S
H1760 C1780 0.950 . S
H1761 C1781 0.950 . S
H1762 C1783 0.950 . S
H1763 C1786 0.950 . S
H1764 C1787 0.950 . S
H1765 C1789 0.950 . S
H1766 C1790 0.950 . S
H1767 C1791 0.951 . S
H1768 C1793 0.951 . S
H1769 C1795 0.950 . S
H1770 C1796 0.950 . S
H1771 C1798 0.950 . S
H1772 C1801 0.950 . S
H1773 C1802 0.950 . S
H1774 C1804 0.950 . S
H1775 C1805 0.950 . S
C1776 H1758 0.951 . S
C1776 C1777 1.366 . S
C1776 C1778 1.388 . S
C1777 C1776 1.366 . S
C1777 C1781 1.385 . S
C1778 H1759 0.951 . S
C1778 C1776 1.388 . S
C1778 C1779 1.366 . S
C1779 C1778 1.366 . S
C1779 C1780 1.414 . S
C1779 C1782 1.499 . S
C1780 H1760 0.950 . S
C1780 C1779 1.414 . S
C1780 C1781 1.374 . S
C1781 H1761 0.950 . S
C1781 C1777 1.385 . S
C1781 C1780 1.374 . S
C1782 C1779 1.499 . S
C1782 C1783 1.373 . S
C1782 C1784 1.389 . S
C1783 H1762 0.950 . S
C1783 C1782 1.373 . S
C1783 C1799 1.377 . S
C1784 C1782 1.389 . S
C1784 C1785 1.524 . S
C1784 C1798 1.377 . S
C1785 C1784 1.524 . S
C1785 C1786 1.397 . S
C1785 C1790 1.363 . S
C1786 H1763 0.950 . S
C1786 C1785 1.397 . S
C1786 C1787 1.334 . S
C1787 H1764 0.950 . S
C1787 C1786 1.334 . S
C1787 C1788 1.287 . S
C1788 C1787 1.287 . S
C1788 C1789 1.524 . S
C1788 H1807 0.913 . S
C1789 H1765 0.950 . S
C1789 C1788 1.524 . S
C1789 C1790 1.415 . S
C1790 H1766 0.950 . S
C1790 C1785 1.363 . S
C1790 C1789 1.415 . S
C1791 H1767 0.951 . S
C1791 C1792 1.366 . S
C1791 C1793 1.388 . S
C1792 C1791 1.366 . S
C1792 C1796 1.385 . S
C1793 H1768 0.951 . S
C1793 C1791 1.388 . S
C1793 C1794 1.366 . S
C1794 C1793 1.366 . S
C1794 C1795 1.414 . S
C1794 C1797 1.499 . S
C1795 H1769 0.950 . S
C1795 C1794 1.414 . S
C1795 C1796 1.374 . S
C1796 H1770 0.950 . S
C1796 C1792 1.385 . S
C1796 C1795 1.374 . S
C1797 C1794 1.499 . S
C1797 C1798 1.373 . S
C1797 C1799 1.389 . S
C1798 H1771 0.950 . S
C1798 C1784 1.377 . S
C1798 C1797 1.373 . S
C1799 C1783 1.377 . S
C1799 C1797 1.389 . S
C1799 C1800 1.524 . S
C1800 C1799 1.524 . S
C1800 C1801 1.397 . S
C1800 C1805 1.363 . S
C1801 H1772 0.950 . S
C1801 C1800 1.397 . S
C1801 C1802 1.334 . S
C1802 H1773 0.950 . S
C1802 C1801 1.334 . S
C1802 C1803 1.287 . S
C1803 C1802 1.287 . S
C1803 C1804 1.524 . S
C1803 H1806 0.999 . S
C1804 H1774 0.950 . S
C1804 C1803 1.524 . S
C1804 C1805 1.415 . S
C1805 H1775 0.950 . S
C1805 C1800 1.363 . S
C1805 C1804 1.415 . S
H1806 C1803 0.999 . S
H1807 C1788 0.913 . S
C227 C3 1.323 . S
C242 C31 1.323 . S
C277 C42 1.324 . S
C292 C18 1.324 . S
C327 C55 1.323 . S
C342 C81 1.324 . S
C377 C96 1.323 . S
C392 C70 1.323 . S
C427 C107 1.323 . S
C442 C135 1.323 . S
C477 C146 1.324 . S
C492 C122 1.324 . S
C527 C159 1.323 . S
C542 C187 1.324 . S
C577 C200 1.323 . S
C592 C172 1.324 . S
C627 C57 1.201 . S
C642 C5 1.201 . S
C677 C16 1.201 . S
C692 C68 1.201 . S
C727 C29 1.201 . S
C742 C83 1.201 . S
C777 C94 1.201 . S
C792 C44 1.201 . S
C827 C109 1.201 . S
C842 C161 1.201 . S
C877 C120 1.202 . S
C892 C174 1.201 . S
C927 C133 1.201 . S
C942 C185 1.202 . S
C977 C148 1.201 . S
C992 C198 1.202 . S
C1027 C140 1.275 . S
C1042 C4 1.275 . S
C1077 C147 1.275 . S
C1092 C23 1.275 . S
C1127 C36 1.276 . S
C1142 C108 1.275 . S
C1177 C43 1.275 . S
C1192 C127 1.275 . S
C1227 C56 1.275 . S
C1242 C192 1.275 . S
C1277 C75 1.275 . S
C1292 C205 1.276 . S
C1327 C82 1.275 . S
C1342 C160 1.275 . S
C1377 C173 1.275 . S
C1392 C101 1.276 . S
C1427 C10 1.266 . S
C1442 C199 1.266 . S
C1477 C166 1.266 . S
C1492 C17 1.266 . S
C1527 C30 1.267 . S
C1542 C179 1.266 . S
C1577 C186 1.266 . S
C1592 C49 1.266 . S
C1627 C121 1.267 . S
C1642 C62 1.266 . S
C1677 C69 1.266 . S
C1692 C134 1.267 . S
C1727 C153 1.266 . S
C1742 C88 1.266 . S
C1777 C114 1.266 . S
C1792 C95 1.266 . S
