# Generated by pormake.
# Topology smk, (6)-cn, num edge types: 1
# Building blocks:
#     Node 0, Type 0, BuildingBlock: OJICUG_clean_sbu_0, # of connection points: 6
#     Node 1, Type 0, BuildingBlock: OJICUG_clean_sbu_0, # of connection points: 6
#     Node 2, Type 0, BuildingBlock: OJICUG_clean_sbu_0, # of connection points: 6
#     Node 3, Type 0, BuildingBlock: OJICUG_clean_sbu_0, # of connection points: 6
#     Node 4, Type 0, BuildingBlock: OJICUG_clean_sbu_0, # of connection points: 6
#     Node 5, Type 0, BuildingBlock: OJICUG_clean_sbu_0, # of connection points: 6
#     Edge 6, Type (0, 0), BuildingBlock: AJUNOK_clean_linker_0, # of connection points: 2
#     Edge 7, Type (0, 0), BuildingBlock: AJUNOK_clean_linker_0, # of connection points: 2
#     Edge 8, Type (0, 0), BuildingBlock: AJUNOK_clean_linker_0, # of connection points: 2
#     Edge 9, Type (0, 0), BuildingBlock: AJUNOK_clean_linker_0, # of connection points: 2
#     Edge 10, Type (0, 0), BuildingBlock: AJUNOK_clean_linker_0, # of connection points: 2
#     Edge 11, Type (0, 0), BuildingBlock: AJUNOK_clean_linker_0, # of connection points: 2
#     Edge 12, Type (0, 0), BuildingBlock: AJUNOK_clean_linker_0, # of connection points: 2
#     Edge 13, Type (0, 0), BuildingBlock: AJUNOK_clean_linker_0, # of connection points: 2
#     Edge 14, Type (0, 0), BuildingBlock: AJUNOK_clean_linker_0, # of connection points: 2
#     Edge 15, Type (0, 0), BuildingBlock: AJUNOK_clean_linker_0, # of connection points: 2
#     Edge 16, Type (0, 0), BuildingBlock: AJUNOK_clean_linker_0, # of connection points: 2
#     Edge 17, Type (0, 0), BuildingBlock: AJUNOK_clean_linker_0, # of connection points: 2
#     Edge 18, Type (0, 0), BuildingBlock: AJUNOK_clean_linker_0, # of connection points: 2
#     Edge 19, Type (0, 0), BuildingBlock: AJUNOK_clean_linker_0, # of connection points: 2
#     Edge 20, Type (0, 0), BuildingBlock: AJUNOK_clean_linker_0, # of connection points: 2
#     Edge 21, Type (0, 0), BuildingBlock: AJUNOK_clean_linker_0, # of connection points: 2
#     Edge 22, Type (0, 0), BuildingBlock: AJUNOK_clean_linker_0, # of connection points: 2
#     Edge 23, Type (0, 0), BuildingBlock: AJUNOK_clean_linker_0, # of connection points: 2
# Relax obj value: 0.194
# Max RMSD: 0.221
# Mean RMSD: 0.221
data_MOF--net-smk--node1-OJICUG_clean_sbu_0--edge1-AJUNOK_clean_linker_0
_symmetry_space_group_name_H-M    P1
_symmetry_Int_Tables_number       1
_symmetry_cell_setting            triclinic
loop_
_symmetry_equiv_pos_as_xyz
'x, y, z'
_cell_length_a     33.427266
_cell_length_b     33.42819
_cell_length_c     11.893779
_cell_angle_alpha  89.901041
_cell_angle_beta   89.959148
_cell_angle_gamma 120.01478
loop_
_atom_site_label
_atom_site_type_symbol
_atom_site_fract_x
_atom_site_fract_y
_atom_site_fract_z
_atom_type_partial_charge
Sc0 Sc 0.45555 0.19325 0.47529 0.0
Sc1 Sc 0.35111 0.17249 0.59044 0.0
Sc2 Sc 0.45583 0.26145 0.69209 0.0
O3 O 0.42049 0.20888 0.58634 0.0
C4 C 0.51889 0.21404 0.67715 0.0
C5 C 0.37091 0.09353 0.53711 0.0
C6 C 0.37955 0.192 0.85225 0.0
C7 C 0.37585 0.18496 0.32676 0.0
C8 C 0.51691 0.30393 0.48581 0.0
C9 C 0.36731 0.27082 0.63772 0.0
O10 O 0.49353 0.18341 0.60631 0.0
O11 O 0.35103 0.10829 0.60225 0.0
O12 O 0.4224 0.21776 0.83231 0.0
O13 O 0.41907 0.20291 0.34184 0.0
O14 O 0.49118 0.3085 0.55691 0.0
O15 O 0.34651 0.23423 0.5794 0.0
O16 O 0.51073 0.26449 0.45752 0.0
O17 O 0.34605 0.16698 0.4059 0.0
O18 O 0.40427 0.28235 0.69185 0.0
O19 O 0.40567 0.12013 0.4769 0.0
O20 O 0.51199 0.24678 0.70643 0.0
O21 O 0.34892 0.17529 0.77497 0.0
Sc22 Sc 0.25797 0.45685 0.64274 0.0
Sc23 Sc 0.16925 0.35269 0.74895 0.0
Sc24 Sc 0.19126 0.45727 0.86366 0.0
O25 O 0.20601 0.42201 0.75113 0.0
C26 C 0.30166 0.51961 0.84548 0.0
C27 C 0.26789 0.36883 0.70128 0.0
C28 C 0.18307 0.37775 0.01216 0.0
C29 C 0.18771 0.3795 0.48616 0.0
C30 C 0.20978 0.51944 0.65896 0.0
C31 C 0.09099 0.37256 0.80644 0.0
O32 O 0.30585 0.49355 0.77495 0.0
O33 O 0.23089 0.34808 0.75876 0.0
O34 O 0.20222 0.42111 0.99667 0.0
O35 O 0.21416 0.42235 0.50377 0.0
O36 O 0.18027 0.49476 0.73322 0.0
O37 O 0.10537 0.35317 0.7387 0.0
O38 O 0.24204 0.51218 0.62672 0.0
O39 O 0.17113 0.34941 0.56485 0.0
O40 O 0.11805 0.40702 0.86661 0.0
O41 O 0.27958 0.40575 0.64618 0.0
O42 O 0.26241 0.51315 0.87672 0.0
O43 O 0.16408 0.34815 0.9334 0.0
Sc44 Sc 0.79466 0.2618 0.80686 0.0
Sc45 Sc 0.81189 0.17607 0.92586 0.0
Sc46 Sc 0.72796 0.19825 0.03357 0.0
O47 O 0.77841 0.21221 0.92269 0.0
C48 C 0.77911 0.30926 0.01098 0.0
C49 C 0.89318 0.27391 0.871 0.0
C50 C 0.79539 0.18674 0.18865 0.0
C51 C 0.80012 0.18769 0.66243 0.0
C52 C 0.68474 0.216 0.8243 0.0
C53 C 0.71176 0.09739 0.9761 0.0
O54 O 0.80554 0.31256 0.93036 0.0
O55 O 0.87749 0.23878 0.93526 0.0
O56 O 0.77254 0.20698 0.16988 0.0
O57 O 0.78335 0.21395 0.67694 0.0
O58 O 0.67973 0.1884 0.90348 0.0
O59 O 0.74788 0.11154 0.91609 0.0
O60 O 0.72414 0.24687 0.7885 0.0
O61 O 0.81761 0.17562 0.74177 0.0
O62 O 0.70285 0.12439 0.03255 0.0
O63 O 0.86749 0.2832 0.81034 0.0
O64 O 0.74744 0.27065 0.04969 0.0
O65 O 0.80942 0.17059 0.11038 0.0
Sc66 Sc 0.52935 0.79845 0.96341 0.0
Sc67 Sc 0.63482 0.82037 0.08013 0.0
Sc68 Sc 0.53011 0.73054 0.18699 0.0
O69 O 0.56485 0.78311 0.07717 0.0
C70 C 0.46696 0.77868 0.17497 0.0
C71 C 0.61255 0.89906 0.02769 0.0
C72 C 0.60956 0.80251 0.34275 0.0
C73 C 0.61144 0.80967 0.81533 0.0
C74 C 0.46763 0.68767 0.97631 0.0
C75 C 0.61848 0.72029 0.12739 0.0
O76 O 0.48699 0.80376 0.08981 0.0
O77 O 0.635 0.88455 0.08402 0.0
O78 O 0.56765 0.77193 0.3274 0.0
O79 O 0.56843 0.79387 0.82794 0.0
O80 O 0.4893 0.68298 0.05796 0.0
O81 O 0.64108 0.75953 0.07962 0.0
O82 O 0.47673 0.72695 0.93827 0.0
O83 O 0.64023 0.82356 0.89647 0.0
O84 O 0.57905 0.706 0.17273 0.0
O85 O 0.57634 0.87246 0.97216 0.0
O86 O 0.47707 0.74939 0.21529 0.0
O87 O 0.63851 0.82191 0.26313 0.0
Sc88 Sc 0.73097 0.53487 0.15091 0.0
Sc89 Sc 0.81718 0.63915 0.2642 0.0
Sc90 Sc 0.79441 0.53398 0.38029 0.0
O91 O 0.78075 0.56945 0.26488 0.0
C92 C 0.68426 0.47108 0.35451 0.0
C93 C 0.71859 0.62225 0.20855 0.0
C94 C 0.80371 0.61347 0.52811 0.0
C95 C 0.80443 0.61471 1.00171 0.0
C96 C 0.77991 0.47279 0.17325 0.0
C97 C 0.89528 0.61856 0.32435 0.0
O98 O 0.68069 0.49515 0.27688 0.0
O99 O 0.75536 0.64363 0.26661 0.0
O100 O 0.78329 0.57021 0.51174 0.0
O101 O 0.77728 0.5718 0.01679 0.0
O102 O 0.8058 0.4953 0.25495 0.0
O103 O 0.88139 0.63902 0.25846 0.0
O104 O 0.74926 0.48089 0.13263 0.0
O105 O 0.81842 0.64426 0.08093 0.0
O106 O 0.86794 0.58366 0.3835 0.0
O107 O 0.70727 0.5848 0.15616 0.0
O108 O 0.72307 0.47895 0.39289 0.0
O109 O 0.82128 0.6431 0.44867 0.0
Sc110 Sc 0.19334 0.7309 0.31662 0.0
Sc111 Sc 0.17383 0.81615 0.42651 0.0
Sc112 Sc 0.25738 0.79603 0.54468 0.0
O113 O 0.20838 0.78121 0.42852 0.0
C114 C 0.21022 0.68605 0.52406 0.0
C115 C 0.09354 0.7167 0.37862 0.0
C116 C 0.18528 0.80411 0.69001 0.0
C117 C 0.18386 0.8005 0.16336 0.0
C118 C 0.30441 0.77981 0.34051 0.0
C119 C 0.27213 0.89562 0.48009 0.0
O120 O 0.18266 0.68192 0.44589 0.0
O121 O 0.10878 0.75303 0.438 0.0
O122 O 0.20959 0.78513 0.67576 0.0
O123 O 0.2023 0.77579 0.17973 0.0
O124 O 0.30787 0.8065 0.4205 0.0
O125 O 0.23739 0.88056 0.41517 0.0
O126 O 0.26564 0.74916 0.30018 0.0
O127 O 0.16811 0.81435 0.24276 0.0
O128 O 0.28019 0.86939 0.54234 0.0
O129 O 0.11966 0.70713 0.32014 0.0
O130 O 0.24145 0.72502 0.56078 0.0
O131 O 0.17437 0.82236 0.61017 0.0
C132 C 0.34128 0.14418 0.14647 0.0
C133 C 0.36139 0.18515 0.21019 0.0
C134 C 0.34326 0.1458 0.02798 0.0
C135 C 0.36583 0.18847 0.97132 0.0
H136 H 0.32767 0.11106 0.18823 0.0
H137 H 0.3306 0.1139 0.98142 0.0
S138 S 0.418 0.30481 0.10041 0.0
N139 N 0.39939 0.26875 0.20815 0.0
N140 N 0.40394 0.27206 0.98714 0.0
C141 C 0.38244 0.22924 0.03442 0.0
C142 C 0.37998 0.22751 0.15368 0.0
C143 C 0.14111 0.34781 0.31014 0.0
C144 C 0.18316 0.36489 0.36793 0.0
C145 C 0.14013 0.34663 0.19175 0.0
C146 C 0.18112 0.36257 0.12904 0.0
H147 H 0.1097 0.33895 0.35585 0.0
H148 H 0.10795 0.33702 0.14928 0.0
S149 S 0.29839 0.40375 0.24209 0.0
N150 N 0.26544 0.3925 0.35463 0.0
N151 N 0.26347 0.39073 0.13311 0.0
C152 C 0.22239 0.37576 0.18645 0.0
C153 C 0.22342 0.3768 0.30594 0.0
C154 C 0.83958 0.19192 0.3646 0.0
C155 C 0.79741 0.17503 0.30729 0.0
C156 C 0.84054 0.19091 0.48314 0.0
C157 C 0.79934 0.1725 0.54616 0.0
H158 H 0.87188 0.2094 0.31859 0.0
H159 H 0.87363 0.20832 0.5255 0.0
S160 S 0.68029 0.11841 0.43449 0.0
N161 N 0.71368 0.13545 0.32184 0.0
N162 N 0.71568 0.13248 0.54267 0.0
C163 C 0.75715 0.15165 0.48888 0.0
C164 C 0.75613 0.15325 0.3697 0.0
C165 C 0.62978 0.85015 0.5165 0.0
C166 C 0.62526 0.81128 0.46006 0.0
C167 C 0.63083 0.85186 0.63452 0.0
C168 C 0.62764 0.81492 0.69869 0.0
H169 H 0.62864 0.87744 0.4699 0.0
H170 H 0.63024 0.88043 0.67589 0.0
S171 S 0.62027 0.70794 0.5893 0.0
N172 N 0.62169 0.73712 0.47562 0.0
N173 N 0.62362 0.74049 0.69737 0.0
C174 C 0.62676 0.7777 0.64278 0.0
C175 C 0.62558 0.77586 0.52311 0.0
C176 C 0.83917 0.6105 0.70651 0.0
C177 C 0.81506 0.62795 0.64594 0.0
C178 C 0.84014 0.61123 0.82388 0.0
C179 C 0.81724 0.62969 0.88469 0.0
H180 H 0.85438 0.59286 0.66299 0.0
H181 H 0.85574 0.59394 0.86739 0.0
S182 S 0.75303 0.68371 0.76605 0.0
N183 N 0.77102 0.66761 0.65453 0.0
N184 N 0.77293 0.66921 0.87682 0.0
C185 C 0.79626 0.65076 0.82538 0.0
C186 C 0.79514 0.64985 0.70516 0.0
C187 C 0.20109 0.84707 0.98671 0.0
C188 C 0.17378 0.80564 0.04559 0.0
C189 C 0.20062 0.84788 0.86838 0.0
C190 C 0.17286 0.80731 0.8067 0.0
H191 H 0.22553 0.87788 0.03158 0.0
H192 H 0.22503 0.87929 0.82504 0.0
S193 S 0.09157 0.69178 0.92272 0.0
N194 N 0.11531 0.72449 0.03442 0.0
N195 N 0.11463 0.72614 0.81285 0.0
C196 C 0.14289 0.76683 0.86516 0.0
C197 C 0.14332 0.76598 0.98471 0.0
C198 C 0.3354 0.01358 0.61481 0.0
C199 C 0.34976 0.04336 0.52144 0.0
C200 C 0.31223 0.96553 0.60045 0.0
C201 C 0.30146 0.94592 0.49236 0.0
H202 H 0.34179 0.02751 0.69927 0.0
H203 H 0.30096 0.94358 0.6744 0.0
S204 S 0.33165 0.0091 0.22116 0.0
N205 N 0.35274 0.05008 0.31758 0.0
N206 N 0.30742 0.95968 0.29088 0.0
C207 C 0.31599 0.97534 0.3985 0.0
C208 C 0.34066 0.02416 0.41301 0.0
C209 C 0.33929 0.32261 0.56749 0.0
C210 C 0.34437 0.29778 0.65599 0.0
C211 C 0.31607 0.34729 0.58437 0.0
C212 C 0.2963 0.34677 0.68944 0.0
H213 H 0.35318 0.3228 0.48501 0.0
H214 H 0.31223 0.36556 0.51373 0.0
S215 S 0.30092 0.28691 0.94753 0.0
N216 N 0.32891 0.27452 0.8519 0.0
N217 N 0.28435 0.32007 0.88339 0.0
C218 C 0.3016 0.32225 0.77858 0.0
C219 C 0.32591 0.29792 0.76183 0.0
C220 C 0.96261 0.31215 0.74824 0.0
C221 C 0.94349 0.30245 0.85706 0.0
C222 C 0.01057 0.33555 0.73211 0.0
C223 C 0.04083 0.3513 0.82427 0.0
H224 H 0.94032 0.30002 0.67517 0.0
H225 H 0.02407 0.34111 0.64715 0.0
S226 S 0.00782 0.33642 0.12581 0.0
N227 N 0.95808 0.31079 0.05793 0.0
N228 N 0.04838 0.35679 0.02789 0.0
C229 C 0.02207 0.34324 0.93339 0.0
C230 C 0.97329 0.31821 0.94976 0.0
C231 C 0.63665 0.96991 0.91202 0.0
C232 C 0.63228 0.94946 0.01829 0.0
C233 C 0.66174 0.01812 0.89863 0.0
C234 C 0.68195 0.04723 0.99161 0.0
H235 H 0.62256 0.94848 0.83804 0.0
H236 H 0.66597 0.0327 0.81508 0.0
S237 S 0.67876 0.01091 0.28761 0.0
N238 N 0.64925 0.96198 0.21787 0.0
N239 N 0.69517 0.05247 0.19303 0.0
C240 C 0.6763 0.02725 0.09854 0.0
C241 C 0.65175 0.97833 0.11184 0.0
C242 C 0.71471 0.69342 0.17283 0.0
C243 C 0.69128 0.64536 0.18951 0.0
C244 C 0.69073 0.71673 0.14905 0.0
C245 C 0.64216 0.69314 0.14305 0.0
H246 H 0.7521 0.71323 0.17642 0.0
H247 H 0.7106 0.75386 0.13789 0.0
S248 S 0.56443 0.56694 0.18096 0.0
N249 N 0.6169 0.57457 0.19709 0.0
N250 N 0.57138 0.61869 0.15594 0.0
C251 C 0.61816 0.64497 0.16002 0.0
C252 C 0.64282 0.62101 0.18204 0.0
C253 C 0.97489 0.64985 0.24754 0.0
C254 C 0.94538 0.63895 0.34073 0.0
C255 C 0.02298 0.6728 0.26138 0.0
C256 C 0.04305 0.68695 0.3684 0.0
H257 H 0.96071 0.64104 0.16343 0.0
H258 H 0.04459 0.68134 0.18734 0.0
S259 S 0.98058 0.66587 0.63912 0.0
N260 N 0.93931 0.64236 0.54368 0.0
N261 N 0.02981 0.68731 0.56918 0.0
C262 C 0.01385 0.67563 0.46229 0.0
C263 C 0.96493 0.65112 0.44855 0.0
C264 C 0.55959 0.38796 0.43479 0.0
C265 C 0.55914 0.34585 0.44727 0.0
C266 C 0.60028 0.42863 0.40511 0.0
C267 C 0.64212 0.42879 0.3908 0.0
H268 H 0.52824 0.38941 0.4474 0.0
H269 H 0.59914 0.46025 0.39453 0.0
S270 S 0.65942 0.32774 0.41331 0.0
N271 N 0.60409 0.3068 0.4412 0.0
N272 N 0.68056 0.38336 0.38891 0.0
C273 C 0.64216 0.38702 0.40356 0.0
C274 C 0.60065 0.34549 0.43079 0.0
C275 C 0.16876 0.56305 0.61663 0.0
C276 C 0.21005 0.56144 0.61929 0.0
C277 C 0.16887 0.60366 0.5863 0.0
C278 C 0.21043 0.64426 0.56141 0.0
H279 H 0.13613 0.53267 0.63758 0.0
H280 H 0.13637 0.60346 0.58345 0.0
S281 S 0.3277 0.65836 0.55422 0.0
N282 N 0.29349 0.60402 0.59167 0.0
N283 N 0.29359 0.68045 0.5381 0.0
C284 C 0.25188 0.64322 0.56391 0.0
C285 C 0.25171 0.60174 0.59187 0.0
C286 C 0.60158 0.17389 0.7691 0.0
C287 C 0.64332 0.21577 0.78179 0.0
C288 C 0.56122 0.17345 0.73512 0.0
C289 C 0.56108 0.21493 0.71641 0.0
H290 H 0.6002 0.1413 0.78496 0.0
H291 H 0.52981 0.14051 0.72486 0.0
S292 S 0.66145 0.33375 0.73999 0.0
N293 N 0.68224 0.29967 0.77292 0.0
N294 N 0.60622 0.29894 0.71216 0.0
C295 C 0.60258 0.25703 0.72964 0.0
C296 C 0.64379 0.25742 0.76144 0.0
C297 C 0.42543 0.60332 0.93048 0.0
C298 C 0.42629 0.64582 0.9346 0.0
C299 C 0.38496 0.56241 0.9015 0.0
C300 C 0.34364 0.56244 0.8797 0.0
H301 H 0.45624 0.60168 0.94992 0.0
H302 H 0.38579 0.53045 0.89797 0.0
S303 S 0.32758 0.66458 0.87969 0.0
N304 N 0.38242 0.68548 0.91293 0.0
N305 N 0.30617 0.60854 0.86212 0.0
C306 C 0.34405 0.60469 0.88371 0.0
C307 C 0.38544 0.64641 0.91012 0.0
C308 C 0.78038 0.42306 0.01692 0.0
C309 C 0.78227 0.43238 0.13248 0.0
C310 C 0.78111 0.3838 0.97813 0.0
C311 C 0.78222 0.35197 0.05389 0.0
H312 H 0.77848 0.44628 0.9563 0.0
H313 H 0.77934 0.37755 0.88841 0.0
S314 S 0.78628 0.35998 0.36444 0.0
N315 N 0.7856 0.40674 0.32221 0.0
N316 N 0.78482 0.33197 0.24883 0.0
C317 C 0.78371 0.36067 0.16938 0.0
C318 C 0.78434 0.40121 0.20881 0.0
C319 C 0.39336 0.77868 0.14514 0.0
C320 C 0.42674 0.78032 0.22014 0.0
C321 C 0.35376 0.77856 0.18446 0.0
C322 C 0.347 0.78161 0.29988 0.0
H323 H 0.39737 0.77637 0.05536 0.0
H324 H 0.32845 0.77637 0.12419 0.0
S325 S 0.4243 0.78687 0.53053 0.0
N326 N 0.45021 0.78428 0.41468 0.0
N327 N 0.37679 0.78618 0.48902 0.0
C328 C 0.38046 0.78391 0.37569 0.0
C329 C 0.42007 0.78264 0.33572 0.0
loop_
_geom_bond_atom_site_label_1
_geom_bond_atom_site_label_2
_geom_bond_distance
_geom_bond_site_symmetry_2
_ccdc_geom_bond_type
Sc0 O3 2.025 . S
Sc0 O10 2.105 . S
Sc0 O13 2.105 . S
Sc0 O16 2.105 . S
Sc0 O19 2.105 . S
Sc1 O3 2.025 . S
Sc1 O11 2.105 . S
Sc1 O15 2.105 . S
Sc1 O17 2.105 . S
Sc1 O21 2.105 . S
Sc2 O3 2.025 . S
Sc2 O12 2.105 . S
Sc2 O14 2.105 . S
Sc2 O18 2.105 . S
Sc2 O20 2.105 . S
O3 Sc0 2.025 . S
O3 Sc1 2.025 . S
O3 Sc2 2.025 . S
C4 O10 1.268 . S
C4 O20 1.268 . S
C5 O11 1.268 . S
C5 O19 1.268 . S
C6 O12 1.268 . S
C6 O21 1.268 . S
C7 O13 1.268 . S
C7 O17 1.268 . S
C8 O14 1.268 . S
C8 O16 1.268 . S
C9 O15 1.268 . S
C9 O18 1.268 . S
O10 Sc0 2.105 . S
O10 C4 1.268 . S
O11 Sc1 2.105 . S
O11 C5 1.268 . S
O12 Sc2 2.105 . S
O12 C6 1.268 . S
O13 Sc0 2.105 . S
O13 C7 1.268 . S
O14 Sc2 2.105 . S
O14 C8 1.268 . S
O15 Sc1 2.105 . S
O15 C9 1.268 . S
O16 Sc0 2.105 . S
O16 C8 1.268 . S
O17 Sc1 2.105 . S
O17 C7 1.268 . S
O18 Sc2 2.105 . S
O18 C9 1.268 . S
O19 Sc0 2.105 . S
O19 C5 1.268 . S
O20 Sc2 2.105 . S
O20 C4 1.268 . S
O21 Sc1 2.105 . S
O21 C6 1.268 . S
Sc22 O25 2.025 . S
Sc22 O32 2.105 . S
Sc22 O35 2.105 . S
Sc22 O38 2.105 . S
Sc22 O41 2.105 . S
Sc23 O25 2.025 . S
Sc23 O33 2.105 . S
Sc23 O37 2.105 . S
Sc23 O39 2.105 . S
Sc23 O43 2.105 . S
Sc24 O25 2.025 . S
Sc24 O34 2.105 . S
Sc24 O36 2.105 . S
Sc24 O40 2.105 . S
Sc24 O42 2.105 . S
O25 Sc22 2.025 . S
O25 Sc23 2.025 . S
O25 Sc24 2.025 . S
C26 O32 1.268 . S
C26 O42 1.268 . S
C27 O33 1.268 . S
C27 O41 1.268 . S
C28 O34 1.268 1_554 S
C28 O43 1.268 1_554 S
C29 O35 1.268 . S
C29 O39 1.268 . S
C30 O36 1.268 . S
C30 O38 1.268 . S
C31 O37 1.268 . S
C31 O40 1.268 . S
O32 Sc22 2.105 . S
O32 C26 1.268 . S
O33 Sc23 2.105 . S
O33 C27 1.268 . S
O34 Sc24 2.105 . S
O34 C28 1.268 1_556 S
O35 Sc22 2.105 . S
O35 C29 1.268 . S
O36 Sc24 2.105 . S
O36 C30 1.268 . S
O37 Sc23 2.105 . S
O37 C31 1.268 . S
O38 Sc22 2.105 . S
O38 C30 1.268 . S
O39 Sc23 2.105 . S
O39 C29 1.268 . S
O40 Sc24 2.105 . S
O40 C31 1.268 . S
O41 Sc22 2.105 . S
O41 C27 1.268 . S
O42 Sc24 2.105 . S
O42 C26 1.268 . S
O43 Sc23 2.105 . S
O43 C28 1.268 1_556 S
Sc44 O47 2.025 . S
Sc44 O54 2.105 . S
Sc44 O57 2.105 . S
Sc44 O60 2.105 . S
Sc44 O63 2.105 . S
Sc45 O47 2.025 . S
Sc45 O55 2.105 . S
Sc45 O59 2.105 . S
Sc45 O61 2.105 . S
Sc45 O65 2.105 1_556 S
Sc46 O47 2.025 1_554 S
Sc46 O56 2.105 . S
Sc46 O58 2.105 1_554 S
Sc46 O62 2.105 . S
Sc46 O64 2.105 . S
O47 Sc44 2.025 . S
O47 Sc45 2.025 . S
O47 Sc46 2.025 1_556 S
C48 O54 1.268 1_554 S
C48 O64 1.268 . S
C49 O55 1.268 . S
C49 O63 1.268 . S
C50 O56 1.268 . S
C50 O65 1.268 . S
C51 O57 1.268 . S
C51 O61 1.268 . S
C52 O58 1.268 . S
C52 O60 1.268 . S
C53 O59 1.268 . S
C53 O62 1.268 1_556 S
O54 Sc44 2.105 . S
O54 C48 1.268 1_556 S
O55 Sc45 2.105 . S
O55 C49 1.268 . S
O56 Sc46 2.105 . S
O56 C50 1.268 . S
O57 Sc44 2.105 . S
O57 C51 1.268 . S
O58 Sc46 2.105 1_556 S
O58 C52 1.268 . S
O59 Sc45 2.105 . S
O59 C53 1.268 . S
O60 Sc44 2.105 . S
O60 C52 1.268 . S
O61 Sc45 2.105 . S
O61 C51 1.268 . S
O62 Sc46 2.105 . S
O62 C53 1.268 1_554 S
O63 Sc44 2.105 . S
O63 C49 1.268 . S
O64 Sc46 2.105 . S
O64 C48 1.268 . S
O65 Sc45 2.105 1_554 S
O65 C50 1.268 . S
Sc66 O69 2.025 1_556 S
Sc66 O76 2.105 1_556 S
Sc66 O79 2.105 . S
Sc66 O82 2.105 . S
Sc66 O85 2.105 . S
Sc67 O69 2.025 . S
Sc67 O77 2.105 . S
Sc67 O81 2.105 . S
Sc67 O83 2.105 1_554 S
Sc67 O87 2.105 . S
Sc68 O69 2.025 . S
Sc68 O78 2.105 . S
Sc68 O80 2.105 . S
Sc68 O84 2.105 . S
Sc68 O86 2.105 . S
O69 Sc66 2.025 1_554 S
O69 Sc67 2.025 . S
O69 Sc68 2.025 . S
C70 O76 1.268 . S
C70 O86 1.268 . S
C71 O77 1.268 . S
C71 O85 1.268 1_554 S
C72 O78 1.268 . S
C72 O87 1.268 . S
C73 O79 1.268 . S
C73 O83 1.268 . S
C74 O80 1.268 1_556 S
C74 O82 1.268 . S
C75 O81 1.268 . S
C75 O84 1.268 . S
O76 Sc66 2.105 1_554 S
O76 C70 1.268 . S
O77 Sc67 2.105 . S
O77 C71 1.268 . S
O78 Sc68 2.105 . S
O78 C72 1.268 . S
O79 Sc66 2.105 . S
O79 C73 1.268 . S
O80 Sc68 2.105 . S
O80 C74 1.268 1_554 S
O81 Sc67 2.105 . S
O81 C75 1.268 . S
O82 Sc66 2.105 . S
O82 C74 1.268 . S
O83 Sc67 2.105 1_556 S
O83 C73 1.268 . S
O84 Sc68 2.105 . S
O84 C75 1.268 . S
O85 Sc66 2.105 . S
O85 C71 1.268 1_556 S
O86 Sc68 2.105 . S
O86 C70 1.268 . S
O87 Sc67 2.105 . S
O87 C72 1.268 . S
Sc88 O91 2.025 . S
Sc88 O98 2.105 . S
Sc88 O101 2.105 . S
Sc88 O104 2.105 . S
Sc88 O107 2.105 . S
Sc89 O91 2.025 . S
Sc89 O99 2.105 . S
Sc89 O103 2.105 . S
Sc89 O105 2.105 . S
Sc89 O109 2.105 . S
Sc90 O91 2.025 . S
Sc90 O100 2.105 . S
Sc90 O102 2.105 . S
Sc90 O106 2.105 . S
Sc90 O108 2.105 . S
O91 Sc88 2.025 . S
O91 Sc89 2.025 . S
O91 Sc90 2.025 . S
C92 O98 1.268 . S
C92 O108 1.268 . S
C93 O99 1.268 . S
C93 O107 1.268 . S
C94 O100 1.268 . S
C94 O109 1.268 . S
C95 O101 1.268 1_556 S
C95 O105 1.268 1_556 S
C96 O102 1.268 . S
C96 O104 1.268 . S
C97 O103 1.268 . S
C97 O106 1.268 . S
O98 Sc88 2.105 . S
O98 C92 1.268 . S
O99 Sc89 2.105 . S
O99 C93 1.268 . S
O100 Sc90 2.105 . S
O100 C94 1.268 . S
O101 Sc88 2.105 . S
O101 C95 1.268 1_554 S
O102 Sc90 2.105 . S
O102 C96 1.268 . S
O103 Sc89 2.105 . S
O103 C97 1.268 . S
O104 Sc88 2.105 . S
O104 C96 1.268 . S
O105 Sc89 2.105 . S
O105 C95 1.268 1_554 S
O106 Sc90 2.105 . S
O106 C97 1.268 . S
O107 Sc88 2.105 . S
O107 C93 1.268 . S
O108 Sc90 2.105 . S
O108 C92 1.268 . S
O109 Sc89 2.105 . S
O109 C94 1.268 . S
Sc110 O113 2.025 . S
Sc110 O120 2.105 . S
Sc110 O123 2.105 . S
Sc110 O126 2.105 . S
Sc110 O129 2.105 . S
Sc111 O113 2.025 . S
Sc111 O121 2.105 . S
Sc111 O125 2.105 . S
Sc111 O127 2.105 . S
Sc111 O131 2.105 . S
Sc112 O113 2.025 . S
Sc112 O122 2.105 . S
Sc112 O124 2.105 . S
Sc112 O128 2.105 . S
Sc112 O130 2.105 . S
O113 Sc110 2.025 . S
O113 Sc111 2.025 . S
O113 Sc112 2.025 . S
C114 O120 1.268 . S
C114 O130 1.268 . S
C115 O121 1.268 . S
C115 O129 1.268 . S
C116 O122 1.268 . S
C116 O131 1.268 . S
C117 O123 1.268 . S
C117 O127 1.268 . S
C118 O124 1.268 . S
C118 O126 1.268 . S
C119 O125 1.268 . S
C119 O128 1.268 . S
O120 Sc110 2.105 . S
O120 C114 1.268 . S
O121 Sc111 2.105 . S
O121 C115 1.268 . S
O122 Sc112 2.105 . S
O122 C116 1.268 . S
O123 Sc110 2.105 . S
O123 C117 1.268 . S
O124 Sc112 2.105 . S
O124 C118 1.268 . S
O125 Sc111 2.105 . S
O125 C119 1.268 . S
O126 Sc110 2.105 . S
O126 C118 1.268 . S
O127 Sc111 2.105 . S
O127 C117 1.268 . S
O128 Sc112 2.105 . S
O128 C119 1.268 . S
O129 Sc110 2.105 . S
O129 C115 1.268 . S
O130 Sc112 2.105 . S
O130 C114 1.268 . S
O131 Sc111 2.105 . S
O131 C116 1.268 . S
C132 C133 1.369 . S
C132 C134 1.419 . S
C132 H136 0.930 . S
C133 C132 1.369 . S
C133 C142 1.429 . S
C134 C132 1.419 . S
C134 C135 1.363 1_554 S
C134 H137 0.929 . S
C135 C134 1.363 1_556 S
C135 C141 1.428 1_556 S
H136 C132 0.930 . S
H137 C134 0.929 . S
S138 N139 1.613 . S
S138 N140 1.610 1_554 S
N139 S138 1.613 . S
N139 C142 1.350 . S
N140 S138 1.610 1_556 S
N140 C141 1.351 1_556 S
C141 C135 1.428 1_554 S
C141 N140 1.351 1_554 S
C141 C142 1.434 . S
C142 C133 1.429 . S
C142 N139 1.350 . S
C142 C141 1.434 . S
C143 C144 1.369 . S
C143 C145 1.419 . S
C143 H147 0.930 . S
C144 C143 1.369 . S
C144 C153 1.429 . S
C145 C143 1.419 . S
C145 C146 1.363 . S
C145 H148 0.929 . S
C146 C145 1.363 . S
C146 C152 1.428 . S
H147 C143 0.930 . S
H148 C145 0.929 . S
S149 N150 1.613 . S
S149 N151 1.610 . S
N150 S149 1.613 . S
N150 C153 1.350 . S
N151 S149 1.610 . S
N151 C152 1.351 . S
C152 C146 1.428 . S
C152 N151 1.351 . S
C152 C153 1.434 . S
C153 C144 1.429 . S
C153 N150 1.350 . S
C153 C152 1.434 . S
C154 C155 1.369 . S
C154 C156 1.419 . S
C154 H158 0.930 . S
C155 C154 1.369 . S
C155 C164 1.429 . S
C156 C154 1.419 . S
C156 C157 1.363 . S
C156 H159 0.929 . S
C157 C156 1.363 . S
C157 C163 1.428 . S
H158 C154 0.930 . S
H159 C156 0.929 . S
S160 N161 1.613 . S
S160 N162 1.610 . S
N161 S160 1.613 . S
N161 C164 1.350 . S
N162 S160 1.610 . S
N162 C163 1.351 . S
C163 C157 1.428 . S
C163 N162 1.351 . S
C163 C164 1.434 . S
C164 C155 1.429 . S
C164 N161 1.350 . S
C164 C163 1.434 . S
C165 C166 1.369 . S
C165 C167 1.419 . S
C165 H169 0.930 . S
C166 C165 1.369 . S
C166 C175 1.429 . S
C167 C165 1.419 . S
C167 C168 1.363 . S
C167 H170 0.929 . S
C168 C167 1.363 . S
C168 C174 1.428 . S
H169 C165 0.930 . S
H170 C167 0.929 . S
S171 N172 1.613 . S
S171 N173 1.610 . S
N172 S171 1.613 . S
N172 C175 1.350 . S
N173 S171 1.610 . S
N173 C174 1.351 . S
C174 C168 1.428 . S
C174 N173 1.351 . S
C174 C175 1.434 . S
C175 C166 1.429 . S
C175 N172 1.350 . S
C175 C174 1.434 . S
C176 C177 1.369 . S
C176 C178 1.419 . S
C176 H180 0.930 . S
C177 C176 1.369 . S
C177 C186 1.429 . S
C178 C176 1.419 . S
C178 C179 1.363 . S
C178 H181 0.929 . S
C179 C178 1.363 . S
C179 C185 1.428 . S
H180 C176 0.930 . S
H181 C178 0.929 . S
S182 N183 1.613 . S
S182 N184 1.610 . S
N183 S182 1.613 . S
N183 C186 1.350 . S
N184 S182 1.610 . S
N184 C185 1.351 . S
C185 C179 1.428 . S
C185 N184 1.351 . S
C185 C186 1.434 . S
C186 C177 1.429 . S
C186 N183 1.350 . S
C186 C185 1.434 . S
C187 C188 1.369 1_556 S
C187 C189 1.419 . S
C187 H191 0.929 1_556 S
C188 C187 1.369 1_554 S
C188 C197 1.429 1_554 S
C189 C187 1.419 . S
C189 C190 1.363 . S
C189 H192 0.929 . S
C190 C189 1.363 . S
C190 C196 1.428 . S
H191 C187 0.929 1_554 S
H192 C189 0.929 . S
S193 N194 1.613 1_556 S
S193 N195 1.610 . S
N194 S193 1.613 1_554 S
N194 C197 1.350 1_554 S
N195 S193 1.610 . S
N195 C196 1.351 . S
C196 C190 1.428 . S
C196 N195 1.351 . S
C196 C197 1.434 . S
C197 C188 1.429 1_556 S
C197 N194 1.350 1_556 S
C197 C196 1.434 . S
C198 C199 1.369 . S
C198 C200 1.419 1_545 S
C198 H202 0.930 . S
C199 C198 1.369 . S
C199 C208 1.429 . S
C200 C198 1.419 1_565 S
C200 C201 1.363 . S
C200 H203 0.929 . S
C201 C200 1.363 . S
C201 C207 1.428 . S
H202 C198 0.930 . S
H203 C200 0.929 . S
S204 N205 1.613 . S
S204 N206 1.610 1_545 S
N205 S204 1.613 . S
N205 C208 1.350 . S
N206 S204 1.610 1_565 S
N206 C207 1.351 . S
C207 C201 1.428 . S
C207 N206 1.351 . S
C207 C208 1.434 1_565 S
C208 C199 1.429 . S
C208 N205 1.350 . S
C208 C207 1.434 1_545 S
C209 C210 1.369 . S
C209 C211 1.419 . S
C209 H213 0.930 . S
C210 C209 1.369 . S
C210 C219 1.429 . S
C211 C209 1.419 . S
C211 C212 1.363 . S
C211 H214 0.929 . S
C212 C211 1.363 . S
C212 C218 1.428 . S
H213 C209 0.930 . S
H214 C211 0.929 . S
S215 N216 1.613 . S
S215 N217 1.610 . S
N216 S215 1.613 . S
N216 C219 1.350 . S
N217 S215 1.610 . S
N217 C218 1.351 . S
C218 C212 1.428 . S
C218 N217 1.351 . S
C218 C219 1.434 . S
C219 C210 1.429 . S
C219 N216 1.350 . S
C219 C218 1.434 . S
C220 C221 1.369 . S
C220 C222 1.419 1_655 S
C220 H224 0.930 . S
C221 C220 1.369 . S
C221 C230 1.429 . S
C222 C220 1.419 1_455 S
C222 C223 1.363 . S
C222 H225 0.929 . S
C223 C222 1.363 . S
C223 C229 1.428 . S
H224 C220 0.930 . S
H225 C222 0.929 . S
S226 N227 1.613 1_455 S
S226 N228 1.610 1_554 S
N227 S226 1.613 1_655 S
N227 C230 1.350 1_554 S
N228 S226 1.610 1_556 S
N228 C229 1.351 . S
C229 C223 1.428 . S
C229 N228 1.351 . S
C229 C230 1.434 1_455 S
C230 C221 1.429 . S
C230 N227 1.350 1_556 S
C230 C229 1.434 1_655 S
C231 C232 1.369 1_556 S
C231 C233 1.419 1_565 S
C231 H235 0.930 . S
C232 C231 1.369 1_554 S
C232 C241 1.429 . S
C233 C231 1.419 1_545 S
C233 C234 1.363 . S
C233 H236 0.929 . S
C234 C233 1.363 . S
C234 C240 1.428 1_556 S
H235 C231 0.930 . S
H236 C233 0.929 . S
S237 N238 1.613 1_545 S
S237 N239 1.610 . S
N238 S237 1.613 1_565 S
N238 C241 1.350 . S
N239 S237 1.610 . S
N239 C240 1.351 . S
C240 C234 1.428 1_554 S
C240 N239 1.351 . S
C240 C241 1.434 1_545 S
C241 C232 1.429 . S
C241 N238 1.350 . S
C241 C240 1.434 1_565 S
C242 C243 1.369 . S
C242 C244 1.419 . S
C242 H246 0.930 . S
C243 C242 1.369 . S
C243 C252 1.429 . S
C244 C242 1.419 . S
C244 C245 1.363 . S
C244 H247 0.929 . S
C245 C244 1.363 . S
C245 C251 1.428 . S
H246 C242 0.930 . S
H247 C244 0.929 . S
S248 N249 1.613 . S
S248 N250 1.610 . S
N249 S248 1.613 . S
N249 C252 1.350 . S
N250 S248 1.610 . S
N250 C251 1.351 . S
C251 C245 1.428 . S
C251 N250 1.351 . S
C251 C252 1.434 . S
C252 C243 1.429 . S
C252 N249 1.350 . S
C252 C251 1.434 . S
C253 C254 1.369 . S
C253 C255 1.419 1_655 S
C253 H257 0.930 . S
C254 C253 1.369 . S
C254 C263 1.429 . S
C255 C253 1.419 1_455 S
C255 C256 1.363 . S
C255 H258 0.929 . S
C256 C255 1.363 . S
C256 C262 1.428 . S
H257 C253 0.930 . S
H258 C255 0.929 . S
S259 N260 1.613 . S
S259 N261 1.610 1_655 S
N260 S259 1.613 . S
N260 C263 1.350 . S
N261 S259 1.610 1_455 S
N261 C262 1.351 . S
C262 C256 1.428 . S
C262 N261 1.351 . S
C262 C263 1.434 1_455 S
C263 C254 1.429 . S
C263 N260 1.350 . S
C263 C262 1.434 1_655 S
C264 C265 1.369 . S
C264 C266 1.419 . S
C264 H268 0.930 . S
C265 C264 1.369 . S
C265 C274 1.429 . S
C266 C264 1.419 . S
C266 C267 1.363 . S
C266 H269 0.929 . S
C267 C266 1.363 . S
C267 C273 1.428 . S
H268 C264 0.930 . S
H269 C266 0.929 . S
S270 N271 1.613 . S
S270 N272 1.610 . S
N271 S270 1.613 . S
N271 C274 1.350 . S
N272 S270 1.610 . S
N272 C273 1.351 . S
C273 C267 1.428 . S
C273 N272 1.351 . S
C273 C274 1.434 . S
C274 C265 1.429 . S
C274 N271 1.350 . S
C274 C273 1.434 . S
C275 C276 1.369 . S
C275 C277 1.419 . S
C275 H279 0.930 . S
C276 C275 1.369 . S
C276 C285 1.429 . S
C277 C275 1.419 . S
C277 C278 1.363 . S
C277 H280 0.929 . S
C278 C277 1.363 . S
C278 C284 1.428 . S
H279 C275 0.930 . S
H280 C277 0.929 . S
S281 N282 1.613 . S
S281 N283 1.610 . S
N282 S281 1.613 . S
N282 C285 1.350 . S
N283 S281 1.610 . S
N283 C284 1.351 . S
C284 C278 1.428 . S
C284 N283 1.351 . S
C284 C285 1.434 . S
C285 C276 1.429 . S
C285 N282 1.350 . S
C285 C284 1.434 . S
C286 C287 1.369 . S
C286 C288 1.419 . S
C286 H290 0.930 . S
C287 C286 1.369 . S
C287 C296 1.429 . S
C288 C286 1.419 . S
C288 C289 1.363 . S
C288 H291 0.929 . S
C289 C288 1.363 . S
C289 C295 1.428 . S
H290 C286 0.930 . S
H291 C288 0.929 . S
S292 N293 1.613 . S
S292 N294 1.610 . S
N293 S292 1.613 . S
N293 C296 1.350 . S
N294 S292 1.610 . S
N294 C295 1.351 . S
C295 C289 1.428 . S
C295 N294 1.351 . S
C295 C296 1.434 . S
C296 C287 1.429 . S
C296 N293 1.350 . S
C296 C295 1.434 . S
C297 C298 1.369 . S
C297 C299 1.419 . S
C297 H301 0.930 1_556 S
C298 C297 1.369 . S
C298 C307 1.429 . S
C299 C297 1.419 . S
C299 C300 1.363 . S
C299 H302 0.929 . S
C300 C299 1.363 . S
C300 C306 1.428 . S
H301 C297 0.930 1_554 S
H302 C299 0.929 . S
S303 N304 1.613 . S
S303 N305 1.610 . S
N304 S303 1.613 . S
N304 C307 1.350 . S
N305 S303 1.610 . S
N305 C306 1.351 . S
C306 C300 1.428 . S
C306 N305 1.351 . S
C306 C307 1.434 . S
C307 C298 1.429 . S
C307 N304 1.350 . S
C307 C306 1.434 . S
C308 C309 1.369 . S
C308 C310 1.419 1_554 S
C308 H312 0.930 1_554 S
C309 C308 1.369 . S
C309 C318 1.429 . S
C310 C308 1.419 1_556 S
C310 C311 1.363 1_556 S
C310 H313 0.929 . S
C311 C310 1.363 1_554 S
C311 C317 1.428 . S
H312 C308 0.930 1_556 S
H313 C310 0.929 . S
S314 N315 1.613 . S
S314 N316 1.610 . S
N315 S314 1.613 . S
N315 C318 1.350 . S
N316 S314 1.610 . S
N316 C317 1.351 . S
C317 C311 1.428 . S
C317 N316 1.351 . S
C317 C318 1.434 . S
C318 C309 1.429 . S
C318 N315 1.350 . S
C318 C317 1.434 . S
C319 C320 1.369 . S
C319 C321 1.419 . S
C319 H323 0.930 . S
C320 C319 1.369 . S
C320 C329 1.429 . S
C321 C319 1.419 . S
C321 C322 1.363 . S
C321 H324 0.929 . S
C322 C321 1.363 . S
C322 C328 1.428 . S
H323 C319 0.930 . S
H324 C321 0.929 . S
S325 N326 1.613 . S
S325 N327 1.610 . S
N326 S325 1.613 . S
N326 C329 1.350 . S
N327 S325 1.610 . S
N327 C328 1.351 . S
C328 C322 1.428 . S
C328 N327 1.351 . S
C328 C329 1.434 . S
C329 C320 1.429 . S
C329 N326 1.350 . S
C329 C328 1.434 . S
C133 C7 1.552 . S
C135 C6 1.545 . S
C144 C29 1.544 . S
C146 C28 1.550 . S
C155 C50 1.548 . S
C157 C51 1.547 . S
C166 C72 1.544 . S
C168 C73 1.552 . S
C177 C94 1.551 . S
C179 C95 1.550 . S
C188 C117 1.547 . S
C190 C116 1.547 . S
C199 C5 1.611 . S
C201 C119 1.617 . S
C210 C9 1.611 . S
C212 C27 1.617 . S
C221 C49 1.619 . S
C223 C31 1.613 . S
C232 C71 1.620 . S
C234 C53 1.613 . S
C243 C93 1.618 . S
C245 C75 1.616 . S
C254 C97 1.612 . S
C256 C115 1.616 . S
C265 C8 1.313 . S
C267 C92 1.318 . S
C276 C30 1.315 . S
C278 C114 1.315 . S
C287 C52 1.313 . S
C289 C4 1.317 . S
C298 C74 1.315 . S
C300 C26 1.315 . S
C309 C96 1.318 . S
C311 C48 1.322 . S
C320 C70 1.319 . S
C322 C118 1.314 . S
