# Generated by pormake.
# Topology wjf, (4)-cn, num edge types: 1
# Building blocks:
#     Node 0, Type 0, BuildingBlock: GALJAG_clean_sbu_0, # of connection points: 4
#     Node 1, Type 0, BuildingBlock: GALJAG_clean_sbu_0, # of connection points: 4
#     Node 2, Type 0, BuildingBlock: GALJAG_clean_sbu_0, # of connection points: 4
#     Node 3, Type 0, BuildingBlock: GALJAG_clean_sbu_0, # of connection points: 4
#     Node 4, Type 0, BuildingBlock: GALJAG_clean_sbu_0, # of connection points: 4
#     Node 5, Type 0, BuildingBlock: GALJAG_clean_sbu_0, # of connection points: 4
#     Node 6, Type 0, BuildingBlock: GALJAG_clean_sbu_0, # of connection points: 4
#     Node 7, Type 0, BuildingBlock: GALJAG_clean_sbu_0, # of connection points: 4
#     Node 8, Type 0, BuildingBlock: GALJAG_clean_sbu_0, # of connection points: 4
#     Node 9, Type 0, BuildingBlock: GALJAG_clean_sbu_0, # of connection points: 4
#     Node 10, Type 0, BuildingBlock: GALJAG_clean_sbu_0, # of connection points: 4
#     Node 11, Type 0, BuildingBlock: GALJAG_clean_sbu_0, # of connection points: 4
#     Edge 12, Type (0, 0), BuildingBlock: XUDNAN_clean_linker_2, # of connection points: 2
#     Edge 13, Type (0, 0), BuildingBlock: XUDNAN_clean_linker_2, # of connection points: 2
#     Edge 14, Type (0, 0), BuildingBlock: XUDNAN_clean_linker_2, # of connection points: 2
#     Edge 15, Type (0, 0), BuildingBlock: XUDNAN_clean_linker_2, # of connection points: 2
#     Edge 16, Type (0, 0), BuildingBlock: XUDNAN_clean_linker_2, # of connection points: 2
#     Edge 17, Type (0, 0), BuildingBlock: XUDNAN_clean_linker_2, # of connection points: 2
#     Edge 18, Type (0, 0), BuildingBlock: XUDNAN_clean_linker_2, # of connection points: 2
#     Edge 19, Type (0, 0), BuildingBlock: XUDNAN_clean_linker_2, # of connection points: 2
#     Edge 20, Type (0, 0), BuildingBlock: XUDNAN_clean_linker_2, # of connection points: 2
#     Edge 21, Type (0, 0), BuildingBlock: XUDNAN_clean_linker_2, # of connection points: 2
#     Edge 22, Type (0, 0), BuildingBlock: XUDNAN_clean_linker_2, # of connection points: 2
#     Edge 23, Type (0, 0), BuildingBlock: XUDNAN_clean_linker_2, # of connection points: 2
#     Edge 24, Type (0, 0), BuildingBlock: XUDNAN_clean_linker_2, # of connection points: 2
#     Edge 25, Type (0, 0), BuildingBlock: XUDNAN_clean_linker_2, # of connection points: 2
#     Edge 26, Type (0, 0), BuildingBlock: XUDNAN_clean_linker_2, # of connection points: 2
#     Edge 27, Type (0, 0), BuildingBlock: XUDNAN_clean_linker_2, # of connection points: 2
#     Edge 28, Type (0, 0), BuildingBlock: XUDNAN_clean_linker_2, # of connection points: 2
#     Edge 29, Type (0, 0), BuildingBlock: XUDNAN_clean_linker_2, # of connection points: 2
#     Edge 30, Type (0, 0), BuildingBlock: XUDNAN_clean_linker_2, # of connection points: 2
#     Edge 31, Type (0, 0), BuildingBlock: XUDNAN_clean_linker_2, # of connection points: 2
#     Edge 32, Type (0, 0), BuildingBlock: XUDNAN_clean_linker_2, # of connection points: 2
#     Edge 33, Type (0, 0), BuildingBlock: XUDNAN_clean_linker_2, # of connection points: 2
#     Edge 34, Type (0, 0), BuildingBlock: XUDNAN_clean_linker_2, # of connection points: 2
#     Edge 35, Type (0, 0), BuildingBlock: XUDNAN_clean_linker_2, # of connection points: 2
# Relax obj value: 0.086
# Max RMSD: 0.104
# Mean RMSD: 0.104
data_MOF--net-wjf--node1-GALJAG_clean_sbu_0--edge1-XUDNAN_clean_linker_2
_symmetry_space_group_name_H-M    P1
_symmetry_Int_Tables_number       1
_symmetry_cell_setting            triclinic
loop_
_symmetry_equiv_pos_as_xyz
'x, y, z'
_cell_length_a     49.638435
_cell_length_b     49.640871
_cell_length_c     28.395932
_cell_angle_alpha  90.034348
_cell_angle_beta   89.938521
_cell_angle_gamma 120.02655
loop_
_atom_site_label
_atom_site_type_symbol
_atom_site_fract_x
_atom_site_fract_y
_atom_site_fract_z
_atom_type_partial_charge
In0 In 0.32792 0.38382 0.11861 0.0
O1 O 0.30578 0.41395 0.10931 0.0
O2 O 0.27656 0.36486 0.10339 0.0
C3 C 0.38719 0.43045 0.13002 0.0
C4 C 0.33043 0.36211 0.03257 0.0
C5 C 0.31511 0.35354 0.20214 0.0
O6 O 0.36408 0.43431 0.13455 0.0
O7 O 0.38044 0.40307 0.1199 0.0
O8 O 0.31797 0.34182 0.16436 0.0
O9 O 0.31801 0.38011 0.19753 0.0
C10 C 0.27894 0.39138 0.10096 0.0
O11 O 0.32904 0.3476 0.0699 0.0
O12 O 0.33084 0.38745 0.03882 0.0
In13 In 0.96102 0.32696 0.39532 0.0
O14 O 0.98427 0.31115 0.34067 0.0
O15 O 0.95852 0.33224 0.31682 0.0
C16 C 0.98225 0.31933 0.47804 0.0
C17 C 0.90326 0.27745 0.39598 0.0
C18 C 0.98456 0.38881 0.40266 0.0
O19 O 0.99538 0.31997 0.43946 0.0
O20 O 0.95863 0.32255 0.47453 0.0
O21 O 0.95557 0.36989 0.40516 0.0
O22 O 0.0011 0.37641 0.39626 0.0
C23 C 0.97426 0.3196 0.30607 0.0
O24 O 0.90783 0.30464 0.38934 0.0
O25 O 0.92747 0.27584 0.40311 0.0
In26 In 0.62034 0.95495 0.74884 0.0
O27 O 0.60247 0.90256 0.74847 0.0
O28 O 0.65146 0.93475 0.74286 0.0
C29 C 0.57831 0.97252 0.76535 0.0
C30 C 0.62738 0.96486 0.65599 0.0
C31 C 0.65025 0.97752 0.8302 0.0
O32 O 0.57033 0.94387 0.76503 0.0
O33 O 0.60657 0.9912 0.75626 0.0
O34 O 0.66143 0.99122 0.79128 0.0
O35 O 0.62457 0.95226 0.82741 0.0
C36 C 0.62974 0.9067 0.74323 0.0
O37 O 0.64688 0.98441 0.68485 0.0
O38 O 0.60446 0.94138 0.67422 0.0
In39 In 0.67279 0.61098 0.1004 0.0
O40 O 0.69223 0.6532 0.05104 0.0
O41 O 0.65509 0.60996 0.02667 0.0
C42 C 0.69228 0.6363 0.18637 0.0
C43 C 0.71252 0.59216 0.07285 0.0
C44 C 0.61167 0.57676 0.11933 0.0
O45 O 0.68468 0.64926 0.15495 0.0
O46 O 0.69073 0.61115 0.17402 0.0
O47 O 0.62784 0.56424 0.10972 0.0
O48 O 0.62643 0.60611 0.11943 0.0
C49 C 0.67425 0.63803 0.01752 0.0
O50 O 0.68443 0.57276 0.08262 0.0
O51 O 0.72024 0.62031 0.07873 0.0
In52 In 0.04427 0.66404 0.3927 0.0
O53 O 0.09692 0.69564 0.38124 0.0
O54 O 0.0699 0.71637 0.39996 0.0
C55 C 0.04098 0.60861 0.40353 0.0
C56 C 0.02436 0.6636 0.30403 0.0
C57 C 0.01554 0.66274 0.47397 0.0
O58 O 0.06642 0.63405 0.40672 0.0
O59 O 0.01748 0.61132 0.39511 0.0
O60 O 0.00174 0.65662 0.43467 0.0
O61 O 0.04372 0.66975 0.47199 0.0
C62 C 0.0963 0.72036 0.38936 0.0
O63 O 0.01651 0.67454 0.33813 0.0
O64 O 0.04143 0.65252 0.31497 0.0
In65 In 0.37792 0.05182 0.74846 0.0
O66 O 0.33927 0.03552 0.69323 0.0
O67 O 0.38204 0.03873 0.67333 0.0
C68 C 0.34266 0.02748 0.82629 0.0
C69 C 0.39472 0.11176 0.73299 0.0
C70 C 0.42309 0.03865 0.76857 0.0
O71 O 0.33764 0.01214 0.78867 0.0
O72 O 0.36498 0.05508 0.82421 0.0
O73 O 0.42568 0.06485 0.77698 0.0
O74 O 0.3976 0.01899 0.75007 0.0
C75 C 0.35538 0.03314 0.66084 0.0
O76 O 0.41392 0.10218 0.73049 0.0
O77 O 0.36757 0.0914 0.745 0.0
In78 In 0.64089 0.67679 0.5944 0.0
O79 O 0.61871 0.70695 0.60884 0.0
O80 O 0.668 0.72882 0.60559 0.0
C81 C 0.58814 0.62252 0.57998 0.0
C82 C 0.65914 0.67068 0.68121 0.0
C83 C 0.6697 0.67986 0.51221 0.0
O84 O 0.58894 0.64839 0.57811 0.0
O85 O 0.6139 0.62426 0.58866 0.0
O86 O 0.67607 0.67106 0.55018 0.0
O87 O 0.64931 0.68783 0.5159 0.0
C88 C 0.64457 0.7317 0.61334 0.0
O89 O 0.67838 0.68431 0.64832 0.0
O90 O 0.63102 0.65934 0.66974 0.0
In91 In 0.94363 0.60285 0.88867 0.0
O92 O 0.89379 0.56639 0.9101 0.0
O93 O 0.90701 0.61438 0.9104 0.0
C94 C 0.96804 0.56627 0.87103 0.0
C95 C 0.97204 0.63165 0.96937 0.0
C96 C 0.9484 0.62538 0.80081 0.0
O97 O 0.93971 0.55504 0.88227 0.0
O98 O 0.98355 0.59557 0.86868 0.0
O99 O 0.96945 0.63921 0.83132 0.0
O100 O 0.92478 0.60088 0.81507 0.0
C101 C 0.88613 0.5867 0.91862 0.0
O102 O 0.96825 0.64618 0.93586 0.0
O103 O 0.96262 0.60335 0.96124 0.0
In104 In 0.32194 0.9655 0.23997 0.0
O105 O 0.29756 0.91379 0.26116 0.0
O106 O 0.27346 0.93923 0.26801 0.0
C107 C 0.38211 0.98678 0.22011 0.0
C108 C 0.33023 0.99509 0.32207 0.0
C109 C 0.303 0.96907 0.15301 0.0
O110 O 0.36407 0.95855 0.23143 0.0
O111 O 0.36947 0.00338 0.21826 0.0
O112 O 0.31093 0.99076 0.18278 0.0
O113 O 0.30393 0.94553 0.16767 0.0
C114 C 0.2732 0.91395 0.27443 0.0
O115 O 0.31555 0.99878 0.2885 0.0
O116 O 0.34131 0.97765 0.31313 0.0
In117 In 0.38199 0.34426 0.60967 0.0
O118 O 0.41612 0.32621 0.6125 0.0
O119 O 0.3678 0.29436 0.62476 0.0
C120 C 0.42046 0.40549 0.59387 0.0
C121 C 0.36374 0.34143 0.69962 0.0
C122 C 0.35072 0.32611 0.52747 0.0
O123 O 0.43016 0.38634 0.59516 0.0
O124 O 0.39165 0.39373 0.60069 0.0
O125 O 0.34129 0.33575 0.56138 0.0
O126 O 0.37529 0.32533 0.53536 0.0
C127 C 0.39518 0.29875 0.62292 0.0
O128 O 0.34489 0.33536 0.66591 0.0
O129 O 0.39126 0.3498 0.68774 0.0
In130 In 0.04755 0.36613 0.89369 0.0
O131 O 0.02426 0.32251 0.9402 0.0
O132 O 0.02031 0.36164 0.96001 0.0
C133 C 0.03807 0.33959 0.80777 0.0
C134 C 0.10288 0.38306 0.93371 0.0
C135 C 0.03749 0.41326 0.87338 0.0
O136 O 0.01605 0.33379 0.83568 0.0
O137 O 0.06478 0.35798 0.8237 0.0
O138 O 0.06422 0.41607 0.8711 0.0
O139 O 0.01593 0.38663 0.88547 0.0
C140 C 0.01468 0.33462 0.97011 0.0
O141 O 0.09328 0.40204 0.92762 0.0
O142 O 0.08512 0.35605 0.91805 0.0
In143 In 0.65912 0.05455 0.24215 0.0
O144 O 0.69076 0.10554 0.2634 0.0
O145 O 0.70803 0.07391 0.26853 0.0
C146 C 0.60325 0.04957 0.22643 0.0
C147 C 0.64821 0.02357 0.32368 0.0
C148 C 0.6748 0.04399 0.15594 0.0
O149 O 0.62795 0.07571 0.22892 0.0
O150 O 0.60698 0.02645 0.23154 0.0
O151 O 0.66171 0.02265 0.18625 0.0
O152 O 0.68023 0.07045 0.16936 0.0
C153 C 0.71276 0.10107 0.27562 0.0
O154 O 0.65199 0.01261 0.28553 0.0
O155 O 0.64901 0.04929 0.32003 0.0
H156 H 0.30748 0.37442 0.28752 0.0
H157 H 0.31639 0.3003 0.22193 0.0
H158 H 0.31846 0.28015 0.30053 0.0
H159 H 0.36048 0.39099 0.37519 0.0
H160 H 0.33988 0.39875 0.42062 0.0
H161 H 0.33375 0.40419 0.35983 0.0
H162 H 0.2745 0.36668 0.36974 0.0
H163 H 0.28044 0.36118 0.43082 0.0
H164 H 0.2607 0.32802 0.39236 0.0
H165 H 0.3293 0.27411 0.38433 0.0
H166 H 0.34523 0.28089 0.46793 0.0
H167 H 0.32625 0.35679 0.48043 0.0
C168 C 0.30896 0.35342 0.28972 0.0
C169 C 0.31169 0.33885 0.24868 0.0
C170 C 0.31407 0.31171 0.25293 0.0
C171 C 0.3152 0.30007 0.29743 0.0
C172 C 0.31341 0.31554 0.33727 0.0
C173 C 0.30986 0.34137 0.33387 0.0
C174 C 0.31122 0.3553 0.38194 0.0
C175 C 0.33792 0.3893 0.38452 0.0
C176 C 0.27984 0.35262 0.39445 0.0
C177 C 0.3176 0.3342 0.41269 0.0
C178 C 0.3185 0.31123 0.38624 0.0
C179 C 0.32772 0.29134 0.40568 0.0
C180 C 0.33679 0.29538 0.45307 0.0
C181 C 0.33621 0.31884 0.48056 0.0
C182 C 0.32576 0.33796 0.46045 0.0
H183 H 0.95323 0.30948 0.56291 0.0
H184 H 0.03806 0.32296 0.49727 0.0
H185 H 0.05946 0.32279 0.57588 0.0
H186 H 0.98764 0.35921 0.65645 0.0
H187 H 0.95822 0.33593 0.69917 0.0
H188 H 0.94825 0.333 0.63784 0.0
H189 H 0.92701 0.27351 0.6404 0.0
H190 H 0.93695 0.27627 0.70194 0.0
H191 H 0.95175 0.25904 0.66098 0.0
H192 H 0.07414 0.32865 0.66153 0.0
H193 H 0.08038 0.33859 0.74729 0.0
H194 H 0.98499 0.31882 0.75653 0.0
C195 C 0.97608 0.31179 0.56501 0.0
C196 C 0.99404 0.31624 0.52415 0.0
C197 C 0.02389 0.31937 0.52824 0.0
C198 C 0.03618 0.31924 0.57268 0.0
C199 C 0.01807 0.31542 0.61242 0.0
C200 C 0.9885 0.3114 0.60892 0.0
C201 C 0.97459 0.30992 0.65693 0.0
C202 C 0.96674 0.33608 0.66293 0.0
C203 C 0.94587 0.27777 0.66556 0.0
C204 C 0.00142 0.31503 0.68808 0.0
C205 C 0.02621 0.31788 0.66182 0.0
C206 C 0.05466 0.32574 0.68255 0.0
C207 C 0.05801 0.33139 0.73119 0.0
C208 C 0.03302 0.32901 0.75843 0.0
C209 C 0.0042 0.31999 0.7367 0.0
H210 H 0.63229 0.95017 0.91656 0.0
H211 H 0.69915 0.03596 0.84775 0.0
H212 H 0.71742 0.06088 0.92559 0.0
H213 H 0.60959 0.9832 0.00245 0.0
H214 H 0.60541 0.95663 0.04889 0.0
H215 H 0.60095 0.94423 0.98852 0.0
H216 H 0.64378 0.92943 0.99924 0.0
H217 H 0.64825 0.94162 0.05993 0.0
H218 H 0.68149 0.95804 0.02117 0.0
H219 H 0.72243 0.07848 0.00963 0.0
H220 H 0.71582 0.08668 0.09376 0.0
H221 H 0.64715 0.98885 0.10806 0.0
C222 C 0.65134 0.97397 0.91787 0.0
C223 C 0.66439 0.99115 0.87619 0.0
C224 C 0.689 0.02233 0.8793 0.0
C225 C 0.69951 0.03665 0.92334 0.0
C226 C 0.68548 0.0193 0.9638 0.0
C227 C 0.66222 0.98848 0.96146 0.0
C228 C 0.64933 0.97563 0.00983 0.0
C229 C 0.61426 0.96428 0.01255 0.0
C230 C 0.65613 0.94964 0.02334 0.0
C231 C 0.66806 0.00438 0.03963 0.0
C232 C 0.68897 0.02927 0.01248 0.0
C233 C 0.7067 0.059 0.03141 0.0
C234 C 0.70271 0.06346 0.07913 0.0
C235 C 0.68129 0.0383 0.10737 0.0
C236 C 0.66424 0.00832 0.0875 0.0
H237 H 0.67215 0.67098 0.23325 0.0
H238 H 0.72688 0.62565 0.25 0.0
H239 H 0.73309 0.63868 0.33479 0.0
H240 H 0.71231 0.73296 0.32461 0.0
H241 H 0.67617 0.72967 0.3439 0.0
H242 H 0.68097 0.72205 0.28329 0.0
H243 H 0.63159 0.66761 0.28945 0.0
H244 H 0.62673 0.67495 0.34998 0.0
H245 H 0.62935 0.64108 0.33469 0.0
H246 H 0.72834 0.6511 0.41848 0.0
H247 H 0.71111 0.65992 0.49564 0.0
H248 H 0.65745 0.69517 0.42526 0.0
C249 C 0.68633 0.66479 0.25455 0.0
C250 C 0.69951 0.6478 0.23518 0.0
C251 C 0.7169 0.63897 0.26428 0.0
C252 C 0.72062 0.64636 0.31236 0.0
C253 C 0.70662 0.66239 0.33078 0.0
C254 C 0.68978 0.67149 0.3028 0.0
C255 C 0.67388 0.68499 0.33222 0.0
C256 C 0.68661 0.71947 0.32029 0.0
C257 C 0.63829 0.66601 0.32622 0.0
C258 C 0.68363 0.68119 0.38116 0.0
C259 C 0.70301 0.66868 0.37947 0.0
C260 C 0.71354 0.66131 0.42026 0.0
C261 C 0.7036 0.66636 0.46392 0.0
C262 C 0.68305 0.67832 0.46642 0.0
C263 C 0.67344 0.68632 0.42445 0.0
H264 H 0.00287 0.65994 0.75299 0.0
H265 H 0.90265 0.61065 0.7359 0.0
H266 H 0.90913 0.62044 0.65014 0.0
H267 H 0.02236 0.71804 0.65673 0.0
H268 H 0.0562 0.71587 0.6396 0.0
H269 H 0.04367 0.70975 0.7002 0.0
H270 H 0.04113 0.65632 0.69923 0.0
H271 H 0.0534 0.66214 0.63869 0.0
H272 H 0.01765 0.62787 0.65547 0.0
H273 H 0.92647 0.63091 0.56569 0.0
H274 H 0.95326 0.63951 0.48902 0.0
H275 H 0.04208 0.67973 0.56117 0.0
C276 C 0.98233 0.65213 0.73133 0.0
C277 C 0.95226 0.63498 0.75097 0.0
C278 C 0.92588 0.62411 0.72144 0.0
C279 C 0.92935 0.62963 0.67277 0.0
C280 C 0.95935 0.64588 0.65421 0.0
C281 C 0.9854 0.65698 0.68259 0.0
C282 C 0.01491 0.67064 0.65347 0.0
C283 C 0.0355 0.70566 0.66308 0.0
C284 C 0.0328 0.65319 0.66224 0.0
C285 C 0.00136 0.66472 0.6043 0.0
C286 C 0.96932 0.65095 0.60545 0.0
C287 C 0.95158 0.64201 0.56434 0.0
C288 C 0.96698 0.64696 0.52098 0.0
C289 C -0.00029 0.6603 0.51919 0.0
C290 C 0.01703 0.66962 0.56143 0.0
H291 H 0.32428 0.02273 0.10292 0.0
H292 H 0.2697 0.92236 0.09055 0.0
H293 H 0.26685 0.92725 0.00435 0.0
H294 H 0.28854 0.04273 0.00118 0.0
H295 H 0.3258 0.07498 0.98428 0.0
H296 H 0.31761 0.064 0.04539 0.0
H297 H 0.36681 0.05855 0.04988 0.0
H298 H 0.37501 0.06923 0.98893 0.0
H299 H 0.3711 0.03303 0.0092 0.0
H300 H 0.27633 0.94246 0.91949 0.0
H301 H 0.29894 0.96662 0.84266 0.0
H302 H 0.34925 0.05697 0.91023 0.0
C303 C 0.31068 0.0019 0.08218 0.0
C304 C 0.29674 0.9722 0.10322 0.0
C305 C 0.28021 0.94533 0.07496 0.0
C306 C 0.2784 0.9479 0.02605 0.0
C307 C 0.29335 0.97751 0.00603 0.0
C308 C 0.30914 0.00407 0.03324 0.0
C309 C 0.32687 0.03274 0.0028 0.0
C310 C 0.31392 0.05492 0.00877 0.0
C311 C 0.36201 0.04933 0.01333 0.0
C312 C 0.31963 0.01802 0.95438 0.0
C313 C 0.29969 0.98625 0.95689 0.0
C314 C 0.29151 0.96739 0.91698 0.0
C315 C 0.30449 0.98129 0.87353 0.0
C316 C 0.32573 0.01364 0.87055 0.0
C317 C 0.3328 0.03222 0.91138 0.0
H318 H 0.12357 0.34371 0.95971 0.0
H319 H 0.14623 0.44011 0.96808 0.0
H320 H 0.19267 0.45244 0.01593 0.0
H321 H 0.14625 0.33813 0.07777 0.0
H322 H 0.1618 0.31346 0.06159 0.0
H323 H 0.13051 0.31235 0.02793 0.0
H324 H 0.16331 0.32455 0.95156 0.0
H325 H 0.19452 0.32534 0.98489 0.0
H326 H 0.20166 0.35841 0.94952 0.0
H327 H 0.23716 0.45416 0.06145 0.0
H328 H 0.27714 0.44553 0.09905 0.0
H329 H 0.22392 0.34762 0.06245 0.0
C330 C 0.13838 0.36747 0.97138 0.0
C331 C 0.13147 0.39103 0.96009 0.0
C332 C 0.15125 0.42176 0.97627 0.0
C333 C 0.17755 0.42893 0.00357 0.0
C334 C 0.18352 0.40504 0.01452 0.0
C335 C 0.16451 0.37495 0.99882 0.0
C336 C 0.1761 0.35353 0.01504 0.0
C337 C 0.15224 0.32786 0.04752 0.0
C338 C 0.1844 0.33966 0.97274 0.0
C339 C 0.20482 0.37632 0.04197 0.0
C340 C 0.20869 0.4059 0.0414 0.0
C341 C 0.23426 0.43106 0.06242 0.0
C342 C 0.25677 0.42593 0.08376 0.0
C343 C 0.25344 0.39588 0.08395 0.0
C344 C 0.22685 0.37075 0.06346 0.0
H345 H 0.85108 0.26955 0.34948 0.0
H346 H 0.8873 0.22086 0.43129 0.0
H347 H 0.84027 0.17097 0.41371 0.0
H348 H 0.76668 0.21606 0.37976 0.0
H349 H 0.75409 0.21867 0.32127 0.0
H350 H 0.78846 0.2512 0.34587 0.0
H351 H 0.82027 0.25116 0.27356 0.0
H352 H 0.7862 0.21837 0.24908 0.0
H353 H 0.82094 0.21618 0.25872 0.0
H354 H 0.79447 0.12663 0.37881 0.0
H355 H 0.74853 0.0892 0.33385 0.0
H356 H 0.73953 0.16508 0.27528 0.0
C357 C 0.84851 0.24845 0.36492 0.0
C358 C 0.87267 0.24897 0.39193 0.0
C359 C 0.869 0.2209 0.41059 0.0
C360 C 0.84237 0.19246 0.40085 0.0
C361 C 0.81953 0.19249 0.3726 0.0
C362 C 0.82194 0.21966 0.35538 0.0
C363 C 0.79484 0.21262 0.32304 0.0
C364 C 0.77483 0.22539 0.34374 0.0
C365 C 0.80626 0.22534 0.27315 0.0
C366 C 0.77754 0.17732 0.32368 0.0
C367 C 0.79228 0.16636 0.35268 0.0
C368 C 0.78233 0.13483 0.35667 0.0
C369 C 0.7564 0.11379 0.33063 0.0
C370 C 0.74053 0.1243 0.30122 0.0
C371 C 0.7511 0.15648 0.29794 0.0
H372 H 0.58876 0.84666 0.71447 0.0
H373 H 0.686 0.91042 0.74645 0.0
H374 H 0.69975 0.87233 0.71666 0.0
H375 H 0.58995 0.77443 0.74441 0.0
H376 H 0.56395 0.7527 0.69702 0.0
H377 H 0.5612 0.78393 0.72464 0.0
H378 H 0.56766 0.80985 0.64309 0.0
H379 H 0.57103 0.77904 0.61531 0.0
H380 H 0.60133 0.81893 0.60767 0.0
H381 H 0.70414 0.83059 0.67699 0.0
H382 H 0.69821 0.78374 0.63778 0.0
H383 H 0.5981 0.74531 0.63228 0.0
C384 C 0.61278 0.85218 0.71631 0.0
C385 C 0.63633 0.88145 0.73284 0.0
C386 C 0.6676 0.88813 0.73393 0.0
C387 C 0.67568 0.8667 0.71699 0.0
C388 C 0.6522 0.83858 0.69928 0.0
C389 C 0.62132 0.83092 0.69947 0.0
C390 C 0.60096 0.79929 0.67701 0.0
C391 C 0.57764 0.77622 0.71292 0.0
C392 C 0.58427 0.80196 0.63317 0.0
C393 C 0.62536 0.79074 0.6637 0.0
C394 C 0.65473 0.8139 0.67674 0.0
C395 C 0.68124 0.81208 0.66706 0.0
C396 C 0.67763 0.78545 0.64446 0.0
C397 C 0.64771 0.76088 0.63203 0.0
C398 C 0.62126 0.76373 0.6414 0.0
H399 H 0.77073 0.63153 0.04106 0.0
H400 H 0.70381 0.53334 0.0579 0.0
H401 H 0.74078 0.52024 0.01944 0.0
H402 H 0.79688 0.6258 0.92736 0.0
H403 H 0.83661 0.65552 0.93819 0.0
H404 H 0.80537 0.6566 0.96874 0.0
H405 H 0.83066 0.65737 0.04901 0.0
H406 H 0.86212 0.65655 0.01871 0.0
H407 H 0.8398 0.62731 0.06219 0.0
H408 H 0.78633 0.51879 0.97794 0.0
H409 H 0.83526 0.52918 0.93829 0.0
H410 H 0.86956 0.62835 0.94779 0.0
C411 C 0.76384 0.60721 0.03715 0.0
C412 C 0.73452 0.58342 0.05271 0.0
C413 C 0.72631 0.55192 0.04641 0.0
C414 C 0.74711 0.5443 0.02455 0.0
C415 C 0.7758 0.56849 0.0091 0.0
C416 C 0.78403 0.5993 0.01525 0.0
C417 C 0.8157 0.62118 0.99486 0.0
C418 C 0.81349 0.64092 0.95492 0.0
C419 C 0.83841 0.6418 0.0335 0.0
C420 C 0.82424 0.59798 0.97621 0.0
C421 C 0.80114 0.56766 0.98471 0.0
C422 C 0.80447 0.54246 0.97102 0.0
C423 C 0.83225 0.54854 0.94847 0.0
C424 C 0.85606 0.57953 0.93973 0.0
C425 C 0.85171 0.60437 0.95359 0.0
H426 H 0.15197 0.73734 0.34479 0.0
H427 H 0.10138 0.77441 0.41991 0.0
H428 H 0.14333 0.82767 0.40294 0.0
H429 H 0.23154 0.80008 0.37949 0.0
H430 H 0.24781 0.80028 0.32262 0.0
H431 H 0.2156 0.76481 0.34524 0.0
H432 H 0.18412 0.75966 0.26977 0.0
H433 H 0.21604 0.79522 0.24713 0.0
H434 H 0.17804 0.79123 0.25285 0.0
H435 H 0.18648 0.87584 0.3713 0.0
H436 H 0.2311 0.91788 0.32974 0.0
H437 H 0.25594 0.85144 0.27507 0.0
C438 C 0.15019 0.75672 0.35862 0.0
C439 C 0.12351 0.75181 0.38384 0.0
C440 C 0.12163 0.77767 0.4006 0.0
C441 C 0.14536 0.80801 0.39122 0.0
C442 C 0.17091 0.81214 0.36519 0.0
C443 C 0.17378 0.78736 0.34943 0.0
C444 C 0.20294 0.7986 0.31966 0.0
C445 C 0.22583 0.79046 0.34317 0.0
C446 C 0.19478 0.78539 0.26938 0.0
C447 C 0.2154 0.83345 0.32017 0.0
C448 C 0.19649 0.84055 0.34693 0.0
C449 C 0.20175 0.87071 0.3508 0.0
C450 C 0.22706 0.89438 0.32674 0.0
C451 C 0.24697 0.8879 0.29924 0.0
C452 C 0.24124 0.85704 0.29625 0.0
H453 H 0.3549 0.13426 0.72623 0.0
H454 H 0.45157 0.16019 0.70611 0.0
H455 H 0.46282 0.21153 0.6755 0.0
H456 H 0.34741 0.1685 0.62186 0.0
H457 H 0.32226 0.18101 0.64753 0.0
H458 H 0.32243 0.14733 0.6706 0.0
H459 H 0.33514 0.17201 0.75395 0.0
H460 H 0.33465 0.20563 0.73126 0.0
H461 H 0.36847 0.21026 0.762 0.0
H462 H 0.46271 0.25968 0.64484 0.0
H463 H 0.45141 0.30062 0.61858 0.0
H464 H 0.35451 0.24135 0.65729 0.0
C465 C 0.37855 0.15087 0.71603 0.0
C466 C 0.40243 0.14339 0.71876 0.0
C467 C 0.43299 0.1656 0.70452 0.0
C468 C 0.43956 0.19473 0.68701 0.0
C469 C 0.41528 0.20113 0.68396 0.0
C470 C 0.38542 0.17982 0.69829 0.0
C471 C 0.36319 0.1918 0.69025 0.0
C472 C 0.33731 0.17092 0.65549 0.0
C473 C 0.34957 0.19513 0.73716 0.0
C474 C 0.3851 0.22317 0.66889 0.0
C475 C 0.41509 0.22829 0.66564 0.0
C476 C 0.4393 0.25589 0.64724 0.0
C477 C 0.43268 0.27894 0.6323 0.0
C478 C 0.40208 0.27404 0.63567 0.0
C479 C 0.37809 0.24569 0.65391 0.0
H480 H 0.33567 0.36709 0.75182 0.0
H481 H 0.37268 0.30455 0.75911 0.0
H482 H 0.36287 0.29862 0.84489 0.0
H483 H 0.37194 0.40771 0.85428 0.0
H484 H 0.34074 0.4137 0.87367 0.0
H485 H 0.34556 0.40902 0.81197 0.0
H486 H 0.28882 0.36313 0.80758 0.0
H487 H 0.28377 0.36778 0.86936 0.0
H488 H 0.2763 0.33064 0.84719 0.0
H489 H 0.35268 0.3023 0.93007 0.0
H490 H 0.34597 0.3181 0.00989 0.0
H491 H 0.31918 0.38123 0.94838 0.0
C492 C 0.34076 0.35148 0.77151 0.0
C493 C 0.3543 0.33575 0.74926 0.0
C494 C 0.3619 0.31642 0.7759 0.0
C495 C 0.35634 0.31286 0.82446 0.0
C496 C 0.34355 0.32915 0.84585 0.0
C497 C 0.33598 0.34822 0.82036 0.0
C498 C 0.32579 0.36574 0.85275 0.0
C499 C 0.3473 0.40113 0.84787 0.0
C500 C 0.29164 0.35625 0.84367 0.0
C501 C 0.3296 0.35415 0.90026 0.0
C502 C 0.3392 0.33254 0.89543 0.0
C503 C 0.34496 0.31905 0.93435 0.0
C504 C 0.34112 0.32814 0.97949 0.0
C505 C 0.3322 0.35091 0.98517 0.0
C506 C 0.3261 0.3638 0.945 0.0
H507 H 0.96355 0.34502 0.22882 0.0
H508 H 0.99699 0.28307 0.27173 0.0
H509 H 0.0046 0.27447 0.1879 0.0
H510 H 0.92345 0.30396 0.12172 0.0
H511 H 0.93516 0.33952 0.0898 0.0
H512 H 0.92971 0.33833 0.15268 0.0
H513 H 0.98591 0.38459 0.16301 0.0
H514 H 0.99133 0.38614 0.10027 0.0
H515 H 0.018 0.38193 0.1384 0.0
H516 H 0.01063 0.27481 0.099 0.0
H517 H 0.02031 0.28872 0.01451 0.0
H518 H 0.98393 0.35139 0.03186 0.0
C519 C 0.97218 0.32937 0.22062 0.0
C520 C 0.97954 0.31455 0.25657 0.0
C521 C 0.99123 0.29464 0.24454 0.0
C522 C 0.99536 0.28944 0.1971 0.0
C523 C 0.98772 0.30438 0.16241 0.0
C524 C 0.97665 0.32417 0.17376 0.0
C525 C 0.97256 0.33949 0.13054 0.0
C526 C 0.93817 0.32973 0.12327 0.0
C527 C 0.99319 0.37513 0.13322 0.0
C528 C 0.98373 0.32581 0.09299 0.0
C529 C 0.9918 0.30512 0.11178 0.0
C530 C 0.00412 0.29074 0.08388 0.0
C531 C 0.00935 0.29862 0.03591 0.0
C532 C 0.00271 0.32099 0.01683 0.0
C533 C 0.98894 0.33399 0.04551 0.0
H534 H 0.65334 0.01853 0.6038 0.0
H535 H 0.60879 0.91814 0.59262 0.0
H536 H 0.61213 0.92225 0.50587 0.0
H537 H 0.61241 0.02732 0.50866 0.0
H538 H 0.64454 0.06361 0.48821 0.0
H539 H 0.64192 0.05315 0.54941 0.0
H540 H 0.69699 0.0595 0.54536 0.0
H541 H 0.69981 0.07008 0.48412 0.0
H542 H 0.70518 0.03819 0.50166 0.0
H543 H 0.61947 0.9372 0.42028 0.0
H544 H 0.62661 0.96189 0.34188 0.0
H545 H 0.66232 0.05185 0.4092 0.0
C546 C 0.64482 0.99755 0.58296 0.0
C547 C 0.6311 0.96807 0.60456 0.0
C548 C 0.61944 0.94095 0.57644 0.0
C549 C 0.62135 0.94305 0.52725 0.0
C550 C 0.63459 0.97242 0.5068 0.0
C551 C 0.64589 0.99919 0.5337 0.0
C552 C 0.65665 0.02763 0.50289 0.0
C553 C 0.63774 0.04387 0.51289 0.0
C554 C 0.69174 0.05018 0.50887 0.0
C555 C 0.64936 0.01262 0.45466 0.0
C556 C 0.63718 0.98084 0.45757 0.0
C557 C 0.62892 0.96207 0.4175 0.0
C558 C 0.63303 0.97621 0.37323 0.0
C559 C 0.64466 0.00859 0.36976 0.0
C560 C 0.65301 0.02693 0.41099 0.0
H561 H 0.623 0.63214 0.75127 0.0
H562 H 0.71597 0.70823 0.72185 0.0
H563 H 0.7295 0.71028 0.80627 0.0
H564 H 0.61277 0.65874 0.86258 0.0
H565 H 0.59245 0.62051 0.88859 0.0
H566 H 0.59024 0.62507 0.82604 0.0
H567 H 0.61038 0.58676 0.81014 0.0
H568 H 0.61219 0.58169 0.8726 0.0
H569 H 0.64633 0.59387 0.8367 0.0
H570 H 0.73169 0.70515 0.89513 0.0
H571 H 0.72463 0.68886 0.97885 0.0
H572 H 0.6309 0.61488 0.9479 0.0
C573 C 0.64628 0.64911 0.76255 0.0
C574 C 0.66846 0.67008 0.73027 0.0
C575 C 0.69872 0.69185 0.74615 0.0
C576 C 0.70651 0.69332 0.794 0.0
C577 C 0.68384 0.67264 0.82516 0.0
C578 C 0.65452 0.65061 0.80986 0.0
C579 C 0.63462 0.63038 0.84992 0.0
C580 C 0.60582 0.63391 0.8572 0.0
C581 C 0.62535 0.59616 0.84186 0.0
C582 C 0.65726 0.6445 0.89032 0.0
C583 C 0.68541 0.6691 0.87558 0.0
C584 C 0.70979 0.68583 0.907 0.0
C585 C 0.70551 0.67659 0.95447 0.0
C586 C 0.67724 0.65067 0.96965 0.0
C587 C 0.65276 0.6348 0.93721 0.0
H588 H 0.0253 0.6285 0.23133 0.0
H589 H 0.00354 0.70063 0.26566 0.0
H590 H 0.9916 0.70352 0.18161 0.0
H591 H 0.06072 0.65795 0.11843 0.0
H592 H 0.04405 0.61989 0.09206 0.0
H593 H 0.05206 0.62461 0.1543 0.0
H594 H 0.99456 0.58381 0.17239 0.0
H595 H 0.98648 0.57868 0.11025 0.0
H596 H 0.96391 0.58902 0.14816 0.0
H597 H 0.98277 0.69855 0.09269 0.0
H598 H 0.97145 0.68163 0.00933 0.0
H599 H 0.99682 0.61119 0.03593 0.0
C600 C 0.01809 0.64497 0.22117 0.0
C601 C 0.01548 0.66448 0.25475 0.0
C602 C 0.0056 0.68545 0.24031 0.0
C603 C -0.001 0.68739 0.19269 0.0
C604 C 0.00216 0.66798 0.16029 0.0
C605 C 0.01104 0.64687 0.17416 0.0
C606 C 0.01105 0.62737 0.13327 0.0
C607 C 0.04393 0.6328 0.12398 0.0
C608 C 0.9876 0.59268 0.14151 0.0
C609 C 0.00061 0.64063 0.0941 0.0
C610 C 0.99608 0.66439 0.11003 0.0
C611 C 0.98625 0.67997 0.07989 0.0
C612 C 0.98008 0.67038 0.03261 0.0
C613 C 0.98334 0.64519 0.01639 0.0
C614 C 0.99421 0.63057 0.04743 0.0
H615 H 0.37011 0.00043 0.39133 0.0
H616 H 0.2927 0.01503 0.36148 0.0
H617 H 0.29021 0.02638 0.44595 0.0
H618 H 0.34252 0.96151 0.49813 0.0
H619 H 0.38002 0.97893 0.52641 0.0
H620 H 0.37729 0.97453 0.46339 0.0
H621 H 0.41514 0.03368 0.4527 0.0
H622 H 0.41851 0.0382 0.51573 0.0
H623 H 0.40675 0.06109 0.48137 0.0
H624 H 0.29361 0.03131 0.53544 0.0
H625 H 0.30654 0.03562 0.62038 0.0
H626 H 0.38229 0.01856 0.58928 0.0
C627 C 0.353 0.0066 0.40238 0.0
C628 C 0.33162 0.00695 0.37008 0.0
C629 C 0.30948 0.01498 0.38576 0.0
C630 C 0.30778 0.02122 0.43364 0.0
C631 C 0.32861 0.01962 0.46491 0.0
C632 C 0.35116 0.01306 0.44965 0.0
C633 C 0.37051 0.01221 0.49004 0.0
C634 C 0.36738 0.97987 0.49475 0.0
C635 C 0.40475 0.03783 0.48464 0.0
C636 C 0.35509 0.01886 0.53069 0.0
C637 C 0.33086 0.02292 0.51571 0.0
C638 C 0.31272 0.02847 0.54745 0.0
C639 C 0.32006 0.03063 0.59559 0.0
C640 C 0.3454 0.02742 0.61123 0.0
C641 C 0.36284 0.02118 0.5783 0.0
H642 H 0.44069 0.42849 0.11479 0.0
H643 H 0.40666 0.49037 0.15605 0.0
H644 H 0.46076 0.53387 0.16184 0.0
H645 H 0.5096 0.46263 0.18991 0.0
H646 H 0.53339 0.45776 0.14659 0.0
H647 H 0.49206 0.43105 0.14825 0.0
H648 H 0.48774 0.44288 0.06059 0.0
H649 H 0.52901 0.46962 0.05866 0.0
H650 H 0.50226 0.48258 0.04236 0.0
H651 H 0.51791 0.57092 0.15953 0.0
H652 H 0.57483 0.5996 0.14879 0.0
H653 H 0.5721 0.5138 0.10903 0.0
C654 C 0.44465 0.45113 0.1255 0.0
C655 C 0.41954 0.4561 0.13513 0.0
C656 C 0.4256 0.48608 0.14861 0.0
C657 C 0.45621 0.51089 0.15208 0.0
C658 C 0.48044 0.50527 0.14201 0.0
C659 C 0.47507 0.47616 0.12905 0.0
C660 C 0.50525 0.47669 0.1184 0.0
C661 C 0.51037 0.45579 0.15285 0.0
C662 C 0.5061 0.4674 0.06694 0.0
C663 C 0.52842 0.51076 0.12681 0.0
C664 C 0.51357 0.52675 0.14065 0.0
C665 C 0.52984 0.55864 0.14905 0.0
C666 C 0.56215 0.57471 0.14278 0.0
C667 C 0.57785 0.55889 0.12822 0.0
C668 C 0.56074 0.52644 0.12057 0.0
H669 H 0.98818 0.55145 0.40206 0.0
H670 H 0.08865 0.59643 0.41436 0.0
H671 H 0.08482 0.54486 0.41813 0.0
H672 H 0.9702 0.48698 0.48147 0.0
H673 H 0.93758 0.45932 0.44687 0.0
H674 H 0.94821 0.49975 0.44692 0.0
H675 H 0.95277 0.50109 0.35593 0.0
H676 H 0.94224 0.46072 0.35558 0.0
H677 H 0.97802 0.48939 0.32827 0.0
H678 H 0.07026 0.48868 0.41645 0.0
H679 H 0.04604 0.43161 0.41172 0.0
H680 H 0.95478 0.423 0.40212 0.0
C681 C 0.00937 0.55046 0.40589 0.0
C682 C 0.03875 0.57791 0.40791 0.0
C683 C 0.06593 0.57567 0.41284 0.0
C684 C 0.06397 0.54651 0.415 0.0
C685 C 0.03466 0.51989 0.41249 0.0
C686 C 0.00782 0.52158 0.40832 0.0
C687 C 0.97925 0.48946 0.40551 0.0
C688 C 0.95753 0.48354 0.44771 0.0
C689 C 0.96207 0.48491 0.35852 0.0
C690 C 0.99423 0.4694 0.4081 0.0
C691 C 0.02621 0.48745 0.41216 0.0
C692 C 0.04524 0.47431 0.41364 0.0
C693 C 0.03125 0.44187 0.41082 0.0
C694 C 0.99853 0.42289 0.40671 0.0
C695 C 0.97982 0.4369 0.40563 0.0
H696 H 0.51514 0.94509 0.74871 0.0
H697 H 0.59451 0.02741 0.80668 0.0
H698 H 0.56188 0.0511 0.82018 0.0
H699 H 0.4858 0.98538 0.68525 0.0
H700 H 0.44524 0.95768 0.69495 0.0
H701 H 0.47343 0.94498 0.69547 0.0
H702 H 0.45525 0.92181 0.77892 0.0
H703 H 0.42684 0.93432 0.77856 0.0
H704 H 0.45485 0.94623 0.82562 0.0
H705 H 0.52282 0.06794 0.82151 0.0
H706 H 0.47906 0.07738 0.80941 0.0
H707 H 0.42452 0.98517 0.74867 0.0
C708 C 0.5253 0.96774 0.76528 0.0
C709 C 0.55721 0.98439 0.77701 0.0
C710 C 0.57006 0.01432 0.7975 0.0
C711 C 0.55171 0.02792 0.8055 0.0
C712 C 0.52054 0.01137 0.79261 0.0
C713 C 0.50731 0.98195 0.77295 0.0
C714 C 0.47384 0.97052 0.75875 0.0
C715 C 0.46933 0.96429 0.70545 0.0
C716 C 0.45137 0.9415 0.78717 0.0
C717 C 0.47073 0.99839 0.77252 0.0
C718 C 0.49786 0.02147 0.79255 0.0
C719 C 0.50128 0.04995 0.80635 0.0
C720 C 0.47634 0.05512 0.79923 0.0
C721 C 0.44841 0.032 0.77823 0.0
C722 C 0.44553 0.00317 0.76515 0.0
H723 H 0.58184 0.56467 0.582 0.0
H724 H 0.529 0.61226 0.56759 0.0
H725 H 0.48021 0.56143 0.56502 0.0
H726 H 0.53268 0.49858 0.50521 0.0
H727 H 0.53711 0.47132 0.54162 0.0
H728 H 0.56783 0.51134 0.53876 0.0
H729 H 0.56624 0.51546 0.62962 0.0
H730 H 0.53546 0.47555 0.63275 0.0
H731 H 0.53003 0.5058 0.65813 0.0
H732 H 0.43722 0.5057 0.57 0.0
H733 H 0.40306 0.44904 0.58016 0.0
H734 H 0.48422 0.43795 0.59033 0.0
C735 C 0.56004 0.56441 0.57767 0.0
C736 C 0.55914 0.59236 0.57492 0.0
C737 C 0.53017 0.59108 0.56959 0.0
C738 C 0.50239 0.56235 0.56808 0.0
C739 C 0.50408 0.53522 0.57162 0.0
C740 C 0.53218 0.53601 0.57597 0.0
C741 C 0.5276 0.50361 0.58095 0.0
C742 C 0.54216 0.49576 0.53914 0.0
C743 C 0.5406 0.4999 0.62817 0.0
C744 C 0.49246 0.48445 0.57976 0.0
C745 C 0.47934 0.50311 0.57411 0.0
C746 C 0.44723 0.49084 0.57394 0.0
C747 C 0.42804 0.45865 0.57987 0.0
C748 C 0.44103 0.43915 0.58586 0.0
C749 C 0.47365 0.45227 0.5854 0.0
H750 H 0.94237 0.50335 0.88481 0.0
H751 H 0.02693 0.58604 0.83992 0.0
H752 H 0.05295 0.55509 0.83091 0.0
H753 H 0.97913 0.47189 0.95348 0.0
H754 H 0.95248 0.43193 0.93809 0.0
H755 H 0.93959 0.45997 0.93738 0.0
H756 H 0.92232 0.44606 0.85042 0.0
H757 H 0.93512 0.41789 0.8509 0.0
H758 H 0.94998 0.44828 0.80716 0.0
H759 H 0.07093 0.5162 0.83178 0.0
H760 H 0.07944 0.47158 0.8421 0.0
H761 H 0.98328 0.41411 0.88604 0.0
C762 C 0.96621 0.5148 0.87243 0.0
C763 C 0.98262 0.54704 0.86292 0.0
C764 C 0.0139 0.56133 0.84734 0.0
C765 C 0.02888 0.54395 0.84202 0.0
C766 C 0.01223 0.51231 0.85229 0.0
C767 C 0.98156 0.4978 0.867 0.0
C768 C 0.96946 0.46377 0.87783 0.0
C769 C 0.9596 0.45648 0.92978 0.0
C770 C 0.94263 0.44276 0.84458 0.0
C771 C 0.99827 0.4616 0.86766 0.0
C772 C 0.02262 0.48981 0.85271 0.0
C773 C 0.05196 0.49389 0.84301 0.0
C774 C 0.05659 0.46846 0.84903 0.0
C775 C 0.032 0.43942 0.86464 0.0
C776 C 0.00244 0.43597 0.87362 0.0
H777 H 0.54712 0.99631 0.23531 0.0
H778 H 0.58918 0.09451 0.20201 0.0
H779 H 0.53676 0.08803 0.19151 0.0
H780 H 0.48171 0.96806 0.15434 0.0
H781 H 0.45496 0.93892 0.19475 0.0
H782 H 0.49572 0.95088 0.19665 0.0
H783 H 0.4976 0.96471 0.28506 0.0
H784 H 0.45688 0.95274 0.28348 0.0
H785 H 0.48483 0.99133 0.30319 0.0
H786 H 0.48009 0.07118 0.18724 0.0
H787 H 0.42306 0.0461 0.19318 0.0
H788 H 0.41771 0.95883 0.23109 0.0
C789 C 0.54532 0.0164 0.22532 0.0
C790 C 0.57216 0.04591 0.21915 0.0
C791 C 0.56888 0.07172 0.20678 0.0
C792 C 0.53924 0.06821 0.2006 0.0
C793 C 0.51324 0.03879 0.20711 0.0
C794 C 0.51598 0.01336 0.21941 0.0
C795 C 0.48437 0.98465 0.22674 0.0
C796 C 0.47887 0.95912 0.19098 0.0
C797 C 0.48072 0.97267 0.27764 0.0
C798 C 0.46335 0.99796 0.21712 0.0
C799 C 0.48051 0.02916 0.20542 0.0
C800 C 0.46642 0.04676 0.19616 0.0
C801 C 0.43399 0.03226 0.19964 0.0
C802 C 0.41594 0.00049 0.21255 0.0
C803 C 0.43086 0.98307 0.22081 0.0
loop_
_geom_bond_atom_site_label_1
_geom_bond_atom_site_label_2
_geom_bond_distance
_geom_bond_site_symmetry_2
_ccdc_geom_bond_type
In0 O1 2.294 . S
In0 O2 2.326 . S
In0 O6 2.266 . S
In0 O7 2.326 . S
In0 O8 2.266 . S
In0 O9 2.326 . S
In0 O11 2.294 . S
In0 O12 2.326 1_554 S
O1 In0 2.294 . S
O1 C10 1.240 . S
O2 In0 2.326 . S
O2 C10 1.252 . S
C3 O6 1.252 . S
C3 O7 1.260 . S
C4 O11 1.240 1_556 S
C4 O12 1.252 . S
C5 O8 1.252 . S
C5 O9 1.260 . S
O6 In0 2.266 . S
O6 C3 1.252 . S
O7 In0 2.326 . S
O7 C3 1.260 . S
O8 In0 2.266 . S
O8 C5 1.252 . S
O9 In0 2.326 . S
O9 C5 1.260 . S
C10 O1 1.240 . S
C10 O2 1.252 . S
O11 In0 2.294 . S
O11 C4 1.240 1_554 S
O12 In0 2.326 1_556 S
O12 C4 1.252 . S
In13 O14 2.317 . S
In13 O15 2.326 . S
In13 O19 2.251 1_655 S
In13 O20 2.326 . S
In13 O21 2.266 . S
In13 O22 2.326 1_655 S
In13 O24 2.294 . S
In13 O25 2.326 . S
O14 In13 2.317 . S
O14 C23 1.257 . S
O15 In13 2.326 . S
O15 C23 1.252 . S
C16 O19 1.239 1_655 S
C16 O20 1.260 . S
C17 O24 1.240 . S
C17 O25 1.252 . S
C18 O21 1.252 . S
C18 O22 1.260 1_655 S
O19 In13 2.251 1_455 S
O19 C16 1.239 1_455 S
O20 In13 2.326 . S
O20 C16 1.260 . S
O21 In13 2.266 . S
O21 C18 1.252 . S
O22 In13 2.326 1_455 S
O22 C18 1.260 1_455 S
C23 O14 1.257 . S
C23 O15 1.252 . S
O24 In13 2.294 . S
O24 C17 1.240 . S
O25 In13 2.326 . S
O25 C17 1.252 . S
In26 O27 2.294 . S
In26 O28 2.326 . S
In26 O32 2.266 . S
In26 O33 2.326 1_565 S
In26 O34 2.258 1_565 S
In26 O35 2.326 . S
In26 O37 2.303 . S
In26 O38 2.326 . S
O27 In26 2.294 . S
O27 C36 1.240 . S
O28 In26 2.326 . S
O28 C36 1.252 . S
C29 O32 1.252 . S
C29 O33 1.260 1_565 S
C30 O37 1.246 . S
C30 O38 1.252 . S
C31 O34 1.245 1_565 S
C31 O35 1.260 . S
O32 In26 2.266 . S
O32 C29 1.252 . S
O33 In26 2.326 1_545 S
O33 C29 1.260 1_545 S
O34 In26 2.258 1_545 S
O34 C31 1.245 1_545 S
O35 In26 2.326 . S
O35 C31 1.260 . S
C36 O27 1.240 . S
C36 O28 1.252 . S
O37 In26 2.303 . S
O37 C30 1.246 . S
O38 In26 2.326 . S
O38 C30 1.252 . S
In39 O40 2.294 . S
In39 O41 2.326 1_554 S
In39 O45 2.266 . S
In39 O46 2.326 . S
In39 O47 2.266 . S
In39 O48 2.326 . S
In39 O50 2.294 . S
In39 O51 2.326 . S
O40 In39 2.294 . S
O40 C49 1.240 1_554 S
O41 In39 2.326 1_556 S
O41 C49 1.252 . S
C42 O45 1.252 . S
C42 O46 1.260 . S
C43 O50 1.240 . S
C43 O51 1.252 . S
C44 O47 1.252 . S
C44 O48 1.260 . S
O45 In39 2.266 . S
O45 C42 1.252 . S
O46 In39 2.326 . S
O46 C42 1.260 . S
O47 In39 2.266 . S
O47 C44 1.252 . S
O48 In39 2.326 . S
O48 C44 1.260 . S
C49 O40 1.240 1_556 S
C49 O41 1.252 . S
O50 In39 2.294 . S
O50 C43 1.240 . S
O51 In39 2.326 . S
O51 C43 1.252 . S
In52 O53 2.294 . S
In52 O54 2.326 . S
In52 O58 2.266 . S
In52 O59 2.326 1_455 S
In52 O60 2.251 1_455 S
In52 O61 2.326 . S
In52 O63 2.317 . S
In52 O64 2.326 . S
O53 In52 2.294 . S
O53 C62 1.240 . S
O54 In52 2.326 . S
O54 C62 1.252 . S
C55 O58 1.252 . S
C55 O59 1.260 1_455 S
C56 O63 1.257 . S
C56 O64 1.252 . S
C57 O60 1.239 1_455 S
C57 O61 1.260 . S
O58 In52 2.266 . S
O58 C55 1.252 . S
O59 In52 2.326 1_655 S
O59 C55 1.260 1_655 S
O60 In52 2.251 1_655 S
O60 C57 1.239 1_655 S
O61 In52 2.326 . S
O61 C57 1.260 . S
C62 O53 1.240 . S
C62 O54 1.252 . S
O63 In52 2.317 . S
O63 C56 1.257 . S
O64 In52 2.326 . S
O64 C56 1.252 . S
In65 O66 2.303 . S
In65 O67 2.326 . S
In65 O71 2.258 1_545 S
In65 O72 2.326 . S
In65 O73 2.266 . S
In65 O74 2.326 1_545 S
In65 O76 2.294 . S
In65 O77 2.326 . S
O66 In65 2.303 . S
O66 C75 1.246 . S
O67 In65 2.326 . S
O67 C75 1.252 . S
C68 O71 1.245 1_545 S
C68 O72 1.260 . S
C69 O76 1.240 . S
C69 O77 1.252 . S
C70 O73 1.252 . S
C70 O74 1.260 1_545 S
O71 In65 2.258 1_565 S
O71 C68 1.245 1_565 S
O72 In65 2.326 . S
O72 C68 1.260 . S
O73 In65 2.266 . S
O73 C70 1.252 . S
O74 In65 2.326 1_565 S
O74 C70 1.260 1_565 S
C75 O66 1.246 . S
C75 O67 1.252 . S
O76 In65 2.294 . S
O76 C69 1.240 . S
O77 In65 2.326 . S
O77 C69 1.252 . S
In78 O79 2.294 . S
In78 O80 2.326 . S
In78 O84 2.266 . S
In78 O85 2.326 . S
In78 O86 2.266 . S
In78 O87 2.326 . S
In78 O89 2.294 . S
In78 O90 2.326 . S
O79 In78 2.294 . S
O79 C88 1.240 . S
O80 In78 2.326 . S
O80 C88 1.252 . S
C81 O84 1.252 . S
C81 O85 1.260 . S
C82 O89 1.240 . S
C82 O90 1.252 . S
C83 O86 1.252 . S
C83 O87 1.260 . S
O84 In78 2.266 . S
O84 C81 1.252 . S
O85 In78 2.326 . S
O85 C81 1.260 . S
O86 In78 2.266 . S
O86 C83 1.252 . S
O87 In78 2.326 . S
O87 C83 1.260 . S
C88 O79 1.240 . S
C88 O80 1.252 . S
O89 In78 2.294 . S
O89 C82 1.240 . S
O90 In78 2.326 . S
O90 C82 1.252 . S
In91 O92 2.294 . S
In91 O93 2.326 . S
In91 O97 2.266 . S
In91 O98 2.326 1_655 S
In91 O99 2.258 1_655 S
In91 O100 2.326 . S
In91 O102 2.303 . S
In91 O103 2.326 1_556 S
O92 In91 2.294 . S
O92 C101 1.240 . S
O93 In91 2.326 . S
O93 C101 1.252 . S
C94 O97 1.252 . S
C94 O98 1.260 1_655 S
C95 O102 1.246 1_554 S
C95 O103 1.252 . S
C96 O99 1.245 1_655 S
C96 O100 1.260 . S
O97 In91 2.266 . S
O97 C94 1.252 . S
O98 In91 2.326 1_455 S
O98 C94 1.260 1_455 S
O99 In91 2.258 1_455 S
O99 C96 1.245 1_455 S
O100 In91 2.326 . S
O100 C96 1.260 . S
C101 O92 1.240 . S
C101 O93 1.252 . S
O102 In91 2.303 . S
O102 C95 1.246 1_556 S
O103 In91 2.326 1_554 S
O103 C95 1.252 . S
In104 O105 2.294 . S
In104 O106 2.326 . S
In104 O110 2.266 . S
In104 O111 2.326 1_565 S
In104 O112 2.251 1_565 S
In104 O113 2.326 . S
In104 O115 2.317 . S
In104 O116 2.326 . S
O105 In104 2.294 . S
O105 C114 1.240 . S
O106 In104 2.326 . S
O106 C114 1.252 . S
C107 O110 1.252 . S
C107 O111 1.260 1_565 S
C108 O115 1.257 . S
C108 O116 1.252 . S
C109 O112 1.239 1_565 S
C109 O113 1.260 . S
O110 In104 2.266 . S
O110 C107 1.252 . S
O111 In104 2.326 1_545 S
O111 C107 1.260 1_545 S
O112 In104 2.251 1_545 S
O112 C109 1.239 1_545 S
O113 In104 2.326 . S
O113 C109 1.260 . S
C114 O105 1.240 . S
C114 O106 1.252 . S
O115 In104 2.317 . S
O115 C108 1.257 . S
O116 In104 2.326 . S
O116 C108 1.252 . S
In117 O118 2.294 . S
In117 O119 2.326 . S
In117 O123 2.266 . S
In117 O124 2.326 . S
In117 O125 2.266 . S
In117 O126 2.326 . S
In117 O128 2.294 . S
In117 O129 2.326 . S
O118 In117 2.294 . S
O118 C127 1.240 . S
O119 In117 2.326 . S
O119 C127 1.252 . S
C120 O123 1.252 . S
C120 O124 1.260 . S
C121 O128 1.240 . S
C121 O129 1.252 . S
C122 O125 1.252 . S
C122 O126 1.260 . S
O123 In117 2.266 . S
O123 C120 1.252 . S
O124 In117 2.326 . S
O124 C120 1.260 . S
O125 In117 2.266 . S
O125 C122 1.252 . S
O126 In117 2.326 . S
O126 C122 1.260 . S
C127 O118 1.240 . S
C127 O119 1.252 . S
O128 In117 2.294 . S
O128 C121 1.240 . S
O129 In117 2.326 . S
O129 C121 1.252 . S
In130 O131 2.303 . S
In130 O132 2.326 1_556 S
In130 O136 2.258 1_455 S
In130 O137 2.326 . S
In130 O138 2.266 . S
In130 O139 2.326 1_455 S
In130 O141 2.294 . S
In130 O142 2.326 . S
O131 In130 2.303 . S
O131 C140 1.246 1_556 S
O132 In130 2.326 1_554 S
O132 C140 1.252 . S
C133 O136 1.245 1_455 S
C133 O137 1.260 . S
C134 O141 1.240 . S
C134 O142 1.252 . S
C135 O138 1.252 . S
C135 O139 1.260 1_455 S
O136 In130 2.258 1_655 S
O136 C133 1.245 1_655 S
O137 In130 2.326 . S
O137 C133 1.260 . S
O138 In130 2.266 . S
O138 C135 1.252 . S
O139 In130 2.326 1_655 S
O139 C135 1.260 1_655 S
C140 O131 1.246 1_554 S
C140 O132 1.252 . S
O141 In130 2.294 . S
O141 C134 1.240 . S
O142 In130 2.326 . S
O142 C134 1.252 . S
In143 O144 2.294 . S
In143 O145 2.326 . S
In143 O149 2.266 . S
In143 O150 2.326 1_545 S
In143 O151 2.251 1_545 S
In143 O152 2.326 . S
In143 O154 2.317 . S
In143 O155 2.326 . S
O144 In143 2.294 . S
O144 C153 1.240 . S
O145 In143 2.326 . S
O145 C153 1.252 . S
C146 O149 1.252 . S
C146 O150 1.260 1_545 S
C147 O154 1.257 . S
C147 O155 1.252 . S
C148 O151 1.239 1_545 S
C148 O152 1.260 . S
O149 In143 2.266 . S
O149 C146 1.252 . S
O150 In143 2.326 1_565 S
O150 C146 1.260 1_565 S
O151 In143 2.251 1_565 S
O151 C148 1.239 1_565 S
O152 In143 2.326 . S
O152 C148 1.260 . S
C153 O144 1.240 . S
C153 O145 1.252 . S
O154 In143 2.317 . S
O154 C147 1.257 . S
O155 In143 2.326 . S
O155 C147 1.252 . S
H156 C168 0.930 . S
H157 C170 0.930 . S
H158 C171 0.930 . S
H159 C175 0.959 . S
H160 C175 0.959 . S
H161 C175 0.961 . S
H162 C176 0.960 . S
H163 C176 0.961 . S
H164 C176 0.959 . S
H165 C179 0.929 . S
H166 C180 0.931 . S
H167 C182 0.930 . S
C168 H156 0.930 . S
C168 C169 1.399 . S
C168 C173 1.399 . S
C169 C168 1.399 . S
C169 C170 1.376 . S
C170 H157 0.930 . S
C170 C169 1.376 . S
C170 C171 1.388 . S
C171 H158 0.930 . S
C171 C170 1.388 . S
C171 C172 1.390 . S
C172 C171 1.390 . S
C172 C173 1.394 . S
C172 C178 1.465 . S
C173 C168 1.399 . S
C173 C172 1.394 . S
C173 C174 1.516 . S
C174 C173 1.516 . S
C174 C175 1.502 . S
C174 C176 1.561 . S
C174 C177 1.526 . S
C175 H159 0.959 . S
C175 H160 0.959 . S
C175 H161 0.961 . S
C175 C174 1.502 . S
C176 H162 0.960 . S
C176 H163 0.961 . S
C176 H164 0.959 . S
C176 C174 1.561 . S
C177 C174 1.526 . S
C177 C178 1.396 . S
C177 C182 1.390 . S
C178 C172 1.465 . S
C178 C177 1.396 . S
C178 C179 1.399 . S
C179 H165 0.929 . S
C179 C178 1.399 . S
C179 C180 1.385 . S
C180 H166 0.931 . S
C180 C179 1.385 . S
C180 C181 1.389 . S
C181 C180 1.389 . S
C181 C182 1.387 . S
C182 H167 0.930 . S
C182 C177 1.390 . S
C182 C181 1.387 . S
H183 C195 0.930 . S
H184 C197 0.930 . S
H185 C198 0.930 . S
H186 C202 0.959 . S
H187 C202 0.959 . S
H188 C202 0.961 . S
H189 C203 0.960 . S
H190 C203 0.961 . S
H191 C203 0.959 1_455 S
H192 C206 0.929 . S
H193 C207 0.931 . S
H194 C209 0.930 . S
C195 H183 0.930 . S
C195 C196 1.399 . S
C195 C200 1.399 . S
C196 C195 1.399 . S
C196 C197 1.376 1_655 S
C197 H184 0.930 . S
C197 C196 1.376 1_455 S
C197 C198 1.388 . S
C198 H185 0.930 . S
C198 C197 1.388 . S
C198 C199 1.390 . S
C199 C198 1.390 . S
C199 C200 1.394 1_455 S
C199 C205 1.465 . S
C200 C195 1.399 . S
C200 C199 1.394 1_655 S
C200 C201 1.516 . S
C201 C200 1.516 . S
C201 C202 1.502 . S
C201 C203 1.561 . S
C201 C204 1.526 . S
C202 H186 0.959 . S
C202 H187 0.959 . S
C202 H188 0.961 . S
C202 C201 1.502 . S
C203 H189 0.960 . S
C203 H190 0.961 . S
C203 H191 0.959 1_655 S
C203 C201 1.561 . S
C204 C201 1.526 . S
C204 C205 1.396 1_655 S
C204 C209 1.390 . S
C205 C199 1.465 . S
C205 C204 1.396 1_455 S
C205 C206 1.399 . S
C206 H192 0.929 . S
C206 C205 1.399 . S
C206 C207 1.385 . S
C207 H193 0.931 . S
C207 C206 1.385 . S
C207 C208 1.389 . S
C208 C207 1.389 . S
C208 C209 1.387 1_455 S
C209 H194 0.930 . S
C209 C204 1.390 . S
C209 C208 1.387 1_655 S
H210 C222 0.930 . S
H211 C224 0.930 . S
H212 C225 0.930 . S
H213 C229 0.959 . S
H214 C229 0.959 . S
H215 C229 0.961 1_556 S
H216 C230 0.960 1_556 S
H217 C230 0.961 . S
H218 C230 0.959 . S
H219 C233 0.929 . S
H220 C234 0.931 . S
H221 C236 0.930 . S
C222 H210 0.930 . S
C222 C223 1.399 . S
C222 C227 1.399 . S
C223 C222 1.399 . S
C223 C224 1.376 1_565 S
C224 H211 0.930 . S
C224 C223 1.376 1_545 S
C224 C225 1.388 . S
C225 H212 0.930 . S
C225 C224 1.388 . S
C225 C226 1.390 . S
C226 C225 1.390 . S
C226 C227 1.394 1_545 S
C226 C232 1.465 1_556 S
C227 C222 1.399 . S
C227 C226 1.394 1_565 S
C227 C228 1.516 1_556 S
C228 C227 1.516 1_554 S
C228 C229 1.502 . S
C228 C230 1.561 . S
C228 C231 1.526 . S
C229 H213 0.959 . S
C229 H214 0.959 . S
C229 H215 0.961 1_554 S
C229 C228 1.502 . S
C230 H216 0.960 1_554 S
C230 H217 0.961 . S
C230 H218 0.959 . S
C230 C228 1.561 . S
C231 C228 1.526 . S
C231 C232 1.396 1_565 S
C231 C236 1.390 . S
C232 C226 1.465 1_554 S
C232 C231 1.396 1_545 S
C232 C233 1.399 . S
C233 H219 0.929 . S
C233 C232 1.399 . S
C233 C234 1.385 . S
C234 H220 0.931 . S
C234 C233 1.385 . S
C234 C235 1.389 . S
C235 C234 1.389 . S
C235 C236 1.387 1_545 S
C236 H221 0.930 . S
C236 C231 1.390 . S
C236 C235 1.387 1_565 S
H237 C249 0.930 . S
H238 C251 0.930 . S
H239 C252 0.930 . S
H240 C256 0.959 . S
H241 C256 0.959 . S
H242 C256 0.961 . S
H243 C257 0.960 . S
H244 C257 0.961 . S
H245 C257 0.959 . S
H246 C260 0.929 . S
H247 C261 0.931 . S
H248 C263 0.930 . S
C249 H237 0.930 . S
C249 C250 1.399 . S
C249 C254 1.399 . S
C250 C249 1.399 . S
C250 C251 1.376 . S
C251 H238 0.930 . S
C251 C250 1.376 . S
C251 C252 1.388 . S
C252 H239 0.930 . S
C252 C251 1.388 . S
C252 C253 1.390 . S
C253 C252 1.390 . S
C253 C254 1.394 . S
C253 C259 1.465 . S
C254 C249 1.399 . S
C254 C253 1.394 . S
C254 C255 1.516 . S
C255 C254 1.516 . S
C255 C256 1.502 . S
C255 C257 1.561 . S
C255 C258 1.526 . S
C256 H240 0.959 . S
C256 H241 0.959 . S
C256 H242 0.961 . S
C256 C255 1.502 . S
C257 H243 0.960 . S
C257 H244 0.961 . S
C257 H245 0.959 . S
C257 C255 1.561 . S
C258 C255 1.526 . S
C258 C259 1.396 . S
C258 C263 1.390 . S
C259 C253 1.465 . S
C259 C258 1.396 . S
C259 C260 1.399 . S
C260 H246 0.929 . S
C260 C259 1.399 . S
C260 C261 1.385 . S
C261 H247 0.931 . S
C261 C260 1.385 . S
C261 C262 1.389 . S
C262 C261 1.389 . S
C262 C263 1.387 . S
C263 H248 0.930 . S
C263 C258 1.390 . S
C263 C262 1.387 . S
H264 C276 0.929 1_455 S
H265 C278 0.930 . S
H266 C279 0.930 . S
H267 C283 0.959 . S
H268 C283 0.959 . S
H269 C283 0.961 . S
H270 C284 0.960 . S
H271 C284 0.961 . S
H272 C284 0.959 . S
H273 C287 0.927 . S
H274 C288 0.931 . S
H275 C290 0.930 . S
C276 H264 0.929 1_655 S
C276 C277 1.399 . S
C276 C281 1.399 1_655 S
C277 C276 1.399 . S
C277 C278 1.376 . S
C278 H265 0.930 . S
C278 C277 1.376 . S
C278 C279 1.388 . S
C279 H266 0.930 . S
C279 C278 1.388 . S
C279 C280 1.390 . S
C280 C279 1.390 . S
C280 C281 1.394 1_655 S
C280 C286 1.465 1_655 S
C281 C276 1.399 1_455 S
C281 C280 1.394 1_455 S
C281 C282 1.516 . S
C282 C281 1.516 . S
C282 C283 1.502 1_455 S
C282 C284 1.561 . S
C282 C285 1.526 . S
C283 H267 0.959 . S
C283 H268 0.959 . S
C283 H269 0.961 . S
C283 C282 1.502 1_655 S
C284 H270 0.960 . S
C284 H271 0.961 . S
C284 H272 0.959 . S
C284 C282 1.561 . S
C285 C282 1.526 . S
C285 C286 1.396 . S
C285 C290 1.390 . S
C286 C280 1.465 1_455 S
C286 C285 1.396 . S
C286 C287 1.401 1_455 S
C287 H273 0.927 . S
C287 C286 1.401 1_655 S
C287 C288 1.385 1_655 S
C288 H274 0.931 . S
C288 C287 1.385 1_455 S
C288 C289 1.389 . S
C289 C288 1.389 . S
C289 C290 1.387 . S
C290 H275 0.930 . S
C290 C285 1.390 . S
C290 C289 1.387 . S
H291 C303 0.930 . S
H292 C305 0.930 . S
H293 C306 0.930 . S
H294 C310 0.959 . S
H295 C310 0.959 1_556 S
H296 C310 0.961 . S
H297 C311 0.960 . S
H298 C311 0.961 1_556 S
H299 C311 0.959 . S
H300 C314 0.929 . S
H301 C315 0.931 . S
H302 C317 0.930 . S
C303 H291 0.930 . S
C303 C304 1.399 1_545 S
C303 C308 1.399 . S
C304 C303 1.399 1_565 S
C304 C305 1.376 . S
C305 H292 0.930 . S
C305 C304 1.376 . S
C305 C306 1.388 . S
C306 H293 0.930 . S
C306 C305 1.388 . S
C306 C307 1.390 . S
C307 C306 1.390 . S
C307 C308 1.394 1_565 S
C307 C313 1.465 1_554 S
C308 C303 1.399 . S
C308 C307 1.394 1_545 S
C308 C309 1.516 . S
C309 C308 1.516 . S
C309 C310 1.502 . S
C309 C311 1.561 . S
C309 C312 1.526 1_554 S
C310 H294 0.959 . S
C310 H295 0.959 1_554 S
C310 H296 0.961 . S
C310 C309 1.502 . S
C311 H297 0.960 . S
C311 H298 0.961 1_554 S
C311 H299 0.959 . S
C311 C309 1.561 . S
C312 C309 1.526 1_556 S
C312 C313 1.396 1_545 S
C312 C317 1.390 . S
C313 C307 1.465 1_556 S
C313 C312 1.396 1_565 S
C313 C314 1.399 . S
C314 H300 0.929 . S
C314 C313 1.399 . S
C314 C315 1.385 . S
C315 H301 0.931 . S
C315 C314 1.385 . S
C315 C316 1.389 1_565 S
C316 C315 1.389 1_545 S
C316 C317 1.387 . S
C317 H302 0.930 . S
C317 C312 1.390 . S
C317 C316 1.387 . S
H318 C330 0.930 1_554 S
H319 C332 0.930 . S
H320 C333 0.930 . S
H321 C337 0.959 . S
H322 C337 0.959 . S
H323 C337 0.961 . S
H324 C338 0.960 . S
H325 C338 0.961 . S
H326 C338 0.959 1_556 S
H327 C341 0.929 . S
H328 C342 0.929 1_556 S
H329 C344 0.930 . S
C330 H318 0.930 1_556 S
C330 C331 1.399 . S
C330 C335 1.399 . S
C331 C330 1.399 . S
C331 C332 1.376 . S
C332 H319 0.930 . S
C332 C331 1.376 . S
C332 C333 1.388 . S
C333 H320 0.930 . S
C333 C332 1.388 . S
C333 C334 1.390 . S
C334 C333 1.390 . S
C334 C335 1.394 . S
C334 C340 1.465 . S
C335 C330 1.399 . S
C335 C334 1.394 . S
C335 C336 1.516 1_556 S
C336 C335 1.516 1_554 S
C336 C337 1.502 . S
C336 C338 1.561 . S
C336 C339 1.526 . S
C337 H321 0.959 . S
C337 H322 0.959 . S
C337 H323 0.961 . S
C337 C336 1.502 . S
C338 H324 0.960 . S
C338 H325 0.961 . S
C338 H326 0.959 1_554 S
C338 C336 1.561 . S
C339 C336 1.526 . S
C339 C340 1.396 1_554 S
C339 C344 1.390 . S
C340 C334 1.465 . S
C340 C339 1.396 1_556 S
C340 C341 1.399 . S
C341 H327 0.929 . S
C341 C340 1.399 . S
C341 C342 1.382 1_556 S
C342 H328 0.929 1_554 S
C342 C341 1.382 1_554 S
C342 C343 1.395 . S
C343 C342 1.395 . S
C343 C344 1.387 . S
C344 H329 0.930 . S
C344 C339 1.390 . S
C344 C343 1.387 . S
H345 C357 0.930 . S
H346 C359 0.930 . S
H347 C360 0.930 . S
H348 C364 0.959 . S
H349 C364 0.959 . S
H350 C364 0.961 . S
H351 C365 0.960 . S
H352 C365 0.961 . S
H353 C365 0.959 . S
H354 C368 0.929 . S
H355 C369 0.931 . S
H356 C371 0.930 . S
C357 H345 0.930 . S
C357 C358 1.399 . S
C357 C362 1.399 . S
C358 C357 1.399 . S
C358 C359 1.376 . S
C359 H346 0.930 . S
C359 C358 1.376 . S
C359 C360 1.388 . S
C360 H347 0.930 . S
C360 C359 1.388 . S
C360 C361 1.390 . S
C361 C360 1.390 . S
C361 C362 1.394 . S
C361 C367 1.465 . S
C362 C357 1.399 . S
C362 C361 1.394 . S
C362 C363 1.516 . S
C363 C362 1.516 . S
C363 C364 1.502 . S
C363 C365 1.561 . S
C363 C366 1.526 . S
C364 H348 0.959 . S
C364 H349 0.959 . S
C364 H350 0.961 . S
C364 C363 1.502 . S
C365 H351 0.960 . S
C365 H352 0.961 . S
C365 H353 0.959 . S
C365 C363 1.561 . S
C366 C363 1.526 . S
C366 C367 1.396 . S
C366 C371 1.390 . S
C367 C361 1.465 . S
C367 C366 1.396 . S
C367 C368 1.399 . S
C368 H354 0.929 . S
C368 C367 1.399 . S
C368 C369 1.385 . S
C369 H355 0.931 . S
C369 C368 1.385 . S
C369 C370 1.389 . S
C370 C369 1.389 . S
C370 C371 1.387 . S
C371 H356 0.930 . S
C371 C366 1.390 . S
C371 C370 1.387 . S
H372 C384 0.930 . S
H373 C386 0.930 . S
H374 C387 0.930 . S
H375 C391 0.959 . S
H376 C391 0.959 . S
H377 C391 0.961 . S
H378 C392 0.960 . S
H379 C392 0.961 . S
H380 C392 0.959 . S
H381 C395 0.929 . S
H382 C396 0.931 . S
H383 C398 0.930 . S
C384 H372 0.930 . S
C384 C385 1.399 . S
C384 C389 1.399 . S
C385 C384 1.399 . S
C385 C386 1.376 . S
C386 H373 0.930 . S
C386 C385 1.376 . S
C386 C387 1.388 . S
C387 H374 0.930 . S
C387 C386 1.388 . S
C387 C388 1.390 . S
C388 C387 1.390 . S
C388 C389 1.394 . S
C388 C394 1.465 . S
C389 C384 1.399 . S
C389 C388 1.394 . S
C389 C390 1.516 . S
C390 C389 1.516 . S
C390 C391 1.502 . S
C390 C392 1.561 . S
C390 C393 1.526 . S
C391 H375 0.959 . S
C391 H376 0.959 . S
C391 H377 0.961 . S
C391 C390 1.502 . S
C392 H378 0.960 . S
C392 H379 0.961 . S
C392 H380 0.959 . S
C392 C390 1.561 . S
C393 C390 1.526 . S
C393 C394 1.396 . S
C393 C398 1.390 . S
C394 C388 1.465 . S
C394 C393 1.396 . S
C394 C395 1.399 . S
C395 H381 0.929 . S
C395 C394 1.399 . S
C395 C396 1.385 . S
C396 H382 0.931 . S
C396 C395 1.385 . S
C396 C397 1.389 . S
C397 C396 1.389 . S
C397 C398 1.387 . S
C398 H383 0.930 . S
C398 C393 1.390 . S
C398 C397 1.387 . S
H399 C411 0.930 1_556 S
H400 C413 0.930 . S
H401 C414 0.930 . S
H402 C418 0.959 . S
H403 C418 0.959 . S
H404 C418 0.961 . S
H405 C419 0.960 . S
H406 C419 0.961 . S
H407 C419 0.959 . S
H408 C422 0.929 . S
H409 C423 0.931 . S
H410 C425 0.930 . S
C411 H399 0.930 1_554 S
C411 C412 1.399 . S
C411 C416 1.399 1_554 S
C412 C411 1.399 . S
C412 C413 1.376 . S
C413 H400 0.930 . S
C413 C412 1.376 . S
C413 C414 1.388 . S
C414 H401 0.930 . S
C414 C413 1.388 . S
C414 C415 1.390 . S
C415 C414 1.390 . S
C415 C416 1.394 1_554 S
C415 C421 1.465 . S
C416 C411 1.399 1_556 S
C416 C415 1.394 1_556 S
C416 C417 1.516 . S
C417 C416 1.516 . S
C417 C418 1.502 . S
C417 C419 1.561 . S
C417 C420 1.526 . S
C418 H402 0.959 . S
C418 H403 0.959 . S
C418 H404 0.961 . S
C418 C417 1.502 . S
C419 H405 0.960 . S
C419 H406 0.961 . S
C419 H407 0.959 . S
C419 C417 1.561 . S
C420 C417 1.526 . S
C420 C421 1.396 1_556 S
C420 C425 1.390 . S
C421 C415 1.465 . S
C421 C420 1.396 1_554 S
C421 C422 1.399 . S
C422 H408 0.929 . S
C422 C421 1.399 . S
C422 C423 1.385 . S
C423 H409 0.931 . S
C423 C422 1.385 . S
C423 C424 1.389 1_554 S
C424 C423 1.389 1_556 S
C424 C425 1.387 . S
C425 H410 0.930 . S
C425 C420 1.390 . S
C425 C424 1.387 . S
H426 C438 0.930 . S
H427 C440 0.930 . S
H428 C441 0.930 . S
H429 C445 0.959 . S
H430 C445 0.959 . S
H431 C445 0.961 . S
H432 C446 0.960 . S
H433 C446 0.961 . S
H434 C446 0.959 . S
H435 C449 0.929 . S
H436 C450 0.931 . S
H437 C452 0.930 . S
C438 H426 0.930 . S
C438 C439 1.399 . S
C438 C443 1.399 . S
C439 C438 1.399 . S
C439 C440 1.376 . S
C440 H427 0.930 . S
C440 C439 1.376 . S
C440 C441 1.388 . S
C441 H428 0.930 . S
C441 C440 1.388 . S
C441 C442 1.390 . S
C442 C441 1.390 . S
C442 C443 1.394 . S
C442 C448 1.465 . S
C443 C438 1.399 . S
C443 C442 1.394 . S
C443 C444 1.516 . S
C444 C443 1.516 . S
C444 C445 1.502 . S
C444 C446 1.561 . S
C444 C447 1.526 . S
C445 H429 0.959 . S
C445 H430 0.959 . S
C445 H431 0.961 . S
C445 C444 1.502 . S
C446 H432 0.960 . S
C446 H433 0.961 . S
C446 H434 0.959 . S
C446 C444 1.561 . S
C447 C444 1.526 . S
C447 C448 1.396 . S
C447 C452 1.390 . S
C448 C442 1.465 . S
C448 C447 1.396 . S
C448 C449 1.399 . S
C449 H435 0.929 . S
C449 C448 1.399 . S
C449 C450 1.385 . S
C450 H436 0.931 . S
C450 C449 1.385 . S
C450 C451 1.389 . S
C451 C450 1.389 . S
C451 C452 1.387 . S
C452 H437 0.930 . S
C452 C447 1.390 . S
C452 C451 1.387 . S
H453 C465 0.930 . S
H454 C467 0.930 . S
H455 C468 0.930 . S
H456 C472 0.959 . S
H457 C472 0.959 . S
H458 C472 0.961 . S
H459 C473 0.960 . S
H460 C473 0.961 . S
H461 C473 0.959 . S
H462 C476 0.929 . S
H463 C477 0.931 . S
H464 C479 0.930 . S
C465 H453 0.930 . S
C465 C466 1.399 . S
C465 C470 1.399 . S
C466 C465 1.399 . S
C466 C467 1.376 . S
C467 H454 0.930 . S
C467 C466 1.376 . S
C467 C468 1.388 . S
C468 H455 0.930 . S
C468 C467 1.388 . S
C468 C469 1.390 . S
C469 C468 1.390 . S
C469 C470 1.394 . S
C469 C475 1.465 . S
C470 C465 1.399 . S
C470 C469 1.394 . S
C470 C471 1.516 . S
C471 C470 1.516 . S
C471 C472 1.502 . S
C471 C473 1.561 . S
C471 C474 1.526 . S
C472 H456 0.959 . S
C472 H457 0.959 . S
C472 H458 0.961 . S
C472 C471 1.502 . S
C473 H459 0.960 . S
C473 H460 0.961 . S
C473 H461 0.959 . S
C473 C471 1.561 . S
C474 C471 1.526 . S
C474 C475 1.396 . S
C474 C479 1.390 . S
C475 C469 1.465 . S
C475 C474 1.396 . S
C475 C476 1.399 . S
C476 H462 0.929 . S
C476 C475 1.399 . S
C476 C477 1.385 . S
C477 H463 0.931 . S
C477 C476 1.385 . S
C477 C478 1.389 . S
C478 C477 1.389 . S
C478 C479 1.387 . S
C479 H464 0.930 . S
C479 C474 1.390 . S
C479 C478 1.387 . S
H480 C492 0.930 . S
H481 C494 0.930 . S
H482 C495 0.930 . S
H483 C499 0.959 . S
H484 C499 0.959 . S
H485 C499 0.961 . S
H486 C500 0.960 . S
H487 C500 0.961 . S
H488 C500 0.959 . S
H489 C503 0.929 . S
H490 C504 0.931 . S
H491 C506 0.930 . S
C492 H480 0.930 . S
C492 C493 1.399 . S
C492 C497 1.399 . S
C493 C492 1.399 . S
C493 C494 1.376 . S
C494 H481 0.930 . S
C494 C493 1.376 . S
C494 C495 1.388 . S
C495 H482 0.930 . S
C495 C494 1.388 . S
C495 C496 1.390 . S
C496 C495 1.390 . S
C496 C497 1.394 . S
C496 C502 1.465 . S
C497 C492 1.399 . S
C497 C496 1.394 . S
C497 C498 1.516 . S
C498 C497 1.516 . S
C498 C499 1.502 . S
C498 C500 1.561 . S
C498 C501 1.526 . S
C499 H483 0.959 . S
C499 H484 0.959 . S
C499 H485 0.961 . S
C499 C498 1.502 . S
C500 H486 0.960 . S
C500 H487 0.961 . S
C500 H488 0.959 . S
C500 C498 1.561 . S
C501 C498 1.526 . S
C501 C502 1.396 . S
C501 C506 1.390 . S
C502 C496 1.465 . S
C502 C501 1.396 . S
C502 C503 1.399 . S
C503 H489 0.929 . S
C503 C502 1.399 . S
C503 C504 1.385 . S
C504 H490 0.931 . S
C504 C503 1.385 . S
C504 C505 1.389 . S
C505 C504 1.389 . S
C505 C506 1.387 . S
C506 H491 0.930 . S
C506 C501 1.390 . S
C506 C505 1.387 . S
H507 C519 0.926 . S
H508 C521 0.930 . S
H509 C522 0.930 . S
H510 C526 0.959 . S
H511 C526 0.959 . S
H512 C526 0.961 . S
H513 C527 0.960 . S
H514 C527 0.961 . S
H515 C527 0.959 . S
H516 C530 0.929 . S
H517 C531 0.941 1_655 S
H518 C533 0.930 . S
C519 H507 0.926 . S
C519 C520 1.401 1_455 S
C519 C524 1.401 . S
C520 C519 1.401 1_655 S
C520 C521 1.376 . S
C521 H508 0.930 . S
C521 C520 1.376 . S
C521 C522 1.388 . S
C522 H509 0.930 . S
C522 C521 1.388 . S
C522 C523 1.386 . S
C523 C522 1.386 . S
C523 C524 1.400 1_655 S
C523 C529 1.464 1_655 S
C524 C519 1.401 . S
C524 C523 1.400 1_455 S
C524 C525 1.516 . S
C525 C524 1.516 . S
C525 C526 1.502 1_455 S
C525 C527 1.561 . S
C525 C528 1.526 . S
C526 H510 0.959 . S
C526 H511 0.959 . S
C526 H512 0.961 . S
C526 C525 1.502 1_655 S
C527 H513 0.960 . S
C527 H514 0.961 . S
C527 H515 0.959 . S
C527 C525 1.561 . S
C528 C525 1.526 . S
C528 C529 1.396 . S
C528 C533 1.390 . S
C529 C523 1.464 1_455 S
C529 C528 1.396 . S
C529 C530 1.399 1_455 S
C530 H516 0.929 . S
C530 C529 1.399 1_655 S
C530 C531 1.388 1_655 S
C531 H517 0.941 1_455 S
C531 C530 1.388 1_455 S
C531 C532 1.378 . S
C532 C531 1.378 . S
C532 C533 1.387 . S
C533 H518 0.930 . S
C533 C528 1.390 . S
C533 C532 1.387 . S
H534 C546 0.930 . S
H535 C548 0.930 . S
H536 C549 0.930 . S
H537 C553 0.959 . S
H538 C553 0.959 . S
H539 C553 0.961 . S
H540 C554 0.960 . S
H541 C554 0.961 . S
H542 C554 0.959 . S
H543 C557 0.929 . S
H544 C558 0.931 . S
H545 C560 0.930 . S
C546 H534 0.930 . S
C546 C547 1.399 1_545 S
C546 C551 1.399 . S
C547 C546 1.399 1_565 S
C547 C548 1.376 . S
C548 H535 0.930 . S
C548 C547 1.376 . S
C548 C549 1.388 . S
C549 H536 0.930 . S
C549 C548 1.388 . S
C549 C550 1.390 . S
C550 C549 1.390 . S
C550 C551 1.394 1_565 S
C550 C556 1.465 . S
C551 C546 1.399 . S
C551 C550 1.394 1_545 S
C551 C552 1.516 . S
C552 C551 1.516 . S
C552 C553 1.502 . S
C552 C554 1.561 . S
C552 C555 1.526 . S
C553 H537 0.959 . S
C553 H538 0.959 . S
C553 H539 0.961 . S
C553 C552 1.502 . S
C554 H540 0.960 . S
C554 H541 0.961 . S
C554 H542 0.959 . S
C554 C552 1.561 . S
C555 C552 1.526 . S
C555 C556 1.396 1_545 S
C555 C560 1.390 . S
C556 C550 1.465 . S
C556 C555 1.396 1_565 S
C556 C557 1.399 . S
C557 H543 0.929 . S
C557 C556 1.399 . S
C557 C558 1.385 . S
C558 H544 0.931 . S
C558 C557 1.385 . S
C558 C559 1.389 1_565 S
C559 C558 1.389 1_545 S
C559 C560 1.387 . S
C560 H545 0.930 . S
C560 C555 1.390 . S
C560 C559 1.387 . S
H561 C573 0.930 . S
H562 C575 0.930 . S
H563 C576 0.930 . S
H564 C580 0.959 . S
H565 C580 0.959 . S
H566 C580 0.961 . S
H567 C581 0.960 . S
H568 C581 0.961 . S
H569 C581 0.959 . S
H570 C584 0.929 . S
H571 C585 0.931 . S
H572 C587 0.930 . S
C573 H561 0.930 . S
C573 C574 1.399 . S
C573 C578 1.399 . S
C574 C573 1.399 . S
C574 C575 1.376 . S
C575 H562 0.930 . S
C575 C574 1.376 . S
C575 C576 1.388 . S
C576 H563 0.930 . S
C576 C575 1.388 . S
C576 C577 1.390 . S
C577 C576 1.390 . S
C577 C578 1.394 . S
C577 C583 1.465 . S
C578 C573 1.399 . S
C578 C577 1.394 . S
C578 C579 1.516 . S
C579 C578 1.516 . S
C579 C580 1.502 . S
C579 C581 1.561 . S
C579 C582 1.526 . S
C580 H564 0.959 . S
C580 H565 0.959 . S
C580 H566 0.961 . S
C580 C579 1.502 . S
C581 H567 0.960 . S
C581 H568 0.961 . S
C581 H569 0.959 . S
C581 C579 1.561 . S
C582 C579 1.526 . S
C582 C583 1.396 . S
C582 C587 1.390 . S
C583 C577 1.465 . S
C583 C582 1.396 . S
C583 C584 1.399 . S
C584 H570 0.929 . S
C584 C583 1.399 . S
C584 C585 1.385 . S
C585 H571 0.931 . S
C585 C584 1.385 . S
C585 C586 1.389 . S
C586 C585 1.389 . S
C586 C587 1.387 . S
C587 H572 0.930 . S
C587 C582 1.390 . S
C587 C586 1.387 . S
H588 C600 0.930 . S
H589 C602 0.937 1_655 S
H590 C603 0.930 . S
H591 C607 0.959 . S
H592 C607 0.959 . S
H593 C607 0.961 . S
H594 C608 0.960 . S
H595 C608 0.961 . S
H596 C608 0.959 . S
H597 C611 0.929 . S
H598 C612 0.931 . S
H599 C614 0.930 . S
C600 H588 0.930 . S
C600 C601 1.399 . S
C600 C605 1.399 . S
C601 C600 1.399 . S
C601 C602 1.376 . S
C602 H589 0.937 1_455 S
C602 C601 1.376 . S
C602 C603 1.388 1_455 S
C603 H590 0.930 . S
C603 C602 1.388 1_655 S
C603 C604 1.390 1_655 S
C604 C603 1.390 1_455 S
C604 C605 1.394 . S
C604 C610 1.465 1_455 S
C605 C600 1.399 . S
C605 C604 1.394 . S
C605 C606 1.516 . S
C606 C605 1.516 . S
C606 C607 1.502 1_455 S
C606 C608 1.561 . S
C606 C609 1.526 . S
C607 H591 0.959 . S
C607 H592 0.959 . S
C607 H593 0.961 . S
C607 C606 1.502 1_655 S
C608 H594 0.960 . S
C608 H595 0.961 . S
C608 H596 0.959 . S
C608 C606 1.561 . S
C609 C606 1.526 . S
C609 C610 1.396 1_455 S
C609 C614 1.390 . S
C610 C604 1.465 1_655 S
C610 C609 1.396 1_655 S
C610 C611 1.399 . S
C611 H597 0.929 . S
C611 C610 1.399 . S
C611 C612 1.385 . S
C612 H598 0.931 . S
C612 C611 1.385 . S
C612 C613 1.389 . S
C613 C612 1.389 . S
C613 C614 1.387 1_655 S
C614 H599 0.930 . S
C614 C609 1.390 . S
C614 C613 1.387 1_455 S
H615 C627 0.930 . S
H616 C629 0.930 . S
H617 C630 0.930 . S
H618 C634 0.959 . S
H619 C634 0.959 . S
H620 C634 0.961 . S
H621 C635 0.960 . S
H622 C635 0.961 . S
H623 C635 0.959 . S
H624 C638 0.929 . S
H625 C639 0.931 . S
H626 C641 0.930 . S
C627 H615 0.930 . S
C627 C628 1.399 . S
C627 C632 1.399 . S
C628 C627 1.399 . S
C628 C629 1.376 1_565 S
C629 H616 0.930 . S
C629 C628 1.376 1_545 S
C629 C630 1.388 . S
C630 H617 0.930 . S
C630 C629 1.388 . S
C630 C631 1.390 . S
C631 C630 1.390 . S
C631 C632 1.394 1_545 S
C631 C637 1.465 . S
C632 C627 1.399 . S
C632 C631 1.394 1_565 S
C632 C633 1.516 . S
C633 C632 1.516 . S
C633 C634 1.502 . S
C633 C635 1.561 1_565 S
C633 C636 1.526 . S
C634 H618 0.959 . S
C634 H619 0.959 . S
C634 H620 0.961 . S
C634 C633 1.502 . S
C635 H621 0.960 . S
C635 H622 0.961 . S
C635 H623 0.959 . S
C635 C633 1.561 1_545 S
C636 C633 1.526 . S
C636 C637 1.396 1_565 S
C636 C641 1.390 . S
C637 C631 1.465 . S
C637 C636 1.396 1_545 S
C637 C638 1.399 . S
C638 H624 0.929 . S
C638 C637 1.399 . S
C638 C639 1.385 . S
C639 H625 0.931 . S
C639 C638 1.385 . S
C639 C640 1.389 . S
C640 C639 1.389 . S
C640 C641 1.387 1_545 S
C641 H626 0.930 . S
C641 C636 1.390 . S
C641 C640 1.387 1_565 S
H642 C654 0.930 . S
H643 C656 0.930 . S
H644 C657 0.930 . S
H645 C661 0.959 . S
H646 C661 0.959 1_556 S
H647 C661 0.961 1_556 S
H648 C662 0.960 1_556 S
H649 C662 0.961 1_556 S
H650 C662 0.959 . S
H651 C665 0.929 . S
H652 C666 0.931 . S
H653 C668 0.930 . S
C654 H642 0.930 . S
C654 C655 1.399 . S
C654 C659 1.399 . S
C655 C654 1.399 . S
C655 C656 1.376 . S
C656 H643 0.930 . S
C656 C655 1.376 . S
C656 C657 1.388 . S
C657 H644 0.930 . S
C657 C656 1.388 . S
C657 C658 1.390 . S
C658 C657 1.390 . S
C658 C659 1.394 . S
C658 C664 1.465 . S
C659 C654 1.399 . S
C659 C658 1.394 . S
C659 C660 1.516 . S
C660 C659 1.516 . S
C660 C661 1.502 . S
C660 C662 1.561 . S
C660 C663 1.526 . S
C661 H645 0.959 . S
C661 H646 0.959 1_554 S
C661 H647 0.961 1_554 S
C661 C660 1.502 . S
C662 H648 0.960 1_554 S
C662 H649 0.961 1_554 S
C662 H650 0.959 . S
C662 C660 1.561 . S
C663 C660 1.526 . S
C663 C664 1.396 . S
C663 C668 1.390 . S
C664 C658 1.465 . S
C664 C663 1.396 . S
C664 C665 1.399 . S
C665 H651 0.929 . S
C665 C664 1.399 . S
C665 C666 1.385 . S
C666 H652 0.931 . S
C666 C665 1.385 . S
C666 C667 1.389 . S
C667 C666 1.389 . S
C667 C668 1.387 . S
C668 H653 0.930 . S
C668 C663 1.390 . S
C668 C667 1.387 . S
H669 C681 0.930 . S
H670 C683 0.930 . S
H671 C684 0.930 . S
H672 C688 0.959 . S
H673 C688 0.959 . S
H674 C688 0.961 . S
H675 C689 0.960 . S
H676 C689 0.961 . S
H677 C689 0.959 . S
H678 C692 0.929 . S
H679 C693 0.931 . S
H680 C695 0.930 . S
C681 H669 0.930 . S
C681 C682 1.399 1_655 S
C681 C686 1.399 . S
C682 C681 1.399 1_455 S
C682 C683 1.376 . S
C683 H670 0.930 . S
C683 C682 1.376 . S
C683 C684 1.388 . S
C684 H671 0.930 . S
C684 C683 1.388 . S
C684 C685 1.390 . S
C685 C684 1.390 . S
C685 C686 1.394 1_455 S
C685 C691 1.465 . S
C686 C681 1.399 . S
C686 C685 1.394 1_655 S
C686 C687 1.516 . S
C687 C686 1.516 . S
C687 C688 1.502 . S
C687 C689 1.561 . S
C687 C690 1.526 . S
C688 H672 0.959 . S
C688 H673 0.959 . S
C688 H674 0.961 . S
C688 C687 1.502 . S
C689 H675 0.960 . S
C689 H676 0.961 . S
C689 H677 0.959 . S
C689 C687 1.561 . S
C690 C687 1.526 . S
C690 C691 1.396 1_655 S
C690 C695 1.390 . S
C691 C685 1.465 . S
C691 C690 1.396 1_455 S
C691 C692 1.399 . S
C692 H678 0.929 . S
C692 C691 1.399 . S
C692 C693 1.385 . S
C693 H679 0.931 . S
C693 C692 1.385 . S
C693 C694 1.389 1_455 S
C694 C693 1.389 1_655 S
C694 C695 1.387 . S
C695 H680 0.930 . S
C695 C690 1.390 . S
C695 C694 1.387 . S
H696 C708 0.930 . S
H697 C710 0.930 . S
H698 C711 0.930 . S
H699 C715 0.959 . S
H700 C715 0.959 . S
H701 C715 0.961 . S
H702 C716 0.980 . S
H703 C716 0.961 . S
H704 C716 0.959 . S
H705 C719 0.929 . S
H706 C720 0.931 . S
H707 C722 0.930 1_565 S
C708 H696 0.930 . S
C708 C709 1.399 . S
C708 C713 1.399 . S
C709 C708 1.399 . S
C709 C710 1.376 1_565 S
C710 H697 0.930 . S
C710 C709 1.376 1_545 S
C710 C711 1.388 . S
C711 H698 0.930 . S
C711 C710 1.388 . S
C711 C712 1.390 . S
C712 C711 1.390 . S
C712 C713 1.394 1_545 S
C712 C718 1.465 . S
C713 C708 1.399 . S
C713 C712 1.394 1_565 S
C713 C714 1.516 . S
C714 C713 1.516 . S
C714 C715 1.502 . S
C714 C716 1.561 1_565 S
C714 C717 1.507 1_565 S
C715 H699 0.959 . S
C715 H700 0.959 . S
C715 H701 0.961 . S
C715 C714 1.502 . S
C716 H702 0.980 . S
C716 H703 0.961 . S
C716 H704 0.959 . S
C716 C714 1.561 1_545 S
C717 C714 1.507 1_545 S
C717 C718 1.400 . S
C717 C722 1.404 . S
C718 C712 1.465 . S
C718 C717 1.400 . S
C718 C719 1.399 . S
C719 H705 0.929 . S
C719 C718 1.399 . S
C719 C720 1.385 . S
C720 H706 0.931 . S
C720 C719 1.385 . S
C720 C721 1.389 . S
C721 C720 1.389 . S
C721 C722 1.387 . S
C722 H707 0.930 1_545 S
C722 C717 1.404 . S
C722 C721 1.387 . S
H723 C735 0.930 . S
H724 C737 0.930 . S
H725 C738 0.930 . S
H726 C742 0.959 . S
H727 C742 0.959 . S
H728 C742 0.961 . S
H729 C743 0.960 . S
H730 C743 0.961 . S
H731 C743 0.959 . S
H732 C746 0.929 . S
H733 C747 0.931 . S
H734 C749 0.930 . S
C735 H723 0.930 . S
C735 C736 1.399 . S
C735 C740 1.399 . S
C736 C735 1.399 . S
C736 C737 1.376 . S
C737 H724 0.930 . S
C737 C736 1.376 . S
C737 C738 1.388 . S
C738 H725 0.930 . S
C738 C737 1.388 . S
C738 C739 1.390 . S
C739 C738 1.390 . S
C739 C740 1.394 . S
C739 C745 1.465 . S
C740 C735 1.399 . S
C740 C739 1.394 . S
C740 C741 1.516 . S
C741 C740 1.516 . S
C741 C742 1.502 . S
C741 C743 1.561 . S
C741 C744 1.526 . S
C742 H726 0.959 . S
C742 H727 0.959 . S
C742 H728 0.961 . S
C742 C741 1.502 . S
C743 H729 0.960 . S
C743 H730 0.961 . S
C743 H731 0.959 . S
C743 C741 1.561 . S
C744 C741 1.526 . S
C744 C745 1.396 . S
C744 C749 1.390 . S
C745 C739 1.465 . S
C745 C744 1.396 . S
C745 C746 1.399 . S
C746 H732 0.929 . S
C746 C745 1.399 . S
C746 C747 1.385 . S
C747 H733 0.931 . S
C747 C746 1.385 . S
C747 C748 1.389 . S
C748 C747 1.389 . S
C748 C749 1.387 . S
C749 H734 0.930 . S
C749 C744 1.390 . S
C749 C748 1.387 . S
H750 C762 0.930 . S
H751 C764 0.930 . S
H752 C765 0.930 . S
H753 C769 0.959 . S
H754 C769 0.959 . S
H755 C769 0.961 . S
H756 C770 0.960 . S
H757 C770 0.961 . S
H758 C770 0.959 . S
H759 C773 0.929 . S
H760 C774 0.931 . S
H761 C776 0.930 . S
C762 H750 0.930 . S
C762 C763 1.399 . S
C762 C767 1.399 . S
C763 C762 1.399 . S
C763 C764 1.376 . S
C764 H751 0.930 . S
C764 C763 1.376 . S
C764 C765 1.388 1_655 S
C765 H752 0.930 . S
C765 C764 1.388 1_455 S
C765 C766 1.390 . S
C766 C765 1.390 . S
C766 C767 1.394 1_455 S
C766 C772 1.465 . S
C767 C762 1.399 . S
C767 C766 1.394 1_655 S
C767 C768 1.529 . S
C768 C767 1.529 . S
C768 C769 1.518 . S
C768 C770 1.545 1_655 S
C768 C771 1.512 1_655 S
C769 H753 0.959 . S
C769 H754 0.959 . S
C769 H755 0.961 . S
C769 C768 1.518 . S
C770 H756 0.960 . S
C770 H757 0.961 . S
C770 H758 0.959 . S
C770 C768 1.545 1_455 S
C771 C768 1.512 1_455 S
C771 C772 1.396 . S
C771 C776 1.390 . S
C772 C766 1.465 . S
C772 C771 1.396 . S
C772 C773 1.399 . S
C773 H759 0.929 . S
C773 C772 1.399 . S
C773 C774 1.385 . S
C774 H760 0.931 . S
C774 C773 1.385 . S
C774 C775 1.389 . S
C775 C774 1.389 . S
C775 C776 1.387 . S
C776 H761 0.930 . S
C776 C771 1.390 . S
C776 C775 1.387 . S
H777 C789 0.930 1_565 S
H778 C791 0.930 . S
H779 C792 0.930 . S
H780 C796 0.959 . S
H781 C796 0.959 . S
H782 C796 0.961 . S
H783 C797 0.960 . S
H784 C797 0.961 . S
H785 C797 0.959 . S
H786 C800 0.929 . S
H787 C801 0.931 . S
H788 C803 0.930 . S
C789 H777 0.930 1_545 S
C789 C790 1.399 . S
C789 C794 1.399 . S
C790 C789 1.399 . S
C790 C791 1.376 . S
C791 H778 0.930 . S
C791 C790 1.376 . S
C791 C792 1.388 . S
C792 H779 0.930 . S
C792 C791 1.388 . S
C792 C793 1.390 . S
C793 C792 1.390 . S
C793 C794 1.394 . S
C793 C799 1.465 . S
C794 C789 1.399 . S
C794 C793 1.394 . S
C794 C795 1.516 1_545 S
C795 C794 1.516 1_565 S
C795 C796 1.502 . S
C795 C797 1.561 1_565 S
C795 C798 1.526 . S
C796 H780 0.959 . S
C796 H781 0.959 . S
C796 H782 0.961 . S
C796 C795 1.502 . S
C797 H783 0.960 . S
C797 H784 0.961 . S
C797 H785 0.959 . S
C797 C795 1.561 1_545 S
C798 C795 1.526 . S
C798 C799 1.396 1_565 S
C798 C803 1.390 . S
C799 C793 1.465 . S
C799 C798 1.396 1_545 S
C799 C800 1.399 . S
C800 H786 0.929 . S
C800 C799 1.399 . S
C800 C801 1.385 . S
C801 H787 0.931 . S
C801 C800 1.385 . S
C801 C802 1.389 1_545 S
C802 C801 1.389 1_565 S
C802 C803 1.387 . S
C803 H788 0.930 . S
C803 C798 1.390 . S
C803 C802 1.387 . S
C169 C5 1.415 . S
C181 C122 1.415 . S
C196 C16 1.412 . S
C208 C133 1.381 . S
C223 C31 1.424 . S
C235 C148 1.398 . S
C250 C42 1.406 . S
C262 C83 1.421 . S
C277 C96 1.391 . S
C289 C57 1.388 . S
C304 C109 1.380 . S
C316 C68 1.410 . S
C331 C134 1.623 . S
C343 C10 1.593 . S
C358 C17 1.624 . S
C370 C153 1.595 . S
C385 C36 1.614 . S
C397 C88 1.606 . S
C412 C43 1.625 . S
C424 C101 1.592 . S
C439 C62 1.602 . S
C451 C114 1.617 . S
C466 C69 1.623 . S
C478 C127 1.593 . S
C493 C121 1.064 . S
C505 C4 1.082 . S
C520 C23 1.126 . S
C532 C140 1.120 . S
C547 C30 1.103 . S
C559 C147 1.133 . S
C574 C82 1.132 . S
C586 C49 1.108 . S
C601 C56 1.069 . S
C613 C95 1.074 . S
C628 C108 1.135 . S
C640 C75 1.099 . S
C655 C3 1.610 . S
C667 C44 1.610 . S
C682 C55 1.596 . S
C694 C18 1.596 . S
C709 C29 1.595 . S
C721 C70 1.596 . S
C736 C81 1.609 . S
C748 C120 1.609 . S
C763 C94 1.593 . S
C775 C135 1.594 . S
C790 C146 1.609 . S
C802 C107 1.609 . S
