# Generated by pormake.
# Topology wif, (6)-cn, num edge types: 1
# Building blocks:
#     Node 0, Type 0, BuildingBlock: IZENUY_clean_sbu_0, # of connection points: 6
#     Node 1, Type 0, BuildingBlock: IZENUY_clean_sbu_0, # of connection points: 6
#     Node 2, Type 0, BuildingBlock: IZENUY_clean_sbu_0, # of connection points: 6
#     Node 3, Type 0, BuildingBlock: IZENUY_clean_sbu_0, # of connection points: 6
#     Node 4, Type 0, BuildingBlock: IZENUY_clean_sbu_0, # of connection points: 6
#     Node 5, Type 0, BuildingBlock: IZENUY_clean_sbu_0, # of connection points: 6
#     Node 6, Type 0, BuildingBlock: IZENUY_clean_sbu_0, # of connection points: 6
#     Node 7, Type 0, BuildingBlock: IZENUY_clean_sbu_0, # of connection points: 6
#     Node 8, Type 0, BuildingBlock: IZENUY_clean_sbu_0, # of connection points: 6
#     Node 9, Type 0, BuildingBlock: IZENUY_clean_sbu_0, # of connection points: 6
#     Node 10, Type 0, BuildingBlock: IZENUY_clean_sbu_0, # of connection points: 6
#     Node 11, Type 0, BuildingBlock: IZENUY_clean_sbu_0, # of connection points: 6
#     Node 12, Type 0, BuildingBlock: IZENUY_clean_sbu_0, # of connection points: 6
#     Node 13, Type 0, BuildingBlock: IZENUY_clean_sbu_0, # of connection points: 6
#     Node 14, Type 0, BuildingBlock: IZENUY_clean_sbu_0, # of connection points: 6
#     Node 15, Type 0, BuildingBlock: IZENUY_clean_sbu_0, # of connection points: 6
#     Edge 16, Type (0, 0), BuildingBlock: XIVTED_clean_linker_0, # of connection points: 2
#     Edge 17, Type (0, 0), BuildingBlock: XIVTED_clean_linker_0, # of connection points: 2
#     Edge 18, Type (0, 0), BuildingBlock: XIVTED_clean_linker_0, # of connection points: 2
#     Edge 19, Type (0, 0), BuildingBlock: XIVTED_clean_linker_0, # of connection points: 2
#     Edge 20, Type (0, 0), BuildingBlock: XIVTED_clean_linker_0, # of connection points: 2
#     Edge 21, Type (0, 0), BuildingBlock: XIVTED_clean_linker_0, # of connection points: 2
#     Edge 22, Type (0, 0), BuildingBlock: XIVTED_clean_linker_0, # of connection points: 2
#     Edge 23, Type (0, 0), BuildingBlock: XIVTED_clean_linker_0, # of connection points: 2
#     Edge 24, Type (0, 0), BuildingBlock: XIVTED_clean_linker_0, # of connection points: 2
#     Edge 25, Type (0, 0), BuildingBlock: XIVTED_clean_linker_0, # of connection points: 2
#     Edge 26, Type (0, 0), BuildingBlock: XIVTED_clean_linker_0, # of connection points: 2
#     Edge 27, Type (0, 0), BuildingBlock: XIVTED_clean_linker_0, # of connection points: 2
#     Edge 28, Type (0, 0), BuildingBlock: XIVTED_clean_linker_0, # of connection points: 2
#     Edge 29, Type (0, 0), BuildingBlock: XIVTED_clean_linker_0, # of connection points: 2
#     Edge 30, Type (0, 0), BuildingBlock: XIVTED_clean_linker_0, # of connection points: 2
#     Edge 31, Type (0, 0), BuildingBlock: XIVTED_clean_linker_0, # of connection points: 2
#     Edge 32, Type (0, 0), BuildingBlock: XIVTED_clean_linker_0, # of connection points: 2
#     Edge 33, Type (0, 0), BuildingBlock: XIVTED_clean_linker_0, # of connection points: 2
#     Edge 34, Type (0, 0), BuildingBlock: XIVTED_clean_linker_0, # of connection points: 2
#     Edge 35, Type (0, 0), BuildingBlock: XIVTED_clean_linker_0, # of connection points: 2
#     Edge 36, Type (0, 0), BuildingBlock: XIVTED_clean_linker_0, # of connection points: 2
#     Edge 37, Type (0, 0), BuildingBlock: XIVTED_clean_linker_0, # of connection points: 2
#     Edge 38, Type (0, 0), BuildingBlock: XIVTED_clean_linker_0, # of connection points: 2
#     Edge 39, Type (0, 0), BuildingBlock: XIVTED_clean_linker_0, # of connection points: 2
#     Edge 40, Type (0, 0), BuildingBlock: XIVTED_clean_linker_0, # of connection points: 2
#     Edge 41, Type (0, 0), BuildingBlock: XIVTED_clean_linker_0, # of connection points: 2
#     Edge 42, Type (0, 0), BuildingBlock: XIVTED_clean_linker_0, # of connection points: 2
#     Edge 43, Type (0, 0), BuildingBlock: XIVTED_clean_linker_0, # of connection points: 2
#     Edge 44, Type (0, 0), BuildingBlock: XIVTED_clean_linker_0, # of connection points: 2
#     Edge 45, Type (0, 0), BuildingBlock: XIVTED_clean_linker_0, # of connection points: 2
#     Edge 46, Type (0, 0), BuildingBlock: XIVTED_clean_linker_0, # of connection points: 2
#     Edge 47, Type (0, 0), BuildingBlock: XIVTED_clean_linker_0, # of connection points: 2
#     Edge 48, Type (0, 0), BuildingBlock: XIVTED_clean_linker_0, # of connection points: 2
#     Edge 49, Type (0, 0), BuildingBlock: XIVTED_clean_linker_0, # of connection points: 2
#     Edge 50, Type (0, 0), BuildingBlock: XIVTED_clean_linker_0, # of connection points: 2
#     Edge 51, Type (0, 0), BuildingBlock: XIVTED_clean_linker_0, # of connection points: 2
#     Edge 52, Type (0, 0), BuildingBlock: XIVTED_clean_linker_0, # of connection points: 2
#     Edge 53, Type (0, 0), BuildingBlock: XIVTED_clean_linker_0, # of connection points: 2
#     Edge 54, Type (0, 0), BuildingBlock: XIVTED_clean_linker_0, # of connection points: 2
#     Edge 55, Type (0, 0), BuildingBlock: XIVTED_clean_linker_0, # of connection points: 2
#     Edge 56, Type (0, 0), BuildingBlock: XIVTED_clean_linker_0, # of connection points: 2
#     Edge 57, Type (0, 0), BuildingBlock: XIVTED_clean_linker_0, # of connection points: 2
#     Edge 58, Type (0, 0), BuildingBlock: XIVTED_clean_linker_0, # of connection points: 2
#     Edge 59, Type (0, 0), BuildingBlock: XIVTED_clean_linker_0, # of connection points: 2
#     Edge 60, Type (0, 0), BuildingBlock: XIVTED_clean_linker_0, # of connection points: 2
#     Edge 61, Type (0, 0), BuildingBlock: XIVTED_clean_linker_0, # of connection points: 2
#     Edge 62, Type (0, 0), BuildingBlock: XIVTED_clean_linker_0, # of connection points: 2
#     Edge 63, Type (0, 0), BuildingBlock: XIVTED_clean_linker_0, # of connection points: 2
# Relax obj value: 0.830
# Max RMSD: 0.280
# Mean RMSD: 0.279
data_MOF--net-wif--node1-IZENUY_clean_sbu_0--edge1-XIVTED_clean_linker_0
_symmetry_space_group_name_H-M    P1
_symmetry_Int_Tables_number       1
_symmetry_cell_setting            triclinic
loop_
_symmetry_equiv_pos_as_xyz
'x, y, z'
_cell_length_a     34.462582
_cell_length_b     34.447881
_cell_length_c     29.120934
_cell_angle_alpha  90.031505
_cell_angle_beta   89.991537
_cell_angle_gamma 90.101283
loop_
_atom_site_label
_atom_site_type_symbol
_atom_site_fract_x
_atom_site_fract_y
_atom_site_fract_z
_atom_type_partial_charge
Fe0 Fe 0.26135 0.06672 0.11805 0.0
Fe1 Fe 0.29626 0.01685 0.03996 0.0
O2 O 0.29015 0.06269 0.06777 0.0
Fe3 Fe 0.31409 0.1043 0.04593 0.0
O4 O 0.3403 0.11187 0.09857 0.0
O5 O 0.29091 0.105 0.1454 0.0
O6 O 0.29165 0.03228 0.1476 0.0
C7 C 0.299 0.9982 0.13463 0.0
C8 C 0.24118 0.13462 0.07706 0.0
O9 O 0.29332 0.98793 0.09332 0.0
C10 C 0.29935 0.07243 0.9647 0.0
O11 O 0.22701 0.0284 0.10072 0.0
O12 O 0.24382 1.01055 0.03064 0.0
O13 O 0.27582 0.13844 0.06312 0.0
O14 O 0.22925 0.10244 0.09242 0.0
C15 C 0.37063 0.04484 0.03709 0.0
O16 O 0.30358 0.03819 0.98092 0.0
O17 O 0.28935 0.09902 0.99168 0.0
C18 C 0.21994 1.00954 0.06414 0.0
O19 O 0.34798 0.01815 0.04948 0.0
O20 O 0.3577 0.07801 0.02616 0.0
C21 C 0.32546 0.11574 0.13772 0.0
Fe22 Fe 0.01461 0.73009 0.97666 0.0
Fe23 Fe 0.06466 0.76564 0.89927 0.0
O24 O 0.06055 0.7367 0.94936 0.0
Fe25 Fe 0.1022 0.71323 0.97153 0.0
O26 O 0.07615 0.66929 0.991 0.0
O27 O 0.01639 0.67845 0.96713 0.0
O28 O 0.98605 0.73269 0.92287 0.0
C29 C 0.9968 0.72708 0.88169 0.0
C30 C 0.0697 0.72734 0.05245 0.0
O31 O 0.03092 0.73486 0.86925 0.0
C32 C 0.13183 0.78671 0.94108 0.0
O33 O 1.00798 0.78237 0.98615 0.0
O34 O 0.02582 0.79943 0.9162 0.0
O35 O 0.09635 0.73785 0.02579 0.0
O36 O 0.03557 0.72306 0.03588 0.0
C37 C 0.11432 0.7021 0.87979 0.0
O38 O 0.09962 0.7982 0.92559 0.0
O39 O 0.13604 0.75201 0.95469 0.0
C40 C 1.0069 0.80628 0.95277 0.0
O41 O 0.10352 0.73666 0.87226 0.0
O42 O 0.11031 0.68714 0.91886 0.0
C43 C 0.04306 0.6561 0.98001 0.0
Fe44 Fe 0.76613 0.96231 0.11381 0.0
Fe45 Fe 0.73021 1.01359 0.03753 0.0
O46 O 0.73629 0.9674 0.06447 0.0
Fe47 Fe 0.71114 0.92644 0.04275 0.0
O48 O 0.68566 0.91922 0.09597 0.0
O49 O 0.73611 0.92451 0.14156 0.0
O50 O 0.73732 0.99713 0.1448 0.0
C51 C 0.72984 0.03134 0.13253 0.0
C52 C 0.78379 0.89412 0.07157 0.0
O53 O 0.73446 0.04195 0.09118 0.0
C54 C 0.72525 0.95866 0.96163 0.0
O55 O 0.80095 1.00018 0.09585 0.0
O56 O 0.78242 0.01938 0.02687 0.0
O57 O 0.74879 0.89132 0.05872 0.0
O58 O 0.79689 0.92592 0.08686 0.0
C59 C 0.65543 0.98675 0.03576 0.0
O60 O 0.72178 0.99282 0.97842 0.0
O61 O 0.73517 0.93163 0.98804 0.0
C62 C 0.80711 0.01969 0.05949 0.0
O63 O 0.67861 1.01292 0.04833 0.0
O64 O 0.6678 0.95359 0.02403 0.0
C65 C 0.70105 0.91493 0.13478 0.0
Fe66 Fe 1.01103 0.29717 0.97453 0.0
Fe67 Fe 0.96044 0.26276 0.89658 0.0
O68 O 0.96511 0.29159 0.94678 0.0
Fe69 Fe 0.92398 0.31611 0.96868 0.0
O70 O 0.95097 0.3592 0.98878 0.0
O71 O 1.01054 0.34891 0.96511 0.0
O72 O 0.03982 0.29395 0.92112 0.0
C73 C 0.02957 0.29937 0.87977 0.0
C74 C 0.95543 0.30068 0.04978 0.0
O75 O 0.99537 0.29245 0.86693 0.0
C76 C 0.89237 0.2437 0.93791 0.0
O77 O 0.01661 0.24472 0.98376 0.0
O78 O 0.99814 0.2279 0.91385 0.0
O79 O 0.92882 0.29098 0.02268 0.0
O80 O 0.98976 0.3046 0.03364 0.0
C81 C 0.91279 0.32776 0.87694 0.0
O82 O 0.92418 0.23119 0.92229 0.0
O83 O 0.8892 0.2785 0.95139 0.0
C84 C 0.01706 0.22079 0.95032 0.0
O85 O 0.9227 0.29294 0.86936 0.0
O86 O 0.91698 0.3426 0.91609 0.0
C87 C 0.98429 0.37179 0.97791 0.0
Fe88 Fe 0.31268 0.42397 0.21428 0.0
Fe89 Fe 0.25758 0.4635 0.14616 0.0
O90 O 0.28838 0.4663 0.19494 0.0
Fe91 Fe 0.29616 0.51158 0.22356 0.0
O92 O 0.34764 0.5098 0.21193 0.0
O93 O 0.35708 0.44935 0.23293 0.0
O94 O 0.33687 0.41722 0.15985 0.0
C95 C 0.32035 0.41486 0.1214 0.0
C96 C 0.30082 0.45456 0.29722 0.0
O97 O 0.28562 0.42584 0.11625 0.0
C98 C 0.21907 0.52007 0.20335 0.0
O99 O 0.2735 0.39056 0.19808 0.0
O100 O 0.22614 0.42735 0.17245 0.0
O101 O 0.30462 0.48906 0.2816 0.0
O102 O 0.2902 0.42817 0.27013 0.0
C103 C 0.29573 0.53199 0.12932 0.0
O104 O 0.22435 0.50159 0.16618 0.0
O105 O 0.24423 0.51856 0.23542 0.0
C106 C 0.23839 0.39482 0.18628 0.0
O107 O 0.28702 0.49835 0.11588 0.0
O108 O 0.29214 0.54153 0.17117 0.0
C109 C 0.37017 0.48267 0.22301 0.0
Fe110 Fe 0.45694 0.77227 0.86796 0.0
Fe111 Fe 0.42148 0.71622 0.79779 0.0
O112 O 0.46216 0.74189 0.81918 0.0
Fe113 Fe 0.50839 0.73574 0.79262 0.0
O114 O 0.53647 0.74139 0.8462 0.0
O115 O 0.49141 0.74361 0.89954 0.0
O116 O 0.41883 0.7428 0.89607 0.0
C117 C 0.40919 0.70766 0.88988 0.0
C118 C 0.51388 0.81279 0.81276 0.0
O119 O 0.41397 0.69166 0.85151 0.0
C120 C 0.45395 0.72906 0.71649 0.0
O121 O 0.42113 0.80269 0.83999 0.0
O122 O 0.38635 0.75431 0.81269 0.0
O123 O 0.51353 0.78776 0.78047 0.0
O124 O 0.49491 0.80671 0.84953 0.0
C125 C 0.48205 0.66083 0.79418 0.0
O126 O 0.42678 0.73925 0.7425 0.0
O127 O 0.48796 0.72569 0.73367 0.0
C128 C 0.38936 0.78955 0.82487 0.0
O129 O 0.44914 0.67254 0.78054 0.0
O130 O 0.50801 0.68463 0.80542 0.0
C131 C 0.52564 0.7362 0.88737 0.0
Fe132 Fe 0.70969 0.60228 0.21499 0.0
Fe133 Fe 0.75897 0.56124 0.14195 0.0
O134 O 0.73306 0.5599 0.19461 0.0
Fe135 Fe 0.72902 0.51545 0.22596 0.0
O136 O 0.67689 0.5154 0.21961 0.0
O137 O 0.66706 0.5765 0.23826 0.0
O138 O 0.6814 0.60765 0.16327 0.0
C139 C 0.69472 0.60982 0.12319 0.0
C140 C 0.72736 0.57426 0.29748 0.0
O141 O 0.72861 0.59817 0.11422 0.0
C142 C 0.80397 0.50814 0.19727 0.0
O143 O 0.74746 0.63547 0.19394 0.0
O144 O 0.79238 0.5985 0.16231 0.0
O145 O 0.72379 0.53926 0.28367 0.0
O146 O 0.73615 0.59974 0.26846 0.0
C147 C 0.7198 0.49219 0.13425 0.0
O148 O 0.79427 0.52393 0.15952 0.0
O149 O 0.78189 0.51087 0.23233 0.0
C150 C 0.78128 0.63113 0.17751 0.0
O151 O 0.72636 0.52532 0.11759 0.0
O152 O 0.73029 0.48396 0.17475 0.0
C153 C 0.65428 0.5426 0.23044 0.0
Fe154 Fe 0.54989 0.26011 0.86718 0.0
Fe155 Fe 0.60193 0.31749 0.81518 0.0
O156 O 0.55646 0.2937 0.82145 0.0
Fe157 Fe 0.51734 0.30524 0.78383 0.0
O158 O 0.48741 0.3214 0.83175 0.0
O159 O 0.49938 0.27281 0.87832 0.0
O160 O 0.56247 0.29649 0.91029 0.0
C161 C 0.59395 0.315 0.91108 0.0
C162 C 0.50439 0.22366 0.80472 0.0
O163 O 0.61514 0.31683 0.87597 0.0
C164 C 0.57727 0.30936 0.72183 0.0
O165 O 0.60015 0.24179 0.86459 0.0
O166 O 0.62664 0.27164 0.80554 0.0
O167 O 0.49493 0.25597 0.78645 0.0
O168 O 0.53526 0.22151 0.82817 0.0
C169 C 0.55152 0.37811 0.80205 0.0
O170 O 0.59816 0.32341 0.7533 0.0
O171 O 0.54518 0.29263 0.7316 0.0
C172 C 0.62749 0.24507 0.8355 0.0
O173 O 0.57974 0.36487 0.82499 0.0
O174 O 0.53129 0.35605 0.77686 0.0
C175 C 0.48037 0.30286 0.86816 0.0
Fe176 Fe 0.79652 0.51606 0.53901 0.0
Fe177 Fe 0.81514 0.60333 0.54541 0.0
O178 O 0.79017 0.562 0.56646 0.0
Fe179 Fe 0.76019 0.56641 0.6158 0.0
O180 O 0.7894 0.53171 0.64645 0.0
O181 O 0.79234 0.48732 0.59229 0.0
O182 O 0.84808 0.51693 0.54989 0.0
C183 C 0.87118 0.54335 0.5379 0.0
C184 C 0.71977 0.5092 0.56078 0.0
O185 O 0.85877 0.57663 0.52677 0.0
C186 C 0.74194 0.63459 0.5742 0.0
O187 O 0.80489 0.5372 0.48027 0.0
O188 O 0.79171 0.59845 0.49021 0.0
O189 O 0.72585 0.52829 0.59746 0.0
O190 O 0.7444 0.51016 0.52813 0.0
C191 C 0.82456 0.61433 0.63774 0.0
O192 O 0.77697 0.6379 0.56149 0.0
O193 O 0.72914 0.60255 0.58904 0.0
C194 C 0.80163 0.57142 0.46371 0.0
O195 O 0.84024 0.6104 0.59901 0.0
O196 O 0.78956 0.60439 0.64407 0.0
C197 C 0.79715 0.49766 0.6337 0.0
Fe198 Fe 0.51717 0.23183 0.47435 0.0
Fe199 Fe 0.56645 0.26706 0.39585 0.0
O200 O 0.56276 0.23802 0.446 0.0
Fe201 Fe 0.60446 0.21385 0.46706 0.0
O202 O 0.57825 0.17032 0.48703 0.0
O203 O 0.51819 0.18006 0.46474 0.0
O204 O 0.48781 0.23486 0.42143 0.0
C205 C 0.49766 0.22951 0.37994 0.0
C206 C 0.57346 0.22823 0.54889 0.0
O207 O 0.53161 0.23694 0.36655 0.0
C208 C 0.63471 0.28687 0.43613 0.0
O209 O 0.51107 0.2842 0.48395 0.0
O210 O 0.52848 0.30138 0.41384 0.0
O211 O 0.59993 0.23827 0.52169 0.0
O212 O 0.53903 0.22456 0.53303 0.0
C213 C 0.61484 0.20293 0.37489 0.0
O214 O 0.60253 0.29901 0.4212 0.0
O215 O 0.63849 0.25213 0.44962 0.0
C216 C 0.50996 0.30823 0.45066 0.0
O217 O 0.6043 0.23761 0.36782 0.0
O218 O 0.61131 0.18782 0.41398 0.0
C219 C 0.54491 0.15743 0.47684 0.0
Fe220 Fe 0.26636 0.46321 0.61832 0.0
Fe221 Fe 0.23033 0.51327 0.54119 0.0
O222 O 0.23678 0.46737 0.56869 0.0
Fe223 Fe 0.21238 0.42584 0.54726 0.0
O224 O 0.18701 0.41824 0.60052 0.0
O225 O 0.23719 0.42498 0.6462 0.0
O226 O 0.23661 0.49771 0.64868 0.0
C227 C 0.229 0.53178 0.6359 0.0
C228 C 0.2857 0.39534 0.57657 0.0
O229 O 0.23413 0.54209 0.59453 0.0
C230 C 0.22577 0.45784 0.4658 0.0
O231 O 0.30052 0.50143 0.60033 0.0
O232 O 0.28257 0.51951 0.53074 0.0
O233 O 0.25084 0.39162 0.56343 0.0
O234 O 0.29796 0.42744 0.59186 0.0
C235 C 0.15588 0.48544 0.53965 0.0
O236 O 0.22214 0.49208 0.48227 0.0
O237 O 0.23619 0.43114 0.4924 0.0
C238 C 0.30704 0.52023 0.56361 0.0
O239 O 0.17874 0.51205 0.55176 0.0
O240 O 0.16856 0.45223 0.52854 0.0
C241 C 0.2025 0.41432 0.63932 0.0
Fe242 Fe 0.51251 0.79972 0.47546 0.0
Fe243 Fe 0.46276 0.76407 0.39775 0.0
O244 O 0.46664 0.79293 0.44803 0.0
Fe245 Fe 0.42486 0.81627 0.47019 0.0
O246 O 0.45069 0.86022 0.48987 0.0
O247 O 0.51053 0.85143 0.4661 0.0
O248 O 0.54122 0.79725 0.42191 0.0
C249 C 0.53067 0.80285 0.38072 0.0
C250 C 0.45737 0.80213 0.55117 0.0
O251 O 0.49666 0.79493 0.36799 0.0
C252 C 0.39534 0.74289 0.43912 0.0
O253 O 0.51936 0.74749 0.48477 0.0
O254 O 0.50157 0.73027 0.4148 0.0
O255 O 0.43067 0.7917 0.5245 0.0
O256 O 0.49146 0.80651 0.53458 0.0
C257 C 0.41302 0.82754 0.37836 0.0
O258 O 0.42759 0.73142 0.42362 0.0
O259 O 0.39116 0.77747 0.45315 0.0
C260 C 0.52052 0.72358 0.45138 0.0
O261 O 0.42403 0.79308 0.37065 0.0
O262 O 0.41677 0.84239 0.41755 0.0
C263 C 0.48368 0.87363 0.47891 0.0
Fe264 Fe 0.76591 0.96411 0.64546 0.0
Fe265 Fe 0.79953 1.01208 0.72603 0.0
O266 O 0.79364 0.96683 0.69673 0.0
Fe267 Fe 0.81689 0.92463 0.71782 0.0
O268 O 0.84397 0.91791 0.66546 0.0
O269 O 0.79529 0.92595 0.618 0.0
O270 O 0.79765 0.99868 0.61799 0.0
C271 C 0.80617 0.03209 0.63252 0.0
C272 C 0.7441 0.89563 0.68411 0.0
O273 O 0.79845 0.04197 0.67346 0.0
C274 C 0.80073 0.95505 0.79965 0.0
O275 O 0.73175 1.00253 0.66263 0.0
O276 O 0.74702 0.01859 0.73379 0.0
O277 O 0.77846 0.89127 0.6988 0.0
O278 O 0.73277 0.92816 0.66911 0.0
C279 C 0.8736 0.98361 0.73013 0.0
O280 O 0.8051 0.98961 0.78455 0.0
O281 O 0.79138 0.92886 0.77172 0.0
C282 C 0.72394 0.02043 0.69964 0.0
O283 O 0.85132 1.01066 0.71829 0.0
O284 O 0.86042 0.95015 0.73939 0.0
C285 C 0.82958 0.91475 0.62596 0.0
Fe286 Fe 1.00913 0.22429 0.28071 0.0
Fe287 Fe 0.97412 0.2678 0.36436 0.0
O288 O 0.96893 0.23539 0.31697 0.0
Fe289 Fe 0.92354 0.21218 0.30787 0.0
O290 O 0.94499 0.16437 0.31729 0.0
O291 O 0.99538 0.1737 0.27215 0.0
O292 O 0.0378 0.2074 0.3295 0.0
C293 C 0.04367 0.22508 0.36684 0.0
C294 C 0.95098 0.22102 0.216 0.0
O295 O 0.02412 0.25468 0.37736 0.0
C296 C 0.89789 0.28438 0.32945 0.0
O297 O 0.03127 0.2735 0.28534 0.0
O298 O 0.99039 0.30728 0.32743 0.0
O299 O 0.92899 0.20717 0.24635 0.0
O300 O 0.98293 0.2374 0.22731 0.0
C301 C 0.92907 0.21066 0.40323 0.0
O302 O 0.92419 0.28652 0.35998 0.0
O303 O 0.8995 0.25851 0.29858 0.0
C304 C 0.02156 0.30541 0.30444 0.0
O305 O 0.95985 0.23033 0.40581 0.0
O306 O 0.90864 0.21193 0.36758 0.0
C307 C 0.97402 0.15138 0.29557 0.0
Fe308 Fe 0.26953 0.06419 0.64392 0.0
Fe309 Fe 0.23252 0.01675 0.72286 0.0
O310 O 0.23881 0.06157 0.69281 0.0
Fe311 Fe 0.21316 0.10355 0.71077 0.0
O312 O 0.18888 0.10831 0.65604 0.0
O313 O 0.24052 0.10049 0.61294 0.0
O314 O 0.24107 0.0279 0.61471 0.0
C315 C 0.23334 0.99434 0.62926 0.0
C316 C 0.28679 0.13408 0.68244 0.0
O317 O 0.23727 0.98584 0.67137 0.0
C318 C 0.22596 0.07527 0.79473 0.0
O319 O 0.30378 0.02742 0.66485 0.0
O320 O 0.28462 1.01167 0.73469 0.0
O321 O 0.25147 0.13771 0.69371 0.0
O322 O 0.29994 0.1017 0.66926 0.0
C323 C 0.15762 0.04318 0.72168 0.0
O324 O 0.22356 0.04029 0.78021 0.0
O325 O 0.23555 0.10142 0.76682 0.0
C326 C 0.30963 1.00988 0.7025 0.0
O327 O 0.18104 0.01659 0.71146 0.0
O328 O 0.16953 0.07723 0.73018 0.0
C329 C 0.20545 0.11049 0.6176 0.0
Fe330 Fe 0.10408 0.81368 0.29794 0.0
Fe331 Fe 0.0173 0.79383 0.29274 0.0
O332 O 0.06354 0.78779 0.31927 0.0
Fe333 Fe 0.06887 0.75725 0.36784 0.0
O334 O 0.10688 0.78673 0.39613 0.0
O335 O 0.11172 0.83799 0.35176 0.0
O336 O 0.07614 0.85736 0.28118 0.0
C337 C 0.04315 0.86876 0.29502 0.0
C338 C 0.13659 0.74041 0.32456 0.0
O339 O 0.01737 0.84474 0.3061 0.0
C340 C 1.01205 0.71681 0.31229 0.0
O341 O 0.0988 0.79082 0.24256 0.0
O342 O 0.03768 0.80445 0.23381 0.0
O343 O 0.10492 0.72707 0.33975 0.0
O344 O 0.13939 0.77566 0.31241 0.0
C345 C 0.99987 0.79277 0.38752 0.0
O346 O 1.01258 0.7419 0.2801 0.0
O347 O 0.03101 0.72275 0.34912 0.0
C348 C 0.07167 0.80109 0.2166 0.0
O349 O 0.98916 0.7877 0.34627 0.0
O350 O 0.0342 0.78565 0.39962 0.0
C351 C 0.11693 0.82175 0.38987 0.0
H352 H 0.1333 0.78955 0.15885 0.0
H353 H 0.2193 0.93535 0.02692 0.0
H354 H 0.04107 0.87058 0.18564 0.0
H355 H 0.15227 1.01131 0.11355 0.0
H356 H 0.17828 0.8807 0.05133 0.0
H357 H 0.16471 0.83762 0.1096 0.0
C358 C 0.11873 0.81689 0.15282 0.0
C359 C 0.08387 0.82533 0.176 0.0
C360 C 0.17225 0.90933 0.06483 0.0
C361 C 0.12089 0.88208 0.12029 0.0
C362 C 0.19532 0.94084 0.05006 0.0
C363 C 0.18944 0.97833 0.06802 0.0
C364 C 0.14284 0.91509 0.09793 0.0
C365 C 0.15809 0.98311 0.09866 0.0
C366 C 0.13694 0.84469 0.12474 0.0
C367 C 0.06737 0.86214 0.16797 0.0
N368 N 0.13634 0.95209 0.11272 0.0
N369 N 0.08637 0.88923 0.14182 0.0
H370 H 0.78906 0.88999 0.85223 0.0
H371 H 0.93235 0.80475 0.98824 0.0
H372 H 0.86726 0.98683 0.83722 0.0
H373 H 1.00867 0.87502 0.90554 0.0
H374 H 0.87749 0.84532 0.96381 0.0
H375 H 0.83635 0.8581 0.90208 0.0
C376 C 0.81551 0.90534 0.86091 0.0
C377 C 0.82354 0.94163 0.84076 0.0
C378 C 0.90627 0.85217 0.95131 0.0
C379 C 0.87928 0.90424 0.89709 0.0
C380 C 0.93785 0.82937 0.96605 0.0
C381 C 0.97548 0.83634 0.94911 0.0
C382 C 0.91218 0.88246 0.91942 0.0
C383 C 0.98034 0.86842 0.91961 0.0
C384 C 0.84282 0.88689 0.88933 0.0
C385 C 0.85918 0.95927 0.85233 0.0
N386 N 0.94927 0.88998 0.90565 0.0
N387 N 0.88591 0.94008 0.87861 0.0
H388 H 0.87994 0.01481 0.09704 0.0
H389 H 0.89003 0.23637 0.15939 0.0
H390 H 0.80225 0.09686 0.03422 0.0
H391 H 0.98936 0.16201 0.17309 0.0
H392 H 0.86004 0.18871 0.1078 0.0
H393 H 0.92217 0.06865 0.12061 0.0
C394 C 0.87231 0.04408 0.08694 0.0
C395 C 0.83759 0.05094 0.0628 0.0
C396 C 0.88903 0.18331 0.1206 0.0
C397 C 0.88543 0.11358 0.09177 0.0
C398 C 0.90668 0.21114 0.14928 0.0
C399 C 0.94314 0.20427 0.16954 0.0
C400 C 0.90715 0.14727 0.1132 0.0
C401 C 0.96193 0.16946 0.15728 0.0
C402 C 0.89641 0.07497 0.10071 0.0
C403 C 0.82899 0.08986 0.05184 0.0
N404 N 0.94344 0.14205 0.1311 0.0
N405 N 0.85219 0.11956 0.06712 0.0
H406 H 1.01057 0.14823 0.91319 0.0
H407 H 0.1653 0.0366 0.83708 0.0
H408 H 0.09489 0.22598 0.97204 0.0
H409 H 0.2283 0.14475 0.84186 0.0
H410 H 0.11512 0.06518 0.88593 0.0
H411 H 0.06312 0.10684 0.88558 0.0
C412 C 0.04019 0.15581 0.92193 0.0
C413 C 0.04799 0.19033 0.94609 0.0
C414 C 0.13998 0.08272 0.87666 0.0
C415 C 0.10938 0.14312 0.91303 0.0
C416 C 0.16927 0.06603 0.84935 0.0
C417 C 0.20142 0.08813 0.83484 0.0
C418 C 0.14252 0.12203 0.88996 0.0
C419 C 0.20416 0.12644 0.85182 0.0
C420 C 0.07045 0.13209 0.90593 0.0
C421 C 0.08725 0.1992 0.95476 0.0
N422 N 0.17514 0.14213 0.87796 0.0
N423 N 0.11632 0.17628 0.93754 0.0
H424 H 0.22612 0.59689 0.22899 0.0
H425 H 0.03501 0.66171 0.08901 0.0
H426 H 0.14545 0.51628 0.16819 0.0
H427 H 0.13585 0.7347 0.10462 0.0
H428 H 0.06638 0.61244 0.13716 0.0
H429 H 0.18469 0.6509 0.20332 0.0
C430 C 0.19894 0.59039 0.21193 0.0
C431 C 0.18916 0.5517 0.20139 0.0
C432 C 0.08125 0.63967 0.13105 0.0
C433 C 0.14173 0.61377 0.17086 0.0
C434 C 0.06306 0.66821 0.10395 0.0
C435 C 0.08248 0.70296 0.0927 0.0
C436 C 0.11906 0.64584 0.14794 0.0
C437 C 0.11939 0.70878 0.11258 0.0
C438 C 0.17555 0.62134 0.19659 0.0
C439 C 0.15406 0.54546 0.17764 0.0
N440 N 0.13644 0.68062 0.13877 0.0
N441 N 0.13188 0.57593 0.16311 0.0
H442 H 0.50935 0.88545 0.85057 0.0
H443 H 0.73347 0.89443 0.90665 0.0
H444 H 0.59071 0.80759 0.78662 0.0
H445 H 0.65825 0.99254 0.92806 0.0
H446 H 0.68353 0.8644 0.85827 0.0
H447 H 0.5635 0.92684 0.87503 0.0
C448 C 0.53855 0.87766 0.84035 0.0
C449 C 0.54516 0.84312 0.81574 0.0
C450 C 0.67822 0.89292 0.87257 0.0
C451 C 0.60806 0.8899 0.84568 0.0
C452 C 0.70704 0.91038 0.89988 0.0
C453 C 0.70063 0.94647 0.92136 0.0
C454 C 0.6419 0.91098 0.86739 0.0
C455 C 0.66506 0.96503 0.91201 0.0
C456 C 0.5696 0.90125 0.85469 0.0
C457 C 0.58394 0.83424 0.80462 0.0
N458 N 0.63692 0.94679 0.88673 0.0
N459 N 0.61379 0.85695 0.82036 0.0
H460 H 0.80609 0.43515 0.23693 0.0
H461 H 0.89148 0.28977 0.10411 0.0
H462 H 0.87116 0.51023 0.14705 0.0
H463 H 0.98674 0.36898 0.08387 0.0
H464 H 0.85948 0.33802 0.15256 0.0
H465 H 0.84783 0.38066 0.21382 0.0
C466 C 0.82987 0.44053 0.21345 0.0
C467 C 0.83503 0.47764 0.19417 0.0
C468 C 0.88798 0.34456 0.139 0.0
C469 C 0.88249 0.41471 0.16609 0.0
C470 C 0.90654 0.31667 0.11147 0.0
C471 C 0.94244 0.3246 0.09029 0.0
C472 C 0.90471 0.38156 0.14476 0.0
C473 C 0.95955 0.36095 0.09987 0.0
C474 C 0.85332 0.40913 0.1995 0.0
C475 C 0.86602 0.48231 0.16301 0.0
N476 N 0.94017 0.38823 0.12526 0.0
N477 N 0.88828 0.45142 0.14991 0.0
H478 H 0.28617 0.13446 0.90789 0.0
H479 H 0.4282 0.22366 0.77458 0.0
H480 H 0.36879 0.04305 0.93189 0.0
H481 H 0.50799 0.15516 0.85466 0.0
H482 H 0.37494 0.1826 0.8013 0.0
H483 H 0.33349 0.16736 0.85914 0.0
C484 C 0.3138 0.1205 0.90153 0.0
C485 C 0.32295 0.08549 0.92394 0.0
C486 C 0.404 0.1764 0.81323 0.0
C487 C 0.37874 0.12401 0.86828 0.0
C488 C 0.4348 0.19965 0.79725 0.0
C489 C 0.47314 0.19345 0.81241 0.0
C490 C 0.41108 0.14645 0.84512 0.0
C491 C 0.4792 0.1615 0.8419 0.0
C492 C 0.34116 0.13952 0.87362 0.0
C493 C 0.35989 0.06956 0.91501 0.0
N494 N 0.44869 0.13962 0.85744 0.0
N495 N 0.3865 0.08924 0.88888 0.0
H496 H 0.72678 0.43247 0.53498 0.0
H497 H 0.53757 0.36648 0.67762 0.0
H498 H 0.64687 0.51206 0.59854 0.0
H499 H 0.63997 0.2959 0.66634 0.0
H500 H 0.56737 0.41432 0.62598 0.0
H501 H 0.6859 0.37796 0.56087 0.0
C502 C 0.69989 0.43867 0.55276 0.0
C503 C 0.69016 0.47722 0.56399 0.0
C504 C 0.58281 0.3877 0.63342 0.0
C505 C 0.64324 0.41454 0.59444 0.0
C506 C 0.56537 0.35983 0.66217 0.0
C507 C 0.58574 0.32637 0.67571 0.0
C508 C 0.62096 0.38216 0.61741 0.0
C509 C 0.62268 0.32063 0.65607 0.0
C510 C 0.6768 0.40741 0.56813 0.0
C511 C 0.65543 0.48303 0.58857 0.0
N512 N 0.63916 0.34824 0.62843 0.0
N513 N 0.63347 0.45226 0.60297 0.0
H514 H 0.51508 0.38104 0.41365 0.0
H515 H 0.29169 0.38952 0.35107 0.0
H516 H 0.43259 0.30228 0.47423 0.0
H517 H 0.36788 0.48749 0.33195 0.0
H518 H 0.3409 0.35905 0.40011 0.0
H519 H 0.46137 0.42203 0.38747 0.0
C520 C 0.48568 0.37301 0.42283 0.0
C521 C 0.47866 0.33837 0.4471 0.0
C522 C 0.34658 0.3876 0.38609 0.0
C523 C 0.41626 0.38462 0.41501 0.0
C524 C 0.31823 0.40527 0.35831 0.0
C525 C 0.32513 0.44151 0.33737 0.0
C526 C 0.38288 0.40563 0.39234 0.0
C527 C 0.3607 0.45989 0.34756 0.0
C528 C 0.45488 0.39633 0.40746 0.0
C529 C 0.43965 0.32907 0.45667 0.0
N530 N 0.38832 0.44151 0.37335 0.0
N531 N 0.41008 0.35154 0.43995 0.0
H532 H 0.37961 0.51457 0.601 0.0
H533 H 0.39119 0.73879 0.6596 0.0
H534 H 0.30247 0.59752 0.53892 0.0
H535 H 0.48664 0.66099 0.68431 0.0
H536 H 0.36097 0.68952 0.61035 0.0
H537 H 0.42136 0.56799 0.62674 0.0
C538 C 0.37208 0.54399 0.59142 0.0
C539 C 0.33762 0.55124 0.56694 0.0
C540 C 0.38897 0.68347 0.62559 0.0
C541 C 0.38484 0.61334 0.59841 0.0
C542 C 0.40655 0.71189 0.65342 0.0
C543 C 0.44196 0.70459 0.676 0.0
C544 C 0.4062 0.64668 0.62092 0.0
C545 C 0.45974 0.66849 0.66733 0.0
C546 C 0.39586 0.57463 0.60652 0.0
C547 C 0.32905 0.59027 0.55673 0.0
N548 N 0.44139 0.64081 0.64144 0.0
N549 N 0.35199 0.61971 0.57316 0.0
H550 H 0.59737 0.73058 0.47636 0.0
H551 H 0.66328 0.5396 0.33709 0.0
H552 H 0.51714 0.65103 0.41284 0.0
H553 H 0.73468 0.64214 0.3471 0.0
H554 H 0.61422 0.57139 0.38504 0.0
H555 H 0.65155 0.68987 0.44949 0.0
C556 C 0.59099 0.7038 0.45836 0.0
C557 C 0.55237 0.69407 0.4475 0.0
C558 C 0.64103 0.5866 0.37767 0.0
C559 C 0.6146 0.64744 0.41587 0.0
C560 C 0.66946 0.56823 0.35068 0.0
C561 C 0.70357 0.58802 0.33774 0.0
C562 C 0.64674 0.62495 0.39296 0.0
C563 C 0.70907 0.62555 0.35608 0.0
C564 C 0.62204 0.68084 0.4424 0.0
C565 C 0.54626 0.65954 0.42257 0.0
N566 N 0.68102 0.64277 0.38236 0.0
N567 N 0.57682 0.63768 0.40763 0.0
H568 H 0.72832 0.09687 0.72773 0.0
H569 H 0.53968 0.1614 0.58303 0.0
H570 H 0.65248 0.01634 0.65865 0.0
H571 H 0.63869 0.23614 0.60295 0.0
H572 H 0.57145 0.11163 0.62995 0.0
H573 H 0.68678 0.1507 0.70161 0.0
C574 C 0.70215 0.09029 0.70862 0.0
C575 C 0.69374 0.05171 0.69601 0.0
C576 C 0.58585 0.13928 0.625 0.0
C577 C 0.64616 0.11359 0.66519 0.0
C578 C 0.56743 0.16809 0.59861 0.0
C579 C 0.5863 0.20345 0.58876 0.0
C580 C 0.6233 0.14578 0.64277 0.0
C581 C 0.6228 0.20958 0.60955 0.0
C582 C 0.67872 0.12116 0.69309 0.0
C583 C 0.65998 0.0454 0.66973 0.0
N584 N 0.64009 0.18114 0.63515 0.0
N585 N 0.63766 0.07579 0.65522 0.0
H586 H 0.15771 0.4904 0.43343 0.0
H587 H 0.09989 0.30167 0.28475 0.0
H588 H 0.23475 0.39398 0.41012 0.0
H589 H 0.01516 0.37752 0.34649 0.0
H590 H 0.15161 0.34369 0.31412 0.0
H591 H 0.10847 0.45814 0.38576 0.0
C592 C 0.16498 0.46317 0.41697 0.0
C593 C 0.20091 0.44517 0.4259 0.0
C594 C 0.12169 0.35151 0.32067 0.0
C595 C 0.14389 0.40757 0.37123 0.0
C596 C 0.09189 0.32763 0.30345 0.0
C597 C 0.05258 0.33567 0.31294 0.0
C598 C 0.1126 0.38426 0.34745 0.0
C599 C 0.04475 0.36985 0.33804 0.0
C600 C 0.13648 0.44444 0.39018 0.0
C601 C 0.2078 0.40927 0.40412 0.0
N602 N 0.0743 0.39257 0.35452 0.0
N603 N 0.1797 0.39171 0.37822 0.0
H604 H 0.49249 0.86746 0.58768 0.0
H605 H 0.30252 0.93337 0.72891 0.0
H606 H 0.39144 0.79486 0.60395 0.0
H607 H 0.38318 1.0134 0.66713 0.0
H608 H 0.34357 0.87909 0.70319 0.0
H609 H 0.46163 0.91683 0.63612 0.0
C610 C 0.46448 0.86108 0.60279 0.0
C611 C 0.4448 0.82645 0.59157 0.0
C612 C 0.35281 0.90858 0.69628 0.0
C613 C 0.40884 0.88369 0.6472 0.0
C614 C 0.32965 0.9397 0.71167 0.0
C615 C 0.33954 0.97829 0.70085 0.0
C616 C 0.3865 0.91591 0.67023 0.0
C617 C 0.37453 0.98431 0.67683 0.0
C618 C 0.44659 0.88967 0.63007 0.0
C619 C 0.408 0.82076 0.61175 0.0
N620 N 0.39648 0.95367 0.66225 0.0
N621 N 0.39123 0.84899 0.63813 0.0
H622 H 0.86755 0.53603 0.42997 0.0
H623 H 0.93574 0.72314 0.28474 0.0
H624 H 0.79479 0.63604 0.40853 0.0
H625 H 0.01469 0.6445 0.35148 0.0
H626 H 0.88107 0.68258 0.31068 0.0
H627 H 0.91777 0.56629 0.38221 0.0
C628 C 0.86137 0.56368 0.41389 0.0
C629 C 0.82647 0.58331 0.42353 0.0
C630 C 0.91042 0.6737 0.3187 0.0
C631 C 0.88469 0.6186 0.36872 0.0
C632 C 0.94178 0.69657 0.30327 0.0
C633 C 0.98017 0.68713 0.31538 0.0
C634 C 0.91731 0.64069 0.34605 0.0
C635 C 0.98577 0.65283 0.34086 0.0
C636 C 0.89045 0.58124 0.38702 0.0
C637 C 0.821 0.61962 0.40212 0.0
N638 N 0.9549 0.63111 0.35539 0.0
N639 N 0.84972 0.6361 0.37617 0.0
H640 H 0.19965 0.37884 0.10694 0.0
H641 H 0.20013 0.15041 0.15504 0.0
H642 H 0.23155 0.32842 0.23694 0.0
H643 H 0.23667 0.20166 0.02709 0.0
H644 H 0.18355 0.21531 0.18375 0.0
H645 H 0.18487 0.31364 0.07758 0.0
C646 C 0.20181 0.35426 0.12999 0.0
C647 C 0.21681 0.35899 0.17449 0.0
C648 C 0.19402 0.21211 0.14888 0.0
C649 C 0.20021 0.28454 0.14101 0.0
C650 C 0.20311 0.17508 0.13226 0.0
C651 C 0.21987 0.17067 0.08858 0.0
C652 C 0.20101 0.24479 0.12131 0.0
C653 C 0.22386 0.20382 0.06095 0.0
C654 C 0.19384 0.31707 0.113 0.0
C655 C 0.21999 0.32598 0.20248 0.0
N656 N 0.21482 0.23953 0.07788 0.0
N657 N 0.21212 0.2901 0.18517 0.0
H658 H 0.19858 0.7932 0.99115 0.0
H659 H 0.32243 0.79164 0.77467 0.0
H660 H 0.14707 0.82635 0.86216 0.0
H661 H 0.37273 0.83138 0.90183 0.0
H662 H 0.25789 0.80786 0.80439 0.0
H663 H 0.26255 0.8108 0.96064 0.0
C664 C 0.20063 0.80547 0.95698 0.0
C665 C 0.16753 0.80839 0.92919 0.0
C666 C 0.28315 0.81419 0.82524 0.0
C667 C 0.24062 0.82692 0.8934 0.0
C668 C 0.31995 0.80506 0.80821 0.0
C669 C 0.35293 0.81024 0.83577 0.0
C670 C 0.27923 0.82724 0.87074 0.0
C671 C 0.34808 0.82722 0.87929 0.0
C672 C 0.23712 0.81539 0.9395 0.0
C673 C 0.17183 0.82395 0.88488 0.0
N674 N 0.31183 0.83405 0.89598 0.0
N675 N 0.20783 0.83156 0.86785 0.0
H676 H 0.81574 0.64769 0.09535 0.0
H677 H 0.82437 0.8755 0.14903 0.0
H678 H 0.79132 0.69716 0.22818 0.0
H679 H 0.78645 0.82806 0.01958 0.0
H680 H 0.83856 0.8095 0.17594 0.0
H681 H 0.83116 0.7129 0.06638 0.0
C682 C 0.81525 0.67201 0.11895 0.0
C683 C 0.80232 0.66701 0.16431 0.0
C684 C 0.82827 0.81371 0.14116 0.0
C685 C 0.81966 0.74156 0.1313 0.0
C686 C 0.82061 0.85139 0.12554 0.0
C687 C 0.80419 0.85727 0.08195 0.0
C688 C 0.82011 0.78178 0.1127 0.0
C689 C 0.79908 0.82478 0.0534 0.0
C690 C 0.82359 0.70924 0.10222 0.0
C691 C 0.80126 0.69976 0.19303 0.0
N692 N 0.80667 0.78842 0.06938 0.0
N693 N 0.80949 0.73565 0.176 0.0
H694 H 0.82844 0.23548 0.99209 0.0
H695 H 0.69255 0.23999 0.78076 0.0
H696 H 0.87248 0.20886 0.85725 0.0
H697 H 0.64947 0.20878 0.91499 0.0
H698 H 0.75837 0.22409 0.80638 0.0
H699 H 0.76271 0.22084 0.96519 0.0
C700 C 0.82435 0.22518 0.95726 0.0
C701 C 0.85589 0.2231 0.92695 0.0
C702 C 0.73435 0.21983 0.82983 0.0
C703 C 0.78065 0.20814 0.89521 0.0
C704 C 0.69673 0.22891 0.81521 0.0
C705 C 0.66535 0.22629 0.84588 0.0
C706 C 0.74075 0.2089 0.87572 0.0
C707 C 0.67265 0.21158 0.89012 0.0
C708 C 0.78683 0.21704 0.94177 0.0
C709 C 0.84897 0.21033 0.88186 0.0
N710 N 0.70961 0.20438 0.90402 0.0
N711 N 0.81197 0.20432 0.86698 0.0
H712 H 0.70685 0.88001 0.60348 0.0
H713 H 0.70147 0.65158 0.65219 0.0
H714 H 0.73609 0.82891 0.734 0.0
H715 H 0.73845 0.70136 0.52364 0.0
H716 H 0.6868 0.717 0.68071 0.0
H717 H 0.69114 0.81511 0.57382 0.0
C718 C 0.70833 0.85538 0.62652 0.0
C719 C 0.72276 0.85983 0.67134 0.0
C720 C 0.69694 0.71341 0.64576 0.0
C721 C 0.70502 0.78568 0.63752 0.0
C722 C 0.70489 0.67608 0.62923 0.0
C723 C 0.72121 0.67105 0.58543 0.0
C724 C 0.70468 0.74582 0.61798 0.0
C725 C 0.7259 0.704 0.55758 0.0
C726 C 0.6998 0.81834 0.60938 0.0
C727 C 0.72501 0.82672 0.6993 0.0
N728 N 0.718 0.74002 0.57443 0.0
N729 N 0.71657 0.791 0.68186 0.0
H730 H 0.83209 0.28648 0.27538 0.0
H731 H 0.6994 0.2974 0.48856 0.0
H732 H 0.8766 0.32485 0.4064 0.0
H733 H 0.65286 0.31955 0.35382 0.0
H734 H 0.7645 0.31202 0.45952 0.0
H735 H 0.76644 0.30282 0.30128 0.0
C736 C 0.82828 0.2992 0.30911 0.0
C737 C 0.86002 0.30352 0.33899 0.0
C738 C 0.73995 0.31486 0.43656 0.0
C739 C 0.78483 0.32149 0.36915 0.0
C740 C 0.7028 0.30674 0.45326 0.0
C741 C 0.67076 0.3076 0.42366 0.0
C742 C 0.74526 0.32242 0.38952 0.0
C743 C 0.67678 0.3191 0.37791 0.0
C744 C 0.79074 0.30852 0.32389 0.0
C745 C 0.85313 0.32043 0.38226 0.0
N746 N 0.71345 0.32503 0.36189 0.0
N747 N 0.81628 0.32783 0.39642 0.0
H748 H 0.32616 0.15071 0.60372 0.0
H749 H 0.32629 0.37875 0.65451 0.0
H750 H 0.29234 0.20038 0.73352 0.0
H751 H 0.29042 0.3289 0.52549 0.0
H752 H 0.34219 0.31349 0.68252 0.0
H753 H 0.34143 0.21609 0.57529 0.0
C754 C 0.32362 0.17517 0.62692 0.0
C755 C 0.308 0.1702 0.67108 0.0
C756 C 0.33205 0.31707 0.64757 0.0
C757 C 0.32525 0.2448 0.63872 0.0
C758 C 0.32337 0.3543 0.63135 0.0
C759 C 0.30698 0.3592 0.58757 0.0
C760 C 0.32501 0.28469 0.61949 0.0
C761 C 0.30299 0.32634 0.55943 0.0
C762 C 0.33191 0.21245 0.61048 0.0
C763 C 0.30437 0.20303 0.6993 0.0
N764 N 0.31161 0.29042 0.57598 0.0
N765 N 0.31261 0.239 0.68254 0.0
H766 H 0.20323 0.73866 0.27372 0.0
H767 H 0.32886 0.73577 0.48955 0.0
H768 H 0.15403 0.69869 0.40133 0.0
H769 H 0.37952 0.70452 0.35938 0.0
H770 H 0.26468 0.71866 0.45928 0.0
H771 H 0.26806 0.72273 0.30272 0.0
C772 C 0.206 0.72526 0.30721 0.0
C773 C 0.17323 0.71989 0.33509 0.0
C774 C 0.28997 0.71437 0.43779 0.0
C775 C 0.24731 0.70323 0.36926 0.0
C776 C 0.32659 0.72399 0.45514 0.0
C777 C 0.35954 0.7214 0.42702 0.0
C778 C 0.28614 0.70348 0.39149 0.0
C779 C 0.35491 0.70657 0.38238 0.0
C780 C 0.24299 0.7163 0.32384 0.0
C781 C 0.17849 0.70296 0.37854 0.0
N782 N 0.31877 0.69922 0.36554 0.0
N783 N 0.21491 0.69627 0.39482 0.0
H784 H 0.32465 0.92305 0.12159 0.0
H785 H 0.37933 0.8986 0.38717 0.0
H786 H 0.30513 1.00918 0.22691 0.0
H787 H 0.40228 0.80905 0.28694 0.0
H788 H 0.34925 0.93755 0.32788 0.0
H789 H 0.35037 0.87898 0.18055 0.0
C790 C 0.32552 0.9326 0.15701 0.0
C791 C 0.31282 0.96995 0.16923 0.0
C792 C 0.36072 0.90936 0.31863 0.0
C793 C 0.34216 0.9199 0.23652 0.0
C794 C 0.37799 0.887 0.35262 0.0
C795 C 0.39354 0.85045 0.34209 0.0
C796 C 0.35897 0.8954 0.27338 0.0
C797 C 0.3907 0.83708 0.29658 0.0
C798 C 0.34025 0.90749 0.19058 0.0
C799 C 0.31469 0.98081 0.21564 0.0
N800 N 0.37387 0.85966 0.26376 0.0
N801 N 0.32913 0.95601 0.24737 0.0
H802 H 0.80316 0.62744 0.72788 0.0
H803 H 1.01003 0.71934 0.79009 0.0
H804 H 0.89801 0.64328 0.63269 0.0
H805 H 0.92082 0.70244 0.89243 0.0
H806 H 0.96671 0.69397 0.73209 0.0
H807 H 0.84317 0.65687 0.78858 0.0
C808 C 0.83224 0.63719 0.71967 0.0
C809 C 0.84721 0.63281 0.67506 0.0
C810 C 0.95634 0.6958 0.76713 0.0
C811 C 0.89291 0.66636 0.74411 0.0
C812 C 0.98118 0.71039 0.80048 0.0
C813 C 0.96916 0.713 0.84643 0.0
C814 C 0.91895 0.68341 0.7794 0.0
C815 C 0.93129 0.70094 0.85743 0.0
C816 C 0.85502 0.65393 0.75432 0.0
C817 C 0.88509 0.64592 0.66644 0.0
N818 N 0.90749 0.68649 0.82411 0.0
N819 N 0.90649 0.66197 0.70054 0.0
H820 H 0.72683 0.01997 0.22495 0.0
H821 H 0.6266 0.22329 0.28433 0.0
H822 H 0.7022 0.10594 0.12108 0.0
H823 H 0.64647 0.13067 0.38141 0.0
H824 H 0.6573 0.18369 0.22436 0.0
H825 H 0.70127 0.06334 0.28297 0.0
C826 C 0.71617 0.04811 0.21426 0.0
C827 C 0.71653 0.05919 0.16789 0.0
C828 C 0.65497 0.17221 0.25887 0.0
C829 C 0.68673 0.10931 0.23476 0.0
C830 C 0.63749 0.19477 0.2931 0.0
C831 C 0.63386 0.18029 0.33801 0.0
C832 C 0.66897 0.13506 0.26977 0.0
C833 C 0.64847 0.14313 0.34737 0.0
C834 C 0.70147 0.07295 0.24757 0.0
C835 C 0.70246 0.0962 0.15642 0.0
N836 N 0.66528 0.12192 0.31362 0.0
N837 N 0.68789 0.11994 0.18966 0.0
H838 H 0.01997 0.30028 0.78713 0.0
H839 H 0.2222 0.40404 0.73036 0.0
H840 H 0.10361 0.32821 0.89261 0.0
H841 H 0.13159 0.37996 0.63182 0.0
H842 H 0.18256 0.3729 0.79011 0.0
H843 H 0.06412 0.32526 0.72965 0.0
C844 C 0.04776 0.3116 0.79829 0.0
C845 C 0.05794 0.31237 0.84492 0.0
C846 C 0.17158 0.37439 0.75532 0.0
C847 C 0.10897 0.3415 0.77868 0.0
C848 C 0.19414 0.3921 0.72123 0.0
C849 C 0.18016 0.39477 0.67602 0.0
C850 C 0.13495 0.3592 0.74391 0.0
C851 C 0.14361 0.37882 0.66614 0.0
C852 C 0.07306 0.32593 0.76528 0.0
C853 C 0.09458 0.32712 0.85703 0.0
N854 N 0.12239 0.36186 0.69974 0.0
N855 N 0.11877 0.3414 0.82406 0.0
H856 H 0.39758 0.72751 0.98094 0.0
H857 H 0.2987 0.52235 0.03666 0.0
H858 H 0.37691 0.63585 0.88261 0.0
H859 H 0.32334 0.60657 0.14273 0.0
H860 H 0.32355 0.56705 0.97974 0.0
H861 H 0.36726 0.68699 0.04065 0.0
C862 C 0.38655 0.69907 0.97184 0.0
C863 C 0.38994 0.68506 0.92668 0.0
C864 C 0.32352 0.57602 0.01538 0.0
C865 C 0.35537 0.63884 0.99448 0.0
C866 C 0.30923 0.55039 0.04808 0.0
C867 C 0.30903 0.56057 0.09474 0.0
C868 C 0.33806 0.61232 0.02906 0.0
C869 C 0.32299 0.5975 0.10714 0.0
C870 C 0.36933 0.67599 1.0059 0.0
C871 C 0.37519 0.64797 0.91685 0.0
N872 N 0.33716 0.62206 0.07445 0.0
N873 N 0.3587 0.62631 0.95037 0.0
H874 H 0.71407 0.62305 0.03292 0.0
H875 H 0.51398 0.73118 0.97965 0.0
H876 H 0.62242 0.64124 0.13181 0.0
H877 H 0.59933 0.7072 0.87479 0.0
H878 H 0.5563 0.70201 0.03646 0.0
H879 H 0.67491 0.65647 0.97498 0.0
C880 C 0.68576 0.63402 0.04247 0.0
C881 C 0.67152 0.62931 0.08734 0.0
C882 C 0.56597 0.70319 1.0011 0.0
C883 C 0.62681 0.66765 0.02137 0.0
C884 C 0.5418 0.71998 0.96854 0.0
C885 C 0.55304 0.72153 0.92226 0.0
C886 C 0.60175 0.6876 0.98751 0.0
C887 C 0.58954 0.70664 0.91011 0.0
C888 C 0.66349 0.65313 0.0094 0.0
C889 C 0.63467 0.64415 0.09775 0.0
N890 N 0.61258 0.69006 0.94257 0.0
N891 N 0.61368 0.66261 0.06505 0.0
H892 H 0.55553 0.36827 0.96307 0.0
H893 H 0.73103 0.41341 0.13321 0.0
H894 H 0.66404 0.30693 0.9523 0.0
H895 H 0.66234 0.50428 0.07207 0.0
H896 H 0.6968 0.36558 0.08496 0.0
H897 H 0.58428 0.4098 0.02309 0.0
C898 C 0.58498 0.36287 0.9744 0.0
C899 C 0.60756 0.33429 0.95313 0.0
C900 C 0.6892 0.39601 0.08249 0.0
C901 C 0.64026 0.38107 0.02113 0.0
C902 C 0.70864 0.42319 0.10983 0.0
C903 C 0.69976 0.46278 0.10601 0.0
C904 C 0.65994 0.40851 0.05244 0.0
C905 C 0.67041 0.47405 0.07542 0.0
C906 C 0.60141 0.38668 0.00813 0.0
C907 C 0.64582 0.32875 0.96815 0.0
N908 N 0.65135 0.447 0.04996 0.0
N909 N 0.66105 0.35195 1.00136 0.0
H910 H 0.43142 0.36596 0.86074 0.0
H911 H 0.38088 0.36421 0.1258 0.0
H912 H 0.46273 0.27204 0.9517 0.0
H913 H 0.30715 0.42396 0.02919 0.0
H914 H 0.41588 0.33498 0.06176 0.0
H915 H 0.38888 0.39197 0.92114 0.0
C916 C 0.42902 0.35056 0.89304 0.0
C917 C 0.45089 0.31688 0.90119 0.0
C918 C 0.3919 0.35431 0.05453 0.0
C919 C 0.40308 0.34677 0.97024 0.0
C920 C 0.37205 0.37116 0.09106 0.0
C921 C 0.34105 0.39648 0.08274 0.0
C922 C 0.38122 0.36336 0.00927 0.0
C923 C 0.33077 0.40436 0.037 0.0
C924 C 0.4048 0.36542 0.9274 0.0
C925 C 0.44667 0.29817 0.94377 0.0
N926 N 0.35109 0.38812 1.00182 0.0
N927 N 0.42368 0.31361 0.97678 0.0
H928 H 0.82258 0.42248 0.621 0.0
H929 H 0.8824 0.40036 0.88514 0.0
H930 H 0.80375 0.50916 0.72588 0.0
H931 H 0.89953 0.30842 0.78629 0.0
H932 H 0.85202 0.43933 0.82606 0.0
H933 H 0.84904 0.37888 0.67989 0.0
C934 C 0.82372 0.43224 0.65633 0.0
C935 C 0.81102 0.46961 0.66844 0.0
C936 C 0.86227 0.41061 0.81709 0.0
C937 C 0.8413 0.42011 0.73564 0.0
C938 C 0.87973 0.38825 0.85094 0.0
C939 C 0.89365 0.35098 0.84073 0.0
C940 C 0.85869 0.3959 0.77233 0.0
C941 C 0.88922 0.337 0.79568 0.0
C942 C 0.83888 0.40739 0.68986 0.0
C943 C 0.81327 0.48075 0.71473 0.0
N944 N 0.8722 0.35956 0.763 0.0
N945 N 0.82819 0.45621 0.74643 0.0
H946 H 0.39579 0.15082 0.12816 0.0
H947 H 0.42307 0.20266 0.39404 0.0
H948 H 0.3078 0.12538 0.22949 0.0
H949 H 0.5072 0.22536 0.28735 0.0
H950 H 0.37841 0.17719 0.33546 0.0
H951 H 0.43494 0.18114 0.18715 0.0
C952 C 0.38459 0.15164 0.16291 0.0
C953 C 0.34844 0.13532 0.17386 0.0
C954 C 0.4066 0.18797 0.32505 0.0
C955 C 0.39361 0.17017 0.2422 0.0
C956 C 0.43205 0.20255 0.35839 0.0
C957 C 0.46902 0.216 0.34565 0.0
C958 C 0.41833 0.18698 0.27884 0.0
C959 C 0.47915 0.21513 0.29899 0.0
C960 C 0.40706 0.16907 0.19672 0.0
C961 C 0.33553 0.13756 0.21956 0.0
N962 N 0.45405 0.20081 0.26749 0.0
N963 N 0.35823 0.15453 0.25223 0.0
H964 H 0.14763 0.63086 0.88847 0.0
H965 H 0.20341 0.60693 0.62316 0.0
H966 H 0.12573 0.72084 0.78856 0.0
H967 H 0.22294 0.52068 0.72821 0.0
H968 H 0.17759 0.65088 0.68218 0.0
H969 H 0.17794 0.59197 0.82924 0.0
C970 C 0.14925 0.64257 0.854 0.0
C971 C 0.13393 0.67923 0.84354 0.0
C972 C 0.18774 0.62238 0.69216 0.0
C973 C 0.16879 0.63434 0.7749 0.0
C974 C 0.20254 0.59732 0.65855 0.0
C975 C 0.21527 0.55997 0.67067 0.0
C976 C 0.18576 0.6099 0.73805 0.0
C977 C 0.21337 0.54906 0.71704 0.0
C978 C 0.16666 0.62024 0.82005 0.0
C979 C 0.13713 0.69272 0.79815 0.0
N980 N 0.19885 0.5738 0.74882 0.0
N981 N 0.15409 0.67017 0.76536 0.0
H982 H 0.62749 0.88663 0.12826 0.0
H983 H 0.60699 0.82569 0.39236 0.0
H984 H 0.72132 0.90115 0.22516 0.0
H985 H 0.51765 0.81298 0.28936 0.0
H986 H 0.65071 0.85158 0.33301 0.0
H987 H 0.5883 0.85783 0.18817 0.0
C988 C 0.64 0.88369 0.16221 0.0
C989 C 0.67787 0.89643 0.17159 0.0
C990 C 0.62156 0.84294 0.32359 0.0
C991 C 0.6326 0.86327 0.24108 0.0
C992 C 0.59663 0.82815 0.35738 0.0
C993 C 0.55854 0.81717 0.34591 0.0
C994 C 0.60818 0.84671 0.27821 0.0
C995 C 0.54666 0.82105 0.30005 0.0
C996 C 0.61747 0.86715 0.19658 0.0
C997 C 0.69227 0.89171 0.2164 0.0
N998 N 0.5713 0.8355 0.26812 0.0
N999 N 0.66954 0.87557 0.24964 0.0
H1000 H 0.93905 0.21744 0.49791 0.0
H1001 H 0.81673 0.02286 0.54074 0.0
H1002 H 0.88807 0.14509 0.39289 0.0
H1003 H 0.83924 0.10367 0.65107 0.0
H1004 H 0.85005 0.0657 0.48813 0.0
H1005 H 0.9101 0.17436 0.55682 0.0
C1006 C 0.92212 0.19247 0.48733 0.0
C1007 C 0.91554 0.18502 0.44057 0.0
C1008 C 0.84767 0.07439 0.52376 0.0
C1009 C 0.88287 0.13611 0.50689 0.0
C1010 C 0.8285 0.04982 0.55397 0.0
C1011 C 0.82482 0.05975 0.60044 0.0
C1012 C 0.86359 0.10943 0.53976 0.0
C1013 C 0.84106 0.09509 0.61538 0.0
C1014 C 0.90547 0.16814 0.52078 0.0
C1015 C 0.89343 0.15236 0.42852 0.0
N1016 N 0.85984 0.11877 0.58506 0.0
N1017 N 0.878 0.12932 0.46131 0.0
H1018 H 0.05935 0.25494 0.45143 0.0
H1019 H 0.22001 0.10164 0.52549 0.0
H1020 H 0.09354 0.16243 0.35977 0.0
H1021 H 0.143 0.15894 0.62067 0.0
H1022 H 0.18372 0.13071 0.46141 0.0
H1023 H 0.10108 0.22796 0.51045 0.0
C1024 C 0.07592 0.22912 0.4434 0.0
C1025 C 0.07261 0.21077 0.40047 0.0
C1026 C 0.17494 0.13683 0.49638 0.0
C1027 C 0.12064 0.17969 0.46853 0.0
C1028 C 0.19564 0.12046 0.53289 0.0
C1029 C 0.18446 0.1279 0.57845 0.0
C1030 C 0.14347 0.16139 0.5057 0.0
C1031 C 0.15254 0.15226 0.58614 0.0
C1032 C 0.09962 0.21364 0.47736 0.0
C1033 C 0.09508 0.17744 0.39238 0.0
N1034 N 0.13337 0.1683 0.55017 0.0
N1035 N 0.11817 0.16284 0.42622 0.0
H1036 H 0.15769 0.88862 0.37918 0.0
H1037 H 0.20213 0.92179 0.64572 0.0
H1038 H 0.124 0.80512 0.48239 0.0
H1039 H 0.23538 0.99945 0.53613 0.0
H1040 H 0.17679 0.8761 0.58807 0.0
H1041 H 0.18959 0.92692 0.43765 0.0
C1042 C 0.15699 0.87825 0.41429 0.0
C1043 C 0.1378 0.84369 0.4259 0.0
C1044 C 0.18993 0.90304 0.57684 0.0
C1045 C 0.17451 0.88795 0.49374 0.0
C1046 C 0.20446 0.92906 0.60965 0.0
C1047 C 0.22065 0.96464 0.59576 0.0
C1048 C 0.19179 0.91279 0.53003 0.0
C1049 C 0.22287 0.9726 0.54861 0.0
C1050 C 0.17539 0.90021 0.44781 0.0
C1051 C 0.13839 0.83165 0.472 0.0
N1052 N 0.20849 0.94703 0.51765 0.0
N1053 N 0.15623 0.85397 0.50445 0.0
H1054 H 1.01117 0.79667 0.47995 0.0
H1055 H 0.80967 0.90178 0.53559 0.0
H1056 H 0.92574 0.82097 0.37537 0.0
H1057 H 0.90155 0.88262 0.63385 0.0
H1058 H 0.84894 0.86916 0.47687 0.0
H1059 H 0.96819 0.82412 0.53729 0.0
C1060 C 0.9832 0.8076 0.469 0.0
C1061 C 0.97215 0.80662 0.42264 0.0
C1062 C 0.86035 0.87208 0.51134 0.0
C1063 C 0.9226 0.83861 0.48858 0.0
C1064 C 0.83799 0.89069 0.54486 0.0
C1065 C 0.85233 0.89502 0.58975 0.0
C1066 C 0.89718 0.85766 0.52292 0.0
C1067 C 0.88922 0.88007 0.59979 0.0
C1068 C 0.95862 0.82339 0.50188 0.0
C1069 C 0.93542 0.82111 0.41073 0.0
N1070 N 0.91026 0.86215 0.5667 0.0
N1071 N 0.91197 0.83675 0.44352 0.0
H1072 H 0.62073 0.05794 0.04272 0.0
H1073 H 0.40561 0.97371 0.03915 0.0
H1074 H 0.59485 0.93678 0.01967 0.0
H1075 H 0.43103 0.09587 0.02449 0.0
H1076 H 0.47482 0.95967 0.03477 0.0
H1077 H 0.55151 0.07245 0.03884 0.0
C1078 C 0.60052 0.03436 0.03673 0.0
C1079 C 0.61365 0.996 0.03175 0.0
C1080 C 0.46528 0.98952 0.03223 0.0
C1081 C 0.53427 1.01252 0.02752 0.0
C1082 C 0.42574 0.99763 0.03489 0.0
C1083 C 0.41246 0.0361 0.03241 0.0
C1084 C 0.49193 0.0201 0.02763 0.0
C1085 C 0.43995 0.06581 0.0266 0.0
C1086 C 0.56099 0.04274 0.03436 0.0
C1087 C 0.58607 0.96673 0.0238 0.0
N1088 N 0.47844 0.05721 0.02479 0.0
N1089 N 0.54765 0.97557 0.02229 0.0
H1090 H 0.97192 0.62115 0.97885 0.0
H1091 H 0.05565 0.40644 0.97291 0.0
H1092 H 0.09405 0.59591 0.9929 0.0
H1093 H 0.93446 0.43201 0.99528 0.0
H1094 H 0.07041 0.47554 0.97862 0.0
H1095 H 0.95774 0.55197 0.98336 0.0
C1096 C 0.99581 0.60105 0.98301 0.0
C1097 C 0.03432 0.61434 0.98515 0.0
C1098 C 0.04064 0.46602 0.98259 0.0
C1099 C 0.01816 0.53494 0.99012 0.0
C1100 C 0.03212 0.42656 0.97915 0.0
C1101 C 0.99367 0.41342 0.9833 0.0
C1102 C 1.01048 0.49264 0.98968 0.0
C1103 C 0.96447 0.44085 0.99169 0.0
C1104 C 0.98763 0.56154 0.98577 0.0
C1105 C 0.06398 0.58693 0.99097 0.0
N1106 N 0.97345 0.47922 0.99422 0.0
N1107 N 0.0553 0.54844 0.99282 0.0
H1108 H 0.42895 0.43136 0.24128 0.0
H1109 H 0.5948 0.59434 0.24276 0.0
H1110 H 0.40688 0.55304 0.21708 0.0
H1111 H 0.61825 0.47174 0.22923 0.0
H1112 H 0.52531 0.57982 0.24527 0.0
H1113 H 0.4982 0.44596 0.24829 0.0
C1114 C 0.43861 0.46113 0.23752 0.0
C1115 C 0.41207 0.49096 0.22821 0.0
C1116 C 0.54574 0.55613 0.24194 0.0
C1117 C 0.49116 0.50785 0.23652 0.0
C1118 C 0.58539 0.56437 0.24067 0.0
C1119 C 0.6124 0.53425 0.23542 0.0
C1120 C 0.53302 0.51748 0.2383 0.0
C1121 C 0.5985 0.49593 0.23296 0.0
C1122 C 0.47813 0.46942 0.2415 0.0
C1123 C 0.42628 0.52905 0.22393 0.0
N1124 N 0.55978 0.48866 0.23433 0.0
N1125 N 0.46484 0.53638 0.2281 0.0
H1126 H 0.58982 0.4379 0.84613 0.0
H1127 H 0.44045 0.59997 0.75771 0.0
H1128 H 0.49233 0.41411 0.75714 0.0
H1129 H 0.54549 0.62641 0.83244 0.0
H1130 H 0.45762 0.53107 0.7601 0.0
H1131 H 0.57279 0.50698 0.84444 0.0
C1132 C 0.56496 0.44714 0.82621 0.0
C1133 C 0.54262 0.42013 0.80164 0.0
C1134 C 0.47692 0.552 0.77592 0.0
C1135 C 0.52284 0.49889 0.79974 0.0
C1136 C 0.46706 0.59131 0.77462 0.0
C1137 C 0.49159 0.619 0.79475 0.0
C1138 C 0.51141 0.54033 0.79775 0.0
C1139 C 0.52579 0.60611 0.81616 0.0
C1140 C 0.55523 0.48654 0.82524 0.0
C1141 C 0.51056 0.43379 0.77654 0.0
N1142 N 0.53463 0.56775 0.81716 0.0
N1143 N 0.50166 0.47211 0.7763 0.0
H1144 H 0.12092 0.55655 0.54411 0.0
H1145 H 0.90592 0.47212 0.54302 0.0
H1146 H 0.09554 0.43476 0.52523 0.0
H1147 H 0.93173 0.59377 0.5238 0.0
H1148 H 0.97515 0.45781 0.5394 0.0
H1149 H 0.05173 0.5707 0.53962 0.0
C1150 C 0.10081 0.53274 0.53893 0.0
C1151 C 0.11408 0.49432 0.53529 0.0
C1152 C 0.96566 0.4876 0.53571 0.0
C1153 C 0.03469 0.51044 0.53034 0.0
C1154 C 0.92612 0.49586 0.53793 0.0
C1155 C 0.91297 0.53429 0.53396 0.0
C1156 C 0.99237 0.518 0.53003 0.0
C1157 C 0.94054 0.56375 0.52713 0.0
C1158 C 0.06129 0.54091 0.53619 0.0
C1159 C 0.08662 0.46476 0.52831 0.0
N1160 N 0.97898 0.55502 0.52575 0.0
N1161 N 0.04817 0.47341 0.52642 0.0
H1162 H 0.59567 0.09815 0.49471 0.0
H1163 H 0.43209 0.9329 0.49391 0.0
H1164 H 0.47412 0.12152 0.47158 0.0
H1165 H 0.55426 0.90977 0.47563 0.0
H1166 H 0.44679 1.00241 0.49836 0.0
H1167 H 0.58055 0.02891 0.50038 0.0
C1168 C 0.56581 0.08877 0.491 0.0
C1169 C 0.53618 0.11565 0.48223 0.0
C1170 C 0.47033 0.98202 0.49351 0.0
C1171 C 0.51871 0.03659 0.48893 0.0
C1172 C 0.46198 0.94239 0.49108 0.0
C1173 C 0.49194 0.91552 0.48397 0.0
C1174 C 0.50891 0.99476 0.48927 0.0
C1175 C 0.53018 0.92945 0.4807 0.0
C1176 C 0.55722 0.04927 0.49417 0.0
C1177 C 0.49796 0.10183 0.47797 0.0
N1178 N 0.53755 0.96809 0.48333 0.0
N1179 N 0.49034 0.06325 0.48131 0.0
H1180 H 0.12313 0.97167 0.71556 0.0
H1181 H 0.90836 0.05475 0.73295 0.0
H1182 H 0.09735 0.09251 0.74068 0.0
H1183 H 0.93407 0.93219 0.73831 0.0
H1184 H 0.97753 0.06892 0.73544 0.0
H1185 H 0.05425 0.95645 0.72305 0.0
C1186 C 0.10302 0.99504 0.72273 0.0
C1187 C 0.11606 0.03353 0.72717 0.0
C1188 C 0.96811 0.03892 0.73642 0.0
C1189 C 0.0371 0.01618 0.7357 0.0
C1190 C 0.92857 0.03076 0.73488 0.0
C1191 C 0.9154 0.99216 0.73511 0.0
C1192 C 0.99486 1.00831 0.73765 0.0
C1193 C 0.94297 0.96234 0.738 0.0
C1194 C 0.0637 0.98625 0.72717 0.0
C1195 C 0.08863 0.06249 0.73672 0.0
N1196 N 0.98148 0.97104 0.73871 0.0
N1197 N 0.05042 0.05324 0.74036 0.0
H1198 H 0.03276 0.11585 0.24937 0.0
H1199 H 0.97968 0.90223 0.33422 0.0
H1200 H 0.93659 0.09123 0.3401 0.0
H1201 H 0.08319 0.93014 0.25727 0.0
H1202 H 0.96204 0.97063 0.33442 0.0
H1203 H 0.04967 0.04756 0.24943 0.0
C1204 C 0.01502 0.09607 0.2693 0.0
C1205 C 0.98307 0.10943 0.29482 0.0
C1206 C 0.98861 0.96186 0.31752 0.0
C1207 C 1.00265 0.0307 0.29497 0.0
C1208 C 0.99872 0.92276 0.31723 0.0
C1209 C 0.03297 0.91039 0.29548 0.0
C1210 C 1.01277 0.98893 0.29576 0.0
C1211 C 0.05659 0.93837 0.27447 0.0
C1212 C 0.02486 0.05697 0.26934 0.0
C1213 C 0.96137 0.08225 0.31988 0.0
N1214 N 0.04596 0.97636 0.27501 0.0
N1215 N 0.97157 0.04409 0.31931 0.0
loop_
_geom_bond_atom_site_label_1
_geom_bond_atom_site_label_2
_geom_bond_distance
_geom_bond_site_symmetry_2
_ccdc_geom_bond_type
Fe0 O2 1.918 . S
Fe0 O5 1.997 . S
Fe0 O6 2.022 . S
Fe0 O11 1.976 . S
Fe0 O14 1.996 . S
Fe1 O2 1.918 . S
Fe1 O9 1.997 1_545 S
Fe1 O12 1.993 1_545 S
Fe1 O16 1.976 1_554 S
Fe1 O19 2.002 1_545 S
O2 Fe0 1.918 . S
O2 Fe1 1.918 . S
O2 Fe3 1.918 . S
Fe3 O2 1.918 . S
Fe3 O4 2.002 . S
Fe3 O13 1.976 . S
Fe3 O17 1.996 1_554 S
Fe3 O20 1.997 . S
O4 Fe3 2.002 . S
O4 C21 1.295 . S
O5 Fe0 1.997 . S
O5 C21 1.235 . S
O6 Fe0 2.022 . S
O6 C7 1.278 1_545 S
C7 O6 1.278 1_565 S
C7 O9 1.235 . S
C8 O13 1.287 . S
C8 O14 1.255 . S
O9 Fe1 1.997 1_565 S
O9 C7 1.235 . S
C10 O16 1.287 . S
C10 O17 1.255 . S
O11 Fe0 1.976 . S
O11 C18 1.287 . S
O12 Fe1 1.993 1_565 S
O12 C18 1.243 1_565 S
O13 Fe3 1.976 . S
O13 C8 1.287 . S
O14 Fe0 1.996 . S
O14 C8 1.255 . S
C15 O19 1.295 1_545 S
C15 O20 1.235 . S
O16 Fe1 1.976 1_556 S
O16 C10 1.287 . S
O17 Fe3 1.996 1_556 S
O17 C10 1.255 . S
C18 O11 1.287 . S
C18 O12 1.243 1_545 S
O19 Fe1 2.002 1_565 S
O19 C15 1.295 1_565 S
O20 Fe3 1.997 . S
O20 C15 1.235 . S
C21 O4 1.295 . S
C21 O5 1.235 . S
Fe22 O24 1.918 . S
Fe22 O27 1.997 . S
Fe22 O28 2.002 1_455 S
Fe22 O33 1.976 . S
Fe22 O36 1.996 1_556 S
Fe23 O24 1.918 . S
Fe23 O31 1.997 1_455 S
Fe23 O34 1.996 . S
Fe23 O38 1.976 . S
Fe23 O41 2.002 . S
O24 Fe22 1.918 . S
O24 Fe23 1.918 . S
O24 Fe25 1.918 . S
Fe25 O24 1.918 . S
Fe25 O26 2.002 . S
Fe25 O35 1.976 1_556 S
Fe25 O39 1.996 . S
Fe25 O42 1.997 . S
O26 Fe25 2.002 . S
O26 C43 1.295 . S
O27 Fe22 1.997 . S
O27 C43 1.235 . S
O28 Fe22 2.002 1_655 S
O28 C29 1.295 . S
C29 O28 1.295 . S
C29 O31 1.235 . S
C30 O35 1.287 . S
C30 O36 1.255 . S
O31 Fe23 1.997 1_655 S
O31 C29 1.235 . S
C32 O38 1.287 . S
C32 O39 1.255 . S
O33 Fe22 1.976 . S
O33 C40 1.287 . S
O34 Fe23 1.996 . S
O34 C40 1.255 . S
O35 Fe25 1.976 1_554 S
O35 C30 1.287 . S
O36 Fe22 1.996 1_554 S
O36 C30 1.255 . S
C37 O41 1.295 . S
C37 O42 1.235 . S
O38 Fe23 1.976 . S
O38 C32 1.287 . S
O39 Fe25 1.996 . S
O39 C32 1.255 . S
C40 O33 1.287 . S
C40 O34 1.255 . S
O41 Fe23 2.002 . S
O41 C37 1.295 . S
O42 Fe25 1.997 . S
O42 C37 1.235 . S
C43 O26 1.295 . S
C43 O27 1.235 . S
Fe44 O46 1.918 . S
Fe44 O49 1.997 . S
Fe44 O50 2.022 . S
Fe44 O55 1.976 . S
Fe44 O58 1.996 . S
Fe45 O46 1.918 . S
Fe45 O53 1.997 1_565 S
Fe45 O56 1.993 1_565 S
Fe45 O60 1.976 1_554 S
Fe45 O63 2.002 1_565 S
O46 Fe44 1.918 . S
O46 Fe45 1.918 . S
O46 Fe47 1.918 . S
Fe47 O46 1.918 . S
Fe47 O48 2.002 . S
Fe47 O57 1.976 . S
Fe47 O61 1.996 1_554 S
Fe47 O64 1.997 . S
O48 Fe47 2.002 . S
O48 C65 1.295 . S
O49 Fe44 1.997 . S
O49 C65 1.235 . S
O50 Fe44 2.022 . S
O50 C51 1.278 1_565 S
C51 O50 1.278 1_545 S
C51 O53 1.235 . S
C52 O57 1.287 . S
C52 O58 1.255 . S
O53 Fe45 1.997 1_545 S
O53 C51 1.235 . S
C54 O60 1.287 . S
C54 O61 1.255 . S
O55 Fe44 1.976 . S
O55 C62 1.287 . S
O56 Fe45 1.993 1_545 S
O56 C62 1.243 1_545 S
O57 Fe47 1.976 . S
O57 C52 1.287 . S
O58 Fe44 1.996 . S
O58 C52 1.255 . S
C59 O63 1.295 1_565 S
C59 O64 1.235 . S
O60 Fe45 1.976 1_556 S
O60 C54 1.287 . S
O61 Fe47 1.996 1_556 S
O61 C54 1.255 . S
C62 O55 1.287 . S
C62 O56 1.243 1_565 S
O63 Fe45 2.002 1_545 S
O63 C59 1.295 1_545 S
O64 Fe47 1.997 . S
O64 C59 1.235 . S
C65 O48 1.295 . S
C65 O49 1.235 . S
Fe66 O68 1.918 . S
Fe66 O71 1.997 . S
Fe66 O72 2.002 1_655 S
Fe66 O77 1.976 . S
Fe66 O80 1.996 1_556 S
Fe67 O68 1.918 . S
Fe67 O75 1.997 1_655 S
Fe67 O78 1.996 . S
Fe67 O82 1.976 . S
Fe67 O85 2.002 . S
O68 Fe66 1.918 . S
O68 Fe67 1.918 . S
O68 Fe69 1.918 . S
Fe69 O68 1.918 . S
Fe69 O70 2.002 . S
Fe69 O79 1.976 1_556 S
Fe69 O83 1.996 . S
Fe69 O86 1.997 . S
O70 Fe69 2.002 . S
O70 C87 1.295 . S
O71 Fe66 1.997 . S
O71 C87 1.235 . S
O72 Fe66 2.002 1_455 S
O72 C73 1.295 . S
C73 O72 1.295 . S
C73 O75 1.235 . S
C74 O79 1.287 . S
C74 O80 1.255 . S
O75 Fe67 1.997 1_455 S
O75 C73 1.235 . S
C76 O82 1.287 . S
C76 O83 1.255 . S
O77 Fe66 1.976 . S
O77 C84 1.287 . S
O78 Fe67 1.996 . S
O78 C84 1.255 . S
O79 Fe69 1.976 1_554 S
O79 C74 1.287 . S
O80 Fe66 1.996 1_554 S
O80 C74 1.255 . S
C81 O85 1.295 . S
C81 O86 1.235 . S
O82 Fe67 1.976 . S
O82 C76 1.287 . S
O83 Fe69 1.996 . S
O83 C76 1.255 . S
C84 O77 1.287 . S
C84 O78 1.255 . S
O85 Fe67 2.002 . S
O85 C81 1.295 . S
O86 Fe69 1.997 . S
O86 C81 1.235 . S
C87 O70 1.295 . S
C87 O71 1.235 . S
Fe88 O90 1.918 . S
Fe88 O93 1.997 . S
Fe88 O94 2.002 . S
Fe88 O99 1.976 . S
Fe88 O102 1.996 . S
Fe89 O90 1.918 . S
Fe89 O97 1.997 . S
Fe89 O100 1.996 . S
Fe89 O104 1.976 . S
Fe89 O107 2.002 . S
O90 Fe88 1.918 . S
O90 Fe89 1.918 . S
O90 Fe91 1.918 . S
Fe91 O90 1.918 . S
Fe91 O92 2.002 . S
Fe91 O101 1.976 . S
Fe91 O105 1.996 . S
Fe91 O108 1.997 . S
O92 Fe91 2.002 . S
O92 C109 1.295 . S
O93 Fe88 1.997 . S
O93 C109 1.235 . S
O94 Fe88 2.002 . S
O94 C95 1.295 . S
C95 O94 1.295 . S
C95 O97 1.235 . S
C96 O101 1.287 . S
C96 O102 1.255 . S
O97 Fe89 1.997 . S
O97 C95 1.235 . S
C98 O104 1.287 . S
C98 O105 1.255 . S
O99 Fe88 1.976 . S
O99 C106 1.287 . S
O100 Fe89 1.996 . S
O100 C106 1.255 . S
O101 Fe91 1.976 . S
O101 C96 1.287 . S
O102 Fe88 1.996 . S
O102 C96 1.255 . S
C103 O107 1.295 . S
C103 O108 1.235 . S
O104 Fe89 1.976 . S
O104 C98 1.287 . S
O105 Fe91 1.996 . S
O105 C98 1.255 . S
C106 O99 1.287 . S
C106 O100 1.255 . S
O107 Fe89 2.002 . S
O107 C103 1.295 . S
O108 Fe91 1.997 . S
O108 C103 1.235 . S
C109 O92 1.295 . S
C109 O93 1.235 . S
Fe110 O112 1.918 . S
Fe110 O115 1.997 . S
Fe110 O116 2.002 . S
Fe110 O121 1.976 . S
Fe110 O124 1.996 . S
Fe111 O112 1.918 . S
Fe111 O119 1.997 . S
Fe111 O122 1.996 . S
Fe111 O126 1.976 . S
Fe111 O129 2.002 . S
O112 Fe110 1.918 . S
O112 Fe111 1.918 . S
O112 Fe113 1.918 . S
Fe113 O112 1.918 . S
Fe113 O114 2.002 . S
Fe113 O123 1.976 . S
Fe113 O127 1.996 . S
Fe113 O130 1.997 . S
O114 Fe113 2.002 . S
O114 C131 1.295 . S
O115 Fe110 1.997 . S
O115 C131 1.235 . S
O116 Fe110 2.002 . S
O116 C117 1.295 . S
C117 O116 1.295 . S
C117 O119 1.235 . S
C118 O123 1.287 . S
C118 O124 1.255 . S
O119 Fe111 1.997 . S
O119 C117 1.235 . S
C120 O126 1.287 . S
C120 O127 1.255 . S
O121 Fe110 1.976 . S
O121 C128 1.287 . S
O122 Fe111 1.996 . S
O122 C128 1.255 . S
O123 Fe113 1.976 . S
O123 C118 1.287 . S
O124 Fe110 1.996 . S
O124 C118 1.255 . S
C125 O129 1.295 . S
C125 O130 1.235 . S
O126 Fe111 1.976 . S
O126 C120 1.287 . S
O127 Fe113 1.996 . S
O127 C120 1.255 . S
C128 O121 1.287 . S
C128 O122 1.255 . S
O129 Fe111 2.002 . S
O129 C125 1.295 . S
O130 Fe113 1.997 . S
O130 C125 1.235 . S
C131 O114 1.295 . S
C131 O115 1.235 . S
Fe132 O134 1.918 . S
Fe132 O137 1.997 . S
Fe132 O138 2.002 . S
Fe132 O143 1.976 . S
Fe132 O146 1.996 . S
Fe133 O134 1.918 . S
Fe133 O141 1.997 . S
Fe133 O144 1.996 . S
Fe133 O148 1.976 . S
Fe133 O151 2.002 . S
O134 Fe132 1.918 . S
O134 Fe133 1.918 . S
O134 Fe135 1.918 . S
Fe135 O134 1.918 . S
Fe135 O136 2.002 . S
Fe135 O145 1.976 . S
Fe135 O149 1.996 . S
Fe135 O152 1.997 . S
O136 Fe135 2.002 . S
O136 C153 1.295 . S
O137 Fe132 1.997 . S
O137 C153 1.235 . S
O138 Fe132 2.002 . S
O138 C139 1.295 . S
C139 O138 1.295 . S
C139 O141 1.235 . S
C140 O145 1.287 . S
C140 O146 1.255 . S
O141 Fe133 1.997 . S
O141 C139 1.235 . S
C142 O148 1.287 . S
C142 O149 1.255 . S
O143 Fe132 1.976 . S
O143 C150 1.287 . S
O144 Fe133 1.996 . S
O144 C150 1.255 . S
O145 Fe135 1.976 . S
O145 C140 1.287 . S
O146 Fe132 1.996 . S
O146 C140 1.255 . S
C147 O151 1.295 . S
C147 O152 1.235 . S
O148 Fe133 1.976 . S
O148 C142 1.287 . S
O149 Fe135 1.996 . S
O149 C142 1.255 . S
C150 O143 1.287 . S
C150 O144 1.255 . S
O151 Fe133 2.002 . S
O151 C147 1.295 . S
O152 Fe135 1.997 . S
O152 C147 1.235 . S
C153 O136 1.295 . S
C153 O137 1.235 . S
Fe154 O156 1.918 . S
Fe154 O159 1.997 . S
Fe154 O160 2.002 . S
Fe154 O165 1.976 . S
Fe154 O168 1.996 . S
Fe155 O156 1.918 . S
Fe155 O163 1.997 . S
Fe155 O166 1.996 . S
Fe155 O170 1.976 . S
Fe155 O173 2.002 . S
O156 Fe154 1.918 . S
O156 Fe155 1.918 . S
O156 Fe157 1.918 . S
Fe157 O156 1.918 . S
Fe157 O158 2.002 . S
Fe157 O167 1.976 . S
Fe157 O171 1.996 . S
Fe157 O174 1.997 . S
O158 Fe157 2.002 . S
O158 C175 1.295 . S
O159 Fe154 1.997 . S
O159 C175 1.235 . S
O160 Fe154 2.002 . S
O160 C161 1.295 . S
C161 O160 1.295 . S
C161 O163 1.235 . S
C162 O167 1.287 . S
C162 O168 1.255 . S
O163 Fe155 1.997 . S
O163 C161 1.235 . S
C164 O170 1.287 . S
C164 O171 1.255 . S
O165 Fe154 1.976 . S
O165 C172 1.287 . S
O166 Fe155 1.996 . S
O166 C172 1.255 . S
O167 Fe157 1.976 . S
O167 C162 1.287 . S
O168 Fe154 1.996 . S
O168 C162 1.255 . S
C169 O173 1.295 . S
C169 O174 1.235 . S
O170 Fe155 1.976 . S
O170 C164 1.287 . S
O171 Fe157 1.996 . S
O171 C164 1.255 . S
C172 O165 1.287 . S
C172 O166 1.255 . S
O173 Fe155 2.002 . S
O173 C169 1.295 . S
O174 Fe157 1.997 . S
O174 C169 1.235 . S
C175 O158 1.295 . S
C175 O159 1.235 . S
Fe176 O178 1.918 . S
Fe176 O181 1.997 . S
Fe176 O182 2.002 . S
Fe176 O187 1.976 . S
Fe176 O190 1.996 . S
Fe177 O178 1.918 . S
Fe177 O185 1.997 . S
Fe177 O188 1.996 . S
Fe177 O192 1.976 . S
Fe177 O195 2.002 . S
O178 Fe176 1.918 . S
O178 Fe177 1.918 . S
O178 Fe179 1.918 . S
Fe179 O178 1.918 . S
Fe179 O180 2.002 . S
Fe179 O189 1.976 . S
Fe179 O193 1.996 . S
Fe179 O196 1.997 . S
O180 Fe179 2.002 . S
O180 C197 1.295 . S
O181 Fe176 1.997 . S
O181 C197 1.235 . S
O182 Fe176 2.002 . S
O182 C183 1.295 . S
C183 O182 1.295 . S
C183 O185 1.235 . S
C184 O189 1.287 . S
C184 O190 1.255 . S
O185 Fe177 1.997 . S
O185 C183 1.235 . S
C186 O192 1.287 . S
C186 O193 1.255 . S
O187 Fe176 1.976 . S
O187 C194 1.287 . S
O188 Fe177 1.996 . S
O188 C194 1.255 . S
O189 Fe179 1.976 . S
O189 C184 1.287 . S
O190 Fe176 1.996 . S
O190 C184 1.255 . S
C191 O195 1.295 . S
C191 O196 1.235 . S
O192 Fe177 1.976 . S
O192 C186 1.287 . S
O193 Fe179 1.996 . S
O193 C186 1.255 . S
C194 O187 1.287 . S
C194 O188 1.255 . S
O195 Fe177 2.002 . S
O195 C191 1.295 . S
O196 Fe179 1.997 . S
O196 C191 1.235 . S
C197 O180 1.295 . S
C197 O181 1.235 . S
Fe198 O200 1.918 . S
Fe198 O203 1.997 . S
Fe198 O204 2.002 . S
Fe198 O209 1.976 . S
Fe198 O212 1.996 . S
Fe199 O200 1.918 . S
Fe199 O207 1.997 . S
Fe199 O210 1.996 . S
Fe199 O214 1.976 . S
Fe199 O217 2.002 . S
O200 Fe198 1.918 . S
O200 Fe199 1.918 . S
O200 Fe201 1.918 . S
Fe201 O200 1.918 . S
Fe201 O202 2.002 . S
Fe201 O211 1.976 . S
Fe201 O215 1.996 . S
Fe201 O218 1.997 . S
O202 Fe201 2.002 . S
O202 C219 1.295 . S
O203 Fe198 1.997 . S
O203 C219 1.235 . S
O204 Fe198 2.002 . S
O204 C205 1.295 . S
C205 O204 1.295 . S
C205 O207 1.235 . S
C206 O211 1.287 . S
C206 O212 1.255 . S
O207 Fe199 1.997 . S
O207 C205 1.235 . S
C208 O214 1.287 . S
C208 O215 1.255 . S
O209 Fe198 1.976 . S
O209 C216 1.287 . S
O210 Fe199 1.996 . S
O210 C216 1.255 . S
O211 Fe201 1.976 . S
O211 C206 1.287 . S
O212 Fe198 1.996 . S
O212 C206 1.255 . S
C213 O217 1.295 . S
C213 O218 1.235 . S
O214 Fe199 1.976 . S
O214 C208 1.287 . S
O215 Fe201 1.996 . S
O215 C208 1.255 . S
C216 O209 1.287 . S
C216 O210 1.255 . S
O217 Fe199 2.002 . S
O217 C213 1.295 . S
O218 Fe201 1.997 . S
O218 C213 1.235 . S
C219 O202 1.295 . S
C219 O203 1.235 . S
Fe220 O222 1.918 . S
Fe220 O225 1.997 . S
Fe220 O226 2.002 . S
Fe220 O231 1.976 . S
Fe220 O234 1.996 . S
Fe221 O222 1.918 . S
Fe221 O229 1.997 . S
Fe221 O232 1.996 . S
Fe221 O236 1.976 . S
Fe221 O239 2.002 . S
O222 Fe220 1.918 . S
O222 Fe221 1.918 . S
O222 Fe223 1.918 . S
Fe223 O222 1.918 . S
Fe223 O224 2.002 . S
Fe223 O233 1.976 . S
Fe223 O237 1.996 . S
Fe223 O240 1.997 . S
O224 Fe223 2.002 . S
O224 C241 1.295 . S
O225 Fe220 1.997 . S
O225 C241 1.235 . S
O226 Fe220 2.002 . S
O226 C227 1.295 . S
C227 O226 1.295 . S
C227 O229 1.235 . S
C228 O233 1.287 . S
C228 O234 1.255 . S
O229 Fe221 1.997 . S
O229 C227 1.235 . S
C230 O236 1.287 . S
C230 O237 1.255 . S
O231 Fe220 1.976 . S
O231 C238 1.287 . S
O232 Fe221 1.996 . S
O232 C238 1.255 . S
O233 Fe223 1.976 . S
O233 C228 1.287 . S
O234 Fe220 1.996 . S
O234 C228 1.255 . S
C235 O239 1.295 . S
C235 O240 1.235 . S
O236 Fe221 1.976 . S
O236 C230 1.287 . S
O237 Fe223 1.996 . S
O237 C230 1.255 . S
C238 O231 1.287 . S
C238 O232 1.255 . S
O239 Fe221 2.002 . S
O239 C235 1.295 . S
O240 Fe223 1.997 . S
O240 C235 1.235 . S
C241 O224 1.295 . S
C241 O225 1.235 . S
Fe242 O244 1.918 . S
Fe242 O247 1.997 . S
Fe242 O248 2.002 . S
Fe242 O253 1.976 . S
Fe242 O256 1.996 . S
Fe243 O244 1.918 . S
Fe243 O251 1.997 . S
Fe243 O254 1.996 . S
Fe243 O258 1.976 . S
Fe243 O261 2.002 . S
O244 Fe242 1.918 . S
O244 Fe243 1.918 . S
O244 Fe245 1.918 . S
Fe245 O244 1.918 . S
Fe245 O246 2.002 . S
Fe245 O255 1.976 . S
Fe245 O259 1.996 . S
Fe245 O262 1.997 . S
O246 Fe245 2.002 . S
O246 C263 1.295 . S
O247 Fe242 1.997 . S
O247 C263 1.235 . S
O248 Fe242 2.002 . S
O248 C249 1.295 . S
C249 O248 1.295 . S
C249 O251 1.235 . S
C250 O255 1.287 . S
C250 O256 1.255 . S
O251 Fe243 1.997 . S
O251 C249 1.235 . S
C252 O258 1.287 . S
C252 O259 1.255 . S
O253 Fe242 1.976 . S
O253 C260 1.287 . S
O254 Fe243 1.996 . S
O254 C260 1.255 . S
O255 Fe245 1.976 . S
O255 C250 1.287 . S
O256 Fe242 1.996 . S
O256 C250 1.255 . S
C257 O261 1.295 . S
C257 O262 1.235 . S
O258 Fe243 1.976 . S
O258 C252 1.287 . S
O259 Fe245 1.996 . S
O259 C252 1.255 . S
C260 O253 1.287 . S
C260 O254 1.255 . S
O261 Fe243 2.002 . S
O261 C257 1.295 . S
O262 Fe245 1.997 . S
O262 C257 1.235 . S
C263 O246 1.295 . S
C263 O247 1.235 . S
Fe264 O266 1.918 . S
Fe264 O269 1.997 . S
Fe264 O270 2.022 . S
Fe264 O275 1.976 . S
Fe264 O278 1.996 . S
Fe265 O266 1.918 . S
Fe265 O273 1.997 1_565 S
Fe265 O276 1.993 1_565 S
Fe265 O280 1.976 . S
Fe265 O283 2.002 1_565 S
O266 Fe264 1.918 . S
O266 Fe265 1.918 . S
O266 Fe267 1.918 . S
Fe267 O266 1.918 . S
Fe267 O268 2.002 . S
Fe267 O277 1.976 . S
Fe267 O281 1.996 . S
Fe267 O284 1.997 . S
O268 Fe267 2.002 . S
O268 C285 1.295 . S
O269 Fe264 1.997 . S
O269 C285 1.235 . S
O270 Fe264 2.022 . S
O270 C271 1.278 1_565 S
C271 O270 1.278 1_545 S
C271 O273 1.235 . S
C272 O277 1.287 . S
C272 O278 1.255 . S
O273 Fe265 1.997 1_545 S
O273 C271 1.235 . S
C274 O280 1.287 . S
C274 O281 1.255 . S
O275 Fe264 1.976 . S
O275 C282 1.287 . S
O276 Fe265 1.993 1_545 S
O276 C282 1.243 1_545 S
O277 Fe267 1.976 . S
O277 C272 1.287 . S
O278 Fe264 1.996 . S
O278 C272 1.255 . S
C279 O283 1.295 1_565 S
C279 O284 1.235 . S
O280 Fe265 1.976 . S
O280 C274 1.287 . S
O281 Fe267 1.996 . S
O281 C274 1.255 . S
C282 O275 1.287 . S
C282 O276 1.243 1_565 S
O283 Fe265 2.002 1_545 S
O283 C279 1.295 1_545 S
O284 Fe267 1.997 . S
O284 C279 1.235 . S
C285 O268 1.295 . S
C285 O269 1.235 . S
Fe286 O288 1.918 . S
Fe286 O291 1.997 . S
Fe286 O292 2.002 1_655 S
Fe286 O297 1.976 . S
Fe286 O300 1.996 . S
Fe287 O288 1.918 . S
Fe287 O295 1.997 1_655 S
Fe287 O298 1.996 . S
Fe287 O302 1.976 . S
Fe287 O305 2.002 . S
O288 Fe286 1.918 . S
O288 Fe287 1.918 . S
O288 Fe289 1.918 . S
Fe289 O288 1.918 . S
Fe289 O290 2.002 . S
Fe289 O299 1.976 . S
Fe289 O303 1.996 . S
Fe289 O306 1.997 . S
O290 Fe289 2.002 . S
O290 C307 1.295 . S
O291 Fe286 1.997 . S
O291 C307 1.235 . S
O292 Fe286 2.002 1_455 S
O292 C293 1.295 . S
C293 O292 1.295 . S
C293 O295 1.235 . S
C294 O299 1.287 . S
C294 O300 1.255 . S
O295 Fe287 1.997 1_455 S
O295 C293 1.235 . S
C296 O302 1.287 . S
C296 O303 1.255 . S
O297 Fe286 1.976 . S
O297 C304 1.287 . S
O298 Fe287 1.996 . S
O298 C304 1.255 . S
O299 Fe289 1.976 . S
O299 C294 1.287 . S
O300 Fe286 1.996 . S
O300 C294 1.255 . S
C301 O305 1.295 . S
C301 O306 1.235 . S
O302 Fe287 1.976 . S
O302 C296 1.287 . S
O303 Fe289 1.996 . S
O303 C296 1.255 . S
C304 O297 1.287 . S
C304 O298 1.255 . S
O305 Fe287 2.002 . S
O305 C301 1.295 . S
O306 Fe289 1.997 . S
O306 C301 1.235 . S
C307 O290 1.295 . S
C307 O291 1.235 . S
Fe308 O310 1.918 . S
Fe308 O313 1.997 . S
Fe308 O314 2.022 . S
Fe308 O319 1.976 . S
Fe308 O322 1.996 . S
Fe309 O310 1.918 . S
Fe309 O317 1.997 1_545 S
Fe309 O320 1.993 1_545 S
Fe309 O324 1.976 . S
Fe309 O327 2.002 1_545 S
O310 Fe308 1.918 . S
O310 Fe309 1.918 . S
O310 Fe311 1.918 . S
Fe311 O310 1.918 . S
Fe311 O312 2.002 . S
Fe311 O321 1.976 . S
Fe311 O325 1.996 . S
Fe311 O328 1.997 . S
O312 Fe311 2.002 . S
O312 C329 1.295 . S
O313 Fe308 1.997 . S
O313 C329 1.235 . S
O314 Fe308 2.022 . S
O314 C315 1.278 1_545 S
C315 O314 1.278 1_565 S
C315 O317 1.235 . S
C316 O321 1.287 . S
C316 O322 1.255 . S
O317 Fe309 1.997 1_565 S
O317 C315 1.235 . S
C318 O324 1.287 . S
C318 O325 1.255 . S
O319 Fe308 1.976 . S
O319 C326 1.287 . S
O320 Fe309 1.993 1_565 S
O320 C326 1.243 1_565 S
O321 Fe311 1.976 . S
O321 C316 1.287 . S
O322 Fe308 1.996 . S
O322 C316 1.255 . S
C323 O327 1.295 1_545 S
C323 O328 1.235 . S
O324 Fe309 1.976 . S
O324 C318 1.287 . S
O325 Fe311 1.996 . S
O325 C318 1.255 . S
C326 O319 1.287 . S
C326 O320 1.243 1_545 S
O327 Fe309 2.002 1_565 S
O327 C323 1.295 1_565 S
O328 Fe311 1.997 . S
O328 C323 1.235 . S
C329 O312 1.295 . S
C329 O313 1.235 . S
Fe330 O332 1.918 . S
Fe330 O335 1.997 . S
Fe330 O336 2.002 . S
Fe330 O341 1.976 . S
Fe330 O344 1.996 . S
Fe331 O332 1.918 . S
Fe331 O339 1.997 . S
Fe331 O342 1.996 . S
Fe331 O346 1.976 . S
Fe331 O349 2.002 1_455 S
O332 Fe330 1.918 . S
O332 Fe331 1.918 . S
O332 Fe333 1.918 . S
Fe333 O332 1.918 . S
Fe333 O334 2.002 . S
Fe333 O343 1.976 . S
Fe333 O347 1.996 . S
Fe333 O350 1.997 1_455 S
O334 Fe333 2.002 . S
O334 C351 1.295 . S
O335 Fe330 1.997 . S
O335 C351 1.235 . S
O336 Fe330 2.002 . S
O336 C337 1.295 . S
C337 O336 1.295 . S
C337 O339 1.235 . S
C338 O343 1.287 . S
C338 O344 1.255 . S
O339 Fe331 1.997 . S
O339 C337 1.235 . S
C340 O346 1.287 . S
C340 O347 1.255 . S
O341 Fe330 1.976 . S
O341 C348 1.287 . S
O342 Fe331 1.996 . S
O342 C348 1.255 . S
O343 Fe333 1.976 . S
O343 C338 1.287 . S
O344 Fe330 1.996 . S
O344 C338 1.255 . S
C345 O349 1.295 . S
C345 O350 1.235 . S
O346 Fe331 1.976 . S
O346 C340 1.287 . S
O347 Fe333 1.996 . S
O347 C340 1.255 . S
C348 O341 1.287 . S
C348 O342 1.255 . S
O349 Fe331 2.002 1_655 S
O349 C345 1.295 . S
O350 Fe333 1.997 1_655 S
O350 C345 1.235 . S
C351 O334 1.295 . S
C351 O335 1.235 . S
H352 C358 0.930 . S
H353 C362 0.930 . S
H354 C367 0.929 . S
H355 C365 0.929 . S
H356 C360 0.929 . S
H357 C366 0.929 . S
C358 H352 0.930 . S
C358 C359 1.367 . S
C358 C366 1.378 . S
C359 C358 1.367 . S
C359 C367 1.433 . S
C360 H356 0.929 . S
C360 C362 1.378 . S
C360 C364 1.350 . S
C361 C364 1.463 . S
C361 C366 1.350 . S
C361 N369 1.427 . S
C362 H353 0.930 . S
C362 C360 1.378 . S
C362 C363 1.367 . S
C363 C362 1.367 . S
C363 C365 1.433 . S
C364 C360 1.350 . S
C364 C361 1.463 . S
C364 N368 1.427 . S
C365 H355 0.929 . S
C365 C363 1.433 . S
C365 N368 1.384 . S
C366 H357 0.929 . S
C366 C358 1.378 . S
C366 C361 1.350 . S
C367 H354 0.929 . S
C367 C359 1.433 . S
C367 N369 1.384 . S
N368 C364 1.427 . S
N368 C365 1.384 . S
N369 C361 1.427 . S
N369 C367 1.384 . S
H370 C376 0.930 . S
H371 C380 0.930 . S
H372 C385 0.929 . S
H373 C383 0.950 . S
H374 C378 0.929 . S
H375 C384 0.929 . S
C376 H370 0.930 . S
C376 C377 1.367 . S
C376 C384 1.378 . S
C377 C376 1.367 . S
C377 C385 1.433 . S
C378 H374 0.929 . S
C378 C380 1.378 . S
C378 C382 1.350 . S
C379 C382 1.463 . S
C379 C384 1.350 . S
C379 N387 1.427 . S
C380 H371 0.930 . S
C380 C378 1.378 . S
C380 C381 1.367 . S
C381 C380 1.367 . S
C381 C383 1.433 . S
C382 C378 1.350 . S
C382 C379 1.463 . S
C382 N386 1.427 . S
C383 H373 0.950 . S
C383 C381 1.433 . S
C383 N386 1.384 . S
C384 H375 0.929 . S
C384 C376 1.378 . S
C384 C379 1.350 . S
C385 H372 0.929 . S
C385 C377 1.433 . S
C385 N387 1.384 . S
N386 C382 1.427 . S
N386 C383 1.384 . S
N387 C379 1.427 . S
N387 C385 1.384 . S
H388 C394 0.930 1_565 S
H389 C398 0.930 . S
H390 C403 0.929 . S
H391 C401 0.929 . S
H392 C396 0.929 . S
H393 C402 0.929 . S
C394 H388 0.930 1_545 S
C394 C395 1.367 . S
C394 C402 1.378 . S
C395 C394 1.367 . S
C395 C403 1.433 . S
C396 H392 0.929 . S
C396 C398 1.378 . S
C396 C400 1.350 . S
C397 C400 1.463 . S
C397 C402 1.350 . S
C397 N405 1.427 . S
C398 H389 0.930 . S
C398 C396 1.378 . S
C398 C399 1.367 . S
C399 C398 1.367 . S
C399 C401 1.433 . S
C400 C396 1.350 . S
C400 C397 1.463 . S
C400 N404 1.427 . S
C401 H391 0.929 . S
C401 C399 1.433 . S
C401 N404 1.384 . S
C402 H393 0.929 . S
C402 C394 1.378 . S
C402 C397 1.350 . S
C403 H390 0.929 . S
C403 C395 1.433 . S
C403 N405 1.384 . S
N404 C400 1.427 . S
N404 C401 1.384 . S
N405 C397 1.427 . S
N405 C403 1.384 . S
H406 C412 0.930 . S
H407 C416 0.930 . S
H408 C421 0.929 . S
H409 C419 0.929 . S
H410 C414 0.929 . S
H411 C420 0.929 . S
C412 H406 0.930 . S
C412 C413 1.367 . S
C412 C420 1.378 . S
C413 C412 1.367 . S
C413 C421 1.433 . S
C414 H410 0.929 . S
C414 C416 1.378 . S
C414 C418 1.350 . S
C415 C418 1.463 . S
C415 C420 1.350 . S
C415 N423 1.427 . S
C416 H407 0.930 . S
C416 C414 1.378 . S
C416 C417 1.367 . S
C417 C416 1.367 . S
C417 C419 1.433 . S
C418 C414 1.350 . S
C418 C415 1.463 . S
C418 N422 1.427 . S
C419 H409 0.929 . S
C419 C417 1.433 . S
C419 N422 1.384 . S
C420 H411 0.929 . S
C420 C412 1.378 . S
C420 C415 1.350 . S
C421 H408 0.929 . S
C421 C413 1.433 . S
C421 N423 1.384 . S
N422 C418 1.427 . S
N422 C419 1.384 . S
N423 C415 1.427 . S
N423 C421 1.384 . S
H424 C430 0.930 . S
H425 C434 0.930 . S
H426 C439 0.929 . S
H427 C437 0.929 . S
H428 C432 0.929 . S
H429 C438 0.929 . S
C430 H424 0.930 . S
C430 C431 1.367 . S
C430 C438 1.378 . S
C431 C430 1.367 . S
C431 C439 1.433 . S
C432 H428 0.929 . S
C432 C434 1.378 . S
C432 C436 1.350 . S
C433 C436 1.463 . S
C433 C438 1.350 . S
C433 N441 1.427 . S
C434 H425 0.930 . S
C434 C432 1.378 . S
C434 C435 1.367 . S
C435 C434 1.367 . S
C435 C437 1.433 . S
C436 C432 1.350 . S
C436 C433 1.463 . S
C436 N440 1.427 . S
C437 H427 0.929 . S
C437 C435 1.433 . S
C437 N440 1.384 . S
C438 H429 0.929 . S
C438 C430 1.378 . S
C438 C433 1.350 . S
C439 H426 0.929 . S
C439 C431 1.433 . S
C439 N441 1.384 . S
N440 C436 1.427 . S
N440 C437 1.384 . S
N441 C433 1.427 . S
N441 C439 1.384 . S
H442 C448 0.930 . S
H443 C452 0.930 . S
H444 C457 0.929 . S
H445 C455 0.929 . S
H446 C450 0.929 . S
H447 C456 0.929 . S
C448 H442 0.930 . S
C448 C449 1.367 . S
C448 C456 1.378 . S
C449 C448 1.367 . S
C449 C457 1.433 . S
C450 H446 0.929 . S
C450 C452 1.378 . S
C450 C454 1.350 . S
C451 C454 1.463 . S
C451 C456 1.350 . S
C451 N459 1.427 . S
C452 H443 0.930 . S
C452 C450 1.378 . S
C452 C453 1.367 . S
C453 C452 1.367 . S
C453 C455 1.433 . S
C454 C450 1.350 . S
C454 C451 1.463 . S
C454 N458 1.427 . S
C455 H445 0.929 . S
C455 C453 1.433 . S
C455 N458 1.384 . S
C456 H447 0.929 . S
C456 C448 1.378 . S
C456 C451 1.350 . S
C457 H444 0.929 . S
C457 C449 1.433 . S
C457 N459 1.384 . S
N458 C454 1.427 . S
N458 C455 1.384 . S
N459 C451 1.427 . S
N459 C457 1.384 . S
H460 C466 0.930 . S
H461 C470 0.930 . S
H462 C475 0.929 . S
H463 C473 0.929 . S
H464 C468 0.929 . S
H465 C474 0.929 . S
C466 H460 0.930 . S
C466 C467 1.367 . S
C466 C474 1.378 . S
C467 C466 1.367 . S
C467 C475 1.433 . S
C468 H464 0.929 . S
C468 C470 1.378 . S
C468 C472 1.350 . S
C469 C472 1.463 . S
C469 C474 1.350 . S
C469 N477 1.427 . S
C470 H461 0.930 . S
C470 C468 1.378 . S
C470 C471 1.367 . S
C471 C470 1.367 . S
C471 C473 1.433 . S
C472 C468 1.350 . S
C472 C469 1.463 . S
C472 N476 1.427 . S
C473 H463 0.929 . S
C473 C471 1.433 . S
C473 N476 1.384 . S
C474 H465 0.929 . S
C474 C466 1.378 . S
C474 C469 1.350 . S
C475 H462 0.929 . S
C475 C467 1.433 . S
C475 N477 1.384 . S
N476 C472 1.427 . S
N476 C473 1.384 . S
N477 C469 1.427 . S
N477 C475 1.384 . S
H478 C484 0.930 . S
H479 C488 0.930 . S
H480 C493 0.929 . S
H481 C491 0.929 . S
H482 C486 0.929 . S
H483 C492 0.929 . S
C484 H478 0.930 . S
C484 C485 1.367 . S
C484 C492 1.378 . S
C485 C484 1.367 . S
C485 C493 1.433 . S
C486 H482 0.929 . S
C486 C488 1.378 . S
C486 C490 1.350 . S
C487 C490 1.463 . S
C487 C492 1.350 . S
C487 N495 1.427 . S
C488 H479 0.930 . S
C488 C486 1.378 . S
C488 C489 1.367 . S
C489 C488 1.367 . S
C489 C491 1.433 . S
C490 C486 1.350 . S
C490 C487 1.463 . S
C490 N494 1.427 . S
C491 H481 0.929 . S
C491 C489 1.433 . S
C491 N494 1.384 . S
C492 H483 0.929 . S
C492 C484 1.378 . S
C492 C487 1.350 . S
C493 H480 0.929 . S
C493 C485 1.433 . S
C493 N495 1.384 . S
N494 C490 1.427 . S
N494 C491 1.384 . S
N495 C487 1.427 . S
N495 C493 1.384 . S
H496 C502 0.930 . S
H497 C506 0.930 . S
H498 C511 0.929 . S
H499 C509 0.929 . S
H500 C504 0.929 . S
H501 C510 0.929 . S
C502 H496 0.930 . S
C502 C503 1.367 . S
C502 C510 1.378 . S
C503 C502 1.367 . S
C503 C511 1.433 . S
C504 H500 0.929 . S
C504 C506 1.378 . S
C504 C508 1.350 . S
C505 C508 1.463 . S
C505 C510 1.350 . S
C505 N513 1.427 . S
C506 H497 0.930 . S
C506 C504 1.378 . S
C506 C507 1.367 . S
C507 C506 1.367 . S
C507 C509 1.433 . S
C508 C504 1.350 . S
C508 C505 1.463 . S
C508 N512 1.427 . S
C509 H499 0.929 . S
C509 C507 1.433 . S
C509 N512 1.384 . S
C510 H501 0.929 . S
C510 C502 1.378 . S
C510 C505 1.350 . S
C511 H498 0.929 . S
C511 C503 1.433 . S
C511 N513 1.384 . S
N512 C508 1.427 . S
N512 C509 1.384 . S
N513 C505 1.427 . S
N513 C511 1.384 . S
H514 C520 0.930 . S
H515 C524 0.930 . S
H516 C529 0.929 . S
H517 C527 0.929 . S
H518 C522 0.929 . S
H519 C528 0.929 . S
C520 H514 0.930 . S
C520 C521 1.367 . S
C520 C528 1.378 . S
C521 C520 1.367 . S
C521 C529 1.433 . S
C522 H518 0.929 . S
C522 C524 1.378 . S
C522 C526 1.350 . S
C523 C526 1.463 . S
C523 C528 1.350 . S
C523 N531 1.427 . S
C524 H515 0.930 . S
C524 C522 1.378 . S
C524 C525 1.367 . S
C525 C524 1.367 . S
C525 C527 1.433 . S
C526 C522 1.350 . S
C526 C523 1.463 . S
C526 N530 1.427 . S
C527 H517 0.929 . S
C527 C525 1.433 . S
C527 N530 1.384 . S
C528 H519 0.929 . S
C528 C520 1.378 . S
C528 C523 1.350 . S
C529 H516 0.929 . S
C529 C521 1.433 . S
C529 N531 1.384 . S
N530 C526 1.427 . S
N530 C527 1.384 . S
N531 C523 1.427 . S
N531 C529 1.384 . S
H532 C538 0.930 . S
H533 C542 0.930 . S
H534 C547 0.929 . S
H535 C545 0.929 . S
H536 C540 0.929 . S
H537 C546 0.929 . S
C538 H532 0.930 . S
C538 C539 1.367 . S
C538 C546 1.378 . S
C539 C538 1.367 . S
C539 C547 1.433 . S
C540 H536 0.929 . S
C540 C542 1.378 . S
C540 C544 1.350 . S
C541 C544 1.463 . S
C541 C546 1.350 . S
C541 N549 1.427 . S
C542 H533 0.930 . S
C542 C540 1.378 . S
C542 C543 1.367 . S
C543 C542 1.367 . S
C543 C545 1.433 . S
C544 C540 1.350 . S
C544 C541 1.463 . S
C544 N548 1.427 . S
C545 H535 0.929 . S
C545 C543 1.433 . S
C545 N548 1.384 . S
C546 H537 0.929 . S
C546 C538 1.378 . S
C546 C541 1.350 . S
C547 H534 0.929 . S
C547 C539 1.433 . S
C547 N549 1.384 . S
N548 C544 1.427 . S
N548 C545 1.384 . S
N549 C541 1.427 . S
N549 C547 1.384 . S
H550 C556 0.930 . S
H551 C560 0.930 . S
H552 C565 0.929 . S
H553 C563 0.929 . S
H554 C558 0.929 . S
H555 C564 0.929 . S
C556 H550 0.930 . S
C556 C557 1.367 . S
C556 C564 1.378 . S
C557 C556 1.367 . S
C557 C565 1.433 . S
C558 H554 0.929 . S
C558 C560 1.378 . S
C558 C562 1.350 . S
C559 C562 1.463 . S
C559 C564 1.350 . S
C559 N567 1.427 . S
C560 H551 0.930 . S
C560 C558 1.378 . S
C560 C561 1.367 . S
C561 C560 1.367 . S
C561 C563 1.433 . S
C562 C558 1.350 . S
C562 C559 1.463 . S
C562 N566 1.427 . S
C563 H553 0.929 . S
C563 C561 1.433 . S
C563 N566 1.384 . S
C564 H555 0.929 . S
C564 C556 1.378 . S
C564 C559 1.350 . S
C565 H552 0.929 . S
C565 C557 1.433 . S
C565 N567 1.384 . S
N566 C562 1.427 . S
N566 C563 1.384 . S
N567 C559 1.427 . S
N567 C565 1.384 . S
H568 C574 0.930 . S
H569 C578 0.930 . S
H570 C583 0.929 1_565 S
H571 C581 0.929 . S
H572 C576 0.929 . S
H573 C582 0.929 . S
C574 H568 0.930 . S
C574 C575 1.367 . S
C574 C582 1.378 . S
C575 C574 1.367 . S
C575 C583 1.433 . S
C576 H572 0.929 . S
C576 C578 1.378 . S
C576 C580 1.350 . S
C577 C580 1.463 . S
C577 C582 1.350 . S
C577 N585 1.427 . S
C578 H569 0.930 . S
C578 C576 1.378 . S
C578 C579 1.367 . S
C579 C578 1.367 . S
C579 C581 1.433 . S
C580 C576 1.350 . S
C580 C577 1.463 . S
C580 N584 1.427 . S
C581 H571 0.929 . S
C581 C579 1.433 . S
C581 N584 1.384 . S
C582 H573 0.929 . S
C582 C574 1.378 . S
C582 C577 1.350 . S
C583 H570 0.929 1_545 S
C583 C575 1.433 . S
C583 N585 1.384 . S
N584 C580 1.427 . S
N584 C581 1.384 . S
N585 C577 1.427 . S
N585 C583 1.384 . S
H586 C592 0.930 . S
H587 C596 0.930 . S
H588 C601 0.929 . S
H589 C599 0.929 1_655 S
H590 C594 0.929 . S
H591 C600 0.929 . S
C592 H586 0.930 . S
C592 C593 1.367 . S
C592 C600 1.378 . S
C593 C592 1.367 . S
C593 C601 1.433 . S
C594 H590 0.929 . S
C594 C596 1.378 . S
C594 C598 1.350 . S
C595 C598 1.463 . S
C595 C600 1.350 . S
C595 N603 1.427 . S
C596 H587 0.930 . S
C596 C594 1.378 . S
C596 C597 1.367 . S
C597 C596 1.367 . S
C597 C599 1.433 . S
C598 C594 1.350 . S
C598 C595 1.463 . S
C598 N602 1.427 . S
C599 H589 0.929 1_455 S
C599 C597 1.433 . S
C599 N602 1.384 . S
C600 H591 0.929 . S
C600 C592 1.378 . S
C600 C595 1.350 . S
C601 H588 0.929 . S
C601 C593 1.433 . S
C601 N603 1.384 . S
N602 C598 1.427 . S
N602 C599 1.384 . S
N603 C595 1.427 . S
N603 C601 1.384 . S
H604 C610 0.930 . S
H605 C614 0.930 . S
H606 C619 0.929 . S
H607 C617 0.930 1_545 S
H608 C612 0.929 . S
H609 C618 0.929 . S
C610 H604 0.930 . S
C610 C611 1.367 . S
C610 C618 1.378 . S
C611 C610 1.367 . S
C611 C619 1.433 . S
C612 H608 0.929 . S
C612 C614 1.378 . S
C612 C616 1.350 . S
C613 C616 1.463 . S
C613 C618 1.350 . S
C613 N621 1.427 . S
C614 H605 0.930 . S
C614 C612 1.378 . S
C614 C615 1.367 . S
C615 C614 1.367 . S
C615 C617 1.433 . S
C616 C612 1.350 . S
C616 C613 1.463 . S
C616 N620 1.427 . S
C617 H607 0.930 1_565 S
C617 C615 1.433 . S
C617 N620 1.384 . S
C618 H609 0.929 . S
C618 C610 1.378 . S
C618 C613 1.350 . S
C619 H606 0.929 . S
C619 C611 1.433 . S
C619 N621 1.384 . S
N620 C616 1.427 . S
N620 C617 1.384 . S
N621 C613 1.427 . S
N621 C619 1.384 . S
H622 C628 0.930 . S
H623 C632 0.930 . S
H624 C637 0.929 . S
H625 C635 0.929 . S
H626 C630 0.929 . S
H627 C636 0.929 . S
C628 H622 0.930 . S
C628 C629 1.367 . S
C628 C636 1.378 . S
C629 C628 1.367 . S
C629 C637 1.433 . S
C630 H626 0.929 . S
C630 C632 1.378 . S
C630 C634 1.350 . S
C631 C634 1.463 . S
C631 C636 1.350 . S
C631 N639 1.427 . S
C632 H623 0.930 . S
C632 C630 1.378 . S
C632 C633 1.367 . S
C633 C632 1.367 . S
C633 C635 1.433 . S
C634 C630 1.350 . S
C634 C631 1.463 . S
C634 N638 1.427 . S
C635 H625 0.929 . S
C635 C633 1.433 . S
C635 N638 1.384 . S
C636 H627 0.929 . S
C636 C628 1.378 . S
C636 C631 1.350 . S
C637 H624 0.929 . S
C637 C629 1.433 . S
C637 N639 1.384 . S
N638 C634 1.427 . S
N638 C635 1.384 . S
N639 C631 1.427 . S
N639 C637 1.384 . S
H640 C646 0.930 . S
H641 C650 0.930 . S
H642 C655 0.929 . S
H643 C653 0.929 . S
H644 C648 0.929 . S
H645 C654 0.929 . S
C646 H640 0.930 . S
C646 C647 1.367 . S
C646 C654 1.378 . S
C647 C646 1.367 . S
C647 C655 1.433 . S
C648 H644 0.929 . S
C648 C650 1.378 . S
C648 C652 1.350 . S
C649 C652 1.463 . S
C649 C654 1.350 . S
C649 N657 1.427 . S
C650 H641 0.930 . S
C650 C648 1.378 . S
C650 C651 1.367 . S
C651 C650 1.367 . S
C651 C653 1.433 . S
C652 C648 1.350 . S
C652 C649 1.463 . S
C652 N656 1.427 . S
C653 H643 0.929 . S
C653 C651 1.433 . S
C653 N656 1.384 . S
C654 H645 0.929 . S
C654 C646 1.378 . S
C654 C649 1.350 . S
C655 H642 0.929 . S
C655 C647 1.433 . S
C655 N657 1.384 . S
N656 C652 1.427 . S
N656 C653 1.384 . S
N657 C649 1.427 . S
N657 C655 1.384 . S
H658 C664 0.930 . S
H659 C668 0.930 . S
H660 C673 0.929 . S
H661 C671 0.929 . S
H662 C666 0.929 . S
H663 C672 0.929 . S
C664 H658 0.930 . S
C664 C665 1.367 . S
C664 C672 1.378 . S
C665 C664 1.367 . S
C665 C673 1.433 . S
C666 H662 0.929 . S
C666 C668 1.378 . S
C666 C670 1.350 . S
C667 C670 1.463 . S
C667 C672 1.350 . S
C667 N675 1.427 . S
C668 H659 0.930 . S
C668 C666 1.378 . S
C668 C669 1.367 . S
C669 C668 1.367 . S
C669 C671 1.433 . S
C670 C666 1.350 . S
C670 C667 1.463 . S
C670 N674 1.427 . S
C671 H661 0.929 . S
C671 C669 1.433 . S
C671 N674 1.384 . S
C672 H663 0.929 . S
C672 C664 1.378 . S
C672 C667 1.350 . S
C673 H660 0.929 . S
C673 C665 1.433 . S
C673 N675 1.384 . S
N674 C670 1.427 . S
N674 C671 1.384 . S
N675 C667 1.427 . S
N675 C673 1.384 . S
H676 C682 0.930 . S
H677 C686 0.930 . S
H678 C691 0.929 . S
H679 C689 0.929 . S
H680 C684 0.929 . S
H681 C690 0.929 . S
C682 H676 0.930 . S
C682 C683 1.367 . S
C682 C690 1.378 . S
C683 C682 1.367 . S
C683 C691 1.433 . S
C684 H680 0.929 . S
C684 C686 1.378 . S
C684 C688 1.350 . S
C685 C688 1.463 . S
C685 C690 1.350 . S
C685 N693 1.427 . S
C686 H677 0.930 . S
C686 C684 1.378 . S
C686 C687 1.367 . S
C687 C686 1.367 . S
C687 C689 1.433 . S
C688 C684 1.350 . S
C688 C685 1.463 . S
C688 N692 1.427 . S
C689 H679 0.929 . S
C689 C687 1.433 . S
C689 N692 1.384 . S
C690 H681 0.929 . S
C690 C682 1.378 . S
C690 C685 1.350 . S
C691 H678 0.929 . S
C691 C683 1.433 . S
C691 N693 1.384 . S
N692 C688 1.427 . S
N692 C689 1.384 . S
N693 C685 1.427 . S
N693 C691 1.384 . S
H694 C700 0.930 . S
H695 C704 0.930 . S
H696 C709 0.929 . S
H697 C707 0.929 . S
H698 C702 0.929 . S
H699 C708 0.929 . S
C700 H694 0.930 . S
C700 C701 1.367 . S
C700 C708 1.378 . S
C701 C700 1.367 . S
C701 C709 1.433 . S
C702 H698 0.929 . S
C702 C704 1.378 . S
C702 C706 1.350 . S
C703 C706 1.463 . S
C703 C708 1.350 . S
C703 N711 1.427 . S
C704 H695 0.930 . S
C704 C702 1.378 . S
C704 C705 1.367 . S
C705 C704 1.367 . S
C705 C707 1.433 . S
C706 C702 1.350 . S
C706 C703 1.463 . S
C706 N710 1.427 . S
C707 H697 0.929 . S
C707 C705 1.433 . S
C707 N710 1.384 . S
C708 H699 0.929 . S
C708 C700 1.378 . S
C708 C703 1.350 . S
C709 H696 0.929 . S
C709 C701 1.433 . S
C709 N711 1.384 . S
N710 C706 1.427 . S
N710 C707 1.384 . S
N711 C703 1.427 . S
N711 C709 1.384 . S
H712 C718 0.930 . S
H713 C722 0.930 . S
H714 C727 0.929 . S
H715 C725 0.929 . S
H716 C720 0.929 . S
H717 C726 0.929 . S
C718 H712 0.930 . S
C718 C719 1.367 . S
C718 C726 1.378 . S
C719 C718 1.367 . S
C719 C727 1.433 . S
C720 H716 0.929 . S
C720 C722 1.378 . S
C720 C724 1.350 . S
C721 C724 1.463 . S
C721 C726 1.350 . S
C721 N729 1.427 . S
C722 H713 0.930 . S
C722 C720 1.378 . S
C722 C723 1.367 . S
C723 C722 1.367 . S
C723 C725 1.433 . S
C724 C720 1.350 . S
C724 C721 1.463 . S
C724 N728 1.427 . S
C725 H715 0.929 . S
C725 C723 1.433 . S
C725 N728 1.384 . S
C726 H717 0.929 . S
C726 C718 1.378 . S
C726 C721 1.350 . S
C727 H714 0.929 . S
C727 C719 1.433 . S
C727 N729 1.384 . S
N728 C724 1.427 . S
N728 C725 1.384 . S
N729 C721 1.427 . S
N729 C727 1.384 . S
H730 C736 0.930 . S
H731 C740 0.930 . S
H732 C745 0.929 . S
H733 C743 0.929 . S
H734 C738 0.929 . S
H735 C744 0.929 . S
C736 H730 0.930 . S
C736 C737 1.367 . S
C736 C744 1.378 . S
C737 C736 1.367 . S
C737 C745 1.433 . S
C738 H734 0.929 . S
C738 C740 1.378 . S
C738 C742 1.350 . S
C739 C742 1.463 . S
C739 C744 1.350 . S
C739 N747 1.427 . S
C740 H731 0.930 . S
C740 C738 1.378 . S
C740 C741 1.367 . S
C741 C740 1.367 . S
C741 C743 1.433 . S
C742 C738 1.350 . S
C742 C739 1.463 . S
C742 N746 1.427 . S
C743 H733 0.929 . S
C743 C741 1.433 . S
C743 N746 1.384 . S
C744 H735 0.929 . S
C744 C736 1.378 . S
C744 C739 1.350 . S
C745 H732 0.929 . S
C745 C737 1.433 . S
C745 N747 1.384 . S
N746 C742 1.427 . S
N746 C743 1.384 . S
N747 C739 1.427 . S
N747 C745 1.384 . S
H748 C754 0.930 . S
H749 C758 0.930 . S
H750 C763 0.929 . S
H751 C761 0.929 . S
H752 C756 0.929 . S
H753 C762 0.929 . S
C754 H748 0.930 . S
C754 C755 1.367 . S
C754 C762 1.378 . S
C755 C754 1.367 . S
C755 C763 1.433 . S
C756 H752 0.929 . S
C756 C758 1.378 . S
C756 C760 1.350 . S
C757 C760 1.463 . S
C757 C762 1.350 . S
C757 N765 1.427 . S
C758 H749 0.930 . S
C758 C756 1.378 . S
C758 C759 1.367 . S
C759 C758 1.367 . S
C759 C761 1.433 . S
C760 C756 1.350 . S
C760 C757 1.463 . S
C760 N764 1.427 . S
C761 H751 0.929 . S
C761 C759 1.433 . S
C761 N764 1.384 . S
C762 H753 0.929 . S
C762 C754 1.378 . S
C762 C757 1.350 . S
C763 H750 0.929 . S
C763 C755 1.433 . S
C763 N765 1.384 . S
N764 C760 1.427 . S
N764 C761 1.384 . S
N765 C757 1.427 . S
N765 C763 1.384 . S
H766 C772 0.930 . S
H767 C776 0.930 . S
H768 C781 0.929 . S
H769 C779 0.929 . S
H770 C774 0.929 . S
H771 C780 0.929 . S
C772 H766 0.930 . S
C772 C773 1.367 . S
C772 C780 1.378 . S
C773 C772 1.367 . S
C773 C781 1.433 . S
C774 H770 0.929 . S
C774 C776 1.378 . S
C774 C778 1.350 . S
C775 C778 1.463 . S
C775 C780 1.350 . S
C775 N783 1.427 . S
C776 H767 0.930 . S
C776 C774 1.378 . S
C776 C777 1.367 . S
C777 C776 1.367 . S
C777 C779 1.433 . S
C778 C774 1.350 . S
C778 C775 1.463 . S
C778 N782 1.427 . S
C779 H769 0.929 . S
C779 C777 1.433 . S
C779 N782 1.384 . S
C780 H771 0.929 . S
C780 C772 1.378 . S
C780 C775 1.350 . S
C781 H768 0.929 . S
C781 C773 1.433 . S
C781 N783 1.384 . S
N782 C778 1.427 . S
N782 C779 1.384 . S
N783 C775 1.427 . S
N783 C781 1.384 . S
H784 C790 0.930 . S
H785 C794 0.930 . S
H786 C799 0.929 . S
H787 C797 0.929 . S
H788 C792 0.929 . S
H789 C798 0.929 . S
C790 H784 0.930 . S
C790 C791 1.367 . S
C790 C798 1.378 . S
C791 C790 1.367 . S
C791 C799 1.433 . S
C792 H788 0.929 . S
C792 C794 1.378 . S
C792 C796 1.350 . S
C793 C796 1.463 . S
C793 C798 1.350 . S
C793 N801 1.427 . S
C794 H785 0.930 . S
C794 C792 1.378 . S
C794 C795 1.367 . S
C795 C794 1.367 . S
C795 C797 1.433 . S
C796 C792 1.350 . S
C796 C793 1.463 . S
C796 N800 1.427 . S
C797 H787 0.929 . S
C797 C795 1.433 . S
C797 N800 1.384 . S
C798 H789 0.929 . S
C798 C790 1.378 . S
C798 C793 1.350 . S
C799 H786 0.929 . S
C799 C791 1.433 . S
C799 N801 1.384 . S
N800 C796 1.427 . S
N800 C797 1.384 . S
N801 C793 1.427 . S
N801 C799 1.384 . S
H802 C808 0.930 . S
H803 C812 0.930 . S
H804 C817 0.929 . S
H805 C815 0.929 . S
H806 C810 0.929 . S
H807 C816 0.929 . S
C808 H802 0.930 . S
C808 C809 1.367 . S
C808 C816 1.378 . S
C809 C808 1.367 . S
C809 C817 1.433 . S
C810 H806 0.929 . S
C810 C812 1.378 . S
C810 C814 1.350 . S
C811 C814 1.463 . S
C811 C816 1.350 . S
C811 N819 1.427 . S
C812 H803 0.930 . S
C812 C810 1.378 . S
C812 C813 1.367 . S
C813 C812 1.367 . S
C813 C815 1.433 . S
C814 C810 1.350 . S
C814 C811 1.463 . S
C814 N818 1.427 . S
C815 H805 0.929 . S
C815 C813 1.433 . S
C815 N818 1.384 . S
C816 H807 0.929 . S
C816 C808 1.378 . S
C816 C811 1.350 . S
C817 H804 0.929 . S
C817 C809 1.433 . S
C817 N819 1.384 . S
N818 C814 1.427 . S
N818 C815 1.384 . S
N819 C811 1.427 . S
N819 C817 1.384 . S
H820 C826 0.930 . S
H821 C830 0.930 . S
H822 C835 0.929 . S
H823 C833 0.929 . S
H824 C828 0.929 . S
H825 C834 0.929 . S
C826 H820 0.930 . S
C826 C827 1.367 . S
C826 C834 1.378 . S
C827 C826 1.367 . S
C827 C835 1.433 . S
C828 H824 0.929 . S
C828 C830 1.378 . S
C828 C832 1.350 . S
C829 C832 1.463 . S
C829 C834 1.350 . S
C829 N837 1.427 . S
C830 H821 0.930 . S
C830 C828 1.378 . S
C830 C831 1.367 . S
C831 C830 1.367 . S
C831 C833 1.433 . S
C832 C828 1.350 . S
C832 C829 1.463 . S
C832 N836 1.427 . S
C833 H823 0.929 . S
C833 C831 1.433 . S
C833 N836 1.384 . S
C834 H825 0.929 . S
C834 C826 1.378 . S
C834 C829 1.350 . S
C835 H822 0.929 . S
C835 C827 1.433 . S
C835 N837 1.384 . S
N836 C832 1.427 . S
N836 C833 1.384 . S
N837 C829 1.427 . S
N837 C835 1.384 . S
H838 C844 0.930 . S
H839 C848 0.930 . S
H840 C853 0.929 . S
H841 C851 0.929 . S
H842 C846 0.929 . S
H843 C852 0.929 . S
C844 H838 0.930 . S
C844 C845 1.367 . S
C844 C852 1.378 . S
C845 C844 1.367 . S
C845 C853 1.433 . S
C846 H842 0.929 . S
C846 C848 1.378 . S
C846 C850 1.350 . S
C847 C850 1.463 . S
C847 C852 1.350 . S
C847 N855 1.427 . S
C848 H839 0.930 . S
C848 C846 1.378 . S
C848 C849 1.367 . S
C849 C848 1.367 . S
C849 C851 1.433 . S
C850 C846 1.350 . S
C850 C847 1.463 . S
C850 N854 1.427 . S
C851 H841 0.929 . S
C851 C849 1.433 . S
C851 N854 1.384 . S
C852 H843 0.929 . S
C852 C844 1.378 . S
C852 C847 1.350 . S
C853 H840 0.929 . S
C853 C845 1.433 . S
C853 N855 1.384 . S
N854 C850 1.427 . S
N854 C851 1.384 . S
N855 C847 1.427 . S
N855 C853 1.384 . S
H856 C862 0.930 . S
H857 C866 0.930 . S
H858 C871 0.929 . S
H859 C869 0.929 . S
H860 C864 0.929 . S
H861 C870 0.929 . S
C862 H856 0.930 . S
C862 C863 1.367 . S
C862 C870 1.378 . S
C863 C862 1.367 . S
C863 C871 1.433 . S
C864 H860 0.929 . S
C864 C866 1.378 . S
C864 C868 1.350 . S
C865 C868 1.463 1_556 S
C865 C870 1.350 . S
C865 N873 1.427 . S
C866 H857 0.930 . S
C866 C864 1.378 . S
C866 C867 1.367 . S
C867 C866 1.367 . S
C867 C869 1.433 . S
C868 C864 1.350 . S
C868 C865 1.463 1_554 S
C868 N872 1.427 . S
C869 H859 0.929 . S
C869 C867 1.433 . S
C869 N872 1.384 . S
C870 H861 0.929 . S
C870 C862 1.378 . S
C870 C865 1.350 . S
C871 H858 0.929 . S
C871 C863 1.433 . S
C871 N873 1.384 . S
N872 C868 1.427 . S
N872 C869 1.384 . S
N873 C865 1.427 . S
N873 C871 1.384 . S
H874 C880 0.930 . S
H875 C884 0.930 . S
H876 C889 0.929 . S
H877 C887 0.929 . S
H878 C882 0.929 . S
H879 C888 0.929 . S
C880 H874 0.930 . S
C880 C881 1.367 . S
C880 C888 1.378 . S
C881 C880 1.367 . S
C881 C889 1.433 . S
C882 H878 0.929 . S
C882 C884 1.378 . S
C882 C886 1.350 . S
C883 C886 1.463 1_554 S
C883 C888 1.350 . S
C883 N891 1.427 . S
C884 H875 0.930 . S
C884 C882 1.378 . S
C884 C885 1.367 . S
C885 C884 1.367 . S
C885 C887 1.433 . S
C886 C882 1.350 . S
C886 C883 1.463 1_556 S
C886 N890 1.427 . S
C887 H877 0.929 . S
C887 C885 1.433 . S
C887 N890 1.384 . S
C888 H879 0.929 . S
C888 C880 1.378 . S
C888 C883 1.350 . S
C889 H876 0.929 . S
C889 C881 1.433 . S
C889 N891 1.384 . S
N890 C886 1.427 . S
N890 C887 1.384 . S
N891 C883 1.427 . S
N891 C889 1.384 . S
H892 C898 0.930 . S
H893 C902 0.930 . S
H894 C907 0.929 . S
H895 C905 0.929 . S
H896 C900 0.929 . S
H897 C906 0.929 . S
C898 H892 0.930 . S
C898 C899 1.367 . S
C898 C906 1.378 . S
C899 C898 1.367 . S
C899 C907 1.433 . S
C900 H896 0.929 . S
C900 C902 1.378 . S
C900 C904 1.350 . S
C901 C904 1.463 1_556 S
C901 C906 1.350 . S
C901 N909 1.427 . S
C902 H893 0.930 . S
C902 C900 1.378 . S
C902 C903 1.367 . S
C903 C902 1.367 . S
C903 C905 1.433 . S
C904 C900 1.350 . S
C904 C901 1.463 1_554 S
C904 N908 1.427 . S
C905 H895 0.929 . S
C905 C903 1.433 . S
C905 N908 1.384 . S
C906 H897 0.929 . S
C906 C898 1.378 . S
C906 C901 1.350 . S
C907 H894 0.929 . S
C907 C899 1.433 . S
C907 N909 1.384 . S
N908 C904 1.427 . S
N908 C905 1.384 . S
N909 C901 1.427 . S
N909 C907 1.384 . S
H910 C916 0.930 . S
H911 C920 0.930 . S
H912 C925 0.929 . S
H913 C923 0.929 . S
H914 C918 0.929 . S
H915 C924 0.929 . S
C916 H910 0.930 . S
C916 C917 1.367 . S
C916 C924 1.378 . S
C917 C916 1.367 . S
C917 C925 1.433 . S
C918 H914 0.929 . S
C918 C920 1.378 . S
C918 C922 1.350 . S
C919 C922 1.463 1_556 S
C919 C924 1.350 . S
C919 N927 1.427 . S
C920 H911 0.930 . S
C920 C918 1.378 . S
C920 C921 1.367 . S
C921 C920 1.367 . S
C921 C923 1.433 . S
C922 C918 1.350 . S
C922 C919 1.463 1_554 S
C922 N926 1.427 1_554 S
C923 H913 0.929 . S
C923 C921 1.433 . S
C923 N926 1.384 1_554 S
C924 H915 0.929 . S
C924 C916 1.378 . S
C924 C919 1.350 . S
C925 H912 0.929 . S
C925 C917 1.433 . S
C925 N927 1.384 . S
N926 C922 1.427 1_556 S
N926 C923 1.384 1_556 S
N927 C919 1.427 . S
N927 C925 1.384 . S
H928 C934 0.930 . S
H929 C938 0.930 . S
H930 C943 0.929 . S
H931 C941 0.929 . S
H932 C936 0.929 . S
H933 C942 0.929 . S
C934 H928 0.930 . S
C934 C935 1.367 . S
C934 C942 1.378 . S
C935 C934 1.367 . S
C935 C943 1.433 . S
C936 H932 0.929 . S
C936 C938 1.378 . S
C936 C940 1.350 . S
C937 C940 1.463 . S
C937 C942 1.350 . S
C937 N945 1.427 . S
C938 H929 0.930 . S
C938 C936 1.378 . S
C938 C939 1.367 . S
C939 C938 1.367 . S
C939 C941 1.433 . S
C940 C936 1.350 . S
C940 C937 1.463 . S
C940 N944 1.427 . S
C941 H931 0.929 . S
C941 C939 1.433 . S
C941 N944 1.384 . S
C942 H933 0.929 . S
C942 C934 1.378 . S
C942 C937 1.350 . S
C943 H930 0.929 . S
C943 C935 1.433 . S
C943 N945 1.384 . S
N944 C940 1.427 . S
N944 C941 1.384 . S
N945 C937 1.427 . S
N945 C943 1.384 . S
H946 C952 0.930 . S
H947 C956 0.930 . S
H948 C961 0.929 . S
H949 C959 0.929 . S
H950 C954 0.929 . S
H951 C960 0.929 . S
C952 H946 0.930 . S
C952 C953 1.367 . S
C952 C960 1.378 . S
C953 C952 1.367 . S
C953 C961 1.433 . S
C954 H950 0.929 . S
C954 C956 1.378 . S
C954 C958 1.350 . S
C955 C958 1.463 . S
C955 C960 1.350 . S
C955 N963 1.427 . S
C956 H947 0.930 . S
C956 C954 1.378 . S
C956 C957 1.367 . S
C957 C956 1.367 . S
C957 C959 1.433 . S
C958 C954 1.350 . S
C958 C955 1.463 . S
C958 N962 1.427 . S
C959 H949 0.929 . S
C959 C957 1.433 . S
C959 N962 1.384 . S
C960 H951 0.929 . S
C960 C952 1.378 . S
C960 C955 1.350 . S
C961 H948 0.929 . S
C961 C953 1.433 . S
C961 N963 1.384 . S
N962 C958 1.427 . S
N962 C959 1.384 . S
N963 C955 1.427 . S
N963 C961 1.384 . S
H964 C970 0.930 . S
H965 C974 0.930 . S
H966 C979 0.929 . S
H967 C977 0.929 . S
H968 C972 0.929 . S
H969 C978 0.929 . S
C970 H964 0.930 . S
C970 C971 1.367 . S
C970 C978 1.378 . S
C971 C970 1.367 . S
C971 C979 1.433 . S
C972 H968 0.929 . S
C972 C974 1.378 . S
C972 C976 1.350 . S
C973 C976 1.463 . S
C973 C978 1.350 . S
C973 N981 1.427 . S
C974 H965 0.930 . S
C974 C972 1.378 . S
C974 C975 1.367 . S
C975 C974 1.367 . S
C975 C977 1.433 . S
C976 C972 1.350 . S
C976 C973 1.463 . S
C976 N980 1.427 . S
C977 H967 0.929 . S
C977 C975 1.433 . S
C977 N980 1.384 . S
C978 H969 0.929 . S
C978 C970 1.378 . S
C978 C973 1.350 . S
C979 H966 0.929 . S
C979 C971 1.433 . S
C979 N981 1.384 . S
N980 C976 1.427 . S
N980 C977 1.384 . S
N981 C973 1.427 . S
N981 C979 1.384 . S
H982 C988 0.930 . S
H983 C992 0.930 . S
H984 C997 0.929 . S
H985 C995 0.929 . S
H986 C990 0.929 . S
H987 C996 0.929 . S
C988 H982 0.930 . S
C988 C989 1.367 . S
C988 C996 1.378 . S
C989 C988 1.367 . S
C989 C997 1.433 . S
C990 H986 0.929 . S
C990 C992 1.378 . S
C990 C994 1.350 . S
C991 C994 1.463 . S
C991 C996 1.350 . S
C991 N999 1.427 . S
C992 H983 0.930 . S
C992 C990 1.378 . S
C992 C993 1.367 . S
C993 C992 1.367 . S
C993 C995 1.433 . S
C994 C990 1.350 . S
C994 C991 1.463 . S
C994 N998 1.427 . S
C995 H985 0.929 . S
C995 C993 1.433 . S
C995 N998 1.384 . S
C996 H987 0.929 . S
C996 C988 1.378 . S
C996 C991 1.350 . S
C997 H984 0.929 . S
C997 C989 1.433 . S
C997 N999 1.384 . S
N998 C994 1.427 . S
N998 C995 1.384 . S
N999 C991 1.427 . S
N999 C997 1.384 . S
H1000 C1006 0.930 . S
H1001 C1010 0.933 1_565 S
H1002 C1015 0.929 . S
H1003 C1013 0.929 . S
H1004 C1008 0.929 . S
H1005 C1014 0.929 . S
C1006 H1000 0.930 . S
C1006 C1007 1.367 . S
C1006 C1014 1.378 . S
C1007 C1006 1.367 . S
C1007 C1015 1.433 . S
C1008 H1004 0.929 . S
C1008 C1010 1.378 . S
C1008 C1012 1.350 . S
C1009 C1012 1.463 . S
C1009 C1014 1.350 . S
C1009 N1017 1.427 . S
C1010 H1001 0.933 1_545 S
C1010 C1008 1.378 . S
C1010 C1011 1.367 . S
C1011 C1010 1.367 . S
C1011 C1013 1.433 . S
C1012 C1008 1.350 . S
C1012 C1009 1.463 . S
C1012 N1016 1.427 . S
C1013 H1003 0.929 . S
C1013 C1011 1.433 . S
C1013 N1016 1.384 . S
C1014 H1005 0.929 . S
C1014 C1006 1.378 . S
C1014 C1009 1.350 . S
C1015 H1002 0.929 . S
C1015 C1007 1.433 . S
C1015 N1017 1.384 . S
N1016 C1012 1.427 . S
N1016 C1013 1.384 . S
N1017 C1009 1.427 . S
N1017 C1015 1.384 . S
H1018 C1024 0.918 1_655 S
H1019 C1028 0.930 . S
H1020 C1033 0.929 . S
H1021 C1031 0.929 . S
H1022 C1026 0.929 . S
H1023 C1032 0.929 . S
C1024 H1018 0.918 1_455 S
C1024 C1025 1.367 . S
C1024 C1032 1.378 . S
C1025 C1024 1.367 . S
C1025 C1033 1.433 . S
C1026 H1022 0.929 . S
C1026 C1028 1.378 . S
C1026 C1030 1.350 . S
C1027 C1030 1.463 . S
C1027 C1032 1.350 . S
C1027 N1035 1.427 . S
C1028 H1019 0.930 . S
C1028 C1026 1.378 . S
C1028 C1029 1.367 . S
C1029 C1028 1.367 . S
C1029 C1031 1.433 . S
C1030 C1026 1.350 . S
C1030 C1027 1.463 . S
C1030 N1034 1.427 . S
C1031 H1021 0.929 . S
C1031 C1029 1.433 . S
C1031 N1034 1.384 . S
C1032 H1023 0.929 . S
C1032 C1024 1.378 . S
C1032 C1027 1.350 . S
C1033 H1020 0.929 . S
C1033 C1025 1.433 . S
C1033 N1035 1.384 . S
N1034 C1030 1.427 . S
N1034 C1031 1.384 . S
N1035 C1027 1.427 . S
N1035 C1033 1.384 . S
H1036 C1042 0.930 . S
H1037 C1046 0.930 . S
H1038 C1051 0.929 . S
H1039 C1049 0.929 . S
H1040 C1044 0.929 . S
H1041 C1050 0.929 . S
C1042 H1036 0.930 . S
C1042 C1043 1.367 . S
C1042 C1050 1.378 . S
C1043 C1042 1.367 . S
C1043 C1051 1.433 . S
C1044 H1040 0.929 . S
C1044 C1046 1.378 . S
C1044 C1048 1.350 . S
C1045 C1048 1.463 . S
C1045 C1050 1.350 . S
C1045 N1053 1.427 . S
C1046 H1037 0.930 . S
C1046 C1044 1.378 . S
C1046 C1047 1.367 . S
C1047 C1046 1.367 . S
C1047 C1049 1.433 . S
C1048 C1044 1.350 . S
C1048 C1045 1.463 . S
C1048 N1052 1.427 . S
C1049 H1039 0.929 . S
C1049 C1047 1.433 . S
C1049 N1052 1.384 . S
C1050 H1041 0.929 . S
C1050 C1042 1.378 . S
C1050 C1045 1.350 . S
C1051 H1038 0.929 . S
C1051 C1043 1.433 . S
C1051 N1053 1.384 . S
N1052 C1048 1.427 . S
N1052 C1049 1.384 . S
N1053 C1045 1.427 . S
N1053 C1051 1.384 . S
H1054 C1060 0.930 . S
H1055 C1064 0.930 . S
H1056 C1069 0.929 . S
H1057 C1067 0.929 . S
H1058 C1062 0.929 . S
H1059 C1068 0.929 . S
C1060 H1054 0.930 . S
C1060 C1061 1.367 . S
C1060 C1068 1.378 . S
C1061 C1060 1.367 . S
C1061 C1069 1.433 . S
C1062 H1058 0.929 . S
C1062 C1064 1.378 . S
C1062 C1066 1.350 . S
C1063 C1066 1.463 . S
C1063 C1068 1.350 . S
C1063 N1071 1.427 . S
C1064 H1055 0.930 . S
C1064 C1062 1.378 . S
C1064 C1065 1.367 . S
C1065 C1064 1.367 . S
C1065 C1067 1.433 . S
C1066 C1062 1.350 . S
C1066 C1063 1.463 . S
C1066 N1070 1.427 . S
C1067 H1057 0.929 . S
C1067 C1065 1.433 . S
C1067 N1070 1.384 . S
C1068 H1059 0.929 . S
C1068 C1060 1.378 . S
C1068 C1063 1.350 . S
C1069 H1056 0.929 . S
C1069 C1061 1.433 . S
C1069 N1071 1.384 . S
N1070 C1066 1.427 . S
N1070 C1067 1.384 . S
N1071 C1063 1.427 . S
N1071 C1069 1.384 . S
H1072 C1078 0.930 . S
H1073 C1082 0.930 . S
H1074 C1087 0.929 . S
H1075 C1085 0.929 . S
H1076 C1080 0.929 1_565 S
H1077 C1086 0.929 1_545 S
C1078 H1072 0.930 . S
C1078 C1079 1.367 1_556 S
C1078 C1086 1.378 . S
C1079 C1078 1.367 1_554 S
C1079 C1087 1.433 . S
C1080 H1076 0.929 1_545 S
C1080 C1082 1.378 . S
C1080 C1084 1.350 . S
C1081 C1084 1.463 1_565 S
C1081 C1086 1.350 1_554 S
C1081 N1089 1.427 . S
C1082 H1073 0.930 . S
C1082 C1080 1.378 . S
C1082 C1083 1.367 . S
C1083 C1082 1.367 . S
C1083 C1085 1.433 1_554 S
C1084 C1080 1.350 . S
C1084 C1081 1.463 1_545 S
C1084 N1088 1.427 1_554 S
C1085 H1075 0.929 . S
C1085 C1083 1.433 1_556 S
C1085 N1088 1.384 . S
C1086 H1077 0.929 1_565 S
C1086 C1078 1.378 . S
C1086 C1081 1.350 1_556 S
C1087 H1074 0.929 . S
C1087 C1079 1.433 . S
C1087 N1089 1.384 . S
N1088 C1084 1.427 1_556 S
N1088 C1085 1.384 . S
N1089 C1081 1.427 . S
N1089 C1087 1.384 . S
H1090 C1096 0.930 1_655 S
H1091 C1100 0.930 1_455 S
H1092 C1105 0.929 . S
H1093 C1103 0.929 . S
H1094 C1098 0.929 . S
H1095 C1104 0.929 . S
C1096 H1090 0.930 1_455 S
C1096 C1097 1.367 1_554 S
C1096 C1104 1.378 1_455 S
C1097 C1096 1.367 1_556 S
C1097 C1105 1.433 . S
C1098 H1094 0.929 . S
C1098 C1100 1.378 1_455 S
C1098 C1102 1.350 1_455 S
C1099 C1102 1.463 1_455 S
C1099 C1104 1.350 1_456 S
C1099 N1107 1.427 . S
C1100 H1091 0.930 1_655 S
C1100 C1098 1.378 1_655 S
C1100 C1101 1.367 . S
C1101 C1100 1.367 . S
C1101 C1103 1.433 1_556 S
C1102 C1098 1.350 1_655 S
C1102 C1099 1.463 1_655 S
C1102 N1106 1.427 1_556 S
C1103 H1093 0.929 . S
C1103 C1101 1.433 1_554 S
C1103 N1106 1.384 . S
C1104 H1095 0.929 . S
C1104 C1096 1.378 1_655 S
C1104 C1099 1.350 1_654 S
C1105 H1092 0.929 . S
C1105 C1097 1.433 . S
C1105 N1107 1.384 . S
N1106 C1102 1.427 1_554 S
N1106 C1103 1.384 . S
N1107 C1099 1.427 . S
N1107 C1105 1.384 . S
H1108 C1114 0.930 . S
H1109 C1118 0.930 . S
H1110 C1123 0.929 . S
H1111 C1121 0.929 . S
H1112 C1116 0.929 . S
H1113 C1122 0.929 . S
C1114 H1108 0.930 . S
C1114 C1115 1.367 . S
C1114 C1122 1.378 . S
C1115 C1114 1.367 . S
C1115 C1123 1.433 . S
C1116 H1112 0.929 . S
C1116 C1118 1.378 . S
C1116 C1120 1.350 . S
C1117 C1120 1.463 . S
C1117 C1122 1.350 . S
C1117 N1125 1.427 . S
C1118 H1109 0.930 . S
C1118 C1116 1.378 . S
C1118 C1119 1.367 . S
C1119 C1118 1.367 . S
C1119 C1121 1.433 . S
C1120 C1116 1.350 . S
C1120 C1117 1.463 . S
C1120 N1124 1.427 . S
C1121 H1111 0.929 . S
C1121 C1119 1.433 . S
C1121 N1124 1.384 . S
C1122 H1113 0.929 . S
C1122 C1114 1.378 . S
C1122 C1117 1.350 . S
C1123 H1110 0.929 . S
C1123 C1115 1.433 . S
C1123 N1125 1.384 . S
N1124 C1120 1.427 . S
N1124 C1121 1.384 . S
N1125 C1117 1.427 . S
N1125 C1123 1.384 . S
H1126 C1132 0.930 . S
H1127 C1136 0.930 . S
H1128 C1141 0.929 . S
H1129 C1139 0.929 . S
H1130 C1134 0.929 . S
H1131 C1140 0.929 . S
C1132 H1126 0.930 . S
C1132 C1133 1.367 . S
C1132 C1140 1.378 . S
C1133 C1132 1.367 . S
C1133 C1141 1.433 . S
C1134 H1130 0.929 . S
C1134 C1136 1.378 . S
C1134 C1138 1.350 . S
C1135 C1138 1.463 . S
C1135 C1140 1.350 . S
C1135 N1143 1.427 . S
C1136 H1127 0.930 . S
C1136 C1134 1.378 . S
C1136 C1137 1.367 . S
C1137 C1136 1.367 . S
C1137 C1139 1.433 . S
C1138 C1134 1.350 . S
C1138 C1135 1.463 . S
C1138 N1142 1.427 . S
C1139 H1129 0.929 . S
C1139 C1137 1.433 . S
C1139 N1142 1.384 . S
C1140 H1131 0.929 . S
C1140 C1132 1.378 . S
C1140 C1135 1.350 . S
C1141 H1128 0.929 . S
C1141 C1133 1.433 . S
C1141 N1143 1.384 . S
N1142 C1138 1.427 . S
N1142 C1139 1.384 . S
N1143 C1135 1.427 . S
N1143 C1141 1.384 . S
H1144 C1150 0.930 . S
H1145 C1154 0.930 . S
H1146 C1159 0.929 . S
H1147 C1157 0.929 . S
H1148 C1152 0.929 . S
H1149 C1158 0.929 . S
C1150 H1144 0.930 . S
C1150 C1151 1.367 . S
C1150 C1158 1.378 . S
C1151 C1150 1.367 . S
C1151 C1159 1.433 . S
C1152 H1148 0.929 . S
C1152 C1154 1.378 . S
C1152 C1156 1.350 . S
C1153 C1156 1.463 1_455 S
C1153 C1158 1.350 . S
C1153 N1161 1.427 . S
C1154 H1145 0.930 . S
C1154 C1152 1.378 . S
C1154 C1155 1.367 . S
C1155 C1154 1.367 . S
C1155 C1157 1.433 . S
C1156 C1152 1.350 . S
C1156 C1153 1.463 1_655 S
C1156 N1160 1.427 . S
C1157 H1147 0.929 . S
C1157 C1155 1.433 . S
C1157 N1160 1.384 . S
C1158 H1149 0.929 . S
C1158 C1150 1.378 . S
C1158 C1153 1.350 . S
C1159 H1146 0.929 . S
C1159 C1151 1.433 . S
C1159 N1161 1.384 . S
N1160 C1156 1.427 . S
N1160 C1157 1.384 . S
N1161 C1153 1.427 . S
N1161 C1159 1.384 . S
H1162 C1168 0.930 . S
H1163 C1172 0.930 . S
H1164 C1177 0.929 . S
H1165 C1175 0.929 . S
H1166 C1170 0.929 . S
H1167 C1176 0.929 . S
C1168 H1162 0.930 . S
C1168 C1169 1.367 . S
C1168 C1176 1.378 . S
C1169 C1168 1.367 . S
C1169 C1177 1.433 . S
C1170 H1166 0.929 . S
C1170 C1172 1.378 . S
C1170 C1174 1.350 . S
C1171 C1174 1.463 1_545 S
C1171 C1176 1.350 . S
C1171 N1179 1.427 . S
C1172 H1163 0.930 . S
C1172 C1170 1.378 . S
C1172 C1173 1.367 . S
C1173 C1172 1.367 . S
C1173 C1175 1.433 . S
C1174 C1170 1.350 . S
C1174 C1171 1.463 1_565 S
C1174 N1178 1.427 . S
C1175 H1165 0.929 . S
C1175 C1173 1.433 . S
C1175 N1178 1.384 . S
C1176 H1167 0.929 . S
C1176 C1168 1.378 . S
C1176 C1171 1.350 . S
C1177 H1164 0.929 . S
C1177 C1169 1.433 . S
C1177 N1179 1.384 . S
N1178 C1174 1.427 . S
N1178 C1175 1.384 . S
N1179 C1171 1.427 . S
N1179 C1177 1.384 . S
H1180 C1186 0.930 . S
H1181 C1190 0.930 . S
H1182 C1195 0.929 . S
H1183 C1193 0.929 . S
H1184 C1188 0.929 . S
H1185 C1194 0.929 . S
C1186 H1180 0.930 . S
C1186 C1187 1.367 1_565 S
C1186 C1194 1.378 . S
C1187 C1186 1.367 1_545 S
C1187 C1195 1.433 . S
C1188 H1184 0.929 . S
C1188 C1190 1.378 . S
C1188 C1192 1.350 1_545 S
C1189 C1192 1.463 1_445 S
C1189 C1194 1.350 1_545 S
C1189 N1197 1.427 . S
C1190 H1181 0.930 . S
C1190 C1188 1.378 . S
C1190 C1191 1.367 1_545 S
C1191 C1190 1.367 1_565 S
C1191 C1193 1.433 . S
C1192 C1188 1.350 1_565 S
C1192 C1189 1.463 1_665 S
C1192 N1196 1.427 . S
C1193 H1183 0.929 . S
C1193 C1191 1.433 . S
C1193 N1196 1.384 . S
C1194 H1185 0.929 . S
C1194 C1186 1.378 . S
C1194 C1189 1.350 1_565 S
C1195 H1182 0.929 . S
C1195 C1187 1.433 . S
C1195 N1197 1.384 . S
N1196 C1192 1.427 . S
N1196 C1193 1.384 . S
N1197 C1189 1.427 . S
N1197 C1195 1.384 . S
H1198 C1204 0.930 . S
H1199 C1208 0.930 . S
H1200 C1213 0.929 . S
H1201 C1211 0.929 . S
H1202 C1206 0.929 . S
H1203 C1212 0.929 . S
C1204 H1198 0.930 . S
C1204 C1205 1.367 1_455 S
C1204 C1212 1.378 . S
C1205 C1204 1.367 1_655 S
C1205 C1213 1.433 . S
C1206 H1202 0.929 . S
C1206 C1208 1.378 . S
C1206 C1210 1.350 1_655 S
C1207 C1210 1.463 1_645 S
C1207 C1212 1.350 1_655 S
C1207 N1215 1.427 . S
C1208 H1199 0.930 . S
C1208 C1206 1.378 . S
C1208 C1209 1.367 1_655 S
C1209 C1208 1.367 1_455 S
C1209 C1211 1.433 . S
C1210 C1206 1.350 1_455 S
C1210 C1207 1.463 1_465 S
C1210 N1214 1.427 . S
C1211 H1201 0.929 . S
C1211 C1209 1.433 . S
C1211 N1214 1.384 . S
C1212 H1203 0.929 . S
C1212 C1204 1.378 . S
C1212 C1207 1.350 1_455 S
C1213 H1200 0.929 . S
C1213 C1205 1.433 . S
C1213 N1215 1.384 . S
N1214 C1210 1.427 . S
N1214 C1211 1.384 . S
N1215 C1207 1.427 . S
N1215 C1213 1.384 . S
C359 C348 1.683 . S
C363 C18 1.784 1_565 S
C377 C274 1.644 . S
C381 C40 1.769 1_655 S
C395 C62 1.781 1_545 S
C399 C294 1.702 . S
C413 C84 1.756 1_455 S
C417 C318 1.666 . S
C431 C98 1.773 . S
C435 C30 1.686 . S
C449 C118 1.770 . S
C453 C54 1.658 . S
C467 C142 1.781 . S
C471 C74 1.682 . S
C485 C10 1.645 . S
C489 C162 1.770 . S
C503 C184 1.771 . S
C507 C164 1.689 . S
C521 C216 1.771 . S
C525 C96 1.646 . S
C539 C238 1.778 . S
C543 C120 1.703 . S
C557 C260 1.756 . S
C561 C140 1.652 . S
C575 C282 1.770 1_545 S
C579 C206 1.690 . S
C593 C230 1.655 . S
C597 C304 1.755 1_455 S
C611 C250 1.695 . S
C615 C326 1.769 1_565 S
C629 C194 1.660 . S
C633 C340 1.754 1_655 S
C647 C106 1.043 . S
C651 C8 1.049 . S
C665 C32 1.046 . S
C669 C128 1.035 . S
C683 C150 1.044 . S
C687 C52 1.049 . S
C701 C76 1.047 . S
C705 C172 1.030 . S
C719 C272 1.042 . S
C723 C186 1.052 . S
C737 C296 1.027 . S
C741 C208 1.047 . S
C755 C316 1.043 . S
C759 C228 1.050 . S
C773 C338 1.047 . S
C777 C252 1.033 . S
C791 C7 1.033 . S
C795 C257 1.047 . S
C809 C191 1.043 . S
C813 C29 1.025 . S
C827 C51 1.020 . S
C831 C213 1.044 . S
C845 C73 1.030 . S
C849 C241 1.050 . S
C863 C117 1.039 . S
C867 C103 1.019 . S
C881 C139 1.043 . S
C885 C131 1.028 . S
C899 C161 1.053 . S
C903 C147 1.036 . S
C917 C175 1.039 . S
C921 C95 1.050 . S
C935 C197 1.035 . S
C939 C81 1.048 . S
C953 C21 1.052 . S
C957 C205 1.042 . S
C971 C37 1.053 . S
C975 C227 1.038 . S
C989 C65 1.057 . S
C993 C249 1.041 . S
C1007 C301 1.041 . S
C1011 C271 1.017 . S
C1025 C293 1.025 . S
C1029 C329 1.045 . S
C1043 C351 1.040 . S
C1047 C315 1.022 . S
C1061 C345 1.031 . S
C1065 C285 1.051 . S
C1079 C59 0.335 . S
C1083 C15 0.322 . S
C1097 C43 0.346 . S
C1101 C87 0.333 . S
C1115 C109 0.325 . S
C1119 C153 0.314 . S
C1133 C169 0.318 . S
C1137 C125 0.320 . S
C1151 C235 0.332 . S
C1155 C183 0.340 . S
C1169 C219 0.322 . S
C1173 C263 0.335 . S
C1187 C323 0.341 . S
C1191 C279 0.333 . S
C1205 C307 0.348 . S
C1209 C337 0.336 . S
