# Generated by pormake.
# Topology gis, (4)-cn, num edge types: 1
# Building blocks:
#     Node 0, Type 0, BuildingBlock: NAHDIM_clean_sbu_0, # of connection points: 4
#     Node 1, Type 0, BuildingBlock: NAHDIM_clean_sbu_0, # of connection points: 4
#     Node 2, Type 0, BuildingBlock: NAHDIM_clean_sbu_0, # of connection points: 4
#     Node 3, Type 0, BuildingBlock: NAHDIM_clean_sbu_0, # of connection points: 4
#     Node 4, Type 0, BuildingBlock: NAHDIM_clean_sbu_0, # of connection points: 4
#     Node 5, Type 0, BuildingBlock: NAHDIM_clean_sbu_0, # of connection points: 4
#     Node 6, Type 0, BuildingBlock: NAHDIM_clean_sbu_0, # of connection points: 4
#     Node 7, Type 0, BuildingBlock: NAHDIM_clean_sbu_0, # of connection points: 4
#     Node 8, Type 0, BuildingBlock: NAHDIM_clean_sbu_0, # of connection points: 4
#     Node 9, Type 0, BuildingBlock: NAHDIM_clean_sbu_0, # of connection points: 4
#     Node 10, Type 0, BuildingBlock: NAHDIM_clean_sbu_0, # of connection points: 4
#     Node 11, Type 0, BuildingBlock: NAHDIM_clean_sbu_0, # of connection points: 4
#     Node 12, Type 0, BuildingBlock: NAHDIM_clean_sbu_0, # of connection points: 4
#     Node 13, Type 0, BuildingBlock: NAHDIM_clean_sbu_0, # of connection points: 4
#     Node 14, Type 0, BuildingBlock: NAHDIM_clean_sbu_0, # of connection points: 4
#     Node 15, Type 0, BuildingBlock: NAHDIM_clean_sbu_0, # of connection points: 4
#     Edge 16, Type (0, 0), BuildingBlock: KIFKEQ_clean_linker_1, # of connection points: 2
#     Edge 17, Type (0, 0), BuildingBlock: KIFKEQ_clean_linker_1, # of connection points: 2
#     Edge 18, Type (0, 0), BuildingBlock: KIFKEQ_clean_linker_1, # of connection points: 2
#     Edge 19, Type (0, 0), BuildingBlock: KIFKEQ_clean_linker_1, # of connection points: 2
#     Edge 20, Type (0, 0), BuildingBlock: KIFKEQ_clean_linker_1, # of connection points: 2
#     Edge 21, Type (0, 0), BuildingBlock: KIFKEQ_clean_linker_1, # of connection points: 2
#     Edge 22, Type (0, 0), BuildingBlock: KIFKEQ_clean_linker_1, # of connection points: 2
#     Edge 23, Type (0, 0), BuildingBlock: KIFKEQ_clean_linker_1, # of connection points: 2
#     Edge 24, Type (0, 0), BuildingBlock: KIFKEQ_clean_linker_1, # of connection points: 2
#     Edge 25, Type (0, 0), BuildingBlock: KIFKEQ_clean_linker_1, # of connection points: 2
#     Edge 26, Type (0, 0), BuildingBlock: KIFKEQ_clean_linker_1, # of connection points: 2
#     Edge 27, Type (0, 0), BuildingBlock: KIFKEQ_clean_linker_1, # of connection points: 2
#     Edge 28, Type (0, 0), BuildingBlock: KIFKEQ_clean_linker_1, # of connection points: 2
#     Edge 29, Type (0, 0), BuildingBlock: KIFKEQ_clean_linker_1, # of connection points: 2
#     Edge 30, Type (0, 0), BuildingBlock: KIFKEQ_clean_linker_1, # of connection points: 2
#     Edge 31, Type (0, 0), BuildingBlock: KIFKEQ_clean_linker_1, # of connection points: 2
#     Edge 32, Type (0, 0), BuildingBlock: KIFKEQ_clean_linker_1, # of connection points: 2
#     Edge 33, Type (0, 0), BuildingBlock: KIFKEQ_clean_linker_1, # of connection points: 2
#     Edge 34, Type (0, 0), BuildingBlock: KIFKEQ_clean_linker_1, # of connection points: 2
#     Edge 35, Type (0, 0), BuildingBlock: KIFKEQ_clean_linker_1, # of connection points: 2
#     Edge 36, Type (0, 0), BuildingBlock: KIFKEQ_clean_linker_1, # of connection points: 2
#     Edge 37, Type (0, 0), BuildingBlock: KIFKEQ_clean_linker_1, # of connection points: 2
#     Edge 38, Type (0, 0), BuildingBlock: KIFKEQ_clean_linker_1, # of connection points: 2
#     Edge 39, Type (0, 0), BuildingBlock: KIFKEQ_clean_linker_1, # of connection points: 2
#     Edge 40, Type (0, 0), BuildingBlock: KIFKEQ_clean_linker_1, # of connection points: 2
#     Edge 41, Type (0, 0), BuildingBlock: KIFKEQ_clean_linker_1, # of connection points: 2
#     Edge 42, Type (0, 0), BuildingBlock: KIFKEQ_clean_linker_1, # of connection points: 2
#     Edge 43, Type (0, 0), BuildingBlock: KIFKEQ_clean_linker_1, # of connection points: 2
#     Edge 44, Type (0, 0), BuildingBlock: KIFKEQ_clean_linker_1, # of connection points: 2
#     Edge 45, Type (0, 0), BuildingBlock: KIFKEQ_clean_linker_1, # of connection points: 2
#     Edge 46, Type (0, 0), BuildingBlock: KIFKEQ_clean_linker_1, # of connection points: 2
#     Edge 47, Type (0, 0), BuildingBlock: KIFKEQ_clean_linker_1, # of connection points: 2
# Relax obj value: 0.161
# Max RMSD: 0.165
# Mean RMSD: 0.149
data_MOF--net-gis--node1-NAHDIM_clean_sbu_0--edge1-KIFKEQ_clean_linker_1
_symmetry_space_group_name_H-M    P1
_symmetry_Int_Tables_number       1
_symmetry_cell_setting            triclinic
loop_
_symmetry_equiv_pos_as_xyz
'x, y, z'
_cell_length_a     49.804223
_cell_length_b     46.134652
_cell_length_c     48.619511
_cell_angle_alpha  91.553707
_cell_angle_beta   91.094676
_cell_angle_gamma 89.943487
loop_
_atom_site_label
_atom_site_type_symbol
_atom_site_fract_x
_atom_site_fract_y
_atom_site_fract_z
_atom_type_partial_charge
C0 C 0.19733 0.55638 0.16315 0.0
O1 O 0.20873 0.55946 0.13926 0.0
O2 O 0.15893 0.55103 0.09907 0.0
Zn3 Zn 0.15092 0.57528 0.13294 0.0
O4 O 0.1601 0.61716 0.12737 0.0
C5 C 0.09841 0.54935 0.13491 0.0
O6 O 0.11089 0.527 0.12372 0.0
O7 O 0.17237 0.5614 0.16524 0.0
C8 C 0.14461 0.63339 0.11354 0.0
O9 O 0.12249 0.62239 0.10242 0.0
C10 C 0.17269 0.56003 0.07928 0.0
O11 O 0.18292 0.58626 0.08081 0.0
O12 O 0.1116 0.57229 0.14095 0.0
C13 C 0.71055 0.93752 0.33484 0.0
O14 O 0.71898 0.93264 0.36007 0.0
O15 O 0.66917 0.94563 0.3933 0.0
Zn16 Zn 0.66017 0.9235 0.35805 0.0
O17 O 0.66315 0.88029 0.36291 0.0
C18 C 0.60522 0.94161 0.36336 0.0
O19 O 0.613 0.94578 0.38913 0.0
O20 O 0.68567 0.93511 0.32896 0.0
C21 C 0.64473 0.86656 0.37477 0.0
O22 O 0.62415 0.88101 0.38463 0.0
C23 C 0.67827 0.93404 0.41499 0.0
O24 O 0.68279 0.90599 0.41491 0.0
O25 O 0.62219 0.93265 0.34588 0.0
C26 C 0.33283 0.4453 0.5917 0.0
O27 O 0.33298 0.45869 0.6159 0.0
O28 O 0.327 0.40843 0.65447 0.0
Zn29 Zn 0.35195 0.39813 0.62374 0.0
O30 O 0.39016 0.40954 0.63276 0.0
C31 C 0.34255 0.33771 0.63368 0.0
O32 O 0.33531 0.34812 0.65784 0.0
O33 O 0.34007 0.41892 0.58999 0.0
C34 C 0.40536 0.3938 0.64742 0.0
O35 O 0.39548 0.37031 0.65807 0.0
C36 C 0.33267 0.42523 0.67488 0.0
O37 O 0.35652 0.43734 0.6768 0.0
O38 O 0.35038 0.3551 0.61565 0.0
C39 C 0.80946 0.04516 0.92397 0.0
O40 O 0.80829 0.03061 0.90037 0.0
O41 O 0.79506 0.07652 0.85884 0.0
Zn42 Zn 0.82118 0.09115 0.88817 0.0
O43 O 0.85937 0.08161 0.87848 0.0
C44 C 0.80954 0.14957 0.87245 0.0
O45 O 0.80192 0.13614 0.84944 0.0
O46 O 0.81396 0.07227 0.92399 0.0
C47 C 0.872 0.09477 0.8601 0.0
O48 O 0.85951 0.11464 0.84583 0.0
C49 C 0.8015 0.05993 0.83874 0.0
O50 O 0.82637 0.0507 0.8369 0.0
O51 O 0.81803 0.13468 0.89247 0.0
C52 C 0.19699 0.43594 0.82488 0.0
O53 O 0.20494 0.42944 0.84989 0.0
O54 O 0.15632 0.44955 0.88377 0.0
Zn55 Zn 0.14665 0.42659 0.84913 0.0
O56 O 0.15007 0.38365 0.85493 0.0
C57 C 0.09164 0.44281 0.85615 0.0
O58 O 0.10038 0.4469 0.88163 0.0
O59 O 0.17197 0.43682 0.81929 0.0
C60 C 0.13442 0.37016 0.87048 0.0
O61 O 0.11592 0.38471 0.88393 0.0
C62 C 0.16826 0.43884 0.90448 0.0
O63 O 0.17548 0.41144 0.90356 0.0
O64 O 0.10818 0.43482 0.83783 0.0
C65 C 0.83554 0.94307 0.17661 0.0
O66 O 0.83265 0.96067 0.15597 0.0
O67 O 0.85763 0.93398 0.10779 0.0
Zn68 Zn 0.8687 0.90876 0.13908 0.0
O69 O 0.85904 0.86727 0.1303 0.0
C70 C 0.92196 0.93391 0.14292 0.0
O71 O 0.90922 0.95817 0.13774 0.0
O72 O 0.85019 0.92066 0.17387 0.0
C73 C 0.86402 0.85502 0.10724 0.0
O74 O 0.87526 0.8701 0.08802 0.0
C75 C 0.83535 0.93054 0.09495 0.0
O76 O 0.81891 0.91006 0.10241 0.0
O77 O 0.90863 0.91061 0.14474 0.0
C78 C 0.31504 0.55277 0.41589 0.0
O79 O 0.30437 0.54072 0.39348 0.0
O80 O 0.31083 0.58058 0.34845 0.0
Zn81 Zn 0.337 0.59383 0.37814 0.0
O82 O 0.37465 0.58297 0.36786 0.0
C83 C 0.32709 0.65269 0.36286 0.0
O84 O 0.31934 0.63983 0.33962 0.0
O85 O 0.32905 0.57562 0.41409 0.0
C86 C 0.38505 0.59122 0.34573 0.0
O87 O 0.37064 0.60684 0.32873 0.0
C88 C 0.31521 0.55947 0.3318 0.0
O89 O 0.33746 0.5444 0.33439 0.0
O90 O 0.33517 0.63732 0.38268 0.0
C91 C 0.67699 0.04877 0.67421 0.0
O92 O 0.67769 0.02788 0.65533 0.0
O93 O 0.65517 0.05251 0.60375 0.0
Zn94 Zn 0.64384 0.07979 0.63425 0.0
O95 O 0.652 0.12097 0.62478 0.0
C96 C 0.59369 0.05051 0.64139 0.0
O97 O 0.60932 0.02755 0.64111 0.0
O98 O 0.66367 0.07167 0.66948 0.0
C99 C 0.63668 0.13604 0.60962 0.0
O100 O 0.6146 0.12436 0.5991 0.0
C101 C 0.67314 0.0589 0.58674 0.0
O102 O 0.68547 0.08401 0.58939 0.0
O103 O 0.60413 0.07544 0.63926 0.0
C104 C 0.79424 0.44088 0.81109 0.0
O105 O 0.78252 0.43947 0.83498 0.0
O106 O 0.83111 0.44706 0.87594 0.0
Zn107 Zn 0.83828 0.42065 0.84342 0.0
O108 O 0.82624 0.38011 0.85097 0.0
C109 C 0.89147 0.43695 0.82386 0.0
O110 O 0.87856 0.45565 0.80857 0.0
O111 O 0.81896 0.43433 0.80947 0.0
C112 C 0.83937 0.36494 0.86803 0.0
O113 O 0.86034 0.37639 0.88101 0.0
C114 C 0.81336 0.44267 0.89379 0.0
O115 O 0.79753 0.41999 0.8909 0.0
O116 O 0.87827 0.42016 0.83886 0.0
C117 C 0.28956 0.05537 0.64619 0.0
O118 O 0.2818 0.06873 0.62389 0.0
O119 O 0.33315 0.04218 0.58399 0.0
Zn120 Zn 0.33967 0.0623 0.62071 0.0
O121 O 0.33414 0.10513 0.61741 0.0
C122 C 0.39267 0.03605 0.62341 0.0
O123 O 0.38215 0.01717 0.60558 0.0
O124 O 0.3142 0.04875 0.64921 0.0
C125 C 0.35128 0.12088 0.60587 0.0
O126 O 0.37257 0.10865 0.59499 0.0
C127 C 0.31753 0.05187 0.56541 0.0
O128 O 0.30407 0.07592 0.57019 0.0
O129 O 0.37804 0.05631 0.63311 0.0
C130 C 0.68116 0.56447 0.30964 0.0
O131 O 0.68974 0.56031 0.33493 0.0
O132 O 0.64369 0.56939 0.37122 0.0
Zn133 Zn 0.63724 0.59284 0.3374 0.0
O134 O 0.64652 0.63478 0.34481 0.0
C135 C 0.58441 0.56801 0.33042 0.0
O136 O 0.59681 0.54432 0.33809 0.0
O137 O 0.65895 0.57745 0.30572 0.0
C138 C 0.63622 0.64849 0.36503 0.0
O139 O 0.62038 0.63459 0.38148 0.0
C140 C 0.66113 0.57564 0.38984 0.0
O141 O 0.67655 0.59845 0.38721 0.0
O142 O 0.5979 0.59111 0.3279 0.0
C143 C 0.1837 0.94826 0.05071 0.0
O144 O 0.19283 0.96303 0.07239 0.0
O145 O 0.19704 0.92192 0.11788 0.0
Zn146 Zn 0.16816 0.90742 0.09136 0.0
O147 O 0.1315 0.91979 0.10379 0.0
C148 C 0.17741 0.84883 0.10875 0.0
O149 O 0.18716 0.8623 0.1309 0.0
O150 O 0.17315 0.92354 0.05388 0.0
C151 C 0.12118 0.91086 0.1257 0.0
O152 O 0.13519 0.89366 0.14159 0.0
C153 C 0.19326 0.94215 0.13565 0.0
O154 O 0.16974 0.955 0.1367 0.0
O155 O 0.16868 0.8637 0.08884 0.0
C156 C 0.80403 0.55314 0.14961 0.0
O157 O 0.79772 0.54116 0.12555 0.0
O158 O 0.83942 0.55874 0.08578 0.0
Zn159 Zn 0.84634 0.58271 0.12016 0.0
O160 O 0.83913 0.62462 0.11287 0.0
C161 C 0.89661 0.55512 0.13508 0.0
O162 O 0.88198 0.53143 0.13484 0.0
O163 O 0.82381 0.57049 0.15171 0.0
C164 C 0.85453 0.63782 0.09686 0.0
O165 O 0.87393 0.6233 0.08476 0.0
C166 C 0.81915 0.56209 0.06993 0.0
O167 O 0.8009 0.58156 0.07643 0.0
O168 O 0.88542 0.57921 0.13008 0.0
C169 C 0.17218 0.0817 0.80936 0.0
O170 O 0.18366 0.09217 0.83207 0.0
O171 O 0.14129 0.07547 0.87436 0.0
Zn172 Zn 0.12686 0.09527 0.84085 0.0
O173 O 0.13263 0.13831 0.84488 0.0
C174 C 0.07345 0.08564 0.8583 0.0
O175 O 0.08583 0.08729 0.88239 0.0
O176 O 0.14671 0.08057 0.80776 0.0
C177 C 0.13123 0.15174 0.86797 0.0
O178 O 0.12632 0.13708 0.89011 0.0
C179 C 0.14713 0.04866 0.8733 0.0
O180 O 0.1439 0.03401 0.84992 0.0
O181 O 0.08711 0.08788 0.83664 0.0
C182 C 0.66109 0.4594 0.56207 0.0
O183 O 0.65946 0.47327 0.58593 0.0
O184 O 0.67822 0.42358 0.62568 0.0
Zn185 Zn 0.65163 0.411 0.59598 0.0
O186 O 0.61366 0.41907 0.6074 0.0
C187 C 0.66336 0.35193 0.60873 0.0
O188 O 0.67146 0.36437 0.63204 0.0
O189 O 0.65865 0.43197 0.56111 0.0
C190 C 0.60479 0.41028 0.63006 0.0
O191 O 0.62119 0.39694 0.64701 0.0
C192 C 0.67403 0.44323 0.64392 0.0
O193 O 0.65123 0.45757 0.6435 0.0
O194 O 0.65461 0.36769 0.58946 0.0
C195 C 0.32297 0.95661 0.29505 0.0
O196 O 0.32269 0.97788 0.31356 0.0
O197 O 0.34361 0.95082 0.36734 0.0
Zn198 Zn 0.35272 0.92326 0.33644 0.0
O199 O 0.34089 0.8832 0.34567 0.0
C200 C 0.40688 0.94021 0.32033 0.0
O201 O 0.39488 0.95948 0.30493 0.0
O202 O 0.3349 0.93307 0.30058 0.0
C203 C 0.35398 0.86841 0.36304 0.0
O204 O 0.37503 0.88003 0.37575 0.0
C205 C 0.32107 0.95218 0.37907 0.0
O206 O 0.30116 0.93582 0.36969 0.0
O207 O 0.39283 0.92294 0.33399 0.0
H208 H 0.15842 0.81407 0.06618 0.0
H209 H 0.19057 0.81121 0.14927 0.0
H210 H 0.15222 0.76162 0.06566 0.0
H211 H 0.18377 0.75898 0.14897 0.0
H212 H 0.1897 0.66224 0.13192 0.0
H213 H 0.19946 0.71378 0.12895 0.0
H214 H 0.12345 0.72661 0.08665 0.0
H215 H 0.11397 0.67495 0.08903 0.0
C216 C 0.16422 0.80226 0.08431 0.0
C217 C 0.17493 0.81685 0.10779 0.0
C218 C 0.16051 0.77222 0.08407 0.0
C219 C 0.16739 0.75609 0.10731 0.0
C220 C 0.17857 0.77065 0.13059 0.0
C221 C 0.18233 0.80066 0.13081 0.0
C222 C 0.17512 0.67602 0.12185 0.0
C223 C 0.15099 0.6645 0.11081 0.0
C224 C 0.18066 0.70561 0.12027 0.0
C225 C 0.16219 0.72437 0.10767 0.0
C226 C 0.13827 0.71273 0.0962 0.0
C227 C 0.13276 0.68312 0.09771 0.0
H228 H 0.43636 0.90907 0.35687 0.0
H229 H 0.44424 0.97137 0.29265 0.0
H230 H 0.48449 0.91126 0.36586 0.0
H231 H 0.49282 0.97336 0.30174 0.0
H232 H 0.58236 0.93857 0.31158 0.0
H233 H 0.5344 0.93908 0.29946 0.0
H234 H 0.51546 0.95101 0.3853 0.0
H235 H 0.56311 0.95063 0.39747 0.0
C236 C 0.44836 0.92311 0.34451 0.0
C237 C 0.43642 0.94019 0.32412 0.0
C238 C 0.47593 0.92447 0.34981 0.0
C239 C 0.49227 0.94271 0.3347 0.0
C240 C 0.4806 0.95912 0.31367 0.0
C241 C 0.45284 0.95801 0.30853 0.0
C242 C 0.56795 0.94157 0.32782 0.0
C243 C 0.57652 0.94436 0.35551 0.0
C244 C 0.54056 0.94196 0.32085 0.0
C245 C 0.52131 0.94479 0.34148 0.0
C246 C 0.52992 0.94841 0.36903 0.0
C247 C 0.55721 0.94834 0.37596 0.0
H248 H 0.32741 0.29502 0.66788 0.0
H249 H 0.35742 0.30882 0.58643 0.0
H250 H 0.32841 0.24287 0.65908 0.0
H251 H 0.35794 0.25651 0.57746 0.0
H252 H 0.38628 0.16139 0.5875 0.0
H253 H 0.38299 0.21399 0.59275 0.0
H254 H 0.30608 0.20508 0.63126 0.0
H255 H 0.30955 0.15254 0.6265 0.0
C256 C 0.33404 0.28695 0.64802 0.0
C257 C 0.34239 0.30608 0.62789 0.0
C258 C 0.33444 0.25704 0.6429 0.0
C259 C 0.34319 0.24555 0.61754 0.0
C260 C 0.35135 0.26469 0.59731 0.0
C261 C 0.35092 0.29465 0.60241 0.0
C262 C 0.36857 0.17066 0.59688 0.0
C263 C 0.34828 0.15278 0.60678 0.0
C264 C 0.36663 0.20081 0.59977 0.0
C265 C 0.34437 0.21369 0.61261 0.0
C266 C 0.3237 0.1958 0.62171 0.0
C267 C 0.32564 0.16569 0.61884 0.0
H268 H 0.04077 0.08611 0.81227 0.0
H269 H 0.03914 0.07955 0.90074 0.0
H270 H 0.99172 0.08479 0.81033 0.0
H271 H 0.99035 0.07876 0.89882 0.0
H272 H 0.90358 0.05513 0.88615 0.0
H273 H 0.95209 0.04941 0.88352 0.0
H274 H 0.95482 0.11707 0.82391 0.0
H275 H 0.9062 0.12245 0.82612 0.0
C276 C 0.02998 0.08422 0.83126 0.0
C277 C 0.04385 0.08304 0.85667 0.0
C278 C 0.00189 0.08362 0.83016 0.0
C279 C 0.98714 0.0817 0.85441 0.0
C280 C 0.00109 0.07984 0.87971 0.0
C281 C 0.02909 0.0805 0.88082 0.0
C282 C 0.91447 0.06859 0.87226 0.0
C283 C 0.90105 0.08944 0.85653 0.0
C284 C 0.9423 0.06539 0.87085 0.0
C285 C 0.95734 0.08297 0.85371 0.0
C286 C 0.94379 0.10302 0.83716 0.0
C287 C 0.91593 0.10622 0.83855 0.0
H288 H 0.17005 0.33366 0.84508 0.0
H289 H 0.10273 0.33443 0.89991 0.0
H290 H 0.17135 0.28089 0.84604 0.0
H291 H 0.10375 0.28164 0.90044 0.0
H292 H 0.12744 0.18752 0.91357 0.0
H293 H 0.13033 0.24034 0.91581 0.0
H294 H 0.14358 0.24096 0.82826 0.0
H295 H 0.14119 0.18827 0.82608 0.0
C296 C 0.15557 0.32259 0.85741 0.0
C297 C 0.13619 0.33825 0.87231 0.0
C298 C 0.15624 0.29234 0.85783 0.0
C299 C 0.13756 0.27706 0.87318 0.0
C300 C 0.1186 0.29276 0.88863 0.0
C301 C 0.11792 0.32303 0.8882 0.0
C302 C 0.13113 0.19892 0.89483 0.0
C303 C 0.13401 0.18368 0.86963 0.0
C304 C 0.13265 0.22919 0.8961 0.0
C305 C 0.13714 0.24485 0.87221 0.0
C306 C 0.14045 0.22955 0.84711 0.0
C307 C 0.1389 0.19932 0.84583 0.0
H308 H 0.95387 0.88748 0.1543 0.0
H309 H 0.95721 0.97842 0.13545 0.0
H310 H 0.00259 0.88484 0.15338 0.0
H311 H 0.00619 0.97584 0.135 0.0
H312 H 0.08682 0.94539 0.09682 0.0
H313 H 0.03922 0.95334 0.1045 0.0
H314 H 0.044 0.90089 0.17671 0.0
H315 H 0.09164 0.89246 0.16876 0.0
C316 C 0.96501 0.90702 0.15029 0.0
C317 C 0.95163 0.93312 0.14472 0.0
C318 C 0.99299 0.90554 0.14998 0.0
C319 C 0.00826 0.93011 0.14406 0.0
C320 C 0.99494 0.95645 0.13931 0.0
C321 C 0.9669 0.95796 0.13969 0.0
C322 C 0.07782 0.93577 0.1145 0.0
C323 C 0.09297 0.91804 0.13202 0.0
C324 C 0.05054 0.94051 0.11901 0.0
C325 C 0.0378 0.92762 0.14113 0.0
C326 C 0.05318 0.91079 0.15926 0.0
C327 C 0.08049 0.90607 0.15477 0.0
H328 H 0.31513 0.69135 0.32299 0.0
H329 H 0.34106 0.68647 0.40808 0.0
H330 H 0.3194 0.74381 0.32572 0.0
H331 H 0.34465 0.73922 0.41103 0.0
H332 H 0.38244 0.82811 0.39171 0.0
H333 H 0.37352 0.77632 0.39373 0.0
H334 H 0.30063 0.78742 0.34548 0.0
H335 H 0.30995 0.83907 0.34281 0.0
C336 C 0.32142 0.7015 0.3424 0.0
C337 C 0.32791 0.68471 0.36527 0.0
C338 C 0.32368 0.73164 0.34403 0.0
C339 C 0.33237 0.74575 0.3686 0.0
C340 C 0.33824 0.72899 0.39169 0.0
C341 C 0.33606 0.69878 0.39004 0.0
C342 C 0.36437 0.81955 0.38177 0.0
C343 C 0.34707 0.83764 0.36684 0.0
C344 C 0.35917 0.78986 0.38306 0.0
C345 C 0.33647 0.77766 0.36957 0.0
C346 C 0.31857 0.79602 0.35565 0.0
C347 C 0.32384 0.82566 0.35424 0.0
H348 H 0.56459 0.00039 0.64413 0.0
H349 H 0.55593 0.09347 0.64081 0.0
H350 H 0.51582 0.99519 0.64324 0.0
H351 H 0.50733 0.08822 0.63938 0.0
H352 H 0.42076 0.07235 0.65877 0.0
H353 H 0.46921 0.07439 0.66644 0.0
H354 H 0.47907 0.00132 0.61005 0.0
H355 H 0.43057 0.99886 0.60281 0.0
C356 C 0.55231 0.01974 0.64333 0.0
C357 C 0.56416 0.04734 0.64245 0.0
C358 C 0.52436 0.01674 0.64268 0.0
C359 C 0.50768 0.04127 0.64119 0.0
C360 C 0.51957 0.06889 0.64092 0.0
C361 C 0.54747 0.07189 0.64155 0.0
C362 C 0.43322 0.05651 0.64823 0.0
C363 C 0.4218 0.03556 0.63002 0.0
C364 C 0.46101 0.05779 0.65252 0.0
C365 C 0.47803 0.03819 0.63867 0.0
C366 C 0.46652 0.01658 0.62124 0.0
C367 C 0.43871 0.01527 0.61697 0.0
H368 H 0.79762 0.18716 0.83164 0.0
H369 H 0.82373 0.18454 0.91682 0.0
H370 H 0.80269 0.23955 0.83283 0.0
H371 H 0.82808 0.23724 0.91825 0.0
H372 H 0.79535 0.33576 0.84735 0.0
H373 H 0.78519 0.28436 0.85096 0.0
H374 H 0.85751 0.27303 0.90007 0.0
H375 H 0.86723 0.32454 0.89713 0.0
C376 C 0.80408 0.1978 0.85076 0.0
C377 C 0.81043 0.18163 0.87408 0.0
C378 C 0.80683 0.22793 0.8515 0.0
C379 C 0.81586 0.24266 0.87562 0.0
C380 C 0.82147 0.22655 0.89921 0.0
C381 C 0.81882 0.19635 0.89844 0.0
C382 C 0.80896 0.32234 0.85912 0.0
C383 C 0.8322 0.3342 0.87179 0.0
C384 C 0.8032 0.29284 0.86108 0.0
C385 C 0.82063 0.27448 0.87562 0.0
C386 C 0.84346 0.28656 0.88897 0.0
C387 C 0.84914 0.3161 0.88714 0.0
H388 H 0.62054 0.68344 0.40808 0.0
H389 H 0.66152 0.68504 0.3306 0.0
H390 H 0.62503 0.73593 0.41295 0.0
H391 H 0.66527 0.73755 0.33502 0.0
H392 H 0.68568 0.83019 0.35965 0.0
H393 H 0.68611 0.77733 0.35986 0.0
H394 H 0.60592 0.77785 0.39236 0.0
H395 H 0.60584 0.83055 0.39293 0.0
C396 C 0.63055 0.69498 0.39211 0.0
C397 C 0.64053 0.68008 0.36888 0.0
C398 C 0.633 0.72511 0.39482 0.0
C399 C 0.64533 0.74104 0.37429 0.0
C400 C 0.65594 0.72599 0.35141 0.0
C401 C 0.65365 0.69586 0.34878 0.0
C402 C 0.66824 0.819 0.36704 0.0
C403 C 0.64568 0.83458 0.37618 0.0
C404 C 0.66842 0.78869 0.36702 0.0
C405 C 0.64601 0.77328 0.37602 0.0
C406 C 0.62369 0.78896 0.38567 0.0
C407 C 0.62357 0.81923 0.38582 0.0
H408 H 0.88883 0.67367 0.07082 0.0
H409 H 0.81551 0.67387 0.11696 0.0
H410 H 0.88816 0.72641 0.07088 0.0
H411 H 0.81441 0.72666 0.11632 0.0
H412 H 0.8447 0.81724 0.14426 0.0
H413 H 0.83969 0.76505 0.1387 0.0
H414 H 0.86602 0.76937 0.05472 0.0
H415 H 0.87176 0.82174 0.06055 0.0
C416 C 0.87231 0.68495 0.08057 0.0
C417 C 0.85239 0.66959 0.09416 0.0
C418 C 0.87183 0.71523 0.08046 0.0
C419 C 0.85134 0.73081 0.09379 0.0
C420 C 0.83076 0.71535 0.1063 0.0
C421 C 0.83131 0.68508 0.10654 0.0
C422 C 0.84923 0.80714 0.12452 0.0
C423 C 0.85885 0.82364 0.10291 0.0
C424 C 0.84616 0.77718 0.12126 0.0
C425 C 0.85249 0.76297 0.09626 0.0
C426 C 0.86132 0.7796 0.07436 0.0
C427 C 0.86449 0.80962 0.07766 0.0
H428 H 0.67928 0.31278 0.64671 0.0
H429 H 0.64509 0.31862 0.56466 0.0
H430 H 0.67453 0.2604 0.64407 0.0
H431 H 0.64089 0.26586 0.56178 0.0
H432 H 0.60504 0.17677 0.58498 0.0
H433 H 0.61368 0.22863 0.58226 0.0
H434 H 0.69124 0.21697 0.62179 0.0
H435 H 0.68235 0.16533 0.62513 0.0
C436 C 0.67106 0.30286 0.62794 0.0
C437 C 0.66245 0.31992 0.60595 0.0
C438 C 0.6685 0.27275 0.62635 0.0
C439 C 0.65732 0.2589 0.60271 0.0
C440 C 0.64928 0.27589 0.58041 0.0
C441 C 0.65184 0.3061 0.58201 0.0
C442 C 0.62403 0.18524 0.59287 0.0
C443 C 0.64286 0.16698 0.60556 0.0
C444 C 0.62906 0.21496 0.59116 0.0
C445 C 0.65307 0.227 0.60202 0.0
C446 C 0.67233 0.20849 0.6137 0.0
C447 C 0.66727 0.17885 0.6155 0.0
H448 H 0.06637 0.43843 0.80551 0.0
H449 H 0.05103 0.45093 0.89225 0.0
H450 H 0.0179 0.4374 0.79585 0.0
H451 H 0.00294 0.4498 0.88253 0.0
H452 H 0.92324 0.40672 0.85919 0.0
H453 H 0.97173 0.40956 0.86538 0.0
H454 H 0.97582 0.47042 0.7997 0.0
H455 H 0.92693 0.46773 0.7934 0.0
C456 C 0.05271 0.44119 0.82245 0.0
C457 C 0.06255 0.44457 0.84967 0.0
C458 C 0.02502 0.44069 0.81689 0.0
C459 C 0.00674 0.4432 0.83848 0.0
C460 C 0.01661 0.44738 0.86554 0.0
C461 C 0.04418 0.44818 0.87107 0.0
C462 C 0.93439 0.4206 0.84589 0.0
C463 C 0.92117 0.43715 0.8259 0.0
C464 C 0.96217 0.42233 0.84958 0.0
C465 C 0.97745 0.44045 0.83323 0.0
C466 C 0.96447 0.45626 0.81256 0.0
C467 C 0.93652 0.45477 0.80903 0.0
H468 H 0.54895 0.52404 0.33896 0.0
H469 H 0.55281 0.61376 0.31593 0.0
H470 H 0.50002 0.52691 0.33906 0.0
H471 H 0.50405 0.61672 0.3165 0.0
H472 H 0.41451 0.60826 0.30207 0.0
H473 H 0.46221 0.59984 0.29437 0.0
H474 H 0.46757 0.55117 0.36895 0.0
H475 H 0.41993 0.55911 0.37642 0.0
C476 C 0.53938 0.54428 0.33366 0.0
C477 C 0.55479 0.56873 0.32766 0.0
C478 C 0.51136 0.54596 0.33387 0.0
C479 C 0.49817 0.57209 0.32799 0.0
C480 C 0.51356 0.59618 0.32087 0.0
C481 C 0.54155 0.59452 0.32071 0.0
C482 C 0.42582 0.59552 0.31668 0.0
C483 C 0.41347 0.58453 0.33996 0.0
C484 C 0.45316 0.59081 0.31231 0.0
C485 C 0.46868 0.57493 0.33109 0.0
C486 C 0.45612 0.56319 0.35391 0.0
C487 C 0.42883 0.56794 0.3583 0.0
H488 H 0.56474 0.4308 0.59673 0.0
H489 H 0.57932 0.39497 0.67686 0.0
H490 H 0.51669 0.4299 0.60445 0.0
H491 H 0.53114 0.39486 0.68495 0.0
H492 H 0.44478 0.35984 0.66943 0.0
H493 H 0.49307 0.36737 0.66814 0.0
H494 H 0.48012 0.44989 0.63 0.0
H495 H 0.43177 0.44193 0.63054 0.0
C496 C 0.55772 0.42318 0.61621 0.0
C497 C 0.57585 0.4127 0.63607 0.0
C498 C 0.53012 0.42285 0.62072 0.0
C499 C 0.51999 0.41218 0.64529 0.0
C500 C 0.53823 0.40278 0.66562 0.0
C501 C 0.56586 0.40299 0.66104 0.0
C502 C 0.45221 0.37976 0.66107 0.0
C503 C 0.43444 0.40012 0.64981 0.0
C504 C 0.47994 0.38417 0.66048 0.0
C505 C 0.49053 0.40915 0.64876 0.0
C506 C 0.47267 0.43016 0.63869 0.0
C507 C 0.44494 0.42566 0.63914 0.0
H508 H 0.0674 0.58956 0.16167 0.0
H509 H 0.06302 0.50739 0.11697 0.0
H510 H 0.01873 0.58986 0.16553 0.0
H511 H 0.01427 0.50813 0.12009 0.0
H512 H 0.92751 0.50759 0.14651 0.0
H513 H 0.97643 0.50513 0.15012 0.0
H514 H 0.98114 0.59688 0.1351 0.0
H515 H 0.93249 0.59949 0.13228 0.0
C516 C 0.05605 0.57153 0.15271 0.0
C517 C 0.06906 0.54855 0.13884 0.0
C518 C 0.02813 0.57177 0.15481 0.0
C519 C 0.01254 0.54915 0.14291 0.0
C520 C 0.02565 0.52574 0.12976 0.0
C521 C 0.05361 0.52541 0.12781 0.0
C522 C 0.93901 0.52727 0.14425 0.0
C523 C 0.92611 0.55371 0.13903 0.0
C524 C 0.96704 0.52582 0.14616 0.0
C525 C 0.98273 0.55078 0.14283 0.0
C526 C 0.96972 0.57731 0.1382 0.0
C527 C 0.94177 0.57877 0.13639 0.0
H528 H 0.19484 0.57485 0.03057 0.0
H529 H 0.15736 0.5036 0.07117 0.0
H530 H 0.19713 0.54531 0.98824 0.0
H531 H 0.15948 0.47428 0.02884 0.0
H532 H 0.18727 0.42134 0.9545 0.0
H533 H 0.19173 0.45044 -0.00296 0.0
H534 H 0.16329 0.52576 0.95436 0.0
H535 H 0.15902 0.49685 0.91183 0.0
C536 C 0.18728 0.55284 0.03054 0.0
C537 C 0.17578 0.54162 0.05418 0.0
C538 C 0.18849 0.536 0.00626 0.0
C539 C 0.17842 0.50753 0.00523 0.0
C540 C 0.16766 0.49604 0.0291 0.0
C541 C 0.16629 0.51292 0.05329 0.0
C542 C 0.18219 0.44416 0.95414 0.0
C543 C 0.17265 0.45675 0.92983 0.0
C544 C 0.18464 0.46077 0.97852 0.0
C545 C 0.17779 0.49034 0.97902 0.0
C546 C 0.16899 0.5031 0.95454 0.0
C547 C 0.16638 0.48647 0.93022 0.0
H548 H 0.69968 0.94871 0.28086 0.0
H549 H 0.76524 0.94054 0.33972 0.0
H550 H 0.73174 0.95467 0.24426 0.0
H551 H 0.7973 0.94693 0.30307 0.0
H552 H 0.83967 0.91297 0.22399 0.0
H553 H 0.81061 0.91625 0.26356 0.0
H554 H 0.76686 0.98642 0.22629 0.0
H555 H 0.79581 0.98291 0.18632 0.0
C556 C 0.72092 0.94856 0.28606 0.0
C557 C 0.72992 0.94383 0.31315 0.0
C558 C 0.73929 0.95221 0.2651 0.0
C559 C 0.76704 0.95114 0.27078 0.0
C560 C 0.77603 0.94749 0.29804 0.0
C561 C 0.75765 0.94392 0.31903 0.0
C562 C 0.82406 0.92934 0.22432 0.0
C563 C 0.81987 0.9475 0.20189 0.0
C564 C 0.80752 0.93135 0.24712 0.0
C565 C 0.78638 0.95151 0.24798 0.0
C566 C 0.78282 0.97045 0.22604 0.0
C567 C 0.79948 0.96853 0.20323 0.0
H568 H 0.31787 0.5021 0.58784 0.0
H569 H 0.3319 0.42429 0.53864 0.0
H570 H 0.30914 0.5289 0.54603 0.0
H571 H 0.3237 0.45118 0.49695 0.0
H572 H 0.28947 0.50198 0.4267 0.0
H573 H 0.28958 0.47651 0.47004 0.0
H574 H 0.33651 0.54563 0.5086 0.0
H575 H 0.33597 0.57133 0.46559 0.0
C576 C 0.31896 0.49068 0.56813 0.0
C577 C 0.32578 0.46113 0.56654 0.0
C578 C 0.31406 0.50606 0.54419 0.0
C579 C 0.31584 0.49219 0.51819 0.0
C580 C 0.32184 0.46243 0.51667 0.0
C581 C 0.32675 0.44706 0.54058 0.0
C582 C 0.29954 0.5119 0.44452 0.0
C583 C 0.31291 0.53856 0.44264 0.0
C584 C 0.29971 0.49723 0.46929 0.0
C585 C 0.3132 0.50896 0.49268 0.0
C586 C 0.32569 0.53614 0.49105 0.0
C587 C 0.32553 0.55079 0.46631 0.0
H588 H 0.68033 0.08884 0.71633 0.0
H589 H 0.70999 0.00452 0.6905 0.0
H590 H 0.709 0.08782 0.75716 0.0
H591 H 0.73839 0.0032 0.73201 0.0
H592 H 0.81032 0.03357 0.78864 0.0
H593 H 0.77846 0.02766 0.7502 0.0
H594 H 0.71575 0.06466 0.80039 0.0
H595 H 0.74773 0.07131 0.83851 0.0
C596 C 0.69273 0.06988 0.71953 0.0
C597 C 0.69297 0.04682 0.70005 0.0
C598 C 0.70905 0.0692 0.74311 0.0
C599 C 0.72598 0.04541 0.74791 0.0
C600 C 0.72579 0.02199 0.72876 0.0
C601 C 0.70942 0.02268 0.70506 0.0
C602 C 0.78967 0.04015 0.79155 0.0
C603 C 0.78163 0.05325 0.8165 0.0
C604 C 0.77136 0.0366 0.76956 0.0
C605 C 0.74462 0.04596 0.77213 0.0
C606 C 0.73633 0.05776 0.79755 0.0
C607 C 0.75464 0.06145 0.81945 0.0
H608 H 0.77511 0.4437 0.93359 0.0
H609 H 0.84875 0.48504 0.91002 0.0
H610 H 0.77504 0.47347 0.97608 0.0
H611 H 0.84862 0.51446 0.95234 0.0
H612 H 0.85779 0.52883 0.04593 0.0
H613 H 0.85467 0.50104 0.00272 0.0
H614 H 0.77214 0.52784 -0.00798 0.0
H615 H 0.77521 0.55601 0.03545 0.0
C616 C 0.79114 0.45923 0.93737 0.0
C617 C 0.81202 0.46188 0.91854 0.0
C618 C 0.79101 0.47632 0.96159 0.0
C619 C 0.81194 0.49603 0.9675 0.0
C620 C 0.83243 0.49916 0.94839 0.0
C621 C 0.8324 0.48239 0.92411 0.0
C622 C 0.83893 0.5288 0.03445 0.0
C623 C 0.81675 0.54469 0.04405 0.0
C624 C 0.83722 0.51301 0.00964 0.0
C625 C 0.81322 0.51248 -0.00598 0.0
C626 C 0.79084 0.52787 0.00378 0.0
C627 C 0.79265 0.54405 0.02852 0.0
H628 H 0.2267 0.08378 0.80584 0.0
H629 H 0.15511 0.05859 0.75958 0.0
H630 H 0.25387 0.07189 0.76611 0.0
H631 H 0.18248 0.046 0.71989 0.0
H632 H 0.29971 0.03232 0.69667 0.0
H633 H 0.2703 0.03324 0.73624 0.0
H634 H 0.20781 0.07287 0.68711 0.0
H635 H 0.23685 0.0713 0.6475 0.0
C636 C 0.21678 0.07535 0.78729 0.0
C637 C 0.18872 0.07241 0.78578 0.0
C638 C 0.23241 0.06828 0.76456 0.0
C639 C 0.22035 0.05801 0.7398 0.0
C640 C 0.19234 0.0542 0.73856 0.0
C641 C 0.17668 0.06133 0.76132 0.0
C642 C 0.27953 0.04077 0.6942 0.0
C643 C 0.27073 0.05205 0.66903 0.0
C644 C 0.26274 0.04145 0.71692 0.0
C645 C 0.23683 0.05345 0.71492 0.0
C646 C 0.22756 0.06326 0.68933 0.0
C647 C 0.24431 0.06253 0.66663 0.0
H648 H 0.63294 0.52671 0.40073 0.0
H649 H 0.69471 0.58374 0.43462 0.0
H650 H 0.63537 0.49808 0.44199 0.0
H651 H 0.69742 0.55469 0.47582 0.0
H652 H 0.66683 0.51788 0.55731 0.0
H653 H 0.66898 0.54514 0.51521 0.0
H654 H 0.66499 0.46516 0.467 0.0
H655 H 0.66238 0.43784 0.50912 0.0
C656 C 0.64721 0.53302 0.41689 0.0
C657 C 0.66356 0.55759 0.41444 0.0
C658 C 0.64872 0.51646 0.44047 0.0
C659 C 0.6666 0.5241 0.46216 0.0
C660 C 0.68324 0.54844 0.45957 0.0
C661 C 0.68177 0.56499 0.43592 0.0
C662 C 0.66657 0.50607 0.53775 0.0
C663 C 0.66424 0.4757 0.53656 0.0
C664 C 0.66799 0.5217 0.51362 0.0
C665 C 0.66705 0.50732 0.48778 0.0
C666 C 0.66538 0.47689 0.4866 0.0
C667 C 0.66402 0.46124 0.51074 0.0
H668 H 0.29268 0.00223 0.27674 0.0
H669 H 0.31757 0.91506 0.2545 0.0
H670 H 0.26374 0.00305 0.23559 0.0
H671 H 0.28824 0.91551 0.21423 0.0
H672 H 0.24616 0.92696 0.13426 0.0
H673 H 0.28029 0.93495 0.17017 0.0
H674 H 0.22229 0.98092 0.21999 0.0
H675 H 0.18845 0.97385 0.1836 0.0
C676 C 0.29214 0.98335 0.263 0.0
C677 C 0.30731 0.95853 0.26899 0.0
C678 C 0.27544 0.98375 0.23952 0.0
C679 C 0.27357 0.95932 0.22162 0.0
C680 C 0.28945 0.93491 0.22725 0.0
C681 C 0.30616 0.93456 0.25055 0.0
C682 C 0.2408 0.93908 0.15275 0.0
C683 C 0.21454 0.94949 0.15625 0.0
C684 C 0.26033 0.94356 0.17339 0.0
C685 C 0.25397 0.95824 0.19816 0.0
C686 C 0.22799 0.96977 0.20111 0.0
C687 C 0.20851 0.96555 0.18031 0.0
H688 H 0.70378 0.06938 0.54198 0.0
H689 H 0.65434 0.00384 0.57772 0.0
H690 H 0.7091 0.03833 0.50096 0.0
H691 H 0.65951 0.97303 0.53669 0.0
H692 H 0.68996 0.91549 0.46685 0.0
H693 H 0.69284 0.94485 0.50939 0.0
H694 H 0.67769 0.02208 0.46328 0.0
H695 H 0.67501 0.99292 0.42082 0.0
C696 C 0.69428 0.04826 0.54122 0.0
C697 C 0.67846 0.03917 0.563 0.0
C698 C 0.69723 0.03056 0.51769 0.0
C699 C 0.68461 0.00333 0.51558 0.0
C700 C 0.66968 0.99378 0.53782 0.0
C701 C 0.66658 0.01154 0.56125 0.0
C702 C 0.68753 0.93877 0.46576 0.0
C703 C 0.68208 0.95186 0.4405 0.0
C704 C 0.68907 0.95554 0.49013 0.0
C705 C 0.68543 0.98573 0.48965 0.0
C706 C 0.68088 0.9989 0.46427 0.0
C707 C 0.67915 0.98215 0.43996 0.0
H708 H 0.3383 0.45763 0.72274 0.0
H709 H 0.28143 0.40465 0.67571 0.0
H710 H 0.30522 0.46462 0.75883 0.0
H711 H 0.24875 0.41125 0.71179 0.0
H712 H 0.18742 0.4463 0.77043 0.0
H713 H 0.22018 0.44772 0.73385 0.0
H714 H 0.28426 0.43449 0.79335 0.0
H715 H 0.25163 0.43359 0.82998 0.0
C716 C 0.31876 0.44757 0.72005 0.0
C717 C 0.31254 0.4305 0.69641 0.0
C718 C 0.29986 0.45149 0.74075 0.0
C719 C 0.27437 0.43852 0.73813 0.0
C720 C 0.26805 0.4219 0.71425 0.0
C721 C 0.2869 0.41793 0.69365 0.0
C722 C 0.20852 0.44403 0.77575 0.0
C723 C 0.2169 0.43956 0.80307 0.0
C724 C 0.22726 0.44471 0.75478 0.0
C725 C 0.25478 0.44096 0.76068 0.0
C726 C 0.26323 0.43768 0.78815 0.0
C727 C 0.24449 0.43698 0.80913 0.0
H728 H 0.79986 0.98759 0.93107 0.0
H729 H 0.81711 0.06767 0.97616 0.0
H730 H 0.80325 0.96114 0.97372 0.0
H731 H 0.82019 0.04118 0.01884 0.0
H732 H 0.86288 0.97741 0.07734 0.0
H733 H 0.85308 0.00621 0.03716 0.0
H734 H 0.78246 0.95433 0.01903 0.0
H735 H 0.7924 0.92518 0.0592 0.0
C736 C 0.804 -0.00039 0.95012 0.0
C737 C 0.80847 0.02969 0.95018 0.0
C738 C 0.8058 0.98446 0.97458 0.0
C739 C 0.81219 0.99906 -0.00042 0.0
C740 C 0.81561 0.0293 -0.0002 0.0
C741 C 0.8137 0.04448 0.97537 0.0
C742 C 0.84517 0.97221 0.0649 0.0
C743 C 0.8285 0.9489 0.07137 0.0
C744 C 0.83945 0.98887 0.04199 0.0
C745 C 0.81698 0.98255 0.02496 0.0
C746 C 0.80004 0.95955 0.03167 0.0
C747 C 0.80568 0.94295 0.05472 0.0
H748 H 0.25179 0.54936 0.16694 0.0
H749 H 0.18 0.54955 0.21555 0.0
H750 H 0.27919 0.54527 0.20873 0.0
H751 H 0.20741 0.54495 0.25724 0.0
H752 H 0.26657 0.58483 0.32246 0.0
H753 H 0.23736 0.57889 0.28213 0.0
H754 H 0.29159 0.51487 0.24797 0.0
H755 H 0.32121 0.52111 0.28836 0.0
C756 C 0.24183 0.54804 0.18648 0.0
C757 C 0.21374 0.55019 0.18796 0.0
C758 C 0.25753 0.54551 0.21041 0.0
C759 C 0.24545 0.54506 0.23629 0.0
C760 C 0.2173 0.54573 0.23762 0.0
C761 C 0.20161 0.54826 0.21371 0.0
C762 C 0.27218 0.56925 0.30652 0.0
C763 C 0.29632 0.55359 0.30852 0.0
C764 C 0.25531 0.56569 0.28346 0.0
C765 C 0.26219 0.54642 0.26185 0.0
C766 C 0.28591 0.53008 0.2642 0.0
C767 C 0.30279 0.53356 0.28738 0.0
H768 H 0.28153 0.06149 0.52332 0.0
H769 H 0.35005 0.00892 0.54569 0.0
H770 H 0.28072 0.03849 0.47728 0.0
H771 H 0.34922 0.98626 0.49985 0.0
H772 H 0.36079 0.98133 0.40733 0.0
H773 H 0.35821 0.0058 0.45212 0.0
H774 H 0.27345 0.98687 0.45461 0.0
H775 H 0.27592 0.96201 0.40952 0.0
C776 C 0.29631 0.04498 0.51847 0.0
C777 C 0.31593 0.0371 0.53808 0.0
C778 C 0.29575 0.03179 0.4922 0.0
C779 C 0.31504 0.01083 0.48504 0.0
C780 C 0.33433 0.00264 0.50478 0.0
C781 C 0.33469 0.01551 0.53106 0.0
C782 C 0.3415 0.98254 0.41722 0.0
C783 C 0.31858 0.9695 0.40494 0.0
C784 C 0.3401 0.99643 0.44295 0.0
C785 C 0.31571 0.99789 0.45689 0.0
C786 C 0.29249 0.98601 0.44422 0.0
C787 C 0.29394 0.97176 0.41849 0.0
H788 H 0.81435 0.56985 0.20298 0.0
H789 H 0.75487 0.52673 0.15052 0.0
H790 H 0.78428 0.56737 0.2417 0.0
H791 H 0.72479 0.52406 0.18951 0.0
H792 H 0.66928 0.56932 0.25482 0.0
H793 H 0.69936 0.56131 0.21639 0.0
H794 H 0.76184 0.53363 0.27266 0.0
H795 H 0.73189 0.54189 0.3112 0.0
C796 C 0.79499 0.5595 0.19979 0.0
C797 C 0.7869 0.54872 0.17363 0.0
C798 C 0.77783 0.55789 0.22204 0.0
C799 C 0.75215 0.5456 0.2186 0.0
C800 C 0.74439 0.5339 0.19267 0.0
C801 C 0.76166 0.53531 0.17041 0.0
C802 C 0.68932 0.5612 0.25898 0.0
C803 C 0.6983 0.55657 0.2861 0.0
C804 C 0.70649 0.55642 0.23693 0.0
C805 C 0.733 0.54701 0.24156 0.0
C806 C 0.74161 0.54123 0.26854 0.0
C807 C 0.72441 0.54587 0.29059 0.0
H808 H 0.16077 0.92628 0.00312 0.0
H809 H 0.20478 0.00034 0.03646 0.0
H810 H 0.15511 0.95039 0.95954 0.0
H811 H 0.19973 0.02417 -0.00749 0.0
H812 H 0.15095 0.07139 0.92565 0.0
H813 H 0.16328 0.04635 0.96742 0.0
H814 H 0.17713 0.96766 0.91948 0.0
H815 H 0.16407 0.99257 0.87769 0.0
C816 C 0.16964 0.94752 0.00101 0.0
C817 C 0.183 0.96152 0.02335 0.0
C818 C 0.16652 0.96129 0.97593 0.0
C819 C 0.17682 0.9893 0.97258 0.0
C820 C 0.19115 0.0028 -0.00542 0.0
C821 C 0.19418 0.98907 0.01972 0.0
C822 C 0.1568 0.0488 0.92398 0.0
C823 C 0.15634 0.0339 0.89838 0.0
C824 C 0.16407 0.03448 0.94792 0.0
C825 C 0.17117 0.00497 0.94681 0.0
C826 C 0.1714 0.99029 0.92109 0.0
C827 C 0.16402 0.00459 0.89713 0.0
H828 H 0.72161 0.41507 0.65202 0.0
H829 H 0.6711 0.48201 0.68741 0.0
H830 H 0.75195 0.41927 0.69164 0.0
H831 H 0.70194 0.48668 0.72691 0.0
H832 H 0.7405 0.45195 0.80737 0.0
H833 H 0.71313 0.4569 0.76582 0.0
H834 H 0.78424 0.4497 0.71652 0.0
H835 H 0.81164 0.44403 0.75817 0.0
C836 C 0.71718 0.43102 0.66806 0.0
C837 C 0.69379 0.44802 0.66668 0.0
C838 C 0.73473 0.43358 0.69071 0.0
C839 C 0.72933 0.45325 0.7125 0.0
C840 C 0.70646 0.47104 0.71063 0.0
C841 C 0.68886 0.46846 0.68794 0.0
C842 C 0.75037 0.45173 0.7877 0.0
C843 C 0.77821 0.44724 0.78605 0.0
C844 C 0.73468 0.4548 0.76387 0.0
C845 C 0.74648 0.45352 0.73783 0.0
C846 C 0.77449 0.45032 0.73626 0.0
C847 C 0.7902 0.4472 0.76012 0.0
loop_
_geom_bond_atom_site_label_1
_geom_bond_atom_site_label_2
_geom_bond_distance
_geom_bond_site_symmetry_2
_ccdc_geom_bond_type
C0 O1 1.160 . S
C0 O7 1.185 . S
O1 C0 1.160 . S
O2 Zn3 1.899 . S
O2 C10 1.284 . S
Zn3 O2 1.899 . S
Zn3 O4 2.032 . S
Zn3 O7 2.086 . S
Zn3 O12 1.977 . S
O4 Zn3 2.032 . S
O4 C8 1.278 . S
C5 O6 1.203 . S
C5 O12 1.267 . S
O6 C5 1.203 . S
O7 C0 1.185 . S
O7 Zn3 2.086 . S
C8 O4 1.278 . S
C8 O9 1.211 . S
O9 C8 1.211 . S
C10 O2 1.284 . S
C10 O11 1.273 . S
O11 C10 1.273 . S
O12 Zn3 1.977 . S
O12 C5 1.267 . S
C13 O14 1.160 . S
C13 O20 1.185 . S
O14 C13 1.160 . S
O15 Zn16 1.899 . S
O15 C23 1.284 . S
Zn16 O15 1.899 . S
Zn16 O17 2.032 . S
Zn16 O20 2.086 . S
Zn16 O25 1.977 . S
O17 Zn16 2.032 . S
O17 C21 1.278 . S
C18 O19 1.203 . S
C18 O25 1.267 . S
O19 C18 1.203 . S
O20 C13 1.185 . S
O20 Zn16 2.086 . S
C21 O17 1.278 . S
C21 O22 1.211 . S
O22 C21 1.211 . S
C23 O15 1.284 . S
C23 O24 1.273 . S
O24 C23 1.273 . S
O25 Zn16 1.977 . S
O25 C18 1.267 . S
C26 O27 1.160 . S
C26 O33 1.185 . S
O27 C26 1.160 . S
O28 Zn29 1.899 . S
O28 C36 1.284 . S
Zn29 O28 1.899 . S
Zn29 O30 2.032 . S
Zn29 O33 2.086 . S
Zn29 O38 1.977 . S
O30 Zn29 2.032 . S
O30 C34 1.278 . S
C31 O32 1.203 . S
C31 O38 1.267 . S
O32 C31 1.203 . S
O33 C26 1.185 . S
O33 Zn29 2.086 . S
C34 O30 1.278 . S
C34 O35 1.211 . S
O35 C34 1.211 . S
C36 O28 1.284 . S
C36 O37 1.273 . S
O37 C36 1.273 . S
O38 Zn29 1.977 . S
O38 C31 1.267 . S
C39 O40 1.160 . S
C39 O46 1.185 . S
O40 C39 1.160 . S
O41 Zn42 1.899 . S
O41 C49 1.284 . S
Zn42 O41 1.899 . S
Zn42 O43 2.032 . S
Zn42 O46 2.086 . S
Zn42 O51 1.977 . S
O43 Zn42 2.032 . S
O43 C47 1.278 . S
C44 O45 1.203 . S
C44 O51 1.267 . S
O45 C44 1.203 . S
O46 C39 1.185 . S
O46 Zn42 2.086 . S
C47 O43 1.278 . S
C47 O48 1.211 . S
O48 C47 1.211 . S
C49 O41 1.284 . S
C49 O50 1.273 . S
O50 C49 1.273 . S
O51 Zn42 1.977 . S
O51 C44 1.267 . S
C52 O53 1.160 . S
C52 O59 1.185 . S
O53 C52 1.160 . S
O54 Zn55 1.899 . S
O54 C62 1.284 . S
Zn55 O54 1.899 . S
Zn55 O56 2.032 . S
Zn55 O59 2.086 . S
Zn55 O64 1.977 . S
O56 Zn55 2.032 . S
O56 C60 1.278 . S
C57 O58 1.203 . S
C57 O64 1.267 . S
O58 C57 1.203 . S
O59 C52 1.185 . S
O59 Zn55 2.086 . S
C60 O56 1.278 . S
C60 O61 1.211 . S
O61 C60 1.211 . S
C62 O54 1.284 . S
C62 O63 1.273 . S
O63 C62 1.273 . S
O64 Zn55 1.977 . S
O64 C57 1.267 . S
C65 O66 1.160 . S
C65 O72 1.185 . S
O66 C65 1.160 . S
O67 Zn68 1.899 . S
O67 C75 1.284 . S
Zn68 O67 1.899 . S
Zn68 O69 2.032 . S
Zn68 O72 2.086 . S
Zn68 O77 1.977 . S
O69 Zn68 2.032 . S
O69 C73 1.278 . S
C70 O71 1.203 . S
C70 O77 1.267 . S
O71 C70 1.203 . S
O72 C65 1.185 . S
O72 Zn68 2.086 . S
C73 O69 1.278 . S
C73 O74 1.211 . S
O74 C73 1.211 . S
C75 O67 1.284 . S
C75 O76 1.273 . S
O76 C75 1.273 . S
O77 Zn68 1.977 . S
O77 C70 1.267 . S
C78 O79 1.160 . S
C78 O85 1.185 . S
O79 C78 1.160 . S
O80 Zn81 1.899 . S
O80 C88 1.284 . S
Zn81 O80 1.899 . S
Zn81 O82 2.032 . S
Zn81 O85 2.086 . S
Zn81 O90 1.977 . S
O82 Zn81 2.032 . S
O82 C86 1.278 . S
C83 O84 1.203 . S
C83 O90 1.267 . S
O84 C83 1.203 . S
O85 C78 1.185 . S
O85 Zn81 2.086 . S
C86 O82 1.278 . S
C86 O87 1.211 . S
O87 C86 1.211 . S
C88 O80 1.284 . S
C88 O89 1.273 . S
O89 C88 1.273 . S
O90 Zn81 1.977 . S
O90 C83 1.267 . S
C91 O92 1.160 . S
C91 O98 1.185 . S
O92 C91 1.160 . S
O93 Zn94 1.899 . S
O93 C101 1.284 . S
Zn94 O93 1.899 . S
Zn94 O95 2.032 . S
Zn94 O98 2.086 . S
Zn94 O103 1.977 . S
O95 Zn94 2.032 . S
O95 C99 1.278 . S
C96 O97 1.203 . S
C96 O103 1.267 . S
O97 C96 1.203 . S
O98 C91 1.185 . S
O98 Zn94 2.086 . S
C99 O95 1.278 . S
C99 O100 1.211 . S
O100 C99 1.211 . S
C101 O93 1.284 . S
C101 O102 1.273 . S
O102 C101 1.273 . S
O103 Zn94 1.977 . S
O103 C96 1.267 . S
C104 O105 1.160 . S
C104 O111 1.185 . S
O105 C104 1.160 . S
O106 Zn107 1.899 . S
O106 C114 1.284 . S
Zn107 O106 1.899 . S
Zn107 O108 2.032 . S
Zn107 O111 2.086 . S
Zn107 O116 1.977 . S
O108 Zn107 2.032 . S
O108 C112 1.278 . S
C109 O110 1.203 . S
C109 O116 1.267 . S
O110 C109 1.203 . S
O111 C104 1.185 . S
O111 Zn107 2.086 . S
C112 O108 1.278 . S
C112 O113 1.211 . S
O113 C112 1.211 . S
C114 O106 1.284 . S
C114 O115 1.273 . S
O115 C114 1.273 . S
O116 Zn107 1.977 . S
O116 C109 1.267 . S
C117 O118 1.160 . S
C117 O124 1.185 . S
O118 C117 1.160 . S
O119 Zn120 1.899 . S
O119 C127 1.284 . S
Zn120 O119 1.899 . S
Zn120 O121 2.032 . S
Zn120 O124 2.086 . S
Zn120 O129 1.977 . S
O121 Zn120 2.032 . S
O121 C125 1.278 . S
C122 O123 1.203 . S
C122 O129 1.267 . S
O123 C122 1.203 . S
O124 C117 1.185 . S
O124 Zn120 2.086 . S
C125 O121 1.278 . S
C125 O126 1.211 . S
O126 C125 1.211 . S
C127 O119 1.284 . S
C127 O128 1.273 . S
O128 C127 1.273 . S
O129 Zn120 1.977 . S
O129 C122 1.267 . S
C130 O131 1.160 . S
C130 O137 1.185 . S
O131 C130 1.160 . S
O132 Zn133 1.899 . S
O132 C140 1.284 . S
Zn133 O132 1.899 . S
Zn133 O134 2.032 . S
Zn133 O137 2.086 . S
Zn133 O142 1.977 . S
O134 Zn133 2.032 . S
O134 C138 1.278 . S
C135 O136 1.203 . S
C135 O142 1.267 . S
O136 C135 1.203 . S
O137 C130 1.185 . S
O137 Zn133 2.086 . S
C138 O134 1.278 . S
C138 O139 1.211 . S
O139 C138 1.211 . S
C140 O132 1.284 . S
C140 O141 1.273 . S
O141 C140 1.273 . S
O142 Zn133 1.977 . S
O142 C135 1.267 . S
C143 O144 1.160 . S
C143 O150 1.185 . S
O144 C143 1.160 . S
O145 Zn146 1.899 . S
O145 C153 1.284 . S
Zn146 O145 1.899 . S
Zn146 O147 2.032 . S
Zn146 O150 2.086 . S
Zn146 O155 1.977 . S
O147 Zn146 2.032 . S
O147 C151 1.278 . S
C148 O149 1.203 . S
C148 O155 1.267 . S
O149 C148 1.203 . S
O150 C143 1.185 . S
O150 Zn146 2.086 . S
C151 O147 1.278 . S
C151 O152 1.211 . S
O152 C151 1.211 . S
C153 O145 1.284 . S
C153 O154 1.273 . S
O154 C153 1.273 . S
O155 Zn146 1.977 . S
O155 C148 1.267 . S
C156 O157 1.160 . S
C156 O163 1.185 . S
O157 C156 1.160 . S
O158 Zn159 1.899 . S
O158 C166 1.284 . S
Zn159 O158 1.899 . S
Zn159 O160 2.032 . S
Zn159 O163 2.086 . S
Zn159 O168 1.977 . S
O160 Zn159 2.032 . S
O160 C164 1.278 . S
C161 O162 1.203 . S
C161 O168 1.267 . S
O162 C161 1.203 . S
O163 C156 1.185 . S
O163 Zn159 2.086 . S
C164 O160 1.278 . S
C164 O165 1.211 . S
O165 C164 1.211 . S
C166 O158 1.284 . S
C166 O167 1.273 . S
O167 C166 1.273 . S
O168 Zn159 1.977 . S
O168 C161 1.267 . S
C169 O170 1.160 . S
C169 O176 1.185 . S
O170 C169 1.160 . S
O171 Zn172 1.899 . S
O171 C179 1.284 . S
Zn172 O171 1.899 . S
Zn172 O173 2.032 . S
Zn172 O176 2.086 . S
Zn172 O181 1.977 . S
O173 Zn172 2.032 . S
O173 C177 1.278 . S
C174 O175 1.203 . S
C174 O181 1.267 . S
O175 C174 1.203 . S
O176 C169 1.185 . S
O176 Zn172 2.086 . S
C177 O173 1.278 . S
C177 O178 1.211 . S
O178 C177 1.211 . S
C179 O171 1.284 . S
C179 O180 1.273 . S
O180 C179 1.273 . S
O181 Zn172 1.977 . S
O181 C174 1.267 . S
C182 O183 1.160 . S
C182 O189 1.185 . S
O183 C182 1.160 . S
O184 Zn185 1.899 . S
O184 C192 1.284 . S
Zn185 O184 1.899 . S
Zn185 O186 2.032 . S
Zn185 O189 2.086 . S
Zn185 O194 1.977 . S
O186 Zn185 2.032 . S
O186 C190 1.278 . S
C187 O188 1.203 . S
C187 O194 1.267 . S
O188 C187 1.203 . S
O189 C182 1.185 . S
O189 Zn185 2.086 . S
C190 O186 1.278 . S
C190 O191 1.211 . S
O191 C190 1.211 . S
C192 O184 1.284 . S
C192 O193 1.273 . S
O193 C192 1.273 . S
O194 Zn185 1.977 . S
O194 C187 1.267 . S
C195 O196 1.160 . S
C195 O202 1.185 . S
O196 C195 1.160 . S
O197 Zn198 1.899 . S
O197 C205 1.284 . S
Zn198 O197 1.899 . S
Zn198 O199 2.032 . S
Zn198 O202 2.086 . S
Zn198 O207 1.977 . S
O199 Zn198 2.032 . S
O199 C203 1.278 . S
C200 O201 1.203 . S
C200 O207 1.267 . S
O201 C200 1.203 . S
O202 C195 1.185 . S
O202 Zn198 2.086 . S
C203 O199 1.278 . S
C203 O204 1.211 . S
O204 C203 1.211 . S
C205 O197 1.284 . S
C205 O206 1.273 . S
O206 C205 1.273 . S
O207 Zn198 1.977 . S
O207 C200 1.267 . S
H208 C216 0.950 . S
H209 C221 0.950 . S
H210 C218 0.950 . S
H211 C220 0.950 . S
H212 C222 0.950 . S
H213 C224 0.950 . S
H214 C226 0.950 . S
H215 C227 0.950 . S
C216 H208 0.950 . S
C216 C217 1.386 . S
C216 C218 1.391 . S
C217 C216 1.386 . S
C217 C221 1.393 . S
C218 H210 0.950 . S
C218 C216 1.391 . S
C218 C219 1.400 . S
C219 C218 1.400 . S
C219 C220 1.398 . S
C219 C225 1.491 . S
C220 H211 0.950 . S
C220 C219 1.398 . S
C220 C221 1.391 . S
C221 H209 0.950 . S
C221 C217 1.393 . S
C221 C220 1.391 . S
C222 H212 0.950 . S
C222 C223 1.386 . S
C222 C224 1.391 . S
C223 C222 1.386 . S
C223 C227 1.393 . S
C224 H213 0.950 . S
C224 C222 1.391 . S
C224 C225 1.400 . S
C225 C219 1.491 . S
C225 C224 1.400 . S
C225 C226 1.398 . S
C226 H214 0.950 . S
C226 C225 1.398 . S
C226 C227 1.391 . S
C227 H215 0.950 . S
C227 C223 1.393 . S
C227 C226 1.391 . S
H228 C236 0.950 . S
H229 C241 0.950 . S
H230 C238 0.950 . S
H231 C240 0.950 . S
H232 C242 0.950 . S
H233 C244 0.950 . S
H234 C246 0.950 . S
H235 C247 0.950 . S
C236 H228 0.950 . S
C236 C237 1.386 . S
C236 C238 1.391 . S
C237 C236 1.386 . S
C237 C241 1.393 . S
C238 H230 0.950 . S
C238 C236 1.391 . S
C238 C239 1.400 . S
C239 C238 1.400 . S
C239 C240 1.398 . S
C239 C245 1.491 . S
C240 H231 0.950 . S
C240 C239 1.398 . S
C240 C241 1.391 . S
C241 H229 0.950 . S
C241 C237 1.393 . S
C241 C240 1.391 . S
C242 H232 0.950 . S
C242 C243 1.386 . S
C242 C244 1.391 . S
C243 C242 1.386 . S
C243 C247 1.393 . S
C244 H233 0.950 . S
C244 C242 1.391 . S
C244 C245 1.400 . S
C245 C239 1.491 . S
C245 C244 1.400 . S
C245 C246 1.398 . S
C246 H234 0.950 . S
C246 C245 1.398 . S
C246 C247 1.391 . S
C247 H235 0.950 . S
C247 C243 1.393 . S
C247 C246 1.391 . S
H248 C256 0.950 . S
H249 C261 0.950 . S
H250 C258 0.950 . S
H251 C260 0.950 . S
H252 C262 0.950 . S
H253 C264 0.950 . S
H254 C266 0.950 . S
H255 C267 0.950 . S
C256 H248 0.950 . S
C256 C257 1.386 . S
C256 C258 1.391 . S
C257 C256 1.386 . S
C257 C261 1.393 . S
C258 H250 0.950 . S
C258 C256 1.391 . S
C258 C259 1.400 . S
C259 C258 1.400 . S
C259 C260 1.398 . S
C259 C265 1.491 . S
C260 H251 0.950 . S
C260 C259 1.398 . S
C260 C261 1.391 . S
C261 H249 0.950 . S
C261 C257 1.393 . S
C261 C260 1.391 . S
C262 H252 0.950 . S
C262 C263 1.386 . S
C262 C264 1.391 . S
C263 C262 1.386 . S
C263 C267 1.393 . S
C264 H253 0.950 . S
C264 C262 1.391 . S
C264 C265 1.400 . S
C265 C259 1.491 . S
C265 C264 1.400 . S
C265 C266 1.398 . S
C266 H254 0.950 . S
C266 C265 1.398 . S
C266 C267 1.391 . S
C267 H255 0.950 . S
C267 C263 1.393 . S
C267 C266 1.391 . S
H268 C276 0.950 . S
H269 C281 0.950 . S
H270 C278 0.950 . S
H271 C280 0.950 . S
H272 C282 0.950 . S
H273 C284 0.950 . S
H274 C286 0.950 . S
H275 C287 0.950 . S
C276 H268 0.950 . S
C276 C277 1.386 . S
C276 C278 1.391 . S
C277 C276 1.386 . S
C277 C281 1.393 . S
C278 H270 0.950 . S
C278 C276 1.391 . S
C278 C279 1.400 . S
C279 C278 1.400 . S
C279 C280 1.398 . S
C279 C285 1.491 1_455 S
C280 H271 0.950 . S
C280 C279 1.398 . S
C280 C281 1.391 . S
C281 H269 0.950 . S
C281 C277 1.393 . S
C281 C280 1.391 . S
C282 H272 0.950 . S
C282 C283 1.386 . S
C282 C284 1.391 . S
C283 C282 1.386 . S
C283 C287 1.393 . S
C284 H273 0.950 . S
C284 C282 1.391 . S
C284 C285 1.400 . S
C285 C279 1.491 1_655 S
C285 C284 1.400 . S
C285 C286 1.398 . S
C286 H274 0.950 . S
C286 C285 1.398 . S
C286 C287 1.391 . S
C287 H275 0.950 . S
C287 C283 1.393 . S
C287 C286 1.391 . S
H288 C296 0.950 . S
H289 C301 0.950 . S
H290 C298 0.950 . S
H291 C300 0.950 . S
H292 C302 0.950 . S
H293 C304 0.950 . S
H294 C306 0.950 . S
H295 C307 0.950 . S
C296 H288 0.950 . S
C296 C297 1.386 . S
C296 C298 1.391 . S
C297 C296 1.386 . S
C297 C301 1.393 . S
C298 H290 0.950 . S
C298 C296 1.391 . S
C298 C299 1.400 . S
C299 C298 1.400 . S
C299 C300 1.398 . S
C299 C305 1.491 . S
C300 H291 0.950 . S
C300 C299 1.398 . S
C300 C301 1.391 . S
C301 H289 0.950 . S
C301 C297 1.393 . S
C301 C300 1.391 . S
C302 H292 0.950 . S
C302 C303 1.386 . S
C302 C304 1.391 . S
C303 C302 1.386 . S
C303 C307 1.393 . S
C304 H293 0.950 . S
C304 C302 1.391 . S
C304 C305 1.400 . S
C305 C299 1.491 . S
C305 C304 1.400 . S
C305 C306 1.398 . S
C306 H294 0.950 . S
C306 C305 1.398 . S
C306 C307 1.391 . S
C307 H295 0.950 . S
C307 C303 1.393 . S
C307 C306 1.391 . S
H308 C316 0.950 . S
H309 C321 0.950 . S
H310 C318 0.950 . S
H311 C320 0.950 . S
H312 C322 0.950 . S
H313 C324 0.950 . S
H314 C326 0.950 . S
H315 C327 0.950 . S
C316 H308 0.950 . S
C316 C317 1.386 . S
C316 C318 1.391 . S
C317 C316 1.386 . S
C317 C321 1.393 . S
C318 H310 0.950 . S
C318 C316 1.391 . S
C318 C319 1.400 . S
C319 C318 1.400 . S
C319 C320 1.398 . S
C319 C325 1.491 1_655 S
C320 H311 0.950 . S
C320 C319 1.398 . S
C320 C321 1.391 . S
C321 H309 0.950 . S
C321 C317 1.393 . S
C321 C320 1.391 . S
C322 H312 0.950 . S
C322 C323 1.386 . S
C322 C324 1.391 . S
C323 C322 1.386 . S
C323 C327 1.393 . S
C324 H313 0.950 . S
C324 C322 1.391 . S
C324 C325 1.400 . S
C325 C319 1.491 1_455 S
C325 C324 1.400 . S
C325 C326 1.398 . S
C326 H314 0.950 . S
C326 C325 1.398 . S
C326 C327 1.391 . S
C327 H315 0.950 . S
C327 C323 1.393 . S
C327 C326 1.391 . S
H328 C336 0.950 . S
H329 C341 0.950 . S
H330 C338 0.950 . S
H331 C340 0.950 . S
H332 C342 0.950 . S
H333 C344 0.950 . S
H334 C346 0.950 . S
H335 C347 0.950 . S
C336 H328 0.950 . S
C336 C337 1.386 . S
C336 C338 1.391 . S
C337 C336 1.386 . S
C337 C341 1.393 . S
C338 H330 0.950 . S
C338 C336 1.391 . S
C338 C339 1.400 . S
C339 C338 1.400 . S
C339 C340 1.398 . S
C339 C345 1.491 . S
C340 H331 0.950 . S
C340 C339 1.398 . S
C340 C341 1.391 . S
C341 H329 0.950 . S
C341 C337 1.393 . S
C341 C340 1.391 . S
C342 H332 0.950 . S
C342 C343 1.386 . S
C342 C344 1.391 . S
C343 C342 1.386 . S
C343 C347 1.393 . S
C344 H333 0.950 . S
C344 C342 1.391 . S
C344 C345 1.400 . S
C345 C339 1.491 . S
C345 C344 1.400 . S
C345 C346 1.398 . S
C346 H334 0.950 . S
C346 C345 1.398 . S
C346 C347 1.391 . S
C347 H335 0.950 . S
C347 C343 1.393 . S
C347 C346 1.391 . S
H348 C356 0.950 . S
H349 C361 0.950 . S
H350 C358 0.950 . S
H351 C360 0.950 . S
H352 C362 0.950 . S
H353 C364 0.950 . S
H354 C366 0.950 . S
H355 C367 0.950 . S
C356 H348 0.950 . S
C356 C357 1.386 . S
C356 C358 1.391 . S
C357 C356 1.386 . S
C357 C361 1.393 . S
C358 H350 0.950 . S
C358 C356 1.391 . S
C358 C359 1.400 . S
C359 C358 1.400 . S
C359 C360 1.398 . S
C359 C365 1.491 . S
C360 H351 0.950 . S
C360 C359 1.398 . S
C360 C361 1.391 . S
C361 H349 0.950 . S
C361 C357 1.393 . S
C361 C360 1.391 . S
C362 H352 0.950 . S
C362 C363 1.386 . S
C362 C364 1.391 . S
C363 C362 1.386 . S
C363 C367 1.393 . S
C364 H353 0.950 . S
C364 C362 1.391 . S
C364 C365 1.400 . S
C365 C359 1.491 . S
C365 C364 1.400 . S
C365 C366 1.398 . S
C366 H354 0.950 . S
C366 C365 1.398 . S
C366 C367 1.391 . S
C367 H355 0.950 . S
C367 C363 1.393 . S
C367 C366 1.391 . S
H368 C376 0.950 . S
H369 C381 0.950 . S
H370 C378 0.950 . S
H371 C380 0.950 . S
H372 C382 0.950 . S
H373 C384 0.950 . S
H374 C386 0.950 . S
H375 C387 0.950 . S
C376 H368 0.950 . S
C376 C377 1.386 . S
C376 C378 1.391 . S
C377 C376 1.386 . S
C377 C381 1.393 . S
C378 H370 0.950 . S
C378 C376 1.391 . S
C378 C379 1.400 . S
C379 C378 1.400 . S
C379 C380 1.398 . S
C379 C385 1.491 . S
C380 H371 0.950 . S
C380 C379 1.398 . S
C380 C381 1.391 . S
C381 H369 0.950 . S
C381 C377 1.393 . S
C381 C380 1.391 . S
C382 H372 0.950 . S
C382 C383 1.386 . S
C382 C384 1.391 . S
C383 C382 1.386 . S
C383 C387 1.393 . S
C384 H373 0.950 . S
C384 C382 1.391 . S
C384 C385 1.400 . S
C385 C379 1.491 . S
C385 C384 1.400 . S
C385 C386 1.398 . S
C386 H374 0.950 . S
C386 C385 1.398 . S
C386 C387 1.391 . S
C387 H375 0.950 . S
C387 C383 1.393 . S
C387 C386 1.391 . S
H388 C396 0.950 . S
H389 C401 0.950 . S
H390 C398 0.950 . S
H391 C400 0.950 . S
H392 C402 0.950 . S
H393 C404 0.950 . S
H394 C406 0.950 . S
H395 C407 0.950 . S
C396 H388 0.950 . S
C396 C397 1.386 . S
C396 C398 1.391 . S
C397 C396 1.386 . S
C397 C401 1.393 . S
C398 H390 0.950 . S
C398 C396 1.391 . S
C398 C399 1.400 . S
C399 C398 1.400 . S
C399 C400 1.398 . S
C399 C405 1.491 . S
C400 H391 0.950 . S
C400 C399 1.398 . S
C400 C401 1.391 . S
C401 H389 0.950 . S
C401 C397 1.393 . S
C401 C400 1.391 . S
C402 H392 0.950 . S
C402 C403 1.386 . S
C402 C404 1.391 . S
C403 C402 1.386 . S
C403 C407 1.393 . S
C404 H393 0.950 . S
C404 C402 1.391 . S
C404 C405 1.400 . S
C405 C399 1.491 . S
C405 C404 1.400 . S
C405 C406 1.398 . S
C406 H394 0.950 . S
C406 C405 1.398 . S
C406 C407 1.391 . S
C407 H395 0.950 . S
C407 C403 1.393 . S
C407 C406 1.391 . S
H408 C416 0.950 . S
H409 C421 0.950 . S
H410 C418 0.950 . S
H411 C420 0.950 . S
H412 C422 0.950 . S
H413 C424 0.950 . S
H414 C426 0.950 . S
H415 C427 0.950 . S
C416 H408 0.950 . S
C416 C417 1.386 . S
C416 C418 1.391 . S
C417 C416 1.386 . S
C417 C421 1.393 . S
C418 H410 0.950 . S
C418 C416 1.391 . S
C418 C419 1.400 . S
C419 C418 1.400 . S
C419 C420 1.398 . S
C419 C425 1.491 . S
C420 H411 0.950 . S
C420 C419 1.398 . S
C420 C421 1.391 . S
C421 H409 0.950 . S
C421 C417 1.393 . S
C421 C420 1.391 . S
C422 H412 0.950 . S
C422 C423 1.386 . S
C422 C424 1.391 . S
C423 C422 1.386 . S
C423 C427 1.393 . S
C424 H413 0.950 . S
C424 C422 1.391 . S
C424 C425 1.400 . S
C425 C419 1.491 . S
C425 C424 1.400 . S
C425 C426 1.398 . S
C426 H414 0.950 . S
C426 C425 1.398 . S
C426 C427 1.391 . S
C427 H415 0.950 . S
C427 C423 1.393 . S
C427 C426 1.391 . S
H428 C436 0.950 . S
H429 C441 0.950 . S
H430 C438 0.950 . S
H431 C440 0.950 . S
H432 C442 0.950 . S
H433 C444 0.950 . S
H434 C446 0.950 . S
H435 C447 0.950 . S
C436 H428 0.950 . S
C436 C437 1.386 . S
C436 C438 1.391 . S
C437 C436 1.386 . S
C437 C441 1.393 . S
C438 H430 0.950 . S
C438 C436 1.391 . S
C438 C439 1.400 . S
C439 C438 1.400 . S
C439 C440 1.398 . S
C439 C445 1.491 . S
C440 H431 0.950 . S
C440 C439 1.398 . S
C440 C441 1.391 . S
C441 H429 0.950 . S
C441 C437 1.393 . S
C441 C440 1.391 . S
C442 H432 0.950 . S
C442 C443 1.386 . S
C442 C444 1.391 . S
C443 C442 1.386 . S
C443 C447 1.393 . S
C444 H433 0.950 . S
C444 C442 1.391 . S
C444 C445 1.400 . S
C445 C439 1.491 . S
C445 C444 1.400 . S
C445 C446 1.398 . S
C446 H434 0.950 . S
C446 C445 1.398 . S
C446 C447 1.391 . S
C447 H435 0.950 . S
C447 C443 1.393 . S
C447 C446 1.391 . S
H448 C456 0.950 . S
H449 C461 0.950 . S
H450 C458 0.950 . S
H451 C460 0.950 . S
H452 C462 0.950 . S
H453 C464 0.950 . S
H454 C466 0.950 . S
H455 C467 0.950 . S
C456 H448 0.950 . S
C456 C457 1.386 . S
C456 C458 1.391 . S
C457 C456 1.386 . S
C457 C461 1.393 . S
C458 H450 0.950 . S
C458 C456 1.391 . S
C458 C459 1.400 . S
C459 C458 1.400 . S
C459 C460 1.398 . S
C459 C465 1.491 1_455 S
C460 H451 0.950 . S
C460 C459 1.398 . S
C460 C461 1.391 . S
C461 H449 0.950 . S
C461 C457 1.393 . S
C461 C460 1.391 . S
C462 H452 0.950 . S
C462 C463 1.386 . S
C462 C464 1.391 . S
C463 C462 1.386 . S
C463 C467 1.393 . S
C464 H453 0.950 . S
C464 C462 1.391 . S
C464 C465 1.400 . S
C465 C459 1.491 1_655 S
C465 C464 1.400 . S
C465 C466 1.398 . S
C466 H454 0.950 . S
C466 C465 1.398 . S
C466 C467 1.391 . S
C467 H455 0.950 . S
C467 C463 1.393 . S
C467 C466 1.391 . S
H468 C476 0.950 . S
H469 C481 0.950 . S
H470 C478 0.950 . S
H471 C480 0.950 . S
H472 C482 0.950 . S
H473 C484 0.950 . S
H474 C486 0.950 . S
H475 C487 0.950 . S
C476 H468 0.950 . S
C476 C477 1.386 . S
C476 C478 1.391 . S
C477 C476 1.386 . S
C477 C481 1.393 . S
C478 H470 0.950 . S
C478 C476 1.391 . S
C478 C479 1.400 . S
C479 C478 1.400 . S
C479 C480 1.398 . S
C479 C485 1.491 . S
C480 H471 0.950 . S
C480 C479 1.398 . S
C480 C481 1.391 . S
C481 H469 0.950 . S
C481 C477 1.393 . S
C481 C480 1.391 . S
C482 H472 0.950 . S
C482 C483 1.386 . S
C482 C484 1.391 . S
C483 C482 1.386 . S
C483 C487 1.393 . S
C484 H473 0.950 . S
C484 C482 1.391 . S
C484 C485 1.400 . S
C485 C479 1.491 . S
C485 C484 1.400 . S
C485 C486 1.398 . S
C486 H474 0.950 . S
C486 C485 1.398 . S
C486 C487 1.391 . S
C487 H475 0.950 . S
C487 C483 1.393 . S
C487 C486 1.391 . S
H488 C496 0.950 . S
H489 C501 0.950 . S
H490 C498 0.950 . S
H491 C500 0.950 . S
H492 C502 0.950 . S
H493 C504 0.950 . S
H494 C506 0.950 . S
H495 C507 0.950 . S
C496 H488 0.950 . S
C496 C497 1.386 . S
C496 C498 1.391 . S
C497 C496 1.386 . S
C497 C501 1.393 . S
C498 H490 0.950 . S
C498 C496 1.391 . S
C498 C499 1.400 . S
C499 C498 1.400 . S
C499 C500 1.398 . S
C499 C505 1.491 . S
C500 H491 0.950 . S
C500 C499 1.398 . S
C500 C501 1.391 . S
C501 H489 0.950 . S
C501 C497 1.393 . S
C501 C500 1.391 . S
C502 H492 0.950 . S
C502 C503 1.386 . S
C502 C504 1.391 . S
C503 C502 1.386 . S
C503 C507 1.393 . S
C504 H493 0.950 . S
C504 C502 1.391 . S
C504 C505 1.400 . S
C505 C499 1.491 . S
C505 C504 1.400 . S
C505 C506 1.398 . S
C506 H494 0.950 . S
C506 C505 1.398 . S
C506 C507 1.391 . S
C507 H495 0.950 . S
C507 C503 1.393 . S
C507 C506 1.391 . S
H508 C516 0.950 . S
H509 C521 0.950 . S
H510 C518 0.950 . S
H511 C520 0.950 . S
H512 C522 0.950 . S
H513 C524 0.950 . S
H514 C526 0.950 . S
H515 C527 0.950 . S
C516 H508 0.950 . S
C516 C517 1.386 . S
C516 C518 1.391 . S
C517 C516 1.386 . S
C517 C521 1.393 . S
C518 H510 0.950 . S
C518 C516 1.391 . S
C518 C519 1.400 . S
C519 C518 1.400 . S
C519 C520 1.398 . S
C519 C525 1.491 1_455 S
C520 H511 0.950 . S
C520 C519 1.398 . S
C520 C521 1.391 . S
C521 H509 0.950 . S
C521 C517 1.393 . S
C521 C520 1.391 . S
C522 H512 0.950 . S
C522 C523 1.386 . S
C522 C524 1.391 . S
C523 C522 1.386 . S
C523 C527 1.393 . S
C524 H513 0.950 . S
C524 C522 1.391 . S
C524 C525 1.400 . S
C525 C519 1.491 1_655 S
C525 C524 1.400 . S
C525 C526 1.398 . S
C526 H514 0.950 . S
C526 C525 1.398 . S
C526 C527 1.391 . S
C527 H515 0.950 . S
C527 C523 1.393 . S
C527 C526 1.391 . S
H528 C536 0.950 . S
H529 C541 0.950 . S
H530 C538 0.950 . S
H531 C540 0.950 . S
H532 C542 0.950 . S
H533 C544 0.950 . S
H534 C546 0.950 . S
H535 C547 0.950 . S
C536 H528 0.950 . S
C536 C537 1.386 . S
C536 C538 1.391 . S
C537 C536 1.386 . S
C537 C541 1.393 . S
C538 H530 0.950 . S
C538 C536 1.391 . S
C538 C539 1.400 . S
C539 C538 1.400 . S
C539 C540 1.398 . S
C539 C545 1.491 1_554 S
C540 H531 0.950 . S
C540 C539 1.398 . S
C540 C541 1.391 . S
C541 H529 0.950 . S
C541 C537 1.393 . S
C541 C540 1.391 . S
C542 H532 0.950 . S
C542 C543 1.386 . S
C542 C544 1.391 . S
C543 C542 1.386 . S
C543 C547 1.393 . S
C544 H533 0.950 . S
C544 C542 1.391 . S
C544 C545 1.400 . S
C545 C539 1.491 1_556 S
C545 C544 1.400 . S
C545 C546 1.398 . S
C546 H534 0.950 . S
C546 C545 1.398 . S
C546 C547 1.391 . S
C547 H535 0.950 . S
C547 C543 1.393 . S
C547 C546 1.391 . S
H548 C556 0.950 . S
H549 C561 0.950 . S
H550 C558 0.950 . S
H551 C560 0.950 . S
H552 C562 0.950 . S
H553 C564 0.950 . S
H554 C566 0.950 . S
H555 C567 0.950 . S
C556 H548 0.950 . S
C556 C557 1.386 . S
C556 C558 1.391 . S
C557 C556 1.386 . S
C557 C561 1.393 . S
C558 H550 0.950 . S
C558 C556 1.391 . S
C558 C559 1.400 . S
C559 C558 1.400 . S
C559 C560 1.398 . S
C559 C565 1.491 . S
C560 H551 0.950 . S
C560 C559 1.398 . S
C560 C561 1.391 . S
C561 H549 0.950 . S
C561 C557 1.393 . S
C561 C560 1.391 . S
C562 H552 0.950 . S
C562 C563 1.386 . S
C562 C564 1.391 . S
C563 C562 1.386 . S
C563 C567 1.393 . S
C564 H553 0.950 . S
C564 C562 1.391 . S
C564 C565 1.400 . S
C565 C559 1.491 . S
C565 C564 1.400 . S
C565 C566 1.398 . S
C566 H554 0.950 . S
C566 C565 1.398 . S
C566 C567 1.391 . S
C567 H555 0.950 . S
C567 C563 1.393 . S
C567 C566 1.391 . S
H568 C576 0.950 . S
H569 C581 0.950 . S
H570 C578 0.950 . S
H571 C580 0.950 . S
H572 C582 0.950 . S
H573 C584 0.950 . S
H574 C586 0.950 . S
H575 C587 0.950 . S
C576 H568 0.950 . S
C576 C577 1.386 . S
C576 C578 1.391 . S
C577 C576 1.386 . S
C577 C581 1.393 . S
C578 H570 0.950 . S
C578 C576 1.391 . S
C578 C579 1.400 . S
C579 C578 1.400 . S
C579 C580 1.398 . S
C579 C585 1.491 . S
C580 H571 0.950 . S
C580 C579 1.398 . S
C580 C581 1.391 . S
C581 H569 0.950 . S
C581 C577 1.393 . S
C581 C580 1.391 . S
C582 H572 0.950 . S
C582 C583 1.386 . S
C582 C584 1.391 . S
C583 C582 1.386 . S
C583 C587 1.393 . S
C584 H573 0.950 . S
C584 C582 1.391 . S
C584 C585 1.400 . S
C585 C579 1.491 . S
C585 C584 1.400 . S
C585 C586 1.398 . S
C586 H574 0.950 . S
C586 C585 1.398 . S
C586 C587 1.391 . S
C587 H575 0.950 . S
C587 C583 1.393 . S
C587 C586 1.391 . S
H588 C596 0.950 . S
H589 C601 0.950 . S
H590 C598 0.950 . S
H591 C600 0.950 . S
H592 C602 0.950 . S
H593 C604 0.950 . S
H594 C606 0.950 . S
H595 C607 0.950 . S
C596 H588 0.950 . S
C596 C597 1.386 . S
C596 C598 1.391 . S
C597 C596 1.386 . S
C597 C601 1.393 . S
C598 H590 0.950 . S
C598 C596 1.391 . S
C598 C599 1.400 . S
C599 C598 1.400 . S
C599 C600 1.398 . S
C599 C605 1.491 . S
C600 H591 0.950 . S
C600 C599 1.398 . S
C600 C601 1.391 . S
C601 H589 0.950 . S
C601 C597 1.393 . S
C601 C600 1.391 . S
C602 H592 0.950 . S
C602 C603 1.386 . S
C602 C604 1.391 . S
C603 C602 1.386 . S
C603 C607 1.393 . S
C604 H593 0.950 . S
C604 C602 1.391 . S
C604 C605 1.400 . S
C605 C599 1.491 . S
C605 C604 1.400 . S
C605 C606 1.398 . S
C606 H594 0.950 . S
C606 C605 1.398 . S
C606 C607 1.391 . S
C607 H595 0.950 . S
C607 C603 1.393 . S
C607 C606 1.391 . S
H608 C616 0.950 . S
H609 C621 0.950 . S
H610 C618 0.950 . S
H611 C620 0.950 . S
H612 C622 0.950 . S
H613 C624 0.950 . S
H614 C626 0.950 . S
H615 C627 0.950 . S
C616 H608 0.950 . S
C616 C617 1.386 . S
C616 C618 1.391 . S
C617 C616 1.386 . S
C617 C621 1.393 . S
C618 H610 0.950 . S
C618 C616 1.391 . S
C618 C619 1.400 . S
C619 C618 1.400 . S
C619 C620 1.398 . S
C619 C625 1.491 1_556 S
C620 H611 0.950 . S
C620 C619 1.398 . S
C620 C621 1.391 . S
C621 H609 0.950 . S
C621 C617 1.393 . S
C621 C620 1.391 . S
C622 H612 0.950 . S
C622 C623 1.386 . S
C622 C624 1.391 . S
C623 C622 1.386 . S
C623 C627 1.393 . S
C624 H613 0.950 . S
C624 C622 1.391 . S
C624 C625 1.400 . S
C625 C619 1.491 1_554 S
C625 C624 1.400 . S
C625 C626 1.398 . S
C626 H614 0.950 . S
C626 C625 1.398 . S
C626 C627 1.391 . S
C627 H615 0.950 . S
C627 C623 1.393 . S
C627 C626 1.391 . S
H628 C636 0.950 . S
H629 C641 0.950 . S
H630 C638 0.950 . S
H631 C640 0.950 . S
H632 C642 0.950 . S
H633 C644 0.950 . S
H634 C646 0.950 . S
H635 C647 0.950 . S
C636 H628 0.950 . S
C636 C637 1.386 . S
C636 C638 1.391 . S
C637 C636 1.386 . S
C637 C641 1.393 . S
C638 H630 0.950 . S
C638 C636 1.391 . S
C638 C639 1.400 . S
C639 C638 1.400 . S
C639 C640 1.398 . S
C639 C645 1.491 . S
C640 H631 0.950 . S
C640 C639 1.398 . S
C640 C641 1.391 . S
C641 H629 0.950 . S
C641 C637 1.393 . S
C641 C640 1.391 . S
C642 H632 0.950 . S
C642 C643 1.386 . S
C642 C644 1.391 . S
C643 C642 1.386 . S
C643 C647 1.393 . S
C644 H633 0.950 . S
C644 C642 1.391 . S
C644 C645 1.400 . S
C645 C639 1.491 . S
C645 C644 1.400 . S
C645 C646 1.398 . S
C646 H634 0.950 . S
C646 C645 1.398 . S
C646 C647 1.391 . S
C647 H635 0.950 . S
C647 C643 1.393 . S
C647 C646 1.391 . S
H648 C656 0.950 . S
H649 C661 0.950 . S
H650 C658 0.950 . S
H651 C660 0.950 . S
H652 C662 0.950 . S
H653 C664 0.950 . S
H654 C666 0.950 . S
H655 C667 0.950 . S
C656 H648 0.950 . S
C656 C657 1.386 . S
C656 C658 1.391 . S
C657 C656 1.386 . S
C657 C661 1.393 . S
C658 H650 0.950 . S
C658 C656 1.391 . S
C658 C659 1.400 . S
C659 C658 1.400 . S
C659 C660 1.398 . S
C659 C665 1.491 . S
C660 H651 0.950 . S
C660 C659 1.398 . S
C660 C661 1.391 . S
C661 H649 0.950 . S
C661 C657 1.393 . S
C661 C660 1.391 . S
C662 H652 0.950 . S
C662 C663 1.386 . S
C662 C664 1.391 . S
C663 C662 1.386 . S
C663 C667 1.393 . S
C664 H653 0.950 . S
C664 C662 1.391 . S
C664 C665 1.400 . S
C665 C659 1.491 . S
C665 C664 1.400 . S
C665 C666 1.398 . S
C666 H654 0.950 . S
C666 C665 1.398 . S
C666 C667 1.391 . S
C667 H655 0.950 . S
C667 C663 1.393 . S
C667 C666 1.391 . S
H668 C676 0.950 . S
H669 C681 0.950 . S
H670 C678 0.950 . S
H671 C680 0.950 . S
H672 C682 0.950 . S
H673 C684 0.950 . S
H674 C686 0.950 . S
H675 C687 0.950 . S
C676 H668 0.950 . S
C676 C677 1.386 . S
C676 C678 1.391 . S
C677 C676 1.386 . S
C677 C681 1.393 . S
C678 H670 0.950 . S
C678 C676 1.391 . S
C678 C679 1.400 . S
C679 C678 1.400 . S
C679 C680 1.398 . S
C679 C685 1.491 . S
C680 H671 0.950 . S
C680 C679 1.398 . S
C680 C681 1.391 . S
C681 H669 0.950 . S
C681 C677 1.393 . S
C681 C680 1.391 . S
C682 H672 0.950 . S
C682 C683 1.386 . S
C682 C684 1.391 . S
C683 C682 1.386 . S
C683 C687 1.393 . S
C684 H673 0.950 . S
C684 C682 1.391 . S
C684 C685 1.400 . S
C685 C679 1.491 . S
C685 C684 1.400 . S
C685 C686 1.398 . S
C686 H674 0.950 . S
C686 C685 1.398 . S
C686 C687 1.391 . S
C687 H675 0.950 . S
C687 C683 1.393 . S
C687 C686 1.391 . S
H688 C696 0.950 . S
H689 C701 0.950 . S
H690 C698 0.950 . S
H691 C700 0.950 . S
H692 C702 0.950 . S
H693 C704 0.950 . S
H694 C706 0.950 1_545 S
H695 C707 0.950 . S
C696 H688 0.950 . S
C696 C697 1.386 . S
C696 C698 1.391 . S
C697 C696 1.386 . S
C697 C701 1.393 . S
C698 H690 0.950 . S
C698 C696 1.391 . S
C698 C699 1.400 . S
C699 C698 1.400 . S
C699 C700 1.398 1_545 S
C699 C705 1.491 1_545 S
C700 H691 0.950 . S
C700 C699 1.398 1_565 S
C700 C701 1.391 1_565 S
C701 H689 0.950 . S
C701 C697 1.393 . S
C701 C700 1.391 1_545 S
C702 H692 0.950 . S
C702 C703 1.386 . S
C702 C704 1.391 . S
C703 C702 1.386 . S
C703 C707 1.393 . S
C704 H693 0.950 . S
C704 C702 1.391 . S
C704 C705 1.400 . S
C705 C699 1.491 1_565 S
C705 C704 1.400 . S
C705 C706 1.398 . S
C706 H694 0.950 1_565 S
C706 C705 1.398 . S
C706 C707 1.391 . S
C707 H695 0.950 . S
C707 C703 1.393 . S
C707 C706 1.391 . S
H708 C716 0.950 . S
H709 C721 0.950 . S
H710 C718 0.950 . S
H711 C720 0.950 . S
H712 C722 0.950 . S
H713 C724 0.950 . S
H714 C726 0.950 . S
H715 C727 0.950 . S
C716 H708 0.950 . S
C716 C717 1.386 . S
C716 C718 1.391 . S
C717 C716 1.386 . S
C717 C721 1.393 . S
C718 H710 0.950 . S
C718 C716 1.391 . S
C718 C719 1.400 . S
C719 C718 1.400 . S
C719 C720 1.398 . S
C719 C725 1.491 . S
C720 H711 0.950 . S
C720 C719 1.398 . S
C720 C721 1.391 . S
C721 H709 0.950 . S
C721 C717 1.393 . S
C721 C720 1.391 . S
C722 H712 0.950 . S
C722 C723 1.386 . S
C722 C724 1.391 . S
C723 C722 1.386 . S
C723 C727 1.393 . S
C724 H713 0.950 . S
C724 C722 1.391 . S
C724 C725 1.400 . S
C725 C719 1.491 . S
C725 C724 1.400 . S
C725 C726 1.398 . S
C726 H714 0.950 . S
C726 C725 1.398 . S
C726 C727 1.391 . S
C727 H715 0.950 . S
C727 C723 1.393 . S
C727 C726 1.391 . S
H728 C736 0.950 . S
H729 C741 0.950 . S
H730 C738 0.950 . S
H731 C740 0.936 1_554 S
H732 C742 0.950 . S
H733 C744 0.950 . S
H734 C746 0.950 . S
H735 C747 0.950 . S
C736 H728 0.950 . S
C736 C737 1.386 . S
C736 C738 1.391 1_545 S
C737 C736 1.386 . S
C737 C741 1.393 . S
C738 H730 0.950 . S
C738 C736 1.391 1_565 S
C738 C739 1.400 1_565 S
C739 C738 1.400 1_545 S
C739 C740 1.399 . S
C739 C745 1.491 1_546 S
C740 H731 0.936 1_556 S
C740 C739 1.399 . S
C740 C741 1.405 . S
C741 H729 0.950 . S
C741 C737 1.393 . S
C741 C740 1.405 . S
C742 H732 0.950 . S
C742 C743 1.386 . S
C742 C744 1.391 1_565 S
C743 C742 1.386 . S
C743 C747 1.393 . S
C744 H733 0.950 . S
C744 C742 1.391 1_545 S
C744 C745 1.400 1_545 S
C745 C739 1.491 1_564 S
C745 C744 1.400 1_565 S
C745 C746 1.398 . S
C746 H734 0.950 . S
C746 C745 1.398 . S
C746 C747 1.391 . S
C747 H735 0.950 . S
C747 C743 1.393 . S
C747 C746 1.391 . S
H748 C756 0.950 . S
H749 C761 0.950 . S
H750 C758 0.950 . S
H751 C760 0.950 . S
H752 C762 0.950 . S
H753 C764 0.950 . S
H754 C766 0.950 . S
H755 C767 0.950 . S
C756 H748 0.950 . S
C756 C757 1.386 . S
C756 C758 1.391 . S
C757 C756 1.386 . S
C757 C761 1.393 . S
C758 H750 0.950 . S
C758 C756 1.391 . S
C758 C759 1.400 . S
C759 C758 1.400 . S
C759 C760 1.398 . S
C759 C765 1.491 . S
C760 H751 0.950 . S
C760 C759 1.398 . S
C760 C761 1.391 . S
C761 H749 0.950 . S
C761 C757 1.393 . S
C761 C760 1.391 . S
C762 H752 0.950 . S
C762 C763 1.386 . S
C762 C764 1.391 . S
C763 C762 1.386 . S
C763 C767 1.393 . S
C764 H753 0.950 . S
C764 C762 1.391 . S
C764 C765 1.400 . S
C765 C759 1.491 . S
C765 C764 1.400 . S
C765 C766 1.398 . S
C766 H754 0.950 . S
C766 C765 1.398 . S
C766 C767 1.391 . S
C767 H755 0.950 . S
C767 C763 1.393 . S
C767 C766 1.391 . S
H768 C776 0.950 . S
H769 C781 0.950 . S
H770 C778 0.950 . S
H771 C780 0.942 1_565 S
H772 C782 0.950 . S
H773 C784 0.950 . S
H774 C786 0.950 1_545 S
H775 C787 0.950 . S
C776 H768 0.950 . S
C776 C777 1.386 . S
C776 C778 1.391 . S
C777 C776 1.386 . S
C777 C781 1.393 . S
C778 H770 0.950 . S
C778 C776 1.391 . S
C778 C779 1.400 . S
C779 C778 1.400 . S
C779 C780 1.398 . S
C779 C785 1.491 1_545 S
C780 H771 0.942 1_545 S
C780 C779 1.398 . S
C780 C781 1.391 . S
C781 H769 0.950 . S
C781 C777 1.393 . S
C781 C780 1.391 . S
C782 H772 0.950 . S
C782 C783 1.386 . S
C782 C784 1.391 . S
C783 C782 1.386 . S
C783 C787 1.393 . S
C784 H773 0.950 . S
C784 C782 1.391 . S
C784 C785 1.400 . S
C785 C779 1.491 1_565 S
C785 C784 1.400 . S
C785 C786 1.398 . S
C786 H774 0.950 1_565 S
C786 C785 1.398 . S
C786 C787 1.391 . S
C787 H775 0.950 . S
C787 C783 1.393 . S
C787 C786 1.391 . S
H788 C796 0.950 . S
H789 C801 0.950 . S
H790 C798 0.950 . S
H791 C800 0.950 . S
H792 C802 0.950 . S
H793 C804 0.950 . S
H794 C806 0.950 . S
H795 C807 0.950 . S
C796 H788 0.950 . S
C796 C797 1.386 . S
C796 C798 1.391 . S
C797 C796 1.386 . S
C797 C801 1.393 . S
C798 H790 0.950 . S
C798 C796 1.391 . S
C798 C799 1.400 . S
C799 C798 1.400 . S
C799 C800 1.398 . S
C799 C805 1.491 . S
C800 H791 0.950 . S
C800 C799 1.398 . S
C800 C801 1.391 . S
C801 H789 0.950 . S
C801 C797 1.393 . S
C801 C800 1.391 . S
C802 H792 0.950 . S
C802 C803 1.386 . S
C802 C804 1.391 . S
C803 C802 1.386 . S
C803 C807 1.393 . S
C804 H793 0.950 . S
C804 C802 1.391 . S
C804 C805 1.400 . S
C805 C799 1.491 . S
C805 C804 1.400 . S
C805 C806 1.398 . S
C806 H794 0.950 . S
C806 C805 1.398 . S
C806 C807 1.391 . S
C807 H795 0.950 . S
C807 C803 1.393 . S
C807 C806 1.391 . S
H808 C816 0.950 . S
H809 C821 0.950 . S
H810 C818 0.950 . S
H811 C820 0.950 . S
H812 C822 0.950 . S
H813 C824 0.950 . S
H814 C826 0.950 . S
H815 C827 0.950 . S
C816 H808 0.950 . S
C816 C817 1.386 . S
C816 C818 1.391 . S
C817 C816 1.386 . S
C817 C821 1.393 . S
C818 H810 0.950 . S
C818 C816 1.391 . S
C818 C819 1.400 . S
C819 C818 1.400 . S
C819 C820 1.398 . S
C819 C825 1.491 1_564 S
C820 H811 0.950 . S
C820 C819 1.398 . S
C820 C821 1.391 . S
C821 H809 0.950 . S
C821 C817 1.393 . S
C821 C820 1.391 . S
C822 H812 0.950 . S
C822 C823 1.386 . S
C822 C824 1.391 . S
C823 C822 1.386 . S
C823 C827 1.393 . S
C824 H813 0.950 . S
C824 C822 1.391 . S
C824 C825 1.400 . S
C825 C819 1.491 1_546 S
C825 C824 1.400 . S
C825 C826 1.398 . S
C826 H814 0.950 . S
C826 C825 1.398 . S
C826 C827 1.391 . S
C827 H815 0.950 . S
C827 C823 1.393 . S
C827 C826 1.391 . S
H828 C836 0.950 . S
H829 C841 0.950 . S
H830 C838 0.950 . S
H831 C840 0.950 . S
H832 C842 0.950 . S
H833 C844 0.950 . S
H834 C846 0.950 . S
H835 C847 0.950 . S
C836 H828 0.950 . S
C836 C837 1.386 . S
C836 C838 1.391 . S
C837 C836 1.386 . S
C837 C841 1.393 . S
C838 H830 0.950 . S
C838 C836 1.391 . S
C838 C839 1.400 . S
C839 C838 1.400 . S
C839 C840 1.398 . S
C839 C845 1.491 . S
C840 H831 0.950 . S
C840 C839 1.398 . S
C840 C841 1.391 . S
C841 H829 0.950 . S
C841 C837 1.393 . S
C841 C840 1.391 . S
C842 H832 0.950 . S
C842 C843 1.386 . S
C842 C844 1.391 . S
C843 C842 1.386 . S
C843 C847 1.393 . S
C844 H833 0.950 . S
C844 C842 1.391 . S
C844 C845 1.400 . S
C845 C839 1.491 . S
C845 C844 1.400 . S
C845 C846 1.398 . S
C846 H834 0.950 . S
C846 C845 1.398 . S
C846 C847 1.391 . S
C847 H835 0.950 . S
C847 C843 1.393 . S
C847 C846 1.391 . S
C217 C148 1.397 . S
C223 C8 1.386 . S
C237 C200 1.355 . S
C243 C18 1.342 . S
C257 C31 1.373 . S
C263 C125 1.342 . S
C277 C174 1.332 . S
C283 C47 1.323 . S
C297 C60 1.430 . S
C303 C177 1.412 . S
C317 C70 1.318 . S
C323 C151 1.344 . S
C337 C83 1.359 . S
C343 C203 1.342 . S
C357 C96 1.338 . S
C363 C122 1.310 . S
C377 C44 1.403 . S
C383 C112 1.401 . S
C397 C138 1.425 . S
C403 C21 1.397 . S
C417 C164 1.426 . S
C423 C73 1.410 . S
C437 C187 1.427 . S
C443 C99 1.429 . S
C457 C57 1.422 . S
C463 C109 1.399 . S
C477 C135 1.313 . S
C483 C86 1.337 . S
C497 C190 1.385 . S
C503 C34 1.401 . S
C517 C5 1.347 . S
C523 C161 1.366 . S
C537 C10 1.164 . S
C543 C62 1.157 . S
C557 C13 1.149 . S
C563 C65 1.148 . S
C577 C26 1.146 . S
C583 C78 1.143 . S
C597 C91 1.113 . S
C603 C49 1.112 . S
C617 C114 1.118 . S
C623 C166 1.120 . S
C637 C169 1.054 . S
C643 C117 1.058 . S
C657 C140 1.282 . S
C663 C182 1.275 . S
C677 C195 1.126 . S
C683 C153 1.108 . S
C697 C101 1.117 . S
C703 C23 1.112 . S
C717 C36 1.215 . S
C723 C52 1.197 . S
C737 C39 1.196 . S
C743 C75 1.198 . S
C757 C0 1.086 . S
C763 C88 1.082 . S
C777 C127 1.093 . S
C783 C205 1.095 . S
C797 C156 1.162 . S
C803 C130 1.159 . S
C817 C143 1.181 . S
C823 C179 1.165 . S
C837 C192 1.152 . S
C843 C104 1.149 . S
