# Generated by pormake.
# Topology snl, (6)-cn, num edge types: 1
# Building blocks:
#     Node 0, Type 0, BuildingBlock: INOVEN_clean_sbu_0, # of connection points: 6
#     Node 1, Type 0, BuildingBlock: INOVEN_clean_sbu_0, # of connection points: 6
#     Node 2, Type 0, BuildingBlock: INOVEN_clean_sbu_0, # of connection points: 6
#     Node 3, Type 0, BuildingBlock: INOVEN_clean_sbu_0, # of connection points: 6
#     Node 4, Type 0, BuildingBlock: INOVEN_clean_sbu_0, # of connection points: 6
#     Node 5, Type 0, BuildingBlock: INOVEN_clean_sbu_0, # of connection points: 6
#     Node 6, Type 0, BuildingBlock: INOVEN_clean_sbu_0, # of connection points: 6
#     Node 7, Type 0, BuildingBlock: INOVEN_clean_sbu_0, # of connection points: 6
#     Node 8, Type 0, BuildingBlock: INOVEN_clean_sbu_0, # of connection points: 6
#     Node 9, Type 0, BuildingBlock: INOVEN_clean_sbu_0, # of connection points: 6
#     Node 10, Type 0, BuildingBlock: INOVEN_clean_sbu_0, # of connection points: 6
#     Node 11, Type 0, BuildingBlock: INOVEN_clean_sbu_0, # of connection points: 6
#     Node 12, Type 0, BuildingBlock: INOVEN_clean_sbu_0, # of connection points: 6
#     Node 13, Type 0, BuildingBlock: INOVEN_clean_sbu_0, # of connection points: 6
#     Node 14, Type 0, BuildingBlock: INOVEN_clean_sbu_0, # of connection points: 6
#     Node 15, Type 0, BuildingBlock: INOVEN_clean_sbu_0, # of connection points: 6
#     Edge 16, Type (0, 0), BuildingBlock: EZIPEK_clean_linker_0, # of connection points: 2
#     Edge 17, Type (0, 0), BuildingBlock: EZIPEK_clean_linker_0, # of connection points: 2
#     Edge 18, Type (0, 0), BuildingBlock: EZIPEK_clean_linker_0, # of connection points: 2
#     Edge 19, Type (0, 0), BuildingBlock: EZIPEK_clean_linker_0, # of connection points: 2
#     Edge 20, Type (0, 0), BuildingBlock: EZIPEK_clean_linker_0, # of connection points: 2
#     Edge 21, Type (0, 0), BuildingBlock: EZIPEK_clean_linker_0, # of connection points: 2
#     Edge 22, Type (0, 0), BuildingBlock: EZIPEK_clean_linker_0, # of connection points: 2
#     Edge 23, Type (0, 0), BuildingBlock: EZIPEK_clean_linker_0, # of connection points: 2
#     Edge 24, Type (0, 0), BuildingBlock: EZIPEK_clean_linker_0, # of connection points: 2
#     Edge 25, Type (0, 0), BuildingBlock: EZIPEK_clean_linker_0, # of connection points: 2
#     Edge 26, Type (0, 0), BuildingBlock: EZIPEK_clean_linker_0, # of connection points: 2
#     Edge 27, Type (0, 0), BuildingBlock: EZIPEK_clean_linker_0, # of connection points: 2
#     Edge 28, Type (0, 0), BuildingBlock: EZIPEK_clean_linker_0, # of connection points: 2
#     Edge 29, Type (0, 0), BuildingBlock: EZIPEK_clean_linker_0, # of connection points: 2
#     Edge 30, Type (0, 0), BuildingBlock: EZIPEK_clean_linker_0, # of connection points: 2
#     Edge 31, Type (0, 0), BuildingBlock: EZIPEK_clean_linker_0, # of connection points: 2
#     Edge 32, Type (0, 0), BuildingBlock: EZIPEK_clean_linker_0, # of connection points: 2
#     Edge 33, Type (0, 0), BuildingBlock: EZIPEK_clean_linker_0, # of connection points: 2
#     Edge 34, Type (0, 0), BuildingBlock: EZIPEK_clean_linker_0, # of connection points: 2
#     Edge 35, Type (0, 0), BuildingBlock: EZIPEK_clean_linker_0, # of connection points: 2
#     Edge 36, Type (0, 0), BuildingBlock: EZIPEK_clean_linker_0, # of connection points: 2
#     Edge 37, Type (0, 0), BuildingBlock: EZIPEK_clean_linker_0, # of connection points: 2
#     Edge 38, Type (0, 0), BuildingBlock: EZIPEK_clean_linker_0, # of connection points: 2
#     Edge 39, Type (0, 0), BuildingBlock: EZIPEK_clean_linker_0, # of connection points: 2
#     Edge 40, Type (0, 0), BuildingBlock: EZIPEK_clean_linker_0, # of connection points: 2
#     Edge 41, Type (0, 0), BuildingBlock: EZIPEK_clean_linker_0, # of connection points: 2
#     Edge 42, Type (0, 0), BuildingBlock: EZIPEK_clean_linker_0, # of connection points: 2
#     Edge 43, Type (0, 0), BuildingBlock: EZIPEK_clean_linker_0, # of connection points: 2
#     Edge 44, Type (0, 0), BuildingBlock: EZIPEK_clean_linker_0, # of connection points: 2
#     Edge 45, Type (0, 0), BuildingBlock: EZIPEK_clean_linker_0, # of connection points: 2
#     Edge 46, Type (0, 0), BuildingBlock: EZIPEK_clean_linker_0, # of connection points: 2
#     Edge 47, Type (0, 0), BuildingBlock: EZIPEK_clean_linker_0, # of connection points: 2
#     Edge 48, Type (0, 0), BuildingBlock: EZIPEK_clean_linker_0, # of connection points: 2
#     Edge 49, Type (0, 0), BuildingBlock: EZIPEK_clean_linker_0, # of connection points: 2
#     Edge 50, Type (0, 0), BuildingBlock: EZIPEK_clean_linker_0, # of connection points: 2
#     Edge 51, Type (0, 0), BuildingBlock: EZIPEK_clean_linker_0, # of connection points: 2
#     Edge 52, Type (0, 0), BuildingBlock: EZIPEK_clean_linker_0, # of connection points: 2
#     Edge 53, Type (0, 0), BuildingBlock: EZIPEK_clean_linker_0, # of connection points: 2
#     Edge 54, Type (0, 0), BuildingBlock: EZIPEK_clean_linker_0, # of connection points: 2
#     Edge 55, Type (0, 0), BuildingBlock: EZIPEK_clean_linker_0, # of connection points: 2
#     Edge 56, Type (0, 0), BuildingBlock: EZIPEK_clean_linker_0, # of connection points: 2
#     Edge 57, Type (0, 0), BuildingBlock: EZIPEK_clean_linker_0, # of connection points: 2
#     Edge 58, Type (0, 0), BuildingBlock: EZIPEK_clean_linker_0, # of connection points: 2
#     Edge 59, Type (0, 0), BuildingBlock: EZIPEK_clean_linker_0, # of connection points: 2
#     Edge 60, Type (0, 0), BuildingBlock: EZIPEK_clean_linker_0, # of connection points: 2
#     Edge 61, Type (0, 0), BuildingBlock: EZIPEK_clean_linker_0, # of connection points: 2
#     Edge 62, Type (0, 0), BuildingBlock: EZIPEK_clean_linker_0, # of connection points: 2
#     Edge 63, Type (0, 0), BuildingBlock: EZIPEK_clean_linker_0, # of connection points: 2
# Relax obj value: 0.195
# Max RMSD: 0.279
# Mean RMSD: 0.247
data_MOF--net-snl--node1-INOVEN_clean_sbu_0--edge1-EZIPEK_clean_linker_0
_symmetry_space_group_name_H-M    P1
_symmetry_Int_Tables_number       1
_symmetry_cell_setting            triclinic
loop_
_symmetry_equiv_pos_as_xyz
'x, y, z'
_cell_length_a     40.754791
_cell_length_b     40.82223
_cell_length_c     21.341796
_cell_angle_alpha  99.700245
_cell_angle_beta   91.496422
_cell_angle_gamma 90.137044
loop_
_atom_site_label
_atom_site_type_symbol
_atom_site_fract_x
_atom_site_fract_y
_atom_site_fract_z
_atom_type_partial_charge
Gd0 Gd 0.1624 0.63563 0.11135 0.0
Gd1 Gd 0.13054 0.62701 0.23143 0.0
C2 C 0.08317 0.64064 0.11859 0.0
C3 C 0.19103 0.62818 1.00293 0.0
C4 C 0.18391 0.63394 0.93723 0.0
C5 C 0.20853 0.64697 0.90345 0.0
C6 C 0.15343 0.62501 0.90652 0.0
C7 C 0.17294 0.64057 0.80865 0.0
C8 C 0.14805 0.62822 0.84276 0.0
C9 C 0.20307 0.65038 0.83975 0.0
C10 C 0.14184 0.69433 0.17772 0.0
C11 C 0.20944 0.63209 0.23667 0.0
C12 C 0.11024 0.62495 0.34493 0.0
C13 C 0.12156 0.63066 0.4122 0.0
C14 C 0.10782 0.61129 0.45335 0.0
C15 C 0.14605 0.6542 0.43583 0.0
C16 C 0.14252 0.63875 0.54099 0.0
C17 C 0.15638 0.6583 0.50003 0.0
C18 C 0.11823 0.61524 0.51711 0.0
C19 C 0.13167 0.57128 0.13901 0.0
O20 O 0.10788 0.63054 0.08077 0.0
O21 O 0.08786 0.64645 0.18089 0.0
O22 O 0.19558 0.65439 0.04702 0.0
O23 O 0.17391 0.60476 1.02231 0.0
O24 O 0.14003 0.6858 0.11642 0.0
O25 O 0.15517 0.67107 0.20211 0.0
O26 O 0.18245 0.63006 0.26822 0.0
O27 O 0.20853 0.63412 0.17509 0.0
O28 O 0.12315 0.59959 0.30842 0.0
O29 O 0.10644 0.65086 0.31665 0.0
O30 O 0.10711 0.57998 0.17517 0.0
O31 O 0.15451 0.59203 0.15535 0.0
H32 H 0.23221 0.65398 0.92605 0.0
H33 H 0.13393 0.615 0.9314 0.0
H34 H 0.12462 0.62061 0.81966 0.0
H35 H 0.22253 0.66005 0.8143 0.0
H36 H 0.08907 0.59289 0.436 0.0
H37 H 0.15721 0.6692 0.40475 0.0
H38 H 0.17527 0.67648 0.51765 0.0
H39 H 0.10733 0.59992 0.54792 0.0
Gd40 Gd 0.65588 0.89794 0.45061 0.0
Gd41 Gd 0.62741 0.91325 0.32943 0.0
C42 C 0.57646 0.89828 0.42945 0.0
C43 C 0.68456 0.90175 0.56124 0.0
C44 C 0.67835 0.89608 0.62614 0.0
C45 C 0.65451 0.87329 0.63863 0.0
C46 C 0.69529 0.91579 0.67701 0.0
C47 C 0.66394 0.89109 0.75238 0.0
C48 C 0.6881 0.91337 0.73967 0.0
C49 C 0.64744 0.8707 0.70158 0.0
C50 C 0.63112 0.8428 0.37556 0.0
C51 C 0.70536 0.90206 0.33339 0.0
C52 C 0.60893 0.91937 0.21509 0.0
C53 C 0.61907 0.91041 0.14842 0.0
C54 C 0.65013 0.91929 0.12897 0.0
C55 C 0.59632 0.89459 0.10254 0.0
C56 C 0.63449 0.89863 1.01859 0.0
C57 C 0.60399 0.88863 0.03817 0.0
C58 C 0.65771 0.91351 0.06445 0.0
C59 C 0.63186 0.96609 0.42893 0.0
O60 O 0.60112 0.90455 0.47214 0.0
O61 O 0.58185 0.89486 0.36828 0.0
O62 O 0.68681 0.87573 0.51626 0.0
O63 O 0.66817 0.92622 0.54315 0.0
O64 O 0.62959 0.84926 0.43698 0.0
O65 O 0.64696 0.86591 0.35594 0.0
O66 O 0.67923 0.90615 0.29817 0.0
O67 O 0.70293 0.89942 0.39434 0.0
O68 O 0.62663 0.94169 0.2527 0.0
O69 O 0.59886 0.89514 0.24315 0.0
O70 O 0.60769 0.96097 0.38812 0.0
O71 O 0.6528 0.94393 0.41284 0.0
H72 H 0.64094 0.85812 0.59992 0.0
H73 H 0.71357 0.93369 0.66823 0.0
H74 H 0.70091 0.92937 0.77833 0.0
H75 H 0.62857 0.85352 0.71073 0.0
H76 H 0.66823 0.93142 0.16328 0.0
H77 H 0.57224 0.8876 0.11638 0.0
H78 H 0.58579 0.87714 1.00338 0.0
H79 H 0.68137 0.92138 0.05009 0.0
Gd80 Gd 0.37286 0.38477 0.57148 0.0
Gd81 Gd 0.40079 0.41188 0.70095 0.0
C82 C 0.45165 0.38648 0.59561 0.0
C83 C 0.34464 0.38039 0.45911 0.0
C84 C 0.35261 0.38004 0.39157 0.0
C85 C 0.32689 0.37978 0.34637 0.0
C86 C 0.38508 0.38291 0.37239 0.0
C87 C 0.36571 0.38666 0.26443 0.0
C88 C 0.39157 0.38624 0.30934 0.0
C89 C 0.33335 0.38297 0.28344 0.0
C90 C 0.39215 0.3355 0.63592 0.0
C91 C 0.32292 0.39754 0.69055 0.0
C92 C 0.41795 0.42717 0.8206 0.0
C93 C 0.40801 0.42105 0.88402 0.0
C94 C 0.42449 0.43797 0.93861 0.0
C95 C 0.38318 0.39806 0.8911 0.0
C96 C 0.39201 0.40881 1.00656 0.0
C97 C 0.37521 0.39202 0.95193 0.0
C98 C 0.41659 0.43194 0.99921 0.0
C99 C 0.39871 0.45601 0.61506 0.0
O100 O 0.42771 0.38953 0.55369 0.0
O101 O 0.44559 0.38801 0.6562 0.0
O102 O 0.35238 0.35451 0.48498 0.0
O103 O 0.35045 0.40832 0.49752 0.0
O104 O 0.39504 0.33493 0.57524 0.0
O105 O 0.37831 0.36247 0.65991 0.0
O106 O 0.34853 0.40752 0.72764 0.0
O107 O 0.32565 0.38729 0.62834 0.0
O108 O 0.39858 0.44558 0.79128 0.0
O109 O 0.42976 0.40179 0.78214 0.0
O110 O 0.42196 0.45506 0.65733 0.0
O111 O 0.37715 0.4354 0.62436 0.0
H112 H 0.30164 0.37788 0.36015 0.0
H113 H 0.40532 0.38331 0.40642 0.0
H114 H 0.41672 0.38908 0.29582 0.0
H115 H 0.31302 0.38323 0.24979 0.0
H116 H 0.44374 0.45575 0.93433 0.0
H117 H 0.37016 0.38465 0.84966 0.0
H118 H 0.35609 0.37415 0.95641 0.0
H119 H 0.42982 0.44521 0.0405 0.0
Gd120 Gd 0.88874 0.12126 0.85838 0.0
Gd121 Gd 0.88289 0.15905 0.98788 0.0
C122 C 0.89111 0.2034 0.88314 0.0
C123 C 0.88178 0.09758 0.73766 0.0
C124 C 0.88171 0.10814 0.67431 0.0
C125 C 0.91101 0.11636 0.6468 0.0
C126 C 0.8521 0.10784 0.63874 0.0
C127 C 0.88106 0.1233 0.54968 0.0
C128 C 0.85177 0.11544 0.57712 0.0
C129 C 0.91065 0.12388 0.58507 0.0
C130 C 0.94737 0.1293 0.92311 0.0
C131 C 0.88257 0.07873 0.97081 0.0
C132 C 0.88594 0.18305 0.10863 0.0
C133 C 0.88537 0.17161 0.17085 0.0
C134 C 0.86354 0.14667 0.18241 0.0
C135 C 0.90645 0.18682 0.22038 0.0
C136 C 0.88329 0.1533 0.29265 0.0
C137 C 0.90548 0.17773 0.28069 0.0
C138 C 0.86245 0.13767 0.24294 0.0
C139 C 0.82501 0.14971 0.91753 0.0
O140 O 0.88497 0.17559 0.84215 0.0
O141 O 0.89611 0.20285 0.94405 0.0
O142 O 0.90968 0.09802 0.7694 0.0
O143 O 0.85728 0.10729 0.77437 0.0
O144 O 0.93763 0.10241 0.88598 0.0
O145 O 0.92541 0.1514 0.92367 0.0
O146 O 0.88895 0.10704 1.00886 0.0
O147 O 0.87753 0.07776 0.90885 0.0
O148 O 0.8587 0.18033 0.07438 0.0
O149 O 0.9119 0.1756 0.07449 0.0
O150 O 0.83456 0.17746 0.95221 0.0
O151 O 0.84718 0.12855 0.92157 0.0
H152 H 0.93429 0.11658 0.67253 0.0
H153 H 0.8292 0.10125 0.65829 0.0
H154 H 0.82871 0.11483 0.55051 0.0
H155 H 0.9335 0.12989 0.56465 0.0
H156 H 0.84708 0.13445 0.14498 0.0
H157 H 0.92346 0.20609 0.2126 0.0
H158 H 0.92176 0.19005 0.31835 0.0
H159 H 0.84518 0.11874 0.25121 0.0
Gd160 Gd 0.16415 0.39723 0.96931 0.0
Gd161 Gd 0.12687 0.40144 0.84015 0.0
C162 C 0.08368 0.39277 0.95813 0.0
C163 C 0.18815 0.41398 0.08369 0.0
C164 C 0.18322 0.40582 0.14766 0.0
C165 C 0.20934 0.40971 0.19254 0.0
C166 C 0.15217 0.3963 0.16585 0.0
C167 C 0.17301 0.39679 0.27393 0.0
C168 C 0.14711 0.39191 0.22856 0.0
C169 C 0.20432 0.40513 0.25521 0.0
C170 C 0.1487 0.33438 0.90829 0.0
C171 C 0.20621 0.39816 0.84267 0.0
C172 C 0.10475 0.3986 0.72434 0.0
C173 C 0.11657 0.39358 0.65875 0.0
C174 C 0.09498 0.39935 0.60959 0.0
C175 C 0.14946 0.38572 0.64503 0.0
C176 C 0.13904 0.39064 0.53411 0.0
C177 C 0.16062 0.38417 0.58294 0.0
C178 C 0.10611 0.39793 0.54778 0.0
C179 C 0.13448 0.45978 0.92453 0.0
O180 O 0.11011 0.40046 0.99557 0.0
O181 O 0.08474 0.38802 0.89541 0.0
O182 O 0.20137 0.3911 0.04139 0.0
O183 O 0.16396 0.42966 0.06015 0.0
O184 O 0.16502 0.34091 0.96192 0.0
O185 O 0.14225 0.36158 0.89036 0.0
O186 O 0.17862 0.39208 0.80897 0.0
O187 O 0.20675 0.40468 0.90591 0.0
O188 O 0.11458 0.42606 0.76076 0.0
O189 O 0.10487 0.37293 0.75395 0.0
O190 O 0.10817 0.45063 0.89049 0.0
O191 O 0.15542 0.43686 0.91232 0.0
H192 H 0.23344 0.41708 0.17951 0.0
H193 H 0.13166 0.39308 0.13201 0.0
H194 H 0.12281 0.38544 0.24211 0.0
H195 H 0.22461 0.40895 0.28953 0.0
H196 H 0.06961 0.40575 0.61935 0.0
H197 H 0.1666 0.38146 0.68238 0.0
H198 H 0.18616 0.37868 0.57326 0.0
H199 H 0.08918 0.40311 0.51076 0.0
Gd200 Gd 0.88548 0.9201 0.21265 0.0
Gd201 Gd 0.86842 0.88359 0.08276 0.0
C202 C 0.88594 0.83794 0.18509 0.0
C203 C 0.88506 0.94366 0.33362 0.0
C204 C 0.88388 0.93278 0.39632 0.0
C205 C 0.90392 0.94903 0.44666 0.0
C206 C 0.8621 0.90778 0.40781 0.0
C207 C 0.87996 0.91624 0.51932 0.0
C208 C 0.86017 0.89959 0.46889 0.0
C209 C 0.90201 0.94082 0.50758 0.0
C210 C 0.93893 0.90945 0.13849 0.0
C211 C 0.87812 0.96357 0.10137 0.0
C212 C 0.86125 0.86059 0.96205 0.0
C213 C 0.86462 0.871 0.89914 0.0
C214 C 0.8378 0.86671 0.8557 0.0
C215 C 0.89425 0.88386 0.88057 0.0
C216 C 0.87019 0.88716 0.77608 0.0
C217 C 0.897 0.89182 0.81947 0.0
C218 C 0.84052 0.87479 0.79483 0.0
C219 C 0.8178 0.89103 0.1656 0.0
O220 O 0.88554 0.86566 0.22791 0.0
O221 O 0.88246 0.8389 0.12378 0.0
O222 O 0.912 0.93777 0.30188 0.0
O223 O 0.8586 0.93918 0.2971 0.0
O224 O 0.93315 0.93654 0.17812 0.0
O225 O 0.9155 0.88898 0.13974 0.0
O226 O 0.87939 0.93489 0.06255 0.0
O227 O 0.87657 0.96483 0.16374 0.0
O228 O 0.83743 0.87404 0.99723 0.0
O229 O 0.88808 0.85697 0.99527 0.0
O230 O 0.82206 0.86504 0.1226 0.0
O231 O 0.83908 0.9127 0.1589 0.0
H232 H 0.92075 0.96848 0.43904 0.0
H233 H 0.84626 0.89493 0.36993 0.0
H234 H 0.843 0.88055 0.47703 0.0
H235 H 0.91747 0.95394 0.54582 0.0
H236 H 0.81476 0.85674 0.86867 0.0
H237 H 0.91536 0.88747 0.91289 0.0
H238 H 0.92008 0.90141 0.80584 0.0
H239 H 0.81958 0.87105 0.76204 0.0
Gd240 Gd 0.38804 0.61519 0.37284 0.0
Gd241 Gd 0.37476 0.65145 0.49945 0.0
C242 C 0.38362 0.69685 0.39653 0.0
C243 C 0.3892 0.59135 0.25162 0.0
C244 C 0.38703 0.60193 0.18813 0.0
C245 C 0.4156 0.6035 0.15302 0.0
C246 C 0.35652 0.60802 0.15978 0.0
C247 C 0.38333 0.61684 0.06309 0.0
C248 C 0.35473 0.61547 0.09794 0.0
C249 C 0.41377 0.61099 0.0913 0.0
C250 C 0.44338 0.62679 0.44797 0.0
C251 C 0.38377 0.57185 0.48413 0.0
C252 C 0.36879 0.67481 0.61974 0.0
C253 C 0.37128 0.66418 0.68267 0.0
C254 C 0.35116 0.67944 0.7314 0.0
C255 C 0.3933 0.63946 0.69526 0.0
C256 C 0.37561 0.64638 0.80511 0.0
C257 C 0.39552 0.63072 0.75614 0.0
C258 C 0.35325 0.67061 0.79197 0.0
C259 C 0.32031 0.64052 0.41944 0.0
O260 O 0.38067 0.66875 0.35515 0.0
O261 O 0.3861 0.69666 0.45806 0.0
O262 O 0.41551 0.59982 0.2869 0.0
O263 O 0.36272 0.59305 0.28509 0.0
O264 O 0.43611 0.59922 0.41029 0.0
O265 O 0.42057 0.64751 0.44409 0.0
O266 O 0.38796 0.60078 0.52151 0.0
O267 O 0.37878 0.57064 0.42204 0.0
O268 O 0.34436 0.66245 0.58235 0.0
O269 O 0.39595 0.67675 0.58913 0.0
O270 O 0.32795 0.66829 0.45595 0.0
O271 O 0.34261 0.61981 0.42641 0.0
H272 H 0.4394 0.59846 0.17294 0.0
H273 H 0.33396 0.60661 0.18494 0.0
H274 H 0.33099 0.61988 0.077 0.0
H275 H 0.43611 0.61186 0.0652 0.0
H276 H 0.33393 0.69844 0.72269 0.0
H277 H 0.40889 0.62714 0.6583 0.0
H278 H 0.41287 0.61191 0.76523 0.0
H279 H 0.33763 0.68294 0.82891 0.0
Gd280 Gd 0.66642 0.13638 0.6091 0.0
Gd281 Gd 0.63464 0.13365 0.73394 0.0
C282 C 0.58703 0.14075 0.61606 0.0
C283 C 0.69562 0.12525 0.50139 0.0
C284 C 0.68936 0.13094 0.43573 0.0
C285 C 0.66849 0.15642 0.42252 0.0
C286 C 0.70371 0.10982 0.38525 0.0
C287 C 0.67619 0.13921 0.30904 0.0
C288 C 0.69717 0.1139 0.32235 0.0
C289 C 0.66201 0.16057 0.35951 0.0
C290 C 0.64523 0.19655 0.66678 0.0
C291 C 0.7136 0.13763 0.73627 0.0
C292 C 0.61467 0.13794 0.84934 0.0
C293 C 0.62675 0.14502 0.91611 0.0
C294 C 0.65878 0.13661 0.93346 0.0
C295 C 0.60465 0.15681 0.96393 0.0
C296 C 0.64528 0.14875 0.04538 0.0
C297 C 0.61384 0.15872 1.02809 0.0
C298 C 0.66795 0.13841 0.9977 0.0
C299 C 0.63585 0.07507 0.64934 0.0
O300 O 0.61204 0.13019 0.57935 0.0
O301 O 0.59141 0.14891 0.67837 0.0
O302 O 0.7014 0.15158 0.54469 0.0
O303 O 0.67632 0.10353 0.5209 0.0
O304 O 0.64268 0.18502 0.60641 0.0
O305 O 0.659 0.17499 0.695 0.0
O306 O 0.68682 0.13726 0.7692 0.0
O307 O 0.71244 0.13687 0.6737 0.0
O308 O 0.6253 0.11056 0.81536 0.0
O309 O 0.61267 0.16269 0.81749 0.0
O310 O 0.61225 0.08416 0.68768 0.0
O311 O 0.65829 0.09651 0.66167 0.0
H312 H 0.65696 0.17282 0.4608 0.0
H313 H 0.7197 0.0899 0.39449 0.0
H314 H 0.70816 0.09709 0.28397 0.0
H315 H 0.6456 0.18009 0.35003 0.0
H316 H 0.67626 0.12739 0.89741 0.0
H317 H 0.57981 0.16325 0.95159 0.0
H318 H 0.59604 0.16674 0.06422 0.0
H319 H 0.6923 0.13061 1.01017 0.0
Gd320 Gd 0.89372 0.41359 0.84738 0.0
Gd321 Gd 0.86636 0.39896 0.96614 0.0
C322 C 0.81643 0.40236 0.84449 0.0
C323 C 0.91086 0.4203 0.73432 0.0
C324 C 0.89932 0.41167 0.66742 0.0
C325 C 0.89764 0.43686 0.63012 0.0
C326 C 0.89103 0.37886 0.6395 0.0
C327 C 0.88085 0.39666 0.53767 0.0
C328 C 0.88194 0.3714 0.57488 0.0
C329 C 0.8884 0.42944 0.56581 0.0
C330 C 0.89046 0.46701 0.94557 0.0
C331 C 0.94571 0.39892 0.9486 0.0
C332 C 0.83925 0.40275 0.07545 0.0
C333 C 0.84661 0.39685 0.14103 0.0
C334 C 0.83467 0.36823 0.16182 0.0
C335 C 0.86352 0.42107 0.18501 0.0
C336 C 0.85605 0.38847 0.26878 0.0
C337 C 0.86825 0.41683 0.24814 0.0
C338 C 0.83949 0.364 0.2252 0.0
C339 C 0.88927 0.34308 0.89557 0.0
O340 O 0.84221 0.40683 0.81154 0.0
O341 O 0.81901 0.39872 0.90516 0.0
O342 O 0.89371 0.44244 0.77095 0.0
O343 O 0.92119 0.3961 0.76292 0.0
O344 O 0.91429 0.46151 0.90674 0.0
O345 O 0.86915 0.4448 0.92853 0.0
O346 O 0.92174 0.40592 0.99014 0.0
O347 O 0.93924 0.39455 0.88733 0.0
O348 O 0.83574 0.37688 0.03017 0.0
O349 O 0.85484 0.42747 0.0572 0.0
O350 O 0.89221 0.35079 0.95686 0.0
O351 O 0.87374 0.36589 0.87293 0.0
H352 H 0.90393 0.46229 0.6506 0.0
H353 H 0.89198 0.35896 0.66726 0.0
H354 H 0.87617 0.34595 0.55369 0.0
H355 H 0.88772 0.44918 0.53764 0.0
H356 H 0.82117 0.34938 0.12935 0.0
H357 H 0.87269 0.44363 0.17106 0.0
H358 H 0.88108 0.43594 0.28125 0.0
H359 H 0.82995 0.34193 0.2405 0.0
Gd360 Gd 0.40135 0.13265 0.71272 0.0
Gd361 Gd 0.37034 0.13742 0.58786 0.0
C362 C 0.323 0.1333 0.70811 0.0
C363 C 0.41964 0.13251 0.83019 0.0
C364 C 0.4079 0.14081 0.89653 0.0
C365 C 0.39145 0.11675 0.92461 0.0
C366 C 0.41574 0.17162 0.93448 0.0
C367 C 0.39212 0.1536 1.02697 0.0
C368 C 0.40776 0.178 0.9989 0.0
C369 C 0.38366 0.12309 0.98909 0.0
C370 C 0.39932 0.07462 0.62501 0.0
C371 C 0.44958 0.14297 0.60454 0.0
C372 C 0.34318 0.12958 0.47515 0.0
C373 C 0.35109 0.13879 0.41296 0.0
C374 C 0.32587 0.14425 0.37032 0.0
C375 C 0.38361 0.14023 0.39392 0.0
C376 C 0.36578 0.1572 0.29289 0.0
C377 C 0.39074 0.14821 0.33438 0.0
C378 C 0.33302 0.15243 0.31086 0.0
C379 C 0.39043 0.19815 0.65128 0.0
O380 O 0.34967 0.13875 0.74423 0.0
O381 O 0.32462 0.12983 0.6451 0.0
O382 O 0.4057 0.10715 0.79343 0.0
O383 O 0.4265 0.15689 0.79962 0.0
O384 O 0.42428 0.08444 0.66224 0.0
O385 O 0.37696 0.09562 0.63726 0.0
O386 O 0.42494 0.13112 0.56513 0.0
O387 O 0.44464 0.15082 0.66606 0.0
O388 O 0.33549 0.15385 0.52072 0.0
O389 O 0.36238 0.10751 0.49504 0.0
O390 O 0.39331 0.18735 0.5912 0.0
O391 O 0.37679 0.17559 0.67651 0.0
H392 H 0.38531 0.09261 0.89718 0.0
H393 H 0.42874 0.19055 0.91482 0.0
H394 H 0.41453 0.20171 1.02735 0.0
H395 H 0.37158 0.10395 1.00978 0.0
H396 H 0.30046 0.14155 0.38248 0.0
H397 H 0.40364 0.13445 0.42457 0.0
H398 H 0.41609 0.14603 0.32132 0.0
H399 H 0.31234 0.15383 0.27889 0.0
Gd400 Gd 0.65376 0.65996 0.47448 0.0
Gd401 Gd 0.63109 0.62264 0.33885 0.0
C402 C 0.64166 0.57967 0.45398 0.0
C403 C 0.66087 0.68177 0.5954 0.0
C404 C 0.65592 0.67054 0.65707 0.0
C405 C 0.68033 0.67734 0.70523 0.0
C406 C 0.62718 0.65378 0.66928 0.0
C407 C 0.64741 0.65113 0.77687 0.0
C408 C 0.62306 0.64397 0.72856 0.0
C409 C 0.67611 0.66779 0.76456 0.0
C410 C 0.70069 0.64969 0.38451 0.0
C411 C 0.63323 0.70483 0.37049 0.0
C412 C 0.63664 0.59509 0.22055 0.0
C413 C 0.63453 0.60391 0.15608 0.0
C414 C 0.62738 0.57906 0.10349 0.0
C415 C 0.64135 0.63633 0.14579 0.0
C416 C 0.63564 0.61841 0.03108 0.0
C417 C 0.64216 0.64345 0.08383 0.0
C418 C 0.62772 0.58626 0.04156 0.0
C419 C 0.57686 0.63708 0.40891 0.0
O420 O 0.64947 0.60759 0.49237 0.0
O421 O 0.63487 0.57877 0.39224 0.0
O422 O 0.68446 0.66743 0.56049 0.0
O423 O 0.63461 0.68714 0.56179 0.0
O424 O 0.70007 0.67528 0.42978 0.0
O425 O 0.67808 0.62963 0.3928 0.0
O426 O 0.63045 0.67739 0.327 0.0
O427 O 0.6391 0.70428 0.43149 0.0
O428 O 0.60936 0.5948 0.2514 0.0
O429 O 0.66129 0.60788 0.25713 0.0
O430 O 0.57635 0.62168 0.35048 0.0
O431 O 0.6064 0.64434 0.42669 0.0
H432 H 0.70264 0.6903 0.69708 0.0
H433 H 0.60784 0.64843 0.63323 0.0
H434 H 0.60076 0.63108 0.737 0.0
H435 H 0.69521 0.67354 0.80107 0.0
H436 H 0.62204 0.5539 0.11028 0.0
H437 H 0.64653 0.65601 0.18556 0.0
H438 H 0.64815 0.66844 0.07694 0.0
H439 H 0.62246 0.56661 1.00167 0.0
Gd440 Gd 0.14473 0.87601 0.07371 0.0
Gd441 Gd 0.13747 0.91485 0.20225 0.0
C442 C 0.14265 0.95617 0.08716 0.0
C443 C 0.14256 0.85167 0.95297 0.0
C444 C 0.14252 0.86314 0.89043 0.0
C445 C 0.16629 0.85083 0.84608 0.0
C446 C 0.11861 0.88507 0.87312 0.0
C447 C 0.14189 0.88131 0.76795 0.0
C448 C 0.11827 0.89399 0.81236 0.0
C449 C 0.16605 0.85989 0.7856 0.0
C450 C 0.20226 0.88735 0.14427 0.0
C451 C 0.13863 0.83255 0.18094 0.0
C452 C 0.14242 0.93911 0.32321 0.0
C453 C 0.14188 0.92839 0.38655 0.0
C454 C 0.11225 0.92043 0.41327 0.0
C455 C 0.1712 0.92814 0.42285 0.0
C456 C 0.14132 0.91254 0.51091 0.0
C457 C 0.17094 0.92018 0.48423 0.0
C458 C 0.11201 0.91258 0.47478 0.0
C459 C 0.07937 0.90468 0.13634 0.0
O460 O 0.13745 0.92732 0.05025 0.0
O461 O 0.14723 0.95816 0.1496 0.0
O462 O 0.1698 0.85583 0.98712 0.0
O463 O 0.11643 0.85737 0.98744 0.0
O464 O 0.19365 0.85941 0.10914 0.0
O465 O 0.17954 0.90799 0.14022 0.0
O466 O 0.14309 0.86105 0.22081 0.0
O467 O 0.13421 0.83199 0.11946 0.0
O468 O 0.11496 0.93789 0.28989 0.0
O469 O 0.16755 0.93014 0.28781 0.0
O470 O 0.08838 0.93206 0.1727 0.0
O471 O 0.10178 0.88311 0.13728 0.0
H472 H 0.1849 0.83383 0.85802 0.0
H473 H 0.09998 0.89507 0.90617 0.0
H474 H 0.09942 0.91055 0.79974 0.0
H475 H 0.18449 0.84982 0.75216 0.0
H476 H 0.08916 0.92063 0.38705 0.0
H477 H 0.19436 0.93452 0.40404 0.0
H478 H 0.19383 0.92031 0.51125 0.0
H479 H 0.08889 0.90678 0.49446 0.0
Gd480 Gd 0.89992 0.63598 0.24215 0.0
Gd481 Gd 0.86551 0.63801 0.11582 0.0
C482 C 0.82033 0.63521 0.23693 0.0
C483 C 0.9227 0.64748 0.35815 0.0
C484 C 0.91313 0.64396 0.42245 0.0
C485 C 0.93735 0.64676 0.4709 0.0
C486 C 0.88034 0.63815 0.43634 0.0
C487 C 0.89621 0.63865 0.54703 0.0
C488 C 0.87191 0.63555 0.49848 0.0
C489 C 0.92897 0.64412 0.53285 0.0
C490 C 0.89066 0.57582 0.16583 0.0
C491 C 0.94652 0.64206 0.12633 0.0
C492 C 0.8433 0.62456 0.99962 0.0
C493 C 0.8522 0.62774 0.93457 0.0
C494 C 0.82784 0.63672 0.8931 0.0
C495 C 0.8841 0.62105 0.91255 0.0
C496 C 0.86679 0.63169 0.80813 0.0
C497 C 0.89132 0.62294 0.84953 0.0
C498 C 0.8351 0.63876 0.8303 0.0
C499 C 0.87508 0.69908 0.18718 0.0
O500 O 0.84729 0.64149 0.2726 0.0
O501 O 0.82146 0.62875 0.17396 0.0
O502 O 0.92801 0.6199 0.31891 0.0
O503 O 0.90667 0.6695 0.33153 0.0
O504 O 0.91471 0.58261 0.20696 0.0
O505 O 0.87096 0.59976 0.17387 0.0
O506 O 0.91987 0.63705 0.08841 0.0
O507 O 0.94428 0.64589 0.18872 0.0
O508 O 0.83658 0.65208 0.03794 0.0
O509 O 0.86024 0.60356 1.02739 0.0
O510 O 0.84942 0.69015 0.1511 0.0
O511 O 0.89531 0.67527 0.1816 0.0
H512 H 0.96276 0.65118 0.46085 0.0
H513 H 0.86135 0.63583 0.39938 0.0
H514 H 0.84651 0.63133 0.50882 0.0
H515 H 0.94795 0.64654 0.56986 0.0
H516 H 0.8031 0.64189 0.90922 0.0
H517 H 0.90331 0.61415 0.94378 0.0
H518 H 0.91593 0.6175 0.83295 0.0
H519 H 0.81597 0.64558 0.79881 0.0
Gd520 Gd 0.16193 0.1453 0.9619 0.0
Gd521 Gd 0.13802 0.1124 0.83593 0.0
C522 C 0.14486 0.06743 0.94574 0.0
C523 C 0.17808 0.16414 0.08134 0.0
C524 C 0.1733 0.1544 0.14439 0.0
C525 C 0.19784 0.16218 0.19207 0.0
C526 C 0.14451 0.13831 0.15846 0.0
C527 C 0.16457 0.1391 0.26757 0.0
C528 C 0.14015 0.13081 0.21962 0.0
C529 C 0.19356 0.15458 0.25299 0.0
C530 C 0.20808 0.1369 0.8683 0.0
C531 C 0.1433 0.19518 0.87229 0.0
C532 C 0.13232 0.09044 0.71394 0.0
C533 C 0.13818 0.10022 0.65081 0.0
C534 C 0.11259 0.11349 0.61738 0.0
C535 C 0.16847 0.09383 0.62085 0.0
C536 C 0.14732 0.11362 0.52606 0.0
C537 C 0.17304 0.10068 0.55938 0.0
C538 C 0.11713 0.12014 0.55579 0.0
C539 C 0.08765 0.12345 0.91707 0.0
O540 O 0.14589 0.09603 0.98446 0.0
O541 O 0.14514 0.06637 0.88319 0.0
O542 O 0.19623 0.14467 0.04154 0.0
O543 O 0.15251 0.17539 0.05345 0.0
O544 O 0.20607 0.16285 0.91214 0.0
O545 O 0.18719 0.11577 0.87884 0.0
O546 O 0.14145 0.16831 0.82713 0.0
O547 O 0.14745 0.19265 0.93239 0.0
O548 O 0.10874 0.10521 0.74789 0.0
O549 O 0.15786 0.08496 0.74896 0.0
O550 O 0.09169 0.09666 0.87563 0.0
O551 O 0.11162 0.14334 0.9149 0.0
H552 H 0.22026 0.17451 0.18234 0.0
H553 H 0.1253 0.13184 0.12246 0.0
H554 H 0.11763 0.11881 0.22974 0.0
H555 H 0.21273 0.16113 0.28909 0.0
H556 H 0.08879 0.11821 0.63837 0.0
H557 H 0.1886 0.08319 0.6446 0.0
H558 H 0.19654 0.09546 0.53741 0.0
H559 H 0.09693 0.13005 0.53096 0.0
Gd560 Gd 0.66241 0.38507 0.56005 0.0
Gd561 Gd 0.63858 0.41452 0.68818 0.0
C562 C 0.64545 0.46217 0.58006 0.0
C563 C 0.67096 0.36719 0.43885 0.0
C564 C 0.66553 0.37958 0.37751 0.0
C565 C 0.69014 0.39776 0.35295 0.0
C566 C 0.63669 0.37112 0.34043 0.0
C567 C 0.65764 0.39772 0.25541 0.0
C568 C 0.63277 0.38016 0.28016 0.0
C569 C 0.68618 0.40681 0.29264 0.0
C570 C 0.70949 0.39174 0.65581 0.0
C571 C 0.64826 0.33526 0.65405 0.0
C572 C 0.63499 0.44579 0.80446 0.0
C573 C 0.63844 0.43799 0.87002 0.0
C574 C 0.61139 0.4415 0.91019 0.0
C575 C 0.66875 0.42819 0.89409 0.0
C576 C 0.64472 0.4255 0.99653 0.0
C577 C 0.67183 0.42207 0.95667 0.0
C578 C 0.61446 0.4352 0.97269 0.0
C579 C 0.58973 0.38546 0.6101 0.0
O580 O 0.66339 0.43835 0.54956 0.0
O581 O 0.63103 0.45823 0.63367 0.0
O582 O 0.69362 0.38191 0.47838 0.0
O583 O 0.64507 0.35893 0.468 0.0
O584 O 0.70842 0.36765 0.60763 0.0
O585 O 0.687 0.41185 0.64766 0.0
O586 O 0.65199 0.3615 0.70001 0.0
O587 O 0.64496 0.33921 0.59422 0.0
O588 O 0.60928 0.43382 0.77015 0.0
O589 O 0.66155 0.44452 0.77113 0.0
O590 O 0.59318 0.38349 0.67007 0.0
O591 O 0.61286 0.40309 0.59383 0.0
H592 H 0.71281 0.40443 0.37972 0.0
H593 H 0.61738 0.35685 0.35736 0.0
H594 H 0.6106 0.37283 0.25215 0.0
H595 H 0.70571 0.42026 0.27437 0.0
H596 H 0.58785 0.44926 0.89326 0.0
H597 H 0.6902 0.42536 0.86477 0.0
H598 H 0.69538 0.41459 0.97406 0.0
H599 H 0.59323 0.43797 1.00259 0.0
Gd600 Gd 0.39055 0.90046 0.33302 0.0
Gd601 Gd 0.3594 0.89581 0.45437 0.0
C602 C 0.31194 0.89583 0.32856 0.0
C603 C 0.41024 0.8989 0.21781 0.0
C604 C 0.39921 0.8906 0.14993 0.0
C605 C 0.37689 0.91095 0.12283 0.0
C606 C 0.41373 0.86398 0.10994 0.0
C607 C 0.38534 0.87924 1.01727 0.0
C608 C 0.40674 0.85826 0.04437 0.0
C609 C 0.37008 0.90532 0.05712 0.0
C610 C 0.38895 0.95951 0.41747 0.0
C611 C 0.43827 0.89318 0.44724 0.0
C612 C 0.33248 0.90344 0.56455 0.0
C613 C 0.34183 0.89583 0.62823 0.0
C614 C 0.31887 0.88176 0.66364 0.0
C615 C 0.37312 0.90371 0.65546 0.0
C616 C 0.36007 0.87859 0.7491 0.0
C617 C 0.38166 0.89625 0.71544 0.0
C618 C 0.32753 0.87411 0.72358 0.0
C619 C 0.38194 0.83603 0.39584 0.0
O620 O 0.33887 0.8959 0.29625 0.0
O621 O 0.31292 0.89645 0.39111 0.0
O622 O 0.39735 0.92502 0.25217 0.0
O623 O 0.41508 0.87446 0.24966 0.0
O624 O 0.41411 0.94809 0.38511 0.0
O625 O 0.36617 0.9382 0.40497 0.0
O626 O 0.41353 0.90489 0.48346 0.0
O627 O 0.43378 0.88405 0.38557 0.0
O628 O 0.32603 0.87804 0.51958 0.0
O629 O 0.34963 0.92663 0.54458 0.0
O630 O 0.38405 0.84708 0.45625 0.0
O631 O 0.36739 0.85735 0.36802 0.0
H632 H 0.36536 0.93181 0.15201 0.0
H633 H 0.43127 0.84813 0.12914 0.0
H634 H 0.41878 0.83801 1.0144 0.0
H635 H 0.35348 0.92176 0.03716 0.0
H636 H 0.29395 0.87705 0.6453 0.0
H637 H 0.39102 0.91616 0.63087 0.0
H638 H 0.40517 0.90551 0.73508 0.0
H639 H 0.30791 0.86555 0.74978 0.0
C640 C 0.14608 0.66654 0.72137 0.0
C641 C 0.16757 0.64231 0.73978 0.0
C642 C 0.17781 0.62087 0.62731 0.0
C643 C 0.15329 0.64229 0.60913 0.0
N644 N 0.11205 0.68392 0.63795 0.0
N645 N 0.20127 0.59386 0.71078 0.0
C646 C 0.13697 0.66484 0.65595 0.0
C647 C 0.18298 0.61894 0.69285 0.0
N648 N 0.13505 0.69166 0.76638 0.0
N649 N 0.19634 0.60256 0.58178 0.0
H650 H 0.20558 0.59144 0.75815 0.0
H651 H 0.21005 0.57391 0.67882 0.0
H652 H 0.19283 0.60299 0.53332 0.0
H653 H 0.21694 0.58921 0.59212 0.0
H654 H 0.12205 0.71201 0.7556 0.0
H655 H 0.14131 0.69368 0.8146 0.0
H656 H 0.0965 0.69784 0.6699 0.0
H657 H 0.10554 0.68425 0.59046 0.0
C658 C 0.66325 0.87096 0.92074 0.0
C659 C 0.64123 0.89552 0.94964 0.0
C660 C 0.6304 0.91319 0.84672 0.0
C661 C 0.65476 0.8909 0.81925 0.0
N662 N 0.69693 0.85084 0.83022 0.0
N663 N 0.60746 0.94337 0.94306 0.0
C664 C 0.67189 0.87034 0.8563 0.0
C665 C 0.62564 0.91746 0.91334 0.0
N666 N 0.67516 0.84769 0.95445 0.0
N667 N 0.61159 0.93006 0.80892 0.0
H668 H 0.60351 0.94756 0.99183 0.0
H669 H 0.59856 0.9624 0.92054 0.0
H670 H 0.61493 0.9283 0.76018 0.0
H671 H 0.59096 0.94371 0.82469 0.0
H672 H 0.68858 0.82708 0.93441 0.0
H673 H 0.66944 0.84753 1.00177 0.0
H674 H 0.71296 0.83828 0.85651 0.0
H675 H 0.70307 0.84884 0.78258 0.0
C676 C 0.36424 0.42293 0.1792 0.0
C677 C 0.37227 0.39205 0.19798 0.0
C678 C 0.39458 0.37254 0.09206 0.0
C679 C 0.38413 0.40237 0.07178 0.0
N680 N 0.35381 0.45348 0.09255 0.0
N681 N 0.39005 0.33538 0.1692 0.0
C682 C 0.36745 0.42686 0.11444 0.0
C683 C 0.38604 0.36625 0.15347 0.0
N684 N 0.35465 0.44897 0.22381 0.0
N685 N 0.41372 0.35071 0.05353 0.0
H686 H 0.38424 0.32988 0.21361 0.0
H687 H 0.39652 0.31457 0.13671 0.0
H688 H 0.42035 0.3543 1.00829 0.0
H689 H 0.42523 0.33045 0.06823 0.0
H690 H 0.35194 0.4731 0.21468 0.0
H691 H 0.35217 0.44719 0.27164 0.0
H692 H 0.33832 0.47031 0.11927 0.0
H693 H 0.35555 0.45715 0.04553 0.0
C694 C 0.8702 0.16207 0.47132 0.0
C695 C 0.88081 0.13058 0.48343 0.0
C696 C 0.8942 0.11423 0.37083 0.0
C697 C 0.88148 0.14485 0.35794 0.0
N698 N 0.85169 0.19527 0.39321 0.0
N699 N 0.89746 0.07448 0.4435 0.0
C700 C 0.86784 0.16803 0.40749 0.0
C701 C 0.89123 0.10599 0.43275 0.0
N702 N 0.86334 0.18665 0.52104 0.0
N703 N 0.91022 0.09356 0.32454 0.0
H704 H 0.8958 0.06761 0.48824 0.0
H705 H 0.90159 0.05449 0.40735 0.0
H706 H 0.91282 0.09865 0.27864 0.0
H707 H 0.92318 0.0727 0.33285 0.0
H708 H 0.85911 0.21123 0.51596 0.0
H709 H 0.86446 0.18315 0.56835 0.0
H710 H 0.83821 0.21121 0.42602 0.0
H711 H 0.84925 0.20036 0.34704 0.0
C712 C 0.16512 0.42445 0.38723 0.0
C713 C 0.16681 0.39479 0.34179 0.0
C714 C 0.15107 0.36198 0.423 0.0
C715 C 0.15091 0.39148 0.46895 0.0
N716 N 0.16382 0.44976 0.49849 0.0
N717 N 0.1673 0.33496 0.31823 0.0
C718 C 0.15989 0.4224 0.45214 0.0
C719 C 0.16153 0.3634 0.36027 0.0
N720 N 0.16697 0.45467 0.36787 0.0
N721 N 0.14032 0.33278 0.43889 0.0
H722 H 0.17495 0.33515 0.27201 0.0
H723 H 0.16718 0.31134 0.33049 0.0
H724 H 0.13349 0.33063 0.48481 0.0
H725 H 0.13614 0.3112 0.40594 0.0
H726 H 0.16216 0.47709 0.39727 0.0
H727 H 0.1707 0.45733 0.32084 0.0
H728 H 0.17383 0.47213 0.49047 0.0
H729 H 0.15968 0.44932 0.54638 0.0
C730 C 0.88711 0.87101 0.66228 0.0
C731 C 0.87316 0.89478 0.71045 0.0
C732 C 0.86092 0.93105 0.63198 0.0
C733 C 0.87723 0.90853 0.58499 0.0
N734 N 0.91009 0.85949 0.55708 0.0
N735 N 0.85106 0.9494 0.74412 0.0
C736 C 0.89147 0.87912 0.6006 0.0
C737 C 0.86128 0.92539 0.6961 0.0
N738 N 0.89538 0.84032 0.67508 0.0
N739 N 0.84415 0.95728 0.61483 0.0
H740 H 0.85054 0.94595 0.79142 0.0
H741 H 0.84558 0.97359 0.73811 0.0
H742 H 0.84333 0.96224 0.56844 0.0
H743 H 0.82883 0.97253 0.64514 0.0
H744 H 0.90209 0.82059 0.64035 0.0
H745 H 0.89317 0.83371 0.71992 0.0
H746 H 0.92415 0.83978 0.56768 0.0
H747 H 0.91362 0.86445 0.51135 0.0
C748 C 0.36645 0.6073 0.88342 0.0
C749 C 0.37849 0.63816 0.87078 0.0
C750 C 0.39105 0.656 0.98487 0.0
C751 C 0.38148 0.6242 0.99676 0.0
N752 N 0.36526 0.5676 0.95623 0.0
N753 N 0.4078 0.6895 0.90742 0.0
C754 C 0.37065 0.59926 0.94564 0.0
C755 C 0.39236 0.66186 0.92101 0.0
N756 N 0.34993 0.58616 0.83655 0.0
N757 N 0.39793 0.68097 0.03478 0.0
H758 H 0.40956 0.69451 0.86128 0.0
H759 H 0.42141 0.7059 0.94095 0.0
H760 H 0.39738 0.67762 0.08213 0.0
H761 H 0.40144 0.70564 0.02962 0.0
H762 H 0.33747 0.56501 0.84447 0.0
H763 H 0.34634 0.59115 0.79053 0.0
H764 H 0.36091 0.54748 0.91992 0.0
H765 H 0.36783 0.56083 1.00109 0.0
C766 C 0.67476 0.17039 0.14972 0.0
C767 C 0.65344 0.14658 0.11306 0.0
C768 C 0.64461 0.12027 0.20667 0.0
C769 C 0.66801 0.1423 0.24185 0.0
N770 N 0.70885 0.18541 0.24539 0.0
N771 N 0.62255 0.09536 0.10299 0.0
C772 C 0.68407 0.1666 0.21296 0.0
C773 C 0.63956 0.12055 0.14058 0.0
N774 N 0.68531 0.19713 0.12468 0.0
N775 N 0.62655 0.09964 0.23687 0.0
H776 H 0.61842 0.0945 0.05431 0.0
H777 H 0.61499 0.07383 0.11876 0.0
H778 H 0.62974 0.09847 0.2851 0.0
H779 H 0.60656 0.08574 0.21556 0.0
H780 H 0.69799 0.21723 0.15104 0.0
H781 H 0.67919 0.20052 0.07844 0.0
H782 H 0.72401 0.20092 0.22473 0.0
H783 H 0.71593 0.18366 0.29204 0.0
C784 C 0.892 0.37614 0.35873 0.0
C785 C 0.86068 0.385 0.33663 0.0
C786 C 0.84071 0.3932 0.44564 0.0
C787 C 0.87319 0.38902 0.46832 0.0
N788 N 0.93038 0.37797 0.44808 0.0
N789 N 0.80529 0.4035 0.35793 0.0
C790 C 0.89898 0.38053 0.42525 0.0
C791 C 0.83487 0.39355 0.37971 0.0
N792 N 0.91487 0.36315 0.31587 0.0
N793 N 0.81551 0.39665 0.48727 0.0
H794 H 0.7999 0.40348 0.30989 0.0
H795 H 0.78671 0.41369 0.38753 0.0
H796 H 0.81915 0.39692 0.53594 0.0
H797 H 0.79085 0.39648 0.47325 0.0
H798 H 0.93703 0.35314 0.32859 0.0
H799 H 0.91046 0.3597 0.2668 0.0
H800 H 0.95088 0.37592 0.41963 0.0
H801 H 0.93628 0.37989 0.49642 0.0
C802 C 0.3486 0.17478 0.1856 0.0
C803 C 0.37359 0.16716 0.22854 0.0
C804 C 0.41227 0.16008 0.14124 0.0
C805 C 0.38575 0.15969 0.09662 0.0
N806 N 0.32816 0.16876 0.0766 0.0
N807 N 0.43045 0.18264 0.24801 0.0
C808 C 0.35373 0.16778 0.11885 0.0
C809 C 0.40623 0.16823 0.20724 0.0
N810 N 0.32274 0.19386 0.20855 0.0
N811 N 0.4432 0.15199 0.12118 0.0
H812 H 0.4252 0.19498 0.29356 0.0
H813 H 0.45415 0.18673 0.23358 0.0
H814 H 0.44886 0.14564 0.0733 0.0
H815 H 0.46253 0.14902 0.15272 0.0
H816 H 0.30519 0.20287 0.17951 0.0
H817 H 0.32184 0.20463 0.25647 0.0
H818 H 0.30381 0.17092 0.09042 0.0
H819 H 0.33114 0.16542 1.02753 0.0
C820 C 0.61499 0.64785 0.94272 0.0
C821 C 0.63772 0.62577 0.96486 0.0
C822 C 0.66303 0.61633 0.86001 0.0
C823 C 0.64302 0.64147 0.84074 0.0
N824 N 0.60332 0.685 0.86762 0.0
N825 N 0.68713 0.59329 0.94787 0.0
C826 C 0.61984 0.65825 0.88312 0.0
C827 C 0.66274 0.61108 0.92431 0.0
N828 N 0.58816 0.65811 0.97771 0.0
N829 N 0.68169 0.59683 0.8164 0.0
H830 H 0.68828 0.5894 0.99493 0.0
H831 H 0.70786 0.58503 0.92248 0.0
H832 H 0.68225 0.5997 0.76878 0.0
H833 H 0.69409 0.57587 0.82597 0.0
H834 H 0.56898 0.67139 0.96101 0.0
H835 H 0.58351 0.65067 1.02107 0.0
H836 H 0.5889 0.70047 0.8995 0.0
H837 H 0.60627 0.69356 0.82473 0.0
C838 C 0.14665 0.93035 0.63012 0.0
C839 C 0.14099 0.90471 0.57696 0.0
C840 C 0.13199 0.86488 0.64948 0.0
C841 C 0.14096 0.88969 0.70225 0.0
N842 N 0.16181 0.94481 0.74215 0.0
N843 N 0.13356 0.8464 0.53547 0.0
C844 C 0.14962 0.92214 0.69239 0.0
C845 C 0.13509 0.87163 0.58651 0.0
N846 N 0.14817 0.96272 0.62132 0.0
N847 N 0.11944 0.83517 0.65958 0.0
H848 H 0.13578 0.85029 0.48869 0.0
H849 H 0.13297 0.82137 0.53973 0.0
H850 H 0.11649 0.82939 0.70488 0.0
H851 H 0.10918 0.81748 0.62347 0.0
H852 H 0.14867 0.98281 0.65858 0.0
H853 H 0.14602 0.96973 0.5766 0.0
H854 H 0.17191 0.96759 0.73678 0.0
H855 H 0.16441 0.93975 0.78832 0.0
C856 C 0.87259 0.60403 0.6948 0.0
C857 C 0.87418 0.63338 0.74111 0.0
C858 C 0.88625 0.66649 0.65873 0.0
C859 C 0.88751 0.63681 0.61341 0.0
N860 N 0.88623 0.57695 0.58868 0.0
N861 N 0.88658 0.69182 0.77004 0.0
C862 C 0.88178 0.60543 0.63148 0.0
C863 C 0.88214 0.66445 0.72387 0.0
N864 N 0.86158 0.57501 0.71112 0.0
N865 N 0.88804 0.69664 0.63909 0.0
H866 H 0.88319 0.69139 0.81818 0.0
H867 H 0.89602 0.71432 0.76145 0.0
H868 H 0.89112 0.69909 0.59172 0.0
H869 H 0.88379 0.71917 0.66857 0.0
H870 H 0.8563 0.55367 0.6782 0.0
H871 H 0.85535 0.57287 0.75737 0.0
H872 H 0.88606 0.55328 0.60076 0.0
H873 H 0.89255 0.577 0.54165 0.0
C874 C 0.15385 0.093 0.40836 0.0
C875 C 0.15182 0.12004 0.45968 0.0
C876 C 0.15442 0.15922 0.38401 0.0
C877 C 0.15963 0.13235 0.3336 0.0
N878 N 0.16956 0.07395 0.29938 0.0
N879 N 0.15578 0.17899 0.49783 0.0
C880 C 0.16077 0.09928 0.34623 0.0
C881 C 0.15365 0.1532 0.44786 0.0
N882 N 0.14809 0.06133 0.41856 0.0
N883 N 0.1491 0.1904 0.37064 0.0
H884 H 0.15546 0.17561 0.54519 0.0
H885 H 0.16079 0.2034 0.49262 0.0
H886 H 0.14921 0.19579 0.32458 0.0
H887 H 0.14164 0.2103 0.40433 0.0
H888 H 0.14567 0.04098 0.38206 0.0
H889 H 0.14287 0.05572 0.46317 0.0
H890 H 0.17438 0.04993 0.30736 0.0
H891 H 0.17477 0.07753 0.25341 0.0
C892 C 0.64768 0.43789 0.17875 0.0
C893 C 0.65444 0.40508 0.18915 0.0
C894 C 0.65183 0.38531 0.07367 0.0
C895 C 0.64797 0.41853 0.06307 0.0
N896 N 0.64752 0.4772 0.1051 0.0
N897 N 0.66874 0.34855 0.14657 0.0
C898 C 0.64734 0.44507 0.11556 0.0
C899 C 0.65815 0.37905 0.13656 0.0
N900 N 0.64058 0.46198 0.22912 0.0
N901 N 0.64833 0.35957 1.02386 0.0
H902 H 0.67365 0.34295 0.19179 0.0
H903 H 0.67545 0.32971 0.11004 0.0
H904 H 0.64354 0.36306 0.9772 0.0
H905 H 0.64726 0.33474 0.02944 0.0
H906 H 0.63203 0.48546 0.22424 0.0
H907 H 0.64059 0.4576 0.27586 0.0
H908 H 0.65065 0.49763 0.14122 0.0
H909 H 0.64733 0.48345 0.05967 0.0
C910 C 0.40583 0.8832 0.90837 0.0
C911 C 0.38028 0.87467 0.94676 0.0
C912 C 0.34811 0.85305 0.84957 0.0
C913 C 0.37014 0.86887 0.81335 0.0
N914 N 0.4289 0.8702 0.80454 0.0
N915 N 0.32709 0.84946 0.95338 0.0
C916 C 0.40193 0.87601 0.84117 0.0
C917 C 0.3514 0.85891 0.91722 0.0
N918 N 0.43362 0.89881 0.93558 0.0
N919 N 0.32821 0.82804 0.81953 0.0
H920 H 0.32919 0.85185 1.00277 0.0
H921 H 0.30415 0.84115 0.93432 0.0
H922 H 0.33027 0.8188 0.77111 0.0
H923 H 0.31372 0.81341 0.84358 0.0
H924 H 0.45141 0.90816 0.90892 0.0
H925 H 0.43755 0.90482 0.98468 0.0
H926 H 0.45283 0.87216 0.82337 0.0
H927 H 0.42691 0.85861 0.75706 0.0
C928 C 0.17369 0.74816 0.19246 0.0
C929 C 0.1451 0.7305 0.20437 0.0
C930 C 0.11395 0.78253 0.21965 0.0
C931 C 0.14191 0.7998 0.20342 0.0
N932 N 0.20067 0.8018 0.19922 0.0
N933 N 0.09284 0.73268 0.25363 0.0
C934 C 0.17261 0.78345 0.19817 0.0
C935 C 0.1168 0.74841 0.22633 0.0
N936 N 0.20138 0.7311 0.17276 0.0
N937 N 0.08444 0.79824 0.22587 0.0
H938 H 0.09503 0.70785 0.25921 0.0
H939 H 0.0726 0.74485 0.27525 0.0
H940 H 0.08202 0.82333 0.22285 0.0
H941 H 0.06241 0.78606 0.2308 0.0
H942 H 0.22167 0.7421 0.1558 0.0
H943 H 0.20343 0.70549 0.17079 0.0
H944 H 0.22413 0.79182 0.20024 0.0
H945 H 0.20019 0.82767 0.20686 0.0
C946 C 0.52061 0.92548 0.4411 0.0
C947 C 0.54138 0.89841 0.44919 0.0
C948 C 0.49237 0.86823 0.47452 0.0
C949 C 0.47298 0.89666 0.47065 0.0
N950 N 0.47263 0.95592 0.4799 0.0
N951 N 0.54711 0.8463 0.48764 0.0
C952 C 0.48867 0.92658 0.46501 0.0
C953 C 0.52737 0.8706 0.47132 0.0
N954 N 0.52975 0.94882 0.40612 0.0
N955 N 0.47729 0.8389 0.47898 0.0
H956 H 0.57258 0.84735 0.48533 0.0
H957 H 0.53836 0.82667 0.50813 0.0
H958 H 0.45196 0.83728 0.48424 0.0
H959 H 0.48963 0.81634 0.4747 0.0
H960 H 0.51393 0.96744 0.39608 0.0
H961 H 0.55125 0.94722 0.38095 0.0
H962 H 0.48419 0.97874 0.47981 0.0
H963 H 0.44956 0.95704 0.50015 0.0
C964 C 0.41245 0.28958 0.69358 0.0
C965 C 0.38697 0.30314 0.65919 0.0
C966 C 0.35741 0.24939 0.64498 0.0
C967 C 0.38509 0.23478 0.67071 0.0
N968 N 0.43346 0.24192 0.73752 0.0
N969 N 0.3336 0.29724 0.60693 0.0
C970 C 0.41088 0.25534 0.70101 0.0
C971 C 0.3586 0.28355 0.63763 0.0
N972 N 0.43888 0.30909 0.71613 0.0
N973 N 0.33 0.23029 0.62776 0.0
H974 H 0.33297 0.32235 0.60327 0.0
H975 H 0.31382 0.28395 0.5835 0.0
H976 H 0.32867 0.20547 0.63355 0.0
H977 H 0.30781 0.2392 0.61264 0.0
H978 H 0.46011 0.30034 0.73558 0.0
H979 H 0.43981 0.33438 0.71369 0.0
H980 H 0.45205 0.25542 0.76471 0.0
H981 H 0.43191 0.21717 0.74393 0.0
C982 C 0.99972 0.14565 0.87648 0.0
C983 C 0.98335 0.13684 0.9293 0.0
C984 C 0.03691 0.13126 0.9831 0.0
C985 C 0.05303 0.13516 0.92676 0.0
N986 N 0.05059 0.14814 0.82072 0.0
N987 N 0.98554 0.12188 0.03357 0.0
C988 C 0.03463 0.14367 0.87424 0.0
C989 C 1.00176 0.13034 0.98331 0.0
N990 N 0.98175 0.1554 0.82785 0.0
N991 N 0.05542 0.12848 0.0362 0.0
H992 H 0.95999 0.12224 0.03587 0.0
H993 H 0.99707 0.1133 0.07168 0.0
H994 H 0.08102 0.12949 0.03662 0.0
H995 H 0.04576 0.12783 0.08061 0.0
H996 H 0.99185 0.16569 0.79127 0.0
H997 H 0.95618 0.15541 0.82591 0.0
H998 H 0.03902 0.14956 0.77727 0.0
H999 H 0.07604 0.14969 0.81922 0.0
C1000 C 0.11314 0.28341 0.87535 0.0
C1001 C 0.14358 0.29983 0.87277 0.0
C1002 C 0.17078 0.24591 0.8443 0.0
C1003 C 0.14145 0.22956 0.85712 0.0
N1004 N 0.08418 0.232 0.88194 0.0
N1005 N 0.19833 0.29792 0.83478 0.0
C1006 C 0.11223 0.2481 0.87028 0.0
C1007 C 0.17144 0.28129 0.85046 0.0
N1008 N 0.08518 0.30175 0.88189 0.0
N1009 N 0.19852 0.22771 0.83064 0.0
H1010 H 0.19831 0.32365 0.83699 0.0
H1011 H 0.21924 0.28653 0.81459 0.0
H1012 H 0.19841 0.20192 0.82471 0.0
H1013 H 0.22171 0.23781 0.8271 0.0
H1014 H 0.06161 0.29171 0.87955 0.0
H1015 H 0.08573 0.32732 0.8834 0.0
H1016 H 0.0629 0.24396 0.89907 0.0
H1017 H 0.08266 0.2062 0.87676 0.0
C1018 C 0.02544 0.90233 0.07468 0.0
C1019 C 0.04353 0.89661 0.1296 0.0
C1020 C 0.99186 0.89079 0.18436 0.0
C1021 C 0.97388 0.89866 0.13086 0.0
N1022 N 0.97212 0.90353 1.02041 0.0
N1023 N 0.0446 0.88032 0.23303 0.0
C1024 C 0.99031 0.9016 0.07432 0.0
C1025 C 0.02683 0.88885 0.18299 0.0
N1026 N 0.04198 0.90997 1.02407 0.0
N1027 N 0.97543 0.88672 0.23766 0.0
H1028 H 0.07017 0.88058 0.23543 0.0
H1029 H 0.03445 0.87111 0.27079 0.0
H1030 H 0.94993 0.88574 0.23895 0.0
H1031 H 0.98664 0.88513 0.28134 0.0
H1032 H 0.03069 0.91808 0.9852 0.0
H1033 H 0.06754 0.90943 1.02219 0.0
H1034 H 0.98206 0.90332 0.97595 0.0
H1035 H 0.94651 0.90263 1.01944 0.0
C1036 C 0.35203 0.74594 0.37143 0.0
C1037 C 0.38261 0.72983 0.37504 0.0
C1038 C 0.41088 0.78179 0.3642 0.0
C1039 C 0.38085 0.79924 0.37398 0.0
N1040 N 0.3224 0.79794 0.38953 0.0
N1041 N 0.44144 0.7313 0.37109 0.0
C1042 C 0.35115 0.78125 0.37703 0.0
C1043 C 0.41215 0.74738 0.36948 0.0
N1044 N 0.32386 0.72739 0.36277 0.0
N1045 N 0.43806 0.79823 0.34945 0.0
H1046 H 0.44283 0.70574 0.37065 0.0
H1047 H 0.46416 0.74329 0.37516 0.0
H1048 H 0.43718 0.82297 0.34309 0.0
H1049 H 0.46037 0.7868 0.33749 0.0
H1050 H 0.30087 0.73716 0.35452 0.0
H1051 H 0.32417 0.70152 0.35682 0.0
H1052 H 0.3008 0.78656 0.40003 0.0
H1053 H 0.32052 0.82365 0.39343 0.0
C1054 C 0.53678 0.17598 0.61432 0.0
C1055 C 0.55325 0.14632 0.58899 0.0
C1056 C 0.50055 0.12406 0.53956 0.0
C1057 C 0.48383 0.14837 0.58253 0.0
N1058 N 0.48524 0.20382 0.64172 0.0
N1059 N 0.55198 0.09601 0.51091 0.0
C1060 C 0.50186 0.17651 0.61361 0.0
C1061 C 0.53562 0.1217 0.54557 0.0
N1062 N 0.55486 0.20393 0.63633 0.0
N1063 N 0.48338 0.10472 0.4913 0.0
H1064 H 0.57744 0.09495 0.50962 0.0
H1065 H 0.54038 0.07526 0.48445 0.0
H1066 H 0.45838 0.10771 0.48306 0.0
H1067 H 0.49425 0.08836 0.45518 0.0
H1068 H 0.54496 0.22718 0.65251 0.0
H1069 H 0.58023 0.20438 0.63181 0.0
H1070 H 0.49601 0.22378 0.67209 0.0
H1071 H 0.46011 0.20629 0.63347 0.0
C1072 C 0.91977 0.25514 0.86134 0.0
C1073 C 0.89028 0.23675 0.86293 0.0
C1074 C 0.8586 0.28827 0.87035 0.0
C1075 C 0.88807 0.30684 0.8684 0.0
N1076 N 0.94549 0.3069 0.84577 0.0
N1077 N 0.83155 0.23434 0.84865 0.0
C1078 C 0.91823 0.28976 0.85791 0.0
C1079 C 0.85968 0.25286 0.85979 0.0
N1080 N 0.94926 0.23984 0.86608 0.0
N1081 N 0.83005 0.30423 0.88814 0.0
H1082 H 0.83178 0.20844 0.84058 0.0
H1083 H 0.80871 0.24452 0.8407 0.0
H1084 H 0.82822 0.33001 0.8986 0.0
H1085 H 0.80881 0.29187 0.89754 0.0
H1086 H 0.97164 0.25248 0.87273 0.0
H1087 H 0.95106 0.21445 0.8668 0.0
H1088 H 0.96783 0.2957 0.83319 0.0
H1089 H 0.94462 0.33204 0.84211 0.0
C1090 C 0.5998 0.78906 0.34753 0.0
C1091 C 0.62941 0.80711 0.3444 0.0
C1092 C 0.66089 0.75615 0.34373 0.0
C1093 C 0.63155 0.73825 0.35057 0.0
N1094 N 0.57272 0.73517 0.33942 0.0
N1095 N 0.68522 0.80446 0.31041 0.0
C1096 C 0.60079 0.75388 0.34554 0.0
C1097 C 0.65899 0.78947 0.33247 0.0
N1098 N 0.5709 0.8059 0.35447 0.0
N1099 N 0.69073 0.74211 0.35135 0.0
H1100 H 0.6837 0.82805 0.29811 0.0
H1101 H 0.70673 0.79191 0.2963 0.0
H1102 H 0.6932 0.71798 0.36007 0.0
H1103 H 0.71281 0.75526 0.35398 0.0
H1104 H 0.54885 0.79536 0.36496 0.0
H1105 H 0.56946 0.83105 0.35113 0.0
H1106 H 0.54956 0.74452 0.3312 0.0
H1107 H 0.57308 0.70943 0.33698 0.0
C1108 C 0.87313 0.75685 0.25094 0.0
C1109 C 0.88527 0.73471 0.19819 0.0
C1110 C 0.91069 0.78183 0.16031 0.0
C1111 C 0.89196 0.80428 0.20287 0.0
N1112 N 0.85917 0.81352 0.29708 0.0
N1113 N 0.91292 0.72699 0.0978 0.0
C1114 C 0.87476 0.79203 0.25163 0.0
C1115 C 0.90378 0.74734 0.15202 0.0
N1116 N 0.86 0.74408 0.30004 0.0
N1117 N 0.93528 0.79368 0.12785 0.0
H1118 H 0.90785 0.70161 0.08841 0.0
H1119 H 0.92328 0.73591 0.05977 0.0
H1120 H 0.94169 0.81886 0.13519 0.0
H1121 H 0.95155 0.77823 0.10001 0.0
H1122 H 0.85319 0.75842 0.34268 0.0
H1123 H 0.85834 0.71856 0.30002 0.0
H1124 H 0.84279 0.80609 0.32863 0.0
H1125 H 0.86181 0.83916 0.30263 0.0
C1126 C 0.62736 0.25429 0.71517 0.0
C1127 C 0.65142 0.23287 0.68444 0.0
C1128 C 0.67414 0.27808 0.63736 0.0
C1129 C 0.65033 0.30047 0.66816 0.0
N1130 N 0.60715 0.31064 0.7447 0.0
N1131 N 0.70461 0.22742 0.63855 0.0
C1132 C 0.62815 0.28894 0.7106 0.0
C1133 C 0.67719 0.24601 0.65347 0.0
N1134 N 0.60311 0.24114 0.74645 0.0
N1135 N 0.69322 0.28645 0.59068 0.0
H1136 H 0.70751 0.20382 0.65047 0.0
H1137 H 0.72571 0.23686 0.6213 0.0
H1138 H 0.69337 0.30961 0.57699 0.0
H1139 H 0.70751 0.26924 0.56181 0.0
H1140 H 0.58243 0.25414 0.76388 0.0
H1141 H 0.60329 0.2163 0.75254 0.0
H1142 H 0.5928 0.30457 0.78075 0.0
H1143 H 0.60513 0.33543 0.73935 0.0
C1144 C 0.99586 0.37142 0.99023 0.0
C1145 C 0.98122 0.39937 0.9688 0.0
C1146 C 0.03491 0.42682 0.97977 0.0
C1147 C 0.05034 0.39673 0.98469 0.0
N1148 N 0.04622 0.33999 0.99934 0.0
N1149 N 0.99151 0.44929 0.92372 0.0
C1150 C 0.03098 0.36887 0.99219 0.0
C1151 C 1.00187 0.42617 0.95889 0.0
N1152 N 0.97644 0.34708 1.00646 0.0
N1153 N 0.0524 0.45575 0.99118 0.0
H1154 H 0.96924 0.44741 0.89897 0.0
H1155 H 1.00698 0.46764 0.91212 0.0
H1156 H 0.07668 0.45641 1.00813 0.0
H1157 H 0.04144 0.47883 0.99133 0.0
H1158 H 0.98556 0.32718 1.02618 0.0
H1159 H 0.95091 0.34826 1.00455 0.0
H1160 H 0.03387 0.31753 0.99823 0.0
H1161 H 0.07172 0.33872 1.00443 0.0
C1162 C 0.49337 0.66622 0.46921 0.0
C1163 C 0.47868 0.63449 0.46812 0.0
C1164 C 0.5329 0.60856 0.46005 0.0
C1165 C 0.54687 0.63882 0.44833 0.0
N1166 N 0.54261 0.6977 0.45262 0.0
N1167 N 0.48612 0.58043 0.49597 0.0
C1168 C 0.52784 0.66827 0.45774 0.0
C1169 C 0.49917 0.60731 0.4748 0.0
N1170 N 0.47478 0.69408 0.48365 0.0
N1171 N 0.55135 0.58039 0.4525 0.0
H1172 H 0.4617 0.57986 0.50943 0.0
H1173 H 0.50003 0.56068 0.50689 0.0
H1174 H 0.57625 0.58068 0.44339 0.0
H1175 H 0.54177 0.55669 0.45217 0.0
H1176 H 0.48378 0.71819 0.48715 0.0
H1177 H 0.45081 0.69311 0.49898 0.0
H1178 H 0.53017 0.71987 0.45206 0.0
H1179 H 0.56797 0.6996 0.44834 0.0
C1180 C 0.50496 0.40874 0.56009 0.0
C1181 C 0.48658 0.3819 0.57643 0.0
C1182 C 0.53782 0.35191 0.59 0.0
C1183 C 0.55619 0.37998 0.57911 0.0
N1184 N 0.55709 0.42787 0.52672 0.0
N1185 N 0.48466 0.32443 0.58829 0.0
C1186 C 0.53973 0.40601 0.55497 0.0
C1187 C 0.50284 0.35223 0.58501 0.0
N1188 N 0.48958 0.43769 0.55356 0.0
N1189 N 0.55403 0.32539 0.6072 0.0
H1190 H 0.45913 0.32408 0.58361 0.0
H1191 H 0.49464 0.30116 0.59005 0.0
H1192 H 0.57952 0.32333 0.60562 0.0
H1193 H 0.54259 0.30593 0.62413 0.0
H1194 H 0.50207 0.45949 0.5495 0.0
H1195 H 0.46429 0.44057 0.55667 0.0
H1196 H 0.54613 0.44604 0.50444 0.0
H1197 H 0.58193 0.42486 0.51768 0.0
C1198 C 0.03315 0.67607 0.12337 0.0
C1199 C 0.04919 0.64717 0.094 0.0
C1200 C 0.99549 0.62257 0.05677 0.0
C1201 C 0.97997 0.64738 0.10127 0.0
N1202 N 0.98351 0.70141 0.16794 0.0
N1203 N 0.04618 0.60264 1.00506 0.0
C1204 C 0.99863 0.67559 0.13077 0.0
C1205 C 0.03059 0.6232 0.05181 0.0
N1206 N 0.05114 0.70447 0.14083 0.0
N1207 N 0.97709 0.59771 1.02177 0.0
H1208 H 0.07135 0.6043 0.9987 0.0
H1209 H 0.03412 0.58636 0.96902 0.0
H1210 H 0.95155 0.59753 1.02149 0.0
H1211 H 0.98698 0.57678 0.99425 0.0
H1212 H 0.04099 0.7276 0.15729 0.0
H1213 H 0.07604 0.70524 0.13097 0.0
H1214 H 0.99612 0.72053 0.19741 0.0
H1215 H 0.9581 0.7031 0.17094 0.0
C1216 C 0.10566 0.53473 0.04108 0.0
C1217 C 0.13277 0.54219 0.08465 0.0
C1218 C 0.16475 0.49886 1.01649 0.0
C1219 C 0.13703 0.49118 0.97445 0.0
N1220 N 0.08971 0.51612 0.93153 0.0
N1221 N 0.18603 0.52576 0.12003 0.0
C1222 C 0.10994 0.51317 0.98232 0.0
C1223 C 0.16193 0.52294 0.0736 0.0
N1224 N 0.07518 0.5471 0.05535 0.0
N1225 N 0.19455 0.48551 0.99937 0.0
H1226 H 0.18422 0.54142 0.16371 0.0
H1227 H 0.20609 0.50995 0.11863 0.0
H1228 H 0.1985 0.47136 0.95497 0.0
H1229 H 0.21635 0.49217 1.02486 0.0
H1230 H 0.0543 0.53827 1.02842 0.0
H1231 H 0.06969 0.56374 0.09594 0.0
H1232 H 0.07105 0.53368 0.93374 0.0
H1233 H 0.09492 0.50523 0.88514 0.0
C1234 C 0.7465 0.92822 0.27022 0.0
C1235 C 0.73793 0.90133 0.30126 0.0
C1236 C 0.7832 0.8686 0.24782 0.0
C1237 C 0.79078 0.89493 0.2138 0.0
N1238 N 0.77451 0.94713 0.18391 0.0
N1239 N 0.753 0.84912 0.33146 0.0
C1240 C 0.7714 0.92428 0.22351 0.0
C1241 C 0.75774 0.87249 0.29356 0.0
N1242 N 0.73139 0.95815 0.28726 0.0
N1243 N 0.79917 0.83898 0.23437 0.0
H1244 H 0.7345 0.85066 0.36449 0.0
H1245 H 0.76903 0.82962 0.33455 0.0
H1246 H 0.81959 0.83532 0.20609 0.0
H1247 H 0.7912 0.81717 0.2485 0.0
H1248 H 0.73878 0.97995 0.2723 0.0
H1249 H 0.71359 0.96202 0.32195 0.0
H1250 H 0.75873 0.9671 0.18354 0.0
H1251 H 0.79053 0.94433 0.14623 0.0
C1252 C 0.40377 0.48344 0.51617 0.0
C1253 C 0.39284 0.48477 0.57942 0.0
C1254 C 0.36962 0.54008 0.57326 0.0
C1255 C 0.38531 0.54079 0.51436 0.0
N1256 N 0.42361 0.51432 0.43739 0.0
N1257 N 0.36797 0.51688 0.67089 0.0
C1258 C 0.40403 0.51275 0.48779 0.0
C1259 C 0.3766 0.51392 0.60877 0.0
N1260 N 0.41282 0.45389 0.48161 0.0
N1261 N 0.34665 0.56349 0.59399 0.0
H1262 H 0.37152 0.49797 0.69766 0.0
H1263 H 0.35961 0.539 0.69713 0.0
H1264 H 0.3391 0.58158 0.56768 0.0
H1265 H 0.33235 0.56266 0.63344 0.0
H1266 H 0.41799 0.45083 0.4334 0.0
H1267 H 0.41105 0.43184 0.49919 0.0
H1268 H 0.44042 0.49585 0.42096 0.0
H1269 H 0.42581 0.53539 0.41632 0.0
C1270 C 0.78799 0.1146 0.83147 0.0
C1271 C 0.79475 0.14524 0.87323 0.0
C1272 C 0.75078 0.17162 0.81747 0.0
C1273 C 0.74527 0.14163 0.77431 0.0
N1274 N 0.76215 0.08614 0.7329 0.0
N1275 N 0.77089 0.19735 0.92155 0.0
C1276 C 0.7651 0.11365 0.779 0.0
C1277 C 0.77309 0.17241 0.87037 0.0
N1278 N 0.80033 0.08563 0.84603 0.0
N1279 N 0.73484 0.19975 0.80726 0.0
H1280 H 0.7819 0.19609 0.96562 0.0
H1281 H 0.75391 0.21651 0.92409 0.0
H1282 H 0.71842 0.19997 0.76896 0.0
H1283 H 0.74046 0.22332 0.83242 0.0
H1284 H 0.79462 0.06226 0.82024 0.0
H1285 H 0.81211 0.08425 0.88932 0.0
H1286 H 0.77825 0.06618 0.72906 0.0
H1287 H 0.74551 0.08482 0.69458 0.0
C1288 C 0.85989 0.53406 0.08157 0.0
C1289 C 0.89009 0.54763 0.11006 0.0
C1290 C 0.91908 0.50417 0.03921 0.0
C1291 C 0.88969 0.49417 1.00351 0.0
N1292 N 0.83243 0.50591 0.9853 0.0
N1293 N 0.94941 0.54937 0.10124 0.0
C1294 C 0.86011 0.51086 1.0232 0.0
C1295 C 0.91994 0.53385 0.08466 0.0
N1296 N 0.83097 0.54207 0.1111 0.0
N1297 N 0.94613 0.48456 0.03261 0.0
H1298 H 0.95188 0.57283 0.12865 0.0
H1299 H 0.97131 0.54107 0.08006 0.0
H1300 H 0.94581 0.4616 1.00388 0.0
H1301 H 0.967 0.48892 0.06219 0.0
H1302 H 0.80875 0.53054 0.09501 0.0
H1303 H 0.82965 0.55712 0.1555 0.0
H1304 H 0.81122 0.51989 0.99477 0.0
H1305 H 0.8318 0.49068 0.94094 0.0
C1306 C 0.26508 0.11558 0.83735 0.0
C1307 C 0.23551 0.13084 0.82135 0.0
C1308 C 0.26215 0.14625 0.7275 0.0
C1309 C 0.29131 0.12969 0.74172 0.0
N1310 N 0.31577 0.08932 0.79934 0.0
N1311 N 0.20337 0.14938 0.73788 0.0
C1312 C 0.29133 0.11157 0.7935 0.0
C1313 C 0.23328 0.14271 0.76235 0.0
N1314 N 0.26846 0.10532 0.89487 0.0
N1315 N 0.26208 0.16679 0.68318 0.0
H1316 H 0.18193 0.14424 0.75945 0.0
H1317 H 0.19986 0.1557 0.69287 0.0
H1318 H 0.2826 0.17089 0.65751 0.0
H1319 H 0.24242 0.18221 0.67636 0.0
H1320 H 0.29077 0.09767 0.91233 0.0
H1321 H 0.24944 0.10662 0.92699 0.0
H1322 H 0.31569 0.07348 0.83284 0.0
H1323 H 0.33404 0.08386 0.76591 0.0
C1324 C 0.62915 0.5514 0.54855 0.0
C1325 C 0.63919 0.54882 0.48418 0.0
C1326 C 0.64186 0.48859 0.48046 0.0
C1327 C 0.64024 0.49229 0.54822 0.0
N1328 N 0.63851 0.53116 0.64745 0.0
N1329 N 0.6627 0.51316 0.39429 0.0
C1330 C 0.63555 0.5248 0.58269 0.0
C1331 C 0.64768 0.51691 0.45145 0.0
N1332 N 0.612 0.57836 0.57662 0.0
N1333 N 0.63635 0.45844 0.44289 0.0
H1334 H 0.6701 0.53307 0.3732 0.0
H1335 H 0.67153 0.49026 0.37211 0.0
H1336 H 0.62828 0.43765 0.46062 0.0
H1337 H 0.63526 0.45549 0.39337 0.0
H1338 H 0.60227 0.57987 0.62173 0.0
H1339 H 0.60359 0.59674 0.55182 0.0
H1340 H 0.63782 0.55523 0.67326 0.0
H1341 H 0.64544 0.51332 0.67468 0.0
C1342 C 0.27672 0.8644 0.24096 0.0
C1343 C 0.28057 0.89261 0.28943 0.0
C1344 C 0.23738 0.92109 0.23581 0.0
C1345 C 0.23219 0.89189 0.18929 0.0
N1346 N 0.25921 0.84361 0.13268 0.0
N1347 N 0.2618 0.94638 0.33812 0.0
C1348 C 0.2552 0.86558 0.18775 0.0
C1349 C 0.25992 0.92048 0.28848 0.0
N1350 N 0.29356 0.83604 0.2462 0.0
N1351 N 0.22396 0.95046 0.22586 0.0
H1352 H 0.27831 0.94675 0.3764 0.0
H1353 H 0.24512 0.96587 0.34437 0.0
H1354 H 0.21188 0.95317 0.18352 0.0
H1355 H 0.22865 0.97315 0.25513 0.0
H1356 H 0.28912 0.81343 0.21634 0.0
H1357 H 0.30951 0.8343 0.2845 0.0
H1358 H 0.27736 0.82551 0.12712 0.0
H1359 H 0.24819 0.84678 0.08954 0.0
C1360 C 0.66343 1.00991 0.50832 0.0
C1361 C 0.63355 0.99303 0.4873 0.0
C1362 C 0.60469 0.03167 0.56892 0.0
C1363 C 0.63503 0.04616 0.59467 0.0
N1364 N 0.69415 0.03966 0.59871 0.0
N1365 N 0.57798 0.98215 0.51483 0.0
C1366 C 0.66471 0.03259 0.56727 0.0
C1367 C 0.60489 1.00228 0.52264 0.0
N1368 N 0.69047 1.00544 0.4715 0.0
N1369 N 0.57524 0.04595 0.58617 0.0
H1370 H 0.57785 0.95973 0.48453 0.0
H1371 H 0.5579 0.98544 0.54447 0.0
H1372 H 0.57254 0.06895 0.61459 0.0
H1373 H 0.55296 0.03714 0.56456 0.0
H1374 H 0.71176 0.01972 0.4821 0.0
H1375 H 0.69049 0.99025 0.4271 0.0
H1376 H 0.71596 0.02823 0.58282 0.0
H1377 H 0.69625 0.05314 0.6446 0.0
C1378 C 0.26249 0.37589 0.81068 0.0
C1379 C 0.23698 0.3991 0.80588 0.0
C1380 C 0.26676 0.4199 0.72062 0.0
C1381 C 0.29116 0.39543 0.72315 0.0
N1382 N 0.31 0.34678 0.76279 0.0
N1383 N 0.21379 0.44246 0.75442 0.0
C1384 C 0.28836 0.37255 0.76615 0.0
C1385 C 0.23879 0.42074 0.75996 0.0
N1386 N 0.26226 0.35719 0.85812 0.0
N1387 N 0.27121 0.44342 0.68286 0.0
H1388 H 0.19505 0.44703 0.78704 0.0
H1389 H 0.21093 0.45529 0.71645 0.0
H1390 H 0.29076 0.44287 0.65211 0.0
H1391 H 0.25672 0.46445 0.68414 0.0
H1392 H 0.28193 0.34276 0.86903 0.0
H1393 H 0.24333 0.35781 0.89011 0.0
H1394 H 0.3076 0.32707 0.78757 0.0
H1395 H 0.32896 0.34345 0.73052 0.0
C1396 C 0.90642 0.99883 0.03203 0.0
C1397 C 0.87985 0.99462 0.07208 0.0
C1398 C 0.85476 0.04565 0.04502 0.0
C1399 C 0.87995 0.04809 1.00086 0.0
N1400 N 0.92739 0.02425 0.94598 0.0
N1401 N 0.82645 1.01179 0.11036 0.0
C1402 C 0.90493 0.0237 0.99223 0.0
C1403 C 0.8535 0.0176 0.07723 0.0
N1404 N 0.93402 0.98011 0.03467 0.0
N1405 N 0.83192 0.07028 0.05629 0.0
H1406 H 0.82479 0.99202 0.13527 0.0
H1407 H 0.80473 0.02511 0.10972 0.0
H1408 H 0.83016 0.0896 0.03005 0.0
H1409 H 0.81575 0.07255 0.09372 0.0
H1410 H 0.95558 0.98394 1.01175 0.0
H1411 H 0.93664 0.96299 0.06551 0.0
H1412 H 0.9439 1.00511 0.93231 0.0
H1413 H 0.92779 0.04255 0.9174 0.0
C1414 C 0.26238 0.60786 0.27431 0.0
C1415 C 0.24083 0.63523 0.27583 0.0
C1416 C 0.2666 0.66149 0.37755 0.0
C1417 C 0.29043 0.63574 0.374 0.0
N1418 N 0.30077 0.57797 0.33238 0.0
N1419 N 0.22704 0.69115 0.32194 0.0
C1420 C 0.28584 0.60713 0.32561 0.0
C1421 C 0.24454 0.66294 0.32527 0.0
N1422 N 0.26048 0.58257 0.22348 0.0
N1423 N 0.2622 0.68241 0.43379 0.0
H1424 H 0.21074 0.69314 0.28426 0.0
H1425 H 0.23131 0.71351 0.3527 0.0
H1426 H 0.27332 0.67863 0.47647 0.0
H1427 H 0.2435 0.69991 0.44063 0.0
H1428 H 0.2777 0.56366 0.21502 0.0
H1429 H 0.24319 0.58219 0.18644 0.0
H1430 H 0.29654 0.55559 0.30183 0.0
H1431 H 0.31403 0.57476 0.37313 0.0
C1432 C 0.3624 1.00061 0.50757 0.0
C1433 C 0.3888 0.99171 0.46564 0.0
C1434 C 0.42269 0.03612 0.52945 0.0
C1435 C 0.397 0.04433 0.57311 0.0
N1436 N 0.34485 0.02876 0.61064 0.0
N1437 N 0.43591 1.01424 0.42103 0.0
C1438 C 0.36739 0.02519 0.56365 0.0
C1439 C 0.41667 1.01316 0.47214 0.0
N1440 N 0.33166 0.98813 0.49112 0.0
N1441 N 0.45342 0.04922 0.54255 0.0
H1442 H 0.42972 1.00184 0.37549 0.0
H1443 H 0.45492 0.03143 0.42151 0.0
H1444 H 0.45972 0.06664 0.58232 0.0
H1445 H 0.47367 0.04023 0.51623 0.0
H1446 H 0.31083 0.99594 0.51653 0.0
H1447 H 0.32588 0.97372 0.44726 0.0
H1448 H 0.32472 1.01299 0.61045 0.0
H1449 H 0.34822 0.04497 0.65363 0.0
C1450 C 0.78355 0.61622 0.31832 0.0
C1451 C 0.78809 0.63566 0.26965 0.0
C1452 C 0.73217 0.65719 0.2866 0.0
C1453 C 0.72937 0.6418 0.34129 0.0
N1454 N 0.75415 0.60847 0.41252 0.0
N1455 N 0.76814 0.67929 0.21538 0.0
C1456 C 0.75553 0.62165 0.35789 0.0
C1457 C 0.76269 0.65722 0.25562 0.0
N1458 N 0.8055 0.59176 0.32542 0.0
N1459 N 0.70529 0.67097 0.26256 0.0
H1460 H 0.79016 0.6808 0.19239 0.0
H1461 H 0.75193 0.69832 0.2096 0.0
H1462 H 0.68255 0.67041 0.28283 0.0
H1463 H 0.7048 0.6795 0.2192 0.0
H1464 H 0.80204 0.57464 0.35577 0.0
H1465 H 0.82565 0.58648 0.29634 0.0
H1466 H 0.77399 0.59697 0.43136 0.0
H1467 H 0.73377 0.611 0.44149 0.0
C1468 C 0.11532 0.03151 1.01259 0.0
C1469 C 0.14307 0.03659 0.97588 0.0
C1470 C 0.17155 0.99075 1.01707 0.0
C1471 C 0.14411 0.98625 0.05492 0.0
N1472 N 0.08848 0.99955 0.08358 0.0
N1473 N 0.19906 0.02376 0.94874 0.0
C1474 C 0.11573 1.00614 0.05164 0.0
C1475 C 0.17145 1.01665 0.97916 0.0
N1476 N 0.08864 0.05158 1.01078 0.0
N1477 N 0.19754 0.96955 1.01631 0.0
H1478 H 0.19966 0.04169 0.91928 0.0
H1479 H 0.22192 1.01335 0.95506 0.0
H1480 H 0.19955 0.95193 0.04637 0.0
H1481 H 0.21642 0.96819 0.98412 0.0
H1482 H 0.06925 0.05289 0.0418 0.0
H1483 H 0.08618 0.06789 0.97839 0.0
H1484 H 0.06552 1.0099 0.07813 0.0
H1485 H 0.08839 0.98234 0.11445 0.0
C1486 C 0.74395 0.42614 0.74726 0.0
C1487 C 0.73379 0.39469 0.71171 0.0
C1488 C 0.77661 0.36795 0.76906 0.0
C1489 C 0.78453 0.39862 0.80809 0.0
N1490 N 0.77056 0.45568 0.84394 0.0
N1491 N 0.73408 0.33513 0.70887 0.0
C1492 C 0.76619 0.42723 0.80067 0.0
C1493 C 0.74823 0.36545 0.7286 0.0
N1494 N 0.73476 0.45508 0.72786 0.0
N1495 N 0.79673 0.34121 0.76857 0.0
H1496 H 0.71155 0.33258 0.68528 0.0
H1497 H 0.74216 0.3135 0.72416 0.0
H1498 H 0.81803 0.342 0.79681 0.0
H1499 H 0.79382 0.31931 0.73577 0.0
H1500 H 0.74409 0.47823 0.74884 0.0
H1501 H 0.72094 0.45612 0.68664 0.0
H1502 H 0.75576 0.47652 0.84469 0.0
H1503 H 0.78679 0.45699 0.88294 0.0
loop_
_geom_bond_atom_site_label_1
_geom_bond_atom_site_label_2
_geom_bond_distance
_geom_bond_site_symmetry_2
_ccdc_geom_bond_type
Gd0 C3 2.818 1_554 S
Gd0 O20 2.377 . S
Gd0 O22 2.448 1_554 S
Gd0 O23 2.506 1_554 S
Gd0 O24 2.435 . S
Gd0 O25 2.717 . S
Gd0 O27 2.395 . S
Gd0 O31 2.327 . S
Gd1 C12 2.818 . S
Gd1 O21 2.395 . S
Gd1 O25 2.327 . S
Gd1 O26 2.377 . S
Gd1 O28 2.448 . S
Gd1 O29 2.506 . S
Gd1 O30 2.435 . S
Gd1 O31 2.717 . S
C2 O20 1.240 . S
C2 O21 1.240 . S
C3 Gd0 2.818 1_556 S
C3 C4 1.510 . S
C3 O22 1.249 . S
C3 O23 1.252 . S
C4 C3 1.510 . S
C4 C5 1.404 . S
C4 C6 1.352 . S
C5 C4 1.404 . S
C5 C9 1.389 . S
C5 H32 0.930 . S
C6 C4 1.352 . S
C6 C8 1.374 . S
C6 H33 0.931 . S
C7 C8 1.359 . S
C7 C9 1.364 . S
C8 C6 1.374 . S
C8 C7 1.359 . S
C8 H34 0.931 . S
C9 C5 1.389 . S
C9 C7 1.364 . S
C9 H35 0.931 . S
C10 O24 1.256 . S
C10 O25 1.257 . S
C11 O26 1.240 . S
C11 O27 1.240 . S
C12 Gd1 2.818 . S
C12 C13 1.510 . S
C12 O28 1.249 . S
C12 O29 1.252 . S
C13 C12 1.510 . S
C13 C14 1.404 . S
C13 C15 1.352 . S
C14 C13 1.404 . S
C14 C18 1.389 . S
C14 H36 0.930 . S
C15 C13 1.352 . S
C15 C17 1.374 . S
C15 H37 0.931 . S
C16 C17 1.359 . S
C16 C18 1.364 . S
C17 C15 1.374 . S
C17 C16 1.359 . S
C17 H38 0.931 . S
C18 C14 1.389 . S
C18 C16 1.364 . S
C18 H39 0.931 . S
C19 O30 1.256 . S
C19 O31 1.257 . S
O20 Gd0 2.377 . S
O20 C2 1.240 . S
O21 Gd1 2.395 . S
O21 C2 1.240 . S
O22 Gd0 2.448 1_556 S
O22 C3 1.249 . S
O23 Gd0 2.506 1_556 S
O23 C3 1.252 . S
O24 Gd0 2.435 . S
O24 C10 1.256 . S
O25 Gd0 2.717 . S
O25 Gd1 2.327 . S
O25 C10 1.257 . S
O26 Gd1 2.377 . S
O26 C11 1.240 . S
O27 Gd0 2.395 . S
O27 C11 1.240 . S
O28 Gd1 2.448 . S
O28 C12 1.249 . S
O29 Gd1 2.506 . S
O29 C12 1.252 . S
O30 Gd1 2.435 . S
O30 C19 1.256 . S
O31 Gd0 2.327 . S
O31 Gd1 2.717 . S
O31 C19 1.257 . S
H32 C5 0.930 . S
H33 C6 0.931 . S
H34 C8 0.931 . S
H35 C9 0.931 . S
H36 C14 0.930 . S
H37 C15 0.931 . S
H38 C17 0.931 . S
H39 C18 0.931 . S
Gd40 C43 2.818 . S
Gd40 O60 2.377 . S
Gd40 O62 2.448 . S
Gd40 O63 2.506 . S
Gd40 O64 2.435 . S
Gd40 O65 2.717 . S
Gd40 O67 2.395 . S
Gd40 O71 2.327 . S
Gd41 C52 2.818 . S
Gd41 O61 2.395 . S
Gd41 O65 2.327 . S
Gd41 O66 2.377 . S
Gd41 O68 2.448 . S
Gd41 O69 2.506 . S
Gd41 O70 2.435 . S
Gd41 O71 2.717 . S
C42 O60 1.240 . S
C42 O61 1.240 . S
C43 Gd40 2.818 . S
C43 C44 1.510 . S
C43 O62 1.249 . S
C43 O63 1.252 . S
C44 C43 1.510 . S
C44 C45 1.404 . S
C44 C46 1.352 . S
C45 C44 1.404 . S
C45 C49 1.389 . S
C45 H72 0.930 . S
C46 C44 1.352 . S
C46 C48 1.374 . S
C46 H73 0.931 . S
C47 C48 1.359 . S
C47 C49 1.364 . S
C48 C46 1.374 . S
C48 C47 1.359 . S
C48 H74 0.931 . S
C49 C45 1.389 . S
C49 C47 1.364 . S
C49 H75 0.931 . S
C50 O64 1.256 . S
C50 O65 1.257 . S
C51 O66 1.240 . S
C51 O67 1.240 . S
C52 Gd41 2.818 . S
C52 C53 1.510 . S
C52 O68 1.249 . S
C52 O69 1.252 . S
C53 C52 1.510 . S
C53 C54 1.404 . S
C53 C55 1.352 . S
C54 C53 1.404 . S
C54 C58 1.389 . S
C54 H76 0.930 . S
C55 C53 1.352 . S
C55 C57 1.374 . S
C55 H77 0.931 . S
C56 C57 1.359 1_556 S
C56 C58 1.364 1_556 S
C57 C55 1.374 . S
C57 C56 1.359 1_554 S
C57 H78 0.931 . S
C58 C54 1.389 . S
C58 C56 1.364 1_554 S
C58 H79 0.931 . S
C59 O70 1.256 . S
C59 O71 1.257 . S
O60 Gd40 2.377 . S
O60 C42 1.240 . S
O61 Gd41 2.395 . S
O61 C42 1.240 . S
O62 Gd40 2.448 . S
O62 C43 1.249 . S
O63 Gd40 2.506 . S
O63 C43 1.252 . S
O64 Gd40 2.435 . S
O64 C50 1.256 . S
O65 Gd40 2.717 . S
O65 Gd41 2.327 . S
O65 C50 1.257 . S
O66 Gd41 2.377 . S
O66 C51 1.240 . S
O67 Gd40 2.395 . S
O67 C51 1.240 . S
O68 Gd41 2.448 . S
O68 C52 1.249 . S
O69 Gd41 2.506 . S
O69 C52 1.252 . S
O70 Gd41 2.435 . S
O70 C59 1.256 . S
O71 Gd40 2.327 . S
O71 Gd41 2.717 . S
O71 C59 1.257 . S
H72 C45 0.930 . S
H73 C46 0.931 . S
H74 C48 0.931 . S
H75 C49 0.931 . S
H76 C54 0.930 . S
H77 C55 0.931 . S
H78 C57 0.931 . S
H79 C58 0.931 . S
Gd80 C83 2.818 . S
Gd80 O100 2.377 . S
Gd80 O102 2.448 . S
Gd80 O103 2.506 . S
Gd80 O104 2.435 . S
Gd80 O105 2.717 . S
Gd80 O107 2.395 . S
Gd80 O111 2.327 . S
Gd81 C92 2.818 . S
Gd81 O101 2.395 . S
Gd81 O105 2.327 . S
Gd81 O106 2.377 . S
Gd81 O108 2.448 . S
Gd81 O109 2.506 . S
Gd81 O110 2.435 . S
Gd81 O111 2.717 . S
C82 O100 1.240 . S
C82 O101 1.240 . S
C83 Gd80 2.818 . S
C83 C84 1.510 . S
C83 O102 1.249 . S
C83 O103 1.252 . S
C84 C83 1.510 . S
C84 C85 1.404 . S
C84 C86 1.352 . S
C85 C84 1.404 . S
C85 C89 1.389 . S
C85 H112 0.930 . S
C86 C84 1.352 . S
C86 C88 1.374 . S
C86 H113 0.931 . S
C87 C88 1.359 . S
C87 C89 1.364 . S
C88 C86 1.374 . S
C88 C87 1.359 . S
C88 H114 0.931 . S
C89 C85 1.389 . S
C89 C87 1.364 . S
C89 H115 0.931 . S
C90 O104 1.256 . S
C90 O105 1.257 . S
C91 O106 1.240 . S
C91 O107 1.240 . S
C92 Gd81 2.818 . S
C92 C93 1.510 . S
C92 O108 1.249 . S
C92 O109 1.252 . S
C93 C92 1.510 . S
C93 C94 1.404 . S
C93 C95 1.352 . S
C94 C93 1.404 . S
C94 C98 1.389 . S
C94 H116 0.930 . S
C95 C93 1.352 . S
C95 C97 1.374 . S
C95 H117 0.931 . S
C96 C97 1.359 1_554 S
C96 C98 1.364 1_554 S
C97 C95 1.374 . S
C97 C96 1.359 1_556 S
C97 H118 0.931 . S
C98 C94 1.389 . S
C98 C96 1.364 1_556 S
C98 H119 0.931 1_556 S
C99 O110 1.256 . S
C99 O111 1.257 . S
O100 Gd80 2.377 . S
O100 C82 1.240 . S
O101 Gd81 2.395 . S
O101 C82 1.240 . S
O102 Gd80 2.448 . S
O102 C83 1.249 . S
O103 Gd80 2.506 . S
O103 C83 1.252 . S
O104 Gd80 2.435 . S
O104 C90 1.256 . S
O105 Gd80 2.717 . S
O105 Gd81 2.327 . S
O105 C90 1.257 . S
O106 Gd81 2.377 . S
O106 C91 1.240 . S
O107 Gd80 2.395 . S
O107 C91 1.240 . S
O108 Gd81 2.448 . S
O108 C92 1.249 . S
O109 Gd81 2.506 . S
O109 C92 1.252 . S
O110 Gd81 2.435 . S
O110 C99 1.256 . S
O111 Gd80 2.327 . S
O111 Gd81 2.717 . S
O111 C99 1.257 . S
H112 C85 0.930 . S
H113 C86 0.931 . S
H114 C88 0.931 . S
H115 C89 0.931 . S
H116 C94 0.930 . S
H117 C95 0.931 . S
H118 C97 0.931 . S
H119 C98 0.931 1_554 S
Gd120 C123 2.818 . S
Gd120 O140 2.377 . S
Gd120 O142 2.448 . S
Gd120 O143 2.506 . S
Gd120 O144 2.435 . S
Gd120 O145 2.717 . S
Gd120 O147 2.395 . S
Gd120 O151 2.327 . S
Gd121 C132 2.818 1_556 S
Gd121 O141 2.395 . S
Gd121 O145 2.327 . S
Gd121 O146 2.377 . S
Gd121 O148 2.448 1_556 S
Gd121 O149 2.506 1_556 S
Gd121 O150 2.435 . S
Gd121 O151 2.717 . S
C122 O140 1.240 . S
C122 O141 1.240 . S
C123 Gd120 2.818 . S
C123 C124 1.510 . S
C123 O142 1.249 . S
C123 O143 1.252 . S
C124 C123 1.510 . S
C124 C125 1.404 . S
C124 C126 1.352 . S
C125 C124 1.404 . S
C125 C129 1.389 . S
C125 H152 0.930 . S
C126 C124 1.352 . S
C126 C128 1.374 . S
C126 H153 0.931 . S
C127 C128 1.359 . S
C127 C129 1.364 . S
C128 C126 1.374 . S
C128 C127 1.359 . S
C128 H154 0.931 . S
C129 C125 1.389 . S
C129 C127 1.364 . S
C129 H155 0.931 . S
C130 O144 1.256 . S
C130 O145 1.257 . S
C131 O146 1.240 . S
C131 O147 1.240 . S
C132 Gd121 2.818 1_554 S
C132 C133 1.510 . S
C132 O148 1.249 . S
C132 O149 1.252 . S
C133 C132 1.510 . S
C133 C134 1.404 . S
C133 C135 1.352 . S
C134 C133 1.404 . S
C134 C138 1.389 . S
C134 H156 0.930 . S
C135 C133 1.352 . S
C135 C137 1.374 . S
C135 H157 0.931 . S
C136 C137 1.359 . S
C136 C138 1.364 . S
C137 C135 1.374 . S
C137 C136 1.359 . S
C137 H158 0.931 . S
C138 C134 1.389 . S
C138 C136 1.364 . S
C138 H159 0.931 . S
C139 O150 1.256 . S
C139 O151 1.257 . S
O140 Gd120 2.377 . S
O140 C122 1.240 . S
O141 Gd121 2.395 . S
O141 C122 1.240 . S
O142 Gd120 2.448 . S
O142 C123 1.249 . S
O143 Gd120 2.506 . S
O143 C123 1.252 . S
O144 Gd120 2.435 . S
O144 C130 1.256 . S
O145 Gd120 2.717 . S
O145 Gd121 2.327 . S
O145 C130 1.257 . S
O146 Gd121 2.377 . S
O146 C131 1.240 . S
O147 Gd120 2.395 . S
O147 C131 1.240 . S
O148 Gd121 2.448 1_554 S
O148 C132 1.249 . S
O149 Gd121 2.506 1_554 S
O149 C132 1.252 . S
O150 Gd121 2.435 . S
O150 C139 1.256 . S
O151 Gd120 2.327 . S
O151 Gd121 2.717 . S
O151 C139 1.257 . S
H152 C125 0.930 . S
H153 C126 0.931 . S
H154 C128 0.931 . S
H155 C129 0.931 . S
H156 C134 0.930 . S
H157 C135 0.931 . S
H158 C137 0.931 . S
H159 C138 0.931 . S
Gd160 C163 2.818 1_556 S
Gd160 O180 2.377 . S
Gd160 O182 2.448 1_556 S
Gd160 O183 2.506 1_556 S
Gd160 O184 2.435 . S
Gd160 O185 2.717 . S
Gd160 O187 2.395 . S
Gd160 O191 2.327 . S
Gd161 C172 2.818 . S
Gd161 O181 2.395 . S
Gd161 O185 2.327 . S
Gd161 O186 2.377 . S
Gd161 O188 2.448 . S
Gd161 O189 2.506 . S
Gd161 O190 2.435 . S
Gd161 O191 2.717 . S
C162 O180 1.240 . S
C162 O181 1.240 . S
C163 Gd160 2.818 1_554 S
C163 C164 1.510 . S
C163 O182 1.249 . S
C163 O183 1.252 . S
C164 C163 1.510 . S
C164 C165 1.404 . S
C164 C166 1.352 . S
C165 C164 1.404 . S
C165 C169 1.389 . S
C165 H192 0.930 . S
C166 C164 1.352 . S
C166 C168 1.374 . S
C166 H193 0.931 . S
C167 C168 1.359 . S
C167 C169 1.364 . S
C168 C166 1.374 . S
C168 C167 1.359 . S
C168 H194 0.931 . S
C169 C165 1.389 . S
C169 C167 1.364 . S
C169 H195 0.931 . S
C170 O184 1.256 . S
C170 O185 1.257 . S
C171 O186 1.240 . S
C171 O187 1.240 . S
C172 Gd161 2.818 . S
C172 C173 1.510 . S
C172 O188 1.249 . S
C172 O189 1.252 . S
C173 C172 1.510 . S
C173 C174 1.404 . S
C173 C175 1.352 . S
C174 C173 1.404 . S
C174 C178 1.389 . S
C174 H196 0.930 . S
C175 C173 1.352 . S
C175 C177 1.374 . S
C175 H197 0.931 . S
C176 C177 1.359 . S
C176 C178 1.364 . S
C177 C175 1.374 . S
C177 C176 1.359 . S
C177 H198 0.931 . S
C178 C174 1.389 . S
C178 C176 1.364 . S
C178 H199 0.931 . S
C179 O190 1.256 . S
C179 O191 1.257 . S
O180 Gd160 2.377 . S
O180 C162 1.240 . S
O181 Gd161 2.395 . S
O181 C162 1.240 . S
O182 Gd160 2.448 1_554 S
O182 C163 1.249 . S
O183 Gd160 2.506 1_554 S
O183 C163 1.252 . S
O184 Gd160 2.435 . S
O184 C170 1.256 . S
O185 Gd160 2.717 . S
O185 Gd161 2.327 . S
O185 C170 1.257 . S
O186 Gd161 2.377 . S
O186 C171 1.240 . S
O187 Gd160 2.395 . S
O187 C171 1.240 . S
O188 Gd161 2.448 . S
O188 C172 1.249 . S
O189 Gd161 2.506 . S
O189 C172 1.252 . S
O190 Gd161 2.435 . S
O190 C179 1.256 . S
O191 Gd160 2.327 . S
O191 Gd161 2.717 . S
O191 C179 1.257 . S
H192 C165 0.930 . S
H193 C166 0.931 . S
H194 C168 0.931 . S
H195 C169 0.931 . S
H196 C174 0.930 . S
H197 C175 0.931 . S
H198 C177 0.931 . S
H199 C178 0.931 . S
Gd200 C203 2.818 . S
Gd200 O220 2.377 . S
Gd200 O222 2.448 . S
Gd200 O223 2.506 . S
Gd200 O224 2.435 . S
Gd200 O225 2.717 . S
Gd200 O227 2.395 . S
Gd200 O231 2.327 . S
Gd201 C212 2.818 1_554 S
Gd201 O221 2.395 . S
Gd201 O225 2.327 . S
Gd201 O226 2.377 . S
Gd201 O228 2.448 1_554 S
Gd201 O229 2.506 1_554 S
Gd201 O230 2.435 . S
Gd201 O231 2.717 . S
C202 O220 1.240 . S
C202 O221 1.240 . S
C203 Gd200 2.818 . S
C203 C204 1.510 . S
C203 O222 1.249 . S
C203 O223 1.252 . S
C204 C203 1.510 . S
C204 C205 1.404 . S
C204 C206 1.352 . S
C205 C204 1.404 . S
C205 C209 1.389 . S
C205 H232 0.930 . S
C206 C204 1.352 . S
C206 C208 1.374 . S
C206 H233 0.931 . S
C207 C208 1.359 . S
C207 C209 1.364 . S
C208 C206 1.374 . S
C208 C207 1.359 . S
C208 H234 0.931 . S
C209 C205 1.389 . S
C209 C207 1.364 . S
C209 H235 0.931 . S
C210 O224 1.256 . S
C210 O225 1.257 . S
C211 O226 1.240 . S
C211 O227 1.240 . S
C212 Gd201 2.818 1_556 S
C212 C213 1.510 . S
C212 O228 1.249 . S
C212 O229 1.252 . S
C213 C212 1.510 . S
C213 C214 1.404 . S
C213 C215 1.352 . S
C214 C213 1.404 . S
C214 C218 1.389 . S
C214 H236 0.930 . S
C215 C213 1.352 . S
C215 C217 1.374 . S
C215 H237 0.931 . S
C216 C217 1.359 . S
C216 C218 1.364 . S
C217 C215 1.374 . S
C217 C216 1.359 . S
C217 H238 0.931 . S
C218 C214 1.389 . S
C218 C216 1.364 . S
C218 H239 0.931 . S
C219 O230 1.256 . S
C219 O231 1.257 . S
O220 Gd200 2.377 . S
O220 C202 1.240 . S
O221 Gd201 2.395 . S
O221 C202 1.240 . S
O222 Gd200 2.448 . S
O222 C203 1.249 . S
O223 Gd200 2.506 . S
O223 C203 1.252 . S
O224 Gd200 2.435 . S
O224 C210 1.256 . S
O225 Gd200 2.717 . S
O225 Gd201 2.327 . S
O225 C210 1.257 . S
O226 Gd201 2.377 . S
O226 C211 1.240 . S
O227 Gd200 2.395 . S
O227 C211 1.240 . S
O228 Gd201 2.448 1_556 S
O228 C212 1.249 . S
O229 Gd201 2.506 1_556 S
O229 C212 1.252 . S
O230 Gd201 2.435 . S
O230 C219 1.256 . S
O231 Gd200 2.327 . S
O231 Gd201 2.717 . S
O231 C219 1.257 . S
H232 C205 0.930 . S
H233 C206 0.931 . S
H234 C208 0.931 . S
H235 C209 0.931 . S
H236 C214 0.930 . S
H237 C215 0.931 . S
H238 C217 0.931 . S
H239 C218 0.931 . S
Gd240 C243 2.818 . S
Gd240 O260 2.377 . S
Gd240 O262 2.448 . S
Gd240 O263 2.506 . S
Gd240 O264 2.435 . S
Gd240 O265 2.717 . S
Gd240 O267 2.395 . S
Gd240 O271 2.327 . S
Gd241 C252 2.818 . S
Gd241 O261 2.395 . S
Gd241 O265 2.327 . S
Gd241 O266 2.377 . S
Gd241 O268 2.448 . S
Gd241 O269 2.506 . S
Gd241 O270 2.435 . S
Gd241 O271 2.717 . S
C242 O260 1.240 . S
C242 O261 1.240 . S
C243 Gd240 2.818 . S
C243 C244 1.510 . S
C243 O262 1.249 . S
C243 O263 1.252 . S
C244 C243 1.510 . S
C244 C245 1.404 . S
C244 C246 1.352 . S
C245 C244 1.404 . S
C245 C249 1.389 . S
C245 H272 0.930 . S
C246 C244 1.352 . S
C246 C248 1.374 . S
C246 H273 0.931 . S
C247 C248 1.359 . S
C247 C249 1.364 . S
C248 C246 1.374 . S
C248 C247 1.359 . S
C248 H274 0.931 . S
C249 C245 1.389 . S
C249 C247 1.364 . S
C249 H275 0.931 . S
C250 O264 1.256 . S
C250 O265 1.257 . S
C251 O266 1.240 . S
C251 O267 1.240 . S
C252 Gd241 2.818 . S
C252 C253 1.510 . S
C252 O268 1.249 . S
C252 O269 1.252 . S
C253 C252 1.510 . S
C253 C254 1.404 . S
C253 C255 1.352 . S
C254 C253 1.404 . S
C254 C258 1.389 . S
C254 H276 0.930 . S
C255 C253 1.352 . S
C255 C257 1.374 . S
C255 H277 0.931 . S
C256 C257 1.359 . S
C256 C258 1.364 . S
C257 C255 1.374 . S
C257 C256 1.359 . S
C257 H278 0.931 . S
C258 C254 1.389 . S
C258 C256 1.364 . S
C258 H279 0.931 . S
C259 O270 1.256 . S
C259 O271 1.257 . S
O260 Gd240 2.377 . S
O260 C242 1.240 . S
O261 Gd241 2.395 . S
O261 C242 1.240 . S
O262 Gd240 2.448 . S
O262 C243 1.249 . S
O263 Gd240 2.506 . S
O263 C243 1.252 . S
O264 Gd240 2.435 . S
O264 C250 1.256 . S
O265 Gd240 2.717 . S
O265 Gd241 2.327 . S
O265 C250 1.257 . S
O266 Gd241 2.377 . S
O266 C251 1.240 . S
O267 Gd240 2.395 . S
O267 C251 1.240 . S
O268 Gd241 2.448 . S
O268 C252 1.249 . S
O269 Gd241 2.506 . S
O269 C252 1.252 . S
O270 Gd241 2.435 . S
O270 C259 1.256 . S
O271 Gd240 2.327 . S
O271 Gd241 2.717 . S
O271 C259 1.257 . S
H272 C245 0.930 . S
H273 C246 0.931 . S
H274 C248 0.931 . S
H275 C249 0.931 . S
H276 C254 0.930 . S
H277 C255 0.931 . S
H278 C257 0.931 . S
H279 C258 0.931 . S
Gd280 C283 2.818 . S
Gd280 O300 2.377 . S
Gd280 O302 2.448 . S
Gd280 O303 2.506 . S
Gd280 O304 2.435 . S
Gd280 O305 2.717 . S
Gd280 O307 2.395 . S
Gd280 O311 2.327 . S
Gd281 C292 2.818 . S
Gd281 O301 2.395 . S
Gd281 O305 2.327 . S
Gd281 O306 2.377 . S
Gd281 O308 2.448 . S
Gd281 O309 2.506 . S
Gd281 O310 2.435 . S
Gd281 O311 2.717 . S
C282 O300 1.240 . S
C282 O301 1.240 . S
C283 Gd280 2.818 . S
C283 C284 1.510 . S
C283 O302 1.249 . S
C283 O303 1.252 . S
C284 C283 1.510 . S
C284 C285 1.404 . S
C284 C286 1.352 . S
C285 C284 1.404 . S
C285 C289 1.389 . S
C285 H312 0.930 . S
C286 C284 1.352 . S
C286 C288 1.374 . S
C286 H313 0.931 . S
C287 C288 1.359 . S
C287 C289 1.364 . S
C288 C286 1.374 . S
C288 C287 1.359 . S
C288 H314 0.931 . S
C289 C285 1.389 . S
C289 C287 1.364 . S
C289 H315 0.931 . S
C290 O304 1.256 . S
C290 O305 1.257 . S
C291 O306 1.240 . S
C291 O307 1.240 . S
C292 Gd281 2.818 . S
C292 C293 1.510 . S
C292 O308 1.249 . S
C292 O309 1.252 . S
C293 C292 1.510 . S
C293 C294 1.404 . S
C293 C295 1.352 . S
C294 C293 1.404 . S
C294 C298 1.389 . S
C294 H316 0.930 . S
C295 C293 1.352 . S
C295 C297 1.374 . S
C295 H317 0.931 . S
C296 C297 1.359 . S
C296 C298 1.364 . S
C297 C295 1.374 . S
C297 C296 1.359 . S
C297 H318 0.931 . S
C298 C294 1.389 . S
C298 C296 1.364 . S
C298 H319 0.931 . S
C299 O310 1.256 . S
C299 O311 1.257 . S
O300 Gd280 2.377 . S
O300 C282 1.240 . S
O301 Gd281 2.395 . S
O301 C282 1.240 . S
O302 Gd280 2.448 . S
O302 C283 1.249 . S
O303 Gd280 2.506 . S
O303 C283 1.252 . S
O304 Gd280 2.435 . S
O304 C290 1.256 . S
O305 Gd280 2.717 . S
O305 Gd281 2.327 . S
O305 C290 1.257 . S
O306 Gd281 2.377 . S
O306 C291 1.240 . S
O307 Gd280 2.395 . S
O307 C291 1.240 . S
O308 Gd281 2.448 . S
O308 C292 1.249 . S
O309 Gd281 2.506 . S
O309 C292 1.252 . S
O310 Gd281 2.435 . S
O310 C299 1.256 . S
O311 Gd280 2.327 . S
O311 Gd281 2.717 . S
O311 C299 1.257 . S
H312 C285 0.930 . S
H313 C286 0.931 . S
H314 C288 0.931 . S
H315 C289 0.931 . S
H316 C294 0.930 . S
H317 C295 0.931 . S
H318 C297 0.931 . S
H319 C298 0.931 . S
Gd320 C323 2.818 . S
Gd320 O340 2.377 . S
Gd320 O342 2.448 . S
Gd320 O343 2.506 . S
Gd320 O344 2.435 . S
Gd320 O345 2.717 . S
Gd320 O347 2.395 . S
Gd320 O351 2.327 . S
Gd321 C332 2.818 1_556 S
Gd321 O341 2.395 . S
Gd321 O345 2.327 . S
Gd321 O346 2.377 . S
Gd321 O348 2.448 1_556 S
Gd321 O349 2.506 1_556 S
Gd321 O350 2.435 . S
Gd321 O351 2.717 . S
C322 O340 1.240 . S
C322 O341 1.240 . S
C323 Gd320 2.818 . S
C323 C324 1.510 . S
C323 O342 1.249 . S
C323 O343 1.252 . S
C324 C323 1.510 . S
C324 C325 1.404 . S
C324 C326 1.352 . S
C325 C324 1.404 . S
C325 C329 1.389 . S
C325 H352 0.930 . S
C326 C324 1.352 . S
C326 C328 1.374 . S
C326 H353 0.931 . S
C327 C328 1.359 . S
C327 C329 1.364 . S
C328 C326 1.374 . S
C328 C327 1.359 . S
C328 H354 0.931 . S
C329 C325 1.389 . S
C329 C327 1.364 . S
C329 H355 0.931 . S
C330 O344 1.256 . S
C330 O345 1.257 . S
C331 O346 1.240 . S
C331 O347 1.240 . S
C332 Gd321 2.818 1_554 S
C332 C333 1.510 . S
C332 O348 1.249 . S
C332 O349 1.252 . S
C333 C332 1.510 . S
C333 C334 1.404 . S
C333 C335 1.352 . S
C334 C333 1.404 . S
C334 C338 1.389 . S
C334 H356 0.930 . S
C335 C333 1.352 . S
C335 C337 1.374 . S
C335 H357 0.931 . S
C336 C337 1.359 . S
C336 C338 1.364 . S
C337 C335 1.374 . S
C337 C336 1.359 . S
C337 H358 0.931 . S
C338 C334 1.389 . S
C338 C336 1.364 . S
C338 H359 0.931 . S
C339 O350 1.256 . S
C339 O351 1.257 . S
O340 Gd320 2.377 . S
O340 C322 1.240 . S
O341 Gd321 2.395 . S
O341 C322 1.240 . S
O342 Gd320 2.448 . S
O342 C323 1.249 . S
O343 Gd320 2.506 . S
O343 C323 1.252 . S
O344 Gd320 2.435 . S
O344 C330 1.256 . S
O345 Gd320 2.717 . S
O345 Gd321 2.327 . S
O345 C330 1.257 . S
O346 Gd321 2.377 . S
O346 C331 1.240 . S
O347 Gd320 2.395 . S
O347 C331 1.240 . S
O348 Gd321 2.448 1_554 S
O348 C332 1.249 . S
O349 Gd321 2.506 1_554 S
O349 C332 1.252 . S
O350 Gd321 2.435 . S
O350 C339 1.256 . S
O351 Gd320 2.327 . S
O351 Gd321 2.717 . S
O351 C339 1.257 . S
H352 C325 0.930 . S
H353 C326 0.931 . S
H354 C328 0.931 . S
H355 C329 0.931 . S
H356 C334 0.930 . S
H357 C335 0.931 . S
H358 C337 0.931 . S
H359 C338 0.931 . S
Gd360 C363 2.818 . S
Gd360 O380 2.377 . S
Gd360 O382 2.448 . S
Gd360 O383 2.506 . S
Gd360 O384 2.435 . S
Gd360 O385 2.717 . S
Gd360 O387 2.395 . S
Gd360 O391 2.327 . S
Gd361 C372 2.818 . S
Gd361 O381 2.395 . S
Gd361 O385 2.327 . S
Gd361 O386 2.377 . S
Gd361 O388 2.448 . S
Gd361 O389 2.506 . S
Gd361 O390 2.435 . S
Gd361 O391 2.717 . S
C362 O380 1.240 . S
C362 O381 1.240 . S
C363 Gd360 2.818 . S
C363 C364 1.510 . S
C363 O382 1.249 . S
C363 O383 1.252 . S
C364 C363 1.510 . S
C364 C365 1.404 . S
C364 C366 1.352 . S
C365 C364 1.404 . S
C365 C369 1.389 . S
C365 H392 0.930 . S
C366 C364 1.352 . S
C366 C368 1.374 . S
C366 H393 0.931 . S
C367 C368 1.359 . S
C367 C369 1.364 . S
C368 C366 1.374 . S
C368 C367 1.359 . S
C368 H394 0.931 . S
C369 C365 1.389 . S
C369 C367 1.364 . S
C369 H395 0.931 . S
C370 O384 1.256 . S
C370 O385 1.257 . S
C371 O386 1.240 . S
C371 O387 1.240 . S
C372 Gd361 2.818 . S
C372 C373 1.510 . S
C372 O388 1.249 . S
C372 O389 1.252 . S
C373 C372 1.510 . S
C373 C374 1.404 . S
C373 C375 1.352 . S
C374 C373 1.404 . S
C374 C378 1.389 . S
C374 H396 0.930 . S
C375 C373 1.352 . S
C375 C377 1.374 . S
C375 H397 0.931 . S
C376 C377 1.359 . S
C376 C378 1.364 . S
C377 C375 1.374 . S
C377 C376 1.359 . S
C377 H398 0.931 . S
C378 C374 1.389 . S
C378 C376 1.364 . S
C378 H399 0.931 . S
C379 O390 1.256 . S
C379 O391 1.257 . S
O380 Gd360 2.377 . S
O380 C362 1.240 . S
O381 Gd361 2.395 . S
O381 C362 1.240 . S
O382 Gd360 2.448 . S
O382 C363 1.249 . S
O383 Gd360 2.506 . S
O383 C363 1.252 . S
O384 Gd360 2.435 . S
O384 C370 1.256 . S
O385 Gd360 2.717 . S
O385 Gd361 2.327 . S
O385 C370 1.257 . S
O386 Gd361 2.377 . S
O386 C371 1.240 . S
O387 Gd360 2.395 . S
O387 C371 1.240 . S
O388 Gd361 2.448 . S
O388 C372 1.249 . S
O389 Gd361 2.506 . S
O389 C372 1.252 . S
O390 Gd361 2.435 . S
O390 C379 1.256 . S
O391 Gd360 2.327 . S
O391 Gd361 2.717 . S
O391 C379 1.257 . S
H392 C365 0.930 . S
H393 C366 0.931 . S
H394 C368 0.931 . S
H395 C369 0.931 . S
H396 C374 0.930 . S
H397 C375 0.931 . S
H398 C377 0.931 . S
H399 C378 0.931 . S
Gd400 C403 2.818 . S
Gd400 O420 2.377 . S
Gd400 O422 2.448 . S
Gd400 O423 2.506 . S
Gd400 O424 2.435 . S
Gd400 O425 2.717 . S
Gd400 O427 2.395 . S
Gd400 O431 2.327 . S
Gd401 C412 2.818 . S
Gd401 O421 2.395 . S
Gd401 O425 2.327 . S
Gd401 O426 2.377 . S
Gd401 O428 2.448 . S
Gd401 O429 2.506 . S
Gd401 O430 2.435 . S
Gd401 O431 2.717 . S
C402 O420 1.240 . S
C402 O421 1.240 . S
C403 Gd400 2.818 . S
C403 C404 1.510 . S
C403 O422 1.249 . S
C403 O423 1.252 . S
C404 C403 1.510 . S
C404 C405 1.404 . S
C404 C406 1.352 . S
C405 C404 1.404 . S
C405 C409 1.389 . S
C405 H432 0.930 . S
C406 C404 1.352 . S
C406 C408 1.374 . S
C406 H433 0.931 . S
C407 C408 1.359 . S
C407 C409 1.364 . S
C408 C406 1.374 . S
C408 C407 1.359 . S
C408 H434 0.931 . S
C409 C405 1.389 . S
C409 C407 1.364 . S
C409 H435 0.931 . S
C410 O424 1.256 . S
C410 O425 1.257 . S
C411 O426 1.240 . S
C411 O427 1.240 . S
C412 Gd401 2.818 . S
C412 C413 1.510 . S
C412 O428 1.249 . S
C412 O429 1.252 . S
C413 C412 1.510 . S
C413 C414 1.404 . S
C413 C415 1.352 . S
C414 C413 1.404 . S
C414 C418 1.389 . S
C414 H436 0.930 . S
C415 C413 1.352 . S
C415 C417 1.374 . S
C415 H437 0.931 . S
C416 C417 1.359 . S
C416 C418 1.364 . S
C417 C415 1.374 . S
C417 C416 1.359 . S
C417 H438 0.931 . S
C418 C414 1.389 . S
C418 C416 1.364 . S
C418 H439 0.923 1_554 S
C419 O430 1.256 . S
C419 O431 1.257 . S
O420 Gd400 2.377 . S
O420 C402 1.240 . S
O421 Gd401 2.395 . S
O421 C402 1.240 . S
O422 Gd400 2.448 . S
O422 C403 1.249 . S
O423 Gd400 2.506 . S
O423 C403 1.252 . S
O424 Gd400 2.435 . S
O424 C410 1.256 . S
O425 Gd400 2.717 . S
O425 Gd401 2.327 . S
O425 C410 1.257 . S
O426 Gd401 2.377 . S
O426 C411 1.240 . S
O427 Gd400 2.395 . S
O427 C411 1.240 . S
O428 Gd401 2.448 . S
O428 C412 1.249 . S
O429 Gd401 2.506 . S
O429 C412 1.252 . S
O430 Gd401 2.435 . S
O430 C419 1.256 . S
O431 Gd400 2.327 . S
O431 Gd401 2.717 . S
O431 C419 1.257 . S
H432 C405 0.930 . S
H433 C406 0.931 . S
H434 C408 0.931 . S
H435 C409 0.931 . S
H436 C414 0.930 . S
H437 C415 0.931 . S
H438 C417 0.931 . S
H439 C418 0.923 1_556 S
Gd440 C443 2.818 1_554 S
Gd440 O460 2.377 . S
Gd440 O462 2.448 1_554 S
Gd440 O463 2.506 1_554 S
Gd440 O464 2.435 . S
Gd440 O465 2.717 . S
Gd440 O467 2.395 . S
Gd440 O471 2.327 . S
Gd441 C452 2.818 . S
Gd441 O461 2.395 . S
Gd441 O465 2.327 . S
Gd441 O466 2.377 . S
Gd441 O468 2.448 . S
Gd441 O469 2.506 . S
Gd441 O470 2.435 . S
Gd441 O471 2.717 . S
C442 O460 1.240 . S
C442 O461 1.240 . S
C443 Gd440 2.818 1_556 S
C443 C444 1.510 . S
C443 O462 1.249 . S
C443 O463 1.252 . S
C444 C443 1.510 . S
C444 C445 1.404 . S
C444 C446 1.352 . S
C445 C444 1.404 . S
C445 C449 1.389 . S
C445 H472 0.930 . S
C446 C444 1.352 . S
C446 C448 1.374 . S
C446 H473 0.931 . S
C447 C448 1.359 . S
C447 C449 1.364 . S
C448 C446 1.374 . S
C448 C447 1.359 . S
C448 H474 0.931 . S
C449 C445 1.389 . S
C449 C447 1.364 . S
C449 H475 0.931 . S
C450 O464 1.256 . S
C450 O465 1.257 . S
C451 O466 1.240 . S
C451 O467 1.240 . S
C452 Gd441 2.818 . S
C452 C453 1.510 . S
C452 O468 1.249 . S
C452 O469 1.252 . S
C453 C452 1.510 . S
C453 C454 1.404 . S
C453 C455 1.352 . S
C454 C453 1.404 . S
C454 C458 1.389 . S
C454 H476 0.930 . S
C455 C453 1.352 . S
C455 C457 1.374 . S
C455 H477 0.931 . S
C456 C457 1.359 . S
C456 C458 1.364 . S
C457 C455 1.374 . S
C457 C456 1.359 . S
C457 H478 0.931 . S
C458 C454 1.389 . S
C458 C456 1.364 . S
C458 H479 0.931 . S
C459 O470 1.256 . S
C459 O471 1.257 . S
O460 Gd440 2.377 . S
O460 C442 1.240 . S
O461 Gd441 2.395 . S
O461 C442 1.240 . S
O462 Gd440 2.448 1_556 S
O462 C443 1.249 . S
O463 Gd440 2.506 1_556 S
O463 C443 1.252 . S
O464 Gd440 2.435 . S
O464 C450 1.256 . S
O465 Gd440 2.717 . S
O465 Gd441 2.327 . S
O465 C450 1.257 . S
O466 Gd441 2.377 . S
O466 C451 1.240 . S
O467 Gd440 2.395 . S
O467 C451 1.240 . S
O468 Gd441 2.448 . S
O468 C452 1.249 . S
O469 Gd441 2.506 . S
O469 C452 1.252 . S
O470 Gd441 2.435 . S
O470 C459 1.256 . S
O471 Gd440 2.327 . S
O471 Gd441 2.717 . S
O471 C459 1.257 . S
H472 C445 0.930 . S
H473 C446 0.931 . S
H474 C448 0.931 . S
H475 C449 0.931 . S
H476 C454 0.930 . S
H477 C455 0.931 . S
H478 C457 0.931 . S
H479 C458 0.931 . S
Gd480 C483 2.818 . S
Gd480 O500 2.377 . S
Gd480 O502 2.448 . S
Gd480 O503 2.506 . S
Gd480 O504 2.435 . S
Gd480 O505 2.717 . S
Gd480 O507 2.395 . S
Gd480 O511 2.327 . S
Gd481 C492 2.818 1_554 S
Gd481 O501 2.395 . S
Gd481 O505 2.327 . S
Gd481 O506 2.377 . S
Gd481 O508 2.448 1_554 S
Gd481 O509 2.506 1_554 S
Gd481 O510 2.435 . S
Gd481 O511 2.717 . S
C482 O500 1.240 . S
C482 O501 1.240 . S
C483 Gd480 2.818 . S
C483 C484 1.510 . S
C483 O502 1.249 . S
C483 O503 1.252 . S
C484 C483 1.510 . S
C484 C485 1.404 . S
C484 C486 1.352 . S
C485 C484 1.404 . S
C485 C489 1.389 . S
C485 H512 0.930 . S
C486 C484 1.352 . S
C486 C488 1.374 . S
C486 H513 0.931 . S
C487 C488 1.359 . S
C487 C489 1.364 . S
C488 C486 1.374 . S
C488 C487 1.359 . S
C488 H514 0.931 . S
C489 C485 1.389 . S
C489 C487 1.364 . S
C489 H515 0.931 . S
C490 O504 1.256 . S
C490 O505 1.257 . S
C491 O506 1.240 . S
C491 O507 1.240 . S
C492 Gd481 2.818 1_556 S
C492 C493 1.510 . S
C492 O508 1.249 . S
C492 O509 1.252 . S
C493 C492 1.510 . S
C493 C494 1.404 . S
C493 C495 1.352 . S
C494 C493 1.404 . S
C494 C498 1.389 . S
C494 H516 0.930 . S
C495 C493 1.352 . S
C495 C497 1.374 . S
C495 H517 0.931 . S
C496 C497 1.359 . S
C496 C498 1.364 . S
C497 C495 1.374 . S
C497 C496 1.359 . S
C497 H518 0.931 . S
C498 C494 1.389 . S
C498 C496 1.364 . S
C498 H519 0.931 . S
C499 O510 1.256 . S
C499 O511 1.257 . S
O500 Gd480 2.377 . S
O500 C482 1.240 . S
O501 Gd481 2.395 . S
O501 C482 1.240 . S
O502 Gd480 2.448 . S
O502 C483 1.249 . S
O503 Gd480 2.506 . S
O503 C483 1.252 . S
O504 Gd480 2.435 . S
O504 C490 1.256 . S
O505 Gd480 2.717 . S
O505 Gd481 2.327 . S
O505 C490 1.257 . S
O506 Gd481 2.377 . S
O506 C491 1.240 . S
O507 Gd480 2.395 . S
O507 C491 1.240 . S
O508 Gd481 2.448 1_556 S
O508 C492 1.249 . S
O509 Gd481 2.506 1_556 S
O509 C492 1.252 . S
O510 Gd481 2.435 . S
O510 C499 1.256 . S
O511 Gd480 2.327 . S
O511 Gd481 2.717 . S
O511 C499 1.257 . S
H512 C485 0.930 . S
H513 C486 0.931 . S
H514 C488 0.931 . S
H515 C489 0.931 . S
H516 C494 0.930 . S
H517 C495 0.931 . S
H518 C497 0.931 . S
H519 C498 0.931 . S
Gd520 C523 2.818 1_556 S
Gd520 O540 2.377 . S
Gd520 O542 2.448 1_556 S
Gd520 O543 2.506 1_556 S
Gd520 O544 2.435 . S
Gd520 O545 2.717 . S
Gd520 O547 2.395 . S
Gd520 O551 2.327 . S
Gd521 C532 2.818 . S
Gd521 O541 2.395 . S
Gd521 O545 2.327 . S
Gd521 O546 2.377 . S
Gd521 O548 2.448 . S
Gd521 O549 2.506 . S
Gd521 O550 2.435 . S
Gd521 O551 2.717 . S
C522 O540 1.240 . S
C522 O541 1.240 . S
C523 Gd520 2.818 1_554 S
C523 C524 1.510 . S
C523 O542 1.249 . S
C523 O543 1.252 . S
C524 C523 1.510 . S
C524 C525 1.404 . S
C524 C526 1.352 . S
C525 C524 1.404 . S
C525 C529 1.389 . S
C525 H552 0.930 . S
C526 C524 1.352 . S
C526 C528 1.374 . S
C526 H553 0.931 . S
C527 C528 1.359 . S
C527 C529 1.364 . S
C528 C526 1.374 . S
C528 C527 1.359 . S
C528 H554 0.931 . S
C529 C525 1.389 . S
C529 C527 1.364 . S
C529 H555 0.931 . S
C530 O544 1.256 . S
C530 O545 1.257 . S
C531 O546 1.240 . S
C531 O547 1.240 . S
C532 Gd521 2.818 . S
C532 C533 1.510 . S
C532 O548 1.249 . S
C532 O549 1.252 . S
C533 C532 1.510 . S
C533 C534 1.404 . S
C533 C535 1.352 . S
C534 C533 1.404 . S
C534 C538 1.389 . S
C534 H556 0.930 . S
C535 C533 1.352 . S
C535 C537 1.374 . S
C535 H557 0.931 . S
C536 C537 1.359 . S
C536 C538 1.364 . S
C537 C535 1.374 . S
C537 C536 1.359 . S
C537 H558 0.931 . S
C538 C534 1.389 . S
C538 C536 1.364 . S
C538 H559 0.931 . S
C539 O550 1.256 . S
C539 O551 1.257 . S
O540 Gd520 2.377 . S
O540 C522 1.240 . S
O541 Gd521 2.395 . S
O541 C522 1.240 . S
O542 Gd520 2.448 1_554 S
O542 C523 1.249 . S
O543 Gd520 2.506 1_554 S
O543 C523 1.252 . S
O544 Gd520 2.435 . S
O544 C530 1.256 . S
O545 Gd520 2.717 . S
O545 Gd521 2.327 . S
O545 C530 1.257 . S
O546 Gd521 2.377 . S
O546 C531 1.240 . S
O547 Gd520 2.395 . S
O547 C531 1.240 . S
O548 Gd521 2.448 . S
O548 C532 1.249 . S
O549 Gd521 2.506 . S
O549 C532 1.252 . S
O550 Gd521 2.435 . S
O550 C539 1.256 . S
O551 Gd520 2.327 . S
O551 Gd521 2.717 . S
O551 C539 1.257 . S
H552 C525 0.930 . S
H553 C526 0.931 . S
H554 C528 0.931 . S
H555 C529 0.931 . S
H556 C534 0.930 . S
H557 C535 0.931 . S
H558 C537 0.931 . S
H559 C538 0.931 . S
Gd560 C563 2.818 . S
Gd560 O580 2.377 . S
Gd560 O582 2.448 . S
Gd560 O583 2.506 . S
Gd560 O584 2.435 . S
Gd560 O585 2.717 . S
Gd560 O587 2.395 . S
Gd560 O591 2.327 . S
Gd561 C572 2.818 . S
Gd561 O581 2.395 . S
Gd561 O585 2.327 . S
Gd561 O586 2.377 . S
Gd561 O588 2.448 . S
Gd561 O589 2.506 . S
Gd561 O590 2.435 . S
Gd561 O591 2.717 . S
C562 O580 1.240 . S
C562 O581 1.240 . S
C563 Gd560 2.818 . S
C563 C564 1.510 . S
C563 O582 1.249 . S
C563 O583 1.252 . S
C564 C563 1.510 . S
C564 C565 1.404 . S
C564 C566 1.352 . S
C565 C564 1.404 . S
C565 C569 1.389 . S
C565 H592 0.930 . S
C566 C564 1.352 . S
C566 C568 1.374 . S
C566 H593 0.931 . S
C567 C568 1.359 . S
C567 C569 1.364 . S
C568 C566 1.374 . S
C568 C567 1.359 . S
C568 H594 0.931 . S
C569 C565 1.389 . S
C569 C567 1.364 . S
C569 H595 0.931 . S
C570 O584 1.256 . S
C570 O585 1.257 . S
C571 O586 1.240 . S
C571 O587 1.240 . S
C572 Gd561 2.818 . S
C572 C573 1.510 . S
C572 O588 1.249 . S
C572 O589 1.252 . S
C573 C572 1.510 . S
C573 C574 1.404 . S
C573 C575 1.352 . S
C574 C573 1.404 . S
C574 C578 1.389 . S
C574 H596 0.930 . S
C575 C573 1.352 . S
C575 C577 1.374 . S
C575 H597 0.931 . S
C576 C577 1.359 . S
C576 C578 1.364 . S
C577 C575 1.374 . S
C577 C576 1.359 . S
C577 H598 0.931 . S
C578 C574 1.389 . S
C578 C576 1.364 . S
C578 H599 0.931 . S
C579 O590 1.256 . S
C579 O591 1.257 . S
O580 Gd560 2.377 . S
O580 C562 1.240 . S
O581 Gd561 2.395 . S
O581 C562 1.240 . S
O582 Gd560 2.448 . S
O582 C563 1.249 . S
O583 Gd560 2.506 . S
O583 C563 1.252 . S
O584 Gd560 2.435 . S
O584 C570 1.256 . S
O585 Gd560 2.717 . S
O585 Gd561 2.327 . S
O585 C570 1.257 . S
O586 Gd561 2.377 . S
O586 C571 1.240 . S
O587 Gd560 2.395 . S
O587 C571 1.240 . S
O588 Gd561 2.448 . S
O588 C572 1.249 . S
O589 Gd561 2.506 . S
O589 C572 1.252 . S
O590 Gd561 2.435 . S
O590 C579 1.256 . S
O591 Gd560 2.327 . S
O591 Gd561 2.717 . S
O591 C579 1.257 . S
H592 C565 0.930 . S
H593 C566 0.931 . S
H594 C568 0.931 . S
H595 C569 0.931 . S
H596 C574 0.930 . S
H597 C575 0.931 . S
H598 C577 0.931 . S
H599 C578 0.931 . S
Gd600 C603 2.818 . S
Gd600 O620 2.377 . S
Gd600 O622 2.448 . S
Gd600 O623 2.506 . S
Gd600 O624 2.435 . S
Gd600 O625 2.717 . S
Gd600 O627 2.395 . S
Gd600 O631 2.327 . S
Gd601 C612 2.818 . S
Gd601 O621 2.395 . S
Gd601 O625 2.327 . S
Gd601 O626 2.377 . S
Gd601 O628 2.448 . S
Gd601 O629 2.506 . S
Gd601 O630 2.435 . S
Gd601 O631 2.717 . S
C602 O620 1.240 . S
C602 O621 1.240 . S
C603 Gd600 2.818 . S
C603 C604 1.510 . S
C603 O622 1.249 . S
C603 O623 1.252 . S
C604 C603 1.510 . S
C604 C605 1.404 . S
C604 C606 1.352 . S
C605 C604 1.404 . S
C605 C609 1.389 . S
C605 H632 0.930 . S
C606 C604 1.352 . S
C606 C608 1.374 . S
C606 H633 0.931 . S
C607 C608 1.346 1_556 S
C607 C609 1.359 1_556 S
C608 C606 1.374 . S
C608 C607 1.346 1_554 S
C608 H634 0.931 . S
C609 C605 1.389 . S
C609 C607 1.359 1_554 S
C609 H635 0.931 . S
C610 O624 1.256 . S
C610 O625 1.257 . S
C611 O626 1.240 . S
C611 O627 1.240 . S
C612 Gd601 2.818 . S
C612 C613 1.510 . S
C612 O628 1.249 . S
C612 O629 1.252 . S
C613 C612 1.510 . S
C613 C614 1.404 . S
C613 C615 1.352 . S
C614 C613 1.404 . S
C614 C618 1.389 . S
C614 H636 0.930 . S
C615 C613 1.352 . S
C615 C617 1.374 . S
C615 H637 0.931 . S
C616 C617 1.359 . S
C616 C618 1.364 . S
C617 C615 1.374 . S
C617 C616 1.359 . S
C617 H638 0.931 . S
C618 C614 1.389 . S
C618 C616 1.364 . S
C618 H639 0.931 . S
C619 O630 1.256 . S
C619 O631 1.257 . S
O620 Gd600 2.377 . S
O620 C602 1.240 . S
O621 Gd601 2.395 . S
O621 C602 1.240 . S
O622 Gd600 2.448 . S
O622 C603 1.249 . S
O623 Gd600 2.506 . S
O623 C603 1.252 . S
O624 Gd600 2.435 . S
O624 C610 1.256 . S
O625 Gd600 2.717 . S
O625 Gd601 2.327 . S
O625 C610 1.257 . S
O626 Gd601 2.377 . S
O626 C611 1.240 . S
O627 Gd600 2.395 . S
O627 C611 1.240 . S
O628 Gd601 2.448 . S
O628 C612 1.249 . S
O629 Gd601 2.506 . S
O629 C612 1.252 . S
O630 Gd601 2.435 . S
O630 C619 1.256 . S
O631 Gd600 2.327 . S
O631 Gd601 2.717 . S
O631 C619 1.257 . S
H632 C605 0.930 . S
H633 C606 0.931 . S
H634 C608 0.931 . S
H635 C609 0.931 . S
H636 C614 0.930 . S
H637 C615 0.931 . S
H638 C617 0.931 . S
H639 C618 0.931 . S
C640 C641 1.363 . S
C640 C646 1.379 . S
C640 N648 1.356 . S
C641 C640 1.363 . S
C641 C647 1.363 . S
C642 C643 1.363 . S
C642 C647 1.379 . S
C642 N649 1.356 . S
C643 C642 1.363 . S
C643 C646 1.363 . S
N644 C646 1.356 . S
N644 H656 0.984 . S
N644 H657 0.985 . S
N645 C647 1.356 . S
N645 H650 0.984 . S
N645 H651 0.985 . S
C646 C640 1.379 . S
C646 C643 1.363 . S
C646 N644 1.356 . S
C647 C641 1.363 . S
C647 C642 1.379 . S
C647 N645 1.356 . S
N648 C640 1.356 . S
N648 H654 0.984 . S
N648 H655 0.984 . S
N649 C642 1.356 . S
N649 H652 0.984 . S
N649 H653 0.985 . S
H650 N645 0.984 . S
H651 N645 0.985 . S
H652 N649 0.984 . S
H653 N649 0.985 . S
H654 N648 0.984 . S
H655 N648 0.984 . S
H656 N644 0.984 . S
H657 N644 0.985 . S
C658 C659 1.363 . S
C658 C664 1.379 . S
C658 N666 1.356 . S
C659 C658 1.363 . S
C659 C665 1.363 . S
C660 C661 1.363 . S
C660 C665 1.379 . S
C660 N667 1.356 . S
C661 C660 1.363 . S
C661 C664 1.363 . S
N662 C664 1.356 . S
N662 H674 0.984 . S
N662 H675 0.985 . S
N663 C665 1.356 . S
N663 H668 0.984 1_556 S
N663 H669 0.985 1_556 S
C664 C658 1.379 . S
C664 C661 1.363 . S
C664 N662 1.356 . S
C665 C659 1.363 . S
C665 C660 1.379 . S
C665 N663 1.356 . S
N666 C658 1.356 . S
N666 H672 0.984 . S
N666 H673 0.984 . S
N667 C660 1.356 . S
N667 H670 0.984 . S
N667 H671 0.985 . S
H668 N663 0.984 1_554 S
H669 N663 0.985 1_554 S
H670 N667 0.984 . S
H671 N667 0.985 . S
H672 N666 0.984 . S
H673 N666 0.984 . S
H674 N662 0.984 . S
H675 N662 0.985 . S
C676 C677 1.363 . S
C676 C682 1.379 . S
C676 N684 1.356 . S
C677 C676 1.363 . S
C677 C683 1.363 . S
C678 C679 1.363 . S
C678 C683 1.379 . S
C678 N685 1.356 . S
C679 C678 1.363 . S
C679 C682 1.363 . S
N680 C682 1.356 . S
N680 H692 0.984 . S
N680 H693 0.985 . S
N681 C683 1.356 . S
N681 H686 0.984 . S
N681 H687 0.985 . S
C682 C676 1.379 . S
C682 C679 1.363 . S
C682 N680 1.356 . S
C683 C677 1.363 . S
C683 C678 1.379 . S
C683 N681 1.356 . S
N684 C676 1.356 . S
N684 H690 0.984 . S
N684 H691 0.984 . S
N685 C678 1.356 . S
N685 H688 0.984 1_554 S
N685 H689 0.985 1_554 S
H686 N681 0.984 . S
H687 N681 0.985 . S
H688 N685 0.984 1_556 S
H689 N685 0.985 1_556 S
H690 N684 0.984 . S
H691 N684 0.984 . S
H692 N680 0.984 . S
H693 N680 0.985 . S
C694 C695 1.363 . S
C694 C700 1.379 . S
C694 N702 1.356 . S
C695 C694 1.363 . S
C695 C701 1.363 . S
C696 C697 1.363 . S
C696 C701 1.379 . S
C696 N703 1.356 . S
C697 C696 1.363 . S
C697 C700 1.363 . S
N698 C700 1.356 . S
N698 H710 0.984 . S
N698 H711 0.985 . S
N699 C701 1.356 . S
N699 H704 0.984 . S
N699 H705 0.985 . S
C700 C694 1.379 . S
C700 C697 1.363 . S
C700 N698 1.356 . S
C701 C695 1.363 . S
C701 C696 1.379 . S
C701 N699 1.356 . S
N702 C694 1.356 . S
N702 H708 0.984 . S
N702 H709 0.984 . S
N703 C696 1.356 . S
N703 H706 0.984 . S
N703 H707 0.985 . S
H704 N699 0.984 . S
H705 N699 0.985 . S
H706 N703 0.984 . S
H707 N703 0.985 . S
H708 N702 0.984 . S
H709 N702 0.984 . S
H710 N698 0.984 . S
H711 N698 0.985 . S
C712 C713 1.363 . S
C712 C718 1.379 . S
C712 N720 1.356 . S
C713 C712 1.363 . S
C713 C719 1.363 . S
C714 C715 1.363 . S
C714 C719 1.379 . S
C714 N721 1.356 . S
C715 C714 1.363 . S
C715 C718 1.363 . S
N716 C718 1.356 . S
N716 H728 0.984 . S
N716 H729 0.985 . S
N717 C719 1.356 . S
N717 H722 0.984 . S
N717 H723 0.985 . S
C718 C712 1.379 . S
C718 C715 1.363 . S
C718 N716 1.356 . S
C719 C713 1.363 . S
C719 C714 1.379 . S
C719 N717 1.356 . S
N720 C712 1.356 . S
N720 H726 0.984 . S
N720 H727 0.984 . S
N721 C714 1.356 . S
N721 H724 0.984 . S
N721 H725 0.985 . S
H722 N717 0.984 . S
H723 N717 0.985 . S
H724 N721 0.984 . S
H725 N721 0.985 . S
H726 N720 0.984 . S
H727 N720 0.984 . S
H728 N716 0.984 . S
H729 N716 0.985 . S
C730 C731 1.363 . S
C730 C736 1.379 . S
C730 N738 1.356 . S
C731 C730 1.363 . S
C731 C737 1.363 . S
C732 C733 1.363 . S
C732 C737 1.379 . S
C732 N739 1.356 . S
C733 C732 1.363 . S
C733 C736 1.363 . S
N734 C736 1.356 . S
N734 H746 0.984 . S
N734 H747 0.985 . S
N735 C737 1.356 . S
N735 H740 0.984 . S
N735 H741 0.985 . S
C736 C730 1.379 . S
C736 C733 1.363 . S
C736 N734 1.356 . S
C737 C731 1.363 . S
C737 C732 1.379 . S
C737 N735 1.356 . S
N738 C730 1.356 . S
N738 H744 0.984 . S
N738 H745 0.984 . S
N739 C732 1.356 . S
N739 H742 0.984 . S
N739 H743 0.985 . S
H740 N735 0.984 . S
H741 N735 0.985 . S
H742 N739 0.984 . S
H743 N739 0.985 . S
H744 N738 0.984 . S
H745 N738 0.984 . S
H746 N734 0.984 . S
H747 N734 0.985 . S
C748 C749 1.363 . S
C748 C754 1.379 . S
C748 N756 1.356 . S
C749 C748 1.363 . S
C749 C755 1.363 . S
C750 C751 1.363 . S
C750 C755 1.379 . S
C750 N757 1.356 . S
C751 C750 1.363 . S
C751 C754 1.363 . S
N752 C754 1.349 1_554 S
N752 H764 0.986 . S
N752 H765 0.990 . S
N753 C755 1.356 . S
N753 H758 0.984 . S
N753 H759 0.985 . S
C754 C748 1.379 . S
C754 C751 1.363 . S
C754 N752 1.349 1_556 S
C755 C749 1.363 . S
C755 C750 1.379 . S
C755 N753 1.356 . S
N756 C748 1.356 . S
N756 H762 0.984 . S
N756 H763 0.984 . S
N757 C750 1.356 . S
N757 H760 0.990 . S
N757 H761 0.985 . S
H758 N753 0.984 . S
H759 N753 0.985 . S
H760 N757 0.990 . S
H761 N757 0.985 . S
H762 N756 0.984 . S
H763 N756 0.984 . S
H764 N752 0.986 . S
H765 N752 0.990 . S
C766 C767 1.363 . S
C766 C772 1.379 . S
C766 N774 1.356 . S
C767 C766 1.363 . S
C767 C773 1.363 . S
C768 C769 1.363 . S
C768 C773 1.379 . S
C768 N775 1.356 . S
C769 C768 1.363 . S
C769 C772 1.363 . S
N770 C772 1.356 . S
N770 H782 0.984 . S
N770 H783 0.985 . S
N771 C773 1.356 1_556 S
N771 H776 0.984 . S
N771 H777 0.985 . S
C772 C766 1.379 . S
C772 C769 1.363 . S
C772 N770 1.356 . S
C773 C767 1.363 . S
C773 C768 1.379 . S
C773 N771 1.356 1_554 S
N774 C766 1.356 . S
N774 H780 0.984 . S
N774 H781 0.984 . S
N775 C768 1.356 . S
N775 H778 0.984 . S
N775 H779 0.985 . S
H776 N771 0.984 . S
H777 N771 0.985 . S
H778 N775 0.984 . S
H779 N775 0.985 . S
H780 N774 0.984 . S
H781 N774 0.984 . S
H782 N770 0.984 . S
H783 N770 0.985 . S
C784 C785 1.363 . S
C784 C790 1.379 . S
C784 N792 1.356 . S
C785 C784 1.363 . S
C785 C791 1.363 . S
C786 C787 1.363 . S
C786 C791 1.379 . S
C786 N793 1.356 . S
C787 C786 1.363 . S
C787 C790 1.363 . S
N788 C790 1.356 . S
N788 H800 0.984 . S
N788 H801 0.985 . S
N789 C791 1.356 . S
N789 H794 0.984 . S
N789 H795 0.985 . S
C790 C784 1.379 . S
C790 C787 1.363 . S
C790 N788 1.356 . S
C791 C785 1.363 . S
C791 C786 1.379 . S
C791 N789 1.356 . S
N792 C784 1.356 . S
N792 H798 0.984 . S
N792 H799 0.984 . S
N793 C786 1.356 . S
N793 H796 0.984 . S
N793 H797 0.985 . S
H794 N789 0.984 . S
H795 N789 0.985 . S
H796 N793 0.984 . S
H797 N793 0.985 . S
H798 N792 0.984 . S
H799 N792 0.984 . S
H800 N788 0.984 . S
H801 N788 0.985 . S
C802 C803 1.363 . S
C802 C808 1.379 . S
C802 N810 1.356 . S
C803 C802 1.363 . S
C803 C809 1.363 . S
C804 C805 1.363 . S
C804 C809 1.379 . S
C804 N811 1.356 1_554 S
C805 C804 1.363 . S
C805 C808 1.363 . S
N806 C808 1.356 . S
N806 H818 0.984 . S
N806 H819 0.985 . S
N807 C809 1.356 . S
N807 H812 0.984 . S
N807 H813 0.985 . S
C808 C802 1.379 . S
C808 C805 1.363 . S
C808 N806 1.356 . S
C809 C803 1.363 . S
C809 C804 1.379 . S
C809 N807 1.356 . S
N810 C802 1.356 . S
N810 H816 0.984 . S
N810 H817 0.984 . S
N811 C804 1.356 1_556 S
N811 H814 0.984 . S
N811 H815 0.985 . S
H812 N807 0.984 . S
H813 N807 0.985 . S
H814 N811 0.984 . S
H815 N811 0.985 . S
H816 N810 0.984 . S
H817 N810 0.984 . S
H818 N806 0.984 . S
H819 N806 0.985 . S
C820 C821 1.363 . S
C820 C826 1.379 . S
C820 N828 1.356 . S
C821 C820 1.363 . S
C821 C827 1.363 . S
C822 C823 1.363 . S
C822 C827 1.379 . S
C822 N829 1.356 . S
C823 C822 1.363 . S
C823 C826 1.363 . S
N824 C826 1.356 . S
N824 H836 0.984 . S
N824 H837 0.985 . S
N825 C827 1.356 . S
N825 H830 0.984 1_556 S
N825 H831 0.985 . S
C826 C820 1.379 . S
C826 C823 1.363 . S
C826 N824 1.356 . S
C827 C821 1.363 . S
C827 C822 1.379 . S
C827 N825 1.356 . S
N828 C820 1.356 . S
N828 H834 0.984 . S
N828 H835 0.984 . S
N829 C822 1.356 . S
N829 H832 0.984 . S
N829 H833 0.985 . S
H830 N825 0.984 1_554 S
H831 N825 0.985 . S
H832 N829 0.984 . S
H833 N829 0.985 . S
H834 N828 0.984 . S
H835 N828 0.984 . S
H836 N824 0.984 . S
H837 N824 0.985 . S
C838 C839 1.363 . S
C838 C844 1.379 . S
C838 N846 1.356 . S
C839 C838 1.363 . S
C839 C845 1.363 . S
C840 C841 1.363 . S
C840 C845 1.379 . S
C840 N847 1.356 . S
C841 C840 1.363 . S
C841 C844 1.363 . S
N842 C844 1.356 . S
N842 H854 0.984 . S
N842 H855 0.985 . S
N843 C845 1.356 . S
N843 H848 0.984 . S
N843 H849 0.985 . S
C844 C838 1.379 . S
C844 C841 1.363 . S
C844 N842 1.356 . S
C845 C839 1.363 . S
C845 C840 1.379 . S
C845 N843 1.356 . S
N846 C838 1.356 . S
N846 H852 0.984 . S
N846 H853 0.984 . S
N847 C840 1.356 . S
N847 H850 0.984 . S
N847 H851 0.985 . S
H848 N843 0.984 . S
H849 N843 0.985 . S
H850 N847 0.984 . S
H851 N847 0.985 . S
H852 N846 0.984 . S
H853 N846 0.984 . S
H854 N842 0.984 . S
H855 N842 0.985 . S
C856 C857 1.363 . S
C856 C862 1.379 . S
C856 N864 1.356 . S
C857 C856 1.363 . S
C857 C863 1.363 . S
C858 C859 1.363 . S
C858 C863 1.379 . S
C858 N865 1.356 . S
C859 C858 1.363 . S
C859 C862 1.363 . S
N860 C862 1.356 . S
N860 H872 0.984 . S
N860 H873 0.985 . S
N861 C863 1.356 . S
N861 H866 0.984 . S
N861 H867 0.985 . S
C862 C856 1.379 . S
C862 C859 1.363 . S
C862 N860 1.356 . S
C863 C857 1.363 . S
C863 C858 1.379 . S
C863 N861 1.356 . S
N864 C856 1.356 . S
N864 H870 0.984 . S
N864 H871 0.984 . S
N865 C858 1.356 . S
N865 H868 0.984 . S
N865 H869 0.985 . S
H866 N861 0.984 . S
H867 N861 0.985 . S
H868 N865 0.984 . S
H869 N865 0.985 . S
H870 N864 0.984 . S
H871 N864 0.984 . S
H872 N860 0.984 . S
H873 N860 0.985 . S
C874 C875 1.363 . S
C874 C880 1.379 . S
C874 N882 1.356 . S
C875 C874 1.363 . S
C875 C881 1.363 . S
C876 C877 1.363 . S
C876 C881 1.379 . S
C876 N883 1.356 . S
C877 C876 1.363 . S
C877 C880 1.363 . S
N878 C880 1.356 . S
N878 H890 0.984 . S
N878 H891 0.985 . S
N879 C881 1.356 . S
N879 H884 0.984 . S
N879 H885 0.985 . S
C880 C874 1.379 . S
C880 C877 1.363 . S
C880 N878 1.356 . S
C881 C875 1.363 . S
C881 C876 1.379 . S
C881 N879 1.356 . S
N882 C874 1.356 . S
N882 H888 0.984 . S
N882 H889 0.984 . S
N883 C876 1.356 . S
N883 H886 0.984 . S
N883 H887 0.985 . S
H884 N879 0.984 . S
H885 N879 0.985 . S
H886 N883 0.984 . S
H887 N883 0.985 . S
H888 N882 0.984 . S
H889 N882 0.984 . S
H890 N878 0.984 . S
H891 N878 0.985 . S
C892 C893 1.363 . S
C892 C898 1.379 . S
C892 N900 1.356 . S
C893 C892 1.363 . S
C893 C899 1.363 . S
C894 C895 1.363 . S
C894 C899 1.379 . S
C894 N901 1.356 . S
C895 C894 1.363 . S
C895 C898 1.363 . S
N896 C898 1.356 . S
N896 H908 0.984 . S
N896 H909 0.985 1_554 S
N897 C899 1.356 . S
N897 H902 0.984 . S
N897 H903 0.985 . S
C898 C892 1.379 . S
C898 C895 1.363 . S
C898 N896 1.356 . S
C899 C893 1.363 . S
C899 C894 1.379 . S
C899 N897 1.356 . S
N900 C892 1.356 . S
N900 H906 0.984 . S
N900 H907 0.984 . S
N901 C894 1.356 . S
N901 H904 0.984 1_554 S
N901 H905 0.985 . S
H902 N897 0.984 . S
H903 N897 0.985 . S
H904 N901 0.984 1_556 S
H905 N901 0.985 . S
H906 N900 0.984 . S
H907 N900 0.984 . S
H908 N896 0.984 . S
H909 N896 0.985 1_556 S
C910 C911 1.363 . S
C910 C916 1.379 . S
C910 N918 1.356 . S
C911 C910 1.363 . S
C911 C917 1.363 . S
C912 C913 1.363 . S
C912 C917 1.379 . S
C912 N919 1.356 . S
C913 C912 1.363 . S
C913 C916 1.363 . S
N914 C916 1.356 . S
N914 H926 0.984 . S
N914 H927 0.985 . S
N915 C917 1.356 . S
N915 H920 0.984 . S
N915 H921 0.985 . S
C916 C910 1.379 . S
C916 C913 1.363 . S
C916 N914 1.356 . S
C917 C911 1.363 . S
C917 C912 1.379 . S
C917 N915 1.356 . S
N918 C910 1.356 . S
N918 H924 0.984 1_556 S
N918 H925 0.984 1_556 S
N919 C912 1.356 . S
N919 H922 0.984 . S
N919 H923 0.985 . S
H920 N915 0.984 . S
H921 N915 0.985 . S
H922 N919 0.984 . S
H923 N919 0.985 . S
H924 N918 0.984 1_554 S
H925 N918 0.984 1_554 S
H926 N914 0.984 . S
H927 N914 0.985 . S
C928 C929 1.363 . S
C928 C934 1.379 . S
C928 N936 1.356 . S
C929 C928 1.363 . S
C929 C935 1.363 . S
C930 C931 1.363 . S
C930 C935 1.379 . S
C930 N937 1.356 . S
C931 C930 1.363 . S
C931 C934 1.363 . S
N932 C934 1.356 . S
N932 H944 0.984 . S
N932 H945 0.985 . S
N933 C935 1.356 . S
N933 H938 0.984 . S
N933 H939 0.985 . S
C934 C928 1.379 . S
C934 C931 1.363 . S
C934 N932 1.356 . S
C935 C929 1.363 . S
C935 C930 1.379 . S
C935 N933 1.356 . S
N936 C928 1.356 . S
N936 H942 0.984 . S
N936 H943 0.984 . S
N937 C930 1.356 . S
N937 H940 0.984 . S
N937 H941 0.985 . S
H938 N933 0.984 . S
H939 N933 0.985 . S
H940 N937 0.984 . S
H941 N937 0.985 . S
H942 N936 0.984 . S
H943 N936 0.984 . S
H944 N932 0.984 . S
H945 N932 0.985 . S
C946 C947 1.363 . S
C946 C952 1.379 . S
C946 N954 1.356 . S
C947 C946 1.363 . S
C947 C953 1.363 . S
C948 C949 1.363 . S
C948 C953 1.379 . S
C948 N955 1.356 . S
C949 C948 1.363 . S
C949 C952 1.363 . S
N950 C952 1.356 . S
N950 H962 0.984 . S
N950 H963 0.985 . S
N951 C953 1.356 . S
N951 H956 0.984 . S
N951 H957 0.985 . S
C952 C946 1.379 . S
C952 C949 1.363 . S
C952 N950 1.356 . S
C953 C947 1.363 . S
C953 C948 1.379 . S
C953 N951 1.356 . S
N954 C946 1.356 . S
N954 H960 0.984 . S
N954 H961 0.984 . S
N955 C948 1.356 . S
N955 H958 0.984 . S
N955 H959 0.985 . S
H956 N951 0.984 . S
H957 N951 0.985 . S
H958 N955 0.984 . S
H959 N955 0.985 . S
H960 N954 0.984 . S
H961 N954 0.984 . S
H962 N950 0.984 . S
H963 N950 0.985 . S
C964 C965 1.363 . S
C964 C970 1.379 . S
C964 N972 1.356 . S
C965 C964 1.363 . S
C965 C971 1.363 . S
C966 C967 1.363 . S
C966 C971 1.379 . S
C966 N973 1.356 . S
C967 C966 1.363 . S
C967 C970 1.363 . S
N968 C970 1.356 . S
N968 H980 0.984 . S
N968 H981 0.985 . S
N969 C971 1.356 . S
N969 H974 0.984 . S
N969 H975 0.985 . S
C970 C964 1.379 . S
C970 C967 1.363 . S
C970 N968 1.356 . S
C971 C965 1.363 . S
C971 C966 1.379 . S
C971 N969 1.356 . S
N972 C964 1.356 . S
N972 H978 0.984 . S
N972 H979 0.984 . S
N973 C966 1.356 . S
N973 H976 0.984 . S
N973 H977 0.985 . S
H974 N969 0.984 . S
H975 N969 0.985 . S
H976 N973 0.984 . S
H977 N973 0.985 . S
H978 N972 0.984 . S
H979 N972 0.984 . S
H980 N968 0.984 . S
H981 N968 0.985 . S
C982 C983 1.363 . S
C982 C988 1.379 1_655 S
C982 N990 1.356 . S
C983 C982 1.363 . S
C983 C989 1.363 . S
C984 C985 1.363 . S
C984 C989 1.379 1_455 S
C984 N991 1.356 . S
C985 C984 1.363 . S
C985 C988 1.363 . S
N986 C988 1.356 . S
N986 H998 0.984 . S
N986 H999 0.985 . S
N987 C989 1.356 . S
N987 H992 0.984 . S
N987 H993 0.985 1_556 S
C988 C982 1.379 1_455 S
C988 C985 1.363 . S
C988 N986 1.356 . S
C989 C983 1.363 . S
C989 C984 1.379 1_655 S
C989 N987 1.356 . S
N990 C982 1.356 . S
N990 H996 0.984 . S
N990 H997 0.984 . S
N991 C984 1.356 . S
N991 H994 0.984 . S
N991 H995 0.985 1_556 S
H992 N987 0.984 . S
H993 N987 0.985 1_554 S
H994 N991 0.984 . S
H995 N991 0.985 1_554 S
H996 N990 0.984 . S
H997 N990 0.984 . S
H998 N986 0.984 . S
H999 N986 0.985 . S
C1000 C1001 1.363 . S
C1000 C1006 1.379 . S
C1000 N1008 1.356 . S
C1001 C1000 1.363 . S
C1001 C1007 1.363 . S
C1002 C1003 1.363 . S
C1002 C1007 1.379 . S
C1002 N1009 1.356 . S
C1003 C1002 1.363 . S
C1003 C1006 1.363 . S
N1004 C1006 1.356 . S
N1004 H1016 0.984 . S
N1004 H1017 0.985 . S
N1005 C1007 1.356 . S
N1005 H1010 0.984 . S
N1005 H1011 0.985 . S
C1006 C1000 1.379 . S
C1006 C1003 1.363 . S
C1006 N1004 1.356 . S
C1007 C1001 1.363 . S
C1007 C1002 1.379 . S
C1007 N1005 1.356 . S
N1008 C1000 1.356 . S
N1008 H1014 0.984 . S
N1008 H1015 0.984 . S
N1009 C1002 1.356 . S
N1009 H1012 0.984 . S
N1009 H1013 0.985 . S
H1010 N1005 0.984 . S
H1011 N1005 0.985 . S
H1012 N1009 0.984 . S
H1013 N1009 0.985 . S
H1014 N1008 0.984 . S
H1015 N1008 0.984 . S
H1016 N1004 0.984 . S
H1017 N1004 0.985 . S
C1018 C1019 1.363 . S
C1018 C1024 1.379 1_455 S
C1018 N1026 1.356 . S
C1019 C1018 1.363 . S
C1019 C1025 1.363 . S
C1020 C1021 1.363 . S
C1020 C1025 1.379 1_655 S
C1020 N1027 1.356 . S
C1021 C1020 1.363 . S
C1021 C1024 1.363 . S
N1022 C1024 1.356 . S
N1022 H1034 0.974 1_554 S
N1022 H1035 0.985 . S
N1023 C1025 1.356 . S
N1023 H1028 0.984 . S
N1023 H1029 0.985 . S
C1024 C1018 1.379 1_655 S
C1024 C1021 1.363 . S
C1024 N1022 1.356 . S
C1025 C1019 1.363 . S
C1025 C1020 1.379 1_455 S
C1025 N1023 1.356 . S
N1026 C1018 1.356 . S
N1026 H1032 0.968 1_554 S
N1026 H1033 0.984 . S
N1027 C1020 1.356 . S
N1027 H1030 0.984 . S
N1027 H1031 0.985 . S
H1028 N1023 0.984 . S
H1029 N1023 0.985 . S
H1030 N1027 0.984 . S
H1031 N1027 0.985 . S
H1032 N1026 0.968 1_556 S
H1033 N1026 0.984 . S
H1034 N1022 0.974 1_556 S
H1035 N1022 0.985 . S
C1036 C1037 1.363 . S
C1036 C1042 1.379 . S
C1036 N1044 1.356 . S
C1037 C1036 1.363 . S
C1037 C1043 1.363 . S
C1038 C1039 1.363 . S
C1038 C1043 1.379 . S
C1038 N1045 1.356 . S
C1039 C1038 1.363 . S
C1039 C1042 1.363 . S
N1040 C1042 1.356 . S
N1040 H1052 0.984 . S
N1040 H1053 0.985 . S
N1041 C1043 1.356 . S
N1041 H1046 0.984 . S
N1041 H1047 0.985 . S
C1042 C1036 1.379 . S
C1042 C1039 1.363 . S
C1042 N1040 1.356 . S
C1043 C1037 1.363 . S
C1043 C1038 1.379 . S
C1043 N1041 1.356 . S
N1044 C1036 1.356 . S
N1044 H1050 0.984 . S
N1044 H1051 0.984 . S
N1045 C1038 1.356 . S
N1045 H1048 0.984 . S
N1045 H1049 0.985 . S
H1046 N1041 0.984 . S
H1047 N1041 0.985 . S
H1048 N1045 0.984 . S
H1049 N1045 0.985 . S
H1050 N1044 0.984 . S
H1051 N1044 0.984 . S
H1052 N1040 0.984 . S
H1053 N1040 0.985 . S
C1054 C1055 1.363 . S
C1054 C1060 1.379 . S
C1054 N1062 1.356 . S
C1055 C1054 1.363 . S
C1055 C1061 1.363 . S
C1056 C1057 1.363 . S
C1056 C1061 1.379 . S
C1056 N1063 1.356 . S
C1057 C1056 1.363 . S
C1057 C1060 1.363 . S
N1058 C1060 1.356 . S
N1058 H1070 0.984 . S
N1058 H1071 0.985 . S
N1059 C1061 1.356 . S
N1059 H1064 0.984 . S
N1059 H1065 0.985 . S
C1060 C1054 1.379 . S
C1060 C1057 1.363 . S
C1060 N1058 1.356 . S
C1061 C1055 1.363 . S
C1061 C1056 1.379 . S
C1061 N1059 1.356 . S
N1062 C1054 1.356 . S
N1062 H1068 0.984 . S
N1062 H1069 0.984 . S
N1063 C1056 1.356 . S
N1063 H1066 0.984 . S
N1063 H1067 0.985 . S
H1064 N1059 0.984 . S
H1065 N1059 0.985 . S
H1066 N1063 0.984 . S
H1067 N1063 0.985 . S
H1068 N1062 0.984 . S
H1069 N1062 0.984 . S
H1070 N1058 0.984 . S
H1071 N1058 0.985 . S
C1072 C1073 1.363 . S
C1072 C1078 1.379 . S
C1072 N1080 1.356 . S
C1073 C1072 1.363 . S
C1073 C1079 1.363 . S
C1074 C1075 1.363 . S
C1074 C1079 1.379 . S
C1074 N1081 1.356 . S
C1075 C1074 1.363 . S
C1075 C1078 1.363 . S
N1076 C1078 1.356 . S
N1076 H1088 0.984 . S
N1076 H1089 0.985 . S
N1077 C1079 1.356 . S
N1077 H1082 0.984 . S
N1077 H1083 0.985 . S
C1078 C1072 1.379 . S
C1078 C1075 1.363 . S
C1078 N1076 1.356 . S
C1079 C1073 1.363 . S
C1079 C1074 1.379 . S
C1079 N1077 1.356 . S
N1080 C1072 1.356 . S
N1080 H1086 0.984 . S
N1080 H1087 0.984 . S
N1081 C1074 1.356 . S
N1081 H1084 0.984 . S
N1081 H1085 0.985 . S
H1082 N1077 0.984 . S
H1083 N1077 0.985 . S
H1084 N1081 0.984 . S
H1085 N1081 0.985 . S
H1086 N1080 0.984 . S
H1087 N1080 0.984 . S
H1088 N1076 0.984 . S
H1089 N1076 0.985 . S
C1090 C1091 1.363 . S
C1090 C1096 1.379 . S
C1090 N1098 1.356 . S
C1091 C1090 1.363 . S
C1091 C1097 1.363 . S
C1092 C1093 1.363 . S
C1092 C1097 1.379 . S
C1092 N1099 1.356 . S
C1093 C1092 1.363 . S
C1093 C1096 1.363 . S
N1094 C1096 1.356 . S
N1094 H1106 0.984 . S
N1094 H1107 0.985 . S
N1095 C1097 1.356 . S
N1095 H1100 0.984 . S
N1095 H1101 0.985 . S
C1096 C1090 1.379 . S
C1096 C1093 1.363 . S
C1096 N1094 1.356 . S
C1097 C1091 1.363 . S
C1097 C1092 1.379 . S
C1097 N1095 1.356 . S
N1098 C1090 1.356 . S
N1098 H1104 0.984 . S
N1098 H1105 0.984 . S
N1099 C1092 1.356 . S
N1099 H1102 0.984 . S
N1099 H1103 0.985 . S
H1100 N1095 0.984 . S
H1101 N1095 0.985 . S
H1102 N1099 0.984 . S
H1103 N1099 0.985 . S
H1104 N1098 0.984 . S
H1105 N1098 0.984 . S
H1106 N1094 0.984 . S
H1107 N1094 0.985 . S
C1108 C1109 1.363 . S
C1108 C1114 1.379 . S
C1108 N1116 1.356 . S
C1109 C1108 1.363 . S
C1109 C1115 1.363 . S
C1110 C1111 1.363 . S
C1110 C1115 1.379 . S
C1110 N1117 1.356 . S
C1111 C1110 1.363 . S
C1111 C1114 1.363 . S
N1112 C1114 1.356 . S
N1112 H1124 0.984 . S
N1112 H1125 0.985 . S
N1113 C1115 1.356 . S
N1113 H1118 0.984 . S
N1113 H1119 0.985 . S
C1114 C1108 1.379 . S
C1114 C1111 1.363 . S
C1114 N1112 1.356 . S
C1115 C1109 1.363 . S
C1115 C1110 1.379 . S
C1115 N1113 1.356 . S
N1116 C1108 1.356 . S
N1116 H1122 0.984 . S
N1116 H1123 0.984 . S
N1117 C1110 1.356 . S
N1117 H1120 0.984 . S
N1117 H1121 0.985 . S
H1118 N1113 0.984 . S
H1119 N1113 0.985 . S
H1120 N1117 0.984 . S
H1121 N1117 0.985 . S
H1122 N1116 0.984 . S
H1123 N1116 0.984 . S
H1124 N1112 0.984 . S
H1125 N1112 0.985 . S
C1126 C1127 1.363 . S
C1126 C1132 1.379 . S
C1126 N1134 1.356 . S
C1127 C1126 1.363 . S
C1127 C1133 1.363 . S
C1128 C1129 1.363 . S
C1128 C1133 1.379 . S
C1128 N1135 1.356 . S
C1129 C1128 1.363 . S
C1129 C1132 1.363 . S
N1130 C1132 1.356 . S
N1130 H1142 0.984 . S
N1130 H1143 0.985 . S
N1131 C1133 1.356 . S
N1131 H1136 0.984 . S
N1131 H1137 0.985 . S
C1132 C1126 1.379 . S
C1132 C1129 1.363 . S
C1132 N1130 1.356 . S
C1133 C1127 1.363 . S
C1133 C1128 1.379 . S
C1133 N1131 1.356 . S
N1134 C1126 1.356 . S
N1134 H1140 0.984 . S
N1134 H1141 0.984 . S
N1135 C1128 1.356 . S
N1135 H1138 0.984 . S
N1135 H1139 0.985 . S
H1136 N1131 0.984 . S
H1137 N1131 0.985 . S
H1138 N1135 0.984 . S
H1139 N1135 0.985 . S
H1140 N1134 0.984 . S
H1141 N1134 0.984 . S
H1142 N1130 0.984 . S
H1143 N1130 0.985 . S
C1144 C1145 1.363 . S
C1144 C1150 1.379 1_655 S
C1144 N1152 1.356 . S
C1145 C1144 1.363 . S
C1145 C1151 1.363 . S
C1146 C1147 1.363 . S
C1146 C1151 1.379 1_455 S
C1146 N1153 1.356 . S
C1147 C1146 1.363 . S
C1147 C1150 1.363 . S
N1148 C1150 1.356 1_554 S
N1148 H1160 0.984 . S
N1148 H1161 0.985 . S
N1149 C1151 1.356 . S
N1149 H1154 0.984 . S
N1149 H1155 0.985 . S
C1150 C1144 1.379 1_455 S
C1150 C1147 1.363 . S
C1150 N1148 1.356 1_556 S
C1151 C1145 1.363 . S
C1151 C1146 1.379 1_655 S
C1151 N1149 1.356 . S
N1152 C1144 1.356 . S
N1152 H1158 0.984 1_556 S
N1152 H1159 0.984 . S
N1153 C1146 1.356 . S
N1153 H1156 0.984 . S
N1153 H1157 0.985 . S
H1154 N1149 0.984 . S
H1155 N1149 0.985 . S
H1156 N1153 0.984 . S
H1157 N1153 0.985 . S
H1158 N1152 0.984 1_554 S
H1159 N1152 0.984 . S
H1160 N1148 0.984 . S
H1161 N1148 0.985 . S
C1162 C1163 1.363 . S
C1162 C1168 1.379 . S
C1162 N1170 1.356 . S
C1163 C1162 1.363 . S
C1163 C1169 1.363 . S
C1164 C1165 1.363 . S
C1164 C1169 1.379 . S
C1164 N1171 1.356 . S
C1165 C1164 1.363 . S
C1165 C1168 1.363 . S
N1166 C1168 1.356 . S
N1166 H1178 0.984 . S
N1166 H1179 0.985 . S
N1167 C1169 1.356 . S
N1167 H1172 0.984 . S
N1167 H1173 0.985 . S
C1168 C1162 1.379 . S
C1168 C1165 1.363 . S
C1168 N1166 1.356 . S
C1169 C1163 1.363 . S
C1169 C1164 1.379 . S
C1169 N1167 1.356 . S
N1170 C1162 1.356 . S
N1170 H1176 0.984 . S
N1170 H1177 0.984 . S
N1171 C1164 1.356 . S
N1171 H1174 0.984 . S
N1171 H1175 0.985 . S
H1172 N1167 0.984 . S
H1173 N1167 0.985 . S
H1174 N1171 0.984 . S
H1175 N1171 0.985 . S
H1176 N1170 0.984 . S
H1177 N1170 0.984 . S
H1178 N1166 0.984 . S
H1179 N1166 0.985 . S
C1180 C1181 1.363 . S
C1180 C1186 1.379 . S
C1180 N1188 1.356 . S
C1181 C1180 1.363 . S
C1181 C1187 1.363 . S
C1182 C1183 1.363 . S
C1182 C1187 1.379 . S
C1182 N1189 1.356 . S
C1183 C1182 1.363 . S
C1183 C1186 1.363 . S
N1184 C1186 1.356 . S
N1184 H1196 0.984 . S
N1184 H1197 0.985 . S
N1185 C1187 1.356 . S
N1185 H1190 0.984 . S
N1185 H1191 0.985 . S
C1186 C1180 1.379 . S
C1186 C1183 1.363 . S
C1186 N1184 1.356 . S
C1187 C1181 1.363 . S
C1187 C1182 1.379 . S
C1187 N1185 1.356 . S
N1188 C1180 1.356 . S
N1188 H1194 0.984 . S
N1188 H1195 0.984 . S
N1189 C1182 1.356 . S
N1189 H1192 0.984 . S
N1189 H1193 0.985 . S
H1190 N1185 0.984 . S
H1191 N1185 0.985 . S
H1192 N1189 0.984 . S
H1193 N1189 0.985 . S
H1194 N1188 0.984 . S
H1195 N1188 0.984 . S
H1196 N1184 0.984 . S
H1197 N1184 0.985 . S
C1198 C1199 1.363 . S
C1198 C1204 1.379 1_455 S
C1198 N1206 1.356 . S
C1199 C1198 1.363 . S
C1199 C1205 1.363 . S
C1200 C1201 1.363 . S
C1200 C1205 1.379 1_655 S
C1200 N1207 1.356 1_554 S
C1201 C1200 1.363 . S
C1201 C1204 1.363 . S
N1202 C1204 1.356 . S
N1202 H1214 0.984 . S
N1202 H1215 0.985 . S
N1203 C1205 1.356 1_556 S
N1203 H1208 0.984 1_556 S
N1203 H1209 0.985 . S
C1204 C1198 1.379 1_655 S
C1204 C1201 1.363 . S
C1204 N1202 1.356 . S
C1205 C1199 1.363 . S
C1205 C1200 1.379 1_455 S
C1205 N1203 1.356 1_554 S
N1206 C1198 1.356 . S
N1206 H1212 0.984 . S
N1206 H1213 0.984 . S
N1207 C1200 1.356 1_556 S
N1207 H1210 0.984 . S
N1207 H1211 0.985 . S
H1208 N1203 0.984 1_554 S
H1209 N1203 0.985 . S
H1210 N1207 0.984 . S
H1211 N1207 0.985 . S
H1212 N1206 0.984 . S
H1213 N1206 0.984 . S
H1214 N1202 0.984 . S
H1215 N1202 0.985 . S
C1216 C1217 1.363 . S
C1216 C1222 1.379 1_554 S
C1216 N1224 1.356 . S
C1217 C1216 1.363 . S
C1217 C1223 1.363 . S
C1218 C1219 1.363 1_554 S
C1218 C1223 1.379 . S
C1218 N1225 1.356 1_554 S
C1219 C1218 1.363 1_556 S
C1219 C1222 1.363 . S
N1220 C1222 1.356 . S
N1220 H1232 0.984 . S
N1220 H1233 0.985 . S
N1221 C1223 1.356 . S
N1221 H1226 0.984 . S
N1221 H1227 0.985 . S
C1222 C1216 1.379 1_556 S
C1222 C1219 1.363 . S
C1222 N1220 1.356 . S
C1223 C1217 1.363 . S
C1223 C1218 1.379 . S
C1223 N1221 1.356 . S
N1224 C1216 1.356 . S
N1224 H1230 0.984 . S
N1224 H1231 0.984 . S
N1225 C1218 1.356 1_556 S
N1225 H1228 0.984 . S
N1225 H1229 0.985 1_556 S
H1226 N1221 0.984 . S
H1227 N1221 0.985 . S
H1228 N1225 0.984 . S
H1229 N1225 0.985 1_554 S
H1230 N1224 0.984 . S
H1231 N1224 0.984 . S
H1232 N1220 0.984 . S
H1233 N1220 0.985 . S
C1234 C1235 1.363 . S
C1234 C1240 1.379 . S
C1234 N1242 1.356 . S
C1235 C1234 1.363 . S
C1235 C1241 1.363 . S
C1236 C1237 1.363 . S
C1236 C1241 1.379 . S
C1236 N1243 1.356 . S
C1237 C1236 1.363 . S
C1237 C1240 1.363 . S
N1238 C1240 1.356 . S
N1238 H1250 0.984 . S
N1238 H1251 0.985 . S
N1239 C1241 1.356 . S
N1239 H1244 0.984 . S
N1239 H1245 0.985 . S
C1240 C1234 1.379 . S
C1240 C1237 1.363 . S
C1240 N1238 1.356 . S
C1241 C1235 1.363 . S
C1241 C1236 1.379 . S
C1241 N1239 1.356 . S
N1242 C1234 1.356 . S
N1242 H1248 0.984 . S
N1242 H1249 0.984 . S
N1243 C1236 1.356 . S
N1243 H1246 0.984 . S
N1243 H1247 0.985 . S
H1244 N1239 0.984 . S
H1245 N1239 0.985 . S
H1246 N1243 0.984 . S
H1247 N1243 0.985 . S
H1248 N1242 0.984 . S
H1249 N1242 0.984 . S
H1250 N1238 0.984 . S
H1251 N1238 0.985 . S
C1252 C1253 1.363 . S
C1252 C1258 1.379 . S
C1252 N1260 1.356 . S
C1253 C1252 1.363 . S
C1253 C1259 1.363 . S
C1254 C1255 1.363 . S
C1254 C1259 1.379 . S
C1254 N1261 1.356 . S
C1255 C1254 1.363 . S
C1255 C1258 1.363 . S
N1256 C1258 1.356 . S
N1256 H1268 0.984 . S
N1256 H1269 0.985 . S
N1257 C1259 1.356 . S
N1257 H1262 0.984 . S
N1257 H1263 0.985 . S
C1258 C1252 1.379 . S
C1258 C1255 1.363 . S
C1258 N1256 1.356 . S
C1259 C1253 1.363 . S
C1259 C1254 1.379 . S
C1259 N1257 1.356 . S
N1260 C1252 1.356 . S
N1260 H1266 0.984 . S
N1260 H1267 0.984 . S
N1261 C1254 1.356 . S
N1261 H1264 0.984 . S
N1261 H1265 0.985 . S
H1262 N1257 0.984 . S
H1263 N1257 0.985 . S
H1264 N1261 0.984 . S
H1265 N1261 0.985 . S
H1266 N1260 0.984 . S
H1267 N1260 0.984 . S
H1268 N1256 0.984 . S
H1269 N1256 0.985 . S
C1270 C1271 1.363 . S
C1270 C1276 1.379 . S
C1270 N1278 1.356 . S
C1271 C1270 1.363 . S
C1271 C1277 1.363 . S
C1272 C1273 1.363 . S
C1272 C1277 1.379 . S
C1272 N1279 1.356 . S
C1273 C1272 1.363 . S
C1273 C1276 1.363 . S
N1274 C1276 1.356 . S
N1274 H1286 0.984 . S
N1274 H1287 0.985 . S
N1275 C1277 1.356 . S
N1275 H1280 0.984 . S
N1275 H1281 0.985 . S
C1276 C1270 1.379 . S
C1276 C1273 1.363 . S
C1276 N1274 1.356 . S
C1277 C1271 1.363 . S
C1277 C1272 1.379 . S
C1277 N1275 1.356 . S
N1278 C1270 1.356 . S
N1278 H1284 0.984 . S
N1278 H1285 0.984 . S
N1279 C1272 1.356 . S
N1279 H1282 0.984 . S
N1279 H1283 0.985 . S
H1280 N1275 0.984 . S
H1281 N1275 0.985 . S
H1282 N1279 0.984 . S
H1283 N1279 0.985 . S
H1284 N1278 0.984 . S
H1285 N1278 0.984 . S
H1286 N1274 0.984 . S
H1287 N1274 0.985 . S
C1288 C1289 1.363 . S
C1288 C1294 1.379 1_554 S
C1288 N1296 1.356 . S
C1289 C1288 1.363 . S
C1289 C1295 1.363 . S
C1290 C1291 1.363 . S
C1290 C1295 1.379 1_556 S
C1290 N1297 1.356 . S
C1291 C1290 1.363 . S
C1291 C1294 1.363 . S
N1292 C1294 1.356 . S
N1292 H1304 0.984 . S
N1292 H1305 0.985 . S
N1293 C1295 1.356 . S
N1293 H1298 0.984 . S
N1293 H1299 0.985 . S
C1294 C1288 1.379 1_556 S
C1294 C1291 1.363 . S
C1294 N1292 1.356 . S
C1295 C1289 1.363 . S
C1295 C1290 1.379 1_554 S
C1295 N1293 1.356 . S
N1296 C1288 1.356 . S
N1296 H1302 0.984 . S
N1296 H1303 0.984 . S
N1297 C1290 1.356 . S
N1297 H1300 0.984 . S
N1297 H1301 0.985 . S
H1298 N1293 0.984 . S
H1299 N1293 0.985 . S
H1300 N1297 0.984 . S
H1301 N1297 0.985 . S
H1302 N1296 0.984 . S
H1303 N1296 0.984 . S
H1304 N1292 0.984 . S
H1305 N1292 0.985 . S
C1306 C1307 1.363 . S
C1306 C1312 1.379 . S
C1306 N1314 1.356 . S
C1307 C1306 1.363 . S
C1307 C1313 1.363 . S
C1308 C1309 1.363 . S
C1308 C1313 1.379 . S
C1308 N1315 1.356 . S
C1309 C1308 1.363 . S
C1309 C1312 1.363 . S
N1310 C1312 1.356 . S
N1310 H1322 0.984 . S
N1310 H1323 0.985 . S
N1311 C1313 1.356 . S
N1311 H1316 0.984 . S
N1311 H1317 0.985 . S
C1312 C1306 1.379 . S
C1312 C1309 1.363 . S
C1312 N1310 1.356 . S
C1313 C1307 1.363 . S
C1313 C1308 1.379 . S
C1313 N1311 1.356 . S
N1314 C1306 1.356 . S
N1314 H1320 0.984 . S
N1314 H1321 0.984 . S
N1315 C1308 1.356 . S
N1315 H1318 0.984 . S
N1315 H1319 0.985 . S
H1316 N1311 0.984 . S
H1317 N1311 0.985 . S
H1318 N1315 0.984 . S
H1319 N1315 0.985 . S
H1320 N1314 0.984 . S
H1321 N1314 0.984 . S
H1322 N1310 0.984 . S
H1323 N1310 0.985 . S
C1324 C1325 1.363 . S
C1324 C1330 1.379 . S
C1324 N1332 1.356 . S
C1325 C1324 1.363 . S
C1325 C1331 1.363 . S
C1326 C1327 1.363 . S
C1326 C1331 1.379 . S
C1326 N1333 1.356 . S
C1327 C1326 1.363 . S
C1327 C1330 1.363 . S
N1328 C1330 1.356 . S
N1328 H1340 0.984 . S
N1328 H1341 0.985 . S
N1329 C1331 1.356 . S
N1329 H1334 0.984 . S
N1329 H1335 0.985 . S
C1330 C1324 1.379 . S
C1330 C1327 1.363 . S
C1330 N1328 1.356 . S
C1331 C1325 1.363 . S
C1331 C1326 1.379 . S
C1331 N1329 1.356 . S
N1332 C1324 1.356 . S
N1332 H1338 0.984 . S
N1332 H1339 0.984 . S
N1333 C1326 1.356 . S
N1333 H1336 0.984 . S
N1333 H1337 0.985 . S
H1334 N1329 0.984 . S
H1335 N1329 0.985 . S
H1336 N1333 0.984 . S
H1337 N1333 0.985 . S
H1338 N1332 0.984 . S
H1339 N1332 0.984 . S
H1340 N1328 0.984 . S
H1341 N1328 0.985 . S
C1342 C1343 1.363 . S
C1342 C1348 1.379 . S
C1342 N1350 1.356 . S
C1343 C1342 1.363 . S
C1343 C1349 1.363 . S
C1344 C1345 1.363 . S
C1344 C1349 1.379 . S
C1344 N1351 1.356 . S
C1345 C1344 1.363 . S
C1345 C1348 1.363 . S
N1346 C1348 1.356 . S
N1346 H1358 0.984 . S
N1346 H1359 0.985 . S
N1347 C1349 1.356 . S
N1347 H1352 0.984 . S
N1347 H1353 0.985 . S
C1348 C1342 1.379 . S
C1348 C1345 1.363 . S
C1348 N1346 1.356 . S
C1349 C1343 1.363 . S
C1349 C1344 1.379 . S
C1349 N1347 1.356 . S
N1350 C1342 1.356 . S
N1350 H1356 0.984 . S
N1350 H1357 0.984 . S
N1351 C1344 1.356 . S
N1351 H1354 0.984 . S
N1351 H1355 0.985 . S
H1352 N1347 0.984 . S
H1353 N1347 0.985 . S
H1354 N1351 0.984 . S
H1355 N1351 0.985 . S
H1356 N1350 0.984 . S
H1357 N1350 0.984 . S
H1358 N1346 0.984 . S
H1359 N1346 0.985 . S
C1360 C1361 1.363 . S
C1360 C1366 1.379 1_565 S
C1360 N1368 1.356 . S
C1361 C1360 1.363 . S
C1361 C1367 1.363 . S
C1362 C1363 1.376 . S
C1362 C1367 1.368 1_545 S
C1362 N1369 1.358 . S
C1363 C1362 1.376 . S
C1363 C1366 1.363 . S
N1364 C1366 1.356 . S
N1364 H1376 0.984 . S
N1364 H1377 0.985 . S
N1365 C1367 1.356 . S
N1365 H1370 0.984 . S
N1365 H1371 0.985 . S
C1366 C1360 1.379 1_545 S
C1366 C1363 1.363 . S
C1366 N1364 1.356 . S
C1367 C1361 1.363 . S
C1367 C1362 1.368 1_565 S
C1367 N1365 1.356 . S
N1368 C1360 1.356 . S
N1368 H1374 0.984 1_565 S
N1368 H1375 0.984 . S
N1369 C1362 1.358 . S
N1369 H1372 0.984 . S
N1369 H1373 0.985 1_545 S
H1370 N1365 0.984 . S
H1371 N1365 0.985 . S
H1372 N1369 0.984 . S
H1373 N1369 0.985 1_565 S
H1374 N1368 0.984 1_545 S
H1375 N1368 0.984 . S
H1376 N1364 0.984 . S
H1377 N1364 0.985 . S
C1378 C1379 1.363 . S
C1378 C1384 1.379 . S
C1378 N1386 1.356 . S
C1379 C1378 1.363 . S
C1379 C1385 1.363 . S
C1380 C1381 1.363 . S
C1380 C1385 1.379 . S
C1380 N1387 1.356 . S
C1381 C1380 1.363 . S
C1381 C1384 1.363 . S
N1382 C1384 1.356 . S
N1382 H1394 0.984 . S
N1382 H1395 0.985 . S
N1383 C1385 1.356 . S
N1383 H1388 0.984 . S
N1383 H1389 0.985 . S
C1384 C1378 1.379 . S
C1384 C1381 1.363 . S
C1384 N1382 1.356 . S
C1385 C1379 1.363 . S
C1385 C1380 1.379 . S
C1385 N1383 1.356 . S
N1386 C1378 1.356 . S
N1386 H1392 0.984 . S
N1386 H1393 0.984 . S
N1387 C1380 1.356 . S
N1387 H1390 0.984 . S
N1387 H1391 0.985 . S
H1388 N1383 0.984 . S
H1389 N1383 0.985 . S
H1390 N1387 0.984 . S
H1391 N1387 0.985 . S
H1392 N1386 0.984 . S
H1393 N1386 0.984 . S
H1394 N1382 0.984 . S
H1395 N1382 0.985 . S
C1396 C1397 1.363 1_556 S
C1396 C1402 1.379 . S
C1396 N1404 1.356 . S
C1397 C1396 1.363 1_554 S
C1397 C1403 1.363 1_565 S
C1398 C1399 1.363 1_554 S
C1398 C1403 1.379 . S
C1398 N1405 1.356 . S
C1399 C1398 1.363 1_556 S
C1399 C1402 1.363 1_545 S
N1400 C1402 1.356 . S
N1400 H1412 0.984 . S
N1400 H1413 0.985 1_565 S
N1401 C1403 1.356 . S
N1401 H1406 0.984 1_545 S
N1401 H1407 0.985 . S
C1402 C1396 1.379 . S
C1402 C1399 1.363 1_565 S
C1402 N1400 1.356 . S
C1403 C1397 1.363 1_545 S
C1403 C1398 1.379 . S
C1403 N1401 1.356 . S
N1404 C1396 1.356 . S
N1404 H1410 0.984 . S
N1404 H1411 0.984 1_556 S
N1405 C1398 1.356 . S
N1405 H1408 0.984 1_554 S
N1405 H1409 0.985 . S
H1406 N1401 0.984 1_565 S
H1407 N1401 0.985 . S
H1408 N1405 0.984 1_556 S
H1409 N1405 0.985 . S
H1410 N1404 0.984 . S
H1411 N1404 0.984 1_554 S
H1412 N1400 0.984 . S
H1413 N1400 0.985 1_545 S
C1414 C1415 1.363 . S
C1414 C1420 1.379 . S
C1414 N1422 1.356 . S
C1415 C1414 1.363 . S
C1415 C1421 1.363 . S
C1416 C1417 1.363 . S
C1416 C1421 1.379 . S
C1416 N1423 1.356 . S
C1417 C1416 1.363 . S
C1417 C1420 1.363 . S
N1418 C1420 1.356 . S
N1418 H1430 0.984 . S
N1418 H1431 0.985 . S
N1419 C1421 1.356 . S
N1419 H1424 0.984 . S
N1419 H1425 0.985 . S
C1420 C1414 1.379 . S
C1420 C1417 1.363 . S
C1420 N1418 1.356 . S
C1421 C1415 1.363 . S
C1421 C1416 1.379 . S
C1421 N1419 1.356 . S
N1422 C1414 1.356 . S
N1422 H1428 0.984 . S
N1422 H1429 0.984 . S
N1423 C1416 1.356 . S
N1423 H1426 0.984 . S
N1423 H1427 0.985 . S
H1424 N1419 0.984 . S
H1425 N1419 0.985 . S
H1426 N1423 0.984 . S
H1427 N1423 0.985 . S
H1428 N1422 0.984 . S
H1429 N1422 0.984 . S
H1430 N1418 0.984 . S
H1431 N1418 0.985 . S
C1432 C1433 1.363 . S
C1432 C1438 1.376 1_565 S
C1432 N1440 1.356 . S
C1433 C1432 1.363 . S
C1433 C1439 1.363 1_565 S
C1434 C1435 1.363 . S
C1434 C1439 1.379 . S
C1434 N1441 1.356 . S
C1435 C1434 1.363 . S
C1435 C1438 1.366 . S
N1436 C1438 1.356 . S
N1436 H1448 0.984 1_545 S
N1436 H1449 0.985 . S
N1437 C1439 1.356 1_565 S
N1437 H1442 0.984 . S
N1437 H1443 0.985 1_565 S
C1438 C1432 1.376 1_545 S
C1438 C1435 1.366 . S
C1438 N1436 1.356 . S
C1439 C1433 1.363 1_545 S
C1439 C1434 1.379 . S
C1439 N1437 1.356 1_545 S
N1440 C1432 1.356 . S
N1440 H1446 0.984 . S
N1440 H1447 0.984 . S
N1441 C1434 1.356 . S
N1441 H1444 0.984 . S
N1441 H1445 0.985 . S
H1442 N1437 0.984 . S
H1443 N1437 0.985 1_545 S
H1444 N1441 0.984 . S
H1445 N1441 0.985 . S
H1446 N1440 0.984 . S
H1447 N1440 0.984 . S
H1448 N1436 0.984 1_565 S
H1449 N1436 0.985 . S
C1450 C1451 1.363 . S
C1450 C1456 1.379 . S
C1450 N1458 1.356 . S
C1451 C1450 1.363 . S
C1451 C1457 1.363 . S
C1452 C1453 1.363 . S
C1452 C1457 1.379 . S
C1452 N1459 1.356 . S
C1453 C1452 1.363 . S
C1453 C1456 1.363 . S
N1454 C1456 1.356 . S
N1454 H1466 0.984 . S
N1454 H1467 0.985 . S
N1455 C1457 1.356 . S
N1455 H1460 0.984 . S
N1455 H1461 0.985 . S
C1456 C1450 1.379 . S
C1456 C1453 1.363 . S
C1456 N1454 1.356 . S
C1457 C1451 1.363 . S
C1457 C1452 1.379 . S
C1457 N1455 1.356 . S
N1458 C1450 1.356 . S
N1458 H1464 0.984 . S
N1458 H1465 0.984 . S
N1459 C1452 1.356 . S
N1459 H1462 0.984 . S
N1459 H1463 0.985 . S
H1460 N1455 0.984 . S
H1461 N1455 0.985 . S
H1462 N1459 0.984 . S
H1463 N1459 0.985 . S
H1464 N1458 0.984 . S
H1465 N1458 0.984 . S
H1466 N1454 0.984 . S
H1467 N1454 0.985 . S
C1468 C1469 1.363 . S
C1468 C1474 1.379 1_546 S
C1468 N1476 1.356 . S
C1469 C1468 1.363 . S
C1469 C1475 1.364 1_545 S
C1470 C1471 1.363 . S
C1470 C1475 1.378 1_554 S
C1470 N1477 1.356 . S
C1471 C1470 1.363 . S
C1471 C1474 1.363 . S
N1472 C1474 1.356 . S
N1472 H1484 0.984 . S
N1472 H1485 0.985 . S
N1473 C1475 1.357 1_545 S
N1473 H1478 0.984 . S
N1473 H1479 0.985 1_545 S
C1474 C1468 1.379 1_564 S
C1474 C1471 1.363 . S
C1474 N1472 1.356 . S
C1475 C1469 1.364 1_565 S
C1475 C1470 1.378 1_556 S
C1475 N1473 1.357 1_565 S
N1476 C1468 1.356 . S
N1476 H1482 0.984 . S
N1476 H1483 0.984 . S
N1477 C1470 1.356 . S
N1477 H1480 0.984 . S
N1477 H1481 0.985 . S
H1478 N1473 0.984 . S
H1479 N1473 0.985 1_565 S
H1480 N1477 0.984 . S
H1481 N1477 0.985 . S
H1482 N1476 0.984 . S
H1483 N1476 0.984 . S
H1484 N1472 0.984 . S
H1485 N1472 0.985 . S
C1486 C1487 1.363 . S
C1486 C1492 1.379 . S
C1486 N1494 1.356 . S
C1487 C1486 1.363 . S
C1487 C1493 1.363 . S
C1488 C1489 1.363 . S
C1488 C1493 1.379 . S
C1488 N1495 1.356 . S
C1489 C1488 1.363 . S
C1489 C1492 1.363 . S
N1490 C1492 1.356 . S
N1490 H1502 0.984 . S
N1490 H1503 0.985 . S
N1491 C1493 1.356 . S
N1491 H1496 0.984 . S
N1491 H1497 0.985 . S
C1492 C1486 1.379 . S
C1492 C1489 1.363 . S
C1492 N1490 1.356 . S
C1493 C1487 1.363 . S
C1493 C1488 1.379 . S
C1493 N1491 1.356 . S
N1494 C1486 1.356 . S
N1494 H1500 0.984 . S
N1494 H1501 0.984 . S
N1495 C1488 1.356 . S
N1495 H1498 0.984 . S
N1495 H1499 0.985 . S
H1496 N1491 0.984 . S
H1497 N1491 0.985 . S
H1498 N1495 0.984 . S
H1499 N1495 0.985 . S
H1500 N1494 0.984 . S
H1501 N1494 0.984 . S
H1502 N1490 0.984 . S
H1503 N1490 0.985 . S
C641 C7 1.919 . S
C643 C16 1.919 . S
C659 C56 1.850 . S
C661 C47 1.850 . S
C677 C87 1.926 . S
C679 C96 1.926 . S
C695 C127 1.575 . S
C697 C136 1.575 . S
C713 C167 1.837 . S
C715 C176 1.837 . S
C731 C216 1.590 . S
C733 C207 1.590 . S
C749 C256 1.545 . S
C751 C247 1.545 1_556 S
C767 C296 1.925 1_554 S
C769 C287 1.925 . S
C785 C336 1.815 . S
C787 C327 1.815 . S
C803 C376 1.805 . S
C805 C367 1.805 1_554 S
C821 C416 1.697 1_556 S
C823 C407 1.697 . S
C839 C456 1.532 . S
C841 C447 1.532 . S
C857 C496 1.891 . S
C859 C487 1.891 . S
C875 C536 1.691 . S
C877 C527 1.691 . S
C893 C567 1.587 . S
C895 C576 1.587 1_554 S
C911 C607 2.056 . S
C913 C616 2.038 . S
C929 C10 1.648 . S
C931 C451 1.722 . S
C947 C42 1.755 . S
C949 C611 1.729 . S
C965 C90 1.656 . S
C967 C379 1.594 . S
C983 C130 1.725 . S
C985 C539 1.730 . S
C1001 C170 1.726 . S
C1003 C531 1.715 . S
C1019 C459 1.699 . S
C1021 C210 1.710 . S
C1037 C242 1.710 . S
C1039 C619 1.602 . S
C1055 C282 1.836 . S
C1057 C371 1.828 . S
C1073 C122 1.735 . S
C1075 C339 1.691 . S
C1091 C50 1.656 . S
C1093 C411 1.720 . S
C1109 C499 1.691 . S
C1111 C202 1.751 . S
C1127 C290 1.590 . S
C1129 C571 1.670 . S
C1145 C331 1.837 . S
C1147 C162 1.802 . S
C1163 C250 1.706 . S
C1165 C419 1.793 . S
C1181 C82 1.846 . S
C1183 C579 1.845 . S
C1199 C2 1.769 . S
C1201 C491 1.768 . S
C1217 C19 1.525 . S
C1219 C179 1.521 . S
C1235 C51 1.831 . S
C1237 C219 1.837 . S
C1253 C99 2.114 . S
C1255 C251 2.109 . S
C1271 C139 1.816 . S
C1273 C291 1.810 . S
C1289 C490 1.633 . S
C1291 C330 1.635 . S
C1307 C530 2.060 . S
C1309 C362 2.047 . S
C1325 C402 1.856 . S
C1327 C562 1.860 . S
C1343 C602 1.704 . S
C1345 C450 1.710 . S
C1361 C59 1.525 . S
C1363 C299 1.527 . S
C1379 C171 1.793 . S
C1381 C91 1.808 . S
C1397 C211 2.036 . S
C1399 C131 2.034 . S
C1415 C11 1.819 . S
C1417 C259 1.826 . S
C1433 C610 1.465 . S
C1435 C370 1.459 . S
C1451 C482 1.811 . S
C1453 C410 1.820 . S
C1469 C522 2.049 . S
C1471 C442 2.049 . S
C1487 C570 1.897 . S
C1489 C322 1.890 . S
