# Generated by pormake.
# Topology wjd, (6)-cn, num edge types: 1
# Building blocks:
#     Node 0, Type 0, BuildingBlock: PAMTOO_clean_sbu_0, # of connection points: 6
#     Node 1, Type 0, BuildingBlock: PAMTOO_clean_sbu_0, # of connection points: 6
#     Node 2, Type 0, BuildingBlock: PAMTOO_clean_sbu_0, # of connection points: 6
#     Node 3, Type 0, BuildingBlock: PAMTOO_clean_sbu_0, # of connection points: 6
#     Node 4, Type 0, BuildingBlock: PAMTOO_clean_sbu_0, # of connection points: 6
#     Node 5, Type 0, BuildingBlock: PAMTOO_clean_sbu_0, # of connection points: 6
#     Node 6, Type 0, BuildingBlock: PAMTOO_clean_sbu_0, # of connection points: 6
#     Node 7, Type 0, BuildingBlock: PAMTOO_clean_sbu_0, # of connection points: 6
#     Node 8, Type 0, BuildingBlock: PAMTOO_clean_sbu_0, # of connection points: 6
#     Node 9, Type 0, BuildingBlock: PAMTOO_clean_sbu_0, # of connection points: 6
#     Node 10, Type 0, BuildingBlock: PAMTOO_clean_sbu_0, # of connection points: 6
#     Node 11, Type 0, BuildingBlock: PAMTOO_clean_sbu_0, # of connection points: 6
#     Edge 12, Type (0, 0), BuildingBlock: OJICUG_clean_linker_0, # of connection points: 2
#     Edge 13, Type (0, 0), BuildingBlock: OJICUG_clean_linker_0, # of connection points: 2
#     Edge 14, Type (0, 0), BuildingBlock: OJICUG_clean_linker_0, # of connection points: 2
#     Edge 15, Type (0, 0), BuildingBlock: OJICUG_clean_linker_0, # of connection points: 2
#     Edge 16, Type (0, 0), BuildingBlock: OJICUG_clean_linker_0, # of connection points: 2
#     Edge 17, Type (0, 0), BuildingBlock: OJICUG_clean_linker_0, # of connection points: 2
#     Edge 18, Type (0, 0), BuildingBlock: OJICUG_clean_linker_0, # of connection points: 2
#     Edge 19, Type (0, 0), BuildingBlock: OJICUG_clean_linker_0, # of connection points: 2
#     Edge 20, Type (0, 0), BuildingBlock: OJICUG_clean_linker_0, # of connection points: 2
#     Edge 21, Type (0, 0), BuildingBlock: OJICUG_clean_linker_0, # of connection points: 2
#     Edge 22, Type (0, 0), BuildingBlock: OJICUG_clean_linker_0, # of connection points: 2
#     Edge 23, Type (0, 0), BuildingBlock: OJICUG_clean_linker_0, # of connection points: 2
#     Edge 24, Type (0, 0), BuildingBlock: OJICUG_clean_linker_0, # of connection points: 2
#     Edge 25, Type (0, 0), BuildingBlock: OJICUG_clean_linker_0, # of connection points: 2
#     Edge 26, Type (0, 0), BuildingBlock: OJICUG_clean_linker_0, # of connection points: 2
#     Edge 27, Type (0, 0), BuildingBlock: OJICUG_clean_linker_0, # of connection points: 2
#     Edge 28, Type (0, 0), BuildingBlock: OJICUG_clean_linker_0, # of connection points: 2
#     Edge 29, Type (0, 0), BuildingBlock: OJICUG_clean_linker_0, # of connection points: 2
#     Edge 30, Type (0, 0), BuildingBlock: OJICUG_clean_linker_0, # of connection points: 2
#     Edge 31, Type (0, 0), BuildingBlock: OJICUG_clean_linker_0, # of connection points: 2
#     Edge 32, Type (0, 0), BuildingBlock: OJICUG_clean_linker_0, # of connection points: 2
#     Edge 33, Type (0, 0), BuildingBlock: OJICUG_clean_linker_0, # of connection points: 2
#     Edge 34, Type (0, 0), BuildingBlock: OJICUG_clean_linker_0, # of connection points: 2
#     Edge 35, Type (0, 0), BuildingBlock: OJICUG_clean_linker_0, # of connection points: 2
#     Edge 36, Type (0, 0), BuildingBlock: OJICUG_clean_linker_0, # of connection points: 2
#     Edge 37, Type (0, 0), BuildingBlock: OJICUG_clean_linker_0, # of connection points: 2
#     Edge 38, Type (0, 0), BuildingBlock: OJICUG_clean_linker_0, # of connection points: 2
#     Edge 39, Type (0, 0), BuildingBlock: OJICUG_clean_linker_0, # of connection points: 2
#     Edge 40, Type (0, 0), BuildingBlock: OJICUG_clean_linker_0, # of connection points: 2
#     Edge 41, Type (0, 0), BuildingBlock: OJICUG_clean_linker_0, # of connection points: 2
#     Edge 42, Type (0, 0), BuildingBlock: OJICUG_clean_linker_0, # of connection points: 2
#     Edge 43, Type (0, 0), BuildingBlock: OJICUG_clean_linker_0, # of connection points: 2
#     Edge 44, Type (0, 0), BuildingBlock: OJICUG_clean_linker_0, # of connection points: 2
#     Edge 45, Type (0, 0), BuildingBlock: OJICUG_clean_linker_0, # of connection points: 2
#     Edge 46, Type (0, 0), BuildingBlock: OJICUG_clean_linker_0, # of connection points: 2
#     Edge 47, Type (0, 0), BuildingBlock: OJICUG_clean_linker_0, # of connection points: 2
# Relax obj value: 0.095
# Max RMSD: 0.232
# Mean RMSD: 0.232
data_MOF--net-wjd--node1-PAMTOO_clean_sbu_0--edge1-OJICUG_clean_linker_0
_symmetry_space_group_name_H-M    P1
_symmetry_Int_Tables_number       1
_symmetry_cell_setting            triclinic
loop_
_symmetry_equiv_pos_as_xyz
'x, y, z'
_cell_length_a     31.812208
_cell_length_b     31.951521
_cell_length_c     38.289362
_cell_angle_alpha  90.82035
_cell_angle_beta   89.731977
_cell_angle_gamma 120.06408
loop_
_atom_site_label
_atom_site_type_symbol
_atom_site_fract_x
_atom_site_fract_y
_atom_site_fract_z
_atom_type_partial_charge
Dy0 Dy 0.32966 0.09273 0.14073 0.0
Dy1 Dy 0.39167 0.19982 0.1058 0.0
C2 C 0.32755 0.10204 0.06158 0.0
O3 O 0.40153 0.09995 0.12232 0.0
O4 O 0.44793 0.18293 0.12291 0.0
O5 O 0.29914 1.01547 0.13572 0.0
O6 O 0.28123 0.04559 0.1806 0.0
O7 O 0.39543 0.20989 0.16468 0.0
O8 O 0.38403 0.13593 0.181 0.0
O9 O 0.31379 0.17973 0.10439 0.0
O10 O 0.29277 0.13559 0.154 0.0
O11 O 0.39967 0.27067 0.09992 0.0
O12 O 0.44948 0.25332 0.07373 0.0
C13 C 0.44446 0.14026 0.12175 0.0
O14 O 0.29934 0.09032 0.08867 0.0
O15 O 0.37028 0.14219 0.06295 0.0
C16 C 0.21677 0.97412 0.15476 0.0
C17 C 0.11606 0.91475 0.14025 0.0
C18 C 0.15112 0.92138 0.11502 0.0
C19 C 0.2007 0.95042 0.1222 0.0
C20 C 0.18179 0.96783 0.17996 0.0
C21 C 0.13203 0.9386 0.17277 0.0
C22 C 0.26948 1.00671 0.16192 0.0
C23 C 0.39882 0.18151 0.18785 0.0
C24 C 0.28585 0.16266 0.13185 0.0
C25 C 0.4805 0.33426 0.09427 0.0
C26 C 0.55774 0.42509 0.1176 0.0
C27 C 0.54995 0.38168 0.13255 0.0
C28 C 0.51168 0.33678 0.12109 0.0
C29 C 0.48751 0.37736 0.07973 0.0
C30 C 0.52564 0.42226 0.09125 0.0
C31 C 0.43966 0.2873 0.08201 0.0
H32 H 0.14025 0.90403 0.08955 0.0
H33 H 0.22639 0.95428 0.10209 0.0
H34 H 0.19292 0.98551 0.20531 0.0
H35 H 0.10611 0.93374 0.193 0.0
H36 H 0.57355 0.38237 0.15312 0.0
H37 H 0.50652 0.30402 0.13307 0.0
H38 H 0.46365 0.37627 0.0592 0.0
H39 H 0.5308 0.45469 0.07875 0.0
Dy40 Dy 0.84799 0.65786 0.41373 0.0
Dy41 Dy 0.80808 0.7263 0.37964 0.0
C42 C 0.84725 0.67144 0.33081 0.0
O43 O 0.9121 0.72284 0.39318 0.0
O44 O 0.88441 0.77592 0.39982 0.0
O45 O 0.90869 0.64812 0.42601 0.0
O46 O 0.83677 0.59549 0.44335 0.0
O47 O 0.77101 0.69301 0.42881 0.0
O48 O 0.83715 0.70247 0.45625 0.0
O49 O 0.74613 0.65046 0.36828 0.0
O50 O 0.76987 0.60701 0.40319 0.0
O51 O 0.77774 0.77094 0.39384 0.0
O52 O 0.79546 0.76665 0.33973 0.0
C53 C 0.92053 0.76715 0.39631 0.0
O54 O 0.841 0.64103 0.35592 0.0
O55 O 0.84462 0.71076 0.33613 0.0
C56 C 0.89103 0.56667 0.42909 0.0
C57 C 0.91465 0.49427 0.41105 0.0
C58 C 0.91817 0.52793 0.38615 0.0
C59 C 0.90654 0.5638 0.39508 0.0
C60 C 0.88628 0.53244 0.4536 0.0
C61 C 0.89775 0.49668 0.44472 0.0
C62 C 0.88186 0.60608 0.44018 0.0
C63 C 0.79697 0.70485 0.45704 0.0
C64 C 0.73814 0.60971 0.38286 0.0
C65 C 0.80476 0.84133 0.36126 0.0
C66 C 0.83957 0.94179 0.36816 0.0
C67 C 0.86568 0.92127 0.38255 0.0
C68 C 0.84839 0.87151 0.37916 0.0
C69 C 0.77987 0.86192 0.3455 0.0
C70 C 0.79713 0.91161 0.3488 0.0
C71 C 0.78186 0.7882 0.36261 0.0
H72 H 0.93103 0.52734 0.36001 0.0
H73 H 0.9104 0.58972 0.37558 0.0
H74 H 0.87418 0.5337 0.4799 0.0
H75 H 0.89324 0.47077 0.46441 0.0
H76 H 0.89827 0.94321 0.39779 0.0
H77 H 0.86803 0.85629 0.39176 0.0
H78 H 0.7461 0.83929 0.33166 0.0
H79 H 0.77661 0.92624 0.33672 0.0
Dy80 Dy 0.96548 0.25631 0.14597 0.0
Dy81 Dy 0.86002 0.21087 0.10457 0.0
C82 C 0.96255 0.24743 0.06555 0.0
O83 O 0.95898 0.32028 0.12717 0.0
O84 O 0.87564 0.28264 0.12475 0.0
O85 O 0.04336 0.30363 0.14634 0.0
O86 O 1.00845 0.25452 0.18908 0.0
O87 O 0.84537 0.20001 0.16257 0.0
O88 O 0.91667 0.26325 0.18413 0.0
O89 O 0.88071 0.15381 0.10302 0.0
O90 O 0.92374 0.17575 0.15403 0.0
O91 O 0.78903 0.14888 0.09427 0.0
O92 O 0.80936 0.2171 0.07019 0.0
C93 C 0.91833 0.32213 0.12532 0.0
O94 O 0.9742 0.23247 0.09335 0.0
O95 O 0.92133 0.24819 0.06494 0.0
C96 C 0.08279 0.2637 0.16884 0.0
C97 C 0.14652 0.22676 0.15864 0.0
C98 C 0.11042 0.21789 0.13383 0.0
C99 C 0.07872 0.23578 0.13903 0.0
C100 C 0.11812 0.27196 0.19405 0.0
C101 C 0.1496 0.25347 0.18909 0.0
C102 C 0.04949 0.28309 0.17361 0.0
C103 C 0.87071 0.23069 0.18792 0.0
C104 C 0.89754 0.14262 0.13038 0.0
C105 C 0.72577 0.16605 0.08449 0.0
C106 C 0.63176 0.1509 0.10092 0.0
C107 C 0.67151 0.17731 0.12376 0.0
C108 C 0.71789 0.18475 0.11566 0.0
C109 C 0.6863 0.13921 0.06186 0.0
C110 C 0.63989 0.13168 0.06994 0.0
C111 C 0.77436 0.17298 0.07566 0.0
H112 H 0.10644 0.19678 0.11041 0.0
H113 H 0.05097 0.22784 0.11967 0.0
H114 H 0.12153 0.29289 0.21747 0.0
H115 H 0.17705 0.26102 0.20868 0.0
H116 H 0.66679 0.19216 0.14808 0.0
H117 H 0.74762 0.20512 0.13374 0.0
H118 H 0.69142 0.1242 0.03774 0.0
H119 H 0.61064 0.11174 0.05145 0.0
Dy120 Dy 0.39888 0.20307 0.41579 0.0
Dy121 Dy 0.33582 0.09435 0.38144 0.0
C122 C 0.40228 0.1822 0.33353 0.0
O123 O 0.32138 0.18516 0.41591 0.0
O124 O 0.29754 0.13513 0.36807 0.0
O125 O 0.40689 0.27378 0.4241 0.0
O126 O 0.45922 0.25753 0.44639 0.0
O127 O 0.30583 0.09646 0.43309 0.0
O128 O 0.3781 0.14684 0.45829 0.0
O129 O 0.40758 0.10232 0.40009 0.0
O130 O 0.454 0.18497 0.39673 0.0
O131 O 0.30288 1.0173 0.38885 0.0
O132 O 0.28988 0.04464 0.34107 0.0
C133 C 0.29221 0.16506 0.38906 0.0
O134 O 0.40028 0.21147 0.35724 0.0
O135 O 0.38832 0.13692 0.34022 0.0
C136 C 0.48795 0.33758 0.42675 0.0
C137 C 0.56281 0.42736 0.4015 0.0
C138 C 0.55098 0.38361 0.38409 0.0
C139 C 0.51388 0.33922 0.39653 0.0
C140 C 0.49891 0.38102 0.44382 0.0
C141 C 0.53589 0.42543 0.43137 0.0
C142 C 0.44849 0.29112 0.44004 0.0
C143 C 0.33418 0.10877 0.46019 0.0
C144 C 0.45053 0.14242 0.39907 0.0
C145 C 0.22396 0.97465 0.36492 0.0
C146 C 0.12351 0.91128 0.37611 0.0
C147 C 0.15203 0.89535 0.35839 0.0
C148 C 0.20168 0.92667 0.35292 0.0
C149 C 0.19565 0.99124 0.38193 0.0
C150 C 0.14584 0.95988 0.38739 0.0
C151 C 0.27677 1.00679 0.36043 0.0
H152 H 0.57053 0.38364 0.36085 0.0
H153 H 0.50554 0.30615 0.38264 0.0
H154 H 0.47908 0.38059 0.46703 0.0
H155 H 0.54433 0.45814 0.44578 0.0
H156 H 0.13596 0.85844 0.34878 0.0
H157 H 0.22279 0.91325 0.33961 0.0
H158 H 0.21227 1.02827 0.39142 0.0
H159 H 0.12516 0.97331 0.40128 0.0
Dy160 Dy 0.80072 0.72699 0.14209 0.0
Dy161 Dy 0.84213 0.66088 0.10262 0.0
C162 C 0.79294 0.71226 0.06286 0.0
O163 O 0.74099 0.64982 0.15151 0.0
O164 O 0.76362 0.61005 0.11095 0.0
O165 O 0.7624 0.76587 0.13416 0.0
O166 O 0.79398 0.76897 0.18462 0.0
O167 O 0.83546 0.64176 0.15963 0.0
O168 O 0.83938 0.71071 0.18289 0.0
O169 O 0.9057 0.72709 0.12341 0.0
O170 O 0.87574 0.7788 0.12156 0.0
O171 O 0.90336 0.65123 0.09076 0.0
O172 O 0.83298 0.60167 0.06883 0.0
C173 C 0.73261 0.61056 0.13353 0.0
O174 O 0.76618 0.70003 0.09069 0.0
O175 O 0.83157 0.70704 0.0625 0.0
C176 C 0.79381 0.83952 0.16483 0.0
C177 C 0.83128 0.9399 0.15587 0.0
C178 C 0.86271 0.92172 0.1622 0.0
C179 C 0.84415 0.87189 0.16637 0.0
C180 C 0.76245 0.85781 0.15967 0.0
C181 C 0.78091 0.90736 0.15519 0.0
C182 C 0.77333 0.78652 0.16487 0.0
C183 C 0.84258 0.67156 0.18602 0.0
C184 C 0.91264 0.77096 0.12248 0.0
C185 C 0.88485 0.56959 0.0833 0.0
C186 C 0.9009 0.49205 0.10022 0.0
C187 C 0.93952 0.54019 0.10034 0.0
C188 C 0.93161 0.57835 0.09192 0.0
C189 C 0.84631 0.52149 0.08281 0.0
C190 C 0.85422 0.48336 0.09111 0.0
C191 C 0.8773 0.61057 0.07387 0.0
H192 H 0.90168 0.94578 0.16265 0.0
H193 H 0.86914 0.85856 0.16986 0.0
H194 H 0.72354 0.83351 0.15814 0.0
H195 H 0.75568 0.9202 0.15083 0.0
H196 H 0.97587 0.54857 0.1074 0.0
H197 H 0.96225 0.6149 0.0922 0.0
H198 H 0.80993 0.51313 0.07585 0.0
H199 H 0.82362 0.44684 0.08989 0.0
Dy200 Dy 0.86894 0.22307 0.41467 0.0
Dy201 Dy 0.96645 0.24943 0.36695 0.0
C202 C 0.86575 0.21873 0.33108 0.0
O203 O 0.86078 0.15436 0.39266 0.0
O204 O 0.94118 0.17793 0.39234 0.0
O205 O 0.80526 0.17281 0.44441 0.0
O206 O 0.81909 0.24496 0.43431 0.0
O207 O 0.99509 0.27559 0.41989 0.0
O208 O 0.9271 0.23353 0.45429 0.0
O209 O 0.95153 0.31175 0.36287 0.0
O210 O 0.92003 0.30219 0.41787 0.0
O211 O 0.04162 0.29655 0.35263 0.0
O212 O 0.9999 0.22672 0.32738 0.0
C213 C 0.89542 0.14348 0.39179 0.0
O214 O 0.85252 0.23331 0.35917 0.0
O215 O 0.90358 0.21294 0.33105 0.0
C216 C 0.7365 0.18331 0.43622 0.0
C217 C 0.6392 0.1575 0.41961 0.0
C218 C 0.67568 0.17515 0.39381 0.0
C219 C 0.72364 0.1878 0.40199 0.0
C220 C 0.69995 0.16395 0.46172 0.0
C221 C 0.65184 0.15101 0.45352 0.0
C222 C 0.78817 0.20238 0.4462 0.0
C223 C 0.97492 0.26088 0.45047 0.0
C224 C 0.93961 0.329 0.39039 0.0
C225 C 0.08098 0.25155 0.34132 0.0
C226 C 0.14964 0.22267 0.35704 0.0
C227 C 0.12093 0.22664 0.38354 0.0
C228 C 0.08689 0.24074 0.37574 0.0
C229 C 0.10953 0.24785 0.31477 0.0
C230 C 0.14353 0.23355 0.32253 0.0
C231 C 0.04306 0.26366 0.3329 0.0
H232 H 0.66734 0.18005 0.36731 0.0
H233 H 0.75101 0.20244 0.38174 0.0
H234 H 0.70891 0.16029 0.48835 0.0
H235 H 0.62503 0.13799 0.47416 0.0
H236 H 0.12404 0.21788 0.41027 0.0
H237 H 0.06469 0.2426 0.39658 0.0
H238 H 0.10524 0.25562 0.28799 0.0
H239 H 0.16529 0.23138 0.30151 0.0
Dy240 Dy 0.21862 0.38953 0.60319 0.0
Dy241 Dy 0.11271 0.33061 0.6428 0.0
C242 C 0.20582 0.40153 0.68588 0.0
O243 O 0.1974 0.31174 0.60209 0.0
O244 O 0.15455 0.292 0.65292 0.0
O245 O 0.29047 0.3992 0.59601 0.0
O246 O 0.26891 0.44314 0.56713 0.0
O247 O 0.10546 0.29717 0.59079 0.0
O248 O 0.15869 0.36516 0.56237 0.0
O249 O 0.11944 0.40073 0.62296 0.0
O250 O 0.20276 0.44652 0.62087 0.0
O251 O 1.03468 0.29937 0.6399 0.0
O252 O 0.06762 0.28807 0.68557 0.0
C253 C 0.18059 0.28429 0.62962 0.0
O254 O 0.23203 0.39567 0.66156 0.0
O255 O 0.15977 0.38722 0.6811 0.0
C256 C 0.35287 0.47965 0.58393 0.0
C257 C 0.44583 0.56145 0.59855 0.0
C258 C 0.43779 0.51415 0.6017 0.0
C259 C 0.39201 0.47387 0.59441 0.0
C260 C 0.36091 0.52686 0.58046 0.0
C261 C 0.40667 0.5671 0.58762 0.0
C262 C 0.30475 0.43636 0.57574 0.0
C263 C 0.1176 0.32327 0.5628 0.0
C264 C 0.15996 0.44319 0.62099 0.0
C265 C 0.99325 0.22163 0.66475 0.0
C266 C 0.92836 0.12145 0.65316 0.0
C267 C 0.97727 0.13853 0.66191 0.0
C268 C 1.00944 0.18807 0.66742 0.0
C269 C 0.94431 0.20458 0.65659 0.0
C270 C 0.91225 0.15512 0.65078 0.0
C271 C 1.02739 0.27442 0.66825 0.0
H272 H 0.4667 0.50813 0.61028 0.0
H273 H 0.3872 0.43801 0.59702 0.0
H274 H 0.33192 0.53287 0.57205 0.0
H275 H 0.41145 0.60278 0.58409 0.0
H276 H 0.99103 0.11373 0.66359 0.0
H277 H 0.04715 0.20012 0.67319 0.0
H278 H 0.93098 0.22967 0.65421 0.0
H279 H 0.87472 0.1432 0.64447 0.0
Dy280 Dy 0.27093 0.97204 0.86761 0.0
Dy281 Dy 0.24264 0.87173 0.91103 0.0
C282 C 0.28135 0.9754 0.95063 0.0
O283 O 0.33414 0.95797 0.86153 0.0
O284 O 0.32268 0.92056 0.91426 0.0
O285 O 0.3164 0.04909 0.85892 0.0
O286 O 0.25038 1.00759 0.82925 0.0
O287 O 0.25359 0.85754 0.85491 0.0
O288 O 0.23906 0.91296 0.82807 0.0
O289 O 0.1744 0.86411 0.88863 0.0
O290 O 0.19746 0.94391 0.89199 0.0
O291 O 0.191 0.80701 0.93897 0.0
O292 O 0.26323 0.82019 0.92756 0.0
C293 C 0.35034 0.94275 0.88745 0.0
O294 O 0.2988 0.99662 0.92089 0.0
O295 O 0.25165 0.92789 0.95265 0.0
C296 C 0.27025 0.08677 0.84639 0.0
C297 C 0.24157 0.15605 0.8621 0.0
C298 C 0.21957 0.11108 0.87894 0.0
C299 C 0.23388 0.07691 0.87126 0.0
C300 C 0.29205 0.13133 0.82939 0.0
C301 C 0.27796 0.16559 0.83715 0.0
C302 C 0.28522 0.05072 0.83783 0.0
C303 C 0.24234 0.87377 0.82722 0.0
C304 C 0.16313 0.89835 0.88923 0.0
C305 C 0.19967 0.73763 0.9266 0.0
C306 C 0.16739 0.63866 0.90966 0.0
C307 C 0.20417 0.67636 0.89007 0.0
C308 C 0.22005 0.72509 0.89839 0.0
C309 C 0.16163 0.70013 0.94521 0.0
C310 C 0.14559 0.65144 0.93682 0.0
C311 C 0.2199 0.78899 0.9385 0.0
H312 H 0.19185 0.10257 0.89851 0.0
H313 H 0.21658 0.04277 0.8848 0.0
H314 H 0.31998 0.13965 0.81 0.0
H315 H 0.29528 0.19944 0.82327 0.0
H316 H 0.22231 0.66841 0.86922 0.0
H317 H 0.24936 0.75296 0.88333 0.0
H318 H 0.14504 0.7085 0.96696 0.0
H319 H 0.11655 0.62376 0.95217 0.0
Dy320 Dy 0.68501 0.84797 0.60004 0.0
Dy321 Dy 0.74607 0.80436 0.64045 0.0
C322 C 0.67671 0.82942 0.68314 0.0
O323 O 0.76303 0.90525 0.59876 0.0
O324 O 0.7848 0.88499 0.64965 0.0
O325 O 0.67678 0.90988 0.58991 0.0
O326 O 0.62784 0.84096 0.56554 0.0
O327 O 0.77684 0.82703 0.58765 0.0
O328 O 0.70655 0.80839 0.56033 0.0
O329 O 0.67483 0.73961 0.62198 0.0
O330 O 0.62869 0.77651 0.61954 0.0
O331 O 0.77603 0.75682 0.63963 0.0
O332 O 0.79216 0.80701 0.68291 0.0
C333 C 0.79126 0.91752 0.62633 0.0
O334 O 0.68112 0.85935 0.65813 0.0
O335 O 0.69094 0.7976 0.67899 0.0
C336 C 0.59626 0.89238 0.58052 0.0
C337 C 0.51805 0.90763 0.59803 0.0
C338 C 0.5324 0.88254 0.62067 0.0
C339 C 0.57106 0.87503 0.61202 0.0
C340 C 0.5827 0.91799 0.55811 0.0
C341 C 0.54407 0.92558 0.56674 0.0
C342 C 0.63753 0.8853 0.57124 0.0
C343 C 0.74877 0.80982 0.56032 0.0
C344 C 0.63212 0.73728 0.6202 0.0
C345 C 0.85592 0.79588 0.66219 0.0
C346 C 0.95627 0.83059 0.65229 0.0
C347 C 0.92946 0.83997 0.62764 0.0
C348 C 0.87998 0.82313 0.63269 0.0
C349 C 0.88254 0.78693 0.68712 0.0
C350 C 0.93234 0.8043 0.68231 0.0
C351 C 0.80343 0.77759 0.66699 0.0
H352 H 0.51378 0.86872 0.64519 0.0
H353 H 0.58127 0.85564 0.62991 0.0
H354 H 0.60186 0.93195 0.53376 0.0
H355 H 0.53383 0.94447 0.54844 0.0
H356 H 0.94688 0.86072 0.60454 0.0
H357 H 0.86043 0.83137 0.61349 0.0
H358 H 0.86479 0.76635 0.71022 0.0
H359 H 0.95189 0.7963 0.7017 0.0
Dy360 Dy 0.11448 0.33877 0.87111 0.0
Dy361 Dy 0.21765 0.41042 0.9135 0.0
C362 C 0.11491 0.34721 0.95449 0.0
O363 O 0.12944 0.41636 0.86705 0.0
O364 O 0.16938 0.4416 0.91944 0.0
O365 O 1.03691 0.3084 0.86363 0.0
O366 O 0.07606 0.28306 0.83193 0.0
O367 O 0.22945 0.43412 0.85735 0.0
O368 O 0.17159 0.36382 0.83082 0.0
O369 O 0.22291 0.34891 0.88996 0.0
O370 O 0.14264 0.29268 0.89356 0.0
O371 O 0.28366 0.4238 0.94049 0.0
O372 O 0.27122 0.48289 0.92935 0.0
C373 C 0.1461 0.44759 0.89363 0.0
O374 O 0.09215 0.34159 0.92501 0.0
O375 O 0.1628 0.3655 0.95599 0.0
C376 C 0.99719 0.22472 0.84972 0.0
C377 C 0.92786 0.12714 0.8645 0.0
C378 C 0.97367 0.15019 0.88097 0.0
C379 C 1.00788 0.19847 0.87375 0.0
C380 C 0.95167 0.20202 0.83324 0.0
C381 C 0.91735 0.15381 0.84055 0.0
C382 C 1.03349 0.27541 0.84155 0.0
C383 C 0.21137 0.40584 0.82966 0.0
C384 C 0.18819 0.30354 0.89037 0.0
C385 C 0.35369 0.50106 0.9276 0.0
C386 C 0.45264 0.56726 0.91019 0.0
C387 C 0.41417 0.56511 0.89059 0.0
C388 C 0.36547 0.53252 0.89914 0.0
C389 C 0.39191 0.50163 0.94622 0.0
C390 C 0.44058 0.53403 0.93759 0.0
C391 C 0.30248 0.47073 0.93993 0.0
H392 H 0.98291 0.13111 0.89982 0.0
H393 H 1.04275 0.21533 0.88691 0.0
H394 H 0.94272 0.22151 0.81454 0.0
H395 H 0.88278 0.13718 0.82701 0.0
H396 H 0.42151 0.59012 0.86955 0.0
H397 H 0.33703 0.53309 0.88408 0.0
H398 H 0.38415 0.47785 0.96817 0.0
H399 H 0.46883 0.5336 0.95296 0.0
Dy400 Dy 0.22945 0.85621 0.60032 0.0
Dy401 Dy 0.27349 0.96215 0.64023 0.0
C402 C 0.25078 0.87069 0.68345 0.0
O403 O 0.17056 0.87476 0.60021 0.0
O404 O 0.19318 0.91877 0.65103 0.0
O405 O 0.16774 0.78471 0.59123 0.0
O406 O 0.2359 0.80558 0.56544 0.0
O407 O 0.24505 0.96554 0.58854 0.0
O408 O 0.26594 0.91606 0.56017 0.0
O409 O 0.33831 0.95624 0.62096 0.0
O410 O 0.30196 0.87337 0.61959 0.0
O411 O 0.32004 0.03966 0.638 0.0
O412 O 0.27227 1.00773 0.68226 0.0
C413 C 0.1595 0.89171 0.62801 0.0
O414 O 0.22015 0.84376 0.65858 0.0
O415 O 0.28247 0.91655 0.67899 0.0
C416 C 0.18645 0.72202 0.58128 0.0
C417 C 0.17325 0.62917 0.59687 0.0
C418 C 0.21902 0.66759 0.58682 0.0
C419 C 0.22553 0.71328 0.57918 0.0
C420 C 0.14058 0.68359 0.59086 0.0
C421 C 0.13407 0.63788 0.59862 0.0
C422 C 0.19238 0.77009 0.57249 0.0
C423 C 0.26097 0.95466 0.56051 0.0
C424 C 0.34113 0.91625 0.61959 0.0
C425 C 0.28084 0.08062 0.66065 0.0
C426 C 0.24331 0.14375 0.65155 0.0
C427 C 0.23952 0.11142 0.62472 0.0
C428 C 0.25789 0.08016 0.62925 0.0
C429 C 0.28416 0.11228 0.6877 0.0
C430 C 0.26552 0.14347 0.68324 0.0
C431 C 0.30022 0.04747 0.66544 0.0
H432 H 0.24996 0.6623 0.58435 0.0
H433 H 0.26125 0.74166 0.57146 0.0
H434 H 0.10954 0.68889 0.59239 0.0
H435 H 0.0984 0.60958 0.60647 0.0
H436 H 0.22202 0.11002 0.60019 0.0
H437 H 0.25418 0.05563 0.60811 0.0
H438 H 0.30137 0.11303 0.71223 0.0
H439 H 0.26942 0.1681 0.70436 0.0
Dy440 Dy 0.75008 0.81718 0.86697 0.0
Dy441 Dy 0.67572 0.84446 0.91038 0.0
C442 C 0.7489 0.81616 0.95127 0.0
O443 O 0.67293 0.75187 0.86536 0.0
O444 O 0.65118 0.76714 0.91876 0.0
O445 O 0.77845 0.76934 0.85581 0.0
O446 O 0.80613 0.8364 0.82796 0.0
O447 O 0.65133 0.82859 0.85412 0.0
O448 O 0.72476 0.85117 0.82891 0.0
O449 O 0.7369 0.91348 0.88987 0.0
O450 O 0.79543 0.89201 0.8896 0.0
O451 O 0.659 0.89261 0.94051 0.0
O452 O 0.60129 0.82305 0.92207 0.0
C453 C 0.64399 0.73705 0.89295 0.0
O454 O 0.7621 0.8059 0.92149 0.0
O455 O 0.71909 0.83405 0.95355 0.0
C456 C 0.86391 0.81395 0.8444 0.0
C457 C 0.96181 0.84299 0.86134 0.0
C458 C 0.92324 0.80941 0.88207 0.0
C459 C 0.87496 0.79522 0.87381 0.0
C460 C 0.90241 0.84711 0.82349 0.0
C461 C 0.95072 0.86165 0.83194 0.0
C462 C 0.81301 0.80073 0.83589 0.0
C463 C 0.6805 0.84347 0.82704 0.0
C464 C 0.78285 0.92544 0.88892 0.0
C465 C 0.58204 0.88557 0.92695 0.0
C466 C 0.51609 0.91766 0.90836 0.0
C467 C 0.54341 0.90971 0.88264 0.0
C468 C 0.57593 0.89381 0.89182 0.0
C469 C 0.55567 0.89423 0.95262 0.0
C470 C 0.52317 0.9099 0.94354 0.0
C471 C 0.61208 0.86401 0.93725 0.0
H472 H 0.93044 0.79461 0.90505 0.0
H473 H 0.84638 0.76986 0.8907 0.0
H474 H 0.89514 0.86211 0.80063 0.0
H475 H 0.97941 0.88705 0.81513 0.0
H476 H 0.53957 0.91555 0.85534 0.0
H477 H 0.59564 0.88709 0.87144 0.0
H478 H 0.55918 0.88756 0.97983 0.0
H479 H 0.50236 0.91431 0.96423 0.0
C480 C 0.2029 0.21483 0.11894 0.0
C481 C 0.18147 0.20924 0.15202 0.0
H482 H 0.25228 0.20468 0.08671 0.0
C483 C 0.19375 0.18692 0.17836 0.0
H484 H 0.19467 0.23228 0.09816 0.0
C485 C 0.22664 0.17058 0.17169 0.0
C486 C 0.24852 0.17684 0.13867 0.0
H487 H 0.17761 0.18174 0.20405 0.0
H488 H 0.23556 0.15382 0.19258 0.0
C489 C 0.23611 0.1991 0.11241 0.0
C490 C 0.05766 0.82938 0.39436 0.0
C491 C 0.07134 0.87642 0.38385 0.0
H492 H 1.00019 0.75904 0.40703 0.0
C493 C 1.03484 0.88889 0.3803 0.0
H494 H 0.0847 0.81878 0.39837 0.0
C495 C 0.9856 0.85425 0.38561 0.0
C496 C 0.97212 0.8066 0.39457 0.0
H497 H 0.04413 0.92488 0.37228 0.0
H498 H 0.95815 0.86427 0.3815 0.0
C499 C 1.00896 0.7951 0.39956 0.0
C500 C 0.90334 0.07766 0.16322 0.0
C501 C 0.88334 0.09114 0.13584 0.0
H502 H 0.90284 1.0194 0.19098 0.0
C503 C 0.84756 0.05452 0.11451 0.0
H504 H 0.93098 0.10488 0.18016 0.0
C505 C 0.83126 1.00576 0.1209 0.0
C506 C 0.85052 0.99215 0.14861 0.0
H507 H 0.83126 0.06336 0.09318 0.0
H508 H 0.8034 0.97858 0.10405 0.0
C509 C 0.88734 0.0287 0.16939 0.0
C510 C 0.24809 0.20993 0.40384 0.0
C511 C 0.25442 0.1782 0.38148 0.0
H512 H 0.21087 0.24921 0.41355 0.0
C513 C 0.22559 0.16079 0.35113 0.0
H514 H 0.26973 0.2243 0.42736 0.0
C515 C 0.19173 0.17516 0.34319 0.0
C516 C 0.18562 0.20715 0.36545 0.0
H517 H 0.22944 0.13633 0.33327 0.0
H518 H 0.16999 0.16082 0.31971 0.0
C519 C 0.21413 0.22413 0.39597 0.0
C520 C 0.04934 0.83605 0.1164 0.0
C521 C 0.06344 0.88043 0.13333 0.0
H522 H 0.99119 0.76769 0.09929 0.0
C523 C 1.02694 0.8904 0.1444 0.0
H524 H 0.07616 0.82672 0.10787 0.0
C525 C 0.97749 0.85611 0.13933 0.0
C526 C 0.96381 0.81106 0.12357 0.0
H527 H 1.03659 0.92447 0.15725 0.0
H528 H 0.95014 0.86404 0.14898 0.0
C529 C 1.00039 0.80196 0.11165 0.0
C530 C 0.81957 1.00704 0.38186 0.0
C531 C 0.85475 0.99368 0.37488 0.0
H532 H 0.80469 0.06404 0.39297 0.0
C533 C 0.90403 0.03012 0.37492 0.0
H534 H 0.78138 0.97999 0.3829 0.0
C535 C 0.91758 0.07872 0.38111 0.0
C536 C 0.88215 0.09195 0.38746 0.0
H537 H 0.93212 1.02125 0.3695 0.0
H538 H 0.95573 0.10594 0.38033 0.0
C539 C 0.83304 0.05538 0.388 0.0
C540 C 0.20072 0.18856 0.67237 0.0
C541 C 0.22546 0.17847 0.64593 0.0
H542 H 0.16642 0.22916 0.68791 0.0
C543 C 0.23366 0.20235 0.61391 0.0
H544 H 0.19333 0.17049 0.69723 0.0
C545 C 0.21826 0.2358 0.60857 0.0
C546 C 0.19394 0.24631 0.63503 0.0
H547 H 0.25308 0.19603 0.5931 0.0
H548 H 0.22598 0.25386 0.58368 0.0
C549 C 0.18494 0.22192 0.66692 0.0
C550 C 0.09896 0.92006 0.87524 0.0
C551 C 0.11146 0.88514 0.8843 0.0
H552 H 1.04218 0.93425 0.86081 0.0
C553 C 0.07413 0.8366 0.88672 0.0
H554 H 0.12673 0.95773 0.87298 0.0
C555 C 1.02573 0.8232 0.87987 0.0
C556 C 1.01329 0.85786 0.87001 0.0
H557 H 0.08232 0.80868 0.89359 0.0
H558 H 0.99815 0.78538 0.88143 0.0
C559 C 0.05052 0.90653 0.86797 0.0
C560 C 0.82955 1.00522 0.61068 0.0
C561 C 0.82827 0.96936 0.63231 0.0
H562 H 0.86189 0.08082 0.60019 0.0
C563 C 0.86109 0.98391 0.6605 0.0
H564 H 0.80486 0.99552 0.58874 0.0
C565 C 0.89395 1.0331 0.66706 0.0
C566 C 0.89445 0.06895 0.64581 0.0
H567 H 0.86111 0.95735 0.67775 0.0
H568 H 0.91825 0.04312 0.68926 0.0
C569 C 0.86203 0.05429 0.61741 0.0
C570 C 0.16544 0.21566 0.88299 0.0
C571 C 0.20114 0.26496 0.88498 0.0
H572 H 0.14993 0.14272 0.87405 0.0
C573 C 0.25005 0.27769 0.88033 0.0
H574 H 0.12742 0.20444 0.8863 0.0
C575 C 0.26291 0.24245 0.87328 0.0
C576 C 0.22734 0.19322 0.8707 0.0
H577 H 0.27872 0.31517 0.88177 0.0
H578 H 0.30098 0.2539 0.86998 0.0
C579 C 0.1784 0.18022 0.87605 0.0
C580 C 0.09234 0.88464 0.66709 0.0
C581 C 0.10799 0.87804 0.63409 0.0
H582 H 1.0322 0.87463 0.69882 0.0
C583 C 0.07345 0.85632 0.60717 0.0
H584 H 0.11791 0.90103 0.68847 0.0
C585 C 1.02452 0.84144 0.61307 0.0
C586 C 1.00867 0.84737 0.64615 0.0
H587 H 0.08413 0.85058 0.58145 0.0
H588 H 0.99885 0.82438 0.59182 0.0
C589 C 0.04317 0.86918 0.67311 0.0
C590 C 0.905 0.04038 0.87589 0.0
C591 C 0.89114 0.07563 0.87217 0.0
H592 H 0.8821 0.96562 0.884 0.0
C593 C 0.84163 0.06112 0.87541 0.0
H594 H 0.94271 0.05006 0.87327 0.0
C595 C 0.80691 1.01276 0.88159 0.0
C596 C 0.82058 0.97731 0.88463 0.0
H597 H 0.8296 0.08726 0.87329 0.0
H598 H 0.76916 1.00314 0.88356 0.0
C599 C 0.87017 0.99184 0.88195 0.0
C600 C 0.43997 0.17853 0.27798 0.0
C601 C 0.41575 0.19766 0.29723 0.0
H602 H 0.45484 0.16007 0.22743 0.0
C603 C 0.39607 0.22235 0.27974 0.0
H604 H 0.45585 0.15977 0.29096 0.0
C605 C 0.39539 0.22244 0.24308 0.0
C606 C 0.4145 0.19794 0.22398 0.0
H607 H 0.37697 0.23714 0.29415 0.0
H608 H 0.37565 0.23715 0.22994 0.0
C609 C 0.43946 0.17878 0.24167 0.0
C610 C 0.82128 0.62088 0.2762 0.0
C611 C 0.85608 0.66212 0.29457 0.0
H612 H 0.79004 0.59108 0.2258 0.0
C613 C 0.89285 0.70068 0.276 0.0
H614 H 0.79215 0.59108 0.29009 0.0
C615 C 0.89169 0.70065 0.23966 0.0
C616 C 0.85371 0.66208 0.22126 0.0
H617 H 0.91989 0.73291 0.28967 0.0
H618 H 0.91786 0.73287 0.22609 0.0
C619 C 0.82009 0.62086 0.23951 0.0
C620 C 0.86285 0.26561 0.24425 0.0
C621 C 0.85082 0.22451 0.22345 0.0
H622 H 0.87408 0.29514 0.29622 0.0
C623 C 0.83038 0.17912 0.23921 0.0
H624 H 0.87885 0.30101 0.23256 0.0
C625 C 0.82848 0.17595 0.27566 0.0
C626 C 0.84565 0.2179 0.29654 0.0
H627 H 0.82139 0.14705 0.22372 0.0
H628 H 0.81848 0.14158 0.28747 0.0
C629 C 0.85968 0.26221 0.28063 0.0
C630 C 0.24717 0.39577 0.73906 0.0
C631 C 0.22517 0.41797 0.72138 0.0
H632 H 0.2607 0.37521 0.78901 0.0
C633 C 0.21143 0.44723 0.74027 0.0
H634 H 0.25746 0.37256 0.72506 0.0
C635 C 0.21459 0.44985 0.7767 0.0
C636 C 0.23066 0.42252 0.79462 0.0
H637 H 0.19422 0.46455 0.7271 0.0
H638 H 0.199 0.4684 0.79088 0.0
C639 C 0.24928 0.3975 0.7756 0.0
C640 C 0.28418 0.86494 0.77582 0.0
C641 C 0.24037 0.85316 0.79245 0.0
H642 H 0.32175 0.87955 0.72695 0.0
C643 C 0.19785 0.83597 0.77244 0.0
H644 H 0.31752 0.87929 0.79079 0.0
C645 C 0.20001 0.83512 0.73596 0.0
C646 C 0.24502 0.85289 0.7193 0.0
H647 H 0.16391 0.8277 0.78486 0.0
H648 H 0.16767 0.82611 0.72099 0.0
C649 C 0.28661 0.86533 0.73938 0.0
C650 C 0.6863 0.88101 0.73503 0.0
C651 C 0.66247 0.83537 0.71864 0.0
H652 H 0.7103 0.91941 0.7839 0.0
C653 C 0.63395 0.79418 0.73877 0.0
H654 H 0.70896 0.91315 0.72006 0.0
C655 C 0.63352 0.79796 0.77517 0.0
C656 C 0.66253 0.84281 0.79176 0.0
H657 H 0.61543 0.75859 0.72657 0.0
H658 H 0.61532 0.76519 0.79031 0.0
C659 C 0.68691 0.88461 0.7715 0.0
C660 C 0.34174 0.05238 0.98051 0.0
C661 C 0.29658 1.00882 0.98148 0.0
H662 H 0.3896 0.1215 1.00431 0.0
C663 C 0.2559 0.9844 0.00897 0.0
H664 H 0.36717 0.05876 0.95953 0.0
C665 C 0.26858 1.02109 0.03434 0.0
C666 C 0.31349 0.06504 0.033 0.0
H667 H 0.22063 0.95189 0.01018 0.0
H668 H 0.24284 1.01499 0.05498 0.0
C669 C 0.35456 0.08878 1.00595 0.0
C670 C 0.81872 0.75979 0.51033 0.0
C671 C 0.78466 0.72972 0.48516 0.0
H672 H 0.83472 0.80972 0.55292 0.0
C673 C 0.7391 0.72735 0.48437 0.0
H674 H 0.8543 0.76316 0.51138 0.0
C675 C 0.72793 0.75438 0.50785 0.0
C676 C 0.76194 0.78462 0.53295 0.0
H677 H 0.71183 0.70469 0.46526 0.0
H678 H 0.69234 0.751 0.50661 0.0
C679 C 0.8075 0.78692 0.53388 0.0
C680 C 0.07984 0.28923 0.01341 0.0
C681 C 0.08252 0.33142 0.98569 0.0
H682 H 0.04921 0.24798 0.05966 0.0
C683 C 1.03953 0.3342 0.98465 0.0
H684 H 0.11185 0.28556 0.01472 0.0
C685 C 0.99431 0.29441 0.00992 0.0
C686 C 0.99979 0.26888 0.03726 0.0
H687 H 1.03335 0.35276 0.96357 0.0
H688 H 0.96201 0.2975 0.00804 0.0
C689 C 0.04336 0.26707 0.03887 0.0
C690 C 0.34621 0.05137 0.49754 0.0
C691 C 0.31854 0.07287 0.48848 0.0
H692 H 0.34879 0.99518 0.52639 0.0
C693 C 0.27106 0.05284 0.50142 0.0
H694 H 0.38238 0.06514 0.487 0.0
C695 C 0.25195 1.01309 0.52359 0.0
C696 C 0.27911 0.99105 0.53241 0.0
H697 H 0.24848 0.06785 0.49413 0.0
H698 H 0.21575 0.99954 0.53401 0.0
C699 C 0.32652 1.01055 0.51918 0.0
C700 C 0.74057 0.74343 0.03832 0.0
C701 C 0.78124 0.73683 0.03478 0.0
H702 H 0.6961 0.76902 0.01538 0.0
C703 C 0.81971 0.77354 1.00541 0.0
H704 H 0.71711 0.72991 0.0609 0.0
C705 C 0.80782 0.79662 0.9796 0.0
C706 C 0.76609 0.80153 0.98247 0.0
H707 H 0.8516 0.76997 1.00203 0.0
H708 H 0.83071 0.80939 0.95667 0.0
C709 C 0.72872 0.76662 0.01251 0.0
C710 C 1.03392 0.26694 0.53837 0.0
C711 C 0.08121 0.30705 0.53391 0.0
H712 H 0.96287 0.2212 0.51612 0.0
C713 C 0.09183 0.33251 0.50265 0.0
H714 H 1.02405 0.24666 0.56236 0.0
C715 C 0.05663 0.31786 0.47634 0.0
C716 C 1.00952 0.27747 0.48052 0.0
H717 H 0.12738 0.36375 0.49841 0.0
H718 H 0.06662 0.3384 0.45246 0.0
C719 C 0.99844 0.25248 0.51206 0.0
C720 C 0.5799 0.18471 0.12312 0.0
C721 C 0.5829 0.1457 0.1085 0.0
H722 H 0.53474 0.21324 0.13905 0.0
C723 C 0.53901 0.10291 0.10019 0.0
H724 H 0.6125 0.21847 0.1295 0.0
C725 C 0.49364 0.09981 0.10571 0.0
C726 C 0.49111 0.13962 0.11933 0.0
H727 H 0.53969 0.07184 0.08921 0.0
H728 H 0.46076 0.06689 0.09831 0.0
C729 C 0.53494 0.18175 0.12838 0.0
C730 C 0.69117 0.52049 0.37526 0.0
C731 C 0.691 0.56424 0.37895 0.0
H732 H 0.65141 0.44355 0.37943 0.0
C733 C 0.64689 0.56259 0.38616 0.0
H734 H 0.72481 0.52072 0.37003 0.0
C735 C 0.60449 0.51799 0.39199 0.0
C736 C 0.60539 0.47427 0.39035 0.0
H737 H 0.64589 0.59578 0.38971 0.0
H738 H 0.5714 0.51787 0.39896 0.0
C739 C 0.64898 0.47615 0.38068 0.0
C740 C 0.95594 0.40931 0.10625 0.0
C741 C 0.91857 0.36877 0.123 0.0
H742 H 0.97948 0.47962 0.08518 0.0
C743 C 0.87752 0.37084 0.13441 0.0
H744 H 0.98782 0.40873 0.09688 0.0
C745 C 0.87279 0.41123 0.128 0.0
C746 C 0.90872 0.45092 0.10958 0.0
H747 H 0.84823 0.34053 0.14779 0.0
H748 H 0.84042 0.41098 0.13719 0.0
C749 C 0.951 0.4499 0.09951 0.0
C750 C 0.50108 0.10634 0.42003 0.0
C751 C 0.49698 0.1416 0.40116 0.0
H752 H 0.54909 0.08362 0.44093 0.0
C753 C 0.53941 0.17995 0.38679 0.0
H754 H 0.46923 0.07657 0.43169 0.0
C755 C 0.58481 0.18392 0.39188 0.0
C756 C 0.58956 0.14992 0.41187 0.0
H757 H 0.53774 0.20781 0.37207 0.0
H758 H 0.61655 0.21491 0.38122 0.0
C759 C 0.54694 0.11069 0.42558 0.0
C760 C 0.64657 0.476 0.13187 0.0
C761 C 0.60116 0.47267 0.12745 0.0
H762 H 0.72329 0.52223 0.13788 0.0
C763 C 0.59873 0.51556 0.12998 0.0
H764 H 0.65018 0.44411 0.12978 0.0
C765 C 0.64108 0.56078 0.13503 0.0
C766 C 0.68662 0.56391 0.13719 0.0
H767 H 0.56428 0.5143 0.12708 0.0
H768 H 0.63852 0.59333 0.13502 0.0
C769 C 0.68862 0.52092 0.13648 0.0
C770 C 0.95134 0.44363 0.4281 0.0
C771 C 0.92855 0.45678 0.40259 0.0
H772 H 0.97348 0.39351 0.44372 0.0
C773 C 0.91693 0.43184 0.37016 0.0
H774 H 0.96224 0.46272 0.45296 0.0
C775 C 0.92469 0.39254 0.36453 0.0
C776 C 0.94401 0.37745 0.39126 0.0
H777 H 0.89932 0.44084 0.34987 0.0
H778 H 0.91236 0.37192 0.34033 0.0
C779 C 0.95852 0.40434 0.42263 0.0
C780 C 0.12446 0.53695 0.59646 0.0
C781 C 0.16696 0.58063 0.6056 0.0
H782 H 0.08835 0.45906 0.59438 0.0
C783 C 0.20445 0.57767 0.62262 0.0
H784 H 0.0948 0.53757 0.5832 0.0
C785 C 0.2008 0.53294 0.6287 0.0
C786 C 0.15935 0.48942 0.61834 0.0
H787 H 0.2371 0.61009 0.63108 0.0
H788 H 0.23114 0.53258 0.64114 0.0
C789 C 0.12064 0.49183 0.60287 0.0
C790 C 0.42941 0.96756 0.91649 0.0
C791 C 0.39913 0.94718 0.88719 0.0
H792 H 0.49083 0.97647 0.94532 0.0
C793 C 0.41068 0.92138 0.86266 0.0
H794 H 0.42105 0.98711 0.93608 0.0
C795 C 0.44999 0.91366 0.86852 0.0
C796 C 0.47882 0.93176 0.89901 0.0
H797 H 0.38719 0.9041 0.84032 0.0
H798 H 0.4558 0.89098 0.85016 0.0
C799 C 0.469 0.9606 0.92208 0.0
C800 C 0.58352 0.64823 0.60389 0.0
C801 C 0.58582 0.69012 0.61814 0.0
H802 H 0.53776 0.57512 0.58575 0.0
C803 C 0.54215 0.68814 0.62789 0.0
H804 H 0.61642 0.64863 0.59588 0.0
C805 C 0.49732 0.64621 0.62242 0.0
C806 C 0.49447 0.60484 0.60665 0.0
H807 H 0.54246 0.71948 0.6394 0.0
H808 H 0.46475 0.64648 0.63039 0.0
C809 C 0.53832 0.60609 0.59809 0.0
C810 C 0.14547 0.55663 0.93281 0.0
C811 C 0.15488 0.58684 0.90396 0.0
H812 H 0.13425 0.48922 0.95185 0.0
C813 C 0.15534 0.56783 0.87044 0.0
H814 H 0.14542 0.56959 0.95908 0.0
C815 C 0.1487 0.52087 0.86627 0.0
C816 C 0.14191 0.49208 0.89554 0.0
H817 H 0.16193 0.58962 0.84747 0.0
H818 H 0.15162 0.50828 0.84045 0.0
C819 C 0.13922 0.51026 0.92866 0.0
C820 C 0.39069 0.87596 0.626 0.0
C821 C 0.3886 0.91757 0.61733 0.0
H822 H 0.43207 0.84008 0.62653 0.0
C823 C 0.43063 0.95745 0.604 0.0
H824 H 0.35917 0.8445 0.63645 0.0
C825 C 0.47306 0.95484 0.59826 0.0
C826 C 0.47449 0.9125 0.60608 0.0
H827 H 0.43025 0.98994 0.5969 0.0
H828 H 0.50461 0.98584 0.58743 0.0
C829 C 0.43284 0.87348 0.62053 0.0
C830 C 0.5823 0.66874 0.92844 0.0
C831 C 0.59945 0.68827 0.8952 0.0
H832 H 0.52375 0.61674 0.95922 0.0
C833 C 0.56952 0.66488 0.86611 0.0
H834 H 0.60419 0.68589 0.9515 0.0
C835 C 0.52253 0.62458 0.87057 0.0
C836 C 0.50453 0.60649 0.9042 0.0
H837 H 0.58126 0.6793 0.8402 0.0
H838 H 0.4999 0.60832 0.84772 0.0
C839 C 0.53588 0.62865 0.93287 0.0
loop_
_geom_bond_atom_site_label_1
_geom_bond_atom_site_label_2
_geom_bond_distance
_geom_bond_site_symmetry_2
_ccdc_geom_bond_type
Dy0 O3 2.307 . S
Dy0 O5 2.395 . S
Dy0 O6 2.379 . S
Dy0 O8 2.339 . S
Dy0 O10 2.298 . S
Dy0 O14 2.275 . S
Dy0 C22 2.738 1_545 S
Dy1 O4 2.298 . S
Dy1 O7 2.275 . S
Dy1 O9 2.307 . S
Dy1 O11 2.395 . S
Dy1 O12 2.379 . S
Dy1 O15 2.339 . S
Dy1 C31 2.738 . S
C2 O14 1.254 . S
C2 O15 1.257 . S
O3 Dy0 2.307 . S
O3 C13 1.266 . S
O4 Dy1 2.298 . S
O4 C13 1.236 . S
O5 Dy0 2.395 . S
O5 C22 1.255 1_545 S
O6 Dy0 2.379 . S
O6 C22 1.249 1_545 S
O7 Dy1 2.275 . S
O7 C23 1.254 . S
O8 Dy0 2.339 . S
O8 C23 1.257 . S
O9 Dy1 2.307 . S
O9 C24 1.266 . S
O10 Dy0 2.298 . S
O10 C24 1.236 . S
O11 Dy1 2.395 . S
O11 C31 1.255 . S
O12 Dy1 2.379 . S
O12 C31 1.249 . S
C13 O3 1.266 . S
C13 O4 1.236 . S
O14 Dy0 2.275 . S
O14 C2 1.254 . S
O15 Dy1 2.339 . S
O15 C2 1.257 . S
C16 C19 1.344 . S
C16 C20 1.328 . S
C16 C22 1.516 . S
C17 C18 1.304 . S
C17 C21 1.323 . S
C18 C17 1.304 . S
C18 C19 1.371 . S
C18 H32 0.930 . S
C19 C16 1.344 . S
C19 C18 1.371 . S
C19 H33 0.931 . S
C20 C16 1.328 . S
C20 C21 1.433 . S
C20 H34 0.931 . S
C21 C17 1.323 . S
C21 C20 1.433 . S
C21 H35 0.933 . S
C22 Dy0 2.738 1_565 S
C22 O5 1.255 1_565 S
C22 O6 1.249 1_565 S
C22 C16 1.516 . S
C23 O7 1.254 . S
C23 O8 1.257 . S
C24 O9 1.266 . S
C24 O10 1.236 . S
C25 C28 1.344 . S
C25 C29 1.328 . S
C25 C31 1.516 . S
C26 C27 1.304 . S
C26 C30 1.323 . S
C27 C26 1.304 . S
C27 C28 1.371 . S
C27 H36 0.930 . S
C28 C25 1.344 . S
C28 C27 1.371 . S
C28 H37 0.931 . S
C29 C25 1.328 . S
C29 C30 1.433 . S
C29 H38 0.931 . S
C30 C26 1.323 . S
C30 C29 1.433 . S
C30 H39 0.933 . S
C31 Dy1 2.738 . S
C31 O11 1.255 . S
C31 O12 1.249 . S
C31 C25 1.516 . S
H32 C18 0.930 . S
H33 C19 0.931 . S
H34 C20 0.931 . S
H35 C21 0.933 . S
H36 C27 0.930 . S
H37 C28 0.931 . S
H38 C29 0.931 . S
H39 C30 0.933 . S
Dy40 O43 2.307 . S
Dy40 O45 2.395 . S
Dy40 O46 2.379 . S
Dy40 O48 2.339 . S
Dy40 O50 2.298 . S
Dy40 O54 2.275 . S
Dy40 C62 2.738 . S
Dy41 O44 2.298 . S
Dy41 O47 2.275 . S
Dy41 O49 2.307 . S
Dy41 O51 2.395 . S
Dy41 O52 2.379 . S
Dy41 O55 2.339 . S
Dy41 C71 2.738 . S
C42 O54 1.254 . S
C42 O55 1.257 . S
O43 Dy40 2.307 . S
O43 C53 1.266 . S
O44 Dy41 2.298 . S
O44 C53 1.236 . S
O45 Dy40 2.395 . S
O45 C62 1.255 . S
O46 Dy40 2.379 . S
O46 C62 1.249 . S
O47 Dy41 2.275 . S
O47 C63 1.254 . S
O48 Dy40 2.339 . S
O48 C63 1.257 . S
O49 Dy41 2.307 . S
O49 C64 1.266 . S
O50 Dy40 2.298 . S
O50 C64 1.236 . S
O51 Dy41 2.395 . S
O51 C71 1.255 . S
O52 Dy41 2.379 . S
O52 C71 1.249 . S
C53 O43 1.266 . S
C53 O44 1.236 . S
O54 Dy40 2.275 . S
O54 C42 1.254 . S
O55 Dy41 2.339 . S
O55 C42 1.257 . S
C56 C59 1.344 . S
C56 C60 1.328 . S
C56 C62 1.516 . S
C57 C58 1.304 . S
C57 C61 1.323 . S
C58 C57 1.304 . S
C58 C59 1.371 . S
C58 H72 0.930 . S
C59 C56 1.344 . S
C59 C58 1.371 . S
C59 H73 0.931 . S
C60 C56 1.328 . S
C60 C61 1.433 . S
C60 H74 0.931 . S
C61 C57 1.323 . S
C61 C60 1.433 . S
C61 H75 0.933 . S
C62 Dy40 2.738 . S
C62 O45 1.255 . S
C62 O46 1.249 . S
C62 C56 1.516 . S
C63 O47 1.254 . S
C63 O48 1.257 . S
C64 O49 1.266 . S
C64 O50 1.236 . S
C65 C68 1.344 . S
C65 C69 1.328 . S
C65 C71 1.516 . S
C66 C67 1.304 . S
C66 C70 1.323 . S
C67 C66 1.304 . S
C67 C68 1.371 . S
C67 H76 0.930 . S
C68 C65 1.344 . S
C68 C67 1.371 . S
C68 H77 0.931 . S
C69 C65 1.328 . S
C69 C70 1.433 . S
C69 H78 0.931 . S
C70 C66 1.323 . S
C70 C69 1.433 . S
C70 H79 0.933 . S
C71 Dy41 2.738 . S
C71 O51 1.255 . S
C71 O52 1.249 . S
C71 C65 1.516 . S
H72 C58 0.930 . S
H73 C59 0.931 . S
H74 C60 0.931 . S
H75 C61 0.933 . S
H76 C67 0.930 . S
H77 C68 0.931 . S
H78 C69 0.931 . S
H79 C70 0.933 . S
Dy80 O83 2.307 . S
Dy80 O85 2.395 . S
Dy80 O86 2.379 . S
Dy80 O88 2.339 . S
Dy80 O90 2.298 . S
Dy80 O94 2.275 . S
Dy80 C102 2.738 1_655 S
Dy81 O84 2.298 . S
Dy81 O87 2.275 . S
Dy81 O89 2.307 . S
Dy81 O91 2.395 . S
Dy81 O92 2.379 . S
Dy81 O95 2.339 . S
Dy81 C111 2.738 . S
C82 O94 1.254 . S
C82 O95 1.257 . S
O83 Dy80 2.307 . S
O83 C93 1.266 . S
O84 Dy81 2.298 . S
O84 C93 1.236 . S
O85 Dy80 2.395 . S
O85 C102 1.255 1_655 S
O86 Dy80 2.379 . S
O86 C102 1.249 1_655 S
O87 Dy81 2.275 . S
O87 C103 1.254 . S
O88 Dy80 2.339 . S
O88 C103 1.257 . S
O89 Dy81 2.307 . S
O89 C104 1.266 . S
O90 Dy80 2.298 . S
O90 C104 1.236 . S
O91 Dy81 2.395 . S
O91 C111 1.255 . S
O92 Dy81 2.379 . S
O92 C111 1.249 . S
C93 O83 1.266 . S
C93 O84 1.236 . S
O94 Dy80 2.275 . S
O94 C82 1.254 . S
O95 Dy81 2.339 . S
O95 C82 1.257 . S
C96 C99 1.344 . S
C96 C100 1.328 . S
C96 C102 1.516 . S
C97 C98 1.304 . S
C97 C101 1.323 . S
C98 C97 1.304 . S
C98 C99 1.371 . S
C98 H112 0.930 . S
C99 C96 1.344 . S
C99 C98 1.371 . S
C99 H113 0.931 . S
C100 C96 1.328 . S
C100 C101 1.433 . S
C100 H114 0.931 . S
C101 C97 1.323 . S
C101 C100 1.433 . S
C101 H115 0.933 . S
C102 Dy80 2.738 1_455 S
C102 O85 1.255 1_455 S
C102 O86 1.249 1_455 S
C102 C96 1.516 . S
C103 O87 1.254 . S
C103 O88 1.257 . S
C104 O89 1.266 . S
C104 O90 1.236 . S
C105 C108 1.344 . S
C105 C109 1.328 . S
C105 C111 1.516 . S
C106 C107 1.304 . S
C106 C110 1.323 . S
C107 C106 1.304 . S
C107 C108 1.371 . S
C107 H116 0.930 . S
C108 C105 1.344 . S
C108 C107 1.371 . S
C108 H117 0.931 . S
C109 C105 1.328 . S
C109 C110 1.433 . S
C109 H118 0.931 . S
C110 C106 1.323 . S
C110 C109 1.433 . S
C110 H119 0.933 . S
C111 Dy81 2.738 . S
C111 O91 1.255 . S
C111 O92 1.249 . S
C111 C105 1.516 . S
H112 C98 0.930 . S
H113 C99 0.931 . S
H114 C100 0.931 . S
H115 C101 0.933 . S
H116 C107 0.930 . S
H117 C108 0.931 . S
H118 C109 0.931 . S
H119 C110 0.933 . S
Dy120 O123 2.307 . S
Dy120 O125 2.395 . S
Dy120 O126 2.379 . S
Dy120 O128 2.339 . S
Dy120 O130 2.298 . S
Dy120 O134 2.275 . S
Dy120 C142 2.738 . S
Dy121 O124 2.298 . S
Dy121 O127 2.275 . S
Dy121 O129 2.307 . S
Dy121 O131 2.395 . S
Dy121 O132 2.379 . S
Dy121 O135 2.339 . S
Dy121 C151 2.738 1_545 S
C122 O134 1.254 . S
C122 O135 1.257 . S
O123 Dy120 2.307 . S
O123 C133 1.266 . S
O124 Dy121 2.298 . S
O124 C133 1.236 . S
O125 Dy120 2.395 . S
O125 C142 1.255 . S
O126 Dy120 2.379 . S
O126 C142 1.249 . S
O127 Dy121 2.275 . S
O127 C143 1.254 . S
O128 Dy120 2.339 . S
O128 C143 1.257 . S
O129 Dy121 2.307 . S
O129 C144 1.266 . S
O130 Dy120 2.298 . S
O130 C144 1.236 . S
O131 Dy121 2.395 . S
O131 C151 1.255 1_545 S
O132 Dy121 2.379 . S
O132 C151 1.249 1_545 S
C133 O123 1.266 . S
C133 O124 1.236 . S
O134 Dy120 2.275 . S
O134 C122 1.254 . S
O135 Dy121 2.339 . S
O135 C122 1.257 . S
C136 C139 1.344 . S
C136 C140 1.328 . S
C136 C142 1.516 . S
C137 C138 1.304 . S
C137 C141 1.323 . S
C138 C137 1.304 . S
C138 C139 1.371 . S
C138 H152 0.930 . S
C139 C136 1.344 . S
C139 C138 1.371 . S
C139 H153 0.931 . S
C140 C136 1.328 . S
C140 C141 1.433 . S
C140 H154 0.931 . S
C141 C137 1.323 . S
C141 C140 1.433 . S
C141 H155 0.933 . S
C142 Dy120 2.738 . S
C142 O125 1.255 . S
C142 O126 1.249 . S
C142 C136 1.516 . S
C143 O127 1.254 . S
C143 O128 1.257 . S
C144 O129 1.266 . S
C144 O130 1.236 . S
C145 C148 1.344 . S
C145 C149 1.328 . S
C145 C151 1.516 . S
C146 C147 1.304 . S
C146 C150 1.323 . S
C147 C146 1.304 . S
C147 C148 1.371 . S
C147 H156 0.930 . S
C148 C145 1.344 . S
C148 C147 1.371 . S
C148 H157 0.931 . S
C149 C145 1.328 . S
C149 C150 1.433 . S
C149 H158 0.931 . S
C150 C146 1.323 . S
C150 C149 1.433 . S
C150 H159 0.933 . S
C151 Dy121 2.738 1_565 S
C151 O131 1.255 1_565 S
C151 O132 1.249 1_565 S
C151 C145 1.516 . S
H152 C138 0.930 . S
H153 C139 0.931 . S
H154 C140 0.931 . S
H155 C141 0.933 . S
H156 C147 0.930 . S
H157 C148 0.931 . S
H158 C149 0.931 . S
H159 C150 0.933 . S
Dy160 O163 2.307 . S
Dy160 O165 2.395 . S
Dy160 O166 2.379 . S
Dy160 O168 2.339 . S
Dy160 O170 2.298 . S
Dy160 O174 2.275 . S
Dy160 C182 2.738 . S
Dy161 O164 2.298 . S
Dy161 O167 2.275 . S
Dy161 O169 2.307 . S
Dy161 O171 2.395 . S
Dy161 O172 2.379 . S
Dy161 O175 2.339 . S
Dy161 C191 2.738 . S
C162 O174 1.254 . S
C162 O175 1.257 . S
O163 Dy160 2.307 . S
O163 C173 1.266 . S
O164 Dy161 2.298 . S
O164 C173 1.236 . S
O165 Dy160 2.395 . S
O165 C182 1.255 . S
O166 Dy160 2.379 . S
O166 C182 1.249 . S
O167 Dy161 2.275 . S
O167 C183 1.254 . S
O168 Dy160 2.339 . S
O168 C183 1.257 . S
O169 Dy161 2.307 . S
O169 C184 1.266 . S
O170 Dy160 2.298 . S
O170 C184 1.236 . S
O171 Dy161 2.395 . S
O171 C191 1.255 . S
O172 Dy161 2.379 . S
O172 C191 1.249 . S
C173 O163 1.266 . S
C173 O164 1.236 . S
O174 Dy160 2.275 . S
O174 C162 1.254 . S
O175 Dy161 2.339 . S
O175 C162 1.257 . S
C176 C179 1.344 . S
C176 C180 1.328 . S
C176 C182 1.516 . S
C177 C178 1.304 . S
C177 C181 1.323 . S
C178 C177 1.304 . S
C178 C179 1.371 . S
C178 H192 0.930 . S
C179 C176 1.344 . S
C179 C178 1.371 . S
C179 H193 0.931 . S
C180 C176 1.328 . S
C180 C181 1.433 . S
C180 H194 0.931 . S
C181 C177 1.323 . S
C181 C180 1.433 . S
C181 H195 0.933 . S
C182 Dy160 2.738 . S
C182 O165 1.255 . S
C182 O166 1.249 . S
C182 C176 1.516 . S
C183 O167 1.254 . S
C183 O168 1.257 . S
C184 O169 1.266 . S
C184 O170 1.236 . S
C185 C188 1.344 . S
C185 C189 1.328 . S
C185 C191 1.516 . S
C186 C187 1.304 . S
C186 C190 1.323 . S
C187 C186 1.304 . S
C187 C188 1.371 . S
C187 H196 0.930 . S
C188 C185 1.344 . S
C188 C187 1.371 . S
C188 H197 0.931 . S
C189 C185 1.328 . S
C189 C190 1.433 . S
C189 H198 0.931 . S
C190 C186 1.323 . S
C190 C189 1.433 . S
C190 H199 0.933 . S
C191 Dy161 2.738 . S
C191 O171 1.255 . S
C191 O172 1.249 . S
C191 C185 1.516 . S
H192 C178 0.930 . S
H193 C179 0.931 . S
H194 C180 0.931 . S
H195 C181 0.933 . S
H196 C187 0.930 . S
H197 C188 0.931 . S
H198 C189 0.931 . S
H199 C190 0.933 . S
Dy200 O203 2.307 . S
Dy200 O205 2.395 . S
Dy200 O206 2.379 . S
Dy200 O208 2.339 . S
Dy200 O210 2.298 . S
Dy200 O214 2.275 . S
Dy200 C222 2.738 . S
Dy201 O204 2.298 . S
Dy201 O207 2.275 . S
Dy201 O209 2.307 . S
Dy201 O211 2.395 . S
Dy201 O212 2.379 . S
Dy201 O215 2.339 . S
Dy201 C231 2.738 1_655 S
C202 O214 1.254 . S
C202 O215 1.257 . S
O203 Dy200 2.307 . S
O203 C213 1.266 . S
O204 Dy201 2.298 . S
O204 C213 1.236 . S
O205 Dy200 2.395 . S
O205 C222 1.255 . S
O206 Dy200 2.379 . S
O206 C222 1.249 . S
O207 Dy201 2.275 . S
O207 C223 1.254 . S
O208 Dy200 2.339 . S
O208 C223 1.257 . S
O209 Dy201 2.307 . S
O209 C224 1.266 . S
O210 Dy200 2.298 . S
O210 C224 1.236 . S
O211 Dy201 2.395 . S
O211 C231 1.255 1_655 S
O212 Dy201 2.379 . S
O212 C231 1.249 1_655 S
C213 O203 1.266 . S
C213 O204 1.236 . S
O214 Dy200 2.275 . S
O214 C202 1.254 . S
O215 Dy201 2.339 . S
O215 C202 1.257 . S
C216 C219 1.344 . S
C216 C220 1.328 . S
C216 C222 1.516 . S
C217 C218 1.304 . S
C217 C221 1.323 . S
C218 C217 1.304 . S
C218 C219 1.371 . S
C218 H232 0.930 . S
C219 C216 1.344 . S
C219 C218 1.371 . S
C219 H233 0.931 . S
C220 C216 1.328 . S
C220 C221 1.433 . S
C220 H234 0.931 . S
C221 C217 1.323 . S
C221 C220 1.433 . S
C221 H235 0.933 . S
C222 Dy200 2.738 . S
C222 O205 1.255 . S
C222 O206 1.249 . S
C222 C216 1.516 . S
C223 O207 1.254 . S
C223 O208 1.257 . S
C224 O209 1.266 . S
C224 O210 1.236 . S
C225 C228 1.344 . S
C225 C229 1.328 . S
C225 C231 1.516 . S
C226 C227 1.304 . S
C226 C230 1.323 . S
C227 C226 1.304 . S
C227 C228 1.371 . S
C227 H236 0.930 . S
C228 C225 1.344 . S
C228 C227 1.371 . S
C228 H237 0.931 . S
C229 C225 1.328 . S
C229 C230 1.433 . S
C229 H238 0.931 . S
C230 C226 1.323 . S
C230 C229 1.433 . S
C230 H239 0.933 . S
C231 Dy201 2.738 1_455 S
C231 O211 1.255 1_455 S
C231 O212 1.249 1_455 S
C231 C225 1.516 . S
H232 C218 0.930 . S
H233 C219 0.931 . S
H234 C220 0.931 . S
H235 C221 0.933 . S
H236 C227 0.930 . S
H237 C228 0.931 . S
H238 C229 0.931 . S
H239 C230 0.933 . S
Dy240 O243 2.307 . S
Dy240 O245 2.395 . S
Dy240 O246 2.379 . S
Dy240 O248 2.339 . S
Dy240 O250 2.298 . S
Dy240 O254 2.275 . S
Dy240 C262 2.738 . S
Dy241 O244 2.298 . S
Dy241 O247 2.275 . S
Dy241 O249 2.307 . S
Dy241 O251 2.395 . S
Dy241 O252 2.379 . S
Dy241 O255 2.339 . S
Dy241 C271 2.738 1_455 S
C242 O254 1.254 . S
C242 O255 1.257 . S
O243 Dy240 2.307 . S
O243 C253 1.266 . S
O244 Dy241 2.298 . S
O244 C253 1.236 . S
O245 Dy240 2.395 . S
O245 C262 1.255 . S
O246 Dy240 2.379 . S
O246 C262 1.249 . S
O247 Dy241 2.275 . S
O247 C263 1.254 . S
O248 Dy240 2.339 . S
O248 C263 1.257 . S
O249 Dy241 2.307 . S
O249 C264 1.266 . S
O250 Dy240 2.298 . S
O250 C264 1.236 . S
O251 Dy241 2.395 . S
O251 C271 1.255 1_455 S
O252 Dy241 2.379 . S
O252 C271 1.249 1_455 S
C253 O243 1.266 . S
C253 O244 1.236 . S
O254 Dy240 2.275 . S
O254 C242 1.254 . S
O255 Dy241 2.339 . S
O255 C242 1.257 . S
C256 C259 1.344 . S
C256 C260 1.328 . S
C256 C262 1.516 . S
C257 C258 1.304 . S
C257 C261 1.323 . S
C258 C257 1.304 . S
C258 C259 1.371 . S
C258 H272 0.930 . S
C259 C256 1.344 . S
C259 C258 1.371 . S
C259 H273 0.931 . S
C260 C256 1.328 . S
C260 C261 1.433 . S
C260 H274 0.931 . S
C261 C257 1.323 . S
C261 C260 1.433 . S
C261 H275 0.933 . S
C262 Dy240 2.738 . S
C262 O245 1.255 . S
C262 O246 1.249 . S
C262 C256 1.516 . S
C263 O247 1.254 . S
C263 O248 1.257 . S
C264 O249 1.266 . S
C264 O250 1.236 . S
C265 C268 1.344 . S
C265 C269 1.328 . S
C265 C271 1.516 . S
C266 C267 1.304 . S
C266 C270 1.323 . S
C267 C266 1.304 . S
C267 C268 1.371 . S
C267 H276 0.930 . S
C268 C265 1.344 . S
C268 C267 1.371 . S
C268 H277 0.931 . S
C269 C265 1.328 . S
C269 C270 1.433 . S
C269 H278 0.931 . S
C270 C266 1.323 . S
C270 C269 1.433 . S
C270 H279 0.933 . S
C271 Dy241 2.738 1_655 S
C271 O251 1.255 1_655 S
C271 O252 1.249 1_655 S
C271 C265 1.516 . S
H272 C258 0.930 . S
H273 C259 0.931 . S
H274 C260 0.931 . S
H275 C261 0.933 . S
H276 C267 0.930 . S
H277 C268 0.931 . S
H278 C269 0.931 . S
H279 C270 0.933 . S
Dy280 O283 2.307 . S
Dy280 O285 2.395 . S
Dy280 O286 2.379 . S
Dy280 O288 2.339 . S
Dy280 O290 2.298 . S
Dy280 O294 2.275 . S
Dy280 C302 2.738 1_565 S
Dy281 O284 2.298 . S
Dy281 O287 2.275 . S
Dy281 O289 2.307 . S
Dy281 O291 2.395 . S
Dy281 O292 2.379 . S
Dy281 O295 2.339 . S
Dy281 C311 2.738 . S
C282 O294 1.254 . S
C282 O295 1.257 . S
O283 Dy280 2.307 . S
O283 C293 1.266 . S
O284 Dy281 2.298 . S
O284 C293 1.236 . S
O285 Dy280 2.395 . S
O285 C302 1.255 1_565 S
O286 Dy280 2.379 . S
O286 C302 1.249 1_565 S
O287 Dy281 2.275 . S
O287 C303 1.254 . S
O288 Dy280 2.339 . S
O288 C303 1.257 . S
O289 Dy281 2.307 . S
O289 C304 1.266 . S
O290 Dy280 2.298 . S
O290 C304 1.236 . S
O291 Dy281 2.395 . S
O291 C311 1.255 . S
O292 Dy281 2.379 . S
O292 C311 1.249 . S
C293 O283 1.266 . S
C293 O284 1.236 . S
O294 Dy280 2.275 . S
O294 C282 1.254 . S
O295 Dy281 2.339 . S
O295 C282 1.257 . S
C296 C299 1.344 . S
C296 C300 1.328 . S
C296 C302 1.516 . S
C297 C298 1.304 . S
C297 C301 1.323 . S
C298 C297 1.304 . S
C298 C299 1.371 . S
C298 H312 0.930 . S
C299 C296 1.344 . S
C299 C298 1.371 . S
C299 H313 0.931 . S
C300 C296 1.328 . S
C300 C301 1.433 . S
C300 H314 0.931 . S
C301 C297 1.323 . S
C301 C300 1.433 . S
C301 H315 0.933 . S
C302 Dy280 2.738 1_545 S
C302 O285 1.255 1_545 S
C302 O286 1.249 1_545 S
C302 C296 1.516 . S
C303 O287 1.254 . S
C303 O288 1.257 . S
C304 O289 1.266 . S
C304 O290 1.236 . S
C305 C308 1.344 . S
C305 C309 1.328 . S
C305 C311 1.516 . S
C306 C307 1.304 . S
C306 C310 1.323 . S
C307 C306 1.304 . S
C307 C308 1.371 . S
C307 H316 0.930 . S
C308 C305 1.344 . S
C308 C307 1.371 . S
C308 H317 0.931 . S
C309 C305 1.328 . S
C309 C310 1.433 . S
C309 H318 0.931 . S
C310 C306 1.323 . S
C310 C309 1.433 . S
C310 H319 0.933 . S
C311 Dy281 2.738 . S
C311 O291 1.255 . S
C311 O292 1.249 . S
C311 C305 1.516 . S
H312 C298 0.930 . S
H313 C299 0.931 . S
H314 C300 0.931 . S
H315 C301 0.933 . S
H316 C307 0.930 . S
H317 C308 0.931 . S
H318 C309 0.931 . S
H319 C310 0.933 . S
Dy320 O323 2.307 . S
Dy320 O325 2.395 . S
Dy320 O326 2.379 . S
Dy320 O328 2.339 . S
Dy320 O330 2.298 . S
Dy320 O334 2.275 . S
Dy320 C342 2.738 . S
Dy321 O324 2.298 . S
Dy321 O327 2.275 . S
Dy321 O329 2.307 . S
Dy321 O331 2.395 . S
Dy321 O332 2.379 . S
Dy321 O335 2.339 . S
Dy321 C351 2.738 . S
C322 O334 1.254 . S
C322 O335 1.257 . S
O323 Dy320 2.307 . S
O323 C333 1.266 . S
O324 Dy321 2.298 . S
O324 C333 1.236 . S
O325 Dy320 2.395 . S
O325 C342 1.255 . S
O326 Dy320 2.379 . S
O326 C342 1.249 . S
O327 Dy321 2.275 . S
O327 C343 1.254 . S
O328 Dy320 2.339 . S
O328 C343 1.257 . S
O329 Dy321 2.307 . S
O329 C344 1.266 . S
O330 Dy320 2.298 . S
O330 C344 1.236 . S
O331 Dy321 2.395 . S
O331 C351 1.255 . S
O332 Dy321 2.379 . S
O332 C351 1.249 . S
C333 O323 1.266 . S
C333 O324 1.236 . S
O334 Dy320 2.275 . S
O334 C322 1.254 . S
O335 Dy321 2.339 . S
O335 C322 1.257 . S
C336 C339 1.344 . S
C336 C340 1.328 . S
C336 C342 1.516 . S
C337 C338 1.304 . S
C337 C341 1.323 . S
C338 C337 1.304 . S
C338 C339 1.371 . S
C338 H352 0.930 . S
C339 C336 1.344 . S
C339 C338 1.371 . S
C339 H353 0.931 . S
C340 C336 1.328 . S
C340 C341 1.433 . S
C340 H354 0.931 . S
C341 C337 1.323 . S
C341 C340 1.433 . S
C341 H355 0.933 . S
C342 Dy320 2.738 . S
C342 O325 1.255 . S
C342 O326 1.249 . S
C342 C336 1.516 . S
C343 O327 1.254 . S
C343 O328 1.257 . S
C344 O329 1.266 . S
C344 O330 1.236 . S
C345 C348 1.344 . S
C345 C349 1.328 . S
C345 C351 1.516 . S
C346 C347 1.304 . S
C346 C350 1.323 . S
C347 C346 1.304 . S
C347 C348 1.371 . S
C347 H356 0.930 . S
C348 C345 1.344 . S
C348 C347 1.371 . S
C348 H357 0.931 . S
C349 C345 1.328 . S
C349 C350 1.433 . S
C349 H358 0.931 . S
C350 C346 1.323 . S
C350 C349 1.433 . S
C350 H359 0.933 . S
C351 Dy321 2.738 . S
C351 O331 1.255 . S
C351 O332 1.249 . S
C351 C345 1.516 . S
H352 C338 0.930 . S
H353 C339 0.931 . S
H354 C340 0.931 . S
H355 C341 0.933 . S
H356 C347 0.930 . S
H357 C348 0.931 . S
H358 C349 0.931 . S
H359 C350 0.933 . S
Dy360 O363 2.307 . S
Dy360 O365 2.395 . S
Dy360 O366 2.379 . S
Dy360 O368 2.339 . S
Dy360 O370 2.298 . S
Dy360 O374 2.275 . S
Dy360 C382 2.738 1_455 S
Dy361 O364 2.298 . S
Dy361 O367 2.275 . S
Dy361 O369 2.307 . S
Dy361 O371 2.395 . S
Dy361 O372 2.379 . S
Dy361 O375 2.339 . S
Dy361 C391 2.738 . S
C362 O374 1.254 . S
C362 O375 1.257 . S
O363 Dy360 2.307 . S
O363 C373 1.266 . S
O364 Dy361 2.298 . S
O364 C373 1.236 . S
O365 Dy360 2.395 . S
O365 C382 1.255 1_455 S
O366 Dy360 2.379 . S
O366 C382 1.249 1_455 S
O367 Dy361 2.275 . S
O367 C383 1.254 . S
O368 Dy360 2.339 . S
O368 C383 1.257 . S
O369 Dy361 2.307 . S
O369 C384 1.266 . S
O370 Dy360 2.298 . S
O370 C384 1.236 . S
O371 Dy361 2.395 . S
O371 C391 1.255 . S
O372 Dy361 2.379 . S
O372 C391 1.249 . S
C373 O363 1.266 . S
C373 O364 1.236 . S
O374 Dy360 2.275 . S
O374 C362 1.254 . S
O375 Dy361 2.339 . S
O375 C362 1.257 . S
C376 C379 1.344 . S
C376 C380 1.328 . S
C376 C382 1.516 . S
C377 C378 1.304 . S
C377 C381 1.323 . S
C378 C377 1.304 . S
C378 C379 1.371 . S
C378 H392 0.930 . S
C379 C376 1.344 . S
C379 C378 1.371 . S
C379 H393 0.931 . S
C380 C376 1.328 . S
C380 C381 1.433 . S
C380 H394 0.931 . S
C381 C377 1.323 . S
C381 C380 1.433 . S
C381 H395 0.933 . S
C382 Dy360 2.738 1_655 S
C382 O365 1.255 1_655 S
C382 O366 1.249 1_655 S
C382 C376 1.516 . S
C383 O367 1.254 . S
C383 O368 1.257 . S
C384 O369 1.266 . S
C384 O370 1.236 . S
C385 C388 1.344 . S
C385 C389 1.328 . S
C385 C391 1.516 . S
C386 C387 1.304 . S
C386 C390 1.323 . S
C387 C386 1.304 . S
C387 C388 1.371 . S
C387 H396 0.930 . S
C388 C385 1.344 . S
C388 C387 1.371 . S
C388 H397 0.931 . S
C389 C385 1.328 . S
C389 C390 1.433 . S
C389 H398 0.931 . S
C390 C386 1.323 . S
C390 C389 1.433 . S
C390 H399 0.933 . S
C391 Dy361 2.738 . S
C391 O371 1.255 . S
C391 O372 1.249 . S
C391 C385 1.516 . S
H392 C378 0.930 . S
H393 C379 0.931 . S
H394 C380 0.931 . S
H395 C381 0.933 . S
H396 C387 0.930 . S
H397 C388 0.931 . S
H398 C389 0.931 . S
H399 C390 0.933 . S
Dy400 O403 2.307 . S
Dy400 O405 2.395 . S
Dy400 O406 2.379 . S
Dy400 O408 2.339 . S
Dy400 O410 2.298 . S
Dy400 O414 2.275 . S
Dy400 C422 2.738 . S
Dy401 O404 2.298 . S
Dy401 O407 2.275 . S
Dy401 O409 2.307 . S
Dy401 O411 2.395 . S
Dy401 O412 2.379 . S
Dy401 O415 2.339 . S
Dy401 C431 2.738 1_565 S
C402 O414 1.254 . S
C402 O415 1.257 . S
O403 Dy400 2.307 . S
O403 C413 1.266 . S
O404 Dy401 2.298 . S
O404 C413 1.236 . S
O405 Dy400 2.395 . S
O405 C422 1.255 . S
O406 Dy400 2.379 . S
O406 C422 1.249 . S
O407 Dy401 2.275 . S
O407 C423 1.254 . S
O408 Dy400 2.339 . S
O408 C423 1.257 . S
O409 Dy401 2.307 . S
O409 C424 1.266 . S
O410 Dy400 2.298 . S
O410 C424 1.236 . S
O411 Dy401 2.395 . S
O411 C431 1.255 1_565 S
O412 Dy401 2.379 . S
O412 C431 1.249 1_565 S
C413 O403 1.266 . S
C413 O404 1.236 . S
O414 Dy400 2.275 . S
O414 C402 1.254 . S
O415 Dy401 2.339 . S
O415 C402 1.257 . S
C416 C419 1.344 . S
C416 C420 1.328 . S
C416 C422 1.516 . S
C417 C418 1.304 . S
C417 C421 1.323 . S
C418 C417 1.304 . S
C418 C419 1.371 . S
C418 H432 0.930 . S
C419 C416 1.344 . S
C419 C418 1.371 . S
C419 H433 0.931 . S
C420 C416 1.328 . S
C420 C421 1.433 . S
C420 H434 0.931 . S
C421 C417 1.323 . S
C421 C420 1.433 . S
C421 H435 0.933 . S
C422 Dy400 2.738 . S
C422 O405 1.255 . S
C422 O406 1.249 . S
C422 C416 1.516 . S
C423 O407 1.254 . S
C423 O408 1.257 . S
C424 O409 1.266 . S
C424 O410 1.236 . S
C425 C428 1.344 . S
C425 C429 1.328 . S
C425 C431 1.516 . S
C426 C427 1.304 . S
C426 C430 1.323 . S
C427 C426 1.304 . S
C427 C428 1.371 . S
C427 H436 0.930 . S
C428 C425 1.344 . S
C428 C427 1.371 . S
C428 H437 0.931 . S
C429 C425 1.328 . S
C429 C430 1.433 . S
C429 H438 0.931 . S
C430 C426 1.323 . S
C430 C429 1.433 . S
C430 H439 0.933 . S
C431 Dy401 2.738 1_545 S
C431 O411 1.255 1_545 S
C431 O412 1.249 1_545 S
C431 C425 1.516 . S
H432 C418 0.930 . S
H433 C419 0.931 . S
H434 C420 0.931 . S
H435 C421 0.933 . S
H436 C427 0.930 . S
H437 C428 0.931 . S
H438 C429 0.931 . S
H439 C430 0.933 . S
Dy440 O443 2.307 . S
Dy440 O445 2.395 . S
Dy440 O446 2.379 . S
Dy440 O448 2.339 . S
Dy440 O450 2.298 . S
Dy440 O454 2.275 . S
Dy440 C462 2.738 . S
Dy441 O444 2.298 . S
Dy441 O447 2.275 . S
Dy441 O449 2.307 . S
Dy441 O451 2.395 . S
Dy441 O452 2.379 . S
Dy441 O455 2.339 . S
Dy441 C471 2.738 . S
C442 O454 1.254 . S
C442 O455 1.257 . S
O443 Dy440 2.307 . S
O443 C453 1.266 . S
O444 Dy441 2.298 . S
O444 C453 1.236 . S
O445 Dy440 2.395 . S
O445 C462 1.255 . S
O446 Dy440 2.379 . S
O446 C462 1.249 . S
O447 Dy441 2.275 . S
O447 C463 1.254 . S
O448 Dy440 2.339 . S
O448 C463 1.257 . S
O449 Dy441 2.307 . S
O449 C464 1.266 . S
O450 Dy440 2.298 . S
O450 C464 1.236 . S
O451 Dy441 2.395 . S
O451 C471 1.255 . S
O452 Dy441 2.379 . S
O452 C471 1.249 . S
C453 O443 1.266 . S
C453 O444 1.236 . S
O454 Dy440 2.275 . S
O454 C442 1.254 . S
O455 Dy441 2.339 . S
O455 C442 1.257 . S
C456 C459 1.344 . S
C456 C460 1.328 . S
C456 C462 1.516 . S
C457 C458 1.304 . S
C457 C461 1.323 . S
C458 C457 1.304 . S
C458 C459 1.371 . S
C458 H472 0.930 . S
C459 C456 1.344 . S
C459 C458 1.371 . S
C459 H473 0.931 . S
C460 C456 1.328 . S
C460 C461 1.433 . S
C460 H474 0.931 . S
C461 C457 1.323 . S
C461 C460 1.433 . S
C461 H475 0.933 . S
C462 Dy440 2.738 . S
C462 O445 1.255 . S
C462 O446 1.249 . S
C462 C456 1.516 . S
C463 O447 1.254 . S
C463 O448 1.257 . S
C464 O449 1.266 . S
C464 O450 1.236 . S
C465 C468 1.344 . S
C465 C469 1.328 . S
C465 C471 1.516 . S
C466 C467 1.304 . S
C466 C470 1.323 . S
C467 C466 1.304 . S
C467 C468 1.371 . S
C467 H476 0.930 . S
C468 C465 1.344 . S
C468 C467 1.371 . S
C468 H477 0.931 . S
C469 C465 1.328 . S
C469 C470 1.433 . S
C469 H478 0.931 . S
C470 C466 1.323 . S
C470 C469 1.433 . S
C470 H479 0.933 . S
C471 Dy441 2.738 . S
C471 O451 1.255 . S
C471 O452 1.249 . S
C471 C465 1.516 . S
H472 C458 0.930 . S
H473 C459 0.931 . S
H474 C460 0.931 . S
H475 C461 0.933 . S
H476 C467 0.930 . S
H477 C468 0.931 . S
H478 C469 0.931 . S
H479 C470 0.933 . S
C480 C481 1.387 . S
C480 H484 0.950 . S
C480 C489 1.390 . S
C481 C480 1.387 . S
C481 C483 1.387 . S
H482 C489 0.950 . S
C483 C481 1.387 . S
C483 C485 1.390 . S
C483 H487 0.950 . S
H484 C480 0.950 . S
C485 C483 1.390 . S
C485 C486 1.387 . S
C485 H488 0.950 . S
C486 C485 1.387 . S
C486 C489 1.387 . S
H487 C483 0.950 . S
H488 C485 0.950 . S
C489 C480 1.390 . S
C489 H482 0.950 . S
C489 C486 1.387 . S
C490 C491 1.387 . S
C490 H494 0.950 . S
C490 C499 1.390 1_455 S
C491 C490 1.387 . S
C491 C493 1.387 1_455 S
H492 C499 0.950 . S
C493 C491 1.387 1_655 S
C493 C495 1.390 . S
C493 H497 0.950 1_655 S
H494 C490 0.950 . S
C495 C493 1.390 . S
C495 C496 1.387 . S
C495 H498 0.950 . S
C496 C495 1.387 . S
C496 C499 1.387 . S
H497 C493 0.950 1_455 S
H498 C495 0.950 . S
C499 C490 1.390 1_655 S
C499 H492 0.950 . S
C499 C496 1.387 . S
C500 C501 1.387 . S
C500 H504 0.950 . S
C500 C509 1.390 1_545 S
C501 C500 1.387 . S
C501 C503 1.387 . S
H502 C509 0.950 . S
C503 C501 1.387 . S
C503 C505 1.390 . S
C503 H507 0.950 . S
H504 C500 0.950 . S
C505 C503 1.390 . S
C505 C506 1.387 1_545 S
C505 H508 0.950 1_545 S
C506 C505 1.387 1_565 S
C506 C509 1.387 . S
H507 C503 0.950 . S
H508 C505 0.950 1_565 S
C509 C500 1.390 1_565 S
C509 H502 0.950 . S
C509 C506 1.387 . S
C510 C511 1.387 . S
C510 H514 0.950 . S
C510 C519 1.390 . S
C511 C510 1.387 . S
C511 C513 1.387 . S
H512 C519 0.950 . S
C513 C511 1.387 . S
C513 C515 1.390 . S
C513 H517 0.950 . S
H514 C510 0.950 . S
C515 C513 1.390 . S
C515 C516 1.387 . S
C515 H518 0.950 . S
C516 C515 1.387 . S
C516 C519 1.387 . S
H517 C513 0.950 . S
H518 C515 0.950 . S
C519 C510 1.390 . S
C519 H512 0.950 . S
C519 C516 1.387 . S
C520 C521 1.387 . S
C520 H524 0.950 . S
C520 C529 1.390 1_455 S
C521 C520 1.387 . S
C521 C523 1.387 1_455 S
H522 C529 0.950 . S
C523 C521 1.387 1_655 S
C523 C525 1.390 . S
C523 H527 0.950 . S
H524 C520 0.950 . S
C525 C523 1.390 . S
C525 C526 1.387 . S
C525 H528 0.950 . S
C526 C525 1.387 . S
C526 C529 1.387 . S
H527 C523 0.950 . S
H528 C525 0.950 . S
C529 C520 1.390 1_655 S
C529 H522 0.950 . S
C529 C526 1.387 . S
C530 C531 1.387 1_545 S
C530 H534 0.950 1_545 S
C530 C539 1.390 . S
C531 C530 1.387 1_565 S
C531 C533 1.387 . S
H532 C539 0.950 . S
C533 C531 1.387 . S
C533 C535 1.390 1_565 S
C533 H537 0.950 . S
H534 C530 0.950 1_565 S
C535 C533 1.390 1_545 S
C535 C536 1.387 . S
C535 H538 0.950 . S
C536 C535 1.387 . S
C536 C539 1.387 . S
H537 C533 0.950 . S
H538 C535 0.950 . S
C539 C530 1.390 . S
C539 H532 0.950 . S
C539 C536 1.387 . S
C540 C541 1.387 . S
C540 H544 0.950 . S
C540 C549 1.390 . S
C541 C540 1.387 . S
C541 C543 1.387 . S
H542 C549 0.950 . S
C543 C541 1.387 . S
C543 C545 1.390 . S
C543 H547 0.950 . S
H544 C540 0.950 . S
C545 C543 1.390 . S
C545 C546 1.387 . S
C545 H548 0.950 . S
C546 C545 1.387 . S
C546 C549 1.387 . S
H547 C543 0.950 . S
H548 C545 0.950 . S
C549 C540 1.390 . S
C549 H542 0.950 . S
C549 C546 1.387 . S
C550 C551 1.387 . S
C550 H554 0.950 . S
C550 C559 1.390 . S
C551 C550 1.387 . S
C551 C553 1.387 . S
H552 C559 0.950 . S
C553 C551 1.387 . S
C553 C555 1.390 1_455 S
C553 H557 0.950 . S
H554 C550 0.950 . S
C555 C553 1.390 1_655 S
C555 C556 1.387 . S
C555 H558 0.950 . S
C556 C555 1.387 . S
C556 C559 1.387 1_655 S
H557 C553 0.950 . S
H558 C555 0.950 . S
C559 C550 1.390 . S
C559 H552 0.950 . S
C559 C556 1.387 1_455 S
C560 C561 1.387 . S
C560 H564 0.950 . S
C560 C569 1.390 1_565 S
C561 C560 1.387 . S
C561 C563 1.387 . S
H562 C569 0.950 . S
C563 C561 1.387 . S
C563 C565 1.390 . S
C563 H567 0.950 . S
H564 C560 0.950 . S
C565 C563 1.390 . S
C565 C566 1.387 1_565 S
C565 H568 0.950 1_565 S
C566 C565 1.387 1_545 S
C566 C569 1.387 . S
H567 C563 0.950 . S
H568 C565 0.950 1_545 S
C569 C560 1.390 1_545 S
C569 H562 0.950 . S
C569 C566 1.387 . S
C570 C571 1.387 . S
C570 H574 0.950 . S
C570 C579 1.390 . S
C571 C570 1.387 . S
C571 C573 1.387 . S
H572 C579 0.950 . S
C573 C571 1.387 . S
C573 C575 1.390 . S
C573 H577 0.950 . S
H574 C570 0.950 . S
C575 C573 1.390 . S
C575 C576 1.387 . S
C575 H578 0.950 . S
C576 C575 1.387 . S
C576 C579 1.387 . S
H577 C573 0.950 . S
H578 C575 0.950 . S
C579 C570 1.390 . S
C579 H572 0.950 . S
C579 C576 1.387 . S
C580 C581 1.387 . S
C580 H584 0.950 . S
C580 C589 1.390 . S
C581 C580 1.387 . S
C581 C583 1.387 . S
H582 C589 0.950 . S
C583 C581 1.387 . S
C583 C585 1.390 1_455 S
C583 H587 0.950 . S
H584 C580 0.950 . S
C585 C583 1.390 1_655 S
C585 C586 1.387 . S
C585 H588 0.950 . S
C586 C585 1.387 . S
C586 C589 1.387 1_655 S
H587 C583 0.950 . S
H588 C585 0.950 . S
C589 C580 1.390 . S
C589 H582 0.950 . S
C589 C586 1.387 1_455 S
C590 C591 1.387 . S
C590 H594 0.950 . S
C590 C599 1.390 1_545 S
C591 C590 1.387 . S
C591 C593 1.387 1_545 S
H592 C599 0.950 . S
C593 C591 1.387 1_565 S
C593 C595 1.390 . S
C593 H597 0.950 1_565 S
H594 C590 0.950 . S
C595 C593 1.390 . S
C595 C596 1.387 . S
C595 H598 0.950 . S
C596 C595 1.387 . S
C596 C599 1.387 . S
H597 C593 0.950 1_545 S
H598 C595 0.950 . S
C599 C590 1.390 1_565 S
C599 H592 0.950 . S
C599 C596 1.387 . S
C600 C601 1.387 . S
C600 H604 0.950 . S
C600 C609 1.390 . S
C601 C600 1.387 . S
C601 C603 1.387 . S
H602 C609 0.950 . S
C603 C601 1.387 . S
C603 C605 1.390 . S
C603 H607 0.950 . S
H604 C600 0.950 . S
C605 C603 1.390 . S
C605 C606 1.387 . S
C605 H608 0.950 . S
C606 C605 1.387 . S
C606 C609 1.387 . S
H607 C603 0.950 . S
H608 C605 0.950 . S
C609 C600 1.390 . S
C609 H602 0.950 . S
C609 C606 1.387 . S
C610 C611 1.387 . S
C610 H614 0.950 . S
C610 C619 1.390 . S
C611 C610 1.387 . S
C611 C613 1.387 . S
H612 C619 0.950 . S
C613 C611 1.387 . S
C613 C615 1.390 . S
C613 H617 0.950 . S
H614 C610 0.950 . S
C615 C613 1.390 . S
C615 C616 1.387 . S
C615 H618 0.950 . S
C616 C615 1.387 . S
C616 C619 1.387 . S
H617 C613 0.950 . S
H618 C615 0.950 . S
C619 C610 1.390 . S
C619 H612 0.950 . S
C619 C616 1.387 . S
C620 C621 1.387 . S
C620 H624 0.950 . S
C620 C629 1.390 . S
C621 C620 1.387 . S
C621 C623 1.387 . S
H622 C629 0.950 . S
C623 C621 1.387 . S
C623 C625 1.390 . S
C623 H627 0.950 . S
H624 C620 0.950 . S
C625 C623 1.390 . S
C625 C626 1.387 . S
C625 H628 0.950 . S
C626 C625 1.387 . S
C626 C629 1.387 . S
H627 C623 0.950 . S
H628 C625 0.950 . S
C629 C620 1.390 . S
C629 H622 0.950 . S
C629 C626 1.387 . S
C630 C631 1.387 . S
C630 H634 0.950 . S
C630 C639 1.390 . S
C631 C630 1.387 . S
C631 C633 1.387 . S
H632 C639 0.950 . S
C633 C631 1.387 . S
C633 C635 1.390 . S
C633 H637 0.950 . S
H634 C630 0.950 . S
C635 C633 1.390 . S
C635 C636 1.387 . S
C635 H638 0.950 . S
C636 C635 1.387 . S
C636 C639 1.387 . S
H637 C633 0.950 . S
H638 C635 0.950 . S
C639 C630 1.390 . S
C639 H632 0.950 . S
C639 C636 1.387 . S
C640 C641 1.387 . S
C640 H644 0.950 . S
C640 C649 1.390 . S
C641 C640 1.387 . S
C641 C643 1.387 . S
H642 C649 0.950 . S
C643 C641 1.387 . S
C643 C645 1.390 . S
C643 H647 0.950 . S
H644 C640 0.950 . S
C645 C643 1.390 . S
C645 C646 1.387 . S
C645 H648 0.950 . S
C646 C645 1.387 . S
C646 C649 1.387 . S
H647 C643 0.950 . S
H648 C645 0.950 . S
C649 C640 1.390 . S
C649 H642 0.950 . S
C649 C646 1.387 . S
C650 C651 1.387 . S
C650 H654 0.950 . S
C650 C659 1.390 . S
C651 C650 1.387 . S
C651 C653 1.387 . S
H652 C659 0.950 . S
C653 C651 1.387 . S
C653 C655 1.390 . S
C653 H657 0.950 . S
H654 C650 0.950 . S
C655 C653 1.390 . S
C655 C656 1.387 . S
C655 H658 0.950 . S
C656 C655 1.387 . S
C656 C659 1.387 . S
H657 C653 0.950 . S
H658 C655 0.950 . S
C659 C650 1.390 . S
C659 H652 0.950 . S
C659 C656 1.387 . S
C660 C661 1.387 . S
C660 H664 0.950 . S
C660 C669 1.390 1_566 S
C661 C660 1.387 . S
C661 C663 1.387 . S
H662 C669 0.950 . S
C663 C661 1.387 . S
C663 C665 1.390 1_566 S
C663 H667 0.950 . S
H664 C660 0.950 . S
C665 C663 1.390 1_544 S
C665 C666 1.387 . S
C665 H668 0.950 . S
C666 C665 1.387 . S
C666 C669 1.387 . S
H667 C663 0.950 . S
H668 C665 0.950 . S
C669 C660 1.390 1_544 S
C669 H662 0.950 . S
C669 C666 1.387 . S
C670 C671 1.387 . S
C670 H674 0.950 . S
C670 C679 1.390 . S
C671 C670 1.387 . S
C671 C673 1.387 . S
H672 C679 0.950 . S
C673 C671 1.387 . S
C673 C675 1.390 . S
C673 H677 0.950 . S
H674 C670 0.950 . S
C675 C673 1.390 . S
C675 C676 1.387 . S
C675 H678 0.950 . S
C676 C675 1.387 . S
C676 C679 1.387 . S
H677 C673 0.950 . S
H678 C675 0.950 . S
C679 C670 1.390 . S
C679 H672 0.950 . S
C679 C676 1.387 . S
C680 C681 1.387 . S
C680 H684 0.950 . S
C680 C689 1.390 1_455 S
C681 C680 1.387 . S
C681 C683 1.387 1_556 S
H682 C689 0.950 . S
C683 C681 1.387 1_554 S
C683 C685 1.390 1_455 S
C683 H687 0.950 . S
H684 C680 0.950 . S
C685 C683 1.390 1_655 S
C685 C686 1.387 . S
C685 H688 0.950 . S
C686 C685 1.387 . S
C686 C689 1.387 1_554 S
H687 C683 0.950 . S
H688 C685 0.950 . S
C689 C680 1.390 1_655 S
C689 H682 0.950 . S
C689 C686 1.387 1_556 S
C690 C691 1.387 . S
C690 H694 0.950 . S
C690 C699 1.390 1_545 S
C691 C690 1.387 . S
C691 C693 1.387 . S
H692 C699 0.950 . S
C693 C691 1.387 . S
C693 C695 1.390 1_545 S
C693 H697 0.950 . S
H694 C690 0.950 . S
C695 C693 1.390 1_565 S
C695 C696 1.387 . S
C695 H698 0.950 . S
C696 C695 1.387 . S
C696 C699 1.387 . S
H697 C693 0.950 . S
H698 C695 0.950 . S
C699 C690 1.390 1_565 S
C699 H692 0.950 . S
C699 C696 1.387 . S
C700 C701 1.387 . S
C700 H704 0.950 . S
C700 C709 1.390 . S
C701 C700 1.387 . S
C701 C703 1.387 1_554 S
H702 C709 0.950 . S
C703 C701 1.387 1_556 S
C703 C705 1.390 . S
C703 H707 0.950 . S
H704 C700 0.950 . S
C705 C703 1.390 . S
C705 C706 1.387 . S
C705 H708 0.950 . S
C706 C705 1.387 . S
C706 C709 1.387 1_556 S
H707 C703 0.950 . S
H708 C705 0.950 . S
C709 C700 1.390 . S
C709 H702 0.950 . S
C709 C706 1.387 1_554 S
C710 C711 1.387 . S
C710 H714 0.950 . S
C710 C719 1.390 1_455 S
C711 C710 1.387 . S
C711 C713 1.387 . S
H712 C719 0.950 . S
C713 C711 1.387 . S
C713 C715 1.390 1_455 S
C713 H717 0.950 . S
H714 C710 0.950 . S
C715 C713 1.390 1_655 S
C715 C716 1.387 . S
C715 H718 0.950 . S
C716 C715 1.387 . S
C716 C719 1.387 . S
H717 C713 0.950 . S
H718 C715 0.950 . S
C719 C710 1.390 1_655 S
C719 H712 0.950 . S
C719 C716 1.387 . S
C720 C721 1.387 . S
C720 H724 0.950 . S
C720 C729 1.390 . S
C721 C720 1.387 . S
C721 C723 1.387 . S
H722 C729 0.950 . S
C723 C721 1.387 . S
C723 C725 1.390 . S
C723 H727 0.950 . S
H724 C720 0.950 . S
C725 C723 1.390 . S
C725 C726 1.387 . S
C725 H728 0.950 . S
C726 C725 1.387 . S
C726 C729 1.387 . S
H727 C723 0.950 . S
H728 C725 0.950 . S
C729 C720 1.390 . S
C729 H722 0.950 . S
C729 C726 1.387 . S
C730 C731 1.387 . S
C730 H734 0.950 . S
C730 C739 1.390 . S
C731 C730 1.387 . S
C731 C733 1.387 . S
H732 C739 0.950 . S
C733 C731 1.387 . S
C733 C735 1.390 . S
C733 H737 0.950 . S
H734 C730 0.950 . S
C735 C733 1.390 . S
C735 C736 1.387 . S
C735 H738 0.950 . S
C736 C735 1.387 . S
C736 C739 1.387 . S
H737 C733 0.950 . S
H738 C735 0.950 . S
C739 C730 1.390 . S
C739 H732 0.950 . S
C739 C736 1.387 . S
C740 C741 1.387 . S
C740 H744 0.950 . S
C740 C749 1.390 . S
C741 C740 1.387 . S
C741 C743 1.387 . S
H742 C749 0.950 . S
C743 C741 1.387 . S
C743 C745 1.390 . S
C743 H747 0.950 . S
H744 C740 0.950 . S
C745 C743 1.390 . S
C745 C746 1.387 . S
C745 H748 0.950 . S
C746 C745 1.387 . S
C746 C749 1.387 . S
H747 C743 0.950 . S
H748 C745 0.950 . S
C749 C740 1.390 . S
C749 H742 0.950 . S
C749 C746 1.387 . S
C750 C751 1.387 . S
C750 H754 0.950 . S
C750 C759 1.390 . S
C751 C750 1.387 . S
C751 C753 1.387 . S
H752 C759 0.950 . S
C753 C751 1.387 . S
C753 C755 1.390 . S
C753 H757 0.950 . S
H754 C750 0.950 . S
C755 C753 1.390 . S
C755 C756 1.387 . S
C755 H758 0.950 . S
C756 C755 1.387 . S
C756 C759 1.387 . S
H757 C753 0.950 . S
H758 C755 0.950 . S
C759 C750 1.390 . S
C759 H752 0.950 . S
C759 C756 1.387 . S
C760 C761 1.387 . S
C760 H764 0.950 . S
C760 C769 1.390 . S
C761 C760 1.387 . S
C761 C763 1.387 . S
H762 C769 0.950 . S
C763 C761 1.387 . S
C763 C765 1.390 . S
C763 H767 0.950 . S
H764 C760 0.950 . S
C765 C763 1.390 . S
C765 C766 1.387 . S
C765 H768 0.950 . S
C766 C765 1.387 . S
C766 C769 1.387 . S
H767 C763 0.950 . S
H768 C765 0.950 . S
C769 C760 1.390 . S
C769 H762 0.950 . S
C769 C766 1.387 . S
C770 C771 1.387 . S
C770 H774 0.950 . S
C770 C779 1.390 . S
C771 C770 1.387 . S
C771 C773 1.387 . S
H772 C779 0.950 . S
C773 C771 1.387 . S
C773 C775 1.390 . S
C773 H777 0.950 . S
H774 C770 0.950 . S
C775 C773 1.390 . S
C775 C776 1.387 . S
C775 H778 0.950 . S
C776 C775 1.387 . S
C776 C779 1.387 . S
H777 C773 0.950 . S
H778 C775 0.950 . S
C779 C770 1.390 . S
C779 H772 0.950 . S
C779 C776 1.387 . S
C780 C781 1.387 . S
C780 H784 0.950 . S
C780 C789 1.390 . S
C781 C780 1.387 . S
C781 C783 1.387 . S
H782 C789 0.950 . S
C783 C781 1.387 . S
C783 C785 1.390 . S
C783 H787 0.950 . S
H784 C780 0.950 . S
C785 C783 1.390 . S
C785 C786 1.387 . S
C785 H788 0.950 . S
C786 C785 1.387 . S
C786 C789 1.387 . S
H787 C783 0.950 . S
H788 C785 0.950 . S
C789 C780 1.390 . S
C789 H782 0.950 . S
C789 C786 1.387 . S
C790 C791 1.387 . S
C790 H794 0.950 . S
C790 C799 1.390 . S
C791 C790 1.387 . S
C791 C793 1.387 . S
H792 C799 0.950 . S
C793 C791 1.387 . S
C793 C795 1.390 . S
C793 H797 0.950 . S
H794 C790 0.950 . S
C795 C793 1.390 . S
C795 C796 1.387 . S
C795 H798 0.950 . S
C796 C795 1.387 . S
C796 C799 1.387 . S
H797 C793 0.950 . S
H798 C795 0.950 . S
C799 C790 1.390 . S
C799 H792 0.950 . S
C799 C796 1.387 . S
C800 C801 1.387 . S
C800 H804 0.950 . S
C800 C809 1.390 . S
C801 C800 1.387 . S
C801 C803 1.387 . S
H802 C809 0.950 . S
C803 C801 1.387 . S
C803 C805 1.390 . S
C803 H807 0.950 . S
H804 C800 0.950 . S
C805 C803 1.390 . S
C805 C806 1.387 . S
C805 H808 0.950 . S
C806 C805 1.387 . S
C806 C809 1.387 . S
H807 C803 0.950 . S
H808 C805 0.950 . S
C809 C800 1.390 . S
C809 H802 0.950 . S
C809 C806 1.387 . S
C810 C811 1.387 . S
C810 H814 0.950 . S
C810 C819 1.390 . S
C811 C810 1.387 . S
C811 C813 1.387 . S
H812 C819 0.950 . S
C813 C811 1.387 . S
C813 C815 1.390 . S
C813 H817 0.950 . S
H814 C810 0.950 . S
C815 C813 1.390 . S
C815 C816 1.387 . S
C815 H818 0.950 . S
C816 C815 1.387 . S
C816 C819 1.387 . S
H817 C813 0.950 . S
H818 C815 0.950 . S
C819 C810 1.390 . S
C819 H812 0.950 . S
C819 C816 1.387 . S
C820 C821 1.387 . S
C820 H824 0.950 . S
C820 C829 1.390 . S
C821 C820 1.387 . S
C821 C823 1.387 . S
H822 C829 0.950 . S
C823 C821 1.387 . S
C823 C825 1.390 . S
C823 H827 0.950 . S
H824 C820 0.950 . S
C825 C823 1.390 . S
C825 C826 1.387 . S
C825 H828 0.950 . S
C826 C825 1.387 . S
C826 C829 1.387 . S
H827 C823 0.950 . S
H828 C825 0.950 . S
C829 C820 1.390 . S
C829 H822 0.950 . S
C829 C826 1.387 . S
C830 C831 1.387 . S
C830 H834 0.950 . S
C830 C839 1.390 . S
C831 C830 1.387 . S
C831 C833 1.387 . S
H832 C839 0.950 . S
C833 C831 1.387 . S
C833 C835 1.390 . S
C833 H837 0.950 . S
H834 C830 0.950 . S
C835 C833 1.390 . S
C835 C836 1.387 . S
C835 H838 0.950 . S
C836 C835 1.387 . S
C836 C839 1.387 . S
H837 C833 0.950 . S
H838 C835 0.950 . S
C839 C830 1.390 . S
C839 H832 0.950 . S
C839 C836 1.387 . S
C481 C97 1.346 . S
C486 C24 1.344 . S
C491 C146 1.348 . S
C496 C53 1.346 . S
C501 C104 1.346 . S
C506 C177 1.348 . S
C511 C133 1.348 . S
C516 C226 1.350 . S
C521 C17 1.347 . S
C526 C184 1.345 . S
C531 C66 1.348 . S
C536 C213 1.347 . S
C541 C426 1.347 . S
C546 C253 1.345 . S
C551 C304 1.348 . S
C556 C457 1.350 . S
C561 C333 1.348 . S
C566 C266 1.350 . S
C571 C384 1.345 . S
C576 C297 1.347 . S
C581 C413 1.344 . S
C586 C346 1.346 . S
C591 C377 1.348 . S
C596 C464 1.346 . S
C601 C122 1.720 . S
C606 C23 1.720 . S
C611 C42 1.721 . S
C616 C183 1.719 . S
C621 C103 1.719 . S
C626 C202 1.721 . S
C631 C242 1.719 . S
C636 C383 1.720 . S
C641 C303 1.720 . S
C646 C402 1.720 . S
C651 C322 1.719 . S
C656 C463 1.721 . S
C661 C282 2.513 . S
C666 C2 2.513 . S
C671 C63 2.512 . S
C676 C343 2.512 . S
C681 C362 2.511 . S
C686 C82 2.512 . S
C691 C143 2.511 . S
C696 C423 2.511 . S
C701 C162 2.512 . S
C706 C442 2.512 . S
C711 C263 2.513 . S
C716 C223 2.513 . S
C721 C106 1.615 . S
C726 C13 1.615 . S
C731 C64 1.617 . S
C736 C137 1.617 . S
C741 C93 1.616 . S
C746 C186 1.616 . S
C751 C144 1.615 . S
C756 C217 1.615 . S
C761 C26 1.615 . S
C766 C173 1.615 . S
C771 C57 1.615 . S
C776 C224 1.615 . S
C781 C417 1.615 . S
C786 C264 1.615 . S
C791 C293 1.618 . S
C796 C466 1.618 . S
C801 C344 1.616 . S
C806 C257 1.616 . S
C811 C306 1.617 . S
C816 C373 1.617 . S
C821 C424 1.618 . S
C826 C337 1.618 . S
C831 C453 1.616 . S
C836 C386 1.616 . S
