# Generated by pormake.
# Topology umm, (4)-cn, num edge types: 1
# Building blocks:
#     Node 0, Type 0, BuildingBlock: QUQFOY_clean_sbu_1, # of connection points: 4
#     Node 1, Type 0, BuildingBlock: QUQFOY_clean_sbu_1, # of connection points: 4
#     Node 2, Type 0, BuildingBlock: QUQFOY_clean_sbu_1, # of connection points: 4
#     Node 3, Type 0, BuildingBlock: QUQFOY_clean_sbu_1, # of connection points: 4
#     Node 4, Type 0, BuildingBlock: QUQFOY_clean_sbu_1, # of connection points: 4
#     Node 5, Type 0, BuildingBlock: QUQFOY_clean_sbu_1, # of connection points: 4
#     Node 6, Type 0, BuildingBlock: QUQFOY_clean_sbu_1, # of connection points: 4
#     Node 7, Type 0, BuildingBlock: QUQFOY_clean_sbu_1, # of connection points: 4
#     Node 8, Type 0, BuildingBlock: QUQFOY_clean_sbu_1, # of connection points: 4
#     Node 9, Type 0, BuildingBlock: QUQFOY_clean_sbu_1, # of connection points: 4
#     Node 10, Type 0, BuildingBlock: QUQFOY_clean_sbu_1, # of connection points: 4
#     Node 11, Type 0, BuildingBlock: QUQFOY_clean_sbu_1, # of connection points: 4
#     Edge 12, Type (0, 0), BuildingBlock: KIFKEQ_clean_linker_1, # of connection points: 2
#     Edge 13, Type (0, 0), BuildingBlock: KIFKEQ_clean_linker_1, # of connection points: 2
#     Edge 14, Type (0, 0), BuildingBlock: KIFKEQ_clean_linker_1, # of connection points: 2
#     Edge 15, Type (0, 0), BuildingBlock: KIFKEQ_clean_linker_1, # of connection points: 2
#     Edge 16, Type (0, 0), BuildingBlock: KIFKEQ_clean_linker_1, # of connection points: 2
#     Edge 17, Type (0, 0), BuildingBlock: KIFKEQ_clean_linker_1, # of connection points: 2
#     Edge 18, Type (0, 0), BuildingBlock: KIFKEQ_clean_linker_1, # of connection points: 2
#     Edge 19, Type (0, 0), BuildingBlock: KIFKEQ_clean_linker_1, # of connection points: 2
#     Edge 20, Type (0, 0), BuildingBlock: KIFKEQ_clean_linker_1, # of connection points: 2
#     Edge 21, Type (0, 0), BuildingBlock: KIFKEQ_clean_linker_1, # of connection points: 2
#     Edge 22, Type (0, 0), BuildingBlock: KIFKEQ_clean_linker_1, # of connection points: 2
#     Edge 23, Type (0, 0), BuildingBlock: KIFKEQ_clean_linker_1, # of connection points: 2
#     Edge 24, Type (0, 0), BuildingBlock: KIFKEQ_clean_linker_1, # of connection points: 2
#     Edge 25, Type (0, 0), BuildingBlock: KIFKEQ_clean_linker_1, # of connection points: 2
#     Edge 26, Type (0, 0), BuildingBlock: KIFKEQ_clean_linker_1, # of connection points: 2
#     Edge 27, Type (0, 0), BuildingBlock: KIFKEQ_clean_linker_1, # of connection points: 2
#     Edge 28, Type (0, 0), BuildingBlock: KIFKEQ_clean_linker_1, # of connection points: 2
#     Edge 29, Type (0, 0), BuildingBlock: KIFKEQ_clean_linker_1, # of connection points: 2
#     Edge 30, Type (0, 0), BuildingBlock: KIFKEQ_clean_linker_1, # of connection points: 2
#     Edge 31, Type (0, 0), BuildingBlock: KIFKEQ_clean_linker_1, # of connection points: 2
#     Edge 32, Type (0, 0), BuildingBlock: KIFKEQ_clean_linker_1, # of connection points: 2
#     Edge 33, Type (0, 0), BuildingBlock: KIFKEQ_clean_linker_1, # of connection points: 2
#     Edge 34, Type (0, 0), BuildingBlock: KIFKEQ_clean_linker_1, # of connection points: 2
#     Edge 35, Type (0, 0), BuildingBlock: KIFKEQ_clean_linker_1, # of connection points: 2
# Relax obj value: 0.042
# Max RMSD: 0.170
# Mean RMSD: 0.170
data_MOF--net-umm--node1-QUQFOY_clean_sbu_1--edge1-KIFKEQ_clean_linker_1
_symmetry_space_group_name_H-M    P1
_symmetry_Int_Tables_number       1
_symmetry_cell_setting            triclinic
loop_
_symmetry_equiv_pos_as_xyz
'x, y, z'
_cell_length_a     57.870492
_cell_length_b     58.01616
_cell_length_c     29.322292
_cell_angle_alpha  89.975959
_cell_angle_beta   90.065236
_cell_angle_gamma 119.99905
loop_
_atom_site_label
_atom_site_type_symbol
_atom_site_fract_x
_atom_site_fract_y
_atom_site_fract_z
_atom_type_partial_charge
O0 O 0.46426 0.56767 0.11139 0.0
Cd1 Cd 0.4416 0.58596 0.11425 0.0
Cd2 Cd 0.40709 0.53963 0.06761 0.0
O3 O 0.43447 0.52772 0.08646 0.0
O4 O 0.45883 0.61296 0.16365 0.0
O5 O 0.41771 0.57891 0.16876 0.0
C6 C 0.4375 0.59948 0.18755 0.0
C7 C 0.36056 0.51436 0.06364 0.0
C8 C 0.45789 0.54392 0.10113 0.0
C9 C 0.43067 0.59283 0.01862 0.0
O10 O 0.41889 0.56763 0.0172 0.0
O11 O 0.44059 0.60533 0.05561 0.0
O12 O 0.37545 0.5096 0.03709 0.0
O13 O 0.37209 0.5311 0.0966 0.0
O14 O 0.9187 0.45257 0.43396 0.0
Cd15 Cd 0.87783 0.42832 0.43519 0.0
Cd16 Cd 0.89114 0.39508 0.3952 0.0
O17 O 0.92953 0.42192 0.41857 0.0
O18 O 0.86434 0.44303 0.48336 0.0
O19 O 0.86293 0.40432 0.4897 0.0
C20 C 0.85903 0.42242 0.50773 0.0
C21 C 0.86484 0.3491 0.40007 0.0
C22 C 0.93638 0.44583 0.42921 0.0
C23 C 0.86306 0.41601 0.33818 0.0
O24 O 0.87863 0.40656 0.33902 0.0
O25 O 0.85762 0.4243 0.37452 0.0
O26 O 0.88638 0.3599 0.37588 0.0
O27 O 0.86058 0.36439 0.42667 0.0
O28 O 0.48899 0.90766 0.77121 0.0
Cd29 Cd 0.4724 0.86681 0.7702 0.0
Cd30 Cd 0.5198 0.88174 0.73444 0.0
O31 O 0.53117 0.91915 0.76139 0.0
O32 O 0.44295 0.85364 0.81611 0.0
O33 O 0.47893 0.84999 0.82516 0.0
C34 C 0.45692 0.84707 0.84165 0.0
C35 C 0.53775 0.85388 0.73973 0.0
C36 C 0.5135 0.92554 0.77003 0.0
C37 C 0.47303 0.85587 0.67222 0.0
O38 O 0.49781 0.87236 0.676 0.0
O39 O 0.45827 0.848 0.70755 0.0
O40 O 0.5501 0.87608 0.71757 0.0
O41 O 0.51732 0.84955 0.76408 0.0
O42 O 0.59923 0.47394 0.10096 0.0
Cd43 Cd 0.62313 0.45698 0.10181 0.0
Cd44 Cd 0.6567 0.50393 0.06281 0.0
O45 O 0.62978 0.51548 0.08599 0.0
O46 O 0.60672 0.42845 0.14903 0.0
O47 O 0.64683 0.46393 0.15646 0.0
C48 C 0.62762 0.44235 0.17382 0.0
C49 C 0.70281 0.5237 0.06819 0.0
C50 C 0.60582 0.49827 0.09643 0.0
C51 C 0.63561 0.45507 1.005 0.0
O52 O 0.64538 0.4801 1.00641 0.0
O53 O 0.62688 0.44103 0.04093 0.0
O54 O 0.69204 0.53443 0.04391 0.0
O55 O 0.6874 0.50406 0.09457 0.0
O56 O 0.14753 0.58736 0.42522 0.0
Cd57 Cd 0.1883 0.6124 0.42614 0.0
Cd58 Cd 0.17368 0.64528 0.38924 0.0
O59 O 0.13588 0.6178 0.41397 0.0
O60 O 0.20281 0.59829 0.47378 0.0
O61 O 0.20258 0.63616 0.48097 0.0
C62 C 0.20732 0.61851 0.49859 0.0
C63 C 0.19996 0.69116 0.39583 0.0
C64 C 0.12953 0.5938 0.42288 0.0
C65 C 0.20226 0.62647 0.32931 0.0
O66 O 0.18577 0.63478 0.33146 0.0
O67 O 0.20857 0.6183 0.36492 0.0
O68 O 0.17809 0.68069 0.37242 0.0
O69 O 0.20454 0.67551 0.42092 0.0
O70 O 0.58039 0.13542 0.77059 0.0
Cd71 Cd 0.59614 0.17606 0.77015 0.0
Cd72 Cd 0.54943 0.16147 0.7294 0.0
O73 O 0.53864 0.12364 0.75447 0.0
O74 O 0.62428 0.19062 0.81847 0.0
O75 O 0.5864 0.1912 0.82346 0.0
C76 C 0.60858 0.1958 0.842 0.0
C77 C 0.52915 0.18729 0.73358 0.0
C78 C 0.55608 0.1174 0.7661 0.0
C79 C 0.59852 0.18965 0.67269 0.0
O80 O 0.57353 0.17379 0.67332 0.0
O81 O 0.61219 0.19565 0.7092 0.0
O82 O 0.5186 0.16565 0.70975 0.0
O83 O 0.54892 0.19198 0.76012 0.0
O84 O 0.48653 0.58836 0.59765 0.0
Cd85 Cd 0.47049 0.61307 0.59812 0.0
Cd86 Cd 0.51871 0.64603 0.63297 0.0
O87 O 0.52886 0.61854 0.60783 0.0
O88 O 0.44101 0.59727 0.55213 0.0
O89 O 0.47757 0.6364 0.54319 0.0
C90 C 0.45534 0.61768 0.52666 0.0
C91 C 0.5377 0.69173 0.6249 0.0
C92 C 0.51094 0.59459 0.59917 0.0
C93 C 0.4721 0.62747 0.69511 0.0
O94 O 0.49691 0.63589 0.69169 0.0
O95 O 0.45699 0.61896 0.66024 0.0
O96 O 0.54974 0.68183 0.64798 0.0
O97 O 0.51712 0.67558 0.60088 0.0
O98 O 0.91949 0.47516 0.91942 0.0
Cd99 Cd 0.87865 0.45894 0.91807 0.0
Cd100 Cd 0.89235 0.50566 0.95727 0.0
O101 O 0.93058 0.51684 0.93329 0.0
O102 O 0.86483 0.4306 0.87011 0.0
O103 O 0.86392 0.46815 0.86336 0.0
C104 C 0.85973 0.446 0.84554 0.0
C105 C 0.86561 0.52491 0.95184 0.0
C106 C 0.93728 0.49955 0.92335 0.0
C107 C 0.86425 0.45722 0.01506 0.0
O108 O 0.88019 0.48214 0.01395 0.0
O109 O 0.85841 0.44333 0.97884 0.0
O110 O 0.88732 0.53609 0.97566 0.0
O111 O 0.86141 0.50516 0.92582 0.0
O112 O 0.46471 0.90708 0.25306 0.0
Cd113 Cd 0.43981 0.86632 0.25194 0.0
Cd114 Cd 0.40727 0.88153 0.28332 0.0
O115 O 0.43353 0.9183 0.25401 0.0
O116 O 0.456 0.8528 0.20644 0.0
O117 O 0.41707 0.8506 0.19603 0.0
C118 C 0.43588 0.84703 0.1802 0.0
C119 C 0.36151 0.85305 0.27777 0.0
C120 C 0.45802 0.92484 0.25014 0.0
C121 C 0.42665 0.85605 0.34884 0.0
O122 O 0.41969 0.87345 0.34344 0.0
O123 O 0.43295 0.84699 0.31439 0.0
O124 O 0.37098 0.87572 0.29833 0.0
O125 O 0.37794 0.84852 0.25492 0.0
O126 O 0.57727 0.45131 0.58479 0.0
Cd127 Cd 0.59448 0.42765 0.58429 0.0
Cd128 Cd 0.54744 0.39403 0.62338 0.0
O129 O 0.53577 0.4209 0.60089 0.0
O130 O 0.62312 0.44421 0.53722 0.0
O131 O 0.58774 0.40408 0.52968 0.0
C132 C 0.60931 0.42336 0.51238 0.0
C133 C 0.52762 0.3481 0.61736 0.0
C134 C 0.55292 0.44473 0.58989 0.0
C135 C 0.59648 0.41515 0.68122 0.0
O136 O 0.57135 0.40511 0.67974 0.0
O137 O 0.61055 0.42412 0.64535 0.0
O138 O 0.5169 0.35872 0.64199 0.0
O139 O 0.54726 0.36359 0.59103 0.0
O140 O 0.14868 0.56898 0.91284 0.0
Cd141 Cd 0.18954 0.58547 0.91018 0.0
Cd142 Cd 0.17648 0.53896 0.95365 0.0
O143 O 0.13764 0.5281 0.93343 0.0
O144 O 0.20225 0.61266 0.86052 0.0
O145 O 0.20411 0.57553 0.85609 0.0
C146 C 0.20767 0.59716 0.837 0.0
C147 C 0.19797 0.51399 0.9546 0.0
C148 C 0.13089 0.54499 0.92078 0.0
C149 C 0.20675 0.59042 1.00597 0.0
O150 O 0.19204 0.56532 1.00652 0.0
O151 O 0.21054 0.60348 0.96925 0.0
O152 O 0.1778 0.50801 0.98069 0.0
O153 O 0.20354 0.53181 0.92345 0.0
O154 O 0.59787 0.13614 0.2538 0.0
Cd155 Cd 0.62307 0.1767 0.25185 0.0
Cd156 Cd 0.65639 0.16238 0.28602 0.0
O157 O 0.62909 0.12502 0.25906 0.0
O158 O 0.60919 0.19136 0.2042 0.0
O159 O 0.64694 0.19066 0.19724 0.0
C160 C 0.62948 0.19572 0.17959 0.0
C161 C 0.70245 0.1889 0.28046 0.0
C162 C 0.60467 0.11842 0.25327 0.0
C163 C 0.63716 0.18983 0.34802 0.0
O164 O 0.6454 0.17332 0.34481 0.0
O165 O 0.62924 0.19679 0.31292 0.0
O166 O 0.69192 0.16669 0.30266 0.0
O167 O 0.68681 0.19385 0.25595 0.0
H168 H 0.39488 0.57805 0.24644 0.0
H169 H 0.479 0.63564 0.23918 0.0
H170 H 0.39563 0.58563 0.32848 0.0
H171 H 0.48015 0.64228 0.32087 0.0
H172 H 0.47709 0.65968 0.46704 0.0
H173 H 0.46937 0.65848 0.38508 0.0
H174 H 0.41057 0.57481 0.39472 0.0
H175 H 0.41736 0.5765 0.4766 0.0
C176 C 0.41348 0.59247 0.26229 0.0
C177 C 0.43689 0.60613 0.23625 0.0
C178 C 0.414 0.59668 0.30946 0.0
C179 C 0.43802 0.61442 0.33181 0.0
C180 C 0.46115 0.62879 0.3052 0.0
C181 C 0.46055 0.62483 0.25811 0.0
C182 C 0.46213 0.64119 0.45169 0.0
C183 C 0.44798 0.61816 0.47833 0.0
C184 C 0.45785 0.6404 0.40455 0.0
C185 C 0.43962 0.61643 0.38274 0.0
C186 C 0.42455 0.59375 0.40996 0.0
C187 C 0.42855 0.59466 0.45714 0.0
H188 H 0.8389 0.45048 0.55046 0.0
H189 H 0.86279 0.39202 0.57513 0.0
H190 H 0.83251 0.45303 0.63203 0.0
H191 H 0.85798 0.39557 0.65668 0.0
H192 H 0.83931 0.39774 0.80303 0.0
H193 H 0.83257 0.38862 0.72151 0.0
H194 H 0.85829 0.4715 0.69652 0.0
H195 H 0.86347 0.48005 0.77801 0.0
C196 C 0.84259 0.43801 0.57335 0.0
C197 C 0.85145 0.42112 0.55634 0.0
C198 C 0.8392 0.43965 0.62028 0.0
C199 C 0.84509 0.42484 0.65152 0.0
C200 C 0.85284 0.40707 0.63408 0.0
C201 C 0.85575 0.40509 0.5871 0.0
C202 C 0.84299 0.41386 0.78008 0.0
C203 C 0.85202 0.43964 0.79697 0.0
C204 C 0.83939 0.40871 0.73318 0.0
C205 C 0.84523 0.42934 0.70186 0.0
C206 C 0.85318 0.45491 0.71919 0.0
C207 C 0.8563 0.45992 0.76613 0.0
H208 H 0.47827 0.82661 0.90209 0.0
H209 H 0.41903 0.8508 0.89101 0.0
H210 H 0.46999 0.81994 0.98392 0.0
H211 H 0.41172 0.8456 0.97265 0.0
H212 H 0.39418 0.82651 0.11961 0.0
H213 H 0.39588 0.81979 0.03786 0.0
H214 H 0.47989 0.84564 0.04944 0.0
H215 H 0.47768 0.85087 0.13113 0.0
C216 C 0.4633 0.83028 0.91707 0.0
C217 C 0.44941 0.83935 0.89 0.0
C218 C 0.4587 0.82671 0.96416 0.0
C219 C 0.44039 0.83254 0.9855 0.0
C220 C 0.4257 0.84049 0.95784 0.0
C221 C 0.43001 0.84365 0.91076 0.0
C222 C 0.41286 0.83023 0.10472 0.0
C223 C 0.43581 0.83935 0.13189 0.0
C224 C 0.41394 0.82663 0.05768 0.0
C225 C 0.43813 0.83251 0.03643 0.0
C226 C 0.46077 0.8405 0.06419 0.0
C227 C 0.45957 0.84368 0.11127 0.0
H228 H 0.67002 0.4638 0.23311 0.0
H229 H 0.58634 0.40494 0.22428 0.0
H230 H 0.66913 0.45584 0.31498 0.0
H231 H 0.58499 0.39792 0.30595 0.0
H232 H 0.58801 0.38117 0.45292 0.0
H233 H 0.59586 0.38231 0.371 0.0
H234 H 0.6535 0.46634 0.38034 0.0
H235 H 0.64661 0.46476 0.46205 0.0
C236 C 0.65149 0.449 0.24858 0.0
C237 C 0.62823 0.43513 0.22218 0.0
C238 C 0.65089 0.44457 0.29567 0.0
C239 C 0.6269 0.42645 0.31761 0.0
C240 C 0.60396 0.41176 0.2906 0.0
C241 C 0.60468 0.41592 0.24353 0.0
C242 C 0.60274 0.39974 0.4375 0.0
C243 C 0.61655 0.42289 0.46401 0.0
C244 C 0.6071 0.40049 0.39039 0.0
C245 C 0.62509 0.42452 0.36852 0.0
C246 C 0.63976 0.44735 0.39562 0.0
C247 C 0.63568 0.4465 0.44272 0.0
H248 H 0.20379 0.64916 0.56567 0.0
H249 H 0.2272 0.59027 0.54183 0.0
H250 H 0.20877 0.64592 0.64722 0.0
H251 H 0.23368 0.58798 0.62351 0.0
H252 H 0.20327 0.56226 0.77048 0.0
H253 H 0.20813 0.57008 0.68868 0.0
H254 H 0.23474 0.65334 0.71153 0.0
H255 H 0.22833 0.64498 0.79321 0.0
C256 C 0.21074 0.63604 0.57781 0.0
C257 C 0.2149 0.61984 0.54726 0.0
C258 C 0.21376 0.63424 0.6248 0.0
C259 C 0.22144 0.61647 0.64252 0.0
C260 C 0.2271 0.6014 0.61152 0.0
C261 C 0.22364 0.6029 0.56454 0.0
C262 C 0.21057 0.58231 0.75803 0.0
C263 C 0.21518 0.60294 0.78828 0.0
C264 C 0.2135 0.58689 0.71094 0.0
C265 C 0.22157 0.61235 0.69294 0.0
C266 C 0.22779 0.63332 0.72371 0.0
C267 C 0.22437 0.62861 0.7707 0.0
H268 H 0.60184 0.21632 0.13649 0.0
H269 H 0.66031 0.19221 0.1128 0.0
H270 H 0.59999 0.22328 0.05489 0.0
H271 H 0.65751 0.19768 0.0313 0.0
H272 H 0.65675 0.21701 0.88544 0.0
H273 H 0.66527 0.22389 0.9671 0.0
H274 H 0.58185 0.19756 0.98989 0.0
H275 H 0.57386 0.1922 0.90822 0.0
C276 C 0.61447 0.21272 0.11384 0.0
C277 C 0.63112 0.20359 0.13109 0.0
C278 C 0.61325 0.21647 0.06692 0.0
C279 C 0.6283 0.21073 0.03599 0.0
C280 C 0.64585 0.20273 0.05371 0.0
C281 C 0.64739 0.19942 0.10065 0.0
C282 C 0.64039 0.21326 0.90793 0.0
C283 C 0.61461 0.20393 0.89041 0.0
C284 C 0.64519 0.21694 0.95488 0.0
C285 C 0.62421 0.21088 0.98561 0.0
C286 C 0.59867 0.2028 0.96763 0.0
C287 C 0.594 0.19958 0.92061 0.0
H288 H 0.33427 0.48822 0.9861 0.0
H289 H 0.32311 0.52011 0.11194 0.0
H290 H 0.29176 0.48175 0.95777 0.0
H291 H 0.28042 0.51334 0.08362 0.0
H292 H 0.19754 0.48578 0.02961 0.0
H293 H 0.23379 0.4795 0.05735 0.0
H294 H 0.2783 0.51547 0.93443 0.0
H295 H 0.24217 0.52204 0.90673 0.0
C296 C 0.32245 0.4932 1.0083 0.0
C297 C 0.33223 0.50481 0.05134 0.0
C298 C 0.29816 0.48967 0.9918 0.0
C299 C 0.28282 0.49726 0.0182 0.0
C300 C 0.29168 0.50714 0.06249 0.0
C301 C 0.31618 0.51102 0.07877 0.0
C302 C 0.21474 0.49176 1.00787 0.0
C303 C 0.21693 0.50454 0.96592 0.0
C304 C 0.23562 0.48834 0.02405 0.0
C305 C 0.25904 0.49722 0.99837 0.0
C306 C 0.26046 0.50827 0.95499 0.0
C307 C 0.23972 0.51203 0.93906 0.0
H308 H 0.81225 0.3262 0.42283 0.0
H309 H 0.8682 0.31009 0.35234 0.0
H310 H 0.77526 0.28586 0.3903 0.0
H311 H 0.83084 0.26915 0.3208 0.0
H312 H 0.74199 0.18468 0.32516 0.0
H313 H 0.7834 0.22135 0.35695 0.0
H314 H 0.76596 0.27806 0.29391 0.0
H315 H 0.72516 0.24179 0.26112 0.0
C316 C 0.81674 0.31365 0.40164 0.0
C317 C 0.84326 0.32147 0.39017 0.0
C318 C 0.79551 0.29067 0.3827 0.0
C319 C 0.80027 0.27466 0.35267 0.0
C320 C 0.8267 0.28125 0.3438 0.0
C321 C 0.84803 0.3046 0.36205 0.0
C322 C 0.7474 0.20496 0.31693 0.0
C323 C 0.73021 0.21025 0.29053 0.0
C324 C 0.77101 0.22589 0.33534 0.0
C325 C 0.77755 0.25242 0.32837 0.0
C326 C 0.76118 0.25773 0.30007 0.0
C327 C 0.73793 0.23691 0.28097 0.0
H328 H 0.50628 0.80112 0.75895 0.0
H329 H 0.58128 0.85694 0.69619 0.0
H330 H 0.50996 0.76423 0.72722 0.0
H331 H 0.58515 0.81966 0.66539 0.0
H332 H 0.58114 0.73209 0.66877 0.0
H333 H 0.58494 0.77331 0.69904 0.0
H334 H 0.51043 0.75411 0.63464 0.0
H335 H 0.50683 0.71348 0.60342 0.0
C336 C 0.52395 0.80558 0.73956 0.0
C337 C 0.54345 0.83206 0.73007 0.0
C338 C 0.5259 0.78441 0.72102 0.0
C339 C 0.54764 0.78916 0.69335 0.0
C340 C 0.56815 0.81551 0.68649 0.0
C341 C 0.56596 0.8368 0.70432 0.0
C342 C 0.56599 0.73707 0.6599 0.0
C343 C 0.54366 0.71941 0.63366 0.0
C344 C 0.56813 0.76058 0.67744 0.0
C345 C 0.54775 0.76657 0.66977 0.0
C346 C 0.52626 0.74975 0.64146 0.0
C347 C 0.52437 0.7266 0.62322 0.0
H348 H 0.74224 0.56668 0.02218 0.0
H349 H 0.72565 0.49388 0.09009 0.0
H350 H 0.7837 0.57099 0.99149 0.0
H351 H 0.76652 0.49795 0.05836 0.0
H352 H 0.81289 0.49446 0.93037 0.0
H353 H 0.77582 0.49794 0.96232 0.0
H354 H 0.83127 0.57139 0.0288 0.0
H355 H 0.86872 0.56768 0.99788 0.0
C356 C 0.74772 0.55198 0.03149 0.0
C357 C 0.73059 0.52995 0.05868 0.0
C358 C 0.77137 0.55441 0.01372 0.0
C359 C 0.77801 0.53459 0.0221 0.0
C360 C 0.76168 0.51337 0.05114 0.0
C361 C 0.7384 0.51121 0.06964 0.0
C362 C 0.81732 0.51175 0.9508 0.0
C363 C 0.84385 0.53079 0.96155 0.0
C364 C 0.79605 0.51357 0.96943 0.0
C365 C 0.80075 0.53474 0.99842 0.0
C366 C 0.82717 0.55484 1.00662 0.0
C367 C 0.84855 0.55275 0.98872 0.0
H368 H 0.2526 0.7139 0.41825 0.0
H369 H 0.19646 0.73056 0.34956 0.0
H370 H 0.28949 0.75442 0.38625 0.0
H371 H 0.23373 0.77167 0.31847 0.0
H372 H 0.32052 0.85606 0.31946 0.0
H373 H 0.27945 0.81886 0.35099 0.0
H374 H 0.30039 0.76334 0.29367 0.0
H375 H 0.34086 0.80011 0.26121 0.0
C376 C 0.24805 0.72658 0.39753 0.0
C377 C 0.2215 0.71886 0.38641 0.0
C378 C 0.26923 0.74967 0.37886 0.0
C379 C 0.2644 0.76589 0.34939 0.0
C380 C 0.23794 0.75941 0.34098 0.0
C381 C 0.21665 0.73596 0.35898 0.0
C382 C 0.31597 0.83589 0.31247 0.0
C383 C 0.33404 0.83111 0.28778 0.0
C384 C 0.29255 0.81465 0.33072 0.0
C385 C 0.28707 0.78834 0.32536 0.0
C386 C 0.30435 0.7835 0.29872 0.0
C387 C 0.32741 0.80459 0.27977 0.0
H388 H 0.55802 0.23983 0.75624 0.0
H389 H 0.48629 0.18304 0.68572 0.0
H390 H 0.55356 0.27624 0.72406 0.0
H391 H 0.4816 0.21981 0.65453 0.0
H392 H 0.48489 0.30874 0.66398 0.0
H393 H 0.48097 0.26748 0.69445 0.0
H394 H 0.55355 0.28461 0.62542 0.0
H395 H 0.55726 0.32529 0.59394 0.0
C396 C 0.54083 0.23502 0.73509 0.0
C397 C 0.52253 0.20845 0.72355 0.0
C398 C 0.53845 0.25592 0.71636 0.0
C399 C 0.51743 0.25075 0.68648 0.0
C400 C 0.49801 0.22424 0.67743 0.0
C401 C 0.50066 0.20325 0.69548 0.0
C402 C 0.49956 0.30328 0.65412 0.0
C403 C 0.52139 0.32037 0.62646 0.0
C404 C 0.49734 0.27975 0.67176 0.0
C405 C 0.51715 0.27318 0.66269 0.0
C406 C 0.53812 0.2894 0.6331 0.0
C407 C 0.54008 0.31258 0.61478 0.0
H408 H 0.4551 0.49707 0.07394 0.0
H409 H 0.50851 0.5735 0.13465 0.0
H410 H 0.49106 0.48649 0.07414 0.0
H411 H 0.54406 0.56279 0.13544 0.0
H412 H 0.60954 0.54692 0.08098 0.0
H413 H 0.57351 0.55737 0.08336 0.0
H414 H 0.51822 0.47665 0.12457 0.0
H415 H 0.55387 0.46612 0.12156 0.0
C416 C 0.47436 0.51148 0.08778 0.0
C417 C 0.4788 0.53614 0.10417 0.0
C418 C 0.495 0.50542 0.08798 0.0
C419 C 0.5206 0.52388 0.10455 0.0
C420 C 0.52483 0.54829 0.12166 0.0
C421 C 0.50426 0.55432 0.12151 0.0
C422 C 0.58975 0.53148 0.09087 0.0
C423 C 0.58471 0.50569 0.10097 0.0
C424 C 0.56906 0.53746 0.09234 0.0
C425 C 0.54283 0.51779 0.1039 0.0
C426 C 0.53798 0.49217 0.11474 0.0
C427 C 0.55859 0.48621 0.11334 0.0
H428 H 0.98088 0.44267 0.40664 0.0
H429 H 0.9567 0.49661 0.46085 0.0
H430 H 1.02733 0.47858 0.40727 0.0
H431 H 1.00298 0.53217 0.4625 0.0
H432 H 0.08422 0.59692 0.40758 0.0
H433 H 0.0379 0.56089 0.41145 0.0
H434 H 0.06434 0.50674 0.45535 0.0
H435 H 0.11045 0.54244 0.45044 0.0
C436 C 0.98548 0.46204 0.41931 0.0
C437 C 0.96497 0.46669 0.4335 0.0
C438 C 1.01215 0.48268 0.41978 0.0
C439 C 1.019 0.50844 0.43464 0.0
C440 C 0.9985 0.51281 0.44996 0.0
C441 C 0.9719 0.49227 0.44934 0.0
C442 C 0.08013 0.57738 0.41837 0.0
C443 C 0.10114 0.57265 0.42851 0.0
C444 C 0.05353 0.55668 0.42075 0.0
C445 C 0.04728 0.53075 0.4335 0.0
C446 C 0.06832 0.52624 0.44458 0.0
C447 C 0.09484 0.54686 0.44207 0.0
H448 H 0.58756 0.09854 0.79938 0.0
H449 H 0.5086 0.07209 0.74595 0.0
H450 H 0.57764 0.05267 0.8043 0.0
H451 H 0.49884 0.02602 0.74989 0.0
H452 H 0.48119 0.94454 0.79805 0.0
H453 H 0.49107 0.99046 0.8008 0.0
H454 H 0.57153 1.01684 0.75558 0.0
H455 H 0.56177 0.97073 0.75384 0.0
C456 C 0.56801 0.08293 0.78873 0.0
C457 C 0.54889 0.0891 0.77214 0.0
C458 C 0.5624 0.05656 0.79125 0.0
C459 C 0.53752 0.03553 0.77717 0.0
C460 C 0.51814 0.04163 0.76152 0.0
C461 C 0.52374 0.06809 0.75912 0.0
C462 C 0.5011 0.96011 0.78904 0.0
C463 C 0.52068 0.95385 0.7756 0.0
C464 C 0.50669 0.98651 0.79028 0.0
C465 C 0.53201 1.00746 0.77801 0.0
C466 C 0.55185 1.00128 0.76571 0.0
C467 C 0.54627 0.9748 0.76461 0.0
H468 H 0.47779 0.54338 0.57181 0.0
H469 H 0.55921 0.597 0.61293 0.0
H470 H 0.48734 0.50719 0.56619 0.0
H471 H 0.56865 0.56045 0.60827 0.0
H472 H 0.5836 0.49522 0.55726 0.0
H473 H 0.57367 0.53125 0.55638 0.0
H474 H 0.49598 0.47872 0.61393 0.0
H475 H 0.50574 0.44231 0.61389 0.0
C476 C 0.4978 0.54751 0.57963 0.0
C477 C 0.51774 0.5732 0.59294 0.0
C478 C 0.5032 0.52661 0.57671 0.0
C479 C 0.5287 0.53071 0.58709 0.0
C480 C 0.54883 0.55655 0.59953 0.0
C481 C 0.54343 0.57754 0.60235 0.0
C482 C 0.56427 0.4912 0.56944 0.0
C483 C 0.54548 0.46577 0.58576 0.0
C484 C 0.55868 0.51202 0.56926 0.0
C485 C 0.53413 0.50809 0.58549 0.0
C486 C 0.51502 0.48247 0.60075 0.0
C487 C 0.52061 0.46155 0.60082 0.0
H488 H 0.08632 0.49766 0.94437 0.0
H489 H 0.11058 0.57567 0.88973 0.0
H490 H 0.03985 0.48722 0.94331 0.0
H491 H 0.0643 0.56507 0.88784 0.0
H492 H 0.9822 0.54797 0.94051 0.0
H493 H 1.0287 0.5585 0.93836 0.0
H494 H 1.0034 0.47847 0.89318 0.0
H495 H 0.95714 0.46783 0.89618 0.0
C496 C 0.08176 0.51246 0.93166 0.0
C497 C 0.10229 0.53751 0.91725 0.0
C498 C 0.05507 0.50647 0.93091 0.0
C499 C 0.04824 0.52536 0.91568 0.0
C500 C 0.06877 0.5502 0.90055 0.0
C501 C 0.09537 0.55619 0.90133 0.0
C502 C 0.98658 0.5327 0.92978 0.0
C503 C 0.96583 0.50704 0.91867 0.0
C504 C 1.01328 0.53874 0.92843 0.0
C505 C 1.01989 0.51927 0.91587 0.0
C506 C 0.99912 0.49382 0.90385 0.0
C507 C 0.97252 0.4878 0.90525 0.0
H508 H 0.45346 0.96804 0.22397 0.0
H509 H 0.51107 0.94576 0.26652 0.0
H510 H 0.48899 1.01447 0.21913 0.0
H511 H 0.5461 0.99191 0.26439 0.0
H512 H 0.60986 0.07535 0.22895 0.0
H513 H 0.5745 0.02894 0.22232 0.0
H514 H 0.51641 0.05113 0.26298 0.0
H515 H 0.55136 0.09729 0.26688 0.0
C516 C 0.47367 0.97307 0.23245 0.0
C517 C 0.47935 0.95314 0.24555 0.0
C518 C 0.49412 0.99976 0.23003 0.0
C519 C 0.52068 1.00728 0.24154 0.0
C520 C 0.52621 0.98715 0.25428 0.0
C521 C 0.50593 0.96053 0.25587 0.0
C522 C 0.58948 0.07024 0.23611 0.0
C523 C 0.5835 0.09007 0.24836 0.0
C524 C 0.56913 0.04356 0.23263 0.0
C525 C 0.54232 0.03595 0.24221 0.0
C526 C 0.53652 0.05597 0.25429 0.0
C527 C 0.55673 0.0826 0.25693 0.0
H528 H 0.42637 0.5889 0.7346 0.0
H529 H 0.49434 0.66686 0.75759 0.0
H530 H 0.41398 0.58631 0.81456 0.0
H531 H 0.48114 0.66541 0.83681 0.0
H532 H 0.47669 0.63205 0.98207 0.0
H533 H 0.48386 0.645 0.90217 0.0
H534 H 0.39877 0.59815 0.87789 0.0
H535 H 0.39221 0.58384 0.95728 0.0
C536 C 0.43809 0.60583 0.75658 0.0
C537 C 0.46144 0.62786 0.74041 0.0
C538 C 0.43097 0.60453 0.80248 0.0
C539 C 0.44677 0.62555 0.83276 0.0
C540 C 0.46893 0.6485 0.81514 0.0
C541 C 0.4764 0.64946 0.76966 0.0
C542 C 0.45955 0.62528 0.9598 0.0
C543 C 0.43399 0.60692 0.97542 0.0
C544 C 0.46354 0.63267 0.91383 0.0
C545 C 0.44192 0.6222 0.88293 0.0
C546 C 0.41601 0.60593 0.9001 0.0
C547 C 0.41215 0.59802 0.94572 0.0
H548 H 0.86366 0.45928 0.30133 0.0
H549 H 0.83945 0.37717 0.27509 0.0
H550 H 0.85626 0.46522 0.22155 0.0
H551 H 0.82992 0.38217 0.19592 0.0
H552 H 0.86329 0.41382 0.05219 0.0
H553 H 0.85524 0.40043 0.13188 0.0
H554 H 0.83154 0.45926 0.15703 0.0
H555 H 0.84173 0.47378 0.07799 0.0
C556 C 0.85569 0.44225 0.27868 0.0
C557 C 0.85234 0.41791 0.29387 0.0
C558 C 0.8513 0.44552 0.23283 0.0
C559 C 0.84287 0.42426 0.20162 0.0
C560 C 0.83722 0.39923 0.21832 0.0
C561 C 0.84235 0.39623 0.26378 0.0
C562 C 0.85579 0.42337 0.07472 0.0
C563 C 0.85337 0.44492 0.05945 0.0
C564 C 0.85101 0.41568 0.12051 0.0
C565 C 0.84311 0.42904 0.15156 0.0
C566 C 0.83842 0.44906 0.13477 0.0
C567 C 0.84394 0.45721 0.08938 0.0
H568 H 0.42078 0.83298 0.64392 0.0
H569 H 0.50051 0.85826 0.59588 0.0
H570 H 0.40459 0.82434 0.56501 0.0
H571 H 0.48461 0.85017 0.51787 0.0
H572 H 0.40497 0.86393 0.42514 0.0
H573 H 0.41172 0.85557 0.5036 0.0
H574 H 0.45734 0.81948 0.45804 0.0
H575 H 0.45095 0.82839 0.37874 0.0
C576 C 0.43471 0.83625 0.61668 0.0
C577 C 0.46197 0.84679 0.626 0.0
C578 C 0.4255 0.83139 0.57154 0.0
C579 C 0.44337 0.83678 0.53512 0.0
C580 C 0.47024 0.84554 0.54497 0.0
C581 C 0.47942 0.85052 0.5898 0.0
C582 C 0.4162 0.85392 0.43167 0.0
C583 C 0.42792 0.84733 0.39573 0.0
C584 C 0.41977 0.8488 0.47678 0.0
C585 C 0.4352 0.83701 0.48716 0.0
C586 C 0.44558 0.82889 0.4511 0.0
C587 C 0.4419 0.83393 0.40572 0.0
H588 H 0.63927 0.45812 0.71889 0.0
H589 H 0.58049 0.37608 0.74402 0.0
H590 H 0.65228 0.46363 0.79884 0.0
H591 H 0.59465 0.38067 0.82336 0.0
H592 H 0.59278 0.41218 0.96721 0.0
H593 H 0.58756 0.39903 0.88738 0.0
H594 H 0.67066 0.45697 0.86336 0.0
H595 H 0.67492 0.47125 0.94254 0.0
C596 C 0.62992 0.44101 0.74133 0.0
C597 C 0.60878 0.41682 0.72579 0.0
C598 C 0.63739 0.44403 0.78726 0.0
C599 C 0.62421 0.42268 0.81818 0.0
C600 C 0.60468 0.39779 0.80116 0.0
C601 C 0.59675 0.39503 0.75561 0.0
C602 C 0.60998 0.42158 0.94489 0.0
C603 C 0.63411 0.44283 0.96051 0.0
C604 C 0.60713 0.41403 0.89904 0.0
C605 C 0.62861 0.42723 0.86829 0.0
C606 C 0.65343 0.44691 0.88542 0.0
C607 C 0.65601 0.45493 0.93087 0.0
H608 H 0.2032 0.63142 0.04297 0.0
H609 H 0.23376 0.57835 0.06765 0.0
H610 H 0.20985 0.64439 0.12288 0.0
H611 H 0.24249 0.59262 0.14702 0.0
H612 H 0.20685 0.58631 0.29054 0.0
H613 H 0.21616 0.58283 0.21069 0.0
H614 H 0.23359 0.66374 0.18809 0.0
H615 H 0.22223 0.66612 0.26722 0.0
C616 C 0.21249 0.62349 0.06525 0.0
C617 C 0.21782 0.60384 0.04959 0.0
C618 C 0.21641 0.63091 0.11121 0.0
C619 C 0.22628 0.61919 0.14209 0.0
C620 C 0.23404 0.60144 0.12487 0.0
C621 C 0.22942 0.59352 0.07927 0.0
C622 C 0.21321 0.60344 0.26852 0.0
C623 C 0.21353 0.6263 0.28454 0.0
C624 C 0.21873 0.60161 0.22266 0.0
C625 C 0.22528 0.6229 0.19228 0.0
C626 C 0.22782 0.64663 0.20981 0.0
C627 C 0.22158 0.64813 0.25526 0.0
H628 H 0.63979 0.18678 0.63502 0.0
H629 H 0.58475 0.21507 0.61072 0.0
H630 H 0.65301 0.19414 0.55526 0.0
H631 H 0.59934 0.22469 0.5316 0.0
H632 H 0.59597 0.19265 0.3865 0.0
H633 H 0.59117 0.20007 0.46669 0.0
H634 H 0.67253 0.21866 0.49131 0.0
H635 H 0.67617 0.20898 0.41167 0.0
C636 C 0.63138 0.19563 0.61279 0.0
C637 C 0.61121 0.2002 0.62848 0.0
C638 C 0.63899 0.20002 0.56696 0.0
C639 C 0.62695 0.20966 0.53629 0.0
C640 C 0.60845 0.21645 0.55354 0.0
C641 C 0.6003 0.21129 0.59898 0.0
C642 C 0.61289 0.19883 0.40909 0.0
C643 C 0.63626 0.19997 0.39342 0.0
C644 C 0.61031 0.20327 0.45516 0.0
C645 C 0.63135 0.20961 0.48615 0.0
C646 C 0.65557 0.21297 0.46909 0.0
C647 C 0.65781 0.20773 0.42338 0.0
loop_
_geom_bond_atom_site_label_1
_geom_bond_atom_site_label_2
_geom_bond_distance
_geom_bond_site_symmetry_2
_ccdc_geom_bond_type
O0 Cd1 2.223 . S
O0 C8 1.315 . S
Cd1 O0 2.223 . S
Cd1 O4 2.297 . S
Cd1 O5 2.439 . S
Cd1 O11 2.240 . S
Cd2 O3 2.240 . S
Cd2 O10 2.223 1_554 S
Cd2 O12 2.297 . S
Cd2 O13 2.439 . S
O3 Cd2 2.240 . S
O3 C8 1.279 . S
O4 Cd1 2.297 . S
O4 C6 1.247 . S
O5 Cd1 2.439 . S
O5 C6 1.208 . S
C6 O4 1.247 . S
C6 O5 1.208 . S
C7 O12 1.246 . S
C7 O13 1.208 . S
C8 O0 1.315 . S
C8 O3 1.279 . S
C9 O10 1.315 . S
C9 O11 1.279 1_556 S
O10 Cd2 2.223 1_556 S
O10 C9 1.315 . S
O11 Cd1 2.240 . S
O11 C9 1.279 1_554 S
O12 Cd2 2.297 . S
O12 C7 1.246 . S
O13 Cd2 2.439 . S
O13 C7 1.208 . S
O14 Cd15 2.223 . S
O14 C22 1.315 . S
Cd15 O14 2.223 . S
Cd15 O18 2.297 . S
Cd15 O19 2.439 . S
Cd15 O25 2.240 . S
Cd16 O17 2.240 . S
Cd16 O24 2.223 . S
Cd16 O26 2.297 . S
Cd16 O27 2.439 . S
O17 Cd16 2.240 . S
O17 C22 1.279 . S
O18 Cd15 2.297 . S
O18 C20 1.247 . S
O19 Cd15 2.439 . S
O19 C20 1.208 . S
C20 O18 1.247 . S
C20 O19 1.208 . S
C21 O26 1.247 . S
C21 O27 1.208 . S
C22 O14 1.315 . S
C22 O17 1.279 . S
C23 O24 1.315 . S
C23 O25 1.279 . S
O24 Cd16 2.223 . S
O24 C23 1.315 . S
O25 Cd15 2.240 . S
O25 C23 1.279 . S
O26 Cd16 2.297 . S
O26 C21 1.247 . S
O27 Cd16 2.439 . S
O27 C21 1.208 . S
O28 Cd29 2.223 . S
O28 C36 1.315 . S
Cd29 O28 2.223 . S
Cd29 O32 2.297 . S
Cd29 O33 2.439 . S
Cd29 O39 2.240 . S
Cd30 O31 2.240 . S
Cd30 O38 2.223 . S
Cd30 O40 2.297 . S
Cd30 O41 2.439 . S
O31 Cd30 2.240 . S
O31 C36 1.279 . S
O32 Cd29 2.297 . S
O32 C34 1.247 . S
O33 Cd29 2.439 . S
O33 C34 1.208 . S
C34 O32 1.247 . S
C34 O33 1.208 . S
C35 O40 1.247 . S
C35 O41 1.208 . S
C36 O28 1.315 . S
C36 O31 1.279 . S
C37 O38 1.315 . S
C37 O39 1.279 . S
O38 Cd30 2.223 . S
O38 C37 1.315 . S
O39 Cd29 2.240 . S
O39 C37 1.279 . S
O40 Cd30 2.297 . S
O40 C35 1.247 . S
O41 Cd30 2.439 . S
O41 C35 1.208 . S
O42 Cd43 2.223 . S
O42 C50 1.315 . S
Cd43 O42 2.223 . S
Cd43 O46 2.297 . S
Cd43 O47 2.439 . S
Cd43 O53 2.240 . S
Cd44 O45 2.240 . S
Cd44 O52 2.223 1_554 S
Cd44 O54 2.297 . S
Cd44 O55 2.439 . S
O45 Cd44 2.240 . S
O45 C50 1.279 . S
O46 Cd43 2.297 . S
O46 C48 1.247 . S
O47 Cd43 2.439 . S
O47 C48 1.208 . S
C48 O46 1.247 . S
C48 O47 1.208 . S
C49 O54 1.246 . S
C49 O55 1.208 . S
C50 O42 1.315 . S
C50 O45 1.279 . S
C51 O52 1.315 . S
C51 O53 1.279 1_556 S
O52 Cd44 2.223 1_556 S
O52 C51 1.315 . S
O53 Cd43 2.240 . S
O53 C51 1.279 1_554 S
O54 Cd44 2.297 . S
O54 C49 1.246 . S
O55 Cd44 2.439 . S
O55 C49 1.208 . S
O56 Cd57 2.223 . S
O56 C64 1.315 . S
Cd57 O56 2.223 . S
Cd57 O60 2.297 . S
Cd57 O61 2.439 . S
Cd57 O67 2.240 . S
Cd58 O59 2.240 . S
Cd58 O66 2.223 . S
Cd58 O68 2.297 . S
Cd58 O69 2.439 . S
O59 Cd58 2.240 . S
O59 C64 1.279 . S
O60 Cd57 2.297 . S
O60 C62 1.247 . S
O61 Cd57 2.439 . S
O61 C62 1.208 . S
C62 O60 1.247 . S
C62 O61 1.208 . S
C63 O68 1.247 . S
C63 O69 1.208 . S
C64 O56 1.315 . S
C64 O59 1.279 . S
C65 O66 1.315 . S
C65 O67 1.279 . S
O66 Cd58 2.223 . S
O66 C65 1.315 . S
O67 Cd57 2.240 . S
O67 C65 1.279 . S
O68 Cd58 2.297 . S
O68 C63 1.247 . S
O69 Cd58 2.439 . S
O69 C63 1.208 . S
O70 Cd71 2.223 . S
O70 C78 1.315 . S
Cd71 O70 2.223 . S
Cd71 O74 2.297 . S
Cd71 O75 2.439 . S
Cd71 O81 2.240 . S
Cd72 O73 2.240 . S
Cd72 O80 2.223 . S
Cd72 O82 2.297 . S
Cd72 O83 2.439 . S
O73 Cd72 2.240 . S
O73 C78 1.279 . S
O74 Cd71 2.297 . S
O74 C76 1.247 . S
O75 Cd71 2.439 . S
O75 C76 1.208 . S
C76 O74 1.247 . S
C76 O75 1.208 . S
C77 O82 1.247 . S
C77 O83 1.208 . S
C78 O70 1.315 . S
C78 O73 1.279 . S
C79 O80 1.315 . S
C79 O81 1.279 . S
O80 Cd72 2.223 . S
O80 C79 1.315 . S
O81 Cd71 2.240 . S
O81 C79 1.279 . S
O82 Cd72 2.297 . S
O82 C77 1.247 . S
O83 Cd72 2.439 . S
O83 C77 1.208 . S
O84 Cd85 2.223 . S
O84 C92 1.315 . S
Cd85 O84 2.223 . S
Cd85 O88 2.297 . S
Cd85 O89 2.439 . S
Cd85 O95 2.240 . S
Cd86 O87 2.240 . S
Cd86 O94 2.223 . S
Cd86 O96 2.297 . S
Cd86 O97 2.439 . S
O87 Cd86 2.240 . S
O87 C92 1.279 . S
O88 Cd85 2.297 . S
O88 C90 1.247 . S
O89 Cd85 2.439 . S
O89 C90 1.208 . S
C90 O88 1.247 . S
C90 O89 1.208 . S
C91 O96 1.247 . S
C91 O97 1.208 . S
C92 O84 1.315 . S
C92 O87 1.279 . S
C93 O94 1.315 . S
C93 O95 1.279 . S
O94 Cd86 2.223 . S
O94 C93 1.315 . S
O95 Cd85 2.240 . S
O95 C93 1.279 . S
O96 Cd86 2.297 . S
O96 C91 1.247 . S
O97 Cd86 2.439 . S
O97 C91 1.208 . S
O98 Cd99 2.223 . S
O98 C106 1.315 . S
Cd99 O98 2.223 . S
Cd99 O102 2.297 . S
Cd99 O103 2.439 . S
Cd99 O109 2.240 . S
Cd100 O101 2.240 . S
Cd100 O108 2.223 1_556 S
Cd100 O110 2.297 . S
Cd100 O111 2.439 . S
O101 Cd100 2.240 . S
O101 C106 1.279 . S
O102 Cd99 2.297 . S
O102 C104 1.247 . S
O103 Cd99 2.439 . S
O103 C104 1.208 . S
C104 O102 1.247 . S
C104 O103 1.208 . S
C105 O110 1.246 . S
C105 O111 1.208 . S
C106 O98 1.315 . S
C106 O101 1.279 . S
C107 O108 1.315 . S
C107 O109 1.279 1_554 S
O108 Cd100 2.223 1_554 S
O108 C107 1.315 . S
O109 Cd99 2.240 . S
O109 C107 1.279 1_556 S
O110 Cd100 2.297 . S
O110 C105 1.246 . S
O111 Cd100 2.439 . S
O111 C105 1.208 . S
O112 Cd113 2.223 . S
O112 C120 1.315 . S
Cd113 O112 2.223 . S
Cd113 O116 2.297 . S
Cd113 O117 2.439 . S
Cd113 O123 2.240 . S
Cd114 O115 2.240 . S
Cd114 O122 2.223 . S
Cd114 O124 2.297 . S
Cd114 O125 2.439 . S
O115 Cd114 2.240 . S
O115 C120 1.279 . S
O116 Cd113 2.297 . S
O116 C118 1.247 . S
O117 Cd113 2.439 . S
O117 C118 1.208 . S
C118 O116 1.247 . S
C118 O117 1.208 . S
C119 O124 1.247 . S
C119 O125 1.208 . S
C120 O112 1.315 . S
C120 O115 1.279 . S
C121 O122 1.315 . S
C121 O123 1.279 . S
O122 Cd114 2.223 . S
O122 C121 1.315 . S
O123 Cd113 2.240 . S
O123 C121 1.279 . S
O124 Cd114 2.297 . S
O124 C119 1.247 . S
O125 Cd114 2.439 . S
O125 C119 1.208 . S
O126 Cd127 2.223 . S
O126 C134 1.315 . S
Cd127 O126 2.223 . S
Cd127 O130 2.297 . S
Cd127 O131 2.439 . S
Cd127 O137 2.240 . S
Cd128 O129 2.240 . S
Cd128 O136 2.223 . S
Cd128 O138 2.297 . S
Cd128 O139 2.439 . S
O129 Cd128 2.240 . S
O129 C134 1.279 . S
O130 Cd127 2.297 . S
O130 C132 1.247 . S
O131 Cd127 2.439 . S
O131 C132 1.208 . S
C132 O130 1.247 . S
C132 O131 1.208 . S
C133 O138 1.247 . S
C133 O139 1.208 . S
C134 O126 1.315 . S
C134 O129 1.279 . S
C135 O136 1.315 . S
C135 O137 1.279 . S
O136 Cd128 2.223 . S
O136 C135 1.315 . S
O137 Cd127 2.240 . S
O137 C135 1.279 . S
O138 Cd128 2.297 . S
O138 C133 1.247 . S
O139 Cd128 2.439 . S
O139 C133 1.208 . S
O140 Cd141 2.223 . S
O140 C148 1.315 . S
Cd141 O140 2.223 . S
Cd141 O144 2.297 . S
Cd141 O145 2.439 . S
Cd141 O151 2.240 . S
Cd142 O143 2.240 . S
Cd142 O150 2.223 1_556 S
Cd142 O152 2.297 . S
Cd142 O153 2.439 . S
O143 Cd142 2.240 . S
O143 C148 1.279 . S
O144 Cd141 2.297 . S
O144 C146 1.247 . S
O145 Cd141 2.439 . S
O145 C146 1.208 . S
C146 O144 1.247 . S
C146 O145 1.208 . S
C147 O152 1.246 . S
C147 O153 1.208 . S
C148 O140 1.315 . S
C148 O143 1.279 . S
C149 O150 1.315 . S
C149 O151 1.279 1_554 S
O150 Cd142 2.223 1_554 S
O150 C149 1.315 . S
O151 Cd141 2.240 . S
O151 C149 1.279 1_556 S
O152 Cd142 2.297 . S
O152 C147 1.246 . S
O153 Cd142 2.439 . S
O153 C147 1.208 . S
O154 Cd155 2.223 . S
O154 C162 1.315 . S
Cd155 O154 2.223 . S
Cd155 O158 2.297 . S
Cd155 O159 2.439 . S
Cd155 O165 2.240 . S
Cd156 O157 2.240 . S
Cd156 O164 2.223 . S
Cd156 O166 2.297 . S
Cd156 O167 2.439 . S
O157 Cd156 2.240 . S
O157 C162 1.279 . S
O158 Cd155 2.297 . S
O158 C160 1.247 . S
O159 Cd155 2.439 . S
O159 C160 1.208 . S
C160 O158 1.247 . S
C160 O159 1.208 . S
C161 O166 1.247 . S
C161 O167 1.208 . S
C162 O154 1.315 . S
C162 O157 1.279 . S
C163 O164 1.315 . S
C163 O165 1.279 . S
O164 Cd156 2.223 . S
O164 C163 1.315 . S
O165 Cd155 2.240 . S
O165 C163 1.279 . S
O166 Cd156 2.297 . S
O166 C161 1.247 . S
O167 Cd156 2.439 . S
O167 C161 1.208 . S
H168 C176 0.950 . S
H169 C181 0.950 . S
H170 C178 0.950 . S
H171 C180 0.950 . S
H172 C182 0.950 . S
H173 C184 0.950 . S
H174 C186 0.950 . S
H175 C187 0.950 . S
C176 H168 0.950 . S
C176 C177 1.386 . S
C176 C178 1.391 . S
C177 C176 1.386 . S
C177 C181 1.393 . S
C178 H170 0.950 . S
C178 C176 1.391 . S
C178 C179 1.400 . S
C179 C178 1.400 . S
C179 C180 1.398 . S
C179 C185 1.491 . S
C180 H171 0.950 . S
C180 C179 1.398 . S
C180 C181 1.391 . S
C181 H169 0.950 . S
C181 C177 1.393 . S
C181 C180 1.391 . S
C182 H172 0.950 . S
C182 C183 1.386 . S
C182 C184 1.391 . S
C183 C182 1.386 . S
C183 C187 1.393 . S
C184 H173 0.950 . S
C184 C182 1.391 . S
C184 C185 1.400 . S
C185 C179 1.491 . S
C185 C184 1.400 . S
C185 C186 1.398 . S
C186 H174 0.950 . S
C186 C185 1.398 . S
C186 C187 1.391 . S
C187 H175 0.950 . S
C187 C183 1.393 . S
C187 C186 1.391 . S
H188 C196 0.950 . S
H189 C201 0.950 . S
H190 C198 0.950 . S
H191 C200 0.950 . S
H192 C202 0.950 . S
H193 C204 0.950 . S
H194 C206 0.950 . S
H195 C207 0.950 . S
C196 H188 0.950 . S
C196 C197 1.386 . S
C196 C198 1.391 . S
C197 C196 1.386 . S
C197 C201 1.393 . S
C198 H190 0.950 . S
C198 C196 1.391 . S
C198 C199 1.400 . S
C199 C198 1.400 . S
C199 C200 1.398 . S
C199 C205 1.491 . S
C200 H191 0.950 . S
C200 C199 1.398 . S
C200 C201 1.391 . S
C201 H189 0.950 . S
C201 C197 1.393 . S
C201 C200 1.391 . S
C202 H192 0.950 . S
C202 C203 1.386 . S
C202 C204 1.391 . S
C203 C202 1.386 . S
C203 C207 1.393 . S
C204 H193 0.950 . S
C204 C202 1.391 . S
C204 C205 1.400 . S
C205 C199 1.491 . S
C205 C204 1.400 . S
C205 C206 1.398 . S
C206 H194 0.950 . S
C206 C205 1.398 . S
C206 C207 1.391 . S
C207 H195 0.950 . S
C207 C203 1.393 . S
C207 C206 1.391 . S
H208 C216 0.950 . S
H209 C221 0.950 . S
H210 C218 0.950 . S
H211 C220 0.950 . S
H212 C222 0.950 . S
H213 C224 0.950 . S
H214 C226 0.950 . S
H215 C227 0.950 . S
C216 H208 0.950 . S
C216 C217 1.386 . S
C216 C218 1.391 . S
C217 C216 1.386 . S
C217 C221 1.393 . S
C218 H210 0.950 . S
C218 C216 1.391 . S
C218 C219 1.400 . S
C219 C218 1.400 . S
C219 C220 1.398 . S
C219 C225 1.491 1_556 S
C220 H211 0.950 . S
C220 C219 1.398 . S
C220 C221 1.391 . S
C221 H209 0.950 . S
C221 C217 1.393 . S
C221 C220 1.391 . S
C222 H212 0.950 . S
C222 C223 1.386 . S
C222 C224 1.391 . S
C223 C222 1.386 . S
C223 C227 1.393 . S
C224 H213 0.950 . S
C224 C222 1.391 . S
C224 C225 1.400 . S
C225 C219 1.491 1_554 S
C225 C224 1.400 . S
C225 C226 1.398 . S
C226 H214 0.950 . S
C226 C225 1.398 . S
C226 C227 1.391 . S
C227 H215 0.950 . S
C227 C223 1.393 . S
C227 C226 1.391 . S
H228 C236 0.950 . S
H229 C241 0.950 . S
H230 C238 0.950 . S
H231 C240 0.950 . S
H232 C242 0.950 . S
H233 C244 0.950 . S
H234 C246 0.950 . S
H235 C247 0.950 . S
C236 H228 0.950 . S
C236 C237 1.386 . S
C236 C238 1.391 . S
C237 C236 1.386 . S
C237 C241 1.393 . S
C238 H230 0.950 . S
C238 C236 1.391 . S
C238 C239 1.400 . S
C239 C238 1.400 . S
C239 C240 1.398 . S
C239 C245 1.491 . S
C240 H231 0.950 . S
C240 C239 1.398 . S
C240 C241 1.391 . S
C241 H229 0.950 . S
C241 C237 1.393 . S
C241 C240 1.391 . S
C242 H232 0.950 . S
C242 C243 1.386 . S
C242 C244 1.391 . S
C243 C242 1.386 . S
C243 C247 1.393 . S
C244 H233 0.950 . S
C244 C242 1.391 . S
C244 C245 1.400 . S
C245 C239 1.491 . S
C245 C244 1.400 . S
C245 C246 1.398 . S
C246 H234 0.950 . S
C246 C245 1.398 . S
C246 C247 1.391 . S
C247 H235 0.950 . S
C247 C243 1.393 . S
C247 C246 1.391 . S
H248 C256 0.950 . S
H249 C261 0.950 . S
H250 C258 0.950 . S
H251 C260 0.950 . S
H252 C262 0.950 . S
H253 C264 0.950 . S
H254 C266 0.950 . S
H255 C267 0.950 . S
C256 H248 0.950 . S
C256 C257 1.386 . S
C256 C258 1.391 . S
C257 C256 1.386 . S
C257 C261 1.393 . S
C258 H250 0.950 . S
C258 C256 1.391 . S
C258 C259 1.400 . S
C259 C258 1.400 . S
C259 C260 1.398 . S
C259 C265 1.491 . S
C260 H251 0.950 . S
C260 C259 1.398 . S
C260 C261 1.391 . S
C261 H249 0.950 . S
C261 C257 1.393 . S
C261 C260 1.391 . S
C262 H252 0.950 . S
C262 C263 1.386 . S
C262 C264 1.391 . S
C263 C262 1.386 . S
C263 C267 1.393 . S
C264 H253 0.950 . S
C264 C262 1.391 . S
C264 C265 1.400 . S
C265 C259 1.491 . S
C265 C264 1.400 . S
C265 C266 1.398 . S
C266 H254 0.950 . S
C266 C265 1.398 . S
C266 C267 1.391 . S
C267 H255 0.950 . S
C267 C263 1.393 . S
C267 C266 1.391 . S
H268 C276 0.950 . S
H269 C281 0.950 . S
H270 C278 0.950 . S
H271 C280 0.950 . S
H272 C282 0.950 . S
H273 C284 0.950 . S
H274 C286 0.950 . S
H275 C287 0.950 . S
C276 H268 0.950 . S
C276 C277 1.386 . S
C276 C278 1.391 . S
C277 C276 1.386 . S
C277 C281 1.393 . S
C278 H270 0.950 . S
C278 C276 1.391 . S
C278 C279 1.400 . S
C279 C278 1.400 . S
C279 C280 1.398 . S
C279 C285 1.491 1_554 S
C280 H271 0.950 . S
C280 C279 1.398 . S
C280 C281 1.391 . S
C281 H269 0.950 . S
C281 C277 1.393 . S
C281 C280 1.391 . S
C282 H272 0.950 . S
C282 C283 1.386 . S
C282 C284 1.391 . S
C283 C282 1.386 . S
C283 C287 1.393 . S
C284 H273 0.950 . S
C284 C282 1.391 . S
C284 C285 1.400 . S
C285 C279 1.491 1_556 S
C285 C284 1.400 . S
C285 C286 1.398 . S
C286 H274 0.950 . S
C286 C285 1.398 . S
C286 C287 1.391 . S
C287 H275 0.950 . S
C287 C283 1.393 . S
C287 C286 1.391 . S
H288 C296 0.950 . S
H289 C301 0.950 . S
H290 C298 0.950 . S
H291 C300 0.950 . S
H292 C302 0.950 . S
H293 C304 0.950 . S
H294 C306 0.950 . S
H295 C307 0.950 . S
C296 H288 0.950 . S
C296 C297 1.386 1_556 S
C296 C298 1.391 . S
C297 C296 1.386 1_554 S
C297 C301 1.393 . S
C298 H290 0.950 . S
C298 C296 1.391 . S
C298 C299 1.400 1_556 S
C299 C298 1.400 1_554 S
C299 C300 1.398 . S
C299 C305 1.491 1_554 S
C300 H291 0.950 . S
C300 C299 1.398 . S
C300 C301 1.391 . S
C301 H289 0.950 . S
C301 C297 1.393 . S
C301 C300 1.391 . S
C302 H292 0.950 . S
C302 C303 1.386 1_554 S
C302 C304 1.391 . S
C303 C302 1.386 1_556 S
C303 C307 1.393 . S
C304 H293 0.950 . S
C304 C302 1.391 . S
C304 C305 1.400 1_554 S
C305 C299 1.491 1_556 S
C305 C304 1.400 1_556 S
C305 C306 1.398 . S
C306 H294 0.950 . S
C306 C305 1.398 . S
C306 C307 1.391 . S
C307 H295 0.950 . S
C307 C303 1.393 . S
C307 C306 1.391 . S
H308 C316 0.950 . S
H309 C321 0.950 . S
H310 C318 0.950 . S
H311 C320 0.950 . S
H312 C322 0.950 . S
H313 C324 0.950 . S
H314 C326 0.950 . S
H315 C327 0.950 . S
C316 H308 0.950 . S
C316 C317 1.386 . S
C316 C318 1.391 . S
C317 C316 1.386 . S
C317 C321 1.393 . S
C318 H310 0.950 . S
C318 C316 1.391 . S
C318 C319 1.400 . S
C319 C318 1.400 . S
C319 C320 1.398 . S
C319 C325 1.491 . S
C320 H311 0.950 . S
C320 C319 1.398 . S
C320 C321 1.391 . S
C321 H309 0.950 . S
C321 C317 1.393 . S
C321 C320 1.391 . S
C322 H312 0.950 . S
C322 C323 1.386 . S
C322 C324 1.391 . S
C323 C322 1.386 . S
C323 C327 1.393 . S
C324 H313 0.950 . S
C324 C322 1.391 . S
C324 C325 1.400 . S
C325 C319 1.491 . S
C325 C324 1.400 . S
C325 C326 1.398 . S
C326 H314 0.950 . S
C326 C325 1.398 . S
C326 C327 1.391 . S
C327 H315 0.950 . S
C327 C323 1.393 . S
C327 C326 1.391 . S
H328 C336 0.950 . S
H329 C341 0.950 . S
H330 C338 0.950 . S
H331 C340 0.950 . S
H332 C342 0.950 . S
H333 C344 0.950 . S
H334 C346 0.950 . S
H335 C347 0.950 . S
C336 H328 0.950 . S
C336 C337 1.386 . S
C336 C338 1.391 . S
C337 C336 1.386 . S
C337 C341 1.393 . S
C338 H330 0.950 . S
C338 C336 1.391 . S
C338 C339 1.400 . S
C339 C338 1.400 . S
C339 C340 1.398 . S
C339 C345 1.491 . S
C340 H331 0.950 . S
C340 C339 1.398 . S
C340 C341 1.391 . S
C341 H329 0.950 . S
C341 C337 1.393 . S
C341 C340 1.391 . S
C342 H332 0.950 . S
C342 C343 1.386 . S
C342 C344 1.391 . S
C343 C342 1.386 . S
C343 C347 1.393 . S
C344 H333 0.950 . S
C344 C342 1.391 . S
C344 C345 1.400 . S
C345 C339 1.491 . S
C345 C344 1.400 . S
C345 C346 1.398 . S
C346 H334 0.950 . S
C346 C345 1.398 . S
C346 C347 1.391 . S
C347 H335 0.950 . S
C347 C343 1.393 . S
C347 C346 1.391 . S
H348 C356 0.950 1_556 S
H349 C361 0.950 . S
H350 C358 0.950 . S
H351 C360 0.950 . S
H352 C362 0.950 1_554 S
H353 C364 0.950 . S
H354 C366 0.950 . S
H355 C367 0.950 . S
C356 H348 0.950 1_554 S
C356 C357 1.386 . S
C356 C358 1.391 1_554 S
C357 C356 1.386 . S
C357 C361 1.393 . S
C358 H350 0.950 . S
C358 C356 1.391 1_556 S
C358 C359 1.400 1_556 S
C359 C358 1.400 1_554 S
C359 C360 1.398 . S
C359 C365 1.491 1_554 S
C360 H351 0.950 . S
C360 C359 1.398 . S
C360 C361 1.391 . S
C361 H349 0.950 . S
C361 C357 1.393 . S
C361 C360 1.391 . S
C362 H352 0.950 1_556 S
C362 C363 1.386 . S
C362 C364 1.391 1_556 S
C363 C362 1.386 . S
C363 C367 1.393 . S
C364 H353 0.950 . S
C364 C362 1.391 1_554 S
C364 C365 1.400 1_554 S
C365 C359 1.491 1_556 S
C365 C364 1.400 1_556 S
C365 C366 1.398 . S
C366 H354 0.950 . S
C366 C365 1.398 . S
C366 C367 1.391 . S
C367 H355 0.950 . S
C367 C363 1.393 . S
C367 C366 1.391 . S
H368 C376 0.950 . S
H369 C381 0.950 . S
H370 C378 0.950 . S
H371 C380 0.950 . S
H372 C382 0.950 . S
H373 C384 0.950 . S
H374 C386 0.950 . S
H375 C387 0.950 . S
C376 H368 0.950 . S
C376 C377 1.386 . S
C376 C378 1.391 . S
C377 C376 1.386 . S
C377 C381 1.393 . S
C378 H370 0.950 . S
C378 C376 1.391 . S
C378 C379 1.400 . S
C379 C378 1.400 . S
C379 C380 1.398 . S
C379 C385 1.491 . S
C380 H371 0.950 . S
C380 C379 1.398 . S
C380 C381 1.391 . S
C381 H369 0.950 . S
C381 C377 1.393 . S
C381 C380 1.391 . S
C382 H372 0.950 . S
C382 C383 1.386 . S
C382 C384 1.391 . S
C383 C382 1.386 . S
C383 C387 1.393 . S
C384 H373 0.950 . S
C384 C382 1.391 . S
C384 C385 1.400 . S
C385 C379 1.491 . S
C385 C384 1.400 . S
C385 C386 1.398 . S
C386 H374 0.950 . S
C386 C385 1.398 . S
C386 C387 1.391 . S
C387 H375 0.950 . S
C387 C383 1.393 . S
C387 C386 1.391 . S
H388 C396 0.950 . S
H389 C401 0.950 . S
H390 C398 0.950 . S
H391 C400 0.950 . S
H392 C402 0.950 . S
H393 C404 0.950 . S
H394 C406 0.950 . S
H395 C407 0.950 . S
C396 H388 0.950 . S
C396 C397 1.386 . S
C396 C398 1.391 . S
C397 C396 1.386 . S
C397 C401 1.393 . S
C398 H390 0.950 . S
C398 C396 1.391 . S
C398 C399 1.400 . S
C399 C398 1.400 . S
C399 C400 1.398 . S
C399 C405 1.491 . S
C400 H391 0.950 . S
C400 C399 1.398 . S
C400 C401 1.391 . S
C401 H389 0.950 . S
C401 C397 1.393 . S
C401 C400 1.391 . S
C402 H392 0.950 . S
C402 C403 1.386 . S
C402 C404 1.391 . S
C403 C402 1.386 . S
C403 C407 1.393 . S
C404 H393 0.950 . S
C404 C402 1.391 . S
C404 C405 1.400 . S
C405 C399 1.491 . S
C405 C404 1.400 . S
C405 C406 1.398 . S
C406 H394 0.950 . S
C406 C405 1.398 . S
C406 C407 1.391 . S
C407 H395 0.950 . S
C407 C403 1.393 . S
C407 C406 1.391 . S
H408 C416 0.950 . S
H409 C421 0.950 . S
H410 C418 0.950 . S
H411 C420 0.950 . S
H412 C422 0.950 . S
H413 C424 0.950 . S
H414 C426 0.950 . S
H415 C427 0.950 . S
C416 H408 0.950 . S
C416 C417 1.386 . S
C416 C418 1.391 . S
C417 C416 1.386 . S
C417 C421 1.393 . S
C418 H410 0.950 . S
C418 C416 1.391 . S
C418 C419 1.400 . S
C419 C418 1.400 . S
C419 C420 1.398 . S
C419 C425 1.491 . S
C420 H411 0.950 . S
C420 C419 1.398 . S
C420 C421 1.391 . S
C421 H409 0.950 . S
C421 C417 1.393 . S
C421 C420 1.391 . S
C422 H412 0.950 . S
C422 C423 1.386 . S
C422 C424 1.391 . S
C423 C422 1.386 . S
C423 C427 1.393 . S
C424 H413 0.950 . S
C424 C422 1.391 . S
C424 C425 1.400 . S
C425 C419 1.491 . S
C425 C424 1.400 . S
C425 C426 1.398 . S
C426 H414 0.950 . S
C426 C425 1.398 . S
C426 C427 1.391 . S
C427 H415 0.950 . S
C427 C423 1.393 . S
C427 C426 1.391 . S
H428 C436 0.950 . S
H429 C441 0.950 . S
H430 C438 0.950 . S
H431 C440 0.950 . S
H432 C442 0.950 . S
H433 C444 0.950 . S
H434 C446 0.950 . S
H435 C447 0.950 . S
C436 H428 0.950 . S
C436 C437 1.386 . S
C436 C438 1.391 . S
C437 C436 1.386 . S
C437 C441 1.393 . S
C438 H430 0.950 . S
C438 C436 1.391 . S
C438 C439 1.400 . S
C439 C438 1.400 . S
C439 C440 1.398 . S
C439 C445 1.491 1_655 S
C440 H431 0.950 . S
C440 C439 1.398 . S
C440 C441 1.391 . S
C441 H429 0.950 . S
C441 C437 1.393 . S
C441 C440 1.391 . S
C442 H432 0.950 . S
C442 C443 1.386 . S
C442 C444 1.391 . S
C443 C442 1.386 . S
C443 C447 1.393 . S
C444 H433 0.950 . S
C444 C442 1.391 . S
C444 C445 1.400 . S
C445 C439 1.491 1_455 S
C445 C444 1.400 . S
C445 C446 1.398 . S
C446 H434 0.950 . S
C446 C445 1.398 . S
C446 C447 1.391 . S
C447 H435 0.950 . S
C447 C443 1.393 . S
C447 C446 1.391 . S
H448 C456 0.950 . S
H449 C461 0.950 . S
H450 C458 0.950 . S
H451 C460 0.950 . S
H452 C462 0.950 . S
H453 C464 0.950 . S
H454 C466 0.950 . S
H455 C467 0.950 . S
C456 H448 0.950 . S
C456 C457 1.386 . S
C456 C458 1.391 . S
C457 C456 1.386 . S
C457 C461 1.393 . S
C458 H450 0.950 . S
C458 C456 1.391 . S
C458 C459 1.400 . S
C459 C458 1.400 . S
C459 C460 1.398 . S
C459 C465 1.491 1_545 S
C460 H451 0.950 . S
C460 C459 1.398 . S
C460 C461 1.391 . S
C461 H449 0.950 . S
C461 C457 1.393 . S
C461 C460 1.391 . S
C462 H452 0.950 . S
C462 C463 1.386 . S
C462 C464 1.391 . S
C463 C462 1.386 . S
C463 C467 1.393 . S
C464 H453 0.950 . S
C464 C462 1.391 . S
C464 C465 1.400 . S
C465 C459 1.491 1_565 S
C465 C464 1.400 . S
C465 C466 1.398 . S
C466 H454 0.950 . S
C466 C465 1.398 . S
C466 C467 1.391 . S
C467 H455 0.950 . S
C467 C463 1.393 . S
C467 C466 1.391 . S
H468 C476 0.950 . S
H469 C481 0.950 . S
H470 C478 0.950 . S
H471 C480 0.950 . S
H472 C482 0.950 . S
H473 C484 0.950 . S
H474 C486 0.950 . S
H475 C487 0.950 . S
C476 H468 0.950 . S
C476 C477 1.386 . S
C476 C478 1.391 . S
C477 C476 1.386 . S
C477 C481 1.393 . S
C478 H470 0.950 . S
C478 C476 1.391 . S
C478 C479 1.400 . S
C479 C478 1.400 . S
C479 C480 1.398 . S
C479 C485 1.491 . S
C480 H471 0.950 . S
C480 C479 1.398 . S
C480 C481 1.391 . S
C481 H469 0.950 . S
C481 C477 1.393 . S
C481 C480 1.391 . S
C482 H472 0.950 . S
C482 C483 1.386 . S
C482 C484 1.391 . S
C483 C482 1.386 . S
C483 C487 1.393 . S
C484 H473 0.950 . S
C484 C482 1.391 . S
C484 C485 1.400 . S
C485 C479 1.491 . S
C485 C484 1.400 . S
C485 C486 1.398 . S
C486 H474 0.950 . S
C486 C485 1.398 . S
C486 C487 1.391 . S
C487 H475 0.950 . S
C487 C483 1.393 . S
C487 C486 1.391 . S
H488 C496 0.950 . S
H489 C501 0.950 . S
H490 C498 0.965 . S
H491 C500 0.950 . S
H492 C502 0.950 . S
H493 C504 0.965 . S
H494 C506 0.950 . S
H495 C507 0.950 . S
C496 H488 0.950 . S
C496 C497 1.386 . S
C496 C498 1.391 . S
C497 C496 1.386 . S
C497 C501 1.393 . S
C498 H490 0.965 . S
C498 C496 1.391 . S
C498 C499 1.400 . S
C499 C498 1.400 . S
C499 C500 1.398 . S
C499 C505 1.491 1_455 S
C500 H491 0.950 . S
C500 C499 1.398 . S
C500 C501 1.391 . S
C501 H489 0.950 . S
C501 C497 1.393 . S
C501 C500 1.391 . S
C502 H492 0.950 . S
C502 C503 1.386 . S
C502 C504 1.391 . S
C503 C502 1.386 . S
C503 C507 1.393 . S
C504 H493 0.965 . S
C504 C502 1.391 . S
C504 C505 1.400 . S
C505 C499 1.491 1_655 S
C505 C504 1.400 . S
C505 C506 1.398 . S
C506 H494 0.950 . S
C506 C505 1.398 . S
C506 C507 1.391 . S
C507 H495 0.950 . S
C507 C503 1.393 . S
C507 C506 1.391 . S
H508 C516 0.950 . S
H509 C521 0.950 . S
H510 C518 0.950 1_545 S
H511 C520 0.950 . S
H512 C522 0.950 . S
H513 C524 0.950 1_565 S
H514 C526 0.950 . S
H515 C527 0.950 . S
C516 H508 0.950 . S
C516 C517 1.386 . S
C516 C518 1.391 . S
C517 C516 1.386 . S
C517 C521 1.393 . S
C518 H510 0.950 1_565 S
C518 C516 1.391 . S
C518 C519 1.400 . S
C519 C518 1.400 . S
C519 C520 1.398 . S
C519 C525 1.491 1_565 S
C520 H511 0.950 . S
C520 C519 1.398 . S
C520 C521 1.391 . S
C521 H509 0.950 . S
C521 C517 1.393 . S
C521 C520 1.391 . S
C522 H512 0.950 . S
C522 C523 1.386 . S
C522 C524 1.391 . S
C523 C522 1.386 . S
C523 C527 1.393 . S
C524 H513 0.950 1_545 S
C524 C522 1.391 . S
C524 C525 1.400 . S
C525 C519 1.491 1_545 S
C525 C524 1.400 . S
C525 C526 1.398 . S
C526 H514 0.950 . S
C526 C525 1.398 . S
C526 C527 1.391 . S
C527 H515 0.950 . S
C527 C523 1.393 . S
C527 C526 1.391 . S
H528 C536 0.950 . S
H529 C541 0.950 . S
H530 C538 0.950 . S
H531 C540 0.950 . S
H532 C542 0.950 . S
H533 C544 0.950 . S
H534 C546 0.950 . S
H535 C547 0.950 . S
C536 H528 0.950 . S
C536 C537 1.386 . S
C536 C538 1.391 . S
C537 C536 1.386 . S
C537 C541 1.393 . S
C538 H530 0.950 . S
C538 C536 1.391 . S
C538 C539 1.400 . S
C539 C538 1.400 . S
C539 C540 1.398 . S
C539 C545 1.491 . S
C540 H531 0.950 . S
C540 C539 1.398 . S
C540 C541 1.391 . S
C541 H529 0.950 . S
C541 C537 1.393 . S
C541 C540 1.391 . S
C542 H532 0.950 . S
C542 C543 1.386 . S
C542 C544 1.391 . S
C543 C542 1.386 . S
C543 C547 1.393 . S
C544 H533 0.950 . S
C544 C542 1.391 . S
C544 C545 1.400 . S
C545 C539 1.491 . S
C545 C544 1.400 . S
C545 C546 1.398 . S
C546 H534 0.950 . S
C546 C545 1.398 . S
C546 C547 1.391 . S
C547 H535 0.950 . S
C547 C543 1.393 . S
C547 C546 1.391 . S
H548 C556 0.950 . S
H549 C561 0.950 . S
H550 C558 0.950 . S
H551 C560 0.950 . S
H552 C562 0.950 . S
H553 C564 0.950 . S
H554 C566 0.950 . S
H555 C567 0.950 . S
C556 H548 0.950 . S
C556 C557 1.386 . S
C556 C558 1.391 . S
C557 C556 1.386 . S
C557 C561 1.393 . S
C558 H550 0.950 . S
C558 C556 1.391 . S
C558 C559 1.400 . S
C559 C558 1.400 . S
C559 C560 1.398 . S
C559 C565 1.491 . S
C560 H551 0.950 . S
C560 C559 1.398 . S
C560 C561 1.391 . S
C561 H549 0.950 . S
C561 C557 1.393 . S
C561 C560 1.391 . S
C562 H552 0.950 . S
C562 C563 1.386 . S
C562 C564 1.391 . S
C563 C562 1.386 . S
C563 C567 1.393 . S
C564 H553 0.950 . S
C564 C562 1.391 . S
C564 C565 1.400 . S
C565 C559 1.491 . S
C565 C564 1.400 . S
C565 C566 1.398 . S
C566 H554 0.950 . S
C566 C565 1.398 . S
C566 C567 1.391 . S
C567 H555 0.950 . S
C567 C563 1.393 . S
C567 C566 1.391 . S
H568 C576 0.950 . S
H569 C581 0.950 . S
H570 C578 0.950 . S
H571 C580 0.950 . S
H572 C582 0.950 . S
H573 C584 0.950 . S
H574 C586 0.950 . S
H575 C587 0.950 . S
C576 H568 0.950 . S
C576 C577 1.386 . S
C576 C578 1.391 . S
C577 C576 1.386 . S
C577 C581 1.393 . S
C578 H570 0.950 . S
C578 C576 1.391 . S
C578 C579 1.400 . S
C579 C578 1.400 . S
C579 C580 1.398 . S
C579 C585 1.491 . S
C580 H571 0.950 . S
C580 C579 1.398 . S
C580 C581 1.391 . S
C581 H569 0.950 . S
C581 C577 1.393 . S
C581 C580 1.391 . S
C582 H572 0.950 . S
C582 C583 1.386 . S
C582 C584 1.391 . S
C583 C582 1.386 . S
C583 C587 1.393 . S
C584 H573 0.950 . S
C584 C582 1.391 . S
C584 C585 1.400 . S
C585 C579 1.491 . S
C585 C584 1.400 . S
C585 C586 1.398 . S
C586 H574 0.950 . S
C586 C585 1.398 . S
C586 C587 1.391 . S
C587 H575 0.950 . S
C587 C583 1.393 . S
C587 C586 1.391 . S
H588 C596 0.950 . S
H589 C601 0.950 . S
H590 C598 0.950 . S
H591 C600 0.950 . S
H592 C602 0.950 . S
H593 C604 0.950 . S
H594 C606 0.950 . S
H595 C607 0.950 . S
C596 H588 0.950 . S
C596 C597 1.386 . S
C596 C598 1.391 . S
C597 C596 1.386 . S
C597 C601 1.393 . S
C598 H590 0.950 . S
C598 C596 1.391 . S
C598 C599 1.400 . S
C599 C598 1.400 . S
C599 C600 1.398 . S
C599 C605 1.491 . S
C600 H591 0.950 . S
C600 C599 1.398 . S
C600 C601 1.391 . S
C601 H589 0.950 . S
C601 C597 1.393 . S
C601 C600 1.391 . S
C602 H592 0.950 . S
C602 C603 1.386 . S
C602 C604 1.391 . S
C603 C602 1.386 . S
C603 C607 1.393 . S
C604 H593 0.950 . S
C604 C602 1.391 . S
C604 C605 1.400 . S
C605 C599 1.491 . S
C605 C604 1.400 . S
C605 C606 1.398 . S
C606 H594 0.950 . S
C606 C605 1.398 . S
C606 C607 1.391 . S
C607 H595 0.950 . S
C607 C603 1.393 . S
C607 C606 1.391 . S
H608 C616 0.950 . S
H609 C621 0.950 . S
H610 C618 0.950 . S
H611 C620 0.950 . S
H612 C622 0.950 . S
H613 C624 0.950 . S
H614 C626 0.950 . S
H615 C627 0.950 . S
C616 H608 0.950 . S
C616 C617 1.386 . S
C616 C618 1.391 . S
C617 C616 1.386 . S
C617 C621 1.393 . S
C618 H610 0.950 . S
C618 C616 1.391 . S
C618 C619 1.400 . S
C619 C618 1.400 . S
C619 C620 1.398 . S
C619 C625 1.491 . S
C620 H611 0.950 . S
C620 C619 1.398 . S
C620 C621 1.391 . S
C621 H609 0.950 . S
C621 C617 1.393 . S
C621 C620 1.391 . S
C622 H612 0.950 . S
C622 C623 1.386 . S
C622 C624 1.391 . S
C623 C622 1.386 . S
C623 C627 1.393 . S
C624 H613 0.950 . S
C624 C622 1.391 . S
C624 C625 1.400 . S
C625 C619 1.491 . S
C625 C624 1.400 . S
C625 C626 1.398 . S
C626 H614 0.950 . S
C626 C625 1.398 . S
C626 C627 1.391 . S
C627 H615 0.950 . S
C627 C623 1.393 . S
C627 C626 1.391 . S
H628 C636 0.950 . S
H629 C641 0.950 . S
H630 C638 0.950 . S
H631 C640 0.950 . S
H632 C642 0.950 . S
H633 C644 0.950 . S
H634 C646 0.950 . S
H635 C647 0.950 . S
C636 H628 0.950 . S
C636 C637 1.386 . S
C636 C638 1.391 . S
C637 C636 1.386 . S
C637 C641 1.393 . S
C638 H630 0.950 . S
C638 C636 1.391 . S
C638 C639 1.400 . S
C639 C638 1.400 . S
C639 C640 1.398 . S
C639 C645 1.491 . S
C640 H631 0.950 . S
C640 C639 1.398 . S
C640 C641 1.391 . S
C641 H629 0.950 . S
C641 C637 1.393 . S
C641 C640 1.391 . S
C642 H632 0.950 . S
C642 C643 1.386 . S
C642 C644 1.391 . S
C643 C642 1.386 . S
C643 C647 1.393 . S
C644 H633 0.950 . S
C644 C642 1.391 . S
C644 C645 1.400 . S
C645 C639 1.491 . S
C645 C644 1.400 . S
C645 C646 1.398 . S
C646 H634 0.950 . S
C646 C645 1.398 . S
C646 C647 1.391 . S
C647 H635 0.950 . S
C647 C643 1.393 . S
C647 C646 1.391 . S
C177 C6 1.461 . S
C183 C90 1.468 . S
C197 C20 1.457 . S
C203 C104 1.454 . S
C217 C34 1.457 . S
C223 C118 1.463 . S
C237 C48 1.464 . S
C243 C132 1.469 . S
C257 C62 1.455 . S
C263 C146 1.456 . S
C277 C160 1.458 . S
C283 C76 1.455 . S
C297 C7 1.393 . S
C303 C147 1.397 . S
C317 C21 1.387 . S
C323 C161 1.389 . S
C337 C35 1.387 . S
C343 C91 1.389 . S
C357 C49 1.399 . S
C363 C105 1.400 . S
C377 C63 1.387 . S
C383 C119 1.389 . S
C397 C77 1.389 . S
C403 C133 1.392 . S
C417 C8 1.234 . S
C423 C50 1.226 . S
C437 C22 1.232 . S
C443 C64 1.226 . S
C457 C78 1.261 . S
C463 C36 1.268 . S
C477 C92 1.230 . S
C483 C134 1.240 . S
C497 C148 1.262 . S
C503 C106 1.252 . S
C517 C120 1.249 . S
C523 C162 1.237 . S
C537 C93 1.223 . S
C543 C9 1.223 . S
C557 C23 1.222 . S
C563 C107 1.223 . S
C577 C37 1.234 . S
C583 C121 1.234 . S
C597 C135 1.233 . S
C603 C51 1.233 . S
C617 C149 1.223 . S
C623 C65 1.223 . S
C637 C79 1.222 . S
C643 C163 1.222 . S
