# Generated by pormake.
# Topology cag, (4)-cn, num edge types: 1
# Building blocks:
#     Node 0, Type 0, BuildingBlock: AZAVOO_clean_sbu_0, # of connection points: 4
#     Node 1, Type 0, BuildingBlock: AZAVOO_clean_sbu_0, # of connection points: 4
#     Node 2, Type 0, BuildingBlock: AZAVOO_clean_sbu_0, # of connection points: 4
#     Node 3, Type 0, BuildingBlock: AZAVOO_clean_sbu_0, # of connection points: 4
#     Node 4, Type 0, BuildingBlock: AZAVOO_clean_sbu_0, # of connection points: 4
#     Node 5, Type 0, BuildingBlock: AZAVOO_clean_sbu_0, # of connection points: 4
#     Node 6, Type 0, BuildingBlock: AZAVOO_clean_sbu_0, # of connection points: 4
#     Node 7, Type 0, BuildingBlock: AZAVOO_clean_sbu_0, # of connection points: 4
#     Node 8, Type 0, BuildingBlock: AZAVOO_clean_sbu_0, # of connection points: 4
#     Node 9, Type 0, BuildingBlock: AZAVOO_clean_sbu_0, # of connection points: 4
#     Node 10, Type 0, BuildingBlock: AZAVOO_clean_sbu_0, # of connection points: 4
#     Node 11, Type 0, BuildingBlock: AZAVOO_clean_sbu_0, # of connection points: 4
#     Node 12, Type 0, BuildingBlock: AZAVOO_clean_sbu_0, # of connection points: 4
#     Node 13, Type 0, BuildingBlock: AZAVOO_clean_sbu_0, # of connection points: 4
#     Node 14, Type 0, BuildingBlock: AZAVOO_clean_sbu_0, # of connection points: 4
#     Node 15, Type 0, BuildingBlock: AZAVOO_clean_sbu_0, # of connection points: 4
#     Edge 16, Type (0, 0), BuildingBlock: OJICUG_clean_linker_0, # of connection points: 2
#     Edge 17, Type (0, 0), BuildingBlock: OJICUG_clean_linker_0, # of connection points: 2
#     Edge 18, Type (0, 0), BuildingBlock: OJICUG_clean_linker_0, # of connection points: 2
#     Edge 19, Type (0, 0), BuildingBlock: OJICUG_clean_linker_0, # of connection points: 2
#     Edge 20, Type (0, 0), BuildingBlock: OJICUG_clean_linker_0, # of connection points: 2
#     Edge 21, Type (0, 0), BuildingBlock: OJICUG_clean_linker_0, # of connection points: 2
#     Edge 22, Type (0, 0), BuildingBlock: OJICUG_clean_linker_0, # of connection points: 2
#     Edge 23, Type (0, 0), BuildingBlock: OJICUG_clean_linker_0, # of connection points: 2
#     Edge 24, Type (0, 0), BuildingBlock: OJICUG_clean_linker_0, # of connection points: 2
#     Edge 25, Type (0, 0), BuildingBlock: OJICUG_clean_linker_0, # of connection points: 2
#     Edge 26, Type (0, 0), BuildingBlock: OJICUG_clean_linker_0, # of connection points: 2
#     Edge 27, Type (0, 0), BuildingBlock: OJICUG_clean_linker_0, # of connection points: 2
#     Edge 28, Type (0, 0), BuildingBlock: OJICUG_clean_linker_0, # of connection points: 2
#     Edge 29, Type (0, 0), BuildingBlock: OJICUG_clean_linker_0, # of connection points: 2
#     Edge 30, Type (0, 0), BuildingBlock: OJICUG_clean_linker_0, # of connection points: 2
#     Edge 31, Type (0, 0), BuildingBlock: OJICUG_clean_linker_0, # of connection points: 2
#     Edge 32, Type (0, 0), BuildingBlock: OJICUG_clean_linker_0, # of connection points: 2
#     Edge 33, Type (0, 0), BuildingBlock: OJICUG_clean_linker_0, # of connection points: 2
#     Edge 34, Type (0, 0), BuildingBlock: OJICUG_clean_linker_0, # of connection points: 2
#     Edge 35, Type (0, 0), BuildingBlock: OJICUG_clean_linker_0, # of connection points: 2
#     Edge 36, Type (0, 0), BuildingBlock: OJICUG_clean_linker_0, # of connection points: 2
#     Edge 37, Type (0, 0), BuildingBlock: OJICUG_clean_linker_0, # of connection points: 2
#     Edge 38, Type (0, 0), BuildingBlock: OJICUG_clean_linker_0, # of connection points: 2
#     Edge 39, Type (0, 0), BuildingBlock: OJICUG_clean_linker_0, # of connection points: 2
#     Edge 40, Type (0, 0), BuildingBlock: OJICUG_clean_linker_0, # of connection points: 2
#     Edge 41, Type (0, 0), BuildingBlock: OJICUG_clean_linker_0, # of connection points: 2
#     Edge 42, Type (0, 0), BuildingBlock: OJICUG_clean_linker_0, # of connection points: 2
#     Edge 43, Type (0, 0), BuildingBlock: OJICUG_clean_linker_0, # of connection points: 2
#     Edge 44, Type (0, 0), BuildingBlock: OJICUG_clean_linker_0, # of connection points: 2
#     Edge 45, Type (0, 0), BuildingBlock: OJICUG_clean_linker_0, # of connection points: 2
#     Edge 46, Type (0, 0), BuildingBlock: OJICUG_clean_linker_0, # of connection points: 2
#     Edge 47, Type (0, 0), BuildingBlock: OJICUG_clean_linker_0, # of connection points: 2
# Relax obj value: 0.058
# Max RMSD: 0.098
# Mean RMSD: 0.095
data_MOF--net-cag--node1-AZAVOO_clean_sbu_0--edge1-OJICUG_clean_linker_0
_symmetry_space_group_name_H-M    P1
_symmetry_Int_Tables_number       1
_symmetry_cell_setting            triclinic
loop_
_symmetry_equiv_pos_as_xyz
'x, y, z'
_cell_length_a     32.947434
_cell_length_b     33.007892
_cell_length_c     32.461512
_cell_angle_alpha  89.999456
_cell_angle_beta   90.032011
_cell_angle_gamma 89.937214
loop_
_atom_site_label
_atom_site_type_symbol
_atom_site_fract_x
_atom_site_fract_y
_atom_site_fract_z
_atom_type_partial_charge
Mg0 Mg 0.33365 0.12476 0.10609 0.0
O1 O 0.31272 0.07891 0.05798 0.0
O2 O 0.24499 0.07486 0.06143 0.0
Mg3 Mg 0.22249 0.11638 0.11306 0.0
C4 C 0.27892 0.06442 0.04556 0.0
C5 C 0.42637 0.11501 0.1009 0.0
O6 O 0.41824 0.10167 0.13812 0.0
O7 O 0.3105 0.17689 0.06516 0.0
O8 O 0.24376 0.17139 0.07678 0.0
O9 O 0.33721 0.07588 0.15463 0.0
O10 O 0.28253 0.11181 0.14054 0.0
C11 C 0.27409 0.18977 0.06105 0.0
C12 C 0.29912 0.08295 0.16097 0.0
O13 O 0.39724 0.12708 0.07825 0.0
Mg14 Mg 0.17132 0.88673 0.60689 0.0
O15 O 0.19254 0.93218 0.55854 0.0
O16 O 0.2603 0.93572 0.56205 0.0
Mg17 Mg 0.28252 0.89426 0.61389 0.0
C18 C 0.22645 0.94635 0.54609 0.0
C19 C 0.07865 0.89808 0.60065 0.0
O20 O 0.08664 0.91323 0.63717 0.0
O21 O 0.19404 0.83427 0.56625 0.0
O22 O 0.26085 0.83924 0.57783 0.0
O23 O 0.1681 0.93596 0.6551 0.0
O24 O 0.22252 0.89956 0.64124 0.0
C25 C 0.23034 0.82107 0.56217 0.0
C26 C 0.20617 0.92872 0.66142 0.0
O27 O 0.10778 0.88448 0.57895 0.0
Mg28 Mg 0.3353 0.88681 0.85335 0.0
O29 O 0.31375 0.93231 0.90155 0.0
O30 O 0.246 0.93591 0.89771 0.0
Mg31 Mg 0.22412 0.89441 0.8458 0.0
C32 C 0.27976 0.94652 0.91382 0.0
C33 C 0.4279 0.89856 0.86037 0.0
O34 O 0.42008 0.91415 0.82399 0.0
O35 O 0.31245 0.83441 0.89394 0.0
O36 O 0.24569 0.83945 0.88209 0.0
O37 O 0.33865 0.93599 0.80509 0.0
O38 O 0.28424 0.89962 0.81875 0.0
C39 C 0.27616 0.82127 0.8979 0.0
C40 C 0.30062 0.92876 0.79862 0.0
O41 O 0.39869 0.88456 0.88166 0.0
Mg42 Mg 0.17171 0.12514 0.3544 0.0
O43 O 0.19276 0.07911 0.40235 0.0
O44 O 0.26048 0.07491 0.39861 0.0
Mg45 Mg 0.28284 0.11649 0.34701 0.0
C46 C 0.22661 0.06451 0.41459 0.0
C47 C 0.07901 0.11328 0.36175 0.0
O48 O 0.08676 0.09664 0.32585 0.0
O49 O 0.19507 0.17708 0.39534 0.0
O50 O 0.26178 0.17146 0.38357 0.0
O51 O 0.16793 0.07636 0.30576 0.0
O52 O 0.22269 0.11206 0.31977 0.0
C53 C 0.23149 0.18986 0.39943 0.0
C54 C 0.20602 0.08328 0.29935 0.0
O55 O 0.10825 0.12789 0.3826 0.0
Mg56 Mg 0.68667 0.85579 0.8969 0.0
O57 O 0.70671 0.91496 0.92778 0.0
O58 O 0.77429 0.91328 0.93277 0.0
Mg59 Mg 0.79718 0.85314 0.9062 0.0
C60 C 0.74031 0.93101 0.93865 0.0
C61 C 0.59442 0.87233 0.9094 0.0
O62 O 0.60228 0.85028 0.94212 0.0
O63 O 0.70902 0.87752 0.8347 0.0
O64 O 0.77632 0.87137 0.84062 0.0
O65 O 0.6824 0.82651 0.9578 0.0
O66 O 0.73787 0.82529 0.91964 0.0
C67 C 0.74462 0.87959 0.81939 0.0
C68 C 0.72 0.81592 0.95362 0.0
O69 O 0.6233 0.88145 0.88512 0.0
Mg70 Mg 0.82041 0.15866 0.39678 0.0
O71 O 0.79979 0.09999 0.42826 0.0
O72 O 0.73223 0.10232 0.43321 0.0
Mg73 Mg 0.70989 0.16238 0.40599 0.0
C74 C 0.76606 0.08435 0.43927 0.0
C75 C 0.91256 0.14181 0.40962 0.0
O76 O 0.90482 0.16467 0.44178 0.0
O77 O 0.79784 0.13643 0.33478 0.0
O78 O 0.73061 0.1432 0.34071 0.0
O79 O 0.82486 0.18865 0.45735 0.0
O80 O 0.76944 0.18986 0.41908 0.0
C81 C 0.76218 0.13446 0.31954 0.0
C82 C 0.78736 0.19952 0.45296 0.0
O83 O 0.88362 0.13232 0.38551 0.0
Mg84 Mg 0.68483 0.15962 0.06675 0.0
O85 O 0.70545 0.10119 0.03465 0.0
O86 O 0.77299 0.10377 0.02946 0.0
Mg87 Mg 0.79526 0.16373 0.05685 0.0
C88 C 0.73923 0.08573 0.02341 0.0
C89 C 0.59334 0.1393 0.05261 0.0
O90 O 0.60156 0.15827 0.01805 0.0
O91 O 0.70796 0.13695 0.12836 0.0
O92 O 0.77511 0.14411 0.12219 0.0
O93 O 0.67968 0.19014 0.00652 0.0
O94 O 0.73548 0.19102 0.04424 0.0
C95 C 0.74369 0.13506 0.14344 0.0
C96 C 0.71721 0.20094 0.01061 0.0
O97 O 0.62176 0.13328 0.07847 0.0
Mg98 Mg 0.8199 0.85454 0.56565 0.0
O99 O 0.7995 0.91354 0.53457 0.0
O100 O 0.73192 0.91162 0.5296 0.0
Mg101 Mg 0.70939 0.85152 0.55645 0.0
C102 C 0.76581 0.92943 0.52365 0.0
C103 C 0.91192 0.87187 0.55254 0.0
O104 O 0.90394 0.85034 0.5195 0.0
O105 O 0.79749 0.87653 0.62775 0.0
O106 O 0.73021 0.87024 0.62189 0.0
O107 O 0.8243 0.82505 0.50488 0.0
O108 O 0.76883 0.82382 0.54304 0.0
C109 C 0.76188 0.87866 0.64305 0.0
C110 C 0.78674 0.8144 0.50908 0.0
O111 O 0.88318 0.8804 0.57724 0.0
Mg112 Mg 0.83561 0.6273 0.10787 0.0
O113 O 0.81398 0.58205 0.05947 0.0
O114 O 0.74623 0.57861 0.06339 0.0
Mg115 Mg 0.72444 0.61997 0.11547 0.0
C116 C 0.77995 0.56798 0.04719 0.0
C117 C 0.92821 0.61551 0.10079 0.0
O118 O 0.92046 0.59977 0.1371 0.0
O119 O 0.81269 0.67992 0.06753 0.0
O120 O 0.74595 0.67501 0.07938 0.0
O121 O 0.83904 0.57786 0.15586 0.0
O122 O 0.78461 0.61442 0.14242 0.0
C123 C 0.77639 0.69317 0.06363 0.0
C124 C 0.80101 0.58512 0.16235 0.0
O125 O 0.89896 0.6296 0.07956 0.0
Mg126 Mg 0.67123 0.38844 0.60663 0.0
O127 O 0.6924 0.43424 0.55859 0.0
O128 O 0.76013 0.43813 0.5624 0.0
Mg129 Mg 0.78237 0.39661 0.61417 0.0
C130 C 0.72629 0.44864 0.54634 0.0
C131 C 0.57854 0.39869 0.60071 0.0
O132 O 0.58651 0.41264 0.63773 0.0
O133 O 0.69445 0.33624 0.56587 0.0
O134 O 0.76116 0.34161 0.57781 0.0
O135 O 0.66756 0.43736 0.65513 0.0
O136 O 0.72224 0.40134 0.64132 0.0
C137 C 0.73085 0.32328 0.56194 0.0
C138 C 0.70562 0.43024 0.66165 0.0
O139 O 0.60774 0.38612 0.57847 0.0
Mg140 Mg 0.83304 0.38877 0.85551 0.0
O141 O 0.81239 0.43505 0.90336 0.0
O142 O 0.74467 0.43946 0.89992 0.0
Mg143 Mg 0.7219 0.39779 0.84857 0.0
C144 C 0.77866 0.4498 0.91571 0.0
C145 C 0.92582 0.39927 0.86146 0.0
O146 O 0.91779 0.41417 0.82483 0.0
O147 O 0.80973 0.33702 0.89676 0.0
O148 O 0.74299 0.34286 0.88518 0.0
O149 O 0.83671 0.43731 0.80664 0.0
O150 O 0.7819 0.40184 0.82101 0.0
C151 C 0.77327 0.32439 0.901 0.0
C152 C 0.79857 0.43045 0.80036 0.0
O153 O 0.89668 0.38608 0.88337 0.0
Mg154 Mg 0.67155 0.62654 0.35375 0.0
O155 O 0.69255 0.5809 0.4021 0.0
O156 O 0.76032 0.57712 0.39878 0.0
Mg157 Mg 0.78275 0.61852 0.34707 0.0
C158 C 0.72643 0.56659 0.41463 0.0
C159 C 0.57887 0.61367 0.36126 0.0
O160 O 0.58675 0.59583 0.32599 0.0
O161 O 0.69437 0.6788 0.39457 0.0
O162 O 0.76118 0.67357 0.38319 0.0
O163 O 0.66831 0.57746 0.30537 0.0
O164 O 0.72279 0.61353 0.31956 0.0
C165 C 0.73068 0.69183 0.39879 0.0
C166 C 0.70642 0.58452 0.29922 0.0
O167 O 0.60797 0.62925 0.38156 0.0
Mg168 Mg 0.18457 0.35431 0.89563 0.0
O169 O 0.20538 0.41293 0.92717 0.0
O170 O 0.27295 0.41031 0.93208 0.0
Mg171 Mg 0.2951 0.3502 0.90487 0.0
C172 C 0.2392 0.42842 0.93817 0.0
C173 C 0.0927 0.37271 0.90925 0.0
O174 O 0.10074 0.35156 0.94254 0.0
O175 O 0.20717 0.37655 0.83366 0.0
O176 O 0.27438 0.36953 0.83961 0.0
O177 O 0.18004 0.32424 0.95615 0.0
O178 O 0.23546 0.323 0.91795 0.0
C179 C 0.24283 0.37841 0.81844 0.0
C180 C 0.21753 0.31334 0.95181 0.0
O181 O 0.12135 0.38068 0.88427 0.0
Mg182 Mg 0.31992 0.65784 0.39605 0.0
O183 O 0.2994 0.59884 0.4269 0.0
O184 O 0.23182 0.60087 0.43163 0.0
Mg185 Mg 0.20938 0.66105 0.40473 0.0
C186 C 0.2657 0.58299 0.43768 0.0
C187 C 0.41231 0.64317 0.40799 0.0
O188 O 0.40455 0.66785 0.43873 0.0
O189 O 0.29778 0.63609 0.33373 0.0
O190 O 0.23049 0.64247 0.33937 0.0
O191 O 0.32401 0.68713 0.45695 0.0
O192 O 0.26875 0.68868 0.41842 0.0
C193 C 0.26222 0.63407 0.31829 0.0
C194 C 0.2865 0.69796 0.45252 0.0
O195 O 0.38326 0.6318 0.38489 0.0
Mg196 Mg 0.18689 0.65853 0.06457 0.0
O197 O 0.20691 0.59943 0.03348 0.0
O198 O 0.27448 0.60098 0.02843 0.0
Mg199 Mg 0.29737 0.66101 0.05519 0.0
C200 C 0.24048 0.58335 0.02253 0.0
C201 C 0.09463 0.64215 0.05204 0.0
O202 O 0.10242 0.66438 0.01945 0.0
O203 O 0.20938 0.6365 0.12664 0.0
O204 O 0.27666 0.64253 0.12072 0.0
O205 O 0.18247 0.68801 0.00378 0.0
O206 O 0.23803 0.68903 0.04189 0.0
C207 C 0.245 0.63427 0.14193 0.0
C208 C 0.22007 0.69853 0.00795 0.0
O209 O 0.12356 0.6329 0.07627 0.0
Mg210 Mg 0.3201 0.35407 0.56561 0.0
O211 O 0.29963 0.41266 0.53372 0.0
O212 O 0.23209 0.41034 0.52838 0.0
Mg213 Mg 0.20965 0.35035 0.55555 0.0
C214 C 0.26591 0.42828 0.52247 0.0
C215 C 0.41178 0.37358 0.55197 0.0
O216 O 0.40371 0.35388 0.5178 0.0
O217 O 0.29703 0.37654 0.6273 0.0
O218 O 0.22986 0.36963 0.621 0.0
O219 O 0.32514 0.32383 0.50524 0.0
O220 O 0.26936 0.32289 0.54293 0.0
C221 C 0.2613 0.37848 0.64233 0.0
C222 C 0.28758 0.31309 0.50926 0.0
O223 O 0.38321 0.38029 0.57746 0.0
C224 C 0.23037 0.24918 0.04642 0.0
C225 C 0.2652 0.22652 0.03677 0.0
H226 H 0.18864 0.29496 0.02761 0.0
C227 C 0.28795 0.23689 0.00175 0.0
H228 H 0.21263 0.24235 0.07365 0.0
C229 C 0.27396 0.26725 0.97499 0.0
C230 C 0.23728 0.28763 -0.01679 0.0
H231 H 0.31496 0.21992 -0.00629 0.0
H232 H 0.29058 0.27308 0.94684 0.0
C233 C 0.21665 0.27944 0.02005 0.0
C234 C 0.28699 0.73099 0.52119 0.0
C235 C 0.2666 0.72334 0.48407 0.0
H236 H 0.29098 0.76763 0.57512 0.0
C237 C 0.23016 0.7441 0.47571 0.0
H238 H 0.31481 0.71514 0.52886 0.0
C239 C 0.21627 0.77438 0.5026 0.0
C240 C 0.23887 0.78427 0.53788 0.0
H241 H 0.21373 0.73869 0.44734 0.0
H242 H 0.18951 0.7917 0.49444 0.0
C243 C 0.27336 0.76116 0.5477 0.0
C244 C 0.29031 0.77454 0.95747 0.0
C245 C 0.26756 0.78455 0.9223 0.0
H246 H 0.29301 0.73886 0.01272 0.0
C247 C 0.23293 0.76165 0.91268 0.0
H248 H 0.31718 0.7917 0.96548 0.0
C249 C 0.21932 0.73157 0.93928 0.0
C250 C 0.23988 0.72381 0.97629 0.0
H251 H 0.21521 0.76819 0.88534 0.0
H252 H 0.19141 0.71588 0.93177 0.0
C253 C 0.27645 0.74436 -0.01556 0.0
C254 C 0.28902 0.27908 0.44109 0.0
C255 C 0.26806 0.28743 0.47771 0.0
H256 H 0.29339 0.24198 0.38752 0.0
C257 C 0.23124 0.26725 0.48559 0.0
H258 H 0.31715 0.29445 0.43379 0.0
C259 C 0.21739 0.23698 0.45871 0.0
C260 C 0.24041 0.22647 0.4239 0.0
H261 H 0.21437 0.27321 0.51358 0.0
H262 H 0.19022 0.22019 0.46648 0.0
C263 C 0.27543 0.2489 0.41459 0.0
C264 C 0.79044 0.73993 0.00412 0.0
C265 C 0.76776 0.72994 0.0393 0.0
H266 H 0.793 0.77558 0.94885 0.0
C267 C 0.73312 0.75289 0.04894 0.0
H268 H 0.81731 0.72273 -0.0039 0.0
C269 C 0.71943 0.78297 0.02234 0.0
C270 C 0.73991 0.79069 -0.01469 0.0
H271 H 0.71545 0.74636 0.07629 0.0
H272 H 0.69151 0.79868 0.02986 0.0
C273 C 0.77649 0.77011 0.97715 0.0
C274 C 0.78824 0.23351 0.52115 0.0
C275 C 0.76761 0.22527 0.48431 0.0
H276 H 0.79229 0.27068 0.57469 0.0
C277 C 0.73095 0.24567 0.476 0.0
H278 H 0.81624 0.21797 0.52878 0.0
C279 C 0.71699 0.27609 0.50268 0.0
C280 C 0.73974 0.28651 0.53771 0.0
H281 H 0.71433 0.2398 0.44784 0.0
H282 H 0.68999 0.29306 0.49458 0.0
C283 C 0.77454 0.26383 0.54745 0.0
C284 C 0.72925 0.26543 0.91613 0.0
C285 C 0.76432 0.28779 0.92546 0.0
H286 H 0.6875 0.21989 0.93524 0.0
C287 C 0.78737 0.27719 0.96024 0.0
H288 H 0.71126 0.27242 0.88909 0.0
C289 C 0.77353 0.24687 -0.01293 0.0
C290 C 0.73668 0.22674 0.97915 0.0
H291 H 0.81458 0.29392 0.96803 0.0
H292 H 0.79044 0.24083 0.01503 0.0
C293 C 0.71567 0.2352 0.94257 0.0
C294 C 0.73039 0.76857 0.48547 0.0
C295 C 0.76693 0.78916 0.47738 0.0
H296 H 0.68967 0.72124 0.46639 0.0
C297 C 0.78747 0.78149 0.44035 0.0
H298 H 0.71385 0.77401 0.51376 0.0
C299 C 0.77385 0.75146 0.41369 0.0
C300 C 0.73924 0.72852 0.42324 0.0
H301 H 0.81536 0.79721 0.43288 0.0
H302 H 0.79156 0.74497 0.38634 0.0
C303 C 0.71652 0.73844 0.45843 0.0
C304 C 0.24246 0.01955 -0.0045 0.0
C305 C 0.27911 0.0343 0.01182 0.0
H306 H 0.21386 0.98039 0.95188 0.0
C307 C 0.31597 0.01984 -0.00432 0.0
H308 H 0.21351 0.03004 0.00718 0.0
C309 C 0.31617 0.99125 0.96401 0.0
C310 C 0.27952 0.97656 0.94764 0.0
H311 H 0.34478 0.03048 0.00755 0.0
H312 H 0.34514 0.9808 0.95231 0.0
C313 C 0.24266 0.99106 0.96373 0.0
C314 C 0.18976 0.99119 0.49613 0.0
C315 C 0.2265 0.97642 0.5123 0.0
H316 H 0.16093 0.03057 0.45281 0.0
C317 C 0.26327 0.99089 0.49606 0.0
H318 H 0.16086 0.98076 0.50794 0.0
C319 C 0.26331 0.01945 0.46435 0.0
C320 C 0.22658 0.0343 0.44825 0.0
H321 H 0.29214 0.98016 0.50776 0.0
H322 H 0.29221 0.02992 0.45258 0.0
C323 C 0.1898 0.01985 0.46452 0.0
C324 C 0.70298 0.98967 0.97047 0.0
C325 C 0.73987 0.97088 0.9598 0.0
H326 H 0.67376 0.04034 -0.00097 0.0
C327 C 0.77644 0.99021 0.97036 0.0
H328 H 0.67422 0.97563 0.96294 0.0
C329 C 0.77618 0.02732 -0.00894 0.0
C330 C 0.73934 0.04605 0.00188 0.0
H331 H 0.80543 0.97668 0.96269 0.0
H332 H 0.80498 0.04125 -0.00138 0.0
C333 C 0.70272 0.02676 -0.00868 0.0
C334 C 0.7294 0.02565 0.47128 0.0
C335 C 0.76614 0.04457 0.4606 0.0
H336 H 0.70042 0.97482 0.49947 0.0
C337 C 0.80286 0.02539 0.47115 0.0
H338 H 0.70052 0.03949 0.46371 0.0
C339 C 0.8028 0.98824 0.4919 0.0
C340 C 0.76602 0.96929 0.50247 0.0
H341 H 0.83175 0.03911 0.46354 0.0
H342 H 0.83164 0.97432 0.49945 0.0
C343 C 0.72933 0.98848 0.49188 0.0
C344 C 0.74239 0.49504 0.96558 0.0
C345 C 0.77899 0.48009 0.9493 0.0
H346 H 0.71394 0.5344 0.00914 0.0
C347 C 0.8159 0.49446 0.96535 0.0
H348 H 0.7134 0.48464 0.95397 0.0
C349 C 0.81621 0.52313 -0.00305 0.0
C350 C 0.77962 0.53797 0.01334 0.0
H351 H 0.84467 0.48367 0.95349 0.0
H352 H 0.84521 0.53348 0.00862 0.0
C353 C 0.7427 0.5236 -0.00272 0.0
C354 C 0.68958 0.49332 0.49622 0.0
C355 C 0.72632 0.47876 0.51259 0.0
H356 H 0.66074 0.53244 0.45267 0.0
C357 C 0.76309 0.49344 0.49653 0.0
H358 H 0.66069 0.48273 0.50789 0.0
C359 C 0.76313 0.52194 0.46477 0.0
C360 C 0.72639 0.53653 0.44843 0.0
H361 H 0.79196 0.48289 0.50839 0.0
H362 H 0.79202 0.53255 0.45312 0.0
C363 C 0.68962 0.52192 0.46455 0.0
C364 C 0.27655 0.52411 -0.00929 0.0
C365 C 0.24 0.54348 0.00136 0.0
H366 H 0.30502 0.47295 0.96249 0.0
C367 C 0.20309 0.52472 -0.00914 0.0
H368 H 0.30556 0.53762 -0.00175 0.0
C369 C 0.20278 0.48757 0.97011 0.0
C370 C 0.23937 0.4682 0.9595 0.0
H371 H 0.17434 0.5388 -0.00155 0.0
H372 H 0.1738 0.474 0.96255 0.0
C373 C 0.27624 0.48694 0.97011 0.0
C374 C 0.22921 0.52402 0.4694 0.0
C375 C 0.2659 0.54315 0.4589 0.0
H376 H 0.20039 0.47311 0.49761 0.0
C377 C 0.30267 0.52419 0.46967 0.0
H378 H 0.2003 0.53769 0.46165 0.0
C379 C 0.30272 0.48711 0.49053 0.0
C380 C 0.26601 0.46799 0.501 0.0
H381 H 0.33152 0.53807 0.4622 0.0
H382 H 0.33161 0.47338 0.4983 0.0
C383 C 0.22926 0.48691 0.49011 0.0
C384 C 0.5413 0.11188 0.10148 0.0
C385 C 0.55078 0.1294 0.06324 0.0
H386 H 0.49469 0.0935 0.14324 0.0
C387 C 0.51895 0.13984 0.03634 0.0
H388 H 0.56507 0.10337 0.12288 0.0
C389 C 0.4785 0.13428 0.04807 0.0
C390 C 0.46903 0.11811 0.08692 0.0
H391 H 0.52518 0.1533 0.00659 0.0
H392 H 0.45468 0.14349 0.02703 0.0
C393 C 0.50089 0.10629 0.11317 0.0
C394 C 0.96374 0.902 0.60004 0.0
C395 C 0.95444 0.88212 0.56296 0.0
H396 H 0.01019 0.92274 0.64091 0.0
C397 C 0.98639 0.86983 0.53707 0.0
H398 H 0.93987 0.91196 0.62063 0.0
C399 C 0.02678 0.87593 0.54873 0.0
C400 C 0.03607 0.89448 0.58652 0.0
H401 H 0.98029 0.85455 0.5082 0.0
H402 H 0.05068 0.86527 0.52854 0.0
C403 C 0.00411 0.90811 0.61168 0.0
C404 C 0.50245 0.909 0.85003 0.0
C405 C 0.47039 0.89495 0.87477 0.0
H406 H 0.56673 0.91318 0.84162 0.0
C407 C 0.47951 0.87595 0.91239 0.0
H408 H 0.4965 0.92397 0.82096 0.0
C409 C 0.51984 0.86983 0.92427 0.0
C410 C 0.55191 0.88256 0.89879 0.0
H411 H 0.45552 0.86496 0.93226 0.0
H412 H 0.52582 0.85422 0.95299 0.0
C413 C 0.54277 0.90288 0.8619 0.0
C414 C 0.0044 0.10291 0.35157 0.0
C415 C 0.03652 0.11746 0.37598 0.0
H416 H 0.9401 0.09889 0.34311 0.0
C417 C 0.02746 0.13754 0.41301 0.0
H418 H 0.0103 0.0871 0.32296 0.0
C419 C 0.98714 0.14424 0.42459 0.0
C420 C 0.95502 0.13102 0.3994 0.0
H421 H 0.05148 0.14895 0.43261 0.0
H422 H 0.98122 0.16068 0.45283 0.0
C423 C 0.9641 0.10961 0.36315 0.0
C424 C 0.04309 0.61127 0.09931 0.0
C425 C 0.05216 0.63185 0.06257 0.0
H426 H 0.9969 0.58986 0.14007 0.0
C427 C 0.02004 0.64473 0.03716 0.0
H428 H 0.06709 0.60084 0.11952 0.0
C429 C 0.97973 0.63849 0.04896 0.0
C430 C 0.97068 0.61923 0.08644 0.0
H431 H 0.02597 0.66054 0.00856 0.0
H432 H 0.95571 0.64961 0.02916 0.0
C433 C 1.0028 0.60504 0.1111 0.0
C434 C 0.50398 0.40778 0.61235 0.0
C435 C 0.53595 0.39539 0.58654 0.0
H436 H 0.43976 0.41094 0.62163 0.0
C437 C 0.52664 0.37841 0.54799 0.0
H438 H 0.51007 0.4212 0.64217 0.0
C439 C 0.48624 0.37263 0.53617 0.0
C440 C 0.45429 0.38365 0.56266 0.0
H441 H 0.55054 0.36874 0.5273 0.0
H442 H 0.48012 0.35855 0.50668 0.0
C443 C 0.46361 0.40197 0.60056 0.0
C444 C 0.04076 0.40259 0.86162 0.0
C445 C 0.05015 0.38308 0.89889 0.0
H446 H 0.99422 0.42311 0.8207 0.0
C447 C 0.01825 0.37122 0.92503 0.0
H448 H 0.06458 0.41222 0.84084 0.0
C449 C 0.97782 0.37739 0.91344 0.0
C450 C 0.96844 0.39557 0.87548 0.0
H451 H 0.02441 0.35623 0.95405 0.0
H452 H 0.95397 0.36707 0.93384 0.0
C453 C 1.00036 0.40877 0.85006 0.0
C454 C 0.50431 0.60241 0.35155 0.0
C455 C 0.53635 0.61814 0.3753 0.0
H456 H 0.44002 0.5977 0.34331 0.0
C457 C 0.52719 0.63972 0.41141 0.0
H458 H 0.5103 0.58545 0.32364 0.0
C459 C 0.48685 0.64671 0.4227 0.0
C460 C 0.4548 0.63225 0.39813 0.0
H461 H 0.55115 0.65208 0.4305 0.0
H462 H 0.48086 0.66429 0.4502 0.0
C463 C 0.46397 0.60938 0.36284 0.0
C464 C 0.29491 0.05988 0.23327 0.0
C465 C 0.27639 0.06377 0.19462 0.0
H466 H 0.28594 0.06144 0.29845 0.0
C467 C 0.234 0.06018 0.19155 0.0
H468 H 0.32759 0.06196 0.23639 0.0
C469 C 0.21014 0.06015 0.22706 0.0
C470 C 0.22868 0.06396 0.26571 0.0
H471 H 0.21913 0.06157 0.16188 0.0
H472 H 0.17747 0.06244 0.22393 0.0
C473 C 0.27105 0.0601 0.26878 0.0
C474 C 0.29579 0.95198 0.72644 0.0
C475 C 0.27767 0.94824 0.76527 0.0
H476 H 0.28609 0.95033 0.66136 0.0
C477 C 0.23534 0.9521 0.76878 0.0
H478 H 0.32843 0.94967 0.723 0.0
C479 C 0.21109 0.95221 0.73351 0.0
C480 C 0.2292 0.94819 0.6947 0.0
H481 H 0.2208 0.95081 0.79861 0.0
H482 H 0.17845 0.95008 0.73698 0.0
C483 C 0.27154 0.95183 0.69118 0.0
C484 C 0.71461 0.88845 0.7489 0.0
C485 C 0.74903 0.88704 0.77453 0.0
H486 H 0.69159 0.88724 0.6873 0.0
C487 C 0.78771 0.88841 0.75629 0.0
H488 H 0.68432 0.88776 0.76182 0.0
C489 C 0.79187 0.88826 0.71345 0.0
C490 C 0.75746 0.88653 0.68783 0.0
H491 H 0.8149 0.88777 0.77505 0.0
H492 H 0.82217 0.88743 0.70053 0.0
C493 C 0.71877 0.88811 0.70605 0.0
C494 C 0.71877 0.12483 0.25677 0.0
C495 C 0.75756 0.12664 0.27477 0.0
H496 H 0.6839 0.12544 0.20123 0.0
C497 C 0.79181 0.12542 0.24894 0.0
H498 H 0.69171 0.12527 0.2757 0.0
C499 C 0.78734 0.12567 0.20611 0.0
C500 C 0.74851 0.12694 0.18813 0.0
H501 H 0.82219 0.12644 0.26168 0.0
H502 H 0.81438 0.12678 0.18719 0.0
C503 C 0.7143 0.12487 0.21396 0.0
C504 C 0.77181 0.56134 0.26955 0.0
C505 C 0.72947 0.5651 0.26593 0.0
H506 H 0.82874 0.56365 0.23792 0.0
C507 C 0.71143 0.56131 0.22704 0.0
H508 H 0.7863 0.56264 0.29942 0.0
C509 C 0.73574 0.56159 0.19185 0.0
C510 C 0.77806 0.56541 0.1955 0.0
H511 H 0.67879 0.56352 0.2235 0.0
H512 H 0.72124 0.56308 0.16199 0.0
C513 C 0.79612 0.56139 0.23436 0.0
C514 C 0.77066 0.45311 0.69238 0.0
C515 C 0.72828 0.44946 0.69535 0.0
H516 H 0.82716 0.45107 0.7249 0.0
C517 C 0.7097 0.4534 0.73394 0.0
H518 H 0.78558 0.45167 0.66275 0.0
C519 C 0.73351 0.45331 0.76952 0.0
C520 C 0.7759 0.44955 0.76656 0.0
H521 H 0.67702 0.45127 0.73699 0.0
H522 H 0.71859 0.45203 0.79915 0.0
C523 C 0.79448 0.45329 0.72795 0.0
C524 C 0.29072 0.38826 0.71293 0.0
C525 C 0.2565 0.3864 0.68706 0.0
H526 H 0.31332 0.38755 0.7747 0.0
C527 C 0.21768 0.38767 0.70501 0.0
H528 H 0.32111 0.38768 0.70024 0.0
C529 C 0.21321 0.38775 0.74783 0.0
C530 C 0.24746 0.38635 0.77369 0.0
H531 H 0.19063 0.3867 0.68606 0.0
H532 H 0.18283 0.38675 0.76054 0.0
C533 C 0.28625 0.38813 0.75574 0.0
C534 C 0.2923 0.62503 0.24788 0.0
C535 C 0.25787 0.62644 0.27345 0.0
H536 H 0.31533 0.62607 0.1863 0.0
C537 C 0.2192 0.62485 0.25516 0.0
H538 H 0.32259 0.62589 0.26084 0.0
C539 C 0.21505 0.6248 0.21231 0.0
C540 C 0.24946 0.62654 0.18674 0.0
H541 H 0.192 0.62546 0.27388 0.0
H542 H 0.18475 0.62547 0.19936 0.0
C543 C 0.28815 0.62517 0.20502 0.0
loop_
_geom_bond_atom_site_label_1
_geom_bond_atom_site_label_2
_geom_bond_distance
_geom_bond_site_symmetry_2
_ccdc_geom_bond_type
Mg0 O1 2.028 . S
Mg0 O7 1.986 . S
Mg0 O9 2.114 . S
Mg0 O10 2.251 . S
Mg0 O13 2.010 . S
O1 Mg0 2.028 . S
O1 C4 1.250 . S
O2 Mg3 2.028 . S
O2 C4 1.248 . S
Mg3 O2 2.028 . S
Mg3 O8 2.032 . S
Mg3 O10 2.079 . S
C4 O1 1.250 . S
C4 O2 1.248 . S
C5 O6 1.264 . S
C5 O13 1.249 . S
O6 C5 1.264 . S
O7 Mg0 1.986 . S
O7 C11 1.246 . S
O8 Mg3 2.032 . S
O8 C11 1.259 . S
O9 Mg0 2.114 . S
O9 C12 1.252 . S
O10 Mg0 2.251 . S
O10 Mg3 2.079 . S
O10 C12 1.273 . S
C11 O7 1.246 . S
C11 O8 1.259 . S
C12 O9 1.252 . S
C12 O10 1.273 . S
O13 Mg0 2.010 . S
O13 C5 1.249 . S
Mg14 O15 2.028 . S
Mg14 O21 1.986 . S
Mg14 O23 2.114 . S
Mg14 O24 2.251 . S
Mg14 O27 2.010 . S
O15 Mg14 2.028 . S
O15 C18 1.250 . S
O16 Mg17 2.028 . S
O16 C18 1.248 . S
Mg17 O16 2.028 . S
Mg17 O22 2.032 . S
Mg17 O24 2.079 . S
C18 O15 1.250 . S
C18 O16 1.248 . S
C19 O20 1.264 . S
C19 O27 1.249 . S
O20 C19 1.264 . S
O21 Mg14 1.986 . S
O21 C25 1.246 . S
O22 Mg17 2.032 . S
O22 C25 1.259 . S
O23 Mg14 2.114 . S
O23 C26 1.252 . S
O24 Mg14 2.251 . S
O24 Mg17 2.079 . S
O24 C26 1.273 . S
C25 O21 1.246 . S
C25 O22 1.259 . S
C26 O23 1.252 . S
C26 O24 1.273 . S
O27 Mg14 2.010 . S
O27 C19 1.249 . S
Mg28 O29 2.028 . S
Mg28 O35 1.986 . S
Mg28 O37 2.114 . S
Mg28 O38 2.251 . S
Mg28 O41 2.010 . S
O29 Mg28 2.028 . S
O29 C32 1.250 . S
O30 Mg31 2.028 . S
O30 C32 1.248 . S
Mg31 O30 2.028 . S
Mg31 O36 2.032 . S
Mg31 O38 2.079 . S
C32 O29 1.250 . S
C32 O30 1.248 . S
C33 O34 1.264 . S
C33 O41 1.249 . S
O34 C33 1.264 . S
O35 Mg28 1.986 . S
O35 C39 1.246 . S
O36 Mg31 2.032 . S
O36 C39 1.259 . S
O37 Mg28 2.114 . S
O37 C40 1.252 . S
O38 Mg28 2.251 . S
O38 Mg31 2.079 . S
O38 C40 1.273 . S
C39 O35 1.246 . S
C39 O36 1.259 . S
C40 O37 1.252 . S
C40 O38 1.273 . S
O41 Mg28 2.010 . S
O41 C33 1.249 . S
Mg42 O43 2.028 . S
Mg42 O49 1.986 . S
Mg42 O51 2.114 . S
Mg42 O52 2.251 . S
Mg42 O55 2.010 . S
O43 Mg42 2.028 . S
O43 C46 1.250 . S
O44 Mg45 2.028 . S
O44 C46 1.248 . S
Mg45 O44 2.028 . S
Mg45 O50 2.032 . S
Mg45 O52 2.079 . S
C46 O43 1.250 . S
C46 O44 1.248 . S
C47 O48 1.264 . S
C47 O55 1.249 . S
O48 C47 1.264 . S
O49 Mg42 1.986 . S
O49 C53 1.246 . S
O50 Mg45 2.032 . S
O50 C53 1.259 . S
O51 Mg42 2.114 . S
O51 C54 1.252 . S
O52 Mg42 2.251 . S
O52 Mg45 2.079 . S
O52 C54 1.273 . S
C53 O49 1.246 . S
C53 O50 1.259 . S
C54 O51 1.252 . S
C54 O52 1.273 . S
O55 Mg42 2.010 . S
O55 C47 1.249 . S
Mg56 O57 2.028 . S
Mg56 O63 1.986 . S
Mg56 O65 2.114 . S
Mg56 O66 2.251 . S
Mg56 O69 2.010 . S
O57 Mg56 2.028 . S
O57 C60 1.250 . S
O58 Mg59 2.028 . S
O58 C60 1.248 . S
Mg59 O58 2.028 . S
Mg59 O64 2.032 . S
Mg59 O66 2.079 . S
C60 O57 1.250 . S
C60 O58 1.248 . S
C61 O62 1.264 . S
C61 O69 1.249 . S
O62 C61 1.264 . S
O63 Mg56 1.986 . S
O63 C67 1.246 . S
O64 Mg59 2.032 . S
O64 C67 1.259 . S
O65 Mg56 2.114 . S
O65 C68 1.252 . S
O66 Mg56 2.251 . S
O66 Mg59 2.079 . S
O66 C68 1.273 . S
C67 O63 1.246 . S
C67 O64 1.259 . S
C68 O65 1.252 . S
C68 O66 1.273 . S
O69 Mg56 2.010 . S
O69 C61 1.249 . S
Mg70 O71 2.028 . S
Mg70 O77 1.986 . S
Mg70 O79 2.114 . S
Mg70 O80 2.251 . S
Mg70 O83 2.010 . S
O71 Mg70 2.028 . S
O71 C74 1.250 . S
O72 Mg73 2.028 . S
O72 C74 1.248 . S
Mg73 O72 2.028 . S
Mg73 O78 2.032 . S
Mg73 O80 2.079 . S
C74 O71 1.250 . S
C74 O72 1.248 . S
C75 O76 1.264 . S
C75 O83 1.249 . S
O76 C75 1.264 . S
O77 Mg70 1.986 . S
O77 C81 1.246 . S
O78 Mg73 2.032 . S
O78 C81 1.259 . S
O79 Mg70 2.114 . S
O79 C82 1.252 . S
O80 Mg70 2.251 . S
O80 Mg73 2.079 . S
O80 C82 1.273 . S
C81 O77 1.246 . S
C81 O78 1.259 . S
C82 O79 1.252 . S
C82 O80 1.273 . S
O83 Mg70 2.010 . S
O83 C75 1.249 . S
Mg84 O85 2.028 . S
Mg84 O91 1.986 . S
Mg84 O93 2.114 . S
Mg84 O94 2.251 . S
Mg84 O97 2.010 . S
O85 Mg84 2.028 . S
O85 C88 1.250 . S
O86 Mg87 2.028 . S
O86 C88 1.248 . S
Mg87 O86 2.028 . S
Mg87 O92 2.032 . S
Mg87 O94 2.079 . S
C88 O85 1.250 . S
C88 O86 1.248 . S
C89 O90 1.264 . S
C89 O97 1.249 . S
O90 C89 1.264 . S
O91 Mg84 1.986 . S
O91 C95 1.246 . S
O92 Mg87 2.032 . S
O92 C95 1.259 . S
O93 Mg84 2.114 . S
O93 C96 1.252 . S
O94 Mg84 2.251 . S
O94 Mg87 2.079 . S
O94 C96 1.273 . S
C95 O91 1.246 . S
C95 O92 1.259 . S
C96 O93 1.252 . S
C96 O94 1.273 . S
O97 Mg84 2.010 . S
O97 C89 1.249 . S
Mg98 O99 2.028 . S
Mg98 O105 1.986 . S
Mg98 O107 2.114 . S
Mg98 O108 2.251 . S
Mg98 O111 2.010 . S
O99 Mg98 2.028 . S
O99 C102 1.250 . S
O100 Mg101 2.028 . S
O100 C102 1.248 . S
Mg101 O100 2.028 . S
Mg101 O106 2.032 . S
Mg101 O108 2.079 . S
C102 O99 1.250 . S
C102 O100 1.248 . S
C103 O104 1.264 . S
C103 O111 1.249 . S
O104 C103 1.264 . S
O105 Mg98 1.986 . S
O105 C109 1.246 . S
O106 Mg101 2.032 . S
O106 C109 1.259 . S
O107 Mg98 2.114 . S
O107 C110 1.252 . S
O108 Mg98 2.251 . S
O108 Mg101 2.079 . S
O108 C110 1.273 . S
C109 O105 1.246 . S
C109 O106 1.259 . S
C110 O107 1.252 . S
C110 O108 1.273 . S
O111 Mg98 2.010 . S
O111 C103 1.249 . S
Mg112 O113 2.028 . S
Mg112 O119 1.986 . S
Mg112 O121 2.114 . S
Mg112 O122 2.251 . S
Mg112 O125 2.010 . S
O113 Mg112 2.028 . S
O113 C116 1.250 . S
O114 Mg115 2.028 . S
O114 C116 1.248 . S
Mg115 O114 2.028 . S
Mg115 O120 2.032 . S
Mg115 O122 2.079 . S
C116 O113 1.250 . S
C116 O114 1.248 . S
C117 O118 1.264 . S
C117 O125 1.249 . S
O118 C117 1.264 . S
O119 Mg112 1.986 . S
O119 C123 1.246 . S
O120 Mg115 2.032 . S
O120 C123 1.259 . S
O121 Mg112 2.114 . S
O121 C124 1.252 . S
O122 Mg112 2.251 . S
O122 Mg115 2.079 . S
O122 C124 1.273 . S
C123 O119 1.246 . S
C123 O120 1.259 . S
C124 O121 1.252 . S
C124 O122 1.273 . S
O125 Mg112 2.010 . S
O125 C117 1.249 . S
Mg126 O127 2.028 . S
Mg126 O133 1.986 . S
Mg126 O135 2.114 . S
Mg126 O136 2.251 . S
Mg126 O139 2.010 . S
O127 Mg126 2.028 . S
O127 C130 1.250 . S
O128 Mg129 2.028 . S
O128 C130 1.248 . S
Mg129 O128 2.028 . S
Mg129 O134 2.032 . S
Mg129 O136 2.079 . S
C130 O127 1.250 . S
C130 O128 1.248 . S
C131 O132 1.264 . S
C131 O139 1.249 . S
O132 C131 1.264 . S
O133 Mg126 1.986 . S
O133 C137 1.246 . S
O134 Mg129 2.032 . S
O134 C137 1.259 . S
O135 Mg126 2.114 . S
O135 C138 1.252 . S
O136 Mg126 2.251 . S
O136 Mg129 2.079 . S
O136 C138 1.273 . S
C137 O133 1.246 . S
C137 O134 1.259 . S
C138 O135 1.252 . S
C138 O136 1.273 . S
O139 Mg126 2.010 . S
O139 C131 1.249 . S
Mg140 O141 2.028 . S
Mg140 O147 1.986 . S
Mg140 O149 2.114 . S
Mg140 O150 2.251 . S
Mg140 O153 2.010 . S
O141 Mg140 2.028 . S
O141 C144 1.250 . S
O142 Mg143 2.028 . S
O142 C144 1.248 . S
Mg143 O142 2.028 . S
Mg143 O148 2.032 . S
Mg143 O150 2.079 . S
C144 O141 1.250 . S
C144 O142 1.248 . S
C145 O146 1.264 . S
C145 O153 1.249 . S
O146 C145 1.264 . S
O147 Mg140 1.986 . S
O147 C151 1.246 . S
O148 Mg143 2.032 . S
O148 C151 1.259 . S
O149 Mg140 2.114 . S
O149 C152 1.252 . S
O150 Mg140 2.251 . S
O150 Mg143 2.079 . S
O150 C152 1.273 . S
C151 O147 1.246 . S
C151 O148 1.259 . S
C152 O149 1.252 . S
C152 O150 1.273 . S
O153 Mg140 2.010 . S
O153 C145 1.249 . S
Mg154 O155 2.028 . S
Mg154 O161 1.986 . S
Mg154 O163 2.114 . S
Mg154 O164 2.251 . S
Mg154 O167 2.010 . S
O155 Mg154 2.028 . S
O155 C158 1.250 . S
O156 Mg157 2.028 . S
O156 C158 1.248 . S
Mg157 O156 2.028 . S
Mg157 O162 2.032 . S
Mg157 O164 2.079 . S
C158 O155 1.250 . S
C158 O156 1.248 . S
C159 O160 1.264 . S
C159 O167 1.249 . S
O160 C159 1.264 . S
O161 Mg154 1.986 . S
O161 C165 1.246 . S
O162 Mg157 2.032 . S
O162 C165 1.259 . S
O163 Mg154 2.114 . S
O163 C166 1.252 . S
O164 Mg154 2.251 . S
O164 Mg157 2.079 . S
O164 C166 1.273 . S
C165 O161 1.246 . S
C165 O162 1.259 . S
C166 O163 1.252 . S
C166 O164 1.273 . S
O167 Mg154 2.010 . S
O167 C159 1.249 . S
Mg168 O169 2.028 . S
Mg168 O175 1.986 . S
Mg168 O177 2.114 . S
Mg168 O178 2.251 . S
Mg168 O181 2.010 . S
O169 Mg168 2.028 . S
O169 C172 1.250 . S
O170 Mg171 2.028 . S
O170 C172 1.248 . S
Mg171 O170 2.028 . S
Mg171 O176 2.032 . S
Mg171 O178 2.079 . S
C172 O169 1.250 . S
C172 O170 1.248 . S
C173 O174 1.264 . S
C173 O181 1.249 . S
O174 C173 1.264 . S
O175 Mg168 1.986 . S
O175 C179 1.246 . S
O176 Mg171 2.032 . S
O176 C179 1.259 . S
O177 Mg168 2.114 . S
O177 C180 1.252 . S
O178 Mg168 2.251 . S
O178 Mg171 2.079 . S
O178 C180 1.273 . S
C179 O175 1.246 . S
C179 O176 1.259 . S
C180 O177 1.252 . S
C180 O178 1.273 . S
O181 Mg168 2.010 . S
O181 C173 1.249 . S
Mg182 O183 2.028 . S
Mg182 O189 1.986 . S
Mg182 O191 2.114 . S
Mg182 O192 2.251 . S
Mg182 O195 2.010 . S
O183 Mg182 2.028 . S
O183 C186 1.250 . S
O184 Mg185 2.028 . S
O184 C186 1.248 . S
Mg185 O184 2.028 . S
Mg185 O190 2.032 . S
Mg185 O192 2.079 . S
C186 O183 1.250 . S
C186 O184 1.248 . S
C187 O188 1.264 . S
C187 O195 1.249 . S
O188 C187 1.264 . S
O189 Mg182 1.986 . S
O189 C193 1.246 . S
O190 Mg185 2.032 . S
O190 C193 1.259 . S
O191 Mg182 2.114 . S
O191 C194 1.252 . S
O192 Mg182 2.251 . S
O192 Mg185 2.079 . S
O192 C194 1.273 . S
C193 O189 1.246 . S
C193 O190 1.259 . S
C194 O191 1.252 . S
C194 O192 1.273 . S
O195 Mg182 2.010 . S
O195 C187 1.249 . S
Mg196 O197 2.028 . S
Mg196 O203 1.986 . S
Mg196 O205 2.114 . S
Mg196 O206 2.251 . S
Mg196 O209 2.010 . S
O197 Mg196 2.028 . S
O197 C200 1.250 . S
O198 Mg199 2.028 . S
O198 C200 1.248 . S
Mg199 O198 2.028 . S
Mg199 O204 2.032 . S
Mg199 O206 2.079 . S
C200 O197 1.250 . S
C200 O198 1.248 . S
C201 O202 1.264 . S
C201 O209 1.249 . S
O202 C201 1.264 . S
O203 Mg196 1.986 . S
O203 C207 1.246 . S
O204 Mg199 2.032 . S
O204 C207 1.259 . S
O205 Mg196 2.114 . S
O205 C208 1.252 . S
O206 Mg196 2.251 . S
O206 Mg199 2.079 . S
O206 C208 1.273 . S
C207 O203 1.246 . S
C207 O204 1.259 . S
C208 O205 1.252 . S
C208 O206 1.273 . S
O209 Mg196 2.010 . S
O209 C201 1.249 . S
Mg210 O211 2.028 . S
Mg210 O217 1.986 . S
Mg210 O219 2.114 . S
Mg210 O220 2.251 . S
Mg210 O223 2.010 . S
O211 Mg210 2.028 . S
O211 C214 1.250 . S
O212 Mg213 2.028 . S
O212 C214 1.248 . S
Mg213 O212 2.028 . S
Mg213 O218 2.032 . S
Mg213 O220 2.079 . S
C214 O211 1.250 . S
C214 O212 1.248 . S
C215 O216 1.264 . S
C215 O223 1.249 . S
O216 C215 1.264 . S
O217 Mg210 1.986 . S
O217 C221 1.246 . S
O218 Mg213 2.032 . S
O218 C221 1.259 . S
O219 Mg210 2.114 . S
O219 C222 1.252 . S
O220 Mg210 2.251 . S
O220 Mg213 2.079 . S
O220 C222 1.273 . S
C221 O217 1.246 . S
C221 O218 1.259 . S
C222 O219 1.252 . S
C222 O220 1.273 . S
O223 Mg210 2.010 . S
O223 C215 1.249 . S
C224 C225 1.387 . S
C224 H228 0.950 . S
C224 C233 1.390 . S
C225 C224 1.387 . S
C225 C227 1.387 1_554 S
H226 C233 0.950 . S
C227 C225 1.387 1_556 S
C227 C229 1.390 . S
C227 H231 0.950 . S
H228 C224 0.950 . S
C229 C227 1.390 . S
C229 C230 1.387 . S
C229 H232 0.950 . S
C230 C229 1.387 . S
C230 C233 1.387 1_556 S
H231 C227 0.950 . S
H232 C229 0.950 . S
C233 C224 1.390 . S
C233 H226 0.950 . S
C233 C230 1.387 1_554 S
C234 C235 1.387 . S
C234 H238 0.950 . S
C234 C243 1.390 . S
C235 C234 1.387 . S
C235 C237 1.387 . S
H236 C243 0.950 . S
C237 C235 1.387 . S
C237 C239 1.390 . S
C237 H241 0.950 . S
H238 C234 0.950 . S
C239 C237 1.390 . S
C239 C240 1.387 . S
C239 H242 0.950 . S
C240 C239 1.387 . S
C240 C243 1.387 . S
H241 C237 0.950 . S
H242 C239 0.950 . S
C243 C234 1.390 . S
C243 H236 0.950 . S
C243 C240 1.387 . S
C244 C245 1.387 1_554 S
C244 H248 0.950 . S
C244 C253 1.390 . S
C245 C244 1.387 1_556 S
C245 C247 1.387 . S
H246 C253 0.950 . S
C247 C245 1.387 . S
C247 C249 1.390 . S
C247 H251 0.950 . S
H248 C244 0.950 . S
C249 C247 1.390 . S
C249 C250 1.387 1_556 S
C249 H252 0.950 . S
C250 C249 1.387 1_554 S
C250 C253 1.387 . S
H251 C247 0.950 . S
H252 C249 0.950 . S
C253 C244 1.390 . S
C253 H246 0.950 . S
C253 C250 1.387 . S
C254 C255 1.387 . S
C254 H258 0.950 . S
C254 C263 1.390 . S
C255 C254 1.387 . S
C255 C257 1.387 . S
H256 C263 0.950 . S
C257 C255 1.387 . S
C257 C259 1.390 . S
C257 H261 0.950 . S
H258 C254 0.950 . S
C259 C257 1.390 . S
C259 C260 1.387 . S
C259 H262 0.950 . S
C260 C259 1.387 . S
C260 C263 1.387 . S
H261 C257 0.950 . S
H262 C259 0.950 . S
C263 C254 1.390 . S
C263 H256 0.950 . S
C263 C260 1.387 . S
C264 C265 1.387 1_556 S
C264 H268 0.950 . S
C264 C273 1.390 . S
C265 C264 1.387 1_554 S
C265 C267 1.387 . S
H266 C273 0.950 . S
C267 C265 1.387 . S
C267 C269 1.390 . S
C267 H271 0.950 . S
H268 C264 0.950 . S
C269 C267 1.390 . S
C269 C270 1.387 1_554 S
C269 H272 0.950 . S
C270 C269 1.387 1_556 S
C270 C273 1.387 . S
H271 C267 0.950 . S
H272 C269 0.950 . S
C273 C264 1.390 . S
C273 H266 0.950 . S
C273 C270 1.387 . S
C274 C275 1.387 . S
C274 H278 0.950 . S
C274 C283 1.390 . S
C275 C274 1.387 . S
C275 C277 1.387 . S
H276 C283 0.950 . S
C277 C275 1.387 . S
C277 C279 1.390 . S
C277 H281 0.950 . S
H278 C274 0.950 . S
C279 C277 1.390 . S
C279 C280 1.387 . S
C279 H282 0.950 . S
C280 C279 1.387 . S
C280 C283 1.387 . S
H281 C277 0.950 . S
H282 C279 0.950 . S
C283 C274 1.390 . S
C283 H276 0.950 . S
C283 C280 1.387 . S
C284 C285 1.387 1_554 S
C284 H288 0.950 . S
C284 C293 1.390 . S
C285 C284 1.387 1_556 S
C285 C287 1.387 . S
H286 C293 0.950 . S
C287 C285 1.387 . S
C287 C289 1.390 . S
C287 H291 0.950 . S
H288 C284 0.950 . S
C289 C287 1.390 . S
C289 C290 1.387 1_556 S
C289 H292 0.950 . S
C290 C289 1.387 1_554 S
C290 C293 1.387 . S
H291 C287 0.950 . S
H292 C289 0.950 . S
C293 C284 1.390 . S
C293 H286 0.950 . S
C293 C290 1.387 . S
C294 C295 1.387 . S
C294 H298 0.950 . S
C294 C303 1.390 . S
C295 C294 1.387 . S
C295 C297 1.387 . S
H296 C303 0.950 . S
C297 C295 1.387 . S
C297 C299 1.390 . S
C297 H301 0.950 . S
H298 C294 0.950 . S
C299 C297 1.390 . S
C299 C300 1.387 . S
C299 H302 0.950 . S
C300 C299 1.387 . S
C300 C303 1.387 . S
H301 C297 0.950 . S
H302 C299 0.950 . S
C303 C294 1.390 . S
C303 H296 0.950 . S
C303 C300 1.387 . S
C304 C305 1.387 . S
C304 H308 0.950 . S
C304 C313 1.390 1_544 S
C305 C304 1.387 . S
C305 C307 1.387 . S
H306 C313 0.950 . S
C307 C305 1.387 . S
C307 C309 1.390 1_544 S
C307 H311 0.950 . S
H308 C304 0.950 . S
C309 C307 1.390 1_566 S
C309 C310 1.387 . S
C309 H312 0.950 . S
C310 C309 1.387 . S
C310 C313 1.387 . S
H311 C307 0.950 . S
H312 C309 0.950 . S
C313 C304 1.390 1_566 S
C313 H306 0.950 . S
C313 C310 1.387 . S
C314 C315 1.387 . S
C314 H318 0.950 . S
C314 C323 1.390 1_565 S
C315 C314 1.387 . S
C315 C317 1.387 . S
H316 C323 0.950 . S
C317 C315 1.387 . S
C317 C319 1.390 1_565 S
C317 H321 0.950 . S
H318 C314 0.950 . S
C319 C317 1.390 1_545 S
C319 C320 1.387 . S
C319 H322 0.950 . S
C320 C319 1.387 . S
C320 C323 1.387 . S
H321 C317 0.950 . S
H322 C319 0.950 . S
C323 C314 1.390 1_545 S
C323 H316 0.950 . S
C323 C320 1.387 . S
C324 C325 1.387 . S
C324 H328 0.950 . S
C324 C333 1.390 1_566 S
C325 C324 1.387 . S
C325 C327 1.387 . S
H326 C333 0.950 . S
C327 C325 1.387 . S
C327 C329 1.390 1_566 S
C327 H331 0.950 . S
H328 C324 0.950 . S
C329 C327 1.390 1_544 S
C329 C330 1.387 . S
C329 H332 0.950 . S
C330 C329 1.387 . S
C330 C333 1.387 . S
H331 C327 0.950 . S
H332 C329 0.950 . S
C333 C324 1.390 1_544 S
C333 H326 0.950 . S
C333 C330 1.387 . S
C334 C335 1.387 . S
C334 H338 0.950 . S
C334 C343 1.390 1_545 S
C335 C334 1.387 . S
C335 C337 1.387 . S
H336 C343 0.950 . S
C337 C335 1.387 . S
C337 C339 1.390 1_545 S
C337 H341 0.950 . S
H338 C334 0.950 . S
C339 C337 1.390 1_565 S
C339 C340 1.387 . S
C339 H342 0.950 . S
C340 C339 1.387 . S
C340 C343 1.387 . S
H341 C337 0.950 . S
H342 C339 0.950 . S
C343 C334 1.390 1_565 S
C343 H336 0.950 . S
C343 C340 1.387 . S
C344 C345 1.387 . S
C344 H348 0.950 . S
C344 C353 1.390 1_556 S
C345 C344 1.387 . S
C345 C347 1.387 . S
H346 C353 0.950 . S
C347 C345 1.387 . S
C347 C349 1.390 1_556 S
C347 H351 0.950 . S
H348 C344 0.950 . S
C349 C347 1.390 1_554 S
C349 C350 1.387 . S
C349 H352 0.950 . S
C350 C349 1.387 . S
C350 C353 1.387 . S
H351 C347 0.950 . S
H352 C349 0.950 . S
C353 C344 1.390 1_554 S
C353 H346 0.950 . S
C353 C350 1.387 . S
C354 C355 1.387 . S
C354 H358 0.950 . S
C354 C363 1.390 . S
C355 C354 1.387 . S
C355 C357 1.387 . S
H356 C363 0.950 . S
C357 C355 1.387 . S
C357 C359 1.390 . S
C357 H361 0.950 . S
H358 C354 0.950 . S
C359 C357 1.390 . S
C359 C360 1.387 . S
C359 H362 0.950 . S
C360 C359 1.387 . S
C360 C363 1.387 . S
H361 C357 0.950 . S
H362 C359 0.950 . S
C363 C354 1.390 . S
C363 H356 0.950 . S
C363 C360 1.387 . S
C364 C365 1.387 . S
C364 H368 0.950 . S
C364 C373 1.390 1_554 S
C365 C364 1.387 . S
C365 C367 1.387 . S
H366 C373 0.950 . S
C367 C365 1.387 . S
C367 C369 1.390 1_554 S
C367 H371 0.950 . S
H368 C364 0.950 . S
C369 C367 1.390 1_556 S
C369 C370 1.387 . S
C369 H372 0.950 . S
C370 C369 1.387 . S
C370 C373 1.387 . S
H371 C367 0.950 . S
H372 C369 0.950 . S
C373 C364 1.390 1_556 S
C373 H366 0.950 . S
C373 C370 1.387 . S
C374 C375 1.387 . S
C374 H378 0.950 . S
C374 C383 1.390 . S
C375 C374 1.387 . S
C375 C377 1.387 . S
H376 C383 0.950 . S
C377 C375 1.387 . S
C377 C379 1.390 . S
C377 H381 0.950 . S
H378 C374 0.950 . S
C379 C377 1.390 . S
C379 C380 1.387 . S
C379 H382 0.950 . S
C380 C379 1.387 . S
C380 C383 1.387 . S
H381 C377 0.950 . S
H382 C379 0.950 . S
C383 C374 1.390 . S
C383 H376 0.950 . S
C383 C380 1.387 . S
C384 C385 1.387 . S
C384 H388 0.950 . S
C384 C393 1.390 . S
C385 C384 1.387 . S
C385 C387 1.387 . S
H386 C393 0.950 . S
C387 C385 1.387 . S
C387 C389 1.390 . S
C387 H391 0.950 . S
H388 C384 0.950 . S
C389 C387 1.390 . S
C389 C390 1.387 . S
C389 H392 0.950 . S
C390 C389 1.387 . S
C390 C393 1.387 . S
H391 C387 0.950 . S
H392 C389 0.950 . S
C393 C384 1.390 . S
C393 H386 0.950 . S
C393 C390 1.387 . S
C394 C395 1.387 . S
C394 H398 0.950 . S
C394 C403 1.390 1_655 S
C395 C394 1.387 . S
C395 C397 1.387 . S
H396 C403 0.950 . S
C397 C395 1.387 . S
C397 C399 1.390 1_655 S
C397 H401 0.950 . S
H398 C394 0.950 . S
C399 C397 1.390 1_455 S
C399 C400 1.387 . S
C399 H402 0.950 . S
C400 C399 1.387 . S
C400 C403 1.387 . S
H401 C397 0.950 . S
H402 C399 0.950 . S
C403 C394 1.390 1_455 S
C403 H396 0.950 . S
C403 C400 1.387 . S
C404 C405 1.387 . S
C404 H408 0.950 . S
C404 C413 1.390 . S
C405 C404 1.387 . S
C405 C407 1.387 . S
H406 C413 0.950 . S
C407 C405 1.387 . S
C407 C409 1.390 . S
C407 H411 0.950 . S
H408 C404 0.950 . S
C409 C407 1.390 . S
C409 C410 1.387 . S
C409 H412 0.950 . S
C410 C409 1.387 . S
C410 C413 1.387 . S
H411 C407 0.950 . S
H412 C409 0.950 . S
C413 C404 1.390 . S
C413 H406 0.950 . S
C413 C410 1.387 . S
C414 C415 1.387 . S
C414 H418 0.950 . S
C414 C423 1.390 1_455 S
C415 C414 1.387 . S
C415 C417 1.387 . S
H416 C423 0.950 . S
C417 C415 1.387 . S
C417 C419 1.390 1_455 S
C417 H421 0.950 . S
H418 C414 0.950 . S
C419 C417 1.390 1_655 S
C419 C420 1.387 . S
C419 H422 0.950 . S
C420 C419 1.387 . S
C420 C423 1.387 . S
H421 C417 0.950 . S
H422 C419 0.950 . S
C423 C414 1.390 1_655 S
C423 H416 0.950 . S
C423 C420 1.387 . S
C424 C425 1.387 . S
C424 H428 0.950 . S
C424 C433 1.390 1_455 S
C425 C424 1.387 . S
C425 C427 1.387 . S
H426 C433 0.950 . S
C427 C425 1.387 . S
C427 C429 1.390 1_455 S
C427 H431 0.950 . S
H428 C424 0.950 . S
C429 C427 1.390 1_655 S
C429 C430 1.387 . S
C429 H432 0.950 . S
C430 C429 1.387 . S
C430 C433 1.387 . S
H431 C427 0.950 . S
H432 C429 0.950 . S
C433 C424 1.390 1_655 S
C433 H426 0.950 . S
C433 C430 1.387 . S
C434 C435 1.387 . S
C434 H438 0.950 . S
C434 C443 1.390 . S
C435 C434 1.387 . S
C435 C437 1.387 . S
H436 C443 0.950 . S
C437 C435 1.387 . S
C437 C439 1.390 . S
C437 H441 0.950 . S
H438 C434 0.950 . S
C439 C437 1.390 . S
C439 C440 1.387 . S
C439 H442 0.950 . S
C440 C439 1.387 . S
C440 C443 1.387 . S
H441 C437 0.950 . S
H442 C439 0.950 . S
C443 C434 1.390 . S
C443 H436 0.950 . S
C443 C440 1.387 . S
C444 C445 1.387 . S
C444 H448 0.950 . S
C444 C453 1.390 1_455 S
C445 C444 1.387 . S
C445 C447 1.387 . S
H446 C453 0.950 . S
C447 C445 1.387 . S
C447 C449 1.390 1_455 S
C447 H451 0.950 . S
H448 C444 0.950 . S
C449 C447 1.390 1_655 S
C449 C450 1.387 . S
C449 H452 0.950 . S
C450 C449 1.387 . S
C450 C453 1.387 . S
H451 C447 0.950 . S
H452 C449 0.950 . S
C453 C444 1.390 1_655 S
C453 H446 0.950 . S
C453 C450 1.387 . S
C454 C455 1.387 . S
C454 H458 0.950 . S
C454 C463 1.390 . S
C455 C454 1.387 . S
C455 C457 1.387 . S
H456 C463 0.950 . S
C457 C455 1.387 . S
C457 C459 1.390 . S
C457 H461 0.950 . S
H458 C454 0.950 . S
C459 C457 1.390 . S
C459 C460 1.387 . S
C459 H462 0.950 . S
C460 C459 1.387 . S
C460 C463 1.387 . S
H461 C457 0.950 . S
H462 C459 0.950 . S
C463 C454 1.390 . S
C463 H456 0.950 . S
C463 C460 1.387 . S
C464 C465 1.387 . S
C464 H468 0.950 . S
C464 C473 1.390 . S
C465 C464 1.387 . S
C465 C467 1.387 . S
H466 C473 0.950 . S
C467 C465 1.387 . S
C467 C469 1.390 . S
C467 H471 0.950 . S
H468 C464 0.950 . S
C469 C467 1.390 . S
C469 C470 1.387 . S
C469 H472 0.950 . S
C470 C469 1.387 . S
C470 C473 1.387 . S
H471 C467 0.950 . S
H472 C469 0.950 . S
C473 C464 1.390 . S
C473 H466 0.950 . S
C473 C470 1.387 . S
C474 C475 1.387 . S
C474 H478 0.950 . S
C474 C483 1.390 . S
C475 C474 1.387 . S
C475 C477 1.387 . S
H476 C483 0.950 . S
C477 C475 1.387 . S
C477 C479 1.390 . S
C477 H481 0.950 . S
H478 C474 0.950 . S
C479 C477 1.390 . S
C479 C480 1.387 . S
C479 H482 0.950 . S
C480 C479 1.387 . S
C480 C483 1.387 . S
H481 C477 0.950 . S
H482 C479 0.950 . S
C483 C474 1.390 . S
C483 H476 0.950 . S
C483 C480 1.387 . S
C484 C485 1.387 . S
C484 H488 0.950 . S
C484 C493 1.390 . S
C485 C484 1.387 . S
C485 C487 1.387 . S
H486 C493 0.950 . S
C487 C485 1.387 . S
C487 C489 1.390 . S
C487 H491 0.950 . S
H488 C484 0.950 . S
C489 C487 1.390 . S
C489 C490 1.387 . S
C489 H492 0.950 . S
C490 C489 1.387 . S
C490 C493 1.387 . S
H491 C487 0.950 . S
H492 C489 0.950 . S
C493 C484 1.390 . S
C493 H486 0.950 . S
C493 C490 1.387 . S
C494 C495 1.387 . S
C494 H498 0.950 . S
C494 C503 1.390 . S
C495 C494 1.387 . S
C495 C497 1.387 . S
H496 C503 0.950 . S
C497 C495 1.387 . S
C497 C499 1.390 . S
C497 H501 0.950 . S
H498 C494 0.950 . S
C499 C497 1.390 . S
C499 C500 1.387 . S
C499 H502 0.950 . S
C500 C499 1.387 . S
C500 C503 1.387 . S
H501 C497 0.950 . S
H502 C499 0.950 . S
C503 C494 1.390 . S
C503 H496 0.950 . S
C503 C500 1.387 . S
C504 C505 1.387 . S
C504 H508 0.950 . S
C504 C513 1.390 . S
C505 C504 1.387 . S
C505 C507 1.387 . S
H506 C513 0.950 . S
C507 C505 1.387 . S
C507 C509 1.390 . S
C507 H511 0.950 . S
H508 C504 0.950 . S
C509 C507 1.390 . S
C509 C510 1.387 . S
C509 H512 0.950 . S
C510 C509 1.387 . S
C510 C513 1.387 . S
H511 C507 0.950 . S
H512 C509 0.950 . S
C513 C504 1.390 . S
C513 H506 0.950 . S
C513 C510 1.387 . S
C514 C515 1.387 . S
C514 H518 0.950 . S
C514 C523 1.390 . S
C515 C514 1.387 . S
C515 C517 1.387 . S
H516 C523 0.950 . S
C517 C515 1.387 . S
C517 C519 1.390 . S
C517 H521 0.950 . S
H518 C514 0.950 . S
C519 C517 1.390 . S
C519 C520 1.387 . S
C519 H522 0.950 . S
C520 C519 1.387 . S
C520 C523 1.387 . S
H521 C517 0.950 . S
H522 C519 0.950 . S
C523 C514 1.390 . S
C523 H516 0.950 . S
C523 C520 1.387 . S
C524 C525 1.387 . S
C524 H528 0.950 . S
C524 C533 1.390 . S
C525 C524 1.387 . S
C525 C527 1.387 . S
H526 C533 0.950 . S
C527 C525 1.387 . S
C527 C529 1.390 . S
C527 H531 0.950 . S
H528 C524 0.950 . S
C529 C527 1.390 . S
C529 C530 1.387 . S
C529 H532 0.950 . S
C530 C529 1.387 . S
C530 C533 1.387 . S
H531 C527 0.950 . S
H532 C529 0.950 . S
C533 C524 1.390 . S
C533 H526 0.950 . S
C533 C530 1.387 . S
C534 C535 1.387 . S
C534 H538 0.950 . S
C534 C543 1.390 . S
C535 C534 1.387 . S
C535 C537 1.387 . S
H536 C543 0.950 . S
C537 C535 1.387 . S
C537 C539 1.390 . S
C537 H541 0.950 . S
H538 C534 0.950 . S
C539 C537 1.390 . S
C539 C540 1.387 . S
C539 H542 0.950 . S
C540 C539 1.387 . S
C540 C543 1.387 . S
H541 C537 0.950 . S
H542 C539 0.950 . S
C543 C534 1.390 . S
C543 H536 0.950 . S
C543 C540 1.387 . S
C225 C11 1.412 . S
C230 C180 1.426 . S
C235 C194 1.426 . S
C240 C25 1.412 . S
C245 C39 1.413 . S
C250 C208 1.425 . S
C255 C222 1.426 . S
C260 C53 1.412 . S
C265 C123 1.413 . S
C270 C68 1.425 . S
C275 C82 1.426 . S
C280 C137 1.412 . S
C285 C151 1.413 . S
C290 C96 1.425 . S
C295 C110 1.425 . S
C300 C165 1.413 . S
C305 C4 1.488 . S
C310 C32 1.488 . S
C315 C18 1.487 . S
C320 C46 1.487 . S
C325 C60 1.418 . S
C330 C88 1.418 . S
C335 C74 1.418 . S
C340 C102 1.418 . S
C345 C144 1.488 . S
C350 C116 1.488 . S
C355 C130 1.487 . S
C360 C158 1.487 . S
C365 C200 1.418 . S
C370 C172 1.418 . S
C375 C186 1.418 . S
C380 C214 1.418 . S
C385 C89 1.312 . S
C390 C5 1.308 . S
C395 C103 1.312 . S
C400 C19 1.308 . S
C405 C33 1.308 . S
C410 C61 1.312 . S
C415 C47 1.308 . S
C420 C75 1.312 . S
C425 C201 1.312 . S
C430 C117 1.308 . S
C435 C131 1.308 . S
C440 C215 1.312 . S
C445 C173 1.312 . S
C450 C145 1.308 . S
C455 C159 1.308 . S
C460 C187 1.312 . S
C465 C12 1.458 . S
C470 C54 1.458 . S
C475 C40 1.458 . S
C480 C26 1.458 . S
C485 C67 1.371 . S
C490 C109 1.371 . S
C495 C81 1.371 . S
C500 C95 1.371 . S
C505 C166 1.458 . S
C510 C124 1.458 . S
C515 C138 1.459 . S
C520 C152 1.459 . S
C525 C221 1.369 . S
C530 C179 1.369 . S
C535 C193 1.369 . S
C540 C207 1.369 . S
