# Generated by pormake.
# Topology irl, (4)-cn, num edge types: 1
# Building blocks:
#     Node 0, Type 0, BuildingBlock: TATPOV_clean_sbu_0, # of connection points: 4
#     Node 1, Type 0, BuildingBlock: TATPOV_clean_sbu_0, # of connection points: 4
#     Node 2, Type 0, BuildingBlock: TATPOV_clean_sbu_0, # of connection points: 4
#     Node 3, Type 0, BuildingBlock: TATPOV_clean_sbu_0, # of connection points: 4
#     Node 4, Type 0, BuildingBlock: TATPOV_clean_sbu_0, # of connection points: 4
#     Node 5, Type 0, BuildingBlock: TATPOV_clean_sbu_0, # of connection points: 4
#     Node 6, Type 0, BuildingBlock: TATPOV_clean_sbu_0, # of connection points: 4
#     Node 7, Type 0, BuildingBlock: TATPOV_clean_sbu_0, # of connection points: 4
#     Edge 8, Type (0, 0), BuildingBlock: KIFKEQ_clean_linker_1, # of connection points: 2
#     Edge 9, Type (0, 0), BuildingBlock: KIFKEQ_clean_linker_1, # of connection points: 2
#     Edge 10, Type (0, 0), BuildingBlock: KIFKEQ_clean_linker_1, # of connection points: 2
#     Edge 11, Type (0, 0), BuildingBlock: KIFKEQ_clean_linker_1, # of connection points: 2
#     Edge 12, Type (0, 0), BuildingBlock: KIFKEQ_clean_linker_1, # of connection points: 2
#     Edge 13, Type (0, 0), BuildingBlock: KIFKEQ_clean_linker_1, # of connection points: 2
#     Edge 14, Type (0, 0), BuildingBlock: KIFKEQ_clean_linker_1, # of connection points: 2
#     Edge 15, Type (0, 0), BuildingBlock: KIFKEQ_clean_linker_1, # of connection points: 2
#     Edge 16, Type (0, 0), BuildingBlock: KIFKEQ_clean_linker_1, # of connection points: 2
#     Edge 17, Type (0, 0), BuildingBlock: KIFKEQ_clean_linker_1, # of connection points: 2
#     Edge 18, Type (0, 0), BuildingBlock: KIFKEQ_clean_linker_1, # of connection points: 2
#     Edge 19, Type (0, 0), BuildingBlock: KIFKEQ_clean_linker_1, # of connection points: 2
#     Edge 20, Type (0, 0), BuildingBlock: KIFKEQ_clean_linker_1, # of connection points: 2
#     Edge 21, Type (0, 0), BuildingBlock: KIFKEQ_clean_linker_1, # of connection points: 2
#     Edge 22, Type (0, 0), BuildingBlock: KIFKEQ_clean_linker_1, # of connection points: 2
#     Edge 23, Type (0, 0), BuildingBlock: KIFKEQ_clean_linker_1, # of connection points: 2
# Relax obj value: 0.141
# Max RMSD: 0.157
# Mean RMSD: 0.157
data_MOF--net-irl--node1-TATPOV_clean_sbu_0--edge1-KIFKEQ_clean_linker_1
_symmetry_space_group_name_H-M    P1
_symmetry_Int_Tables_number       1
_symmetry_cell_setting            triclinic
loop_
_symmetry_equiv_pos_as_xyz
'x, y, z'
_cell_length_a     38.838485
_cell_length_b     30.549366
_cell_length_c     28.857888
_cell_angle_alpha  90.070814
_cell_angle_beta   90.166922
_cell_angle_gamma 90.371338
loop_
_atom_site_label
_atom_site_type_symbol
_atom_site_fract_x
_atom_site_fract_y
_atom_site_fract_z
_atom_type_partial_charge
Zn0 Zn 1.01691 0.26313 -0.01848 0.0
Zn1 Zn 0.08655 0.26014 -0.01504 0.0
O2 O 0.07476 0.29128 0.92329 0.0
O3 O 1.01833 0.29786 0.92266 0.0
O4 O 0.139 0.26185 -0.01287 0.0
O5 O 1.01556 0.29361 0.04318 0.0
O6 O 0.07214 0.29003 0.0462 0.0
C7 C 0.04721 0.30432 0.9036 0.0
C8 C 0.04496 0.17497 -0.01949 0.0
O9 O 0.0739 0.19473 -0.01622 0.0
O10 O 1.01728 0.19668 -0.02162 0.0
C11 C 0.15678 0.25009 0.95233 0.0
O12 O 0.14073 0.2361 0.91494 0.0
C13 C 0.04354 0.30093 0.06446 0.0
Zn14 Zn 0.06049 0.75637 -0.02365 0.0
Zn15 Zn 0.9908 0.7585 -0.02418 0.0
O16 O 1.00509 0.72784 0.91486 0.0
O17 O 0.06157 0.72244 0.91693 0.0
O18 O 0.93843 0.75546 0.9728 0.0
O19 O 0.05981 0.72485 0.03736 0.0
O20 O 1.00316 0.72829 0.0377 0.0
C21 C 1.03324 0.71545 0.89642 0.0
C22 C 1.03177 0.84421 -0.02465 0.0
O23 O 1.00289 0.82412 -0.02355 0.0
O24 O 0.05963 0.82282 0.97451 0.0
C25 C 0.91864 0.78001 -0.00374 0.0
O26 O 0.9323 0.80918 0.02444 0.0
C27 C 1.03135 0.71721 0.05712 0.0
Zn28 Zn 1.02003 0.75283 0.47741 0.0
Zn29 Zn 0.08973 0.75762 0.47763 0.0
O30 O 0.07755 0.72584 0.53859 0.0
O31 O 1.02097 0.72035 0.53792 0.0
O32 O 0.1421 0.75822 0.47674 0.0
O33 O 1.02011 0.71999 0.41722 0.0
O34 O 0.07653 0.72749 0.41571 0.0
C35 C 0.04956 0.71346 0.5577 0.0
C36 C 0.04743 0.84167 0.47828 0.0
O37 O 0.0765 0.82253 0.47926 0.0
O38 O 1.0198 0.81937 0.47683 0.0
C39 C 0.15941 0.77525 0.50973 0.0
O40 O 0.14288 0.7926 0.54485 0.0
C41 C 0.04853 0.71446 0.39678 0.0
Zn42 Zn 0.05883 0.26116 0.48274 0.0
Zn43 Zn 0.98913 0.25539 0.48571 0.0
O44 O 1.00288 0.28709 0.54637 0.0
O45 O 0.05941 0.29276 0.54386 0.0
O46 O 0.93677 0.25297 0.48786 0.0
O47 O 0.05622 0.29497 0.4233 0.0
O48 O 0.99985 0.28647 0.42365 0.0
C49 C 1.03128 0.29948 0.56465 0.0
C50 C 1.03252 0.17202 0.48299 0.0
O51 O 1.00337 0.1908 0.48562 0.0
O52 O 0.05994 0.19467 0.48075 0.0
C53 C 0.9192 0.287 0.49667 0.0
O54 O 0.93544 0.3242 0.50428 0.0
C55 C 1.02725 0.30031 0.40402 0.0
Zn56 Zn 0.51728 0.76675 -0.0154 0.0
Zn57 Zn 0.58689 0.76315 -0.01074 0.0
O58 O 0.57637 0.79392 0.92692 0.0
O59 O 0.51997 0.80107 0.9255 0.0
O60 O 0.63923 0.76448 -0.0055 0.0
O61 O 0.51501 0.79765 0.046 0.0
O62 O 0.57152 0.79356 0.0497 0.0
C63 C 0.54904 0.80708 0.90676 0.0
C64 C 0.54492 0.67832 -0.01545 0.0
O65 O 0.57394 0.69784 -0.01192 0.0
O66 O 0.51738 0.70027 -0.01803 0.0
C67 C 0.65913 0.75732 0.96038 0.0
O68 O 0.64557 0.74815 0.91972 0.0
C69 C 0.54289 0.80485 0.06755 0.0
Zn70 Zn 0.55769 0.25946 -0.01983 0.0
Zn71 Zn 0.48809 0.26245 -0.01793 0.0
O72 O 0.5001 0.23202 0.91999 0.0
O73 O 0.55657 0.22579 0.92058 0.0
O74 O 0.43566 0.26082 -0.01599 0.0
O75 O 0.55871 0.22767 0.04099 0.0
O76 O 0.50213 0.23147 0.04287 0.0
C77 C 0.52788 0.21936 0.90076 0.0
C78 C 0.52981 0.34765 -0.01955 0.0
O79 O 0.50081 0.32789 -0.01756 0.0
O80 O 0.55748 0.32591 -0.02134 0.0
C81 C 0.41744 0.2735 0.94989 0.0
O82 O 0.43299 0.28844 0.91269 0.0
C83 C 0.53054 0.22003 0.06145 0.0
Zn84 Zn 0.5186 0.25606 0.47948 0.0
Zn85 Zn 0.58821 0.25947 0.48163 0.0
O86 O 0.57478 0.22894 0.54296 0.0
O87 O 0.51814 0.22489 0.54069 0.0
O88 O 0.64058 0.25878 0.48128 0.0
O89 O 0.51891 0.22197 0.42009 0.0
O90 O 0.57538 0.22878 0.41989 0.0
C91 C 0.54626 0.21764 0.56148 0.0
C92 C 0.54707 0.34436 0.47951 0.0
O93 O 0.57588 0.32471 0.48187 0.0
O94 O 0.51922 0.32254 0.47746 0.0
C95 C 0.6584 0.27855 0.51201 0.0
O96 O 0.64243 0.29974 0.54517 0.0
C97 C 0.54756 0.21578 0.40048 0.0
Zn98 Zn 0.56029 0.76393 0.48455 0.0
Zn99 Zn 0.49054 0.75813 0.48835 0.0
O100 O 0.50451 0.7893 0.54924 0.0
O101 O 0.56104 0.79484 0.54611 0.0
O102 O 0.43819 0.75526 0.49043 0.0
O103 O 0.5572 0.79841 0.42551 0.0
O104 O 0.50085 0.78986 0.42661 0.0
C105 C 0.53306 0.80141 0.56731 0.0
C106 C 0.53403 0.67482 0.48424 0.0
O107 O 0.50492 0.69364 0.48744 0.0
O108 O 0.56145 0.69743 0.48182 0.0
C109 C 0.42026 0.78839 0.50146 0.0
O110 O 0.43609 0.82527 0.51186 0.0
C111 C 0.52806 0.80393 0.40675 0.0
H112 H 0.9804 0.90164 -0.00276 0.0
H113 H 0.08655 0.89637 0.95337 0.0
H114 H 0.98382 0.98134 -0.00053 0.0
H115 H 0.08961 0.97582 0.9536 0.0
H116 H 0.09555 0.11674 0.00338 0.0
H117 H 0.09191 0.03708 0.00304 0.0
H118 H 0.98718 0.04419 0.95245 0.0
H119 H 0.99042 0.12363 0.95476 0.0
C120 C 1.00435 0.91752 -0.01238 0.0
C121 C 1.03321 0.89267 -0.02472 0.0
C122 C 1.0063 0.96327 -0.01135 0.0
C123 C 1.03704 0.98523 -0.02321 0.0
C124 C 0.06573 0.9602 0.96389 0.0
C125 C 0.0639 0.91454 0.96343 0.0
C126 C 0.07178 0.10124 -0.0078 0.0
C127 C 0.04328 0.12653 -0.02078 0.0
C128 C 0.0697 0.0555 -0.00826 0.0
C129 C 0.03922 0.03398 -0.0223 0.0
C130 C 1.01085 0.05945 0.96433 0.0
C131 C 1.01279 0.10511 0.96534 0.0
H132 H 0.09842 0.90021 0.50113 0.0
H133 H 0.99223 0.89256 0.45669 0.0
H134 H 0.09467 0.97979 0.50365 0.0
H135 H 0.98884 0.97195 0.4572 0.0
H136 H 0.98244 0.11269 0.50641 0.0
H137 H 0.98647 0.03315 0.50661 0.0
H138 H 0.09108 0.04252 0.45652 0.0
H139 H 0.08747 0.12192 0.45832 0.0
C140 C 0.07438 0.91555 0.49148 0.0
C141 C 0.04562 0.89006 0.47883 0.0
C142 C 0.07224 0.96123 0.49267 0.0
C143 C 0.04142 0.98251 0.48066 0.0
C144 C 1.01279 0.95685 0.46759 0.0
C145 C 1.01481 0.91123 0.46697 0.0
C146 C 1.00629 0.09772 0.49549 0.0
C147 C 1.03463 0.12364 0.48243 0.0
C148 C 1.00857 0.05205 0.49533 0.0
C149 C 0.03911 0.03119 0.48151 0.0
C150 C 0.06737 0.05728 0.4682 0.0
C151 C 0.06522 0.1029 0.46892 0.0
H152 H 0.4901 0.62734 0.95907 0.0
H153 H 0.59521 0.61973 0.00763 0.0
H154 H 0.48644 0.54791 0.9571 0.0
H155 H 0.59116 0.54009 0.00758 0.0
H156 H 0.58487 0.39924 0.95813 0.0
H157 H 0.58842 0.47867 0.95818 0.0
H158 H 0.48283 0.48533 0.00465 0.0
H159 H 0.47892 0.40567 0.00265 0.0
C160 C 0.51238 0.60867 0.9697 0.0
C161 C 0.54298 0.62989 -0.01652 0.0
C162 C 0.5102 0.56302 0.96889 0.0
C163 C 0.53843 0.53736 -0.01766 0.0
C164 C 0.56904 0.55867 -0.00375 0.0
C165 C 0.57135 0.60439 -0.00346 0.0
C166 C 0.56237 0.41764 0.9683 0.0
C167 C 0.53159 0.3961 -0.01961 0.0
C168 C 0.56449 0.46329 0.96865 0.0
C169 C 0.53599 0.48864 -0.01837 0.0
C170 C 0.50517 0.46701 -0.00624 0.0
C171 C 0.50294 0.42128 -0.00713 0.0
H172 H 0.49268 0.39589 0.45601 0.0
H173 H 0.59837 0.40237 0.50276 0.0
H174 H 0.4899 0.47531 0.45618 0.0
H175 H 0.59521 0.48203 0.50484 0.0
H176 H 0.58901 0.62455 0.45985 0.0
H177 H 0.59235 0.54509 0.45763 0.0
H178 H 0.48736 0.5361 0.50633 0.0
H179 H 0.48363 0.61563 0.50665 0.0
C180 C 0.51528 0.4143 0.46668 0.0
C181 C 0.54576 0.39279 0.4794 0.0
C182 C 0.51361 0.45994 0.4671 0.0
C183 C 0.54224 0.48529 0.48079 0.0
C184 C 0.57278 0.46369 0.49344 0.0
C185 C 0.57458 0.41797 0.4925 0.0
C186 C 0.56662 0.6056 0.47005 0.0
C187 C 0.53602 0.62643 0.48334 0.0
C188 C 0.5686 0.55995 0.46907 0.0
C189 C 0.54015 0.53397 0.48185 0.0
C190 C 0.50961 0.55493 0.49544 0.0
C191 C 0.5075 0.6006 0.4959 0.0
H192 H 0.09506 0.30041 0.12921 0.0
H193 H 0.98892 0.33765 0.10915 0.0
H194 H 0.08939 0.31316 0.21195 0.0
H195 H 0.98352 0.35183 0.19188 0.0
H196 H 0.9754 0.29173 0.34033 0.0
H197 H 0.97941 0.30463 0.25739 0.0
H198 H 0.08095 0.36082 0.27618 0.0
H199 H 0.07734 0.34648 0.35902 0.0
C200 C 0.0708 0.31254 0.14228 0.0
C201 C 0.0423 0.3173 0.11271 0.0
C202 C 0.06755 0.3201 0.18982 0.0
C203 C 1.03581 0.333 0.20879 0.0
C204 C 1.00809 0.34099 0.17861 0.0
C205 C 1.01127 0.33308 0.13113 0.0
C206 C 0.99822 0.30781 0.32693 0.0
C207 C 1.02627 0.31735 0.3561 0.0
C208 C 1.00053 0.3154 0.27927 0.0
C209 C 1.0308 0.33312 0.2599 0.0
C210 C 0.05763 0.34613 0.28976 0.0
C211 C 0.05546 0.33815 0.3373 0.0
H212 H 0.10008 0.72015 0.33275 0.0
H213 H 0.996 0.67268 0.35131 0.0
H214 H 0.09501 0.70806 0.24977 0.0
H215 H 0.99127 0.65917 0.26833 0.0
H216 H 0.97972 0.72074 0.12117 0.0
H217 H 0.98475 0.70721 0.20393 0.0
H218 H 0.08871 0.66108 0.18441 0.0
H219 H 0.08401 0.67608 0.10178 0.0
C220 C 0.07648 0.70587 0.3193 0.0
C221 C 0.04826 0.69809 0.34851 0.0
C222 C 0.07357 0.69872 0.2716 0.0
C223 C 0.04249 0.68322 0.25217 0.0
C224 C 1.01527 0.67209 0.28198 0.0
C225 C 1.01808 0.6796 0.3296 0.0
C226 C 1.00336 0.70677 0.13438 0.0
C227 C 1.03165 0.7002 0.10508 0.0
C228 C 1.00625 0.69879 0.18192 0.0
C229 C 1.03738 0.68364 0.20104 0.0
C230 C 0.06467 0.67372 0.17103 0.0
C231 C 0.0619 0.6821 0.12362 0.0
H232 H 0.99746 0.67063 0.60238 0.0
H233 H 0.10148 0.71838 0.62158 0.0
H234 H 0.99316 0.65614 0.68515 0.0
H235 H 0.09683 0.70544 0.70439 0.0
H236 H 0.08612 0.67433 0.85233 0.0
H237 H 0.0908 0.6588 0.76979 0.0
H238 H 0.98654 0.70387 0.74951 0.0
H239 H 0.98154 0.71786 0.83208 0.0
C240 C 1.01962 0.67738 0.62419 0.0
C241 C 0.04964 0.69628 0.60558 0.0
C242 C 1.01707 0.66931 0.67168 0.0
C243 C 0.04436 0.68037 0.70167 0.0
C244 C 0.07533 0.69615 0.68244 0.0
C245 C 0.078 0.70379 0.63485 0.0
C246 C 0.06394 0.67996 0.83035 0.0
C247 C 1.03362 0.69796 0.84861 0.0
C248 C 0.0667 0.67129 0.78298 0.0
C249 C 0.03931 0.68079 0.75276 0.0
C250 C 1.00812 0.69576 0.77165 0.0
C251 C 1.00526 0.70403 0.81911 0.0
H252 H 0.09932 0.29787 0.84061 0.0
H253 H 0.99647 0.34825 0.85787 0.0
H254 H 0.09517 0.30989 0.75756 0.0
H255 H 0.9927 0.36177 0.77485 0.0
H256 H 0.97967 0.29828 0.62883 0.0
H257 H 0.98503 0.31299 0.7113 0.0
H258 H 0.09027 0.35577 0.69129 0.0
H259 H 0.0852 0.33958 0.60888 0.0
C260 C 0.07625 0.31287 0.82686 0.0
C261 C 0.048 0.32136 0.85567 0.0
C262 C 0.07387 0.31996 0.77913 0.0
C263 C 0.04331 0.33612 0.7593 0.0
C264 C 1.01626 0.34826 0.7888 0.0
C265 C 1.01851 0.34076 0.83643 0.0
C266 C 1.00371 0.31171 0.64184 0.0
C267 C 1.03218 0.317 0.61245 0.0
C268 C 1.00678 0.32042 0.68922 0.0
C269 C 1.03829 0.33503 0.70817 0.0
C270 C 0.06589 0.34361 0.67806 0.0
C271 C 0.06291 0.33454 0.63076 0.0
H272 H 0.59457 0.80564 0.13201 0.0
H273 H 0.48795 0.84085 0.11236 0.0
H274 H 0.58906 0.8187 0.21464 0.0
H275 H 0.48269 0.85541 0.19505 0.0
H276 H 0.57746 0.85116 0.3616 0.0
H277 H 0.58045 0.86606 0.27881 0.0
H278 H 0.47926 0.8086 0.26078 0.0
H279 H 0.47584 0.79526 0.34367 0.0
C280 C 0.57021 0.81739 0.14513 0.0
C281 C 0.54156 0.82146 0.11571 0.0
C282 C 0.56705 0.82516 0.19263 0.0
C283 C 0.53525 0.8376 0.21173 0.0
C284 C 0.50733 0.84494 0.18168 0.0
C285 C 0.51042 0.83681 0.13422 0.0
C286 C 0.55551 0.8427 0.34006 0.0
C287 C 0.52663 0.8214 0.35902 0.0
C288 C 0.55732 0.851 0.29255 0.0
C289 C 0.53044 0.83773 0.26288 0.0
C290 C 0.50041 0.81957 0.28248 0.0
C291 C 0.49845 0.81172 0.33012 0.0
H292 H 0.5994 0.22213 0.33701 0.0
H293 H 0.49594 0.17233 0.35494 0.0
H294 H 0.59478 0.21002 0.254 0.0
H295 H 0.49169 0.15866 0.27194 0.0
H296 H 0.47906 0.22133 0.12576 0.0
H297 H 0.48442 0.2069 0.20822 0.0
H298 H 0.5892 0.1641 0.18789 0.0
H299 H 0.58414 0.18009 0.10548 0.0
C300 C 0.57606 0.20726 0.32341 0.0
C301 C 0.54782 0.19894 0.35242 0.0
C302 C 0.57341 0.20011 0.2757 0.0
C303 C 0.54259 0.18401 0.25606 0.0
C304 C 0.51547 0.17211 0.28573 0.0
C305 C 0.518 0.17969 0.33335 0.0
C306 C 0.50298 0.20793 0.13869 0.0
C307 C 0.53134 0.20259 0.10923 0.0
C308 C 0.50606 0.1994 0.18608 0.0
C309 C 0.53746 0.18489 0.20494 0.0
C310 C 0.56492 0.17621 0.17473 0.0
C311 C 0.56195 0.18516 0.12744 0.0
H312 H 0.57909 0.17528 0.85657 0.0
H313 H 0.47649 0.2257 0.83622 0.0
H314 H 0.58359 0.16062 0.77385 0.0
H315 H 0.48137 0.21246 0.75338 0.0
H316 H 0.59758 0.22049 0.62647 0.0
H317 H 0.59171 0.20806 0.70926 0.0
H318 H 0.48664 0.1646 0.68844 0.0
H319 H 0.49224 0.17841 0.60569 0.0
C320 C 0.55727 0.18259 0.8345 0.0
C321 C 0.52761 0.20224 0.8528 0.0
C322 C 0.55994 0.17443 0.78704 0.0
C323 C 0.53315 0.18609 0.75675 0.0
C324 C 0.50247 0.20272 0.77561 0.0
C325 C 0.49967 0.2105 0.82319 0.0
C326 C 0.5735 0.20732 0.63939 0.0
C327 C 0.54523 0.20114 0.60963 0.0
C328 C 0.57012 0.19998 0.68696 0.0
C329 C 0.53849 0.18589 0.70571 0.0
C330 C 0.5111 0.1764 0.67533 0.0
C331 C 0.51439 0.18408 0.62785 0.0
H332 H 0.49908 0.8519 0.86053 0.0
H333 H 0.60114 0.79883 0.84395 0.0
H334 H 0.49556 0.86472 0.77738 0.0
H335 H 0.59723 0.81022 0.76073 0.0
H336 H 0.48159 0.80093 0.63176 0.0
H337 H 0.48724 0.81547 0.71424 0.0
H338 H 0.593 0.85595 0.69408 0.0
H339 H 0.58762 0.84001 0.61165 0.0
C340 C 0.52102 0.84367 0.8392 0.0
C341 C 0.5502 0.82373 0.85869 0.0
C342 C 0.5189 0.85076 0.79149 0.0
C343 C 0.54577 0.83769 0.76216 0.0
C344 C 0.57607 0.82097 0.78219 0.0
C345 C 0.57833 0.81428 0.83001 0.0
C346 C 0.50583 0.8138 0.64474 0.0
C347 C 0.5343 0.81858 0.61527 0.0
C348 C 0.50907 0.8224 0.69212 0.0
C349 C 0.54077 0.83638 0.71102 0.0
C350 C 0.56846 0.84432 0.68088 0.0
C351 C 0.5653 0.83539 0.63357 0.0
H352 H 0.37656 0.24493 0.02141 0.0
H353 H 0.3716 0.29582 0.88196 0.0
H354 H 0.31381 0.23896 0.02286 0.0
H355 H 0.30904 0.29052 0.88371 0.0
H356 H 0.20156 0.22972 0.88279 0.0
H357 H 0.26411 0.2352 0.88333 0.0
H358 H 0.26153 0.28317 0.02412 0.0
H359 H 0.19876 0.277 0.02387 0.0
C360 C 0.36212 0.25503 -0.00886 0.0
C361 C 0.37921 0.27073 0.95151 0.0
C362 C 0.3261 0.25183 -0.00793 0.0
C363 C 0.30629 0.26409 0.95334 0.0
C364 C 0.32343 0.28012 0.91391 0.0
C365 C 0.35938 0.28342 0.91302 0.0
C366 C 0.21425 0.24137 0.91395 0.0
C367 C 0.19502 0.25297 0.95327 0.0
C368 C 0.25019 0.24479 0.91415 0.0
C369 C 0.26795 0.25985 0.95368 0.0
C370 C 0.24875 0.27106 -0.00678 0.0
C371 C 0.21273 0.26773 -0.00701 0.0
H372 H 0.70856 0.74717 0.89388 0.0
H373 H 0.69596 0.77336 0.03997 0.0
H374 H 0.77083 0.75258 0.90282 0.0
H375 H 0.75833 0.77776 0.04914 0.0
H376 H 0.8692 0.82936 0.03865 0.0
H377 H 0.80688 0.82364 0.03012 0.0
H378 H 0.81944 0.71524 0.93552 0.0
H379 H 0.88179 0.72163 0.94322 0.0
C380 C 0.71905 0.75383 0.928 0.0
C381 C 0.69716 0.75987 0.96618 0.0
C382 C 0.75485 0.75667 0.93319 0.0
C383 C 0.76976 0.76558 -0.02327 0.0
C384 C 0.74783 0.77146 0.01496 0.0
C385 C 0.712 0.76866 0.00975 0.0
C386 C 0.8587 0.80428 0.01603 0.0
C387 C 0.8806 0.77602 -0.00843 0.0
C388 C 0.82288 0.80081 0.01135 0.0
C389 C 0.80798 0.76896 -0.01788 0.0
C390 C 0.82993 0.74058 0.95782 0.0
C391 C 0.86575 0.74408 0.96246 0.0
H392 H 0.20351 0.81065 0.57383 0.0
H393 H 0.2021 0.74154 0.44312 0.0
H394 H 0.2662 0.81267 0.57201 0.0
H395 H 0.26494 0.74417 0.441 0.0
H396 H 0.37878 0.71874 0.47764 0.0
H397 H 0.31596 0.71467 0.47985 0.0
H398 H 0.31243 0.84807 0.52926 0.0
H399 H 0.37506 0.85196 0.52769 0.0
C400 C 0.21654 0.79595 0.54461 0.0
C401 C 0.19768 0.77601 0.50857 0.0
C402 C 0.25254 0.79733 0.54346 0.0
C403 C 0.27069 0.77874 0.50627 0.0
C404 C 0.25184 0.75842 0.4704 0.0
C405 C 0.21578 0.75714 0.47149 0.0
C406 C 0.3646 0.74719 0.48902 0.0
C407 C 0.38204 0.78566 0.50255 0.0
C408 C 0.32855 0.74493 0.49003 0.0
C409 C 0.30907 0.78102 0.50481 0.0
C410 C 0.32657 0.81945 0.5183 0.0
C411 C 0.36255 0.82176 0.51713 0.0
H412 H 0.70366 0.31894 0.57124 0.0
H413 H 0.69991 0.23791 0.4485 0.0
H414 H 0.76632 0.31978 0.56781 0.0
H415 H 0.76271 0.23937 0.44466 0.0
H416 H 0.87692 0.21615 0.48051 0.0
H417 H 0.81413 0.21311 0.48467 0.0
H418 H 0.81218 0.35031 0.5208 0.0
H419 H 0.87478 0.35321 0.51738 0.0
C420 C 0.71617 0.30134 0.54345 0.0
C421 C 0.69666 0.27842 0.5101 0.0
C422 C 0.75216 0.30204 0.54133 0.0
C423 C 0.76965 0.2798 0.50585 0.0
C424 C 0.75015 0.25649 0.47274 0.0
C425 C 0.7141 0.25586 0.4748 0.0
C426 C 0.86309 0.24566 0.48937 0.0
C427 C 0.88097 0.28491 0.49868 0.0
C428 C 0.82705 0.24397 0.49151 0.0
C429 C 0.80802 0.28144 0.50318 0.0
C430 C 0.82597 0.32066 0.51238 0.0
C431 C 0.86193 0.32238 0.51012 0.0
loop_
_geom_bond_atom_site_label_1
_geom_bond_atom_site_label_2
_geom_bond_distance
_geom_bond_site_symmetry_2
_ccdc_geom_bond_type
Zn0 O3 2.031 1_654 S
Zn0 O5 2.049 . S
Zn0 O10 2.067 1_655 S
Zn1 O2 1.962 1_554 S
Zn1 O4 1.986 . S
Zn1 O6 1.996 . S
Zn1 O9 1.943 . S
O2 Zn1 1.962 1_556 S
O2 C7 1.254 . S
O3 Zn0 2.031 1_456 S
O3 C7 1.269 . S
O4 Zn1 1.986 . S
O4 C11 1.262 . S
O5 Zn0 2.049 . S
O5 C13 1.260 1_655 S
O6 Zn1 1.996 . S
O6 C13 1.257 . S
C7 O2 1.254 . S
C7 O3 1.269 . S
C8 O9 1.249 . S
C8 O10 1.270 . S
O9 Zn1 1.943 . S
O9 C8 1.249 . S
O10 Zn0 2.067 1_455 S
O10 C8 1.270 . S
C11 O4 1.262 . S
C11 O12 1.232 1_554 S
O12 C11 1.232 1_556 S
C13 O5 1.260 1_455 S
C13 O6 1.257 . S
Zn14 O17 2.031 1_454 S
Zn14 O19 2.049 . S
Zn14 O24 2.067 1_455 S
Zn15 O16 1.962 1_554 S
Zn15 O18 1.986 . S
Zn15 O20 1.996 . S
Zn15 O23 1.943 . S
O16 Zn15 1.962 1_556 S
O16 C21 1.254 . S
O17 Zn14 2.031 1_656 S
O17 C21 1.269 . S
O18 Zn15 1.986 . S
O18 C25 1.262 . S
O19 Zn14 2.049 . S
O19 C27 1.260 1_455 S
O20 Zn15 1.996 . S
O20 C27 1.257 . S
C21 O16 1.254 . S
C21 O17 1.269 . S
C22 O23 1.249 . S
C22 O24 1.270 . S
O23 Zn15 1.943 . S
O23 C22 1.249 . S
O24 Zn14 2.067 1_655 S
O24 C22 1.270 . S
C25 O18 1.262 . S
C25 O26 1.232 1_554 S
O26 C25 1.232 1_556 S
C27 O19 1.260 1_655 S
C27 O20 1.257 . S
Zn28 O31 2.031 1_655 S
Zn28 O33 2.049 . S
Zn28 O38 2.067 1_655 S
Zn29 O30 1.962 . S
Zn29 O32 1.986 . S
Zn29 O34 1.996 . S
Zn29 O37 1.943 . S
O30 Zn29 1.962 . S
O30 C35 1.254 . S
O31 Zn28 2.031 1_455 S
O31 C35 1.269 . S
O32 Zn29 1.986 . S
O32 C39 1.262 . S
O33 Zn28 2.049 . S
O33 C41 1.260 1_655 S
O34 Zn29 1.996 . S
O34 C41 1.257 . S
C35 O30 1.254 . S
C35 O31 1.269 . S
C36 O37 1.249 . S
C36 O38 1.270 . S
O37 Zn29 1.943 . S
O37 C36 1.249 . S
O38 Zn28 2.067 1_455 S
O38 C36 1.270 . S
C39 O32 1.262 . S
C39 O40 1.232 . S
O40 C39 1.232 . S
C41 O33 1.260 1_455 S
C41 O34 1.257 . S
Zn42 O45 2.031 1_455 S
Zn42 O47 2.049 . S
Zn42 O52 2.067 1_455 S
Zn43 O44 1.962 . S
Zn43 O46 1.986 . S
Zn43 O48 1.996 . S
Zn43 O51 1.943 . S
O44 Zn43 1.962 . S
O44 C49 1.254 . S
O45 Zn42 2.031 1_655 S
O45 C49 1.269 . S
O46 Zn43 1.986 . S
O46 C53 1.262 . S
O47 Zn42 2.049 . S
O47 C55 1.260 1_455 S
O48 Zn43 1.996 . S
O48 C55 1.257 . S
C49 O44 1.254 . S
C49 O45 1.269 . S
C50 O51 1.249 . S
C50 O52 1.270 . S
O51 Zn43 1.943 . S
O51 C50 1.249 . S
O52 Zn42 2.067 1_655 S
O52 C50 1.270 . S
C53 O46 1.262 . S
C53 O54 1.232 . S
O54 C53 1.232 . S
C55 O47 1.260 1_655 S
C55 O48 1.257 . S
Zn56 O59 2.031 1_554 S
Zn56 O61 2.049 . S
Zn56 O66 2.067 . S
Zn57 O58 1.962 1_554 S
Zn57 O60 1.986 . S
Zn57 O62 1.996 . S
Zn57 O65 1.943 . S
O58 Zn57 1.962 1_556 S
O58 C63 1.254 . S
O59 Zn56 2.031 1_556 S
O59 C63 1.269 . S
O60 Zn57 1.986 . S
O60 C67 1.262 . S
O61 Zn56 2.049 . S
O61 C69 1.260 . S
O62 Zn57 1.996 . S
O62 C69 1.257 . S
C63 O58 1.254 . S
C63 O59 1.269 . S
C64 O65 1.249 . S
C64 O66 1.270 . S
O65 Zn57 1.943 . S
O65 C64 1.249 . S
O66 Zn56 2.067 . S
O66 C64 1.270 . S
C67 O60 1.262 . S
C67 O68 1.232 1_554 S
O68 C67 1.232 1_556 S
C69 O61 1.260 . S
C69 O62 1.257 . S
Zn70 O73 2.031 1_554 S
Zn70 O75 2.049 . S
Zn70 O80 2.067 . S
Zn71 O72 1.962 1_554 S
Zn71 O74 1.986 . S
Zn71 O76 1.996 . S
Zn71 O79 1.943 . S
O72 Zn71 1.962 1_556 S
O72 C77 1.254 . S
O73 Zn70 2.031 1_556 S
O73 C77 1.269 . S
O74 Zn71 1.986 . S
O74 C81 1.262 . S
O75 Zn70 2.049 . S
O75 C83 1.260 . S
O76 Zn71 1.996 . S
O76 C83 1.257 . S
C77 O72 1.254 . S
C77 O73 1.269 . S
C78 O79 1.249 . S
C78 O80 1.270 . S
O79 Zn71 1.943 . S
O79 C78 1.249 . S
O80 Zn70 2.067 . S
O80 C78 1.270 . S
C81 O74 1.262 . S
C81 O82 1.232 1_554 S
O82 C81 1.232 1_556 S
C83 O75 1.260 . S
C83 O76 1.257 . S
Zn84 O87 2.031 . S
Zn84 O89 2.049 . S
Zn84 O94 2.067 . S
Zn85 O86 1.962 . S
Zn85 O88 1.986 . S
Zn85 O90 1.996 . S
Zn85 O93 1.943 . S
O86 Zn85 1.962 . S
O86 C91 1.254 . S
O87 Zn84 2.031 . S
O87 C91 1.269 . S
O88 Zn85 1.986 . S
O88 C95 1.262 . S
O89 Zn84 2.049 . S
O89 C97 1.260 . S
O90 Zn85 1.996 . S
O90 C97 1.257 . S
C91 O86 1.254 . S
C91 O87 1.269 . S
C92 O93 1.249 . S
C92 O94 1.270 . S
O93 Zn85 1.943 . S
O93 C92 1.249 . S
O94 Zn84 2.067 . S
O94 C92 1.270 . S
C95 O88 1.262 . S
C95 O96 1.232 . S
O96 C95 1.232 . S
C97 O89 1.260 . S
C97 O90 1.257 . S
Zn98 O101 2.031 . S
Zn98 O103 2.049 . S
Zn98 O108 2.067 . S
Zn99 O100 1.962 . S
Zn99 O102 1.986 . S
Zn99 O104 1.996 . S
Zn99 O107 1.943 . S
O100 Zn99 1.962 . S
O100 C105 1.254 . S
O101 Zn98 2.031 . S
O101 C105 1.269 . S
O102 Zn99 1.986 . S
O102 C109 1.262 . S
O103 Zn98 2.049 . S
O103 C111 1.260 . S
O104 Zn99 1.996 . S
O104 C111 1.257 . S
C105 O100 1.254 . S
C105 O101 1.269 . S
C106 O107 1.249 . S
C106 O108 1.270 . S
O107 Zn99 1.943 . S
O107 C106 1.249 . S
O108 Zn98 2.067 . S
O108 C106 1.270 . S
C109 O102 1.262 . S
C109 O110 1.232 . S
O110 C109 1.232 . S
C111 O103 1.260 . S
C111 O104 1.257 . S
H112 C120 0.950 . S
H113 C125 0.950 . S
H114 C122 0.950 . S
H115 C124 0.950 . S
H116 C126 0.950 . S
H117 C128 0.950 . S
H118 C130 0.951 . S
H119 C131 0.950 . S
C120 H112 0.950 . S
C120 C121 1.386 . S
C120 C122 1.391 . S
C121 C120 1.386 . S
C121 C125 1.393 1_654 S
C122 H114 0.950 . S
C122 C120 1.391 . S
C122 C123 1.402 . S
C123 C122 1.402 . S
C123 C124 1.398 1_654 S
C123 C129 1.490 1_664 S
C124 H115 0.950 . S
C124 C123 1.398 1_456 S
C124 C125 1.391 . S
C125 H113 0.950 . S
C125 C121 1.393 1_456 S
C125 C124 1.391 . S
C126 H116 0.950 . S
C126 C127 1.386 . S
C126 C128 1.391 . S
C127 C126 1.386 . S
C127 C131 1.393 1_456 S
C128 H117 0.950 . S
C128 C126 1.391 . S
C128 C129 1.400 . S
C129 C123 1.490 1_446 S
C129 C128 1.400 . S
C129 C130 1.398 1_456 S
C130 H118 0.951 . S
C130 C129 1.398 1_654 S
C130 C131 1.391 . S
C131 H119 0.950 . S
C131 C127 1.393 1_654 S
C131 C130 1.391 . S
H132 C140 0.950 . S
H133 C145 0.950 . S
H134 C142 0.950 . S
H135 C144 0.950 . S
H136 C146 0.950 . S
H137 C148 0.950 . S
H138 C150 0.950 . S
H139 C151 0.950 . S
C140 H132 0.950 . S
C140 C141 1.386 . S
C140 C142 1.391 . S
C141 C140 1.386 . S
C141 C145 1.393 . S
C142 H134 0.950 . S
C142 C140 1.391 . S
C142 C143 1.400 . S
C143 C142 1.400 . S
C143 C144 1.398 . S
C143 C149 1.491 1_465 S
C144 H135 0.950 . S
C144 C143 1.398 . S
C144 C145 1.391 . S
C145 H133 0.950 . S
C145 C141 1.393 . S
C145 C144 1.391 . S
C146 H136 0.950 . S
C146 C147 1.386 . S
C146 C148 1.391 . S
C147 C146 1.386 . S
C147 C151 1.393 . S
C148 H137 0.950 . S
C148 C146 1.391 . S
C148 C149 1.400 . S
C149 C143 1.491 1_645 S
C149 C148 1.400 . S
C149 C150 1.398 . S
C150 H138 0.950 . S
C150 C149 1.398 . S
C150 C151 1.391 . S
C151 H139 0.950 . S
C151 C147 1.393 . S
C151 C150 1.391 . S
H152 C160 0.950 . S
H153 C165 0.950 . S
H154 C162 0.950 . S
H155 C164 0.950 . S
H156 C166 0.950 . S
H157 C168 0.950 . S
H158 C170 0.950 . S
H159 C171 0.950 . S
C160 H152 0.950 . S
C160 C161 1.386 1_554 S
C160 C162 1.391 . S
C161 C160 1.386 1_556 S
C161 C165 1.393 . S
C162 H154 0.950 . S
C162 C160 1.391 . S
C162 C163 1.400 1_554 S
C163 C162 1.400 1_556 S
C163 C164 1.398 . S
C163 C169 1.490 1_556 S
C164 H155 0.950 . S
C164 C163 1.398 . S
C164 C165 1.391 . S
C165 H153 0.950 . S
C165 C161 1.393 . S
C165 C164 1.391 . S
C166 H156 0.950 . S
C166 C167 1.386 1_556 S
C166 C168 1.391 . S
C167 C166 1.386 1_554 S
C167 C171 1.393 . S
C168 H157 0.950 . S
C168 C166 1.391 . S
C168 C169 1.394 1_556 S
C169 C163 1.490 1_554 S
C169 C168 1.394 1_554 S
C169 C170 1.405 . S
C170 H158 0.950 . S
C170 C169 1.405 . S
C170 C171 1.391 . S
C171 H159 0.950 . S
C171 C167 1.393 . S
C171 C170 1.391 . S
H172 C180 0.950 . S
H173 C185 0.950 . S
H174 C182 0.950 . S
H175 C184 0.950 . S
H176 C186 0.950 . S
H177 C188 0.950 . S
H178 C190 0.950 . S
H179 C191 0.950 . S
C180 H172 0.950 . S
C180 C181 1.386 . S
C180 C182 1.391 . S
C181 C180 1.386 . S
C181 C185 1.393 . S
C182 H174 0.950 . S
C182 C180 1.391 . S
C182 C183 1.400 . S
C183 C182 1.400 . S
C183 C184 1.398 . S
C183 C189 1.491 . S
C184 H175 0.950 . S
C184 C183 1.398 . S
C184 C185 1.391 . S
C185 H173 0.950 . S
C185 C181 1.393 . S
C185 C184 1.391 . S
C186 H176 0.950 . S
C186 C187 1.386 . S
C186 C188 1.391 . S
C187 C186 1.386 . S
C187 C191 1.393 . S
C188 H177 0.950 . S
C188 C186 1.391 . S
C188 C189 1.400 . S
C189 C183 1.491 . S
C189 C188 1.400 . S
C189 C190 1.398 . S
C190 H178 0.950 . S
C190 C189 1.398 . S
C190 C191 1.391 . S
C191 H179 0.950 . S
C191 C187 1.393 . S
C191 C190 1.391 . S
H192 C200 0.950 . S
H193 C205 0.950 . S
H194 C202 0.950 . S
H195 C204 0.950 . S
H196 C206 0.950 . S
H197 C208 0.950 . S
H198 C210 0.950 . S
H199 C211 0.950 . S
C200 H192 0.950 . S
C200 C201 1.386 . S
C200 C202 1.391 . S
C201 C200 1.386 . S
C201 C205 1.393 1_455 S
C202 H194 0.950 . S
C202 C200 1.391 . S
C202 C203 1.400 . S
C203 C202 1.400 . S
C203 C204 1.398 1_455 S
C203 C209 1.491 1_455 S
C204 H195 0.950 . S
C204 C203 1.398 1_655 S
C204 C205 1.391 . S
C205 H193 0.950 . S
C205 C201 1.393 1_655 S
C205 C204 1.391 . S
C206 H196 0.950 . S
C206 C207 1.386 . S
C206 C208 1.391 . S
C207 C206 1.386 . S
C207 C211 1.393 1_655 S
C208 H197 0.950 . S
C208 C206 1.391 . S
C208 C209 1.400 . S
C209 C203 1.491 1_655 S
C209 C208 1.400 . S
C209 C210 1.398 1_655 S
C210 H198 0.950 . S
C210 C209 1.398 1_455 S
C210 C211 1.391 . S
C211 H199 0.950 . S
C211 C207 1.393 1_455 S
C211 C210 1.391 . S
H212 C220 0.950 . S
H213 C225 0.950 . S
H214 C222 0.950 . S
H215 C224 0.950 . S
H216 C226 0.950 . S
H217 C228 0.950 . S
H218 C230 0.950 . S
H219 C231 0.950 . S
C220 H212 0.950 . S
C220 C221 1.386 . S
C220 C222 1.391 . S
C221 C220 1.386 . S
C221 C225 1.393 1_455 S
C222 H214 0.950 . S
C222 C220 1.391 . S
C222 C223 1.400 . S
C223 C222 1.400 . S
C223 C224 1.398 1_455 S
C223 C229 1.491 1_455 S
C224 H215 0.950 . S
C224 C223 1.398 1_655 S
C224 C225 1.391 . S
C225 H213 0.950 . S
C225 C221 1.393 1_655 S
C225 C224 1.391 . S
C226 H216 0.950 . S
C226 C227 1.386 . S
C226 C228 1.391 . S
C227 C226 1.386 . S
C227 C231 1.393 1_655 S
C228 H217 0.950 . S
C228 C226 1.391 . S
C228 C229 1.400 . S
C229 C223 1.491 1_655 S
C229 C228 1.400 . S
C229 C230 1.398 1_655 S
C230 H218 0.950 . S
C230 C229 1.398 1_455 S
C230 C231 1.391 . S
C231 H219 0.950 . S
C231 C227 1.393 1_455 S
C231 C230 1.391 . S
H232 C240 0.950 . S
H233 C245 0.950 . S
H234 C242 0.950 . S
H235 C244 0.950 . S
H236 C246 0.950 . S
H237 C248 0.950 . S
H238 C250 0.950 . S
H239 C251 0.950 . S
C240 H232 0.950 . S
C240 C241 1.386 1_655 S
C240 C242 1.391 . S
C241 C240 1.386 1_455 S
C241 C245 1.393 . S
C242 H234 0.950 . S
C242 C240 1.391 . S
C242 C243 1.400 1_655 S
C243 C242 1.400 1_455 S
C243 C244 1.398 . S
C243 C249 1.491 1_455 S
C244 H235 0.950 . S
C244 C243 1.398 . S
C244 C245 1.391 . S
C245 H233 0.950 . S
C245 C241 1.393 . S
C245 C244 1.391 . S
C246 H236 0.950 . S
C246 C247 1.386 1_455 S
C246 C248 1.391 . S
C247 C246 1.386 1_655 S
C247 C251 1.393 . S
C248 H237 0.950 . S
C248 C246 1.391 . S
C248 C249 1.400 1_455 S
C249 C243 1.491 1_655 S
C249 C248 1.400 1_655 S
C249 C250 1.398 . S
C250 H238 0.950 . S
C250 C249 1.398 . S
C250 C251 1.391 . S
C251 H239 0.950 . S
C251 C247 1.393 . S
C251 C250 1.391 . S
H252 C260 0.950 . S
H253 C265 0.950 . S
H254 C262 0.950 . S
H255 C264 0.950 . S
H256 C266 0.950 . S
H257 C268 0.950 . S
H258 C270 0.950 . S
H259 C271 0.950 . S
C260 H252 0.950 . S
C260 C261 1.386 . S
C260 C262 1.391 . S
C261 C260 1.386 . S
C261 C265 1.393 1_455 S
C262 H254 0.950 . S
C262 C260 1.391 . S
C262 C263 1.400 . S
C263 C262 1.400 . S
C263 C264 1.398 1_455 S
C263 C269 1.491 1_455 S
C264 H255 0.950 . S
C264 C263 1.398 1_655 S
C264 C265 1.391 . S
C265 H253 0.950 . S
C265 C261 1.393 1_655 S
C265 C264 1.391 . S
C266 H256 0.950 . S
C266 C267 1.386 . S
C266 C268 1.391 . S
C267 C266 1.386 . S
C267 C271 1.393 1_655 S
C268 H257 0.950 . S
C268 C266 1.391 . S
C268 C269 1.400 . S
C269 C263 1.491 1_655 S
C269 C268 1.400 . S
C269 C270 1.398 1_655 S
C270 H258 0.950 . S
C270 C269 1.398 1_455 S
C270 C271 1.391 . S
C271 H259 0.950 . S
C271 C267 1.393 1_455 S
C271 C270 1.391 . S
H272 C280 0.950 . S
H273 C285 0.950 . S
H274 C282 0.950 . S
H275 C284 0.950 . S
H276 C286 0.950 . S
H277 C288 0.950 . S
H278 C290 0.950 . S
H279 C291 0.950 . S
C280 H272 0.950 . S
C280 C281 1.386 . S
C280 C282 1.391 . S
C281 C280 1.386 . S
C281 C285 1.393 . S
C282 H274 0.950 . S
C282 C280 1.391 . S
C282 C283 1.400 . S
C283 C282 1.400 . S
C283 C284 1.398 . S
C283 C289 1.491 . S
C284 H275 0.950 . S
C284 C283 1.398 . S
C284 C285 1.391 . S
C285 H273 0.950 . S
C285 C281 1.393 . S
C285 C284 1.391 . S
C286 H276 0.950 . S
C286 C287 1.386 . S
C286 C288 1.391 . S
C287 C286 1.386 . S
C287 C291 1.393 . S
C288 H277 0.950 . S
C288 C286 1.391 . S
C288 C289 1.400 . S
C289 C283 1.491 . S
C289 C288 1.400 . S
C289 C290 1.398 . S
C290 H278 0.950 . S
C290 C289 1.398 . S
C290 C291 1.391 . S
C291 H279 0.950 . S
C291 C287 1.393 . S
C291 C290 1.391 . S
H292 C300 0.950 . S
H293 C305 0.950 . S
H294 C302 0.950 . S
H295 C304 0.950 . S
H296 C306 0.950 . S
H297 C308 0.950 . S
H298 C310 0.950 . S
H299 C311 0.950 . S
C300 H292 0.950 . S
C300 C301 1.386 . S
C300 C302 1.391 . S
C301 C300 1.386 . S
C301 C305 1.393 . S
C302 H294 0.950 . S
C302 C300 1.391 . S
C302 C303 1.400 . S
C303 C302 1.400 . S
C303 C304 1.398 . S
C303 C309 1.491 . S
C304 H295 0.950 . S
C304 C303 1.398 . S
C304 C305 1.391 . S
C305 H293 0.950 . S
C305 C301 1.393 . S
C305 C304 1.391 . S
C306 H296 0.950 . S
C306 C307 1.386 . S
C306 C308 1.391 . S
C307 C306 1.386 . S
C307 C311 1.393 . S
C308 H297 0.950 . S
C308 C306 1.391 . S
C308 C309 1.400 . S
C309 C303 1.491 . S
C309 C308 1.400 . S
C309 C310 1.398 . S
C310 H298 0.950 . S
C310 C309 1.398 . S
C310 C311 1.391 . S
C311 H299 0.950 . S
C311 C307 1.393 . S
C311 C310 1.391 . S
H312 C320 0.950 . S
H313 C325 0.950 . S
H314 C322 0.950 . S
H315 C324 0.950 . S
H316 C326 0.950 . S
H317 C328 0.950 . S
H318 C330 0.950 . S
H319 C331 0.950 . S
C320 H312 0.950 . S
C320 C321 1.386 . S
C320 C322 1.391 . S
C321 C320 1.386 . S
C321 C325 1.393 . S
C322 H314 0.950 . S
C322 C320 1.391 . S
C322 C323 1.400 . S
C323 C322 1.400 . S
C323 C324 1.398 . S
C323 C329 1.491 . S
C324 H315 0.950 . S
C324 C323 1.398 . S
C324 C325 1.391 . S
C325 H313 0.950 . S
C325 C321 1.393 . S
C325 C324 1.391 . S
C326 H316 0.950 . S
C326 C327 1.386 . S
C326 C328 1.391 . S
C327 C326 1.386 . S
C327 C331 1.393 . S
C328 H317 0.950 . S
C328 C326 1.391 . S
C328 C329 1.400 . S
C329 C323 1.491 . S
C329 C328 1.400 . S
C329 C330 1.398 . S
C330 H318 0.950 . S
C330 C329 1.398 . S
C330 C331 1.391 . S
C331 H319 0.950 . S
C331 C327 1.393 . S
C331 C330 1.391 . S
H332 C340 0.950 . S
H333 C345 0.950 . S
H334 C342 0.950 . S
H335 C344 0.950 . S
H336 C346 0.950 . S
H337 C348 0.950 . S
H338 C350 0.950 . S
H339 C351 0.950 . S
C340 H332 0.950 . S
C340 C341 1.386 . S
C340 C342 1.391 . S
C341 C340 1.386 . S
C341 C345 1.393 . S
C342 H334 0.950 . S
C342 C340 1.391 . S
C342 C343 1.400 . S
C343 C342 1.400 . S
C343 C344 1.398 . S
C343 C349 1.491 . S
C344 H335 0.950 . S
C344 C343 1.398 . S
C344 C345 1.391 . S
C345 H333 0.950 . S
C345 C341 1.393 . S
C345 C344 1.391 . S
C346 H336 0.950 . S
C346 C347 1.386 . S
C346 C348 1.391 . S
C347 C346 1.386 . S
C347 C351 1.393 . S
C348 H337 0.950 . S
C348 C346 1.391 . S
C348 C349 1.400 . S
C349 C343 1.491 . S
C349 C348 1.400 . S
C349 C350 1.398 . S
C350 H338 0.950 . S
C350 C349 1.398 . S
C350 C351 1.391 . S
C351 H339 0.950 . S
C351 C347 1.393 . S
C351 C350 1.391 . S
H352 C360 0.950 . S
H353 C365 0.950 . S
H354 C362 0.950 . S
H355 C364 0.950 . S
H356 C366 0.950 . S
H357 C368 0.950 . S
H358 C370 0.950 . S
H359 C371 0.950 . S
C360 H352 0.950 . S
C360 C361 1.386 . S
C360 C362 1.391 . S
C361 C360 1.386 . S
C361 C365 1.393 1_554 S
C362 H354 0.950 . S
C362 C360 1.391 . S
C362 C363 1.400 . S
C363 C362 1.400 . S
C363 C364 1.398 1_554 S
C363 C369 1.491 . S
C364 H355 0.950 . S
C364 C363 1.398 1_556 S
C364 C365 1.391 . S
C365 H353 0.950 . S
C365 C361 1.393 1_556 S
C365 C364 1.391 . S
C366 H356 0.950 . S
C366 C367 1.386 1_556 S
C366 C368 1.391 . S
C367 C366 1.386 1_554 S
C367 C371 1.393 . S
C368 H357 0.950 . S
C368 C366 1.391 . S
C368 C369 1.400 1_556 S
C369 C363 1.491 . S
C369 C368 1.400 1_554 S
C369 C370 1.398 . S
C370 H358 0.950 . S
C370 C369 1.398 . S
C370 C371 1.391 . S
C371 H359 0.950 . S
C371 C367 1.393 . S
C371 C370 1.391 . S
H372 C380 0.950 . S
H373 C385 0.950 . S
H374 C382 0.950 . S
H375 C384 0.950 . S
H376 C386 0.950 . S
H377 C388 0.950 . S
H378 C390 0.950 . S
H379 C391 0.950 . S
C380 H372 0.950 . S
C380 C381 1.386 1_556 S
C380 C382 1.391 . S
C381 C380 1.386 1_554 S
C381 C385 1.393 . S
C382 H374 0.950 . S
C382 C380 1.391 . S
C382 C383 1.400 1_556 S
C383 C382 1.400 1_554 S
C383 C384 1.398 . S
C383 C389 1.491 . S
C384 H375 0.950 . S
C384 C383 1.398 . S
C384 C385 1.391 . S
C385 H373 0.950 . S
C385 C381 1.393 . S
C385 C384 1.391 . S
C386 H376 0.950 . S
C386 C387 1.386 . S
C386 C388 1.391 . S
C387 C386 1.386 . S
C387 C391 1.393 1_554 S
C388 H377 0.950 . S
C388 C386 1.391 . S
C388 C389 1.400 . S
C389 C383 1.491 . S
C389 C388 1.400 . S
C389 C390 1.398 1_554 S
C390 H378 0.950 . S
C390 C389 1.398 1_556 S
C390 C391 1.391 . S
C391 H379 0.950 . S
C391 C387 1.393 1_556 S
C391 C390 1.391 . S
H392 C400 0.950 . S
H393 C405 0.950 . S
H394 C402 0.950 . S
H395 C404 0.950 . S
H396 C406 0.950 . S
H397 C408 0.950 . S
H398 C410 0.950 . S
H399 C411 0.950 . S
C400 H392 0.950 . S
C400 C401 1.386 . S
C400 C402 1.391 . S
C401 C400 1.386 . S
C401 C405 1.393 . S
C402 H394 0.950 . S
C402 C400 1.391 . S
C402 C403 1.400 . S
C403 C402 1.400 . S
C403 C404 1.398 . S
C403 C409 1.491 . S
C404 H395 0.950 . S
C404 C403 1.398 . S
C404 C405 1.391 . S
C405 H393 0.950 . S
C405 C401 1.393 . S
C405 C404 1.391 . S
C406 H396 0.950 . S
C406 C407 1.386 . S
C406 C408 1.391 . S
C407 C406 1.386 . S
C407 C411 1.393 . S
C408 H397 0.950 . S
C408 C406 1.391 . S
C408 C409 1.400 . S
C409 C403 1.491 . S
C409 C408 1.400 . S
C409 C410 1.398 . S
C410 H398 0.950 . S
C410 C409 1.398 . S
C410 C411 1.391 . S
C411 H399 0.950 . S
C411 C407 1.393 . S
C411 C410 1.391 . S
H412 C420 0.950 . S
H413 C425 0.950 . S
H414 C422 0.950 . S
H415 C424 0.950 . S
H416 C426 0.950 . S
H417 C428 0.950 . S
H418 C430 0.950 . S
H419 C431 0.950 . S
C420 H412 0.950 . S
C420 C421 1.386 . S
C420 C422 1.391 . S
C421 C420 1.386 . S
C421 C425 1.393 . S
C422 H414 0.950 . S
C422 C420 1.391 . S
C422 C423 1.400 . S
C423 C422 1.400 . S
C423 C424 1.398 . S
C423 C429 1.491 . S
C424 H415 0.950 . S
C424 C423 1.398 . S
C424 C425 1.391 . S
C425 H413 0.950 . S
C425 C421 1.393 . S
C425 C424 1.391 . S
C426 H416 0.950 . S
C426 C427 1.386 . S
C426 C428 1.391 . S
C427 C426 1.386 . S
C427 C431 1.393 . S
C428 H417 0.950 . S
C428 C426 1.391 . S
C428 C429 1.400 . S
C429 C423 1.491 . S
C429 C428 1.400 . S
C429 C430 1.398 . S
C430 H418 0.950 . S
C430 C429 1.398 . S
C430 C431 1.391 . S
C431 H419 0.950 . S
C431 C427 1.393 . S
C431 C430 1.391 . S
C121 C22 1.446 . S
C127 C8 1.462 1_556 S
C141 C36 1.446 . S
C147 C50 1.445 . S
C161 C64 1.461 1_556 S
C167 C78 1.446 . S
C181 C92 1.455 . S
C187 C106 1.443 . S
C201 C13 1.214 . S
C207 C55 1.194 . S
C221 C41 1.220 . S
C227 C27 1.199 . S
C241 C35 1.209 . S
C247 C21 1.195 . S
C261 C7 1.194 . S
C267 C49 1.210 . S
C281 C69 1.227 . S
C287 C111 1.215 . S
C301 C97 1.222 . S
C307 C83 1.202 . S
C321 C77 1.198 . S
C327 C91 1.206 . S
C341 C63 1.200 . S
C347 C105 1.204 . S
C361 C81 1.548 . S
C367 C11 1.549 . S
C381 C67 1.547 . S
C387 C25 1.554 . S
C401 C39 1.554 . S
C407 C109 1.549 . S
C421 C95 1.550 . S
C427 C53 1.553 . S
