# Generated by pormake.
# Topology ttw, (5)-cn, num edge types: 1
# Building blocks:
#     Node 0, Type 0, BuildingBlock: XOMCOT_clean_sbu_1, # of connection points: 5
#     Node 1, Type 0, BuildingBlock: XOMCOT_clean_sbu_1, # of connection points: 5
#     Node 2, Type 0, BuildingBlock: XOMCOT_clean_sbu_1, # of connection points: 5
#     Node 3, Type 0, BuildingBlock: XOMCOT_clean_sbu_1, # of connection points: 5
#     Node 4, Type 0, BuildingBlock: XOMCOT_clean_sbu_1, # of connection points: 5
#     Node 5, Type 0, BuildingBlock: XOMCOT_clean_sbu_1, # of connection points: 5
#     Edge 6, Type (0, 0), BuildingBlock: TEMPAE_clean_linker_10, # of connection points: 2
#     Edge 7, Type (0, 0), BuildingBlock: TEMPAE_clean_linker_10, # of connection points: 2
#     Edge 8, Type (0, 0), BuildingBlock: TEMPAE_clean_linker_10, # of connection points: 2
#     Edge 9, Type (0, 0), BuildingBlock: TEMPAE_clean_linker_10, # of connection points: 2
#     Edge 10, Type (0, 0), BuildingBlock: TEMPAE_clean_linker_10, # of connection points: 2
#     Edge 11, Type (0, 0), BuildingBlock: TEMPAE_clean_linker_10, # of connection points: 2
#     Edge 12, Type (0, 0), BuildingBlock: TEMPAE_clean_linker_10, # of connection points: 2
#     Edge 13, Type (0, 0), BuildingBlock: TEMPAE_clean_linker_10, # of connection points: 2
#     Edge 14, Type (0, 0), BuildingBlock: TEMPAE_clean_linker_10, # of connection points: 2
#     Edge 15, Type (0, 0), BuildingBlock: TEMPAE_clean_linker_10, # of connection points: 2
#     Edge 16, Type (0, 0), BuildingBlock: TEMPAE_clean_linker_10, # of connection points: 2
#     Edge 17, Type (0, 0), BuildingBlock: TEMPAE_clean_linker_10, # of connection points: 2
#     Edge 18, Type (0, 0), BuildingBlock: TEMPAE_clean_linker_10, # of connection points: 2
#     Edge 19, Type (0, 0), BuildingBlock: TEMPAE_clean_linker_10, # of connection points: 2
#     Edge 20, Type (0, 0), BuildingBlock: TEMPAE_clean_linker_10, # of connection points: 2
# Relax obj value: 0.323
# Max RMSD: 0.298
# Mean RMSD: 0.265
data_MOF--net-ttw--node1-XOMCOT_clean_sbu_1--edge1-TEMPAE_clean_linker_10
_symmetry_space_group_name_H-M    P1
_symmetry_Int_Tables_number       1
_symmetry_cell_setting            triclinic
loop_
_symmetry_equiv_pos_as_xyz
'x, y, z'
_cell_length_a     55.511294
_cell_length_b     56.041708
_cell_length_c     17.799269
_cell_angle_alpha  94.596078
_cell_angle_beta   94.064284
_cell_angle_gamma 120.60503
loop_
_atom_site_label
_atom_site_type_symbol
_atom_site_fract_x
_atom_site_fract_y
_atom_site_fract_z
_atom_type_partial_charge
C0 C 0.15421 0.53502 0.98858 0.0
C1 C 0.15359 0.53168 0.911 0.0
N2 N 0.1583 0.55551 0.88574 0.0
N3 N 0.15968 0.56097 1.01229 0.0
C4 C 0.16173 0.5729 0.94808 0.0
H5 H 0.15177 0.51983 0.02587 0.0
Co6 Co 0.16612 0.57536 0.11452 0.0
C7 C 0.20962 0.63531 0.11957 0.0
O8 O 0.22524 0.63354 0.17534 0.0
N9 N 0.1716 0.58938 0.2187 0.0
C10 C 0.17324 0.61566 0.32236 0.0
C11 C 0.17148 0.61271 0.24459 0.0
C12 C 0.17182 0.5777 0.28242 0.0
N13 N 0.17335 0.59357 0.34596 0.0
O14 O 0.13218 0.57612 0.10398 0.0
H15 H 0.16894 0.62624 0.20904 0.0
H16 H 0.1698 0.55753 0.28288 0.0
O17 O 0.1863 0.61363 0.08956 0.0
C18 C 0.10932 0.55287 0.10204 0.0
O19 O 0.1104 0.52999 0.10245 0.0
N20 N 0.19886 0.57278 0.12416 0.0
C21 C 0.24105 0.55952 0.12556 0.0
C22 C 0.24293 0.58097 0.08638 0.0
C23 C 0.22112 0.58661 0.08413 0.0
C24 C 0.19622 0.55103 0.15965 0.0
C25 C 0.21719 0.54421 0.16176 0.0
H26 H 0.22169 0.60122 0.04734 0.0
H27 H 0.17693 0.53773 0.18241 0.0
H28 H 0.16685 0.59426 0.94714 0.0
H29 H 0.15033 0.51334 0.87586 0.0
H30 H 0.17289 0.63193 0.35854 0.0
H31 H 0.26048 0.59238 0.05483 0.0
H32 H 0.21454 0.52681 0.19026 0.0
C33 C 0.56856 0.07155 0.75181 0.0
C34 C 0.5661 0.06584 0.67432 0.0
N35 N 0.54653 0.07072 0.64221 0.0
N36 N 0.55109 0.08055 0.76966 0.0
C37 C 0.53732 0.07908 0.70177 0.0
H38 H 0.583 0.07019 0.79284 0.0
Co39 Co 0.55059 0.09248 0.87103 0.0
C40 C 0.54164 0.13728 0.80041 0.0
O41 O 0.54637 0.13603 0.72936 0.0
N42 N 0.55015 0.10388 0.97347 0.0
C43 C 0.55961 0.13132 0.08234 0.0
C44 C 0.5611 0.1306 1.00561 0.0
C45 C 0.54198 0.08868 0.03218 0.0
N46 N 0.54764 0.10497 0.09918 0.0
O47 O 0.51116 0.06759 0.86152 0.0
H48 H 0.57082 0.14868 0.9758 0.0
H49 H 0.53338 0.06633 0.02665 0.0
O50 O 0.54393 0.12143 0.84408 0.0
C51 C 0.50182 0.04233 0.87128 0.0
O52 O 0.51976 0.03371 0.87979 0.0
N53 N 0.5899 0.11735 0.88223 0.0
C54 C 0.64557 0.16082 0.92254 0.0
C55 C 0.62976 0.1597 0.85583 0.0
C56 C 0.60206 0.13757 0.83621 0.0
C57 C 0.60589 0.11621 0.94202 0.0
C58 C 0.6338 0.13797 0.96378 0.0
H59 H 0.59006 0.1374 0.78576 0.0
H60 H 0.59639 0.09936 0.9762 0.0
H61 H 0.52093 0.08408 0.69616 0.0
H62 H 0.57885 0.05982 0.64421 0.0
H63 H 0.5674 0.14989 0.12307 0.0
H64 H 0.63793 0.17662 0.82152 0.0
H65 H 0.64555 0.13753 1.01434 0.0
C66 C 0.50542 0.61075 0.09747 0.0
C67 C 0.50879 0.61037 0.02156 0.0
N68 N 0.48302 0.59583 0.98082 0.0
N69 N 0.47767 0.59622 0.10457 0.0
C70 C 0.46452 0.58744 0.03217 0.0
H71 H 0.52219 0.62116 0.14457 0.0
Co72 Co 0.46336 0.59058 0.19773 0.0
C73 C 0.40795 0.53838 0.16028 0.0
O74 O 0.41464 0.52645 0.21176 0.0
N75 N 0.44929 0.58526 0.29235 0.0
C76 C 0.42105 0.57796 0.38184 0.0
C77 C 0.4237 0.5806 0.30632 0.0
C78 C 0.46221 0.58644 0.36119 0.0
N79 N 0.44531 0.58174 0.41611 0.0
O80 O 0.47289 0.56267 0.20649 0.0
H81 H 0.40803 0.57963 0.26443 0.0
H82 H 0.48357 0.59079 0.37137 0.0
O83 O 0.42631 0.56273 0.1474 0.0
C84 C 0.49738 0.56979 0.23753 0.0
O85 O 0.51493 0.59598 0.26695 0.0
N86 N 0.45493 0.61866 0.18913 0.0
C87 C 0.44146 0.66024 0.19048 0.0
C88 C 0.42827 0.63705 0.13364 0.0
C89 C 0.43527 0.6165 0.13393 0.0
C90 C 0.46892 0.6416 0.24299 0.0
C91 C 0.46236 0.66261 0.24513 0.0
H92 H 0.42455 0.59882 0.08982 0.0
H93 H 0.48466 0.64316 0.28585 0.0
H94 H 0.44187 0.57497 1.01689 0.0
H95 H 0.52856 0.62056 0.99799 0.0
H96 H 0.40306 0.57441 0.40999 0.0
H97 H 0.41263 0.63473 0.08898 0.0
H98 H 0.47306 0.68016 0.29012 0.0
C99 C 0.87 0.42004 0.29652 0.0
C100 C 0.87448 0.42013 0.3733 0.0
N101 N 0.88082 0.44509 0.40898 0.0
N102 N 0.87271 0.44459 0.28269 0.0
C103 C 0.88067 0.45995 0.35265 0.0
H104 H 0.86456 0.40273 0.2536 0.0
Co105 Co 0.86653 0.45243 0.18307 0.0
C106 C 0.82782 0.46653 0.26764 0.0
O107 O 0.83016 0.45712 0.33122 0.0
N108 N 0.86066 0.45973 0.08378 0.0
C109 C 0.83834 0.46153 0.97771 0.0
C110 C 0.83636 0.45684 0.05197 0.0
C111 C 0.87705 0.4659 0.02678 0.0
N112 N 0.86394 0.46728 0.96126 0.0
O113 O 0.89873 0.4893 0.20623 0.0
H114 H 0.81767 0.45029 0.07967 0.0
H115 H 0.89788 0.46863 0.03286 0.0
O116 O 0.84132 0.46538 0.21354 0.0
C117 C 0.9208 0.48766 0.20766 0.0
O118 O 0.91795 0.46282 0.19798 0.0
N119 N 0.8364 0.41552 0.15598 0.0
C120 C 0.79755 0.35908 0.1076 0.0
C121 C 0.79094 0.37475 0.15823 0.0
C122 C 0.8108 0.40297 0.18238 0.0
C123 C 0.84304 0.4006 0.10634 0.0
C124 C 0.82397 0.37232 0.08153 0.0
H125 H 0.80555 0.41418 0.2232 0.0
H126 H 0.86357 0.41074 0.08685 0.0
H127 H 0.88458 0.48103 0.36243 0.0
H128 H 0.87254 0.40283 0.40102 0.0
H129 H 0.82146 0.45932 0.9378 0.0
H130 H 0.77085 0.3651 0.18036 0.0
H131 H 0.82978 0.36095 0.04205 0.0
C132 C 0.38872 0.90616 0.20594 0.0
C133 C 0.39139 0.91049 0.28405 0.0
N134 N 0.37001 0.88787 0.30784 0.0
N135 N 0.36569 0.88101 0.17994 0.0
C136 C 0.35458 0.8704 0.24331 0.0
H137 H 0.40311 0.92013 0.17019 0.0
Co138 Co 0.35707 0.86522 0.0778 0.0
C139 C 0.29554 0.83306 0.04655 0.0
O140 O 0.29641 0.84498 0.98533 0.0
N141 N 0.34952 0.84979 0.9746 0.0
C142 C 0.33546 0.82002 0.86797 0.0
C143 C 0.3365 0.82246 0.94582 0.0
C144 C 0.35618 0.86352 0.91291 0.0
N145 N 0.34782 0.84586 0.84715 0.0
O146 O 0.34992 0.89323 0.04888 0.0
H147 H 0.32799 0.8053 0.97919 0.0
H148 H 0.36723 0.88608 0.91624 0.0
O149 O 0.3182 0.84108 0.09028 0.0
C150 C 0.342 0.90925 0.07723 0.0
O151 O 0.33458 0.90748 0.14595 0.0
N152 N 0.36589 0.83882 0.10479 0.0
C153 C 0.38442 0.80255 0.1358 0.0
C154 C 0.35853 0.7977 0.15609 0.0
C155 C 0.34949 0.81603 0.13967 0.0
C156 C 0.39142 0.84422 0.08638 0.0
C157 C 0.40102 0.82618 0.10075 0.0
H158 H 0.32929 0.81162 0.15486 0.0
H159 H 0.40417 0.86249 0.05935 0.0
H160 H 0.33632 0.84974 0.24248 0.0
H161 H 0.40812 0.92876 0.32045 0.0
H162 H 0.3259 0.80064 0.82952 0.0
H163 H 0.34513 0.77957 0.18297 0.0
H164 H 0.42127 0.8307 0.08488 0.0
C165 C 0.53741 0.37515 0.03421 0.0
C166 C 0.53231 0.37449 0.95723 0.0
N167 N 0.55661 0.39283 0.9328 0.0
N168 N 0.56507 0.39312 0.05908 0.0
C169 C 0.57581 0.40468 0.99609 0.0
H170 H 0.52161 0.36322 0.06965 0.0
Co171 Co 0.58117 0.39871 0.16217 0.0
C172 C 0.63375 0.41646 0.08539 0.0
O173 O 0.62076 0.39512 0.03083 0.0
N174 N 0.59613 0.40422 0.26499 0.0
C175 C 0.62483 0.41384 0.37155 0.0
C176 C 0.62288 0.41272 0.2938 0.0
C177 C 0.58227 0.40031 0.32684 0.0
N178 N 0.59929 0.40608 0.39251 0.0
O179 O 0.58097 0.4325 0.17778 0.0
H180 H 0.64011 0.41777 0.26099 0.0
H181 H 0.55999 0.39289 0.3238 0.0
O182 O 0.61986 0.41959 0.13572 0.0
C183 C 0.55784 0.42841 0.19855 0.0
O184 O 0.53817 0.40284 0.20646 0.0
N185 N 0.57922 0.36399 0.14875 0.0
C186 C 0.56821 0.31048 0.10061 0.0
C187 C 0.59612 0.333 0.1198 0.0
C188 C 0.60115 0.35949 0.14654 0.0
C189 C 0.5524 0.34168 0.14293 0.0
C190 C 0.5463 0.31476 0.11771 0.0
H191 H 0.62268 0.37633 0.16239 0.0
H192 H 0.53545 0.34489 0.15559 0.0
H193 H 0.59733 0.42131 0.99581 0.0
H194 H 0.5122 0.36143 0.92194 0.0
H195 H 0.64376 0.42026 0.4098 0.0
H196 H 0.61395 0.33066 0.11098 0.0
H197 H 0.52453 0.29768 0.10942 0.0
C198 C 0.05694 0.52594 0.08836 0.0
C199 C 0.08229 0.55156 0.10825 0.0
C200 C 0.03124 0.52286 0.10421 0.0
C201 C 0.03089 0.54595 0.14175 0.0
C202 C 0.05617 0.57239 0.15752 0.0
C203 C 0.08167 0.57493 0.14036 0.0
C204 C 0.00471 0.49434 0.08497 0.0
C205 C 0.05669 0.59755 0.19684 0.0
C206 C 0.95507 0.52609 0.14312 0.0
C207 C 0.94901 0.51205 0.20714 0.0
C208 C 0.98282 0.54055 0.12491 0.0
C209 C 0.00463 0.54085 0.17227 0.0
C210 C -0.00102 0.52997 0.2423 0.0
C211 C 0.97109 0.51536 0.25841 0.0
C212 C 0.98801 0.5523 0.05047 0.0
C213 C 0.02167 0.53039 0.29546 0.0
H214 H 0.05729 0.50795 0.06253 0.0
H215 H 0.10126 0.59483 0.15581 0.0
H216 H -0.00292 0.48568 0.13815 0.0
H217 H 0.98774 0.49597 0.05346 0.0
H218 H 0.0082 0.4793 0.05002 0.0
H219 H 0.07587 0.61739 0.18856 0.0
H220 H 0.03772 0.59814 0.17593 0.0
H221 H 0.05671 0.5963 0.25873 0.0
H222 H 0.93784 0.52319 0.10303 0.0
H223 H 0.96621 0.50429 0.3077 0.0
H224 H 0.98765 0.53681 1.00675 0.0
H225 H 0.00899 0.57178 0.05551 0.0
H226 H 0.97146 0.55675 0.03036 0.0
H227 H 0.02626 0.51445 0.27141 0.0
H228 H 0.0151 0.52564 0.35258 0.0
H229 H 0.0415 0.55107 0.30194 0.0
C230 C 0.37326 0.96029 0.08777 0.0
C231 C 0.35224 0.93534 0.044 0.0
C232 C 0.39392 0.98182 0.05288 0.0
C233 C 0.39283 0.97826 0.97274 0.0
C234 C 0.36879 0.95531 0.92838 0.0
C235 C 0.34886 0.93379 0.96468 0.0
C236 C 0.41907 0.00616 0.10229 0.0
C237 C 0.36612 0.95148 0.84278 0.0
C238 C 0.45417 0.03509 0.88807 0.0
C239 C 0.47243 0.02465 0.88713 0.0
C240 C 0.42757 0.01983 0.91289 0.0
C241 C 0.41931 0.99378 0.93823 0.0
C242 C 0.43718 0.98263 0.93419 0.0
C243 C 0.46341 -0.00186 0.90831 0.0
C244 C 0.40896 0.03219 0.91477 0.0
C245 C 0.42907 0.95469 0.95982 0.0
H246 H 0.37594 0.96142 0.14917 0.0
H247 H 0.33251 0.91445 0.93088 0.0
H248 H 0.43718 0.00285 0.10368 0.0
H249 H 0.42548 0.02599 0.07878 0.0
H250 H 0.41467 0.00838 0.16157 0.0
H251 H 0.37866 0.94227 0.82414 0.0
H252 H 0.3438 0.93718 0.8174 0.0
H253 H 0.37437 0.97181 0.82058 0.0
H254 H 0.46095 0.05557 0.87154 0.0
H255 H 0.47729 0.98985 0.90731 0.0
H256 H 0.41147 0.04234 0.97326 0.0
H257 H 0.38637 0.01579 0.89906 0.0
H258 H 0.41475 0.0483 0.87585 0.0
H259 H 0.4256 0.95505 0.02045 0.0
H260 H 0.44546 0.94915 0.95335 0.0
H261 H 0.40901 0.93793 0.92624 0.0
C262 C 0.5322 0.44882 0.2588 0.0
C263 C 0.55214 0.4513 0.21101 0.0
C264 C 0.52445 0.46898 0.26695 0.0
C265 C 0.53652 0.49188 0.22504 0.0
C266 C 0.55717 0.49485 0.17794 0.0
C267 C 0.56499 0.4746 0.17209 0.0
C268 C 0.50282 0.4654 0.31901 0.0
C269 C 0.57021 0.51881 0.13163 0.0
C270 C 0.49292 0.52502 0.18338 0.0
C271 C 0.50683 0.54946 0.23596 0.0
C272 C 0.50268 0.50633 0.17841 0.0
C273 C 0.52658 0.512 0.22823 0.0
C274 C 0.54044 0.53643 0.28222 0.0
C275 C 0.53054 0.55502 0.28496 0.0
C276 C 0.48755 0.48063 0.11948 0.0
C277 C 0.56559 0.54284 0.33734 0.0
H278 H 0.52245 0.43092 0.28954 0.0
H279 H 0.58028 0.47641 0.13475 0.0
H280 H 0.51099 0.48474 0.35962 0.0
H281 H 0.4834 0.46173 0.28513 0.0
H282 H 0.49705 0.44757 0.35177 0.0
H283 H 0.58673 0.5187 0.10009 0.0
H284 H 0.55358 0.51755 0.09013 0.0
H285 H 0.57973 0.53907 0.16904 0.0
H286 H 0.47474 0.52077 0.14492 0.0
H287 H 0.54128 0.57386 0.32591 0.0
H288 H 0.47898 0.4615 0.14778 0.0
H289 H 0.50259 0.48025 0.08226 0.0
H290 H 0.46988 0.47977 0.0834 0.0
H291 H 0.55968 0.52552 0.37203 0.0
H292 H 0.57387 0.56265 0.37618 0.0
H293 H 0.58278 0.54445 0.30576 0.0
C294 C 0.15206 0.56116 0.43982 0.0
C295 C 0.17248 0.58738 0.42287 0.0
C296 C 0.14946 0.55582 0.51558 0.0
C297 C 0.1683 0.57699 0.57541 0.0
C298 C 0.18949 0.60325 0.5581 0.0
C299 C 0.19102 0.60825 0.48207 0.0
C300 C 0.12615 0.5278 0.53171 0.0
C301 C 0.21052 0.62608 0.61987 0.0
C302 C 0.14806 0.57454 0.77597 0.0
C303 C 0.16128 0.56157 0.8088 0.0
C304 C 0.1498 0.57932 0.69963 0.0
C305 C 0.16587 0.57171 0.65609 0.0
C306 C 0.17981 0.5592 0.68985 0.0
C307 C 0.17699 0.55392 0.76546 0.0
C308 C 0.13409 0.59211 0.66525 0.0
C309 C 0.19785 0.55156 0.64629 0.0
H310 H 0.1375 0.54524 0.39384 0.0
H311 H 0.20682 0.62848 0.46847 0.0
H312 H 0.13521 0.51727 0.56314 0.0
H313 H 0.11231 0.53083 0.56842 0.0
H314 H 0.113 0.51377 0.47891 0.0
H315 H 0.22651 0.64481 0.59657 0.0
H316 H 0.19938 0.63256 0.65827 0.0
H317 H 0.22159 0.61815 0.65486 0.0
H318 H 0.13575 0.58021 0.80959 0.0
H319 H 0.18745 0.54417 0.7914 0.0
H320 H 0.11934 0.57799 0.61455 0.0
H321 H 0.14916 0.61219 0.64586 0.0
H322 H 0.12188 0.59607 0.70606 0.0
H323 H 0.18481 0.5359 0.59604 0.0
H324 H 0.20802 0.54283 0.68164 0.0
H325 H 0.21457 0.57033 0.62496 0.0
C326 C 0.51997 0.0733 0.18983 0.0
C327 C 0.54463 0.09695 0.17461 0.0
C328 C 0.51649 0.06649 0.26454 0.0
C329 C 0.53848 0.08338 0.32494 0.0
C330 C 0.56361 0.10693 0.30914 0.0
C331 C 0.56621 0.11354 0.23458 0.0
C332 C 0.48914 0.04158 0.27905 0.0
C333 C 0.58792 0.12515 0.37101 0.0
C334 C 0.52942 0.08669 0.53537 0.0
C335 C 0.54019 0.0705 0.56145 0.0
C336 C 0.52698 0.0896 0.45769 0.0
C337 C 0.5359 0.0764 0.40463 0.0
C338 C 0.54533 0.05887 0.42991 0.0
C339 C 0.54702 0.05589 0.50746 0.0
C340 C 0.5162 0.108 0.43303 0.0
C341 C 0.55529 0.04454 0.37581 0.0
H342 H 0.50317 0.06062 0.14361 0.0
H343 H 0.58541 0.13164 0.22276 0.0
H344 H 0.47433 0.0303 0.22596 0.0
H345 H 0.49331 0.02674 0.30655 0.0
H346 H 0.47874 0.04857 0.31881 0.0
H347 H 0.60622 0.14236 0.34903 0.0
H348 H 0.581 0.13446 0.41558 0.0
H349 H 0.595 0.11228 0.39853 0.0
H350 H 0.52401 0.0981 0.57584 0.0
H351 H 0.55457 0.04265 0.52596 0.0
H352 H 0.5004 0.09743 0.3815 0.0
H353 H 0.53394 0.12763 0.41817 0.0
H354 H 0.50644 0.11352 0.47839 0.0
H355 H 0.53924 0.03283 0.32529 0.0
H356 H 0.55982 0.02983 0.40295 0.0
H357 H 0.57484 0.06052 0.3553 0.0
C358 C 0.49071 0.58248 0.85362 0.0
C359 C 0.47678 0.59173 0.8994 0.0
C360 C 0.48558 0.57933 0.77391 0.0
C361 C 0.46686 0.58663 0.73936 0.0
C362 C 0.45283 0.59612 0.78569 0.0
C363 C 0.45761 0.59809 0.86518 0.0
C364 C 0.50016 0.56817 0.72673 0.0
C365 C 0.43334 0.60488 0.7514 0.0
C366 C 0.47544 0.60568 0.53817 0.0
C367 C 0.45193 0.58217 0.49589 0.0
C368 C 0.48056 0.60746 0.61754 0.0
C369 C 0.46221 0.58473 0.65489 0.0
C370 C 0.439 0.56049 0.61162 0.0
C371 C 0.43385 0.55975 0.53278 0.0
C372 C 0.50503 0.634 0.66166 0.0
C373 C 0.41949 0.53543 0.64863 0.0
H374 H 0.50539 0.57744 0.8805 0.0
H375 H 0.44713 0.60553 0.90096 0.0
H376 H 0.48431 0.54977 0.68586 0.0
H377 H 0.51441 0.5843 0.69301 0.0
H378 H 0.51275 0.56191 0.76224 0.0
H379 H 0.42456 0.61236 0.79535 0.0
H380 H 0.44489 0.62187 0.71657 0.0
H381 H 0.41556 0.58707 0.713 0.0
H382 H 0.48912 0.6231 0.50929 0.0
H383 H 0.41572 0.54159 0.49952 0.0
H384 H 0.51954 0.6293 0.69424 0.0
H385 H 0.49711 0.64327 0.7034 0.0
H386 H 0.51719 0.64979 0.62417 0.0
H387 H 0.43189 0.52869 0.68297 0.0
H388 H 0.40376 0.51747 0.60627 0.0
H389 H 0.40802 0.5411 0.68792 0.0
C390 C 0.89229 0.46331 0.86396 0.0
C391 C 0.87303 0.47084 0.88635 0.0
C392 C 0.89775 0.4628 0.78774 0.0
C393 C 0.88339 0.46964 0.73234 0.0
C394 C 0.86535 0.47895 0.75571 0.0
C395 C 0.86068 0.47972 0.83217 0.0
C396 C 0.91765 0.45337 0.76576 0.0
C397 C 0.8494 0.48629 0.69906 0.0
C398 C 0.90155 0.47853 0.52856 0.0
C399 C 0.88213 0.45177 0.48993 0.0
C400 C 0.90297 0.48456 0.60796 0.0
C401 C 0.88404 0.46353 0.64917 0.0
C402 C 0.86428 0.43661 0.6099 0.0
C403 C 0.86374 0.43106 0.53132 0.0
C404 C 0.92468 0.51336 0.64777 0.0
C405 C 0.84321 0.41368 0.65062 0.0
H406 H 0.90209 0.45653 0.90497 0.0
H407 H 0.84647 0.48644 0.84898 0.0
H408 H 0.90533 0.43186 0.73439 0.0
H409 H 0.93198 0.46716 0.7274 0.0
H410 H 0.93056 0.45328 0.81624 0.0
H411 H 0.8383 0.49564 0.72714 0.0
H412 H 0.8639 0.50119 0.66313 0.0
H413 H 0.83349 0.4671 0.66071 0.0
H414 H 0.91588 0.49452 0.49683 0.0
H415 H 0.84837 0.41049 0.50161 0.0
H416 H 0.93767 0.51174 0.69514 0.0
H417 H 0.91402 0.52367 0.67299 0.0
H418 H 0.93887 0.52688 0.60863 0.0
H419 H 0.8544 0.40954 0.69714 0.0
H420 H 0.82937 0.39383 0.61195 0.0
H421 H 0.82971 0.42042 0.67686 0.0
C422 C 0.38954 0.89524 0.44304 0.0
C423 C 0.36623 0.88254 0.38582 0.0
C424 C 0.38642 0.88996 0.51876 0.0
C425 C 0.35933 0.87152 0.53845 0.0
C426 C 0.33563 0.85891 0.48135 0.0
C427 C 0.33937 0.86444 0.40582 0.0
C428 C 0.41224 0.90394 0.57768 0.0
C429 C 0.30628 0.83971 0.5003 0.0
C430 C 0.3549 0.83598 0.71527 0.0
C431 C 0.35108 0.85271 0.77039 0.0
C432 C 0.35754 0.84186 0.63994 0.0
C433 C 0.35596 0.86487 0.61836 0.0
C434 C 0.35184 0.88173 0.67361 0.0
C435 C 0.3498 0.87564 0.74906 0.0
C436 C 0.36229 0.82354 0.58349 0.0
C437 C 0.34996 0.90647 0.65394 0.0
H438 H 0.41044 0.90893 0.42844 0.0
H439 H 0.32118 0.85483 0.36251 0.0
H440 H 0.40968 0.91671 0.62376 0.0
H441 H 0.41468 0.88785 0.6039 0.0
H442 H 0.43186 0.91768 0.55332 0.0
H443 H 0.28996 0.83198 0.44996 0.0
H444 H 0.30519 0.82144 0.52356 0.0
H445 H 0.30125 0.8509 0.54493 0.0
H446 H 0.35625 0.81843 0.73147 0.0
H447 H 0.34658 0.88849 0.79106 0.0
H448 H 0.3825 0.83638 0.56061 0.0
H449 H 0.34522 0.81416 0.53472 0.0
H450 H 0.36294 0.80641 0.60912 0.0
H451 H 0.34019 0.90309 0.59452 0.0
H452 H 0.37155 0.9252 0.66052 0.0
H453 H 0.33748 0.91101 0.69243 0.0
C454 C 0.60632 0.39779 0.52445 0.0
C455 C 0.59217 0.4045 0.46935 0.0
C456 C 0.60032 0.39681 0.59992 0.0
C457 C 0.57977 0.40294 0.62157 0.0
C458 C 0.56544 0.40982 0.56632 0.0
C459 C 0.57167 0.41034 0.49082 0.0
C460 C 0.6158 0.38891 0.65639 0.0
C461 C 0.54358 0.41674 0.58705 0.0
C462 C 0.54587 0.37331 0.79685 0.0
C463 C 0.56156 0.39613 0.85446 0.0
C464 C 0.55123 0.37543 0.72094 0.0
C465 C 0.5727 0.40109 0.70138 0.0
C466 C 0.58826 0.42442 0.75887 0.0
C467 C 0.58265 0.42161 0.83474 0.0
C468 C 0.53441 0.34988 0.662 0.0
C469 C 0.61113 0.45225 0.74039 0.0
H470 H 0.62191 0.39289 0.50818 0.0
H471 H 0.56089 0.41587 0.44887 0.0
H472 H 0.6271 0.40583 0.70512 0.0
H473 H 0.60048 0.36977 0.67934 0.0
H474 H 0.63135 0.38499 0.63074 0.0
H475 H 0.53491 0.42247 0.53818 0.0
H476 H 0.52592 0.39853 0.60771 0.0
H477 H 0.55298 0.43439 0.63407 0.0
H478 H 0.5299 0.35339 0.81151 0.0
H479 H 0.59471 0.43939 0.87863 0.0
H480 H 0.54872 0.34376 0.63809 0.0
H481 H 0.52429 0.35464 0.61426 0.0
H482 H 0.51776 0.33176 0.68582 0.0
H483 H 0.6284 0.4501 0.71969 0.0
H484 H 0.62014 0.46877 0.79043 0.0
H485 H 0.60262 0.45912 0.69408 0.0
C486 C 0.25629 0.52505 0.09834 0.0
C487 C 0.26323 0.55228 0.12527 0.0
C488 C 0.27727 0.5181 0.09638 0.0
C489 C 0.30566 0.5387 0.1239 0.0
C490 C 0.31268 0.56621 0.15175 0.0
C491 C 0.29139 0.57274 0.1511 0.0
C492 C 0.26914 0.48886 0.0641 0.0
C493 C 0.34264 0.58872 0.18275 0.0
C494 C 0.3598 0.52092 0.1956 0.0
C495 C 0.37819 0.53004 0.14029 0.0
C496 C 0.33507 0.52207 0.18898 0.0
C497 C 0.32825 0.53178 0.12445 0.0
C498 C 0.34524 0.53814 0.06477 0.0
C499 C 0.37024 0.53755 0.07387 0.0
C500 C 0.31788 0.51562 0.25461 0.0
C501 C 0.3383 0.54776 0.99399 0.0
H502 H 0.2345 0.50935 0.07748 0.0
H503 H 0.29666 0.59377 0.172 0.0
H504 H 0.28115 0.48973 1.01608 0.0
H505 H 0.27473 0.47886 0.10787 0.0
H506 H 0.24621 0.47544 0.04356 0.0
H507 H 0.34426 0.60855 0.206 0.0
H508 H 0.351 0.58149 0.22846 0.0
H509 H 0.3564 0.59312 0.13717 0.0
H510 H 0.36606 0.51552 0.2476 0.0
H511 H 0.38448 0.54466 0.0311 0.0
H512 H 0.29502 0.50214 0.23402 0.0
H513 H 0.32131 0.53543 0.28481 0.0
H514 H 0.32384 0.50508 0.29596 0.0
H515 H 0.31539 0.53485 0.97314 0.0
H516 H 0.3503 0.54675 0.94772 0.0
H517 H 0.3437 0.56974 1.00729 0.0
C518 C 0.6909 0.20361 0.90369 0.0
C519 C 0.67244 0.18709 0.95301 0.0
C520 C 0.71326 0.2309 0.92983 0.0
C521 C 0.71749 0.24173 1.00735 0.0
C522 C 0.70025 0.22449 0.05848 0.0
C523 C 0.67781 0.19743 0.03063 0.0
C524 C 0.73122 0.24868 0.87356 0.0
C525 C 0.70437 0.23518 0.14181 0.0
C526 C 0.78574 0.30948 0.08386 0.0
C527 C 0.77708 0.329 0.08248 0.0
C528 C 0.76654 0.28091 0.06009 0.0
C529 C 0.73818 0.27181 0.03352 0.0
C530 C 0.72937 0.29148 0.03185 0.0
C531 C 0.74892 0.31985 0.05682 0.0
C532 C 0.77654 0.26046 0.06387 0.0
C533 C 0.69932 0.28259 1.00319 0.0
H534 H 0.68721 0.19559 0.84392 0.0
H535 H 0.66353 0.18503 0.06915 0.0
H536 H 0.72706 0.26582 0.86671 0.0
H537 H 0.75395 0.25853 0.89479 0.0
H538 H 0.72684 0.23641 0.81686 0.0
H539 H 0.69167 0.21814 0.1755 0.0
H540 H 0.72694 0.24563 0.16566 0.0
H541 H 0.698 0.25097 0.14865 0.0
H542 H 0.80747 0.31654 0.10456 0.0
H543 H 0.7423 0.33499 0.05511 0.0
H544 H 0.77305 0.24907 1.00647 0.0
H545 H 0.7641 0.24462 0.10081 0.0
H546 H 0.79928 0.27094 0.08634 0.0
H547 H 0.69365 0.2719 0.94389 0.0
H548 H 0.69601 0.30057 1.00462 0.0
H549 H 0.6846 0.2674 0.03825 0.0
C550 C 0.45382 0.71025 0.20864 0.0
C551 C 0.4333 0.68169 0.19192 0.0
C552 C 0.4464 0.73065 0.20532 0.0
C553 C 0.41785 0.72226 0.184 0.0
C554 C 0.39694 0.69348 0.16921 0.0
C555 C 0.4049 0.67356 0.17389 0.0
C556 C 0.46921 0.76119 0.22237 0.0
C557 C 0.36626 0.68369 0.14606 0.0
C558 C 0.39295 0.77337 0.22034 0.0
C559 C 0.39369 0.78261 0.14921 0.0
C560 C 0.40126 0.75406 0.23307 0.0
C561 C 0.41004 0.74351 0.17281 0.0
C562 C 0.41079 0.7528 0.10087 0.0
C563 C 0.40278 0.77241 0.09011 0.0
C564 C 0.40055 0.74487 0.31076 0.0
C565 C 0.41961 0.74168 0.03491 0.0
H566 H 0.47583 0.71671 0.22207 0.0
H567 H 0.38884 0.65152 0.16255 0.0
H568 H 0.47154 0.77124 0.16996 0.0
H569 H 0.46331 0.77221 0.26501 0.0
H570 H 0.48996 0.76419 0.24414 0.0
H571 H 0.35247 0.66054 0.1399 0.0
H572 H 0.35872 0.69305 0.18865 0.0
H573 H 0.36392 0.69078 0.09103 0.0
H574 H 0.3861 0.78146 0.26617 0.0
H575 H 0.40301 0.77933 0.03485 0.0
H576 H 0.4217 0.74901 0.33304 0.0
H577 H 0.38561 0.722 0.30673 0.0
H578 H 0.39406 0.75576 0.35215 0.0
H579 H 0.44126 0.74583 0.05012 0.0
H580 H 0.4192 0.75121 0.98281 0.0
H581 H 0.40532 0.71866 0.02184 0.0
C582 C 0.80129 0.4824 0.18639 0.0
C583 C 0.80299 0.46927 0.24873 0.0
C584 C 0.77566 0.47986 0.15824 0.0
C585 C 0.75109 0.46324 0.19216 0.0
C586 C 0.75318 0.45156 0.25824 0.0
C587 C 0.77917 0.45504 0.28627 0.0
C588 C 0.77456 0.4935 0.0894 0.0
C589 C 0.72746 0.43336 0.29572 0.0
C590 C 0.67976 0.45678 0.15166 0.0
C591 C 0.66494 0.43178 0.10113 0.0
C592 C 0.70861 0.46869 0.17737 0.0
C593 C 0.72264 0.45476 0.15373 0.0
C594 C 0.70814 0.43038 0.09944 0.0
C595 C 0.6796 0.41943 0.07306 0.0
C596 C 0.72358 0.49527 0.23298 0.0
C597 C 0.72211 0.41456 0.07353 0.0
H598 H 0.81972 0.49371 0.15767 0.0
H599 H 0.78023 0.44479 0.33443 0.0
H600 H 0.76525 0.47753 0.03819 0.0
H601 H 0.76102 0.50263 0.09534 0.0
H602 H 0.79593 0.51021 0.07999 0.0
H603 H 0.73298 0.42746 0.34958 0.0
H604 H 0.71591 0.44424 0.3081 0.0
H605 H 0.71284 0.41391 0.25642 0.0
H606 H 0.66859 0.46654 0.17313 0.0
H607 H 0.66832 0.40005 0.03422 0.0
H608 H 0.7451 0.50959 0.2189 0.0
H609 H 0.72588 0.4902 0.29104 0.0
H610 H 0.71174 0.50636 0.2337 0.0
H611 H 0.74225 0.42878 0.05227 0.0
H612 H 0.70846 0.39691 0.02787 0.0
H613 H 0.7272 0.40606 0.12241 0.0
C614 C 0.24623 0.68356 0.10185 0.0
C615 C 0.21768 0.66295 0.09762 0.0
C616 C 0.25441 0.7107 0.08731 0.0
C617 C 0.23349 0.71757 0.07058 0.0
C618 C 0.20457 0.69669 0.06529 0.0
C619 C 0.19698 0.66943 0.07781 0.0
C620 C 0.28549 0.73221 0.09159 0.0
C621 C 0.18175 0.70343 0.04972 0.0
C622 C 0.26561 0.7954 0.12074 0.0
C623 C 0.27214 0.80452 0.04997 0.0
C624 C 0.25033 0.76677 0.12727 0.0
C625 C 0.24234 0.74697 0.06174 0.0
C626 C 0.24694 0.75609 0.98938 0.0
C627 C 0.26147 0.78486 0.98427 0.0
C628 C 0.24504 0.75788 0.20521 0.0
C629 C 0.23939 0.73578 0.91834 0.0
H630 H 0.2622 0.67845 0.11684 0.0
H631 H 0.17487 0.65352 0.07548 0.0
H632 H 0.28983 0.74225 0.03892 0.0
H633 H 0.29178 0.74892 0.13975 0.0
H634 H 0.29893 0.72297 0.09964 0.0
H635 H 0.16026 0.68447 0.0426 0.0
H636 H 0.18338 0.71833 0.09766 0.0
H637 H 0.18451 0.71378 0.99779 0.0
H638 H 0.27405 0.81066 0.17156 0.0
H639 H 0.26695 0.7919 0.9296 0.0
H640 H 0.26024 0.75171 0.22518 0.0
H641 H 0.22345 0.73948 0.20338 0.0
H642 H 0.24766 0.77504 0.24733 0.0
H643 H 0.25467 0.72857 0.91815 0.0
H644 H 0.24007 0.74552 0.86595 0.0
H645 H 0.21806 0.71705 0.91672 0.0
C646 C 0.55511 0.18732 0.81079 0.0
C647 C 0.54038 0.16117 0.83628 0.0
C648 C 0.55842 0.21128 0.85307 0.0
C649 C 0.54635 0.20882 0.92167 0.0
C650 C 0.53021 0.1822 0.94543 0.0
C651 C 0.52749 0.15869 0.9025 0.0
C652 C 0.57597 0.23938 0.82629 0.0
C653 C 0.51669 0.17867 0.01764 0.0
C654 C 0.57958 0.27279 0.07173 0.0
C655 C 0.56182 0.28343 0.05853 0.0
C656 C 0.57476 0.24848 0.02764 0.0
C657 C 0.55137 0.23422 0.96982 0.0
C658 C 0.53298 0.24438 0.9574 0.0
C659 C 0.53857 0.26897 1.0013 0.0
C660 C 0.59496 0.2383 0.04209 0.0
C661 C 0.50764 0.22955 0.89685 0.0
H662 H 0.56535 0.18932 0.76004 0.0
H663 H 0.51597 0.13841 0.922 0.0
H664 H 0.56389 0.25015 0.8225 0.0
H665 H 0.59508 0.25285 0.86811 0.0
H666 H 0.58273 0.23754 0.76992 0.0
H667 H 0.50312 0.15631 0.02506 0.0
H668 H 0.53332 0.18937 0.06737 0.0
H669 H 0.5037 0.18853 0.01768 0.0
H670 H 0.59735 0.28351 0.11632 0.0
H671 H 0.52503 0.27724 0.98921 0.0
H672 H 0.60465 0.2379 0.98993 0.0
H673 H 0.58341 0.21659 0.05608 0.0
H674 H 0.6121 0.25174 0.0893 0.0
H675 H 0.51467 0.22967 0.84 0.0
H676 H 0.49464 0.23943 0.89687 0.0
H677 H 0.49415 0.20734 0.90547 0.0
loop_
_geom_bond_atom_site_label_1
_geom_bond_atom_site_label_2
_geom_bond_distance
_geom_bond_site_symmetry_2
_ccdc_geom_bond_type
C0 C1 1.351 . S
C0 N3 1.368 . S
C0 H5 0.931 . S
C1 C0 1.351 . S
C1 N2 1.373 . S
C1 H29 0.930 . S
N2 C1 1.373 . S
N2 C4 1.340 . S
N3 C0 1.368 . S
N3 C4 1.321 . S
N3 Co6 2.135 1_556 S
C4 N2 1.340 . S
C4 N3 1.321 . S
C4 H28 0.930 . S
H5 C0 0.931 . S
Co6 N3 2.135 1_554 S
Co6 N9 2.121 . S
Co6 O14 2.055 . S
Co6 O17 2.039 . S
Co6 N20 2.140 . S
C7 O8 1.227 . S
C7 O17 1.265 . S
O8 C7 1.227 . S
N9 Co6 2.121 . S
N9 C11 1.375 . S
N9 C12 1.313 . S
C10 C11 1.338 . S
C10 N13 1.377 . S
C10 H30 0.930 . S
C11 N9 1.375 . S
C11 C10 1.338 . S
C11 H15 0.931 . S
C12 N9 1.313 . S
C12 N13 1.344 . S
C12 H16 0.930 . S
N13 C10 1.377 . S
N13 C12 1.344 . S
O14 Co6 2.055 . S
O14 C18 1.253 . S
H15 C11 0.931 . S
H16 C12 0.930 . S
O17 Co6 2.039 . S
O17 C7 1.265 . S
C18 O14 1.253 . S
C18 O19 1.227 . S
O19 C18 1.227 . S
N20 Co6 2.140 . S
N20 C23 1.346 1_554 S
N20 C24 1.345 . S
C21 C22 1.387 1_554 S
C21 C25 1.391 . S
C22 C21 1.387 1_556 S
C22 C23 1.369 . S
C22 H31 0.929 . S
C23 N20 1.346 1_556 S
C23 C22 1.369 . S
C23 H26 0.928 . S
C24 N20 1.345 . S
C24 C25 1.371 . S
C24 H27 0.931 . S
C25 C21 1.391 . S
C25 C24 1.371 . S
C25 H32 0.930 . S
H26 C23 0.928 . S
H27 C24 0.931 . S
H28 C4 0.930 . S
H29 C1 0.930 . S
H30 C10 0.930 . S
H31 C22 0.929 . S
H32 C25 0.930 . S
C33 C34 1.351 . S
C33 N36 1.368 . S
C33 H38 0.931 . S
C34 C33 1.351 . S
C34 N35 1.373 . S
C34 H62 0.930 . S
N35 C34 1.373 . S
N35 C37 1.340 . S
N36 C33 1.368 . S
N36 C37 1.321 . S
N36 Co39 2.135 1_556 S
C37 N35 1.340 . S
C37 N36 1.321 . S
C37 H61 0.930 . S
H38 C33 0.931 . S
Co39 N36 2.135 1_554 S
Co39 N42 2.121 . S
Co39 O47 2.055 . S
Co39 O50 2.039 . S
Co39 N53 2.140 . S
C40 O41 1.227 . S
C40 O50 1.265 . S
O41 C40 1.227 . S
N42 Co39 2.121 . S
N42 C44 1.375 . S
N42 C45 1.313 . S
C43 C44 1.338 . S
C43 N46 1.377 . S
C43 H63 0.930 . S
C44 N42 1.375 . S
C44 C43 1.338 . S
C44 H48 0.931 . S
C45 N42 1.313 . S
C45 N46 1.344 . S
C45 H49 0.930 . S
N46 C43 1.377 . S
N46 C45 1.344 . S
O47 Co39 2.055 . S
O47 C51 1.253 . S
H48 C44 0.931 . S
H49 C45 0.930 . S
O50 Co39 2.039 . S
O50 C40 1.265 . S
C51 O47 1.253 . S
C51 O52 1.227 . S
O52 C51 1.227 . S
N53 Co39 2.140 . S
N53 C56 1.350 . S
N53 C57 1.345 . S
C54 C55 1.387 . S
C54 C58 1.391 . S
C55 C54 1.387 . S
C55 C56 1.369 . S
C55 H64 0.929 1_554 S
C56 N53 1.350 . S
C56 C55 1.369 . S
C56 H59 0.924 1_554 S
C57 N53 1.345 . S
C57 C58 1.371 . S
C57 H60 0.931 . S
C58 C54 1.391 . S
C58 C57 1.371 . S
C58 H65 0.930 . S
H59 C56 0.924 1_556 S
H60 C57 0.931 . S
H61 C37 0.930 . S
H62 C34 0.930 . S
H63 C43 0.930 . S
H64 C55 0.929 1_556 S
H65 C58 0.930 . S
C66 C67 1.351 . S
C66 N69 1.368 . S
C66 H71 0.931 . S
C67 C66 1.351 . S
C67 N68 1.373 . S
C67 H95 0.930 . S
N68 C67 1.373 . S
N68 C70 1.340 . S
N69 C66 1.368 . S
N69 C70 1.321 . S
N69 Co72 2.135 1_556 S
C70 N68 1.340 . S
C70 N69 1.321 . S
C70 H94 0.930 . S
H71 C66 0.931 . S
Co72 N69 2.135 1_554 S
Co72 N75 2.121 . S
Co72 O80 2.055 . S
Co72 O83 2.039 . S
Co72 N86 2.140 . S
C73 O74 1.227 . S
C73 O83 1.265 . S
O74 C73 1.227 . S
N75 Co72 2.121 . S
N75 C77 1.375 . S
N75 C78 1.313 . S
C76 C77 1.338 . S
C76 N79 1.377 . S
C76 H96 0.930 . S
C77 N75 1.375 . S
C77 C76 1.338 . S
C77 H81 0.931 . S
C78 N75 1.313 . S
C78 N79 1.344 . S
C78 H82 0.930 . S
N79 C76 1.377 . S
N79 C78 1.344 . S
O80 Co72 2.055 . S
O80 C84 1.253 . S
H81 C77 0.931 . S
H82 C78 0.930 . S
O83 Co72 2.039 . S
O83 C73 1.265 . S
C84 O80 1.253 . S
C84 O85 1.227 . S
O85 C84 1.227 . S
N86 Co72 2.140 . S
N86 C89 1.346 . S
N86 C90 1.345 . S
C87 C88 1.387 . S
C87 C91 1.391 . S
C88 C87 1.387 . S
C88 C89 1.369 . S
C88 H97 0.929 . S
C89 N86 1.346 . S
C89 C88 1.369 . S
C89 H92 0.928 . S
C90 N86 1.345 . S
C90 C91 1.371 . S
C90 H93 0.931 . S
C91 C87 1.391 . S
C91 C90 1.371 . S
C91 H98 0.930 . S
H92 C89 0.928 . S
H93 C90 0.931 . S
H94 C70 0.930 . S
H95 C67 0.930 . S
H96 C76 0.930 . S
H97 C88 0.929 . S
H98 C91 0.930 . S
C99 C100 1.351 . S
C99 N102 1.368 . S
C99 H104 0.931 . S
C100 C99 1.351 . S
C100 N101 1.373 . S
C100 H128 0.930 . S
N101 C100 1.373 . S
N101 C103 1.340 . S
N102 C99 1.368 . S
N102 C103 1.321 . S
N102 Co105 2.135 . S
C103 N101 1.340 . S
C103 N102 1.321 . S
C103 H127 0.930 . S
H104 C99 0.931 . S
Co105 N102 2.135 . S
Co105 N108 2.121 1_554 S
Co105 O113 2.055 . S
Co105 O116 2.039 . S
Co105 N119 2.140 . S
C106 O107 1.227 . S
C106 O116 1.265 . S
O107 C106 1.227 . S
N108 Co105 2.121 1_556 S
N108 C110 1.375 . S
N108 C111 1.313 . S
C109 C110 1.338 . S
C109 N112 1.377 . S
C109 H129 0.930 . S
C110 N108 1.375 . S
C110 C109 1.338 . S
C110 H114 0.931 . S
C111 N108 1.313 . S
C111 N112 1.344 . S
C111 H115 0.930 . S
N112 C109 1.377 . S
N112 C111 1.344 . S
O113 Co105 2.055 . S
O113 C117 1.253 . S
H114 C110 0.931 . S
H115 C111 0.930 . S
O116 Co105 2.039 . S
O116 C106 1.265 . S
C117 O113 1.253 . S
C117 O118 1.227 . S
O118 C117 1.227 . S
N119 Co105 2.140 . S
N119 C122 1.346 . S
N119 C123 1.345 . S
C120 C121 1.387 . S
C120 C124 1.391 . S
C121 C120 1.387 . S
C121 C122 1.369 . S
C121 H130 0.929 . S
C122 N119 1.346 . S
C122 C121 1.369 . S
C122 H125 0.928 . S
C123 N119 1.345 . S
C123 C124 1.371 . S
C123 H126 0.931 . S
C124 C120 1.391 . S
C124 C123 1.371 . S
C124 H131 0.930 1_554 S
H125 C122 0.928 . S
H126 C123 0.931 . S
H127 C103 0.930 . S
H128 C100 0.930 . S
H129 C109 0.930 . S
H130 C121 0.929 . S
H131 C124 0.930 1_556 S
C132 C133 1.351 . S
C132 N135 1.368 . S
C132 H137 0.931 . S
C133 C132 1.351 . S
C133 N134 1.373 . S
C133 H161 0.930 . S
N134 C133 1.373 . S
N134 C136 1.340 . S
N135 C132 1.368 . S
N135 C136 1.321 . S
N135 Co138 2.135 . S
C136 N134 1.340 . S
C136 N135 1.321 . S
C136 H160 0.930 . S
H137 C132 0.931 . S
Co138 N135 2.135 . S
Co138 N141 2.121 1_554 S
Co138 O146 2.055 . S
Co138 O149 2.039 . S
Co138 N152 2.140 . S
C139 O140 1.227 . S
C139 O149 1.265 . S
O140 C139 1.227 . S
N141 Co138 2.121 1_556 S
N141 C143 1.375 . S
N141 C144 1.313 . S
C142 C143 1.338 . S
C142 N145 1.377 . S
C142 H162 0.930 . S
C143 N141 1.375 . S
C143 C142 1.338 . S
C143 H147 0.931 . S
C144 N141 1.313 . S
C144 N145 1.344 . S
C144 H148 0.930 . S
N145 C142 1.377 . S
N145 C144 1.344 . S
O146 Co138 2.055 . S
O146 C150 1.253 . S
H147 C143 0.931 . S
H148 C144 0.930 . S
O149 Co138 2.039 . S
O149 C139 1.265 . S
C150 O146 1.253 . S
C150 O151 1.227 . S
O151 C150 1.227 . S
N152 Co138 2.140 . S
N152 C155 1.346 . S
N152 C156 1.345 . S
C153 C154 1.387 . S
C153 C157 1.391 . S
C154 C153 1.387 . S
C154 C155 1.369 . S
C154 H163 0.929 . S
C155 N152 1.346 . S
C155 C154 1.369 . S
C155 H158 0.928 . S
C156 N152 1.345 . S
C156 C157 1.371 . S
C156 H159 0.931 . S
C157 C153 1.391 . S
C157 C156 1.371 . S
C157 H164 0.930 . S
H158 C155 0.928 . S
H159 C156 0.931 . S
H160 C136 0.930 . S
H161 C133 0.930 . S
H162 C142 0.930 . S
H163 C154 0.929 . S
H164 C157 0.930 . S
C165 C166 1.351 . S
C165 N168 1.368 1_556 S
C165 H170 0.931 . S
C166 C165 1.351 . S
C166 N167 1.373 . S
C166 H194 0.930 . S
N167 C166 1.373 . S
N167 C169 1.340 . S
N168 C165 1.368 1_554 S
N168 C169 1.321 1_554 S
N168 Co171 2.135 . S
C169 N167 1.340 . S
C169 N168 1.321 1_556 S
C169 H193 0.930 . S
H170 C165 0.931 . S
Co171 N168 2.135 . S
Co171 N174 2.121 . S
Co171 O179 2.055 . S
Co171 O182 2.039 . S
Co171 N185 2.140 . S
C172 O173 1.227 . S
C172 O182 1.265 . S
O173 C172 1.227 . S
N174 Co171 2.121 . S
N174 C176 1.375 . S
N174 C177 1.313 . S
C175 C176 1.338 . S
C175 N178 1.377 . S
C175 H195 0.930 . S
C176 N174 1.375 . S
C176 C175 1.338 . S
C176 H180 0.931 . S
C177 N174 1.313 . S
C177 N178 1.344 . S
C177 H181 0.930 . S
N178 C175 1.377 . S
N178 C177 1.344 . S
O179 Co171 2.055 . S
O179 C183 1.253 . S
H180 C176 0.931 . S
H181 C177 0.930 . S
O182 Co171 2.039 . S
O182 C172 1.265 . S
C183 O179 1.253 . S
C183 O184 1.227 . S
O184 C183 1.227 . S
N185 Co171 2.140 . S
N185 C188 1.346 . S
N185 C189 1.345 . S
C186 C187 1.387 . S
C186 C190 1.391 . S
C187 C186 1.387 . S
C187 C188 1.369 . S
C187 H196 0.929 . S
C188 N185 1.346 . S
C188 C187 1.369 . S
C188 H191 0.928 . S
C189 N185 1.345 . S
C189 C190 1.371 . S
C189 H192 0.931 . S
C190 C186 1.391 . S
C190 C189 1.371 . S
C190 H197 0.930 . S
H191 C188 0.928 . S
H192 C189 0.931 . S
H193 C169 0.930 . S
H194 C166 0.930 . S
H195 C175 0.930 . S
H196 C187 0.929 . S
H197 C190 0.930 . S
C198 C199 1.391 . S
C198 C200 1.394 . S
C198 H214 0.931 1_554 S
C199 C198 1.391 . S
C199 C203 1.376 . S
C200 C198 1.394 . S
C200 C201 1.369 . S
C200 C204 1.531 1_554 S
C201 C200 1.369 . S
C201 C202 1.410 . S
C201 C209 1.503 1_455 S
C202 C201 1.410 . S
C202 C203 1.392 . S
C202 C205 1.511 . S
C203 C199 1.376 . S
C203 C202 1.392 . S
C203 H215 0.929 . S
C204 C200 1.531 1_556 S
C204 H216 0.960 1_455 S
C204 H217 0.951 1_455 S
C204 H218 0.960 . S
C205 C202 1.511 . S
C205 H219 0.961 . S
C205 H220 0.961 . S
C205 H221 0.961 . S
C206 C207 1.370 . S
C206 C208 1.363 . S
C206 H222 0.931 . S
C207 C206 1.370 . S
C207 C211 1.408 . S
C208 C206 1.363 . S
C208 C209 1.370 . S
C208 C212 1.526 . S
C209 C201 1.503 1_655 S
C209 C208 1.370 . S
C209 C210 1.403 . S
C210 C209 1.403 . S
C210 C211 1.404 . S
C210 C213 1.539 . S
C211 C207 1.408 . S
C211 C210 1.404 . S
C211 H223 0.930 . S
C212 C208 1.526 . S
C212 H224 0.954 1_554 S
C212 H225 0.962 1_655 S
C212 H226 0.960 1_554 S
C213 C210 1.539 . S
C213 H227 0.958 . S
C213 H228 0.961 . S
C213 H229 0.960 1_655 S
H214 C198 0.931 1_556 S
H215 C203 0.929 . S
H216 C204 0.960 1_655 S
H217 C204 0.951 1_655 S
H218 C204 0.960 . S
H219 C205 0.961 . S
H220 C205 0.961 . S
H221 C205 0.961 . S
H222 C206 0.931 . S
H223 C211 0.930 . S
H224 C212 0.954 1_556 S
H225 C212 0.962 1_455 S
H226 C212 0.960 1_556 S
H227 C213 0.958 . S
H228 C213 0.961 . S
H229 C213 0.960 1_455 S
C230 C231 1.391 . S
C230 C232 1.394 . S
C230 H246 0.931 . S
C231 C230 1.391 . S
C231 C235 1.376 . S
C232 C230 1.394 . S
C232 C233 1.369 . S
C232 C236 1.531 . S
C233 C232 1.369 . S
C233 C234 1.410 . S
C233 C241 1.503 1_565 S
C234 C233 1.410 . S
C234 C235 1.392 . S
C234 C237 1.511 . S
C235 C231 1.376 . S
C235 C234 1.392 . S
C235 H247 0.929 . S
C236 C232 1.531 . S
C236 H248 0.960 . S
C236 H249 0.962 . S
C236 H250 0.960 . S
C237 C234 1.511 . S
C237 H251 0.961 . S
C237 H252 0.961 . S
C237 H253 0.961 1_554 S
C238 C239 1.370 . S
C238 C240 1.363 . S
C238 H254 0.931 . S
C239 C238 1.370 . S
C239 C243 1.408 1_554 S
C240 C238 1.363 . S
C240 C241 1.370 . S
C240 C244 1.524 . S
C241 C233 1.503 1_545 S
C241 C240 1.370 . S
C241 C242 1.403 1_554 S
C242 C241 1.403 1_556 S
C242 C243 1.404 . S
C242 C245 1.539 1_545 S
C243 C239 1.408 1_556 S
C243 C242 1.404 . S
C243 H255 0.930 . S
C244 C240 1.524 . S
C244 H256 0.956 . S
C244 H257 0.961 . S
C244 H258 0.961 . S
C245 C242 1.539 1_565 S
C245 H259 0.958 . S
C245 H260 0.961 1_565 S
C245 H261 0.960 . S
H246 C230 0.931 . S
H247 C235 0.929 . S
H248 C236 0.960 . S
H249 C236 0.962 . S
H250 C236 0.960 . S
H251 C237 0.961 . S
H252 C237 0.961 . S
H253 C237 0.961 1_556 S
H254 C238 0.931 . S
H255 C243 0.930 . S
H256 C244 0.956 . S
H257 C244 0.961 . S
H258 C244 0.961 . S
H259 C245 0.958 . S
H260 C245 0.961 1_545 S
H261 C245 0.960 . S
C262 C263 1.391 . S
C262 C264 1.394 . S
C262 H278 0.931 . S
C263 C262 1.391 . S
C263 C267 1.376 . S
C264 C262 1.394 . S
C264 C265 1.369 . S
C264 C268 1.531 . S
C265 C264 1.369 . S
C265 C266 1.410 . S
C265 C273 1.503 . S
C266 C265 1.410 . S
C266 C267 1.392 . S
C266 C269 1.511 . S
C267 C263 1.376 . S
C267 C266 1.392 . S
C267 H279 0.929 . S
C268 C264 1.531 . S
C268 H280 0.960 . S
C268 H281 0.962 . S
C268 H282 0.960 . S
C269 C266 1.511 . S
C269 H283 0.961 1_554 S
C269 H284 0.961 . S
C269 H285 0.961 . S
C270 C271 1.370 . S
C270 C272 1.363 . S
C270 H286 0.931 . S
C271 C270 1.370 . S
C271 C275 1.408 . S
C272 C270 1.363 . S
C272 C273 1.370 . S
C272 C276 1.524 . S
C273 C265 1.503 . S
C273 C272 1.370 . S
C273 C274 1.403 . S
C274 C273 1.403 . S
C274 C275 1.404 . S
C274 C277 1.539 . S
C275 C271 1.408 . S
C275 C274 1.404 . S
C275 H287 0.930 . S
C276 C272 1.524 . S
C276 H288 0.956 . S
C276 H289 0.961 . S
C276 H290 0.961 . S
C277 C274 1.539 . S
C277 H291 0.958 . S
C277 H292 0.961 . S
C277 H293 0.960 . S
H278 C262 0.931 . S
H279 C267 0.929 . S
H280 C268 0.960 . S
H281 C268 0.962 . S
H282 C268 0.960 . S
H283 C269 0.961 1_556 S
H284 C269 0.961 . S
H285 C269 0.961 . S
H286 C270 0.931 . S
H287 C275 0.930 . S
H288 C276 0.956 . S
H289 C276 0.961 . S
H290 C276 0.961 . S
H291 C277 0.958 . S
H292 C277 0.961 . S
H293 C277 0.960 . S
C294 C295 1.391 . S
C294 C296 1.394 . S
C294 H310 0.931 . S
C295 C294 1.391 . S
C295 C299 1.376 . S
C296 C294 1.394 . S
C296 C297 1.369 . S
C296 C300 1.531 . S
C297 C296 1.369 . S
C297 C298 1.410 . S
C297 C305 1.503 . S
C298 C297 1.410 . S
C298 C299 1.392 . S
C298 C301 1.511 . S
C299 C295 1.376 . S
C299 C298 1.392 . S
C299 H311 0.929 . S
C300 C296 1.531 . S
C300 H312 0.960 . S
C300 H313 0.962 . S
C300 H314 0.960 . S
C301 C298 1.511 . S
C301 H315 0.961 . S
C301 H316 0.961 . S
C301 H317 0.961 . S
C302 C303 1.370 . S
C302 C304 1.363 . S
C302 H318 0.931 . S
C303 C302 1.370 . S
C303 C307 1.408 . S
C304 C302 1.363 . S
C304 C305 1.370 . S
C304 C308 1.524 . S
C305 C297 1.503 . S
C305 C304 1.370 . S
C305 C306 1.403 . S
C306 C305 1.403 . S
C306 C307 1.404 . S
C306 C309 1.539 . S
C307 C303 1.408 . S
C307 C306 1.404 . S
C307 H319 0.930 . S
C308 C304 1.524 . S
C308 H320 0.956 . S
C308 H321 0.961 . S
C308 H322 0.961 . S
C309 C306 1.539 . S
C309 H323 0.958 . S
C309 H324 0.961 . S
C309 H325 0.960 . S
H310 C294 0.931 . S
H311 C299 0.929 . S
H312 C300 0.960 . S
H313 C300 0.962 . S
H314 C300 0.960 . S
H315 C301 0.961 . S
H316 C301 0.961 . S
H317 C301 0.961 . S
H318 C302 0.931 . S
H319 C307 0.930 . S
H320 C308 0.956 . S
H321 C308 0.961 . S
H322 C308 0.961 . S
H323 C309 0.958 . S
H324 C309 0.961 . S
H325 C309 0.960 . S
C326 C327 1.391 . S
C326 C328 1.394 . S
C326 H342 0.931 . S
C327 C326 1.391 . S
C327 C331 1.376 . S
C328 C326 1.394 . S
C328 C329 1.369 . S
C328 C332 1.531 . S
C329 C328 1.369 . S
C329 C330 1.410 . S
C329 C337 1.503 . S
C330 C329 1.410 . S
C330 C331 1.392 . S
C330 C333 1.511 . S
C331 C327 1.376 . S
C331 C330 1.392 . S
C331 H343 0.929 . S
C332 C328 1.531 . S
C332 H344 0.960 . S
C332 H345 0.962 . S
C332 H346 0.960 . S
C333 C330 1.511 . S
C333 H347 0.961 . S
C333 H348 0.961 . S
C333 H349 0.961 . S
C334 C335 1.370 . S
C334 C336 1.363 . S
C334 H350 0.931 . S
C335 C334 1.370 . S
C335 C339 1.408 . S
C336 C334 1.363 . S
C336 C337 1.370 . S
C336 C340 1.524 . S
C337 C329 1.503 . S
C337 C336 1.370 . S
C337 C338 1.403 . S
C338 C337 1.403 . S
C338 C339 1.404 . S
C338 C341 1.539 . S
C339 C335 1.408 . S
C339 C338 1.404 . S
C339 H351 0.930 . S
C340 C336 1.524 . S
C340 H352 0.956 . S
C340 H353 0.961 . S
C340 H354 0.961 . S
C341 C338 1.539 . S
C341 H355 0.958 . S
C341 H356 0.961 . S
C341 H357 0.960 . S
H342 C326 0.931 . S
H343 C331 0.929 . S
H344 C332 0.960 . S
H345 C332 0.962 . S
H346 C332 0.960 . S
H347 C333 0.961 . S
H348 C333 0.961 . S
H349 C333 0.961 . S
H350 C334 0.931 . S
H351 C339 0.930 . S
H352 C340 0.956 . S
H353 C340 0.961 . S
H354 C340 0.961 . S
H355 C341 0.958 . S
H356 C341 0.961 . S
H357 C341 0.960 . S
C358 C359 1.391 . S
C358 C360 1.394 . S
C358 H374 0.931 . S
C359 C358 1.391 . S
C359 C363 1.376 . S
C360 C358 1.394 . S
C360 C361 1.369 . S
C360 C364 1.531 . S
C361 C360 1.369 . S
C361 C362 1.410 . S
C361 C369 1.503 . S
C362 C361 1.410 . S
C362 C363 1.392 . S
C362 C365 1.511 . S
C363 C359 1.376 . S
C363 C362 1.392 . S
C363 H375 0.929 . S
C364 C360 1.531 . S
C364 H376 0.960 . S
C364 H377 0.962 . S
C364 H378 0.960 . S
C365 C362 1.511 . S
C365 H379 0.961 . S
C365 H380 0.961 . S
C365 H381 0.961 . S
C366 C367 1.370 . S
C366 C368 1.363 . S
C366 H382 0.931 . S
C367 C366 1.370 . S
C367 C371 1.408 . S
C368 C366 1.363 . S
C368 C369 1.370 . S
C368 C372 1.524 . S
C369 C361 1.503 . S
C369 C368 1.370 . S
C369 C370 1.403 . S
C370 C369 1.403 . S
C370 C371 1.404 . S
C370 C373 1.539 . S
C371 C367 1.408 . S
C371 C370 1.404 . S
C371 H383 0.930 . S
C372 C368 1.524 . S
C372 H384 0.956 . S
C372 H385 0.961 . S
C372 H386 0.961 . S
C373 C370 1.539 . S
C373 H387 0.958 . S
C373 H388 0.961 . S
C373 H389 0.960 . S
H374 C358 0.931 . S
H375 C363 0.929 . S
H376 C364 0.960 . S
H377 C364 0.962 . S
H378 C364 0.960 . S
H379 C365 0.961 . S
H380 C365 0.961 . S
H381 C365 0.961 . S
H382 C366 0.931 . S
H383 C371 0.930 . S
H384 C372 0.956 . S
H385 C372 0.961 . S
H386 C372 0.961 . S
H387 C373 0.958 . S
H388 C373 0.961 . S
H389 C373 0.960 . S
C390 C391 1.391 . S
C390 C392 1.394 . S
C390 H406 0.931 . S
C391 C390 1.391 . S
C391 C395 1.376 . S
C392 C390 1.394 . S
C392 C393 1.369 . S
C392 C396 1.531 . S
C393 C392 1.369 . S
C393 C394 1.410 . S
C393 C401 1.503 . S
C394 C393 1.410 . S
C394 C395 1.392 . S
C394 C397 1.511 . S
C395 C391 1.376 . S
C395 C394 1.392 . S
C395 H407 0.929 . S
C396 C392 1.531 . S
C396 H408 0.960 . S
C396 H409 0.962 . S
C396 H410 0.960 . S
C397 C394 1.511 . S
C397 H411 0.961 . S
C397 H412 0.961 . S
C397 H413 0.961 . S
C398 C399 1.370 . S
C398 C400 1.363 . S
C398 H414 0.931 . S
C399 C398 1.370 . S
C399 C403 1.408 . S
C400 C398 1.363 . S
C400 C401 1.370 . S
C400 C404 1.524 . S
C401 C393 1.503 . S
C401 C400 1.370 . S
C401 C402 1.403 . S
C402 C401 1.403 . S
C402 C403 1.404 . S
C402 C405 1.539 . S
C403 C399 1.408 . S
C403 C402 1.404 . S
C403 H415 0.930 . S
C404 C400 1.524 . S
C404 H416 0.956 . S
C404 H417 0.961 . S
C404 H418 0.961 . S
C405 C402 1.539 . S
C405 H419 0.958 . S
C405 H420 0.961 . S
C405 H421 0.960 . S
H406 C390 0.931 . S
H407 C395 0.929 . S
H408 C396 0.960 . S
H409 C396 0.962 . S
H410 C396 0.960 . S
H411 C397 0.961 . S
H412 C397 0.961 . S
H413 C397 0.961 . S
H414 C398 0.931 . S
H415 C403 0.930 . S
H416 C404 0.956 . S
H417 C404 0.961 . S
H418 C404 0.961 . S
H419 C405 0.958 . S
H420 C405 0.961 . S
H421 C405 0.960 . S
C422 C423 1.391 . S
C422 C424 1.394 . S
C422 H438 0.931 . S
C423 C422 1.391 . S
C423 C427 1.376 . S
C424 C422 1.394 . S
C424 C425 1.369 . S
C424 C428 1.531 . S
C425 C424 1.369 . S
C425 C426 1.410 . S
C425 C433 1.503 . S
C426 C425 1.410 . S
C426 C427 1.392 . S
C426 C429 1.511 . S
C427 C423 1.376 . S
C427 C426 1.392 . S
C427 H439 0.929 . S
C428 C424 1.531 . S
C428 H440 0.960 . S
C428 H441 0.962 . S
C428 H442 0.960 . S
C429 C426 1.511 . S
C429 H443 0.961 . S
C429 H444 0.961 . S
C429 H445 0.961 . S
C430 C431 1.370 . S
C430 C432 1.363 . S
C430 H446 0.931 . S
C431 C430 1.370 . S
C431 C435 1.408 . S
C432 C430 1.363 . S
C432 C433 1.370 . S
C432 C436 1.524 . S
C433 C425 1.503 . S
C433 C432 1.370 . S
C433 C434 1.403 . S
C434 C433 1.403 . S
C434 C435 1.404 . S
C434 C437 1.539 . S
C435 C431 1.408 . S
C435 C434 1.404 . S
C435 H447 0.930 . S
C436 C432 1.524 . S
C436 H448 0.956 . S
C436 H449 0.961 . S
C436 H450 0.961 . S
C437 C434 1.539 . S
C437 H451 0.958 . S
C437 H452 0.961 . S
C437 H453 0.960 . S
H438 C422 0.931 . S
H439 C427 0.929 . S
H440 C428 0.960 . S
H441 C428 0.962 . S
H442 C428 0.960 . S
H443 C429 0.961 . S
H444 C429 0.961 . S
H445 C429 0.961 . S
H446 C430 0.931 . S
H447 C435 0.930 . S
H448 C436 0.956 . S
H449 C436 0.961 . S
H450 C436 0.961 . S
H451 C437 0.958 . S
H452 C437 0.961 . S
H453 C437 0.960 . S
C454 C455 1.391 . S
C454 C456 1.394 . S
C454 H470 0.931 . S
C455 C454 1.391 . S
C455 C459 1.376 . S
C456 C454 1.394 . S
C456 C457 1.369 . S
C456 C460 1.531 . S
C457 C456 1.369 . S
C457 C458 1.410 . S
C457 C465 1.503 . S
C458 C457 1.410 . S
C458 C459 1.392 . S
C458 C461 1.511 . S
C459 C455 1.376 . S
C459 C458 1.392 . S
C459 H471 0.929 . S
C460 C456 1.531 . S
C460 H472 0.960 . S
C460 H473 0.962 . S
C460 H474 0.960 . S
C461 C458 1.511 . S
C461 H475 0.961 . S
C461 H476 0.961 . S
C461 H477 0.961 . S
C462 C463 1.370 . S
C462 C464 1.363 . S
C462 H478 0.931 . S
C463 C462 1.370 . S
C463 C467 1.408 . S
C464 C462 1.363 . S
C464 C465 1.370 . S
C464 C468 1.524 . S
C465 C457 1.503 . S
C465 C464 1.370 . S
C465 C466 1.403 . S
C466 C465 1.403 . S
C466 C467 1.404 . S
C466 C469 1.539 . S
C467 C463 1.408 . S
C467 C466 1.404 . S
C467 H479 0.930 . S
C468 C464 1.524 . S
C468 H480 0.956 . S
C468 H481 0.961 . S
C468 H482 0.961 . S
C469 C466 1.539 . S
C469 H483 0.958 . S
C469 H484 0.961 . S
C469 H485 0.960 . S
H470 C454 0.931 . S
H471 C459 0.929 . S
H472 C460 0.960 . S
H473 C460 0.962 . S
H474 C460 0.960 . S
H475 C461 0.961 . S
H476 C461 0.961 . S
H477 C461 0.961 . S
H478 C462 0.931 . S
H479 C467 0.930 . S
H480 C468 0.956 . S
H481 C468 0.961 . S
H482 C468 0.961 . S
H483 C469 0.958 . S
H484 C469 0.961 . S
H485 C469 0.960 . S
C486 C487 1.391 . S
C486 C488 1.394 . S
C486 H502 0.931 . S
C487 C486 1.391 . S
C487 C491 1.376 . S
C488 C486 1.394 . S
C488 C489 1.369 . S
C488 C492 1.531 . S
C489 C488 1.369 . S
C489 C490 1.410 . S
C489 C497 1.503 . S
C490 C489 1.410 . S
C490 C491 1.392 . S
C490 C493 1.511 . S
C491 C487 1.376 . S
C491 C490 1.392 . S
C491 H503 0.929 . S
C492 C488 1.531 . S
C492 H504 0.960 . S
C492 H505 0.962 . S
C492 H506 0.960 . S
C493 C490 1.511 . S
C493 H507 0.961 . S
C493 H508 0.961 . S
C493 H509 0.961 1_554 S
C494 C495 1.370 . S
C494 C496 1.363 . S
C494 H510 0.931 . S
C495 C494 1.370 . S
C495 C499 1.408 1_554 S
C496 C494 1.363 . S
C496 C497 1.370 . S
C496 C500 1.524 . S
C497 C489 1.503 . S
C497 C496 1.370 . S
C497 C498 1.403 1_554 S
C498 C497 1.403 1_556 S
C498 C499 1.404 . S
C498 C501 1.539 . S
C499 C495 1.408 1_556 S
C499 C498 1.404 . S
C499 H511 0.930 . S
C500 C496 1.524 . S
C500 H512 0.956 . S
C500 H513 0.961 . S
C500 H514 0.961 . S
C501 C498 1.539 . S
C501 H515 0.958 . S
C501 H516 0.961 . S
C501 H517 0.960 . S
H502 C486 0.931 . S
H503 C491 0.929 . S
H504 C492 0.960 . S
H505 C492 0.962 . S
H506 C492 0.960 . S
H507 C493 0.961 . S
H508 C493 0.961 . S
H509 C493 0.961 1_556 S
H510 C494 0.931 . S
H511 C499 0.930 . S
H512 C500 0.956 . S
H513 C500 0.961 . S
H514 C500 0.961 . S
H515 C501 0.958 . S
H516 C501 0.961 . S
H517 C501 0.960 . S
C518 C519 1.391 . S
C518 C520 1.394 . S
C518 H534 0.931 . S
C519 C518 1.391 . S
C519 C523 1.376 . S
C520 C518 1.394 . S
C520 C521 1.369 . S
C520 C524 1.531 . S
C521 C520 1.369 . S
C521 C522 1.410 . S
C521 C529 1.503 . S
C522 C521 1.410 . S
C522 C523 1.392 . S
C522 C525 1.511 . S
C523 C519 1.376 . S
C523 C522 1.392 . S
C523 H535 0.929 . S
C524 C520 1.531 . S
C524 H536 0.960 . S
C524 H537 0.962 . S
C524 H538 0.960 . S
C525 C522 1.511 . S
C525 H539 0.961 . S
C525 H540 0.961 . S
C525 H541 0.961 1_554 S
C526 C527 1.370 . S
C526 C528 1.363 . S
C526 H542 0.931 . S
C527 C526 1.370 . S
C527 C531 1.408 . S
C528 C526 1.363 . S
C528 C529 1.370 . S
C528 C532 1.524 . S
C529 C521 1.503 . S
C529 C528 1.370 . S
C529 C530 1.403 1_554 S
C530 C529 1.403 1_556 S
C530 C531 1.404 1_556 S
C530 C533 1.539 . S
C531 C527 1.408 . S
C531 C530 1.404 1_554 S
C531 H543 0.930 1_554 S
C532 C528 1.524 . S
C532 H544 0.956 . S
C532 H545 0.961 . S
C532 H546 0.961 . S
C533 C530 1.539 . S
C533 H547 0.958 . S
C533 H548 0.961 . S
C533 H549 0.960 . S
H534 C518 0.931 . S
H535 C523 0.929 . S
H536 C524 0.960 . S
H537 C524 0.962 . S
H538 C524 0.960 . S
H539 C525 0.961 . S
H540 C525 0.961 . S
H541 C525 0.961 1_556 S
H542 C526 0.931 . S
H543 C531 0.930 1_556 S
H544 C532 0.956 . S
H545 C532 0.961 . S
H546 C532 0.961 . S
H547 C533 0.958 . S
H548 C533 0.961 . S
H549 C533 0.960 . S
C550 C551 1.391 . S
C550 C552 1.394 . S
C550 H566 0.931 . S
C551 C550 1.391 . S
C551 C555 1.376 . S
C552 C550 1.394 . S
C552 C553 1.369 . S
C552 C556 1.531 . S
C553 C552 1.369 . S
C553 C554 1.410 . S
C553 C561 1.503 . S
C554 C553 1.410 . S
C554 C555 1.392 . S
C554 C557 1.511 . S
C555 C551 1.376 . S
C555 C554 1.392 . S
C555 H567 0.929 . S
C556 C552 1.531 . S
C556 H568 0.960 . S
C556 H569 0.962 . S
C556 H570 0.960 . S
C557 C554 1.511 . S
C557 H571 0.961 . S
C557 H572 0.961 . S
C557 H573 0.961 . S
C558 C559 1.370 . S
C558 C560 1.363 . S
C558 H574 0.931 . S
C559 C558 1.370 . S
C559 C563 1.408 . S
C560 C558 1.363 . S
C560 C561 1.370 . S
C560 C564 1.524 . S
C561 C553 1.503 . S
C561 C560 1.370 . S
C561 C562 1.403 . S
C562 C561 1.403 . S
C562 C563 1.404 . S
C562 C565 1.539 1_554 S
C563 C559 1.408 . S
C563 C562 1.404 . S
C563 H575 0.930 . S
C564 C560 1.524 . S
C564 H576 0.956 . S
C564 H577 0.961 . S
C564 H578 0.961 . S
C565 C562 1.539 1_556 S
C565 H579 0.958 . S
C565 H580 0.961 . S
C565 H581 0.960 . S
H566 C550 0.931 . S
H567 C555 0.929 . S
H568 C556 0.960 . S
H569 C556 0.962 . S
H570 C556 0.960 . S
H571 C557 0.961 . S
H572 C557 0.961 . S
H573 C557 0.961 . S
H574 C558 0.931 . S
H575 C563 0.930 . S
H576 C564 0.956 . S
H577 C564 0.961 . S
H578 C564 0.961 . S
H579 C565 0.958 . S
H580 C565 0.961 . S
H581 C565 0.960 . S
C582 C583 1.391 . S
C582 C584 1.394 . S
C582 H598 0.931 . S
C583 C582 1.391 . S
C583 C587 1.376 . S
C584 C582 1.394 . S
C584 C585 1.369 . S
C584 C588 1.531 . S
C585 C584 1.369 . S
C585 C586 1.410 . S
C585 C593 1.503 . S
C586 C585 1.410 . S
C586 C587 1.392 . S
C586 C589 1.511 . S
C587 C583 1.376 . S
C587 C586 1.392 . S
C587 H599 0.929 . S
C588 C584 1.531 . S
C588 H600 0.960 . S
C588 H601 0.962 . S
C588 H602 0.960 . S
C589 C586 1.511 . S
C589 H603 0.961 . S
C589 H604 0.961 . S
C589 H605 0.961 . S
C590 C591 1.370 . S
C590 C592 1.363 . S
C590 H606 0.931 . S
C591 C590 1.370 . S
C591 C595 1.408 . S
C592 C590 1.363 . S
C592 C593 1.370 . S
C592 C596 1.524 . S
C593 C585 1.503 . S
C593 C592 1.370 . S
C593 C594 1.403 . S
C594 C593 1.403 . S
C594 C595 1.404 . S
C594 C597 1.539 1_554 S
C595 C591 1.408 . S
C595 C594 1.404 . S
C595 H607 0.930 . S
C596 C592 1.524 . S
C596 H608 0.956 . S
C596 H609 0.961 . S
C596 H610 0.961 . S
C597 C594 1.539 1_556 S
C597 H611 0.958 . S
C597 H612 0.961 . S
C597 H613 0.960 . S
H598 C582 0.931 . S
H599 C587 0.929 . S
H600 C588 0.960 . S
H601 C588 0.962 . S
H602 C588 0.960 . S
H603 C589 0.961 . S
H604 C589 0.961 . S
H605 C589 0.961 . S
H606 C590 0.931 . S
H607 C595 0.930 . S
H608 C596 0.956 . S
H609 C596 0.961 . S
H610 C596 0.961 . S
H611 C597 0.958 . S
H612 C597 0.961 . S
H613 C597 0.960 . S
C614 C615 1.391 . S
C614 C616 1.394 . S
C614 H630 0.931 . S
C615 C614 1.391 . S
C615 C619 1.376 . S
C616 C614 1.394 . S
C616 C617 1.369 . S
C616 C620 1.531 . S
C617 C616 1.369 . S
C617 C618 1.410 . S
C617 C625 1.503 . S
C618 C617 1.410 . S
C618 C619 1.392 . S
C618 C621 1.511 . S
C619 C615 1.376 . S
C619 C618 1.392 . S
C619 H631 0.929 . S
C620 C616 1.531 . S
C620 H632 0.960 . S
C620 H633 0.962 . S
C620 H634 0.960 1_554 S
C621 C618 1.511 . S
C621 H635 0.961 . S
C621 H636 0.961 . S
C621 H637 0.961 . S
C622 C623 1.370 . S
C622 C624 1.363 . S
C622 H638 0.931 . S
C623 C622 1.370 . S
C623 C627 1.408 . S
C624 C622 1.363 . S
C624 C625 1.370 . S
C624 C628 1.524 . S
C625 C617 1.503 . S
C625 C624 1.370 . S
C625 C626 1.403 . S
C626 C625 1.403 . S
C626 C627 1.404 . S
C626 C629 1.539 1_554 S
C627 C623 1.408 . S
C627 C626 1.404 . S
C627 H639 0.930 1_554 S
C628 C624 1.524 . S
C628 H640 0.956 . S
C628 H641 0.961 . S
C628 H642 0.961 . S
C629 C626 1.539 1_556 S
C629 H643 0.958 . S
C629 H644 0.961 . S
C629 H645 0.960 . S
H630 C614 0.931 . S
H631 C619 0.929 . S
H632 C620 0.960 . S
H633 C620 0.962 . S
H634 C620 0.960 1_556 S
H635 C621 0.961 . S
H636 C621 0.961 . S
H637 C621 0.961 . S
H638 C622 0.931 . S
H639 C627 0.930 1_556 S
H640 C628 0.956 . S
H641 C628 0.961 . S
H642 C628 0.961 . S
H643 C629 0.958 . S
H644 C629 0.961 . S
H645 C629 0.960 . S
C646 C647 1.391 1_556 S
C646 C648 1.394 . S
C646 H662 0.931 . S
C647 C646 1.391 1_554 S
C647 C651 1.376 . S
C648 C646 1.394 . S
C648 C649 1.369 1_556 S
C648 C652 1.531 . S
C649 C648 1.369 1_554 S
C649 C650 1.410 . S
C649 C657 1.503 . S
C650 C649 1.410 . S
C650 C651 1.392 . S
C650 C653 1.511 . S
C651 C647 1.376 . S
C651 C650 1.392 . S
C651 H663 0.929 . S
C652 C648 1.531 . S
C652 H664 0.960 . S
C652 H665 0.962 . S
C652 H666 0.960 . S
C653 C650 1.511 . S
C653 H667 0.961 . S
C653 H668 0.961 . S
C653 H669 0.961 . S
C654 C655 1.370 . S
C654 C656 1.363 . S
C654 H670 0.931 . S
C655 C654 1.370 . S
C655 C659 1.408 . S
C656 C654 1.363 . S
C656 C657 1.370 . S
C656 C660 1.524 . S
C657 C649 1.503 . S
C657 C656 1.370 . S
C657 C658 1.403 . S
C658 C657 1.403 . S
C658 C659 1.404 . S
C658 C661 1.539 1_554 S
C659 C655 1.408 . S
C659 C658 1.404 . S
C659 H671 0.930 1_554 S
C660 C656 1.524 . S
C660 H672 0.956 . S
C660 H673 0.961 . S
C660 H674 0.961 . S
C661 C658 1.539 1_556 S
C661 H675 0.958 . S
C661 H676 0.961 . S
C661 H677 0.960 . S
H662 C646 0.931 . S
H663 C651 0.929 . S
H664 C652 0.960 . S
H665 C652 0.962 . S
H666 C652 0.960 . S
H667 C653 0.961 . S
H668 C653 0.961 . S
H669 C653 0.961 . S
H670 C654 0.931 . S
H671 C659 0.930 1_556 S
H672 C660 0.956 . S
H673 C660 0.961 . S
H674 C660 0.961 . S
H675 C661 0.958 . S
H676 C661 0.961 . S
H677 C661 0.960 . S
C199 C18 0.976 . S
C207 C117 0.983 . S
C231 C150 0.842 . S
C239 C51 0.862 . S
C263 C183 0.972 . S
C271 C84 0.958 . S
C295 N13 1.460 . S
C303 N2 1.448 . S
C327 N46 1.479 . S
C335 N35 1.439 . S
C359 N68 1.473 . S
C367 N79 1.446 . S
C391 N112 1.431 . S
C399 N101 1.458 . S
C423 N134 1.424 . S
C431 N145 1.462 . S
C455 N178 1.475 . S
C463 N167 1.440 . S
C487 C21 0.803 . S
C495 C73 0.783 . S
C519 C54 0.705 . S
C527 C120 0.704 . S
C551 C87 0.660 . S
C559 C153 0.689 . S
C583 C106 0.889 . S
C591 C172 0.880 . S
C615 C7 0.910 . S
C623 C139 0.908 . S
C647 C40 0.839 . S
C655 C186 0.811 . S
