# Generated by pormake.
# Topology soe, (5)-cn, num edge types: 1
# Building blocks:
#     Node 0, Type 0, BuildingBlock: XOMCOT_clean_sbu_1, # of connection points: 5
#     Node 1, Type 0, BuildingBlock: XOMCOT_clean_sbu_1, # of connection points: 5
#     Node 2, Type 0, BuildingBlock: XOMCOT_clean_sbu_1, # of connection points: 5
#     Node 3, Type 0, BuildingBlock: XOMCOT_clean_sbu_1, # of connection points: 5
#     Node 4, Type 0, BuildingBlock: XOMCOT_clean_sbu_1, # of connection points: 5
#     Node 5, Type 0, BuildingBlock: XOMCOT_clean_sbu_1, # of connection points: 5
#     Node 6, Type 0, BuildingBlock: XOMCOT_clean_sbu_1, # of connection points: 5
#     Node 7, Type 0, BuildingBlock: XOMCOT_clean_sbu_1, # of connection points: 5
#     Edge 8, Type (0, 0), BuildingBlock: EYOCIG_clean_linker_4, # of connection points: 2
#     Edge 9, Type (0, 0), BuildingBlock: EYOCIG_clean_linker_4, # of connection points: 2
#     Edge 10, Type (0, 0), BuildingBlock: EYOCIG_clean_linker_4, # of connection points: 2
#     Edge 11, Type (0, 0), BuildingBlock: EYOCIG_clean_linker_4, # of connection points: 2
#     Edge 12, Type (0, 0), BuildingBlock: EYOCIG_clean_linker_4, # of connection points: 2
#     Edge 13, Type (0, 0), BuildingBlock: EYOCIG_clean_linker_4, # of connection points: 2
#     Edge 14, Type (0, 0), BuildingBlock: EYOCIG_clean_linker_4, # of connection points: 2
#     Edge 15, Type (0, 0), BuildingBlock: EYOCIG_clean_linker_4, # of connection points: 2
#     Edge 16, Type (0, 0), BuildingBlock: EYOCIG_clean_linker_4, # of connection points: 2
#     Edge 17, Type (0, 0), BuildingBlock: EYOCIG_clean_linker_4, # of connection points: 2
#     Edge 18, Type (0, 0), BuildingBlock: EYOCIG_clean_linker_4, # of connection points: 2
#     Edge 19, Type (0, 0), BuildingBlock: EYOCIG_clean_linker_4, # of connection points: 2
#     Edge 20, Type (0, 0), BuildingBlock: EYOCIG_clean_linker_4, # of connection points: 2
#     Edge 21, Type (0, 0), BuildingBlock: EYOCIG_clean_linker_4, # of connection points: 2
#     Edge 22, Type (0, 0), BuildingBlock: EYOCIG_clean_linker_4, # of connection points: 2
#     Edge 23, Type (0, 0), BuildingBlock: EYOCIG_clean_linker_4, # of connection points: 2
#     Edge 24, Type (0, 0), BuildingBlock: EYOCIG_clean_linker_4, # of connection points: 2
#     Edge 25, Type (0, 0), BuildingBlock: EYOCIG_clean_linker_4, # of connection points: 2
#     Edge 26, Type (0, 0), BuildingBlock: EYOCIG_clean_linker_4, # of connection points: 2
#     Edge 27, Type (0, 0), BuildingBlock: EYOCIG_clean_linker_4, # of connection points: 2
# Relax obj value: 0.053
# Max RMSD: 0.084
# Mean RMSD: 0.084
data_MOF--net-soe--node1-XOMCOT_clean_sbu_1--edge1-EYOCIG_clean_linker_4
_symmetry_space_group_name_H-M    P1
_symmetry_Int_Tables_number       1
_symmetry_cell_setting            triclinic
loop_
_symmetry_equiv_pos_as_xyz
'x, y, z'
_cell_length_a     45.557922
_cell_length_b     37.917114
_cell_length_c     14.547345
_cell_angle_alpha  90.008006
_cell_angle_beta   90.01645
_cell_angle_gamma 90.013568
loop_
_atom_site_label
_atom_site_type_symbol
_atom_site_fract_x
_atom_site_fract_y
_atom_site_fract_z
_atom_type_partial_charge
C0 C 0.13759 0.1489 0.99428 0.0
C1 C 0.13789 0.1526 0.90004 0.0
N2 N 0.11455 0.1354 0.86589 0.0
N3 N 0.11414 0.1294 0.01956 0.0
C4 C 0.10032 0.12176 0.93921 0.0
H5 H 0.15422 0.1584 0.04121 0.0
Co6 Co 0.10787 0.11379 0.14135 0.0
C7 C 0.07179 0.0486 0.08301 0.0
O8 O 0.0931 0.02612 0.09795 0.0
N9 N 0.1016 0.099 0.26556 0.0
C10 C 0.09382 0.06707 0.39244 0.0
C11 C 0.09518 0.06643 0.29796 0.0
C12 C 0.10423 0.11891 0.34292 0.0
N13 N 0.0995 0.10005 0.42028 0.0
O14 O 0.07997 0.1521 0.16059 0.0
H15 H 0.09254 0.0431 0.25701 0.0
H16 H 0.11027 0.14648 0.34301 0.0
O17 O 0.07542 0.08174 0.09806 0.0
C18 C 0.09307 0.18071 0.18315 0.0
O19 O 0.12185 0.18092 0.18674 0.0
N20 N 0.13845 0.07974 0.12573 0.0
C21 C 0.1921 0.04468 0.10191 0.0
C22 C 0.17037 0.043 0.034 0.0
C23 C 0.14379 0.06117 0.04664 0.0
C24 C 0.15979 0.08162 0.19169 0.0
C25 C 0.1865 0.0639 0.18179 0.0
H26 H 0.12795 0.06112 0.99141 0.0
H27 H 0.15695 0.09854 0.25073 0.0
H28 H 0.08117 0.10501 0.9338 0.0
H29 H 0.15463 0.16559 0.85945 0.0
H30 H 0.08964 0.04486 0.43735 0.0
H31 H 0.17423 0.02881 0.97051 0.0
H32 H 0.20308 0.06637 0.23483 0.0
C33 C 0.38188 0.86935 0.9947 0.0
C34 C 0.38157 0.86567 0.90044 0.0
N35 N 0.40484 0.88299 0.86632 0.0
N36 N 0.40526 0.88896 0.02001 0.0
C37 C 0.41905 0.89667 0.93967 0.0
H38 H 0.36528 0.85977 0.0416 0.0
Co39 Co 0.41151 0.90461 0.14182 0.0
C40 C 0.44751 0.96986 0.08344 0.0
O41 O 0.42618 0.99232 0.09832 0.0
N42 N 0.41775 0.91944 0.26603 0.0
C43 C 0.42548 0.95142 0.39288 0.0
C44 C 0.42413 0.95203 0.2984 0.0
C45 C 0.41512 0.89955 0.34341 0.0
N46 N 0.41982 0.91845 0.42076 0.0
O47 O 0.43946 0.86636 0.16115 0.0
H48 H 0.42676 0.97535 0.25742 0.0
H49 H 0.4091 0.87198 0.34352 0.0
O50 O 0.44391 0.93672 0.09855 0.0
C51 C 0.4264 0.83773 0.18376 0.0
O52 O 0.39763 0.83747 0.18735 0.0
N53 N 0.38087 0.93858 0.12611 0.0
C54 C 0.32714 0.97347 0.10214 0.0
C55 C 0.34889 0.97522 0.03431 0.0
C56 C 0.37551 0.95715 0.04702 0.0
C57 C 0.35951 0.93661 0.19197 0.0
C58 C 0.33277 0.95425 0.182 0.0
H59 H 0.39136 0.95725 0.99186 0.0
H60 H 0.36239 0.9197 0.25099 0.0
H61 H 0.43814 0.91352 0.93428 0.0
H62 H 0.36486 0.85262 0.85983 0.0
H63 H 0.42964 0.97365 0.43777 0.0
H64 H 0.34501 0.98942 0.97084 0.0
H65 H 0.31618 0.95171 0.23497 0.0
C66 C 0.13774 0.3692 0.52554 0.0
C67 C 0.13807 0.36552 0.61979 0.0
N68 N 0.11481 0.38284 0.65397 0.0
N69 N 0.11435 0.3888 0.50029 0.0
C70 C 0.10059 0.39652 0.58066 0.0
H71 H 0.15433 0.35964 0.4786 0.0
Co72 Co 0.10813 0.40447 0.37851 0.0
C73 C 0.07208 0.46967 0.43682 0.0
O74 O 0.09341 0.49215 0.42202 0.0
N75 N 0.10192 0.41932 0.2543 0.0
C76 C 0.0942 0.45129 0.12745 0.0
C77 C 0.09553 0.4519 0.22195 0.0
C78 C 0.1046 0.39944 0.17691 0.0
N79 N 0.09989 0.41833 0.09957 0.0
O80 O 0.08019 0.36621 0.35902 0.0
H81 H 0.09286 0.47521 0.26293 0.0
H82 H 0.11063 0.37188 0.17679 0.0
O83 O 0.0757 0.43653 0.42173 0.0
C84 C 0.09324 0.33758 0.33638 0.0
O85 O 0.12202 0.33731 0.33285 0.0
N86 N 0.13874 0.43848 0.39439 0.0
C87 C 0.19243 0.47344 0.41867 0.0
C88 C 0.17065 0.47516 0.4864 0.0
C89 C 0.14405 0.45705 0.47353 0.0
C90 C 0.16013 0.43655 0.32862 0.0
C91 C 0.18685 0.45423 0.33875 0.0
H92 H 0.12818 0.45712 0.52862 0.0
H93 H 0.15729 0.41965 0.26956 0.0
H94 H 0.08151 0.41337 0.58609 0.0
H95 H 0.15479 0.35248 0.66035 0.0
H96 H 0.09003 0.47352 0.08257 0.0
H97 H 0.17449 0.48936 0.54991 0.0
H98 H 0.20347 0.45173 0.28586 0.0
C99 C 0.38197 0.64911 0.52585 0.0
C100 C 0.38166 0.65281 0.6201 0.0
N101 N 0.40496 0.63557 0.65428 0.0
N102 N 0.40539 0.62957 0.50061 0.0
C103 C 0.4192 0.62192 0.58097 0.0
H104 H 0.36536 0.65862 0.47891 0.0
Co105 Co 0.41163 0.61393 0.37882 0.0
C106 C 0.44771 0.54874 0.43698 0.0
O107 O 0.42638 0.52626 0.4221 0.0
N108 N 0.41784 0.59911 0.25459 0.0
C109 C 0.42555 0.56717 0.12768 0.0
C110 C 0.42422 0.56653 0.22216 0.0
C111 C 0.41519 0.61902 0.17725 0.0
N112 N 0.41989 0.60014 0.09987 0.0
O113 O 0.43953 0.65224 0.35942 0.0
H114 H 0.42686 0.54321 0.26308 0.0
H115 H 0.40917 0.64658 0.17718 0.0
O116 O 0.44409 0.58188 0.422 0.0
C117 C 0.42644 0.68086 0.33688 0.0
O118 O 0.39767 0.68109 0.33336 0.0
N119 N 0.38105 0.57987 0.39462 0.0
C120 C 0.32741 0.54479 0.41879 0.0
C121 C 0.34919 0.54314 0.48658 0.0
C122 C 0.37575 0.56131 0.47377 0.0
C123 C 0.35967 0.58173 0.32878 0.0
C124 C 0.33297 0.56399 0.33886 0.0
H125 H 0.39163 0.56128 0.52889 0.0
H126 H 0.36248 0.59862 0.26971 0.0
H127 H 0.43831 0.60513 0.58641 0.0
H128 H 0.36492 0.66581 0.66066 0.0
H129 H 0.42971 0.54495 0.08275 0.0
H130 H 0.34537 0.52896 0.5501 0.0
H131 H 0.31635 0.56644 0.28592 0.0
C132 C 0.88177 0.86924 0.02527 0.0
C133 C 0.88143 0.86556 0.11951 0.0
N134 N 0.90473 0.88279 0.15374 0.0
N135 N 0.90521 0.88876 1.00007 0.0
C136 C 0.919 0.89642 0.08046 0.0
H137 H 0.86515 0.85973 0.97829 0.0
Co138 Co 0.91147 0.90441 0.8783 0.0
C139 C 0.94755 0.9696 0.9367 0.0
O140 O 0.92624 0.99208 0.92175 0.0
N141 N 0.91771 0.91925 0.7541 0.0
C142 C 0.92552 0.95117 0.62724 0.0
C143 C 0.9242 0.9518 0.72173 0.0
C144 C 0.91499 0.89936 0.67673 0.0
N145 N 0.91974 0.91823 0.59937 0.0
O146 O 0.93938 0.86613 0.85892 0.0
H147 H 0.92694 0.9751 0.76269 0.0
H148 H 0.90889 0.87182 0.67662 0.0
O149 O 0.94392 0.93645 0.92163 0.0
C150 C 0.9263 0.83751 0.83628 0.0
O151 O 0.89752 0.83726 0.83272 0.0
N152 N 0.88089 0.93844 0.89407 0.0
C153 C 0.8272 0.97334 0.91834 0.0
C154 C 0.84898 0.97507 0.98609 0.0
C155 C 0.87558 0.95699 0.97323 0.0
C156 C 0.85951 0.93653 0.82824 0.0
C157 C 0.83278 0.95417 0.83837 0.0
H158 H 0.89146 0.95706 0.02834 0.0
H159 H 0.86235 0.91964 0.76915 0.0
H160 H 0.93812 0.91321 0.08593 0.0
H161 H 0.86467 0.85257 0.16004 0.0
H162 H 0.92975 0.97338 0.58235 0.0
H163 H 0.84514 0.98924 0.04964 0.0
H164 H 0.81616 0.95167 0.78545 0.0
C165 C 0.63784 0.14871 0.02522 0.0
C166 C 0.6382 0.15237 0.11948 0.0
N167 N 0.61487 0.1352 0.15366 0.0
N168 N 0.61436 0.12925 0.99997 0.0
C169 C 0.60057 0.12162 0.08034 0.0
H170 H 0.65447 0.15817 0.97828 0.0
Co171 Co 0.60806 0.11361 0.87819 0.0
C172 C 0.57177 0.04859 0.93655 0.0
O173 O 0.59301 0.02602 0.92162 0.0
N174 N 0.60178 0.09878 0.75398 0.0
C175 C 0.59394 0.06685 0.62711 0.0
C176 C 0.59525 0.06624 0.72161 0.0
C177 C 0.60454 0.11865 0.67659 0.0
N178 N 0.59977 0.09977 0.59924 0.0
O179 O 0.58028 0.15204 0.85871 0.0
H180 H 0.59248 0.04295 0.76258 0.0
H181 H 0.61069 0.14617 0.67648 0.0
O182 O 0.57551 0.08172 0.92147 0.0
C183 C 0.59345 0.18059 0.83606 0.0
O184 O 0.62223 0.18069 0.83254 0.0
N185 N 0.63853 0.07945 0.89403 0.0
C186 C 0.69214 0.04434 0.91837 0.0
C187 C 0.67034 0.04268 0.98608 0.0
C188 C 0.64379 0.06087 0.97318 0.0
C189 C 0.65992 0.08128 0.82825 0.0
C190 C 0.6866 0.06353 0.83841 0.0
H191 H 0.62791 0.06086 0.02826 0.0
H192 H 0.65713 0.09819 0.76919 0.0
H193 H 0.58142 0.10488 0.08578 0.0
H194 H 0.65498 0.16531 0.16004 0.0
H195 H 0.58969 0.04464 0.58222 0.0
H196 H 0.67415 0.0285 0.04962 0.0
H197 H 0.70323 0.06598 0.78554 0.0
C198 C 0.88199 0.64885 0.49374 0.0
C199 C 0.88167 0.65252 0.39949 0.0
N200 N 0.905 0.63532 0.36538 0.0
N201 N 0.90544 0.62937 0.51906 0.0
C202 C 0.91925 0.62172 0.43873 0.0
H203 H 0.86535 0.65833 0.54063 0.0
Co204 Co 0.91169 0.61373 0.64086 0.0
C205 C 0.94779 0.54857 0.58257 0.0
O206 O 0.92647 0.52607 0.59734 0.0
N207 N 0.91792 0.59891 0.76507 0.0
C208 C 0.92561 0.56693 0.89191 0.0
C209 C 0.92427 0.56631 0.79742 0.0
C210 C 0.9153 0.6188 0.84245 0.0
N211 N 0.91999 0.5999 0.91979 0.0
O212 O 0.93958 0.65205 0.66029 0.0
H213 H 0.92687 0.54299 0.75643 0.0
H214 H 0.90931 0.64638 0.84259 0.0
O215 O 0.94414 0.58171 0.59766 0.0
C216 C 0.92646 0.68064 0.68285 0.0
O217 O 0.89768 0.68081 0.68633 0.0
N218 N 0.8811 0.57969 0.62503 0.0
C219 C 0.82738 0.54482 0.6007 0.0
C220 C 0.84917 0.54306 0.53299 0.0
C221 C 0.87578 0.56113 0.54589 0.0
C222 C 0.85972 0.58164 0.69081 0.0
C223 C 0.83298 0.56401 0.68065 0.0
H224 H 0.89166 0.56105 0.4908 0.0
H225 H 0.86257 0.59854 0.74987 0.0
H226 H 0.93839 0.60497 0.43336 0.0
H227 H 0.86492 0.66547 0.35887 0.0
H228 H 0.92974 0.54469 0.93678 0.0
H229 H 0.84532 0.52889 0.46946 0.0
H230 H 0.81636 0.56654 0.73352 0.0
C231 C 0.638 0.36955 0.49374 0.0
C232 C 0.63837 0.36586 0.39949 0.0
N233 N 0.61501 0.38298 0.36523 0.0
N234 N 0.61449 0.38895 0.51891 0.0
C235 C 0.60069 0.39654 0.4385 0.0
H236 H 0.65463 0.36013 0.54074 0.0
Co237 Co 0.60818 0.40458 0.64068 0.0
C238 C 0.57197 0.46964 0.58236 0.0
O239 O 0.59324 0.49217 0.59743 0.0
N240 N 0.60188 0.41937 0.76489 0.0
C241 C 0.59388 0.4512 0.89183 0.0
C242 C 0.59518 0.45185 0.79734 0.0
C243 C 0.60474 0.3995 0.84223 0.0
N244 N 0.59988 0.41831 0.91963 0.0
O245 O 0.58038 0.36615 0.66002 0.0
H246 H 0.59226 0.47513 0.75644 0.0
H247 H 0.61102 0.37202 0.84227 0.0
O248 O 0.57565 0.4365 0.59735 0.0
C249 C 0.59353 0.33759 0.68265 0.0
O250 O 0.62231 0.33746 0.68619 0.0
N251 N 0.63867 0.43876 0.62496 0.0
C252 C 0.69227 0.47389 0.6007 0.0
C253 C 0.6705 0.47549 0.5329 0.0
C254 C 0.64394 0.45729 0.54577 0.0
C255 C 0.66003 0.43699 0.69086 0.0
C256 C 0.68671 0.45475 0.68073 0.0
H257 H 0.62808 0.45727 0.49062 0.0
H258 H 0.65723 0.42012 0.74998 0.0
H259 H 0.58152 0.41323 0.433 0.0
H260 H 0.65516 0.35296 0.35899 0.0
H261 H 0.58949 0.47335 0.93677 0.0
H262 H 0.67432 0.48963 0.46931 0.0
H263 H 0.70333 0.45234 0.73369 0.0
C264 C 0.27409 1.00201 0.08434 0.0
C265 C 0.29854 0.98954 0.08908 0.0
C266 C 0.24512 0.01602 0.08427 0.0
C267 C 0.22068 0.02854 0.08891 0.0
C268 C 0.24546 0.50206 0.43668 0.0
C269 C 0.22101 0.48956 0.43188 0.0
C270 C 0.27441 0.5161 0.43671 0.0
C271 C 0.29885 0.52863 0.43197 0.0
C272 C 0.74515 0.01575 0.93647 0.0
C273 C 0.72071 0.02823 0.9317 0.0
C274 C 0.77413 1.00181 0.93643 0.0
C275 C 0.7986 0.98937 0.93161 0.0
C276 C 0.77429 0.51639 0.5826 0.0
C277 C 0.79877 0.52881 0.58741 0.0
C278 C 0.7453 0.50246 0.5826 0.0
C279 C 0.72085 0.48998 0.58739 0.0
C280 C 0.99723 0.99918 0.99469 0.0
C281 C 0.97545 0.98357 0.96845 0.0
C282 C 0.02212 0.019 0.02504 0.0
C283 C 0.04389 0.03461 0.05127 0.0
C284 C 0.49716 0.99945 0.02527 0.0
C285 C 0.47539 0.98386 0.05159 0.0
C286 C 0.52205 0.01921 0.99477 0.0
C287 C 0.54385 0.03475 0.96843 0.0
C288 C 0.02239 0.49925 0.49459 0.0
C289 C 0.04418 0.48365 0.46845 0.0
C290 C 0.99749 0.51903 0.52484 0.0
C291 C 0.9757 0.53462 0.55097 0.0
C292 C 0.49739 0.51907 0.49453 0.0
C293 C 0.47562 0.53473 0.4685 0.0
C294 C 0.52227 0.49921 0.52467 0.0
C295 C 0.54405 0.48358 0.55075 0.0
C296 C 0.10526 0.12496 0.68993 0.0
C297 C 0.10892 0.12928 0.77182 0.0
C298 C 0.10282 0.11866 0.59364 0.0
C299 C 0.10152 0.11125 0.51257 0.0
C300 C 0.4165 0.89985 0.59412 0.0
C301 C 0.41781 0.90726 0.51305 0.0
C302 C 0.41408 0.89352 0.69039 0.0
C303 C 0.41043 0.88916 0.77226 0.0
C304 C 0.10563 0.39339 0.82993 0.0
C305 C 0.10925 0.38902 0.74804 0.0
C306 C 0.10322 0.39973 0.9262 0.0
C307 C 0.10191 0.40714 1.00727 0.0
C308 C 0.41658 0.61877 0.92653 0.0
C309 C 0.41788 0.61136 1.00759 0.0
C310 C 0.41418 0.62509 0.83025 0.0
C311 C 0.41055 0.62943 0.74835 0.0
C312 C 0.91394 0.8933 0.32972 0.0
C313 C 0.91031 0.88895 0.24783 0.0
C314 C 0.91636 0.89962 0.426 0.0
C315 C 0.91769 0.90703 0.50708 0.0
C316 C 0.60321 0.11835 0.42588 0.0
C317 C 0.60185 0.11095 0.50694 0.0
C318 C 0.60565 0.12468 0.32961 0.0
C319 C 0.60928 0.12904 0.24773 0.0
C320 C 0.91426 0.62482 0.18944 0.0
C321 C 0.91061 0.62917 0.27132 0.0
C322 C 0.91668 0.6185 0.09317 0.0
C323 C 0.91798 0.61109 0.01209 0.0
C324 C 0.60579 0.39341 0.18924 0.0
C325 C 0.60942 0.38909 0.27114 0.0
C326 C 0.60336 0.39971 0.09296 0.0
C327 C 0.60199 0.40711 0.0119 0.0
C328 C 0.07213 0.24161 0.24183 0.0
C329 C 0.07782 0.21226 0.21324 0.0
C330 C 0.07217 0.27674 0.27755 0.0
C331 C 0.07793 0.30608 0.3062 0.0
C332 C 0.44743 0.77687 0.24247 0.0
C333 C 0.4417 0.80622 0.21386 0.0
C334 C 0.44743 0.74174 0.27815 0.0
C335 C 0.44172 0.71239 0.30676 0.0
C336 C 0.94733 0.77666 0.77747 0.0
C337 C 0.94158 0.806 0.80612 0.0
C338 C 0.94737 0.74154 0.74172 0.0
C339 C 0.94169 0.71219 0.71305 0.0
C340 C 0.57262 0.24153 0.77718 0.0
C341 C 0.57828 0.21217 0.80585 0.0
C342 C 0.57264 0.27665 0.74144 0.0
C343 C 0.57832 0.30601 0.7128 0.0
loop_
_geom_bond_atom_site_label_1
_geom_bond_atom_site_label_2
_geom_bond_distance
_geom_bond_site_symmetry_2
_ccdc_geom_bond_type
C0 C1 1.351 . S
C0 N3 1.368 . S
C0 H5 0.931 . S
C1 C0 1.351 . S
C1 N2 1.373 . S
C1 H29 0.930 . S
N2 C1 1.373 . S
N2 C4 1.340 . S
N3 C0 1.368 . S
N3 C4 1.321 . S
N3 Co6 2.135 1_556 S
C4 N2 1.340 . S
C4 N3 1.321 . S
C4 H28 0.930 . S
H5 C0 0.931 . S
Co6 N3 2.135 1_554 S
Co6 N9 2.121 . S
Co6 O14 2.055 . S
Co6 O17 2.039 . S
Co6 N20 2.140 . S
C7 O8 1.227 . S
C7 O17 1.265 . S
O8 C7 1.227 . S
N9 Co6 2.121 . S
N9 C11 1.375 . S
N9 C12 1.313 . S
C10 C11 1.338 . S
C10 N13 1.377 . S
C10 H30 0.930 . S
C11 N9 1.375 . S
C11 C10 1.338 . S
C11 H15 0.931 . S
C12 N9 1.313 . S
C12 N13 1.344 . S
C12 H16 0.930 . S
N13 C10 1.377 . S
N13 C12 1.344 . S
O14 Co6 2.055 . S
O14 C18 1.253 . S
H15 C11 0.931 . S
H16 C12 0.930 . S
O17 Co6 2.039 . S
O17 C7 1.265 . S
C18 O14 1.253 . S
C18 O19 1.227 . S
O19 C18 1.227 . S
N20 Co6 2.140 . S
N20 C23 1.346 . S
N20 C24 1.345 . S
C21 C22 1.387 . S
C21 C25 1.391 . S
C22 C21 1.387 . S
C22 C23 1.369 . S
C22 H31 0.929 1_554 S
C23 N20 1.346 . S
C23 C22 1.369 . S
C23 H26 0.928 1_554 S
C24 N20 1.345 . S
C24 C25 1.371 . S
C24 H27 0.931 . S
C25 C21 1.391 . S
C25 C24 1.371 . S
C25 H32 0.930 . S
H26 C23 0.928 1_556 S
H27 C24 0.931 . S
H28 C4 0.930 . S
H29 C1 0.930 . S
H30 C10 0.930 . S
H31 C22 0.929 1_556 S
H32 C25 0.930 . S
C33 C34 1.351 . S
C33 N36 1.368 . S
C33 H38 0.931 . S
C34 C33 1.351 . S
C34 N35 1.373 . S
C34 H62 0.930 . S
N35 C34 1.373 . S
N35 C37 1.340 . S
N36 C33 1.368 . S
N36 C37 1.321 . S
N36 Co39 2.135 1_556 S
C37 N35 1.340 . S
C37 N36 1.321 . S
C37 H61 0.930 . S
H38 C33 0.931 . S
Co39 N36 2.135 1_554 S
Co39 N42 2.121 . S
Co39 O47 2.055 . S
Co39 O50 2.039 . S
Co39 N53 2.140 . S
C40 O41 1.227 . S
C40 O50 1.265 . S
O41 C40 1.227 . S
N42 Co39 2.121 . S
N42 C44 1.375 . S
N42 C45 1.313 . S
C43 C44 1.338 . S
C43 N46 1.377 . S
C43 H63 0.930 . S
C44 N42 1.375 . S
C44 C43 1.338 . S
C44 H48 0.931 . S
C45 N42 1.313 . S
C45 N46 1.344 . S
C45 H49 0.930 . S
N46 C43 1.377 . S
N46 C45 1.344 . S
O47 Co39 2.055 . S
O47 C51 1.253 . S
H48 C44 0.931 . S
H49 C45 0.930 . S
O50 Co39 2.039 . S
O50 C40 1.265 . S
C51 O47 1.253 . S
C51 O52 1.227 . S
O52 C51 1.227 . S
N53 Co39 2.140 . S
N53 C56 1.346 . S
N53 C57 1.345 . S
C54 C55 1.387 . S
C54 C58 1.391 . S
C55 C54 1.387 . S
C55 C56 1.369 . S
C55 H64 0.929 1_554 S
C56 N53 1.346 . S
C56 C55 1.369 . S
C56 H59 0.928 1_554 S
C57 N53 1.345 . S
C57 C58 1.371 . S
C57 H60 0.931 . S
C58 C54 1.391 . S
C58 C57 1.371 . S
C58 H65 0.930 . S
H59 C56 0.928 1_556 S
H60 C57 0.931 . S
H61 C37 0.930 . S
H62 C34 0.930 . S
H63 C43 0.930 . S
H64 C55 0.929 1_556 S
H65 C58 0.930 . S
C66 C67 1.351 . S
C66 N69 1.368 . S
C66 H71 0.931 . S
C67 C66 1.351 . S
C67 N68 1.373 . S
C67 H95 0.930 . S
N68 C67 1.373 . S
N68 C70 1.340 . S
N69 C66 1.368 . S
N69 C70 1.321 . S
N69 Co72 2.135 . S
C70 N68 1.340 . S
C70 N69 1.321 . S
C70 H94 0.930 . S
H71 C66 0.931 . S
Co72 N69 2.135 . S
Co72 N75 2.121 . S
Co72 O80 2.055 . S
Co72 O83 2.039 . S
Co72 N86 2.140 . S
C73 O74 1.227 . S
C73 O83 1.265 . S
O74 C73 1.227 . S
N75 Co72 2.121 . S
N75 C77 1.375 . S
N75 C78 1.313 . S
C76 C77 1.338 . S
C76 N79 1.377 . S
C76 H96 0.930 . S
C77 N75 1.375 . S
C77 C76 1.338 . S
C77 H81 0.931 . S
C78 N75 1.313 . S
C78 N79 1.344 . S
C78 H82 0.930 . S
N79 C76 1.377 . S
N79 C78 1.344 . S
O80 Co72 2.055 . S
O80 C84 1.253 . S
H81 C77 0.931 . S
H82 C78 0.930 . S
O83 Co72 2.039 . S
O83 C73 1.265 . S
C84 O80 1.253 . S
C84 O85 1.227 . S
O85 C84 1.227 . S
N86 Co72 2.140 . S
N86 C89 1.346 . S
N86 C90 1.345 . S
C87 C88 1.387 . S
C87 C91 1.391 . S
C88 C87 1.387 . S
C88 C89 1.369 . S
C88 H97 0.929 . S
C89 N86 1.346 . S
C89 C88 1.369 . S
C89 H92 0.928 . S
C90 N86 1.345 . S
C90 C91 1.371 . S
C90 H93 0.931 . S
C91 C87 1.391 . S
C91 C90 1.371 . S
C91 H98 0.930 . S
H92 C89 0.928 . S
H93 C90 0.931 . S
H94 C70 0.930 . S
H95 C67 0.930 . S
H96 C76 0.930 . S
H97 C88 0.929 . S
H98 C91 0.930 . S
C99 C100 1.351 . S
C99 N102 1.368 . S
C99 H104 0.931 . S
C100 C99 1.351 . S
C100 N101 1.373 . S
C100 H128 0.930 . S
N101 C100 1.373 . S
N101 C103 1.340 . S
N102 C99 1.368 . S
N102 C103 1.321 . S
N102 Co105 2.135 . S
C103 N101 1.340 . S
C103 N102 1.321 . S
C103 H127 0.930 . S
H104 C99 0.931 . S
Co105 N102 2.135 . S
Co105 N108 2.121 . S
Co105 O113 2.055 . S
Co105 O116 2.039 . S
Co105 N119 2.140 . S
C106 O107 1.227 . S
C106 O116 1.265 . S
O107 C106 1.227 . S
N108 Co105 2.121 . S
N108 C110 1.375 . S
N108 C111 1.313 . S
C109 C110 1.338 . S
C109 N112 1.377 . S
C109 H129 0.930 . S
C110 N108 1.375 . S
C110 C109 1.338 . S
C110 H114 0.931 . S
C111 N108 1.313 . S
C111 N112 1.344 . S
C111 H115 0.930 . S
N112 C109 1.377 . S
N112 C111 1.344 . S
O113 Co105 2.055 . S
O113 C117 1.253 . S
H114 C110 0.931 . S
H115 C111 0.930 . S
O116 Co105 2.039 . S
O116 C106 1.265 . S
C117 O113 1.253 . S
C117 O118 1.227 . S
O118 C117 1.227 . S
N119 Co105 2.140 . S
N119 C122 1.346 . S
N119 C123 1.345 . S
C120 C121 1.387 . S
C120 C124 1.391 . S
C121 C120 1.387 . S
C121 C122 1.369 . S
C121 H130 0.929 . S
C122 N119 1.346 . S
C122 C121 1.369 . S
C122 H125 0.928 . S
C123 N119 1.345 . S
C123 C124 1.371 . S
C123 H126 0.931 . S
C124 C120 1.391 . S
C124 C123 1.371 . S
C124 H131 0.930 . S
H125 C122 0.928 . S
H126 C123 0.931 . S
H127 C103 0.930 . S
H128 C100 0.930 . S
H129 C109 0.930 . S
H130 C121 0.929 . S
H131 C124 0.930 . S
C132 C133 1.351 . S
C132 N135 1.368 . S
C132 H137 0.931 . S
C133 C132 1.351 . S
C133 N134 1.373 . S
C133 H161 0.930 . S
N134 C133 1.373 . S
N134 C136 1.340 . S
N135 C132 1.368 . S
N135 C136 1.321 . S
N135 Co138 2.135 1_554 S
C136 N134 1.340 . S
C136 N135 1.321 . S
C136 H160 0.930 . S
H137 C132 0.931 . S
Co138 N135 2.135 1_556 S
Co138 N141 2.121 . S
Co138 O146 2.055 . S
Co138 O149 2.039 . S
Co138 N152 2.140 . S
C139 O140 1.227 . S
C139 O149 1.265 . S
O140 C139 1.227 . S
N141 Co138 2.121 . S
N141 C143 1.375 . S
N141 C144 1.313 . S
C142 C143 1.338 . S
C142 N145 1.377 . S
C142 H162 0.930 . S
C143 N141 1.375 . S
C143 C142 1.338 . S
C143 H147 0.931 . S
C144 N141 1.313 . S
C144 N145 1.344 . S
C144 H148 0.930 . S
N145 C142 1.377 . S
N145 C144 1.344 . S
O146 Co138 2.055 . S
O146 C150 1.253 . S
H147 C143 0.931 . S
H148 C144 0.930 . S
O149 Co138 2.039 . S
O149 C139 1.265 . S
C150 O146 1.253 . S
C150 O151 1.227 . S
O151 C150 1.227 . S
N152 Co138 2.140 . S
N152 C155 1.346 . S
N152 C156 1.345 . S
C153 C154 1.387 . S
C153 C157 1.391 . S
C154 C153 1.387 . S
C154 C155 1.369 . S
C154 H163 0.929 1_556 S
C155 N152 1.346 . S
C155 C154 1.369 . S
C155 H158 0.928 1_556 S
C156 N152 1.345 . S
C156 C157 1.371 . S
C156 H159 0.931 . S
C157 C153 1.391 . S
C157 C156 1.371 . S
C157 H164 0.930 . S
H158 C155 0.928 1_554 S
H159 C156 0.931 . S
H160 C136 0.930 . S
H161 C133 0.930 . S
H162 C142 0.930 . S
H163 C154 0.929 1_554 S
H164 C157 0.930 . S
C165 C166 1.351 . S
C165 N168 1.368 . S
C165 H170 0.931 . S
C166 C165 1.351 . S
C166 N167 1.373 . S
C166 H194 0.930 . S
N167 C166 1.373 . S
N167 C169 1.340 . S
N168 C165 1.368 . S
N168 C169 1.321 . S
N168 Co171 2.135 1_554 S
C169 N167 1.340 . S
C169 N168 1.321 . S
C169 H193 0.930 . S
H170 C165 0.931 . S
Co171 N168 2.135 1_556 S
Co171 N174 2.121 . S
Co171 O179 2.055 . S
Co171 O182 2.039 . S
Co171 N185 2.140 . S
C172 O173 1.227 . S
C172 O182 1.265 . S
O173 C172 1.227 . S
N174 Co171 2.121 . S
N174 C176 1.375 . S
N174 C177 1.313 . S
C175 C176 1.338 . S
C175 N178 1.377 . S
C175 H195 0.930 . S
C176 N174 1.375 . S
C176 C175 1.338 . S
C176 H180 0.931 . S
C177 N174 1.313 . S
C177 N178 1.344 . S
C177 H181 0.930 . S
N178 C175 1.377 . S
N178 C177 1.344 . S
O179 Co171 2.055 . S
O179 C183 1.253 . S
H180 C176 0.931 . S
H181 C177 0.930 . S
O182 Co171 2.039 . S
O182 C172 1.265 . S
C183 O179 1.253 . S
C183 O184 1.227 . S
O184 C183 1.227 . S
N185 Co171 2.140 . S
N185 C188 1.346 . S
N185 C189 1.345 . S
C186 C187 1.387 . S
C186 C190 1.391 . S
C187 C186 1.387 . S
C187 C188 1.369 . S
C187 H196 0.929 1_556 S
C188 N185 1.346 . S
C188 C187 1.369 . S
C188 H191 0.928 1_556 S
C189 N185 1.345 . S
C189 C190 1.371 . S
C189 H192 0.931 . S
C190 C186 1.391 . S
C190 C189 1.371 . S
C190 H197 0.930 . S
H191 C188 0.928 1_554 S
H192 C189 0.931 . S
H193 C169 0.930 . S
H194 C166 0.930 . S
H195 C175 0.930 . S
H196 C187 0.929 1_554 S
H197 C190 0.930 . S
C198 C199 1.351 . S
C198 N201 1.368 . S
C198 H203 0.931 . S
C199 C198 1.351 . S
C199 N200 1.373 . S
C199 H227 0.930 . S
N200 C199 1.373 . S
N200 C202 1.340 . S
N201 C198 1.368 . S
N201 C202 1.321 . S
N201 Co204 2.135 . S
C202 N200 1.340 . S
C202 N201 1.321 . S
C202 H226 0.930 . S
H203 C198 0.931 . S
Co204 N201 2.135 . S
Co204 N207 2.121 . S
Co204 O212 2.055 . S
Co204 O215 2.039 . S
Co204 N218 2.140 . S
C205 O206 1.227 . S
C205 O215 1.265 . S
O206 C205 1.227 . S
N207 Co204 2.121 . S
N207 C209 1.375 . S
N207 C210 1.313 . S
C208 C209 1.338 . S
C208 N211 1.377 . S
C208 H228 0.930 . S
C209 N207 1.375 . S
C209 C208 1.338 . S
C209 H213 0.931 . S
C210 N207 1.313 . S
C210 N211 1.344 . S
C210 H214 0.930 . S
N211 C208 1.377 . S
N211 C210 1.344 . S
O212 Co204 2.055 . S
O212 C216 1.253 . S
H213 C209 0.931 . S
H214 C210 0.930 . S
O215 Co204 2.039 . S
O215 C205 1.265 . S
C216 O212 1.253 . S
C216 O217 1.227 . S
O217 C216 1.227 . S
N218 Co204 2.140 . S
N218 C221 1.346 . S
N218 C222 1.345 . S
C219 C220 1.387 . S
C219 C223 1.391 . S
C220 C219 1.387 . S
C220 C221 1.369 . S
C220 H229 0.929 . S
C221 N218 1.346 . S
C221 C220 1.369 . S
C221 H224 0.928 . S
C222 N218 1.345 . S
C222 C223 1.371 . S
C222 H225 0.931 . S
C223 C219 1.391 . S
C223 C222 1.371 . S
C223 H230 0.930 . S
H224 C221 0.928 . S
H225 C222 0.931 . S
H226 C202 0.930 . S
H227 C199 0.930 . S
H228 C208 0.930 . S
H229 C220 0.929 . S
H230 C223 0.930 . S
C231 C232 1.351 . S
C231 N234 1.368 . S
C231 H236 0.931 . S
C232 C231 1.351 . S
C232 N233 1.373 . S
C232 H260 0.930 . S
N233 C232 1.373 . S
N233 C235 1.340 . S
N234 C231 1.368 . S
N234 C235 1.321 . S
N234 Co237 2.135 . S
C235 N233 1.340 . S
C235 N234 1.321 . S
C235 H259 0.930 . S
H236 C231 0.931 . S
Co237 N234 2.135 . S
Co237 N240 2.121 . S
Co237 O245 2.055 . S
Co237 O248 2.039 . S
Co237 N251 2.140 . S
C238 O239 1.227 . S
C238 O248 1.265 . S
O239 C238 1.227 . S
N240 Co237 2.121 . S
N240 C242 1.375 . S
N240 C243 1.313 . S
C241 C242 1.338 . S
C241 N244 1.377 . S
C241 H261 0.930 . S
C242 N240 1.375 . S
C242 C241 1.338 . S
C242 H246 0.931 . S
C243 N240 1.313 . S
C243 N244 1.344 . S
C243 H247 0.930 . S
N244 C241 1.377 . S
N244 C243 1.344 . S
O245 Co237 2.055 . S
O245 C249 1.253 . S
H246 C242 0.931 . S
H247 C243 0.930 . S
O248 Co237 2.039 . S
O248 C238 1.265 . S
C249 O245 1.253 . S
C249 O250 1.227 . S
O250 C249 1.227 . S
N251 Co237 2.140 . S
N251 C254 1.346 . S
N251 C255 1.345 . S
C252 C253 1.387 . S
C252 C256 1.391 . S
C253 C252 1.387 . S
C253 C254 1.369 . S
C253 H262 0.929 . S
C254 N251 1.346 . S
C254 C253 1.369 . S
C254 H257 0.928 . S
C255 N251 1.345 . S
C255 C256 1.371 . S
C255 H258 0.931 . S
C256 C252 1.391 . S
C256 C255 1.371 . S
C256 H263 0.930 . S
H257 C254 0.928 . S
H258 C255 0.931 . S
H259 C235 0.930 . S
H260 C232 0.930 . S
H261 C241 0.930 . S
H262 C253 0.929 . S
H263 C256 0.930 . S
C264 C265 1.170 . S
C264 C266 1.380 1_565 S
C265 C264 1.170 . S
C266 C264 1.380 1_545 S
C266 C267 1.170 . S
C267 C266 1.170 . S
C268 C269 1.170 . S
C268 C270 1.380 . S
C269 C268 1.170 . S
C270 C268 1.380 . S
C270 C271 1.170 . S
C271 C270 1.170 . S
C272 C273 1.170 . S
C272 C274 1.380 1_545 S
C273 C272 1.170 . S
C274 C272 1.380 1_565 S
C274 C275 1.170 . S
C275 C274 1.170 . S
C276 C277 1.170 . S
C276 C278 1.380 . S
C277 C276 1.170 . S
C278 C276 1.380 . S
C278 C279 1.170 . S
C279 C278 1.170 . S
C280 C281 1.170 . S
C280 C282 1.380 1_666 S
C281 C280 1.170 . S
C282 C280 1.380 1_444 S
C282 C283 1.170 . S
C283 C282 1.170 . S
C284 C285 1.170 . S
C284 C286 1.380 1_564 S
C285 C284 1.170 . S
C286 C284 1.380 1_546 S
C286 C287 1.170 . S
C287 C286 1.170 . S
C288 C289 1.170 . S
C288 C290 1.380 1_455 S
C289 C288 1.170 . S
C290 C288 1.380 1_655 S
C290 C291 1.170 . S
C291 C290 1.170 . S
C292 C293 1.170 . S
C292 C294 1.380 . S
C293 C292 1.170 . S
C294 C292 1.380 . S
C294 C295 1.170 . S
C295 C294 1.170 . S
C296 C297 1.170 . S
C296 C298 1.380 . S
C297 C296 1.170 . S
C298 C296 1.380 . S
C298 C299 1.170 . S
C299 C298 1.170 . S
C300 C301 1.170 . S
C300 C302 1.380 . S
C301 C300 1.170 . S
C302 C300 1.380 . S
C302 C303 1.170 . S
C303 C302 1.170 . S
C304 C305 1.170 . S
C304 C306 1.380 . S
C305 C304 1.170 . S
C306 C304 1.380 . S
C306 C307 1.170 1_556 S
C307 C306 1.170 1_554 S
C308 C309 1.170 1_556 S
C308 C310 1.380 . S
C309 C308 1.170 1_554 S
C310 C308 1.380 . S
C310 C311 1.170 . S
C311 C310 1.170 . S
C312 C313 1.170 . S
C312 C314 1.380 . S
C313 C312 1.170 . S
C314 C312 1.380 . S
C314 C315 1.170 . S
C315 C314 1.170 . S
C316 C317 1.170 . S
C316 C318 1.380 . S
C317 C316 1.170 . S
C318 C316 1.380 . S
C318 C319 1.170 . S
C319 C318 1.170 . S
C320 C321 1.170 . S
C320 C322 1.380 . S
C321 C320 1.170 . S
C322 C320 1.380 . S
C322 C323 1.170 1_554 S
C323 C322 1.170 1_556 S
C324 C325 1.170 . S
C324 C326 1.380 . S
C325 C324 1.170 . S
C326 C324 1.380 . S
C326 C327 1.170 1_554 S
C327 C326 1.170 1_556 S
C328 C329 1.170 . S
C328 C330 1.380 . S
C329 C328 1.170 . S
C330 C328 1.380 . S
C330 C331 1.170 . S
C331 C330 1.170 . S
C332 C333 1.170 . S
C332 C334 1.380 . S
C333 C332 1.170 . S
C334 C332 1.380 . S
C334 C335 1.170 . S
C335 C334 1.170 . S
C336 C337 1.170 . S
C336 C338 1.380 . S
C337 C336 1.170 . S
C338 C336 1.380 . S
C338 C339 1.170 . S
C339 C338 1.170 . S
C340 C341 1.170 . S
C340 C342 1.380 . S
C341 C340 1.170 . S
C342 C340 1.380 . S
C342 C343 1.170 . S
C343 C342 1.170 . S
C265 C54 1.507 . S
C267 C21 1.510 . S
C269 C87 1.507 . S
C271 C120 1.510 . S
C273 C186 1.509 . S
C275 C153 1.506 . S
C277 C219 1.507 . S
C279 C252 1.511 . S
C281 C139 1.526 . S
C283 C7 1.501 . S
C285 C40 1.508 . S
C287 C172 1.524 . S
C289 C73 1.522 . S
C291 C205 1.512 . S
C293 C106 1.519 . S
C295 C238 1.515 . S
C297 N2 1.372 . S
C299 N13 1.372 . S
C301 N46 1.366 . S
C303 N35 1.383 . S
C305 N68 1.378 . S
C307 N79 1.377 . S
C309 N112 1.384 . S
C311 N101 1.368 . S
C313 N134 1.365 . S
C315 N145 1.380 . S
C317 N178 1.366 . S
C319 N167 1.382 . S
C321 N200 1.383 . S
C323 N211 1.371 . S
C325 N233 1.368 . S
C327 N244 1.377 . S
C329 C18 1.536 . S
C331 C84 1.536 . S
C333 C51 1.533 . S
C335 C117 1.538 . S
C337 C150 1.528 . S
C339 C216 1.538 . S
C341 C183 1.528 . S
C343 C249 1.538 . S
