# Generated by pormake.
# Topology snz, (6)-cn, num edge types: 1
# Building blocks:
#     Node 0, Type 0, BuildingBlock: KUMBOL_clean_sbu_0, # of connection points: 6
#     Node 1, Type 0, BuildingBlock: KUMBOL_clean_sbu_0, # of connection points: 6
#     Node 2, Type 0, BuildingBlock: KUMBOL_clean_sbu_0, # of connection points: 6
#     Node 3, Type 0, BuildingBlock: KUMBOL_clean_sbu_0, # of connection points: 6
#     Node 4, Type 0, BuildingBlock: KUMBOL_clean_sbu_0, # of connection points: 6
#     Node 5, Type 0, BuildingBlock: KUMBOL_clean_sbu_0, # of connection points: 6
#     Node 6, Type 0, BuildingBlock: KUMBOL_clean_sbu_0, # of connection points: 6
#     Node 7, Type 0, BuildingBlock: KUMBOL_clean_sbu_0, # of connection points: 6
#     Node 8, Type 0, BuildingBlock: KUMBOL_clean_sbu_0, # of connection points: 6
#     Edge 9, Type (0, 0), BuildingBlock: TEMPAE_clean_linker_10, # of connection points: 2
#     Edge 10, Type (0, 0), BuildingBlock: TEMPAE_clean_linker_10, # of connection points: 2
#     Edge 11, Type (0, 0), BuildingBlock: TEMPAE_clean_linker_10, # of connection points: 2
#     Edge 12, Type (0, 0), BuildingBlock: TEMPAE_clean_linker_10, # of connection points: 2
#     Edge 13, Type (0, 0), BuildingBlock: TEMPAE_clean_linker_10, # of connection points: 2
#     Edge 14, Type (0, 0), BuildingBlock: TEMPAE_clean_linker_10, # of connection points: 2
#     Edge 15, Type (0, 0), BuildingBlock: TEMPAE_clean_linker_10, # of connection points: 2
#     Edge 16, Type (0, 0), BuildingBlock: TEMPAE_clean_linker_10, # of connection points: 2
#     Edge 17, Type (0, 0), BuildingBlock: TEMPAE_clean_linker_10, # of connection points: 2
#     Edge 18, Type (0, 0), BuildingBlock: TEMPAE_clean_linker_10, # of connection points: 2
#     Edge 19, Type (0, 0), BuildingBlock: TEMPAE_clean_linker_10, # of connection points: 2
#     Edge 20, Type (0, 0), BuildingBlock: TEMPAE_clean_linker_10, # of connection points: 2
#     Edge 21, Type (0, 0), BuildingBlock: TEMPAE_clean_linker_10, # of connection points: 2
#     Edge 22, Type (0, 0), BuildingBlock: TEMPAE_clean_linker_10, # of connection points: 2
#     Edge 23, Type (0, 0), BuildingBlock: TEMPAE_clean_linker_10, # of connection points: 2
#     Edge 24, Type (0, 0), BuildingBlock: TEMPAE_clean_linker_10, # of connection points: 2
#     Edge 25, Type (0, 0), BuildingBlock: TEMPAE_clean_linker_10, # of connection points: 2
#     Edge 26, Type (0, 0), BuildingBlock: TEMPAE_clean_linker_10, # of connection points: 2
#     Edge 27, Type (0, 0), BuildingBlock: TEMPAE_clean_linker_10, # of connection points: 2
#     Edge 28, Type (0, 0), BuildingBlock: TEMPAE_clean_linker_10, # of connection points: 2
#     Edge 29, Type (0, 0), BuildingBlock: TEMPAE_clean_linker_10, # of connection points: 2
#     Edge 30, Type (0, 0), BuildingBlock: TEMPAE_clean_linker_10, # of connection points: 2
#     Edge 31, Type (0, 0), BuildingBlock: TEMPAE_clean_linker_10, # of connection points: 2
#     Edge 32, Type (0, 0), BuildingBlock: TEMPAE_clean_linker_10, # of connection points: 2
#     Edge 33, Type (0, 0), BuildingBlock: TEMPAE_clean_linker_10, # of connection points: 2
#     Edge 34, Type (0, 0), BuildingBlock: TEMPAE_clean_linker_10, # of connection points: 2
#     Edge 35, Type (0, 0), BuildingBlock: TEMPAE_clean_linker_10, # of connection points: 2
# Relax obj value: 0.274
# Max RMSD: 0.305
# Mean RMSD: 0.206
data_MOF--net-snz--node1-KUMBOL_clean_sbu_0--edge1-TEMPAE_clean_linker_10
_symmetry_space_group_name_H-M    P1
_symmetry_Int_Tables_number       1
_symmetry_cell_setting            triclinic
loop_
_symmetry_equiv_pos_as_xyz
'x, y, z'
_cell_length_a     61.274833
_cell_length_b     56.090228
_cell_length_c     16.393282
_cell_angle_alpha  93.417609
_cell_angle_beta   94.530569
_cell_angle_gamma 120.60378
loop_
_atom_site_label
_atom_site_type_symbol
_atom_site_fract_x
_atom_site_fract_y
_atom_site_fract_z
_atom_type_partial_charge
Gd0 Gd 0.0533 0.48799 0.19959 0.0
Gd1 Gd 0.11052 0.48383 0.22262 0.0
C2 C 0.17954 0.57183 0.22348 0.0
C3 C 0.19189 0.56997 0.0873 0.0
C4 C 0.15631 0.52876 0.13129 0.0
C5 C 0.15953 0.5437 0.20594 0.0
C6 C 0.17338 0.54141 0.07292 0.0
C7 C 0.19495 0.58518 0.16252 0.0
C8 C 0.18412 0.58542 0.30278 0.0
C9 C 0.1696 0.57066 0.36317 0.0
N10 N 0.14462 0.53005 0.26414 0.0
C11 C 0.15007 0.54279 0.34298 0.0
H12 H 0.13908 0.53196 0.3905 0.0
C13 C 0.14023 0.48419 1.05933 0.0
N14 N 0.13872 0.50102 0.12039 0.0
C15 C 0.15636 0.49579 0.99906 0.0
C16 C 0.17251 0.52464 1.0046 0.0
H17 H 0.12771 0.46179 1.05425 0.0
H18 H 0.21004 0.60691 0.17434 0.0
H19 H 0.02935 0.4695 0.99349 0.0
H20 H 0.19923 0.607 0.31857 0.0
H21 H 0.17331 0.58078 0.4252 0.0
H22 H 0.2048 0.58014 1.04245 0.0
H23 H 0.02676 0.48031 0.38038 0.0
H24 H 0.96556 0.387 0.96144 0.0
H25 H 0.99689 0.42882 0.90336 0.0
H26 H 0.9476 0.3676 0.23518 0.0
H27 H 0.15637 0.48245 0.94858 0.0
H28 H 0.18525 0.53357 0.95841 0.0
H29 H 0.94691 0.36489 0.08555 0.0
H30 H 0.99386 0.4433 0.44761 0.0
N31 N 0.02051 0.4502 0.10523 0.0
C32 C 0.98081 0.4045 1.00227 0.0
C33 C 0.99847 0.42803 0.96926 0.0
C34 C 0.98207 0.40456 0.08767 0.0
C35 C 1.00229 0.42803 0.13836 0.0
C36 C 0.01769 0.45101 1.02166 0.0
N37 N 0.01993 0.45427 0.26866 0.0
C38 C 1.00226 0.42995 0.2228 0.0
C39 C 0.99632 0.43894 0.3849 0.0
C40 C 0.9801 0.41274 0.34155 0.0
C41 C 0.01543 0.4598 0.34635 0.0
C42 C 0.98208 0.40841 0.2584 0.0
H43 H 0.96492 0.39675 0.37095 0.0
O44 O 0.04548 0.51704 0.2659 0.0
O45 O 0.09501 0.51201 0.24993 0.0
O46 O 0.10259 0.48713 0.35675 0.0
O47 O 0.06436 0.4865 0.33997 0.0
O48 O 0.08219 0.52931 0.16407 0.0
O49 O 0.02912 0.50143 0.139 0.0
O50 O 0.11966 0.45117 0.20174 0.0
O51 O 0.06884 0.46081 0.17269 0.0
O52 O 0.06776 0.49422 0.07146 0.0
O53 O 0.09812 0.48111 0.08113 0.0
O54 O 0.08062 0.44022 0.24546 0.0
O55 O 0.13704 0.48044 0.31108 0.0
C56 C 0.1013 0.53409 0.21559 0.0
C57 C 0.96313 0.38427 0.20877 0.0
C58 C 0.96287 0.38261 0.12347 0.0
C59 C 0.03028 0.51648 0.2045 0.0
C60 C 0.0062 0.51487 0.22201 0.0
C61 C 0.99803 0.51004 0.30021 0.0
C62 C 0.99204 0.52011 0.16107 0.0
C63 C 0.96993 0.52048 0.17794 0.0
C64 C 0.97604 0.50995 0.31697 0.0
C65 C 0.96215 0.51522 0.25674 0.0
C66 C 0.08304 0.4865 0.38857 0.0
C67 C 0.06134 0.43773 0.20017 0.0
C68 C 0.13601 0.45953 0.26806 0.0
C69 C 0.16083 0.46147 0.25936 0.0
C70 C 0.17949 0.4839 0.22368 0.0
C71 C 0.16633 0.44139 0.28771 0.0
C72 C 0.19027 0.44378 0.27909 0.0
C73 C 0.20252 0.4858 0.212 0.0
C74 C 0.20777 0.46589 0.2384 0.0
C75 C 0.0834 0.48803 1.03604 0.0
H76 H 0.00883 0.50688 0.34918 0.0
H77 H 0.99841 0.52416 0.10089 0.0
H78 H 0.97001 0.50634 0.37762 0.0
H79 H 0.9457 0.51598 0.27294 0.0
H80 H 0.17636 0.50012 0.20495 0.0
H81 H 0.15231 0.42448 0.31776 0.0
H82 H 0.2165 0.50294 0.18262 0.0
H83 H 0.22579 0.46798 0.22685 0.0
Gd84 Gd 0.6205 0.47716 0.11153 0.0
Gd85 Gd 0.61707 0.54005 0.12619 0.0
C86 C 0.5351 0.52091 1.0677 0.0
C87 C 0.53578 0.53782 0.93426 0.0
C88 C 0.57423 0.5422 1.00517 0.0
C89 C 0.56102 0.52907 1.06854 0.0
C90 C 0.56211 0.54789 0.93898 0.0
C91 C 0.52226 0.52429 0.9986 0.0
C92 C 0.52338 0.5112 0.13826 0.0
C93 C 0.53788 0.51126 0.20854 0.0
N94 N 0.57435 0.52722 0.13529 0.0
C95 C 0.5636 0.51979 0.20631 0.0
H96 H 0.57467 0.51964 0.26069 0.0
C97 C 0.61477 0.57112 0.96313 0.0
N98 N 0.59973 0.55229 1.01344 0.0
C99 C 0.60364 0.57714 0.89579 0.0
C100 C 0.5771 0.56494 0.88252 0.0
H101 H 0.63529 0.5805 0.97315 0.0
H102 H 0.50224 0.51777 0.99618 0.0
H103 H 0.60202 0.43686 0.93148 0.0
H104 H 0.50352 0.50481 0.14028 0.0
H105 H 0.52929 0.5047 0.26439 0.0
H106 H 0.52599 0.54156 0.88323 0.0
H107 H 0.66601 0.50988 0.27502 0.0
H108 H 0.66753 0.43918 0.8479 0.0
H109 H 0.62129 0.42242 0.82661 0.0
H110 H 0.73306 0.49096 0.07546 0.0
H111 H 0.61551 0.59116 0.85424 0.0
H112 H 0.56853 0.56981 0.83077 0.0
H113 H 0.70922 0.46491 0.94121 0.0
H114 H 0.71067 0.52321 0.31423 0.0
N115 N 0.63732 0.46277 1.00821 0.0
C116 C 0.65918 0.44564 0.89371 0.0
C117 C 0.63308 0.43613 0.88147 0.0
C118 C 0.67395 0.46236 0.96666 0.0
C119 C 0.66217 0.47025 1.02421 0.0
C120 C 0.62226 0.44434 0.94073 0.0
N121 N 0.6633 0.49119 0.15485 0.0
C122 C 0.67552 0.48471 0.10001 0.0
C123 C 0.70099 0.51233 0.25382 0.0
C124 C 0.71396 0.50631 0.19757 0.0
C125 C 0.67554 0.50459 0.23136 0.0
C126 C 0.70123 0.49225 0.11968 0.0
H127 H 0.73373 0.51252 0.21493 0.0
O128 O 0.62019 0.4464 0.18733 0.0
O129 O 0.59638 0.49485 0.14045 0.0
O130 O 0.62002 0.52933 0.26098 0.0
O131 O 0.61985 0.48748 0.25153 0.0
O132 O 0.58103 0.46222 1.04755 0.0
O133 O 0.58948 0.43384 0.08946 0.0
O134 O 0.64695 0.58416 0.14736 0.0
O135 O 0.64315 0.52326 0.13479 0.0
O136 O 0.62388 0.49147 0.98079 0.0
O137 O 0.60899 0.52231 0.98589 0.0
O138 O 0.65428 0.55848 0.07363 0.0
O139 O 0.61657 0.56821 0.22246 0.0
C140 C 0.57582 0.47724 0.09547 0.0
C141 C 0.71333 0.48535 1.06143 0.0
C142 C 0.69976 0.47052 0.98495 0.0
C143 C 0.59984 0.42552 0.14405 0.0
C144 C 0.60021 0.39992 0.11773 0.0
C145 C 0.62182 0.39806 0.14037 0.0
C146 C 0.5784 0.37666 0.07164 0.0
C147 C 0.57797 0.3516 1.04936 0.0
C148 C 0.62159 0.37349 0.11908 0.0
C149 C 0.5999 0.35045 0.07491 0.0
C150 C 0.62024 0.50852 0.29662 0.0
C151 C 0.66046 0.54091 0.09581 0.0
C152 C 0.63602 0.59047 0.20221 0.0
C153 C 0.63217 0.61395 0.1877 0.0
C154 C 0.60945 0.60854 0.14217 0.0
C155 C 0.65119 0.6418 0.21698 0.0
C156 C 0.64758 0.6641 0.19945 0.0
C157 C 0.60602 0.63029 0.12277 0.0
C158 C 0.62494 0.65778 0.15013 0.0
C159 C 0.61608 0.50677 0.94287 0.0
H160 H 0.63887 0.41547 0.17532 0.0
H161 H 0.56189 0.37827 1.05298 0.0
H162 H 0.63825 0.37218 0.13781 0.0
H163 H 0.60033 0.33155 1.06214 0.0
H164 H 0.59432 0.58745 0.12117 0.0
H165 H 0.66847 0.64591 0.25384 0.0
H166 H 0.58861 0.62583 0.08603 0.0
H167 H 0.62176 0.67411 0.13187 0.0
Gd168 Gd 0.61352 0.10094 0.8975 0.0
Gd169 Gd 0.56399 0.02827 0.86849 0.0
C170 C 0.58385 0.96046 0.83246 0.0
C171 C 0.56709 0.942 0.68921 0.0
C172 C 0.56219 0.97905 0.75292 0.0
C173 C 0.5762 0.9802 0.82513 0.0
C174 C 0.55676 0.95927 0.68513 0.0
C175 C 0.58043 0.9424 0.76312 0.0
C176 C 0.59261 0.95776 0.91062 0.0
C177 C 0.5929 0.97393 0.97904 0.0
N178 N 0.57919 0.99786 0.8914 0.0
C179 C 0.58638 0.99411 0.96828 0.0
H180 H 0.58692 0.00628 1.02236 0.0
C181 C 0.5324 0.9895 0.6907 0.0
N182 N 0.55123 0.99482 0.75267 0.0
C183 C 0.52701 0.97081 0.62115 0.0
C184 C 0.5397 0.95609 0.61747 0.0
H185 H 0.52219 1.00048 0.69324 0.0
H186 H 0.58676 0.92761 0.7673 0.0
H187 H 0.60506 0.12409 0.71129 0.0
H188 H 0.59778 0.94217 0.91916 0.0
H189 H 0.59773 0.97071 1.04045 0.0
H190 H 0.56346 0.92699 0.63736 0.0
H191 H 0.6405 0.13308 0.09031 0.0
H192 H 0.57004 0.17163 0.75506 0.0
H193 H 0.58526 0.14923 0.65944 0.0
H194 H 0.58314 0.19093 1.04797 0.0
H195 H 0.51292 0.96761 0.57076 0.0
H196 H 0.53514 0.94122 0.56417 0.0
H197 H 0.56847 0.18626 0.90077 0.0
H198 H 0.63695 0.16433 0.19378 0.0
N199 N 0.59915 0.12904 0.8371 0.0
C200 C 0.57837 0.16002 0.77879 0.0
C201 C 0.58696 0.14742 0.7247 0.0
C202 C 0.58243 0.15923 0.86336 0.0
C203 C 0.59353 0.14391 0.89104 0.0
C204 C 0.59773 0.13239 0.75499 0.0
N205 N 0.61525 0.13451 0.9965 0.0
C206 C 0.60188 0.14672 0.97368 0.0
C207 C 0.62686 0.15946 0.13223 0.0
C208 C 0.61134 0.17026 0.11161 0.0
C209 C 0.62904 0.14199 0.07319 0.0
C210 C 0.59922 0.16463 1.03088 0.0
H211 H 0.60975 0.18389 0.15733 0.0
O212 O 0.64542 0.10523 0.83462 0.0
O213 O 0.60656 0.05749 0.89065 0.0
O214 O 0.57601 0.04021 1.00991 0.0
O215 O 0.5981 0.08866 1.02539 0.0
O216 O 0.63173 0.08675 0.98921 0.0
O217 O 0.6508 0.13942 0.91716 0.0
O218 O 0.53036 0.98833 0.88082 0.0
O219 O 0.57152 0.07161 0.87908 0.0
O220 O 0.60432 0.08639 0.75592 0.0
O221 O 0.57459 0.0387 0.73666 0.0
O222 O 0.5431 0.04333 0.78821 0.0
O223 O 0.53439 0.02597 0.93913 0.0
C224 C 0.62246 0.06185 0.95331 0.0
C225 C 0.58585 0.17757 1.00467 0.0
C226 C 0.57745 0.17487 0.92087 0.0
C227 C 0.66206 0.12922 0.87558 0.0
C228 C 0.68564 0.13155 0.91865 0.0
C229 C 0.68817 0.13154 1.00462 0.0
C230 C 0.70545 0.13309 0.8753 0.0
C231 C 0.72708 0.13402 0.91795 0.0
C232 C 0.70914 0.13218 1.04642 0.0
C233 C 0.72836 0.13337 1.00381 0.0
C234 C 0.58619 0.0644 1.05792 0.0
C235 C 0.55491 0.06883 0.82164 0.0
C236 C 0.52176 0.99893 0.93289 0.0
C237 C 0.51578 0.98658 1.01113 0.0
C238 C 0.528 0.97309 1.04313 0.0
C239 C 0.49788 0.98854 1.05505 0.0
C240 C 0.49211 0.97696 0.13009 0.0
C241 C 0.52336 0.96285 0.11916 0.0
C242 C 0.50554 0.96472 0.1625 0.0
C243 C 0.58975 0.06251 0.70624 0.0
H244 H 0.67387 0.131 1.0402 0.0
H245 H 0.70393 0.13331 0.8091 0.0
H246 H 0.71062 0.13198 0.1126 0.0
H247 H 0.74467 0.1345 1.03886 0.0
H248 H 0.54084 0.97002 1.00905 0.0
H249 H 0.48813 0.99859 1.02998 0.0
H250 H 0.53308 0.9527 0.14345 0.0
H251 H 0.50139 0.95528 0.21935 0.0
Gd252 Gd 0.7682 0.91889 0.34259 0.0
Gd253 Gd 0.82453 0.91359 0.35956 0.0
C254 C 0.90165 0.99449 0.37446 0.0
C255 C 0.91555 0.98932 0.24332 0.0
C256 C 0.8755 0.9522 0.28075 0.0
C257 C 0.879 0.96826 0.3537 0.0
C258 C 0.89423 0.96216 0.22636 0.0
C259 C 0.9193 0.00544 0.31742 0.0
C260 C 0.90677 0.00813 0.45389 0.0
C261 C 0.89008 0.99514 0.51138 0.0
N262 N 0.86182 0.95689 0.40835 0.0
C263 C 0.86786 0.96915 0.48797 0.0
H264 H 0.85545 0.95968 0.53382 0.0
C265 C 0.85413 0.90709 0.20687 0.0
N266 N 0.85519 0.92572 0.26738 0.0
C267 C 0.87191 0.91613 0.15041 0.0
C268 C 0.89174 0.94397 0.15908 0.0
H269 H 0.83884 0.88551 0.20001 0.0
H270 H 0.93652 0.02579 0.3318 0.0
H271 H 0.74129 0.87499 0.16244 0.0
H272 H 0.92424 0.02796 0.47266 0.0
H273 H 0.89431 0.0051 0.5739 0.0
H274 H 0.92991 0.99749 0.20161 0.0
H275 H 0.75333 0.94215 0.51134 0.0
H276 H 0.66801 0.8087 0.19897 0.0
H277 H 0.70144 0.8323 0.10907 0.0
H278 H 0.65832 0.83204 0.47289 0.0
H279 H 0.87037 0.90162 0.10048 0.0
H280 H 0.90569 0.95086 0.11586 0.0
H281 H 0.6529 0.80761 0.33668 0.0
H282 H 0.7199 0.92363 0.60381 0.0
N283 N 0.73159 0.87624 0.28451 0.0
C284 C 0.6858 0.82743 0.2239 0.0
C285 C 0.70449 0.84089 0.17266 0.0
C286 C 0.68971 0.83903 0.3054 0.0
C287 C 0.71285 0.86413 0.33396 0.0
C288 C 0.72722 0.86548 0.20372 0.0
N289 N 0.73647 0.90412 0.43148 0.0
C290 C 0.71557 0.87828 0.41012 0.0
C291 C 0.71854 0.91058 0.54996 0.0
C292 C 0.69779 0.88335 0.53215 0.0
C293 C 0.73744 0.92097 0.49746 0.0
C294 C 0.69566 0.86717 0.4602 0.0
H295 H 0.68296 0.87548 0.57229 0.0
O296 O 0.7388 0.92916 0.31249 0.0
O297 O 0.81086 0.94394 0.36155 0.0
O298 O 0.81616 0.91916 0.49341 0.0
O299 O 0.77463 0.91084 0.47899 0.0
O300 O 0.79142 0.95601 0.43679 0.0
O301 O 0.77611 0.95438 0.27611 0.0
O302 O 0.85354 0.90375 0.40008 0.0
O303 O 0.78216 0.88956 0.34363 0.0
O304 O 0.77886 0.91617 0.20997 0.0
O305 O 0.81831 0.91927 0.22178 0.0
O306 O 0.79955 0.87577 0.26661 0.0
O307 O 0.81439 0.8756 0.41566 0.0
C308 C 0.8137 0.96208 0.41888 0.0
C309 C 0.67365 0.84102 0.43481 0.0
C310 C 0.67058 0.8271 0.35725 0.0
C311 C 0.75287 0.94943 0.27099 0.0
C312 C 0.7412 0.94945 0.18842 0.0
C313 C 0.73927 0.93159 0.12081 0.0
C314 C 0.73195 0.96755 0.17637 0.0
C315 C 0.72173 0.96825 0.09707 0.0
C316 C 0.72971 0.93275 1.04205 0.0
C317 C 0.7211 0.95111 1.03 0.0
C318 C 0.7952 0.91442 0.5264 0.0
C319 C 0.77781 0.87052 0.28783 0.0
C320 C 0.83754 0.88061 0.42745 0.0
C321 C 0.84535 0.87467 0.50733 0.0
C322 C 0.85612 0.89503 0.57575 0.0
C323 C 0.84148 0.84793 0.51528 0.0
C324 C 0.8487 0.84149 0.59103 0.0
C325 C 0.86326 0.88893 0.65096 0.0
C326 C 0.85979 0.86255 0.65858 0.0
C327 C 0.79882 0.91831 0.17592 0.0
H328 H 0.74518 0.91673 0.1281 0.0
H329 H 0.73243 0.98077 0.22834 0.0
H330 H 0.72867 0.9191 0.99038 0.0
H331 H 0.71309 0.95124 0.9688 0.0
H332 H 0.85905 0.91561 0.57091 0.0
H333 H 0.83258 0.83213 0.46247 0.0
H334 H 0.87171 0.90479 0.70355 0.0
H335 H 0.86622 0.85889 0.71734 0.0
Gd336 Gd 0.23358 0.79535 0.46737 0.0
Gd337 Gd 0.17616 0.79442 0.4593 0.0
C338 C 0.15281 0.82395 0.23267 0.0
C339 C 0.15451 0.86578 0.29133 0.0
C340 C 0.16426 0.83819 0.37951 0.0
C341 C 0.16064 0.82018 0.31169 0.0
C342 C 0.16054 0.86076 0.37052 0.0
C343 C 0.15066 0.84739 0.22245 0.0
C344 C 0.14597 0.80324 0.16729 0.0
C345 C 0.14556 0.77882 0.18271 0.0
N346 N 0.16215 0.79736 0.32428 0.0
C347 C 0.15328 0.776 0.2624 0.0
H348 H 0.15278 0.75697 0.27383 0.0
C349 C 0.1698 0.84721 0.52479 0.0
N350 N 0.16984 0.83253 0.45507 0.0
C351 C 0.16615 0.86977 0.51902 0.0
C352 C 0.16199 0.87691 0.44154 0.0
H353 H 0.17342 0.842 0.5848 0.0
H354 H 0.145 0.85084 0.16208 0.0
H355 H 0.25412 0.8361 0.64753 0.0
H356 H 0.13987 0.80533 0.10562 0.0
H357 H 0.13936 0.76219 0.1333 0.0
H358 H 0.15188 0.88321 0.28298 0.0
H359 H 0.2312 0.74187 0.35354 0.0
H360 H 0.28902 0.80548 0.81293 0.0
H361 H 0.27754 0.84063 0.78209 0.0
H362 H 0.27814 0.7246 0.65542 0.0
H363 H 0.16677 0.88176 0.57429 0.0
H364 H 0.1592 0.8944 0.43726 0.0
H365 H 0.28817 0.76152 0.76644 0.0
H366 H 0.24249 0.70607 0.37158 0.0
N367 N 0.25208 0.79857 0.60186 0.0
C368 C 0.27868 0.80333 0.75358 0.0
C369 C 0.27228 0.82325 0.73636 0.0
C370 C 0.27183 0.78102 0.69379 0.0
C371 C 0.25873 0.77944 0.617 0.0
C372 C 0.25888 0.82051 0.65988 0.0
N373 N 0.24253 0.75939 0.47943 0.0
C374 C 0.25359 0.75906 0.5541 0.0
C375 C 0.24568 0.72082 0.42349 0.0
C376 C 0.25622 0.71961 0.50063 0.0
C377 C 0.23925 0.74118 0.4136 0.0
C378 C 0.26069 0.73913 0.56683 0.0
H379 H 0.26131 0.7039 0.508 0.0
O380 O 0.26101 0.80254 0.3812 0.0
O381 O 0.20677 0.80111 0.3731 0.0
O382 O 0.17032 0.7516 0.41467 0.0
O383 O 0.20422 0.75151 0.48481 0.0
O384 O 0.21965 0.77639 0.33105 0.0
O385 O 0.27244 0.83078 0.49216 0.0
O386 O 0.14416 0.78608 0.52636 0.0
O387 O 0.20568 0.79448 0.55544 0.0
O388 O 0.24313 0.83933 0.5046 0.0
O389 O 0.20678 0.84085 0.46751 0.0
O390 O 0.17831 0.79844 0.60078 0.0
O391 O 0.13881 0.75656 0.42502 0.0
C392 C 0.20675 0.78736 0.30483 0.0
C393 C 0.27264 0.7398 0.64437 0.0
C394 C 0.27834 0.7608 0.70759 0.0
C395 C 0.27831 0.8266 0.42045 0.0
C396 C 0.28765 0.85042 0.37215 0.0
C397 C 0.27034 0.85684 0.3334 0.0
C398 C 0.31388 0.86783 0.36857 0.0
C399 C 0.32284 0.89158 0.32606 0.0
C400 C 0.27907 0.88045 0.29204 0.0
C401 C 0.30515 0.89775 0.28827 0.0
C402 C 0.18115 0.73796 0.44358 0.0
C403 C 0.1973 0.79587 0.62698 0.0
C404 C 0.12789 0.7631 0.48002 0.0
C405 C 0.10257 0.75944 0.45372 0.0
C406 C 0.09843 0.76941 0.38126 0.0
C407 C 0.08243 0.74634 0.50235 0.0
C408 C 0.05826 0.74305 0.47813 0.0
C409 C 0.07481 0.76658 0.35754 0.0
C410 C 0.05492 0.7536 0.40537 0.0
C411 C 0.23167 0.85346 0.49139 0.0
H412 H 0.25012 0.84396 0.33695 0.0
H413 H 0.32725 0.86304 0.39943 0.0
H414 H 0.26558 0.88532 0.26278 0.0
H415 H 0.3114 0.91562 0.25419 0.0
H416 H 0.11339 0.77942 0.34288 0.0
H417 H 0.08549 0.7384 0.55807 0.0
H418 H 0.07189 0.77453 0.30172 0.0
H419 H 0.0369 0.75203 0.38554 0.0
Gd420 Gd 0.30512 0.31936 0.45482 0.0
Gd421 Gd 0.24187 0.2581 0.42542 0.0
C422 C 0.23266 0.17173 0.40784 0.0
C423 C 0.21713 0.15504 0.26305 0.0
C424 C 0.22537 0.20053 0.3186 0.0
C425 C 0.23399 0.19713 0.3954 0.0
C426 C 0.21612 0.17911 0.25237 0.0
C427 C 0.22521 0.15127 0.34082 0.0
C428 C 0.23734 0.16685 0.488 0.0
C429 C 0.24272 0.18672 0.55367 0.0
N430 N 0.241 0.21723 0.45958 0.0
C431 C 0.24402 0.21164 0.53854 0.0
H432 H 0.24768 0.22609 0.59115 0.0
C433 C 0.21051 0.22489 0.24125 0.0
N434 N 0.22363 0.22347 0.31075 0.0
C435 C 0.20159 0.20453 0.1736 0.0
C436 C 0.20487 0.18179 0.17858 0.0
H437 H 0.20819 0.24259 0.23616 0.0
H438 H 0.22465 0.13195 0.34922 0.0
H439 H 0.29554 0.35564 0.31384 0.0
H440 H 0.23546 0.14719 0.50008 0.0
H441 H 0.24564 0.18275 0.61622 0.0
H442 H 0.21048 0.13859 0.2126 0.0
H443 H 0.34748 0.33275 0.6223 0.0
H444 H 0.307 0.43079 0.43884 0.0
H445 H 0.29588 0.39946 0.31012 0.0
H446 H 0.34072 0.43201 0.71174 0.0
H447 H 0.19222 0.2064 0.11766 0.0
H448 H 0.19768 0.16586 0.12634 0.0
H449 H 0.3215 0.44158 0.59026 0.0
H450 H 0.36645 0.36542 0.74975 0.0
N451 N 0.30394 0.36038 0.44447 0.0
C452 C 0.30589 0.41097 0.44122 0.0
C453 C 0.29994 0.39352 0.36842 0.0
C454 C 0.31253 0.40379 0.51534 0.0
C455 C 0.31214 0.3784 0.51458 0.0
C456 C 0.29964 0.36849 0.37097 0.0
N457 N 0.32695 0.35128 0.57437 0.0
C458 C 0.32379 0.37352 0.58209 0.0
C459 C 0.35429 0.36779 0.7035 0.0
C460 C 0.34953 0.38949 0.71545 0.0
C461 C 0.34342 0.34926 0.63115 0.0
C462 C 0.33494 0.39321 0.65309 0.0
H463 H 0.35832 0.4041 0.77098 0.0
O464 O 0.34331 0.3525 0.43618 0.0
O465 O 0.28339 0.27268 0.44157 0.0
O466 O 0.25513 0.26908 0.5671 0.0
O467 O 0.29373 0.31167 0.58771 0.0
O468 O 0.31633 0.29316 0.52526 0.0
O469 O 0.32788 0.31124 0.37459 0.0
O470 O 0.21811 0.26747 0.49803 0.0
O471 O 0.2632 0.30479 0.43938 0.0
O472 O 0.29038 0.31088 0.3145 0.0
O473 O 0.25724 0.26463 0.29676 0.0
O474 O 0.23267 0.28378 0.34587 0.0
O475 O 0.20145 0.22767 0.42602 0.0
C476 C 0.29756 0.26899 0.49412 0.0
C477 C 0.33263 0.41688 0.65728 0.0
C478 C 0.32162 0.42229 0.58818 0.0
C479 C 0.34749 0.33654 0.38747 0.0
C480 C 0.37308 0.33979 0.39996 0.0
C481 C 0.37841 0.32542 0.45778 0.0
C482 C 0.39216 0.35675 0.3517 0.0
C483 C 0.41626 0.35887 0.36009 0.0
C484 C 0.40222 0.32761 0.4669 0.0
C485 C 0.42095 0.34406 0.41845 0.0
C486 C 0.27425 0.29047 0.61752 0.0
C487 C 0.24976 0.30803 0.38256 0.0
C488 C 0.19708 0.24409 0.47204 0.0
C489 C 0.17443 0.24584 0.44297 0.0
C490 C 0.17081 0.25044 0.3612 0.0
C491 C 0.15612 0.24257 0.49593 0.0
C492 C 0.1344 0.24395 0.46679 0.0
C493 C 0.14947 0.2516 0.33198 0.0
C494 C 0.13139 0.24824 0.38379 0.0
C495 C 0.27415 0.28747 0.26509 0.0
H496 H 0.36412 0.31235 0.49546 0.0
H497 H 0.38806 0.36776 0.30659 0.0
H498 H 0.40617 0.31642 0.51164 0.0
H499 H 0.43929 0.34547 0.42739 0.0
H500 H 0.18432 0.25283 0.31932 0.0
H501 H 0.15892 0.23924 0.55939 0.0
H502 H 0.14681 0.25492 0.26848 0.0
H503 H 0.11477 0.24865 0.35812 0.0
Gd504 Gd 0.37054 0.11479 0.77082 0.0
Gd505 Gd 0.39763 0.12805 0.58072 0.0
C506 C 0.41627 0.07121 0.42745 0.0
C507 C 0.46141 0.09135 0.47149 0.0
C508 C 0.43811 0.11088 0.53336 0.0
C509 C 0.41597 0.09117 0.48365 0.0
C510 C 0.46139 0.11229 0.52282 0.0
C511 C 0.43874 0.07047 0.42511 0.0
C512 C 0.39464 0.05407 0.37049 0.0
C513 C 0.37434 0.0587 0.36524 0.0
N514 N 0.39523 0.09395 0.48187 0.0
C515 C 0.3755 0.07971 0.41898 0.0
H516 H 0.36001 0.08379 0.41273 0.0
C517 C 0.46023 0.15439 0.61605 0.0
N518 N 0.43765 0.13107 0.58231 0.0
C519 C 0.48367 0.15693 0.60561 0.0
C520 C 0.48424 0.13593 0.55833 0.0
H521 H 0.46095 0.17196 0.64872 0.0
H522 H 0.43921 0.05511 0.38311 0.0
H523 H 0.39259 0.18309 0.84774 0.0
H524 H 0.3941 0.03847 0.32674 0.0
H525 H 0.35799 0.04632 0.31914 0.0
H526 H 0.47906 0.09186 0.46429 0.0
H527 H 0.31607 0.05106 0.71602 0.0
H528 H 0.33021 0.19585 0.8309 0.0
H529 H 0.37589 0.21332 0.86891 0.0
H530 H 0.25905 0.10841 0.7116 0.0
H531 H 0.50134 0.17558 0.6319 0.0
H532 H 0.50246 0.13888 0.54566 0.0
H533 H 0.28692 0.15678 0.77245 0.0
H534 H 0.27121 0.03164 0.66874 0.0
N535 N 0.35752 0.14812 0.78555 0.0
C536 C 0.33767 0.1825 0.81624 0.0
C537 C 0.36344 0.19238 0.83818 0.0
C538 C 0.32166 0.15525 0.77855 0.0
C539 C 0.33218 0.13828 0.76332 0.0
C540 C 0.37298 0.17484 0.82386 0.0
N541 N 0.32614 0.09374 0.72354 0.0
C542 C 0.31616 0.11048 0.73092 0.0
C543 C 0.28367 0.05398 0.68368 0.0
C544 C 0.27352 0.07115 0.68494 0.0
C545 C 0.30979 0.06546 0.70679 0.0
C546 C 0.28952 0.09948 0.71221 0.0
H547 H 0.25309 0.06207 0.66961 0.0
O548 O 0.35333 0.07949 0.84172 0.0
O549 O 0.39746 0.10959 0.69689 0.0
O550 O 0.36325 0.08293 0.56517 0.0
O551 O 0.35885 0.07326 0.69975 0.0
O552 O 0.40806 0.1188 0.82311 0.0
O553 O 0.36698 0.12095 0.9004 0.0
O554 O 0.41082 0.1709 0.5583 0.0
O555 O 0.37299 0.13621 0.65728 0.0
O556 O 0.40731 0.15536 0.80821 0.0
O557 O 0.42298 0.16454 0.68103 0.0
O558 O 0.35806 0.11917 0.53727 0.0
O559 O 0.40585 0.14111 0.45914 0.0
C560 C 0.41478 0.11385 0.75405 0.0
C561 C 0.27939 0.11662 0.72515 0.0
C562 C 0.29533 0.14427 0.75929 0.0
C563 C 0.3524 0.09421 0.9042 0.0
C564 C 0.32634 0.08419 0.92606 0.0
C565 C 0.31497 0.10019 0.91484 0.0
C566 C 0.3117 0.05755 0.95132 0.0
C567 C 0.28625 0.04764 0.96795 0.0
C568 C 0.28868 0.08812 0.91302 0.0
C569 C 0.27414 0.06157 0.93676 0.0
C570 C 0.35372 0.06492 0.61986 0.0
C571 C 0.35461 0.13039 0.60217 0.0
C572 C 0.40931 0.16566 0.47928 0.0
C573 C 0.39311 0.17303 0.42945 0.0
C574 C 0.40072 0.20092 0.4228 0.0
C575 C 0.36866 0.15191 0.39446 0.0
C576 C 0.35104 0.15812 0.35808 0.0
C577 C 0.3839 0.20733 0.38086 0.0
C578 C 0.35915 0.18605 0.34843 0.0
C579 C 0.42416 0.17157 0.76087 0.0
H580 H 0.32625 0.12181 0.90547 0.0
H581 H 0.32087 0.04579 0.96431 0.0
H582 H 0.27982 0.10011 0.89883 0.0
H583 H 0.25426 0.05423 0.94162 0.0
H584 H 0.41949 0.21761 0.45023 0.0
H585 H 0.36319 0.13031 0.39544 0.0
H586 H 0.3899 0.22885 0.37463 0.0
H587 H 0.34654 0.19145 0.31594 0.0
Gd588 Gd 0.93718 0.22656 0.69675 0.0
Gd589 Gd 0.948 0.18223 0.82721 0.0
C590 C 0.02094 0.17832 0.82891 0.0
C591 C 0.00502 0.13236 0.75663 0.0
C592 C 0.97587 0.14878 0.77972 0.0
C593 C 0.99601 0.17395 0.81786 0.0
C594 C 0.98002 0.12731 0.7515 0.0
C595 C 0.02543 0.15777 0.79577 0.0
C596 C 0.04029 0.20237 0.87741 0.0
C597 C 0.03426 0.22051 0.91734 0.0
N598 N 0.99081 0.1929 0.85191 0.0
C599 C 0.00924 0.21514 0.90524 0.0
H600 H 0.00502 0.2288 0.94031 0.0
C601 C 0.93114 0.11781 0.75821 0.0
N602 N 0.9519 0.14425 0.77827 0.0
C603 C 0.93431 0.09588 0.72993 0.0
C604 C 0.95883 0.10083 0.72434 0.0
H605 H 0.91208 0.11392 0.76194 0.0
H606 H 0.04441 0.16076 0.80372 0.0
H607 H 0.94857 0.21547 0.49908 0.0
H608 H 0.05964 0.20645 0.88754 0.0
H609 H 0.0488 0.23849 0.95828 0.0
H610 H 0.0086 0.11623 0.73453 0.0
H611 H 0.90157 0.24101 0.8102 0.0
H612 H 0.88244 0.19454 0.33537 0.0
H613 H 0.92604 0.20252 0.3601 0.0
H614 H 0.82856 0.20611 0.50823 0.0
H615 H 0.91787 0.07516 0.71269 0.0
H616 H 0.96122 0.08376 0.70272 0.0
H617 H 0.84606 0.19538 0.39124 0.0
H618 H 0.86129 0.2408 0.79196 0.0
N619 N 0.91806 0.21454 0.55725 0.0
C620 C 0.89221 0.20014 0.39768 0.0
C621 C 0.91683 0.20471 0.41135 0.0
C622 C 0.88078 0.20367 0.46415 0.0
C623 C 0.89427 0.2109 0.54433 0.0
C624 C 0.92967 0.21227 0.49138 0.0
N625 N 0.89753 0.22365 0.68694 0.0
C626 C 0.88386 0.21585 0.61085 0.0
C627 C 0.86718 0.23327 0.74085 0.0
C628 C 0.85237 0.22419 0.664 0.0
C629 C 0.88993 0.2331 0.7511 0.0
C630 C 0.86051 0.21521 0.59795 0.0
H631 H 0.83516 0.22519 0.65537 0.0
O632 O 0.97233 0.26704 0.72117 0.0
O633 O 0.96554 0.21601 0.74881 0.0
O634 O 0.96995 0.22847 0.87745 0.0
O635 O 0.93838 0.23636 0.83336 0.0
O636 O 0.96877 0.22751 0.63099 0.0
O637 O 0.93723 0.26496 0.68082 0.0
O638 O 0.94788 0.19266 0.95678 0.0
O639 O 0.92127 0.19733 0.79137 0.0
O640 O 0.91741 0.18268 0.62621 0.0
O641 O 0.93866 0.16328 0.69399 0.0
O642 O 0.90456 0.15543 0.80125 0.0
O643 O 0.93567 0.1505 0.91147 0.0
C644 C 0.97773 0.21876 0.68782 0.0
C645 C 0.84669 0.20708 0.51888 0.0
C646 C 0.8567 0.20107 0.45225 0.0
C647 C 0.96155 0.28116 0.70356 0.0
C648 C 0.97553 0.30469 0.65658 0.0
C649 C 0.98403 0.33191 0.6915 0.0
C650 C 0.98209 0.30044 0.57975 0.0
C651 C 0.9977 0.32326 0.53848 0.0
C652 C 0.99933 0.3547 0.65001 0.0
C653 C 0.00645 0.35047 0.57399 0.0
C654 C 0.95946 0.24397 0.88266 0.0
C655 C 0.90003 0.17467 0.78373 0.0
C656 C 0.94313 0.16849 0.97617 0.0
C657 C 0.96158 0.16851 1.04011 0.0
C658 C 0.96319 0.1446 1.04825 0.0
C659 C 0.97841 0.19301 0.0922 0.0
C660 C 0.99668 0.19397 0.15153 0.0
C661 C 0.98133 0.14541 0.10775 0.0
C662 C 0.99794 0.16996 0.15982 0.0
C663 C 0.92339 0.16304 0.63164 0.0
H664 H 0.97923 0.33553 0.7514 0.0
H665 H 0.97594 0.27941 0.55369 0.0
H666 H 0.00606 0.37569 0.67757 0.0
H667 H 0.01883 0.36826 0.54329 0.0
H668 H 0.95051 0.12535 1.0087 0.0
H669 H 0.97701 0.21143 0.08793 0.0
H670 H 0.98237 0.1269 0.1139 0.0
H671 H 0.01158 0.1702 0.20663 0.0
Gd672 Gd 0.88341 0.66416 0.89392 0.0
Gd673 Gd 0.84295 0.60783 0.73001 0.0
C674 C 0.75995 0.54271 0.74379 0.0
C675 C 0.76127 0.50027 0.74742 0.0
C676 C 0.80054 0.54491 0.74627 0.0
C677 C 0.78685 0.55848 0.74885 0.0
C678 C 0.78766 0.51554 0.7431 0.0
C679 C 0.74738 0.51378 0.74642 0.0
C680 C 0.74628 0.55614 0.73025 0.0
C681 C 0.75928 0.58483 0.72741 0.0
N682 N 0.79934 0.58653 0.74531 0.0
C683 C 0.78591 0.59978 0.73466 0.0
H684 H 0.7955 0.62179 0.72951 0.0
C685 C 0.83781 0.54644 0.71087 0.0
N686 N 0.82566 0.55986 0.73586 0.0
C687 C 0.82625 0.5176 0.71035 0.0
C688 C 0.80122 0.50212 0.7286 0.0
H689 H 0.85667 0.55827 0.69234 0.0
H690 H 0.72677 0.5015 0.74436 0.0
H691 H 0.93653 0.65868 0.90826 0.0
H692 H 0.72559 0.54437 0.71968 0.0
H693 H 0.74877 0.59535 0.71743 0.0
H694 H 0.75116 0.47778 0.74595 0.0
H695 H 0.86123 0.70806 0.91119 0.0
H696 H 1.00061 0.73875 0.88935 0.0
H697 H 0.98237 0.68894 0.90619 0.0
H698 H 0.96544 0.79727 0.86938 0.0
H699 H 0.83642 0.50729 0.69376 0.0
H700 H 0.792 0.47964 0.72584 0.0
H701 H 0.99397 0.7785 0.8701 0.0
H702 H 0.8773 0.75804 0.90615 0.0
N703 N 0.92767 0.69024 0.8863 0.0
C704 C 0.98014 0.7253 0.88741 0.0
C705 C 0.96993 0.69726 0.8976 0.0
C706 C 0.96402 0.73602 0.87895 0.0
C707 C 0.93756 0.71793 0.8805 0.0
C708 C 0.94362 0.68002 0.89805 0.0
N709 N 0.8966 0.71142 0.89122 0.0
C710 C 0.92159 0.72876 0.88243 0.0
C711 C 0.8899 0.75006 0.89899 0.0
C712 C 0.91524 0.76799 0.88668 0.0
C713 C 0.8809 0.72175 0.90218 0.0
C714 C 0.93153 0.75755 0.87959 0.0
H715 H 0.92217 0.78996 0.88455 0.0
O716 O 0.89541 0.68917 1.01349 0.0
O717 O 0.8449 0.62602 0.85709 0.0
O718 O 0.8393 0.6462 0.71363 0.0
O719 O 0.87725 0.68292 0.7838 0.0
O720 O 0.84543 0.6587 0.92193 0.0
O721 O 0.88579 0.64622 1.00535 0.0
O722 O 0.8542 0.60979 0.60689 0.0
O723 O 0.88099 0.64623 0.76691 0.0
O724 O 0.89273 0.63001 0.89619 0.0
O725 O 0.8575 0.5895 0.82511 0.0
O726 O 0.88089 0.61354 0.70067 0.0
O727 O 0.81441 0.59051 0.62073 0.0
C728 C 0.83073 0.63345 0.88783 0.0
C729 C 0.95753 0.77516 0.87241 0.0
C730 C 0.97376 0.76446 0.87267 0.0
C731 C 0.89636 0.66996 1.05161 0.0
C732 C 0.92035 0.67782 0.1038 0.0
C733 C 0.94385 0.70186 0.09627 0.0
C734 C 0.91972 0.65993 0.16048 0.0
C735 C 0.94201 0.66567 0.21014 0.0
C736 C 0.96628 0.70731 0.14379 0.0
C737 C 0.96545 0.68925 0.20054 0.0
C738 C 0.85651 0.67327 0.73048 0.0
C739 C 0.89523 0.63896 0.73523 0.0
C740 C 0.83093 0.59237 0.57295 0.0
C741 C 0.82599 0.56574 0.52988 0.0
C742 C 0.80109 0.54381 0.50087 0.0
C743 C 0.84638 0.56144 0.52284 0.0
C744 C 0.84278 0.53663 0.48287 0.0
C745 C 0.79704 0.51845 0.46398 0.0
C746 C 0.81779 0.51497 0.45373 0.0
C747 C 0.87921 0.6026 0.87609 0.0
H748 H 0.94497 0.71629 1.05353 0.0
H749 H 0.90162 0.64128 0.16602 0.0
H750 H 0.98433 0.72573 0.13711 0.0
H751 H 0.98284 0.69405 0.23824 0.0
H752 H 0.78481 0.54619 0.50724 0.0
H753 H 0.86549 0.57806 0.54651 0.0
H754 H 0.77781 0.50167 0.44147 0.0
H755 H 0.8144 0.49576 0.42129 0.0
C756 C 0.07545 0.50314 0.89496 0.0
C757 C 0.08357 0.48783 0.94097 0.0
C758 C 0.07534 0.50318 0.80722 0.0
C759 C 0.08295 0.48697 0.76012 0.0
C760 C 0.09081 0.47113 0.80612 0.0
C761 C 0.09122 0.47193 0.89416 0.0
C762 C 0.06719 0.52099 0.76467 0.0
C763 C 0.09855 0.45279 0.76189 0.0
C764 C 0.06075 0.46867 0.51976 0.0
C765 C 0.08272 0.48685 0.48362 0.0
C766 C 0.0606 0.4682 0.60742 0.0
C767 C 0.08285 0.48679 0.66419 0.0
C768 C 0.10505 0.50531 0.62795 0.0
C769 C 0.10482 0.50481 0.54007 0.0
C770 C 0.03646 0.44719 0.63935 0.0
C771 C 0.12932 0.52611 0.68251 0.0
H772 H 0.06937 0.51562 0.92799 0.0
H773 H 0.0971 0.4594 0.92628 0.0
H774 H 0.08265 0.53572 0.73066 0.0
H775 H 0.05014 0.50767 0.71877 0.0
H776 H 0.06255 0.53313 0.8086 0.0
H777 H 0.10387 0.44142 0.80464 0.0
H778 H 0.08256 0.43738 0.71525 0.0
H779 H 0.11503 0.46556 0.7285 0.0
H780 H 0.04365 0.4539 0.47917 0.0
H781 H 0.12216 0.51905 0.51554 0.0
H782 H 0.02979 0.45806 0.67993 0.0
H783 H 0.04038 0.43369 0.67715 0.0
H784 H 0.02085 0.43376 0.58885 0.0
H785 H 0.14476 0.53983 0.64661 0.0
H786 H 0.13618 0.51501 0.72084 0.0
H787 H 0.12553 0.53932 0.72519 0.0
C788 C 0.63091 0.49881 0.8045 0.0
C789 C 0.61604 0.50679 0.84759 0.0
C790 C 0.63196 0.4995 0.71736 0.0
C791 C 0.61691 0.50722 0.66709 0.0
C792 C 0.60124 0.51455 0.70995 0.0
C793 C 0.60138 0.51473 0.79789 0.0
C794 C 0.64985 0.49243 0.67925 0.0
C795 C 0.5839 0.52228 0.66379 0.0
C796 C 0.63206 0.53288 0.4473 0.0
C797 C 0.61963 0.50817 0.3914 0.0
C798 C 0.63181 0.5328 0.53502 0.0
C799 C 0.61764 0.50749 0.5713 0.0
C800 C 0.60437 0.48251 0.5145 0.0
C801 C 0.60612 0.48312 0.42756 0.0
C802 C 0.64715 0.56023 0.58914 0.0
C803 C 0.58778 0.45456 0.54411 0.0
H804 H 0.64238 0.49237 0.83935 0.0
H805 H 0.58932 0.52054 0.8275 0.0
H806 H 0.63871 0.47312 0.63566 0.0
H807 H 0.6625 0.50942 0.64371 0.0
H808 H 0.66192 0.48914 0.72602 0.0
H809 H 0.56622 0.51536 0.69325 0.0
H810 H 0.59384 0.54531 0.66614 0.0
H811 H 0.57842 0.5131 0.59831 0.0
H812 H 0.64268 0.5526 0.42251 0.0
H813 H 0.59604 0.46364 0.38722 0.0
H814 H 0.65765 0.55821 0.64411 0.0
H815 H 0.63405 0.56667 0.61098 0.0
H816 H 0.66112 0.57699 0.55565 0.0
H817 H 0.59869 0.44379 0.5504 0.0
H818 H 0.57066 0.44114 0.49833 0.0
H819 H 0.58131 0.45636 0.60427 0.0
C820 C 0.56686 0.04515 0.5557 0.0
C821 C 0.5893 0.06273 0.6111 0.0
C822 C 0.56576 0.04566 0.46792 0.0
C823 C 0.58797 0.06346 0.43015 0.0
C824 C 0.61085 0.08093 0.48611 0.0
C825 C 0.61104 0.08086 0.57395 0.0
C826 C 0.54022 0.02687 0.41653 0.0
C827 C 0.63572 0.09999 0.45418 0.0
C828 C 0.58395 0.04143 0.19271 0.0
C829 C 0.58637 0.06424 0.15299 0.0
C830 C 0.58492 0.04111 0.28049 0.0
C831 C 0.58732 0.06372 0.33395 0.0
C832 C 0.58902 0.08651 0.29356 0.0
C833 C 0.58905 0.08669 0.20583 0.0
C834 C 0.58342 0.01602 0.31468 0.0
C835 C 0.59059 0.11118 0.34188 0.0
H836 H 0.54956 0.03131 0.58112 0.0
H837 H 0.62869 0.0948 0.61381 0.0
H838 H 0.53879 0.03445 0.3565 0.0
H839 H 0.53728 0.00569 0.40479 0.0
H840 H 0.52441 0.02487 0.45008 0.0
H841 H 0.65226 0.10308 0.49649 0.0
H842 H 0.63661 0.09186 0.39193 0.0
H843 H 0.63778 0.12072 0.45091 0.0
H844 H 0.5818 0.02364 0.1551 0.0
H845 H 0.59055 0.10447 0.17835 0.0
H846 H 0.56305 0.99924 0.31046 0.0
H847 H 0.59216 0.02069 0.37986 0.0
H848 H 0.59308 0.00778 0.27764 0.0
H849 H 0.58311 0.10628 0.40194 0.0
H850 H 0.57977 0.11889 0.30593 0.0
H851 H 0.61085 0.12844 0.35313 0.0
C852 C 0.77286 0.90272 0.66003 0.0
C853 C 0.79546 0.91472 0.62172 0.0
C854 C 0.77299 0.9026 0.74786 0.0
C855 C 0.7964 0.91577 0.80311 0.0
C856 C 0.81929 0.92833 0.76444 0.0
C857 C 0.8185 0.92715 0.67637 0.0
C858 C 0.74745 0.88783 0.77993 0.0
C859 C 0.84519 0.94342 0.81547 0.0
C860 C 0.79174 0.9344 1.03565 0.0
C861 C 0.79855 0.91795 0.08086 0.0
C862 C 0.79134 0.93423 0.94777 0.0
C863 C 0.79705 0.9164 0.89951 0.0
C864 C 0.80368 0.89948 0.9452 0.0
C865 C 0.80485 0.9009 1.03348 0.0
C866 C 0.7849 0.95365 0.90705 0.0
C867 C 0.80954 0.87932 0.90173 0.0
H868 H 0.75467 0.89266 0.62101 0.0
H869 H 0.83638 0.93665 0.65043 0.0
H870 H 0.74875 0.88229 0.84322 0.0
H871 H 0.73926 0.9015 0.77981 0.0
H872 H 0.73385 0.86847 0.73862 0.0
H873 H 0.85949 0.96052 0.78371 0.0
H874 H 0.84474 0.95238 0.87708 0.0
H875 H 0.85182 0.92856 0.8239 0.0
H876 H 0.78735 0.94827 1.06958 0.0
H877 H 0.81012 0.88784 1.0654 0.0
H878 H 0.76441 0.94195 0.88136 0.0
H879 H 0.79639 0.96236 0.85579 0.0
H880 H 0.78813 0.97118 0.95169 0.0
H881 H 0.80319 0.86051 0.93444 0.0
H882 H 0.83053 0.88949 0.9022 0.0
H883 H 0.80033 0.87257 0.83691 0.0
C884 C 0.21404 0.78315 0.7721 0.0
C885 C 0.20302 0.7964 0.72681 0.0
C886 C 0.21557 0.78273 0.86265 0.0
C887 C 0.20454 0.7943 0.91672 0.0
C888 C 0.19243 0.80645 0.87013 0.0
C889 C 0.19237 0.80772 0.78115 0.0
C890 C 0.22914 0.76907 0.89929 0.0
C891 C 0.17809 0.81774 0.91272 0.0
C892 C 0.19374 0.76675 0.14547 0.0
C893 C 0.20425 0.7905 0.20647 0.0
C894 C 0.1929 0.76753 1.056 0.0
C895 C 0.20474 0.79311 1.01763 0.0
C896 C 0.21603 0.81741 0.07944 0.0
C897 C 0.21506 0.81582 0.16877 0.0
C898 C 0.1784 0.7398 1.00332 0.0
C899 C 0.23034 0.84622 1.05323 0.0
H900 H 0.22129 0.77235 0.7369 0.0
H901 H 0.18277 0.81746 0.75291 0.0
H902 H 0.23545 0.77566 0.96625 0.0
H903 H 0.21611 0.74611 0.88902 0.0
H904 H 0.24607 0.77391 0.86795 0.0
H905 H 0.16053 0.81288 0.87248 0.0
H906 H 0.17242 0.80924 0.97194 0.0
H907 H 0.19027 0.84079 0.92439 0.0
H908 H 0.18532 0.74653 0.16808 0.0
H909 H 0.22387 0.83511 0.20947 0.0
H910 H 0.1904 0.73023 1.00327 0.0
H911 H 0.17283 0.74153 0.93893 0.0
H912 H 0.1608 0.72534 1.0298 0.0
H913 H 0.24813 0.85966 0.09635 0.0
H914 H 0.21838 0.85579 1.05663 0.0
H915 H 0.23553 0.84624 0.98993 0.0
C916 C 0.29692 0.30149 0.76808 0.0
C917 C 0.27418 0.28998 0.71251 0.0
C918 C 0.29711 0.30044 0.85559 0.0
C919 C 0.27395 0.28856 0.89303 0.0
C920 C 0.25091 0.27732 0.83694 0.0
C921 C 0.25129 0.27755 0.74929 0.0
C922 C 0.32268 0.31212 0.90688 0.0
C923 C 0.22537 0.26496 0.86882 0.0
C924 C 0.26528 0.26301 0.11543 0.0
C925 C 0.27389 0.28749 0.16989 0.0
C926 C 0.26566 0.26304 1.02772 0.0
C927 C 0.27379 0.28804 0.98906 0.0
C928 C 0.2818 0.31268 1.04399 0.0
C929 C 0.2823 0.3122 0.13172 0.0
C930 C 0.25736 0.23573 0.97757 0.0
C931 C 0.28983 0.34007 1.01075 0.0
H932 H 0.31493 0.31074 0.74295 0.0
H933 H 0.23334 0.26839 0.70929 0.0
H934 H 0.33218 0.33517 0.91715 0.0
H935 H 0.32108 0.30396 0.96749 0.0
H936 H 0.3353 0.30726 0.87355 0.0
H937 H 0.21807 0.24269 0.8756 0.0
H938 H 0.22684 0.27579 0.92975 0.0
H939 H 0.2111 0.26597 0.82525 0.0
H940 H 0.25873 0.24353 0.14159 0.0
H941 H 0.28889 0.33149 0.17065 0.0
H942 H 0.26456 0.23848 0.91678 0.0
H943 H 0.23617 0.22307 0.96774 0.0
H944 H 0.26406 0.22361 1.01159 0.0
H945 H 0.31045 0.35065 1.00382 0.0
H946 H 0.28705 0.35415 1.05355 0.0
H947 H 0.279 0.33706 0.94967 0.0
C948 C 0.31278 0.11139 0.36909 0.0
C949 C 0.32517 0.13458 0.32525 0.0
C950 C 0.29322 0.08549 0.32977 0.0
C951 C 0.28713 0.08243 0.24361 0.0
C952 C 0.29663 0.10679 0.20217 0.0
C953 C 0.31537 0.1327 0.24408 0.0
C954 C 0.28165 0.06111 0.3795 0.0
C955 C 0.29095 0.10526 0.11055 0.0
C956 C 0.29525 0.03457 0.10209 0.0
C957 C 0.2765 0.03117 1.03969 0.0
C958 C 0.29798 0.04912 0.17835 0.0
C959 C 0.27893 0.05539 0.19455 0.0
C960 C 0.25511 0.04072 0.14423 0.0
C961 C 0.25381 0.02757 1.06663 0.0
C962 C 0.32283 0.06128 0.23458 0.0
C963 C 0.23248 0.04232 0.16638 0.0
H964 H 0.32006 0.11255 0.43201 0.0
H965 H 0.32461 0.15061 0.21016 0.0
H966 H 0.29647 0.05653 0.40302 0.0
H967 H 0.27493 0.06673 0.43435 0.0
H968 H 0.26534 0.04206 0.34361 0.0
H969 H 0.29637 0.12594 0.09044 0.0
H970 H 0.30241 0.09782 0.08131 0.0
H971 H 0.27045 0.09065 0.08883 0.0
H972 H 0.3109 0.03214 0.08661 0.0
H973 H 0.23683 0.01984 1.02269 0.0
H974 H 0.31893 0.05372 0.29572 0.0
H975 H 0.33274 0.08439 0.24337 0.0
H976 H 0.33602 0.05544 0.20976 0.0
H977 H 0.2312 0.05839 0.13362 0.0
H978 H 0.23405 0.04778 0.23369 0.0
H979 H 0.21451 0.02208 0.14645 0.0
C980 C 0.03189 0.32509 0.46313 0.0
C981 C 0.00637 0.31778 0.46249 0.0
C982 C 0.03863 0.3112 0.40566 0.0
C983 C 0.01927 0.28993 0.34673 0.0
C984 C 0.99438 0.28589 0.33832 0.0
C985 C 0.98812 0.29966 0.39729 0.0
C986 C 0.06611 0.31857 0.41155 0.0
C987 C 0.97359 0.26487 0.27239 0.0
C988 C 0.02463 0.24537 0.17894 0.0
C989 C 0.0119 0.2195 0.20963 0.0
C990 C 0.03027 0.26977 0.22703 0.0
C991 C 0.02271 0.2679 0.30668 0.0
C992 C 0.0131 0.2424 0.34156 0.0
C993 C 0.00793 0.21839 0.29243 0.0
C994 C 0.04094 0.29647 0.18808 0.0
C995 C 0.00476 0.23947 0.4265 0.0
H996 H 0.04606 0.33966 0.51301 0.0
H997 H 0.96845 0.29447 0.39648 0.0
H998 H 0.06834 0.30162 0.3832 0.0
H999 H 0.07689 0.33716 0.37887 0.0
H1000 H 0.07507 0.3243 0.47673 0.0
H1001 H 0.95757 0.26878 0.26281 0.0
H1002 H 0.98124 0.26537 0.21296 0.0
H1003 H 0.96584 0.2436 0.29099 0.0
H1004 H 0.02782 0.24612 0.11473 0.0
H1005 H 0.99806 0.19832 0.31598 0.0
H1006 H 0.0524 0.31504 0.23428 0.0
H1007 H 0.02476 0.29768 0.15772 0.0
H1008 H 0.05303 0.29694 0.14044 0.0
H1009 H 0.01803 0.25824 0.47023 0.0
H1010 H 0.00332 0.22081 0.45113 0.0
H1011 H 0.9856 0.23712 0.42304 0.0
C1012 C 0.86648 0.53373 0.37204 0.0
C1013 C 0.86566 0.53707 0.4568 0.0
C1014 C 0.88881 0.55169 0.33868 0.0
C1015 C 0.91019 0.57301 0.392 0.0
C1016 C 0.9114 0.57059 0.47729 0.0
C1017 C 0.88893 0.55202 0.50919 0.0
C1018 C 0.88761 0.55145 0.24655 0.0
C1019 C 0.93457 0.59125 0.53598 0.0
C1020 C 0.95391 0.63412 0.27949 0.0
C1021 C 0.93955 0.64717 0.27376 0.0
C1022 C 0.94579 0.61053 0.32257 0.0
C1023 C 0.9239 0.60129 0.36408 0.0
C1024 C 0.91225 0.6176 0.36873 0.0
C1025 C 0.91997 0.63995 0.32265 0.0
C1026 C 0.9599 0.595 0.3206 0.0
C1027 C 0.89061 0.61083 0.4187 0.0
H1028 H 0.84884 0.52096 0.33088 0.0
H1029 H 0.88865 0.55334 0.57536 0.0
H1030 H 0.88512 0.56872 0.22805 0.0
H1031 H 0.90563 0.55451 0.2265 0.0
H1032 H 0.87137 0.53153 0.21425 0.0
H1033 H 0.93557 0.5824 0.59406 0.0
H1034 H 0.95236 0.59782 0.50766 0.0
H1035 H 0.93336 0.61002 0.5516 0.0
H1036 H 0.96984 0.64059 0.24415 0.0
H1037 H 0.90992 0.65124 0.32197 0.0
H1038 H 0.94643 0.57214 0.30829 0.0
H1039 H 0.97115 0.59921 0.38165 0.0
H1040 H 0.97326 0.60159 0.27328 0.0
H1041 H 0.87399 0.58995 0.39532 0.0
H1042 H 0.8842 0.62611 0.41656 0.0
H1043 H 0.89701 0.61099 0.48389 0.0
C1044 C 0.23958 0.33804 0.30194 0.0
C1045 C 0.24445 0.33111 0.37931 0.0
C1046 C 0.23087 0.35676 0.29353 0.0
C1047 C 0.22534 0.36778 0.36376 0.0
C1048 C 0.23001 0.3606 0.44235 0.0
C1049 C 0.23985 0.34267 0.44934 0.0
C1050 C 0.2275 0.36464 0.209 0.0
C1051 C 0.22345 0.37074 0.51858 0.0
C1052 C 0.2236 0.4343 0.34223 0.0
C1053 C 0.1979 0.42408 0.31178 0.0
C1054 C 0.23252 0.4164 0.36154 0.0
C1055 C 0.2153 0.38723 0.35397 0.0
C1056 C 0.1889 0.37679 0.32975 0.0
C1057 C 0.18056 0.39523 0.30809 0.0
C1058 C 0.26074 0.42877 0.38597 0.0
C1059 C 0.16957 0.34599 0.32403 0.0
H1060 H 0.24271 0.32876 0.24752 0.0
H1061 H 0.24273 0.33661 0.50895 0.0
H1062 H 0.20705 0.35714 0.19016 0.0
H1063 H 0.23827 0.38768 0.21027 0.0
H1064 H 0.23421 0.35573 0.16165 0.0
H1065 H 0.22993 0.36511 0.57559 0.0
H1066 H 0.23214 0.39368 0.52415 0.0
H1067 H 0.20242 0.36134 0.51375 0.0
H1068 H 0.23717 0.45656 0.34896 0.0
H1069 H 0.16062 0.38687 0.28547 0.0
H1070 H 0.26841 0.42111 0.33866 0.0
H1071 H 0.26407 0.42201 0.44544 0.0
H1072 H 0.27159 0.45193 0.39214 0.0
H1073 H 0.17198 0.33489 0.27043 0.0
H1074 H 0.14963 0.34159 0.31663 0.0
H1075 H 0.17262 0.33731 0.37998 0.0
C1076 C 0.69338 0.70433 0.23714 0.0
C1077 C 0.66698 0.69399 0.23044 0.0
C1078 C 0.71133 0.73308 0.25732 0.0
C1079 C 0.70278 0.75217 0.26816 0.0
C1080 C 0.67624 0.74161 0.26642 0.0
C1081 C 0.65888 0.71283 0.24914 0.0
C1082 C 0.73948 0.74308 0.26499 0.0
C1083 C 0.66543 0.7603 0.27691 0.0
C1084 C 0.7479 0.82876 0.35473 0.0
C1085 C 0.75689 0.84102 0.28316 0.0
C1086 C 0.73076 0.7998 0.35134 0.0
C1087 C 0.72132 0.78298 0.27406 0.0
C1088 C 0.7296 0.79569 0.20144 0.0
C1089 C 0.74809 0.82425 0.20733 0.0
C1090 C 0.72305 0.78713 0.43047 0.0
C1091 C 0.71867 0.77923 0.11724 0.0
H1092 H 0.70011 0.69019 0.22389 0.0
H1093 H 0.63866 0.70523 0.248 0.0
H1094 H 0.74761 0.75336 0.21014 0.0
H1095 H 0.74986 0.75871 0.31998 0.0
H1096 H 0.74304 0.72565 0.26991 0.0
H1097 H 0.64863 0.75063 0.31141 0.0
H1098 H 0.67951 0.78116 0.3093 0.0
H1099 H 0.6587 0.76278 0.21497 0.0
H1100 H 0.75516 0.84162 0.41373 0.0
H1101 H 0.75524 0.83372 0.15212 0.0
H1102 H 0.726 0.76922 0.43324 0.0
H1103 H 0.70243 0.77906 0.43265 0.0
H1104 H 0.73406 0.80246 0.48572 0.0
H1105 H 0.72463 0.76369 0.10913 0.0
H1106 H 0.72502 0.7928 1.06694 0.0
H1107 H 0.69746 0.76763 0.11107 0.0
C1108 C 0.44706 0.96626 0.12107 0.0
C1109 C 0.47015 0.97444 0.16978 0.0
C1110 C 0.42456 0.9578 0.15672 0.0
C1111 C 0.42511 0.95719 0.24301 0.0
C1112 C 0.44873 0.96787 0.2932 0.0
C1113 C 0.47105 0.97647 0.25594 0.0
C1114 C 0.39983 0.94731 0.10126 0.0
C1115 C 0.45017 0.96829 0.38563 0.0
C1116 C 0.36233 0.93823 0.32209 0.0
C1117 C 0.35035 0.90907 0.31687 0.0
C1118 C 0.3874 0.95461 0.30322 0.0
C1119 C 0.40063 0.94143 0.27796 0.0
C1120 C 0.38917 0.91219 0.27746 0.0
C1121 C 0.36416 0.89638 0.29677 0.0
C1122 C 0.39892 0.98571 0.30598 0.0
C1123 C 0.40275 0.89733 0.25186 0.0
H1124 H 0.44609 0.96453 1.05453 0.0
H1125 H 0.48898 0.98351 0.29412 0.0
H1126 H 0.38774 0.92433 0.09989 0.0
H1127 H 0.389 0.95654 0.12535 0.0
H1128 H 0.40306 0.95229 1.03712 0.0
H1129 H 0.47016 0.98105 0.41644 0.0
H1130 H 0.43871 0.97661 0.41033 0.0
H1131 H 0.44199 0.94666 0.4017 0.0
H1132 H 0.35189 0.94822 0.33909 0.0
H1133 H 0.35499 0.87387 0.29206 0.0
H1134 H 0.3946 0.99064 0.24439 0.0
H1135 H 0.41999 0.99727 0.32206 0.0
H1136 H 0.39065 0.99334 0.35131 0.0
H1137 H 0.40502 0.89867 0.18549 0.0
H1138 H 0.39215 0.87497 0.26191 0.0
H1139 H 0.42216 0.90748 0.28681 0.0
C1140 C 0.53512 0.0904 0.74138 0.0
C1141 C 0.54078 0.08386 0.81803 0.0
C1142 C 0.51688 0.09836 0.72835 0.0
C1143 C 0.502 0.09759 0.7913 0.0
C1144 C 0.5075 0.09066 0.86936 0.0
C1145 C 0.52717 0.08447 0.88228 0.0
C1146 C 0.51395 0.10798 0.64715 0.0
C1147 C 0.49147 0.08787 0.9375 0.0
C1148 C 0.46163 0.13233 0.78994 0.0
C1149 C 0.43768 0.11099 0.75046 0.0
C1150 C 0.48296 0.12886 0.79911 0.0
C1151 C 0.48001 0.1026 0.77432 0.0
C1152 C 0.4557 0.08087 0.73467 0.0
C1153 C 0.43508 0.08552 0.72167 0.0
C1154 C 0.50868 0.15341 0.83526 0.0
C1155 C 0.45114 0.05226 0.7088 0.0
H1156 H 0.54486 0.08889 0.69062 0.0
H1157 H 0.53054 0.07803 0.94066 0.0
H1158 H 0.49364 0.09642 0.62015 0.0
H1159 H 0.52055 0.13046 0.6584 0.0
H1160 H 0.52542 0.10534 0.60215 0.0
H1161 H 0.4978 0.08182 0.99389 0.0
H1162 H 0.49231 0.1078 0.95378 0.0
H1163 H 0.47118 0.07185 0.91604 0.0
H1164 H 0.46375 0.15199 0.81322 0.0
H1165 H 0.41649 0.06869 0.69313 0.0
H1166 H 0.52322 0.15642 0.79413 0.0
H1167 H 0.51489 0.1494 0.89561 0.0
H1168 H 0.50837 0.17302 0.84413 0.0
H1169 H 0.46303 0.05338 0.65992 0.0
H1170 H 0.4308 0.03704 0.68499 0.0
H1171 H 0.45687 0.04436 0.76187 0.0
C1172 C 0.99976 0.28649 0.95391 0.0
C1173 C 0.97311 0.27184 0.93274 0.0
C1174 C 0.01294 0.31374 0.99604 0.0
C1175 C 0.99916 0.32661 1.01921 0.0
C1176 C 0.97221 0.31159 0.99893 0.0
C1177 C 0.9596 0.28467 0.95537 0.0
C1178 C 0.04171 0.32898 1.01392 0.0
C1179 C 0.95664 0.32403 1.02279 0.0
C1180 C 0.03095 0.38644 0.19574 0.0
C1181 C 0.04258 0.41001 0.15355 0.0
C1182 C 0.01614 0.35935 0.15334 0.0
C1183 C 0.01289 0.35548 1.06575 0.0
C1184 C 0.02385 0.37941 1.02281 0.0
C1185 C 0.03887 0.40627 1.06707 0.0
C1186 C 0.00481 0.33532 0.20445 0.0
C1187 C 0.0199 0.37669 0.92989 0.0
H1188 H 0.01047 0.27699 0.93542 0.0
H1189 H 0.93903 0.27357 0.93918 0.0
H1190 H 0.05023 0.34535 0.97209 0.0
H1191 H 0.04826 0.33953 0.07799 0.0
H1192 H 0.04916 0.31477 1.00455 0.0
H1193 H 0.93583 0.30972 1.00338 0.0
H1194 H 0.95987 0.32938 0.09063 0.0
H1195 H 0.963 0.34348 0.99375 0.0
H1196 H 0.03393 0.38912 0.26257 0.0
H1197 H 0.04825 0.42431 1.03386 0.0
H1198 H 0.0205 0.33544 0.24368 0.0
H1199 H 0.99295 0.31464 0.16768 0.0
H1200 H 0.99287 0.33827 0.24673 0.0
H1201 H 0.02879 0.36546 0.90395 0.0
H1202 H 0.02821 0.39729 0.90594 0.0
H1203 H 0.99916 0.36423 0.90718 0.0
C1204 C 0.79805 0.58829 0.93814 0.0
C1205 C 0.80529 0.61491 0.91595 0.0
C1206 C 0.77482 0.57198 0.97106 0.0
C1207 C 0.75822 0.58236 0.98165 0.0
C1208 C 0.76547 0.60913 0.95818 0.0
C1209 C 0.78894 0.62512 0.9271 0.0
C1210 C 0.76825 0.54383 0.99553 0.0
C1211 C 0.74838 0.62102 0.96596 0.0
C1212 C 0.6865 0.53759 0.99292 0.0
C1213 C 0.68468 0.54357 0.07508 0.0
C1214 C 0.71025 0.54798 0.96349 0.0
C1215 C 0.73324 0.56568 1.01667 0.0
C1216 C 0.73159 0.57052 0.10139 0.0
C1217 C 0.70738 0.55988 0.12919 0.0
C1218 C 0.71046 0.54184 0.87356 0.0
C1219 C 0.75533 0.58853 0.16168 0.0
H1220 H 0.81079 0.58043 0.93116 0.0
H1221 H 0.79449 0.64573 0.91068 0.0
H1222 H 0.76377 0.54234 1.05997 0.0
H1223 H 0.751 0.52726 0.95555 0.0
H1224 H 0.78403 0.53972 0.99016 0.0
H1225 H 0.75633 0.6417 0.94275 0.0
H1226 H 0.72926 0.60655 0.93095 0.0
H1227 H 0.74565 0.62331 1.03145 0.0
H1228 H 0.66925 0.52626 0.94995 0.0
H1229 H 0.70621 0.56567 0.19227 0.0
H1230 H 0.72358 0.53402 0.86572 0.0
H1231 H 0.7174 0.5614 0.84458 0.0
H1232 H 0.69126 0.52603 0.84149 0.0
H1233 H 0.77006 0.58306 0.15218 0.0
H1234 H 0.75123 0.58637 0.22653 0.0
H1235 H 0.76347 0.61071 0.15139 0.0
C1236 C 0.8894 0.56418 0.86602 0.0
C1237 C 0.89025 0.5867 0.91154 0.0
C1238 C 0.90201 0.55102 0.89855 0.0
C1239 C 0.91567 0.56051 0.97885 0.0
C1240 C 0.91664 0.58335 1.02442 0.0
C1241 C 0.9041 0.59612 0.99026 0.0
C1242 C 0.90152 0.52773 0.84591 0.0
C1243 C 0.93137 0.59541 0.10883 0.0
C1244 C 0.92884 0.51466 0.1106 0.0
C1245 C 0.95558 0.52777 0.11614 0.0
C1246 C 0.91535 0.52406 1.06244 0.0
C1247 C 0.92878 0.54672 1.0165 0.0
C1248 C 0.95552 0.55879 1.01721 0.0
C1249 C 0.96861 0.54933 1.06735 0.0
C1250 C 0.88684 0.51031 1.06345 0.0
C1251 C 0.97058 0.58294 0.96917 0.0
H1252 H 0.87995 0.55757 0.80386 0.0
H1253 H 0.90537 0.61381 1.02571 0.0
H1254 H 0.92137 0.53311 0.83935 0.0
H1255 H 0.89248 0.50834 0.8761 0.0
H1256 H 0.89089 0.5235 0.78354 0.0
H1257 H 0.91956 0.59943 0.14888 0.0
H1258 H 0.93724 0.58201 0.13868 0.0
H1259 H 0.94878 0.61577 0.10398 0.0
H1260 H 0.91844 0.49745 0.14604 0.0
H1261 H 0.98925 0.55981 0.07129 0.0
H1262 H 0.87678 0.49683 1.00454 0.0
H1263 H 0.88104 0.52606 1.06946 0.0
H1264 H 0.88024 0.49713 0.11453 0.0
H1265 H 0.9604 0.57925 0.90641 0.0
H1266 H 0.98999 0.5866 0.96379 0.0
H1267 H 0.97266 0.60215 1.00094 0.0
C1268 C 0.52991 0.32029 1.01057 0.0
C1269 C 0.55484 0.32648 1.00126 0.0
C1270 C 0.50824 0.29603 0.96869 0.0
C1271 C 0.51135 0.27691 0.91772 0.0
C1272 C 0.53635 0.2831 0.90724 0.0
C1273 C 0.55764 0.3079 0.94761 0.0
C1274 C 0.48196 0.29063 0.98014 0.0
C1275 C 0.54067 0.26316 0.85483 0.0
C1276 C 0.45678 0.20085 0.88201 0.0
C1277 C 0.44637 0.19852 0.80053 0.0
C1278 C 0.47796 0.22611 0.92048 0.0
C1279 C 0.48858 0.24999 0.87752 0.0
C1280 C 0.47782 0.24784 0.79558 0.0
C1281 C 0.45714 0.22203 0.75765 0.0
C1282 C 0.48926 0.22708 1.00673 0.0
C1283 C 0.48802 0.27285 0.74817 0.0
H1284 H 0.52718 0.33402 1.05214 0.0
H1285 H 0.57658 0.31256 0.93721 0.0
H1286 H 0.47049 0.28622 0.91932 0.0
H1287 H 0.47179 0.27195 1.01294 0.0
H1288 H 0.48272 0.30855 1.01593 0.0
H1289 H 0.5613 0.2708 0.85374 0.0
H1290 H 0.53158 0.24255 0.87869 0.0
H1291 H 0.53159 0.25985 0.79067 0.0
H1292 H 0.44869 0.18267 0.91519 0.0
H1293 H 0.44903 0.22039 0.69488 0.0
H1294 H 0.48855 0.24283 1.04881 0.0
H1295 H 0.50967 0.23353 1.00738 0.0
H1296 H 0.47906 0.20661 1.03122 0.0
H1297 H 0.48772 0.29016 0.78356 0.0
H1298 H 0.47678 0.2681 0.68663 0.0
H1299 H 0.5082 0.28038 0.7396 0.0
C1300 C 0.86991 0.18409 0.85435 0.0
C1301 C 0.87438 0.17125 0.78708 0.0
C1302 C 0.84505 0.17825 0.86451 0.0
C1303 C 0.82382 0.1584 0.80735 0.0
C1304 C 0.82837 0.14561 0.73863 0.0
C1305 C 0.85351 0.15202 0.72975 0.0
C1306 C 0.84144 0.19277 0.93811 0.0
C1307 C 0.80658 0.12423 0.67625 0.0
C1308 C 0.76091 0.12182 0.90015 0.0
C1309 C 0.74919 0.13681 0.87658 0.0
C1310 C 0.78447 0.12778 0.87501 0.0
C1311 C 0.79693 0.14929 0.82438 0.0
C1312 C 0.78433 0.16318 0.79586 0.0
C1313 C 0.76073 0.15684 0.82227 0.0
C1314 C 0.79661 0.11187 0.9061 0.0
C1315 C 0.79635 0.18582 0.74089 0.0
H1316 H 0.88589 0.19841 0.90001 0.0
H1317 H 0.8568 0.14151 0.67877 0.0
H1318 H 0.83035 0.20248 0.91797 0.0
H1319 H 0.83035 0.1773 0.98002 0.0
H1320 H 0.85994 0.20918 0.97319 0.0
H1321 H 0.81341 0.11832 0.62221 0.0
H1322 H 0.79453 0.10519 0.70556 0.0
H1323 H 0.79424 0.1323 0.65437 0.0
H1324 H 0.75203 0.10598 0.94108 0.0
H1325 H 0.75202 0.16867 0.80387 0.0
H1326 H 0.81424 0.12615 0.94878 0.0
H1327 H 0.80224 0.10349 0.8541 0.0
H1328 H 0.78362 0.09428 0.93921 0.0
H1329 H 0.7827 0.19157 0.71377 0.0
H1330 H 0.8037 0.17911 0.69021 0.0
H1331 H 0.81267 0.20461 0.77759 0.0
C1332 C 0.63935 0.03054 0.91271 0.0
C1333 C 0.63603 0.0469 0.97265 0.0
C1334 C 0.65344 0.01776 0.93407 0.0
C1335 C 0.66581 0.02301 1.01579 0.0
C1336 C 0.66365 0.04087 0.07487 0.0
C1337 C 0.6484 0.05203 1.05305 0.0
C1338 C 0.65472 0.99829 0.86968 0.0
C1339 C 0.67757 0.04839 0.16124 0.0
C1340 C 0.68384 0.97282 0.10177 0.0
C1341 C 0.70893 0.98421 0.08432 0.0
C1342 C 0.66966 0.98526 0.08039 0.0
C1343 C 0.68088 0.00981 1.04033 0.0
C1344 C 0.70678 0.02208 1.0259 0.0
C1345 C 0.72037 0.00879 1.04668 0.0
C1346 C 0.64234 0.97109 0.09789 0.0
C1347 C 0.72018 0.04928 0.98908 0.0
H1348 H 0.63061 0.02737 0.84985 0.0
H1349 H 0.64646 0.0653 0.09919 0.0
H1350 H 0.67458 0.00735 0.85505 0.0
H1351 H 0.64915 0.97812 0.89368 0.0
H1352 H 0.64203 0.99422 0.81179 0.0
H1353 H 0.67582 0.06462 0.19727 0.0
H1354 H 0.66979 0.02961 0.19439 0.0
H1355 H 0.69816 0.05614 0.15911 0.0
H1356 H 0.67499 0.95352 0.12976 0.0
H1357 H 0.73985 0.01744 1.03302 0.0
H1358 H 0.62985 0.95824 1.04078 0.0
H1359 H 0.63692 0.98639 0.11756 0.0
H1360 H 0.63877 0.957 0.14654 0.0
H1361 H 0.71194 0.04627 0.92401 0.0
H1362 H 0.74102 0.05761 0.99098 0.0
H1363 H 0.71737 0.0651 1.02264 0.0
C1364 C 0.14575 0.69191 0.36613 0.0
C1365 C 0.16873 0.70701 0.41982 0.0
C1366 C 0.13514 0.66331 0.33865 0.0
C1367 C 0.14808 0.64937 0.36313 0.0
C1368 C 0.17101 0.66436 0.41853 0.0
C1369 C 0.18061 0.69258 0.44753 0.0
C1370 C 0.11015 0.64808 0.28234 0.0
C1371 C 0.18612 0.65102 0.44455 0.0
C1372 C 0.11163 0.56912 0.33767 0.0
C1373 C 0.11653 0.56298 0.25933 0.0
C1374 C 0.12187 0.59698 0.37249 0.0
C1375 C 0.138 0.61944 0.32907 0.0
C1376 C 0.14382 0.61318 0.25143 0.0
C1377 C 0.13239 0.58518 0.21657 0.0
C1378 C 0.11445 0.60235 0.45411 0.0
C1379 C 0.16182 0.6361 0.20428 0.0
H1380 H 0.1361 0.70248 0.34468 0.0
H1381 H 0.19787 0.7035 0.49097 0.0
H1382 H 0.11337 0.64218 0.22063 0.0
H1383 H 0.09653 0.62853 0.30672 0.0
H1384 H 0.10124 0.66094 0.27508 0.0
H1385 H 0.202 0.66433 0.49439 0.0
H1386 H 0.1736 0.63048 0.46589 0.0
H1387 H 0.19435 0.64731 0.39071 0.0
H1388 H 0.09872 0.55209 0.36995 0.0
H1389 H 0.13577 0.58059 0.15526 0.0
H1390 H 0.10378 0.61333 0.4457 0.0
H1391 H 0.13176 0.61613 0.49857 0.0
H1392 H 0.10233 0.58278 0.48122 0.0
H1393 H 0.15297 0.64803 0.18306 0.0
H1394 H 0.16664 0.62783 0.14971 0.0
H1395 H 0.17979 0.6509 0.24485 0.0
C1396 C 0.55055 0.45898 0.21355 0.0
C1397 C 0.55096 0.46255 0.12952 0.0
C1398 C 0.52745 0.44341 0.24649 0.0
C1399 C 0.50394 0.43012 0.19388 0.0
C1400 C 0.50419 0.43366 0.10882 0.0
C1401 C 0.5277 0.44974 0.07764 0.0
C1402 C 0.52834 0.44063 0.33757 0.0
C1403 C 0.47967 0.41987 1.0504 0.0
C1404 C 0.45081 0.36593 0.27353 0.0
C1405 C 0.43678 0.37636 0.30919 0.0
C1406 C 0.4719 0.38282 0.23265 0.0
C1407 C 0.47949 0.4111 0.22758 0.0
C1408 C 0.4648 0.42148 0.26064 0.0
C1409 C 0.4436 0.40399 0.30068 0.0
C1410 C 0.4866 0.3706 0.19731 0.0
C1411 C 0.47222 0.45147 0.25775 0.0
H1412 H 0.5684 0.46817 0.25383 0.0
H1413 H 0.52792 0.45205 1.01247 0.0
H1414 H 0.51483 0.44547 0.36482 0.0
H1415 H 0.52235 0.41882 0.3471 0.0
H1416 H 0.54776 0.45468 0.37141 0.0
H1417 H 0.48292 0.42582 0.9871 0.0
H1418 H 0.47037 0.39687 1.04767 0.0
H1419 H 0.46617 0.42558 0.0731 0.0
H1420 H 0.44548 0.3445 0.27866 0.0
H1421 H 0.43303 0.41232 0.32847 0.0
H1422 H 0.50603 0.38076 0.2321 0.0
H1423 H 0.48891 0.37467 0.13221 0.0
H1424 H 0.47704 0.34775 0.20005 0.0
H1425 H 0.48931 0.46498 0.30335 0.0
H1426 H 0.45666 0.45505 0.2726 0.0
H1427 H 0.47728 0.458 0.19612 0.0
C1428 C 0.87406 0.7216 0.69272 0.0
C1429 C 0.85291 0.69451 0.69112 0.0
C1430 C 0.87124 0.74355 0.66872 0.0
C1431 C 0.84665 0.73837 0.63989 0.0
C1432 C 0.82536 0.71069 0.63274 0.0
C1433 C 0.8287 0.68907 0.65894 0.0
C1434 C 0.89452 0.77262 0.67836 0.0
C1435 C 0.79892 0.70412 0.60036 0.0
C1436 C 0.83971 0.80179 0.67483 0.0
C1437 C 0.84527 0.8133 0.59991 0.0
C1438 C 0.83901 0.77683 0.68735 0.0
C1439 C 0.8434 0.76242 0.6229 0.0
C1440 C 0.84746 0.77292 0.5455 0.0
C1441 C 0.84861 0.7983 0.53518 0.0
C1442 C 0.8349 0.76669 0.77123 0.0
C1443 C 0.85173 0.75799 0.47455 0.0
H1444 H 0.89298 0.72598 0.71561 0.0
H1445 H 0.81226 0.66823 0.65701 0.0
H1446 H 0.89627 0.78205 0.6199 0.0
H1447 H 0.89248 0.78603 0.72598 0.0
H1448 H 0.91248 0.77286 0.6969 0.0
H1449 H 0.78507 0.6813 0.58866 0.0
H1450 H 0.79197 0.71333 0.64577 0.0
H1451 H 0.79934 0.7135 0.54236 0.0
H1452 H 0.8363 0.81255 0.72472 0.0
H1453 H 0.85309 0.80683 0.47708 0.0
H1454 H 0.85271 0.76847 0.80038 0.0
H1455 H 0.81965 0.74439 0.76554 0.0
H1456 H 0.82967 0.77887 0.81271 0.0
H1457 H 0.87078 0.76024 0.48725 0.0
H1458 H 0.85087 0.76642 0.41554 0.0
H1459 H 0.83723 0.73536 0.46733 0.0
C1460 C 0.3293 0.01504 0.65211 0.0
C1461 C 0.33605 0.03408 0.59306 0.0
C1462 C 0.31128 0.98635 0.63157 0.0
C1463 C 0.30007 0.97558 0.54881 0.0
C1464 C 0.30722 0.99447 0.48814 0.0
C1465 C 0.32471 0.02339 0.5111 0.0
C1466 C 0.30416 0.96751 0.69917 0.0
C1467 C 0.29651 0.98412 0.39874 0.0
C1468 C 0.27514 0.89749 0.50383 0.0
C1469 C 0.24846 0.88491 0.50227 0.0
C1470 C 0.29171 0.92669 0.51326 0.0
C1471 C 0.2819 0.94447 0.52653 0.0
C1472 C 0.25501 0.93207 0.52549 0.0
C1473 C 0.23867 0.90263 0.51164 0.0
C1474 C 0.31991 0.93852 0.51001 0.0
C1475 C 0.24355 0.94987 0.54198 0.0
H1476 H 0.33779 0.02265 0.71568 0.0
H1477 H 0.3292 0.03761 0.4648 0.0
H1478 H 0.28309 0.95548 0.69841 0.0
H1479 H 0.31036 0.95225 0.68871 0.0
H1480 H 0.31303 0.9793 0.76123 0.0
H1481 H 0.30463 1.00113 0.35855 0.0
H1482 H 0.30056 0.96778 0.37729 0.0
H1483 H 0.27545 0.97443 0.39137 0.0
H1484 H 0.28334 0.88449 0.49737 0.0
H1485 H 0.21832 0.89355 0.51075 0.0
H1486 H 0.33081 0.9495 0.57108 0.0
H1487 H 0.32683 0.95403 0.465 0.0
H1488 H 0.32429 0.92212 0.4923 0.0
H1489 H 0.25098 0.96111 0.60513 0.0
H1490 H 0.22234 0.93734 0.53629 0.0
H1491 H 0.24928 0.96585 0.49854 0.0
C1492 C 1.00048 0.1997 0.6143 0.0
C1493 C 1.00066 0.21664 0.681 0.0
C1494 C 0.02336 0.20266 0.59148 0.0
C1495 C 0.04715 0.22304 0.63676 0.0
C1496 C 0.04724 0.23911 0.70718 0.0
C1497 C 0.02407 0.23615 0.72728 0.0
C1498 C 0.02216 0.18563 0.51455 0.0
C1499 C 0.072 0.26106 0.75726 0.0
C1500 C 0.10536 0.2207 0.57581 0.0
C1501 C 0.11446 0.24081 0.52023 0.0
C1502 C 0.08428 0.21559 0.61747 0.0
C1503 C 0.07166 0.23055 0.60246 0.0
C1504 C 0.08179 0.25192 0.55002 0.0
C1505 C 0.10301 0.25688 0.51064 0.0
C1506 C 0.07529 0.19394 0.67677 0.0
C1507 C 0.07001 0.26921 0.53078 0.0
H1508 H 0.98247 0.18525 0.57675 0.0
H1509 H 0.02443 0.2502 0.77643 0.0
H1510 H 0.03192 0.19969 0.46773 0.0
H1511 H 0.03233 0.17442 0.52831 0.0
H1512 H 1.00219 0.17014 0.48751 0.0
H1513 H 0.06881 0.26885 0.81637 0.0
H1514 H 0.08464 0.2526 0.7706 0.0
H1515 H 0.08212 0.27894 0.72136 0.0
H1516 H 0.11409 0.20826 0.58458 0.0
H1517 H 0.11026 0.27315 0.47018 0.0
H1518 H 0.05569 0.17653 0.65366 0.0
H1519 H 0.07448 0.20327 0.73723 0.0
H1520 H 0.088 0.18534 0.686 0.0
H1521 H 0.06109 0.26319 0.46563 0.0
H1522 H 0.08522 0.29157 0.53684 0.0
H1523 H 0.05539 0.26694 0.57035 0.0
C1524 C 0.3177 0.13782 0.56621 0.0
C1525 C 0.34394 0.14911 0.58944 0.0
C1526 C 0.30735 0.15485 0.55045 0.0
C1527 C 0.32373 0.1841 0.551 0.0
C1528 C 0.35052 0.19547 0.57024 0.0
C1529 C 0.3601 0.17812 0.59216 0.0
C1530 C 0.27879 0.14144 0.53464 0.0
C1531 C 0.36932 0.22594 0.56552 0.0
C1532 C 0.29774 0.22566 0.44033 0.0
C1533 C 0.299 0.24362 0.50614 0.0
C1534 C 0.30461 0.2054 0.45341 0.0
C1535 C 0.31312 0.203 0.53457 0.0
C1536 C 0.31263 0.22008 0.60108 0.0
C1537 C 0.30627 0.2404 0.58597 0.0
C1538 C 0.30273 0.18719 0.37873 0.0
C1539 C 0.31803 0.21641 0.68904 0.0
H1540 H 0.30507 0.11541 0.56107 0.0
H1541 H 0.38047 0.18722 0.60836 0.0
H1542 H 0.27257 0.15202 0.57824 0.0
H1543 H 0.27311 0.14375 0.47111 0.0
H1544 H 0.2686 0.11886 0.54209 0.0
H1545 H 0.38909 0.23023 0.56435 0.0
H1546 H 0.36379 0.23286 0.50957 0.0
H1547 H 0.36946 0.23879 0.61977 0.0
H1548 H 0.29238 0.22812 0.37816 0.0
H1549 H 0.30713 0.25412 0.6373 0.0
H1550 H 0.31006 0.17328 0.39238 0.0
H1551 H 0.31318 0.20042 0.33118 0.0
H1552 H 0.28241 0.17409 0.35144 0.0
H1553 H 0.33765 0.22031 0.70196 0.0
H1554 H 0.30454 0.19458 0.69874 0.0
H1555 H 0.31579 0.23042 0.73391 0.0
C1556 C 0.84757 0.0077 0.3755 0.0
C1557 C 0.83488 0.99161 0.43737 0.0
C1558 C 0.86359 0.03705 0.392 0.0
C1559 C 0.86712 0.05053 0.47239 0.0
C1560 C 0.85507 0.03397 0.53543 0.0
C1561 C 0.83889 0.00499 0.51678 0.0
C1562 C 0.87518 0.05355 0.32178 0.0
C1563 C 0.85813 0.04681 0.62236 0.0
C1564 C 0.92302 0.12245 0.55821 0.0
C1565 C 0.91077 0.13755 0.57064 0.0
C1566 C 0.90952 0.09477 0.52018 0.0
C1567 C 0.88307 0.08177 0.49234 0.0
C1568 C 0.8713 0.09799 0.49653 0.0
C1569 C 0.88525 0.12566 0.53589 0.0
C1570 C 0.92312 0.07874 0.51599 0.0
C1571 C 0.84349 0.08553 0.46432 0.0
H1572 H 0.84394 0.99757 0.3134 0.0
H1573 H 0.82877 0.99266 0.56446 0.0
H1574 H 0.86273 0.06108 0.2965 0.0
H1575 H 0.8944 0.07207 0.34222 0.0
H1576 H 0.87669 0.04052 0.27136 0.0
H1577 H 0.87789 0.06443 0.64169 0.0
H1578 H 0.84511 0.05503 0.62545 0.0
H1579 H 0.85327 0.03126 0.66716 0.0
H1580 H 0.94294 0.13173 0.5831 0.0
H1581 H 0.87565 0.13722 0.54429 0.0
H1582 H 0.92028 0.0691 0.45208 0.0
H1583 H 0.91488 0.06166 0.55574 0.0
H1584 H 0.94397 0.09215 0.53636 0.0
H1585 H 0.83876 0.07289 0.4038 0.0
H1586 H 0.8385 0.10184 0.45752 0.0
H1587 H 0.83145 0.07148 0.50775 0.0
C1588 C 0.93074 0.68459 0.69936 0.0
C1589 C 0.92186 0.65724 0.71738 0.0
C1590 C 0.95492 0.70064 0.67256 0.0
C1591 C 0.97037 0.68886 0.66139 0.0
C1592 C 0.96185 0.66166 0.68293 0.0
C1593 C 0.93766 0.64611 0.70975 0.0
C1594 C 0.96343 0.72975 0.65244 0.0
C1595 C 0.97805 0.64868 0.67515 0.0
C1596 C 0.0115 0.71058 0.48591 0.0
C1597 C 0.03626 0.72853 0.52684 0.0
C1598 C 0.99015 0.69817 0.52907 0.0
C1599 C 0.99337 0.70306 0.61616 0.0
C1600 C 0.01843 0.72066 0.65828 0.0
C1601 C 0.0395 0.73328 0.61321 0.0
C1602 C 0.96421 0.67928 0.48041 0.0
C1603 C 0.02315 0.72721 0.75058 0.0
H1604 H 0.91846 0.69315 0.70375 0.0
H1605 H 0.93084 0.62494 0.72344 0.0
H1606 H 0.98327 0.74449 0.68199 0.0
H1607 H 0.9634 0.73023 0.58484 0.0
H1608 H 0.95077 0.73707 0.67323 0.0
H1609 H 0.96923 0.62778 0.69725 0.0
H1610 H 0.98106 0.64664 0.60981 0.0
H1611 H 0.99716 0.6624 0.71117 0.0
H1612 H 0.00871 0.70612 0.41938 0.0
H1613 H 0.05846 0.74739 0.64566 0.0
H1614 H 0.9642 0.68406 0.41576 0.0
H1615 H 0.94902 0.68123 0.50688 0.0
H1616 H 0.95938 0.65735 0.48071 0.0
H1617 H 0.02015 0.74471 0.76702 0.0
H1618 H 0.0431 0.73383 0.77495 0.0
H1619 H 0.00988 0.70909 0.78113 0.0
loop_
_geom_bond_atom_site_label_1
_geom_bond_atom_site_label_2
_geom_bond_distance
_geom_bond_site_symmetry_2
_ccdc_geom_bond_type
Gd0 N31 2.661 1_455 S
Gd0 N37 2.601 1_455 S
Gd0 O44 2.545 1_455 S
Gd0 O45 2.606 . S
Gd0 O47 2.429 . S
Gd0 O48 2.545 . S
Gd0 O49 2.412 1_455 S
Gd0 O51 2.362 . S
Gd0 O52 2.324 . S
Gd0 C59 2.828 1_455 S
Gd1 N10 2.661 . S
Gd1 N14 2.601 . S
Gd1 O45 2.362 . S
Gd1 O46 2.324 . S
Gd1 O50 2.545 . S
Gd1 O51 2.606 . S
Gd1 O53 2.429 . S
Gd1 O54 2.545 . S
Gd1 O55 2.412 . S
Gd1 C68 2.828 . S
C2 C5 1.417 . S
C2 C7 1.431 . S
C2 C8 1.412 . S
C3 C6 1.437 . S
C3 C7 1.317 . S
C3 H22 0.929 . S
C4 C5 1.426 . S
C4 C6 1.413 . S
C4 N14 1.359 . S
C5 C2 1.417 . S
C5 C4 1.426 . S
C5 N10 1.350 . S
C6 C3 1.437 . S
C6 C4 1.413 . S
C6 C16 1.391 . S
C7 C2 1.431 . S
C7 C3 1.317 . S
C7 H18 0.930 . S
C8 C2 1.412 . S
C8 C9 1.355 . S
C8 H20 0.930 . S
C9 C8 1.355 . S
C9 C11 1.402 . S
C9 H21 0.930 . S
N10 Gd1 2.661 . S
N10 C5 1.350 . S
N10 C11 1.307 . S
C11 C9 1.402 . S
C11 N10 1.307 . S
C11 H12 0.930 . S
H12 C11 0.930 . S
C13 N14 1.334 . S
C13 C15 1.394 . S
C13 H17 0.930 . S
N14 Gd1 2.601 . S
N14 C4 1.359 . S
N14 C13 1.334 . S
C15 C13 1.394 . S
C15 C16 1.359 . S
C15 H27 0.930 . S
C16 C6 1.391 . S
C16 C15 1.359 . S
C16 H28 0.929 . S
H17 C13 0.930 . S
H18 C7 0.930 . S
H19 C36 0.930 . S
H20 C8 0.930 . S
H21 C9 0.930 . S
H22 C3 0.929 . S
H23 C41 0.930 . S
H24 C32 0.930 1_556 S
H25 C33 0.930 . S
H26 C57 0.929 . S
H27 C15 0.930 . S
H28 C16 0.929 . S
H29 C58 0.930 . S
H30 C39 0.930 . S
N31 Gd0 2.661 1_655 S
N31 C35 1.350 . S
N31 C36 1.307 . S
C32 H24 0.930 1_554 S
C32 C33 1.355 1_554 S
C32 C34 1.412 . S
C33 H25 0.930 . S
C33 C32 1.355 1_556 S
C33 C36 1.402 1_556 S
C34 C32 1.412 . S
C34 C35 1.417 . S
C34 C58 1.431 . S
C35 N31 1.350 . S
C35 C34 1.417 . S
C35 C38 1.426 . S
C36 H19 0.930 . S
C36 N31 1.307 . S
C36 C33 1.402 1_554 S
N37 Gd0 2.601 1_655 S
N37 C38 1.359 . S
N37 C41 1.334 . S
C38 C35 1.426 . S
C38 N37 1.359 . S
C38 C42 1.413 . S
C39 H30 0.930 . S
C39 C40 1.359 . S
C39 C41 1.394 . S
C40 C39 1.359 . S
C40 C42 1.391 . S
C40 H43 0.929 . S
C41 H23 0.930 . S
C41 N37 1.334 . S
C41 C39 1.394 . S
C42 C38 1.413 . S
C42 C40 1.391 . S
C42 C57 1.437 . S
H43 C40 0.929 . S
O44 Gd0 2.545 1_655 S
O44 C59 1.258 . S
O45 Gd0 2.606 . S
O45 Gd1 2.362 . S
O45 C56 1.284 . S
O46 Gd1 2.324 . S
O46 C66 1.254 . S
O47 Gd0 2.429 . S
O47 C66 1.268 . S
O48 Gd0 2.545 . S
O48 C56 1.250 . S
O49 Gd0 2.412 1_655 S
O49 C59 1.252 . S
O50 Gd1 2.545 . S
O50 C68 1.258 . S
O51 Gd0 2.362 . S
O51 Gd1 2.606 . S
O51 C67 1.284 . S
O52 Gd0 2.324 . S
O52 C75 1.254 . S
O53 Gd1 2.429 . S
O53 C75 1.268 . S
O54 Gd1 2.545 . S
O54 C67 1.250 . S
O55 Gd1 2.412 . S
O55 C68 1.252 . S
C56 O45 1.284 . S
C56 O48 1.250 . S
C57 H26 0.929 . S
C57 C42 1.437 . S
C57 C58 1.317 . S
C58 H29 0.930 . S
C58 C34 1.431 . S
C58 C57 1.317 . S
C59 Gd0 2.828 1_655 S
C59 O44 1.258 . S
C59 O49 1.252 . S
C59 C60 1.497 . S
C60 C59 1.497 . S
C60 C61 1.395 . S
C60 C62 1.380 . S
C61 C60 1.395 . S
C61 C64 1.398 . S
C61 H76 0.930 . S
C62 C60 1.380 . S
C62 C63 1.391 . S
C62 H77 0.930 . S
C63 C62 1.391 . S
C63 C65 1.387 . S
C64 C61 1.398 . S
C64 C65 1.380 . S
C64 H78 0.930 . S
C65 C63 1.387 . S
C65 C64 1.380 . S
C65 H79 0.930 . S
C66 O46 1.254 . S
C66 O47 1.268 . S
C67 O51 1.284 . S
C67 O54 1.250 . S
C68 Gd1 2.828 . S
C68 O50 1.258 . S
C68 O55 1.252 . S
C68 C69 1.497 . S
C69 C68 1.497 . S
C69 C70 1.395 . S
C69 C71 1.380 . S
C70 C69 1.395 . S
C70 C73 1.398 . S
C70 H80 0.930 . S
C71 C69 1.380 . S
C71 C72 1.391 . S
C71 H81 0.930 . S
C72 C71 1.391 . S
C72 C74 1.387 . S
C73 C70 1.398 . S
C73 C74 1.380 . S
C73 H82 0.930 . S
C74 C72 1.387 . S
C74 C73 1.380 . S
C74 H83 0.930 . S
C75 O52 1.254 . S
C75 O53 1.268 . S
H76 C61 0.930 . S
H77 C62 0.930 . S
H78 C64 0.930 . S
H79 C65 0.930 . S
H80 C70 0.930 . S
H81 C71 0.930 . S
H82 C73 0.930 . S
H83 C74 0.930 . S
Gd84 N115 2.661 . S
Gd84 N121 2.601 . S
Gd84 O128 2.545 . S
Gd84 O129 2.606 . S
Gd84 O131 2.429 . S
Gd84 O132 2.545 . S
Gd84 O133 2.412 . S
Gd84 O135 2.362 . S
Gd84 O136 2.324 . S
Gd84 C143 2.828 . S
Gd85 N94 2.661 . S
Gd85 N98 2.601 . S
Gd85 O129 2.362 . S
Gd85 O130 2.324 . S
Gd85 O134 2.545 . S
Gd85 O135 2.606 . S
Gd85 O137 2.429 . S
Gd85 O138 2.545 . S
Gd85 O139 2.412 . S
Gd85 C152 2.828 . S
C86 C89 1.417 . S
C86 C91 1.431 . S
C86 C92 1.412 . S
C87 C90 1.437 . S
C87 C91 1.317 . S
C87 H106 0.929 . S
C88 C89 1.426 . S
C88 C90 1.413 . S
C88 N98 1.359 . S
C89 C86 1.417 . S
C89 C88 1.426 . S
C89 N94 1.350 . S
C90 C87 1.437 . S
C90 C88 1.413 . S
C90 C100 1.391 1_554 S
C91 C86 1.431 . S
C91 C87 1.317 . S
C91 H102 0.930 . S
C92 C86 1.412 . S
C92 C93 1.355 . S
C92 H104 0.930 . S
C93 C92 1.355 . S
C93 C95 1.402 . S
C93 H105 0.930 . S
N94 Gd85 2.661 . S
N94 C89 1.350 . S
N94 C95 1.307 . S
C95 C93 1.402 . S
C95 N94 1.307 . S
C95 H96 0.930 . S
H96 C95 0.930 . S
C97 N98 1.334 1_556 S
C97 C99 1.394 . S
C97 H101 0.930 . S
N98 Gd85 2.601 . S
N98 C88 1.359 . S
N98 C97 1.334 1_554 S
C99 C97 1.394 . S
C99 C100 1.359 . S
C99 H111 0.930 . S
C100 C90 1.391 1_556 S
C100 C99 1.359 . S
C100 H112 0.929 . S
H101 C97 0.930 . S
H102 C91 0.930 . S
H103 C120 0.930 . S
H104 C92 0.930 . S
H105 C93 0.930 . S
H106 C87 0.929 . S
H107 C125 0.930 . S
H108 C116 0.930 . S
H109 C117 0.930 . S
H110 C141 0.929 . S
H111 C99 0.930 . S
H112 C100 0.929 . S
H113 C142 0.930 . S
H114 C123 0.930 . S
N115 Gd84 2.661 . S
N115 C119 1.350 . S
N115 C120 1.307 1_554 S
C116 H108 0.930 . S
C116 C117 1.355 . S
C116 C118 1.412 1_556 S
C117 H109 0.930 . S
C117 C116 1.355 . S
C117 C120 1.402 . S
C118 C116 1.412 1_554 S
C118 C119 1.417 . S
C118 C142 1.431 . S
C119 N115 1.350 . S
C119 C118 1.417 . S
C119 C122 1.426 . S
C120 H103 0.930 . S
C120 N115 1.307 1_556 S
C120 C117 1.402 . S
N121 Gd84 2.601 . S
N121 C122 1.359 . S
N121 C125 1.334 . S
C122 C119 1.426 . S
C122 N121 1.359 . S
C122 C126 1.413 . S
C123 H114 0.930 . S
C123 C124 1.359 . S
C123 C125 1.394 . S
C124 C123 1.359 . S
C124 C126 1.391 . S
C124 H127 0.929 . S
C125 H107 0.930 . S
C125 N121 1.334 . S
C125 C123 1.394 . S
C126 C122 1.413 . S
C126 C124 1.391 . S
C126 C141 1.437 . S
H127 C124 0.929 . S
O128 Gd84 2.545 . S
O128 C143 1.258 . S
O129 Gd84 2.606 . S
O129 Gd85 2.362 . S
O129 C140 1.284 . S
O130 Gd85 2.324 . S
O130 C150 1.254 . S
O131 Gd84 2.429 . S
O131 C150 1.268 . S
O132 Gd84 2.545 . S
O132 C140 1.250 . S
O133 Gd84 2.412 . S
O133 C143 1.252 . S
O134 Gd85 2.545 . S
O134 C152 1.258 . S
O135 Gd84 2.362 . S
O135 Gd85 2.606 . S
O135 C151 1.284 . S
O136 Gd84 2.324 . S
O136 C159 1.254 1_554 S
O137 Gd85 2.429 . S
O137 C159 1.268 1_554 S
O138 Gd85 2.545 . S
O138 C151 1.250 . S
O139 Gd85 2.412 . S
O139 C152 1.252 . S
C140 O129 1.284 . S
C140 O132 1.250 . S
C141 H110 0.929 . S
C141 C126 1.437 . S
C141 C142 1.317 . S
C142 H113 0.930 . S
C142 C118 1.431 . S
C142 C141 1.317 . S
C143 Gd84 2.828 . S
C143 O128 1.258 . S
C143 O133 1.252 . S
C143 C144 1.497 . S
C144 C143 1.497 . S
C144 C145 1.395 . S
C144 C146 1.380 1_554 S
C145 C144 1.395 . S
C145 C148 1.398 . S
C145 H160 0.930 . S
C146 C144 1.380 1_556 S
C146 C147 1.391 . S
C146 H161 0.930 . S
C147 C146 1.391 . S
C147 C149 1.387 1_556 S
C148 C145 1.398 . S
C148 C149 1.380 . S
C148 H162 0.930 . S
C149 C147 1.387 1_554 S
C149 C148 1.380 . S
C149 H163 0.930 . S
C150 O130 1.254 . S
C150 O131 1.268 . S
C151 O135 1.284 . S
C151 O138 1.250 . S
C152 Gd85 2.828 . S
C152 O134 1.258 . S
C152 O139 1.252 . S
C152 C153 1.497 . S
C153 C152 1.497 . S
C153 C154 1.395 . S
C153 C155 1.380 . S
C154 C153 1.395 . S
C154 C157 1.398 . S
C154 H164 0.930 . S
C155 C153 1.380 . S
C155 C156 1.391 . S
C155 H165 0.930 . S
C156 C155 1.391 . S
C156 C158 1.387 . S
C157 C154 1.398 . S
C157 C158 1.380 . S
C157 H166 0.930 . S
C158 C156 1.387 . S
C158 C157 1.380 . S
C158 H167 0.930 . S
C159 O136 1.254 1_556 S
C159 O137 1.268 1_556 S
H160 C145 0.930 . S
H161 C146 0.930 . S
H162 C148 0.930 . S
H163 C149 0.930 . S
H164 C154 0.930 . S
H165 C155 0.930 . S
H166 C157 0.930 . S
H167 C158 0.930 . S
Gd168 N199 2.661 1_554 S
Gd168 N205 2.601 . S
Gd168 O212 2.545 . S
Gd168 O213 2.606 . S
Gd168 O215 2.429 . S
Gd168 O216 2.545 . S
Gd168 O217 2.412 1_554 S
Gd168 O219 2.362 1_554 S
Gd168 O220 2.324 1_554 S
Gd168 C227 2.828 . S
Gd169 N178 2.661 1_556 S
Gd169 N182 2.601 . S
Gd169 O213 2.362 1_556 S
Gd169 O214 2.324 1_556 S
Gd169 O218 2.545 . S
Gd169 O219 2.606 . S
Gd169 O221 2.429 . S
Gd169 O222 2.545 . S
Gd169 O223 2.412 1_556 S
Gd169 C236 2.828 . S
C170 C173 1.439 . S
C170 C175 1.431 . S
C170 C176 1.412 . S
C171 C174 1.437 . S
C171 C175 1.317 1_556 S
C171 H190 0.929 . S
C172 C173 1.427 1_556 S
C172 C174 1.413 . S
C172 N182 1.359 1_565 S
C173 C170 1.439 . S
C173 C172 1.427 1_554 S
C173 N178 1.328 1_565 S
C174 C171 1.437 . S
C174 C172 1.413 . S
C174 C184 1.391 . S
C175 C170 1.431 . S
C175 C171 1.317 1_554 S
C175 H186 0.930 . S
C176 C170 1.412 . S
C176 C177 1.355 1_565 S
C176 H188 0.930 . S
C177 C176 1.355 1_545 S
C177 C179 1.402 . S
C177 H189 0.930 . S
N178 Gd169 2.661 1_554 S
N178 C173 1.328 1_545 S
N178 C179 1.307 . S
C179 C177 1.402 . S
C179 N178 1.307 . S
C179 H180 0.930 . S
H180 C179 0.930 . S
C181 N182 1.334 . S
C181 C183 1.394 1_545 S
C181 H185 0.930 . S
N182 Gd169 2.601 . S
N182 C172 1.359 1_545 S
N182 C181 1.334 . S
C183 C181 1.394 1_565 S
C183 C184 1.359 . S
C183 H195 0.930 . S
C184 C174 1.391 . S
C184 C183 1.359 . S
C184 H196 0.929 . S
H185 C181 0.930 . S
H186 C175 0.930 . S
H187 C204 0.930 . S
H188 C176 0.930 . S
H189 C177 0.930 . S
H190 C171 0.929 . S
H191 C209 0.930 . S
H192 C200 0.930 . S
H193 C201 0.930 . S
H194 C225 0.929 . S
H195 C183 0.930 . S
H196 C184 0.929 . S
H197 C226 0.930 . S
H198 C207 0.930 . S
N199 Gd168 2.661 1_556 S
N199 C203 1.350 . S
N199 C204 1.307 . S
C200 H192 0.930 . S
C200 C201 1.355 . S
C200 C202 1.412 . S
C201 H193 0.930 . S
C201 C200 1.355 . S
C201 C204 1.402 . S
C202 C200 1.412 . S
C202 C203 1.417 . S
C202 C226 1.431 . S
C203 N199 1.350 . S
C203 C202 1.417 . S
C203 C206 1.426 1_556 S
C204 H187 0.930 . S
C204 N199 1.307 . S
C204 C201 1.402 . S
N205 Gd168 2.601 . S
N205 C206 1.359 . S
N205 C209 1.334 . S
C206 C203 1.426 1_554 S
C206 N205 1.359 . S
C206 C210 1.413 . S
C207 H198 0.930 . S
C207 C208 1.359 . S
C207 C209 1.394 . S
C208 C207 1.359 . S
C208 C210 1.391 . S
C208 H211 0.929 . S
C209 H191 0.930 . S
C209 N205 1.334 . S
C209 C207 1.394 . S
C210 C206 1.413 . S
C210 C208 1.391 . S
C210 C225 1.437 . S
H211 C208 0.929 . S
O212 Gd168 2.545 . S
O212 C227 1.258 . S
O213 Gd168 2.606 . S
O213 Gd169 2.362 1_554 S
O213 C224 1.284 . S
O214 Gd169 2.324 1_554 S
O214 C234 1.254 . S
O215 Gd168 2.429 . S
O215 C234 1.268 . S
O216 Gd168 2.545 . S
O216 C224 1.250 . S
O217 Gd168 2.412 1_556 S
O217 C227 1.252 1_556 S
O218 Gd169 2.545 . S
O218 C236 1.258 . S
O219 Gd168 2.362 1_556 S
O219 Gd169 2.606 . S
O219 C235 1.284 . S
O220 Gd168 2.324 1_556 S
O220 C243 1.254 . S
O221 Gd169 2.429 . S
O221 C243 1.268 . S
O222 Gd169 2.545 . S
O222 C235 1.250 . S
O223 Gd169 2.412 1_554 S
O223 C236 1.252 1_554 S
C224 O213 1.284 . S
C224 O216 1.250 . S
C225 H194 0.929 . S
C225 C210 1.437 . S
C225 C226 1.317 1_554 S
C226 H197 0.930 . S
C226 C202 1.431 . S
C226 C225 1.317 1_556 S
C227 Gd168 2.828 . S
C227 O212 1.258 . S
C227 O217 1.252 1_554 S
C227 C228 1.497 . S
C228 C227 1.497 . S
C228 C229 1.395 . S
C228 C230 1.380 1_554 S
C229 C228 1.395 . S
C229 C232 1.398 . S
C229 H244 0.930 . S
C230 C228 1.380 1_556 S
C230 C231 1.391 . S
C230 H245 0.930 . S
C231 C230 1.391 . S
C231 C233 1.387 . S
C232 C229 1.398 . S
C232 C233 1.380 1_554 S
C232 H246 0.930 . S
C233 C231 1.387 . S
C233 C232 1.380 1_556 S
C233 H247 0.930 . S
C234 O214 1.254 . S
C234 O215 1.268 . S
C235 O219 1.284 . S
C235 O222 1.250 . S
C236 Gd169 2.828 . S
C236 O218 1.258 . S
C236 O223 1.252 1_556 S
C236 C237 1.497 . S
C237 C236 1.497 . S
C237 C238 1.395 1_545 S
C237 C239 1.380 1_556 S
C238 C237 1.395 1_565 S
C238 C241 1.398 . S
C238 H248 0.930 . S
C239 C237 1.380 1_554 S
C239 C240 1.391 1_545 S
C239 H249 0.930 . S
C240 C239 1.391 1_565 S
C240 C242 1.387 . S
C241 C238 1.398 . S
C241 C242 1.380 1_556 S
C241 H250 0.930 . S
C242 C240 1.387 . S
C242 C241 1.380 1_554 S
C242 H251 0.930 . S
C243 O220 1.254 . S
C243 O221 1.268 . S
H244 C229 0.930 . S
H245 C230 0.930 . S
H246 C232 0.930 . S
H247 C233 0.930 . S
H248 C238 0.930 . S
H249 C239 0.930 . S
H250 C241 0.930 . S
H251 C242 0.930 . S
Gd252 N283 2.661 . S
Gd252 N289 2.601 . S
Gd252 O296 2.545 . S
Gd252 O297 2.606 . S
Gd252 O299 2.429 . S
Gd252 O300 2.545 . S
Gd252 O301 2.412 . S
Gd252 O303 2.362 . S
Gd252 O304 2.324 . S
Gd252 C311 2.828 . S
Gd253 N262 2.661 . S
Gd253 N266 2.601 . S
Gd253 O297 2.362 . S
Gd253 O298 2.324 . S
Gd253 O302 2.545 . S
Gd253 O303 2.606 . S
Gd253 O305 2.429 . S
Gd253 O306 2.545 . S
Gd253 O307 2.412 . S
Gd253 C320 2.828 . S
C254 C257 1.442 . S
C254 C259 1.425 1_565 S
C254 C260 1.396 1_565 S
C255 C258 1.437 1_545 S
C255 C259 1.317 . S
C255 H274 0.929 . S
C256 C257 1.426 . S
C256 C258 1.413 . S
C256 N266 1.359 . S
C257 C254 1.442 . S
C257 C256 1.426 . S
C257 N262 1.350 . S
C258 C255 1.437 1_565 S
C258 C256 1.413 . S
C258 C268 1.391 . S
C259 C254 1.425 1_545 S
C259 C255 1.317 . S
C259 H270 0.930 . S
C260 C254 1.396 1_545 S
C260 C261 1.355 1_545 S
C260 H272 0.930 . S
C261 C260 1.355 1_565 S
C261 C263 1.402 . S
C261 H273 0.930 . S
N262 Gd253 2.661 . S
N262 C257 1.350 . S
N262 C263 1.307 . S
C263 C261 1.402 . S
C263 N262 1.307 . S
C263 H264 0.930 . S
H264 C263 0.930 . S
C265 N266 1.334 . S
C265 C267 1.394 . S
C265 H269 0.930 . S
N266 Gd253 2.601 . S
N266 C256 1.359 . S
N266 C265 1.334 . S
C267 C265 1.394 . S
C267 C268 1.359 . S
C267 H279 0.930 . S
C268 C258 1.391 . S
C268 C267 1.359 . S
C268 H280 0.929 . S
H269 C265 0.930 . S
H270 C259 0.930 . S
H271 C288 0.930 . S
H272 C260 0.930 . S
H273 C261 0.930 . S
H274 C255 0.929 . S
H275 C293 0.930 . S
H276 C284 0.930 . S
H277 C285 0.930 . S
H278 C309 0.929 . S
H279 C267 0.930 . S
H280 C268 0.929 . S
H281 C310 0.930 . S
H282 C291 0.930 . S
N283 Gd252 2.661 . S
N283 C287 1.350 . S
N283 C288 1.307 . S
C284 H276 0.930 . S
C284 C285 1.355 . S
C284 C286 1.412 . S
C285 H277 0.930 . S
C285 C284 1.355 . S
C285 C288 1.402 . S
C286 C284 1.412 . S
C286 C287 1.417 . S
C286 C310 1.431 . S
C287 N283 1.350 . S
C287 C286 1.417 . S
C287 C290 1.426 . S
C288 H271 0.930 . S
C288 N283 1.307 . S
C288 C285 1.402 . S
N289 Gd252 2.601 . S
N289 C290 1.359 . S
N289 C293 1.334 . S
C290 C287 1.426 . S
C290 N289 1.359 . S
C290 C294 1.413 . S
C291 H282 0.930 . S
C291 C292 1.359 . S
C291 C293 1.394 . S
C292 C291 1.359 . S
C292 C294 1.391 . S
C292 H295 0.929 . S
C293 H275 0.930 . S
C293 N289 1.334 . S
C293 C291 1.394 . S
C294 C290 1.413 . S
C294 C292 1.391 . S
C294 C309 1.437 . S
H295 C292 0.929 . S
O296 Gd252 2.545 . S
O296 C311 1.258 . S
O297 Gd252 2.606 . S
O297 Gd253 2.362 . S
O297 C308 1.284 . S
O298 Gd253 2.324 . S
O298 C318 1.254 . S
O299 Gd252 2.429 . S
O299 C318 1.268 . S
O300 Gd252 2.545 . S
O300 C308 1.250 . S
O301 Gd252 2.412 . S
O301 C311 1.252 . S
O302 Gd253 2.545 . S
O302 C320 1.258 . S
O303 Gd252 2.362 . S
O303 Gd253 2.606 . S
O303 C319 1.284 . S
O304 Gd252 2.324 . S
O304 C327 1.254 . S
O305 Gd253 2.429 . S
O305 C327 1.268 . S
O306 Gd253 2.545 . S
O306 C319 1.250 . S
O307 Gd253 2.412 . S
O307 C320 1.252 . S
C308 O297 1.284 . S
C308 O300 1.250 . S
C309 H278 0.929 . S
C309 C294 1.437 . S
C309 C310 1.317 . S
C310 H281 0.930 . S
C310 C286 1.431 . S
C310 C309 1.317 . S
C311 Gd252 2.828 . S
C311 O296 1.258 . S
C311 O301 1.252 . S
C311 C312 1.497 . S
C312 C311 1.497 . S
C312 C313 1.395 . S
C312 C314 1.380 . S
C313 C312 1.395 . S
C313 C316 1.398 . S
C313 H328 0.930 . S
C314 C312 1.380 . S
C314 C315 1.391 . S
C314 H329 0.930 . S
C315 C314 1.391 . S
C315 C317 1.387 . S
C316 C313 1.398 . S
C316 C317 1.380 . S
C316 H330 0.930 . S
C317 C315 1.387 . S
C317 C316 1.380 . S
C317 H331 0.930 1_565 S
C318 O298 1.254 . S
C318 O299 1.268 . S
C319 O303 1.284 . S
C319 O306 1.250 . S
C320 Gd253 2.828 . S
C320 O302 1.258 . S
C320 O307 1.252 . S
C320 C321 1.497 . S
C321 C320 1.497 . S
C321 C322 1.395 . S
C321 C323 1.380 . S
C322 C321 1.395 . S
C322 C325 1.398 . S
C322 H332 0.930 . S
C323 C321 1.380 . S
C323 C324 1.391 . S
C323 H333 0.930 . S
C324 C323 1.391 . S
C324 C326 1.387 . S
C325 C322 1.398 . S
C325 C326 1.380 . S
C325 H334 0.930 . S
C326 C324 1.387 . S
C326 C325 1.380 . S
C326 H335 0.930 . S
C327 O304 1.254 . S
C327 O305 1.268 . S
H328 C313 0.930 . S
H329 C314 0.930 . S
H330 C316 0.930 . S
H331 C317 0.930 1_545 S
H332 C322 0.930 . S
H333 C323 0.930 . S
H334 C325 0.930 . S
H335 C326 0.930 . S
Gd336 N367 2.661 . S
Gd336 N373 2.601 . S
Gd336 O380 2.545 . S
Gd336 O381 2.606 . S
Gd336 O383 2.429 . S
Gd336 O384 2.545 . S
Gd336 O385 2.412 . S
Gd336 O387 2.362 . S
Gd336 O388 2.324 . S
Gd336 C395 2.828 . S
Gd337 N346 2.661 . S
Gd337 N350 2.601 . S
Gd337 O381 2.362 . S
Gd337 O382 2.324 . S
Gd337 O386 2.545 . S
Gd337 O387 2.606 . S
Gd337 O389 2.429 . S
Gd337 O390 2.545 . S
Gd337 O391 2.412 . S
Gd337 C404 2.828 . S
C338 C341 1.417 . S
C338 C343 1.431 1_554 S
C338 C344 1.412 1_554 S
C339 C342 1.437 . S
C339 C343 1.317 1_554 S
C339 H358 0.929 1_554 S
C340 C341 1.426 . S
C340 C342 1.413 . S
C340 N350 1.359 . S
C341 C338 1.417 . S
C341 C340 1.426 . S
C341 N346 1.350 . S
C342 C339 1.437 . S
C342 C340 1.413 . S
C342 C352 1.391 . S
C343 C338 1.431 1_556 S
C343 C339 1.317 1_556 S
C343 H354 0.930 . S
C344 C338 1.412 1_556 S
C344 C345 1.355 1_556 S
C344 H356 0.930 . S
C345 C344 1.355 1_554 S
C345 C347 1.402 . S
C345 H357 0.930 1_554 S
N346 Gd337 2.661 . S
N346 C341 1.350 . S
N346 C347 1.307 . S
C347 C345 1.402 . S
C347 N346 1.307 . S
C347 H348 0.930 . S
H348 C347 0.930 . S
C349 N350 1.334 . S
C349 C351 1.394 . S
C349 H353 0.930 . S
N350 Gd337 2.601 . S
N350 C340 1.359 . S
N350 C349 1.334 . S
C351 C349 1.394 . S
C351 C352 1.359 . S
C351 H363 0.930 . S
C352 C342 1.391 . S
C352 C351 1.359 . S
C352 H364 0.929 . S
H353 C349 0.930 . S
H354 C343 0.930 . S
H355 C372 0.930 . S
H356 C344 0.930 . S
H357 C345 0.930 1_556 S
H358 C339 0.929 1_556 S
H359 C377 0.930 . S
H360 C368 0.930 . S
H361 C369 0.930 . S
H362 C393 0.929 . S
H363 C351 0.930 . S
H364 C352 0.929 . S
H365 C394 0.930 . S
H366 C375 0.930 . S
N367 Gd336 2.661 . S
N367 C371 1.350 . S
N367 C372 1.307 . S
C368 H360 0.930 . S
C368 C369 1.355 . S
C368 C370 1.412 . S
C369 H361 0.930 . S
C369 C368 1.355 . S
C369 C372 1.402 . S
C370 C368 1.412 . S
C370 C371 1.417 . S
C370 C394 1.431 . S
C371 N367 1.350 . S
C371 C370 1.417 . S
C371 C374 1.426 . S
C372 H355 0.930 . S
C372 N367 1.307 . S
C372 C369 1.402 . S
N373 Gd336 2.601 . S
N373 C374 1.359 . S
N373 C377 1.334 . S
C374 C371 1.426 . S
C374 N373 1.359 . S
C374 C378 1.413 . S
C375 H366 0.930 . S
C375 C376 1.359 . S
C375 C377 1.394 . S
C376 C375 1.359 . S
C376 C378 1.391 . S
C376 H379 0.929 . S
C377 H359 0.930 . S
C377 N373 1.334 . S
C377 C375 1.394 . S
C378 C374 1.413 . S
C378 C376 1.391 . S
C378 C393 1.437 . S
H379 C376 0.929 . S
O380 Gd336 2.545 . S
O380 C395 1.258 . S
O381 Gd336 2.606 . S
O381 Gd337 2.362 . S
O381 C392 1.284 . S
O382 Gd337 2.324 . S
O382 C402 1.254 . S
O383 Gd336 2.429 . S
O383 C402 1.268 . S
O384 Gd336 2.545 . S
O384 C392 1.250 . S
O385 Gd336 2.412 . S
O385 C395 1.252 . S
O386 Gd337 2.545 . S
O386 C404 1.258 . S
O387 Gd336 2.362 . S
O387 Gd337 2.606 . S
O387 C403 1.284 . S
O388 Gd336 2.324 . S
O388 C411 1.254 . S
O389 Gd337 2.429 . S
O389 C411 1.268 . S
O390 Gd337 2.545 . S
O390 C403 1.250 . S
O391 Gd337 2.412 . S
O391 C404 1.252 . S
C392 O381 1.284 . S
C392 O384 1.250 . S
C393 H362 0.929 . S
C393 C378 1.437 . S
C393 C394 1.317 . S
C394 H365 0.930 . S
C394 C370 1.431 . S
C394 C393 1.317 . S
C395 Gd336 2.828 . S
C395 O380 1.258 . S
C395 O385 1.252 . S
C395 C396 1.497 . S
C396 C395 1.497 . S
C396 C397 1.395 . S
C396 C398 1.380 . S
C397 C396 1.395 . S
C397 C400 1.398 . S
C397 H412 0.930 . S
C398 C396 1.380 . S
C398 C399 1.391 . S
C398 H413 0.930 . S
C399 C398 1.391 . S
C399 C401 1.387 . S
C400 C397 1.398 . S
C400 C401 1.380 . S
C400 H414 0.930 . S
C401 C399 1.387 . S
C401 C400 1.380 . S
C401 H415 0.930 . S
C402 O382 1.254 . S
C402 O383 1.268 . S
C403 O387 1.284 . S
C403 O390 1.250 . S
C404 Gd337 2.828 . S
C404 O386 1.258 . S
C404 O391 1.252 . S
C404 C405 1.497 . S
C405 C404 1.497 . S
C405 C406 1.395 . S
C405 C407 1.380 . S
C406 C405 1.395 . S
C406 C409 1.398 . S
C406 H416 0.930 . S
C407 C405 1.380 . S
C407 C408 1.391 . S
C407 H417 0.930 . S
C408 C407 1.391 . S
C408 C410 1.387 . S
C409 C406 1.398 . S
C409 C410 1.380 . S
C409 H418 0.930 . S
C410 C408 1.387 . S
C410 C409 1.380 . S
C410 H419 0.912 1_455 S
C411 O388 1.254 . S
C411 O389 1.268 . S
H412 C397 0.930 . S
H413 C398 0.930 . S
H414 C400 0.930 . S
H415 C401 0.930 . S
H416 C406 0.930 . S
H417 C407 0.930 . S
H418 C409 0.930 . S
H419 C410 0.912 1_655 S
Gd420 N451 2.661 . S
Gd420 N457 2.601 . S
Gd420 O464 2.545 . S
Gd420 O465 2.606 . S
Gd420 O467 2.429 . S
Gd420 O468 2.545 . S
Gd420 O469 2.412 . S
Gd420 O471 2.362 . S
Gd420 O472 2.324 . S
Gd420 C479 2.828 . S
Gd421 N430 2.661 . S
Gd421 N434 2.601 . S
Gd421 O465 2.362 . S
Gd421 O466 2.324 . S
Gd421 O470 2.545 . S
Gd421 O471 2.606 . S
Gd421 O473 2.429 . S
Gd421 O474 2.545 . S
Gd421 O475 2.412 . S
Gd421 C488 2.828 . S
C422 C425 1.417 . S
C422 C427 1.431 . S
C422 C428 1.412 . S
C423 C426 1.437 . S
C423 C427 1.317 . S
C423 H442 0.929 . S
C424 C425 1.426 . S
C424 C426 1.413 . S
C424 N434 1.359 . S
C425 C422 1.417 . S
C425 C424 1.426 . S
C425 N430 1.350 . S
C426 C423 1.437 . S
C426 C424 1.413 . S
C426 C436 1.391 . S
C427 C422 1.431 . S
C427 C423 1.317 . S
C427 H438 0.930 . S
C428 C422 1.412 . S
C428 C429 1.355 . S
C428 H440 0.930 . S
C429 C428 1.355 . S
C429 C431 1.402 . S
C429 H441 0.930 . S
N430 Gd421 2.661 . S
N430 C425 1.350 . S
N430 C431 1.307 . S
C431 C429 1.402 . S
C431 N430 1.307 . S
C431 H432 0.930 . S
H432 C431 0.930 . S
C433 N434 1.334 . S
C433 C435 1.394 . S
C433 H437 0.930 . S
N434 Gd421 2.601 . S
N434 C424 1.359 . S
N434 C433 1.334 . S
C435 C433 1.394 . S
C435 C436 1.359 . S
C435 H447 0.930 1_554 S
C436 C426 1.391 . S
C436 C435 1.359 . S
C436 H448 0.929 . S
H437 C433 0.930 . S
H438 C427 0.930 . S
H439 C456 0.930 . S
H440 C428 0.930 . S
H441 C429 0.930 . S
H442 C423 0.929 . S
H443 C461 0.930 . S
H444 C452 0.930 . S
H445 C453 0.930 . S
H446 C477 0.929 . S
H447 C435 0.930 1_556 S
H448 C436 0.929 . S
H449 C478 0.930 . S
H450 C459 0.930 . S
N451 Gd420 2.661 . S
N451 C455 1.350 . S
N451 C456 1.307 . S
C452 H444 0.930 . S
C452 C453 1.355 . S
C452 C454 1.412 . S
C453 H445 0.930 . S
C453 C452 1.355 . S
C453 C456 1.402 . S
C454 C452 1.412 . S
C454 C455 1.417 . S
C454 C478 1.431 . S
C455 N451 1.350 . S
C455 C454 1.417 . S
C455 C458 1.426 . S
C456 H439 0.930 . S
C456 N451 1.307 . S
C456 C453 1.402 . S
N457 Gd420 2.601 . S
N457 C458 1.359 . S
N457 C461 1.334 . S
C458 C455 1.426 . S
C458 N457 1.359 . S
C458 C462 1.413 . S
C459 H450 0.930 . S
C459 C460 1.359 . S
C459 C461 1.394 . S
C460 C459 1.359 . S
C460 C462 1.391 . S
C460 H463 0.929 . S
C461 H443 0.930 . S
C461 N457 1.334 . S
C461 C459 1.394 . S
C462 C458 1.413 . S
C462 C460 1.391 . S
C462 C477 1.437 . S
H463 C460 0.929 . S
O464 Gd420 2.545 . S
O464 C479 1.258 . S
O465 Gd420 2.606 . S
O465 Gd421 2.362 . S
O465 C476 1.284 . S
O466 Gd421 2.324 . S
O466 C486 1.254 . S
O467 Gd420 2.429 . S
O467 C486 1.268 . S
O468 Gd420 2.545 . S
O468 C476 1.250 . S
O469 Gd420 2.412 . S
O469 C479 1.252 . S
O470 Gd421 2.545 . S
O470 C488 1.258 . S
O471 Gd420 2.362 . S
O471 Gd421 2.606 . S
O471 C487 1.284 . S
O472 Gd420 2.324 . S
O472 C495 1.254 . S
O473 Gd421 2.429 . S
O473 C495 1.268 . S
O474 Gd421 2.545 . S
O474 C487 1.250 . S
O475 Gd421 2.412 . S
O475 C488 1.252 . S
C476 O465 1.284 . S
C476 O468 1.250 . S
C477 H446 0.929 . S
C477 C462 1.437 . S
C477 C478 1.317 . S
C478 H449 0.930 . S
C478 C454 1.431 . S
C478 C477 1.317 . S
C479 Gd420 2.828 . S
C479 O464 1.258 . S
C479 O469 1.252 . S
C479 C480 1.497 . S
C480 C479 1.497 . S
C480 C481 1.395 . S
C480 C482 1.380 . S
C481 C480 1.395 . S
C481 C484 1.398 . S
C481 H496 0.930 . S
C482 C480 1.380 . S
C482 C483 1.391 . S
C482 H497 0.930 . S
C483 C482 1.391 . S
C483 C485 1.387 . S
C484 C481 1.398 . S
C484 C485 1.380 . S
C484 H498 0.930 . S
C485 C483 1.387 . S
C485 C484 1.380 . S
C485 H499 0.930 . S
C486 O466 1.254 . S
C486 O467 1.268 . S
C487 O471 1.284 . S
C487 O474 1.250 . S
C488 Gd421 2.828 . S
C488 O470 1.258 . S
C488 O475 1.252 . S
C488 C489 1.497 . S
C489 C488 1.497 . S
C489 C490 1.395 . S
C489 C491 1.380 . S
C490 C489 1.395 . S
C490 C493 1.398 . S
C490 H500 0.930 . S
C491 C489 1.380 . S
C491 C492 1.391 . S
C491 H501 0.930 . S
C492 C491 1.391 . S
C492 C494 1.387 . S
C493 C490 1.398 . S
C493 C494 1.380 . S
C493 H502 0.930 . S
C494 C492 1.387 . S
C494 C493 1.380 . S
C494 H503 0.930 . S
C495 O472 1.254 . S
C495 O473 1.268 . S
H496 C481 0.930 . S
H497 C482 0.930 . S
H498 C484 0.930 . S
H499 C485 0.930 . S
H500 C490 0.930 . S
H501 C491 0.930 . S
H502 C493 0.930 . S
H503 C494 0.930 . S
Gd504 N535 2.661 . S
Gd504 N541 2.601 . S
Gd504 O548 2.545 . S
Gd504 O549 2.606 . S
Gd504 O551 2.429 . S
Gd504 O552 2.545 . S
Gd504 O553 2.412 . S
Gd504 O555 2.362 . S
Gd504 O556 2.324 . S
Gd504 C563 2.828 . S
Gd505 N514 2.661 . S
Gd505 N518 2.601 . S
Gd505 O549 2.362 . S
Gd505 O550 2.324 . S
Gd505 O554 2.545 . S
Gd505 O555 2.606 . S
Gd505 O557 2.429 . S
Gd505 O558 2.545 . S
Gd505 O559 2.412 . S
Gd505 C572 2.828 . S
C506 C509 1.417 . S
C506 C511 1.431 . S
C506 C512 1.412 . S
C507 C510 1.437 . S
C507 C511 1.317 . S
C507 H526 0.929 . S
C508 C509 1.426 . S
C508 C510 1.413 . S
C508 N518 1.359 . S
C509 C506 1.417 . S
C509 C508 1.426 . S
C509 N514 1.350 . S
C510 C507 1.437 . S
C510 C508 1.413 . S
C510 C520 1.391 . S
C511 C506 1.431 . S
C511 C507 1.317 . S
C511 H522 0.930 . S
C512 C506 1.412 . S
C512 C513 1.355 . S
C512 H524 0.930 . S
C513 C512 1.355 . S
C513 C515 1.402 . S
C513 H525 0.930 . S
N514 Gd505 2.661 . S
N514 C509 1.350 . S
N514 C515 1.307 . S
C515 C513 1.402 . S
C515 N514 1.307 . S
C515 H516 0.930 . S
H516 C515 0.930 . S
C517 N518 1.334 . S
C517 C519 1.394 . S
C517 H521 0.930 . S
N518 Gd505 2.601 . S
N518 C508 1.359 . S
N518 C517 1.334 . S
C519 C517 1.394 . S
C519 C520 1.359 . S
C519 H531 0.930 . S
C520 C510 1.391 . S
C520 C519 1.359 . S
C520 H532 0.929 . S
H521 C517 0.930 . S
H522 C511 0.930 . S
H523 C540 0.930 . S
H524 C512 0.930 . S
H525 C513 0.930 . S
H526 C507 0.929 . S
H527 C545 0.930 . S
H528 C536 0.930 . S
H529 C537 0.930 . S
H530 C561 0.929 . S
H531 C519 0.930 . S
H532 C520 0.929 . S
H533 C562 0.930 . S
H534 C543 0.930 . S
N535 Gd504 2.661 . S
N535 C539 1.350 . S
N535 C540 1.307 . S
C536 H528 0.930 . S
C536 C537 1.355 . S
C536 C538 1.412 . S
C537 H529 0.930 . S
C537 C536 1.355 . S
C537 C540 1.402 . S
C538 C536 1.412 . S
C538 C539 1.417 . S
C538 C562 1.431 . S
C539 N535 1.350 . S
C539 C538 1.417 . S
C539 C542 1.426 . S
C540 H523 0.930 . S
C540 N535 1.307 . S
C540 C537 1.402 . S
N541 Gd504 2.601 . S
N541 C542 1.359 . S
N541 C545 1.334 . S
C542 C539 1.426 . S
C542 N541 1.359 . S
C542 C546 1.413 . S
C543 H534 0.930 . S
C543 C544 1.359 . S
C543 C545 1.394 . S
C544 C543 1.359 . S
C544 C546 1.391 . S
C544 H547 0.929 . S
C545 H527 0.930 . S
C545 N541 1.334 . S
C545 C543 1.394 . S
C546 C542 1.413 . S
C546 C544 1.391 . S
C546 C561 1.437 . S
H547 C544 0.929 . S
O548 Gd504 2.545 . S
O548 C563 1.258 . S
O549 Gd504 2.606 . S
O549 Gd505 2.362 . S
O549 C560 1.284 . S
O550 Gd505 2.324 . S
O550 C570 1.254 . S
O551 Gd504 2.429 . S
O551 C570 1.268 . S
O552 Gd504 2.545 . S
O552 C560 1.250 . S
O553 Gd504 2.412 . S
O553 C563 1.252 . S
O554 Gd505 2.545 . S
O554 C572 1.258 . S
O555 Gd504 2.362 . S
O555 Gd505 2.606 . S
O555 C571 1.284 . S
O556 Gd504 2.324 . S
O556 C579 1.254 . S
O557 Gd505 2.429 . S
O557 C579 1.268 . S
O558 Gd505 2.545 . S
O558 C571 1.250 . S
O559 Gd505 2.412 . S
O559 C572 1.252 . S
C560 O549 1.284 . S
C560 O552 1.250 . S
C561 H530 0.929 . S
C561 C546 1.437 . S
C561 C562 1.317 . S
C562 H533 0.930 . S
C562 C538 1.431 . S
C562 C561 1.317 . S
C563 Gd504 2.828 . S
C563 O548 1.258 . S
C563 O553 1.252 . S
C563 C564 1.497 . S
C564 C563 1.497 . S
C564 C565 1.395 . S
C564 C566 1.380 . S
C565 C564 1.395 . S
C565 C568 1.398 . S
C565 H580 0.930 . S
C566 C564 1.380 . S
C566 C567 1.391 . S
C566 H581 0.930 . S
C567 C566 1.391 . S
C567 C569 1.387 . S
C568 C565 1.398 . S
C568 C569 1.380 . S
C568 H582 0.930 . S
C569 C567 1.387 . S
C569 C568 1.380 . S
C569 H583 0.930 1_556 S
C570 O550 1.254 . S
C570 O551 1.268 . S
C571 O555 1.284 . S
C571 O558 1.250 . S
C572 Gd505 2.828 . S
C572 O554 1.258 . S
C572 O559 1.252 . S
C572 C573 1.497 . S
C573 C572 1.497 . S
C573 C574 1.395 . S
C573 C575 1.380 . S
C574 C573 1.395 . S
C574 C577 1.398 . S
C574 H584 0.930 . S
C575 C573 1.380 . S
C575 C576 1.391 . S
C575 H585 0.930 . S
C576 C575 1.391 . S
C576 C578 1.387 . S
C577 C574 1.398 . S
C577 C578 1.380 . S
C577 H586 0.930 . S
C578 C576 1.387 . S
C578 C577 1.380 . S
C578 H587 0.930 . S
C579 O556 1.254 . S
C579 O557 1.268 . S
H580 C565 0.930 . S
H581 C566 0.930 . S
H582 C568 0.930 . S
H583 C569 0.930 1_554 S
H584 C574 0.930 . S
H585 C575 0.930 . S
H586 C577 0.930 . S
H587 C578 0.930 . S
Gd588 N619 2.661 . S
Gd588 N625 2.601 . S
Gd588 O632 2.545 . S
Gd588 O633 2.606 . S
Gd588 O635 2.429 . S
Gd588 O636 2.545 . S
Gd588 O637 2.412 . S
Gd588 O639 2.362 . S
Gd588 O640 2.324 . S
Gd588 C647 2.828 . S
Gd589 N598 2.661 1_655 S
Gd589 N602 2.601 . S
Gd589 O633 2.362 . S
Gd589 O634 2.324 . S
Gd589 O638 2.545 . S
Gd589 O639 2.606 . S
Gd589 O641 2.429 . S
Gd589 O642 2.545 . S
Gd589 O643 2.412 . S
Gd589 C656 2.828 . S
C590 C593 1.417 . S
C590 C595 1.431 . S
C590 C596 1.412 . S
C591 C594 1.437 . S
C591 C595 1.317 . S
C591 H610 0.929 . S
C592 C593 1.426 1_655 S
C592 C594 1.413 1_655 S
C592 N602 1.359 . S
C593 C590 1.417 . S
C593 C592 1.426 1_455 S
C593 N598 1.350 . S
C594 C591 1.437 . S
C594 C592 1.413 1_455 S
C594 C604 1.391 1_455 S
C595 C590 1.431 . S
C595 C591 1.317 . S
C595 H606 0.930 . S
C596 C590 1.412 . S
C596 C597 1.355 . S
C596 H608 0.930 . S
C597 C596 1.355 . S
C597 C599 1.402 . S
C597 H609 0.930 . S
N598 Gd589 2.661 1_455 S
N598 C593 1.350 . S
N598 C599 1.307 . S
C599 C597 1.402 . S
C599 N598 1.307 . S
C599 H600 0.930 . S
H600 C599 0.930 . S
C601 N602 1.334 . S
C601 C603 1.394 . S
C601 H605 0.930 . S
N602 Gd589 2.601 . S
N602 C592 1.359 . S
N602 C601 1.334 . S
C603 C601 1.394 . S
C603 C604 1.359 . S
C603 H615 0.930 . S
C604 C594 1.391 1_655 S
C604 C603 1.359 . S
C604 H616 0.948 . S
H605 C601 0.930 . S
H606 C595 0.930 . S
H607 C624 0.930 . S
H608 C596 0.930 . S
H609 C597 0.930 . S
H610 C591 0.929 . S
H611 C629 0.930 . S
H612 C620 0.930 . S
H613 C621 0.930 . S
H614 C645 0.929 . S
H615 C603 0.930 . S
H616 C604 0.948 . S
H617 C646 0.930 . S
H618 C627 0.930 . S
N619 Gd588 2.661 . S
N619 C623 1.350 . S
N619 C624 1.307 . S
C620 H612 0.930 . S
C620 C621 1.355 . S
C620 C622 1.412 . S
C621 H613 0.930 . S
C621 C620 1.355 . S
C621 C624 1.402 . S
C622 C620 1.412 . S
C622 C623 1.417 . S
C622 C646 1.431 . S
C623 N619 1.350 . S
C623 C622 1.417 . S
C623 C626 1.426 . S
C624 H607 0.930 . S
C624 N619 1.307 . S
C624 C621 1.402 . S
N625 Gd588 2.601 . S
N625 C626 1.359 . S
N625 C629 1.334 . S
C626 C623 1.426 . S
C626 N625 1.359 . S
C626 C630 1.413 . S
C627 H618 0.930 . S
C627 C628 1.359 . S
C627 C629 1.394 . S
C628 C627 1.359 . S
C628 C630 1.391 . S
C628 H631 0.929 . S
C629 H611 0.930 . S
C629 N625 1.334 . S
C629 C627 1.394 . S
C630 C626 1.413 . S
C630 C628 1.391 . S
C630 C645 1.437 . S
H631 C628 0.929 . S
O632 Gd588 2.545 . S
O632 C647 1.258 . S
O633 Gd588 2.606 . S
O633 Gd589 2.362 . S
O633 C644 1.284 . S
O634 Gd589 2.324 . S
O634 C654 1.254 . S
O635 Gd588 2.429 . S
O635 C654 1.268 . S
O636 Gd588 2.545 . S
O636 C644 1.250 . S
O637 Gd588 2.412 . S
O637 C647 1.252 . S
O638 Gd589 2.545 . S
O638 C656 1.258 . S
O639 Gd588 2.362 . S
O639 Gd589 2.606 . S
O639 C655 1.284 . S
O640 Gd588 2.324 . S
O640 C663 1.254 . S
O641 Gd589 2.429 . S
O641 C663 1.268 . S
O642 Gd589 2.545 . S
O642 C655 1.250 . S
O643 Gd589 2.412 . S
O643 C656 1.252 . S
C644 O633 1.284 . S
C644 O636 1.250 . S
C645 H614 0.929 . S
C645 C630 1.437 . S
C645 C646 1.317 . S
C646 H617 0.930 . S
C646 C622 1.431 . S
C646 C645 1.317 . S
C647 Gd588 2.828 . S
C647 O632 1.258 . S
C647 O637 1.252 . S
C647 C648 1.497 . S
C648 C647 1.497 . S
C648 C649 1.395 . S
C648 C650 1.380 . S
C649 C648 1.395 . S
C649 C652 1.398 . S
C649 H664 0.930 . S
C650 C648 1.380 . S
C650 C651 1.391 . S
C650 H665 0.930 . S
C651 C650 1.391 . S
C651 C653 1.387 . S
C652 C649 1.398 . S
C652 C653 1.380 . S
C652 H666 0.930 . S
C653 C651 1.387 . S
C653 C652 1.380 . S
C653 H667 0.930 . S
C654 O634 1.254 . S
C654 O635 1.268 . S
C655 O639 1.284 . S
C655 O642 1.250 . S
C656 Gd589 2.828 . S
C656 O638 1.258 . S
C656 O643 1.252 . S
C656 C657 1.497 . S
C657 C656 1.497 . S
C657 C658 1.395 1_556 S
C657 C659 1.380 1_556 S
C658 C657 1.395 1_554 S
C658 C661 1.398 . S
C658 H668 0.930 1_554 S
C659 C657 1.380 1_554 S
C659 C660 1.391 . S
C659 H669 0.930 . S
C660 C659 1.391 . S
C660 C662 1.387 . S
C661 C658 1.398 . S
C661 C662 1.380 . S
C661 H670 0.930 . S
C662 C660 1.387 . S
C662 C661 1.380 . S
C662 H671 0.930 . S
C663 O640 1.254 . S
C663 O641 1.268 . S
H664 C649 0.930 . S
H665 C650 0.930 . S
H666 C652 0.930 . S
H667 C653 0.930 . S
H668 C658 0.930 1_556 S
H669 C659 0.930 . S
H670 C661 0.930 . S
H671 C662 0.930 . S
Gd672 N703 2.661 . S
Gd672 N709 2.601 . S
Gd672 O716 2.545 1_556 S
Gd672 O717 2.606 . S
Gd672 O719 2.429 . S
Gd672 O720 2.545 . S
Gd672 O721 2.412 1_556 S
Gd672 O723 2.362 . S
Gd672 O724 2.324 . S
Gd672 C731 2.828 1_556 S
Gd673 N682 2.661 . S
Gd673 N686 2.601 . S
Gd673 O717 2.362 . S
Gd673 O718 2.324 . S
Gd673 O722 2.545 . S
Gd673 O723 2.606 . S
Gd673 O725 2.429 . S
Gd673 O726 2.545 . S
Gd673 O727 2.412 . S
Gd673 C740 2.828 . S
C674 C677 1.417 . S
C674 C679 1.431 . S
C674 C680 1.412 . S
C675 C678 1.437 . S
C675 C679 1.317 . S
C675 H694 0.929 . S
C676 C677 1.426 . S
C676 C678 1.413 . S
C676 N686 1.359 . S
C677 C674 1.417 . S
C677 C676 1.426 . S
C677 N682 1.350 . S
C678 C675 1.437 . S
C678 C676 1.413 . S
C678 C688 1.391 . S
C679 C674 1.431 . S
C679 C675 1.317 . S
C679 H690 0.930 . S
C680 C674 1.412 . S
C680 C681 1.355 . S
C680 H692 0.930 . S
C681 C680 1.355 . S
C681 C683 1.402 . S
C681 H693 0.930 . S
N682 Gd673 2.661 . S
N682 C677 1.350 . S
N682 C683 1.307 . S
C683 C681 1.402 . S
C683 N682 1.307 . S
C683 H684 0.930 . S
H684 C683 0.930 . S
C685 N686 1.334 . S
C685 C687 1.394 . S
C685 H689 0.930 . S
N686 Gd673 2.601 . S
N686 C676 1.359 . S
N686 C685 1.334 . S
C687 C685 1.394 . S
C687 C688 1.359 . S
C687 H699 0.930 . S
C688 C678 1.391 . S
C688 C687 1.359 . S
C688 H700 0.929 . S
H689 C685 0.930 . S
H690 C679 0.930 . S
H691 C708 0.930 . S
H692 C680 0.930 . S
H693 C681 0.930 . S
H694 C675 0.929 . S
H695 C713 0.930 . S
H696 C704 0.905 1_455 S
H697 C705 0.930 . S
H698 C729 0.929 1_455 S
H699 C687 0.930 . S
H700 C688 0.929 . S
H701 C730 0.930 . S
H702 C711 0.930 . S
N703 Gd672 2.661 . S
N703 C707 1.350 . S
N703 C708 1.307 . S
C704 H696 0.905 1_655 S
C704 C705 1.358 . S
C704 C706 1.434 . S
C705 H697 0.930 . S
C705 C704 1.358 . S
C705 C708 1.402 . S
C706 C704 1.434 . S
C706 C707 1.417 . S
C706 C730 1.431 1_655 S
C707 N703 1.350 . S
C707 C706 1.417 . S
C707 C710 1.426 . S
C708 H691 0.930 . S
C708 N703 1.307 . S
C708 C705 1.402 . S
N709 Gd672 2.601 . S
N709 C710 1.359 . S
N709 C713 1.334 . S
C710 C707 1.426 . S
C710 N709 1.359 . S
C710 C714 1.413 . S
C711 H702 0.930 . S
C711 C712 1.359 . S
C711 C713 1.394 . S
C712 C711 1.359 . S
C712 C714 1.391 . S
C712 H715 0.929 . S
C713 H695 0.930 . S
C713 N709 1.334 . S
C713 C711 1.394 . S
C714 C710 1.413 . S
C714 C712 1.391 . S
C714 C729 1.437 . S
H715 C712 0.929 . S
O716 Gd672 2.545 1_554 S
O716 C731 1.258 . S
O717 Gd672 2.606 . S
O717 Gd673 2.362 . S
O717 C728 1.284 . S
O718 Gd673 2.324 . S
O718 C738 1.254 . S
O719 Gd672 2.429 . S
O719 C738 1.268 . S
O720 Gd672 2.545 . S
O720 C728 1.250 . S
O721 Gd672 2.412 1_554 S
O721 C731 1.252 . S
O722 Gd673 2.545 . S
O722 C740 1.258 . S
O723 Gd672 2.362 . S
O723 Gd673 2.606 . S
O723 C739 1.284 . S
O724 Gd672 2.324 . S
O724 C747 1.254 . S
O725 Gd673 2.429 . S
O725 C747 1.268 . S
O726 Gd673 2.545 . S
O726 C739 1.250 . S
O727 Gd673 2.412 . S
O727 C740 1.252 . S
C728 O717 1.284 . S
C728 O720 1.250 . S
C729 H698 0.929 1_655 S
C729 C714 1.437 . S
C729 C730 1.317 1_655 S
C730 H701 0.930 . S
C730 C706 1.431 1_455 S
C730 C729 1.317 1_455 S
C731 Gd672 2.828 1_554 S
C731 O716 1.258 . S
C731 O721 1.252 . S
C731 C732 1.497 . S
C732 C731 1.497 . S
C732 C733 1.395 . S
C732 C734 1.380 . S
C733 C732 1.395 . S
C733 C736 1.398 . S
C733 H748 0.930 . S
C734 C732 1.380 . S
C734 C735 1.391 . S
C734 H749 0.930 . S
C735 C734 1.391 . S
C735 C737 1.387 . S
C736 C733 1.398 . S
C736 C737 1.380 . S
C736 H750 0.930 . S
C737 C735 1.387 . S
C737 C736 1.380 . S
C737 H751 0.930 . S
C738 O718 1.254 . S
C738 O719 1.268 . S
C739 O723 1.284 . S
C739 O726 1.250 . S
C740 Gd673 2.828 . S
C740 O722 1.258 . S
C740 O727 1.252 . S
C740 C741 1.497 . S
C741 C740 1.497 . S
C741 C742 1.395 . S
C741 C743 1.380 . S
C742 C741 1.395 . S
C742 C745 1.398 . S
C742 H752 0.930 . S
C743 C741 1.380 . S
C743 C744 1.391 . S
C743 H753 0.930 . S
C744 C743 1.391 . S
C744 C746 1.387 . S
C745 C742 1.398 . S
C745 C746 1.380 . S
C745 H754 0.930 . S
C746 C744 1.387 . S
C746 C745 1.380 . S
C746 H755 0.930 . S
C747 O724 1.254 . S
C747 O725 1.268 . S
H748 C733 0.930 . S
H749 C734 0.930 . S
H750 C736 0.930 . S
H751 C737 0.930 . S
H752 C742 0.930 . S
H753 C743 0.930 . S
H754 C745 0.930 . S
H755 C746 0.930 . S
C756 C757 1.391 . S
C756 C758 1.394 . S
C756 H772 0.931 . S
C757 C756 1.391 . S
C757 C761 1.376 . S
C758 C756 1.394 . S
C758 C759 1.369 . S
C758 C762 1.531 . S
C759 C758 1.369 . S
C759 C760 1.410 . S
C759 C767 1.503 . S
C760 C759 1.410 . S
C760 C761 1.392 . S
C760 C763 1.511 . S
C761 C757 1.376 . S
C761 C760 1.392 . S
C761 H773 0.929 . S
C762 C758 1.531 . S
C762 H774 0.960 . S
C762 H775 0.962 1_455 S
C762 H776 0.960 . S
C763 C760 1.511 . S
C763 H777 0.961 . S
C763 H778 0.961 . S
C763 H779 0.961 . S
C764 C765 1.370 . S
C764 C766 1.363 . S
C764 H780 0.931 . S
C765 C764 1.370 . S
C765 C769 1.408 . S
C766 C764 1.363 . S
C766 C767 1.370 . S
C766 C770 1.524 . S
C767 C759 1.503 . S
C767 C766 1.370 . S
C767 C768 1.403 . S
C768 C767 1.403 . S
C768 C769 1.404 . S
C768 C771 1.539 . S
C769 C765 1.408 . S
C769 C768 1.404 . S
C769 H781 0.930 . S
C770 C766 1.524 . S
C770 H782 0.956 1_455 S
C770 H783 0.961 . S
C770 H784 0.961 1_455 S
C771 C768 1.539 . S
C771 H785 0.958 . S
C771 H786 0.961 . S
C771 H787 0.960 . S
H772 C756 0.931 . S
H773 C761 0.929 . S
H774 C762 0.960 . S
H775 C762 0.962 1_655 S
H776 C762 0.960 . S
H777 C763 0.961 . S
H778 C763 0.961 . S
H779 C763 0.961 . S
H780 C764 0.931 . S
H781 C769 0.930 . S
H782 C770 0.956 1_655 S
H783 C770 0.961 . S
H784 C770 0.961 1_655 S
H785 C771 0.958 . S
H786 C771 0.961 . S
H787 C771 0.960 . S
C788 C789 1.391 . S
C788 C790 1.394 . S
C788 H804 0.931 . S
C789 C788 1.391 . S
C789 C793 1.376 . S
C790 C788 1.394 . S
C790 C791 1.369 . S
C790 C794 1.531 . S
C791 C790 1.369 . S
C791 C792 1.410 . S
C791 C799 1.503 . S
C792 C791 1.410 . S
C792 C793 1.392 . S
C792 C795 1.511 . S
C793 C789 1.376 . S
C793 C792 1.392 . S
C793 H805 0.929 . S
C794 C790 1.531 . S
C794 H806 0.960 . S
C794 H807 0.962 . S
C794 H808 0.960 . S
C795 C792 1.511 . S
C795 H809 0.961 . S
C795 H810 0.961 . S
C795 H811 0.961 . S
C796 C797 1.370 . S
C796 C798 1.363 . S
C796 H812 0.931 . S
C797 C796 1.370 . S
C797 C801 1.408 . S
C798 C796 1.363 . S
C798 C799 1.370 . S
C798 C802 1.524 . S
C799 C791 1.503 . S
C799 C798 1.370 . S
C799 C800 1.403 . S
C800 C799 1.403 . S
C800 C801 1.404 . S
C800 C803 1.539 . S
C801 C797 1.408 . S
C801 C800 1.404 . S
C801 H813 0.930 . S
C802 C798 1.524 . S
C802 H814 0.956 . S
C802 H815 0.961 . S
C802 H816 0.961 . S
C803 C800 1.539 . S
C803 H817 0.958 . S
C803 H818 0.961 . S
C803 H819 0.960 . S
H804 C788 0.931 . S
H805 C793 0.929 . S
H806 C794 0.960 . S
H807 C794 0.962 . S
H808 C794 0.960 . S
H809 C795 0.961 . S
H810 C795 0.961 . S
H811 C795 0.961 . S
H812 C796 0.931 . S
H813 C801 0.930 . S
H814 C802 0.956 . S
H815 C802 0.961 . S
H816 C802 0.961 . S
H817 C803 0.958 . S
H818 C803 0.961 . S
H819 C803 0.960 . S
C820 C821 1.391 . S
C820 C822 1.394 . S
C820 H836 0.931 . S
C821 C820 1.391 . S
C821 C825 1.376 . S
C822 C820 1.394 . S
C822 C823 1.369 . S
C822 C826 1.531 . S
C823 C822 1.369 . S
C823 C824 1.410 . S
C823 C831 1.503 . S
C824 C823 1.410 . S
C824 C825 1.392 . S
C824 C827 1.511 . S
C825 C821 1.376 . S
C825 C824 1.392 . S
C825 H837 0.929 . S
C826 C822 1.531 . S
C826 H838 0.960 . S
C826 H839 0.962 . S
C826 H840 0.960 . S
C827 C824 1.511 . S
C827 H841 0.961 . S
C827 H842 0.961 . S
C827 H843 0.961 . S
C828 C829 1.370 . S
C828 C830 1.363 . S
C828 H844 0.931 . S
C829 C828 1.370 . S
C829 C833 1.408 . S
C830 C828 1.363 . S
C830 C831 1.370 . S
C830 C834 1.524 . S
C831 C823 1.503 . S
C831 C830 1.370 . S
C831 C832 1.403 . S
C832 C831 1.403 . S
C832 C833 1.404 . S
C832 C835 1.539 . S
C833 C829 1.408 . S
C833 C832 1.404 . S
C833 H845 0.930 . S
C834 C830 1.524 . S
C834 H846 0.956 . S
C834 H847 0.961 . S
C834 H848 0.961 . S
C835 C832 1.539 . S
C835 H849 0.958 . S
C835 H850 0.961 . S
C835 H851 0.960 . S
H836 C820 0.931 . S
H837 C825 0.929 . S
H838 C826 0.960 . S
H839 C826 0.962 . S
H840 C826 0.960 . S
H841 C827 0.961 . S
H842 C827 0.961 . S
H843 C827 0.961 . S
H844 C828 0.931 . S
H845 C833 0.930 . S
H846 C834 0.956 . S
H847 C834 0.961 . S
H848 C834 0.961 . S
H849 C835 0.958 . S
H850 C835 0.961 . S
H851 C835 0.960 . S
C852 C853 1.391 . S
C852 C854 1.394 . S
C852 H868 0.931 . S
C853 C852 1.391 . S
C853 C857 1.376 . S
C854 C852 1.394 . S
C854 C855 1.369 . S
C854 C858 1.531 . S
C855 C854 1.369 . S
C855 C856 1.410 . S
C855 C863 1.503 . S
C856 C855 1.410 . S
C856 C857 1.392 . S
C856 C859 1.511 . S
C857 C853 1.376 . S
C857 C856 1.392 . S
C857 H869 0.929 . S
C858 C854 1.531 . S
C858 H870 0.960 . S
C858 H871 0.962 . S
C858 H872 0.960 . S
C859 C856 1.511 . S
C859 H873 0.961 . S
C859 H874 0.961 . S
C859 H875 0.961 . S
C860 C861 1.370 . S
C860 C862 1.363 . S
C860 H876 0.931 . S
C861 C860 1.370 . S
C861 C865 1.408 . S
C862 C860 1.363 . S
C862 C863 1.370 . S
C862 C866 1.524 . S
C863 C855 1.503 . S
C863 C862 1.370 . S
C863 C864 1.403 . S
C864 C863 1.403 . S
C864 C865 1.404 . S
C864 C867 1.539 . S
C865 C861 1.408 . S
C865 C864 1.404 . S
C865 H877 0.930 . S
C866 C862 1.524 . S
C866 H878 0.956 . S
C866 H879 0.961 . S
C866 H880 0.961 . S
C867 C864 1.539 . S
C867 H881 0.958 . S
C867 H882 0.961 . S
C867 H883 0.960 . S
H868 C852 0.931 . S
H869 C857 0.929 . S
H870 C858 0.960 . S
H871 C858 0.962 . S
H872 C858 0.960 . S
H873 C859 0.961 . S
H874 C859 0.961 . S
H875 C859 0.961 . S
H876 C860 0.931 . S
H877 C865 0.930 . S
H878 C866 0.956 . S
H879 C866 0.961 . S
H880 C866 0.961 . S
H881 C867 0.958 . S
H882 C867 0.961 . S
H883 C867 0.960 . S
C884 C885 1.391 . S
C884 C886 1.394 . S
C884 H900 0.931 . S
C885 C884 1.391 . S
C885 C889 1.376 . S
C886 C884 1.394 . S
C886 C887 1.369 . S
C886 C890 1.531 . S
C887 C886 1.369 . S
C887 C888 1.410 . S
C887 C895 1.503 . S
C888 C887 1.410 . S
C888 C889 1.392 . S
C888 C891 1.511 . S
C889 C885 1.376 . S
C889 C888 1.392 . S
C889 H901 0.929 . S
C890 C886 1.531 . S
C890 H902 0.960 . S
C890 H903 0.962 . S
C890 H904 0.960 . S
C891 C888 1.511 . S
C891 H905 0.961 . S
C891 H906 0.961 . S
C891 H907 0.961 . S
C892 C893 1.370 . S
C892 C894 1.363 . S
C892 H908 0.931 . S
C893 C892 1.370 . S
C893 C897 1.408 . S
C894 C892 1.363 . S
C894 C895 1.370 . S
C894 C898 1.524 . S
C895 C887 1.503 . S
C895 C894 1.370 . S
C895 C896 1.403 . S
C896 C895 1.403 . S
C896 C897 1.404 . S
C896 C899 1.539 . S
C897 C893 1.408 . S
C897 C896 1.404 . S
C897 H909 0.930 . S
C898 C894 1.524 . S
C898 H910 0.956 . S
C898 H911 0.961 . S
C898 H912 0.961 . S
C899 C896 1.539 . S
C899 H913 0.958 . S
C899 H914 0.961 . S
C899 H915 0.960 . S
H900 C884 0.931 . S
H901 C889 0.929 . S
H902 C890 0.960 . S
H903 C890 0.962 . S
H904 C890 0.960 . S
H905 C891 0.961 . S
H906 C891 0.961 . S
H907 C891 0.961 . S
H908 C892 0.931 . S
H909 C897 0.930 . S
H910 C898 0.956 . S
H911 C898 0.961 . S
H912 C898 0.961 . S
H913 C899 0.958 . S
H914 C899 0.961 . S
H915 C899 0.960 . S
C916 C917 1.391 . S
C916 C918 1.394 . S
C916 H932 0.931 . S
C917 C916 1.391 . S
C917 C921 1.376 . S
C918 C916 1.394 . S
C918 C919 1.369 . S
C918 C922 1.531 . S
C919 C918 1.369 . S
C919 C920 1.410 . S
C919 C927 1.503 . S
C920 C919 1.410 . S
C920 C921 1.392 . S
C920 C923 1.511 . S
C921 C917 1.376 . S
C921 C920 1.392 . S
C921 H933 0.929 . S
C922 C918 1.531 . S
C922 H934 0.960 . S
C922 H935 0.962 . S
C922 H936 0.960 . S
C923 C920 1.511 . S
C923 H937 0.961 . S
C923 H938 0.961 . S
C923 H939 0.961 . S
C924 C925 1.370 . S
C924 C926 1.363 . S
C924 H940 0.931 . S
C925 C924 1.370 . S
C925 C929 1.408 . S
C926 C924 1.363 . S
C926 C927 1.370 . S
C926 C930 1.524 . S
C927 C919 1.503 . S
C927 C926 1.370 . S
C927 C928 1.403 . S
C928 C927 1.403 . S
C928 C929 1.404 . S
C928 C931 1.539 . S
C929 C925 1.408 . S
C929 C928 1.404 . S
C929 H941 0.930 . S
C930 C926 1.524 . S
C930 H942 0.956 . S
C930 H943 0.961 . S
C930 H944 0.961 . S
C931 C928 1.539 . S
C931 H945 0.958 . S
C931 H946 0.961 . S
C931 H947 0.960 . S
H932 C916 0.931 . S
H933 C921 0.929 . S
H934 C922 0.960 . S
H935 C922 0.962 . S
H936 C922 0.960 . S
H937 C923 0.961 . S
H938 C923 0.961 . S
H939 C923 0.961 . S
H940 C924 0.931 . S
H941 C929 0.930 . S
H942 C930 0.956 . S
H943 C930 0.961 . S
H944 C930 0.961 . S
H945 C931 0.958 . S
H946 C931 0.961 . S
H947 C931 0.960 . S
C948 C949 1.391 . S
C948 C950 1.394 . S
C948 H964 0.931 . S
C949 C948 1.391 . S
C949 C953 1.376 . S
C950 C948 1.394 . S
C950 C951 1.369 . S
C950 C954 1.531 . S
C951 C950 1.369 . S
C951 C952 1.410 . S
C951 C959 1.503 . S
C952 C951 1.410 . S
C952 C953 1.392 . S
C952 C955 1.511 . S
C953 C949 1.376 . S
C953 C952 1.392 . S
C953 H965 0.929 . S
C954 C950 1.531 . S
C954 H966 0.960 . S
C954 H967 0.962 . S
C954 H968 0.960 . S
C955 C952 1.511 . S
C955 H969 0.961 . S
C955 H970 0.961 . S
C955 H971 0.961 . S
C956 C957 1.370 . S
C956 C958 1.363 1_556 S
C956 H972 0.931 . S
C957 C956 1.370 . S
C957 C961 1.408 . S
C958 C956 1.363 1_554 S
C958 C959 1.370 . S
C958 C962 1.524 . S
C959 C951 1.503 . S
C959 C958 1.370 . S
C959 C960 1.403 1_554 S
C960 C959 1.403 1_556 S
C960 C961 1.404 . S
C960 C963 1.539 . S
C961 C957 1.408 . S
C961 C960 1.404 . S
C961 H973 0.930 . S
C962 C958 1.524 . S
C962 H974 0.956 . S
C962 H975 0.961 . S
C962 H976 0.961 . S
C963 C960 1.539 . S
C963 H977 0.958 . S
C963 H978 0.961 . S
C963 H979 0.960 . S
H964 C948 0.931 . S
H965 C953 0.929 . S
H966 C954 0.960 . S
H967 C954 0.962 . S
H968 C954 0.960 . S
H969 C955 0.961 . S
H970 C955 0.961 . S
H971 C955 0.961 . S
H972 C956 0.931 . S
H973 C961 0.930 . S
H974 C962 0.956 . S
H975 C962 0.961 . S
H976 C962 0.961 . S
H977 C963 0.958 . S
H978 C963 0.961 . S
H979 C963 0.960 . S
C980 C981 1.391 . S
C980 C982 1.394 . S
C980 H996 0.931 . S
C981 C980 1.391 . S
C981 C985 1.376 . S
C982 C980 1.394 . S
C982 C983 1.369 . S
C982 C986 1.531 . S
C983 C982 1.369 . S
C983 C984 1.410 . S
C983 C991 1.503 . S
C984 C983 1.410 . S
C984 C985 1.392 . S
C984 C987 1.511 . S
C985 C981 1.376 . S
C985 C984 1.392 . S
C985 H997 0.929 . S
C986 C982 1.531 . S
C986 H998 0.960 . S
C986 H999 0.962 . S
C986 H1000 0.960 . S
C987 C984 1.511 . S
C987 H1001 0.961 . S
C987 H1002 0.961 . S
C987 H1003 0.961 . S
C988 C989 1.370 1_554 S
C988 C990 1.363 . S
C988 H1004 0.931 . S
C989 C988 1.370 1_556 S
C989 C993 1.408 1_556 S
C990 C988 1.363 . S
C990 C991 1.370 . S
C990 C994 1.524 . S
C991 C983 1.503 . S
C991 C990 1.370 . S
C991 C992 1.403 . S
C992 C991 1.403 . S
C992 C993 1.404 . S
C992 C995 1.539 . S
C993 C989 1.408 1_554 S
C993 C992 1.404 . S
C993 H1005 0.930 1_554 S
C994 C990 1.524 . S
C994 H1006 0.956 . S
C994 H1007 0.961 . S
C994 H1008 0.961 . S
C995 C992 1.539 . S
C995 H1009 0.958 . S
C995 H1010 0.961 . S
C995 H1011 0.960 . S
H996 C980 0.931 . S
H997 C985 0.929 . S
H998 C986 0.960 . S
H999 C986 0.962 . S
H1000 C986 0.960 . S
H1001 C987 0.961 . S
H1002 C987 0.961 . S
H1003 C987 0.961 . S
H1004 C988 0.931 . S
H1005 C993 0.930 1_556 S
H1006 C994 0.956 . S
H1007 C994 0.961 . S
H1008 C994 0.961 . S
H1009 C995 0.958 . S
H1010 C995 0.961 . S
H1011 C995 0.960 . S
C1012 C1013 1.391 . S
C1012 C1014 1.394 . S
C1012 H1028 0.931 . S
C1013 C1012 1.391 . S
C1013 C1017 1.376 . S
C1014 C1012 1.394 . S
C1014 C1015 1.369 . S
C1014 C1018 1.531 . S
C1015 C1014 1.369 . S
C1015 C1016 1.410 . S
C1015 C1023 1.503 . S
C1016 C1015 1.410 . S
C1016 C1017 1.392 . S
C1016 C1019 1.511 . S
C1017 C1013 1.376 . S
C1017 C1016 1.392 . S
C1017 H1029 0.929 . S
C1018 C1014 1.531 . S
C1018 H1030 0.960 . S
C1018 H1031 0.962 . S
C1018 H1032 0.960 . S
C1019 C1016 1.511 . S
C1019 H1033 0.961 . S
C1019 H1034 0.961 . S
C1019 H1035 0.961 . S
C1020 C1021 1.370 . S
C1020 C1022 1.363 . S
C1020 H1036 0.931 . S
C1021 C1020 1.370 . S
C1021 C1025 1.408 . S
C1022 C1020 1.363 . S
C1022 C1023 1.370 . S
C1022 C1026 1.524 . S
C1023 C1015 1.503 . S
C1023 C1022 1.370 . S
C1023 C1024 1.403 . S
C1024 C1023 1.403 . S
C1024 C1025 1.404 . S
C1024 C1027 1.539 . S
C1025 C1021 1.408 . S
C1025 C1024 1.404 . S
C1025 H1037 0.930 . S
C1026 C1022 1.524 . S
C1026 H1038 0.956 . S
C1026 H1039 0.961 . S
C1026 H1040 0.961 . S
C1027 C1024 1.539 . S
C1027 H1041 0.958 . S
C1027 H1042 0.961 . S
C1027 H1043 0.960 . S
H1028 C1012 0.931 . S
H1029 C1017 0.929 . S
H1030 C1018 0.960 . S
H1031 C1018 0.962 . S
H1032 C1018 0.960 . S
H1033 C1019 0.961 . S
H1034 C1019 0.961 . S
H1035 C1019 0.961 . S
H1036 C1020 0.931 . S
H1037 C1025 0.930 . S
H1038 C1026 0.956 . S
H1039 C1026 0.961 . S
H1040 C1026 0.961 . S
H1041 C1027 0.958 . S
H1042 C1027 0.961 . S
H1043 C1027 0.960 . S
C1044 C1045 1.391 . S
C1044 C1046 1.394 . S
C1044 H1060 0.931 . S
C1045 C1044 1.391 . S
C1045 C1049 1.376 . S
C1046 C1044 1.394 . S
C1046 C1047 1.369 . S
C1046 C1050 1.531 . S
C1047 C1046 1.369 . S
C1047 C1048 1.410 . S
C1047 C1055 1.503 . S
C1048 C1047 1.410 . S
C1048 C1049 1.392 . S
C1048 C1051 1.511 . S
C1049 C1045 1.376 . S
C1049 C1048 1.392 . S
C1049 H1061 0.929 . S
C1050 C1046 1.531 . S
C1050 H1062 0.960 . S
C1050 H1063 0.962 . S
C1050 H1064 0.960 . S
C1051 C1048 1.511 . S
C1051 H1065 0.961 . S
C1051 H1066 0.961 . S
C1051 H1067 0.961 . S
C1052 C1053 1.370 . S
C1052 C1054 1.363 . S
C1052 H1068 0.931 . S
C1053 C1052 1.370 . S
C1053 C1057 1.408 . S
C1054 C1052 1.363 . S
C1054 C1055 1.370 . S
C1054 C1058 1.524 . S
C1055 C1047 1.503 . S
C1055 C1054 1.370 . S
C1055 C1056 1.403 . S
C1056 C1055 1.403 . S
C1056 C1057 1.404 . S
C1056 C1059 1.539 . S
C1057 C1053 1.408 . S
C1057 C1056 1.404 . S
C1057 H1069 0.930 . S
C1058 C1054 1.524 . S
C1058 H1070 0.956 . S
C1058 H1071 0.961 . S
C1058 H1072 0.961 . S
C1059 C1056 1.539 . S
C1059 H1073 0.958 . S
C1059 H1074 0.961 . S
C1059 H1075 0.960 . S
H1060 C1044 0.931 . S
H1061 C1049 0.929 . S
H1062 C1050 0.960 . S
H1063 C1050 0.962 . S
H1064 C1050 0.960 . S
H1065 C1051 0.961 . S
H1066 C1051 0.961 . S
H1067 C1051 0.961 . S
H1068 C1052 0.931 . S
H1069 C1057 0.930 . S
H1070 C1058 0.956 . S
H1071 C1058 0.961 . S
H1072 C1058 0.961 . S
H1073 C1059 0.958 . S
H1074 C1059 0.961 . S
H1075 C1059 0.960 . S
C1076 C1077 1.391 . S
C1076 C1078 1.394 . S
C1076 H1092 0.931 . S
C1077 C1076 1.391 . S
C1077 C1081 1.376 . S
C1078 C1076 1.394 . S
C1078 C1079 1.369 . S
C1078 C1082 1.531 . S
C1079 C1078 1.369 . S
C1079 C1080 1.410 . S
C1079 C1087 1.503 . S
C1080 C1079 1.410 . S
C1080 C1081 1.392 . S
C1080 C1083 1.511 . S
C1081 C1077 1.376 . S
C1081 C1080 1.392 . S
C1081 H1093 0.929 . S
C1082 C1078 1.531 . S
C1082 H1094 0.960 . S
C1082 H1095 0.962 . S
C1082 H1096 0.960 . S
C1083 C1080 1.511 . S
C1083 H1097 0.961 . S
C1083 H1098 0.961 . S
C1083 H1099 0.961 . S
C1084 C1085 1.370 . S
C1084 C1086 1.363 . S
C1084 H1100 0.931 . S
C1085 C1084 1.370 . S
C1085 C1089 1.408 . S
C1086 C1084 1.363 . S
C1086 C1087 1.370 . S
C1086 C1090 1.524 . S
C1087 C1079 1.503 . S
C1087 C1086 1.370 . S
C1087 C1088 1.403 . S
C1088 C1087 1.403 . S
C1088 C1089 1.404 . S
C1088 C1091 1.539 . S
C1089 C1085 1.408 . S
C1089 C1088 1.404 . S
C1089 H1101 0.930 . S
C1090 C1086 1.524 . S
C1090 H1102 0.956 . S
C1090 H1103 0.961 . S
C1090 H1104 0.961 . S
C1091 C1088 1.539 . S
C1091 H1105 0.958 . S
C1091 H1106 0.961 . S
C1091 H1107 0.960 . S
H1092 C1076 0.931 . S
H1093 C1081 0.929 . S
H1094 C1082 0.960 . S
H1095 C1082 0.962 . S
H1096 C1082 0.960 . S
H1097 C1083 0.961 . S
H1098 C1083 0.961 . S
H1099 C1083 0.961 . S
H1100 C1084 0.931 . S
H1101 C1089 0.930 . S
H1102 C1090 0.956 . S
H1103 C1090 0.961 . S
H1104 C1090 0.961 . S
H1105 C1091 0.958 . S
H1106 C1091 0.961 . S
H1107 C1091 0.960 . S
C1108 C1109 1.391 . S
C1108 C1110 1.394 . S
C1108 H1124 0.931 1_554 S
C1109 C1108 1.391 . S
C1109 C1113 1.376 . S
C1110 C1108 1.394 . S
C1110 C1111 1.369 . S
C1110 C1114 1.531 1_554 S
C1111 C1110 1.369 . S
C1111 C1112 1.410 . S
C1111 C1119 1.503 . S
C1112 C1111 1.410 . S
C1112 C1113 1.392 . S
C1112 C1115 1.511 . S
C1113 C1109 1.376 . S
C1113 C1112 1.392 . S
C1113 H1125 0.929 . S
C1114 C1110 1.531 1_556 S
C1114 H1126 0.960 . S
C1114 H1127 0.962 . S
C1114 H1128 0.960 . S
C1115 C1112 1.511 . S
C1115 H1129 0.961 . S
C1115 H1130 0.961 . S
C1115 H1131 0.961 . S
C1116 C1117 1.370 . S
C1116 C1118 1.363 . S
C1116 H1132 0.931 . S
C1117 C1116 1.370 . S
C1117 C1121 1.408 . S
C1118 C1116 1.363 . S
C1118 C1119 1.370 . S
C1118 C1122 1.524 . S
C1119 C1111 1.503 . S
C1119 C1118 1.370 . S
C1119 C1120 1.403 . S
C1120 C1119 1.403 . S
C1120 C1121 1.404 . S
C1120 C1123 1.539 . S
C1121 C1117 1.408 . S
C1121 C1120 1.404 . S
C1121 H1133 0.930 . S
C1122 C1118 1.524 . S
C1122 H1134 0.956 . S
C1122 H1135 0.961 . S
C1122 H1136 0.961 . S
C1123 C1120 1.539 . S
C1123 H1137 0.958 . S
C1123 H1138 0.961 . S
C1123 H1139 0.960 . S
H1124 C1108 0.931 1_556 S
H1125 C1113 0.929 . S
H1126 C1114 0.960 . S
H1127 C1114 0.962 . S
H1128 C1114 0.960 . S
H1129 C1115 0.961 . S
H1130 C1115 0.961 . S
H1131 C1115 0.961 . S
H1132 C1116 0.931 . S
H1133 C1121 0.930 . S
H1134 C1122 0.956 . S
H1135 C1122 0.961 . S
H1136 C1122 0.961 . S
H1137 C1123 0.958 . S
H1138 C1123 0.961 . S
H1139 C1123 0.960 . S
C1140 C1141 1.391 . S
C1140 C1142 1.394 . S
C1140 H1156 0.931 . S
C1141 C1140 1.391 . S
C1141 C1145 1.376 . S
C1142 C1140 1.394 . S
C1142 C1143 1.369 . S
C1142 C1146 1.531 . S
C1143 C1142 1.369 . S
C1143 C1144 1.410 . S
C1143 C1151 1.503 . S
C1144 C1143 1.410 . S
C1144 C1145 1.392 . S
C1144 C1147 1.511 . S
C1145 C1141 1.376 . S
C1145 C1144 1.392 . S
C1145 H1157 0.929 . S
C1146 C1142 1.531 . S
C1146 H1158 0.960 . S
C1146 H1159 0.962 . S
C1146 H1160 0.960 . S
C1147 C1144 1.511 . S
C1147 H1161 0.961 . S
C1147 H1162 0.961 . S
C1147 H1163 0.961 . S
C1148 C1149 1.370 . S
C1148 C1150 1.363 . S
C1148 H1164 0.931 . S
C1149 C1148 1.370 . S
C1149 C1153 1.408 . S
C1150 C1148 1.363 . S
C1150 C1151 1.370 . S
C1150 C1154 1.524 . S
C1151 C1143 1.503 . S
C1151 C1150 1.370 . S
C1151 C1152 1.403 . S
C1152 C1151 1.403 . S
C1152 C1153 1.404 . S
C1152 C1155 1.539 . S
C1153 C1149 1.408 . S
C1153 C1152 1.404 . S
C1153 H1165 0.930 . S
C1154 C1150 1.524 . S
C1154 H1166 0.956 . S
C1154 H1167 0.961 . S
C1154 H1168 0.961 . S
C1155 C1152 1.539 . S
C1155 H1169 0.958 . S
C1155 H1170 0.961 . S
C1155 H1171 0.960 . S
H1156 C1140 0.931 . S
H1157 C1145 0.929 . S
H1158 C1146 0.960 . S
H1159 C1146 0.962 . S
H1160 C1146 0.960 . S
H1161 C1147 0.961 . S
H1162 C1147 0.961 . S
H1163 C1147 0.961 . S
H1164 C1148 0.931 . S
H1165 C1153 0.930 . S
H1166 C1154 0.956 . S
H1167 C1154 0.961 . S
H1168 C1154 0.961 . S
H1169 C1155 0.958 . S
H1170 C1155 0.961 . S
H1171 C1155 0.960 . S
C1172 C1173 1.391 . S
C1172 C1174 1.396 1_655 S
C1172 H1188 0.931 1_655 S
C1173 C1172 1.391 . S
C1173 C1177 1.376 . S
C1174 C1172 1.396 1_455 S
C1174 C1175 1.357 1_455 S
C1174 C1178 1.540 . S
C1175 C1174 1.357 1_655 S
C1175 C1176 1.410 . S
C1175 C1183 1.503 . S
C1176 C1175 1.410 . S
C1176 C1177 1.392 . S
C1176 C1179 1.511 . S
C1177 C1173 1.376 . S
C1177 C1176 1.392 . S
C1177 H1189 0.929 . S
C1178 C1174 1.540 . S
C1178 H1190 0.960 . S
C1178 H1191 0.962 . S
C1178 H1192 0.960 . S
C1179 C1176 1.511 . S
C1179 H1193 0.961 . S
C1179 H1194 0.961 . S
C1179 H1195 0.961 . S
C1180 C1181 1.370 1_655 S
C1180 C1182 1.363 . S
C1180 H1196 0.931 . S
C1181 C1180 1.370 1_455 S
C1181 C1185 1.408 . S
C1182 C1180 1.363 . S
C1182 C1183 1.370 1_554 S
C1182 C1186 1.524 . S
C1183 C1175 1.503 . S
C1183 C1182 1.370 1_556 S
C1183 C1184 1.403 1_655 S
C1184 C1183 1.403 1_455 S
C1184 C1185 1.404 1_556 S
C1184 C1187 1.539 . S
C1185 C1181 1.408 . S
C1185 C1184 1.404 1_554 S
C1185 H1197 0.930 . S
C1186 C1182 1.524 . S
C1186 H1198 0.956 . S
C1186 H1199 0.961 . S
C1186 H1200 0.961 . S
C1187 C1184 1.539 . S
C1187 H1201 0.958 . S
C1187 H1202 0.961 . S
C1187 H1203 0.960 1_455 S
H1188 C1172 0.931 1_455 S
H1189 C1177 0.929 . S
H1190 C1178 0.960 . S
H1191 C1178 0.962 . S
H1192 C1178 0.960 . S
H1193 C1179 0.961 . S
H1194 C1179 0.961 . S
H1195 C1179 0.961 . S
H1196 C1180 0.931 . S
H1197 C1185 0.930 . S
H1198 C1186 0.956 . S
H1199 C1186 0.961 . S
H1200 C1186 0.961 . S
H1201 C1187 0.958 . S
H1202 C1187 0.961 . S
H1203 C1187 0.960 1_655 S
C1204 C1205 1.391 . S
C1204 C1206 1.394 1_556 S
C1204 H1220 0.931 . S
C1205 C1204 1.391 . S
C1205 C1209 1.376 . S
C1206 C1204 1.394 1_554 S
C1206 C1207 1.369 1_554 S
C1206 C1210 1.531 . S
C1207 C1206 1.369 1_556 S
C1207 C1208 1.410 . S
C1207 C1215 1.503 1_556 S
C1208 C1207 1.410 . S
C1208 C1209 1.392 . S
C1208 C1211 1.511 . S
C1209 C1205 1.376 . S
C1209 C1208 1.392 . S
C1209 H1221 0.929 . S
C1210 C1206 1.531 . S
C1210 H1222 0.960 . S
C1210 H1223 0.962 . S
C1210 H1224 0.960 . S
C1211 C1208 1.511 . S
C1211 H1225 0.961 . S
C1211 H1226 0.961 . S
C1211 H1227 0.961 . S
C1212 C1213 1.370 . S
C1212 C1214 1.363 . S
C1212 H1228 0.931 . S
C1213 C1212 1.370 . S
C1213 C1217 1.408 . S
C1214 C1212 1.363 . S
C1214 C1215 1.370 . S
C1214 C1218 1.524 1_554 S
C1215 C1207 1.503 1_554 S
C1215 C1214 1.370 . S
C1215 C1216 1.403 . S
C1216 C1215 1.403 . S
C1216 C1217 1.404 . S
C1216 C1219 1.539 . S
C1217 C1213 1.408 . S
C1217 C1216 1.404 . S
C1217 H1229 0.930 . S
C1218 C1214 1.524 1_556 S
C1218 H1230 0.956 . S
C1218 H1231 0.961 . S
C1218 H1232 0.961 . S
C1219 C1216 1.539 . S
C1219 H1233 0.958 . S
C1219 H1234 0.961 . S
C1219 H1235 0.960 . S
H1220 C1204 0.931 . S
H1221 C1209 0.929 . S
H1222 C1210 0.960 . S
H1223 C1210 0.962 . S
H1224 C1210 0.960 . S
H1225 C1211 0.961 . S
H1226 C1211 0.961 . S
H1227 C1211 0.961 . S
H1228 C1212 0.931 . S
H1229 C1217 0.930 . S
H1230 C1218 0.956 . S
H1231 C1218 0.961 . S
H1232 C1218 0.961 . S
H1233 C1219 0.958 . S
H1234 C1219 0.961 . S
H1235 C1219 0.960 . S
C1236 C1237 1.391 . S
C1236 C1238 1.394 . S
C1236 H1252 0.931 . S
C1237 C1236 1.391 . S
C1237 C1241 1.376 . S
C1238 C1236 1.394 . S
C1238 C1239 1.369 . S
C1238 C1242 1.531 . S
C1239 C1238 1.369 . S
C1239 C1240 1.410 . S
C1239 C1247 1.503 . S
C1240 C1239 1.410 . S
C1240 C1241 1.392 . S
C1240 C1243 1.511 1_556 S
C1241 C1237 1.376 . S
C1241 C1240 1.392 . S
C1241 H1253 0.929 . S
C1242 C1238 1.531 . S
C1242 H1254 0.960 . S
C1242 H1255 0.962 . S
C1242 H1256 0.960 . S
C1243 C1240 1.511 1_554 S
C1243 H1257 0.961 . S
C1243 H1258 0.961 . S
C1243 H1259 0.961 . S
C1244 C1245 1.370 . S
C1244 C1246 1.363 . S
C1244 H1260 0.931 . S
C1245 C1244 1.370 . S
C1245 C1249 1.408 . S
C1246 C1244 1.363 . S
C1246 C1247 1.370 1_554 S
C1246 C1250 1.524 1_554 S
C1247 C1239 1.503 . S
C1247 C1246 1.370 1_556 S
C1247 C1248 1.403 1_556 S
C1248 C1247 1.403 1_554 S
C1248 C1249 1.404 . S
C1248 C1251 1.539 1_554 S
C1249 C1245 1.408 . S
C1249 C1248 1.404 . S
C1249 H1261 0.930 . S
C1250 C1246 1.524 1_556 S
C1250 H1262 0.956 . S
C1250 H1263 0.961 1_556 S
C1250 H1264 0.961 1_556 S
C1251 C1248 1.539 1_556 S
C1251 H1265 0.958 . S
C1251 H1266 0.961 1_556 S
C1251 H1267 0.960 . S
H1252 C1236 0.931 . S
H1253 C1241 0.929 . S
H1254 C1242 0.960 . S
H1255 C1242 0.962 . S
H1256 C1242 0.960 . S
H1257 C1243 0.961 . S
H1258 C1243 0.961 . S
H1259 C1243 0.961 . S
H1260 C1244 0.931 . S
H1261 C1249 0.930 . S
H1262 C1250 0.956 . S
H1263 C1250 0.961 1_554 S
H1264 C1250 0.961 1_554 S
H1265 C1251 0.958 . S
H1266 C1251 0.961 1_554 S
H1267 C1251 0.960 . S
C1268 C1269 1.391 . S
C1268 C1270 1.394 . S
C1268 H1284 0.931 . S
C1269 C1268 1.391 . S
C1269 C1273 1.376 . S
C1270 C1268 1.394 . S
C1270 C1271 1.369 . S
C1270 C1274 1.531 . S
C1271 C1270 1.369 . S
C1271 C1272 1.410 . S
C1271 C1279 1.503 . S
C1272 C1271 1.410 . S
C1272 C1273 1.392 . S
C1272 C1275 1.511 . S
C1273 C1269 1.376 . S
C1273 C1272 1.392 . S
C1273 H1285 0.929 . S
C1274 C1270 1.531 . S
C1274 H1286 0.960 . S
C1274 H1287 0.962 . S
C1274 H1288 0.960 . S
C1275 C1272 1.511 . S
C1275 H1289 0.961 . S
C1275 H1290 0.961 . S
C1275 H1291 0.961 . S
C1276 C1277 1.370 . S
C1276 C1278 1.363 . S
C1276 H1292 0.931 . S
C1277 C1276 1.370 . S
C1277 C1281 1.408 . S
C1278 C1276 1.363 . S
C1278 C1279 1.370 . S
C1278 C1282 1.524 . S
C1279 C1271 1.503 . S
C1279 C1278 1.370 . S
C1279 C1280 1.403 . S
C1280 C1279 1.403 . S
C1280 C1281 1.404 . S
C1280 C1283 1.539 . S
C1281 C1277 1.408 . S
C1281 C1280 1.404 . S
C1281 H1293 0.930 . S
C1282 C1278 1.524 . S
C1282 H1294 0.956 . S
C1282 H1295 0.961 . S
C1282 H1296 0.961 . S
C1283 C1280 1.539 . S
C1283 H1297 0.958 . S
C1283 H1298 0.961 . S
C1283 H1299 0.960 . S
H1284 C1268 0.931 . S
H1285 C1273 0.929 . S
H1286 C1274 0.960 . S
H1287 C1274 0.962 . S
H1288 C1274 0.960 . S
H1289 C1275 0.961 . S
H1290 C1275 0.961 . S
H1291 C1275 0.961 . S
H1292 C1276 0.931 . S
H1293 C1281 0.930 . S
H1294 C1282 0.956 . S
H1295 C1282 0.961 . S
H1296 C1282 0.961 . S
H1297 C1283 0.958 . S
H1298 C1283 0.961 . S
H1299 C1283 0.960 . S
C1300 C1301 1.391 . S
C1300 C1302 1.394 . S
C1300 H1316 0.931 . S
C1301 C1300 1.391 . S
C1301 C1305 1.376 . S
C1302 C1300 1.394 . S
C1302 C1303 1.369 . S
C1302 C1306 1.531 . S
C1303 C1302 1.369 . S
C1303 C1304 1.410 . S
C1303 C1311 1.503 . S
C1304 C1303 1.410 . S
C1304 C1305 1.392 . S
C1304 C1307 1.511 . S
C1305 C1301 1.376 . S
C1305 C1304 1.392 . S
C1305 H1317 0.929 . S
C1306 C1302 1.531 . S
C1306 H1318 0.960 . S
C1306 H1319 0.962 . S
C1306 H1320 0.960 . S
C1307 C1304 1.511 . S
C1307 H1321 0.961 . S
C1307 H1322 0.961 . S
C1307 H1323 0.961 . S
C1308 C1309 1.370 . S
C1308 C1310 1.363 . S
C1308 H1324 0.931 . S
C1309 C1308 1.370 . S
C1309 C1313 1.408 . S
C1310 C1308 1.363 . S
C1310 C1311 1.370 . S
C1310 C1314 1.524 . S
C1311 C1303 1.503 . S
C1311 C1310 1.370 . S
C1311 C1312 1.403 . S
C1312 C1311 1.403 . S
C1312 C1313 1.404 . S
C1312 C1315 1.539 . S
C1313 C1309 1.408 . S
C1313 C1312 1.404 . S
C1313 H1325 0.930 . S
C1314 C1310 1.524 . S
C1314 H1326 0.956 . S
C1314 H1327 0.961 . S
C1314 H1328 0.961 . S
C1315 C1312 1.539 . S
C1315 H1329 0.958 . S
C1315 H1330 0.961 . S
C1315 H1331 0.960 . S
H1316 C1300 0.931 . S
H1317 C1305 0.929 . S
H1318 C1306 0.960 . S
H1319 C1306 0.962 . S
H1320 C1306 0.960 . S
H1321 C1307 0.961 . S
H1322 C1307 0.961 . S
H1323 C1307 0.961 . S
H1324 C1308 0.931 . S
H1325 C1313 0.930 . S
H1326 C1314 0.956 . S
H1327 C1314 0.961 . S
H1328 C1314 0.961 . S
H1329 C1315 0.958 . S
H1330 C1315 0.961 . S
H1331 C1315 0.960 . S
C1332 C1333 1.391 . S
C1332 C1334 1.394 . S
C1332 H1348 0.931 . S
C1333 C1332 1.391 . S
C1333 C1337 1.376 . S
C1334 C1332 1.394 . S
C1334 C1335 1.369 . S
C1334 C1338 1.531 1_545 S
C1335 C1334 1.369 . S
C1335 C1336 1.410 . S
C1335 C1343 1.503 . S
C1336 C1335 1.410 . S
C1336 C1337 1.392 . S
C1336 C1339 1.511 . S
C1337 C1333 1.376 . S
C1337 C1336 1.392 . S
C1337 H1349 0.929 . S
C1338 C1334 1.531 1_565 S
C1338 H1350 0.960 1_554 S
C1338 H1351 0.962 . S
C1338 H1352 0.960 1_554 S
C1339 C1336 1.511 . S
C1339 H1353 0.961 . S
C1339 H1354 0.961 . S
C1339 H1355 0.961 . S
C1340 C1341 1.370 . S
C1340 C1342 1.363 . S
C1340 H1356 0.931 . S
C1341 C1340 1.370 . S
C1341 C1345 1.408 . S
C1342 C1340 1.363 . S
C1342 C1343 1.370 . S
C1342 C1346 1.524 . S
C1343 C1335 1.503 . S
C1343 C1342 1.370 . S
C1343 C1344 1.403 . S
C1344 C1343 1.403 . S
C1344 C1345 1.404 . S
C1344 C1347 1.539 1_554 S
C1345 C1341 1.408 . S
C1345 C1344 1.404 . S
C1345 H1357 0.930 1_554 S
C1346 C1342 1.524 . S
C1346 H1358 0.956 . S
C1346 H1359 0.961 . S
C1346 H1360 0.961 . S
C1347 C1344 1.539 1_556 S
C1347 H1361 0.958 . S
C1347 H1362 0.961 . S
C1347 H1363 0.960 . S
H1348 C1332 0.931 . S
H1349 C1337 0.929 . S
H1350 C1338 0.960 1_556 S
H1351 C1338 0.962 . S
H1352 C1338 0.960 1_556 S
H1353 C1339 0.961 . S
H1354 C1339 0.961 . S
H1355 C1339 0.961 . S
H1356 C1340 0.931 . S
H1357 C1345 0.930 1_556 S
H1358 C1346 0.956 . S
H1359 C1346 0.961 . S
H1360 C1346 0.961 . S
H1361 C1347 0.958 . S
H1362 C1347 0.961 . S
H1363 C1347 0.960 . S
C1364 C1365 1.391 . S
C1364 C1366 1.394 . S
C1364 H1380 0.931 . S
C1365 C1364 1.391 . S
C1365 C1369 1.376 . S
C1366 C1364 1.394 . S
C1366 C1367 1.369 . S
C1366 C1370 1.531 . S
C1367 C1366 1.369 . S
C1367 C1368 1.410 . S
C1367 C1375 1.503 . S
C1368 C1367 1.410 . S
C1368 C1369 1.392 . S
C1368 C1371 1.511 . S
C1369 C1365 1.376 . S
C1369 C1368 1.392 . S
C1369 H1381 0.929 . S
C1370 C1366 1.531 . S
C1370 H1382 0.960 . S
C1370 H1383 0.962 . S
C1370 H1384 0.960 . S
C1371 C1368 1.511 . S
C1371 H1385 0.961 . S
C1371 H1386 0.961 . S
C1371 H1387 0.961 . S
C1372 C1373 1.370 . S
C1372 C1374 1.363 . S
C1372 H1388 0.931 . S
C1373 C1372 1.370 . S
C1373 C1377 1.408 . S
C1374 C1372 1.363 . S
C1374 C1375 1.370 . S
C1374 C1378 1.524 . S
C1375 C1367 1.503 . S
C1375 C1374 1.370 . S
C1375 C1376 1.403 . S
C1376 C1375 1.403 . S
C1376 C1377 1.404 . S
C1376 C1379 1.539 . S
C1377 C1373 1.408 . S
C1377 C1376 1.404 . S
C1377 H1389 0.930 . S
C1378 C1374 1.524 . S
C1378 H1390 0.956 . S
C1378 H1391 0.961 . S
C1378 H1392 0.961 . S
C1379 C1376 1.539 . S
C1379 H1393 0.958 . S
C1379 H1394 0.961 . S
C1379 H1395 0.960 . S
H1380 C1364 0.931 . S
H1381 C1369 0.929 . S
H1382 C1370 0.960 . S
H1383 C1370 0.962 . S
H1384 C1370 0.960 . S
H1385 C1371 0.961 . S
H1386 C1371 0.961 . S
H1387 C1371 0.961 . S
H1388 C1372 0.931 . S
H1389 C1377 0.930 . S
H1390 C1378 0.956 . S
H1391 C1378 0.961 . S
H1392 C1378 0.961 . S
H1393 C1379 0.958 . S
H1394 C1379 0.961 . S
H1395 C1379 0.960 . S
C1396 C1397 1.391 . S
C1396 C1398 1.394 . S
C1396 H1412 0.931 . S
C1397 C1396 1.391 . S
C1397 C1401 1.376 . S
C1398 C1396 1.394 . S
C1398 C1399 1.369 . S
C1398 C1402 1.531 . S
C1399 C1398 1.369 . S
C1399 C1400 1.410 . S
C1399 C1407 1.503 . S
C1400 C1399 1.410 . S
C1400 C1401 1.392 . S
C1400 C1403 1.511 . S
C1401 C1397 1.376 . S
C1401 C1400 1.392 . S
C1401 H1413 0.929 . S
C1402 C1398 1.531 . S
C1402 H1414 0.960 . S
C1402 H1415 0.962 . S
C1402 H1416 0.960 . S
C1403 C1400 1.511 . S
C1403 H1417 0.961 . S
C1403 H1418 0.961 . S
C1403 H1419 0.961 . S
C1404 C1405 1.370 . S
C1404 C1406 1.363 . S
C1404 H1420 0.931 . S
C1405 C1404 1.370 . S
C1405 C1409 1.408 . S
C1406 C1404 1.363 . S
C1406 C1407 1.370 . S
C1406 C1410 1.524 . S
C1407 C1399 1.503 . S
C1407 C1406 1.370 . S
C1407 C1408 1.403 . S
C1408 C1407 1.403 . S
C1408 C1409 1.404 . S
C1408 C1411 1.539 . S
C1409 C1405 1.408 . S
C1409 C1408 1.404 . S
C1409 H1421 0.930 . S
C1410 C1406 1.524 . S
C1410 H1422 0.956 . S
C1410 H1423 0.961 1_554 S
C1410 H1424 0.961 1_554 S
C1411 C1408 1.539 . S
C1411 H1425 0.958 . S
C1411 H1426 0.961 . S
C1411 H1427 0.960 . S
H1412 C1396 0.931 . S
H1413 C1401 0.929 . S
H1414 C1402 0.960 . S
H1415 C1402 0.962 . S
H1416 C1402 0.960 . S
H1417 C1403 0.961 . S
H1418 C1403 0.961 . S
H1419 C1403 0.961 . S
H1420 C1404 0.931 . S
H1421 C1409 0.930 . S
H1422 C1410 0.956 . S
H1423 C1410 0.961 1_556 S
H1424 C1410 0.961 1_556 S
H1425 C1411 0.958 . S
H1426 C1411 0.961 . S
H1427 C1411 0.960 . S
C1428 C1429 1.391 . S
C1428 C1430 1.394 . S
C1428 H1444 0.931 . S
C1429 C1428 1.391 . S
C1429 C1433 1.376 . S
C1430 C1428 1.394 . S
C1430 C1431 1.369 . S
C1430 C1434 1.531 . S
C1431 C1430 1.369 . S
C1431 C1432 1.410 . S
C1431 C1439 1.503 . S
C1432 C1431 1.410 . S
C1432 C1433 1.392 . S
C1432 C1435 1.511 . S
C1433 C1429 1.376 . S
C1433 C1432 1.392 . S
C1433 H1445 0.929 . S
C1434 C1430 1.531 . S
C1434 H1446 0.960 . S
C1434 H1447 0.962 . S
C1434 H1448 0.960 . S
C1435 C1432 1.511 . S
C1435 H1449 0.961 . S
C1435 H1450 0.961 . S
C1435 H1451 0.961 . S
C1436 C1437 1.370 . S
C1436 C1438 1.363 . S
C1436 H1452 0.931 . S
C1437 C1436 1.370 . S
C1437 C1441 1.408 . S
C1438 C1436 1.363 . S
C1438 C1439 1.370 . S
C1438 C1442 1.524 . S
C1439 C1431 1.503 . S
C1439 C1438 1.370 . S
C1439 C1440 1.403 . S
C1440 C1439 1.403 . S
C1440 C1441 1.404 . S
C1440 C1443 1.539 . S
C1441 C1437 1.408 . S
C1441 C1440 1.404 . S
C1441 H1453 0.930 . S
C1442 C1438 1.524 . S
C1442 H1454 0.956 . S
C1442 H1455 0.961 . S
C1442 H1456 0.961 . S
C1443 C1440 1.539 . S
C1443 H1457 0.958 . S
C1443 H1458 0.961 . S
C1443 H1459 0.960 . S
H1444 C1428 0.931 . S
H1445 C1433 0.929 . S
H1446 C1434 0.960 . S
H1447 C1434 0.962 . S
H1448 C1434 0.960 . S
H1449 C1435 0.961 . S
H1450 C1435 0.961 . S
H1451 C1435 0.961 . S
H1452 C1436 0.931 . S
H1453 C1441 0.930 . S
H1454 C1442 0.956 . S
H1455 C1442 0.961 . S
H1456 C1442 0.961 . S
H1457 C1443 0.958 . S
H1458 C1443 0.961 . S
H1459 C1443 0.960 . S
C1460 C1461 1.391 . S
C1460 C1462 1.394 1_545 S
C1460 H1476 0.931 . S
C1461 C1460 1.391 . S
C1461 C1465 1.376 . S
C1462 C1460 1.394 1_565 S
C1462 C1463 1.369 . S
C1462 C1466 1.531 . S
C1463 C1462 1.369 . S
C1463 C1464 1.410 1_565 S
C1463 C1471 1.503 . S
C1464 C1463 1.410 1_545 S
C1464 C1465 1.392 . S
C1464 C1467 1.511 . S
C1465 C1461 1.376 . S
C1465 C1464 1.392 . S
C1465 H1477 0.929 . S
C1466 C1462 1.531 . S
C1466 H1478 0.960 . S
C1466 H1479 0.962 . S
C1466 H1480 0.960 . S
C1467 C1464 1.511 . S
C1467 H1481 0.961 . S
C1467 H1482 0.961 1_545 S
C1467 H1483 0.961 . S
C1468 C1469 1.370 . S
C1468 C1470 1.363 . S
C1468 H1484 0.931 . S
C1469 C1468 1.370 . S
C1469 C1473 1.408 . S
C1470 C1468 1.363 . S
C1470 C1471 1.370 . S
C1470 C1474 1.524 . S
C1471 C1463 1.503 . S
C1471 C1470 1.370 . S
C1471 C1472 1.403 . S
C1472 C1471 1.403 . S
C1472 C1473 1.404 . S
C1472 C1475 1.539 . S
C1473 C1469 1.408 . S
C1473 C1472 1.404 . S
C1473 H1485 0.930 . S
C1474 C1470 1.524 . S
C1474 H1486 0.956 . S
C1474 H1487 0.961 . S
C1474 H1488 0.961 . S
C1475 C1472 1.539 . S
C1475 H1489 0.958 . S
C1475 H1490 0.961 . S
C1475 H1491 0.960 . S
H1476 C1460 0.931 . S
H1477 C1465 0.929 . S
H1478 C1466 0.960 . S
H1479 C1466 0.962 . S
H1480 C1466 0.960 . S
H1481 C1467 0.961 . S
H1482 C1467 0.961 1_565 S
H1483 C1467 0.961 . S
H1484 C1468 0.931 . S
H1485 C1473 0.930 . S
H1486 C1474 0.956 . S
H1487 C1474 0.961 . S
H1488 C1474 0.961 . S
H1489 C1475 0.958 . S
H1490 C1475 0.961 . S
H1491 C1475 0.960 . S
C1492 C1493 1.393 1_455 S
C1492 C1494 1.394 . S
C1492 H1508 0.931 1_455 S
C1493 C1492 1.393 1_655 S
C1493 C1497 1.376 1_655 S
C1494 C1492 1.394 . S
C1494 C1495 1.369 . S
C1494 C1498 1.531 . S
C1495 C1494 1.369 . S
C1495 C1496 1.410 . S
C1495 C1503 1.503 . S
C1496 C1495 1.410 . S
C1496 C1497 1.392 . S
C1496 C1499 1.511 . S
C1497 C1493 1.376 1_455 S
C1497 C1496 1.392 . S
C1497 H1509 0.929 . S
C1498 C1494 1.531 . S
C1498 H1510 0.960 . S
C1498 H1511 0.962 . S
C1498 H1512 0.960 . S
C1499 C1496 1.511 . S
C1499 H1513 0.961 . S
C1499 H1514 0.961 . S
C1499 H1515 0.961 . S
C1500 C1501 1.370 . S
C1500 C1502 1.363 . S
C1500 H1516 0.931 . S
C1501 C1500 1.370 . S
C1501 C1505 1.408 . S
C1502 C1500 1.363 . S
C1502 C1503 1.370 . S
C1502 C1506 1.524 . S
C1503 C1495 1.503 . S
C1503 C1502 1.370 . S
C1503 C1504 1.403 . S
C1504 C1503 1.403 . S
C1504 C1505 1.404 . S
C1504 C1507 1.539 . S
C1505 C1501 1.408 . S
C1505 C1504 1.404 . S
C1505 H1517 0.930 . S
C1506 C1502 1.524 . S
C1506 H1518 0.956 . S
C1506 H1519 0.961 . S
C1506 H1520 0.961 . S
C1507 C1504 1.539 . S
C1507 H1521 0.958 1_455 S
C1507 H1522 0.961 . S
C1507 H1523 0.964 1_455 S
H1508 C1492 0.931 1_655 S
H1509 C1497 0.929 . S
H1510 C1498 0.960 . S
H1511 C1498 0.962 . S
H1512 C1498 0.960 . S
H1513 C1499 0.961 . S
H1514 C1499 0.961 . S
H1515 C1499 0.961 . S
H1516 C1500 0.931 . S
H1517 C1505 0.930 . S
H1518 C1506 0.956 . S
H1519 C1506 0.961 . S
H1520 C1506 0.961 . S
H1521 C1507 0.958 1_655 S
H1522 C1507 0.961 . S
H1523 C1507 0.964 1_655 S
C1524 C1525 1.391 . S
C1524 C1526 1.394 . S
C1524 H1540 0.931 . S
C1525 C1524 1.391 . S
C1525 C1529 1.376 . S
C1526 C1524 1.394 . S
C1526 C1527 1.369 . S
C1526 C1530 1.531 . S
C1527 C1526 1.369 . S
C1527 C1528 1.410 . S
C1527 C1535 1.503 . S
C1528 C1527 1.410 . S
C1528 C1529 1.392 . S
C1528 C1531 1.511 . S
C1529 C1525 1.376 . S
C1529 C1528 1.392 . S
C1529 H1541 0.929 . S
C1530 C1526 1.531 . S
C1530 H1542 0.960 . S
C1530 H1543 0.962 . S
C1530 H1544 0.960 . S
C1531 C1528 1.511 . S
C1531 H1545 0.961 . S
C1531 H1546 0.961 . S
C1531 H1547 0.961 . S
C1532 C1533 1.370 . S
C1532 C1534 1.363 . S
C1532 H1548 0.931 . S
C1533 C1532 1.370 . S
C1533 C1537 1.408 . S
C1534 C1532 1.363 . S
C1534 C1535 1.370 . S
C1534 C1538 1.524 . S
C1535 C1527 1.503 . S
C1535 C1534 1.370 . S
C1535 C1536 1.403 . S
C1536 C1535 1.403 . S
C1536 C1537 1.404 . S
C1536 C1539 1.539 . S
C1537 C1533 1.408 . S
C1537 C1536 1.404 . S
C1537 H1549 0.930 . S
C1538 C1534 1.524 . S
C1538 H1550 0.956 . S
C1538 H1551 0.961 . S
C1538 H1552 0.961 . S
C1539 C1536 1.539 . S
C1539 H1553 0.958 . S
C1539 H1554 0.961 . S
C1539 H1555 0.960 . S
H1540 C1524 0.931 . S
H1541 C1529 0.929 . S
H1542 C1530 0.960 . S
H1543 C1530 0.962 . S
H1544 C1530 0.960 . S
H1545 C1531 0.961 . S
H1546 C1531 0.961 . S
H1547 C1531 0.961 . S
H1548 C1532 0.931 . S
H1549 C1537 0.930 . S
H1550 C1538 0.956 . S
H1551 C1538 0.961 . S
H1552 C1538 0.961 . S
H1553 C1539 0.958 . S
H1554 C1539 0.961 . S
H1555 C1539 0.960 . S
C1556 C1557 1.391 1_545 S
C1556 C1558 1.394 . S
C1556 H1572 0.931 . S
C1557 C1556 1.391 1_565 S
C1557 C1561 1.376 . S
C1558 C1556 1.394 . S
C1558 C1559 1.369 . S
C1558 C1562 1.531 . S
C1559 C1558 1.369 . S
C1559 C1560 1.410 . S
C1559 C1567 1.503 . S
C1560 C1559 1.410 . S
C1560 C1561 1.392 1_545 S
C1560 C1563 1.511 . S
C1561 C1557 1.376 . S
C1561 C1560 1.392 1_565 S
C1561 H1573 0.929 . S
C1562 C1558 1.531 . S
C1562 H1574 0.960 . S
C1562 H1575 0.962 . S
C1562 H1576 0.960 . S
C1563 C1560 1.511 . S
C1563 H1577 0.961 . S
C1563 H1578 0.961 . S
C1563 H1579 0.961 . S
C1564 C1565 1.370 . S
C1564 C1566 1.363 . S
C1564 H1580 0.931 . S
C1565 C1564 1.370 . S
C1565 C1569 1.408 . S
C1566 C1564 1.363 . S
C1566 C1567 1.370 . S
C1566 C1570 1.524 . S
C1567 C1559 1.503 . S
C1567 C1566 1.370 . S
C1567 C1568 1.403 . S
C1568 C1567 1.403 . S
C1568 C1569 1.404 . S
C1568 C1571 1.539 . S
C1569 C1565 1.408 . S
C1569 C1568 1.404 . S
C1569 H1581 0.930 . S
C1570 C1566 1.524 . S
C1570 H1582 0.956 . S
C1570 H1583 0.961 . S
C1570 H1584 0.961 . S
C1571 C1568 1.539 . S
C1571 H1585 0.958 . S
C1571 H1586 0.961 . S
C1571 H1587 0.960 . S
H1572 C1556 0.931 . S
H1573 C1561 0.929 . S
H1574 C1562 0.960 . S
H1575 C1562 0.962 . S
H1576 C1562 0.960 . S
H1577 C1563 0.961 . S
H1578 C1563 0.961 . S
H1579 C1563 0.961 . S
H1580 C1564 0.931 . S
H1581 C1569 0.930 . S
H1582 C1570 0.956 . S
H1583 C1570 0.961 . S
H1584 C1570 0.961 . S
H1585 C1571 0.958 . S
H1586 C1571 0.961 . S
H1587 C1571 0.960 . S
C1588 C1589 1.391 . S
C1588 C1590 1.394 . S
C1588 H1604 0.931 . S
C1589 C1588 1.391 . S
C1589 C1593 1.376 . S
C1590 C1588 1.394 . S
C1590 C1591 1.369 . S
C1590 C1594 1.531 1_655 S
C1591 C1590 1.369 . S
C1591 C1592 1.410 . S
C1591 C1599 1.503 . S
C1592 C1591 1.410 . S
C1592 C1593 1.392 . S
C1592 C1595 1.511 . S
C1593 C1589 1.376 . S
C1593 C1592 1.392 . S
C1593 H1605 0.929 . S
C1594 C1590 1.531 1_455 S
C1594 H1606 0.960 . S
C1594 H1607 0.962 . S
C1594 H1608 0.960 . S
C1595 C1592 1.511 . S
C1595 H1609 0.961 . S
C1595 H1610 0.961 . S
C1595 H1611 0.961 . S
C1596 C1597 1.370 1_655 S
C1596 C1598 1.363 . S
C1596 H1612 0.931 . S
C1597 C1596 1.370 1_455 S
C1597 C1601 1.408 . S
C1598 C1596 1.363 . S
C1598 C1599 1.370 . S
C1598 C1602 1.524 . S
C1599 C1591 1.503 . S
C1599 C1598 1.370 . S
C1599 C1600 1.375 1_655 S
C1600 C1599 1.375 1_455 S
C1600 C1601 1.418 . S
C1600 C1603 1.553 . S
C1601 C1597 1.408 . S
C1601 C1600 1.418 . S
C1601 H1613 0.930 . S
C1602 C1598 1.524 . S
C1602 H1614 0.956 . S
C1602 H1615 0.961 . S
C1602 H1616 0.961 . S
C1603 C1600 1.553 . S
C1603 H1617 0.958 . S
C1603 H1618 0.961 . S
C1603 H1619 0.960 1_455 S
H1604 C1588 0.931 . S
H1605 C1593 0.929 . S
H1606 C1594 0.960 . S
H1607 C1594 0.962 . S
H1608 C1594 0.960 . S
H1609 C1595 0.961 . S
H1610 C1595 0.961 . S
H1611 C1595 0.961 . S
H1612 C1596 0.931 . S
H1613 C1601 0.930 . S
H1614 C1602 0.956 . S
H1615 C1602 0.961 . S
H1616 C1602 0.961 . S
H1617 C1603 0.958 . S
H1618 C1603 0.961 . S
H1619 C1603 0.960 1_655 S
C757 C75 3.297 1_556 S
C765 C66 3.281 . S
C789 C159 3.350 . S
C797 C150 3.342 . S
C821 C243 3.314 . S
C829 C234 3.334 . S
C853 C318 3.262 . S
C861 C327 3.245 1_556 S
C885 C403 3.378 . S
C893 C392 3.405 1_556 S
C917 C486 3.266 . S
C925 C495 3.248 1_556 S
C949 C576 2.589 . S
C957 C567 2.531 . S
C981 C651 2.024 . S
C989 C660 1.994 1_556 S
C1013 C744 1.576 . S
C1021 C735 1.527 . S
C1045 C487 1.943 . S
C1053 C72 1.648 . S
C1077 C156 1.427 . S
C1085 C319 1.827 . S
C1109 C240 1.115 . S
C1117 C399 1.261 . S
C1141 C235 1.975 . S
C1149 C560 2.273 . S
C1173 C654 1.805 . S
C1181 C67 1.571 . S
C1205 C728 1.791 . S
C1213 C151 1.664 . S
C1237 C747 0.917 . S
C1245 C63 0.967 . S
C1269 C147 1.394 . S
C1277 C579 1.422 . S
C1301 C655 1.583 . S
C1309 C231 1.564 . S
C1333 C224 1.832 . S
C1341 C315 1.597 1_545 S
C1365 C402 2.497 . S
C1373 C56 2.450 . S
C1397 C140 1.989 . S
C1405 C483 1.742 . S
C1429 C738 1.582 . S
C1437 C324 1.568 . S
C1461 C570 1.779 . S
C1469 C411 1.686 . S
C1493 C644 1.689 . S
C1501 C492 1.788 . S
C1525 C571 2.080 . S
C1533 C476 2.021 . S
C1557 C308 1.244 . S
C1565 C663 1.412 . S
C1589 C739 1.321 . S
C1597 C408 1.389 . S
