# Generated by pormake.
# Topology acs-i, (5)-cn, num edge types: 1
# Building blocks:
#     Node 0, Type 0, BuildingBlock: BEQFEK_clean_sbu_0, # of connection points: 5
#     Node 1, Type 0, BuildingBlock: BEQFEK_clean_sbu_0, # of connection points: 5
#     Node 2, Type 0, BuildingBlock: BEQFEK_clean_sbu_0, # of connection points: 5
#     Node 3, Type 0, BuildingBlock: BEQFEK_clean_sbu_0, # of connection points: 5
#     Node 4, Type 0, BuildingBlock: BEQFEK_clean_sbu_0, # of connection points: 5
#     Node 5, Type 0, BuildingBlock: BEQFEK_clean_sbu_0, # of connection points: 5
#     Node 6, Type 0, BuildingBlock: BEQFEK_clean_sbu_0, # of connection points: 5
#     Node 7, Type 0, BuildingBlock: BEQFEK_clean_sbu_0, # of connection points: 5
#     Node 8, Type 0, BuildingBlock: BEQFEK_clean_sbu_0, # of connection points: 5
#     Node 9, Type 0, BuildingBlock: BEQFEK_clean_sbu_0, # of connection points: 5
#     Node 10, Type 0, BuildingBlock: BEQFEK_clean_sbu_0, # of connection points: 5
#     Node 11, Type 0, BuildingBlock: BEQFEK_clean_sbu_0, # of connection points: 5
#     Edge 12, Type (0, 0), BuildingBlock: XUDNAN_clean_linker_2, # of connection points: 2
#     Edge 13, Type (0, 0), BuildingBlock: XUDNAN_clean_linker_2, # of connection points: 2
#     Edge 14, Type (0, 0), BuildingBlock: XUDNAN_clean_linker_2, # of connection points: 2
#     Edge 15, Type (0, 0), BuildingBlock: XUDNAN_clean_linker_2, # of connection points: 2
#     Edge 16, Type (0, 0), BuildingBlock: XUDNAN_clean_linker_2, # of connection points: 2
#     Edge 17, Type (0, 0), BuildingBlock: XUDNAN_clean_linker_2, # of connection points: 2
#     Edge 18, Type (0, 0), BuildingBlock: XUDNAN_clean_linker_2, # of connection points: 2
#     Edge 19, Type (0, 0), BuildingBlock: XUDNAN_clean_linker_2, # of connection points: 2
#     Edge 20, Type (0, 0), BuildingBlock: XUDNAN_clean_linker_2, # of connection points: 2
#     Edge 21, Type (0, 0), BuildingBlock: XUDNAN_clean_linker_2, # of connection points: 2
#     Edge 22, Type (0, 0), BuildingBlock: XUDNAN_clean_linker_2, # of connection points: 2
#     Edge 23, Type (0, 0), BuildingBlock: XUDNAN_clean_linker_2, # of connection points: 2
#     Edge 24, Type (0, 0), BuildingBlock: XUDNAN_clean_linker_2, # of connection points: 2
#     Edge 25, Type (0, 0), BuildingBlock: XUDNAN_clean_linker_2, # of connection points: 2
#     Edge 26, Type (0, 0), BuildingBlock: XUDNAN_clean_linker_2, # of connection points: 2
#     Edge 27, Type (0, 0), BuildingBlock: XUDNAN_clean_linker_2, # of connection points: 2
#     Edge 28, Type (0, 0), BuildingBlock: XUDNAN_clean_linker_2, # of connection points: 2
#     Edge 29, Type (0, 0), BuildingBlock: XUDNAN_clean_linker_2, # of connection points: 2
#     Edge 30, Type (0, 0), BuildingBlock: XUDNAN_clean_linker_2, # of connection points: 2
#     Edge 31, Type (0, 0), BuildingBlock: XUDNAN_clean_linker_2, # of connection points: 2
#     Edge 32, Type (0, 0), BuildingBlock: XUDNAN_clean_linker_2, # of connection points: 2
#     Edge 33, Type (0, 0), BuildingBlock: XUDNAN_clean_linker_2, # of connection points: 2
#     Edge 34, Type (0, 0), BuildingBlock: XUDNAN_clean_linker_2, # of connection points: 2
#     Edge 35, Type (0, 0), BuildingBlock: XUDNAN_clean_linker_2, # of connection points: 2
#     Edge 36, Type (0, 0), BuildingBlock: XUDNAN_clean_linker_2, # of connection points: 2
#     Edge 37, Type (0, 0), BuildingBlock: XUDNAN_clean_linker_2, # of connection points: 2
#     Edge 38, Type (0, 0), BuildingBlock: XUDNAN_clean_linker_2, # of connection points: 2
#     Edge 39, Type (0, 0), BuildingBlock: XUDNAN_clean_linker_2, # of connection points: 2
#     Edge 40, Type (0, 0), BuildingBlock: XUDNAN_clean_linker_2, # of connection points: 2
#     Edge 41, Type (0, 0), BuildingBlock: XUDNAN_clean_linker_2, # of connection points: 2
# Relax obj value: 1.292
# Max RMSD: 0.216
# Mean RMSD: 0.205
data_MOF--net-acs-i--node1-BEQFEK_clean_sbu_0--edge1-XUDNAN_clean_linker_2
_symmetry_space_group_name_H-M    P1
_symmetry_Int_Tables_number       1
_symmetry_cell_setting            triclinic
loop_
_symmetry_equiv_pos_as_xyz
'x, y, z'
_cell_length_a     38.393108
_cell_length_b     45.20681
_cell_length_c     31.434109
_cell_angle_alpha  90.103239
_cell_angle_beta   89.916217
_cell_angle_gamma 115.10259
loop_
_atom_site_label
_atom_site_type_symbol
_atom_site_fract_x
_atom_site_fract_y
_atom_site_fract_z
_atom_type_partial_charge
Co0 Co 0.26932 0.49053 0.98559 0.0
Co1 Co 0.19082 0.49717 0.98551 0.0
C2 C 0.26446 0.54972 0.95073 0.0
O3 O 0.28405 0.53391 0.96004 0.0
O4 O 0.22876 0.53862 0.95976 0.0
C5 C 0.34757 0.49812 0.9756 0.0
O6 O 0.35031 0.52035 0.9473 0.0
C7 C 0.14185 0.52429 0.02302 0.0
C8 C 0.08353 0.48692 0.00818 0.0
C9 C 0.10317 0.5152 0.03163 0.0
N10 N 0.1448 0.50208 0.99663 0.0
N11 N 0.10983 0.48032 0.98679 0.0
C12 C 0.17579 0.55082 0.04402 0.0
H13 H 0.2022 0.54701 0.03899 0.0
H14 H 0.17062 0.55189 0.07861 0.0
H15 H 0.18031 0.57466 0.02992 0.0
C16 C 0.25161 0.47901 0.07621 0.0
N17 N 0.24322 0.48618 0.03717 0.0
N18 N 0.20916 0.48663 0.03763 0.0
C19 C 0.19448 0.47898 0.07738 0.0
C20 C 0.2211 0.47427 0.10292 0.0
C21 C 0.28817 0.47655 0.08745 0.0
H22 H 0.28811 0.45423 0.07263 0.0
H23 H 0.31305 0.49798 0.07453 0.0
H24 H 0.29152 0.4754 0.12238 0.0
O25 O 0.23599 0.45811 0.94506 0.0
O26 O 0.18066 0.46293 0.94165 0.0
H27 H 0.13447 0.46294 0.06297 0.0
H28 H 0.14434 0.45509 0.11689 0.0
C29 C 0.1544 0.47275 0.09016 0.0
H30 H 0.15393 0.49585 0.10122 0.0
H31 H 0.104 0.45968 0.96804 0.0
O32 O 0.31578 0.48253 0.99467 0.0
C33 C 0.20245 0.44969 0.92977 0.0
Co34 Co 0.00109 0.35838 0.77813 0.0
Co35 Co 0.94266 0.30314 0.71835 0.0
C36 C 0.97313 0.37336 0.69442 0.0
O37 O 0.99309 0.38229 0.72829 0.0
O38 O 0.95194 0.34338 0.68694 0.0
C39 C 0.02986 0.42074 0.82009 0.0
O40 O 0.0296 0.43181 0.78157 0.0
C41 C 0.8794 0.26692 0.66015 0.0
C42 C 0.86846 0.21558 0.67194 0.0
C43 C 0.85686 0.23524 0.6476 0.0
N44 N 0.90398 0.26644 0.69015 0.0
N45 N 0.8973 0.23563 0.69711 0.0
C46 C 0.87564 0.29692 0.64569 0.0
H47 H 0.88209 0.31468 0.67216 0.0
H48 H 0.84619 0.29093 0.63384 0.0
H49 H 0.89619 0.30802 0.61927 0.0
C50 C 0.93565 0.32738 0.83775 0.0
N51 N 0.95282 0.32804 0.80009 0.0
N52 N 0.92777 0.30634 0.7746 0.0
C53 C 0.89357 0.292 0.79461 0.0
C54 C 0.89745 0.30486 0.83545 0.0
C55 C 0.95521 0.34826 0.87519 0.0
H56 H 0.98482 0.35011 0.8783 0.0
H57 H 0.95664 0.37303 0.87034 0.0
H58 H 0.93928 0.33804 0.9051 0.0
O59 O 0.03316 0.33623 0.75726 0.0
O60 O 0.99104 0.29812 0.71535 0.0
H61 H 0.8564 0.24543 0.76895 0.0
H62 H 0.83116 0.26779 0.79089 0.0
C63 C 0.85698 0.27002 0.77285 0.0
H64 H 0.8558 0.27979 0.74088 0.0
H65 H 0.91235 0.22828 0.71916 0.0
O66 O 0.02525 0.39131 0.82453 0.0
C67 C 0.02474 0.31266 0.73078 0.0
Co68 Co 0.36671 0.83654 0.04852 0.0
Co69 Co 0.36657 0.82622 0.95138 0.0
C70 C 0.29454 0.8139 0.00359 0.0
O71 O 0.3124 0.81853 0.03851 0.0
O72 O 0.31177 0.81781 0.96792 0.0
C73 C 0.35919 0.86164 0.12692 0.0
O74 O 0.33302 0.8675 0.10638 0.0
C75 C 0.33984 0.77536 0.89038 0.0
C76 C 0.37821 0.79417 0.83496 0.0
C77 C 0.34909 0.76605 0.85149 0.0
N78 N 0.36218 0.80716 0.89655 0.0
N79 N 0.38441 0.81868 0.86282 0.0
C80 C 0.31624 0.75305 0.92511 0.0
H81 H 0.28533 0.74314 0.91656 0.0
H82 H 0.32057 0.76604 0.95587 0.0
H83 H 0.32403 0.73221 0.92901 0.0
C84 C 0.40833 0.79536 0.04965 0.0
N85 N 0.38775 0.80876 0.02941 0.0
N86 N 0.38971 0.8053 0.9881 0.0
C87 C 0.41274 0.79004 0.98067 0.0
C88 C 0.42498 0.78301 0.01944 0.0
C89 C 0.41645 0.799 0.09641 0.0
H90 H 0.43503 0.82502 0.10363 0.0
H91 H 0.38909 0.79202 0.11415 0.0
H92 H 0.4311 0.78388 0.10736 0.0
O93 O 0.39269 0.87889 0.02134 0.0
O94 O 0.40019 0.87419 0.95192 0.0
H95 H 0.45005 0.77813 0.93891 0.0
H96 H 0.40113 0.76395 0.92193 0.0
C97 C 0.42522 0.78452 0.93739 0.0
H98 H 0.43282 0.80669 0.91764 0.0
H99 H 0.40597 0.84246 0.8604 0.0
O100 O 0.37629 0.84651 0.10855 0.0
C101 C 0.40561 0.89155 0.98542 0.0
Co102 Co 0.72038 0.50189 0.4447 0.0
Co103 Co 0.80309 0.50382 0.45093 0.0
C104 C 0.73518 0.44546 0.41499 0.0
O105 O 0.7116 0.45784 0.42346 0.0
O106 O 0.77098 0.46054 0.42377 0.0
C107 C 0.63779 0.48523 0.44222 0.0
O108 O 0.633 0.45673 0.42679 0.0
C109 C 0.86837 0.48744 0.47135 0.0
C110 C 0.90905 0.53478 0.49776 0.0
C111 C 0.90325 0.50244 0.49345 0.0
N112 N 0.85392 0.50955 0.46564 0.0
N113 N 0.87905 0.53801 0.48015 0.0
C114 C 0.84892 0.45325 0.45478 0.0
H115 H 0.83008 0.45209 0.42766 0.0
H116 H 0.83102 0.43683 0.48024 0.0
H117 H 0.87047 0.44476 0.44326 0.0
C118 C 0.73232 0.51326 0.53741 0.0
N119 N 0.7453 0.51045 0.49839 0.0
N120 N 0.77863 0.50901 0.50202 0.0
C121 C 0.78716 0.50952 0.54391 0.0
C122 C 0.75823 0.51251 0.5679 0.0
C123 C 0.69567 0.51665 0.54501 0.0
H124 H 0.6935 0.53447 0.52219 0.0
H125 H 0.67087 0.49272 0.5396 0.0
H126 H 0.69425 0.52523 0.57777 0.0
O127 O 0.75041 0.53259 0.40045 0.0
O128 O 0.81025 0.53757 0.40679 0.0
H129 H 0.84625 0.5252 0.56064 0.0
H130 H 0.81349 0.49307 0.59396 0.0
C131 C 0.81924 0.50244 0.56091 0.0
H132 H 0.82299 0.48389 0.54077 0.0
H133 H 0.87448 0.55918 0.48058 0.0
O134 O 0.67151 0.5065 0.45049 0.0
C135 C 0.78534 0.54478 0.38857 0.0
Co136 Co 0.01443 0.63194 0.35814 0.0
Co137 Co 0.04669 0.68934 0.29122 0.0
C138 C 0.05025 0.62552 0.27535 0.0
O139 O 0.03418 0.61413 0.31084 0.0
O140 O 0.0578 0.65466 0.26425 0.0
C141 C 0.00382 0.57319 0.40396 0.0
O142 O 0.00015 0.5601 0.36595 0.0
C143 C 0.09417 0.73294 0.2255 0.0
C144 C 0.06209 0.76211 0.20999 0.0
C145 C 0.09222 0.75525 0.19628 0.0
N146 N 0.06584 0.72619 0.25411 0.0
N147 N 0.04707 0.74404 0.24506 0.0
C148 C 0.12259 0.71836 0.22694 0.0
H149 H 0.12476 0.71013 0.25965 0.0
H150 H 0.15128 0.7363 0.21594 0.0
H151 H 0.11275 0.69682 0.20574 0.0
C152 C 0.07143 0.68332 0.41148 0.0
N153 N 0.05147 0.67422 0.37493 0.0
N154 N 0.06641 0.69809 0.34714 0.0
C155 C 0.09669 0.72291 0.36513 0.0
C156 C 0.10102 0.71418 0.40649 0.0
C157 C 0.0646 0.66172 0.44947 0.0
H158 H 0.03357 0.65084 0.45759 0.0
H159 H 0.07325 0.6418 0.44181 0.0
H160 H 0.08128 0.67548 0.47745 0.0
O161 O 0.96603 0.63195 0.33649 0.0
O162 O 0.9904 0.6732 0.29071 0.0
H163 H 0.10831 0.76086 0.31897 0.0
H164 H 0.14137 0.77216 0.36348 0.0
C165 C 0.12419 0.75214 0.34135 0.0
H166 H 0.14416 0.74522 0.32274 0.0
H167 H 0.02264 0.74251 0.26132 0.0
O168 O 0.006 0.60197 0.4074 0.0
C169 C 0.96174 0.65041 0.30832 0.0
Co170 Co 0.53404 0.13307 0.50433 0.0
Co171 Co 0.56603 0.16131 0.41371 0.0
C172 C 0.6182 0.17441 0.48811 0.0
O173 O 0.5901 0.15785 0.51219 0.0
O174 O 0.61304 0.17832 0.44899 0.0
C175 C 0.52448 0.14588 0.58773 0.0
O176 O 0.54522 0.17548 0.5733 0.0
C177 C 0.61055 0.20913 0.349 0.0
C178 C 0.56597 0.20571 0.3029 0.0
C179 C 0.60387 0.22478 0.31414 0.0
N180 N 0.57818 0.18256 0.35855 0.0
N181 N 0.55207 0.17988 0.32957 0.0
C182 C 0.64512 0.22255 0.37716 0.0
H183 H 0.63779 0.2318 0.407 0.0
H184 H 0.66983 0.24276 0.36205 0.0
H185 H 0.65383 0.2027 0.38465 0.0
C186 C 0.48359 0.16517 0.48809 0.0
N187 N 0.51122 0.15629 0.4755 0.0
N188 N 0.52746 0.17201 0.4405 0.0
C189 C 0.51284 0.19392 0.4323 0.0
C190 C 0.48399 0.18963 0.46167 0.0
C191 C 0.45922 0.15264 0.52703 0.0
H192 H 0.45605 0.12777 0.53503 0.0
H193 H 0.47252 0.1695 0.55402 0.0
H194 H 0.43021 0.15172 0.52188 0.0
O195 O 0.52546 0.09439 0.47351 0.0
O196 O 0.55049 0.11203 0.40932 0.0
H197 H 0.51529 0.21223 0.36939 0.0
H198 H 0.52325 0.24216 0.41019 0.0
C199 C 0.5291 0.22104 0.40068 0.0
H200 H 0.56056 0.22906 0.39763 0.0
H201 H 0.52353 0.16249 0.33073 0.0
O202 O 0.51413 0.12188 0.56224 0.0
C203 C 0.53423 0.089 0.43633 0.0
Co204 Co 0.61577 0.61591 0.17484 0.0
Co205 Co 0.65632 0.67734 0.23263 0.0
C206 C 0.59663 0.61226 0.26627 0.0
O207 O 0.58958 0.59809 0.23014 0.0
O208 O 0.62148 0.64171 0.27001 0.0
C209 C 0.57561 0.5531 0.13231 0.0
O210 O 0.58096 0.53997 0.16752 0.0
C211 C 0.65241 0.72211 0.29526 0.0
C212 C 0.71241 0.75919 0.30166 0.0
C213 C 0.67571 0.74958 0.31821 0.0
N214 N 0.6743 0.71536 0.26714 0.0
N215 N 0.71019 0.73756 0.27096 0.0
C216 C 0.60957 0.70345 0.29785 0.0
H217 H 0.59797 0.69022 0.26764 0.0
H218 H 0.59584 0.72014 0.30482 0.0
H219 H 0.60215 0.68519 0.32376 0.0
C220 C 0.59161 0.66213 0.13049 0.0
N221 N 0.61183 0.65539 0.16094 0.0
N222 N 0.62989 0.68169 0.18423 0.0
C223 C 0.62246 0.70624 0.16875 0.0
C224 C 0.5977 0.69452 0.13434 0.0
C225 C 0.56706 0.63792 0.09823 0.0
H226 H 0.58551 0.62991 0.0786 0.0
H227 H 0.54546 0.61615 0.11467 0.0
H228 H 0.55219 0.64842 0.07696 0.0
O229 O 0.67034 0.62209 0.17915 0.0
O230 O 0.69974 0.66767 0.2167 0.0
H231 H 0.66698 0.74778 0.19856 0.0
H232 H 0.63449 0.75754 0.16591 0.0
C233 C 0.63666 0.7395 0.18834 0.0
H234 H 0.619 0.73836 0.21675 0.0
H235 H 0.73318 0.73767 0.25313 0.0
O236 O 0.58932 0.584 0.12933 0.0
C237 C 0.70062 0.64368 0.19626 0.0
Co238 Co 0.81066 0.50611 0.9976 0.0
Co239 Co 0.74332 0.52781 0.00713 0.0
C240 C 0.73927 0.46334 0.04172 0.0
O241 O 0.77161 0.46716 0.02618 0.0
O242 O 0.72611 0.48467 0.03619 0.0
C243 C 0.8757 0.48863 0.00509 0.0
O244 O 0.86662 0.48363 0.04559 0.0
C245 C 0.66574 0.51926 0.98772 0.0
C246 C 0.66911 0.56881 0.99728 0.0
C247 C 0.64508 0.53787 0.98264 0.0
N248 N 0.70035 0.5384 0.00396 0.0
N249 N 0.70185 0.56776 0.01081 0.0
C250 C 0.65525 0.48525 0.97182 0.0
H251 H 0.68116 0.48039 0.96919 0.0
H252 H 0.64085 0.48138 0.94038 0.0
H253 H 0.6349 0.46757 0.99456 0.0
C254 C 0.79651 0.51365 0.90591 0.0
N255 N 0.79012 0.51672 0.94763 0.0
N256 N 0.76306 0.52715 0.95139 0.0
C257 C 0.75224 0.53191 0.91202 0.0
C258 C 0.7726 0.5231 0.88184 0.0
C259 C 0.82238 0.499 0.88972 0.0
H260 H 0.85272 0.51677 0.89446 0.0
H261 H 0.81753 0.4767 0.90821 0.0
H262 H 0.81758 0.49275 0.85543 0.0
O263 O 0.8272 0.5411 0.04203 0.0
O264 O 0.78199 0.55959 0.04483 0.0
H265 H 0.72457 0.5631 0.92746 0.0
H266 H 0.72924 0.55751 0.8712 0.0
C267 C 0.72347 0.54528 0.9027 0.0
H268 H 0.69425 0.52505 0.90171 0.0
H269 H 0.72614 0.58764 0.02202 0.0
O270 O 0.85587 0.49792 0.98069 0.0
C271 C 0.81362 0.5601 0.05772 0.0
Co272 Co 0.45226 0.82922 0.47364 0.0
Co273 Co 0.46408 0.81492 0.56809 0.0
C274 C 0.51275 0.8101 0.49232 0.0
O275 O 0.4932 0.8161 0.46393 0.0
O276 O 0.50475 0.80947 0.53183 0.0
C277 C 0.4563 0.86937 0.40407 0.0
O278 O 0.49182 0.8864 0.4169 0.0
C279 C 0.44655 0.75731 0.61618 0.0
C280 C 0.45196 0.77155 0.68379 0.0
C281 C 0.44127 0.74483 0.6568 0.0
N282 N 0.45969 0.78989 0.61832 0.0
N283 N 0.4633 0.79848 0.65892 0.0
C284 C 0.43619 0.73793 0.57571 0.0
H285 H 0.44909 0.75366 0.54775 0.0
H286 H 0.40444 0.72643 0.57205 0.0
H287 H 0.44584 0.71802 0.57706 0.0
C288 C 0.37348 0.78441 0.49055 0.0
N289 N 0.41068 0.79821 0.50183 0.0
N290 N 0.41374 0.7962 0.54315 0.0
C291 C 0.37798 0.78211 0.5599 0.0
C292 C 0.35138 0.77381 0.52696 0.0
C293 C 0.35935 0.78676 0.44686 0.0
H294 H 0.37924 0.78479 0.42257 0.0
H295 H 0.33004 0.7673 0.44135 0.0
H296 H 0.35829 0.81079 0.44335 0.0
O297 O 0.47285 0.8686 0.50733 0.0
O298 O 0.48181 0.86331 0.57622 0.0
H299 H 0.39252 0.8 0.62381 0.0
H300 H 0.34121 0.78011 0.6129 0.0
C301 C 0.36945 0.77972 0.60653 0.0
H302 H 0.36829 0.75629 0.61856 0.0
H303 H 0.47197 0.82243 0.66966 0.0
O304 O 0.43526 0.84263 0.42205 0.0
C305 C 0.48321 0.8809 0.54392 0.0
Co306 Co 0.40653 0.40419 0.69149 0.0
Co307 Co 0.3866 0.35267 0.76609 0.0
C308 C 0.44904 0.42056 0.77462 0.0
O309 O 0.4436 0.42858 0.73717 0.0
O310 O 0.42948 0.39191 0.789 0.0
C311 C 0.43741 0.45985 0.63175 0.0
O312 O 0.43928 0.47902 0.66397 0.0
C313 C 0.39316 0.31435 0.83861 0.0
C314 C 0.33564 0.27289 0.84006 0.0
C315 C 0.37054 0.28649 0.86117 0.0
N316 N 0.37244 0.31758 0.80601 0.0
N317 N 0.33804 0.29271 0.80709 0.0
C318 C 0.4345 0.33647 0.84663 0.0
H319 H 0.44905 0.34802 0.81658 0.0
H320 H 0.44962 0.32276 0.86098 0.0
H321 H 0.43605 0.35576 0.86935 0.0
C322 C 0.41327 0.34975 0.64568 0.0
N323 N 0.40654 0.36263 0.68166 0.0
N324 N 0.39857 0.34101 0.71241 0.0
C325 C 0.39985 0.31367 0.69677 0.0
C326 C 0.4093 0.31852 0.65401 0.0
C327 C 0.42268 0.36681 0.60378 0.0
H328 H 0.39995 0.37478 0.59529 0.0
H329 H 0.45045 0.38869 0.60677 0.0
H330 H 0.42507 0.35093 0.57806 0.0
O331 O 0.35495 0.39993 0.70917 0.0
O332 O 0.34276 0.36373 0.76133 0.0
H333 H 0.36111 0.27182 0.73079 0.0
H334 H 0.3994 0.26594 0.70398 0.0
C335 C 0.39205 0.28359 0.72219 0.0
H336 H 0.40894 0.29035 0.75211 0.0
H337 H 0.31609 0.28937 0.78545 0.0
O338 O 0.42332 0.42916 0.63752 0.0
C339 C 0.33329 0.38254 0.73887 0.0
Co340 Co 0.22635 0.47924 0.53545 0.0
Co341 Co 0.30054 0.46683 0.52362 0.0
C342 C 0.29921 0.52144 0.57904 0.0
O343 O 0.26459 0.5153 0.56958 0.0
O344 O 0.31526 0.50403 0.56439 0.0
C345 C 0.16728 0.50017 0.55976 0.0
O346 O 0.18799 0.51146 0.59428 0.0
C347 C 0.3794 0.49258 0.49481 0.0
C348 C 0.38872 0.44887 0.47919 0.0
C349 C 0.40595 0.48272 0.47744 0.0
N350 N 0.34791 0.46593 0.50616 0.0
N351 N 0.35389 0.43982 0.49754 0.0
C352 C 0.38134 0.52639 0.49474 0.0
H353 H 0.35205 0.52543 0.49252 0.0
H354 H 0.39902 0.54094 0.46781 0.0
H355 H 0.39466 0.53878 0.52492 0.0
C356 C 0.22843 0.4787 0.44175 0.0
N357 N 0.24461 0.47895 0.47985 0.0
N358 N 0.27529 0.47335 0.4745 0.0
C359 C 0.27957 0.46933 0.43257 0.0
C360 C 0.24996 0.47244 0.4105 0.0
C361 C 0.19033 0.47997 0.43637 0.0
H362 H 0.16812 0.45963 0.45446 0.0
H363 H 0.19192 0.50324 0.44975 0.0
H364 H 0.18143 0.47796 0.40256 0.0
O365 O 0.21443 0.43622 0.56139 0.0
O366 O 0.26542 0.42518 0.55193 0.0
H367 H 0.30919 0.43858 0.42853 0.0
H368 H 0.30832 0.45863 0.37902 0.0
C369 C 0.31058 0.4614 0.41407 0.0
H370 H 0.33894 0.48146 0.4214 0.0
H371 H 0.33348 0.41583 0.5021 0.0
O372 O 0.17824 0.48547 0.53197 0.0
C373 C 0.23118 0.41731 0.56515 0.0
Co374 Co 0.54425 0.16222 0.98061 0.0
Co375 Co 0.56478 0.18646 0.07449 0.0
C376 C 0.49669 0.18804 0.02839 0.0
O377 O 0.5043 0.17558 0.99559 0.0
O378 O 0.51748 0.19382 0.06164 0.0
C379 C 0.52491 0.16527 0.89505 0.0
O380 O 0.52145 0.19145 0.90838 0.0
C381 C 0.59098 0.24128 0.13098 0.0
C382 C 0.621 0.22872 0.18271 0.0
C383 C 0.6132 0.25388 0.16685 0.0
N384 N 0.58531 0.21013 0.12591 0.0
N385 N 0.60248 0.20234 0.1576 0.0
C386 C 0.58127 0.26043 0.09783 0.0
H387 H 0.57588 0.24792 0.06659 0.0
H388 H 0.60486 0.28528 0.09422 0.0
H389 H 0.55511 0.26316 0.10798 0.0
C390 C 0.62388 0.20931 0.96529 0.0
N391 N 0.59315 0.19531 0.99091 0.0
N392 N 0.60297 0.20498 0.0304 0.0
C393 C 0.64078 0.2256 0.03094 0.0
C394 C 0.65506 0.22901 0.98979 0.0
C395 C 0.62334 0.20312 0.91843 0.0
H396 H 0.60178 0.20992 0.90319 0.0
H397 H 0.65167 0.21746 0.90337 0.0
H398 H 0.6146 0.17669 0.91273 0.0
O399 O 0.5389 0.12425 0.01244 0.0
O400 O 0.55189 0.13839 0.0806 0.0
H401 H 0.69518 0.2484 0.0641 0.0
H402 H 0.65815 0.25994 0.08175 0.0
C403 C 0.66388 0.23927 0.07029 0.0
H404 H 0.65547 0.2203 0.09531 0.0
H405 H 0.60406 0.17993 0.16028 0.0
O406 O 0.53617 0.14946 0.92065 0.0
C407 C 0.54261 0.11724 0.0507 0.0
H408 H 0.28485 0.35208 0.80404 0.0
H409 H 0.30735 0.42632 0.7072 0.0
H410 H 0.25872 0.44134 0.7401 0.0
H411 H 0.17999 0.3298 0.82817 0.0
H412 H 0.19007 0.32826 0.88366 0.0
H413 H 0.21714 0.31773 0.84429 0.0
H414 H 0.27988 0.36125 0.87947 0.0
H415 H 0.25147 0.37158 0.91676 0.0
H416 H 0.28583 0.40292 0.88361 0.0
H417 H 0.21205 0.45135 0.78637 0.0
H418 H 0.18964 0.46788 0.85192 0.0
H419 H 0.20215 0.39039 0.92106 0.0
C420 C 0.27835 0.37047 0.78841 0.0
C421 C 0.29928 0.38746 0.75236 0.0
C422 C 0.29108 0.41242 0.7342 0.0
C423 C 0.26331 0.42098 0.75258 0.0
C424 C 0.24342 0.40387 0.78844 0.0
C425 C 0.25123 0.37952 0.80659 0.0
C426 C 0.23323 0.37018 0.8502 0.0
C427 C 0.20336 0.33438 0.85155 0.0
C428 C 0.26445 0.37693 0.88448 0.0
C429 C 0.21425 0.3933 0.854 0.0
C430 C 0.21901 0.41153 0.8173 0.0
C431 C 0.20767 0.43697 0.81502 0.0
C432 C 0.19438 0.44589 0.85224 0.0
C433 C 0.19393 0.43002 0.89105 0.0
C434 C 0.20125 0.40207 0.89129 0.0
H435 H 0.101 0.33929 0.75171 0.0
H436 H 0.01961 0.27625 0.65922 0.0
H437 H 0.07246 0.28547 0.6094 0.0
H438 H 0.14763 0.3965 0.69412 0.0
H439 H 0.19663 0.40862 0.70969 0.0
H440 H 0.15886 0.387 0.7466 0.0
H441 H 0.18088 0.34231 0.75661 0.0
H442 H 0.21997 0.35889 0.71869 0.0
H443 H 0.18392 0.31809 0.71255 0.0
H444 H 0.12825 0.31624 0.56249 0.0
H445 H 0.18133 0.3619 0.52669 0.0
H446 H 0.22811 0.40385 0.64872 0.0
C447 C 0.09456 0.32596 0.72195 0.0
C448 C 0.05617 0.30752 0.70931 0.0
C449 C 0.0488 0.29064 0.66984 0.0
C450 C 0.07878 0.29569 0.64114 0.0
C451 C 0.11612 0.31677 0.65287 0.0
C452 C 0.1242 0.33067 0.69301 0.0
C453 C 0.16521 0.35617 0.69567 0.0
C454 C 0.16722 0.38895 0.71253 0.0
C455 C 0.18892 0.34318 0.72262 0.0
C456 C 0.1771 0.35822 0.64958 0.0
C457 C 0.14916 0.33412 0.62558 0.0
C458 C 0.15109 0.33422 0.58121 0.0
C459 C 0.18137 0.36017 0.56106 0.0
C460 C 0.20914 0.38556 0.58529 0.0
C461 C 0.20788 0.38386 0.62992 0.0
H462 H 0.47749 0.06915 0.08124 0.0
H463 H 0.58961 0.08955 0.02894 0.0
H464 H 0.56607 0.0324 0.00465 0.0
H465 H 0.45171 0.97961 0.11145 0.0
H466 H 0.40223 0.96843 0.09737 0.0
H467 H 0.43096 0.00829 0.11922 0.0
H468 H 0.4135 0.03392 0.05363 0.0
H469 H 0.38665 0.99438 0.03026 0.0
H470 H 0.42563 0.02515 0.0011 0.0
H471 H 0.52656 0.97714 0.97238 0.0
H472 H 0.47763 0.9223 0.95118 0.0
H473 H 0.39176 0.93842 0.02486 0.0
C474 C 0.49769 0.06085 0.06754 0.0
C475 C 0.53555 0.08327 0.05796 0.0
C476 C 0.56084 0.07225 0.03775 0.0
C477 C 0.54751 0.04001 0.02316 0.0
C478 C 0.50897 0.01913 0.0297 0.0
C479 C 0.48478 0.02866 0.05296 0.0
C480 C 0.44396 0.00236 0.05275 0.0
C481 C 0.43149 0.98886 0.09787 0.0
C482 C 0.41581 0.01472 0.03327 0.0
C483 C 0.4487 0.97735 0.02424 0.0
C484 C 0.48631 0.98741 0.01108 0.0
C485 C 0.49711 0.96872 0.9831 0.0
C486 C 0.46909 0.938 0.97045 0.0
C487 C 0.43106 0.92657 0.98601 0.0
C488 C 0.42065 0.94691 0.01216 0.0
H489 H 0.75198 0.52427 0.31311 0.0
H490 H 0.83777 0.60825 0.37688 0.0
H491 H 0.83936 0.64288 0.31535 0.0
H492 H 0.78168 0.5539 0.19363 0.0
H493 H 0.73129 0.53499 0.18148 0.0
H494 H 0.7505 0.51703 0.22093 0.0
H495 H 0.69822 0.51921 0.27312 0.0
H496 H 0.68214 0.53892 0.23366 0.0
H497 H 0.69805 0.55826 0.28464 0.0
H498 H 0.81783 0.66975 0.26007 0.0
H499 H 0.77334 0.68602 0.22093 0.0
H500 H 0.70278 0.58474 0.18945 0.0
C501 C 0.7726 0.54966 0.31276 0.0
C502 C 0.79493 0.56382 0.34908 0.0
C503 C 0.82095 0.59708 0.34883 0.0
C504 C 0.82213 0.61677 0.31385 0.0
C505 C 0.79797 0.60248 0.27914 0.0
C506 C 0.77419 0.56935 0.27797 0.0
C507 C 0.745 0.56096 0.24233 0.0
C508 C 0.75262 0.54049 0.2076 0.0
C509 C 0.70347 0.54338 0.2595 0.0
C510 C 0.75364 0.59481 0.2261 0.0
C511 C 0.78518 0.61837 0.24658 0.0
C512 C 0.79399 0.65153 0.2428 0.0
C513 C 0.76851 0.66061 0.2204 0.0
C514 C 0.73446 0.63655 0.2024 0.0
C515 C 0.7289 0.60367 0.20225 0.0
H516 H 0.92253 0.59013 0.27811 0.0
H517 H 0.9246 0.68655 0.27983 0.0
H518 H 0.88003 0.67148 0.21842 0.0
H519 H 0.93628 0.59218 0.17182 0.0
H520 H 0.90901 0.54907 0.16243 0.0
H521 H 0.93077 0.56319 0.21348 0.0
H522 H 0.8656 0.53276 0.24927 0.0
H523 H 0.84104 0.51896 0.19928 0.0
H524 H 0.82578 0.54185 0.23598 0.0
H525 H 0.84087 0.64743 0.15184 0.0
H526 H 0.8152 0.61868 0.08369 0.0
H527 H 0.84917 0.54232 0.12062 0.0
C528 C 0.91146 0.60726 0.26739 0.0
C529 C 0.92541 0.63893 0.28478 0.0
C530 C 0.91286 0.66173 0.26786 0.0
C531 C 0.88791 0.65345 0.23276 0.0
C532 C 0.87656 0.62256 0.21461 0.0
C533 C 0.88822 0.59991 0.2313 0.0
C534 C 0.87906 0.57127 0.20154 0.0
C535 C 0.91597 0.56882 0.18645 0.0
C536 C 0.85116 0.53932 0.22268 0.0
C537 C 0.86035 0.58123 0.16547 0.0
C538 C 0.85835 0.61049 0.1739 0.0
C539 C 0.84248 0.62459 0.14482 0.0
C540 C 0.82829 0.6083 0.10615 0.0
C541 C 0.8312 0.57883 0.09654 0.0
C542 C 0.84747 0.56527 0.12667 0.0
H543 H 0.44284 0.91604 0.53262 0.0
H544 H 0.55827 0.92393 0.54916 0.0
H545 H 0.58425 0.97678 0.51084 0.0
H546 H 0.4551 0.94254 0.42882 0.0
H547 H 0.42551 0.96454 0.432 0.0
H548 H 0.41623 0.93035 0.4667 0.0
H549 H 0.42335 0.96622 0.53381 0.0
H550 H 0.42996 -0.00023 0.49908 0.0
H551 H 0.46539 0.00442 0.53925 0.0
H552 H 0.59621 0.02557 0.4628 0.0
H553 H 0.59497 0.07408 0.42794 0.0
H554 H 0.47108 0.03179 0.44007 0.0
C555 C 0.47375 0.92999 0.53061 0.0
C556 C 0.49871 0.91655 0.54501 0.0
C557 C 0.53887 0.93452 0.53984 0.0
C558 C 0.5537 0.96406 0.51702 0.0
C559 C 0.52785 0.97504 0.49969 0.0
C560 C 0.48881 0.95906 0.50745 0.0
C561 C 0.46679 0.97499 0.48422 0.0
C562 C 0.43929 0.95171 0.45099 0.0
C563 C 0.44513 0.98709 0.51597 0.0
C564 C 0.49958 0.00299 0.46284 0.0
C565 C 0.53453 0.00221 0.47124 0.0
C566 C 0.569 0.02637 0.45605 0.0
C567 C 0.56798 0.05349 0.43523 0.0
C568 C 0.53285 0.05634 0.43072 0.0
C569 C 0.49813 0.02971 0.44197 0.0
H570 H 0.12146 0.57825 0.05761 0.0
H571 H 0.04905 0.47688 0.08774 0.0
H572 H 0.02854 0.49401 0.15419 0.0
H573 H 0.15451 0.60387 0.16221 0.0
H574 H 0.15373 0.64335 0.15771 0.0
H575 H 0.16097 0.62347 0.11105 0.0
H576 H 0.10297 0.62783 0.07446 0.0
H577 H 0.09572 0.64792 0.12093 0.0
H578 H 0.05685 0.61156 0.10075 0.0
H579 H 0.01996 0.52168 0.2199 0.0
H580 H 0.01724 0.55867 0.27628 0.0
H581 H 0.09503 0.64198 0.2033 0.0
C582 C 0.10113 0.55973 0.0781 0.0
C583 C 0.08712 0.52624 0.06785 0.0
C584 C 0.05999 0.50269 0.09497 0.0
C585 C 0.04841 0.51215 0.13293 0.0
C586 C 0.0639 0.54527 0.14297 0.0
C587 C 0.08912 0.56878 0.11602 0.0
C588 C 0.10155 0.60273 0.13445 0.0
C589 C 0.14528 0.61931 0.1418 0.0
C590 C 0.08847 0.62373 0.10594 0.0
C591 C 0.07974 0.59453 0.17616 0.0
C592 C 0.05839 0.56127 0.18056 0.0
C593 C 0.03634 0.54782 0.2167 0.0
C594 C 0.03525 0.56903 0.24873 0.0
C595 C 0.05587 0.60332 0.24424 0.0
C596 C 0.07879 0.61602 0.20766 0.0
H597 H 0.64111 0.16058 0.56531 0.0
H598 H 0.68503 0.21695 0.44994 0.0
H599 H 0.75112 0.23463 0.4761 0.0
H600 H 0.70931 0.21861 0.63609 0.0
H601 H 0.71328 0.18787 0.66961 0.0
H602 H 0.66934 0.17904 0.64109 0.0
H603 H 0.67382 0.12859 0.60674 0.0
H604 H 0.71812 0.13756 0.6347 0.0
H605 H 0.71648 0.13376 0.57756 0.0
H606 H 0.81209 0.24698 0.51469 0.0
H607 H 0.86432 0.2566 0.56627 0.0
H608 H 0.78154 0.19231 0.65665 0.0
C609 C 0.66457 0.17675 0.54555 0.0
C610 C 0.65775 0.1871 0.50523 0.0
C611 C 0.68935 0.20829 0.48054 0.0
C612 C 0.72709 0.21848 0.49515 0.0
C613 C 0.73277 0.20725 0.53454 0.0
C614 C 0.70245 0.18711 0.55962 0.0
C615 C 0.71649 0.17942 0.60133 0.0
C616 C 0.70121 0.192 0.63926 0.0
C617 C 0.70557 0.14264 0.60529 0.0
C618 C 0.75948 0.19871 0.59592 0.0
C619 C 0.76817 0.21437 0.55696 0.0
C620 C 0.80572 0.23474 0.54518 0.0
C621 C 0.83511 0.24001 0.57453 0.0
C622 C 0.82664 0.22503 0.61502 0.0
C623 C 0.78858 0.20351 0.6255 0.0
H624 H 0.27934 0.71415 0.84857 0.0
H625 H 0.4013 0.74165 0.83454 0.0
H626 H 0.39053 0.68467 0.8477 0.0
H627 H 0.26884 0.67208 0.9356 0.0
H628 H 0.22182 0.63973 0.9261 0.0
H629 H 0.23555 0.67853 0.90057 0.0
H630 H 0.2215 0.65088 0.82637 0.0
H631 H 0.20647 0.61165 0.85179 0.0
H632 H 0.24338 0.6241 0.8115 0.0
H633 H 0.3699 0.63027 0.88171 0.0
H634 H 0.33961 0.58009 0.92446 0.0
H635 H 0.23113 0.58858 0.92066 0.0
C636 C 0.30332 0.70762 0.84588 0.0
C637 C 0.34105 0.73203 0.84058 0.0
C638 C 0.37209 0.72311 0.83789 0.0
C639 C 0.36623 0.69082 0.84578 0.0
C640 C 0.32913 0.66789 0.85564 0.0
C641 C 0.29794 0.67566 0.8546 0.0
C642 C 0.26233 0.64843 0.87316 0.0
C643 C 0.24625 0.66044 0.91108 0.0
C644 C 0.23161 0.63283 0.83864 0.0
C645 C 0.27898 0.6252 0.88746 0.0
C646 C 0.31729 0.63649 0.87628 0.0
C647 C 0.33964 0.62071 0.88956 0.0
C648 C 0.32223 0.5924 0.91428 0.0
C649 C 0.28291 0.5803 0.92594 0.0
C650 C 0.26115 0.59701 0.91211 0.0
H651 H 0.88751 0.43651 0.5076 0.0
H652 H 0.96871 0.53537 0.53918 0.0
H653 H 0.00144 0.51326 0.58814 0.0
H654 H 0.87403 0.40687 0.60614 0.0
H655 H 0.87026 0.3668 0.5929 0.0
H656 H 0.85778 0.38977 0.5541 0.0
H657 H 0.90681 0.38521 0.50068 0.0
H658 H 0.91889 0.36149 0.53908 0.0
H659 H 0.95614 0.39787 0.51671 0.0
H660 H 0.019 0.48038 0.64205 0.0
H661 H 0.02046 0.43948 0.69344 0.0
H662 H 0.92774 0.36348 0.62446 0.0
C663 C 0.91308 0.45397 0.52246 0.0
C664 C 0.92595 0.48805 0.51742 0.0
C665 C 0.95873 0.50916 0.54088 0.0
C666 C 0.97754 0.49684 0.56915 0.0
C667 C 0.96345 0.46317 0.57369 0.0
C668 C 0.93221 0.44206 0.55054 0.0
C669 C 0.91995 0.40705 0.56424 0.0
C670 C 0.87805 0.39176 0.5803 0.0
C671 C 0.92582 0.38671 0.52802 0.0
C672 C 0.94802 0.41194 0.60004 0.0
C673 C 0.9733 0.44436 0.60479 0.0
C674 C -0.00022 0.45482 0.63811 0.0
C675 C 0.00021 0.43145 0.66732 0.0
C676 C 0.97417 0.39812 0.66303 0.0
C677 C 0.94827 0.3885 0.62854 0.0
H678 H 0.23781 0.7552 0.02203 0.0
H679 H 0.26202 0.85619 0.99855 0.0
H680 H 0.20247 0.8488 0.0363 0.0
H681 H 0.12502 0.72261 0.02269 0.0
H682 H 0.12211 0.69442 0.06446 0.0
H683 H 0.15851 0.70424 0.02385 0.0
H684 H 0.2107 0.72096 0.0822 0.0
H685 H 0.17505 0.71215 0.12301 0.0
H686 H 0.21443 0.75221 0.12006 0.0
H687 H 0.15347 0.83543 0.09386 0.0
H688 H 0.11378 0.81484 0.15859 0.0
H689 H 0.11824 0.72131 0.14163 0.0
C690 C 0.2288 0.7749 0.02212 0.0
C691 C 0.2535 0.80591 0.00641 0.0
C692 C 0.24251 0.83196 0.00907 0.0
C693 C 0.20891 0.82801 0.03084 0.0
C694 C 0.18647 0.79769 0.04901 0.0
C695 C 0.19521 0.77115 0.04355 0.0
C696 C 0.16999 0.74272 0.07132 0.0
C697 C 0.14225 0.71432 0.04394 0.0
C698 C 0.194 0.73141 0.10088 0.0
C699 C 0.14858 0.75849 0.09616 0.0
C700 C 0.15777 0.78991 0.08233 0.0
C701 C 0.14515 0.8105 0.10409 0.0
C702 C 0.12289 0.79872 0.141 0.0
C703 C 0.11394 0.76683 0.15606 0.0
C704 C 0.12582 0.74623 0.13226 0.0
H705 H 0.66064 0.39928 0.40649 0.0
H706 H 0.77787 0.4209 0.36927 0.0
H707 H 0.75423 0.37028 0.32651 0.0
H708 H 0.63148 0.31506 0.42118 0.0
H709 H 0.58325 0.30358 0.40204 0.0
H710 H 0.60954 0.34318 0.4254 0.0
H711 H 0.59827 0.36986 0.35676 0.0
H712 H 0.57278 0.3301 0.33297 0.0
H713 H 0.61364 0.36075 0.30613 0.0
H714 H 0.71835 0.31548 0.29155 0.0
H715 H 0.67486 0.25739 0.27826 0.0
H716 H 0.58146 0.27144 0.33816 0.0
C717 C 0.68133 0.39354 0.38903 0.0
C718 C 0.72112 0.41418 0.39115 0.0
C719 C 0.74727 0.40546 0.36834 0.0
C720 C 0.73406 0.37694 0.34349 0.0
C721 C 0.69462 0.3573 0.34174 0.0
C722 C 0.66869 0.36501 0.36444 0.0
C723 C 0.62829 0.33819 0.36084 0.0
C724 C 0.61223 0.32418 0.40496 0.0
C725 C 0.60168 0.35048 0.3378 0.0
C726 C 0.6357 0.31368 0.33378 0.0
C727 C 0.67398 0.3255 0.32209 0.0
C728 C 0.68825 0.30615 0.30003 0.0
C729 C 0.66334 0.27331 0.29218 0.0
C730 C 0.62491 0.26026 0.30684 0.0
C731 C 0.61051 0.28112 0.3258 0.0
H732 H 0.52648 0.75583 0.48563 0.0
H733 H 0.57681 0.86034 0.4652 0.0
H734 H 0.63209 0.85728 0.42838 0.0
H735 H 0.62117 0.74716 0.49499 0.0
H736 H 0.60122 0.70903 0.46626 0.0
H737 H 0.57072 0.7204 0.4998 0.0
H738 H 0.52526 0.71321 0.43587 0.0
H739 H 0.55575 0.70226 0.40214 0.0
H740 H 0.54455 0.7358 0.38761 0.0
H741 H 0.67463 0.84191 0.38285 0.0
H742 H 0.70096 0.81501 0.33165 0.0
H743 H 0.62448 0.72055 0.38258 0.0
C744 C 0.55014 0.77809 0.47504 0.0
C745 C 0.54829 0.8084 0.47883 0.0
C746 C 0.57853 0.83706 0.46311 0.0
C747 C 0.60996 0.83554 0.4423 0.0
C748 C 0.61059 0.80514 0.43761 0.0
C749 C 0.58167 0.77691 0.45391 0.0
C750 C 0.58651 0.74691 0.43946 0.0
C751 C 0.59545 0.72988 0.4774 0.0
C752 C 0.55091 0.72318 0.41481 0.0
C753 C 0.62111 0.76254 0.41058 0.0
C754 C 0.63511 0.79617 0.41063 0.0
C755 C 0.66449 0.81563 0.3832 0.0
C756 C 0.67923 0.80021 0.35422 0.0
C757 C 0.6641 0.76576 0.35262 0.0
C758 C 0.63586 0.7469 0.38234 0.0
H759 H 0.57816 0.4819 0.9818 0.0
H760 H 0.63742 0.57548 0.91931 0.0
H761 H 0.58919 0.55748 0.86173 0.0
H762 H 0.56045 0.43482 0.89363 0.0
H763 H 0.51316 0.40486 0.90806 0.0
H764 H 0.54699 0.42701 0.94886 0.0
H765 H 0.49878 0.44786 0.98087 0.0
H766 H 0.46443 0.42409 0.94113 0.0
H767 H 0.47705 0.46708 0.94638 0.0
H768 H 0.54211 0.52593 0.80502 0.0
H769 H 0.49525 0.48506 0.757 0.0
H770 H 0.46684 0.41217 0.8567 0.0
C771 C 0.58024 0.49884 0.95656 0.0
C772 C 0.61148 0.52992 0.95467 0.0
C773 C 0.61343 0.55162 0.92141 0.0
C774 C 0.58632 0.54154 0.88845 0.0
C775 C 0.55716 0.50992 0.88976 0.0
C776 C 0.55338 0.48914 0.92349 0.0
C777 C 0.52131 0.45562 0.91574 0.0
C778 C 0.5364 0.42903 0.91661 0.0
C779 C 0.48847 0.44825 0.94794 0.0
C780 C 0.50916 0.46029 0.87142 0.0
C781 C 0.52973 0.49187 0.8572 0.0
C782 C 0.52524 0.50128 0.81611 0.0
C783 C 0.49878 0.47783 0.78895 0.0
C784 C 0.47735 0.4453 0.80296 0.0
C785 C 0.48263 0.43672 0.84489 0.0
H786 H 0.28259 0.57329 0.59788 0.0
H787 H 0.36872 0.53624 0.61745 0.0
H788 H 0.4103 0.58753 0.65387 0.0
H789 H 0.34598 0.65044 0.56921 0.0
H790 H 0.32043 0.67137 0.59402 0.0
H791 H 0.2947 0.62968 0.57726 0.0
H792 H 0.26813 0.6136 0.65387 0.0
H793 H 0.29422 0.6554 0.67085 0.0
H794 H 0.30114 0.6232 0.69795 0.0
H795 H 0.44651 0.64558 0.67802 0.0
H796 H 0.47511 0.70599 0.68317 0.0
H797 H 0.36583 0.70517 0.64818 0.0
C798 C 0.30966 0.57553 0.61101 0.0
C799 C 0.32218 0.55057 0.60519 0.0
C800 C 0.35836 0.55491 0.62175 0.0
C801 C 0.38211 0.58391 0.64274 0.0
C802 C 0.36929 0.60837 0.64709 0.0
C803 C 0.33385 0.60444 0.63167 0.0
C804 C 0.32884 0.63581 0.63535 0.0
C805 C 0.32212 0.6475 0.59136 0.0
C806 C 0.29614 0.63175 0.66636 0.0
C807 C 0.36757 0.65837 0.65354 0.0
C808 C 0.39026 0.64197 0.66103 0.0
C809 C 0.42868 0.65851 0.67342 0.0
C810 C 0.44467 0.69274 0.6766 0.0
C811 C 0.42224 0.70984 0.66724 0.0
C812 C 0.38302 0.69238 0.65698 0.0
H813 H 0.4355 0.16464 0.97531 0.0
H814 H 0.49283 0.24058 0.06843 0.0
H815 H 0.45631 0.2707 0.04257 0.0
H816 H 0.4447 0.21352 0.8946 0.0
H817 H 0.39925 0.19019 0.86891 0.0
H818 H 0.42035 0.16994 0.90212 0.0
H819 H 0.35898 0.14601 0.94882 0.0
H820 H 0.33704 0.16554 0.91506 0.0
H821 H 0.3402 0.17291 0.97161 0.0
H822 H 0.42738 0.29856 0.99486 0.0
H823 H 0.40288 0.31913 0.93432 0.0
H824 H 0.36371 0.22478 0.87267 0.0
C825 C 0.43895 0.18683 0.99165 0.0
C826 C 0.46685 0.20029 0.02392 0.0
C827 C 0.4712 0.22963 0.04409 0.0
C828 C 0.45068 0.24696 0.0294 0.0
C829 C 0.42546 0.23418 0.99522 0.0
C830 C 0.4188 0.2043 0.97731 0.0
C831 C 0.39473 0.19791 0.93732 0.0
C832 C 0.41605 0.19261 0.8985 0.0
C833 C 0.35539 0.16887 0.9436 0.0
C834 C 0.39073 0.22967 0.934 0.0
C835 C 0.40823 0.25015 0.96794 0.0
C836 C 0.41258 0.28238 0.96889 0.0
C837 C 0.39896 0.29395 0.93426 0.0
C838 C 0.38132 0.27335 0.89925 0.0
C839 C 0.37632 0.24066 0.89966 0.0
H840 H 0.53826 0.54978 0.27269 0.0
H841 H 0.60707 0.63553 0.3478 0.0
H842 H 0.56952 0.60933 0.41144 0.0
H843 H 0.44998 0.53323 0.31942 0.0
H844 H 0.4324 0.48938 0.31959 0.0
H845 H 0.46719 0.51323 0.28049 0.0
H846 H 0.51287 0.48745 0.30439 0.0
H847 H 0.478 0.46343 0.34354 0.0
H848 H 0.52644 0.48957 0.3596 0.0
H849 H 0.52036 0.57697 0.46513 0.0
H850 H 0.46339 0.53944 0.50541 0.0
H851 H 0.42776 0.47348 0.39761 0.0
C852 C 0.54581 0.56284 0.30264 0.0
C853 C 0.57545 0.59493 0.30492 0.0
C854 C 0.58428 0.61114 0.34486 0.0
C855 C 0.56328 0.59635 0.38142 0.0
C856 C 0.53383 0.56506 0.37792 0.0
C857 C 0.52531 0.54827 0.33973 0.0
C858 C 0.49094 0.51547 0.34445 0.0
C859 C 0.4582 0.51269 0.3142 0.0
C860 C 0.50278 0.48732 0.33757 0.0
C861 C 0.48036 0.51729 0.39057 0.0
C862 C 0.50586 0.5459 0.40946 0.0
C863 C 0.5006 0.5542 0.45094 0.0
C864 C 0.46819 0.53285 0.47352 0.0
C865 C 0.44174 0.50346 0.45479 0.0
C866 C 0.44816 0.49547 0.41296 0.0
H867 H 0.68758 0.29044 0.14732 0.0
H868 H 0.58534 0.29575 0.19702 0.0
H869 H 0.6118 0.35424 0.17821 0.0
H870 H 0.75892 0.38027 0.16876 0.0
H871 H 0.78263 0.38134 0.11885 0.0
H872 H 0.76196 0.34396 0.14906 0.0
H873 H 0.72302 0.31469 0.08273 0.0
H874 H 0.74136 0.35187 0.05258 0.0
H875 H 0.69016 0.32892 0.05905 0.0
H876 H 0.64056 0.40631 0.13785 0.0
H877 H 0.67398 0.45137 0.08772 0.0
H878 H 0.75675 0.41168 0.06055 0.0
C879 C 0.67213 0.30462 0.15679 0.0
C880 C 0.63494 0.28909 0.17443 0.0
C881 C 0.61436 0.30767 0.18463 0.0
C882 C 0.62904 0.34079 0.17358 0.0
C883 C 0.6643 0.35476 0.15244 0.0
C884 C 0.68611 0.3375 0.14504 0.0
C885 C 0.71981 0.35629 0.11589 0.0
C886 C 0.75811 0.36606 0.13956 0.0
C887 C 0.71846 0.33678 0.07518 0.0
C888 C 0.71234 0.38587 0.10618 0.0
C889 C 0.68055 0.38475 0.12806 0.0
C890 C 0.6661 0.4079 0.12145 0.0
C891 C 0.68508 0.43324 0.09248 0.0
C892 C 0.71813 0.43521 0.07016 0.0
C893 C 0.73177 0.41108 0.07727 0.0
H894 H 0.23835 0.51128 0.35089 0.0
H895 H 0.23852 0.41632 0.36881 0.0
H896 H 0.22551 0.40441 0.29215 0.0
H897 H 0.16092 0.48446 0.26973 0.0
H898 H 0.18322 0.52205 0.24023 0.0
H899 H 0.18969 0.52206 0.29703 0.0
H900 H 0.26368 0.54877 0.28677 0.0
H901 H 0.25744 0.54881 0.23006 0.0
H902 H 0.28548 0.52929 0.25257 0.0
H903 H 0.2195 0.40528 0.21317 0.0
H904 H 0.21836 0.41817 0.13675 0.0
H905 H 0.21814 0.51107 0.17013 0.0
C906 C 0.235 0.48782 0.3386 0.0
C907 C 0.23976 0.46478 0.36528 0.0
C908 C 0.23544 0.43438 0.34846 0.0
C909 C 0.2278 0.42735 0.30515 0.0
C910 C 0.22392 0.4508 0.27938 0.0
C911 C 0.22696 0.48029 0.29547 0.0
C912 C 0.22312 0.50176 0.26054 0.0
C913 C 0.18709 0.50794 0.26729 0.0
C914 C 0.25961 0.53405 0.25731 0.0
C915 C 0.21871 0.48016 0.22216 0.0
C916 C 0.21905 0.45079 0.23379 0.0
C917 C 0.21841 0.42788 0.2037 0.0
C918 C 0.21782 0.43534 0.16054 0.0
C919 C 0.21762 0.46528 0.14816 0.0
C920 C 0.21743 0.48771 0.17922 0.0
H921 H 0.69867 0.20258 0.9515 0.0
H922 H 0.70115 0.29408 0.99626 0.0
H923 H 0.76704 0.32372 0.96701 0.0
H924 H 0.8014 0.22301 0.97002 0.0
H925 H 0.80489 0.20194 0.9226 0.0
H926 H 0.75995 0.18806 0.95102 0.0
H927 H 0.72582 0.19295 0.88203 0.0
H928 H 0.77061 0.20699 0.85348 0.0
H929 H 0.74373 0.23139 0.85416 0.0
H930 H 0.82874 0.34339 0.92509 0.0
H931 H 0.88293 0.35167 0.87685 0.0
H932 H 0.84136 0.24682 0.86245 0.0
C933 C 0.71346 0.22881 0.95556 0.0
C934 C 0.6953 0.24631 0.97583 0.0
C935 C 0.71507 0.2805 0.98087 0.0
C936 C 0.7523 0.2974 0.96436 0.0
C937 C 0.7692 0.27951 0.94349 0.0
C938 C 0.75056 0.24592 0.93948 0.0
C939 C 0.77403 0.23256 0.91376 0.0
C940 C 0.78577 0.21007 0.94099 0.0
C941 C 0.75224 0.21494 0.87348 0.0
C942 C 0.80839 0.26396 0.90287 0.0
C943 C 0.80518 0.29077 0.92042 0.0
C944 C 0.83202 0.32255 0.91202 0.0
C945 C 0.8628 0.32701 0.88479 0.0
C946 C 0.86652 0.29982 0.86655 0.0
C947 C 0.83924 0.26797 0.87626 0.0
H948 H 0.41934 0.72907 0.0629 0.0
H949 H 0.49992 0.81393 0.99523 0.0
H950 H 0.55313 0.79918 0.01442 0.0
H951 H 0.47964 0.73439 0.14932 0.0
H952 H 0.46399 0.69096 0.1552 0.0
H953 H 0.43191 0.70653 0.13297 0.0
H954 H 0.42329 0.67102 0.06551 0.0
H955 H 0.45518 0.65515 0.08766 0.0
H956 H 0.46511 0.67431 0.03607 0.0
H957 H 0.59801 0.77737 0.0457 0.0
H958 H 0.63088 0.74873 0.08455 0.0
H959 H 0.52092 0.67811 0.13151 0.0
C960 C 0.44814 0.74408 0.05154 0.0
C961 C 0.45576 0.7723 0.02717 0.0
C962 C 0.49369 0.79188 0.01333 0.0
C963 C 0.52398 0.78377 0.02421 0.0
C964 C 0.51569 0.75596 0.04883 0.0
C965 C 0.47863 0.73625 0.06203 0.0
C966 C 0.47764 0.70849 0.08962 0.0
C967 C 0.4624 0.71022 0.13443 0.0
C968 C 0.4539 0.67528 0.06844 0.0
C969 C 0.51998 0.71598 0.09056 0.0
C970 C 0.54147 0.7434 0.06674 0.0
C971 C 0.58144 0.75571 0.06411 0.0
C972 C 0.59987 0.73947 0.08632 0.0
C973 C 0.57826 0.71137 0.11069 0.0
C974 C 0.5379 0.69946 0.11268 0.0
H975 H 0.81228 0.54424 0.62991 0.0
H976 H 0.69337 0.47496 0.61269 0.0
H977 H 0.6842 0.47133 0.69049 0.0
H978 H 0.82914 0.50332 0.72147 0.0
H979 H 0.86035 0.54066 0.74773 0.0
H980 H 0.85729 0.53909 0.69051 0.0
H981 H 0.83923 0.58818 0.6908 0.0
H982 H 0.84218 0.58986 0.74801 0.0
H983 H 0.79867 0.58593 0.72187 0.0
H984 H 0.68734 0.47568 0.76994 0.0
H985 H 0.70364 0.48533 0.84628 0.0
H986 H 0.82167 0.54878 0.81362 0.0
C987 C 0.78436 0.52826 0.64259 0.0
C988 C 0.75328 0.51038 0.61508 0.0
C989 C 0.71727 0.48964 0.63295 0.0
C990 C 0.71187 0.4872 0.67718 0.0
C991 C 0.74295 0.50525 0.70337 0.0
C992 C 0.77863 0.52514 0.68685 0.0
C993 C 0.8075 0.54108 0.72229 0.0
C994 C 0.84053 0.53039 0.72038 0.0
C995 C 0.82279 0.57848 0.72063 0.0
C996 C 0.78239 0.52717 0.76124 0.0
C997 C 0.74518 0.50673 0.74946 0.0
C998 C 0.71641 0.4915 0.77953 0.0
C999 C 0.72587 0.49721 0.82277 0.0
C1000 C 0.76382 0.51774 0.83569 0.0
C1001 C 0.79249 0.53281 0.80449 0.0
H1002 H 0.29286 0.7175 0.50224 0.0
H1003 H 0.31899 0.81418 0.55076 0.0
H1004 H 0.25365 0.80764 0.53115 0.0
H1005 H 0.249 0.72387 0.4135 0.0
H1006 H 0.21201 0.68264 0.41134 0.0
H1007 H 0.25646 0.6911 0.43833 0.0
H1008 H 0.21982 0.66533 0.50777 0.0
H1009 H 0.17494 0.65578 0.48072 0.0
H1010 H 0.18579 0.67921 0.52929 0.0
H1011 H 0.19068 0.79459 0.49336 0.0
H1012 H 0.13221 0.77326 0.44779 0.0
H1013 H 0.14854 0.68565 0.42367 0.0
C1014 C 0.28384 0.73641 0.51085 0.0
C1015 C 0.31013 0.76592 0.52892 0.0
C1016 C 0.29852 0.79103 0.53806 0.0
C1017 C 0.26166 0.7876 0.52668 0.0
C1018 C 0.23691 0.7588 0.50659 0.0
C1019 C 0.24724 0.73331 0.49966 0.0
C1020 C 0.2174 0.70649 0.47337 0.0
C1021 C 0.23477 0.70072 0.43168 0.0
C1022 C 0.19836 0.67483 0.49935 0.0
C1023 C 0.18958 0.72143 0.46498 0.0
C1024 C 0.20097 0.75146 0.48464 0.0
C1025 C 0.18102 0.77078 0.47864 0.0
C1026 C 0.1482 0.75873 0.4525 0.0
C1027 C 0.13607 0.72786 0.4328 0.0
C1028 C 0.15709 0.70916 0.43907 0.0
H1029 H 0.52034 0.24757 0.50151 0.0
H1030 H 0.40949 0.17966 0.45373 0.0
H1031 H 0.37771 0.20744 0.49613 0.0
H1032 H 0.49272 0.24719 0.60327 0.0
H1033 H 0.52134 0.2897 0.61527 0.0
H1034 H 0.53669 0.26989 0.57449 0.0
H1035 H 0.53892 0.31291 0.51884 0.0
H1036 H 0.52508 0.33376 0.55984 0.0
H1037 H 0.49734 0.3212 0.51157 0.0
H1038 H 0.35765 0.23611 0.55299 0.0
H1039 H 0.35136 0.26931 0.61298 0.0
H1040 H 0.47535 0.31833 0.62374 0.0
C1041 C 0.48964 0.2399 0.4982 0.0
C1042 C 0.46723 0.21225 0.47366 0.0
C1043 C 0.42696 0.20151 0.47149 0.0
C1044 C 0.40875 0.2169 0.49579 0.0
C1045 C 0.43143 0.243 0.52177 0.0
C1046 C 0.47112 0.25496 0.52235 0.0
C1047 C 0.48859 0.28121 0.5559 0.0
C1048 C 0.51115 0.27139 0.58918 0.0
C1049 C 0.51398 0.31423 0.5353 0.0
C1050 C 0.45253 0.28146 0.57496 0.0
C1051 C 0.41984 0.25927 0.55486 0.0
C1052 C 0.38305 0.25392 0.56851 0.0
C1053 C 0.37968 0.27246 0.60278 0.0
C1054 C 0.41288 0.29579 0.6228 0.0
C1055 C 0.44966 0.30028 0.60891 0.0
H1056 H 0.55959 0.57295 0.05581 0.0
H1057 H 0.52625 0.48804 0.13733 0.0
H1058 H 0.46854 0.45919 0.09328 0.0
H1059 H 0.47531 0.57401 0.05211 0.0
H1060 H 0.47551 0.58654 0.99766 0.0
H1061 H 0.52013 0.59692 0.02486 0.0
H1062 H 0.54352 0.5684 0.9674 0.0
H1063 H 0.49958 0.55939 0.93848 0.0
H1064 H 0.51293 0.527 0.95231 0.0
H1065 H 0.40764 0.44569 0.05416 0.0
H1066 H 0.35049 0.44752 0.02069 0.0
H1067 H 0.4226 0.54111 0.96418 0.0
C1068 C 0.54093 0.54785 0.06346 0.0
C1069 C 0.54726 0.53287 0.10023 0.0
C1070 C 0.5221 0.50003 0.10926 0.0
C1071 C 0.48923 0.4834 0.0843 0.0
C1072 C 0.48229 0.49978 0.05009 0.0
C1073 C 0.50792 0.53112 0.03908 0.0
C1074 C 0.49112 0.54541 0.00563 0.0
C1075 C 0.49045 0.57757 0.02105 0.0
C1076 C 0.51311 0.55035 0.96345 0.0
C1077 C 0.45098 0.51825 0.00198 0.0
C1078 C 0.44674 0.4918 0.02704 0.0
C1079 C 0.4109 0.46576 0.03337 0.0
C1080 C 0.37854 0.4671 0.01446 0.0
C1081 C 0.38221 0.49433 0.98956 0.0
C1082 C 0.41908 0.51964 0.9822 0.0
H1083 H 0.90397 0.50011 0.92389 0.0
H1084 H 0.91938 0.46212 0.04557 0.0
H1085 H 0.9691 0.44771 0.01358 0.0
H1086 H 0.90933 0.43915 0.86158 0.0
H1087 H 0.9344 0.4656 0.81811 0.0
H1088 H 0.90403 0.47638 0.8523 0.0
H1089 H 0.96131 0.53205 0.8684 0.0
H1090 H 0.992 0.52123 0.83445 0.0
H1091 H 0.00553 0.53288 0.88895 0.0
H1092 H 0.01048 0.43048 0.96518 0.0
H1093 H 0.03917 0.41254 0.90548 0.0
H1094 H 0.99836 0.46436 0.81714 0.0
C1095 C 0.91818 0.48927 0.94411 0.0
C1096 C 0.90768 0.48223 0.98726 0.0
C1097 C 0.92695 0.46782 0.01243 0.0
C1098 C 0.95533 0.45963 0.99456 0.0
C1099 C 0.96445 0.46638 0.95161 0.0
C1100 C 0.94659 0.48115 0.92689 0.0
C1101 C 0.95924 0.4837 0.88094 0.0
C1102 C 0.9247 0.46509 0.85153 0.0
C1103 C 0.98081 0.51961 0.86741 0.0
C1104 C 0.98609 0.46709 0.88323 0.0
C1105 C 0.98906 0.45744 0.92426 0.0
C1106 C 0.00908 0.4386 0.93313 0.0
C1107 C 0.02539 0.42859 0.89907 0.0
C1108 C 0.02152 0.43742 0.85671 0.0
C1109 C 0.00281 0.45791 0.84919 0.0
H1110 H 0.42962 0.88163 0.16197 0.0
H1111 H 0.31299 0.86763 0.18927 0.0
H1112 H 0.33016 0.88026 0.26514 0.0
H1113 H 0.44251 0.8429 0.24539 0.0
H1114 H 0.49208 0.86985 0.25603 0.0
H1115 H 0.47318 0.86739 0.20336 0.0
H1116 H 0.49377 0.92994 0.20332 0.0
H1117 H 0.51302 0.93266 0.25623 0.0
H1118 H 0.47787 0.94833 0.24553 0.0
H1119 H 0.35497 0.88017 0.33761 0.0
H1120 H 0.38689 0.87122 0.40128 0.0
H1121 H 0.48925 0.89005 0.32721 0.0
C1122 C 0.40807 0.88217 0.18384 0.0
C1123 C 0.37003 0.87349 0.17039 0.0
C1124 C 0.34235 0.87437 0.19936 0.0
C1125 C 0.35193 0.88167 0.2423 0.0
C1126 C 0.38952 0.889 0.25502 0.0
C1127 C 0.41741 0.89005 0.2264 0.0
C1128 C 0.45434 0.89487 0.24853 0.0
C1129 C 0.46616 0.8671 0.2377 0.0
C1130 C 0.48666 0.92846 0.23776 0.0
C1131 C 0.44188 0.89348 0.29433 0.0
C1132 C 0.4046 0.89073 0.29743 0.0
C1133 C 0.38459 0.8836 0.33584 0.0
C1134 C 0.40275 0.87832 0.37166 0.0
C1135 C 0.44051 0.88055 0.36867 0.0
C1136 C 0.46081 0.88939 0.33013 0.0
H1137 H 0.44101 0.42646 0.56041 0.0
H1138 H 0.48482 0.52397 0.61398 0.0
H1139 H 0.5337 0.54371 0.5572 0.0
H1140 H 0.52636 0.42642 0.55039 0.0
H1141 H 0.51893 0.40329 0.5018 0.0
H1142 H 0.4787 0.3977 0.5349 0.0
H1143 H 0.44363 0.41242 0.47415 0.0
H1144 H 0.48252 0.41525 0.43965 0.0
H1145 H 0.46944 0.44889 0.44348 0.0
H1146 H 0.58574 0.55037 0.50612 0.0
H1147 H 0.63775 0.54299 0.46832 0.0
H1148 H 0.56301 0.44022 0.45064 0.0
C1149 C 0.46011 0.45214 0.55958 0.0
C1150 C 0.45935 0.47352 0.59209 0.0
C1151 C 0.48473 0.50706 0.5895 0.0
C1152 C 0.51264 0.5185 0.55727 0.0
C1153 C 0.51445 0.4962 0.52755 0.0
C1154 C 0.48856 0.46367 0.52821 0.0
C1155 C 0.50103 0.44342 0.49857 0.0
C1156 C 0.50664 0.41617 0.52292 0.0
C1157 C 0.47242 0.42916 0.4618 0.0
C1158 C 0.53892 0.46933 0.48281 0.0
C1159 C 0.54553 0.49979 0.49879 0.0
C1160 C 0.58053 0.5268 0.49272 0.0
C1161 C 0.60999 0.52231 0.47134 0.0
C1162 C 0.60443 0.49097 0.4566 0.0
C1163 C 0.56792 0.46453 0.46096 0.0
H1164 H 0.01674 0.51802 0.40405 0.0
H1165 H 0.0194 0.59638 0.4858 0.0
H1166 H 0.05435 0.5805 0.54013 0.0
H1167 H 0.00924 0.45897 0.49391 0.0
H1168 H 0.03935 0.44417 0.46524 0.0
H1169 H 0.00783 0.45743 0.43663 0.0
H1170 H 0.06617 0.49794 0.3934 0.0
H1171 H 0.09783 0.48515 0.42203 0.0
H1172 H 0.10704 0.5277 0.42135 0.0
H1173 H 0.09682 0.56144 0.58086 0.0
H1174 H 0.14538 0.54224 0.60301 0.0
H1175 H 0.1152 0.47633 0.49482 0.0
C1176 C 0.02328 0.53106 0.43404 0.0
C1177 C 0.01562 0.55869 0.44038 0.0
C1178 C 0.02538 0.57542 0.47983 0.0
C1179 C 0.04511 0.56646 0.51107 0.0
C1180 C 0.05371 0.53998 0.50306 0.0
C1181 C 0.04265 0.5222 0.46573 0.0
C1182 C 0.05921 0.49724 0.4628 0.0
C1183 C 0.02699 0.46238 0.46477 0.0
C1184 C 0.08403 0.50234 0.42253 0.0
C1185 C 0.08341 0.50532 0.50281 0.0
C1186 C 0.0788 0.52925 0.52636 0.0
C1187 C 0.10021 0.54232 0.56306 0.0
C1188 C 0.12781 0.5313 0.57535 0.0
C1189 C 0.13421 0.50788 0.55056 0.0
C1190 C 0.1109 0.49417 0.51452 0.0
H1191 H 0.52731 0.20285 0.82641 0.0
H1192 H 0.50563 0.10415 0.86356 0.0
H1193 H 0.49526 0.08689 0.7883 0.0
H1194 H 0.45989 0.18147 0.7354 0.0
H1195 H 0.49253 0.21504 0.7038 0.0
H1196 H 0.49268 0.21858 0.76094 0.0
H1197 H 0.56562 0.23281 0.76222 0.0
H1198 H 0.56564 0.22934 0.70524 0.0
H1199 H 0.58259 0.2053 0.73765 0.0
H1200 H 0.49167 0.08123 0.70941 0.0
H1201 H 0.50049 0.08855 0.6317 0.0
H1202 H 0.5277 0.19156 0.64614 0.0
C1203 C 0.51957 0.17747 0.81871 0.0
C1204 C 0.51692 0.15472 0.85055 0.0
C1205 C 0.50772 0.1219 0.83941 0.0
C1206 C 0.50151 0.11183 0.79688 0.0
C1207 C 0.50483 0.13496 0.76608 0.0
C1208 C 0.51389 0.16715 0.77639 0.0
C1209 C 0.51981 0.18788 0.737 0.0
C1210 C 0.48941 0.20154 0.73412 0.0
C1211 C 0.56085 0.21544 0.73545 0.0
C1212 C 0.51372 0.16249 0.70299 0.0
C1213 C 0.50425 0.13198 0.72038 0.0
C1214 C 0.49873 0.10491 0.69533 0.0
C1215 C 0.50379 0.10931 0.65131 0.0
C1216 C 0.5149 0.14063 0.63314 0.0
C1217 C 0.51923 0.16735 0.65927 0.0
loop_
_geom_bond_atom_site_label_1
_geom_bond_atom_site_label_2
_geom_bond_distance
_geom_bond_site_symmetry_2
_ccdc_geom_bond_type
Co0 O3 1.970 1_554 S
Co0 N17 1.989 . S
Co0 O25 1.967 1_554 S
Co0 O32 1.920 . S
Co1 O4 1.966 . S
Co1 N10 2.022 . S
Co1 N18 1.993 1_556 S
Co1 O26 1.941 . S
C2 O3 1.258 . S
C2 O4 1.263 . S
O3 Co0 1.970 1_556 S
O3 C2 1.258 . S
O4 Co1 1.966 . S
O4 C2 1.263 . S
C5 O6 1.235 . S
C5 O32 1.289 . S
O6 C5 1.235 . S
C7 C9 1.400 1_556 S
C7 N10 1.351 . S
C7 C12 1.501 . S
C8 C9 1.387 . S
C8 N11 1.341 1_554 S
C9 C7 1.400 1_554 S
C9 C8 1.387 . S
N10 Co1 2.022 . S
N10 C7 1.351 . S
N10 N11 1.365 . S
N11 C8 1.341 1_556 S
N11 N10 1.365 . S
N11 H31 0.862 . S
C12 C7 1.501 . S
C12 H13 0.961 . S
C12 H14 0.961 1_556 S
C12 H15 0.960 . S
H13 C12 0.961 . S
H14 C12 0.961 1_554 S
H15 C12 0.960 . S
C16 N17 1.342 . S
C16 C20 1.401 . S
C16 C21 1.499 . S
N17 Co0 1.989 . S
N17 C16 1.342 . S
N17 N18 1.388 . S
N18 Co1 1.993 1_554 S
N18 N17 1.388 . S
N18 C19 1.346 . S
C19 N18 1.346 . S
C19 C20 1.396 . S
C19 C29 1.510 . S
C20 C16 1.401 . S
C20 C19 1.396 . S
C21 C16 1.499 . S
C21 H22 0.959 . S
C21 H23 0.960 . S
C21 H24 0.961 . S
H22 C21 0.959 . S
H23 C21 0.960 . S
H24 C21 0.961 . S
O25 Co0 1.967 1_556 S
O25 C33 1.258 . S
O26 Co1 1.941 . S
O26 C33 1.266 . S
H27 C29 0.959 . S
H28 C29 0.961 . S
C29 C19 1.510 . S
C29 H27 0.959 . S
C29 H28 0.961 . S
C29 H30 0.960 . S
H30 C29 0.960 . S
H31 N11 0.862 . S
O32 Co0 1.920 . S
O32 C5 1.289 . S
C33 O25 1.258 . S
C33 O26 1.266 . S
Co34 O37 1.970 . S
Co34 N51 1.989 . S
Co34 O59 1.967 1_655 S
Co34 O66 1.920 1_655 S
Co35 O38 1.966 . S
Co35 N44 2.022 . S
Co35 N52 1.993 . S
Co35 O60 1.941 1_655 S
C36 O37 1.258 . S
C36 O38 1.263 . S
O37 Co34 1.970 . S
O37 C36 1.258 . S
O38 Co35 1.966 . S
O38 C36 1.263 . S
C39 O40 1.235 . S
C39 O66 1.289 1_655 S
O40 C39 1.235 . S
C41 C43 1.400 . S
C41 N44 1.351 . S
C41 C46 1.501 . S
C42 C43 1.387 . S
C42 N45 1.341 . S
C43 C41 1.400 . S
C43 C42 1.387 . S
N44 Co35 2.022 . S
N44 C41 1.351 . S
N44 N45 1.365 . S
N45 C42 1.341 . S
N45 N44 1.365 . S
N45 H65 0.862 . S
C46 C41 1.501 . S
C46 H47 0.961 . S
C46 H48 0.961 . S
C46 H49 0.960 . S
H47 C46 0.961 . S
H48 C46 0.961 . S
H49 C46 0.960 . S
C50 N51 1.342 . S
C50 C54 1.401 . S
C50 C55 1.499 . S
N51 Co34 1.989 . S
N51 C50 1.342 . S
N51 N52 1.388 . S
N52 Co35 1.993 . S
N52 N51 1.388 . S
N52 C53 1.346 . S
C53 N52 1.346 . S
C53 C54 1.396 . S
C53 C63 1.510 . S
C54 C50 1.401 . S
C54 C53 1.396 . S
C55 C50 1.499 . S
C55 H56 0.959 . S
C55 H57 0.960 . S
C55 H58 0.961 . S
H56 C55 0.959 . S
H57 C55 0.960 . S
H58 C55 0.961 . S
O59 Co34 1.967 1_455 S
O59 C67 1.258 . S
O60 Co35 1.941 1_455 S
O60 C67 1.266 . S
H61 C63 0.959 . S
H62 C63 0.961 . S
C63 C53 1.510 . S
C63 H61 0.959 . S
C63 H62 0.961 . S
C63 H64 0.960 . S
H64 C63 0.960 . S
H65 N45 0.862 . S
O66 Co34 1.920 1_455 S
O66 C39 1.289 1_455 S
C67 O59 1.258 . S
C67 O60 1.266 . S
Co68 O71 1.970 . S
Co68 N85 1.989 . S
Co68 O93 1.967 1_554 S
Co68 O100 1.920 . S
Co69 O72 1.966 . S
Co69 N78 2.022 . S
Co69 N86 1.993 . S
Co69 O94 1.941 . S
C70 O71 1.258 . S
C70 O72 1.263 1_554 S
O71 Co68 1.970 . S
O71 C70 1.258 . S
O72 Co69 1.966 . S
O72 C70 1.263 1_556 S
C73 O74 1.235 . S
C73 O100 1.289 . S
O74 C73 1.235 . S
C75 C77 1.400 . S
C75 N78 1.351 . S
C75 C80 1.501 . S
C76 C77 1.387 . S
C76 N79 1.341 . S
C77 C75 1.400 . S
C77 C76 1.387 . S
N78 Co69 2.022 . S
N78 C75 1.351 . S
N78 N79 1.365 . S
N79 C76 1.341 . S
N79 N78 1.365 . S
N79 H99 0.862 . S
C80 C75 1.501 . S
C80 H81 0.961 . S
C80 H82 0.961 . S
C80 H83 0.960 . S
H81 C80 0.961 . S
H82 C80 0.961 . S
H83 C80 0.960 . S
C84 N85 1.342 . S
C84 C88 1.401 . S
C84 C89 1.499 . S
N85 Co68 1.989 . S
N85 C84 1.342 . S
N85 N86 1.388 1_554 S
N86 Co69 1.993 . S
N86 N85 1.388 1_556 S
N86 C87 1.346 . S
C87 N86 1.346 . S
C87 C88 1.396 1_556 S
C87 C97 1.510 . S
C88 C84 1.401 . S
C88 C87 1.396 1_554 S
C89 C84 1.499 . S
C89 H90 0.959 . S
C89 H91 0.960 . S
C89 H92 0.961 . S
H90 C89 0.959 . S
H91 C89 0.960 . S
H92 C89 0.961 . S
O93 Co68 1.967 1_556 S
O93 C101 1.258 . S
O94 Co69 1.941 . S
O94 C101 1.266 . S
H95 C97 0.959 . S
H96 C97 0.961 . S
C97 C87 1.510 . S
C97 H95 0.959 . S
C97 H96 0.961 . S
C97 H98 0.960 . S
H98 C97 0.960 . S
H99 N79 0.862 . S
O100 Co68 1.920 . S
O100 C73 1.289 . S
C101 O93 1.258 . S
C101 O94 1.266 . S
Co102 O105 1.970 . S
Co102 N119 1.989 . S
Co102 O127 1.967 . S
Co102 O134 1.920 . S
Co103 O106 1.966 . S
Co103 N112 2.022 . S
Co103 N120 1.993 . S
Co103 O128 1.941 . S
C104 O105 1.258 . S
C104 O106 1.263 . S
O105 Co102 1.970 . S
O105 C104 1.258 . S
O106 Co103 1.966 . S
O106 C104 1.263 . S
C107 O108 1.235 . S
C107 O134 1.289 . S
O108 C107 1.235 . S
C109 C111 1.400 . S
C109 N112 1.351 . S
C109 C114 1.501 . S
C110 C111 1.387 . S
C110 N113 1.341 . S
C111 C109 1.400 . S
C111 C110 1.387 . S
N112 Co103 2.022 . S
N112 C109 1.351 . S
N112 N113 1.365 . S
N113 C110 1.341 . S
N113 N112 1.365 . S
N113 H133 0.862 . S
C114 C109 1.501 . S
C114 H115 0.961 . S
C114 H116 0.961 . S
C114 H117 0.960 . S
H115 C114 0.961 . S
H116 C114 0.961 . S
H117 C114 0.960 . S
C118 N119 1.342 . S
C118 C122 1.401 . S
C118 C123 1.499 . S
N119 Co102 1.989 . S
N119 C118 1.342 . S
N119 N120 1.388 . S
N120 Co103 1.993 . S
N120 N119 1.388 . S
N120 C121 1.346 . S
C121 N120 1.346 . S
C121 C122 1.396 . S
C121 C131 1.510 . S
C122 C118 1.401 . S
C122 C121 1.396 . S
C123 C118 1.499 . S
C123 H124 0.959 . S
C123 H125 0.960 . S
C123 H126 0.961 . S
H124 C123 0.959 . S
H125 C123 0.960 . S
H126 C123 0.961 . S
O127 Co102 1.967 . S
O127 C135 1.258 . S
O128 Co103 1.941 . S
O128 C135 1.266 . S
H129 C131 0.959 . S
H130 C131 0.961 . S
C131 C121 1.510 . S
C131 H129 0.959 . S
C131 H130 0.961 . S
C131 H132 0.960 . S
H132 C131 0.960 . S
H133 N113 0.862 . S
O134 Co102 1.920 . S
O134 C107 1.289 . S
C135 O127 1.258 . S
C135 O128 1.266 . S
Co136 O139 1.970 . S
Co136 N153 1.989 . S
Co136 O161 1.967 1_455 S
Co136 O168 1.920 1_455 S
Co137 O140 1.966 . S
Co137 N146 2.022 . S
Co137 N154 1.993 . S
Co137 O162 1.941 1_455 S
C138 O139 1.258 . S
C138 O140 1.263 . S
O139 Co136 1.970 . S
O139 C138 1.258 . S
O140 Co137 1.966 . S
O140 C138 1.263 . S
C141 O142 1.235 . S
C141 O168 1.289 1_455 S
O142 C141 1.235 . S
C143 C145 1.400 . S
C143 N146 1.351 . S
C143 C148 1.501 . S
C144 C145 1.387 . S
C144 N147 1.341 . S
C145 C143 1.400 . S
C145 C144 1.387 . S
N146 Co137 2.022 . S
N146 C143 1.351 . S
N146 N147 1.365 . S
N147 C144 1.341 . S
N147 N146 1.365 . S
N147 H167 0.862 . S
C148 C143 1.501 . S
C148 H149 0.961 . S
C148 H150 0.961 . S
C148 H151 0.960 . S
H149 C148 0.961 . S
H150 C148 0.961 . S
H151 C148 0.960 . S
C152 N153 1.342 . S
C152 C156 1.401 . S
C152 C157 1.499 . S
N153 Co136 1.989 . S
N153 C152 1.342 . S
N153 N154 1.388 . S
N154 Co137 1.993 . S
N154 N153 1.388 . S
N154 C155 1.346 . S
C155 N154 1.346 . S
C155 C156 1.396 . S
C155 C165 1.510 . S
C156 C152 1.401 . S
C156 C155 1.396 . S
C157 C152 1.499 . S
C157 H158 0.959 . S
C157 H159 0.960 . S
C157 H160 0.961 . S
H158 C157 0.959 . S
H159 C157 0.960 . S
H160 C157 0.961 . S
O161 Co136 1.967 1_655 S
O161 C169 1.258 . S
O162 Co137 1.941 1_655 S
O162 C169 1.266 . S
H163 C165 0.959 . S
H164 C165 0.961 . S
C165 C155 1.510 . S
C165 H163 0.959 . S
C165 H164 0.961 . S
C165 H166 0.960 . S
H166 C165 0.960 . S
H167 N147 0.862 . S
O168 Co136 1.920 1_655 S
O168 C141 1.289 1_655 S
C169 O161 1.258 . S
C169 O162 1.266 . S
Co170 O173 1.970 . S
Co170 N187 1.989 . S
Co170 O195 1.967 . S
Co170 O202 1.920 . S
Co171 O174 1.966 . S
Co171 N180 2.022 . S
Co171 N188 1.993 . S
Co171 O196 1.941 . S
C172 O173 1.258 . S
C172 O174 1.263 . S
O173 Co170 1.970 . S
O173 C172 1.258 . S
O174 Co171 1.966 . S
O174 C172 1.263 . S
C175 O176 1.235 . S
C175 O202 1.289 . S
O176 C175 1.235 . S
C177 C179 1.400 . S
C177 N180 1.351 . S
C177 C182 1.501 . S
C178 C179 1.387 . S
C178 N181 1.341 . S
C179 C177 1.400 . S
C179 C178 1.387 . S
N180 Co171 2.022 . S
N180 C177 1.351 . S
N180 N181 1.365 . S
N181 C178 1.341 . S
N181 N180 1.365 . S
N181 H201 0.862 . S
C182 C177 1.501 . S
C182 H183 0.961 . S
C182 H184 0.961 . S
C182 H185 0.960 . S
H183 C182 0.961 . S
H184 C182 0.961 . S
H185 C182 0.960 . S
C186 N187 1.342 . S
C186 C190 1.401 . S
C186 C191 1.499 . S
N187 Co170 1.989 . S
N187 C186 1.342 . S
N187 N188 1.388 . S
N188 Co171 1.993 . S
N188 N187 1.388 . S
N188 C189 1.346 . S
C189 N188 1.346 . S
C189 C190 1.396 . S
C189 C199 1.510 . S
C190 C186 1.401 . S
C190 C189 1.396 . S
C191 C186 1.499 . S
C191 H192 0.959 . S
C191 H193 0.960 . S
C191 H194 0.961 . S
H192 C191 0.959 . S
H193 C191 0.960 . S
H194 C191 0.961 . S
O195 Co170 1.967 . S
O195 C203 1.258 . S
O196 Co171 1.941 . S
O196 C203 1.266 . S
H197 C199 0.959 . S
H198 C199 0.961 . S
C199 C189 1.510 . S
C199 H197 0.959 . S
C199 H198 0.961 . S
C199 H200 0.960 . S
H200 C199 0.960 . S
H201 N181 0.862 . S
O202 Co170 1.920 . S
O202 C175 1.289 . S
C203 O195 1.258 . S
C203 O196 1.266 . S
Co204 O207 1.970 . S
Co204 N221 1.989 . S
Co204 O229 1.967 . S
Co204 O236 1.920 . S
Co205 O208 1.966 . S
Co205 N214 2.022 . S
Co205 N222 1.993 . S
Co205 O230 1.941 . S
C206 O207 1.258 . S
C206 O208 1.263 . S
O207 Co204 1.970 . S
O207 C206 1.258 . S
O208 Co205 1.966 . S
O208 C206 1.263 . S
C209 O210 1.235 . S
C209 O236 1.289 . S
O210 C209 1.235 . S
C211 C213 1.400 . S
C211 N214 1.351 . S
C211 C216 1.501 . S
C212 C213 1.387 . S
C212 N215 1.341 . S
C213 C211 1.400 . S
C213 C212 1.387 . S
N214 Co205 2.022 . S
N214 C211 1.351 . S
N214 N215 1.365 . S
N215 C212 1.341 . S
N215 N214 1.365 . S
N215 H235 0.862 . S
C216 C211 1.501 . S
C216 H217 0.961 . S
C216 H218 0.961 . S
C216 H219 0.960 . S
H217 C216 0.961 . S
H218 C216 0.961 . S
H219 C216 0.960 . S
C220 N221 1.342 . S
C220 C224 1.401 . S
C220 C225 1.499 . S
N221 Co204 1.989 . S
N221 C220 1.342 . S
N221 N222 1.388 . S
N222 Co205 1.993 . S
N222 N221 1.388 . S
N222 C223 1.346 . S
C223 N222 1.346 . S
C223 C224 1.396 . S
C223 C233 1.510 . S
C224 C220 1.401 . S
C224 C223 1.396 . S
C225 C220 1.499 . S
C225 H226 0.959 . S
C225 H227 0.960 . S
C225 H228 0.961 . S
H226 C225 0.959 . S
H227 C225 0.960 . S
H228 C225 0.961 . S
O229 Co204 1.967 . S
O229 C237 1.258 . S
O230 Co205 1.941 . S
O230 C237 1.266 . S
H231 C233 0.959 . S
H232 C233 0.961 . S
C233 C223 1.510 . S
C233 H231 0.959 . S
C233 H232 0.961 . S
C233 H234 0.960 . S
H234 C233 0.960 . S
H235 N215 0.862 . S
O236 Co204 1.920 . S
O236 C209 1.289 . S
C237 O229 1.258 . S
C237 O230 1.266 . S
Co238 O241 1.970 1_556 S
Co238 N255 1.989 . S
Co238 O263 1.967 1_556 S
Co238 O270 1.920 . S
Co239 O242 1.966 . S
Co239 N248 2.022 . S
Co239 N256 1.993 1_554 S
Co239 O264 1.941 . S
C240 O241 1.258 . S
C240 O242 1.263 . S
O241 Co238 1.970 1_554 S
O241 C240 1.258 . S
O242 Co239 1.966 . S
O242 C240 1.263 . S
C243 O244 1.235 . S
C243 O270 1.289 . S
O244 C243 1.235 . S
C245 C247 1.400 1_554 S
C245 N248 1.351 . S
C245 C250 1.501 . S
C246 C247 1.387 . S
C246 N249 1.341 1_556 S
C247 C245 1.400 1_556 S
C247 C246 1.387 . S
N248 Co239 2.022 . S
N248 C245 1.351 . S
N248 N249 1.365 . S
N249 C246 1.341 1_554 S
N249 N248 1.365 . S
N249 H269 0.862 . S
C250 C245 1.501 . S
C250 H251 0.961 . S
C250 H252 0.961 1_554 S
C250 H253 0.960 . S
H251 C250 0.961 . S
H252 C250 0.961 1_556 S
H253 C250 0.960 . S
C254 N255 1.342 . S
C254 C258 1.401 . S
C254 C259 1.499 . S
N255 Co238 1.989 . S
N255 C254 1.342 . S
N255 N256 1.388 . S
N256 Co239 1.993 1_556 S
N256 N255 1.388 . S
N256 C257 1.346 . S
C257 N256 1.346 . S
C257 C258 1.396 . S
C257 C267 1.510 . S
C258 C254 1.401 . S
C258 C257 1.396 . S
C259 C254 1.499 . S
C259 H260 0.959 . S
C259 H261 0.960 . S
C259 H262 0.961 . S
H260 C259 0.959 . S
H261 C259 0.960 . S
H262 C259 0.961 . S
O263 Co238 1.967 1_554 S
O263 C271 1.258 . S
O264 Co239 1.941 . S
O264 C271 1.266 . S
H265 C267 0.959 . S
H266 C267 0.961 . S
C267 C257 1.510 . S
C267 H265 0.959 . S
C267 H266 0.961 . S
C267 H268 0.960 . S
H268 C267 0.960 . S
H269 N249 0.862 . S
O270 Co238 1.920 . S
O270 C243 1.289 . S
C271 O263 1.258 . S
C271 O264 1.266 . S
Co272 O275 1.970 . S
Co272 N289 1.989 . S
Co272 O297 1.967 . S
Co272 O304 1.920 . S
Co273 O276 1.966 . S
Co273 N282 2.022 . S
Co273 N290 1.993 . S
Co273 O298 1.941 . S
C274 O275 1.258 . S
C274 O276 1.263 . S
O275 Co272 1.970 . S
O275 C274 1.258 . S
O276 Co273 1.966 . S
O276 C274 1.263 . S
C277 O278 1.235 . S
C277 O304 1.289 . S
O278 C277 1.235 . S
C279 C281 1.400 . S
C279 N282 1.351 . S
C279 C284 1.501 . S
C280 C281 1.387 . S
C280 N283 1.341 . S
C281 C279 1.400 . S
C281 C280 1.387 . S
N282 Co273 2.022 . S
N282 C279 1.351 . S
N282 N283 1.365 . S
N283 C280 1.341 . S
N283 N282 1.365 . S
N283 H303 0.862 . S
C284 C279 1.501 . S
C284 H285 0.961 . S
C284 H286 0.961 . S
C284 H287 0.960 . S
H285 C284 0.961 . S
H286 C284 0.961 . S
H287 C284 0.960 . S
C288 N289 1.342 . S
C288 C292 1.401 . S
C288 C293 1.499 . S
N289 Co272 1.989 . S
N289 C288 1.342 . S
N289 N290 1.388 . S
N290 Co273 1.993 . S
N290 N289 1.388 . S
N290 C291 1.346 . S
C291 N290 1.346 . S
C291 C292 1.396 . S
C291 C301 1.510 . S
C292 C288 1.401 . S
C292 C291 1.396 . S
C293 C288 1.499 . S
C293 H294 0.959 . S
C293 H295 0.960 . S
C293 H296 0.961 . S
H294 C293 0.959 . S
H295 C293 0.960 . S
H296 C293 0.961 . S
O297 Co272 1.967 . S
O297 C305 1.258 . S
O298 Co273 1.941 . S
O298 C305 1.266 . S
H299 C301 0.959 . S
H300 C301 0.961 . S
C301 C291 1.510 . S
C301 H299 0.959 . S
C301 H300 0.961 . S
C301 H302 0.960 . S
H302 C301 0.960 . S
H303 N283 0.862 . S
O304 Co272 1.920 . S
O304 C277 1.289 . S
C305 O297 1.258 . S
C305 O298 1.266 . S
Co306 O309 1.970 . S
Co306 N323 1.989 . S
Co306 O331 1.967 . S
Co306 O338 1.920 . S
Co307 O310 1.966 . S
Co307 N316 2.022 . S
Co307 N324 1.993 . S
Co307 O332 1.941 . S
C308 O309 1.258 . S
C308 O310 1.263 . S
O309 Co306 1.970 . S
O309 C308 1.258 . S
O310 Co307 1.966 . S
O310 C308 1.263 . S
C311 O312 1.235 . S
C311 O338 1.289 . S
O312 C311 1.235 . S
C313 C315 1.400 . S
C313 N316 1.351 . S
C313 C318 1.501 . S
C314 C315 1.387 . S
C314 N317 1.341 . S
C315 C313 1.400 . S
C315 C314 1.387 . S
N316 Co307 2.022 . S
N316 C313 1.351 . S
N316 N317 1.365 . S
N317 C314 1.341 . S
N317 N316 1.365 . S
N317 H337 0.862 . S
C318 C313 1.501 . S
C318 H319 0.961 . S
C318 H320 0.961 . S
C318 H321 0.960 . S
H319 C318 0.961 . S
H320 C318 0.961 . S
H321 C318 0.960 . S
C322 N323 1.342 . S
C322 C326 1.401 . S
C322 C327 1.499 . S
N323 Co306 1.989 . S
N323 C322 1.342 . S
N323 N324 1.388 . S
N324 Co307 1.993 . S
N324 N323 1.388 . S
N324 C325 1.346 . S
C325 N324 1.346 . S
C325 C326 1.396 . S
C325 C335 1.510 . S
C326 C322 1.401 . S
C326 C325 1.396 . S
C327 C322 1.499 . S
C327 H328 0.959 . S
C327 H329 0.960 . S
C327 H330 0.961 . S
H328 C327 0.959 . S
H329 C327 0.960 . S
H330 C327 0.961 . S
O331 Co306 1.967 . S
O331 C339 1.258 . S
O332 Co307 1.941 . S
O332 C339 1.266 . S
H333 C335 0.959 . S
H334 C335 0.961 . S
C335 C325 1.510 . S
C335 H333 0.959 . S
C335 H334 0.961 . S
C335 H336 0.960 . S
H336 C335 0.960 . S
H337 N317 0.862 . S
O338 Co306 1.920 . S
O338 C311 1.289 . S
C339 O331 1.258 . S
C339 O332 1.266 . S
Co340 O343 1.970 . S
Co340 N357 1.989 . S
Co340 O365 1.967 . S
Co340 O372 1.920 . S
Co341 O344 1.966 . S
Co341 N350 2.022 . S
Co341 N358 1.993 . S
Co341 O366 1.941 . S
C342 O343 1.258 . S
C342 O344 1.263 . S
O343 Co340 1.970 . S
O343 C342 1.258 . S
O344 Co341 1.966 . S
O344 C342 1.263 . S
C345 O346 1.235 . S
C345 O372 1.289 . S
O346 C345 1.235 . S
C347 C349 1.400 . S
C347 N350 1.351 . S
C347 C352 1.501 . S
C348 C349 1.387 . S
C348 N351 1.341 . S
C349 C347 1.400 . S
C349 C348 1.387 . S
N350 Co341 2.022 . S
N350 C347 1.351 . S
N350 N351 1.365 . S
N351 C348 1.341 . S
N351 N350 1.365 . S
N351 H371 0.862 . S
C352 C347 1.501 . S
C352 H353 0.961 . S
C352 H354 0.961 . S
C352 H355 0.960 . S
H353 C352 0.961 . S
H354 C352 0.961 . S
H355 C352 0.960 . S
C356 N357 1.342 . S
C356 C360 1.401 . S
C356 C361 1.499 . S
N357 Co340 1.989 . S
N357 C356 1.342 . S
N357 N358 1.388 . S
N358 Co341 1.993 . S
N358 N357 1.388 . S
N358 C359 1.346 . S
C359 N358 1.346 . S
C359 C360 1.396 . S
C359 C369 1.510 . S
C360 C356 1.401 . S
C360 C359 1.396 . S
C361 C356 1.499 . S
C361 H362 0.959 . S
C361 H363 0.960 . S
C361 H364 0.961 . S
H362 C361 0.959 . S
H363 C361 0.960 . S
H364 C361 0.961 . S
O365 Co340 1.967 . S
O365 C373 1.258 . S
O366 Co341 1.941 . S
O366 C373 1.266 . S
H367 C369 0.959 . S
H368 C369 0.961 . S
C369 C359 1.510 . S
C369 H367 0.959 . S
C369 H368 0.961 . S
C369 H370 0.960 . S
H370 C369 0.960 . S
H371 N351 0.862 . S
O372 Co340 1.920 . S
O372 C345 1.289 . S
C373 O365 1.258 . S
C373 O366 1.266 . S
Co374 O377 1.970 . S
Co374 N391 1.989 . S
Co374 O399 1.967 1_556 S
Co374 O406 1.920 . S
Co375 O378 1.966 . S
Co375 N384 2.022 . S
Co375 N392 1.993 . S
Co375 O400 1.941 . S
C376 O377 1.258 . S
C376 O378 1.263 1_556 S
O377 Co374 1.970 . S
O377 C376 1.258 . S
O378 Co375 1.966 . S
O378 C376 1.263 1_554 S
C379 O380 1.235 . S
C379 O406 1.289 . S
O380 C379 1.235 . S
C381 C383 1.400 . S
C381 N384 1.351 . S
C381 C386 1.501 . S
C382 C383 1.387 . S
C382 N385 1.341 . S
C383 C381 1.400 . S
C383 C382 1.387 . S
N384 Co375 2.022 . S
N384 C381 1.351 . S
N384 N385 1.365 . S
N385 C382 1.341 . S
N385 N384 1.365 . S
N385 H405 0.862 . S
C386 C381 1.501 . S
C386 H387 0.961 . S
C386 H388 0.961 . S
C386 H389 0.960 . S
H387 C386 0.961 . S
H388 C386 0.961 . S
H389 C386 0.960 . S
C390 N391 1.342 . S
C390 C394 1.401 . S
C390 C395 1.499 . S
N391 Co374 1.989 . S
N391 C390 1.342 . S
N391 N392 1.388 1_556 S
N392 Co375 1.993 . S
N392 N391 1.388 1_554 S
N392 C393 1.346 . S
C393 N392 1.346 . S
C393 C394 1.396 1_554 S
C393 C403 1.510 . S
C394 C390 1.401 . S
C394 C393 1.396 1_556 S
C395 C390 1.499 . S
C395 H396 0.959 . S
C395 H397 0.960 . S
C395 H398 0.961 . S
H396 C395 0.959 . S
H397 C395 0.960 . S
H398 C395 0.961 . S
O399 Co374 1.967 1_554 S
O399 C407 1.258 . S
O400 Co375 1.941 . S
O400 C407 1.266 . S
H401 C403 0.959 . S
H402 C403 0.961 . S
C403 C393 1.510 . S
C403 H401 0.959 . S
C403 H402 0.961 . S
C403 H404 0.960 . S
H404 C403 0.960 . S
H405 N385 0.862 . S
O406 Co374 1.920 . S
O406 C379 1.289 . S
C407 O399 1.258 . S
C407 O400 1.266 . S
H408 C420 0.930 . S
H409 C422 0.930 . S
H410 C423 0.930 . S
H411 C427 0.959 . S
H412 C427 0.959 . S
H413 C427 0.961 . S
H414 C428 0.960 . S
H415 C428 0.961 . S
H416 C428 0.959 . S
H417 C431 0.929 . S
H418 C432 0.931 . S
H419 C434 0.930 . S
C420 H408 0.930 . S
C420 C421 1.399 . S
C420 C425 1.399 . S
C421 C420 1.399 . S
C421 C422 1.376 . S
C422 H409 0.930 . S
C422 C421 1.376 . S
C422 C423 1.388 . S
C423 H410 0.930 . S
C423 C422 1.388 . S
C423 C424 1.390 . S
C424 C423 1.390 . S
C424 C425 1.394 . S
C424 C430 1.465 . S
C425 C420 1.399 . S
C425 C424 1.394 . S
C425 C426 1.516 . S
C426 C425 1.516 . S
C426 C427 1.502 . S
C426 C428 1.561 . S
C426 C429 1.526 . S
C427 H411 0.959 . S
C427 H412 0.959 . S
C427 H413 0.961 . S
C427 C426 1.502 . S
C428 H414 0.960 . S
C428 H415 0.961 . S
C428 H416 0.959 . S
C428 C426 1.561 . S
C429 C426 1.526 . S
C429 C430 1.396 . S
C429 C434 1.390 . S
C430 C424 1.465 . S
C430 C429 1.396 . S
C430 C431 1.399 . S
C431 H417 0.929 . S
C431 C430 1.399 . S
C431 C432 1.385 . S
C432 H418 0.931 . S
C432 C431 1.385 . S
C432 C433 1.389 . S
C433 C432 1.389 . S
C433 C434 1.387 . S
C434 H419 0.930 . S
C434 C429 1.390 . S
C434 C433 1.387 . S
H435 C447 0.930 . S
H436 C449 0.930 . S
H437 C450 0.930 . S
H438 C454 0.959 . S
H439 C454 0.959 . S
H440 C454 0.961 . S
H441 C455 0.960 . S
H442 C455 0.961 . S
H443 C455 0.959 . S
H444 C458 0.929 . S
H445 C459 0.931 . S
H446 C461 0.930 . S
C447 H435 0.930 . S
C447 C448 1.399 . S
C447 C452 1.399 . S
C448 C447 1.399 . S
C448 C449 1.376 . S
C449 H436 0.930 . S
C449 C448 1.376 . S
C449 C450 1.388 . S
C450 H437 0.930 . S
C450 C449 1.388 . S
C450 C451 1.390 . S
C451 C450 1.390 . S
C451 C452 1.394 . S
C451 C457 1.465 . S
C452 C447 1.399 . S
C452 C451 1.394 . S
C452 C453 1.516 . S
C453 C452 1.516 . S
C453 C454 1.502 . S
C453 C455 1.561 . S
C453 C456 1.526 . S
C454 H438 0.959 . S
C454 H439 0.959 . S
C454 H440 0.961 . S
C454 C453 1.502 . S
C455 H441 0.960 . S
C455 H442 0.961 . S
C455 H443 0.959 . S
C455 C453 1.561 . S
C456 C453 1.526 . S
C456 C457 1.396 . S
C456 C461 1.390 . S
C457 C451 1.465 . S
C457 C456 1.396 . S
C457 C458 1.399 . S
C458 H444 0.929 . S
C458 C457 1.399 . S
C458 C459 1.385 . S
C459 H445 0.931 . S
C459 C458 1.385 . S
C459 C460 1.389 . S
C460 C459 1.389 . S
C460 C461 1.387 . S
C461 H446 0.930 . S
C461 C456 1.390 . S
C461 C460 1.387 . S
H462 C474 0.930 . S
H463 C476 0.930 . S
H464 C477 0.930 . S
H465 C481 0.970 . S
H466 C481 0.959 . S
H467 C481 0.961 . S
H468 C482 0.960 . S
H469 C482 0.961 . S
H470 C482 0.959 . S
H471 C485 0.929 . S
H472 C486 0.931 . S
H473 C488 0.930 . S
C474 H462 0.930 . S
C474 C475 1.399 . S
C474 C479 1.399 . S
C475 C474 1.399 . S
C475 C476 1.376 . S
C476 H463 0.930 . S
C476 C475 1.376 . S
C476 C477 1.388 . S
C477 H464 0.930 . S
C477 C476 1.388 . S
C477 C478 1.390 . S
C478 C477 1.390 . S
C478 C479 1.394 . S
C478 C484 1.464 1_544 S
C479 C474 1.399 . S
C479 C478 1.394 . S
C479 C480 1.516 1_554 S
C480 C479 1.516 1_556 S
C480 C481 1.502 . S
C480 C482 1.561 . S
C480 C483 1.526 1_545 S
C481 H465 0.970 . S
C481 H466 0.959 . S
C481 H467 0.961 . S
C481 C480 1.502 . S
C482 H468 0.960 . S
C482 H469 0.961 . S
C482 H470 0.959 . S
C482 C480 1.561 . S
C483 C480 1.526 1_565 S
C483 C484 1.398 . S
C483 C488 1.390 . S
C484 C478 1.464 1_566 S
C484 C483 1.398 . S
C484 C485 1.398 1_556 S
C485 H471 0.929 . S
C485 C484 1.398 1_554 S
C485 C486 1.385 1_554 S
C486 H472 0.931 . S
C486 C485 1.385 1_556 S
C486 C487 1.389 . S
C487 C486 1.389 . S
C487 C488 1.387 . S
C488 H473 0.930 . S
C488 C483 1.390 . S
C488 C487 1.387 . S
H489 C501 0.930 . S
H490 C503 0.930 . S
H491 C504 0.930 . S
H492 C508 0.959 . S
H493 C508 0.959 . S
H494 C508 0.961 . S
H495 C509 0.960 . S
H496 C509 0.961 . S
H497 C509 0.959 . S
H498 C512 0.929 . S
H499 C513 0.931 . S
H500 C515 0.930 . S
C501 H489 0.930 . S
C501 C502 1.399 . S
C501 C506 1.399 . S
C502 C501 1.399 . S
C502 C503 1.376 . S
C503 H490 0.930 . S
C503 C502 1.376 . S
C503 C504 1.388 . S
C504 H491 0.930 . S
C504 C503 1.388 . S
C504 C505 1.390 . S
C505 C504 1.390 . S
C505 C506 1.394 . S
C505 C511 1.465 . S
C506 C501 1.399 . S
C506 C505 1.394 . S
C506 C507 1.516 . S
C507 C506 1.516 . S
C507 C508 1.502 . S
C507 C509 1.561 . S
C507 C510 1.526 . S
C508 H492 0.959 . S
C508 H493 0.959 . S
C508 H494 0.961 . S
C508 C507 1.502 . S
C509 H495 0.960 . S
C509 H496 0.961 . S
C509 H497 0.959 . S
C509 C507 1.561 . S
C510 C507 1.526 . S
C510 C511 1.396 . S
C510 C515 1.390 . S
C511 C505 1.465 . S
C511 C510 1.396 . S
C511 C512 1.399 . S
C512 H498 0.929 . S
C512 C511 1.399 . S
C512 C513 1.385 . S
C513 H499 0.931 . S
C513 C512 1.385 . S
C513 C514 1.389 . S
C514 C513 1.389 . S
C514 C515 1.387 . S
C515 H500 0.930 . S
C515 C510 1.390 . S
C515 C514 1.387 . S
H516 C528 0.930 . S
H517 C530 0.930 . S
H518 C531 0.930 . S
H519 C535 0.959 . S
H520 C535 0.959 . S
H521 C535 0.961 . S
H522 C536 0.960 . S
H523 C536 0.961 . S
H524 C536 0.959 . S
H525 C539 0.929 . S
H526 C540 0.931 . S
H527 C542 0.930 . S
C528 H516 0.930 . S
C528 C529 1.399 . S
C528 C533 1.399 . S
C529 C528 1.399 . S
C529 C530 1.376 . S
C530 H517 0.930 . S
C530 C529 1.376 . S
C530 C531 1.388 . S
C531 H518 0.930 . S
C531 C530 1.388 . S
C531 C532 1.390 . S
C532 C531 1.390 . S
C532 C533 1.394 . S
C532 C538 1.465 . S
C533 C528 1.399 . S
C533 C532 1.394 . S
C533 C534 1.516 . S
C534 C533 1.516 . S
C534 C535 1.502 . S
C534 C536 1.561 . S
C534 C537 1.526 . S
C535 H519 0.959 . S
C535 H520 0.959 . S
C535 H521 0.961 . S
C535 C534 1.502 . S
C536 H522 0.960 . S
C536 H523 0.961 . S
C536 H524 0.959 . S
C536 C534 1.561 . S
C537 C534 1.526 . S
C537 C538 1.396 . S
C537 C542 1.390 . S
C538 C532 1.465 . S
C538 C537 1.396 . S
C538 C539 1.399 . S
C539 H525 0.929 . S
C539 C538 1.399 . S
C539 C540 1.385 . S
C540 H526 0.931 . S
C540 C539 1.385 . S
C540 C541 1.389 . S
C541 C540 1.389 . S
C541 C542 1.387 . S
C542 H527 0.930 . S
C542 C537 1.390 . S
C542 C541 1.387 . S
H543 C555 0.930 . S
H544 C557 0.930 . S
H545 C558 0.930 . S
H546 C562 0.959 . S
H547 C562 0.959 . S
H548 C562 0.961 . S
H549 C563 0.960 . S
H550 C563 0.961 . S
H551 C563 0.959 . S
H552 C566 0.929 1_565 S
H553 C567 0.931 . S
H554 C569 0.930 . S
C555 H543 0.930 . S
C555 C556 1.399 . S
C555 C560 1.399 . S
C556 C555 1.399 . S
C556 C557 1.376 . S
C557 H544 0.930 . S
C557 C556 1.376 . S
C557 C558 1.388 . S
C558 H545 0.930 . S
C558 C557 1.388 . S
C558 C559 1.390 . S
C559 C558 1.390 . S
C559 C560 1.394 . S
C559 C565 1.465 1_565 S
C560 C555 1.399 . S
C560 C559 1.394 . S
C560 C561 1.516 1_565 S
C561 C560 1.516 1_545 S
C561 C562 1.502 . S
C561 C563 1.561 . S
C561 C564 1.526 . S
C562 H546 0.959 . S
C562 H547 0.959 . S
C562 H548 0.961 . S
C562 C561 1.502 . S
C563 H549 0.960 . S
C563 H550 0.961 . S
C563 H551 0.959 . S
C563 C561 1.561 . S
C564 C561 1.526 . S
C564 C565 1.396 . S
C564 C569 1.390 . S
C565 C559 1.465 1_545 S
C565 C564 1.396 . S
C565 C566 1.399 . S
C566 H552 0.929 1_545 S
C566 C565 1.399 . S
C566 C567 1.385 . S
C567 H553 0.931 . S
C567 C566 1.385 . S
C567 C568 1.389 . S
C568 C567 1.389 . S
C568 C569 1.387 . S
C569 H554 0.930 . S
C569 C564 1.390 . S
C569 C568 1.387 . S
H570 C582 0.930 . S
H571 C584 0.930 . S
H572 C585 0.930 . S
H573 C589 0.959 . S
H574 C589 0.959 . S
H575 C589 0.961 . S
H576 C590 0.960 . S
H577 C590 0.961 . S
H578 C590 0.959 . S
H579 C593 0.929 . S
H580 C594 0.931 . S
H581 C596 0.930 . S
C582 H570 0.930 . S
C582 C583 1.399 . S
C582 C587 1.399 . S
C583 C582 1.399 . S
C583 C584 1.376 . S
C584 H571 0.930 . S
C584 C583 1.376 . S
C584 C585 1.388 . S
C585 H572 0.930 . S
C585 C584 1.388 . S
C585 C586 1.390 . S
C586 C585 1.390 . S
C586 C587 1.394 . S
C586 C592 1.465 . S
C587 C582 1.399 . S
C587 C586 1.394 . S
C587 C588 1.516 . S
C588 C587 1.516 . S
C588 C589 1.502 . S
C588 C590 1.561 . S
C588 C591 1.526 . S
C589 H573 0.959 . S
C589 H574 0.959 . S
C589 H575 0.961 . S
C589 C588 1.502 . S
C590 H576 0.960 . S
C590 H577 0.961 . S
C590 H578 0.959 . S
C590 C588 1.561 . S
C591 C588 1.526 . S
C591 C592 1.396 . S
C591 C596 1.390 . S
C592 C586 1.465 . S
C592 C591 1.396 . S
C592 C593 1.399 . S
C593 H579 0.929 . S
C593 C592 1.399 . S
C593 C594 1.385 . S
C594 H580 0.931 . S
C594 C593 1.385 . S
C594 C595 1.389 . S
C595 C594 1.389 . S
C595 C596 1.387 . S
C596 H581 0.930 . S
C596 C591 1.390 . S
C596 C595 1.387 . S
H597 C609 0.930 . S
H598 C611 0.930 . S
H599 C612 0.930 . S
H600 C616 0.959 . S
H601 C616 0.959 . S
H602 C616 0.961 . S
H603 C617 0.960 . S
H604 C617 0.961 . S
H605 C617 0.959 . S
H606 C620 0.929 . S
H607 C621 0.931 . S
H608 C623 0.930 . S
C609 H597 0.930 . S
C609 C610 1.399 . S
C609 C614 1.399 . S
C610 C609 1.399 . S
C610 C611 1.376 . S
C611 H598 0.930 . S
C611 C610 1.376 . S
C611 C612 1.388 . S
C612 H599 0.930 . S
C612 C611 1.388 . S
C612 C613 1.390 . S
C613 C612 1.390 . S
C613 C614 1.394 . S
C613 C619 1.465 . S
C614 C609 1.399 . S
C614 C613 1.394 . S
C614 C615 1.516 . S
C615 C614 1.516 . S
C615 C616 1.502 . S
C615 C617 1.561 . S
C615 C618 1.526 . S
C616 H600 0.959 . S
C616 H601 0.959 . S
C616 H602 0.961 . S
C616 C615 1.502 . S
C617 H603 0.960 . S
C617 H604 0.961 . S
C617 H605 0.959 . S
C617 C615 1.561 . S
C618 C615 1.526 . S
C618 C619 1.396 . S
C618 C623 1.390 . S
C619 C613 1.465 . S
C619 C618 1.396 . S
C619 C620 1.399 . S
C620 H606 0.929 . S
C620 C619 1.399 . S
C620 C621 1.385 . S
C621 H607 0.931 . S
C621 C620 1.385 . S
C621 C622 1.389 . S
C622 C621 1.389 . S
C622 C623 1.387 . S
C623 H608 0.930 . S
C623 C618 1.390 . S
C623 C622 1.387 . S
H624 C636 0.930 . S
H625 C638 0.930 . S
H626 C639 0.930 . S
H627 C643 0.959 . S
H628 C643 0.959 . S
H629 C643 0.961 . S
H630 C644 0.960 . S
H631 C644 0.961 . S
H632 C644 0.959 . S
H633 C647 0.929 . S
H634 C648 0.931 1_554 S
H635 C650 0.930 . S
C636 H624 0.930 . S
C636 C637 1.399 . S
C636 C641 1.399 . S
C637 C636 1.399 . S
C637 C638 1.376 . S
C638 H625 0.930 . S
C638 C637 1.376 . S
C638 C639 1.388 . S
C639 H626 0.930 . S
C639 C638 1.388 . S
C639 C640 1.390 . S
C640 C639 1.390 . S
C640 C641 1.394 . S
C640 C646 1.465 . S
C641 C636 1.399 . S
C641 C640 1.394 . S
C641 C642 1.516 . S
C642 C641 1.516 . S
C642 C643 1.502 . S
C642 C644 1.561 . S
C642 C645 1.526 . S
C643 H627 0.959 . S
C643 H628 0.959 . S
C643 H629 0.961 . S
C643 C642 1.502 . S
C644 H630 0.960 . S
C644 H631 0.961 . S
C644 H632 0.959 . S
C644 C642 1.561 . S
C645 C642 1.526 . S
C645 C646 1.396 . S
C645 C650 1.390 . S
C646 C640 1.465 . S
C646 C645 1.396 . S
C646 C647 1.399 . S
C647 H633 0.929 . S
C647 C646 1.399 . S
C647 C648 1.385 . S
C648 H634 0.931 1_556 S
C648 C647 1.385 . S
C648 C649 1.389 . S
C649 C648 1.389 . S
C649 C650 1.387 . S
C650 H635 0.930 . S
C650 C645 1.390 . S
C650 C649 1.387 . S
H651 C663 0.930 . S
H652 C665 0.930 . S
H653 C666 0.930 1_455 S
H654 C670 0.959 . S
H655 C670 0.959 . S
H656 C670 0.961 . S
H657 C671 0.960 . S
H658 C671 0.961 . S
H659 C671 0.959 . S
H660 C674 0.929 1_455 S
H661 C675 0.919 1_455 S
H662 C677 0.930 . S
C663 H651 0.930 . S
C663 C664 1.399 . S
C663 C668 1.399 . S
C664 C663 1.399 . S
C664 C665 1.376 . S
C665 H652 0.930 . S
C665 C664 1.376 . S
C665 C666 1.388 . S
C666 H653 0.930 1_655 S
C666 C665 1.388 . S
C666 C667 1.390 . S
C667 C666 1.390 . S
C667 C668 1.394 . S
C667 C673 1.465 . S
C668 C663 1.399 . S
C668 C667 1.394 . S
C668 C669 1.516 . S
C669 C668 1.516 . S
C669 C670 1.502 . S
C669 C671 1.561 . S
C669 C672 1.526 . S
C670 H654 0.959 . S
C670 H655 0.959 . S
C670 H656 0.961 . S
C670 C669 1.502 . S
C671 H657 0.960 . S
C671 H658 0.961 . S
C671 H659 0.959 . S
C671 C669 1.561 . S
C672 C669 1.526 . S
C672 C673 1.396 . S
C672 C677 1.390 . S
C673 C667 1.465 . S
C673 C672 1.396 . S
C673 C674 1.399 . S
C674 H660 0.929 1_655 S
C674 C673 1.399 . S
C674 C675 1.385 . S
C675 H661 0.919 1_655 S
C675 C674 1.385 . S
C675 C676 1.389 . S
C676 C675 1.389 . S
C676 C677 1.387 . S
C677 H662 0.930 . S
C677 C672 1.390 . S
C677 C676 1.387 . S
H678 C690 0.930 1_556 S
H679 C692 0.930 . S
H680 C693 0.930 . S
H681 C697 0.959 1_556 S
H682 C697 0.959 . S
H683 C697 0.961 1_556 S
H684 C698 0.960 . S
H685 C698 0.961 . S
H686 C698 0.959 . S
H687 C701 0.929 . S
H688 C702 0.931 . S
H689 C704 0.930 . S
C690 H678 0.930 1_554 S
C690 C691 1.399 . S
C690 C695 1.399 . S
C691 C690 1.399 . S
C691 C692 1.376 . S
C692 H679 0.930 . S
C692 C691 1.376 . S
C692 C693 1.388 . S
C693 H680 0.930 . S
C693 C692 1.388 . S
C693 C694 1.390 . S
C694 C693 1.390 . S
C694 C695 1.394 . S
C694 C700 1.465 . S
C695 C690 1.399 . S
C695 C694 1.394 . S
C695 C696 1.516 . S
C696 C695 1.516 . S
C696 C697 1.502 . S
C696 C698 1.561 . S
C696 C699 1.526 . S
C697 H681 0.959 1_554 S
C697 H682 0.959 . S
C697 H683 0.961 1_554 S
C697 C696 1.502 . S
C698 H684 0.960 . S
C698 H685 0.961 . S
C698 H686 0.959 . S
C698 C696 1.561 . S
C699 C696 1.526 . S
C699 C700 1.396 . S
C699 C704 1.390 . S
C700 C694 1.465 . S
C700 C699 1.396 . S
C700 C701 1.399 . S
C701 H687 0.929 . S
C701 C700 1.399 . S
C701 C702 1.385 . S
C702 H688 0.931 . S
C702 C701 1.385 . S
C702 C703 1.389 . S
C703 C702 1.389 . S
C703 C704 1.387 . S
C704 H689 0.930 . S
C704 C699 1.390 . S
C704 C703 1.387 . S
H705 C717 0.930 . S
H706 C719 0.930 . S
H707 C720 0.930 . S
H708 C724 0.959 . S
H709 C724 0.959 . S
H710 C724 0.961 . S
H711 C725 0.960 . S
H712 C725 0.961 . S
H713 C725 0.959 . S
H714 C728 0.929 . S
H715 C729 0.931 . S
H716 C731 0.930 . S
C717 H705 0.930 . S
C717 C718 1.399 . S
C717 C722 1.399 . S
C718 C717 1.399 . S
C718 C719 1.376 . S
C719 H706 0.930 . S
C719 C718 1.376 . S
C719 C720 1.388 . S
C720 H707 0.930 . S
C720 C719 1.388 . S
C720 C721 1.390 . S
C721 C720 1.390 . S
C721 C722 1.394 . S
C721 C727 1.465 . S
C722 C717 1.399 . S
C722 C721 1.394 . S
C722 C723 1.516 . S
C723 C722 1.516 . S
C723 C724 1.502 . S
C723 C725 1.561 . S
C723 C726 1.526 . S
C724 H708 0.959 . S
C724 H709 0.959 . S
C724 H710 0.961 . S
C724 C723 1.502 . S
C725 H711 0.960 . S
C725 H712 0.961 . S
C725 H713 0.959 . S
C725 C723 1.561 . S
C726 C723 1.526 . S
C726 C727 1.396 . S
C726 C731 1.390 . S
C727 C721 1.465 . S
C727 C726 1.396 . S
C727 C728 1.399 . S
C728 H714 0.929 . S
C728 C727 1.399 . S
C728 C729 1.385 . S
C729 H715 0.931 . S
C729 C728 1.385 . S
C729 C730 1.389 . S
C730 C729 1.389 . S
C730 C731 1.387 . S
C731 H716 0.930 . S
C731 C726 1.390 . S
C731 C730 1.387 . S
H732 C744 0.930 . S
H733 C746 0.930 . S
H734 C747 0.930 . S
H735 C751 0.959 . S
H736 C751 0.959 . S
H737 C751 0.961 . S
H738 C752 0.960 . S
H739 C752 0.961 . S
H740 C752 0.959 . S
H741 C755 0.929 . S
H742 C756 0.931 . S
H743 C758 0.930 . S
C744 H732 0.930 . S
C744 C745 1.399 . S
C744 C749 1.399 . S
C745 C744 1.399 . S
C745 C746 1.376 . S
C746 H733 0.930 . S
C746 C745 1.376 . S
C746 C747 1.388 . S
C747 H734 0.930 . S
C747 C746 1.388 . S
C747 C748 1.390 . S
C748 C747 1.390 . S
C748 C749 1.394 . S
C748 C754 1.465 . S
C749 C744 1.399 . S
C749 C748 1.394 . S
C749 C750 1.516 . S
C750 C749 1.516 . S
C750 C751 1.502 . S
C750 C752 1.561 . S
C750 C753 1.526 . S
C751 H735 0.959 . S
C751 H736 0.959 . S
C751 H737 0.961 . S
C751 C750 1.502 . S
C752 H738 0.960 . S
C752 H739 0.961 . S
C752 H740 0.959 . S
C752 C750 1.561 . S
C753 C750 1.526 . S
C753 C754 1.396 . S
C753 C758 1.390 . S
C754 C748 1.465 . S
C754 C753 1.396 . S
C754 C755 1.399 . S
C755 H741 0.929 . S
C755 C754 1.399 . S
C755 C756 1.385 . S
C756 H742 0.931 . S
C756 C755 1.385 . S
C756 C757 1.389 . S
C757 C756 1.389 . S
C757 C758 1.387 . S
C758 H743 0.930 . S
C758 C753 1.390 . S
C758 C757 1.387 . S
H759 C771 0.924 1_554 S
H760 C773 0.930 . S
H761 C774 0.930 . S
H762 C778 0.959 . S
H763 C778 0.959 . S
H764 C778 0.961 . S
H765 C779 0.960 . S
H766 C779 0.961 . S
H767 C779 0.959 . S
H768 C782 0.929 . S
H769 C783 0.931 . S
H770 C785 0.930 . S
C771 H759 0.924 1_556 S
C771 C772 1.399 . S
C771 C776 1.399 . S
C772 C771 1.399 . S
C772 C773 1.376 . S
C773 H760 0.930 . S
C773 C772 1.376 . S
C773 C774 1.388 . S
C774 H761 0.930 . S
C774 C773 1.388 . S
C774 C775 1.390 . S
C775 C774 1.390 . S
C775 C776 1.394 . S
C775 C781 1.465 . S
C776 C771 1.399 . S
C776 C775 1.394 . S
C776 C777 1.516 . S
C777 C776 1.516 . S
C777 C778 1.502 . S
C777 C779 1.561 . S
C777 C780 1.526 . S
C778 H762 0.959 . S
C778 H763 0.959 . S
C778 H764 0.961 . S
C778 C777 1.502 . S
C779 H765 0.960 . S
C779 H766 0.961 . S
C779 H767 0.959 . S
C779 C777 1.561 . S
C780 C777 1.526 . S
C780 C781 1.396 . S
C780 C785 1.390 . S
C781 C775 1.465 . S
C781 C780 1.396 . S
C781 C782 1.399 . S
C782 H768 0.929 . S
C782 C781 1.399 . S
C782 C783 1.385 . S
C783 H769 0.931 . S
C783 C782 1.385 . S
C783 C784 1.389 . S
C784 C783 1.389 . S
C784 C785 1.387 . S
C785 H770 0.930 . S
C785 C780 1.390 . S
C785 C784 1.387 . S
H786 C798 0.930 . S
H787 C800 0.930 . S
H788 C801 0.930 . S
H789 C805 0.959 . S
H790 C805 0.959 . S
H791 C805 0.961 . S
H792 C806 0.960 . S
H793 C806 0.961 . S
H794 C806 0.959 . S
H795 C809 0.929 . S
H796 C810 0.931 . S
H797 C812 0.930 . S
C798 H786 0.930 . S
C798 C799 1.399 . S
C798 C803 1.399 . S
C799 C798 1.399 . S
C799 C800 1.376 . S
C800 H787 0.930 . S
C800 C799 1.376 . S
C800 C801 1.388 . S
C801 H788 0.930 . S
C801 C800 1.388 . S
C801 C802 1.390 . S
C802 C801 1.390 . S
C802 C803 1.394 . S
C802 C808 1.465 . S
C803 C798 1.399 . S
C803 C802 1.394 . S
C803 C804 1.516 . S
C804 C803 1.516 . S
C804 C805 1.502 . S
C804 C806 1.561 . S
C804 C807 1.526 . S
C805 H789 0.959 . S
C805 H790 0.959 . S
C805 H791 0.961 . S
C805 C804 1.502 . S
C806 H792 0.960 . S
C806 H793 0.961 . S
C806 H794 0.959 . S
C806 C804 1.561 . S
C807 C804 1.526 . S
C807 C808 1.396 . S
C807 C812 1.390 . S
C808 C802 1.465 . S
C808 C807 1.396 . S
C808 C809 1.399 . S
C809 H795 0.929 . S
C809 C808 1.399 . S
C809 C810 1.385 . S
C810 H796 0.931 . S
C810 C809 1.385 . S
C810 C811 1.389 . S
C811 C810 1.389 . S
C811 C812 1.387 . S
C812 H797 0.930 . S
C812 C807 1.390 . S
C812 C811 1.387 . S
H813 C825 0.930 . S
H814 C827 0.930 . S
H815 C828 0.930 1_554 S
H816 C832 0.959 . S
H817 C832 0.959 . S
H818 C832 0.961 . S
H819 C833 0.960 . S
H820 C833 0.961 . S
H821 C833 0.959 . S
H822 C836 0.929 . S
H823 C837 0.931 . S
H824 C839 0.930 . S
C825 H813 0.930 . S
C825 C826 1.399 . S
C825 C830 1.399 . S
C826 C825 1.399 . S
C826 C827 1.376 1_556 S
C827 H814 0.930 . S
C827 C826 1.376 1_554 S
C827 C828 1.388 1_554 S
C828 H815 0.930 1_556 S
C828 C827 1.388 1_556 S
C828 C829 1.390 . S
C829 C828 1.390 . S
C829 C830 1.394 . S
C829 C835 1.465 . S
C830 C825 1.399 . S
C830 C829 1.394 . S
C830 C831 1.516 . S
C831 C830 1.516 . S
C831 C832 1.502 . S
C831 C833 1.561 . S
C831 C834 1.526 . S
C832 H816 0.959 . S
C832 H817 0.959 . S
C832 H818 0.961 . S
C832 C831 1.502 . S
C833 H819 0.960 . S
C833 H820 0.961 . S
C833 H821 0.959 . S
C833 C831 1.561 . S
C834 C831 1.526 . S
C834 C835 1.396 . S
C834 C839 1.390 . S
C835 C829 1.465 . S
C835 C834 1.396 . S
C835 C836 1.399 . S
C836 H822 0.929 . S
C836 C835 1.399 . S
C836 C837 1.385 . S
C837 H823 0.931 . S
C837 C836 1.385 . S
C837 C838 1.389 . S
C838 C837 1.389 . S
C838 C839 1.387 . S
C839 H824 0.930 . S
C839 C834 1.390 . S
C839 C838 1.387 . S
H840 C852 0.930 . S
H841 C854 0.930 . S
H842 C855 0.930 . S
H843 C859 0.959 . S
H844 C859 0.959 . S
H845 C859 0.961 . S
H846 C860 0.960 . S
H847 C860 0.961 . S
H848 C860 0.959 . S
H849 C863 0.929 . S
H850 C864 0.931 . S
H851 C866 0.930 . S
C852 H840 0.930 . S
C852 C853 1.399 . S
C852 C857 1.399 . S
C853 C852 1.399 . S
C853 C854 1.376 . S
C854 H841 0.930 . S
C854 C853 1.376 . S
C854 C855 1.388 . S
C855 H842 0.930 . S
C855 C854 1.388 . S
C855 C856 1.390 . S
C856 C855 1.390 . S
C856 C857 1.394 . S
C856 C862 1.465 . S
C857 C852 1.399 . S
C857 C856 1.394 . S
C857 C858 1.516 . S
C858 C857 1.516 . S
C858 C859 1.502 . S
C858 C860 1.561 . S
C858 C861 1.526 . S
C859 H843 0.959 . S
C859 H844 0.959 . S
C859 H845 0.961 . S
C859 C858 1.502 . S
C860 H846 0.960 . S
C860 H847 0.961 . S
C860 H848 0.959 . S
C860 C858 1.561 . S
C861 C858 1.526 . S
C861 C862 1.396 . S
C861 C866 1.390 . S
C862 C856 1.465 . S
C862 C861 1.396 . S
C862 C863 1.399 . S
C863 H849 0.929 . S
C863 C862 1.399 . S
C863 C864 1.385 . S
C864 H850 0.931 . S
C864 C863 1.385 . S
C864 C865 1.389 . S
C865 C864 1.389 . S
C865 C866 1.387 . S
C866 H851 0.930 . S
C866 C861 1.390 . S
C866 C865 1.387 . S
H867 C879 0.930 . S
H868 C881 0.930 . S
H869 C882 0.930 . S
H870 C886 0.959 . S
H871 C886 0.959 1_556 S
H872 C886 0.961 . S
H873 C887 0.960 . S
H874 C887 0.961 1_556 S
H875 C887 0.959 . S
H876 C890 0.929 . S
H877 C891 0.931 . S
H878 C893 0.930 . S
C879 H867 0.930 . S
C879 C880 1.399 . S
C879 C884 1.399 . S
C880 C879 1.399 . S
C880 C881 1.376 . S
C881 H868 0.930 . S
C881 C880 1.376 . S
C881 C882 1.388 . S
C882 H869 0.930 . S
C882 C881 1.388 . S
C882 C883 1.390 . S
C883 C882 1.390 . S
C883 C884 1.394 . S
C883 C889 1.465 . S
C884 C879 1.399 . S
C884 C883 1.394 . S
C884 C885 1.516 . S
C885 C884 1.516 . S
C885 C886 1.502 . S
C885 C887 1.561 . S
C885 C888 1.526 . S
C886 H870 0.959 . S
C886 H871 0.959 1_554 S
C886 H872 0.961 . S
C886 C885 1.502 . S
C887 H873 0.960 . S
C887 H874 0.961 1_554 S
C887 H875 0.959 . S
C887 C885 1.561 . S
C888 C885 1.526 . S
C888 C889 1.396 . S
C888 C893 1.390 . S
C889 C883 1.465 . S
C889 C888 1.396 . S
C889 C890 1.399 . S
C890 H876 0.929 . S
C890 C889 1.399 . S
C890 C891 1.385 . S
C891 H877 0.931 . S
C891 C890 1.385 . S
C891 C892 1.389 . S
C892 C891 1.389 . S
C892 C893 1.387 . S
C893 H878 0.930 . S
C893 C888 1.390 . S
C893 C892 1.387 . S
H894 C906 0.930 . S
H895 C908 0.930 . S
H896 C909 0.930 . S
H897 C913 0.959 . S
H898 C913 0.959 . S
H899 C913 0.961 . S
H900 C914 0.960 . S
H901 C914 0.961 . S
H902 C914 0.959 . S
H903 C917 0.929 . S
H904 C918 0.931 . S
H905 C920 0.930 . S
C906 H894 0.930 . S
C906 C907 1.399 . S
C906 C911 1.399 . S
C907 C906 1.399 . S
C907 C908 1.376 . S
C908 H895 0.930 . S
C908 C907 1.376 . S
C908 C909 1.388 . S
C909 H896 0.930 . S
C909 C908 1.388 . S
C909 C910 1.390 . S
C910 C909 1.390 . S
C910 C911 1.394 . S
C910 C916 1.465 . S
C911 C906 1.399 . S
C911 C910 1.394 . S
C911 C912 1.516 . S
C912 C911 1.516 . S
C912 C913 1.502 . S
C912 C914 1.561 . S
C912 C915 1.526 . S
C913 H897 0.959 . S
C913 H898 0.959 . S
C913 H899 0.961 . S
C913 C912 1.502 . S
C914 H900 0.960 . S
C914 H901 0.961 . S
C914 H902 0.959 . S
C914 C912 1.561 . S
C915 C912 1.526 . S
C915 C916 1.396 . S
C915 C920 1.390 . S
C916 C910 1.465 . S
C916 C915 1.396 . S
C916 C917 1.399 . S
C917 H903 0.929 . S
C917 C916 1.399 . S
C917 C918 1.385 . S
C918 H904 0.931 . S
C918 C917 1.385 . S
C918 C919 1.389 . S
C919 C918 1.389 . S
C919 C920 1.387 . S
C920 H905 0.930 . S
C920 C915 1.390 . S
C920 C919 1.387 . S
H921 C933 0.930 . S
H922 C935 0.930 . S
H923 C936 0.930 . S
H924 C940 0.959 . S
H925 C940 0.959 . S
H926 C940 0.961 . S
H927 C941 0.960 . S
H928 C941 0.961 . S
H929 C941 0.959 . S
H930 C944 0.929 . S
H931 C945 0.931 . S
H932 C947 0.930 . S
C933 H921 0.930 . S
C933 C934 1.399 . S
C933 C938 1.399 . S
C934 C933 1.399 . S
C934 C935 1.376 . S
C935 H922 0.930 . S
C935 C934 1.376 . S
C935 C936 1.388 . S
C936 H923 0.930 . S
C936 C935 1.388 . S
C936 C937 1.390 . S
C937 C936 1.390 . S
C937 C938 1.394 . S
C937 C943 1.465 . S
C938 C933 1.399 . S
C938 C937 1.394 . S
C938 C939 1.516 . S
C939 C938 1.516 . S
C939 C940 1.502 . S
C939 C941 1.561 . S
C939 C942 1.526 . S
C940 H924 0.959 . S
C940 H925 0.959 . S
C940 H926 0.961 . S
C940 C939 1.502 . S
C941 H927 0.960 . S
C941 H928 0.961 . S
C941 H929 0.959 . S
C941 C939 1.561 . S
C942 C939 1.526 . S
C942 C943 1.396 . S
C942 C947 1.390 . S
C943 C937 1.465 . S
C943 C942 1.396 . S
C943 C944 1.399 . S
C944 H930 0.929 . S
C944 C943 1.399 . S
C944 C945 1.385 . S
C945 H931 0.931 . S
C945 C944 1.385 . S
C945 C946 1.389 . S
C946 C945 1.389 . S
C946 C947 1.387 . S
C947 H932 0.930 . S
C947 C942 1.390 . S
C947 C946 1.387 . S
H948 C960 0.930 . S
H949 C962 0.930 . S
H950 C963 0.930 . S
H951 C967 0.959 . S
H952 C967 0.959 . S
H953 C967 0.961 . S
H954 C968 0.960 1_556 S
H955 C968 0.961 . S
H956 C968 0.959 . S
H957 C971 0.929 . S
H958 C972 0.931 . S
H959 C974 0.930 . S
C960 H948 0.930 . S
C960 C961 1.399 . S
C960 C965 1.399 . S
C961 C960 1.399 . S
C961 C962 1.376 . S
C962 H949 0.930 . S
C962 C961 1.376 . S
C962 C963 1.388 . S
C963 H950 0.930 . S
C963 C962 1.388 . S
C963 C964 1.390 . S
C964 C963 1.390 . S
C964 C965 1.394 . S
C964 C970 1.465 . S
C965 C960 1.399 . S
C965 C964 1.394 . S
C965 C966 1.516 . S
C966 C965 1.516 . S
C966 C967 1.502 . S
C966 C968 1.561 . S
C966 C969 1.526 . S
C967 H951 0.959 . S
C967 H952 0.959 . S
C967 H953 0.961 . S
C967 C966 1.502 . S
C968 H954 0.960 1_554 S
C968 H955 0.961 . S
C968 H956 0.959 . S
C968 C966 1.561 . S
C969 C966 1.526 . S
C969 C970 1.396 . S
C969 C974 1.390 . S
C970 C964 1.465 . S
C970 C969 1.396 . S
C970 C971 1.399 . S
C971 H957 0.929 . S
C971 C970 1.399 . S
C971 C972 1.385 . S
C972 H958 0.931 . S
C972 C971 1.385 . S
C972 C973 1.389 . S
C973 C972 1.389 . S
C973 C974 1.387 . S
C974 H959 0.930 . S
C974 C969 1.390 . S
C974 C973 1.387 . S
H975 C987 0.930 . S
H976 C989 0.930 . S
H977 C990 0.930 . S
H978 C994 0.959 . S
H979 C994 0.959 . S
H980 C994 0.961 . S
H981 C995 0.960 . S
H982 C995 0.961 . S
H983 C995 0.959 . S
H984 C998 0.929 . S
H985 C999 0.931 . S
H986 C1001 0.930 . S
C987 H975 0.930 . S
C987 C988 1.399 . S
C987 C992 1.399 . S
C988 C987 1.399 . S
C988 C989 1.376 . S
C989 H976 0.930 . S
C989 C988 1.376 . S
C989 C990 1.388 . S
C990 H977 0.930 . S
C990 C989 1.388 . S
C990 C991 1.390 . S
C991 C990 1.390 . S
C991 C992 1.394 . S
C991 C997 1.465 . S
C992 C987 1.399 . S
C992 C991 1.394 . S
C992 C993 1.516 . S
C993 C992 1.516 . S
C993 C994 1.502 . S
C993 C995 1.561 . S
C993 C996 1.526 . S
C994 H978 0.959 . S
C994 H979 0.959 . S
C994 H980 0.961 . S
C994 C993 1.502 . S
C995 H981 0.960 . S
C995 H982 0.961 . S
C995 H983 0.959 . S
C995 C993 1.561 . S
C996 C993 1.526 . S
C996 C997 1.396 . S
C996 C1001 1.390 . S
C997 C991 1.465 . S
C997 C996 1.396 . S
C997 C998 1.399 . S
C998 H984 0.929 . S
C998 C997 1.399 . S
C998 C999 1.385 . S
C999 H985 0.931 . S
C999 C998 1.385 . S
C999 C1000 1.389 . S
C1000 C999 1.389 . S
C1000 C1001 1.387 . S
C1001 H986 0.930 . S
C1001 C996 1.390 . S
C1001 C1000 1.387 . S
H1002 C1014 0.930 . S
H1003 C1016 0.930 . S
H1004 C1017 0.930 . S
H1005 C1021 0.959 . S
H1006 C1021 0.959 . S
H1007 C1021 0.961 . S
H1008 C1022 0.960 . S
H1009 C1022 0.961 . S
H1010 C1022 0.959 . S
H1011 C1025 0.929 . S
H1012 C1026 0.931 . S
H1013 C1028 0.930 . S
C1014 H1002 0.930 . S
C1014 C1015 1.399 . S
C1014 C1019 1.399 . S
C1015 C1014 1.399 . S
C1015 C1016 1.376 . S
C1016 H1003 0.930 . S
C1016 C1015 1.376 . S
C1016 C1017 1.388 . S
C1017 H1004 0.930 . S
C1017 C1016 1.388 . S
C1017 C1018 1.390 . S
C1018 C1017 1.390 . S
C1018 C1019 1.394 . S
C1018 C1024 1.465 . S
C1019 C1014 1.399 . S
C1019 C1018 1.394 . S
C1019 C1020 1.516 . S
C1020 C1019 1.516 . S
C1020 C1021 1.502 . S
C1020 C1022 1.561 . S
C1020 C1023 1.526 . S
C1021 H1005 0.959 . S
C1021 H1006 0.959 . S
C1021 H1007 0.961 . S
C1021 C1020 1.502 . S
C1022 H1008 0.960 . S
C1022 H1009 0.961 . S
C1022 H1010 0.959 . S
C1022 C1020 1.561 . S
C1023 C1020 1.526 . S
C1023 C1024 1.396 . S
C1023 C1028 1.390 . S
C1024 C1018 1.465 . S
C1024 C1023 1.396 . S
C1024 C1025 1.399 . S
C1025 H1011 0.929 . S
C1025 C1024 1.399 . S
C1025 C1026 1.385 . S
C1026 H1012 0.931 . S
C1026 C1025 1.385 . S
C1026 C1027 1.389 . S
C1027 C1026 1.389 . S
C1027 C1028 1.387 . S
C1028 H1013 0.930 . S
C1028 C1023 1.390 . S
C1028 C1027 1.387 . S
H1029 C1041 0.930 . S
H1030 C1043 0.930 . S
H1031 C1044 0.930 . S
H1032 C1048 0.959 . S
H1033 C1048 0.959 . S
H1034 C1048 0.961 . S
H1035 C1049 0.960 . S
H1036 C1049 0.961 . S
H1037 C1049 0.959 . S
H1038 C1052 0.929 . S
H1039 C1053 0.931 . S
H1040 C1055 0.930 . S
C1041 H1029 0.930 . S
C1041 C1042 1.399 . S
C1041 C1046 1.399 . S
C1042 C1041 1.399 . S
C1042 C1043 1.376 . S
C1043 H1030 0.930 . S
C1043 C1042 1.376 . S
C1043 C1044 1.388 . S
C1044 H1031 0.930 . S
C1044 C1043 1.388 . S
C1044 C1045 1.390 . S
C1045 C1044 1.390 . S
C1045 C1046 1.394 . S
C1045 C1051 1.465 . S
C1046 C1041 1.399 . S
C1046 C1045 1.394 . S
C1046 C1047 1.516 . S
C1047 C1046 1.516 . S
C1047 C1048 1.502 . S
C1047 C1049 1.561 . S
C1047 C1050 1.526 . S
C1048 H1032 0.959 . S
C1048 H1033 0.959 . S
C1048 H1034 0.961 . S
C1048 C1047 1.502 . S
C1049 H1035 0.960 . S
C1049 H1036 0.961 . S
C1049 H1037 0.959 . S
C1049 C1047 1.561 . S
C1050 C1047 1.526 . S
C1050 C1051 1.396 . S
C1050 C1055 1.390 . S
C1051 C1045 1.465 . S
C1051 C1050 1.396 . S
C1051 C1052 1.399 . S
C1052 H1038 0.929 . S
C1052 C1051 1.399 . S
C1052 C1053 1.385 . S
C1053 H1039 0.931 . S
C1053 C1052 1.385 . S
C1053 C1054 1.389 . S
C1054 C1053 1.389 . S
C1054 C1055 1.387 . S
C1055 H1040 0.930 . S
C1055 C1050 1.390 . S
C1055 C1054 1.387 . S
H1056 C1068 0.930 . S
H1057 C1070 0.930 . S
H1058 C1071 0.930 . S
H1059 C1075 0.959 . S
H1060 C1075 0.959 1_556 S
H1061 C1075 0.961 . S
H1062 C1076 0.960 . S
H1063 C1076 0.961 . S
H1064 C1076 0.959 . S
H1065 C1079 0.929 . S
H1066 C1080 0.931 . S
H1067 C1082 0.928 1_556 S
C1068 H1056 0.930 . S
C1068 C1069 1.399 . S
C1068 C1073 1.399 . S
C1069 C1068 1.399 . S
C1069 C1070 1.376 . S
C1070 H1057 0.930 . S
C1070 C1069 1.376 . S
C1070 C1071 1.388 . S
C1071 H1058 0.930 . S
C1071 C1070 1.388 . S
C1071 C1072 1.390 . S
C1072 C1071 1.390 . S
C1072 C1073 1.394 . S
C1072 C1078 1.465 . S
C1073 C1068 1.399 . S
C1073 C1072 1.394 . S
C1073 C1074 1.516 . S
C1074 C1073 1.516 . S
C1074 C1075 1.502 . S
C1074 C1076 1.561 . S
C1074 C1077 1.526 . S
C1075 H1059 0.959 . S
C1075 H1060 0.959 1_554 S
C1075 H1061 0.961 . S
C1075 C1074 1.502 . S
C1076 H1062 0.960 . S
C1076 H1063 0.961 . S
C1076 H1064 0.959 . S
C1076 C1074 1.561 . S
C1077 C1074 1.526 . S
C1077 C1078 1.396 . S
C1077 C1082 1.390 . S
C1078 C1072 1.465 . S
C1078 C1077 1.396 . S
C1078 C1079 1.399 . S
C1079 H1065 0.929 . S
C1079 C1078 1.399 . S
C1079 C1080 1.385 . S
C1080 H1066 0.931 . S
C1080 C1079 1.385 . S
C1080 C1081 1.389 . S
C1081 C1080 1.389 . S
C1081 C1082 1.387 . S
C1082 H1067 0.928 1_554 S
C1082 C1077 1.390 . S
C1082 C1081 1.387 . S
H1083 C1095 0.930 . S
H1084 C1097 0.930 . S
H1085 C1098 0.930 . S
H1086 C1102 0.959 . S
H1087 C1102 0.959 . S
H1088 C1102 0.961 . S
H1089 C1103 0.960 . S
H1090 C1103 0.961 . S
H1091 C1103 0.959 . S
H1092 C1106 0.929 . S
H1093 C1107 0.931 . S
H1094 C1109 0.930 . S
C1095 H1083 0.930 . S
C1095 C1096 1.399 . S
C1095 C1100 1.399 . S
C1096 C1095 1.399 . S
C1096 C1097 1.376 . S
C1097 H1084 0.930 . S
C1097 C1096 1.376 . S
C1097 C1098 1.388 . S
C1098 H1085 0.930 . S
C1098 C1097 1.388 . S
C1098 C1099 1.390 . S
C1099 C1098 1.390 . S
C1099 C1100 1.394 . S
C1099 C1105 1.465 . S
C1100 C1095 1.399 . S
C1100 C1099 1.394 . S
C1100 C1101 1.516 . S
C1101 C1100 1.516 . S
C1101 C1102 1.502 . S
C1101 C1103 1.561 . S
C1101 C1104 1.526 . S
C1102 H1086 0.959 . S
C1102 H1087 0.959 . S
C1102 H1088 0.961 . S
C1102 C1101 1.502 . S
C1103 H1089 0.960 . S
C1103 H1090 0.961 . S
C1103 H1091 0.959 . S
C1103 C1101 1.561 . S
C1104 C1101 1.526 . S
C1104 C1105 1.396 . S
C1104 C1109 1.390 . S
C1105 C1099 1.465 . S
C1105 C1104 1.396 . S
C1105 C1106 1.399 1_655 S
C1106 H1092 0.929 . S
C1106 C1105 1.399 1_455 S
C1106 C1107 1.385 . S
C1107 H1093 0.931 . S
C1107 C1106 1.385 . S
C1107 C1108 1.389 1_455 S
C1108 C1107 1.389 1_655 S
C1108 C1109 1.387 . S
C1109 H1094 0.930 . S
C1109 C1104 1.390 . S
C1109 C1108 1.387 . S
H1110 C1122 0.930 . S
H1111 C1124 0.930 . S
H1112 C1125 0.930 . S
H1113 C1129 0.959 . S
H1114 C1129 0.959 . S
H1115 C1129 0.961 . S
H1116 C1130 0.960 . S
H1117 C1130 0.961 . S
H1118 C1130 0.959 . S
H1119 C1133 0.929 . S
H1120 C1134 0.931 . S
H1121 C1136 0.930 . S
C1122 H1110 0.930 . S
C1122 C1123 1.399 . S
C1122 C1127 1.399 . S
C1123 C1122 1.399 . S
C1123 C1124 1.376 . S
C1124 H1111 0.930 . S
C1124 C1123 1.376 . S
C1124 C1125 1.388 . S
C1125 H1112 0.930 . S
C1125 C1124 1.388 . S
C1125 C1126 1.390 . S
C1126 C1125 1.390 . S
C1126 C1127 1.394 . S
C1126 C1132 1.465 . S
C1127 C1122 1.399 . S
C1127 C1126 1.394 . S
C1127 C1128 1.516 . S
C1128 C1127 1.516 . S
C1128 C1129 1.502 . S
C1128 C1130 1.561 . S
C1128 C1131 1.526 . S
C1129 H1113 0.959 . S
C1129 H1114 0.959 . S
C1129 H1115 0.961 . S
C1129 C1128 1.502 . S
C1130 H1116 0.960 . S
C1130 H1117 0.961 . S
C1130 H1118 0.959 . S
C1130 C1128 1.561 . S
C1131 C1128 1.526 . S
C1131 C1132 1.396 . S
C1131 C1136 1.390 . S
C1132 C1126 1.465 . S
C1132 C1131 1.396 . S
C1132 C1133 1.399 . S
C1133 H1119 0.929 . S
C1133 C1132 1.399 . S
C1133 C1134 1.385 . S
C1134 H1120 0.931 . S
C1134 C1133 1.385 . S
C1134 C1135 1.389 . S
C1135 C1134 1.389 . S
C1135 C1136 1.387 . S
C1136 H1121 0.930 . S
C1136 C1131 1.390 . S
C1136 C1135 1.387 . S
H1137 C1149 0.930 . S
H1138 C1151 0.930 . S
H1139 C1152 0.930 . S
H1140 C1156 0.959 . S
H1141 C1156 0.959 . S
H1142 C1156 0.961 . S
H1143 C1157 0.960 . S
H1144 C1157 0.961 . S
H1145 C1157 0.959 . S
H1146 C1160 0.929 . S
H1147 C1161 0.931 . S
H1148 C1163 0.930 . S
C1149 H1137 0.930 . S
C1149 C1150 1.399 . S
C1149 C1154 1.399 . S
C1150 C1149 1.399 . S
C1150 C1151 1.376 . S
C1151 H1138 0.930 . S
C1151 C1150 1.376 . S
C1151 C1152 1.388 . S
C1152 H1139 0.930 . S
C1152 C1151 1.388 . S
C1152 C1153 1.390 . S
C1153 C1152 1.390 . S
C1153 C1154 1.394 . S
C1153 C1159 1.465 . S
C1154 C1149 1.399 . S
C1154 C1153 1.394 . S
C1154 C1155 1.516 . S
C1155 C1154 1.516 . S
C1155 C1156 1.502 . S
C1155 C1157 1.561 . S
C1155 C1158 1.526 . S
C1156 H1140 0.959 . S
C1156 H1141 0.959 . S
C1156 H1142 0.961 . S
C1156 C1155 1.502 . S
C1157 H1143 0.960 . S
C1157 H1144 0.961 . S
C1157 H1145 0.959 . S
C1157 C1155 1.561 . S
C1158 C1155 1.526 . S
C1158 C1159 1.396 . S
C1158 C1163 1.390 . S
C1159 C1153 1.465 . S
C1159 C1158 1.396 . S
C1159 C1160 1.399 . S
C1160 H1146 0.929 . S
C1160 C1159 1.399 . S
C1160 C1161 1.385 . S
C1161 H1147 0.931 . S
C1161 C1160 1.385 . S
C1161 C1162 1.389 . S
C1162 C1161 1.389 . S
C1162 C1163 1.387 . S
C1163 H1148 0.930 . S
C1163 C1158 1.390 . S
C1163 C1162 1.387 . S
H1164 C1176 0.930 1_655 S
H1165 C1178 0.930 . S
H1166 C1179 0.930 . S
H1167 C1183 0.959 . S
H1168 C1183 0.959 . S
H1169 C1183 0.961 1_655 S
H1170 C1184 0.960 . S
H1171 C1184 0.961 . S
H1172 C1184 0.959 . S
H1173 C1187 0.929 . S
H1174 C1188 0.931 . S
H1175 C1190 0.930 . S
C1176 H1164 0.930 1_455 S
C1176 C1177 1.399 . S
C1176 C1181 1.399 . S
C1177 C1176 1.399 . S
C1177 C1178 1.376 . S
C1178 H1165 0.930 . S
C1178 C1177 1.376 . S
C1178 C1179 1.388 . S
C1179 H1166 0.930 . S
C1179 C1178 1.388 . S
C1179 C1180 1.390 . S
C1180 C1179 1.390 . S
C1180 C1181 1.394 . S
C1180 C1186 1.465 . S
C1181 C1176 1.399 . S
C1181 C1180 1.394 . S
C1181 C1182 1.516 . S
C1182 C1181 1.516 . S
C1182 C1183 1.502 . S
C1182 C1184 1.561 . S
C1182 C1185 1.526 . S
C1183 H1167 0.959 . S
C1183 H1168 0.959 . S
C1183 H1169 0.961 1_455 S
C1183 C1182 1.502 . S
C1184 H1170 0.960 . S
C1184 H1171 0.961 . S
C1184 H1172 0.959 . S
C1184 C1182 1.561 . S
C1185 C1182 1.526 . S
C1185 C1186 1.396 . S
C1185 C1190 1.390 . S
C1186 C1180 1.465 . S
C1186 C1185 1.396 . S
C1186 C1187 1.399 . S
C1187 H1173 0.929 . S
C1187 C1186 1.399 . S
C1187 C1188 1.385 . S
C1188 H1174 0.931 . S
C1188 C1187 1.385 . S
C1188 C1189 1.389 . S
C1189 C1188 1.389 . S
C1189 C1190 1.387 . S
C1190 H1175 0.930 . S
C1190 C1185 1.390 . S
C1190 C1189 1.387 . S
H1191 C1203 0.930 . S
H1192 C1205 0.930 . S
H1193 C1206 0.930 . S
H1194 C1210 0.959 . S
H1195 C1210 0.959 . S
H1196 C1210 0.961 . S
H1197 C1211 0.960 . S
H1198 C1211 0.961 . S
H1199 C1211 0.959 . S
H1200 C1214 0.929 . S
H1201 C1215 0.931 . S
H1202 C1217 0.930 . S
C1203 H1191 0.930 . S
C1203 C1204 1.399 . S
C1203 C1208 1.399 . S
C1204 C1203 1.399 . S
C1204 C1205 1.376 . S
C1205 H1192 0.930 . S
C1205 C1204 1.376 . S
C1205 C1206 1.388 . S
C1206 H1193 0.930 . S
C1206 C1205 1.388 . S
C1206 C1207 1.390 . S
C1207 C1206 1.390 . S
C1207 C1208 1.394 . S
C1207 C1213 1.465 . S
C1208 C1203 1.399 . S
C1208 C1207 1.394 . S
C1208 C1209 1.516 . S
C1209 C1208 1.516 . S
C1209 C1210 1.502 . S
C1209 C1211 1.561 . S
C1209 C1212 1.526 . S
C1210 H1194 0.959 . S
C1210 H1195 0.959 . S
C1210 H1196 0.961 . S
C1210 C1209 1.502 . S
C1211 H1197 0.960 . S
C1211 H1198 0.961 . S
C1211 H1199 0.959 . S
C1211 C1209 1.561 . S
C1212 C1209 1.526 . S
C1212 C1213 1.396 . S
C1212 C1217 1.390 . S
C1213 C1207 1.465 . S
C1213 C1212 1.396 . S
C1213 C1214 1.399 . S
C1214 H1200 0.929 . S
C1214 C1213 1.399 . S
C1214 C1215 1.385 . S
C1215 H1201 0.931 . S
C1215 C1214 1.385 . S
C1215 C1216 1.389 . S
C1216 C1215 1.389 . S
C1216 C1217 1.387 . S
C1217 H1202 0.930 . S
C1217 C1212 1.390 . S
C1217 C1216 1.387 . S
C421 C339 0.558 . S
C433 C33 0.446 . S
C448 C67 0.508 . S
C460 C373 0.502 . S
C475 C407 0.853 . S
C487 C101 0.756 . S
C502 C135 0.532 . S
C514 C237 0.550 . S
C529 C169 0.605 . S
C541 C271 0.551 . S
C556 C305 1.056 . S
C568 C203 1.161 . S
C583 C9 1.699 . S
C595 C138 1.777 . S
C610 C172 1.455 . S
C622 C43 1.447 . S
C637 C77 1.658 . S
C649 C2 1.762 . S
C664 C111 1.738 . S
C676 C36 1.799 . S
C691 C70 1.333 . S
C703 C145 1.373 . S
C718 C104 1.919 . S
C730 C179 1.794 . S
C745 C274 1.414 . S
C757 C213 1.451 . S
C772 C247 1.683 . S
C784 C308 1.778 . S
C799 C342 1.921 . S
C811 C281 1.853 . S
C826 C376 1.386 . S
C838 C315 1.371 . S
C853 C206 1.809 . S
C865 C349 1.698 . S
C880 C383 1.727 . S
C892 C240 1.786 . S
C907 C360 1.203 . S
C919 C20 1.189 . S
C934 C394 1.318 . S
C946 C54 1.223 . S
C961 C88 1.326 . S
C973 C224 1.268 . S
C988 C122 1.114 . S
C1000 C258 1.124 . S
C1015 C292 1.408 . S
C1027 C156 1.370 . S
C1042 C190 1.412 . S
C1054 C326 1.373 . S
C1069 C209 0.953 . S
C1081 C5 1.057 . S
C1096 C243 1.149 . S
C1108 C39 1.086 . S
C1123 C73 0.792 . S
C1135 C277 0.798 . S
C1150 C311 0.984 . S
C1162 C107 1.097 . S
C1177 C141 0.940 . S
C1189 C345 1.090 . S
C1204 C379 0.932 . S
C1216 C175 0.930 . S
