# Generated by pormake.
# Topology sxa, (6)-cn, num edge types: 1
# Building blocks:
#     Node 0, Type 0, BuildingBlock: JUFBIX_clean_sbu_0, # of connection points: 6
#     Node 1, Type 0, BuildingBlock: JUFBIX_clean_sbu_0, # of connection points: 6
#     Node 2, Type 0, BuildingBlock: JUFBIX_clean_sbu_0, # of connection points: 6
#     Node 3, Type 0, BuildingBlock: JUFBIX_clean_sbu_0, # of connection points: 6
#     Edge 4, Type (0, 0), BuildingBlock: MIFKUJ_clean_linker_0, # of connection points: 2
#     Edge 5, Type (0, 0), BuildingBlock: MIFKUJ_clean_linker_0, # of connection points: 2
#     Edge 6, Type (0, 0), BuildingBlock: MIFKUJ_clean_linker_0, # of connection points: 2
#     Edge 7, Type (0, 0), BuildingBlock: MIFKUJ_clean_linker_0, # of connection points: 2
#     Edge 8, Type (0, 0), BuildingBlock: MIFKUJ_clean_linker_0, # of connection points: 2
#     Edge 9, Type (0, 0), BuildingBlock: MIFKUJ_clean_linker_0, # of connection points: 2
#     Edge 10, Type (0, 0), BuildingBlock: MIFKUJ_clean_linker_0, # of connection points: 2
#     Edge 11, Type (0, 0), BuildingBlock: MIFKUJ_clean_linker_0, # of connection points: 2
#     Edge 12, Type (0, 0), BuildingBlock: MIFKUJ_clean_linker_0, # of connection points: 2
#     Edge 13, Type (0, 0), BuildingBlock: MIFKUJ_clean_linker_0, # of connection points: 2
#     Edge 14, Type (0, 0), BuildingBlock: MIFKUJ_clean_linker_0, # of connection points: 2
#     Edge 15, Type (0, 0), BuildingBlock: MIFKUJ_clean_linker_0, # of connection points: 2
# Relax obj value: 0.356
# Max RMSD: 0.284
# Mean RMSD: 0.284
data_MOF--net-sxa--node1-JUFBIX_clean_sbu_0--edge1-MIFKUJ_clean_linker_0
_symmetry_space_group_name_H-M    P1
_symmetry_Int_Tables_number       1
_symmetry_cell_setting            triclinic
loop_
_symmetry_equiv_pos_as_xyz
'x, y, z'
_cell_length_a     35.166262
_cell_length_b     34.986584
_cell_length_c     21.147734
_cell_angle_alpha  89.977102
_cell_angle_beta   75.994141
_cell_angle_gamma 85.612158
loop_
_atom_site_label
_atom_site_type_symbol
_atom_site_fract_x
_atom_site_fract_y
_atom_site_fract_z
_atom_type_partial_charge
Co0 Co 0.01278 0.79749 0.16166 0.0
C1 C 0.03621 0.86916 0.18925 0.0
Co2 Co 0.04548 0.79583 0.23924 0.0
C3 C 0.96673 0.77932 0.07186 0.0
C4 C 0.00887 0.81958 0.03412 0.0
N5 N 0.9933 0.80038 0.08849 0.0
N6 N 0.96509 0.78452 1.00925 0.0
C7 C 0.99144 0.81008 0.98552 0.0
H8 H 0.94851 0.76101 0.1056 0.0
H9 H 0.03236 0.8384 0.0294 0.0
C10 C 0.02256 0.72393 0.2002 0.0
N11 N 0.06968 0.79121 0.31108 0.0
C12 C 0.10542 0.79975 0.31957 0.0
C13 C 0.05325 0.77357 0.36651 0.0
N14 N 0.11148 0.78831 0.37836 0.0
C15 C 0.07836 0.77183 0.40731 0.0
C16 C 0.96138 0.80765 0.28094 0.0
O17 O 0.00545 0.74588 0.16668 0.0
O18 O 0.04203 0.73873 0.23692 0.0
O19 O 0.99381 0.8029 0.29815 0.0
O20 O 0.96218 0.80825 0.22023 0.0
O21 O 0.04925 0.85254 0.2349 0.0
H22 H 0.02506 0.76146 0.37608 0.0
H23 H 0.12673 0.8136 0.28294 0.0
O24 O 0.01995 0.84955 0.15473 0.0
O25 O 0.06265 0.78531 0.10496 0.0
O26 O 0.09478 0.78867 0.18132 0.0
C27 C 0.09469 0.78288 0.12229 0.0
H28 H -0.00243 0.82131 0.93673 0.0
H29 H 0.07288 0.75802 0.45406 0.0
Co30 Co 0.50694 0.29454 0.16813 0.0
C31 C 0.52043 0.36603 0.20607 0.0
Co32 Co 0.54041 0.28991 0.2444 0.0
C33 C 0.45975 0.2738 0.08302 0.0
C34 C 0.49708 0.31777 0.04353 0.0
N35 N 0.48562 0.29666 0.09719 0.0
N36 N 0.45446 0.2796 1.0225 0.0
C37 C 0.47797 0.30738 0.99758 0.0
H38 H 0.4443 0.25407 0.11758 0.0
H39 H 0.51839 0.33902 0.03787 0.0
C40 C 0.52642 0.21883 0.19592 0.0
N41 N 0.56591 0.28731 0.31489 0.0
C42 C 0.60144 0.29811 0.3208 0.0
C43 C 0.55063 0.27152 0.37278 0.0
N44 N 0.60828 0.29008 0.38035 0.0
C45 C 0.5761 0.27337 0.41266 0.0
C46 C 0.45659 0.29244 0.28878 0.0
O47 O 0.51159 0.24149 0.16036 0.0
O48 O 0.54102 0.23288 0.24006 0.0
O49 O 0.48926 0.29276 0.30497 0.0
O50 O 0.45676 0.29249 0.22837 0.0
O51 O 0.53989 0.34743 0.24216 0.0
H52 H 0.52281 0.25871 0.38523 0.0
H53 H 0.62183 0.3117 0.28232 0.0
O54 O 0.50168 0.34757 0.17399 0.0
O55 O 0.55673 0.29707 0.10973 0.0
O56 O 0.58909 0.28723 0.18527 0.0
C57 C 0.58901 0.29322 0.1263 0.0
H58 H 0.48062 0.32002 0.95018 0.0
H59 H 0.57162 0.26224 0.46147 0.0
Co60 Co 0.00576 0.30286 0.81045 0.0
C61 C 0.03067 0.37377 0.84755 0.0
Co62 Co 0.03271 0.30104 0.89528 0.0
C63 C 0.94822 0.29921 0.72728 0.0
C64 C 0.00394 0.3171 0.67591 0.0
N65 N 0.98467 0.30558 0.73505 0.0
N66 N 0.94434 0.30603 0.6656 0.0
C67 C 0.97964 0.31725 0.63363 0.0
H68 H 0.92492 0.28982 0.7662 0.0
H69 H 0.03369 0.32572 0.66431 0.0
C70 C 0.00811 0.23033 0.86866 0.0
N71 N 0.0487 0.2991 0.97175 0.0
C72 C 0.07733 0.31691 0.98877 0.0
C73 C 0.02917 0.28312 0.02712 0.0
N74 N 0.07645 0.31276 0.05263 0.0
C75 C 0.04623 0.29132 0.07677 0.0
C76 C 0.95202 0.32148 0.92202 0.0
O77 O -0.002 0.24668 0.82011 0.0
O78 O 0.02331 0.24982 0.90483 0.0
O79 O 0.98135 0.31596 0.94651 0.0
O80 O 0.95578 0.31514 0.86195 0.0
O81 O 0.04247 0.35208 0.88775 0.0
H82 H 0.00359 0.26708 0.03141 0.0
H83 H 0.09895 0.33184 0.95441 0.0
O84 O 0.01358 0.35921 0.80693 0.0
O85 O 0.05787 0.29123 0.75796 0.0
O86 O 0.08485 0.28738 0.84169 0.0
C87 C 0.08853 0.28598 0.78001 0.0
H88 H 0.98722 0.32611 0.58339 0.0
H89 H 0.0374 0.28176 0.12648 0.0
Co90 Co 0.51062 0.79103 0.80952 0.0
C91 C 0.52286 0.8608 0.86515 0.0
Co92 Co 0.54021 0.78425 0.8903 0.0
C93 C 0.45277 0.78544 0.72651 0.0
C94 C 0.50311 0.81521 0.68246 0.0
N95 N 0.48748 0.796 0.73658 0.0
N96 N 0.44654 0.79715 0.66803 0.0
C97 C 0.47848 0.81589 0.64083 0.0
H98 H 0.43232 0.76981 0.76171 0.0
H99 H 0.53036 0.82895 0.67434 0.0
C100 C 0.52869 0.71393 0.84482 0.0
N101 N 0.55887 0.77984 0.96383 0.0
C102 C 0.58377 0.80195 0.98279 0.0
C103 C 0.54604 0.7571 1.01485 0.0
N104 N 0.58712 0.79409 0.04381 0.0
C105 C 0.56339 0.76574 0.06404 0.0
C106 C 0.45814 0.78594 0.92394 0.0
O107 O 0.51044 0.73348 0.80803 0.0
O108 O 0.54597 0.73152 0.88036 0.0
O109 O 0.48897 0.7804 0.94456 0.0
O110 O 0.46088 0.79366 0.8647 0.0
O111 O 0.53514 0.8372 0.90225 0.0
H112 H 0.52502 0.73587 1.01645 0.0
H113 H 0.6 0.82261 0.95128 0.0
O114 O 0.51075 0.84788 0.81732 0.0
O115 O 0.56272 0.78833 0.75288 0.0
O116 O 0.59183 0.78756 0.83395 0.0
C117 C 0.59424 0.78831 0.77271 0.0
H118 H 0.48336 0.83042 0.59472 0.0
H119 H 0.55949 0.75156 0.11038 0.0
H120 H 0.97232 0.43291 0.86473 0.0
H121 H 0.97194 0.49295 0.92482 0.0
H122 H 0.09482 0.46823 0.91886 0.0
H123 H 0.09459 0.4078 0.86145 0.0
H124 H 0.0595 0.48472 0.03712 0.0
H125 H 0.05633 0.54621 0.83603 0.0
H126 H 0.03209 0.56188 0.73829 0.0
H127 H 0.9203 0.60429 0.85919 0.0
H128 H 0.94369 0.58837 0.95772 0.0
H129 H 0.08612 0.67007 0.1709 0.0
H130 H 0.0893 0.60995 0.10868 0.0
H131 H 0.96435 0.6255 0.12629 0.0
H132 H 0.96124 0.68509 0.1879 0.0
H133 H 0.00195 0.61426 1.00147 0.0
H134 H 0.0057 0.55204 0.20231 0.0
H135 H 0.03057 0.53662 0.29951 0.0
H136 H 0.14268 0.49619 0.17734 0.0
H137 H 0.11865 0.51189 0.07933 0.0
C138 C -0.00043 0.44103 0.87386 0.0
C139 C 0.03355 0.41556 0.85748 0.0
C140 C -0.00064 0.47542 0.90888 0.0
C141 C 0.03335 0.48548 0.92741 0.0
C142 C 0.06802 0.46138 0.90625 0.0
C143 C 0.06807 0.42701 0.87212 0.0
C144 C 0.03239 0.51905 0.97284 0.0
C145 C 0.04747 0.51316 0.02843 0.0
C146 C 0.01586 0.55626 0.96339 0.0
C147 C 0.00164 0.5657 0.90426 0.0
C148 C 0.02646 0.55856 0.84179 0.0
C149 C 0.0129 0.56755 0.78624 0.0
C150 C 0.97464 0.58396 0.79253 0.0
C151 C 0.9499 0.59151 0.85439 0.0
C152 C 0.96331 0.58253 0.91011 0.0
C153 C 0.05909 0.65962 0.16432 0.0
C154 C 0.02329 0.68212 0.18566 0.0
C155 C 0.06096 0.62544 0.12776 0.0
C156 C 0.02706 0.61304 0.11185 0.0
C157 C 0.99102 0.63429 0.13706 0.0
C158 C 0.98917 0.66817 0.17338 0.0
C159 C 0.0291 0.57984 0.06542 0.0
C160 C 0.01415 0.58581 1.00979 0.0
C161 C 0.04591 0.54278 0.07465 0.0
C162 C 0.06052 0.53359 0.13348 0.0
C163 C 0.03579 0.54023 0.19616 0.0
C164 C 0.04971 0.53136 0.25141 0.0
C165 C 0.08823 0.51556 0.24461 0.0
C166 C 0.11288 0.50852 0.18253 0.0
C167 C 0.09912 0.51738 0.12712 0.0
H168 H 0.09893 0.50868 0.28745 0.0
H169 H 0.9642 0.59092 0.74946 0.0
H170 H 0.58631 0.40408 0.1559 0.0
H171 H 0.58823 0.46274 0.09183 0.0
H172 H 0.46165 0.47868 0.14898 0.0
H173 H 0.4599 0.4195 0.21064 0.0
H174 H 0.48175 0.48636 0.02598 0.0
H175 H 0.5281 0.54053 0.19938 0.0
H176 H 0.57115 0.54493 0.27502 0.0
H177 H 0.67124 0.55091 0.11309 0.0
H178 H 0.62885 0.54606 0.03643 0.0
H179 H 0.46308 0.67466 0.89006 0.0
H180 H 0.46128 0.61573 0.95324 0.0
H181 H 0.58795 0.60087 0.89804 0.0
H182 H 0.58954 0.66058 0.83791 0.0
H183 H 0.5678 0.59259 1.02016 0.0
H184 H 0.52138 0.53827 0.84666 0.0
H185 H 0.47819 0.53408 0.77118 0.0
H186 H 0.37816 0.52854 0.93337 0.0
H187 H 0.4207 0.53316 1.00985 0.0
C188 C 0.55905 0.42112 0.15737 0.0
C189 C 0.523 0.40753 0.19027 0.0
C190 C 0.56006 0.45465 0.11987 0.0
C191 C 0.52502 0.4758 0.1149 0.0
C192 C 0.48921 0.46328 0.15111 0.0
C193 C 0.48823 0.42967 0.18771 0.0
C194 C 0.52511 0.50913 0.06897 0.0
C195 C 0.50025 0.50981 1.0256 0.0
C196 C 0.54983 0.53963 0.06619 0.0
C197 C 0.57535 0.54253 0.11218 0.0
C198 C 0.55934 0.54248 0.1799 0.0
C199 C 0.58361 0.54511 0.22296 0.0
C200 C 0.62392 0.54808 0.19888 0.0
C201 C 0.64002 0.54854 0.13167 0.0
C202 C 0.61588 0.54588 0.0884 0.0
C203 C 0.49042 0.65786 0.8889 0.0
C204 C 0.52642 0.67204 0.8573 0.0
C205 C 0.48947 0.62411 0.92581 0.0
C206 C 0.52455 0.60319 0.93119 0.0
C207 C 0.56035 0.61611 0.89569 0.0
C208 C 0.56125 0.65 0.85984 0.0
C209 C 0.52449 0.5698 0.97703 0.0
C210 C 0.54934 0.56911 1.02044 0.0
C211 C 0.49977 0.53929 0.97984 0.0
C212 C 0.47418 0.53643 0.93396 0.0
C213 C 0.49013 0.53643 0.86622 0.0
C214 C 0.46578 0.53393 0.82327 0.0
C215 C 0.42545 0.53115 0.84747 0.0
C216 C 0.4094 0.53075 0.91469 0.0
C217 C 0.43362 0.53326 0.95786 0.0
H218 H 0.40664 0.52922 0.81413 0.0
H219 H 0.64266 0.55012 0.23229 0.0
H220 H 0.58519 0.89338 0.88769 0.0
H221 H 0.58555 0.95403 0.9442 0.0
H222 H 0.4645 0.98186 0.94102 0.0
H223 H 0.46417 0.92045 0.88358 0.0
H224 H 0.5074 0.04688 0.92533 0.0
H225 H 0.48606 0.94371 0.0731 0.0
H226 H 0.49843 0.88039 0.11853 0.0
H227 H 0.60939 0.91246 0.14347 0.0
H228 H 0.59816 0.97571 0.09664 0.0
H229 H 0.46401 0.1838 0.17953 0.0
H230 H 0.46433 0.12298 0.1231 0.0
H231 H 0.58723 0.09925 0.11714 0.0
H232 H 0.587 0.16098 0.17401 0.0
H233 H 0.54323 1.03236 0.13771 0.0
H234 H 0.5634 0.13634 0.98927 0.0
H235 H 0.54878 0.20007 0.94711 0.0
H236 H 0.43743 0.16649 0.92658 0.0
H237 H 0.45097 0.10278 0.97007 0.0
C238 C 0.55895 0.91295 0.89698 0.0
C239 C 0.52478 0.90216 0.88026 0.0
C240 C 0.55906 0.94754 0.93016 0.0
C241 C 0.52484 0.97244 0.94852 0.0
C242 C 0.49131 0.96317 0.92782 0.0
C243 C 0.49121 0.92823 0.89425 0.0
C244 C 0.52392 1.00651 0.99256 0.0
C245 C 0.51471 1.04356 0.9721 0.0
C246 C 0.53422 1.00264 0.05342 0.0
C247 C 0.5414 0.96439 0.08076 0.0
C248 C 0.51331 0.93715 0.08756 0.0
C249 C 0.52009 0.90127 0.11367 0.0
C250 C 0.55463 0.89246 0.13399 0.0
C251 C 0.5826 0.91939 0.12784 0.0
C252 C 0.57608 0.95524 0.10139 0.0
C253 C 0.49087 0.16507 0.16835 0.0
C254 C 0.52538 0.17716 0.18216 0.0
C255 C 0.4911 0.13038 0.13524 0.0
C256 C 0.52594 0.10663 0.11439 0.0
C257 C 0.55993 0.11707 0.13239 0.0
C258 C 0.55973 0.15217 0.16569 0.0
C259 C 0.52692 0.07263 0.0703 0.0
C260 C 0.53605 1.03562 0.09083 0.0
C261 C 0.51634 0.07653 1.00971 0.0
C262 C 0.50808 0.11483 0.98346 0.0
C263 C 0.53562 0.14263 0.97636 0.0
C264 C 0.52755 0.17875 0.95216 0.0
C265 C 0.49223 0.18729 0.93411 0.0
C266 C 0.46482 0.15979 0.94049 0.0
C267 C 0.47266 0.12367 0.96498 0.0
H268 H 0.48617 0.21519 0.91499 0.0
H269 H 0.55969 0.86476 0.15459 0.0
H270 H 0.00843 0.93914 0.2531 0.0
H271 H 0.00407 1.00143 0.19973 0.0
H272 H 0.06951 0.94939 1.01681 0.0
H273 H 0.07594 0.88878 0.07076 0.0
H274 H 0.08815 1.0155 1.01127 0.0
H275 H 0.958 0.96715 0.07652 0.0
H276 H 0.8991 0.94707 0.15529 0.0
H277 H 0.88368 0.05628 0.25397 0.0
H278 H 0.9425 0.07704 0.17632 0.0
H279 H 0.03473 0.1606 0.80309 0.0
H280 H 0.03904 0.09788 0.85519 0.0
H281 H 0.97495 0.14909 0.03957 0.0
H282 H 0.96856 0.21011 0.987 0.0
H283 H 0.95572 0.08305 0.04344 0.0
H284 H 0.08593 0.13154 0.97531 0.0
H285 H 0.14389 0.15142 0.89389 0.0
H286 H 0.15909 1.04101 0.79919 0.0
H287 H 0.10097 1.02063 0.87897 0.0
C288 C 0.02339 0.94161 0.20228 0.0
C289 C 0.04325 0.90904 0.16663 0.0
C290 C 0.02002 0.97709 0.17102 0.0
C291 C 0.03532 0.98049 0.10299 0.0
C292 C 0.05716 0.94832 0.06887 0.0
C293 C 0.06111 0.91342 0.1001 0.0
C294 C 0.02778 1.01632 0.06589 0.0
C295 C 0.05898 1.02993 1.01822 0.0
C296 C 0.99004 1.03619 0.07439 0.0
C297 C 0.95485 1.02349 0.12105 0.0
C298 C 0.94216 0.98679 0.11525 0.0
C299 C 0.90881 0.97529 0.1596 0.0
C300 C 0.88781 1.00028 0.2096 0.0
C301 C 0.90002 1.03691 0.2153 0.0
C302 C 0.93331 0.04858 0.17113 0.0
C303 C 0.02001 0.15787 0.85397 0.0
C304 C 0.00064 0.19036 0.89048 0.0
C305 C 0.02336 0.12213 0.88447 0.0
C306 C 0.00849 0.11837 0.95253 0.0
C307 C 0.987 0.15045 0.98746 0.0
C308 C 0.98307 0.1856 0.95702 0.0
C309 C 0.01609 0.08231 0.98896 0.0
C310 C 0.98489 0.06864 0.03651 0.0
C311 C 0.05381 0.06234 0.98019 0.0
C312 C 0.08887 0.07472 0.9327 0.0
C313 C 0.10153 0.1116 0.93691 0.0
C314 C 0.13438 0.12294 0.89113 0.0
C315 C 0.15505 0.09755 0.84153 0.0
C316 C 0.143 0.06069 0.83758 0.0
C317 C 0.11012 0.04923 0.88299 0.0
H318 H 0.18045 0.10642 0.8062 0.0
H319 H 0.86202 0.99127 0.24383 0.0
H320 H 0.44545 0.80007 0.53968 0.0
H321 H 0.38933 0.79823 0.49189 0.0
H322 H 0.31406 0.78145 0.68168 0.0
H323 H 0.37063 0.78379 0.73067 0.0
H324 H 0.29518 0.73644 0.58981 0.0
H325 H 0.3145 0.86972 0.6074 0.0
H326 H 0.35212 0.92708 0.59247 0.0
H327 H 0.37837 0.91061 0.38475 0.0
H328 H 0.34133 0.85282 0.39847 0.0
H329 H 0.11406 0.7839 0.5062 0.0
H330 H 0.17109 0.78333 0.552 0.0
H331 H 0.24526 0.7992 0.36099 0.0
H332 H 0.18779 0.79899 0.31383 0.0
H333 H 0.26518 0.8441 0.45233 0.0
H334 H 0.24419 0.71251 0.43321 0.0
H335 H 0.20736 0.65469 0.44682 0.0
H336 H 0.18576 0.66647 0.65487 0.0
H337 H 0.22206 0.72463 0.64241 0.0
C338 C 0.41705 0.79637 0.57192 0.0
C339 C 0.41298 0.79283 0.63975 0.0
C340 C 0.3847 0.79524 0.54413 0.0
C341 C 0.34684 0.79057 0.58288 0.0
C342 C 0.34272 0.78544 0.65036 0.0
C343 C 0.37527 0.78666 0.67846 0.0
C344 C 0.31199 0.79145 0.5525 0.0
C345 C 0.28832 0.7603 0.56064 0.0
C346 C 0.3033 0.82192 0.51244 0.0
C347 C 0.32544 0.85674 0.50401 0.0
C348 C 0.32853 0.87817 0.55855 0.0
C349 C 0.34971 0.91078 0.5503 0.0
C350 C 0.3677 0.92243 0.4877 0.0
C351 C 0.36446 0.90153 0.43321 0.0
C352 C 0.34335 0.86886 0.44119 0.0
C353 C 0.14236 0.78681 0.47316 0.0
C354 C 0.1458 0.79083 0.40552 0.0
C355 C 0.17526 0.78658 0.49988 0.0
C356 C 0.21303 0.79051 0.46029 0.0
C357 C 0.21663 0.79588 0.39298 0.0
C358 C 0.18355 0.79588 0.36591 0.0
C359 C 0.24824 0.78915 0.48977 0.0
C360 C 0.272 0.82021 0.48147 0.0
C361 C 0.25709 0.75849 0.52942 0.0
C362 C 0.23529 0.7234 0.53696 0.0
C363 C 0.23121 0.70305 0.4819 0.0
C364 C 0.21052 0.67012 0.48937 0.0
C365 C 0.19406 0.657 0.55167 0.0
C366 C 0.19839 0.67672 0.60662 0.0
C367 C 0.21902 0.70968 0.59938 0.0
H368 H 0.17807 0.63149 0.55735 0.0
H369 H 0.38408 0.94769 0.48141 0.0
H370 H 0.10403 0.28043 0.64731 0.0
H371 H 0.1672 0.27899 0.56839 0.0
H372 H 0.22636 0.27988 0.7247 0.0
H373 H 0.16254 0.28228 0.80478 0.0
H374 H 0.25676 0.32912 0.63384 0.0
H375 H 0.22876 0.19786 0.62822 0.0
H376 H 0.18902 0.1439 0.6195 0.0
H377 H 0.18328 0.17823 0.42685 0.0
H378 H 0.22254 0.23274 0.43475 0.0
H379 H 0.44698 0.29197 0.42134 0.0
H380 H 0.38641 0.28834 0.50602 0.0
H381 H 0.32028 0.28662 0.35903 0.0
H382 H 0.38113 0.2892 0.27371 0.0
H383 H 0.29503 0.23572 0.44871 0.0
H384 H 0.32061 0.36835 0.45621 0.0
H385 H 0.35993 0.42264 0.46503 0.0
H386 H 0.37005 0.38569 0.65433 0.0
H387 H 0.33121 0.33086 0.64627 0.0
C388 C 0.13039 0.27992 0.66534 0.0
C389 C 0.12794 0.28128 0.73283 0.0
C390 C 0.16673 0.27892 0.61979 0.0
C391 C 0.20194 0.27881 0.64007 0.0
C392 C 0.19975 0.27981 0.7075 0.0
C393 C 0.16319 0.28092 0.75337 0.0
C394 C 0.2406 0.27904 0.5906 0.0
C395 C 0.2654 0.30823 0.59407 0.0
C396 C 0.25176 0.25248 0.53739 0.0
C397 C 0.22835 0.21957 0.53231 0.0
C398 C 0.2188 0.19406 0.58416 0.0
C399 C 0.19639 0.16335 0.57934 0.0
C400 C 0.18357 0.15769 0.52271 0.0
C401 C 0.19321 0.18267 0.47071 0.0
C402 C 0.21558 0.21345 0.4753 0.0
C403 C 0.41959 0.29096 0.40678 0.0
C404 C 0.41913 0.29122 0.34032 0.0
C405 C 0.38478 0.28906 0.45554 0.0
C406 C 0.34836 0.28778 0.43946 0.0
C407 C 0.34782 0.28771 0.3731 0.0
C408 C 0.38272 0.28944 0.32417 0.0
C409 C 0.31104 0.28597 0.49168 0.0
C410 C 0.28648 0.25649 0.48867 0.0
C411 C 0.30012 0.31226 0.5453 0.0
C412 C 0.32334 0.34528 0.55034 0.0
C413 C 0.33147 0.37164 0.49951 0.0
C414 C 0.35363 0.40254 0.50441 0.0
C415 C 0.36757 0.40756 0.56013 0.0
C416 C 0.35928 0.38174 0.61116 0.0
C417 C 0.33717 0.35076 0.60647 0.0
H418 H 0.38472 0.43149 0.56383 0.0
H419 H 0.16621 0.1339 0.51907 0.0
H420 H 0.94421 0.29227 0.539 0.0
H421 H 0.8879 0.29154 0.49093 0.0
H422 H 0.80948 0.31354 0.68036 0.0
H423 H 0.86621 0.31378 0.72918 0.0
H424 H 0.7798 0.26353 0.61855 0.0
H425 H 0.83204 0.38401 0.55589 0.0
H426 H 0.88198 0.42823 0.50711 0.0
H427 H 0.89763 0.37326 0.32006 0.0
H428 H 0.84824 0.32831 0.36789 0.0
H429 H 0.6084 0.3066 0.50548 0.0
H430 H 0.66484 0.311 0.55228 0.0
H431 H 0.74294 0.29127 0.36187 0.0
H432 H 0.68583 0.28784 0.31437 0.0
H433 H 0.77282 0.34048 0.42408 0.0
H434 H 0.72246 0.21898 0.48627 0.0
H435 H 0.67234 0.17469 0.53404 0.0
H436 H 0.65351 0.23117 0.72054 0.0
H437 H 0.70316 0.27612 0.67368 0.0
C438 C 0.91507 0.29723 0.57073 0.0
C439 C 0.91018 0.30351 0.63827 0.0
C440 C 0.88262 0.29693 0.54287 0.0
C441 C 0.8439 0.3034 0.58123 0.0
C442 C 0.83879 0.30867 0.64908 0.0
C443 C 0.8714 0.3087 0.6772 0.0
C444 C 0.80907 0.30395 0.55065 0.0
C445 C 0.77816 0.28087 0.57662 0.0
C446 C 0.8068 0.32562 0.49449 0.0
C447 C 0.83678 0.35244 0.46573 0.0
C448 C 0.84642 0.38108 0.5045 0.0
C449 C 0.87458 0.40633 0.47698 0.0
C450 C 0.89308 0.40346 0.41059 0.0
C451 C 0.88339 0.37537 0.37154 0.0
C452 C 0.8553 0.35 0.39883 0.0
C453 C 0.63755 0.30316 0.47333 0.0
C454 C 0.64231 0.2963 0.40604 0.0
C455 C 0.67007 0.30548 0.50039 0.0
C456 C 0.70876 0.30022 0.4615 0.0
C457 C 0.71366 0.29502 0.39364 0.0
C458 C 0.6809 0.29316 0.36625 0.0
C459 C 0.74364 0.3 0.49191 0.0
C460 C 0.77452 0.32311 0.46596 0.0
C461 C 0.74601 0.27826 0.54794 0.0
C462 C 0.71625 0.25116 0.57628 0.0
C463 C 0.70744 0.22212 0.53736 0.0
C464 C 0.67914 0.19688 0.56429 0.0
C465 C 0.65968 0.20018 0.63023 0.0
C466 C 0.66856 0.22868 0.66944 0.0
C467 C 0.69679 0.25403 0.64273 0.0
H468 H 0.63778 0.18061 0.65099 0.0
H469 H 0.91483 0.42307 0.38936 0.0
H470 H 0.94997 0.81495 0.41344 0.0
H471 H 0.88868 0.81348 0.49741 0.0
H472 H 0.82502 0.80193 0.34882 0.0
H473 H 0.88631 0.80401 0.2644 0.0
H474 H 0.78332 0.84909 0.44195 0.0
H475 H 0.85041 0.72419 0.43976 0.0
H476 H 0.9059 0.67774 0.44504 0.0
H477 H 0.90239 0.71836 0.63811 0.0
H478 H 0.84721 0.76546 0.63362 0.0
H479 H 0.60869 0.78435 0.6397 0.0
H480 H 0.67079 0.78893 0.5593 0.0
H481 H 0.72991 0.80151 0.71361 0.0
H482 H 0.66759 0.79629 0.79488 0.0
H483 H 0.77443 0.75521 0.61983 0.0
H484 H 0.70612 0.8792 0.62272 0.0
H485 H 0.65032 0.92521 0.61725 0.0
H486 H 0.6559 0.88594 0.42263 0.0
H487 H 0.7114 0.8393 0.42726 0.0
C488 C 0.92293 0.81238 0.39839 0.0
C489 C 0.92331 0.80967 0.33175 0.0
C490 C 0.88778 0.81126 0.44672 0.0
C491 C 0.85198 0.80687 0.42999 0.0
C492 C 0.85208 0.80524 0.36341 0.0
C493 C 0.88727 0.80654 0.31496 0.0
C494 C 0.81464 0.8036 0.48171 0.0
C495 C 0.78133 0.82819 0.48029 0.0
C496 C 0.8119 0.77704 0.53313 0.0
C497 C 0.84494 0.74861 0.53608 0.0
C498 C 0.86166 0.72341 0.48315 0.0
C499 C 0.89303 0.69694 0.48603 0.0
C500 C 0.90773 0.69518 0.54181 0.0
C501 C 0.89101 0.71981 0.5949 0.0
C502 C 0.85967 0.74638 0.59223 0.0
C503 C 0.63483 0.78803 0.65687 0.0
C504 C 0.63287 0.79003 0.72415 0.0
C505 C 0.67047 0.79088 0.61054 0.0
C506 C 0.70525 0.79629 0.62988 0.0
C507 C 0.70362 0.79751 0.69708 0.0
C508 C 0.66787 0.79452 0.74366 0.0
C509 C 0.74308 0.80059 0.57988 0.0
C510 C 0.77646 0.77619 0.5816 0.0
C511 C 0.74588 0.8273 0.52868 0.0
C512 C 0.7127 0.85552 0.52557 0.0
C513 C 0.69528 0.8802 0.57892 0.0
C514 C 0.66372 0.90641 0.57595 0.0
C515 C 0.64951 0.90843 0.51969 0.0
C516 C 0.66691 0.88431 0.4662 0.0
C517 C 0.69844 0.85801 0.46895 0.0
H518 H 0.62507 0.92874 0.51749 0.0
H519 H 0.93202 0.67466 0.54395 0.0
H520 H 0.38611 0.82135 0.93501 0.0
H521 H 0.32566 0.78867 0.95706 0.0
H522 H 0.38747 0.68664 1.00946 0.0
H523 H 0.44766 0.72043 0.99122 0.0
H524 H 0.32181 0.72755 0.88074 0.0
H525 H 0.31313 0.63231 0.09542 0.0
H526 H 0.33508 0.62536 0.19766 0.0
H527 H 0.32934 0.74786 0.21961 0.0
H528 H 0.30723 0.7554 0.11769 0.0
H529 H 0.10322 0.71503 0.05853 0.0
H530 H 0.1659 0.6803 1.00264 0.0
H531 H 0.22709 0.77897 0.03039 0.0
H532 H 0.16508 0.81264 0.08929 0.0
H533 H 0.23703 0.68563 0.08745 0.0
H534 H 0.27766 0.78002 0.85802 0.0
H535 H 0.2471 0.80291 0.77047 0.0
H536 H 0.17879 0.70505 0.79251 0.0
H537 H 0.20934 0.68114 0.87983 0.0
C538 C 0.38619 0.79267 0.95442 0.0
C539 C 0.42109 0.7732 0.9613 0.0
C540 C 0.35204 0.77372 0.96572 0.0
C541 C 0.35272 0.73483 0.98238 0.0
C542 C 0.38662 0.71649 0.99584 0.0
C543 C 0.4207 0.73594 0.98622 0.0
C544 C 0.31808 0.71408 0.98138 0.0
C545 C 0.30324 0.71766 0.92551 0.0
C546 C 0.29528 0.69855 0.03829 0.0
C547 C 0.30917 0.69434 0.09872 0.0
C548 C 0.31672 0.65769 0.12206 0.0
C549 C 0.32913 0.65366 0.17991 0.0
C550 C 0.33377 0.68615 0.21495 0.0
C551 C 0.32594 0.72273 0.19227 0.0
C552 C 0.31355 0.72689 0.13444 0.0
C553 C 0.13015 0.72942 0.05088 0.0
C554 C 0.13005 0.76625 0.07753 0.0
C555 C 0.1656 0.70963 1.01922 0.0
C556 C 0.20061 0.72734 1.01242 0.0
C557 C 0.19997 0.7652 0.03506 0.0
C558 C 0.16488 0.78437 0.0685 0.0
C559 C 0.23903 0.70607 0.99072 0.0
C560 C 0.25599 0.69291 0.04112 0.0
C561 C 0.26322 0.71512 0.93004 0.0
C562 C 0.24598 0.72861 0.87552 0.0
C563 C 0.25655 0.76301 0.84375 0.0
C564 C 0.23907 0.7763 0.79431 0.0
C565 C 0.21095 0.75552 0.77611 0.0
C566 C 0.20049 0.72119 0.80688 0.0
C567 C 0.21785 0.70777 0.85642 0.0
H568 H 0.19716 0.76612 0.73833 0.0
H569 H 0.3433 0.68297 0.25978 0.0
H570 H 0.12507 0.36994 1.02257 0.0
H571 H 0.19209 0.36458 0.0362 0.0
H572 H 0.16392 0.27109 0.16774 0.0
H573 H 0.09759 0.27514 0.15257 0.0
H574 H 0.24547 0.34696 0.12534 0.0
H575 H 0.20431 0.2004 0.08801 0.0
H576 H 0.14886 0.16985 0.06129 0.0
H577 H 0.13935 0.25728 0.92225 0.0
H578 H 0.19447 0.28844 0.94859 0.0
H579 H 0.41541 0.21583 0.05812 0.0
H580 H 0.34571 0.21425 0.06242 0.0
H581 H 0.35207 0.31017 0.93345 0.0
H582 H 0.42086 0.31325 0.93111 0.0
H583 H 0.28103 0.22912 0.98482 0.0
H584 H 0.311 0.38019 0.03139 0.0
H585 H 0.36362 0.41651 0.05522 0.0
H586 H 0.39536 0.3239 0.17023 0.0
H587 H 0.34292 0.28705 0.14712 0.0
C588 C 0.13273 0.34925 0.05641 0.0
C589 C 0.10705 0.32139 0.0832 0.0
C590 C 0.17082 0.34665 0.06499 0.0
C591 C 0.18288 0.31646 0.10087 0.0
C592 C 0.15493 0.29414 0.13895 0.0
C593 C 0.11696 0.29644 0.12989 0.0
C594 C 0.22385 0.30067 0.0807 0.0
C595 C 0.2533 0.32105 0.09536 0.0
C596 C 0.23377 0.26714 0.04065 0.0
C597 C 0.20331 0.24663 1.02027 0.0
C598 C 0.19061 0.21277 0.05123 0.0
C599 C 0.1591 0.19556 0.03651 0.0
C600 C 0.14037 0.21188 0.9906 0.0
C601 C 0.15369 0.2449 0.95816 0.0
C602 C 0.18503 0.26233 0.97295 0.0
C603 C 0.4023 0.23579 0.02888 0.0
C604 C 0.42266 0.26662 0.99865 0.0
C605 C 0.36265 0.23435 0.03049 0.0
C606 C 0.34391 0.26323 1.00061 0.0
C607 C 0.3663 0.28821 0.95794 0.0
C608 C 0.40576 0.29002 0.95703 0.0
C609 C 0.30264 0.27527 0.02996 0.0
C610 C 0.27321 0.2544 1.01636 0.0
C611 C 0.29275 0.30848 0.07083 0.0
C612 C 0.32323 0.33091 0.08731 0.0
C613 C 0.32909 0.36773 0.0621 0.0
C614 C 0.35895 0.38831 0.07529 0.0
C615 C 0.38289 0.37243 0.11409 0.0
C616 C 0.37685 0.33605 0.1401 0.0
C617 C 0.34714 0.31529 0.12686 0.0
H618 H 0.40609 0.38832 0.12408 0.0
H619 H 0.11548 0.19901 0.98022 0.0
H620 H 0.5921 0.35368 0.04682 0.0
H621 H 0.64942 0.39054 1.00998 0.0
H622 H 0.72185 0.30082 0.0742 0.0
H623 H 0.66414 0.26499 0.11482 0.0
H624 H 0.71453 0.38141 0.13313 0.0
H625 H 0.77643 0.31299 0.88947 0.0
H626 H 0.75809 0.29451 0.78873 0.0
H627 H 0.67569 0.39359 0.81042 0.0
H628 H 0.69395 0.4128 0.91083 0.0
H629 H 0.90161 0.30192 0.03453 0.0
H630 H 0.83567 0.33274 0.07876 0.0
H631 H 0.85952 0.42232 0.93704 0.0
H632 H 0.92387 0.38961 0.8899 0.0
H633 H 0.8062 0.38326 0.91499 0.0
H634 H 0.82036 0.44519 0.10507 0.0
H635 H 0.84351 0.45433 0.20473 0.0
H636 H 0.78093 0.35963 0.29305 0.0
H637 H 0.75789 0.34944 0.19377 0.0
C638 C 0.62063 0.34111 0.05036 0.0
C639 C 0.62413 0.30661 0.0834 0.0
C640 C 0.65317 0.36232 0.02968 0.0
C641 C 0.68944 0.34832 0.03993 0.0
C642 C 0.69371 0.31197 0.06657 0.0
C643 C 0.66107 0.29135 0.08895 0.0
C644 C 0.72258 0.3723 0.02996 0.0
C645 C 0.73469 0.38293 0.08558 0.0
C646 C 0.74751 0.3755 0.9677 0.0
C647 C 0.73612 0.36401 0.90791 0.0
C648 C 0.75436 0.33075 0.87268 0.0
C649 C 0.74404 0.32019 0.81564 0.0
C650 C 0.71564 0.34279 0.7933 0.0
C651 C 0.69754 0.37601 0.82793 0.0
C652 C 0.7078 0.38671 0.88497 0.0
C653 C 0.89289 0.32874 1.01444 0.0
C654 C 0.91671 0.3432 0.95835 0.0
C655 C 0.85562 0.34684 0.04033 0.0
C656 C 0.84268 0.37994 1.01103 0.0
C657 C 0.86892 0.39691 0.96028 0.0
C658 C 0.90542 0.37811 0.93312 0.0
C659 C 0.80017 0.38883 1.01903 0.0
C660 C 0.78601 0.38452 0.96284 0.0
C661 C 0.77373 0.3906 0.08116 0.0
C662 C 0.78714 0.39674 0.14173 0.0
C663 C 0.81158 0.42623 0.14561 0.0
C664 C 0.82472 0.43158 0.20211 0.0
C665 C 0.81362 0.40764 0.25522 0.0
C666 C 0.78937 0.37827 0.25197 0.0
C667 C 0.77614 0.37279 0.19561 0.0
H668 H 0.8238 0.41185 0.29889 0.0
H669 H 0.70776 0.33463 0.74907 0.0
H670 H 0.93676 0.81989 0.914 0.0
H671 H 0.86988 0.81628 0.90429 0.0
H672 H 0.85745 0.71868 0.02989 0.0
H673 H 0.92522 0.72092 0.03772 0.0
H674 H 0.79815 0.73405 0.94358 0.0
H675 H 0.84716 0.79116 0.12643 0.0
H676 H 0.89991 0.82579 0.15363 0.0
H677 H 0.88189 0.91508 1.02238 0.0
H678 H 0.82869 0.88112 0.99489 0.0
H679 H 0.61906 0.75615 0.13319 0.0
H680 H 0.68702 0.7595 0.13655 0.0
H681 H 0.6937 0.86147 1.02131 0.0
H682 H 0.62497 0.85929 1.01952 0.0
H683 H 0.7559 0.84521 0.09839 0.0
H684 H 0.70043 0.79109 0.9254 0.0
H685 H 0.65045 0.75413 0.8943 0.0
H686 H 0.68194 0.65838 1.00332 0.0
H687 H 0.73226 0.69476 0.03476 0.0
C688 C 0.92087 0.79613 0.93633 0.0
C689 C 0.93519 0.77215 0.98014 0.0
C690 C 0.88257 0.79402 0.93034 0.0
C691 C 0.85869 0.76829 0.96868 0.0
C692 C 0.87553 0.7392 1.001 0.0
C693 C 0.91401 0.74097 1.00635 0.0
C694 C 0.81686 0.7799 0.99369 0.0
C695 C 0.78884 0.75828 0.97722 0.0
C696 C 0.80503 0.81149 0.03785 0.0
C697 C 0.83415 0.83371 0.0587 0.0
C698 C 0.85418 0.81842 0.10405 0.0
C699 C 0.88415 0.83784 0.11939 0.0
C700 C 0.89444 0.87239 0.0894 0.0
C701 C 0.87399 0.88821 0.04536 0.0
C702 C 0.84376 0.86904 0.03017 0.0
C703 C 0.63398 0.78063 0.11172 0.0
C704 C 0.61764 0.80596 0.07201 0.0
C705 C 0.67294 0.78256 0.11406 0.0
C706 C 0.69536 0.80963 0.07654 0.0
C707 C 0.67677 0.83983 0.04923 0.0
C708 C 0.63768 0.83814 0.04738 0.0
C709 C 0.73713 0.79933 0.0483 0.0
C710 C 0.76514 0.82117 0.06434 0.0
C711 C 0.7489 0.76804 1.00344 0.0
C712 C 0.71989 0.7456 0.98253 0.0
C713 C 0.6967 0.76211 0.94256 0.0
C714 C 0.66835 0.74131 0.9249 0.0
C715 C 0.66292 0.70401 0.94701 0.0
C716 C 0.68615 0.68728 0.98627 0.0
C717 C 0.7147 0.7079 1.0038 0.0
H718 H 0.64076 0.68807 0.93362 0.0
H719 H 0.9184 0.88674 0.10009 0.0
loop_
_geom_bond_atom_site_label_1
_geom_bond_atom_site_label_2
_geom_bond_distance
_geom_bond_site_symmetry_2
_ccdc_geom_bond_type
Co0 N5 2.057 1_455 S
Co0 O17 2.021 . S
Co0 O20 2.062 1_455 S
Co0 O24 2.117 . S
Co0 O25 2.020 . S
C1 O21 1.259 . S
C1 O24 1.258 . S
Co2 N11 2.057 . S
Co2 O18 2.117 . S
Co2 O19 2.020 1_455 S
Co2 O21 2.021 . S
Co2 O26 2.062 . S
C3 N5 1.316 . S
C3 N6 1.347 . S
C3 H8 0.931 . S
C4 N5 1.375 . S
C4 C7 1.350 . S
C4 H9 0.930 . S
N5 Co0 2.057 1_655 S
N5 C3 1.316 . S
N5 C4 1.375 . S
N6 C3 1.347 . S
N6 C7 1.373 . S
C7 C4 1.350 . S
C7 N6 1.373 . S
C7 H28 0.931 1_554 S
H8 C3 0.931 . S
H9 C4 0.930 . S
C10 O17 1.259 . S
C10 O18 1.258 . S
N11 Co2 2.057 . S
N11 C12 1.316 . S
N11 C13 1.375 . S
C12 N11 1.316 . S
C12 N14 1.347 . S
C12 H23 0.931 . S
C13 N11 1.375 . S
C13 C15 1.350 . S
C13 H22 0.930 . S
N14 C12 1.347 . S
N14 C15 1.373 . S
C15 C13 1.350 . S
C15 N14 1.373 . S
C15 H29 0.931 . S
C16 O19 1.256 . S
C16 O20 1.255 . S
O17 Co0 2.021 . S
O17 C10 1.259 . S
O18 Co2 2.117 . S
O18 C10 1.258 . S
O19 Co2 2.020 1_655 S
O19 C16 1.256 . S
O20 Co0 2.062 1_655 S
O20 C16 1.255 . S
O21 C1 1.259 . S
O21 Co2 2.021 . S
H22 C13 0.930 . S
H23 C12 0.931 . S
O24 Co0 2.117 . S
O24 C1 1.258 . S
O25 Co0 2.020 . S
O25 C27 1.256 . S
O26 Co2 2.062 . S
O26 C27 1.255 . S
C27 O25 1.256 . S
C27 O26 1.255 . S
H28 C7 0.931 1_556 S
H29 C15 0.931 . S
Co30 N35 2.057 . S
Co30 O47 2.021 . S
Co30 O50 2.062 . S
Co30 O54 2.117 . S
Co30 O55 2.020 . S
C31 O51 1.259 . S
C31 O54 1.258 . S
Co32 N41 2.057 . S
Co32 O48 2.117 . S
Co32 O49 2.020 . S
Co32 O51 2.021 . S
Co32 O56 2.062 . S
C33 N35 1.316 . S
C33 N36 1.347 . S
C33 H38 0.931 . S
C34 N35 1.375 . S
C34 C37 1.350 . S
C34 H39 0.930 . S
N35 Co30 2.057 . S
N35 C33 1.316 . S
N35 C34 1.375 . S
N36 C33 1.347 . S
N36 C37 1.373 . S
C37 C34 1.350 . S
C37 N36 1.373 . S
C37 H58 0.931 1_554 S
H38 C33 0.931 . S
H39 C34 0.930 . S
C40 O47 1.259 . S
C40 O48 1.258 . S
N41 Co32 2.057 . S
N41 C42 1.316 . S
N41 C43 1.375 . S
C42 N41 1.316 . S
C42 N44 1.347 . S
C42 H53 0.931 . S
C43 N41 1.375 . S
C43 C45 1.350 . S
C43 H52 0.930 . S
N44 C42 1.347 . S
N44 C45 1.373 . S
C45 C43 1.350 . S
C45 N44 1.373 . S
C45 H59 0.931 . S
C46 O49 1.256 . S
C46 O50 1.255 . S
O47 Co30 2.021 . S
O47 C40 1.259 . S
O48 Co32 2.117 . S
O48 C40 1.258 . S
O49 Co32 2.020 . S
O49 C46 1.256 . S
O50 Co30 2.062 . S
O50 C46 1.255 . S
O51 C31 1.259 . S
O51 Co32 2.021 . S
H52 C43 0.930 . S
H53 C42 0.931 . S
O54 Co30 2.117 . S
O54 C31 1.258 . S
O55 Co30 2.020 . S
O55 C57 1.256 . S
O56 Co32 2.062 . S
O56 C57 1.255 . S
C57 O55 1.256 . S
C57 O56 1.255 . S
H58 C37 0.931 1_556 S
H59 C45 0.931 . S
Co60 N65 2.057 1_455 S
Co60 O77 2.021 . S
Co60 O80 2.062 1_455 S
Co60 O84 2.117 . S
Co60 O85 2.020 . S
C61 O81 1.259 . S
C61 O84 1.258 . S
Co62 N71 2.057 . S
Co62 O78 2.117 . S
Co62 O79 2.020 1_455 S
Co62 O81 2.021 . S
Co62 O86 2.062 . S
C63 N65 1.316 . S
C63 N66 1.347 . S
C63 H68 0.931 . S
C64 N65 1.375 . S
C64 C67 1.350 . S
C64 H69 0.930 . S
N65 Co60 2.057 1_655 S
N65 C63 1.316 . S
N65 C64 1.375 . S
N66 C63 1.347 . S
N66 C67 1.373 . S
C67 C64 1.350 . S
C67 N66 1.373 . S
C67 H88 0.931 . S
H68 C63 0.931 . S
H69 C64 0.930 . S
C70 O77 1.259 . S
C70 O78 1.258 . S
N71 Co62 2.057 . S
N71 C72 1.316 . S
N71 C73 1.375 . S
C72 N71 1.316 . S
C72 N74 1.347 . S
C72 H83 0.931 . S
C73 N71 1.375 . S
C73 C75 1.350 . S
C73 H82 0.930 . S
N74 C72 1.347 . S
N74 C75 1.373 . S
C75 C73 1.350 . S
C75 N74 1.373 . S
C75 H89 0.931 1_556 S
C76 O79 1.256 . S
C76 O80 1.255 . S
O77 Co60 2.021 . S
O77 C70 1.259 . S
O78 Co62 2.117 . S
O78 C70 1.258 . S
O79 Co62 2.020 1_655 S
O79 C76 1.256 . S
O80 Co60 2.062 1_655 S
O80 C76 1.255 . S
O81 C61 1.259 . S
O81 Co62 2.021 . S
H82 C73 0.930 . S
H83 C72 0.931 . S
O84 Co60 2.117 . S
O84 C61 1.258 . S
O85 Co60 2.020 . S
O85 C87 1.256 . S
O86 Co62 2.062 . S
O86 C87 1.255 . S
C87 O85 1.256 . S
C87 O86 1.255 . S
H88 C67 0.931 . S
H89 C75 0.931 1_554 S
Co90 N95 2.057 . S
Co90 O107 2.021 . S
Co90 O110 2.062 . S
Co90 O114 2.117 . S
Co90 O115 2.020 . S
C91 O111 1.259 . S
C91 O114 1.258 . S
Co92 N101 2.057 . S
Co92 O108 2.117 . S
Co92 O109 2.020 . S
Co92 O111 2.021 . S
Co92 O116 2.062 . S
C93 N95 1.316 . S
C93 N96 1.347 . S
C93 H98 0.931 . S
C94 N95 1.375 . S
C94 C97 1.350 . S
C94 H99 0.930 . S
N95 Co90 2.057 . S
N95 C93 1.316 . S
N95 C94 1.375 . S
N96 C93 1.347 . S
N96 C97 1.373 . S
C97 C94 1.350 . S
C97 N96 1.373 . S
C97 H118 0.931 . S
H98 C93 0.931 . S
H99 C94 0.930 . S
C100 O107 1.259 . S
C100 O108 1.258 . S
N101 Co92 2.057 . S
N101 C102 1.316 . S
N101 C103 1.375 . S
C102 N101 1.316 . S
C102 N104 1.347 . S
C102 H113 0.931 . S
C103 N101 1.375 . S
C103 C105 1.350 . S
C103 H112 0.930 . S
N104 C102 1.347 . S
N104 C105 1.373 . S
C105 C103 1.350 . S
C105 N104 1.373 . S
C105 H119 0.931 1_556 S
C106 O109 1.256 . S
C106 O110 1.255 . S
O107 Co90 2.021 . S
O107 C100 1.259 . S
O108 Co92 2.117 . S
O108 C100 1.258 . S
O109 Co92 2.020 . S
O109 C106 1.256 . S
O110 Co90 2.062 . S
O110 C106 1.255 . S
O111 C91 1.259 . S
O111 Co92 2.021 . S
H112 C103 0.930 . S
H113 C102 0.931 . S
O114 Co90 2.117 . S
O114 C91 1.258 . S
O115 Co90 2.020 . S
O115 C117 1.256 . S
O116 Co92 2.062 . S
O116 C117 1.255 . S
C117 O115 1.256 . S
C117 O116 1.255 . S
H118 C97 0.931 . S
H119 C105 0.931 1_554 S
H120 C138 0.951 . S
H121 C140 0.951 . S
H122 C142 0.950 . S
H123 C143 0.950 . S
H124 C145 0.950 . S
H125 C148 0.950 . S
H126 C149 0.950 . S
H127 C151 0.950 . S
H128 C152 0.950 . S
H129 C153 0.951 . S
H130 C155 0.951 . S
H131 C157 0.950 . S
H132 C158 0.950 . S
H133 C160 0.944 1_655 S
H134 C163 0.950 . S
H135 C164 0.950 . S
H136 C166 0.950 . S
H137 C167 0.950 . S
C138 H120 0.951 . S
C138 C139 1.366 1_655 S
C138 C140 1.388 . S
C139 C138 1.366 1_455 S
C139 C143 1.385 . S
C140 H121 0.951 . S
C140 C138 1.388 . S
C140 C141 1.366 1_655 S
C141 C140 1.366 1_455 S
C141 C142 1.414 . S
C141 C144 1.499 . S
C142 H122 0.950 . S
C142 C141 1.414 . S
C142 C143 1.374 . S
C143 H123 0.950 . S
C143 C139 1.385 . S
C143 C142 1.374 . S
C144 C141 1.499 . S
C144 C145 1.373 1_556 S
C144 C146 1.389 . S
C145 H124 0.950 . S
C145 C144 1.373 1_554 S
C145 C161 1.377 . S
C146 C144 1.389 . S
C146 C147 1.524 1_455 S
C146 C160 1.377 . S
C147 C146 1.524 1_655 S
C147 C148 1.397 1_655 S
C147 C152 1.363 . S
C148 H125 0.950 . S
C148 C147 1.397 1_455 S
C148 C149 1.334 . S
C149 H126 0.950 . S
C149 C148 1.334 . S
C149 C150 1.287 1_455 S
C150 C149 1.287 1_655 S
C150 C151 1.524 . S
C150 H169 0.913 . S
C151 H127 0.950 . S
C151 C150 1.524 . S
C151 C152 1.415 . S
C152 H128 0.950 . S
C152 C147 1.363 . S
C152 C151 1.415 . S
C153 H129 0.951 . S
C153 C154 1.366 . S
C153 C155 1.388 . S
C154 C153 1.366 . S
C154 C158 1.385 1_455 S
C155 H130 0.951 . S
C155 C153 1.388 . S
C155 C156 1.366 . S
C156 C155 1.366 . S
C156 C157 1.414 1_455 S
C156 C159 1.499 . S
C157 H131 0.950 . S
C157 C156 1.414 1_655 S
C157 C158 1.374 . S
C158 H132 0.950 . S
C158 C154 1.385 1_655 S
C158 C157 1.374 . S
C159 C156 1.499 . S
C159 C160 1.373 1_554 S
C159 C161 1.389 . S
C160 H133 0.944 1_455 S
C160 C146 1.377 . S
C160 C159 1.373 1_556 S
C161 C145 1.377 . S
C161 C159 1.389 . S
C161 C162 1.524 . S
C162 C161 1.524 . S
C162 C163 1.397 . S
C162 C167 1.363 . S
C163 H134 0.950 . S
C163 C162 1.397 . S
C163 C164 1.334 . S
C164 H135 0.950 . S
C164 C163 1.334 . S
C164 C165 1.287 . S
C165 C164 1.287 . S
C165 C166 1.524 . S
C165 H168 0.999 . S
C166 H136 0.950 . S
C166 C165 1.524 . S
C166 C167 1.415 . S
C167 H137 0.950 . S
C167 C162 1.363 . S
C167 C166 1.415 . S
H168 C165 0.999 . S
H169 C150 0.913 . S
H170 C188 0.951 . S
H171 C190 0.951 . S
H172 C192 0.950 . S
H173 C193 0.950 . S
H174 C195 0.950 . S
H175 C198 0.950 . S
H176 C199 0.950 . S
H177 C201 0.950 . S
H178 C202 0.950 1_556 S
H179 C203 0.951 . S
H180 C205 0.951 . S
H181 C207 0.950 . S
H182 C208 0.950 . S
H183 C210 0.950 . S
H184 C213 0.950 . S
H185 C214 0.950 . S
H186 C216 0.950 . S
H187 C217 0.950 1_554 S
C188 H170 0.951 . S
C188 C189 1.366 . S
C188 C190 1.388 . S
C189 C188 1.366 . S
C189 C193 1.385 . S
C190 H171 0.951 . S
C190 C188 1.388 . S
C190 C191 1.366 . S
C191 C190 1.366 . S
C191 C192 1.414 . S
C191 C194 1.499 . S
C192 H172 0.950 . S
C192 C191 1.414 . S
C192 C193 1.374 . S
C193 H173 0.950 . S
C193 C189 1.385 . S
C193 C192 1.374 . S
C194 C191 1.499 . S
C194 C195 1.373 . S
C194 C196 1.389 . S
C195 H174 0.950 . S
C195 C194 1.373 . S
C195 C211 1.377 1_554 S
C196 C194 1.389 . S
C196 C197 1.524 . S
C196 C210 1.377 1_554 S
C197 C196 1.524 . S
C197 C198 1.397 . S
C197 C202 1.363 . S
C198 H175 0.950 . S
C198 C197 1.397 . S
C198 C199 1.334 . S
C199 H176 0.950 . S
C199 C198 1.334 . S
C199 C200 1.287 . S
C200 C199 1.287 . S
C200 C201 1.524 . S
C200 H219 0.913 . S
C201 H177 0.950 . S
C201 C200 1.524 . S
C201 C202 1.415 . S
C202 H178 0.950 1_554 S
C202 C197 1.363 . S
C202 C201 1.415 . S
C203 H179 0.951 . S
C203 C204 1.366 . S
C203 C205 1.388 . S
C204 C203 1.366 . S
C204 C208 1.385 . S
C205 H180 0.951 . S
C205 C203 1.388 . S
C205 C206 1.366 . S
C206 C205 1.366 . S
C206 C207 1.414 . S
C206 C209 1.499 . S
C207 H181 0.950 . S
C207 C206 1.414 . S
C207 C208 1.374 . S
C208 H182 0.950 . S
C208 C204 1.385 . S
C208 C207 1.374 . S
C209 C206 1.499 . S
C209 C210 1.373 . S
C209 C211 1.389 . S
C210 H183 0.950 . S
C210 C196 1.377 1_556 S
C210 C209 1.373 . S
C211 C195 1.377 1_556 S
C211 C209 1.389 . S
C211 C212 1.524 . S
C212 C211 1.524 . S
C212 C213 1.397 . S
C212 C217 1.363 . S
C213 H184 0.950 . S
C213 C212 1.397 . S
C213 C214 1.334 . S
C214 H185 0.950 . S
C214 C213 1.334 . S
C214 C215 1.287 . S
C215 C214 1.287 . S
C215 C216 1.524 . S
C215 H218 0.999 . S
C216 H186 0.950 . S
C216 C215 1.524 . S
C216 C217 1.415 . S
C217 H187 0.950 1_556 S
C217 C212 1.363 . S
C217 C216 1.415 . S
H218 C215 0.999 . S
H219 C200 0.913 . S
H220 C238 0.951 . S
H221 C240 0.951 . S
H222 C242 0.950 . S
H223 C243 0.950 . S
H224 C245 0.950 . S
H225 C248 0.950 . S
H226 C249 0.950 1_554 S
H227 C251 0.950 . S
H228 C252 0.950 . S
H229 C253 0.951 . S
H230 C255 0.951 . S
H231 C257 0.950 . S
H232 C258 0.950 . S
H233 C260 0.950 . S
H234 C263 0.950 . S
H235 C264 0.950 1_556 S
H236 C266 0.950 . S
H237 C267 0.950 . S
C238 H220 0.951 . S
C238 C239 1.366 . S
C238 C240 1.388 . S
C239 C238 1.366 . S
C239 C243 1.385 . S
C240 H221 0.951 . S
C240 C238 1.388 . S
C240 C241 1.366 . S
C241 C240 1.366 . S
C241 C242 1.414 . S
C241 C244 1.499 . S
C242 H222 0.950 . S
C242 C241 1.414 . S
C242 C243 1.374 . S
C243 H223 0.950 . S
C243 C239 1.385 . S
C243 C242 1.374 . S
C244 C241 1.499 . S
C244 C245 1.373 . S
C244 C246 1.389 . S
C245 H224 0.950 . S
C245 C244 1.373 . S
C245 C261 1.377 1_566 S
C246 C244 1.389 . S
C246 C247 1.524 . S
C246 C260 1.377 1_566 S
C247 C246 1.524 . S
C247 C248 1.397 1_556 S
C247 C252 1.363 . S
C248 H225 0.950 . S
C248 C247 1.397 1_554 S
C248 C249 1.334 1_554 S
C249 H226 0.950 1_556 S
C249 C248 1.334 1_556 S
C249 C250 1.287 . S
C250 C249 1.287 . S
C250 C251 1.524 . S
C250 H269 0.913 . S
C251 H227 0.950 . S
C251 C250 1.524 . S
C251 C252 1.415 . S
C252 H228 0.950 . S
C252 C247 1.363 . S
C252 C251 1.415 . S
C253 H229 0.951 . S
C253 C254 1.366 . S
C253 C255 1.388 . S
C254 C253 1.366 . S
C254 C258 1.385 . S
C255 H230 0.951 . S
C255 C253 1.388 . S
C255 C256 1.366 . S
C256 C255 1.366 . S
C256 C257 1.414 . S
C256 C259 1.499 . S
C257 H231 0.950 . S
C257 C256 1.414 . S
C257 C258 1.374 . S
C258 H232 0.950 . S
C258 C254 1.385 . S
C258 C257 1.374 . S
C259 C256 1.499 . S
C259 C260 1.373 . S
C259 C261 1.389 . S
C260 H233 0.950 . S
C260 C246 1.377 1_544 S
C260 C259 1.373 . S
C261 C245 1.377 1_544 S
C261 C259 1.389 . S
C261 C262 1.524 . S
C262 C261 1.524 . S
C262 C263 1.397 1_554 S
C262 C267 1.363 . S
C263 H234 0.950 . S
C263 C262 1.397 1_556 S
C263 C264 1.334 1_556 S
C264 H235 0.950 1_554 S
C264 C263 1.334 1_554 S
C264 C265 1.287 . S
C265 C264 1.287 . S
C265 C266 1.524 . S
C265 H268 0.999 . S
C266 H236 0.950 . S
C266 C265 1.524 . S
C266 C267 1.415 . S
C267 H237 0.950 . S
C267 C262 1.363 . S
C267 C266 1.415 . S
H268 C265 0.999 . S
H269 C250 0.913 . S
H270 C288 0.955 . S
H271 C290 0.951 1_655 S
H272 C292 0.950 1_556 S
H273 C293 0.950 . S
H274 C295 0.950 . S
H275 C298 0.950 . S
H276 C299 0.950 . S
H277 C301 0.950 1_545 S
H278 C302 0.950 . S
H279 C303 0.951 . S
H280 C305 0.951 . S
H281 C307 0.950 1_654 S
H282 C308 0.950 1_655 S
H283 C310 0.950 . S
H284 C313 0.950 . S
H285 C314 0.950 . S
H286 C316 0.950 1_565 S
H287 C317 0.950 . S
C288 H270 0.955 . S
C288 C289 1.366 . S
C288 C290 1.388 . S
C289 C288 1.366 . S
C289 C293 1.385 . S
C290 H271 0.951 1_455 S
C290 C288 1.388 . S
C290 C291 1.366 . S
C291 C290 1.366 . S
C291 C292 1.414 . S
C291 C294 1.499 . S
C292 H272 0.950 1_554 S
C292 C291 1.414 . S
C292 C293 1.374 . S
C293 H273 0.950 . S
C293 C289 1.385 . S
C293 C292 1.374 . S
C294 C291 1.499 . S
C294 C295 1.373 1_554 S
C294 C296 1.389 1_455 S
C295 H274 0.950 . S
C295 C294 1.373 1_556 S
C295 C311 1.377 1_565 S
C296 C294 1.389 1_655 S
C296 C297 1.524 . S
C296 C310 1.377 1_565 S
C297 C296 1.524 . S
C297 C298 1.397 . S
C297 C302 1.363 1_565 S
C298 H275 0.950 . S
C298 C297 1.397 . S
C298 C299 1.334 . S
C299 H276 0.950 . S
C299 C298 1.334 . S
C299 C300 1.287 . S
C300 C299 1.287 . S
C300 C301 1.524 . S
C300 H319 0.913 . S
C301 H277 0.950 1_565 S
C301 C300 1.524 . S
C301 C302 1.415 1_565 S
C302 H278 0.950 . S
C302 C297 1.363 1_545 S
C302 C301 1.415 1_545 S
C303 H279 0.951 . S
C303 C304 1.366 . S
C303 C305 1.388 . S
C304 C303 1.366 . S
C304 C308 1.385 . S
C305 H280 0.951 . S
C305 C303 1.388 . S
C305 C306 1.366 . S
C306 C305 1.366 . S
C306 C307 1.414 . S
C306 C309 1.499 . S
C307 H281 0.950 1_456 S
C307 C306 1.414 . S
C307 C308 1.374 . S
C308 H282 0.950 1_455 S
C308 C304 1.385 . S
C308 C307 1.374 . S
C309 C306 1.499 . S
C309 C310 1.373 1_456 S
C309 C311 1.389 . S
C310 H283 0.950 . S
C310 C296 1.377 1_545 S
C310 C309 1.373 1_654 S
C311 C295 1.377 1_545 S
C311 C309 1.389 . S
C311 C312 1.524 . S
C312 C311 1.524 . S
C312 C313 1.397 . S
C312 C317 1.363 1_545 S
C313 H284 0.950 . S
C313 C312 1.397 . S
C313 C314 1.334 . S
C314 H285 0.950 . S
C314 C313 1.334 . S
C314 C315 1.287 . S
C315 C314 1.287 . S
C315 C316 1.524 . S
C315 H318 0.999 . S
C316 H286 0.950 1_545 S
C316 C315 1.524 . S
C316 C317 1.415 1_545 S
C317 H287 0.950 . S
C317 C312 1.363 1_565 S
C317 C316 1.415 1_565 S
H318 C315 0.999 . S
H319 C300 0.913 . S
H320 C338 0.951 . S
H321 C340 0.951 . S
H322 C342 0.950 . S
H323 C343 0.950 . S
H324 C345 0.950 . S
H325 C348 0.950 . S
H326 C349 0.950 . S
H327 C351 0.950 . S
H328 C352 0.950 . S
H329 C353 0.951 . S
H330 C355 0.951 . S
H331 C357 0.950 . S
H332 C358 0.950 . S
H333 C360 0.950 . S
H334 C363 0.950 . S
H335 C364 0.950 . S
H336 C366 0.950 . S
H337 C367 0.950 . S
C338 H320 0.951 . S
C338 C339 1.366 . S
C338 C340 1.388 . S
C339 C338 1.366 . S
C339 C343 1.385 . S
C340 H321 0.951 . S
C340 C338 1.388 . S
C340 C341 1.366 . S
C341 C340 1.366 . S
C341 C342 1.414 . S
C341 C344 1.499 . S
C342 H322 0.950 . S
C342 C341 1.414 . S
C342 C343 1.374 . S
C343 H323 0.950 . S
C343 C339 1.385 . S
C343 C342 1.374 . S
C344 C341 1.499 . S
C344 C345 1.373 . S
C344 C346 1.389 . S
C345 H324 0.950 . S
C345 C344 1.373 . S
C345 C361 1.377 . S
C346 C344 1.389 . S
C346 C347 1.524 . S
C346 C360 1.377 . S
C347 C346 1.524 . S
C347 C348 1.397 . S
C347 C352 1.363 . S
C348 H325 0.950 . S
C348 C347 1.397 . S
C348 C349 1.334 . S
C349 H326 0.950 . S
C349 C348 1.334 . S
C349 C350 1.287 . S
C350 C349 1.287 . S
C350 C351 1.524 . S
C350 H369 0.913 . S
C351 H327 0.950 . S
C351 C350 1.524 . S
C351 C352 1.415 . S
C352 H328 0.950 . S
C352 C347 1.363 . S
C352 C351 1.415 . S
C353 H329 0.951 . S
C353 C354 1.366 . S
C353 C355 1.388 . S
C354 C353 1.366 . S
C354 C358 1.385 . S
C355 H330 0.951 . S
C355 C353 1.388 . S
C355 C356 1.366 . S
C356 C355 1.366 . S
C356 C357 1.414 . S
C356 C359 1.499 . S
C357 H331 0.950 . S
C357 C356 1.414 . S
C357 C358 1.374 . S
C358 H332 0.950 . S
C358 C354 1.385 . S
C358 C357 1.374 . S
C359 C356 1.499 . S
C359 C360 1.373 . S
C359 C361 1.389 . S
C360 H333 0.950 . S
C360 C346 1.377 . S
C360 C359 1.373 . S
C361 C345 1.377 . S
C361 C359 1.389 . S
C361 C362 1.524 . S
C362 C361 1.524 . S
C362 C363 1.397 . S
C362 C367 1.363 . S
C363 H334 0.950 . S
C363 C362 1.397 . S
C363 C364 1.334 . S
C364 H335 0.950 . S
C364 C363 1.334 . S
C364 C365 1.287 . S
C365 C364 1.287 . S
C365 C366 1.524 . S
C365 H368 0.999 . S
C366 H336 0.950 . S
C366 C365 1.524 . S
C366 C367 1.415 . S
C367 H337 0.950 . S
C367 C362 1.363 . S
C367 C366 1.415 . S
H368 C365 0.999 . S
H369 C350 0.913 . S
H370 C388 0.951 . S
H371 C390 0.951 . S
H372 C392 0.950 . S
H373 C393 0.950 . S
H374 C395 0.950 . S
H375 C398 0.950 . S
H376 C399 0.950 . S
H377 C401 0.950 . S
H378 C402 0.950 . S
H379 C403 0.951 . S
H380 C405 0.951 . S
H381 C407 0.950 . S
H382 C408 0.950 . S
H383 C410 0.950 . S
H384 C413 0.950 . S
H385 C414 0.950 . S
H386 C416 0.950 . S
H387 C417 0.950 . S
C388 H370 0.951 . S
C388 C389 1.366 . S
C388 C390 1.388 . S
C389 C388 1.366 . S
C389 C393 1.385 . S
C390 H371 0.951 . S
C390 C388 1.388 . S
C390 C391 1.366 . S
C391 C390 1.366 . S
C391 C392 1.414 . S
C391 C394 1.499 . S
C392 H372 0.950 . S
C392 C391 1.414 . S
C392 C393 1.374 . S
C393 H373 0.950 . S
C393 C389 1.385 . S
C393 C392 1.374 . S
C394 C391 1.499 . S
C394 C395 1.373 . S
C394 C396 1.389 . S
C395 H374 0.950 . S
C395 C394 1.373 . S
C395 C411 1.377 . S
C396 C394 1.389 . S
C396 C397 1.524 . S
C396 C410 1.377 . S
C397 C396 1.524 . S
C397 C398 1.397 . S
C397 C402 1.363 . S
C398 H375 0.950 . S
C398 C397 1.397 . S
C398 C399 1.334 . S
C399 H376 0.950 . S
C399 C398 1.334 . S
C399 C400 1.287 . S
C400 C399 1.287 . S
C400 C401 1.524 . S
C400 H419 0.913 . S
C401 H377 0.950 . S
C401 C400 1.524 . S
C401 C402 1.415 . S
C402 H378 0.950 . S
C402 C397 1.363 . S
C402 C401 1.415 . S
C403 H379 0.951 . S
C403 C404 1.366 . S
C403 C405 1.388 . S
C404 C403 1.366 . S
C404 C408 1.385 . S
C405 H380 0.951 . S
C405 C403 1.388 . S
C405 C406 1.366 . S
C406 C405 1.366 . S
C406 C407 1.414 . S
C406 C409 1.499 . S
C407 H381 0.950 . S
C407 C406 1.414 . S
C407 C408 1.374 . S
C408 H382 0.950 . S
C408 C404 1.385 . S
C408 C407 1.374 . S
C409 C406 1.499 . S
C409 C410 1.373 . S
C409 C411 1.389 . S
C410 H383 0.950 . S
C410 C396 1.377 . S
C410 C409 1.373 . S
C411 C395 1.377 . S
C411 C409 1.389 . S
C411 C412 1.524 . S
C412 C411 1.524 . S
C412 C413 1.397 . S
C412 C417 1.363 . S
C413 H384 0.950 . S
C413 C412 1.397 . S
C413 C414 1.334 . S
C414 H385 0.950 . S
C414 C413 1.334 . S
C414 C415 1.287 . S
C415 C414 1.287 . S
C415 C416 1.524 . S
C415 H418 0.999 . S
C416 H386 0.950 . S
C416 C415 1.524 . S
C416 C417 1.415 . S
C417 H387 0.950 . S
C417 C412 1.363 . S
C417 C416 1.415 . S
H418 C415 0.999 . S
H419 C400 0.913 . S
H420 C438 0.951 . S
H421 C440 0.951 . S
H422 C442 0.950 . S
H423 C443 0.950 . S
H424 C445 0.950 . S
H425 C448 0.950 . S
H426 C449 0.950 . S
H427 C451 0.950 . S
H428 C452 0.950 . S
H429 C453 0.951 . S
H430 C455 0.951 . S
H431 C457 0.950 . S
H432 C458 0.950 . S
H433 C460 0.950 . S
H434 C463 0.950 . S
H435 C464 0.950 . S
H436 C466 0.950 . S
H437 C467 0.950 . S
C438 H420 0.951 . S
C438 C439 1.366 . S
C438 C440 1.388 . S
C439 C438 1.366 . S
C439 C443 1.385 . S
C440 H421 0.951 . S
C440 C438 1.388 . S
C440 C441 1.366 . S
C441 C440 1.366 . S
C441 C442 1.414 . S
C441 C444 1.499 . S
C442 H422 0.950 . S
C442 C441 1.414 . S
C442 C443 1.374 . S
C443 H423 0.950 . S
C443 C439 1.385 . S
C443 C442 1.374 . S
C444 C441 1.499 . S
C444 C445 1.373 . S
C444 C446 1.389 . S
C445 H424 0.950 . S
C445 C444 1.373 . S
C445 C461 1.377 . S
C446 C444 1.389 . S
C446 C447 1.524 . S
C446 C460 1.377 . S
C447 C446 1.524 . S
C447 C448 1.397 . S
C447 C452 1.363 . S
C448 H425 0.950 . S
C448 C447 1.397 . S
C448 C449 1.334 . S
C449 H426 0.950 . S
C449 C448 1.334 . S
C449 C450 1.287 . S
C450 C449 1.287 . S
C450 C451 1.524 . S
C450 H469 0.913 . S
C451 H427 0.950 . S
C451 C450 1.524 . S
C451 C452 1.415 . S
C452 H428 0.950 . S
C452 C447 1.363 . S
C452 C451 1.415 . S
C453 H429 0.951 . S
C453 C454 1.366 . S
C453 C455 1.388 . S
C454 C453 1.366 . S
C454 C458 1.385 . S
C455 H430 0.951 . S
C455 C453 1.388 . S
C455 C456 1.366 . S
C456 C455 1.366 . S
C456 C457 1.414 . S
C456 C459 1.499 . S
C457 H431 0.950 . S
C457 C456 1.414 . S
C457 C458 1.374 . S
C458 H432 0.950 . S
C458 C454 1.385 . S
C458 C457 1.374 . S
C459 C456 1.499 . S
C459 C460 1.373 . S
C459 C461 1.389 . S
C460 H433 0.950 . S
C460 C446 1.377 . S
C460 C459 1.373 . S
C461 C445 1.377 . S
C461 C459 1.389 . S
C461 C462 1.524 . S
C462 C461 1.524 . S
C462 C463 1.397 . S
C462 C467 1.363 . S
C463 H434 0.950 . S
C463 C462 1.397 . S
C463 C464 1.334 . S
C464 H435 0.950 . S
C464 C463 1.334 . S
C464 C465 1.287 . S
C465 C464 1.287 . S
C465 C466 1.524 . S
C465 H468 0.999 . S
C466 H436 0.950 . S
C466 C465 1.524 . S
C466 C467 1.415 . S
C467 H437 0.950 . S
C467 C462 1.363 . S
C467 C466 1.415 . S
H468 C465 0.999 . S
H469 C450 0.913 . S
H470 C488 0.951 . S
H471 C490 0.951 . S
H472 C492 0.950 . S
H473 C493 0.950 . S
H474 C495 0.950 . S
H475 C498 0.950 . S
H476 C499 0.950 . S
H477 C501 0.950 . S
H478 C502 0.950 . S
H479 C503 0.951 . S
H480 C505 0.951 . S
H481 C507 0.950 . S
H482 C508 0.950 . S
H483 C510 0.950 . S
H484 C513 0.950 . S
H485 C514 0.950 . S
H486 C516 0.950 . S
H487 C517 0.950 . S
C488 H470 0.951 . S
C488 C489 1.366 . S
C488 C490 1.388 . S
C489 C488 1.366 . S
C489 C493 1.385 . S
C490 H471 0.951 . S
C490 C488 1.388 . S
C490 C491 1.366 . S
C491 C490 1.366 . S
C491 C492 1.414 . S
C491 C494 1.499 . S
C492 H472 0.950 . S
C492 C491 1.414 . S
C492 C493 1.374 . S
C493 H473 0.950 . S
C493 C489 1.385 . S
C493 C492 1.374 . S
C494 C491 1.499 . S
C494 C495 1.373 . S
C494 C496 1.389 . S
C495 H474 0.950 . S
C495 C494 1.373 . S
C495 C511 1.377 . S
C496 C494 1.389 . S
C496 C497 1.524 . S
C496 C510 1.377 . S
C497 C496 1.524 . S
C497 C498 1.397 . S
C497 C502 1.363 . S
C498 H475 0.950 . S
C498 C497 1.397 . S
C498 C499 1.334 . S
C499 H476 0.950 . S
C499 C498 1.334 . S
C499 C500 1.287 . S
C500 C499 1.287 . S
C500 C501 1.524 . S
C500 H519 0.913 . S
C501 H477 0.950 . S
C501 C500 1.524 . S
C501 C502 1.415 . S
C502 H478 0.950 . S
C502 C497 1.363 . S
C502 C501 1.415 . S
C503 H479 0.951 . S
C503 C504 1.366 . S
C503 C505 1.388 . S
C504 C503 1.366 . S
C504 C508 1.385 . S
C505 H480 0.951 . S
C505 C503 1.388 . S
C505 C506 1.366 . S
C506 C505 1.366 . S
C506 C507 1.414 . S
C506 C509 1.499 . S
C507 H481 0.950 . S
C507 C506 1.414 . S
C507 C508 1.374 . S
C508 H482 0.950 . S
C508 C504 1.385 . S
C508 C507 1.374 . S
C509 C506 1.499 . S
C509 C510 1.373 . S
C509 C511 1.389 . S
C510 H483 0.950 . S
C510 C496 1.377 . S
C510 C509 1.373 . S
C511 C495 1.377 . S
C511 C509 1.389 . S
C511 C512 1.524 . S
C512 C511 1.524 . S
C512 C513 1.397 . S
C512 C517 1.363 . S
C513 H484 0.950 . S
C513 C512 1.397 . S
C513 C514 1.334 . S
C514 H485 0.950 . S
C514 C513 1.334 . S
C514 C515 1.287 . S
C515 C514 1.287 . S
C515 C516 1.524 . S
C515 H518 0.999 . S
C516 H486 0.950 . S
C516 C515 1.524 . S
C516 C517 1.415 . S
C517 H487 0.950 . S
C517 C512 1.363 . S
C517 C516 1.415 . S
H518 C515 0.999 . S
H519 C500 0.913 . S
H520 C538 0.951 1_554 S
H521 C540 0.951 . S
H522 C542 0.950 . S
H523 C543 0.950 . S
H524 C545 0.950 . S
H525 C548 0.950 . S
H526 C549 0.950 . S
H527 C551 0.950 . S
H528 C552 0.950 . S
H529 C553 0.951 1_556 S
H530 C555 0.951 . S
H531 C557 0.950 . S
H532 C558 0.950 . S
H533 C560 0.950 . S
H534 C563 0.950 . S
H535 C564 0.950 . S
H536 C566 0.950 . S
H537 C567 0.950 . S
C538 H520 0.951 1_556 S
C538 C539 1.366 . S
C538 C540 1.388 1_556 S
C539 C538 1.366 . S
C539 C543 1.385 . S
C540 H521 0.951 . S
C540 C538 1.388 1_554 S
C540 C541 1.366 1_554 S
C541 C540 1.366 1_556 S
C541 C542 1.414 . S
C541 C544 1.499 . S
C542 H522 0.950 . S
C542 C541 1.414 . S
C542 C543 1.374 . S
C543 H523 0.950 . S
C543 C539 1.385 . S
C543 C542 1.374 . S
C544 C541 1.499 . S
C544 C545 1.373 . S
C544 C546 1.389 1_556 S
C545 H524 0.950 . S
C545 C544 1.373 . S
C545 C561 1.377 . S
C546 C544 1.389 1_554 S
C546 C547 1.524 . S
C546 C560 1.377 . S
C547 C546 1.524 . S
C547 C548 1.397 . S
C547 C552 1.363 . S
C548 H525 0.950 . S
C548 C547 1.397 . S
C548 C549 1.334 . S
C549 H526 0.950 . S
C549 C548 1.334 . S
C549 C550 1.287 . S
C550 C549 1.287 . S
C550 C551 1.524 . S
C550 H569 0.913 . S
C551 H527 0.950 . S
C551 C550 1.524 . S
C551 C552 1.415 . S
C552 H528 0.950 . S
C552 C547 1.363 . S
C552 C551 1.415 . S
C553 H529 0.951 1_554 S
C553 C554 1.366 . S
C553 C555 1.388 1_554 S
C554 C553 1.366 . S
C554 C558 1.385 . S
C555 H530 0.951 . S
C555 C553 1.388 1_556 S
C555 C556 1.366 1_556 S
C556 C555 1.366 1_554 S
C556 C557 1.414 . S
C556 C559 1.499 . S
C557 H531 0.950 . S
C557 C556 1.414 . S
C557 C558 1.374 . S
C558 H532 0.950 . S
C558 C554 1.385 . S
C558 C557 1.374 . S
C559 C556 1.499 . S
C559 C560 1.373 . S
C559 C561 1.389 1_554 S
C560 H533 0.950 . S
C560 C546 1.377 . S
C560 C559 1.373 . S
C561 C545 1.377 . S
C561 C559 1.389 1_556 S
C561 C562 1.524 . S
C562 C561 1.524 . S
C562 C563 1.397 . S
C562 C567 1.363 . S
C563 H534 0.950 . S
C563 C562 1.397 . S
C563 C564 1.334 . S
C564 H535 0.950 . S
C564 C563 1.334 . S
C564 C565 1.287 . S
C565 C564 1.287 . S
C565 C566 1.524 . S
C565 H568 0.999 . S
C566 H536 0.950 . S
C566 C565 1.524 . S
C566 C567 1.415 . S
C567 H537 0.950 . S
C567 C562 1.363 . S
C567 C566 1.415 . S
H568 C565 0.999 . S
H569 C550 0.913 . S
H570 C588 0.951 . S
H571 C590 0.951 . S
H572 C592 0.950 . S
H573 C593 0.950 . S
H574 C595 0.950 . S
H575 C598 0.950 1_554 S
H576 C599 0.950 . S
H577 C601 0.950 . S
H578 C602 0.950 . S
H579 C603 0.951 . S
H580 C605 0.951 . S
H581 C607 0.950 . S
H582 C608 0.950 . S
H583 C610 0.950 . S
H584 C613 0.950 1_556 S
H585 C614 0.950 . S
H586 C616 0.950 . S
H587 C617 0.950 . S
C588 H570 0.951 . S
C588 C589 1.366 . S
C588 C590 1.388 . S
C589 C588 1.366 . S
C589 C593 1.385 1_556 S
C590 H571 0.951 . S
C590 C588 1.388 . S
C590 C591 1.366 . S
C591 C590 1.366 . S
C591 C592 1.414 1_556 S
C591 C594 1.499 1_556 S
C592 H572 0.950 . S
C592 C591 1.414 1_554 S
C592 C593 1.374 . S
C593 H573 0.950 . S
C593 C589 1.385 1_554 S
C593 C592 1.374 . S
C594 C591 1.499 1_554 S
C594 C595 1.373 . S
C594 C596 1.389 1_554 S
C595 H574 0.950 . S
C595 C594 1.373 . S
C595 C611 1.377 . S
C596 C594 1.389 1_556 S
C596 C597 1.524 . S
C596 C610 1.377 . S
C597 C596 1.524 . S
C597 C598 1.397 . S
C597 C602 1.363 . S
C598 H575 0.950 1_556 S
C598 C597 1.397 . S
C598 C599 1.334 . S
C599 H576 0.950 . S
C599 C598 1.334 . S
C599 C600 1.287 . S
C600 C599 1.287 . S
C600 C601 1.524 . S
C600 H619 0.913 . S
C601 H577 0.950 . S
C601 C600 1.524 . S
C601 C602 1.415 . S
C602 H578 0.950 . S
C602 C597 1.363 . S
C602 C601 1.415 . S
C603 H579 0.951 . S
C603 C604 1.366 . S
C603 C605 1.388 . S
C604 C603 1.366 . S
C604 C608 1.385 1_554 S
C605 H580 0.951 . S
C605 C603 1.388 . S
C605 C606 1.366 . S
C606 C605 1.366 . S
C606 C607 1.414 1_554 S
C606 C609 1.499 1_554 S
C607 H581 0.950 . S
C607 C606 1.414 1_556 S
C607 C608 1.374 . S
C608 H582 0.950 . S
C608 C604 1.385 1_556 S
C608 C607 1.374 . S
C609 C606 1.499 1_556 S
C609 C610 1.373 . S
C609 C611 1.389 1_556 S
C610 H583 0.950 . S
C610 C596 1.377 . S
C610 C609 1.373 . S
C611 C595 1.377 . S
C611 C609 1.389 1_554 S
C611 C612 1.524 . S
C612 C611 1.524 . S
C612 C613 1.397 . S
C612 C617 1.363 . S
C613 H584 0.950 1_554 S
C613 C612 1.397 . S
C613 C614 1.334 . S
C614 H585 0.950 . S
C614 C613 1.334 . S
C614 C615 1.287 . S
C615 C614 1.287 . S
C615 C616 1.524 . S
C615 H618 0.999 . S
C616 H586 0.950 . S
C616 C615 1.524 . S
C616 C617 1.415 . S
C617 H587 0.950 . S
C617 C612 1.363 . S
C617 C616 1.415 . S
H618 C615 0.999 . S
H619 C600 0.913 . S
H620 C638 0.951 1_556 S
H621 C640 0.963 . S
H622 C642 0.950 . S
H623 C643 0.950 . S
H624 C645 0.950 . S
H625 C648 0.950 . S
H626 C649 0.950 . S
H627 C651 0.950 . S
H628 C652 0.950 . S
H629 C653 0.951 1_554 S
H630 C655 0.963 . S
H631 C657 0.950 . S
H632 C658 0.950 . S
H633 C660 0.950 . S
H634 C663 0.950 . S
H635 C664 0.950 . S
H636 C666 0.950 . S
H637 C667 0.950 . S
C638 H620 0.951 1_554 S
C638 C639 1.366 . S
C638 C640 1.388 1_554 S
C639 C638 1.366 . S
C639 C643 1.385 . S
C640 H621 0.963 . S
C640 C638 1.388 1_556 S
C640 C641 1.354 1_556 S
C641 C640 1.354 1_554 S
C641 C642 1.414 . S
C641 C644 1.499 . S
C642 H622 0.950 . S
C642 C641 1.414 . S
C642 C643 1.374 . S
C643 H623 0.950 . S
C643 C639 1.385 . S
C643 C642 1.374 . S
C644 C641 1.499 . S
C644 C645 1.373 . S
C644 C646 1.389 1_554 S
C645 H624 0.950 . S
C645 C644 1.373 . S
C645 C661 1.377 . S
C646 C644 1.389 1_556 S
C646 C647 1.524 . S
C646 C660 1.377 . S
C647 C646 1.524 . S
C647 C648 1.397 . S
C647 C652 1.363 . S
C648 H625 0.950 . S
C648 C647 1.397 . S
C648 C649 1.334 . S
C649 H626 0.950 . S
C649 C648 1.334 . S
C649 C650 1.287 . S
C650 C649 1.287 . S
C650 C651 1.524 . S
C650 H669 0.913 . S
C651 H627 0.950 . S
C651 C650 1.524 . S
C651 C652 1.415 . S
C652 H628 0.950 . S
C652 C647 1.363 . S
C652 C651 1.415 . S
C653 H629 0.951 1_556 S
C653 C654 1.366 . S
C653 C655 1.388 1_556 S
C654 C653 1.366 . S
C654 C658 1.385 . S
C655 H630 0.963 . S
C655 C653 1.388 1_554 S
C655 C656 1.354 1_554 S
C656 C655 1.354 1_556 S
C656 C657 1.414 . S
C656 C659 1.499 . S
C657 H631 0.950 . S
C657 C656 1.414 . S
C657 C658 1.374 . S
C658 H632 0.950 . S
C658 C654 1.385 . S
C658 C657 1.374 . S
C659 C656 1.499 . S
C659 C660 1.373 . S
C659 C661 1.389 1_556 S
C660 H633 0.950 . S
C660 C646 1.377 . S
C660 C659 1.373 . S
C661 C645 1.377 . S
C661 C659 1.389 1_554 S
C661 C662 1.524 . S
C662 C661 1.524 . S
C662 C663 1.397 . S
C662 C667 1.363 . S
C663 H634 0.950 . S
C663 C662 1.397 . S
C663 C664 1.334 . S
C664 H635 0.950 . S
C664 C663 1.334 . S
C664 C665 1.287 . S
C665 C664 1.287 . S
C665 C666 1.524 . S
C665 H668 0.999 . S
C666 H636 0.950 . S
C666 C665 1.524 . S
C666 C667 1.415 . S
C667 H637 0.950 . S
C667 C662 1.363 . S
C667 C666 1.415 . S
H668 C665 0.999 . S
H669 C650 0.913 . S
H670 C688 0.951 . S
H671 C690 0.951 . S
H672 C692 0.950 . S
H673 C693 0.950 . S
H674 C695 0.950 . S
H675 C698 0.950 1_554 S
H676 C699 0.950 . S
H677 C701 0.950 . S
H678 C702 0.950 . S
H679 C703 0.951 . S
H680 C705 0.951 . S
H681 C707 0.950 . S
H682 C708 0.950 . S
H683 C710 0.950 . S
H684 C713 0.950 1_556 S
H685 C714 0.950 . S
H686 C716 0.950 . S
H687 C717 0.950 . S
C688 H670 0.951 . S
C688 C689 1.366 1_556 S
C688 C690 1.388 . S
C689 C688 1.366 1_554 S
C689 C693 1.385 . S
C690 H671 0.951 . S
C690 C688 1.388 . S
C690 C691 1.366 1_556 S
C691 C690 1.366 1_554 S
C691 C692 1.414 . S
C691 C694 1.499 . S
C692 H672 0.950 . S
C692 C691 1.414 . S
C692 C693 1.374 . S
C693 H673 0.950 . S
C693 C689 1.385 . S
C693 C692 1.374 . S
C694 C691 1.499 . S
C694 C695 1.373 . S
C694 C696 1.389 1_554 S
C695 H674 0.950 . S
C695 C694 1.373 . S
C695 C711 1.377 . S
C696 C694 1.389 1_556 S
C696 C697 1.524 . S
C696 C710 1.377 . S
C697 C696 1.524 . S
C697 C698 1.397 . S
C697 C702 1.363 . S
C698 H675 0.950 1_556 S
C698 C697 1.397 . S
C698 C699 1.334 . S
C699 H676 0.950 . S
C699 C698 1.334 . S
C699 C700 1.287 . S
C700 C699 1.287 . S
C700 C701 1.524 . S
C700 H719 0.913 . S
C701 H677 0.950 . S
C701 C700 1.524 . S
C701 C702 1.415 . S
C702 H678 0.950 . S
C702 C697 1.363 . S
C702 C701 1.415 . S
C703 H679 0.951 . S
C703 C704 1.366 1_554 S
C703 C705 1.388 . S
C704 C703 1.366 1_556 S
C704 C708 1.385 . S
C705 H680 0.951 . S
C705 C703 1.388 . S
C705 C706 1.366 1_554 S
C706 C705 1.366 1_556 S
C706 C707 1.414 . S
C706 C709 1.499 . S
C707 H681 0.950 . S
C707 C706 1.414 . S
C707 C708 1.374 . S
C708 H682 0.950 . S
C708 C704 1.385 . S
C708 C707 1.374 . S
C709 C706 1.499 . S
C709 C710 1.373 . S
C709 C711 1.389 1_556 S
C710 H683 0.950 . S
C710 C696 1.377 . S
C710 C709 1.373 . S
C711 C695 1.377 . S
C711 C709 1.389 1_554 S
C711 C712 1.524 . S
C712 C711 1.524 . S
C712 C713 1.397 . S
C712 C717 1.363 . S
C713 H684 0.950 1_554 S
C713 C712 1.397 . S
C713 C714 1.334 . S
C714 H685 0.950 . S
C714 C713 1.334 . S
C714 C715 1.287 . S
C715 C714 1.287 . S
C715 C716 1.524 . S
C715 H718 0.999 . S
C716 H686 0.950 . S
C716 C715 1.524 . S
C716 C717 1.415 . S
C717 H687 0.950 . S
C717 C712 1.363 . S
C717 C716 1.415 . S
H718 C715 0.999 . S
H719 C700 0.913 . S
C139 C61 2.274 . S
C154 C10 2.274 . S
C189 C31 2.328 . S
C204 C100 2.328 . S
C239 C91 2.275 . S
C254 C40 2.275 . S
C289 C1 2.328 . S
C304 C70 2.328 . S
C339 N96 1.560 . S
C354 N14 1.560 . S
C389 C87 1.596 . S
C404 C46 1.596 . S
C439 N66 1.560 . S
C454 N44 1.560 . S
C489 C16 1.596 . S
C504 C117 1.596 . S
C539 C106 0.619 . S
C554 C27 0.619 . S
C589 N74 0.402 . S
C604 N36 0.402 . S
C639 C57 0.619 . S
C654 C76 0.619 . S
C689 N6 0.401 . S
C704 N104 0.401 . S
