# Generated by pormake.
# Topology uke, (4)-cn, num edge types: 1
# Building blocks:
#     Node 0, Type 0, BuildingBlock: GALJAG_clean_sbu_0, # of connection points: 4
#     Node 1, Type 0, BuildingBlock: GALJAG_clean_sbu_0, # of connection points: 4
#     Node 2, Type 0, BuildingBlock: GALJAG_clean_sbu_0, # of connection points: 4
#     Node 3, Type 0, BuildingBlock: GALJAG_clean_sbu_0, # of connection points: 4
#     Node 4, Type 0, BuildingBlock: GALJAG_clean_sbu_0, # of connection points: 4
#     Node 5, Type 0, BuildingBlock: GALJAG_clean_sbu_0, # of connection points: 4
#     Node 6, Type 0, BuildingBlock: GALJAG_clean_sbu_0, # of connection points: 4
#     Node 7, Type 0, BuildingBlock: GALJAG_clean_sbu_0, # of connection points: 4
#     Node 8, Type 0, BuildingBlock: GALJAG_clean_sbu_0, # of connection points: 4
#     Node 9, Type 0, BuildingBlock: GALJAG_clean_sbu_0, # of connection points: 4
#     Node 10, Type 0, BuildingBlock: GALJAG_clean_sbu_0, # of connection points: 4
#     Node 11, Type 0, BuildingBlock: GALJAG_clean_sbu_0, # of connection points: 4
#     Node 12, Type 0, BuildingBlock: GALJAG_clean_sbu_0, # of connection points: 4
#     Node 13, Type 0, BuildingBlock: GALJAG_clean_sbu_0, # of connection points: 4
#     Node 14, Type 0, BuildingBlock: GALJAG_clean_sbu_0, # of connection points: 4
#     Node 15, Type 0, BuildingBlock: GALJAG_clean_sbu_0, # of connection points: 4
#     Node 16, Type 0, BuildingBlock: GALJAG_clean_sbu_0, # of connection points: 4
#     Node 17, Type 0, BuildingBlock: GALJAG_clean_sbu_0, # of connection points: 4
#     Node 18, Type 0, BuildingBlock: GALJAG_clean_sbu_0, # of connection points: 4
#     Node 19, Type 0, BuildingBlock: GALJAG_clean_sbu_0, # of connection points: 4
#     Node 20, Type 0, BuildingBlock: GALJAG_clean_sbu_0, # of connection points: 4
#     Node 21, Type 0, BuildingBlock: GALJAG_clean_sbu_0, # of connection points: 4
#     Node 22, Type 0, BuildingBlock: GALJAG_clean_sbu_0, # of connection points: 4
#     Node 23, Type 0, BuildingBlock: GALJAG_clean_sbu_0, # of connection points: 4
#     Node 24, Type 0, BuildingBlock: GALJAG_clean_sbu_0, # of connection points: 4
#     Node 25, Type 0, BuildingBlock: GALJAG_clean_sbu_0, # of connection points: 4
#     Node 26, Type 0, BuildingBlock: GALJAG_clean_sbu_0, # of connection points: 4
#     Node 27, Type 0, BuildingBlock: GALJAG_clean_sbu_0, # of connection points: 4
#     Node 28, Type 0, BuildingBlock: GALJAG_clean_sbu_0, # of connection points: 4
#     Node 29, Type 0, BuildingBlock: GALJAG_clean_sbu_0, # of connection points: 4
#     Node 30, Type 0, BuildingBlock: GALJAG_clean_sbu_0, # of connection points: 4
#     Node 31, Type 0, BuildingBlock: GALJAG_clean_sbu_0, # of connection points: 4
#     Edge 32, Type (0, 0), BuildingBlock: KIFKEQ_clean_linker_1, # of connection points: 2
#     Edge 33, Type (0, 0), BuildingBlock: KIFKEQ_clean_linker_1, # of connection points: 2
#     Edge 34, Type (0, 0), BuildingBlock: KIFKEQ_clean_linker_1, # of connection points: 2
#     Edge 35, Type (0, 0), BuildingBlock: KIFKEQ_clean_linker_1, # of connection points: 2
#     Edge 36, Type (0, 0), BuildingBlock: KIFKEQ_clean_linker_1, # of connection points: 2
#     Edge 37, Type (0, 0), BuildingBlock: KIFKEQ_clean_linker_1, # of connection points: 2
#     Edge 38, Type (0, 0), BuildingBlock: KIFKEQ_clean_linker_1, # of connection points: 2
#     Edge 39, Type (0, 0), BuildingBlock: KIFKEQ_clean_linker_1, # of connection points: 2
#     Edge 40, Type (0, 0), BuildingBlock: KIFKEQ_clean_linker_1, # of connection points: 2
#     Edge 41, Type (0, 0), BuildingBlock: KIFKEQ_clean_linker_1, # of connection points: 2
#     Edge 42, Type (0, 0), BuildingBlock: KIFKEQ_clean_linker_1, # of connection points: 2
#     Edge 43, Type (0, 0), BuildingBlock: KIFKEQ_clean_linker_1, # of connection points: 2
#     Edge 44, Type (0, 0), BuildingBlock: KIFKEQ_clean_linker_1, # of connection points: 2
#     Edge 45, Type (0, 0), BuildingBlock: KIFKEQ_clean_linker_1, # of connection points: 2
#     Edge 46, Type (0, 0), BuildingBlock: KIFKEQ_clean_linker_1, # of connection points: 2
#     Edge 47, Type (0, 0), BuildingBlock: KIFKEQ_clean_linker_1, # of connection points: 2
#     Edge 48, Type (0, 0), BuildingBlock: KIFKEQ_clean_linker_1, # of connection points: 2
#     Edge 49, Type (0, 0), BuildingBlock: KIFKEQ_clean_linker_1, # of connection points: 2
#     Edge 50, Type (0, 0), BuildingBlock: KIFKEQ_clean_linker_1, # of connection points: 2
#     Edge 51, Type (0, 0), BuildingBlock: KIFKEQ_clean_linker_1, # of connection points: 2
#     Edge 52, Type (0, 0), BuildingBlock: KIFKEQ_clean_linker_1, # of connection points: 2
#     Edge 53, Type (0, 0), BuildingBlock: KIFKEQ_clean_linker_1, # of connection points: 2
#     Edge 54, Type (0, 0), BuildingBlock: KIFKEQ_clean_linker_1, # of connection points: 2
#     Edge 55, Type (0, 0), BuildingBlock: KIFKEQ_clean_linker_1, # of connection points: 2
#     Edge 56, Type (0, 0), BuildingBlock: KIFKEQ_clean_linker_1, # of connection points: 2
#     Edge 57, Type (0, 0), BuildingBlock: KIFKEQ_clean_linker_1, # of connection points: 2
#     Edge 58, Type (0, 0), BuildingBlock: KIFKEQ_clean_linker_1, # of connection points: 2
#     Edge 59, Type (0, 0), BuildingBlock: KIFKEQ_clean_linker_1, # of connection points: 2
#     Edge 60, Type (0, 0), BuildingBlock: KIFKEQ_clean_linker_1, # of connection points: 2
#     Edge 61, Type (0, 0), BuildingBlock: KIFKEQ_clean_linker_1, # of connection points: 2
#     Edge 62, Type (0, 0), BuildingBlock: KIFKEQ_clean_linker_1, # of connection points: 2
#     Edge 63, Type (0, 0), BuildingBlock: KIFKEQ_clean_linker_1, # of connection points: 2
#     Edge 64, Type (0, 0), BuildingBlock: KIFKEQ_clean_linker_1, # of connection points: 2
#     Edge 65, Type (0, 0), BuildingBlock: KIFKEQ_clean_linker_1, # of connection points: 2
#     Edge 66, Type (0, 0), BuildingBlock: KIFKEQ_clean_linker_1, # of connection points: 2
#     Edge 67, Type (0, 0), BuildingBlock: KIFKEQ_clean_linker_1, # of connection points: 2
#     Edge 68, Type (0, 0), BuildingBlock: KIFKEQ_clean_linker_1, # of connection points: 2
#     Edge 69, Type (0, 0), BuildingBlock: KIFKEQ_clean_linker_1, # of connection points: 2
#     Edge 70, Type (0, 0), BuildingBlock: KIFKEQ_clean_linker_1, # of connection points: 2
#     Edge 71, Type (0, 0), BuildingBlock: KIFKEQ_clean_linker_1, # of connection points: 2
#     Edge 72, Type (0, 0), BuildingBlock: KIFKEQ_clean_linker_1, # of connection points: 2
#     Edge 73, Type (0, 0), BuildingBlock: KIFKEQ_clean_linker_1, # of connection points: 2
#     Edge 74, Type (0, 0), BuildingBlock: KIFKEQ_clean_linker_1, # of connection points: 2
#     Edge 75, Type (0, 0), BuildingBlock: KIFKEQ_clean_linker_1, # of connection points: 2
#     Edge 76, Type (0, 0), BuildingBlock: KIFKEQ_clean_linker_1, # of connection points: 2
#     Edge 77, Type (0, 0), BuildingBlock: KIFKEQ_clean_linker_1, # of connection points: 2
#     Edge 78, Type (0, 0), BuildingBlock: KIFKEQ_clean_linker_1, # of connection points: 2
#     Edge 79, Type (0, 0), BuildingBlock: KIFKEQ_clean_linker_1, # of connection points: 2
#     Edge 80, Type (0, 0), BuildingBlock: KIFKEQ_clean_linker_1, # of connection points: 2
#     Edge 81, Type (0, 0), BuildingBlock: KIFKEQ_clean_linker_1, # of connection points: 2
#     Edge 82, Type (0, 0), BuildingBlock: KIFKEQ_clean_linker_1, # of connection points: 2
#     Edge 83, Type (0, 0), BuildingBlock: KIFKEQ_clean_linker_1, # of connection points: 2
#     Edge 84, Type (0, 0), BuildingBlock: KIFKEQ_clean_linker_1, # of connection points: 2
#     Edge 85, Type (0, 0), BuildingBlock: KIFKEQ_clean_linker_1, # of connection points: 2
#     Edge 86, Type (0, 0), BuildingBlock: KIFKEQ_clean_linker_1, # of connection points: 2
#     Edge 87, Type (0, 0), BuildingBlock: KIFKEQ_clean_linker_1, # of connection points: 2
#     Edge 88, Type (0, 0), BuildingBlock: KIFKEQ_clean_linker_1, # of connection points: 2
#     Edge 89, Type (0, 0), BuildingBlock: KIFKEQ_clean_linker_1, # of connection points: 2
#     Edge 90, Type (0, 0), BuildingBlock: KIFKEQ_clean_linker_1, # of connection points: 2
#     Edge 91, Type (0, 0), BuildingBlock: KIFKEQ_clean_linker_1, # of connection points: 2
#     Edge 92, Type (0, 0), BuildingBlock: KIFKEQ_clean_linker_1, # of connection points: 2
#     Edge 93, Type (0, 0), BuildingBlock: KIFKEQ_clean_linker_1, # of connection points: 2
#     Edge 94, Type (0, 0), BuildingBlock: KIFKEQ_clean_linker_1, # of connection points: 2
#     Edge 95, Type (0, 0), BuildingBlock: KIFKEQ_clean_linker_1, # of connection points: 2
# Relax obj value: 0.063
# Max RMSD: 0.130
# Mean RMSD: 0.130
data_MOF--net-uke--node1-GALJAG_clean_sbu_0--edge1-KIFKEQ_clean_linker_1
_symmetry_space_group_name_H-M    P1
_symmetry_Int_Tables_number       1
_symmetry_cell_setting            triclinic
loop_
_symmetry_equiv_pos_as_xyz
'x, y, z'
_cell_length_a     21.821865
_cell_length_b     115.01244
_cell_length_c     53.885366
_cell_angle_alpha  90.002786
_cell_angle_beta   90.002454
_cell_angle_gamma 89.99145
loop_
_atom_site_label
_atom_site_type_symbol
_atom_site_fract_x
_atom_site_fract_y
_atom_site_fract_z
_atom_type_partial_charge
In0 In 0.08786 0.05763 0.25864 0.0
O1 O 0.99326 0.05278 0.27308 0.0
O2 O 0.06774 0.05449 0.29883 0.0
C3 C 0.09226 0.06105 0.20971 0.0
C4 C 0.09947 0.07992 0.27173 0.0
C5 C 0.14539 0.03716 0.25729 0.0
O6 O 0.04276 0.05816 0.22046 0.0
O7 O 0.13812 0.06229 0.22377 0.0
O8 O 0.1732 0.04634 0.26401 0.0
O9 O 0.08958 0.03845 0.25177 0.0
C10 C 0.01153 0.05232 0.29544 0.0
O11 O 0.14236 0.07265 0.27549 0.0
O12 O 0.05202 0.07584 0.26144 0.0
In13 In 0.15337 0.1885 0.26373 0.0
O14 O 0.24991 0.19201 0.27766 0.0
O15 O 0.17481 0.19311 0.30324 0.0
C16 C 0.1477 0.1849 0.21486 0.0
C17 C 0.14039 0.16628 0.27724 0.0
C18 C 0.09656 0.20902 0.26195 0.0
O19 O 0.19707 0.18813 0.22526 0.0
O20 O 0.1026 0.18345 0.22923 0.0
O21 O 0.06916 0.19998 0.26972 0.0
O22 O 0.15175 0.20758 0.25556 0.0
C23 C 0.23199 0.19388 0.29972 0.0
O24 O 0.09739 0.17358 0.28045 0.0
O25 O 0.1886 0.17032 0.26756 0.0
In26 In 0.08328 0.18744 0.98133 0.0
O27 O 0.13866 0.17245 0.96489 0.0
O28 O 0.04727 0.16929 0.97787 0.0
C29 C 0.13926 0.20799 0.98467 0.0
C30 C 0.00736 0.19304 0.94458 0.0
C31 C 0.08921 0.18355 0.02999 0.0
O32 O 0.16588 0.1993 0.97482 0.0
O33 O 0.08518 0.2062 0.99209 0.0
O34 O 0.03924 0.18644 0.01957 0.0
O35 O 0.1348 0.18246 0.01568 0.0
C36 C 0.09538 0.1652 0.96812 0.0
O37 O 0.98856 0.19219 0.96681 0.0
O38 O 0.0639 0.19118 0.94134 0.0
In39 In 0.15032 0.05647 0.97592 0.0
O40 O 0.24464 0.05183 0.96101 0.0
O41 O 0.16885 0.05285 0.93574 0.0
C42 C 0.14557 0.06055 0.02453 0.0
C43 C 0.13733 0.07875 0.9632 0.0
C44 C 0.09592 0.03581 0.97986 0.0
O45 O 0.19535 0.05766 0.01395 0.0
O46 O 0.09954 0.0615 0.01041 0.0
O47 O 0.06859 0.04435 0.96974 0.0
O48 O 0.14987 0.03781 0.98721 0.0
C49 C 0.22549 0.05102 0.93882 0.0
O50 O 0.09375 0.07153 0.96036 0.0
O51 O 0.18623 0.0746 0.97215 0.0
In52 In 0.90415 0.93769 0.73059 0.0
O53 O 0.8434 0.92334 0.7144 0.0
O54 O 0.93852 0.9199 0.72073 0.0
C55 C 0.84674 0.95812 0.73414 0.0
C56 C 0.98247 0.94396 0.69516 0.0
C57 C 0.90356 0.93297 0.77919 0.0
O58 O 0.81983 0.94923 0.7254 0.0
O59 O 0.90166 0.95657 0.74073 0.0
O60 O 0.95144 0.93663 0.76838 0.0
O61 O 0.8576 0.93152 0.76532 0.0
C62 C 0.88741 0.91615 0.71324 0.0
O63 O 0.00068 0.94118 0.71674 0.0
O64 O 0.9251 0.94369 0.69187 0.0
In65 In 0.84102 0.80863 0.7301 0.0
O66 O 0.74643 0.80389 0.71561 0.0
O67 O 0.82303 0.80349 0.69067 0.0
C68 C 0.84107 0.81435 0.77808 0.0
C69 C 0.85808 0.83016 0.71303 0.0
C70 C 0.89562 0.78806 0.73624 0.0
O71 O 0.7926 0.81091 0.7673 0.0
O72 O 0.88798 0.81508 0.76443 0.0
O73 O 0.92212 0.79627 0.72466 0.0
O74 O 0.84257 0.79035 0.74419 0.0
C75 C 0.76602 0.80212 0.69374 0.0
O76 O 0.90237 0.82303 0.71477 0.0
O77 O 0.80644 0.82633 0.71979 0.0
In78 In 0.90111 0.80677 0.01049 0.0
O79 O -0.00393 0.80181 0.02443 0.0
O80 O 0.92091 0.80222 0.05006 0.0
C81 C 0.89509 0.81202 0.96239 0.0
C82 C 0.88984 0.82873 0.02571 0.0
C83 C 0.84437 0.78637 0.00554 0.0
O84 O 0.94486 0.80866 0.97233 0.0
O85 O 0.84965 0.81277 0.97687 0.0
O86 O 0.81874 0.79483 0.01661 0.0
O87 O 0.89786 0.7883 -0.00242 0.0
C88 C 0.97754 0.80054 0.04661 0.0
O89 O 0.84577 0.82156 0.0278 0.0
O90 O 0.9383 0.82468 0.01618 0.0
In91 In 0.84348 0.93733 0.01298 0.0
O92 O 0.74867 0.94214 0.02711 0.0
O93 O 0.82272 0.94048 0.05311 0.0
C94 C 0.84982 0.93374 0.96416 0.0
C95 C 0.85376 0.91504 0.02597 0.0
C96 C 0.90054 0.95781 0.01142 0.0
O97 O 0.79982 0.93662 0.97454 0.0
O98 O 0.89521 0.93262 0.97852 0.0
O99 O 0.92847 0.94868 0.01835 0.0
O100 O 0.84473 0.95648 0.0059 0.0
C101 C 0.76648 0.94258 0.04954 0.0
O102 O 0.89693 0.92222 0.03 0.0
O103 O 0.80679 0.91922 0.01552 0.0
In104 In 0.08098 0.55645 0.76085 0.0
O105 O 0.13527 0.57177 0.77653 0.0
O106 O 0.0426 0.57441 0.7645 0.0
C107 C 0.13845 0.53607 0.75713 0.0
C108 C 0.00704 0.55074 0.79815 0.0
C109 C 0.08516 0.56046 0.71223 0.0
O110 O 0.16463 0.5448 0.76698 0.0
O111 O 0.08408 0.53774 0.74992 0.0
O112 O 0.03586 0.55728 0.72279 0.0
O113 O 0.13093 0.56173 0.72637 0.0
C114 C 0.09077 0.57879 0.77362 0.0
O115 O 0.98736 0.55145 0.77601 0.0
O116 O 0.06356 0.55277 0.80103 0.0
In117 In 0.1349 0.68799 0.76215 0.0
O118 O 0.22983 0.6924 0.77655 0.0
O119 O 0.156 0.69043 0.80253 0.0
C120 C 0.13088 0.68539 0.71302 0.0
C121 C 0.12295 0.66549 0.77333 0.0
C122 C 0.08007 0.70872 0.76237 0.0
O123 O 0.18051 0.68783 0.72416 0.0
O124 O 0.08443 0.68421 0.7268 0.0
O125 O 0.051 0.69958 0.76851 0.0
O126 O 0.1356 0.70722 0.75661 0.0
C127 C 0.21223 0.69255 0.799 0.0
O128 O 0.0799 0.67267 0.7776 0.0
O129 O 0.17052 0.66977 0.76355 0.0
In130 In 0.0966 0.68708 0.47796 0.0
O131 O 0.15098 0.67168 0.46263 0.0
O132 O 0.05925 0.66898 0.47559 0.0
C133 C 0.1564 0.70731 0.47948 0.0
C134 C 0.02314 0.69235 0.44022 0.0
C135 C 0.09494 0.68422 0.52707 0.0
O136 O 0.18397 0.69795 0.4738 0.0
O137 O 0.0998 0.70631 0.48379 0.0
O138 O 0.04716 0.68722 0.51524 0.0
O139 O 0.14217 0.68259 0.51396 0.0
C140 C 0.1071 0.66461 0.46623 0.0
O141 O 0.0037 0.69216 0.46242 0.0
O142 O 0.07924 0.68992 0.43738 0.0
In143 In 0.15101 0.55559 0.47885 0.0
O144 O 0.24607 0.55092 0.46466 0.0
O145 O 0.17147 0.55209 0.43884 0.0
C146 C 0.14351 0.55954 0.52743 0.0
C147 C 0.14006 0.57792 0.46619 0.0
C148 C 0.09581 0.53496 0.48153 0.0
O149 O 0.1938 0.55662 0.51729 0.0
O150 O 0.09827 0.56055 0.51291 0.0
O151 O 0.06951 0.54359 0.47132 0.0
O152 O 0.14911 0.53687 0.48973 0.0
C153 C 0.22794 0.55023 0.44231 0.0
O154 O 0.09617 0.5708 0.46293 0.0
O155 O 0.18814 0.57364 0.4756 0.0
In156 In 0.89214 0.43756 0.22651 0.0
O157 O 0.83249 0.4228 0.21145 0.0
O158 O 0.92736 0.41958 0.2192 0.0
C159 C 0.83773 0.45833 0.22883 0.0
C160 C 0.96991 0.44284 0.19023 0.0
C161 C 0.88925 0.43318 0.27518 0.0
O162 O 0.8093 0.44947 0.22076 0.0
O163 O 0.89261 0.45659 0.23524 0.0
O164 O 0.9385 0.43619 0.26442 0.0
O165 O 0.84294 0.43232 0.26127 0.0
C166 C 0.87671 0.41562 0.21162 0.0
O167 O 0.98763 0.44185 0.21258 0.0
O168 O 0.91318 0.44132 0.18657 0.0
In169 In 0.8389 0.30747 0.2311 0.0
O170 O 0.89848 0.32226 0.21621 0.0
O171 O 0.80244 0.32518 0.22176 0.0
C172 C 0.89705 0.28715 0.23599 0.0
C173 C 0.76303 0.30105 0.19486 0.0
C174 C 0.83926 0.31264 0.27942 0.0
O175 O 0.92161 0.2956 0.22452 0.0
O176 O 0.84402 0.28907 0.24441 0.0
O177 O 0.79102 0.30911 0.2686 0.0
O178 O 0.88577 0.31373 0.26566 0.0
C179 C 0.85351 0.32925 0.21496 0.0
O180 O 0.74408 0.30259 0.2169 0.0
O181 O 0.81987 0.30255 0.19158 0.0
In182 In 0.89147 0.30589 0.51259 0.0
O183 O 0.98751 0.30151 0.52619 0.0
O184 O 0.91295 0.30135 0.5521 0.0
C185 C 0.88852 0.31107 0.4643 0.0
C186 C 0.87477 0.32768 0.52825 0.0
C187 C 0.83609 0.28525 0.50867 0.0
O188 O 0.93766 0.30777 0.47479 0.0
O189 O 0.84231 0.31184 0.47833 0.0
O190 O 0.81126 0.29359 0.52042 0.0
O191 O 0.88796 0.28744 0.49941 0.0
C192 C 0.9698 0.30008 0.54844 0.0
O193 O 0.83041 0.32054 0.52714 0.0
O194 O 0.92625 0.32372 0.52165 0.0
In195 In 0.84189 0.43603 0.50908 0.0
O196 O 0.74783 0.44093 0.52379 0.0
O197 O 0.82364 0.44006 0.54911 0.0
C198 C 0.8423 0.43179 0.46035 0.0
C199 C 0.85419 0.41405 0.52418 0.0
C200 C 0.89972 0.45645 0.50639 0.0
O201 O 0.79401 0.43509 0.47143 0.0
O202 O 0.88882 0.43051 0.47401 0.0
O203 O 0.92711 0.4474 0.51409 0.0
O204 O 0.84421 0.45506 0.5005 0.0
C205 C 0.76701 0.44191 0.54595 0.0
O206 O 0.89942 0.42101 0.5242 0.0
O207 O 0.8041 0.41825 0.51654 0.0
In208 In 0.59212 0.05711 0.75875 0.0
O209 O 0.49663 0.05226 0.77239 0.0
O210 O 0.57063 0.05324 0.79848 0.0
C211 C 0.59995 0.06127 0.71019 0.0
C212 C 0.60277 0.07929 0.77256 0.0
C213 C 0.64902 0.03665 0.75606 0.0
O214 O 0.54965 0.05831 0.72026 0.0
O215 O 0.64506 0.06224 0.72479 0.0
O216 O 0.67426 0.04532 0.76653 0.0
O217 O 0.59591 0.03843 0.74754 0.0
C218 C 0.51427 0.05138 0.79477 0.0
O219 O 0.64644 0.07212 0.77572 0.0
O220 O 0.55514 0.07516 0.76252 0.0
In221 In 0.64928 0.18764 0.76222 0.0
O222 O 0.74313 0.19267 0.77708 0.0
O223 O 0.66674 0.19193 0.80212 0.0
C224 C 0.64429 0.18254 0.71408 0.0
C225 C 0.63833 0.16559 0.7767 0.0
C226 C 0.59395 0.20814 0.75678 0.0
O227 O 0.69399 0.18578 0.72426 0.0
O228 O 0.59843 0.18182 0.72835 0.0
O229 O 0.56709 0.19971 0.76753 0.0
O230 O 0.64792 0.20611 0.74948 0.0
C231 C 0.72343 0.19375 0.79915 0.0
O232 O 0.59396 0.1727 0.77887 0.0
O233 O 0.68694 0.16976 0.76752 0.0
In234 In 0.59166 0.18538 0.48107 0.0
O235 O 0.65334 0.17117 0.46482 0.0
O236 O 0.55807 0.16763 0.47051 0.0
C237 C 0.64732 0.20598 0.48537 0.0
C238 C 0.51293 0.1918 0.44588 0.0
C239 C 0.59215 0.18028 0.52949 0.0
O240 O 0.6748 0.19728 0.47603 0.0
O241 O 0.59284 0.20414 0.49221 0.0
O242 O 0.54408 0.18387 0.51871 0.0
O243 O 0.63844 0.17911 0.51569 0.0
C244 C 0.60952 0.16394 0.46325 0.0
O245 O 0.49495 0.18885 0.46738 0.0
O246 O 0.57029 0.19158 0.4425 0.0
In247 In 0.65158 0.05595 0.47705 0.0
O248 O 0.74587 0.05107 0.46235 0.0
O249 O 0.66938 0.05117 0.43737 0.0
C250 C 0.65279 0.06118 0.52532 0.0
C251 C 0.63674 0.07777 0.46123 0.0
C252 C 0.59324 0.03566 0.48215 0.0
O253 O 0.7005 0.05749 0.51438 0.0
O254 O 0.60603 0.06236 0.51173 0.0
O255 O 0.56854 0.04413 0.47079 0.0
O256 O 0.64649 0.03754 0.49037 0.0
C257 C 0.72629 0.04964 0.44037 0.0
O258 O 0.59178 0.07078 0.46254 0.0
O259 O 0.68796 0.07367 0.46777 0.0
In260 In 0.39701 0.93807 0.22895 0.0
O261 O 0.49232 0.94263 0.21491 0.0
O262 O 0.41788 0.94175 0.189 0.0
C263 C 0.39133 0.93402 0.27756 0.0
C264 C 0.38427 0.91582 0.2159 0.0
C265 C 0.34165 0.9587 0.23203 0.0
O266 O 0.44121 0.93695 0.26712 0.0
O267 O 0.34557 0.93304 0.2633 0.0
O268 O 0.31532 0.9501 0.22175 0.0
O269 O 0.39506 0.95678 0.24007 0.0
C270 C 0.47442 0.94349 0.19257 0.0
O271 O 0.3407 0.92304 0.21304 0.0
O272 O 0.43292 0.91996 0.22508 0.0
In273 In 0.33866 0.80677 0.22867 0.0
O274 O 0.39186 0.82215 0.21267 0.0
O275 O 0.30102 0.82488 0.22665 0.0
C276 C 0.39848 0.78654 0.2296 0.0
C277 C 0.26364 0.80156 0.19138 0.0
C278 C 0.34205 0.80985 0.27772 0.0
O279 O 0.42538 0.79589 0.22329 0.0
O280 O 0.34235 0.78756 0.23487 0.0
O281 O 0.29304 0.80679 0.26681 0.0
O282 O 0.38785 0.8114 0.26376 0.0
C283 C 0.34825 0.82923 0.21672 0.0
O284 O 0.24489 0.80174 0.21369 0.0
O285 O 0.31971 0.80394 0.18827 0.0
In286 In 0.40464 0.80631 0.51167 0.0
O287 O 0.49955 0.80194 0.52642 0.0
O288 O 0.42409 0.80311 0.55186 0.0
C289 C 0.39732 0.80984 0.46293 0.0
C290 C 0.39156 0.82863 0.52404 0.0
C291 C 0.35196 0.78544 0.50916 0.0
O292 O 0.44787 0.80729 0.47331 0.0
O293 O 0.35176 0.81076 0.47732 0.0
O294 O 0.32378 0.79407 0.51852 0.0
O295 O 0.40587 0.78746 0.50179 0.0
C296 C 0.48075 0.80132 0.5487 0.0
O297 O 0.34861 0.82134 0.52762 0.0
O298 O 0.43976 0.82454 0.51435 0.0
In299 In 0.33561 0.93721 0.51147 0.0
O300 O 0.23976 0.94099 0.52586 0.0
O301 O 0.31589 0.94221 0.55091 0.0
C302 C 0.3387 0.93348 0.46262 0.0
C303 C 0.34857 0.91505 0.52553 0.0
C304 C 0.39324 0.95764 0.50884 0.0
O305 O 0.28997 0.93677 0.4734 0.0
O306 O 0.38446 0.93199 0.47662 0.0
O307 O 0.4206 0.94858 0.51661 0.0
O308 O 0.33777 0.95624 0.50284 0.0
C309 C 0.25865 0.94306 0.5477 0.0
O310 O 0.39175 0.92234 0.52834 0.0
O311 O 0.30016 0.91907 0.51595 0.0
In312 In 0.59358 0.55778 0.26232 0.0
O313 O 0.49904 0.55283 0.27657 0.0
O314 O 0.57421 0.55357 0.30216 0.0
C315 C 0.59734 0.5626 0.214 0.0
C316 C 0.60625 0.57988 0.27651 0.0
C317 C 0.64913 0.53724 0.25738 0.0
O318 O 0.54795 0.55944 0.22451 0.0
O319 O 0.64359 0.56341 0.22804 0.0
O320 O 0.67551 0.54565 0.26837 0.0
O321 O 0.59568 0.53931 0.24956 0.0
C322 C 0.51769 0.55173 0.29876 0.0
O323 O 0.65012 0.57267 0.27868 0.0
O324 O 0.55725 0.5758 0.26752 0.0
In325 In 0.659 0.68842 0.25957 0.0
O326 O 0.75462 0.69297 0.27335 0.0
O327 O 0.68014 0.69241 0.29929 0.0
C328 C 0.65217 0.68439 0.21099 0.0
C329 C 0.64722 0.66622 0.27321 0.0
C330 C 0.60264 0.70895 0.25646 0.0
O331 O 0.70218 0.68741 0.2212 0.0
O332 O 0.60693 0.68327 0.22546 0.0
O333 O 0.57658 0.70027 0.26657 0.0
O334 O 0.65636 0.70715 0.24862 0.0
C335 C 0.73675 0.69402 0.29567 0.0
O336 O 0.60397 0.67347 0.27648 0.0
O337 O 0.69505 0.67029 0.26322 0.0
In338 In 0.58541 0.68814 0.97737 0.0
O339 O 0.48979 0.6927 0.96376 0.0
O340 O 0.56299 0.69119 0.93737 0.0
C341 C 0.59182 0.68482 0.02627 0.0
C342 C 0.59608 0.66578 0.96475 0.0
C343 C 0.64345 0.70856 0.97789 0.0
O344 O 0.54206 0.68784 0.01588 0.0
O345 O 0.63697 0.68346 0.01189 0.0
O346 O 0.67067 0.69932 0.9711 0.0
O347 O 0.58787 0.70734 0.98387 0.0
C348 C 0.50675 0.69315 0.94124 0.0
O349 O 0.63895 0.67299 0.96048 0.0
O350 O 0.54917 0.66996 0.97523 0.0
In351 In 0.65051 0.55752 0.98099 0.0
O352 O 0.74474 0.55266 0.96621 0.0
O353 O 0.6684 0.55312 0.94115 0.0
C354 C 0.64767 0.56253 0.02923 0.0
C355 C 0.63693 0.57949 0.96611 0.0
C356 C 0.5954 0.53698 0.98643 0.0
O357 O 0.69687 0.55932 0.01864 0.0
O358 O 0.60121 0.5633 0.0153 0.0
O359 O 0.56833 0.54541 0.9758 0.0
O360 O 0.64939 0.53902 0.99365 0.0
C361 C 0.72516 0.55142 0.94418 0.0
O362 O 0.59325 0.57222 0.96432 0.0
O363 O 0.68616 0.57554 0.97518 0.0
In364 In 0.40432 0.43856 0.72814 0.0
O365 O 0.49882 0.44309 0.71319 0.0
O366 O 0.42414 0.44104 0.68768 0.0
C367 C 0.40217 0.43607 0.77737 0.0
C368 C 0.3923 0.41602 0.71717 0.0
C369 C 0.3446 0.45883 0.7282 0.0
O370 O 0.45093 0.43897 0.76609 0.0
O371 O 0.35602 0.43438 0.76369 0.0
O372 O 0.31761 0.44942 0.72245 0.0
O373 O 0.40087 0.45787 0.73324 0.0
C374 C 0.48047 0.44317 0.69083 0.0
O375 O 0.34929 0.42321 0.71299 0.0
O376 O 0.44013 0.42031 0.72673 0.0
In377 In 0.34107 0.30673 0.72811 0.0
O378 O 0.39598 0.32206 0.7128 0.0
O379 O 0.30603 0.32504 0.72743 0.0
C380 C 0.39818 0.28622 0.72716 0.0
C381 C 0.26306 0.30231 0.69131 0.0
C382 C 0.34665 0.30891 0.77739 0.0
O383 O 0.42612 0.29552 0.72137 0.0
O384 O 0.34237 0.28742 0.73279 0.0
O385 O 0.29669 0.30647 0.76648 0.0
O386 O 0.39234 0.31034 0.76332 0.0
C387 C 0.3535 0.32929 0.71751 0.0
O388 O 0.24588 0.30224 0.71382 0.0
O389 O 0.3191 0.30457 0.68772 0.0
In390 In 0.40166 0.30587 0.01227 0.0
O391 O 0.49567 0.30109 0.02741 0.0
O392 O 0.42097 0.30348 0.0528 0.0
C393 C 0.39793 0.30835 0.96305 0.0
C394 C 0.39149 0.32844 0.02312 0.0
C395 C 0.34222 0.2856 0.01237 0.0
O396 O 0.44714 0.30551 0.9741 0.0
O397 O 0.35215 0.31 0.97696 0.0
O398 O 0.31515 0.29499 0.01821 0.0
O399 O 0.39838 0.28658 0.00713 0.0
C400 C 0.4771 0.30113 0.04976 0.0
O401 O 0.34792 0.32138 0.02737 0.0
O402 O 0.43895 0.32401 0.01353 0.0
In403 In 0.34674 0.43786 0.01229 0.0
O404 O 0.4012 0.42246 0.02764 0.0
O405 O 0.31166 0.41958 0.01252 0.0
C406 C 0.4031 0.45844 0.01397 0.0
C407 C 0.26722 0.44204 0.04865 0.0
C408 C 0.35328 0.43587 0.96303 0.0
O409 O 0.4313 0.44914 0.0196 0.0
O410 O 0.34747 0.4572 0.00812 0.0
O411 O 0.30314 0.43826 0.97385 0.0
O412 O 0.39881 0.43442 0.97718 0.0
C413 C 0.35874 0.41527 0.02263 0.0
O414 O 0.25088 0.44213 0.02603 0.0
O415 O 0.32327 0.4399 0.05256 0.0
H416 H 0.04651 0.06859 0.04978 0.0
H417 H 0.23096 0.05586 0.06031 0.0
H418 H 0.03296 0.06984 0.09453 0.0
H419 H 0.21691 0.05682 0.10522 0.0
H420 H 0.19075 0.06912 0.1842 0.0
H421 H 0.20412 0.07017 0.13944 0.0
H422 H 0.02107 0.05665 0.12911 0.0
H423 H 0.00717 0.05589 0.17407 0.0
C424 C 0.08427 0.06609 0.06169 0.0
C425 C 0.13978 0.06209 0.05159 0.0
C426 C 0.07631 0.06673 0.08733 0.0
C427 C 0.12361 0.06335 0.10345 0.0
C428 C 0.17975 0.05962 0.09331 0.0
C429 C 0.1878 0.05902 0.0676 0.0
C430 C 0.15315 0.06645 0.17237 0.0
C431 C 0.09793 0.06238 0.18259 0.0
C432 C 0.161 0.06698 0.14672 0.0
C433 C 0.1139 0.06341 0.1307 0.0
C434 C 0.05806 0.05959 0.14095 0.0
C435 C 0.0501 0.0591 0.16667 0.0
H436 H 0.18957 0.176 0.05512 0.0
H437 H 0.00438 0.18829 0.06595 0.0
H438 H 0.20449 0.17525 0.09985 0.0
H439 H 0.01976 0.1878 0.11082 0.0
H440 H 0.04941 0.17623 0.19015 0.0
H441 H 0.03488 0.17474 0.14551 0.0
H442 H 0.21594 0.18895 0.13376 0.0
H443 H 0.23103 0.19017 0.17862 0.0
C444 C 0.15192 0.1785 0.06709 0.0
C445 C 0.09581 0.18223 0.05707 0.0
C446 C 0.16067 0.17815 0.09271 0.0
C447 C 0.11354 0.18155 0.10889 0.0
C448 C 0.05681 0.18501 0.09885 0.0
C449 C 0.04799 0.18532 0.07317 0.0
C450 C 0.08632 0.17896 0.17804 0.0
C451 C 0.14132 0.18336 0.18783 0.0
C452 C 0.0778 0.17817 0.15246 0.0
C453 C 0.12401 0.1818 0.13608 0.0
C454 C 0.17965 0.18596 0.1459 0.0
C455 C 0.18827 0.18671 0.17156 0.0
H456 H 0.76438 0.9378 0.92801 0.0
H457 H 0.95073 0.92627 0.93934 0.0
H458 H 0.77916 0.93654 0.88315 0.0
H459 H 0.96508 0.92476 0.89468 0.0
H460 H 0.98813 0.93867 0.81464 0.0
H461 H 0.97458 0.93791 0.85961 0.0
H462 H 0.7951 0.92273 0.84961 0.0
H463 H 0.80813 0.92372 0.8048 0.0
C464 C 0.80817 0.93487 0.92091 0.0
C465 C 0.85644 0.9322 0.93713 0.0
C466 C 0.81663 0.93409 0.89525 0.0
C467 C 0.87346 0.93059 0.88537 0.0
C468 C 0.92114 0.92766 0.90169 0.0
C469 C 0.91274 0.92846 0.92728 0.0
C470 C 0.94617 0.93505 0.8221 0.0
C471 C 0.89909 0.93132 0.80626 0.0
C472 C 0.9384 0.93458 0.84783 0.0
C473 C 0.88349 0.93035 0.85815 0.0
C474 C 0.83741 0.92624 0.84223 0.0
C475 C 0.84511 0.92673 0.81657 0.0
H476 H 0.79526 0.82066 0.93855 0.0
H477 H 0.97996 0.80851 0.92582 0.0
H478 H 0.78064 0.82309 0.89406 0.0
H479 H 0.9649 0.81069 0.88117 0.0
H480 H 0.93679 0.82365 0.80343 0.0
H481 H 0.94989 0.82479 0.84823 0.0
H482 H 0.7688 0.81035 0.85848 0.0
H483 H 0.75521 0.80946 0.81354 0.0
C484 C 0.83287 0.81856 0.92622 0.0
C485 C 0.8887 0.81434 0.93561 0.0
C486 C 0.82433 0.8199 0.90073 0.0
C487 C 0.87139 0.81701 0.88407 0.0
C488 C 0.92793 0.81312 0.89354 0.0
C489 C 0.93653 0.81181 0.91909 0.0
C490 C 0.89943 0.82087 0.81526 0.0
C491 C 0.84509 0.81639 0.80504 0.0
C492 C 0.90714 0.82145 0.84092 0.0
C493 C 0.86075 0.81753 0.85691 0.0
C494 C 0.80527 0.81352 0.84666 0.0
C495 C 0.79747 0.81298 0.82093 0.0
H496 H 0.18284 0.56908 0.68702 0.0
H497 H 0.00114 0.55502 0.67639 0.0
H498 H 0.19707 0.57006 0.64228 0.0
H499 H 0.01591 0.55572 0.63148 0.0
H500 H 0.04269 0.56733 0.55192 0.0
H501 H 0.02751 0.5688 0.59656 0.0
H502 H 0.21219 0.55643 0.60861 0.0
H503 H 0.22783 0.55523 0.56382 0.0
C504 C 0.1458 0.56624 0.67508 0.0
C505 C 0.09092 0.56193 0.68516 0.0
C506 C 0.15416 0.56673 0.64946 0.0
C507 C 0.1079 0.56287 0.63333 0.0
C508 C 0.05225 0.55887 0.64342 0.0
C509 C 0.04379 0.55842 0.66911 0.0
C510 C 0.08024 0.56501 0.56411 0.0
C511 C 0.13644 0.56113 0.55442 0.0
C512 C 0.07136 0.56578 0.58968 0.0
C513 C 0.11845 0.56266 0.60614 0.0
C514 C 0.17519 0.55903 0.59642 0.0
C515 C 0.18414 0.55829 0.57079 0.0
H516 H 0.21953 0.6897 0.6784 0.0
H517 H 0.03127 0.67868 0.68636 0.0
H518 H 0.20909 0.68882 0.63334 0.0
H519 H 0.02126 0.67751 0.64144 0.0
H520 H 0.18844 0.67566 0.55477 0.0
H521 H 0.19672 0.67514 0.59976 0.0
H522 H 0.01625 0.69036 0.60597 0.0
H523 H 0.00737 0.69059 0.56076 0.0
C524 C 0.17618 0.68698 0.67051 0.0
C525 C 0.12622 0.6843 0.68585 0.0
C526 C 0.17021 0.68642 0.64473 0.0
C527 C 0.11424 0.68312 0.63382 0.0
C528 C 0.06464 0.68026 0.64924 0.0
C529 C 0.07054 0.68086 0.67498 0.0
C530 C 0.15031 0.67882 0.56574 0.0
C531 C 0.0973 0.68321 0.5543 0.0
C532 C 0.15528 0.67859 0.59152 0.0
C533 C 0.10745 0.68281 0.60644 0.0
C534 C 0.05372 0.68695 0.59498 0.0
C535 C 0.04864 0.68712 0.56912 0.0
H536 H 0.93831 0.42308 0.43426 0.0
H537 H 0.75609 0.43716 0.42531 0.0
H538 H 0.95007 0.42211 0.3894 0.0
H539 H 0.76835 0.43644 0.38028 0.0
H540 H 0.97604 0.43732 0.31075 0.0
H541 H 0.96323 0.43587 0.35569 0.0
H542 H 0.7783 0.42334 0.34523 0.0
H543 H 0.79065 0.42504 0.3005 0.0
C544 C 0.9006 0.42592 0.42267 0.0
C545 C 0.84633 0.43025 0.43325 0.0
C546 C 0.90755 0.42543 0.39698 0.0
C547 C 0.86044 0.4293 0.38128 0.0
C548 C 0.80533 0.4333 0.39188 0.0
C549 C 0.7983 0.43375 0.41764 0.0
C550 C 0.93294 0.43416 0.3181 0.0
C551 C 0.88428 0.43136 0.30218 0.0
C552 C 0.9256 0.43328 0.34381 0.0
C553 C 0.86954 0.42955 0.35401 0.0
C554 C 0.82162 0.42643 0.33797 0.0
C555 C 0.82889 0.42734 0.31235 0.0
H556 H 0.93554 0.32156 0.30508 0.0
H557 H 0.75313 0.30769 0.31476 0.0
H558 H 0.94796 0.32272 0.34991 0.0
H559 H 0.76601 0.30861 0.35973 0.0
H560 H 0.79016 0.31969 0.43948 0.0
H561 H 0.7772 0.32169 0.39482 0.0
H562 H 0.96137 0.3089 0.38356 0.0
H563 H 0.97477 0.30715 0.42841 0.0
C564 C 0.89788 0.31883 0.31681 0.0
C565 C 0.84342 0.31448 0.30645 0.0
C566 C 0.90521 0.31943 0.34249 0.0
C567 C 0.85828 0.31566 0.35838 0.0
C568 C 0.80288 0.31169 0.34799 0.0
C569 C 0.79549 0.31112 0.32225 0.0
C570 C 0.82813 0.31741 0.42748 0.0
C571 C 0.88343 0.31321 0.43739 0.0
C572 C 0.82051 0.31849 0.40189 0.0
C573 C 0.868 0.31537 0.38563 0.0
C574 C 0.92407 0.3115 0.3956 0.0
C575 C 0.93174 0.31045 0.42127 0.0
H576 H 0.7022 0.06833 0.68557 0.0
H577 H 0.51442 0.05775 0.67391 0.0
H578 H 0.71712 0.0698 0.64088 0.0
H579 H 0.52969 0.05898 0.62912 0.0
H580 H 0.55954 0.07122 0.55084 0.0
H581 H 0.54747 0.07263 0.59562 0.0
H582 H 0.72495 0.05663 0.6057 0.0
H583 H 0.7376 0.05546 0.56071 0.0
C584 C 0.66401 0.06636 0.67344 0.0
C585 C 0.60713 0.0629 0.6832 0.0
C586 C 0.67272 0.06714 0.64784 0.0
C587 C 0.62475 0.06446 0.63145 0.0
C588 C 0.5674 0.06125 0.64126 0.0
C589 C 0.55866 0.06049 0.6669 0.0
C590 C 0.59632 0.06812 0.56261 0.0
C591 C 0.64939 0.06316 0.55232 0.0
C592 C 0.58918 0.06886 0.58827 0.0
C593 C 0.63486 0.06462 0.60422 0.0
C594 C 0.68908 0.06006 0.59391 0.0
C595 C 0.69632 0.05936 0.56816 0.0
H596 H 0.54486 0.17402 0.6898 0.0
H597 H 0.72989 0.18614 0.67782 0.0
H598 H 0.53098 0.17178 0.64523 0.0
H599 H 0.71558 0.18414 0.63308 0.0
H600 H 0.68804 0.17116 0.55507 0.0
H601 H 0.70088 0.17012 0.5999 0.0
H602 H 0.51994 0.18468 0.60984 0.0
H603 H 0.50661 0.18548 0.56488 0.0
C604 C 0.5827 0.17616 0.67762 0.0
C605 C 0.63841 0.18032 0.68724 0.0
C606 C 0.57458 0.17493 0.65208 0.0
C607 C 0.62195 0.17786 0.63561 0.0
C608 C 0.67837 0.18169 0.6453 0.0
C609 C 0.68655 0.18289 0.6709 0.0
C610 C 0.65068 0.17401 0.56684 0.0
C611 C 0.5964 0.17847 0.55652 0.0
C612 C 0.65825 0.17348 0.59251 0.0
C613 C 0.61176 0.17743 0.60841 0.0
C614 C 0.55646 0.18148 0.59808 0.0
C615 C 0.54882 0.18197 0.57234 0.0
H616 H 0.43559 0.92479 0.43702 0.0
H617 H 0.25393 0.939 0.42712 0.0
H618 H 0.44849 0.9237 0.39223 0.0
H619 H 0.26737 0.93817 0.38215 0.0
H620 H 0.29137 0.92626 0.30265 0.0
H621 H 0.27765 0.92491 0.34739 0.0
H622 H 0.4628 0.93724 0.35831 0.0
H623 H 0.47697 0.93833 0.31342 0.0
C624 C 0.39829 0.92765 0.42524 0.0
C625 C 0.3438 0.93203 0.43553 0.0
C626 C 0.40588 0.92709 0.39958 0.0
C627 C 0.35922 0.93094 0.38364 0.0
C628 C 0.30399 0.93503 0.39394 0.0
C629 C 0.29631 0.93555 0.41967 0.0
C630 C 0.32934 0.92859 0.31461 0.0
C631 C 0.38523 0.93244 0.30459 0.0
C632 C 0.32129 0.92789 0.34024 0.0
C633 C 0.36892 0.93104 0.3564 0.0
C634 C 0.42539 0.93462 0.34634 0.0
C635 C 0.4335 0.93529 0.32065 0.0
H636 H 0.29556 0.81673 0.43783 0.0
H637 H 0.48277 0.80562 0.42695 0.0
H638 H 0.28092 0.81768 0.39309 0.0
H639 H 0.46772 0.80629 0.38208 0.0
H640 H 0.43846 0.81863 0.30339 0.0
H641 H 0.45162 0.81961 0.34814 0.0
H642 H 0.272 0.80449 0.35826 0.0
H643 H 0.25821 0.8038 0.31326 0.0
C644 C 0.33367 0.81451 0.42585 0.0
C645 C 0.39035 0.81109 0.43585 0.0
C646 C 0.3251 0.81498 0.40022 0.0
C647 C 0.37298 0.812 0.38402 0.0
C648 C 0.43008 0.80877 0.39406 0.0
C649 C 0.43872 0.80835 0.41974 0.0
C650 C 0.40155 0.81559 0.31516 0.0
C651 C 0.34735 0.81109 0.30486 0.0
C652 C 0.40931 0.81608 0.34081 0.0
C653 C 0.36315 0.81204 0.35677 0.0
C654 C 0.30824 0.80779 0.34646 0.0
C655 C 0.30035 0.80734 0.32072 0.0
H656 H 0.73375 0.55814 0.06487 0.0
H657 H 0.55012 0.57129 0.05435 0.0
H658 H 0.72055 0.5595 0.10977 0.0
H659 H 0.53741 0.57293 0.09909 0.0
H660 H 0.51145 0.55824 0.17828 0.0
H661 H 0.52487 0.55959 0.1334 0.0
H662 H 0.70835 0.57281 0.14419 0.0
H663 H 0.69541 0.57119 0.18893 0.0
C664 C 0.69101 0.5615 0.07216 0.0
C665 C 0.64286 0.56452 0.05617 0.0
C666 C 0.68346 0.56233 0.09785 0.0
C667 C 0.62769 0.56625 0.10799 0.0
C668 C 0.58046 0.56968 0.09189 0.0
C669 C 0.58793 0.56881 0.06626 0.0
C670 C 0.55433 0.56155 0.17102 0.0
C671 C 0.60248 0.56453 0.18705 0.0
C672 C 0.56201 0.56237 0.14534 0.0
C673 C 0.6179 0.56624 0.13523 0.0
C674 C 0.66519 0.56961 0.15137 0.0
C675 C 0.6576 0.56874 0.177 0.0
H676 H 0.55187 0.67653 0.18626 0.0
H677 H 0.73619 0.68915 0.17478 0.0
H678 H 0.53647 0.67553 0.14157 0.0
H679 H 0.72032 0.68841 0.12996 0.0
H680 H 0.69077 0.67645 0.051 0.0
H681 H 0.70567 0.67515 0.09565 0.0
H682 H 0.52387 0.68903 0.10737 0.0
H683 H 0.5084 0.69005 0.06251 0.0
C684 C 0.58921 0.67905 0.17415 0.0
C685 C 0.64522 0.68295 0.18397 0.0
C686 C 0.58019 0.67855 0.14856 0.0
C687 C 0.62695 0.68197 0.13222 0.0
C688 C 0.68357 0.6856 0.14206 0.0
C689 C 0.69266 0.68606 0.16771 0.0
C690 C 0.65378 0.67915 0.06311 0.0
C691 C 0.59847 0.6834 0.05331 0.0
C692 C 0.66251 0.67846 0.08869 0.0
C693 C 0.6162 0.68207 0.10505 0.0
C694 C 0.56024 0.68607 0.09524 0.0
C695 C 0.55141 0.68671 0.06958 0.0
H696 H 0.30593 0.42782 0.80389 0.0
H697 H 0.48743 0.44231 0.81221 0.0
H698 H 0.29436 0.42718 0.84873 0.0
H699 H 0.47525 0.44196 0.85731 0.0
H700 H 0.45429 0.42938 0.93703 0.0
H701 H 0.46726 0.4288 0.8922 0.0
H702 H 0.2806 0.44058 0.88274 0.0
H703 H 0.26718 0.44087 0.92773 0.0
C704 C 0.34343 0.43087 0.81534 0.0
C705 C 0.39758 0.43514 0.80458 0.0
C706 C 0.33657 0.43058 0.84104 0.0
C707 C 0.3836 0.43461 0.85659 0.0
C708 C 0.43835 0.43869 0.84583 0.0
C709 C 0.44532 0.43893 0.82003 0.0
C710 C 0.4159 0.4318 0.92537 0.0
C711 C 0.35966 0.43517 0.93585 0.0
C712 C 0.42352 0.43154 0.89969 0.0
C713 C 0.37511 0.43469 0.8839 0.0
C714 C 0.3186 0.43796 0.8944 0.0
C715 C 0.31091 0.43818 0.92015 0.0
H716 H 0.44702 0.31567 0.80343 0.0
H717 H 0.26078 0.3037 0.8127 0.0
H718 H 0.46019 0.31615 0.84824 0.0
H719 H 0.27443 0.30389 0.85771 0.0
H720 H 0.30024 0.31632 0.93695 0.0
H721 H 0.28767 0.31706 0.89215 0.0
H722 H 0.46963 0.30287 0.88276 0.0
H723 H 0.48278 0.30241 0.9278 0.0
C724 C 0.40884 0.31314 0.81508 0.0
C725 C 0.35282 0.30964 0.8046 0.0
C726 C 0.41659 0.31333 0.84077 0.0
C727 C 0.36855 0.30999 0.85656 0.0
C728 C 0.31216 0.30664 0.84605 0.0
C729 C 0.30434 0.30649 0.8203 0.0
C730 C 0.33774 0.31341 0.92532 0.0
C731 C 0.39252 0.30928 0.93585 0.0
C732 C 0.33032 0.31376 0.89964 0.0
C733 C 0.3774 0.30994 0.88387 0.0
C734 C 0.43267 0.30598 0.89441 0.0
C735 C 0.4402 0.30568 0.92018 0.0
H736 H 0.23623 0.96698 0.21067 0.0
H737 H 0.38191 0.97632 0.26113 0.0
H738 H 0.19013 0.98616 0.21655 0.0
H739 H 0.33498 0.99518 0.26784 0.0
H740 H 0.26819 0.03229 0.25615 0.0
H741 H 0.31599 0.01337 0.24895 0.0
H742 H 0.13682 -0.00267 0.24653 0.0
H743 H 0.08953 0.01623 0.25268 0.0
C744 C 0.2581 0.9731 0.2231 0.0
C745 C 0.31264 0.97018 0.23536 0.0
C746 C 0.23163 0.98407 0.22662 0.0
C747 C 0.25886 0.99224 0.2427 0.0
C748 C 0.31334 0.98923 0.25497 0.0
C749 C 0.34004 0.97836 0.25124 0.0
C750 C 0.23927 0.02469 0.2542 0.0
C751 C 0.17528 0.02572 0.25493 0.0
C752 C 0.26652 0.01384 0.25012 0.0
C753 C 0.23023 0.00381 0.247 0.0
C754 C 0.16619 0.00488 0.24828 0.0
C755 C 0.13908 0.01571 0.25205 0.0
H756 H 0.86166 0.27008 0.26753 0.0
H757 H 0.00038 0.27868 0.2134 0.0
H758 H 0.90987 0.25136 0.27459 0.0
H759 H 0.04765 0.25963 0.21966 0.0
H760 H 0.15237 0.22982 0.25484 0.0
H761 H 0.10482 0.24872 0.24889 0.0
H762 H 0.92584 0.23294 0.25625 0.0
H763 H 0.974 0.21405 0.26325 0.0
C764 C 0.90232 0.26791 0.25696 0.0
C765 C 0.92733 0.27584 0.23989 0.0
C766 C 0.92973 0.25712 0.26089 0.0
C767 C 0.98251 0.25392 0.24763 0.0
C768 C 0.00752 0.26187 0.23048 0.0
C769 C 0.98038 0.27276 0.22676 0.0
C770 C 0.10283 0.23041 0.25533 0.0
C771 C 0.06679 0.22048 0.25954 0.0
C772 C 0.07553 0.24123 0.25168 0.0
C773 C 0.01145 0.24238 0.25188 0.0
C774 C 0.97538 0.23243 0.2563 0.0
C775 C 0.00283 0.22159 0.26024 0.0
H776 H 0.24818 0.21578 0.9655 0.0
H777 H 0.09678 0.22592 0.01239 0.0
H778 H 0.29585 0.23475 0.97233 0.0
H779 H 0.14514 0.24457 0.02005 0.0
H780 H 0.21906 0.28135 0.00923 0.0
H781 H 0.16952 0.26264 0.00154 0.0
H782 H 0.34629 0.24565 0.0036 0.0
H783 H 0.39549 0.26435 0.01024 0.0
C784 C 0.22532 0.22204 0.97733 0.0
C785 C 0.16881 0.2194 0.98835 0.0
C786 C 0.2527 0.23288 0.98141 0.0
C787 C 0.22437 0.24121 -0.00319 0.0
C788 C 0.16778 0.23849 0.00776 0.0
C789 C 0.14023 0.22774 0.00348 0.0
C790 C 0.24705 0.27358 0.00822 0.0
C791 C 0.31099 0.27428 0.01027 0.0
C792 C 0.2188 0.26285 0.00385 0.0
C793 C 0.25398 0.25262 0.00174 0.0
C794 C 0.31787 0.25336 0.00451 0.0
C795 C 0.34603 0.26407 0.00858 0.0
H796 H 0.98838 0.02739 0.96054 0.0
H797 H 0.1391 0.0184 0.00884 0.0
H798 H 0.94247 0.00833 0.96814 0.0
H799 H 0.09242 -0.00032 0.01728 0.0
H800 H 0.02323 0.96255 0.00859 0.0
H801 H 0.07082 0.98133 -0.00017 0.0
H802 H 0.89202 -0.00244 -0.00047 0.0
H803 H 0.84481 0.97877 0.0072 0.0
C804 C 0.01145 0.02137 0.97285 0.0
C805 C 0.06729 0.02436 0.98402 0.0
C806 C 0.98507 0.01048 0.97736 0.0
C807 C 0.01373 0.00244 0.99337 0.0
C808 C 0.06959 0.00552 0.0045 0.0
C809 C 0.09618 0.01631 -0.00023 0.0
C810 C 0.99437 0.97017 0.00682 0.0
C811 C 0.93046 0.96922 0.00853 0.0
C812 C 0.0215 0.98093 0.00183 0.0
C813 C 0.98521 0.99098 -0.00121 0.0
C814 C 0.92132 0.99 0.00116 0.0
C815 C 0.89428 0.97924 0.00583 0.0
H816 H 0.75049 0.02831 0.7802 0.0
H817 H 0.61425 0.0192 0.72542 0.0
H818 H 0.79696 0.00909 0.77563 0.0
H819 H 0.66182 0.00032 0.71996 0.0
H820 H 0.72433 0.9632 0.73243 0.0
H821 H 0.67626 0.98212 0.73902 0.0
H822 H 0.85525 -0.00224 0.74779 0.0
H823 H 0.9026 0.97881 0.74235 0.0
C824 C 0.73088 0.02223 0.76707 0.0
C825 C 0.67876 0.02522 0.75325 0.0
C826 C 0.75756 0.01124 0.76432 0.0
C827 C 0.73307 0.00311 0.74743 0.0
C828 C 0.68119 0.00622 0.73351 0.0
C829 C 0.65417 0.0171 0.73651 0.0
C830 C 0.75316 0.97071 0.73573 0.0
C831 C 0.81705 0.96955 0.7369 0.0
C832 C 0.72578 0.98156 0.73942 0.0
C833 C 0.76187 0.9915 0.74399 0.0
C834 C 0.8259 0.99029 0.74485 0.0
C835 C 0.8531 0.97944 0.7415 0.0
H836 H 0.13923 0.72934 0.75878 0.0
H837 H 0.958 0.71433 0.76194 0.0
H838 H 0.09508 0.74853 0.7531 0.0
H839 H 0.91335 0.73358 0.75534 0.0
H840 H 4e-05 0.77906 0.71552 0.0
H841 H 0.04342 0.75973 0.72238 0.0
H842 H 0.89804 0.75206 0.77439 0.0
H843 H 0.85384 0.77111 0.76683 0.0
C844 C 0.08979 0.73016 0.75824 0.0
C845 C 0.05195 0.72034 0.76077 0.0
C846 C 0.0645 0.74116 0.75475 0.0
C847 C 0.0007 0.74261 0.75347 0.0
C848 C 0.96272 0.7328 0.75647 0.0
C849 C 0.98815 0.72176 0.76021 0.0
C850 C 0.97754 0.77322 0.72839 0.0
C851 C 0.92358 0.77657 0.74057 0.0
C852 C 0.00244 0.76217 0.73244 0.0
C853 C 0.97414 0.75432 0.74895 0.0
C854 C 0.92042 0.75777 0.76123 0.0
C855 C 0.89532 0.76874 0.75701 0.0
H856 H 0.58864 0.72958 0.98266 0.0
H857 H 0.76647 0.71322 0.97837 0.0
H858 H 0.63698 0.74837 0.98897 0.0
H859 H 0.81531 0.73203 0.9857 0.0
H860 H 0.88319 0.76907 0.97519 0.0
H861 H 0.83498 0.7504 0.96746 0.0
H862 H 0.69121 0.7591 0.01948 0.0
H863 H 0.73857 0.77807 0.02643 0.0
C864 C 0.63823 0.73002 0.9831 0.0
C865 C 0.67389 0.71995 0.98002 0.0
C866 C 0.66594 0.74078 0.98697 0.0
C867 C 0.73005 0.74173 0.98812 0.0
C868 C 0.7658 0.73165 0.98465 0.0
C869 C 0.73795 0.72087 0.98049 0.0
C870 C 0.84125 0.767 0.985 0.0
C871 C 0.81455 0.77502 0.00143 0.0
C872 C 0.81382 0.75624 0.98067 0.0
C873 C 0.75928 0.75319 0.99287 0.0
C874 C 0.73271 0.76123 0.00946 0.0
C875 C 0.75992 0.77207 0.01358 0.0
H876 H 0.24825 0.52847 0.7759 0.0
H877 H 0.09678 0.51813 0.72924 0.0
H878 H 0.29692 0.50961 0.76874 0.0
H879 H 0.14609 0.49961 0.72126 0.0
H880 H 0.22141 0.46295 0.73163 0.0
H881 H 0.17136 0.48158 0.73959 0.0
H882 H 0.34753 0.49877 0.73739 0.0
H883 H 0.39728 0.48014 0.73048 0.0
C884 C 0.2256 0.52219 0.76404 0.0
C885 C 0.16875 0.52475 0.75321 0.0
C886 C 0.25354 0.51142 0.75978 0.0
C887 C 0.22544 0.50307 0.74438 0.0
C888 C 0.16858 0.50571 0.73357 0.0
C889 C 0.14047 0.51638 0.73804 0.0
C890 C 0.24916 0.47074 0.73266 0.0
C891 C 0.3131 0.47012 0.73048 0.0
C892 C 0.22061 0.48143 0.73719 0.0
C893 C 0.25546 0.4917 0.73932 0.0
C894 C 0.31935 0.49104 0.73645 0.0
C895 C 0.34783 0.48037 0.73223 0.0
H896 H 0.2426 0.77737 0.5274 0.0
H897 H 0.39896 0.76735 0.48314 0.0
H898 H 0.19723 0.7582 0.52059 0.0
H899 H 0.35296 0.74849 0.4755 0.0
H900 H 0.27909 0.71164 0.48502 0.0
H901 H 0.32728 0.7304 0.49373 0.0
H902 H 0.15047 0.74722 0.48854 0.0
H903 H 0.10258 0.72851 0.48088 0.0
C904 C 0.2671 0.77109 0.51618 0.0
C905 C 0.3242 0.77385 0.50583 0.0
C906 C 0.24105 0.76014 0.51212 0.0
C907 C 0.27135 0.75179 0.49739 0.0
C908 C 0.32874 0.75459 0.48724 0.0
C909 C 0.35494 0.76545 0.49151 0.0
C910 C 0.25085 0.71938 0.48558 0.0
C911 C 0.18722 0.71863 0.48232 0.0
C912 C 0.27831 0.73013 0.49055 0.0
C913 C 0.24266 0.74033 0.49206 0.0
C914 C 0.17917 0.73954 0.48814 0.0
C915 C 0.15179 0.72882 0.48347 0.0
H916 H 0.84385 0.47729 0.50026 0.0
H917 H 0.0225 0.46136 0.50589 0.0
H918 H 0.89117 0.49617 0.49402 0.0
H919 H 0.07041 0.48025 0.49853 0.0
H920 H 0.13502 0.51736 0.51092 0.0
H921 H 0.08821 0.49847 0.51722 0.0
H922 H 0.94585 0.50738 0.4647 0.0
H923 H 0.99172 0.5266 0.45927 0.0
C924 C 0.89341 0.47784 0.50005 0.0
C925 C 0.92959 0.46787 0.50362 0.0
C926 C 0.92056 0.48866 0.49622 0.0
C927 C 0.98464 0.48976 0.49556 0.0
C928 C 0.02089 0.47976 0.49925 0.0
C929 C 0.99359 0.46893 0.50341 0.0
C930 C 0.09371 0.51529 0.50068 0.0
C931 C 0.0669 0.52346 0.4846 0.0
C932 C 0.0671 0.5044 0.50416 0.0
C933 C 0.01333 0.50134 0.49143 0.0
C934 C 0.98676 0.5095 0.47513 0.0
C935 C 0.0131 0.52049 0.47187 0.0
H936 H 0.75244 0.52826 0.27917 0.0
H937 H 0.61038 0.52043 0.22592 0.0
H938 H 0.79703 0.50901 0.27233 0.0
H939 H 0.65593 0.50153 0.21826 0.0
H940 H 0.7158 0.46393 0.22825 0.0
H941 H 0.67034 0.483 0.23599 0.0
H942 H 0.85155 0.49791 0.24271 0.0
H943 H 0.89641 0.47883 0.23606 0.0
C944 C 0.73113 0.52246 0.26588 0.0
C945 C 0.67791 0.52581 0.25318 0.0
C946 C 0.75674 0.51146 0.26183 0.0
C947 C 0.72999 0.50368 0.24475 0.0
C948 C 0.67708 0.50716 0.23191 0.0
C949 C 0.65119 0.51805 0.23619 0.0
C950 C 0.74569 0.47132 0.23127 0.0
C951 C 0.8095 0.46991 0.2316 0.0
C952 C 0.71979 0.48226 0.23564 0.0
C953 C 0.75728 0.49202 0.2401 0.0
C954 C 0.8212 0.49058 0.23991 0.0
C955 C 0.84695 0.47964 0.23585 0.0
H956 H 0.73858 0.27605 0.53399 0.0
H957 H 0.86951 0.26846 0.47613 0.0
H958 H 0.69448 0.25665 0.52905 0.0
H959 H 0.82418 0.24938 0.47036 0.0
H960 H 0.76879 0.21174 0.48186 0.0
H961 H 0.81474 0.23084 0.48862 0.0
H962 H 0.63472 0.24536 0.50162 0.0
H963 H 0.58962 0.22625 0.49595 0.0
C964 C 0.75748 0.27027 0.52009 0.0
C965 C 0.80747 0.27374 0.50551 0.0
C966 C 0.73215 0.25918 0.51714 0.0
C967 C 0.75584 0.25141 0.49931 0.0
C968 C 0.80552 0.255 0.48462 0.0
C969 C 0.83123 0.26599 0.48779 0.0
C970 C 0.73927 0.21904 0.48615 0.0
C971 C 0.67577 0.21752 0.4884 0.0
C972 C 0.76543 0.23 0.48993 0.0
C973 C 0.72845 0.23968 0.49573 0.0
C974 C 0.6648 0.2381 0.49771 0.0
C975 C 0.63886 0.22715 0.49423 0.0
H976 H 0.52094 0.28142 0.72928 0.0
H977 H 0.34247 0.2652 0.72957 0.0
H978 H 0.56847 0.26251 0.73686 0.0
H979 H 0.38963 0.24631 0.73618 0.0
H980 H 0.48599 0.21651 0.77569 0.0
H981 H 0.43984 0.23553 0.76785 0.0
H982 H 0.58981 0.24414 0.71872 0.0
H983 H 0.63668 0.22543 0.72733 0.0
C984 C 0.49206 0.27378 0.73053 0.0
C985 C 0.42814 0.27477 0.72893 0.0
C986 C 0.51916 0.26294 0.73484 0.0
C987 C 0.48279 0.25288 0.73737 0.0
C988 C 0.41894 0.25389 0.73494 0.0
C989 C 0.39195 0.26471 0.7309 0.0
C990 C 0.50897 0.22251 0.76329 0.0
C991 C 0.56492 0.21952 0.75221 0.0
C992 C 0.48246 0.23337 0.75865 0.0
C993 C 0.51112 0.24138 0.74261 0.0
C994 C 0.56699 0.2383 0.73149 0.0
C995 C 0.59367 0.22753 0.73633 0.0
H996 H 0.48967 0.02722 0.4597 0.0
H997 H 0.62882 0.01858 0.51363 0.0
H998 H 0.44239 0.00818 0.46601 0.0
H999 H 0.5806 -0.00014 0.52074 0.0
H1000 H 0.51595 0.96259 0.5097 0.0
H1001 H 0.56428 0.98144 0.50246 0.0
H1002 H 0.38542 -0.0027 0.49531 0.0
H1003 H 0.3377 0.97844 0.50151 0.0
C1004 C 0.50976 0.02129 0.47303 0.0
C1005 C 0.56293 0.02435 0.48609 0.0
C1006 C 0.48262 0.0104 0.47677 0.0
C1007 C 0.50775 0.00245 0.49388 0.0
C1008 C 0.56066 0.00563 0.50707 0.0
C1009 C 0.58807 0.01642 0.50311 0.0
C1010 C 0.48719 0.97013 0.50667 0.0
C1011 C 0.4232 0.96906 0.50612 0.0
C1012 C 0.51474 0.98095 0.50259 0.0
C1013 C 0.47874 0.99092 0.49818 0.0
C1014 C 0.41464 0.9898 0.4981 0.0
C1015 C 0.38725 0.979 0.50189 0.0
H1016 H 0.64338 0.72684 0.22819 0.0
H1017 H 0.495 0.71679 0.2767 0.0
H1018 H 0.59471 0.7455 0.22099 0.0
H1019 H 0.44707 0.73577 0.27033 0.0
H1020 H 0.34525 0.76532 0.23301 0.0
H1021 H 0.3947 0.74665 0.23958 0.0
H1022 H 0.57163 0.76359 0.23963 0.0
H1023 H 0.52177 0.78228 0.23202 0.0
C1024 C 0.60054 0.72868 0.23755 0.0
C1025 C 0.57288 0.72035 0.25301 0.0
C1026 C 0.57282 0.73943 0.23354 0.0
C1027 C 0.517 0.74218 0.24509 0.0
C1028 C 0.4896 0.73387 0.2608 0.0
C1029 C 0.51713 0.72303 0.26461 0.0
C1030 C 0.39478 0.76504 0.23425 0.0
C1031 C 0.42977 0.77524 0.23197 0.0
C1032 C 0.42311 0.75435 0.23827 0.0
C1033 C 0.48714 0.7536 0.2404 0.0
C1034 C 0.52224 0.76382 0.23781 0.0
C1035 C 0.4938 0.77453 0.23348 0.0
H1036 H 0.34648 0.47938 0.0124 0.0
H1037 H 0.52567 0.46345 0.01201 0.0
H1038 H 0.39273 0.49839 0.00642 0.0
H1039 H 0.5723 0.48249 0.00505 0.0
H1040 H 0.63895 0.51961 0.01549 0.0
H1041 H 0.59293 0.50078 0.0237 0.0
H1042 H 0.44217 0.50945 0.975 0.0
H1043 H 0.48748 0.52857 0.96756 0.0
C1044 C 0.39592 0.47996 0.01106 0.0
C1045 C 0.43258 0.46995 0.01265 0.0
C1046 C 0.42239 0.49085 0.00738 0.0
C1047 C 0.48618 0.49198 0.00493 0.0
C1048 C 0.52302 0.48196 0.00709 0.0
C1049 C 0.49644 0.47105 0.01106 0.0
C1050 C 0.59593 0.5175 0.00652 0.0
C1051 C 0.56673 0.52555 0.99086 0.0
C1052 C 0.56974 0.50666 0.01112 0.0
C1053 C 0.51392 0.50356 -1e-05 0.0
C1054 C 0.48477 0.51162 0.9842 0.0
C1055 C 0.51079 0.52254 0.97979 0.0
H1056 H 0.03974 0.15437 0.29431 0.0
H1057 H 0.22854 0.14984 0.27224 0.0
H1058 H 0.02926 0.13327 0.29868 0.0
H1059 H 0.21777 0.12894 0.2758 0.0
H1060 H 0.1947 0.09136 0.29427 0.0
H1061 H 0.20354 0.11228 0.30168 0.0
H1062 H 0.0237 0.11743 0.26987 0.0
H1063 H 0.01429 0.09665 0.26325 0.0
C1064 C 0.07907 0.14888 0.29065 0.0
C1065 C 0.1347 0.15374 0.28269 0.0
C1066 C 0.07307 0.13681 0.29301 0.0
C1067 C 0.12257 0.12939 0.28741 0.0
C1068 C 0.17891 0.13435 0.28059 0.0
C1069 C 0.1849 0.14636 0.27831 0.0
C1070 C 0.1569 0.09698 0.28917 0.0
C1071 C 0.10412 0.09239 0.27797 0.0
C1072 C 0.16195 0.10896 0.29333 0.0
C1073 C 0.11442 0.11656 0.28626 0.0
C1074 C 0.06082 0.11186 0.2759 0.0
C1075 C 0.05571 0.09992 0.27186 0.0
H1076 H 0.19176 0.1537 0.94649 0.0
H1077 H 0.00991 0.14848 0.97613 0.0
H1078 H 0.2011 0.13275 0.93948 0.0
H1079 H 0.0198 0.12768 0.96997 0.0
H1080 H 0.03698 0.09069 0.94598 0.0
H1081 H 0.02653 0.11177 0.94159 0.0
H1082 H 0.21432 0.11613 0.96541 0.0
H1083 H 0.22512 0.09522 0.96896 0.0
C1084 C 0.15376 0.14809 0.95137 0.0
C1085 C 0.1004 0.15271 0.96205 0.0
C1086 C 0.1591 0.1361 0.94746 0.0
C1087 C 0.11129 0.12851 0.95427 0.0
C1088 C 0.05718 0.13324 0.96413 0.0
C1089 C 0.05176 0.14519 0.9679 0.0
C1090 C 0.07615 0.09617 0.94988 0.0
C1091 C 0.13161 0.09132 0.95804 0.0
C1092 C 0.07017 0.10825 0.9475 0.0
C1093 C 0.11949 0.11567 0.95332 0.0
C1094 C 0.17562 0.11072 0.96044 0.0
C1095 C 0.18163 0.0987 0.9627 0.0
H1096 H 0.7847 0.90271 0.71608 0.0
H1097 H 0.9745 0.90207 0.69374 0.0
H1098 H 0.7789 0.88171 0.71078 0.0
H1099 H 0.96827 0.88118 0.68693 0.0
H1100 H 0.96037 0.84365 0.71694 0.0
H1101 H 0.96631 0.86465 0.7117 0.0
H1102 H 0.77834 0.86513 0.68608 0.0
H1103 H 0.77188 0.84423 0.6928 0.0
C1104 C 0.82459 0.89809 0.70929 0.0
C1105 C 0.88015 0.90394 0.70559 0.0
C1106 C 0.82139 0.88604 0.70612 0.0
C1107 C 0.87345 0.87964 0.69871 0.0
C1108 C 0.92776 0.88572 0.69332 0.0
C1109 C 0.93124 0.89771 0.697 0.0
C1110 C 0.92082 0.84825 0.70978 0.0
C1111 C 0.86555 0.84239 0.70554 0.0
C1112 C 0.92412 0.8603 0.70664 0.0
C1113 C 0.87246 0.86669 0.69873 0.0
C1114 C 0.8185 0.8606 0.69285 0.0
C1115 C 0.81491 0.84861 0.69649 0.0
H1116 H 0.76731 0.89859 0.01731 0.0
H1117 H 0.94864 0.90321 0.04794 0.0
H1118 H 0.77577 0.87775 0.02284 0.0
H1119 H 0.95653 0.88219 0.0543 0.0
H1120 H 0.97903 0.84505 0.02195 0.0
H1121 H 0.96956 0.86588 0.02737 0.0
H1122 H 0.78118 0.86151 0.0504 0.0
H1123 H 0.7903 0.84051 0.04411 0.0
C1124 C 0.80872 0.89516 0.02564 0.0
C1125 C 0.8577 0.90252 0.0319 0.0
C1126 C 0.81329 0.88318 0.02906 0.0
C1127 C 0.86689 0.87826 0.03896 0.0
C1128 C 0.91492 0.88569 0.04629 0.0
C1129 C 0.91041 0.89772 0.04273 0.0
C1130 C 0.93571 0.8485 0.02845 0.0
C1131 C 0.88509 0.84116 0.03227 0.0
C1132 C 0.93047 0.86047 0.0318 0.0
C1133 C 0.87452 0.86541 0.03918 0.0
C1134 C 0.82469 0.85799 0.0443 0.0
C1135 C 0.8299 0.84597 0.04082 0.0
H1136 H 0.18855 0.59105 0.79208 0.0
H1137 H 0.0013 0.59491 0.7674 0.0
H1138 H 0.19594 0.61213 0.7974 0.0
H1139 H 0.00912 0.61584 0.77192 0.0
H1140 H 0.02652 0.65336 0.79342 0.0
H1141 H 0.01895 0.63228 0.79899 0.0
H1142 H 0.202 0.62828 0.76952 0.0
H1143 H 0.21003 0.64917 0.76471 0.0
C1144 C 0.14893 0.59638 0.78798 0.0
C1145 C 0.09462 0.59135 0.7791 0.0
C1146 C 0.15316 0.60845 0.79091 0.0
C1147 C 0.10322 0.6157 0.78491 0.0
C1148 C 0.04821 0.61056 0.77702 0.0
C1149 C 0.04394 0.59854 0.77421 0.0
C1150 C 0.06525 0.64795 0.78844 0.0
C1151 C 0.11859 0.6529 0.77844 0.0
C1152 C 0.06093 0.63589 0.79154 0.0
C1153 C 0.10983 0.62857 0.78463 0.0
C1154 C 0.16381 0.63362 0.77541 0.0
C1155 C 0.16816 0.64563 0.77241 0.0
H1156 H 0.20363 0.65243 0.44644 0.0
H1157 H 0.01918 0.64835 0.47422 0.0
H1158 H 0.21107 0.63136 0.44089 0.0
H1159 H 0.02711 0.62744 0.46947 0.0
H1160 H 0.04213 0.59006 0.4474 0.0
H1161 H 0.0342 0.61114 0.44198 0.0
H1162 H 0.2203 0.61506 0.46818 0.0
H1163 H 0.22865 0.59416 0.4728 0.0
C1164 C 0.16465 0.64705 0.45122 0.0
C1165 C 0.1111 0.65202 0.46097 0.0
C1166 C 0.16891 0.63499 0.44814 0.0
C1167 C 0.11977 0.62769 0.45486 0.0
C1168 C 0.06552 0.63277 0.46375 0.0
C1169 C 0.06122 0.64478 0.46671 0.0
C1170 C 0.08147 0.59545 0.45165 0.0
C1171 C 0.13575 0.59048 0.46073 0.0
C1172 C 0.07693 0.60752 0.44866 0.0
C1173 C 0.12654 0.61482 0.45478 0.0
C1174 C 0.18148 0.60974 0.46294 0.0
C1175 C 0.18605 0.59773 0.46582 0.0
H1176 H 0.95458 0.34308 0.21875 0.0
H1177 H 0.76542 0.34313 0.19549 0.0
H1178 H 0.95885 0.36409 0.21335 0.0
H1179 H 0.77019 0.36402 0.18854 0.0
H1180 H 0.77492 0.40199 0.21578 0.0
H1181 H 0.77035 0.38089 0.21209 0.0
H1182 H 0.95966 0.38039 0.18813 0.0
H1183 H 0.96469 0.40138 0.19342 0.0
C1184 C 0.91447 0.34757 0.21179 0.0
C1185 C 0.85958 0.34155 0.20777 0.0
C1186 C 0.91681 0.35963 0.20855 0.0
C1187 C 0.86456 0.36586 0.20072 0.0
C1188 C 0.81082 0.35963 0.19523 0.0
C1189 C 0.80819 0.34763 0.19899 0.0
C1190 C 0.81508 0.39734 0.20935 0.0
C1191 C 0.87025 0.40325 0.20513 0.0
C1192 C 0.81259 0.38523 0.2071 0.0
C1193 C 0.86497 0.37883 0.20009 0.0
C1194 C 0.91893 0.38493 0.19427 0.0
C1195 C 0.92172 0.39698 0.19705 0.0
H1196 H 0.77389 0.34135 0.52199 0.0
H1197 H 0.9604 0.34183 0.54849 0.0
H1198 H 0.76933 0.36245 0.52541 0.0
H1199 H 0.95518 0.36284 0.55347 0.0
H1200 H 0.95514 0.40008 0.52236 0.0
H1201 H 0.95811 0.37907 0.52799 0.0
H1202 H 0.7665 0.37937 0.54874 0.0
H1203 H 0.76322 0.40025 0.54156 0.0
C1204 C 0.81322 0.34597 0.5293 0.0
C1205 C 0.8676 0.34003 0.53475 0.0
C1206 C 0.81072 0.35808 0.53137 0.0
C1207 C 0.86226 0.36446 0.53944 0.0
C1208 C 0.91521 0.35832 0.54652 0.0
C1209 C 0.91806 0.34626 0.54391 0.0
C1210 C 0.91404 0.39563 0.52844 0.0
C1211 C 0.85888 0.40172 0.53127 0.0
C1212 C 0.91562 0.38358 0.53183 0.0
C1213 C 0.86228 0.37742 0.53862 0.0
C1214 C 0.80805 0.38372 0.54288 0.0
C1215 C 0.80624 0.39571 0.53897 0.0
H1216 H 0.69784 0.09089 0.79492 0.0
H1217 H 0.5163 0.09582 0.76472 0.0
H1218 H 0.7056 0.11182 0.8024 0.0
H1219 H 0.52466 0.11659 0.77131 0.0
H1220 H 0.53877 0.15358 0.79438 0.0
H1221 H 0.52986 0.13251 0.79957 0.0
H1222 H 0.71854 0.12847 0.77664 0.0
H1223 H 0.72783 0.14936 0.77237 0.0
C1224 C 0.65956 0.09643 0.79002 0.0
C1225 C 0.6068 0.09174 0.77901 0.0
C1226 C 0.66399 0.10841 0.79422 0.0
C1227 C 0.61585 0.11592 0.78734 0.0
C1228 C 0.56226 0.1111 0.77721 0.0
C1229 C 0.55774 0.09917 0.77318 0.0
C1230 C 0.57849 0.14817 0.79089 0.0
C1231 C 0.63371 0.15309 0.7827 0.0
C1232 C 0.57339 0.13611 0.79373 0.0
C1233 C 0.62335 0.12877 0.7883 0.0
C1234 C 0.67934 0.13381 0.7813 0.0
C1235 C 0.68448 0.14582 0.77861 0.0
H1236 H 0.52375 0.14996 0.44259 0.0
H1237 H 0.71193 0.15045 0.4671 0.0
H1238 H 0.53015 0.12907 0.43571 0.0
H1239 H 0.7178 0.12944 0.46171 0.0
H1240 H 0.72506 0.09195 0.44285 0.0
H1241 H 0.71981 0.1129 0.43687 0.0
H1242 H 0.53012 0.11248 0.46029 0.0
H1243 H 0.53494 0.09144 0.46481 0.0
C1244 C 0.56672 0.14556 0.44631 0.0
C1245 C 0.61728 0.15175 0.45551 0.0
C1246 C 0.57027 0.13358 0.4426 0.0
C1247 C 0.62408 0.12746 0.44857 0.0
C1248 C 0.67571 0.13381 0.45661 0.0
C1249 C 0.67247 0.14587 0.45981 0.0
C1250 C 0.68196 0.09635 0.44625 0.0
C1251 C 0.63045 0.09012 0.45443 0.0
C1252 C 0.67905 0.10838 0.44303 0.0
C1253 C 0.62486 0.11449 0.44844 0.0
C1254 C 0.57251 0.10812 0.45558 0.0
C1255 C 0.57517 0.09604 0.45832 0.0
H1256 H 0.28409 0.90385 0.1986 0.0
H1257 H 0.47288 0.89945 0.22084 0.0
H1258 H 0.27471 0.88278 0.19333 0.0
H1259 H 0.46319 0.87857 0.21636 0.0
H1260 H 0.44287 0.84124 0.19516 0.0
H1261 H 0.45041 0.86228 0.18929 0.0
H1262 H 0.26984 0.8665 0.22105 0.0
H1263 H 0.26173 0.8456 0.22613 0.0
C1264 C 0.32362 0.8984 0.20216 0.0
C1265 C 0.37897 0.90328 0.21034 0.0
C1266 C 0.31826 0.88634 0.19926 0.0
C1267 C 0.36813 0.87896 0.20456 0.0
C1268 C 0.42409 0.88396 0.21177 0.0
C1269 C 0.42946 0.89596 0.21457 0.0
C1270 C 0.40462 0.84669 0.20058 0.0
C1271 C 0.35202 0.84179 0.21131 0.0
C1272 C 0.40894 0.85873 0.19731 0.0
C1273 C 0.36083 0.86611 0.20483 0.0
C1274 C 0.30741 0.86111 0.21471 0.0
C1275 C 0.30302 0.84911 0.21786 0.0
H1276 H 0.44862 0.90332 0.54371 0.0
H1277 H 0.26096 0.89851 0.52035 0.0
H1278 H 0.45914 0.88229 0.54905 0.0
H1279 H 0.27184 0.87764 0.52485 0.0
H1280 H 0.29462 0.84023 0.54508 0.0
H1281 H 0.28486 0.86122 0.5514 0.0
H1282 H 0.46655 0.86617 0.52121 0.0
H1283 H 0.47683 0.84534 0.51573 0.0
C1284 C 0.40955 0.89779 0.53994 0.0
C1285 C 0.35424 0.90255 0.53138 0.0
C1286 C 0.41558 0.88574 0.54287 0.0
C1287 C 0.36645 0.87825 0.53719 0.0
C1288 C 0.3104 0.88312 0.52971 0.0
C1289 C 0.30435 0.89511 0.5269 0.0
C1290 C 0.33262 0.84582 0.54012 0.0
C1291 C 0.38619 0.84116 0.5297 0.0
C1292 C 0.32704 0.85784 0.54365 0.0
C1293 C 0.37484 0.86541 0.53671 0.0
C1294 C 0.42917 0.86064 0.52713 0.0
C1295 C 0.43481 0.84867 0.52374 0.0
H1296 H 0.73289 0.64955 0.26525 0.0
H1297 H 0.55124 0.65471 0.29514 0.0
H1298 H 0.72326 0.62876 0.27138 0.0
H1299 H 0.54219 0.63376 0.30216 0.0
H1300 H 0.51801 0.59634 0.2719 0.0
H1301 H 0.52862 0.61721 0.27618 0.0
H1302 H 0.71689 0.61274 0.2993 0.0
H1303 H 0.70663 0.59169 0.29411 0.0
C1304 C 0.69115 0.64624 0.27354 0.0
C1305 C 0.64245 0.65375 0.27943 0.0
C1306 C 0.68589 0.6343 0.27731 0.0
C1307 C 0.63189 0.62954 0.28721 0.0
C1308 C 0.5841 0.63712 0.29414 0.0
C1309 C 0.58927 0.64911 0.29022 0.0
C1310 C 0.56156 0.59978 0.27817 0.0
C1311 C 0.61178 0.59239 0.28235 0.0
C1312 C 0.56746 0.61178 0.28086 0.0
C1313 C 0.6237 0.6167 0.28796 0.0
C1314 C 0.67317 0.60924 0.2934 0.0
C1315 C 0.6673 0.59719 0.29056 0.0
H1316 H 0.69073 0.654 0.94254 0.0
H1317 H 0.51064 0.64925 0.97424 0.0
H1318 H 0.6994 0.63297 0.93663 0.0
H1319 H 0.51991 0.62838 0.96916 0.0
H1320 H 0.53585 0.59103 0.9484 0.0
H1321 H 0.52522 0.612 0.94198 0.0
H1322 H 0.71416 0.61683 0.96382 0.0
H1323 H 0.7251 0.59603 0.96936 0.0
C1324 C 0.65293 0.64848 0.94808 0.0
C1325 C 0.60036 0.65325 0.95909 0.0
C1326 C 0.65789 0.63644 0.94479 0.0
C1327 C 0.61047 0.62896 0.95256 0.0
C1328 C 0.55696 0.63384 0.96262 0.0
C1329 C 0.55193 0.64583 0.96578 0.0
C1330 C 0.57522 0.59659 0.95141 0.0
C1331 C 0.63104 0.59191 0.95964 0.0
C1332 C 0.56915 0.60859 0.94786 0.0
C1333 C 0.61874 0.61613 0.95256 0.0
C1334 C 0.67523 0.61132 0.95968 0.0
C1335 C 0.68132 0.59937 0.96311 0.0
H1336 H 0.29406 0.40397 0.69854 0.0
H1337 H 0.47956 0.3996 0.72494 0.0
H1338 H 0.2849 0.38288 0.69369 0.0
H1339 H 0.47003 0.37867 0.72077 0.0
H1340 H 0.45091 0.34129 0.69797 0.0
H1341 H 0.46004 0.36237 0.69292 0.0
H1342 H 0.27676 0.36669 0.7219 0.0
H1343 H 0.26722 0.34578 0.72629 0.0
C1344 C 0.33291 0.39852 0.70314 0.0
C1345 C 0.38727 0.40342 0.71232 0.0
C1346 C 0.32766 0.38645 0.70047 0.0
C1347 C 0.37667 0.37907 0.70696 0.0
C1348 C 0.43168 0.38407 0.71527 0.0
C1349 C 0.43693 0.39609 0.71789 0.0
C1350 C 0.41245 0.34676 0.70297 0.0
C1351 C 0.35861 0.3419 0.71271 0.0
C1352 C 0.41769 0.35883 0.70017 0.0
C1353 C 0.36917 0.36623 0.70709 0.0
C1354 C 0.31468 0.36127 0.71605 0.0
C1355 C 0.30945 0.34926 0.71879 0.0
H1356 H 0.45546 0.40306 0.04224 0.0
H1357 H 0.27174 0.39896 0.01368 0.0
H1358 H 0.46328 0.38195 0.04732 0.0
H1359 H 0.27995 0.37803 0.01813 0.0
H1360 H 0.29426 0.34079 0.04174 0.0
H1361 H 0.28677 0.3619 0.04655 0.0
H1362 H 0.47224 0.36557 0.01952 0.0
H1363 H 0.48011 0.3446 0.01536 0.0
C1364 C 0.41673 0.39767 0.0372 0.0
C1365 C 0.36324 0.40265 0.02739 0.0
C1366 C 0.42121 0.38559 0.04002 0.0
C1367 C 0.37226 0.3783 0.03307 0.0
C1368 C 0.31817 0.38337 0.02402 0.0
C1369 C 0.31371 0.39539 0.02124 0.0
C1370 C 0.33355 0.34612 0.03714 0.0
C1371 C 0.3875 0.34106 0.02797 0.0
C1372 C 0.32926 0.3582 0.03979 0.0
C1373 C 0.37884 0.36543 0.03329 0.0
C1374 C 0.43347 0.36028 0.02501 0.0
C1375 C 0.43776 0.34824 0.0224 0.0
H1376 H 0.03444 0.05623 0.34411 0.0
H1377 H 0.8963 0.04296 0.29421 0.0
H1378 H 0.9656 0.0536 0.37893 0.0
H1379 H 0.82783 0.03968 0.32939 0.0
H1380 H 0.6983 0.05172 0.39157 0.0
H1381 H 0.76754 0.05061 0.3565 0.0
H1382 H 0.91537 0.0409 0.40585 0.0
H1383 H 0.84614 0.04268 0.44124 0.0
C1384 C 0.98955 0.05254 0.34068 0.0
C1385 C 0.97041 0.04989 0.31647 0.0
C1386 C 0.95017 0.05091 0.36072 0.0
C1387 C 0.89096 0.04641 0.35709 0.0
C1388 C 0.87266 0.04337 0.33286 0.0
C1389 C 0.91186 0.04519 0.3127 0.0
C1390 C 0.74547 0.04922 0.3949 0.0
C1391 C 0.76711 0.04741 0.41913 0.0
C1392 C 0.78519 0.04849 0.37472 0.0
C1393 C 0.84736 0.04575 0.37826 0.0
C1394 C 0.86814 0.0433 0.40246 0.0
C1395 C 0.8285 0.04424 0.42274 0.0
H1396 H 0.20333 0.20176 0.3458 0.0
H1397 H 0.35594 0.19077 0.30047 0.0
H1398 H 0.27103 0.20346 0.38153 0.0
H1399 H 0.42345 0.19203 0.33641 0.0
H1400 H 0.54072 0.20157 0.40135 0.0
H1401 H 0.4729 0.20428 0.36591 0.0
H1402 H 0.32214 0.19031 0.40863 0.0
H1403 H 0.38963 0.18804 0.44431 0.0
C1404 C 0.25151 0.19977 0.34347 0.0
C1405 C 0.27443 0.19606 0.32044 0.0
C1406 C 0.29021 0.20067 0.36398 0.0
C1407 C 0.35254 0.19776 0.36194 0.0
C1408 C 0.37584 0.19447 0.3386 0.0
C1409 C 0.33717 0.19369 0.31801 0.0
C1410 C 0.49285 0.19923 0.40323 0.0
C1411 C 0.47039 0.19453 0.42549 0.0
C1412 C 0.4541 0.20071 0.38288 0.0
C1413 C 0.39222 0.19741 0.38431 0.0
C1414 C 0.36936 0.19309 0.40694 0.0
C1415 C 0.40804 0.19173 0.42738 0.0
H1416 H 0.69624 0.191 0.84785 0.0
H1417 H 0.84151 0.20172 0.79849 0.0
H1418 H 0.76487 0.19268 0.88301 0.0
H1419 H 0.90996 0.20409 0.83398 0.0
H1420 H 0.03259 0.18985 0.89587 0.0
H1421 H 0.96376 0.19196 0.8609 0.0
H1422 H 0.82136 0.20421 0.91031 0.0
H1423 H 0.89 0.20143 0.94563 0.0
C1424 C 0.74267 0.19397 0.84461 0.0
C1425 C 0.76385 0.19611 0.82044 0.0
C1426 C 0.782 0.19504 0.86484 0.0
C1427 C 0.84326 0.19846 0.86143 0.0
C1428 C 0.86348 0.20118 0.83727 0.0
C1429 C 0.82429 0.1999 0.81694 0.0
C1430 C 0.9867 0.19308 0.89925 0.0
C1431 C 0.96636 0.19537 0.92346 0.0
C1432 C 0.94727 0.1944 0.87912 0.0
C1433 C 0.88676 0.19825 0.88267 0.0
C1434 C 0.86725 0.20101 0.9069 0.0
C1435 C 0.90655 0.19948 0.92714 0.0
H1436 H 0.34249 0.04254 0.93966 0.0
H1437 H 0.20043 0.05457 0.89013 0.0
H1438 H 0.4116 0.04014 0.90441 0.0
H1439 H 0.26988 0.05283 0.8552 0.0
H1440 H 0.39559 0.04367 0.79283 0.0
H1441 H 0.32529 0.04112 0.82772 0.0
H1442 H 0.46809 0.05216 0.87821 0.0
H1443 H 0.53838 0.05405 0.84371 0.0
C1444 C 0.32615 0.04466 0.92122 0.0
C1445 C 0.2664 0.04881 0.91761 0.0
C1446 C 0.36573 0.04335 0.90103 0.0
C1447 C 0.34664 0.04639 0.8769 0.0
C1448 C 0.28608 0.05021 0.87335 0.0
C1449 C 0.24631 0.05132 0.89345 0.0
C1450 C 0.41185 0.04539 0.81147 0.0
C1451 C 0.47221 0.0491 0.81558 0.0
C1452 C 0.37161 0.044 0.83146 0.0
C1453 C 0.39077 0.04649 0.85586 0.0
C1454 C 0.45179 0.04993 0.85985 0.0
C1455 C 0.49209 0.05113 0.83998 0.0
H1456 H 0.13454 0.94031 0.54944 0.0
H1457 H 0.2897 0.9516 0.59298 0.0
H1458 H 0.06845 0.94243 0.58563 0.0
H1459 H 0.22346 0.95415 0.62893 0.0
H1460 H 0.10561 0.94003 0.69343 0.0
H1461 H 0.17222 0.94164 0.65732 0.0
H1462 H 0.02118 0.95537 0.6144 0.0
H1463 H 0.95421 0.95333 0.6503 0.0
C1464 C 0.15419 0.94347 0.56663 0.0
C1465 C 0.2172 0.94567 0.56852 0.0
C1466 C 0.11634 0.94475 0.58735 0.0
C1467 C 0.14077 0.94838 0.61027 0.0
C1468 C 0.20341 0.95111 0.61172 0.0
C1469 C 0.24128 0.94971 0.5911 0.0
C1470 C 0.08699 0.94354 0.67637 0.0
C1471 C 0.02475 0.94645 0.67456 0.0
C1472 C 0.12516 0.94452 0.65568 0.0
C1473 C 0.10189 0.94855 0.63287 0.0
C1474 C 0.04024 0.95201 0.63152 0.0
C1475 C 0.00199 0.95092 0.65212 0.0
H1476 H 0.64703 0.79471 0.69514 0.0
H1477 H 0.79328 0.80388 0.64485 0.0
H1478 H 0.57805 0.79204 0.65994 0.0
H1479 H 0.72418 0.80192 0.6099 0.0
H1480 H 0.59744 0.79262 0.54814 0.0
H1481 H 0.66617 0.79025 0.58356 0.0
H1482 H 0.52541 0.80386 0.63213 0.0
H1483 H 0.45639 0.80554 0.59711 0.0
C1484 C 0.66434 0.79613 0.67655 0.0
C1485 C 0.72522 0.79957 0.67269 0.0
C1486 C 0.62484 0.79468 0.65636 0.0
C1487 C 0.64522 0.79688 0.63199 0.0
C1488 C 0.70688 0.79996 0.62825 0.0
C1489 C 0.74651 0.80119 0.64836 0.0
C1490 C 0.58128 0.79496 0.56648 0.0
C1491 C 0.52186 0.79931 0.56991 0.0
C1492 C 0.62063 0.79367 0.58677 0.0
C1493 C 0.6016 0.79692 0.61079 0.0
C1494 C 0.5415 0.80103 0.6141 0.0
C1495 C 0.50198 0.80211 0.59394 0.0
H1496 H 0.28704 0.80603 0.14293 0.0
H1497 H 0.14903 0.79195 0.19186 0.0
H1498 H 0.21838 0.80381 0.10789 0.0
H1499 H 0.08083 0.78908 0.15645 0.0
H1500 H 0.95083 0.80214 0.09559 0.0
H1501 H 0.02063 0.80057 0.13035 0.0
H1502 H 0.16766 0.79153 0.08004 0.0
H1503 H 0.09774 0.79375 0.04495 0.0
C1504 C 0.24225 0.80225 0.14609 0.0
C1505 C 0.22302 0.79927 0.17012 0.0
C1506 C 0.20298 0.80086 0.12592 0.0
C1507 C 0.14382 0.79628 0.12924 0.0
C1508 C 0.12559 0.79285 0.15324 0.0
C1509 C 0.16464 0.79443 0.17353 0.0
C1510 C -0.00206 0.7997 0.09195 0.0
C1511 C 0.01909 0.79818 0.06756 0.0
C1512 C 0.03799 0.7987 0.11196 0.0
C1513 C 0.10005 0.79598 0.1081 0.0
C1514 C 0.12047 0.79388 0.08369 0.0
C1515 C 0.08045 0.79507 0.06358 0.0
H1516 H 0.64991 0.95128 0.04791 0.0
H1517 H 0.78898 0.9388 0.09833 0.0
H1518 H 0.57967 0.95391 0.08275 0.0
H1519 H 0.71847 0.9408 0.13282 0.0
H1520 H 0.59339 0.95092 0.19443 0.0
H1521 H 0.66422 0.95305 0.15964 0.0
H1522 H 0.52107 0.94219 0.10914 0.0
H1523 H 0.45018 0.9407 0.1436 0.0
C1524 C 0.66535 0.9491 0.06645 0.0
C1525 C 0.72463 0.94479 0.07044 0.0
C1526 C 0.62513 0.95054 0.0864 0.0
C1527 C 0.64316 0.9475 0.11066 0.0
C1528 C 0.70315 0.94344 0.11456 0.0
C1529 C 0.74352 0.94219 0.09471 0.0
C1530 C 0.57714 0.94915 0.17582 0.0
C1531 C 0.51654 0.94559 0.1717 0.0
C1532 C 0.61769 0.9503 0.15589 0.0
C1533 C 0.59861 0.94771 0.13153 0.0
C1534 C 0.53731 0.94446 0.12749 0.0
C1535 C 0.49668 0.9435 0.14733 0.0
H1536 H 0.03363 0.55429 0.84665 0.0
H1537 H 0.89006 0.54219 0.79792 0.0
H1538 H 0.9655 0.55254 0.88194 0.0
H1539 H 0.82218 0.53977 0.83359 0.0
H1540 H 0.69793 0.55378 0.89539 0.0
H1541 H 0.76634 0.55171 0.86027 0.0
H1542 H 0.91171 0.54081 0.9097 0.0
H1543 H 0.84346 0.54355 0.94513 0.0
C1544 C 0.9877 0.55101 0.84358 0.0
C1545 C 0.96683 0.54848 0.81955 0.0
C1546 C 0.94867 0.5499 0.8639 0.0
C1547 C 0.88806 0.54604 0.86071 0.0
C1548 C 0.86814 0.543 0.8367 0.0
C1549 C 0.90701 0.54431 0.81627 0.0
C1550 C 0.74438 0.55084 0.89874 0.0
C1551 C 0.76567 0.54894 0.92298 0.0
C1552 C 0.78358 0.54955 0.87853 0.0
C1553 C 0.84482 0.54613 0.88204 0.0
C1554 C 0.86523 0.54369 0.90631 0.0
C1555 C 0.82616 0.54519 0.92661 0.0
H1556 H 0.32861 0.70126 0.79739 0.0
H1557 H 0.1903 0.68843 0.84775 0.0
H1558 H 0.39924 0.70371 0.83212 0.0
H1559 H 0.26129 0.69029 0.88218 0.0
H1560 H 0.38777 0.70058 0.94355 0.0
H1561 H 0.31607 0.70265 0.90902 0.0
H1562 H 0.45787 0.69165 0.85804 0.0
H1563 H 0.52956 0.69016 0.89223 0.0
C1564 C 0.31344 0.69896 0.81589 0.0
C1565 C 0.25428 0.69459 0.8199 0.0
C1566 C 0.35387 0.70031 0.83578 0.0
C1567 C 0.33617 0.69713 0.85998 0.0
C1568 C 0.27629 0.69302 0.86393 0.0
C1569 C 0.2357 0.69185 0.84413 0.0
C1570 C 0.40352 0.69875 0.92489 0.0
C1571 C 0.46399 0.69515 0.92055 0.0
C1572 C 0.36249 0.69987 0.90512 0.0
C1573 C 0.38102 0.69725 0.88071 0.0
C1574 C 0.44212 0.69395 0.87646 0.0
C1575 C 0.48319 0.69299 0.89613 0.0
H1576 H 0.04697 0.68784 0.39178 0.0
H1577 H 0.90948 0.70228 0.44049 0.0
H1578 H 0.97855 0.69018 0.35663 0.0
H1579 H 0.84167 0.70525 0.40504 0.0
H1580 H 0.71089 0.69222 0.34466 0.0
H1581 H 0.78124 0.69362 0.37925 0.0
H1582 H 0.92791 0.70256 0.3287 0.0
H1583 H 0.85736 0.70053 0.29375 0.0
C1584 C 0.00238 0.69173 0.39486 0.0
C1585 C 0.98312 0.69475 0.41885 0.0
C1586 C 0.96328 0.69318 0.37465 0.0
C1587 C 0.90433 0.69787 0.37793 0.0
C1588 C 0.88623 0.70138 0.40188 0.0
C1589 C 0.92506 0.69973 0.42219 0.0
C1590 C 0.75805 0.69459 0.34093 0.0
C1591 C 0.77888 0.69616 0.31651 0.0
C1592 C 0.79841 0.6955 0.36084 0.0
C1593 C 0.86047 0.69818 0.35685 0.0
C1594 C 0.88068 0.70026 0.33242 0.0
C1595 C 0.84031 0.69918 0.31241 0.0
H1596 H 0.40041 0.54341 0.29697 0.0
H1597 H 0.54212 0.55442 0.34772 0.0
H1598 H 0.33068 0.54051 0.33186 0.0
H1599 H 0.47213 0.5522 0.38232 0.0
H1600 H 0.34601 0.54223 0.44371 0.0
H1601 H 0.41624 0.54008 0.4087 0.0
H1602 H 0.27415 0.55214 0.35894 0.0
H1603 H 0.20382 0.55363 0.39356 0.0
C1604 C 0.41655 0.5452 0.3156 0.0
C1605 C 0.47638 0.54921 0.31967 0.0
C1606 C 0.37662 0.54361 0.33559 0.0
C1607 C 0.39547 0.54621 0.35998 0.0
C1608 C 0.4561 0.5499 0.36395 0.0
C1609 C 0.49619 0.55129 0.34405 0.0
C1610 C 0.32987 0.54426 0.42519 0.0
C1611 C 0.26973 0.54815 0.42133 0.0
C1612 C 0.37007 0.5431 0.40514 0.0
C1613 C 0.35113 0.54601 0.38093 0.0
C1614 C 0.29027 0.5496 0.37715 0.0
C1615 C 0.24996 0.55056 0.39708 0.0
H1616 H 0.9464 0.4402 0.14112 0.0
H1617 H 0.08939 0.44986 0.19255 0.0
H1618 H 0.0184 0.44146 0.10692 0.0
H1619 H 0.1613 0.45173 0.15808 0.0
H1620 H 0.28681 0.43743 0.09733 0.0
H1621 H 0.21483 0.43922 0.1314 0.0
H1622 H 0.07906 0.45314 0.08098 0.0
H1623 H 0.15077 0.45076 0.04655 0.0
C1624 C 0.99309 0.44283 0.14503 0.0
C1625 C 0.01255 0.44483 0.16949 0.0
C1626 C 0.03436 0.44364 0.12537 0.0
C1627 C 0.09589 0.44664 0.12968 0.0
C1628 C 0.11459 0.44915 0.15412 0.0
C1629 C 0.07341 0.44816 0.17386 0.0
C1630 C 0.24167 0.44093 0.09355 0.0
C1631 C 0.22412 0.44388 0.06929 0.0
C1632 C 0.20048 0.44207 0.11315 0.0
C1633 C 0.14099 0.44634 0.10902 0.0
C1634 C 0.12413 0.44963 0.08478 0.0
C1635 C 0.16518 0.44832 0.06507 0.0
H1636 H 0.64277 0.29435 0.19644 0.0
H1637 H 0.79024 0.30245 0.14588 0.0
H1638 H 0.57312 0.29203 0.16131 0.0
H1639 H 0.72065 0.30078 0.11102 0.0
H1640 H 0.5922 0.2917 0.04958 0.0
H1641 H 0.66055 0.2892 0.08507 0.0
H1642 H 0.52256 0.30413 0.13314 0.0
H1643 H 0.45378 0.30601 0.09804 0.0
C1644 C 0.66024 0.29559 0.17781 0.0
C1645 C 0.72169 0.29864 0.17387 0.0
C1646 C 0.62036 0.29434 0.15767 0.0
C1647 C 0.64098 0.29633 0.13325 0.0
C1648 C 0.70312 0.299 0.12943 0.0
C1649 C 0.74306 0.30005 0.14948 0.0
C1650 C 0.57653 0.29432 0.06782 0.0
C1651 C 0.51796 0.2991 0.07107 0.0
C1652 C 0.61568 0.29294 0.08816 0.0
C1653 C 0.59734 0.29652 0.11205 0.0
C1654 C 0.53805 0.30107 0.11521 0.0
C1655 C 0.49871 0.30225 0.095 0.0
H1656 H 0.09103 0.29407 0.54622 0.0
H1657 H 0.94456 0.30176 0.59755 0.0
H1658 H 0.16258 0.29249 0.5809 0.0
H1659 H 0.01594 0.30083 0.63193 0.0
H1660 H 0.14872 0.29262 0.69263 0.0
H1661 H 0.07882 0.28973 0.65779 0.0
H1662 H 0.21248 0.30508 0.60834 0.0
H1663 H 0.2829 0.30734 0.64283 0.0
C1664 C 0.07419 0.29538 0.56492 0.0
C1665 C 0.01244 0.29809 0.5692 0.0
C1666 C 0.11515 0.29456 0.5848 0.0
C1667 C 0.09529 0.29664 0.60929 0.0
C1668 C 0.03293 0.29899 0.61347 0.0
C1669 C 0.99195 0.29961 0.59369 0.0
C1670 C 0.16307 0.29527 0.67424 0.0
C1671 C 0.22096 0.30024 0.67041 0.0
C1672 C 0.12304 0.29367 0.65427 0.0
C1673 C 0.13978 0.29721 0.63017 0.0
C1674 C 0.19828 0.30203 0.62645 0.0
C1675 C 0.23853 0.30344 0.6463 0.0
H1676 H 0.59783 0.45152 0.69141 0.0
H1677 H 0.45603 0.43896 0.64235 0.0
H1678 H 0.6671 0.45357 0.65607 0.0
H1679 H 0.5255 0.4404 0.60739 0.0
H1680 H 0.64876 0.44974 0.54466 0.0
H1681 H 0.57959 0.45235 0.57983 0.0
H1682 H 0.72378 0.4414 0.62975 0.0
H1683 H 0.79314 0.43941 0.59485 0.0
C1684 C 0.58158 0.4492 0.67307 0.0
C1685 C 0.5218 0.44503 0.6696 0.0
C1686 C 0.62124 0.45031 0.65283 0.0
C1687 C 0.6021 0.44709 0.62883 0.0
C1688 C 0.54166 0.44317 0.62544 0.0
C1689 C 0.50188 0.44224 0.64556 0.0
C1690 C 0.66563 0.44805 0.56322 0.0
C1691 C 0.72606 0.44431 0.56705 0.0
C1692 C 0.62601 0.44947 0.58337 0.0
C1693 C 0.64585 0.44699 0.60768 0.0
C1694 C 0.70701 0.44358 0.61142 0.0
C1695 C 0.74674 0.44234 0.59135 0.0
loop_
_geom_bond_atom_site_label_1
_geom_bond_atom_site_label_2
_geom_bond_distance
_geom_bond_site_symmetry_2
_ccdc_geom_bond_type
In0 O1 2.294 . S
In0 O2 2.326 . S
In0 O6 2.266 . S
In0 O7 2.326 . S
In0 O8 2.266 . S
In0 O9 2.326 . S
In0 O11 2.294 . S
In0 O12 2.326 . S
O1 In0 2.294 . S
O1 C10 1.240 . S
O2 In0 2.326 . S
O2 C10 1.252 . S
C3 O6 1.252 . S
C3 O7 1.260 . S
C4 O11 1.240 . S
C4 O12 1.252 . S
C5 O8 1.252 . S
C5 O9 1.260 . S
O6 In0 2.266 . S
O6 C3 1.252 . S
O7 In0 2.326 . S
O7 C3 1.260 . S
O8 In0 2.266 . S
O8 C5 1.252 . S
O9 In0 2.326 . S
O9 C5 1.260 . S
C10 O1 1.240 . S
C10 O2 1.252 . S
O11 In0 2.294 . S
O11 C4 1.240 . S
O12 In0 2.326 . S
O12 C4 1.252 . S
In13 O14 2.294 . S
In13 O15 2.326 . S
In13 O19 2.266 . S
In13 O20 2.326 . S
In13 O21 2.266 . S
In13 O22 2.326 . S
In13 O24 2.294 . S
In13 O25 2.326 . S
O14 In13 2.294 . S
O14 C23 1.240 . S
O15 In13 2.326 . S
O15 C23 1.252 . S
C16 O19 1.252 . S
C16 O20 1.260 . S
C17 O24 1.240 . S
C17 O25 1.252 . S
C18 O21 1.252 . S
C18 O22 1.260 . S
O19 In13 2.266 . S
O19 C16 1.252 . S
O20 In13 2.326 . S
O20 C16 1.260 . S
O21 In13 2.266 . S
O21 C18 1.252 . S
O22 In13 2.326 . S
O22 C18 1.260 . S
C23 O14 1.240 . S
C23 O15 1.252 . S
O24 In13 2.294 . S
O24 C17 1.240 . S
O25 In13 2.326 . S
O25 C17 1.252 . S
In26 O27 2.294 . S
In26 O28 2.326 . S
In26 O32 2.266 . S
In26 O33 2.326 . S
In26 O34 2.266 1_556 S
In26 O35 2.326 1_556 S
In26 O37 2.294 . S
In26 O38 2.326 . S
O27 In26 2.294 . S
O27 C36 1.240 . S
O28 In26 2.326 . S
O28 C36 1.252 . S
C29 O32 1.252 . S
C29 O33 1.260 . S
C30 O37 1.240 . S
C30 O38 1.252 . S
C31 O34 1.252 . S
C31 O35 1.260 . S
O32 In26 2.266 . S
O32 C29 1.252 . S
O33 In26 2.326 . S
O33 C29 1.260 . S
O34 In26 2.266 1_554 S
O34 C31 1.252 . S
O35 In26 2.326 1_554 S
O35 C31 1.260 . S
C36 O27 1.240 . S
C36 O28 1.252 . S
O37 In26 2.294 . S
O37 C30 1.240 . S
O38 In26 2.326 . S
O38 C30 1.252 . S
In39 O40 2.294 . S
In39 O41 2.326 . S
In39 O45 2.266 1_556 S
In39 O46 2.326 1_556 S
In39 O47 2.266 . S
In39 O48 2.326 . S
In39 O50 2.294 . S
In39 O51 2.326 . S
O40 In39 2.294 . S
O40 C49 1.240 . S
O41 In39 2.326 . S
O41 C49 1.252 . S
C42 O45 1.252 . S
C42 O46 1.260 . S
C43 O50 1.240 . S
C43 O51 1.252 . S
C44 O47 1.252 . S
C44 O48 1.260 . S
O45 In39 2.266 1_554 S
O45 C42 1.252 . S
O46 In39 2.326 1_554 S
O46 C42 1.260 . S
O47 In39 2.266 . S
O47 C44 1.252 . S
O48 In39 2.326 . S
O48 C44 1.260 . S
C49 O40 1.240 . S
C49 O41 1.252 . S
O50 In39 2.294 . S
O50 C43 1.240 . S
O51 In39 2.326 . S
O51 C43 1.252 . S
In52 O53 2.294 . S
In52 O54 2.326 . S
In52 O58 2.266 . S
In52 O59 2.326 . S
In52 O60 2.266 . S
In52 O61 2.326 . S
In52 O63 2.294 . S
In52 O64 2.326 . S
O53 In52 2.294 . S
O53 C62 1.240 . S
O54 In52 2.326 . S
O54 C62 1.252 . S
C55 O58 1.252 . S
C55 O59 1.260 . S
C56 O63 1.240 . S
C56 O64 1.252 . S
C57 O60 1.252 . S
C57 O61 1.260 . S
O58 In52 2.266 . S
O58 C55 1.252 . S
O59 In52 2.326 . S
O59 C55 1.260 . S
O60 In52 2.266 . S
O60 C57 1.252 . S
O61 In52 2.326 . S
O61 C57 1.260 . S
C62 O53 1.240 . S
C62 O54 1.252 . S
O63 In52 2.294 . S
O63 C56 1.240 . S
O64 In52 2.326 . S
O64 C56 1.252 . S
In65 O66 2.294 . S
In65 O67 2.326 . S
In65 O71 2.266 . S
In65 O72 2.326 . S
In65 O73 2.266 . S
In65 O74 2.326 . S
In65 O76 2.294 . S
In65 O77 2.326 . S
O66 In65 2.294 . S
O66 C75 1.240 . S
O67 In65 2.326 . S
O67 C75 1.252 . S
C68 O71 1.252 . S
C68 O72 1.260 . S
C69 O76 1.240 . S
C69 O77 1.252 . S
C70 O73 1.252 . S
C70 O74 1.260 . S
O71 In65 2.266 . S
O71 C68 1.252 . S
O72 In65 2.326 . S
O72 C68 1.260 . S
O73 In65 2.266 . S
O73 C70 1.252 . S
O74 In65 2.326 . S
O74 C70 1.260 . S
C75 O66 1.240 . S
C75 O67 1.252 . S
O76 In65 2.294 . S
O76 C69 1.240 . S
O77 In65 2.326 . S
O77 C69 1.252 . S
In78 O79 2.294 . S
In78 O80 2.326 . S
In78 O84 2.266 1_554 S
In78 O85 2.326 1_554 S
In78 O86 2.266 . S
In78 O87 2.326 . S
In78 O89 2.294 . S
In78 O90 2.326 . S
O79 In78 2.294 . S
O79 C88 1.240 . S
O80 In78 2.326 . S
O80 C88 1.252 . S
C81 O84 1.252 . S
C81 O85 1.260 . S
C82 O89 1.240 . S
C82 O90 1.252 . S
C83 O86 1.252 . S
C83 O87 1.260 . S
O84 In78 2.266 1_556 S
O84 C81 1.252 . S
O85 In78 2.326 1_556 S
O85 C81 1.260 . S
O86 In78 2.266 . S
O86 C83 1.252 . S
O87 In78 2.326 . S
O87 C83 1.260 . S
C88 O79 1.240 . S
C88 O80 1.252 . S
O89 In78 2.294 . S
O89 C82 1.240 . S
O90 In78 2.326 . S
O90 C82 1.252 . S
In91 O92 2.294 . S
In91 O93 2.326 . S
In91 O97 2.266 1_554 S
In91 O98 2.326 1_554 S
In91 O99 2.266 . S
In91 O100 2.326 . S
In91 O102 2.294 . S
In91 O103 2.326 . S
O92 In91 2.294 . S
O92 C101 1.240 . S
O93 In91 2.326 . S
O93 C101 1.252 . S
C94 O97 1.252 . S
C94 O98 1.260 . S
C95 O102 1.240 . S
C95 O103 1.252 . S
C96 O99 1.252 . S
C96 O100 1.260 . S
O97 In91 2.266 1_556 S
O97 C94 1.252 . S
O98 In91 2.326 1_556 S
O98 C94 1.260 . S
O99 In91 2.266 . S
O99 C96 1.252 . S
O100 In91 2.326 . S
O100 C96 1.260 . S
C101 O92 1.240 . S
C101 O93 1.252 . S
O102 In91 2.294 . S
O102 C95 1.240 . S
O103 In91 2.326 . S
O103 C95 1.252 . S
In104 O105 2.294 . S
In104 O106 2.326 . S
In104 O110 2.266 . S
In104 O111 2.326 . S
In104 O112 2.266 . S
In104 O113 2.326 . S
In104 O115 2.294 . S
In104 O116 2.326 . S
O105 In104 2.294 . S
O105 C114 1.240 . S
O106 In104 2.326 . S
O106 C114 1.252 . S
C107 O110 1.252 . S
C107 O111 1.260 . S
C108 O115 1.240 . S
C108 O116 1.252 . S
C109 O112 1.252 . S
C109 O113 1.260 . S
O110 In104 2.266 . S
O110 C107 1.252 . S
O111 In104 2.326 . S
O111 C107 1.260 . S
O112 In104 2.266 . S
O112 C109 1.252 . S
O113 In104 2.326 . S
O113 C109 1.260 . S
C114 O105 1.240 . S
C114 O106 1.252 . S
O115 In104 2.294 . S
O115 C108 1.240 . S
O116 In104 2.326 . S
O116 C108 1.252 . S
In117 O118 2.294 . S
In117 O119 2.326 . S
In117 O123 2.266 . S
In117 O124 2.326 . S
In117 O125 2.266 . S
In117 O126 2.326 . S
In117 O128 2.294 . S
In117 O129 2.326 . S
O118 In117 2.294 . S
O118 C127 1.240 . S
O119 In117 2.326 . S
O119 C127 1.252 . S
C120 O123 1.252 . S
C120 O124 1.260 . S
C121 O128 1.240 . S
C121 O129 1.252 . S
C122 O125 1.252 . S
C122 O126 1.260 . S
O123 In117 2.266 . S
O123 C120 1.252 . S
O124 In117 2.326 . S
O124 C120 1.260 . S
O125 In117 2.266 . S
O125 C122 1.252 . S
O126 In117 2.326 . S
O126 C122 1.260 . S
C127 O118 1.240 . S
C127 O119 1.252 . S
O128 In117 2.294 . S
O128 C121 1.240 . S
O129 In117 2.326 . S
O129 C121 1.252 . S
In130 O131 2.294 . S
In130 O132 2.326 . S
In130 O136 2.266 . S
In130 O137 2.326 . S
In130 O138 2.266 . S
In130 O139 2.326 . S
In130 O141 2.294 . S
In130 O142 2.326 . S
O131 In130 2.294 . S
O131 C140 1.240 . S
O132 In130 2.326 . S
O132 C140 1.252 . S
C133 O136 1.252 . S
C133 O137 1.260 . S
C134 O141 1.240 . S
C134 O142 1.252 . S
C135 O138 1.252 . S
C135 O139 1.260 . S
O136 In130 2.266 . S
O136 C133 1.252 . S
O137 In130 2.326 . S
O137 C133 1.260 . S
O138 In130 2.266 . S
O138 C135 1.252 . S
O139 In130 2.326 . S
O139 C135 1.260 . S
C140 O131 1.240 . S
C140 O132 1.252 . S
O141 In130 2.294 . S
O141 C134 1.240 . S
O142 In130 2.326 . S
O142 C134 1.252 . S
In143 O144 2.294 . S
In143 O145 2.326 . S
In143 O149 2.266 . S
In143 O150 2.326 . S
In143 O151 2.266 . S
In143 O152 2.326 . S
In143 O154 2.294 . S
In143 O155 2.326 . S
O144 In143 2.294 . S
O144 C153 1.240 . S
O145 In143 2.326 . S
O145 C153 1.252 . S
C146 O149 1.252 . S
C146 O150 1.260 . S
C147 O154 1.240 . S
C147 O155 1.252 . S
C148 O151 1.252 . S
C148 O152 1.260 . S
O149 In143 2.266 . S
O149 C146 1.252 . S
O150 In143 2.326 . S
O150 C146 1.260 . S
O151 In143 2.266 . S
O151 C148 1.252 . S
O152 In143 2.326 . S
O152 C148 1.260 . S
C153 O144 1.240 . S
C153 O145 1.252 . S
O154 In143 2.294 . S
O154 C147 1.240 . S
O155 In143 2.326 . S
O155 C147 1.252 . S
In156 O157 2.294 . S
In156 O158 2.326 . S
In156 O162 2.266 . S
In156 O163 2.326 . S
In156 O164 2.266 . S
In156 O165 2.326 . S
In156 O167 2.294 . S
In156 O168 2.326 . S
O157 In156 2.294 . S
O157 C166 1.240 . S
O158 In156 2.326 . S
O158 C166 1.252 . S
C159 O162 1.252 . S
C159 O163 1.260 . S
C160 O167 1.240 . S
C160 O168 1.252 . S
C161 O164 1.252 . S
C161 O165 1.260 . S
O162 In156 2.266 . S
O162 C159 1.252 . S
O163 In156 2.326 . S
O163 C159 1.260 . S
O164 In156 2.266 . S
O164 C161 1.252 . S
O165 In156 2.326 . S
O165 C161 1.260 . S
C166 O157 1.240 . S
C166 O158 1.252 . S
O167 In156 2.294 . S
O167 C160 1.240 . S
O168 In156 2.326 . S
O168 C160 1.252 . S
In169 O170 2.294 . S
In169 O171 2.326 . S
In169 O175 2.266 . S
In169 O176 2.326 . S
In169 O177 2.266 . S
In169 O178 2.326 . S
In169 O180 2.294 . S
In169 O181 2.326 . S
O170 In169 2.294 . S
O170 C179 1.240 . S
O171 In169 2.326 . S
O171 C179 1.252 . S
C172 O175 1.252 . S
C172 O176 1.260 . S
C173 O180 1.240 . S
C173 O181 1.252 . S
C174 O177 1.252 . S
C174 O178 1.260 . S
O175 In169 2.266 . S
O175 C172 1.252 . S
O176 In169 2.326 . S
O176 C172 1.260 . S
O177 In169 2.266 . S
O177 C174 1.252 . S
O178 In169 2.326 . S
O178 C174 1.260 . S
C179 O170 1.240 . S
C179 O171 1.252 . S
O180 In169 2.294 . S
O180 C173 1.240 . S
O181 In169 2.326 . S
O181 C173 1.252 . S
In182 O183 2.294 . S
In182 O184 2.326 . S
In182 O188 2.266 . S
In182 O189 2.326 . S
In182 O190 2.266 . S
In182 O191 2.326 . S
In182 O193 2.294 . S
In182 O194 2.326 . S
O183 In182 2.294 . S
O183 C192 1.240 . S
O184 In182 2.326 . S
O184 C192 1.252 . S
C185 O188 1.252 . S
C185 O189 1.260 . S
C186 O193 1.240 . S
C186 O194 1.252 . S
C187 O190 1.252 . S
C187 O191 1.260 . S
O188 In182 2.266 . S
O188 C185 1.252 . S
O189 In182 2.326 . S
O189 C185 1.260 . S
O190 In182 2.266 . S
O190 C187 1.252 . S
O191 In182 2.326 . S
O191 C187 1.260 . S
C192 O183 1.240 . S
C192 O184 1.252 . S
O193 In182 2.294 . S
O193 C186 1.240 . S
O194 In182 2.326 . S
O194 C186 1.252 . S
In195 O196 2.294 . S
In195 O197 2.326 . S
In195 O201 2.266 . S
In195 O202 2.326 . S
In195 O203 2.266 . S
In195 O204 2.326 . S
In195 O206 2.294 . S
In195 O207 2.326 . S
O196 In195 2.294 . S
O196 C205 1.240 . S
O197 In195 2.326 . S
O197 C205 1.252 . S
C198 O201 1.252 . S
C198 O202 1.260 . S
C199 O206 1.240 . S
C199 O207 1.252 . S
C200 O203 1.252 . S
C200 O204 1.260 . S
O201 In195 2.266 . S
O201 C198 1.252 . S
O202 In195 2.326 . S
O202 C198 1.260 . S
O203 In195 2.266 . S
O203 C200 1.252 . S
O204 In195 2.326 . S
O204 C200 1.260 . S
C205 O196 1.240 . S
C205 O197 1.252 . S
O206 In195 2.294 . S
O206 C199 1.240 . S
O207 In195 2.326 . S
O207 C199 1.252 . S
In208 O209 2.294 . S
In208 O210 2.326 . S
In208 O214 2.266 . S
In208 O215 2.326 . S
In208 O216 2.266 . S
In208 O217 2.326 . S
In208 O219 2.294 . S
In208 O220 2.326 . S
O209 In208 2.294 . S
O209 C218 1.240 . S
O210 In208 2.326 . S
O210 C218 1.252 . S
C211 O214 1.252 . S
C211 O215 1.260 . S
C212 O219 1.240 . S
C212 O220 1.252 . S
C213 O216 1.252 . S
C213 O217 1.260 . S
O214 In208 2.266 . S
O214 C211 1.252 . S
O215 In208 2.326 . S
O215 C211 1.260 . S
O216 In208 2.266 . S
O216 C213 1.252 . S
O217 In208 2.326 . S
O217 C213 1.260 . S
C218 O209 1.240 . S
C218 O210 1.252 . S
O219 In208 2.294 . S
O219 C212 1.240 . S
O220 In208 2.326 . S
O220 C212 1.252 . S
In221 O222 2.294 . S
In221 O223 2.326 . S
In221 O227 2.266 . S
In221 O228 2.326 . S
In221 O229 2.266 . S
In221 O230 2.326 . S
In221 O232 2.294 . S
In221 O233 2.326 . S
O222 In221 2.294 . S
O222 C231 1.240 . S
O223 In221 2.326 . S
O223 C231 1.252 . S
C224 O227 1.252 . S
C224 O228 1.260 . S
C225 O232 1.240 . S
C225 O233 1.252 . S
C226 O229 1.252 . S
C226 O230 1.260 . S
O227 In221 2.266 . S
O227 C224 1.252 . S
O228 In221 2.326 . S
O228 C224 1.260 . S
O229 In221 2.266 . S
O229 C226 1.252 . S
O230 In221 2.326 . S
O230 C226 1.260 . S
C231 O222 1.240 . S
C231 O223 1.252 . S
O232 In221 2.294 . S
O232 C225 1.240 . S
O233 In221 2.326 . S
O233 C225 1.252 . S
In234 O235 2.294 . S
In234 O236 2.326 . S
In234 O240 2.266 . S
In234 O241 2.326 . S
In234 O242 2.266 . S
In234 O243 2.326 . S
In234 O245 2.294 . S
In234 O246 2.326 . S
O235 In234 2.294 . S
O235 C244 1.240 . S
O236 In234 2.326 . S
O236 C244 1.252 . S
C237 O240 1.252 . S
C237 O241 1.260 . S
C238 O245 1.240 . S
C238 O246 1.252 . S
C239 O242 1.252 . S
C239 O243 1.260 . S
O240 In234 2.266 . S
O240 C237 1.252 . S
O241 In234 2.326 . S
O241 C237 1.260 . S
O242 In234 2.266 . S
O242 C239 1.252 . S
O243 In234 2.326 . S
O243 C239 1.260 . S
C244 O235 1.240 . S
C244 O236 1.252 . S
O245 In234 2.294 . S
O245 C238 1.240 . S
O246 In234 2.326 . S
O246 C238 1.252 . S
In247 O248 2.294 . S
In247 O249 2.326 . S
In247 O253 2.266 . S
In247 O254 2.326 . S
In247 O255 2.266 . S
In247 O256 2.326 . S
In247 O258 2.294 . S
In247 O259 2.326 . S
O248 In247 2.294 . S
O248 C257 1.240 . S
O249 In247 2.326 . S
O249 C257 1.252 . S
C250 O253 1.252 . S
C250 O254 1.260 . S
C251 O258 1.240 . S
C251 O259 1.252 . S
C252 O255 1.252 . S
C252 O256 1.260 . S
O253 In247 2.266 . S
O253 C250 1.252 . S
O254 In247 2.326 . S
O254 C250 1.260 . S
O255 In247 2.266 . S
O255 C252 1.252 . S
O256 In247 2.326 . S
O256 C252 1.260 . S
C257 O248 1.240 . S
C257 O249 1.252 . S
O258 In247 2.294 . S
O258 C251 1.240 . S
O259 In247 2.326 . S
O259 C251 1.252 . S
In260 O261 2.294 . S
In260 O262 2.326 . S
In260 O266 2.266 . S
In260 O267 2.326 . S
In260 O268 2.266 . S
In260 O269 2.326 . S
In260 O271 2.294 . S
In260 O272 2.326 . S
O261 In260 2.294 . S
O261 C270 1.240 . S
O262 In260 2.326 . S
O262 C270 1.252 . S
C263 O266 1.252 . S
C263 O267 1.260 . S
C264 O271 1.240 . S
C264 O272 1.252 . S
C265 O268 1.252 . S
C265 O269 1.260 . S
O266 In260 2.266 . S
O266 C263 1.252 . S
O267 In260 2.326 . S
O267 C263 1.260 . S
O268 In260 2.266 . S
O268 C265 1.252 . S
O269 In260 2.326 . S
O269 C265 1.260 . S
C270 O261 1.240 . S
C270 O262 1.252 . S
O271 In260 2.294 . S
O271 C264 1.240 . S
O272 In260 2.326 . S
O272 C264 1.252 . S
In273 O274 2.294 . S
In273 O275 2.326 . S
In273 O279 2.266 . S
In273 O280 2.326 . S
In273 O281 2.266 . S
In273 O282 2.326 . S
In273 O284 2.294 . S
In273 O285 2.326 . S
O274 In273 2.294 . S
O274 C283 1.240 . S
O275 In273 2.326 . S
O275 C283 1.252 . S
C276 O279 1.252 . S
C276 O280 1.260 . S
C277 O284 1.240 . S
C277 O285 1.252 . S
C278 O281 1.252 . S
C278 O282 1.260 . S
O279 In273 2.266 . S
O279 C276 1.252 . S
O280 In273 2.326 . S
O280 C276 1.260 . S
O281 In273 2.266 . S
O281 C278 1.252 . S
O282 In273 2.326 . S
O282 C278 1.260 . S
C283 O274 1.240 . S
C283 O275 1.252 . S
O284 In273 2.294 . S
O284 C277 1.240 . S
O285 In273 2.326 . S
O285 C277 1.252 . S
In286 O287 2.294 . S
In286 O288 2.326 . S
In286 O292 2.266 . S
In286 O293 2.326 . S
In286 O294 2.266 . S
In286 O295 2.326 . S
In286 O297 2.294 . S
In286 O298 2.326 . S
O287 In286 2.294 . S
O287 C296 1.240 . S
O288 In286 2.326 . S
O288 C296 1.252 . S
C289 O292 1.252 . S
C289 O293 1.260 . S
C290 O297 1.240 . S
C290 O298 1.252 . S
C291 O294 1.252 . S
C291 O295 1.260 . S
O292 In286 2.266 . S
O292 C289 1.252 . S
O293 In286 2.326 . S
O293 C289 1.260 . S
O294 In286 2.266 . S
O294 C291 1.252 . S
O295 In286 2.326 . S
O295 C291 1.260 . S
C296 O287 1.240 . S
C296 O288 1.252 . S
O297 In286 2.294 . S
O297 C290 1.240 . S
O298 In286 2.326 . S
O298 C290 1.252 . S
In299 O300 2.294 . S
In299 O301 2.326 . S
In299 O305 2.266 . S
In299 O306 2.326 . S
In299 O307 2.266 . S
In299 O308 2.326 . S
In299 O310 2.294 . S
In299 O311 2.326 . S
O300 In299 2.294 . S
O300 C309 1.240 . S
O301 In299 2.326 . S
O301 C309 1.252 . S
C302 O305 1.252 . S
C302 O306 1.260 . S
C303 O310 1.240 . S
C303 O311 1.252 . S
C304 O307 1.252 . S
C304 O308 1.260 . S
O305 In299 2.266 . S
O305 C302 1.252 . S
O306 In299 2.326 . S
O306 C302 1.260 . S
O307 In299 2.266 . S
O307 C304 1.252 . S
O308 In299 2.326 . S
O308 C304 1.260 . S
C309 O300 1.240 . S
C309 O301 1.252 . S
O310 In299 2.294 . S
O310 C303 1.240 . S
O311 In299 2.326 . S
O311 C303 1.252 . S
In312 O313 2.294 . S
In312 O314 2.326 . S
In312 O318 2.266 . S
In312 O319 2.326 . S
In312 O320 2.266 . S
In312 O321 2.326 . S
In312 O323 2.294 . S
In312 O324 2.326 . S
O313 In312 2.294 . S
O313 C322 1.240 . S
O314 In312 2.326 . S
O314 C322 1.252 . S
C315 O318 1.252 . S
C315 O319 1.260 . S
C316 O323 1.240 . S
C316 O324 1.252 . S
C317 O320 1.252 . S
C317 O321 1.260 . S
O318 In312 2.266 . S
O318 C315 1.252 . S
O319 In312 2.326 . S
O319 C315 1.260 . S
O320 In312 2.266 . S
O320 C317 1.252 . S
O321 In312 2.326 . S
O321 C317 1.260 . S
C322 O313 1.240 . S
C322 O314 1.252 . S
O323 In312 2.294 . S
O323 C316 1.240 . S
O324 In312 2.326 . S
O324 C316 1.252 . S
In325 O326 2.294 . S
In325 O327 2.326 . S
In325 O331 2.266 . S
In325 O332 2.326 . S
In325 O333 2.266 . S
In325 O334 2.326 . S
In325 O336 2.294 . S
In325 O337 2.326 . S
O326 In325 2.294 . S
O326 C335 1.240 . S
O327 In325 2.326 . S
O327 C335 1.252 . S
C328 O331 1.252 . S
C328 O332 1.260 . S
C329 O336 1.240 . S
C329 O337 1.252 . S
C330 O333 1.252 . S
C330 O334 1.260 . S
O331 In325 2.266 . S
O331 C328 1.252 . S
O332 In325 2.326 . S
O332 C328 1.260 . S
O333 In325 2.266 . S
O333 C330 1.252 . S
O334 In325 2.326 . S
O334 C330 1.260 . S
C335 O326 1.240 . S
C335 O327 1.252 . S
O336 In325 2.294 . S
O336 C329 1.240 . S
O337 In325 2.326 . S
O337 C329 1.252 . S
In338 O339 2.294 . S
In338 O340 2.326 . S
In338 O344 2.266 1_556 S
In338 O345 2.326 1_556 S
In338 O346 2.266 . S
In338 O347 2.326 . S
In338 O349 2.294 . S
In338 O350 2.326 . S
O339 In338 2.294 . S
O339 C348 1.240 . S
O340 In338 2.326 . S
O340 C348 1.252 . S
C341 O344 1.252 . S
C341 O345 1.260 . S
C342 O349 1.240 . S
C342 O350 1.252 . S
C343 O346 1.252 . S
C343 O347 1.260 . S
O344 In338 2.266 1_554 S
O344 C341 1.252 . S
O345 In338 2.326 1_554 S
O345 C341 1.260 . S
O346 In338 2.266 . S
O346 C343 1.252 . S
O347 In338 2.326 . S
O347 C343 1.260 . S
C348 O339 1.240 . S
C348 O340 1.252 . S
O349 In338 2.294 . S
O349 C342 1.240 . S
O350 In338 2.326 . S
O350 C342 1.252 . S
In351 O352 2.294 . S
In351 O353 2.326 . S
In351 O357 2.266 1_556 S
In351 O358 2.326 1_556 S
In351 O359 2.266 . S
In351 O360 2.326 . S
In351 O362 2.294 . S
In351 O363 2.326 . S
O352 In351 2.294 . S
O352 C361 1.240 . S
O353 In351 2.326 . S
O353 C361 1.252 . S
C354 O357 1.252 . S
C354 O358 1.260 . S
C355 O362 1.240 . S
C355 O363 1.252 . S
C356 O359 1.252 . S
C356 O360 1.260 . S
O357 In351 2.266 1_554 S
O357 C354 1.252 . S
O358 In351 2.326 1_554 S
O358 C354 1.260 . S
O359 In351 2.266 . S
O359 C356 1.252 . S
O360 In351 2.326 . S
O360 C356 1.260 . S
C361 O352 1.240 . S
C361 O353 1.252 . S
O362 In351 2.294 . S
O362 C355 1.240 . S
O363 In351 2.326 . S
O363 C355 1.252 . S
In364 O365 2.294 . S
In364 O366 2.326 . S
In364 O370 2.266 . S
In364 O371 2.326 . S
In364 O372 2.266 . S
In364 O373 2.326 . S
In364 O375 2.294 . S
In364 O376 2.326 . S
O365 In364 2.294 . S
O365 C374 1.240 . S
O366 In364 2.326 . S
O366 C374 1.252 . S
C367 O370 1.252 . S
C367 O371 1.260 . S
C368 O375 1.240 . S
C368 O376 1.252 . S
C369 O372 1.252 . S
C369 O373 1.260 . S
O370 In364 2.266 . S
O370 C367 1.252 . S
O371 In364 2.326 . S
O371 C367 1.260 . S
O372 In364 2.266 . S
O372 C369 1.252 . S
O373 In364 2.326 . S
O373 C369 1.260 . S
C374 O365 1.240 . S
C374 O366 1.252 . S
O375 In364 2.294 . S
O375 C368 1.240 . S
O376 In364 2.326 . S
O376 C368 1.252 . S
In377 O378 2.294 . S
In377 O379 2.326 . S
In377 O383 2.266 . S
In377 O384 2.326 . S
In377 O385 2.266 . S
In377 O386 2.326 . S
In377 O388 2.294 . S
In377 O389 2.326 . S
O378 In377 2.294 . S
O378 C387 1.240 . S
O379 In377 2.326 . S
O379 C387 1.252 . S
C380 O383 1.252 . S
C380 O384 1.260 . S
C381 O388 1.240 . S
C381 O389 1.252 . S
C382 O385 1.252 . S
C382 O386 1.260 . S
O383 In377 2.266 . S
O383 C380 1.252 . S
O384 In377 2.326 . S
O384 C380 1.260 . S
O385 In377 2.266 . S
O385 C382 1.252 . S
O386 In377 2.326 . S
O386 C382 1.260 . S
C387 O378 1.240 . S
C387 O379 1.252 . S
O388 In377 2.294 . S
O388 C381 1.240 . S
O389 In377 2.326 . S
O389 C381 1.252 . S
In390 O391 2.294 . S
In390 O392 2.326 . S
In390 O396 2.266 1_554 S
In390 O397 2.326 1_554 S
In390 O398 2.266 . S
In390 O399 2.326 . S
In390 O401 2.294 . S
In390 O402 2.326 . S
O391 In390 2.294 . S
O391 C400 1.240 . S
O392 In390 2.326 . S
O392 C400 1.252 . S
C393 O396 1.252 . S
C393 O397 1.260 . S
C394 O401 1.240 . S
C394 O402 1.252 . S
C395 O398 1.252 . S
C395 O399 1.260 . S
O396 In390 2.266 1_556 S
O396 C393 1.252 . S
O397 In390 2.326 1_556 S
O397 C393 1.260 . S
O398 In390 2.266 . S
O398 C395 1.252 . S
O399 In390 2.326 . S
O399 C395 1.260 . S
C400 O391 1.240 . S
C400 O392 1.252 . S
O401 In390 2.294 . S
O401 C394 1.240 . S
O402 In390 2.326 . S
O402 C394 1.252 . S
In403 O404 2.294 . S
In403 O405 2.326 . S
In403 O409 2.266 . S
In403 O410 2.326 . S
In403 O411 2.266 1_554 S
In403 O412 2.326 1_554 S
In403 O414 2.294 . S
In403 O415 2.326 . S
O404 In403 2.294 . S
O404 C413 1.240 . S
O405 In403 2.326 . S
O405 C413 1.252 . S
C406 O409 1.252 . S
C406 O410 1.260 . S
C407 O414 1.240 . S
C407 O415 1.252 . S
C408 O411 1.252 . S
C408 O412 1.260 . S
O409 In403 2.266 . S
O409 C406 1.252 . S
O410 In403 2.326 . S
O410 C406 1.260 . S
O411 In403 2.266 1_556 S
O411 C408 1.252 . S
O412 In403 2.326 1_556 S
O412 C408 1.260 . S
C413 O404 1.240 . S
C413 O405 1.252 . S
O414 In403 2.294 . S
O414 C407 1.240 . S
O415 In403 2.326 . S
O415 C407 1.252 . S
H416 C424 0.950 . S
H417 C429 0.950 . S
H418 C426 0.950 . S
H419 C428 0.950 . S
H420 C430 0.950 . S
H421 C432 0.950 . S
H422 C434 0.950 . S
H423 C435 0.950 . S
C424 H416 0.950 . S
C424 C425 1.386 . S
C424 C426 1.391 . S
C425 C424 1.386 . S
C425 C429 1.393 . S
C426 H418 0.950 . S
C426 C424 1.391 . S
C426 C427 1.400 . S
C427 C426 1.400 . S
C427 C428 1.398 . S
C427 C433 1.491 . S
C428 H419 0.950 . S
C428 C427 1.398 . S
C428 C429 1.391 . S
C429 H417 0.950 . S
C429 C425 1.393 . S
C429 C428 1.391 . S
C430 H420 0.950 . S
C430 C431 1.386 . S
C430 C432 1.391 . S
C431 C430 1.386 . S
C431 C435 1.393 . S
C432 H421 0.950 . S
C432 C430 1.391 . S
C432 C433 1.400 . S
C433 C427 1.491 . S
C433 C432 1.400 . S
C433 C434 1.398 . S
C434 H422 0.950 . S
C434 C433 1.398 . S
C434 C435 1.391 . S
C435 H423 0.950 . S
C435 C431 1.393 . S
C435 C434 1.391 . S
H436 C444 0.950 . S
H437 C449 0.950 . S
H438 C446 0.950 . S
H439 C448 0.950 . S
H440 C450 0.950 . S
H441 C452 0.950 . S
H442 C454 0.950 . S
H443 C455 0.950 . S
C444 H436 0.950 . S
C444 C445 1.386 . S
C444 C446 1.391 . S
C445 C444 1.386 . S
C445 C449 1.393 . S
C446 H438 0.950 . S
C446 C444 1.391 . S
C446 C447 1.400 . S
C447 C446 1.400 . S
C447 C448 1.398 . S
C447 C453 1.491 . S
C448 H439 0.950 . S
C448 C447 1.398 . S
C448 C449 1.391 . S
C449 H437 0.950 . S
C449 C445 1.393 . S
C449 C448 1.391 . S
C450 H440 0.950 . S
C450 C451 1.386 . S
C450 C452 1.391 . S
C451 C450 1.386 . S
C451 C455 1.393 . S
C452 H441 0.950 . S
C452 C450 1.391 . S
C452 C453 1.400 . S
C453 C447 1.491 . S
C453 C452 1.400 . S
C453 C454 1.398 . S
C454 H442 0.950 . S
C454 C453 1.398 . S
C454 C455 1.391 . S
C455 H443 0.950 . S
C455 C451 1.393 . S
C455 C454 1.391 . S
H456 C464 0.950 . S
H457 C469 0.950 . S
H458 C466 0.950 . S
H459 C468 0.950 . S
H460 C470 0.950 . S
H461 C472 0.950 . S
H462 C474 0.950 . S
H463 C475 0.950 . S
C464 H456 0.950 . S
C464 C465 1.386 . S
C464 C466 1.391 . S
C465 C464 1.386 . S
C465 C469 1.393 . S
C466 H458 0.950 . S
C466 C464 1.391 . S
C466 C467 1.400 . S
C467 C466 1.400 . S
C467 C468 1.398 . S
C467 C473 1.491 . S
C468 H459 0.950 . S
C468 C467 1.398 . S
C468 C469 1.391 . S
C469 H457 0.950 . S
C469 C465 1.393 . S
C469 C468 1.391 . S
C470 H460 0.950 . S
C470 C471 1.386 . S
C470 C472 1.391 . S
C471 C470 1.386 . S
C471 C475 1.393 . S
C472 H461 0.950 . S
C472 C470 1.391 . S
C472 C473 1.400 . S
C473 C467 1.491 . S
C473 C472 1.400 . S
C473 C474 1.398 . S
C474 H462 0.950 . S
C474 C473 1.398 . S
C474 C475 1.391 . S
C475 H463 0.950 . S
C475 C471 1.393 . S
C475 C474 1.391 . S
H476 C484 0.950 . S
H477 C489 0.950 . S
H478 C486 0.950 . S
H479 C488 0.950 . S
H480 C490 0.950 . S
H481 C492 0.950 . S
H482 C494 0.950 . S
H483 C495 0.950 . S
C484 H476 0.950 . S
C484 C485 1.386 . S
C484 C486 1.391 . S
C485 C484 1.386 . S
C485 C489 1.393 . S
C486 H478 0.950 . S
C486 C484 1.391 . S
C486 C487 1.400 . S
C487 C486 1.400 . S
C487 C488 1.398 . S
C487 C493 1.491 . S
C488 H479 0.950 . S
C488 C487 1.398 . S
C488 C489 1.391 . S
C489 H477 0.950 . S
C489 C485 1.393 . S
C489 C488 1.391 . S
C490 H480 0.950 . S
C490 C491 1.386 . S
C490 C492 1.391 . S
C491 C490 1.386 . S
C491 C495 1.393 . S
C492 H481 0.950 . S
C492 C490 1.391 . S
C492 C493 1.400 . S
C493 C487 1.491 . S
C493 C492 1.400 . S
C493 C494 1.398 . S
C494 H482 0.950 . S
C494 C493 1.398 . S
C494 C495 1.391 . S
C495 H483 0.950 . S
C495 C491 1.393 . S
C495 C494 1.391 . S
H496 C504 0.950 . S
H497 C509 0.950 . S
H498 C506 0.950 . S
H499 C508 0.950 . S
H500 C510 0.950 . S
H501 C512 0.950 . S
H502 C514 0.950 . S
H503 C515 0.950 . S
C504 H496 0.950 . S
C504 C505 1.386 . S
C504 C506 1.391 . S
C505 C504 1.386 . S
C505 C509 1.393 . S
C506 H498 0.950 . S
C506 C504 1.391 . S
C506 C507 1.400 . S
C507 C506 1.400 . S
C507 C508 1.398 . S
C507 C513 1.491 . S
C508 H499 0.950 . S
C508 C507 1.398 . S
C508 C509 1.391 . S
C509 H497 0.950 . S
C509 C505 1.393 . S
C509 C508 1.391 . S
C510 H500 0.950 . S
C510 C511 1.386 . S
C510 C512 1.391 . S
C511 C510 1.386 . S
C511 C515 1.393 . S
C512 H501 0.950 . S
C512 C510 1.391 . S
C512 C513 1.400 . S
C513 C507 1.491 . S
C513 C512 1.400 . S
C513 C514 1.398 . S
C514 H502 0.950 . S
C514 C513 1.398 . S
C514 C515 1.391 . S
C515 H503 0.950 . S
C515 C511 1.393 . S
C515 C514 1.391 . S
H516 C524 0.950 . S
H517 C529 0.950 . S
H518 C526 0.950 . S
H519 C528 0.950 . S
H520 C530 0.950 . S
H521 C532 0.950 . S
H522 C534 0.950 . S
H523 C535 0.950 . S
C524 H516 0.950 . S
C524 C525 1.386 . S
C524 C526 1.391 . S
C525 C524 1.386 . S
C525 C529 1.393 . S
C526 H518 0.950 . S
C526 C524 1.391 . S
C526 C527 1.400 . S
C527 C526 1.400 . S
C527 C528 1.398 . S
C527 C533 1.491 . S
C528 H519 0.950 . S
C528 C527 1.398 . S
C528 C529 1.391 . S
C529 H517 0.950 . S
C529 C525 1.393 . S
C529 C528 1.391 . S
C530 H520 0.950 . S
C530 C531 1.386 . S
C530 C532 1.391 . S
C531 C530 1.386 . S
C531 C535 1.393 . S
C532 H521 0.950 . S
C532 C530 1.391 . S
C532 C533 1.400 . S
C533 C527 1.491 . S
C533 C532 1.400 . S
C533 C534 1.398 . S
C534 H522 0.950 . S
C534 C533 1.398 . S
C534 C535 1.391 . S
C535 H523 0.950 . S
C535 C531 1.393 . S
C535 C534 1.391 . S
H536 C544 0.950 . S
H537 C549 0.950 . S
H538 C546 0.950 . S
H539 C548 0.950 . S
H540 C550 0.950 . S
H541 C552 0.950 . S
H542 C554 0.950 . S
H543 C555 0.950 . S
C544 H536 0.950 . S
C544 C545 1.386 . S
C544 C546 1.391 . S
C545 C544 1.386 . S
C545 C549 1.393 . S
C546 H538 0.950 . S
C546 C544 1.391 . S
C546 C547 1.400 . S
C547 C546 1.400 . S
C547 C548 1.398 . S
C547 C553 1.491 . S
C548 H539 0.950 . S
C548 C547 1.398 . S
C548 C549 1.391 . S
C549 H537 0.950 . S
C549 C545 1.393 . S
C549 C548 1.391 . S
C550 H540 0.950 . S
C550 C551 1.386 . S
C550 C552 1.391 . S
C551 C550 1.386 . S
C551 C555 1.393 . S
C552 H541 0.950 . S
C552 C550 1.391 . S
C552 C553 1.400 . S
C553 C547 1.491 . S
C553 C552 1.400 . S
C553 C554 1.398 . S
C554 H542 0.950 . S
C554 C553 1.398 . S
C554 C555 1.391 . S
C555 H543 0.950 . S
C555 C551 1.393 . S
C555 C554 1.391 . S
H556 C564 0.950 . S
H557 C569 0.950 . S
H558 C566 0.950 . S
H559 C568 0.950 . S
H560 C570 0.950 . S
H561 C572 0.950 . S
H562 C574 0.950 . S
H563 C575 0.950 . S
C564 H556 0.950 . S
C564 C565 1.386 . S
C564 C566 1.391 . S
C565 C564 1.386 . S
C565 C569 1.393 . S
C566 H558 0.950 . S
C566 C564 1.391 . S
C566 C567 1.400 . S
C567 C566 1.400 . S
C567 C568 1.398 . S
C567 C573 1.491 . S
C568 H559 0.950 . S
C568 C567 1.398 . S
C568 C569 1.391 . S
C569 H557 0.950 . S
C569 C565 1.393 . S
C569 C568 1.391 . S
C570 H560 0.950 . S
C570 C571 1.386 . S
C570 C572 1.391 . S
C571 C570 1.386 . S
C571 C575 1.393 . S
C572 H561 0.950 . S
C572 C570 1.391 . S
C572 C573 1.400 . S
C573 C567 1.491 . S
C573 C572 1.400 . S
C573 C574 1.398 . S
C574 H562 0.950 . S
C574 C573 1.398 . S
C574 C575 1.391 . S
C575 H563 0.950 . S
C575 C571 1.393 . S
C575 C574 1.391 . S
H576 C584 0.950 . S
H577 C589 0.950 . S
H578 C586 0.950 . S
H579 C588 0.950 . S
H580 C590 0.950 . S
H581 C592 0.950 . S
H582 C594 0.950 . S
H583 C595 0.950 . S
C584 H576 0.950 . S
C584 C585 1.386 . S
C584 C586 1.391 . S
C585 C584 1.386 . S
C585 C589 1.393 . S
C586 H578 0.950 . S
C586 C584 1.391 . S
C586 C587 1.400 . S
C587 C586 1.400 . S
C587 C588 1.398 . S
C587 C593 1.491 . S
C588 H579 0.950 . S
C588 C587 1.398 . S
C588 C589 1.391 . S
C589 H577 0.950 . S
C589 C585 1.393 . S
C589 C588 1.391 . S
C590 H580 0.950 . S
C590 C591 1.386 . S
C590 C592 1.391 . S
C591 C590 1.386 . S
C591 C595 1.393 . S
C592 H581 0.950 . S
C592 C590 1.391 . S
C592 C593 1.400 . S
C593 C587 1.491 . S
C593 C592 1.400 . S
C593 C594 1.398 . S
C594 H582 0.950 . S
C594 C593 1.398 . S
C594 C595 1.391 . S
C595 H583 0.950 . S
C595 C591 1.393 . S
C595 C594 1.391 . S
H596 C604 0.950 . S
H597 C609 0.950 . S
H598 C606 0.950 . S
H599 C608 0.950 . S
H600 C610 0.950 . S
H601 C612 0.950 . S
H602 C614 0.950 . S
H603 C615 0.950 . S
C604 H596 0.950 . S
C604 C605 1.386 . S
C604 C606 1.391 . S
C605 C604 1.386 . S
C605 C609 1.393 . S
C606 H598 0.950 . S
C606 C604 1.391 . S
C606 C607 1.400 . S
C607 C606 1.400 . S
C607 C608 1.398 . S
C607 C613 1.491 . S
C608 H599 0.950 . S
C608 C607 1.398 . S
C608 C609 1.391 . S
C609 H597 0.950 . S
C609 C605 1.393 . S
C609 C608 1.391 . S
C610 H600 0.950 . S
C610 C611 1.386 . S
C610 C612 1.391 . S
C611 C610 1.386 . S
C611 C615 1.393 . S
C612 H601 0.950 . S
C612 C610 1.391 . S
C612 C613 1.400 . S
C613 C607 1.491 . S
C613 C612 1.400 . S
C613 C614 1.398 . S
C614 H602 0.950 . S
C614 C613 1.398 . S
C614 C615 1.391 . S
C615 H603 0.950 . S
C615 C611 1.393 . S
C615 C614 1.391 . S
H616 C624 0.950 . S
H617 C629 0.950 . S
H618 C626 0.950 . S
H619 C628 0.950 . S
H620 C630 0.950 . S
H621 C632 0.950 . S
H622 C634 0.950 . S
H623 C635 0.950 . S
C624 H616 0.950 . S
C624 C625 1.386 . S
C624 C626 1.391 . S
C625 C624 1.386 . S
C625 C629 1.393 . S
C626 H618 0.950 . S
C626 C624 1.391 . S
C626 C627 1.400 . S
C627 C626 1.400 . S
C627 C628 1.398 . S
C627 C633 1.491 . S
C628 H619 0.950 . S
C628 C627 1.398 . S
C628 C629 1.391 . S
C629 H617 0.950 . S
C629 C625 1.393 . S
C629 C628 1.391 . S
C630 H620 0.950 . S
C630 C631 1.386 . S
C630 C632 1.391 . S
C631 C630 1.386 . S
C631 C635 1.393 . S
C632 H621 0.950 . S
C632 C630 1.391 . S
C632 C633 1.400 . S
C633 C627 1.491 . S
C633 C632 1.400 . S
C633 C634 1.398 . S
C634 H622 0.950 . S
C634 C633 1.398 . S
C634 C635 1.391 . S
C635 H623 0.950 . S
C635 C631 1.393 . S
C635 C634 1.391 . S
H636 C644 0.950 . S
H637 C649 0.950 . S
H638 C646 0.950 . S
H639 C648 0.950 . S
H640 C650 0.950 . S
H641 C652 0.950 . S
H642 C654 0.950 . S
H643 C655 0.950 . S
C644 H636 0.950 . S
C644 C645 1.386 . S
C644 C646 1.391 . S
C645 C644 1.386 . S
C645 C649 1.393 . S
C646 H638 0.950 . S
C646 C644 1.391 . S
C646 C647 1.400 . S
C647 C646 1.400 . S
C647 C648 1.398 . S
C647 C653 1.491 . S
C648 H639 0.950 . S
C648 C647 1.398 . S
C648 C649 1.391 . S
C649 H637 0.950 . S
C649 C645 1.393 . S
C649 C648 1.391 . S
C650 H640 0.950 . S
C650 C651 1.386 . S
C650 C652 1.391 . S
C651 C650 1.386 . S
C651 C655 1.393 . S
C652 H641 0.950 . S
C652 C650 1.391 . S
C652 C653 1.400 . S
C653 C647 1.491 . S
C653 C652 1.400 . S
C653 C654 1.398 . S
C654 H642 0.950 . S
C654 C653 1.398 . S
C654 C655 1.391 . S
C655 H643 0.950 . S
C655 C651 1.393 . S
C655 C654 1.391 . S
H656 C664 0.950 . S
H657 C669 0.950 . S
H658 C666 0.950 . S
H659 C668 0.950 . S
H660 C670 0.950 . S
H661 C672 0.950 . S
H662 C674 0.950 . S
H663 C675 0.950 . S
C664 H656 0.950 . S
C664 C665 1.386 . S
C664 C666 1.391 . S
C665 C664 1.386 . S
C665 C669 1.393 . S
C666 H658 0.950 . S
C666 C664 1.391 . S
C666 C667 1.400 . S
C667 C666 1.400 . S
C667 C668 1.398 . S
C667 C673 1.491 . S
C668 H659 0.950 . S
C668 C667 1.398 . S
C668 C669 1.391 . S
C669 H657 0.950 . S
C669 C665 1.393 . S
C669 C668 1.391 . S
C670 H660 0.950 . S
C670 C671 1.386 . S
C670 C672 1.391 . S
C671 C670 1.386 . S
C671 C675 1.393 . S
C672 H661 0.950 . S
C672 C670 1.391 . S
C672 C673 1.400 . S
C673 C667 1.491 . S
C673 C672 1.400 . S
C673 C674 1.398 . S
C674 H662 0.950 . S
C674 C673 1.398 . S
C674 C675 1.391 . S
C675 H663 0.950 . S
C675 C671 1.393 . S
C675 C674 1.391 . S
H676 C684 0.950 . S
H677 C689 0.950 . S
H678 C686 0.950 . S
H679 C688 0.950 . S
H680 C690 0.950 . S
H681 C692 0.950 . S
H682 C694 0.950 . S
H683 C695 0.950 . S
C684 H676 0.950 . S
C684 C685 1.386 . S
C684 C686 1.391 . S
C685 C684 1.386 . S
C685 C689 1.393 . S
C686 H678 0.950 . S
C686 C684 1.391 . S
C686 C687 1.400 . S
C687 C686 1.400 . S
C687 C688 1.398 . S
C687 C693 1.491 . S
C688 H679 0.950 . S
C688 C687 1.398 . S
C688 C689 1.391 . S
C689 H677 0.950 . S
C689 C685 1.393 . S
C689 C688 1.391 . S
C690 H680 0.950 . S
C690 C691 1.386 . S
C690 C692 1.391 . S
C691 C690 1.386 . S
C691 C695 1.393 . S
C692 H681 0.950 . S
C692 C690 1.391 . S
C692 C693 1.400 . S
C693 C687 1.491 . S
C693 C692 1.400 . S
C693 C694 1.398 . S
C694 H682 0.950 . S
C694 C693 1.398 . S
C694 C695 1.391 . S
C695 H683 0.950 . S
C695 C691 1.393 . S
C695 C694 1.391 . S
H696 C704 0.950 . S
H697 C709 0.950 . S
H698 C706 0.950 . S
H699 C708 0.950 . S
H700 C710 0.950 . S
H701 C712 0.950 . S
H702 C714 0.950 . S
H703 C715 0.950 . S
C704 H696 0.950 . S
C704 C705 1.386 . S
C704 C706 1.391 . S
C705 C704 1.386 . S
C705 C709 1.393 . S
C706 H698 0.950 . S
C706 C704 1.391 . S
C706 C707 1.400 . S
C707 C706 1.400 . S
C707 C708 1.398 . S
C707 C713 1.491 . S
C708 H699 0.950 . S
C708 C707 1.398 . S
C708 C709 1.391 . S
C709 H697 0.950 . S
C709 C705 1.393 . S
C709 C708 1.391 . S
C710 H700 0.950 . S
C710 C711 1.386 . S
C710 C712 1.391 . S
C711 C710 1.386 . S
C711 C715 1.393 . S
C712 H701 0.950 . S
C712 C710 1.391 . S
C712 C713 1.400 . S
C713 C707 1.491 . S
C713 C712 1.400 . S
C713 C714 1.398 . S
C714 H702 0.950 . S
C714 C713 1.398 . S
C714 C715 1.391 . S
C715 H703 0.950 . S
C715 C711 1.393 . S
C715 C714 1.391 . S
H716 C724 0.950 . S
H717 C729 0.950 . S
H718 C726 0.950 . S
H719 C728 0.950 . S
H720 C730 0.950 . S
H721 C732 0.950 . S
H722 C734 0.950 . S
H723 C735 0.950 . S
C724 H716 0.950 . S
C724 C725 1.386 . S
C724 C726 1.391 . S
C725 C724 1.386 . S
C725 C729 1.393 . S
C726 H718 0.950 . S
C726 C724 1.391 . S
C726 C727 1.400 . S
C727 C726 1.400 . S
C727 C728 1.398 . S
C727 C733 1.491 . S
C728 H719 0.950 . S
C728 C727 1.398 . S
C728 C729 1.391 . S
C729 H717 0.950 . S
C729 C725 1.393 . S
C729 C728 1.391 . S
C730 H720 0.950 . S
C730 C731 1.386 . S
C730 C732 1.391 . S
C731 C730 1.386 . S
C731 C735 1.393 . S
C732 H721 0.950 . S
C732 C730 1.391 . S
C732 C733 1.400 . S
C733 C727 1.491 . S
C733 C732 1.400 . S
C733 C734 1.398 . S
C734 H722 0.950 . S
C734 C733 1.398 . S
C734 C735 1.391 . S
C735 H723 0.950 . S
C735 C731 1.393 . S
C735 C734 1.391 . S
H736 C744 0.950 . S
H737 C749 0.950 . S
H738 C746 0.950 . S
H739 C748 0.950 . S
H740 C750 0.950 . S
H741 C752 0.950 . S
H742 C754 0.950 . S
H743 C755 0.950 . S
C744 H736 0.950 . S
C744 C745 1.386 . S
C744 C746 1.391 . S
C745 C744 1.386 . S
C745 C749 1.393 . S
C746 H738 0.950 . S
C746 C744 1.391 . S
C746 C747 1.400 . S
C747 C746 1.400 . S
C747 C748 1.398 . S
C747 C753 1.491 1_565 S
C748 H739 0.950 . S
C748 C747 1.398 . S
C748 C749 1.391 . S
C749 H737 0.950 . S
C749 C745 1.393 . S
C749 C748 1.391 . S
C750 H740 0.950 . S
C750 C751 1.386 . S
C750 C752 1.391 . S
C751 C750 1.386 . S
C751 C755 1.393 . S
C752 H741 0.950 . S
C752 C750 1.391 . S
C752 C753 1.400 . S
C753 C747 1.491 1_545 S
C753 C752 1.400 . S
C753 C754 1.398 . S
C754 H742 0.950 . S
C754 C753 1.398 . S
C754 C755 1.391 . S
C755 H743 0.950 . S
C755 C751 1.393 . S
C755 C754 1.391 . S
H756 C764 0.950 . S
H757 C769 0.950 . S
H758 C766 0.950 . S
H759 C768 0.950 . S
H760 C770 0.950 . S
H761 C772 0.950 . S
H762 C774 0.950 . S
H763 C775 0.950 . S
C764 H756 0.950 . S
C764 C765 1.386 . S
C764 C766 1.391 . S
C765 C764 1.386 . S
C765 C769 1.393 1_655 S
C766 H758 0.950 . S
C766 C764 1.391 . S
C766 C767 1.400 . S
C767 C766 1.400 . S
C767 C768 1.398 1_655 S
C767 C773 1.491 1_655 S
C768 H759 0.950 . S
C768 C767 1.398 1_455 S
C768 C769 1.391 . S
C769 H757 0.950 . S
C769 C765 1.393 1_455 S
C769 C768 1.391 . S
C770 H760 0.950 . S
C770 C771 1.386 . S
C770 C772 1.391 . S
C771 C770 1.386 . S
C771 C775 1.393 1_455 S
C772 H761 0.950 . S
C772 C770 1.391 . S
C772 C773 1.400 . S
C773 C767 1.491 1_455 S
C773 C772 1.400 . S
C773 C774 1.398 1_455 S
C774 H762 0.950 . S
C774 C773 1.398 1_655 S
C774 C775 1.391 . S
C775 H763 0.950 . S
C775 C771 1.393 1_655 S
C775 C774 1.391 . S
H776 C784 0.950 . S
H777 C789 0.950 . S
H778 C786 0.950 . S
H779 C788 0.950 . S
H780 C790 0.950 . S
H781 C792 0.950 . S
H782 C794 0.950 . S
H783 C795 0.950 . S
C784 H776 0.950 . S
C784 C785 1.386 . S
C784 C786 1.391 . S
C785 C784 1.386 . S
C785 C789 1.393 . S
C786 H778 0.950 . S
C786 C784 1.391 . S
C786 C787 1.400 . S
C787 C786 1.400 . S
C787 C788 1.398 . S
C787 C793 1.491 1_556 S
C788 H779 0.950 . S
C788 C787 1.398 . S
C788 C789 1.391 . S
C789 H777 0.950 . S
C789 C785 1.393 . S
C789 C788 1.391 . S
C790 H780 0.950 . S
C790 C791 1.386 . S
C790 C792 1.391 . S
C791 C790 1.386 . S
C791 C795 1.393 . S
C792 H781 0.950 . S
C792 C790 1.391 . S
C792 C793 1.400 . S
C793 C787 1.491 1_554 S
C793 C792 1.400 . S
C793 C794 1.398 . S
C794 H782 0.950 . S
C794 C793 1.398 . S
C794 C795 1.391 . S
C795 H783 0.950 . S
C795 C791 1.393 . S
C795 C794 1.391 . S
H796 C804 0.950 . S
H797 C809 0.950 . S
H798 C806 0.950 . S
H799 C808 0.950 . S
H800 C810 0.950 . S
H801 C812 0.950 . S
H802 C814 0.950 . S
H803 C815 0.950 . S
C804 H796 0.950 . S
C804 C805 1.386 1_655 S
C804 C806 1.391 . S
C805 C804 1.386 1_455 S
C805 C809 1.393 . S
C806 H798 0.950 . S
C806 C804 1.391 . S
C806 C807 1.400 1_655 S
C807 C806 1.400 1_455 S
C807 C808 1.398 . S
C807 C813 1.491 1_446 S
C808 H799 0.950 . S
C808 C807 1.398 . S
C808 C809 1.391 . S
C809 H797 0.950 . S
C809 C805 1.393 . S
C809 C808 1.391 . S
C810 H800 0.950 . S
C810 C811 1.386 1_455 S
C810 C812 1.391 . S
C811 C810 1.386 1_655 S
C811 C815 1.393 . S
C812 H801 0.950 . S
C812 C810 1.391 . S
C812 C813 1.400 1_455 S
C813 C807 1.491 1_664 S
C813 C812 1.400 1_655 S
C813 C814 1.398 . S
C814 H802 0.950 . S
C814 C813 1.398 . S
C814 C815 1.391 . S
C815 H803 0.950 . S
C815 C811 1.393 . S
C815 C814 1.391 . S
H816 C824 0.950 . S
H817 C829 0.950 . S
H818 C826 0.950 . S
H819 C828 0.950 . S
H820 C830 0.950 . S
H821 C832 0.950 . S
H822 C834 0.950 . S
H823 C835 0.950 . S
C824 H816 0.950 . S
C824 C825 1.386 . S
C824 C826 1.391 . S
C825 C824 1.386 . S
C825 C829 1.393 . S
C826 H818 0.950 . S
C826 C824 1.391 . S
C826 C827 1.400 . S
C827 C826 1.400 . S
C827 C828 1.398 . S
C827 C833 1.491 1_545 S
C828 H819 0.950 . S
C828 C827 1.398 . S
C828 C829 1.391 . S
C829 H817 0.950 . S
C829 C825 1.393 . S
C829 C828 1.391 . S
C830 H820 0.950 . S
C830 C831 1.386 . S
C830 C832 1.391 . S
C831 C830 1.386 . S
C831 C835 1.393 . S
C832 H821 0.950 . S
C832 C830 1.391 . S
C832 C833 1.400 . S
C833 C827 1.491 1_565 S
C833 C832 1.400 . S
C833 C834 1.398 . S
C834 H822 0.950 . S
C834 C833 1.398 . S
C834 C835 1.391 . S
C835 H823 0.950 . S
C835 C831 1.393 . S
C835 C834 1.391 . S
H836 C844 0.950 . S
H837 C849 0.950 . S
H838 C846 0.950 . S
H839 C848 0.950 . S
H840 C850 0.950 . S
H841 C852 0.950 . S
H842 C854 0.950 . S
H843 C855 0.950 . S
C844 H836 0.950 . S
C844 C845 1.386 . S
C844 C846 1.391 . S
C845 C844 1.386 . S
C845 C849 1.393 . S
C846 H838 0.950 . S
C846 C844 1.391 . S
C846 C847 1.400 . S
C847 C846 1.400 . S
C847 C848 1.398 . S
C847 C853 1.491 1_455 S
C848 H839 0.950 . S
C848 C847 1.398 . S
C848 C849 1.391 . S
C849 H837 0.950 . S
C849 C845 1.393 . S
C849 C848 1.391 . S
C850 H840 0.950 . S
C850 C851 1.386 . S
C850 C852 1.391 . S
C851 C850 1.386 . S
C851 C855 1.393 . S
C852 H841 0.950 . S
C852 C850 1.391 . S
C852 C853 1.400 . S
C853 C847 1.491 1_655 S
C853 C852 1.400 . S
C853 C854 1.398 . S
C854 H842 0.950 . S
C854 C853 1.398 . S
C854 C855 1.391 . S
C855 H843 0.950 . S
C855 C851 1.393 . S
C855 C854 1.391 . S
H856 C864 0.950 . S
H857 C869 0.950 . S
H858 C866 0.950 . S
H859 C868 0.950 . S
H860 C870 0.950 . S
H861 C872 0.950 . S
H862 C874 0.950 . S
H863 C875 0.950 . S
C864 H856 0.950 . S
C864 C865 1.386 1_554 S
C864 C866 1.391 . S
C865 C864 1.386 1_556 S
C865 C869 1.393 . S
C866 H858 0.950 . S
C866 C864 1.391 . S
C866 C867 1.400 1_554 S
C867 C866 1.400 1_556 S
C867 C868 1.398 . S
C867 C873 1.491 1_556 S
C868 H859 0.950 . S
C868 C867 1.398 . S
C868 C869 1.391 . S
C869 H857 0.950 . S
C869 C865 1.393 . S
C869 C868 1.391 . S
C870 H860 0.950 . S
C870 C871 1.386 1_556 S
C870 C872 1.391 . S
C871 C870 1.386 1_554 S
C871 C875 1.393 . S
C872 H861 0.950 . S
C872 C870 1.391 . S
C872 C873 1.400 1_556 S
C873 C867 1.491 1_554 S
C873 C872 1.400 1_554 S
C873 C874 1.398 . S
C874 H862 0.950 . S
C874 C873 1.398 . S
C874 C875 1.391 . S
C875 H863 0.950 . S
C875 C871 1.393 . S
C875 C874 1.391 . S
H876 C884 0.950 . S
H877 C889 0.950 . S
H878 C886 0.950 . S
H879 C888 0.950 . S
H880 C890 0.950 . S
H881 C892 0.950 . S
H882 C894 0.950 . S
H883 C895 0.950 . S
C884 H876 0.950 . S
C884 C885 1.386 . S
C884 C886 1.391 . S
C885 C884 1.386 . S
C885 C889 1.393 . S
C886 H878 0.950 . S
C886 C884 1.391 . S
C886 C887 1.400 . S
C887 C886 1.400 . S
C887 C888 1.398 . S
C887 C893 1.491 . S
C888 H879 0.950 . S
C888 C887 1.398 . S
C888 C889 1.391 . S
C889 H877 0.950 . S
C889 C885 1.393 . S
C889 C888 1.391 . S
C890 H880 0.950 . S
C890 C891 1.386 . S
C890 C892 1.391 . S
C891 C890 1.386 . S
C891 C895 1.393 . S
C892 H881 0.950 . S
C892 C890 1.391 . S
C892 C893 1.400 . S
C893 C887 1.491 . S
C893 C892 1.400 . S
C893 C894 1.398 . S
C894 H882 0.950 . S
C894 C893 1.398 . S
C894 C895 1.391 . S
C895 H883 0.950 . S
C895 C891 1.393 . S
C895 C894 1.391 . S
H896 C904 0.950 . S
H897 C909 0.950 . S
H898 C906 0.950 . S
H899 C908 0.950 . S
H900 C910 0.950 . S
H901 C912 0.950 . S
H902 C914 0.950 . S
H903 C915 0.950 . S
C904 H896 0.950 . S
C904 C905 1.386 . S
C904 C906 1.391 . S
C905 C904 1.386 . S
C905 C909 1.393 . S
C906 H898 0.950 . S
C906 C904 1.391 . S
C906 C907 1.400 . S
C907 C906 1.400 . S
C907 C908 1.398 . S
C907 C913 1.491 . S
C908 H899 0.950 . S
C908 C907 1.398 . S
C908 C909 1.391 . S
C909 H897 0.950 . S
C909 C905 1.393 . S
C909 C908 1.391 . S
C910 H900 0.950 . S
C910 C911 1.386 . S
C910 C912 1.391 . S
C911 C910 1.386 . S
C911 C915 1.393 . S
C912 H901 0.950 . S
C912 C910 1.391 . S
C912 C913 1.400 . S
C913 C907 1.491 . S
C913 C912 1.400 . S
C913 C914 1.398 . S
C914 H902 0.950 . S
C914 C913 1.398 . S
C914 C915 1.391 . S
C915 H903 0.950 . S
C915 C911 1.393 . S
C915 C914 1.391 . S
H916 C924 0.950 . S
H917 C929 0.950 . S
H918 C926 0.950 . S
H919 C928 0.950 . S
H920 C930 0.950 . S
H921 C932 0.950 . S
H922 C934 0.950 . S
H923 C935 0.950 . S
C924 H916 0.950 . S
C924 C925 1.386 . S
C924 C926 1.391 . S
C925 C924 1.386 . S
C925 C929 1.393 1_655 S
C926 H918 0.950 . S
C926 C924 1.391 . S
C926 C927 1.400 . S
C927 C926 1.400 . S
C927 C928 1.398 1_655 S
C927 C933 1.491 1_655 S
C928 H919 0.950 . S
C928 C927 1.398 1_455 S
C928 C929 1.391 . S
C929 H917 0.950 . S
C929 C925 1.393 1_455 S
C929 C928 1.391 . S
C930 H920 0.950 . S
C930 C931 1.386 . S
C930 C932 1.391 . S
C931 C930 1.386 . S
C931 C935 1.393 1_455 S
C932 H921 0.950 . S
C932 C930 1.391 . S
C932 C933 1.400 . S
C933 C927 1.491 1_455 S
C933 C932 1.400 . S
C933 C934 1.398 1_455 S
C934 H922 0.950 . S
C934 C933 1.398 1_655 S
C934 C935 1.391 . S
C935 H923 0.950 . S
C935 C931 1.393 1_655 S
C935 C934 1.391 . S
H936 C944 0.950 . S
H937 C949 0.950 . S
H938 C946 0.950 . S
H939 C948 0.950 . S
H940 C950 0.950 . S
H941 C952 0.950 . S
H942 C954 0.950 . S
H943 C955 0.950 . S
C944 H936 0.950 . S
C944 C945 1.386 . S
C944 C946 1.391 . S
C945 C944 1.386 . S
C945 C949 1.393 . S
C946 H938 0.950 . S
C946 C944 1.391 . S
C946 C947 1.400 . S
C947 C946 1.400 . S
C947 C948 1.398 . S
C947 C953 1.491 . S
C948 H939 0.950 . S
C948 C947 1.398 . S
C948 C949 1.391 . S
C949 H937 0.950 . S
C949 C945 1.393 . S
C949 C948 1.391 . S
C950 H940 0.950 . S
C950 C951 1.386 . S
C950 C952 1.391 . S
C951 C950 1.386 . S
C951 C955 1.393 . S
C952 H941 0.950 . S
C952 C950 1.391 . S
C952 C953 1.400 . S
C953 C947 1.491 . S
C953 C952 1.400 . S
C953 C954 1.398 . S
C954 H942 0.950 . S
C954 C953 1.398 . S
C954 C955 1.391 . S
C955 H943 0.950 . S
C955 C951 1.393 . S
C955 C954 1.391 . S
H956 C964 0.950 . S
H957 C969 0.950 . S
H958 C966 0.950 . S
H959 C968 0.950 . S
H960 C970 0.950 . S
H961 C972 0.950 . S
H962 C974 0.950 . S
H963 C975 0.950 . S
C964 H956 0.950 . S
C964 C965 1.386 . S
C964 C966 1.391 . S
C965 C964 1.386 . S
C965 C969 1.393 . S
C966 H958 0.950 . S
C966 C964 1.391 . S
C966 C967 1.400 . S
C967 C966 1.400 . S
C967 C968 1.398 . S
C967 C973 1.491 . S
C968 H959 0.950 . S
C968 C967 1.398 . S
C968 C969 1.391 . S
C969 H957 0.950 . S
C969 C965 1.393 . S
C969 C968 1.391 . S
C970 H960 0.950 . S
C970 C971 1.386 . S
C970 C972 1.391 . S
C971 C970 1.386 . S
C971 C975 1.393 . S
C972 H961 0.950 . S
C972 C970 1.391 . S
C972 C973 1.400 . S
C973 C967 1.491 . S
C973 C972 1.400 . S
C973 C974 1.398 . S
C974 H962 0.950 . S
C974 C973 1.398 . S
C974 C975 1.391 . S
C975 H963 0.950 . S
C975 C971 1.393 . S
C975 C974 1.391 . S
H976 C984 0.950 . S
H977 C989 0.950 . S
H978 C986 0.950 . S
H979 C988 0.950 . S
H980 C990 0.950 . S
H981 C992 0.950 . S
H982 C994 0.950 . S
H983 C995 0.950 . S
C984 H976 0.950 . S
C984 C985 1.386 . S
C984 C986 1.391 . S
C985 C984 1.386 . S
C985 C989 1.393 . S
C986 H978 0.950 . S
C986 C984 1.391 . S
C986 C987 1.400 . S
C987 C986 1.400 . S
C987 C988 1.398 . S
C987 C993 1.491 . S
C988 H979 0.950 . S
C988 C987 1.398 . S
C988 C989 1.391 . S
C989 H977 0.950 . S
C989 C985 1.393 . S
C989 C988 1.391 . S
C990 H980 0.950 . S
C990 C991 1.386 . S
C990 C992 1.391 . S
C991 C990 1.386 . S
C991 C995 1.393 . S
C992 H981 0.950 . S
C992 C990 1.391 . S
C992 C993 1.400 . S
C993 C987 1.491 . S
C993 C992 1.400 . S
C993 C994 1.398 . S
C994 H982 0.950 . S
C994 C993 1.398 . S
C994 C995 1.391 . S
C995 H983 0.950 . S
C995 C991 1.393 . S
C995 C994 1.391 . S
H996 C1004 0.950 . S
H997 C1009 0.950 . S
H998 C1006 0.950 . S
H999 C1008 0.950 . S
H1000 C1010 0.950 . S
H1001 C1012 0.950 . S
H1002 C1014 0.950 . S
H1003 C1015 0.950 . S
C1004 H996 0.950 . S
C1004 C1005 1.386 . S
C1004 C1006 1.391 . S
C1005 C1004 1.386 . S
C1005 C1009 1.393 . S
C1006 H998 0.950 . S
C1006 C1004 1.391 . S
C1006 C1007 1.400 . S
C1007 C1006 1.400 . S
C1007 C1008 1.398 . S
C1007 C1013 1.491 1_545 S
C1008 H999 0.950 . S
C1008 C1007 1.398 . S
C1008 C1009 1.391 . S
C1009 H997 0.950 . S
C1009 C1005 1.393 . S
C1009 C1008 1.391 . S
C1010 H1000 0.950 . S
C1010 C1011 1.386 . S
C1010 C1012 1.391 . S
C1011 C1010 1.386 . S
C1011 C1015 1.393 . S
C1012 H1001 0.950 . S
C1012 C1010 1.391 . S
C1012 C1013 1.400 . S
C1013 C1007 1.491 1_565 S
C1013 C1012 1.400 . S
C1013 C1014 1.398 . S
C1014 H1002 0.950 . S
C1014 C1013 1.398 . S
C1014 C1015 1.391 . S
C1015 H1003 0.950 . S
C1015 C1011 1.393 . S
C1015 C1014 1.391 . S
H1016 C1024 0.950 . S
H1017 C1029 0.950 . S
H1018 C1026 0.950 . S
H1019 C1028 0.950 . S
H1020 C1030 0.950 . S
H1021 C1032 0.950 . S
H1022 C1034 0.950 . S
H1023 C1035 0.950 . S
C1024 H1016 0.950 . S
C1024 C1025 1.386 . S
C1024 C1026 1.391 . S
C1025 C1024 1.386 . S
C1025 C1029 1.393 . S
C1026 H1018 0.950 . S
C1026 C1024 1.391 . S
C1026 C1027 1.400 . S
C1027 C1026 1.400 . S
C1027 C1028 1.398 . S
C1027 C1033 1.491 . S
C1028 H1019 0.950 . S
C1028 C1027 1.398 . S
C1028 C1029 1.391 . S
C1029 H1017 0.950 . S
C1029 C1025 1.393 . S
C1029 C1028 1.391 . S
C1030 H1020 0.950 . S
C1030 C1031 1.386 . S
C1030 C1032 1.391 . S
C1031 C1030 1.386 . S
C1031 C1035 1.393 . S
C1032 H1021 0.950 . S
C1032 C1030 1.391 . S
C1032 C1033 1.400 . S
C1033 C1027 1.491 . S
C1033 C1032 1.400 . S
C1033 C1034 1.398 . S
C1034 H1022 0.950 . S
C1034 C1033 1.398 . S
C1034 C1035 1.391 . S
C1035 H1023 0.950 . S
C1035 C1031 1.393 . S
C1035 C1034 1.391 . S
H1036 C1044 0.950 . S
H1037 C1049 0.950 1_556 S
H1038 C1046 0.950 . S
H1039 C1048 0.950 . S
H1040 C1050 0.950 . S
H1041 C1052 0.950 . S
H1042 C1054 0.950 . S
H1043 C1055 0.950 1_554 S
C1044 H1036 0.950 . S
C1044 C1045 1.386 . S
C1044 C1046 1.391 . S
C1045 C1044 1.386 . S
C1045 C1049 1.393 . S
C1046 H1038 0.950 . S
C1046 C1044 1.391 . S
C1046 C1047 1.400 . S
C1047 C1046 1.400 . S
C1047 C1048 1.398 1_554 S
C1047 C1053 1.491 1_554 S
C1048 H1039 0.950 . S
C1048 C1047 1.398 1_556 S
C1048 C1049 1.391 1_556 S
C1049 H1037 0.950 1_554 S
C1049 C1045 1.393 . S
C1049 C1048 1.391 1_554 S
C1050 H1040 0.950 . S
C1050 C1051 1.386 . S
C1050 C1052 1.391 . S
C1051 C1050 1.386 . S
C1051 C1055 1.393 . S
C1052 H1041 0.950 . S
C1052 C1050 1.391 . S
C1052 C1053 1.400 . S
C1053 C1047 1.491 1_556 S
C1053 C1052 1.400 . S
C1053 C1054 1.398 1_556 S
C1054 H1042 0.950 . S
C1054 C1053 1.398 1_554 S
C1054 C1055 1.391 1_554 S
C1055 H1043 0.950 1_556 S
C1055 C1051 1.393 . S
C1055 C1054 1.391 1_556 S
H1056 C1064 0.950 . S
H1057 C1069 0.950 . S
H1058 C1066 0.950 . S
H1059 C1068 0.950 . S
H1060 C1070 0.950 . S
H1061 C1072 0.950 . S
H1062 C1074 0.950 . S
H1063 C1075 0.950 . S
C1064 H1056 0.950 . S
C1064 C1065 1.386 . S
C1064 C1066 1.391 . S
C1065 C1064 1.386 . S
C1065 C1069 1.393 . S
C1066 H1058 0.950 . S
C1066 C1064 1.391 . S
C1066 C1067 1.400 . S
C1067 C1066 1.400 . S
C1067 C1068 1.398 . S
C1067 C1073 1.491 . S
C1068 H1059 0.950 . S
C1068 C1067 1.398 . S
C1068 C1069 1.391 . S
C1069 H1057 0.950 . S
C1069 C1065 1.393 . S
C1069 C1068 1.391 . S
C1070 H1060 0.950 . S
C1070 C1071 1.386 . S
C1070 C1072 1.391 . S
C1071 C1070 1.386 . S
C1071 C1075 1.393 . S
C1072 H1061 0.950 . S
C1072 C1070 1.391 . S
C1072 C1073 1.400 . S
C1073 C1067 1.491 . S
C1073 C1072 1.400 . S
C1073 C1074 1.398 . S
C1074 H1062 0.950 . S
C1074 C1073 1.398 . S
C1074 C1075 1.391 . S
C1075 H1063 0.950 . S
C1075 C1071 1.393 . S
C1075 C1074 1.391 . S
H1076 C1084 0.950 . S
H1077 C1089 0.950 1_554 S
H1078 C1086 0.950 . S
H1079 C1088 0.950 1_554 S
H1080 C1090 0.950 1_554 S
H1081 C1092 0.950 1_554 S
H1082 C1094 0.950 . S
H1083 C1095 0.950 . S
C1084 H1076 0.950 . S
C1084 C1085 1.386 . S
C1084 C1086 1.391 . S
C1085 C1084 1.386 . S
C1085 C1089 1.393 . S
C1086 H1078 0.950 . S
C1086 C1084 1.391 . S
C1086 C1087 1.400 . S
C1087 C1086 1.400 . S
C1087 C1088 1.398 . S
C1087 C1093 1.491 . S
C1088 H1079 0.950 1_556 S
C1088 C1087 1.398 . S
C1088 C1089 1.391 . S
C1089 H1077 0.950 1_556 S
C1089 C1085 1.393 . S
C1089 C1088 1.391 . S
C1090 H1080 0.950 1_556 S
C1090 C1091 1.386 . S
C1090 C1092 1.391 . S
C1091 C1090 1.386 . S
C1091 C1095 1.393 . S
C1092 H1081 0.950 1_556 S
C1092 C1090 1.391 . S
C1092 C1093 1.400 . S
C1093 C1087 1.491 . S
C1093 C1092 1.400 . S
C1093 C1094 1.398 . S
C1094 H1082 0.950 . S
C1094 C1093 1.398 . S
C1094 C1095 1.391 . S
C1095 H1083 0.950 . S
C1095 C1091 1.393 . S
C1095 C1094 1.391 . S
H1096 C1104 0.950 . S
H1097 C1109 0.950 . S
H1098 C1106 0.950 . S
H1099 C1108 0.950 . S
H1100 C1110 0.950 . S
H1101 C1112 0.950 . S
H1102 C1114 0.950 . S
H1103 C1115 0.950 . S
C1104 H1096 0.950 . S
C1104 C1105 1.386 . S
C1104 C1106 1.391 . S
C1105 C1104 1.386 . S
C1105 C1109 1.393 . S
C1106 H1098 0.950 . S
C1106 C1104 1.391 . S
C1106 C1107 1.400 . S
C1107 C1106 1.400 . S
C1107 C1108 1.398 . S
C1107 C1113 1.491 . S
C1108 H1099 0.950 . S
C1108 C1107 1.398 . S
C1108 C1109 1.391 . S
C1109 H1097 0.950 . S
C1109 C1105 1.393 . S
C1109 C1108 1.391 . S
C1110 H1100 0.950 . S
C1110 C1111 1.386 . S
C1110 C1112 1.391 . S
C1111 C1110 1.386 . S
C1111 C1115 1.393 . S
C1112 H1101 0.950 . S
C1112 C1110 1.391 . S
C1112 C1113 1.400 . S
C1113 C1107 1.491 . S
C1113 C1112 1.400 . S
C1113 C1114 1.398 . S
C1114 H1102 0.950 . S
C1114 C1113 1.398 . S
C1114 C1115 1.391 . S
C1115 H1103 0.950 . S
C1115 C1111 1.393 . S
C1115 C1114 1.391 . S
H1116 C1124 0.950 . S
H1117 C1129 0.950 . S
H1118 C1126 0.950 . S
H1119 C1128 0.950 . S
H1120 C1130 0.950 . S
H1121 C1132 0.950 . S
H1122 C1134 0.950 . S
H1123 C1135 0.950 . S
C1124 H1116 0.950 . S
C1124 C1125 1.386 . S
C1124 C1126 1.391 . S
C1125 C1124 1.386 . S
C1125 C1129 1.393 . S
C1126 H1118 0.950 . S
C1126 C1124 1.391 . S
C1126 C1127 1.400 . S
C1127 C1126 1.400 . S
C1127 C1128 1.398 . S
C1127 C1133 1.491 . S
C1128 H1119 0.950 . S
C1128 C1127 1.398 . S
C1128 C1129 1.391 . S
C1129 H1117 0.950 . S
C1129 C1125 1.393 . S
C1129 C1128 1.391 . S
C1130 H1120 0.950 . S
C1130 C1131 1.386 . S
C1130 C1132 1.391 . S
C1131 C1130 1.386 . S
C1131 C1135 1.393 . S
C1132 H1121 0.950 . S
C1132 C1130 1.391 . S
C1132 C1133 1.400 . S
C1133 C1127 1.491 . S
C1133 C1132 1.400 . S
C1133 C1134 1.398 . S
C1134 H1122 0.950 . S
C1134 C1133 1.398 . S
C1134 C1135 1.391 . S
C1135 H1123 0.950 . S
C1135 C1131 1.393 . S
C1135 C1134 1.391 . S
H1136 C1144 0.950 . S
H1137 C1149 0.950 . S
H1138 C1146 0.950 . S
H1139 C1148 0.950 . S
H1140 C1150 0.950 . S
H1141 C1152 0.950 . S
H1142 C1154 0.950 . S
H1143 C1155 0.950 . S
C1144 H1136 0.950 . S
C1144 C1145 1.386 . S
C1144 C1146 1.391 . S
C1145 C1144 1.386 . S
C1145 C1149 1.393 . S
C1146 H1138 0.950 . S
C1146 C1144 1.391 . S
C1146 C1147 1.400 . S
C1147 C1146 1.400 . S
C1147 C1148 1.398 . S
C1147 C1153 1.491 . S
C1148 H1139 0.950 . S
C1148 C1147 1.398 . S
C1148 C1149 1.391 . S
C1149 H1137 0.950 . S
C1149 C1145 1.393 . S
C1149 C1148 1.391 . S
C1150 H1140 0.950 . S
C1150 C1151 1.386 . S
C1150 C1152 1.391 . S
C1151 C1150 1.386 . S
C1151 C1155 1.393 . S
C1152 H1141 0.950 . S
C1152 C1150 1.391 . S
C1152 C1153 1.400 . S
C1153 C1147 1.491 . S
C1153 C1152 1.400 . S
C1153 C1154 1.398 . S
C1154 H1142 0.950 . S
C1154 C1153 1.398 . S
C1154 C1155 1.391 . S
C1155 H1143 0.950 . S
C1155 C1151 1.393 . S
C1155 C1154 1.391 . S
H1156 C1164 0.950 . S
H1157 C1169 0.950 . S
H1158 C1166 0.950 . S
H1159 C1168 0.950 . S
H1160 C1170 0.950 . S
H1161 C1172 0.950 . S
H1162 C1174 0.950 . S
H1163 C1175 0.950 . S
C1164 H1156 0.950 . S
C1164 C1165 1.386 . S
C1164 C1166 1.391 . S
C1165 C1164 1.386 . S
C1165 C1169 1.393 . S
C1166 H1158 0.950 . S
C1166 C1164 1.391 . S
C1166 C1167 1.400 . S
C1167 C1166 1.400 . S
C1167 C1168 1.398 . S
C1167 C1173 1.491 . S
C1168 H1159 0.950 . S
C1168 C1167 1.398 . S
C1168 C1169 1.391 . S
C1169 H1157 0.950 . S
C1169 C1165 1.393 . S
C1169 C1168 1.391 . S
C1170 H1160 0.950 . S
C1170 C1171 1.386 . S
C1170 C1172 1.391 . S
C1171 C1170 1.386 . S
C1171 C1175 1.393 . S
C1172 H1161 0.950 . S
C1172 C1170 1.391 . S
C1172 C1173 1.400 . S
C1173 C1167 1.491 . S
C1173 C1172 1.400 . S
C1173 C1174 1.398 . S
C1174 H1162 0.950 . S
C1174 C1173 1.398 . S
C1174 C1175 1.391 . S
C1175 H1163 0.950 . S
C1175 C1171 1.393 . S
C1175 C1174 1.391 . S
H1176 C1184 0.950 . S
H1177 C1189 0.950 . S
H1178 C1186 0.950 . S
H1179 C1188 0.950 . S
H1180 C1190 0.950 . S
H1181 C1192 0.950 . S
H1182 C1194 0.950 . S
H1183 C1195 0.950 . S
C1184 H1176 0.950 . S
C1184 C1185 1.386 . S
C1184 C1186 1.391 . S
C1185 C1184 1.386 . S
C1185 C1189 1.393 . S
C1186 H1178 0.950 . S
C1186 C1184 1.391 . S
C1186 C1187 1.400 . S
C1187 C1186 1.400 . S
C1187 C1188 1.398 . S
C1187 C1193 1.491 . S
C1188 H1179 0.950 . S
C1188 C1187 1.398 . S
C1188 C1189 1.391 . S
C1189 H1177 0.950 . S
C1189 C1185 1.393 . S
C1189 C1188 1.391 . S
C1190 H1180 0.950 . S
C1190 C1191 1.386 . S
C1190 C1192 1.391 . S
C1191 C1190 1.386 . S
C1191 C1195 1.393 . S
C1192 H1181 0.950 . S
C1192 C1190 1.391 . S
C1192 C1193 1.400 . S
C1193 C1187 1.491 . S
C1193 C1192 1.400 . S
C1193 C1194 1.398 . S
C1194 H1182 0.950 . S
C1194 C1193 1.398 . S
C1194 C1195 1.391 . S
C1195 H1183 0.950 . S
C1195 C1191 1.393 . S
C1195 C1194 1.391 . S
H1196 C1204 0.950 . S
H1197 C1209 0.950 . S
H1198 C1206 0.950 . S
H1199 C1208 0.950 . S
H1200 C1210 0.950 . S
H1201 C1212 0.950 . S
H1202 C1214 0.950 . S
H1203 C1215 0.950 . S
C1204 H1196 0.950 . S
C1204 C1205 1.386 . S
C1204 C1206 1.391 . S
C1205 C1204 1.386 . S
C1205 C1209 1.393 . S
C1206 H1198 0.950 . S
C1206 C1204 1.391 . S
C1206 C1207 1.400 . S
C1207 C1206 1.400 . S
C1207 C1208 1.398 . S
C1207 C1213 1.491 . S
C1208 H1199 0.950 . S
C1208 C1207 1.398 . S
C1208 C1209 1.391 . S
C1209 H1197 0.950 . S
C1209 C1205 1.393 . S
C1209 C1208 1.391 . S
C1210 H1200 0.950 . S
C1210 C1211 1.386 . S
C1210 C1212 1.391 . S
C1211 C1210 1.386 . S
C1211 C1215 1.393 . S
C1212 H1201 0.950 . S
C1212 C1210 1.391 . S
C1212 C1213 1.400 . S
C1213 C1207 1.491 . S
C1213 C1212 1.400 . S
C1213 C1214 1.398 . S
C1214 H1202 0.950 . S
C1214 C1213 1.398 . S
C1214 C1215 1.391 . S
C1215 H1203 0.950 . S
C1215 C1211 1.393 . S
C1215 C1214 1.391 . S
H1216 C1224 0.950 . S
H1217 C1229 0.950 . S
H1218 C1226 0.950 . S
H1219 C1228 0.950 . S
H1220 C1230 0.950 . S
H1221 C1232 0.950 . S
H1222 C1234 0.950 . S
H1223 C1235 0.950 . S
C1224 H1216 0.950 . S
C1224 C1225 1.386 . S
C1224 C1226 1.391 . S
C1225 C1224 1.386 . S
C1225 C1229 1.393 . S
C1226 H1218 0.950 . S
C1226 C1224 1.391 . S
C1226 C1227 1.400 . S
C1227 C1226 1.400 . S
C1227 C1228 1.398 . S
C1227 C1233 1.491 . S
C1228 H1219 0.950 . S
C1228 C1227 1.398 . S
C1228 C1229 1.391 . S
C1229 H1217 0.950 . S
C1229 C1225 1.393 . S
C1229 C1228 1.391 . S
C1230 H1220 0.950 . S
C1230 C1231 1.386 . S
C1230 C1232 1.391 . S
C1231 C1230 1.386 . S
C1231 C1235 1.393 . S
C1232 H1221 0.950 . S
C1232 C1230 1.391 . S
C1232 C1233 1.400 . S
C1233 C1227 1.491 . S
C1233 C1232 1.400 . S
C1233 C1234 1.398 . S
C1234 H1222 0.950 . S
C1234 C1233 1.398 . S
C1234 C1235 1.391 . S
C1235 H1223 0.950 . S
C1235 C1231 1.393 . S
C1235 C1234 1.391 . S
H1236 C1244 0.950 . S
H1237 C1249 0.950 . S
H1238 C1246 0.950 . S
H1239 C1248 0.950 . S
H1240 C1250 0.950 . S
H1241 C1252 0.950 . S
H1242 C1254 0.950 . S
H1243 C1255 0.950 . S
C1244 H1236 0.950 . S
C1244 C1245 1.386 . S
C1244 C1246 1.391 . S
C1245 C1244 1.386 . S
C1245 C1249 1.393 . S
C1246 H1238 0.950 . S
C1246 C1244 1.391 . S
C1246 C1247 1.400 . S
C1247 C1246 1.400 . S
C1247 C1248 1.398 . S
C1247 C1253 1.491 . S
C1248 H1239 0.950 . S
C1248 C1247 1.398 . S
C1248 C1249 1.391 . S
C1249 H1237 0.950 . S
C1249 C1245 1.393 . S
C1249 C1248 1.391 . S
C1250 H1240 0.950 . S
C1250 C1251 1.386 . S
C1250 C1252 1.391 . S
C1251 C1250 1.386 . S
C1251 C1255 1.393 . S
C1252 H1241 0.950 . S
C1252 C1250 1.391 . S
C1252 C1253 1.400 . S
C1253 C1247 1.491 . S
C1253 C1252 1.400 . S
C1253 C1254 1.398 . S
C1254 H1242 0.950 . S
C1254 C1253 1.398 . S
C1254 C1255 1.391 . S
C1255 H1243 0.950 . S
C1255 C1251 1.393 . S
C1255 C1254 1.391 . S
H1256 C1264 0.950 . S
H1257 C1269 0.950 . S
H1258 C1266 0.950 . S
H1259 C1268 0.950 . S
H1260 C1270 0.950 . S
H1261 C1272 0.950 . S
H1262 C1274 0.950 . S
H1263 C1275 0.950 . S
C1264 H1256 0.950 . S
C1264 C1265 1.386 . S
C1264 C1266 1.391 . S
C1265 C1264 1.386 . S
C1265 C1269 1.393 . S
C1266 H1258 0.950 . S
C1266 C1264 1.391 . S
C1266 C1267 1.400 . S
C1267 C1266 1.400 . S
C1267 C1268 1.398 . S
C1267 C1273 1.491 . S
C1268 H1259 0.950 . S
C1268 C1267 1.398 . S
C1268 C1269 1.391 . S
C1269 H1257 0.950 . S
C1269 C1265 1.393 . S
C1269 C1268 1.391 . S
C1270 H1260 0.950 . S
C1270 C1271 1.386 . S
C1270 C1272 1.391 . S
C1271 C1270 1.386 . S
C1271 C1275 1.393 . S
C1272 H1261 0.950 . S
C1272 C1270 1.391 . S
C1272 C1273 1.400 . S
C1273 C1267 1.491 . S
C1273 C1272 1.400 . S
C1273 C1274 1.398 . S
C1274 H1262 0.950 . S
C1274 C1273 1.398 . S
C1274 C1275 1.391 . S
C1275 H1263 0.950 . S
C1275 C1271 1.393 . S
C1275 C1274 1.391 . S
H1276 C1284 0.950 . S
H1277 C1289 0.950 . S
H1278 C1286 0.950 . S
H1279 C1288 0.950 . S
H1280 C1290 0.950 . S
H1281 C1292 0.950 . S
H1282 C1294 0.950 . S
H1283 C1295 0.950 . S
C1284 H1276 0.950 . S
C1284 C1285 1.386 . S
C1284 C1286 1.391 . S
C1285 C1284 1.386 . S
C1285 C1289 1.393 . S
C1286 H1278 0.950 . S
C1286 C1284 1.391 . S
C1286 C1287 1.400 . S
C1287 C1286 1.400 . S
C1287 C1288 1.398 . S
C1287 C1293 1.491 . S
C1288 H1279 0.950 . S
C1288 C1287 1.398 . S
C1288 C1289 1.391 . S
C1289 H1277 0.950 . S
C1289 C1285 1.393 . S
C1289 C1288 1.391 . S
C1290 H1280 0.950 . S
C1290 C1291 1.386 . S
C1290 C1292 1.391 . S
C1291 C1290 1.386 . S
C1291 C1295 1.393 . S
C1292 H1281 0.950 . S
C1292 C1290 1.391 . S
C1292 C1293 1.400 . S
C1293 C1287 1.491 . S
C1293 C1292 1.400 . S
C1293 C1294 1.398 . S
C1294 H1282 0.950 . S
C1294 C1293 1.398 . S
C1294 C1295 1.391 . S
C1295 H1283 0.950 . S
C1295 C1291 1.393 . S
C1295 C1294 1.391 . S
H1296 C1304 0.950 . S
H1297 C1309 0.950 . S
H1298 C1306 0.950 . S
H1299 C1308 0.950 . S
H1300 C1310 0.950 . S
H1301 C1312 0.950 . S
H1302 C1314 0.950 . S
H1303 C1315 0.950 . S
C1304 H1296 0.950 . S
C1304 C1305 1.386 . S
C1304 C1306 1.391 . S
C1305 C1304 1.386 . S
C1305 C1309 1.393 . S
C1306 H1298 0.950 . S
C1306 C1304 1.391 . S
C1306 C1307 1.400 . S
C1307 C1306 1.400 . S
C1307 C1308 1.398 . S
C1307 C1313 1.491 . S
C1308 H1299 0.950 . S
C1308 C1307 1.398 . S
C1308 C1309 1.391 . S
C1309 H1297 0.950 . S
C1309 C1305 1.393 . S
C1309 C1308 1.391 . S
C1310 H1300 0.950 . S
C1310 C1311 1.386 . S
C1310 C1312 1.391 . S
C1311 C1310 1.386 . S
C1311 C1315 1.393 . S
C1312 H1301 0.950 . S
C1312 C1310 1.391 . S
C1312 C1313 1.400 . S
C1313 C1307 1.491 . S
C1313 C1312 1.400 . S
C1313 C1314 1.398 . S
C1314 H1302 0.950 . S
C1314 C1313 1.398 . S
C1314 C1315 1.391 . S
C1315 H1303 0.950 . S
C1315 C1311 1.393 . S
C1315 C1314 1.391 . S
H1316 C1324 0.950 . S
H1317 C1329 0.950 . S
H1318 C1326 0.950 . S
H1319 C1328 0.950 . S
H1320 C1330 0.950 . S
H1321 C1332 0.950 . S
H1322 C1334 0.950 . S
H1323 C1335 0.950 . S
C1324 H1316 0.950 . S
C1324 C1325 1.386 . S
C1324 C1326 1.391 . S
C1325 C1324 1.386 . S
C1325 C1329 1.393 . S
C1326 H1318 0.950 . S
C1326 C1324 1.391 . S
C1326 C1327 1.400 . S
C1327 C1326 1.400 . S
C1327 C1328 1.398 . S
C1327 C1333 1.491 . S
C1328 H1319 0.950 . S
C1328 C1327 1.398 . S
C1328 C1329 1.391 . S
C1329 H1317 0.950 . S
C1329 C1325 1.393 . S
C1329 C1328 1.391 . S
C1330 H1320 0.950 . S
C1330 C1331 1.386 . S
C1330 C1332 1.391 . S
C1331 C1330 1.386 . S
C1331 C1335 1.393 . S
C1332 H1321 0.950 . S
C1332 C1330 1.391 . S
C1332 C1333 1.400 . S
C1333 C1327 1.491 . S
C1333 C1332 1.400 . S
C1333 C1334 1.398 . S
C1334 H1322 0.950 . S
C1334 C1333 1.398 . S
C1334 C1335 1.391 . S
C1335 H1323 0.950 . S
C1335 C1331 1.393 . S
C1335 C1334 1.391 . S
H1336 C1344 0.950 . S
H1337 C1349 0.950 . S
H1338 C1346 0.950 . S
H1339 C1348 0.950 . S
H1340 C1350 0.950 . S
H1341 C1352 0.950 . S
H1342 C1354 0.950 . S
H1343 C1355 0.950 . S
C1344 H1336 0.950 . S
C1344 C1345 1.386 . S
C1344 C1346 1.391 . S
C1345 C1344 1.386 . S
C1345 C1349 1.393 . S
C1346 H1338 0.950 . S
C1346 C1344 1.391 . S
C1346 C1347 1.400 . S
C1347 C1346 1.400 . S
C1347 C1348 1.398 . S
C1347 C1353 1.491 . S
C1348 H1339 0.950 . S
C1348 C1347 1.398 . S
C1348 C1349 1.391 . S
C1349 H1337 0.950 . S
C1349 C1345 1.393 . S
C1349 C1348 1.391 . S
C1350 H1340 0.950 . S
C1350 C1351 1.386 . S
C1350 C1352 1.391 . S
C1351 C1350 1.386 . S
C1351 C1355 1.393 . S
C1352 H1341 0.950 . S
C1352 C1350 1.391 . S
C1352 C1353 1.400 . S
C1353 C1347 1.491 . S
C1353 C1352 1.400 . S
C1353 C1354 1.398 . S
C1354 H1342 0.950 . S
C1354 C1353 1.398 . S
C1354 C1355 1.391 . S
C1355 H1343 0.950 . S
C1355 C1351 1.393 . S
C1355 C1354 1.391 . S
H1356 C1364 0.950 . S
H1357 C1369 0.950 1_556 S
H1358 C1366 0.950 . S
H1359 C1368 0.950 1_556 S
H1360 C1370 0.950 1_556 S
H1361 C1372 0.950 1_556 S
H1362 C1374 0.950 . S
H1363 C1375 0.950 . S
C1364 H1356 0.950 . S
C1364 C1365 1.386 . S
C1364 C1366 1.391 . S
C1365 C1364 1.386 . S
C1365 C1369 1.393 . S
C1366 H1358 0.950 . S
C1366 C1364 1.391 . S
C1366 C1367 1.400 . S
C1367 C1366 1.400 . S
C1367 C1368 1.398 . S
C1367 C1373 1.491 . S
C1368 H1359 0.950 1_554 S
C1368 C1367 1.398 . S
C1368 C1369 1.391 . S
C1369 H1357 0.950 1_554 S
C1369 C1365 1.393 . S
C1369 C1368 1.391 . S
C1370 H1360 0.950 1_554 S
C1370 C1371 1.386 . S
C1370 C1372 1.391 . S
C1371 C1370 1.386 . S
C1371 C1375 1.393 . S
C1372 H1361 0.950 1_554 S
C1372 C1370 1.391 . S
C1372 C1373 1.400 . S
C1373 C1367 1.491 . S
C1373 C1372 1.400 . S
C1373 C1374 1.398 . S
C1374 H1362 0.950 . S
C1374 C1373 1.398 . S
C1374 C1375 1.391 . S
C1375 H1363 0.950 . S
C1375 C1371 1.393 . S
C1375 C1374 1.391 . S
H1376 C1384 0.951 . S
H1377 C1389 0.950 . S
H1378 C1386 0.950 . S
H1379 C1388 0.950 . S
H1380 C1390 0.950 . S
H1381 C1392 0.950 . S
H1382 C1394 0.950 . S
H1383 C1395 0.950 . S
C1384 H1376 0.951 . S
C1384 C1385 1.385 1_455 S
C1384 C1386 1.390 1_455 S
C1385 C1384 1.385 1_655 S
C1385 C1389 1.393 . S
C1386 H1378 0.950 . S
C1386 C1384 1.390 1_655 S
C1386 C1387 1.400 . S
C1387 C1386 1.400 . S
C1387 C1388 1.398 . S
C1387 C1393 1.491 . S
C1388 H1379 0.950 . S
C1388 C1387 1.398 . S
C1388 C1389 1.391 . S
C1389 H1377 0.950 . S
C1389 C1385 1.393 . S
C1389 C1388 1.391 . S
C1390 H1380 0.950 . S
C1390 C1391 1.386 . S
C1390 C1392 1.391 . S
C1391 C1390 1.386 . S
C1391 C1395 1.393 . S
C1392 H1381 0.950 . S
C1392 C1390 1.391 . S
C1392 C1393 1.400 . S
C1393 C1387 1.491 . S
C1393 C1392 1.400 . S
C1393 C1394 1.398 . S
C1394 H1382 0.950 . S
C1394 C1393 1.398 . S
C1394 C1395 1.391 . S
C1395 H1383 0.950 . S
C1395 C1391 1.393 . S
C1395 C1394 1.391 . S
H1396 C1404 0.950 . S
H1397 C1409 0.950 . S
H1398 C1406 0.950 . S
H1399 C1408 0.950 . S
H1400 C1410 0.950 . S
H1401 C1412 0.950 . S
H1402 C1414 0.950 . S
H1403 C1415 0.950 . S
C1404 H1396 0.950 . S
C1404 C1405 1.386 . S
C1404 C1406 1.391 . S
C1405 C1404 1.386 . S
C1405 C1409 1.393 . S
C1406 H1398 0.950 . S
C1406 C1404 1.391 . S
C1406 C1407 1.400 . S
C1407 C1406 1.400 . S
C1407 C1408 1.398 . S
C1407 C1413 1.491 . S
C1408 H1399 0.950 . S
C1408 C1407 1.398 . S
C1408 C1409 1.391 . S
C1409 H1397 0.950 . S
C1409 C1405 1.393 . S
C1409 C1408 1.391 . S
C1410 H1400 0.950 . S
C1410 C1411 1.386 . S
C1410 C1412 1.391 . S
C1411 C1410 1.386 . S
C1411 C1415 1.393 . S
C1412 H1401 0.950 . S
C1412 C1410 1.391 . S
C1412 C1413 1.400 . S
C1413 C1407 1.491 . S
C1413 C1412 1.400 . S
C1413 C1414 1.398 . S
C1414 H1402 0.950 . S
C1414 C1413 1.398 . S
C1414 C1415 1.391 . S
C1415 H1403 0.950 . S
C1415 C1411 1.393 . S
C1415 C1414 1.391 . S
H1416 C1424 0.950 . S
H1417 C1429 0.950 . S
H1418 C1426 0.950 . S
H1419 C1428 0.950 . S
H1420 C1430 0.950 1_455 S
H1421 C1432 0.950 . S
H1422 C1434 0.950 . S
H1423 C1435 0.950 . S
C1424 H1416 0.950 . S
C1424 C1425 1.386 . S
C1424 C1426 1.391 . S
C1425 C1424 1.386 . S
C1425 C1429 1.393 . S
C1426 H1418 0.950 . S
C1426 C1424 1.391 . S
C1426 C1427 1.400 . S
C1427 C1426 1.400 . S
C1427 C1428 1.398 . S
C1427 C1433 1.491 . S
C1428 H1419 0.950 . S
C1428 C1427 1.398 . S
C1428 C1429 1.391 . S
C1429 H1417 0.950 . S
C1429 C1425 1.393 . S
C1429 C1428 1.391 . S
C1430 H1420 0.950 1_655 S
C1430 C1431 1.386 . S
C1430 C1432 1.391 . S
C1431 C1430 1.386 . S
C1431 C1435 1.393 . S
C1432 H1421 0.950 . S
C1432 C1430 1.391 . S
C1432 C1433 1.400 . S
C1433 C1427 1.491 . S
C1433 C1432 1.400 . S
C1433 C1434 1.398 . S
C1434 H1422 0.950 . S
C1434 C1433 1.398 . S
C1434 C1435 1.391 . S
C1435 H1423 0.950 . S
C1435 C1431 1.393 . S
C1435 C1434 1.391 . S
H1436 C1444 0.950 . S
H1437 C1449 0.950 . S
H1438 C1446 0.950 . S
H1439 C1448 0.950 . S
H1440 C1450 0.950 . S
H1441 C1452 0.950 . S
H1442 C1454 0.950 . S
H1443 C1455 0.950 . S
C1444 H1436 0.950 . S
C1444 C1445 1.386 . S
C1444 C1446 1.391 . S
C1445 C1444 1.386 . S
C1445 C1449 1.393 . S
C1446 H1438 0.950 . S
C1446 C1444 1.391 . S
C1446 C1447 1.400 . S
C1447 C1446 1.400 . S
C1447 C1448 1.398 . S
C1447 C1453 1.491 . S
C1448 H1439 0.950 . S
C1448 C1447 1.398 . S
C1448 C1449 1.391 . S
C1449 H1437 0.950 . S
C1449 C1445 1.393 . S
C1449 C1448 1.391 . S
C1450 H1440 0.950 . S
C1450 C1451 1.386 . S
C1450 C1452 1.391 . S
C1451 C1450 1.386 . S
C1451 C1455 1.393 . S
C1452 H1441 0.950 . S
C1452 C1450 1.391 . S
C1452 C1453 1.400 . S
C1453 C1447 1.491 . S
C1453 C1452 1.400 . S
C1453 C1454 1.398 . S
C1454 H1442 0.950 . S
C1454 C1453 1.398 . S
C1454 C1455 1.391 . S
C1455 H1443 0.950 . S
C1455 C1451 1.393 . S
C1455 C1454 1.391 . S
H1456 C1464 0.950 . S
H1457 C1469 0.950 . S
H1458 C1466 0.950 . S
H1459 C1468 0.950 . S
H1460 C1470 0.950 . S
H1461 C1472 0.950 . S
H1462 C1474 0.950 . S
H1463 C1475 0.950 1_655 S
C1464 H1456 0.950 . S
C1464 C1465 1.386 . S
C1464 C1466 1.391 . S
C1465 C1464 1.386 . S
C1465 C1469 1.393 . S
C1466 H1458 0.950 . S
C1466 C1464 1.391 . S
C1466 C1467 1.400 . S
C1467 C1466 1.400 . S
C1467 C1468 1.398 . S
C1467 C1473 1.491 . S
C1468 H1459 0.950 . S
C1468 C1467 1.398 . S
C1468 C1469 1.391 . S
C1469 H1457 0.950 . S
C1469 C1465 1.393 . S
C1469 C1468 1.391 . S
C1470 H1460 0.950 . S
C1470 C1471 1.386 . S
C1470 C1472 1.391 . S
C1471 C1470 1.386 . S
C1471 C1475 1.393 . S
C1472 H1461 0.950 . S
C1472 C1470 1.391 . S
C1472 C1473 1.400 . S
C1473 C1467 1.491 . S
C1473 C1472 1.400 . S
C1473 C1474 1.398 . S
C1474 H1462 0.950 . S
C1474 C1473 1.398 . S
C1474 C1475 1.391 . S
C1475 H1463 0.950 1_455 S
C1475 C1471 1.393 . S
C1475 C1474 1.391 . S
H1476 C1484 0.950 . S
H1477 C1489 0.950 . S
H1478 C1486 0.950 . S
H1479 C1488 0.950 . S
H1480 C1490 0.950 . S
H1481 C1492 0.950 . S
H1482 C1494 0.950 . S
H1483 C1495 0.950 . S
C1484 H1476 0.950 . S
C1484 C1485 1.386 . S
C1484 C1486 1.391 . S
C1485 C1484 1.386 . S
C1485 C1489 1.393 . S
C1486 H1478 0.950 . S
C1486 C1484 1.391 . S
C1486 C1487 1.400 . S
C1487 C1486 1.400 . S
C1487 C1488 1.398 . S
C1487 C1493 1.491 . S
C1488 H1479 0.950 . S
C1488 C1487 1.398 . S
C1488 C1489 1.391 . S
C1489 H1477 0.950 . S
C1489 C1485 1.393 . S
C1489 C1488 1.391 . S
C1490 H1480 0.950 . S
C1490 C1491 1.386 . S
C1490 C1492 1.391 . S
C1491 C1490 1.386 . S
C1491 C1495 1.393 . S
C1492 H1481 0.950 . S
C1492 C1490 1.391 . S
C1492 C1493 1.400 . S
C1493 C1487 1.491 . S
C1493 C1492 1.400 . S
C1493 C1494 1.398 . S
C1494 H1482 0.950 . S
C1494 C1493 1.398 . S
C1494 C1495 1.391 . S
C1495 H1483 0.950 . S
C1495 C1491 1.393 . S
C1495 C1494 1.391 . S
H1496 C1504 0.950 . S
H1497 C1509 0.950 . S
H1498 C1506 0.950 . S
H1499 C1508 0.950 . S
H1500 C1510 0.950 . S
H1501 C1512 0.950 . S
H1502 C1514 0.950 . S
H1503 C1515 0.950 . S
C1504 H1496 0.950 . S
C1504 C1505 1.386 . S
C1504 C1506 1.391 . S
C1505 C1504 1.386 . S
C1505 C1509 1.393 . S
C1506 H1498 0.950 . S
C1506 C1504 1.391 . S
C1506 C1507 1.400 . S
C1507 C1506 1.400 . S
C1507 C1508 1.398 . S
C1507 C1513 1.491 . S
C1508 H1499 0.950 . S
C1508 C1507 1.398 . S
C1508 C1509 1.391 . S
C1509 H1497 0.950 . S
C1509 C1505 1.393 . S
C1509 C1508 1.391 . S
C1510 H1500 0.950 . S
C1510 C1511 1.386 1_655 S
C1510 C1512 1.391 1_655 S
C1511 C1510 1.386 1_455 S
C1511 C1515 1.393 . S
C1512 H1501 0.950 . S
C1512 C1510 1.391 1_455 S
C1512 C1513 1.400 . S
C1513 C1507 1.491 . S
C1513 C1512 1.400 . S
C1513 C1514 1.398 . S
C1514 H1502 0.950 . S
C1514 C1513 1.398 . S
C1514 C1515 1.391 . S
C1515 H1503 0.950 . S
C1515 C1511 1.393 . S
C1515 C1514 1.391 . S
H1516 C1524 0.950 . S
H1517 C1529 0.950 . S
H1518 C1526 0.950 . S
H1519 C1528 0.950 . S
H1520 C1530 0.950 . S
H1521 C1532 0.950 . S
H1522 C1534 0.950 . S
H1523 C1535 0.950 . S
C1524 H1516 0.950 . S
C1524 C1525 1.386 . S
C1524 C1526 1.391 . S
C1525 C1524 1.386 . S
C1525 C1529 1.393 . S
C1526 H1518 0.950 . S
C1526 C1524 1.391 . S
C1526 C1527 1.400 . S
C1527 C1526 1.400 . S
C1527 C1528 1.398 . S
C1527 C1533 1.491 . S
C1528 H1519 0.950 . S
C1528 C1527 1.398 . S
C1528 C1529 1.391 . S
C1529 H1517 0.950 . S
C1529 C1525 1.393 . S
C1529 C1528 1.391 . S
C1530 H1520 0.950 . S
C1530 C1531 1.386 . S
C1530 C1532 1.391 . S
C1531 C1530 1.386 . S
C1531 C1535 1.393 . S
C1532 H1521 0.950 . S
C1532 C1530 1.391 . S
C1532 C1533 1.400 . S
C1533 C1527 1.491 . S
C1533 C1532 1.400 . S
C1533 C1534 1.398 . S
C1534 H1522 0.950 . S
C1534 C1533 1.398 . S
C1534 C1535 1.391 . S
C1535 H1523 0.950 . S
C1535 C1531 1.393 . S
C1535 C1534 1.391 . S
H1536 C1544 0.950 . S
H1537 C1549 0.950 . S
H1538 C1546 0.950 . S
H1539 C1548 0.950 . S
H1540 C1550 0.950 . S
H1541 C1552 0.950 . S
H1542 C1554 0.950 . S
H1543 C1555 0.950 . S
C1544 H1536 0.950 . S
C1544 C1545 1.386 1_455 S
C1544 C1546 1.391 1_455 S
C1545 C1544 1.386 1_655 S
C1545 C1549 1.393 . S
C1546 H1538 0.950 . S
C1546 C1544 1.391 1_655 S
C1546 C1547 1.400 . S
C1547 C1546 1.400 . S
C1547 C1548 1.398 . S
C1547 C1553 1.491 . S
C1548 H1539 0.950 . S
C1548 C1547 1.398 . S
C1548 C1549 1.391 . S
C1549 H1537 0.950 . S
C1549 C1545 1.393 . S
C1549 C1548 1.391 . S
C1550 H1540 0.950 . S
C1550 C1551 1.386 . S
C1550 C1552 1.391 . S
C1551 C1550 1.386 . S
C1551 C1555 1.393 . S
C1552 H1541 0.950 . S
C1552 C1550 1.391 . S
C1552 C1553 1.400 . S
C1553 C1547 1.491 . S
C1553 C1552 1.400 . S
C1553 C1554 1.398 . S
C1554 H1542 0.950 . S
C1554 C1553 1.398 . S
C1554 C1555 1.391 . S
C1555 H1543 0.950 . S
C1555 C1551 1.393 . S
C1555 C1554 1.391 . S
H1556 C1564 0.950 . S
H1557 C1569 0.950 . S
H1558 C1566 0.950 . S
H1559 C1568 0.950 . S
H1560 C1570 0.950 . S
H1561 C1572 0.950 . S
H1562 C1574 0.950 . S
H1563 C1575 0.950 . S
C1564 H1556 0.950 . S
C1564 C1565 1.386 . S
C1564 C1566 1.391 . S
C1565 C1564 1.386 . S
C1565 C1569 1.393 . S
C1566 H1558 0.950 . S
C1566 C1564 1.391 . S
C1566 C1567 1.400 . S
C1567 C1566 1.400 . S
C1567 C1568 1.398 . S
C1567 C1573 1.491 . S
C1568 H1559 0.950 . S
C1568 C1567 1.398 . S
C1568 C1569 1.391 . S
C1569 H1557 0.950 . S
C1569 C1565 1.393 . S
C1569 C1568 1.391 . S
C1570 H1560 0.950 . S
C1570 C1571 1.386 . S
C1570 C1572 1.391 . S
C1571 C1570 1.386 . S
C1571 C1575 1.393 . S
C1572 H1561 0.950 . S
C1572 C1570 1.391 . S
C1572 C1573 1.400 . S
C1573 C1567 1.491 . S
C1573 C1572 1.400 . S
C1573 C1574 1.398 . S
C1574 H1562 0.950 . S
C1574 C1573 1.398 . S
C1574 C1575 1.391 . S
C1575 H1563 0.950 . S
C1575 C1571 1.393 . S
C1575 C1574 1.391 . S
H1576 C1584 0.948 1_455 S
H1577 C1589 0.950 . S
H1578 C1586 0.950 . S
H1579 C1588 0.950 . S
H1580 C1590 0.950 . S
H1581 C1592 0.950 . S
H1582 C1594 0.950 . S
H1583 C1595 0.950 . S
C1584 H1576 0.948 1_655 S
C1584 C1585 1.386 . S
C1584 C1586 1.392 . S
C1585 C1584 1.386 . S
C1585 C1589 1.393 . S
C1586 H1578 0.950 . S
C1586 C1584 1.392 . S
C1586 C1587 1.400 . S
C1587 C1586 1.400 . S
C1587 C1588 1.398 . S
C1587 C1593 1.491 . S
C1588 H1579 0.950 . S
C1588 C1587 1.398 . S
C1588 C1589 1.391 . S
C1589 H1577 0.950 . S
C1589 C1585 1.393 . S
C1589 C1588 1.391 . S
C1590 H1580 0.950 . S
C1590 C1591 1.386 . S
C1590 C1592 1.391 . S
C1591 C1590 1.386 . S
C1591 C1595 1.393 . S
C1592 H1581 0.950 . S
C1592 C1590 1.391 . S
C1592 C1593 1.400 . S
C1593 C1587 1.491 . S
C1593 C1592 1.400 . S
C1593 C1594 1.398 . S
C1594 H1582 0.950 . S
C1594 C1593 1.398 . S
C1594 C1595 1.391 . S
C1595 H1583 0.950 . S
C1595 C1591 1.393 . S
C1595 C1594 1.391 . S
H1596 C1604 0.950 . S
H1597 C1609 0.950 . S
H1598 C1606 0.950 . S
H1599 C1608 0.950 . S
H1600 C1610 0.950 . S
H1601 C1612 0.950 . S
H1602 C1614 0.950 . S
H1603 C1615 0.950 . S
C1604 H1596 0.950 . S
C1604 C1605 1.386 . S
C1604 C1606 1.391 . S
C1605 C1604 1.386 . S
C1605 C1609 1.393 . S
C1606 H1598 0.950 . S
C1606 C1604 1.391 . S
C1606 C1607 1.400 . S
C1607 C1606 1.400 . S
C1607 C1608 1.398 . S
C1607 C1613 1.491 . S
C1608 H1599 0.950 . S
C1608 C1607 1.398 . S
C1608 C1609 1.391 . S
C1609 H1597 0.950 . S
C1609 C1605 1.393 . S
C1609 C1608 1.391 . S
C1610 H1600 0.950 . S
C1610 C1611 1.386 . S
C1610 C1612 1.391 . S
C1611 C1610 1.386 . S
C1611 C1615 1.393 . S
C1612 H1601 0.950 . S
C1612 C1610 1.391 . S
C1612 C1613 1.400 . S
C1613 C1607 1.491 . S
C1613 C1612 1.400 . S
C1613 C1614 1.398 . S
C1614 H1602 0.950 . S
C1614 C1613 1.398 . S
C1614 C1615 1.391 . S
C1615 H1603 0.950 . S
C1615 C1611 1.393 . S
C1615 C1614 1.391 . S
H1616 C1624 0.950 . S
H1617 C1629 0.950 . S
H1618 C1626 0.950 . S
H1619 C1628 0.950 . S
H1620 C1630 0.950 . S
H1621 C1632 0.950 . S
H1622 C1634 0.950 . S
H1623 C1635 0.950 . S
C1624 H1616 0.950 . S
C1624 C1625 1.386 1_655 S
C1624 C1626 1.391 1_655 S
C1625 C1624 1.386 1_455 S
C1625 C1629 1.393 . S
C1626 H1618 0.950 . S
C1626 C1624 1.391 1_455 S
C1626 C1627 1.400 . S
C1627 C1626 1.400 . S
C1627 C1628 1.398 . S
C1627 C1633 1.491 . S
C1628 H1619 0.950 . S
C1628 C1627 1.398 . S
C1628 C1629 1.391 . S
C1629 H1617 0.950 . S
C1629 C1625 1.393 . S
C1629 C1628 1.391 . S
C1630 H1620 0.950 . S
C1630 C1631 1.386 . S
C1630 C1632 1.391 . S
C1631 C1630 1.386 . S
C1631 C1635 1.393 . S
C1632 H1621 0.950 . S
C1632 C1630 1.391 . S
C1632 C1633 1.400 . S
C1633 C1627 1.491 . S
C1633 C1632 1.400 . S
C1633 C1634 1.398 . S
C1634 H1622 0.950 . S
C1634 C1633 1.398 . S
C1634 C1635 1.391 . S
C1635 H1623 0.950 . S
C1635 C1631 1.393 . S
C1635 C1634 1.391 . S
H1636 C1644 0.950 . S
H1637 C1649 0.950 . S
H1638 C1646 0.950 . S
H1639 C1648 0.950 . S
H1640 C1650 0.950 . S
H1641 C1652 0.950 . S
H1642 C1654 0.950 . S
H1643 C1655 0.950 . S
C1644 H1636 0.950 . S
C1644 C1645 1.386 . S
C1644 C1646 1.391 . S
C1645 C1644 1.386 . S
C1645 C1649 1.393 . S
C1646 H1638 0.950 . S
C1646 C1644 1.391 . S
C1646 C1647 1.400 . S
C1647 C1646 1.400 . S
C1647 C1648 1.398 . S
C1647 C1653 1.491 . S
C1648 H1639 0.950 . S
C1648 C1647 1.398 . S
C1648 C1649 1.391 . S
C1649 H1637 0.950 . S
C1649 C1645 1.393 . S
C1649 C1648 1.391 . S
C1650 H1640 0.950 . S
C1650 C1651 1.386 . S
C1650 C1652 1.391 . S
C1651 C1650 1.386 . S
C1651 C1655 1.393 . S
C1652 H1641 0.950 . S
C1652 C1650 1.391 . S
C1652 C1653 1.400 . S
C1653 C1647 1.491 . S
C1653 C1652 1.400 . S
C1653 C1654 1.398 . S
C1654 H1642 0.950 . S
C1654 C1653 1.398 . S
C1654 C1655 1.391 . S
C1655 H1643 0.950 . S
C1655 C1651 1.393 . S
C1655 C1654 1.391 . S
H1656 C1664 0.950 . S
H1657 C1669 0.950 . S
H1658 C1666 0.950 . S
H1659 C1668 0.950 . S
H1660 C1670 0.950 . S
H1661 C1672 0.950 . S
H1662 C1674 0.950 . S
H1663 C1675 0.950 . S
C1664 H1656 0.950 . S
C1664 C1665 1.386 . S
C1664 C1666 1.391 . S
C1665 C1664 1.386 . S
C1665 C1669 1.393 1_455 S
C1666 H1658 0.950 . S
C1666 C1664 1.391 . S
C1666 C1667 1.400 . S
C1667 C1666 1.400 . S
C1667 C1668 1.398 . S
C1667 C1673 1.491 . S
C1668 H1659 0.950 . S
C1668 C1667 1.398 . S
C1668 C1669 1.391 1_455 S
C1669 H1657 0.950 . S
C1669 C1665 1.393 1_655 S
C1669 C1668 1.391 1_655 S
C1670 H1660 0.950 . S
C1670 C1671 1.386 . S
C1670 C1672 1.391 . S
C1671 C1670 1.386 . S
C1671 C1675 1.393 . S
C1672 H1661 0.950 . S
C1672 C1670 1.391 . S
C1672 C1673 1.400 . S
C1673 C1667 1.491 . S
C1673 C1672 1.400 . S
C1673 C1674 1.398 . S
C1674 H1662 0.950 . S
C1674 C1673 1.398 . S
C1674 C1675 1.391 . S
C1675 H1663 0.950 . S
C1675 C1671 1.393 . S
C1675 C1674 1.391 . S
H1676 C1684 0.950 . S
H1677 C1689 0.950 . S
H1678 C1686 0.950 . S
H1679 C1688 0.950 . S
H1680 C1690 0.950 . S
H1681 C1692 0.950 . S
H1682 C1694 0.950 . S
H1683 C1695 0.950 . S
C1684 H1676 0.950 . S
C1684 C1685 1.386 . S
C1684 C1686 1.391 . S
C1685 C1684 1.386 . S
C1685 C1689 1.393 . S
C1686 H1678 0.950 . S
C1686 C1684 1.391 . S
C1686 C1687 1.400 . S
C1687 C1686 1.400 . S
C1687 C1688 1.398 . S
C1687 C1693 1.491 . S
C1688 H1679 0.950 . S
C1688 C1687 1.398 . S
C1688 C1689 1.391 . S
C1689 H1677 0.950 . S
C1689 C1685 1.393 . S
C1689 C1688 1.391 . S
C1690 H1680 0.950 . S
C1690 C1691 1.386 . S
C1690 C1692 1.391 . S
C1691 C1690 1.386 . S
C1691 C1695 1.393 . S
C1692 H1681 0.950 . S
C1692 C1690 1.391 . S
C1692 C1693 1.400 . S
C1693 C1687 1.491 . S
C1693 C1692 1.400 . S
C1693 C1694 1.398 . S
C1694 H1682 0.950 . S
C1694 C1693 1.398 . S
C1694 C1695 1.391 . S
C1695 H1683 0.950 . S
C1695 C1691 1.393 . S
C1695 C1694 1.391 . S
C425 C42 1.376 . S
C431 C3 1.372 . S
C445 C31 1.375 . S
C451 C16 1.370 . S
C465 C94 1.374 . S
C471 C57 1.369 . S
C485 C81 1.368 . S
C491 C68 1.372 . S
C505 C109 1.373 . S
C511 C146 1.369 . S
C525 C120 1.375 . S
C531 C135 1.377 . S
C545 C198 1.376 . S
C551 C161 1.376 . S
C565 C174 1.373 . S
C571 C185 1.377 . S
C585 C211 1.375 . S
C591 C250 1.370 . S
C605 C224 1.374 . S
C611 C239 1.369 . S
C625 C302 1.372 . S
C631 C263 1.376 . S
C645 C289 1.369 . S
C651 C278 1.373 . S
C665 C354 1.368 . S
C671 C315 1.372 . S
C685 C328 1.376 . S
C691 C341 1.372 . S
C705 C367 1.375 . S
C711 C408 1.377 . S
C725 C382 1.371 . S
C731 C393 1.376 . S
C745 C265 1.334 . S
C751 C5 1.334 . S
C765 C172 1.344 . S
C771 C18 1.344 . S
C785 C29 1.339 . S
C791 C395 1.339 . S
C805 C44 1.339 . S
C811 C96 1.339 . S
C825 C213 1.343 . S
C831 C55 1.343 . S
C845 C122 1.324 . S
C851 C70 1.324 . S
C865 C343 1.338 . S
C871 C83 1.338 . S
C885 C107 1.340 . S
C891 C369 1.340 . S
C905 C291 1.322 . S
C911 C133 1.322 . S
C925 C200 1.342 . S
C931 C148 1.342 . S
C945 C317 1.337 . S
C951 C159 1.337 . S
C965 C187 1.324 . S
C971 C237 1.324 . S
C985 C380 1.333 . S
C991 C226 1.333 . S
C1005 C252 1.339 . S
C1011 C304 1.339 . S
C1025 C330 1.328 . S
C1031 C276 1.328 . S
C1045 C406 1.344 . S
C1051 C356 1.344 . S
C1065 C17 1.399 . S
C1071 C4 1.404 . S
C1085 C36 1.411 . S
C1091 C43 1.416 . S
C1105 C62 1.411 . S
C1111 C69 1.402 . S
C1125 C95 1.406 . S
C1131 C82 1.414 . S
C1145 C114 1.410 . S
C1151 C121 1.416 . S
C1165 C140 1.400 . S
C1171 C147 1.400 . S
C1185 C179 1.408 . S
C1191 C166 1.400 . S
C1205 C186 1.411 . S
C1211 C199 1.402 . S
C1225 C212 1.413 . S
C1231 C225 1.416 . S
C1245 C244 1.412 . S
C1251 C251 1.403 . S
C1265 C264 1.414 . S
C1271 C283 1.406 . S
C1285 C303 1.416 . S
C1291 C290 1.409 . S
C1305 C329 1.407 . S
C1311 C316 1.400 . S
C1325 C342 1.405 . S
C1331 C355 1.414 . S
C1345 C368 1.415 . S
C1351 C387 1.408 . S
C1365 C413 1.401 . S
C1371 C394 1.399 . S
C1385 C10 1.514 1_655 S
C1391 C257 1.518 . S
C1405 C23 1.516 . S
C1411 C238 1.517 . S
C1425 C231 1.515 . S
C1431 C30 1.517 1_655 S
C1445 C49 1.516 . S
C1451 C218 1.515 . S
C1465 C309 1.516 . S
C1471 C56 1.517 1_455 S
C1485 C75 1.515 . S
C1491 C296 1.517 . S
C1505 C277 1.518 . S
C1511 C88 1.514 1_455 S
C1525 C101 1.515 . S
C1531 C270 1.518 . S
C1545 C108 1.514 1_655 S
C1551 C361 1.518 . S
C1565 C127 1.517 . S
C1571 C348 1.515 . S
C1585 C134 1.514 1_655 S
C1591 C335 1.518 . S
C1605 C322 1.517 . S
C1611 C153 1.515 . S
C1625 C160 1.518 1_455 S
C1631 C407 1.514 . S
C1645 C173 1.515 . S
C1651 C400 1.517 . S
C1665 C192 1.514 1_455 S
C1671 C381 1.518 . S
C1685 C374 1.515 . S
C1691 C205 1.517 . S
