# Generated by pormake.
# Topology upc, (4)-cn, num edge types: 1
# Building blocks:
#     Node 0, Type 0, BuildingBlock: NAWXER_clean_sbu_0, # of connection points: 4
#     Node 1, Type 0, BuildingBlock: NAWXER_clean_sbu_0, # of connection points: 4
#     Node 2, Type 0, BuildingBlock: NAWXER_clean_sbu_0, # of connection points: 4
#     Node 3, Type 0, BuildingBlock: NAWXER_clean_sbu_0, # of connection points: 4
#     Node 4, Type 0, BuildingBlock: NAWXER_clean_sbu_0, # of connection points: 4
#     Node 5, Type 0, BuildingBlock: NAWXER_clean_sbu_0, # of connection points: 4
#     Node 6, Type 0, BuildingBlock: NAWXER_clean_sbu_0, # of connection points: 4
#     Node 7, Type 0, BuildingBlock: NAWXER_clean_sbu_0, # of connection points: 4
#     Node 8, Type 0, BuildingBlock: NAWXER_clean_sbu_0, # of connection points: 4
#     Node 9, Type 0, BuildingBlock: NAWXER_clean_sbu_0, # of connection points: 4
#     Node 10, Type 0, BuildingBlock: NAWXER_clean_sbu_0, # of connection points: 4
#     Node 11, Type 0, BuildingBlock: NAWXER_clean_sbu_0, # of connection points: 4
#     Node 12, Type 0, BuildingBlock: NAWXER_clean_sbu_0, # of connection points: 4
#     Node 13, Type 0, BuildingBlock: NAWXER_clean_sbu_0, # of connection points: 4
#     Node 14, Type 0, BuildingBlock: NAWXER_clean_sbu_0, # of connection points: 4
#     Node 15, Type 0, BuildingBlock: NAWXER_clean_sbu_0, # of connection points: 4
#     Edge 16, Type (0, 0), BuildingBlock: CIFDUS_clean_linker_0, # of connection points: 2
#     Edge 17, Type (0, 0), BuildingBlock: CIFDUS_clean_linker_0, # of connection points: 2
#     Edge 18, Type (0, 0), BuildingBlock: CIFDUS_clean_linker_0, # of connection points: 2
#     Edge 19, Type (0, 0), BuildingBlock: CIFDUS_clean_linker_0, # of connection points: 2
#     Edge 20, Type (0, 0), BuildingBlock: CIFDUS_clean_linker_0, # of connection points: 2
#     Edge 21, Type (0, 0), BuildingBlock: CIFDUS_clean_linker_0, # of connection points: 2
#     Edge 22, Type (0, 0), BuildingBlock: CIFDUS_clean_linker_0, # of connection points: 2
#     Edge 23, Type (0, 0), BuildingBlock: CIFDUS_clean_linker_0, # of connection points: 2
#     Edge 24, Type (0, 0), BuildingBlock: CIFDUS_clean_linker_0, # of connection points: 2
#     Edge 25, Type (0, 0), BuildingBlock: CIFDUS_clean_linker_0, # of connection points: 2
#     Edge 26, Type (0, 0), BuildingBlock: CIFDUS_clean_linker_0, # of connection points: 2
#     Edge 27, Type (0, 0), BuildingBlock: CIFDUS_clean_linker_0, # of connection points: 2
#     Edge 28, Type (0, 0), BuildingBlock: CIFDUS_clean_linker_0, # of connection points: 2
#     Edge 29, Type (0, 0), BuildingBlock: CIFDUS_clean_linker_0, # of connection points: 2
#     Edge 30, Type (0, 0), BuildingBlock: CIFDUS_clean_linker_0, # of connection points: 2
#     Edge 31, Type (0, 0), BuildingBlock: CIFDUS_clean_linker_0, # of connection points: 2
#     Edge 32, Type (0, 0), BuildingBlock: CIFDUS_clean_linker_0, # of connection points: 2
#     Edge 33, Type (0, 0), BuildingBlock: CIFDUS_clean_linker_0, # of connection points: 2
#     Edge 34, Type (0, 0), BuildingBlock: CIFDUS_clean_linker_0, # of connection points: 2
#     Edge 35, Type (0, 0), BuildingBlock: CIFDUS_clean_linker_0, # of connection points: 2
#     Edge 36, Type (0, 0), BuildingBlock: CIFDUS_clean_linker_0, # of connection points: 2
#     Edge 37, Type (0, 0), BuildingBlock: CIFDUS_clean_linker_0, # of connection points: 2
#     Edge 38, Type (0, 0), BuildingBlock: CIFDUS_clean_linker_0, # of connection points: 2
#     Edge 39, Type (0, 0), BuildingBlock: CIFDUS_clean_linker_0, # of connection points: 2
#     Edge 40, Type (0, 0), BuildingBlock: CIFDUS_clean_linker_0, # of connection points: 2
#     Edge 41, Type (0, 0), BuildingBlock: CIFDUS_clean_linker_0, # of connection points: 2
#     Edge 42, Type (0, 0), BuildingBlock: CIFDUS_clean_linker_0, # of connection points: 2
#     Edge 43, Type (0, 0), BuildingBlock: CIFDUS_clean_linker_0, # of connection points: 2
#     Edge 44, Type (0, 0), BuildingBlock: CIFDUS_clean_linker_0, # of connection points: 2
#     Edge 45, Type (0, 0), BuildingBlock: CIFDUS_clean_linker_0, # of connection points: 2
#     Edge 46, Type (0, 0), BuildingBlock: CIFDUS_clean_linker_0, # of connection points: 2
#     Edge 47, Type (0, 0), BuildingBlock: CIFDUS_clean_linker_0, # of connection points: 2
# Relax obj value: 0.229
# Max RMSD: 0.220
# Mean RMSD: 0.220
data_MOF--net-upc--node1-NAWXER_clean_sbu_0--edge1-CIFDUS_clean_linker_0
_symmetry_space_group_name_H-M    P1
_symmetry_Int_Tables_number       1
_symmetry_cell_setting            triclinic
loop_
_symmetry_equiv_pos_as_xyz
'x, y, z'
_cell_length_a     30.841378
_cell_length_b     30.711894
_cell_length_c     37.460129
_cell_angle_alpha  90.045099
_cell_angle_beta   89.950294
_cell_angle_gamma 89.558139
loop_
_atom_site_label
_atom_site_type_symbol
_atom_site_fract_x
_atom_site_fract_y
_atom_site_fract_z
_atom_type_partial_charge
C0 C 0.0887 0.56474 0.16461 0.0
C1 C 0.17708 0.66092 0.08995 0.0
O2 O 0.06572 0.5917 0.14636 0.0
Zn3 Zn 0.07634 0.63973 0.10491 0.0
O4 O 0.12922 0.5619 0.15863 0.0
Zn5 Zn 0.13253 0.60722 0.12235 0.0
O6 O 0.11162 0.66418 0.15229 0.0
O7 O 0.05071 0.68876 0.12754 0.0
O8 O 0.18916 0.62645 0.10602 0.0
O9 O 0.13637 0.66905 0.08685 0.0
O10 O 0.04642 0.61925 0.06385 0.0
O11 O 0.10256 0.57765 0.07699 0.0
C12 C 0.08027 0.69191 0.15099 0.0
C13 C 0.06938 0.58583 0.05743 0.0
C14 C 0.94565 0.08157 0.04521 0.0
C15 C 0.86314 0.10683 0.15071 0.0
O16 O 0.96418 0.11111 0.06402 0.0
Zn17 Zn 0.94625 0.14802 0.11141 0.0
O18 O 0.90853 0.06817 0.05403 0.0
Zn19 Zn 0.90241 0.09948 0.097 0.0
O20 O 0.87971 0.16267 0.08317 0.0
O21 O 0.93143 0.20823 0.09704 0.0
O22 O 0.85549 0.08131 0.12484 0.0
O23 O 0.89502 0.13342 0.14945 0.0
O24 O 0.99549 0.13675 0.14308 0.0
O25 O 0.95548 0.07905 0.13181 0.0
C26 C 0.89351 0.20174 0.08495 0.0
C27 C 0.98763 0.09653 0.14812 0.0
C28 C 0.4318 0.85109 0.13641 0.0
C29 C 0.42771 0.95399 0.04154 0.0
O30 O 0.39972 0.87755 0.14089 0.0
Zn31 Zn 0.37019 0.93041 0.10955 0.0
O32 O 0.45416 0.85162 0.10796 0.0
Zn33 Zn 0.42323 0.89839 0.08772 0.0
O34 O 0.43732 0.94918 0.12786 0.0
O35 O 0.37388 0.97643 0.14459 0.0
O36 O 0.44778 0.91814 0.04431 0.0
O37 O 0.39718 0.96301 0.06368 0.0
O38 O 0.31262 0.90872 0.09764 0.0
O39 O 0.36345 0.86547 0.07659 0.0
C40 C 0.41499 0.97552 0.14747 0.0
C41 C 0.32323 0.8733 0.08239 0.0
C42 C 0.61981 0.47482 0.03642 0.0
C43 C 0.71407 0.47123 0.13746 0.0
O44 O 0.60869 0.44427 0.05773 0.0
Zn45 Zn 0.63542 0.4152 0.10459 0.0
O46 O 0.65487 0.49488 0.04177 0.0
Zn47 Zn 0.67074 0.46829 0.08604 0.0
O48 O 0.70205 0.40672 0.0746 0.0
O49 O 0.65592 0.35706 0.09225 0.0
O50 O 0.71706 0.49572 0.11026 0.0
O51 O 0.6863 0.44032 0.13875 0.0
O52 O 0.58726 0.42039 0.13736 0.0
O53 O 0.61789 0.48325 0.12424 0.0
C54 C 0.69243 0.36654 0.07882 0.0
C55 C 0.58961 0.46138 0.14192 0.0
C56 C 0.11937 0.98786 0.31037 0.0
C57 C 0.2115 0.88417 0.37576 0.0
O58 O 0.09807 0.95557 0.32307 0.0
Zn59 Zn 0.11131 0.89961 0.35745 0.0
O60 O 0.15857 0.99327 0.31989 0.0
Zn61 Zn 0.16294 0.94105 0.34927 0.0
O62 O 0.15067 0.89169 0.30792 0.0
O63 O 0.09215 0.85658 0.32642 0.0
O64 O 0.22 0.92319 0.36712 0.0
O65 O 0.17218 0.87128 0.37383 0.0
O66 O 0.07579 0.90476 0.39828 0.0
O67 O 0.12267 0.95819 0.39498 0.0
C68 C 0.12152 0.86252 0.30322 0.0
C69 C 0.09024 0.94012 0.41044 0.0
C70 C 0.59849 0.06859 0.40452 0.0
C71 C 0.68575 0.08881 0.30073 0.0
O72 O 0.58277 0.09923 0.38505 0.0
Zn73 Zn 0.6023 0.13317 0.33774 0.0
O74 O 0.63482 0.05176 0.39663 0.0
Zn75 Zn 0.64465 0.08262 0.35354 0.0
O76 O 0.66769 0.14563 0.36791 0.0
O77 O 0.61737 0.19268 0.35195 0.0
O78 O 0.69272 0.06301 0.3266 0.0
O79 O 0.65422 0.11625 0.3014 0.0
O80 O 0.55337 0.12284 0.30593 0.0
O81 O 0.59239 0.06399 0.31766 0.0
C82 C 0.65449 0.1851 0.36541 0.0
C83 C 0.56073 0.08238 0.30107 0.0
C84 C 0.49629 0.62245 0.41001 0.0
C85 C 0.47796 0.72365 0.31346 0.0
O86 O 0.46646 0.60966 0.38869 0.0
Zn87 Zn 0.43364 0.63593 0.34312 0.0
O88 O 0.51267 0.65976 0.40583 0.0
Zn89 Zn 0.48327 0.67592 0.36278 0.0
O90 O 0.41944 0.69888 0.37696 0.0
O91 O 0.37398 0.64992 0.35696 0.0
O92 O 0.50347 0.7275 0.3399 0.0
O93 O 0.45108 0.69205 0.31162 0.0
O94 O 0.44406 0.59101 0.30751 0.0
O95 O 0.50276 0.62743 0.32257 0.0
C96 C 0.38037 0.68613 0.37245 0.0
C97 C 0.48439 0.59806 0.3034 0.0
C98 C 0.91599 0.46367 0.42537 0.0
C99 C 0.8213 0.46022 0.32544 0.0
O100 O 0.92989 0.43567 0.40257 0.0
Zn101 Zn 0.904 0.4063 0.35523 0.0
O102 O 0.87831 0.4796 0.42201 0.0
Zn103 Zn 0.86478 0.45531 0.3767 0.0
O104 O 0.83808 0.39191 0.38486 0.0
O105 O 0.88758 0.34613 0.36526 0.0
O106 O 0.81671 0.48198 0.35406 0.0
O107 O 0.8512 0.4311 0.32232 0.0
O108 O 0.95106 0.4165 0.32201 0.0
O109 O 0.91653 0.47618 0.33955 0.0
C110 C 0.85037 0.35271 0.37883 0.0
C111 C 0.94599 0.45765 0.32028 0.0
C112 C 0.96156 0.32999 0.81422 0.0
C113 C 0.96451 0.43942 0.90523 0.0
O114 O 0.98863 0.3335 0.83959 0.0
Zn115 Zn 0.96108 0.38353 0.85914 0.0
O116 O 0.93079 0.35797 0.81013 0.0
Zn117 Zn 0.90714 0.41623 0.83695 0.0
O118 O 0.91571 0.45954 0.79875 0.0
O119 O 0.97649 0.42911 0.8174 0.0
O120 O 0.93338 0.44776 0.8835 0.0
O121 O 0.98682 0.40506 0.90115 0.0
O122 O 0.89976 0.35521 0.87343 0.0
O123 O 0.84857 0.39636 0.84987 0.0
C124 C 0.9567 0.45524 0.79615 0.0
C125 C 0.85945 0.36245 0.86733 0.0
C126 C 0.06095 0.93098 0.8124 0.0
C127 C 0.15495 0.82729 0.87719 0.0
O128 O 0.05336 0.89077 0.81767 0.0
Zn129 Zn 0.10191 0.88026 0.85059 0.0
O130 O 0.09257 0.94887 0.82906 0.0
Zn131 Zn 0.14497 0.92961 0.86465 0.0
O132 O 0.19139 0.94883 0.83679 0.0
O133 O 0.15474 0.89359 0.81367 0.0
O134 O 0.16865 0.86645 0.8787 0.0
O135 O 0.11676 0.82055 0.86575 0.0
O136 O 0.08294 0.91771 0.89745 0.0
O137 O 0.13813 0.96124 0.90731 0.0
C138 C 0.18579 0.92112 0.81209 0.0
C139 C 0.10109 0.94766 0.91608 0.0
C140 C 0.55651 0.21652 0.81802 0.0
C141 C 0.55726 0.11423 0.9139 0.0
O142 O 0.5327 0.2173 0.84571 0.0
Zn143 Zn 0.56215 0.16957 0.86742 0.0
O144 O 0.58792 0.18909 0.81487 0.0
Zn145 Zn 0.61564 0.13591 0.84579 0.0
O146 O 0.60944 0.09009 0.80976 0.0
O147 O 0.54751 0.11929 0.82784 0.0
O148 O 0.5879 0.10484 0.89192 0.0
O149 O 0.5372 0.15009 0.91079 0.0
O150 O 0.62226 0.20109 0.87854 0.0
O151 O 0.67368 0.1583 0.85769 0.0
C152 C 0.56826 0.09256 0.80748 0.0
C153 C 0.66257 0.19379 0.87273 0.0
C154 C 0.32077 0.55595 0.81739 0.0
C155 C 0.42517 0.54993 0.91128 0.0
O156 O 0.3201 0.53173 0.84483 0.0
Zn157 Zn 0.3704 0.55713 0.86475 0.0
O158 O 0.35 0.58506 0.81321 0.0
Zn159 Zn 0.40596 0.60816 0.8427 0.0
O160 O 0.45013 0.59934 0.80641 0.0
O161 O 0.4184 0.53867 0.82366 0.0
O162 O 0.43585 0.57945 0.88881 0.0
O163 O 0.38907 0.5311 0.90806 0.0
O164 O 0.34347 0.62019 0.87735 0.0
O165 O 0.38899 0.66766 0.85509 0.0
C166 C 0.44568 0.55833 0.80335 0.0
C167 C 0.35384 0.65985 0.8715 0.0
C168 C 0.96249 0.08921 0.54961 0.0
C169 C 0.92947 0.1638 0.65803 0.0
O170 O 0.97748 0.12388 0.56267 0.0
Zn171 Zn 0.9411 0.12851 0.6031 0.0
O172 O 0.9294 0.07133 0.56426 0.0
Zn173 Zn 0.88841 0.08738 0.60971 0.0
O174 O 0.83182 0.10733 0.59154 0.0
O175 O 0.88117 0.15802 0.58619 0.0
O176 O 0.9003 0.1351 0.65195 0.0
O177 O 0.95969 0.17041 0.63568 0.0
O178 O 0.95289 0.07165 0.63652 0.0
O179 O 0.89211 0.03432 0.63856 0.0
C180 C 0.84153 0.14631 0.58359 0.0
C181 C 0.9312 0.03931 0.64862 0.0
C182 C 0.46358 0.95593 0.64675 0.0
C183 C 0.35618 0.87014 0.58017 0.0
O184 O 0.46613 0.91545 0.63959 0.0
Zn185 Zn 0.4158 0.91317 0.60767 0.0
O186 O 0.43426 0.97922 0.63149 0.0
Zn187 Zn 0.38023 0.97007 0.59552 0.0
O188 O 0.33633 0.99493 0.62445 0.0
O189 O 0.36531 0.93316 0.64463 0.0
O190 O 0.34841 0.91118 0.57946 0.0
O191 O 0.39273 0.85684 0.59175 0.0
O192 O 0.43817 0.94698 0.561 0.0
O193 O 0.39243 1.0017 0.55357 0.0
C194 C 0.33806 0.96478 0.64762 0.0
C195 C 0.42556 0.98061 0.54341 0.0
C196 C 0.57374 0.33284 0.63453 0.0
C197 C 0.57895 0.42989 0.53528 0.0
O198 O 0.55206 0.33109 0.60577 0.0
Zn199 Zn 0.58216 0.37752 0.58435 0.0
O200 O 0.60493 0.36001 0.63827 0.0
Zn201 Zn 0.63353 0.41171 0.6059 0.0
O202 O 0.62706 0.45915 0.63941 0.0
O203 O 0.56497 0.42974 0.62301 0.0
O204 O 0.60782 0.44096 0.5581 0.0
O205 O 0.55913 0.39439 0.53936 0.0
O206 O 0.64361 0.3451 0.57536 0.0
O207 O 0.69214 0.39035 0.59607 0.0
C208 C 0.58599 0.45724 0.64222 0.0
C209 C 0.68338 0.35408 0.58163 0.0
C210 C 0.19671 0.56985 0.63656 0.0
C211 C 0.1049 0.57386 0.53506 0.0
O212 O 0.19797 0.54609 0.60884 0.0
Zn213 Zn 0.15451 0.5777 0.58497 0.0
O214 O 0.1711 0.60304 0.63846 0.0
Zn215 Zn 0.12234 0.63291 0.60357 0.0
O216 O 0.07326 0.63131 0.63594 0.0
O217 O 0.09976 0.5664 0.62193 0.0
O218 O 0.09375 0.60468 0.55641 0.0
O219 O 0.1397 0.55301 0.54049 0.0
O220 O 0.18979 0.63596 0.57442 0.0
O221 O 0.14754 0.68981 0.59144 0.0
C222 C 0.07256 0.59009 0.63958 0.0
C223 C 0.18346 0.67687 0.57848 0.0
H224 H 0.16228 0.74756 0.08021 0.0
H225 H 0.26458 0.65096 0.07947 0.0
H226 H 0.3186 0.70834 0.0727 0.0
H227 H 0.33722 0.78623 0.07321 0.0
H228 H 0.23501 0.88273 0.07875 0.0
H229 H 0.18064 0.82523 0.07709 0.0
C230 C 0.19632 0.73891 0.07779 0.0
C231 C 0.20927 0.69483 0.08021 0.0
C232 C 0.22732 0.77222 0.07512 0.0
C233 C 0.25364 0.68449 0.07764 0.0
C234 C 0.28458 0.71736 0.07391 0.0
C235 C 0.30304 0.79478 0.07333 0.0
C236 C 0.2903 0.83891 0.07604 0.0
C237 C 0.27189 0.7614 0.0735 0.0
C238 C 0.2458 0.84917 0.07669 0.0
C239 C 0.21466 0.81624 0.07584 0.0
H240 H 0.80749 0.19637 0.0702 0.0
H241 H 0.90995 0.28983 0.08381 0.0
H242 H 0.85698 0.34945 0.07917 0.0
H243 H 0.78058 0.37466 0.07678 0.0
H244 H 0.6785 0.28003 0.06748 0.0
H245 H 0.73233 0.22136 0.06464 0.0
C246 C 0.81854 0.22976 0.07163 0.0
C247 C 0.86287 0.23843 0.0774 0.0
C248 C 0.78778 0.26376 0.06995 0.0
C249 C 0.87619 0.28206 0.07938 0.0
C250 C 0.84582 0.3162 0.07685 0.0
C251 C 0.77015 0.34126 0.07345 0.0
C252 C 0.72542 0.33182 0.07227 0.0
C253 C 0.80138 0.30742 0.07291 0.0
C254 C 0.71257 0.28826 0.0685 0.0
C255 C 0.74338 0.25466 0.06695 0.0
H256 H 0.20616 0.79555 0.37829 0.0
H257 H 0.29723 0.90073 0.38908 0.0
H258 H 0.35698 0.84818 0.39313 0.0
H259 H 0.38411 0.77289 0.38775 0.0
H260 H 0.29341 0.66804 0.37332 0.0
H261 H 0.23294 0.71983 0.37697 0.0
C262 C 0.23898 0.80707 0.38217 0.0
C263 C 0.24703 0.85225 0.38332 0.0
C264 C 0.2734 0.77662 0.38357 0.0
C265 C 0.28994 0.86631 0.38803 0.0
C266 C 0.32421 0.83621 0.39026 0.0
C267 C 0.3511 0.76114 0.38608 0.0
C268 C 0.34349 0.71641 0.38025 0.0
C269 C 0.31645 0.79133 0.38722 0.0
C270 C 0.30038 0.70212 0.37779 0.0
C271 C 0.26572 0.73182 0.37974 0.0
H272 H 0.76236 0.35807 0.38376 0.0
H273 H 0.86814 0.26531 0.38203 0.0
H274 H 0.81644 0.20531 0.3813 0.0
H275 H 0.74158 0.17941 0.37608 0.0
H276 H 0.63582 0.27217 0.37334 0.0
H277 H 0.68709 0.33189 0.38114 0.0
C278 C 0.77417 0.32472 0.38387 0.0
C279 C 0.81922 0.31628 0.38308 0.0
C280 C 0.74419 0.29036 0.38234 0.0
C281 C 0.83377 0.2728 0.38268 0.0
C282 C 0.80417 0.23846 0.38215 0.0
C283 C 0.72955 0.21262 0.37774 0.0
C284 C 0.68472 0.22117 0.37418 0.0
C285 C 0.75934 0.24687 0.38124 0.0
C286 C 0.67001 0.26456 0.37598 0.0
C287 C 0.69938 0.29875 0.38037 0.0
H288 H 0.77055 0.36837 0.87348 0.0
H289 H 0.87698 0.27647 0.87706 0.0
H290 H 0.82635 0.21623 0.88071 0.0
H291 H 0.7514 0.18858 0.87816 0.0
H292 H 0.64487 0.28044 0.87837 0.0
H293 H 0.69552 0.34094 0.87838 0.0
C294 C 0.78262 0.33522 0.87562 0.0
C295 C 0.82764 0.32725 0.87487 0.0
C296 C 0.75316 0.30031 0.87821 0.0
C297 C 0.8426 0.2839 0.87781 0.0
C298 C 0.81359 0.24918 0.87967 0.0
C299 C 0.7393 0.22182 0.87875 0.0
C300 C 0.69427 0.22968 0.87808 0.0
C301 C 0.76875 0.25685 0.87922 0.0
C302 C 0.67928 0.27314 0.87905 0.0
C303 C 0.70829 0.30797 0.87882 0.0
H304 H 0.2665 0.65354 0.88157 0.0
H305 H 0.37033 0.74682 0.87819 0.0
H306 H 0.31779 0.80646 0.88381 0.0
H307 H 0.24245 0.83232 0.88425 0.0
H308 H 0.13794 0.7397 0.88292 0.0
H309 H 0.19063 0.67964 0.88498 0.0
C310 C 0.27773 0.68688 0.88273 0.0
C311 C 0.32247 0.69562 0.87958 0.0
C312 C 0.24713 0.72117 0.88487 0.0
C313 C 0.33624 0.73911 0.88056 0.0
C314 C 0.30615 0.77325 0.8837 0.0
C315 C 0.23099 0.79904 0.88504 0.0
C316 C 0.18606 0.79069 0.8835 0.0
C317 C 0.26149 0.76471 0.88509 0.0
C318 C 0.17216 0.74721 0.88413 0.0
C319 C 0.20235 0.71282 0.88517 0.0
H320 H 0.6742 0.26645 0.57066 0.0
H321 H 0.77106 0.36637 0.58067 0.0
H322 H 0.82839 0.31112 0.57858 0.0
H323 H 0.85098 0.23432 0.57898 0.0
H324 H 0.7544 0.13372 0.57231 0.0
H325 H 0.69729 0.18923 0.56767 0.0
C326 C 0.70787 0.27624 0.5718 0.0
C327 C 0.71815 0.32073 0.57583 0.0
C328 C 0.74084 0.24405 0.57143 0.0
C329 C 0.76206 0.33255 0.57763 0.0
C330 C 0.79494 0.30089 0.57651 0.0
C331 C 0.81752 0.22436 0.57595 0.0
C332 C 0.80721 0.17964 0.57601 0.0
C333 C 0.78471 0.2565 0.57416 0.0
C334 C 0.76348 0.16772 0.57234 0.0
C335 C 0.73072 0.19953 0.56981 0.0
H336 H 0.18035 0.76595 0.57258 0.0
H337 H 0.26929 0.65683 0.57151 0.0
H338 H 0.33068 0.7063 0.56958 0.0
H339 H 0.35975 0.78094 0.57321 0.0
H340 H 0.27055 0.88993 0.57173 0.0
H341 H 0.20939 0.84045 0.56924 0.0
C342 C 0.21313 0.75299 0.57146 0.0
C343 C 0.21994 0.70763 0.57247 0.0
C344 C 0.2486 0.78173 0.57006 0.0
C345 C 0.26281 0.69154 0.57073 0.0
C346 C 0.29813 0.71986 0.56978 0.0
C347 C 0.32698 0.79388 0.57178 0.0
C348 C 0.32009 0.83926 0.57293 0.0
C349 C 0.29152 0.76509 0.57016 0.0
C350 C 0.27719 0.85526 0.57087 0.0
C351 C 0.24195 0.82692 0.56963 0.0
H352 H 0.02066 0.43558 0.28416 0.0
H353 H 0.92539 0.5384 0.29557 0.0
H354 H 0.96036 0.57961 0.24824 0.0
H355 H 1.01674 0.58616 0.20243 0.0
H356 H 0.11498 0.48627 0.19253 0.0
H357 H 0.08021 0.44433 0.24019 0.0
C358 C 1.00777 0.46714 0.27645 0.0
C359 C 0.97034 0.48374 0.29354 0.0
C360 C 0.02841 0.49114 0.24923 0.0
C361 C 0.95425 0.52483 0.28322 0.0
C362 C 0.9741 0.54841 0.25592 0.0
C363 C 0.03048 0.55511 0.21059 0.0
C364 C 0.06811 0.53912 0.19361 0.0
C365 C 1.01093 0.53176 0.23853 0.0
C366 C 0.08596 0.49925 0.20505 0.0
C367 C 0.06606 0.47527 0.23231 0.0
H368 H 0.05503 0.12177 0.19193 0.0
H369 H 0.97344 1.01229 0.16653 0.0
H370 H 1.00555 0.97062 0.2149 0.0
H371 H 0.05514 0.96495 0.26536 0.0
H372 H 0.14024 0.0714 0.29027 0.0
H373 H 0.10833 0.11442 0.24152 0.0
C374 C 0.04461 0.08866 0.19675 0.0
C375 C 1.01161 0.07048 0.17543 0.0
C376 C 0.06348 0.06436 0.22489 0.0
C377 C 0.99865 0.02741 0.18226 0.0
C378 C 1.01688 1.00343 0.21014 0.0
C379 C 0.06653 0.99774 0.26039 0.0
C380 C 0.09955 1.01518 0.28185 0.0
C381 C 0.04888 0.02169 0.23186 0.0
C382 C 0.1146 0.05732 0.27437 0.0
C383 C 0.09642 0.08186 0.24641 0.0
H384 H 0.48501 0.10449 0.26632 0.0
H385 H 0.58229 1.00302 0.27404 0.0
H386 H 0.54698 0.96246 0.22667 0.0
H387 H 0.48929 0.95557 0.18227 0.0
H388 H 0.38896 0.05372 0.17598 0.0
H389 H 0.42461 0.09571 0.22318 0.0
C390 C 0.4983 0.0734 0.25775 0.0
C391 C 0.53636 0.05701 0.27389 0.0
C392 C 0.47749 0.04971 0.23044 0.0
C393 C 0.55297 1.01651 0.26243 0.0
C394 C 0.53293 0.99325 0.2351 0.0
C395 C 0.47541 0.98636 0.191 0.0
C396 C 0.4369 1.00184 0.17527 0.0
C397 C 0.4954 1.00963 0.21874 0.0
C398 C 0.41875 0.04125 0.18752 0.0
C399 C 0.4391 0.06521 0.21455 0.0
H400 H 0.6109 0.5323 0.18114 0.0
H401 H 0.50967 0.43789 0.1669 0.0
H402 H 0.46805 0.47138 0.21563 0.0
H403 H 0.46076 0.52749 0.26284 0.0
H404 H 0.56472 0.61883 0.2787 0.0
H405 H 0.60487 0.58635 0.22927 0.0
C406 C 0.57948 0.51937 0.18842 0.0
C407 C 0.56311 0.48305 0.17003 0.0
C408 C 0.55636 0.53799 0.21713 0.0
C409 C 0.52286 0.46601 0.18044 0.0
C410 C 0.49911 0.48509 0.20839 0.0
C411 C 0.49228 0.54016 0.25558 0.0
C412 C 0.50954 0.57566 0.27466 0.0
C413 C 0.51562 0.52101 0.22709 0.0
C414 C 0.55057 0.59146 0.26481 0.0
C415 C 0.57357 0.57304 0.23632 0.0
H416 H 0.08698 0.5152 0.67573 0.0
H417 H 0.99412 0.61991 0.66503 0.0
H418 H 0.94893 0.58732 0.71175 0.0
H419 H 0.93663 0.52905 0.75693 0.0
H420 H 0.03372 0.42816 0.7693 0.0
H421 H 0.0761 0.45919 0.72106 0.0
C422 C 0.0566 0.53068 0.68331 0.0
C423 C 0.0437 0.56963 0.66654 0.0
C424 C 0.03157 0.51253 0.71088 0.0
C425 C 1.00471 0.58977 0.67736 0.0
C426 C 0.97889 0.57115 0.70414 0.0
C427 C 0.96705 0.51395 0.74902 0.0
C428 C 0.98185 0.47629 0.76696 0.0
C429 C 0.9921 0.53258 0.72134 0.0
C430 C 0.02155 0.45733 0.75638 0.0
C431 C 0.04587 0.47494 0.72857 0.0
H432 H 0.99419 0.90525 0.76778 0.0
H433 H 0.07504 1.0151 0.79381 0.0
H434 H 0.04345 0.05656 0.74516 0.0
H435 H 0.99458 0.06208 0.69437 0.0
H436 H 0.90995 0.95557 0.66859 0.0
H437 H 0.94135 0.91255 0.71763 0.0
C438 C 1.00457 0.93838 0.76302 0.0
C439 C 0.03725 0.95671 0.78465 0.0
C440 C 0.98594 0.96264 0.73469 0.0
C441 C 0.05012 0.99983 0.77787 0.0
C442 C 0.03216 0.02371 0.74983 0.0
C443 C 0.98316 0.02928 0.69918 0.0
C444 C 0.95045 1.01183 0.67737 0.0
C445 C 1.00049 1.00535 0.72785 0.0
C446 C 0.93536 0.96968 0.68473 0.0
C447 C 0.95326 0.94513 0.71286 0.0
H448 H 0.59375 0.02126 0.76701 0.0
H449 H 0.48794 0.11221 0.78313 0.0
H450 H 0.44802 0.07922 0.73449 0.0
H451 H 0.4424 0.0255 0.68707 0.0
H452 H 0.5442 0.93041 0.67162 0.0
H453 H 0.58626 0.96395 0.72 0.0
C454 C 0.56187 0.03362 0.75995 0.0
C455 C 0.544 0.06923 0.77898 0.0
C456 C 0.53837 1.01394 0.73186 0.0
C457 C 0.50254 0.08469 0.76941 0.0
C458 C 0.47962 0.06599 0.74135 0.0
C459 C 0.47398 1.0122 0.69401 0.0
C460 C 0.4904 0.97588 0.67534 0.0
C461 C 0.49722 0.03082 0.72231 0.0
C462 C 0.53092 0.95853 0.68538 0.0
C463 C 0.55493 0.9777 0.71309 0.0
H464 H 0.51509 0.43393 0.68049 0.0
H465 H 0.60696 0.53782 0.66777 0.0
H466 H 0.57197 0.57845 0.71638 0.0
H467 H 0.51549 0.58405 0.76319 0.0
H468 H 0.42697 0.47739 0.77805 0.0
H469 H 0.46061 0.43826 0.72844 0.0
C470 C 0.52711 0.46572 0.68808 0.0
C471 C 0.56316 0.48315 0.67013 0.0
C472 C 0.50771 0.48822 0.71683 0.0
C473 C 0.57906 0.52385 0.68095 0.0
C474 C 0.55913 0.54702 0.70884 0.0
C475 C 0.50367 0.55217 0.75567 0.0
C476 C 0.46867 0.5338 0.77453 0.0
C477 C 0.52354 0.52945 0.72715 0.0
C478 C 0.45399 0.49232 0.76435 0.0
C479 C 0.47307 0.46994 0.73576 0.0
H480 H 0.14976 0.73315 0.17642 0.0
H481 H 1.01001 0.73136 0.18106 0.0
H482 H 1.01067 0.78723 0.22774 0.0
H483 H 0.05148 0.83155 0.27007 0.0
H484 H 0.19114 0.83492 0.26446 0.0
H485 H 0.19025 0.78336 0.21451 0.0
C486 C 0.11952 0.74521 0.18767 0.0
C487 C 0.07993 0.72799 0.17623 0.0
C488 C 0.12024 0.77725 0.21403 0.0
C489 C 0.04077 0.74429 0.18993 0.0
C490 C 0.04118 0.77597 0.21655 0.0
C491 C 0.08166 0.82108 0.25771 0.0
C492 C 0.12135 0.83596 0.27097 0.0
C493 C 0.08077 0.79188 0.22925 0.0
C494 C 0.1603 0.82341 0.25451 0.0
C495 C 0.15978 0.79393 0.22621 0.0
H496 H 0.77861 0.08804 0.1528 0.0
H497 H 0.88757 0.12172 0.21916 0.0
H498 H 0.84228 0.11579 0.27261 0.0
H499 H 0.77127 0.10175 0.29997 0.0
H500 H 0.66123 0.0749 0.2329 0.0
H501 H 0.70746 0.0768 0.17972 0.0
C502 C 0.7923 0.09397 0.17903 0.0
C503 C 0.83598 0.10509 0.18246 0.0
C504 C 0.76605 0.09142 0.20921 0.0
C505 C 0.85368 0.11337 0.21624 0.0
C506 C 0.82799 0.10976 0.24666 0.0
C507 C 0.75787 0.09593 0.27362 0.0
C508 C 0.71367 0.08766 0.26971 0.0
C509 C 0.78416 0.09879 0.2434 0.0
C510 C 0.6956 0.08106 0.23589 0.0
C511 C 0.72184 0.08225 0.20572 0.0
H512 H 0.47969 0.70382 0.24451 0.0
H513 H 0.47602 0.81204 0.31776 0.0
H514 H 0.46146 0.86226 0.26814 0.0
H515 H 0.44314 0.87337 0.20476 0.0
H516 H 0.45043 0.76521 0.13152 0.0
H517 H 0.47004 0.71614 0.18055 0.0
C518 C 0.47643 0.73857 0.24933 0.0
C519 C 0.47845 0.75469 0.28422 0.0
C520 C 0.46803 0.76668 0.22099 0.0
C521 C 0.47473 0.79946 0.29076 0.0
C522 C 0.46599 0.82788 0.26258 0.0
C523 C 0.44904 0.839 0.1998 0.0
C524 C 0.44455 0.82217 0.16526 0.0
C525 C 0.46133 0.81156 0.22779 0.0
C526 C 0.45335 0.7782 0.15831 0.0
C527 C 0.4646 0.75038 0.18616 0.0
H528 H 0.68481 0.47766 0.20391 0.0
H529 H 0.80121 0.48233 0.1403 0.0
H530 H 0.84556 0.48277 0.19467 0.0
H531 H 0.85034 0.47302 0.25952 0.0
H532 H 0.73389 0.47051 0.32319 0.0
H533 H 0.68954 0.47848 0.2692 0.0
C534 C 0.71991 0.47941 0.2022 0.0
C535 C 0.7403 0.47919 0.16882 0.0
C536 C 0.74468 0.47968 0.23323 0.0
C537 C 0.78541 0.48233 0.16615 0.0
C538 C 0.81054 0.48231 0.19704 0.0
C539 C 0.81522 0.47463 0.26136 0.0
C540 C 0.79483 0.47029 0.29454 0.0
C541 C 0.79044 0.47955 0.23057 0.0
C542 C 0.74969 0.47347 0.29747 0.0
C543 C 0.72457 0.47789 0.26679 0.0
H544 H 0.99803 0.19457 0.69369 0.0
H545 H 0.85831 0.18848 0.69582 0.0
H546 H 0.85645 0.2373 0.74745 0.0
H547 H 0.89441 0.28671 0.78767 0.0
H548 H 0.03409 0.29199 0.78652 0.0
H549 H 0.03646 0.2375 0.73866 0.0
C550 C 0.96726 0.20385 0.70567 0.0
C551 C 0.92831 0.18907 0.69092 0.0
C552 C 0.96656 0.2315 0.73518 0.0
C553 C 0.88858 0.20001 0.70688 0.0
C554 C 0.88753 0.22787 0.73618 0.0
C555 C 0.92532 0.27553 0.77703 0.0
C556 C 0.96401 0.29343 0.78963 0.0
C557 C 0.92626 0.24459 0.74987 0.0
C558 C 1.00404 0.27841 0.77672 0.0
C559 C 1.00533 0.24761 0.7494 0.0
H560 H 0.30326 0.89473 0.6778 0.0
H561 H 0.30643 0.03495 0.6838 0.0
H562 H 0.25967 0.03352 0.73672 0.0
H563 H 0.2196 0.99185 0.7815 0.0
H564 H 0.21293 0.85196 0.77294 0.0
H565 H 0.25998 0.85351 0.72033 0.0
C566 C 0.29365 0.92491 0.69082 0.0
C567 C 0.30823 0.96483 0.67765 0.0
C568 C 0.26659 0.92375 0.72051 0.0
C569 C 0.29523 1.00393 0.69386 0.0
C570 C 0.26882 1.00308 0.72402 0.0
C571 C 0.22877 0.9618 0.76812 0.0
C572 C 0.21373 0.92184 0.78087 0.0
C573 C 0.25468 0.96312 0.73767 0.0
C574 C 0.22459 0.88299 0.76326 0.0
C575 C 0.25133 0.88388 0.73337 0.0
H576 H 0.54337 0.19194 0.7511 0.0
H577 H 0.55164 0.30474 0.81914 0.0
H578 H 0.55434 0.35232 0.76656 0.0
H579 H 0.56452 0.35968 0.70182 0.0
H580 H 0.55474 0.24683 0.63384 0.0
H581 H 0.54216 0.20058 0.68611 0.0
C582 C 0.54475 0.22708 0.75417 0.0
C583 C 0.54779 0.24537 0.78826 0.0
C584 C 0.54669 0.25365 0.72413 0.0
C585 C 0.54917 0.29057 0.79273 0.0
C586 C 0.55113 0.31749 0.76283 0.0
C587 C 0.55925 0.32497 0.69865 0.0
C588 C 0.56152 0.30597 0.66471 0.0
C589 C 0.55163 0.29911 0.72852 0.0
C590 C 0.55352 0.26152 0.66014 0.0
C591 C 0.5464 0.2353 0.68984 0.0
H592 H 0.33967 0.53469 0.75068 0.0
H593 H 0.23349 0.56526 0.82138 0.0
H594 H 0.1838 0.57007 0.77031 0.0
H595 H 0.17353 0.57355 0.70533 0.0
H596 H 0.27967 0.5407 0.635 0.0
H597 H 0.32713 0.52837 0.6864 0.0
C598 C 0.30539 0.54144 0.7547 0.0
C599 C 0.28966 0.5499 0.789 0.0
C600 C 0.27762 0.54426 0.72552 0.0
C601 C 0.24559 0.55847 0.79477 0.0
C602 C 0.21753 0.56157 0.76572 0.0
C603 C 0.20703 0.56346 0.70149 0.0
C604 C 0.22383 0.55888 0.66696 0.0
C605 C 0.23361 0.55591 0.73096 0.0
C606 C 0.26664 0.54471 0.66169 0.0
C607 C 0.2936 0.53772 0.6909 0.0
H608 H 0.99812 0.59113 0.01498 0.0
H609 H 0.11112 0.51143 0.03659 0.0
H610 H 0.08753 0.45866 -0.00786 0.0
H611 H 0.035 0.435 0.94784 0.0
H612 H 0.92217 0.51441 0.92525 0.0
H613 H 0.94547 0.56749 0.96993 0.0
C614 C 0.01774 0.56234 0.00986 0.0
C615 C 0.05637 0.55525 0.02907 0.0
C616 C 1.00387 0.532 -0.01558 0.0
C617 C 0.08131 0.51772 0.02216 0.0
C618 C 0.06778 0.48746 -0.00316 0.0
C619 C 1.01525 0.46376 0.95275 0.0
C620 C 0.97678 0.47066 0.93335 0.0
C621 C 0.02905 0.49419 -0.02199 0.0
C622 C 0.95185 0.50829 0.93991 0.0
C623 C 0.96522 0.53867 0.96535 0.0
H624 H 1.0143 0.95921 0.92262 0.0
H625 H 0.13627 0.98908 0.97293 0.0
H626 H 0.09926 0.03635 0.01581 0.0
H627 H 0.03232 0.07006 0.03847 0.0
H628 H 0.91027 0.04017 -0.01168 0.0
H629 H 0.94727 0.99297 0.94533 0.0
C630 C 0.03257 0.97547 0.9434 0.0
C631 C 0.07777 0.97045 0.9449 0.0
C632 C 1.01123 1.00342 0.96741 0.0
C633 C 0.10132 0.99236 0.97144 0.0
C634 C 0.08027 0.01964 -0.00423 0.0
C635 C 1.01401 0.05381 0.01771 0.0
C636 C 0.96881 0.0588 0.01629 0.0
C637 C 0.03532 0.02589 -0.00631 0.0
C638 C 0.94523 0.03691 -0.01024 0.0
C639 C 0.96627 1.00967 0.96537 0.0
H640 H 0.50141 0.94992 0.00231 0.0
H641 H 0.39184 0.03355 0.0259 0.0
H642 H 0.42404 0.0916 -0.00977 0.0
H643 H 0.48355 0.1186 0.95326 0.0
H644 H 0.59314 0.03489 0.92989 0.0
H645 H 0.56094 0.97694 0.96558 0.0
C646 C 0.48422 0.98064 -0.00062 0.0
C647 C 0.44408 0.98729 0.01658 0.0
C648 C 0.5033 1.01404 -0.02048 0.0
C649 C 0.4226 0.02749 0.01275 0.0
C650 C 0.44115 0.06078 -0.00741 0.0
C651 C 0.50073 0.08789 0.95627 0.0
C652 C 0.54086 0.08118 0.93906 0.0
C653 C 0.48167 0.05452 0.9762 0.0
C654 C 0.56238 0.041 0.94301 0.0
C655 C 0.54383 1.00776 0.96318 0.0
H656 H 0.51147 0.56628 0.91498 0.0
H657 H 0.40801 0.49839 0.96853 0.0
H658 H 0.45975 0.4671 0.01062 0.0
H659 H 0.53411 0.45844 0.03188 0.0
H660 H 0.63784 0.5268 -0.02074 0.0
H661 H 0.58623 0.55793 0.93667 0.0
C662 C 0.50021 0.54502 0.9361 0.0
C663 C 0.456 0.53475 0.93869 0.0
C664 C 0.53019 0.52669 0.95998 0.0
C665 C 0.44191 0.50681 0.96597 0.0
C666 C 0.47146 0.48873 -0.01004 0.0
C667 C 0.54554 0.47971 0.01082 0.0
C668 C 0.5897 0.49006 0.00852 0.0
C669 C 0.51568 0.49812 -0.01301 0.0
C670 C 0.60394 0.51823 -0.01854 0.0
C671 C 0.57446 0.5362 0.95724 0.0
H672 H 0.08837 0.02629 0.42714 0.0
H673 H 0.03784 0.90164 0.45916 0.0
H674 H 0.99145 0.93693 0.50345 0.0
H675 H 0.96441 1.0033 0.53273 0.0
H676 H 1.01514 0.12798 0.50113 0.0
H677 H 0.06149 0.09276 0.45665 0.0
C678 C 0.06767 1.00688 0.44419 0.0
C679 C 0.06668 0.96149 0.44001 0.0
C680 C 0.04044 0.02744 0.46923 0.0
C681 C 0.0392 0.93672 0.46191 0.0
C682 C 1.01246 0.95685 0.48712 0.0
C683 C 0.98514 0.02274 0.51573 0.0
C684 C 0.98616 0.0681 0.52 0.0
C685 C 1.01242 1.00222 0.49073 0.0
C686 C 1.01374 0.09291 0.49824 0.0
C687 C 0.04044 0.07282 0.47295 0.0
H688 H 0.5132 0.08199 0.41751 0.0
H689 H 0.6257 1.01218 0.45628 0.0
H690 H 0.58131 0.97633 0.50137 0.0
H691 H 0.51052 0.96497 0.52974 0.0
H692 H 0.39844 0.03539 0.49097 0.0
H693 H 0.44268 0.07028 0.44538 0.0
C694 C 0.52812 0.05927 0.43605 0.0
C695 C 0.57264 0.04993 0.43372 0.0
C696 C 0.50241 0.0384 0.46151 0.0
C697 C 0.59143 0.02001 0.45763 0.0
C698 C 0.56608 0.99934 0.48329 0.0
C699 C 0.49573 0.98749 0.51098 0.0
C700 C 0.45137 0.99753 0.51356 0.0
C701 C 0.52148 1.00808 0.4853 0.0
C702 C 0.43262 0.0272 0.48945 0.0
C703 C 0.45788 0.04731 0.46351 0.0
H704 H 0.59262 0.51714 0.53129 0.0
H705 H 0.53227 0.41014 0.47601 0.0
H706 H 0.5002 0.46059 0.43315 0.0
H707 H 0.48714 0.535 0.41257 0.0
H708 H 0.54733 0.64246 0.46725 0.0
H709 H 0.58112 0.59192 0.50947 0.0
C710 C 0.57302 0.50484 0.50952 0.0
C711 C 0.56488 0.45999 0.50681 0.0
C712 C 0.55401 0.53412 0.48527 0.0
C713 C 0.53899 0.44456 0.47871 0.0
C714 C 0.52044 0.47338 0.45428 0.0
C715 C 0.50733 0.54744 0.43391 0.0
C716 C 0.51437 0.5924 0.43699 0.0
C717 C 0.52715 0.51824 0.45766 0.0
C718 C 0.54123 0.60794 0.46443 0.0
C719 C 0.56071 0.57907 0.48847 0.0
H720 H 1.00317 0.4666 0.4208 0.0
H721 H 0.89525 0.50689 0.4867 0.0
H722 H 0.94409 0.54892 0.5246 0.0
H723 H 0.0175 0.57421 0.53874 0.0
H724 H 0.12513 0.53336 0.47283 0.0
H725 H 0.07605 0.49259 0.43433 0.0
C726 C 0.99045 0.48395 0.44383 0.0
C727 C 0.94586 0.48326 0.45129 0.0
C728 C 0.01843 0.50887 0.46482 0.0
C729 C 0.92963 0.50668 0.4807 0.0
C730 C 0.95741 0.53101 0.50213 0.0
C731 C 0.02996 0.55721 0.51545 0.0
C732 C 0.07462 0.55707 0.50827 0.0
C733 C 1.00179 0.53275 0.49417 0.0
C734 C 0.09069 0.5341 0.47858 0.0
C735 C 0.06277 0.51047 0.45684 0.0
loop_
_geom_bond_atom_site_label_1
_geom_bond_atom_site_label_2
_geom_bond_distance
_geom_bond_site_symmetry_2
_ccdc_geom_bond_type
C0 O2 1.247 . S
C0 O4 1.258 . S
C1 O8 1.247 . S
C1 O9 1.258 . S
O2 C0 1.247 . S
O2 Zn3 2.028 . S
Zn3 O2 2.028 . S
Zn3 O7 2.035 . S
Zn3 O9 2.035 . S
Zn3 O10 2.028 . S
O4 C0 1.258 . S
O4 Zn5 2.035 . S
Zn5 O4 2.035 . S
Zn5 O6 2.028 . S
Zn5 O8 2.028 . S
Zn5 O11 2.035 . S
O6 Zn5 2.028 . S
O6 C12 1.247 . S
O7 Zn3 2.035 . S
O7 C12 1.258 . S
O8 C1 1.247 . S
O8 Zn5 2.028 . S
O9 C1 1.258 . S
O9 Zn3 2.035 . S
O10 Zn3 2.028 . S
O10 C13 1.247 . S
O11 Zn5 2.035 . S
O11 C13 1.258 . S
C12 O6 1.247 . S
C12 O7 1.258 . S
C13 O10 1.247 . S
C13 O11 1.258 . S
C14 O16 1.247 . S
C14 O18 1.258 . S
C15 O22 1.247 . S
C15 O23 1.258 . S
O16 C14 1.247 . S
O16 Zn17 2.028 . S
Zn17 O16 2.028 . S
Zn17 O21 2.035 . S
Zn17 O23 2.035 . S
Zn17 O24 2.028 . S
O18 C14 1.258 . S
O18 Zn19 2.035 . S
Zn19 O18 2.035 . S
Zn19 O20 2.028 . S
Zn19 O22 2.028 . S
Zn19 O25 2.035 . S
O20 Zn19 2.028 . S
O20 C26 1.247 . S
O21 Zn17 2.035 . S
O21 C26 1.258 . S
O22 C15 1.247 . S
O22 Zn19 2.028 . S
O23 C15 1.258 . S
O23 Zn17 2.035 . S
O24 Zn17 2.028 . S
O24 C27 1.247 . S
O25 Zn19 2.035 . S
O25 C27 1.258 . S
C26 O20 1.247 . S
C26 O21 1.258 . S
C27 O24 1.247 . S
C27 O25 1.258 . S
C28 O30 1.247 . S
C28 O32 1.258 . S
C29 O36 1.247 . S
C29 O37 1.258 . S
O30 C28 1.247 . S
O30 Zn31 2.028 . S
Zn31 O30 2.028 . S
Zn31 O35 2.035 . S
Zn31 O37 2.035 . S
Zn31 O38 2.028 . S
O32 C28 1.258 . S
O32 Zn33 2.035 . S
Zn33 O32 2.035 . S
Zn33 O34 2.028 . S
Zn33 O36 2.028 . S
Zn33 O39 2.035 . S
O34 Zn33 2.028 . S
O34 C40 1.247 . S
O35 Zn31 2.035 . S
O35 C40 1.258 . S
O36 C29 1.247 . S
O36 Zn33 2.028 . S
O37 C29 1.258 . S
O37 Zn31 2.035 . S
O38 Zn31 2.028 . S
O38 C41 1.247 . S
O39 Zn33 2.035 . S
O39 C41 1.258 . S
C40 O34 1.247 . S
C40 O35 1.258 . S
C41 O38 1.247 . S
C41 O39 1.258 . S
C42 O44 1.247 . S
C42 O46 1.258 . S
C43 O50 1.247 . S
C43 O51 1.258 . S
O44 C42 1.247 . S
O44 Zn45 2.028 . S
Zn45 O44 2.028 . S
Zn45 O49 2.035 . S
Zn45 O51 2.035 . S
Zn45 O52 2.028 . S
O46 C42 1.258 . S
O46 Zn47 2.035 . S
Zn47 O46 2.035 . S
Zn47 O48 2.028 . S
Zn47 O50 2.028 . S
Zn47 O53 2.035 . S
O48 Zn47 2.028 . S
O48 C54 1.247 . S
O49 Zn45 2.035 . S
O49 C54 1.258 . S
O50 C43 1.247 . S
O50 Zn47 2.028 . S
O51 C43 1.258 . S
O51 Zn45 2.035 . S
O52 Zn45 2.028 . S
O52 C55 1.247 . S
O53 Zn47 2.035 . S
O53 C55 1.258 . S
C54 O48 1.247 . S
C54 O49 1.258 . S
C55 O52 1.247 . S
C55 O53 1.258 . S
C56 O58 1.247 . S
C56 O60 1.258 . S
C57 O64 1.247 . S
C57 O65 1.258 . S
O58 C56 1.247 . S
O58 Zn59 2.028 . S
Zn59 O58 2.028 . S
Zn59 O63 2.035 . S
Zn59 O65 2.035 . S
Zn59 O66 2.028 . S
O60 C56 1.258 . S
O60 Zn61 2.035 . S
Zn61 O60 2.035 . S
Zn61 O62 2.028 . S
Zn61 O64 2.028 . S
Zn61 O67 2.035 . S
O62 Zn61 2.028 . S
O62 C68 1.247 . S
O63 Zn59 2.035 . S
O63 C68 1.258 . S
O64 C57 1.247 . S
O64 Zn61 2.028 . S
O65 C57 1.258 . S
O65 Zn59 2.035 . S
O66 Zn59 2.028 . S
O66 C69 1.247 . S
O67 Zn61 2.035 . S
O67 C69 1.258 . S
C68 O62 1.247 . S
C68 O63 1.258 . S
C69 O66 1.247 . S
C69 O67 1.258 . S
C70 O72 1.247 . S
C70 O74 1.258 . S
C71 O78 1.247 . S
C71 O79 1.258 . S
O72 C70 1.247 . S
O72 Zn73 2.028 . S
Zn73 O72 2.028 . S
Zn73 O77 2.035 . S
Zn73 O79 2.035 . S
Zn73 O80 2.028 . S
O74 C70 1.258 . S
O74 Zn75 2.035 . S
Zn75 O74 2.035 . S
Zn75 O76 2.028 . S
Zn75 O78 2.028 . S
Zn75 O81 2.035 . S
O76 Zn75 2.028 . S
O76 C82 1.247 . S
O77 Zn73 2.035 . S
O77 C82 1.258 . S
O78 C71 1.247 . S
O78 Zn75 2.028 . S
O79 C71 1.258 . S
O79 Zn73 2.035 . S
O80 Zn73 2.028 . S
O80 C83 1.247 . S
O81 Zn75 2.035 . S
O81 C83 1.258 . S
C82 O76 1.247 . S
C82 O77 1.258 . S
C83 O80 1.247 . S
C83 O81 1.258 . S
C84 O86 1.247 . S
C84 O88 1.258 . S
C85 O92 1.247 . S
C85 O93 1.258 . S
O86 C84 1.247 . S
O86 Zn87 2.028 . S
Zn87 O86 2.028 . S
Zn87 O91 2.035 . S
Zn87 O93 2.035 . S
Zn87 O94 2.028 . S
O88 C84 1.258 . S
O88 Zn89 2.035 . S
Zn89 O88 2.035 . S
Zn89 O90 2.028 . S
Zn89 O92 2.028 . S
Zn89 O95 2.035 . S
O90 Zn89 2.028 . S
O90 C96 1.247 . S
O91 Zn87 2.035 . S
O91 C96 1.258 . S
O92 C85 1.247 . S
O92 Zn89 2.028 . S
O93 C85 1.258 . S
O93 Zn87 2.035 . S
O94 Zn87 2.028 . S
O94 C97 1.247 . S
O95 Zn89 2.035 . S
O95 C97 1.258 . S
C96 O90 1.247 . S
C96 O91 1.258 . S
C97 O94 1.247 . S
C97 O95 1.258 . S
C98 O100 1.247 . S
C98 O102 1.258 . S
C99 O106 1.247 . S
C99 O107 1.258 . S
O100 C98 1.247 . S
O100 Zn101 2.028 . S
Zn101 O100 2.028 . S
Zn101 O105 2.035 . S
Zn101 O107 2.035 . S
Zn101 O108 2.028 . S
O102 C98 1.258 . S
O102 Zn103 2.035 . S
Zn103 O102 2.035 . S
Zn103 O104 2.028 . S
Zn103 O106 2.028 . S
Zn103 O109 2.035 . S
O104 Zn103 2.028 . S
O104 C110 1.247 . S
O105 Zn101 2.035 . S
O105 C110 1.258 . S
O106 C99 1.247 . S
O106 Zn103 2.028 . S
O107 C99 1.258 . S
O107 Zn101 2.035 . S
O108 Zn101 2.028 . S
O108 C111 1.247 . S
O109 Zn103 2.035 . S
O109 C111 1.258 . S
C110 O104 1.247 . S
C110 O105 1.258 . S
C111 O108 1.247 . S
C111 O109 1.258 . S
C112 O114 1.247 . S
C112 O116 1.258 . S
C113 O120 1.247 . S
C113 O121 1.258 . S
O114 C112 1.247 . S
O114 Zn115 2.028 . S
Zn115 O114 2.028 . S
Zn115 O119 2.035 . S
Zn115 O121 2.035 . S
Zn115 O122 2.028 . S
O116 C112 1.258 . S
O116 Zn117 2.035 . S
Zn117 O116 2.035 . S
Zn117 O118 2.028 . S
Zn117 O120 2.028 . S
Zn117 O123 2.035 . S
O118 Zn117 2.028 . S
O118 C124 1.247 . S
O119 Zn115 2.035 . S
O119 C124 1.258 . S
O120 C113 1.247 . S
O120 Zn117 2.028 . S
O121 C113 1.258 . S
O121 Zn115 2.035 . S
O122 Zn115 2.028 . S
O122 C125 1.247 . S
O123 Zn117 2.035 . S
O123 C125 1.258 . S
C124 O118 1.247 . S
C124 O119 1.258 . S
C125 O122 1.247 . S
C125 O123 1.258 . S
C126 O128 1.247 . S
C126 O130 1.258 . S
C127 O134 1.247 . S
C127 O135 1.258 . S
O128 C126 1.247 . S
O128 Zn129 2.028 . S
Zn129 O128 2.028 . S
Zn129 O133 2.035 . S
Zn129 O135 2.035 . S
Zn129 O136 2.028 . S
O130 C126 1.258 . S
O130 Zn131 2.035 . S
Zn131 O130 2.035 . S
Zn131 O132 2.028 . S
Zn131 O134 2.028 . S
Zn131 O137 2.035 . S
O132 Zn131 2.028 . S
O132 C138 1.247 . S
O133 Zn129 2.035 . S
O133 C138 1.258 . S
O134 C127 1.247 . S
O134 Zn131 2.028 . S
O135 C127 1.258 . S
O135 Zn129 2.035 . S
O136 Zn129 2.028 . S
O136 C139 1.247 . S
O137 Zn131 2.035 . S
O137 C139 1.258 . S
C138 O132 1.247 . S
C138 O133 1.258 . S
C139 O136 1.247 . S
C139 O137 1.258 . S
C140 O142 1.247 . S
C140 O144 1.258 . S
C141 O148 1.247 . S
C141 O149 1.258 . S
O142 C140 1.247 . S
O142 Zn143 2.028 . S
Zn143 O142 2.028 . S
Zn143 O147 2.035 . S
Zn143 O149 2.035 . S
Zn143 O150 2.028 . S
O144 C140 1.258 . S
O144 Zn145 2.035 . S
Zn145 O144 2.035 . S
Zn145 O146 2.028 . S
Zn145 O148 2.028 . S
Zn145 O151 2.035 . S
O146 Zn145 2.028 . S
O146 C152 1.247 . S
O147 Zn143 2.035 . S
O147 C152 1.258 . S
O148 C141 1.247 . S
O148 Zn145 2.028 . S
O149 C141 1.258 . S
O149 Zn143 2.035 . S
O150 Zn143 2.028 . S
O150 C153 1.247 . S
O151 Zn145 2.035 . S
O151 C153 1.258 . S
C152 O146 1.247 . S
C152 O147 1.258 . S
C153 O150 1.247 . S
C153 O151 1.258 . S
C154 O156 1.247 . S
C154 O158 1.258 . S
C155 O162 1.247 . S
C155 O163 1.258 . S
O156 C154 1.247 . S
O156 Zn157 2.028 . S
Zn157 O156 2.028 . S
Zn157 O161 2.035 . S
Zn157 O163 2.035 . S
Zn157 O164 2.028 . S
O158 C154 1.258 . S
O158 Zn159 2.035 . S
Zn159 O158 2.035 . S
Zn159 O160 2.028 . S
Zn159 O162 2.028 . S
Zn159 O165 2.035 . S
O160 Zn159 2.028 . S
O160 C166 1.247 . S
O161 Zn157 2.035 . S
O161 C166 1.258 . S
O162 C155 1.247 . S
O162 Zn159 2.028 . S
O163 C155 1.258 . S
O163 Zn157 2.035 . S
O164 Zn157 2.028 . S
O164 C167 1.247 . S
O165 Zn159 2.035 . S
O165 C167 1.258 . S
C166 O160 1.247 . S
C166 O161 1.258 . S
C167 O164 1.247 . S
C167 O165 1.258 . S
C168 O170 1.247 . S
C168 O172 1.258 . S
C169 O176 1.247 . S
C169 O177 1.258 . S
O170 C168 1.247 . S
O170 Zn171 2.028 . S
Zn171 O170 2.028 . S
Zn171 O175 2.035 . S
Zn171 O177 2.035 . S
Zn171 O178 2.028 . S
O172 C168 1.258 . S
O172 Zn173 2.035 . S
Zn173 O172 2.035 . S
Zn173 O174 2.028 . S
Zn173 O176 2.028 . S
Zn173 O179 2.035 . S
O174 Zn173 2.028 . S
O174 C180 1.247 . S
O175 Zn171 2.035 . S
O175 C180 1.258 . S
O176 C169 1.247 . S
O176 Zn173 2.028 . S
O177 C169 1.258 . S
O177 Zn171 2.035 . S
O178 Zn171 2.028 . S
O178 C181 1.247 . S
O179 Zn173 2.035 . S
O179 C181 1.258 . S
C180 O174 1.247 . S
C180 O175 1.258 . S
C181 O178 1.247 . S
C181 O179 1.258 . S
C182 O184 1.247 . S
C182 O186 1.258 . S
C183 O190 1.247 . S
C183 O191 1.258 . S
O184 C182 1.247 . S
O184 Zn185 2.028 . S
Zn185 O184 2.028 . S
Zn185 O189 2.035 . S
Zn185 O191 2.035 . S
Zn185 O192 2.028 . S
O186 C182 1.258 . S
O186 Zn187 2.035 . S
Zn187 O186 2.035 . S
Zn187 O188 2.028 . S
Zn187 O190 2.028 . S
Zn187 O193 2.035 . S
O188 Zn187 2.028 . S
O188 C194 1.247 . S
O189 Zn185 2.035 . S
O189 C194 1.258 . S
O190 C183 1.247 . S
O190 Zn187 2.028 . S
O191 C183 1.258 . S
O191 Zn185 2.035 . S
O192 Zn185 2.028 . S
O192 C195 1.247 . S
O193 Zn187 2.035 . S
O193 C195 1.258 . S
C194 O188 1.247 . S
C194 O189 1.258 . S
C195 O192 1.247 . S
C195 O193 1.258 . S
C196 O198 1.247 . S
C196 O200 1.258 . S
C197 O204 1.247 . S
C197 O205 1.258 . S
O198 C196 1.247 . S
O198 Zn199 2.028 . S
Zn199 O198 2.028 . S
Zn199 O203 2.035 . S
Zn199 O205 2.035 . S
Zn199 O206 2.028 . S
O200 C196 1.258 . S
O200 Zn201 2.035 . S
Zn201 O200 2.035 . S
Zn201 O202 2.028 . S
Zn201 O204 2.028 . S
Zn201 O207 2.035 . S
O202 Zn201 2.028 . S
O202 C208 1.247 . S
O203 Zn199 2.035 . S
O203 C208 1.258 . S
O204 C197 1.247 . S
O204 Zn201 2.028 . S
O205 C197 1.258 . S
O205 Zn199 2.035 . S
O206 Zn199 2.028 . S
O206 C209 1.247 . S
O207 Zn201 2.035 . S
O207 C209 1.258 . S
C208 O202 1.247 . S
C208 O203 1.258 . S
C209 O206 1.247 . S
C209 O207 1.258 . S
C210 O212 1.247 . S
C210 O214 1.258 . S
C211 O218 1.247 . S
C211 O219 1.258 . S
O212 C210 1.247 . S
O212 Zn213 2.028 . S
Zn213 O212 2.028 . S
Zn213 O217 2.035 . S
Zn213 O219 2.035 . S
Zn213 O220 2.028 . S
O214 C210 1.258 . S
O214 Zn215 2.035 . S
Zn215 O214 2.035 . S
Zn215 O216 2.028 . S
Zn215 O218 2.028 . S
Zn215 O221 2.035 . S
O216 Zn215 2.028 . S
O216 C222 1.247 . S
O217 Zn213 2.035 . S
O217 C222 1.258 . S
O218 C211 1.247 . S
O218 Zn215 2.028 . S
O219 C211 1.258 . S
O219 Zn213 2.035 . S
O220 Zn213 2.028 . S
O220 C223 1.247 . S
O221 Zn215 2.035 . S
O221 C223 1.258 . S
C222 O216 1.247 . S
C222 O217 1.258 . S
C223 O220 1.247 . S
C223 O221 1.258 . S
H224 C230 0.930 . S
H225 C233 0.930 . S
H226 C234 0.930 . S
H227 C235 0.930 . S
H228 C238 0.930 . S
H229 C239 0.930 . S
C230 H224 0.930 . S
C230 C231 1.355 . S
C230 C232 1.415 . S
C231 C230 1.355 . S
C231 C233 1.419 . S
C232 C230 1.415 . S
C232 C237 1.425 . S
C232 C239 1.409 . S
C233 H225 0.930 . S
C233 C231 1.419 . S
C233 C234 1.362 . S
C234 H226 0.930 . S
C234 C233 1.362 . S
C234 C237 1.409 . S
C235 H227 0.930 . S
C235 C236 1.355 . S
C235 C237 1.415 . S
C236 C235 1.355 . S
C236 C238 1.419 . S
C237 C232 1.425 . S
C237 C234 1.409 . S
C237 C235 1.415 . S
C238 H228 0.930 . S
C238 C236 1.419 . S
C238 C239 1.362 . S
C239 H229 0.930 . S
C239 C232 1.409 . S
C239 C238 1.362 . S
H240 C246 0.930 . S
H241 C249 0.930 . S
H242 C250 0.930 . S
H243 C251 0.930 . S
H244 C254 0.930 . S
H245 C255 0.930 . S
C246 H240 0.930 . S
C246 C247 1.355 . S
C246 C248 1.415 . S
C247 C246 1.355 . S
C247 C249 1.419 . S
C248 C246 1.415 . S
C248 C253 1.425 . S
C248 C255 1.409 . S
C249 H241 0.930 . S
C249 C247 1.419 . S
C249 C250 1.362 . S
C250 H242 0.930 . S
C250 C249 1.362 . S
C250 C253 1.409 . S
C251 H243 0.930 . S
C251 C252 1.355 . S
C251 C253 1.415 . S
C252 C251 1.355 . S
C252 C254 1.419 . S
C253 C248 1.425 . S
C253 C250 1.409 . S
C253 C251 1.415 . S
C254 H244 0.930 . S
C254 C252 1.419 . S
C254 C255 1.362 . S
C255 H245 0.930 . S
C255 C248 1.409 . S
C255 C254 1.362 . S
H256 C262 0.930 . S
H257 C265 0.930 . S
H258 C266 0.930 . S
H259 C267 0.930 . S
H260 C270 0.930 . S
H261 C271 0.930 . S
C262 H256 0.930 . S
C262 C263 1.355 . S
C262 C264 1.415 . S
C263 C262 1.355 . S
C263 C265 1.419 . S
C264 C262 1.415 . S
C264 C269 1.425 . S
C264 C271 1.409 . S
C265 H257 0.930 . S
C265 C263 1.419 . S
C265 C266 1.362 . S
C266 H258 0.930 . S
C266 C265 1.362 . S
C266 C269 1.409 . S
C267 H259 0.930 . S
C267 C268 1.355 . S
C267 C269 1.415 . S
C268 C267 1.355 . S
C268 C270 1.419 . S
C269 C264 1.425 . S
C269 C266 1.409 . S
C269 C267 1.415 . S
C270 H260 0.930 . S
C270 C268 1.419 . S
C270 C271 1.362 . S
C271 H261 0.930 . S
C271 C264 1.409 . S
C271 C270 1.362 . S
H272 C278 0.930 . S
H273 C281 0.930 . S
H274 C282 0.930 . S
H275 C283 0.930 . S
H276 C286 0.930 . S
H277 C287 0.930 . S
C278 H272 0.930 . S
C278 C279 1.355 . S
C278 C280 1.415 . S
C279 C278 1.355 . S
C279 C281 1.419 . S
C280 C278 1.415 . S
C280 C285 1.425 . S
C280 C287 1.409 . S
C281 H273 0.930 . S
C281 C279 1.419 . S
C281 C282 1.362 . S
C282 H274 0.930 . S
C282 C281 1.362 . S
C282 C285 1.409 . S
C283 H275 0.930 . S
C283 C284 1.355 . S
C283 C285 1.415 . S
C284 C283 1.355 . S
C284 C286 1.419 . S
C285 C280 1.425 . S
C285 C282 1.409 . S
C285 C283 1.415 . S
C286 H276 0.930 . S
C286 C284 1.419 . S
C286 C287 1.362 . S
C287 H277 0.930 . S
C287 C280 1.409 . S
C287 C286 1.362 . S
H288 C294 0.930 . S
H289 C297 0.930 . S
H290 C298 0.930 . S
H291 C299 0.930 . S
H292 C302 0.930 . S
H293 C303 0.930 . S
C294 H288 0.930 . S
C294 C295 1.355 . S
C294 C296 1.415 . S
C295 C294 1.355 . S
C295 C297 1.419 . S
C296 C294 1.415 . S
C296 C301 1.425 . S
C296 C303 1.409 . S
C297 H289 0.930 . S
C297 C295 1.419 . S
C297 C298 1.362 . S
C298 H290 0.930 . S
C298 C297 1.362 . S
C298 C301 1.409 . S
C299 H291 0.930 . S
C299 C300 1.355 . S
C299 C301 1.415 . S
C300 C299 1.355 . S
C300 C302 1.419 . S
C301 C296 1.425 . S
C301 C298 1.409 . S
C301 C299 1.415 . S
C302 H292 0.930 . S
C302 C300 1.419 . S
C302 C303 1.362 . S
C303 H293 0.930 . S
C303 C296 1.409 . S
C303 C302 1.362 . S
H304 C310 0.930 . S
H305 C313 0.930 . S
H306 C314 0.930 . S
H307 C315 0.930 . S
H308 C318 0.930 . S
H309 C319 0.930 . S
C310 H304 0.930 . S
C310 C311 1.355 . S
C310 C312 1.415 . S
C311 C310 1.355 . S
C311 C313 1.419 . S
C312 C310 1.415 . S
C312 C317 1.425 . S
C312 C319 1.409 . S
C313 H305 0.930 . S
C313 C311 1.419 . S
C313 C314 1.362 . S
C314 H306 0.930 . S
C314 C313 1.362 . S
C314 C317 1.409 . S
C315 H307 0.930 . S
C315 C316 1.355 . S
C315 C317 1.415 . S
C316 C315 1.355 . S
C316 C318 1.419 . S
C317 C312 1.425 . S
C317 C314 1.409 . S
C317 C315 1.415 . S
C318 H308 0.930 . S
C318 C316 1.419 . S
C318 C319 1.362 . S
C319 H309 0.930 . S
C319 C312 1.409 . S
C319 C318 1.362 . S
H320 C326 0.930 . S
H321 C329 0.930 . S
H322 C330 0.930 . S
H323 C331 0.930 . S
H324 C334 0.930 . S
H325 C335 0.930 . S
C326 H320 0.930 . S
C326 C327 1.355 . S
C326 C328 1.415 . S
C327 C326 1.355 . S
C327 C329 1.419 . S
C328 C326 1.415 . S
C328 C333 1.425 . S
C328 C335 1.409 . S
C329 H321 0.930 . S
C329 C327 1.419 . S
C329 C330 1.362 . S
C330 H322 0.930 . S
C330 C329 1.362 . S
C330 C333 1.409 . S
C331 H323 0.930 . S
C331 C332 1.355 . S
C331 C333 1.415 . S
C332 C331 1.355 . S
C332 C334 1.419 . S
C333 C328 1.425 . S
C333 C330 1.409 . S
C333 C331 1.415 . S
C334 H324 0.930 . S
C334 C332 1.419 . S
C334 C335 1.362 . S
C335 H325 0.930 . S
C335 C328 1.409 . S
C335 C334 1.362 . S
H336 C342 0.930 . S
H337 C345 0.930 . S
H338 C346 0.930 . S
H339 C347 0.930 . S
H340 C350 0.930 . S
H341 C351 0.930 . S
C342 H336 0.930 . S
C342 C343 1.355 . S
C342 C344 1.415 . S
C343 C342 1.355 . S
C343 C345 1.419 . S
C344 C342 1.415 . S
C344 C349 1.425 . S
C344 C351 1.409 . S
C345 H337 0.930 . S
C345 C343 1.419 . S
C345 C346 1.362 . S
C346 H338 0.930 . S
C346 C345 1.362 . S
C346 C349 1.409 . S
C347 H339 0.930 . S
C347 C348 1.355 . S
C347 C349 1.415 . S
C348 C347 1.355 . S
C348 C350 1.419 . S
C349 C344 1.425 . S
C349 C346 1.409 . S
C349 C347 1.415 . S
C350 H340 0.930 . S
C350 C348 1.419 . S
C350 C351 1.362 . S
C351 H341 0.930 . S
C351 C344 1.409 . S
C351 C350 1.362 . S
H352 C358 0.930 . S
H353 C361 0.930 . S
H354 C362 0.930 . S
H355 C363 0.930 . S
H356 C366 0.930 . S
H357 C367 0.930 1_455 S
C358 H352 0.930 . S
C358 C359 1.355 . S
C358 C360 1.415 . S
C359 C358 1.355 . S
C359 C361 1.419 . S
C360 C358 1.415 . S
C360 C365 1.425 . S
C360 C367 1.409 . S
C361 H353 0.930 . S
C361 C359 1.419 . S
C361 C362 1.362 . S
C362 H354 0.930 . S
C362 C361 1.362 . S
C362 C365 1.409 . S
C363 H355 0.930 . S
C363 C364 1.355 . S
C363 C365 1.415 . S
C364 C363 1.355 . S
C364 C366 1.419 1_655 S
C365 C360 1.425 . S
C365 C362 1.409 . S
C365 C363 1.415 . S
C366 H356 0.930 . S
C366 C364 1.419 1_455 S
C366 C367 1.362 1_455 S
C367 H357 0.930 1_655 S
C367 C360 1.409 . S
C367 C366 1.362 1_655 S
H368 C374 0.930 1_545 S
H369 C377 0.930 . S
H370 C378 0.930 . S
H371 C379 0.930 . S
H372 C382 0.930 . S
H373 C383 0.930 1_545 S
C374 H368 0.930 1_565 S
C374 C375 1.355 . S
C374 C376 1.415 . S
C375 C374 1.355 . S
C375 C377 1.419 . S
C376 C374 1.415 . S
C376 C381 1.425 . S
C376 C383 1.409 . S
C377 H369 0.930 . S
C377 C375 1.419 . S
C377 C378 1.362 . S
C378 H370 0.930 . S
C378 C377 1.362 . S
C378 C381 1.409 . S
C379 H371 0.930 . S
C379 C380 1.355 . S
C379 C381 1.415 . S
C380 C379 1.355 . S
C380 C382 1.419 . S
C381 C376 1.425 . S
C381 C378 1.409 . S
C381 C379 1.415 . S
C382 H372 0.930 . S
C382 C380 1.419 . S
C382 C383 1.362 . S
C383 H373 0.930 1_565 S
C383 C376 1.409 . S
C383 C382 1.362 . S
H384 C390 0.930 1_545 S
H385 C393 0.930 . S
H386 C394 0.930 . S
H387 C395 0.930 . S
H388 C398 0.930 . S
H389 C399 0.930 1_545 S
C390 H384 0.930 1_565 S
C390 C391 1.355 . S
C390 C392 1.415 . S
C391 C390 1.355 . S
C391 C393 1.419 . S
C392 C390 1.415 . S
C392 C397 1.425 . S
C392 C399 1.409 . S
C393 H385 0.930 . S
C393 C391 1.419 . S
C393 C394 1.362 . S
C394 H386 0.930 . S
C394 C393 1.362 . S
C394 C397 1.409 . S
C395 H387 0.930 . S
C395 C396 1.355 . S
C395 C397 1.415 . S
C396 C395 1.355 . S
C396 C398 1.419 . S
C397 C392 1.425 . S
C397 C394 1.409 . S
C397 C395 1.415 . S
C398 H388 0.930 . S
C398 C396 1.419 . S
C398 C399 1.362 . S
C399 H389 0.930 1_565 S
C399 C392 1.409 . S
C399 C398 1.362 . S
H400 C406 0.930 . S
H401 C409 0.930 . S
H402 C410 0.930 . S
H403 C411 0.930 . S
H404 C414 0.930 . S
H405 C415 0.930 . S
C406 H400 0.930 . S
C406 C407 1.355 . S
C406 C408 1.415 . S
C407 C406 1.355 . S
C407 C409 1.419 . S
C408 C406 1.415 . S
C408 C413 1.425 . S
C408 C415 1.409 . S
C409 H401 0.930 . S
C409 C407 1.419 . S
C409 C410 1.362 . S
C410 H402 0.930 . S
C410 C409 1.362 . S
C410 C413 1.409 . S
C411 H403 0.930 . S
C411 C412 1.355 . S
C411 C413 1.415 . S
C412 C411 1.355 . S
C412 C414 1.419 . S
C413 C408 1.425 . S
C413 C410 1.409 . S
C413 C411 1.415 . S
C414 H404 0.930 . S
C414 C412 1.419 . S
C414 C415 1.362 . S
C415 H405 0.930 . S
C415 C408 1.409 . S
C415 C414 1.362 . S
H416 C422 0.930 . S
H417 C425 0.930 . S
H418 C426 0.930 1_655 S
H419 C427 0.930 1_655 S
H420 C430 0.930 . S
H421 C431 0.930 . S
C422 H416 0.930 . S
C422 C423 1.355 . S
C422 C424 1.415 . S
C423 C422 1.355 . S
C423 C425 1.419 . S
C424 C422 1.415 . S
C424 C429 1.425 . S
C424 C431 1.409 . S
C425 H417 0.930 . S
C425 C423 1.419 . S
C425 C426 1.362 . S
C426 H418 0.930 1_455 S
C426 C425 1.362 . S
C426 C429 1.409 . S
C427 H419 0.930 1_455 S
C427 C428 1.355 . S
C427 C429 1.415 . S
C428 C427 1.355 . S
C428 C430 1.419 . S
C429 C424 1.425 . S
C429 C426 1.409 . S
C429 C427 1.415 . S
C430 H420 0.930 . S
C430 C428 1.419 . S
C430 C431 1.362 . S
C431 H421 0.930 . S
C431 C424 1.409 . S
C431 C430 1.362 . S
H432 C438 0.930 . S
H433 C441 0.930 . S
H434 C442 0.930 . S
H435 C443 0.930 . S
H436 C446 0.930 . S
H437 C447 0.930 . S
C438 H432 0.930 . S
C438 C439 1.355 . S
C438 C440 1.415 . S
C439 C438 1.355 . S
C439 C441 1.419 . S
C440 C438 1.415 . S
C440 C445 1.425 . S
C440 C447 1.409 1_455 S
C441 H433 0.930 . S
C441 C439 1.419 . S
C441 C442 1.362 . S
C442 H434 0.930 . S
C442 C441 1.362 . S
C442 C445 1.409 . S
C443 H435 0.930 . S
C443 C444 1.355 . S
C443 C445 1.415 . S
C444 C443 1.355 . S
C444 C446 1.419 1_455 S
C445 C440 1.425 . S
C445 C442 1.409 . S
C445 C443 1.415 . S
C446 H436 0.930 . S
C446 C444 1.419 1_655 S
C446 C447 1.362 . S
C447 H437 0.930 . S
C447 C440 1.409 1_655 S
C447 C446 1.362 . S
H448 C454 0.930 . S
H449 C457 0.930 . S
H450 C458 0.930 . S
H451 C459 0.930 . S
H452 C462 0.930 . S
H453 C463 0.930 . S
C454 H448 0.930 . S
C454 C455 1.355 . S
C454 C456 1.415 . S
C455 C454 1.355 . S
C455 C457 1.419 . S
C456 C454 1.415 . S
C456 C461 1.425 . S
C456 C463 1.409 1_545 S
C457 H449 0.930 . S
C457 C455 1.419 . S
C457 C458 1.362 . S
C458 H450 0.930 . S
C458 C457 1.362 . S
C458 C461 1.409 . S
C459 H451 0.930 . S
C459 C460 1.355 . S
C459 C461 1.415 . S
C460 C459 1.355 . S
C460 C462 1.419 1_545 S
C461 C456 1.425 . S
C461 C458 1.409 . S
C461 C459 1.415 . S
C462 H452 0.930 . S
C462 C460 1.419 1_565 S
C462 C463 1.362 . S
C463 H453 0.930 . S
C463 C456 1.409 1_565 S
C463 C462 1.362 . S
H464 C470 0.930 . S
H465 C473 0.930 . S
H466 C474 0.930 . S
H467 C475 0.930 . S
H468 C478 0.930 . S
H469 C479 0.930 . S
C470 H464 0.930 . S
C470 C471 1.355 . S
C470 C472 1.415 . S
C471 C470 1.355 . S
C471 C473 1.419 . S
C472 C470 1.415 . S
C472 C477 1.425 . S
C472 C479 1.409 . S
C473 H465 0.930 . S
C473 C471 1.419 . S
C473 C474 1.362 . S
C474 H466 0.930 . S
C474 C473 1.362 . S
C474 C477 1.409 . S
C475 H467 0.930 . S
C475 C476 1.355 . S
C475 C477 1.415 . S
C476 C475 1.355 . S
C476 C478 1.419 . S
C477 C472 1.425 . S
C477 C474 1.409 . S
C477 C475 1.415 . S
C478 H468 0.930 . S
C478 C476 1.419 . S
C478 C479 1.362 . S
C479 H469 0.930 . S
C479 C472 1.409 . S
C479 C478 1.362 . S
H480 C486 0.930 . S
H481 C489 0.930 . S
H482 C490 0.930 . S
H483 C491 0.930 . S
H484 C494 0.930 . S
H485 C495 0.930 . S
C486 H480 0.930 . S
C486 C487 1.355 . S
C486 C488 1.415 . S
C487 C486 1.355 . S
C487 C489 1.419 . S
C488 C486 1.415 . S
C488 C493 1.425 . S
C488 C495 1.409 . S
C489 H481 0.930 . S
C489 C487 1.419 . S
C489 C490 1.362 . S
C490 H482 0.930 . S
C490 C489 1.362 . S
C490 C493 1.409 . S
C491 H483 0.930 . S
C491 C492 1.355 . S
C491 C493 1.415 . S
C492 C491 1.355 . S
C492 C494 1.419 . S
C493 C488 1.425 . S
C493 C490 1.409 . S
C493 C491 1.415 . S
C494 H484 0.930 . S
C494 C492 1.419 . S
C494 C495 1.362 . S
C495 H485 0.930 . S
C495 C488 1.409 . S
C495 C494 1.362 . S
H496 C502 0.930 . S
H497 C505 0.930 . S
H498 C506 0.930 . S
H499 C507 0.930 . S
H500 C510 0.930 . S
H501 C511 0.930 . S
C502 H496 0.930 . S
C502 C503 1.355 . S
C502 C504 1.415 . S
C503 C502 1.355 . S
C503 C505 1.419 . S
C504 C502 1.415 . S
C504 C509 1.425 . S
C504 C511 1.409 . S
C505 H497 0.930 . S
C505 C503 1.419 . S
C505 C506 1.362 . S
C506 H498 0.930 . S
C506 C505 1.362 . S
C506 C509 1.409 . S
C507 H499 0.930 . S
C507 C508 1.355 . S
C507 C509 1.415 . S
C508 C507 1.355 . S
C508 C510 1.419 . S
C509 C504 1.425 . S
C509 C506 1.409 . S
C509 C507 1.415 . S
C510 H500 0.930 . S
C510 C508 1.419 . S
C510 C511 1.362 . S
C511 H501 0.930 . S
C511 C504 1.409 . S
C511 C510 1.362 . S
H512 C518 0.930 . S
H513 C521 0.930 . S
H514 C522 0.930 . S
H515 C523 0.930 . S
H516 C526 0.930 . S
H517 C527 0.930 . S
C518 H512 0.930 . S
C518 C519 1.355 . S
C518 C520 1.415 . S
C519 C518 1.355 . S
C519 C521 1.419 . S
C520 C518 1.415 . S
C520 C525 1.425 . S
C520 C527 1.409 . S
C521 H513 0.930 . S
C521 C519 1.419 . S
C521 C522 1.362 . S
C522 H514 0.930 . S
C522 C521 1.362 . S
C522 C525 1.409 . S
C523 H515 0.930 . S
C523 C524 1.355 . S
C523 C525 1.415 . S
C524 C523 1.355 . S
C524 C526 1.419 . S
C525 C520 1.425 . S
C525 C522 1.409 . S
C525 C523 1.415 . S
C526 H516 0.930 . S
C526 C524 1.419 . S
C526 C527 1.362 . S
C527 H517 0.930 . S
C527 C520 1.409 . S
C527 C526 1.362 . S
H528 C534 0.930 . S
H529 C537 0.930 . S
H530 C538 0.930 . S
H531 C539 0.930 . S
H532 C542 0.930 . S
H533 C543 0.930 . S
C534 H528 0.930 . S
C534 C535 1.355 . S
C534 C536 1.415 . S
C535 C534 1.355 . S
C535 C537 1.419 . S
C536 C534 1.415 . S
C536 C541 1.425 . S
C536 C543 1.409 . S
C537 H529 0.930 . S
C537 C535 1.419 . S
C537 C538 1.362 . S
C538 H530 0.930 . S
C538 C537 1.362 . S
C538 C541 1.409 . S
C539 H531 0.930 . S
C539 C540 1.355 . S
C539 C541 1.415 . S
C540 C539 1.355 . S
C540 C542 1.419 . S
C541 C536 1.425 . S
C541 C538 1.409 . S
C541 C539 1.415 . S
C542 H532 0.930 . S
C542 C540 1.419 . S
C542 C543 1.362 . S
C543 H533 0.930 . S
C543 C536 1.409 . S
C543 C542 1.362 . S
H544 C550 0.930 . S
H545 C553 0.930 . S
H546 C554 0.930 . S
H547 C555 0.930 . S
H548 C558 0.930 . S
H549 C559 0.930 . S
C550 H544 0.930 . S
C550 C551 1.355 . S
C550 C552 1.415 . S
C551 C550 1.355 . S
C551 C553 1.419 . S
C552 C550 1.415 . S
C552 C557 1.425 . S
C552 C559 1.409 . S
C553 H545 0.930 . S
C553 C551 1.419 . S
C553 C554 1.362 . S
C554 H546 0.930 . S
C554 C553 1.362 . S
C554 C557 1.409 . S
C555 H547 0.930 . S
C555 C556 1.355 . S
C555 C557 1.415 . S
C556 C555 1.355 . S
C556 C558 1.419 . S
C557 C552 1.425 . S
C557 C554 1.409 . S
C557 C555 1.415 . S
C558 H548 0.930 . S
C558 C556 1.419 . S
C558 C559 1.362 . S
C559 H549 0.930 . S
C559 C552 1.409 . S
C559 C558 1.362 . S
H560 C566 0.930 . S
H561 C569 0.930 . S
H562 C570 0.930 . S
H563 C571 0.930 . S
H564 C574 0.930 . S
H565 C575 0.930 . S
C566 H560 0.930 . S
C566 C567 1.355 . S
C566 C568 1.415 . S
C567 C566 1.355 . S
C567 C569 1.419 . S
C568 C566 1.415 . S
C568 C573 1.425 . S
C568 C575 1.409 . S
C569 H561 0.930 . S
C569 C567 1.419 . S
C569 C570 1.362 . S
C570 H562 0.930 . S
C570 C569 1.362 . S
C570 C573 1.409 . S
C571 H563 0.930 . S
C571 C572 1.355 . S
C571 C573 1.415 . S
C572 C571 1.355 . S
C572 C574 1.419 . S
C573 C568 1.425 . S
C573 C570 1.409 . S
C573 C571 1.415 . S
C574 H564 0.930 . S
C574 C572 1.419 . S
C574 C575 1.362 . S
C575 H565 0.930 . S
C575 C568 1.409 . S
C575 C574 1.362 . S
H576 C582 0.930 . S
H577 C585 0.930 . S
H578 C586 0.930 . S
H579 C587 0.930 . S
H580 C590 0.930 . S
H581 C591 0.930 . S
C582 H576 0.930 . S
C582 C583 1.355 . S
C582 C584 1.415 . S
C583 C582 1.355 . S
C583 C585 1.419 . S
C584 C582 1.415 . S
C584 C589 1.425 . S
C584 C591 1.409 . S
C585 H577 0.930 . S
C585 C583 1.419 . S
C585 C586 1.362 . S
C586 H578 0.930 . S
C586 C585 1.362 . S
C586 C589 1.409 . S
C587 H579 0.930 . S
C587 C588 1.355 . S
C587 C589 1.415 . S
C588 C587 1.355 . S
C588 C590 1.419 . S
C589 C584 1.425 . S
C589 C586 1.409 . S
C589 C587 1.415 . S
C590 H580 0.930 . S
C590 C588 1.419 . S
C590 C591 1.362 . S
C591 H581 0.930 . S
C591 C584 1.409 . S
C591 C590 1.362 . S
H592 C598 0.930 . S
H593 C601 0.930 . S
H594 C602 0.930 . S
H595 C603 0.930 . S
H596 C606 0.930 . S
H597 C607 0.930 . S
C598 H592 0.930 . S
C598 C599 1.355 . S
C598 C600 1.415 . S
C599 C598 1.355 . S
C599 C601 1.419 . S
C600 C598 1.415 . S
C600 C605 1.425 . S
C600 C607 1.409 . S
C601 H593 0.930 . S
C601 C599 1.419 . S
C601 C602 1.362 . S
C602 H594 0.930 . S
C602 C601 1.362 . S
C602 C605 1.409 . S
C603 H595 0.930 . S
C603 C604 1.355 . S
C603 C605 1.415 . S
C604 C603 1.355 . S
C604 C606 1.419 . S
C605 C600 1.425 . S
C605 C602 1.409 . S
C605 C603 1.415 . S
C606 H596 0.930 . S
C606 C604 1.419 . S
C606 C607 1.362 . S
C607 H597 0.930 . S
C607 C600 1.409 . S
C607 C606 1.362 . S
H608 C614 0.930 1_655 S
H609 C617 0.930 . S
H610 C618 0.930 . S
H611 C619 0.930 1_455 S
H612 C622 0.930 . S
H613 C623 0.930 . S
C614 H608 0.930 1_455 S
C614 C615 1.355 . S
C614 C616 1.415 1_455 S
C615 C614 1.355 . S
C615 C617 1.419 . S
C616 C614 1.415 1_655 S
C616 C621 1.425 1_654 S
C616 C623 1.409 . S
C617 H609 0.930 . S
C617 C615 1.419 . S
C617 C618 1.362 1_554 S
C618 H610 0.930 . S
C618 C617 1.362 1_556 S
C618 C621 1.409 . S
C619 H611 0.930 1_655 S
C619 C620 1.355 . S
C619 C621 1.415 1_655 S
C620 C619 1.355 . S
C620 C622 1.419 . S
C621 C616 1.425 1_456 S
C621 C618 1.409 . S
C621 C619 1.415 1_455 S
C622 H612 0.930 . S
C622 C620 1.419 . S
C622 C623 1.362 1_556 S
C623 H613 0.930 . S
C623 C616 1.409 . S
C623 C622 1.362 1_554 S
H624 C630 0.930 1_655 S
H625 C633 0.930 . S
H626 C634 0.930 . S
H627 C635 0.930 1_455 S
H628 C638 0.930 . S
H629 C639 0.930 . S
C630 H624 0.930 1_455 S
C630 C631 1.355 . S
C630 C632 1.415 1_455 S
C631 C630 1.355 . S
C631 C633 1.419 . S
C632 C630 1.415 1_655 S
C632 C637 1.425 1_666 S
C632 C639 1.409 . S
C633 H625 0.930 . S
C633 C631 1.419 . S
C633 C634 1.362 1_566 S
C634 H626 0.930 . S
C634 C633 1.362 1_544 S
C634 C637 1.409 . S
C635 H627 0.930 1_655 S
C635 C636 1.355 . S
C635 C637 1.415 1_655 S
C636 C635 1.355 . S
C636 C638 1.419 . S
C637 C632 1.425 1_444 S
C637 C634 1.409 . S
C637 C635 1.415 1_455 S
C638 H628 0.930 . S
C638 C636 1.419 . S
C638 C639 1.362 1_544 S
C639 H629 0.930 . S
C639 C632 1.409 . S
C639 C638 1.362 1_566 S
H640 C646 0.930 . S
H641 C649 0.930 . S
H642 C650 0.930 . S
H643 C651 0.930 . S
H644 C654 0.930 . S
H645 C655 0.930 . S
C646 H640 0.930 . S
C646 C647 1.355 . S
C646 C648 1.415 1_554 S
C647 C646 1.355 . S
C647 C649 1.419 . S
C648 C646 1.415 1_556 S
C648 C653 1.425 1_566 S
C648 C655 1.409 . S
C649 H641 0.930 . S
C649 C647 1.419 . S
C649 C650 1.362 1_565 S
C650 H642 0.930 . S
C650 C649 1.362 1_545 S
C650 C653 1.409 . S
C651 H643 0.930 . S
C651 C652 1.355 . S
C651 C653 1.415 1_556 S
C652 C651 1.355 . S
C652 C654 1.419 . S
C653 C648 1.425 1_544 S
C653 C650 1.409 . S
C653 C651 1.415 1_554 S
C654 H644 0.930 . S
C654 C652 1.419 . S
C654 C655 1.362 1_545 S
C655 H645 0.930 . S
C655 C648 1.409 . S
C655 C654 1.362 1_565 S
H656 C662 0.930 . S
H657 C665 0.930 . S
H658 C666 0.930 . S
H659 C667 0.930 . S
H660 C670 0.930 . S
H661 C671 0.930 . S
C662 H656 0.930 . S
C662 C663 1.355 . S
C662 C664 1.415 . S
C663 C662 1.355 . S
C663 C665 1.419 . S
C664 C662 1.415 . S
C664 C669 1.425 1_556 S
C664 C671 1.409 . S
C665 H657 0.930 . S
C665 C663 1.419 . S
C665 C666 1.362 1_556 S
C666 H658 0.930 . S
C666 C665 1.362 1_554 S
C666 C669 1.409 . S
C667 H659 0.930 . S
C667 C668 1.355 . S
C667 C669 1.415 . S
C668 C667 1.355 . S
C668 C670 1.419 . S
C669 C664 1.425 1_554 S
C669 C666 1.409 . S
C669 C667 1.415 . S
C670 H660 0.930 . S
C670 C668 1.419 . S
C670 C671 1.362 1_554 S
C671 H661 0.930 . S
C671 C664 1.409 . S
C671 C670 1.362 1_556 S
H672 C678 0.930 . S
H673 C681 0.930 . S
H674 C682 0.930 . S
H675 C683 0.930 . S
H676 C686 0.930 . S
H677 C687 0.930 . S
C678 H672 0.930 . S
C678 C679 1.355 . S
C678 C680 1.403 1_465 S
C679 C678 1.355 . S
C679 C681 1.419 . S
C680 C678 1.403 1_645 S
C680 C685 1.424 1_645 S
C680 C687 1.421 . S
C681 H673 0.930 . S
C681 C679 1.419 . S
C681 C682 1.362 . S
C682 H674 0.930 . S
C682 C681 1.362 . S
C682 C685 1.421 . S
C683 H675 0.930 . S
C683 C684 1.355 . S
C683 C685 1.403 1_645 S
C684 C683 1.355 . S
C684 C686 1.419 . S
C685 C680 1.424 1_465 S
C685 C682 1.421 . S
C685 C683 1.403 1_465 S
C686 H676 0.930 . S
C686 C684 1.419 . S
C686 C687 1.362 . S
C687 H677 0.930 . S
C687 C680 1.421 . S
C687 C686 1.362 . S
H688 C694 0.930 . S
H689 C697 0.928 1_565 S
H690 C698 0.930 . S
H691 C699 0.930 . S
H692 C702 0.928 1_545 S
H693 C703 0.930 . S
C694 H688 0.930 . S
C694 C695 1.355 . S
C694 C696 1.415 . S
C695 C694 1.355 . S
C695 C697 1.419 . S
C696 C694 1.415 . S
C696 C701 1.425 1_545 S
C696 C703 1.409 . S
C697 H689 0.928 1_545 S
C697 C695 1.419 . S
C697 C698 1.362 1_545 S
C698 H690 0.930 . S
C698 C697 1.362 1_565 S
C698 C701 1.409 . S
C699 H691 0.930 . S
C699 C700 1.355 . S
C699 C701 1.415 . S
C700 C699 1.355 . S
C700 C702 1.419 . S
C701 C696 1.425 1_565 S
C701 C698 1.409 . S
C701 C699 1.415 . S
C702 H692 0.928 1_565 S
C702 C700 1.419 . S
C702 C703 1.362 1_565 S
C703 H693 0.930 . S
C703 C696 1.409 . S
C703 C702 1.362 1_545 S
H704 C710 0.930 . S
H705 C713 0.930 . S
H706 C714 0.930 . S
H707 C715 0.930 . S
H708 C718 0.930 . S
H709 C719 0.930 . S
C710 H704 0.930 . S
C710 C711 1.355 . S
C710 C712 1.415 . S
C711 C710 1.355 . S
C711 C713 1.419 . S
C712 C710 1.415 . S
C712 C717 1.425 . S
C712 C719 1.409 . S
C713 H705 0.930 . S
C713 C711 1.419 . S
C713 C714 1.362 . S
C714 H706 0.930 . S
C714 C713 1.362 . S
C714 C717 1.409 . S
C715 H707 0.930 . S
C715 C716 1.355 . S
C715 C717 1.415 . S
C716 C715 1.355 . S
C716 C718 1.419 . S
C717 C712 1.425 . S
C717 C714 1.409 . S
C717 C715 1.415 . S
C718 H708 0.930 . S
C718 C716 1.419 . S
C718 C719 1.362 . S
C719 H709 0.930 . S
C719 C712 1.409 . S
C719 C718 1.362 . S
H720 C726 0.930 1_455 S
H721 C729 0.930 . S
H722 C730 0.930 . S
H723 C731 0.930 1_655 S
H724 C734 0.930 . S
H725 C735 0.930 . S
C726 H720 0.930 1_655 S
C726 C727 1.355 . S
C726 C728 1.415 1_655 S
C727 C726 1.355 . S
C727 C729 1.419 . S
C728 C726 1.415 1_455 S
C728 C733 1.425 1_455 S
C728 C735 1.409 . S
C729 H721 0.930 . S
C729 C727 1.419 . S
C729 C730 1.362 . S
C730 H722 0.930 . S
C730 C729 1.362 . S
C730 C733 1.409 . S
C731 H723 0.930 1_455 S
C731 C732 1.355 . S
C731 C733 1.415 1_455 S
C732 C731 1.355 . S
C732 C734 1.419 . S
C733 C728 1.425 1_655 S
C733 C730 1.409 . S
C733 C731 1.415 1_655 S
C734 H724 0.930 . S
C734 C732 1.419 . S
C734 C735 1.362 . S
C735 H725 0.930 . S
C735 C728 1.409 . S
C735 C734 1.362 . S
C231 C1 1.910 . S
C236 C41 1.919 . S
C247 C26 1.908 . S
C252 C54 1.929 . S
C263 C57 1.935 . S
C268 C96 1.906 . S
C279 C110 1.944 . S
C284 C82 1.908 . S
C295 C125 1.944 . S
C300 C153 1.925 . S
C311 C167 1.906 . S
C316 C127 1.940 . S
C327 C209 1.906 . S
C332 C180 1.931 . S
C343 C223 1.911 . S
C348 C183 1.946 . S
C359 C111 1.643 . S
C364 C0 1.640 1_655 S
C375 C27 1.715 1_565 S
C380 C56 1.717 1_655 S
C391 C83 1.715 1_565 S
C396 C40 1.717 . S
C407 C55 1.688 . S
C412 C97 1.699 . S
C423 C222 1.699 . S
C428 C124 1.708 1_455 S
C439 C126 1.640 1_545 S
C444 C181 1.639 1_455 S
C455 C152 1.641 . S
C460 C182 1.637 1_545 S
C471 C208 1.645 . S
C476 C166 1.654 . S
C487 C12 0.622 . S
C492 C68 0.630 . S
C503 C15 0.634 . S
C508 C71 0.621 . S
C519 C85 0.619 . S
C524 C28 0.678 . S
C535 C43 0.629 . S
C540 C99 0.688 . S
C551 C169 0.629 . S
C556 C112 0.624 . S
C567 C194 0.613 . S
C572 C138 0.652 . S
C583 C140 0.690 . S
C588 C196 0.665 . S
C599 C154 0.650 . S
C604 C210 0.614 . S
C615 C13 1.800 . S
C620 C113 1.800 . S
C631 C139 1.772 . S
C636 C14 1.772 . S
C647 C29 1.785 . S
C652 C141 1.785 . S
C663 C155 1.776 . S
C668 C42 1.776 . S
C679 C69 1.800 . S
C684 C168 1.800 . S
C695 C70 1.776 . S
C700 C195 1.776 . S
C711 C197 1.763 . S
C716 C84 1.763 . S
C727 C98 1.786 . S
C732 C211 1.786 . S
