# Generated by pormake.
# Topology zfk, (5)-cn, num edge types: 1
# Building blocks:
#     Node 0, Type 0, BuildingBlock: BEQFEK_clean_sbu_0, # of connection points: 5
#     Node 1, Type 0, BuildingBlock: BEQFEK_clean_sbu_0, # of connection points: 5
#     Node 2, Type 0, BuildingBlock: BEQFEK_clean_sbu_0, # of connection points: 5
#     Node 3, Type 0, BuildingBlock: BEQFEK_clean_sbu_0, # of connection points: 5
#     Node 4, Type 0, BuildingBlock: BEQFEK_clean_sbu_0, # of connection points: 5
#     Node 5, Type 0, BuildingBlock: BEQFEK_clean_sbu_0, # of connection points: 5
#     Node 6, Type 0, BuildingBlock: BEQFEK_clean_sbu_0, # of connection points: 5
#     Node 7, Type 0, BuildingBlock: BEQFEK_clean_sbu_0, # of connection points: 5
#     Node 8, Type 0, BuildingBlock: BEQFEK_clean_sbu_0, # of connection points: 5
#     Node 9, Type 0, BuildingBlock: BEQFEK_clean_sbu_0, # of connection points: 5
#     Node 10, Type 0, BuildingBlock: BEQFEK_clean_sbu_0, # of connection points: 5
#     Node 11, Type 0, BuildingBlock: BEQFEK_clean_sbu_0, # of connection points: 5
#     Node 12, Type 0, BuildingBlock: BEQFEK_clean_sbu_0, # of connection points: 5
#     Node 13, Type 0, BuildingBlock: BEQFEK_clean_sbu_0, # of connection points: 5
#     Node 14, Type 0, BuildingBlock: BEQFEK_clean_sbu_0, # of connection points: 5
#     Node 15, Type 0, BuildingBlock: BEQFEK_clean_sbu_0, # of connection points: 5
#     Edge 16, Type (0, 0), BuildingBlock: KIFKEQ_clean_linker_1, # of connection points: 2
#     Edge 17, Type (0, 0), BuildingBlock: KIFKEQ_clean_linker_1, # of connection points: 2
#     Edge 18, Type (0, 0), BuildingBlock: KIFKEQ_clean_linker_1, # of connection points: 2
#     Edge 19, Type (0, 0), BuildingBlock: KIFKEQ_clean_linker_1, # of connection points: 2
#     Edge 20, Type (0, 0), BuildingBlock: KIFKEQ_clean_linker_1, # of connection points: 2
#     Edge 21, Type (0, 0), BuildingBlock: KIFKEQ_clean_linker_1, # of connection points: 2
#     Edge 22, Type (0, 0), BuildingBlock: KIFKEQ_clean_linker_1, # of connection points: 2
#     Edge 23, Type (0, 0), BuildingBlock: KIFKEQ_clean_linker_1, # of connection points: 2
#     Edge 24, Type (0, 0), BuildingBlock: KIFKEQ_clean_linker_1, # of connection points: 2
#     Edge 25, Type (0, 0), BuildingBlock: KIFKEQ_clean_linker_1, # of connection points: 2
#     Edge 26, Type (0, 0), BuildingBlock: KIFKEQ_clean_linker_1, # of connection points: 2
#     Edge 27, Type (0, 0), BuildingBlock: KIFKEQ_clean_linker_1, # of connection points: 2
#     Edge 28, Type (0, 0), BuildingBlock: KIFKEQ_clean_linker_1, # of connection points: 2
#     Edge 29, Type (0, 0), BuildingBlock: KIFKEQ_clean_linker_1, # of connection points: 2
#     Edge 30, Type (0, 0), BuildingBlock: KIFKEQ_clean_linker_1, # of connection points: 2
#     Edge 31, Type (0, 0), BuildingBlock: KIFKEQ_clean_linker_1, # of connection points: 2
#     Edge 32, Type (0, 0), BuildingBlock: KIFKEQ_clean_linker_1, # of connection points: 2
#     Edge 33, Type (0, 0), BuildingBlock: KIFKEQ_clean_linker_1, # of connection points: 2
#     Edge 34, Type (0, 0), BuildingBlock: KIFKEQ_clean_linker_1, # of connection points: 2
#     Edge 35, Type (0, 0), BuildingBlock: KIFKEQ_clean_linker_1, # of connection points: 2
#     Edge 36, Type (0, 0), BuildingBlock: KIFKEQ_clean_linker_1, # of connection points: 2
#     Edge 37, Type (0, 0), BuildingBlock: KIFKEQ_clean_linker_1, # of connection points: 2
#     Edge 38, Type (0, 0), BuildingBlock: KIFKEQ_clean_linker_1, # of connection points: 2
#     Edge 39, Type (0, 0), BuildingBlock: KIFKEQ_clean_linker_1, # of connection points: 2
#     Edge 40, Type (0, 0), BuildingBlock: KIFKEQ_clean_linker_1, # of connection points: 2
#     Edge 41, Type (0, 0), BuildingBlock: KIFKEQ_clean_linker_1, # of connection points: 2
#     Edge 42, Type (0, 0), BuildingBlock: KIFKEQ_clean_linker_1, # of connection points: 2
#     Edge 43, Type (0, 0), BuildingBlock: KIFKEQ_clean_linker_1, # of connection points: 2
#     Edge 44, Type (0, 0), BuildingBlock: KIFKEQ_clean_linker_1, # of connection points: 2
#     Edge 45, Type (0, 0), BuildingBlock: KIFKEQ_clean_linker_1, # of connection points: 2
#     Edge 46, Type (0, 0), BuildingBlock: KIFKEQ_clean_linker_1, # of connection points: 2
#     Edge 47, Type (0, 0), BuildingBlock: KIFKEQ_clean_linker_1, # of connection points: 2
#     Edge 48, Type (0, 0), BuildingBlock: KIFKEQ_clean_linker_1, # of connection points: 2
#     Edge 49, Type (0, 0), BuildingBlock: KIFKEQ_clean_linker_1, # of connection points: 2
#     Edge 50, Type (0, 0), BuildingBlock: KIFKEQ_clean_linker_1, # of connection points: 2
#     Edge 51, Type (0, 0), BuildingBlock: KIFKEQ_clean_linker_1, # of connection points: 2
#     Edge 52, Type (0, 0), BuildingBlock: KIFKEQ_clean_linker_1, # of connection points: 2
#     Edge 53, Type (0, 0), BuildingBlock: KIFKEQ_clean_linker_1, # of connection points: 2
#     Edge 54, Type (0, 0), BuildingBlock: KIFKEQ_clean_linker_1, # of connection points: 2
#     Edge 55, Type (0, 0), BuildingBlock: KIFKEQ_clean_linker_1, # of connection points: 2
# Relax obj value: 0.168
# Max RMSD: 0.139
# Mean RMSD: 0.138
data_MOF--net-zfk--node1-BEQFEK_clean_sbu_0--edge1-KIFKEQ_clean_linker_1
_symmetry_space_group_name_H-M    P1
_symmetry_Int_Tables_number       1
_symmetry_cell_setting            triclinic
loop_
_symmetry_equiv_pos_as_xyz
'x, y, z'
_cell_length_a     31.314162
_cell_length_b     31.362147
_cell_length_c     75.679943
_cell_angle_alpha  89.978376
_cell_angle_beta   90.112435
_cell_angle_gamma 90.078429
loop_
_atom_site_label
_atom_site_type_symbol
_atom_site_fract_x
_atom_site_fract_y
_atom_site_fract_z
_atom_type_partial_charge
Co0 Co 0.01051 0.33034 0.10066 0.0
Co1 Co 0.03498 0.33796 0.14136 0.0
C2 C 0.99214 0.2613 0.12856 0.0
O3 O 0.99258 0.27768 0.11314 0.0
O4 O 0.00627 0.28168 0.14195 0.0
C5 C 0.95789 0.30255 0.07133 0.0
O6 O 0.93401 0.28552 0.08372 0.0
C7 C 0.04771 0.35094 0.18073 0.0
C8 C 0.10686 0.38937 0.17954 0.0
C9 C 0.07798 0.37172 0.19126 0.0
N10 N 0.05845 0.35657 0.16362 0.0
N11 N 0.09384 0.37954 0.16314 0.0
C12 C 0.01038 0.32496 0.18671 0.0
H13 H 0.00068 0.30206 0.17628 0.0
H14 H 0.98307 0.34652 0.18936 0.0
H15 H 0.01822 0.30761 0.19908 0.0
C16 C 0.98488 0.41983 0.10782 0.0
N17 N 0.99502 0.3803 0.11337 0.0
N18 N 0.00121 0.38124 0.13061 0.0
C19 C 0.99292 0.42076 0.1366 0.0
C20 C 0.98336 0.44688 0.12237 0.0
C21 C 0.9835 0.43258 0.0888 0.0
H22 H 0.96382 0.40942 0.08125 0.0
H23 H 0.97029 0.4652 0.0872 0.0
H24 H 0.01635 0.43167 0.08333 0.0
O25 O 0.0727 0.32701 0.09864 0.0
O26 O 0.08714 0.32958 0.12727 0.0
H27 H 0.03559 0.443 0.15667 0.0
H28 H 0.98249 0.46411 0.15834 0.0
C29 C 0.00124 0.43518 0.15514 0.0
H30 H 0.99247 0.40958 0.16455 0.0
H31 H 0.10921 0.38868 0.15152 0.0
O32 O 0.9891 0.32635 0.07578 0.0
C33 C 0.09925 0.32626 0.11132 0.0
Co34 Co 0.16285 0.01682 0.60454 0.0
Co35 Co 0.1589 0.03614 0.64561 0.0
C36 C 0.22265 0.97799 0.63316 0.0
O37 O 0.20846 0.98609 0.61772 0.0
O38 O 0.20438 0.99287 0.64689 0.0
C39 C 0.20377 -0.00043 0.5737 0.0
O40 O 0.23359 0.01357 0.58448 0.0
C41 C 0.14255 0.04799 0.68468 0.0
C42 C 0.11916 0.11444 0.68381 0.0
C43 C 0.12702 0.08096 0.69526 0.0
N44 N 0.14323 0.0616 0.66777 0.0
N45 N 0.12929 0.10135 0.66747 0.0
C46 C 0.15794 0.00512 0.69052 0.0
H47 H 0.18042 0.99166 0.6807 0.0
H48 H 0.13028 0.98317 0.69168 0.0
H49 H 0.17371 0.00738 0.70364 0.0
C50 C 0.06904 0.00784 0.61032 0.0
N51 N 0.10955 0.01194 0.61616 0.0
N52 N 0.10912 0.01708 0.63343 0.0
C53 C 0.06859 0.01482 0.63919 0.0
C54 C 0.04156 0.00995 0.62477 0.0
C55 C 0.05702 0.00685 0.59119 0.0
H56 H 0.08319 0.02005 0.58297 0.0
H57 H 0.05129 0.97331 0.58717 0.0
H58 H 0.02725 0.02522 0.58886 0.0
O59 O 0.1804 0.07674 0.60389 0.0
O60 O 0.18586 0.08424 0.63294 0.0
H61 H 0.05449 0.04993 0.66269 0.0
H62 H 0.0247 0.00091 0.66045 0.0
C63 C 0.0562 0.01627 0.65827 0.0
H64 H 0.08051 -0.00051 0.66632 0.0
H65 H 0.12642 0.11958 0.65599 0.0
O66 O 0.16568 -0.0035 0.57951 0.0
C67 C 0.19175 0.09805 0.61734 0.0
Co68 Co 0.46631 0.16091 0.1016 0.0
Co69 Co 0.4454 0.15639 0.14258 0.0
C70 C 0.50163 0.22348 0.12923 0.0
O71 O 0.49632 0.20823 0.11376 0.0
O72 O 0.4853 0.20554 0.14279 0.0
C73 C 0.51764 0.17761 0.07017 0.0
O74 O 0.54932 0.18579 0.08106 0.0
C75 C 0.43682 0.14113 0.18196 0.0
C76 C 0.37052 0.11684 0.18201 0.0
C77 C 0.40468 0.12567 0.19302 0.0
N78 N 0.42205 0.14095 0.1652 0.0
N79 N 0.38241 0.12643 0.16546 0.0
C80 C 0.47998 0.15722 0.18722 0.0
H81 H 0.49283 0.17899 0.17696 0.0
H82 H 0.50213 0.12984 0.18859 0.0
H83 H 0.47832 0.17388 0.20014 0.0
C84 C 0.47759 0.06762 0.10778 0.0
N85 N 0.47287 0.10802 0.11355 0.0
N86 N 0.46739 0.10751 0.1308 0.0
C87 C 0.47005 0.06708 0.13662 0.0
C88 C 0.4755 0.04016 0.12225 0.0
C89 C 0.47854 0.05551 0.08867 0.0
H90 H 0.46429 0.08108 0.08044 0.0
H91 H 0.51222 0.05098 0.08456 0.0
H92 H 0.46107 0.02517 0.08643 0.0
O93 O 0.40606 0.17701 0.10117 0.0
O94 O 0.39434 0.17719 0.12998 0.0
H95 H 0.43376 0.05301 0.15983 0.0
H96 H 0.4827 0.02301 0.15797 0.0
C97 C 0.46767 0.05456 0.15568 0.0
H98 H 0.48435 0.07868 0.16386 0.0
H99 H 0.36338 0.12277 0.15422 0.0
O100 O 0.48283 0.16261 0.07622 0.0
C101 C 0.38172 0.18366 0.11424 0.0
Co102 Co 0.33002 0.47379 0.60392 0.0
Co103 Co 0.34057 0.4569 0.64512 0.0
C104 C 0.26518 0.50031 0.63282 0.0
O105 O 0.2804 0.4957 0.61735 0.0
O106 O 0.28577 0.48801 0.64646 0.0
C107 C 0.28473 0.49231 0.57313 0.0
O108 O 0.25429 0.4802 0.58395 0.0
C109 C 0.35817 0.44817 0.68422 0.0
C110 C 0.40007 0.39156 0.68318 0.0
C111 C 0.38217 0.42052 0.6948 0.0
N112 N 0.36223 0.43586 0.66723 0.0
N113 N 0.3871 0.40188 0.66683 0.0
C114 C 0.33412 0.48702 0.6898 0.0
H115 H 0.33086 0.5095 0.67854 0.0
H116 H 0.35053 0.503 0.701 0.0
H117 H 0.30163 0.47749 0.69411 0.0
C118 C 0.42028 0.50077 0.60898 0.0
N119 N 0.38144 0.49038 0.61527 0.0
N120 N 0.38362 0.48746 0.63262 0.0
C121 C 0.4233 0.498 0.63791 0.0
C122 C 0.44814 0.50592 0.62315 0.0
C123 C 0.43159 0.50014 0.58981 0.0
H124 H 0.43169 0.46663 0.58509 0.0
H125 H 0.40705 0.51769 0.58213 0.0
H126 H 0.46354 0.51449 0.58751 0.0
O127 O 0.325 0.41151 0.60359 0.0
O128 O 0.32756 0.40342 0.63261 0.0
H129 H 0.44878 0.46099 0.65916 0.0
H130 H 0.46711 0.51522 0.65881 0.0
C131 C 0.43902 0.49437 0.65654 0.0
H132 H 0.41342 0.5036 0.66585 0.0
H133 H 0.39566 0.38592 0.65528 0.0
O134 O 0.32313 0.49324 0.57879 0.0
C135 C 0.32285 0.38799 0.61721 0.0
Co136 Co 0.00943 0.16306 0.91581 0.0
Co137 Co 0.03046 0.15316 0.87508 0.0
C138 C 0.98257 0.22619 0.88633 0.0
O139 O 0.98636 0.21167 0.90199 0.0
O140 O -0.00301 0.20579 0.87307 0.0
C141 C 0.96031 0.16088 0.95119 0.0
O142 O 0.93332 0.13077 0.94658 0.0
C143 C 0.04095 0.1357 0.83615 0.0
C144 C 0.09895 0.0957 0.83756 0.0
C145 C 0.06957 0.1125 0.82579 0.0
N146 N 0.05308 0.13224 0.85319 0.0
N147 N 0.08791 0.10855 0.85382 0.0
C148 C 0.0015 0.15849 0.83029 0.0
H149 H 0.97856 0.16118 0.84139 0.0
H150 H 0.98633 0.14156 0.81902 0.0
H151 H 0.01021 0.19116 0.82595 0.0
C152 C 0.99202 0.06987 0.91045 0.0
N153 N -0.00249 0.11012 0.90454 0.0
N154 N 0.0007 0.10922 0.88718 0.0
C155 C 0.99436 0.06922 0.88147 0.0
C156 C 0.99041 0.04253 0.89595 0.0
C157 C -0.00416 0.05722 0.92944 0.0
H158 H 0.00867 0.08397 0.93745 0.0
H159 H 0.9638 0.04829 0.93448 0.0
H160 H 0.01695 0.02899 0.9308 0.0
O161 O 0.071 0.17168 0.91691 0.0
O162 O 0.0831 0.16839 0.88813 0.0
H163 H 0.02533 0.04983 0.85752 0.0
H164 H 0.97312 0.02734 0.86065 0.0
C165 C 0.99272 0.05657 0.8624 0.0
H166 H 0.97887 0.08278 0.8544 0.0
H167 H 0.10389 0.10062 0.86548 0.0
O168 O 0.98921 0.17293 0.9405 0.0
C169 C 0.09621 0.17421 0.90386 0.0
Co170 Co 0.33003 0.01294 0.41456 0.0
Co171 Co 0.33875 0.02996 0.37344 0.0
C172 C 0.26285 0.98845 0.38617 0.0
O173 O 0.279 0.99273 0.40153 0.0
O174 O 0.28318 -3e-05 0.37237 0.0
C175 C 0.28653 0.00419 0.44552 0.0
O176 O 0.26084 0.02595 0.43515 0.0
C177 C 0.35489 0.03969 0.33429 0.0
C178 C 0.39828 0.09529 0.33549 0.0
C179 C 0.37922 0.06718 0.32378 0.0
N180 N 0.3599 0.05125 0.35133 0.0
N181 N 0.38564 0.08464 0.35183 0.0
C182 C 0.32965 0.00163 0.32856 0.0
H183 H 0.3262 0.97879 0.33968 0.0
H184 H 0.34524 0.98573 0.31717 0.0
H185 H 0.29727 0.01208 0.32446 0.0
C186 C 0.41955 0.98481 0.40891 0.0
N187 N 0.38046 -0.00466 0.40289 0.0
N188 N 0.3818 -0.00167 0.38553 0.0
C189 C 0.42112 0.98756 0.37997 0.0
C190 C 0.44669 0.9796 0.39455 0.0
C191 C 0.43196 0.98596 0.42798 0.0
H192 H 0.43416 0.01968 0.43233 0.0
H193 H 0.40701 0.97011 0.43604 0.0
H194 H 0.46328 0.97022 0.43014 0.0
O195 O 0.32675 0.07533 0.41521 0.0
O196 O 0.32722 0.08346 0.38619 0.0
H197 H 0.44651 0.0244 0.35866 0.0
H198 H 0.46347 0.96978 0.35875 0.0
C199 C 0.436 0.99121 0.36125 0.0
H200 H 0.40975 0.9827 0.35207 0.0
H201 H 0.39504 0.09994 0.36345 0.0
O202 O 0.32275 0.99284 0.43946 0.0
C203 C 0.32387 0.09892 0.40164 0.0
Co204 Co 0.46561 0.33522 0.91821 0.0
Co205 Co 0.44768 0.33882 0.87694 0.0
C206 C 0.49864 0.26933 0.89149 0.0
O207 O 0.49273 0.28569 0.90671 0.0
O208 O 0.4847 0.28742 0.8775 0.0
C209 C 0.51671 0.31949 0.94982 0.0
O210 O 0.54888 0.31271 0.93908 0.0
C211 C 0.44045 0.35233 0.83732 0.0
C212 C 0.37522 0.37921 0.83684 0.0
C213 C 0.40897 0.36826 0.82601 0.0
N214 N 0.42565 0.35421 0.85405 0.0
N215 N 0.38667 0.37031 0.85352 0.0
C216 C 0.48295 0.33435 0.83237 0.0
H217 H 0.49484 0.31272 0.84289 0.0
H218 H 0.50617 0.36084 0.83082 0.0
H219 H 0.48073 0.31704 0.81961 0.0
C220 C 0.48518 0.4266 0.91137 0.0
N221 N 0.47723 0.38655 0.90584 0.0
N222 N 0.47256 0.38678 0.88852 0.0
C223 C 0.47886 0.42666 0.88248 0.0
C224 C 0.48656 0.45333 0.89673 0.0
C225 C 0.48707 0.43943 0.93037 0.0
H226 H 0.50798 0.41707 0.93774 0.0
H227 H 0.49912 0.47254 0.93187 0.0
H228 H 0.45458 0.43717 0.93613 0.0
O229 O 0.40427 0.32346 0.91823 0.0
O230 O 0.39498 0.32203 0.88926 0.0
H231 H 0.43694 0.4411 0.861 0.0
H232 H 0.48532 0.47197 0.86097 0.0
C233 C 0.47173 0.44002 0.86371 0.0
H234 H 0.48669 0.41656 0.85472 0.0
H235 H 0.36778 0.37553 0.86464 0.0
O236 O 0.48156 0.3334 0.94366 0.0
C237 C 0.38062 0.31756 0.90483 0.0
Co238 Co 0.16183 0.46885 0.41365 0.0
Co239 Co 0.15674 0.44769 0.37266 0.0
C240 C 0.22256 0.50485 0.38483 0.0
O241 O 0.20828 0.49813 0.40035 0.0
O242 O 0.20374 0.48959 0.37125 0.0
C243 C 0.20207 0.49367 0.44469 0.0
O244 O 0.23427 0.4864 0.43403 0.0
C245 C 0.1395 0.43771 0.33371 0.0
C246 C 0.11417 0.37189 0.33393 0.0
C247 C 0.12228 0.40603 0.32282 0.0
N248 N 0.14085 0.42272 0.3504 0.0
N249 N 0.12605 0.38325 0.35031 0.0
C250 C 0.15139 0.48233 0.32878 0.0
H251 H 0.15117 0.50321 0.34062 0.0
H252 H 0.12905 0.49496 0.31865 0.0
H253 H 0.18412 0.48244 0.3232 0.0
C254 C 0.0687 0.48296 0.40762 0.0
N255 N 0.10868 0.47531 0.40185 0.0
N256 N 0.10758 0.46891 0.38464 0.0
C257 C 0.06713 0.47359 0.37889 0.0
C258 C 0.04114 0.48235 0.39321 0.0
C259 C 0.05709 0.48813 0.42664 0.0
H260 H 0.06193 0.4573 0.43356 0.0
H261 H 0.07863 0.51189 0.43288 0.0
H262 H 0.02335 0.4983 0.42816 0.0
O263 O 0.17815 0.40854 0.4146 0.0
O264 O 0.18227 0.39941 0.38559 0.0
H265 H 0.05435 0.43097 0.35751 0.0
H266 H 0.01966 0.47652 0.35797 0.0
C267 C 0.05286 0.46563 0.36029 0.0
H268 H 0.07438 0.48252 0.35104 0.0
H269 H 0.12317 0.3643 0.36158 0.0
O270 O 0.16414 0.48926 0.43877 0.0
C271 C 0.18838 0.38627 0.40128 0.0
Co272 Co 0.97608 0.65573 0.91534 0.0
Co273 Co 0.95424 0.65146 0.87432 0.0
C274 C -0.00166 0.72546 0.88816 0.0
O275 O -0.00436 0.70754 0.90318 0.0
O276 O 0.98496 0.70692 0.8742 0.0
C277 C 0.98745 0.69615 0.94662 0.0
O278 O 0.9645 0.72219 0.93687 0.0
C279 C 0.94357 0.63938 0.83483 0.0
C280 C 0.88195 0.60492 0.83521 0.0
C281 C 0.91279 0.62073 0.8239 0.0
N282 N 0.93123 0.6344 0.85178 0.0
N283 N 0.8944 0.61376 0.85178 0.0
C284 C 0.98297 0.66279 0.82932 0.0
H285 H 0.99345 0.68501 0.83988 0.0
H286 H 0.00895 0.63945 0.827 0.0
H287 H 0.97722 0.68056 0.81686 0.0
C288 C 0.00222 0.5672 0.9077 0.0
N289 N 0.99188 0.60677 0.90237 0.0
N290 N 0.98612 0.60662 0.8851 0.0
C291 C 0.9944 0.56731 0.87889 0.0
C292 C 0.00399 0.54079 0.89299 0.0
C293 C 0.00358 0.55377 0.92665 0.0
H294 H 0.02206 0.57739 0.93446 0.0
H295 H 0.01805 0.52165 0.92809 0.0
H296 H 0.97055 0.55308 0.93194 0.0
O297 O 0.9139 0.65969 0.91693 0.0
O298 O 0.90171 0.66115 0.8881 0.0
H299 H 0.95123 0.54791 0.85851 0.0
H300 H 0.00304 0.52355 0.8571 0.0
C301 C 0.98594 0.55351 0.86028 0.0
H302 H -0.0035 0.5787 0.851 0.0
H303 H 0.87763 0.60554 0.86318 0.0
O304 O -0.00161 0.66039 0.94003 0.0
C305 C 0.88847 0.66306 0.90394 0.0
Co306 Co 0.82723 0.97692 0.41515 0.0
Co307 Co 0.83903 0.95071 0.37492 0.0
C308 C 0.7631 -0.00309 0.38521 0.0
O309 O 0.778 -0.00368 0.40087 0.0
O310 O 0.78396 0.98112 0.37233 0.0
C311 C 0.78038 0.99348 0.44459 0.0
O312 O 0.75455 0.9726 0.43397 0.0
C313 C 0.85811 0.93917 0.33627 0.0
C314 C 0.89675 0.88035 0.33796 0.0
C315 C 0.88147 0.91031 0.3261 0.0
N316 N 0.86015 0.92673 0.3533 0.0
N317 N 0.8829 0.89132 0.3541 0.0
C318 C 0.83717 0.97951 0.33031 0.0
H319 H 0.83352 0.00183 0.34159 0.0
H320 H 0.85607 -0.00517 0.31966 0.0
H321 H 0.80493 0.97197 0.32506 0.0
C322 C 0.91763 0.00317 0.40974 0.0
N323 N 0.87906 0.99107 0.40361 0.0
N324 N 0.88191 0.98388 0.38649 0.0
C325 C 0.92179 0.99316 0.38111 0.0
C326 C 0.94599 0.00495 0.39565 0.0
C327 C 0.92828 0.00726 0.42892 0.0
H328 H 0.93009 0.97494 0.43485 0.0
H329 H 0.90258 0.025 0.4358 0.0
H330 H 0.95937 0.02371 0.43082 0.0
O331 O 0.8216 0.91497 0.41753 0.0
O332 O 0.82647 0.89941 0.38907 0.0
H333 H 0.94509 0.95011 0.3615 0.0
H334 H 0.96829 0.00243 0.36033 0.0
C335 C 0.93835 0.98463 0.36292 0.0
H336 H 0.91421 0.99425 0.353 0.0
H337 H 0.8898 0.87506 0.36579 0.0
O338 O 0.81842 0.0009 0.43942 0.0
C339 C 0.82082 0.88805 0.40502 0.0
Co340 Co 0.52289 0.83111 0.91441 0.0
Co341 Co 0.54296 0.83641 0.8734 0.0
C342 C 0.48769 0.76869 0.88663 0.0
O343 O 0.4932 0.78383 0.90211 0.0
O344 O 0.50368 0.78683 0.87305 0.0
C345 C 0.47276 0.81182 0.94581 0.0
O346 O 0.44206 0.80117 0.93481 0.0
C347 C 0.55075 0.8512 0.83408 0.0
C348 C 0.61342 0.88376 0.83409 0.0
C349 C 0.58064 0.8708 0.82304 0.0
N350 N 0.56542 0.85311 0.85083 0.0
N351 N 0.60302 0.87227 0.85061 0.0
C352 C 0.50791 0.83376 0.82915 0.0
H353 H 0.48649 0.8334 0.84082 0.0
H354 H 0.49343 0.85297 0.81837 0.0
H355 H 0.51172 0.80051 0.82442 0.0
C356 C 0.51074 0.92433 0.90847 0.0
N357 N 0.51556 0.88401 0.90264 0.0
N358 N 0.52018 0.88465 0.88534 0.0
C359 C 0.51656 0.92504 0.87957 0.0
C360 C 0.51172 0.95184 0.89401 0.0
C361 C 0.51081 0.93636 0.9276 0.0
H362 H 0.52531 0.91068 0.93569 0.0
H363 H 0.47738 0.94113 0.932 0.0
H364 H 0.52859 0.96658 0.9297 0.0
O365 O 0.58322 0.81566 0.91461 0.0
O366 O 0.59468 0.81624 0.88576 0.0
H367 H 0.55064 0.94123 0.856 0.0
H368 H 0.50037 0.96844 0.85844 0.0
C369 C 0.51715 0.93768 0.86049 0.0
H370 H 0.50135 0.91277 0.85241 0.0
H371 H 0.62132 0.87828 0.86187 0.0
O372 O 0.5066 0.82906 0.93984 0.0
C373 C 0.60753 0.80964 0.90146 0.0
Co374 Co 0.65895 0.52012 0.41329 0.0
Co375 Co 0.65182 0.54547 0.37272 0.0
C376 C 0.72321 0.49316 0.38462 0.0
O377 O 0.70756 0.49568 0.4001 0.0
O378 O 0.70425 0.50985 0.37137 0.0
C379 C 0.70116 0.5042 0.44406 0.0
O380 O 0.72918 0.52309 0.43378 0.0
C381 C 0.63487 0.55487 0.33368 0.0
C382 C 0.60483 0.6186 0.33393 0.0
C383 C 0.61571 0.58539 0.32278 0.0
N384 N 0.6346 0.56957 0.35043 0.0
N385 N 0.61699 0.60783 0.35035 0.0
C386 C 0.65007 0.51133 0.32871 0.0
H387 H 0.651 0.49031 0.34051 0.0
H388 H 0.62899 0.49726 0.31844 0.0
H389 H 0.68289 0.51375 0.3233 0.0
C390 C 0.56697 0.50114 0.40708 0.0
N391 N 0.60662 0.51013 0.40125 0.0
N392 N 0.60497 0.51765 0.38411 0.0
C393 C 0.56453 0.51208 0.37846 0.0
C394 C 0.53902 0.50195 0.3928 0.0
C395 C 0.55558 0.49658 0.42615 0.0
H396 H 0.55703 0.5284 0.43254 0.0
H397 H 0.57919 0.47573 0.43285 0.0
H398 H 0.52295 0.48323 0.42773 0.0
O399 O 0.66978 0.58153 0.41507 0.0
O400 O 0.66834 0.59637 0.38646 0.0
H401 H 0.54853 0.55722 0.35837 0.0
H402 H 0.51689 0.50946 0.35763 0.0
C403 C 0.54936 0.52216 0.36016 0.0
H404 H 0.57158 0.50819 0.3504 0.0
H405 H 0.61236 0.62631 0.36164 0.0
O406 O 0.6637 0.49756 0.43799 0.0
C407 C 0.67398 0.60777 0.40242 0.0
Co408 Co 0.98627 0.82354 0.10497 0.0
Co409 Co 0.96878 0.83289 0.14599 0.0
C410 C 0.01629 0.76026 0.13399 0.0
O411 O 0.01039 0.77499 0.11849 0.0
O412 O 0.004 0.78077 0.14763 0.0
C413 C -0.00043 0.77941 0.07438 0.0
O414 O 0.98213 0.75148 0.08512 0.0
C415 C 0.95839 0.85091 0.18488 0.0
C416 C 0.89825 0.88765 0.18351 0.0
C417 C 0.92888 0.87299 0.19522 0.0
N418 N 0.94559 0.85299 0.16789 0.0
N419 N 0.90947 0.87467 0.16729 0.0
C420 C -0.00063 0.83088 0.19068 0.0
H421 H 0.02194 0.8288 0.17942 0.0
H422 H 0.01397 0.84941 0.20164 0.0
H423 H 0.99279 0.79808 0.19547 0.0
C424 C 0.00779 0.91509 0.10968 0.0
N425 N -0.00053 0.87592 0.11611 0.0
N426 N -0.00433 0.8783 0.13342 0.0
C427 C 0.00332 0.91869 0.13857 0.0
C428 C 0.01052 0.94353 0.12372 0.0
C429 C 0.00807 0.9257 0.09042 0.0
H430 H 0.02703 0.9016 0.08314 0.0
H431 H 0.02143 0.95802 0.08808 0.0
H432 H 0.97486 0.92444 0.0853 0.0
O433 O 0.9243 0.81451 0.10441 0.0
O434 O 0.91697 0.8141 0.13348 0.0
H435 H 0.01584 0.96442 0.15935 0.0
H436 H 0.0092 0.9101 0.16657 0.0
C437 C -0.00218 0.93448 0.15708 0.0
H438 H 0.96354 0.94098 0.15952 0.0
H439 H 0.89275 0.88125 0.15566 0.0
O440 O 0.00634 0.81707 0.08008 0.0
C441 C 0.90171 0.80858 0.11808 0.0
Co442 Co 0.6546 0.9657 0.60015 0.0
Co443 Co 0.65305 0.94247 0.64104 0.0
C444 C 0.72292 0.99378 0.62715 0.0
O445 O 0.70565 0.98987 0.61197 0.0
O446 O 0.70503 0.97888 0.64099 0.0
C447 C 0.67742 0.01693 0.56995 0.0
O448 O 0.69839 0.03959 0.5817 0.0
C449 C 0.64112 0.93186 0.6805 0.0
C450 C 0.61365 0.8669 0.68035 0.0
C451 C 0.62494 0.89996 0.69152 0.0
N452 N 0.63881 0.91806 0.66363 0.0
N453 N 0.62252 0.87916 0.66378 0.0
C454 C 0.65963 0.97394 0.68578 0.0
H455 H 0.68139 0.98605 0.67538 0.0
H456 H 0.63341 -0.00267 0.68749 0.0
H457 H 0.67705 0.97106 0.69852 0.0
C458 C 0.56368 0.98381 0.60821 0.0
N459 N 0.6041 0.9758 0.61334 0.0
N460 N 0.60467 0.96912 0.63053 0.0
C461 C 0.56489 0.97417 0.63693 0.0
C462 C 0.5375 0.98309 0.62301 0.0
C463 C 0.55002 0.98741 0.58934 0.0
H464 H 0.57077 0.01073 0.58242 0.0
H465 H 0.51613 -0.00255 0.58824 0.0
H466 H 0.55419 0.95606 0.58277 0.0
O467 O 0.66554 0.90437 0.5984 0.0
O468 O 0.66841 0.89164 0.62716 0.0
H469 H 0.55161 0.92934 0.65746 0.0
H470 H 0.52018 0.97711 0.65875 0.0
C471 C 0.55223 0.96439 0.65556 0.0
H472 H 0.57581 0.97851 0.66477 0.0
H473 H 0.61694 0.861 0.65246 0.0
O474 O 0.65342 0.98666 0.5752 0.0
C475 C 0.67191 0.87915 0.61125 0.0
Co476 Co 0.52796 0.65783 0.09873 0.0
Co477 Co 0.53768 0.65319 0.14034 0.0
C478 C 0.48945 0.72248 0.12527 0.0
O479 O 0.49931 0.70683 0.11027 0.0
O480 O 0.49964 0.70363 0.13965 0.0
C481 C 0.47849 0.67045 0.06622 0.0
O482 O 0.44416 0.67043 0.07616 0.0
C483 C 0.54589 0.63995 0.18007 0.0
C484 C 0.60717 0.60504 0.17969 0.0
C485 C 0.57634 0.6207 0.191 0.0
N486 N 0.55853 0.63545 0.16312 0.0
N487 N 0.59513 0.61453 0.16314 0.0
C488 C 0.5068 0.66378 0.18554 0.0
H489 H 0.49683 0.68629 0.17501 0.0
H490 H 0.48045 0.64071 0.18776 0.0
H491 H 0.51269 0.68132 0.19805 0.0
C492 C 0.50804 0.56591 0.1044 0.0
N493 N 0.51448 0.60595 0.11028 0.0
N494 N 0.51524 0.60554 0.1277 0.0
C495 C 0.50746 0.56563 0.1334 0.0
C496 C 0.50339 0.53899 0.11888 0.0
C497 C 0.51039 0.55331 0.08538 0.0
H498 H 0.54416 0.55481 0.081 0.0
H499 H 0.49188 0.57619 0.07724 0.0
H500 H 0.49801 0.52049 0.08333 0.0
O501 O 0.58931 0.66921 0.10021 0.0
O502 O 0.59095 0.67327 0.12936 0.0
H503 H 0.54297 0.5457 0.15608 0.0
H504 H 0.49047 0.52297 0.15476 0.0
C505 C 0.50933 0.55231 0.15239 0.0
H506 H 0.49674 0.57809 0.16091 0.0
H507 H 0.6121 0.60677 0.15174 0.0
O508 O 0.51457 0.66172 0.07307 0.0
C509 C 0.60895 0.67764 0.11445 0.0
Co510 Co 0.83045 0.51276 0.60229 0.0
Co511 Co 0.84046 0.54051 0.64248 0.0
C512 C 0.76514 0.49293 0.63151 0.0
O513 O 0.78051 0.49289 0.61595 0.0
O514 O 0.78549 0.50949 0.64441 0.0
C515 C 0.78642 0.49836 0.57184 0.0
O516 O 0.75994 0.51915 0.58216 0.0
C517 C 0.85707 0.55175 0.6814 0.0
C518 C 0.89331 0.61223 0.68045 0.0
C519 C 0.87841 0.58142 0.69202 0.0
N520 N 0.85983 0.56464 0.66444 0.0
N521 N 0.88123 0.60096 0.66408 0.0
C522 C 0.83718 0.51044 0.68686 0.0
H523 H 0.83516 0.48836 0.67543 0.0
H524 H 0.8559 0.49551 0.69768 0.0
H525 H 0.80432 0.51655 0.69168 0.0
C526 C 0.92066 0.48732 0.60864 0.0
N527 N 0.88186 0.49945 0.61438 0.0
N528 N 0.88417 0.50767 0.63145 0.0
C529 C 0.92398 0.49919 0.63716 0.0
C530 C 0.94861 0.48665 0.62291 0.0
C531 C 0.93189 0.4822 0.58957 0.0
H532 H 0.90679 0.46331 0.58277 0.0
H533 H 0.9634 0.46645 0.58803 0.0
H534 H 0.93305 0.51414 0.58327 0.0
O535 O 0.82452 0.57459 0.59978 0.0
O536 O 0.82835 0.59163 0.62813 0.0
H537 H 0.97079 0.49297 0.65811 0.0
H538 H 0.9163 0.49879 0.66526 0.0
C539 C 0.94006 0.50919 0.65533 0.0
H540 H 0.94511 0.54405 0.65655 0.0
H541 H 0.88823 0.61781 0.65255 0.0
O542 O 0.82348 0.48941 0.57781 0.0
C543 C 0.82319 0.60212 0.61204 0.0
H544 H 0.9203 0.13363 0.98153 0.0
H545 H 0.9909 0.23946 0.95966 0.0
H546 H 0.91714 0.17032 0.01 0.0
H547 H 0.98592 0.277 0.98756 0.0
H548 H 0.01576 0.31109 0.04458 0.0
H549 H 0.01421 0.27755 0.01573 0.0
H550 H 0.88886 0.2263 0.02691 0.0
H551 H 0.89156 0.25834 0.05627 0.0
C552 C 0.93471 0.16491 0.98275 0.0
C553 C 0.95629 0.18332 0.96839 0.0
C554 C 0.93266 0.1862 0.99905 0.0
C555 C 0.95156 0.22674 1.00127 0.0
C556 C 0.97195 0.24548 0.98665 0.0
C557 C 0.97462 0.22396 0.97053 0.0
C558 C 0.98758 0.29317 0.04082 0.0
C559 C 0.9538 0.28745 0.05279 0.0
C560 C 0.98657 0.2739 0.02416 0.0
C561 C 0.95142 0.24887 0.01882 0.0
C562 C 0.91689 0.24451 0.03059 0.0
C563 C 0.91819 0.26333 0.04739 0.0
H564 H 0.33119 0.96239 0.47171 0.0
H565 H 0.21158 0.02608 0.46114 0.0
H566 H 0.30972 0.95246 0.50252 0.0
H567 H 0.19087 0.01746 0.49175 0.0
H568 H 0.15042 0.97776 0.5461 0.0
H569 H 0.16964 0.97043 0.51492 0.0
H570 H 0.30157 -0.00365 0.52797 0.0
H571 H 0.28273 0.00222 0.55889 0.0
C572 C 0.30032 0.97409 0.47593 0.0
C573 C 0.27333 -0.00466 0.46398 0.0
C574 C 0.28803 0.96859 0.4936 0.0
C575 C 0.24854 0.98431 0.49971 0.0
C576 C 0.22116 0.00433 0.48756 0.0
C577 C 0.23333 0.00968 0.46996 0.0
C578 C 0.18356 0.98125 0.5423 0.0
C579 C 0.2149 0.99099 0.55498 0.0
C580 C 0.19461 0.97731 0.52442 0.0
C581 C 0.2372 0.98309 0.51885 0.0
C582 C 0.26861 0.99112 0.5317 0.0
C583 C 0.25763 -0.00508 0.54949 0.0
H584 H 0.45088 0.21081 0.05207 0.0
H585 H 0.58598 0.18653 0.04779 0.0
H586 H 0.4517 0.24767 0.02408 0.0
H587 H 0.58658 0.22026 0.01867 0.0
H588 H 0.58402 0.31505 0.97306 0.0
H589 H 0.585 0.28096 1.00211 0.0
H590 H 0.45299 0.24342 0.99473 0.0
H591 H 0.45149 0.28066 0.96682 0.0
C592 C 0.48065 0.21226 0.04481 0.0
C593 C 0.51828 0.19532 0.05204 0.0
C594 C 0.48118 0.23335 0.02858 0.0
C595 C 0.51914 0.23696 0.01869 0.0
C596 C 0.55676 0.21909 0.02585 0.0
C597 C 0.55644 0.19912 0.04246 0.0
C598 C 0.55514 0.30012 0.97794 0.0
C599 C 0.51749 0.30125 0.96786 0.0
C600 C 0.55572 0.27996 0.99451 0.0
C601 C 0.519 0.2592 1.00111 0.0
C602 C 0.48164 0.26002 0.99068 0.0
C603 C 0.48073 0.28131 0.97449 0.0
H604 H 0.15122 0.47779 0.47344 0.0
H605 H 0.27398 0.52883 0.45849 0.0
H606 H 0.17162 0.48245 0.50452 0.0
H607 H 0.29377 0.53563 0.48945 0.0
H608 H 0.33657 0.48764 0.54402 0.0
H609 H 0.31509 0.49307 0.5131 0.0
H610 H 0.18643 0.52406 0.5293 0.0
H611 H 0.20764 0.51647 0.56007 0.0
C612 C 0.18214 0.49102 0.47684 0.0
C613 C 0.21108 0.50263 0.46355 0.0
C614 C 0.19393 0.49385 0.49468 0.0
C615 C 0.23471 0.50903 0.49963 0.0
C616 C 0.26263 0.52271 0.48624 0.0
C617 C 0.2511 0.51921 0.46846 0.0
C618 C 0.30388 0.49611 0.54092 0.0
C619 C 0.27377 0.50129 0.55445 0.0
C620 C 0.29145 0.49942 0.52317 0.0
C621 C 0.24875 0.50869 0.51855 0.0
C622 C 0.21925 0.51582 0.53222 0.0
C623 C 0.23153 0.51183 0.54991 0.0
H624 H 0.02688 0.83 0.04687 0.0
H625 H 0.99069 0.70069 0.05975 0.0
H626 H 0.03318 0.80979 0.01576 0.0
H627 H -0.00426 0.68095 0.02887 0.0
H628 H 0.02733 0.64866 0.9725 0.0
H629 H 0.03969 0.66932 1.00331 0.0
H630 H 0.98315 0.79242 0.99286 0.0
H631 H 0.97197 0.7724 0.96231 0.0
C632 C 0.02064 0.79725 0.0431 0.0
C633 C 0.00781 0.76714 0.05577 0.0
C634 C 0.02403 0.78567 0.02527 0.0
C635 C 0.01464 0.74376 0.01975 0.0
C636 C 0.00371 0.71334 0.03259 0.0
C637 C 0.00039 0.72486 0.05035 0.0
C638 C 0.01808 0.68027 0.97678 0.0
C639 C -0.00171 0.70866 0.96499 0.0
C640 C 0.02498 0.69209 0.99444 0.0
C641 C 0.01229 0.73255 1.00062 0.0
C642 C 0.99393 0.76129 0.98859 0.0
C643 C 0.98708 0.74954 0.97104 0.0
H644 H 0.69801 -0.00164 0.4553 0.0
H645 H 0.82717 0.01583 0.47409 0.0
H646 H 0.67091 0.01045 0.48489 0.0
H647 H 0.79993 0.02698 0.50408 0.0
H648 H 0.73446 0.07183 0.55454 0.0
H649 H 0.75857 0.07227 0.52389 0.0
H650 H 0.66994 0.97062 0.51183 0.0
H651 H 0.64527 0.97079 0.54226 0.0
C652 C 0.7207 0.00492 0.46578 0.0
C653 C 0.76483 0.00563 0.46238 0.0
C654 C 0.7051 0.01167 0.48279 0.0
C655 C 0.73318 0.01901 0.49696 0.0
C656 C 0.77733 0.02163 0.49346 0.0
C657 C 0.79301 0.01512 0.4763 0.0
C658 C 0.7196 0.05005 0.54528 0.0
C659 C 0.68791 0.02122 0.5509 0.0
C660 C 0.73377 0.05005 0.52773 0.0
C661 C 0.71645 0.02134 0.51538 0.0
C662 C 0.6837 0.99357 0.52089 0.0
C663 C 0.66958 0.99356 0.53841 0.0
H664 H 0.54131 0.79022 0.96587 0.0
H665 H 0.40363 0.7937 0.96676 0.0
H666 H 0.54203 0.75431 0.99409 0.0
H667 H 0.40398 0.76067 0.99599 0.0
H668 H 0.41482 0.6653 0.04131 0.0
H669 H 0.41273 0.70001 0.01239 0.0
H670 H 0.53527 0.75848 0.02345 0.0
H671 H 0.53853 0.72091 0.0513 0.0
C672 C 0.5111 0.78441 0.9724 0.0
C673 C 0.47241 0.79516 0.96414 0.0
C674 C 0.51142 0.76383 0.98876 0.0
C675 C 0.47305 0.75447 0.99769 0.0
C676 C 0.43426 0.76636 0.98954 0.0
C677 C 0.43396 0.78591 0.97286 0.0
C678 C 0.44147 0.6851 0.0373 0.0
C679 C 0.47716 0.68974 0.04838 0.0
C680 C 0.44015 0.70556 0.02081 0.0
C681 C 0.47394 0.73226 0.01527 0.0
C682 C 0.50916 0.7373 0.02671 0.0
C683 C 0.51103 0.71582 0.04285 0.0
H684 H 0.77946 0.51335 0.45915 0.0
H685 H 0.65106 0.47146 0.47079 0.0
H686 H 0.79946 0.50363 0.4898 0.0
H687 H 0.67161 0.46034 0.50168 0.0
H688 H 0.7084 0.51159 0.55706 0.0
H689 H 0.68776 0.5049 0.52634 0.0
H690 H 0.81316 0.45627 0.5138 0.0
H691 H 0.83442 0.46434 0.54477 0.0
C692 C 0.75553 0.50142 0.46822 0.0
C693 C 0.71342 0.49369 0.46252 0.0
C694 C 0.76723 0.4954 0.48584 0.0
C695 C 0.73723 0.48129 0.49832 0.0
C696 C 0.69545 0.47185 0.49249 0.0
C697 C 0.68366 0.478 0.47477 0.0
C698 C 0.73162 0.49909 0.54783 0.0
C699 C 0.77333 0.48903 0.55337 0.0
C700 C 0.71953 0.49483 0.53016 0.0
C701 C 0.74875 0.48023 0.51748 0.0
C702 C 0.78998 0.46827 0.52315 0.0
C703 C 0.80216 0.47265 0.54092 0.0
H704 H 0.95569 0.21023 0.10356 0.0
H705 H 0.00876 0.20747 0.15633 0.0
H706 H 0.95807 0.13304 0.10235 0.0
H707 H 0.00987 0.12971 0.1553 0.0
H708 H 0.06571 0.0022 0.13697 0.0
H709 H 0.05422 0.07907 0.13965 0.0
H710 H 0.93264 0.06584 0.11299 0.0
H711 H 0.94503 0.9892 0.11002 0.0
C712 C 0.96676 0.19312 0.11513 0.0
C713 C 0.98267 0.21515 0.12995 0.0
C714 C 0.96805 0.14871 0.11443 0.0
C715 C 0.98506 0.1252 0.12857 0.0
C716 C -0.00236 0.14701 0.14399 0.0
C717 C -0.00358 0.19157 0.14468 0.0
C718 C 0.03694 0.0161 0.13148 0.0
C719 C 0.00647 0.99029 0.12312 0.0
C720 C 0.02996 0.05987 0.13324 0.0
C721 C 0.9922 0.07856 0.12675 0.0
C722 C 0.96216 0.05258 0.11803 0.0
C723 C 0.96929 0.00883 0.11622 0.0
H724 H 0.27809 0.98267 0.66117 0.0
H725 H 0.26751 0.93685 0.60749 0.0
H726 H 0.35565 0.9782 0.65919 0.0
H727 H 0.34471 0.93382 0.60532 0.0
H728 H 0.48943 0.91938 0.60911 0.0
H729 H 0.41314 0.90651 0.6138 0.0
H730 H 0.40487 0.02399 0.6435 0.0
H731 H 0.48127 0.03585 0.6391 0.0
C732 C 0.29215 0.97031 0.64916 0.0
C733 C 0.2666 0.96093 0.63438 0.0
C734 C 0.33667 0.96844 0.64791 0.0
C735 C 0.3564 0.95706 0.6319 0.0
C736 C 0.33069 0.943 0.61782 0.0
C737 C 0.28628 0.94472 0.61908 0.0
C738 C 0.4709 0.94261 0.6164 0.0
C739 C 0.49068 0.97879 0.62361 0.0
C740 C 0.4274 0.93517 0.6192 0.0
C741 C 0.40296 0.96388 0.62926 0.0
C742 C 0.4229 0.00063 0.63609 0.0
C743 C 0.46637 0.00791 0.63334 0.0
H744 H 0.56873 0.48991 0.10706 0.0
H745 H 0.44581 0.48331 0.13245 0.0
H746 H 0.57859 0.41322 0.11171 0.0
H747 H 0.45504 0.4067 0.13697 0.0
H748 H 0.49247 0.27981 0.15664 0.0
H749 H 0.49794 0.3572 0.15448 0.0
H750 H 0.5502 0.34519 0.10194 0.0
H751 H 0.54579 0.26805 0.10423 0.0
C752 C 0.54354 0.47172 0.11334 0.0
C753 C 0.50645 0.49209 0.11935 0.0
C754 C 0.54925 0.42799 0.11613 0.0
C755 C 0.51794 0.40396 0.12499 0.0
C756 C 0.48031 0.42444 0.13053 0.0
C757 C 0.47466 0.46808 0.12774 0.0
C758 C 0.5066 0.29357 0.14489 0.0
C759 C 0.51797 0.26773 0.13048 0.0
C760 C 0.50911 0.33799 0.14354 0.0
C761 C 0.52324 0.35735 0.12782 0.0
C762 C 0.5389 0.33138 0.11419 0.0
C763 C 0.53638 0.28704 0.11552 0.0
H764 H 0.20921 0.48292 0.6597 0.0
H765 H 0.21762 0.54202 0.60824 0.0
H766 H 0.13142 0.48287 0.65735 0.0
H767 H 0.14053 0.54029 0.60555 0.0
H768 H -0.00399 0.55154 0.61009 0.0
H769 H 0.07232 0.5636 0.61473 0.0
H770 H 0.08214 0.44064 0.64034 0.0
H771 H 0.00538 0.42978 0.63618 0.0
C772 C 0.19448 0.49697 0.64812 0.0
C773 C 0.21956 0.51191 0.63406 0.0
C774 C 0.14994 0.49622 0.64662 0.0
C775 C 0.12977 0.51042 0.63104 0.0
C776 C 0.15483 0.52898 0.61772 0.0
C777 C 0.19917 0.52991 0.61926 0.0
C778 C 0.01492 0.52684 0.61635 0.0
C779 C -0.00454 0.48946 0.62252 0.0
C780 C 0.05846 0.5338 0.61914 0.0
C781 C 0.08334 0.50332 0.62811 0.0
C782 C 0.06379 0.46524 0.63377 0.0
C783 C 0.02015 0.45851 0.63109 0.0
H784 H 0.93643 0.49684 0.90562 0.0
H785 H 0.05661 0.48149 0.87871 0.0
H786 H 0.92075 0.42115 0.90145 0.0
H787 H 0.04192 0.40538 0.8749 0.0
H788 H 0.94271 0.27596 0.91069 0.0
H789 H 0.94423 0.35317 0.91177 0.0
H790 H -0.00417 0.35674 0.85886 0.0
H791 H -0.00432 0.279 0.85799 0.0
C792 C 0.95986 0.47681 0.89917 0.0
C793 C -0.00202 0.49433 0.89272 0.0
C794 C 0.95082 0.43366 0.89666 0.0
C795 C 0.97987 0.4073 0.88768 0.0
C796 C 0.01842 0.42499 0.88151 0.0
C797 C 0.02728 0.46823 0.88395 0.0
C798 C 0.95331 0.29316 0.89908 0.0
C799 C 0.96997 0.27132 0.88441 0.0
C800 C 0.95414 0.33756 0.8997 0.0
C801 C 0.97129 0.36105 0.88559 0.0
C802 C 0.98362 0.33938 0.87015 0.0
C803 C 0.9829 0.29484 0.86954 0.0
H804 H 0.9931 0.94076 0.40927 0.0
H805 H 0.00319 0.06136 0.38228 0.0
H806 H 0.06945 0.92855 0.40504 0.0
H807 H 0.07995 0.0502 0.37844 0.0
H808 H 0.20645 0.00504 0.35925 0.0
H809 H 0.12869 0.00627 0.36172 0.0
H810 H 0.13787 0.95288 0.41425 0.0
H811 H 0.21491 0.95021 0.41154 0.0
C812 C 0.01215 0.96519 0.4029 0.0
C813 C 0.99285 0.00225 0.39633 0.0
C814 C 0.05572 0.95812 0.40034 0.0
C815 C 0.08077 0.98813 0.39119 0.0
C816 C 0.06143 0.02596 0.38517 0.0
C817 C 0.01779 0.03284 0.38766 0.0
C818 C 0.19173 0.99219 0.37105 0.0
C819 C 0.21686 0.97799 0.38527 0.0
C820 C 0.14723 0.99359 0.37261 0.0
C821 C 0.12713 0.98074 0.38838 0.0
C822 C 0.15216 0.9631 0.40193 0.0
C823 C 0.19646 0.96159 0.40037 0.0
H824 H 0.52618 0.22091 0.91917 0.0
H825 H 0.50533 0.21623 0.86266 0.0
H826 H 0.53342 0.14378 0.91985 0.0
H827 H 0.51392 0.13859 0.86347 0.0
H828 H 0.56822 0.00057 0.87544 0.0
H829 H 0.57203 0.07823 0.87388 0.0
H830 H 0.47037 0.08736 0.91208 0.0
H831 H 0.46469 0.00939 0.91288 0.0
C832 C 0.5242 0.20367 0.9068 0.0
C833 C 0.51441 0.22483 0.89086 0.0
C834 C 0.52814 0.15944 0.90727 0.0
C835 C 0.52337 0.13548 0.89179 0.0
C836 C 0.51746 0.15661 0.8756 0.0
C837 C 0.51276 0.201 0.87513 0.0
C838 C 0.54602 0.01908 0.88323 0.0
C839 C 0.51543 -0.00107 0.89399 0.0
C840 C 0.54858 0.06346 0.88244 0.0
C841 C 0.52145 0.08851 0.8928 0.0
C842 C 0.49178 0.06851 0.90402 0.0
C843 C 0.4886 0.02405 0.90452 0.0
H844 H 0.49085 0.56487 0.40708 0.0
H845 H 0.4825 0.44696 0.37807 0.0
H846 H 0.41406 0.57611 0.40309 0.0
H847 H 0.40562 0.45708 0.37444 0.0
H848 H 0.27768 0.49686 0.35693 0.0
H849 H 0.35531 0.50088 0.3587 0.0
H850 H 0.34601 0.54951 0.41196 0.0
H851 H 0.2687 0.54716 0.40994 0.0
C852 C 0.47218 0.54091 0.40022 0.0
C853 C 0.49207 0.50485 0.39304 0.0
C854 C 0.42836 0.5474 0.39781 0.0
C855 C 0.40368 0.51784 0.3882 0.0
C856 C 0.42374 0.48109 0.3815 0.0
C857 C 0.46753 0.47478 0.38384 0.0
C858 C 0.29213 0.50997 0.36876 0.0
C859 C 0.26695 0.52088 0.38342 0.0
C860 C 0.3367 0.51155 0.3699 0.0
C861 C 0.35694 0.52411 0.3857 0.0
C862 C 0.33164 0.53938 0.39963 0.0
C863 C 0.28716 0.538 0.39846 0.0
H864 H 0.99452 0.7822 0.8604 0.0
H865 H 0.02627 0.77296 0.91598 0.0
H866 H -0.00319 0.86022 0.86272 0.0
H867 H 0.02677 0.85021 0.9182 0.0
H868 H 0.94629 0.98122 0.91415 0.0
H869 H 0.95539 0.9035 0.91184 0.0
H870 H 0.05769 0.92178 0.8745 0.0
H871 H 0.05062 -0.0012 0.87762 0.0
C872 C 0.00287 0.7966 0.87295 0.0
C873 C 0.00963 0.77127 0.88802 0.0
C874 C 0.00385 0.84111 0.87429 0.0
C875 C 0.01099 0.86069 0.89073 0.0
C876 C 0.02045 0.83559 0.90548 0.0
C877 C 0.02036 0.79135 0.9041 0.0
C878 C 0.97096 0.96851 0.90564 0.0
C879 C -0.00316 -0.00413 0.89566 0.0
C880 C 0.97606 0.92432 0.90426 0.0
C881 C 0.00675 0.90714 0.89274 0.0
C882 C 0.03331 0.93447 0.88316 0.0
C883 C 0.02888 0.97844 0.88484 0.0
H884 H 0.71414 0.0422 0.4081 0.0
H885 H 0.70827 0.97425 0.35848 0.0
H886 H 0.63704 0.04004 0.41022 0.0
H887 H 0.63041 0.97361 0.36025 0.0
H888 H 0.5046 0.92205 0.38267 0.0
H889 H 0.5811 0.93376 0.37817 0.0
H890 H 0.56886 0.06067 0.39994 0.0
H891 H 0.49288 0.04792 0.40492 0.0
C892 C 0.69626 0.02806 0.39731 0.0
C893 C 0.71741 0.00777 0.38325 0.0
C894 C 0.65189 0.02685 0.39853 0.0
C895 C 0.62751 0.0057 0.38563 0.0
C896 C 0.64839 0.98906 0.37068 0.0
C897 C 0.69298 0.9901 0.36949 0.0
C898 C 0.51876 0.95197 0.3868 0.0
C899 C 0.49349 0.98378 0.39444 0.0
C900 C 0.56226 0.9591 0.38393 0.0
C901 C 0.5811 -0.00159 0.38848 0.0
C902 C 0.55559 0.02992 0.39642 0.0
C903 C 0.51221 0.02259 0.39941 0.0
H904 H 0.42272 0.50254 0.90964 0.0
H905 H 0.54271 0.50852 0.88197 0.0
H906 H 0.41239 0.5791 0.90495 0.0
H907 H 0.53337 0.58515 0.87758 0.0
H908 H 0.4958 0.71271 0.85902 0.0
H909 H 0.49035 0.6353 0.86105 0.0
H910 H 0.44045 0.64677 0.91402 0.0
H911 H 0.44453 0.72382 0.9118 0.0
C912 C 0.44725 0.52063 0.90289 0.0
C913 C 0.48367 0.50017 0.89629 0.0
C914 C 0.44128 0.56429 0.90008 0.0
C915 C 0.47173 0.58819 0.89065 0.0
C916 C 0.50873 0.56757 0.88449 0.0
C917 C 0.51454 0.52394 0.88724 0.0
C918 C 0.48217 0.6988 0.87084 0.0
C919 C 0.47137 0.72446 0.88537 0.0
C920 C 0.4797 0.65437 0.87212 0.0
C921 C 0.46628 0.63482 0.88791 0.0
C922 C 0.45117 0.66066 0.9017 0.0
C923 C 0.45354 0.70499 0.90041 0.0
H924 H 0.76889 0.44891 0.40916 0.0
H925 H 0.77963 0.5058 0.35733 0.0
H926 H 0.8459 0.44388 0.41113 0.0
H927 H 0.8572 0.49907 0.359 0.0
H928 H 0.98856 0.5416 0.37895 0.0
H929 H 0.9112 0.5367 0.37507 0.0
H930 H 0.91158 0.41473 0.40178 0.0
H931 H 0.98882 0.4209 0.40613 0.0
C932 C 0.78765 0.45913 0.39791 0.0
C933 C 0.76802 0.47843 0.38319 0.0
C934 C 0.83202 0.45614 0.39904 0.0
C935 C 0.85795 0.47199 0.38541 0.0
C936 C 0.83819 0.48769 0.36997 0.0
C937 C 0.79366 0.4909 0.36887 0.0
C938 C 0.97172 0.51423 0.38423 0.0
C939 C 0.9941 0.48193 0.39304 0.0
C940 C 0.92761 0.51094 0.38175 0.0
C941 C 0.90508 0.47499 0.38788 0.0
C942 C 0.92773 0.44299 0.39699 0.0
C943 C 0.97184 0.44653 0.39959 0.0
H944 H 0.05621 0.71188 0.10922 0.0
H945 H -0.00058 0.7049 0.16113 0.0
H946 H 0.05072 0.63509 0.10633 0.0
H947 H 0.99533 0.62744 0.1585 0.0
H948 H 0.93147 0.50723 0.13643 0.0
H949 H 0.94849 0.5825 0.14126 0.0
H950 H 0.06974 0.56475 0.11502 0.0
H951 H 0.05174 0.48993 0.10983 0.0
C952 C 0.04405 0.69375 0.12032 0.0
C953 C 0.02757 0.7146 0.13529 0.0
C954 C 0.04083 0.64958 0.11864 0.0
C955 C 0.02142 0.62518 0.13197 0.0
C956 C 0.00924 0.64553 0.14775 0.0
C957 C 0.01234 0.68987 0.14942 0.0
C958 C 0.96125 0.51993 0.13139 0.0
C959 C 0.98997 0.49339 0.1225 0.0
C960 C 0.97146 0.56269 0.13444 0.0
C961 C 0.01084 0.57957 0.12877 0.0
C962 C 0.03908 0.55295 0.11947 0.0
C963 C 0.0287 0.51027 0.11636 0.0
H964 H 0.77222 0.01932 0.59943 0.0
H965 H 0.77622 0.00042 0.65606 0.0
H966 H 0.84931 0.02708 0.59893 0.0
H967 H 0.85404 0.00931 0.65541 0.0
H968 H 0.99198 0.06568 0.64331 0.0
H969 H 0.9141 0.0679 0.64494 0.0
H970 H 0.90639 0.96558 0.60698 0.0
H971 H 0.98448 0.96155 0.6061 0.0
C972 C 0.78927 0.01786 0.61187 0.0
C973 C 0.76786 0.00868 0.62779 0.0
C974 C 0.83354 0.02205 0.6115 0.0
C975 C 0.85741 0.01803 0.62706 0.0
C976 C 0.8361 0.01233 0.64322 0.0
C977 C 0.79162 0.00741 0.64358 0.0
C978 C 0.97372 0.04308 0.63556 0.0
C979 C 0.99433 0.01285 0.62481 0.0
C980 C 0.92922 0.04465 0.63643 0.0
C981 C 0.9045 0.01686 0.62615 0.0
C982 C 0.92495 0.98749 0.61498 0.0
C983 C 0.96951 0.98531 0.6144 0.0
H984 H 0.47857 0.77557 0.1539 0.0
H985 H 0.46565 0.77082 0.097 0.0
H986 H 0.46983 0.85317 0.15288 0.0
H987 H 0.45814 0.84791 0.09613 0.0
H988 H 0.52391 0.98268 0.10397 0.0
H989 H 0.51852 0.90473 0.10475 0.0
H990 H 0.41422 0.91354 0.14173 0.0
H991 H 0.41795 0.99125 0.14023 0.0
C992 C 0.4728 0.79077 0.14127 0.0
C993 C 0.47344 0.76694 0.12553 0.0
C994 C 0.46802 0.83517 0.14069 0.0
C995 C 0.46427 0.85632 0.12438 0.0
C996 C 0.46177 0.8323 0.10882 0.0
C997 C 0.46585 0.78808 0.10939 0.0
C998 C 0.49949 0.96796 0.11205 0.0
C999 C 0.47187 0.99302 0.12225 0.0
C1000 C 0.49646 0.92348 0.11254 0.0
C1001 C 0.4661 0.90336 0.1234 0.0
C1002 C 0.4382 0.92837 0.13345 0.0
C1003 C 0.44066 0.97278 0.13268 0.0
H1004 H 0.50571 0.56414 0.63492 0.0
H1005 H 0.49484 0.4387 0.61212 0.0
H1006 H 0.5825 0.55358 0.63899 0.0
H1007 H 0.57123 0.42712 0.61664 0.0
H1008 H 0.71617 0.44835 0.60821 0.0
H1009 H 0.63899 0.44948 0.6062 0.0
H1010 H 0.63247 0.51359 0.65667 0.0
H1011 H 0.71033 0.51393 0.65837 0.0
C1012 C 0.52011 0.53457 0.63057 0.0
C1013 C 0.49498 0.50252 0.62294 0.0
C1014 C 0.56379 0.5281 0.63319 0.0
C1015 C 0.58298 0.48923 0.62837 0.0
C1016 C 0.55764 0.45753 0.62038 0.0
C1017 C 0.51404 0.46419 0.61766 0.0
C1018 C 0.69833 0.46179 0.61912 0.0
C1019 C 0.71947 0.48171 0.63332 0.0
C1020 C 0.65391 0.46239 0.61796 0.0
C1021 C 0.62953 0.48258 0.63106 0.0
C1022 C 0.65046 0.49888 0.6461 0.0
C1023 C 0.69506 0.49843 0.64723 0.0
H1024 H 0.16509 0.4468 0.29572 0.0
H1025 H 0.05806 0.36367 0.30628 0.0
H1026 H 0.15126 0.44075 0.26412 0.0
H1027 H 0.04541 0.35609 0.27471 0.0
H1028 H 0.01385 0.37942 0.21614 0.0
H1029 H 0.02232 0.39132 0.24787 0.0
H1030 H 0.15944 0.38655 0.24196 0.0
H1031 H 0.15093 0.37493 0.21042 0.0
C1032 C 0.13812 0.42796 0.29138 0.0
C1033 C 0.11243 0.40614 0.3036 0.0
C1034 C 0.13058 0.42385 0.2732 0.0
C1035 C 0.09735 0.39765 0.26682 0.0
C1036 C 0.07098 0.37685 0.2791 0.0
C1037 C 0.0785 0.38096 0.29722 0.0
C1038 C 0.04571 0.37999 0.22167 0.0
C1039 C 0.08168 0.37555 0.21076 0.0
C1040 C 0.05063 0.38719 0.23986 0.0
C1041 C 0.09161 0.39026 0.24749 0.0
C1042 C 0.12743 0.38533 0.23654 0.0
C1043 C 0.12252 0.37825 0.21844 0.0
H1044 H 0.09723 0.01735 0.71726 0.0
H1045 H 0.13614 0.14946 0.71668 0.0
H1046 H 0.07879 0.02368 0.74849 0.0
H1047 H 0.11806 0.1558 0.74779 0.0
H1048 H 0.04676 0.16771 0.79895 0.0
H1049 H 0.05759 0.15774 0.76733 0.0
H1050 H 0.11101 0.03305 0.77727 0.0
H1051 H 0.09845 0.04229 0.80873 0.0
C1052 C 0.10282 0.04742 0.72387 0.0
C1053 C 0.11888 0.08269 0.71455 0.0
C1054 C 0.09188 0.0512 0.74175 0.0
C1055 C 0.09663 0.09037 0.75066 0.0
C1056 C 0.11309 0.12541 0.74131 0.0
C1057 C 0.12387 0.12165 0.72349 0.0
C1058 C 0.05952 0.13767 0.79437 0.0
C1059 C 0.07126 0.10563 0.80639 0.0
C1060 C 0.06648 0.1322 0.77623 0.0
C1061 C 0.08553 0.09468 0.76973 0.0
C1062 C 0.09593 0.06216 0.78174 0.0
C1063 C 0.08898 0.06762 0.79982 0.0
H1064 H 0.44952 0.09447 0.30622 0.0
H1065 H 0.32185 0.04674 0.29728 0.0
H1066 H 0.45744 0.10792 0.27477 0.0
H1067 H 0.33054 0.0582 0.26566 0.0
H1068 H 0.33773 0.13628 0.21509 0.0
H1069 H 0.33289 0.11832 0.24627 0.0
H1070 H 0.46465 0.07754 0.2458 0.0
H1071 H 0.46953 0.09615 0.21451 0.0
C1072 C 0.42338 0.08602 0.29749 0.0
C1073 C 0.38513 0.06919 0.30433 0.0
C1074 C 0.42809 0.09348 0.2794 0.0
C1075 C 0.39459 0.08442 0.26762 0.0
C1076 C 0.35683 0.06614 0.27437 0.0
C1077 C 0.35209 0.05877 0.29253 0.0
C1078 C 0.36581 0.12378 0.22168 0.0
C1079 C 0.4042 0.11827 0.21237 0.0
C1080 C 0.36289 0.11303 0.23953 0.0
C1081 C 0.39821 0.096 0.24857 0.0
C1082 C 0.43691 0.09099 0.23932 0.0
C1083 C 0.43987 0.102 0.2214 0.0
H1084 H 0.34146 0.358 0.80413 0.0
H1085 H 0.47461 0.39378 0.8041 0.0
H1086 H 0.33661 0.37414 0.7728 0.0
H1087 H 0.46974 0.41064 0.77261 0.0
H1088 H 0.45208 0.39169 0.7123 0.0
H1089 H 0.46058 0.37935 0.74383 0.0
H1090 H 0.33578 0.43345 0.75303 0.0
H1091 H 0.3264 0.44375 0.72138 0.0
C1092 C 0.36984 0.36914 0.79738 0.0
C1093 C 0.40856 0.37407 0.80657 0.0
C1094 C 0.36693 0.37886 0.77943 0.0
C1095 C 0.4026 0.39426 0.77016 0.0
C1096 C 0.44168 0.3985 0.77928 0.0
C1097 C 0.44463 0.3885 0.79732 0.0
C1098 C 0.42654 0.40132 0.72106 0.0
C1099 C 0.38866 0.41906 0.71424 0.0
C1100 C 0.43159 0.39449 0.73919 0.0
C1101 C 0.39882 0.40512 0.75103 0.0
C1102 C 0.36149 0.42429 0.74428 0.0
C1103 C 0.35638 0.431 0.7261 0.0
H1104 H 0.97795 0.60564 0.80023 0.0
H1105 H 0.84182 0.62538 0.80359 0.0
H1106 H 0.97121 0.59281 0.76849 0.0
H1107 H 0.83503 0.61334 0.77199 0.0
H1108 H 0.82719 0.55037 0.71889 0.0
H1109 H 0.83826 0.55798 0.75056 0.0
H1110 H 0.9556 0.62666 0.74084 0.0
H1111 H 0.94571 0.61697 0.70924 0.0
C1112 C 0.94677 0.60827 0.79414 0.0
C1113 C 0.9105 0.61706 0.80439 0.0
C1114 C 0.9428 0.60061 0.77595 0.0
C1115 C 0.90247 0.60162 0.76764 0.0
C1116 C 0.86644 0.61125 0.77793 0.0
C1117 C 0.8704 0.61861 0.79605 0.0
C1118 C 0.856 0.56588 0.72345 0.0
C1119 C 0.88582 0.58247 0.71143 0.0
C1120 C 0.862 0.57102 0.74168 0.0
C1121 C 0.89772 0.59326 0.74832 0.0
C1122 C 0.92797 0.60897 0.73628 0.0
C1123 C 0.92207 0.60368 0.71811 0.0
H1124 H 0.95479 0.82059 0.22249 0.0
H1125 H 0.89859 0.9435 0.2116 0.0
H1126 H 0.94551 0.8327 0.25409 0.0
H1127 H 0.8894 0.95569 0.24313 0.0
H1128 H 0.83009 0.93546 0.29834 0.0
H1129 H 0.84504 0.92866 0.26686 0.0
H1130 H 0.96894 0.87562 0.27897 0.0
H1131 H 0.95394 0.88237 0.3104 0.0
C1132 C 0.94155 0.85064 0.22682 0.0
C1133 C 0.9279 0.88126 0.21452 0.0
C1134 C 0.93596 0.85754 0.24496 0.0
C1135 C 0.91649 0.89514 0.25117 0.0
C1136 C 0.90382 0.92611 0.23883 0.0
C1137 C 0.90935 0.91919 0.22075 0.0
C1138 C 0.8609 0.92338 0.29431 0.0
C1139 C 0.89101 0.90999 0.30691 0.0
C1140 C 0.86944 0.91923 0.27623 0.0
C1141 C 0.90822 0.90148 0.27036 0.0
C1142 C 0.93854 0.8888 0.283 0.0
C1143 C 0.92998 0.8929 0.30102 0.0
H1144 H 0.54801 0.81943 0.79662 0.0
H1145 H 0.61462 0.93816 0.80556 0.0
H1146 H 0.5558 0.8292 0.76479 0.0
H1147 H 0.62379 0.94715 0.77386 0.0
H1148 H 0.60368 0.96576 0.7142 0.0
H1149 H 0.58836 0.96056 0.74576 0.0
H1150 H 0.61469 0.82546 0.74414 0.0
H1151 H 0.63 0.83068 0.71275 0.0
C1152 C 0.56344 0.84805 0.79183 0.0
C1153 C 0.58033 0.87818 0.80366 0.0
C1154 C 0.56856 0.85335 0.77357 0.0
C1155 C 0.59076 0.88883 0.76675 0.0
C1156 C 0.60623 0.91966 0.77859 0.0
C1157 C 0.6012 0.91432 0.79679 0.0
C1158 C 0.6072 0.93519 0.72064 0.0
C1159 C 0.61885 0.89879 0.71097 0.0
C1160 C 0.59797 0.93209 0.73872 0.0
C1161 C 0.59995 0.8925 0.74749 0.0
C1162 C 0.61196 0.85628 0.73779 0.0
C1163 C 0.62115 0.85938 0.7198 0.0
H1164 H 0.51111 0.60902 0.21517 0.0
H1165 H 0.64802 0.62179 0.21096 0.0
H1166 H 0.51836 0.59659 0.24695 0.0
H1167 H 0.65528 0.60974 0.2425 0.0
H1168 H 0.66195 0.54809 0.29581 0.0
H1169 H 0.64913 0.55425 0.26416 0.0
H1170 H 0.53788 0.6317 0.27432 0.0
H1171 H 0.54958 0.62388 0.30593 0.0
C1172 C 0.5426 0.61013 0.22104 0.0
C1173 C 0.57892 0.61693 0.21054 0.0
C1174 C 0.54685 0.60264 0.23925 0.0
C1175 C 0.58749 0.60169 0.2473 0.0
C1176 C 0.62358 0.6092 0.23675 0.0
C1177 C 0.61935 0.61653 0.21865 0.0
C1178 C 0.63405 0.5653 0.29136 0.0
C1179 C 0.60659 0.58507 0.30349 0.0
C1180 C 0.62706 0.56951 0.27315 0.0
C1181 C 0.59262 0.59382 0.26663 0.0
C1182 C 0.56446 0.61245 0.2788 0.0
C1183 C 0.57143 0.60821 0.29696 0.0
H1184 H 0.34931 0.21814 0.08372 0.0
H1185 H 0.31893 0.19406 0.13857 0.0
H1186 H 0.28321 0.25905 0.08058 0.0
H1187 H 0.25329 0.23425 0.13533 0.0
H1188 H 0.13254 0.28348 0.08306 0.0
H1189 H 0.20293 0.24992 0.08181 0.0
H1190 H 0.23732 0.31098 0.13099 0.0
H1191 H 0.16706 0.34369 0.13244 0.0
C1192 C 0.32831 0.22104 0.09501 0.0
C1193 C 0.3395 0.20326 0.11145 0.0
C1194 C 0.29063 0.24453 0.0932 0.0
C1195 C 0.2638 0.2506 0.10782 0.0
C1196 C 0.27408 0.23111 0.12398 0.0
C1197 C 0.31151 0.20775 0.12578 0.0
C1198 C 0.15563 0.29066 0.09332 0.0
C1199 C 0.1442 0.31547 0.10802 0.0
C1200 C 0.19582 0.2714 0.09261 0.0
C1201 C 0.22495 0.27701 0.10655 0.0
C1202 C 0.2149 0.30521 0.12033 0.0
C1203 C 0.17483 0.32414 0.1211 0.0
H1204 H 0.30908 0.34134 0.58692 0.0
H1205 H 0.30902 0.33219 0.64396 0.0
H1206 H 0.28276 0.26797 0.58504 0.0
H1207 H 0.28119 0.26078 0.64211 0.0
H1208 H 0.25822 0.12425 0.63707 0.0
H1209 H 0.29763 0.19065 0.63475 0.0
H1210 H 0.21825 0.22849 0.5906 0.0
H1211 H 0.18053 0.16009 0.5923 0.0
C1212 C 0.30378 0.32365 0.59901 0.0
C1213 C 0.31109 0.34261 0.61558 0.0
C1214 C 0.28839 0.28181 0.59794 0.0
C1215 C 0.2799 0.25844 0.61341 0.0
C1216 C 0.28822 0.27731 0.6299 0.0
C1217 C 0.30393 0.31862 0.63096 0.0
C1218 C 0.24938 0.14673 0.62681 0.0
C1219 C 0.21586 0.13775 0.6151 0.0
C1220 C 0.27188 0.18479 0.62549 0.0
C1221 C 0.26049 0.21535 0.61275 0.0
C1222 C 0.22799 0.20555 0.60051 0.0
C1223 C 0.20611 0.16671 0.60157 0.0
H1224 H 0.16224 0.16823 0.88078 0.0
H1225 H 0.12967 0.21418 0.9329 0.0
H1226 H 0.23117 0.20359 0.88286 0.0
H1227 H 0.19865 0.25043 0.9348 0.0
H1228 H 0.34587 0.27963 0.93409 0.0
H1229 H 0.27785 0.24132 0.93559 0.0
H1230 H 0.24941 0.2797 0.882 0.0
H1231 H 0.3172 0.31706 0.88036 0.0
C1232 C 0.17001 0.18551 0.89276 0.0
C1233 C 0.14038 0.18897 0.90657 0.0
C1234 C 0.20932 0.206 0.8939 0.0
C1235 C 0.2197 0.23061 0.9088 0.0
C1236 C 0.19134 0.23176 0.92314 0.0
C1237 C 0.15193 0.21098 0.92204 0.0
C1238 C 0.32469 0.28043 0.92276 0.0
C1239 C 0.33701 0.30086 0.90703 0.0
C1240 C 0.28589 0.25844 0.92361 0.0
C1241 C 0.25896 0.25674 0.90877 0.0
C1242 C 0.27019 0.27942 0.89347 0.0
C1243 C 0.30884 0.30113 0.89258 0.0
H1244 H 0.25651 0.36206 0.3824 0.0
H1245 H 0.17649 0.32324 0.42592 0.0
H1246 H 0.29716 0.29661 0.38496 0.0
H1247 H 0.21553 0.2556 0.42781 0.0
H1248 H 0.30809 0.14443 0.43203 0.0
H1249 H 0.28044 0.21723 0.434 0.0
H1250 H 0.28284 0.2265 0.37698 0.0
H1251 H 0.31202 0.15574 0.37508 0.0
C1252 C 0.24741 0.33907 0.39242 0.0
C1253 C 0.2129 0.34694 0.40371 0.0
C1254 C 0.27063 0.30155 0.39389 0.0
C1255 C 0.25901 0.27036 0.40631 0.0
C1256 C 0.22545 0.27904 0.41815 0.0
C1257 C 0.20282 0.31742 0.41697 0.0
C1258 C 0.30348 0.16252 0.41998 0.0
C1259 C 0.31218 0.14427 0.40341 0.0
C1260 C 0.28728 0.204 0.4211 0.0
C1261 C 0.2794 0.22775 0.40567 0.0
C1262 C 0.28931 0.20968 0.38919 0.0
C1263 C 0.30581 0.16873 0.38809 0.0
H1264 H 0.85476 0.70401 0.93256 0.0
H1265 H 0.82168 0.65047 0.88172 0.0
H1266 H 0.78526 0.73935 0.93377 0.0
H1267 H 0.75225 0.68488 0.88312 0.0
H1268 H 0.63942 0.77288 0.93158 0.0
H1269 H 0.70536 0.73168 0.93433 0.0
H1270 H 0.73675 0.76168 0.88016 0.0
H1271 H 0.67108 0.80209 0.87728 0.0
C1272 C 0.83214 0.6987 0.92194 0.0
C1273 C 0.84374 0.67516 0.9069 0.0
C1274 C 0.79247 0.71899 0.92262 0.0
C1275 C 0.76401 0.71571 0.90831 0.0
C1276 C 0.77419 0.68892 0.89408 0.0
C1277 C 0.81376 0.66898 0.89334 0.0
C1278 C 0.66073 0.77111 0.92035 0.0
C1279 C 0.64989 0.79031 0.90414 0.0
C1280 C 0.69833 0.74746 0.92193 0.0
C1281 C 0.72551 0.7427 0.90734 0.0
C1282 C 0.71568 0.76377 0.89147 0.0
C1283 C 0.67826 0.78725 0.88987 0.0
H1284 H 0.67593 0.67447 0.37957 0.0
H1285 H 0.71071 0.63832 0.43285 0.0
H1286 H 0.71521 0.74075 0.38293 0.0
H1287 H 0.75039 0.70528 0.43612 0.0
H1288 H 0.77771 0.85696 0.43376 0.0
H1289 H 0.74061 0.78826 0.43551 0.0
H1290 H 0.79564 0.75144 0.38553 0.0
H1291 H 0.83231 0.81963 0.38366 0.0
C1292 C 0.6915 0.6809 0.39208 0.0
C1293 C 0.69077 0.6509 0.40585 0.0
C1294 C 0.71422 0.71872 0.39395 0.0
C1295 C 0.73666 0.7274 0.40961 0.0
C1296 C 0.73356 0.69899 0.42388 0.0
C1297 C 0.71077 0.66086 0.422 0.0
C1298 C 0.78278 0.83367 0.42341 0.0
C1299 C 0.80724 0.84385 0.40841 0.0
C1300 C 0.76147 0.79452 0.4244 0.0
C1301 C 0.76449 0.76529 0.41043 0.0
C1302 C 0.79198 0.77403 0.39625 0.0
C1303 C 0.81313 0.81293 0.39524 0.0
H1304 H 0.84851 0.80821 0.0891 0.0
H1305 H 0.85794 0.76692 0.14348 0.0
H1306 H 0.77702 0.77647 0.08721 0.0
H1307 H 0.78855 0.73385 0.14136 0.0
H1308 H 0.64772 0.72205 0.14053 0.0
H1309 H 0.71706 0.75569 0.1401 0.0
H1310 H 0.73814 0.70913 0.08705 0.0
H1311 H 0.66683 0.67679 0.08718 0.0
C1312 C 0.83535 0.79236 0.10059 0.0
C1313 C 0.85839 0.79072 0.11652 0.0
C1314 C 0.7947 0.77389 0.09947 0.0
C1315 C 0.77691 0.7531 0.11421 0.0
C1316 C 0.80067 0.7507 0.12992 0.0
C1317 C 0.84062 0.76964 0.13112 0.0
C1318 C 0.6671 0.71869 0.12877 0.0
C1319 C 0.65208 0.69629 0.11396 0.0
C1320 C 0.70701 0.73794 0.12854 0.0
C1321 C 0.73343 0.73456 0.11364 0.0
C1322 C 0.71836 0.71251 0.09869 0.0
C1323 C 0.6778 0.6937 0.09881 0.0
H1324 H 0.67365 0.81327 0.63442 0.0
H1325 H 0.70941 0.84804 0.58115 0.0
H1326 H 0.71428 0.74776 0.63182 0.0
H1327 H 0.75055 0.78182 0.57864 0.0
H1328 H 0.78115 0.63089 0.5826 0.0
H1329 H 0.74292 0.69865 0.57987 0.0
H1330 H 0.795 0.73926 0.62999 0.0
H1331 H 0.83274 0.67192 0.63285 0.0
C1332 C 0.6897 0.80664 0.62206 0.0
C1333 C 0.6889 0.83607 0.60809 0.0
C1334 C 0.7132 0.76929 0.62063 0.0
C1335 C 0.73644 0.76055 0.60522 0.0
C1336 C 0.73315 0.78822 0.59071 0.0
C1337 C 0.7095 0.82589 0.59213 0.0
C1338 C 0.78536 0.65481 0.59278 0.0
C1339 C 0.80924 0.64591 0.60811 0.0
C1340 C 0.7634 0.69344 0.59122 0.0
C1341 C 0.76523 0.72342 0.60495 0.0
C1342 C 0.79226 0.71604 0.61945 0.0
C1343 C 0.81402 0.67763 0.62103 0.0
loop_
_geom_bond_atom_site_label_1
_geom_bond_atom_site_label_2
_geom_bond_distance
_geom_bond_site_symmetry_2
_ccdc_geom_bond_type
Co0 O3 1.970 . S
Co0 N17 1.989 . S
Co0 O25 1.967 . S
Co0 O32 1.920 . S
Co1 O4 1.966 . S
Co1 N10 2.022 . S
Co1 N18 1.993 . S
Co1 O26 1.941 . S
C2 O3 1.258 . S
C2 O4 1.263 . S
O3 Co0 1.970 . S
O3 C2 1.258 . S
O4 Co1 1.966 . S
O4 C2 1.263 . S
C5 O6 1.235 1_455 S
C5 O32 1.289 . S
O6 C5 1.235 1_655 S
C7 C9 1.400 . S
C7 N10 1.351 . S
C7 C12 1.501 . S
C8 C9 1.387 . S
C8 N11 1.341 . S
C9 C7 1.400 . S
C9 C8 1.387 . S
N10 Co1 2.022 . S
N10 C7 1.351 . S
N10 N11 1.365 . S
N11 C8 1.341 . S
N11 N10 1.365 . S
N11 H31 0.862 . S
C12 C7 1.501 . S
C12 H13 0.961 . S
C12 H14 0.961 1_455 S
C12 H15 0.960 . S
H13 C12 0.961 . S
H14 C12 0.961 1_655 S
H15 C12 0.960 . S
C16 N17 1.342 . S
C16 C20 1.401 . S
C16 C21 1.499 . S
N17 Co0 1.989 . S
N17 C16 1.342 . S
N17 N18 1.388 . S
N18 Co1 1.993 . S
N18 N17 1.388 . S
N18 C19 1.346 . S
C19 N18 1.346 . S
C19 C20 1.396 . S
C19 C29 1.510 . S
C20 C16 1.401 . S
C20 C19 1.396 . S
C21 C16 1.499 . S
C21 H22 0.959 . S
C21 H23 0.960 . S
C21 H24 0.961 . S
H22 C21 0.959 . S
H23 C21 0.960 . S
H24 C21 0.961 . S
O25 Co0 1.967 . S
O25 C33 1.258 . S
O26 Co1 1.941 . S
O26 C33 1.266 . S
H27 C29 0.959 . S
H28 C29 0.961 . S
C29 C19 1.510 . S
C29 H27 0.959 . S
C29 H28 0.961 . S
C29 H30 0.960 . S
H30 C29 0.960 . S
H31 N11 0.862 . S
O32 Co0 1.920 . S
O32 C5 1.289 . S
C33 O25 1.258 . S
C33 O26 1.266 . S
Co34 O37 1.970 . S
Co34 N51 1.989 . S
Co34 O59 1.967 . S
Co34 O66 1.920 . S
Co35 O38 1.966 . S
Co35 N44 2.022 . S
Co35 N52 1.993 . S
Co35 O60 1.941 . S
C36 O37 1.258 . S
C36 O38 1.263 . S
O37 Co34 1.970 . S
O37 C36 1.258 . S
O38 Co35 1.966 . S
O38 C36 1.263 . S
C39 O40 1.235 1_545 S
C39 O66 1.289 . S
O40 C39 1.235 1_565 S
C41 C43 1.400 . S
C41 N44 1.351 . S
C41 C46 1.501 . S
C42 C43 1.387 . S
C42 N45 1.341 . S
C43 C41 1.400 . S
C43 C42 1.387 . S
N44 Co35 2.022 . S
N44 C41 1.351 . S
N44 N45 1.365 . S
N45 C42 1.341 . S
N45 N44 1.365 . S
N45 H65 0.862 . S
C46 C41 1.501 . S
C46 H47 0.961 . S
C46 H48 0.961 1_545 S
C46 H49 0.960 . S
H47 C46 0.961 . S
H48 C46 0.961 1_565 S
H49 C46 0.960 . S
C50 N51 1.342 . S
C50 C54 1.401 . S
C50 C55 1.499 . S
N51 Co34 1.989 . S
N51 C50 1.342 . S
N51 N52 1.388 . S
N52 Co35 1.993 . S
N52 N51 1.388 . S
N52 C53 1.346 . S
C53 N52 1.346 . S
C53 C54 1.396 . S
C53 C63 1.510 . S
C54 C50 1.401 . S
C54 C53 1.396 . S
C55 C50 1.499 . S
C55 H56 0.959 . S
C55 H57 0.960 . S
C55 H58 0.961 . S
H56 C55 0.959 . S
H57 C55 0.960 . S
H58 C55 0.961 . S
O59 Co34 1.967 . S
O59 C67 1.258 . S
O60 Co35 1.941 . S
O60 C67 1.266 . S
H61 C63 0.959 . S
H62 C63 0.961 . S
C63 C53 1.510 . S
C63 H61 0.959 . S
C63 H62 0.961 . S
C63 H64 0.960 . S
H64 C63 0.960 . S
H65 N45 0.862 . S
O66 Co34 1.920 . S
O66 C39 1.289 . S
C67 O59 1.258 . S
C67 O60 1.266 . S
Co68 O71 1.970 . S
Co68 N85 1.989 . S
Co68 O93 1.967 . S
Co68 O100 1.920 . S
Co69 O72 1.966 . S
Co69 N78 2.022 . S
Co69 N86 1.993 . S
Co69 O94 1.941 . S
C70 O71 1.258 . S
C70 O72 1.263 . S
O71 Co68 1.970 . S
O71 C70 1.258 . S
O72 Co69 1.966 . S
O72 C70 1.263 . S
C73 O74 1.235 . S
C73 O100 1.289 . S
O74 C73 1.235 . S
C75 C77 1.400 . S
C75 N78 1.351 . S
C75 C80 1.501 . S
C76 C77 1.387 . S
C76 N79 1.341 . S
C77 C75 1.400 . S
C77 C76 1.387 . S
N78 Co69 2.022 . S
N78 C75 1.351 . S
N78 N79 1.365 . S
N79 C76 1.341 . S
N79 N78 1.365 . S
N79 H99 0.862 . S
C80 C75 1.501 . S
C80 H81 0.961 . S
C80 H82 0.961 . S
C80 H83 0.960 . S
H81 C80 0.961 . S
H82 C80 0.961 . S
H83 C80 0.960 . S
C84 N85 1.342 . S
C84 C88 1.401 . S
C84 C89 1.499 . S
N85 Co68 1.989 . S
N85 C84 1.342 . S
N85 N86 1.388 . S
N86 Co69 1.993 . S
N86 N85 1.388 . S
N86 C87 1.346 . S
C87 N86 1.346 . S
C87 C88 1.396 . S
C87 C97 1.510 . S
C88 C84 1.401 . S
C88 C87 1.396 . S
C89 C84 1.499 . S
C89 H90 0.959 . S
C89 H91 0.960 . S
C89 H92 0.961 . S
H90 C89 0.959 . S
H91 C89 0.960 . S
H92 C89 0.961 . S
O93 Co68 1.967 . S
O93 C101 1.258 . S
O94 Co69 1.941 . S
O94 C101 1.266 . S
H95 C97 0.959 . S
H96 C97 0.961 . S
C97 C87 1.510 . S
C97 H95 0.959 . S
C97 H96 0.961 . S
C97 H98 0.960 . S
H98 C97 0.960 . S
H99 N79 0.862 . S
O100 Co68 1.920 . S
O100 C73 1.289 . S
C101 O93 1.258 . S
C101 O94 1.266 . S
Co102 O105 1.970 . S
Co102 N119 1.989 . S
Co102 O127 1.967 . S
Co102 O134 1.920 . S
Co103 O106 1.966 . S
Co103 N112 2.022 . S
Co103 N120 1.993 . S
Co103 O128 1.941 . S
C104 O105 1.258 . S
C104 O106 1.263 . S
O105 Co102 1.970 . S
O105 C104 1.258 . S
O106 Co103 1.966 . S
O106 C104 1.263 . S
C107 O108 1.235 . S
C107 O134 1.289 . S
O108 C107 1.235 . S
C109 C111 1.400 . S
C109 N112 1.351 . S
C109 C114 1.501 . S
C110 C111 1.387 . S
C110 N113 1.341 . S
C111 C109 1.400 . S
C111 C110 1.387 . S
N112 Co103 2.022 . S
N112 C109 1.351 . S
N112 N113 1.365 . S
N113 C110 1.341 . S
N113 N112 1.365 . S
N113 H133 0.862 . S
C114 C109 1.501 . S
C114 H115 0.961 . S
C114 H116 0.961 . S
C114 H117 0.960 . S
H115 C114 0.961 . S
H116 C114 0.961 . S
H117 C114 0.960 . S
C118 N119 1.342 . S
C118 C122 1.401 . S
C118 C123 1.499 . S
N119 Co102 1.989 . S
N119 C118 1.342 . S
N119 N120 1.388 . S
N120 Co103 1.993 . S
N120 N119 1.388 . S
N120 C121 1.346 . S
C121 N120 1.346 . S
C121 C122 1.396 . S
C121 C131 1.510 . S
C122 C118 1.401 . S
C122 C121 1.396 . S
C123 C118 1.499 . S
C123 H124 0.959 . S
C123 H125 0.960 . S
C123 H126 0.961 . S
H124 C123 0.959 . S
H125 C123 0.960 . S
H126 C123 0.961 . S
O127 Co102 1.967 . S
O127 C135 1.258 . S
O128 Co103 1.941 . S
O128 C135 1.266 . S
H129 C131 0.959 . S
H130 C131 0.961 . S
C131 C121 1.510 . S
C131 H129 0.959 . S
C131 H130 0.961 . S
C131 H132 0.960 . S
H132 C131 0.960 . S
H133 N113 0.862 . S
O134 Co102 1.920 . S
O134 C107 1.289 . S
C135 O127 1.258 . S
C135 O128 1.266 . S
Co136 O139 1.970 . S
Co136 N153 1.989 . S
Co136 O161 1.967 . S
Co136 O168 1.920 . S
Co137 O140 1.966 . S
Co137 N146 2.022 . S
Co137 N154 1.993 . S
Co137 O162 1.941 . S
C138 O139 1.258 . S
C138 O140 1.263 . S
O139 Co136 1.970 . S
O139 C138 1.258 . S
O140 Co137 1.966 . S
O140 C138 1.263 . S
C141 O142 1.235 1_455 S
C141 O168 1.289 . S
O142 C141 1.235 1_655 S
C143 C145 1.400 . S
C143 N146 1.351 . S
C143 C148 1.501 . S
C144 C145 1.387 . S
C144 N147 1.341 . S
C145 C143 1.400 . S
C145 C144 1.387 . S
N146 Co137 2.022 . S
N146 C143 1.351 . S
N146 N147 1.365 . S
N147 C144 1.341 . S
N147 N146 1.365 . S
N147 H167 0.862 . S
C148 C143 1.501 . S
C148 H149 0.961 . S
C148 H150 0.961 1_455 S
C148 H151 0.960 . S
H149 C148 0.961 . S
H150 C148 0.961 1_655 S
H151 C148 0.960 . S
C152 N153 1.342 . S
C152 C156 1.401 . S
C152 C157 1.499 . S
N153 Co136 1.989 . S
N153 C152 1.342 . S
N153 N154 1.388 . S
N154 Co137 1.993 . S
N154 N153 1.388 . S
N154 C155 1.346 . S
C155 N154 1.346 . S
C155 C156 1.396 . S
C155 C165 1.510 . S
C156 C152 1.401 . S
C156 C155 1.396 . S
C157 C152 1.499 . S
C157 H158 0.959 . S
C157 H159 0.960 . S
C157 H160 0.961 . S
H158 C157 0.959 . S
H159 C157 0.960 . S
H160 C157 0.961 . S
O161 Co136 1.967 . S
O161 C169 1.258 . S
O162 Co137 1.941 . S
O162 C169 1.266 . S
H163 C165 0.959 . S
H164 C165 0.961 . S
C165 C155 1.510 . S
C165 H163 0.959 . S
C165 H164 0.961 . S
C165 H166 0.960 . S
H166 C165 0.960 . S
H167 N147 0.862 . S
O168 Co136 1.920 . S
O168 C141 1.289 . S
C169 O161 1.258 . S
C169 O162 1.266 . S
Co170 O173 1.970 . S
Co170 N187 1.989 . S
Co170 O195 1.967 . S
Co170 O202 1.920 . S
Co171 O174 1.966 . S
Co171 N180 2.022 . S
Co171 N188 1.993 . S
Co171 O196 1.941 . S
C172 O173 1.258 . S
C172 O174 1.263 . S
O173 Co170 1.970 . S
O173 C172 1.258 . S
O174 Co171 1.966 . S
O174 C172 1.263 . S
C175 O176 1.235 1_545 S
C175 O202 1.289 . S
O176 C175 1.235 1_565 S
C177 C179 1.400 . S
C177 N180 1.351 . S
C177 C182 1.501 . S
C178 C179 1.387 . S
C178 N181 1.341 . S
C179 C177 1.400 . S
C179 C178 1.387 . S
N180 Co171 2.022 . S
N180 C177 1.351 . S
N180 N181 1.365 . S
N181 C178 1.341 . S
N181 N180 1.365 . S
N181 H201 0.862 . S
C182 C177 1.501 . S
C182 H183 0.961 . S
C182 H184 0.961 1_545 S
C182 H185 0.960 . S
H183 C182 0.961 . S
H184 C182 0.961 1_565 S
H185 C182 0.960 . S
C186 N187 1.342 . S
C186 C190 1.401 . S
C186 C191 1.499 . S
N187 Co170 1.989 . S
N187 C186 1.342 . S
N187 N188 1.388 . S
N188 Co171 1.993 . S
N188 N187 1.388 . S
N188 C189 1.346 . S
C189 N188 1.346 . S
C189 C190 1.396 . S
C189 C199 1.510 . S
C190 C186 1.401 . S
C190 C189 1.396 . S
C191 C186 1.499 . S
C191 H192 0.959 . S
C191 H193 0.960 . S
C191 H194 0.961 . S
H192 C191 0.959 . S
H193 C191 0.960 . S
H194 C191 0.961 . S
O195 Co170 1.967 . S
O195 C203 1.258 . S
O196 Co171 1.941 . S
O196 C203 1.266 . S
H197 C199 0.959 . S
H198 C199 0.961 . S
C199 C189 1.510 . S
C199 H197 0.959 . S
C199 H198 0.961 . S
C199 H200 0.960 . S
H200 C199 0.960 . S
H201 N181 0.862 . S
O202 Co170 1.920 . S
O202 C175 1.289 . S
C203 O195 1.258 . S
C203 O196 1.266 . S
Co204 O207 1.970 . S
Co204 N221 1.989 . S
Co204 O229 1.967 . S
Co204 O236 1.920 . S
Co205 O208 1.966 . S
Co205 N214 2.022 . S
Co205 N222 1.993 . S
Co205 O230 1.941 . S
C206 O207 1.258 . S
C206 O208 1.263 . S
O207 Co204 1.970 . S
O207 C206 1.258 . S
O208 Co205 1.966 . S
O208 C206 1.263 . S
C209 O210 1.235 . S
C209 O236 1.289 . S
O210 C209 1.235 . S
C211 C213 1.400 . S
C211 N214 1.351 . S
C211 C216 1.501 . S
C212 C213 1.387 . S
C212 N215 1.341 . S
C213 C211 1.400 . S
C213 C212 1.387 . S
N214 Co205 2.022 . S
N214 C211 1.351 . S
N214 N215 1.365 . S
N215 C212 1.341 . S
N215 N214 1.365 . S
N215 H235 0.862 . S
C216 C211 1.501 . S
C216 H217 0.961 . S
C216 H218 0.961 . S
C216 H219 0.960 . S
H217 C216 0.961 . S
H218 C216 0.961 . S
H219 C216 0.960 . S
C220 N221 1.342 . S
C220 C224 1.401 . S
C220 C225 1.499 . S
N221 Co204 1.989 . S
N221 C220 1.342 . S
N221 N222 1.388 . S
N222 Co205 1.993 . S
N222 N221 1.388 . S
N222 C223 1.346 . S
C223 N222 1.346 . S
C223 C224 1.396 . S
C223 C233 1.510 . S
C224 C220 1.401 . S
C224 C223 1.396 . S
C225 C220 1.499 . S
C225 H226 0.959 . S
C225 H227 0.960 . S
C225 H228 0.961 . S
H226 C225 0.959 . S
H227 C225 0.960 . S
H228 C225 0.961 . S
O229 Co204 1.967 . S
O229 C237 1.258 . S
O230 Co205 1.941 . S
O230 C237 1.266 . S
H231 C233 0.959 . S
H232 C233 0.961 . S
C233 C223 1.510 . S
C233 H231 0.959 . S
C233 H232 0.961 . S
C233 H234 0.960 . S
H234 C233 0.960 . S
H235 N215 0.862 . S
O236 Co204 1.920 . S
O236 C209 1.289 . S
C237 O229 1.258 . S
C237 O230 1.266 . S
Co238 O241 1.970 . S
Co238 N255 1.989 . S
Co238 O263 1.967 . S
Co238 O270 1.920 . S
Co239 O242 1.966 . S
Co239 N248 2.022 . S
Co239 N256 1.993 . S
Co239 O264 1.941 . S
C240 O241 1.258 . S
C240 O242 1.263 . S
O241 Co238 1.970 . S
O241 C240 1.258 . S
O242 Co239 1.966 . S
O242 C240 1.263 . S
C243 O244 1.235 . S
C243 O270 1.289 . S
O244 C243 1.235 . S
C245 C247 1.400 . S
C245 N248 1.351 . S
C245 C250 1.501 . S
C246 C247 1.387 . S
C246 N249 1.341 . S
C247 C245 1.400 . S
C247 C246 1.387 . S
N248 Co239 2.022 . S
N248 C245 1.351 . S
N248 N249 1.365 . S
N249 C246 1.341 . S
N249 N248 1.365 . S
N249 H269 0.862 . S
C250 C245 1.501 . S
C250 H251 0.961 . S
C250 H252 0.961 . S
C250 H253 0.960 . S
H251 C250 0.961 . S
H252 C250 0.961 . S
H253 C250 0.960 . S
C254 N255 1.342 . S
C254 C258 1.401 . S
C254 C259 1.499 . S
N255 Co238 1.989 . S
N255 C254 1.342 . S
N255 N256 1.388 . S
N256 Co239 1.993 . S
N256 N255 1.388 . S
N256 C257 1.346 . S
C257 N256 1.346 . S
C257 C258 1.396 . S
C257 C267 1.510 . S
C258 C254 1.401 . S
C258 C257 1.396 . S
C259 C254 1.499 . S
C259 H260 0.959 . S
C259 H261 0.960 . S
C259 H262 0.961 . S
H260 C259 0.959 . S
H261 C259 0.960 . S
H262 C259 0.961 . S
O263 Co238 1.967 . S
O263 C271 1.258 . S
O264 Co239 1.941 . S
O264 C271 1.266 . S
H265 C267 0.959 . S
H266 C267 0.961 . S
C267 C257 1.510 . S
C267 H265 0.959 . S
C267 H266 0.961 . S
C267 H268 0.960 . S
H268 C267 0.960 . S
H269 N249 0.862 . S
O270 Co238 1.920 . S
O270 C243 1.289 . S
C271 O263 1.258 . S
C271 O264 1.266 . S
Co272 O275 1.970 . S
Co272 N289 1.989 . S
Co272 O297 1.967 . S
Co272 O304 1.920 . S
Co273 O276 1.966 . S
Co273 N282 2.022 . S
Co273 N290 1.993 . S
Co273 O298 1.941 . S
C274 O275 1.258 . S
C274 O276 1.263 . S
O275 Co272 1.970 . S
O275 C274 1.258 . S
O276 Co273 1.966 . S
O276 C274 1.263 . S
C277 O278 1.235 1_655 S
C277 O304 1.289 . S
O278 C277 1.235 1_455 S
C279 C281 1.400 . S
C279 N282 1.351 . S
C279 C284 1.501 . S
C280 C281 1.387 . S
C280 N283 1.341 . S
C281 C279 1.400 . S
C281 C280 1.387 . S
N282 Co273 2.022 . S
N282 C279 1.351 . S
N282 N283 1.365 . S
N283 C280 1.341 . S
N283 N282 1.365 . S
N283 H303 0.862 . S
C284 C279 1.501 . S
C284 H285 0.961 . S
C284 H286 0.961 1_655 S
C284 H287 0.960 . S
H285 C284 0.961 . S
H286 C284 0.961 1_455 S
H287 C284 0.960 . S
C288 N289 1.342 . S
C288 C292 1.401 . S
C288 C293 1.499 . S
N289 Co272 1.989 . S
N289 C288 1.342 . S
N289 N290 1.388 . S
N290 Co273 1.993 . S
N290 N289 1.388 . S
N290 C291 1.346 . S
C291 N290 1.346 . S
C291 C292 1.396 . S
C291 C301 1.510 . S
C292 C288 1.401 . S
C292 C291 1.396 . S
C293 C288 1.499 . S
C293 H294 0.959 . S
C293 H295 0.960 . S
C293 H296 0.961 . S
H294 C293 0.959 . S
H295 C293 0.960 . S
H296 C293 0.961 . S
O297 Co272 1.967 . S
O297 C305 1.258 . S
O298 Co273 1.941 . S
O298 C305 1.266 . S
H299 C301 0.959 . S
H300 C301 0.961 . S
C301 C291 1.510 . S
C301 H299 0.959 . S
C301 H300 0.961 . S
C301 H302 0.960 . S
H302 C301 0.960 . S
H303 N283 0.862 . S
O304 Co272 1.920 . S
O304 C277 1.289 . S
C305 O297 1.258 . S
C305 O298 1.266 . S
Co306 O309 1.970 . S
Co306 N323 1.989 . S
Co306 O331 1.967 . S
Co306 O338 1.920 . S
Co307 O310 1.966 . S
Co307 N316 2.022 . S
Co307 N324 1.993 . S
Co307 O332 1.941 . S
C308 O309 1.258 . S
C308 O310 1.263 . S
O309 Co306 1.970 . S
O309 C308 1.258 . S
O310 Co307 1.966 . S
O310 C308 1.263 . S
C311 O312 1.235 1_565 S
C311 O338 1.289 . S
O312 C311 1.235 1_545 S
C313 C315 1.400 . S
C313 N316 1.351 . S
C313 C318 1.501 . S
C314 C315 1.387 . S
C314 N317 1.341 . S
C315 C313 1.400 . S
C315 C314 1.387 . S
N316 Co307 2.022 . S
N316 C313 1.351 . S
N316 N317 1.365 . S
N317 C314 1.341 . S
N317 N316 1.365 . S
N317 H337 0.862 . S
C318 C313 1.501 . S
C318 H319 0.961 . S
C318 H320 0.961 1_565 S
C318 H321 0.960 . S
H319 C318 0.961 . S
H320 C318 0.961 1_545 S
H321 C318 0.960 . S
C322 N323 1.342 . S
C322 C326 1.401 . S
C322 C327 1.499 . S
N323 Co306 1.989 . S
N323 C322 1.342 . S
N323 N324 1.388 . S
N324 Co307 1.993 . S
N324 N323 1.388 . S
N324 C325 1.346 . S
C325 N324 1.346 . S
C325 C326 1.396 . S
C325 C335 1.510 . S
C326 C322 1.401 . S
C326 C325 1.396 . S
C327 C322 1.499 . S
C327 H328 0.959 . S
C327 H329 0.960 . S
C327 H330 0.961 . S
H328 C327 0.959 . S
H329 C327 0.960 . S
H330 C327 0.961 . S
O331 Co306 1.967 . S
O331 C339 1.258 . S
O332 Co307 1.941 . S
O332 C339 1.266 . S
H333 C335 0.959 . S
H334 C335 0.961 . S
C335 C325 1.510 . S
C335 H333 0.959 . S
C335 H334 0.961 . S
C335 H336 0.960 . S
H336 C335 0.960 . S
H337 N317 0.862 . S
O338 Co306 1.920 . S
O338 C311 1.289 . S
C339 O331 1.258 . S
C339 O332 1.266 . S
Co340 O343 1.970 . S
Co340 N357 1.989 . S
Co340 O365 1.967 . S
Co340 O372 1.920 . S
Co341 O344 1.966 . S
Co341 N350 2.022 . S
Co341 N358 1.993 . S
Co341 O366 1.941 . S
C342 O343 1.258 . S
C342 O344 1.263 . S
O343 Co340 1.970 . S
O343 C342 1.258 . S
O344 Co341 1.966 . S
O344 C342 1.263 . S
C345 O346 1.235 . S
C345 O372 1.289 . S
O346 C345 1.235 . S
C347 C349 1.400 . S
C347 N350 1.351 . S
C347 C352 1.501 . S
C348 C349 1.387 . S
C348 N351 1.341 . S
C349 C347 1.400 . S
C349 C348 1.387 . S
N350 Co341 2.022 . S
N350 C347 1.351 . S
N350 N351 1.365 . S
N351 C348 1.341 . S
N351 N350 1.365 . S
N351 H371 0.862 . S
C352 C347 1.501 . S
C352 H353 0.961 . S
C352 H354 0.961 . S
C352 H355 0.960 . S
H353 C352 0.961 . S
H354 C352 0.961 . S
H355 C352 0.960 . S
C356 N357 1.342 . S
C356 C360 1.401 . S
C356 C361 1.499 . S
N357 Co340 1.989 . S
N357 C356 1.342 . S
N357 N358 1.388 . S
N358 Co341 1.993 . S
N358 N357 1.388 . S
N358 C359 1.346 . S
C359 N358 1.346 . S
C359 C360 1.396 . S
C359 C369 1.510 . S
C360 C356 1.401 . S
C360 C359 1.396 . S
C361 C356 1.499 . S
C361 H362 0.959 . S
C361 H363 0.960 . S
C361 H364 0.961 . S
H362 C361 0.959 . S
H363 C361 0.960 . S
H364 C361 0.961 . S
O365 Co340 1.967 . S
O365 C373 1.258 . S
O366 Co341 1.941 . S
O366 C373 1.266 . S
H367 C369 0.959 . S
H368 C369 0.961 . S
C369 C359 1.510 . S
C369 H367 0.959 . S
C369 H368 0.961 . S
C369 H370 0.960 . S
H370 C369 0.960 . S
H371 N351 0.862 . S
O372 Co340 1.920 . S
O372 C345 1.289 . S
C373 O365 1.258 . S
C373 O366 1.266 . S
Co374 O377 1.970 . S
Co374 N391 1.989 . S
Co374 O399 1.967 . S
Co374 O406 1.920 . S
Co375 O378 1.966 . S
Co375 N384 2.022 . S
Co375 N392 1.993 . S
Co375 O400 1.941 . S
C376 O377 1.258 . S
C376 O378 1.263 . S
O377 Co374 1.970 . S
O377 C376 1.258 . S
O378 Co375 1.966 . S
O378 C376 1.263 . S
C379 O380 1.235 . S
C379 O406 1.289 . S
O380 C379 1.235 . S
C381 C383 1.400 . S
C381 N384 1.351 . S
C381 C386 1.501 . S
C382 C383 1.387 . S
C382 N385 1.341 . S
C383 C381 1.400 . S
C383 C382 1.387 . S
N384 Co375 2.022 . S
N384 C381 1.351 . S
N384 N385 1.365 . S
N385 C382 1.341 . S
N385 N384 1.365 . S
N385 H405 0.862 . S
C386 C381 1.501 . S
C386 H387 0.961 . S
C386 H388 0.961 . S
C386 H389 0.960 . S
H387 C386 0.961 . S
H388 C386 0.961 . S
H389 C386 0.960 . S
C390 N391 1.342 . S
C390 C394 1.401 . S
C390 C395 1.499 . S
N391 Co374 1.989 . S
N391 C390 1.342 . S
N391 N392 1.388 . S
N392 Co375 1.993 . S
N392 N391 1.388 . S
N392 C393 1.346 . S
C393 N392 1.346 . S
C393 C394 1.396 . S
C393 C403 1.510 . S
C394 C390 1.401 . S
C394 C393 1.396 . S
C395 C390 1.499 . S
C395 H396 0.959 . S
C395 H397 0.960 . S
C395 H398 0.961 . S
H396 C395 0.959 . S
H397 C395 0.960 . S
H398 C395 0.961 . S
O399 Co374 1.967 . S
O399 C407 1.258 . S
O400 Co375 1.941 . S
O400 C407 1.266 . S
H401 C403 0.959 . S
H402 C403 0.961 . S
C403 C393 1.510 . S
C403 H401 0.959 . S
C403 H402 0.961 . S
C403 H404 0.960 . S
H404 C403 0.960 . S
H405 N385 0.862 . S
O406 Co374 1.920 . S
O406 C379 1.289 . S
C407 O399 1.258 . S
C407 O400 1.266 . S
Co408 O411 1.970 . S
Co408 N425 1.989 . S
Co408 O433 1.967 . S
Co408 O440 1.920 . S
Co409 O412 1.966 . S
Co409 N418 2.022 . S
Co409 N426 1.993 . S
Co409 O434 1.941 . S
C410 O411 1.258 . S
C410 O412 1.263 . S
O411 Co408 1.970 . S
O411 C410 1.258 . S
O412 Co409 1.966 . S
O412 C410 1.263 . S
C413 O414 1.235 1_655 S
C413 O440 1.289 . S
O414 C413 1.235 1_455 S
C415 C417 1.400 . S
C415 N418 1.351 . S
C415 C420 1.501 . S
C416 C417 1.387 . S
C416 N419 1.341 . S
C417 C415 1.400 . S
C417 C416 1.387 . S
N418 Co409 2.022 . S
N418 C415 1.351 . S
N418 N419 1.365 . S
N419 C416 1.341 . S
N419 N418 1.365 . S
N419 H439 0.862 . S
C420 C415 1.501 . S
C420 H421 0.961 . S
C420 H422 0.961 1_655 S
C420 H423 0.960 . S
H421 C420 0.961 . S
H422 C420 0.961 1_455 S
H423 C420 0.960 . S
C424 N425 1.342 . S
C424 C428 1.401 . S
C424 C429 1.499 . S
N425 Co408 1.989 . S
N425 C424 1.342 . S
N425 N426 1.388 . S
N426 Co409 1.993 . S
N426 N425 1.388 . S
N426 C427 1.346 . S
C427 N426 1.346 . S
C427 C428 1.396 . S
C427 C437 1.510 . S
C428 C424 1.401 . S
C428 C427 1.396 . S
C429 C424 1.499 . S
C429 H430 0.959 . S
C429 H431 0.960 . S
C429 H432 0.961 . S
H430 C429 0.959 . S
H431 C429 0.960 . S
H432 C429 0.961 . S
O433 Co408 1.967 . S
O433 C441 1.258 . S
O434 Co409 1.941 . S
O434 C441 1.266 . S
H435 C437 0.959 . S
H436 C437 0.961 . S
C437 C427 1.510 . S
C437 H435 0.959 . S
C437 H436 0.961 . S
C437 H438 0.960 . S
H438 C437 0.960 . S
H439 N419 0.862 . S
O440 Co408 1.920 . S
O440 C413 1.289 . S
C441 O433 1.258 . S
C441 O434 1.266 . S
Co442 O445 1.970 . S
Co442 N459 1.989 . S
Co442 O467 1.967 . S
Co442 O474 1.920 . S
Co443 O446 1.966 . S
Co443 N452 2.022 . S
Co443 N460 1.993 . S
Co443 O468 1.941 . S
C444 O445 1.258 . S
C444 O446 1.263 . S
O445 Co442 1.970 . S
O445 C444 1.258 . S
O446 Co443 1.966 . S
O446 C444 1.263 . S
C447 O448 1.235 1_565 S
C447 O474 1.289 . S
O448 C447 1.235 1_545 S
C449 C451 1.400 . S
C449 N452 1.351 . S
C449 C454 1.501 . S
C450 C451 1.387 . S
C450 N453 1.341 . S
C451 C449 1.400 . S
C451 C450 1.387 . S
N452 Co443 2.022 . S
N452 C449 1.351 . S
N452 N453 1.365 . S
N453 C450 1.341 . S
N453 N452 1.365 . S
N453 H473 0.862 . S
C454 C449 1.501 . S
C454 H455 0.961 . S
C454 H456 0.961 1_565 S
C454 H457 0.960 . S
H455 C454 0.961 . S
H456 C454 0.961 1_545 S
H457 C454 0.960 . S
C458 N459 1.342 . S
C458 C462 1.401 . S
C458 C463 1.499 . S
N459 Co442 1.989 . S
N459 C458 1.342 . S
N459 N460 1.388 . S
N460 Co443 1.993 . S
N460 N459 1.388 . S
N460 C461 1.346 . S
C461 N460 1.346 . S
C461 C462 1.396 . S
C461 C471 1.510 . S
C462 C458 1.401 . S
C462 C461 1.396 . S
C463 C458 1.499 . S
C463 H464 0.959 . S
C463 H465 0.960 . S
C463 H466 0.961 . S
H464 C463 0.959 . S
H465 C463 0.960 . S
H466 C463 0.961 . S
O467 Co442 1.967 . S
O467 C475 1.258 . S
O468 Co443 1.941 . S
O468 C475 1.266 . S
H469 C471 0.959 . S
H470 C471 0.961 . S
C471 C461 1.510 . S
C471 H469 0.959 . S
C471 H470 0.961 . S
C471 H472 0.960 . S
H472 C471 0.960 . S
H473 N453 0.862 . S
O474 Co442 1.920 . S
O474 C447 1.289 . S
C475 O467 1.258 . S
C475 O468 1.266 . S
Co476 O479 1.970 . S
Co476 N493 1.989 . S
Co476 O501 1.967 . S
Co476 O508 1.920 . S
Co477 O480 1.966 . S
Co477 N486 2.022 . S
Co477 N494 1.993 . S
Co477 O502 1.941 . S
C478 O479 1.258 . S
C478 O480 1.263 . S
O479 Co476 1.970 . S
O479 C478 1.258 . S
O480 Co477 1.966 . S
O480 C478 1.263 . S
C481 O482 1.235 . S
C481 O508 1.289 . S
O482 C481 1.235 . S
C483 C485 1.400 . S
C483 N486 1.351 . S
C483 C488 1.501 . S
C484 C485 1.387 . S
C484 N487 1.341 . S
C485 C483 1.400 . S
C485 C484 1.387 . S
N486 Co477 2.022 . S
N486 C483 1.351 . S
N486 N487 1.365 . S
N487 C484 1.341 . S
N487 N486 1.365 . S
N487 H507 0.862 . S
C488 C483 1.501 . S
C488 H489 0.961 . S
C488 H490 0.961 . S
C488 H491 0.960 . S
H489 C488 0.961 . S
H490 C488 0.961 . S
H491 C488 0.960 . S
C492 N493 1.342 . S
C492 C496 1.401 . S
C492 C497 1.499 . S
N493 Co476 1.989 . S
N493 C492 1.342 . S
N493 N494 1.388 . S
N494 Co477 1.993 . S
N494 N493 1.388 . S
N494 C495 1.346 . S
C495 N494 1.346 . S
C495 C496 1.396 . S
C495 C505 1.510 . S
C496 C492 1.401 . S
C496 C495 1.396 . S
C497 C492 1.499 . S
C497 H498 0.959 . S
C497 H499 0.960 . S
C497 H500 0.961 . S
H498 C497 0.959 . S
H499 C497 0.960 . S
H500 C497 0.961 . S
O501 Co476 1.967 . S
O501 C509 1.258 . S
O502 Co477 1.941 . S
O502 C509 1.266 . S
H503 C505 0.959 . S
H504 C505 0.961 . S
C505 C495 1.510 . S
C505 H503 0.959 . S
C505 H504 0.961 . S
C505 H506 0.960 . S
H506 C505 0.960 . S
H507 N487 0.862 . S
O508 Co476 1.920 . S
O508 C481 1.289 . S
C509 O501 1.258 . S
C509 O502 1.266 . S
Co510 O513 1.970 . S
Co510 N527 1.989 . S
Co510 O535 1.967 . S
Co510 O542 1.920 . S
Co511 O514 1.966 . S
Co511 N520 2.022 . S
Co511 N528 1.993 . S
Co511 O536 1.941 . S
C512 O513 1.258 . S
C512 O514 1.263 . S
O513 Co510 1.970 . S
O513 C512 1.258 . S
O514 Co511 1.966 . S
O514 C512 1.263 . S
C515 O516 1.235 . S
C515 O542 1.289 . S
O516 C515 1.235 . S
C517 C519 1.400 . S
C517 N520 1.351 . S
C517 C522 1.501 . S
C518 C519 1.387 . S
C518 N521 1.341 . S
C519 C517 1.400 . S
C519 C518 1.387 . S
N520 Co511 2.022 . S
N520 C517 1.351 . S
N520 N521 1.365 . S
N521 C518 1.341 . S
N521 N520 1.365 . S
N521 H541 0.862 . S
C522 C517 1.501 . S
C522 H523 0.961 . S
C522 H524 0.961 . S
C522 H525 0.960 . S
H523 C522 0.961 . S
H524 C522 0.961 . S
H525 C522 0.960 . S
C526 N527 1.342 . S
C526 C530 1.401 . S
C526 C531 1.499 . S
N527 Co510 1.989 . S
N527 C526 1.342 . S
N527 N528 1.388 . S
N528 Co511 1.993 . S
N528 N527 1.388 . S
N528 C529 1.346 . S
C529 N528 1.346 . S
C529 C530 1.396 . S
C529 C539 1.510 . S
C530 C526 1.401 . S
C530 C529 1.396 . S
C531 C526 1.499 . S
C531 H532 0.959 . S
C531 H533 0.960 . S
C531 H534 0.961 . S
H532 C531 0.959 . S
H533 C531 0.960 . S
H534 C531 0.961 . S
O535 Co510 1.967 . S
O535 C543 1.258 . S
O536 Co511 1.941 . S
O536 C543 1.266 . S
H537 C539 0.959 . S
H538 C539 0.961 . S
C539 C529 1.510 . S
C539 H537 0.959 . S
C539 H538 0.961 . S
C539 H540 0.960 . S
H540 C539 0.960 . S
H541 N521 0.862 . S
O542 Co510 1.920 . S
O542 C515 1.289 . S
C543 O535 1.258 . S
C543 O536 1.266 . S
H544 C552 0.950 1_655 S
H545 C557 0.950 . S
H546 C554 0.950 1_655 S
H547 C556 0.950 . S
H548 C558 0.950 . S
H549 C560 0.950 . S
H550 C562 0.949 1_655 S
H551 C563 0.947 1_655 S
C552 H544 0.950 1_455 S
C552 C553 1.386 . S
C552 C554 1.391 . S
C553 C552 1.386 . S
C553 C557 1.393 . S
C554 H546 0.950 1_455 S
C554 C552 1.391 . S
C554 C555 1.400 . S
C555 C554 1.400 . S
C555 C556 1.398 . S
C555 C561 1.491 1_556 S
C556 H547 0.950 . S
C556 C555 1.398 . S
C556 C557 1.391 . S
C557 H545 0.950 . S
C557 C553 1.393 . S
C557 C556 1.391 . S
C558 H548 0.950 . S
C558 C559 1.386 . S
C558 C560 1.391 . S
C559 C558 1.386 . S
C559 C563 1.395 . S
C560 H549 0.950 . S
C560 C558 1.391 . S
C560 C561 1.400 . S
C561 C555 1.491 1_554 S
C561 C560 1.400 . S
C561 C562 1.400 . S
C562 H550 0.949 1_455 S
C562 C561 1.400 . S
C562 C563 1.391 . S
C563 H551 0.947 1_455 S
C563 C559 1.395 . S
C563 C562 1.391 . S
H564 C572 0.950 . S
H565 C577 0.950 . S
H566 C574 0.950 . S
H567 C576 0.950 . S
H568 C578 0.950 . S
H569 C580 0.950 . S
H570 C582 0.950 . S
H571 C583 0.950 . S
C572 H564 0.950 . S
C572 C573 1.386 . S
C572 C574 1.391 . S
C573 C572 1.386 . S
C573 C577 1.393 . S
C574 H566 0.950 . S
C574 C572 1.391 . S
C574 C575 1.400 . S
C575 C574 1.400 . S
C575 C576 1.398 . S
C575 C581 1.491 . S
C576 H567 0.950 . S
C576 C575 1.398 . S
C576 C577 1.391 . S
C577 H565 0.950 . S
C577 C573 1.393 . S
C577 C576 1.391 . S
C578 H568 0.950 . S
C578 C579 1.386 . S
C578 C580 1.391 . S
C579 C578 1.386 . S
C579 C583 1.393 . S
C580 H569 0.950 . S
C580 C578 1.391 . S
C580 C581 1.400 . S
C581 C575 1.491 . S
C581 C580 1.400 . S
C581 C582 1.398 . S
C582 H570 0.950 . S
C582 C581 1.398 . S
C582 C583 1.391 . S
C583 H571 0.950 . S
C583 C579 1.393 . S
C583 C582 1.391 . S
H584 C592 0.950 . S
H585 C597 0.950 . S
H586 C594 0.950 . S
H587 C596 0.950 . S
H588 C598 0.950 . S
H589 C600 0.950 . S
H590 C602 0.950 . S
H591 C603 0.950 . S
C592 H584 0.950 . S
C592 C593 1.386 . S
C592 C594 1.391 . S
C593 C592 1.386 . S
C593 C597 1.393 . S
C594 H586 0.950 . S
C594 C592 1.391 . S
C594 C595 1.400 . S
C595 C594 1.400 . S
C595 C596 1.398 . S
C595 C601 1.491 1_554 S
C596 H587 0.950 . S
C596 C595 1.398 . S
C596 C597 1.391 . S
C597 H585 0.950 . S
C597 C593 1.393 . S
C597 C596 1.391 . S
C598 H588 0.950 . S
C598 C599 1.386 . S
C598 C600 1.391 . S
C599 C598 1.386 . S
C599 C603 1.393 . S
C600 H589 0.950 . S
C600 C598 1.391 . S
C600 C601 1.400 . S
C601 C595 1.491 1_556 S
C601 C600 1.400 . S
C601 C602 1.398 . S
C602 H590 0.950 . S
C602 C601 1.398 . S
C602 C603 1.391 . S
C603 H591 0.950 . S
C603 C599 1.393 . S
C603 C602 1.391 . S
H604 C612 0.950 . S
H605 C617 0.950 . S
H606 C614 0.950 . S
H607 C616 0.950 . S
H608 C618 0.950 . S
H609 C620 0.950 . S
H610 C622 0.950 . S
H611 C623 0.950 . S
C612 H604 0.950 . S
C612 C613 1.386 . S
C612 C614 1.391 . S
C613 C612 1.386 . S
C613 C617 1.393 . S
C614 H606 0.950 . S
C614 C612 1.391 . S
C614 C615 1.400 . S
C615 C614 1.400 . S
C615 C616 1.398 . S
C615 C621 1.491 . S
C616 H607 0.950 . S
C616 C615 1.398 . S
C616 C617 1.391 . S
C617 H605 0.950 . S
C617 C613 1.393 . S
C617 C616 1.391 . S
C618 H608 0.950 . S
C618 C619 1.386 . S
C618 C620 1.391 . S
C619 C618 1.386 . S
C619 C623 1.393 . S
C620 H609 0.950 . S
C620 C618 1.391 . S
C620 C621 1.400 . S
C621 C615 1.491 . S
C621 C620 1.400 . S
C621 C622 1.398 . S
C622 H610 0.950 . S
C622 C621 1.398 . S
C622 C623 1.391 . S
C623 H611 0.950 . S
C623 C619 1.393 . S
C623 C622 1.391 . S
H624 C632 0.950 . S
H625 C637 0.950 . S
H626 C634 0.950 . S
H627 C636 0.950 . S
H628 C638 0.950 . S
H629 C640 0.950 . S
H630 C642 0.950 . S
H631 C643 0.950 . S
C632 H624 0.950 . S
C632 C633 1.386 . S
C632 C634 1.391 . S
C633 C632 1.386 . S
C633 C637 1.393 . S
C634 H626 0.950 . S
C634 C632 1.391 . S
C634 C635 1.400 . S
C635 C634 1.400 . S
C635 C636 1.398 . S
C635 C641 1.491 1_554 S
C636 H627 0.950 . S
C636 C635 1.398 . S
C636 C637 1.391 . S
C637 H625 0.950 . S
C637 C633 1.393 . S
C637 C636 1.391 . S
C638 H628 0.950 . S
C638 C639 1.386 . S
C638 C640 1.391 . S
C639 C638 1.386 . S
C639 C643 1.393 . S
C640 H629 0.950 . S
C640 C638 1.391 . S
C640 C641 1.400 . S
C641 C635 1.491 1_556 S
C641 C640 1.400 . S
C641 C642 1.398 . S
C642 H630 0.950 . S
C642 C641 1.398 . S
C642 C643 1.391 . S
C643 H631 0.950 . S
C643 C639 1.393 . S
C643 C642 1.391 . S
H644 C652 0.950 . S
H645 C657 0.950 . S
H646 C654 0.950 . S
H647 C656 0.950 . S
H648 C658 0.950 . S
H649 C660 0.950 . S
H650 C662 0.950 . S
H651 C663 0.950 . S
C652 H644 0.950 . S
C652 C653 1.386 . S
C652 C654 1.391 . S
C653 C652 1.386 . S
C653 C657 1.393 . S
C654 H646 0.950 . S
C654 C652 1.391 . S
C654 C655 1.400 . S
C655 C654 1.400 . S
C655 C656 1.398 . S
C655 C661 1.491 . S
C656 H647 0.950 . S
C656 C655 1.398 . S
C656 C657 1.391 . S
C657 H645 0.950 . S
C657 C653 1.393 . S
C657 C656 1.391 . S
C658 H648 0.950 . S
C658 C659 1.386 . S
C658 C660 1.391 . S
C659 C658 1.386 . S
C659 C663 1.393 . S
C660 H649 0.950 . S
C660 C658 1.391 . S
C660 C661 1.400 . S
C661 C655 1.491 . S
C661 C660 1.400 . S
C661 C662 1.398 . S
C662 H650 0.950 . S
C662 C661 1.398 . S
C662 C663 1.391 . S
C663 H651 0.950 . S
C663 C659 1.393 . S
C663 C662 1.391 . S
H664 C672 0.950 . S
H665 C677 0.950 . S
H666 C674 0.950 . S
H667 C676 0.950 . S
H668 C678 0.950 . S
H669 C680 0.950 . S
H670 C682 0.950 . S
H671 C683 0.950 . S
C672 H664 0.950 . S
C672 C673 1.386 . S
C672 C674 1.391 . S
C673 C672 1.386 . S
C673 C677 1.393 . S
C674 H666 0.950 . S
C674 C672 1.391 . S
C674 C675 1.400 . S
C675 C674 1.400 . S
C675 C676 1.398 . S
C675 C681 1.491 1_556 S
C676 H667 0.950 . S
C676 C675 1.398 . S
C676 C677 1.391 . S
C677 H665 0.950 . S
C677 C673 1.393 . S
C677 C676 1.391 . S
C678 H668 0.950 . S
C678 C679 1.386 . S
C678 C680 1.391 . S
C679 C678 1.386 . S
C679 C683 1.393 . S
C680 H669 0.950 . S
C680 C678 1.391 . S
C680 C681 1.400 . S
C681 C675 1.491 1_554 S
C681 C680 1.400 . S
C681 C682 1.398 . S
C682 H670 0.950 . S
C682 C681 1.398 . S
C682 C683 1.391 . S
C683 H671 0.950 . S
C683 C679 1.393 . S
C683 C682 1.391 . S
H684 C692 0.950 . S
H685 C697 0.950 . S
H686 C694 0.950 . S
H687 C696 0.950 . S
H688 C698 0.950 . S
H689 C700 0.950 . S
H690 C702 0.950 . S
H691 C703 0.950 . S
C692 H684 0.950 . S
C692 C693 1.386 . S
C692 C694 1.391 . S
C693 C692 1.386 . S
C693 C697 1.393 . S
C694 H686 0.950 . S
C694 C692 1.391 . S
C694 C695 1.400 . S
C695 C694 1.400 . S
C695 C696 1.398 . S
C695 C701 1.491 . S
C696 H687 0.950 . S
C696 C695 1.398 . S
C696 C697 1.391 . S
C697 H685 0.950 . S
C697 C693 1.393 . S
C697 C696 1.391 . S
C698 H688 0.950 . S
C698 C699 1.386 . S
C698 C700 1.391 . S
C699 C698 1.386 . S
C699 C703 1.393 . S
C700 H689 0.950 . S
C700 C698 1.391 . S
C700 C701 1.400 . S
C701 C695 1.491 . S
C701 C700 1.400 . S
C701 C702 1.398 . S
C702 H690 0.950 . S
C702 C701 1.398 . S
C702 C703 1.391 . S
C703 H691 0.950 . S
C703 C699 1.393 . S
C703 C702 1.391 . S
H704 C712 0.950 . S
H705 C717 0.950 . S
H706 C714 0.950 1_655 S
H707 C716 0.950 . S
H708 C718 0.950 . S
H709 C720 0.950 1_455 S
H710 C722 0.950 . S
H711 C723 0.950 1_565 S
C712 H704 0.950 . S
C712 C713 1.386 . S
C712 C714 1.391 . S
C713 C712 1.386 . S
C713 C717 1.393 . S
C714 H706 0.950 1_455 S
C714 C712 1.391 . S
C714 C715 1.400 . S
C715 C714 1.400 . S
C715 C716 1.398 . S
C715 C721 1.491 1_455 S
C716 H707 0.950 . S
C716 C715 1.398 . S
C716 C717 1.391 . S
C717 H705 0.950 . S
C717 C713 1.393 . S
C717 C716 1.391 . S
C718 H708 0.950 . S
C718 C719 1.386 . S
C718 C720 1.391 1_565 S
C719 C718 1.386 . S
C719 C723 1.393 1_565 S
C720 H709 0.950 1_655 S
C720 C718 1.391 1_545 S
C720 C721 1.400 . S
C721 C715 1.491 1_655 S
C721 C720 1.400 . S
C721 C722 1.398 . S
C722 H710 0.950 . S
C722 C721 1.398 . S
C722 C723 1.391 . S
C723 H711 0.950 1_545 S
C723 C719 1.393 1_545 S
C723 C722 1.391 . S
H724 C732 0.950 . S
H725 C737 0.950 . S
H726 C734 0.950 . S
H727 C736 0.950 . S
H728 C738 0.950 . S
H729 C740 0.950 . S
H730 C742 0.950 . S
H731 C743 0.950 . S
C732 H724 0.950 . S
C732 C733 1.386 . S
C732 C734 1.391 . S
C733 C732 1.386 . S
C733 C737 1.393 1_545 S
C734 H726 0.950 . S
C734 C732 1.391 . S
C734 C735 1.400 . S
C735 C734 1.400 . S
C735 C736 1.398 1_545 S
C735 C741 1.491 1_545 S
C736 H727 0.950 . S
C736 C735 1.398 1_565 S
C736 C737 1.391 . S
C737 H725 0.950 . S
C737 C733 1.393 1_565 S
C737 C736 1.391 . S
C738 H728 0.950 . S
C738 C739 1.386 . S
C738 C740 1.391 . S
C739 C738 1.386 . S
C739 C743 1.393 1_565 S
C740 H729 0.950 . S
C740 C738 1.391 . S
C740 C741 1.400 . S
C741 C735 1.491 1_565 S
C741 C740 1.400 . S
C741 C742 1.398 1_565 S
C742 H730 0.950 . S
C742 C741 1.398 1_545 S
C742 C743 1.391 . S
C743 H731 0.950 . S
C743 C739 1.393 1_545 S
C743 C742 1.391 . S
H744 C752 0.950 . S
H745 C757 0.950 . S
H746 C754 0.950 . S
H747 C756 0.950 . S
H748 C758 0.950 . S
H749 C760 0.950 . S
H750 C762 0.950 . S
H751 C763 0.950 . S
C752 H744 0.950 . S
C752 C753 1.386 . S
C752 C754 1.391 . S
C753 C752 1.386 . S
C753 C757 1.393 . S
C754 H746 0.950 . S
C754 C752 1.391 . S
C754 C755 1.400 . S
C755 C754 1.400 . S
C755 C756 1.398 . S
C755 C761 1.491 . S
C756 H747 0.950 . S
C756 C755 1.398 . S
C756 C757 1.391 . S
C757 H745 0.950 . S
C757 C753 1.393 . S
C757 C756 1.391 . S
C758 H748 0.950 . S
C758 C759 1.386 . S
C758 C760 1.391 . S
C759 C758 1.386 . S
C759 C763 1.393 . S
C760 H749 0.950 . S
C760 C758 1.391 . S
C760 C761 1.400 . S
C761 C755 1.491 . S
C761 C760 1.400 . S
C761 C762 1.398 . S
C762 H750 0.950 . S
C762 C761 1.398 . S
C762 C763 1.391 . S
C763 H751 0.950 . S
C763 C759 1.393 . S
C763 C762 1.391 . S
H764 C772 0.950 . S
H765 C777 0.950 . S
H766 C774 0.950 . S
H767 C776 0.950 . S
H768 C778 0.950 1_655 S
H769 C780 0.950 . S
H770 C782 0.950 . S
H771 C783 0.950 . S
C772 H764 0.950 . S
C772 C773 1.386 . S
C772 C774 1.391 . S
C773 C772 1.386 . S
C773 C777 1.393 . S
C774 H766 0.950 . S
C774 C772 1.391 . S
C774 C775 1.400 . S
C775 C774 1.400 . S
C775 C776 1.398 . S
C775 C781 1.491 . S
C776 H767 0.950 . S
C776 C775 1.398 . S
C776 C777 1.391 . S
C777 H765 0.950 . S
C777 C773 1.393 . S
C777 C776 1.391 . S
C778 H768 0.950 1_455 S
C778 C779 1.386 1_455 S
C778 C780 1.391 . S
C779 C778 1.386 1_655 S
C779 C783 1.393 . S
C780 H769 0.950 . S
C780 C778 1.391 . S
C780 C781 1.400 . S
C781 C775 1.491 . S
C781 C780 1.400 . S
C781 C782 1.398 . S
C782 H770 0.950 . S
C782 C781 1.398 . S
C782 C783 1.391 1_455 S
C783 H771 0.950 . S
C783 C779 1.393 . S
C783 C782 1.391 1_655 S
H784 C792 0.950 . S
H785 C797 0.950 . S
H786 C794 0.950 . S
H787 C796 0.950 . S
H788 C798 0.950 . S
H789 C800 0.950 . S
H790 C802 0.950 . S
H791 C803 0.950 . S
C792 H784 0.950 . S
C792 C793 1.386 . S
C792 C794 1.391 . S
C793 C792 1.386 . S
C793 C797 1.393 1_655 S
C794 H786 0.950 . S
C794 C792 1.391 . S
C794 C795 1.400 . S
C795 C794 1.400 . S
C795 C796 1.398 1_655 S
C795 C801 1.491 1_655 S
C796 H787 0.950 . S
C796 C795 1.398 1_455 S
C796 C797 1.391 . S
C797 H785 0.950 . S
C797 C793 1.393 1_455 S
C797 C796 1.391 . S
C798 H788 0.950 . S
C798 C799 1.386 . S
C798 C800 1.391 . S
C799 C798 1.386 . S
C799 C803 1.393 1_455 S
C800 H789 0.950 . S
C800 C798 1.391 . S
C800 C801 1.400 . S
C801 C795 1.491 1_455 S
C801 C800 1.400 . S
C801 C802 1.398 1_455 S
C802 H790 0.950 . S
C802 C801 1.398 1_655 S
C802 C803 1.391 . S
C803 H791 0.950 . S
C803 C799 1.393 1_655 S
C803 C802 1.391 . S
H804 C812 0.950 1_655 S
H805 C817 0.950 . S
H806 C814 0.950 . S
H807 C816 0.950 . S
H808 C818 0.950 . S
H809 C820 0.950 . S
H810 C822 0.950 . S
H811 C823 0.950 . S
C812 H804 0.950 1_455 S
C812 C813 1.386 1_455 S
C812 C814 1.391 . S
C813 C812 1.386 1_655 S
C813 C817 1.393 1_565 S
C814 H806 0.950 . S
C814 C812 1.391 . S
C814 C815 1.400 . S
C815 C814 1.400 . S
C815 C816 1.398 1_565 S
C815 C821 1.491 1_565 S
C816 H807 0.950 . S
C816 C815 1.398 1_545 S
C816 C817 1.391 1_455 S
C817 H805 0.950 . S
C817 C813 1.393 1_545 S
C817 C816 1.391 1_655 S
C818 H808 0.950 . S
C818 C819 1.386 . S
C818 C820 1.391 . S
C819 C818 1.386 . S
C819 C823 1.393 1_545 S
C820 H809 0.950 . S
C820 C818 1.391 . S
C820 C821 1.400 . S
C821 C815 1.491 1_545 S
C821 C820 1.400 . S
C821 C822 1.398 1_545 S
C822 H810 0.950 . S
C822 C821 1.398 1_565 S
C822 C823 1.391 . S
C823 H811 0.950 . S
C823 C819 1.393 1_565 S
C823 C822 1.391 . S
H824 C832 0.950 . S
H825 C837 0.950 . S
H826 C834 0.950 . S
H827 C836 0.950 . S
H828 C838 0.950 . S
H829 C840 0.950 . S
H830 C842 0.950 . S
H831 C843 0.950 1_565 S
C832 H824 0.950 . S
C832 C833 1.386 . S
C832 C834 1.391 . S
C833 C832 1.386 . S
C833 C837 1.393 . S
C834 H826 0.950 . S
C834 C832 1.391 . S
C834 C835 1.400 . S
C835 C834 1.400 . S
C835 C836 1.398 . S
C835 C841 1.491 . S
C836 H827 0.950 . S
C836 C835 1.398 . S
C836 C837 1.391 . S
C837 H825 0.950 . S
C837 C833 1.393 . S
C837 C836 1.391 . S
C838 H828 0.950 . S
C838 C839 1.386 . S
C838 C840 1.391 1_565 S
C839 C838 1.386 . S
C839 C843 1.393 1_565 S
C840 H829 0.950 . S
C840 C838 1.391 1_545 S
C840 C841 1.400 . S
C841 C835 1.491 . S
C841 C840 1.400 . S
C841 C842 1.398 . S
C842 H830 0.950 . S
C842 C841 1.398 . S
C842 C843 1.391 . S
C843 H831 0.950 1_545 S
C843 C839 1.393 1_545 S
C843 C842 1.391 . S
H844 C852 0.950 . S
H845 C857 0.950 . S
H846 C854 0.950 . S
H847 C856 0.950 . S
H848 C858 0.950 . S
H849 C860 0.950 . S
H850 C862 0.950 . S
H851 C863 0.950 . S
C852 H844 0.950 . S
C852 C853 1.386 . S
C852 C854 1.391 . S
C853 C852 1.386 . S
C853 C857 1.393 . S
C854 H846 0.950 . S
C854 C852 1.391 . S
C854 C855 1.400 . S
C855 C854 1.400 . S
C855 C856 1.398 . S
C855 C861 1.491 . S
C856 H847 0.950 . S
C856 C855 1.398 . S
C856 C857 1.391 . S
C857 H845 0.950 . S
C857 C853 1.393 . S
C857 C856 1.391 . S
C858 H848 0.950 . S
C858 C859 1.386 . S
C858 C860 1.391 . S
C859 C858 1.386 . S
C859 C863 1.393 . S
C860 H849 0.950 . S
C860 C858 1.391 . S
C860 C861 1.400 . S
C861 C855 1.491 . S
C861 C860 1.400 . S
C861 C862 1.398 . S
C862 H850 0.950 . S
C862 C861 1.398 . S
C862 C863 1.391 . S
C863 H851 0.950 . S
C863 C859 1.393 . S
C863 C862 1.391 . S
H864 C872 0.950 . S
H865 C877 0.950 . S
H866 C874 0.950 . S
H867 C876 0.950 . S
H868 C878 0.950 . S
H869 C880 0.950 . S
H870 C882 0.950 . S
H871 C883 0.950 1_545 S
C872 H864 0.950 . S
C872 C873 1.386 1_455 S
C872 C874 1.391 . S
C873 C872 1.386 1_655 S
C873 C877 1.393 . S
C874 H866 0.950 . S
C874 C872 1.391 . S
C874 C875 1.400 1_455 S
C875 C874 1.400 1_655 S
C875 C876 1.398 . S
C875 C881 1.491 1_655 S
C876 H867 0.950 . S
C876 C875 1.398 . S
C876 C877 1.391 . S
C877 H865 0.950 . S
C877 C873 1.393 . S
C877 C876 1.391 . S
C878 H868 0.950 . S
C878 C879 1.386 1_655 S
C878 C880 1.391 1_545 S
C879 C878 1.386 1_455 S
C879 C883 1.393 1_545 S
C880 H869 0.950 . S
C880 C878 1.391 1_565 S
C880 C881 1.400 1_655 S
C881 C875 1.491 1_455 S
C881 C880 1.400 1_455 S
C881 C882 1.398 . S
C882 H870 0.950 . S
C882 C881 1.398 . S
C882 C883 1.391 . S
C883 H871 0.950 1_565 S
C883 C879 1.393 1_565 S
C883 C882 1.391 . S
H884 C892 0.950 . S
H885 C897 0.950 . S
H886 C894 0.950 . S
H887 C896 0.950 . S
H888 C898 0.950 . S
H889 C900 0.950 . S
H890 C902 0.950 . S
H891 C903 0.950 . S
C892 H884 0.950 . S
C892 C893 1.386 1_545 S
C892 C894 1.391 . S
C893 C892 1.386 1_565 S
C893 C897 1.393 . S
C894 H886 0.950 . S
C894 C892 1.391 . S
C894 C895 1.400 1_545 S
C895 C894 1.400 1_565 S
C895 C896 1.398 . S
C895 C901 1.491 1_565 S
C896 H887 0.950 . S
C896 C895 1.398 . S
C896 C897 1.391 . S
C897 H885 0.950 . S
C897 C893 1.393 . S
C897 C896 1.391 . S
C898 H888 0.950 . S
C898 C899 1.386 1_565 S
C898 C900 1.391 . S
C899 C898 1.386 1_545 S
C899 C903 1.393 . S
C900 H889 0.950 . S
C900 C898 1.391 . S
C900 C901 1.400 1_565 S
C901 C895 1.491 1_545 S
C901 C900 1.400 1_545 S
C901 C902 1.398 . S
C902 H890 0.950 . S
C902 C901 1.398 . S
C902 C903 1.391 . S
C903 H891 0.950 . S
C903 C899 1.393 . S
C903 C902 1.391 . S
H904 C912 0.950 . S
H905 C917 0.950 . S
H906 C914 0.950 . S
H907 C916 0.950 . S
H908 C918 0.950 . S
H909 C920 0.950 . S
H910 C922 0.950 . S
H911 C923 0.950 . S
C912 H904 0.950 . S
C912 C913 1.386 . S
C912 C914 1.391 . S
C913 C912 1.386 . S
C913 C917 1.393 . S
C914 H906 0.950 . S
C914 C912 1.391 . S
C914 C915 1.400 . S
C915 C914 1.400 . S
C915 C916 1.398 . S
C915 C921 1.491 . S
C916 H907 0.950 . S
C916 C915 1.398 . S
C916 C917 1.391 . S
C917 H905 0.950 . S
C917 C913 1.393 . S
C917 C916 1.391 . S
C918 H908 0.950 . S
C918 C919 1.386 . S
C918 C920 1.391 . S
C919 C918 1.386 . S
C919 C923 1.393 . S
C920 H909 0.950 . S
C920 C918 1.391 . S
C920 C921 1.400 . S
C921 C915 1.491 . S
C921 C920 1.400 . S
C921 C922 1.398 . S
C922 H910 0.950 . S
C922 C921 1.398 . S
C922 C923 1.391 . S
C923 H911 0.950 . S
C923 C919 1.393 . S
C923 C922 1.391 . S
H924 C932 0.950 . S
H925 C937 0.950 . S
H926 C934 0.950 . S
H927 C936 0.950 . S
H928 C938 0.950 . S
H929 C940 0.950 . S
H930 C942 0.950 . S
H931 C943 0.950 1_455 S
C932 H924 0.950 . S
C932 C933 1.386 . S
C932 C934 1.391 . S
C933 C932 1.386 . S
C933 C937 1.393 . S
C934 H926 0.950 . S
C934 C932 1.391 . S
C934 C935 1.400 . S
C935 C934 1.400 . S
C935 C936 1.398 . S
C935 C941 1.491 . S
C936 H927 0.950 . S
C936 C935 1.398 . S
C936 C937 1.391 . S
C937 H925 0.950 . S
C937 C933 1.393 . S
C937 C936 1.391 . S
C938 H928 0.950 . S
C938 C939 1.386 . S
C938 C940 1.391 1_455 S
C939 C938 1.386 . S
C939 C943 1.393 1_455 S
C940 H929 0.950 . S
C940 C938 1.391 1_655 S
C940 C941 1.400 . S
C941 C935 1.491 . S
C941 C940 1.400 . S
C941 C942 1.398 . S
C942 H930 0.950 . S
C942 C941 1.398 . S
C942 C943 1.391 . S
C943 H931 0.950 1_655 S
C943 C939 1.393 1_655 S
C943 C942 1.391 . S
H944 C952 0.950 . S
H945 C957 0.950 . S
H946 C954 0.950 . S
H947 C956 0.950 . S
H948 C958 0.950 . S
H949 C960 0.950 . S
H950 C962 0.950 . S
H951 C963 0.950 . S
C952 H944 0.950 . S
C952 C953 1.386 1_455 S
C952 C954 1.391 . S
C953 C952 1.386 1_655 S
C953 C957 1.393 . S
C954 H946 0.950 . S
C954 C952 1.391 . S
C954 C955 1.400 1_455 S
C955 C954 1.400 1_655 S
C955 C956 1.398 . S
C955 C961 1.491 1_655 S
C956 H947 0.950 . S
C956 C955 1.398 . S
C956 C957 1.391 . S
C957 H945 0.950 . S
C957 C953 1.393 . S
C957 C956 1.391 . S
C958 H948 0.950 . S
C958 C959 1.386 1_655 S
C958 C960 1.391 . S
C959 C958 1.386 1_455 S
C959 C963 1.393 . S
C960 H949 0.950 . S
C960 C958 1.391 . S
C960 C961 1.400 1_655 S
C961 C955 1.491 1_455 S
C961 C960 1.400 1_455 S
C961 C962 1.398 . S
C962 H950 0.950 . S
C962 C961 1.398 . S
C962 C963 1.391 . S
C963 H951 0.950 . S
C963 C959 1.393 . S
C963 C962 1.391 . S
H964 C972 0.950 . S
H965 C977 0.950 . S
H966 C974 0.950 . S
H967 C976 0.950 . S
H968 C978 0.950 . S
H969 C980 0.950 . S
H970 C982 0.950 . S
H971 C983 0.958 . S
C972 H964 0.950 . S
C972 C973 1.386 . S
C972 C974 1.391 . S
C973 C972 1.386 . S
C973 C977 1.393 1_565 S
C974 H966 0.950 . S
C974 C972 1.391 . S
C974 C975 1.400 . S
C975 C974 1.400 . S
C975 C976 1.398 1_565 S
C975 C981 1.491 1_565 S
C976 H967 0.950 . S
C976 C975 1.398 1_545 S
C976 C977 1.391 . S
C977 H965 0.950 . S
C977 C973 1.393 1_545 S
C977 C976 1.391 . S
C978 H968 0.950 . S
C978 C979 1.386 . S
C978 C980 1.391 1_455 S
C979 C978 1.386 . S
C979 C983 1.380 1_545 S
C980 H969 0.950 . S
C980 C978 1.391 1_655 S
C980 C981 1.400 . S
C981 C975 1.491 1_545 S
C981 C980 1.400 . S
C981 C982 1.398 1_545 S
C982 H970 0.950 . S
C982 C981 1.398 1_565 S
C982 C983 1.396 1_655 S
C983 H971 0.958 . S
C983 C979 1.380 1_565 S
C983 C982 1.396 1_455 S
H984 C992 0.950 . S
H985 C997 0.950 . S
H986 C994 0.950 . S
H987 C996 0.950 . S
H988 C998 0.950 . S
H989 C1000 0.950 . S
H990 C1002 0.950 . S
H991 C1003 0.959 . S
C992 H984 0.950 . S
C992 C993 1.386 . S
C992 C994 1.391 . S
C993 C992 1.386 . S
C993 C997 1.393 . S
C994 H986 0.950 . S
C994 C992 1.391 . S
C994 C995 1.400 . S
C995 C994 1.400 . S
C995 C996 1.398 . S
C995 C1001 1.491 . S
C996 H987 0.950 . S
C996 C995 1.398 . S
C996 C997 1.391 . S
C997 H985 0.950 . S
C997 C993 1.393 . S
C997 C996 1.391 . S
C998 H988 0.950 . S
C998 C999 1.386 . S
C998 C1000 1.391 1_545 S
C999 C998 1.386 . S
C999 C1003 1.403 . S
C1000 H989 0.950 . S
C1000 C998 1.391 1_565 S
C1000 C1001 1.400 . S
C1001 C995 1.491 . S
C1001 C1000 1.400 . S
C1001 C1002 1.398 . S
C1002 H990 0.950 . S
C1002 C1001 1.398 . S
C1002 C1003 1.371 1_565 S
C1003 H991 0.959 . S
C1003 C999 1.403 . S
C1003 C1002 1.371 1_545 S
H1004 C1012 0.950 . S
H1005 C1017 0.950 . S
H1006 C1014 0.950 . S
H1007 C1016 0.950 . S
H1008 C1018 0.950 . S
H1009 C1020 0.950 . S
H1010 C1022 0.950 . S
H1011 C1023 0.950 . S
C1012 H1004 0.950 . S
C1012 C1013 1.386 . S
C1012 C1014 1.391 . S
C1013 C1012 1.386 . S
C1013 C1017 1.393 . S
C1014 H1006 0.950 . S
C1014 C1012 1.391 . S
C1014 C1015 1.400 . S
C1015 C1014 1.400 . S
C1015 C1016 1.398 . S
C1015 C1021 1.491 . S
C1016 H1007 0.950 . S
C1016 C1015 1.398 . S
C1016 C1017 1.391 . S
C1017 H1005 0.950 . S
C1017 C1013 1.393 . S
C1017 C1016 1.391 . S
C1018 H1008 0.950 . S
C1018 C1019 1.386 . S
C1018 C1020 1.391 . S
C1019 C1018 1.386 . S
C1019 C1023 1.393 . S
C1020 H1009 0.950 . S
C1020 C1018 1.391 . S
C1020 C1021 1.400 . S
C1021 C1015 1.491 . S
C1021 C1020 1.400 . S
C1021 C1022 1.398 . S
C1022 H1010 0.950 . S
C1022 C1021 1.398 . S
C1022 C1023 1.391 . S
C1023 H1011 0.950 . S
C1023 C1019 1.393 . S
C1023 C1022 1.391 . S
H1024 C1032 0.950 . S
H1025 C1037 0.950 . S
H1026 C1034 0.950 . S
H1027 C1036 0.950 . S
H1028 C1038 0.950 1_655 S
H1029 C1040 0.950 . S
H1030 C1042 0.950 . S
H1031 C1043 0.950 . S
C1032 H1024 0.950 . S
C1032 C1033 1.386 . S
C1032 C1034 1.391 . S
C1033 C1032 1.386 . S
C1033 C1037 1.393 . S
C1034 H1026 0.950 . S
C1034 C1032 1.391 . S
C1034 C1035 1.400 . S
C1035 C1034 1.400 . S
C1035 C1036 1.398 . S
C1035 C1041 1.491 . S
C1036 H1027 0.950 . S
C1036 C1035 1.398 . S
C1036 C1037 1.391 . S
C1037 H1025 0.950 . S
C1037 C1033 1.393 . S
C1037 C1036 1.391 . S
C1038 H1028 0.950 1_455 S
C1038 C1039 1.386 . S
C1038 C1040 1.391 . S
C1039 C1038 1.386 . S
C1039 C1043 1.393 . S
C1040 H1029 0.950 . S
C1040 C1038 1.391 . S
C1040 C1041 1.400 . S
C1041 C1035 1.491 . S
C1041 C1040 1.400 . S
C1041 C1042 1.398 . S
C1042 H1030 0.950 . S
C1042 C1041 1.398 . S
C1042 C1043 1.391 . S
C1043 H1031 0.950 . S
C1043 C1039 1.393 . S
C1043 C1042 1.391 . S
H1044 C1052 0.950 . S
H1045 C1057 0.950 . S
H1046 C1054 0.950 . S
H1047 C1056 0.950 . S
H1048 C1058 0.950 . S
H1049 C1060 0.950 . S
H1050 C1062 0.950 . S
H1051 C1063 0.950 . S
C1052 H1044 0.950 . S
C1052 C1053 1.386 . S
C1052 C1054 1.391 . S
C1053 C1052 1.386 . S
C1053 C1057 1.393 . S
C1054 H1046 0.950 . S
C1054 C1052 1.391 . S
C1054 C1055 1.400 . S
C1055 C1054 1.400 . S
C1055 C1056 1.398 . S
C1055 C1061 1.491 . S
C1056 H1047 0.950 . S
C1056 C1055 1.398 . S
C1056 C1057 1.391 . S
C1057 H1045 0.950 . S
C1057 C1053 1.393 . S
C1057 C1056 1.391 . S
C1058 H1048 0.950 . S
C1058 C1059 1.386 . S
C1058 C1060 1.391 . S
C1059 C1058 1.386 . S
C1059 C1063 1.393 . S
C1060 H1049 0.950 . S
C1060 C1058 1.391 . S
C1060 C1061 1.400 . S
C1061 C1055 1.491 . S
C1061 C1060 1.400 . S
C1061 C1062 1.398 . S
C1062 H1050 0.950 . S
C1062 C1061 1.398 . S
C1062 C1063 1.391 . S
C1063 H1051 0.950 . S
C1063 C1059 1.393 . S
C1063 C1062 1.391 . S
H1064 C1072 0.950 . S
H1065 C1077 0.950 . S
H1066 C1074 0.950 . S
H1067 C1076 0.950 . S
H1068 C1078 0.950 . S
H1069 C1080 0.950 . S
H1070 C1082 0.950 . S
H1071 C1083 0.950 . S
C1072 H1064 0.950 . S
C1072 C1073 1.386 . S
C1072 C1074 1.391 . S
C1073 C1072 1.386 . S
C1073 C1077 1.393 . S
C1074 H1066 0.950 . S
C1074 C1072 1.391 . S
C1074 C1075 1.400 . S
C1075 C1074 1.400 . S
C1075 C1076 1.398 . S
C1075 C1081 1.491 . S
C1076 H1067 0.950 . S
C1076 C1075 1.398 . S
C1076 C1077 1.391 . S
C1077 H1065 0.950 . S
C1077 C1073 1.393 . S
C1077 C1076 1.391 . S
C1078 H1068 0.950 . S
C1078 C1079 1.386 . S
C1078 C1080 1.391 . S
C1079 C1078 1.386 . S
C1079 C1083 1.393 . S
C1080 H1069 0.950 . S
C1080 C1078 1.391 . S
C1080 C1081 1.400 . S
C1081 C1075 1.491 . S
C1081 C1080 1.400 . S
C1081 C1082 1.398 . S
C1082 H1070 0.950 . S
C1082 C1081 1.398 . S
C1082 C1083 1.391 . S
C1083 H1071 0.950 . S
C1083 C1079 1.393 . S
C1083 C1082 1.391 . S
H1084 C1092 0.950 . S
H1085 C1097 0.950 . S
H1086 C1094 0.950 . S
H1087 C1096 0.950 . S
H1088 C1098 0.950 . S
H1089 C1100 0.950 . S
H1090 C1102 0.950 . S
H1091 C1103 0.950 . S
C1092 H1084 0.950 . S
C1092 C1093 1.386 . S
C1092 C1094 1.391 . S
C1093 C1092 1.386 . S
C1093 C1097 1.393 . S
C1094 H1086 0.950 . S
C1094 C1092 1.391 . S
C1094 C1095 1.400 . S
C1095 C1094 1.400 . S
C1095 C1096 1.398 . S
C1095 C1101 1.491 . S
C1096 H1087 0.950 . S
C1096 C1095 1.398 . S
C1096 C1097 1.391 . S
C1097 H1085 0.950 . S
C1097 C1093 1.393 . S
C1097 C1096 1.391 . S
C1098 H1088 0.950 . S
C1098 C1099 1.386 . S
C1098 C1100 1.391 . S
C1099 C1098 1.386 . S
C1099 C1103 1.393 . S
C1100 H1089 0.950 . S
C1100 C1098 1.391 . S
C1100 C1101 1.400 . S
C1101 C1095 1.491 . S
C1101 C1100 1.400 . S
C1101 C1102 1.398 . S
C1102 H1090 0.950 . S
C1102 C1101 1.398 . S
C1102 C1103 1.391 . S
C1103 H1091 0.950 . S
C1103 C1099 1.393 . S
C1103 C1102 1.391 . S
H1104 C1112 0.950 . S
H1105 C1117 0.950 . S
H1106 C1114 0.950 . S
H1107 C1116 0.950 . S
H1108 C1118 0.950 . S
H1109 C1120 0.950 . S
H1110 C1122 0.950 . S
H1111 C1123 0.950 . S
C1112 H1104 0.950 . S
C1112 C1113 1.386 . S
C1112 C1114 1.391 . S
C1113 C1112 1.386 . S
C1113 C1117 1.393 . S
C1114 H1106 0.950 . S
C1114 C1112 1.391 . S
C1114 C1115 1.400 . S
C1115 C1114 1.400 . S
C1115 C1116 1.398 . S
C1115 C1121 1.491 . S
C1116 H1107 0.950 . S
C1116 C1115 1.398 . S
C1116 C1117 1.391 . S
C1117 H1105 0.950 . S
C1117 C1113 1.393 . S
C1117 C1116 1.391 . S
C1118 H1108 0.950 . S
C1118 C1119 1.386 . S
C1118 C1120 1.391 . S
C1119 C1118 1.386 . S
C1119 C1123 1.393 . S
C1120 H1109 0.950 . S
C1120 C1118 1.391 . S
C1120 C1121 1.400 . S
C1121 C1115 1.491 . S
C1121 C1120 1.400 . S
C1121 C1122 1.398 . S
C1122 H1110 0.950 . S
C1122 C1121 1.398 . S
C1122 C1123 1.391 . S
C1123 H1111 0.950 . S
C1123 C1119 1.393 . S
C1123 C1122 1.391 . S
H1124 C1132 0.950 . S
H1125 C1137 0.950 . S
H1126 C1134 0.950 . S
H1127 C1136 0.950 . S
H1128 C1138 0.950 . S
H1129 C1140 0.950 . S
H1130 C1142 0.950 . S
H1131 C1143 0.950 . S
C1132 H1124 0.950 . S
C1132 C1133 1.386 . S
C1132 C1134 1.391 . S
C1133 C1132 1.386 . S
C1133 C1137 1.393 . S
C1134 H1126 0.950 . S
C1134 C1132 1.391 . S
C1134 C1135 1.400 . S
C1135 C1134 1.400 . S
C1135 C1136 1.398 . S
C1135 C1141 1.491 . S
C1136 H1127 0.950 . S
C1136 C1135 1.398 . S
C1136 C1137 1.391 . S
C1137 H1125 0.950 . S
C1137 C1133 1.393 . S
C1137 C1136 1.391 . S
C1138 H1128 0.950 . S
C1138 C1139 1.386 . S
C1138 C1140 1.391 . S
C1139 C1138 1.386 . S
C1139 C1143 1.393 . S
C1140 H1129 0.950 . S
C1140 C1138 1.391 . S
C1140 C1141 1.400 . S
C1141 C1135 1.491 . S
C1141 C1140 1.400 . S
C1141 C1142 1.398 . S
C1142 H1130 0.950 . S
C1142 C1141 1.398 . S
C1142 C1143 1.391 . S
C1143 H1131 0.950 . S
C1143 C1139 1.393 . S
C1143 C1142 1.391 . S
H1144 C1152 0.950 . S
H1145 C1157 0.950 . S
H1146 C1154 0.950 . S
H1147 C1156 0.950 . S
H1148 C1158 0.950 1_545 S
H1149 C1160 0.950 . S
H1150 C1162 0.950 . S
H1151 C1163 0.950 . S
C1152 H1144 0.950 . S
C1152 C1153 1.386 . S
C1152 C1154 1.391 . S
C1153 C1152 1.386 . S
C1153 C1157 1.393 . S
C1154 H1146 0.950 . S
C1154 C1152 1.391 . S
C1154 C1155 1.400 . S
C1155 C1154 1.400 . S
C1155 C1156 1.398 . S
C1155 C1161 1.491 . S
C1156 H1147 0.950 . S
C1156 C1155 1.398 . S
C1156 C1157 1.391 . S
C1157 H1145 0.950 . S
C1157 C1153 1.393 . S
C1157 C1156 1.391 . S
C1158 H1148 0.950 1_565 S
C1158 C1159 1.386 . S
C1158 C1160 1.391 . S
C1159 C1158 1.386 . S
C1159 C1163 1.393 . S
C1160 H1149 0.950 . S
C1160 C1158 1.391 . S
C1160 C1161 1.400 . S
C1161 C1155 1.491 . S
C1161 C1160 1.400 . S
C1161 C1162 1.398 . S
C1162 H1150 0.950 . S
C1162 C1161 1.398 . S
C1162 C1163 1.391 . S
C1163 H1151 0.950 . S
C1163 C1159 1.393 . S
C1163 C1162 1.391 . S
H1164 C1172 0.950 . S
H1165 C1177 0.950 . S
H1166 C1174 0.950 . S
H1167 C1176 0.950 . S
H1168 C1178 0.950 . S
H1169 C1180 0.950 . S
H1170 C1182 0.950 . S
H1171 C1183 0.950 . S
C1172 H1164 0.950 . S
C1172 C1173 1.386 . S
C1172 C1174 1.391 . S
C1173 C1172 1.386 . S
C1173 C1177 1.393 . S
C1174 H1166 0.950 . S
C1174 C1172 1.391 . S
C1174 C1175 1.400 . S
C1175 C1174 1.400 . S
C1175 C1176 1.398 . S
C1175 C1181 1.491 . S
C1176 H1167 0.950 . S
C1176 C1175 1.398 . S
C1176 C1177 1.391 . S
C1177 H1165 0.950 . S
C1177 C1173 1.393 . S
C1177 C1176 1.391 . S
C1178 H1168 0.950 . S
C1178 C1179 1.386 . S
C1178 C1180 1.391 . S
C1179 C1178 1.386 . S
C1179 C1183 1.393 . S
C1180 H1169 0.950 . S
C1180 C1178 1.391 . S
C1180 C1181 1.400 . S
C1181 C1175 1.491 . S
C1181 C1180 1.400 . S
C1181 C1182 1.398 . S
C1182 H1170 0.950 . S
C1182 C1181 1.398 . S
C1182 C1183 1.391 . S
C1183 H1171 0.950 . S
C1183 C1179 1.393 . S
C1183 C1182 1.391 . S
H1184 C1192 0.950 . S
H1185 C1197 0.950 . S
H1186 C1194 0.950 . S
H1187 C1196 0.950 . S
H1188 C1198 0.950 . S
H1189 C1200 0.950 . S
H1190 C1202 0.950 . S
H1191 C1203 0.950 . S
C1192 H1184 0.950 . S
C1192 C1193 1.386 . S
C1192 C1194 1.391 . S
C1193 C1192 1.386 . S
C1193 C1197 1.393 . S
C1194 H1186 0.950 . S
C1194 C1192 1.391 . S
C1194 C1195 1.400 . S
C1195 C1194 1.400 . S
C1195 C1196 1.398 . S
C1195 C1201 1.491 . S
C1196 H1187 0.950 . S
C1196 C1195 1.398 . S
C1196 C1197 1.391 . S
C1197 H1185 0.950 . S
C1197 C1193 1.393 . S
C1197 C1196 1.391 . S
C1198 H1188 0.950 . S
C1198 C1199 1.386 . S
C1198 C1200 1.391 . S
C1199 C1198 1.386 . S
C1199 C1203 1.393 . S
C1200 H1189 0.950 . S
C1200 C1198 1.391 . S
C1200 C1201 1.400 . S
C1201 C1195 1.491 . S
C1201 C1200 1.400 . S
C1201 C1202 1.398 . S
C1202 H1190 0.950 . S
C1202 C1201 1.398 . S
C1202 C1203 1.391 . S
C1203 H1191 0.950 . S
C1203 C1199 1.393 . S
C1203 C1202 1.391 . S
H1204 C1212 0.950 . S
H1205 C1217 0.950 . S
H1206 C1214 0.950 . S
H1207 C1216 0.950 . S
H1208 C1218 0.950 . S
H1209 C1220 0.950 . S
H1210 C1222 0.950 . S
H1211 C1223 0.950 . S
C1212 H1204 0.950 . S
C1212 C1213 1.386 . S
C1212 C1214 1.391 . S
C1213 C1212 1.386 . S
C1213 C1217 1.393 . S
C1214 H1206 0.950 . S
C1214 C1212 1.391 . S
C1214 C1215 1.400 . S
C1215 C1214 1.400 . S
C1215 C1216 1.398 . S
C1215 C1221 1.491 . S
C1216 H1207 0.950 . S
C1216 C1215 1.398 . S
C1216 C1217 1.391 . S
C1217 H1205 0.950 . S
C1217 C1213 1.393 . S
C1217 C1216 1.391 . S
C1218 H1208 0.950 . S
C1218 C1219 1.386 . S
C1218 C1220 1.391 . S
C1219 C1218 1.386 . S
C1219 C1223 1.393 . S
C1220 H1209 0.950 . S
C1220 C1218 1.391 . S
C1220 C1221 1.400 . S
C1221 C1215 1.491 . S
C1221 C1220 1.400 . S
C1221 C1222 1.398 . S
C1222 H1210 0.950 . S
C1222 C1221 1.398 . S
C1222 C1223 1.391 . S
C1223 H1211 0.950 . S
C1223 C1219 1.393 . S
C1223 C1222 1.391 . S
H1224 C1232 0.950 . S
H1225 C1237 0.950 . S
H1226 C1234 0.950 . S
H1227 C1236 0.950 . S
H1228 C1238 0.950 . S
H1229 C1240 0.950 . S
H1230 C1242 0.950 . S
H1231 C1243 0.950 . S
C1232 H1224 0.950 . S
C1232 C1233 1.386 . S
C1232 C1234 1.391 . S
C1233 C1232 1.386 . S
C1233 C1237 1.393 . S
C1234 H1226 0.950 . S
C1234 C1232 1.391 . S
C1234 C1235 1.400 . S
C1235 C1234 1.400 . S
C1235 C1236 1.398 . S
C1235 C1241 1.491 . S
C1236 H1227 0.950 . S
C1236 C1235 1.398 . S
C1236 C1237 1.391 . S
C1237 H1225 0.950 . S
C1237 C1233 1.393 . S
C1237 C1236 1.391 . S
C1238 H1228 0.950 . S
C1238 C1239 1.386 . S
C1238 C1240 1.391 . S
C1239 C1238 1.386 . S
C1239 C1243 1.393 . S
C1240 H1229 0.950 . S
C1240 C1238 1.391 . S
C1240 C1241 1.400 . S
C1241 C1235 1.491 . S
C1241 C1240 1.400 . S
C1241 C1242 1.398 . S
C1242 H1230 0.950 . S
C1242 C1241 1.398 . S
C1242 C1243 1.391 . S
C1243 H1231 0.950 . S
C1243 C1239 1.393 . S
C1243 C1242 1.391 . S
H1244 C1252 0.950 . S
H1245 C1257 0.950 . S
H1246 C1254 0.950 . S
H1247 C1256 0.950 . S
H1248 C1258 0.950 . S
H1249 C1260 0.950 . S
H1250 C1262 0.950 . S
H1251 C1263 0.950 . S
C1252 H1244 0.950 . S
C1252 C1253 1.386 . S
C1252 C1254 1.391 . S
C1253 C1252 1.386 . S
C1253 C1257 1.393 . S
C1254 H1246 0.950 . S
C1254 C1252 1.391 . S
C1254 C1255 1.400 . S
C1255 C1254 1.400 . S
C1255 C1256 1.398 . S
C1255 C1261 1.491 . S
C1256 H1247 0.950 . S
C1256 C1255 1.398 . S
C1256 C1257 1.391 . S
C1257 H1245 0.950 . S
C1257 C1253 1.393 . S
C1257 C1256 1.391 . S
C1258 H1248 0.950 . S
C1258 C1259 1.386 . S
C1258 C1260 1.391 . S
C1259 C1258 1.386 . S
C1259 C1263 1.393 . S
C1260 H1249 0.950 . S
C1260 C1258 1.391 . S
C1260 C1261 1.400 . S
C1261 C1255 1.491 . S
C1261 C1260 1.400 . S
C1261 C1262 1.398 . S
C1262 H1250 0.950 . S
C1262 C1261 1.398 . S
C1262 C1263 1.391 . S
C1263 H1251 0.950 . S
C1263 C1259 1.393 . S
C1263 C1262 1.391 . S
H1264 C1272 0.950 . S
H1265 C1277 0.950 . S
H1266 C1274 0.950 . S
H1267 C1276 0.950 . S
H1268 C1278 0.950 . S
H1269 C1280 0.950 . S
H1270 C1282 0.950 . S
H1271 C1283 0.950 . S
C1272 H1264 0.950 . S
C1272 C1273 1.386 . S
C1272 C1274 1.391 . S
C1273 C1272 1.386 . S
C1273 C1277 1.393 . S
C1274 H1266 0.950 . S
C1274 C1272 1.391 . S
C1274 C1275 1.400 . S
C1275 C1274 1.400 . S
C1275 C1276 1.398 . S
C1275 C1281 1.491 . S
C1276 H1267 0.950 . S
C1276 C1275 1.398 . S
C1276 C1277 1.391 . S
C1277 H1265 0.950 . S
C1277 C1273 1.393 . S
C1277 C1276 1.391 . S
C1278 H1268 0.950 . S
C1278 C1279 1.386 . S
C1278 C1280 1.391 . S
C1279 C1278 1.386 . S
C1279 C1283 1.393 . S
C1280 H1269 0.950 . S
C1280 C1278 1.391 . S
C1280 C1281 1.400 . S
C1281 C1275 1.491 . S
C1281 C1280 1.400 . S
C1281 C1282 1.398 . S
C1282 H1270 0.950 . S
C1282 C1281 1.398 . S
C1282 C1283 1.391 . S
C1283 H1271 0.950 . S
C1283 C1279 1.393 . S
C1283 C1282 1.391 . S
H1284 C1292 0.950 . S
H1285 C1297 0.950 . S
H1286 C1294 0.950 . S
H1287 C1296 0.950 . S
H1288 C1298 0.950 . S
H1289 C1300 0.950 . S
H1290 C1302 0.950 . S
H1291 C1303 0.950 . S
C1292 H1284 0.950 . S
C1292 C1293 1.386 . S
C1292 C1294 1.391 . S
C1293 C1292 1.386 . S
C1293 C1297 1.393 . S
C1294 H1286 0.950 . S
C1294 C1292 1.391 . S
C1294 C1295 1.400 . S
C1295 C1294 1.400 . S
C1295 C1296 1.398 . S
C1295 C1301 1.491 . S
C1296 H1287 0.950 . S
C1296 C1295 1.398 . S
C1296 C1297 1.391 . S
C1297 H1285 0.950 . S
C1297 C1293 1.393 . S
C1297 C1296 1.391 . S
C1298 H1288 0.950 . S
C1298 C1299 1.386 . S
C1298 C1300 1.391 . S
C1299 C1298 1.386 . S
C1299 C1303 1.393 . S
C1300 H1289 0.950 . S
C1300 C1298 1.391 . S
C1300 C1301 1.400 . S
C1301 C1295 1.491 . S
C1301 C1300 1.400 . S
C1301 C1302 1.398 . S
C1302 H1290 0.950 . S
C1302 C1301 1.398 . S
C1302 C1303 1.391 . S
C1303 H1291 0.950 . S
C1303 C1299 1.393 . S
C1303 C1302 1.391 . S
H1304 C1312 0.950 . S
H1305 C1317 0.950 . S
H1306 C1314 0.950 . S
H1307 C1316 0.950 . S
H1308 C1318 0.950 . S
H1309 C1320 0.950 . S
H1310 C1322 0.950 . S
H1311 C1323 0.950 . S
C1312 H1304 0.950 . S
C1312 C1313 1.386 . S
C1312 C1314 1.391 . S
C1313 C1312 1.386 . S
C1313 C1317 1.393 . S
C1314 H1306 0.950 . S
C1314 C1312 1.391 . S
C1314 C1315 1.400 . S
C1315 C1314 1.400 . S
C1315 C1316 1.398 . S
C1315 C1321 1.491 . S
C1316 H1307 0.950 . S
C1316 C1315 1.398 . S
C1316 C1317 1.391 . S
C1317 H1305 0.950 . S
C1317 C1313 1.393 . S
C1317 C1316 1.391 . S
C1318 H1308 0.950 . S
C1318 C1319 1.386 . S
C1318 C1320 1.391 . S
C1319 C1318 1.386 . S
C1319 C1323 1.393 . S
C1320 H1309 0.950 . S
C1320 C1318 1.391 . S
C1320 C1321 1.400 . S
C1321 C1315 1.491 . S
C1321 C1320 1.400 . S
C1321 C1322 1.398 . S
C1322 H1310 0.950 . S
C1322 C1321 1.398 . S
C1322 C1323 1.391 . S
C1323 H1311 0.950 . S
C1323 C1319 1.393 . S
C1323 C1322 1.391 . S
H1324 C1332 0.950 . S
H1325 C1337 0.950 . S
H1326 C1334 0.950 . S
H1327 C1336 0.950 . S
H1328 C1338 0.950 . S
H1329 C1340 0.950 . S
H1330 C1342 0.950 . S
H1331 C1343 0.950 . S
C1332 H1324 0.950 . S
C1332 C1333 1.386 . S
C1332 C1334 1.391 . S
C1333 C1332 1.386 . S
C1333 C1337 1.393 . S
C1334 H1326 0.950 . S
C1334 C1332 1.391 . S
C1334 C1335 1.400 . S
C1335 C1334 1.400 . S
C1335 C1336 1.398 . S
C1335 C1341 1.491 . S
C1336 H1327 0.950 . S
C1336 C1335 1.398 . S
C1336 C1337 1.391 . S
C1337 H1325 0.950 . S
C1337 C1333 1.393 . S
C1337 C1336 1.391 . S
C1338 H1328 0.950 . S
C1338 C1339 1.386 . S
C1338 C1340 1.391 . S
C1339 C1338 1.386 . S
C1339 C1343 1.393 . S
C1340 H1329 0.950 . S
C1340 C1338 1.391 . S
C1340 C1341 1.400 . S
C1341 C1335 1.491 . S
C1341 C1340 1.400 . S
C1341 C1342 1.398 . S
C1342 H1330 0.950 . S
C1342 C1341 1.398 . S
C1342 C1343 1.391 . S
C1343 H1331 0.950 . S
C1343 C1339 1.393 . S
C1343 C1342 1.391 . S
C553 C141 1.605 . S
C559 C5 1.601 . S
C573 C175 1.599 . S
C579 C39 1.594 . S
C593 C73 1.592 . S
C599 C209 1.592 . S
C613 C243 1.600 . S
C619 C107 1.596 . S
C633 C413 1.594 . S
C639 C277 1.598 . S
C653 C311 1.602 . S
C659 C447 1.598 . S
C673 C345 1.599 . S
C679 C481 1.603 . S
C693 C379 1.600 . S
C699 C515 1.595 . S
C713 C2 1.381 . S
C719 C428 1.404 . S
C733 C36 1.395 . S
C739 C462 1.407 . S
C753 C496 1.401 . S
C759 C70 1.378 . S
C773 C104 1.394 . S
C779 C530 1.406 . S
C793 C292 1.403 . S
C799 C138 1.388 . S
C813 C326 1.401 . S
C819 C172 1.380 . S
C833 C206 1.382 . S
C839 C360 1.405 . S
C853 C394 1.401 . S
C859 C240 1.380 . S
C873 C274 1.388 . S
C879 C156 1.407 . S
C893 C308 1.394 . S
C899 C190 1.409 . S
C913 C224 1.408 . S
C919 C342 1.393 . S
C933 C376 1.389 . S
C939 C258 1.408 . S
C953 C410 1.396 . S
C959 C20 1.408 . S
C973 C444 1.390 . S
C979 C54 1.404 . S
C993 C478 1.385 . S
C999 C88 1.406 . S
C1013 C122 1.401 . S
C1019 C512 1.378 . S
C1033 C247 1.622 . S
C1039 C9 1.635 . S
C1053 C43 1.656 . S
C1059 C145 1.661 . S
C1073 C179 1.660 . S
C1079 C77 1.646 . S
C1093 C213 1.642 . S
C1099 C111 1.626 . S
C1113 C281 1.643 . S
C1119 C519 1.626 . S
C1133 C417 1.648 . S
C1139 C315 1.630 . S
C1153 C349 1.660 . S
C1159 C451 1.647 . S
C1173 C485 1.636 . S
C1179 C383 1.623 . S
C1193 C101 0.256 . S
C1199 C33 0.199 . S
C1213 C135 0.263 . S
C1219 C67 0.215 . S
C1233 C169 0.179 . S
C1239 C237 0.238 . S
C1253 C271 0.226 . S
C1259 C203 0.173 . S
C1273 C305 0.197 . S
C1279 C373 0.255 . S
C1293 C407 0.265 . S
C1299 C339 0.225 . S
C1313 C441 0.195 . S
C1319 C509 0.177 . S
C1333 C475 0.233 . S
C1339 C543 0.266 . S
