# Generated by pormake.
# Topology rob, (6)-cn, num edge types: 1
# Building blocks:
#     Node 0, Type 0, BuildingBlock: KUMBUR_clean_sbu_0, # of connection points: 6
#     Node 1, Type 0, BuildingBlock: KUMBUR_clean_sbu_0, # of connection points: 6
#     Node 2, Type 0, BuildingBlock: KUMBUR_clean_sbu_0, # of connection points: 6
#     Node 3, Type 0, BuildingBlock: KUMBUR_clean_sbu_0, # of connection points: 6
#     Edge 4, Type (0, 0), BuildingBlock: UVAHIK_clean_linker_0, # of connection points: 2
#     Edge 5, Type (0, 0), BuildingBlock: UVAHIK_clean_linker_0, # of connection points: 2
#     Edge 6, Type (0, 0), BuildingBlock: UVAHIK_clean_linker_0, # of connection points: 2
#     Edge 7, Type (0, 0), BuildingBlock: UVAHIK_clean_linker_0, # of connection points: 2
#     Edge 8, Type (0, 0), BuildingBlock: UVAHIK_clean_linker_0, # of connection points: 2
#     Edge 9, Type (0, 0), BuildingBlock: UVAHIK_clean_linker_0, # of connection points: 2
#     Edge 10, Type (0, 0), BuildingBlock: UVAHIK_clean_linker_0, # of connection points: 2
#     Edge 11, Type (0, 0), BuildingBlock: UVAHIK_clean_linker_0, # of connection points: 2
#     Edge 12, Type (0, 0), BuildingBlock: UVAHIK_clean_linker_0, # of connection points: 2
#     Edge 13, Type (0, 0), BuildingBlock: UVAHIK_clean_linker_0, # of connection points: 2
#     Edge 14, Type (0, 0), BuildingBlock: UVAHIK_clean_linker_0, # of connection points: 2
#     Edge 15, Type (0, 0), BuildingBlock: UVAHIK_clean_linker_0, # of connection points: 2
# Relax obj value: 0.032
# Max RMSD: 0.150
# Mean RMSD: 0.150
data_MOF--net-rob--node1-KUMBUR_clean_sbu_0--edge1-UVAHIK_clean_linker_0
_symmetry_space_group_name_H-M    P1
_symmetry_Int_Tables_number       1
_symmetry_cell_setting            triclinic
loop_
_symmetry_equiv_pos_as_xyz
'x, y, z'
_cell_length_a     19.944795
_cell_length_b     33.904757
_cell_length_c     41.495948
_cell_angle_alpha  118.55685
_cell_angle_beta   90.000126
_cell_angle_gamma 89.986147
loop_
_atom_site_label
_atom_site_type_symbol
_atom_site_fract_x
_atom_site_fract_y
_atom_site_fract_z
_atom_type_partial_charge
Tb0 Tb 0.18125 0.29561 0.05074 0.0
C1 C 0.3692 0.13243 0.98432 0.0
C2 C 0.4657 0.15591 0.02435 0.0
C3 C 0.4342 0.07708 0.99232 0.0
C4 C 0.41045 0.16608 1.00841 0.0
C5 C 0.38122 0.08734 0.97525 0.0
C6 C 0.47639 0.11137 0.01689 0.0
C7 C 0.2913 0.06587 0.93106 0.0
N8 N 0.31907 0.14383 0.96833 0.0
C9 C 0.28162 0.11112 0.94092 0.0
C10 C 0.3408 0.05394 0.94862 0.0
Tb11 Tb 0.30468 0.21892 0.98739 0.0
N12 N 0.39873 0.20843 1.01441 0.0
C13 C 0.44401 0.24174 0.03392 0.0
C14 C 0.50972 0.19052 0.04625 0.0
C15 C 0.49944 0.23346 0.0505 0.0
H16 H 0.2429 0.1199 0.92732 0.0
H17 H 0.534 0.26031 0.06672 0.0
H18 H 0.51816 0.10293 0.02915 0.0
H19 H 0.26051 0.04025 0.90997 0.0
H20 H 0.43692 0.27526 0.03787 0.0
H21 H 0.95366 0.25353 0.96997 0.0
H22 H 0.55271 0.18419 0.05908 0.0
H23 H 0.24299 0.39443 0.11093 0.0
H24 H 0.0508 0.23863 0.99879 0.0
H25 H 0.22411 0.47427 0.12921 0.0
H26 H 0.44396 0.0427 0.98602 0.0
H27 H 0.93282 0.3302 0.97927 0.0
H28 H 0.96537 0.41187 1.01068 0.0
H29 H 0.34835 0.01887 0.94086 0.0
H30 H 0.0388 0.4722 0.05436 0.0
N31 N 0.08717 0.30599 0.0237 0.0
C32 C 0.04288 0.27235 1.00338 0.0
C33 C 0.9759 0.32387 0.99204 0.0
C34 C 0.01898 0.35871 1.01465 0.0
C35 C 0.98741 0.28061 0.98682 0.0
C36 C 0.07447 0.34853 0.03042 0.0
H37 H 0.13494 0.49589 0.09918 0.0
N38 N 0.1662 0.37073 0.07029 0.0
C39 C 0.1933 0.44869 0.10809 0.0
C40 C 0.11543 0.38222 0.05474 0.0
C41 C 0.20371 0.40336 0.09771 0.0
C42 C 0.14304 0.46076 0.09102 0.0
C43 C 0.10268 0.42739 0.06432 0.0
O44 O 0.17276 0.32047 0.10781 0.0
O45 O 0.26825 0.25449 0.04267 0.0
O46 O 0.24522 0.18089 1.00708 0.0
O47 O 0.1482 0.22481 0.02533 0.0
O48 O 0.26536 0.31394 0.08954 0.0
O49 O 0.09867 0.27536 0.07072 0.0
O50 O 0.31247 0.1941 0.93032 0.0
O51 O 0.21777 0.26037 0.99527 0.0
O52 O 0.24136 0.33406 0.03162 0.0
O53 O 0.3379 0.28961 1.01278 0.0
O54 O 0.22024 0.2001 0.94902 0.0
O55 O 0.38771 0.23831 0.96703 0.0
C56 C 0.30006 0.27798 0.07184 0.0
C57 C 0.0632 0.32593 0.13087 0.0
C58 C 3e-05 0.34337 0.18653 0.0
C59 C 0.05242 0.32042 0.16193 0.0
C60 C 0.95909 0.37245 0.17984 0.0
C61 C 0.02222 0.35531 0.12475 0.0
C62 C 0.97052 0.37854 0.14925 0.0
C63 C 0.18095 0.18676 0.01616 0.0
C64 C 0.11635 0.29978 0.10489 0.0
C65 C 0.04916 0.43774 0.04763 0.0
C66 C 0.00738 0.4034 0.02277 0.0
C67 C 0.18594 0.23636 0.96616 0.0
C68 C 0.42181 0.18704 0.90682 0.0
C69 C 0.43368 0.19266 0.8759 0.0
C70 C 0.48442 0.16805 0.85067 0.0
C71 C 0.52272 0.13737 0.85676 0.0
C72 C 0.46032 0.15623 0.91238 0.0
C73 C 0.51048 0.13146 0.88736 0.0
C74 C 0.30554 0.32788 0.02227 0.0
C75 C 0.36945 0.21405 0.93296 0.0
H76 H 0.08373 0.29733 0.16642 0.0
H77 H 0.91851 0.39064 0.19838 0.0
H78 H 0.02979 0.35997 0.10099 0.0
H79 H 0.93886 0.40109 0.14439 0.0
H80 H 0.40424 0.21688 0.87192 0.0
H81 H 0.56176 0.11766 0.83768 0.0
H82 H 0.45187 0.15149 0.93604 0.0
H83 H 0.54011 0.10769 0.89173 0.0
Tb84 Tb 0.68781 0.79447 0.04975 0.0
C85 C 0.86681 0.62655 0.9795 0.0
C86 C 0.96448 0.64703 0.01869 0.0
C87 C 0.92948 0.56892 0.98552 0.0
C88 C 0.90985 0.65896 1.00355 0.0
C89 C 0.87683 0.58097 0.96945 0.0
C90 C 0.97321 0.60195 1.01018 0.0
C91 C 0.78568 0.56252 0.92628 0.0
N92 N 0.81689 0.63963 0.96454 0.0
C93 C 0.77797 0.60819 0.9371 0.0
C94 C 0.83478 0.54887 0.94286 0.0
Tb95 Tb 0.80686 0.71525 0.98478 0.0
N96 N 0.89994 0.70195 1.01071 0.0
C97 C 0.94619 0.73426 0.03079 0.0
C98 C 0.0096 0.68054 0.04109 0.0
C99 C 0.00091 0.72423 0.04672 0.0
H100 H 0.73973 0.61826 0.92413 0.0
H101 H 0.03625 0.75026 0.0634 0.0
H102 H 0.01452 0.59214 0.02178 0.0
H103 H 0.75375 0.5379 0.90517 0.0
H104 H 0.94035 0.76826 0.03562 0.0
H105 H 0.45522 0.75674 0.97343 0.0
H106 H 0.05209 0.67283 0.05338 0.0
H107 H 0.7541 0.89248 0.10857 0.0
H108 H 0.55248 0.74035 1.00125 0.0
H109 H 0.73951 0.97231 0.12563 0.0
H110 H 0.93771 0.53412 0.97844 0.0
H111 H 0.43918 0.83294 0.98074 0.0
H112 H 0.4771 0.91349 1.0097 0.0
H113 H 0.8408 0.51347 0.93435 0.0
H114 H 0.55426 0.97251 0.05161 0.0
N115 N 0.59339 0.80641 0.02381 0.0
C116 C 0.54657 0.77389 1.00506 0.0
C117 C 0.48226 0.82597 0.99313 0.0
C118 C 0.52791 0.85982 1.01427 0.0
C119 C 0.49102 0.783 0.98907 0.0
C120 C 0.58319 0.84884 0.02965 0.0
H121 H 0.65168 0.99492 0.09557 0.0
N122 N 0.67617 0.8697 0.06857 0.0
C123 C 0.70738 0.94717 0.10504 0.0
C124 C 0.62609 0.88182 0.05306 0.0
C125 C 0.71534 0.90184 0.09536 0.0
C126 C 0.65789 0.95978 0.08794 0.0
C127 C 0.61576 0.92701 0.06197 0.0
O128 O 0.68159 0.82047 0.10702 0.0
O129 O 0.7731 0.7514 0.04083 0.0
O130 O 0.74573 0.67767 1.00423 0.0
O131 O 0.65163 0.7244 0.02511 0.0
O132 O 0.77359 0.81176 0.08706 0.0
O133 O 0.60536 0.77616 0.07126 0.0
O134 O 0.80983 0.69541 0.92844 0.0
O135 O 0.72187 0.75843 0.99409 0.0
O136 O 0.7485 0.83103 0.02914 0.0
O137 O 0.84355 0.78524 1.00988 0.0
O138 O 0.72081 0.69865 0.9474 0.0
O139 O 0.89463 0.72809 0.96294 0.0
C140 C 0.80624 0.77484 0.0696 0.0
C141 C 0.57276 0.82844 0.13145 0.0
C142 C 0.51026 0.84794 0.18774 0.0
C143 C 0.56086 0.82308 0.1625 0.0
C144 C 0.47218 0.87863 0.18156 0.0
C145 C 0.53451 0.8593 0.12582 0.0
C146 C 0.48453 0.88433 0.15087 0.0
C147 C 0.68222 0.68534 1.01479 0.0
C148 C 0.62453 0.80089 0.10511 0.0
C149 C 0.56275 0.93803 0.04542 0.0
C150 C 0.51887 0.90444 0.02155 0.0
C151 C 0.68815 0.73549 0.9655 0.0
C152 C 0.91519 0.67835 0.89992 0.0
C153 C 0.92993 0.68731 0.87094 0.0
C154 C 0.96701 0.65648 0.84016 0.0
C155 C 0.98968 0.61668 0.83946 0.0
C156 C 0.93914 0.63889 0.89881 0.0
C157 C 0.9763 0.60829 0.8687 0.0
C158 C 0.81242 0.82393 0.01939 0.0
C159 C 0.87096 0.70925 0.92965 0.0
H160 H 0.59006 0.79882 0.16655 0.0
H161 H 0.43323 0.89848 0.20063 0.0
H162 H 0.54296 0.86383 0.10206 0.0
H163 H 0.45507 0.90811 0.14642 0.0
H164 H 0.91217 0.71841 0.87258 0.0
H165 H 0.01686 0.59151 0.8161 0.0
H166 H 0.92847 0.63147 0.92086 0.0
H167 H 0.99403 0.57758 0.86777 0.0
Tb168 Tb 0.18718 0.71614 0.48426 0.0
C169 C 0.36408 0.88492 0.55713 0.0
C170 C 0.46207 0.86577 0.51825 0.0
C171 C 0.42616 0.94361 0.5524 0.0
C172 C 0.40754 0.85304 0.53288 0.0
C173 C 0.37358 0.93075 0.56793 0.0
C174 C 0.47031 0.91114 0.52753 0.0
C175 C 0.28216 0.94778 0.61075 0.0
N176 N 0.31427 0.87105 0.57158 0.0
C177 C 0.27499 0.9019 0.59922 0.0
C178 C 0.33113 0.96226 0.5947 0.0
Tb179 Tb 0.30516 0.79514 0.55022 0.0
N180 N 0.39805 0.80973 0.52494 0.0
C181 C 0.44457 0.77782 0.50448 0.0
C182 C 0.50752 0.83273 0.49553 0.0
C183 C 0.4992 0.78867 0.48904 0.0
H184 H 0.23688 0.89119 0.6118 0.0
H185 H 0.53477 0.76297 0.47208 0.0
H186 H 0.51154 0.92156 0.51634 0.0
H187 H 0.24993 0.97193 0.632 0.0
H188 H 0.43905 0.74354 0.49898 0.0
H189 H 0.95396 0.75116 0.55979 0.0
H190 H 0.54995 0.84106 0.48362 0.0
H191 H 0.2552 0.61909 0.42491 0.0
H192 H 0.05105 0.76887 0.53273 0.0
H193 H 0.24177 0.53884 0.40681 0.0
H194 H 0.434 0.97863 0.56006 0.0
H195 H 0.939 0.67441 0.55143 0.0
H196 H 0.97809 0.59404 0.52169 0.0
H197 H 0.33674 0.99782 0.60377 0.0
H198 H 0.05619 0.53591 0.47956 0.0
N199 N 0.09294 0.70302 0.50958 0.0
C200 C 0.04563 0.73511 0.52848 0.0
C201 C 0.98202 0.68196 0.53939 0.0
C202 C 0.0282 0.64857 0.51809 0.0
C203 C 0.99018 0.72525 0.54405 0.0
C204 C 0.08336 0.6603 0.50317 0.0
H205 H 0.15408 0.51486 0.43599 0.0
N206 N 0.17674 0.64066 0.46456 0.0
C207 C 0.20919 0.56355 0.42745 0.0
C208 C 0.12676 0.62781 0.47961 0.0
C209 C 0.21649 0.60909 0.4377 0.0
C210 C 0.15978 0.55016 0.44405 0.0
C211 C 0.11709 0.58238 0.47012 0.0
O212 O 0.18056 0.69036 0.42701 0.0
O213 O 0.27175 0.75989 0.49409 0.0
O214 O 0.24345 0.83331 0.53166 0.0
O215 O 0.15002 0.78608 0.50956 0.0
O216 O 0.27294 0.70058 0.44699 0.0
O217 O 0.10488 0.73502 0.46309 0.0
O218 O 0.30792 0.8136 0.6063 0.0
O219 O 0.22068 0.75128 0.5401 0.0
O220 O 0.24835 0.67919 0.50435 0.0
O221 O 0.34283 0.72536 0.52409 0.0
O222 O 0.21884 0.81057 0.58724 0.0
O223 O 0.39316 0.78212 0.57176 0.0
C224 C 0.30501 0.7376 0.46515 0.0
C225 C 0.07144 0.68323 0.40293 0.0
C226 C 0.00793 0.66506 0.34724 0.0
C227 C 0.05986 0.68871 0.37191 0.0
C228 C 0.96831 0.63533 0.35378 0.0
C229 C 0.03181 0.65318 0.40889 0.0
C230 C 0.98059 0.62926 0.3843 0.0
C231 C 0.18018 0.82546 0.52071 0.0
C232 C 0.1237 0.71029 0.42916 0.0
C233 C 0.06418 0.57059 0.4862 0.0
C234 C 0.01977 0.60368 0.5102 0.0
C235 C 0.18659 0.77367 0.56868 0.0
C236 C 0.41313 0.83113 0.63494 0.0
C237 C 0.42788 0.82193 0.66378 0.0
C238 C 0.46462 0.85273 0.69471 0.0
C239 C 0.48688 0.89278 0.69572 0.0
C240 C 0.43674 0.87081 0.63635 0.0
C241 C 0.4735 0.90142 0.66661 0.0
C242 C 0.3122 0.68646 0.51419 0.0
C243 C 0.36934 0.80019 0.605 0.0
H244 H 0.0901 0.71232 0.36754 0.0
H245 H 0.92809 0.61664 0.33518 0.0
H246 H 0.03998 0.64855 0.43262 0.0
H247 H 0.94995 0.6062 0.38906 0.0
H248 H 0.41043 0.79065 0.66191 0.0
H249 H 0.51377 0.91794 0.71921 0.0
H250 H 0.42615 0.8784 0.61438 0.0
H251 H 0.49095 0.9323 0.66777 0.0
Tb252 Tb 0.6835 0.21852 0.48696 0.0
C253 C 0.87307 0.38114 0.55472 0.0
C254 C 0.96948 0.35761 0.51458 0.0
C255 C 0.93949 0.43667 0.54775 0.0
C256 C 0.91395 0.34743 0.53033 0.0
C257 C 0.88594 0.42632 0.56441 0.0
C258 C 0.98119 0.40232 0.52281 0.0
C259 C 0.79534 0.44762 0.60821 0.0
N260 N 0.82225 0.36966 0.57025 0.0
C261 C 0.78481 0.40228 0.59773 0.0
C262 C 0.84564 0.4597 0.59117 0.0
Tb263 Tb 0.80703 0.29453 0.55052 0.0
N264 N 0.90116 0.30486 0.5235 0.0
C265 C 0.94537 0.27118 0.50309 0.0
C266 C 0.01248 0.32275 0.49189 0.0
C267 C 0.00086 0.27945 0.48656 0.0
H268 H 0.74549 0.39333 0.61091 0.0
H269 H 0.03455 0.25236 0.46964 0.0
H270 H 0.02323 0.4108 0.51074 0.0
H271 H 0.76458 0.47321 0.62937 0.0
H272 H 0.93737 0.23743 0.4984 0.0
H273 H 0.45792 0.25834 0.5692 0.0
H274 H 0.05558 0.32908 0.47914 0.0
H275 H 0.74432 0.12016 0.42456 0.0
H276 H 0.55389 0.27447 0.54032 0.0
H277 H 0.72614 0.04006 0.40523 0.0
H278 H 0.94994 0.47115 0.55455 0.0
H279 H 0.43813 0.18104 0.55861 0.0
H280 H 0.47113 0.09948 0.52583 0.0
H281 H 0.85384 0.49484 0.5994 0.0
H282 H 0.54417 0.03988 0.48103 0.0
N283 N 0.59052 0.20713 0.51413 0.0
C284 C 0.54636 0.24049 0.53521 0.0
C285 C 0.48066 0.1879 0.54582 0.0
C286 C 0.52362 0.15342 0.52251 0.0
C287 C 0.49158 0.23153 0.55178 0.0
C288 C 0.57841 0.16427 0.50673 0.0
H289 H 0.63891 0.01732 0.43547 0.0
N290 N 0.66951 0.14306 0.46633 0.0
C291 C 0.696 0.06532 0.427 0.0
C292 C 0.6194 0.13097 0.48188 0.0
C293 C 0.7061 0.11085 0.43805 0.0
C294 C 0.6468 0.05261 0.44418 0.0
C295 C 0.60699 0.08555 0.47161 0.0
O296 O 0.67881 0.20003 0.43089 0.0
O297 O 0.77028 0.26028 0.49513 0.0
O298 O 0.74707 0.33327 0.53167 0.0
O299 O 0.65021 0.28928 0.51325 0.0
O300 O 0.7681 0.19991 0.44877 0.0
O301 O 0.5954 0.23302 0.46645 0.0
O302 O 0.81587 0.31956 0.60759 0.0
O303 O 0.72026 0.25317 0.54235 0.0
O304 O 0.74386 0.17886 0.50464 0.0
O305 O 0.83997 0.2237 0.52493 0.0
O306 O 0.72315 0.3125 0.58931 0.0
O307 O 0.8896 0.27411 0.57038 0.0
C308 C 0.80231 0.23623 0.46605 0.0
C309 C 0.57258 0.18429 0.40353 0.0
C310 C 0.52079 0.16284 0.34387 0.0
C311 C 0.55875 0.19317 0.37443 0.0
C312 C 0.49631 0.12361 0.3435 0.0
C313 C 0.54678 0.14546 0.40277 0.0
C314 C 0.50875 0.11534 0.37288 0.0
C315 C 0.68275 0.32744 0.52265 0.0
C316 C 0.61788 0.2145 0.43293 0.0
C317 C 0.55419 0.07454 0.48827 0.0
C318 C 0.5126 0.10846 0.51375 0.0
C319 C 0.68887 0.27631 0.57181 0.0
C320 C 0.92559 0.32478 0.63039 0.0
C321 C 0.93624 0.31957 0.66161 0.0
C322 C 0.98881 0.34245 0.68608 0.0
C323 C 0.03004 0.37117 0.67912 0.0
C324 C 0.96687 0.35379 0.624 0.0
C325 C 0.01875 0.37696 0.64838 0.0
C326 C 0.80772 0.18518 0.51458 0.0
C327 C 0.87221 0.29872 0.60457 0.0
H328 H 0.57792 0.22383 0.37581 0.0
H329 H 0.46837 0.0988 0.3203 0.0
H330 H 0.55664 0.13814 0.42496 0.0
H331 H 0.4896 0.08509 0.37222 0.0
H332 H 0.9047 0.29676 0.66631 0.0
H333 H 0.07076 0.38929 0.69756 0.0
H334 H 0.95943 0.35821 0.60012 0.0
H335 H 0.05063 0.39923 0.6433 0.0
C336 C 0.57323 0.65257 0.02044 0.0
C337 C 0.64296 0.64842 1.01487 0.0
C338 C 0.53617 0.61801 0.02103 0.0
C339 C 0.54186 0.49689 0.99191 0.0
H340 H 0.40262 0.52626 0.06517 0.0
C341 C 0.4133 0.3622 0.01717 0.0
C342 C 0.34345 0.36536 0.02232 0.0
C343 C 0.44916 0.39702 0.01633 0.0
C344 C 0.44083 0.51757 0.0443 0.0
H345 H 0.72857 0.60492 1.00626 0.0
H346 H 0.66386 0.54466 1.00725 0.0
H347 H 0.46686 0.58641 0.06339 0.0
H348 H 0.25642 0.40749 0.03016 0.0
H349 H 0.31922 0.46837 0.02888 0.0
H350 H 0.51598 0.42806 0.97289 0.0
C351 C 0.63771 0.57437 1.01055 0.0
C352 C 0.47761 0.55199 0.04326 0.0
C353 C 0.67481 0.60896 1.00999 0.0
C354 C 0.31029 0.40422 0.02671 0.0
C355 C 0.34626 0.43913 0.02597 0.0
C356 C 0.50513 0.46248 0.99296 0.0
C357 C 0.56799 0.57856 0.01614 0.0
C358 C 0.52862 0.54202 0.0171 0.0
C359 C 0.41605 0.43579 0.0206 0.0
C360 C 0.45435 0.47244 0.01923 0.0
H361 H 0.54698 0.68246 0.02425 0.0
H362 H 0.48241 0.62202 0.02494 0.0
H363 H 0.58009 0.48815 0.97105 0.0
H364 H 0.44057 0.33283 1.01376 0.0
H365 H 0.50302 0.39372 1.01266 0.0
C366 C 0.31869 0.61068 0.51044 0.0
C367 C 0.3512 0.64949 0.51433 0.0
C368 C 0.35533 0.57598 0.51107 0.0
C369 C 0.51557 0.55247 0.54264 0.0
H370 H 0.47312 0.42861 0.47387 0.0
C371 C 0.67917 0.4035 0.52664 0.0
C372 C 0.6453 0.36512 0.52278 0.0
C373 C 0.64383 0.43858 0.52584 0.0
C374 C 0.48509 0.46302 0.49351 0.0
H375 H 0.44777 0.68235 0.52208 0.0
H376 H 0.51168 0.62164 0.52298 0.0
H377 H 0.41054 0.48902 0.47164 0.0
H378 H 0.54761 0.33361 0.51518 0.0
H379 H 0.48611 0.3949 0.51402 0.0
H380 H 0.59009 0.52642 0.56453 0.0
C381 C 0.45776 0.61824 0.51972 0.0
C382 C 0.44927 0.49761 0.49222 0.0
C383 C 0.42113 0.65293 0.51903 0.0
C384 C 0.57534 0.36263 0.51816 0.0
C385 C 0.54007 0.39766 0.5173 0.0
C386 C 0.55142 0.51786 0.54393 0.0
C387 C 0.42525 0.57941 0.51577 0.0
C388 C 0.46399 0.5427 0.51683 0.0
C389 C 0.57393 0.43594 0.52099 0.0
C390 C 0.5364 0.47276 0.51945 0.0
H391 H 0.26477 0.60725 0.50745 0.0
H392 H 0.32868 0.5468 0.50854 0.0
H393 H 0.52744 0.58688 0.56231 0.0
H394 H 0.73314 0.40624 0.52967 0.0
H395 H 0.67145 0.46738 0.52828 0.0
C396 C 0.07358 0.15104 0.02 0.0
C397 C 0.14367 0.14904 0.01606 0.0
C398 C 0.03842 0.11568 0.02038 0.0
C399 C 0.05135 0.99533 0.99299 0.0
H400 H 0.90741 0.02201 0.06328 0.0
C401 C 0.92112 0.85818 1.01523 0.0
C402 C 0.85105 0.86104 0.01928 0.0
C403 C 0.95746 0.89326 1.01502 0.0
C404 C 0.94701 0.01403 0.04324 0.0
H405 H 0.2319 0.10862 1.01017 0.0
H406 H 0.17046 0.04689 1.01068 0.0
H407 H 0.96973 0.08336 0.06245 0.0
H408 H 0.76406 0.90253 0.02532 0.0
H409 H 0.82745 0.96364 0.02507 0.0
H410 H 0.02852 0.92598 0.97375 0.0
C411 C 0.14263 0.07553 1.0129 0.0
C412 C 0.98269 0.04915 0.04276 0.0
C413 C 0.17783 0.11094 1.0126 0.0
C414 C 0.81808 0.89957 0.02285 0.0
C415 C 0.85442 0.93465 0.02271 0.0
C416 C 0.01565 0.96019 0.99347 0.0
C417 C 0.07255 0.07757 0.01688 0.0
C418 C 0.03512 0.04019 0.01757 0.0
C419 C 0.9245 0.9319 0.01881 0.0
C420 C 0.96298 0.96916 0.01855 0.0
H421 H 0.04562 0.17985 0.02268 0.0
H422 H 0.98434 0.118 0.02303 0.0
H423 H 0.09091 0.98738 0.97294 0.0
H424 H 0.94811 0.82898 1.01243 0.0
H425 H 0.0115 0.89036 1.01235 0.0
C426 C 0.81178 0.10848 0.50936 0.0
C427 C 0.84532 0.14744 0.51428 0.0
C428 C 0.84724 0.07334 0.50999 0.0
C429 C 0.00458 0.04921 0.54364 0.0
H430 H 0.96649 0.92561 0.47236 0.0
C431 C 0.17292 0.90217 0.52628 0.0
C432 C 0.14094 0.86254 0.52089 0.0
C433 C 0.13605 0.93694 0.5259 0.0
C434 C 0.97715 0.95993 0.49273 0.0
H435 H 0.94257 0.17991 0.52361 0.0
H436 H 0.00423 0.11855 0.5245 0.0
H437 H 0.90339 0.9862 0.47059 0.0
H438 H 0.04502 0.82837 0.5108 0.0
H439 H 0.98075 0.88919 0.51041 0.0
H440 H 0.07833 0.02301 0.56578 0.0
C441 C 0.95044 0.11538 0.52051 0.0
C442 C 0.94105 0.9946 0.49169 0.0
C443 C 0.91506 0.15046 0.5198 0.0
C444 C 0.0713 0.8584 0.51501 0.0
C445 C 0.03445 0.89317 0.5146 0.0
C446 C 0.04063 0.01456 0.5447 0.0
C447 C 0.91691 0.07652 0.51574 0.0
C448 C 0.95456 0.03962 0.51706 0.0
C449 C 0.06644 0.93279 0.52 0.0
C450 C 0.02745 0.96955 0.51918 0.0
H451 H 0.75797 0.10532 0.50563 0.0
H452 H 0.81988 0.04405 0.5067 0.0
H453 H 0.01536 0.08354 0.56395 0.0
H454 H 0.22662 0.90621 0.53024 0.0
H455 H 0.16233 0.96676 0.52957 0.0
C456 C 0.55421 0.19529 0.30249 0.0
C457 C 0.50738 0.17183 0.31245 0.0
C458 C 0.54077 0.20461 0.27371 0.0
C459 C 0.45485 0.16665 0.18794 0.0
H460 H 0.43161 0.29142 0.21265 0.0
C461 C 0.32612 0.21837 0.08921 0.0
C462 C 0.34014 0.2605 0.09212 0.0
C463 C 0.3563 0.20529 0.11303 0.0
C464 C 0.43954 0.2564 0.20478 0.0
H465 H 0.4093 0.13991 0.29919 0.0
H466 H 0.38806 0.15427 0.24788 0.0
H467 H 0.46669 0.27253 0.25975 0.0
H468 H 0.39795 0.32141 0.12121 0.0
H469 H 0.45403 0.29778 0.16136 0.0
H470 H 0.42981 0.15011 0.13282 0.0
C471 C 0.43484 0.16559 0.2628 0.0
C472 C 0.45909 0.24569 0.23202 0.0
C473 C 0.44741 0.15718 0.29213 0.0
C474 C 0.3866 0.28865 0.11839 0.0
C475 C 0.41804 0.2752 0.14167 0.0
C476 C 0.43689 0.17732 0.1604 0.0
C477 C 0.48111 0.1897 0.2536 0.0
C478 C 0.46571 0.20077 0.22397 0.0
C479 C 0.4017 0.23393 0.14021 0.0
C480 C 0.42761 0.22238 0.16853 0.0
H481 H 0.60167 0.20626 0.31665 0.0
H482 H 0.57728 0.22315 0.26693 0.0
H483 H 0.46023 0.13172 0.18113 0.0
H484 H 0.28915 0.19646 0.06993 0.0
H485 H 0.34113 0.17365 0.11119 0.0
C486 C 0.43 0.83663 0.22916 0.0
C487 C 0.49626 0.84124 0.22 0.0
C488 C 0.41651 0.82977 0.25917 0.0
C489 C 0.49617 0.79306 0.32151 0.0
H490 H 0.33281 0.84183 0.37706 0.0
C491 C 0.38199 0.72752 0.41469 0.0
C492 C 0.34308 0.75642 0.44504 0.0
C493 C 0.40949 0.74234 0.39138 0.0
C494 C 0.37933 0.82854 0.3624 0.0
H495 H 0.60037 0.84294 0.2355 0.0
H496 H 0.57692 0.83198 0.28845 0.0
H497 H 0.36302 0.86004 0.3291 0.0
H498 H 0.30321 0.8239 0.47498 0.0
H499 H 0.35388 0.85062 0.43571 0.0
H500 H 0.5132 0.76243 0.35549 0.0
C501 C 0.53529 0.83265 0.27198 0.0
C502 C 0.3961 0.83837 0.3343 0.0
C503 C 0.5488 0.83906 0.24167 0.0
C504 C 0.33401 0.801 0.45234 0.0
C505 C 0.36228 0.81609 0.42934 0.0
C506 C 0.47973 0.78358 0.3499 0.0
C507 C 0.4689 0.82783 0.28112 0.0
C508 C 0.45401 0.82005 0.31293 0.0
C509 C 0.39872 0.78659 0.39788 0.0
C510 C 0.42039 0.80049 0.37031 0.0
H511 H 0.3885 0.83744 0.21264 0.0
H512 H 0.36487 0.82516 0.26469 0.0
H513 H 0.54099 0.77807 0.3056 0.0
H514 H 0.38899 0.69279 0.40817 0.0
H515 H 0.43629 0.71833 0.36725 0.0
C516 C 0.6006 0.72631 0.91984 0.0
C517 C 0.64848 0.75365 0.94554 0.0
C518 C 0.56953 0.74008 0.89668 0.0
C519 C 0.55415 0.83767 0.87737 0.0
H520 H 0.5194 0.74241 0.77864 0.0
C521 C 0.53846 0.85914 0.74655 0.0
C522 C 0.47903 0.84341 0.72586 0.0
C523 C 0.55184 0.85058 0.77573 0.0
C524 C 0.52838 0.76928 0.8062 0.0
H525 H 0.70227 0.81661 0.96688 0.0
H526 H 0.6508 0.83996 0.9258 0.0
H527 H 0.55488 0.72346 0.82563 0.0
H528 H 0.38661 0.80681 0.72082 0.0
H529 H 0.41241 0.78978 0.77031 0.0
H530 H 0.53158 0.8833 0.85658 0.0
C531 C 0.63437 0.80874 0.92433 0.0
C532 C 0.54819 0.75855 0.83339 0.0
C533 C 0.66423 0.79534 0.94805 0.0
C534 C 0.43364 0.81867 0.73528 0.0
C535 C 0.4479 0.80924 0.76392 0.0
C536 C 0.53588 0.84834 0.84987 0.0
C537 C 0.58758 0.78085 0.89768 0.0
C538 C 0.56182 0.79256 0.86941 0.0
C539 C 0.50698 0.82526 0.78444 0.0
C540 C 0.52316 0.81422 0.81404 0.0
H541 H 0.58789 0.69388 0.91733 0.0
H542 H 0.53245 0.71813 0.87743 0.0
H543 H 0.56262 0.86489 0.90479 0.0
H544 H 0.57552 0.87742 0.73989 0.0
H545 H 0.59819 0.86278 0.79092 0.0
C546 C 0.61384 0.28823 0.62353 0.0
C547 C 0.65077 0.25846 0.59262 0.0
C548 C 0.58626 0.27398 0.64721 0.0
C549 C 0.61381 0.18723 0.67576 0.0
H550 H 0.45436 0.23993 0.73404 0.0
C551 C 0.56449 0.17928 0.80912 0.0
C552 C 0.49825 0.17496 0.81849 0.0
C553 C 0.57781 0.1863 0.77918 0.0
C554 C 0.49855 0.22435 0.71772 0.0
H555 H 0.68714 0.19011 0.56215 0.0
H556 H 0.63638 0.16453 0.6021 0.0
H557 H 0.48208 0.25555 0.68409 0.0
H558 H 0.39399 0.174 0.80344 0.0
H559 H 0.41717 0.18541 0.75068 0.0
H560 H 0.62963 0.15529 0.70876 0.0
C561 C 0.62955 0.19923 0.60859 0.0
C562 C 0.51494 0.23379 0.68929 0.0
C563 C 0.65787 0.2137 0.58521 0.0
C564 C 0.44556 0.17766 0.79712 0.0
C565 C 0.4589 0.18431 0.76692 0.0
C566 C 0.59714 0.17751 0.70391 0.0
C567 C 0.59505 0.2295 0.64053 0.0
C568 C 0.57346 0.21598 0.66832 0.0
C569 C 0.52527 0.18877 0.75755 0.0
C570 C 0.54001 0.1966 0.72578 0.0
H571 H 0.6084 0.32309 0.63014 0.0
H572 H 0.56095 0.29853 0.6717 0.0
H573 H 0.65971 0.17325 0.66064 0.0
H574 H 0.60612 0.1781 0.82541 0.0
H575 H 0.62946 0.19061 0.77345 0.0
C576 C 0.837 0.71377 0.08506 0.0
C577 C 0.84532 0.75775 0.09061 0.0
C578 C 0.86515 0.70099 0.10962 0.0
C579 C 0.90158 0.75074 0.20654 0.0
H580 H -0.00168 0.64116 0.18355 0.0
C581 C 0.92801 0.68238 0.30912 0.0
C582 C 0.99358 0.67262 0.3155 0.0
C583 C 0.91452 0.69121 0.28013 0.0
C584 C 0.97151 0.67192 0.19028 0.0
H585 H 0.89066 0.82239 0.12549 0.0
H586 H 0.93866 0.80038 0.16875 0.0
H587 H 0.97016 0.659 0.13423 0.0
H588 H 0.09617 0.66336 0.29605 0.0
H589 H 0.07216 0.67791 0.24463 0.0
H590 H 0.90118 0.76325 0.26225 0.0
C591 C 0.91114 0.77567 0.14524 0.0
C592 C 0.95523 0.682 0.16213 0.0
C593 C 0.8839 0.78819 0.12046 0.0
C594 C 0.04523 0.671 0.29182 0.0
C595 C 0.03147 0.67903 0.26234 0.0
C596 C 0.91669 0.74029 0.23444 0.0
C597 C 0.90055 0.73233 0.14062 0.0
C598 C 0.92022 0.7216 0.17006 0.0
C599 C 0.9661 0.68973 0.2565 0.0
C600 C 0.95165 0.70078 0.22663 0.0
H601 H 0.80627 0.68986 0.06286 0.0
H602 H 0.8558 0.66745 0.10557 0.0
H603 H 0.87392 0.78125 0.21339 0.0
H604 H 0.88736 0.68414 0.32708 0.0
H605 H 0.86363 0.69918 0.27612 0.0
C606 C 0.87918 0.22147 0.41455 0.0
C607 C 0.84213 0.25264 0.4448 0.0
C608 C 0.90667 0.2335 0.38953 0.0
C609 C 0.9527 0.32669 0.3721 0.0
H610 H 0.89587 0.24557 0.27249 0.0
C611 C 0.03883 0.33771 0.24187 0.0
C612 C 0.98664 0.33579 0.21836 0.0
C613 C 0.02599 0.32968 0.27143 0.0
C614 C 0.91217 0.26849 0.30015 0.0
H615 H 0.80632 0.32133 0.47306 0.0
H616 H 0.8561 0.3428 0.42987 0.0
H617 H 0.86954 0.228 0.32167 0.0
H618 H 0.88038 0.32372 0.2072 0.0
H619 H 0.85822 0.30879 0.25834 0.0
H620 H -0.00458 0.36713 0.35022 0.0
C621 C 0.86411 0.30907 0.42569 0.0
C622 C 0.89762 0.25827 0.32824 0.0
C623 C 0.83579 0.29682 0.45053 0.0
C624 C 0.92145 0.32573 0.22501 0.0
C625 C 0.90886 0.31693 0.25411 0.0
C626 C 0.96834 0.33655 0.34376 0.0
C627 C 0.89779 0.27705 0.39426 0.0
C628 C 0.91721 0.28738 0.36455 0.0
C629 C 0.96098 0.3187 0.27756 0.0
C630 C 0.94744 0.30776 0.30759 0.0
H631 H 0.88446 0.18713 0.4094 0.0
H632 H 0.93293 0.20826 0.36573 0.0
H633 H 0.96839 0.34966 0.39986 0.0
H634 H 0.08949 0.34561 0.23745 0.0
H635 H 0.06709 0.33103 0.28899 0.0
C636 C 0.06716 0.32486 0.72468 0.0
C637 C 0.00208 0.33513 0.71805 0.0
C638 C 0.0796 0.31621 0.75386 0.0
C639 C 0.0201 0.33642 0.84367 0.0
H640 H 0.11794 0.22753 0.82168 0.0
C641 C 0.15246 0.29682 0.9505 0.0
C642 C 0.14605 0.25269 0.94489 0.0
C643 C 0.12406 0.309 0.92564 0.0
C644 C 0.09011 0.25789 0.82822 0.0
H645 H 0.89928 0.34549 0.73726 0.0
H646 H 0.92143 0.33115 0.78895 0.0
H647 H 0.0918 0.24498 0.77243 0.0
H648 H 0.10352 0.18721 0.90967 0.0
H649 H 0.05486 0.20823 0.86597 0.0
H650 H 0.02012 0.34973 0.89981 0.0
C651 C 0.96256 0.32953 0.77131 0.0
C652 C 0.07569 0.26804 0.80009 0.0
C653 C 0.94986 0.33743 0.74167 0.0
C654 C 0.10885 0.22151 0.91473 0.0
C655 C 0.08125 0.23347 0.88969 0.0
C656 C 0.03562 0.32661 0.87205 0.0
C657 C 0.02744 0.31832 0.77741 0.0
C658 C 0.04079 0.30745 0.80749 0.0
C659 C 0.09021 0.27696 0.8943 0.0
C660 C 0.07076 0.28719 0.86454 0.0
H661 H 0.10825 0.32256 0.70678 0.0
H662 H 0.13015 0.30788 0.75807 0.0
H663 H 0.99332 0.3671 0.8501 0.0
H664 H 0.18205 0.32133 0.97295 0.0
H665 H 0.13214 0.34268 0.92973 0.0
C666 C 0.16365 0.71323 0.5856 0.0
C667 C 0.14706 0.75486 0.58819 0.0
C668 C 0.1344 0.69958 0.60932 0.0
C669 C 0.04832 0.74946 0.70039 0.0
H670 H 0.03486 0.62481 0.67787 0.0
C671 C 0.93562 0.68988 0.79915 0.0
C672 C 0.98127 0.66549 0.80881 0.0
C673 C 0.9497 0.69903 0.77033 0.0
C674 C 0.0383 0.65974 0.6844 0.0
H675 H 0.08534 0.81409 0.61638 0.0
H676 H 0.03085 0.78933 0.65616 0.0
H677 H 0.06503 0.64301 0.62942 0.0
H678 H 0.07802 0.63178 0.79498 0.0
H679 H 0.10041 0.64593 0.74367 0.0
H680 H 0.01954 0.76577 0.75518 0.0
C681 C 0.06824 0.76768 0.63694 0.0
C682 C 0.05607 0.67031 0.65676 0.0
C683 C 0.09873 0.78174 0.61383 0.0
C684 C 0.04077 0.6498 0.78816 0.0
C685 C 0.05399 0.65808 0.75881 0.0
C686 C 0.02903 0.73882 0.72771 0.0
C687 C 0.08737 0.72713 0.63602 0.0
C688 C 0.06248 0.7154 0.66445 0.0
C689 C 0.00888 0.68308 0.74986 0.0
C690 C 0.02488 0.69393 0.72012 0.0
H691 H 0.20198 0.6923 0.56676 0.0
H692 H 0.15157 0.66849 0.60786 0.0
H693 H 0.05413 0.78456 0.708 0.0
H694 H 0.88853 0.70169 0.81355 0.0
H695 H 0.914 0.71823 0.76378 0.0
loop_
_geom_bond_atom_site_label_1
_geom_bond_atom_site_label_2
_geom_bond_distance
_geom_bond_site_symmetry_2
_ccdc_geom_bond_type
Tb0 N31 2.660 . S
Tb0 N38 2.600 . S
Tb0 O44 2.546 . S
Tb0 O45 2.610 . S
Tb0 O47 2.320 . S
Tb0 O48 2.552 . S
Tb0 O49 2.413 . S
Tb0 O51 2.362 1_554 S
Tb0 O52 2.421 . S
Tb0 C64 2.833 . S
C1 C4 1.432 . S
C1 C5 1.414 . S
C1 N8 1.359 . S
C2 C4 1.417 1_554 S
C2 C6 1.432 . S
C2 C14 1.410 . S
C3 C5 1.444 . S
C3 C6 1.317 1_556 S
C3 H26 0.929 . S
C4 C1 1.432 . S
C4 C2 1.417 1_556 S
C4 N12 1.360 . S
C5 C1 1.414 . S
C5 C3 1.444 . S
C5 C10 1.385 . S
C6 C2 1.432 . S
C6 C3 1.317 1_554 S
C6 H18 0.930 . S
C7 C9 1.392 . S
C7 C10 1.370 . S
C7 H19 0.931 . S
N8 C1 1.359 . S
N8 C9 1.327 . S
N8 Tb11 2.600 . S
C9 C7 1.392 . S
C9 N8 1.327 . S
C9 H16 0.930 . S
C10 C5 1.385 . S
C10 C7 1.370 . S
C10 H29 0.930 . S
Tb11 N8 2.600 . S
Tb11 N12 2.660 . S
Tb11 O45 2.362 1_556 S
Tb11 O46 2.421 . S
Tb11 O50 2.546 . S
Tb11 O51 2.610 . S
Tb11 O53 2.320 . S
Tb11 O54 2.552 . S
Tb11 O55 2.413 . S
Tb11 C75 2.833 . S
N12 C4 1.360 . S
N12 Tb11 2.660 . S
N12 C13 1.305 1_556 S
C13 N12 1.305 1_554 S
C13 C15 1.407 . S
C13 H20 0.930 . S
C14 C2 1.410 . S
C14 C15 1.345 . S
C14 H22 0.930 . S
C15 C13 1.407 . S
C15 C14 1.345 . S
C15 H17 0.930 . S
H16 C9 0.930 . S
H17 C15 0.930 . S
H18 C6 0.930 . S
H19 C7 0.931 . S
H20 C13 0.930 . S
H21 C35 0.930 . S
H22 C14 0.930 . S
H23 C41 0.930 . S
H24 C32 0.930 . S
H25 C39 0.931 . S
H26 C3 0.929 . S
H27 C33 0.930 . S
H28 C66 0.930 . S
H29 C10 0.930 . S
H30 C65 0.929 . S
N31 Tb0 2.660 . S
N31 C32 1.305 1_554 S
N31 C36 1.360 . S
C32 H24 0.930 . S
C32 N31 1.305 1_556 S
C32 C35 1.407 1_455 S
C33 H27 0.930 . S
C33 C34 1.410 . S
C33 C35 1.345 . S
C34 C33 1.410 . S
C34 C36 1.417 1_656 S
C34 C66 1.432 . S
C35 H21 0.930 . S
C35 C32 1.407 1_655 S
C35 C33 1.345 . S
C36 N31 1.360 . S
C36 C34 1.417 1_454 S
C36 C40 1.432 . S
H37 C42 0.930 . S
N38 Tb0 2.600 . S
N38 C40 1.359 . S
N38 C41 1.327 . S
C39 H25 0.931 . S
C39 C41 1.392 . S
C39 C42 1.370 . S
C40 C36 1.432 . S
C40 N38 1.359 . S
C40 C43 1.414 . S
C41 H23 0.930 . S
C41 N38 1.327 . S
C41 C39 1.392 . S
C42 H37 0.930 . S
C42 C39 1.370 . S
C42 C43 1.385 . S
C43 C40 1.414 . S
C43 C42 1.385 . S
C43 C65 1.444 1_455 S
O44 Tb0 2.546 . S
O44 C64 1.251 . S
O45 Tb0 2.610 . S
O45 Tb11 2.362 1_554 S
O45 C56 1.283 . S
O46 Tb11 2.421 . S
O46 C63 1.262 . S
O47 Tb0 2.320 . S
O47 C63 1.260 1_554 S
O48 Tb0 2.552 . S
O48 C56 1.243 . S
O49 Tb0 2.413 . S
O49 C64 1.256 . S
O50 Tb11 2.546 . S
O50 C75 1.251 . S
O51 Tb0 2.362 1_556 S
O51 Tb11 2.610 . S
O51 C67 1.283 . S
O52 Tb0 2.421 . S
O52 C74 1.262 . S
O53 Tb11 2.320 . S
O53 C74 1.260 1_556 S
O54 Tb11 2.552 . S
O54 C67 1.243 . S
O55 Tb11 2.413 . S
O55 C75 1.256 . S
C56 O45 1.283 . S
C56 O48 1.243 . S
C57 C59 1.382 . S
C57 C61 1.393 . S
C57 C64 1.500 . S
C58 C59 1.400 . S
C58 C60 1.384 . S
C59 C57 1.382 . S
C59 C58 1.400 . S
C59 H76 0.930 . S
C60 C58 1.384 . S
C60 C62 1.392 . S
C60 H77 0.931 . S
C61 C57 1.393 . S
C61 C62 1.401 . S
C61 H78 0.930 . S
C62 C60 1.392 . S
C62 C61 1.401 . S
C62 H79 0.930 . S
C63 O46 1.262 . S
C63 O47 1.260 1_556 S
C64 Tb0 2.833 . S
C64 O44 1.251 . S
C64 O49 1.256 . S
C64 C57 1.500 . S
C65 H30 0.929 . S
C65 C43 1.444 1_655 S
C65 C66 1.317 1_554 S
C66 H28 0.930 . S
C66 C34 1.432 . S
C66 C65 1.317 1_556 S
C67 O51 1.283 . S
C67 O54 1.243 . S
C68 C69 1.382 . S
C68 C72 1.393 . S
C68 C75 1.500 . S
C69 C68 1.382 . S
C69 C70 1.400 . S
C69 H80 0.930 . S
C70 C69 1.400 . S
C70 C71 1.384 . S
C71 C70 1.384 . S
C71 C73 1.392 . S
C71 H81 0.931 . S
C72 C68 1.393 . S
C72 C73 1.401 . S
C72 H82 0.930 . S
C73 C71 1.392 . S
C73 C72 1.401 . S
C73 H83 0.930 . S
C74 O52 1.262 . S
C74 O53 1.260 1_554 S
C75 Tb11 2.833 . S
C75 O50 1.251 . S
C75 O55 1.256 . S
C75 C68 1.500 . S
H76 C59 0.930 . S
H77 C60 0.931 . S
H78 C61 0.930 . S
H79 C62 0.930 . S
H80 C69 0.930 . S
H81 C71 0.931 . S
H82 C72 0.930 . S
H83 C73 0.930 . S
Tb84 N115 2.660 . S
Tb84 N122 2.600 . S
Tb84 O128 2.546 . S
Tb84 O129 2.610 . S
Tb84 O131 2.320 . S
Tb84 O132 2.552 . S
Tb84 O133 2.413 . S
Tb84 O135 2.362 1_554 S
Tb84 O136 2.421 . S
Tb84 C148 2.833 . S
C85 C88 1.432 . S
C85 C89 1.414 . S
C85 N92 1.359 . S
C86 C88 1.417 1_454 S
C86 C90 1.432 . S
C86 C98 1.410 . S
C87 C89 1.444 1_455 S
C87 C90 1.317 1_556 S
C87 H110 0.929 . S
C88 C85 1.432 . S
C88 C86 1.417 1_656 S
C88 N96 1.360 . S
C89 C85 1.414 . S
C89 C87 1.444 1_655 S
C89 C94 1.385 . S
C90 C86 1.432 . S
C90 C87 1.317 1_554 S
C90 H102 0.930 . S
C91 C93 1.392 . S
C91 C94 1.370 . S
C91 H103 0.931 . S
N92 C85 1.359 . S
N92 C93 1.327 . S
N92 Tb95 2.600 . S
C93 C91 1.392 . S
C93 N92 1.327 . S
C93 H100 0.930 . S
C94 C89 1.385 . S
C94 C91 1.370 . S
C94 H113 0.930 . S
Tb95 N92 2.600 . S
Tb95 N96 2.660 . S
Tb95 O129 2.362 1_556 S
Tb95 O130 2.421 . S
Tb95 O134 2.546 . S
Tb95 O135 2.610 . S
Tb95 O137 2.320 . S
Tb95 O138 2.552 . S
Tb95 O139 2.413 . S
Tb95 C159 2.833 . S
N96 C88 1.360 . S
N96 Tb95 2.660 . S
N96 C97 1.305 1_556 S
C97 N96 1.305 1_554 S
C97 C99 1.407 1_655 S
C97 H104 0.930 . S
C98 C86 1.410 . S
C98 C99 1.345 . S
C98 H106 0.930 . S
C99 C97 1.407 1_455 S
C99 C98 1.345 . S
C99 H101 0.930 . S
H100 C93 0.930 . S
H101 C99 0.930 . S
H102 C90 0.930 . S
H103 C91 0.931 . S
H104 C97 0.930 . S
H105 C119 0.930 . S
H106 C98 0.930 . S
H107 C125 0.930 . S
H108 C116 0.930 . S
H109 C123 0.931 . S
H110 C87 0.929 . S
H111 C117 0.930 . S
H112 C150 0.930 . S
H113 C94 0.930 . S
H114 C149 0.929 . S
N115 Tb84 2.660 . S
N115 C116 1.305 1_554 S
N115 C120 1.360 . S
C116 H108 0.930 . S
C116 N115 1.305 1_556 S
C116 C119 1.407 . S
C117 H111 0.930 . S
C117 C118 1.410 . S
C117 C119 1.345 . S
C118 C117 1.410 . S
C118 C120 1.417 1_556 S
C118 C150 1.432 . S
C119 H105 0.930 . S
C119 C116 1.407 . S
C119 C117 1.345 . S
C120 N115 1.360 . S
C120 C118 1.417 1_554 S
C120 C124 1.432 . S
H121 C126 0.930 . S
N122 Tb84 2.600 . S
N122 C124 1.359 . S
N122 C125 1.327 . S
C123 H109 0.931 . S
C123 C125 1.392 . S
C123 C126 1.370 . S
C124 C120 1.432 . S
C124 N122 1.359 . S
C124 C127 1.414 . S
C125 H107 0.930 . S
C125 N122 1.327 . S
C125 C123 1.392 . S
C126 H121 0.930 . S
C126 C123 1.370 . S
C126 C127 1.385 . S
C127 C124 1.414 . S
C127 C126 1.385 . S
C127 C149 1.444 . S
O128 Tb84 2.546 . S
O128 C148 1.251 . S
O129 Tb84 2.610 . S
O129 Tb95 2.362 1_554 S
O129 C140 1.283 . S
O130 Tb95 2.421 . S
O130 C147 1.262 . S
O131 Tb84 2.320 . S
O131 C147 1.260 1_554 S
O132 Tb84 2.552 . S
O132 C140 1.243 . S
O133 Tb84 2.413 . S
O133 C148 1.256 . S
O134 Tb95 2.546 . S
O134 C159 1.251 . S
O135 Tb84 2.362 1_556 S
O135 Tb95 2.610 . S
O135 C151 1.283 . S
O136 Tb84 2.421 . S
O136 C158 1.262 . S
O137 Tb95 2.320 . S
O137 C158 1.260 1_556 S
O138 Tb95 2.552 . S
O138 C151 1.243 . S
O139 Tb95 2.413 . S
O139 C159 1.256 . S
C140 O129 1.283 . S
C140 O132 1.243 . S
C141 C143 1.382 . S
C141 C145 1.393 . S
C141 C148 1.500 . S
C142 C143 1.400 . S
C142 C144 1.384 . S
C143 C141 1.382 . S
C143 C142 1.400 . S
C143 H160 0.930 . S
C144 C142 1.384 . S
C144 C146 1.392 . S
C144 H161 0.931 . S
C145 C141 1.393 . S
C145 C146 1.401 . S
C145 H162 0.930 . S
C146 C144 1.392 . S
C146 C145 1.401 . S
C146 H163 0.930 . S
C147 O130 1.262 . S
C147 O131 1.260 1_556 S
C148 Tb84 2.833 . S
C148 O128 1.251 . S
C148 O133 1.256 . S
C148 C141 1.500 . S
C149 H114 0.929 . S
C149 C127 1.444 . S
C149 C150 1.317 1_554 S
C150 H112 0.930 . S
C150 C118 1.432 . S
C150 C149 1.317 1_556 S
C151 O135 1.283 . S
C151 O138 1.243 . S
C152 C153 1.382 . S
C152 C156 1.393 . S
C152 C159 1.500 . S
C153 C152 1.382 . S
C153 C154 1.400 . S
C153 H164 0.930 . S
C154 C153 1.400 . S
C154 C155 1.384 . S
C155 C154 1.384 . S
C155 C157 1.392 . S
C155 H165 0.931 . S
C156 C152 1.393 . S
C156 C157 1.401 . S
C156 H166 0.930 . S
C157 C155 1.392 . S
C157 C156 1.401 . S
C157 H167 0.930 . S
C158 O136 1.262 . S
C158 O137 1.260 1_554 S
C159 Tb95 2.833 . S
C159 O134 1.251 . S
C159 O139 1.256 . S
C159 C152 1.500 . S
H160 C143 0.930 . S
H161 C144 0.931 . S
H162 C145 0.930 . S
H163 C146 0.930 . S
H164 C153 0.930 . S
H165 C155 0.931 . S
H166 C156 0.930 . S
H167 C157 0.930 . S
Tb168 N199 2.660 . S
Tb168 N206 2.600 . S
Tb168 O212 2.546 . S
Tb168 O213 2.610 . S
Tb168 O215 2.320 . S
Tb168 O216 2.552 . S
Tb168 O217 2.413 . S
Tb168 O219 2.362 . S
Tb168 O220 2.421 . S
Tb168 C232 2.833 . S
C169 C172 1.432 . S
C169 C173 1.414 . S
C169 N176 1.359 . S
C170 C172 1.417 . S
C170 C174 1.432 . S
C170 C182 1.410 . S
C171 C173 1.444 . S
C171 C174 1.317 . S
C171 H194 0.929 . S
C172 C169 1.432 . S
C172 C170 1.417 . S
C172 N180 1.360 . S
C173 C169 1.414 . S
C173 C171 1.444 . S
C173 C178 1.385 . S
C174 C170 1.432 . S
C174 C171 1.317 . S
C174 H186 0.930 . S
C175 C177 1.392 . S
C175 C178 1.370 . S
C175 H187 0.931 . S
N176 C169 1.359 . S
N176 C177 1.327 . S
N176 Tb179 2.600 . S
C177 C175 1.392 . S
C177 N176 1.327 . S
C177 H184 0.930 . S
C178 C173 1.385 . S
C178 C175 1.370 . S
C178 H197 0.930 . S
Tb179 N176 2.600 . S
Tb179 N180 2.660 . S
Tb179 O213 2.362 . S
Tb179 O214 2.421 . S
Tb179 O218 2.546 . S
Tb179 O219 2.610 . S
Tb179 O221 2.320 . S
Tb179 O222 2.552 . S
Tb179 O223 2.413 . S
Tb179 C243 2.833 . S
N180 C172 1.360 . S
N180 Tb179 2.660 . S
N180 C181 1.305 . S
C181 N180 1.305 . S
C181 C183 1.407 . S
C181 H188 0.930 . S
C182 C170 1.410 . S
C182 C183 1.345 . S
C182 H190 0.930 . S
C183 C181 1.407 . S
C183 C182 1.345 . S
C183 H185 0.930 . S
H184 C177 0.930 . S
H185 C183 0.930 . S
H186 C174 0.930 . S
H187 C175 0.931 . S
H188 C181 0.930 . S
H189 C203 0.930 . S
H190 C182 0.930 . S
H191 C209 0.930 . S
H192 C200 0.930 . S
H193 C207 0.931 . S
H194 C171 0.929 . S
H195 C201 0.930 . S
H196 C234 0.930 . S
H197 C178 0.930 . S
H198 C233 0.929 . S
N199 Tb168 2.660 . S
N199 C200 1.305 . S
N199 C204 1.360 . S
C200 H192 0.930 . S
C200 N199 1.305 . S
C200 C203 1.407 1_455 S
C201 H195 0.930 . S
C201 C202 1.410 . S
C201 C203 1.345 . S
C202 C201 1.410 . S
C202 C204 1.417 1_655 S
C202 C234 1.432 . S
C203 H189 0.930 . S
C203 C200 1.407 1_655 S
C203 C201 1.345 . S
C204 N199 1.360 . S
C204 C202 1.417 1_455 S
C204 C208 1.432 . S
H205 C210 0.930 . S
N206 Tb168 2.600 . S
N206 C208 1.359 . S
N206 C209 1.327 . S
C207 H193 0.931 . S
C207 C209 1.392 . S
C207 C210 1.370 . S
C208 C204 1.432 . S
C208 N206 1.359 . S
C208 C211 1.414 . S
C209 H191 0.930 . S
C209 N206 1.327 . S
C209 C207 1.392 . S
C210 H205 0.930 . S
C210 C207 1.370 . S
C210 C211 1.385 . S
C211 C208 1.414 . S
C211 C210 1.385 . S
C211 C233 1.444 1_455 S
O212 Tb168 2.546 . S
O212 C232 1.251 . S
O213 Tb168 2.610 . S
O213 Tb179 2.362 . S
O213 C224 1.283 . S
O214 Tb179 2.421 . S
O214 C231 1.262 . S
O215 Tb168 2.320 . S
O215 C231 1.260 . S
O216 Tb168 2.552 . S
O216 C224 1.243 . S
O217 Tb168 2.413 . S
O217 C232 1.256 . S
O218 Tb179 2.546 . S
O218 C243 1.251 . S
O219 Tb168 2.362 . S
O219 Tb179 2.610 . S
O219 C235 1.283 . S
O220 Tb168 2.421 . S
O220 C242 1.262 . S
O221 Tb179 2.320 . S
O221 C242 1.260 . S
O222 Tb179 2.552 . S
O222 C235 1.243 . S
O223 Tb179 2.413 . S
O223 C243 1.256 . S
C224 O213 1.283 . S
C224 O216 1.243 . S
C225 C227 1.382 . S
C225 C229 1.393 . S
C225 C232 1.500 . S
C226 C227 1.400 . S
C226 C228 1.384 . S
C227 C225 1.382 . S
C227 C226 1.400 . S
C227 H244 0.930 . S
C228 C226 1.384 . S
C228 C230 1.392 . S
C228 H245 0.931 . S
C229 C225 1.393 . S
C229 C230 1.401 . S
C229 H246 0.930 . S
C230 C228 1.392 . S
C230 C229 1.401 . S
C230 H247 0.930 . S
C231 O214 1.262 . S
C231 O215 1.260 . S
C232 Tb168 2.833 . S
C232 O212 1.251 . S
C232 O217 1.256 . S
C232 C225 1.500 . S
C233 H198 0.929 . S
C233 C211 1.444 1_655 S
C233 C234 1.317 . S
C234 H196 0.930 . S
C234 C202 1.432 . S
C234 C233 1.317 . S
C235 O219 1.283 . S
C235 O222 1.243 . S
C236 C237 1.382 . S
C236 C240 1.393 . S
C236 C243 1.500 . S
C237 C236 1.382 . S
C237 C238 1.400 . S
C237 H248 0.930 . S
C238 C237 1.400 . S
C238 C239 1.384 . S
C239 C238 1.384 . S
C239 C241 1.392 . S
C239 H249 0.931 . S
C240 C236 1.393 . S
C240 C241 1.401 . S
C240 H250 0.930 . S
C241 C239 1.392 . S
C241 C240 1.401 . S
C241 H251 0.930 . S
C242 O220 1.262 . S
C242 O221 1.260 . S
C243 Tb179 2.833 . S
C243 O218 1.251 . S
C243 O223 1.256 . S
C243 C236 1.500 . S
H244 C227 0.930 . S
H245 C228 0.931 . S
H246 C229 0.930 . S
H247 C230 0.930 . S
H248 C237 0.930 . S
H249 C239 0.931 . S
H250 C240 0.930 . S
H251 C241 0.930 . S
Tb252 N283 2.660 . S
Tb252 N290 2.600 . S
Tb252 O296 2.546 . S
Tb252 O297 2.610 . S
Tb252 O299 2.320 . S
Tb252 O300 2.552 . S
Tb252 O301 2.413 . S
Tb252 O303 2.362 . S
Tb252 O304 2.421 . S
Tb252 C316 2.833 . S
C253 C256 1.432 . S
C253 C257 1.414 . S
C253 N260 1.359 . S
C254 C256 1.417 1_455 S
C254 C258 1.432 . S
C254 C266 1.410 . S
C255 C257 1.444 1_455 S
C255 C258 1.317 . S
C255 H278 0.929 . S
C256 C253 1.432 . S
C256 C254 1.417 1_655 S
C256 N264 1.360 . S
C257 C253 1.414 . S
C257 C255 1.444 1_655 S
C257 C262 1.385 . S
C258 C254 1.432 . S
C258 C255 1.317 . S
C258 H270 0.930 . S
C259 C261 1.392 . S
C259 C262 1.370 . S
C259 H271 0.931 . S
N260 C253 1.359 . S
N260 C261 1.327 . S
N260 Tb263 2.600 . S
C261 C259 1.392 . S
C261 N260 1.327 . S
C261 H268 0.930 . S
C262 C257 1.385 . S
C262 C259 1.370 . S
C262 H281 0.930 . S
Tb263 N260 2.600 . S
Tb263 N264 2.660 . S
Tb263 O297 2.362 . S
Tb263 O298 2.421 . S
Tb263 O302 2.546 . S
Tb263 O303 2.610 . S
Tb263 O305 2.320 . S
Tb263 O306 2.552 . S
Tb263 O307 2.413 . S
Tb263 C327 2.833 . S
N264 C256 1.360 . S
N264 Tb263 2.660 . S
N264 C265 1.305 . S
C265 N264 1.305 . S
C265 C267 1.407 1_655 S
C265 H272 0.930 . S
C266 C254 1.410 . S
C266 C267 1.345 . S
C266 H274 0.930 . S
C267 C265 1.407 1_455 S
C267 C266 1.345 . S
C267 H269 0.930 . S
H268 C261 0.930 . S
H269 C267 0.930 . S
H270 C258 0.930 . S
H271 C259 0.931 . S
H272 C265 0.930 . S
H273 C287 0.930 . S
H274 C266 0.930 . S
H275 C293 0.930 . S
H276 C284 0.930 . S
H277 C291 0.931 . S
H278 C255 0.929 . S
H279 C285 0.930 . S
H280 C318 0.930 . S
H281 C262 0.930 . S
H282 C317 0.929 . S
N283 Tb252 2.660 . S
N283 C284 1.305 . S
N283 C288 1.360 . S
C284 H276 0.930 . S
C284 N283 1.305 . S
C284 C287 1.407 . S
C285 H279 0.930 . S
C285 C286 1.410 . S
C285 C287 1.345 . S
C286 C285 1.410 . S
C286 C288 1.417 . S
C286 C318 1.432 . S
C287 H273 0.930 . S
C287 C284 1.407 . S
C287 C285 1.345 . S
C288 N283 1.360 . S
C288 C286 1.417 . S
C288 C292 1.432 . S
H289 C294 0.930 . S
N290 Tb252 2.600 . S
N290 C292 1.359 . S
N290 C293 1.327 . S
C291 H277 0.931 . S
C291 C293 1.392 . S
C291 C294 1.370 . S
C292 C288 1.432 . S
C292 N290 1.359 . S
C292 C295 1.414 . S
C293 H275 0.930 . S
C293 N290 1.327 . S
C293 C291 1.392 . S
C294 H289 0.930 . S
C294 C291 1.370 . S
C294 C295 1.385 . S
C295 C292 1.414 . S
C295 C294 1.385 . S
C295 C317 1.444 . S
O296 Tb252 2.546 . S
O296 C316 1.251 . S
O297 Tb252 2.610 . S
O297 Tb263 2.362 . S
O297 C308 1.283 . S
O298 Tb263 2.421 . S
O298 C315 1.262 . S
O299 Tb252 2.320 . S
O299 C315 1.260 . S
O300 Tb252 2.552 . S
O300 C308 1.243 . S
O301 Tb252 2.413 . S
O301 C316 1.256 . S
O302 Tb263 2.546 . S
O302 C327 1.251 . S
O303 Tb252 2.362 . S
O303 Tb263 2.610 . S
O303 C319 1.283 . S
O304 Tb252 2.421 . S
O304 C326 1.262 . S
O305 Tb263 2.320 . S
O305 C326 1.260 . S
O306 Tb263 2.552 . S
O306 C319 1.243 . S
O307 Tb263 2.413 . S
O307 C327 1.256 . S
C308 O297 1.283 . S
C308 O300 1.243 . S
C309 C311 1.382 . S
C309 C313 1.393 . S
C309 C316 1.500 . S
C310 C311 1.400 . S
C310 C312 1.384 . S
C311 C309 1.382 . S
C311 C310 1.400 . S
C311 H328 0.930 . S
C312 C310 1.384 . S
C312 C314 1.392 . S
C312 H329 0.931 . S
C313 C309 1.393 . S
C313 C314 1.401 . S
C313 H330 0.930 . S
C314 C312 1.392 . S
C314 C313 1.401 . S
C314 H331 0.930 . S
C315 O298 1.262 . S
C315 O299 1.260 . S
C316 Tb252 2.833 . S
C316 O296 1.251 . S
C316 O301 1.256 . S
C316 C309 1.500 . S
C317 H282 0.929 . S
C317 C295 1.444 . S
C317 C318 1.317 . S
C318 H280 0.930 . S
C318 C286 1.432 . S
C318 C317 1.317 . S
C319 O303 1.283 . S
C319 O306 1.243 . S
C320 C321 1.382 . S
C320 C324 1.393 . S
C320 C327 1.500 . S
C321 C320 1.382 . S
C321 C322 1.400 . S
C321 H332 0.930 . S
C322 C321 1.400 . S
C322 C323 1.384 . S
C323 C322 1.384 . S
C323 C325 1.392 . S
C323 H333 0.931 . S
C324 C320 1.393 . S
C324 C325 1.401 . S
C324 H334 0.930 . S
C325 C323 1.392 . S
C325 C324 1.401 . S
C325 H335 0.930 . S
C326 O304 1.262 . S
C326 O305 1.260 . S
C327 Tb263 2.833 . S
C327 O302 1.251 . S
C327 O307 1.256 . S
C327 C320 1.500 . S
H328 C311 0.930 . S
H329 C312 0.931 . S
H330 C313 0.930 . S
H331 C314 0.930 . S
H332 C321 0.930 . S
H333 C323 0.931 . S
H334 C324 0.930 . S
H335 C325 0.930 . S
C336 C337 1.345 . S
C336 C338 1.327 . S
C336 H361 0.950 . S
C337 C336 1.345 . S
C337 C353 1.351 1_554 S
C338 C336 1.327 . S
C338 C357 1.448 . S
C338 H362 0.950 . S
C339 C356 1.574 . S
C339 C358 1.368 1_556 S
C339 H363 0.949 . S
H340 C344 0.949 . S
C341 C342 1.349 1_556 S
C341 C343 1.327 . S
C341 H364 0.950 . S
C342 C341 1.349 1_554 S
C342 C354 1.349 . S
C343 C341 1.327 . S
C343 C359 1.429 1_556 S
C343 H365 0.950 . S
C344 H340 0.949 . S
C344 C352 1.574 . S
C344 C360 1.368 . S
H345 C353 0.950 . S
H346 C351 0.950 . S
H347 C352 0.949 . S
H348 C354 0.950 . S
H349 C355 0.950 . S
H350 C356 0.949 . S
C351 H346 0.950 . S
C351 C353 1.327 . S
C351 C357 1.394 1_556 S
C352 C344 1.574 . S
C352 H347 0.949 . S
C352 C358 1.368 . S
C353 C337 1.351 1_556 S
C353 H345 0.950 . S
C353 C351 1.327 . S
C354 C342 1.349 . S
C354 H348 0.950 . S
C354 C355 1.327 . S
C355 H349 0.950 . S
C355 C354 1.327 . S
C355 C359 1.429 . S
C356 C339 1.574 . S
C356 H350 0.949 . S
C356 C360 1.368 1_556 S
C357 C338 1.448 . S
C357 C351 1.394 1_554 S
C357 C358 1.538 . S
C358 C339 1.368 1_554 S
C358 C352 1.368 . S
C358 C357 1.538 . S
C359 C343 1.429 1_554 S
C359 C355 1.429 . S
C359 C360 1.523 . S
C360 C344 1.368 . S
C360 C356 1.368 1_554 S
C360 C359 1.523 . S
H361 C336 0.950 . S
H362 C338 0.950 . S
H363 C339 0.949 . S
H364 C341 0.950 . S
H365 C343 0.950 . S
C366 C367 1.349 . S
C366 C368 1.327 . S
C366 H391 0.950 . S
C367 C366 1.349 . S
C367 C383 1.349 . S
C368 C366 1.327 . S
C368 C387 1.429 . S
C368 H392 0.950 . S
C369 C386 1.574 . S
C369 C388 1.368 . S
C369 H393 0.949 . S
H370 C374 0.949 . S
C371 C372 1.349 . S
C371 C373 1.327 . S
C371 H394 0.950 . S
C372 C371 1.349 . S
C372 C384 1.349 . S
C373 C371 1.327 . S
C373 C389 1.429 . S
C373 H395 0.950 . S
C374 H370 0.949 . S
C374 C382 1.574 . S
C374 C390 1.368 . S
H375 C383 0.950 . S
H376 C381 0.950 . S
H377 C382 0.949 . S
H378 C384 0.950 . S
H379 C385 0.950 . S
H380 C386 0.949 . S
C381 H376 0.950 . S
C381 C383 1.327 . S
C381 C387 1.429 . S
C382 C374 1.574 . S
C382 H377 0.949 . S
C382 C388 1.368 . S
C383 C367 1.349 . S
C383 H375 0.950 . S
C383 C381 1.327 . S
C384 C372 1.349 . S
C384 H378 0.950 . S
C384 C385 1.327 . S
C385 H379 0.950 . S
C385 C384 1.327 . S
C385 C389 1.429 . S
C386 C369 1.574 . S
C386 H380 0.949 . S
C386 C390 1.368 . S
C387 C368 1.429 . S
C387 C381 1.429 . S
C387 C388 1.523 . S
C388 C369 1.368 . S
C388 C382 1.368 . S
C388 C387 1.523 . S
C389 C373 1.429 . S
C389 C385 1.429 . S
C389 C390 1.523 . S
C390 C374 1.368 . S
C390 C386 1.368 . S
C390 C389 1.523 . S
H391 C366 0.950 . S
H392 C368 0.950 . S
H393 C369 0.949 . S
H394 C371 0.950 . S
H395 C373 0.950 . S
C396 C397 1.345 . S
C396 C398 1.327 . S
C396 H421 0.950 . S
C397 C396 1.345 . S
C397 C413 1.351 1_554 S
C398 C396 1.327 . S
C398 C417 1.447 . S
C398 H422 0.950 . S
C399 C416 1.574 1_455 S
C399 C418 1.368 1_566 S
C399 H423 0.949 . S
H400 C404 0.949 . S
C401 C402 1.349 1_556 S
C401 C403 1.327 . S
C401 H424 0.950 . S
C402 C401 1.349 1_554 S
C402 C414 1.349 . S
C403 C401 1.327 . S
C403 C419 1.429 1_556 S
C403 H425 0.950 . S
C404 H400 0.949 . S
C404 C412 1.574 1_655 S
C404 C420 1.368 1_545 S
H405 C413 0.950 . S
H406 C411 0.950 . S
H407 C412 0.949 . S
H408 C414 0.950 . S
H409 C415 0.950 . S
H410 C416 0.949 . S
C411 H406 0.950 . S
C411 C413 1.327 . S
C411 C417 1.395 1_556 S
C412 C404 1.574 1_455 S
C412 H407 0.949 . S
C412 C418 1.368 . S
C413 C397 1.351 1_556 S
C413 H405 0.950 . S
C413 C411 1.327 . S
C414 C402 1.349 . S
C414 H408 0.950 . S
C414 C415 1.327 . S
C415 H409 0.950 . S
C415 C414 1.327 . S
C415 C419 1.429 . S
C416 C399 1.574 1_655 S
C416 H410 0.949 . S
C416 C420 1.368 1_556 S
C417 C398 1.447 . S
C417 C411 1.395 1_554 S
C417 C418 1.538 . S
C418 C399 1.368 1_544 S
C418 C412 1.368 . S
C418 C417 1.538 . S
C419 C403 1.429 1_554 S
C419 C415 1.429 . S
C419 C420 1.523 . S
C420 C404 1.368 1_565 S
C420 C416 1.368 1_554 S
C420 C419 1.523 . S
H421 C396 0.950 . S
H422 C398 0.950 . S
H423 C399 0.949 . S
H424 C401 0.950 . S
H425 C403 0.950 . S
C426 C427 1.349 . S
C426 C428 1.327 . S
C426 H451 0.950 . S
C427 C426 1.349 . S
C427 C443 1.349 . S
C428 C426 1.327 . S
C428 C447 1.429 . S
C428 H452 0.950 . S
C429 C446 1.574 1_545 S
C429 C448 1.368 . S
C429 H453 0.949 . S
H430 C434 0.949 . S
C431 C432 1.349 . S
C431 C433 1.327 . S
C431 H454 0.950 . S
C432 C431 1.349 . S
C432 C444 1.349 . S
C433 C431 1.327 . S
C433 C449 1.429 . S
C433 H455 0.950 . S
C434 H430 0.949 . S
C434 C442 1.574 1_565 S
C434 C450 1.368 . S
H435 C443 0.950 . S
H436 C441 0.950 . S
H437 C442 0.949 . S
H438 C444 0.950 . S
H439 C445 0.950 . S
H440 C446 0.949 . S
C441 H436 0.950 . S
C441 C443 1.327 . S
C441 C447 1.429 . S
C442 C434 1.574 1_545 S
C442 H437 0.949 . S
C442 C448 1.368 1_455 S
C443 C427 1.349 . S
C443 H435 0.950 . S
C443 C441 1.327 . S
C444 C432 1.349 . S
C444 H438 0.950 . S
C444 C445 1.327 . S
C445 H439 0.950 . S
C445 C444 1.327 . S
C445 C449 1.429 . S
C446 C429 1.574 1_565 S
C446 H440 0.949 . S
C446 C450 1.368 1_655 S
C447 C428 1.429 . S
C447 C441 1.429 . S
C447 C448 1.523 . S
C448 C429 1.368 . S
C448 C442 1.368 1_655 S
C448 C447 1.523 . S
C449 C433 1.429 . S
C449 C445 1.429 . S
C449 C450 1.523 . S
C450 C434 1.368 . S
C450 C446 1.368 1_455 S
C450 C449 1.523 . S
H451 C426 0.950 . S
H452 C428 0.950 . S
H453 C429 0.949 . S
H454 C431 0.950 . S
H455 C433 0.950 . S
C456 C457 1.349 . S
C456 C458 1.327 . S
C456 H481 0.950 . S
C457 C456 1.349 . S
C457 C473 1.349 . S
C458 C456 1.327 . S
C458 C477 1.429 . S
C458 H482 0.950 . S
C459 C476 1.574 . S
C459 C478 1.368 . S
C459 H483 0.949 . S
H460 C464 0.949 . S
C461 C462 1.349 . S
C461 C463 1.327 . S
C461 H484 0.950 . S
C462 C461 1.349 . S
C462 C474 1.349 . S
C463 C461 1.327 . S
C463 C479 1.429 . S
C463 H485 0.950 . S
C464 H460 0.949 . S
C464 C472 1.574 . S
C464 C480 1.368 . S
H465 C473 0.950 . S
H466 C471 0.950 . S
H467 C472 0.949 . S
H468 C474 0.950 . S
H469 C475 0.950 . S
H470 C476 0.949 . S
C471 H466 0.950 . S
C471 C473 1.327 . S
C471 C477 1.429 . S
C472 C464 1.574 . S
C472 H467 0.949 . S
C472 C478 1.368 . S
C473 C457 1.349 . S
C473 H465 0.950 . S
C473 C471 1.327 . S
C474 C462 1.349 . S
C474 H468 0.950 . S
C474 C475 1.327 . S
C475 H469 0.950 . S
C475 C474 1.327 . S
C475 C479 1.429 . S
C476 C459 1.574 . S
C476 H470 0.949 . S
C476 C480 1.368 . S
C477 C458 1.429 . S
C477 C471 1.429 . S
C477 C478 1.523 . S
C478 C459 1.368 . S
C478 C472 1.368 . S
C478 C477 1.523 . S
C479 C463 1.429 . S
C479 C475 1.429 . S
C479 C480 1.523 . S
C480 C464 1.368 . S
C480 C476 1.368 . S
C480 C479 1.523 . S
H481 C456 0.950 . S
H482 C458 0.950 . S
H483 C459 0.949 . S
H484 C461 0.950 . S
H485 C463 0.950 . S
C486 C487 1.349 . S
C486 C488 1.327 . S
C486 H511 0.950 . S
C487 C486 1.349 . S
C487 C503 1.349 . S
C488 C486 1.327 . S
C488 C507 1.429 . S
C488 H512 0.950 . S
C489 C506 1.574 . S
C489 C508 1.368 . S
C489 H513 0.949 . S
H490 C494 0.949 . S
C491 C492 1.349 . S
C491 C493 1.327 . S
C491 H514 0.950 . S
C492 C491 1.349 . S
C492 C504 1.349 . S
C493 C491 1.327 . S
C493 C509 1.429 . S
C493 H515 0.950 . S
C494 H490 0.949 . S
C494 C502 1.574 . S
C494 C510 1.368 . S
H495 C503 0.950 . S
H496 C501 0.950 . S
H497 C502 0.949 . S
H498 C504 0.950 . S
H499 C505 0.950 . S
H500 C506 0.949 . S
C501 H496 0.950 . S
C501 C503 1.327 . S
C501 C507 1.429 . S
C502 C494 1.574 . S
C502 H497 0.949 . S
C502 C508 1.368 . S
C503 C487 1.349 . S
C503 H495 0.950 . S
C503 C501 1.327 . S
C504 C492 1.349 . S
C504 H498 0.950 . S
C504 C505 1.327 . S
C505 H499 0.950 . S
C505 C504 1.327 . S
C505 C509 1.429 . S
C506 C489 1.574 . S
C506 H500 0.949 . S
C506 C510 1.368 . S
C507 C488 1.429 . S
C507 C501 1.429 . S
C507 C508 1.523 . S
C508 C489 1.368 . S
C508 C502 1.368 . S
C508 C507 1.523 . S
C509 C493 1.429 . S
C509 C505 1.429 . S
C509 C510 1.523 . S
C510 C494 1.368 . S
C510 C506 1.368 . S
C510 C509 1.523 . S
H511 C486 0.950 . S
H512 C488 0.950 . S
H513 C489 0.949 . S
H514 C491 0.950 . S
H515 C493 0.950 . S
C516 C517 1.349 . S
C516 C518 1.327 . S
C516 H541 0.950 . S
C517 C516 1.349 . S
C517 C533 1.349 . S
C518 C516 1.327 . S
C518 C537 1.429 . S
C518 H542 0.950 . S
C519 C536 1.574 . S
C519 C538 1.368 . S
C519 H543 0.949 . S
H520 C524 0.949 . S
C521 C522 1.349 . S
C521 C523 1.327 . S
C521 H544 0.950 . S
C522 C521 1.349 . S
C522 C534 1.349 . S
C523 C521 1.327 . S
C523 C539 1.429 . S
C523 H545 0.950 . S
C524 H520 0.949 . S
C524 C532 1.574 . S
C524 C540 1.368 . S
H525 C533 0.950 . S
H526 C531 0.950 . S
H527 C532 0.949 . S
H528 C534 0.950 . S
H529 C535 0.950 . S
H530 C536 0.949 . S
C531 H526 0.950 . S
C531 C533 1.327 . S
C531 C537 1.429 . S
C532 C524 1.574 . S
C532 H527 0.949 . S
C532 C538 1.368 . S
C533 C517 1.349 . S
C533 H525 0.950 . S
C533 C531 1.327 . S
C534 C522 1.349 . S
C534 H528 0.950 . S
C534 C535 1.327 . S
C535 H529 0.950 . S
C535 C534 1.327 . S
C535 C539 1.429 . S
C536 C519 1.574 . S
C536 H530 0.949 . S
C536 C540 1.368 . S
C537 C518 1.429 . S
C537 C531 1.429 . S
C537 C538 1.523 . S
C538 C519 1.368 . S
C538 C532 1.368 . S
C538 C537 1.523 . S
C539 C523 1.429 . S
C539 C535 1.429 . S
C539 C540 1.523 . S
C540 C524 1.368 . S
C540 C536 1.368 . S
C540 C539 1.523 . S
H541 C516 0.950 . S
H542 C518 0.950 . S
H543 C519 0.949 . S
H544 C521 0.950 . S
H545 C523 0.950 . S
C546 C547 1.349 . S
C546 C548 1.327 . S
C546 H571 0.950 . S
C547 C546 1.349 . S
C547 C563 1.349 . S
C548 C546 1.327 . S
C548 C567 1.429 . S
C548 H572 0.950 . S
C549 C566 1.574 . S
C549 C568 1.368 . S
C549 H573 0.949 . S
H550 C554 0.949 . S
C551 C552 1.349 . S
C551 C553 1.327 . S
C551 H574 0.950 . S
C552 C551 1.349 . S
C552 C564 1.349 . S
C553 C551 1.327 . S
C553 C569 1.429 . S
C553 H575 0.950 . S
C554 H550 0.949 . S
C554 C562 1.574 . S
C554 C570 1.368 . S
H555 C563 0.950 . S
H556 C561 0.950 . S
H557 C562 0.949 . S
H558 C564 0.950 . S
H559 C565 0.950 . S
H560 C566 0.949 . S
C561 H556 0.950 . S
C561 C563 1.327 . S
C561 C567 1.429 . S
C562 C554 1.574 . S
C562 H557 0.949 . S
C562 C568 1.368 . S
C563 C547 1.349 . S
C563 H555 0.950 . S
C563 C561 1.327 . S
C564 C552 1.349 . S
C564 H558 0.950 . S
C564 C565 1.327 . S
C565 H559 0.950 . S
C565 C564 1.327 . S
C565 C569 1.429 . S
C566 C549 1.574 . S
C566 H560 0.949 . S
C566 C570 1.368 . S
C567 C548 1.429 . S
C567 C561 1.429 . S
C567 C568 1.523 . S
C568 C549 1.368 . S
C568 C562 1.368 . S
C568 C567 1.523 . S
C569 C553 1.429 . S
C569 C565 1.429 . S
C569 C570 1.523 . S
C570 C554 1.368 . S
C570 C566 1.368 . S
C570 C569 1.523 . S
H571 C546 0.950 . S
H572 C548 0.950 . S
H573 C549 0.949 . S
H574 C551 0.950 . S
H575 C553 0.950 . S
C576 C577 1.349 . S
C576 C578 1.327 . S
C576 H601 0.950 . S
C577 C576 1.349 . S
C577 C593 1.349 . S
C578 C576 1.327 . S
C578 C597 1.429 . S
C578 H602 0.950 . S
C579 C596 1.574 . S
C579 C598 1.368 . S
C579 H603 0.949 . S
H580 C584 0.949 1_455 S
C581 C582 1.349 1_655 S
C581 C583 1.327 . S
C581 H604 0.950 . S
C582 C581 1.349 1_455 S
C582 C594 1.349 . S
C583 C581 1.327 . S
C583 C599 1.429 . S
C583 H605 0.950 . S
C584 H580 0.949 1_655 S
C584 C592 1.574 . S
C584 C600 1.368 . S
H585 C593 0.950 . S
H586 C591 0.950 . S
H587 C592 0.949 . S
H588 C594 0.950 . S
H589 C595 0.950 . S
H590 C596 0.949 . S
C591 H586 0.950 . S
C591 C593 1.327 . S
C591 C597 1.429 . S
C592 C584 1.574 . S
C592 H587 0.949 . S
C592 C598 1.368 . S
C593 C577 1.349 . S
C593 H585 0.950 . S
C593 C591 1.327 . S
C594 C582 1.349 . S
C594 H588 0.950 . S
C594 C595 1.327 . S
C595 H589 0.950 . S
C595 C594 1.327 . S
C595 C599 1.429 1_455 S
C596 C579 1.574 . S
C596 H590 0.949 . S
C596 C600 1.368 . S
C597 C578 1.429 . S
C597 C591 1.429 . S
C597 C598 1.523 . S
C598 C579 1.368 . S
C598 C592 1.368 . S
C598 C597 1.523 . S
C599 C583 1.429 . S
C599 C595 1.429 1_655 S
C599 C600 1.523 . S
C600 C584 1.368 . S
C600 C596 1.368 . S
C600 C599 1.523 . S
H601 C576 0.950 . S
H602 C578 0.950 . S
H603 C579 0.949 . S
H604 C581 0.950 . S
H605 C583 0.950 . S
C606 C607 1.349 . S
C606 C608 1.327 . S
C606 H631 0.950 . S
C607 C606 1.349 . S
C607 C623 1.349 . S
C608 C606 1.327 . S
C608 C627 1.429 . S
C608 H632 0.950 . S
C609 C626 1.574 . S
C609 C628 1.368 . S
C609 H633 0.949 . S
H610 C614 0.949 . S
C611 C612 1.349 . S
C611 C613 1.327 . S
C611 H634 0.950 . S
C612 C611 1.349 . S
C612 C624 1.349 1_455 S
C613 C611 1.327 . S
C613 C629 1.429 1_455 S
C613 H635 0.950 . S
C614 H610 0.949 . S
C614 C622 1.574 . S
C614 C630 1.368 . S
H615 C623 0.950 . S
H616 C621 0.950 . S
H617 C622 0.949 . S
H618 C624 0.950 . S
H619 C625 0.950 . S
H620 C626 0.949 1_455 S
C621 H616 0.950 . S
C621 C623 1.327 . S
C621 C627 1.429 . S
C622 C614 1.574 . S
C622 H617 0.949 . S
C622 C628 1.368 . S
C623 C607 1.349 . S
C623 H615 0.950 . S
C623 C621 1.327 . S
C624 C612 1.349 1_655 S
C624 H618 0.950 . S
C624 C625 1.327 . S
C625 H619 0.950 . S
C625 C624 1.327 . S
C625 C629 1.429 . S
C626 C609 1.574 . S
C626 H620 0.949 1_655 S
C626 C630 1.368 . S
C627 C608 1.429 . S
C627 C621 1.429 . S
C627 C628 1.523 . S
C628 C609 1.368 . S
C628 C622 1.368 . S
C628 C627 1.523 . S
C629 C613 1.429 1_655 S
C629 C625 1.429 . S
C629 C630 1.523 . S
C630 C614 1.368 . S
C630 C626 1.368 . S
C630 C629 1.523 . S
H631 C606 0.950 . S
H632 C608 0.950 . S
H633 C609 0.949 . S
H634 C611 0.950 . S
H635 C613 0.950 . S
C636 C637 1.349 1_455 S
C636 C638 1.327 . S
C636 H661 0.950 . S
C637 C636 1.349 1_655 S
C637 C653 1.349 . S
C638 C636 1.327 . S
C638 C657 1.429 . S
C638 H662 0.950 . S
C639 C656 1.574 . S
C639 C658 1.368 . S
C639 H663 0.949 1_455 S
H640 C644 0.949 . S
C641 C642 1.349 . S
C641 C643 1.327 . S
C641 H664 0.950 . S
C642 C641 1.349 . S
C642 C654 1.349 . S
C643 C641 1.327 . S
C643 C659 1.429 . S
C643 H665 0.950 . S
C644 H640 0.949 . S
C644 C652 1.574 . S
C644 C660 1.368 . S
H645 C653 0.950 . S
H646 C651 0.950 . S
H647 C652 0.949 . S
H648 C654 0.950 . S
H649 C655 0.950 . S
H650 C656 0.949 . S
C651 H646 0.950 . S
C651 C653 1.327 . S
C651 C657 1.429 1_655 S
C652 C644 1.574 . S
C652 H647 0.949 . S
C652 C658 1.368 . S
C653 C637 1.349 . S
C653 H645 0.950 . S
C653 C651 1.327 . S
C654 C642 1.349 . S
C654 H648 0.950 . S
C654 C655 1.327 . S
C655 H649 0.950 . S
C655 C654 1.327 . S
C655 C659 1.429 . S
C656 C639 1.574 . S
C656 H650 0.949 . S
C656 C660 1.368 . S
C657 C638 1.429 . S
C657 C651 1.429 1_455 S
C657 C658 1.523 . S
C658 C639 1.368 . S
C658 C652 1.368 . S
C658 C657 1.523 . S
C659 C643 1.429 . S
C659 C655 1.429 . S
C659 C660 1.523 . S
C660 C644 1.368 . S
C660 C656 1.368 . S
C660 C659 1.523 . S
H661 C636 0.950 . S
H662 C638 0.950 . S
H663 C639 0.949 1_655 S
H664 C641 0.950 . S
H665 C643 0.950 . S
C666 C667 1.349 . S
C666 C668 1.327 . S
C666 H691 0.950 . S
C667 C666 1.349 . S
C667 C683 1.349 . S
C668 C666 1.327 . S
C668 C687 1.429 . S
C668 H692 0.950 . S
C669 C686 1.574 . S
C669 C688 1.368 . S
C669 H693 0.949 . S
H670 C674 0.949 . S
C671 C672 1.349 . S
C671 C673 1.327 . S
C671 H694 0.950 . S
C672 C671 1.349 . S
C672 C684 1.349 1_655 S
C673 C671 1.327 . S
C673 C689 1.429 1_655 S
C673 H695 0.950 . S
C674 H670 0.949 . S
C674 C682 1.574 . S
C674 C690 1.368 . S
H675 C683 0.950 . S
H676 C681 0.950 . S
H677 C682 0.949 . S
H678 C684 0.950 . S
H679 C685 0.950 . S
H680 C686 0.949 1_655 S
C681 H676 0.950 . S
C681 C683 1.327 . S
C681 C687 1.429 . S
C682 C674 1.574 . S
C682 H677 0.949 . S
C682 C688 1.368 . S
C683 C667 1.349 . S
C683 H675 0.950 . S
C683 C681 1.327 . S
C684 C672 1.349 1_455 S
C684 H678 0.950 . S
C684 C685 1.327 . S
C685 H679 0.950 . S
C685 C684 1.327 . S
C685 C689 1.429 . S
C686 C669 1.574 . S
C686 H680 0.949 1_455 S
C686 C690 1.368 . S
C687 C668 1.429 . S
C687 C681 1.429 . S
C687 C688 1.523 . S
C688 C669 1.368 . S
C688 C682 1.368 . S
C688 C687 1.523 . S
C689 C673 1.429 1_455 S
C689 C685 1.429 . S
C689 C690 1.523 . S
C690 C674 1.368 . S
C690 C686 1.368 . S
C690 C689 1.523 . S
H691 C666 0.950 . S
H692 C668 0.950 . S
H693 C669 0.949 . S
H694 C671 0.950 . S
H695 C673 0.950 . S
C337 C147 1.498 1_554 S
C342 C74 1.496 . S
C367 C242 1.496 . S
C372 C315 1.496 . S
C397 C63 1.498 1_554 S
C402 C158 1.496 . S
C427 C326 1.496 . S
C432 C231 1.496 . S
C457 C310 1.110 . S
C462 C56 1.111 . S
C487 C142 1.110 . S
C492 C224 1.111 . S
C517 C151 1.111 . S
C522 C238 1.110 . S
C547 C319 1.111 . S
C552 C70 1.110 . S
C577 C140 1.111 . S
C582 C226 1.110 . S
C607 C308 1.111 . S
C612 C58 1.110 . S
C637 C322 1.110 . S
C642 C67 1.111 . S
C667 C235 1.111 . S
C672 C154 1.110 . S
