# Generated by pormake.
# Topology uow, (4)-cn, num edge types: 1
# Building blocks:
#     Node 0, Type 0, BuildingBlock: ESEHIV_clean_sbu_0, # of connection points: 4
#     Node 1, Type 0, BuildingBlock: ESEHIV_clean_sbu_0, # of connection points: 4
#     Node 2, Type 0, BuildingBlock: ESEHIV_clean_sbu_0, # of connection points: 4
#     Node 3, Type 0, BuildingBlock: ESEHIV_clean_sbu_0, # of connection points: 4
#     Node 4, Type 0, BuildingBlock: ESEHIV_clean_sbu_0, # of connection points: 4
#     Node 5, Type 0, BuildingBlock: ESEHIV_clean_sbu_0, # of connection points: 4
#     Node 6, Type 0, BuildingBlock: ESEHIV_clean_sbu_0, # of connection points: 4
#     Node 7, Type 0, BuildingBlock: ESEHIV_clean_sbu_0, # of connection points: 4
#     Node 8, Type 0, BuildingBlock: ESEHIV_clean_sbu_0, # of connection points: 4
#     Node 9, Type 0, BuildingBlock: ESEHIV_clean_sbu_0, # of connection points: 4
#     Node 10, Type 0, BuildingBlock: ESEHIV_clean_sbu_0, # of connection points: 4
#     Node 11, Type 0, BuildingBlock: ESEHIV_clean_sbu_0, # of connection points: 4
#     Node 12, Type 0, BuildingBlock: ESEHIV_clean_sbu_0, # of connection points: 4
#     Node 13, Type 0, BuildingBlock: ESEHIV_clean_sbu_0, # of connection points: 4
#     Node 14, Type 0, BuildingBlock: ESEHIV_clean_sbu_0, # of connection points: 4
#     Node 15, Type 0, BuildingBlock: ESEHIV_clean_sbu_0, # of connection points: 4
#     Node 16, Type 0, BuildingBlock: ESEHIV_clean_sbu_0, # of connection points: 4
#     Node 17, Type 0, BuildingBlock: ESEHIV_clean_sbu_0, # of connection points: 4
#     Node 18, Type 0, BuildingBlock: ESEHIV_clean_sbu_0, # of connection points: 4
#     Node 19, Type 0, BuildingBlock: ESEHIV_clean_sbu_0, # of connection points: 4
#     Node 20, Type 0, BuildingBlock: ESEHIV_clean_sbu_0, # of connection points: 4
#     Node 21, Type 0, BuildingBlock: ESEHIV_clean_sbu_0, # of connection points: 4
#     Node 22, Type 0, BuildingBlock: ESEHIV_clean_sbu_0, # of connection points: 4
#     Node 23, Type 0, BuildingBlock: ESEHIV_clean_sbu_0, # of connection points: 4
#     Node 24, Type 0, BuildingBlock: ESEHIV_clean_sbu_0, # of connection points: 4
#     Node 25, Type 0, BuildingBlock: ESEHIV_clean_sbu_0, # of connection points: 4
#     Node 26, Type 0, BuildingBlock: ESEHIV_clean_sbu_0, # of connection points: 4
#     Node 27, Type 0, BuildingBlock: ESEHIV_clean_sbu_0, # of connection points: 4
#     Node 28, Type 0, BuildingBlock: ESEHIV_clean_sbu_0, # of connection points: 4
#     Node 29, Type 0, BuildingBlock: ESEHIV_clean_sbu_0, # of connection points: 4
#     Node 30, Type 0, BuildingBlock: ESEHIV_clean_sbu_0, # of connection points: 4
#     Node 31, Type 0, BuildingBlock: ESEHIV_clean_sbu_0, # of connection points: 4
#     Edge 32, Type (0, 0), BuildingBlock: EZIPEK_clean_linker_0, # of connection points: 2
#     Edge 33, Type (0, 0), BuildingBlock: EZIPEK_clean_linker_0, # of connection points: 2
#     Edge 34, Type (0, 0), BuildingBlock: EZIPEK_clean_linker_0, # of connection points: 2
#     Edge 35, Type (0, 0), BuildingBlock: EZIPEK_clean_linker_0, # of connection points: 2
#     Edge 36, Type (0, 0), BuildingBlock: EZIPEK_clean_linker_0, # of connection points: 2
#     Edge 37, Type (0, 0), BuildingBlock: EZIPEK_clean_linker_0, # of connection points: 2
#     Edge 38, Type (0, 0), BuildingBlock: EZIPEK_clean_linker_0, # of connection points: 2
#     Edge 39, Type (0, 0), BuildingBlock: EZIPEK_clean_linker_0, # of connection points: 2
#     Edge 40, Type (0, 0), BuildingBlock: EZIPEK_clean_linker_0, # of connection points: 2
#     Edge 41, Type (0, 0), BuildingBlock: EZIPEK_clean_linker_0, # of connection points: 2
#     Edge 42, Type (0, 0), BuildingBlock: EZIPEK_clean_linker_0, # of connection points: 2
#     Edge 43, Type (0, 0), BuildingBlock: EZIPEK_clean_linker_0, # of connection points: 2
#     Edge 44, Type (0, 0), BuildingBlock: EZIPEK_clean_linker_0, # of connection points: 2
#     Edge 45, Type (0, 0), BuildingBlock: EZIPEK_clean_linker_0, # of connection points: 2
#     Edge 46, Type (0, 0), BuildingBlock: EZIPEK_clean_linker_0, # of connection points: 2
#     Edge 47, Type (0, 0), BuildingBlock: EZIPEK_clean_linker_0, # of connection points: 2
#     Edge 48, Type (0, 0), BuildingBlock: EZIPEK_clean_linker_0, # of connection points: 2
#     Edge 49, Type (0, 0), BuildingBlock: EZIPEK_clean_linker_0, # of connection points: 2
#     Edge 50, Type (0, 0), BuildingBlock: EZIPEK_clean_linker_0, # of connection points: 2
#     Edge 51, Type (0, 0), BuildingBlock: EZIPEK_clean_linker_0, # of connection points: 2
#     Edge 52, Type (0, 0), BuildingBlock: EZIPEK_clean_linker_0, # of connection points: 2
#     Edge 53, Type (0, 0), BuildingBlock: EZIPEK_clean_linker_0, # of connection points: 2
#     Edge 54, Type (0, 0), BuildingBlock: EZIPEK_clean_linker_0, # of connection points: 2
#     Edge 55, Type (0, 0), BuildingBlock: EZIPEK_clean_linker_0, # of connection points: 2
#     Edge 56, Type (0, 0), BuildingBlock: EZIPEK_clean_linker_0, # of connection points: 2
#     Edge 57, Type (0, 0), BuildingBlock: EZIPEK_clean_linker_0, # of connection points: 2
#     Edge 58, Type (0, 0), BuildingBlock: EZIPEK_clean_linker_0, # of connection points: 2
#     Edge 59, Type (0, 0), BuildingBlock: EZIPEK_clean_linker_0, # of connection points: 2
#     Edge 60, Type (0, 0), BuildingBlock: EZIPEK_clean_linker_0, # of connection points: 2
#     Edge 61, Type (0, 0), BuildingBlock: EZIPEK_clean_linker_0, # of connection points: 2
#     Edge 62, Type (0, 0), BuildingBlock: EZIPEK_clean_linker_0, # of connection points: 2
#     Edge 63, Type (0, 0), BuildingBlock: EZIPEK_clean_linker_0, # of connection points: 2
#     Edge 64, Type (0, 0), BuildingBlock: EZIPEK_clean_linker_0, # of connection points: 2
#     Edge 65, Type (0, 0), BuildingBlock: EZIPEK_clean_linker_0, # of connection points: 2
#     Edge 66, Type (0, 0), BuildingBlock: EZIPEK_clean_linker_0, # of connection points: 2
#     Edge 67, Type (0, 0), BuildingBlock: EZIPEK_clean_linker_0, # of connection points: 2
#     Edge 68, Type (0, 0), BuildingBlock: EZIPEK_clean_linker_0, # of connection points: 2
#     Edge 69, Type (0, 0), BuildingBlock: EZIPEK_clean_linker_0, # of connection points: 2
#     Edge 70, Type (0, 0), BuildingBlock: EZIPEK_clean_linker_0, # of connection points: 2
#     Edge 71, Type (0, 0), BuildingBlock: EZIPEK_clean_linker_0, # of connection points: 2
#     Edge 72, Type (0, 0), BuildingBlock: EZIPEK_clean_linker_0, # of connection points: 2
#     Edge 73, Type (0, 0), BuildingBlock: EZIPEK_clean_linker_0, # of connection points: 2
#     Edge 74, Type (0, 0), BuildingBlock: EZIPEK_clean_linker_0, # of connection points: 2
#     Edge 75, Type (0, 0), BuildingBlock: EZIPEK_clean_linker_0, # of connection points: 2
#     Edge 76, Type (0, 0), BuildingBlock: EZIPEK_clean_linker_0, # of connection points: 2
#     Edge 77, Type (0, 0), BuildingBlock: EZIPEK_clean_linker_0, # of connection points: 2
#     Edge 78, Type (0, 0), BuildingBlock: EZIPEK_clean_linker_0, # of connection points: 2
#     Edge 79, Type (0, 0), BuildingBlock: EZIPEK_clean_linker_0, # of connection points: 2
#     Edge 80, Type (0, 0), BuildingBlock: EZIPEK_clean_linker_0, # of connection points: 2
#     Edge 81, Type (0, 0), BuildingBlock: EZIPEK_clean_linker_0, # of connection points: 2
#     Edge 82, Type (0, 0), BuildingBlock: EZIPEK_clean_linker_0, # of connection points: 2
#     Edge 83, Type (0, 0), BuildingBlock: EZIPEK_clean_linker_0, # of connection points: 2
#     Edge 84, Type (0, 0), BuildingBlock: EZIPEK_clean_linker_0, # of connection points: 2
#     Edge 85, Type (0, 0), BuildingBlock: EZIPEK_clean_linker_0, # of connection points: 2
#     Edge 86, Type (0, 0), BuildingBlock: EZIPEK_clean_linker_0, # of connection points: 2
#     Edge 87, Type (0, 0), BuildingBlock: EZIPEK_clean_linker_0, # of connection points: 2
#     Edge 88, Type (0, 0), BuildingBlock: EZIPEK_clean_linker_0, # of connection points: 2
#     Edge 89, Type (0, 0), BuildingBlock: EZIPEK_clean_linker_0, # of connection points: 2
#     Edge 90, Type (0, 0), BuildingBlock: EZIPEK_clean_linker_0, # of connection points: 2
#     Edge 91, Type (0, 0), BuildingBlock: EZIPEK_clean_linker_0, # of connection points: 2
#     Edge 92, Type (0, 0), BuildingBlock: EZIPEK_clean_linker_0, # of connection points: 2
#     Edge 93, Type (0, 0), BuildingBlock: EZIPEK_clean_linker_0, # of connection points: 2
#     Edge 94, Type (0, 0), BuildingBlock: EZIPEK_clean_linker_0, # of connection points: 2
#     Edge 95, Type (0, 0), BuildingBlock: EZIPEK_clean_linker_0, # of connection points: 2
# Relax obj value: 0.070
# Max RMSD: 0.252
# Mean RMSD: 0.224
data_MOF--net-uow--node1-ESEHIV_clean_sbu_0--edge1-EZIPEK_clean_linker_0
_symmetry_space_group_name_H-M    P1
_symmetry_Int_Tables_number       1
_symmetry_cell_setting            triclinic
loop_
_symmetry_equiv_pos_as_xyz
'x, y, z'
_cell_length_a     47.977406
_cell_length_b     53.29782
_cell_length_c     36.278651
_cell_angle_alpha  89.805339
_cell_angle_beta   90.10438
_cell_angle_gamma 89.953855
loop_
_atom_site_label
_atom_site_type_symbol
_atom_site_fract_x
_atom_site_fract_y
_atom_site_fract_z
_atom_type_partial_charge
Cu0 Cu 0.06992 0.38185 0.29821 0.0
N1 N 0.09297 0.37266 0.33802 0.0
N2 N 0.10579 0.3474 0.38472 0.0
C3 C 0.08437 0.35706 0.36513 0.0
C4 C 0.12894 0.35748 0.36967 0.0
C5 C 0.12097 0.37307 0.34083 0.0
O6 O 0.03365 0.36991 0.31378 0.0
C7 C 0.06946 0.3661 0.22306 0.0
O8 O 0.04429 0.3758 0.22284 0.0
H9 H 0.06304 0.35087 0.36823 0.0
H10 H 0.13469 0.38217 0.32131 0.0
N11 N 0.06562 0.4165 0.28954 0.0
N12 N 0.07032 0.45789 0.2796 0.0
C13 C 0.08198 0.43694 0.29464 0.0
C14 C 0.043 0.42507 0.2715 0.0
C15 C 0.04589 0.45028 0.26513 0.0
C16 C 0.02275 0.34865 0.30744 0.0
O17 O 0.03366 0.3338 0.28252 0.0
H18 H 0.1021 0.43642 0.30816 0.0
H19 H 0.02566 0.41353 0.2629 0.0
O20 O 0.08356 0.36612 0.25288 0.0
H21 H 0.15007 0.35234 0.37702 0.0
H22 H 0.03119 0.46222 0.25066 0.0
Cu23 Cu 0.8757 0.81513 0.54761 0.0
N24 N 0.89911 0.82171 0.5071 0.0
N25 N 0.91636 0.834 0.45261 0.0
C26 C 0.89379 0.83382 0.47498 0.0
C27 C 0.93645 0.82156 0.47113 0.0
C28 C 0.92577 0.81401 0.50461 0.0
O29 O 0.83717 0.826 0.53515 0.0
C30 C 0.90678 0.85031 0.59244 0.0
O31 O 0.90683 0.8649 0.56316 0.0
H32 H 0.87387 0.84215 0.46803 0.0
H33 H 0.93663 0.80347 0.52575 0.0
N34 N 0.87722 0.7804 0.55649 0.0
N35 N 0.88759 0.74378 0.58356 0.0
C36 C 0.8868 0.76897 0.58731 0.0
C37 C 0.87199 0.76175 0.53249 0.0
C38 C 0.87832 0.7391 0.54918 0.0
C39 C 0.81548 0.81273 0.54149 0.0
O40 O 0.81813 0.79147 0.55954 0.0
H41 H 0.89386 0.77889 0.61157 0.0
H42 H 0.86487 0.76451 0.50447 0.0
O43 O 0.89255 0.83011 0.59194 0.0
H44 H 0.95731 0.81811 0.46099 0.0
H45 H 0.87693 0.72069 0.53682 0.0
Cu46 Cu 0.43401 0.63266 0.80236 0.0
N47 N 0.40921 0.64903 0.83457 0.0
N48 N 0.39474 0.67811 0.87491 0.0
C49 C 0.41526 0.67077 0.85193 0.0
C50 C 0.37482 0.66036 0.87191 0.0
C51 C 0.38386 0.64236 0.84709 0.0
O52 O 0.46904 0.64895 0.81561 0.0
C53 C 0.42486 0.66133 0.73711 0.0
O54 O 0.43111 0.6804 0.75842 0.0
H55 H 0.43442 0.68111 0.84788 0.0
H56 H 0.37285 0.62554 0.83903 0.0
N57 N 0.43581 0.59747 0.81083 0.0
N58 N 0.43625 0.55576 0.79989 0.0
C59 C 0.42586 0.57853 0.78965 0.0
C60 C 0.45204 0.58611 0.83614 0.0
C61 C 0.4528 0.56076 0.8291 0.0
C62 C 0.49281 0.63918 0.82166 0.0
O63 O 0.49841 0.61657 0.8095 0.0
H64 H 0.41234 0.58153 0.76613 0.0
H65 H 0.46387 0.59573 0.85715 0.0
O66 O 0.42445 0.63928 0.75077 0.0
H67 H 0.35522 0.66041 0.88663 0.0
H68 H 0.46532 0.54706 0.84376 0.0
Cu69 Cu 0.64749 0.20624 0.04602 0.0
N70 N 0.62659 0.20701 1.00221 0.0
N71 N 0.61099 0.19897 0.94528 0.0
C72 C 0.63005 0.19309 0.97146 0.0
C73 C 0.59497 0.21711 0.96003 0.0
C74 C 0.60463 0.22202 0.99511 0.0
O75 O 0.68579 0.19622 0.03204 0.0
C76 C 0.62813 0.18691 0.11673 0.0
O77 O 0.64828 0.20025 0.13142 0.0
H78 H 0.64619 0.17907 0.96822 0.0
H79 H 0.59627 0.23565 1.01417 0.0
N80 N 0.64928 0.23899 0.06462 0.0
N81 N 0.63957 0.2742 0.09528 0.0
C82 C 0.63047 0.25115 0.08569 0.0
C83 C 0.6707 0.25507 0.06054 0.0
C84 C 0.66479 0.27681 0.07951 0.0
C85 C 0.70668 0.19288 0.05336 0.0
O86 O 0.70281 0.19269 0.08919 0.0
H87 H 0.61073 0.24322 0.09412 0.0
H88 H 0.68949 0.2511 0.04518 0.0
O89 O 0.62642 0.18543 0.08161 0.0
H90 H 0.5776 0.22616 0.94628 0.0
H91 H 0.67807 0.29312 0.08206 0.0
Cu92 Cu 0.08663 0.6343 0.23052 0.0
N93 N 0.1078 0.65272 0.19667 0.0
N94 N 0.11685 0.68169 0.15367 0.0
C95 C 0.09822 0.673 0.17832 0.0
C96 C 0.13935 0.66664 0.15693 0.0
C97 C 0.13366 0.64868 0.18353 0.0
O98 O 0.04827 0.64121 0.21473 0.0
C99 C 0.07834 0.64671 0.30678 0.0
O100 O 0.05331 0.63717 0.30247 0.0
H101 H 0.07765 0.6809 0.18225 0.0
H102 H 0.14715 0.63347 0.19212 0.0
N103 N 0.09489 0.59975 0.22768 0.0
N104 N 0.09564 0.55839 0.23966 0.0
C105 C 0.09079 0.58165 0.25333 0.0
C106 C 0.10349 0.58757 0.19732 0.0
C107 C 0.10367 0.56219 0.20446 0.0
C108 C 0.03957 0.63148 0.18473 0.0
O109 O 0.05466 0.61411 0.16877 0.0
H110 H 0.08325 0.58532 0.2809 0.0
H111 H 0.10813 0.59648 0.17122 0.0
O112 O 0.09519 0.64695 0.27972 0.0
H113 H 0.1582 0.66828 0.14077 0.0
H114 H 0.10863 0.54751 0.18497 0.0
Cu115 Cu 0.64442 0.81701 0.48453 0.0
N116 N 0.62169 0.81852 0.52655 0.0
N117 N 0.60347 0.82802 0.58153 0.0
C118 C 0.6256 0.83076 0.55875 0.0
C119 C 0.58515 0.81353 0.56317 0.0
C120 C 0.59643 0.80772 0.52936 0.0
O121 O 0.68322 0.82518 0.49908 0.0
C122 C 0.62795 0.83433 0.41119 0.0
O123 O 0.64797 0.81992 0.39857 0.0
H124 H 0.64394 0.84175 0.56512 0.0
H125 H 0.58672 0.79663 0.50798 0.0
N126 N 0.6445 0.78371 0.46869 0.0
N127 N 0.63348 0.74838 0.43941 0.0
C128 C 0.62582 0.7722 0.4467 0.0
C129 C 0.6642 0.76638 0.47603 0.0
C130 C 0.65753 0.74455 0.45776 0.0
C131 C 0.70424 0.8254 0.47751 0.0
O132 O 0.70009 0.82402 0.44178 0.0
H133 H 0.60721 0.7811 0.43601 0.0
H134 H 0.6823 0.76953 0.4932 0.0
O135 O 0.6255 0.83724 0.44603 0.0
H136 H 0.56494 0.80783 0.57343 0.0
H137 H 0.66947 0.72731 0.45757 0.0
Cu138 Cu 0.44068 0.38102 0.7248 0.0
N139 N 0.41854 0.36506 0.6889 0.0
N140 N 0.40737 0.3368 0.64565 0.0
C141 C 0.42584 0.34351 0.67189 0.0
C142 C 0.38743 0.35465 0.64616 0.0
C143 C 0.39443 0.37215 0.67285 0.0
O144 O 0.47741 0.36736 0.71262 0.0
C145 C 0.442 0.37452 0.80322 0.0
O146 O 0.46534 0.38733 0.80135 0.0
H147 H 0.44468 0.33313 0.6781 0.0
H148 H 0.38304 0.38905 0.67956 0.0
N149 N 0.44037 0.41657 0.71972 0.0
N150 N 0.43852 0.458 0.73248 0.0
C151 C 0.43009 0.43453 0.74243 0.0
C152 C 0.45481 0.42928 0.69397 0.0
C153 C 0.45421 0.45443 0.70209 0.0
C154 C 0.50007 0.37923 0.70728 0.0
O155 O 0.50314 0.40198 0.7204 0.0
H156 H 0.41758 0.4304 0.7665 0.0
H157 H 0.4663 0.42074 0.67172 0.0
O158 O 0.42828 0.37027 0.77379 0.0
H159 H 0.36944 0.35521 0.62813 0.0
H160 H 0.46507 0.46906 0.68714 0.0
Cu161 Cu 0.8783 0.20133 0.98683 0.0
N162 N 0.90059 0.20092 0.02944 0.0
N163 N 0.91835 0.19219 0.08513 0.0
C164 C 0.89755 0.18749 0.06087 0.0
C165 C 0.93494 0.20918 0.06854 0.0
C166 C 0.92396 0.21451 0.03426 0.0
O167 O 0.8407 0.18932 1.00126 0.0
C168 C 0.89396 0.18332 0.914 0.0
O169 O 0.87129 0.1946 0.90212 0.0
H170 H 0.88068 0.17443 0.06577 0.0
H171 H 0.93248 0.22735 1.01406 0.0
N172 N 0.8765 0.23474 0.97071 0.0
N173 N 0.88679 0.27021 0.94083 0.0
C174 C 0.89391 0.24604 0.9467 0.0
C175 C 0.85817 0.2526 0.98082 0.0
C176 C 0.8644 0.27451 0.96223 0.0
C177 C 0.81773 0.19663 0.98684 0.0
O178 O 0.81825 0.21049 0.95687 0.0
H179 H 0.91149 0.23683 0.93393 0.0
H180 H 0.84137 0.24987 1.00022 0.0
O181 O 0.8987 0.18234 0.94868 0.0
H182 H 0.95375 0.21699 0.08037 0.0
H183 H 0.85335 0.29217 0.96406 0.0
Cu184 Cu 0.98371 0.64104 0.75631 0.0
N185 N 0.95395 0.64741 0.72381 0.0
N186 N 0.92773 0.66849 0.68305 0.0
C187 C 0.94903 0.66972 0.70729 0.0
C188 C 0.91856 0.64461 0.68457 0.0
C189 C 0.93473 0.63164 0.70986 0.0
O190 O 0.01721 0.65471 0.73213 0.0
C191 C 0.95178 0.65967 0.81751 0.0
O192 O 0.93048 0.65078 0.79894 0.0
H193 H 0.96117 0.68645 0.71235 0.0
H194 H 0.9328 0.61204 0.71706 0.0
N195 N 0.98961 0.60665 0.76714 0.0
N196 N 0.99108 0.56453 0.76974 0.0
C197 C 0.98225 0.58489 0.75034 0.0
C198 C 1.00375 0.5995 0.79749 0.0
C199 C 1.00464 0.57375 0.79922 0.0
C200 C 0.0236 0.64759 0.69959 0.0
O201 O 1.0087 0.6299 0.68396 0.0
H202 H 0.97073 0.58388 0.72475 0.0
H203 H 0.01276 0.61232 0.81725 0.0
O204 O 0.97628 0.658 0.80382 0.0
H205 H 0.90172 0.63705 0.66812 0.0
H206 H 0.01437 0.56254 0.82062 0.0
Cu207 Cu 0.1223 0.21541 0.50805 0.0
N208 N 0.09972 0.1951 0.4787 0.0
N209 N 0.07235 0.18218 0.43283 0.0
C210 C 0.09051 0.19982 0.44428 0.0
C211 C 0.07055 0.16541 0.46057 0.0
C212 C 0.08771 0.17331 0.48874 0.0
O213 O 0.1179 0.2504 0.49093 0.0
C214 C 0.08741 0.20879 0.57184 0.0
O215 O 0.06815 0.218 0.54989 0.0
H216 H 0.09658 0.21601 0.42828 0.0
H217 H 0.09059 0.16425 0.51518 0.0
N218 N 0.1593 0.20718 0.49587 0.0
N219 N 0.20545 0.20076 0.4942 0.0
C220 C 0.18284 0.20415 0.51608 0.0
C221 C 0.16753 0.20561 0.46049 0.0
C222 C 0.1958 0.20165 0.45936 0.0
C223 C 0.09535 0.26151 0.4817 0.0
O224 O 0.07126 0.25108 0.48937 0.0
H225 H 0.18355 0.20488 0.54588 0.0
H226 H 0.15384 0.20776 0.43698 0.0
O227 O 0.11259 0.20772 0.56016 0.0
H228 H 0.05692 0.14923 0.46093 0.0
H229 H 0.20846 0.19973 0.43484 0.0
Cu230 Cu 0.53284 0.37649 0.2547 0.0
N231 N 0.5647 0.36999 0.22668 0.0
N232 N 0.5934 0.34884 0.18962 0.0
C233 C 0.56715 0.35102 0.20238 0.0
C234 C 0.60814 0.36705 0.20641 0.0
C235 C 0.59033 0.38012 0.22937 0.0
O236 O 0.50151 0.36499 0.2238 0.0
C237 C 0.55096 0.33958 0.30942 0.0
O238 O 0.55702 0.32523 0.28118 0.0
H239 H 0.55033 0.33835 0.19541 0.0
H240 H 0.59588 0.39525 0.24777 0.0
N241 N 0.52734 0.411 0.2637 0.0
N242 N 0.52819 0.45308 0.26555 0.0
C243 C 0.53911 0.43217 0.24986 0.0
C244 C 0.50851 0.41903 0.28845 0.0
C245 C 0.50896 0.44479 0.28963 0.0
C246 C 0.47589 0.36184 0.23193 0.0
O247 O 0.46782 0.3644 0.26629 0.0
H248 H 0.55528 0.4323 0.2291 0.0
H249 H 0.49534 0.40681 0.30469 0.0
O250 O 0.53857 0.3605 0.30361 0.0
H251 H 0.63031 0.3701 0.20318 0.0
H252 H 0.49622 0.45664 0.30699 0.0
Cu253 Cu 0.39535 0.80948 1.0105 0.0
N254 N 0.41551 0.83194 0.98112 0.0
N255 N 0.44107 0.84858 0.93593 0.0
C256 C 0.43221 0.82716 0.9521 0.0
C257 C 0.42985 0.86742 0.95567 0.0
C258 C 0.41435 0.8571 0.98371 0.0
O259 O 0.40071 0.77544 0.98979 0.0
C260 C 0.43234 0.82221 0.07072 0.0
O261 O 0.45122 0.82421 0.04471 0.0
H262 H 0.4376 0.8085 0.94287 0.0
H263 H 0.40241 0.86721 1.00411 0.0
N264 N 0.3575 0.81878 1.00549 0.0
N265 N 0.31086 0.82004 1.0067 0.0
C266 C 0.33406 0.80864 0.02004 0.0
C267 C 0.34842 0.83687 0.9823 0.0
C268 C 0.31986 0.83775 0.98315 0.0
C269 C 0.38722 0.76935 0.96065 0.0
O270 O 0.36947 0.78552 0.94654 0.0
H271 H 0.33393 0.79291 0.03897 0.0
H272 H 0.36151 0.8481 0.96463 0.0
O273 O 0.40779 0.81464 0.0623 0.0
H274 H 0.43284 0.88722 0.95022 0.0
H275 H 0.30657 0.84994 0.96688 0.0
Cu276 Cu 0.98573 0.38235 0.78066 0.0
N277 N 0.95602 0.36944 0.80805 0.0
N278 N 0.93023 0.34499 0.84451 0.0
C279 C 0.95573 0.34894 0.82997 0.0
C280 C 0.91388 0.36353 0.83137 0.0
C281 C 0.92988 0.37863 0.80888 0.0
O282 O 0.01985 0.36793 0.80336 0.0
C283 C 0.96948 0.35102 0.72027 0.0
O284 O 0.9695 0.33348 0.74579 0.0
H285 H 0.97366 0.33703 0.83485 0.0
H286 H 0.92293 0.39504 0.79382 0.0
N287 N 0.98531 0.41747 0.78812 0.0
N288 N 0.98478 0.45948 0.78315 0.0
C289 C 0.98558 0.43737 0.76468 0.0
C290 C 0.98411 0.42754 0.82207 0.0
C291 C 0.9838 0.45327 0.81912 0.0
C292 C 0.04155 0.38056 0.81209 0.0
O293 O 0.04371 0.40393 0.80086 0.0
H294 H 0.98634 0.43575 0.73497 0.0
H295 H 0.98348 0.41675 0.84736 0.0
O296 O 0.97775 0.37312 0.72872 0.0
H297 H 0.89194 0.3658 0.83744 0.0
H298 H 0.9829 0.46651 0.84166 0.0
Cu299 Cu 0.4047 0.20383 0.51603 0.0
N300 N 0.42832 0.18244 0.54322 0.0
N301 N 0.45466 0.16432 0.58671 0.0
C302 C 0.43885 0.18447 0.57772 0.0
C303 C 0.45409 0.14918 0.55715 0.0
C304 C 0.43783 0.1603 0.53055 0.0
O305 O 0.40274 0.23736 0.53877 0.0
C306 C 0.41499 0.18502 0.44307 0.0
O307 O 0.39882 0.16657 0.45394 0.0
H308 H 0.43532 0.20031 0.59567 0.0
H309 H 0.43343 0.15272 0.50363 0.0
N310 N 0.36853 0.19038 0.51956 0.0
N311 N 0.32204 0.18633 0.52003 0.0
C312 C 0.344 0.19969 0.50712 0.0
C313 C 0.36167 0.1706 0.54089 0.0
C314 C 0.33312 0.16806 0.54123 0.0
C315 C 0.42274 0.24931 0.55391 0.0
O316 O 0.44818 0.2403 0.5522 0.0
H317 H 0.34218 0.2163 0.49004 0.0
H318 H 0.3764 0.1593 0.55626 0.0
O319 O 0.41873 0.20378 0.46451 0.0
H320 H 0.46518 0.13156 0.5548 0.0
H321 H 0.32128 0.15414 0.55632 0.0
Cu322 Cu 0.53396 0.63437 0.2843 0.0
N323 N 0.56347 0.64665 0.31288 0.0
N324 N 0.58926 0.67133 0.34887 0.0
C325 C 0.56668 0.66989 0.32686 0.0
C326 C 0.60092 0.64836 0.34868 0.0
C327 C 0.58498 0.63316 0.32634 0.0
O328 O 0.49915 0.64428 0.30988 0.0
C329 C 0.54801 0.66738 0.22364 0.0
O330 O 0.54741 0.68505 0.24871 0.0
H331 H 0.55265 0.68533 0.32159 0.0
H332 H 0.58844 0.61345 0.321 0.0
N333 N 0.53485 0.59907 0.28914 0.0
N334 N 0.53636 0.55726 0.28211 0.0
C335 C 0.53823 0.57992 0.265 0.0
C336 C 0.53093 0.58797 0.3221 0.0
C337 C 0.53189 0.56238 0.31791 0.0
C338 C 0.48896 0.66606 0.31557 0.0
O339 O 0.49956 0.68554 0.29837 0.0
H340 H 0.54163 0.58243 0.23573 0.0
H341 H 0.52743 0.59797 0.34758 0.0
O342 O 0.54074 0.64505 0.23254 0.0
H343 H 0.61928 0.64293 0.36418 0.0
H344 H 0.52929 0.54847 0.33946 0.0
Cu345 Cu 0.11108 0.80845 0.01589 0.0
N346 N 0.10057 0.83102 0.05302 0.0
N347 N 0.0766 0.85025 0.09758 0.0
C348 C 0.07584 0.83289 0.07054 0.0
C349 C 0.10259 0.85978 0.09702 0.0
C350 C 0.11734 0.84784 0.06957 0.0
O351 O 0.11323 0.77509 0.03814 0.0
C352 C 0.08152 0.8329 0.95864 0.0
O353 O 0.093 0.85261 0.97413 0.0
H354 H 0.05768 0.82179 0.06382 0.0
H355 H 0.13895 0.85095 0.0625 0.0
N356 N 0.14755 0.81583 1.00076 0.0
N357 N 0.1941 0.81724 0.99904 0.0
C358 C 0.1715 0.81025 0.0187 0.0
C359 C 0.15545 0.82647 0.96871 0.0
C360 C 0.18415 0.82739 0.96762 0.0
C361 C 0.09359 0.76415 0.05533 0.0
O362 O 0.0686 0.77416 0.05582 0.0
H363 H 0.17237 0.80104 0.04531 0.0
H364 H 0.14139 0.83273 0.94727 0.0
O365 O 0.08576 0.81129 0.97303 0.0
H366 H 0.11032 0.87416 0.11537 0.0
H367 H 0.19681 0.83465 0.94534 0.0
Cu368 Cu 0.57371 0.88071 0.79922 0.0
N369 N 0.59877 0.87141 0.83651 0.0
N370 N 0.60946 0.84626 0.88422 0.0
C371 C 0.59838 0.84778 0.85012 0.0
C372 C 0.6175 0.86984 0.89251 0.0
C373 C 0.6107 0.88539 0.86307 0.0
O374 O 0.54018 0.86696 0.82133 0.0
C375 C 0.57248 0.86902 0.72233 0.0
O376 O 0.55082 0.88407 0.72151 0.0
H377 H 0.58727 0.83254 0.83701 0.0
H378 H 0.61163 0.90566 0.86281 0.0
N379 N 0.56829 0.91576 0.79216 0.0
N380 N 0.57211 0.95731 0.78154 0.0
C381 C 0.58553 0.936 0.79249 0.0
C382 C 0.54348 0.92497 0.78117 0.0
C383 C 0.54575 0.95017 0.77451 0.0
C384 C 0.51454 0.86537 0.81291 0.0
O385 O 0.5059 0.87135 0.77967 0.0
H386 H 0.6074 0.93509 0.7997 0.0
H387 H 0.5249 0.91401 0.77719 0.0
O388 O 0.58469 0.86469 0.75293 0.0
H389 H 0.62543 0.87573 0.91906 0.0
H390 H 0.52927 0.96244 0.7648 0.0
Cu391 Cu 0.37487 0.32367 0.04483 0.0
N392 N 0.39743 0.32568 1.00262 0.0
N393 N 0.41477 0.3355 0.94714 0.0
C394 C 0.39305 0.33817 0.97058 0.0
C395 C 0.43333 0.32079 0.9649 0.0
C396 C 0.4226 0.3148 0.99904 0.0
O397 O 0.33726 0.33606 0.03067 0.0
C398 C 0.39377 0.33686 0.11837 0.0
O399 O 0.37507 0.32076 0.13013 0.0
H400 H 0.37454 0.34909 0.96464 0.0
H401 H 0.43252 0.30338 0.01999 0.0
N402 N 0.37321 0.28963 0.05868 0.0
N403 N 0.38346 0.25294 0.08555 0.0
C404 C 0.39093 0.27714 0.08118 0.0
C405 C 0.35424 0.27244 0.04811 0.0
C406 C 0.36045 0.24979 0.0648 0.0
C407 C 0.31425 0.32953 0.04566 0.0
O408 O 0.31474 0.3158 0.07577 0.0
H409 H 0.40872 0.28555 0.09453 0.0
H410 H 0.33694 0.27613 0.02978 0.0
O411 O 0.39488 0.34225 0.08403 0.0
H412 H 0.45325 0.31491 0.95391 0.0
H413 H 0.3489 0.23245 0.06224 0.0
Cu414 Cu 0.94931 0.1356 0.30112 0.0
N415 N 0.92544 0.14278 0.34057 0.0
N416 N 0.91034 0.16608 0.3878 0.0
C417 C 0.92183 0.16619 0.35389 0.0
C418 C 0.90627 0.1417 0.39621 0.0
C419 C 0.91576 0.12733 0.36706 0.0
O420 O 0.9847 0.1484 0.31883 0.0
C421 C 0.95064 0.15253 0.22664 0.0
O422 O 0.9758 0.14281 0.2271 0.0
H423 H 0.92928 0.1829 0.3401 0.0
H424 H 0.91746 0.1071 0.36651 0.0
N425 N 0.95516 0.1012 0.2916 0.0
N426 N 0.95217 0.05986 0.28035 0.0
C427 C 0.93895 0.08041 0.29396 0.0
C428 C 0.97921 0.09326 0.2766 0.0
C429 C 0.97742 0.06806 0.26952 0.0
C430 C 0.993 0.17101 0.3173 0.0
O431 O 0.97965 0.18739 0.29669 0.0
H432 H 0.91787 0.08039 0.30455 0.0
H433 H 0.99681 0.10525 0.27057 0.0
O434 O 0.93602 0.15202 0.25594 0.0
H435 H 0.89854 0.13479 0.42235 0.0
H436 H 0.9934 0.05653 0.25704 0.0
Cu437 Cu 0.14177 0.70805 0.54456 0.0
N438 N 0.11978 0.70425 0.50186 0.0
N439 N 0.10321 0.69188 0.44713 0.0
C440 C 0.12246 0.68776 0.47382 0.0
C441 C 0.08808 0.71166 0.45856 0.0
C442 C 0.09839 0.71929 0.49212 0.0
O443 O 0.18044 0.69852 0.53171 0.0
C444 C 0.09829 0.69307 0.59259 0.0
O445 O 0.08416 0.70814 0.57079 0.0
H446 H 0.13839 0.6734 0.47262 0.0
H447 H 0.0911 0.73508 0.50809 0.0
N448 N 0.1413 0.74225 0.55648 0.0
N449 N 0.13137 0.7781 0.58533 0.0
C450 C 0.13317 0.7529 0.58838 0.0
C451 C 0.14523 0.76143 0.53282 0.0
C452 C 0.13902 0.7836 0.55053 0.0
C453 C 0.20183 0.70827 0.54701 0.0
O454 O 0.19831 0.72307 0.57551 0.0
H455 H 0.12768 0.74242 0.61282 0.0
H456 H 0.15078 0.7593 0.50412 0.0
O457 O 0.12427 0.68962 0.58612 0.0
H458 H 0.07117 0.72024 0.44326 0.0
H459 H 0.13872 0.80217 0.53836 0.0
Cu460 Cu 0.58136 0.1348 0.73425 0.0
N461 N 0.60381 0.15393 0.70236 0.0
N462 N 0.614 0.18292 0.65958 0.0
C463 C 0.5942 0.17323 0.68177 0.0
C464 C 0.63722 0.16942 0.66667 0.0
C465 C 0.63082 0.15142 0.69301 0.0
O466 O 0.54392 0.14477 0.71859 0.0
C467 C 0.59224 0.16629 0.79609 0.0
O468 O 0.5913 0.18444 0.77154 0.0
H469 H 0.57296 0.18003 0.68278 0.0
H470 H 0.64475 0.13734 0.70418 0.0
N471 N 0.58733 0.10008 0.72713 0.0
N472 N 0.58949 0.0584 0.73671 0.0
C473 C 0.58867 0.08144 0.75255 0.0
C474 C 0.58811 0.08844 0.6943 0.0
C475 C 0.5892 0.06288 0.70008 0.0
C476 C 0.52577 0.13068 0.7036 0.0
O477 O 0.52898 0.10624 0.70449 0.0
H478 H 0.58784 0.08459 0.78199 0.0
H479 H 0.5868 0.09788 0.66792 0.0
O480 O 0.58847 0.1437 0.78579 0.0
H481 H 0.65721 0.17225 0.65353 0.0
H482 H 0.58904 0.04858 0.67896 0.0
Cu483 Cu 0.14447 0.32112 0.98402 0.0
N484 N 0.12212 0.32034 0.02648 0.0
N485 N 0.10392 0.3281 0.08206 0.0
C486 C 0.12471 0.33348 0.05813 0.0
C487 C 0.08781 0.311 0.06503 0.0
C488 C 0.09906 0.30626 0.03082 0.0
O489 O 0.18304 0.32908 0.99955 0.0
C490 C 0.12717 0.33976 0.91204 0.0
O491 O 0.14767 0.3261 0.89894 0.0
H492 H 0.14118 0.34688 0.06336 0.0
H493 H 0.09084 0.29356 1.01031 0.0
N494 N 0.14577 0.2886 0.96514 0.0
N495 N 0.1351 0.25386 0.93416 0.0
C496 C 0.12615 0.2766 0.94525 0.0
C497 C 0.16766 0.27279 0.9668 0.0
C498 C 0.16111 0.25128 0.94764 0.0
C499 C 0.20231 0.34111 0.98297 0.0
O500 O 0.19675 0.35268 0.95178 0.0
H501 H 0.10602 0.28453 0.93842 0.0
H502 H 0.18726 0.27691 0.98025 0.0
O503 O 0.12475 0.3421 0.947 0.0
H504 H 0.06909 0.30275 0.07646 0.0
H505 H 0.17458 0.2353 0.94304 0.0
Cu506 Cu 0.93802 0.88256 0.23031 0.0
N507 N 0.91545 0.86618 0.19569 0.0
N508 N 0.90241 0.83734 0.15442 0.0
C509 C 0.92027 0.84308 0.18192 0.0
C510 C 0.88566 0.85752 0.15066 0.0
C511 C 0.89372 0.87528 0.17622 0.0
O512 O 0.97555 0.87211 0.21519 0.0
C513 C 0.94172 0.87465 0.30896 0.0
O514 O 0.9645 0.88825 0.30705 0.0
H515 H 0.93696 0.83093 0.19128 0.0
H516 H 0.88477 0.89374 0.17976 0.0
N517 N 0.93306 0.91769 0.22602 0.0
N518 N 0.93227 0.95914 0.23722 0.0
C519 C 0.9337 0.93579 0.25215 0.0
C520 C 0.93039 0.93011 0.19382 0.0
C521 C 0.93013 0.9555 0.20057 0.0
C522 C 0.99197 0.88603 0.1966 0.0
O523 O 0.98653 0.91004 0.19307 0.0
H524 H 0.9362 0.93204 0.28128 0.0
H525 H 0.92989 0.92128 0.16703 0.0
O526 O 0.92782 0.87036 0.27966 0.0
H527 H 0.86894 0.85927 0.13075 0.0
H528 H 0.9291 0.97027 0.18004 0.0
Cu529 Cu 0.37355 0.70354 0.48539 0.0
N530 N 0.39565 0.69799 0.52758 0.0
N531 N 0.40978 0.68811 0.58467 0.0
C532 C 0.38942 0.68554 0.55907 0.0
C533 C 0.42939 0.70263 0.56888 0.0
C534 C 0.42056 0.70882 0.53387 0.0
O535 O 0.33433 0.69591 0.49807 0.0
C536 C 0.41313 0.67644 0.44054 0.0
O537 O 0.42591 0.67198 0.47189 0.0
H538 H 0.37009 0.67553 0.5636 0.0
H539 H 0.43122 0.72096 0.51456 0.0
N540 N 0.37623 0.73782 0.47506 0.0
N541 N 0.38818 0.77365 0.44738 0.0
C542 C 0.38799 0.74841 0.44509 0.0
C543 C 0.3689 0.75703 0.49702 0.0
C544 C 0.3762 0.77924 0.4799 0.0
C545 C 0.31352 0.70611 0.48187 0.0
O546 O 0.31793 0.72002 0.45249 0.0
H547 H 0.39672 0.7379 0.4224 0.0
H548 H 0.35947 0.75496 0.52391 0.0
O549 O 0.38928 0.68718 0.44094 0.0
H550 H 0.44838 0.70883 0.58219 0.0
H551 H 0.37346 0.79799 0.4907 0.0
Cu552 Cu 0.48523 0.13756 0.23852 0.0
N553 N 0.45521 0.15073 0.21171 0.0
N554 N 0.42872 0.17569 0.17667 0.0
C555 C 0.4544 0.17172 0.19081 0.0
C556 C 0.41279 0.15666 0.18904 0.0
C557 C 0.42922 0.14126 0.21064 0.0
O558 O 0.51908 0.15343 0.21782 0.0
C559 C 0.46928 0.16692 0.30107 0.0
O560 O 0.47007 0.1854 0.27704 0.0
H561 H 0.47207 0.18399 0.18644 0.0
H562 H 0.42264 0.12446 0.22499 0.0
N563 N 0.48597 0.10266 0.22885 0.0
N564 N 0.48674 0.06059 0.23206 0.0
C565 C 0.48734 0.08235 0.25139 0.0
C566 C 0.48446 0.0932 0.19451 0.0
C567 C 0.48492 0.06739 0.19638 0.0
C568 C 0.5415 0.14164 0.20987 0.0
O569 O 0.54422 0.11811 0.22017 0.0
H570 H 0.48856 0.08342 0.28114 0.0
H571 H 0.48299 0.10445 0.1697 0.0
O572 O 0.47694 0.14498 0.29093 0.0
H573 H 0.39083 0.15427 0.1831 0.0
H574 H 0.48392 0.05454 0.17338 0.0
Cu575 Cu 0.6118 0.71166 1.01136 0.0
N576 N 0.58824 0.69095 0.98343 0.0
N577 N 0.5628 0.67336 0.93884 0.0
C578 C 0.57808 0.69354 0.94882 0.0
C579 C 0.56336 0.65761 0.96788 0.0
C580 C 0.57911 0.6684 0.99513 0.0
O581 O 0.61357 0.74584 0.99048 0.0
C582 C 0.6023 0.6905 0.08318 0.0
O583 O 0.6186 0.67253 0.07107 0.0
H584 H 0.58159 0.70975 0.93141 0.0
H585 H 0.58346 0.66027 0.02179 0.0
N586 N 0.64778 0.69835 1.00593 0.0
N587 N 0.69391 0.69231 1.00768 0.0
C588 C 0.67183 0.70376 0.02368 0.0
C589 C 0.65509 0.68309 0.97805 0.0
C590 C 0.68343 0.67932 0.97907 0.0
C591 C 0.59373 0.75782 0.97487 0.0
O592 O 0.56843 0.74844 0.97538 0.0
H593 H 0.67328 0.71628 0.04703 0.0
H594 H 0.64084 0.67581 0.9576 0.0
O595 O 0.59828 0.70993 0.06299 0.0
H596 H 0.55259 0.63979 0.96942 0.0
H597 H 0.69557 0.66818 0.96003 0.0
Cu598 Cu 0.03224 0.88565 0.75041 0.0
N599 N 0.05851 0.87717 0.71433 0.0
N600 N 0.0839 0.85432 0.6752 0.0
C601 C 0.06834 0.85409 0.7062 0.0
C602 C 0.08421 0.87836 0.66364 0.0
C603 C 0.06858 0.89244 0.68789 0.0
O604 O 0.99514 0.88137 0.72762 0.0
C605 C 0.02503 0.86125 0.82211 0.0
O606 O 0.99864 0.86773 0.82011 0.0
H607 H 0.06303 0.83728 0.72148 0.0
H608 H 0.06381 0.91221 0.68548 0.0
N609 N 0.03751 0.91943 0.76418 0.0
N610 N 0.03786 0.96141 0.76793 0.0
C611 C 0.02961 0.94126 0.74795 0.0
C612 C 0.05111 0.92623 0.79505 0.0
C613 C 0.05138 0.95198 0.79741 0.0
C614 C 0.98864 0.86142 0.71023 0.0
O615 O 1.00565 0.84214 0.71145 0.0
H616 H 0.0181 0.9424 0.72231 0.0
H617 H 0.06023 0.91324 0.81463 0.0
O618 O 0.04093 0.86549 0.79466 0.0
H619 H 0.09418 0.88503 0.63873 0.0
H620 H 0.06072 0.96303 0.81916 0.0
Cu621 Cu 0.90668 0.30081 0.51049 0.0
N622 N 0.92858 0.32133 0.48033 0.0
N623 N 0.95318 0.33419 0.43172 0.0
C624 C 0.93729 0.31573 0.44601 0.0
C625 C 0.9545 0.35212 0.45771 0.0
C626 C 0.93925 0.34415 0.48772 0.0
O627 O 0.91335 0.26682 0.4912 0.0
C628 C 0.91601 0.32627 0.5796 0.0
O629 O 0.90109 0.34424 0.56448 0.0
H630 H 0.93253 0.29833 0.43204 0.0
H631 H 0.93655 0.3542 0.51325 0.0
N632 N 0.86931 0.30964 0.50089 0.0
N633 N 0.82303 0.31526 0.50151 0.0
C634 C 0.84593 0.3093 0.52175 0.0
C635 C 0.86067 0.31605 0.46679 0.0
C636 C 0.8323 0.31953 0.46708 0.0
C637 C 0.89416 0.25086 0.48464 0.0
O638 O 0.86869 0.25536 0.49607 0.0
H639 H 0.84556 0.30439 0.55072 0.0
H640 H 0.87414 0.31756 0.44302 0.0
O641 O 0.91925 0.30562 0.56218 0.0
H642 H 0.96609 0.36947 0.45533 0.0
H643 H 0.81933 0.32462 0.44377 0.0
Cu644 Cu 0.48758 0.88103 0.28143 0.0
N645 N 0.45769 0.87017 0.31051 0.0
N646 N 0.43141 0.84743 0.34877 0.0
C647 C 0.45553 0.84854 0.32973 0.0
C648 C 0.41789 0.86904 0.34135 0.0
C649 C 0.43417 0.88305 0.31772 0.0
O650 O 0.521 0.866 0.30486 0.0
C651 C 0.46072 0.85613 0.21965 0.0
O652 O 0.44291 0.84852 0.2447 0.0
H653 H 0.47134 0.83404 0.33004 0.0
H654 H 0.42935 0.90145 0.30676 0.0
N655 N 0.48912 0.91634 0.2871 0.0
N656 N 0.48921 0.95825 0.28054 0.0
C657 C 0.48862 0.93581 0.26291 0.0
C658 C 0.48996 0.92708 0.32066 0.0
C659 C 0.49004 0.95275 0.31674 0.0
C660 C 0.54366 0.87768 0.31197 0.0
O661 O 0.54713 0.90056 0.29922 0.0
H662 H 0.48755 0.93366 0.23329 0.0
H663 H 0.49026 0.91677 0.34639 0.0
O664 O 0.48132 0.87003 0.22939 0.0
H665 H 0.39777 0.87428 0.35241 0.0
H666 H 0.4905 0.96642 0.33874 0.0
Cu667 Cu 0.89407 0.70242 0.0309 0.0
N668 N 0.91506 0.67943 0.05856 0.0
N669 N 0.94573 0.6615 0.09677 0.0
C670 C 0.93771 0.68303 0.08004 0.0
C671 C 0.92777 0.64376 0.08534 0.0
C672 C 0.90888 0.65488 0.0618 0.0
O673 O 0.90192 0.73688 0.04681 0.0
C674 C 0.92634 0.69709 0.9651 0.0
O675 O 0.94686 0.7046 0.9864 0.0
H676 H 0.94812 0.70089 0.0833 0.0
H677 H 0.89162 0.64576 0.04808 0.0
N678 N 0.85652 0.69619 0.0427 0.0
N679 N 0.80996 0.69378 0.04313 0.0
C680 C 0.83287 0.69917 0.0228 0.0
C681 C 0.84804 0.6886 0.07632 0.0
C682 C 0.81946 0.68719 0.07672 0.0
C683 C 0.90026 0.74182 0.08116 0.0
O684 O 0.89516 0.72353 0.1045 0.0
H685 H 0.83238 0.70523 0.99431 0.0
H686 H 0.86178 0.68442 0.09918 0.0
O687 O 0.90169 0.69599 0.97831 0.0
H688 H 0.9285 0.62417 0.09325 0.0
H689 H 0.80656 0.68153 0.09973 0.0
Cu690 Cu 0.03222 0.14332 0.77698 0.0
N691 N 0.06246 0.1561 0.80331 0.0
N692 N 0.08891 0.18018 0.83922 0.0
C693 C 0.06299 0.17597 0.82621 0.0
C694 C 0.10529 0.16249 0.82405 0.0
C695 C 0.08887 0.14761 0.80188 0.0
O696 O 0.99853 0.1576 0.80045 0.0
C697 C 0.04782 0.17479 0.7166 0.0
O698 O 0.04892 0.19188 0.74258 0.0
H699 H 0.04495 0.18732 0.83274 0.0
H700 H 0.0957 0.13188 0.78543 0.0
N701 N 0.03288 0.10826 0.78467 0.0
N702 N 0.03267 0.06632 0.78016 0.0
C703 C 0.03072 0.0884 0.76159 0.0
C704 C 0.03628 0.0982 0.81848 0.0
C705 C 0.03609 0.07249 0.81581 0.0
C706 C 0.97746 0.1446 0.81054 0.0
O707 O 0.97573 0.12101 0.80044 0.0
H708 H 0.02788 0.09001 0.73207 0.0
H709 H 0.03872 0.10899 0.84347 0.0
O710 O 0.03909 0.15277 0.72489 0.0
H711 H 0.12754 0.16073 0.8284 0.0
H712 H 0.03838 0.05923 0.8383 0.0
Cu713 Cu 0.62329 0.30996 0.52271 0.0
N714 N 0.60025 0.33262 0.54745 0.0
N715 N 0.5739 0.35163 0.58964 0.0
C716 C 0.59071 0.33194 0.5824 0.0
C717 C 0.57309 0.36533 0.55836 0.0
C718 C 0.58948 0.35363 0.53249 0.0
O719 O 0.62029 0.27653 0.54585 0.0
C720 C 0.5888 0.30875 0.45732 0.0
O721 O 0.57041 0.29846 0.47946 0.0
H722 H 0.59578 0.31734 0.60195 0.0
H723 H 0.59285 0.3597 0.50437 0.0
N724 N 0.66013 0.32049 0.53163 0.0
N725 N 0.70669 0.3236 0.5332 0.0
C726 C 0.68437 0.31393 0.51523 0.0
C727 C 0.6676 0.33464 0.56071 0.0
C728 C 0.69618 0.33659 0.56174 0.0
C729 C 0.59836 0.26638 0.55905 0.0
O730 O 0.57393 0.27671 0.55287 0.0
H731 H 0.68572 0.30189 0.49133 0.0
H732 H 0.6532 0.34246 0.58049 0.0
O733 O 0.61336 0.31304 0.4697 0.0
H734 H 0.56064 0.38205 0.55419 0.0
H735 H 0.70842 0.34657 0.58206 0.0
C736 C 0.09103 0.33171 0.1843 0.0
C737 C 0.08179 0.35695 0.18783 0.0
C738 C 0.08865 0.36349 0.12132 0.0
C739 C 0.09882 0.33867 0.11807 0.0
N740 N 0.11515 0.30083 0.14679 0.0
N741 N 0.0787 0.39854 0.16163 0.0
C742 C 0.10175 0.32333 0.1498 0.0
C743 C 0.08269 0.37336 0.15687 0.0
N744 N 0.08823 0.31539 0.21319 0.0
N745 N 0.08344 0.37724 0.09023 0.0
H746 H 0.07516 0.40657 0.18739 0.0
H747 H 0.08173 0.41173 0.14076 0.0
H748 H 0.08744 0.37048 0.06382 0.0
H749 H 0.07309 0.39442 0.09045 0.0
H750 H 0.09169 0.29616 0.21105 0.0
H751 H 0.08039 0.32068 0.23878 0.0
H752 H 0.12046 0.28963 0.16931 0.0
H753 H 0.12322 0.29446 0.12181 0.0
C754 C 0.92928 0.83794 0.35039 0.0
C755 C 0.93243 0.86429 0.34533 0.0
C756 C 0.92349 0.87069 0.41151 0.0
C757 C 0.91912 0.84461 0.41604 0.0
N758 N 0.91245 0.80399 0.38939 0.0
N759 N 0.92653 0.90609 0.36949 0.0
C760 C 0.92027 0.82845 0.38521 0.0
C761 C 0.92778 0.88078 0.37549 0.0
N762 N 0.93646 0.82185 0.3227 0.0
N763 N 0.92462 0.88566 0.44194 0.0
H764 H 0.92891 0.91412 0.34345 0.0
H765 H 0.92054 0.91892 0.38956 0.0
H766 H 0.92123 0.87879 0.46852 0.0
H767 H 0.93085 0.90436 0.44118 0.0
H768 H 0.93748 0.80246 0.32603 0.0
H769 H 0.94377 0.82788 0.29712 0.0
H770 H 0.91008 0.7916 0.36747 0.0
H771 H 0.90587 0.79672 0.41468 0.0
C772 C 0.39713 0.6829 0.6872 0.0
C773 C 0.41859 0.66577 0.69727 0.0
C774 C 0.42921 0.65939 0.63163 0.0
C775 C 0.41047 0.67888 0.62216 0.0
N776 N 0.37862 0.71124 0.64065 0.0
N777 N 0.45737 0.63963 0.67911 0.0
C778 C 0.39479 0.69107 0.64987 0.0
C779 C 0.43507 0.65424 0.66946 0.0
N780 N 0.3785 0.69081 0.71315 0.0
N781 N 0.44128 0.64576 0.60414 0.0
H782 H 0.46282 0.63577 0.70637 0.0
H783 H 0.4719 0.63297 0.66024 0.0
H784 H 0.4373 0.64937 0.57633 0.0
H785 H 0.4531 0.62966 0.6088 0.0
H786 H 0.36083 0.70136 0.70688 0.0
H787 H 0.3792 0.68479 0.74053 0.0
H788 H 0.36909 0.72279 0.66 0.0
H789 H 0.37642 0.71757 0.61357 0.0
C790 C 0.62333 0.18538 0.84443 0.0
C791 C 0.59839 0.17235 0.83542 0.0
C792 C 0.58499 0.1728 0.90085 0.0
C793 C 0.60801 0.18849 0.9088 0.0
N794 N 0.64748 0.21225 0.88797 0.0
N795 N 0.55373 0.15601 0.85447 0.0
C796 C 0.62687 0.19534 0.88055 0.0
C797 C 0.57883 0.16644 0.86355 0.0
N798 N 0.64403 0.18755 0.81877 0.0
N799 N 0.56928 0.16374 0.92926 0.0
H800 H 0.54821 0.15136 0.82754 0.0
H801 H 0.53744 0.15379 0.87313 0.0
H802 H 0.5735 0.16816 0.95672 0.0
H803 H 0.55381 0.15023 0.92602 0.0
H804 H 0.66374 0.19466 0.82471 0.0
H805 H 0.64246 0.18002 0.79235 0.0
H806 H 0.66008 0.22023 0.86775 0.0
H807 H 0.65056 0.2198 0.91414 0.0
C808 C 0.09665 0.6828 0.34482 0.0
C809 C 0.08672 0.65768 0.34297 0.0
C810 C 0.08854 0.65487 0.41067 0.0
C811 C 0.10003 0.6793 0.41216 0.0
N812 N 0.12076 0.71434 0.38096 0.0
N813 N 0.07918 0.618 0.37368 0.0
C814 C 0.10591 0.69253 0.37922 0.0
C815 C 0.08438 0.64316 0.37581 0.0
N816 N 0.09571 0.69789 0.31429 0.0
N817 N 0.08056 0.64329 0.44256 0.0
H818 H 0.07681 0.60861 0.3487 0.0
H819 H 0.07991 0.60602 0.39641 0.0
H820 H 0.08342 0.65141 0.46841 0.0
H821 H 0.06923 0.62664 0.4432 0.0
H822 H 0.09995 0.71705 0.315 0.0
H823 H 0.0881 0.69195 0.28886 0.0
H824 H 0.12816 0.72376 0.35776 0.0
H825 H 0.12801 0.72164 0.40585 0.0
C826 C 0.59458 0.86478 0.62163 0.0
C827 C 0.59916 0.83868 0.61767 0.0
C828 C 0.5866 0.83209 0.68265 0.0
C829 C 0.58345 0.85844 0.68716 0.0
N830 N 0.59153 0.90014 0.66324 0.0
N831 N 0.60545 0.79821 0.64558 0.0
C832 C 0.58957 0.87489 0.65729 0.0
C833 C 0.59705 0.82258 0.64868 0.0
N834 N 0.59366 0.87976 0.59105 0.0
N835 N 0.5782 0.81605 0.70992 0.0
H836 H 0.61342 0.79098 0.62106 0.0
H837 H 0.60701 0.78596 0.66791 0.0
H838 H 0.56988 0.82215 0.73486 0.0
H839 H 0.57722 0.79667 0.70664 0.0
H840 H 0.58737 0.89847 0.59169 0.0
H841 H 0.59685 0.8729 0.56451 0.0
H842 H 0.59853 0.91276 0.64333 0.0
H843 H 0.58898 0.9082 0.68919 0.0
C844 C 0.41802 0.32967 0.87974 0.0
C845 C 0.41818 0.34589 0.91054 0.0
C846 C 0.42855 0.3815 0.86965 0.0
C847 C 0.43212 0.36472 0.8396 0.0
N848 N 0.43386 0.32203 0.8174 0.0
N849 N 0.42684 0.38667 0.93608 0.0
C850 C 0.42754 0.33857 0.84488 0.0
C851 C 0.42416 0.37171 0.90581 0.0
N852 N 0.40838 0.30574 0.88396 0.0
N853 N 0.42845 0.4068 0.86343 0.0
H854 H 0.42379 0.38001 0.96284 0.0
H855 H 0.43419 0.40503 0.93491 0.0
H856 H 0.43073 0.41459 0.83721 0.0
H857 H 0.42336 0.41993 0.88353 0.0
H858 H 0.40506 0.29355 0.86201 0.0
H859 H 0.4012 0.29892 0.90922 0.0
H860 H 0.43379 0.30264 0.82103 0.0
H861 H 0.44162 0.32755 0.79182 0.0
C862 C 0.93273 0.15629 0.12439 0.0
C863 C 0.92291 0.18125 0.12116 0.0
C864 C 0.92992 0.18747 0.18767 0.0
C865 C 0.93886 0.16212 0.19116 0.0
N866 N 0.94194 0.12078 0.16456 0.0
N867 N 0.90671 0.21898 0.14984 0.0
C868 C 0.93821 0.14603 0.15998 0.0
C869 C 0.91978 0.1963 0.15297 0.0
N870 N 0.93805 0.14278 0.09328 0.0
N871 N 0.93244 0.20345 0.21686 0.0
H872 H 0.89908 0.22568 0.1247 0.0
H873 H 0.90125 0.23002 0.17232 0.0
H874 H 0.93979 0.19779 0.24262 0.0
H875 H 0.92922 0.22273 0.21489 0.0
H876 H 0.94817 0.12549 0.09351 0.0
H877 H 0.93432 0.14981 0.06686 0.0
H878 H 0.93905 0.10781 0.14349 0.0
H879 H 0.94516 0.11247 0.19031 0.0
C880 C 0.93168 0.69278 0.85951 0.0
C881 C 0.94693 0.67009 0.8553 0.0
C882 C 0.94948 0.66564 0.92295 0.0
C883 C 0.93271 0.68751 0.92716 0.0
N884 N 0.90554 0.7207 0.89965 0.0
N885 N 0.96682 0.63288 0.88255 0.0
C886 C 0.92307 0.70068 0.89543 0.0
C887 C 0.95509 0.65608 0.88694 0.0
N888 N 0.92631 0.70725 0.82911 0.0
N889 N 0.95992 0.65379 0.95352 0.0
H890 H 0.97127 0.62525 0.85681 0.0
H891 H 0.97027 0.6203 0.90408 0.0
H892 H 0.95426 0.65851 0.98035 0.0
H893 H 0.97529 0.64002 0.95251 0.0
H894 H 0.91785 0.72521 0.8302 0.0
H895 H 0.93239 0.70209 0.80259 0.0
H896 H 0.89512 0.72941 0.87793 0.0
H897 H 0.89998 0.72781 0.92536 0.0
C898 C 0.05474 0.18256 0.61137 0.0
C899 C 0.07889 0.19811 0.60875 0.0
C900 C 0.08557 0.19296 0.67574 0.0
C901 C 0.05909 0.18107 0.67897 0.0
N902 N 0.01641 0.16817 0.64939 0.0
N903 N 0.11461 0.2215 0.64066 0.0
C904 C 0.04316 0.17674 0.64663 0.0
C905 C 0.09369 0.20413 0.64153 0.0
N906 N 0.04334 0.1724 0.58028 0.0
N907 N 0.10354 0.19285 0.70502 0.0
H908 H 0.12066 0.23082 0.6167 0.0
H909 H 0.12402 0.22851 0.66439 0.0
H910 H 0.09904 0.18387 0.72989 0.0
H911 H 0.12405 0.19913 0.70321 0.0
H912 H 0.02756 0.15899 0.58094 0.0
H913 H 0.05164 0.17512 0.55408 0.0
H914 H 1.00281 0.1674 0.62699 0.0
H915 H 1.00689 0.16409 0.6745 0.0
C916 C 0.59647 0.31281 0.38783 0.0
C917 C 0.57981 0.31744 0.41944 0.0
C918 C 0.54301 0.33445 0.37858 0.0
C919 C 0.56086 0.33233 0.34754 0.0
N920 N 0.60798 0.32599 0.32579 0.0
N921 N 0.54022 0.33968 0.44467 0.0
C922 C 0.58858 0.32333 0.35304 0.0
C923 C 0.55391 0.33026 0.41476 0.0
N924 N 0.61931 0.29759 0.39042 0.0
N925 N 0.51532 0.3395 0.37373 0.0
H926 H 0.54816 0.33869 0.47139 0.0
H927 H 0.52269 0.35115 0.4424 0.0
H928 H 0.50619 0.34174 0.34783 0.0
H929 H 0.50094 0.33875 0.39521 0.0
H930 H 0.63049 0.29163 0.36744 0.0
H931 H 0.62534 0.28879 0.41486 0.0
H932 H 0.62901 0.3218 0.32961 0.0
H933 H 0.60388 0.33525 0.30102 0.0
C934 C 0.45121 0.86548 0.15189 0.0
C935 C 0.45624 0.84775 0.1805 0.0
C936 C 0.44274 0.81349 0.13817 0.0
C937 C 0.43942 0.83104 0.10896 0.0
N938 N 0.4439 0.87357 0.08666 0.0
N939 N 0.4621 0.80456 0.19877 0.0
C940 C 0.44488 0.85696 0.11543 0.0
C941 C 0.45339 0.82165 0.173 0.0
N942 N 0.45084 0.89053 0.15995 0.0
N943 N 0.43563 0.78895 0.13271 0.0
H944 H 0.47085 0.80979 0.22394 0.0
H945 H 0.46329 0.78535 0.19393 0.0
H946 H 0.42897 0.78207 0.1073 0.0
H947 H 0.43438 0.77577 0.15389 0.0
H948 H 0.444 0.90428 0.1416 0.0
H949 H 0.45532 0.89758 0.18605 0.0
H950 H 0.45121 0.89192 0.08834 0.0
H951 H 0.43723 0.86867 0.0603 0.0
C952 C 0.92668 0.34055 0.68249 0.0
C953 C 0.95584 0.34558 0.68378 0.0
C954 C 0.9594 0.33501 0.61764 0.0
C955 C 0.93004 0.33107 0.61601 0.0
N956 N 0.88526 0.33203 0.64578 0.0
N957 N 0.99963 0.35006 0.65233 0.0
C958 C 0.9136 0.33438 0.6482 0.0
C959 C 0.97209 0.34352 0.65121 0.0
N960 N 0.91146 0.34147 0.71433 0.0
N961 N 0.97521 0.33047 0.58703 0.0
H962 H 0.00967 0.35552 0.67653 0.0
H963 H 0.01228 0.35164 0.62919 0.0
H964 H 0.96669 0.32533 0.56172 0.0
H965 H 0.99688 0.33031 0.58691 0.0
H966 H 0.89116 0.33483 0.71674 0.0
H967 H 0.9195 0.34798 0.73923 0.0
H968 H 0.87151 0.33725 0.66653 0.0
H969 H 0.87512 0.32581 0.62204 0.0
C970 C 0.42659 0.17725 0.33896 0.0
C971 C 0.45553 0.17126 0.33774 0.0
C972 C 0.45872 0.17809 0.40503 0.0
C973 C 0.4295 0.18281 0.40649 0.0
N974 N 0.38516 0.18559 0.3756 0.0
N975 N 0.49885 0.16396 0.36944 0.0
C976 C 0.41337 0.18209 0.37357 0.0
C977 C 0.4715 0.17113 0.37079 0.0
N978 N 0.41169 0.17841 0.30678 0.0
N979 N 0.47429 0.18035 0.43646 0.0
H980 H 0.50901 0.15967 0.34486 0.0
H981 H 0.51123 0.16079 0.39255 0.0
H982 H 0.46567 0.18438 0.46211 0.0
H983 H 0.49595 0.17976 0.43714 0.0
H984 H 0.39169 0.18583 0.30462 0.0
H985 H 0.4197 0.17277 0.28144 0.0
H986 H 0.3714 0.18218 0.354 0.0
H987 H 0.37508 0.19109 0.39972 0.0
C988 C 0.54581 0.67388 0.15429 0.0
C989 C 0.56176 0.67289 0.18731 0.0
C990 C 0.60391 0.68501 0.15234 0.0
C991 C 0.58779 0.68689 0.11951 0.0
N992 N 0.54302 0.68537 0.08932 0.0
N993 N 0.6056 0.67873 0.21876 0.0
C994 C 0.55858 0.68206 0.12059 0.0
C995 C 0.5907 0.67887 0.18654 0.0
N996 N 0.51849 0.66659 0.15514 0.0
N997 N 0.6321 0.6887 0.15058 0.0
H998 H 0.59762 0.67204 0.24363 0.0
H999 H 0.6256 0.68602 0.2215 0.0
H1000 H 0.64216 0.69512 0.12689 0.0
H1001 H 0.64588 0.68459 0.17194 0.0
H1002 H 0.50612 0.66423 0.13184 0.0
H1003 H 0.50836 0.66137 0.1794 0.0
H1004 H 0.52137 0.68474 0.08856 0.0
H1005 H 0.55163 0.69032 0.06398 0.0
C1006 C 0.03262 0.86529 0.89112 0.0
C1007 C 0.03725 0.85189 0.85781 0.0
C1008 C 0.07034 0.82435 0.89097 0.0
C1009 C 0.06403 0.83668 0.92469 0.0
N1010 N 0.03311 0.86412 0.95789 0.0
N1011 N 0.05577 0.81498 0.82835 0.0
C1012 C 0.04318 0.85559 0.92502 0.0
C1013 C 0.05467 0.83026 0.85847 0.0
N1014 N 0.01989 0.88824 0.89038 0.0
N1015 N 0.09227 0.80802 0.88925 0.0
H1016 H 0.04422 0.8184 0.80446 0.0
H1017 H 0.06589 0.79768 0.82842 0.0
H1018 H 0.10444 0.80327 0.91202 0.0
H1019 H 0.09983 0.80079 0.86457 0.0
H1020 H 0.01864 0.89984 0.91338 0.0
H1021 H 0.01339 0.89706 0.86617 0.0
H1022 H 0.01606 0.87617 0.95983 0.0
H1023 H 0.03976 0.85694 0.98323 0.0
C1024 C 0.09596 0.30239 0.39505 0.0
C1025 C 0.10425 0.32593 0.40923 0.0
C1026 C 0.10779 0.30727 0.47126 0.0
C1027 C 0.09662 0.28438 0.45758 0.0
N1028 N 0.07457 0.26218 0.40724 0.0
N1029 N 0.11523 0.35198 0.46099 0.0
C1030 C 0.08898 0.28257 0.41971 0.0
C1031 C 0.1095 0.32868 0.44744 0.0
N1032 N 0.09566 0.29881 0.35779 0.0
N1033 N 0.1167 0.30856 0.507 0.0
H1034 H 0.11679 0.36774 0.44397 0.0
H1035 H 0.11654 0.35601 0.48899 0.0
H1036 H 0.11424 0.29382 0.52569 0.0
H1037 H 0.12779 0.32369 0.51761 0.0
H1038 H 0.09262 0.28138 0.34553 0.0
H1039 H 0.10131 0.31281 0.33911 0.0
H1040 H 0.06746 0.26029 0.38028 0.0
H1041 H 0.06697 0.24822 0.42452 0.0
C1042 C 0.95585 0.85819 0.61511 0.0
C1043 C 0.92705 0.85497 0.62324 0.0
C1044 C 0.93822 0.85691 0.6897 0.0
C1045 C 0.96654 0.86187 0.68111 0.0
N1046 N 1.00066 0.87368 0.63566 0.0
N1047 N 0.89016 0.85557 0.66827 0.0
C1048 C 0.97476 0.86459 0.6438 0.0
C1049 C 0.91803 0.85554 0.66061 0.0
N1050 N 0.96568 0.85345 0.58047 0.0
N1051 N 0.93076 0.8529 0.72555 0.0
H1052 H 0.87492 0.85494 0.64775 0.0
H1053 H 0.88211 0.85839 0.69456 0.0
H1054 H 0.94484 0.85466 0.74736 0.0
H1055 H 0.9112 0.84639 0.73346 0.0
H1056 H 0.98685 0.85282 0.57418 0.0
H1057 H 0.9531 0.84737 0.55885 0.0
H1058 H 1.00685 0.87847 0.60903 0.0
H1059 H 0.01496 0.87883 0.65593 0.0
C1060 C 0.39024 0.72151 0.95748 0.0
C1061 C 0.39255 0.74539 0.94008 0.0
C1062 C 0.39452 0.72452 0.87963 0.0
C1063 C 0.39414 0.70073 0.89706 0.0
N1064 N 0.39793 0.67651 0.9528 0.0
N1065 N 0.40469 0.76877 0.88527 0.0
C1066 C 0.39388 0.69922 0.93613 0.0
C1067 C 0.39703 0.74661 0.90132 0.0
N1068 N 0.38323 0.71996 0.99389 0.0
N1069 N 0.39129 0.72609 0.84229 0.0
H1070 H 0.40797 0.78509 0.90039 0.0
H1071 H 0.41081 0.77029 0.85782 0.0
H1072 H 0.38849 0.71034 0.82571 0.0
H1073 H 0.38856 0.74303 0.82831 0.0
H1074 H 0.37833 0.70312 1.00698 0.0
H1075 H 0.38007 0.73568 1.01036 0.0
H1076 H 0.40074 0.6744 0.98112 0.0
H1077 H 0.40112 0.66008 0.93785 0.0
C1078 C 0.59354 0.18935 0.16995 0.0
C1079 C 0.60612 0.17526 0.14097 0.0
C1080 C 0.57339 0.14079 0.15417 0.0
C1081 C 0.56351 0.15351 0.18606 0.0
N1082 N 0.56872 0.18816 0.22809 0.0
N1083 N 0.61155 0.13502 0.11143 0.0
C1084 C 0.57488 0.17731 0.19503 0.0
C1085 C 0.59702 0.15025 0.13476 0.0
N1086 N 0.59811 0.21458 0.17263 0.0
N1087 N 0.55944 0.12029 0.14116 0.0
H1088 H 0.62963 0.14073 0.09789 0.0
H1089 H 0.60743 0.11592 0.10875 0.0
H1090 H 0.54124 0.11344 0.15318 0.0
H1091 H 0.56413 0.11186 0.11605 0.0
H1092 H 0.58722 0.22608 0.19079 0.0
H1093 H 0.61036 0.22461 0.15413 0.0
H1094 H 0.57876 0.20418 0.23774 0.0
H1095 H 0.55568 0.17981 0.24754 0.0
C1096 C 0.1112 0.72709 0.14248 0.0
C1097 C 0.11269 0.70239 0.12846 0.0
C1098 C 0.10426 0.71837 0.06576 0.0
C1099 C 0.10027 0.7428 0.08031 0.0
N1100 N 0.09803 0.77058 0.13266 0.0
N1101 N 0.10775 0.67362 0.07804 0.0
C1102 C 0.10315 0.7472 0.11878 0.0
C1103 C 0.10864 0.69779 0.09035 0.0
N1104 N 0.11857 0.7313 0.17833 0.0
N1105 N 0.10402 0.71492 0.02844 0.0
H1106 H 0.11073 0.65823 0.09542 0.0
H1107 H 0.10197 0.66863 0.0514 0.0
H1108 H 0.09982 0.72938 1.00979 0.0
H1109 H 0.10971 0.69819 0.01577 0.0
H1110 H 0.12066 0.74906 0.18981 0.0
H1111 H 0.12494 0.71689 0.19598 0.0
H1112 H 0.09653 0.77442 0.1607 0.0
H1113 H 0.09367 0.78613 0.1161 0.0
C1114 C 0.5763 0.84218 0.33026 0.0
C1115 C 0.56526 0.86642 0.33716 0.0
C1116 C 0.59819 0.87093 0.38905 0.0
C1117 C 0.60681 0.84556 0.38506 0.0
N1118 N 0.59864 0.80536 0.35579 0.0
N1119 N 0.5615 0.90142 0.37905 0.0
C1120 C 0.59443 0.83071 0.35668 0.0
C1121 C 0.57505 0.88013 0.36821 0.0
N1122 N 0.57034 0.83032 0.29786 0.0
N1123 N 0.61274 0.88669 0.41161 0.0
H1124 H 0.54375 0.90827 0.36581 0.0
H1125 H 0.56602 0.91068 0.40359 0.0
H1126 H 0.63051 0.88113 0.42608 0.0
H1127 H 0.60903 0.90594 0.41273 0.0
H1128 H 0.58025 0.81387 0.28961 0.0
H1129 H 0.55765 0.83819 0.27751 0.0
H1130 H 0.5877 0.79345 0.33824 0.0
H1131 H 0.6107 0.79572 0.375 0.0
C1132 C 0.4279 0.29594 0.56501 0.0
C1133 C 0.41708 0.2723 0.57638 0.0
C1134 C 0.39931 0.29168 0.63343 0.0
C1135 C 0.40937 0.3153 0.62146 0.0
N1136 N 0.42969 0.34115 0.57454 0.0
N1137 N 0.39028 0.2478 0.6198 0.0
C1138 C 0.42265 0.31774 0.58679 0.0
C1139 C 0.40197 0.27026 0.61005 0.0
N1140 N 0.44348 0.29747 0.53355 0.0
N1141 N 0.38796 0.28977 0.66784 0.0
H1142 H 0.39324 0.23131 0.60495 0.0
H1143 H 0.37649 0.24554 0.64163 0.0
H1144 H 0.38496 0.30533 0.68476 0.0
H1145 H 0.38282 0.27287 0.68054 0.0
H1146 H 0.45474 0.31329 0.52578 0.0
H1147 H 0.44631 0.28235 0.51578 0.0
H1148 H 0.43714 0.34498 0.54821 0.0
H1149 H 0.42629 0.35723 0.59022 0.0
C1150 C 0.95014 0.14167 0.87008 0.0
C1151 C 0.95636 0.15498 0.83701 0.0
C1152 C 0.92393 0.18825 0.85633 0.0
C1153 C 0.91506 0.17337 0.88697 0.0
N1154 N 0.91604 0.13309 0.91759 0.0
N1155 N 0.94497 0.18892 0.79557 0.0
C1156 C 0.92716 0.14928 0.89232 0.0
C1157 C 0.94207 0.17772 0.82927 0.0
N1158 N 0.96695 0.12239 0.88137 0.0
N1159 N 0.91631 0.21291 0.85379 0.0
H1160 H 0.95769 0.1817 0.77488 0.0
H1161 H 0.93271 0.20399 0.78692 0.0
H1162 H 0.90401 0.22187 0.87329 0.0
H1163 H 0.92463 0.22521 0.83433 0.0
H1164 H 0.96502 0.11374 0.90704 0.0
H1165 H 0.98475 0.11691 0.86705 0.0
H1166 H 0.9223 0.11442 0.91998 0.0
H1167 H 0.89852 0.13738 0.93333 0.0
C1168 C 0.89165 0.6994 0.66483 0.0
C1169 C 0.918 0.68815 0.65868 0.0
C1170 C 0.92551 0.71599 0.60548 0.0
C1171 C 0.89818 0.72562 0.60971 0.0
N1172 N 0.85405 0.72537 0.64065 0.0
N1173 N 0.95889 0.6833 0.62116 0.0
C1174 C 0.88093 0.71705 0.63876 0.0
C1175 C 0.93473 0.6959 0.62851 0.0
N1176 N 0.87737 0.69367 0.69627 0.0
N1177 N 0.94273 0.72651 0.5798 0.0
H1178 H 0.96591 0.66833 0.63726 0.0
H1179 H 0.9709 0.68634 0.59771 0.0
H1180 H 0.93631 0.74112 0.56254 0.0
H1181 H 0.96381 0.72218 0.57743 0.0
H1182 H 0.85921 0.70277 0.70441 0.0
H1183 H 0.88498 0.68098 0.71581 0.0
H1184 H 0.83932 0.71816 0.65884 0.0
H1185 H 0.84596 0.73852 0.62213 0.0
C1186 C 0.00946 0.19454 0.37331 0.0
C1187 C 0.01573 0.17883 0.34272 0.0
C1188 C 0.06223 0.17037 0.36861 0.0
C1189 C 0.05448 0.18326 0.40097 0.0
N1190 N 0.02147 0.20734 0.43565 0.0
N1191 N 0.04812 0.15268 0.30976 0.0
C1192 C 0.02844 0.19562 0.40347 0.0
C1193 C 0.04231 0.16719 0.3398 0.0
N1194 N 0.98525 0.20809 0.37385 0.0
N1195 N 0.08875 0.16124 0.36582 0.0
H1196 H 0.03472 0.15142 0.28714 0.0
H1197 H 0.06573 0.14142 0.30735 0.0
H1198 H 0.10334 0.16322 0.38699 0.0
H1199 H 0.09694 0.15319 0.34212 0.0
H1200 H 0.98065 0.22166 0.39347 0.0
H1201 H 0.97025 0.20727 0.3532 0.0
H1202 H 1.00175 0.21435 0.4415 0.0
H1203 H 0.03527 0.20894 0.45776 0.0
C1204 C 0.61169 0.31272 0.10368 0.0
C1205 C 0.62618 0.29207 0.11921 0.0
C1206 C 0.61653 0.30776 0.18143 0.0
C1207 C 0.60402 0.32943 0.16582 0.0
N1208 N 0.59083 0.35387 0.11299 0.0
N1209 N 0.64476 0.27043 0.17192 0.0
C1210 C 0.6018 0.33222 0.1271 0.0
C1211 C 0.6291 0.28964 0.15792 0.0
N1212 N 0.60715 0.31329 0.06651 0.0
N1213 N 0.61583 0.30446 0.21876 0.0
H1214 H 0.65389 0.25682 0.15523 0.0
H1215 H 0.65013 0.26869 0.19962 0.0
H1216 H 0.6071 0.31769 0.23643 0.0
H1217 H 0.62213 0.28809 0.23208 0.0
H1218 H 0.59482 0.32661 0.05324 0.0
H1219 H 0.6144 0.29921 0.04904 0.0
H1220 H 0.59068 0.35839 0.08508 0.0
H1221 H 0.58315 0.36815 0.12977 0.0
C1222 C 0.4842 0.86571 0.90932 0.0
C1223 C 0.45967 0.8514 0.90499 0.0
C1224 C 0.47181 0.84411 0.84018 0.0
C1225 C 0.49442 0.86116 0.84357 0.0
N1226 N 0.51606 0.89412 0.87961 0.0
N1227 N 0.42686 0.83138 0.8643 0.0
C1228 C 0.49894 0.87367 0.87768 0.0
C1229 C 0.45252 0.84174 0.86982 0.0
N1230 N 0.49375 0.87128 0.94379 0.0
N1231 N 0.46921 0.82955 0.80947 0.0
H1232 H 0.41184 0.83048 0.88499 0.0
H1233 H 0.41958 0.82605 0.83841 0.0
H1234 H 0.48328 0.83024 0.78763 0.0
H1235 H 0.45462 0.81515 0.80731 0.0
H1236 H 0.51288 0.87999 0.94846 0.0
H1237 H 0.48407 0.86464 0.96763 0.0
H1238 H 0.51815 0.9049 0.90337 0.0
H1239 H 0.52528 0.90228 0.8565 0.0
C1240 C 0.89358 0.28689 0.87786 0.0
C1241 C 0.89977 0.28781 0.91603 0.0
C1242 C 0.92717 0.32613 0.90669 0.0
C1243 C 0.92161 0.32481 0.86839 0.0
N1244 N 0.90388 0.30233 0.81622 0.0
N1245 N 0.92557 0.3053 0.96642 0.0
C1246 C 0.90613 0.3046 0.85359 0.0
C1247 C 0.91759 0.30657 0.93032 0.0
N1248 N 0.87479 0.26968 0.86528 0.0
N1249 N 0.94071 0.34661 0.9204 0.0
H1250 H 0.91865 0.29114 0.9841 0.0
H1251 H 0.94047 0.31701 0.97817 0.0
H1252 H 0.9481 0.36101 0.90352 0.0
H1253 H 0.94315 0.35015 0.94841 0.0
H1254 H 0.8672 0.26936 0.8384 0.0
H1255 H 0.86536 0.25653 0.88257 0.0
H1256 H 0.89505 0.28689 0.80317 0.0
H1257 H 0.9129 0.31519 0.79806 0.0
C1258 C 0.51855 0.15029 0.64145 0.0
C1259 C 0.50698 0.14179 0.67532 0.0
C1260 C 0.45996 0.1508 0.65178 0.0
C1261 C 0.47181 0.1603 0.61884 0.0
N1262 N 0.51186 0.17475 0.58564 0.0
N1263 N 0.46726 0.13734 0.71525 0.0
C1264 C 0.50101 0.16198 0.61497 0.0
C1265 C 0.47779 0.14316 0.68133 0.0
N1266 N 0.54592 0.1457 0.63346 0.0
N1267 N 0.43172 0.14809 0.65399 0.0
H1268 H 0.47984 0.13135 0.73708 0.0
H1269 H 0.44651 0.14012 0.72254 0.0
H1270 H 0.41837 0.15395 0.63292 0.0
H1271 H 0.42169 0.13886 0.67553 0.0
H1272 H 0.55479 0.14929 0.6078 0.0
H1273 H 0.55925 0.1361 0.65131 0.0
H1274 H 0.533 0.17879 0.58292 0.0
H1275 H 0.49924 0.18344 0.56591 0.0
C1276 C 0.59967 0.71418 0.42988 0.0
C1277 C 0.61989 0.73079 0.41535 0.0
C1278 C 0.61823 0.70921 0.3558 0.0
C1279 C 0.59819 0.69247 0.37043 0.0
N1280 N 0.5665 0.68055 0.41849 0.0
N1281 N 0.64578 0.74712 0.36414 0.0
C1282 C 0.5878 0.69553 0.40666 0.0
C1283 C 0.62829 0.72924 0.37803 0.0
N1284 N 0.59268 0.71591 0.46627 0.0
N1285 N 0.62805 0.70533 0.32096 0.0
H1286 H 0.65366 0.76167 0.38024 0.0
H1287 H 0.65123 0.74856 0.33647 0.0
H1288 H 0.62035 0.69113 0.30404 0.0
H1289 H 0.64445 0.71529 0.30924 0.0
H1290 H 0.58004 0.70308 0.47999 0.0
H1291 H 0.60069 0.72985 0.48339 0.0
H1292 H 0.55609 0.68295 0.44336 0.0
H1293 H 0.55801 0.66642 0.40214 0.0
C1294 C 0.03105 0.87064 0.10846 0.0
C1295 C 0.05438 0.85734 0.12226 0.0
C1296 C 0.03666 0.86196 0.18548 0.0
C1297 C 0.01277 0.87447 0.17141 0.0
N1298 N 0.98372 0.88463 0.119 0.0
N1299 N 0.07702 0.83586 0.17231 0.0
C1300 C 0.00892 0.87699 0.1327 0.0
C1301 C 0.05646 0.85166 0.1604 0.0
N1302 N 0.03065 0.87816 0.07243 0.0
N1303 N 0.04093 0.86074 0.22269 0.0
H1304 H 0.09151 0.82793 0.15436 0.0
H1305 H 0.0783 0.82893 0.19912 0.0
H1306 H 0.02667 0.86779 0.24172 0.0
H1307 H 0.05933 0.85427 0.23465 0.0
H1308 H 0.01562 0.89023 0.06157 0.0
H1309 H 0.04675 0.87411 0.05412 0.0
H1310 H 0.9788 0.8844 0.09103 0.0
H1311 H 0.96666 0.88866 0.13577 0.0
C1312 C 0.58331 0.80332 0.96009 0.0
C1313 C 0.59941 0.78138 0.9534 0.0
C1314 C 0.62504 0.80423 0.9049 0.0
C1315 C 0.60698 0.82501 0.90901 0.0
N1316 N 0.56583 0.84289 0.93605 0.0
N1317 N 0.63243 0.75969 0.91447 0.0
C1318 C 0.58528 0.82419 0.93548 0.0
C1319 C 0.61964 0.78153 0.92465 0.0
N1320 N 0.56679 0.80457 0.99068 0.0
N1321 N 0.64751 0.80636 0.88208 0.0
H1322 H 0.62836 0.74243 0.92692 0.0
H1323 H 0.64512 0.75817 0.89134 0.0
H1324 H 0.65154 0.82268 0.86702 0.0
H1325 H 0.66325 0.79294 0.88051 0.0
H1326 H 0.55669 0.8209 0.99898 0.0
H1327 H 0.56534 0.78998 1.00981 0.0
H1328 H 0.54773 0.84204 0.95181 0.0
H1329 H 0.56655 0.8583 0.91828 0.0
C1330 C 0.46085 0.33763 0.17505 0.0
C1331 C 0.45504 0.35626 0.20196 0.0
C1332 C 0.40887 0.36287 0.17324 0.0
C1333 C 0.41575 0.34578 0.14472 0.0
N1334 N 0.45132 0.32167 0.11387 0.0
N1335 N 0.42606 0.3912 0.2202 0.0
C1336 C 0.44275 0.33478 0.14408 0.0
C1337 C 0.42969 0.37014 0.19934 0.0
N1338 N 0.48276 0.32154 0.18002 0.0
N1339 N 0.38242 0.37223 0.17546 0.0
H1340 H 0.44128 0.39811 0.23798 0.0
H1341 H 0.40924 0.40337 0.21686 0.0
H1342 H 0.36714 0.36855 0.15569 0.0
H1343 H 0.37522 0.38234 0.19805 0.0
H1344 H 0.48625 0.30601 0.16328 0.0
H1345 H 0.49563 0.32192 0.20318 0.0
H1346 H 0.47171 0.31535 0.11048 0.0
H1347 H 0.43902 0.31944 0.09045 0.0
C1348 C 0.92043 0.21127 0.46703 0.0
C1349 C 0.89937 0.22932 0.45916 0.0
C1350 C 0.88487 0.20461 0.40517 0.0
C1351 C 0.90681 0.18747 0.41182 0.0
N1352 N 0.94899 0.17699 0.44413 0.0
N1353 N 0.86635 0.2463 0.41525 0.0
C1354 C 0.92565 0.19155 0.44137 0.0
C1355 C 0.88286 0.22684 0.42669 0.0
N1356 N 0.93469 0.21236 0.49962 0.0
N1357 N 0.86557 0.19929 0.37863 0.0
H1358 H 0.86528 0.26339 0.42906 0.0
H1359 H 0.85599 0.24654 0.39 0.0
H1360 H 0.86675 0.18324 0.36231 0.0
H1361 H 0.84732 0.20959 0.37492 0.0
H1362 H 0.94824 0.19834 0.50862 0.0
H1363 H 0.93127 0.2263 0.51919 0.0
H1364 H 0.96506 0.18046 0.46275 0.0
H1365 H 0.95342 0.1627 0.42546 0.0
C1366 C 0.06608 0.69714 0.64709 0.0
C1367 C 0.08343 0.68159 0.62498 0.0
C1368 C 0.06693 0.64493 0.66035 0.0
C1369 C 0.0463 0.65998 0.6777 0.0
N1370 N 0.02407 0.70048 0.6834 0.0
N1371 N 0.09787 0.63973 0.60814 0.0
C1372 C 0.04549 0.68616 0.67032 0.0
C1373 C 0.0835 0.65522 0.63127 0.0
N1374 N 0.0695 0.72259 0.64646 0.0
N1375 N 0.07097 0.62081 0.67209 0.0
H1376 H 0.10985 0.64625 0.5862 0.0
H1377 H 0.09601 0.62027 0.60877 0.0
H1378 H 0.05958 0.61289 0.69366 0.0
H1379 H 0.08742 0.60963 0.66312 0.0
H1380 H 0.05962 0.73464 0.66485 0.0
H1381 H 0.08435 0.73149 0.63019 0.0
H1382 H 0.02039 0.71885 0.67472 0.0
H1383 H 1.0085 0.69353 0.70051 0.0
C1384 C 0.61088 0.22082 0.57094 0.0
C1385 C 0.6009 0.2442 0.58437 0.0
C1386 C 0.60291 0.22753 0.64766 0.0
C1387 C 0.61057 0.20367 0.63407 0.0
N1388 N 0.61642 0.17611 0.58239 0.0
N1389 N 0.58113 0.26753 0.63524 0.0
C1390 C 0.61318 0.1999 0.59554 0.0
C1391 C 0.59492 0.24685 0.62262 0.0
N1392 N 0.61795 0.21849 0.53465 0.0
N1393 N 0.60437 0.23201 0.68466 0.0
H1394 H 0.57419 0.2819 0.61816 0.0
H1395 H 0.57387 0.26915 0.66218 0.0
H1396 H 0.61103 0.21846 0.70355 0.0
H1397 H 0.60186 0.24976 0.69613 0.0
H1398 H 0.62831 0.20291 0.52411 0.0
H1399 H 0.61482 0.23277 0.51535 0.0
H1400 H 0.61564 0.17164 0.55449 0.0
H1401 H 0.61732 0.16044 0.59965 0.0
C1402 C 0.07201 0.38366 0.86928 0.0
C1403 C 0.06329 0.36986 0.83771 0.0
C1404 C 0.09373 0.33513 0.85763 0.0
C1405 C 0.10531 0.35029 0.88623 0.0
N1406 N 0.10888 0.39142 0.91351 0.0
N1407 N 0.0706 0.33417 0.79819 0.0
C1408 C 0.09539 0.37525 0.89043 0.0
C1409 C 0.07552 0.34608 0.83085 0.0
N1410 N 0.05717 0.40418 0.88038 0.0
N1411 N 0.09872 0.3099 0.85697 0.0
H1412 H 0.05799 0.34172 0.7775 0.0
H1413 H 0.08131 0.31808 0.79015 0.0
H1414 H 0.11043 0.30065 0.87694 0.0
H1415 H 0.08857 0.2977 0.83902 0.0
H1416 H 0.061 0.41339 0.90517 0.0
H1417 H 0.03907 0.41026 0.86715 0.0
H1418 H 0.10419 0.41049 0.9148 0.0
H1419 H 0.1267 0.38645 0.92834 0.0
C1420 C 0.92406 0.78346 0.09312 0.0
C1421 C 0.89996 0.76807 0.09515 0.0
C1422 C 0.87791 0.79832 0.13688 0.0
C1423 C 0.90133 0.81429 0.13354 0.0
N1424 N 0.94417 0.82478 0.10299 0.0
N1425 N 0.85138 0.76394 0.11103 0.0
C1426 C 0.92369 0.80765 0.10995 0.0
C1427 C 0.87607 0.77649 0.11461 0.0
N1428 N 0.94764 0.77459 0.07659 0.0
N1429 N 0.85804 0.80337 0.16273 0.0
H1430 H 0.84904 0.7483 0.09407 0.0
H1431 H 0.83262 0.77053 0.12172 0.0
H1432 H 0.85918 0.81882 0.18023 0.0
H1433 H 0.84193 0.79105 0.1692 0.0
H1434 H 0.96679 0.78373 0.07779 0.0
H1435 H 0.94854 0.75715 0.06369 0.0
H1436 H 0.95979 0.82213 0.0835 0.0
H1437 H 0.94405 0.84269 0.11451 0.0
C1438 C 0.45348 0.69146 0.40263 0.0
C1439 C 0.42999 0.67545 0.40583 0.0
C1440 C 0.44248 0.6561 0.34638 0.0
C1441 C 0.46799 0.6698 0.34591 0.0
N1442 N 0.49997 0.69687 0.37871 0.0
N1443 N 0.40286 0.64116 0.38219 0.0
C1444 C 0.47398 0.68665 0.37527 0.0
C1445 C 0.42458 0.65746 0.37795 0.0
N1446 N 0.45604 0.71169 0.42547 0.0
N1447 N 0.43495 0.64241 0.3162 0.0
H1448 H 0.38907 0.64218 0.40434 0.0
H1449 H 0.39957 0.62576 0.36516 0.0
H1450 H 0.44728 0.6413 0.2926 0.0
H1451 H 0.41552 0.63398 0.31321 0.0
H1452 H 0.47106 0.72558 0.4218 0.0
H1453 H 0.44141 0.71602 0.4457 0.0
H1454 H 0.50638 0.70689 0.40182 0.0
H1455 H 0.51618 0.6931 0.3606 0.0
C1456 C 0.4237 0.1956 0.1154 0.0
C1457 C 0.4195 0.19635 0.154 0.0
C1458 C 0.39171 0.23477 0.14742 0.0
C1459 C 0.39657 0.23442 0.10891 0.0
N1460 N 0.42027 0.21738 0.0565 0.0
N1461 N 0.40361 0.21797 0.20789 0.0
C1462 C 0.41354 0.21563 0.09298 0.0
C1463 C 0.40474 0.21644 0.17035 0.0
N1464 N 0.4366 0.17525 0.10028 0.0
N1465 N 0.37375 0.2521 0.16166 0.0
H1466 H 0.41291 0.20462 0.22505 0.0
H1467 H 0.39535 0.23321 0.22204 0.0
H1468 H 0.36397 0.26566 0.14538 0.0
H1469 H 0.36709 0.2521 0.18894 0.0
H1470 H 0.43805 0.17211 0.07206 0.0
H1471 H 0.44453 0.16059 0.1163 0.0
H1472 H 0.43453 0.20566 0.04351 0.0
H1473 H 0.41295 0.2319 0.03971 0.0
C1474 C 0.4996 0.65758 0.8849 0.0
C1475 C 0.5111 0.6508 0.8501 0.0
C1476 C 0.55774 0.66185 0.87303 0.0
C1477 C 0.54573 0.66988 0.90659 0.0
N1478 N 0.50519 0.68194 0.94066 0.0
N1479 N 0.55039 0.6511 0.80871 0.0
C1480 C 0.51656 0.6701 0.91095 0.0
C1481 C 0.54002 0.65438 0.84339 0.0
N1482 N 0.47333 0.65016 0.8946 0.0
N1483 N 0.58605 0.66039 0.87017 0.0
H1484 H 0.5379 0.64593 0.78643 0.0
H1485 H 0.57077 0.65558 0.80139 0.0
H1486 H 0.59932 0.66619 0.8913 0.0
H1487 H 0.59622 0.65212 0.84798 0.0
H1488 H 0.4651 0.65277 0.92087 0.0
H1489 H 0.46085 0.63878 0.8782 0.0
H1490 H 0.48383 0.68478 0.94371 0.0
H1491 H 0.51743 0.69118 0.96017 0.0
C1492 C 0.07779 0.81839 0.63288 0.0
C1493 C 0.09535 0.83312 0.65568 0.0
C1494 C 0.13616 0.80882 0.6357 0.0
C1495 C 0.11891 0.79529 0.61113 0.0
N1496 N 0.0739 0.78625 0.5855 0.0
N1497 N 0.14051 0.84287 0.68006 0.0
C1498 C 0.08977 0.79965 0.60982 0.0
C1499 C 0.12438 0.82833 0.65759 0.0
N1500 N 0.04971 0.82271 0.63318 0.0
N1501 N 0.16378 0.80272 0.63788 0.0
H1502 H 0.13201 0.85655 0.69723 0.0
H1503 H 0.16212 0.84196 0.68144 0.0
H1504 H 0.17258 0.78858 0.6218 0.0
H1505 H 0.1778 0.81065 0.65633 0.0
H1506 H 0.03505 0.81193 0.6193 0.0
H1507 H 0.04069 0.83695 0.64869 0.0
H1508 H 0.0528 0.78926 0.58071 0.0
H1509 H 0.08219 0.77216 0.56892 0.0
C1510 C 0.95863 0.35045 0.36844 0.0
C1511 C 0.96767 0.33425 0.39701 0.0
C1512 C 1.00692 0.32054 0.35901 0.0
C1513 C 1.00069 0.33986 0.33316 0.0
N1514 N 0.97002 0.37262 0.3118 0.0
N1515 N 1.0015 0.30545 0.42167 0.0
C1516 C 0.97613 0.35449 0.33729 0.0
C1517 C 0.99184 0.31937 0.39263 0.0
N1518 N 0.93317 0.36173 0.37128 0.0
N1519 N 0.02737 0.30342 0.35189 0.0
H1520 H 0.99113 0.3044 0.44686 0.0
H1521 H 0.0209 0.29666 0.42195 0.0
H1522 H 0.03974 0.30379 0.32841 0.0
H1523 H 0.03006 0.28723 0.36759 0.0
H1524 H 0.92401 0.37225 0.3503 0.0
H1525 H 0.92018 0.35885 0.39395 0.0
H1526 H 0.95438 0.38596 0.31513 0.0
H1527 H 0.98137 0.37477 0.28747 0.0
C1528 C 0.39854 0.81291 0.36182 0.0
C1529 C 0.42181 0.82752 0.37256 0.0
C1530 C 0.42519 0.80368 0.43033 0.0
C1531 C 0.4001 0.79111 0.42141 0.0
N1532 N 0.36103 0.78519 0.38089 0.0
N1533 N 0.45548 0.83925 0.41852 0.0
C1534 C 0.38631 0.79602 0.3876 0.0
C1535 C 0.4348 0.82346 0.40718 0.0
N1536 N 0.38868 0.81485 0.3266 0.0
N1537 N 0.44009 0.7962 0.46053 0.0
H1538 H 0.46266 0.85409 0.40232 0.0
H1539 H 0.46397 0.83892 0.44495 0.0
H1540 H 0.43356 0.78156 0.47763 0.0
H1541 H 0.45991 0.80291 0.4668 0.0
H1542 H 0.37337 0.80315 0.31577 0.0
H1543 H 0.39761 0.82685 0.30716 0.0
H1544 H 0.34848 0.78983 0.35844 0.0
H1545 H 0.35163 0.77284 0.39944 0.0
C1546 C 0.01973 0.65024 0.12676 0.0
C1547 C 0.0156 0.64244 0.16397 0.0
C1548 C 0.96591 0.65301 0.15824 0.0
C1549 C 0.96964 0.65732 0.12003 0.0
N1550 N 0.99905 0.65719 0.06659 0.0
N1551 N 0.98422 0.63459 0.21462 0.0
C1552 C 0.99632 0.65535 0.10399 0.0
C1553 C 0.98856 0.64364 0.17982 0.0
N1554 N 0.04608 0.65355 0.11339 0.0
N1555 N 0.94062 0.6581 0.1737 0.0
H1556 H 1.00019 0.62741 0.2311 0.0
H1557 H 0.96455 0.6325 0.22627 0.0
H1558 H 0.92386 0.66487 0.15819 0.0
H1559 H 0.93693 0.65767 0.20196 0.0
H1560 H 0.05023 0.66187 0.08797 0.0
H1561 H 0.06393 0.65029 0.12901 0.0
H1562 H 0.0174 0.65292 0.05265 0.0
H1563 H 0.98229 0.66102 0.04912 0.0
C1564 C 0.10477 0.21708 0.92514 0.0
C1565 C 0.12106 0.23666 0.90996 0.0
C1566 C 0.11185 0.22109 0.84763 0.0
C1567 C 0.09793 0.20014 0.86302 0.0
N1568 N 0.08212 0.17679 0.91562 0.0
N1569 N 0.14213 0.25694 0.85782 0.0
C1570 C 0.09441 0.19786 0.90163 0.0
C1571 C 0.125 0.23867 0.87139 0.0
N1572 N 0.09929 0.2171 0.96206 0.0
N1573 N 0.112 0.22418 0.81024 0.0
H1574 H 0.15159 0.27027 0.87469 0.0
H1575 H 0.14822 0.25815 0.83035 0.0
H1576 H 0.10248 0.21144 0.79246 0.0
H1577 H 0.1196 0.24011 0.79698 0.0
H1578 H 0.08562 0.20468 0.97486 0.0
H1579 H 0.10719 0.2308 0.97969 0.0
H1580 H 0.08109 0.17259 0.94362 0.0
H1581 H 0.0742 0.16264 0.89882 0.0
C1582 C 0.56719 0.36319 0.65534 0.0
C1583 C 0.55608 0.35518 0.62115 0.0
C1584 C 0.50895 0.36372 0.64285 0.0
C1585 C 0.51956 0.37 0.67833 0.0
N1586 N 0.55863 0.37157 0.72018 0.0
N1587 N 0.51665 0.34099 0.5862 0.0
C1588 C 0.54871 0.36848 0.68518 0.0
C1589 C 0.52701 0.35315 0.61632 0.0
N1590 N 0.59525 0.36664 0.65873 0.0
N1591 N 0.48224 0.3697 0.63309 0.0
H1592 H 0.52955 0.33267 0.56658 0.0
H1593 H 0.49554 0.33688 0.58295 0.0
H1594 H 0.46849 0.37914 0.6503 0.0
H1595 H 0.47488 0.36807 0.60618 0.0
H1596 H 0.60454 0.37493 0.68161 0.0
H1597 H 0.60908 0.36273 0.63734 0.0
H1598 H 0.57933 0.36843 0.72753 0.0
H1599 H 0.54562 0.3752 0.74255 0.0
C1600 C 0.06205 0.50312 0.28839 0.0
C1601 C 0.08036 0.48355 0.27782 0.0
C1602 C 0.11254 0.51544 0.254 0.0
C1603 C 0.09144 0.53404 0.25688 0.0
N1604 N 0.04344 0.54366 0.27164 0.0
N1605 N 0.12226 0.47127 0.24576 0.0
C1606 C 0.06554 0.52755 0.27325 0.0
C1607 C 0.10568 0.48971 0.25977 0.0
N1608 N 0.04098 0.49812 0.31251 0.0
N1609 N 0.13918 0.52244 0.24593 0.0
H1610 H 0.1175 0.45228 0.24787 0.0
H1611 H 0.13944 0.47501 0.22909 0.0
H1612 H 0.1449 0.54124 0.24306 0.0
H1613 H 0.15589 0.50993 0.24627 0.0
H1614 H 0.02819 0.51205 0.32342 0.0
H1615 H 0.03851 0.48044 0.32455 0.0
H1616 H 0.0235 0.53869 0.28032 0.0
H1617 H 0.04406 0.56079 0.25783 0.0
C1618 C 0.77027 0.83754 0.53575 0.0
C1619 C 0.78824 0.81831 0.52279 0.0
C1620 C 0.75101 0.8033 0.48162 0.0
C1621 C 0.7334 0.82345 0.49276 0.0
N1622 N 0.72833 0.86237 0.52573 0.0
N1623 N 0.79799 0.78678 0.47722 0.0
C1624 C 0.74363 0.84132 0.51858 0.0
C1625 C 0.77926 0.80244 0.49381 0.0
N1626 N 0.7783 0.85169 0.56523 0.0
N1627 N 0.74044 0.78402 0.46113 0.0
H1628 H 0.81888 0.78577 0.48512 0.0
H1629 H 0.79357 0.77677 0.45331 0.0
H1630 H 0.71983 0.78321 0.45221 0.0
H1631 H 0.75136 0.7675 0.45603 0.0
H1632 H 0.76506 0.86403 0.57886 0.0
H1633 H 0.79786 0.84988 0.5776 0.0
H1634 H 0.73572 0.87733 0.54132 0.0
H1635 H 0.70907 0.86591 0.51338 0.0
C1636 C 0.4364 0.48528 0.78909 0.0
C1637 C 0.43382 0.48218 0.75031 0.0
C1638 C 0.43386 0.52815 0.74368 0.0
C1639 C 0.43292 0.5312 0.7826 0.0
N1640 N 0.42319 0.51108 0.84091 0.0
N1641 N 0.41979 0.50165 0.69303 0.0
C1642 C 0.43087 0.50923 0.80487 0.0
C1643 C 0.42912 0.50395 0.72837 0.0
N1644 N 0.44613 0.46627 0.81082 0.0
N1645 N 0.44143 0.54751 0.72117 0.0
H1646 H 0.41417 0.48435 0.68188 0.0
H1647 H 0.41441 0.51713 0.67684 0.0
H1648 H 0.44871 0.5646 0.73109 0.0
H1649 H 0.44416 0.54528 0.69286 0.0
H1650 H 0.45007 0.46857 0.83889 0.0
H1651 H 0.45377 0.44952 0.80021 0.0
H1652 H 0.41971 0.49536 0.85748 0.0
H1653 H 0.41694 0.52804 0.85256 0.0
C1654 C 0.78446 0.20732 0.03842 0.0
C1655 C 0.79047 0.19296 1.00645 0.0
C1656 C 0.74278 0.17555 1.00871 0.0
C1657 C 0.73578 0.19227 0.03778 0.0
N1658 N 0.74903 0.22806 0.07466 0.0
N1659 N 0.77455 0.16494 0.95895 0.0
C1660 C 0.75645 0.20907 0.05138 0.0
C1661 C 0.76933 0.17755 0.99093 0.0
N1662 N 0.80543 0.21961 0.0564 0.0
N1663 N 0.72449 0.15705 0.99901 0.0
H1664 H 0.79411 0.16478 0.94643 0.0
H1665 H 0.75916 0.15588 0.94373 0.0
H1666 H 0.70528 0.15459 1.01193 0.0
H1667 H 0.72936 0.14272 0.98067 0.0
H1668 H 0.80284 0.22791 0.08213 0.0
H1669 H 0.82603 0.21964 0.04743 0.0
H1670 H 0.76247 0.24254 0.08206 0.0
H1671 H 0.72867 0.23111 0.08349 0.0
C1672 C 0.96002 0.4995 0.77261 0.0
C1673 C 0.98465 0.48501 0.76925 0.0
C1674 C 0.01069 0.52323 0.75327 0.0
C1675 C 0.98719 0.53802 0.7626 0.0
N1676 N 0.93943 0.54072 0.78183 0.0
N1677 N 0.0337 0.4826 0.75695 0.0
C1678 C 0.96161 0.52625 0.77172 0.0
C1679 C 0.01 0.49671 0.75897 0.0
N1680 N 0.93519 0.4874 0.77711 0.0
N1681 N 0.03373 0.53488 0.73936 0.0
H1682 H 0.03362 0.46319 0.76065 0.0
H1683 H 0.05354 0.49013 0.75352 0.0
H1684 H 0.03438 0.55426 0.73514 0.0
H1685 H 0.05103 0.52536 0.72923 0.0
H1686 H 0.91594 0.49642 0.77695 0.0
H1687 H 0.93386 0.46785 0.77788 0.0
H1688 H 0.92103 0.53351 0.79271 0.0
H1689 H 0.94002 0.56026 0.78109 0.0
C1690 C 0.27674 0.17164 0.49572 0.0
C1691 C 0.2926 0.19043 0.51363 0.0
C1692 C 0.25043 0.21635 0.51951 0.0
C1693 C 0.23428 0.19664 0.5043 0.0
N1694 N 0.231 0.1538 0.4846 0.0
N1695 N 0.29382 0.22851 0.549 0.0
C1696 C 0.2472 0.17373 0.49446 0.0
C1697 C 0.27923 0.21223 0.52736 0.0
N1698 N 0.29012 0.15229 0.47863 0.0
N1699 N 0.23852 0.2393 0.52496 0.0
H1700 H 0.31472 0.22571 0.55579 0.0
H1701 H 0.28462 0.24347 0.56281 0.0
H1702 H 0.2176 0.2429 0.51921 0.0
H1703 H 0.24984 0.25518 0.53233 0.0
H1704 H 0.27998 0.1392 0.46213 0.0
H1705 H 0.3118 0.15078 0.47804 0.0
H1706 H 0.23885 0.13583 0.48026 0.0
H1707 H 0.20927 0.15475 0.48433 0.0
C1708 C 0.561 0.51678 0.27781 0.0
C1709 C 0.53819 0.53212 0.26726 0.0
C1710 C 0.51423 0.49493 0.24295 0.0
C1711 C 0.53467 0.4793 0.25944 0.0
N1712 N 0.57763 0.47487 0.29289 0.0
N1713 N 0.49276 0.53622 0.23999 0.0
C1714 C 0.55847 0.49012 0.27626 0.0
C1715 C 0.51493 0.52137 0.24907 0.0
N1716 N 0.58486 0.528 0.28989 0.0
N1717 N 0.49392 0.48415 0.22192 0.0
H1718 H 0.49287 0.55559 0.24392 0.0
H1719 H 0.47381 0.52933 0.23038 0.0
H1720 H 0.49327 0.46481 0.21741 0.0
H1721 H 0.47941 0.49431 0.20659 0.0
H1722 H 0.60324 0.51832 0.29554 0.0
H1723 H 0.58681 0.5475 0.29113 0.0
H1724 H 0.59392 0.48142 0.3092 0.0
H1725 H 0.57635 0.45536 0.29185 0.0
C1726 C 0.23875 0.79517 0.99014 0.0
C1727 C 0.22316 0.81402 1.0082 0.0
C1728 C 0.26611 0.83069 0.0355 0.0
C1729 C 0.28188 0.81437 1.013 0.0
N1730 N 0.28414 0.78104 0.96883 0.0
N1731 N 0.22104 0.84974 0.0482 0.0
C1732 C 0.26842 0.79621 0.99082 0.0
C1733 C 0.23655 0.83152 0.03157 0.0
N1734 N 0.22491 0.77644 0.97223 0.0
N1735 N 0.27978 0.84565 0.06006 0.0
H1736 H 0.19939 0.85053 0.04586 0.0
H1737 H 0.2295 0.86468 0.0628 0.0
H1738 H 0.30144 0.8452 0.06284 0.0
H1739 H 0.26985 0.85691 0.07937 0.0
H1740 H 0.23467 0.76089 0.96073 0.0
H1741 H 0.20318 0.77557 0.97148 0.0
H1742 H 0.27586 0.76917 0.9489 0.0
H1743 H 0.30588 0.78117 0.96952 0.0
C1744 C 0.56652 1.00245 0.79417 0.0
C1745 C 0.58191 0.98294 0.7772 0.0
C1746 C 0.60812 0.01504 0.74301 0.0
C1747 C 0.58869 0.03371 0.75397 0.0
N1748 N 0.54587 0.04344 0.78594 0.0
N1749 N 0.61581 0.97081 0.73158 0.0
C1750 C 0.56714 0.02711 0.77898 0.0
C1751 C 0.60265 0.98924 0.7509 0.0
N1752 N 0.55084 0.99713 0.82453 0.0
N1753 N 0.63195 0.02204 0.72531 0.0
H1754 H 0.6119 0.9518 0.73572 0.0
H1755 H 0.6289 0.9745 0.70933 0.0
H1756 H 0.63687 0.04084 0.72047 0.0
H1757 H 0.64798 1.00953 0.71922 0.0
H1758 H 0.5408 0.01091 0.83993 0.0
H1759 H 0.55055 0.97925 0.83639 0.0
H1760 H 0.52836 0.03852 0.80129 0.0
H1761 H 0.54405 0.06085 0.77308 0.0
C1762 C 0.26609 0.34901 0.04673 0.0
C1763 C 0.28668 0.33507 0.02747 0.0
C1764 C 0.25299 0.32802 0.97685 0.0
C1765 C 0.23169 0.34008 0.99762 0.0
N1766 N 0.21739 0.36093 0.05333 0.0
N1767 N 0.29906 0.30906 0.97571 0.0
C1768 C 0.23813 0.35023 0.03288 0.0
C1769 C 0.28006 0.32429 0.99267 0.0
N1770 N 0.27364 0.36194 0.07768 0.0
N1771 N 0.24729 0.31967 0.94203 0.0
H1772 H 0.31918 0.30615 0.98561 0.0
H1773 H 0.29448 0.29785 0.95307 0.0
H1774 H 0.22733 0.31947 0.93068 0.0
H1775 H 0.26255 0.31408 0.92343 0.0
H1776 H 0.26069 0.37454 0.09123 0.0
H1777 H 0.29391 0.36173 0.08817 0.0
H1778 H 0.21957 0.36577 0.08095 0.0
H1779 H 0.1973 0.36392 0.0432 0.0
C1780 C 0.95979 0.01466 0.29135 0.0
C1781 C 0.94277 0.0341 0.27683 0.0
C1782 C 0.91382 1.00205 0.24703 0.0
C1783 C 0.93419 0.98346 0.25502 0.0
N1784 N 0.97931 0.97348 0.28092 0.0
N1785 N 0.90489 0.04624 0.23675 0.0
C1786 C 0.95776 0.98998 0.27669 0.0
C1787 C 0.91981 0.0278 0.25397 0.0
N1788 N 0.97813 0.02001 0.31899 0.0
N1789 N 0.88868 0.99495 0.23289 0.0
H1790 H 0.90917 0.06525 0.23999 0.0
H1791 H 0.88984 0.04256 0.21674 0.0
H1792 H 0.88357 0.97615 0.2287 0.0
H1793 H 0.8721 1.00736 0.22923 0.0
H1794 H 0.98959 1.00628 0.33285 0.0
H1795 H 0.97948 0.03788 0.33055 0.0
H1796 H 0.99811 0.9783 0.29344 0.0
H1797 H 0.97969 0.95586 0.26865 0.0
C1798 C 0.27192 0.72913 0.5076 0.0
C1799 C 0.28506 0.70592 0.4992 0.0
C1800 C 0.24402 0.68362 0.52417 0.0
C1801 C 0.23 0.7069 0.5291 0.0
N1802 N 0.22854 0.7514 0.51664 0.0
N1803 N 0.2819 0.66092 0.49469 0.0
C1804 C 0.24339 0.72952 0.51829 0.0
C1805 C 0.27065 0.68308 0.50626 0.0
N1806 N 0.287 0.75088 0.50711 0.0
N1807 N 0.23236 0.66211 0.53771 0.0
H1808 H 0.30118 0.65982 0.48155 0.0
H1809 H 0.27121 0.64393 0.49538 0.0
H1810 H 0.21298 0.66181 0.55069 0.0
H1811 H 0.24276 0.64497 0.53866 0.0
H1812 H 0.27927 0.76789 0.51684 0.0
H1813 H 0.30817 0.7515 0.50085 0.0
H1814 H 0.23643 0.76789 0.50522 0.0
H1815 H 0.20736 0.75248 0.52285 0.0
C1816 C 0.46214 0.0221 0.25233 0.0
C1817 C 0.48747 0.03499 0.24557 0.0
C1818 C 0.51392 0.99653 0.25972 0.0
C1819 C 0.48858 0.98341 0.26535 0.0
N1820 N 0.43866 0.98239 0.26499 0.0
N1821 N 0.53718 0.03464 0.23889 0.0
C1822 C 0.46266 0.99589 0.26097 0.0
C1823 C 0.51332 0.02219 0.24822 0.0
N1824 N 0.43769 0.03523 0.25082 0.0
N1825 N 0.53852 0.98442 0.26641 0.0
H1826 H 0.53724 0.05359 0.23161 0.0
H1827 H 0.5566 0.02611 0.23659 0.0
H1828 H 0.53939 0.96545 0.27355 0.0
H1829 H 0.55788 0.99319 0.26658 0.0
H1830 H 0.41832 0.02786 0.25766 0.0
H1831 H 0.43699 0.05429 0.24421 0.0
H1832 H 0.41878 0.98945 0.26007 0.0
H1833 H 0.43875 0.96333 0.27165 0.0
C1834 C 0.76697 0.71649 0.02433 0.0
C1835 C 0.78105 0.69366 0.03197 0.0
C1836 C 0.73667 0.671 0.02899 0.0
C1837 C 0.72298 0.69334 0.01795 0.0
N1838 N 0.72576 0.73651 0.9987 0.0
N1839 N 0.78049 0.64862 0.0347 0.0
C1840 C 0.73831 0.71593 1.01389 0.0
C1841 C 0.76618 0.67072 0.0323 0.0
N1842 N 0.78073 0.73871 0.02844 0.0
N1843 N 0.72124 0.65025 0.03744 0.0
H1844 H 0.8022 0.64792 0.036 0.0
H1845 H 0.77114 0.63111 0.03174 0.0
H1846 H 0.69951 0.65022 0.0363 0.0
H1847 H 0.7297 0.63401 0.04892 0.0
H1848 H 0.7709 0.75612 0.02691 0.0
H1849 H 0.80159 0.73966 0.0364 0.0
H1850 H 0.73653 0.75279 0.99164 0.0
H1851 H 0.70498 0.73651 0.99026 0.0
C1852 C 0.05622 0.0291 0.75386 0.0
C1853 C 0.03156 0.04084 0.7666 0.0
C1854 C 1.0087 0.99971 0.77203 0.0
C1855 C 0.03376 0.9879 0.76085 0.0
N1856 N 0.07906 0.99069 0.73363 0.0
N1857 N 0.98284 0.03867 0.78028 0.0
C1858 C 0.05672 1.00253 0.74902 0.0
C1859 C 1.00721 0.02646 0.7729 0.0
N1860 N 0.07954 0.0433 0.74857 0.0
N1861 N 0.98703 0.98522 0.78389 0.0
H1862 H 0.98167 0.05822 0.78118 0.0
H1863 H 0.96363 0.02978 0.78267 0.0
H1864 H 0.9876 0.96567 0.78296 0.0
H1865 H 0.96908 0.99234 0.79605 0.0
H1866 H 0.09915 0.0359 0.74301 0.0
H1867 H 0.07941 0.06278 0.75136 0.0
H1868 H 0.09589 1.00002 0.72184 0.0
H1869 H 0.0796 0.97125 0.73015 0.0
C1870 C 0.75155 0.34255 0.51468 0.0
C1871 C 0.73599 0.32099 0.52465 0.0
C1872 C 0.7784 0.29527 0.52001 0.0
C1873 C 0.79425 0.31719 0.51286 0.0
N1874 N 0.79711 0.36208 0.50969 0.0
N1875 N 0.73515 0.27766 0.54325 0.0
C1876 C 0.78109 0.34098 0.51213 0.0
C1877 C 0.74958 0.29752 0.52909 0.0
N1878 N 0.73784 0.36431 0.50633 0.0
N1879 N 0.79068 0.27229 0.51665 0.0
H1880 H 0.71418 0.27887 0.55052 0.0
H1881 H 0.74447 0.2607 0.5506 0.0
H1882 H 0.81168 0.27013 0.51003 0.0
H1883 H 0.77966 0.25547 0.51767 0.0
H1884 H 0.74764 0.38014 0.49557 0.0
H1885 H 0.71616 0.36573 0.50695 0.0
H1886 H 0.78919 0.38018 0.51235 0.0
H1887 H 0.81882 0.36133 0.50841 0.0
loop_
_geom_bond_atom_site_label_1
_geom_bond_atom_site_label_2
_geom_bond_distance
_geom_bond_site_symmetry_2
_ccdc_geom_bond_type
Cu0 N1 1.999 . S
Cu0 O6 1.974 . S
Cu0 N11 1.985 . S
Cu0 O20 1.959 . S
N1 Cu0 1.999 . S
N1 C3 1.263 . S
N1 C5 1.389 . S
N2 C3 1.358 . S
N2 C4 1.400 . S
C3 N1 1.263 . S
C3 N2 1.358 . S
C3 H9 0.930 . S
C4 N2 1.400 . S
C4 C5 1.351 . S
C4 H21 0.930 . S
C5 N1 1.389 . S
C5 C4 1.351 . S
C5 H10 0.930 . S
O6 Cu0 1.974 . S
O6 C16 1.282 . S
C7 O8 1.261 . S
C7 O20 1.251 . S
O8 C7 1.261 . S
H9 C3 0.930 . S
H10 C5 0.930 . S
N11 Cu0 1.985 . S
N11 C13 1.335 . S
N11 C14 1.390 . S
N12 C13 1.345 . S
N12 C15 1.336 . S
C13 N11 1.335 . S
C13 N12 1.345 . S
C13 H18 0.930 . S
C14 N11 1.390 . S
C14 C15 1.346 . S
C14 H19 0.930 . S
C15 N12 1.336 . S
C15 C14 1.346 . S
C15 H22 0.929 . S
C16 O6 1.282 . S
C16 O17 1.216 . S
O17 C16 1.216 . S
H18 C13 0.930 . S
H19 C14 0.930 . S
O20 Cu0 1.959 . S
O20 C7 1.251 . S
H21 C4 0.930 . S
H22 C15 0.929 . S
Cu23 N24 1.999 . S
Cu23 O29 1.974 . S
Cu23 N34 1.985 . S
Cu23 O43 1.959 . S
N24 Cu23 1.999 . S
N24 C26 1.263 . S
N24 C28 1.389 . S
N25 C26 1.358 . S
N25 C27 1.400 . S
C26 N24 1.263 . S
C26 N25 1.358 . S
C26 H32 0.930 . S
C27 N25 1.400 . S
C27 C28 1.351 . S
C27 H44 0.930 . S
C28 N24 1.389 . S
C28 C27 1.351 . S
C28 H33 0.930 . S
O29 Cu23 1.974 . S
O29 C39 1.282 . S
C30 O31 1.261 . S
C30 O43 1.251 . S
O31 C30 1.261 . S
H32 C26 0.930 . S
H33 C28 0.930 . S
N34 Cu23 1.985 . S
N34 C36 1.335 . S
N34 C37 1.390 . S
N35 C36 1.345 . S
N35 C38 1.336 . S
C36 N34 1.335 . S
C36 N35 1.345 . S
C36 H41 0.930 . S
C37 N34 1.390 . S
C37 C38 1.346 . S
C37 H42 0.930 . S
C38 N35 1.336 . S
C38 C37 1.346 . S
C38 H45 0.929 . S
C39 O29 1.282 . S
C39 O40 1.216 . S
O40 C39 1.216 . S
H41 C36 0.930 . S
H42 C37 0.930 . S
O43 Cu23 1.959 . S
O43 C30 1.251 . S
H44 C27 0.930 . S
H45 C38 0.929 . S
Cu46 N47 1.999 . S
Cu46 O52 1.974 . S
Cu46 N57 1.985 . S
Cu46 O66 1.959 . S
N47 Cu46 1.999 . S
N47 C49 1.263 . S
N47 C51 1.389 . S
N48 C49 1.358 . S
N48 C50 1.400 . S
C49 N47 1.263 . S
C49 N48 1.358 . S
C49 H55 0.930 . S
C50 N48 1.400 . S
C50 C51 1.351 . S
C50 H67 0.930 . S
C51 N47 1.389 . S
C51 C50 1.351 . S
C51 H56 0.930 . S
O52 Cu46 1.974 . S
O52 C62 1.282 . S
C53 O54 1.261 . S
C53 O66 1.251 . S
O54 C53 1.261 . S
H55 C49 0.930 . S
H56 C51 0.930 . S
N57 Cu46 1.985 . S
N57 C59 1.335 . S
N57 C60 1.390 . S
N58 C59 1.345 . S
N58 C61 1.336 . S
C59 N57 1.335 . S
C59 N58 1.345 . S
C59 H64 0.930 . S
C60 N57 1.390 . S
C60 C61 1.346 . S
C60 H65 0.930 . S
C61 N58 1.336 . S
C61 C60 1.346 . S
C61 H68 0.929 . S
C62 O52 1.282 . S
C62 O63 1.216 . S
O63 C62 1.216 . S
H64 C59 0.930 . S
H65 C60 0.930 . S
O66 Cu46 1.959 . S
O66 C53 1.251 . S
H67 C50 0.930 . S
H68 C61 0.929 . S
Cu69 N70 1.999 1_554 S
Cu69 O75 1.974 . S
Cu69 N80 1.985 . S
Cu69 O89 1.959 . S
N70 Cu69 1.999 1_556 S
N70 C72 1.263 . S
N70 C74 1.389 . S
N71 C72 1.358 . S
N71 C73 1.400 . S
C72 N70 1.263 . S
C72 N71 1.358 . S
C72 H78 0.930 . S
C73 N71 1.400 . S
C73 C74 1.351 . S
C73 H90 0.930 . S
C74 N70 1.389 . S
C74 C73 1.351 . S
C74 H79 0.930 . S
O75 Cu69 1.974 . S
O75 C85 1.282 . S
C76 O77 1.261 . S
C76 O89 1.251 . S
O77 C76 1.261 . S
H78 C72 0.930 . S
H79 C74 0.930 . S
N80 Cu69 1.985 . S
N80 C82 1.335 . S
N80 C83 1.390 . S
N81 C82 1.345 . S
N81 C84 1.336 . S
C82 N80 1.335 . S
C82 N81 1.345 . S
C82 H87 0.930 . S
C83 N80 1.390 . S
C83 C84 1.346 . S
C83 H88 0.930 . S
C84 N81 1.336 . S
C84 C83 1.346 . S
C84 H91 0.929 . S
C85 O75 1.282 . S
C85 O86 1.216 . S
O86 C85 1.216 . S
H87 C82 0.930 . S
H88 C83 0.930 . S
O89 Cu69 1.959 . S
O89 C76 1.251 . S
H90 C73 0.930 . S
H91 C84 0.929 . S
Cu92 N93 1.999 . S
Cu92 O98 1.974 . S
Cu92 N103 1.985 . S
Cu92 O112 1.959 . S
N93 Cu92 1.999 . S
N93 C95 1.263 . S
N93 C97 1.389 . S
N94 C95 1.358 . S
N94 C96 1.400 . S
C95 N93 1.263 . S
C95 N94 1.358 . S
C95 H101 0.930 . S
C96 N94 1.400 . S
C96 C97 1.351 . S
C96 H113 0.930 . S
C97 N93 1.389 . S
C97 C96 1.351 . S
C97 H102 0.930 . S
O98 Cu92 1.974 . S
O98 C108 1.282 . S
C99 O100 1.261 . S
C99 O112 1.251 . S
O100 C99 1.261 . S
H101 C95 0.930 . S
H102 C97 0.930 . S
N103 Cu92 1.985 . S
N103 C105 1.335 . S
N103 C106 1.390 . S
N104 C105 1.345 . S
N104 C107 1.336 . S
C105 N103 1.335 . S
C105 N104 1.345 . S
C105 H110 0.930 . S
C106 N103 1.390 . S
C106 C107 1.346 . S
C106 H111 0.930 . S
C107 N104 1.336 . S
C107 C106 1.346 . S
C107 H114 0.929 . S
C108 O98 1.282 . S
C108 O109 1.216 . S
O109 C108 1.216 . S
H110 C105 0.930 . S
H111 C106 0.930 . S
O112 Cu92 1.959 . S
O112 C99 1.251 . S
H113 C96 0.930 . S
H114 C107 0.929 . S
Cu115 N116 1.999 . S
Cu115 O121 1.974 . S
Cu115 N126 1.985 . S
Cu115 O135 1.959 . S
N116 Cu115 1.999 . S
N116 C118 1.263 . S
N116 C120 1.389 . S
N117 C118 1.358 . S
N117 C119 1.400 . S
C118 N116 1.263 . S
C118 N117 1.358 . S
C118 H124 0.930 . S
C119 N117 1.400 . S
C119 C120 1.351 . S
C119 H136 0.930 . S
C120 N116 1.389 . S
C120 C119 1.351 . S
C120 H125 0.930 . S
O121 Cu115 1.974 . S
O121 C131 1.282 . S
C122 O123 1.261 . S
C122 O135 1.251 . S
O123 C122 1.261 . S
H124 C118 0.930 . S
H125 C120 0.930 . S
N126 Cu115 1.985 . S
N126 C128 1.335 . S
N126 C129 1.390 . S
N127 C128 1.345 . S
N127 C130 1.336 . S
C128 N126 1.335 . S
C128 N127 1.345 . S
C128 H133 0.930 . S
C129 N126 1.390 . S
C129 C130 1.346 . S
C129 H134 0.930 . S
C130 N127 1.336 . S
C130 C129 1.346 . S
C130 H137 0.929 . S
C131 O121 1.282 . S
C131 O132 1.216 . S
O132 C131 1.216 . S
H133 C128 0.930 . S
H134 C129 0.930 . S
O135 Cu115 1.959 . S
O135 C122 1.251 . S
H136 C119 0.930 . S
H137 C130 0.929 . S
Cu138 N139 1.999 . S
Cu138 O144 1.974 . S
Cu138 N149 1.985 . S
Cu138 O158 1.959 . S
N139 Cu138 1.999 . S
N139 C141 1.263 . S
N139 C143 1.389 . S
N140 C141 1.358 . S
N140 C142 1.400 . S
C141 N139 1.263 . S
C141 N140 1.358 . S
C141 H147 0.930 . S
C142 N140 1.400 . S
C142 C143 1.351 . S
C142 H159 0.930 . S
C143 N139 1.389 . S
C143 C142 1.351 . S
C143 H148 0.930 . S
O144 Cu138 1.974 . S
O144 C154 1.282 . S
C145 O146 1.261 . S
C145 O158 1.251 . S
O146 C145 1.261 . S
H147 C141 0.930 . S
H148 C143 0.930 . S
N149 Cu138 1.985 . S
N149 C151 1.335 . S
N149 C152 1.390 . S
N150 C151 1.345 . S
N150 C153 1.336 . S
C151 N149 1.335 . S
C151 N150 1.345 . S
C151 H156 0.930 . S
C152 N149 1.390 . S
C152 C153 1.346 . S
C152 H157 0.930 . S
C153 N150 1.336 . S
C153 C152 1.346 . S
C153 H160 0.929 . S
C154 O144 1.282 . S
C154 O155 1.216 . S
O155 C154 1.216 . S
H156 C151 0.930 . S
H157 C152 0.930 . S
O158 Cu138 1.959 . S
O158 C145 1.251 . S
H159 C142 0.930 . S
H160 C153 0.929 . S
Cu161 N162 1.999 1_556 S
Cu161 O167 1.974 . S
Cu161 N172 1.985 . S
Cu161 O181 1.959 . S
N162 Cu161 1.999 1_554 S
N162 C164 1.263 . S
N162 C166 1.389 . S
N163 C164 1.358 . S
N163 C165 1.400 . S
C164 N162 1.263 . S
C164 N163 1.358 . S
C164 H170 0.930 . S
C165 N163 1.400 . S
C165 C166 1.351 . S
C165 H182 0.930 . S
C166 N162 1.389 . S
C166 C165 1.351 . S
C166 H171 0.930 . S
O167 Cu161 1.974 . S
O167 C177 1.282 . S
C168 O169 1.261 . S
C168 O181 1.251 . S
O169 C168 1.261 . S
H170 C164 0.930 . S
H171 C166 0.930 . S
N172 Cu161 1.985 . S
N172 C174 1.335 . S
N172 C175 1.390 . S
N173 C174 1.345 . S
N173 C176 1.336 . S
C174 N172 1.335 . S
C174 N173 1.345 . S
C174 H179 0.930 . S
C175 N172 1.390 . S
C175 C176 1.346 . S
C175 H180 0.930 . S
C176 N173 1.336 . S
C176 C175 1.346 . S
C176 H183 0.929 . S
C177 O167 1.282 . S
C177 O178 1.216 . S
O178 C177 1.216 . S
H179 C174 0.930 . S
H180 C175 0.930 . S
O181 Cu161 1.959 . S
O181 C168 1.251 . S
H182 C165 0.930 . S
H183 C176 0.929 . S
Cu184 N185 1.999 . S
Cu184 O190 1.974 . S
Cu184 N195 1.985 . S
Cu184 O204 1.959 . S
N185 Cu184 1.999 . S
N185 C187 1.263 . S
N185 C189 1.389 . S
N186 C187 1.358 . S
N186 C188 1.400 . S
C187 N185 1.263 . S
C187 N186 1.358 . S
C187 H193 0.930 . S
C188 N186 1.400 . S
C188 C189 1.351 . S
C188 H205 0.930 . S
C189 N185 1.389 . S
C189 C188 1.351 . S
C189 H194 0.930 . S
O190 Cu184 1.974 . S
O190 C200 1.282 . S
C191 O192 1.261 . S
C191 O204 1.251 . S
O192 C191 1.261 . S
H193 C187 0.930 . S
H194 C189 0.930 . S
N195 Cu184 1.985 . S
N195 C197 1.335 . S
N195 C198 1.390 . S
N196 C197 1.345 . S
N196 C199 1.336 . S
C197 N195 1.335 . S
C197 N196 1.345 . S
C197 H202 0.930 . S
C198 N195 1.390 . S
C198 C199 1.346 . S
C198 H203 0.930 . S
C199 N196 1.336 . S
C199 C198 1.346 . S
C199 H206 0.929 . S
C200 O190 1.282 . S
C200 O201 1.216 . S
O201 C200 1.216 . S
H202 C197 0.930 . S
H203 C198 0.930 . S
O204 Cu184 1.959 . S
O204 C191 1.251 . S
H205 C188 0.930 . S
H206 C199 0.929 . S
Cu207 N208 1.999 . S
Cu207 O213 1.974 . S
Cu207 N218 1.985 . S
Cu207 O227 1.959 . S
N208 Cu207 1.999 . S
N208 C210 1.263 . S
N208 C212 1.389 . S
N209 C210 1.358 . S
N209 C211 1.400 . S
C210 N208 1.263 . S
C210 N209 1.358 . S
C210 H216 0.930 . S
C211 N209 1.400 . S
C211 C212 1.351 . S
C211 H228 0.930 . S
C212 N208 1.389 . S
C212 C211 1.351 . S
C212 H217 0.930 . S
O213 Cu207 1.974 . S
O213 C223 1.282 . S
C214 O215 1.261 . S
C214 O227 1.251 . S
O215 C214 1.261 . S
H216 C210 0.930 . S
H217 C212 0.930 . S
N218 Cu207 1.985 . S
N218 C220 1.335 . S
N218 C221 1.390 . S
N219 C220 1.345 . S
N219 C222 1.336 . S
C220 N218 1.335 . S
C220 N219 1.345 . S
C220 H225 0.930 . S
C221 N218 1.390 . S
C221 C222 1.346 . S
C221 H226 0.930 . S
C222 N219 1.336 . S
C222 C221 1.346 . S
C222 H229 0.929 . S
C223 O213 1.282 . S
C223 O224 1.216 . S
O224 C223 1.216 . S
H225 C220 0.930 . S
H226 C221 0.930 . S
O227 Cu207 1.959 . S
O227 C214 1.251 . S
H228 C211 0.930 . S
H229 C222 0.929 . S
Cu230 N231 1.999 . S
Cu230 O236 1.974 . S
Cu230 N241 1.985 . S
Cu230 O250 1.959 . S
N231 Cu230 1.999 . S
N231 C233 1.263 . S
N231 C235 1.389 . S
N232 C233 1.358 . S
N232 C234 1.400 . S
C233 N231 1.263 . S
C233 N232 1.358 . S
C233 H239 0.930 . S
C234 N232 1.400 . S
C234 C235 1.351 . S
C234 H251 0.930 . S
C235 N231 1.389 . S
C235 C234 1.351 . S
C235 H240 0.930 . S
O236 Cu230 1.974 . S
O236 C246 1.282 . S
C237 O238 1.261 . S
C237 O250 1.251 . S
O238 C237 1.261 . S
H239 C233 0.930 . S
H240 C235 0.930 . S
N241 Cu230 1.985 . S
N241 C243 1.335 . S
N241 C244 1.390 . S
N242 C243 1.345 . S
N242 C245 1.336 . S
C243 N241 1.335 . S
C243 N242 1.345 . S
C243 H248 0.930 . S
C244 N241 1.390 . S
C244 C245 1.346 . S
C244 H249 0.930 . S
C245 N242 1.336 . S
C245 C244 1.346 . S
C245 H252 0.929 . S
C246 O236 1.282 . S
C246 O247 1.216 . S
O247 C246 1.216 . S
H248 C243 0.930 . S
H249 C244 0.930 . S
O250 Cu230 1.959 . S
O250 C237 1.251 . S
H251 C234 0.930 . S
H252 C245 0.929 . S
Cu253 N254 1.999 . S
Cu253 O259 1.974 . S
Cu253 N264 1.985 . S
Cu253 O273 1.959 . S
N254 Cu253 1.999 . S
N254 C256 1.263 . S
N254 C258 1.389 . S
N255 C256 1.358 . S
N255 C257 1.400 . S
C256 N254 1.263 . S
C256 N255 1.358 . S
C256 H262 0.930 . S
C257 N255 1.400 . S
C257 C258 1.351 . S
C257 H274 0.930 . S
C258 N254 1.389 . S
C258 C257 1.351 . S
C258 H263 0.930 . S
O259 Cu253 1.974 . S
O259 C269 1.282 . S
C260 O261 1.261 . S
C260 O273 1.251 1_554 S
O261 C260 1.261 . S
H262 C256 0.930 . S
H263 C258 0.930 . S
N264 Cu253 1.985 . S
N264 C266 1.335 . S
N264 C267 1.390 . S
N265 C266 1.345 1_554 S
N265 C268 1.336 1_554 S
C266 N264 1.335 . S
C266 N265 1.345 1_556 S
C266 H271 0.930 1_556 S
C267 N264 1.390 . S
C267 C268 1.346 . S
C267 H272 0.930 . S
C268 N265 1.336 1_556 S
C268 C267 1.346 . S
C268 H275 0.929 . S
C269 O259 1.282 . S
C269 O270 1.216 . S
O270 C269 1.216 . S
H271 C266 0.930 1_554 S
H272 C267 0.930 . S
O273 Cu253 1.959 . S
O273 C260 1.251 1_556 S
H274 C257 0.930 . S
H275 C268 0.929 . S
Cu276 N277 1.999 . S
Cu276 O282 1.974 . S
Cu276 N287 1.985 . S
Cu276 O296 1.959 . S
N277 Cu276 1.999 . S
N277 C279 1.263 . S
N277 C281 1.389 . S
N278 C279 1.358 . S
N278 C280 1.400 . S
C279 N277 1.263 . S
C279 N278 1.358 . S
C279 H285 0.930 . S
C280 N278 1.400 . S
C280 C281 1.351 . S
C280 H297 0.930 . S
C281 N277 1.389 . S
C281 C280 1.351 . S
C281 H286 0.930 . S
O282 Cu276 1.974 . S
O282 C292 1.282 . S
C283 O284 1.261 . S
C283 O296 1.251 . S
O284 C283 1.261 . S
H285 C279 0.930 . S
H286 C281 0.930 . S
N287 Cu276 1.985 . S
N287 C289 1.335 . S
N287 C290 1.390 . S
N288 C289 1.345 . S
N288 C291 1.336 . S
C289 N287 1.335 . S
C289 N288 1.345 . S
C289 H294 0.930 . S
C290 N287 1.390 . S
C290 C291 1.346 . S
C290 H295 0.930 . S
C291 N288 1.336 . S
C291 C290 1.346 . S
C291 H298 0.929 . S
C292 O282 1.282 . S
C292 O293 1.216 . S
O293 C292 1.216 . S
H294 C289 0.930 . S
H295 C290 0.930 . S
O296 Cu276 1.959 . S
O296 C283 1.251 . S
H297 C280 0.930 . S
H298 C291 0.929 . S
Cu299 N300 1.999 . S
Cu299 O305 1.974 . S
Cu299 N310 1.985 . S
Cu299 O319 1.959 . S
N300 Cu299 1.999 . S
N300 C302 1.263 . S
N300 C304 1.389 . S
N301 C302 1.358 . S
N301 C303 1.400 . S
C302 N300 1.263 . S
C302 N301 1.358 . S
C302 H308 0.930 . S
C303 N301 1.400 . S
C303 C304 1.351 . S
C303 H320 0.930 . S
C304 N300 1.389 . S
C304 C303 1.351 . S
C304 H309 0.930 . S
O305 Cu299 1.974 . S
O305 C315 1.282 . S
C306 O307 1.261 . S
C306 O319 1.251 . S
O307 C306 1.261 . S
H308 C302 0.930 . S
H309 C304 0.930 . S
N310 Cu299 1.985 . S
N310 C312 1.335 . S
N310 C313 1.390 . S
N311 C312 1.345 . S
N311 C314 1.336 . S
C312 N310 1.335 . S
C312 N311 1.345 . S
C312 H317 0.930 . S
C313 N310 1.390 . S
C313 C314 1.346 . S
C313 H318 0.930 . S
C314 N311 1.336 . S
C314 C313 1.346 . S
C314 H321 0.929 . S
C315 O305 1.282 . S
C315 O316 1.216 . S
O316 C315 1.216 . S
H317 C312 0.930 . S
H318 C313 0.930 . S
O319 Cu299 1.959 . S
O319 C306 1.251 . S
H320 C303 0.930 . S
H321 C314 0.929 . S
Cu322 N323 1.999 . S
Cu322 O328 1.974 . S
Cu322 N333 1.985 . S
Cu322 O342 1.959 . S
N323 Cu322 1.999 . S
N323 C325 1.263 . S
N323 C327 1.389 . S
N324 C325 1.358 . S
N324 C326 1.400 . S
C325 N323 1.263 . S
C325 N324 1.358 . S
C325 H331 0.930 . S
C326 N324 1.400 . S
C326 C327 1.351 . S
C326 H343 0.930 . S
C327 N323 1.389 . S
C327 C326 1.351 . S
C327 H332 0.930 . S
O328 Cu322 1.974 . S
O328 C338 1.282 . S
C329 O330 1.261 . S
C329 O342 1.251 . S
O330 C329 1.261 . S
H331 C325 0.930 . S
H332 C327 0.930 . S
N333 Cu322 1.985 . S
N333 C335 1.335 . S
N333 C336 1.390 . S
N334 C335 1.345 . S
N334 C337 1.336 . S
C335 N333 1.335 . S
C335 N334 1.345 . S
C335 H340 0.930 . S
C336 N333 1.390 . S
C336 C337 1.346 . S
C336 H341 0.930 . S
C337 N334 1.336 . S
C337 C336 1.346 . S
C337 H344 0.929 . S
C338 O328 1.282 . S
C338 O339 1.216 . S
O339 C338 1.216 . S
H340 C335 0.930 . S
H341 C336 0.930 . S
O342 Cu322 1.959 . S
O342 C329 1.251 . S
H343 C326 0.930 . S
H344 C337 0.929 . S
Cu345 N346 1.999 . S
Cu345 O351 1.974 . S
Cu345 N356 1.985 . S
Cu345 O365 1.959 . S
N346 Cu345 1.999 . S
N346 C348 1.263 . S
N346 C350 1.389 . S
N347 C348 1.358 . S
N347 C349 1.400 . S
C348 N346 1.263 . S
C348 N347 1.358 . S
C348 H354 0.930 . S
C349 N347 1.400 . S
C349 C350 1.351 . S
C349 H366 0.930 . S
C350 N346 1.389 . S
C350 C349 1.351 . S
C350 H355 0.930 . S
O351 Cu345 1.974 . S
O351 C361 1.282 . S
C352 O353 1.261 . S
C352 O365 1.251 1_556 S
O353 C352 1.261 . S
H354 C348 0.930 . S
H355 C350 0.930 . S
N356 Cu345 1.985 . S
N356 C358 1.335 . S
N356 C359 1.390 . S
N357 C358 1.345 1_556 S
N357 C360 1.336 1_556 S
C358 N356 1.335 . S
C358 N357 1.345 1_554 S
C358 H363 0.930 1_554 S
C359 N356 1.390 . S
C359 C360 1.346 . S
C359 H364 0.930 . S
C360 N357 1.336 1_554 S
C360 C359 1.346 . S
C360 H367 0.929 . S
C361 O351 1.282 . S
C361 O362 1.216 . S
O362 C361 1.216 . S
H363 C358 0.930 1_556 S
H364 C359 0.930 . S
O365 Cu345 1.959 . S
O365 C352 1.251 1_554 S
H366 C349 0.930 . S
H367 C360 0.929 . S
Cu368 N369 1.999 . S
Cu368 O374 1.974 . S
Cu368 N379 1.985 . S
Cu368 O388 1.959 . S
N369 Cu368 1.999 . S
N369 C371 1.263 . S
N369 C373 1.389 . S
N370 C371 1.358 . S
N370 C372 1.400 . S
C371 N369 1.263 . S
C371 N370 1.358 . S
C371 H377 0.930 . S
C372 N370 1.400 . S
C372 C373 1.351 . S
C372 H389 0.930 . S
C373 N369 1.389 . S
C373 C372 1.351 . S
C373 H378 0.930 . S
O374 Cu368 1.974 . S
O374 C384 1.282 . S
C375 O376 1.261 . S
C375 O388 1.251 . S
O376 C375 1.261 . S
H377 C371 0.930 . S
H378 C373 0.930 . S
N379 Cu368 1.985 . S
N379 C381 1.335 . S
N379 C382 1.390 . S
N380 C381 1.345 . S
N380 C383 1.336 . S
C381 N379 1.335 . S
C381 N380 1.345 . S
C381 H386 0.930 . S
C382 N379 1.390 . S
C382 C383 1.346 . S
C382 H387 0.930 . S
C383 N380 1.336 . S
C383 C382 1.346 . S
C383 H390 0.929 . S
C384 O374 1.282 . S
C384 O385 1.216 . S
O385 C384 1.216 . S
H386 C381 0.930 . S
H387 C382 0.930 . S
O388 Cu368 1.959 . S
O388 C375 1.251 . S
H389 C372 0.930 . S
H390 C383 0.929 . S
Cu391 N392 1.999 1_554 S
Cu391 O397 1.974 . S
Cu391 N402 1.985 . S
Cu391 O411 1.959 . S
N392 Cu391 1.999 1_556 S
N392 C394 1.263 . S
N392 C396 1.389 . S
N393 C394 1.358 . S
N393 C395 1.400 . S
C394 N392 1.263 . S
C394 N393 1.358 . S
C394 H400 0.930 . S
C395 N393 1.400 . S
C395 C396 1.351 . S
C395 H412 0.930 . S
C396 N392 1.389 . S
C396 C395 1.351 . S
C396 H401 0.930 . S
O397 Cu391 1.974 . S
O397 C407 1.282 . S
C398 O399 1.261 . S
C398 O411 1.251 . S
O399 C398 1.261 . S
H400 C394 0.930 . S
H401 C396 0.930 . S
N402 Cu391 1.985 . S
N402 C404 1.335 . S
N402 C405 1.390 . S
N403 C404 1.345 . S
N403 C406 1.336 . S
C404 N402 1.335 . S
C404 N403 1.345 . S
C404 H409 0.930 . S
C405 N402 1.390 . S
C405 C406 1.346 . S
C405 H410 0.930 . S
C406 N403 1.336 . S
C406 C405 1.346 . S
C406 H413 0.929 . S
C407 O397 1.282 . S
C407 O408 1.216 . S
O408 C407 1.216 . S
H409 C404 0.930 . S
H410 C405 0.930 . S
O411 Cu391 1.959 . S
O411 C398 1.251 . S
H412 C395 0.930 . S
H413 C406 0.929 . S
Cu414 N415 1.999 . S
Cu414 O420 1.974 . S
Cu414 N425 1.985 . S
Cu414 O434 1.959 . S
N415 Cu414 1.999 . S
N415 C417 1.263 . S
N415 C419 1.389 . S
N416 C417 1.358 . S
N416 C418 1.400 . S
C417 N415 1.263 . S
C417 N416 1.358 . S
C417 H423 0.930 . S
C418 N416 1.400 . S
C418 C419 1.351 . S
C418 H435 0.930 . S
C419 N415 1.389 . S
C419 C418 1.351 . S
C419 H424 0.930 . S
O420 Cu414 1.974 . S
O420 C430 1.282 . S
C421 O422 1.261 . S
C421 O434 1.251 . S
O422 C421 1.261 . S
H423 C417 0.930 . S
H424 C419 0.930 . S
N425 Cu414 1.985 . S
N425 C427 1.335 . S
N425 C428 1.390 . S
N426 C427 1.345 . S
N426 C429 1.336 . S
C427 N425 1.335 . S
C427 N426 1.345 . S
C427 H432 0.930 . S
C428 N425 1.390 . S
C428 C429 1.346 . S
C428 H433 0.930 . S
C429 N426 1.336 . S
C429 C428 1.346 . S
C429 H436 0.929 . S
C430 O420 1.282 . S
C430 O431 1.216 . S
O431 C430 1.216 . S
H432 C427 0.930 . S
H433 C428 0.930 . S
O434 Cu414 1.959 . S
O434 C421 1.251 . S
H435 C418 0.930 . S
H436 C429 0.929 . S
Cu437 N438 1.999 . S
Cu437 O443 1.974 . S
Cu437 N448 1.985 . S
Cu437 O457 1.959 . S
N438 Cu437 1.999 . S
N438 C440 1.263 . S
N438 C442 1.389 . S
N439 C440 1.358 . S
N439 C441 1.400 . S
C440 N438 1.263 . S
C440 N439 1.358 . S
C440 H446 0.930 . S
C441 N439 1.400 . S
C441 C442 1.351 . S
C441 H458 0.930 . S
C442 N438 1.389 . S
C442 C441 1.351 . S
C442 H447 0.930 . S
O443 Cu437 1.974 . S
O443 C453 1.282 . S
C444 O445 1.261 . S
C444 O457 1.251 . S
O445 C444 1.261 . S
H446 C440 0.930 . S
H447 C442 0.930 . S
N448 Cu437 1.985 . S
N448 C450 1.335 . S
N448 C451 1.390 . S
N449 C450 1.345 . S
N449 C452 1.336 . S
C450 N448 1.335 . S
C450 N449 1.345 . S
C450 H455 0.930 . S
C451 N448 1.390 . S
C451 C452 1.346 . S
C451 H456 0.930 . S
C452 N449 1.336 . S
C452 C451 1.346 . S
C452 H459 0.929 . S
C453 O443 1.282 . S
C453 O454 1.216 . S
O454 C453 1.216 . S
H455 C450 0.930 . S
H456 C451 0.930 . S
O457 Cu437 1.959 . S
O457 C444 1.251 . S
H458 C441 0.930 . S
H459 C452 0.929 . S
Cu460 N461 1.999 . S
Cu460 O466 1.974 . S
Cu460 N471 1.985 . S
Cu460 O480 1.959 . S
N461 Cu460 1.999 . S
N461 C463 1.263 . S
N461 C465 1.389 . S
N462 C463 1.358 . S
N462 C464 1.400 . S
C463 N461 1.263 . S
C463 N462 1.358 . S
C463 H469 0.930 . S
C464 N462 1.400 . S
C464 C465 1.351 . S
C464 H481 0.930 . S
C465 N461 1.389 . S
C465 C464 1.351 . S
C465 H470 0.930 . S
O466 Cu460 1.974 . S
O466 C476 1.282 . S
C467 O468 1.261 . S
C467 O480 1.251 . S
O468 C467 1.261 . S
H469 C463 0.930 . S
H470 C465 0.930 . S
N471 Cu460 1.985 . S
N471 C473 1.335 . S
N471 C474 1.390 . S
N472 C473 1.345 . S
N472 C475 1.336 . S
C473 N471 1.335 . S
C473 N472 1.345 . S
C473 H478 0.930 . S
C474 N471 1.390 . S
C474 C475 1.346 . S
C474 H479 0.930 . S
C475 N472 1.336 . S
C475 C474 1.346 . S
C475 H482 0.929 . S
C476 O466 1.282 . S
C476 O477 1.216 . S
O477 C476 1.216 . S
H478 C473 0.930 . S
H479 C474 0.930 . S
O480 Cu460 1.959 . S
O480 C467 1.251 . S
H481 C464 0.930 . S
H482 C475 0.929 . S
Cu483 N484 1.999 1_556 S
Cu483 O489 1.974 . S
Cu483 N494 1.985 . S
Cu483 O503 1.959 . S
N484 Cu483 1.999 1_554 S
N484 C486 1.263 . S
N484 C488 1.389 . S
N485 C486 1.358 . S
N485 C487 1.400 . S
C486 N484 1.263 . S
C486 N485 1.358 . S
C486 H492 0.930 . S
C487 N485 1.400 . S
C487 C488 1.351 . S
C487 H504 0.930 . S
C488 N484 1.389 . S
C488 C487 1.351 . S
C488 H493 0.930 . S
O489 Cu483 1.974 . S
O489 C499 1.282 . S
C490 O491 1.261 . S
C490 O503 1.251 . S
O491 C490 1.261 . S
H492 C486 0.930 . S
H493 C488 0.930 . S
N494 Cu483 1.985 . S
N494 C496 1.335 . S
N494 C497 1.390 . S
N495 C496 1.345 . S
N495 C498 1.336 . S
C496 N494 1.335 . S
C496 N495 1.345 . S
C496 H501 0.930 . S
C497 N494 1.390 . S
C497 C498 1.346 . S
C497 H502 0.930 . S
C498 N495 1.336 . S
C498 C497 1.346 . S
C498 H505 0.929 . S
C499 O489 1.282 . S
C499 O500 1.216 . S
O500 C499 1.216 . S
H501 C496 0.930 . S
H502 C497 0.930 . S
O503 Cu483 1.959 . S
O503 C490 1.251 . S
H504 C487 0.930 . S
H505 C498 0.929 . S
Cu506 N507 1.999 . S
Cu506 O512 1.974 . S
Cu506 N517 1.985 . S
Cu506 O526 1.959 . S
N507 Cu506 1.999 . S
N507 C509 1.263 . S
N507 C511 1.389 . S
N508 C509 1.358 . S
N508 C510 1.400 . S
C509 N507 1.263 . S
C509 N508 1.358 . S
C509 H515 0.930 . S
C510 N508 1.400 . S
C510 C511 1.351 . S
C510 H527 0.930 . S
C511 N507 1.389 . S
C511 C510 1.351 . S
C511 H516 0.930 . S
O512 Cu506 1.974 . S
O512 C522 1.282 . S
C513 O514 1.261 . S
C513 O526 1.251 . S
O514 C513 1.261 . S
H515 C509 0.930 . S
H516 C511 0.930 . S
N517 Cu506 1.985 . S
N517 C519 1.335 . S
N517 C520 1.390 . S
N518 C519 1.345 . S
N518 C521 1.336 . S
C519 N517 1.335 . S
C519 N518 1.345 . S
C519 H524 0.930 . S
C520 N517 1.390 . S
C520 C521 1.346 . S
C520 H525 0.930 . S
C521 N518 1.336 . S
C521 C520 1.346 . S
C521 H528 0.929 . S
C522 O512 1.282 . S
C522 O523 1.216 . S
O523 C522 1.216 . S
H524 C519 0.930 . S
H525 C520 0.930 . S
O526 Cu506 1.959 . S
O526 C513 1.251 . S
H527 C510 0.930 . S
H528 C521 0.929 . S
Cu529 N530 1.999 . S
Cu529 O535 1.974 . S
Cu529 N540 1.985 . S
Cu529 O549 1.959 . S
N530 Cu529 1.999 . S
N530 C532 1.263 . S
N530 C534 1.389 . S
N531 C532 1.358 . S
N531 C533 1.400 . S
C532 N530 1.263 . S
C532 N531 1.358 . S
C532 H538 0.930 . S
C533 N531 1.400 . S
C533 C534 1.351 . S
C533 H550 0.930 . S
C534 N530 1.389 . S
C534 C533 1.351 . S
C534 H539 0.930 . S
O535 Cu529 1.974 . S
O535 C545 1.282 . S
C536 O537 1.261 . S
C536 O549 1.251 . S
O537 C536 1.261 . S
H538 C532 0.930 . S
H539 C534 0.930 . S
N540 Cu529 1.985 . S
N540 C542 1.335 . S
N540 C543 1.390 . S
N541 C542 1.345 . S
N541 C544 1.336 . S
C542 N540 1.335 . S
C542 N541 1.345 . S
C542 H547 0.930 . S
C543 N540 1.390 . S
C543 C544 1.346 . S
C543 H548 0.930 . S
C544 N541 1.336 . S
C544 C543 1.346 . S
C544 H551 0.929 . S
C545 O535 1.282 . S
C545 O546 1.216 . S
O546 C545 1.216 . S
H547 C542 0.930 . S
H548 C543 0.930 . S
O549 Cu529 1.959 . S
O549 C536 1.251 . S
H550 C533 0.930 . S
H551 C544 0.929 . S
Cu552 N553 1.999 . S
Cu552 O558 1.974 . S
Cu552 N563 1.985 . S
Cu552 O572 1.959 . S
N553 Cu552 1.999 . S
N553 C555 1.263 . S
N553 C557 1.389 . S
N554 C555 1.358 . S
N554 C556 1.400 . S
C555 N553 1.263 . S
C555 N554 1.358 . S
C555 H561 0.930 . S
C556 N554 1.400 . S
C556 C557 1.351 . S
C556 H573 0.930 . S
C557 N553 1.389 . S
C557 C556 1.351 . S
C557 H562 0.930 . S
O558 Cu552 1.974 . S
O558 C568 1.282 . S
C559 O560 1.261 . S
C559 O572 1.251 . S
O560 C559 1.261 . S
H561 C555 0.930 . S
H562 C557 0.930 . S
N563 Cu552 1.985 . S
N563 C565 1.335 . S
N563 C566 1.390 . S
N564 C565 1.345 . S
N564 C567 1.336 . S
C565 N563 1.335 . S
C565 N564 1.345 . S
C565 H570 0.930 . S
C566 N563 1.390 . S
C566 C567 1.346 . S
C566 H571 0.930 . S
C567 N564 1.336 . S
C567 C566 1.346 . S
C567 H574 0.929 . S
C568 O558 1.282 . S
C568 O569 1.216 . S
O569 C568 1.216 . S
H570 C565 0.930 . S
H571 C566 0.930 . S
O572 Cu552 1.959 . S
O572 C559 1.251 . S
H573 C556 0.930 . S
H574 C567 0.929 . S
Cu575 N576 1.999 . S
Cu575 O581 1.974 . S
Cu575 N586 1.985 . S
Cu575 O595 1.959 . S
N576 Cu575 1.999 . S
N576 C578 1.263 . S
N576 C580 1.389 . S
N577 C578 1.358 . S
N577 C579 1.400 . S
C578 N576 1.263 . S
C578 N577 1.358 . S
C578 H584 0.930 . S
C579 N577 1.400 . S
C579 C580 1.351 . S
C579 H596 0.930 . S
C580 N576 1.389 . S
C580 C579 1.351 . S
C580 H585 0.930 . S
O581 Cu575 1.974 . S
O581 C591 1.282 . S
C582 O583 1.261 . S
C582 O595 1.251 1_554 S
O583 C582 1.261 . S
H584 C578 0.930 . S
H585 C580 0.930 . S
N586 Cu575 1.985 . S
N586 C588 1.335 . S
N586 C589 1.390 . S
N587 C588 1.345 1_554 S
N587 C590 1.336 1_554 S
C588 N586 1.335 . S
C588 N587 1.345 1_556 S
C588 H593 0.930 1_556 S
C589 N586 1.390 . S
C589 C590 1.346 . S
C589 H594 0.930 . S
C590 N587 1.336 1_556 S
C590 C589 1.346 . S
C590 H597 0.929 . S
C591 O581 1.282 . S
C591 O592 1.216 . S
O592 C591 1.216 . S
H593 C588 0.930 1_554 S
H594 C589 0.930 . S
O595 Cu575 1.959 . S
O595 C582 1.251 1_556 S
H596 C579 0.930 . S
H597 C590 0.929 . S
Cu598 N599 1.999 . S
Cu598 O604 1.974 . S
Cu598 N609 1.985 . S
Cu598 O618 1.959 . S
N599 Cu598 1.999 . S
N599 C601 1.263 . S
N599 C603 1.389 . S
N600 C601 1.358 . S
N600 C602 1.400 . S
C601 N599 1.263 . S
C601 N600 1.358 . S
C601 H607 0.930 . S
C602 N600 1.400 . S
C602 C603 1.351 . S
C602 H619 0.930 . S
C603 N599 1.389 . S
C603 C602 1.351 . S
C603 H608 0.930 . S
O604 Cu598 1.974 . S
O604 C614 1.282 . S
C605 O606 1.261 . S
C605 O618 1.251 . S
O606 C605 1.261 . S
H607 C601 0.930 . S
H608 C603 0.930 . S
N609 Cu598 1.985 . S
N609 C611 1.335 . S
N609 C612 1.390 . S
N610 C611 1.345 . S
N610 C613 1.336 . S
C611 N609 1.335 . S
C611 N610 1.345 . S
C611 H616 0.930 . S
C612 N609 1.390 . S
C612 C613 1.346 . S
C612 H617 0.930 . S
C613 N610 1.336 . S
C613 C612 1.346 . S
C613 H620 0.929 . S
C614 O604 1.282 . S
C614 O615 1.216 . S
O615 C614 1.216 . S
H616 C611 0.930 . S
H617 C612 0.930 . S
O618 Cu598 1.959 . S
O618 C605 1.251 . S
H619 C602 0.930 . S
H620 C613 0.929 . S
Cu621 N622 1.999 . S
Cu621 O627 1.974 . S
Cu621 N632 1.985 . S
Cu621 O641 1.959 . S
N622 Cu621 1.999 . S
N622 C624 1.263 . S
N622 C626 1.389 . S
N623 C624 1.358 . S
N623 C625 1.400 . S
C624 N622 1.263 . S
C624 N623 1.358 . S
C624 H630 0.930 . S
C625 N623 1.400 . S
C625 C626 1.351 . S
C625 H642 0.930 . S
C626 N622 1.389 . S
C626 C625 1.351 . S
C626 H631 0.930 . S
O627 Cu621 1.974 . S
O627 C637 1.282 . S
C628 O629 1.261 . S
C628 O641 1.251 . S
O629 C628 1.261 . S
H630 C624 0.930 . S
H631 C626 0.930 . S
N632 Cu621 1.985 . S
N632 C634 1.335 . S
N632 C635 1.390 . S
N633 C634 1.345 . S
N633 C636 1.336 . S
C634 N632 1.335 . S
C634 N633 1.345 . S
C634 H639 0.930 . S
C635 N632 1.390 . S
C635 C636 1.346 . S
C635 H640 0.930 . S
C636 N633 1.336 . S
C636 C635 1.346 . S
C636 H643 0.929 . S
C637 O627 1.282 . S
C637 O638 1.216 . S
O638 C637 1.216 . S
H639 C634 0.930 . S
H640 C635 0.930 . S
O641 Cu621 1.959 . S
O641 C628 1.251 . S
H642 C625 0.930 . S
H643 C636 0.929 . S
Cu644 N645 1.999 . S
Cu644 O650 1.974 . S
Cu644 N655 1.985 . S
Cu644 O664 1.959 . S
N645 Cu644 1.999 . S
N645 C647 1.263 . S
N645 C649 1.389 . S
N646 C647 1.358 . S
N646 C648 1.400 . S
C647 N645 1.263 . S
C647 N646 1.358 . S
C647 H653 0.930 . S
C648 N646 1.400 . S
C648 C649 1.351 . S
C648 H665 0.930 . S
C649 N645 1.389 . S
C649 C648 1.351 . S
C649 H654 0.930 . S
O650 Cu644 1.974 . S
O650 C660 1.282 . S
C651 O652 1.261 . S
C651 O664 1.251 . S
O652 C651 1.261 . S
H653 C647 0.930 . S
H654 C649 0.930 . S
N655 Cu644 1.985 . S
N655 C657 1.335 . S
N655 C658 1.390 . S
N656 C657 1.345 . S
N656 C659 1.336 . S
C657 N655 1.335 . S
C657 N656 1.345 . S
C657 H662 0.930 . S
C658 N655 1.390 . S
C658 C659 1.346 . S
C658 H663 0.930 . S
C659 N656 1.336 . S
C659 C658 1.346 . S
C659 H666 0.929 . S
C660 O650 1.282 . S
C660 O661 1.216 . S
O661 C660 1.216 . S
H662 C657 0.930 . S
H663 C658 0.930 . S
O664 Cu644 1.959 . S
O664 C651 1.251 . S
H665 C648 0.930 . S
H666 C659 0.929 . S
Cu667 N668 1.999 . S
Cu667 O673 1.974 . S
Cu667 N678 1.985 . S
Cu667 O687 1.959 . S
N668 Cu667 1.999 . S
N668 C670 1.263 . S
N668 C672 1.389 . S
N669 C670 1.358 . S
N669 C671 1.400 . S
C670 N668 1.263 . S
C670 N669 1.358 . S
C670 H676 0.930 . S
C671 N669 1.400 . S
C671 C672 1.351 . S
C671 H688 0.930 . S
C672 N668 1.389 . S
C672 C671 1.351 . S
C672 H677 0.930 . S
O673 Cu667 1.974 . S
O673 C683 1.282 . S
C674 O675 1.261 . S
C674 O687 1.251 1_556 S
O675 C674 1.261 . S
H676 C670 0.930 . S
H677 C672 0.930 . S
N678 Cu667 1.985 . S
N678 C680 1.335 . S
N678 C681 1.390 . S
N679 C680 1.345 1_556 S
N679 C682 1.336 1_556 S
C680 N678 1.335 . S
C680 N679 1.345 1_554 S
C680 H685 0.930 1_554 S
C681 N678 1.390 . S
C681 C682 1.346 . S
C681 H686 0.930 . S
C682 N679 1.336 1_554 S
C682 C681 1.346 . S
C682 H689 0.929 . S
C683 O673 1.282 . S
C683 O684 1.216 . S
O684 C683 1.216 . S
H685 C680 0.930 1_556 S
H686 C681 0.930 . S
O687 Cu667 1.959 . S
O687 C674 1.251 1_554 S
H688 C671 0.930 . S
H689 C682 0.929 . S
Cu690 N691 1.999 . S
Cu690 O696 1.974 . S
Cu690 N701 1.985 . S
Cu690 O710 1.959 . S
N691 Cu690 1.999 . S
N691 C693 1.263 . S
N691 C695 1.389 . S
N692 C693 1.358 . S
N692 C694 1.400 . S
C693 N691 1.263 . S
C693 N692 1.358 . S
C693 H699 0.930 . S
C694 N692 1.400 . S
C694 C695 1.351 . S
C694 H711 0.930 . S
C695 N691 1.389 . S
C695 C694 1.351 . S
C695 H700 0.930 . S
O696 Cu690 1.974 . S
O696 C706 1.282 . S
C697 O698 1.261 . S
C697 O710 1.251 . S
O698 C697 1.261 . S
H699 C693 0.930 . S
H700 C695 0.930 . S
N701 Cu690 1.985 . S
N701 C703 1.335 . S
N701 C704 1.390 . S
N702 C703 1.345 . S
N702 C705 1.336 . S
C703 N701 1.335 . S
C703 N702 1.345 . S
C703 H708 0.930 . S
C704 N701 1.390 . S
C704 C705 1.346 . S
C704 H709 0.930 . S
C705 N702 1.336 . S
C705 C704 1.346 . S
C705 H712 0.929 . S
C706 O696 1.282 . S
C706 O707 1.216 . S
O707 C706 1.216 . S
H708 C703 0.930 . S
H709 C704 0.930 . S
O710 Cu690 1.959 . S
O710 C697 1.251 . S
H711 C694 0.930 . S
H712 C705 0.929 . S
Cu713 N714 1.999 . S
Cu713 O719 1.974 . S
Cu713 N724 1.985 . S
Cu713 O733 1.959 . S
N714 Cu713 1.999 . S
N714 C716 1.263 . S
N714 C718 1.389 . S
N715 C716 1.358 . S
N715 C717 1.400 . S
C716 N714 1.263 . S
C716 N715 1.358 . S
C716 H722 0.930 . S
C717 N715 1.400 . S
C717 C718 1.351 . S
C717 H734 0.930 . S
C718 N714 1.389 . S
C718 C717 1.351 . S
C718 H723 0.930 . S
O719 Cu713 1.974 . S
O719 C729 1.282 . S
C720 O721 1.261 . S
C720 O733 1.251 . S
O721 C720 1.261 . S
H722 C716 0.930 . S
H723 C718 0.930 . S
N724 Cu713 1.985 . S
N724 C726 1.335 . S
N724 C727 1.390 . S
N725 C726 1.345 . S
N725 C728 1.336 . S
C726 N724 1.335 . S
C726 N725 1.345 . S
C726 H731 0.930 . S
C727 N724 1.390 . S
C727 C728 1.346 . S
C727 H732 0.930 . S
C728 N725 1.336 . S
C728 C727 1.346 . S
C728 H735 0.929 . S
C729 O719 1.282 . S
C729 O730 1.216 . S
O730 C729 1.216 . S
H731 C726 0.930 . S
H732 C727 0.930 . S
O733 Cu713 1.959 . S
O733 C720 1.251 . S
H734 C717 0.930 . S
H735 C728 0.929 . S
C736 C737 1.363 . S
C736 C742 1.379 . S
C736 N744 1.356 . S
C737 C736 1.363 . S
C737 C743 1.363 . S
C738 C739 1.363 . S
C738 C743 1.379 . S
C738 N745 1.356 . S
C739 C738 1.363 . S
C739 C742 1.363 . S
N740 C742 1.356 . S
N740 H752 0.984 . S
N740 H753 0.985 . S
N741 C743 1.356 . S
N741 H746 0.984 . S
N741 H747 0.985 . S
C742 C736 1.379 . S
C742 C739 1.363 . S
C742 N740 1.356 . S
C743 C737 1.363 . S
C743 C738 1.379 . S
C743 N741 1.356 . S
N744 C736 1.356 . S
N744 H750 0.984 . S
N744 H751 0.984 . S
N745 C738 1.356 . S
N745 H748 0.984 . S
N745 H749 0.985 . S
H746 N741 0.984 . S
H747 N741 0.985 . S
H748 N745 0.984 . S
H749 N745 0.985 . S
H750 N744 0.984 . S
H751 N744 0.984 . S
H752 N740 0.984 . S
H753 N740 0.985 . S
C754 C755 1.363 . S
C754 C760 1.379 . S
C754 N762 1.356 . S
C755 C754 1.363 . S
C755 C761 1.363 . S
C756 C757 1.363 . S
C756 C761 1.379 . S
C756 N763 1.356 . S
C757 C756 1.363 . S
C757 C760 1.363 . S
N758 C760 1.356 . S
N758 H770 0.984 . S
N758 H771 0.985 . S
N759 C761 1.356 . S
N759 H764 0.984 . S
N759 H765 0.985 . S
C760 C754 1.379 . S
C760 C757 1.363 . S
C760 N758 1.356 . S
C761 C755 1.363 . S
C761 C756 1.379 . S
C761 N759 1.356 . S
N762 C754 1.356 . S
N762 H768 0.984 . S
N762 H769 0.984 . S
N763 C756 1.356 . S
N763 H766 0.984 . S
N763 H767 0.985 . S
H764 N759 0.984 . S
H765 N759 0.985 . S
H766 N763 0.984 . S
H767 N763 0.985 . S
H768 N762 0.984 . S
H769 N762 0.984 . S
H770 N758 0.984 . S
H771 N758 0.985 . S
C772 C773 1.363 . S
C772 C778 1.379 . S
C772 N780 1.356 . S
C773 C772 1.363 . S
C773 C779 1.363 . S
C774 C775 1.363 . S
C774 C779 1.379 . S
C774 N781 1.356 . S
C775 C774 1.363 . S
C775 C778 1.363 . S
N776 C778 1.356 . S
N776 H788 0.984 . S
N776 H789 0.985 . S
N777 C779 1.356 . S
N777 H782 0.984 . S
N777 H783 0.985 . S
C778 C772 1.379 . S
C778 C775 1.363 . S
C778 N776 1.356 . S
C779 C773 1.363 . S
C779 C774 1.379 . S
C779 N777 1.356 . S
N780 C772 1.356 . S
N780 H786 0.984 . S
N780 H787 0.984 . S
N781 C774 1.356 . S
N781 H784 0.984 . S
N781 H785 0.985 . S
H782 N777 0.984 . S
H783 N777 0.985 . S
H784 N781 0.984 . S
H785 N781 0.985 . S
H786 N780 0.984 . S
H787 N780 0.984 . S
H788 N776 0.984 . S
H789 N776 0.985 . S
C790 C791 1.363 . S
C790 C796 1.379 . S
C790 N798 1.356 . S
C791 C790 1.363 . S
C791 C797 1.363 . S
C792 C793 1.363 . S
C792 C797 1.379 . S
C792 N799 1.356 . S
C793 C792 1.363 . S
C793 C796 1.363 . S
N794 C796 1.356 . S
N794 H806 0.984 . S
N794 H807 0.985 . S
N795 C797 1.356 . S
N795 H800 0.984 . S
N795 H801 0.985 . S
C796 C790 1.379 . S
C796 C793 1.363 . S
C796 N794 1.356 . S
C797 C791 1.363 . S
C797 C792 1.379 . S
C797 N795 1.356 . S
N798 C790 1.356 . S
N798 H804 0.984 . S
N798 H805 0.984 . S
N799 C792 1.356 . S
N799 H802 0.984 . S
N799 H803 0.985 . S
H800 N795 0.984 . S
H801 N795 0.985 . S
H802 N799 0.984 . S
H803 N799 0.985 . S
H804 N798 0.984 . S
H805 N798 0.984 . S
H806 N794 0.984 . S
H807 N794 0.985 . S
C808 C809 1.363 . S
C808 C814 1.379 . S
C808 N816 1.356 . S
C809 C808 1.363 . S
C809 C815 1.363 . S
C810 C811 1.363 . S
C810 C815 1.379 . S
C810 N817 1.356 . S
C811 C810 1.363 . S
C811 C814 1.363 . S
N812 C814 1.356 . S
N812 H824 0.984 . S
N812 H825 0.985 . S
N813 C815 1.356 . S
N813 H818 0.984 . S
N813 H819 0.985 . S
C814 C808 1.379 . S
C814 C811 1.363 . S
C814 N812 1.356 . S
C815 C809 1.363 . S
C815 C810 1.379 . S
C815 N813 1.356 . S
N816 C808 1.356 . S
N816 H822 0.984 . S
N816 H823 0.984 . S
N817 C810 1.356 . S
N817 H820 0.984 . S
N817 H821 0.985 . S
H818 N813 0.984 . S
H819 N813 0.985 . S
H820 N817 0.984 . S
H821 N817 0.985 . S
H822 N816 0.984 . S
H823 N816 0.984 . S
H824 N812 0.984 . S
H825 N812 0.985 . S
C826 C827 1.363 . S
C826 C832 1.379 . S
C826 N834 1.356 . S
C827 C826 1.363 . S
C827 C833 1.363 . S
C828 C829 1.363 . S
C828 C833 1.379 . S
C828 N835 1.356 . S
C829 C828 1.363 . S
C829 C832 1.363 . S
N830 C832 1.356 . S
N830 H842 0.984 . S
N830 H843 0.985 . S
N831 C833 1.356 . S
N831 H836 0.984 . S
N831 H837 0.985 . S
C832 C826 1.379 . S
C832 C829 1.363 . S
C832 N830 1.356 . S
C833 C827 1.363 . S
C833 C828 1.379 . S
C833 N831 1.356 . S
N834 C826 1.356 . S
N834 H840 0.984 . S
N834 H841 0.984 . S
N835 C828 1.356 . S
N835 H838 0.984 . S
N835 H839 0.985 . S
H836 N831 0.984 . S
H837 N831 0.985 . S
H838 N835 0.984 . S
H839 N835 0.985 . S
H840 N834 0.984 . S
H841 N834 0.984 . S
H842 N830 0.984 . S
H843 N830 0.985 . S
C844 C845 1.363 . S
C844 C850 1.379 . S
C844 N852 1.356 . S
C845 C844 1.363 . S
C845 C851 1.363 . S
C846 C847 1.363 . S
C846 C851 1.379 . S
C846 N853 1.356 . S
C847 C846 1.363 . S
C847 C850 1.363 . S
N848 C850 1.356 . S
N848 H860 0.984 . S
N848 H861 0.985 . S
N849 C851 1.356 . S
N849 H854 0.984 . S
N849 H855 0.985 . S
C850 C844 1.379 . S
C850 C847 1.363 . S
C850 N848 1.356 . S
C851 C845 1.363 . S
C851 C846 1.379 . S
C851 N849 1.356 . S
N852 C844 1.356 . S
N852 H858 0.984 . S
N852 H859 0.984 . S
N853 C846 1.356 . S
N853 H856 0.984 . S
N853 H857 0.985 . S
H854 N849 0.984 . S
H855 N849 0.985 . S
H856 N853 0.984 . S
H857 N853 0.985 . S
H858 N852 0.984 . S
H859 N852 0.984 . S
H860 N848 0.984 . S
H861 N848 0.985 . S
C862 C863 1.363 . S
C862 C868 1.379 . S
C862 N870 1.356 . S
C863 C862 1.363 . S
C863 C869 1.363 . S
C864 C865 1.363 . S
C864 C869 1.379 . S
C864 N871 1.356 . S
C865 C864 1.363 . S
C865 C868 1.363 . S
N866 C868 1.356 . S
N866 H878 0.984 . S
N866 H879 0.985 . S
N867 C869 1.356 . S
N867 H872 0.984 . S
N867 H873 0.985 . S
C868 C862 1.379 . S
C868 C865 1.363 . S
C868 N866 1.356 . S
C869 C863 1.363 . S
C869 C864 1.379 . S
C869 N867 1.356 . S
N870 C862 1.356 . S
N870 H876 0.984 . S
N870 H877 0.984 . S
N871 C864 1.356 . S
N871 H874 0.984 . S
N871 H875 0.985 . S
H872 N867 0.984 . S
H873 N867 0.985 . S
H874 N871 0.984 . S
H875 N871 0.985 . S
H876 N870 0.984 . S
H877 N870 0.984 . S
H878 N866 0.984 . S
H879 N866 0.985 . S
C880 C881 1.363 . S
C880 C886 1.379 . S
C880 N888 1.356 . S
C881 C880 1.363 . S
C881 C887 1.363 . S
C882 C883 1.363 . S
C882 C887 1.379 . S
C882 N889 1.356 . S
C883 C882 1.363 . S
C883 C886 1.363 . S
N884 C886 1.356 . S
N884 H896 0.984 . S
N884 H897 0.985 . S
N885 C887 1.356 . S
N885 H890 0.984 . S
N885 H891 0.985 . S
C886 C880 1.379 . S
C886 C883 1.363 . S
C886 N884 1.356 . S
C887 C881 1.363 . S
C887 C882 1.379 . S
C887 N885 1.356 . S
N888 C880 1.356 . S
N888 H894 0.984 . S
N888 H895 0.984 . S
N889 C882 1.356 . S
N889 H892 0.984 . S
N889 H893 0.985 . S
H890 N885 0.984 . S
H891 N885 0.985 . S
H892 N889 0.984 . S
H893 N889 0.985 . S
H894 N888 0.984 . S
H895 N888 0.984 . S
H896 N884 0.984 . S
H897 N884 0.985 . S
C898 C899 1.363 . S
C898 C904 1.379 . S
C898 N906 1.356 . S
C899 C898 1.363 . S
C899 C905 1.363 . S
C900 C901 1.363 . S
C900 C905 1.379 . S
C900 N907 1.356 . S
C901 C900 1.363 . S
C901 C904 1.363 . S
N902 C904 1.356 . S
N902 H914 0.984 . S
N902 H915 0.985 . S
N903 C905 1.356 . S
N903 H908 0.984 . S
N903 H909 0.985 . S
C904 C898 1.379 . S
C904 C901 1.363 . S
C904 N902 1.356 . S
C905 C899 1.363 . S
C905 C900 1.379 . S
C905 N903 1.356 . S
N906 C898 1.356 . S
N906 H912 0.984 . S
N906 H913 0.984 . S
N907 C900 1.356 . S
N907 H910 0.984 . S
N907 H911 0.985 . S
H908 N903 0.984 . S
H909 N903 0.985 . S
H910 N907 0.984 . S
H911 N907 0.985 . S
H912 N906 0.984 . S
H913 N906 0.984 . S
H914 N902 0.984 . S
H915 N902 0.985 . S
C916 C917 1.363 . S
C916 C922 1.379 . S
C916 N924 1.356 . S
C917 C916 1.363 . S
C917 C923 1.363 . S
C918 C919 1.363 . S
C918 C923 1.379 . S
C918 N925 1.356 . S
C919 C918 1.363 . S
C919 C922 1.363 . S
N920 C922 1.356 . S
N920 H932 0.984 . S
N920 H933 0.985 . S
N921 C923 1.356 . S
N921 H926 0.984 . S
N921 H927 0.985 . S
C922 C916 1.379 . S
C922 C919 1.363 . S
C922 N920 1.356 . S
C923 C917 1.363 . S
C923 C918 1.379 . S
C923 N921 1.356 . S
N924 C916 1.356 . S
N924 H930 0.984 . S
N924 H931 0.984 . S
N925 C918 1.356 . S
N925 H928 0.984 . S
N925 H929 0.985 . S
H926 N921 0.984 . S
H927 N921 0.985 . S
H928 N925 0.984 . S
H929 N925 0.985 . S
H930 N924 0.984 . S
H931 N924 0.984 . S
H932 N920 0.984 . S
H933 N920 0.985 . S
C934 C935 1.363 . S
C934 C940 1.379 . S
C934 N942 1.356 . S
C935 C934 1.363 . S
C935 C941 1.363 . S
C936 C937 1.363 . S
C936 C941 1.379 . S
C936 N943 1.356 . S
C937 C936 1.363 . S
C937 C940 1.363 . S
N938 C940 1.356 . S
N938 H950 0.984 . S
N938 H951 0.985 . S
N939 C941 1.356 . S
N939 H944 0.984 . S
N939 H945 0.985 . S
C940 C934 1.379 . S
C940 C937 1.363 . S
C940 N938 1.356 . S
C941 C935 1.363 . S
C941 C936 1.379 . S
C941 N939 1.356 . S
N942 C934 1.356 . S
N942 H948 0.984 . S
N942 H949 0.984 . S
N943 C936 1.356 . S
N943 H946 0.984 . S
N943 H947 0.985 . S
H944 N939 0.984 . S
H945 N939 0.985 . S
H946 N943 0.984 . S
H947 N943 0.985 . S
H948 N942 0.984 . S
H949 N942 0.984 . S
H950 N938 0.984 . S
H951 N938 0.985 . S
C952 C953 1.363 . S
C952 C958 1.379 . S
C952 N960 1.356 . S
C953 C952 1.363 . S
C953 C959 1.363 . S
C954 C955 1.363 . S
C954 C959 1.379 . S
C954 N961 1.356 . S
C955 C954 1.363 . S
C955 C958 1.363 . S
N956 C958 1.356 . S
N956 H968 0.984 . S
N956 H969 0.985 . S
N957 C959 1.356 . S
N957 H962 0.984 . S
N957 H963 0.985 . S
C958 C952 1.379 . S
C958 C955 1.363 . S
C958 N956 1.356 . S
C959 C953 1.363 . S
C959 C954 1.379 . S
C959 N957 1.356 . S
N960 C952 1.356 . S
N960 H966 0.984 . S
N960 H967 0.984 . S
N961 C954 1.356 . S
N961 H964 0.984 . S
N961 H965 0.985 . S
H962 N957 0.984 . S
H963 N957 0.985 . S
H964 N961 0.984 . S
H965 N961 0.985 . S
H966 N960 0.984 . S
H967 N960 0.984 . S
H968 N956 0.984 . S
H969 N956 0.985 . S
C970 C971 1.363 . S
C970 C976 1.379 . S
C970 N978 1.356 . S
C971 C970 1.363 . S
C971 C977 1.363 . S
C972 C973 1.363 . S
C972 C977 1.379 . S
C972 N979 1.356 . S
C973 C972 1.363 . S
C973 C976 1.363 . S
N974 C976 1.356 . S
N974 H986 0.984 . S
N974 H987 0.985 . S
N975 C977 1.356 . S
N975 H980 0.984 . S
N975 H981 0.985 . S
C976 C970 1.379 . S
C976 C973 1.363 . S
C976 N974 1.356 . S
C977 C971 1.363 . S
C977 C972 1.379 . S
C977 N975 1.356 . S
N978 C970 1.356 . S
N978 H984 0.984 . S
N978 H985 0.984 . S
N979 C972 1.356 . S
N979 H982 0.984 . S
N979 H983 0.985 . S
H980 N975 0.984 . S
H981 N975 0.985 . S
H982 N979 0.984 . S
H983 N979 0.985 . S
H984 N978 0.984 . S
H985 N978 0.984 . S
H986 N974 0.984 . S
H987 N974 0.985 . S
C988 C989 1.363 . S
C988 C994 1.379 . S
C988 N996 1.356 . S
C989 C988 1.363 . S
C989 C995 1.363 . S
C990 C991 1.363 . S
C990 C995 1.379 . S
C990 N997 1.356 . S
C991 C990 1.363 . S
C991 C994 1.363 . S
N992 C994 1.356 . S
N992 H1004 0.984 . S
N992 H1005 0.985 . S
N993 C995 1.356 . S
N993 H998 0.984 . S
N993 H999 0.985 . S
C994 C988 1.379 . S
C994 C991 1.363 . S
C994 N992 1.356 . S
C995 C989 1.363 . S
C995 C990 1.379 . S
C995 N993 1.356 . S
N996 C988 1.356 . S
N996 H1002 0.984 . S
N996 H1003 0.984 . S
N997 C990 1.356 . S
N997 H1000 0.984 . S
N997 H1001 0.985 . S
H998 N993 0.984 . S
H999 N993 0.985 . S
H1000 N997 0.984 . S
H1001 N997 0.985 . S
H1002 N996 0.984 . S
H1003 N996 0.984 . S
H1004 N992 0.984 . S
H1005 N992 0.985 . S
C1006 C1007 1.363 . S
C1006 C1012 1.379 . S
C1006 N1014 1.356 . S
C1007 C1006 1.363 . S
C1007 C1013 1.363 . S
C1008 C1009 1.363 . S
C1008 C1013 1.379 . S
C1008 N1015 1.356 . S
C1009 C1008 1.363 . S
C1009 C1012 1.363 . S
N1010 C1012 1.356 . S
N1010 H1022 0.984 . S
N1010 H1023 0.985 . S
N1011 C1013 1.356 . S
N1011 H1016 0.984 . S
N1011 H1017 0.985 . S
C1012 C1006 1.379 . S
C1012 C1009 1.363 . S
C1012 N1010 1.356 . S
C1013 C1007 1.363 . S
C1013 C1008 1.379 . S
C1013 N1011 1.356 . S
N1014 C1006 1.356 . S
N1014 H1020 0.984 . S
N1014 H1021 0.984 . S
N1015 C1008 1.356 . S
N1015 H1018 0.984 . S
N1015 H1019 0.985 . S
H1016 N1011 0.984 . S
H1017 N1011 0.985 . S
H1018 N1015 0.984 . S
H1019 N1015 0.985 . S
H1020 N1014 0.984 . S
H1021 N1014 0.984 . S
H1022 N1010 0.984 . S
H1023 N1010 0.985 . S
C1024 C1025 1.363 . S
C1024 C1030 1.379 . S
C1024 N1032 1.356 . S
C1025 C1024 1.363 . S
C1025 C1031 1.363 . S
C1026 C1027 1.363 . S
C1026 C1031 1.379 . S
C1026 N1033 1.356 . S
C1027 C1026 1.363 . S
C1027 C1030 1.363 . S
N1028 C1030 1.356 . S
N1028 H1040 0.984 . S
N1028 H1041 0.985 . S
N1029 C1031 1.356 . S
N1029 H1034 0.984 . S
N1029 H1035 0.985 . S
C1030 C1024 1.379 . S
C1030 C1027 1.363 . S
C1030 N1028 1.356 . S
C1031 C1025 1.363 . S
C1031 C1026 1.379 . S
C1031 N1029 1.356 . S
N1032 C1024 1.356 . S
N1032 H1038 0.984 . S
N1032 H1039 0.984 . S
N1033 C1026 1.356 . S
N1033 H1036 0.984 . S
N1033 H1037 0.985 . S
H1034 N1029 0.984 . S
H1035 N1029 0.985 . S
H1036 N1033 0.984 . S
H1037 N1033 0.985 . S
H1038 N1032 0.984 . S
H1039 N1032 0.984 . S
H1040 N1028 0.984 . S
H1041 N1028 0.985 . S
C1042 C1043 1.363 . S
C1042 C1048 1.379 . S
C1042 N1050 1.356 . S
C1043 C1042 1.363 . S
C1043 C1049 1.363 . S
C1044 C1045 1.363 . S
C1044 C1049 1.379 . S
C1044 N1051 1.356 . S
C1045 C1044 1.363 . S
C1045 C1048 1.363 . S
N1046 C1048 1.356 1_455 S
N1046 H1058 0.984 . S
N1046 H1059 0.985 . S
N1047 C1049 1.356 . S
N1047 H1052 0.984 . S
N1047 H1053 0.985 . S
C1048 C1042 1.379 . S
C1048 C1045 1.363 . S
C1048 N1046 1.356 1_655 S
C1049 C1043 1.363 . S
C1049 C1044 1.379 . S
C1049 N1047 1.356 . S
N1050 C1042 1.356 . S
N1050 H1056 0.984 . S
N1050 H1057 0.984 . S
N1051 C1044 1.356 . S
N1051 H1054 0.984 1_655 S
N1051 H1055 0.985 . S
H1052 N1047 0.984 . S
H1053 N1047 0.985 . S
H1054 N1051 0.984 1_455 S
H1055 N1051 0.985 . S
H1056 N1050 0.984 . S
H1057 N1050 0.984 . S
H1058 N1046 0.984 . S
H1059 N1046 0.985 . S
C1060 C1061 1.363 . S
C1060 C1066 1.379 . S
C1060 N1068 1.356 . S
C1061 C1060 1.363 . S
C1061 C1067 1.363 . S
C1062 C1063 1.363 . S
C1062 C1067 1.379 . S
C1062 N1069 1.356 . S
C1063 C1062 1.363 . S
C1063 C1066 1.363 . S
N1064 C1066 1.356 . S
N1064 H1076 0.984 . S
N1064 H1077 0.985 . S
N1065 C1067 1.356 . S
N1065 H1070 0.984 . S
N1065 H1071 0.985 . S
C1066 C1060 1.379 . S
C1066 C1063 1.363 . S
C1066 N1064 1.356 . S
C1067 C1061 1.363 . S
C1067 C1062 1.379 . S
C1067 N1065 1.356 . S
N1068 C1060 1.356 . S
N1068 H1074 0.984 . S
N1068 H1075 0.984 . S
N1069 C1062 1.356 . S
N1069 H1072 0.984 . S
N1069 H1073 0.985 . S
H1070 N1065 0.984 . S
H1071 N1065 0.985 . S
H1072 N1069 0.984 . S
H1073 N1069 0.985 . S
H1074 N1068 0.984 . S
H1075 N1068 0.984 . S
H1076 N1064 0.984 . S
H1077 N1064 0.985 . S
C1078 C1079 1.363 . S
C1078 C1084 1.379 . S
C1078 N1086 1.356 . S
C1079 C1078 1.363 . S
C1079 C1085 1.363 . S
C1080 C1081 1.363 . S
C1080 C1085 1.379 . S
C1080 N1087 1.356 . S
C1081 C1080 1.363 . S
C1081 C1084 1.363 . S
N1082 C1084 1.356 . S
N1082 H1094 0.984 . S
N1082 H1095 0.985 . S
N1083 C1085 1.356 . S
N1083 H1088 0.984 . S
N1083 H1089 0.985 . S
C1084 C1078 1.379 . S
C1084 C1081 1.363 . S
C1084 N1082 1.356 . S
C1085 C1079 1.363 . S
C1085 C1080 1.379 . S
C1085 N1083 1.356 . S
N1086 C1078 1.356 . S
N1086 H1092 0.984 . S
N1086 H1093 0.984 . S
N1087 C1080 1.356 . S
N1087 H1090 0.984 . S
N1087 H1091 0.985 . S
H1088 N1083 0.984 . S
H1089 N1083 0.985 . S
H1090 N1087 0.984 . S
H1091 N1087 0.985 . S
H1092 N1086 0.984 . S
H1093 N1086 0.984 . S
H1094 N1082 0.984 . S
H1095 N1082 0.985 . S
C1096 C1097 1.363 . S
C1096 C1102 1.379 . S
C1096 N1104 1.356 . S
C1097 C1096 1.363 . S
C1097 C1103 1.363 . S
C1098 C1099 1.363 . S
C1098 C1103 1.379 . S
C1098 N1105 1.356 . S
C1099 C1098 1.363 . S
C1099 C1102 1.363 . S
N1100 C1102 1.356 . S
N1100 H1112 0.984 . S
N1100 H1113 0.985 . S
N1101 C1103 1.356 . S
N1101 H1106 0.984 . S
N1101 H1107 0.985 . S
C1102 C1096 1.379 . S
C1102 C1099 1.363 . S
C1102 N1100 1.356 . S
C1103 C1097 1.363 . S
C1103 C1098 1.379 . S
C1103 N1101 1.356 . S
N1104 C1096 1.356 . S
N1104 H1110 0.984 . S
N1104 H1111 0.984 . S
N1105 C1098 1.356 . S
N1105 H1108 0.984 . S
N1105 H1109 0.985 . S
H1106 N1101 0.984 . S
H1107 N1101 0.985 . S
H1108 N1105 0.984 . S
H1109 N1105 0.985 . S
H1110 N1104 0.984 . S
H1111 N1104 0.984 . S
H1112 N1100 0.984 . S
H1113 N1100 0.985 . S
C1114 C1115 1.363 . S
C1114 C1120 1.379 . S
C1114 N1122 1.356 . S
C1115 C1114 1.363 . S
C1115 C1121 1.363 . S
C1116 C1117 1.363 . S
C1116 C1121 1.379 . S
C1116 N1123 1.356 . S
C1117 C1116 1.363 . S
C1117 C1120 1.363 . S
N1118 C1120 1.356 . S
N1118 H1130 0.984 . S
N1118 H1131 0.985 . S
N1119 C1121 1.356 . S
N1119 H1124 0.984 . S
N1119 H1125 0.985 . S
C1120 C1114 1.379 . S
C1120 C1117 1.363 . S
C1120 N1118 1.356 . S
C1121 C1115 1.363 . S
C1121 C1116 1.379 . S
C1121 N1119 1.356 . S
N1122 C1114 1.356 . S
N1122 H1128 0.984 . S
N1122 H1129 0.984 . S
N1123 C1116 1.356 . S
N1123 H1126 0.984 . S
N1123 H1127 0.985 . S
H1124 N1119 0.984 . S
H1125 N1119 0.985 . S
H1126 N1123 0.984 . S
H1127 N1123 0.985 . S
H1128 N1122 0.984 . S
H1129 N1122 0.984 . S
H1130 N1118 0.984 . S
H1131 N1118 0.985 . S
C1132 C1133 1.363 . S
C1132 C1138 1.379 . S
C1132 N1140 1.356 . S
C1133 C1132 1.363 . S
C1133 C1139 1.363 . S
C1134 C1135 1.363 . S
C1134 C1139 1.379 . S
C1134 N1141 1.356 . S
C1135 C1134 1.363 . S
C1135 C1138 1.363 . S
N1136 C1138 1.356 . S
N1136 H1148 0.984 . S
N1136 H1149 0.985 . S
N1137 C1139 1.356 . S
N1137 H1142 0.984 . S
N1137 H1143 0.985 . S
C1138 C1132 1.379 . S
C1138 C1135 1.363 . S
C1138 N1136 1.356 . S
C1139 C1133 1.363 . S
C1139 C1134 1.379 . S
C1139 N1137 1.356 . S
N1140 C1132 1.356 . S
N1140 H1146 0.984 . S
N1140 H1147 0.984 . S
N1141 C1134 1.356 . S
N1141 H1144 0.984 . S
N1141 H1145 0.985 . S
H1142 N1137 0.984 . S
H1143 N1137 0.985 . S
H1144 N1141 0.984 . S
H1145 N1141 0.985 . S
H1146 N1140 0.984 . S
H1147 N1140 0.984 . S
H1148 N1136 0.984 . S
H1149 N1136 0.985 . S
C1150 C1151 1.363 . S
C1150 C1156 1.379 . S
C1150 N1158 1.356 . S
C1151 C1150 1.363 . S
C1151 C1157 1.363 . S
C1152 C1153 1.363 . S
C1152 C1157 1.379 . S
C1152 N1159 1.356 . S
C1153 C1152 1.363 . S
C1153 C1156 1.363 . S
N1154 C1156 1.356 . S
N1154 H1166 0.984 . S
N1154 H1167 0.985 . S
N1155 C1157 1.356 1_455 S
N1155 H1160 0.984 . S
N1155 H1161 0.985 . S
C1156 C1150 1.379 . S
C1156 C1153 1.363 . S
C1156 N1154 1.356 . S
C1157 C1151 1.363 . S
C1157 C1152 1.379 . S
C1157 N1155 1.356 1_655 S
N1158 C1150 1.356 . S
N1158 H1164 0.984 . S
N1158 H1165 0.984 1_655 S
N1159 C1152 1.356 . S
N1159 H1162 0.984 . S
N1159 H1163 0.985 . S
H1160 N1155 0.984 . S
H1161 N1155 0.985 . S
H1162 N1159 0.984 . S
H1163 N1159 0.985 . S
H1164 N1158 0.984 . S
H1165 N1158 0.984 1_455 S
H1166 N1154 0.984 . S
H1167 N1154 0.985 . S
C1168 C1169 1.363 . S
C1168 C1174 1.379 . S
C1168 N1176 1.356 . S
C1169 C1168 1.363 . S
C1169 C1175 1.363 . S
C1170 C1171 1.363 . S
C1170 C1175 1.379 . S
C1170 N1177 1.356 . S
C1171 C1170 1.363 . S
C1171 C1174 1.363 . S
N1172 C1174 1.356 . S
N1172 H1184 0.984 . S
N1172 H1185 0.985 . S
N1173 C1175 1.356 . S
N1173 H1178 0.984 . S
N1173 H1179 0.985 . S
C1174 C1168 1.379 . S
C1174 C1171 1.363 . S
C1174 N1172 1.356 . S
C1175 C1169 1.363 . S
C1175 C1170 1.379 . S
C1175 N1173 1.356 . S
N1176 C1168 1.356 . S
N1176 H1182 0.984 . S
N1176 H1183 0.984 . S
N1177 C1170 1.356 . S
N1177 H1180 0.984 . S
N1177 H1181 0.985 . S
H1178 N1173 0.984 . S
H1179 N1173 0.985 . S
H1180 N1177 0.984 . S
H1181 N1177 0.985 . S
H1182 N1176 0.984 . S
H1183 N1176 0.984 . S
H1184 N1172 0.984 . S
H1185 N1172 0.985 . S
C1186 C1187 1.363 . S
C1186 C1192 1.379 . S
C1186 N1194 1.356 . S
C1187 C1186 1.363 . S
C1187 C1193 1.363 . S
C1188 C1189 1.363 . S
C1188 C1193 1.379 1_455 S
C1188 N1195 1.356 . S
C1189 C1188 1.363 . S
C1189 C1192 1.363 1_455 S
N1190 C1192 1.356 . S
N1190 H1202 0.984 . S
N1190 H1203 0.985 1_655 S
N1191 C1193 1.356 . S
N1191 H1196 0.984 . S
N1191 H1197 0.985 . S
C1192 C1186 1.379 . S
C1192 C1189 1.363 1_655 S
C1192 N1190 1.356 . S
C1193 C1187 1.363 . S
C1193 C1188 1.379 1_655 S
C1193 N1191 1.356 . S
N1194 C1186 1.356 . S
N1194 H1200 0.984 . S
N1194 H1201 0.984 . S
N1195 C1188 1.356 . S
N1195 H1198 0.984 . S
N1195 H1199 0.985 . S
H1196 N1191 0.984 . S
H1197 N1191 0.985 . S
H1198 N1195 0.984 . S
H1199 N1195 0.985 . S
H1200 N1194 0.984 . S
H1201 N1194 0.984 . S
H1202 N1190 0.984 . S
H1203 N1190 0.985 1_455 S
C1204 C1205 1.363 . S
C1204 C1210 1.379 . S
C1204 N1212 1.356 . S
C1205 C1204 1.363 . S
C1205 C1211 1.363 . S
C1206 C1207 1.363 . S
C1206 C1211 1.379 . S
C1206 N1213 1.356 . S
C1207 C1206 1.363 . S
C1207 C1210 1.363 . S
N1208 C1210 1.356 . S
N1208 H1220 0.984 . S
N1208 H1221 0.985 . S
N1209 C1211 1.356 . S
N1209 H1214 0.984 . S
N1209 H1215 0.985 . S
C1210 C1204 1.379 . S
C1210 C1207 1.363 . S
C1210 N1208 1.356 . S
C1211 C1205 1.363 . S
C1211 C1206 1.379 . S
C1211 N1209 1.356 . S
N1212 C1204 1.356 . S
N1212 H1218 0.984 . S
N1212 H1219 0.984 . S
N1213 C1206 1.356 . S
N1213 H1216 0.984 . S
N1213 H1217 0.985 . S
H1214 N1209 0.984 . S
H1215 N1209 0.985 . S
H1216 N1213 0.984 . S
H1217 N1213 0.985 . S
H1218 N1212 0.984 . S
H1219 N1212 0.984 . S
H1220 N1208 0.984 . S
H1221 N1208 0.985 . S
C1222 C1223 1.363 . S
C1222 C1228 1.379 . S
C1222 N1230 1.356 . S
C1223 C1222 1.363 . S
C1223 C1229 1.363 . S
C1224 C1225 1.363 . S
C1224 C1229 1.379 . S
C1224 N1231 1.356 . S
C1225 C1224 1.363 . S
C1225 C1228 1.363 . S
N1226 C1228 1.356 . S
N1226 H1238 0.984 . S
N1226 H1239 0.985 . S
N1227 C1229 1.356 . S
N1227 H1232 0.984 . S
N1227 H1233 0.985 . S
C1228 C1222 1.379 . S
C1228 C1225 1.363 . S
C1228 N1226 1.356 . S
C1229 C1223 1.363 . S
C1229 C1224 1.379 . S
C1229 N1227 1.356 . S
N1230 C1222 1.356 . S
N1230 H1236 0.984 . S
N1230 H1237 0.984 . S
N1231 C1224 1.356 . S
N1231 H1234 0.984 . S
N1231 H1235 0.985 . S
H1232 N1227 0.984 . S
H1233 N1227 0.985 . S
H1234 N1231 0.984 . S
H1235 N1231 0.985 . S
H1236 N1230 0.984 . S
H1237 N1230 0.984 . S
H1238 N1226 0.984 . S
H1239 N1226 0.985 . S
C1240 C1241 1.363 . S
C1240 C1246 1.379 . S
C1240 N1248 1.356 . S
C1241 C1240 1.363 . S
C1241 C1247 1.363 . S
C1242 C1243 1.363 . S
C1242 C1247 1.379 . S
C1242 N1249 1.356 . S
C1243 C1242 1.363 . S
C1243 C1246 1.363 . S
N1244 C1246 1.356 . S
N1244 H1256 0.984 . S
N1244 H1257 0.985 . S
N1245 C1247 1.356 . S
N1245 H1250 0.984 . S
N1245 H1251 0.985 . S
C1246 C1240 1.379 . S
C1246 C1243 1.363 . S
C1246 N1244 1.356 . S
C1247 C1241 1.363 . S
C1247 C1242 1.379 . S
C1247 N1245 1.356 . S
N1248 C1240 1.356 . S
N1248 H1254 0.984 . S
N1248 H1255 0.984 . S
N1249 C1242 1.356 . S
N1249 H1252 0.984 . S
N1249 H1253 0.985 . S
H1250 N1245 0.984 . S
H1251 N1245 0.985 . S
H1252 N1249 0.984 . S
H1253 N1249 0.985 . S
H1254 N1248 0.984 . S
H1255 N1248 0.984 . S
H1256 N1244 0.984 . S
H1257 N1244 0.985 . S
C1258 C1259 1.363 . S
C1258 C1264 1.379 . S
C1258 N1266 1.356 . S
C1259 C1258 1.363 . S
C1259 C1265 1.363 . S
C1260 C1261 1.363 . S
C1260 C1265 1.379 . S
C1260 N1267 1.356 . S
C1261 C1260 1.363 . S
C1261 C1264 1.363 . S
N1262 C1264 1.356 . S
N1262 H1274 0.984 . S
N1262 H1275 0.985 . S
N1263 C1265 1.356 . S
N1263 H1268 0.984 . S
N1263 H1269 0.985 . S
C1264 C1258 1.379 . S
C1264 C1261 1.363 . S
C1264 N1262 1.356 . S
C1265 C1259 1.363 . S
C1265 C1260 1.379 . S
C1265 N1263 1.356 . S
N1266 C1258 1.356 . S
N1266 H1272 0.984 . S
N1266 H1273 0.984 . S
N1267 C1260 1.356 . S
N1267 H1270 0.984 . S
N1267 H1271 0.985 . S
H1268 N1263 0.984 . S
H1269 N1263 0.985 . S
H1270 N1267 0.984 . S
H1271 N1267 0.985 . S
H1272 N1266 0.984 . S
H1273 N1266 0.984 . S
H1274 N1262 0.984 . S
H1275 N1262 0.985 . S
C1276 C1277 1.363 . S
C1276 C1282 1.379 . S
C1276 N1284 1.356 . S
C1277 C1276 1.363 . S
C1277 C1283 1.363 . S
C1278 C1279 1.363 . S
C1278 C1283 1.379 . S
C1278 N1285 1.356 . S
C1279 C1278 1.363 . S
C1279 C1282 1.363 . S
N1280 C1282 1.356 . S
N1280 H1292 0.984 . S
N1280 H1293 0.985 . S
N1281 C1283 1.356 . S
N1281 H1286 0.984 . S
N1281 H1287 0.985 . S
C1282 C1276 1.379 . S
C1282 C1279 1.363 . S
C1282 N1280 1.356 . S
C1283 C1277 1.363 . S
C1283 C1278 1.379 . S
C1283 N1281 1.356 . S
N1284 C1276 1.356 . S
N1284 H1290 0.984 . S
N1284 H1291 0.984 . S
N1285 C1278 1.356 . S
N1285 H1288 0.984 . S
N1285 H1289 0.985 . S
H1286 N1281 0.984 . S
H1287 N1281 0.985 . S
H1288 N1285 0.984 . S
H1289 N1285 0.985 . S
H1290 N1284 0.984 . S
H1291 N1284 0.984 . S
H1292 N1280 0.984 . S
H1293 N1280 0.985 . S
C1294 C1295 1.363 . S
C1294 C1300 1.379 1_455 S
C1294 N1302 1.356 . S
C1295 C1294 1.363 . S
C1295 C1301 1.363 1_455 S
C1296 C1297 1.363 . S
C1296 C1301 1.379 . S
C1296 N1303 1.356 . S
C1297 C1296 1.363 . S
C1297 C1300 1.363 . S
N1298 C1300 1.356 . S
N1298 H1310 0.984 . S
N1298 H1311 0.985 . S
N1299 C1301 1.356 1_455 S
N1299 H1304 0.984 . S
N1299 H1305 0.985 . S
C1300 C1294 1.379 1_655 S
C1300 C1297 1.363 . S
C1300 N1298 1.356 . S
C1301 C1295 1.363 1_655 S
C1301 C1296 1.379 . S
C1301 N1299 1.356 1_655 S
N1302 C1294 1.356 . S
N1302 H1308 0.984 . S
N1302 H1309 0.984 . S
N1303 C1296 1.356 . S
N1303 H1306 0.984 . S
N1303 H1307 0.985 . S
H1304 N1299 0.984 . S
H1305 N1299 0.985 . S
H1306 N1303 0.984 . S
H1307 N1303 0.985 . S
H1308 N1302 0.984 . S
H1309 N1302 0.984 . S
H1310 N1298 0.984 . S
H1311 N1298 0.985 . S
C1312 C1313 1.363 . S
C1312 C1318 1.379 . S
C1312 N1320 1.356 . S
C1313 C1312 1.363 . S
C1313 C1319 1.363 . S
C1314 C1315 1.363 . S
C1314 C1319 1.379 . S
C1314 N1321 1.356 . S
C1315 C1314 1.363 . S
C1315 C1318 1.363 . S
N1316 C1318 1.356 . S
N1316 H1328 0.984 . S
N1316 H1329 0.985 . S
N1317 C1319 1.356 . S
N1317 H1322 0.984 . S
N1317 H1323 0.985 . S
C1318 C1312 1.379 . S
C1318 C1315 1.363 . S
C1318 N1316 1.356 . S
C1319 C1313 1.363 . S
C1319 C1314 1.379 . S
C1319 N1317 1.356 . S
N1320 C1312 1.356 . S
N1320 H1326 0.984 . S
N1320 H1327 0.984 . S
N1321 C1314 1.356 . S
N1321 H1324 0.984 . S
N1321 H1325 0.985 . S
H1322 N1317 0.984 . S
H1323 N1317 0.985 . S
H1324 N1321 0.984 . S
H1325 N1321 0.985 . S
H1326 N1320 0.984 . S
H1327 N1320 0.984 . S
H1328 N1316 0.984 . S
H1329 N1316 0.985 . S
C1330 C1331 1.363 . S
C1330 C1336 1.379 . S
C1330 N1338 1.356 . S
C1331 C1330 1.363 . S
C1331 C1337 1.363 . S
C1332 C1333 1.363 . S
C1332 C1337 1.379 . S
C1332 N1339 1.356 . S
C1333 C1332 1.363 . S
C1333 C1336 1.363 . S
N1334 C1336 1.356 . S
N1334 H1346 0.984 . S
N1334 H1347 0.985 . S
N1335 C1337 1.356 . S
N1335 H1340 0.984 . S
N1335 H1341 0.985 . S
C1336 C1330 1.379 . S
C1336 C1333 1.363 . S
C1336 N1334 1.356 . S
C1337 C1331 1.363 . S
C1337 C1332 1.379 . S
C1337 N1335 1.356 . S
N1338 C1330 1.356 . S
N1338 H1344 0.984 . S
N1338 H1345 0.984 . S
N1339 C1332 1.356 . S
N1339 H1342 0.984 . S
N1339 H1343 0.985 . S
H1340 N1335 0.984 . S
H1341 N1335 0.985 . S
H1342 N1339 0.984 . S
H1343 N1339 0.985 . S
H1344 N1338 0.984 . S
H1345 N1338 0.984 . S
H1346 N1334 0.984 . S
H1347 N1334 0.985 . S
C1348 C1349 1.363 . S
C1348 C1354 1.379 . S
C1348 N1356 1.356 . S
C1349 C1348 1.363 . S
C1349 C1355 1.363 . S
C1350 C1351 1.363 . S
C1350 C1355 1.379 . S
C1350 N1357 1.356 . S
C1351 C1350 1.363 . S
C1351 C1354 1.363 . S
N1352 C1354 1.356 . S
N1352 H1364 0.984 . S
N1352 H1365 0.985 . S
N1353 C1355 1.356 . S
N1353 H1358 0.984 . S
N1353 H1359 0.985 . S
C1354 C1348 1.379 . S
C1354 C1351 1.363 . S
C1354 N1352 1.356 . S
C1355 C1349 1.363 . S
C1355 C1350 1.379 . S
C1355 N1353 1.356 . S
N1356 C1348 1.356 . S
N1356 H1362 0.984 . S
N1356 H1363 0.984 . S
N1357 C1350 1.356 . S
N1357 H1360 0.984 . S
N1357 H1361 0.985 . S
H1358 N1353 0.984 . S
H1359 N1353 0.985 . S
H1360 N1357 0.984 . S
H1361 N1357 0.985 . S
H1362 N1356 0.984 . S
H1363 N1356 0.984 . S
H1364 N1352 0.984 . S
H1365 N1352 0.985 . S
C1366 C1367 1.363 . S
C1366 C1372 1.379 . S
C1366 N1374 1.356 . S
C1367 C1366 1.363 . S
C1367 C1373 1.363 . S
C1368 C1369 1.363 . S
C1368 C1373 1.379 . S
C1368 N1375 1.356 . S
C1369 C1368 1.363 . S
C1369 C1372 1.363 . S
N1370 C1372 1.356 1_655 S
N1370 H1382 0.984 . S
N1370 H1383 0.985 . S
N1371 C1373 1.356 . S
N1371 H1376 0.984 . S
N1371 H1377 0.985 . S
C1372 C1366 1.379 . S
C1372 C1369 1.363 . S
C1372 N1370 1.356 1_455 S
C1373 C1367 1.363 . S
C1373 C1368 1.379 . S
C1373 N1371 1.356 . S
N1374 C1366 1.356 . S
N1374 H1380 0.984 . S
N1374 H1381 0.984 . S
N1375 C1368 1.356 . S
N1375 H1378 0.984 1_455 S
N1375 H1379 0.985 . S
H1376 N1371 0.984 . S
H1377 N1371 0.985 . S
H1378 N1375 0.984 1_655 S
H1379 N1375 0.985 . S
H1380 N1374 0.984 . S
H1381 N1374 0.984 . S
H1382 N1370 0.984 . S
H1383 N1370 0.985 . S
C1384 C1385 1.363 . S
C1384 C1390 1.379 . S
C1384 N1392 1.356 . S
C1385 C1384 1.363 . S
C1385 C1391 1.363 . S
C1386 C1387 1.363 . S
C1386 C1391 1.379 . S
C1386 N1393 1.356 . S
C1387 C1386 1.363 . S
C1387 C1390 1.363 . S
N1388 C1390 1.356 . S
N1388 H1400 0.984 . S
N1388 H1401 0.985 . S
N1389 C1391 1.356 . S
N1389 H1394 0.984 . S
N1389 H1395 0.985 . S
C1390 C1384 1.379 . S
C1390 C1387 1.363 . S
C1390 N1388 1.356 . S
C1391 C1385 1.363 . S
C1391 C1386 1.379 . S
C1391 N1389 1.356 . S
N1392 C1384 1.356 . S
N1392 H1398 0.984 . S
N1392 H1399 0.984 . S
N1393 C1386 1.356 . S
N1393 H1396 0.984 . S
N1393 H1397 0.985 . S
H1394 N1389 0.984 . S
H1395 N1389 0.985 . S
H1396 N1393 0.984 . S
H1397 N1393 0.985 . S
H1398 N1392 0.984 . S
H1399 N1392 0.984 . S
H1400 N1388 0.984 . S
H1401 N1388 0.985 . S
C1402 C1403 1.363 . S
C1402 C1408 1.379 . S
C1402 N1410 1.351 1_455 S
C1403 C1402 1.363 . S
C1403 C1409 1.363 . S
C1404 C1405 1.363 . S
C1404 C1409 1.379 . S
C1404 N1411 1.356 . S
C1405 C1404 1.363 . S
C1405 C1408 1.363 . S
N1406 C1408 1.356 . S
N1406 H1418 0.984 . S
N1406 H1419 0.985 . S
N1407 C1409 1.356 1_655 S
N1407 H1412 0.984 . S
N1407 H1413 0.985 . S
C1408 C1402 1.379 . S
C1408 C1405 1.363 . S
C1408 N1406 1.356 . S
C1409 C1403 1.363 . S
C1409 C1404 1.379 . S
C1409 N1407 1.356 1_455 S
N1410 C1402 1.351 1_655 S
N1410 H1416 0.982 1_655 S
N1410 H1417 0.992 . S
N1411 C1404 1.356 . S
N1411 H1414 0.984 . S
N1411 H1415 0.985 . S
H1412 N1407 0.984 . S
H1413 N1407 0.985 . S
H1414 N1411 0.984 . S
H1415 N1411 0.985 . S
H1416 N1410 0.982 1_455 S
H1417 N1410 0.992 . S
H1418 N1406 0.984 . S
H1419 N1406 0.985 . S
C1420 C1421 1.363 . S
C1420 C1426 1.379 . S
C1420 N1428 1.356 . S
C1421 C1420 1.363 . S
C1421 C1427 1.363 . S
C1422 C1423 1.363 . S
C1422 C1427 1.379 . S
C1422 N1429 1.356 . S
C1423 C1422 1.363 . S
C1423 C1426 1.363 . S
N1424 C1426 1.356 . S
N1424 H1436 0.984 . S
N1424 H1437 0.985 . S
N1425 C1427 1.356 . S
N1425 H1430 0.984 . S
N1425 H1431 0.985 . S
C1426 C1420 1.379 . S
C1426 C1423 1.363 . S
C1426 N1424 1.356 . S
C1427 C1421 1.363 . S
C1427 C1422 1.379 . S
C1427 N1425 1.356 . S
N1428 C1420 1.356 . S
N1428 H1434 0.984 . S
N1428 H1435 0.984 . S
N1429 C1422 1.356 . S
N1429 H1432 0.984 . S
N1429 H1433 0.985 . S
H1430 N1425 0.984 . S
H1431 N1425 0.985 . S
H1432 N1429 0.984 . S
H1433 N1429 0.985 . S
H1434 N1428 0.984 . S
H1435 N1428 0.984 . S
H1436 N1424 0.984 . S
H1437 N1424 0.985 . S
C1438 C1439 1.363 . S
C1438 C1444 1.379 . S
C1438 N1446 1.356 . S
C1439 C1438 1.363 . S
C1439 C1445 1.363 . S
C1440 C1441 1.363 . S
C1440 C1445 1.379 . S
C1440 N1447 1.356 . S
C1441 C1440 1.363 . S
C1441 C1444 1.363 . S
N1442 C1444 1.356 . S
N1442 H1454 0.984 . S
N1442 H1455 0.985 . S
N1443 C1445 1.356 . S
N1443 H1448 0.984 . S
N1443 H1449 0.985 . S
C1444 C1438 1.379 . S
C1444 C1441 1.363 . S
C1444 N1442 1.356 . S
C1445 C1439 1.363 . S
C1445 C1440 1.379 . S
C1445 N1443 1.356 . S
N1446 C1438 1.356 . S
N1446 H1452 0.984 . S
N1446 H1453 0.984 . S
N1447 C1440 1.356 . S
N1447 H1450 0.984 . S
N1447 H1451 0.985 . S
H1448 N1443 0.984 . S
H1449 N1443 0.985 . S
H1450 N1447 0.984 . S
H1451 N1447 0.985 . S
H1452 N1446 0.984 . S
H1453 N1446 0.984 . S
H1454 N1442 0.984 . S
H1455 N1442 0.985 . S
C1456 C1457 1.363 . S
C1456 C1462 1.379 . S
C1456 N1464 1.356 . S
C1457 C1456 1.363 . S
C1457 C1463 1.363 . S
C1458 C1459 1.363 . S
C1458 C1463 1.379 . S
C1458 N1465 1.356 . S
C1459 C1458 1.363 . S
C1459 C1462 1.363 . S
N1460 C1462 1.356 . S
N1460 H1472 0.984 . S
N1460 H1473 0.985 . S
N1461 C1463 1.356 . S
N1461 H1466 0.984 . S
N1461 H1467 0.985 . S
C1462 C1456 1.379 . S
C1462 C1459 1.363 . S
C1462 N1460 1.356 . S
C1463 C1457 1.363 . S
C1463 C1458 1.379 . S
C1463 N1461 1.356 . S
N1464 C1456 1.356 . S
N1464 H1470 0.984 . S
N1464 H1471 0.984 . S
N1465 C1458 1.356 . S
N1465 H1468 0.984 . S
N1465 H1469 0.985 . S
H1466 N1461 0.984 . S
H1467 N1461 0.985 . S
H1468 N1465 0.984 . S
H1469 N1465 0.985 . S
H1470 N1464 0.984 . S
H1471 N1464 0.984 . S
H1472 N1460 0.984 . S
H1473 N1460 0.985 . S
C1474 C1475 1.363 . S
C1474 C1480 1.379 . S
C1474 N1482 1.356 . S
C1475 C1474 1.363 . S
C1475 C1481 1.363 . S
C1476 C1477 1.363 . S
C1476 C1481 1.379 . S
C1476 N1483 1.356 . S
C1477 C1476 1.363 . S
C1477 C1480 1.363 . S
N1478 C1480 1.356 . S
N1478 H1490 0.984 . S
N1478 H1491 0.985 . S
N1479 C1481 1.356 . S
N1479 H1484 0.984 . S
N1479 H1485 0.985 . S
C1480 C1474 1.379 . S
C1480 C1477 1.363 . S
C1480 N1478 1.356 . S
C1481 C1475 1.363 . S
C1481 C1476 1.379 . S
C1481 N1479 1.356 . S
N1482 C1474 1.356 . S
N1482 H1488 0.984 . S
N1482 H1489 0.984 . S
N1483 C1476 1.356 . S
N1483 H1486 0.984 . S
N1483 H1487 0.985 . S
H1484 N1479 0.984 . S
H1485 N1479 0.985 . S
H1486 N1483 0.984 . S
H1487 N1483 0.985 . S
H1488 N1482 0.984 . S
H1489 N1482 0.984 . S
H1490 N1478 0.984 . S
H1491 N1478 0.985 . S
C1492 C1493 1.363 . S
C1492 C1498 1.379 . S
C1492 N1500 1.356 . S
C1493 C1492 1.363 . S
C1493 C1499 1.363 . S
C1494 C1495 1.363 . S
C1494 C1499 1.379 . S
C1494 N1501 1.356 . S
C1495 C1494 1.363 . S
C1495 C1498 1.363 . S
N1496 C1498 1.356 . S
N1496 H1508 0.984 . S
N1496 H1509 0.985 . S
N1497 C1499 1.356 . S
N1497 H1502 0.984 . S
N1497 H1503 0.985 . S
C1498 C1492 1.379 . S
C1498 C1495 1.363 . S
C1498 N1496 1.356 . S
C1499 C1493 1.363 . S
C1499 C1494 1.379 . S
C1499 N1497 1.356 . S
N1500 C1492 1.356 . S
N1500 H1506 0.984 . S
N1500 H1507 0.984 . S
N1501 C1494 1.356 . S
N1501 H1504 0.984 . S
N1501 H1505 0.985 . S
H1502 N1497 0.984 . S
H1503 N1497 0.985 . S
H1504 N1501 0.984 . S
H1505 N1501 0.985 . S
H1506 N1500 0.984 . S
H1507 N1500 0.984 . S
H1508 N1496 0.984 . S
H1509 N1496 0.985 . S
C1510 C1511 1.363 . S
C1510 C1516 1.379 1_655 S
C1510 N1518 1.356 . S
C1511 C1510 1.363 . S
C1511 C1517 1.363 1_655 S
C1512 C1513 1.363 . S
C1512 C1517 1.379 . S
C1512 N1519 1.356 . S
C1513 C1512 1.363 . S
C1513 C1516 1.363 . S
N1514 C1516 1.356 . S
N1514 H1526 0.984 . S
N1514 H1527 0.985 . S
N1515 C1517 1.356 1_655 S
N1515 H1520 0.984 . S
N1515 H1521 0.985 1_655 S
C1516 C1510 1.379 1_455 S
C1516 C1513 1.363 . S
C1516 N1514 1.356 . S
C1517 C1511 1.363 1_455 S
C1517 C1512 1.379 . S
C1517 N1515 1.356 1_455 S
N1518 C1510 1.356 . S
N1518 H1524 0.984 . S
N1518 H1525 0.984 . S
N1519 C1512 1.356 . S
N1519 H1522 0.984 . S
N1519 H1523 0.985 . S
H1520 N1515 0.984 . S
H1521 N1515 0.985 1_455 S
H1522 N1519 0.984 . S
H1523 N1519 0.985 . S
H1524 N1518 0.984 . S
H1525 N1518 0.984 . S
H1526 N1514 0.984 . S
H1527 N1514 0.985 . S
C1528 C1529 1.363 . S
C1528 C1534 1.379 . S
C1528 N1536 1.356 . S
C1529 C1528 1.363 . S
C1529 C1535 1.363 . S
C1530 C1531 1.363 . S
C1530 C1535 1.379 . S
C1530 N1537 1.356 . S
C1531 C1530 1.363 . S
C1531 C1534 1.363 . S
N1532 C1534 1.356 . S
N1532 H1544 0.984 . S
N1532 H1545 0.985 . S
N1533 C1535 1.356 . S
N1533 H1538 0.984 . S
N1533 H1539 0.985 . S
C1534 C1528 1.379 . S
C1534 C1531 1.363 . S
C1534 N1532 1.356 . S
C1535 C1529 1.363 . S
C1535 C1530 1.379 . S
C1535 N1533 1.356 . S
N1536 C1528 1.356 . S
N1536 H1542 0.984 . S
N1536 H1543 0.984 . S
N1537 C1530 1.356 . S
N1537 H1540 0.984 . S
N1537 H1541 0.985 . S
H1538 N1533 0.984 . S
H1539 N1533 0.985 . S
H1540 N1537 0.984 . S
H1541 N1537 0.985 . S
H1542 N1536 0.984 . S
H1543 N1536 0.984 . S
H1544 N1532 0.984 . S
H1545 N1532 0.985 . S
C1546 C1547 1.363 . S
C1546 C1552 1.379 1_455 S
C1546 N1554 1.356 . S
C1547 C1546 1.363 . S
C1547 C1553 1.363 . S
C1548 C1549 1.363 1_455 S
C1548 C1553 1.379 . S
C1548 N1555 1.356 1_455 S
C1549 C1548 1.363 1_655 S
C1549 C1552 1.363 . S
N1550 C1552 1.356 . S
N1550 H1562 0.984 . S
N1550 H1563 0.985 . S
N1551 C1553 1.356 . S
N1551 H1556 0.984 . S
N1551 H1557 0.985 . S
C1552 C1546 1.379 1_655 S
C1552 C1549 1.363 . S
C1552 N1550 1.356 . S
C1553 C1547 1.363 . S
C1553 C1548 1.379 . S
C1553 N1551 1.356 . S
N1554 C1546 1.356 . S
N1554 H1560 0.984 . S
N1554 H1561 0.984 . S
N1555 C1548 1.356 1_655 S
N1555 H1558 0.984 . S
N1555 H1559 0.985 . S
H1556 N1551 0.984 . S
H1557 N1551 0.985 . S
H1558 N1555 0.984 . S
H1559 N1555 0.985 . S
H1560 N1554 0.984 . S
H1561 N1554 0.984 . S
H1562 N1550 0.984 . S
H1563 N1550 0.985 . S
C1564 C1565 1.363 . S
C1564 C1570 1.379 . S
C1564 N1572 1.356 . S
C1565 C1564 1.363 . S
C1565 C1571 1.363 . S
C1566 C1567 1.363 . S
C1566 C1571 1.379 . S
C1566 N1573 1.356 . S
C1567 C1566 1.363 . S
C1567 C1570 1.363 . S
N1568 C1570 1.356 . S
N1568 H1580 0.984 . S
N1568 H1581 0.985 . S
N1569 C1571 1.356 . S
N1569 H1574 0.984 . S
N1569 H1575 0.985 . S
C1570 C1564 1.379 . S
C1570 C1567 1.363 . S
C1570 N1568 1.356 . S
C1571 C1565 1.363 . S
C1571 C1566 1.379 . S
C1571 N1569 1.356 . S
N1572 C1564 1.356 . S
N1572 H1578 0.984 . S
N1572 H1579 0.984 . S
N1573 C1566 1.356 . S
N1573 H1576 0.984 . S
N1573 H1577 0.985 . S
H1574 N1569 0.984 . S
H1575 N1569 0.985 . S
H1576 N1573 0.984 . S
H1577 N1573 0.985 . S
H1578 N1572 0.984 . S
H1579 N1572 0.984 . S
H1580 N1568 0.984 . S
H1581 N1568 0.985 . S
C1582 C1583 1.363 . S
C1582 C1588 1.379 . S
C1582 N1590 1.356 . S
C1583 C1582 1.363 . S
C1583 C1589 1.363 . S
C1584 C1585 1.363 . S
C1584 C1589 1.379 . S
C1584 N1591 1.356 . S
C1585 C1584 1.363 . S
C1585 C1588 1.363 . S
N1586 C1588 1.356 . S
N1586 H1598 0.984 . S
N1586 H1599 0.985 . S
N1587 C1589 1.356 . S
N1587 H1592 0.984 . S
N1587 H1593 0.985 . S
C1588 C1582 1.379 . S
C1588 C1585 1.363 . S
C1588 N1586 1.356 . S
C1589 C1583 1.363 . S
C1589 C1584 1.379 . S
C1589 N1587 1.356 . S
N1590 C1582 1.356 . S
N1590 H1596 0.984 . S
N1590 H1597 0.984 . S
N1591 C1584 1.356 . S
N1591 H1594 0.984 . S
N1591 H1595 0.985 . S
H1592 N1587 0.984 . S
H1593 N1587 0.985 . S
H1594 N1591 0.984 . S
H1595 N1591 0.985 . S
H1596 N1590 0.984 . S
H1597 N1590 0.984 . S
H1598 N1586 0.984 . S
H1599 N1586 0.985 . S
C1600 C1601 1.363 . S
C1600 C1606 1.379 . S
C1600 N1608 1.356 . S
C1601 C1600 1.363 . S
C1601 C1607 1.363 . S
C1602 C1603 1.363 . S
C1602 C1607 1.379 . S
C1602 N1609 1.356 . S
C1603 C1602 1.363 . S
C1603 C1606 1.363 . S
N1604 C1606 1.356 . S
N1604 H1616 0.984 . S
N1604 H1617 0.985 . S
N1605 C1607 1.356 . S
N1605 H1610 0.984 . S
N1605 H1611 0.985 . S
C1606 C1600 1.379 . S
C1606 C1603 1.363 . S
C1606 N1604 1.356 . S
C1607 C1601 1.363 . S
C1607 C1602 1.379 . S
C1607 N1605 1.356 . S
N1608 C1600 1.356 . S
N1608 H1614 0.984 . S
N1608 H1615 0.984 . S
N1609 C1602 1.356 . S
N1609 H1612 0.984 . S
N1609 H1613 0.985 . S
H1610 N1605 0.984 . S
H1611 N1605 0.985 . S
H1612 N1609 0.984 . S
H1613 N1609 0.985 . S
H1614 N1608 0.984 . S
H1615 N1608 0.984 . S
H1616 N1604 0.984 . S
H1617 N1604 0.985 . S
C1618 C1619 1.363 . S
C1618 C1624 1.379 . S
C1618 N1626 1.356 . S
C1619 C1618 1.363 . S
C1619 C1625 1.363 . S
C1620 C1621 1.363 . S
C1620 C1625 1.379 . S
C1620 N1627 1.356 . S
C1621 C1620 1.363 . S
C1621 C1624 1.363 . S
N1622 C1624 1.356 . S
N1622 H1634 0.984 . S
N1622 H1635 0.985 . S
N1623 C1625 1.356 . S
N1623 H1628 0.984 . S
N1623 H1629 0.985 . S
C1624 C1618 1.379 . S
C1624 C1621 1.363 . S
C1624 N1622 1.356 . S
C1625 C1619 1.363 . S
C1625 C1620 1.379 . S
C1625 N1623 1.356 . S
N1626 C1618 1.356 . S
N1626 H1632 0.984 . S
N1626 H1633 0.984 . S
N1627 C1620 1.356 . S
N1627 H1630 0.984 . S
N1627 H1631 0.985 . S
H1628 N1623 0.984 . S
H1629 N1623 0.985 . S
H1630 N1627 0.984 . S
H1631 N1627 0.985 . S
H1632 N1626 0.984 . S
H1633 N1626 0.984 . S
H1634 N1622 0.984 . S
H1635 N1622 0.985 . S
C1636 C1637 1.363 . S
C1636 C1642 1.379 . S
C1636 N1644 1.356 . S
C1637 C1636 1.363 . S
C1637 C1643 1.363 . S
C1638 C1639 1.363 . S
C1638 C1643 1.379 . S
C1638 N1645 1.356 . S
C1639 C1638 1.363 . S
C1639 C1642 1.363 . S
N1640 C1642 1.356 . S
N1640 H1652 0.984 . S
N1640 H1653 0.985 . S
N1641 C1643 1.356 . S
N1641 H1646 0.984 . S
N1641 H1647 0.985 . S
C1642 C1636 1.379 . S
C1642 C1639 1.363 . S
C1642 N1640 1.356 . S
C1643 C1637 1.363 . S
C1643 C1638 1.379 . S
C1643 N1641 1.356 . S
N1644 C1636 1.356 . S
N1644 H1650 0.984 . S
N1644 H1651 0.984 . S
N1645 C1638 1.356 . S
N1645 H1648 0.984 . S
N1645 H1649 0.985 . S
H1646 N1641 0.984 . S
H1647 N1641 0.985 . S
H1648 N1645 0.984 . S
H1649 N1645 0.985 . S
H1650 N1644 0.984 . S
H1651 N1644 0.984 . S
H1652 N1640 0.984 . S
H1653 N1640 0.985 . S
C1654 C1655 1.363 1_554 S
C1654 C1660 1.379 . S
C1654 N1662 1.356 . S
C1655 C1654 1.363 1_556 S
C1655 C1661 1.363 . S
C1656 C1657 1.363 1_556 S
C1656 C1661 1.379 . S
C1656 N1663 1.356 . S
C1657 C1656 1.363 1_554 S
C1657 C1660 1.363 . S
N1658 C1660 1.356 . S
N1658 H1670 0.984 . S
N1658 H1671 0.985 . S
N1659 C1661 1.356 . S
N1659 H1664 0.984 . S
N1659 H1665 0.985 . S
C1660 C1654 1.379 . S
C1660 C1657 1.363 . S
C1660 N1658 1.356 . S
C1661 C1655 1.363 . S
C1661 C1656 1.379 . S
C1661 N1659 1.356 . S
N1662 C1654 1.356 . S
N1662 H1668 0.984 . S
N1662 H1669 0.984 . S
N1663 C1656 1.356 . S
N1663 H1666 0.984 . S
N1663 H1667 0.985 . S
H1664 N1659 0.984 . S
H1665 N1659 0.985 . S
H1666 N1663 0.984 . S
H1667 N1663 0.985 . S
H1668 N1662 0.984 . S
H1669 N1662 0.984 . S
H1670 N1658 0.984 . S
H1671 N1658 0.985 . S
C1672 C1673 1.363 . S
C1672 C1678 1.379 . S
C1672 N1680 1.356 . S
C1673 C1672 1.363 . S
C1673 C1679 1.363 . S
C1674 C1675 1.363 . S
C1674 C1679 1.379 . S
C1674 N1681 1.356 . S
C1675 C1674 1.363 . S
C1675 C1678 1.363 . S
N1676 C1678 1.356 . S
N1676 H1688 0.984 . S
N1676 H1689 0.985 . S
N1677 C1679 1.356 . S
N1677 H1682 0.984 . S
N1677 H1683 0.985 . S
C1678 C1672 1.379 . S
C1678 C1675 1.363 . S
C1678 N1676 1.356 . S
C1679 C1673 1.363 . S
C1679 C1674 1.379 . S
C1679 N1677 1.356 . S
N1680 C1672 1.356 . S
N1680 H1686 0.984 . S
N1680 H1687 0.984 . S
N1681 C1674 1.356 . S
N1681 H1684 0.984 . S
N1681 H1685 0.985 . S
H1682 N1677 0.984 . S
H1683 N1677 0.985 . S
H1684 N1681 0.984 . S
H1685 N1681 0.985 . S
H1686 N1680 0.984 . S
H1687 N1680 0.984 . S
H1688 N1676 0.984 . S
H1689 N1676 0.985 . S
C1690 C1691 1.363 . S
C1690 C1696 1.379 . S
C1690 N1698 1.356 . S
C1691 C1690 1.363 . S
C1691 C1697 1.363 . S
C1692 C1693 1.363 . S
C1692 C1697 1.379 . S
C1692 N1699 1.356 . S
C1693 C1692 1.363 . S
C1693 C1696 1.363 . S
N1694 C1696 1.356 . S
N1694 H1706 0.984 . S
N1694 H1707 0.985 . S
N1695 C1697 1.356 . S
N1695 H1700 0.984 . S
N1695 H1701 0.985 . S
C1696 C1690 1.379 . S
C1696 C1693 1.363 . S
C1696 N1694 1.356 . S
C1697 C1691 1.363 . S
C1697 C1692 1.379 . S
C1697 N1695 1.356 . S
N1698 C1690 1.356 . S
N1698 H1704 0.984 . S
N1698 H1705 0.984 . S
N1699 C1692 1.356 . S
N1699 H1702 0.984 . S
N1699 H1703 0.985 . S
H1700 N1695 0.984 . S
H1701 N1695 0.985 . S
H1702 N1699 0.984 . S
H1703 N1699 0.985 . S
H1704 N1698 0.984 . S
H1705 N1698 0.984 . S
H1706 N1694 0.984 . S
H1707 N1694 0.985 . S
C1708 C1709 1.363 . S
C1708 C1714 1.379 . S
C1708 N1716 1.356 . S
C1709 C1708 1.363 . S
C1709 C1715 1.363 . S
C1710 C1711 1.363 . S
C1710 C1715 1.379 . S
C1710 N1717 1.356 . S
C1711 C1710 1.363 . S
C1711 C1714 1.363 . S
N1712 C1714 1.356 . S
N1712 H1724 0.984 . S
N1712 H1725 0.985 . S
N1713 C1715 1.356 . S
N1713 H1718 0.984 . S
N1713 H1719 0.985 . S
C1714 C1708 1.379 . S
C1714 C1711 1.363 . S
C1714 N1712 1.356 . S
C1715 C1709 1.363 . S
C1715 C1710 1.379 . S
C1715 N1713 1.356 . S
N1716 C1708 1.356 . S
N1716 H1722 0.984 . S
N1716 H1723 0.984 . S
N1717 C1710 1.356 . S
N1717 H1720 0.984 . S
N1717 H1721 0.985 . S
H1718 N1713 0.984 . S
H1719 N1713 0.985 . S
H1720 N1717 0.984 . S
H1721 N1717 0.985 . S
H1722 N1716 0.984 . S
H1723 N1716 0.984 . S
H1724 N1712 0.984 . S
H1725 N1712 0.985 . S
C1726 C1727 1.363 1_554 S
C1726 C1732 1.379 . S
C1726 N1734 1.356 . S
C1727 C1726 1.363 1_556 S
C1727 C1733 1.363 . S
C1728 C1729 1.363 1_556 S
C1728 C1733 1.379 . S
C1728 N1735 1.356 . S
C1729 C1728 1.363 1_554 S
C1729 C1732 1.363 . S
N1730 C1732 1.356 . S
N1730 H1742 0.984 . S
N1730 H1743 0.985 . S
N1731 C1733 1.356 . S
N1731 H1736 0.984 . S
N1731 H1737 0.985 . S
C1732 C1726 1.379 . S
C1732 C1729 1.363 . S
C1732 N1730 1.356 . S
C1733 C1727 1.363 . S
C1733 C1728 1.379 . S
C1733 N1731 1.356 . S
N1734 C1726 1.356 . S
N1734 H1740 0.984 . S
N1734 H1741 0.984 . S
N1735 C1728 1.356 . S
N1735 H1738 0.984 . S
N1735 H1739 0.985 . S
H1736 N1731 0.984 . S
H1737 N1731 0.985 . S
H1738 N1735 0.984 . S
H1739 N1735 0.985 . S
H1740 N1734 0.984 . S
H1741 N1734 0.984 . S
H1742 N1730 0.984 . S
H1743 N1730 0.985 . S
C1744 C1745 1.363 . S
C1744 C1750 1.379 1_565 S
C1744 N1752 1.356 . S
C1745 C1744 1.363 . S
C1745 C1751 1.363 . S
C1746 C1747 1.363 . S
C1746 C1751 1.379 1_545 S
C1746 N1753 1.356 . S
C1747 C1746 1.363 . S
C1747 C1750 1.363 . S
N1748 C1750 1.356 . S
N1748 H1760 0.984 . S
N1748 H1761 0.985 . S
N1749 C1751 1.356 . S
N1749 H1754 0.984 . S
N1749 H1755 0.985 . S
C1750 C1744 1.379 1_545 S
C1750 C1747 1.363 . S
C1750 N1748 1.356 . S
C1751 C1745 1.363 . S
C1751 C1746 1.379 1_565 S
C1751 N1749 1.356 . S
N1752 C1744 1.356 . S
N1752 H1758 0.984 . S
N1752 H1759 0.984 . S
N1753 C1746 1.356 . S
N1753 H1756 0.984 . S
N1753 H1757 0.985 . S
H1754 N1749 0.984 . S
H1755 N1749 0.985 . S
H1756 N1753 0.984 . S
H1757 N1753 0.985 . S
H1758 N1752 0.984 . S
H1759 N1752 0.984 . S
H1760 N1748 0.984 . S
H1761 N1748 0.985 . S
C1762 C1763 1.363 . S
C1762 C1768 1.379 . S
C1762 N1770 1.356 . S
C1763 C1762 1.363 . S
C1763 C1769 1.363 1_554 S
C1764 C1765 1.363 . S
C1764 C1769 1.379 . S
C1764 N1771 1.356 . S
C1765 C1764 1.363 . S
C1765 C1768 1.363 1_556 S
N1766 C1768 1.356 . S
N1766 H1778 0.984 . S
N1766 H1779 0.985 . S
N1767 C1769 1.356 . S
N1767 H1772 0.984 . S
N1767 H1773 0.985 . S
C1768 C1762 1.379 . S
C1768 C1765 1.363 1_554 S
C1768 N1766 1.356 . S
C1769 C1763 1.363 1_556 S
C1769 C1764 1.379 . S
C1769 N1767 1.356 . S
N1770 C1762 1.356 . S
N1770 H1776 0.984 . S
N1770 H1777 0.984 . S
N1771 C1764 1.356 . S
N1771 H1774 0.984 . S
N1771 H1775 0.985 . S
H1772 N1767 0.984 . S
H1773 N1767 0.985 . S
H1774 N1771 0.984 . S
H1775 N1771 0.985 . S
H1776 N1770 0.984 . S
H1777 N1770 0.984 . S
H1778 N1766 0.984 . S
H1779 N1766 0.985 . S
C1780 C1781 1.363 . S
C1780 C1786 1.379 1_545 S
C1780 N1788 1.356 . S
C1781 C1780 1.363 . S
C1781 C1787 1.363 . S
C1782 C1783 1.363 . S
C1782 C1787 1.379 1_565 S
C1782 N1789 1.356 . S
C1783 C1782 1.363 . S
C1783 C1786 1.363 . S
N1784 C1786 1.356 . S
N1784 H1796 0.984 . S
N1784 H1797 0.985 . S
N1785 C1787 1.356 . S
N1785 H1790 0.984 . S
N1785 H1791 0.985 . S
C1786 C1780 1.379 1_565 S
C1786 C1783 1.363 . S
C1786 N1784 1.356 . S
C1787 C1781 1.363 . S
C1787 C1782 1.379 1_545 S
C1787 N1785 1.356 . S
N1788 C1780 1.356 . S
N1788 H1794 0.984 . S
N1788 H1795 0.984 . S
N1789 C1782 1.356 . S
N1789 H1792 0.984 . S
N1789 H1793 0.985 . S
H1790 N1785 0.984 . S
H1791 N1785 0.985 . S
H1792 N1789 0.984 . S
H1793 N1789 0.985 . S
H1794 N1788 0.984 . S
H1795 N1788 0.984 . S
H1796 N1784 0.984 . S
H1797 N1784 0.985 . S
C1798 C1799 1.363 . S
C1798 C1804 1.379 . S
C1798 N1806 1.356 . S
C1799 C1798 1.363 . S
C1799 C1805 1.363 . S
C1800 C1801 1.363 . S
C1800 C1805 1.379 . S
C1800 N1807 1.356 . S
C1801 C1800 1.363 . S
C1801 C1804 1.363 . S
N1802 C1804 1.356 . S
N1802 H1814 0.984 . S
N1802 H1815 0.985 . S
N1803 C1805 1.356 . S
N1803 H1808 0.984 . S
N1803 H1809 0.985 . S
C1804 C1798 1.379 . S
C1804 C1801 1.363 . S
C1804 N1802 1.356 . S
C1805 C1799 1.363 . S
C1805 C1800 1.379 . S
C1805 N1803 1.356 . S
N1806 C1798 1.356 . S
N1806 H1812 0.984 . S
N1806 H1813 0.984 . S
N1807 C1800 1.356 . S
N1807 H1810 0.984 . S
N1807 H1811 0.985 . S
H1808 N1803 0.984 . S
H1809 N1803 0.985 . S
H1810 N1807 0.984 . S
H1811 N1807 0.985 . S
H1812 N1806 0.984 . S
H1813 N1806 0.984 . S
H1814 N1802 0.984 . S
H1815 N1802 0.985 . S
C1816 C1817 1.363 . S
C1816 C1822 1.379 1_545 S
C1816 N1824 1.356 . S
C1817 C1816 1.363 . S
C1817 C1823 1.363 . S
C1818 C1819 1.363 . S
C1818 C1823 1.379 1_565 S
C1818 N1825 1.356 . S
C1819 C1818 1.363 . S
C1819 C1822 1.363 . S
N1820 C1822 1.356 . S
N1820 H1832 0.984 . S
N1820 H1833 0.985 . S
N1821 C1823 1.356 . S
N1821 H1826 0.984 . S
N1821 H1827 0.985 . S
C1822 C1816 1.379 1_565 S
C1822 C1819 1.363 . S
C1822 N1820 1.356 . S
C1823 C1817 1.363 . S
C1823 C1818 1.379 1_545 S
C1823 N1821 1.356 . S
N1824 C1816 1.356 . S
N1824 H1830 0.984 . S
N1824 H1831 0.984 . S
N1825 C1818 1.356 . S
N1825 H1828 0.984 . S
N1825 H1829 0.985 . S
H1826 N1821 0.984 . S
H1827 N1821 0.985 . S
H1828 N1825 0.984 . S
H1829 N1825 0.985 . S
H1830 N1824 0.984 . S
H1831 N1824 0.984 . S
H1832 N1820 0.984 . S
H1833 N1820 0.985 . S
C1834 C1835 1.363 1_554 S
C1834 C1840 1.379 . S
C1834 N1842 1.356 . S
C1835 C1834 1.363 1_556 S
C1835 C1841 1.363 . S
C1836 C1837 1.363 1_556 S
C1836 C1841 1.379 . S
C1836 N1843 1.356 . S
C1837 C1836 1.363 1_554 S
C1837 C1840 1.363 . S
N1838 C1840 1.356 . S
N1838 H1850 0.984 . S
N1838 H1851 0.985 . S
N1839 C1841 1.356 . S
N1839 H1844 0.984 . S
N1839 H1845 0.985 . S
C1840 C1834 1.379 . S
C1840 C1837 1.363 . S
C1840 N1838 1.356 . S
C1841 C1835 1.363 . S
C1841 C1836 1.379 . S
C1841 N1839 1.356 . S
N1842 C1834 1.356 . S
N1842 H1848 0.984 . S
N1842 H1849 0.984 . S
N1843 C1836 1.356 . S
N1843 H1846 0.984 . S
N1843 H1847 0.985 . S
H1844 N1839 0.984 . S
H1845 N1839 0.985 . S
H1846 N1843 0.984 . S
H1847 N1843 0.985 . S
H1848 N1842 0.984 . S
H1849 N1842 0.984 . S
H1850 N1838 0.984 . S
H1851 N1838 0.985 . S
C1852 C1853 1.363 . S
C1852 C1858 1.379 1_545 S
C1852 N1860 1.356 . S
C1853 C1852 1.363 . S
C1853 C1859 1.363 . S
C1854 C1855 1.363 . S
C1854 C1859 1.379 1_565 S
C1854 N1861 1.356 . S
C1855 C1854 1.363 . S
C1855 C1858 1.363 . S
N1856 C1858 1.356 . S
N1856 H1868 0.984 . S
N1856 H1869 0.985 . S
N1857 C1859 1.356 . S
N1857 H1862 0.984 . S
N1857 H1863 0.985 . S
C1858 C1852 1.379 1_565 S
C1858 C1855 1.363 . S
C1858 N1856 1.356 . S
C1859 C1853 1.363 . S
C1859 C1854 1.379 1_545 S
C1859 N1857 1.356 . S
N1860 C1852 1.356 . S
N1860 H1866 0.984 . S
N1860 H1867 0.984 . S
N1861 C1854 1.356 . S
N1861 H1864 0.984 . S
N1861 H1865 0.985 . S
H1862 N1857 0.984 . S
H1863 N1857 0.985 . S
H1864 N1861 0.984 . S
H1865 N1861 0.985 . S
H1866 N1860 0.984 . S
H1867 N1860 0.984 . S
H1868 N1856 0.984 . S
H1869 N1856 0.985 . S
C1870 C1871 1.363 . S
C1870 C1876 1.379 . S
C1870 N1878 1.356 . S
C1871 C1870 1.363 . S
C1871 C1877 1.363 . S
C1872 C1873 1.363 . S
C1872 C1877 1.379 . S
C1872 N1879 1.356 . S
C1873 C1872 1.363 . S
C1873 C1876 1.363 . S
N1874 C1876 1.356 . S
N1874 H1886 0.984 . S
N1874 H1887 0.985 . S
N1875 C1877 1.356 . S
N1875 H1880 0.984 . S
N1875 H1881 0.985 . S
C1876 C1870 1.379 . S
C1876 C1873 1.363 . S
C1876 N1874 1.356 . S
C1877 C1871 1.363 . S
C1877 C1872 1.379 . S
C1877 N1875 1.356 . S
N1878 C1870 1.356 . S
N1878 H1884 0.984 . S
N1878 H1885 0.984 . S
N1879 C1872 1.356 . S
N1879 H1882 0.984 . S
N1879 H1883 0.985 . S
H1880 N1875 0.984 . S
H1881 N1875 0.985 . S
H1882 N1879 0.984 . S
H1883 N1879 0.985 . S
H1884 N1878 0.984 . S
H1885 N1878 0.984 . S
H1886 N1874 0.984 . S
H1887 N1874 0.985 . S
C737 C7 2.108 . S
C739 N485 1.901 . S
C755 C513 2.108 . S
C757 N25 1.901 . S
C773 C53 2.108 . S
C775 N531 1.901 . S
C791 C467 2.108 . S
C793 N71 1.901 . S
C809 C99 2.108 . S
C811 N439 1.901 . S
C827 N117 1.901 . S
C829 C375 2.108 . S
C845 N393 1.901 . S
C847 C145 2.108 . S
C863 N163 1.901 . S
C865 C421 2.108 . S
C881 C191 2.311 . S
C883 C674 2.294 . S
C899 C214 2.294 . S
C901 C697 2.311 . S
C917 C720 2.294 . S
C919 C237 2.311 . S
C935 C651 2.311 . S
C937 C260 2.294 . S
C953 C283 2.311 . S
C955 C628 2.294 . S
C971 C559 2.311 . S
C973 C306 2.294 . S
C989 C329 2.311 . S
C991 C582 2.294 . S
C1007 C605 2.311 . S
C1009 C352 2.294 . S
C1025 N2 1.850 . S
C1027 C223 1.770 . S
C1043 C30 2.027 . S
C1045 C614 1.916 1_655 S
C1061 C269 1.770 . S
C1063 N48 1.851 . S
C1079 C76 2.027 . S
C1081 C568 1.916 . S
C1097 N94 1.850 . S
C1099 C361 1.770 . S
C1115 C660 1.916 . S
C1117 C122 2.027 . S
C1133 C315 1.770 . S
C1135 N140 1.851 . S
C1151 C706 1.916 1_655 S
C1153 C168 2.027 . S
C1169 N186 1.614 . S
C1171 N35 1.673 . S
C1187 C430 1.370 . S
C1189 N209 1.386 . S
C1205 N81 1.673 . S
C1207 N232 1.614 . S
C1223 N255 1.386 . S
C1225 C384 1.370 . S
C1241 N173 1.673 . S
C1243 N278 1.614 . S
C1259 C476 1.370 . S
C1261 N301 1.386 . S
C1277 N127 1.673 . S
C1279 N324 1.614 . S
C1295 N347 1.386 . S
C1297 C522 1.370 . S
C1313 C591 1.770 . S
C1315 N370 1.850 . S
C1331 C246 1.916 . S
C1333 C398 2.027 . S
C1349 C637 1.770 . S
C1351 N416 1.851 . S
C1367 C444 2.027 . S
C1369 C200 1.916 1_455 S
C1385 C729 1.770 . S
C1387 N462 1.850 . S
C1403 C292 1.916 1_455 S
C1405 C490 2.027 . S
C1421 C683 1.770 . S
C1423 N508 1.851 . S
C1439 C536 2.027 . S
C1441 C338 1.916 . S
C1457 N554 1.614 . S
C1459 N403 1.673 . S
C1475 C62 1.370 . S
C1477 N577 1.386 . S
C1493 N600 1.614 . S
C1495 N449 1.673 . S
C1511 N623 1.386 . S
C1513 C16 1.370 . S
C1529 N646 1.614 . S
C1531 N541 1.673 . S
C1547 C108 1.370 . S
C1549 N669 1.386 . S
C1565 N495 1.673 . S
C1567 N692 1.614 . S
C1583 N715 1.386 . S
C1585 C154 1.370 . S
C1601 N12 1.548 . S
C1603 N104 1.548 . S
C1619 C39 1.741 . S
C1621 C131 1.741 . S
C1637 N150 1.548 . S
C1639 N58 1.548 . S
C1655 C177 1.741 . S
C1657 C85 1.741 . S
C1673 N288 1.484 . S
C1675 N196 1.484 . S
C1691 N311 1.397 . S
C1693 N219 1.397 . S
C1709 N334 1.484 . S
C1711 N242 1.484 . S
C1727 N357 1.397 . S
C1729 N265 1.397 . S
C1745 N380 1.548 . S
C1747 N472 1.548 . S
C1763 C407 1.741 . S
C1765 C499 1.741 . S
C1781 N426 1.548 . S
C1783 N518 1.548 . S
C1799 C545 1.741 . S
C1801 C453 1.741 . S
C1817 N564 1.484 . S
C1819 N656 1.484 . S
C1835 N679 1.397 . S
C1837 N587 1.397 . S
C1853 N702 1.484 . S
C1855 N610 1.484 . S
C1871 N725 1.397 . S
C1873 N633 1.397 . S
