# Generated by pormake.
# Topology snk, (6)-cn, num edge types: 1
# Building blocks:
#     Node 0, Type 0, BuildingBlock: CUKXOW_clean_sbu_0, # of connection points: 6
#     Node 1, Type 0, BuildingBlock: CUKXOW_clean_sbu_0, # of connection points: 6
#     Node 2, Type 0, BuildingBlock: CUKXOW_clean_sbu_0, # of connection points: 6
#     Node 3, Type 0, BuildingBlock: CUKXOW_clean_sbu_0, # of connection points: 6
#     Node 4, Type 0, BuildingBlock: CUKXOW_clean_sbu_0, # of connection points: 6
#     Node 5, Type 0, BuildingBlock: CUKXOW_clean_sbu_0, # of connection points: 6
#     Node 6, Type 0, BuildingBlock: CUKXOW_clean_sbu_0, # of connection points: 6
#     Node 7, Type 0, BuildingBlock: CUKXOW_clean_sbu_0, # of connection points: 6
#     Edge 8, Type (0, 0), BuildingBlock: UVAHIK_clean_linker_0, # of connection points: 2
#     Edge 9, Type (0, 0), BuildingBlock: UVAHIK_clean_linker_0, # of connection points: 2
#     Edge 10, Type (0, 0), BuildingBlock: UVAHIK_clean_linker_0, # of connection points: 2
#     Edge 11, Type (0, 0), BuildingBlock: UVAHIK_clean_linker_0, # of connection points: 2
#     Edge 12, Type (0, 0), BuildingBlock: UVAHIK_clean_linker_0, # of connection points: 2
#     Edge 13, Type (0, 0), BuildingBlock: UVAHIK_clean_linker_0, # of connection points: 2
#     Edge 14, Type (0, 0), BuildingBlock: UVAHIK_clean_linker_0, # of connection points: 2
#     Edge 15, Type (0, 0), BuildingBlock: UVAHIK_clean_linker_0, # of connection points: 2
#     Edge 16, Type (0, 0), BuildingBlock: UVAHIK_clean_linker_0, # of connection points: 2
#     Edge 17, Type (0, 0), BuildingBlock: UVAHIK_clean_linker_0, # of connection points: 2
#     Edge 18, Type (0, 0), BuildingBlock: UVAHIK_clean_linker_0, # of connection points: 2
#     Edge 19, Type (0, 0), BuildingBlock: UVAHIK_clean_linker_0, # of connection points: 2
#     Edge 20, Type (0, 0), BuildingBlock: UVAHIK_clean_linker_0, # of connection points: 2
#     Edge 21, Type (0, 0), BuildingBlock: UVAHIK_clean_linker_0, # of connection points: 2
#     Edge 22, Type (0, 0), BuildingBlock: UVAHIK_clean_linker_0, # of connection points: 2
#     Edge 23, Type (0, 0), BuildingBlock: UVAHIK_clean_linker_0, # of connection points: 2
#     Edge 24, Type (0, 0), BuildingBlock: UVAHIK_clean_linker_0, # of connection points: 2
#     Edge 25, Type (0, 0), BuildingBlock: UVAHIK_clean_linker_0, # of connection points: 2
#     Edge 26, Type (0, 0), BuildingBlock: UVAHIK_clean_linker_0, # of connection points: 2
#     Edge 27, Type (0, 0), BuildingBlock: UVAHIK_clean_linker_0, # of connection points: 2
#     Edge 28, Type (0, 0), BuildingBlock: UVAHIK_clean_linker_0, # of connection points: 2
#     Edge 29, Type (0, 0), BuildingBlock: UVAHIK_clean_linker_0, # of connection points: 2
#     Edge 30, Type (0, 0), BuildingBlock: UVAHIK_clean_linker_0, # of connection points: 2
#     Edge 31, Type (0, 0), BuildingBlock: UVAHIK_clean_linker_0, # of connection points: 2
# Relax obj value: 0.069
# Max RMSD: 0.173
# Mean RMSD: 0.128
data_MOF--net-snk--node1-CUKXOW_clean_sbu_0--edge1-UVAHIK_clean_linker_0
_symmetry_space_group_name_H-M    P1
_symmetry_Int_Tables_number       1
_symmetry_cell_setting            triclinic
loop_
_symmetry_equiv_pos_as_xyz
'x, y, z'
_cell_length_a     58.889419
_cell_length_b     58.502928
_cell_length_c     19.486398
_cell_angle_alpha  97.464956
_cell_angle_beta   97.779793
_cell_angle_gamma 90.257235
loop_
_atom_site_label
_atom_site_type_symbol
_atom_site_fract_x
_atom_site_fract_y
_atom_site_fract_z
_atom_type_partial_charge
Tb0 Tb 0.01176 0.01358 0.52714 0.0
C1 C 0.02407 0.96189 0.54158 0.0
Tb2 Tb 0.9727 0.97731 0.51524 0.0
O3 O 0.01808 0.0223 0.642 0.0
O4 O -0.00651 -0.00176 0.59688 0.0
O5 O 0.03077 0.98169 0.52362 0.0
C6 C 0.93939 0.95124 0.54331 0.0
O7 O 0.00253 0.95765 0.55013 0.0
C8 C 0.98159 0.9828 0.38664 0.0
C9 C 0.96039 0.029 0.50079 0.0
O10 O 0.95757 0.94351 0.51802 0.0
O11 O 0.94014 0.97357 0.5539 0.0
O12 O 0.9664 0.96856 0.40038 0.0
O13 O 0.99097 0.99264 0.44551 0.0
O14 O 0.95368 0.00918 0.51868 0.0
O15 O 0.98194 0.03326 0.49237 0.0
C16 C 0.04514 0.03953 0.49897 0.0
O17 O 0.02704 0.04733 0.52458 0.0
O18 O 0.04427 0.0172 0.48811 0.0
C19 C 0.00288 0.00807 0.65574 0.0
Tb20 Tb 0.22369 0.76385 0.76507 0.0
C21 C 0.27582 0.78081 0.81102 0.0
Tb22 Tb 0.26157 0.72671 0.78669 0.0
O23 O 0.21736 0.7717 0.87494 0.0
O24 O 0.24089 0.7478 0.84881 0.0
O25 O 0.25487 0.78606 0.78274 0.0
C26 C 0.29245 0.69853 0.84288 0.0
O27 O 0.28112 0.75943 0.82373 0.0
C28 C 0.25346 0.73325 0.65128 0.0
C29 C 0.20947 0.70971 0.73956 0.0
O30 O 0.2968 0.7151 0.80805 0.0
O31 O 0.27057 0.69782 0.84653 0.0
O32 O 0.26789 0.71879 0.67686 0.0
O33 O 0.24439 0.74277 0.70294 0.0
O34 O 0.2304 0.70443 0.76798 0.0
O35 O 0.20419 0.73114 0.72725 0.0
C36 C 0.19297 0.79242 0.71024 0.0
O37 O 0.18846 0.7754 0.7431 0.0
O38 O 0.2149 0.79329 0.70755 0.0
C39 C 0.23183 0.75729 0.90052 0.0
Tb40 Tb 0.47413 0.01491 0.03289 0.0
C41 C 0.45709 0.96257 0.98645 0.0
Tb42 Tb 0.51088 0.97672 1.01156 0.0
O43 O 0.46647 0.02158 0.9229 0.0
O44 O 0.48998 -0.00232 0.94929 0.0
O45 O 0.452 0.98358 1.01514 0.0
C46 C 0.53922 0.94577 0.95758 0.0
O47 O 0.47829 0.95725 0.97353 0.0
C48 C 0.5046 0.98487 0.14713 0.0
C49 C 0.52774 0.02904 0.05711 0.0
O50 O 0.5217 0.94115 0.98758 0.0
O51 O 0.54072 0.96793 0.95727 0.0
O52 O 0.51892 0.97036 0.12176 0.0
O53 O 0.49511 0.99397 0.09523 0.0
O54 O 0.53254 0.00833 0.02558 0.0
O55 O 0.5068 0.03402 0.07308 0.0
C56 C 0.44583 0.04588 0.08675 0.0
O57 O 0.46269 0.05036 0.05372 0.0
O58 O 0.44498 0.02384 0.09015 0.0
C59 C 0.48065 0.00692 0.89747 0.0
Tb60 Tb 0.22321 0.22461 0.25419 0.0
C61 C 0.27523 0.21405 0.24234 0.0
Tb62 Tb 0.25812 0.26521 0.26268 0.0
O63 O 0.2145 0.21732 0.13917 0.0
O64 O 0.23772 0.24293 0.1832 0.0
O65 O 0.25569 0.20681 0.25991 0.0
C66 C 0.282 0.2993 0.22906 0.0
O67 O 0.27885 0.23572 0.23221 0.0
C68 C 0.2527 0.25667 0.39217 0.0
C69 C 0.20651 0.27616 0.27819 0.0
O70 O 0.2904 0.28389 0.2671 0.0
O71 O 0.26029 0.29531 0.20905 0.0
O72 O 0.2663 0.27244 0.37806 0.0
O73 O 0.24346 0.24683 0.33315 0.0
O74 O 0.22608 0.28366 0.2616 0.0
O75 O 0.20274 0.25426 0.28564 0.0
C76 C 0.19993 0.1915 0.29526 0.0
O77 O 0.19078 0.20887 0.26742 0.0
O78 O 0.22203 0.19265 0.29917 0.0
C79 C 0.22821 0.23296 0.12456 0.0
Tb80 Tb 0.72274 0.26406 0.25451 0.0
C81 C 0.7748 0.28106 0.30242 0.0
Tb82 Tb 0.7606 0.22694 0.27738 0.0
O83 O 0.71608 0.27182 0.36426 0.0
O84 O 0.73974 0.24805 0.33868 0.0
O85 O 0.75396 0.28628 0.27309 0.0
C86 C 0.79127 0.19834 0.33244 0.0
O87 O 0.77999 0.25969 0.3156 0.0
C88 C 0.75258 0.23332 0.14153 0.0
C89 C 0.70855 0.21015 0.23134 0.0
O90 O 0.79595 0.21605 0.3027 0.0
O91 O 0.76922 0.1968 0.33189 0.0
O92 O 0.76696 0.21887 0.16739 0.0
O93 O 0.74356 0.24287 0.19316 0.0
O94 O 0.72911 0.20527 0.26338 0.0
O95 O 0.70369 0.23121 0.21478 0.0
C96 C 0.69187 0.29223 0.19833 0.0
O97 O 0.68748 0.27548 0.23245 0.0
O98 O 0.71379 0.29311 0.19537 0.0
C99 C 0.73057 0.25747 0.39018 0.0
Tb100 Tb 0.72595 0.72563 0.77858 0.0
C101 C 0.77751 0.71445 0.7627 0.0
Tb102 Tb 0.76106 0.76608 0.78714 0.0
O103 O 0.71769 0.7185 0.66321 0.0
O104 O 0.74067 0.74398 0.70818 0.0
O105 O 0.75789 0.70702 0.77924 0.0
C106 C 0.78438 0.79907 0.74567 0.0
O107 O 0.78139 0.73635 0.75546 0.0
C108 C 0.75608 0.75767 0.91671 0.0
C109 C 0.70917 0.77694 0.80036 0.0
O110 O 0.79353 0.78198 0.77498 0.0
O111 O 0.76225 0.79772 0.74052 0.0
O112 O 0.76987 0.77326 0.90214 0.0
O113 O 0.7465 0.74777 0.85805 0.0
O114 O 0.72877 0.78417 0.78317 0.0
O115 O 0.70535 0.7552 0.80943 0.0
C116 C 0.70204 0.69156 0.81222 0.0
O117 O 0.69365 0.70699 0.77424 0.0
O118 O 0.72376 0.69553 0.83216 0.0
C119 C 0.73138 0.7342 0.64914 0.0
Tb120 Tb 0.51257 0.51278 0.02602 0.0
C121 C 0.52156 0.45913 0.02363 0.0
Tb122 Tb 0.47174 0.47814 1.01668 0.0
O123 O 0.5185 0.52257 0.14088 0.0
O124 O 0.49331 0.49912 0.09613 0.0
O125 O 0.52855 0.47926 1.00835 0.0
C126 C 0.43769 0.45485 0.05242 0.0
O127 O 0.50029 0.45526 0.03544 0.0
C128 C 0.48151 0.48202 0.88767 0.0
C129 C 0.46274 0.53178 1.01901 0.0
O130 O 0.45925 0.4519 0.07293 0.0
O131 O 0.43535 0.4705 1.01083 0.0
O132 O 0.46582 0.46834 0.90181 0.0
O133 O 0.49099 0.49181 0.94657 0.0
O134 O 0.45575 0.51166 0.03432 0.0
O135 O 0.48401 0.53565 1.00721 0.0
C136 C 0.54658 0.53608 0.99011 0.0
O137 O 0.525 0.53904 0.96978 0.0
O138 O 0.54894 0.52042 0.03163 0.0
C139 C 0.5028 0.50889 0.15503 0.0
Tb140 Tb 0.97381 0.51454 0.53122 0.0
C141 C 0.95658 0.46224 0.48473 0.0
Tb142 Tb 0.01047 0.47619 0.51082 0.0
O143 O 0.96613 0.52103 0.42124 0.0
O144 O 0.98971 0.49717 0.448 0.0
O145 O 0.95148 0.48333 0.51279 0.0
C146 C 0.03855 0.44501 0.45664 0.0
O147 O 0.97784 0.45678 0.47278 0.0
C148 C 0.00392 0.48435 0.64595 0.0
C149 C 0.02771 0.52849 0.55732 0.0
O150 O 0.02176 0.44068 0.4901 0.0
O151 O 0.03949 0.46703 0.45305 0.0
O152 O 0.01817 0.46971 0.6208 0.0
O153 O -0.00543 0.49356 0.59404 0.0
O154 O 0.03281 0.5074 0.52924 0.0
O155 O 0.00644 0.53395 0.56928 0.0
C156 C 0.94567 0.54566 0.58534 0.0
O157 O 0.96248 0.55003 0.55201 0.0
O158 O 0.94475 0.52363 0.58886 0.0
C159 C 0.98037 0.50638 0.39609 0.0
C160 C 0.06268 0.07769 0.49467 0.0
C161 C 0.06452 0.05371 0.48905 0.0
C162 C 0.08125 0.09126 0.48602 0.0
C163 C 0.13328 0.08802 0.40279 0.0
H164 H 0.14302 0.14999 0.50175 0.0
C165 C 0.19855 0.15445 0.34335 0.0
C166 C 0.18748 0.17433 0.32427 0.0
C167 C 0.18694 0.13849 0.37377 0.0
C168 C 0.14059 0.13262 0.47444 0.0
H169 H 0.08698 0.02486 0.47215 0.0
H170 H 0.11977 0.04868 0.45838 0.0
H171 H 0.11666 0.12345 0.53987 0.0
H172 H 0.15607 0.19354 0.32206 0.0
H173 H 0.1358 0.16566 0.37631 0.0
H174 H 0.15703 0.09747 0.33683 0.0
C175 C 0.1039 0.05698 0.46807 0.0
C176 C 0.12549 0.11752 0.49579 0.0
C177 C 0.0852 0.04339 0.47588 0.0
C178 C 0.16481 0.17821 0.33614 0.0
C179 C 0.15337 0.16248 0.36764 0.0
C180 C 0.14864 0.10303 0.38214 0.0
C181 C 0.10203 0.08103 0.47254 0.0
C182 C 0.12101 0.09541 0.45839 0.0
C183 C 0.16438 0.14257 0.38656 0.0
C184 C 0.15169 0.12563 0.41629 0.0
H185 H 0.04681 0.08593 0.50481 0.0
H186 H 0.07911 0.10971 0.48816 0.0
H187 H 0.13003 0.07117 0.37256 0.0
H188 H 0.2161 0.15125 0.33463 0.0
H189 H 0.19558 0.12311 0.38784 0.0
C190 C 0.06449 0.94791 0.54526 0.0
C191 C 0.0415 0.94402 0.5539 0.0
C192 C 0.08102 0.9313 0.55792 0.0
C193 C 0.08765 0.86907 0.57503 0.0
H194 H 0.14798 0.88879 0.6707 0.0
C195 C 0.15266 0.80569 0.69032 0.0
C196 C 0.17594 0.80898 0.68479 0.0
C197 C 0.13651 0.82182 0.66988 0.0
C198 C 0.13133 0.88299 0.64307 0.0
H199 H 0.01799 0.91938 0.58264 0.0
H200 H 0.04683 0.89057 0.60539 0.0
H201 H 0.11934 0.91752 0.64454 0.0
H202 H 0.20061 0.83154 0.65265 0.0
H203 H 0.17237 0.8598 0.61659 0.0
H204 H 0.09958 0.83452 0.57433 0.0
C205 C 0.05203 0.90637 0.58787 0.0
C206 C 0.11487 0.89948 0.62806 0.0
C207 C 0.03548 0.92299 0.57519 0.0
C208 C 0.18276 0.82858 0.65748 0.0
C209 C 0.1666 0.84482 0.6373 0.0
C210 C 0.10409 0.85258 0.59017 0.0
C211 C 0.07504 0.91032 0.57959 0.0
C212 C 0.09276 0.89275 0.59417 0.0
C213 C 0.14328 0.8417 0.64364 0.0
C214 C 0.1261 0.85931 0.62477 0.0
H215 H 0.0698 0.96384 0.52872 0.0
H216 H 0.09848 0.93483 0.55004 0.0
H217 H 0.07097 0.86324 0.54776 0.0
H218 H 0.14691 0.79076 0.71137 0.0
H219 H 0.11879 0.81898 0.67634 0.0
C220 C 0.31755 0.79439 0.84583 0.0
C221 C 0.29425 0.79967 0.8295 0.0
C222 C 0.33482 0.81186 0.86217 0.0
C223 C 0.34569 0.87608 0.85718 0.0
H224 H 0.40216 0.86508 0.97394 0.0
C225 C 0.4149 0.94955 0.96664 0.0
C226 C 0.43828 0.9441 0.96781 0.0
C227 C 0.39744 0.93227 0.94937 0.0
C228 C 0.38661 0.8685 0.94072 0.0
H229 H 0.27128 0.82819 0.81894 0.0
H230 H 0.30087 0.85843 0.8496 0.0
H231 H 0.37219 0.83525 0.94679 0.0
H232 H 0.46111 0.91552 0.95166 0.0
H233 H 0.43093 0.88562 0.9229 0.0
H234 H 0.36011 0.90967 0.85306 0.0
C235 C 0.30616 0.84071 0.84794 0.0
C236 C 0.36921 0.85116 0.9246 0.0
C237 C 0.28892 0.8232 0.83068 0.0
C238 C 0.44345 0.92064 0.95142 0.0
C239 C 0.42602 0.90334 0.93522 0.0
C240 C 0.36298 0.89353 0.87415 0.0
C241 C 0.32959 0.83551 0.86392 0.0
C242 C 0.34832 0.85443 0.88209 0.0
C243 C 0.40262 0.90877 0.93366 0.0
C244 C 0.38387 0.89009 0.91601 0.0
H245 H 0.3226 0.7766 0.84511 0.0
H246 H 0.3524 0.80659 0.87235 0.0
H247 H 0.33036 0.8796 0.82325 0.0
H248 H 0.41001 0.96728 0.97879 0.0
H249 H 0.37978 0.93734 0.94953 0.0
C250 C 0.43231 0.08634 0.10369 0.0
C251 C 0.42938 0.06303 0.11148 0.0
C252 C 0.4162 0.10255 0.1232 0.0
C253 C 0.35557 0.10729 0.1514 0.0
H254 H 0.37453 0.16895 0.23941 0.0
C255 C 0.29037 0.17401 0.24422 0.0
C256 C 0.2935 0.19696 0.23224 0.0
C257 C 0.30723 0.1577 0.23319 0.0
C258 C 0.36892 0.15189 0.21418 0.0
H259 H 0.40755 0.0384 0.14689 0.0
H260 H 0.37936 0.06675 0.1815 0.0
H261 H 0.40343 0.1404 0.21508 0.0
H262 H 0.31708 0.22065 0.19955 0.0
H263 H 0.34637 0.19214 0.17961 0.0
H264 H 0.32108 0.1188 0.14976 0.0
C265 C 0.39401 0.07249 0.15961 0.0
C266 C 0.38551 0.13549 0.20032 0.0
C267 C 0.4102 0.05627 0.14025 0.0
C268 C 0.31407 0.20319 0.20953 0.0
C269 C 0.33095 0.18683 0.19845 0.0
C270 C 0.33898 0.12369 0.16516 0.0
C271 C 0.39672 0.09582 0.15083 0.0
C272 C 0.37906 0.11301 0.1684 0.0
C273 C 0.3277 0.16384 0.20981 0.0
C274 C 0.34542 0.14625 0.19644 0.0
H275 H 0.4469 0.09204 0.08145 0.0
H276 H 0.41872 0.12028 0.11485 0.0
H277 H 0.34996 0.09027 0.12575 0.0
H278 H 0.27482 0.16855 0.26205 0.0
H279 H 0.30427 0.14026 0.24354 0.0
C280 C 0.92212 0.91302 0.54838 0.0
C281 C 0.92007 0.93697 0.55316 0.0
C282 C 0.9036 0.89935 0.55688 0.0
C283 C 0.8511 0.90244 0.6379 0.0
H284 H 0.84224 0.84016 0.54069 0.0
C285 C 0.78576 0.83582 0.69596 0.0
C286 C 0.7969 0.81618 0.71661 0.0
C287 C 0.79746 0.85173 0.66559 0.0
C288 C 0.84443 0.85762 0.56749 0.0
H289 H 0.89731 0.96565 0.56841 0.0
H290 H 0.86461 0.94165 0.58184 0.0
H291 H 0.86864 0.86673 0.5029 0.0
H292 H 0.82853 0.7973 0.72163 0.0
H293 H 0.84897 0.82507 0.66744 0.0
H294 H 0.82704 0.89305 0.70298 0.0
C295 C 0.8806 0.93346 0.57298 0.0
C296 C 0.85956 0.87273 0.54635 0.0
C297 C 0.89925 0.94715 0.56535 0.0
C298 C 0.81973 0.81245 0.70633 0.0
C299 C 0.83128 0.82812 0.67488 0.0
C300 C 0.83571 0.88741 0.65831 0.0
C301 C 0.88267 0.90944 0.56933 0.0
C302 C 0.86371 0.89497 0.58317 0.0
C303 C 0.82019 0.84781 0.65443 0.0
C304 C 0.83297 0.86471 0.6248 0.0
H305 H 0.93811 0.90489 0.53902 0.0
H306 H 0.9059 0.88095 0.55541 0.0
H307 H 0.85409 0.91939 0.66768 0.0
H308 H 0.76808 0.8389 0.70344 0.0
H309 H 0.78876 0.86694 0.65033 0.0
C310 C 0.9491 0.06821 0.46955 0.0
C311 C 0.94293 0.04684 0.48833 0.0
C312 C 0.93254 0.08481 0.45674 0.0
C313 C 0.86991 0.0913 0.41058 0.0
H314 H 0.88406 0.15609 0.47257 0.0
C315 C 0.80136 0.16151 0.38141 0.0
C316 C 0.80831 0.18176 0.35775 0.0
C317 C 0.81754 0.14527 0.40134 0.0
C318 C 0.87988 0.13809 0.45438 0.0
H319 H 0.91435 0.02636 0.50876 0.0
H320 H 0.88563 0.05531 0.48704 0.0
H321 H 0.91274 0.12741 0.49901 0.0
H322 H 0.83757 0.20112 0.33744 0.0
H323 H 0.86575 0.17288 0.37201 0.0
H324 H 0.8371 0.10201 0.36565 0.0
C325 C 0.90324 0.05915 0.48137 0.0
C326 C 0.89635 0.12162 0.46947 0.0
C327 C 0.91979 0.04257 0.49428 0.0
C328 C 0.83173 0.18568 0.35565 0.0
C329 C 0.8479 0.16953 0.37582 0.0
C330 C 0.85343 0.10777 0.39555 0.0
C331 C 0.90937 0.08048 0.46225 0.0
C332 C 0.89164 0.09801 0.44745 0.0
C333 C 0.84102 0.14901 0.39836 0.0
C334 C 0.85824 0.1314 0.41689 0.0
H335 H 0.96673 0.07212 0.46429 0.0
H336 H 0.93786 0.10091 0.44129 0.0
H337 H 0.86578 0.07332 0.39187 0.0
H338 H 0.78341 0.15806 0.38356 0.0
H339 H 0.81167 0.12979 0.41921 0.0
C340 C 0.69114 0.17146 0.24744 0.0
C341 C 0.69018 0.19128 0.21293 0.0
C342 C 0.67372 0.15411 0.23133 0.0
C343 C 0.62774 0.12845 0.0912 0.0
H344 H 0.60245 0.10323 0.23972 0.0
C345 C 0.56631 0.04637 0.04155 0.0
C346 C 0.54657 0.04744 0.07558 0.0
C347 C 0.58362 0.06381 0.0577 0.0
C348 C 0.60925 0.11004 0.1974 0.0
H349 H 0.66978 0.20776 0.13294 0.0
H350 H 0.64 0.17732 0.10348 0.0
H351 H 0.63271 0.13324 0.26838 0.0
H352 H 0.53021 0.06809 0.15475 0.0
H353 H 0.56059 0.09792 0.18429 0.0
H354 H 0.6046 0.10492 1.02023 0.0
C355 C 0.65415 0.1753 0.14377 0.0
C356 C 0.6268 0.12723 0.21392 0.0
C357 C 0.67128 0.1929 0.16099 0.0
C358 C 0.545 0.0665 0.12708 0.0
C359 C 0.56257 0.08366 0.14435 0.0
C360 C 0.61057 0.11087 0.07469 0.0
C361 C 0.65493 0.15563 0.17892 0.0
C362 C 0.6363 0.13689 0.16116 0.0
C363 C 0.58216 0.08275 0.10967 0.0
C364 C 0.60087 0.10141 0.12745 0.0
H365 H 0.70526 0.16945 0.28785 0.0
H366 H 0.67516 0.13927 0.25944 0.0
H367 H 0.63458 0.13522 0.04888 0.0
H368 H 0.56828 0.03214 1.00149 0.0
H369 H 0.5984 0.06227 0.02996 0.0
C370 C 0.66996 0.78769 0.83034 0.0
C371 C 0.69104 0.79415 0.81133 0.0
C372 C 0.65318 0.80411 0.84205 0.0
C373 C 0.64594 0.86706 0.88483 0.0
H374 H 0.58162 0.85206 0.82298 0.0
C375 C 0.57572 0.93554 0.90895 0.0
C376 C 0.5557 0.92861 0.93307 0.0
C377 C 0.59191 0.91926 0.88999 0.0
C378 C 0.59949 0.85648 0.84112 0.0
H379 H 0.7108 0.82308 0.78905 0.0
H380 H 0.68158 0.8515 0.80882 0.0
H381 H 0.6104 0.82337 0.79856 0.0
H382 H 0.53666 0.89926 0.9551 0.0
H383 H 0.56483 0.87091 0.92226 0.0
H384 H 0.63503 0.90011 0.9277 0.0
C385 C 0.67809 0.8338 0.81562 0.0
C386 C 0.61601 0.84 0.82719 0.0
C387 C 0.69483 0.81741 0.80383 0.0
C388 C 0.55193 0.90509 0.93652 0.0
C389 C 0.56804 0.88883 0.91735 0.0
C390 C 0.62943 0.88353 0.8987 0.0
C391 C 0.65708 0.82741 0.83518 0.0
C392 C 0.63945 0.84504 0.84909 0.0
C393 C 0.58836 0.89571 0.89447 0.0
C394 C 0.60598 0.87843 0.87731 0.0
H395 H 0.66642 0.76996 0.83675 0.0
H396 H 0.63731 0.79859 0.85781 0.0
H397 H 0.66379 0.87144 0.90348 0.0
H398 H 0.57904 0.95357 0.90574 0.0
H399 H 0.60723 0.92514 0.87179 0.0
C400 C 0.58821 0.54246 0.99076 0.0
C401 C 0.56553 0.54736 0.96578 0.0
C402 C 0.60634 0.55304 0.96708 0.0
C403 C 0.62066 0.58503 0.82766 0.0
H404 H 0.66527 0.61727 0.9732 0.0
C405 C 0.6663 0.66803 0.79701 0.0
C406 C 0.68938 0.67149 0.82545 0.0
C407 C 0.65436 0.64855 0.80778 0.0
C408 C 0.6533 0.60794 0.93181 0.0
H409 H 0.54368 0.5665 0.89597 0.0
H410 H 0.57539 0.58537 0.85529 0.0
H411 H 0.63814 0.58999 1.00345 0.0
H412 H 0.71836 0.6576 0.88649 0.0
H413 H 0.6973 0.62343 0.9059 0.0
H414 H 0.63519 0.60382 0.75654 0.0
C415 C 0.5792 0.57314 0.89228 0.0
C416 C 0.63779 0.59235 0.94909 0.0
C417 C 0.56109 0.56261 0.91609 0.0
C418 C 0.70047 0.65526 0.86449 0.0
C419 C 0.6885 0.63576 0.87541 0.0
C420 C 0.63617 0.60061 0.81037 0.0
C421 C 0.60194 0.56855 0.91797 0.0
C422 C 0.62084 0.58145 0.89753 0.0
C423 C 0.66535 0.63231 0.84718 0.0
C424 C 0.65202 0.61279 0.86277 0.0
H425 H 0.59194 0.53056 0.02879 0.0
H426 H 0.62375 0.54923 0.98739 0.0
H427 H 0.60794 0.57647 0.78692 0.0
H428 H 0.65747 0.68036 0.76659 0.0
H429 H 0.63637 0.6465 0.7867 0.0
C430 C 0.65143 0.30506 0.17734 0.0
C431 C 0.67465 0.30829 0.17088 0.0
C432 C 0.63508 0.32065 0.15438 0.0
C433 C 0.62919 0.38079 0.11726 0.0
H434 H 0.56862 0.35949 0.0275 0.0
C435 C 0.56125 0.44408 1.01728 0.0
C436 C 0.53862 0.44058 0.03016 0.0
C437 C 0.57783 0.42741 0.02839 0.0
C438 C 0.58538 0.36575 0.05308 0.0
H439 H 0.69898 0.33015 0.13442 0.0
H440 H 0.67037 0.35745 0.09391 0.0
H441 H 0.59767 0.33149 0.0574 0.0
H442 H 0.51572 0.41639 0.06361 0.0
H443 H 0.54466 0.38745 0.08355 0.0
H444 H 0.61685 0.41503 0.11391 0.0
C445 C 0.66482 0.34296 0.11734 0.0
C446 C 0.60206 0.34969 0.07017 0.0
C447 C 0.68119 0.32727 0.14013 0.0
C448 C 0.53291 0.41969 0.05287 0.0
C449 C 0.54953 0.40301 0.06405 0.0
C450 C 0.6125 0.39686 0.10027 0.0
C451 C 0.64155 0.3399 0.12454 0.0
C452 C 0.62414 0.35699 0.103 0.0
C453 C 0.57229 0.40677 0.05278 0.0
C454 C 0.59031 0.38957 0.06838 0.0
H455 H 0.6459 0.29061 0.201 0.0
H456 H 0.61741 0.31789 0.16166 0.0
H457 H 0.64588 0.38706 0.14344 0.0
H458 H 0.56632 0.45988 0.99946 0.0
H459 H 0.59506 0.43075 1.01798 0.0
C460 C 0.91434 0.44937 0.4634 0.0
C461 C 0.9377 0.44384 0.46555 0.0
C462 C 0.8968 0.43217 0.44543 0.0
C463 C 0.88611 0.36886 0.36848 0.0
H464 H 0.82769 0.37832 0.43715 0.0
C465 C 0.8165 0.29457 0.33891 0.0
C466 C 0.79323 0.2999 0.32159 0.0
C467 C 0.83378 0.31201 0.35572 0.0
C468 C 0.8438 0.37535 0.41685 0.0
H469 H 0.96045 0.41516 0.45091 0.0
H470 H 0.93043 0.38542 0.42247 0.0
H471 H 0.85776 0.40804 0.46817 0.0
H472 H 0.77038 0.32848 0.30962 0.0
H473 H 0.80028 0.35872 0.33993 0.0
H474 H 0.87215 0.33584 0.31873 0.0
C475 C 0.9253 0.40314 0.43241 0.0
C476 C 0.86126 0.39263 0.43453 0.0
C477 C 0.94279 0.42038 0.44946 0.0
C478 C 0.78796 0.32345 0.32247 0.0
C479 C 0.80522 0.34093 0.34034 0.0
C480 C 0.86875 0.35148 0.35166 0.0
C481 C 0.90182 0.40857 0.42967 0.0
C482 C 0.88288 0.38987 0.4107 0.0
C483 C 0.82853 0.33559 0.35699 0.0
C484 C 0.8472 0.35435 0.37532 0.0
H485 H 0.90948 0.46715 0.47492 0.0
H486 H 0.87922 0.43762 0.44305 0.0
H487 H 0.90199 0.36579 0.34707 0.0
H488 H 0.82148 0.27678 0.33895 0.0
H489 H 0.85134 0.30697 0.36876 0.0
C490 C 0.79235 0.6741 0.75835 0.0
C491 C 0.79555 0.69734 0.7495 0.0
C492 C 0.809 0.65782 0.74399 0.0
C493 C 0.85767 0.64738 0.64324 0.0
H494 H 0.87289 0.59998 0.76261 0.0
C495 C 0.93263 0.58627 0.6034 0.0
C496 C 0.92938 0.56294 0.61047 0.0
C497 C 0.91673 0.60264 0.6233 0.0
C498 C 0.86867 0.61293 0.72827 0.0
H499 H 0.8191 0.72163 0.71925 0.0
H500 H 0.84813 0.69329 0.69465 0.0
H501 H 0.84448 0.62861 0.79178 0.0
H502 H 0.90715 0.53845 0.64487 0.0
H503 H 0.87911 0.56701 0.67902 0.0
H504 H 0.88163 0.63168 0.57937 0.0
C505 C 0.83259 0.6876 0.71199 0.0
C506 C 0.85238 0.62938 0.74505 0.0
C507 C 0.81597 0.7039 0.72655 0.0
C508 C 0.9101 0.55634 0.63904 0.0
C509 C 0.89411 0.57274 0.65886 0.0
C510 C 0.87388 0.63093 0.62639 0.0
C511 C 0.82928 0.66433 0.72018 0.0
C512 C 0.8467 0.64685 0.7028 0.0
C513 C 0.89709 0.59609 0.65054 0.0
C514 C 0.87967 0.61351 0.66874 0.0
H515 H 0.77686 0.66835 0.77586 0.0
H516 H 0.80574 0.64002 0.75016 0.0
H517 H 0.85342 0.6603 0.60877 0.0
H518 H 0.94741 0.59188 0.58184 0.0
H519 H 0.91986 0.62048 0.61736 0.0
C520 C 0.31773 0.32286 0.2444 0.0
C521 C 0.29467 0.31937 0.21581 0.0
C522 C 0.32968 0.34233 0.23364 0.0
C523 C 0.33086 0.3829 0.10958 0.0
H524 H 0.37606 0.41443 0.25485 0.0
C525 C 0.39604 0.44843 0.05131 0.0
C526 C 0.4187 0.44355 0.07655 0.0
C527 C 0.37788 0.43782 0.07476 0.0
C528 C 0.36339 0.40586 0.214 0.0
H529 H 0.26572 0.33322 0.15449 0.0
H530 H 0.2868 0.36739 0.1351 0.0
H531 H 0.34876 0.38709 0.28498 0.0
H532 H 0.44049 0.42445 0.14661 0.0
H533 H 0.40872 0.40554 0.1869 0.0
H534 H 0.34612 0.40084 0.03809 0.0
C535 C 0.29558 0.35507 0.1657 0.0
C536 C 0.34785 0.39028 0.23115 0.0
C537 C 0.2836 0.33558 0.17661 0.0
C538 C 0.42309 0.42832 0.12629 0.0
C539 C 0.40495 0.41777 0.14987 0.0
C540 C 0.3464 0.39849 0.09244 0.0
C541 C 0.31872 0.35855 0.19411 0.0
C542 C 0.33205 0.37807 0.17861 0.0
C543 C 0.38222 0.42232 0.12391 0.0
C544 C 0.36329 0.40941 0.14415 0.0
H545 H 0.32655 0.31054 0.27493 0.0
H546 H 0.34766 0.3444 0.25485 0.0
H547 H 0.31894 0.37356 0.06809 0.0
H548 H 0.39234 0.46032 1.01323 0.0
H549 H 0.36048 0.44162 0.05424 0.0
C550 C 0.45137 0.57116 0.98935 0.0
C551 C 0.44568 0.55033 1.01241 0.0
C552 C 0.43475 0.58784 0.97805 0.0
C553 C 0.37177 0.59401 0.94234 0.0
H554 H 0.3867 0.65938 0.98372 0.0
C555 C 0.30315 0.66365 0.90186 0.0
C556 C 0.30967 0.68249 0.87045 0.0
C557 C 0.31952 0.64799 0.92482 0.0
C558 C 0.38228 0.64119 0.97138 0.0
H559 H 0.41802 0.53112 0.04364 0.0
H560 H 0.38928 0.56024 0.02497 0.0
H561 H 0.41574 0.63142 1.01395 0.0
H562 H 0.33838 0.69994 0.83931 0.0
H563 H 0.36686 0.6727 0.87897 0.0
H564 H 0.33836 0.60378 0.8993 0.0
C565 C 0.40649 0.56354 1.01434 0.0
C566 C 0.39896 0.62514 0.98866 0.0
C567 C 0.42308 0.54688 0.02554 0.0
C568 C 0.33286 0.6856 0.86348 0.0
C569 C 0.34922 0.67004 0.88662 0.0
C570 C 0.35508 0.61006 0.92519 0.0
C571 C 0.41201 0.58413 0.98959 0.0
C572 C 0.394 0.60132 0.97387 0.0
C573 C 0.34276 0.65092 0.91714 0.0
C574 C 0.36017 0.63386 0.93891 0.0
H575 H 0.46855 0.57442 0.97839 0.0
H576 H 0.43961 0.60335 0.95827 0.0
H577 H 0.36739 0.57583 0.9291 0.0
H578 H 0.28538 0.66086 0.90797 0.0
H579 H 0.31399 0.6336 0.94876 0.0
C580 C 0.19634 0.6673 0.71895 0.0
C581 C 0.19104 0.69086 0.72043 0.0
C582 C 0.17908 0.64982 0.7011 0.0
C583 C 0.11556 0.63921 0.69073 0.0
H584 H 0.12643 0.5828 0.57331 0.0
C585 C 0.04149 0.57034 0.59285 0.0
C586 C 0.04659 0.54689 0.57649 0.0
C587 C 0.05898 0.58758 0.60991 0.0
C588 C 0.12297 0.59817 0.6072 0.0
H589 H 0.16273 0.714 0.70416 0.0
H590 H 0.13288 0.6838 0.67435 0.0
H591 H 0.1565 0.61253 0.60429 0.0
H592 H 0.0748 0.52361 0.56666 0.0
H593 H 0.10506 0.55314 0.59851 0.0
H594 H 0.08236 0.62484 0.69555 0.0
C595 C 0.15046 0.67875 0.68692 0.0
C596 C 0.14043 0.61545 0.62487 0.0
C597 C 0.16774 0.6962 0.70374 0.0
C598 C 0.06995 0.54137 0.57838 0.0
C599 C 0.08748 0.55858 0.59634 0.0
C600 C 0.09822 0.62182 0.67389 0.0
C601 C 0.15574 0.65517 0.68506 0.0
C602 C 0.13707 0.6364 0.66673 0.0
C603 C 0.08246 0.58217 0.61238 0.0
C604 C 0.1014 0.60087 0.63135 0.0
H605 H 0.21394 0.66227 0.73132 0.0
H606 H 0.18404 0.63202 0.70105 0.0
H607 H 0.1122 0.65479 0.72392 0.0
H608 H 0.02383 0.57555 0.59161 0.0
H609 H 0.05386 0.60529 0.62008 0.0
C610 C 0.16803 0.2866 0.31441 0.0
C611 C 0.1884 0.2932 0.29125 0.0
C612 C 0.15137 0.30287 0.32895 0.0
C613 C 0.13141 0.36104 0.2957 0.0
H614 H 0.10243 0.35884 0.46192 0.0
C615 C 0.07401 0.43423 0.40248 0.0
C616 C 0.05477 0.42769 0.43137 0.0
C617 C 0.08993 0.41778 0.38244 0.0
C618 C 0.1101 0.35956 0.41475 0.0
H619 H 0.20696 0.32221 0.26446 0.0
H620 H 0.17801 0.35047 0.29014 0.0
H621 H 0.13058 0.33019 0.43222 0.0
H622 H 0.03675 0.39881 0.46035 0.0
H623 H 0.06418 0.37012 0.42447 0.0
H624 H 0.11091 0.39045 0.27831 0.0
C625 C 0.17482 0.33267 0.29648 0.0
C626 C 0.12628 0.34309 0.39773 0.0
C627 C 0.19151 0.31644 0.28214 0.0
C628 C 0.0515 0.40438 0.43855 0.0
C629 C 0.06733 0.38796 0.41844 0.0
C630 C 0.11517 0.3775 0.31266 0.0
C631 C 0.1546 0.32614 0.32053 0.0
C632 C 0.13716 0.34359 0.33798 0.0
C633 C 0.08692 0.39444 0.39085 0.0
C634 C 0.10427 0.37697 0.3724 0.0
H635 H 0.16497 0.26889 0.32191 0.0
H636 H 0.13587 0.29716 0.34648 0.0
H637 H 0.13924 0.36178 0.24883 0.0
H638 H 0.07698 0.45211 0.39655 0.0
H639 H 0.1049 0.42346 0.36202 0.0
C640 C 0.98427 0.98792 0.74505 0.0
C641 C -0.00093 0.00486 0.72905 0.0
C642 C 0.9822 0.98548 0.81557 0.0
C643 C -0.00472 0.01705 1.0006 0.0
H644 H 0.9872 0.9567 0.05586 0.0
C645 C 0.00021 0.00294 0.29734 0.0
C646 C 0.98541 0.986 0.31334 0.0
C647 C 0.00229 0.00539 0.22682 0.0
C648 C 0.98921 0.97382 0.04179 0.0
H649 H 0.02323 0.0324 0.77594 0.0
H650 H 0.01984 0.02812 0.89613 0.0
H651 H 0.9886 0.96044 0.93337 0.0
H652 H 0.96127 0.95846 0.26644 0.0
H653 H 0.96467 0.96273 0.14625 0.0
H654 H -0.0041 0.03042 0.10902 0.0
C655 C 0.00943 0.01685 0.85529 0.0
C656 C 0.98997 0.97596 0.97072 0.0
C657 C 0.01152 0.01921 0.78553 0.0
C658 C 0.97297 0.97165 0.25685 0.0
C659 C 0.97506 0.97401 0.1871 0.0
C660 C -0.00548 0.01491 0.07167 0.0
C661 C -0.00524 -3e-05 0.87224 0.0
C662 C -0.00693 -0.00238 0.94845 0.0
C663 C 0.98973 0.99089 0.17015 0.0
C664 C 0.99142 0.99325 0.09394 0.0
H665 H 0.97443 0.97649 0.70327 0.0
H666 H 0.97054 0.97233 0.82556 0.0
H667 H -0.00271 0.03417 0.98653 0.0
H668 H 0.01005 0.01438 0.33912 0.0
H669 H 0.01394 0.01854 0.21683 0.0
C670 C 0.23486 0.75266 0.54611 0.0
C671 C 0.24984 0.73657 0.5748 0.0
C672 C 0.23276 0.75495 0.47371 0.0
C673 C 0.24638 0.72396 0.29969 0.0
H674 H 0.23641 0.78347 0.2359 0.0
C675 C 0.25047 0.73789 1.00567 0.0
C676 C 0.23546 0.75394 0.97698 0.0
C677 C 0.25258 0.73559 0.07807 0.0
C678 C 0.23895 0.76655 0.25208 0.0
H679 H 0.27432 0.71044 0.54823 0.0
H680 H 0.27092 0.71451 0.42524 0.0
H681 H 0.23805 0.78006 0.35977 0.0
H682 H 0.21092 0.78001 1.00354 0.0
H683 H 0.21433 0.77595 0.12654 0.0
H684 H 0.24727 0.71046 0.192 0.0
C685 C 0.26037 0.72519 0.45718 0.0
C686 C 0.23986 0.7646 0.32401 0.0
C687 C 0.26247 0.72297 0.52876 0.0
C688 C 0.2228 0.76751 0.02301 0.0
C689 C 0.22491 0.76529 0.0946 0.0
C690 C 0.24546 0.72591 0.22776 0.0
C691 C 0.24547 0.74116 0.42759 0.0
C692 C 0.24365 0.74326 0.34963 0.0
C693 C 0.23985 0.74935 0.12419 0.0
C694 C 0.24168 0.74725 0.20214 0.0
H695 H 0.22483 0.76348 0.57944 0.0
H696 H 0.22091 0.76739 0.45382 0.0
H697 H 0.24891 0.70704 0.31586 0.0
H698 H 0.26054 0.7271 0.97236 0.0
H699 H 0.26446 0.72317 0.09797 0.0
C700 C 0.47068 0.01623 0.77473 0.0
C701 C 0.48401 0.00334 0.82112 0.0
C702 C 0.47291 0.01409 0.7032 0.0
C703 C 0.51188 0.99291 0.57084 0.0
H704 H 0.4582 0.00096 0.43791 0.0
C705 C 0.51476 0.97573 0.26999 0.0
C706 C 0.50134 0.98853 0.22356 0.0
C707 C 0.51256 0.97787 0.34154 0.0
C708 C 0.47353 -0.00103 0.47391 0.0
H709 H 0.51045 0.97785 0.82648 0.0
H710 H 0.51437 0.97388 0.70102 0.0
H711 H 0.45479 0.00274 0.56171 0.0
H712 H 0.47478 0.01389 0.21818 0.0
H713 H 0.47092 0.0179 0.34366 0.0
H714 H 0.53063 0.98915 0.48306 0.0
C715 C 0.50214 0.98595 0.72055 0.0
C716 C 0.47158 -3e-05 0.54582 0.0
C717 C 0.49984 0.98809 0.79287 0.0
C718 C 0.48545 0.00372 0.25181 0.0
C719 C 0.48319 0.00587 0.32415 0.0
C720 C 0.51383 0.99192 0.49893 0.0
C721 C 0.48861 -0.0011 0.67404 0.0
C722 C 0.49071 -0.00299 0.59611 0.0
C723 C 0.4968 0.993 0.3707 0.0
C724 C 0.4947 0.99487 0.44863 0.0
H725 H 0.45836 0.02829 0.79386 0.0
H726 H 0.46244 0.02483 0.67096 0.0
H727 H 0.52721 0.99091 0.60686 0.0
H728 H 0.52712 0.96371 0.25085 0.0
H729 H 0.52309 0.96718 0.37379 0.0
C730 C 0.24714 0.25263 0.03462 0.0
C731 C 0.23126 0.23672 0.05081 0.0
C732 C 0.24943 0.25486 0.96403 0.0
C733 C 0.2191 0.23937 0.77745 0.0
H734 H 0.27822 0.25334 0.7255 0.0
C735 C 0.23364 0.2367 0.48133 0.0
C736 C 0.24945 0.25277 0.46563 0.0
C737 C 0.23124 0.23435 0.55178 0.0
C738 C 0.26141 0.24968 0.73852 0.0
H739 H 0.20551 0.21072 1.00383 0.0
H740 H 0.20957 0.21434 0.8835 0.0
H741 H 0.27458 0.25123 0.84757 0.0
H742 H 0.27495 0.27894 0.51331 0.0
H743 H 0.27073 0.27509 0.63331 0.0
H744 H 0.20594 0.2378 0.66833 0.0
C745 C 0.22008 0.22551 0.92428 0.0
C746 C 0.25932 0.24849 0.80949 0.0
C747 C 0.21785 0.22329 0.99419 0.0
C748 C 0.26267 0.26624 0.52255 0.0
C749 C 0.26035 0.26389 0.59228 0.0
C750 C 0.22119 0.24055 0.70646 0.0
C751 C 0.23588 0.24133 0.90718 0.0
C752 C 0.23812 0.24328 0.83076 0.0
C753 C 0.24464 0.24789 0.60893 0.0
C754 C 0.24239 0.2458 0.68523 0.0
H755 H 0.25784 0.26327 0.07634 0.0
H756 H 0.26172 0.26743 0.95418 0.0
H757 H 0.20228 0.23571 0.79048 0.0
H758 H 0.22308 0.22602 0.43933 0.0
H759 H 0.21902 0.22166 0.56133 0.0
C760 C 0.76167 0.22312 1.01894 0.0
C761 C 0.74896 0.23662 0.06498 0.0
C762 C 0.75953 0.22534 0.94731 0.0
C763 C 0.73851 0.26461 0.81391 0.0
H764 H 0.74653 0.21064 0.68196 0.0
C765 C 0.72134 0.26752 0.51267 0.0
C766 C 0.73411 0.25409 0.46667 0.0
C767 C 0.72347 0.26528 0.58429 0.0
C768 C 0.74455 0.22605 0.71768 0.0
H769 H 0.72375 0.26334 0.06952 0.0
H770 H 0.71976 0.26725 0.94393 0.0
H771 H 0.74833 0.2072 0.80585 0.0
H772 H 0.7594 0.22745 0.46214 0.0
H773 H 0.76336 0.2235 0.58772 0.0
H774 H 0.73471 0.28347 0.72574 0.0
C775 C 0.73171 0.2549 0.96381 0.0
C776 C 0.74556 0.22408 0.78966 0.0
C777 C 0.73387 0.25261 0.03622 0.0
C778 C 0.74925 0.23813 0.49543 0.0
C779 C 0.75138 0.23582 0.56783 0.0
C780 C 0.73749 0.26658 0.74193 0.0
C781 C 0.7445 0.24121 0.91765 0.0
C782 C 0.74262 0.24332 0.83962 0.0
C783 C 0.73855 0.24946 0.61395 0.0
C784 C 0.74044 0.24734 0.69198 0.0
H785 H 0.77362 0.21068 0.03846 0.0
H786 H 0.77015 0.21474 0.91539 0.0
H787 H 0.73652 0.28003 0.84963 0.0
H788 H 0.70937 0.27994 0.49315 0.0
H789 H 0.71282 0.27584 0.6162 0.0
C790 C 0.72127 0.72477 0.51875 0.0
C791 C 0.73464 0.7381 0.57567 0.0
C792 C 0.72361 0.7271 0.44902 0.0
C793 C 0.76302 0.74999 0.33476 0.0
H794 H 0.70954 0.73987 0.19379 0.0
C795 C 0.76656 0.7672 0.04708 0.0
C796 C 0.75302 0.75391 0.99045 0.0
C797 C 0.76431 0.765 0.11698 0.0
C798 C 0.72483 0.74245 0.23183 0.0
H799 H 0.76129 0.76457 0.60196 0.0
H800 H 0.76539 0.76889 0.47996 0.0
H801 H 0.70587 0.73782 0.31587 0.0
H802 H 0.72617 0.72764 0.9649 0.0
H803 H 0.72225 0.72351 0.08707 0.0
H804 H 0.78198 0.75461 0.25069 0.0
C805 C 0.75303 0.75633 0.4895 0.0
C806 C 0.72272 0.7413 0.3028 0.0
C807 C 0.75061 0.754 0.55996 0.0
C808 C 0.73699 0.73817 1.00664 0.0
C809 C 0.73466 0.73596 0.07722 0.0
C810 C 0.76514 0.75114 0.26376 0.0
C811 C 0.73949 0.74292 0.43236 0.0
C812 C 0.74177 0.74498 0.35605 0.0
C813 C 0.74835 0.74935 0.13408 0.0
C814 C 0.74608 0.74743 0.2105 0.0
H815 H 0.70886 0.7122 0.528 0.0
H816 H 0.71311 0.71601 0.40798 0.0
H817 H 0.7783 0.75258 0.37284 0.0
H818 H 0.77903 0.77966 0.03745 0.0
H819 H 0.77493 0.77607 0.15778 0.0
C820 C 0.50074 0.50161 0.79806 0.0
C821 C 0.48542 0.48513 0.81406 0.0
C822 C 0.50278 0.50422 0.72753 0.0
C823 C 0.48789 0.47391 0.54073 0.0
H824 H 0.49942 0.5341 0.48905 0.0
C825 C 0.48358 0.4893 0.24466 0.0
C826 C 0.4989 0.50578 0.22865 0.0
C827 C 0.48155 0.4867 0.31519 0.0
C828 C 0.49644 0.517 0.50199 0.0
H829 H 0.46033 0.45852 0.76671 0.0
H830 H 0.46366 0.46304 0.64652 0.0
H831 H 0.49796 0.52987 0.61114 0.0
H832 H 0.52401 0.53238 0.27599 0.0
H833 H 0.52068 0.52786 0.39618 0.0
H834 H 0.48638 0.46104 0.43157 0.0
C835 C 0.4745 0.47386 0.68743 0.0
C836 C 0.49563 0.51457 0.57297 0.0
C837 C 0.47246 0.47134 0.75727 0.0
C838 C 0.51188 0.51956 0.28543 0.0
C839 C 0.50984 0.51705 0.35528 0.0
C840 C 0.48871 0.47634 0.46974 0.0
C841 C 0.48965 0.49034 0.67052 0.0
C842 C 0.49129 0.49297 0.59414 0.0
C843 C 0.49468 0.50057 0.37219 0.0
C844 C 0.49305 0.49794 0.44857 0.0
H845 H 0.51103 0.51262 0.83986 0.0
H846 H 0.51485 0.51702 0.71784 0.0
H847 H 0.48492 0.45681 0.55366 0.0
H848 H 0.47328 0.47831 0.20286 0.0
H849 H 0.46947 0.4739 0.32488 0.0
C850 C 0.98482 0.50327 0.75063 0.0
C851 C 0.00057 0.48795 0.72227 0.0
C852 C 0.98249 0.50533 0.82291 0.0
C853 C -0.00295 0.47444 0.98366 0.0
H854 H 0.98379 0.53295 0.08572 0.0
C855 C -0.00053 0.48746 0.29141 0.0
C856 C 0.98372 0.50279 0.31978 0.0
C857 C 0.0018 0.4854 0.21913 0.0
C858 C 0.98725 0.51629 0.05839 0.0
H859 H 0.02633 0.46308 0.74947 0.0
H860 H 0.0226 0.46682 0.87259 0.0
H861 H 0.98612 0.53017 0.96102 0.0
H862 H 0.95797 0.52766 0.29258 0.0
H863 H 0.9617 0.52392 0.16946 0.0
H864 H -0.00183 0.46057 0.08103 0.0
C865 C 0.01157 0.47701 0.83996 0.0
C866 C 0.98857 0.51471 0.98598 0.0
C867 C 0.01387 0.475 0.76853 0.0
C868 C 0.97042 0.51574 0.27351 0.0
C869 C 0.97273 0.51373 0.20209 0.0
C870 C -0.00427 0.47602 0.05607 0.0
C871 C -0.00423 0.49207 0.86908 0.0
C872 C -0.00645 0.49376 0.94685 0.0
C873 C 0.98852 0.49866 0.17296 0.0
C874 C 0.99074 0.49697 0.0952 0.0
H875 H 0.97423 0.51355 0.7171 0.0
H876 H 0.96998 0.51709 0.84228 0.0
H877 H 0.00051 0.45779 0.95632 0.0
H878 H 0.01005 0.47718 0.32494 0.0
H879 H 0.01431 0.47364 0.19976 0.0
loop_
_geom_bond_atom_site_label_1
_geom_bond_atom_site_label_2
_geom_bond_distance
_geom_bond_site_symmetry_2
_ccdc_geom_bond_type
Tb0 O3 2.453 . S
Tb0 O4 2.596 1_445 S
Tb0 O5 2.374 1_545 S
Tb0 O13 2.343 . S
Tb0 O15 2.353 1_455 S
Tb0 O17 2.427 . S
Tb0 O18 2.513 . S
C1 O5 1.251 . S
C1 O7 1.263 . S
Tb2 O4 2.343 . S
Tb2 O7 2.353 1_655 S
Tb2 O10 2.427 . S
Tb2 O11 2.513 . S
Tb2 O12 2.453 . S
Tb2 O13 2.596 1_665 S
Tb2 O14 2.374 1_565 S
O3 Tb0 2.453 . S
O3 C19 1.247 1_455 S
O4 Tb0 2.596 1_665 S
O4 Tb2 2.343 . S
O4 C19 1.259 1_565 S
O5 Tb0 2.374 1_565 S
O5 C1 1.251 . S
C6 O10 1.275 . S
C6 O11 1.246 . S
O7 C1 1.263 . S
O7 Tb2 2.353 1_455 S
C8 O12 1.242 1_455 S
C8 O13 1.260 1_565 S
C9 O14 1.250 . S
C9 O15 1.263 . S
O10 Tb2 2.427 . S
O10 C6 1.275 . S
O11 Tb2 2.513 . S
O11 C6 1.246 . S
O12 Tb2 2.453 . S
O12 C8 1.242 1_655 S
O13 Tb0 2.343 . S
O13 Tb2 2.596 1_445 S
O13 C8 1.260 1_545 S
O14 Tb2 2.374 1_545 S
O14 C9 1.250 . S
O15 Tb0 2.353 1_655 S
O15 C9 1.263 . S
C16 O17 1.275 . S
C16 O18 1.246 . S
O17 Tb0 2.427 . S
O17 C16 1.275 . S
O18 Tb0 2.513 . S
O18 C16 1.246 . S
C19 O3 1.247 1_655 S
C19 O4 1.259 1_545 S
Tb20 O23 2.453 . S
Tb20 O24 2.596 . S
Tb20 O25 2.374 . S
Tb20 O33 2.343 . S
Tb20 O35 2.353 . S
Tb20 O37 2.427 . S
Tb20 O38 2.513 . S
C21 O25 1.251 . S
C21 O27 1.263 . S
Tb22 O24 2.343 . S
Tb22 O27 2.353 . S
Tb22 O30 2.427 . S
Tb22 O31 2.513 . S
Tb22 O32 2.453 . S
Tb22 O33 2.596 . S
Tb22 O34 2.374 . S
O23 Tb20 2.453 . S
O23 C39 1.245 . S
O24 Tb20 2.596 . S
O24 Tb22 2.343 . S
O24 C39 1.259 . S
O25 Tb20 2.374 . S
O25 C21 1.251 . S
C26 O30 1.275 . S
C26 O31 1.246 . S
O27 C21 1.263 . S
O27 Tb22 2.353 . S
C28 O32 1.245 . S
C28 O33 1.259 . S
C29 O34 1.250 . S
C29 O35 1.263 . S
O30 Tb22 2.427 . S
O30 C26 1.275 . S
O31 Tb22 2.513 . S
O31 C26 1.246 . S
O32 Tb22 2.453 . S
O32 C28 1.245 . S
O33 Tb20 2.343 . S
O33 Tb22 2.596 . S
O33 C28 1.259 . S
O34 Tb22 2.374 . S
O34 C29 1.250 . S
O35 Tb20 2.353 . S
O35 C29 1.263 . S
C36 O37 1.275 . S
C36 O38 1.246 . S
O37 Tb20 2.427 . S
O37 C36 1.275 . S
O38 Tb20 2.513 . S
O38 C36 1.246 . S
C39 O23 1.245 . S
C39 O24 1.259 . S
Tb40 O43 2.453 . S
Tb40 O44 2.596 1_545 S
Tb40 O45 2.374 1_545 S
Tb40 O53 2.343 1_556 S
Tb40 O55 2.353 1_556 S
Tb40 O57 2.427 1_556 S
Tb40 O58 2.513 1_556 S
C41 O45 1.251 . S
C41 O47 1.263 . S
Tb42 O44 2.343 1_554 S
Tb42 O47 2.353 1_554 S
Tb42 O50 2.427 1_554 S
Tb42 O51 2.513 1_554 S
Tb42 O52 2.453 . S
Tb42 O53 2.596 1_565 S
Tb42 O54 2.374 1_565 S
O43 Tb40 2.453 . S
O43 C59 1.245 1_545 S
O44 Tb40 2.596 1_565 S
O44 Tb42 2.343 1_556 S
O44 C59 1.259 . S
O45 Tb40 2.374 1_565 S
O45 C41 1.251 . S
C46 O50 1.275 . S
C46 O51 1.246 . S
O47 C41 1.263 . S
O47 Tb42 2.353 1_556 S
C48 O52 1.245 1_545 S
C48 O53 1.259 . S
C49 O54 1.250 . S
C49 O55 1.263 . S
O50 Tb42 2.427 1_556 S
O50 C46 1.275 . S
O51 Tb42 2.513 1_556 S
O51 C46 1.246 . S
O52 Tb42 2.453 . S
O52 C48 1.245 1_565 S
O53 Tb40 2.343 1_554 S
O53 Tb42 2.596 1_545 S
O53 C48 1.259 . S
O54 Tb42 2.374 1_545 S
O54 C49 1.250 . S
O55 Tb40 2.353 1_554 S
O55 C49 1.263 . S
C56 O57 1.275 . S
C56 O58 1.246 . S
O57 Tb40 2.427 1_554 S
O57 C56 1.275 . S
O58 Tb40 2.513 1_554 S
O58 C56 1.246 . S
C59 O43 1.245 1_565 S
C59 O44 1.259 . S
Tb60 O63 2.453 . S
Tb60 O64 2.596 . S
Tb60 O65 2.374 . S
Tb60 O73 2.343 . S
Tb60 O75 2.353 . S
Tb60 O77 2.427 . S
Tb60 O78 2.513 . S
C61 O65 1.251 . S
C61 O67 1.263 . S
Tb62 O64 2.343 . S
Tb62 O67 2.353 . S
Tb62 O70 2.427 . S
Tb62 O71 2.513 . S
Tb62 O72 2.453 . S
Tb62 O73 2.596 . S
Tb62 O74 2.374 . S
O63 Tb60 2.453 . S
O63 C79 1.245 . S
O64 Tb60 2.596 . S
O64 Tb62 2.343 . S
O64 C79 1.259 . S
O65 Tb60 2.374 . S
O65 C61 1.251 . S
C66 O70 1.275 . S
C66 O71 1.246 . S
O67 C61 1.263 . S
O67 Tb62 2.353 . S
C68 O72 1.245 . S
C68 O73 1.259 . S
C69 O74 1.250 . S
C69 O75 1.263 . S
O70 Tb62 2.427 . S
O70 C66 1.275 . S
O71 Tb62 2.513 . S
O71 C66 1.246 . S
O72 Tb62 2.453 . S
O72 C68 1.245 . S
O73 Tb60 2.343 . S
O73 Tb62 2.596 . S
O73 C68 1.259 . S
O74 Tb62 2.374 . S
O74 C69 1.250 . S
O75 Tb60 2.353 . S
O75 C69 1.263 . S
C76 O77 1.275 . S
C76 O78 1.246 . S
O77 Tb60 2.427 . S
O77 C76 1.275 . S
O78 Tb60 2.513 . S
O78 C76 1.246 . S
C79 O63 1.245 . S
C79 O64 1.259 . S
Tb80 O83 2.453 . S
Tb80 O84 2.596 . S
Tb80 O85 2.374 . S
Tb80 O93 2.343 . S
Tb80 O95 2.353 . S
Tb80 O97 2.427 . S
Tb80 O98 2.513 . S
C81 O85 1.251 . S
C81 O87 1.263 . S
Tb82 O84 2.343 . S
Tb82 O87 2.353 . S
Tb82 O90 2.427 . S
Tb82 O91 2.513 . S
Tb82 O92 2.453 . S
Tb82 O93 2.596 . S
Tb82 O94 2.374 . S
O83 Tb80 2.453 . S
O83 C99 1.245 . S
O84 Tb80 2.596 . S
O84 Tb82 2.343 . S
O84 C99 1.259 . S
O85 Tb80 2.374 . S
O85 C81 1.251 . S
C86 O90 1.275 . S
C86 O91 1.246 . S
O87 C81 1.263 . S
O87 Tb82 2.353 . S
C88 O92 1.245 . S
C88 O93 1.259 . S
C89 O94 1.250 . S
C89 O95 1.263 . S
O90 Tb82 2.427 . S
O90 C86 1.275 . S
O91 Tb82 2.513 . S
O91 C86 1.246 . S
O92 Tb82 2.453 . S
O92 C88 1.245 . S
O93 Tb80 2.343 . S
O93 Tb82 2.596 . S
O93 C88 1.259 . S
O94 Tb82 2.374 . S
O94 C89 1.250 . S
O95 Tb80 2.353 . S
O95 C89 1.263 . S
C96 O97 1.275 . S
C96 O98 1.246 . S
O97 Tb80 2.427 . S
O97 C96 1.275 . S
O98 Tb80 2.513 . S
O98 C96 1.246 . S
C99 O83 1.245 . S
C99 O84 1.259 . S
Tb100 O103 2.453 . S
Tb100 O104 2.596 . S
Tb100 O105 2.374 . S
Tb100 O113 2.343 . S
Tb100 O115 2.353 . S
Tb100 O117 2.427 . S
Tb100 O118 2.513 . S
C101 O105 1.251 . S
C101 O107 1.263 . S
Tb102 O104 2.343 . S
Tb102 O107 2.353 . S
Tb102 O110 2.427 . S
Tb102 O111 2.513 . S
Tb102 O112 2.453 . S
Tb102 O113 2.596 . S
Tb102 O114 2.374 . S
O103 Tb100 2.453 . S
O103 C119 1.245 . S
O104 Tb100 2.596 . S
O104 Tb102 2.343 . S
O104 C119 1.259 . S
O105 Tb100 2.374 . S
O105 C101 1.251 . S
C106 O110 1.275 . S
C106 O111 1.246 . S
O107 C101 1.263 . S
O107 Tb102 2.353 . S
C108 O112 1.245 . S
C108 O113 1.259 . S
C109 O114 1.250 . S
C109 O115 1.263 . S
O110 Tb102 2.427 . S
O110 C106 1.275 . S
O111 Tb102 2.513 . S
O111 C106 1.246 . S
O112 Tb102 2.453 . S
O112 C108 1.245 . S
O113 Tb100 2.343 . S
O113 Tb102 2.596 . S
O113 C108 1.259 . S
O114 Tb102 2.374 . S
O114 C109 1.250 . S
O115 Tb100 2.353 . S
O115 C109 1.263 . S
C116 O117 1.275 . S
C116 O118 1.246 . S
O117 Tb100 2.427 . S
O117 C116 1.275 . S
O118 Tb100 2.513 . S
O118 C116 1.246 . S
C119 O103 1.245 . S
C119 O104 1.259 . S
Tb120 O123 2.453 . S
Tb120 O124 2.596 . S
Tb120 O125 2.374 . S
Tb120 O133 2.343 1_554 S
Tb120 O135 2.353 . S
Tb120 O137 2.427 1_554 S
Tb120 O138 2.513 1_554 S
C121 O125 1.251 . S
C121 O127 1.263 1_554 S
Tb122 O124 2.343 1_556 S
Tb122 O127 2.353 . S
Tb122 O130 2.427 1_556 S
Tb122 O131 2.513 1_556 S
Tb122 O132 2.453 . S
Tb122 O133 2.596 . S
Tb122 O134 2.374 . S
O123 Tb120 2.453 . S
O123 C139 1.245 . S
O124 Tb120 2.596 . S
O124 Tb122 2.343 1_554 S
O124 C139 1.259 . S
O125 Tb120 2.374 . S
O125 C121 1.251 . S
C126 O130 1.275 . S
C126 O131 1.246 . S
O127 C121 1.263 1_556 S
O127 Tb122 2.353 . S
C128 O132 1.245 . S
C128 O133 1.259 . S
C129 O134 1.250 . S
C129 O135 1.263 1_556 S
O130 Tb122 2.427 1_554 S
O130 C126 1.275 . S
O131 Tb122 2.513 1_554 S
O131 C126 1.246 . S
O132 Tb122 2.453 . S
O132 C128 1.245 . S
O133 Tb120 2.343 1_556 S
O133 Tb122 2.596 . S
O133 C128 1.259 . S
O134 Tb122 2.374 . S
O134 C129 1.250 . S
O135 Tb120 2.353 . S
O135 C129 1.263 1_554 S
C136 O137 1.275 . S
C136 O138 1.246 . S
O137 Tb120 2.427 1_556 S
O137 C136 1.275 . S
O138 Tb120 2.513 1_556 S
O138 C136 1.246 . S
C139 O123 1.245 . S
C139 O124 1.259 . S
Tb140 O143 2.453 . S
Tb140 O144 2.596 1_655 S
Tb140 O145 2.374 . S
Tb140 O153 2.343 . S
Tb140 O155 2.353 1_655 S
Tb140 O157 2.427 . S
Tb140 O158 2.513 . S
C141 O145 1.251 . S
C141 O147 1.263 . S
Tb142 O144 2.343 . S
Tb142 O147 2.353 1_455 S
Tb142 O150 2.427 . S
Tb142 O151 2.513 . S
Tb142 O152 2.453 . S
Tb142 O153 2.596 1_455 S
Tb142 O154 2.374 . S
O143 Tb140 2.453 . S
O143 C159 1.244 1_655 S
O144 Tb140 2.596 1_455 S
O144 Tb142 2.343 . S
O144 C159 1.260 . S
O145 Tb140 2.374 . S
O145 C141 1.251 . S
C146 O150 1.275 . S
C146 O151 1.246 . S
O147 C141 1.263 . S
O147 Tb142 2.353 1_655 S
C148 O152 1.244 . S
C148 O153 1.260 1_455 S
C149 O154 1.250 . S
C149 O155 1.263 . S
O150 Tb142 2.427 . S
O150 C146 1.275 . S
O151 Tb142 2.513 . S
O151 C146 1.246 . S
O152 Tb142 2.453 . S
O152 C148 1.244 . S
O153 Tb140 2.343 . S
O153 Tb142 2.596 1_655 S
O153 C148 1.260 1_655 S
O154 Tb142 2.374 . S
O154 C149 1.250 . S
O155 Tb140 2.353 1_455 S
O155 C149 1.263 . S
C156 O157 1.275 . S
C156 O158 1.246 . S
O157 Tb140 2.427 . S
O157 C156 1.275 . S
O158 Tb140 2.513 . S
O158 C156 1.246 . S
C159 O143 1.244 1_455 S
C159 O144 1.260 . S
C160 C161 1.349 . S
C160 C162 1.327 . S
C160 H185 0.950 . S
C161 C160 1.349 . S
C161 C177 1.349 . S
C162 C160 1.327 . S
C162 C181 1.429 . S
C162 H186 0.950 . S
C163 C180 1.574 . S
C163 C182 1.368 . S
C163 H187 0.949 . S
H164 C168 0.949 . S
C165 C166 1.349 . S
C165 C167 1.327 . S
C165 H188 0.950 . S
C166 C165 1.349 . S
C166 C178 1.349 . S
C167 C165 1.327 . S
C167 C183 1.429 . S
C167 H189 0.950 . S
C168 H164 0.949 . S
C168 C176 1.574 . S
C168 C184 1.368 . S
H169 C177 0.950 . S
H170 C175 0.950 . S
H171 C176 0.949 . S
H172 C178 0.950 . S
H173 C179 0.950 . S
H174 C180 0.949 . S
C175 H170 0.950 . S
C175 C177 1.327 . S
C175 C181 1.429 . S
C176 C168 1.574 . S
C176 H171 0.949 . S
C176 C182 1.368 . S
C177 C161 1.349 . S
C177 H169 0.950 . S
C177 C175 1.327 . S
C178 C166 1.349 . S
C178 H172 0.950 . S
C178 C179 1.327 . S
C179 H173 0.950 . S
C179 C178 1.327 . S
C179 C183 1.429 . S
C180 C163 1.574 . S
C180 H174 0.949 . S
C180 C184 1.368 . S
C181 C162 1.429 . S
C181 C175 1.429 . S
C181 C182 1.523 . S
C182 C163 1.368 . S
C182 C176 1.368 . S
C182 C181 1.523 . S
C183 C167 1.429 . S
C183 C179 1.429 . S
C183 C184 1.523 . S
C184 C168 1.368 . S
C184 C180 1.368 . S
C184 C183 1.523 . S
H185 C160 0.950 . S
H186 C162 0.950 . S
H187 C163 0.949 . S
H188 C165 0.950 . S
H189 C167 0.950 . S
C190 C191 1.349 . S
C190 C192 1.327 . S
C190 H215 0.950 . S
C191 C190 1.349 . S
C191 C207 1.349 . S
C192 C190 1.327 . S
C192 C211 1.429 . S
C192 H216 0.950 . S
C193 C210 1.574 . S
C193 C212 1.368 . S
C193 H217 0.949 . S
H194 C198 0.949 . S
C195 C196 1.349 . S
C195 C197 1.327 . S
C195 H218 0.950 . S
C196 C195 1.349 . S
C196 C208 1.349 . S
C197 C195 1.327 . S
C197 C213 1.429 . S
C197 H219 0.950 . S
C198 H194 0.949 . S
C198 C206 1.574 . S
C198 C214 1.368 . S
H199 C207 0.950 . S
H200 C205 0.950 . S
H201 C206 0.949 . S
H202 C208 0.950 . S
H203 C209 0.950 . S
H204 C210 0.949 . S
C205 H200 0.950 . S
C205 C207 1.327 . S
C205 C211 1.429 . S
C206 C198 1.574 . S
C206 H201 0.949 . S
C206 C212 1.368 . S
C207 C191 1.349 . S
C207 H199 0.950 . S
C207 C205 1.327 . S
C208 C196 1.349 . S
C208 H202 0.950 . S
C208 C209 1.327 . S
C209 H203 0.950 . S
C209 C208 1.327 . S
C209 C213 1.429 . S
C210 C193 1.574 . S
C210 H204 0.949 . S
C210 C214 1.368 . S
C211 C192 1.429 . S
C211 C205 1.429 . S
C211 C212 1.523 . S
C212 C193 1.368 . S
C212 C206 1.368 . S
C212 C211 1.523 . S
C213 C197 1.429 . S
C213 C209 1.429 . S
C213 C214 1.523 . S
C214 C198 1.368 . S
C214 C210 1.368 . S
C214 C213 1.523 . S
H215 C190 0.950 . S
H216 C192 0.950 . S
H217 C193 0.949 . S
H218 C195 0.950 . S
H219 C197 0.950 . S
C220 C221 1.349 . S
C220 C222 1.327 . S
C220 H245 0.950 . S
C221 C220 1.349 . S
C221 C237 1.349 . S
C222 C220 1.327 . S
C222 C241 1.429 . S
C222 H246 0.950 . S
C223 C240 1.574 . S
C223 C242 1.368 . S
C223 H247 0.949 . S
H224 C228 0.949 . S
C225 C226 1.349 . S
C225 C227 1.327 . S
C225 H248 0.950 . S
C226 C225 1.349 . S
C226 C238 1.349 . S
C227 C225 1.327 . S
C227 C243 1.429 . S
C227 H249 0.950 . S
C228 H224 0.949 . S
C228 C236 1.574 . S
C228 C244 1.368 . S
H229 C237 0.950 . S
H230 C235 0.950 . S
H231 C236 0.949 . S
H232 C238 0.950 . S
H233 C239 0.950 . S
H234 C240 0.949 . S
C235 H230 0.950 . S
C235 C237 1.327 . S
C235 C241 1.429 . S
C236 C228 1.574 . S
C236 H231 0.949 . S
C236 C242 1.368 . S
C237 C221 1.349 . S
C237 H229 0.950 . S
C237 C235 1.327 . S
C238 C226 1.349 . S
C238 H232 0.950 . S
C238 C239 1.327 . S
C239 H233 0.950 . S
C239 C238 1.327 . S
C239 C243 1.429 . S
C240 C223 1.574 . S
C240 H234 0.949 . S
C240 C244 1.368 . S
C241 C222 1.429 . S
C241 C235 1.429 . S
C241 C242 1.523 . S
C242 C223 1.368 . S
C242 C236 1.368 . S
C242 C241 1.523 . S
C243 C227 1.429 . S
C243 C239 1.429 . S
C243 C244 1.523 . S
C244 C228 1.368 . S
C244 C240 1.368 . S
C244 C243 1.523 . S
H245 C220 0.950 . S
H246 C222 0.950 . S
H247 C223 0.949 . S
H248 C225 0.950 . S
H249 C227 0.950 . S
C250 C251 1.349 . S
C250 C252 1.327 . S
C250 H275 0.950 . S
C251 C250 1.349 . S
C251 C267 1.349 . S
C252 C250 1.327 . S
C252 C271 1.429 . S
C252 H276 0.950 . S
C253 C270 1.574 . S
C253 C272 1.368 . S
C253 H277 0.949 . S
H254 C258 0.949 . S
C255 C256 1.349 . S
C255 C257 1.327 . S
C255 H278 0.950 . S
C256 C255 1.349 . S
C256 C268 1.349 . S
C257 C255 1.327 . S
C257 C273 1.429 . S
C257 H279 0.950 . S
C258 H254 0.949 . S
C258 C266 1.574 . S
C258 C274 1.368 . S
H259 C267 0.950 . S
H260 C265 0.950 . S
H261 C266 0.949 . S
H262 C268 0.950 . S
H263 C269 0.950 . S
H264 C270 0.949 . S
C265 H260 0.950 . S
C265 C267 1.327 . S
C265 C271 1.429 . S
C266 C258 1.574 . S
C266 H261 0.949 . S
C266 C272 1.368 . S
C267 C251 1.349 . S
C267 H259 0.950 . S
C267 C265 1.327 . S
C268 C256 1.349 . S
C268 H262 0.950 . S
C268 C269 1.327 . S
C269 H263 0.950 . S
C269 C268 1.327 . S
C269 C273 1.429 . S
C270 C253 1.574 . S
C270 H264 0.949 . S
C270 C274 1.368 . S
C271 C252 1.429 . S
C271 C265 1.429 . S
C271 C272 1.523 . S
C272 C253 1.368 . S
C272 C266 1.368 . S
C272 C271 1.523 . S
C273 C257 1.429 . S
C273 C269 1.429 . S
C273 C274 1.523 . S
C274 C258 1.368 . S
C274 C270 1.368 . S
C274 C273 1.523 . S
H275 C250 0.950 . S
H276 C252 0.950 . S
H277 C253 0.949 . S
H278 C255 0.950 . S
H279 C257 0.950 . S
C280 C281 1.349 . S
C280 C282 1.327 . S
C280 H305 0.950 . S
C281 C280 1.349 . S
C281 C297 1.349 . S
C282 C280 1.327 . S
C282 C301 1.429 . S
C282 H306 0.950 . S
C283 C300 1.574 . S
C283 C302 1.368 . S
C283 H307 0.949 . S
H284 C288 0.949 . S
C285 C286 1.349 . S
C285 C287 1.327 . S
C285 H308 0.950 . S
C286 C285 1.349 . S
C286 C298 1.349 . S
C287 C285 1.327 . S
C287 C303 1.429 . S
C287 H309 0.950 . S
C288 H284 0.949 . S
C288 C296 1.574 . S
C288 C304 1.368 . S
H289 C297 0.950 . S
H290 C295 0.950 . S
H291 C296 0.949 . S
H292 C298 0.950 . S
H293 C299 0.950 . S
H294 C300 0.949 . S
C295 H290 0.950 . S
C295 C297 1.327 . S
C295 C301 1.429 . S
C296 C288 1.574 . S
C296 H291 0.949 . S
C296 C302 1.368 . S
C297 C281 1.349 . S
C297 H289 0.950 . S
C297 C295 1.327 . S
C298 C286 1.349 . S
C298 H292 0.950 . S
C298 C299 1.327 . S
C299 H293 0.950 . S
C299 C298 1.327 . S
C299 C303 1.429 . S
C300 C283 1.574 . S
C300 H294 0.949 . S
C300 C304 1.368 . S
C301 C282 1.429 . S
C301 C295 1.429 . S
C301 C302 1.523 . S
C302 C283 1.368 . S
C302 C296 1.368 . S
C302 C301 1.523 . S
C303 C287 1.429 . S
C303 C299 1.429 . S
C303 C304 1.523 . S
C304 C288 1.368 . S
C304 C300 1.368 . S
C304 C303 1.523 . S
H305 C280 0.950 . S
H306 C282 0.950 . S
H307 C283 0.949 . S
H308 C285 0.950 . S
H309 C287 0.950 . S
C310 C311 1.349 . S
C310 C312 1.327 . S
C310 H335 0.950 . S
C311 C310 1.349 . S
C311 C327 1.349 . S
C312 C310 1.327 . S
C312 C331 1.429 . S
C312 H336 0.950 . S
C313 C330 1.574 . S
C313 C332 1.368 . S
C313 H337 0.949 . S
H314 C318 0.949 . S
C315 C316 1.349 . S
C315 C317 1.327 . S
C315 H338 0.950 . S
C316 C315 1.349 . S
C316 C328 1.349 . S
C317 C315 1.327 . S
C317 C333 1.429 . S
C317 H339 0.950 . S
C318 H314 0.949 . S
C318 C326 1.574 . S
C318 C334 1.368 . S
H319 C327 0.950 . S
H320 C325 0.950 . S
H321 C326 0.949 . S
H322 C328 0.950 . S
H323 C329 0.950 . S
H324 C330 0.949 . S
C325 H320 0.950 . S
C325 C327 1.327 . S
C325 C331 1.429 . S
C326 C318 1.574 . S
C326 H321 0.949 . S
C326 C332 1.368 . S
C327 C311 1.349 . S
C327 H319 0.950 . S
C327 C325 1.327 . S
C328 C316 1.349 . S
C328 H322 0.950 . S
C328 C329 1.327 . S
C329 H323 0.950 . S
C329 C328 1.327 . S
C329 C333 1.429 . S
C330 C313 1.574 . S
C330 H324 0.949 . S
C330 C334 1.368 . S
C331 C312 1.429 . S
C331 C325 1.429 . S
C331 C332 1.523 . S
C332 C313 1.368 . S
C332 C326 1.368 . S
C332 C331 1.523 . S
C333 C317 1.429 . S
C333 C329 1.429 . S
C333 C334 1.523 . S
C334 C318 1.368 . S
C334 C330 1.368 . S
C334 C333 1.523 . S
H335 C310 0.950 . S
H336 C312 0.950 . S
H337 C313 0.949 . S
H338 C315 0.950 . S
H339 C317 0.950 . S
C340 C341 1.349 . S
C340 C342 1.327 . S
C340 H365 0.950 . S
C341 C340 1.349 . S
C341 C357 1.349 . S
C342 C340 1.327 . S
C342 C361 1.429 . S
C342 H366 0.950 . S
C343 C360 1.574 . S
C343 C362 1.368 . S
C343 H367 0.949 . S
H344 C348 0.949 . S
C345 C346 1.349 . S
C345 C347 1.327 . S
C345 H368 0.950 1_554 S
C346 C345 1.349 . S
C346 C358 1.349 . S
C347 C345 1.327 . S
C347 C363 1.429 . S
C347 H369 0.950 1_554 S
C348 H344 0.949 . S
C348 C356 1.574 . S
C348 C364 1.368 . S
H349 C357 0.950 . S
H350 C355 0.950 . S
H351 C356 0.949 . S
H352 C358 0.950 . S
H353 C359 0.950 . S
H354 C360 0.949 . S
C355 H350 0.950 . S
C355 C357 1.327 . S
C355 C361 1.429 . S
C356 C348 1.574 . S
C356 H351 0.949 . S
C356 C362 1.368 . S
C357 C341 1.349 . S
C357 H349 0.950 . S
C357 C355 1.327 . S
C358 C346 1.349 . S
C358 H352 0.950 . S
C358 C359 1.327 . S
C359 H353 0.950 . S
C359 C358 1.327 . S
C359 C363 1.429 . S
C360 C343 1.574 . S
C360 H354 0.949 . S
C360 C364 1.368 . S
C361 C342 1.429 . S
C361 C355 1.429 . S
C361 C362 1.523 . S
C362 C343 1.368 . S
C362 C356 1.368 . S
C362 C361 1.523 . S
C363 C347 1.429 . S
C363 C359 1.429 . S
C363 C364 1.523 . S
C364 C348 1.368 . S
C364 C360 1.368 . S
C364 C363 1.523 . S
H365 C340 0.950 . S
H366 C342 0.950 . S
H367 C343 0.949 . S
H368 C345 0.950 1_556 S
H369 C347 0.950 1_556 S
C370 C371 1.349 . S
C370 C372 1.327 . S
C370 H395 0.950 . S
C371 C370 1.349 . S
C371 C387 1.349 . S
C372 C370 1.327 . S
C372 C391 1.429 . S
C372 H396 0.950 . S
C373 C390 1.574 . S
C373 C392 1.368 . S
C373 H397 0.949 . S
H374 C378 0.949 . S
C375 C376 1.349 . S
C375 C377 1.327 . S
C375 H398 0.950 . S
C376 C375 1.349 . S
C376 C388 1.349 . S
C377 C375 1.327 . S
C377 C393 1.429 . S
C377 H399 0.950 . S
C378 H374 0.949 . S
C378 C386 1.574 . S
C378 C394 1.368 . S
H379 C387 0.950 . S
H380 C385 0.950 . S
H381 C386 0.949 . S
H382 C388 0.950 . S
H383 C389 0.950 . S
H384 C390 0.949 . S
C385 H380 0.950 . S
C385 C387 1.327 . S
C385 C391 1.429 . S
C386 C378 1.574 . S
C386 H381 0.949 . S
C386 C392 1.368 . S
C387 C371 1.349 . S
C387 H379 0.950 . S
C387 C385 1.327 . S
C388 C376 1.349 . S
C388 H382 0.950 . S
C388 C389 1.327 . S
C389 H383 0.950 . S
C389 C388 1.327 . S
C389 C393 1.429 . S
C390 C373 1.574 . S
C390 H384 0.949 . S
C390 C394 1.368 . S
C391 C372 1.429 . S
C391 C385 1.429 . S
C391 C392 1.523 . S
C392 C373 1.368 . S
C392 C386 1.368 . S
C392 C391 1.523 . S
C393 C377 1.429 . S
C393 C389 1.429 . S
C393 C394 1.523 . S
C394 C378 1.368 . S
C394 C390 1.368 . S
C394 C393 1.523 . S
H395 C370 0.950 . S
H396 C372 0.950 . S
H397 C373 0.949 . S
H398 C375 0.950 . S
H399 C377 0.950 . S
C400 C401 1.349 . S
C400 C402 1.327 . S
C400 H425 0.950 1_556 S
C401 C400 1.349 . S
C401 C417 1.349 . S
C402 C400 1.327 . S
C402 C421 1.429 . S
C402 H426 0.950 . S
C403 C420 1.574 . S
C403 C422 1.368 . S
C403 H427 0.949 . S
H404 C408 0.949 . S
C405 C406 1.349 . S
C405 C407 1.327 . S
C405 H428 0.950 . S
C406 C405 1.349 . S
C406 C418 1.349 . S
C407 C405 1.327 . S
C407 C423 1.429 . S
C407 H429 0.950 . S
C408 H404 0.949 . S
C408 C416 1.574 . S
C408 C424 1.368 . S
H409 C417 0.950 . S
H410 C415 0.950 . S
H411 C416 0.949 . S
H412 C418 0.950 . S
H413 C419 0.950 . S
H414 C420 0.949 . S
C415 H410 0.950 . S
C415 C417 1.327 . S
C415 C421 1.429 . S
C416 C408 1.574 . S
C416 H411 0.949 . S
C416 C422 1.368 . S
C417 C401 1.349 . S
C417 H409 0.950 . S
C417 C415 1.327 . S
C418 C406 1.349 . S
C418 H412 0.950 . S
C418 C419 1.327 . S
C419 H413 0.950 . S
C419 C418 1.327 . S
C419 C423 1.429 . S
C420 C403 1.574 . S
C420 H414 0.949 . S
C420 C424 1.368 . S
C421 C402 1.429 . S
C421 C415 1.429 . S
C421 C422 1.523 . S
C422 C403 1.368 . S
C422 C416 1.368 . S
C422 C421 1.523 . S
C423 C407 1.429 . S
C423 C419 1.429 . S
C423 C424 1.523 . S
C424 C408 1.368 . S
C424 C420 1.368 . S
C424 C423 1.523 . S
H425 C400 0.950 1_554 S
H426 C402 0.950 . S
H427 C403 0.949 . S
H428 C405 0.950 . S
H429 C407 0.950 . S
C430 C431 1.349 . S
C430 C432 1.327 . S
C430 H455 0.950 . S
C431 C430 1.349 . S
C431 C447 1.349 . S
C432 C430 1.327 . S
C432 C451 1.429 . S
C432 H456 0.950 . S
C433 C450 1.574 . S
C433 C452 1.368 . S
C433 H457 0.949 . S
H434 C438 0.949 . S
C435 C436 1.349 . S
C435 C437 1.327 . S
C435 H458 0.950 . S
C436 C435 1.349 . S
C436 C448 1.349 . S
C437 C435 1.327 . S
C437 C453 1.429 . S
C437 H459 0.950 . S
C438 H434 0.949 . S
C438 C446 1.574 . S
C438 C454 1.368 . S
H439 C447 0.950 . S
H440 C445 0.950 . S
H441 C446 0.949 . S
H442 C448 0.950 1_556 S
H443 C449 0.950 1_556 S
H444 C450 0.949 . S
C445 H440 0.950 . S
C445 C447 1.327 . S
C445 C451 1.429 . S
C446 C438 1.574 . S
C446 H441 0.949 . S
C446 C452 1.368 . S
C447 C431 1.349 . S
C447 H439 0.950 . S
C447 C445 1.327 . S
C448 C436 1.349 . S
C448 H442 0.950 1_554 S
C448 C449 1.327 . S
C449 H443 0.950 1_554 S
C449 C448 1.327 . S
C449 C453 1.429 . S
C450 C433 1.574 . S
C450 H444 0.949 . S
C450 C454 1.368 . S
C451 C432 1.429 . S
C451 C445 1.429 . S
C451 C452 1.523 . S
C452 C433 1.368 . S
C452 C446 1.368 . S
C452 C451 1.523 . S
C453 C437 1.429 . S
C453 C449 1.429 . S
C453 C454 1.523 . S
C454 C438 1.368 . S
C454 C450 1.368 . S
C454 C453 1.523 . S
H455 C430 0.950 . S
H456 C432 0.950 . S
H457 C433 0.949 . S
H458 C435 0.950 . S
H459 C437 0.950 . S
C460 C461 1.349 . S
C460 C462 1.327 . S
C460 H485 0.950 . S
C461 C460 1.349 . S
C461 C477 1.349 . S
C462 C460 1.327 . S
C462 C481 1.429 . S
C462 H486 0.950 . S
C463 C480 1.574 . S
C463 C482 1.368 . S
C463 H487 0.949 . S
H464 C468 0.949 . S
C465 C466 1.349 . S
C465 C467 1.327 . S
C465 H488 0.950 . S
C466 C465 1.349 . S
C466 C478 1.349 . S
C467 C465 1.327 . S
C467 C483 1.429 . S
C467 H489 0.950 . S
C468 H464 0.949 . S
C468 C476 1.574 . S
C468 C484 1.368 . S
H469 C477 0.950 . S
H470 C475 0.950 . S
H471 C476 0.949 . S
H472 C478 0.950 . S
H473 C479 0.950 . S
H474 C480 0.949 . S
C475 H470 0.950 . S
C475 C477 1.327 . S
C475 C481 1.429 . S
C476 C468 1.574 . S
C476 H471 0.949 . S
C476 C482 1.368 . S
C477 C461 1.349 . S
C477 H469 0.950 . S
C477 C475 1.327 . S
C478 C466 1.349 . S
C478 H472 0.950 . S
C478 C479 1.327 . S
C479 H473 0.950 . S
C479 C478 1.327 . S
C479 C483 1.429 . S
C480 C463 1.574 . S
C480 H474 0.949 . S
C480 C484 1.368 . S
C481 C462 1.429 . S
C481 C475 1.429 . S
C481 C482 1.523 . S
C482 C463 1.368 . S
C482 C476 1.368 . S
C482 C481 1.523 . S
C483 C467 1.429 . S
C483 C479 1.429 . S
C483 C484 1.523 . S
C484 C468 1.368 . S
C484 C480 1.368 . S
C484 C483 1.523 . S
H485 C460 0.950 . S
H486 C462 0.950 . S
H487 C463 0.949 . S
H488 C465 0.950 . S
H489 C467 0.950 . S
C490 C491 1.349 . S
C490 C492 1.327 . S
C490 H515 0.950 . S
C491 C490 1.349 . S
C491 C507 1.349 . S
C492 C490 1.327 . S
C492 C511 1.429 . S
C492 H516 0.950 . S
C493 C510 1.574 . S
C493 C512 1.368 . S
C493 H517 0.949 . S
H494 C498 0.949 . S
C495 C496 1.349 . S
C495 C497 1.327 . S
C495 H518 0.950 . S
C496 C495 1.349 . S
C496 C508 1.349 . S
C497 C495 1.327 . S
C497 C513 1.429 . S
C497 H519 0.950 . S
C498 H494 0.949 . S
C498 C506 1.574 . S
C498 C514 1.368 . S
H499 C507 0.950 . S
H500 C505 0.950 . S
H501 C506 0.949 . S
H502 C508 0.950 . S
H503 C509 0.950 . S
H504 C510 0.949 . S
C505 H500 0.950 . S
C505 C507 1.327 . S
C505 C511 1.429 . S
C506 C498 1.574 . S
C506 H501 0.949 . S
C506 C512 1.368 . S
C507 C491 1.349 . S
C507 H499 0.950 . S
C507 C505 1.327 . S
C508 C496 1.349 . S
C508 H502 0.950 . S
C508 C509 1.327 . S
C509 H503 0.950 . S
C509 C508 1.327 . S
C509 C513 1.429 . S
C510 C493 1.574 . S
C510 H504 0.949 . S
C510 C514 1.368 . S
C511 C492 1.429 . S
C511 C505 1.429 . S
C511 C512 1.523 . S
C512 C493 1.368 . S
C512 C506 1.368 . S
C512 C511 1.523 . S
C513 C497 1.429 . S
C513 C509 1.429 . S
C513 C514 1.523 . S
C514 C498 1.368 . S
C514 C510 1.368 . S
C514 C513 1.523 . S
H515 C490 0.950 . S
H516 C492 0.950 . S
H517 C493 0.949 . S
H518 C495 0.950 . S
H519 C497 0.950 . S
C520 C521 1.349 . S
C520 C522 1.327 . S
C520 H545 0.950 . S
C521 C520 1.349 . S
C521 C537 1.349 . S
C522 C520 1.327 . S
C522 C541 1.429 . S
C522 H546 0.950 . S
C523 C540 1.574 . S
C523 C542 1.368 . S
C523 H547 0.949 . S
H524 C528 0.949 . S
C525 C526 1.349 . S
C525 C527 1.327 . S
C525 H548 0.950 1_554 S
C526 C525 1.349 . S
C526 C538 1.349 . S
C527 C525 1.327 . S
C527 C543 1.429 . S
C527 H549 0.950 . S
C528 H524 0.949 . S
C528 C536 1.574 . S
C528 C544 1.368 . S
H529 C537 0.950 . S
H530 C535 0.950 . S
H531 C536 0.949 . S
H532 C538 0.950 . S
H533 C539 0.950 . S
H534 C540 0.949 . S
C535 H530 0.950 . S
C535 C537 1.327 . S
C535 C541 1.429 . S
C536 C528 1.574 . S
C536 H531 0.949 . S
C536 C542 1.368 . S
C537 C521 1.349 . S
C537 H529 0.950 . S
C537 C535 1.327 . S
C538 C526 1.349 . S
C538 H532 0.950 . S
C538 C539 1.327 . S
C539 H533 0.950 . S
C539 C538 1.327 . S
C539 C543 1.429 . S
C540 C523 1.574 . S
C540 H534 0.949 . S
C540 C544 1.368 . S
C541 C522 1.429 . S
C541 C535 1.429 . S
C541 C542 1.523 . S
C542 C523 1.368 . S
C542 C536 1.368 . S
C542 C541 1.523 . S
C543 C527 1.429 . S
C543 C539 1.429 . S
C543 C544 1.523 . S
C544 C528 1.368 . S
C544 C540 1.368 . S
C544 C543 1.523 . S
H545 C520 0.950 . S
H546 C522 0.950 . S
H547 C523 0.949 . S
H548 C525 0.950 1_556 S
H549 C527 0.950 . S
C550 C551 1.349 . S
C550 C552 1.327 . S
C550 H575 0.950 1_556 S
C551 C550 1.349 . S
C551 C567 1.349 . S
C552 C550 1.327 . S
C552 C571 1.429 . S
C552 H576 0.950 1_556 S
C553 C570 1.574 . S
C553 C572 1.368 . S
C553 H577 0.949 . S
H554 C558 0.949 . S
C555 C556 1.349 . S
C555 C557 1.327 . S
C555 H578 0.950 . S
C556 C555 1.349 . S
C556 C568 1.349 . S
C557 C555 1.327 . S
C557 C573 1.429 . S
C557 H579 0.950 . S
C558 H554 0.949 . S
C558 C566 1.574 . S
C558 C574 1.368 . S
H559 C567 0.950 . S
H560 C565 0.950 . S
H561 C566 0.949 . S
H562 C568 0.950 . S
H563 C569 0.950 . S
H564 C570 0.949 . S
C565 H560 0.950 . S
C565 C567 1.327 . S
C565 C571 1.429 . S
C566 C558 1.574 . S
C566 H561 0.949 . S
C566 C572 1.368 . S
C567 C551 1.349 . S
C567 H559 0.950 . S
C567 C565 1.327 . S
C568 C556 1.349 . S
C568 H562 0.950 . S
C568 C569 1.327 . S
C569 H563 0.950 . S
C569 C568 1.327 . S
C569 C573 1.429 . S
C570 C553 1.574 . S
C570 H564 0.949 . S
C570 C574 1.368 . S
C571 C552 1.429 . S
C571 C565 1.429 . S
C571 C572 1.523 . S
C572 C553 1.368 . S
C572 C566 1.368 . S
C572 C571 1.523 . S
C573 C557 1.429 . S
C573 C569 1.429 . S
C573 C574 1.523 . S
C574 C558 1.368 . S
C574 C570 1.368 . S
C574 C573 1.523 . S
H575 C550 0.950 1_554 S
H576 C552 0.950 1_554 S
H577 C553 0.949 . S
H578 C555 0.950 . S
H579 C557 0.950 . S
C580 C581 1.349 . S
C580 C582 1.327 . S
C580 H605 0.950 . S
C581 C580 1.349 . S
C581 C597 1.349 . S
C582 C580 1.327 . S
C582 C601 1.429 . S
C582 H606 0.950 . S
C583 C600 1.574 . S
C583 C602 1.368 . S
C583 H607 0.949 . S
H584 C588 0.949 . S
C585 C586 1.349 . S
C585 C587 1.327 . S
C585 H608 0.950 . S
C586 C585 1.349 . S
C586 C598 1.349 . S
C587 C585 1.327 . S
C587 C603 1.429 . S
C587 H609 0.950 . S
C588 H584 0.949 . S
C588 C596 1.574 . S
C588 C604 1.368 . S
H589 C597 0.950 . S
H590 C595 0.950 . S
H591 C596 0.949 . S
H592 C598 0.950 . S
H593 C599 0.950 . S
H594 C600 0.949 . S
C595 H590 0.950 . S
C595 C597 1.327 . S
C595 C601 1.429 . S
C596 C588 1.574 . S
C596 H591 0.949 . S
C596 C602 1.368 . S
C597 C581 1.349 . S
C597 H589 0.950 . S
C597 C595 1.327 . S
C598 C586 1.349 . S
C598 H592 0.950 . S
C598 C599 1.327 . S
C599 H593 0.950 . S
C599 C598 1.327 . S
C599 C603 1.429 . S
C600 C583 1.574 . S
C600 H594 0.949 . S
C600 C604 1.368 . S
C601 C582 1.429 . S
C601 C595 1.429 . S
C601 C602 1.523 . S
C602 C583 1.368 . S
C602 C596 1.368 . S
C602 C601 1.523 . S
C603 C587 1.429 . S
C603 C599 1.429 . S
C603 C604 1.523 . S
C604 C588 1.368 . S
C604 C600 1.368 . S
C604 C603 1.523 . S
H605 C580 0.950 . S
H606 C582 0.950 . S
H607 C583 0.949 . S
H608 C585 0.950 . S
H609 C587 0.950 . S
C610 C611 1.349 . S
C610 C612 1.327 . S
C610 H635 0.950 . S
C611 C610 1.349 . S
C611 C627 1.349 . S
C612 C610 1.327 . S
C612 C631 1.429 . S
C612 H636 0.950 . S
C613 C630 1.574 . S
C613 C632 1.368 . S
C613 H637 0.949 . S
H614 C618 0.949 . S
C615 C616 1.349 . S
C615 C617 1.327 . S
C615 H638 0.950 . S
C616 C615 1.349 . S
C616 C628 1.349 . S
C617 C615 1.327 . S
C617 C633 1.429 . S
C617 H639 0.950 . S
C618 H614 0.949 . S
C618 C626 1.574 . S
C618 C634 1.368 . S
H619 C627 0.950 . S
H620 C625 0.950 . S
H621 C626 0.949 . S
H622 C628 0.950 . S
H623 C629 0.950 . S
H624 C630 0.949 . S
C625 H620 0.950 . S
C625 C627 1.327 . S
C625 C631 1.429 . S
C626 C618 1.574 . S
C626 H621 0.949 . S
C626 C632 1.368 . S
C627 C611 1.349 . S
C627 H619 0.950 . S
C627 C625 1.327 . S
C628 C616 1.349 . S
C628 H622 0.950 . S
C628 C629 1.327 . S
C629 H623 0.950 . S
C629 C628 1.327 . S
C629 C633 1.429 . S
C630 C613 1.574 . S
C630 H624 0.949 . S
C630 C634 1.368 . S
C631 C612 1.429 . S
C631 C625 1.429 . S
C631 C632 1.523 . S
C632 C613 1.368 . S
C632 C626 1.368 . S
C632 C631 1.523 . S
C633 C617 1.429 . S
C633 C629 1.429 . S
C633 C634 1.523 . S
C634 C618 1.368 . S
C634 C630 1.368 . S
C634 C633 1.523 . S
H635 C610 0.950 . S
H636 C612 0.950 . S
H637 C613 0.949 . S
H638 C615 0.950 . S
H639 C617 0.950 . S
C640 C641 1.349 1_455 S
C640 C642 1.327 . S
C640 H665 0.950 . S
C641 C640 1.349 1_655 S
C641 C657 1.349 1_565 S
C642 C640 1.327 . S
C642 C661 1.429 1_455 S
C642 H666 0.950 . S
C643 C660 1.574 1_556 S
C643 C662 1.357 1_545 S
C643 H667 0.949 . S
H644 C648 0.949 . S
C645 C646 1.349 1_655 S
C645 C647 1.327 . S
C645 H668 0.950 . S
C646 C645 1.349 1_455 S
C646 C658 1.349 1_545 S
C647 C645 1.327 . S
C647 C663 1.429 1_655 S
C647 H669 0.950 . S
C648 H644 0.949 . S
C648 C656 1.574 1_554 S
C648 C664 1.357 1_565 S
H649 C657 0.950 . S
H650 C655 0.950 . S
H651 C656 0.949 . S
H652 C658 0.950 . S
H653 C659 0.950 . S
H654 C660 0.949 . S
C655 H650 0.950 . S
C655 C657 1.327 . S
C655 C661 1.429 1_545 S
C656 C648 1.574 1_556 S
C656 H651 0.949 . S
C656 C662 1.386 1_455 S
C657 C641 1.349 1_545 S
C657 H649 0.950 . S
C657 C655 1.327 . S
C658 C646 1.349 1_565 S
C658 H652 0.950 . S
C658 C659 1.327 . S
C659 H653 0.950 . S
C659 C658 1.327 . S
C659 C663 1.429 1_565 S
C660 C643 1.574 1_554 S
C660 H654 0.949 . S
C660 C664 1.389 1_655 S
C661 C642 1.429 1_655 S
C661 C655 1.429 1_565 S
C661 C662 1.517 . S
C662 C643 1.357 1_565 S
C662 C656 1.386 1_655 S
C662 C661 1.517 . S
C663 C647 1.429 1_455 S
C663 C659 1.429 1_545 S
C663 C664 1.516 . S
C664 C648 1.357 1_545 S
C664 C660 1.389 1_455 S
C664 C663 1.516 . S
H665 C640 0.950 . S
H666 C642 0.950 . S
H667 C643 0.949 . S
H668 C645 0.950 . S
H669 C647 0.950 . S
C670 C671 1.349 . S
C670 C672 1.327 . S
C670 H695 0.950 . S
C671 C670 1.349 . S
C671 C687 1.349 . S
C672 C670 1.327 . S
C672 C691 1.429 . S
C672 H696 0.950 . S
C673 C690 1.574 . S
C673 C692 1.368 . S
C673 H697 0.949 . S
H674 C678 0.949 . S
C675 C676 1.349 . S
C675 C677 1.327 1_556 S
C675 H698 0.950 . S
C676 C675 1.349 . S
C676 C688 1.349 1_556 S
C677 C675 1.327 1_554 S
C677 C693 1.429 . S
C677 H699 0.950 . S
C678 H674 0.949 . S
C678 C686 1.574 . S
C678 C694 1.368 . S
H679 C687 0.950 . S
H680 C685 0.950 . S
H681 C686 0.949 . S
H682 C688 0.950 . S
H683 C689 0.950 . S
H684 C690 0.949 . S
C685 H680 0.950 . S
C685 C687 1.327 . S
C685 C691 1.429 . S
C686 C678 1.574 . S
C686 H681 0.949 . S
C686 C692 1.368 . S
C687 C671 1.349 . S
C687 H679 0.950 . S
C687 C685 1.327 . S
C688 C676 1.349 1_554 S
C688 H682 0.950 . S
C688 C689 1.327 . S
C689 H683 0.950 . S
C689 C688 1.327 . S
C689 C693 1.429 . S
C690 C673 1.574 . S
C690 H684 0.949 . S
C690 C694 1.368 . S
C691 C672 1.429 . S
C691 C685 1.429 . S
C691 C692 1.523 . S
C692 C673 1.368 . S
C692 C686 1.368 . S
C692 C691 1.523 . S
C693 C677 1.429 . S
C693 C689 1.429 . S
C693 C694 1.523 . S
C694 C678 1.368 . S
C694 C690 1.368 . S
C694 C693 1.523 . S
H695 C670 0.950 . S
H696 C672 0.950 . S
H697 C673 0.949 . S
H698 C675 0.950 . S
H699 C677 0.950 . S
C700 C701 1.349 . S
C700 C702 1.327 . S
C700 H725 0.950 . S
C701 C700 1.349 . S
C701 C717 1.349 1_565 S
C702 C700 1.327 . S
C702 C721 1.429 . S
C702 H726 0.950 . S
C703 C720 1.574 . S
C703 C722 1.368 1_545 S
C703 H727 0.949 . S
H704 C708 0.949 . S
C705 C706 1.349 . S
C705 C707 1.327 . S
C705 H728 0.950 . S
C706 C705 1.349 . S
C706 C718 1.349 1_545 S
C707 C705 1.327 . S
C707 C723 1.429 . S
C707 H729 0.950 . S
C708 H704 0.949 . S
C708 C716 1.574 . S
C708 C724 1.368 1_565 S
H709 C717 0.950 . S
H710 C715 0.950 . S
H711 C716 0.949 . S
H712 C718 0.950 . S
H713 C719 0.950 . S
H714 C720 0.949 . S
C715 H710 0.950 . S
C715 C717 1.327 . S
C715 C721 1.429 1_545 S
C716 C708 1.574 . S
C716 H711 0.949 . S
C716 C722 1.368 . S
C717 C701 1.349 1_545 S
C717 H709 0.950 . S
C717 C715 1.327 . S
C718 C706 1.349 1_565 S
C718 H712 0.950 . S
C718 C719 1.327 . S
C719 H713 0.950 . S
C719 C718 1.327 . S
C719 C723 1.429 1_565 S
C720 C703 1.574 . S
C720 H714 0.949 . S
C720 C724 1.368 . S
C721 C702 1.429 . S
C721 C715 1.429 1_565 S
C721 C722 1.523 . S
C722 C703 1.368 1_565 S
C722 C716 1.368 . S
C722 C721 1.523 . S
C723 C707 1.429 . S
C723 C719 1.429 1_545 S
C723 C724 1.523 . S
C724 C708 1.368 1_545 S
C724 C720 1.368 . S
C724 C723 1.523 . S
H725 C700 0.950 . S
H726 C702 0.950 . S
H727 C703 0.949 . S
H728 C705 0.950 . S
H729 C707 0.950 . S
C730 C731 1.349 . S
C730 C732 1.327 1_554 S
C730 H755 0.950 . S
C731 C730 1.349 . S
C731 C747 1.349 1_554 S
C732 C730 1.327 1_556 S
C732 C751 1.429 . S
C732 H756 0.950 . S
C733 C750 1.574 . S
C733 C752 1.368 . S
C733 H757 0.949 . S
H734 C738 0.949 . S
C735 C736 1.349 . S
C735 C737 1.327 . S
C735 H758 0.950 . S
C736 C735 1.349 . S
C736 C748 1.349 . S
C737 C735 1.327 . S
C737 C753 1.429 . S
C737 H759 0.950 . S
C738 H734 0.949 . S
C738 C746 1.574 . S
C738 C754 1.368 . S
H739 C747 0.950 1_554 S
H740 C745 0.950 . S
H741 C746 0.949 . S
H742 C748 0.950 . S
H743 C749 0.950 . S
H744 C750 0.949 . S
C745 H740 0.950 . S
C745 C747 1.327 . S
C745 C751 1.429 . S
C746 C738 1.574 . S
C746 H741 0.949 . S
C746 C752 1.368 . S
C747 C731 1.349 1_556 S
C747 H739 0.950 1_556 S
C747 C745 1.327 . S
C748 C736 1.349 . S
C748 H742 0.950 . S
C748 C749 1.327 . S
C749 H743 0.950 . S
C749 C748 1.327 . S
C749 C753 1.429 . S
C750 C733 1.574 . S
C750 H744 0.949 . S
C750 C754 1.368 . S
C751 C732 1.429 . S
C751 C745 1.429 . S
C751 C752 1.523 . S
C752 C733 1.368 . S
C752 C746 1.368 . S
C752 C751 1.523 . S
C753 C737 1.429 . S
C753 C749 1.429 . S
C753 C754 1.523 . S
C754 C738 1.368 . S
C754 C750 1.368 . S
C754 C753 1.523 . S
H755 C730 0.950 . S
H756 C732 0.950 . S
H757 C733 0.949 . S
H758 C735 0.950 . S
H759 C737 0.950 . S
C760 C761 1.349 1_556 S
C760 C762 1.327 . S
C760 H785 0.950 . S
C761 C760 1.349 1_554 S
C761 C777 1.349 . S
C762 C760 1.327 . S
C762 C781 1.429 . S
C762 H786 0.950 . S
C763 C780 1.574 . S
C763 C782 1.368 . S
C763 H787 0.949 . S
H764 C768 0.949 . S
C765 C766 1.349 . S
C765 C767 1.327 . S
C765 H788 0.950 . S
C766 C765 1.349 . S
C766 C778 1.349 . S
C767 C765 1.327 . S
C767 C783 1.429 . S
C767 H789 0.950 . S
C768 H764 0.949 . S
C768 C776 1.574 . S
C768 C784 1.368 . S
H769 C777 0.950 . S
H770 C775 0.950 . S
H771 C776 0.949 . S
H772 C778 0.950 . S
H773 C779 0.950 . S
H774 C780 0.949 . S
C775 H770 0.950 . S
C775 C777 1.327 1_556 S
C775 C781 1.429 . S
C776 C768 1.574 . S
C776 H771 0.949 . S
C776 C782 1.368 . S
C777 C761 1.349 . S
C777 H769 0.950 . S
C777 C775 1.327 1_554 S
C778 C766 1.349 . S
C778 H772 0.950 . S
C778 C779 1.327 . S
C779 H773 0.950 . S
C779 C778 1.327 . S
C779 C783 1.429 . S
C780 C763 1.574 . S
C780 H774 0.949 . S
C780 C784 1.368 . S
C781 C762 1.429 . S
C781 C775 1.429 . S
C781 C782 1.523 . S
C782 C763 1.368 . S
C782 C776 1.368 . S
C782 C781 1.523 . S
C783 C767 1.429 . S
C783 C779 1.429 . S
C783 C784 1.523 . S
C784 C768 1.368 . S
C784 C780 1.368 . S
C784 C783 1.523 . S
H785 C760 0.950 . S
H786 C762 0.950 . S
H787 C763 0.949 . S
H788 C765 0.950 . S
H789 C767 0.950 . S
C790 C791 1.349 . S
C790 C792 1.327 . S
C790 H815 0.950 . S
C791 C790 1.349 . S
C791 C807 1.349 . S
C792 C790 1.327 . S
C792 C811 1.429 . S
C792 H816 0.950 . S
C793 C810 1.574 . S
C793 C812 1.368 . S
C793 H817 0.949 . S
H794 C798 0.949 . S
C795 C796 1.349 1_554 S
C795 C797 1.327 . S
C795 H818 0.950 1_554 S
C796 C795 1.349 1_556 S
C796 C808 1.349 . S
C797 C795 1.327 . S
C797 C813 1.429 . S
C797 H819 0.950 . S
C798 H794 0.949 . S
C798 C806 1.574 . S
C798 C814 1.368 . S
H799 C807 0.950 . S
H800 C805 0.950 . S
H801 C806 0.949 . S
H802 C808 0.950 . S
H803 C809 0.950 . S
H804 C810 0.949 . S
C805 H800 0.950 . S
C805 C807 1.327 . S
C805 C811 1.429 . S
C806 C798 1.574 . S
C806 H801 0.949 . S
C806 C812 1.368 . S
C807 C791 1.349 . S
C807 H799 0.950 . S
C807 C805 1.327 . S
C808 C796 1.349 . S
C808 H802 0.950 . S
C808 C809 1.327 1_556 S
C809 H803 0.950 . S
C809 C808 1.327 1_554 S
C809 C813 1.429 . S
C810 C793 1.574 . S
C810 H804 0.949 . S
C810 C814 1.368 . S
C811 C792 1.429 . S
C811 C805 1.429 . S
C811 C812 1.523 . S
C812 C793 1.368 . S
C812 C806 1.368 . S
C812 C811 1.523 . S
C813 C797 1.429 . S
C813 C809 1.429 . S
C813 C814 1.523 . S
C814 C798 1.368 . S
C814 C810 1.368 . S
C814 C813 1.523 . S
H815 C790 0.950 . S
H816 C792 0.950 . S
H817 C793 0.949 . S
H818 C795 0.950 1_556 S
H819 C797 0.950 . S
C820 C821 1.349 . S
C820 C822 1.327 . S
C820 H845 0.950 . S
C821 C820 1.349 . S
C821 C837 1.349 . S
C822 C820 1.327 . S
C822 C841 1.429 . S
C822 H846 0.950 . S
C823 C840 1.574 . S
C823 C842 1.368 . S
C823 H847 0.949 . S
H824 C828 0.949 . S
C825 C826 1.349 . S
C825 C827 1.327 . S
C825 H848 0.950 . S
C826 C825 1.349 . S
C826 C838 1.349 . S
C827 C825 1.327 . S
C827 C843 1.429 . S
C827 H849 0.950 . S
C828 H824 0.949 . S
C828 C836 1.574 . S
C828 C844 1.368 . S
H829 C837 0.950 . S
H830 C835 0.950 . S
H831 C836 0.949 . S
H832 C838 0.950 . S
H833 C839 0.950 . S
H834 C840 0.949 . S
C835 H830 0.950 . S
C835 C837 1.327 . S
C835 C841 1.429 . S
C836 C828 1.574 . S
C836 H831 0.949 . S
C836 C842 1.368 . S
C837 C821 1.349 . S
C837 H829 0.950 . S
C837 C835 1.327 . S
C838 C826 1.349 . S
C838 H832 0.950 . S
C838 C839 1.327 . S
C839 H833 0.950 . S
C839 C838 1.327 . S
C839 C843 1.429 . S
C840 C823 1.574 . S
C840 H834 0.949 . S
C840 C844 1.368 . S
C841 C822 1.429 . S
C841 C835 1.429 . S
C841 C842 1.523 . S
C842 C823 1.368 . S
C842 C836 1.368 . S
C842 C841 1.523 . S
C843 C827 1.429 . S
C843 C839 1.429 . S
C843 C844 1.523 . S
C844 C828 1.368 . S
C844 C840 1.368 . S
C844 C843 1.523 . S
H845 C820 0.950 . S
H846 C822 0.950 . S
H847 C823 0.949 . S
H848 C825 0.950 . S
H849 C827 0.950 . S
C850 C851 1.349 . S
C850 C852 1.327 . S
C850 H875 0.950 . S
C851 C850 1.349 . S
C851 C867 1.349 1_655 S
C852 C850 1.327 . S
C852 C871 1.429 . S
C852 H876 0.950 . S
C853 C870 1.574 1_556 S
C853 C872 1.358 1_455 S
C853 H877 0.949 . S
H854 C858 0.949 . S
C855 C856 1.349 . S
C855 C857 1.327 . S
C855 H878 0.950 . S
C856 C855 1.349 . S
C856 C868 1.349 1_455 S
C857 C855 1.327 . S
C857 C873 1.429 . S
C857 H879 0.950 . S
C858 H854 0.949 . S
C858 C866 1.574 1_554 S
C858 C874 1.352 1_655 S
H859 C867 0.950 . S
H860 C865 0.950 . S
H861 C866 0.949 . S
H862 C868 0.950 . S
H863 C869 0.950 . S
H864 C870 0.949 . S
C865 H860 0.950 . S
C865 C867 1.327 . S
C865 C871 1.429 1_455 S
C866 C858 1.574 1_556 S
C866 H861 0.949 . S
C866 C872 1.381 . S
C867 C851 1.349 1_455 S
C867 H859 0.950 . S
C867 C865 1.327 . S
C868 C856 1.349 1_655 S
C868 H862 0.950 . S
C868 C869 1.327 . S
C869 H863 0.950 . S
C869 C868 1.327 . S
C869 C873 1.429 1_655 S
C870 C853 1.574 1_554 S
C870 H864 0.949 . S
C870 C874 1.388 . S
C871 C852 1.429 . S
C871 C865 1.429 1_655 S
C871 C872 1.521 . S
C872 C853 1.358 1_655 S
C872 C866 1.381 . S
C872 C871 1.521 . S
C873 C857 1.429 . S
C873 C869 1.429 1_455 S
C873 C874 1.520 . S
C874 C858 1.352 1_455 S
C874 C870 1.388 . S
C874 C873 1.520 . S
H875 C850 0.950 . S
H876 C852 0.950 . S
H877 C853 0.949 . S
H878 C855 0.950 . S
H879 C857 0.950 . S
C161 C16 1.255 . S
C166 C76 1.253 . S
C191 C1 1.538 . S
C196 C36 1.488 . S
C221 C21 1.764 . S
C226 C41 1.765 . S
C251 C56 1.488 . S
C256 C61 1.536 . S
C281 C6 1.255 . S
C286 C106 1.257 . S
C311 C9 1.538 . S
C316 C86 1.488 . S
C341 C89 1.764 . S
C346 C49 1.763 . S
C371 C109 1.538 . S
C376 C46 1.489 . S
C401 C136 1.255 . S
C406 C116 1.256 . S
C431 C96 1.488 . S
C436 C121 1.537 . S
C461 C141 1.764 . S
C466 C81 1.765 . S
C491 C101 1.538 . S
C496 C156 1.489 . S
C521 C66 1.255 . S
C526 C126 1.254 . S
C551 C129 1.538 . S
C556 C26 1.488 . S
C581 C29 1.764 . S
C586 C149 1.763 . S
C611 C69 1.538 . S
C616 C146 1.487 . S
C641 C19 2.009 1_565 S
C646 C8 2.011 1_545 S
C671 C28 2.028 . S
C676 C39 2.028 . S
C701 C59 2.028 . S
C706 C48 2.028 . S
C731 C79 2.010 . S
C736 C68 2.010 . S
C761 C88 2.028 . S
C766 C99 2.028 . S
C791 C119 2.010 . S
C796 C108 2.010 . S
C821 C128 2.010 . S
C826 C139 2.010 . S
C851 C148 2.028 1_655 S
C856 C159 2.028 . S
