# Generated by pormake.
# Topology unn, (4)-cn, num edge types: 1
# Building blocks:
#     Node 0, Type 0, BuildingBlock: MUDLON_clean_sbu_0, # of connection points: 4
#     Node 1, Type 0, BuildingBlock: MUDLON_clean_sbu_0, # of connection points: 4
#     Node 2, Type 0, BuildingBlock: MUDLON_clean_sbu_0, # of connection points: 4
#     Node 3, Type 0, BuildingBlock: MUDLON_clean_sbu_0, # of connection points: 4
#     Node 4, Type 0, BuildingBlock: MUDLON_clean_sbu_0, # of connection points: 4
#     Node 5, Type 0, BuildingBlock: MUDLON_clean_sbu_0, # of connection points: 4
#     Node 6, Type 0, BuildingBlock: MUDLON_clean_sbu_0, # of connection points: 4
#     Node 7, Type 0, BuildingBlock: MUDLON_clean_sbu_0, # of connection points: 4
#     Node 8, Type 0, BuildingBlock: MUDLON_clean_sbu_0, # of connection points: 4
#     Node 9, Type 0, BuildingBlock: MUDLON_clean_sbu_0, # of connection points: 4
#     Node 10, Type 0, BuildingBlock: MUDLON_clean_sbu_0, # of connection points: 4
#     Node 11, Type 0, BuildingBlock: MUDLON_clean_sbu_0, # of connection points: 4
#     Node 12, Type 0, BuildingBlock: MUDLON_clean_sbu_0, # of connection points: 4
#     Node 13, Type 0, BuildingBlock: MUDLON_clean_sbu_0, # of connection points: 4
#     Node 14, Type 0, BuildingBlock: MUDLON_clean_sbu_0, # of connection points: 4
#     Node 15, Type 0, BuildingBlock: MUDLON_clean_sbu_0, # of connection points: 4
#     Node 16, Type 0, BuildingBlock: MUDLON_clean_sbu_0, # of connection points: 4
#     Node 17, Type 0, BuildingBlock: MUDLON_clean_sbu_0, # of connection points: 4
#     Edge 18, Type (0, 0), BuildingBlock: CIFDUS_clean_linker_0, # of connection points: 2
#     Edge 19, Type (0, 0), BuildingBlock: CIFDUS_clean_linker_0, # of connection points: 2
#     Edge 20, Type (0, 0), BuildingBlock: CIFDUS_clean_linker_0, # of connection points: 2
#     Edge 21, Type (0, 0), BuildingBlock: CIFDUS_clean_linker_0, # of connection points: 2
#     Edge 22, Type (0, 0), BuildingBlock: CIFDUS_clean_linker_0, # of connection points: 2
#     Edge 23, Type (0, 0), BuildingBlock: CIFDUS_clean_linker_0, # of connection points: 2
#     Edge 24, Type (0, 0), BuildingBlock: CIFDUS_clean_linker_0, # of connection points: 2
#     Edge 25, Type (0, 0), BuildingBlock: CIFDUS_clean_linker_0, # of connection points: 2
#     Edge 26, Type (0, 0), BuildingBlock: CIFDUS_clean_linker_0, # of connection points: 2
#     Edge 27, Type (0, 0), BuildingBlock: CIFDUS_clean_linker_0, # of connection points: 2
#     Edge 28, Type (0, 0), BuildingBlock: CIFDUS_clean_linker_0, # of connection points: 2
#     Edge 29, Type (0, 0), BuildingBlock: CIFDUS_clean_linker_0, # of connection points: 2
#     Edge 30, Type (0, 0), BuildingBlock: CIFDUS_clean_linker_0, # of connection points: 2
#     Edge 31, Type (0, 0), BuildingBlock: CIFDUS_clean_linker_0, # of connection points: 2
#     Edge 32, Type (0, 0), BuildingBlock: CIFDUS_clean_linker_0, # of connection points: 2
#     Edge 33, Type (0, 0), BuildingBlock: CIFDUS_clean_linker_0, # of connection points: 2
#     Edge 34, Type (0, 0), BuildingBlock: CIFDUS_clean_linker_0, # of connection points: 2
#     Edge 35, Type (0, 0), BuildingBlock: CIFDUS_clean_linker_0, # of connection points: 2
#     Edge 36, Type (0, 0), BuildingBlock: CIFDUS_clean_linker_0, # of connection points: 2
#     Edge 37, Type (0, 0), BuildingBlock: CIFDUS_clean_linker_0, # of connection points: 2
#     Edge 38, Type (0, 0), BuildingBlock: CIFDUS_clean_linker_0, # of connection points: 2
#     Edge 39, Type (0, 0), BuildingBlock: CIFDUS_clean_linker_0, # of connection points: 2
#     Edge 40, Type (0, 0), BuildingBlock: CIFDUS_clean_linker_0, # of connection points: 2
#     Edge 41, Type (0, 0), BuildingBlock: CIFDUS_clean_linker_0, # of connection points: 2
#     Edge 42, Type (0, 0), BuildingBlock: CIFDUS_clean_linker_0, # of connection points: 2
#     Edge 43, Type (0, 0), BuildingBlock: CIFDUS_clean_linker_0, # of connection points: 2
#     Edge 44, Type (0, 0), BuildingBlock: CIFDUS_clean_linker_0, # of connection points: 2
#     Edge 45, Type (0, 0), BuildingBlock: CIFDUS_clean_linker_0, # of connection points: 2
#     Edge 46, Type (0, 0), BuildingBlock: CIFDUS_clean_linker_0, # of connection points: 2
#     Edge 47, Type (0, 0), BuildingBlock: CIFDUS_clean_linker_0, # of connection points: 2
#     Edge 48, Type (0, 0), BuildingBlock: CIFDUS_clean_linker_0, # of connection points: 2
#     Edge 49, Type (0, 0), BuildingBlock: CIFDUS_clean_linker_0, # of connection points: 2
#     Edge 50, Type (0, 0), BuildingBlock: CIFDUS_clean_linker_0, # of connection points: 2
#     Edge 51, Type (0, 0), BuildingBlock: CIFDUS_clean_linker_0, # of connection points: 2
#     Edge 52, Type (0, 0), BuildingBlock: CIFDUS_clean_linker_0, # of connection points: 2
#     Edge 53, Type (0, 0), BuildingBlock: CIFDUS_clean_linker_0, # of connection points: 2
# Relax obj value: 0.098
# Max RMSD: 0.215
# Mean RMSD: 0.212
data_MOF--net-unn--node1-MUDLON_clean_sbu_0--edge1-CIFDUS_clean_linker_0
_symmetry_space_group_name_H-M    P1
_symmetry_Int_Tables_number       1
_symmetry_cell_setting            triclinic
loop_
_symmetry_equiv_pos_as_xyz
'x, y, z'
_cell_length_a     41.856269
_cell_length_b     41.619236
_cell_length_c     37.826912
_cell_angle_alpha  90.812626
_cell_angle_beta   89.361669
_cell_angle_gamma 120.30477
loop_
_atom_site_label
_atom_site_type_symbol
_atom_site_fract_x
_atom_site_fract_y
_atom_site_fract_z
_atom_type_partial_charge
Mg0 Mg 1.03794 0.72787 0.23142 0.0
C1 C 0.06354 0.72794 0.16143 0.0
O2 O 0.06308 0.75908 0.1659 0.0
C3 C 1.02053 0.71612 0.30584 0.0
O4 O 1.03215 0.75147 0.3005 0.0
C5 C 0.96759 0.69726 0.19618 0.0
O6 O 0.97399 0.66969 0.20019 0.0
O7 O 0.99092 0.72914 0.20881 0.0
O8 O 0.05485 0.70604 0.18751 0.0
O9 O 0.08788 0.77842 0.24815 0.0
C10 C 0.11164 0.77082 0.26012 0.0
O11 O 0.10397 0.73607 0.25862 0.0
O12 O 1.01879 0.69583 0.27957 0.0
Mg13 Mg 0.2991 0.31841 0.24386 0.0
C14 C 0.33348 0.33293 0.31314 0.0
O15 O 0.29881 0.30767 0.31935 0.0
C16 C 0.29558 0.32816 0.16819 0.0
O17 O 0.2717 0.29266 0.17284 0.0
C18 C 0.25958 0.35038 0.28035 0.0
O19 O 0.29352 0.37831 0.27625 0.0
O20 O 0.25167 0.31847 0.26821 0.0
O21 O 0.34313 0.34463 0.2818 0.0
O22 O 0.29772 0.26694 0.22874 0.0
C23 C 0.32891 0.27412 0.21586 0.0
O24 O 0.35592 0.30897 0.21555 0.0
O25 O 0.31194 0.34847 0.19496 0.0
Mg26 Mg 0.83077 0.06111 0.23034 0.0
C27 C 0.82155 0.06882 0.3073 0.0
O28 O 0.84137 0.05243 0.30761 0.0
C29 C 0.79903 0.04923 0.15851 0.0
O30 O 0.83399 0.06144 0.15096 0.0
C31 C 0.79846 0.9852 0.25441 0.0
O32 O 0.77133 0.99244 0.25341 0.0
O33 O 0.83049 1.01023 0.24404 0.0
O34 O 0.81353 0.07731 0.27789 0.0
O35 O 0.87991 0.10998 0.2098 0.0
C36 C 0.87289 0.13446 0.19842 0.0
O37 O 0.83892 0.12821 0.20142 0.0
O38 O 0.78887 0.04562 0.19066 0.0
Mg39 Mg 0.04185 0.28213 0.72827 0.0
C40 C 0.96554 0.23909 0.70284 0.0
O41 O 0.97159 0.27313 0.70684 0.0
C42 C 0.11772 0.31164 0.749 0.0
O43 O 0.11181 0.3398 0.74921 0.0
C44 C 0.04776 0.30981 0.65584 0.0
O45 O 1.03441 0.27406 0.65019 0.0
O46 O 0.05452 0.32236 0.68735 0.0
O47 O 0.991 0.2325 0.7116 0.0
O48 O 1.03381 0.3019 0.7786 0.0
C49 C 1.03671 0.28492 0.80493 0.0
O50 O 0.03983 0.25541 0.79915 0.0
O51 O 0.09186 0.28002 0.73824 0.0
Mg52 Mg 0.74403 0.76962 0.74034 0.0
C53 C 0.70632 0.80602 0.77104 0.0
O54 O 0.68 0.77408 0.75834 0.0
C55 C 0.80015 0.74733 0.72696 0.0
O56 O 0.77319 0.71801 0.7425 0.0
C57 C 0.73386 0.73631 0.80848 0.0
O58 O 0.75878 0.77163 0.81296 0.0
O59 O 0.71979 0.72517 0.77803 0.0
O60 O 0.73986 0.81448 0.76625 0.0
O61 O 0.71488 0.75724 0.69076 0.0
C62 C 0.71951 0.73661 0.66874 0.0
O63 O 0.73651 0.71913 0.67892 0.0
O64 O 0.79801 0.77679 0.72533 0.0
Mg65 Mg 0.36593 0.06118 0.73297 0.0
C66 C 0.36108 0.0266 0.6669 0.0
O67 O 0.33318 0.03263 0.66945 0.0
C68 C 0.4077 0.11386 0.79253 0.0
O69 O 0.40104 0.13627 0.774 0.0
C70 C 0.39728 0.12864 0.69069 0.0
O71 O 0.42486 0.12278 0.69625 0.0
O72 O 0.36593 0.10658 0.70468 0.0
O73 O 0.3833 0.036 0.69274 0.0
O74 O 0.31516 1.01449 0.7538 0.0
C75 C 0.32265 0.99196 0.76909 0.0
O76 O 0.35727 0.99984 0.76935 0.0
O77 O 0.39971 0.08233 0.77967 0.0
Mg78 Mg 0.70625 0.06788 0.56393 0.0
C79 C 0.73832 0.07194 0.49654 0.0
O80 O 0.73186 0.09971 0.49887 0.0
C81 C 0.67951 0.05015 0.63453 0.0
O82 O 0.68613 0.08406 0.62881 0.0
C83 C 0.63745 0.03774 0.52482 0.0
O84 O 0.64432 1.01031 0.52703 0.0
O85 O 0.66 0.06887 0.53925 0.0
O86 O 0.72972 0.05011 0.52259 0.0
O87 O 0.75315 0.11839 0.5853 0.0
C88 C 0.77643 0.11105 0.59895 0.0
O89 O 0.76957 0.07657 0.59722 0.0
O90 O 0.68451 0.03259 0.60936 0.0
Mg91 Mg 0.96444 0.65395 0.58427 0.0
C92 C 0.92035 0.68631 0.60843 0.0
O93 O 0.95384 0.71484 0.60369 0.0
C94 C 0.99539 0.60985 0.55836 0.0
O95 O 1.02324 0.64398 0.56249 0.0
C96 C 0.97748 0.65892 0.65979 0.0
O97 O 0.94193 0.63515 0.65626 0.0
O98 O 0.99704 0.67305 0.63216 0.0
O99 O 0.9141 0.65401 0.59945 0.0
O100 O 0.98692 0.68773 0.53746 0.0
C101 C 0.97142 0.66894 0.50962 0.0
O102 O 0.94391 0.63459 0.51296 0.0
O103 O 0.96324 0.60287 0.568 0.0
Mg104 Mg 0.48828 0.38596 0.55688 0.0
C105 C 0.45408 0.37324 0.48669 0.0
O106 O 0.48876 0.38458 0.47861 0.0
C107 C 0.45223 0.37764 0.62721 0.0
O108 O 0.43592 0.34275 0.61677 0.0
C109 C 0.52925 0.45989 0.52491 0.0
O110 O 0.49607 0.45484 0.5311 0.0
O111 O 0.53607 0.43463 0.53424 0.0
O112 O 0.44461 0.37032 0.51902 0.0
O113 O 0.49175 0.33671 0.56977 0.0
C114 C 0.46174 0.30553 0.56717 0.0
O115 O 0.43323 0.30451 0.55184 0.0
O116 O 0.47472 0.40285 0.60644 0.0
Mg117 Mg 0.70916 0.59531 0.05555 0.0
C118 C 0.71726 0.62401 0.9827 0.0
O119 O 0.70369 0.58839 0.97607 0.0
C120 C 0.69935 0.6054 0.1315 0.0
O121 O 0.71359 0.58362 0.13276 0.0
C122 C 0.63488 0.55251 0.02816 0.0
O123 O 0.64097 0.58633 0.03413 0.0
O124 O 0.66013 0.54536 0.03626 0.0
O125 O 0.72367 0.63567 0.01448 0.0
O126 O 0.75958 0.59657 0.07187 0.0
C127 C 0.78371 0.62898 0.08275 0.0
O128 O 0.77633 0.65603 0.08009 0.0
O129 O 0.69283 0.6144 0.10164 0.0
Mg130 Mg 0.4243 0.10648 0.07554 0.0
C131 C 0.39171 0.14646 0.11125 0.0
O132 O 0.36407 0.11205 0.10842 0.0
C133 C 0.47078 0.07867 0.05013 0.0
O134 O 0.43654 0.05064 0.0496 0.0
C135 C 0.41233 0.0749 0.14506 0.0
O136 O 0.43763 0.11014 0.14923 0.0
O137 O 0.39917 0.0632 0.11439 0.0
O138 O 0.42311 0.15428 0.09845 0.0
O139 O 0.39777 0.09292 0.02475 0.0
C140 C 0.41474 0.11898 0.00265 0.0
O141 O 0.44205 0.15107 0.01397 0.0
O142 O 0.47665 0.10995 0.06222 0.0
Mg143 Mg 0.04244 0.39203 0.05405 0.0
C144 C 0.05805 0.34001 0.00886 0.0
O145 O 0.0395 0.31556 0.03352 0.0
C146 C 0.05444 0.4226 0.12386 0.0
O147 O 1.0206 0.41365 0.11515 0.0
C148 C 0.07001 0.46174 0.01765 0.0
O149 O 0.0992 0.46031 0.02776 0.0
O150 O 0.03808 0.43521 0.02641 0.0
O151 O 0.06661 0.3737 0.01351 0.0
O152 O 0.99307 0.34281 0.07431 0.0
C153 C 1.00077 0.32519 0.09682 0.0
O154 O 1.03565 0.3382 0.10499 0.0
O155 O 0.07439 0.41808 0.10102 0.0
Mg156 Mg 0.37054 0.39152 0.89394 0.0
C157 C 0.40588 0.39402 0.8288 0.0
O158 O 0.41229 0.42786 0.83541 0.0
C159 C 0.34408 0.37686 0.96497 0.0
O160 O 0.35473 0.41192 0.95914 0.0
C161 C 0.30314 0.36668 0.85455 0.0
O162 O 0.3075 0.33767 0.8571 0.0
O163 O 0.32699 0.39717 0.86915 0.0
O164 O 0.38851 0.36906 0.85181 0.0
O165 O 0.42048 0.43996 0.91394 0.0
C166 C 0.44316 0.43107 0.92626 0.0
O167 O 0.43445 0.39602 0.92429 0.0
O168 O 0.34651 0.35754 0.9399 0.0
Mg169 Mg 0.64671 0.99245 0.91425 0.0
C170 C 0.68016 1.00871 -0.01614 0.0
O171 O 0.64609 0.98159 -0.01061 0.0
C172 C 0.64242 1.00085 0.83868 0.0
O173 O 0.62109 0.96491 0.8436 0.0
C174 C 0.60343 1.02046 0.94972 0.0
O175 O 0.63655 0.04965 0.94528 0.0
O176 O 0.59743 0.98899 0.93807 0.0
O177 O 0.68977 1.02122 0.95277 0.0
O178 O 0.64935 0.94299 0.89921 0.0
C179 C 0.6826 0.95071 0.89385 0.0
O180 O 0.70952 0.98463 0.901 0.0
O181 O 0.65767 1.02198 0.86527 0.0
Mg182 Mg 0.15344 0.72172 0.89185 0.0
C183 C 0.1121 0.70709 0.9611 0.0
O184 O 0.10967 0.67474 0.95592 0.0
C185 C 0.0904 0.70389 0.83962 0.0
O186 O 0.07243 0.70624 0.86731 0.0
C187 C 0.13181 0.64251 0.90058 0.0
O188 O 0.10347 0.64021 0.88367 0.0
O189 O 0.16016 0.67461 0.90557 0.0
O190 O 0.12719 0.73189 0.93743 0.0
O191 O 0.2024 0.77438 0.87808 0.0
C192 C 0.19454 0.798 0.86595 0.0
O193 O 0.15962 0.78903 0.86506 0.0
O194 O 0.12222 0.70779 0.8435 0.0
Mg195 Mg 0.3724 0.93847 0.39799 0.0
C196 C 0.29877 0.89539 0.36801 0.0
O197 O 0.30411 0.92901 0.37343 0.0
C198 C 0.44835 0.97153 0.42119 0.0
O199 O 0.4412 0.99883 0.41997 0.0
C200 C 0.38248 0.96735 0.32561 0.0
O201 O 0.3715 0.93209 0.31974 0.0
O202 O 0.38634 0.97924 0.35729 0.0
O203 O 0.32391 0.88867 0.3776 0.0
O204 O 0.35697 0.956 0.44597 0.0
C205 C 0.36591 0.94793 0.47513 0.0
O206 O 0.38236 0.92813 0.47486 0.0
O207 O 0.42333 0.93919 0.4111 0.0
Mg208 Mg 0.09112 0.44971 0.40648 0.0
C209 C 0.05991 0.48964 0.44327 0.0
O210 O 1.03179 0.45607 0.43724 0.0
C211 C 0.13445 0.418 0.3811 0.0
O212 O 0.09958 0.39137 0.38016 0.0
C213 C 0.0786 0.41693 0.47494 0.0
O214 O 0.10587 0.45141 0.47864 0.0
O215 O 0.06414 0.40587 0.44461 0.0
O216 O 0.09176 0.49747 0.43176 0.0
O217 O 0.06377 0.43909 0.35608 0.0
C218 C 0.08596 0.45723 0.33111 0.0
O219 O 0.12076 0.48083 0.33867 0.0
O220 O 0.14202 0.44975 0.39341 0.0
Mg221 Mg 0.69873 0.7206 0.38853 0.0
C222 C 0.69698 0.69209 0.31945 0.0
O223 O 0.6707 0.70058 0.3208 0.0
C224 C 0.71566 0.74664 0.45931 0.0
O225 O 0.68801 0.75103 0.44974 0.0
C226 C 0.73131 0.79239 0.35299 0.0
O227 O 0.75809 0.78468 0.35414 0.0
O228 O 0.70014 0.76951 0.36675 0.0
O229 O 0.71689 0.6982 0.3466 0.0
O230 O 0.64735 0.67319 0.40733 0.0
C231 C 0.65405 0.64853 0.41884 0.0
O232 O 0.68799 0.65465 0.41593 0.0
O233 O 0.73089 0.73645 0.43602 0.0
H234 H 0.08204 0.76966 0.10234 0.0
H235 H 0.06268 0.6641 0.14088 0.0
H236 H 0.07421 0.64776 0.08163 0.0
H237 H 0.09039 0.66382 0.01938 0.0
H238 H 0.11077 0.76988 0.98117 0.0
H239 H 0.09767 0.78549 0.04005 0.0
C240 C 0.08038 0.74307 0.09789 0.0
C241 C 0.07162 0.71816 0.12605 0.0
C242 C 0.08695 0.73388 0.06385 0.0
C243 C 0.06954 0.68383 0.11972 0.0
C244 C 0.076 0.67443 0.08583 0.0
C245 C 0.09172 0.69027 0.02378 0.0
C246 C 0.10152 0.71566 -0.00414 0.0
C247 C 0.08472 0.69926 0.05775 0.0
C248 C 0.10327 0.74985 0.00216 0.0
C249 C 0.0959 0.75883 0.03584 0.0
H250 H 0.35198 0.41539 0.02539 0.0
H251 H 0.30792 0.30368 -0.01568 0.0
H252 H 0.28753 0.27873 0.04376 0.0
H253 H 0.28343 0.28896 0.10729 0.0
H254 H 0.33031 0.40095 0.14848 0.0
H255 H 0.34836 0.42564 0.08874 0.0
C256 C 0.33774 0.38554 0.02937 0.0
C257 C 0.33131 0.36136 0.00054 0.0
C258 C 0.32666 0.37155 0.06352 0.0
C259 C 0.31321 0.32282 0.00615 0.0
C260 C 0.30152 0.30858 0.04007 0.0
C261 C 0.29734 0.31877 0.10316 0.0
C262 C 0.30538 0.34315 0.13215 0.0
C263 C 0.30823 0.33272 0.06893 0.0
C264 C 0.32386 0.38168 0.12653 0.0
C265 C 0.33416 0.39578 0.09243 0.0
H266 H 0.81371 0.06847 0.08961 0.0
H267 H 0.72378 1.01011 0.16366 0.0
H268 H 0.67903 0.99376 0.11612 0.0
H269 H 0.66562 0.99431 0.05346 0.0
H270 H 0.7553 0.05334 0.97935 0.0
H271 H 0.80011 0.07153 0.02722 0.0
C272 C 0.78431 0.05215 0.09533 0.0
C273 C 0.77204 0.04021 0.12998 0.0
C274 C 0.75877 0.04309 0.06797 0.0
C275 C 0.7339 1.01954 0.13714 0.0
C276 C 0.70831 1.01016 0.11 0.0
C277 C 0.69496 1.01128 0.04777 0.0
C278 C 0.70717 1.02224 0.01292 0.0
C279 C 0.72047 1.02155 0.07531 0.0
C280 C 0.74523 0.04455 0.006 0.0
C281 C 0.77086 0.05483 0.03331 0.0
H282 H 0.74831 0.10706 0.43454 0.0
H283 H 0.76603 0.02536 0.48579 0.0
H284 H 0.79483 1.01829 0.43181 0.0
H285 H 0.81437 0.03514 0.37004 0.0
H286 H 0.79428 0.11523 0.31868 0.0
H287 H 0.76709 0.12334 0.37309 0.0
C288 C 0.75853 0.08774 0.434 0.0
C289 C 0.75517 0.06683 0.46411 0.0
C290 C 0.77467 0.08365 0.40297 0.0
C291 C 0.76826 0.04171 0.46289 0.0
C292 C 0.78478 0.03774 0.4321 0.0
C293 C 0.80429 0.05457 0.37086 0.0
C294 C 0.80646 0.07472 0.34051 0.0
C295 C 0.78813 0.0586 0.40201 0.0
C296 C 0.79287 0.09942 0.34175 0.0
C297 C 0.77733 0.10405 0.3728 0.0
H298 H 0.958 0.62968 0.44866 0.0
H299 H 1.01524 0.74181 0.49065 0.0
H300 H 1.03587 0.76608 0.43101 0.0
H301 H 1.03641 0.75533 0.36714 0.0
H302 H 0.98074 0.64306 0.32542 0.0
H303 H 0.96077 0.61879 0.38513 0.0
C304 C 0.97491 0.65947 0.44479 0.0
C305 C 0.98478 0.684 0.47395 0.0
C306 C 0.98693 0.67309 0.41061 0.0
C307 C 1.00721 0.72242 0.4686 0.0
C308 C 1.01895 0.73627 0.43454 0.0
C309 C 1.01989 0.72552 0.37106 0.0
C310 C 1.00977 0.701 0.34187 0.0
C311 C 1.00878 0.71185 0.40538 0.0
C312 C 0.98884 0.66248 0.34746 0.0
C313 C 0.97735 0.64863 0.38155 0.0
H314 H 0.46807 0.39047 0.41738 0.0
H315 H 0.37883 0.3363 0.4929 0.0
H316 H 0.33364 0.32012 0.44576 0.0
H317 H 0.31961 0.31983 0.38307 0.0
H318 H 0.40879 0.37477 0.30761 0.0
H319 H 0.45401 0.39248 0.35499 0.0
C320 C 0.43873 0.3751 0.42353 0.0
C321 C 0.42677 0.36432 0.45848 0.0
C322 C 0.41296 0.36612 0.3964 0.0
C323 C 0.3887 0.34485 0.46615 0.0
C324 C 0.36286 0.33556 0.43924 0.0
C325 C 0.34894 0.33577 0.37697 0.0
C326 C 0.36086 0.34575 0.34188 0.0
C327 C 0.37471 0.34584 0.40426 0.0
C328 C 0.39893 0.36673 0.33444 0.0
C329 C 0.42479 0.37676 0.36148 0.0
H330 H 0.04153 0.25415 0.86595 0.0
H331 H 0.0429 0.35114 0.82486 0.0
H332 H 0.05393 0.37846 0.88414 0.0
H333 H 0.06135 0.37406 0.94752 0.0
H334 H 0.05641 0.27575 -0.01052 0.0
H335 H 0.04952 0.24999 0.9296 0.0
C336 C 0.04414 0.28123 0.86995 0.0
C337 C 0.04121 0.30049 0.84104 0.0
C338 C 0.05035 0.29671 0.9041 0.0
C339 C 0.04473 0.33558 0.84668 0.0
C340 C 0.05128 0.35134 0.88053 0.0
C341 C 0.05946 0.34728 0.94357 0.0
C342 C 0.0597 0.32692 0.97282 0.0
C343 C 0.05409 0.33213 0.90938 0.0
C344 C 0.0565 0.29198 0.9673 0.0
C345 C 0.0523 0.27717 0.93315 0.0
H346 H 0.69217 0.60615 0.9154 0.0
H347 H 0.75532 0.6998 -0.01461 0.0
H348 H 0.76475 0.74265 0.93773 0.0
H349 H 0.75593 0.75348 0.87632 0.0
H350 H 0.69238 0.66023 0.80609 0.0
H351 H 0.68185 0.6171 0.85404 0.0
C352 C 0.70812 0.63594 0.92018 0.0
C353 C 0.72325 0.64981 0.95377 0.0
C354 C 0.71315 0.66041 0.89278 0.0
C355 C 0.74345 0.68845 0.95972 0.0
C356 C 0.74883 0.71296 0.93252 0.0
C357 C 0.73966 0.72372 0.87146 0.0
C358 C 0.72509 0.71004 0.8377 0.0
C359 C 0.73388 0.69923 0.89898 0.0
C360 C 0.70386 0.67143 0.83191 0.0
C361 C 0.69796 0.64678 0.85924 0.0
H362 H 0.44095 0.17007 0.95043 0.0
H363 H 0.37474 0.05193 0.96881 0.0
H364 H 0.36951 0.03997 0.90514 0.0
H365 H 0.38394 0.06299 0.84444 0.0
H366 H 0.44692 0.18114 0.82574 0.0
H367 H 0.45394 0.19325 0.88958 0.0
C368 C 0.42519 0.14171 0.94051 0.0
C369 C 0.40827 0.11194 0.96431 0.0
C370 C 0.42225 0.13505 0.90392 0.0
C371 C 0.38782 0.07536 0.95106 0.0
C372 C 0.38506 0.06847 0.91467 0.0
C373 C 0.39972 0.09137 0.85435 0.0
C374 C 0.41548 0.12118 0.83057 0.0
C375 C 0.40241 0.09808 0.89091 0.0
C376 C 0.43493 0.15782 0.84368 0.0
C377 C 0.43872 0.16471 0.88009 0.0
H378 H 0.32632 1.01756 0.60488 0.0
H379 H 0.40786 0.99936 0.65516 0.0
H380 H 0.4156 0.9721 0.60021 0.0
H381 H 0.39939 0.9541 0.53785 0.0
H382 H 0.31951 0.97487 0.48761 0.0
H383 H 0.31077 1.00046 0.54294 0.0
C384 C 0.34573 1.00753 0.60395 0.0
C385 C 0.36638 1.0103 0.63406 0.0
C386 C 0.35025 0.99236 0.57236 0.0
C387 C 0.39167 0.99753 0.63228 0.0
C388 C 0.39604 0.98191 0.60093 0.0
C389 C 0.37989 0.964 0.5391 0.0
C390 C 0.35996 0.96245 0.50879 0.0
C391 C 0.37546 0.97922 0.57082 0.0
C392 C 0.33517 0.97581 0.51061 0.0
C393 C 0.33016 0.99042 0.5422 0.0
H394 H 1.02459 0.29022 0.58819 0.0
H395 H 0.08668 0.38569 0.65647 0.0
H396 H 0.10033 0.42716 0.60646 0.0
H397 H 0.09649 0.43614 0.54334 0.0
H398 H 1.034 0.3411 0.47477 0.0
H399 H 1.01831 0.29945 0.52519 0.0
C400 C 0.0411 0.3201 0.59213 0.0
C401 C 0.05489 0.33488 0.62589 0.0
C402 C 0.0487 0.34376 0.56332 0.0
C403 C 0.07583 0.37364 0.6307 0.0
C404 C 0.08368 0.39736 0.60214 0.0
C405 C 0.07934 0.40631 0.53938 0.0
C406 C 0.06667 0.39166 0.50537 0.0
C407 C 0.07053 0.38269 0.56834 0.0
C408 C 0.04411 0.35301 0.50074 0.0
C409 C 1.03525 0.32922 0.5295 0.0
H410 H 0.68439 0.76313 0.5143 0.0
H411 H 0.7634 0.7283 0.48943 0.0
H412 H 0.76984 0.72017 0.55228 0.0
H413 H 0.75189 0.72152 0.61389 0.0
H414 H 0.67382 0.75748 0.63883 0.0
H415 H 0.66753 0.76588 0.57592 0.0
C416 C 0.70328 0.75406 0.52258 0.0
C417 C 0.72334 0.74628 0.49722 0.0
C418 C 0.70649 0.74903 0.55861 0.0
C419 C 0.74774 0.73461 0.50843 0.0
C420 C 0.75122 0.72968 0.54432 0.0
C421 C 0.73313 0.73075 0.60555 0.0
C422 C 0.71298 0.73847 0.63085 0.0
C423 C 0.73036 0.73634 0.56955 0.0
C424 C 0.68939 0.75114 0.61974 0.0
C425 C 0.68596 0.75613 0.58386 0.0
H426 H 0.44254 0.44191 0.77586 0.0
H427 H 0.38815 0.32541 0.8024 0.0
H428 H 0.39748 0.31016 0.74191 0.0
H429 H 0.41917 0.32981 0.68128 0.0
H430 H 0.47364 0.44642 0.65506 0.0
H431 H 0.46576 0.46172 0.7159 0.0
C432 C 0.4329 0.41317 0.76854 0.0
C433 C 0.41456 0.38481 0.79353 0.0
C434 C 0.438 0.40462 0.73379 0.0
C435 C 0.40241 0.34775 0.78365 0.0
C436 C 0.40755 0.339 0.74905 0.0
C437 C 0.42918 0.35857 0.68881 0.0
C438 C 0.4467 0.38693 0.66366 0.0
C439 C 0.42489 0.36718 0.72383 0.0
C440 C 0.45994 0.42409 0.67392 0.0
C441 C 0.45552 0.43286 0.70869 0.0
H442 H 0.68599 0.08773 0.69519 0.0
H443 H 0.6503 0.97752 0.65399 0.0
H444 H 0.63437 0.95238 0.71384 0.0
H445 H 0.6318 0.96216 0.77769 0.0
H446 H 0.67052 0.073 0.81885 0.0
H447 H 0.68409 0.09761 0.75883 0.0
C448 C 0.6745 0.05815 0.69924 0.0
C449 C 0.66912 0.03443 0.67027 0.0
C450 C 0.66608 0.04412 0.73359 0.0
C451 C 0.65468 0.99629 0.67594 0.0
C452 C 0.64557 0.98194 0.71009 0.0
C453 C 0.64299 0.99168 0.77351 0.0
C454 C 0.65 1.01576 0.80256 0.0
C455 C 0.6513 1.00566 0.73908 0.0
C456 C 0.66494 0.05397 0.79685 0.0
C457 C 0.67266 0.06802 0.76259 0.0
H458 H 1.01935 0.68119 0.82135 0.0
H459 H 0.12704 0.71455 0.77706 0.0
H460 H 0.10223 0.70564 0.71748 0.0
H461 H 0.04958 0.68688 0.67768 0.0
H462 H 0.94138 0.65083 0.72198 0.0
H463 H 0.96675 0.6625 0.78159 0.0
C464 C 1.03737 0.6866 0.79865 0.0
C465 C 0.0749 0.6984 0.80368 0.0
C466 C 1.02286 0.68098 0.76436 0.0
C467 C 0.09792 0.70516 0.77397 0.0
C468 C 0.08382 0.70019 0.73983 0.0
C469 C 1.03169 0.68189 0.7004 0.0
C470 C 0.99375 0.66804 0.69547 0.0
C471 C 0.0463 0.68794 0.73468 0.0
C472 C 0.97073 0.66133 0.72513 0.0
C473 C 0.98517 0.668 0.75924 0.0
H474 H 0.66505 0.68504 0.25608 0.0
H475 H 0.7402 0.66047 0.31058 0.0
H476 H 0.74647 0.63013 0.25724 0.0
H477 H 0.73049 0.61076 0.19525 0.0
H478 H 0.65683 0.6373 0.14063 0.0
H479 H 0.64983 0.66659 0.19425 0.0
C480 C 0.68281 0.67304 0.25635 0.0
C481 C 0.70205 0.67487 0.28721 0.0
C482 C 0.68637 0.65589 0.22571 0.0
C483 C 0.72516 0.65946 0.28708 0.0
C484 C 0.72865 0.64203 0.25666 0.0
C485 C 0.71267 0.6227 0.19519 0.0
C486 C 0.694 0.62172 0.16418 0.0
C487 C 0.70929 0.64001 0.22588 0.0
C488 C 0.67145 0.63774 0.16425 0.0
C489 C 0.66747 0.65449 0.19484 0.0
H490 H 0.42803 0.09397 0.2139 0.0
H491 H 0.37179 0.9988 0.14407 0.0
H492 H 0.35727 0.95704 0.19415 0.0
H493 H 0.36251 0.94783 0.2573 0.0
H494 H 0.41801 0.04321 0.32703 0.0
H495 H 0.43095 0.08479 0.27721 0.0
C496 C 0.4125 0.06409 0.2096 0.0
C497 C 0.40123 0.04947 0.17533 0.0
C498 C 0.4043 0.04037 0.2384 0.0
C499 C 0.38079 1.01072 0.17024 0.0
C500 C 0.37259 0.98685 0.19882 0.0
C501 C 0.37748 0.97772 0.26159 0.0
C502 C 0.38958 0.99246 0.29571 0.0
C503 C 0.38458 1.00141 0.23293 0.0
C504 C 0.40849 0.0312 0.30098 0.0
C505 C 0.41591 0.05498 0.27253 0.0
H506 H 0.1297 0.47305 0.2733 0.0
H507 H 1.01549 0.42477 0.30565 0.0
H508 H 0.99604 0.41156 0.24384 0.0
H509 H 1.01146 0.41227 0.18116 0.0
H510 H 0.12529 0.45707 0.14896 0.0
H511 H 0.14509 0.4733 0.2105 0.0
C512 C 0.10056 0.45989 0.26681 0.0
C513 C 0.07402 0.45006 0.29391 0.0
C514 C 0.08961 0.45173 0.2314 0.0
C515 C 1.03637 0.43256 0.2852 0.0
C516 C 1.02528 0.42504 0.24992 0.0
C517 C 0.04066 0.42588 0.18753 0.0
C518 C 0.06695 0.4337 0.16059 0.0
C519 C 0.05166 0.43433 0.22288 0.0
C520 C 0.10459 0.45081 0.16929 0.0
C521 C 0.11588 0.46007 0.20442 0.0
H522 H 0.24602 0.90578 0.33813 0.0
H523 H 0.27639 0.82215 0.35421 0.0
H524 H 0.22165 0.77675 0.32141 0.0
H525 H 0.16523 0.76086 0.28861 0.0
H526 H 0.13495 0.84454 0.27237 0.0
H527 H 0.19001 0.8901 0.30468 0.0
C528 C 0.24069 0.87759 0.33461 0.0
C529 C 0.26527 0.86736 0.34881 0.0
C530 C 0.20934 0.85176 0.31555 0.0
C531 C 0.25795 0.83076 0.3437 0.0
C532 C 0.22667 0.80482 0.32489 0.0
C533 C 0.17065 0.7891 0.29197 0.0
C534 C 0.1459 0.79924 0.27803 0.0
C535 C 0.20221 0.81503 0.31071 0.0
C536 C 0.15351 0.83598 0.28271 0.0
C537 C 0.18494 0.862 0.30128 0.0
H538 H 0.27069 0.41435 0.31178 0.0
H539 H 0.18606 0.30033 0.29152 0.0
H540 H 0.14049 0.31118 0.32204 0.0
H541 H 0.12451 0.35319 0.35324 0.0
H542 H 0.20885 0.46735 0.37329 0.0
H543 H 0.25491 0.45611 0.34419 0.0
C544 C 0.24228 0.39179 0.314 0.0
C545 C 0.2318 0.35655 0.29918 0.0
C546 C 0.21625 0.39823 0.3316 0.0
C547 C 0.19489 0.3277 0.30255 0.0
C548 C 0.16883 0.33389 0.32002 0.0
C549 C 0.15299 0.37568 0.35144 0.0
C550 C 0.16317 0.41115 0.36543 0.0
C551 C 0.17918 0.36908 0.33449 0.0
C552 C 0.20025 0.43981 0.36283 0.0
C553 C 0.22656 0.43341 0.3461 0.0
H554 H 0.73455 0.93112 0.28347 0.0
H555 H 0.84733 0.95999 0.26141 0.0
H556 H 0.83623 0.90276 0.28988 0.0
H557 H 0.7948 0.84521 0.32177 0.0
H558 H 0.68227 0.81697 0.34433 0.0
H559 H 0.69312 0.87357 0.31492 0.0
C560 C 0.75676 0.92492 0.28468 0.0
C561 C 0.79178 0.94988 0.27022 0.0
C562 C 0.75026 0.89219 0.30133 0.0
C563 C 0.82014 0.94131 0.27224 0.0
C564 C 0.81381 0.90861 0.28858 0.0
C565 C 0.77257 0.85136 0.3203 0.0
C566 C 0.73772 0.8268 0.33535 0.0
C567 C 0.77903 0.88397 0.30337 0.0
C568 C 0.70933 0.83533 0.33309 0.0
C569 C 0.71552 0.86769 0.31622 0.0
H570 H 0.86204 0.18275 0.16009 0.0
H571 H 0.94795 0.16325 0.19709 0.0
H572 H 0.99483 0.22059 0.16881 0.0
H573 H 1.01129 0.27628 0.13424 0.0
H574 H 0.92542 0.29506 0.09576 0.0
H575 H 0.87844 0.23768 0.12403 0.0
C576 C 0.89103 0.19103 0.16207 0.0
C577 C 0.9015 0.16882 0.18092 0.0
C578 C 0.91774 0.2238 0.14549 0.0
C579 C 0.93915 0.1798 0.18282 0.0
C580 C 0.96594 0.2126 0.16668 0.0
C581 C 0.9823 0.26792 0.13201 0.0
C582 C 0.97189 0.29009 0.11304 0.0
C583 C 0.95554 0.23484 0.14806 0.0
C584 C 0.93418 0.27855 0.11018 0.0
C585 C 0.90734 0.24578 0.12639 0.0
H586 H 0.83571 0.69382 0.11307 0.0
H587 H 0.8079 0.57994 0.095 0.0
H588 H 0.86228 0.59131 0.12866 0.0
H589 H 0.91685 0.63315 0.1639 0.0
H590 H 0.9445 0.74693 0.18234 0.0
H591 H 0.89066 0.73586 0.14787 0.0
C592 C 0.84156 0.67145 0.11628 0.0
C593 C 0.81769 0.63602 0.10141 0.0
C594 C 0.87266 0.67811 0.1359 0.0
C595 C 0.82577 0.60744 0.10603 0.0
C596 C 0.85682 0.61392 0.12537 0.0
C597 C 0.91117 0.65561 0.1605 0.0
C598 C 0.93471 0.69086 0.17585 0.0
C599 C 0.88029 0.64907 0.14059 0.0
C600 C 0.92686 0.71956 0.17095 0.0
C601 C 0.8961 0.71324 0.15118 0.0
H602 H 0.39195 0.28354 0.1853 0.0
H603 H 0.27903 0.19939 0.20812 0.0
H604 H 0.28874 0.15263 0.17776 0.0
H605 H 0.32899 0.13605 0.14394 0.0
H606 H 0.44178 0.22057 0.12104 0.0
H607 H 0.43227 0.26693 0.15225 0.0
C608 C 0.3694 0.25495 0.18382 0.0
C609 C 0.33475 0.24503 0.19903 0.0
C610 C 0.37512 0.22836 0.16616 0.0
C611 C 0.30596 0.20781 0.19674 0.0
C612 C 0.31149 0.18109 0.1793 0.0
C613 C 0.35155 0.16462 0.1457 0.0
C614 C 0.38608 0.1748 0.13001 0.0
C615 C 0.34589 0.19112 0.16374 0.0
C616 C 0.41495 0.21194 0.13276 0.0
C617 C 0.40953 0.23846 0.15064 0.0
H618 H 0.82961 0.10176 0.62925 0.0
H619 H 0.79901 0.18478 0.61044 0.0
H620 H 0.85436 0.2313 0.64182 0.0
H621 H 0.91146 0.24829 0.67415 0.0
H622 H 0.94219 0.16523 0.6922 0.0
H623 H 0.88641 0.11863 0.66162 0.0
C624 C 0.83495 0.13003 0.63193 0.0
C625 C 0.81012 0.13975 0.61742 0.0
C626 C 0.86676 0.15654 0.64996 0.0
C627 C 0.81763 0.17654 0.62125 0.0
C628 C 0.84925 0.20312 0.63924 0.0
C629 C 0.90593 0.21996 0.67159 0.0
C630 C 0.93102 0.21028 0.68558 0.0
C631 C 0.87398 0.19341 0.6537 0.0
C632 C 0.92341 0.17346 0.68178 0.0
C633 C 0.89153 0.14681 0.66423 0.0
H634 H 0.9255 0.7518 0.6286 0.0
H635 H 0.85342 0.63269 0.63449 0.0
H636 H 0.81101 0.64148 0.6728 0.0
H637 H 0.79511 0.68265 0.70551 0.0
H638 H 0.86569 0.80181 0.6985 0.0
H639 H 0.9084 0.79327 0.65998 0.0
C640 C 0.90039 0.72771 0.63804 0.0
C641 C 0.89271 0.69158 0.62865 0.0
C642 C 0.87617 0.73298 0.66019 0.0
C643 C 0.85997 0.66077 0.6411 0.0
C644 C 0.83582 0.66578 0.66321 0.0
C645 C 0.82 0.70686 0.69588 0.0
C646 C 0.82745 0.74289 0.70529 0.0
C647 C 0.84385 0.70172 0.6732 0.0
C648 C 0.85947 0.77383 0.69191 0.0
C649 C 0.88377 0.76893 0.66978 0.0
H650 H 0.46257 0.18445 0.66539 0.0
H651 H 0.34484 0.14215 0.66338 0.0
H652 H 0.35453 0.19181 0.62312 0.0
H653 H 0.39638 0.24743 0.58912 0.0
H654 H 0.51431 0.29156 0.59328 0.0
H655 H 0.50452 0.24053 0.63182 0.0
C656 C 0.43896 0.18604 0.65619 0.0
C657 C 0.40296 0.15953 0.66742 0.0
C658 C 0.44478 0.21479 0.63323 0.0
C659 C 0.3728 0.16222 0.65532 0.0
C660 C 0.37833 0.19053 0.63217 0.0
C661 C 0.41999 0.2457 0.59806 0.0
C662 C 0.45607 0.27311 0.588 0.0
C663 C 0.41418 0.2169 0.62092 0.0
C664 C 0.4863 0.27074 0.60044 0.0
C665 C 0.48069 0.24165 0.62259 0.0
H666 H 0.33287 0.94132 0.80378 0.0
H667 H 0.24776 0.96501 0.77356 0.0
H668 H 0.20092 0.90757 0.80185 0.0
H669 H 0.18424 0.85028 0.83416 0.0
H670 H 0.26958 0.82658 0.86363 0.0
H671 H 0.3164 0.88472 0.83665 0.0
C672 C 0.30409 0.93405 0.80333 0.0
C673 C 0.29386 0.95749 0.78643 0.0
C674 C 0.27741 0.90103 0.81954 0.0
C675 C 0.25641 0.94752 0.78629 0.0
C676 C 0.22964 0.91467 0.80248 0.0
C677 C 0.2131 0.85783 0.83486 0.0
C678 C 0.22334 0.83398 0.85095 0.0
C679 C 0.23983 0.89117 0.81906 0.0
C680 C 0.26088 0.84432 0.85148 0.0
C681 C 0.28767 0.87755 0.836 0.0
H682 H 0.17343 0.37438 0.77888 0.0
H683 H 0.13917 0.25963 0.75544 0.0
H684 H 0.19396 0.26706 0.78558 0.0
H685 H 0.25024 0.30545 0.82012 0.0
H686 H 0.28392 0.4199 0.84439 0.0
H687 H 0.23038 0.41314 0.81233 0.0
C688 C 0.17798 0.35098 0.78009 0.0
C689 C 0.15214 0.31643 0.76486 0.0
C690 C 0.20926 0.35533 0.7978 0.0
C691 C 0.15857 0.2865 0.76684 0.0
C692 C 0.18985 0.29071 0.78417 0.0
C693 C 0.24598 0.32902 0.81842 0.0
C694 C 0.27107 0.36315 0.83482 0.0
C695 C 0.21515 0.32489 0.80003 0.0
C696 C 0.26507 0.39333 0.83215 0.0
C697 C 0.23446 0.38947 0.81379 0.0
H698 H 0.75113 0.86553 0.81325 0.0
H699 H 0.63843 0.79948 0.77715 0.0
H700 H 0.62035 0.83648 0.81364 0.0
H701 H 0.63661 0.88857 0.85512 0.0
H702 H 0.74938 0.95473 0.89095 0.0
H703 H 0.76706 0.91657 0.85581 0.0
C704 C 0.72267 0.85937 0.81323 0.0
C705 C 0.6963 0.82989 0.79231 0.0
C706 C 0.71229 0.88061 0.83456 0.0
C707 C 0.65941 0.82206 0.79293 0.0
C708 C 0.64895 0.84315 0.81388 0.0
C709 C 0.66491 0.89427 0.85562 0.0
C710 C 0.69156 0.92443 0.8757 0.0
C711 C 0.67512 0.8725 0.83486 0.0
C712 C 0.72825 0.9317 0.8757 0.0
C713 C 0.73848 0.90997 0.85549 0.0
H714 H 0.51965 0.51444 0.49728 0.0
H715 H 0.60118 0.48091 0.50913 0.0
H716 H 0.64636 0.53592 0.47677 0.0
H717 H 0.66272 0.59333 0.44549 0.0
H718 H 0.58154 0.62723 0.43336 0.0
H719 H 0.53599 0.57191 0.4654 0.0
C720 C 0.54733 0.51914 0.4929 0.0
C721 C 0.55701 0.49355 0.50578 0.0
C722 C 0.57312 0.55076 0.47413 0.0
C723 C 0.59297 0.5001 0.49962 0.0
C724 C 0.61881 0.53155 0.48107 0.0
C725 C 0.63504 0.58869 0.4497 0.0
C726 C 0.62559 0.61449 0.43698 0.0
C727 C 0.60916 0.55701 0.46822 0.0
C728 C 0.58956 0.60786 0.44277 0.0
C729 C 0.56355 0.57627 0.46116 0.0
H730 H 0.58556 0.97426 0.49235 0.0
H731 H 0.61442 0.0879 0.51403 0.0
H732 H 0.55917 0.07753 0.48265 0.0
H733 H 0.50233 0.03602 0.45019 0.0
H734 H 0.47285 0.92209 0.42926 0.0
H735 H 0.52906 0.93293 0.45913 0.0
C736 C 0.57987 0.99685 0.49023 0.0
C737 C 0.60415 0.03185 0.50565 0.0
C738 C 0.54803 0.99066 0.47224 0.0
C739 C 0.59624 0.06071 0.50252 0.0
C740 C 0.56466 0.0548 0.48455 0.0
C741 C 0.50821 1.01353 0.45192 0.0
C742 C 0.48333 0.97823 0.43742 0.0
C743 C 0.54033 1.01986 0.46943 0.0
C744 C 0.49147 0.94949 0.4401 0.0
C745 C 0.52358 0.95567 0.45726 0.0
H746 H 0.99579 0.47823 0.47336 0.0
H747 H 0.11112 0.56161 0.46121 0.0
H748 H 0.10131 0.60539 0.49688 0.0
H749 H 0.05998 0.62012 0.53077 0.0
H750 H 0.94451 0.53705 0.54253 0.0
H751 H 0.95455 0.49277 0.5079 0.0
C752 C 1.01885 0.506 0.47843 0.0
C753 C 0.05418 0.51663 0.46446 0.0
C754 C 1.01301 0.53096 0.49901 0.0
C755 C 0.08367 0.55269 0.47149 0.0
C756 C 0.07807 0.57772 0.49195 0.0
C757 C 1.03695 0.59226 0.52599 0.0
C758 C 1.00148 0.58194 0.53934 0.0
C759 C 0.04287 0.56714 0.50579 0.0
C760 C 0.97207 0.54573 0.5327 0.0
C761 C 0.97779 0.52045 0.51279 0.0
H762 H 0.49631 0.41924 0.95298 0.0
H763 H 0.46832 0.50496 0.93941 0.0
H764 H 0.52493 0.54965 0.97017 0.0
H765 H 0.58188 0.56416 0.00112 0.0
H766 H 0.61037 0.47877 0.01425 0.0
H767 H 0.55372 0.43397 -0.01654 0.0
C768 C 0.50254 0.44771 0.95666 0.0
C769 C 0.478 0.4587 0.94388 0.0
C770 C 0.5351 0.47322 0.97438 0.0
C771 C 0.48667 0.49574 0.94889 0.0
C772 C 0.51902 0.52129 0.96655 0.0
C773 C 0.57574 0.53572 -0.00259 0.0
C774 C 0.60034 0.52481 0.01016 0.0
C775 C 0.54333 0.51028 0.97949 0.0
C776 C 0.59194 0.4879 0.00481 0.0
C777 C 0.55956 0.4623 -0.01283 0.0
H778 H 0.61096 0.08323 0.98062 0.0
H779 H 0.53089 0.96743 0.96131 0.0
H780 H 0.48339 0.97527 -0.00818 0.0
H781 H 0.46444 1.01514 0.02273 0.0
H782 H 0.54428 0.13103 0.04187 0.0
H783 H 0.59227 0.12285 0.01277 0.0
C784 C 0.58313 0.05963 0.98304 0.0
C785 C 0.57448 0.02477 0.9685 0.0
C786 C 0.55601 0.06434 0.00063 0.0
C787 C 0.5383 0.99454 0.97213 0.0
C788 C 0.51114 0.99902 -0.01041 0.0
C789 C 0.49236 0.03868 0.02073 0.0
C790 C 0.5007 0.07374 0.03446 0.0
C791 C 0.51967 0.03381 0.00379 0.0
C792 C 0.53708 0.10378 0.03161 0.0
C793 C 0.5645 0.09912 0.01488 0.0
H794 H 0.06734 0.57905 0.91517 0.0
H795 H 0.18518 0.6334 0.93228 0.0
H796 H 0.17615 0.58219 0.97006 0.0
H797 H 0.13474 0.52312 -0.00057 0.0
H798 H 1.01668 0.46986 -0.01584 0.0
H799 H 1.02588 0.51994 0.94466 0.0
C800 C 0.09116 0.57955 0.92678 0.0
C801 C 0.12699 0.60996 0.92064 0.0
C802 C 0.08566 0.55048 0.94914 0.0
C803 C 0.15739 0.61031 0.9364 0.0
C804 C 0.1522 0.58111 0.95813 0.0
C805 C 0.11093 0.52238 -0.01247 0.0
C806 C 0.07501 0.49269 -0.00518 0.0
C807 C 0.11644 0.55127 0.96495 0.0
C808 C 0.04458 0.49238 0.97917 0.0
C809 C 0.04985 0.52095 0.95646 0.0
loop_
_geom_bond_atom_site_label_1
_geom_bond_atom_site_label_2
_geom_bond_distance
_geom_bond_site_symmetry_2
_ccdc_geom_bond_type
Mg0 O7 2.141 1_455 S
Mg0 O8 2.048 . S
Mg0 O9 2.048 . S
Mg0 O12 2.141 1_455 S
C1 O2 1.313 . S
C1 O8 1.195 . S
O2 C1 1.313 . S
C3 O4 1.245 . S
C3 O12 1.289 . S
O4 C3 1.245 . S
C5 O6 1.245 . S
C5 O7 1.289 . S
O6 C5 1.245 . S
O7 Mg0 2.141 1_655 S
O7 C5 1.289 . S
O8 Mg0 2.048 . S
O8 C1 1.195 . S
O9 Mg0 2.048 . S
O9 C10 1.195 . S
C10 O9 1.195 . S
C10 O11 1.313 . S
O11 C10 1.313 . S
O12 Mg0 2.141 1_655 S
O12 C3 1.289 . S
Mg13 O20 2.141 . S
Mg13 O21 2.048 . S
Mg13 O22 2.048 . S
Mg13 O25 2.141 . S
C14 O15 1.313 . S
C14 O21 1.195 . S
O15 C14 1.313 . S
C16 O17 1.245 . S
C16 O25 1.289 . S
O17 C16 1.245 . S
C18 O19 1.245 . S
C18 O20 1.289 . S
O19 C18 1.245 . S
O20 Mg13 2.141 . S
O20 C18 1.289 . S
O21 Mg13 2.048 . S
O21 C14 1.195 . S
O22 Mg13 2.048 . S
O22 C23 1.195 . S
C23 O22 1.195 . S
C23 O24 1.313 . S
O24 C23 1.313 . S
O25 Mg13 2.141 . S
O25 C16 1.289 . S
Mg26 O33 2.141 1_545 S
Mg26 O34 2.048 . S
Mg26 O35 2.048 . S
Mg26 O38 2.141 1_545 S
C27 O28 1.313 . S
C27 O34 1.195 . S
O28 C27 1.313 . S
C29 O30 1.245 . S
C29 O38 1.289 . S
O30 C29 1.245 . S
C31 O32 1.245 . S
C31 O33 1.289 . S
O32 C31 1.245 . S
O33 Mg26 2.141 1_565 S
O33 C31 1.289 . S
O34 Mg26 2.048 . S
O34 C27 1.195 . S
O35 Mg26 2.048 . S
O35 C36 1.195 . S
C36 O35 1.195 . S
C36 O37 1.313 . S
O37 C36 1.313 . S
O38 Mg26 2.141 1_565 S
O38 C29 1.289 . S
Mg39 O46 2.141 . S
Mg39 O47 2.048 1_455 S
Mg39 O48 2.048 1_455 S
Mg39 O51 2.141 . S
C40 O41 1.313 . S
C40 O47 1.195 . S
O41 C40 1.313 . S
C42 O43 1.245 . S
C42 O51 1.289 . S
O43 C42 1.245 . S
C44 O45 1.245 . S
C44 O46 1.289 . S
O45 C44 1.245 . S
O46 Mg39 2.141 . S
O46 C44 1.289 . S
O47 Mg39 2.048 1_655 S
O47 C40 1.195 . S
O48 Mg39 2.048 1_655 S
O48 C49 1.195 . S
C49 O48 1.195 . S
C49 O50 1.313 . S
O50 C49 1.313 . S
O51 Mg39 2.141 . S
O51 C42 1.289 . S
Mg52 O59 2.141 . S
Mg52 O60 2.048 . S
Mg52 O61 2.048 . S
Mg52 O64 2.141 . S
C53 O54 1.313 . S
C53 O60 1.195 . S
O54 C53 1.313 . S
C55 O56 1.245 . S
C55 O64 1.289 . S
O56 C55 1.245 . S
C57 O58 1.245 . S
C57 O59 1.289 . S
O58 C57 1.245 . S
O59 Mg52 2.141 . S
O59 C57 1.289 . S
O60 Mg52 2.048 . S
O60 C53 1.195 . S
O61 Mg52 2.048 . S
O61 C62 1.195 . S
C62 O61 1.195 . S
C62 O63 1.313 . S
O63 C62 1.313 . S
O64 Mg52 2.141 . S
O64 C55 1.289 . S
Mg65 O72 2.141 . S
Mg65 O73 2.048 1_545 S
Mg65 O74 2.048 1_545 S
Mg65 O77 2.141 . S
C66 O67 1.313 . S
C66 O73 1.195 . S
O67 C66 1.313 . S
C68 O69 1.245 . S
C68 O77 1.289 . S
O69 C68 1.245 . S
C70 O71 1.245 . S
C70 O72 1.289 . S
O71 C70 1.245 . S
O72 Mg65 2.141 . S
O72 C70 1.289 . S
O73 Mg65 2.048 1_565 S
O73 C66 1.195 . S
O74 Mg65 2.048 1_565 S
O74 C75 1.195 . S
C75 O74 1.195 . S
C75 O76 1.313 . S
O76 C75 1.313 . S
O77 Mg65 2.141 . S
O77 C68 1.289 . S
Mg78 O85 2.141 . S
Mg78 O86 2.048 . S
Mg78 O87 2.048 . S
Mg78 O90 2.141 . S
C79 O80 1.313 . S
C79 O86 1.195 . S
O80 C79 1.313 . S
C81 O82 1.245 . S
C81 O90 1.289 . S
O82 C81 1.245 . S
C83 O84 1.245 . S
C83 O85 1.289 . S
O84 C83 1.245 . S
O85 Mg78 2.141 . S
O85 C83 1.289 . S
O86 Mg78 2.048 . S
O86 C79 1.195 . S
O87 Mg78 2.048 . S
O87 C88 1.195 . S
C88 O87 1.195 . S
C88 O89 1.313 . S
O89 C88 1.313 . S
O90 Mg78 2.141 . S
O90 C81 1.289 . S
Mg91 O98 2.141 . S
Mg91 O99 2.048 . S
Mg91 O100 2.048 . S
Mg91 O103 2.141 . S
C92 O93 1.313 . S
C92 O99 1.195 . S
O93 C92 1.313 . S
C94 O95 1.245 . S
C94 O103 1.289 . S
O95 C94 1.245 . S
C96 O97 1.245 . S
C96 O98 1.289 . S
O97 C96 1.245 . S
O98 Mg91 2.141 . S
O98 C96 1.289 . S
O99 Mg91 2.048 . S
O99 C92 1.195 . S
O100 Mg91 2.048 . S
O100 C101 1.195 . S
C101 O100 1.195 . S
C101 O102 1.313 . S
O102 C101 1.313 . S
O103 Mg91 2.141 . S
O103 C94 1.289 . S
Mg104 O111 2.141 . S
Mg104 O112 2.048 . S
Mg104 O113 2.048 . S
Mg104 O116 2.141 . S
C105 O106 1.313 . S
C105 O112 1.195 . S
O106 C105 1.313 . S
C107 O108 1.245 . S
C107 O116 1.289 . S
O108 C107 1.245 . S
C109 O110 1.245 . S
C109 O111 1.289 . S
O110 C109 1.245 . S
O111 Mg104 2.141 . S
O111 C109 1.289 . S
O112 Mg104 2.048 . S
O112 C105 1.195 . S
O113 Mg104 2.048 . S
O113 C114 1.195 . S
C114 O113 1.195 . S
C114 O115 1.313 . S
O115 C114 1.313 . S
O116 Mg104 2.141 . S
O116 C107 1.289 . S
Mg117 O124 2.141 . S
Mg117 O125 2.048 . S
Mg117 O126 2.048 . S
Mg117 O129 2.141 . S
C118 O119 1.313 . S
C118 O125 1.195 . S
O119 C118 1.313 . S
C120 O121 1.245 . S
C120 O129 1.289 . S
O121 C120 1.245 . S
C122 O123 1.245 . S
C122 O124 1.289 . S
O123 C122 1.245 . S
O124 Mg117 2.141 . S
O124 C122 1.289 . S
O125 Mg117 2.048 . S
O125 C118 1.195 . S
O126 Mg117 2.048 . S
O126 C127 1.195 . S
C127 O126 1.195 . S
C127 O128 1.313 . S
O128 C127 1.313 . S
O129 Mg117 2.141 . S
O129 C120 1.289 . S
Mg130 O137 2.141 . S
Mg130 O138 2.048 . S
Mg130 O139 2.048 . S
Mg130 O142 2.141 . S
C131 O132 1.313 . S
C131 O138 1.195 . S
O132 C131 1.313 . S
C133 O134 1.245 . S
C133 O142 1.289 . S
O134 C133 1.245 . S
C135 O136 1.245 . S
C135 O137 1.289 . S
O136 C135 1.245 . S
O137 Mg130 2.141 . S
O137 C135 1.289 . S
O138 Mg130 2.048 . S
O138 C131 1.195 . S
O139 Mg130 2.048 . S
O139 C140 1.195 . S
C140 O139 1.195 . S
C140 O141 1.313 . S
O141 C140 1.313 . S
O142 Mg130 2.141 . S
O142 C133 1.289 . S
Mg143 O150 2.141 . S
Mg143 O151 2.048 . S
Mg143 O152 2.048 . S
Mg143 O155 2.141 . S
C144 O145 1.313 . S
C144 O151 1.195 . S
O145 C144 1.313 . S
C146 O147 1.245 . S
C146 O155 1.289 . S
O147 C146 1.245 . S
C148 O149 1.245 . S
C148 O150 1.289 . S
O149 C148 1.245 . S
O150 Mg143 2.141 . S
O150 C148 1.289 . S
O151 Mg143 2.048 . S
O151 C144 1.195 . S
O152 Mg143 2.048 . S
O152 C153 1.195 . S
C153 O152 1.195 . S
C153 O154 1.313 . S
O154 C153 1.313 . S
O155 Mg143 2.141 . S
O155 C146 1.289 . S
Mg156 O163 2.141 . S
Mg156 O164 2.048 . S
Mg156 O165 2.048 . S
Mg156 O168 2.141 . S
C157 O158 1.313 . S
C157 O164 1.195 . S
O158 C157 1.313 . S
C159 O160 1.245 . S
C159 O168 1.289 . S
O160 C159 1.245 . S
C161 O162 1.245 . S
C161 O163 1.289 . S
O162 C161 1.245 . S
O163 Mg156 2.141 . S
O163 C161 1.289 . S
O164 Mg156 2.048 . S
O164 C157 1.195 . S
O165 Mg156 2.048 . S
O165 C166 1.195 . S
C166 O165 1.195 . S
C166 O167 1.313 . S
O167 C166 1.313 . S
O168 Mg156 2.141 . S
O168 C159 1.289 . S
Mg169 O176 2.141 . S
Mg169 O177 2.048 . S
Mg169 O178 2.048 . S
Mg169 O181 2.141 . S
C170 O171 1.313 . S
C170 O177 1.195 . S
O171 C170 1.313 . S
C172 O173 1.245 . S
C172 O181 1.289 . S
O173 C172 1.245 . S
C174 O175 1.245 . S
C174 O176 1.289 . S
O175 C174 1.245 . S
O176 Mg169 2.141 . S
O176 C174 1.289 . S
O177 Mg169 2.048 . S
O177 C170 1.195 . S
O178 Mg169 2.048 . S
O178 C179 1.195 . S
C179 O178 1.195 . S
C179 O180 1.313 . S
O180 C179 1.313 . S
O181 Mg169 2.141 . S
O181 C172 1.289 . S
Mg182 O189 2.141 . S
Mg182 O190 2.048 . S
Mg182 O191 2.048 . S
Mg182 O194 2.141 . S
C183 O184 1.313 . S
C183 O190 1.195 . S
O184 C183 1.313 . S
C185 O186 1.245 . S
C185 O194 1.289 . S
O186 C185 1.245 . S
C187 O188 1.245 . S
C187 O189 1.289 . S
O188 C187 1.245 . S
O189 Mg182 2.141 . S
O189 C187 1.289 . S
O190 Mg182 2.048 . S
O190 C183 1.195 . S
O191 Mg182 2.048 . S
O191 C192 1.195 . S
C192 O191 1.195 . S
C192 O193 1.313 . S
O193 C192 1.313 . S
O194 Mg182 2.141 . S
O194 C185 1.289 . S
Mg195 O202 2.141 . S
Mg195 O203 2.048 . S
Mg195 O204 2.048 . S
Mg195 O207 2.141 . S
C196 O197 1.313 . S
C196 O203 1.195 . S
O197 C196 1.313 . S
C198 O199 1.245 . S
C198 O207 1.289 . S
O199 C198 1.245 . S
C200 O201 1.245 . S
C200 O202 1.289 . S
O201 C200 1.245 . S
O202 Mg195 2.141 . S
O202 C200 1.289 . S
O203 Mg195 2.048 . S
O203 C196 1.195 . S
O204 Mg195 2.048 . S
O204 C205 1.195 . S
C205 O204 1.195 . S
C205 O206 1.313 . S
O206 C205 1.313 . S
O207 Mg195 2.141 . S
O207 C198 1.289 . S
Mg208 O215 2.141 . S
Mg208 O216 2.048 . S
Mg208 O217 2.048 . S
Mg208 O220 2.141 . S
C209 O210 1.313 . S
C209 O216 1.195 . S
O210 C209 1.313 . S
C211 O212 1.245 . S
C211 O220 1.289 . S
O212 C211 1.245 . S
C213 O214 1.245 . S
C213 O215 1.289 . S
O214 C213 1.245 . S
O215 Mg208 2.141 . S
O215 C213 1.289 . S
O216 Mg208 2.048 . S
O216 C209 1.195 . S
O217 Mg208 2.048 . S
O217 C218 1.195 . S
C218 O217 1.195 . S
C218 O219 1.313 . S
O219 C218 1.313 . S
O220 Mg208 2.141 . S
O220 C211 1.289 . S
Mg221 O228 2.141 . S
Mg221 O229 2.048 . S
Mg221 O230 2.048 . S
Mg221 O233 2.141 . S
C222 O223 1.313 . S
C222 O229 1.195 . S
O223 C222 1.313 . S
C224 O225 1.245 . S
C224 O233 1.289 . S
O225 C224 1.245 . S
C226 O227 1.245 . S
C226 O228 1.289 . S
O227 C226 1.245 . S
O228 Mg221 2.141 . S
O228 C226 1.289 . S
O229 Mg221 2.048 . S
O229 C222 1.195 . S
O230 Mg221 2.048 . S
O230 C231 1.195 . S
C231 O230 1.195 . S
C231 O232 1.313 . S
O232 C231 1.313 . S
O233 Mg221 2.141 . S
O233 C224 1.289 . S
H234 C240 0.930 . S
H235 C243 0.930 . S
H236 C244 0.930 . S
H237 C245 0.930 . S
H238 C248 0.930 . S
H239 C249 0.930 . S
C240 H234 0.930 . S
C240 C241 1.355 . S
C240 C242 1.415 . S
C241 C240 1.355 . S
C241 C243 1.419 . S
C242 C240 1.415 . S
C242 C247 1.425 . S
C242 C249 1.409 . S
C243 H235 0.930 . S
C243 C241 1.419 . S
C243 C244 1.362 . S
C244 H236 0.930 . S
C244 C243 1.362 . S
C244 C247 1.409 . S
C245 H237 0.930 . S
C245 C246 1.355 . S
C245 C247 1.415 . S
C246 C245 1.355 . S
C246 C248 1.419 . S
C247 C242 1.425 . S
C247 C244 1.409 . S
C247 C245 1.415 . S
C248 H238 0.930 . S
C248 C246 1.419 . S
C248 C249 1.362 . S
C249 H239 0.930 . S
C249 C242 1.409 . S
C249 C248 1.362 . S
H250 C256 0.930 . S
H251 C259 0.930 . S
H252 C260 0.930 . S
H253 C261 0.930 . S
H254 C264 0.930 . S
H255 C265 0.930 . S
C256 H250 0.930 . S
C256 C257 1.355 . S
C256 C258 1.415 . S
C257 C256 1.355 . S
C257 C259 1.419 . S
C258 C256 1.415 . S
C258 C263 1.425 . S
C258 C265 1.409 . S
C259 H251 0.930 . S
C259 C257 1.419 . S
C259 C260 1.362 . S
C260 H252 0.930 . S
C260 C259 1.362 . S
C260 C263 1.409 . S
C261 H253 0.930 . S
C261 C262 1.355 . S
C261 C263 1.415 . S
C262 C261 1.355 . S
C262 C264 1.419 . S
C263 C258 1.425 . S
C263 C260 1.409 . S
C263 C261 1.415 . S
C264 H254 0.930 . S
C264 C262 1.419 . S
C264 C265 1.362 . S
C265 H255 0.930 . S
C265 C258 1.409 . S
C265 C264 1.362 . S
H266 C272 0.930 . S
H267 C275 0.930 1_545 S
H268 C276 0.918 1_545 S
H269 C277 0.930 . S
H270 C280 0.930 . S
H271 C281 0.930 . S
C272 H266 0.930 . S
C272 C273 1.355 . S
C272 C274 1.415 . S
C273 C272 1.355 . S
C273 C275 1.419 . S
C274 C272 1.415 . S
C274 C279 1.425 . S
C274 C281 1.409 . S
C275 H267 0.930 1_565 S
C275 C273 1.419 . S
C275 C276 1.362 . S
C276 H268 0.918 1_565 S
C276 C275 1.362 . S
C276 C279 1.409 . S
C277 H269 0.930 . S
C277 C278 1.355 . S
C277 C279 1.415 . S
C278 C277 1.355 . S
C278 C280 1.419 . S
C279 C274 1.425 . S
C279 C276 1.409 . S
C279 C277 1.415 . S
C280 H270 0.930 . S
C280 C278 1.419 . S
C280 C281 1.362 . S
C281 H271 0.930 . S
C281 C274 1.409 . S
C281 C280 1.362 . S
H282 C288 0.930 . S
H283 C291 0.930 . S
H284 C292 0.930 . S
H285 C293 0.930 . S
H286 C296 0.930 . S
H287 C297 0.930 . S
C288 H282 0.930 . S
C288 C289 1.355 . S
C288 C290 1.415 . S
C289 C288 1.355 . S
C289 C291 1.419 . S
C290 C288 1.415 . S
C290 C295 1.425 . S
C290 C297 1.409 . S
C291 H283 0.930 . S
C291 C289 1.419 . S
C291 C292 1.362 . S
C292 H284 0.930 . S
C292 C291 1.362 . S
C292 C295 1.409 . S
C293 H285 0.930 . S
C293 C294 1.355 . S
C293 C295 1.415 . S
C294 C293 1.355 . S
C294 C296 1.419 . S
C295 C290 1.425 . S
C295 C292 1.409 . S
C295 C293 1.415 . S
C296 H286 0.930 . S
C296 C294 1.419 . S
C296 C297 1.362 . S
C297 H287 0.930 . S
C297 C290 1.409 . S
C297 C296 1.362 . S
H298 C304 0.930 . S
H299 C307 0.930 . S
H300 C308 0.930 . S
H301 C309 0.930 . S
H302 C312 0.930 . S
H303 C313 0.930 . S
C304 H298 0.930 . S
C304 C305 1.355 . S
C304 C306 1.415 . S
C305 C304 1.355 . S
C305 C307 1.419 . S
C306 C304 1.415 . S
C306 C311 1.425 . S
C306 C313 1.409 . S
C307 H299 0.930 . S
C307 C305 1.419 . S
C307 C308 1.362 . S
C308 H300 0.930 . S
C308 C307 1.362 . S
C308 C311 1.409 . S
C309 H301 0.930 . S
C309 C310 1.355 . S
C309 C311 1.415 . S
C310 C309 1.355 . S
C310 C312 1.419 . S
C311 C306 1.425 . S
C311 C308 1.409 . S
C311 C309 1.415 . S
C312 H302 0.930 . S
C312 C310 1.419 . S
C312 C313 1.362 . S
C313 H303 0.930 . S
C313 C306 1.409 . S
C313 C312 1.362 . S
H314 C320 0.930 . S
H315 C323 0.930 . S
H316 C324 0.930 . S
H317 C325 0.930 . S
H318 C328 0.930 . S
H319 C329 0.930 . S
C320 H314 0.930 . S
C320 C321 1.355 . S
C320 C322 1.415 . S
C321 C320 1.355 . S
C321 C323 1.419 . S
C322 C320 1.415 . S
C322 C327 1.425 . S
C322 C329 1.409 . S
C323 H315 0.930 . S
C323 C321 1.419 . S
C323 C324 1.362 . S
C324 H316 0.930 . S
C324 C323 1.362 . S
C324 C327 1.409 . S
C325 H317 0.930 . S
C325 C326 1.355 . S
C325 C327 1.415 . S
C326 C325 1.355 . S
C326 C328 1.419 . S
C327 C322 1.425 . S
C327 C324 1.409 . S
C327 C325 1.415 . S
C328 H318 0.930 . S
C328 C326 1.419 . S
C328 C329 1.362 . S
C329 H319 0.930 . S
C329 C322 1.409 . S
C329 C328 1.362 . S
H330 C336 0.930 . S
H331 C339 0.930 1_455 S
H332 C340 0.930 . S
H333 C341 0.930 . S
H334 C344 0.930 . S
H335 C345 0.930 . S
C336 H330 0.930 . S
C336 C337 1.355 . S
C336 C338 1.415 . S
C337 C336 1.355 . S
C337 C339 1.419 . S
C338 C336 1.415 . S
C338 C343 1.425 . S
C338 C345 1.409 . S
C339 H331 0.930 1_655 S
C339 C337 1.419 . S
C339 C340 1.362 . S
C340 H332 0.930 . S
C340 C339 1.362 . S
C340 C343 1.409 . S
C341 H333 0.930 . S
C341 C342 1.355 . S
C341 C343 1.415 . S
C342 C341 1.355 . S
C342 C344 1.419 . S
C343 C338 1.425 . S
C343 C340 1.409 . S
C343 C341 1.415 . S
C344 H334 0.930 . S
C344 C342 1.419 . S
C344 C345 1.362 . S
C345 H335 0.930 . S
C345 C338 1.409 . S
C345 C344 1.362 . S
H346 C352 0.930 . S
H347 C355 0.930 1_554 S
H348 C356 0.930 . S
H349 C357 0.930 . S
H350 C360 0.930 . S
H351 C361 0.930 . S
C352 H346 0.930 . S
C352 C353 1.355 . S
C352 C354 1.415 . S
C353 C352 1.355 . S
C353 C355 1.419 . S
C354 C352 1.415 . S
C354 C359 1.425 . S
C354 C361 1.409 . S
C355 H347 0.930 1_556 S
C355 C353 1.419 . S
C355 C356 1.362 . S
C356 H348 0.930 . S
C356 C355 1.362 . S
C356 C359 1.409 . S
C357 H349 0.930 . S
C357 C358 1.355 . S
C357 C359 1.415 . S
C358 C357 1.355 . S
C358 C360 1.419 . S
C359 C354 1.425 . S
C359 C356 1.409 . S
C359 C357 1.415 . S
C360 H350 0.930 . S
C360 C358 1.419 . S
C360 C361 1.362 . S
C361 H351 0.930 . S
C361 C354 1.409 . S
C361 C360 1.362 . S
H362 C368 0.930 . S
H363 C371 0.930 . S
H364 C372 0.930 . S
H365 C373 0.930 . S
H366 C376 0.930 . S
H367 C377 0.930 . S
C368 H362 0.930 . S
C368 C369 1.355 . S
C368 C370 1.415 . S
C369 C368 1.355 . S
C369 C371 1.419 . S
C370 C368 1.415 . S
C370 C375 1.425 . S
C370 C377 1.409 . S
C371 H363 0.930 . S
C371 C369 1.419 . S
C371 C372 1.362 . S
C372 H364 0.930 . S
C372 C371 1.362 . S
C372 C375 1.409 . S
C373 H365 0.930 . S
C373 C374 1.355 . S
C373 C375 1.415 . S
C374 C373 1.355 . S
C374 C376 1.419 . S
C375 C370 1.425 . S
C375 C372 1.409 . S
C375 C373 1.415 . S
C376 H366 0.930 . S
C376 C374 1.419 . S
C376 C377 1.362 . S
C377 H367 0.930 . S
C377 C370 1.409 . S
C377 C376 1.362 . S
H378 C384 0.930 . S
H379 C387 0.930 1_545 S
H380 C388 0.930 1_545 S
H381 C389 0.930 . S
H382 C392 0.930 . S
H383 C393 0.930 . S
C384 H378 0.930 . S
C384 C385 1.355 . S
C384 C386 1.415 . S
C385 C384 1.355 . S
C385 C387 1.419 . S
C386 C384 1.415 . S
C386 C391 1.425 . S
C386 C393 1.409 . S
C387 H379 0.930 1_565 S
C387 C385 1.419 . S
C387 C388 1.362 . S
C388 H380 0.930 1_565 S
C388 C387 1.362 . S
C388 C391 1.409 . S
C389 H381 0.930 . S
C389 C390 1.355 . S
C389 C391 1.415 . S
C390 C389 1.355 . S
C390 C392 1.419 . S
C391 C386 1.425 . S
C391 C388 1.409 . S
C391 C389 1.415 . S
C392 H382 0.930 . S
C392 C390 1.419 . S
C392 C393 1.362 . S
C393 H383 0.930 . S
C393 C386 1.409 . S
C393 C392 1.362 . S
H394 C400 0.930 . S
H395 C403 0.930 . S
H396 C404 0.930 . S
H397 C405 0.930 . S
H398 C408 0.930 . S
H399 C409 0.930 . S
C400 H394 0.930 . S
C400 C401 1.355 . S
C400 C402 1.415 . S
C401 C400 1.355 . S
C401 C403 1.419 . S
C402 C400 1.415 . S
C402 C407 1.425 . S
C402 C409 1.409 . S
C403 H395 0.930 . S
C403 C401 1.419 . S
C403 C404 1.362 . S
C404 H396 0.930 . S
C404 C403 1.362 . S
C404 C407 1.409 . S
C405 H397 0.930 . S
C405 C406 1.355 . S
C405 C407 1.415 . S
C406 C405 1.355 . S
C406 C408 1.419 . S
C407 C402 1.425 . S
C407 C404 1.409 . S
C407 C405 1.415 . S
C408 H398 0.930 . S
C408 C406 1.419 . S
C408 C409 1.362 . S
C409 H399 0.930 . S
C409 C402 1.409 . S
C409 C408 1.362 . S
H410 C416 0.930 . S
H411 C419 0.930 . S
H412 C420 0.930 . S
H413 C421 0.930 . S
H414 C424 0.930 . S
H415 C425 0.930 . S
C416 H410 0.930 . S
C416 C417 1.355 . S
C416 C418 1.415 . S
C417 C416 1.355 . S
C417 C419 1.419 . S
C418 C416 1.415 . S
C418 C423 1.425 . S
C418 C425 1.409 . S
C419 H411 0.930 . S
C419 C417 1.419 . S
C419 C420 1.362 . S
C420 H412 0.930 . S
C420 C419 1.362 . S
C420 C423 1.409 . S
C421 H413 0.930 . S
C421 C422 1.355 . S
C421 C423 1.415 . S
C422 C421 1.355 . S
C422 C424 1.419 . S
C423 C418 1.425 . S
C423 C420 1.409 . S
C423 C421 1.415 . S
C424 H414 0.930 . S
C424 C422 1.419 . S
C424 C425 1.362 . S
C425 H415 0.930 . S
C425 C418 1.409 . S
C425 C424 1.362 . S
H426 C432 0.930 . S
H427 C435 0.930 . S
H428 C436 0.930 . S
H429 C437 0.930 . S
H430 C440 0.930 . S
H431 C441 0.930 . S
C432 H426 0.930 . S
C432 C433 1.355 . S
C432 C434 1.415 . S
C433 C432 1.355 . S
C433 C435 1.419 . S
C434 C432 1.415 . S
C434 C439 1.425 . S
C434 C441 1.409 . S
C435 H427 0.930 . S
C435 C433 1.419 . S
C435 C436 1.362 . S
C436 H428 0.930 . S
C436 C435 1.362 . S
C436 C439 1.409 . S
C437 H429 0.930 . S
C437 C438 1.355 . S
C437 C439 1.415 . S
C438 C437 1.355 . S
C438 C440 1.419 . S
C439 C434 1.425 . S
C439 C436 1.409 . S
C439 C437 1.415 . S
C440 H430 0.930 . S
C440 C438 1.419 . S
C440 C441 1.362 . S
C441 H431 0.930 . S
C441 C434 1.409 . S
C441 C440 1.362 . S
H442 C448 0.930 . S
H443 C451 0.930 . S
H444 C452 0.930 1_565 S
H445 C453 0.930 . S
H446 C456 0.930 . S
H447 C457 0.930 . S
C448 H442 0.930 . S
C448 C449 1.355 . S
C448 C450 1.415 . S
C449 C448 1.355 . S
C449 C451 1.419 . S
C450 C448 1.415 . S
C450 C455 1.435 . S
C450 C457 1.409 . S
C451 H443 0.930 . S
C451 C449 1.419 . S
C451 C452 1.362 . S
C452 H444 0.930 1_545 S
C452 C451 1.362 . S
C452 C455 1.408 . S
C453 H445 0.930 . S
C453 C454 1.355 . S
C453 C455 1.406 1_565 S
C454 C453 1.355 . S
C454 C456 1.419 . S
C455 C450 1.435 . S
C455 C452 1.408 . S
C455 C453 1.406 1_545 S
C456 H446 0.930 . S
C456 C454 1.419 . S
C456 C457 1.362 1_565 S
C457 H447 0.930 . S
C457 C450 1.409 . S
C457 C456 1.362 1_545 S
H458 C464 0.930 . S
H459 C467 0.930 . S
H460 C468 0.930 . S
H461 C469 0.930 1_455 S
H462 C472 0.930 . S
H463 C473 0.930 . S
C464 H458 0.930 . S
C464 C465 1.355 . S
C464 C466 1.415 . S
C465 C464 1.355 . S
C465 C467 1.419 . S
C466 C464 1.415 . S
C466 C471 1.425 . S
C466 C473 1.409 1_455 S
C467 H459 0.930 . S
C467 C465 1.419 . S
C467 C468 1.362 . S
C468 H460 0.930 . S
C468 C467 1.362 . S
C468 C471 1.409 . S
C469 H461 0.930 1_655 S
C469 C470 1.355 . S
C469 C471 1.415 1_655 S
C470 C469 1.355 . S
C470 C472 1.419 . S
C471 C466 1.425 . S
C471 C468 1.409 . S
C471 C469 1.415 1_455 S
C472 H462 0.930 . S
C472 C470 1.419 . S
C472 C473 1.362 . S
C473 H463 0.930 . S
C473 C466 1.409 1_655 S
C473 C472 1.362 . S
H474 C480 0.930 . S
H475 C483 0.930 . S
H476 C484 0.930 . S
H477 C485 0.930 . S
H478 C488 0.930 . S
H479 C489 0.930 . S
C480 H474 0.930 . S
C480 C481 1.355 . S
C480 C482 1.415 . S
C481 C480 1.355 . S
C481 C483 1.419 . S
C482 C480 1.415 . S
C482 C487 1.425 . S
C482 C489 1.409 . S
C483 H475 0.930 . S
C483 C481 1.419 . S
C483 C484 1.362 . S
C484 H476 0.930 . S
C484 C483 1.362 . S
C484 C487 1.409 . S
C485 H477 0.930 . S
C485 C486 1.355 . S
C485 C487 1.415 . S
C486 C485 1.355 . S
C486 C488 1.419 . S
C487 C482 1.425 . S
C487 C484 1.409 . S
C487 C485 1.415 . S
C488 H478 0.930 . S
C488 C486 1.419 . S
C488 C489 1.362 . S
C489 H479 0.930 . S
C489 C482 1.409 . S
C489 C488 1.362 . S
H490 C496 0.930 . S
H491 C499 0.930 . S
H492 C500 0.930 . S
H493 C501 0.930 . S
H494 C504 0.930 . S
H495 C505 0.930 . S
C496 H490 0.930 . S
C496 C497 1.355 . S
C496 C498 1.415 . S
C497 C496 1.355 . S
C497 C499 1.419 . S
C498 C496 1.415 . S
C498 C503 1.425 . S
C498 C505 1.409 1_545 S
C499 H491 0.930 . S
C499 C497 1.419 . S
C499 C500 1.362 . S
C500 H492 0.930 . S
C500 C499 1.362 . S
C500 C503 1.409 . S
C501 H493 0.930 . S
C501 C502 1.355 . S
C501 C503 1.415 1_565 S
C502 C501 1.355 . S
C502 C504 1.419 . S
C503 C498 1.425 . S
C503 C500 1.409 . S
C503 C501 1.415 1_545 S
C504 H494 0.930 . S
C504 C502 1.419 . S
C504 C505 1.362 . S
C505 H495 0.930 . S
C505 C498 1.409 1_565 S
C505 C504 1.362 . S
H506 C512 0.930 . S
H507 C515 0.930 . S
H508 C516 0.930 . S
H509 C517 0.930 . S
H510 C520 0.930 . S
H511 C521 0.930 . S
C512 H506 0.930 . S
C512 C513 1.355 . S
C512 C514 1.415 . S
C513 C512 1.355 . S
C513 C515 1.419 . S
C514 C512 1.415 . S
C514 C519 1.425 . S
C514 C521 1.409 . S
C515 H507 0.930 . S
C515 C513 1.419 . S
C515 C516 1.362 . S
C516 H508 0.930 . S
C516 C515 1.362 . S
C516 C519 1.409 . S
C517 H509 0.930 . S
C517 C518 1.355 . S
C517 C519 1.415 1_655 S
C518 C517 1.355 . S
C518 C520 1.419 . S
C519 C514 1.425 . S
C519 C516 1.409 . S
C519 C517 1.415 1_455 S
C520 H510 0.930 . S
C520 C518 1.419 . S
C520 C521 1.362 1_655 S
C521 H511 0.930 . S
C521 C514 1.409 . S
C521 C520 1.362 1_455 S
H522 C528 0.930 . S
H523 C531 0.930 . S
H524 C532 0.930 . S
H525 C533 0.930 . S
H526 C536 0.930 . S
H527 C537 0.930 . S
C528 H522 0.930 . S
C528 C529 1.355 . S
C528 C530 1.415 . S
C529 C528 1.355 . S
C529 C531 1.419 . S
C530 C528 1.415 . S
C530 C535 1.425 . S
C530 C537 1.409 . S
C531 H523 0.930 . S
C531 C529 1.419 . S
C531 C532 1.362 . S
C532 H524 0.930 . S
C532 C531 1.362 . S
C532 C535 1.409 . S
C533 H525 0.930 . S
C533 C534 1.355 . S
C533 C535 1.415 . S
C534 C533 1.355 . S
C534 C536 1.419 . S
C535 C530 1.425 . S
C535 C532 1.409 . S
C535 C533 1.415 . S
C536 H526 0.930 . S
C536 C534 1.419 . S
C536 C537 1.362 . S
C537 H527 0.930 . S
C537 C530 1.409 . S
C537 C536 1.362 . S
H538 C544 0.930 . S
H539 C547 0.930 . S
H540 C548 0.930 . S
H541 C549 0.930 . S
H542 C552 0.930 . S
H543 C553 0.930 . S
C544 H538 0.930 . S
C544 C545 1.355 . S
C544 C546 1.415 . S
C545 C544 1.355 . S
C545 C547 1.419 . S
C546 C544 1.415 . S
C546 C551 1.425 . S
C546 C553 1.409 . S
C547 H539 0.930 . S
C547 C545 1.419 . S
C547 C548 1.362 . S
C548 H540 0.930 . S
C548 C547 1.362 . S
C548 C551 1.409 . S
C549 H541 0.930 . S
C549 C550 1.355 . S
C549 C551 1.415 . S
C550 C549 1.355 . S
C550 C552 1.419 . S
C551 C546 1.425 . S
C551 C548 1.409 . S
C551 C549 1.415 . S
C552 H542 0.930 . S
C552 C550 1.419 . S
C552 C553 1.362 . S
C553 H543 0.930 . S
C553 C546 1.409 . S
C553 C552 1.362 . S
H554 C560 0.930 . S
H555 C563 0.930 . S
H556 C564 0.930 . S
H557 C565 0.930 . S
H558 C568 0.930 . S
H559 C569 0.930 . S
C560 H554 0.930 . S
C560 C561 1.355 . S
C560 C562 1.415 . S
C561 C560 1.355 . S
C561 C563 1.419 . S
C562 C560 1.415 . S
C562 C567 1.425 . S
C562 C569 1.409 . S
C563 H555 0.930 . S
C563 C561 1.419 . S
C563 C564 1.362 . S
C564 H556 0.930 . S
C564 C563 1.362 . S
C564 C567 1.409 . S
C565 H557 0.930 . S
C565 C566 1.355 . S
C565 C567 1.415 . S
C566 C565 1.355 . S
C566 C568 1.419 . S
C567 C562 1.425 . S
C567 C564 1.409 . S
C567 C565 1.415 . S
C568 H558 0.930 . S
C568 C566 1.419 . S
C568 C569 1.362 . S
C569 H559 0.930 . S
C569 C562 1.409 . S
C569 C568 1.362 . S
H570 C576 0.930 . S
H571 C579 0.930 . S
H572 C580 0.930 . S
H573 C581 0.930 . S
H574 C584 0.930 . S
H575 C585 0.930 . S
C576 H570 0.930 . S
C576 C577 1.355 . S
C576 C578 1.415 . S
C577 C576 1.355 . S
C577 C579 1.419 . S
C578 C576 1.415 . S
C578 C583 1.425 . S
C578 C585 1.409 . S
C579 H571 0.930 . S
C579 C577 1.419 . S
C579 C580 1.362 . S
C580 H572 0.930 . S
C580 C579 1.362 . S
C580 C583 1.409 . S
C581 H573 0.930 . S
C581 C582 1.355 . S
C581 C583 1.415 . S
C582 C581 1.355 . S
C582 C584 1.419 . S
C583 C578 1.425 . S
C583 C580 1.409 . S
C583 C581 1.415 . S
C584 H574 0.930 . S
C584 C582 1.419 . S
C584 C585 1.362 . S
C585 H575 0.930 . S
C585 C578 1.409 . S
C585 C584 1.362 . S
H586 C592 0.930 . S
H587 C595 0.930 . S
H588 C596 0.930 . S
H589 C597 0.930 . S
H590 C600 0.930 . S
H591 C601 0.930 . S
C592 H586 0.930 . S
C592 C593 1.355 . S
C592 C594 1.415 . S
C593 C592 1.355 . S
C593 C595 1.419 . S
C594 C592 1.415 . S
C594 C599 1.425 . S
C594 C601 1.409 . S
C595 H587 0.930 . S
C595 C593 1.419 . S
C595 C596 1.362 . S
C596 H588 0.930 . S
C596 C595 1.362 . S
C596 C599 1.409 . S
C597 H589 0.930 . S
C597 C598 1.355 . S
C597 C599 1.415 . S
C598 C597 1.355 . S
C598 C600 1.419 . S
C599 C594 1.425 . S
C599 C596 1.409 . S
C599 C597 1.415 . S
C600 H590 0.930 . S
C600 C598 1.419 . S
C600 C601 1.362 . S
C601 H591 0.930 . S
C601 C594 1.409 . S
C601 C600 1.362 . S
H602 C608 0.930 . S
H603 C611 0.930 . S
H604 C612 0.930 . S
H605 C613 0.930 . S
H606 C616 0.930 . S
H607 C617 0.930 . S
C608 H602 0.930 . S
C608 C609 1.355 . S
C608 C610 1.415 . S
C609 C608 1.355 . S
C609 C611 1.419 . S
C610 C608 1.415 . S
C610 C615 1.425 . S
C610 C617 1.409 . S
C611 H603 0.930 . S
C611 C609 1.419 . S
C611 C612 1.362 . S
C612 H604 0.930 . S
C612 C611 1.362 . S
C612 C615 1.409 . S
C613 H605 0.930 . S
C613 C614 1.355 . S
C613 C615 1.415 . S
C614 C613 1.355 . S
C614 C616 1.419 . S
C615 C610 1.425 . S
C615 C612 1.409 . S
C615 C613 1.415 . S
C616 H606 0.930 . S
C616 C614 1.419 . S
C616 C617 1.362 . S
C617 H607 0.930 . S
C617 C610 1.409 . S
C617 C616 1.362 . S
H618 C624 0.930 . S
H619 C627 0.930 . S
H620 C628 0.930 . S
H621 C629 0.930 . S
H622 C632 0.930 . S
H623 C633 0.930 . S
C624 H618 0.930 . S
C624 C625 1.355 . S
C624 C626 1.415 . S
C625 C624 1.355 . S
C625 C627 1.419 . S
C626 C624 1.415 . S
C626 C631 1.425 . S
C626 C633 1.409 . S
C627 H619 0.930 . S
C627 C625 1.419 . S
C627 C628 1.362 . S
C628 H620 0.930 . S
C628 C627 1.362 . S
C628 C631 1.409 . S
C629 H621 0.930 . S
C629 C630 1.355 . S
C629 C631 1.415 . S
C630 C629 1.355 . S
C630 C632 1.419 . S
C631 C626 1.425 . S
C631 C628 1.409 . S
C631 C629 1.415 . S
C632 H622 0.930 . S
C632 C630 1.419 . S
C632 C633 1.362 . S
C633 H623 0.930 . S
C633 C626 1.409 . S
C633 C632 1.362 . S
H634 C640 0.930 . S
H635 C643 0.930 . S
H636 C644 0.930 . S
H637 C645 0.930 . S
H638 C648 0.930 . S
H639 C649 0.930 . S
C640 H634 0.930 . S
C640 C641 1.355 . S
C640 C642 1.415 . S
C641 C640 1.355 . S
C641 C643 1.419 . S
C642 C640 1.415 . S
C642 C647 1.425 . S
C642 C649 1.409 . S
C643 H635 0.930 . S
C643 C641 1.419 . S
C643 C644 1.362 . S
C644 H636 0.930 . S
C644 C643 1.362 . S
C644 C647 1.409 . S
C645 H637 0.930 . S
C645 C646 1.355 . S
C645 C647 1.415 . S
C646 C645 1.355 . S
C646 C648 1.419 . S
C647 C642 1.425 . S
C647 C644 1.409 . S
C647 C645 1.415 . S
C648 H638 0.930 . S
C648 C646 1.419 . S
C648 C649 1.362 . S
C649 H639 0.930 . S
C649 C642 1.409 . S
C649 C648 1.362 . S
H650 C656 0.930 . S
H651 C659 0.930 . S
H652 C660 0.930 . S
H653 C661 0.930 . S
H654 C664 0.930 . S
H655 C665 0.930 . S
C656 H650 0.930 . S
C656 C657 1.355 . S
C656 C658 1.415 . S
C657 C656 1.355 . S
C657 C659 1.419 . S
C658 C656 1.415 . S
C658 C663 1.425 . S
C658 C665 1.409 . S
C659 H651 0.930 . S
C659 C657 1.419 . S
C659 C660 1.362 . S
C660 H652 0.930 . S
C660 C659 1.362 . S
C660 C663 1.409 . S
C661 H653 0.930 . S
C661 C662 1.355 . S
C661 C663 1.415 . S
C662 C661 1.355 . S
C662 C664 1.419 . S
C663 C658 1.425 . S
C663 C660 1.409 . S
C663 C661 1.415 . S
C664 H654 0.930 . S
C664 C662 1.419 . S
C664 C665 1.362 . S
C665 H655 0.930 . S
C665 C658 1.409 . S
C665 C664 1.362 . S
H666 C672 0.930 . S
H667 C675 0.930 . S
H668 C676 0.930 . S
H669 C677 0.930 . S
H670 C680 0.930 . S
H671 C681 0.930 . S
C672 H666 0.930 . S
C672 C673 1.355 . S
C672 C674 1.415 . S
C673 C672 1.355 . S
C673 C675 1.419 . S
C674 C672 1.415 . S
C674 C679 1.425 . S
C674 C681 1.409 . S
C675 H667 0.930 . S
C675 C673 1.419 . S
C675 C676 1.362 . S
C676 H668 0.930 . S
C676 C675 1.362 . S
C676 C679 1.409 . S
C677 H669 0.930 . S
C677 C678 1.355 . S
C677 C679 1.415 . S
C678 C677 1.355 . S
C678 C680 1.419 . S
C679 C674 1.425 . S
C679 C676 1.409 . S
C679 C677 1.415 . S
C680 H670 0.930 . S
C680 C678 1.419 . S
C680 C681 1.362 . S
C681 H671 0.930 . S
C681 C674 1.409 . S
C681 C680 1.362 . S
H682 C688 0.930 . S
H683 C691 0.930 . S
H684 C692 0.930 . S
H685 C693 0.930 . S
H686 C696 0.930 . S
H687 C697 0.930 . S
C688 H682 0.930 . S
C688 C689 1.355 . S
C688 C690 1.415 . S
C689 C688 1.355 . S
C689 C691 1.419 . S
C690 C688 1.415 . S
C690 C695 1.425 . S
C690 C697 1.409 . S
C691 H683 0.930 . S
C691 C689 1.419 . S
C691 C692 1.362 . S
C692 H684 0.930 . S
C692 C691 1.362 . S
C692 C695 1.409 . S
C693 H685 0.930 . S
C693 C694 1.355 . S
C693 C695 1.415 . S
C694 C693 1.355 . S
C694 C696 1.419 . S
C695 C690 1.425 . S
C695 C692 1.409 . S
C695 C693 1.415 . S
C696 H686 0.930 . S
C696 C694 1.419 . S
C696 C697 1.362 . S
C697 H687 0.930 . S
C697 C690 1.409 . S
C697 C696 1.362 . S
H698 C704 0.930 . S
H699 C707 0.930 . S
H700 C708 0.930 . S
H701 C709 0.930 . S
H702 C712 0.930 . S
H703 C713 0.930 . S
C704 H698 0.930 . S
C704 C705 1.355 . S
C704 C706 1.415 . S
C705 C704 1.355 . S
C705 C707 1.419 . S
C706 C704 1.415 . S
C706 C711 1.425 . S
C706 C713 1.409 . S
C707 H699 0.930 . S
C707 C705 1.419 . S
C707 C708 1.362 . S
C708 H700 0.930 . S
C708 C707 1.362 . S
C708 C711 1.409 . S
C709 H701 0.930 . S
C709 C710 1.355 . S
C709 C711 1.415 . S
C710 C709 1.355 . S
C710 C712 1.419 . S
C711 C706 1.425 . S
C711 C708 1.409 . S
C711 C709 1.415 . S
C712 H702 0.930 . S
C712 C710 1.419 . S
C712 C713 1.362 . S
C713 H703 0.930 . S
C713 C706 1.409 . S
C713 C712 1.362 . S
H714 C720 0.930 . S
H715 C723 0.930 . S
H716 C724 0.930 . S
H717 C725 0.930 . S
H718 C728 0.930 . S
H719 C729 0.930 . S
C720 H714 0.930 . S
C720 C721 1.355 . S
C720 C722 1.415 . S
C721 C720 1.355 . S
C721 C723 1.419 . S
C722 C720 1.415 . S
C722 C727 1.425 . S
C722 C729 1.409 . S
C723 H715 0.930 . S
C723 C721 1.419 . S
C723 C724 1.362 . S
C724 H716 0.930 . S
C724 C723 1.362 . S
C724 C727 1.409 . S
C725 H717 0.930 . S
C725 C726 1.355 . S
C725 C727 1.415 . S
C726 C725 1.355 . S
C726 C728 1.419 . S
C727 C722 1.425 . S
C727 C724 1.409 . S
C727 C725 1.415 . S
C728 H718 0.930 . S
C728 C726 1.419 . S
C728 C729 1.362 . S
C729 H719 0.930 . S
C729 C722 1.409 . S
C729 C728 1.362 . S
H730 C736 0.930 . S
H731 C739 0.930 . S
H732 C740 0.930 . S
H733 C741 0.929 1_545 S
H734 C744 0.930 . S
H735 C745 0.930 . S
C736 H730 0.930 . S
C736 C737 1.355 . S
C736 C738 1.415 . S
C737 C736 1.355 . S
C737 C739 1.419 . S
C738 C736 1.415 . S
C738 C743 1.425 . S
C738 C745 1.409 1_545 S
C739 H731 0.930 . S
C739 C737 1.419 . S
C739 C740 1.362 . S
C740 H732 0.930 . S
C740 C739 1.362 . S
C740 C743 1.409 . S
C741 H733 0.929 1_565 S
C741 C742 1.355 . S
C741 C743 1.415 1_565 S
C742 C741 1.355 . S
C742 C744 1.419 . S
C743 C738 1.425 . S
C743 C740 1.409 . S
C743 C741 1.415 1_545 S
C744 H734 0.930 . S
C744 C742 1.419 . S
C744 C745 1.362 . S
C745 H735 0.930 . S
C745 C738 1.409 1_565 S
C745 C744 1.362 . S
H746 C752 0.930 . S
H747 C755 0.930 . S
H748 C756 0.930 . S
H749 C757 0.930 . S
H750 C760 0.930 . S
H751 C761 0.930 . S
C752 H746 0.930 . S
C752 C753 1.355 . S
C752 C754 1.415 . S
C753 C752 1.355 . S
C753 C755 1.419 . S
C754 C752 1.415 . S
C754 C759 1.425 . S
C754 C761 1.409 1_455 S
C755 H747 0.930 . S
C755 C753 1.419 . S
C755 C756 1.362 . S
C756 H748 0.930 . S
C756 C755 1.362 . S
C756 C759 1.409 . S
C757 H749 0.930 . S
C757 C758 1.355 1_455 S
C757 C759 1.415 . S
C758 C757 1.355 1_655 S
C758 C760 1.419 . S
C759 C754 1.425 . S
C759 C756 1.409 . S
C759 C757 1.415 . S
C760 H750 0.930 . S
C760 C758 1.419 . S
C760 C761 1.362 . S
C761 H751 0.930 . S
C761 C754 1.409 1_655 S
C761 C760 1.362 . S
H762 C768 0.930 1_554 S
H763 C771 0.930 . S
H764 C772 0.930 . S
H765 C773 0.930 1_556 S
H766 C776 0.930 . S
H767 C777 0.930 . S
C768 H762 0.930 1_556 S
C768 C769 1.355 . S
C768 C770 1.415 1_556 S
C769 C768 1.355 . S
C769 C771 1.419 . S
C770 C768 1.415 1_554 S
C770 C775 1.425 1_554 S
C770 C777 1.409 . S
C771 H763 0.930 . S
C771 C769 1.419 . S
C771 C772 1.362 . S
C772 H764 0.930 . S
C772 C771 1.362 . S
C772 C775 1.409 . S
C773 H765 0.930 1_554 S
C773 C774 1.355 . S
C773 C775 1.415 1_554 S
C774 C773 1.355 . S
C774 C776 1.419 . S
C775 C770 1.425 1_556 S
C775 C772 1.409 . S
C775 C773 1.415 1_556 S
C776 H766 0.930 . S
C776 C774 1.419 . S
C776 C777 1.362 . S
C777 H767 0.930 . S
C777 C770 1.409 . S
C777 C776 1.362 . S
H778 C784 0.930 . S
H779 C787 0.926 1_554 S
H780 C788 0.930 . S
H781 C789 0.930 . S
H782 C792 0.930 . S
H783 C793 0.930 1_565 S
C784 H778 0.930 . S
C784 C785 1.355 . S
C784 C786 1.415 1_565 S
C785 C784 1.355 . S
C785 C787 1.434 . S
C786 C784 1.415 1_545 S
C786 C791 1.425 1_556 S
C786 C793 1.409 . S
C787 H779 0.926 1_556 S
C787 C785 1.434 . S
C787 C788 1.352 1_566 S
C788 H780 0.930 . S
C788 C787 1.352 1_544 S
C788 C791 1.409 . S
C789 H781 0.930 . S
C789 C790 1.355 . S
C789 C791 1.415 . S
C790 C789 1.355 . S
C790 C792 1.419 1_554 S
C791 C786 1.425 1_554 S
C791 C788 1.409 . S
C791 C789 1.415 . S
C792 H782 0.930 . S
C792 C790 1.419 1_556 S
C792 C793 1.362 . S
C793 H783 0.930 1_545 S
C793 C786 1.409 . S
C793 C792 1.362 . S
H794 C800 0.930 . S
H795 C803 0.930 . S
H796 C804 0.941 . S
H797 C805 0.930 . S
H798 C808 0.930 . S
H799 C809 0.923 1_556 S
C800 H794 0.930 . S
C800 C801 1.355 . S
C800 C802 1.415 . S
C801 C800 1.355 . S
C801 C803 1.419 . S
C802 C800 1.415 . S
C802 C807 1.425 1_556 S
C802 C809 1.406 1_456 S
C803 H795 0.930 . S
C803 C801 1.419 . S
C803 C804 1.347 1_556 S
C804 H796 0.941 . S
C804 C803 1.347 1_554 S
C804 C807 1.414 . S
C805 H797 0.930 . S
C805 C806 1.355 1_455 S
C805 C807 1.415 . S
C806 C805 1.355 1_655 S
C806 C808 1.419 . S
C807 C802 1.425 1_554 S
C807 C804 1.414 . S
C807 C805 1.415 . S
C808 H798 0.930 . S
C808 C806 1.419 . S
C808 C809 1.373 . S
C809 H799 0.923 1_554 S
C809 C802 1.406 1_654 S
C809 C808 1.373 . S
C241 C1 1.942 . S
C246 C183 1.980 1_554 S
C257 C159 1.888 1_554 S
C262 C16 1.859 . S
C273 C29 1.875 . S
C278 C170 1.933 1_554 S
C289 C79 1.941 . S
C294 C27 1.976 . S
C305 C101 2.012 . S
C310 C3 1.878 . S
C321 C105 1.998 . S
C326 C14 1.990 . S
C337 C49 1.976 . S
C342 C144 2.095 1_556 S
C353 C118 2.030 1_556 S
C358 C57 1.866 . S
C369 C140 1.946 1_556 S
C374 C68 2.073 . S
C385 C66 2.067 . S
C390 C205 1.982 . S
C401 C44 1.871 . S
C406 C213 1.834 . S
C417 C224 2.020 . S
C422 C62 1.889 . S
C433 C157 1.935 . S
C438 C107 1.915 . S
C449 C81 1.818 . S
C454 C172 1.859 . S
C465 C185 1.875 . S
C470 C96 1.994 . S
C481 C222 1.981 . S
C486 C120 2.006 . S
C497 C135 1.847 . S
C502 C200 1.879 . S
C513 C218 1.918 . S
C518 C146 2.022 . S
C529 C196 1.656 . S
C534 C10 1.655 . S
C545 C18 1.588 . S
C550 C211 1.588 . S
C561 C31 1.575 . S
C566 C226 1.568 . S
C577 C36 1.641 . S
C582 C153 1.651 . S
C593 C127 1.629 . S
C598 C5 1.594 . S
C609 C23 1.643 . S
C614 C131 1.643 . S
C625 C88 1.646 . S
C630 C40 1.646 . S
C641 C92 1.635 . S
C646 C55 1.588 . S
C657 C70 1.628 . S
C662 C114 1.601 . S
C673 C75 1.663 . S
C678 C192 1.666 . S
C689 C42 1.588 . S
C694 C161 1.588 . S
C705 C53 1.637 . S
C710 C179 1.638 . S
C721 C109 1.618 . S
C726 C231 1.616 . S
C737 C83 1.579 . S
C742 C198 1.578 . S
C753 C209 1.619 . S
C758 C94 1.604 . S
C769 C166 1.622 . S
C774 C122 1.614 . S
C785 C174 1.564 . S
C790 C133 1.565 . S
C801 C187 1.598 . S
C806 C148 1.590 . S
