# Generated by pormake.
# Topology wse, (4)-cn, num edge types: 1
# Building blocks:
#     Node 0, Type 0, BuildingBlock: GALJAG_clean_sbu_0, # of connection points: 4
#     Node 1, Type 0, BuildingBlock: GALJAG_clean_sbu_0, # of connection points: 4
#     Node 2, Type 0, BuildingBlock: GALJAG_clean_sbu_0, # of connection points: 4
#     Node 3, Type 0, BuildingBlock: GALJAG_clean_sbu_0, # of connection points: 4
#     Node 4, Type 0, BuildingBlock: GALJAG_clean_sbu_0, # of connection points: 4
#     Node 5, Type 0, BuildingBlock: GALJAG_clean_sbu_0, # of connection points: 4
#     Node 6, Type 0, BuildingBlock: GALJAG_clean_sbu_0, # of connection points: 4
#     Node 7, Type 0, BuildingBlock: GALJAG_clean_sbu_0, # of connection points: 4
#     Node 8, Type 0, BuildingBlock: GALJAG_clean_sbu_0, # of connection points: 4
#     Node 9, Type 0, BuildingBlock: GALJAG_clean_sbu_0, # of connection points: 4
#     Node 10, Type 0, BuildingBlock: GALJAG_clean_sbu_0, # of connection points: 4
#     Node 11, Type 0, BuildingBlock: GALJAG_clean_sbu_0, # of connection points: 4
#     Node 12, Type 0, BuildingBlock: GALJAG_clean_sbu_0, # of connection points: 4
#     Node 13, Type 0, BuildingBlock: GALJAG_clean_sbu_0, # of connection points: 4
#     Node 14, Type 0, BuildingBlock: GALJAG_clean_sbu_0, # of connection points: 4
#     Node 15, Type 0, BuildingBlock: GALJAG_clean_sbu_0, # of connection points: 4
#     Node 16, Type 0, BuildingBlock: GALJAG_clean_sbu_0, # of connection points: 4
#     Node 17, Type 0, BuildingBlock: GALJAG_clean_sbu_0, # of connection points: 4
#     Node 18, Type 0, BuildingBlock: GALJAG_clean_sbu_0, # of connection points: 4
#     Node 19, Type 0, BuildingBlock: GALJAG_clean_sbu_0, # of connection points: 4
#     Node 20, Type 0, BuildingBlock: GALJAG_clean_sbu_0, # of connection points: 4
#     Node 21, Type 0, BuildingBlock: GALJAG_clean_sbu_0, # of connection points: 4
#     Node 22, Type 0, BuildingBlock: GALJAG_clean_sbu_0, # of connection points: 4
#     Node 23, Type 0, BuildingBlock: GALJAG_clean_sbu_0, # of connection points: 4
#     Node 24, Type 0, BuildingBlock: GALJAG_clean_sbu_0, # of connection points: 4
#     Node 25, Type 0, BuildingBlock: GALJAG_clean_sbu_0, # of connection points: 4
#     Node 26, Type 0, BuildingBlock: GALJAG_clean_sbu_0, # of connection points: 4
#     Node 27, Type 0, BuildingBlock: GALJAG_clean_sbu_0, # of connection points: 4
#     Node 28, Type 0, BuildingBlock: GALJAG_clean_sbu_0, # of connection points: 4
#     Node 29, Type 0, BuildingBlock: GALJAG_clean_sbu_0, # of connection points: 4
#     Node 30, Type 0, BuildingBlock: GALJAG_clean_sbu_0, # of connection points: 4
#     Node 31, Type 0, BuildingBlock: GALJAG_clean_sbu_0, # of connection points: 4
#     Node 32, Type 0, BuildingBlock: GALJAG_clean_sbu_0, # of connection points: 4
#     Node 33, Type 0, BuildingBlock: GALJAG_clean_sbu_0, # of connection points: 4
#     Node 34, Type 0, BuildingBlock: GALJAG_clean_sbu_0, # of connection points: 4
#     Node 35, Type 0, BuildingBlock: GALJAG_clean_sbu_0, # of connection points: 4
#     Node 36, Type 0, BuildingBlock: GALJAG_clean_sbu_0, # of connection points: 4
#     Node 37, Type 0, BuildingBlock: GALJAG_clean_sbu_0, # of connection points: 4
#     Node 38, Type 0, BuildingBlock: GALJAG_clean_sbu_0, # of connection points: 4
#     Node 39, Type 0, BuildingBlock: GALJAG_clean_sbu_0, # of connection points: 4
#     Node 40, Type 0, BuildingBlock: GALJAG_clean_sbu_0, # of connection points: 4
#     Node 41, Type 0, BuildingBlock: GALJAG_clean_sbu_0, # of connection points: 4
#     Node 42, Type 0, BuildingBlock: GALJAG_clean_sbu_0, # of connection points: 4
#     Node 43, Type 0, BuildingBlock: GALJAG_clean_sbu_0, # of connection points: 4
#     Node 44, Type 0, BuildingBlock: GALJAG_clean_sbu_0, # of connection points: 4
#     Node 45, Type 0, BuildingBlock: GALJAG_clean_sbu_0, # of connection points: 4
#     Node 46, Type 0, BuildingBlock: GALJAG_clean_sbu_0, # of connection points: 4
#     Node 47, Type 0, BuildingBlock: GALJAG_clean_sbu_0, # of connection points: 4
#     Node 48, Type 0, BuildingBlock: GALJAG_clean_sbu_0, # of connection points: 4
#     Node 49, Type 0, BuildingBlock: GALJAG_clean_sbu_0, # of connection points: 4
#     Node 50, Type 0, BuildingBlock: GALJAG_clean_sbu_0, # of connection points: 4
#     Node 51, Type 0, BuildingBlock: GALJAG_clean_sbu_0, # of connection points: 4
#     Node 52, Type 0, BuildingBlock: GALJAG_clean_sbu_0, # of connection points: 4
#     Node 53, Type 0, BuildingBlock: GALJAG_clean_sbu_0, # of connection points: 4
#     Node 54, Type 0, BuildingBlock: GALJAG_clean_sbu_0, # of connection points: 4
#     Node 55, Type 0, BuildingBlock: GALJAG_clean_sbu_0, # of connection points: 4
#     Node 56, Type 0, BuildingBlock: GALJAG_clean_sbu_0, # of connection points: 4
#     Node 57, Type 0, BuildingBlock: GALJAG_clean_sbu_0, # of connection points: 4
#     Node 58, Type 0, BuildingBlock: GALJAG_clean_sbu_0, # of connection points: 4
#     Node 59, Type 0, BuildingBlock: GALJAG_clean_sbu_0, # of connection points: 4
#     Node 60, Type 0, BuildingBlock: GALJAG_clean_sbu_0, # of connection points: 4
#     Node 61, Type 0, BuildingBlock: GALJAG_clean_sbu_0, # of connection points: 4
#     Node 62, Type 0, BuildingBlock: GALJAG_clean_sbu_0, # of connection points: 4
#     Node 63, Type 0, BuildingBlock: GALJAG_clean_sbu_0, # of connection points: 4
#     Node 64, Type 0, BuildingBlock: GALJAG_clean_sbu_0, # of connection points: 4
#     Node 65, Type 0, BuildingBlock: GALJAG_clean_sbu_0, # of connection points: 4
#     Node 66, Type 0, BuildingBlock: GALJAG_clean_sbu_0, # of connection points: 4
#     Node 67, Type 0, BuildingBlock: GALJAG_clean_sbu_0, # of connection points: 4
#     Node 68, Type 0, BuildingBlock: GALJAG_clean_sbu_0, # of connection points: 4
#     Node 69, Type 0, BuildingBlock: GALJAG_clean_sbu_0, # of connection points: 4
#     Node 70, Type 0, BuildingBlock: GALJAG_clean_sbu_0, # of connection points: 4
#     Node 71, Type 0, BuildingBlock: GALJAG_clean_sbu_0, # of connection points: 4
#     Node 72, Type 0, BuildingBlock: GALJAG_clean_sbu_0, # of connection points: 4
#     Node 73, Type 0, BuildingBlock: GALJAG_clean_sbu_0, # of connection points: 4
#     Node 74, Type 0, BuildingBlock: GALJAG_clean_sbu_0, # of connection points: 4
#     Node 75, Type 0, BuildingBlock: GALJAG_clean_sbu_0, # of connection points: 4
#     Node 76, Type 0, BuildingBlock: GALJAG_clean_sbu_0, # of connection points: 4
#     Node 77, Type 0, BuildingBlock: GALJAG_clean_sbu_0, # of connection points: 4
#     Node 78, Type 0, BuildingBlock: GALJAG_clean_sbu_0, # of connection points: 4
#     Node 79, Type 0, BuildingBlock: GALJAG_clean_sbu_0, # of connection points: 4
#     Node 80, Type 0, BuildingBlock: GALJAG_clean_sbu_0, # of connection points: 4
#     Node 81, Type 0, BuildingBlock: GALJAG_clean_sbu_0, # of connection points: 4
#     Node 82, Type 0, BuildingBlock: GALJAG_clean_sbu_0, # of connection points: 4
#     Node 83, Type 0, BuildingBlock: GALJAG_clean_sbu_0, # of connection points: 4
#     Node 84, Type 0, BuildingBlock: GALJAG_clean_sbu_0, # of connection points: 4
#     Node 85, Type 0, BuildingBlock: GALJAG_clean_sbu_0, # of connection points: 4
#     Node 86, Type 0, BuildingBlock: GALJAG_clean_sbu_0, # of connection points: 4
#     Node 87, Type 0, BuildingBlock: GALJAG_clean_sbu_0, # of connection points: 4
#     Node 88, Type 0, BuildingBlock: GALJAG_clean_sbu_0, # of connection points: 4
#     Node 89, Type 0, BuildingBlock: GALJAG_clean_sbu_0, # of connection points: 4
#     Node 90, Type 0, BuildingBlock: GALJAG_clean_sbu_0, # of connection points: 4
#     Node 91, Type 0, BuildingBlock: GALJAG_clean_sbu_0, # of connection points: 4
#     Node 92, Type 0, BuildingBlock: GALJAG_clean_sbu_0, # of connection points: 4
#     Node 93, Type 0, BuildingBlock: GALJAG_clean_sbu_0, # of connection points: 4
#     Node 94, Type 0, BuildingBlock: GALJAG_clean_sbu_0, # of connection points: 4
#     Node 95, Type 0, BuildingBlock: GALJAG_clean_sbu_0, # of connection points: 4
#     Edge 96, Type (0, 0), BuildingBlock: XIVTED_clean_linker_0, # of connection points: 2
#     Edge 97, Type (0, 0), BuildingBlock: XIVTED_clean_linker_0, # of connection points: 2
#     Edge 98, Type (0, 0), BuildingBlock: XIVTED_clean_linker_0, # of connection points: 2
#     Edge 99, Type (0, 0), BuildingBlock: XIVTED_clean_linker_0, # of connection points: 2
#     Edge 100, Type (0, 0), BuildingBlock: XIVTED_clean_linker_0, # of connection points: 2
#     Edge 101, Type (0, 0), BuildingBlock: XIVTED_clean_linker_0, # of connection points: 2
#     Edge 102, Type (0, 0), BuildingBlock: XIVTED_clean_linker_0, # of connection points: 2
#     Edge 103, Type (0, 0), BuildingBlock: XIVTED_clean_linker_0, # of connection points: 2
#     Edge 104, Type (0, 0), BuildingBlock: XIVTED_clean_linker_0, # of connection points: 2
#     Edge 105, Type (0, 0), BuildingBlock: XIVTED_clean_linker_0, # of connection points: 2
#     Edge 106, Type (0, 0), BuildingBlock: XIVTED_clean_linker_0, # of connection points: 2
#     Edge 107, Type (0, 0), BuildingBlock: XIVTED_clean_linker_0, # of connection points: 2
#     Edge 108, Type (0, 0), BuildingBlock: XIVTED_clean_linker_0, # of connection points: 2
#     Edge 109, Type (0, 0), BuildingBlock: XIVTED_clean_linker_0, # of connection points: 2
#     Edge 110, Type (0, 0), BuildingBlock: XIVTED_clean_linker_0, # of connection points: 2
#     Edge 111, Type (0, 0), BuildingBlock: XIVTED_clean_linker_0, # of connection points: 2
#     Edge 112, Type (0, 0), BuildingBlock: XIVTED_clean_linker_0, # of connection points: 2
#     Edge 113, Type (0, 0), BuildingBlock: XIVTED_clean_linker_0, # of connection points: 2
#     Edge 114, Type (0, 0), BuildingBlock: XIVTED_clean_linker_0, # of connection points: 2
#     Edge 115, Type (0, 0), BuildingBlock: XIVTED_clean_linker_0, # of connection points: 2
#     Edge 116, Type (0, 0), BuildingBlock: XIVTED_clean_linker_0, # of connection points: 2
#     Edge 117, Type (0, 0), BuildingBlock: XIVTED_clean_linker_0, # of connection points: 2
#     Edge 118, Type (0, 0), BuildingBlock: XIVTED_clean_linker_0, # of connection points: 2
#     Edge 119, Type (0, 0), BuildingBlock: XIVTED_clean_linker_0, # of connection points: 2
#     Edge 120, Type (0, 0), BuildingBlock: XIVTED_clean_linker_0, # of connection points: 2
#     Edge 121, Type (0, 0), BuildingBlock: XIVTED_clean_linker_0, # of connection points: 2
#     Edge 122, Type (0, 0), BuildingBlock: XIVTED_clean_linker_0, # of connection points: 2
#     Edge 123, Type (0, 0), BuildingBlock: XIVTED_clean_linker_0, # of connection points: 2
#     Edge 124, Type (0, 0), BuildingBlock: XIVTED_clean_linker_0, # of connection points: 2
#     Edge 125, Type (0, 0), BuildingBlock: XIVTED_clean_linker_0, # of connection points: 2
#     Edge 126, Type (0, 0), BuildingBlock: XIVTED_clean_linker_0, # of connection points: 2
#     Edge 127, Type (0, 0), BuildingBlock: XIVTED_clean_linker_0, # of connection points: 2
#     Edge 128, Type (0, 0), BuildingBlock: XIVTED_clean_linker_0, # of connection points: 2
#     Edge 129, Type (0, 0), BuildingBlock: XIVTED_clean_linker_0, # of connection points: 2
#     Edge 130, Type (0, 0), BuildingBlock: XIVTED_clean_linker_0, # of connection points: 2
#     Edge 131, Type (0, 0), BuildingBlock: XIVTED_clean_linker_0, # of connection points: 2
#     Edge 132, Type (0, 0), BuildingBlock: XIVTED_clean_linker_0, # of connection points: 2
#     Edge 133, Type (0, 0), BuildingBlock: XIVTED_clean_linker_0, # of connection points: 2
#     Edge 134, Type (0, 0), BuildingBlock: XIVTED_clean_linker_0, # of connection points: 2
#     Edge 135, Type (0, 0), BuildingBlock: XIVTED_clean_linker_0, # of connection points: 2
#     Edge 136, Type (0, 0), BuildingBlock: XIVTED_clean_linker_0, # of connection points: 2
#     Edge 137, Type (0, 0), BuildingBlock: XIVTED_clean_linker_0, # of connection points: 2
#     Edge 138, Type (0, 0), BuildingBlock: XIVTED_clean_linker_0, # of connection points: 2
#     Edge 139, Type (0, 0), BuildingBlock: XIVTED_clean_linker_0, # of connection points: 2
#     Edge 140, Type (0, 0), BuildingBlock: XIVTED_clean_linker_0, # of connection points: 2
#     Edge 141, Type (0, 0), BuildingBlock: XIVTED_clean_linker_0, # of connection points: 2
#     Edge 142, Type (0, 0), BuildingBlock: XIVTED_clean_linker_0, # of connection points: 2
#     Edge 143, Type (0, 0), BuildingBlock: XIVTED_clean_linker_0, # of connection points: 2
#     Edge 144, Type (0, 0), BuildingBlock: XIVTED_clean_linker_0, # of connection points: 2
#     Edge 145, Type (0, 0), BuildingBlock: XIVTED_clean_linker_0, # of connection points: 2
#     Edge 146, Type (0, 0), BuildingBlock: XIVTED_clean_linker_0, # of connection points: 2
#     Edge 147, Type (0, 0), BuildingBlock: XIVTED_clean_linker_0, # of connection points: 2
#     Edge 148, Type (0, 0), BuildingBlock: XIVTED_clean_linker_0, # of connection points: 2
#     Edge 149, Type (0, 0), BuildingBlock: XIVTED_clean_linker_0, # of connection points: 2
#     Edge 150, Type (0, 0), BuildingBlock: XIVTED_clean_linker_0, # of connection points: 2
#     Edge 151, Type (0, 0), BuildingBlock: XIVTED_clean_linker_0, # of connection points: 2
#     Edge 152, Type (0, 0), BuildingBlock: XIVTED_clean_linker_0, # of connection points: 2
#     Edge 153, Type (0, 0), BuildingBlock: XIVTED_clean_linker_0, # of connection points: 2
#     Edge 154, Type (0, 0), BuildingBlock: XIVTED_clean_linker_0, # of connection points: 2
#     Edge 155, Type (0, 0), BuildingBlock: XIVTED_clean_linker_0, # of connection points: 2
#     Edge 156, Type (0, 0), BuildingBlock: XIVTED_clean_linker_0, # of connection points: 2
#     Edge 157, Type (0, 0), BuildingBlock: XIVTED_clean_linker_0, # of connection points: 2
#     Edge 158, Type (0, 0), BuildingBlock: XIVTED_clean_linker_0, # of connection points: 2
#     Edge 159, Type (0, 0), BuildingBlock: XIVTED_clean_linker_0, # of connection points: 2
#     Edge 160, Type (0, 0), BuildingBlock: XIVTED_clean_linker_0, # of connection points: 2
#     Edge 161, Type (0, 0), BuildingBlock: XIVTED_clean_linker_0, # of connection points: 2
#     Edge 162, Type (0, 0), BuildingBlock: XIVTED_clean_linker_0, # of connection points: 2
#     Edge 163, Type (0, 0), BuildingBlock: XIVTED_clean_linker_0, # of connection points: 2
#     Edge 164, Type (0, 0), BuildingBlock: XIVTED_clean_linker_0, # of connection points: 2
#     Edge 165, Type (0, 0), BuildingBlock: XIVTED_clean_linker_0, # of connection points: 2
#     Edge 166, Type (0, 0), BuildingBlock: XIVTED_clean_linker_0, # of connection points: 2
#     Edge 167, Type (0, 0), BuildingBlock: XIVTED_clean_linker_0, # of connection points: 2
#     Edge 168, Type (0, 0), BuildingBlock: XIVTED_clean_linker_0, # of connection points: 2
#     Edge 169, Type (0, 0), BuildingBlock: XIVTED_clean_linker_0, # of connection points: 2
#     Edge 170, Type (0, 0), BuildingBlock: XIVTED_clean_linker_0, # of connection points: 2
#     Edge 171, Type (0, 0), BuildingBlock: XIVTED_clean_linker_0, # of connection points: 2
#     Edge 172, Type (0, 0), BuildingBlock: XIVTED_clean_linker_0, # of connection points: 2
#     Edge 173, Type (0, 0), BuildingBlock: XIVTED_clean_linker_0, # of connection points: 2
#     Edge 174, Type (0, 0), BuildingBlock: XIVTED_clean_linker_0, # of connection points: 2
#     Edge 175, Type (0, 0), BuildingBlock: XIVTED_clean_linker_0, # of connection points: 2
#     Edge 176, Type (0, 0), BuildingBlock: XIVTED_clean_linker_0, # of connection points: 2
#     Edge 177, Type (0, 0), BuildingBlock: XIVTED_clean_linker_0, # of connection points: 2
#     Edge 178, Type (0, 0), BuildingBlock: XIVTED_clean_linker_0, # of connection points: 2
#     Edge 179, Type (0, 0), BuildingBlock: XIVTED_clean_linker_0, # of connection points: 2
#     Edge 180, Type (0, 0), BuildingBlock: XIVTED_clean_linker_0, # of connection points: 2
#     Edge 181, Type (0, 0), BuildingBlock: XIVTED_clean_linker_0, # of connection points: 2
#     Edge 182, Type (0, 0), BuildingBlock: XIVTED_clean_linker_0, # of connection points: 2
#     Edge 183, Type (0, 0), BuildingBlock: XIVTED_clean_linker_0, # of connection points: 2
#     Edge 184, Type (0, 0), BuildingBlock: XIVTED_clean_linker_0, # of connection points: 2
#     Edge 185, Type (0, 0), BuildingBlock: XIVTED_clean_linker_0, # of connection points: 2
#     Edge 186, Type (0, 0), BuildingBlock: XIVTED_clean_linker_0, # of connection points: 2
#     Edge 187, Type (0, 0), BuildingBlock: XIVTED_clean_linker_0, # of connection points: 2
#     Edge 188, Type (0, 0), BuildingBlock: XIVTED_clean_linker_0, # of connection points: 2
#     Edge 189, Type (0, 0), BuildingBlock: XIVTED_clean_linker_0, # of connection points: 2
#     Edge 190, Type (0, 0), BuildingBlock: XIVTED_clean_linker_0, # of connection points: 2
#     Edge 191, Type (0, 0), BuildingBlock: XIVTED_clean_linker_0, # of connection points: 2
#     Edge 192, Type (0, 0), BuildingBlock: XIVTED_clean_linker_0, # of connection points: 2
#     Edge 193, Type (0, 0), BuildingBlock: XIVTED_clean_linker_0, # of connection points: 2
#     Edge 194, Type (0, 0), BuildingBlock: XIVTED_clean_linker_0, # of connection points: 2
#     Edge 195, Type (0, 0), BuildingBlock: XIVTED_clean_linker_0, # of connection points: 2
#     Edge 196, Type (0, 0), BuildingBlock: XIVTED_clean_linker_0, # of connection points: 2
#     Edge 197, Type (0, 0), BuildingBlock: XIVTED_clean_linker_0, # of connection points: 2
#     Edge 198, Type (0, 0), BuildingBlock: XIVTED_clean_linker_0, # of connection points: 2
#     Edge 199, Type (0, 0), BuildingBlock: XIVTED_clean_linker_0, # of connection points: 2
#     Edge 200, Type (0, 0), BuildingBlock: XIVTED_clean_linker_0, # of connection points: 2
#     Edge 201, Type (0, 0), BuildingBlock: XIVTED_clean_linker_0, # of connection points: 2
#     Edge 202, Type (0, 0), BuildingBlock: XIVTED_clean_linker_0, # of connection points: 2
#     Edge 203, Type (0, 0), BuildingBlock: XIVTED_clean_linker_0, # of connection points: 2
#     Edge 204, Type (0, 0), BuildingBlock: XIVTED_clean_linker_0, # of connection points: 2
#     Edge 205, Type (0, 0), BuildingBlock: XIVTED_clean_linker_0, # of connection points: 2
#     Edge 206, Type (0, 0), BuildingBlock: XIVTED_clean_linker_0, # of connection points: 2
#     Edge 207, Type (0, 0), BuildingBlock: XIVTED_clean_linker_0, # of connection points: 2
#     Edge 208, Type (0, 0), BuildingBlock: XIVTED_clean_linker_0, # of connection points: 2
#     Edge 209, Type (0, 0), BuildingBlock: XIVTED_clean_linker_0, # of connection points: 2
#     Edge 210, Type (0, 0), BuildingBlock: XIVTED_clean_linker_0, # of connection points: 2
#     Edge 211, Type (0, 0), BuildingBlock: XIVTED_clean_linker_0, # of connection points: 2
#     Edge 212, Type (0, 0), BuildingBlock: XIVTED_clean_linker_0, # of connection points: 2
#     Edge 213, Type (0, 0), BuildingBlock: XIVTED_clean_linker_0, # of connection points: 2
#     Edge 214, Type (0, 0), BuildingBlock: XIVTED_clean_linker_0, # of connection points: 2
#     Edge 215, Type (0, 0), BuildingBlock: XIVTED_clean_linker_0, # of connection points: 2
#     Edge 216, Type (0, 0), BuildingBlock: XIVTED_clean_linker_0, # of connection points: 2
#     Edge 217, Type (0, 0), BuildingBlock: XIVTED_clean_linker_0, # of connection points: 2
#     Edge 218, Type (0, 0), BuildingBlock: XIVTED_clean_linker_0, # of connection points: 2
#     Edge 219, Type (0, 0), BuildingBlock: XIVTED_clean_linker_0, # of connection points: 2
#     Edge 220, Type (0, 0), BuildingBlock: XIVTED_clean_linker_0, # of connection points: 2
#     Edge 221, Type (0, 0), BuildingBlock: XIVTED_clean_linker_0, # of connection points: 2
#     Edge 222, Type (0, 0), BuildingBlock: XIVTED_clean_linker_0, # of connection points: 2
#     Edge 223, Type (0, 0), BuildingBlock: XIVTED_clean_linker_0, # of connection points: 2
#     Edge 224, Type (0, 0), BuildingBlock: XIVTED_clean_linker_0, # of connection points: 2
#     Edge 225, Type (0, 0), BuildingBlock: XIVTED_clean_linker_0, # of connection points: 2
#     Edge 226, Type (0, 0), BuildingBlock: XIVTED_clean_linker_0, # of connection points: 2
#     Edge 227, Type (0, 0), BuildingBlock: XIVTED_clean_linker_0, # of connection points: 2
#     Edge 228, Type (0, 0), BuildingBlock: XIVTED_clean_linker_0, # of connection points: 2
#     Edge 229, Type (0, 0), BuildingBlock: XIVTED_clean_linker_0, # of connection points: 2
#     Edge 230, Type (0, 0), BuildingBlock: XIVTED_clean_linker_0, # of connection points: 2
#     Edge 231, Type (0, 0), BuildingBlock: XIVTED_clean_linker_0, # of connection points: 2
#     Edge 232, Type (0, 0), BuildingBlock: XIVTED_clean_linker_0, # of connection points: 2
#     Edge 233, Type (0, 0), BuildingBlock: XIVTED_clean_linker_0, # of connection points: 2
#     Edge 234, Type (0, 0), BuildingBlock: XIVTED_clean_linker_0, # of connection points: 2
#     Edge 235, Type (0, 0), BuildingBlock: XIVTED_clean_linker_0, # of connection points: 2
#     Edge 236, Type (0, 0), BuildingBlock: XIVTED_clean_linker_0, # of connection points: 2
#     Edge 237, Type (0, 0), BuildingBlock: XIVTED_clean_linker_0, # of connection points: 2
#     Edge 238, Type (0, 0), BuildingBlock: XIVTED_clean_linker_0, # of connection points: 2
#     Edge 239, Type (0, 0), BuildingBlock: XIVTED_clean_linker_0, # of connection points: 2
#     Edge 240, Type (0, 0), BuildingBlock: XIVTED_clean_linker_0, # of connection points: 2
#     Edge 241, Type (0, 0), BuildingBlock: XIVTED_clean_linker_0, # of connection points: 2
#     Edge 242, Type (0, 0), BuildingBlock: XIVTED_clean_linker_0, # of connection points: 2
#     Edge 243, Type (0, 0), BuildingBlock: XIVTED_clean_linker_0, # of connection points: 2
#     Edge 244, Type (0, 0), BuildingBlock: XIVTED_clean_linker_0, # of connection points: 2
#     Edge 245, Type (0, 0), BuildingBlock: XIVTED_clean_linker_0, # of connection points: 2
#     Edge 246, Type (0, 0), BuildingBlock: XIVTED_clean_linker_0, # of connection points: 2
#     Edge 247, Type (0, 0), BuildingBlock: XIVTED_clean_linker_0, # of connection points: 2
#     Edge 248, Type (0, 0), BuildingBlock: XIVTED_clean_linker_0, # of connection points: 2
#     Edge 249, Type (0, 0), BuildingBlock: XIVTED_clean_linker_0, # of connection points: 2
#     Edge 250, Type (0, 0), BuildingBlock: XIVTED_clean_linker_0, # of connection points: 2
#     Edge 251, Type (0, 0), BuildingBlock: XIVTED_clean_linker_0, # of connection points: 2
#     Edge 252, Type (0, 0), BuildingBlock: XIVTED_clean_linker_0, # of connection points: 2
#     Edge 253, Type (0, 0), BuildingBlock: XIVTED_clean_linker_0, # of connection points: 2
#     Edge 254, Type (0, 0), BuildingBlock: XIVTED_clean_linker_0, # of connection points: 2
#     Edge 255, Type (0, 0), BuildingBlock: XIVTED_clean_linker_0, # of connection points: 2
#     Edge 256, Type (0, 0), BuildingBlock: XIVTED_clean_linker_0, # of connection points: 2
#     Edge 257, Type (0, 0), BuildingBlock: XIVTED_clean_linker_0, # of connection points: 2
#     Edge 258, Type (0, 0), BuildingBlock: XIVTED_clean_linker_0, # of connection points: 2
#     Edge 259, Type (0, 0), BuildingBlock: XIVTED_clean_linker_0, # of connection points: 2
#     Edge 260, Type (0, 0), BuildingBlock: XIVTED_clean_linker_0, # of connection points: 2
#     Edge 261, Type (0, 0), BuildingBlock: XIVTED_clean_linker_0, # of connection points: 2
#     Edge 262, Type (0, 0), BuildingBlock: XIVTED_clean_linker_0, # of connection points: 2
#     Edge 263, Type (0, 0), BuildingBlock: XIVTED_clean_linker_0, # of connection points: 2
#     Edge 264, Type (0, 0), BuildingBlock: XIVTED_clean_linker_0, # of connection points: 2
#     Edge 265, Type (0, 0), BuildingBlock: XIVTED_clean_linker_0, # of connection points: 2
#     Edge 266, Type (0, 0), BuildingBlock: XIVTED_clean_linker_0, # of connection points: 2
#     Edge 267, Type (0, 0), BuildingBlock: XIVTED_clean_linker_0, # of connection points: 2
#     Edge 268, Type (0, 0), BuildingBlock: XIVTED_clean_linker_0, # of connection points: 2
#     Edge 269, Type (0, 0), BuildingBlock: XIVTED_clean_linker_0, # of connection points: 2
#     Edge 270, Type (0, 0), BuildingBlock: XIVTED_clean_linker_0, # of connection points: 2
#     Edge 271, Type (0, 0), BuildingBlock: XIVTED_clean_linker_0, # of connection points: 2
#     Edge 272, Type (0, 0), BuildingBlock: XIVTED_clean_linker_0, # of connection points: 2
#     Edge 273, Type (0, 0), BuildingBlock: XIVTED_clean_linker_0, # of connection points: 2
#     Edge 274, Type (0, 0), BuildingBlock: XIVTED_clean_linker_0, # of connection points: 2
#     Edge 275, Type (0, 0), BuildingBlock: XIVTED_clean_linker_0, # of connection points: 2
#     Edge 276, Type (0, 0), BuildingBlock: XIVTED_clean_linker_0, # of connection points: 2
#     Edge 277, Type (0, 0), BuildingBlock: XIVTED_clean_linker_0, # of connection points: 2
#     Edge 278, Type (0, 0), BuildingBlock: XIVTED_clean_linker_0, # of connection points: 2
#     Edge 279, Type (0, 0), BuildingBlock: XIVTED_clean_linker_0, # of connection points: 2
#     Edge 280, Type (0, 0), BuildingBlock: XIVTED_clean_linker_0, # of connection points: 2
#     Edge 281, Type (0, 0), BuildingBlock: XIVTED_clean_linker_0, # of connection points: 2
#     Edge 282, Type (0, 0), BuildingBlock: XIVTED_clean_linker_0, # of connection points: 2
#     Edge 283, Type (0, 0), BuildingBlock: XIVTED_clean_linker_0, # of connection points: 2
#     Edge 284, Type (0, 0), BuildingBlock: XIVTED_clean_linker_0, # of connection points: 2
#     Edge 285, Type (0, 0), BuildingBlock: XIVTED_clean_linker_0, # of connection points: 2
#     Edge 286, Type (0, 0), BuildingBlock: XIVTED_clean_linker_0, # of connection points: 2
#     Edge 287, Type (0, 0), BuildingBlock: XIVTED_clean_linker_0, # of connection points: 2
# Relax obj value: 0.339
# Max RMSD: 0.171
# Mean RMSD: 0.167
data_MOF--net-wse--node1-GALJAG_clean_sbu_0--edge1-XIVTED_clean_linker_0
_symmetry_space_group_name_H-M    P1
_symmetry_Int_Tables_number       1
_symmetry_cell_setting            triclinic
loop_
_symmetry_equiv_pos_as_xyz
'x, y, z'
_cell_length_a     100.95175
_cell_length_b     100.97567
_cell_length_c     100.96574
_cell_angle_alpha  89.98124
_cell_angle_beta   89.992752
_cell_angle_gamma 89.987737
loop_
_atom_site_label
_atom_site_type_symbol
_atom_site_fract_x
_atom_site_fract_y
_atom_site_fract_z
_atom_type_partial_charge
In0 In 0.07893 0.17728 0.4219 0.0
O1 O 0.06051 0.17253 0.40952 0.0
O2 O 0.05891 0.187 0.42475 0.0
C3 C 0.09265 0.15732 0.41038 0.0
C4 C 0.08797 0.2016 0.41552 0.0
C5 C 0.07987 0.17105 0.44798 0.0
O6 O 0.08128 0.15583 0.41524 0.0
O7 O 0.09703 0.16899 0.41099 0.0
O8 O 0.08943 0.17647 0.44206 0.0
O9 O 0.06999 0.16868 0.44075 0.0
C10 C 0.05317 0.18053 0.41574 0.0
O11 O 0.08943 0.19655 0.42685 0.0
O12 O 0.0822 0.19423 0.4072 0.0
In13 In 0.82536 0.07892 0.42196 0.0
O14 O 0.8274 0.05951 0.41024 0.0
O15 O 0.82463 0.05843 0.43108 0.0
C16 C 0.84468 0.09279 0.40958 0.0
C17 C 0.8012 0.08573 0.41276 0.0
C18 C 0.82809 0.08371 0.44816 0.0
O19 O 0.84618 0.08101 0.41337 0.0
O20 O 0.83332 0.09748 0.41168 0.0
O21 O 0.81699 0.08337 0.44245 0.0
O22 O 0.83788 0.0818 0.44063 0.0
C23 C 0.82634 0.05226 0.42038 0.0
O24 O 0.8072 0.09229 0.42153 0.0
O25 O 0.80755 0.07593 0.40831 0.0
In26 In 0.91996 0.82486 0.42019 0.0
O27 O 0.93844 0.83756 0.42169 0.0
O28 O 0.93911 0.82108 0.40861 0.0
C29 C 0.90287 0.84142 0.4077 0.0
C30 C 0.91429 0.79926 0.41498 0.0
C31 C 0.92001 0.82718 0.44687 0.0
O32 O 0.9149 0.84415 0.40941 0.0
O33 O 0.89952 0.83018 0.41193 0.0
O34 O 0.91082 0.83187 0.43982 0.0
O35 O 0.92896 0.82127 0.4405 0.0
C36 C 0.9452 0.83074 0.4137 0.0
O37 O 0.91102 0.80493 0.42561 0.0
O38 O 0.92032 0.80655 0.4068 0.0
In39 In 0.17892 0.91793 0.42399 0.0
O40 O 0.19814 0.90648 0.42608 0.0
O41 O 0.19623 0.91907 0.40932 0.0
C42 C 0.1726 0.91373 0.44969 0.0
C43 C 0.18016 0.94459 0.42241 0.0
C44 C 0.16061 0.9031 0.41117 0.0
O45 O 0.18334 0.90988 0.44462 0.0
O46 O 0.16495 0.91962 0.44177 0.0
O47 O 0.15884 0.91513 0.41392 0.0
O48 O 0.1718 0.89867 0.41443 0.0
C49 C 0.20345 0.91116 0.4158 0.0
O50 O 0.17519 0.93762 0.41329 0.0
O51 O 0.18466 0.9381 0.43209 0.0
In52 In 0.07911 0.8227 0.57971 0.0
O53 O 0.09149 0.80377 0.579 0.0
O54 O 0.07479 0.80407 0.59178 0.0
C55 C 0.08211 0.82563 0.55324 0.0
C56 C 0.0529 0.82637 0.58348 0.0
C57 C 0.09505 0.84028 0.59229 0.0
O58 O 0.08064 0.81448 0.55868 0.0
O59 O 0.08216 0.83531 0.56113 0.0
O60 O 0.08291 0.84231 0.59037 0.0
O61 O 0.0991 0.8292 0.58827 0.0
C62 C 0.08438 0.79752 0.58715 0.0
O63 O 0.06062 0.82353 0.59291 0.0
O64 O 0.05838 0.82721 0.5723 0.0
In65 In 0.17667 0.08108 0.57738 0.0
O66 O 0.17359 0.06173 0.58898 0.0
O67 O 0.17964 0.06057 0.56884 0.0
C68 C 0.15873 0.09642 0.5902 0.0
C69 C 0.20163 0.08692 0.58498 0.0
C70 C 0.17132 0.08514 0.55145 0.0
O71 O 0.15649 0.08456 0.5871 0.0
O72 O 0.17016 0.10041 0.58723 0.0
O73 O 0.18205 0.0886 0.55679 0.0
O74 O 0.16312 0.07982 0.55923 0.0
C75 C 0.17641 0.05443 0.57922 0.0
O76 O 0.19594 0.09248 0.57536 0.0
O77 O 0.19461 0.07854 0.59107 0.0
In78 In 0.92173 0.1749 0.57879 0.0
O79 O 0.91349 0.1948 0.57242 0.0
O80 O 0.91823 0.19236 0.59281 0.0
C81 C 0.92268 0.17172 0.55216 0.0
C82 C 0.9468 0.1713 0.58739 0.0
C83 C 0.905 0.15755 0.5906 0.0
O84 O 0.91292 0.16801 0.559 0.0
O85 O 0.93186 0.17704 0.5587 0.0
O86 O 0.91712 0.15517 0.58891 0.0
O87 O 0.90137 0.16881 0.58666 0.0
C88 C 0.91389 0.1999 0.58382 0.0
O89 O 0.94031 0.16245 0.58143 0.0
O90 O 0.94052 0.18194 0.58934 0.0
In91 In 0.82504 0.92028 0.57688 0.0
O92 O 0.80452 0.92741 0.57139 0.0
O93 O 0.80603 0.91433 0.58784 0.0
C94 C 0.82967 0.91416 0.5512 0.0
C95 C 0.83148 0.94559 0.58244 0.0
C96 C 0.83959 0.902 0.59005 0.0
O97 O 0.81929 0.91071 0.5572 0.0
O98 O 0.83782 0.92051 0.55819 0.0
O99 O 0.84206 0.91421 0.59061 0.0
O100 O 0.82949 0.8991 0.58334 0.0
C101 C 0.79858 0.92103 0.58032 0.0
O102 O 0.82491 0.93855 0.59044 0.0
O103 O 0.83495 0.93976 0.57196 0.0
In104 In 0.41913 0.07771 0.1737 0.0
O105 O 0.43913 0.08618 0.16699 0.0
O106 O 0.43915 0.06904 0.17917 0.0
C107 C 0.41286 0.08361 0.19903 0.0
C108 C 0.40739 0.09431 0.15612 0.0
C109 C 0.41308 0.05247 0.1675 0.0
O110 O 0.42317 0.08784 0.1934 0.0
O111 O 0.40546 0.07658 0.19179 0.0
O112 O 0.42202 0.05899 0.16171 0.0
O113 O 0.40685 0.0588 0.17633 0.0
C114 C 0.44587 0.0774 0.1728 0.0
O115 O 0.4095 0.08228 0.15374 0.0
O116 O 0.41081 0.09794 0.16754 0.0
In117 In 0.91636 0.42048 0.17764 0.0
O118 O 0.90544 0.42295 0.19712 0.0
O119 O 0.91806 0.4062 0.19521 0.0
C120 C 0.91273 0.4462 0.17108 0.0
C121 C 0.943 0.41876 0.17855 0.0
C122 C 0.901 0.40762 0.1598 0.0
O123 O 0.90807 0.44116 0.18151 0.0
O124 O 0.919 0.43822 0.16382 0.0
O125 O 0.91304 0.41014 0.15776 0.0
O126 O 0.89684 0.41112 0.17102 0.0
C127 C 0.91034 0.41281 0.20251 0.0
O128 O 0.93595 0.40957 0.17379 0.0
O129 O 0.93658 0.42851 0.183 0.0
In130 In 0.57619 0.92106 0.17594 0.0
O131 O 0.55632 0.9291 0.18314 0.0
O132 O 0.55593 0.91412 0.16842 0.0
C133 C 0.5837 0.91406 0.20061 0.0
C134 C 0.58734 0.90415 0.15832 0.0
C135 C 0.58332 0.94623 0.1705 0.0
O136 O 0.57276 0.91063 0.19564 0.0
O137 O 0.59099 0.92085 0.19304 0.0
O138 O 0.57453 0.94013 0.16405 0.0
O139 O 0.58866 0.93958 0.17965 0.0
C140 C 0.54937 0.92186 0.17571 0.0
O141 O 0.58603 0.91634 0.1561 0.0
O142 O 0.58325 0.90049 0.16951 0.0
In143 In 0.07896 0.57695 0.17917 0.0
O144 O 0.09074 0.57495 0.19825 0.0
O145 O 0.07774 0.59143 0.19648 0.0
C146 C 0.07992 0.55018 0.17887 0.0
C147 C 0.05315 0.5812 0.17379 0.0
C148 C 0.09492 0.58984 0.16189 0.0
O149 O 0.08539 0.55717 0.17007 0.0
O150 O 0.07405 0.55668 0.18777 0.0
O151 O 0.08253 0.58951 0.16065 0.0
O152 O 0.09926 0.58386 0.17193 0.0
C153 C 0.08592 0.58516 0.20358 0.0
O154 O 0.06027 0.57339 0.16714 0.0
O155 O 0.05907 0.58701 0.18314 0.0
In156 In 0.42138 0.9242 0.8249 0.0
O157 O 0.41008 0.9174 0.84322 0.0
O158 O 0.41477 0.90287 0.82886 0.0
C159 C 0.40999 0.94778 0.83018 0.0
C160 C 0.44742 0.92412 0.83128 0.0
C161 C 0.42097 0.92165 0.79831 0.0
O162 O 0.41778 0.94199 0.83804 0.0
O163 O 0.40749 0.94144 0.81969 0.0
O164 O 0.43059 0.92649 0.80462 0.0
O165 O 0.41129 0.91809 0.80542 0.0
C166 C 0.40967 0.90538 0.83997 0.0
O167 O 0.44101 0.91358 0.82935 0.0
O168 O 0.4407 0.93455 0.83006 0.0
In169 In 0.07716 0.42396 0.82024 0.0
O170 O 0.09084 0.42544 0.80238 0.0
O171 O 0.07989 0.40762 0.80492 0.0
C172 C 0.0784 0.45081 0.81988 0.0
C173 C 0.05121 0.41734 0.82085 0.0
C174 C 0.09 0.41375 0.84131 0.0
O175 O 0.08714 0.4438 0.82537 0.0
O176 O 0.06916 0.44432 0.81463 0.0
O177 O 0.08025 0.42148 0.84241 0.0
O178 O 0.09314 0.41092 0.82955 0.0
C179 C 0.08784 0.41418 0.79783 0.0
O180 O 0.05828 0.41741 0.83115 0.0
O181 O 0.05729 0.4203 0.81037 0.0
In182 In 0.57764 0.08042 0.82182 0.0
O183 O 0.59212 0.08629 0.83834 0.0
O184 O 0.58078 0.10145 0.82936 0.0
C185 C 0.58381 0.05472 0.82627 0.0
C186 C 0.55093 0.0792 0.82378 0.0
C187 C 0.58468 0.08836 0.79734 0.0
O188 O 0.57766 0.06175 0.83455 0.0
O189 O 0.58698 0.06066 0.81576 0.0
O190 O 0.57387 0.09161 0.80271 0.0
O191 O 0.59218 0.0813 0.80447 0.0
C192 C 0.58921 0.09841 0.83801 0.0
O193 O 0.55707 0.07669 0.81321 0.0
O194 O 0.55822 0.08224 0.83344 0.0
In195 In 0.92089 0.57769 0.82425 0.0
O196 O 0.94017 0.58942 0.82673 0.0
O197 O 0.94114 0.56996 0.81866 0.0
C198 C 0.90663 0.59079 0.84283 0.0
C199 C 0.9142 0.584 0.79914 0.0
C200 C 0.91766 0.55212 0.8316 0.0
O201 O 0.91863 0.58782 0.84437 0.0
O202 O 0.90194 0.58759 0.83174 0.0
O203 O 0.91057 0.55759 0.82289 0.0
O204 O 0.92616 0.55962 0.83682 0.0
C205 C 0.94736 0.58015 0.82233 0.0
O206 O 0.91046 0.57351 0.80477 0.0
O207 O 0.92112 0.59158 0.80629 0.0
In208 In 0.17545 0.42535 0.07808 0.0
O209 O 0.17014 0.41353 0.05938 0.0
O210 O 0.18277 0.43032 0.05758 0.0
C211 C 0.1559 0.41426 0.09279 0.0
C212 C 0.19996 0.41702 0.08474 0.0
C213 C 0.17103 0.45175 0.08004 0.0
O214 O 0.15385 0.41951 0.08167 0.0
O215 O 0.16784 0.4143 0.09636 0.0
O216 O 0.17747 0.44543 0.08869 0.0
O217 O 0.16662 0.44472 0.07074 0.0
C218 C 0.1767 0.42106 0.0518 0.0
O219 O 0.19529 0.428 0.08845 0.0
O220 O 0.19215 0.41005 0.07791 0.0
In221 In 0.17472 0.57732 0.92341 0.0
O222 O 0.19307 0.57743 0.91028 0.0
O223 O 0.1933 0.58953 0.9275 0.0
C224 C 0.17593 0.55073 0.92048 0.0
C225 C 0.16886 0.58186 0.94907 0.0
C226 C 0.15613 0.58925 0.90817 0.0
O227 O 0.184 0.55718 0.92748 0.0
O228 O 0.16719 0.55769 0.91487 0.0
O229 O 0.15353 0.58388 0.91911 0.0
O230 O 0.16819 0.58891 0.90501 0.0
C231 C 0.19951 0.58534 0.91749 0.0
O232 O 0.16649 0.57102 0.94334 0.0
O233 O 0.17415 0.59058 0.94182 0.0
In234 In 0.42293 0.17504 0.92269 0.0
O235 O 0.41728 0.15364 0.91822 0.0
O236 O 0.4108 0.16838 0.90476 0.0
C237 C 0.41452 0.17695 0.948 0.0
C238 C 0.44916 0.1693 0.92289 0.0
C239 C 0.41814 0.19952 0.91332 0.0
O240 O 0.41121 0.16741 0.94062 0.0
O241 O 0.42179 0.1855 0.94253 0.0
O242 O 0.42935 0.19402 0.91252 0.0
O243 O 0.40921 0.19255 0.91864 0.0
C244 C 0.41128 0.15624 0.9076 0.0
O245 O 0.44305 0.1724 0.91246 0.0
O246 O 0.44206 0.169 0.93313 0.0
In247 In 0.8243 0.42087 0.92145 0.0
O248 O 0.80478 0.42729 0.91238 0.0
O249 O 0.80629 0.40735 0.91906 0.0
C250 C 0.82701 0.44752 0.92291 0.0
C251 C 0.82856 0.41211 0.94635 0.0
C252 C 0.84133 0.40899 0.90442 0.0
O253 O 0.83189 0.4408 0.91358 0.0
O254 O 0.82079 0.44082 0.93141 0.0
O255 O 0.84401 0.41096 0.91643 0.0
O256 O 0.82993 0.41273 0.90103 0.0
C257 C 0.79916 0.41623 0.91385 0.0
O258 O 0.83683 0.41904 0.94006 0.0
O259 O 0.81817 0.40932 0.93998 0.0
In260 In 0.57834 0.82123 0.91873 0.0
O261 O 0.55834 0.81173 0.92291 0.0
O262 O 0.55838 0.8298 0.91213 0.0
C263 C 0.58679 0.79673 0.91211 0.0
C264 C 0.5902 0.83941 0.90286 0.0
C265 C 0.58178 0.82661 0.94469 0.0
O266 O 0.57704 0.80229 0.90663 0.0
O267 O 0.59259 0.80368 0.92074 0.0
O268 O 0.58955 0.81909 0.93838 0.0
O269 O 0.57253 0.83148 0.93787 0.0
C270 C 0.55162 0.82056 0.91716 0.0
O271 O 0.58944 0.84072 0.91523 0.0
O272 O 0.58538 0.82876 0.89855 0.0
In273 In 0.82401 0.57749 0.077 0.0
O274 O 0.80481 0.57182 0.08724 0.0
O275 O 0.80686 0.59177 0.08077 0.0
C276 C 0.82941 0.55119 0.07723 0.0
C277 C 0.82217 0.58544 0.05156 0.0
C278 C 0.84339 0.589 0.09143 0.0
O279 O 0.82656 0.55754 0.0876 0.0
O280 O 0.82962 0.5581 0.06686 0.0
O281 O 0.84552 0.58323 0.08058 0.0
O282 O 0.8314 0.58927 0.09489 0.0
C283 C 0.79961 0.58313 0.0862 0.0
O284 O 0.83151 0.58914 0.05901 0.0
O285 O 0.81374 0.57802 0.05703 0.0
In286 In 0.42088 0.82333 0.07632 0.0
O287 O 0.41141 0.84377 0.07874 0.0
O288 O 0.41012 0.83048 0.09489 0.0
C289 C 0.41993 0.82262 0.04962 0.0
C290 C 0.44668 0.82851 0.08132 0.0
C291 C 0.41254 0.79888 0.0831 0.0
O292 O 0.41006 0.82611 0.05649 0.0
O293 O 0.43 0.81935 0.05622 0.0
O294 O 0.42168 0.80487 0.08913 0.0
O295 O 0.40727 0.80538 0.0738 0.0
C296 C 0.40764 0.84187 0.09047 0.0
O297 O 0.44137 0.81748 0.08376 0.0
O298 O 0.43894 0.83704 0.07648 0.0
In299 In 0.57731 0.17517 0.07732 0.0
O300 O 0.58804 0.15596 0.08274 0.0
O301 O 0.58318 0.16909 0.09833 0.0
C302 C 0.58614 0.17039 0.05254 0.0
C303 C 0.55067 0.17281 0.07544 0.0
C304 C 0.58245 0.20028 0.08483 0.0
O305 O 0.57836 0.16272 0.05859 0.0
O306 O 0.58972 0.18042 0.05909 0.0
O307 O 0.57112 0.19511 0.08564 0.0
O308 O 0.59135 0.19275 0.08029 0.0
C309 C 0.58819 0.15817 0.09501 0.0
O310 O 0.55728 0.16725 0.08447 0.0
O311 O 0.55748 0.1795 0.0674 0.0
In312 In 0.93077 0.82493 0.57167 0.0
O313 O 0.92556 0.80514 0.58155 0.0
O314 O 0.9348 0.80481 0.56263 0.0
C315 C 0.91231 0.83926 0.58477 0.0
C316 C 0.95493 0.83085 0.58153 0.0
C317 C 0.92728 0.82991 0.54556 0.0
O318 O 0.91086 0.82714 0.58219 0.0
O319 O 0.92316 0.84411 0.58094 0.0
O320 O 0.93844 0.82982 0.55112 0.0
O321 O 0.91765 0.82772 0.55323 0.0
C322 C 0.92998 0.79824 0.57209 0.0
O323 O 0.94925 0.83767 0.57276 0.0
O324 O 0.94815 0.8213 0.58589 0.0
In325 In 0.17256 0.92963 0.57196 0.0
O326 O 0.16668 0.95027 0.56562 0.0
O327 O 0.17261 0.94784 0.58566 0.0
C328 C 0.16735 0.92038 0.54738 0.0
C329 C 0.19917 0.92945 0.57377 0.0
C330 C 0.15715 0.91355 0.58684 0.0
O331 O 0.16071 0.92954 0.55266 0.0
O332 O 0.17633 0.91565 0.55463 0.0
O333 O 0.16905 0.91097 0.58414 0.0
O334 O 0.15309 0.92449 0.58239 0.0
C335 C 0.16892 0.95569 0.57663 0.0
O336 O 0.1919 0.92471 0.58279 0.0
O337 O 0.193 0.93436 0.5641 0.0
In338 In 0.06864 0.17444 0.57213 0.0
O339 O 0.07564 0.19423 0.58069 0.0
O340 O 0.06447 0.19443 0.56281 0.0
C341 C 0.0857 0.15904 0.5859 0.0
C342 C 0.04435 0.17063 0.58269 0.0
C343 C 0.07316 0.16849 0.54639 0.0
O344 O 0.08808 0.17099 0.58323 0.0
O345 O 0.07462 0.15495 0.58189 0.0
O346 O 0.06185 0.16783 0.55163 0.0
O347 O 0.08229 0.17191 0.55419 0.0
C348 C 0.07058 0.20103 0.57148 0.0
O349 O 0.04916 0.16328 0.57381 0.0
O350 O 0.05194 0.17976 0.58656 0.0
In351 In 0.82551 0.06876 0.57188 0.0
O352 O 0.8062 0.07407 0.58246 0.0
O353 O 0.80537 0.06077 0.56611 0.0
C354 C 0.84035 0.08619 0.58583 0.0
C355 C 0.83177 0.04361 0.57831 0.0
C356 C 0.82889 0.07675 0.54645 0.0
O357 O 0.82866 0.08864 0.58223 0.0
O358 O 0.84444 0.07484 0.5827 0.0
O359 O 0.83674 0.06886 0.55211 0.0
O360 O 0.81954 0.08075 0.55365 0.0
C361 C 0.7991 0.06705 0.57491 0.0
O362 O 0.83478 0.04883 0.56736 0.0
O363 O 0.82573 0.05117 0.58624 0.0
In364 In 0.92916 0.17638 0.42699 0.0
O365 O 0.94875 0.18731 0.42696 0.0
O366 O 0.94792 0.1692 0.41629 0.0
C367 C 0.92784 0.17103 0.45324 0.0
C368 C 0.9187 0.20044 0.42221 0.0
C369 C 0.91561 0.15743 0.41385 0.0
O370 O 0.93863 0.17206 0.44706 0.0
O371 O 0.91766 0.17244 0.44616 0.0
O372 O 0.91363 0.16961 0.41208 0.0
O373 O 0.92469 0.15477 0.42201 0.0
C374 C 0.95482 0.17899 0.41993 0.0
O375 O 0.92535 0.1942 0.41366 0.0
O376 O 0.91712 0.19442 0.43304 0.0
In377 In 0.82276 0.9276 0.42894 0.0
O378 O 0.80298 0.92353 0.41855 0.0
O379 O 0.80273 0.93335 0.43718 0.0
C380 C 0.83715 0.9111 0.41351 0.0
C381 C 0.82771 0.95343 0.42441 0.0
C382 C 0.82869 0.91838 0.45337 0.0
O383 O 0.82572 0.90826 0.41763 0.0
O384 O 0.84116 0.92244 0.41681 0.0
O385 O 0.83565 0.92694 0.44753 0.0
O386 O 0.81896 0.91422 0.44676 0.0
C387 C 0.79613 0.92868 0.42767 0.0
O388 O 0.83021 0.94773 0.43523 0.0
O389 O 0.82292 0.946 0.41555 0.0
In390 In 0.06776 0.82744 0.42911 0.0
O391 O 0.07317 0.80804 0.4188 0.0
O392 O 0.0603 0.80728 0.4355 0.0
C393 C 0.08536 0.84285 0.41594 0.0
C394 C 0.04296 0.83319 0.42096 0.0
C395 C 0.07497 0.83023 0.45483 0.0
O396 O 0.08725 0.8307 0.41802 0.0
O397 O 0.07449 0.84717 0.42025 0.0
O398 O 0.06582 0.83696 0.44966 0.0
O399 O 0.08065 0.82237 0.447 0.0
C400 C 0.06647 0.80096 0.42666 0.0
O401 O 0.04763 0.83711 0.43186 0.0
O402 O 0.05091 0.82656 0.41394 0.0
In403 In 0.17403 0.07033 0.42787 0.0
O404 O 0.17994 0.04989 0.43513 0.0
O405 O 0.16939 0.05095 0.41695 0.0
C406 C 0.16877 0.07665 0.45335 0.0
C407 C 0.19926 0.07616 0.42137 0.0
C408 C 0.15601 0.08473 0.41417 0.0
O409 O 0.16346 0.06687 0.44767 0.0
O410 O 0.17651 0.08327 0.44614 0.0
O411 O 0.16828 0.0868 0.41344 0.0
O412 O 0.15284 0.07513 0.42146 0.0
C413 C 0.17498 0.04371 0.42549 0.0
O414 O 0.19372 0.08045 0.4317 0.0
O415 O 0.19199 0.06905 0.41409 0.0
In416 In 0.57183 0.93239 0.82735 0.0
O417 O 0.5824 0.91263 0.83014 0.0
O418 O 0.58156 0.92553 0.84666 0.0
C419 C 0.57141 0.92962 0.80082 0.0
C420 C 0.54595 0.92911 0.83348 0.0
C421 C 0.58224 0.95678 0.83112 0.0
O422 O 0.58116 0.92593 0.80775 0.0
O423 O 0.56205 0.93481 0.80726 0.0
O424 O 0.57405 0.95159 0.83898 0.0
O425 O 0.58565 0.94944 0.82161 0.0
C426 C 0.58521 0.91448 0.84214 0.0
O427 O 0.55146 0.94029 0.83294 0.0
O428 O 0.55354 0.91947 0.83112 0.0
In429 In 0.0727 0.57644 0.82111 0.0
O430 O 0.06879 0.5898 0.8033 0.0
O431 O 0.08586 0.57752 0.80286 0.0
C432 C 0.08741 0.58816 0.84015 0.0
C433 C 0.04641 0.57919 0.8251 0.0
C434 C 0.07696 0.55001 0.82024 0.0
O435 O 0.09087 0.58783 0.82817 0.0
O436 O 0.07639 0.58281 0.84252 0.0
O437 O 0.07093 0.55628 0.81129 0.0
O438 O 0.08105 0.5571 0.8297 0.0
C439 C 0.07877 0.58589 0.79689 0.0
O440 O 0.05224 0.56816 0.825 0.0
O441 O 0.05392 0.58908 0.82356 0.0
In442 In 0.42592 0.06818 0.82506 0.0
O443 O 0.41591 0.08809 0.82963 0.0
O444 O 0.41768 0.07414 0.84517 0.0
C445 C 0.42373 0.06784 0.79854 0.0
C446 C 0.45214 0.07315 0.82799 0.0
C447 C 0.41548 0.04417 0.83012 0.0
O448 O 0.41678 0.07546 0.80565 0.0
O449 O 0.43149 0.06034 0.80485 0.0
O450 O 0.4265 0.04792 0.83467 0.0
O451 O 0.40954 0.05261 0.82307 0.0
C452 C 0.41388 0.08547 0.84166 0.0
O453 O 0.44636 0.06387 0.834 0.0
O454 O 0.44468 0.08009 0.8208 0.0
In455 In 0.9268 0.42884 0.82294 0.0
O456 O 0.92418 0.41659 0.80402 0.0
O457 O 0.91916 0.43706 0.80358 0.0
C458 C 0.91168 0.4139 0.83915 0.0
C459 C 0.9528 0.42258 0.82212 0.0
C460 C 0.92272 0.45408 0.83106 0.0
O461 O 0.90942 0.4149 0.82691 0.0
O462 O 0.92177 0.4201 0.8431 0.0
O463 O 0.93391 0.44857 0.83165 0.0
O464 O 0.91361 0.4468 0.82665 0.0
C465 C 0.92012 0.42633 0.79726 0.0
O466 O 0.94733 0.4302 0.81391 0.0
O467 O 0.94517 0.41802 0.83091 0.0
In468 In 0.57087 0.06727 0.17395 0.0
O469 O 0.55019 0.05912 0.17031 0.0
O470 O 0.55239 0.08 0.17022 0.0
C471 C 0.58157 0.04358 0.16778 0.0
C472 C 0.58335 0.08583 0.1593 0.0
C473 C 0.5717 0.06838 0.20061 0.0
O474 O 0.57258 0.04897 0.16099 0.0
O475 O 0.58558 0.05039 0.17746 0.0
O476 O 0.58071 0.07339 0.19351 0.0
O477 O 0.56252 0.06283 0.19426 0.0
C478 C 0.54465 0.07025 0.16924 0.0
O479 O 0.57997 0.08777 0.17117 0.0
O480 O 0.58067 0.07445 0.15492 0.0
In481 In 0.92993 0.56915 0.17264 0.0
O482 O 0.95029 0.56678 0.1635 0.0
O483 O 0.94711 0.58366 0.17565 0.0
C484 C 0.92241 0.54392 0.16771 0.0
C485 C 0.92921 0.56998 0.19928 0.0
C486 C 0.91419 0.58347 0.15635 0.0
O487 O 0.93338 0.54856 0.164 0.0
O488 O 0.91511 0.55204 0.17375 0.0
O489 O 0.91149 0.58163 0.16839 0.0
O490 O 0.92494 0.57837 0.15263 0.0
C491 C 0.95511 0.57707 0.16865 0.0
O492 O 0.92369 0.57869 0.19219 0.0
O493 O 0.93516 0.56102 0.19293 0.0
In494 In 0.42335 0.92924 0.1727 0.0
O495 O 0.41129 0.91082 0.16738 0.0
O496 O 0.41675 0.92368 0.15176 0.0
C497 C 0.4166 0.92336 0.19787 0.0
C498 C 0.4501 0.92727 0.17293 0.0
C499 C 0.41685 0.9545 0.16687 0.0
O500 O 0.42496 0.91669 0.19142 0.0
O501 O 0.41152 0.93288 0.19158 0.0
O502 O 0.42769 0.94932 0.16343 0.0
O503 O 0.40914 0.94686 0.17306 0.0
C504 C 0.41099 0.91316 0.15514 0.0
O505 O 0.4429 0.92028 0.16549 0.0
O506 O 0.44381 0.93525 0.1802 0.0
In507 In 0.06871 0.42487 0.17707 0.0
O508 O 0.08268 0.42307 0.19463 0.0
O509 O 0.06541 0.41102 0.19463 0.0
C510 C 0.08359 0.41382 0.15775 0.0
C511 C 0.04213 0.42234 0.17461 0.0
C512 C 0.07389 0.45116 0.17779 0.0
O513 O 0.08561 0.41172 0.16988 0.0
O514 O 0.07379 0.42117 0.15531 0.0
O515 O 0.07039 0.44461 0.18782 0.0
O516 O 0.07493 0.44444 0.16731 0.0
C517 C 0.07573 0.41463 0.20069 0.0
O518 O 0.0478 0.43295 0.17782 0.0
O519 O 0.0499 0.41282 0.17227 0.0
In520 In 0.82369 0.5731 0.92831 0.0
O521 O 0.80572 0.56656 0.91642 0.0
O522 O 0.80611 0.58642 0.92346 0.0
C523 C 0.84258 0.5858 0.91427 0.0
C524 C 0.82263 0.58186 0.95359 0.0
C525 C 0.8277 0.54656 0.9282 0.0
O526 O 0.8304 0.58723 0.91197 0.0
O527 O 0.84522 0.57817 0.9238 0.0
O528 O 0.82394 0.5528 0.93833 0.0
O529 O 0.82964 0.5537 0.91815 0.0
C530 C 0.7998 0.57753 0.91731 0.0
O531 O 0.81269 0.57755 0.94743 0.0
O532 O 0.83323 0.58191 0.94697 0.0
In533 In 0.82513 0.42677 0.06754 0.0
O534 O 0.80524 0.41826 0.07434 0.0
O535 O 0.8052 0.4362 0.0633 0.0
C536 C 0.83991 0.41338 0.08544 0.0
C537 C 0.82947 0.41555 0.04366 0.0
C538 C 0.83135 0.45263 0.07081 0.0
O539 O 0.82805 0.41665 0.08758 0.0
O540 O 0.84423 0.41663 0.0742 0.0
O541 O 0.83144 0.44697 0.05969 0.0
O542 O 0.82836 0.4452 0.08039 0.0
C543 C 0.79851 0.42754 0.06931 0.0
O544 O 0.83698 0.42421 0.04858 0.0
O545 O 0.8199 0.41218 0.05096 0.0
In546 In 0.56987 0.82559 0.06869 0.0
O547 O 0.55019 0.83667 0.06674 0.0
O548 O 0.55205 0.82267 0.08228 0.0
C549 C 0.57661 0.82962 0.04312 0.0
C550 C 0.58404 0.84091 0.08553 0.0
C551 C 0.57093 0.79898 0.06933 0.0
O552 O 0.56588 0.83361 0.0481 0.0
O553 O 0.58422 0.82374 0.05112 0.0
O554 O 0.58019 0.8061 0.07382 0.0
O555 O 0.56143 0.8053 0.06424 0.0
C556 C 0.54474 0.83088 0.07637 0.0
O557 O 0.58095 0.82911 0.08806 0.0
O558 O 0.58034 0.84491 0.0743 0.0
In559 In 0.17343 0.57724 0.07257 0.0
O560 O 0.16218 0.57354 0.05343 0.0
O561 O 0.17513 0.59013 0.05404 0.0
C562 C 0.17171 0.55068 0.07533 0.0
C563 C 0.19941 0.58188 0.07677 0.0
C564 C 0.15719 0.59081 0.08905 0.0
O565 O 0.17599 0.55616 0.06496 0.0
O566 O 0.1683 0.55857 0.0844 0.0
O567 O 0.16952 0.59019 0.09072 0.0
O568 O 0.15307 0.58487 0.0789 0.0
C569 C 0.1672 0.5832 0.0473 0.0
O570 O 0.19254 0.58881 0.06898 0.0
O571 O 0.19318 0.57268 0.08246 0.0
In572 In 0.42508 0.17911 0.07123 0.0
O573 O 0.44536 0.17937 0.06116 0.0
O574 O 0.44448 0.17235 0.08091 0.0
C575 C 0.41596 0.17908 0.04602 0.0
C576 C 0.4123 0.16122 0.08648 0.0
C577 C 0.42103 0.20334 0.08154 0.0
O578 O 0.41943 0.18944 0.05202 0.0
O579 O 0.41684 0.16862 0.05279 0.0
O580 O 0.41196 0.19688 0.07583 0.0
O581 O 0.43203 0.19744 0.08227 0.0
C582 C 0.45161 0.17486 0.07097 0.0
O583 O 0.41179 0.1735 0.08863 0.0
O584 O 0.41898 0.15797 0.07645 0.0
In585 In 0.17566 0.42539 0.92629 0.0
O586 O 0.17484 0.43402 0.94693 0.0
O587 O 0.17211 0.41325 0.94529 0.0
C588 C 0.17617 0.45167 0.92112 0.0
C589 C 0.19953 0.41562 0.9194 0.0
C590 C 0.1561 0.41387 0.91213 0.0
O591 O 0.16606 0.44465 0.91894 0.0
O592 O 0.18595 0.44541 0.92571 0.0
O593 O 0.16816 0.41286 0.90906 0.0
O594 O 0.15392 0.42039 0.92255 0.0
C595 C 0.17294 0.4232 0.95282 0.0
O596 O 0.19327 0.42379 0.91232 0.0
O597 O 0.19354 0.412 0.92976 0.0
In598 In 0.57368 0.17326 0.9314 0.0
O599 O 0.55339 0.16717 0.93927 0.0
O600 O 0.55528 0.16994 0.91855 0.0
C601 C 0.58476 0.16798 0.95518 0.0
C602 C 0.58682 0.15957 0.9125 0.0
C603 C 0.57307 0.19991 0.93033 0.0
O604 O 0.57639 0.16047 0.94977 0.0
O605 O 0.58797 0.17795 0.94836 0.0
O606 O 0.58257 0.19327 0.9256 0.0
O607 O 0.56409 0.19311 0.93571 0.0
C608 C 0.54778 0.16713 0.92812 0.0
O609 O 0.58332 0.17145 0.91107 0.0
O610 O 0.58399 0.15464 0.92362 0.0
In611 In 0.426 0.81883 0.92411 0.0
O612 O 0.44513 0.82958 0.9181 0.0
O613 O 0.44641 0.80941 0.92392 0.0
C614 C 0.42314 0.82276 0.95043 0.0
C615 C 0.41384 0.83636 0.90791 0.0
C616 C 0.41721 0.7942 0.91877 0.0
O617 O 0.43421 0.82168 0.94479 0.0
O618 O 0.41328 0.82214 0.94274 0.0
O619 O 0.42565 0.80009 0.91171 0.0
O620 O 0.41289 0.80088 0.92841 0.0
C621 C 0.45244 0.81962 0.92002 0.0
O622 O 0.41598 0.82451 0.90473 0.0
O623 O 0.41761 0.83939 0.91942 0.0
In624 In 0.57827 0.67466 0.92023 0.0
O625 O 0.58954 0.69374 0.92397 0.0
O626 O 0.57905 0.69213 0.90578 0.0
C627 C 0.57793 0.6733 0.94694 0.0
C628 C 0.5524 0.67025 0.91494 0.0
C629 C 0.59536 0.65762 0.90851 0.0
O630 O 0.57381 0.68323 0.94059 0.0
O631 O 0.5822 0.66396 0.93983 0.0
O632 O 0.58302 0.65691 0.90684 0.0
O633 O 0.59904 0.6671 0.9157 0.0
C634 C 0.58621 0.69919 0.91324 0.0
O635 O 0.55912 0.663 0.92255 0.0
O636 O 0.55877 0.67967 0.90976 0.0
In637 In 0.32213 0.57396 0.92235 0.0
O638 O 0.30319 0.58435 0.92857 0.0
O639 O 0.30396 0.57643 0.90906 0.0
C640 C 0.32421 0.57282 0.94904 0.0
C641 C 0.32542 0.54885 0.9138 0.0
C642 C 0.34008 0.59004 0.9105 0.0
O643 O 0.31768 0.56455 0.94237 0.0
O644 O 0.32971 0.58177 0.94227 0.0
O645 O 0.34256 0.57824 0.91362 0.0
O646 O 0.32843 0.59368 0.91306 0.0
C647 C 0.29726 0.58247 0.91774 0.0
O648 O 0.31577 0.55592 0.91018 0.0
O649 O 0.33346 0.55453 0.92147 0.0
In650 In 0.4207 0.32178 0.92095 0.0
O651 O 0.40831 0.30294 0.92036 0.0
O652 O 0.42554 0.30368 0.9083 0.0
C653 C 0.41764 0.32137 0.94756 0.0
C654 C 0.44651 0.32782 0.91787 0.0
C655 C 0.40497 0.33947 0.90831 0.0
O656 O 0.4234 0.31228 0.94123 0.0
O657 O 0.41328 0.33069 0.94047 0.0
O658 O 0.4169 0.34179 0.91103 0.0
O659 O 0.40103 0.32814 0.91168 0.0
C660 C 0.41575 0.297 0.91227 0.0
O661 O 0.43987 0.32228 0.90882 0.0
O662 O 0.44009 0.3304 0.92826 0.0
In663 In 0.67652 0.41894 0.92167 0.0
O664 O 0.67321 0.43814 0.90994 0.0
O665 O 0.67676 0.43948 0.93066 0.0
C666 C 0.65871 0.40364 0.90871 0.0
C667 C 0.70134 0.41385 0.91314 0.0
C668 C 0.67298 0.41415 0.94779 0.0
O669 O 0.65633 0.41541 0.91203 0.0
O670 O 0.67019 0.39971 0.91156 0.0
O671 O 0.68418 0.41388 0.94229 0.0
O672 O 0.66347 0.41668 0.94009 0.0
C673 C 0.67438 0.44551 0.91999 0.0
O674 O 0.69539 0.40662 0.92141 0.0
O675 O 0.69463 0.42348 0.90885 0.0
In676 In 0.58024 0.32275 0.07818 0.0
O677 O 0.59205 0.30356 0.07807 0.0
O678 O 0.57609 0.30502 0.09169 0.0
C679 C 0.58535 0.32704 0.05224 0.0
C680 C 0.55358 0.32433 0.07915 0.0
C681 C 0.5956 0.34049 0.09117 0.0
O682 O 0.58633 0.3158 0.05758 0.0
O683 O 0.58194 0.33621 0.06 0.0
O684 O 0.58375 0.34281 0.08806 0.0
O685 O 0.59957 0.32907 0.08814 0.0
C686 C 0.58523 0.29796 0.0869 0.0
O687 O 0.56072 0.3268 0.08913 0.0
O688 O 0.55989 0.32092 0.06893 0.0
In689 In 0.67742 0.57941 0.07697 0.0
O690 O 0.69686 0.59077 0.07612 0.0
O691 O 0.69494 0.57592 0.09089 0.0
C692 C 0.67815 0.58066 0.05022 0.0
C693 C 0.67076 0.55389 0.08127 0.0
C694 C 0.66026 0.59656 0.08851 0.0
O695 O 0.66917 0.58617 0.05694 0.0
O696 O 0.68673 0.5746 0.05698 0.0
O697 O 0.65779 0.58441 0.08723 0.0
O698 O 0.67147 0.59998 0.08429 0.0
C699 C 0.70219 0.58459 0.08556 0.0
O700 O 0.66707 0.5603 0.0712 0.0
O701 O 0.67766 0.56042 0.0894 0.0
In702 In 0.42083 0.67631 0.0774 0.0
O703 O 0.43922 0.66344 0.07621 0.0
O704 O 0.44001 0.68036 0.08874 0.0
C705 C 0.40334 0.65982 0.08928 0.0
C706 C 0.4132 0.70128 0.08312 0.0
C707 C 0.42269 0.67439 0.05077 0.0
O708 O 0.41564 0.65901 0.09116 0.0
O709 O 0.39988 0.66908 0.0817 0.0
O710 O 0.4289 0.68295 0.05741 0.0
O711 O 0.41547 0.66676 0.05755 0.0
C712 C 0.44601 0.67045 0.08401 0.0
O713 O 0.41 0.69541 0.07259 0.0
O714 O 0.42016 0.69449 0.09098 0.0
In715 In 0.32097 0.42321 0.07505 0.0
O716 O 0.30191 0.41193 0.07091 0.0
O717 O 0.30465 0.41976 0.09029 0.0
C718 C 0.32186 0.42388 0.04822 0.0
C719 C 0.32296 0.44833 0.08407 0.0
C720 C 0.34098 0.40851 0.08513 0.0
O721 O 0.32484 0.4137 0.0548 0.0
O722 O 0.31834 0.43364 0.05513 0.0
O723 O 0.34279 0.41875 0.07825 0.0
O724 O 0.32898 0.4057 0.08719 0.0
C725 C 0.29715 0.41365 0.08234 0.0
O726 O 0.33295 0.44129 0.08155 0.0
O727 O 0.312 0.44265 0.08227 0.0
In728 In 0.92181 0.57645 0.67595 0.0
O729 O 0.91091 0.58221 0.65693 0.0
O730 O 0.91598 0.59759 0.67018 0.0
C731 C 0.91377 0.55173 0.66978 0.0
C732 C 0.94848 0.57443 0.67429 0.0
C733 C 0.91615 0.58317 0.70119 0.0
O734 O 0.92225 0.55802 0.66309 0.0
O735 O 0.9091 0.55801 0.67954 0.0
O736 O 0.92702 0.58588 0.69568 0.0
O737 O 0.90795 0.57715 0.69392 0.0
C738 C 0.91087 0.59444 0.65926 0.0
O739 O 0.942 0.58308 0.66801 0.0
O740 O 0.94153 0.56689 0.68141 0.0
In741 In 0.42179 0.92036 0.67261 0.0
O742 O 0.42876 0.9264 0.69304 0.0
O743 O 0.41555 0.91004 0.6919 0.0
C744 C 0.41564 0.94588 0.66711 0.0
C745 C 0.44724 0.91482 0.66665 0.0
C746 C 0.40403 0.90638 0.65819 0.0
O747 O 0.4119 0.94014 0.67754 0.0
O748 O 0.42226 0.9387 0.65935 0.0
O749 O 0.41631 0.90587 0.65605 0.0
O750 O 0.4008 0.91349 0.6679 0.0
C751 C 0.42226 0.91769 0.69918 0.0
O752 O 0.44027 0.90712 0.67365 0.0
O753 O 0.44127 0.92499 0.66254 0.0
In754 In 0.07854 0.42015 0.67767 0.0
O755 O 0.08241 0.41619 0.65578 0.0
O756 O 0.08992 0.40228 0.66957 0.0
C757 C 0.08643 0.44564 0.67849 0.0
C758 C 0.05182 0.42032 0.67464 0.0
C759 C 0.08649 0.41131 0.70157 0.0
O760 O 0.08948 0.43807 0.66901 0.0
O761 O 0.07973 0.44026 0.68756 0.0
O762 O 0.07498 0.40933 0.6971 0.0
O763 O 0.09413 0.4175 0.69385 0.0
C764 C 0.08855 0.40549 0.6576 0.0
O765 O 0.05818 0.40987 0.67712 0.0
O766 O 0.0589 0.43052 0.67366 0.0
In767 In 0.58155 0.07564 0.67583 0.0
O768 O 0.59417 0.07621 0.69451 0.0
O769 O 0.57836 0.08998 0.69314 0.0
C770 C 0.58588 0.04944 0.67237 0.0
C771 C 0.55484 0.07657 0.67528 0.0
C772 C 0.59618 0.08774 0.65686 0.0
O773 O 0.5874 0.0552 0.68335 0.0
O774 O 0.58232 0.05693 0.66302 0.0
O775 O 0.58391 0.08583 0.6557 0.0
O776 O 0.60097 0.08391 0.66771 0.0
C777 C 0.58774 0.08537 0.7 0.0
O778 O 0.56184 0.08658 0.67255 0.0
O779 O 0.5613 0.06637 0.67844 0.0
In780 In 0.92031 0.42319 0.3249 0.0
O781 O 0.94018 0.43265 0.31986 0.0
O782 O 0.94051 0.41486 0.33105 0.0
C783 C 0.91407 0.41568 0.30006 0.0
C784 C 0.90933 0.40642 0.34279 0.0
C785 C 0.91228 0.44821 0.32984 0.0
O786 O 0.92527 0.41358 0.30519 0.0
O787 O 0.90587 0.42149 0.30753 0.0
O788 O 0.90823 0.44175 0.31993 0.0
O789 O 0.92011 0.44197 0.33729 0.0
C790 C 0.94709 0.42402 0.32567 0.0
O791 O 0.91246 0.41816 0.34553 0.0
O792 O 0.91142 0.4032 0.33093 0.0
In793 In 0.57783 0.92233 0.32215 0.0
O794 O 0.58825 0.92658 0.30268 0.0
O795 O 0.5803 0.90726 0.30546 0.0
C796 C 0.57899 0.94854 0.32789 0.0
C797 C 0.55204 0.91627 0.3192 0.0
C798 C 0.59195 0.91071 0.34175 0.0
O799 O 0.58842 0.94245 0.32244 0.0
O800 O 0.56912 0.94141 0.33057 0.0
O801 O 0.58047 0.91526 0.34345 0.0
O802 O 0.59622 0.9117 0.33008 0.0
C803 C 0.58625 0.91522 0.29786 0.0
O804 O 0.55925 0.91057 0.3277 0.0
O805 O 0.55789 0.9248 0.3122 0.0
In806 In 0.07554 0.57946 0.32504 0.0
O807 O 0.05521 0.58948 0.32383 0.0
O808 O 0.05652 0.57135 0.33427 0.0
C809 C 0.08269 0.58753 0.30068 0.0
C810 C 0.08674 0.59482 0.34395 0.0
C811 C 0.08175 0.55359 0.32278 0.0
O812 O 0.07138 0.58975 0.30554 0.0
O813 O 0.09058 0.5814 0.30823 0.0
O814 O 0.08739 0.56104 0.33111 0.0
O815 O 0.07321 0.55924 0.31562 0.0
C816 C 0.04924 0.58066 0.33031 0.0
O817 O 0.08195 0.58357 0.34636 0.0
O818 O 0.08626 0.59816 0.33195 0.0
In819 In 0.4212 0.07759 0.32235 0.0
O820 O 0.43958 0.09006 0.31763 0.0
O821 O 0.44021 0.07729 0.33434 0.0
C822 C 0.40475 0.08894 0.34035 0.0
C823 C 0.41426 0.08302 0.29711 0.0
C824 C 0.42187 0.05085 0.32392 0.0
O825 O 0.41663 0.08611 0.34278 0.0
O826 O 0.40118 0.08641 0.32867 0.0
O827 O 0.43084 0.05757 0.31841 0.0
O828 O 0.41244 0.05759 0.32857 0.0
C829 C 0.44624 0.08558 0.32721 0.0
O830 O 0.41194 0.07204 0.3026 0.0
O831 O 0.41991 0.09144 0.30443 0.0
In832 In 0.67269 0.91948 0.57833 0.0
O833 O 0.69278 0.92854 0.57419 0.0
O834 O 0.69252 0.9095 0.58321 0.0
C835 C 0.66603 0.94524 0.58177 0.0
C836 C 0.66701 0.91057 0.55381 0.0
C837 C 0.65849 0.90598 0.59669 0.0
O838 O 0.67137 0.93845 0.59078 0.0
O839 O 0.66399 0.93904 0.57116 0.0
O840 O 0.65538 0.90628 0.58463 0.0
O841 O 0.66904 0.91203 0.59942 0.0
C842 C 0.69938 0.91905 0.5789 0.0
O843 O 0.65962 0.9184 0.56014 0.0
O844 O 0.67718 0.90676 0.56005 0.0
In845 In 0.67915 0.07635 0.41649 0.0
O846 O 0.67619 0.08779 0.43593 0.0
O847 O 0.68427 0.06836 0.43678 0.0
C848 C 0.66085 0.08904 0.4015 0.0
C849 C 0.70381 0.08397 0.40953 0.0
C850 C 0.67258 0.05054 0.41359 0.0
O851 O 0.65936 0.08704 0.41372 0.0
O852 O 0.67172 0.085 0.39693 0.0
O853 O 0.68306 0.05542 0.40886 0.0
O854 O 0.66525 0.05872 0.41952 0.0
C855 C 0.68041 0.07842 0.44308 0.0
O856 O 0.69828 0.07375 0.405 0.0
O857 O 0.69677 0.09065 0.41743 0.0
In858 In 0.91711 0.67546 0.42203 0.0
O859 O 0.9369 0.66766 0.41403 0.0
O860 O 0.93711 0.67857 0.43198 0.0
C861 C 0.91256 0.70107 0.4159 0.0
C862 C 0.90527 0.65922 0.40424 0.0
C863 C 0.90911 0.66985 0.4469 0.0
O864 O 0.92347 0.69539 0.41375 0.0
O865 O 0.90378 0.69379 0.42103 0.0
O866 O 0.91671 0.6624 0.44036 0.0
O867 O 0.9052 0.68004 0.44076 0.0
C868 C 0.94368 0.67231 0.42342 0.0
O869 O 0.90565 0.65673 0.41644 0.0
O870 O 0.91047 0.67009 0.40104 0.0
In871 In 0.32598 0.92 0.42041 0.0
O872 O 0.32852 0.90826 0.43975 0.0
O873 O 0.32197 0.92825 0.44084 0.0
C874 C 0.34484 0.90767 0.40575 0.0
C875 C 0.30112 0.91247 0.41407 0.0
C876 C 0.33118 0.94594 0.41622 0.0
O877 O 0.34684 0.91169 0.41737 0.0
O878 O 0.3332 0.90942 0.40167 0.0
O879 O 0.32144 0.94007 0.41107 0.0
O880 O 0.33847 0.93867 0.4233 0.0
C881 C 0.32517 0.91788 0.44702 0.0
O882 O 0.30654 0.92274 0.40947 0.0
O883 O 0.30836 0.90572 0.42172 0.0
In884 In 0.07834 0.32324 0.41817 0.0
O885 O 0.05851 0.31278 0.4208 0.0
O886 O 0.05834 0.33168 0.41157 0.0
C887 C 0.08808 0.29897 0.41238 0.0
C888 C 0.08978 0.34227 0.40304 0.0
C889 C 0.08091 0.3286 0.44422 0.0
O890 O 0.07919 0.3045 0.40558 0.0
O891 O 0.09241 0.30587 0.42185 0.0
O892 O 0.09009 0.32324 0.4376 0.0
O893 O 0.07063 0.33129 0.43767 0.0
C894 C 0.05171 0.32188 0.4156 0.0
O895 O 0.08846 0.34331 0.41538 0.0
O896 O 0.08572 0.33146 0.39835 0.0
In897 In 0.32398 0.07554 0.57938 0.0
O898 O 0.30472 0.07281 0.59058 0.0
O899 O 0.3065 0.09 0.57855 0.0
C900 C 0.32983 0.04988 0.58448 0.0
C901 C 0.32203 0.07719 0.55276 0.0
C902 C 0.34274 0.08864 0.59345 0.0
O903 O 0.32049 0.05595 0.5901 0.0
O904 O 0.33638 0.05678 0.5764 0.0
O905 O 0.3449 0.08377 0.58219 0.0
O906 O 0.331 0.08733 0.59743 0.0
C907 C 0.29933 0.08319 0.58622 0.0
O908 O 0.32739 0.0862 0.5596 0.0
O909 O 0.31757 0.06758 0.55937 0.0
In910 In 0.92047 0.32154 0.58025 0.0
O911 O 0.94106 0.31492 0.5868 0.0
O912 O 0.9386 0.33505 0.5813 0.0
C913 C 0.91097 0.29727 0.58623 0.0
C914 C 0.90765 0.34034 0.59439 0.0
C915 C 0.92007 0.32169 0.55354 0.0
O916 O 0.92001 0.30283 0.5928 0.0
O917 O 0.90633 0.30416 0.57689 0.0
O918 O 0.91021 0.32536 0.56033 0.0
O919 O 0.92987 0.31779 0.56022 0.0
C920 C 0.94639 0.3261 0.5852 0.0
O921 O 0.91044 0.34168 0.58232 0.0
O922 O 0.91088 0.32932 0.59925 0.0
In923 In 0.08006 0.67439 0.57847 0.0
O924 O 0.09174 0.65545 0.58247 0.0
O925 O 0.08617 0.66701 0.59903 0.0
C926 C 0.08849 0.67049 0.55347 0.0
C927 C 0.0535 0.67111 0.57657 0.0
C928 C 0.0848 0.69952 0.58626 0.0
O929 O 0.09122 0.68089 0.55986 0.0
O930 O 0.08179 0.66205 0.5598 0.0
O931 O 0.07359 0.69411 0.58711 0.0
O932 O 0.09383 0.69217 0.58168 0.0
C933 C 0.0917 0.65663 0.59487 0.0
O934 O 0.06026 0.67715 0.568 0.0
O935 O 0.06009 0.66675 0.58624 0.0
In936 In 0.42816 0.32423 0.07277 0.0
O937 O 0.41511 0.30602 0.07502 0.0
O938 O 0.43278 0.30678 0.08641 0.0
C939 C 0.41292 0.34311 0.08413 0.0
C940 C 0.45455 0.32815 0.07493 0.0
C941 C 0.42297 0.32302 0.04651 0.0
O942 O 0.40993 0.33101 0.08427 0.0
O943 O 0.4238 0.34569 0.07858 0.0
O944 O 0.42096 0.33335 0.05324 0.0
O945 O 0.42752 0.31338 0.05302 0.0
C946 C 0.42261 0.30028 0.08319 0.0
O947 O 0.4487 0.32665 0.06402 0.0
O948 O 0.44704 0.32797 0.08494 0.0
In949 In 0.67304 0.43032 0.0711 0.0
O950 O 0.66427 0.4504 0.06623 0.0
O951 O 0.67323 0.44813 0.08515 0.0
C952 C 0.66917 0.42199 0.04589 0.0
C953 C 0.69954 0.43155 0.07374 0.0
C954 C 0.6581 0.41328 0.08546 0.0
O955 O 0.66164 0.43024 0.05145 0.0
O956 O 0.67842 0.41776 0.0531 0.0
O957 O 0.66972 0.41064 0.08179 0.0
O958 O 0.65411 0.42462 0.08218 0.0
C959 C 0.66742 0.45572 0.07708 0.0
O960 O 0.69235 0.42527 0.08184 0.0
O961 O 0.69332 0.43735 0.06458 0.0
In962 In 0.56829 0.67392 0.07209 0.0
O963 O 0.57503 0.69315 0.08207 0.0
O964 O 0.55913 0.69395 0.06823 0.0
C965 C 0.58728 0.65991 0.08483 0.0
C966 C 0.5437 0.66715 0.07986 0.0
C967 C 0.57356 0.67131 0.0459 0.0
O968 O 0.58956 0.67074 0.07909 0.0
O969 O 0.57536 0.65626 0.08442 0.0
O970 O 0.56858 0.66203 0.05261 0.0
O971 O 0.57609 0.68159 0.05244 0.0
C972 C 0.56674 0.70023 0.07588 0.0
O973 O 0.54861 0.66353 0.06895 0.0
O974 O 0.55134 0.67392 0.08708 0.0
In975 In 0.32266 0.5712 0.07488 0.0
O976 O 0.31534 0.55298 0.086 0.0
O977 O 0.33447 0.55205 0.07732 0.0
C978 C 0.3258 0.57075 0.04825 0.0
C979 C 0.29748 0.57896 0.07871 0.0
C980 C 0.33915 0.58799 0.0877 0.0
O981 O 0.31964 0.5619 0.05453 0.0
O982 O 0.33054 0.57983 0.05541 0.0
O983 O 0.32735 0.59088 0.08492 0.0
O984 O 0.34261 0.57652 0.08423 0.0
C985 C 0.32556 0.54615 0.08379 0.0
O986 O 0.30428 0.57363 0.08776 0.0
O987 O 0.30346 0.58056 0.06785 0.0
In988 In 0.42851 0.6719 0.92501 0.0
O989 O 0.44824 0.66096 0.92595 0.0
O990 O 0.44674 0.67713 0.91261 0.0
C991 C 0.42822 0.67027 0.95173 0.0
C992 C 0.42059 0.69683 0.91991 0.0
C993 C 0.41169 0.65497 0.91276 0.0
O994 O 0.43604 0.67771 0.94545 0.0
O995 O 0.42057 0.6635 0.94454 0.0
O996 O 0.40867 0.66672 0.91557 0.0
O997 O 0.42332 0.65175 0.91591 0.0
C998 C 0.45395 0.6682 0.91753 0.0
O999 O 0.42678 0.68995 0.91149 0.0
O1000 O 0.41836 0.69109 0.93078 0.0
In1001 In 0.32177 0.42574 0.92222 0.0
O1002 O 0.33401 0.44459 0.92013 0.0
O1003 O 0.31482 0.4445 0.91158 0.0
C1004 C 0.3238 0.42572 0.94895 0.0
C1005 C 0.29686 0.41736 0.91796 0.0
C1006 C 0.33904 0.40963 0.90947 0.0
O1007 O 0.31836 0.43497 0.94257 0.0
O1008 O 0.3283 0.41647 0.94186 0.0
O1009 O 0.32681 0.40729 0.91005 0.0
O1010 O 0.34252 0.42019 0.91508 0.0
C1011 C 0.32527 0.45093 0.91387 0.0
O1012 O 0.30331 0.42376 0.90934 0.0
O1013 O 0.30305 0.4151 0.92858 0.0
In1014 In 0.57021 0.32541 0.92916 0.0
O1015 O 0.57534 0.30609 0.91853 0.0
O1016 O 0.56341 0.3051 0.93588 0.0
C1017 C 0.58674 0.34058 0.91451 0.0
C1018 C 0.54473 0.33078 0.92336 0.0
C1019 C 0.57886 0.32959 0.95421 0.0
O1020 O 0.58954 0.32893 0.91795 0.0
O1021 O 0.57549 0.34449 0.9182 0.0
O1022 O 0.57019 0.33675 0.94881 0.0
O1023 O 0.58336 0.32054 0.9469 0.0
C1024 C 0.56919 0.29889 0.92671 0.0
O1025 O 0.55002 0.33374 0.93427 0.0
O1026 O 0.55237 0.32523 0.91515 0.0
In1027 In 0.67814 0.57048 0.92471 0.0
O1028 O 0.67238 0.55042 0.93296 0.0
O1029 O 0.67572 0.55164 0.91222 0.0
C1030 C 0.67886 0.57491 0.95112 0.0
C1031 C 0.70273 0.57549 0.91555 0.0
C1032 C 0.66029 0.58617 0.91227 0.0
O1033 O 0.68801 0.56909 0.94493 0.0
O1034 O 0.66928 0.57861 0.944 0.0
O1035 O 0.67232 0.58919 0.91349 0.0
O1036 O 0.65724 0.57508 0.91711 0.0
C1037 C 0.67284 0.54442 0.92203 0.0
O1038 O 0.69617 0.56547 0.91198 0.0
O1039 O 0.69678 0.58305 0.92352 0.0
In1040 In 0.07287 0.42958 0.32092 0.0
O1041 O 0.05242 0.43927 0.32061 0.0
O1042 O 0.05348 0.41918 0.32655 0.0
C1043 C 0.08083 0.45516 0.32028 0.0
C1044 C 0.08522 0.41546 0.33998 0.0
C1045 C 0.07808 0.41853 0.2972 0.0
O1046 O 0.07635 0.44912 0.31034 0.0
O1047 O 0.08159 0.44822 0.33066 0.0
O1048 O 0.08655 0.42531 0.30343 0.0
O1049 O 0.06714 0.41712 0.30307 0.0
C1050 C 0.04624 0.42911 0.32436 0.0
O1051 O 0.08734 0.41365 0.32781 0.0
O1052 O 0.07718 0.42467 0.34255 0.0
In1053 In 0.56774 0.07308 0.32627 0.0
O1054 O 0.54881 0.07484 0.33835 0.0
O1055 O 0.55089 0.08763 0.3218 0.0
C1056 C 0.57185 0.04706 0.33133 0.0
C1057 C 0.56876 0.07332 0.29963 0.0
C1058 C 0.58574 0.08619 0.34114 0.0
O1059 O 0.56073 0.05257 0.33264 0.0
O1060 O 0.58101 0.0547 0.32766 0.0
O1061 O 0.58741 0.08389 0.32899 0.0
O1062 O 0.57487 0.08214 0.34572 0.0
C1063 C 0.54368 0.08371 0.33122 0.0
O1064 O 0.57421 0.08219 0.30657 0.0
O1065 O 0.56271 0.06453 0.30613 0.0
In1066 In 0.9248 0.5698 0.32505 0.0
O1067 O 0.91477 0.58991 0.32777 0.0
O1068 O 0.91443 0.57658 0.34398 0.0
C1069 C 0.92451 0.56973 0.29838 0.0
C1070 C 0.95064 0.57452 0.33048 0.0
C1071 C 0.91464 0.54571 0.33051 0.0
O1072 O 0.91559 0.57535 0.30512 0.0
O1073 O 0.93341 0.56409 0.30509 0.0
O1074 O 0.92396 0.55081 0.33707 0.0
O1075 O 0.91009 0.55295 0.32139 0.0
C1076 C 0.91133 0.58784 0.33959 0.0
O1077 O 0.9452 0.56347 0.33246 0.0
O1078 O 0.94302 0.5833 0.32593 0.0
In1079 In 0.42795 0.92531 0.31967 0.0
O1080 O 0.42484 0.91173 0.30187 0.0
O1081 O 0.41615 0.93091 0.30133 0.0
C1082 C 0.41396 0.9127 0.33866 0.0
C1083 C 0.4536 0.91781 0.31859 0.0
C1084 C 0.42695 0.95179 0.32399 0.0
O1085 O 0.41193 0.91088 0.32648 0.0
O1086 O 0.42324 0.92063 0.34126 0.0
O1087 O 0.43762 0.9456 0.3221 0.0
O1088 O 0.41674 0.94461 0.32394 0.0
C1089 C 0.4182 0.92012 0.29539 0.0
O1090 O 0.44786 0.92399 0.3094 0.0
O1091 O 0.44636 0.91521 0.32845 0.0
In1092 In 0.07424 0.56911 0.67656 0.0
O1093 O 0.05371 0.55966 0.67809 0.0
O1094 O 0.05492 0.57882 0.66964 0.0
C1095 C 0.08295 0.54377 0.67702 0.0
C1096 C 0.08698 0.58382 0.65821 0.0
C1097 C 0.07903 0.58022 0.70029 0.0
O1098 O 0.07984 0.55013 0.68727 0.0
O1099 O 0.08187 0.55023 0.66638 0.0
O1100 O 0.06795 0.58109 0.69455 0.0
O1101 O 0.08778 0.57391 0.69394 0.0
C1102 C 0.0476 0.56931 0.67307 0.0
O1103 O 0.0879 0.58598 0.67045 0.0
O1104 O 0.07991 0.57397 0.65519 0.0
In1105 In 0.42965 0.06784 0.67282 0.0
O1106 O 0.42467 0.0785 0.69229 0.0
O1107 O 0.43281 0.0591 0.69319 0.0
C1108 C 0.41443 0.0831 0.65692 0.0
C1109 C 0.45589 0.07224 0.67018 0.0
C1110 C 0.42041 0.04358 0.66631 0.0
O1111 O 0.4113 0.08038 0.6687 0.0
O1112 O 0.42545 0.07848 0.6533 0.0
O1113 O 0.42995 0.04899 0.66033 0.0
O1114 O 0.41528 0.05056 0.6753 0.0
C1115 C 0.42841 0.06894 0.69946 0.0
O1116 O 0.45052 0.06116 0.66822 0.0
O1117 O 0.44795 0.08143 0.67322 0.0
In1118 In 0.92612 0.4308 0.67235 0.0
O1119 O 0.94716 0.43906 0.67175 0.0
O1120 O 0.94509 0.41821 0.67158 0.0
C1121 C 0.91615 0.45453 0.66534 0.0
C1122 C 0.9134 0.4146 0.65527 0.0
C1123 C 0.92219 0.42821 0.69866 0.0
O1124 O 0.92653 0.44976 0.66026 0.0
O1125 O 0.91048 0.4471 0.67366 0.0
O1126 O 0.9226 0.41835 0.691 0.0
O1127 O 0.92377 0.43925 0.69305 0.0
C1128 C 0.95285 0.42797 0.67145 0.0
O1129 O 0.91093 0.41467 0.66751 0.0
O1130 O 0.92209 0.4228 0.65167 0.0
In1131 In 0.57014 0.92573 0.67549 0.0
O1132 O 0.57508 0.91569 0.69519 0.0
O1133 O 0.56199 0.93222 0.69537 0.0
C1134 C 0.58816 0.91147 0.66163 0.0
C1135 C 0.5452 0.91877 0.66902 0.0
C1136 C 0.5776 0.95116 0.67116 0.0
O1137 O 0.59064 0.91652 0.67275 0.0
O1138 O 0.57652 0.91336 0.6576 0.0
O1139 O 0.56978 0.9451 0.66355 0.0
O1140 O 0.58179 0.94435 0.68073 0.0
C1141 C 0.56809 0.92354 0.70198 0.0
O1142 O 0.5504 0.92958 0.6655 0.0
O1143 O 0.55269 0.91126 0.67567 0.0
In1144 In 0.32262 0.06956 0.42697 0.0
O1145 O 0.31687 0.06269 0.44759 0.0
O1146 O 0.32737 0.08087 0.44612 0.0
C1147 C 0.32906 0.04422 0.42114 0.0
C1148 C 0.29719 0.07536 0.42136 0.0
C1149 C 0.3399 0.08347 0.4119 0.0
O1150 O 0.33392 0.05027 0.43093 0.0
O1151 O 0.32119 0.05101 0.41424 0.0
O1152 O 0.3277 0.0829 0.40943 0.0
O1153 O 0.34336 0.07739 0.42223 0.0
C1154 C 0.32189 0.07243 0.45356 0.0
O1155 O 0.30463 0.08337 0.42745 0.0
O1156 O 0.30262 0.06462 0.41807 0.0
In1157 In 0.3249 0.92742 0.5718 0.0
O1158 O 0.33157 0.93351 0.55134 0.0
O1159 O 0.32472 0.91374 0.55357 0.0
C1160 C 0.33139 0.95194 0.58041 0.0
C1161 C 0.29824 0.92639 0.57147 0.0
C1162 C 0.33908 0.91199 0.58849 0.0
O1163 O 0.33824 0.94573 0.57202 0.0
O1164 O 0.32153 0.94564 0.58474 0.0
O1165 O 0.3277 0.9163 0.59123 0.0
O1166 O 0.34322 0.91516 0.57715 0.0
C1167 C 0.32903 0.9226 0.54585 0.0
O1168 O 0.30515 0.91726 0.57654 0.0
O1169 O 0.30479 0.93578 0.56651 0.0
In1170 In 0.06941 0.32646 0.568 0.0
O1171 O 0.08086 0.33046 0.58715 0.0
O1172 O 0.07917 0.34613 0.57332 0.0
C1173 C 0.0724 0.3 0.56682 0.0
C1174 C 0.04429 0.32985 0.57677 0.0
C1175 C 0.07521 0.3319 0.54253 0.0
O1176 O 0.08038 0.30728 0.57314 0.0
O1177 O 0.06316 0.30611 0.56103 0.0
O1178 O 0.06417 0.33452 0.54775 0.0
O1179 O 0.08358 0.32671 0.55026 0.0
C1180 C 0.08334 0.34238 0.58445 0.0
O1181 O 0.04933 0.33698 0.56785 0.0
O1182 O 0.05197 0.32121 0.58143 0.0
In1183 In 0.67355 0.06703 0.56795 0.0
O1184 O 0.69308 0.07743 0.57319 0.0
O1185 O 0.69375 0.05745 0.56662 0.0
C1186 C 0.65766 0.08231 0.58314 0.0
C1187 C 0.67237 0.07164 0.54163 0.0
C1188 C 0.66539 0.04291 0.57611 0.0
O1189 O 0.66936 0.07938 0.58637 0.0
O1190 O 0.65412 0.07792 0.572 0.0
O1191 O 0.66031 0.04883 0.56634 0.0
O1192 O 0.67432 0.04934 0.58202 0.0
C1193 C 0.70012 0.06742 0.57056 0.0
O1194 O 0.67068 0.06043 0.54679 0.0
O1195 O 0.67437 0.0809 0.5498 0.0
In1196 In 0.92846 0.67253 0.56725 0.0
O1197 O 0.94899 0.66894 0.55853 0.0
O1198 O 0.94718 0.66832 0.57943 0.0
C1199 C 0.9167 0.66703 0.54388 0.0
C1200 C 0.91633 0.65772 0.58592 0.0
C1201 C 0.92764 0.69916 0.56903 0.0
O1202 O 0.92583 0.66 0.54871 0.0
O1203 O 0.91316 0.67663 0.55106 0.0
O1204 O 0.91894 0.6919 0.57434 0.0
O1205 O 0.93656 0.69299 0.56286 0.0
C1206 C 0.95473 0.66751 0.56951 0.0
O1207 O 0.91998 0.66948 0.58796 0.0
O1208 O 0.91859 0.65349 0.57438 0.0
In1209 In 0.6704 0.92713 0.43223 0.0
O1210 O 0.66006 0.92739 0.45222 0.0
O1211 O 0.67356 0.91168 0.44857 0.0
C1212 C 0.66647 0.95288 0.42585 0.0
C1213 C 0.69702 0.92632 0.4313 0.0
C1214 C 0.65404 0.91401 0.41559 0.0
O1215 O 0.66353 0.94817 0.43704 0.0
O1216 O 0.67121 0.94459 0.41782 0.0
O1217 O 0.66638 0.91449 0.41386 0.0
O1218 O 0.65001 0.91986 0.42583 0.0
C1219 C 0.66568 0.91714 0.45659 0.0
O1220 O 0.68987 0.9183 0.42488 0.0
O1221 O 0.69072 0.93453 0.43831 0.0
In1222 In 0.06848 0.67535 0.43336 0.0
O1223 O 0.07786 0.67134 0.41312 0.0
O1224 O 0.07779 0.65578 0.42726 0.0
C1225 C 0.06833 0.70193 0.43087 0.0
C1226 C 0.04234 0.66988 0.43122 0.0
C1227 C 0.0806 0.67092 0.45674 0.0
O1228 O 0.07719 0.69485 0.42556 0.0
O1229 O 0.05978 0.6956 0.4374 0.0
O1230 O 0.07139 0.66372 0.45236 0.0
O1231 O 0.08397 0.68028 0.44918 0.0
C1232 C 0.08086 0.6595 0.41575 0.0
O1233 O 0.04816 0.67114 0.44218 0.0
O1234 O 0.04975 0.67109 0.42123 0.0
In1235 In 0.92665 0.32153 0.42799 0.0
O1236 O 0.94568 0.33188 0.4211 0.0
O1237 O 0.94674 0.31148 0.42601 0.0
C1238 C 0.92442 0.3249 0.45446 0.0
C1239 C 0.91421 0.33983 0.41294 0.0
C1240 C 0.91694 0.29738 0.42225 0.0
O1241 O 0.93518 0.32218 0.44876 0.0
O1242 O 0.91465 0.32622 0.44677 0.0
O1243 O 0.92472 0.30351 0.41464 0.0
O1244 O 0.91378 0.30357 0.43264 0.0
C1245 C 0.95281 0.32167 0.42213 0.0
O1246 O 0.9133 0.32758 0.41083 0.0
O1247 O 0.92117 0.34289 0.42286 0.0
H1248 H 0.08569 0.13122 0.4096 0.0
H1249 H 0.16058 0.10785 0.40084 0.0
H1250 H 0.11822 0.15769 0.40137 0.0
H1251 H 0.12903 0.08274 0.41503 0.0
H1252 H 0.14427 0.12496 0.39558 0.0
H1253 H 0.10047 0.11237 0.40619 0.0
C1254 C 0.09589 0.13306 0.40685 0.0
C1255 C 0.10081 0.14602 0.40599 0.0
C1256 C 0.14089 0.11563 0.39965 0.0
C1257 C 0.11779 0.12452 0.40219 0.0
C1258 C 0.15019 0.10584 0.40261 0.0
C1259 C 0.14615 0.09396 0.40858 0.0
C1260 C 0.12748 0.11351 0.40271 0.0
C1261 C 0.13257 0.09184 0.41058 0.0
C1262 C 0.10433 0.12229 0.40494 0.0
C1263 C 0.11407 0.14784 0.40229 0.0
N1264 N 0.12374 0.1016 0.40782 0.0
N1265 N 0.12216 0.1372 0.4007 0.0
H1266 H 0.87082 0.08595 0.40818 0.0
H1267 H 0.89332 0.16107 0.39899 0.0
H1268 H 0.84396 0.11836 0.40072 0.0
H1269 H 0.91787 0.13053 0.41608 0.0
H1270 H 0.87678 0.1443 0.39338 0.0
H1271 H 0.88951 0.10098 0.40481 0.0
C1272 C 0.86886 0.09617 0.40556 0.0
C1273 C 0.85584 0.101 0.40496 0.0
C1274 C 0.88588 0.14125 0.39816 0.0
C1275 C 0.87713 0.1182 0.40118 0.0
C1276 C 0.89534 0.1508 0.40133 0.0
C1277 C 0.90686 0.14719 0.40822 0.0
C1278 C 0.88799 0.12802 0.40189 0.0
C1279 C 0.90903 0.13375 0.41093 0.0
C1280 C 0.87953 0.10474 0.40369 0.0
C1281 C 0.85385 0.11429 0.40145 0.0
N1282 N 0.89959 0.12465 0.40791 0.0
N1283 N 0.8644 0.12248 0.39986 0.0
H1284 H 0.83125 0.88551 0.40699 0.0
H1285 H 0.90749 0.86698 0.4001 0.0
H1286 H 0.86291 0.9142 0.40575 0.0
H1287 H 0.87613 0.83834 0.40482 0.0
H1288 H 0.89087 0.88425 0.39668 0.0
H1289 H 0.847 0.86823 0.40073 0.0
C1290 C 0.84147 0.88822 0.40515 0.0
C1291 C 0.84585 0.90125 0.40713 0.0
C1292 C 0.88762 0.87415 0.39824 0.0
C1293 C 0.86393 0.88153 0.40012 0.0
C1294 C 0.8971 0.86428 0.40016 0.0
C1295 C 0.89315 0.85127 0.40299 0.0
C1296 C 0.87411 0.87098 0.39923 0.0
C1297 C 0.87959 0.84829 0.40285 0.0
C1298 C 0.85046 0.87834 0.4016 0.0
C1299 C 0.85916 0.90423 0.40449 0.0
N1300 N 0.87054 0.85812 0.40122 0.0
N1301 N 0.86778 0.8944 0.40133 0.0
H1302 H 0.08365 0.86937 0.41085 0.0
H1303 H 0.16177 0.87666 0.40549 0.0
H1304 H 0.11055 0.83624 0.40855 0.0
H1305 H 0.13478 0.90978 0.40662 0.0
H1306 H 0.14297 0.86176 0.40232 0.0
H1307 H 0.10186 0.88425 0.40516 0.0
C1308 C 0.09335 0.86521 0.40894 0.0
C1309 C 0.09566 0.85159 0.41038 0.0
C1310 C 0.14116 0.87231 0.40304 0.0
C1311 C 0.11658 0.86855 0.40401 0.0
C1312 C 0.15191 0.88082 0.40481 0.0
C1313 C 0.1498 0.89444 0.40654 0.0
C1314 C 0.12823 0.87745 0.40312 0.0
C1315 C 0.13683 0.89931 0.40548 0.0
C1316 C 0.10376 0.87371 0.4057 0.0
C1317 C 0.10838 0.84671 0.40769 0.0
N1318 N 0.12651 0.8908 0.40406 0.0
N1319 N 0.11842 0.8552 0.40483 0.0
H1320 H 0.13074 0.91613 0.59239 0.0
H1321 H 0.12163 0.83837 0.59707 0.0
H1322 H 0.16325 0.8885 0.59495 0.0
H1323 H 0.08912 0.8661 0.59779 0.0
H1324 H 0.13704 0.85671 0.60039 0.0
H1325 H 0.11547 0.89834 0.59841 0.0
C1326 C 0.13469 0.90638 0.59447 0.0
C1327 C 0.14824 0.90372 0.59296 0.0
C1328 C 0.12652 0.85878 0.60006 0.0
C1329 C 0.13083 0.88328 0.59966 0.0
C1330 C 0.11772 0.8483 0.59818 0.0
C1331 C 0.10411 0.85076 0.59693 0.0
C1332 C 0.12168 0.87183 0.60052 0.0
C1333 C 0.09956 0.86379 0.59855 0.0
C1334 C 0.12596 0.89621 0.59789 0.0
C1335 C 0.15284 0.89093 0.59585 0.0
N1336 N 0.10835 0.87387 0.60002 0.0
N1337 N 0.14413 0.88113 0.59885 0.0
H1338 H 0.083 0.13281 0.59198 0.0
H1339 H 0.16091 0.1227 0.59629 0.0
H1340 H 0.11123 0.16488 0.59275 0.0
H1341 H 0.13268 0.09065 0.59473 0.0
H1342 H 0.1427 0.13825 0.59979 0.0
H1343 H 0.10072 0.11738 0.5977 0.0
C1344 C 0.0929 0.13664 0.59357 0.0
C1345 C 0.09572 0.1501 0.59166 0.0
C1346 C 0.14049 0.12779 0.59891 0.0
C1347 C 0.11607 0.13249 0.59806 0.0
C1348 C 0.15089 0.1189 0.59694 0.0
C1349 C 0.14826 0.10541 0.59498 0.0
C1350 C 0.12738 0.12314 0.59881 0.0
C1351 C 0.13513 0.10101 0.59603 0.0
C1352 C 0.10302 0.12782 0.59683 0.0
C1353 C 0.10867 0.15454 0.59397 0.0
N1354 N 0.12514 0.10989 0.59766 0.0
N1355 N 0.11842 0.14572 0.59685 0.0
H1356 H 0.91023 0.1319 0.59747 0.0
H1357 H 0.8342 0.11183 0.59194 0.0
H1358 H 0.87822 0.15998 0.59367 0.0
H1359 H 0.86642 0.08375 0.59266 0.0
H1360 H 0.84977 0.12946 0.59761 0.0
H1361 H 0.89402 0.11424 0.60078 0.0
C1362 C 0.89979 0.13439 0.59758 0.0
C1363 C 0.89553 0.14737 0.59507 0.0
C1364 C 0.85341 0.11941 0.59673 0.0
C1365 C 0.87695 0.12722 0.59871 0.0
C1366 C 0.84452 0.10934 0.59352 0.0
C1367 C 0.84909 0.09637 0.59161 0.0
C1368 C 0.86696 0.11649 0.59796 0.0
C1369 C 0.86252 0.09366 0.59389 0.0
C1370 C 0.89054 0.12429 0.59944 0.0
C1371 C 0.88191 0.15006 0.59541 0.0
N1372 N 0.87103 0.10368 0.59675 0.0
N1373 N 0.87309 0.14003 0.59698 0.0
H1374 H 0.88806 0.83109 0.59366 0.0
H1375 H 0.83621 0.8752 0.59004 0.0
H1376 H 0.91223 0.86599 0.58887 0.0
H1377 H 0.8644 0.90562 0.60029 0.0
H1378 H 0.85337 0.85859 0.59286 0.0
H1379 H 0.8694 0.84513 0.59991 0.0
C1380 C 0.88944 0.84172 0.59399 0.0
C1381 C 0.90161 0.84742 0.59045 0.0
C1382 C 0.8558 0.8688 0.59497 0.0
C1383 C 0.88018 0.86362 0.59711 0.0
C1384 C 0.84595 0.87834 0.59328 0.0
C1385 C 0.84894 0.89181 0.59478 0.0
C1386 C 0.86877 0.8728 0.59814 0.0
C1387 C 0.86171 0.89533 0.59895 0.0
C1388 C 0.87873 0.84977 0.59742 0.0
C1389 C 0.90295 0.86121 0.59131 0.0
N1390 N 0.87123 0.88589 0.60022 0.0
N1391 N 0.89231 0.86885 0.59439 0.0
H1392 H 0.40265 0.0891 0.13003 0.0
H1393 H 0.40123 0.16576 0.11076 0.0
H1394 H 0.4027 0.12089 0.15859 0.0
H1395 H 0.41124 0.13434 0.08358 0.0
H1396 H 0.3958 0.14917 0.12756 0.0
H1397 H 0.39975 0.10534 0.11231 0.0
C1398 C 0.4018 0.09948 0.13259 0.0
C1399 C 0.40313 0.10369 0.14577 0.0
C1400 C 0.399 0.14591 0.11786 0.0
C1401 C 0.39989 0.12229 0.12556 0.0
C1402 C 0.40206 0.15536 0.10825 0.0
C1403 C 0.40689 0.1514 0.09584 0.0
C1404 C 0.40073 0.13242 0.11499 0.0
C1405 C 0.40771 0.13781 0.09309 0.0
C1406 C 0.40019 0.10874 0.12247 0.0
C1407 C 0.40187 0.11724 0.14854 0.0
N1408 N 0.4048 0.1288 0.10264 0.0
N1409 N 0.40048 0.12609 0.13849 0.0
H1410 H 0.87445 0.40265 0.16155 0.0
H1411 H 0.86595 0.4063 0.08337 0.0
H1412 H 0.90708 0.40244 0.13394 0.0
H1413 H 0.8334 0.40752 0.11106 0.0
H1414 H 0.88083 0.40027 0.10149 0.0
H1415 H 0.85911 0.39966 0.14308 0.0
C1416 C 0.87841 0.40171 0.15162 0.0
C1417 C 0.89203 0.40302 0.14923 0.0
C1418 C 0.8704 0.40166 0.10358 0.0
C1419 C 0.87454 0.39981 0.12805 0.0
C1420 C 0.8619 0.40509 0.09324 0.0
C1421 C 0.84848 0.40762 0.09578 0.0
C1422 C 0.86544 0.40085 0.11656 0.0
C1423 C 0.84373 0.40581 0.1087 0.0
C1424 C 0.86964 0.40004 0.14107 0.0
C1425 C 0.89663 0.40163 0.1362 0.0
N1426 N 0.85224 0.40272 0.11865 0.0
N1427 N 0.88788 0.40032 0.12606 0.0
H1428 H 0.59092 0.87744 0.16075 0.0
H1429 H 0.59042 0.8671 0.08289 0.0
H1430 H 0.59364 0.90944 0.13255 0.0
H1431 H 0.59029 0.83504 0.11116 0.0
H1432 H 0.59561 0.88253 0.1008 0.0
H1433 H 0.59461 0.86164 0.14281 0.0
C1434 C 0.5925 0.88114 0.15081 0.0
C1435 C 0.59176 0.89473 0.14808 0.0
C1436 C 0.59467 0.87209 0.10306 0.0
C1437 C 0.59583 0.87673 0.12748 0.0
C1438 C 0.59173 0.86328 0.09283 0.0
C1439 C 0.5897 0.84982 0.0956 0.0
C1440 C 0.59544 0.86741 0.11615 0.0
C1441 C 0.59161 0.84537 0.10863 0.0
C1442 C 0.59461 0.87212 0.14056 0.0
C1443 C 0.59399 0.89902 0.13505 0.0
N1444 N 0.59416 0.85418 0.11846 0.0
N1445 N 0.59572 0.89003 0.12519 0.0
H1446 H 0.08817 0.5986 0.1372 0.0
H1447 H 0.16354 0.60003 0.11365 0.0
H1448 H 0.1217 0.59332 0.16319 0.0
H1449 H 0.13033 0.59375 0.08749 0.0
H1450 H 0.1481 0.6046 0.13175 0.0
H1451 H 0.10339 0.60374 0.11904 0.0
C1452 C 0.09873 0.59878 0.13914 0.0
C1453 C 0.10373 0.5953 0.15162 0.0
C1454 C 0.14421 0.60246 0.12198 0.0
C1455 C 0.12111 0.60114 0.13096 0.0
C1456 C 0.153 0.5999 0.11165 0.0
C1457 C 0.14817 0.59626 0.09915 0.0
C1458 C 0.13052 0.6014 0.11976 0.0
C1459 C 0.13444 0.59632 0.09705 0.0
C1460 C 0.10739 0.60169 0.12878 0.0
C1461 C 0.11746 0.59577 0.15364 0.0
N1462 N 0.12608 0.59866 0.10732 0.0
N1463 N 0.1257 0.59847 0.14336 0.0
H1464 H 0.40805 0.87872 0.83546 0.0
H1465 H 0.40842 0.86257 0.91221 0.0
H1466 H 0.40196 0.90829 0.8657 0.0
H1467 H 0.40784 0.8325 0.88186 0.0
H1468 H 0.40327 0.87925 0.89542 0.0
H1469 H 0.4051 0.86143 0.85215 0.0
C1470 C 0.40585 0.88156 0.84557 0.0
C1471 C 0.40544 0.89494 0.84926 0.0
C1472 C 0.40406 0.86897 0.89245 0.0
C1473 C 0.40227 0.87525 0.86843 0.0
C1474 C 0.40701 0.85946 0.90204 0.0
C1475 C 0.40874 0.84618 0.89837 0.0
C1476 C 0.40301 0.86518 0.87909 0.0
C1477 C 0.40672 0.84266 0.88508 0.0
C1478 C 0.40419 0.87169 0.85511 0.0
C1479 C 0.40249 0.89808 0.86247 0.0
N1480 N 0.40416 0.85214 0.87589 0.0
N1481 N 0.40124 0.88831 0.87163 0.0
H1482 H 0.08479 0.41812 0.86748 0.0
H1483 H 0.15841 0.40025 0.88887 0.0
H1484 H 0.1134 0.40009 0.84134 0.0
H1485 H 0.12945 0.41746 0.91517 0.0
H1486 H 0.14097 0.39645 0.87254 0.0
H1487 H 0.09976 0.41436 0.88609 0.0
C1488 C 0.09415 0.41319 0.86569 0.0
C1489 C 0.09796 0.40959 0.85283 0.0
C1490 C 0.13838 0.40088 0.88195 0.0
C1491 C 0.11521 0.40538 0.87405 0.0
C1492 C 0.14833 0.40302 0.89129 0.0
C1493 C 0.14538 0.40937 0.90329 0.0
C1494 C 0.12542 0.40521 0.88461 0.0
C1495 C 0.13216 0.41267 0.90597 0.0
C1496 C 0.1027 0.41105 0.87632 0.0
C1497 C 0.11014 0.40314 0.85109 0.0
N1498 N 0.12269 0.41073 0.89661 0.0
N1499 N 0.11842 0.40141 0.86156 0.0
H1500 H 0.60165 0.09327 0.86153 0.0
H1501 H 0.59092 0.16737 0.88695 0.0
H1502 H 0.58708 0.12529 0.83728 0.0
H1503 H 0.59464 0.13361 0.91291 0.0
H1504 H 0.59586 0.15308 0.86805 0.0
H1505 H 0.60537 0.10902 0.87962 0.0
C1506 C 0.59951 0.10366 0.85992 0.0
C1507 C 0.59386 0.10799 0.84799 0.0
C1508 C 0.5958 0.14884 0.87791 0.0
C1509 C 0.59806 0.12596 0.86856 0.0
C1510 C 0.59302 0.15699 0.8887 0.0
C1511 C 0.59215 0.1516 0.90148 0.0
C1512 C 0.59773 0.13522 0.87992 0.0
C1513 C 0.59505 0.13812 0.90319 0.0
C1514 C 0.60158 0.11261 0.87026 0.0
C1515 C 0.59128 0.12153 0.8464 0.0
N1516 N 0.59755 0.13034 0.8925 0.0
N1517 N 0.59327 0.13003 0.85662 0.0
H1518 H 0.86938 0.5845 0.91756 0.0
H1519 H 0.91428 0.59708 0.86803 0.0
H1520 H 0.83932 0.59931 0.89104 0.0
H1521 H 0.87995 0.59522 0.84267 0.0
H1522 H 0.89976 0.60048 0.88706 0.0
H1523 H 0.88621 0.59003 0.90126 0.0
C1524 C 0.86637 0.58923 0.90841 0.0
C1525 C 0.85294 0.59131 0.90557 0.0
C1526 C 0.89537 0.59929 0.87736 0.0
C1527 C 0.87219 0.59788 0.88682 0.0
C1528 C 0.90368 0.59753 0.86646 0.0
C1529 C 0.89828 0.59555 0.85382 0.0
C1530 C 0.88156 0.59888 0.87558 0.0
C1531 C 0.88451 0.59648 0.85229 0.0
C1532 C 0.87602 0.59252 0.8991 0.0
C1533 C 0.84957 0.59746 0.89358 0.0
N1534 N 0.87661 0.59788 0.86308 0.0
N1535 N 0.85912 0.6003 0.88453 0.0
H1536 H 0.15787 0.40384 0.11766 0.0
H1537 H 0.10491 0.39736 0.1605 0.0
H1538 H 0.12927 0.41501 0.08796 0.0
H1539 H 0.08372 0.42054 0.13152 0.0
H1540 H 0.12226 0.39324 0.14423 0.0
H1541 H 0.13994 0.40004 0.13325 0.0
C1542 C 0.14776 0.40519 0.11434 0.0
C1543 C 0.14506 0.40985 0.10154 0.0
C1544 C 0.11391 0.39932 0.14139 0.0
C1545 C 0.12428 0.40534 0.11931 0.0
C1546 C 0.10389 0.40153 0.15066 0.0
C1547 C 0.093 0.40951 0.14742 0.0
C1548 C 0.11311 0.40535 0.12886 0.0
C1549 C 0.09204 0.41446 0.13448 0.0
C1550 C 0.13744 0.40292 0.12325 0.0
C1551 C 0.13179 0.41149 0.09776 0.0
N1552 N 0.10206 0.41244 0.12573 0.0
N1553 N 0.12191 0.40941 0.10667 0.0
H1554 H 0.08273 0.5888 0.86681 0.0
H1555 H 0.15905 0.59939 0.88322 0.0
H1556 H 0.11236 0.59826 0.83748 0.0
H1557 H 0.12945 0.58953 0.91243 0.0
H1558 H 0.14145 0.60328 0.86706 0.0
H1559 H 0.09892 0.59325 0.88424 0.0
C1560 C 0.09259 0.59202 0.86405 0.0
C1561 C 0.09629 0.59296 0.8507 0.0
C1562 C 0.13878 0.60046 0.87706 0.0
C1563 C 0.11489 0.59793 0.87055 0.0
C1564 C 0.14883 0.59827 0.88629 0.0
C1565 C 0.14569 0.59392 0.8991 0.0
C1566 C 0.12553 0.5982 0.88066 0.0
C1567 C 0.1323 0.59271 0.9026 0.0
C1568 C 0.10183 0.59455 0.874 0.0
C1569 C 0.10915 0.59727 0.84767 0.0
N1570 N 0.12271 0.59465 0.89337 0.0
N1571 N 0.11805 0.59941 0.85752 0.0
H1572 H 0.40883 0.08172 0.8679 0.0
H1573 H 0.40236 0.15914 0.88218 0.0
H1574 H 0.40763 0.11151 0.83727 0.0
H1575 H 0.41028 0.12962 0.91206 0.0
H1576 H 0.39892 0.14145 0.86597 0.0
H1577 H 0.40399 0.09875 0.88435 0.0
C1578 C 0.40735 0.09183 0.86461 0.0
C1579 C 0.40884 0.09527 0.85124 0.0
C1580 C 0.4012 0.13885 0.87612 0.0
C1581 C 0.40341 0.11481 0.87002 0.0
C1582 C 0.40312 0.14893 0.88539 0.0
C1583 C 0.40681 0.14581 0.89842 0.0
C1584 C 0.40297 0.12559 0.87996 0.0
C1585 C 0.40761 0.13244 0.90206 0.0
C1586 C 0.40461 0.10155 0.87401 0.0
C1587 C 0.4067 0.10848 0.84751 0.0
N1588 N 0.40586 0.12282 0.89284 0.0
N1589 N 0.40426 0.11782 0.85689 0.0
H1590 H 0.83814 0.40461 0.87788 0.0
H1591 H 0.91526 0.40889 0.86546 0.0
H1592 H 0.86729 0.40308 0.9091 0.0
H1593 H 0.8866 0.40513 0.834 0.0
H1594 H 0.89814 0.40295 0.88146 0.0
H1595 H 0.85572 0.40104 0.86163 0.0
C1596 C 0.84821 0.40328 0.88133 0.0
C1597 C 0.85131 0.40438 0.89482 0.0
C1598 C 0.89562 0.40318 0.87104 0.0
C1599 C 0.87149 0.40046 0.87631 0.0
C1600 C 0.90541 0.40657 0.8619 0.0
C1601 C 0.90226 0.40771 0.84843 0.0
C1602 C 0.88256 0.40115 0.86668 0.0
C1603 C 0.88939 0.40448 0.84433 0.0
C1604 C 0.85826 0.40125 0.87205 0.0
C1605 C 0.8645 0.40247 0.89876 0.0
N1606 N 0.87993 0.40159 0.85345 0.0
N1607 N 0.87413 0.40083 0.88953 0.0
H1608 H 0.59237 0.88947 0.83479 0.0
H1609 H 0.59722 0.86467 0.90964 0.0
H1610 H 0.59052 0.9154 0.86871 0.0
H1611 H 0.59275 0.83878 0.87595 0.0
H1612 H 0.6002 0.88338 0.89455 0.0
H1613 H 0.59792 0.87105 0.84947 0.0
C1614 C 0.59335 0.89133 0.84532 0.0
C1615 C 0.59078 0.90392 0.85058 0.0
C1616 C 0.59878 0.87357 0.89046 0.0
C1617 C 0.59701 0.88288 0.86744 0.0
C1618 C 0.59713 0.86288 0.89906 0.0
C1619 C 0.59453 0.8502 0.89402 0.0
C1620 C 0.59782 0.87155 0.87673 0.0
C1621 C 0.59457 0.84843 0.88024 0.0
C1622 C 0.59649 0.88081 0.85369 0.0
C1623 C 0.59228 0.90581 0.86426 0.0
N1624 N 0.59601 0.85901 0.87207 0.0
N1625 N 0.59513 0.89535 0.87225 0.0
H1626 H 0.88947 0.59328 0.16157 0.0
H1627 H 0.86973 0.59042 0.0856 0.0
H1628 H 0.91736 0.58716 0.12977 0.0
H1629 H 0.84172 0.59744 0.11711 0.0
H1630 H 0.88784 0.59369 0.10126 0.0
H1631 H 0.87258 0.59927 0.14529 0.0
C1632 C 0.8921 0.59344 0.15117 0.0
C1633 C 0.90474 0.58949 0.14698 0.0
C1634 C 0.87775 0.59473 0.10473 0.0
C1635 C 0.88547 0.59617 0.1283 0.0
C1636 C 0.8674 0.59287 0.09578 0.0
C1637 C 0.85423 0.59343 0.10014 0.0
C1638 C 0.87489 0.59699 0.11816 0.0
C1639 C 0.85176 0.59678 0.11339 0.0
C1640 C 0.88245 0.59683 0.14187 0.0
C1641 C 0.90767 0.58996 0.13341 0.0
N1642 N 0.862 0.5982 0.122 0.0
N1643 N 0.89804 0.59303 0.12454 0.0
H1644 H 0.40453 0.86799 0.08406 0.0
H1645 H 0.40004 0.8889 0.16 0.0
H1646 H 0.39992 0.84036 0.11636 0.0
H1647 H 0.40994 0.91572 0.12822 0.0
H1648 H 0.3946 0.87191 0.14364 0.0
H1649 H 0.401 0.88627 0.09953 0.0
C1650 C 0.4025 0.86576 0.09436 0.0
C1651 C 0.40275 0.85267 0.099 0.0
C1652 C 0.39778 0.88157 0.14024 0.0
C1653 C 0.39886 0.87351 0.11674 0.0
C1654 C 0.40086 0.89128 0.14957 0.0
C1655 C 0.40566 0.90364 0.14544 0.0
C1656 C 0.39954 0.88426 0.1267 0.0
C1657 C 0.40644 0.90624 0.13182 0.0
C1658 C 0.40054 0.8762 0.10319 0.0
C1659 C 0.39998 0.85033 0.11241 0.0
N1660 N 0.40358 0.89656 0.12293 0.0
N1661 N 0.39834 0.86067 0.12086 0.0
H1662 H 0.59687 0.13297 0.09026 0.0
H1663 H 0.5876 0.11176 0.1658 0.0
H1664 H 0.5885 0.16037 0.12197 0.0
H1665 H 0.59086 0.08413 0.13336 0.0
H1666 H 0.59288 0.12985 0.15059 0.0
H1667 H 0.59972 0.11532 0.10659 0.0
C1668 C 0.59586 0.13532 0.10068 0.0
C1669 C 0.59224 0.14809 0.10478 0.0
C1670 C 0.59262 0.11981 0.14683 0.0
C1671 C 0.59536 0.12795 0.12348 0.0
C1672 C 0.58964 0.10948 0.15552 0.0
C1673 C 0.5886 0.09647 0.15077 0.0
C1674 C 0.59454 0.11709 0.13332 0.0
C1675 C 0.59141 0.09405 0.13739 0.0
C1676 C 0.59745 0.12524 0.10999 0.0
C1677 C 0.59114 0.15061 0.11839 0.0
N1678 N 0.5941 0.10429 0.12909 0.0
N1679 N 0.59252 0.14059 0.12725 0.0
H1680 H 0.63359 0.58243 0.90948 0.0
H1681 H 0.58945 0.63352 0.89753 0.0
H1682 H 0.66447 0.61135 0.90347 0.0
H1683 H 0.62231 0.65805 0.90953 0.0
H1684 H 0.6048 0.61508 0.8941 0.0
H1685 H 0.61709 0.59933 0.90445 0.0
C1686 C 0.6369 0.59227 0.90678 0.0
C1687 C 0.65039 0.59554 0.90703 0.0
C1688 C 0.60866 0.62448 0.89749 0.0
C1689 C 0.63159 0.61496 0.9011 0.0
C1690 C 0.59992 0.63506 0.89929 0.0
C1691 C 0.60461 0.64723 0.90407 0.0
C1692 C 0.62214 0.62614 0.90056 0.0
C1693 C 0.61826 0.64875 0.90605 0.0
C1694 C 0.62746 0.60193 0.90379 0.0
C1695 C 0.65415 0.60844 0.90349 0.0
N1696 N 0.62653 0.63829 0.9044 0.0
N1697 N 0.64478 0.61773 0.9009 0.0
H1698 H 0.41509 0.62851 0.90803 0.0
H1699 H 0.33735 0.61621 0.90416 0.0
H1700 H 0.38594 0.65972 0.9061 0.0
H1701 H 0.36635 0.5849 0.90662 0.0
H1702 H 0.35521 0.63211 0.90046 0.0
H1703 H 0.39771 0.61235 0.90318 0.0
C1704 C 0.40507 0.63197 0.90637 0.0
C1705 C 0.40189 0.64542 0.90768 0.0
C1706 C 0.35767 0.62174 0.90161 0.0
C1707 C 0.38197 0.62703 0.90227 0.0
C1708 C 0.34747 0.61266 0.9037 0.0
C1709 C 0.35041 0.59927 0.90592 0.0
C1710 C 0.37089 0.6174 0.90186 0.0
C1711 C 0.36367 0.59517 0.90511 0.0
C1712 C 0.39515 0.62275 0.90362 0.0
C1713 C 0.38878 0.64941 0.90535 0.0
N1714 N 0.37344 0.60424 0.90334 0.0
N1715 N 0.37926 0.64022 0.90293 0.0
H1716 H 0.41064 0.36537 0.90294 0.0
H1717 H 0.33418 0.38478 0.89992 0.0
H1718 H 0.37867 0.33702 0.90244 0.0
H1719 H 0.36582 0.41258 0.90718 0.0
H1720 H 0.35065 0.3677 0.89504 0.0
H1721 H 0.39468 0.38307 0.89867 0.0
C1722 C 0.40029 0.36284 0.90169 0.0
C1723 C 0.39591 0.34976 0.90328 0.0
C1724 C 0.35399 0.37759 0.8975 0.0
C1725 C 0.37762 0.36993 0.89851 0.0
C1726 C 0.34459 0.38735 0.90025 0.0
C1727 C 0.34867 0.40002 0.90419 0.0
C1728 C 0.36752 0.38056 0.89871 0.0
C1729 C 0.36227 0.40286 0.90437 0.0
C1730 C 0.39118 0.37295 0.89928 0.0
C1731 C 0.38242 0.34701 0.90146 0.0
N1732 N 0.37122 0.39315 0.90185 0.0
N1733 N 0.37371 0.35705 0.89935 0.0
H1734 H 0.58347 0.36653 0.90755 0.0
H1735 H 0.66117 0.37749 0.90223 0.0
H1736 H 0.61223 0.33491 0.9074 0.0
H1737 H 0.63258 0.40919 0.90437 0.0
H1738 H 0.64311 0.36177 0.89878 0.0
H1739 H 0.60088 0.38207 0.90114 0.0
C1740 C 0.59341 0.36282 0.90593 0.0
C1741 C 0.59648 0.34948 0.90825 0.0
C1742 C 0.64079 0.37219 0.89977 0.0
C1743 C 0.61646 0.3672 0.90107 0.0
C1744 C 0.6511 0.38117 0.90171 0.0
C1745 C 0.64832 0.39461 0.90384 0.0
C1746 C 0.62762 0.37668 0.90009 0.0
C1747 C 0.63513 0.39887 0.90295 0.0
C1748 C 0.60335 0.3717 0.90229 0.0
C1749 C 0.60948 0.34517 0.9059 0.0
N1750 N 0.62524 0.3899 0.90136 0.0
N1751 N 0.61904 0.35404 0.90264 0.0
H1752 H 0.62192 0.33822 0.09704 0.0
H1753 H 0.63217 0.41613 0.09273 0.0
H1754 H 0.58993 0.36654 0.09585 0.0
H1755 H 0.66404 0.38766 0.09185 0.0
H1756 H 0.61686 0.39845 0.09893 0.0
H1757 H 0.63757 0.35638 0.10032 0.0
C1758 C 0.61816 0.34824 0.09774 0.0
C1759 C 0.60465 0.35092 0.09593 0.0
C1760 C 0.62723 0.3961 0.09759 0.0
C1761 C 0.62249 0.37174 0.09949 0.0
C1762 C 0.63598 0.4062 0.09407 0.0
C1763 C 0.64933 0.40329 0.09154 0.0
C1764 C 0.63187 0.383 0.0985 0.0
C1765 C 0.65377 0.39028 0.09353 0.0
C1766 C 0.6271 0.35861 0.09957 0.0
C1767 C 0.6003 0.36406 0.09703 0.0
N1768 N 0.64502 0.38058 0.0967 0.0
N1769 N 0.60923 0.37402 0.09852 0.0
H1770 H 0.66314 0.62331 0.09108 0.0
H1771 H 0.58518 0.63491 0.09505 0.0
H1772 H 0.63455 0.59189 0.09565 0.0
H1773 H 0.61366 0.6656 0.08649 0.0
H1774 H 0.60339 0.6198 0.10022 0.0
H1775 H 0.6455 0.63953 0.09438 0.0
C1776 C 0.65318 0.61983 0.093 0.0
C1777 C 0.65024 0.60625 0.09288 0.0
C1778 C 0.60565 0.62989 0.0974 0.0
C1779 C 0.62999 0.62474 0.09652 0.0
C1780 C 0.59526 0.63853 0.09448 0.0
C1781 C 0.59795 0.65145 0.09013 0.0
C1782 C 0.6188 0.63421 0.09592 0.0
C1783 C 0.61117 0.65566 0.08964 0.0
C1784 C 0.6431 0.62909 0.09486 0.0
C1785 C 0.6372 0.60227 0.09553 0.0
N1786 N 0.62112 0.64701 0.09233 0.0
N1787 N 0.62751 0.61148 0.09705 0.0
H1788 H 0.36548 0.58461 0.09306 0.0
H1789 H 0.40878 0.63673 0.10246 0.0
H1790 H 0.33426 0.61378 0.09407 0.0
H1791 H 0.37645 0.66003 0.08699 0.0
H1792 H 0.39331 0.61863 0.10684 0.0
H1793 H 0.38156 0.60195 0.09777 0.0
C1794 C 0.36198 0.59463 0.09462 0.0
C1795 C 0.34856 0.59781 0.093 0.0
C1796 C 0.38959 0.62767 0.10246 0.0
C1797 C 0.36687 0.61776 0.09858 0.0
C1798 C 0.39839 0.63807 0.10011 0.0
C1799 C 0.39391 0.64977 0.09409 0.0
C1800 C 0.37625 0.629 0.09866 0.0
C1801 C 0.38035 0.65108 0.09143 0.0
C1802 C 0.37117 0.60456 0.09742 0.0
C1803 C 0.34455 0.61093 0.09511 0.0
N1804 N 0.37203 0.64076 0.0936 0.0
N1805 N 0.3537 0.62047 0.09755 0.0
H1806 H 0.41633 0.36995 0.0832 0.0
H1807 H 0.33976 0.38409 0.09692 0.0
H1808 H 0.38831 0.33988 0.09492 0.0
H1809 H 0.3674 0.41327 0.08239 0.0
H1810 H 0.35823 0.36874 0.10039 0.0
H1811 H 0.39943 0.38685 0.08708 0.0
C1812 C 0.40668 0.36693 0.0868 0.0
C1813 C 0.40364 0.3535 0.08856 0.0
C1814 C 0.36027 0.37857 0.09661 0.0
C1815 C 0.38422 0.37273 0.09288 0.0
C1816 C 0.34974 0.38733 0.09466 0.0
C1817 C 0.35205 0.39988 0.08918 0.0
C1818 C 0.37317 0.3824 0.09303 0.0
C1819 C 0.36516 0.40362 0.08648 0.0
C1820 C 0.39702 0.37657 0.08898 0.0
C1821 C 0.39102 0.35013 0.0933 0.0
N1822 N 0.37521 0.39486 0.0883 0.0
N1823 N 0.38171 0.35967 0.09513 0.0
H1824 H 0.90781 0.6321 0.58395 0.0
H1825 H 0.91039 0.62138 0.66186 0.0
H1826 H 0.91321 0.66379 0.61209 0.0
H1827 H 0.90272 0.59004 0.63385 0.0
H1828 H 0.90785 0.63758 0.64407 0.0
H1829 H 0.90242 0.61714 0.60219 0.0
C1830 C 0.90768 0.63595 0.59396 0.0
C1831 C 0.91114 0.64914 0.59655 0.0
C1832 C 0.90652 0.62718 0.64184 0.0
C1833 C 0.90512 0.63207 0.61748 0.0
C1834 C 0.90794 0.61793 0.652 0.0
C1835 C 0.90696 0.60435 0.64927 0.0
C1836 C 0.90422 0.6228 0.62883 0.0
C1837 C 0.90369 0.60042 0.63635 0.0
C1838 C 0.9046 0.62741 0.60438 0.0
C1839 C 0.91072 0.65365 0.60968 0.0
N1840 N 0.90264 0.60959 0.62656 0.0
N1841 N 0.90795 0.64508 0.61968 0.0
H1842 H 0.33268 0.90561 0.61397 0.0
H1843 H 0.40838 0.89574 0.63366 0.0
H1844 H 0.36476 0.90371 0.58579 0.0
H1845 H 0.37719 0.9054 0.66124 0.0
H1846 H 0.39169 0.89208 0.61647 0.0
H1847 H 0.34799 0.89901 0.6315 0.0
C1848 C 0.3429 0.90355 0.61142 0.0
C1849 C 0.34753 0.90546 0.59847 0.0
C1850 C 0.38849 0.89474 0.62636 0.0
C1851 C 0.36511 0.89802 0.61848 0.0
C1852 C 0.398 0.89677 0.63619 0.0
C1853 C 0.39415 0.90112 0.64881 0.0
C1854 C 0.37507 0.89707 0.62921 0.0
C1855 C 0.38059 0.90224 0.65157 0.0
C1856 C 0.35164 0.89981 0.62144 0.0
C1857 C 0.36083 0.90253 0.59569 0.0
N1858 N 0.37154 0.90043 0.64179 0.0
N1859 N 0.36922 0.89916 0.60567 0.0
H1860 H 0.09793 0.3801 0.65894 0.0
H1861 H 0.088 0.36883 0.58135 0.0
H1862 H 0.08785 0.41097 0.63115 0.0
H1863 H 0.09128 0.33711 0.60982 0.0
H1864 H 0.09339 0.38471 0.59878 0.0
H1865 H 0.10084 0.36473 0.64042 0.0
C1866 C 0.09656 0.3837 0.64892 0.0
C1867 C 0.09245 0.39676 0.64656 0.0
C1868 C 0.09312 0.37426 0.60118 0.0
C1869 C 0.0957 0.37926 0.62538 0.0
C1870 C 0.09009 0.36518 0.59123 0.0
C1871 C 0.08898 0.35167 0.59421 0.0
C1872 C 0.09501 0.36978 0.61422 0.0
C1873 C 0.09188 0.34747 0.60714 0.0
C1874 C 0.09819 0.37492 0.63837 0.0
C1875 C 0.09086 0.40093 0.63341 0.0
N1876 N 0.09459 0.35652 0.61672 0.0
N1877 N 0.09235 0.39217 0.62332 0.0
H1878 H 0.58834 0.09573 0.63215 0.0
H1879 H 0.63119 0.08682 0.57969 0.0
H1880 H 0.6231 0.09005 0.65633 0.0
H1881 H 0.66281 0.09156 0.60802 0.0
H1882 H 0.61526 0.09253 0.59676 0.0
H1883 H 0.60253 0.09939 0.61298 0.0
C1884 C 0.59898 0.09535 0.63342 0.0
C1885 C 0.60455 0.09229 0.64577 0.0
C1886 C 0.62565 0.09276 0.59928 0.0
C1887 C 0.62094 0.09593 0.62375 0.0
C1888 C 0.6348 0.08942 0.58945 0.0
C1889 C 0.64831 0.08852 0.5925 0.0
C1890 C 0.63009 0.0952 0.61227 0.0
C1891 C 0.65245 0.09199 0.60529 0.0
C1892 C 0.60713 0.09729 0.62241 0.0
C1893 C 0.61838 0.09217 0.64694 0.0
N1894 N 0.64335 0.09496 0.61475 0.0
N1895 N 0.62609 0.09376 0.63603 0.0
H1896 H 0.89904 0.33555 0.39095 0.0
H1897 H 0.90311 0.38032 0.33945 0.0
H1898 H 0.91738 0.36669 0.41373 0.0
H1899 H 0.9067 0.41059 0.36938 0.0
H1900 H 0.90041 0.3638 0.35677 0.0
H1901 H 0.89335 0.35167 0.37388 0.0
C1902 C 0.90181 0.34581 0.39238 0.0
C1903 C 0.90893 0.34976 0.40363 0.0
C1904 C 0.90134 0.37407 0.35963 0.0
C1905 C 0.90291 0.3682 0.38391 0.0
C1906 C 0.90299 0.38352 0.34969 0.0
C1907 C 0.90526 0.39681 0.35299 0.0
C1908 C 0.90201 0.37796 0.373 0.0
C1909 C 0.90506 0.40042 0.3664 0.0
C1910 C 0.89869 0.35501 0.38254 0.0
C1911 C 0.91204 0.36321 0.40511 0.0
N1912 N 0.90369 0.39101 0.37592 0.0
N1913 N 0.90915 0.37192 0.39528 0.0
H1914 H 0.66007 0.90382 0.39122 0.0
H1915 H 0.58492 0.90816 0.36773 0.0
H1916 H 0.62713 0.91203 0.41719 0.0
H1917 H 0.61797 0.90321 0.34109 0.0
H1918 H 0.59978 0.9046 0.38647 0.0
H1919 H 0.64444 0.89863 0.37345 0.0
C1920 C 0.64954 0.90429 0.39325 0.0
C1921 C 0.64487 0.90857 0.40561 0.0
C1922 C 0.60376 0.9041 0.37652 0.0
C1923 C 0.62696 0.90278 0.38535 0.0
C1924 C 0.59527 0.90611 0.36582 0.0
C1925 C 0.60028 0.9062 0.35287 0.0
C1926 C 0.61737 0.90228 0.37425 0.0
C1927 C 0.61375 0.90337 0.35094 0.0
C1928 C 0.64063 0.90137 0.3831 0.0
C1929 C 0.63115 0.90894 0.40774 0.0
N1930 N 0.62188 0.90172 0.36154 0.0
N1931 N 0.62268 0.90626 0.39765 0.0
H1932 H 0.08727 0.63347 0.41911 0.0
H1933 H 0.09394 0.62079 0.34144 0.0
H1934 H 0.08654 0.6645 0.38972 0.0
H1935 H 0.08847 0.58992 0.37049 0.0
H1936 H 0.09651 0.63687 0.35937 0.0
H1937 H 0.09292 0.61754 0.40182 0.0
C1938 C 0.08849 0.63696 0.40904 0.0
C1939 C 0.08623 0.65028 0.40578 0.0
C1940 C 0.09496 0.62654 0.36182 0.0
C1941 C 0.0926 0.63209 0.38595 0.0
C1942 C 0.09353 0.61736 0.35159 0.0
C1943 C 0.09078 0.60405 0.35451 0.0
C1944 C 0.09361 0.62237 0.37502 0.0
C1945 C 0.09042 0.60012 0.36782 0.0
C1946 C 0.09169 0.62786 0.39917 0.0
C1947 C 0.08805 0.65429 0.39261 0.0
N1948 N 0.09165 0.60927 0.37759 0.0
N1949 N 0.09097 0.64519 0.38313 0.0
H1950 H 0.3783 0.09446 0.33795 0.0
H1951 H 0.36665 0.0862 0.4151 0.0
H1952 H 0.40997 0.09261 0.36659 0.0
H1953 H 0.33509 0.09339 0.3872 0.0
H1954 H 0.38277 0.09179 0.39793 0.0
H1955 H 0.36246 0.09735 0.35604 0.0
C1956 C 0.38194 0.0949 0.34803 0.0
C1957 C 0.39543 0.09309 0.35081 0.0
C1958 C 0.37231 0.09236 0.3956 0.0
C1959 C 0.37738 0.09622 0.37155 0.0
C1960 C 0.36311 0.08918 0.40542 0.0
C1961 C 0.34954 0.08915 0.40249 0.0
C1962 C 0.3679 0.09535 0.38274 0.0
C1963 C 0.34548 0.09316 0.38982 0.0
C1964 C 0.37289 0.09654 0.35837 0.0
C1965 C 0.39963 0.09382 0.36403 0.0
N1966 N 0.35463 0.09589 0.38034 0.0
N1967 N 0.39061 0.09512 0.37393 0.0
H1968 H 0.58539 0.90057 0.637 0.0
H1969 H 0.66255 0.90521 0.62344 0.0
H1970 H 0.61449 0.90869 0.66723 0.0
H1971 H 0.63361 0.89586 0.59342 0.0
H1972 H 0.64566 0.90185 0.64043 0.0
H1973 H 0.60321 0.89428 0.62188 0.0
C1974 C 0.59552 0.90081 0.64053 0.0
C1975 C 0.5985 0.90538 0.65329 0.0
C1976 C 0.64304 0.90029 0.63015 0.0
C1977 C 0.61895 0.89836 0.63602 0.0
C1978 C 0.6527 0.90217 0.62045 0.0
C1979 C 0.64939 0.90105 0.60701 0.0
C1980 C 0.62996 0.89742 0.62635 0.0
C1981 C 0.63653 0.89699 0.60368 0.0
C1982 C 0.6057 0.89723 0.63189 0.0
C1983 C 0.61178 0.90539 0.65739 0.0
N1984 N 0.62721 0.89555 0.61328 0.0
N1985 N 0.62153 0.90215 0.64871 0.0
H1986 H 0.63557 0.09554 0.40868 0.0
H1987 H 0.6107 0.09366 0.33383 0.0
H1988 H 0.66152 0.09329 0.37479 0.0
H1989 H 0.58486 0.09094 0.36777 0.0
H1990 H 0.62915 0.09892 0.34859 0.0
H1991 H 0.61685 0.0993 0.39379 0.0
C1992 C 0.63736 0.09609 0.39812 0.0
C1993 C 0.65006 0.09387 0.39293 0.0
C1994 C 0.61941 0.09737 0.3528 0.0
C1995 C 0.6287 0.09803 0.37586 0.0
C1996 C 0.60887 0.0944 0.34437 0.0
C1997 C 0.5963 0.09164 0.34962 0.0
C1998 C 0.61736 0.09753 0.36656 0.0
C1999 C 0.59444 0.09283 0.36334 0.0
C2000 C 0.62667 0.0982 0.38962 0.0
C2001 C 0.65185 0.09478 0.37919 0.0
N2002 N 0.6049 0.09551 0.37136 0.0
N2003 N 0.64125 0.0966 0.37111 0.0
H2004 H 0.90636 0.61365 0.33312 0.0
H2005 H 0.89623 0.63411 0.40869 0.0
H2006 H 0.90348 0.58579 0.3654 0.0
H2007 H 0.9048 0.66182 0.3773 0.0
H2008 H 0.89342 0.61664 0.39218 0.0
H2009 H 0.90046 0.63153 0.34835 0.0
C2010 C 0.90426 0.61127 0.34337 0.0
C2011 C 0.90562 0.59827 0.34807 0.0
C2012 C 0.8957 0.62659 0.38888 0.0
C2013 C 0.89896 0.61865 0.36554 0.0
C2014 C 0.89726 0.63657 0.3983 0.0
C2015 C 0.90097 0.64936 0.39435 0.0
C2016 C 0.89791 0.62943 0.37544 0.0
C2017 C 0.9021 0.65204 0.38077 0.0
C2018 C 0.90092 0.62148 0.35206 0.0
C2019 C 0.90271 0.59571 0.36141 0.0
N2020 N 0.90076 0.6421 0.3718 0.0
N2021 N 0.89968 0.60584 0.36972 0.0
H2022 H 0.39099 0.89876 0.33533 0.0
H2023 H 0.37124 0.90634 0.41147 0.0
H2024 H 0.41691 0.91439 0.3655 0.0
H2025 H 0.34314 0.89926 0.38007 0.0
H2026 H 0.38932 0.90341 0.39564 0.0
H2027 H 0.37481 0.89316 0.35249 0.0
C2028 C 0.39338 0.90079 0.34559 0.0
C2029 C 0.4052 0.90724 0.349 0.0
C2030 C 0.3792 0.90228 0.39226 0.0
C2031 C 0.38676 0.90091 0.36862 0.0
C2032 C 0.36888 0.9039 0.4013 0.0
C2033 C 0.35568 0.90326 0.39701 0.0
C2034 C 0.37628 0.90001 0.37885 0.0
C2035 C 0.35318 0.9 0.38374 0.0
C2036 C 0.38413 0.89763 0.35537 0.0
C2037 C 0.40783 0.90958 0.36243 0.0
N2038 N 0.3634 0.89867 0.37508 0.0
N2039 N 0.39861 0.90655 0.37175 0.0
H2040 H 0.083 0.41791 0.36682 0.0
H2041 H 0.09634 0.36735 0.41082 0.0
H2042 H 0.09864 0.39224 0.33646 0.0
H2043 H 0.09249 0.34273 0.37611 0.0
H2044 H 0.0993 0.38665 0.39651 0.0
H2045 H 0.08789 0.401 0.38333 0.0
C2046 C 0.08778 0.40883 0.36369 0.0
C2047 C 0.09033 0.40642 0.35026 0.0
C2048 C 0.09779 0.37704 0.39201 0.0
C2049 C 0.09608 0.38699 0.36911 0.0
C2050 C 0.09625 0.366 0.40018 0.0
C2051 C 0.0939 0.35348 0.39462 0.0
C2052 C 0.09687 0.37554 0.37821 0.0
C2053 C 0.09408 0.35224 0.38079 0.0
C2054 C 0.09068 0.39918 0.37315 0.0
C2055 C 0.09648 0.39447 0.34672 0.0
N2056 N 0.09538 0.36317 0.37305 0.0
N2057 N 0.09891 0.38509 0.35606 0.0
H2058 H 0.34082 0.09756 0.61895 0.0
H2059 H 0.41813 0.08813 0.63057 0.0
H2060 H 0.36912 0.09051 0.5877 0.0
H2061 H 0.38943 0.09217 0.66199 0.0
H2062 H 0.40109 0.09436 0.61455 0.0
H2063 H 0.35912 0.10102 0.6344 0.0
C2064 C 0.35089 0.09701 0.61528 0.0
C2065 C 0.35348 0.0935 0.60209 0.0
C2066 C 0.39857 0.09411 0.62497 0.0
C2067 C 0.37445 0.09729 0.61973 0.0
C2068 C 0.4083 0.09058 0.63413 0.0
C2069 C 0.40511 0.0894 0.64759 0.0
C2070 C 0.38554 0.09638 0.62932 0.0
C2071 C 0.39226 0.09279 0.65167 0.0
C2072 C 0.36134 0.09895 0.62412 0.0
C2073 C 0.3667 0.09302 0.59784 0.0
N2074 N 0.38289 0.09593 0.64254 0.0
N2075 N 0.3767 0.09467 0.60669 0.0
H2076 H 0.90361 0.36595 0.58675 0.0
H2077 H 0.89998 0.39186 0.66135 0.0
H2078 H 0.90148 0.34017 0.62078 0.0
H2079 H 0.91406 0.41502 0.6283 0.0
H2080 H 0.89399 0.37406 0.64597 0.0
H2081 H 0.90065 0.38504 0.60132 0.0
C2082 C 0.90223 0.36429 0.59726 0.0
C2083 C 0.90303 0.35149 0.60261 0.0
C2084 C 0.89818 0.38314 0.64209 0.0
C2085 C 0.89974 0.37326 0.61931 0.0
C2086 C 0.90156 0.3933 0.65084 0.0
C2087 C 0.90771 0.40481 0.64607 0.0
C2088 C 0.90087 0.3846 0.62852 0.0
C2089 C 0.90951 0.40621 0.63238 0.0
C2090 C 0.9006 0.37519 0.60557 0.0
C2091 C 0.90109 0.3499 0.61628 0.0
N2092 N 0.90622 0.39616 0.62409 0.0
N2093 N 0.89972 0.36069 0.62421 0.0
H2094 H 0.08696 0.58106 0.63128 0.0
H2095 H 0.10085 0.63211 0.58799 0.0
H2096 H 0.09864 0.6078 0.66248 0.0
H2097 H 0.09207 0.65653 0.62194 0.0
H2098 H 0.10391 0.61314 0.60272 0.0
H2099 H 0.09209 0.59816 0.61502 0.0
C2100 C 0.09093 0.59043 0.63467 0.0
C2101 C 0.09228 0.59307 0.64823 0.0
C2102 C 0.10132 0.62264 0.60695 0.0
C2103 C 0.09829 0.6127 0.6297 0.0
C2104 C 0.09972 0.63351 0.59856 0.0
C2105 C 0.09594 0.64583 0.60375 0.0
C2106 C 0.09905 0.62414 0.62059 0.0
C2107 C 0.09478 0.64715 0.61752 0.0
C2108 C 0.09397 0.60019 0.62537 0.0
C2109 C 0.0974 0.60539 0.65211 0.0
N2110 N 0.0962 0.63638 0.62547 0.0
N2111 N 0.09997 0.61485 0.6429 0.0
H2112 H 0.08202 0.21625 0.39348 0.0
H2113 H 0.1048 0.28399 0.42754 0.0
H2114 H 0.1017 0.21866 0.43133 0.0
H2115 H 0.07962 0.28199 0.39307 0.0
H2116 H 0.10783 0.25999 0.42642 0.0
H2117 H 0.08509 0.24015 0.39065 0.0
C2118 C 0.08717 0.22178 0.40109 0.0
C2119 C 0.09147 0.21552 0.41273 0.0
C2120 C 0.10178 0.26482 0.419 0.0
C2121 C 0.09495 0.24281 0.4096 0.0
C2122 C 0.10009 0.27853 0.4196 0.0
C2123 C 0.09181 0.28495 0.41049 0.0
C2124 C 0.09513 0.2575 0.40921 0.0
C2125 C 0.08599 0.2774 0.40037 0.0
C2126 C 0.08889 0.23541 0.39949 0.0
C2127 C 0.09811 0.22313 0.42226 0.0
N2128 N 0.08764 0.26404 0.4001 0.0
N2129 N 0.09954 0.23639 0.42054 0.0
H2130 H 0.78502 0.10522 0.42232 0.0
H2131 H 0.72029 0.07151 0.39216 0.0
H2132 H 0.78563 0.07216 0.39525 0.0
H2133 H 0.71932 0.10314 0.42087 0.0
H2134 H 0.74422 0.07431 0.39018 0.0
H2135 H 0.76113 0.10726 0.41892 0.0
C2136 C 0.78015 0.09852 0.41549 0.0
C2137 C 0.78727 0.08839 0.40918 0.0
C2138 C 0.73877 0.08075 0.3968 0.0
C2139 C 0.75994 0.0906 0.40534 0.0
C2140 C 0.7251 0.07917 0.39792 0.0
C2141 C 0.71785 0.08699 0.40683 0.0
C2142 C 0.74527 0.09016 0.40471 0.0
C2143 C 0.72456 0.09683 0.41396 0.0
C2144 C 0.76651 0.09967 0.41358 0.0
C2145 C 0.7805 0.08003 0.40041 0.0
N2146 N 0.73794 0.09803 0.41288 0.0
N2147 N 0.76718 0.08123 0.39886 0.0
H2148 H 0.92512 0.78334 0.39591 0.0
H2149 H 0.89263 0.71706 0.42496 0.0
H2150 H 0.89834 0.78276 0.42921 0.0
H2151 H 0.92834 0.71757 0.40147 0.0
H2152 H 0.89123 0.74121 0.42284 0.0
H2153 H 0.92297 0.75922 0.39412 0.0
C2154 C 0.91866 0.77815 0.40272 0.0
C2155 C 0.91199 0.785 0.4128 0.0
C2156 C 0.89929 0.736 0.41805 0.0
C2157 C 0.90947 0.75752 0.4108 0.0
C2158 C 0.90006 0.72224 0.41921 0.0
C2159 C 0.91068 0.71536 0.41348 0.0
C2160 C 0.90913 0.74287 0.411 0.0
C2161 C 0.92005 0.72253 0.40614 0.0
C2162 C 0.91747 0.76441 0.40173 0.0
C2163 C 0.90374 0.77782 0.42138 0.0
N2164 N 0.91909 0.73591 0.40515 0.0
N2165 N 0.90275 0.76446 0.42022 0.0
H2166 H 0.21852 0.92283 0.39647 0.0
H2167 H 0.28599 0.89299 0.42538 0.0
H2168 H 0.22035 0.89389 0.42787 0.0
H2169 H 0.28415 0.92517 0.39731 0.0
H2170 H 0.26198 0.89024 0.42338 0.0
H2171 H 0.24251 0.92082 0.3936 0.0
C2172 C 0.22394 0.9159 0.40261 0.0
C2173 C 0.21748 0.90863 0.41253 0.0
C2174 C 0.26686 0.8978 0.41754 0.0
C2175 C 0.2449 0.90636 0.40939 0.0
C2176 C 0.28056 0.89935 0.41865 0.0
C2177 C 0.28703 0.90943 0.41162 0.0
C2178 C 0.2596 0.90641 0.40934 0.0
C2179 C 0.27953 0.91736 0.40302 0.0
C2180 C 0.23764 0.91479 0.40101 0.0
C2181 C 0.22497 0.89978 0.4202 0.0
N2182 N 0.2662 0.91577 0.40221 0.0
N2183 N 0.2383 0.89899 0.41855 0.0
H2184 H 0.10626 0.71512 0.58045 0.0
H2185 H 0.06918 0.78155 0.60282 0.0
H2186 H 0.0677 0.71615 0.59885 0.0
H2187 H 0.10391 0.78115 0.57791 0.0
H2188 H 0.0709 0.75752 0.60518 0.0
H2189 H 0.10786 0.73921 0.58313 0.0
C2190 C 0.09823 0.72039 0.58523 0.0
C2191 C 0.08677 0.71368 0.58932 0.0
C2192 C 0.07823 0.7627 0.5993 0.0
C2193 C 0.08851 0.74114 0.59237 0.0
C2194 C 0.07727 0.77642 0.59798 0.0
C2195 C 0.08633 0.78332 0.59004 0.0
C2196 C 0.08831 0.75582 0.59262 0.0
C2197 C 0.09665 0.77618 0.58404 0.0
C2198 C 0.09912 0.73413 0.58671 0.0
C2199 C 0.07665 0.72096 0.59545 0.0
N2200 N 0.0973 0.7628 0.58536 0.0
N2201 N 0.07772 0.7343 0.59671 0.0
H2202 H 0.21826 0.10489 0.57355 0.0
H2203 H 0.28277 0.0708 0.60359 0.0
H2204 H 0.21723 0.07384 0.60291 0.0
H2205 H 0.28393 0.10249 0.57493 0.0
H2206 H 0.2589 0.07391 0.60577 0.0
H2207 H 0.24226 0.1063 0.5762 0.0
C2208 C 0.22308 0.09848 0.58069 0.0
C2209 C 0.21578 0.08912 0.58791 0.0
C2210 C 0.26437 0.0803 0.59911 0.0
C2211 C 0.24326 0.0906 0.59091 0.0
C2212 C 0.27801 0.07854 0.59787 0.0
C2213 C 0.2853 0.0863 0.58894 0.0
C2214 C 0.25794 0.08983 0.59129 0.0
C2215 C 0.27866 0.09623 0.58186 0.0
C2216 C 0.23679 0.09929 0.58219 0.0
C2217 C 0.2225 0.08114 0.59708 0.0
N2218 N 0.26531 0.09761 0.58306 0.0
N2219 N 0.23589 0.08195 0.5982 0.0
H2220 H 0.89495 0.28183 0.57081 0.0
H2221 H 0.91811 0.21477 0.60612 0.0
H2222 H 0.91937 0.28065 0.60586 0.0
H2223 H 0.90154 0.2168 0.56678 0.0
H2224 H 0.91425 0.2386 0.60866 0.0
H2225 H 0.8927 0.25774 0.5719 0.0
C2226 C 0.89964 0.27653 0.57888 0.0
C2227 C 0.90751 0.28321 0.58816 0.0
C2228 C 0.91132 0.23379 0.59953 0.0
C2229 C 0.90508 0.25568 0.5894 0.0
C2230 C 0.91351 0.2202 0.59809 0.0
C2231 C 0.9103 0.21387 0.58615 0.0
C2232 C 0.90583 0.24103 0.58899 0.0
C2233 C 0.90431 0.22134 0.57608 0.0
C2234 C 0.8984 0.26277 0.57946 0.0
C2235 C 0.91332 0.27586 0.59843 0.0
N2236 N 0.90235 0.23454 0.57769 0.0
N2237 N 0.91211 0.26246 0.59869 0.0
H2238 H 0.78273 0.90505 0.59563 0.0
H2239 H 0.71575 0.93768 0.56843 0.0
H2240 H 0.78127 0.93686 0.56712 0.0
H2241 H 0.71622 0.9012 0.59071 0.0
H2242 H 0.73983 0.93846 0.56957 0.0
H2243 H 0.7584 0.90448 0.5958 0.0
C2244 C 0.77729 0.91197 0.5895 0.0
C2245 C 0.784 0.921 0.58133 0.0
C2246 C 0.73471 0.93026 0.57421 0.0
C2247 C 0.7563 0.9204 0.58144 0.0
C2248 C 0.72094 0.92981 0.57356 0.0
C2249 C 0.71399 0.91933 0.57945 0.0
C2250 C 0.74163 0.92019 0.58085 0.0
C2251 C 0.72123 0.90942 0.58599 0.0
C2252 C 0.76344 0.9116 0.58955 0.0
C2253 C 0.7765 0.92971 0.57354 0.0
N2254 N 0.73469 0.9101 0.58654 0.0
N2255 N 0.76308 0.92919 0.57379 0.0
H2256 H 0.42274 0.10356 0.28156 0.0
H2257 H 0.39441 0.07148 0.21477 0.0
H2258 H 0.39967 0.06762 0.28039 0.0
H2259 H 0.42582 0.10044 0.21572 0.0
H2260 H 0.39251 0.07314 0.23891 0.0
H2261 H 0.42023 0.10564 0.25751 0.0
C2262 C 0.417 0.09621 0.27627 0.0
C2263 C 0.41152 0.08533 0.28293 0.0
C2264 C 0.39972 0.07923 0.2338 0.0
C2265 C 0.4086 0.08764 0.25549 0.0
C2266 C 0.40077 0.07833 0.22004 0.0
C2267 C 0.41037 0.08574 0.21328 0.0
C2268 C 0.40828 0.08766 0.24082 0.0
C2269 C 0.41836 0.09446 0.22058 0.0
C2270 C 0.4156 0.09738 0.26255 0.0
C2271 C 0.40416 0.0761 0.2756 0.0
N2272 N 0.41719 0.09512 0.23397 0.0
N2273 N 0.40298 0.07742 0.26227 0.0
H2274 H 0.92363 0.39489 0.21792 0.0
H2275 H 0.89261 0.42307 0.28522 0.0
H2276 H 0.89273 0.42438 0.21942 0.0
H2277 H 0.92913 0.40096 0.28314 0.0
H2278 H 0.88952 0.41968 0.2614 0.0
H2279 H 0.92261 0.39298 0.24209 0.0
C2280 C 0.91647 0.40078 0.22332 0.0
C2281 C 0.90837 0.40992 0.2167 0.0
C2282 C 0.89813 0.41545 0.2662 0.0
C2283 C 0.90719 0.40786 0.24428 0.0
C2284 C 0.89988 0.41736 0.27978 0.0
C2285 C 0.91122 0.41242 0.28611 0.0
C2286 C 0.90776 0.40851 0.25893 0.0
C2287 C 0.92031 0.40505 0.27861 0.0
C2288 C 0.91593 0.39974 0.2371 0.0
C2289 C 0.89926 0.41731 0.22416 0.0
N2290 N 0.91844 0.4034 0.2654 0.0
N2291 N 0.899 0.41621 0.23756 0.0
H2292 H 0.57749 0.89416 0.28327 0.0
H2293 H 0.60398 0.92464 0.21509 0.0
H2294 H 0.60145 0.92945 0.28063 0.0
H2295 H 0.57099 0.89761 0.2179 0.0
H2296 H 0.60742 0.92249 0.23901 0.0
H2297 H 0.57944 0.89138 0.25925 0.0
C2298 C 0.58337 0.90117 0.27767 0.0
C2299 C 0.58919 0.91214 0.28389 0.0
C2300 C 0.59954 0.91691 0.23435 0.0
C2301 C 0.59141 0.90904 0.2565 0.0
C2302 C 0.5976 0.91809 0.22071 0.0
C2303 C 0.58708 0.91142 0.21457 0.0
C2304 C 0.59095 0.90893 0.24185 0.0
C2305 C 0.57913 0.90304 0.22229 0.0
C2306 C 0.58442 0.89961 0.26397 0.0
C2307 C 0.5967 0.92093 0.27618 0.0
N2308 N 0.58116 0.90211 0.23556 0.0
N2309 N 0.59751 0.91925 0.26286 0.0
H2310 H 0.10395 0.57392 0.22032 0.0
H2311 H 0.06885 0.60347 0.28388 0.0
H2312 H 0.07371 0.60409 0.2186 0.0
H2313 H 0.10351 0.57855 0.28583 0.0
H2314 H 0.07213 0.60582 0.26005 0.0
H2315 H 0.10571 0.57736 0.2442 0.0
C2316 C 0.09782 0.58141 0.22495 0.0
C2317 C 0.08854 0.58861 0.21752 0.0
C2318 C 0.07915 0.6 0.26569 0.0
C2319 C 0.09039 0.59249 0.24484 0.0
C2320 C 0.07726 0.59865 0.2793 0.0
C2321 C 0.08583 0.59067 0.28678 0.0
C2322 C 0.08955 0.59315 0.25949 0.0
C2323 C 0.09663 0.58473 0.28039 0.0
C2324 C 0.09883 0.58338 0.23858 0.0
C2325 C 0.08092 0.59825 0.22399 0.0
N2326 N 0.09807 0.58591 0.26706 0.0
N2327 N 0.08187 0.59977 0.23732 0.0
H2328 H 0.44005 0.93049 0.78153 0.0
H2329 H 0.40597 0.90309 0.71542 0.0
H2330 H 0.40258 0.90992 0.78195 0.0
H2331 H 0.43842 0.93089 0.71615 0.0
H2332 H 0.40559 0.90336 0.73977 0.0
H2333 H 0.44062 0.92862 0.75752 0.0
C2334 C 0.43192 0.92556 0.77656 0.0
C2335 C 0.42122 0.9204 0.78374 0.0
C2336 C 0.4128 0.90935 0.73456 0.0
C2337 C 0.42182 0.91819 0.75615 0.0
C2338 C 0.41306 0.90916 0.7207 0.0
C2339 C 0.42223 0.917 0.71379 0.0
C2340 C 0.42185 0.91735 0.74148 0.0
C2341 C 0.43116 0.92472 0.72108 0.0
C2342 C 0.43225 0.92451 0.76282 0.0
C2343 C 0.41099 0.91409 0.77676 0.0
N2344 N 0.43075 0.9247 0.7345 0.0
N2345 N 0.41154 0.91315 0.76331 0.0
H2346 H 0.07867 0.39286 0.78394 0.0
H2347 H 0.10796 0.41998 0.71563 0.0
H2348 H 0.10528 0.42617 0.78092 0.0
H2349 H 0.07313 0.39542 0.71889 0.0
H2350 H 0.11158 0.41753 0.7395 0.0
H2351 H 0.08133 0.38892 0.76018 0.0
C2352 C 0.08531 0.39916 0.77834 0.0
C2353 C 0.0916 0.40999 0.78434 0.0
C2354 C 0.10328 0.4125 0.73493 0.0
C2355 C 0.0946 0.40559 0.75721 0.0
C2356 C 0.10123 0.41385 0.72132 0.0
C2357 C 0.09012 0.40805 0.71534 0.0
C2358 C 0.0942 0.40522 0.74256 0.0
C2359 C 0.08173 0.4002 0.72316 0.0
C2360 C 0.08677 0.39695 0.76478 0.0
C2361 C 0.10012 0.41781 0.77663 0.0
N2362 N 0.08387 0.39912 0.73639 0.0
N2363 N 0.10125 0.41556 0.76341 0.0
H2364 H 0.60733 0.07678 0.71655 0.0
H2365 H 0.57054 0.10423 0.78065 0.0
H2366 H 0.57317 0.10244 0.71521 0.0
H2367 H 0.6052 0.07926 0.7821 0.0
H2368 H 0.57343 0.10649 0.75675 0.0
H2369 H 0.60882 0.08037 0.74043 0.0
C2370 C 0.60026 0.08334 0.72126 0.0
C2371 C 0.59001 0.08919 0.71393 0.0
C2372 C 0.58051 0.10065 0.7623 0.0
C2373 C 0.59156 0.09323 0.74128 0.0
C2374 C 0.57888 0.09936 0.77595 0.0
C2375 C 0.58755 0.0914 0.78333 0.0
C2376 C 0.59084 0.09382 0.75595 0.0
C2377 C 0.59823 0.08541 0.77676 0.0
C2378 C 0.6011 0.08537 0.7349 0.0
C2379 C 0.58117 0.09765 0.72051 0.0
N2380 N 0.59947 0.0866 0.76341 0.0
N2381 N 0.58204 0.09928 0.73385 0.0
H2382 H 0.9308 0.5988 0.7176 0.0
H2383 H 0.89724 0.57078 0.7828 0.0
H2384 H 0.89614 0.57383 0.71696 0.0
H2385 H 0.92582 0.60255 0.78314 0.0
H2386 H 0.89565 0.57276 0.75874 0.0
H2387 H 0.92826 0.60135 0.74152 0.0
C2388 C 0.92257 0.59397 0.72249 0.0
C2389 C 0.91374 0.58599 0.71533 0.0
C2390 C 0.90213 0.57943 0.76408 0.0
C2391 C 0.91084 0.58875 0.74272 0.0
C2392 C 0.90305 0.5783 0.77781 0.0
C2393 C 0.91177 0.58644 0.78494 0.0
C2394 C 0.91013 0.58864 0.75739 0.0
C2395 C 0.91901 0.59605 0.778 0.0
C2396 C 0.9211 0.59545 0.73614 0.0
C2397 C 0.9032 0.58002 0.72213 0.0
N2398 N 0.91817 0.59676 0.76458 0.0
N2399 N 0.90214 0.58137 0.73549 0.0
H2400 H 0.21406 0.39702 0.07312 0.0
H2401 H 0.28285 0.42133 0.10402 0.0
H2402 H 0.21761 0.4287 0.10157 0.0
H2403 H 0.2797 0.39903 0.06771 0.0
H2404 H 0.25886 0.41941 0.10698 0.0
H2405 H 0.23797 0.39317 0.07482 0.0
C2406 C 0.21984 0.40301 0.07989 0.0
C2407 C 0.21391 0.4133 0.0871 0.0
C2408 C 0.26346 0.41477 0.09847 0.0
C2409 C 0.24117 0.40895 0.08908 0.0
C2410 C 0.27715 0.4158 0.09681 0.0
C2411 C 0.28323 0.41047 0.08551 0.0
C2412 C 0.25583 0.40831 0.08881 0.0
C2413 C 0.27537 0.4034 0.07649 0.0
C2414 C 0.23347 0.40084 0.08082 0.0
C2415 C 0.22183 0.42076 0.09573 0.0
N2416 N 0.26205 0.40263 0.07827 0.0
N2417 N 0.23508 0.4185 0.09641 0.0
H2418 H 0.2151 0.577 0.89699 0.0
H2419 H 0.28164 0.59701 0.93428 0.0
H2420 H 0.21619 0.59994 0.93302 0.0
H2421 H 0.28092 0.57603 0.89706 0.0
H2422 H 0.2578 0.60059 0.93249 0.0
H2423 H 0.23917 0.57898 0.89527 0.0
C2424 C 0.22039 0.58262 0.90444 0.0
C2425 C 0.21367 0.58819 0.91525 0.0
C2426 C 0.26286 0.59533 0.92463 0.0
C2427 C 0.24121 0.59037 0.91343 0.0
C2428 C 0.27648 0.59328 0.92565 0.0
C2429 C 0.28322 0.58609 0.91588 0.0
C2430 C 0.2559 0.59003 0.91382 0.0
C2431 C 0.27607 0.58157 0.90486 0.0
C2432 C 0.23414 0.58373 0.90346 0.0
C2433 C 0.22099 0.59541 0.92457 0.0
N2434 N 0.26275 0.58347 0.90421 0.0
N2435 N 0.23439 0.59616 0.92354 0.0
H2436 H 0.43523 0.21573 0.90008 0.0
H2437 H 0.3953 0.28075 0.91934 0.0
H2438 H 0.39647 0.21508 0.91808 0.0
H2439 H 0.43219 0.28114 0.89776 0.0
H2440 H 0.39418 0.25675 0.91654 0.0
H2441 H 0.43302 0.23956 0.89668 0.0
C2442 C 0.42617 0.22059 0.90316 0.0
C2443 C 0.41608 0.21347 0.90952 0.0
C2444 C 0.40243 0.26209 0.91225 0.0
C2445 C 0.41353 0.24077 0.9058 0.0
C2446 C 0.40307 0.2758 0.91384 0.0
C2447 C 0.41394 0.2829 0.90891 0.0
C2448 C 0.41281 0.25544 0.9058 0.0
C2449 C 0.42369 0.27601 0.90181 0.0
C2450 C 0.42491 0.2342 0.90122 0.0
C2451 C 0.40452 0.22023 0.91322 0.0
N2452 N 0.42298 0.26263 0.90062 0.0
N2453 N 0.40363 0.23355 0.91147 0.0
H2454 H 0.78276 0.4331 0.90059 0.0
H2455 H 0.71763 0.39371 0.92096 0.0
H2456 H 0.78345 0.39494 0.91984 0.0
H2457 H 0.71729 0.42999 0.89837 0.0
H2458 H 0.74169 0.39265 0.91847 0.0
H2459 H 0.75889 0.43091 0.89755 0.0
C2460 C 0.77789 0.42419 0.90406 0.0
C2461 C 0.78505 0.41424 0.91061 0.0
C2462 C 0.73635 0.40075 0.9139 0.0
C2463 C 0.75769 0.41172 0.90727 0.0
C2464 C 0.72261 0.40135 0.91531 0.0
C2465 C 0.71549 0.41203 0.90998 0.0
C2466 C 0.74302 0.41098 0.90723 0.0
C2467 C 0.72242 0.42163 0.90271 0.0
C2468 C 0.76426 0.42293 0.90231 0.0
C2469 C 0.77827 0.40287 0.91481 0.0
N2470 N 0.73582 0.42096 0.90169 0.0
N2471 N 0.76493 0.40199 0.91321 0.0
H2472 H 0.60484 0.78127 0.92517 0.0
H2473 H 0.57727 0.71451 0.8927 0.0
H2474 H 0.57593 0.78017 0.89372 0.0
H2475 H 0.60215 0.71575 0.92743 0.0
H2476 H 0.58012 0.73845 0.89013 0.0
H2477 H 0.60744 0.75724 0.92327 0.0
C2478 C 0.59921 0.776 0.91772 0.0
C2479 C 0.59004 0.78268 0.9097 0.0
C2480 C 0.58509 0.73346 0.89822 0.0
C2481 C 0.59286 0.75522 0.90754 0.0
C2482 C 0.58349 0.71979 0.89966 0.0
C2483 C 0.58935 0.71318 0.91039 0.0
C2484 C 0.59259 0.74053 0.90757 0.0
C2485 C 0.59734 0.72049 0.91909 0.0
C2486 C 0.60065 0.76228 0.91667 0.0
C2487 C 0.58301 0.77538 0.90019 0.0
N2488 N 0.59863 0.73379 0.91757 0.0
N2489 N 0.58447 0.76203 0.89946 0.0
H2490 H 0.71719 0.56979 0.10261 0.0
H2491 H 0.78467 0.60508 0.08077 0.0
H2492 H 0.71914 0.60362 0.07655 0.0
H2493 H 0.78272 0.56665 0.09939 0.0
H2494 H 0.7607 0.60738 0.08361 0.0
H2495 H 0.74117 0.57127 0.10589 0.0
C2496 C 0.72264 0.57765 0.09774 0.0
C2497 C 0.71623 0.58649 0.08916 0.0
C2498 C 0.76555 0.59852 0.08722 0.0
C2499 C 0.7436 0.58821 0.09282 0.0
C2500 C 0.77923 0.59723 0.08566 0.0
C2501 C 0.78564 0.58559 0.0897 0.0
C2502 C 0.75827 0.58811 0.0929 0.0
C2503 C 0.77813 0.57573 0.096 0.0
C2504 C 0.73632 0.57846 0.09958 0.0
C2505 C 0.72374 0.59651 0.08314 0.0
N2506 N 0.76482 0.57716 0.0973 0.0
N2507 N 0.73705 0.59703 0.08499 0.0
H2508 H 0.39698 0.71704 0.06838 0.0
H2509 H 0.42231 0.78323 0.10286 0.0
H2510 H 0.42215 0.71754 0.10291 0.0
H2511 H 0.39593 0.78256 0.06925 0.0
H2512 H 0.41983 0.75926 0.10502 0.0
H2513 H 0.39398 0.74093 0.07046 0.0
C2514 C 0.40176 0.72217 0.0765 0.0
C2515 C 0.40996 0.71535 0.08539 0.0
C2516 C 0.41444 0.76436 0.09727 0.0
C2517 C 0.40667 0.74272 0.08777 0.0
C2518 C 0.41583 0.77805 0.09605 0.0
C2519 C 0.40944 0.78485 0.08575 0.0
C2520 C 0.40668 0.75741 0.08807 0.0
C2521 C 0.40111 0.77768 0.07727 0.0
C2522 C 0.40004 0.73582 0.07769 0.0
C2523 C 0.41582 0.72245 0.09579 0.0
N2524 N 0.40011 0.76432 0.0785 0.0
N2525 N 0.41419 0.73579 0.09659 0.0
H2526 H 0.60458 0.21521 0.0799 0.0
H2527 H 0.56941 0.28254 0.10259 0.0
H2528 H 0.56553 0.2173 0.09716 0.0
H2529 H 0.60457 0.28112 0.07832 0.0
H2530 H 0.57031 0.25844 0.10484 0.0
H2531 H 0.60704 0.23913 0.08327 0.0
C2532 C 0.5966 0.22068 0.08455 0.0
C2533 C 0.58477 0.21433 0.08812 0.0
C2534 C 0.57792 0.26342 0.09915 0.0
C2535 C 0.5875 0.24159 0.09199 0.0
C2536 C 0.57745 0.27718 0.09792 0.0
C2537 C 0.58684 0.2838 0.09013 0.0
C2538 C 0.58787 0.25625 0.09256 0.0
C2539 C 0.59706 0.27637 0.08432 0.0
C2540 C 0.59799 0.23431 0.08645 0.0
C2541 C 0.57476 0.22185 0.09414 0.0
N2542 N 0.59723 0.26297 0.08554 0.0
N2543 N 0.57631 0.2351 0.0958 0.0
H2544 H 0.94169 0.78186 0.55426 0.0
H2545 H 0.91152 0.71507 0.5841 0.0
H2546 H 0.91737 0.78147 0.58941 0.0
H2547 H 0.94358 0.71637 0.55585 0.0
H2548 H 0.91193 0.73937 0.58522 0.0
H2549 H 0.94089 0.75776 0.55367 0.0
C2550 C 0.93618 0.77668 0.56188 0.0
C2551 C 0.9296 0.78365 0.57192 0.0
C2552 C 0.91887 0.7343 0.57881 0.0
C2553 C 0.92859 0.75602 0.57128 0.0
C2554 C 0.91861 0.72047 0.57813 0.0
C2555 C 0.92753 0.71373 0.56987 0.0
C2556 C 0.92801 0.74137 0.57106 0.0
C2557 C 0.93654 0.72117 0.56237 0.0
C2558 C 0.93575 0.76292 0.56155 0.0
C2559 C 0.92261 0.77644 0.58153 0.0
N2560 N 0.93652 0.73457 0.56311 0.0
N2561 N 0.92224 0.76298 0.58095 0.0
H2562 H 0.21519 0.91595 0.59112 0.0
H2563 H 0.28187 0.94321 0.55832 0.0
H2564 H 0.21629 0.94183 0.55711 0.0
H2565 H 0.28147 0.90991 0.58513 0.0
H2566 H 0.25777 0.94399 0.55923 0.0
H2567 H 0.23949 0.91482 0.59066 0.0
C2568 C 0.22055 0.92144 0.58361 0.0
C2569 C 0.21375 0.92899 0.57414 0.0
C2570 C 0.26292 0.93647 0.56489 0.0
C2571 C 0.24139 0.92776 0.57356 0.0
C2572 C 0.27668 0.93602 0.56438 0.0
C2573 C 0.28365 0.92646 0.57165 0.0
C2574 C 0.25603 0.92736 0.57282 0.0
C2575 C 0.27644 0.9174 0.57933 0.0
C2576 C 0.23438 0.92074 0.58332 0.0
C2577 C 0.22113 0.93587 0.56459 0.0
N2578 N 0.26298 0.91811 0.57978 0.0
N2579 N 0.23454 0.93511 0.56457 0.0
H2580 H 0.0845 0.21768 0.58783 0.0
H2581 H 0.05817 0.28297 0.55159 0.0
H2582 H 0.05922 0.21744 0.55337 0.0
H2583 H 0.08838 0.28391 0.5818 0.0
H2584 H 0.0584 0.25886 0.55238 0.0
H2585 H 0.08595 0.24188 0.58622 0.0
C2586 C 0.07926 0.22272 0.57994 0.0
C2587 C 0.07168 0.21558 0.57075 0.0
C2588 C 0.06505 0.2643 0.5588 0.0
C2589 C 0.07329 0.24315 0.56885 0.0
C2590 C 0.06492 0.27808 0.55835 0.0
C2591 C 0.07325 0.28543 0.56667 0.0
C2592 C 0.07349 0.25778 0.56773 0.0
C2593 C 0.08181 0.27858 0.57522 0.0
C2594 C 0.08013 0.23651 0.579 0.0
C2595 C 0.06514 0.22256 0.56068 0.0
N2596 N 0.08165 0.26511 0.5756 0.0
N2597 N 0.06606 0.23595 0.56004 0.0
H2598 H 0.78265 0.08324 0.58925 0.0
H2599 H 0.71688 0.0478 0.56295 0.0
H2600 H 0.78243 0.05019 0.56217 0.0
H2601 H 0.71641 0.08641 0.58127 0.0
H2602 H 0.74091 0.04731 0.56502 0.0
H2603 H 0.75832 0.08329 0.58893 0.0
C2604 C 0.77748 0.07593 0.58334 0.0
C2605 C 0.78452 0.06671 0.5757 0.0
C2606 C 0.73558 0.0559 0.5686 0.0
C2607 C 0.75685 0.06672 0.57529 0.0
C2608 C 0.72185 0.05619 0.56743 0.0
C2609 C 0.71466 0.06719 0.5719 0.0
C2610 C 0.74221 0.06667 0.57435 0.0
C2611 C 0.72161 0.07777 0.57764 0.0
C2612 C 0.76363 0.07601 0.58311 0.0
C2613 C 0.77737 0.0575 0.56817 0.0
N2614 N 0.73504 0.07725 0.57872 0.0
N2615 N 0.76394 0.05774 0.56816 0.0
H2616 H 0.90412 0.21574 0.43908 0.0
H2617 H 0.92275 0.28197 0.4008 0.0
H2618 H 0.92355 0.21657 0.40101 0.0
H2619 H 0.90271 0.28111 0.43854 0.0
H2620 H 0.91966 0.25807 0.39887 0.0
H2621 H 0.90006 0.23951 0.43726 0.0
C2622 C 0.90736 0.2209 0.43025 0.0
C2623 C 0.91436 0.21424 0.42027 0.0
C2624 C 0.91576 0.26312 0.40749 0.0
C2625 C 0.90988 0.24145 0.41818 0.0
C2626 C 0.91751 0.27677 0.40858 0.0
C2627 C 0.91316 0.28347 0.41994 0.0
C2628 C 0.90972 0.25612 0.41789 0.0
C2629 C 0.90634 0.27629 0.42968 0.0
C2630 C 0.90505 0.23448 0.42921 0.0
C2631 C 0.91824 0.22137 0.40899 0.0
N2632 N 0.905 0.26296 0.42852 0.0
N2633 N 0.91611 0.23464 0.40834 0.0
H2634 H 0.71295 0.91135 0.4152 0.0
H2635 H 0.7799 0.94135 0.44502 0.0
H2636 H 0.71423 0.94151 0.44545 0.0
H2637 H 0.77917 0.91628 0.41042 0.0
H2638 H 0.75579 0.94079 0.44572 0.0
H2639 H 0.73718 0.91213 0.41377 0.0
C2640 C 0.71834 0.9181 0.42156 0.0
C2641 C 0.7116 0.92637 0.43047 0.0
C2642 C 0.76086 0.93544 0.43793 0.0
C2643 C 0.73922 0.92732 0.42889 0.0
C2644 C 0.77464 0.93576 0.43753 0.0
C2645 C 0.78153 0.92884 0.42765 0.0
C2646 C 0.75388 0.92807 0.42844 0.0
C2647 C 0.77421 0.92177 0.41819 0.0
C2648 C 0.73214 0.91858 0.42071 0.0
C2649 C 0.71903 0.93496 0.43845 0.0
N2650 N 0.76076 0.92151 0.41885 0.0
N2651 N 0.73244 0.93519 0.43748 0.0
H2652 H 0.0813 0.78461 0.41081 0.0
H2653 H 0.05078 0.71866 0.44255 0.0
H2654 H 0.05136 0.78414 0.44133 0.0
H2655 H 0.08464 0.71827 0.41645 0.0
H2656 H 0.04989 0.74268 0.44072 0.0
H2657 H 0.08164 0.76031 0.41117 0.0
C2658 C 0.07474 0.77939 0.41751 0.0
C2659 C 0.06631 0.78637 0.42607 0.0
C2660 C 0.05753 0.73738 0.43538 0.0
C2661 C 0.06667 0.75869 0.42656 0.0
C2662 C 0.05804 0.72365 0.43641 0.0
C2663 C 0.06784 0.71648 0.42967 0.0
C2664 C 0.06685 0.74405 0.42751 0.0
C2665 C 0.07696 0.72345 0.42184 0.0
C2666 C 0.07498 0.76555 0.41775 0.0
C2667 C 0.05804 0.77915 0.43458 0.0
N2668 N 0.07626 0.73689 0.42097 0.0
N2669 N 0.05845 0.76572 0.43462 0.0
H2670 H 0.21473 0.06454 0.4024 0.0
H2671 H 0.28182 0.09536 0.43134 0.0
H2672 H 0.21605 0.09277 0.43445 0.0
H2673 H 0.28029 0.06094 0.40606 0.0
H2674 H 0.25775 0.09768 0.42915 0.0
H2675 H 0.23882 0.06634 0.40018 0.0
C2676 C 0.22007 0.07125 0.40884 0.0
C2677 C 0.21344 0.0784 0.41872 0.0
C2678 C 0.26272 0.08971 0.42398 0.0
C2679 C 0.24091 0.08048 0.41628 0.0
C2680 C 0.27644 0.0884 0.4252 0.0
C2681 C 0.283 0.07786 0.41899 0.0
C2682 C 0.25557 0.08044 0.41645 0.0
C2683 C 0.27558 0.06913 0.41113 0.0
C2684 C 0.23381 0.07225 0.4076 0.0
C2685 C 0.22081 0.08698 0.42679 0.0
N2686 N 0.26225 0.07056 0.41015 0.0
N2687 N 0.23417 0.08771 0.42546 0.0
H2688 H 0.55168 0.9375 0.71819 0.0
H2689 H 0.58912 0.91678 0.78474 0.0
H2690 H 0.58366 0.90914 0.71892 0.0
H2691 H 0.55241 0.93866 0.78394 0.0
H2692 H 0.58783 0.91428 0.76062 0.0
H2693 H 0.55217 0.93835 0.74233 0.0
C2694 C 0.55876 0.93137 0.72346 0.0
C2695 C 0.56767 0.92325 0.71657 0.0
C2696 C 0.58004 0.91959 0.76575 0.0
C2697 C 0.56838 0.92427 0.74421 0.0
C2698 C 0.5808 0.92106 0.77948 0.0
C2699 C 0.57088 0.92797 0.78632 0.0
C2700 C 0.56934 0.92517 0.75882 0.0
C2701 C 0.56029 0.93327 0.77906 0.0
C2702 C 0.55903 0.93186 0.73724 0.0
C2703 C 0.57661 0.91552 0.72387 0.0
N2704 N 0.55983 0.93181 0.76571 0.0
N2705 N 0.57681 0.91629 0.73732 0.0
H2706 H 0.10104 0.57718 0.71575 0.0
H2707 H 0.06306 0.60099 0.78082 0.0
H2708 H 0.06179 0.59412 0.7158 0.0
H2709 H 0.0995 0.57864 0.78112 0.0
H2710 H 0.06495 0.60326 0.75678 0.0
H2711 H 0.103 0.5823 0.73934 0.0
C2712 C 0.09291 0.58216 0.72069 0.0
C2713 C 0.08115 0.58504 0.71389 0.0
C2714 C 0.07264 0.59803 0.76213 0.0
C2715 C 0.08329 0.59086 0.74083 0.0
C2716 C 0.07159 0.59677 0.77585 0.0
C2717 C 0.08103 0.58943 0.78291 0.0
C2718 C 0.08319 0.59189 0.75546 0.0
C2719 C 0.09192 0.58424 0.77601 0.0
C2720 C 0.09403 0.58506 0.73415 0.0
C2721 C 0.07097 0.59158 0.72072 0.0
N2722 N 0.09261 0.58542 0.76263 0.0
N2723 N 0.07222 0.59413 0.73387 0.0
H2724 H 0.43738 0.05 0.71633 0.0
H2725 H 0.41068 0.0852 0.78215 0.0
H2726 H 0.41728 0.08772 0.71575 0.0
H2727 H 0.43611 0.05084 0.78174 0.0
H2728 H 0.41143 0.08569 0.75785 0.0
H2729 H 0.43558 0.0496 0.74035 0.0
C2730 C 0.4326 0.05823 0.72128 0.0
C2731 C 0.4275 0.06894 0.71404 0.0
C2732 C 0.41681 0.07804 0.7631 0.0
C2733 C 0.42534 0.06852 0.74163 0.0
C2734 C 0.41634 0.07772 0.77694 0.0
C2735 C 0.42336 0.06798 0.78394 0.0
C2736 C 0.42428 0.06849 0.75627 0.0
C2737 C 0.43057 0.05855 0.77674 0.0
C2738 C 0.43157 0.058 0.73501 0.0
C2739 C 0.42138 0.07931 0.72098 0.0
N2740 N 0.43085 0.05905 0.76332 0.0
N2741 N 0.42044 0.07884 0.73442 0.0
H2742 H 0.92178 0.40568 0.71385 0.0
H2743 H 0.91158 0.44618 0.78121 0.0
H2744 H 0.91804 0.44819 0.71623 0.0
H2745 H 0.92371 0.4052 0.7805 0.0
H2746 H 0.91039 0.44605 0.75712 0.0
H2747 H 0.91934 0.4044 0.73802 0.0
C2748 C 0.92037 0.41472 0.71945 0.0
C2749 C 0.92019 0.42707 0.71308 0.0
C2750 C 0.91323 0.43704 0.76221 0.0
C2751 C 0.91733 0.42568 0.74057 0.0
C2752 C 0.91386 0.4371 0.77598 0.0
C2753 C 0.91786 0.42571 0.78285 0.0
C2754 C 0.91662 0.42552 0.75522 0.0
C2755 C 0.92064 0.4142 0.77556 0.0
C2756 C 0.919 0.41399 0.73321 0.0
C2757 C 0.91832 0.43847 0.72076 0.0
N2758 N 0.92006 0.41442 0.7621 0.0
N2759 N 0.91698 0.4375 0.73409 0.0
H2760 H 0.55482 0.05585 0.21738 0.0
H2761 H 0.58334 0.08932 0.28319 0.0
H2762 H 0.58831 0.08239 0.21699 0.0
H2763 H 0.55582 0.05661 0.28293 0.0
H2764 H 0.58447 0.0882 0.25894 0.0
H2765 H 0.55423 0.05722 0.24144 0.0
C2766 C 0.56208 0.06196 0.22238 0.0
C2767 C 0.57164 0.06901 0.2152 0.0
C2768 C 0.57821 0.08127 0.26421 0.0
C2769 C 0.57098 0.07069 0.2428 0.0
C2770 C 0.57752 0.08193 0.27803 0.0
C2771 C 0.56946 0.07305 0.28505 0.0
C2772 C 0.5707 0.07172 0.25743 0.0
C2773 C 0.56216 0.06365 0.2779 0.0
C2774 C 0.56175 0.06273 0.23613 0.0
C2775 C 0.5808 0.07678 0.22218 0.0
N2776 N 0.56293 0.06326 0.2645 0.0
N2777 N 0.58022 0.07746 0.23564 0.0
H2778 H 0.94215 0.55359 0.21636 0.0
H2779 H 0.90823 0.58337 0.28147 0.0
H2780 H 0.91482 0.58644 0.21536 0.0
H2781 H 0.94132 0.55632 0.28209 0.0
H2782 H 0.90924 0.58361 0.25721 0.0
H2783 H 0.94079 0.55346 0.24048 0.0
C2784 C 0.93587 0.5608 0.22123 0.0
C2785 C 0.9286 0.57006 0.21387 0.0
C2786 C 0.91627 0.57763 0.26267 0.0
C2787 C 0.92693 0.56993 0.24149 0.0
C2788 C 0.91567 0.57746 0.2765 0.0
C2789 C 0.92471 0.56982 0.28377 0.0
C2790 C 0.92591 0.57003 0.25612 0.0
C2791 C 0.93418 0.56236 0.27686 0.0
C2792 C 0.9351 0.56073 0.23501 0.0
C2793 C 0.92061 0.57916 0.22069 0.0
N2794 N 0.93451 0.56264 0.26343 0.0
N2795 N 0.91996 0.57884 0.23414 0.0
H2796 H 0.40028 0.93744 0.21422 0.0
H2797 H 0.42482 0.89945 0.27918 0.0
H2798 H 0.42649 0.90367 0.21362 0.0
H2799 H 0.40349 0.93649 0.27969 0.0
H2800 H 0.42175 0.89831 0.25517 0.0
H2801 H 0.39771 0.93471 0.23813 0.0
C2802 C 0.40537 0.92935 0.21911 0.0
C2803 C 0.41374 0.92087 0.21198 0.0
C2804 C 0.41759 0.9066 0.26056 0.0
C2805 C 0.4109 0.91772 0.23932 0.0
C2806 C 0.41929 0.90722 0.27427 0.0
C2807 C 0.41454 0.91816 0.28139 0.0
C2808 C 0.41109 0.91699 0.25397 0.0
C2809 C 0.40743 0.92794 0.27455 0.0
C2810 C 0.40392 0.92781 0.23275 0.0
C2811 C 0.42004 0.91051 0.21877 0.0
N2812 N 0.40604 0.9272 0.2612 0.0
N2813 N 0.41859 0.9093 0.2321 0.0
H2814 H 0.0996 0.42279 0.2813 0.0
H2815 H 0.06082 0.39882 0.21686 0.0
H2816 H 0.06134 0.40375 0.28197 0.0
H2817 H 0.09685 0.42179 0.21598 0.0
H2818 H 0.06348 0.39603 0.24076 0.0
H2819 H 0.10127 0.41805 0.2576 0.0
C2820 C 0.09165 0.41742 0.2765 0.0
C2821 C 0.08022 0.41385 0.28354 0.0
C2822 C 0.07092 0.40151 0.23531 0.0
C2823 C 0.08201 0.40848 0.25646 0.0
C2824 C 0.06943 0.40306 0.22166 0.0
C2825 C 0.07852 0.41074 0.21449 0.0
C2826 C 0.08154 0.40771 0.24181 0.0
C2827 C 0.08952 0.41594 0.22118 0.0
C2828 C 0.09259 0.41474 0.26298 0.0
C2829 C 0.07026 0.40684 0.27687 0.0
N2830 N 0.09063 0.41449 0.2345 0.0
N2831 N 0.0713 0.40453 0.26366 0.0
H2832 H 0.71869 0.55913 0.90101 0.0
H2833 H 0.78394 0.59923 0.9206 0.0
H2834 H 0.71856 0.59648 0.92177 0.0
H2835 H 0.78415 0.55971 0.90434 0.0
H2836 H 0.76007 0.60044 0.9167 0.0
H2837 H 0.74262 0.56126 0.89784 0.0
C2838 C 0.72367 0.56788 0.90472 0.0
C2839 C 0.7167 0.57755 0.91183 0.0
C2840 C 0.76536 0.59157 0.91381 0.0
C2841 C 0.74402 0.58002 0.90833 0.0
C2842 C 0.77899 0.59089 0.916 0.0
C2843 C 0.78597 0.57928 0.91297 0.0
C2844 C 0.75869 0.58053 0.9086 0.0
C2845 C 0.7791 0.5688 0.90697 0.0
C2846 C 0.73733 0.56908 0.90294 0.0
C2847 C 0.72361 0.58871 0.91637 0.0
N2848 N 0.7658 0.56961 0.90513 0.0
N2849 N 0.73692 0.58957 0.91467 0.0
H2850 H 0.78223 0.44568 0.05779 0.0
H2851 H 0.71569 0.4168 0.08986 0.0
H2852 H 0.78174 0.41143 0.08337 0.0
H2853 H 0.71657 0.44619 0.05883 0.0
H2854 H 0.73997 0.41598 0.08938 0.0
H2855 H 0.75821 0.4472 0.0597 0.0
C2856 C 0.77705 0.43846 0.06382 0.0
C2857 C 0.78396 0.42838 0.0704 0.0
C2858 C 0.73483 0.42264 0.08272 0.0
C2859 C 0.75643 0.4301 0.07268 0.0
C2860 C 0.721 0.42315 0.08303 0.0
C2861 C 0.71414 0.43155 0.07435 0.0
C2862 C 0.7418 0.43064 0.07372 0.0
C2863 C 0.72147 0.43954 0.06567 0.0
C2864 C 0.76333 0.43934 0.0649 0.0
C2865 C 0.77676 0.41933 0.07809 0.0
N2866 N 0.73489 0.43888 0.06557 0.0
N2867 N 0.76335 0.4204 0.07904 0.0
H2868 H 0.54859 0.71684 0.06499 0.0
H2869 H 0.58918 0.78289 0.08145 0.0
H2870 H 0.58476 0.71677 0.08778 0.0
H2871 H 0.55209 0.78201 0.06021 0.0
H2872 H 0.58788 0.75879 0.08416 0.0
H2873 H 0.54958 0.74089 0.06381 0.0
C2874 C 0.55669 0.72191 0.06986 0.0
C2875 C 0.56663 0.71481 0.07646 0.0
C2876 C 0.58004 0.76389 0.07891 0.0
C2877 C 0.56793 0.7424 0.07502 0.0
C2878 C 0.58081 0.77762 0.07731 0.0
C2879 C 0.57075 0.78443 0.07057 0.0
C2880 C 0.56914 0.75697 0.07371 0.0
C2881 C 0.56009 0.77715 0.06546 0.0
C2882 C 0.55728 0.73566 0.06915 0.0
C2883 C 0.57689 0.72189 0.0826 0.0
N2884 N 0.55957 0.76384 0.06713 0.0
N2885 N 0.57733 0.73533 0.08165 0.0
H2886 H 0.28125 0.57249 0.09939 0.0
H2887 H 0.2158 0.59837 0.06291 0.0
H2888 H 0.28147 0.59231 0.06151 0.0
H2889 H 0.2156 0.56989 0.09478 0.0
H2890 H 0.23992 0.6 0.06488 0.0
H2891 H 0.25719 0.57534 0.10045 0.0
C2892 C 0.27625 0.5776 0.09139 0.0
C2893 C 0.2833 0.58205 0.08028 0.0
C2894 C 0.23457 0.59348 0.07151 0.0
C2895 C 0.25587 0.58531 0.08141 0.0
C2896 C 0.22083 0.59257 0.07041 0.0
C2897 C 0.21375 0.58388 0.0786 0.0
C2898 C 0.24124 0.58571 0.08093 0.0
C2899 C 0.22071 0.57661 0.08818 0.0
C2900 C 0.26253 0.57918 0.09197 0.0
C2901 C 0.27637 0.58862 0.0702 0.0
N2902 N 0.23409 0.57764 0.08904 0.0
N2903 N 0.26301 0.58998 0.07096 0.0
H2904 H 0.39916 0.21906 0.07868 0.0
H2905 H 0.43904 0.28453 0.09788 0.0
H2906 H 0.43908 0.21918 0.09397 0.0
H2907 H 0.40144 0.28444 0.07756 0.0
H2908 H 0.43707 0.2606 0.10111 0.0
H2909 H 0.39779 0.24289 0.08276 0.0
C2910 C 0.40756 0.22407 0.08309 0.0
C2911 C 0.41932 0.2172 0.08581 0.0
C2912 C 0.42916 0.26585 0.09611 0.0
C2913 C 0.41786 0.24442 0.09042 0.0
C2914 C 0.43026 0.27951 0.09431 0.0
C2915 C 0.42048 0.28642 0.08726 0.0
C2916 C 0.41821 0.25909 0.09081 0.0
C2917 C 0.40928 0.27945 0.0829 0.0
C2918 C 0.40679 0.23767 0.08539 0.0
C2919 C 0.42988 0.22414 0.09159 0.0
N2920 N 0.40853 0.26613 0.08461 0.0
N2921 N 0.42896 0.23741 0.09356 0.0
H2922 H 0.21465 0.42275 0.89813 0.0
H2923 H 0.28155 0.40259 0.93459 0.0
H2924 H 0.21613 0.4007 0.93471 0.0
H2925 H 0.28026 0.42381 0.89751 0.0
H2926 H 0.25771 0.39887 0.93305 0.0
H2927 H 0.2386 0.42018 0.89587 0.0
C2928 C 0.21999 0.41717 0.90557 0.0
C2929 C 0.21344 0.41208 0.91672 0.0
C2930 C 0.26265 0.4042 0.92516 0.0
C2931 C 0.24086 0.40925 0.9143 0.0
C2932 C 0.27626 0.40634 0.92604 0.0
C2933 C 0.28283 0.41367 0.91624 0.0
C2934 C 0.25554 0.40954 0.91445 0.0
C2935 C 0.27554 0.4182 0.90533 0.0
C2936 C 0.23368 0.41573 0.9043 0.0
C2937 C 0.22082 0.40487 0.92602 0.0
N2938 N 0.26223 0.4162 0.90481 0.0
N2939 N 0.23417 0.40383 0.9247 0.0
H2940 H 0.58397 0.28283 0.91057 0.0
H2941 H 0.55472 0.21606 0.9417 0.0
H2942 H 0.55466 0.2818 0.94167 0.0
H2943 H 0.5896 0.21684 0.917 0.0
H2944 H 0.5533 0.24012 0.94011 0.0
H2945 H 0.58483 0.25855 0.91097 0.0
C2946 C 0.57765 0.27749 0.9174 0.0
C2947 C 0.56926 0.2843 0.92612 0.0
C2948 C 0.56129 0.23505 0.93504 0.0
C2949 C 0.5702 0.25665 0.92665 0.0
C2950 C 0.5621 0.22131 0.93594 0.0
C2951 C 0.57233 0.21447 0.92951 0.0
C2952 C 0.57072 0.24202 0.92757 0.0
C2953 C 0.5816 0.22176 0.92216 0.0
C2954 C 0.57819 0.26366 0.91767 0.0
C2955 C 0.5613 0.27693 0.93481 0.0
N2956 N 0.58056 0.23517 0.92137 0.0
N2957 N 0.56198 0.26351 0.93485 0.0
H2958 H 0.40176 0.77836 0.9344 0.0
H2959 H 0.42646 0.71235 0.89847 0.0
H2960 H 0.42547 0.77797 0.89883 0.0
H2961 H 0.40657 0.71307 0.9363 0.0
H2962 H 0.42252 0.73616 0.89625 0.0
H2963 H 0.39963 0.75428 0.93293 0.0
C2964 C 0.40633 0.77322 0.92616 0.0
C2965 C 0.41396 0.78011 0.91683 0.0
C2966 C 0.41889 0.73108 0.90497 0.0
C2967 C 0.41168 0.75262 0.91515 0.0
C2968 C 0.42113 0.7175 0.90623 0.0
C2969 C 0.41699 0.7108 0.91767 0.0
C2970 C 0.41249 0.73797 0.91522 0.0
C2971 C 0.41006 0.7179 0.92738 0.0
C2972 C 0.40515 0.75948 0.92535 0.0
C2973 C 0.41962 0.773 0.90632 0.0
N2974 N 0.40813 0.73113 0.926 0.0
N2975 N 0.4185 0.75961 0.90585 0.0
H2976 H 0.03724 0.16435 0.4008 0.0
H2977 H 0.971 0.19945 0.42658 0.0
H2978 H 0.03631 0.19889 0.42594 0.0
H2979 H 0.97104 0.16172 0.40653 0.0
H2980 H 0.99484 0.20099 0.42332 0.0
H2981 H 0.01295 0.16485 0.39971 0.0
C2982 C 0.03193 0.17214 0.40593 0.0
C2983 C 0.03876 0.18153 0.41356 0.0
C2984 C 0.98966 0.1924 0.41955 0.0
C2985 C 0.0111 0.18214 0.4124 0.0
C2986 C 0.97603 0.19152 0.4214 0.0
C2987 C 0.96906 0.18037 0.41693 0.0
C2988 C 0.99644 0.18205 0.4132 0.0
C2989 C 0.97607 0.17044 0.4102 0.0
C2990 C 0.01809 0.17239 0.40535 0.0
C2991 C 0.03143 0.19139 0.42002 0.0
N2992 N 0.98942 0.17146 0.40862 0.0
N2993 N 0.01801 0.19139 0.41935 0.0
H2994 H 0.82612 0.03581 0.39865 0.0
H2995 H 0.83689 0.97087 0.44269 0.0
H2996 H 0.82887 0.0356 0.44131 0.0
H2997 H 0.82206 0.96886 0.40264 0.0
H2998 H 0.83755 0.9949 0.44103 0.0
H2999 H 0.82768 0.01149 0.39876 0.0
C3000 C 0.82708 0.03065 0.40801 0.0
C3001 C 0.82732 0.03769 0.41999 0.0
C3002 C 0.8342 0.98923 0.43257 0.0
C3003 C 0.82925 0.01008 0.42017 0.0
C3004 C 0.83387 0.97549 0.43349 0.0
C3005 C 0.82932 0.96787 0.42282 0.0
C3006 C 0.82998 0.99545 0.42088 0.0
C3007 C 0.82559 0.9744 0.41112 0.0
C3008 C 0.82795 0.01682 0.40806 0.0
C3009 C 0.82858 0.03057 0.43184 0.0
N3010 N 0.82594 0.98787 0.41046 0.0
N3011 N 0.82953 0.01718 0.43162 0.0
H3012 H 0.96264 0.81651 0.39847 0.0
H3013 H 0.0253 0.85001 0.43246 0.0
H3014 H 0.96033 0.85025 0.42459 0.0
H3015 H 0.0287 0.82082 0.40146 0.0
H3016 H 0.00153 0.85132 0.42835 0.0
H3017 H 0.98679 0.81893 0.39794 0.0
C3018 C 0.9672 0.82454 0.40393 0.0
C3019 C 0.9595 0.83311 0.41169 0.0
C3020 C 0.00746 0.84473 0.42232 0.0
C3021 C 0.98706 0.83585 0.41125 0.0
C3022 C 0.02104 0.84398 0.42468 0.0
C3023 C 0.02894 0.83522 0.41736 0.0
C3024 C 0.00168 0.83652 0.41269 0.0
C3025 C 0.02294 0.82768 0.40735 0.0
C3026 C 0.98098 0.82591 0.40363 0.0
C3027 C 0.9659 0.84335 0.41856 0.0
N3028 N 0.00961 0.82837 0.40542 0.0
N3029 N 0.9793 0.84434 0.41829 0.0
H3030 H 0.19094 0.96121 0.44069 0.0
H3031 H 0.16523 0.02771 0.40576 0.0
H3032 H 0.16942 0.96124 0.40376 0.0
H3033 H 0.18682 0.02659 0.44263 0.0
H3034 H 0.16698 0.00351 0.40435 0.0
H3035 H 0.19002 0.98532 0.44101 0.0
C3036 C 0.18606 0.96631 0.4326 0.0
C3037 C 0.18022 0.95922 0.42219 0.0
C3038 C 0.17134 0.00858 0.41273 0.0
C3039 C 0.17904 0.98689 0.42252 0.0
C3040 C 0.17033 0.02237 0.41355 0.0
C3041 C 0.17586 0.02915 0.42435 0.0
C3042 C 0.17792 0.00155 0.4228 0.0
C3043 C 0.18238 0.02177 0.43414 0.0
C3044 C 0.18552 0.98009 0.43279 0.0
C3045 C 0.17405 0.96635 0.41197 0.0
N3046 N 0.18322 0.0084 0.43314 0.0
N3047 N 0.17357 0.97981 0.41241 0.0
H3048 H 0.97183 0.84913 0.5712 0.0
H3049 H 0.0371 0.81891 0.60433 0.0
H3050 H 0.97026 0.81666 0.59898 0.0
H3051 H 0.03616 0.83879 0.56651 0.0
H3052 H 0.01295 0.8218 0.6061 0.0
H3053 H 0.99587 0.84962 0.57348 0.0
C3054 C 0.97652 0.84225 0.57797 0.0
C3055 C 0.96906 0.83273 0.5848 0.0
C3056 C 0.0181 0.82559 0.59749 0.0
C3057 C 0.99659 0.83321 0.58737 0.0
C3058 C 0.03183 0.82398 0.59648 0.0
C3059 C 0.03857 0.82854 0.58521 0.0
C3060 C 0.01119 0.83203 0.58726 0.0
C3061 C 0.03132 0.83503 0.57531 0.0
C3062 C 0.99025 0.8425 0.5792 0.0
C3063 C 0.97568 0.8241 0.59347 0.0
N3064 N 0.01803 0.83659 0.57657 0.0
N3065 N 0.98912 0.82446 0.59443 0.0
H3066 H 0.17779 0.0377 0.55825 0.0
H3067 H 0.17343 0.97049 0.59911 0.0
H3068 H 0.17245 0.03801 0.60067 0.0
H3069 H 0.16375 0.97396 0.55762 0.0
H3070 H 0.17491 0.99479 0.60044 0.0
H3071 H 0.17509 0.01376 0.55828 0.0
C3072 C 0.17611 0.03271 0.56761 0.0
C3073 C 0.17533 0.03985 0.57948 0.0
C3074 C 0.17234 0.99018 0.59111 0.0
C3075 C 0.1722 0.01236 0.57958 0.0
C3076 C 0.17148 0.97635 0.59034 0.0
C3077 C 0.16851 0.97022 0.57822 0.0
C3078 C 0.17041 0.9978 0.57963 0.0
C3079 C 0.1661 0.97826 0.56715 0.0
C3080 C 0.17448 0.01904 0.5676 0.0
C3081 C 0.17309 0.03285 0.59129 0.0
N3082 N 0.16723 0.9916 0.5681 0.0
N3083 N 0.17165 0.01943 0.59107 0.0
H3084 H 0.02986 0.18816 0.59748 0.0
H3085 H 0.96217 0.14936 0.58397 0.0
H3086 H 0.02723 0.15038 0.57772 0.0
H3087 H 0.96381 0.18983 0.5976 0.0
H3088 H 0.98622 0.14793 0.58598 0.0
H3089 H 0.00599 0.18726 0.60181 0.0
C3090 C 0.0243 0.17958 0.59425 0.0
C3091 C 0.03048 0.16939 0.5871 0.0
C3092 C 0.98132 0.15709 0.58867 0.0
C3093 C 0.00324 0.16832 0.59197 0.0
C3094 C 0.96758 0.1579 0.58756 0.0
C3095 C 0.96102 0.16979 0.59046 0.0
C3096 C 0.98857 0.16826 0.59267 0.0
C3097 C 0.96851 0.1805 0.59516 0.0
C3098 C 0.01068 0.1791 0.59668 0.0
C3099 C 0.02282 0.15851 0.58315 0.0
N3100 N 0.98192 0.17954 0.59598 0.0
N3101 N 0.00959 0.15831 0.58554 0.0
H3102 H 0.84726 0.0267 0.56419 0.0
H3103 H 0.82131 0.96203 0.60161 0.0
H3104 H 0.82192 0.02836 0.59855 0.0
H3105 H 0.8472 0.96164 0.5676 0.0
H3106 H 0.82343 0.98623 0.60257 0.0
H3107 H 0.84943 0.00287 0.56717 0.0
C3108 C 0.84224 0.02204 0.57245 0.0
C3109 C 0.8343 0.02948 0.58106 0.0
C3110 C 0.82877 0.98081 0.59501 0.0
C3111 C 0.83659 0.0021 0.58447 0.0
C3112 C 0.82759 0.96701 0.59448 0.0
C3113 C 0.83398 0.95986 0.58443 0.0
C3114 C 0.83638 0.98743 0.5854 0.0
C3115 C 0.84199 0.96678 0.57544 0.0
C3116 C 0.84348 0.00841 0.57416 0.0
C3117 C 0.8281 0.02295 0.59166 0.0
N3118 N 0.84287 0.98017 0.57607 0.0
N3119 N 0.82925 0.00959 0.59299 0.0
H3120 H 0.42552 0.03722 0.14908 0.0
H3121 H 0.39644 0.9691 0.17715 0.0
H3122 H 0.39631 0.03527 0.18023 0.0
H3123 H 0.43073 0.97209 0.15181 0.0
H3124 H 0.39335 0.99311 0.17537 0.0
H3125 H 0.42446 0.01321 0.14686 0.0
C3126 C 0.41875 0.03174 0.15536 0.0
C3127 C 0.41109 0.03822 0.16496 0.0
C3128 C 0.40147 0.98848 0.1701 0.0
C3129 C 0.40991 0.01069 0.16254 0.0
C3130 C 0.40321 0.97479 0.17108 0.0
C3131 C 0.41393 0.96865 0.16471 0.0
C3132 C 0.41047 0.99603 0.16264 0.0
C3133 C 0.4224 0.97646 0.15697 0.0
C3134 C 0.41818 0.01802 0.15411 0.0
C3135 C 0.40244 0.03064 0.17276 0.0
N3136 N 0.42053 0.98975 0.15621 0.0
N3137 N 0.40217 0.01723 0.17147 0.0
H3138 H 0.02683 0.40064 0.16829 0.0
H3139 H 0.95954 0.43785 0.18775 0.0
H3140 H 0.02426 0.44143 0.18077 0.0
H3141 H 0.95972 0.39945 0.16899 0.0
H3142 H 0.98358 0.43833 0.18658 0.0
H3143 H 0.00252 0.39913 0.16937 0.0
C3144 C 0.02116 0.40927 0.17118 0.0
C3145 C 0.02755 0.42118 0.17444 0.0
C3146 C 0.97842 0.42977 0.18271 0.0
C3147 C -8e-05 0.4195 0.17582 0.0
C3148 C 0.96466 0.42947 0.18342 0.0
C3149 C 0.95762 0.41861 0.17842 0.0
C3150 C 0.98527 0.41911 0.17697 0.0
C3151 C 0.96479 0.40802 0.17294 0.0
C3152 C 0.00732 0.40841 0.17181 0.0
C3153 C 0.01976 0.43206 0.17816 0.0
N3154 N 0.97827 0.40854 0.17234 0.0
N3155 N 0.0064 0.43094 0.17879 0.0
H3156 H 0.59973 0.96239 0.1848 0.0
H3157 H 0.57447 0.02732 0.14743 0.0
H3158 H 0.57374 0.96213 0.15088 0.0
H3159 H 0.59758 0.0282 0.18337 0.0
H3160 H 0.57779 0.00342 0.14616 0.0
H3161 H 0.6025 0.98634 0.18217 0.0
C3162 C 0.59475 0.96735 0.1767 0.0
C3163 C 0.58636 0.96032 0.16814 0.0
C3164 C 0.58229 0.00884 0.15424 0.0
C3165 C 0.58945 0.98766 0.16509 0.0
C3166 C 0.58043 0.0225 0.15494 0.0
C3167 C 0.58561 0.02971 0.16563 0.0
C3168 C 0.58929 0.00232 0.16434 0.0
C3169 C 0.59333 0.02299 0.17502 0.0
C3170 C 0.59632 0.98101 0.17521 0.0
C3171 C 0.58019 0.96721 0.15778 0.0
N3172 N 0.59479 0.00962 0.17427 0.0
N3173 N 0.58176 0.98051 0.15662 0.0
H3174 H 0.03857 0.56987 0.15411 0.0
H3175 H 0.96922 0.59566 0.18251 0.0
H3176 H 0.03522 0.59614 0.18765 0.0
H3177 H 0.97328 0.56575 0.15227 0.0
H3178 H 0.99331 0.59874 0.1823 0.0
H3179 H 0.01462 0.57101 0.15111 0.0
C3180 C 0.03279 0.57596 0.16079 0.0
C3181 C 0.03886 0.58281 0.17123 0.0
C3182 C 0.9889 0.59161 0.17562 0.0
C3183 C 0.01142 0.58412 0.1679 0.0
C3184 C 0.97516 0.58989 0.17569 0.0
C3185 C 0.96929 0.58035 0.16748 0.0
C3186 C 0.99676 0.58375 0.16723 0.0
C3187 C 0.97742 0.57313 0.15885 0.0
C3188 C 0.01912 0.57661 0.15908 0.0
C3189 C 0.03091 0.59064 0.17953 0.0
N3190 N 0.99074 0.57492 0.15901 0.0
N3191 N 0.01756 0.591 0.17775 0.0
H3192 H 0.41361 0.96265 0.85235 0.0
H3193 H 0.397 0.03067 0.81553 0.0
H3194 H 0.39737 0.96451 0.81285 0.0
H3195 H 0.42302 0.02674 0.8492 0.0
H3196 H 0.39165 0.007 0.81728 0.0
H3197 H 0.41123 0.98661 0.85422 0.0
C3198 C 0.4093 0.96808 0.84415 0.0
C3199 C 0.4059 0.96164 0.83233 0.0
C3200 C 0.39836 0.0114 0.82439 0.0
C3201 C 0.4033 0.98908 0.83436 0.0
C3202 C 0.40138 0.02488 0.82343 0.0
C3203 C 0.41059 0.03057 0.83214 0.0
C3204 C 0.40449 0.00368 0.83422 0.0
C3205 C 0.416 0.02268 0.84218 0.0
C3206 C 0.40799 0.98176 0.84521 0.0
C3207 C 0.40024 0.96914 0.82209 0.0
N3208 N 0.41294 0.00962 0.84289 0.0
N3209 N 0.3993 0.98253 0.82325 0.0
H3210 H 0.03525 0.41203 0.84223 0.0
H3211 H 0.96952 0.42703 0.80154 0.0
H3212 H 0.03427 0.41803 0.79992 0.0
H3213 H 0.96853 0.41147 0.84134 0.0
H3214 H 0.99338 0.4235 0.80095 0.0
H3215 H 0.01095 0.41125 0.84238 0.0
C3216 C 0.02993 0.41302 0.83297 0.0
C3217 C 0.03675 0.41522 0.82106 0.0
C3218 C 0.98797 0.42074 0.80979 0.0
C3219 C 0.00908 0.41447 0.82118 0.0
C3220 C 0.97434 0.4228 0.81015 0.0
C3221 C 0.96708 0.41961 0.82153 0.0
C3222 C 0.99445 0.41561 0.82098 0.0
C3223 C 0.9738 0.41408 0.83237 0.0
C3224 C 0.01608 0.41257 0.83306 0.0
C3225 C 0.02941 0.41641 0.80934 0.0
N3226 N 0.98717 0.41238 0.83189 0.0
N3227 N 0.01598 0.41615 0.80972 0.0
H3228 H 0.57762 0.03991 0.84804 0.0
H3229 H 0.59681 0.97131 0.81345 0.0
H3230 H 0.59569 0.03712 0.8094 0.0
H3231 H 0.57598 0.97438 0.85065 0.0
H3232 H 0.59972 0.99538 0.81339 0.0
H3233 H 0.58002 0.01598 0.85064 0.0
C3234 C 0.5822 0.03427 0.84014 0.0
C3235 C 0.58634 0.04048 0.82843 0.0
C3236 C 0.59466 0.99077 0.82165 0.0
C3237 C 0.58907 0.01307 0.83131 0.0
C3238 C 0.59305 0.97703 0.82172 0.0
C3239 C 0.58603 0.97087 0.83201 0.0
C3240 C 0.58919 0.99838 0.83193 0.0
C3241 C 0.58137 0.97874 0.84247 0.0
C3242 C 0.58357 0.0206 0.84163 0.0
C3243 C 0.59228 0.0327 0.81856 0.0
N3244 N 0.58292 0.9921 0.8421 0.0
N3245 N 0.59337 0.01938 0.82018 0.0
H3246 H 0.03088 0.6016 0.8257 0.0
H3247 H 0.96428 0.56021 0.81616 0.0
H3248 H 0.02882 0.5589 0.82586 0.0
H3249 H 0.96363 0.60112 0.82852 0.0
H3250 H 0.98835 0.56042 0.81733 0.0
H3251 H 0.00653 0.60245 0.82502 0.0
C3252 C 0.02531 0.59243 0.8257 0.0
C3253 C 0.03185 0.58016 0.82581 0.0
C3254 C 0.98297 0.56937 0.8198 0.0
C3255 C 0.0042 0.58106 0.82483 0.0
C3256 C 0.96922 0.56928 0.81905 0.0
C3257 C 0.96196 0.58066 0.82228 0.0
C3258 C 0.98958 0.58096 0.82371 0.0
C3259 C 0.96889 0.59213 0.82598 0.0
C3260 C 0.01146 0.59292 0.8253 0.0
C3261 C 0.0242 0.56858 0.82577 0.0
N3262 N 0.98237 0.592 0.82659 0.0
N3263 N 0.01081 0.56932 0.82519 0.0
H3264 H 0.1653 0.40173 0.03624 0.0
H3265 H 0.17702 0.44324 0.97018 0.0
H3266 H 0.18758 0.43816 0.03421 0.0
H3267 H 0.16835 0.40141 0.96866 0.0
H3268 H 0.17798 0.44199 0.99419 0.0
H3269 H 0.16398 0.4016 0.01187 0.0
C3270 C 0.16998 0.40962 0.03068 0.0
C3271 C 0.17654 0.41999 0.03723 0.0
C3272 C 0.17587 0.43306 0.98864 0.0
C3273 C 0.17489 0.42 0.0096 0.0
C3274 C 0.17525 0.43378 0.97491 0.0
C3275 C 0.17266 0.4224 0.96741 0.0
C3276 C 0.17379 0.42088 0.99501 0.0
C3277 C 0.17041 0.41041 0.97411 0.0
C3278 C 0.16922 0.40954 0.01682 0.0
C3279 C 0.18242 0.42998 0.02959 0.0
N3280 N 0.17102 0.40995 0.98758 0.0
N3281 N 0.18137 0.42978 0.01622 0.0
H3282 H 0.1546 0.56588 0.96542 0.0
H3283 H 0.1781 0.60227 0.03134 0.0
H3284 H 0.17726 0.6021 0.9651 0.0
H3285 H 0.15151 0.56882 0.03071 0.0
H3286 H 0.17655 0.60363 0.00717 0.0
H3287 H 0.15202 0.56791 0.98933 0.0
C3288 C 0.15895 0.57433 0.97039 0.0
C3289 C 0.16625 0.58378 0.96331 0.0
C3290 C 0.17093 0.5961 0.01234 0.0
C3291 C 0.16345 0.58613 0.99074 0.0
C3292 C 0.17179 0.59533 0.02613 0.0
C3293 C 0.16501 0.58533 0.03301 0.0
C3294 C 0.1633 0.58674 0.00541 0.0
C3295 C 0.15697 0.57662 0.02579 0.0
C3296 C 0.15746 0.5755 0.98405 0.0
C3297 C 0.1716 0.59457 0.97022 0.0
N3298 N 0.15645 0.57744 0.01238 0.0
N3299 N 0.17022 0.59539 0.9836 0.0
H3300 H 0.41416 0.20047 0.02968 0.0
H3301 H 0.40451 0.15732 0.9639 0.0
H3302 H 0.40971 0.15796 0.03009 0.0
H3303 H 0.41733 0.19808 0.96445 0.0
H3304 H 0.40201 0.15807 0.98808 0.0
H3305 H 0.41087 0.20038 0.00575 0.0
C3306 C 0.41234 0.19112 0.02474 0.0
C3307 C 0.41236 0.17918 0.03185 0.0
C3308 C 0.40523 0.16688 0.98287 0.0
C3309 C 0.40866 0.17901 0.00442 0.0
C3310 C 0.40659 0.16647 0.96909 0.0
C3311 C 0.41125 0.17762 0.96222 0.0
C3312 C 0.40845 0.17854 0.98974 0.0
C3313 C 0.41383 0.18922 0.96939 0.0
C3314 C 0.41049 0.19107 0.01107 0.0
C3315 C 0.40987 0.16737 0.02495 0.0
N3316 N 0.41247 0.18936 0.98276 0.0
N3317 N 0.40823 0.16756 0.01157 0.0
H3318 H 0.85033 0.41657 0.96167 0.0
H3319 H 0.81218 0.40058 0.02905 0.0
H3320 H 0.81088 0.40021 0.96316 0.0
H3321 H 0.84999 0.42039 0.02679 0.0
H3322 H 0.81327 0.39637 0.00518 0.0
H3323 H 0.85207 0.41399 0.98563 0.0
C3324 C 0.84209 0.41227 0.96703 0.0
C3325 C 0.83037 0.40876 0.96046 0.0
C3326 C 0.82141 0.40147 0.00995 0.0
C3327 C 0.83224 0.40591 0.98792 0.0
C3328 C 0.82082 0.40383 0.02358 0.0
C3329 C 0.83093 0.41099 0.02985 0.0
C3330 C 0.8322 0.40631 0.0026 0.0
C3331 C 0.8419 0.41496 0.02231 0.0
C3332 C 0.84308 0.41082 0.98072 0.0
C3333 C 0.82005 0.40314 0.96788 0.0
N3334 N 0.84218 0.41268 0.00907 0.0
N3335 N 0.82115 0.40204 0.98125 0.0
H3336 H 0.59689 0.81848 0.0288 0.0
H3337 H 0.56675 0.84316 0.95973 0.0
H3338 H 0.56262 0.84375 0.02494 0.0
H3339 H 0.59907 0.81532 0.96241 0.0
H3340 H 0.56708 0.84555 0.98373 0.0
H3341 H 0.59978 0.81922 0.00467 0.0
C3342 C 0.59008 0.8243 0.02289 0.0
C3343 C 0.57944 0.83098 0.02884 0.0
C3344 C 0.57417 0.83898 0.9791 0.0
C3345 C 0.58265 0.83184 0.00134 0.0
C3346 C 0.574 0.83762 0.96538 0.0
C3347 C 0.58283 0.82895 0.95909 0.0
C3348 C 0.58321 0.83156 0.98665 0.0
C3349 C 0.59205 0.82207 0.9669 0.0
C3350 C 0.59171 0.82469 0.00914 0.0
C3351 C 0.57091 0.83837 0.02075 0.0
N3352 N 0.59194 0.82344 0.98031 0.0
N3353 N 0.57266 0.83853 0.00743 0.0
H3354 H 0.84172 0.59593 0.0359 0.0
H3355 H 0.8008 0.58244 0.9694 0.0
H3356 H 0.80152 0.58146 0.03472 0.0
H3357 H 0.84293 0.58966 0.96989 0.0
H3358 H 0.80007 0.58626 0.99323 0.0
H3359 H 0.84145 0.59783 0.01167 0.0
C3360 C 0.83278 0.59336 0.03056 0.0
C3361 C 0.82167 0.58841 0.03728 0.0
C3362 C 0.80947 0.58712 0.98814 0.0
C3363 C 0.8213 0.59051 0.00969 0.0
C3364 C 0.80989 0.58495 0.97452 0.0
C3365 C 0.82198 0.58558 0.9677 0.0
C3366 C 0.82123 0.5899 0.99502 0.0
C3367 C 0.83343 0.58898 0.97481 0.0
C3368 C 0.83265 0.59439 0.01675 0.0
C3369 C 0.81035 0.5852 0.02991 0.0
N3370 N 0.8328 0.5909 0.98813 0.0
N3371 N 0.81049 0.58623 0.01651 0.0
H3372 H 0.40057 0.82498 0.96559 0.0
H3373 H 0.44079 0.81757 0.03342 0.0
H3374 H 0.44317 0.8227 0.96837 0.0
H3375 H 0.39932 0.82792 0.03257 0.0
H3376 H 0.44126 0.81819 0.00935 0.0
H3377 H 0.39932 0.82523 0.98991 0.0
C3378 C 0.40964 0.82462 0.97131 0.0
C3379 C 0.42199 0.82379 0.96497 0.0
C3380 C 0.43204 0.82035 0.01438 0.0
C3381 C 0.42064 0.82394 0.99265 0.0
C3382 C 0.43175 0.81995 0.02815 0.0
C3383 C 0.42 0.8227 0.035 0.0
C3384 C 0.42046 0.82347 0.00733 0.0
C3385 C 0.40859 0.82574 0.02764 0.0
C3386 C 0.40893 0.82475 0.98516 0.0
C3387 C 0.43344 0.82333 0.97282 0.0
N3388 N 0.40909 0.82602 0.01416 0.0
N3389 N 0.43247 0.82334 0.98621 0.0
H3390 H 0.57957 0.14704 0.97145 0.0
H3391 H 0.60048 0.18683 0.03638 0.0
H3392 H 0.59923 0.18497 0.97058 0.0
H3393 H 0.57973 0.14947 0.03671 0.0
H3394 H 0.60353 0.18463 0.01242 0.0
H3395 H 0.58311 0.14599 0.99533 0.0
C3396 C 0.58483 0.15506 0.97626 0.0
C3397 C 0.58897 0.16619 0.96906 0.0
C3398 C 0.59846 0.17683 0.01776 0.0
C3399 C 0.59288 0.16515 0.99645 0.0
C3400 C 0.59673 0.17807 0.03144 0.0
C3401 C 0.58969 0.1684 0.03849 0.0
C3402 C 0.59307 0.16585 0.01113 0.0
C3403 C 0.5851 0.15724 0.03162 0.0
C3404 C 0.58682 0.15447 0.98992 0.0
C3405 C 0.5958 0.17624 0.97579 0.0
N3406 N 0.58674 0.15634 0.01831 0.0
N3407 N 0.59738 0.17558 0.98914 0.0
H3408 H 0.53693 0.65045 0.92484 0.0
H3409 H 0.46907 0.68407 0.90156 0.0
H3410 H 0.53516 0.68579 0.90086 0.0
H3411 H 0.47134 0.64978 0.92698 0.0
H3412 H 0.49316 0.68337 0.8989 0.0
H3413 H 0.51287 0.64856 0.92344 0.0
C3414 C 0.53148 0.65776 0.91918 0.0
C3415 C 0.53803 0.66836 0.91304 0.0
C3416 C 0.48838 0.67592 0.90496 0.0
C3417 C 0.51045 0.66632 0.91148 0.0
C3418 C 0.47463 0.6763 0.90645 0.0
C3419 C 0.46823 0.66703 0.91459 0.0
C3420 C 0.49576 0.66621 0.91166 0.0
C3421 C 0.47589 0.65717 0.92068 0.0
C3422 C 0.51773 0.65668 0.91839 0.0
C3423 C 0.53048 0.6775 0.90579 0.0
N3424 N 0.48925 0.65708 0.91917 0.0
N3425 N 0.51707 0.67633 0.90529 0.0
H3426 H 0.30766 0.53329 0.90045 0.0
H3427 H 0.34677 0.46675 0.9181 0.0
H3428 H 0.34585 0.53218 0.91963 0.0
H3429 H 0.30703 0.46736 0.90235 0.0
H3430 H 0.34803 0.49072 0.91521 0.0
H3431 H 0.3087 0.50923 0.8976 0.0
C3432 C 0.31634 0.528 0.90389 0.0
C3433 C 0.32662 0.53469 0.91042 0.0
C3434 C 0.33907 0.48561 0.91226 0.0
C3435 C 0.32785 0.50723 0.90727 0.0
C3436 C 0.33836 0.47192 0.91389 0.0
C3437 C 0.32672 0.4651 0.9106 0.0
C3438 C 0.32805 0.49255 0.90737 0.0
C3439 C 0.31616 0.47227 0.90511 0.0
C3440 C 0.31691 0.51428 0.9023 0.0
C3441 C 0.33765 0.52739 0.91465 0.0
N3442 N 0.31702 0.48564 0.90379 0.0
N3443 N 0.33792 0.51404 0.91311 0.0
H3444 H 0.46359 0.32033 0.89808 0.0
H3445 H 0.52719 0.34414 0.93884 0.0
H3446 H 0.46206 0.34111 0.9354 0.0
H3447 H 0.52982 0.3219 0.90244 0.0
H3448 H 0.50326 0.34545 0.93609 0.0
H3449 H 0.48774 0.32302 0.89791 0.0
C3450 C 0.46833 0.32558 0.90616 0.0
C3451 C 0.46086 0.3304 0.91683 0.0
C3452 C 0.50904 0.34036 0.92863 0.0
C3453 C 0.48837 0.33348 0.91672 0.0
C3454 C 0.52272 0.33962 0.93019 0.0
C3455 C 0.53047 0.3328 0.92091 0.0
C3456 C 0.50301 0.33414 0.91775 0.0
C3457 C 0.52418 0.32721 0.90985 0.0
C3458 C 0.48209 0.32709 0.90606 0.0
C3459 C 0.46745 0.33713 0.92703 0.0
N3460 N 0.51077 0.32789 0.90864 0.0
N3461 N 0.48082 0.33839 0.92675 0.0
H3462 H 0.66696 0.52741 0.94205 0.0
H3463 H 0.6725 0.46164 0.89812 0.0
H3464 H 0.67493 0.52847 0.90006 0.0
H3465 H 0.67315 0.46243 0.94085 0.0
H3466 H 0.6707 0.48592 0.89801 0.0
H3467 H 0.66612 0.50334 0.9411 0.0
C3468 C 0.66843 0.52257 0.93259 0.0
C3469 C 0.67111 0.52994 0.92113 0.0
C3470 C 0.67121 0.48074 0.90739 0.0
C3471 C 0.67026 0.50231 0.91998 0.0
C3472 C 0.67222 0.46692 0.90746 0.0
C3473 C 0.67304 0.46005 0.91951 0.0
C3474 C 0.67088 0.48765 0.91946 0.0
C3475 C 0.67262 0.46733 0.93133 0.0
C3476 C 0.668 0.50881 0.93206 0.0
C3477 C 0.67288 0.52313 0.90914 0.0
N3478 N 0.67157 0.48071 0.931 0.0
N3479 N 0.6725 0.50966 0.90887 0.0
H3480 H 0.53703 0.32976 0.10011 0.0
H3481 H 0.47211 0.32839 0.05453 0.0
H3482 H 0.53699 0.3217 0.05814 0.0
H3483 H 0.47016 0.32988 0.09721 0.0
H3484 H 0.49617 0.3282 0.05582 0.0
H3485 H 0.51277 0.33175 0.09944 0.0
C3486 C 0.53192 0.32841 0.09077 0.0
C3487 C 0.539 0.32552 0.07917 0.0
C3488 C 0.49052 0.32861 0.06493 0.0
C3489 C 0.51141 0.32787 0.07831 0.0
C3490 C 0.47676 0.32877 0.0642 0.0
C3491 C 0.46912 0.3291 0.07579 0.0
C3492 C 0.49677 0.32879 0.07735 0.0
C3493 C 0.4757 0.3296 0.08803 0.0
C3494 C 0.5181 0.32955 0.0904 0.0
C3495 C 0.53193 0.32389 0.06733 0.0
N3496 N 0.48918 0.32938 0.08851 0.0
N3497 N 0.51855 0.32511 0.06722 0.0
H3498 H 0.67987 0.53696 0.10048 0.0
H3499 H 0.65316 0.47309 0.06219 0.0
H3500 H 0.65552 0.53832 0.06539 0.0
H3501 H 0.67713 0.47079 0.09749 0.0
H3502 H 0.65189 0.49705 0.06484 0.0
H3503 H 0.67705 0.51285 0.10118 0.0
C3504 C 0.6738 0.5322 0.09302 0.0
C3505 C 0.66802 0.53961 0.08279 0.0
C3506 C 0.65734 0.49133 0.07209 0.0
C3507 C 0.6648 0.51211 0.08348 0.0
C3508 C 0.65806 0.47764 0.07058 0.0
C3509 C 0.66536 0.46997 0.07957 0.0
C3510 C 0.66408 0.49746 0.0826 0.0
C3511 C 0.67144 0.47636 0.09031 0.0
C3512 C 0.67221 0.51845 0.09341 0.0
C3513 C 0.66024 0.53297 0.07339 0.0
N3514 N 0.67079 0.48977 0.09146 0.0
N3515 N 0.65895 0.51961 0.07391 0.0
H3516 H 0.46315 0.68431 0.09985 0.0
H3517 H 0.52641 0.6504 0.06766 0.0
H3518 H 0.46117 0.65079 0.07342 0.0
H3519 H 0.52901 0.67893 0.09935 0.0
H3520 H 0.50251 0.64914 0.07106 0.0
H3521 H 0.48719 0.6814 0.10129 0.0
C3522 C 0.46776 0.67624 0.09449 0.0
C3523 C 0.4602 0.66787 0.08638 0.0
C3524 C 0.5083 0.65555 0.0774 0.0
C3525 C 0.48764 0.66455 0.08789 0.0
C3526 C 0.52195 0.65627 0.07546 0.0
C3527 C 0.52965 0.66487 0.08316 0.0
C3528 C 0.50228 0.66365 0.08698 0.0
C3529 C 0.5234 0.67221 0.09317 0.0
C3530 C 0.48147 0.67457 0.09532 0.0
C3531 C 0.46665 0.65754 0.0797 0.0
N3532 N 0.51003 0.67158 0.09467 0.0
N3533 N 0.48001 0.65627 0.08047 0.0
H3534 H 0.30295 0.46504 0.09124 0.0
H3535 H 0.34676 0.52954 0.08093 0.0
H3536 H 0.34517 0.4638 0.0847 0.0
H3537 H 0.3062 0.53055 0.09438 0.0
H3538 H 0.34692 0.50551 0.08401 0.0
H3539 H 0.30433 0.489 0.0942 0.0
C3540 C 0.31254 0.4698 0.09059 0.0
C3541 C 0.32394 0.46247 0.08758 0.0
C3542 C 0.33804 0.511 0.08646 0.0
C3543 C 0.3256 0.48989 0.09082 0.0
C3544 C 0.33795 0.52471 0.0847 0.0
C3545 C 0.32641 0.532 0.08728 0.0
C3546 C 0.32645 0.50454 0.09068 0.0
C3547 C 0.31528 0.52528 0.0922 0.0
C3548 C 0.31333 0.48348 0.09229 0.0
C3549 C 0.33612 0.46911 0.08692 0.0
N3550 N 0.31553 0.51191 0.09357 0.0
N3551 N 0.33661 0.48249 0.08835 0.0
H3552 H 0.89781 0.53501 0.68406 0.0
H3553 H 0.92519 0.47146 0.64635 0.0
H3554 H 0.92262 0.53657 0.64928 0.0
H3555 H 0.89834 0.46925 0.67953 0.0
H3556 H 0.92164 0.49534 0.64534 0.0
H3557 H 0.89526 0.51111 0.68082 0.0
C3558 C 0.90256 0.53035 0.67564 0.0
C3559 C 0.91058 0.53774 0.66702 0.0
C3560 C 0.91636 0.48964 0.65274 0.0
C3561 C 0.90778 0.51044 0.66331 0.0
C3562 C 0.91837 0.47599 0.65329 0.0
C3563 C 0.91217 0.46842 0.66313 0.0
C3564 C 0.90823 0.49579 0.66221 0.0
C3565 C 0.90337 0.47476 0.67182 0.0
C3566 C 0.90111 0.51671 0.6738 0.0
C3567 C 0.91646 0.53123 0.65625 0.0
N3568 N 0.90182 0.48813 0.6713 0.0
N3569 N 0.91507 0.51794 0.65479 0.0
H3570 H 0.53025 0.89838 0.67898 0.0
H3571 H 0.46313 0.92873 0.64995 0.0
H3572 H 0.52815 0.93238 0.65317 0.0
H3573 H 0.46392 0.89674 0.67828 0.0
H3574 H 0.48718 0.92769 0.64838 0.0
H3575 H 0.5063 0.89525 0.67635 0.0
C3576 C 0.52478 0.90507 0.67263 0.0
C3577 C 0.53115 0.91574 0.66639 0.0
C3578 C 0.48213 0.9208 0.65486 0.0
C3579 C 0.50384 0.91225 0.66336 0.0
C3580 C 0.46838 0.92138 0.65575 0.0
C3581 C 0.46155 0.91291 0.66437 0.0
C3582 C 0.48916 0.91176 0.66275 0.0
C3583 C 0.46883 0.9035 0.67156 0.0
C3584 C 0.51112 0.9033 0.67115 0.0
C3585 C 0.52362 0.9241 0.65826 0.0
N3586 N 0.48229 0.90327 0.67071 0.0
N3587 N 0.51036 0.92224 0.65706 0.0
H3588 H 0.08521 0.52817 0.69889 0.0
H3589 H 0.09538 0.46106 0.65798 0.0
H3590 H 0.08879 0.52712 0.65631 0.0
H3591 H 0.08372 0.46282 0.69906 0.0
H3592 H 0.09715 0.4853 0.65773 0.0
H3593 H 0.08885 0.50432 0.69959 0.0
C3594 C 0.08689 0.52293 0.68968 0.0
C3595 C 0.08656 0.52961 0.67751 0.0
C3596 C 0.09435 0.48035 0.66682 0.0
C3597 C 0.09068 0.50225 0.67823 0.0
C3598 C 0.0934 0.46653 0.66699 0.0
C3599 C 0.08929 0.45997 0.67853 0.0
C3600 C 0.09126 0.48758 0.67831 0.0
C3601 C 0.08682 0.46751 0.68992 0.0
C3602 C 0.08895 0.5093 0.69009 0.0
C3603 C 0.08888 0.52232 0.6659 0.0
N3604 N 0.08777 0.48091 0.6895 0.0
N3605 N 0.09074 0.50899 0.66653 0.0
H3606 H 0.47055 0.09502 0.67352 0.0
H3607 H 0.53865 0.05521 0.67707 0.0
H3608 H 0.4743 0.05306 0.66624 0.0
H3609 H 0.53784 0.09758 0.67152 0.0
H3610 H 0.51464 0.05469 0.6752 0.0
H3611 H 0.49485 0.09668 0.67443 0.0
C3612 C 0.47647 0.0862 0.67202 0.0
C3613 C 0.47042 0.07388 0.66984 0.0
C3614 C 0.51968 0.06412 0.67436 0.0
C3615 C 0.49803 0.07568 0.67104 0.0
C3616 C 0.5334 0.06443 0.67549 0.0
C3617 C 0.54024 0.07646 0.67443 0.0
C3618 C 0.51265 0.07593 0.67227 0.0
C3619 C 0.53291 0.0881 0.67236 0.0
C3620 C 0.4903 0.08716 0.67255 0.0
C3621 C 0.47853 0.06276 0.66797 0.0
N3622 N 0.51946 0.08756 0.67139 0.0
N3623 N 0.49189 0.06392 0.66871 0.0
H3624 H 0.91936 0.46365 0.3508 0.0
H3625 H 0.89805 0.53087 0.31499 0.0
H3626 H 0.89831 0.46493 0.31363 0.0
H3627 H 0.92218 0.52885 0.3502 0.0
H3628 H 0.89444 0.50692 0.31643 0.0
H3629 H 0.91685 0.48759 0.3528 0.0
C3630 C 0.91406 0.46896 0.34313 0.0
C3631 C 0.90918 0.46234 0.33195 0.0
C3632 C 0.90037 0.51176 0.32394 0.0
C3633 C 0.90638 0.48978 0.3341 0.0
C3634 C 0.9024 0.52542 0.32315 0.0
C3635 C 0.91056 0.5318 0.3324 0.0
C3636 C 0.90657 0.50447 0.33405 0.0
C3637 C 0.91593 0.5243 0.34278 0.0
C3638 C 0.91264 0.48264 0.34427 0.0
C3639 C 0.90231 0.46969 0.32236 0.0
N3640 N 0.91395 0.51101 0.34325 0.0
N3641 N 0.90125 0.48306 0.32358 0.0
H3642 H 0.46919 0.90645 0.33779 0.0
H3643 H 0.5358 0.92417 0.29925 0.0
H3644 H 0.47054 0.92246 0.29818 0.0
H3645 H 0.53563 0.90314 0.33645 0.0
H3646 H 0.51177 0.92229 0.29829 0.0
H3647 H 0.49335 0.90377 0.33721 0.0
C3648 C 0.47455 0.90926 0.32893 0.0
C3649 C 0.46789 0.9148 0.31807 0.0
C3650 C 0.51696 0.91796 0.30662 0.0
C3651 C 0.49542 0.91185 0.31735 0.0
C3652 C 0.53069 0.91905 0.30718 0.0
C3653 C 0.53768 0.91389 0.31799 0.0
C3654 C 0.51011 0.91181 0.31706 0.0
C3655 C 0.53058 0.90728 0.32795 0.0
C3656 C 0.48832 0.90773 0.3286 0.0
C3657 C 0.47528 0.91825 0.30683 0.0
N3658 N 0.51713 0.90655 0.32733 0.0
N3659 N 0.48864 0.91682 0.30681 0.0
H3660 H 0.09482 0.53757 0.34046 0.0
H3661 H 0.07872 0.47182 0.29921 0.0
H3662 H 0.07429 0.53696 0.30299 0.0
H3663 H 0.08951 0.4711 0.34056 0.0
H3664 H 0.08121 0.49583 0.29917 0.0
H3665 H 0.09689 0.51335 0.3394 0.0
C3666 C 0.0909 0.53236 0.33195 0.0
C3667 C 0.08429 0.53923 0.32184 0.0
C3668 C 0.08313 0.49043 0.30824 0.0
C3669 C 0.08665 0.51168 0.32055 0.0
C3670 C 0.08175 0.47671 0.30826 0.0
C3671 C 0.08379 0.46947 0.31994 0.0
C3672 C 0.0866 0.49701 0.31999 0.0
C3673 C 0.08777 0.47633 0.33136 0.0
C3674 C 0.09204 0.51856 0.33138 0.0
C3675 C 0.07937 0.53202 0.31105 0.0
N3676 N 0.08896 0.48976 0.33113 0.0
N3677 N 0.08062 0.51865 0.3107 0.0
H3678 H 0.52694 0.07771 0.35153 0.0
H3679 H 0.4627 0.10034 0.31142 0.0
H3680 H 0.52864 0.09875 0.31437 0.0
H3681 H 0.46183 0.07811 0.34792 0.0
H3682 H 0.48668 0.10311 0.31401 0.0
H3683 H 0.50305 0.08121 0.35217 0.0
C3684 C 0.5223 0.08325 0.3436 0.0
C3685 C 0.52974 0.08781 0.3328 0.0
C3686 C 0.48121 0.09777 0.32153 0.0
C3687 C 0.50234 0.09168 0.33335 0.0
C3688 C 0.46753 0.09621 0.32007 0.0
C3689 C 0.46032 0.08884 0.32939 0.0
C3690 C 0.48768 0.09192 0.33239 0.0
C3691 C 0.46704 0.08374 0.34042 0.0
C3692 C 0.50864 0.08522 0.34395 0.0
C3693 C 0.52324 0.095 0.32284 0.0
N3694 N 0.48034 0.08527 0.34155 0.0
N3695 N 0.50986 0.09655 0.32325 0.0
H3696 H 0.68064 0.89911 0.47035 0.0
H3697 H 0.6455 0.91717 0.53896 0.0
H3698 H 0.647 0.92518 0.4743 0.0
H3699 H 0.68336 0.89747 0.53647 0.0
H3700 H 0.64341 0.91575 0.51494 0.0
H3701 H 0.67933 0.89427 0.49413 0.0
C3702 C 0.67285 0.90364 0.47618 0.0
C3703 C 0.664 0.91267 0.47041 0.0
C3704 C 0.65211 0.91158 0.51964 0.0
C3705 C 0.66245 0.9072 0.4975 0.0
C3706 C 0.65329 0.91235 0.53336 0.0
C3707 C 0.6647 0.90759 0.53969 0.0
C3708 C 0.66245 0.90607 0.51215 0.0
C3709 C 0.67443 0.90136 0.53196 0.0
C3710 C 0.67214 0.90091 0.48974 0.0
C3711 C 0.65411 0.91827 0.47839 0.0
N3712 N 0.67317 0.90093 0.51855 0.0
N3713 N 0.65366 0.91551 0.49154 0.0
H3714 H 0.67112 0.05234 0.52304 0.0
H3715 H 0.67402 0.09914 0.45965 0.0
H3716 H 0.67483 0.09472 0.52718 0.0
H3717 H 0.68554 0.05797 0.45973 0.0
H3718 H 0.67184 0.09822 0.48393 0.0
H3719 H 0.67332 0.05466 0.49919 0.0
C3720 C 0.67233 0.06217 0.51891 0.0
C3721 C 0.67285 0.07336 0.52711 0.0
C3722 C 0.67493 0.08945 0.47858 0.0
C3723 C 0.67542 0.07607 0.4997 0.0
C3724 C 0.67617 0.08996 0.46477 0.0
C3725 C 0.67995 0.0786 0.45769 0.0
C3726 C 0.67728 0.07745 0.48522 0.0
C3727 C 0.68261 0.06696 0.46478 0.0
C3728 C 0.67366 0.06347 0.50528 0.0
C3729 C 0.67441 0.08585 0.52119 0.0
N3730 N 0.68112 0.06667 0.47811 0.0
N3731 N 0.67563 0.08689 0.50778 0.0
H3732 H 0.8953 0.68574 0.46403 0.0
H3733 H 0.92213 0.64658 0.52707 0.0
H3734 H 0.91674 0.64882 0.46203 0.0
H3735 H 0.90035 0.68327 0.52959 0.0
H3736 H 0.91702 0.64544 0.50348 0.0
H3737 H 0.89386 0.68328 0.48811 0.0
C3738 C 0.89951 0.67701 0.46864 0.0
C3739 C 0.9063 0.66755 0.46106 0.0
C3740 C 0.9132 0.65366 0.5092 0.0
C3741 C 0.9048 0.66473 0.48857 0.0
C3742 C 0.9161 0.6543 0.52269 0.0
C3743 C 0.9118 0.66512 0.53025 0.0
C3744 C 0.90606 0.66399 0.50319 0.0
C3745 C 0.90394 0.67479 0.52409 0.0
C3746 C 0.89871 0.67562 0.48239 0.0
C3747 C 0.91154 0.65642 0.46752 0.0
N3748 N 0.90148 0.6741 0.51087 0.0
N3749 N 0.91081 0.6554 0.48091 0.0
H3750 H 0.32837 0.8963 0.46342 0.0
H3751 H 0.33574 0.94135 0.5278 0.0
H3752 H 0.32339 0.93876 0.4638 0.0
H3753 H 0.32426 0.90028 0.53087 0.0
H3754 H 0.33518 0.93952 0.50379 0.0
H3755 H 0.33013 0.89662 0.48776 0.0
C3756 C 0.32762 0.90565 0.46862 0.0
C3757 C 0.32572 0.91752 0.46162 0.0
C3758 C 0.33283 0.93088 0.50969 0.0
C3759 C 0.32794 0.91796 0.48921 0.0
C3760 C 0.33321 0.93189 0.52342 0.0
C3761 C 0.32995 0.92096 0.53135 0.0
C3762 C 0.32925 0.91884 0.50378 0.0
C3763 C 0.32679 0.90895 0.52509 0.0
C3764 C 0.32861 0.90582 0.48246 0.0
C3765 C 0.32481 0.92937 0.4688 0.0
N3766 N 0.32649 0.90819 0.51162 0.0
N3767 N 0.32602 0.92929 0.48216 0.0
H3768 H 0.05939 0.34466 0.52486 0.0
H3769 H 0.10069 0.3213 0.46141 0.0
H3770 H 0.09635 0.32337 0.5277 0.0
H3771 H 0.06296 0.34131 0.45976 0.0
H3772 H 0.10073 0.32398 0.48556 0.0
H3773 H 0.06205 0.34571 0.50091 0.0
C3774 C 0.06815 0.3403 0.52043 0.0
C3775 C 0.07761 0.33382 0.52825 0.0
C3776 C 0.0925 0.32787 0.47989 0.0
C3777 C 0.08068 0.33485 0.50076 0.0
C3778 C 0.09249 0.32636 0.46612 0.0
C3779 C 0.08175 0.331 0.45861 0.0
C3780 C 0.08171 0.33408 0.48613 0.0
C3781 C 0.07139 0.3375 0.46518 0.0
C3782 C 0.06966 0.34089 0.50674 0.0
C3783 C 0.0888 0.32843 0.522 0.0
N3784 N 0.0716 0.33877 0.47855 0.0
N3785 N 0.08997 0.32895 0.50858 0.0
H3786 H 0.33219 0.09589 0.53579 0.0
H3787 H 0.31019 0.05559 0.47106 0.0
H3788 H 0.31049 0.05909 0.53647 0.0
H3789 H 0.33241 0.09205 0.46923 0.0
H3790 H 0.30964 0.05735 0.4951 0.0
H3791 H 0.33177 0.09536 0.51149 0.0
C3792 C 0.32729 0.08775 0.53083 0.0
C3793 C 0.3214 0.0775 0.53814 0.0
C3794 C 0.31463 0.065 0.48948 0.0
C3795 C 0.32091 0.0768 0.51043 0.0
C3796 C 0.31495 0.064 0.47573 0.0
C3797 C 0.32139 0.07368 0.46813 0.0
C3798 C 0.32081 0.07576 0.49576 0.0
C3799 C 0.32736 0.08436 0.47473 0.0
C3800 C 0.32707 0.08744 0.51697 0.0
C3801 C 0.31519 0.06718 0.53123 0.0
N3802 N 0.32695 0.08511 0.48819 0.0
N3803 N 0.31514 0.06709 0.51779 0.0
H3804 H 0.90232 0.32973 0.46962 0.0
H3805 H 0.94079 0.31563 0.53747 0.0
H3806 H 0.94415 0.32138 0.47244 0.0
H3807 H 0.90024 0.32911 0.53641 0.0
H3808 H 0.94171 0.31706 0.51344 0.0
H3809 H 0.9009 0.32927 0.4939 0.0
C3810 C 0.9112 0.32789 0.47534 0.0
C3811 C 0.92336 0.32557 0.46902 0.0
C3812 C 0.93259 0.31973 0.51842 0.0
C3813 C 0.9218 0.3249 0.49667 0.0
C3814 C 0.93205 0.31887 0.53216 0.0
C3815 C 0.92042 0.32225 0.53894 0.0
C3816 C 0.9214 0.32397 0.51133 0.0
C3817 C 0.9094 0.32641 0.53154 0.0
C3818 C 0.91038 0.32761 0.48917 0.0
C3819 C 0.93457 0.32321 0.47689 0.0
N3820 N 0.91015 0.32713 0.5181 0.0
N3821 N 0.9335 0.32288 0.49027 0.0
H3822 H 0.0965 0.68793 0.47066 0.0
H3823 H 0.0843 0.64868 0.53817 0.0
H3824 H 0.07662 0.65022 0.47356 0.0
H3825 H 0.09946 0.68859 0.53648 0.0
H3826 H 0.08601 0.64724 0.51412 0.0
H3827 H 0.1021 0.68647 0.49424 0.0
C3828 C 0.09352 0.67924 0.47621 0.0
C3829 C 0.08593 0.66927 0.47023 0.0
C3830 C 0.08913 0.65626 0.519 0.0
C3831 C 0.09223 0.66756 0.49711 0.0
C3832 C 0.08817 0.65708 0.53274 0.0
C3833 C 0.09155 0.66885 0.53928 0.0
C3834 C 0.0934 0.66733 0.51174 0.0
C3835 C 0.09663 0.67938 0.53178 0.0
C3836 C 0.09668 0.67843 0.48965 0.0
C3837 C 0.08235 0.65821 0.47783 0.0
N3838 N 0.09723 0.67844 0.51836 0.0
N3839 N 0.08542 0.65772 0.4909 0.0
H3840 H 0.09593 0.1724 0.53217 0.0
H3841 H 0.0602 0.15966 0.46255 0.0
H3842 H 0.05519 0.16016 0.52801 0.0
H3843 H 0.09933 0.17646 0.46613 0.0
H3844 H 0.05937 0.15697 0.48655 0.0
H3845 H 0.0985 0.17114 0.50808 0.0
C3846 C 0.08757 0.16931 0.52619 0.0
C3847 C 0.0753 0.16648 0.53207 0.0
C3848 C 0.06818 0.16118 0.48211 0.0
C3849 C 0.07815 0.16506 0.50455 0.0
C3850 C 0.06867 0.1627 0.46839 0.0
C3851 C 0.07981 0.1684 0.46236 0.0
C3852 C 0.07891 0.1654 0.48988 0.0
C3853 C 0.09052 0.17209 0.47041 0.0
C3854 C 0.08904 0.16863 0.51245 0.0
C3855 C 0.06481 0.16251 0.52388 0.0
N3856 N 0.08978 0.17061 0.48378 0.0
N3857 N 0.06645 0.162 0.51054 0.0
H3858 H 0.85015 0.07974 0.4634 0.0
H3859 H 0.81146 0.09116 0.53167 0.0
H3860 H 0.80892 0.09076 0.46587 0.0
H3861 H 0.84856 0.07009 0.52898 0.0
H3862 H 0.81214 0.09495 0.50777 0.0
H3863 H 0.85139 0.07999 0.48765 0.0
C3864 C 0.84141 0.08236 0.46905 0.0
C3865 C 0.82939 0.08513 0.46265 0.0
C3866 C 0.82018 0.08958 0.51242 0.0
C3867 C 0.83074 0.08546 0.4903 0.0
C3868 C 0.81982 0.08745 0.52606 0.0
C3869 C 0.82991 0.0802 0.53228 0.0
C3870 C 0.83075 0.08449 0.50494 0.0
C3871 C 0.84053 0.07565 0.52455 0.0
C3872 C 0.84211 0.08246 0.48286 0.0
C3873 C 0.81836 0.08847 0.47042 0.0
N3874 N 0.84064 0.07782 0.51125 0.0
N3875 N 0.81929 0.08849 0.48384 0.0
H3876 H 0.94702 0.83264 0.52746 0.0
H3877 H 0.90005 0.8347 0.46379 0.0
H3878 H 0.90445 0.8304 0.5307 0.0
H3879 H 0.94116 0.82299 0.46296 0.0
H3880 H 0.90142 0.83668 0.48804 0.0
H3881 H 0.94497 0.83307 0.50342 0.0
C3882 C 0.93722 0.83235 0.52311 0.0
C3883 C 0.92588 0.83139 0.53108 0.0
C3884 C 0.91012 0.8337 0.4825 0.0
C3885 C 0.92348 0.83183 0.50352 0.0
C3886 C 0.90936 0.83259 0.46871 0.0
C3887 C 0.9205 0.82862 0.4614 0.0
C3888 C 0.92216 0.83102 0.48893 0.0
C3889 C 0.93231 0.826 0.46822 0.0
C3890 C 0.93606 0.83253 0.50938 0.0
C3891 C 0.91343 0.83108 0.52489 0.0
N3892 N 0.93284 0.82729 0.48158 0.0
N3893 N 0.91255 0.83126 0.51143 0.0
H3894 H 0.15165 0.92391 0.46356 0.0
H3895 H 0.1816 0.90203 0.53357 0.0
H3896 H 0.18704 0.9004 0.46824 0.0
H3897 H 0.14978 0.93024 0.52923 0.0
H3898 H 0.18113 0.89817 0.5097 0.0
H3899 H 0.14837 0.92328 0.48758 0.0
C3900 C 0.15864 0.91849 0.46963 0.0
C3901 C 0.16971 0.91231 0.46394 0.0
C3902 C 0.17415 0.90511 0.51397 0.0
C3903 C 0.16604 0.91157 0.49137 0.0
C3904 C 0.17439 0.90728 0.52761 0.0
C3905 C 0.16581 0.91658 0.53335 0.0
C3906 C 0.1653 0.9123 0.50601 0.0
C3907 C 0.15663 0.92305 0.52517 0.0
C3908 C 0.15678 0.91816 0.48333 0.0
C3909 C 0.17844 0.9054 0.47224 0.0
N3910 N 0.1567 0.92089 0.51189 0.0
N3911 N 0.17647 0.90529 0.48555 0.0
H3912 H 0.09044 0.81313 0.4689 0.0
H3913 H 0.07843 0.84824 0.5388 0.0
H3914 H 0.06639 0.84818 0.47327 0.0
H3915 H 0.08748 0.80668 0.53472 0.0
H3916 H 0.0782 0.85031 0.51459 0.0
H3917 H 0.09376 0.8127 0.49291 0.0
C3918 C 0.08598 0.82082 0.4749 0.0
C3919 C 0.07806 0.83066 0.46912 0.0
C3920 C 0.08031 0.84077 0.51902 0.0
C3921 C 0.08184 0.83023 0.49653 0.0
C3922 C 0.0805 0.83959 0.53281 0.0
C3923 C 0.0829 0.82725 0.53873 0.0
C3924 C 0.08276 0.82958 0.51115 0.0
C3925 C 0.08549 0.81635 0.53053 0.0
C3926 C 0.08783 0.82053 0.48859 0.0
C3927 C 0.07251 0.84038 0.47735 0.0
N3928 N 0.08537 0.81777 0.51714 0.0
N3929 N 0.07449 0.83992 0.49067 0.0
H3930 H 0.15248 0.06412 0.4711 0.0
H3931 H 0.18602 0.09883 0.5334 0.0
H3932 H 0.18107 0.09573 0.46795 0.0
H3933 H 0.15177 0.0735 0.53672 0.0
H3934 H 0.18374 0.0984 0.50933 0.0
H3935 H 0.15137 0.06787 0.49505 0.0
C3936 C 0.15842 0.07193 0.47543 0.0
C3937 C 0.16695 0.07956 0.46756 0.0
C3938 C 0.17663 0.09304 0.51531 0.0
C3939 C 0.16583 0.08382 0.4949 0.0
C3940 C 0.17793 0.09328 0.52905 0.0
C3941 C 0.16911 0.08613 0.53704 0.0
C3942 C 0.16654 0.08543 0.50949 0.0
C3943 C 0.15879 0.07914 0.5309 0.0
C3944 C 0.15778 0.07407 0.48909 0.0
C3945 C 0.1744 0.08957 0.47366 0.0
N3946 N 0.15787 0.07883 0.51746 0.0
N3947 N 0.17377 0.09132 0.48698 0.0
H3948 H 0.90277 0.16439 0.53522 0.0
H3949 H 0.9485 0.16996 0.47063 0.0
H3950 H 0.944 0.17562 0.53606 0.0
H3951 H 0.90582 0.16822 0.46888 0.0
H3952 H 0.94732 0.16885 0.49477 0.0
H3953 H 0.90399 0.16278 0.51101 0.0
C3954 C 0.91209 0.16645 0.53031 0.0
C3955 C 0.92329 0.17021 0.53763 0.0
C3956 C 0.93821 0.16866 0.48911 0.0
C3957 C 0.92478 0.16831 0.51003 0.0
C3958 C 0.93888 0.16924 0.47533 0.0
C3959 C 0.92724 0.16926 0.46775 0.0
C3960 C 0.92581 0.16803 0.49538 0.0
C3961 C 0.91504 0.16829 0.47436 0.0
C3962 C 0.91277 0.16555 0.51651 0.0
C3963 C 0.93511 0.17277 0.53079 0.0
N3964 N 0.91464 0.16775 0.48782 0.0
N3965 N 0.93554 0.17177 0.51739 0.0
H3966 H 0.81397 0.90148 0.46851 0.0
H3967 H 0.85018 0.92261 0.53566 0.0
H3968 H 0.84824 0.92696 0.47004 0.0
H3969 H 0.81343 0.90083 0.53416 0.0
H3970 H 0.85178 0.9211 0.51154 0.0
H3971 H 0.81586 0.89789 0.49238 0.0
C3972 C 0.822 0.90617 0.47385 0.0
C3973 C 0.83087 0.91465 0.46733 0.0
C3974 C 0.84344 0.91653 0.51649 0.0
C3975 C 0.83304 0.91068 0.49464 0.0
C3976 C 0.84253 0.91737 0.53026 0.0
C3977 C 0.83158 0.91196 0.53688 0.0
C3978 C 0.83331 0.91025 0.50931 0.0
C3979 C 0.82199 0.90523 0.52942 0.0
C3980 C 0.82306 0.90415 0.48747 0.0
C3981 C 0.84113 0.92043 0.4747 0.0
N3982 N 0.82302 0.90467 0.51602 0.0
N3983 N 0.84185 0.91845 0.48799 0.0
H3984 H 0.46158 0.05701 0.18067 0.0
H3985 H 0.53014 0.09294 0.16553 0.0
H3986 H 0.46323 0.09578 0.16276 0.0
H3987 H 0.52617 0.05071 0.17074 0.0
H3988 H 0.5059 0.09495 0.16574 0.0
H3989 H 0.4856 0.05533 0.17879 0.0
C3990 C 0.46702 0.06519 0.17637 0.0
C3991 C 0.46043 0.07656 0.17187 0.0
C3992 C 0.51036 0.08525 0.16672 0.0
C3993 C 0.48795 0.07471 0.16969 0.0
C3994 C 0.52417 0.0841 0.1666 0.0
C3995 C 0.53014 0.07165 0.16816 0.0
C3996 C 0.50256 0.07389 0.16859 0.0
C3997 C 0.52197 0.0605 0.16952 0.0
C3998 C 0.48072 0.0642 0.17523 0.0
C3999 C 0.46796 0.08684 0.16633 0.0
N4000 N 0.50861 0.06191 0.16983 0.0
N4001 N 0.48137 0.08571 0.16545 0.0
H4002 H 0.92561 0.46002 0.15169 0.0
H4003 H 0.90131 0.53064 0.17829 0.0
H4004 H 0.8983 0.46496 0.1842 0.0
H4005 H 0.93562 0.52515 0.1534 0.0
H4006 H 0.89706 0.50679 0.17726 0.0
H4007 H 0.92628 0.48409 0.14892 0.0
C4008 C 0.91962 0.46616 0.15813 0.0
C4009 C 0.91198 0.46052 0.16827 0.0
C4010 C 0.90544 0.51083 0.17193 0.0
C4011 C 0.91272 0.48801 0.16517 0.0
C4012 C 0.90785 0.52443 0.17248 0.0
C4013 C 0.9189 0.52983 0.16602 0.0
C4014 C 0.91411 0.50261 0.1648 0.0
C4015 C 0.92705 0.52136 0.15861 0.0
C4016 C 0.92004 0.47989 0.15658 0.0
C4017 C 0.9044 0.46893 0.17632 0.0
N4018 N 0.92453 0.50815 0.15826 0.0
N4019 N 0.90502 0.48227 0.17465 0.0
H4020 H 0.46594 0.91087 0.15824 0.0
H4021 H 0.53331 0.93781 0.19051 0.0
H4022 H 0.46748 0.94127 0.18822 0.0
H4023 H 0.53216 0.90749 0.16043 0.0
H4024 H 0.50916 0.93905 0.18988 0.0
H4025 H 0.49014 0.90933 0.15892 0.0
C4026 C 0.47138 0.91722 0.16496 0.0
C4027 C 0.4647 0.92622 0.17318 0.0
C4028 C 0.51416 0.93211 0.18341 0.0
C4029 C 0.49237 0.92451 0.17402 0.0
C4030 C 0.52796 0.9314 0.18378 0.0
C4031 C 0.53475 0.92254 0.17551 0.0
C4032 C 0.50706 0.9239 0.17471 0.0
C4033 C 0.52731 0.91446 0.16698 0.0
C4034 C 0.48519 0.91634 0.16535 0.0
C4035 C 0.47222 0.9342 0.18171 0.0
N4036 N 0.51387 0.91534 0.16679 0.0
N4037 N 0.48564 0.93316 0.1819 0.0
H4038 H 0.0893 0.53376 0.15939 0.0
H4039 H 0.07053 0.46759 0.19893 0.0
H4040 H 0.07091 0.53335 0.19797 0.0
H4041 H 0.08187 0.46766 0.15772 0.0
H4042 H 0.07287 0.49163 0.19939 0.0
H4043 H 0.08879 0.50948 0.15919 0.0
C4044 C 0.08521 0.52856 0.16783 0.0
C4045 C 0.0801 0.53556 0.17869 0.0
C4046 C 0.07488 0.48641 0.19024 0.0
C4047 C 0.07952 0.50786 0.17856 0.0
C4048 C 0.07358 0.47267 0.18998 0.0
C4049 C 0.07596 0.46563 0.17825 0.0
C4050 C 0.07864 0.49319 0.17869 0.0
C4051 C 0.0799 0.47272 0.16696 0.0
C4052 C 0.08489 0.51472 0.1677 0.0
C4053 C 0.0749 0.52834 0.18937 0.0
N4054 N 0.0811 0.48614 0.16745 0.0
N4055 N 0.07475 0.5149 0.18903 0.0
H4056 H 0.46256 0.9456 0.83726 0.0
H4057 H 0.5312 0.90632 0.83281 0.0
H4058 H 0.46496 0.90335 0.83131 0.0
H4059 H 0.52797 0.9485 0.83889 0.0
H4060 H 0.50704 0.90454 0.83427 0.0
H4061 H 0.48654 0.94638 0.83992 0.0
C4062 C 0.46814 0.93646 0.8366 0.0
C4063 C 0.46178 0.92441 0.83396 0.0
C4064 C 0.51163 0.91416 0.8354 0.0
C4065 C 0.4893 0.92523 0.8369 0.0
C4066 C 0.52542 0.91518 0.83459 0.0
C4067 C 0.53157 0.92759 0.83564 0.0
C4068 C 0.50399 0.92565 0.83724 0.0
C4069 C 0.52363 0.93875 0.83795 0.0
C4070 C 0.48185 0.93691 0.83812 0.0
C4071 C 0.46949 0.91286 0.83328 0.0
N4072 N 0.51025 0.93752 0.83858 0.0
N4073 N 0.48288 0.91357 0.83464 0.0
H4074 H 0.09073 0.53404 0.83743 0.0
H4075 H 0.06267 0.46737 0.80556 0.0
H4076 H 0.06631 0.53288 0.80237 0.0
H4077 H 0.09503 0.46747 0.83348 0.0
H4078 H 0.06308 0.49151 0.8053 0.0
H4079 H 0.09182 0.50975 0.83712 0.0
C4080 C 0.08566 0.52868 0.82964 0.0
C4081 C 0.07839 0.53546 0.81993 0.0
C4082 C 0.07014 0.48628 0.81145 0.0
C4083 C 0.0795 0.50779 0.81958 0.0
C4084 C 0.06988 0.47249 0.81163 0.0
C4085 C 0.07883 0.46542 0.81956 0.0
C4086 C 0.07931 0.4931 0.81936 0.0
C4087 C 0.08797 0.47256 0.82722 0.0
C4088 C 0.0863 0.51484 0.82946 0.0
C4089 C 0.07202 0.52806 0.81006 0.0
N4090 N 0.08794 0.48604 0.82699 0.0
N4091 N 0.07265 0.51463 0.81019 0.0
H4092 H 0.46972 0.06355 0.84628 0.0
H4093 H 0.53318 0.08041 0.8035 0.0
H4094 H 0.46746 0.08687 0.81054 0.0
H4095 H 0.5356 0.07704 0.84603 0.0
H4096 H 0.50898 0.07979 0.80508 0.0
H4097 H 0.49397 0.06563 0.84576 0.0
C4098 C 0.47433 0.06917 0.83839 0.0
C4099 C 0.46662 0.07506 0.82844 0.0
C4100 C 0.51482 0.07923 0.81406 0.0
C4101 C 0.49419 0.07722 0.82765 0.0
C4102 C 0.5286 0.0795 0.81317 0.0
C4103 C 0.53636 0.07878 0.82466 0.0
C4104 C 0.50877 0.07793 0.82651 0.0
C4105 C 0.52994 0.07767 0.83694 0.0
C4106 C 0.48812 0.07036 0.83811 0.0
C4107 C 0.47305 0.08222 0.81842 0.0
N4108 N 0.51649 0.07715 0.83755 0.0
N4109 N 0.48648 0.08297 0.81819 0.0
H4110 H 0.90024 0.46863 0.82742 0.0
H4111 H 0.93474 0.53735 0.84652 0.0
H4112 H 0.94053 0.47174 0.84136 0.0
H4113 H 0.89916 0.53433 0.82304 0.0
H4114 H 0.93496 0.51322 0.84887 0.0
H4115 H 0.89774 0.49258 0.82998 0.0
C4116 C 0.90851 0.47434 0.83118 0.0
C4117 C 0.92066 0.46823 0.83406 0.0
C4118 C 0.92703 0.51786 0.84332 0.0
C4119 C 0.91787 0.49561 0.83698 0.0
C4120 C 0.92687 0.53162 0.84202 0.0
C4121 C 0.91698 0.53781 0.83447 0.0
C4122 C 0.91718 0.51026 0.83711 0.0
C4123 C 0.90702 0.52993 0.82886 0.0
C4124 C 0.90709 0.488 0.83259 0.0
C4125 C 0.93103 0.47609 0.83893 0.0
N4126 N 0.90742 0.51655 0.83022 0.0
N4127 N 0.92943 0.4894 0.84016 0.0
H4128 H 0.16201 0.46732 0.06 0.0
H4129 H 0.16925 0.53607 0.09808 0.0
H4130 H 0.17706 0.4693 0.09996 0.0
H4131 H 0.17208 0.53231 0.05561 0.0
H4132 H 0.16818 0.51181 0.09988 0.0
H4133 H 0.16139 0.49147 0.05926 0.0
C4134 C 0.16507 0.47284 0.06868 0.0
C4135 C 0.16966 0.46631 0.08005 0.0
C4136 C 0.16902 0.51634 0.09019 0.0
C4137 C 0.16893 0.49395 0.07925 0.0
C4138 C 0.16958 0.53014 0.08915 0.0
C4139 C 0.17079 0.53616 0.07668 0.0
C4140 C 0.1694 0.50859 0.07866 0.0
C4141 C 0.17122 0.52805 0.06542 0.0
C4142 C 0.16477 0.48662 0.06821 0.0
C4143 C 0.17351 0.47397 0.09099 0.0
N4144 N 0.17045 0.51469 0.06667 0.0
N4145 N 0.17305 0.48743 0.09033 0.0
H4146 H 0.15649 0.46769 0.91138 0.0
H4147 H 0.19519 0.53425 0.92972 0.0
H4148 H 0.19631 0.46866 0.92689 0.0
H4149 H 0.15801 0.53412 0.90865 0.0
H4150 H 0.19568 0.51013 0.92861 0.0
H4151 H 0.15673 0.49194 0.91001 0.0
C4152 C 0.16531 0.473 0.91441 0.0
C4153 C 0.17638 0.46618 0.91931 0.0
C4154 C 0.18743 0.51535 0.92416 0.0
C4155 C 0.1767 0.49383 0.91787 0.0
C4156 C 0.18714 0.52913 0.92481 0.0
C4157 C 0.17652 0.53618 0.91931 0.0
C4158 C 0.17696 0.50852 0.91805 0.0
C4159 C 0.16638 0.52905 0.91303 0.0
C4160 C 0.16544 0.48682 0.91363 0.0
C4161 C 0.18755 0.47352 0.92308 0.0
N4162 N 0.1668 0.51558 0.91264 0.0
N4163 N 0.18739 0.48694 0.92236 0.0
H4164 H 0.46415 0.16212 0.94419 0.0
H4165 H 0.53301 0.16862 0.90543 0.0
H4166 H 0.46695 0.17096 0.90247 0.0
H4167 H 0.52979 0.16113 0.94739 0.0
H4168 H 0.50886 0.16733 0.90362 0.0
H4169 H 0.48819 0.15959 0.94504 0.0
C4170 C 0.46983 0.16345 0.93518 0.0
C4171 C 0.46357 0.16685 0.92326 0.0
C4172 C 0.51345 0.16587 0.9132 0.0
C4173 C 0.49111 0.16403 0.92416 0.0
C4174 C 0.52723 0.16657 0.91424 0.0
C4175 C 0.53339 0.16507 0.9266 0.0
C4176 C 0.5058 0.16366 0.92462 0.0
C4177 C 0.52544 0.16242 0.93768 0.0
C4178 C 0.48356 0.16201 0.93567 0.0
C4179 C 0.4714 0.16839 0.91188 0.0
N4180 N 0.51205 0.16189 0.93644 0.0
N4181 N 0.48478 0.16705 0.91262 0.0
H4182 H 0.82231 0.52914 0.94817 0.0
H4183 H 0.83793 0.46453 0.90479 0.0
H4184 H 0.83583 0.53082 0.90766 0.0
H4185 H 0.81887 0.46359 0.94303 0.0
H4186 H 0.83922 0.48872 0.90633 0.0
H4187 H 0.82309 0.50498 0.94718 0.0
C4188 C 0.82553 0.52442 0.93909 0.0
C4189 C 0.82896 0.53198 0.92796 0.0
C4190 C 0.83478 0.48321 0.91439 0.0
C4191 C 0.82983 0.50432 0.92674 0.0
C4192 C 0.83406 0.46941 0.91352 0.0
C4193 C 0.82824 0.46206 0.92378 0.0
C4194 C 0.8297 0.48967 0.92562 0.0
C4195 C 0.82339 0.46888 0.93487 0.0
C4196 C 0.82593 0.51062 0.93851 0.0
C4197 C 0.83306 0.52535 0.91645 0.0
N4198 N 0.82422 0.48228 0.93549 0.0
N4199 N 0.83335 0.51189 0.91612 0.0
H4200 H 0.46813 0.84029 0.91186 0.0
H4201 H 0.53543 0.80064 0.92542 0.0
H4202 H 0.46982 0.79954 0.92463 0.0
H4203 H 0.53461 0.83959 0.90785 0.0
H4204 H 0.51128 0.80028 0.92525 0.0
H4205 H 0.49238 0.84049 0.91029 0.0
C4206 C 0.4736 0.83138 0.91427 0.0
C4207 C 0.46698 0.81989 0.91842 0.0
C4208 C 0.51635 0.8089 0.92138 0.0
C4209 C 0.49463 0.82006 0.91672 0.0
C4210 C 0.53015 0.80911 0.9215 0.0
C4211 C 0.53702 0.82017 0.91667 0.0
C4212 C 0.50933 0.81987 0.91649 0.0
C4213 C 0.52968 0.83087 0.91166 0.0
C4214 C 0.48742 0.8315 0.91337 0.0
C4215 C 0.47452 0.80862 0.92142 0.0
N4216 N 0.51621 0.83048 0.91176 0.0
N4217 N 0.48793 0.80901 0.92057 0.0
H4218 H 0.83816 0.47033 0.05157 0.0
H4219 H 0.82797 0.53376 0.098 0.0
H4220 H 0.82919 0.46769 0.09327 0.0
H4221 H 0.83598 0.53578 0.05606 0.0
H4222 H 0.83035 0.50963 0.09702 0.0
H4223 H 0.8395 0.49437 0.05359 0.0
C4224 C 0.83659 0.47481 0.06119 0.0
C4225 C 0.83348 0.46703 0.07225 0.0
C4226 C 0.83167 0.51537 0.08806 0.0
C4227 C 0.83488 0.49458 0.07463 0.0
C4228 C 0.83032 0.52913 0.08861 0.0
C4229 C 0.83169 0.53675 0.07707 0.0
C4230 C 0.8344 0.50921 0.07587 0.0
C4231 C 0.83477 0.53027 0.06518 0.0
C4232 C 0.83733 0.48855 0.06233 0.0
C4233 C 0.83157 0.47335 0.08448 0.0
N4234 N 0.83595 0.51688 0.06488 0.0
N4235 N 0.83221 0.48678 0.08533 0.0
H4236 H 0.4613 0.84958 0.07258 0.0
H4237 H 0.53023 0.81718 0.09461 0.0
H4238 H 0.46465 0.8126 0.09374 0.0
H4239 H 0.52705 0.84828 0.06545 0.0
H4240 H 0.50628 0.8182 0.09796 0.0
H4241 H 0.48544 0.85194 0.07342 0.0
C4242 C 0.4671 0.84205 0.07754 0.0
C4243 C 0.46101 0.83082 0.08299 0.0
C4244 C 0.51083 0.82489 0.09092 0.0
C4245 C 0.48854 0.83345 0.08399 0.0
C4246 C 0.52451 0.82435 0.08903 0.0
C4247 C 0.5306 0.83257 0.07964 0.0
C4248 C 0.5032 0.83375 0.08339 0.0
C4249 C 0.52272 0.84169 0.07272 0.0
C4250 C 0.48087 0.84338 0.07798 0.0
C4251 C 0.46897 0.82136 0.08932 0.0
N4252 N 0.50939 0.84198 0.07467 0.0
N4253 N 0.48234 0.82285 0.08959 0.0
H4254 H 0.53351 0.16111 0.09289 0.0
H4255 H 0.46898 0.18111 0.05122 0.0
H4256 H 0.5347 0.18248 0.0559 0.0
H4257 H 0.46732 0.16516 0.09084 0.0
H4258 H 0.49313 0.17963 0.05188 0.0
H4259 H 0.50929 0.16052 0.09147 0.0
C4260 C 0.52867 0.16562 0.08445 0.0
C4261 C 0.5361 0.1719 0.07452 0.0
C4262 C 0.48749 0.17641 0.06042 0.0
C4263 C 0.50846 0.17126 0.07282 0.0
C4264 C 0.4737 0.17722 0.06003 0.0
C4265 C 0.46615 0.1733 0.07101 0.0
C4266 C 0.49379 0.17161 0.07186 0.0
C4267 C 0.47279 0.16833 0.08217 0.0
C4268 C 0.51486 0.16531 0.08365 0.0
C4269 C 0.52935 0.17759 0.06379 0.0
N4270 N 0.48624 0.16765 0.08233 0.0
N4271 N 0.51591 0.17714 0.06324 0.0
H4272 H 0.57446 0.69381 0.96405 0.0
H4273 H 0.57094 0.64986 0.02934 0.0
H4274 H 0.58112 0.65161 0.96297 0.0
H4275 H 0.58018 0.69159 0.02952 0.0
H4276 H 0.57264 0.64992 0.00504 0.0
H4277 H 0.57422 0.69292 0.98821 0.0
C4278 C 0.57585 0.68435 0.96891 0.0
C4279 C 0.57782 0.67277 0.96153 0.0
C4280 C 0.57439 0.65902 0.01045 0.0
C4281 C 0.57747 0.67166 0.98916 0.0
C4282 C 0.57341 0.65899 0.02428 0.0
C4283 C 0.5754 0.67074 0.03142 0.0
C4284 C 0.57716 0.67092 0.0038 0.0
C4285 C 0.57857 0.6823 0.0244 0.0
C4286 C 0.57578 0.68385 0.9827 0.0
C4287 C 0.57961 0.66077 0.96833 0.0
N4288 N 0.57923 0.68213 0.01099 0.0
N4289 N 0.57931 0.6605 0.98181 0.0
H4290 H 0.33765 0.58922 0.03227 0.0
H4291 H 0.31389 0.55392 0.96533 0.0
H4292 H 0.316 0.5524 0.03104 0.0
H4293 H 0.33664 0.59009 0.9659 0.0
H4294 H 0.31508 0.55303 0.98945 0.0
H4295 H 0.33801 0.58953 0.00801 0.0
C4296 C 0.33304 0.58117 0.02689 0.0
C4297 C 0.32676 0.57079 0.03366 0.0
C4298 C 0.31985 0.56116 0.98432 0.0
C4299 C 0.32707 0.5711 0.00596 0.0
C4300 C 0.31916 0.56167 0.97054 0.0
C4301 C 0.32515 0.57211 0.96362 0.0
C4302 C 0.32655 0.57118 0.99127 0.0
C4303 C 0.33188 0.58187 0.97087 0.0
C4304 C 0.33323 0.58136 0.01306 0.0
C4305 C 0.32093 0.56062 0.02622 0.0
N4306 N 0.33236 0.58119 0.98432 0.0
N4307 N 0.32119 0.56105 0.01278 0.0
H4308 H 0.42712 0.3019 0.03022 0.0
H4309 H 0.40811 0.34094 0.96379 0.0
H4310 H 0.41382 0.34252 0.02994 0.0
H4311 H 0.42529 0.30181 0.96455 0.0
H4312 H 0.40814 0.34112 0.98806 0.0
H4313 H 0.42451 0.30111 0.00622 0.0
C4314 C 0.42359 0.31065 0.0251 0.0
C4315 C 0.42075 0.32232 0.03207 0.0
C4316 C 0.41185 0.33248 0.98291 0.0
C4317 C 0.41777 0.3215 0.00454 0.0
C4318 C 0.4118 0.33236 0.96906 0.0
C4319 C 0.41677 0.32137 0.96216 0.0
C4320 C 0.41685 0.32151 0.98987 0.0
C4321 C 0.42143 0.31052 0.96947 0.0
C4322 C 0.42212 0.31019 0.01138 0.0
C4323 C 0.41617 0.33333 0.02493 0.0
N4324 N 0.42139 0.31088 0.98292 0.0
N4325 N 0.41486 0.33268 0.01153 0.0
H4326 H 0.64981 0.42929 0.02832 0.0
H4327 H 0.69129 0.40557 0.96569 0.0
H4328 H 0.68609 0.40686 0.03124 0.0
H4329 H 0.65104 0.41965 0.96275 0.0
H4330 H 0.68922 0.40537 0.98979 0.0
H4331 H 0.64959 0.42529 0.00439 0.0
C4332 C 0.65765 0.4234 0.02394 0.0
C4333 C 0.66804 0.41848 0.03174 0.0
C4334 C 0.68078 0.40838 0.98389 0.0
C4335 C 0.66792 0.41399 0.00441 0.0
C4336 C 0.68197 0.40851 0.97013 0.0
C4337 C 0.67134 0.41271 0.96224 0.0
C4338 C 0.66894 0.41266 0.98982 0.0
C4339 C 0.65948 0.41636 0.96849 0.0
C4340 C 0.65751 0.42112 0.01029 0.0
C4341 C 0.67792 0.41089 0.02558 0.0
N4342 N 0.65864 0.4164 0.98194 0.0
N4343 N 0.67769 0.40901 0.01227 0.0
H4344 H 0.57923 0.34902 0.0376 0.0
H4345 H 0.59519 0.3135 0.96854 0.0
H4346 H 0.59507 0.30947 0.03416 0.0
H4347 H 0.57076 0.34841 0.97197 0.0
H4348 H 0.59906 0.31414 0.99242 0.0
H4349 H 0.57984 0.35108 0.01342 0.0
C4350 C 0.58298 0.34084 0.03176 0.0
C4351 C 0.58699 0.32901 0.03785 0.0
C4352 C 0.59295 0.32173 0.98794 0.0
C4353 C 0.58772 0.3313 0.01027 0.0
C4354 C 0.59077 0.3214 0.9743 0.0
C4355 C 0.58254 0.33084 0.9683 0.0
C4356 C 0.58688 0.33161 0.99562 0.0
C4357 C 0.5771 0.34088 0.97623 0.0
C4358 C 0.58329 0.34201 0.01798 0.0
C4359 C 0.59178 0.31872 0.02984 0.0
N4360 N 0.57929 0.34095 0.98951 0.0
N4361 N 0.59195 0.32009 0.01646 0.0
H4362 H 0.69834 0.56732 0.9682 0.0
H4363 H 0.66003 0.59172 0.03329 0.0
H4364 H 0.6602 0.58657 0.96707 0.0
H4365 H 0.69687 0.57005 0.03388 0.0
H4366 H 0.66042 0.59119 0.00903 0.0
H4367 H 0.69851 0.56952 0.99226 0.0
C4368 C 0.69001 0.57206 0.97302 0.0
C4369 C 0.67922 0.57673 0.96564 0.0
C4370 C 0.66843 0.58659 0.01447 0.0
C4371 C 0.67931 0.57927 0.99323 0.0
C4372 C 0.66822 0.5869 0.02831 0.0
C4373 C 0.67842 0.58089 0.0356 0.0
C4374 C 0.67892 0.58023 0.00789 0.0
C4375 C 0.68879 0.57478 0.02866 0.0
C4376 C 0.6901 0.5733 0.98677 0.0
C4377 C 0.6687 0.58281 0.9724 0.0
N4378 N 0.68876 0.5746 0.01521 0.0
N4379 N 0.66899 0.58387 0.98583 0.0
H4380 H 0.43846 0.68905 0.03447 0.0
H4381 H 0.41219 0.65526 0.96769 0.0
H4382 H 0.40956 0.65757 0.034 0.0
H4383 H 0.44309 0.68476 0.969 0.0
H4384 H 0.41103 0.65579 0.99193 0.0
H4385 H 0.44019 0.68755 0.01042 0.0
C4386 C 0.43248 0.68181 0.02929 0.0
C4387 C 0.42384 0.67344 0.03623 0.0
C4388 C 0.41809 0.66211 0.98691 0.0
C4389 C 0.42575 0.67165 0.00866 0.0
C4390 C 0.41876 0.6618 0.97309 0.0
C4391 C 0.42773 0.67 0.96634 0.0
C4392 C 0.42642 0.6707 0.99401 0.0
C4393 C 0.43602 0.67828 0.9738 0.0
C4394 C 0.43348 0.68094 0.01555 0.0
C4395 C 0.41634 0.66422 0.02902 0.0
N4396 N 0.43513 0.67845 0.98722 0.0
N4397 N 0.41744 0.66359 0.01561 0.0
H4398 H 0.3333 0.40606 0.96503 0.0
H4399 H 0.31538 0.44458 0.03207 0.0
H4400 H 0.31546 0.44488 0.96611 0.0
H4401 H 0.3298 0.40436 0.03117 0.0
H4402 H 0.31642 0.44525 0.0079 0.0
H4403 H 0.33327 0.40565 0.98927 0.0
C4404 C 0.32943 0.41452 0.97037 0.0
C4405 C 0.32435 0.42551 0.96356 0.0
C4406 C 0.31936 0.43627 0.01298 0.0
C4407 C 0.32425 0.42511 0.99126 0.0
C4408 C 0.31877 0.43588 0.02677 0.0
C4409 C 0.32248 0.42438 0.03362 0.0
C4410 C 0.32372 0.42508 0.00595 0.0
C4411 C 0.32682 0.41341 0.02627 0.0
C4412 C 0.32939 0.41427 0.9842 0.0
C4413 C 0.31944 0.4362 0.97097 0.0
N4414 N 0.32732 0.41403 0.01283 0.0
N4415 N 0.31951 0.43572 0.98441 0.0
H4416 H 0.96415 0.55537 0.6853 0.0
H4417 H 0.0322 0.58886 0.66231 0.0
H4418 H 0.9659 0.59076 0.66141 0.0
H4419 H 0.02983 0.55079 0.68159 0.0
H4420 H 0.00797 0.58987 0.66188 0.0
H4421 H 0.98826 0.55368 0.68418 0.0
C4422 C 0.96962 0.56278 0.67981 0.0
C4423 C 0.96303 0.57324 0.67347 0.0
C4424 C 0.01275 0.58126 0.66614 0.0
C4425 C 0.99065 0.5714 0.67216 0.0
C4426 C 0.02657 0.58068 0.66638 0.0
C4427 C 0.03302 0.56974 0.67202 0.0
C4428 C 0.00533 0.57086 0.67165 0.0
C4429 C 0.02526 0.55942 0.67716 0.0
C4430 C 0.98339 0.5618 0.67914 0.0
C4431 C 0.9706 0.58255 0.66645 0.0
N4432 N 0.01183 0.56027 0.67691 0.0
N4433 N 0.98402 0.58144 0.66603 0.0
H4434 H 0.40204 0.029 0.67983 0.0
H4435 H 0.4249 0.96088 0.64657 0.0
H4436 H 0.43031 0.02639 0.64787 0.0
H4437 H 0.40165 0.96335 0.68235 0.0
H4438 H 0.42355 0.98495 0.64431 0.0
H4439 H 0.39834 0.00514 0.67819 0.0
C4440 C 0.40732 0.02344 0.67233 0.0
C4441 C 0.41661 0.02965 0.66407 0.0
C4442 C 0.41862 0.98022 0.65258 0.0
C4443 C 0.4125 0.00234 0.66221 0.0
C4444 C 0.41936 0.96647 0.65386 0.0
C4445 C 0.4135 0.96014 0.66474 0.0
C4446 C 0.41197 0.98767 0.66226 0.0
C4447 C 0.40641 0.96786 0.67387 0.0
C4448 C 0.40524 0.00981 0.67143 0.0
C4449 C 0.42314 0.02197 0.65451 0.0
N4450 N 0.40594 0.98124 0.67248 0.0
N4451 N 0.42106 0.00869 0.65392 0.0
H4452 H 0.034 0.39991 0.67702 0.0
H4453 H 0.97113 0.44766 0.66899 0.0
H4454 H 0.03651 0.44188 0.66938 0.0
H4455 H 0.9677 0.40528 0.67325 0.0
H4456 H 0.99518 0.44551 0.66905 0.0
H4457 H 0.00978 0.40139 0.67559 0.0
C4458 C 0.02945 0.40941 0.67499 0.0
C4459 C 0.03725 0.42079 0.67336 0.0
C4460 C 0.9892 0.43666 0.66994 0.0
C4461 C 0.00964 0.42258 0.67174 0.0
C4462 C 0.97545 0.43789 0.66993 0.0
C4463 C 0.96742 0.42664 0.67115 0.0
C4464 C 0.99501 0.42408 0.67127 0.0
C4465 C 0.97356 0.41421 0.67229 0.0
C4466 C 0.01564 0.41026 0.67417 0.0
C4467 C 0.03088 0.43286 0.67074 0.0
N4468 N 0.98701 0.41326 0.67237 0.0
N4469 N 0.01746 0.43344 0.67006 0.0
H4470 H 0.56959 0.96825 0.65162 0.0
H4471 H 0.5959 0.03189 0.69027 0.0
H4472 H 0.59288 0.96637 0.68741 0.0
H4473 H 0.57832 0.034 0.65138 0.0
H4474 H 0.59573 0.00777 0.68882 0.0
H4475 H 0.57345 0.99219 0.65069 0.0
C4476 C 0.57562 0.97286 0.6592 0.0
C4477 C 0.58084 0.96534 0.66966 0.0
C4478 C 0.59202 0.01348 0.68053 0.0
C4479 C 0.58522 0.99268 0.66872 0.0
C4480 C 0.59211 0.02726 0.68137 0.0
C4481 C 0.58704 0.03494 0.67096 0.0
C4482 C 0.58667 0.0073 0.66927 0.0
C4483 C 0.5823 0.02843 0.65964 0.0
C4484 C 0.57783 0.98651 0.65867 0.0
C4485 C 0.58861 0.9718 0.67921 0.0
N4486 N 0.58209 0.01497 0.65914 0.0
N4487 N 0.59046 0.9851 0.67857 0.0
H4488 H 0.02869 0.44878 0.31839 0.0
H4489 H 0.96434 0.40581 0.33602 0.0
H4490 H 0.03062 0.40855 0.3327 0.0
H4491 H 0.96304 0.44371 0.3163 0.0
H4492 H 0.98858 0.40715 0.33642 0.0
H4493 H 0.00454 0.44768 0.31922 0.0
C4494 C 0.02403 0.43973 0.32177 0.0
C4495 C 0.03166 0.42873 0.32545 0.0
C4496 C 0.98298 0.41517 0.33201 0.0
C4497 C 0.00401 0.42738 0.3264 0.0
C4498 C 0.96916 0.41441 0.33179 0.0
C4499 C 0.9617 0.42465 0.32609 0.0
C4500 C 0.98935 0.42627 0.32655 0.0
C4501 C 0.96843 0.43558 0.32076 0.0
C4502 C 0.01023 0.4391 0.32221 0.0
C4503 C 0.02509 0.41725 0.32975 0.0
N4504 N 0.98186 0.4361 0.32113 0.0
N4505 N 0.01163 0.41687 0.33009 0.0
H4506 H 0.55382 0.02904 0.34026 0.0
H4507 H 0.59873 0.96631 0.3223 0.0
H4508 H 0.594 0.03229 0.32605 0.0
H4509 H 0.5594 0.9636 0.3388 0.0
H4510 H 0.59784 0.99042 0.32484 0.0
H4511 H 0.5563 0.00501 0.34111 0.0
C4512 C 0.56321 0.02469 0.33742 0.0
C4513 C 0.57369 0.03265 0.333 0.0
C4514 C 0.58945 0.98454 0.328 0.0
C4515 C 0.57659 0.00512 0.33384 0.0
C4516 C 0.58996 0.97078 0.32655 0.0
C4517 C 0.57909 0.96297 0.33027 0.0
C4518 C 0.57797 0.9905 0.33315 0.0
C4519 C 0.56798 0.96926 0.33575 0.0
C4520 C 0.56462 0.01096 0.3379 0.0
C4521 C 0.58565 0.0265 0.32948 0.0
N4522 N 0.56767 0.98265 0.33694 0.0
N4523 N 0.58674 0.01308 0.32987 0.0
H4524 H 0.96524 0.59649 0.32422 0.0
H4525 H 0.03424 0.56223 0.34321 0.0
H4526 H 0.96864 0.55737 0.3411 0.0
H4527 H 0.03131 0.59925 0.32204 0.0
H4528 H 0.01011 0.56163 0.34502 0.0
H4529 H 0.98931 0.59899 0.32582 0.0
C4530 C 0.97104 0.58848 0.32838 0.0
C4531 C 0.96497 0.57667 0.33245 0.0
C4532 C 0.01474 0.56993 0.34004 0.0
C4533 C 0.99247 0.57944 0.33428 0.0
C4534 C 0.02851 0.57029 0.33903 0.0
C4535 C 0.03476 0.58076 0.33238 0.0
C4536 C 0.00714 0.58011 0.33436 0.0
C4537 C 0.02687 0.59096 0.32719 0.0
C4538 C 0.98478 0.5899 0.32926 0.0
C4539 C 0.97294 0.56661 0.33777 0.0
N4540 N 0.01346 0.59034 0.32823 0.0
N4541 N 0.98628 0.5682 0.33847 0.0
H4542 H 0.44745 0.96925 0.32191 0.0
H4543 H 0.40264 0.03381 0.33269 0.0
H4544 H 0.40533 0.96744 0.32895 0.0
H4545 H 0.44246 0.03473 0.31716 0.0
H4546 H 0.4039 0.00958 0.33372 0.0
H4547 H 0.44631 0.9934 0.32268 0.0
C4548 C 0.43797 0.97394 0.32371 0.0
C4549 C 0.42645 0.96634 0.32532 0.0
C4550 C 0.41236 0.0151 0.3301 0.0
C4551 C 0.42506 0.99399 0.32618 0.0
C4552 C 0.41165 0.02891 0.32953 0.0
C4553 C 0.42245 0.03627 0.32478 0.0
C4554 C 0.42398 0.00864 0.32601 0.0
C4555 C 0.43388 0.02944 0.32082 0.0
C4556 C 0.43731 0.98773 0.3241 0.0
C4557 C 0.41443 0.97294 0.32762 0.0
N4558 N 0.43435 0.01602 0.32154 0.0
N4559 N 0.41404 0.9864 0.32796 0.0
H4560 H 0.67345 0.96191 0.60183 0.0
H4561 H 0.64822 0.02642 0.56331 0.0
H4562 H 0.65241 0.96105 0.56464 0.0
H4563 H 0.67579 0.02765 0.59595 0.0
H4564 H 0.6459 0.00254 0.5665 0.0
H4565 H 0.67077 0.98603 0.60247 0.0
C4566 C 0.66813 0.96679 0.59389 0.0
C4567 C 0.66327 0.95952 0.58309 0.0
C4568 C 0.65234 0.00806 0.57306 0.0
C4569 C 0.66017 0.98702 0.58375 0.0
C4570 C 0.65363 0.02169 0.57128 0.0
C4571 C 0.66233 0.02898 0.57928 0.0
C4572 C 0.65981 0.00166 0.58291 0.0
C4573 C 0.66905 0.02237 0.58949 0.0
C4574 C 0.66663 0.98054 0.59424 0.0
C4575 C 0.65643 0.9663 0.57308 0.0
N4576 N 0.66776 0.00904 0.59093 0.0
N4577 N 0.65515 0.97968 0.57362 0.0
H4578 H 0.65392 0.97207 0.44024 0.0
H4579 H 0.68532 0.03143 0.39927 0.0
H4580 H 0.67648 0.96607 0.40445 0.0
H4581 H 0.65376 0.03699 0.42755 0.0
H4582 H 0.68222 0.00746 0.4009 0.0
H4583 H 0.65369 0.99589 0.43581 0.0
C4584 C 0.65873 0.97576 0.43139 0.0
C4585 C 0.66529 0.96711 0.42273 0.0
C4586 C 0.67586 0.01392 0.40664 0.0
C4587 C 0.66519 0.99433 0.41766 0.0
C4588 C 0.67764 0.0276 0.40572 0.0
C4589 C 0.66982 0.03618 0.41334 0.0
C4590 C 0.66634 0.0088 0.41539 0.0
C4591 C 0.66 0.03071 0.42151 0.0
C4592 C 0.65857 0.98935 0.42885 0.0
C4593 C 0.67133 0.97241 0.41139 0.0
N4594 N 0.65864 0.01735 0.42244 0.0
N4595 N 0.67126 0.9857 0.40926 0.0
H4596 H 0.02438 0.66997 0.45136 0.0
H4597 H 0.96082 0.66296 0.40454 0.0
H4598 H 0.02731 0.66629 0.40888 0.0
H4599 H 0.95947 0.67786 0.44457 0.0
H4600 H 0.98497 0.66088 0.40643 0.0
H4601 H 0.00028 0.66934 0.44954 0.0
C4602 C 0.01995 0.66891 0.44165 0.0
C4603 C 0.02784 0.66826 0.43024 0.0
C4604 C 0.97936 0.66457 0.41479 0.0
C4605 C 0.00025 0.66758 0.42808 0.0
C4606 C 0.9656 0.66574 0.41373 0.0
C4607 C 0.95817 0.67065 0.4244 0.0
C4608 C 0.98566 0.6682 0.42665 0.0
C4609 C 0.96484 0.6741 0.43608 0.0
C4610 C 0.00619 0.66861 0.44061 0.0
C4611 C 0.02156 0.66687 0.41791 0.0
N4612 N 0.97819 0.67279 0.4369 0.0
N4613 N 0.00811 0.66661 0.41715 0.0
H4614 H 0.31848 0.02901 0.40149 0.0
H4615 H 0.34918 0.96141 0.42929 0.0
H4616 H 0.34508 0.02716 0.43489 0.0
H4617 H 0.31752 0.96332 0.40064 0.0
H4618 H 0.35055 0.98562 0.429 0.0
H4619 H 0.32082 0.00512 0.3986 0.0
C4620 C 0.32492 0.02359 0.40814 0.0
C4621 C 0.33151 0.03005 0.41852 0.0
C4622 C 0.34339 0.98073 0.42269 0.0
C4623 C 0.33418 0.00268 0.41531 0.0
C4624 C 0.34263 0.96692 0.42282 0.0
C4625 C 0.33315 0.96037 0.41505 0.0
C4626 C 0.33463 0.98802 0.4147 0.0
C4627 C 0.32492 0.96798 0.40685 0.0
C4628 C 0.32623 0.00994 0.4065 0.0
C4629 C 0.33977 0.02255 0.42681 0.0
N4630 N 0.3258 0.9814 0.40694 0.0
N4631 N 0.3408 0.00923 0.42508 0.0
H4632 H 0.96843 0.34235 0.41398 0.0
H4633 H 0.03567 0.30117 0.42212 0.0
H4634 H 0.96998 0.30098 0.42459 0.0
H4635 H 0.03455 0.34143 0.40783 0.0
H4636 H 0.0115 0.30084 0.42244 0.0
H4637 H 0.99253 0.34221 0.41103 0.0
C4638 C 0.97383 0.33323 0.41561 0.0
C4639 C 0.96722 0.32167 0.41959 0.0
C4640 C 0.01651 0.30974 0.41915 0.0
C4641 C 0.99474 0.32144 0.4163 0.0
C4642 C 0.03032 0.30992 0.41898 0.0
C4643 C 0.03711 0.32136 0.41499 0.0
C4644 C 0.00941 0.32111 0.41541 0.0
C4645 C 0.02968 0.33241 0.41098 0.0
C4646 C 0.98758 0.33315 0.41393 0.0
C4647 C 0.97468 0.31012 0.42156 0.0
N4648 N 0.01622 0.33204 0.41138 0.0
N4649 N 0.98804 0.31032 0.41996 0.0
H4650 H 0.31665 0.03305 0.60105 0.0
H4651 H 0.35053 0.96837 0.57051 0.0
H4652 H 0.34826 0.03417 0.5723 0.0
H4653 H 0.31744 0.96753 0.59755 0.0
H4654 H 0.35213 0.99235 0.57361 0.0
H4655 H 0.31903 0.00902 0.60239 0.0
C4656 C 0.32419 0.02824 0.59512 0.0
C4657 C 0.33218 0.03558 0.58644 0.0
C4658 C 0.34462 0.9869 0.57899 0.0
C4659 C 0.33491 0.00807 0.58786 0.0
C4660 C 0.34373 0.97321 0.57725 0.0
C4661 C 0.33375 0.96599 0.58368 0.0
C4662 C 0.33544 0.9934 0.58718 0.0
C4663 C 0.32522 0.97274 0.59232 0.0
C4664 C 0.32554 0.01452 0.59588 0.0
C4665 C 0.34184 0.02886 0.57904 0.0
N4666 N 0.32618 0.98608 0.59372 0.0
N4667 N 0.34285 0.01546 0.57983 0.0
H4668 H 0.96072 0.34808 0.57853 0.0
H4669 H 0.03051 0.31347 0.5933 0.0
H4670 H 0.96481 0.30881 0.59488 0.0
H4671 H 0.02604 0.34826 0.56886 0.0
H4672 H 0.00668 0.31375 0.59763 0.0
H4673 H 0.98486 0.35035 0.5786 0.0
C4674 C 0.96669 0.34 0.58229 0.0
C4675 C 0.96078 0.32819 0.5866 0.0
C4676 C 0.01093 0.32138 0.59141 0.0
C4677 C 0.98835 0.33071 0.58669 0.0
C4678 C 0.02453 0.32126 0.58897 0.0
C4679 C 0.03022 0.33079 0.58062 0.0
C4680 C 0.00297 0.33114 0.5855 0.0
C4681 C 0.02202 0.34067 0.57529 0.0
C4682 C 0.98046 0.34129 0.58228 0.0
C4683 C 0.96898 0.31804 0.59138 0.0
N4684 N 0.00879 0.34055 0.57776 0.0
N4685 N 0.98236 0.31951 0.59123 0.0
H4686 H 0.96947 0.66341 0.59194 0.0
H4687 H 0.03811 0.67655 0.5551 0.0
H4688 H 0.97302 0.66871 0.54968 0.0
H4689 H 0.03599 0.66188 0.59518 0.0
H4690 H 0.01412 0.67429 0.55322 0.0
H4691 H 0.99369 0.66313 0.59366 0.0
C4692 C 0.97535 0.6644 0.58302 0.0
C4693 C 0.96924 0.66613 0.57066 0.0
C4694 C 0.01889 0.6715 0.56242 0.0
C4695 C 0.99688 0.66597 0.57256 0.0
C4696 C 0.03258 0.67283 0.56351 0.0
C4697 C 0.03903 0.66944 0.57533 0.0
C4698 C 0.01153 0.66686 0.57328 0.0
C4699 C 0.03139 0.66461 0.58589 0.0
C4700 C 0.98916 0.66424 0.58401 0.0
C4701 C 0.97731 0.66736 0.55941 0.0
N4702 N 0.01801 0.66355 0.58465 0.0
N4703 N 0.9907 0.66737 0.56065 0.0
loop_
_geom_bond_atom_site_label_1
_geom_bond_atom_site_label_2
_geom_bond_distance
_geom_bond_site_symmetry_2
_ccdc_geom_bond_type
In0 O1 2.294 . S
In0 O2 2.326 . S
In0 O6 2.266 . S
In0 O7 2.326 . S
In0 O8 2.266 . S
In0 O9 2.326 . S
In0 O11 2.294 . S
In0 O12 2.326 . S
O1 In0 2.294 . S
O1 C10 1.240 . S
O2 In0 2.326 . S
O2 C10 1.252 . S
C3 O6 1.252 . S
C3 O7 1.260 . S
C4 O11 1.240 . S
C4 O12 1.252 . S
C5 O8 1.252 . S
C5 O9 1.260 . S
O6 In0 2.266 . S
O6 C3 1.252 . S
O7 In0 2.326 . S
O7 C3 1.260 . S
O8 In0 2.266 . S
O8 C5 1.252 . S
O9 In0 2.326 . S
O9 C5 1.260 . S
C10 O1 1.240 . S
C10 O2 1.252 . S
O11 In0 2.294 . S
O11 C4 1.240 . S
O12 In0 2.326 . S
O12 C4 1.252 . S
In13 O14 2.294 . S
In13 O15 2.326 . S
In13 O19 2.266 . S
In13 O20 2.326 . S
In13 O21 2.266 . S
In13 O22 2.326 . S
In13 O24 2.294 . S
In13 O25 2.326 . S
O14 In13 2.294 . S
O14 C23 1.240 . S
O15 In13 2.326 . S
O15 C23 1.252 . S
C16 O19 1.252 . S
C16 O20 1.260 . S
C17 O24 1.240 . S
C17 O25 1.252 . S
C18 O21 1.252 . S
C18 O22 1.260 . S
O19 In13 2.266 . S
O19 C16 1.252 . S
O20 In13 2.326 . S
O20 C16 1.260 . S
O21 In13 2.266 . S
O21 C18 1.252 . S
O22 In13 2.326 . S
O22 C18 1.260 . S
C23 O14 1.240 . S
C23 O15 1.252 . S
O24 In13 2.294 . S
O24 C17 1.240 . S
O25 In13 2.326 . S
O25 C17 1.252 . S
In26 O27 2.294 . S
In26 O28 2.326 . S
In26 O32 2.266 . S
In26 O33 2.326 . S
In26 O34 2.266 . S
In26 O35 2.326 . S
In26 O37 2.294 . S
In26 O38 2.326 . S
O27 In26 2.294 . S
O27 C36 1.240 . S
O28 In26 2.326 . S
O28 C36 1.252 . S
C29 O32 1.252 . S
C29 O33 1.260 . S
C30 O37 1.240 . S
C30 O38 1.252 . S
C31 O34 1.252 . S
C31 O35 1.260 . S
O32 In26 2.266 . S
O32 C29 1.252 . S
O33 In26 2.326 . S
O33 C29 1.260 . S
O34 In26 2.266 . S
O34 C31 1.252 . S
O35 In26 2.326 . S
O35 C31 1.260 . S
C36 O27 1.240 . S
C36 O28 1.252 . S
O37 In26 2.294 . S
O37 C30 1.240 . S
O38 In26 2.326 . S
O38 C30 1.252 . S
In39 O40 2.294 . S
In39 O41 2.326 . S
In39 O45 2.266 . S
In39 O46 2.326 . S
In39 O47 2.266 . S
In39 O48 2.326 . S
In39 O50 2.294 . S
In39 O51 2.326 . S
O40 In39 2.294 . S
O40 C49 1.240 . S
O41 In39 2.326 . S
O41 C49 1.252 . S
C42 O45 1.252 . S
C42 O46 1.260 . S
C43 O50 1.240 . S
C43 O51 1.252 . S
C44 O47 1.252 . S
C44 O48 1.260 . S
O45 In39 2.266 . S
O45 C42 1.252 . S
O46 In39 2.326 . S
O46 C42 1.260 . S
O47 In39 2.266 . S
O47 C44 1.252 . S
O48 In39 2.326 . S
O48 C44 1.260 . S
C49 O40 1.240 . S
C49 O41 1.252 . S
O50 In39 2.294 . S
O50 C43 1.240 . S
O51 In39 2.326 . S
O51 C43 1.252 . S
In52 O53 2.294 . S
In52 O54 2.326 . S
In52 O58 2.266 . S
In52 O59 2.326 . S
In52 O60 2.266 . S
In52 O61 2.326 . S
In52 O63 2.294 . S
In52 O64 2.326 . S
O53 In52 2.294 . S
O53 C62 1.240 . S
O54 In52 2.326 . S
O54 C62 1.252 . S
C55 O58 1.252 . S
C55 O59 1.260 . S
C56 O63 1.240 . S
C56 O64 1.252 . S
C57 O60 1.252 . S
C57 O61 1.260 . S
O58 In52 2.266 . S
O58 C55 1.252 . S
O59 In52 2.326 . S
O59 C55 1.260 . S
O60 In52 2.266 . S
O60 C57 1.252 . S
O61 In52 2.326 . S
O61 C57 1.260 . S
C62 O53 1.240 . S
C62 O54 1.252 . S
O63 In52 2.294 . S
O63 C56 1.240 . S
O64 In52 2.326 . S
O64 C56 1.252 . S
In65 O66 2.294 . S
In65 O67 2.326 . S
In65 O71 2.266 . S
In65 O72 2.326 . S
In65 O73 2.266 . S
In65 O74 2.326 . S
In65 O76 2.294 . S
In65 O77 2.326 . S
O66 In65 2.294 . S
O66 C75 1.240 . S
O67 In65 2.326 . S
O67 C75 1.252 . S
C68 O71 1.252 . S
C68 O72 1.260 . S
C69 O76 1.240 . S
C69 O77 1.252 . S
C70 O73 1.252 . S
C70 O74 1.260 . S
O71 In65 2.266 . S
O71 C68 1.252 . S
O72 In65 2.326 . S
O72 C68 1.260 . S
O73 In65 2.266 . S
O73 C70 1.252 . S
O74 In65 2.326 . S
O74 C70 1.260 . S
C75 O66 1.240 . S
C75 O67 1.252 . S
O76 In65 2.294 . S
O76 C69 1.240 . S
O77 In65 2.326 . S
O77 C69 1.252 . S
In78 O79 2.294 . S
In78 O80 2.326 . S
In78 O84 2.266 . S
In78 O85 2.326 . S
In78 O86 2.266 . S
In78 O87 2.326 . S
In78 O89 2.294 . S
In78 O90 2.326 . S
O79 In78 2.294 . S
O79 C88 1.240 . S
O80 In78 2.326 . S
O80 C88 1.252 . S
C81 O84 1.252 . S
C81 O85 1.260 . S
C82 O89 1.240 . S
C82 O90 1.252 . S
C83 O86 1.252 . S
C83 O87 1.260 . S
O84 In78 2.266 . S
O84 C81 1.252 . S
O85 In78 2.326 . S
O85 C81 1.260 . S
O86 In78 2.266 . S
O86 C83 1.252 . S
O87 In78 2.326 . S
O87 C83 1.260 . S
C88 O79 1.240 . S
C88 O80 1.252 . S
O89 In78 2.294 . S
O89 C82 1.240 . S
O90 In78 2.326 . S
O90 C82 1.252 . S
In91 O92 2.294 . S
In91 O93 2.326 . S
In91 O97 2.266 . S
In91 O98 2.326 . S
In91 O99 2.266 . S
In91 O100 2.326 . S
In91 O102 2.294 . S
In91 O103 2.326 . S
O92 In91 2.294 . S
O92 C101 1.240 . S
O93 In91 2.326 . S
O93 C101 1.252 . S
C94 O97 1.252 . S
C94 O98 1.260 . S
C95 O102 1.240 . S
C95 O103 1.252 . S
C96 O99 1.252 . S
C96 O100 1.260 . S
O97 In91 2.266 . S
O97 C94 1.252 . S
O98 In91 2.326 . S
O98 C94 1.260 . S
O99 In91 2.266 . S
O99 C96 1.252 . S
O100 In91 2.326 . S
O100 C96 1.260 . S
C101 O92 1.240 . S
C101 O93 1.252 . S
O102 In91 2.294 . S
O102 C95 1.240 . S
O103 In91 2.326 . S
O103 C95 1.252 . S
In104 O105 2.294 . S
In104 O106 2.326 . S
In104 O110 2.266 . S
In104 O111 2.326 . S
In104 O112 2.266 . S
In104 O113 2.326 . S
In104 O115 2.294 . S
In104 O116 2.326 . S
O105 In104 2.294 . S
O105 C114 1.240 . S
O106 In104 2.326 . S
O106 C114 1.252 . S
C107 O110 1.252 . S
C107 O111 1.260 . S
C108 O115 1.240 . S
C108 O116 1.252 . S
C109 O112 1.252 . S
C109 O113 1.260 . S
O110 In104 2.266 . S
O110 C107 1.252 . S
O111 In104 2.326 . S
O111 C107 1.260 . S
O112 In104 2.266 . S
O112 C109 1.252 . S
O113 In104 2.326 . S
O113 C109 1.260 . S
C114 O105 1.240 . S
C114 O106 1.252 . S
O115 In104 2.294 . S
O115 C108 1.240 . S
O116 In104 2.326 . S
O116 C108 1.252 . S
In117 O118 2.294 . S
In117 O119 2.326 . S
In117 O123 2.266 . S
In117 O124 2.326 . S
In117 O125 2.266 . S
In117 O126 2.326 . S
In117 O128 2.294 . S
In117 O129 2.326 . S
O118 In117 2.294 . S
O118 C127 1.240 . S
O119 In117 2.326 . S
O119 C127 1.252 . S
C120 O123 1.252 . S
C120 O124 1.260 . S
C121 O128 1.240 . S
C121 O129 1.252 . S
C122 O125 1.252 . S
C122 O126 1.260 . S
O123 In117 2.266 . S
O123 C120 1.252 . S
O124 In117 2.326 . S
O124 C120 1.260 . S
O125 In117 2.266 . S
O125 C122 1.252 . S
O126 In117 2.326 . S
O126 C122 1.260 . S
C127 O118 1.240 . S
C127 O119 1.252 . S
O128 In117 2.294 . S
O128 C121 1.240 . S
O129 In117 2.326 . S
O129 C121 1.252 . S
In130 O131 2.294 . S
In130 O132 2.326 . S
In130 O136 2.266 . S
In130 O137 2.326 . S
In130 O138 2.266 . S
In130 O139 2.326 . S
In130 O141 2.294 . S
In130 O142 2.326 . S
O131 In130 2.294 . S
O131 C140 1.240 . S
O132 In130 2.326 . S
O132 C140 1.252 . S
C133 O136 1.252 . S
C133 O137 1.260 . S
C134 O141 1.240 . S
C134 O142 1.252 . S
C135 O138 1.252 . S
C135 O139 1.260 . S
O136 In130 2.266 . S
O136 C133 1.252 . S
O137 In130 2.326 . S
O137 C133 1.260 . S
O138 In130 2.266 . S
O138 C135 1.252 . S
O139 In130 2.326 . S
O139 C135 1.260 . S
C140 O131 1.240 . S
C140 O132 1.252 . S
O141 In130 2.294 . S
O141 C134 1.240 . S
O142 In130 2.326 . S
O142 C134 1.252 . S
In143 O144 2.294 . S
In143 O145 2.326 . S
In143 O149 2.266 . S
In143 O150 2.326 . S
In143 O151 2.266 . S
In143 O152 2.326 . S
In143 O154 2.294 . S
In143 O155 2.326 . S
O144 In143 2.294 . S
O144 C153 1.240 . S
O145 In143 2.326 . S
O145 C153 1.252 . S
C146 O149 1.252 . S
C146 O150 1.260 . S
C147 O154 1.240 . S
C147 O155 1.252 . S
C148 O151 1.252 . S
C148 O152 1.260 . S
O149 In143 2.266 . S
O149 C146 1.252 . S
O150 In143 2.326 . S
O150 C146 1.260 . S
O151 In143 2.266 . S
O151 C148 1.252 . S
O152 In143 2.326 . S
O152 C148 1.260 . S
C153 O144 1.240 . S
C153 O145 1.252 . S
O154 In143 2.294 . S
O154 C147 1.240 . S
O155 In143 2.326 . S
O155 C147 1.252 . S
In156 O157 2.294 . S
In156 O158 2.326 . S
In156 O162 2.266 . S
In156 O163 2.326 . S
In156 O164 2.266 . S
In156 O165 2.326 . S
In156 O167 2.294 . S
In156 O168 2.326 . S
O157 In156 2.294 . S
O157 C166 1.240 . S
O158 In156 2.326 . S
O158 C166 1.252 . S
C159 O162 1.252 . S
C159 O163 1.260 . S
C160 O167 1.240 . S
C160 O168 1.252 . S
C161 O164 1.252 . S
C161 O165 1.260 . S
O162 In156 2.266 . S
O162 C159 1.252 . S
O163 In156 2.326 . S
O163 C159 1.260 . S
O164 In156 2.266 . S
O164 C161 1.252 . S
O165 In156 2.326 . S
O165 C161 1.260 . S
C166 O157 1.240 . S
C166 O158 1.252 . S
O167 In156 2.294 . S
O167 C160 1.240 . S
O168 In156 2.326 . S
O168 C160 1.252 . S
In169 O170 2.294 . S
In169 O171 2.326 . S
In169 O175 2.266 . S
In169 O176 2.326 . S
In169 O177 2.266 . S
In169 O178 2.326 . S
In169 O180 2.294 . S
In169 O181 2.326 . S
O170 In169 2.294 . S
O170 C179 1.240 . S
O171 In169 2.326 . S
O171 C179 1.252 . S
C172 O175 1.252 . S
C172 O176 1.260 . S
C173 O180 1.240 . S
C173 O181 1.252 . S
C174 O177 1.252 . S
C174 O178 1.260 . S
O175 In169 2.266 . S
O175 C172 1.252 . S
O176 In169 2.326 . S
O176 C172 1.260 . S
O177 In169 2.266 . S
O177 C174 1.252 . S
O178 In169 2.326 . S
O178 C174 1.260 . S
C179 O170 1.240 . S
C179 O171 1.252 . S
O180 In169 2.294 . S
O180 C173 1.240 . S
O181 In169 2.326 . S
O181 C173 1.252 . S
In182 O183 2.294 . S
In182 O184 2.326 . S
In182 O188 2.266 . S
In182 O189 2.326 . S
In182 O190 2.266 . S
In182 O191 2.326 . S
In182 O193 2.294 . S
In182 O194 2.326 . S
O183 In182 2.294 . S
O183 C192 1.240 . S
O184 In182 2.326 . S
O184 C192 1.252 . S
C185 O188 1.252 . S
C185 O189 1.260 . S
C186 O193 1.240 . S
C186 O194 1.252 . S
C187 O190 1.252 . S
C187 O191 1.260 . S
O188 In182 2.266 . S
O188 C185 1.252 . S
O189 In182 2.326 . S
O189 C185 1.260 . S
O190 In182 2.266 . S
O190 C187 1.252 . S
O191 In182 2.326 . S
O191 C187 1.260 . S
C192 O183 1.240 . S
C192 O184 1.252 . S
O193 In182 2.294 . S
O193 C186 1.240 . S
O194 In182 2.326 . S
O194 C186 1.252 . S
In195 O196 2.294 . S
In195 O197 2.326 . S
In195 O201 2.266 . S
In195 O202 2.326 . S
In195 O203 2.266 . S
In195 O204 2.326 . S
In195 O206 2.294 . S
In195 O207 2.326 . S
O196 In195 2.294 . S
O196 C205 1.240 . S
O197 In195 2.326 . S
O197 C205 1.252 . S
C198 O201 1.252 . S
C198 O202 1.260 . S
C199 O206 1.240 . S
C199 O207 1.252 . S
C200 O203 1.252 . S
C200 O204 1.260 . S
O201 In195 2.266 . S
O201 C198 1.252 . S
O202 In195 2.326 . S
O202 C198 1.260 . S
O203 In195 2.266 . S
O203 C200 1.252 . S
O204 In195 2.326 . S
O204 C200 1.260 . S
C205 O196 1.240 . S
C205 O197 1.252 . S
O206 In195 2.294 . S
O206 C199 1.240 . S
O207 In195 2.326 . S
O207 C199 1.252 . S
In208 O209 2.294 . S
In208 O210 2.326 . S
In208 O214 2.266 . S
In208 O215 2.326 . S
In208 O216 2.266 . S
In208 O217 2.326 . S
In208 O219 2.294 . S
In208 O220 2.326 . S
O209 In208 2.294 . S
O209 C218 1.240 . S
O210 In208 2.326 . S
O210 C218 1.252 . S
C211 O214 1.252 . S
C211 O215 1.260 . S
C212 O219 1.240 . S
C212 O220 1.252 . S
C213 O216 1.252 . S
C213 O217 1.260 . S
O214 In208 2.266 . S
O214 C211 1.252 . S
O215 In208 2.326 . S
O215 C211 1.260 . S
O216 In208 2.266 . S
O216 C213 1.252 . S
O217 In208 2.326 . S
O217 C213 1.260 . S
C218 O209 1.240 . S
C218 O210 1.252 . S
O219 In208 2.294 . S
O219 C212 1.240 . S
O220 In208 2.326 . S
O220 C212 1.252 . S
In221 O222 2.294 . S
In221 O223 2.326 . S
In221 O227 2.266 . S
In221 O228 2.326 . S
In221 O229 2.266 . S
In221 O230 2.326 . S
In221 O232 2.294 . S
In221 O233 2.326 . S
O222 In221 2.294 . S
O222 C231 1.240 . S
O223 In221 2.326 . S
O223 C231 1.252 . S
C224 O227 1.252 . S
C224 O228 1.260 . S
C225 O232 1.240 . S
C225 O233 1.252 . S
C226 O229 1.252 . S
C226 O230 1.260 . S
O227 In221 2.266 . S
O227 C224 1.252 . S
O228 In221 2.326 . S
O228 C224 1.260 . S
O229 In221 2.266 . S
O229 C226 1.252 . S
O230 In221 2.326 . S
O230 C226 1.260 . S
C231 O222 1.240 . S
C231 O223 1.252 . S
O232 In221 2.294 . S
O232 C225 1.240 . S
O233 In221 2.326 . S
O233 C225 1.252 . S
In234 O235 2.294 . S
In234 O236 2.326 . S
In234 O240 2.266 . S
In234 O241 2.326 . S
In234 O242 2.266 . S
In234 O243 2.326 . S
In234 O245 2.294 . S
In234 O246 2.326 . S
O235 In234 2.294 . S
O235 C244 1.240 . S
O236 In234 2.326 . S
O236 C244 1.252 . S
C237 O240 1.252 . S
C237 O241 1.260 . S
C238 O245 1.240 . S
C238 O246 1.252 . S
C239 O242 1.252 . S
C239 O243 1.260 . S
O240 In234 2.266 . S
O240 C237 1.252 . S
O241 In234 2.326 . S
O241 C237 1.260 . S
O242 In234 2.266 . S
O242 C239 1.252 . S
O243 In234 2.326 . S
O243 C239 1.260 . S
C244 O235 1.240 . S
C244 O236 1.252 . S
O245 In234 2.294 . S
O245 C238 1.240 . S
O246 In234 2.326 . S
O246 C238 1.252 . S
In247 O248 2.294 . S
In247 O249 2.326 . S
In247 O253 2.266 . S
In247 O254 2.326 . S
In247 O255 2.266 . S
In247 O256 2.326 . S
In247 O258 2.294 . S
In247 O259 2.326 . S
O248 In247 2.294 . S
O248 C257 1.240 . S
O249 In247 2.326 . S
O249 C257 1.252 . S
C250 O253 1.252 . S
C250 O254 1.260 . S
C251 O258 1.240 . S
C251 O259 1.252 . S
C252 O255 1.252 . S
C252 O256 1.260 . S
O253 In247 2.266 . S
O253 C250 1.252 . S
O254 In247 2.326 . S
O254 C250 1.260 . S
O255 In247 2.266 . S
O255 C252 1.252 . S
O256 In247 2.326 . S
O256 C252 1.260 . S
C257 O248 1.240 . S
C257 O249 1.252 . S
O258 In247 2.294 . S
O258 C251 1.240 . S
O259 In247 2.326 . S
O259 C251 1.252 . S
In260 O261 2.294 . S
In260 O262 2.326 . S
In260 O266 2.266 . S
In260 O267 2.326 . S
In260 O268 2.266 . S
In260 O269 2.326 . S
In260 O271 2.294 . S
In260 O272 2.326 . S
O261 In260 2.294 . S
O261 C270 1.240 . S
O262 In260 2.326 . S
O262 C270 1.252 . S
C263 O266 1.252 . S
C263 O267 1.260 . S
C264 O271 1.240 . S
C264 O272 1.252 . S
C265 O268 1.252 . S
C265 O269 1.260 . S
O266 In260 2.266 . S
O266 C263 1.252 . S
O267 In260 2.326 . S
O267 C263 1.260 . S
O268 In260 2.266 . S
O268 C265 1.252 . S
O269 In260 2.326 . S
O269 C265 1.260 . S
C270 O261 1.240 . S
C270 O262 1.252 . S
O271 In260 2.294 . S
O271 C264 1.240 . S
O272 In260 2.326 . S
O272 C264 1.252 . S
In273 O274 2.294 . S
In273 O275 2.326 . S
In273 O279 2.266 . S
In273 O280 2.326 . S
In273 O281 2.266 . S
In273 O282 2.326 . S
In273 O284 2.294 . S
In273 O285 2.326 . S
O274 In273 2.294 . S
O274 C283 1.240 . S
O275 In273 2.326 . S
O275 C283 1.252 . S
C276 O279 1.252 . S
C276 O280 1.260 . S
C277 O284 1.240 . S
C277 O285 1.252 . S
C278 O281 1.252 . S
C278 O282 1.260 . S
O279 In273 2.266 . S
O279 C276 1.252 . S
O280 In273 2.326 . S
O280 C276 1.260 . S
O281 In273 2.266 . S
O281 C278 1.252 . S
O282 In273 2.326 . S
O282 C278 1.260 . S
C283 O274 1.240 . S
C283 O275 1.252 . S
O284 In273 2.294 . S
O284 C277 1.240 . S
O285 In273 2.326 . S
O285 C277 1.252 . S
In286 O287 2.294 . S
In286 O288 2.326 . S
In286 O292 2.266 . S
In286 O293 2.326 . S
In286 O294 2.266 . S
In286 O295 2.326 . S
In286 O297 2.294 . S
In286 O298 2.326 . S
O287 In286 2.294 . S
O287 C296 1.240 . S
O288 In286 2.326 . S
O288 C296 1.252 . S
C289 O292 1.252 . S
C289 O293 1.260 . S
C290 O297 1.240 . S
C290 O298 1.252 . S
C291 O294 1.252 . S
C291 O295 1.260 . S
O292 In286 2.266 . S
O292 C289 1.252 . S
O293 In286 2.326 . S
O293 C289 1.260 . S
O294 In286 2.266 . S
O294 C291 1.252 . S
O295 In286 2.326 . S
O295 C291 1.260 . S
C296 O287 1.240 . S
C296 O288 1.252 . S
O297 In286 2.294 . S
O297 C290 1.240 . S
O298 In286 2.326 . S
O298 C290 1.252 . S
In299 O300 2.294 . S
In299 O301 2.326 . S
In299 O305 2.266 . S
In299 O306 2.326 . S
In299 O307 2.266 . S
In299 O308 2.326 . S
In299 O310 2.294 . S
In299 O311 2.326 . S
O300 In299 2.294 . S
O300 C309 1.240 . S
O301 In299 2.326 . S
O301 C309 1.252 . S
C302 O305 1.252 . S
C302 O306 1.260 . S
C303 O310 1.240 . S
C303 O311 1.252 . S
C304 O307 1.252 . S
C304 O308 1.260 . S
O305 In299 2.266 . S
O305 C302 1.252 . S
O306 In299 2.326 . S
O306 C302 1.260 . S
O307 In299 2.266 . S
O307 C304 1.252 . S
O308 In299 2.326 . S
O308 C304 1.260 . S
C309 O300 1.240 . S
C309 O301 1.252 . S
O310 In299 2.294 . S
O310 C303 1.240 . S
O311 In299 2.326 . S
O311 C303 1.252 . S
In312 O313 2.294 . S
In312 O314 2.326 . S
In312 O318 2.266 . S
In312 O319 2.326 . S
In312 O320 2.266 . S
In312 O321 2.326 . S
In312 O323 2.294 . S
In312 O324 2.326 . S
O313 In312 2.294 . S
O313 C322 1.240 . S
O314 In312 2.326 . S
O314 C322 1.252 . S
C315 O318 1.252 . S
C315 O319 1.260 . S
C316 O323 1.240 . S
C316 O324 1.252 . S
C317 O320 1.252 . S
C317 O321 1.260 . S
O318 In312 2.266 . S
O318 C315 1.252 . S
O319 In312 2.326 . S
O319 C315 1.260 . S
O320 In312 2.266 . S
O320 C317 1.252 . S
O321 In312 2.326 . S
O321 C317 1.260 . S
C322 O313 1.240 . S
C322 O314 1.252 . S
O323 In312 2.294 . S
O323 C316 1.240 . S
O324 In312 2.326 . S
O324 C316 1.252 . S
In325 O326 2.294 . S
In325 O327 2.326 . S
In325 O331 2.266 . S
In325 O332 2.326 . S
In325 O333 2.266 . S
In325 O334 2.326 . S
In325 O336 2.294 . S
In325 O337 2.326 . S
O326 In325 2.294 . S
O326 C335 1.240 . S
O327 In325 2.326 . S
O327 C335 1.252 . S
C328 O331 1.252 . S
C328 O332 1.260 . S
C329 O336 1.240 . S
C329 O337 1.252 . S
C330 O333 1.252 . S
C330 O334 1.260 . S
O331 In325 2.266 . S
O331 C328 1.252 . S
O332 In325 2.326 . S
O332 C328 1.260 . S
O333 In325 2.266 . S
O333 C330 1.252 . S
O334 In325 2.326 . S
O334 C330 1.260 . S
C335 O326 1.240 . S
C335 O327 1.252 . S
O336 In325 2.294 . S
O336 C329 1.240 . S
O337 In325 2.326 . S
O337 C329 1.252 . S
In338 O339 2.294 . S
In338 O340 2.326 . S
In338 O344 2.266 . S
In338 O345 2.326 . S
In338 O346 2.266 . S
In338 O347 2.326 . S
In338 O349 2.294 . S
In338 O350 2.326 . S
O339 In338 2.294 . S
O339 C348 1.240 . S
O340 In338 2.326 . S
O340 C348 1.252 . S
C341 O344 1.252 . S
C341 O345 1.260 . S
C342 O349 1.240 . S
C342 O350 1.252 . S
C343 O346 1.252 . S
C343 O347 1.260 . S
O344 In338 2.266 . S
O344 C341 1.252 . S
O345 In338 2.326 . S
O345 C341 1.260 . S
O346 In338 2.266 . S
O346 C343 1.252 . S
O347 In338 2.326 . S
O347 C343 1.260 . S
C348 O339 1.240 . S
C348 O340 1.252 . S
O349 In338 2.294 . S
O349 C342 1.240 . S
O350 In338 2.326 . S
O350 C342 1.252 . S
In351 O352 2.294 . S
In351 O353 2.326 . S
In351 O357 2.266 . S
In351 O358 2.326 . S
In351 O359 2.266 . S
In351 O360 2.326 . S
In351 O362 2.294 . S
In351 O363 2.326 . S
O352 In351 2.294 . S
O352 C361 1.240 . S
O353 In351 2.326 . S
O353 C361 1.252 . S
C354 O357 1.252 . S
C354 O358 1.260 . S
C355 O362 1.240 . S
C355 O363 1.252 . S
C356 O359 1.252 . S
C356 O360 1.260 . S
O357 In351 2.266 . S
O357 C354 1.252 . S
O358 In351 2.326 . S
O358 C354 1.260 . S
O359 In351 2.266 . S
O359 C356 1.252 . S
O360 In351 2.326 . S
O360 C356 1.260 . S
C361 O352 1.240 . S
C361 O353 1.252 . S
O362 In351 2.294 . S
O362 C355 1.240 . S
O363 In351 2.326 . S
O363 C355 1.252 . S
In364 O365 2.294 . S
In364 O366 2.326 . S
In364 O370 2.266 . S
In364 O371 2.326 . S
In364 O372 2.266 . S
In364 O373 2.326 . S
In364 O375 2.294 . S
In364 O376 2.326 . S
O365 In364 2.294 . S
O365 C374 1.240 . S
O366 In364 2.326 . S
O366 C374 1.252 . S
C367 O370 1.252 . S
C367 O371 1.260 . S
C368 O375 1.240 . S
C368 O376 1.252 . S
C369 O372 1.252 . S
C369 O373 1.260 . S
O370 In364 2.266 . S
O370 C367 1.252 . S
O371 In364 2.326 . S
O371 C367 1.260 . S
O372 In364 2.266 . S
O372 C369 1.252 . S
O373 In364 2.326 . S
O373 C369 1.260 . S
C374 O365 1.240 . S
C374 O366 1.252 . S
O375 In364 2.294 . S
O375 C368 1.240 . S
O376 In364 2.326 . S
O376 C368 1.252 . S
In377 O378 2.294 . S
In377 O379 2.326 . S
In377 O383 2.266 . S
In377 O384 2.326 . S
In377 O385 2.266 . S
In377 O386 2.326 . S
In377 O388 2.294 . S
In377 O389 2.326 . S
O378 In377 2.294 . S
O378 C387 1.240 . S
O379 In377 2.326 . S
O379 C387 1.252 . S
C380 O383 1.252 . S
C380 O384 1.260 . S
C381 O388 1.240 . S
C381 O389 1.252 . S
C382 O385 1.252 . S
C382 O386 1.260 . S
O383 In377 2.266 . S
O383 C380 1.252 . S
O384 In377 2.326 . S
O384 C380 1.260 . S
O385 In377 2.266 . S
O385 C382 1.252 . S
O386 In377 2.326 . S
O386 C382 1.260 . S
C387 O378 1.240 . S
C387 O379 1.252 . S
O388 In377 2.294 . S
O388 C381 1.240 . S
O389 In377 2.326 . S
O389 C381 1.252 . S
In390 O391 2.294 . S
In390 O392 2.326 . S
In390 O396 2.266 . S
In390 O397 2.326 . S
In390 O398 2.266 . S
In390 O399 2.326 . S
In390 O401 2.294 . S
In390 O402 2.326 . S
O391 In390 2.294 . S
O391 C400 1.240 . S
O392 In390 2.326 . S
O392 C400 1.252 . S
C393 O396 1.252 . S
C393 O397 1.260 . S
C394 O401 1.240 . S
C394 O402 1.252 . S
C395 O398 1.252 . S
C395 O399 1.260 . S
O396 In390 2.266 . S
O396 C393 1.252 . S
O397 In390 2.326 . S
O397 C393 1.260 . S
O398 In390 2.266 . S
O398 C395 1.252 . S
O399 In390 2.326 . S
O399 C395 1.260 . S
C400 O391 1.240 . S
C400 O392 1.252 . S
O401 In390 2.294 . S
O401 C394 1.240 . S
O402 In390 2.326 . S
O402 C394 1.252 . S
In403 O404 2.294 . S
In403 O405 2.326 . S
In403 O409 2.266 . S
In403 O410 2.326 . S
In403 O411 2.266 . S
In403 O412 2.326 . S
In403 O414 2.294 . S
In403 O415 2.326 . S
O404 In403 2.294 . S
O404 C413 1.240 . S
O405 In403 2.326 . S
O405 C413 1.252 . S
C406 O409 1.252 . S
C406 O410 1.260 . S
C407 O414 1.240 . S
C407 O415 1.252 . S
C408 O411 1.252 . S
C408 O412 1.260 . S
O409 In403 2.266 . S
O409 C406 1.252 . S
O410 In403 2.326 . S
O410 C406 1.260 . S
O411 In403 2.266 . S
O411 C408 1.252 . S
O412 In403 2.326 . S
O412 C408 1.260 . S
C413 O404 1.240 . S
C413 O405 1.252 . S
O414 In403 2.294 . S
O414 C407 1.240 . S
O415 In403 2.326 . S
O415 C407 1.252 . S
In416 O417 2.294 . S
In416 O418 2.326 . S
In416 O422 2.266 . S
In416 O423 2.326 . S
In416 O424 2.266 . S
In416 O425 2.326 . S
In416 O427 2.294 . S
In416 O428 2.326 . S
O417 In416 2.294 . S
O417 C426 1.240 . S
O418 In416 2.326 . S
O418 C426 1.252 . S
C419 O422 1.252 . S
C419 O423 1.260 . S
C420 O427 1.240 . S
C420 O428 1.252 . S
C421 O424 1.252 . S
C421 O425 1.260 . S
O422 In416 2.266 . S
O422 C419 1.252 . S
O423 In416 2.326 . S
O423 C419 1.260 . S
O424 In416 2.266 . S
O424 C421 1.252 . S
O425 In416 2.326 . S
O425 C421 1.260 . S
C426 O417 1.240 . S
C426 O418 1.252 . S
O427 In416 2.294 . S
O427 C420 1.240 . S
O428 In416 2.326 . S
O428 C420 1.252 . S
In429 O430 2.294 . S
In429 O431 2.326 . S
In429 O435 2.266 . S
In429 O436 2.326 . S
In429 O437 2.266 . S
In429 O438 2.326 . S
In429 O440 2.294 . S
In429 O441 2.326 . S
O430 In429 2.294 . S
O430 C439 1.240 . S
O431 In429 2.326 . S
O431 C439 1.252 . S
C432 O435 1.252 . S
C432 O436 1.260 . S
C433 O440 1.240 . S
C433 O441 1.252 . S
C434 O437 1.252 . S
C434 O438 1.260 . S
O435 In429 2.266 . S
O435 C432 1.252 . S
O436 In429 2.326 . S
O436 C432 1.260 . S
O437 In429 2.266 . S
O437 C434 1.252 . S
O438 In429 2.326 . S
O438 C434 1.260 . S
C439 O430 1.240 . S
C439 O431 1.252 . S
O440 In429 2.294 . S
O440 C433 1.240 . S
O441 In429 2.326 . S
O441 C433 1.252 . S
In442 O443 2.294 . S
In442 O444 2.326 . S
In442 O448 2.266 . S
In442 O449 2.326 . S
In442 O450 2.266 . S
In442 O451 2.326 . S
In442 O453 2.294 . S
In442 O454 2.326 . S
O443 In442 2.294 . S
O443 C452 1.240 . S
O444 In442 2.326 . S
O444 C452 1.252 . S
C445 O448 1.252 . S
C445 O449 1.260 . S
C446 O453 1.240 . S
C446 O454 1.252 . S
C447 O450 1.252 . S
C447 O451 1.260 . S
O448 In442 2.266 . S
O448 C445 1.252 . S
O449 In442 2.326 . S
O449 C445 1.260 . S
O450 In442 2.266 . S
O450 C447 1.252 . S
O451 In442 2.326 . S
O451 C447 1.260 . S
C452 O443 1.240 . S
C452 O444 1.252 . S
O453 In442 2.294 . S
O453 C446 1.240 . S
O454 In442 2.326 . S
O454 C446 1.252 . S
In455 O456 2.294 . S
In455 O457 2.326 . S
In455 O461 2.266 . S
In455 O462 2.326 . S
In455 O463 2.266 . S
In455 O464 2.326 . S
In455 O466 2.294 . S
In455 O467 2.326 . S
O456 In455 2.294 . S
O456 C465 1.240 . S
O457 In455 2.326 . S
O457 C465 1.252 . S
C458 O461 1.252 . S
C458 O462 1.260 . S
C459 O466 1.240 . S
C459 O467 1.252 . S
C460 O463 1.252 . S
C460 O464 1.260 . S
O461 In455 2.266 . S
O461 C458 1.252 . S
O462 In455 2.326 . S
O462 C458 1.260 . S
O463 In455 2.266 . S
O463 C460 1.252 . S
O464 In455 2.326 . S
O464 C460 1.260 . S
C465 O456 1.240 . S
C465 O457 1.252 . S
O466 In455 2.294 . S
O466 C459 1.240 . S
O467 In455 2.326 . S
O467 C459 1.252 . S
In468 O469 2.294 . S
In468 O470 2.326 . S
In468 O474 2.266 . S
In468 O475 2.326 . S
In468 O476 2.266 . S
In468 O477 2.326 . S
In468 O479 2.294 . S
In468 O480 2.326 . S
O469 In468 2.294 . S
O469 C478 1.240 . S
O470 In468 2.326 . S
O470 C478 1.252 . S
C471 O474 1.252 . S
C471 O475 1.260 . S
C472 O479 1.240 . S
C472 O480 1.252 . S
C473 O476 1.252 . S
C473 O477 1.260 . S
O474 In468 2.266 . S
O474 C471 1.252 . S
O475 In468 2.326 . S
O475 C471 1.260 . S
O476 In468 2.266 . S
O476 C473 1.252 . S
O477 In468 2.326 . S
O477 C473 1.260 . S
C478 O469 1.240 . S
C478 O470 1.252 . S
O479 In468 2.294 . S
O479 C472 1.240 . S
O480 In468 2.326 . S
O480 C472 1.252 . S
In481 O482 2.294 . S
In481 O483 2.326 . S
In481 O487 2.266 . S
In481 O488 2.326 . S
In481 O489 2.266 . S
In481 O490 2.326 . S
In481 O492 2.294 . S
In481 O493 2.326 . S
O482 In481 2.294 . S
O482 C491 1.240 . S
O483 In481 2.326 . S
O483 C491 1.252 . S
C484 O487 1.252 . S
C484 O488 1.260 . S
C485 O492 1.240 . S
C485 O493 1.252 . S
C486 O489 1.252 . S
C486 O490 1.260 . S
O487 In481 2.266 . S
O487 C484 1.252 . S
O488 In481 2.326 . S
O488 C484 1.260 . S
O489 In481 2.266 . S
O489 C486 1.252 . S
O490 In481 2.326 . S
O490 C486 1.260 . S
C491 O482 1.240 . S
C491 O483 1.252 . S
O492 In481 2.294 . S
O492 C485 1.240 . S
O493 In481 2.326 . S
O493 C485 1.252 . S
In494 O495 2.294 . S
In494 O496 2.326 . S
In494 O500 2.266 . S
In494 O501 2.326 . S
In494 O502 2.266 . S
In494 O503 2.326 . S
In494 O505 2.294 . S
In494 O506 2.326 . S
O495 In494 2.294 . S
O495 C504 1.240 . S
O496 In494 2.326 . S
O496 C504 1.252 . S
C497 O500 1.252 . S
C497 O501 1.260 . S
C498 O505 1.240 . S
C498 O506 1.252 . S
C499 O502 1.252 . S
C499 O503 1.260 . S
O500 In494 2.266 . S
O500 C497 1.252 . S
O501 In494 2.326 . S
O501 C497 1.260 . S
O502 In494 2.266 . S
O502 C499 1.252 . S
O503 In494 2.326 . S
O503 C499 1.260 . S
C504 O495 1.240 . S
C504 O496 1.252 . S
O505 In494 2.294 . S
O505 C498 1.240 . S
O506 In494 2.326 . S
O506 C498 1.252 . S
In507 O508 2.294 . S
In507 O509 2.326 . S
In507 O513 2.266 . S
In507 O514 2.326 . S
In507 O515 2.266 . S
In507 O516 2.326 . S
In507 O518 2.294 . S
In507 O519 2.326 . S
O508 In507 2.294 . S
O508 C517 1.240 . S
O509 In507 2.326 . S
O509 C517 1.252 . S
C510 O513 1.252 . S
C510 O514 1.260 . S
C511 O518 1.240 . S
C511 O519 1.252 . S
C512 O515 1.252 . S
C512 O516 1.260 . S
O513 In507 2.266 . S
O513 C510 1.252 . S
O514 In507 2.326 . S
O514 C510 1.260 . S
O515 In507 2.266 . S
O515 C512 1.252 . S
O516 In507 2.326 . S
O516 C512 1.260 . S
C517 O508 1.240 . S
C517 O509 1.252 . S
O518 In507 2.294 . S
O518 C511 1.240 . S
O519 In507 2.326 . S
O519 C511 1.252 . S
In520 O521 2.294 . S
In520 O522 2.326 . S
In520 O526 2.266 . S
In520 O527 2.326 . S
In520 O528 2.266 . S
In520 O529 2.326 . S
In520 O531 2.294 . S
In520 O532 2.326 . S
O521 In520 2.294 . S
O521 C530 1.240 . S
O522 In520 2.326 . S
O522 C530 1.252 . S
C523 O526 1.252 . S
C523 O527 1.260 . S
C524 O531 1.240 . S
C524 O532 1.252 . S
C525 O528 1.252 . S
C525 O529 1.260 . S
O526 In520 2.266 . S
O526 C523 1.252 . S
O527 In520 2.326 . S
O527 C523 1.260 . S
O528 In520 2.266 . S
O528 C525 1.252 . S
O529 In520 2.326 . S
O529 C525 1.260 . S
C530 O521 1.240 . S
C530 O522 1.252 . S
O531 In520 2.294 . S
O531 C524 1.240 . S
O532 In520 2.326 . S
O532 C524 1.252 . S
In533 O534 2.294 . S
In533 O535 2.326 . S
In533 O539 2.266 . S
In533 O540 2.326 . S
In533 O541 2.266 . S
In533 O542 2.326 . S
In533 O544 2.294 . S
In533 O545 2.326 . S
O534 In533 2.294 . S
O534 C543 1.240 . S
O535 In533 2.326 . S
O535 C543 1.252 . S
C536 O539 1.252 . S
C536 O540 1.260 . S
C537 O544 1.240 . S
C537 O545 1.252 . S
C538 O541 1.252 . S
C538 O542 1.260 . S
O539 In533 2.266 . S
O539 C536 1.252 . S
O540 In533 2.326 . S
O540 C536 1.260 . S
O541 In533 2.266 . S
O541 C538 1.252 . S
O542 In533 2.326 . S
O542 C538 1.260 . S
C543 O534 1.240 . S
C543 O535 1.252 . S
O544 In533 2.294 . S
O544 C537 1.240 . S
O545 In533 2.326 . S
O545 C537 1.252 . S
In546 O547 2.294 . S
In546 O548 2.326 . S
In546 O552 2.266 . S
In546 O553 2.326 . S
In546 O554 2.266 . S
In546 O555 2.326 . S
In546 O557 2.294 . S
In546 O558 2.326 . S
O547 In546 2.294 . S
O547 C556 1.240 . S
O548 In546 2.326 . S
O548 C556 1.252 . S
C549 O552 1.252 . S
C549 O553 1.260 . S
C550 O557 1.240 . S
C550 O558 1.252 . S
C551 O554 1.252 . S
C551 O555 1.260 . S
O552 In546 2.266 . S
O552 C549 1.252 . S
O553 In546 2.326 . S
O553 C549 1.260 . S
O554 In546 2.266 . S
O554 C551 1.252 . S
O555 In546 2.326 . S
O555 C551 1.260 . S
C556 O547 1.240 . S
C556 O548 1.252 . S
O557 In546 2.294 . S
O557 C550 1.240 . S
O558 In546 2.326 . S
O558 C550 1.252 . S
In559 O560 2.294 . S
In559 O561 2.326 . S
In559 O565 2.266 . S
In559 O566 2.326 . S
In559 O567 2.266 . S
In559 O568 2.326 . S
In559 O570 2.294 . S
In559 O571 2.326 . S
O560 In559 2.294 . S
O560 C569 1.240 . S
O561 In559 2.326 . S
O561 C569 1.252 . S
C562 O565 1.252 . S
C562 O566 1.260 . S
C563 O570 1.240 . S
C563 O571 1.252 . S
C564 O567 1.252 . S
C564 O568 1.260 . S
O565 In559 2.266 . S
O565 C562 1.252 . S
O566 In559 2.326 . S
O566 C562 1.260 . S
O567 In559 2.266 . S
O567 C564 1.252 . S
O568 In559 2.326 . S
O568 C564 1.260 . S
C569 O560 1.240 . S
C569 O561 1.252 . S
O570 In559 2.294 . S
O570 C563 1.240 . S
O571 In559 2.326 . S
O571 C563 1.252 . S
In572 O573 2.294 . S
In572 O574 2.326 . S
In572 O578 2.266 . S
In572 O579 2.326 . S
In572 O580 2.266 . S
In572 O581 2.326 . S
In572 O583 2.294 . S
In572 O584 2.326 . S
O573 In572 2.294 . S
O573 C582 1.240 . S
O574 In572 2.326 . S
O574 C582 1.252 . S
C575 O578 1.252 . S
C575 O579 1.260 . S
C576 O583 1.240 . S
C576 O584 1.252 . S
C577 O580 1.252 . S
C577 O581 1.260 . S
O578 In572 2.266 . S
O578 C575 1.252 . S
O579 In572 2.326 . S
O579 C575 1.260 . S
O580 In572 2.266 . S
O580 C577 1.252 . S
O581 In572 2.326 . S
O581 C577 1.260 . S
C582 O573 1.240 . S
C582 O574 1.252 . S
O583 In572 2.294 . S
O583 C576 1.240 . S
O584 In572 2.326 . S
O584 C576 1.252 . S
In585 O586 2.294 . S
In585 O587 2.326 . S
In585 O591 2.266 . S
In585 O592 2.326 . S
In585 O593 2.266 . S
In585 O594 2.326 . S
In585 O596 2.294 . S
In585 O597 2.326 . S
O586 In585 2.294 . S
O586 C595 1.240 . S
O587 In585 2.326 . S
O587 C595 1.252 . S
C588 O591 1.252 . S
C588 O592 1.260 . S
C589 O596 1.240 . S
C589 O597 1.252 . S
C590 O593 1.252 . S
C590 O594 1.260 . S
O591 In585 2.266 . S
O591 C588 1.252 . S
O592 In585 2.326 . S
O592 C588 1.260 . S
O593 In585 2.266 . S
O593 C590 1.252 . S
O594 In585 2.326 . S
O594 C590 1.260 . S
C595 O586 1.240 . S
C595 O587 1.252 . S
O596 In585 2.294 . S
O596 C589 1.240 . S
O597 In585 2.326 . S
O597 C589 1.252 . S
In598 O599 2.294 . S
In598 O600 2.326 . S
In598 O604 2.266 . S
In598 O605 2.326 . S
In598 O606 2.266 . S
In598 O607 2.326 . S
In598 O609 2.294 . S
In598 O610 2.326 . S
O599 In598 2.294 . S
O599 C608 1.240 . S
O600 In598 2.326 . S
O600 C608 1.252 . S
C601 O604 1.252 . S
C601 O605 1.260 . S
C602 O609 1.240 . S
C602 O610 1.252 . S
C603 O606 1.252 . S
C603 O607 1.260 . S
O604 In598 2.266 . S
O604 C601 1.252 . S
O605 In598 2.326 . S
O605 C601 1.260 . S
O606 In598 2.266 . S
O606 C603 1.252 . S
O607 In598 2.326 . S
O607 C603 1.260 . S
C608 O599 1.240 . S
C608 O600 1.252 . S
O609 In598 2.294 . S
O609 C602 1.240 . S
O610 In598 2.326 . S
O610 C602 1.252 . S
In611 O612 2.294 . S
In611 O613 2.326 . S
In611 O617 2.266 . S
In611 O618 2.326 . S
In611 O619 2.266 . S
In611 O620 2.326 . S
In611 O622 2.294 . S
In611 O623 2.326 . S
O612 In611 2.294 . S
O612 C621 1.240 . S
O613 In611 2.326 . S
O613 C621 1.252 . S
C614 O617 1.252 . S
C614 O618 1.260 . S
C615 O622 1.240 . S
C615 O623 1.252 . S
C616 O619 1.252 . S
C616 O620 1.260 . S
O617 In611 2.266 . S
O617 C614 1.252 . S
O618 In611 2.326 . S
O618 C614 1.260 . S
O619 In611 2.266 . S
O619 C616 1.252 . S
O620 In611 2.326 . S
O620 C616 1.260 . S
C621 O612 1.240 . S
C621 O613 1.252 . S
O622 In611 2.294 . S
O622 C615 1.240 . S
O623 In611 2.326 . S
O623 C615 1.252 . S
In624 O625 2.294 . S
In624 O626 2.326 . S
In624 O630 2.266 . S
In624 O631 2.326 . S
In624 O632 2.266 . S
In624 O633 2.326 . S
In624 O635 2.294 . S
In624 O636 2.326 . S
O625 In624 2.294 . S
O625 C634 1.240 . S
O626 In624 2.326 . S
O626 C634 1.252 . S
C627 O630 1.252 . S
C627 O631 1.260 . S
C628 O635 1.240 . S
C628 O636 1.252 . S
C629 O632 1.252 . S
C629 O633 1.260 . S
O630 In624 2.266 . S
O630 C627 1.252 . S
O631 In624 2.326 . S
O631 C627 1.260 . S
O632 In624 2.266 . S
O632 C629 1.252 . S
O633 In624 2.326 . S
O633 C629 1.260 . S
C634 O625 1.240 . S
C634 O626 1.252 . S
O635 In624 2.294 . S
O635 C628 1.240 . S
O636 In624 2.326 . S
O636 C628 1.252 . S
In637 O638 2.294 . S
In637 O639 2.326 . S
In637 O643 2.266 . S
In637 O644 2.326 . S
In637 O645 2.266 . S
In637 O646 2.326 . S
In637 O648 2.294 . S
In637 O649 2.326 . S
O638 In637 2.294 . S
O638 C647 1.240 . S
O639 In637 2.326 . S
O639 C647 1.252 . S
C640 O643 1.252 . S
C640 O644 1.260 . S
C641 O648 1.240 . S
C641 O649 1.252 . S
C642 O645 1.252 . S
C642 O646 1.260 . S
O643 In637 2.266 . S
O643 C640 1.252 . S
O644 In637 2.326 . S
O644 C640 1.260 . S
O645 In637 2.266 . S
O645 C642 1.252 . S
O646 In637 2.326 . S
O646 C642 1.260 . S
C647 O638 1.240 . S
C647 O639 1.252 . S
O648 In637 2.294 . S
O648 C641 1.240 . S
O649 In637 2.326 . S
O649 C641 1.252 . S
In650 O651 2.294 . S
In650 O652 2.326 . S
In650 O656 2.266 . S
In650 O657 2.326 . S
In650 O658 2.266 . S
In650 O659 2.326 . S
In650 O661 2.294 . S
In650 O662 2.326 . S
O651 In650 2.294 . S
O651 C660 1.240 . S
O652 In650 2.326 . S
O652 C660 1.252 . S
C653 O656 1.252 . S
C653 O657 1.260 . S
C654 O661 1.240 . S
C654 O662 1.252 . S
C655 O658 1.252 . S
C655 O659 1.260 . S
O656 In650 2.266 . S
O656 C653 1.252 . S
O657 In650 2.326 . S
O657 C653 1.260 . S
O658 In650 2.266 . S
O658 C655 1.252 . S
O659 In650 2.326 . S
O659 C655 1.260 . S
C660 O651 1.240 . S
C660 O652 1.252 . S
O661 In650 2.294 . S
O661 C654 1.240 . S
O662 In650 2.326 . S
O662 C654 1.252 . S
In663 O664 2.294 . S
In663 O665 2.326 . S
In663 O669 2.266 . S
In663 O670 2.326 . S
In663 O671 2.266 . S
In663 O672 2.326 . S
In663 O674 2.294 . S
In663 O675 2.326 . S
O664 In663 2.294 . S
O664 C673 1.240 . S
O665 In663 2.326 . S
O665 C673 1.252 . S
C666 O669 1.252 . S
C666 O670 1.260 . S
C667 O674 1.240 . S
C667 O675 1.252 . S
C668 O671 1.252 . S
C668 O672 1.260 . S
O669 In663 2.266 . S
O669 C666 1.252 . S
O670 In663 2.326 . S
O670 C666 1.260 . S
O671 In663 2.266 . S
O671 C668 1.252 . S
O672 In663 2.326 . S
O672 C668 1.260 . S
C673 O664 1.240 . S
C673 O665 1.252 . S
O674 In663 2.294 . S
O674 C667 1.240 . S
O675 In663 2.326 . S
O675 C667 1.252 . S
In676 O677 2.294 . S
In676 O678 2.326 . S
In676 O682 2.266 . S
In676 O683 2.326 . S
In676 O684 2.266 . S
In676 O685 2.326 . S
In676 O687 2.294 . S
In676 O688 2.326 . S
O677 In676 2.294 . S
O677 C686 1.240 . S
O678 In676 2.326 . S
O678 C686 1.252 . S
C679 O682 1.252 . S
C679 O683 1.260 . S
C680 O687 1.240 . S
C680 O688 1.252 . S
C681 O684 1.252 . S
C681 O685 1.260 . S
O682 In676 2.266 . S
O682 C679 1.252 . S
O683 In676 2.326 . S
O683 C679 1.260 . S
O684 In676 2.266 . S
O684 C681 1.252 . S
O685 In676 2.326 . S
O685 C681 1.260 . S
C686 O677 1.240 . S
C686 O678 1.252 . S
O687 In676 2.294 . S
O687 C680 1.240 . S
O688 In676 2.326 . S
O688 C680 1.252 . S
In689 O690 2.294 . S
In689 O691 2.326 . S
In689 O695 2.266 . S
In689 O696 2.326 . S
In689 O697 2.266 . S
In689 O698 2.326 . S
In689 O700 2.294 . S
In689 O701 2.326 . S
O690 In689 2.294 . S
O690 C699 1.240 . S
O691 In689 2.326 . S
O691 C699 1.252 . S
C692 O695 1.252 . S
C692 O696 1.260 . S
C693 O700 1.240 . S
C693 O701 1.252 . S
C694 O697 1.252 . S
C694 O698 1.260 . S
O695 In689 2.266 . S
O695 C692 1.252 . S
O696 In689 2.326 . S
O696 C692 1.260 . S
O697 In689 2.266 . S
O697 C694 1.252 . S
O698 In689 2.326 . S
O698 C694 1.260 . S
C699 O690 1.240 . S
C699 O691 1.252 . S
O700 In689 2.294 . S
O700 C693 1.240 . S
O701 In689 2.326 . S
O701 C693 1.252 . S
In702 O703 2.294 . S
In702 O704 2.326 . S
In702 O708 2.266 . S
In702 O709 2.326 . S
In702 O710 2.266 . S
In702 O711 2.326 . S
In702 O713 2.294 . S
In702 O714 2.326 . S
O703 In702 2.294 . S
O703 C712 1.240 . S
O704 In702 2.326 . S
O704 C712 1.252 . S
C705 O708 1.252 . S
C705 O709 1.260 . S
C706 O713 1.240 . S
C706 O714 1.252 . S
C707 O710 1.252 . S
C707 O711 1.260 . S
O708 In702 2.266 . S
O708 C705 1.252 . S
O709 In702 2.326 . S
O709 C705 1.260 . S
O710 In702 2.266 . S
O710 C707 1.252 . S
O711 In702 2.326 . S
O711 C707 1.260 . S
C712 O703 1.240 . S
C712 O704 1.252 . S
O713 In702 2.294 . S
O713 C706 1.240 . S
O714 In702 2.326 . S
O714 C706 1.252 . S
In715 O716 2.294 . S
In715 O717 2.326 . S
In715 O721 2.266 . S
In715 O722 2.326 . S
In715 O723 2.266 . S
In715 O724 2.326 . S
In715 O726 2.294 . S
In715 O727 2.326 . S
O716 In715 2.294 . S
O716 C725 1.240 . S
O717 In715 2.326 . S
O717 C725 1.252 . S
C718 O721 1.252 . S
C718 O722 1.260 . S
C719 O726 1.240 . S
C719 O727 1.252 . S
C720 O723 1.252 . S
C720 O724 1.260 . S
O721 In715 2.266 . S
O721 C718 1.252 . S
O722 In715 2.326 . S
O722 C718 1.260 . S
O723 In715 2.266 . S
O723 C720 1.252 . S
O724 In715 2.326 . S
O724 C720 1.260 . S
C725 O716 1.240 . S
C725 O717 1.252 . S
O726 In715 2.294 . S
O726 C719 1.240 . S
O727 In715 2.326 . S
O727 C719 1.252 . S
In728 O729 2.294 . S
In728 O730 2.326 . S
In728 O734 2.266 . S
In728 O735 2.326 . S
In728 O736 2.266 . S
In728 O737 2.326 . S
In728 O739 2.294 . S
In728 O740 2.326 . S
O729 In728 2.294 . S
O729 C738 1.240 . S
O730 In728 2.326 . S
O730 C738 1.252 . S
C731 O734 1.252 . S
C731 O735 1.260 . S
C732 O739 1.240 . S
C732 O740 1.252 . S
C733 O736 1.252 . S
C733 O737 1.260 . S
O734 In728 2.266 . S
O734 C731 1.252 . S
O735 In728 2.326 . S
O735 C731 1.260 . S
O736 In728 2.266 . S
O736 C733 1.252 . S
O737 In728 2.326 . S
O737 C733 1.260 . S
C738 O729 1.240 . S
C738 O730 1.252 . S
O739 In728 2.294 . S
O739 C732 1.240 . S
O740 In728 2.326 . S
O740 C732 1.252 . S
In741 O742 2.294 . S
In741 O743 2.326 . S
In741 O747 2.266 . S
In741 O748 2.326 . S
In741 O749 2.266 . S
In741 O750 2.326 . S
In741 O752 2.294 . S
In741 O753 2.326 . S
O742 In741 2.294 . S
O742 C751 1.240 . S
O743 In741 2.326 . S
O743 C751 1.252 . S
C744 O747 1.252 . S
C744 O748 1.260 . S
C745 O752 1.240 . S
C745 O753 1.252 . S
C746 O749 1.252 . S
C746 O750 1.260 . S
O747 In741 2.266 . S
O747 C744 1.252 . S
O748 In741 2.326 . S
O748 C744 1.260 . S
O749 In741 2.266 . S
O749 C746 1.252 . S
O750 In741 2.326 . S
O750 C746 1.260 . S
C751 O742 1.240 . S
C751 O743 1.252 . S
O752 In741 2.294 . S
O752 C745 1.240 . S
O753 In741 2.326 . S
O753 C745 1.252 . S
In754 O755 2.294 . S
In754 O756 2.326 . S
In754 O760 2.266 . S
In754 O761 2.326 . S
In754 O762 2.266 . S
In754 O763 2.326 . S
In754 O765 2.294 . S
In754 O766 2.326 . S
O755 In754 2.294 . S
O755 C764 1.240 . S
O756 In754 2.326 . S
O756 C764 1.252 . S
C757 O760 1.252 . S
C757 O761 1.260 . S
C758 O765 1.240 . S
C758 O766 1.252 . S
C759 O762 1.252 . S
C759 O763 1.260 . S
O760 In754 2.266 . S
O760 C757 1.252 . S
O761 In754 2.326 . S
O761 C757 1.260 . S
O762 In754 2.266 . S
O762 C759 1.252 . S
O763 In754 2.326 . S
O763 C759 1.260 . S
C764 O755 1.240 . S
C764 O756 1.252 . S
O765 In754 2.294 . S
O765 C758 1.240 . S
O766 In754 2.326 . S
O766 C758 1.252 . S
In767 O768 2.294 . S
In767 O769 2.326 . S
In767 O773 2.266 . S
In767 O774 2.326 . S
In767 O775 2.266 . S
In767 O776 2.326 . S
In767 O778 2.294 . S
In767 O779 2.326 . S
O768 In767 2.294 . S
O768 C777 1.240 . S
O769 In767 2.326 . S
O769 C777 1.252 . S
C770 O773 1.252 . S
C770 O774 1.260 . S
C771 O778 1.240 . S
C771 O779 1.252 . S
C772 O775 1.252 . S
C772 O776 1.260 . S
O773 In767 2.266 . S
O773 C770 1.252 . S
O774 In767 2.326 . S
O774 C770 1.260 . S
O775 In767 2.266 . S
O775 C772 1.252 . S
O776 In767 2.326 . S
O776 C772 1.260 . S
C777 O768 1.240 . S
C777 O769 1.252 . S
O778 In767 2.294 . S
O778 C771 1.240 . S
O779 In767 2.326 . S
O779 C771 1.252 . S
In780 O781 2.294 . S
In780 O782 2.326 . S
In780 O786 2.266 . S
In780 O787 2.326 . S
In780 O788 2.266 . S
In780 O789 2.326 . S
In780 O791 2.294 . S
In780 O792 2.326 . S
O781 In780 2.294 . S
O781 C790 1.240 . S
O782 In780 2.326 . S
O782 C790 1.252 . S
C783 O786 1.252 . S
C783 O787 1.260 . S
C784 O791 1.240 . S
C784 O792 1.252 . S
C785 O788 1.252 . S
C785 O789 1.260 . S
O786 In780 2.266 . S
O786 C783 1.252 . S
O787 In780 2.326 . S
O787 C783 1.260 . S
O788 In780 2.266 . S
O788 C785 1.252 . S
O789 In780 2.326 . S
O789 C785 1.260 . S
C790 O781 1.240 . S
C790 O782 1.252 . S
O791 In780 2.294 . S
O791 C784 1.240 . S
O792 In780 2.326 . S
O792 C784 1.252 . S
In793 O794 2.294 . S
In793 O795 2.326 . S
In793 O799 2.266 . S
In793 O800 2.326 . S
In793 O801 2.266 . S
In793 O802 2.326 . S
In793 O804 2.294 . S
In793 O805 2.326 . S
O794 In793 2.294 . S
O794 C803 1.240 . S
O795 In793 2.326 . S
O795 C803 1.252 . S
C796 O799 1.252 . S
C796 O800 1.260 . S
C797 O804 1.240 . S
C797 O805 1.252 . S
C798 O801 1.252 . S
C798 O802 1.260 . S
O799 In793 2.266 . S
O799 C796 1.252 . S
O800 In793 2.326 . S
O800 C796 1.260 . S
O801 In793 2.266 . S
O801 C798 1.252 . S
O802 In793 2.326 . S
O802 C798 1.260 . S
C803 O794 1.240 . S
C803 O795 1.252 . S
O804 In793 2.294 . S
O804 C797 1.240 . S
O805 In793 2.326 . S
O805 C797 1.252 . S
In806 O807 2.294 . S
In806 O808 2.326 . S
In806 O812 2.266 . S
In806 O813 2.326 . S
In806 O814 2.266 . S
In806 O815 2.326 . S
In806 O817 2.294 . S
In806 O818 2.326 . S
O807 In806 2.294 . S
O807 C816 1.240 . S
O808 In806 2.326 . S
O808 C816 1.252 . S
C809 O812 1.252 . S
C809 O813 1.260 . S
C810 O817 1.240 . S
C810 O818 1.252 . S
C811 O814 1.252 . S
C811 O815 1.260 . S
O812 In806 2.266 . S
O812 C809 1.252 . S
O813 In806 2.326 . S
O813 C809 1.260 . S
O814 In806 2.266 . S
O814 C811 1.252 . S
O815 In806 2.326 . S
O815 C811 1.260 . S
C816 O807 1.240 . S
C816 O808 1.252 . S
O817 In806 2.294 . S
O817 C810 1.240 . S
O818 In806 2.326 . S
O818 C810 1.252 . S
In819 O820 2.294 . S
In819 O821 2.326 . S
In819 O825 2.266 . S
In819 O826 2.326 . S
In819 O827 2.266 . S
In819 O828 2.326 . S
In819 O830 2.294 . S
In819 O831 2.326 . S
O820 In819 2.294 . S
O820 C829 1.240 . S
O821 In819 2.326 . S
O821 C829 1.252 . S
C822 O825 1.252 . S
C822 O826 1.260 . S
C823 O830 1.240 . S
C823 O831 1.252 . S
C824 O827 1.252 . S
C824 O828 1.260 . S
O825 In819 2.266 . S
O825 C822 1.252 . S
O826 In819 2.326 . S
O826 C822 1.260 . S
O827 In819 2.266 . S
O827 C824 1.252 . S
O828 In819 2.326 . S
O828 C824 1.260 . S
C829 O820 1.240 . S
C829 O821 1.252 . S
O830 In819 2.294 . S
O830 C823 1.240 . S
O831 In819 2.326 . S
O831 C823 1.252 . S
In832 O833 2.294 . S
In832 O834 2.326 . S
In832 O838 2.266 . S
In832 O839 2.326 . S
In832 O840 2.266 . S
In832 O841 2.326 . S
In832 O843 2.294 . S
In832 O844 2.326 . S
O833 In832 2.294 . S
O833 C842 1.240 . S
O834 In832 2.326 . S
O834 C842 1.252 . S
C835 O838 1.252 . S
C835 O839 1.260 . S
C836 O843 1.240 . S
C836 O844 1.252 . S
C837 O840 1.252 . S
C837 O841 1.260 . S
O838 In832 2.266 . S
O838 C835 1.252 . S
O839 In832 2.326 . S
O839 C835 1.260 . S
O840 In832 2.266 . S
O840 C837 1.252 . S
O841 In832 2.326 . S
O841 C837 1.260 . S
C842 O833 1.240 . S
C842 O834 1.252 . S
O843 In832 2.294 . S
O843 C836 1.240 . S
O844 In832 2.326 . S
O844 C836 1.252 . S
In845 O846 2.294 . S
In845 O847 2.326 . S
In845 O851 2.266 . S
In845 O852 2.326 . S
In845 O853 2.266 . S
In845 O854 2.326 . S
In845 O856 2.294 . S
In845 O857 2.326 . S
O846 In845 2.294 . S
O846 C855 1.240 . S
O847 In845 2.326 . S
O847 C855 1.252 . S
C848 O851 1.252 . S
C848 O852 1.260 . S
C849 O856 1.240 . S
C849 O857 1.252 . S
C850 O853 1.252 . S
C850 O854 1.260 . S
O851 In845 2.266 . S
O851 C848 1.252 . S
O852 In845 2.326 . S
O852 C848 1.260 . S
O853 In845 2.266 . S
O853 C850 1.252 . S
O854 In845 2.326 . S
O854 C850 1.260 . S
C855 O846 1.240 . S
C855 O847 1.252 . S
O856 In845 2.294 . S
O856 C849 1.240 . S
O857 In845 2.326 . S
O857 C849 1.252 . S
In858 O859 2.294 . S
In858 O860 2.326 . S
In858 O864 2.266 . S
In858 O865 2.326 . S
In858 O866 2.266 . S
In858 O867 2.326 . S
In858 O869 2.294 . S
In858 O870 2.326 . S
O859 In858 2.294 . S
O859 C868 1.240 . S
O860 In858 2.326 . S
O860 C868 1.252 . S
C861 O864 1.252 . S
C861 O865 1.260 . S
C862 O869 1.240 . S
C862 O870 1.252 . S
C863 O866 1.252 . S
C863 O867 1.260 . S
O864 In858 2.266 . S
O864 C861 1.252 . S
O865 In858 2.326 . S
O865 C861 1.260 . S
O866 In858 2.266 . S
O866 C863 1.252 . S
O867 In858 2.326 . S
O867 C863 1.260 . S
C868 O859 1.240 . S
C868 O860 1.252 . S
O869 In858 2.294 . S
O869 C862 1.240 . S
O870 In858 2.326 . S
O870 C862 1.252 . S
In871 O872 2.294 . S
In871 O873 2.326 . S
In871 O877 2.266 . S
In871 O878 2.326 . S
In871 O879 2.266 . S
In871 O880 2.326 . S
In871 O882 2.294 . S
In871 O883 2.326 . S
O872 In871 2.294 . S
O872 C881 1.240 . S
O873 In871 2.326 . S
O873 C881 1.252 . S
C874 O877 1.252 . S
C874 O878 1.260 . S
C875 O882 1.240 . S
C875 O883 1.252 . S
C876 O879 1.252 . S
C876 O880 1.260 . S
O877 In871 2.266 . S
O877 C874 1.252 . S
O878 In871 2.326 . S
O878 C874 1.260 . S
O879 In871 2.266 . S
O879 C876 1.252 . S
O880 In871 2.326 . S
O880 C876 1.260 . S
C881 O872 1.240 . S
C881 O873 1.252 . S
O882 In871 2.294 . S
O882 C875 1.240 . S
O883 In871 2.326 . S
O883 C875 1.252 . S
In884 O885 2.294 . S
In884 O886 2.326 . S
In884 O890 2.266 . S
In884 O891 2.326 . S
In884 O892 2.266 . S
In884 O893 2.326 . S
In884 O895 2.294 . S
In884 O896 2.326 . S
O885 In884 2.294 . S
O885 C894 1.240 . S
O886 In884 2.326 . S
O886 C894 1.252 . S
C887 O890 1.252 . S
C887 O891 1.260 . S
C888 O895 1.240 . S
C888 O896 1.252 . S
C889 O892 1.252 . S
C889 O893 1.260 . S
O890 In884 2.266 . S
O890 C887 1.252 . S
O891 In884 2.326 . S
O891 C887 1.260 . S
O892 In884 2.266 . S
O892 C889 1.252 . S
O893 In884 2.326 . S
O893 C889 1.260 . S
C894 O885 1.240 . S
C894 O886 1.252 . S
O895 In884 2.294 . S
O895 C888 1.240 . S
O896 In884 2.326 . S
O896 C888 1.252 . S
In897 O898 2.294 . S
In897 O899 2.326 . S
In897 O903 2.266 . S
In897 O904 2.326 . S
In897 O905 2.266 . S
In897 O906 2.326 . S
In897 O908 2.294 . S
In897 O909 2.326 . S
O898 In897 2.294 . S
O898 C907 1.240 . S
O899 In897 2.326 . S
O899 C907 1.252 . S
C900 O903 1.252 . S
C900 O904 1.260 . S
C901 O908 1.240 . S
C901 O909 1.252 . S
C902 O905 1.252 . S
C902 O906 1.260 . S
O903 In897 2.266 . S
O903 C900 1.252 . S
O904 In897 2.326 . S
O904 C900 1.260 . S
O905 In897 2.266 . S
O905 C902 1.252 . S
O906 In897 2.326 . S
O906 C902 1.260 . S
C907 O898 1.240 . S
C907 O899 1.252 . S
O908 In897 2.294 . S
O908 C901 1.240 . S
O909 In897 2.326 . S
O909 C901 1.252 . S
In910 O911 2.294 . S
In910 O912 2.326 . S
In910 O916 2.266 . S
In910 O917 2.326 . S
In910 O918 2.266 . S
In910 O919 2.326 . S
In910 O921 2.294 . S
In910 O922 2.326 . S
O911 In910 2.294 . S
O911 C920 1.240 . S
O912 In910 2.326 . S
O912 C920 1.252 . S
C913 O916 1.252 . S
C913 O917 1.260 . S
C914 O921 1.240 . S
C914 O922 1.252 . S
C915 O918 1.252 . S
C915 O919 1.260 . S
O916 In910 2.266 . S
O916 C913 1.252 . S
O917 In910 2.326 . S
O917 C913 1.260 . S
O918 In910 2.266 . S
O918 C915 1.252 . S
O919 In910 2.326 . S
O919 C915 1.260 . S
C920 O911 1.240 . S
C920 O912 1.252 . S
O921 In910 2.294 . S
O921 C914 1.240 . S
O922 In910 2.326 . S
O922 C914 1.252 . S
In923 O924 2.294 . S
In923 O925 2.326 . S
In923 O929 2.266 . S
In923 O930 2.326 . S
In923 O931 2.266 . S
In923 O932 2.326 . S
In923 O934 2.294 . S
In923 O935 2.326 . S
O924 In923 2.294 . S
O924 C933 1.240 . S
O925 In923 2.326 . S
O925 C933 1.252 . S
C926 O929 1.252 . S
C926 O930 1.260 . S
C927 O934 1.240 . S
C927 O935 1.252 . S
C928 O931 1.252 . S
C928 O932 1.260 . S
O929 In923 2.266 . S
O929 C926 1.252 . S
O930 In923 2.326 . S
O930 C926 1.260 . S
O931 In923 2.266 . S
O931 C928 1.252 . S
O932 In923 2.326 . S
O932 C928 1.260 . S
C933 O924 1.240 . S
C933 O925 1.252 . S
O934 In923 2.294 . S
O934 C927 1.240 . S
O935 In923 2.326 . S
O935 C927 1.252 . S
In936 O937 2.294 . S
In936 O938 2.326 . S
In936 O942 2.266 . S
In936 O943 2.326 . S
In936 O944 2.266 . S
In936 O945 2.326 . S
In936 O947 2.294 . S
In936 O948 2.326 . S
O937 In936 2.294 . S
O937 C946 1.240 . S
O938 In936 2.326 . S
O938 C946 1.252 . S
C939 O942 1.252 . S
C939 O943 1.260 . S
C940 O947 1.240 . S
C940 O948 1.252 . S
C941 O944 1.252 . S
C941 O945 1.260 . S
O942 In936 2.266 . S
O942 C939 1.252 . S
O943 In936 2.326 . S
O943 C939 1.260 . S
O944 In936 2.266 . S
O944 C941 1.252 . S
O945 In936 2.326 . S
O945 C941 1.260 . S
C946 O937 1.240 . S
C946 O938 1.252 . S
O947 In936 2.294 . S
O947 C940 1.240 . S
O948 In936 2.326 . S
O948 C940 1.252 . S
In949 O950 2.294 . S
In949 O951 2.326 . S
In949 O955 2.266 . S
In949 O956 2.326 . S
In949 O957 2.266 . S
In949 O958 2.326 . S
In949 O960 2.294 . S
In949 O961 2.326 . S
O950 In949 2.294 . S
O950 C959 1.240 . S
O951 In949 2.326 . S
O951 C959 1.252 . S
C952 O955 1.252 . S
C952 O956 1.260 . S
C953 O960 1.240 . S
C953 O961 1.252 . S
C954 O957 1.252 . S
C954 O958 1.260 . S
O955 In949 2.266 . S
O955 C952 1.252 . S
O956 In949 2.326 . S
O956 C952 1.260 . S
O957 In949 2.266 . S
O957 C954 1.252 . S
O958 In949 2.326 . S
O958 C954 1.260 . S
C959 O950 1.240 . S
C959 O951 1.252 . S
O960 In949 2.294 . S
O960 C953 1.240 . S
O961 In949 2.326 . S
O961 C953 1.252 . S
In962 O963 2.294 . S
In962 O964 2.326 . S
In962 O968 2.266 . S
In962 O969 2.326 . S
In962 O970 2.266 . S
In962 O971 2.326 . S
In962 O973 2.294 . S
In962 O974 2.326 . S
O963 In962 2.294 . S
O963 C972 1.240 . S
O964 In962 2.326 . S
O964 C972 1.252 . S
C965 O968 1.252 . S
C965 O969 1.260 . S
C966 O973 1.240 . S
C966 O974 1.252 . S
C967 O970 1.252 . S
C967 O971 1.260 . S
O968 In962 2.266 . S
O968 C965 1.252 . S
O969 In962 2.326 . S
O969 C965 1.260 . S
O970 In962 2.266 . S
O970 C967 1.252 . S
O971 In962 2.326 . S
O971 C967 1.260 . S
C972 O963 1.240 . S
C972 O964 1.252 . S
O973 In962 2.294 . S
O973 C966 1.240 . S
O974 In962 2.326 . S
O974 C966 1.252 . S
In975 O976 2.294 . S
In975 O977 2.326 . S
In975 O981 2.266 . S
In975 O982 2.326 . S
In975 O983 2.266 . S
In975 O984 2.326 . S
In975 O986 2.294 . S
In975 O987 2.326 . S
O976 In975 2.294 . S
O976 C985 1.240 . S
O977 In975 2.326 . S
O977 C985 1.252 . S
C978 O981 1.252 . S
C978 O982 1.260 . S
C979 O986 1.240 . S
C979 O987 1.252 . S
C980 O983 1.252 . S
C980 O984 1.260 . S
O981 In975 2.266 . S
O981 C978 1.252 . S
O982 In975 2.326 . S
O982 C978 1.260 . S
O983 In975 2.266 . S
O983 C980 1.252 . S
O984 In975 2.326 . S
O984 C980 1.260 . S
C985 O976 1.240 . S
C985 O977 1.252 . S
O986 In975 2.294 . S
O986 C979 1.240 . S
O987 In975 2.326 . S
O987 C979 1.252 . S
In988 O989 2.294 . S
In988 O990 2.326 . S
In988 O994 2.266 . S
In988 O995 2.326 . S
In988 O996 2.266 . S
In988 O997 2.326 . S
In988 O999 2.294 . S
In988 O1000 2.326 . S
O989 In988 2.294 . S
O989 C998 1.240 . S
O990 In988 2.326 . S
O990 C998 1.252 . S
C991 O994 1.252 . S
C991 O995 1.260 . S
C992 O999 1.240 . S
C992 O1000 1.252 . S
C993 O996 1.252 . S
C993 O997 1.260 . S
O994 In988 2.266 . S
O994 C991 1.252 . S
O995 In988 2.326 . S
O995 C991 1.260 . S
O996 In988 2.266 . S
O996 C993 1.252 . S
O997 In988 2.326 . S
O997 C993 1.260 . S
C998 O989 1.240 . S
C998 O990 1.252 . S
O999 In988 2.294 . S
O999 C992 1.240 . S
O1000 In988 2.326 . S
O1000 C992 1.252 . S
In1001 O1002 2.294 . S
In1001 O1003 2.326 . S
In1001 O1007 2.266 . S
In1001 O1008 2.326 . S
In1001 O1009 2.266 . S
In1001 O1010 2.326 . S
In1001 O1012 2.294 . S
In1001 O1013 2.326 . S
O1002 In1001 2.294 . S
O1002 C1011 1.240 . S
O1003 In1001 2.326 . S
O1003 C1011 1.252 . S
C1004 O1007 1.252 . S
C1004 O1008 1.260 . S
C1005 O1012 1.240 . S
C1005 O1013 1.252 . S
C1006 O1009 1.252 . S
C1006 O1010 1.260 . S
O1007 In1001 2.266 . S
O1007 C1004 1.252 . S
O1008 In1001 2.326 . S
O1008 C1004 1.260 . S
O1009 In1001 2.266 . S
O1009 C1006 1.252 . S
O1010 In1001 2.326 . S
O1010 C1006 1.260 . S
C1011 O1002 1.240 . S
C1011 O1003 1.252 . S
O1012 In1001 2.294 . S
O1012 C1005 1.240 . S
O1013 In1001 2.326 . S
O1013 C1005 1.252 . S
In1014 O1015 2.294 . S
In1014 O1016 2.326 . S
In1014 O1020 2.266 . S
In1014 O1021 2.326 . S
In1014 O1022 2.266 . S
In1014 O1023 2.326 . S
In1014 O1025 2.294 . S
In1014 O1026 2.326 . S
O1015 In1014 2.294 . S
O1015 C1024 1.240 . S
O1016 In1014 2.326 . S
O1016 C1024 1.252 . S
C1017 O1020 1.252 . S
C1017 O1021 1.260 . S
C1018 O1025 1.240 . S
C1018 O1026 1.252 . S
C1019 O1022 1.252 . S
C1019 O1023 1.260 . S
O1020 In1014 2.266 . S
O1020 C1017 1.252 . S
O1021 In1014 2.326 . S
O1021 C1017 1.260 . S
O1022 In1014 2.266 . S
O1022 C1019 1.252 . S
O1023 In1014 2.326 . S
O1023 C1019 1.260 . S
C1024 O1015 1.240 . S
C1024 O1016 1.252 . S
O1025 In1014 2.294 . S
O1025 C1018 1.240 . S
O1026 In1014 2.326 . S
O1026 C1018 1.252 . S
In1027 O1028 2.294 . S
In1027 O1029 2.326 . S
In1027 O1033 2.266 . S
In1027 O1034 2.326 . S
In1027 O1035 2.266 . S
In1027 O1036 2.326 . S
In1027 O1038 2.294 . S
In1027 O1039 2.326 . S
O1028 In1027 2.294 . S
O1028 C1037 1.240 . S
O1029 In1027 2.326 . S
O1029 C1037 1.252 . S
C1030 O1033 1.252 . S
C1030 O1034 1.260 . S
C1031 O1038 1.240 . S
C1031 O1039 1.252 . S
C1032 O1035 1.252 . S
C1032 O1036 1.260 . S
O1033 In1027 2.266 . S
O1033 C1030 1.252 . S
O1034 In1027 2.326 . S
O1034 C1030 1.260 . S
O1035 In1027 2.266 . S
O1035 C1032 1.252 . S
O1036 In1027 2.326 . S
O1036 C1032 1.260 . S
C1037 O1028 1.240 . S
C1037 O1029 1.252 . S
O1038 In1027 2.294 . S
O1038 C1031 1.240 . S
O1039 In1027 2.326 . S
O1039 C1031 1.252 . S
In1040 O1041 2.294 . S
In1040 O1042 2.326 . S
In1040 O1046 2.266 . S
In1040 O1047 2.326 . S
In1040 O1048 2.266 . S
In1040 O1049 2.326 . S
In1040 O1051 2.294 . S
In1040 O1052 2.326 . S
O1041 In1040 2.294 . S
O1041 C1050 1.240 . S
O1042 In1040 2.326 . S
O1042 C1050 1.252 . S
C1043 O1046 1.252 . S
C1043 O1047 1.260 . S
C1044 O1051 1.240 . S
C1044 O1052 1.252 . S
C1045 O1048 1.252 . S
C1045 O1049 1.260 . S
O1046 In1040 2.266 . S
O1046 C1043 1.252 . S
O1047 In1040 2.326 . S
O1047 C1043 1.260 . S
O1048 In1040 2.266 . S
O1048 C1045 1.252 . S
O1049 In1040 2.326 . S
O1049 C1045 1.260 . S
C1050 O1041 1.240 . S
C1050 O1042 1.252 . S
O1051 In1040 2.294 . S
O1051 C1044 1.240 . S
O1052 In1040 2.326 . S
O1052 C1044 1.252 . S
In1053 O1054 2.294 . S
In1053 O1055 2.326 . S
In1053 O1059 2.266 . S
In1053 O1060 2.326 . S
In1053 O1061 2.266 . S
In1053 O1062 2.326 . S
In1053 O1064 2.294 . S
In1053 O1065 2.326 . S
O1054 In1053 2.294 . S
O1054 C1063 1.240 . S
O1055 In1053 2.326 . S
O1055 C1063 1.252 . S
C1056 O1059 1.252 . S
C1056 O1060 1.260 . S
C1057 O1064 1.240 . S
C1057 O1065 1.252 . S
C1058 O1061 1.252 . S
C1058 O1062 1.260 . S
O1059 In1053 2.266 . S
O1059 C1056 1.252 . S
O1060 In1053 2.326 . S
O1060 C1056 1.260 . S
O1061 In1053 2.266 . S
O1061 C1058 1.252 . S
O1062 In1053 2.326 . S
O1062 C1058 1.260 . S
C1063 O1054 1.240 . S
C1063 O1055 1.252 . S
O1064 In1053 2.294 . S
O1064 C1057 1.240 . S
O1065 In1053 2.326 . S
O1065 C1057 1.252 . S
In1066 O1067 2.294 . S
In1066 O1068 2.326 . S
In1066 O1072 2.266 . S
In1066 O1073 2.326 . S
In1066 O1074 2.266 . S
In1066 O1075 2.326 . S
In1066 O1077 2.294 . S
In1066 O1078 2.326 . S
O1067 In1066 2.294 . S
O1067 C1076 1.240 . S
O1068 In1066 2.326 . S
O1068 C1076 1.252 . S
C1069 O1072 1.252 . S
C1069 O1073 1.260 . S
C1070 O1077 1.240 . S
C1070 O1078 1.252 . S
C1071 O1074 1.252 . S
C1071 O1075 1.260 . S
O1072 In1066 2.266 . S
O1072 C1069 1.252 . S
O1073 In1066 2.326 . S
O1073 C1069 1.260 . S
O1074 In1066 2.266 . S
O1074 C1071 1.252 . S
O1075 In1066 2.326 . S
O1075 C1071 1.260 . S
C1076 O1067 1.240 . S
C1076 O1068 1.252 . S
O1077 In1066 2.294 . S
O1077 C1070 1.240 . S
O1078 In1066 2.326 . S
O1078 C1070 1.252 . S
In1079 O1080 2.294 . S
In1079 O1081 2.326 . S
In1079 O1085 2.266 . S
In1079 O1086 2.326 . S
In1079 O1087 2.266 . S
In1079 O1088 2.326 . S
In1079 O1090 2.294 . S
In1079 O1091 2.326 . S
O1080 In1079 2.294 . S
O1080 C1089 1.240 . S
O1081 In1079 2.326 . S
O1081 C1089 1.252 . S
C1082 O1085 1.252 . S
C1082 O1086 1.260 . S
C1083 O1090 1.240 . S
C1083 O1091 1.252 . S
C1084 O1087 1.252 . S
C1084 O1088 1.260 . S
O1085 In1079 2.266 . S
O1085 C1082 1.252 . S
O1086 In1079 2.326 . S
O1086 C1082 1.260 . S
O1087 In1079 2.266 . S
O1087 C1084 1.252 . S
O1088 In1079 2.326 . S
O1088 C1084 1.260 . S
C1089 O1080 1.240 . S
C1089 O1081 1.252 . S
O1090 In1079 2.294 . S
O1090 C1083 1.240 . S
O1091 In1079 2.326 . S
O1091 C1083 1.252 . S
In1092 O1093 2.294 . S
In1092 O1094 2.326 . S
In1092 O1098 2.266 . S
In1092 O1099 2.326 . S
In1092 O1100 2.266 . S
In1092 O1101 2.326 . S
In1092 O1103 2.294 . S
In1092 O1104 2.326 . S
O1093 In1092 2.294 . S
O1093 C1102 1.240 . S
O1094 In1092 2.326 . S
O1094 C1102 1.252 . S
C1095 O1098 1.252 . S
C1095 O1099 1.260 . S
C1096 O1103 1.240 . S
C1096 O1104 1.252 . S
C1097 O1100 1.252 . S
C1097 O1101 1.260 . S
O1098 In1092 2.266 . S
O1098 C1095 1.252 . S
O1099 In1092 2.326 . S
O1099 C1095 1.260 . S
O1100 In1092 2.266 . S
O1100 C1097 1.252 . S
O1101 In1092 2.326 . S
O1101 C1097 1.260 . S
C1102 O1093 1.240 . S
C1102 O1094 1.252 . S
O1103 In1092 2.294 . S
O1103 C1096 1.240 . S
O1104 In1092 2.326 . S
O1104 C1096 1.252 . S
In1105 O1106 2.294 . S
In1105 O1107 2.326 . S
In1105 O1111 2.266 . S
In1105 O1112 2.326 . S
In1105 O1113 2.266 . S
In1105 O1114 2.326 . S
In1105 O1116 2.294 . S
In1105 O1117 2.326 . S
O1106 In1105 2.294 . S
O1106 C1115 1.240 . S
O1107 In1105 2.326 . S
O1107 C1115 1.252 . S
C1108 O1111 1.252 . S
C1108 O1112 1.260 . S
C1109 O1116 1.240 . S
C1109 O1117 1.252 . S
C1110 O1113 1.252 . S
C1110 O1114 1.260 . S
O1111 In1105 2.266 . S
O1111 C1108 1.252 . S
O1112 In1105 2.326 . S
O1112 C1108 1.260 . S
O1113 In1105 2.266 . S
O1113 C1110 1.252 . S
O1114 In1105 2.326 . S
O1114 C1110 1.260 . S
C1115 O1106 1.240 . S
C1115 O1107 1.252 . S
O1116 In1105 2.294 . S
O1116 C1109 1.240 . S
O1117 In1105 2.326 . S
O1117 C1109 1.252 . S
In1118 O1119 2.294 . S
In1118 O1120 2.326 . S
In1118 O1124 2.266 . S
In1118 O1125 2.326 . S
In1118 O1126 2.266 . S
In1118 O1127 2.326 . S
In1118 O1129 2.294 . S
In1118 O1130 2.326 . S
O1119 In1118 2.294 . S
O1119 C1128 1.240 . S
O1120 In1118 2.326 . S
O1120 C1128 1.252 . S
C1121 O1124 1.252 . S
C1121 O1125 1.260 . S
C1122 O1129 1.240 . S
C1122 O1130 1.252 . S
C1123 O1126 1.252 . S
C1123 O1127 1.260 . S
O1124 In1118 2.266 . S
O1124 C1121 1.252 . S
O1125 In1118 2.326 . S
O1125 C1121 1.260 . S
O1126 In1118 2.266 . S
O1126 C1123 1.252 . S
O1127 In1118 2.326 . S
O1127 C1123 1.260 . S
C1128 O1119 1.240 . S
C1128 O1120 1.252 . S
O1129 In1118 2.294 . S
O1129 C1122 1.240 . S
O1130 In1118 2.326 . S
O1130 C1122 1.252 . S
In1131 O1132 2.294 . S
In1131 O1133 2.326 . S
In1131 O1137 2.266 . S
In1131 O1138 2.326 . S
In1131 O1139 2.266 . S
In1131 O1140 2.326 . S
In1131 O1142 2.294 . S
In1131 O1143 2.326 . S
O1132 In1131 2.294 . S
O1132 C1141 1.240 . S
O1133 In1131 2.326 . S
O1133 C1141 1.252 . S
C1134 O1137 1.252 . S
C1134 O1138 1.260 . S
C1135 O1142 1.240 . S
C1135 O1143 1.252 . S
C1136 O1139 1.252 . S
C1136 O1140 1.260 . S
O1137 In1131 2.266 . S
O1137 C1134 1.252 . S
O1138 In1131 2.326 . S
O1138 C1134 1.260 . S
O1139 In1131 2.266 . S
O1139 C1136 1.252 . S
O1140 In1131 2.326 . S
O1140 C1136 1.260 . S
C1141 O1132 1.240 . S
C1141 O1133 1.252 . S
O1142 In1131 2.294 . S
O1142 C1135 1.240 . S
O1143 In1131 2.326 . S
O1143 C1135 1.252 . S
In1144 O1145 2.294 . S
In1144 O1146 2.326 . S
In1144 O1150 2.266 . S
In1144 O1151 2.326 . S
In1144 O1152 2.266 . S
In1144 O1153 2.326 . S
In1144 O1155 2.294 . S
In1144 O1156 2.326 . S
O1145 In1144 2.294 . S
O1145 C1154 1.240 . S
O1146 In1144 2.326 . S
O1146 C1154 1.252 . S
C1147 O1150 1.252 . S
C1147 O1151 1.260 . S
C1148 O1155 1.240 . S
C1148 O1156 1.252 . S
C1149 O1152 1.252 . S
C1149 O1153 1.260 . S
O1150 In1144 2.266 . S
O1150 C1147 1.252 . S
O1151 In1144 2.326 . S
O1151 C1147 1.260 . S
O1152 In1144 2.266 . S
O1152 C1149 1.252 . S
O1153 In1144 2.326 . S
O1153 C1149 1.260 . S
C1154 O1145 1.240 . S
C1154 O1146 1.252 . S
O1155 In1144 2.294 . S
O1155 C1148 1.240 . S
O1156 In1144 2.326 . S
O1156 C1148 1.252 . S
In1157 O1158 2.294 . S
In1157 O1159 2.326 . S
In1157 O1163 2.266 . S
In1157 O1164 2.326 . S
In1157 O1165 2.266 . S
In1157 O1166 2.326 . S
In1157 O1168 2.294 . S
In1157 O1169 2.326 . S
O1158 In1157 2.294 . S
O1158 C1167 1.240 . S
O1159 In1157 2.326 . S
O1159 C1167 1.252 . S
C1160 O1163 1.252 . S
C1160 O1164 1.260 . S
C1161 O1168 1.240 . S
C1161 O1169 1.252 . S
C1162 O1165 1.252 . S
C1162 O1166 1.260 . S
O1163 In1157 2.266 . S
O1163 C1160 1.252 . S
O1164 In1157 2.326 . S
O1164 C1160 1.260 . S
O1165 In1157 2.266 . S
O1165 C1162 1.252 . S
O1166 In1157 2.326 . S
O1166 C1162 1.260 . S
C1167 O1158 1.240 . S
C1167 O1159 1.252 . S
O1168 In1157 2.294 . S
O1168 C1161 1.240 . S
O1169 In1157 2.326 . S
O1169 C1161 1.252 . S
In1170 O1171 2.294 . S
In1170 O1172 2.326 . S
In1170 O1176 2.266 . S
In1170 O1177 2.326 . S
In1170 O1178 2.266 . S
In1170 O1179 2.326 . S
In1170 O1181 2.294 . S
In1170 O1182 2.326 . S
O1171 In1170 2.294 . S
O1171 C1180 1.240 . S
O1172 In1170 2.326 . S
O1172 C1180 1.252 . S
C1173 O1176 1.252 . S
C1173 O1177 1.260 . S
C1174 O1181 1.240 . S
C1174 O1182 1.252 . S
C1175 O1178 1.252 . S
C1175 O1179 1.260 . S
O1176 In1170 2.266 . S
O1176 C1173 1.252 . S
O1177 In1170 2.326 . S
O1177 C1173 1.260 . S
O1178 In1170 2.266 . S
O1178 C1175 1.252 . S
O1179 In1170 2.326 . S
O1179 C1175 1.260 . S
C1180 O1171 1.240 . S
C1180 O1172 1.252 . S
O1181 In1170 2.294 . S
O1181 C1174 1.240 . S
O1182 In1170 2.326 . S
O1182 C1174 1.252 . S
In1183 O1184 2.294 . S
In1183 O1185 2.326 . S
In1183 O1189 2.266 . S
In1183 O1190 2.326 . S
In1183 O1191 2.266 . S
In1183 O1192 2.326 . S
In1183 O1194 2.294 . S
In1183 O1195 2.326 . S
O1184 In1183 2.294 . S
O1184 C1193 1.240 . S
O1185 In1183 2.326 . S
O1185 C1193 1.252 . S
C1186 O1189 1.252 . S
C1186 O1190 1.260 . S
C1187 O1194 1.240 . S
C1187 O1195 1.252 . S
C1188 O1191 1.252 . S
C1188 O1192 1.260 . S
O1189 In1183 2.266 . S
O1189 C1186 1.252 . S
O1190 In1183 2.326 . S
O1190 C1186 1.260 . S
O1191 In1183 2.266 . S
O1191 C1188 1.252 . S
O1192 In1183 2.326 . S
O1192 C1188 1.260 . S
C1193 O1184 1.240 . S
C1193 O1185 1.252 . S
O1194 In1183 2.294 . S
O1194 C1187 1.240 . S
O1195 In1183 2.326 . S
O1195 C1187 1.252 . S
In1196 O1197 2.294 . S
In1196 O1198 2.326 . S
In1196 O1202 2.266 . S
In1196 O1203 2.326 . S
In1196 O1204 2.266 . S
In1196 O1205 2.326 . S
In1196 O1207 2.294 . S
In1196 O1208 2.326 . S
O1197 In1196 2.294 . S
O1197 C1206 1.240 . S
O1198 In1196 2.326 . S
O1198 C1206 1.252 . S
C1199 O1202 1.252 . S
C1199 O1203 1.260 . S
C1200 O1207 1.240 . S
C1200 O1208 1.252 . S
C1201 O1204 1.252 . S
C1201 O1205 1.260 . S
O1202 In1196 2.266 . S
O1202 C1199 1.252 . S
O1203 In1196 2.326 . S
O1203 C1199 1.260 . S
O1204 In1196 2.266 . S
O1204 C1201 1.252 . S
O1205 In1196 2.326 . S
O1205 C1201 1.260 . S
C1206 O1197 1.240 . S
C1206 O1198 1.252 . S
O1207 In1196 2.294 . S
O1207 C1200 1.240 . S
O1208 In1196 2.326 . S
O1208 C1200 1.252 . S
In1209 O1210 2.294 . S
In1209 O1211 2.326 . S
In1209 O1215 2.266 . S
In1209 O1216 2.326 . S
In1209 O1217 2.266 . S
In1209 O1218 2.326 . S
In1209 O1220 2.294 . S
In1209 O1221 2.326 . S
O1210 In1209 2.294 . S
O1210 C1219 1.240 . S
O1211 In1209 2.326 . S
O1211 C1219 1.252 . S
C1212 O1215 1.252 . S
C1212 O1216 1.260 . S
C1213 O1220 1.240 . S
C1213 O1221 1.252 . S
C1214 O1217 1.252 . S
C1214 O1218 1.260 . S
O1215 In1209 2.266 . S
O1215 C1212 1.252 . S
O1216 In1209 2.326 . S
O1216 C1212 1.260 . S
O1217 In1209 2.266 . S
O1217 C1214 1.252 . S
O1218 In1209 2.326 . S
O1218 C1214 1.260 . S
C1219 O1210 1.240 . S
C1219 O1211 1.252 . S
O1220 In1209 2.294 . S
O1220 C1213 1.240 . S
O1221 In1209 2.326 . S
O1221 C1213 1.252 . S
In1222 O1223 2.294 . S
In1222 O1224 2.326 . S
In1222 O1228 2.266 . S
In1222 O1229 2.326 . S
In1222 O1230 2.266 . S
In1222 O1231 2.326 . S
In1222 O1233 2.294 . S
In1222 O1234 2.326 . S
O1223 In1222 2.294 . S
O1223 C1232 1.240 . S
O1224 In1222 2.326 . S
O1224 C1232 1.252 . S
C1225 O1228 1.252 . S
C1225 O1229 1.260 . S
C1226 O1233 1.240 . S
C1226 O1234 1.252 . S
C1227 O1230 1.252 . S
C1227 O1231 1.260 . S
O1228 In1222 2.266 . S
O1228 C1225 1.252 . S
O1229 In1222 2.326 . S
O1229 C1225 1.260 . S
O1230 In1222 2.266 . S
O1230 C1227 1.252 . S
O1231 In1222 2.326 . S
O1231 C1227 1.260 . S
C1232 O1223 1.240 . S
C1232 O1224 1.252 . S
O1233 In1222 2.294 . S
O1233 C1226 1.240 . S
O1234 In1222 2.326 . S
O1234 C1226 1.252 . S
In1235 O1236 2.294 . S
In1235 O1237 2.326 . S
In1235 O1241 2.266 . S
In1235 O1242 2.326 . S
In1235 O1243 2.266 . S
In1235 O1244 2.326 . S
In1235 O1246 2.294 . S
In1235 O1247 2.326 . S
O1236 In1235 2.294 . S
O1236 C1245 1.240 . S
O1237 In1235 2.326 . S
O1237 C1245 1.252 . S
C1238 O1241 1.252 . S
C1238 O1242 1.260 . S
C1239 O1246 1.240 . S
C1239 O1247 1.252 . S
C1240 O1243 1.252 . S
C1240 O1244 1.260 . S
O1241 In1235 2.266 . S
O1241 C1238 1.252 . S
O1242 In1235 2.326 . S
O1242 C1238 1.260 . S
O1243 In1235 2.266 . S
O1243 C1240 1.252 . S
O1244 In1235 2.326 . S
O1244 C1240 1.260 . S
C1245 O1236 1.240 . S
C1245 O1237 1.252 . S
O1246 In1235 2.294 . S
O1246 C1239 1.240 . S
O1247 In1235 2.326 . S
O1247 C1239 1.252 . S
H1248 C1254 0.930 . S
H1249 C1258 0.930 . S
H1250 C1263 0.929 . S
H1251 C1261 0.929 . S
H1252 C1256 0.929 . S
H1253 C1262 0.929 . S
C1254 H1248 0.930 . S
C1254 C1255 1.367 . S
C1254 C1262 1.378 . S
C1255 C1254 1.367 . S
C1255 C1263 1.433 . S
C1256 H1252 0.929 . S
C1256 C1258 1.378 . S
C1256 C1260 1.350 . S
C1257 C1260 1.463 . S
C1257 C1262 1.350 . S
C1257 N1265 1.427 . S
C1258 H1249 0.930 . S
C1258 C1256 1.378 . S
C1258 C1259 1.367 . S
C1259 C1258 1.367 . S
C1259 C1261 1.433 . S
C1260 C1256 1.350 . S
C1260 C1257 1.463 . S
C1260 N1264 1.427 . S
C1261 H1251 0.929 . S
C1261 C1259 1.433 . S
C1261 N1264 1.384 . S
C1262 H1253 0.929 . S
C1262 C1254 1.378 . S
C1262 C1257 1.350 . S
C1263 H1250 0.929 . S
C1263 C1255 1.433 . S
C1263 N1265 1.384 . S
N1264 C1260 1.427 . S
N1264 C1261 1.384 . S
N1265 C1257 1.427 . S
N1265 C1263 1.384 . S
H1266 C1272 0.930 . S
H1267 C1276 0.930 . S
H1268 C1281 0.929 . S
H1269 C1279 0.929 . S
H1270 C1274 0.929 . S
H1271 C1280 0.929 . S
C1272 H1266 0.930 . S
C1272 C1273 1.367 . S
C1272 C1280 1.378 . S
C1273 C1272 1.367 . S
C1273 C1281 1.433 . S
C1274 H1270 0.929 . S
C1274 C1276 1.378 . S
C1274 C1278 1.350 . S
C1275 C1278 1.463 . S
C1275 C1280 1.350 . S
C1275 N1283 1.427 . S
C1276 H1267 0.930 . S
C1276 C1274 1.378 . S
C1276 C1277 1.367 . S
C1277 C1276 1.367 . S
C1277 C1279 1.433 . S
C1278 C1274 1.350 . S
C1278 C1275 1.463 . S
C1278 N1282 1.427 . S
C1279 H1269 0.929 . S
C1279 C1277 1.433 . S
C1279 N1282 1.384 . S
C1280 H1271 0.929 . S
C1280 C1272 1.378 . S
C1280 C1275 1.350 . S
C1281 H1268 0.929 . S
C1281 C1273 1.433 . S
C1281 N1283 1.384 . S
N1282 C1278 1.427 . S
N1282 C1279 1.384 . S
N1283 C1275 1.427 . S
N1283 C1281 1.384 . S
H1284 C1290 0.930 . S
H1285 C1294 0.930 . S
H1286 C1299 0.929 . S
H1287 C1297 0.929 . S
H1288 C1292 0.929 . S
H1289 C1298 0.929 . S
C1290 H1284 0.930 . S
C1290 C1291 1.367 . S
C1290 C1298 1.378 . S
C1291 C1290 1.367 . S
C1291 C1299 1.433 . S
C1292 H1288 0.929 . S
C1292 C1294 1.378 . S
C1292 C1296 1.350 . S
C1293 C1296 1.463 . S
C1293 C1298 1.350 . S
C1293 N1301 1.427 . S
C1294 H1285 0.930 . S
C1294 C1292 1.378 . S
C1294 C1295 1.367 . S
C1295 C1294 1.367 . S
C1295 C1297 1.433 . S
C1296 C1292 1.350 . S
C1296 C1293 1.463 . S
C1296 N1300 1.427 . S
C1297 H1287 0.929 . S
C1297 C1295 1.433 . S
C1297 N1300 1.384 . S
C1298 H1289 0.929 . S
C1298 C1290 1.378 . S
C1298 C1293 1.350 . S
C1299 H1286 0.929 . S
C1299 C1291 1.433 . S
C1299 N1301 1.384 . S
N1300 C1296 1.427 . S
N1300 C1297 1.384 . S
N1301 C1293 1.427 . S
N1301 C1299 1.384 . S
H1302 C1308 0.930 . S
H1303 C1312 0.930 . S
H1304 C1317 0.929 . S
H1305 C1315 0.929 . S
H1306 C1310 0.929 . S
H1307 C1316 0.929 . S
C1308 H1302 0.930 . S
C1308 C1309 1.367 . S
C1308 C1316 1.378 . S
C1309 C1308 1.367 . S
C1309 C1317 1.433 . S
C1310 H1306 0.929 . S
C1310 C1312 1.378 . S
C1310 C1314 1.350 . S
C1311 C1314 1.463 . S
C1311 C1316 1.350 . S
C1311 N1319 1.427 . S
C1312 H1303 0.930 . S
C1312 C1310 1.378 . S
C1312 C1313 1.367 . S
C1313 C1312 1.367 . S
C1313 C1315 1.433 . S
C1314 C1310 1.350 . S
C1314 C1311 1.463 . S
C1314 N1318 1.427 . S
C1315 H1305 0.929 . S
C1315 C1313 1.433 . S
C1315 N1318 1.384 . S
C1316 H1307 0.929 . S
C1316 C1308 1.378 . S
C1316 C1311 1.350 . S
C1317 H1304 0.929 . S
C1317 C1309 1.433 . S
C1317 N1319 1.384 . S
N1318 C1314 1.427 . S
N1318 C1315 1.384 . S
N1319 C1311 1.427 . S
N1319 C1317 1.384 . S
H1320 C1326 0.930 . S
H1321 C1330 0.930 . S
H1322 C1335 0.929 . S
H1323 C1333 0.929 . S
H1324 C1328 0.929 . S
H1325 C1334 0.929 . S
C1326 H1320 0.930 . S
C1326 C1327 1.367 . S
C1326 C1334 1.378 . S
C1327 C1326 1.367 . S
C1327 C1335 1.433 . S
C1328 H1324 0.929 . S
C1328 C1330 1.378 . S
C1328 C1332 1.350 . S
C1329 C1332 1.463 . S
C1329 C1334 1.350 . S
C1329 N1337 1.427 . S
C1330 H1321 0.930 . S
C1330 C1328 1.378 . S
C1330 C1331 1.367 . S
C1331 C1330 1.367 . S
C1331 C1333 1.433 . S
C1332 C1328 1.350 . S
C1332 C1329 1.463 . S
C1332 N1336 1.427 . S
C1333 H1323 0.929 . S
C1333 C1331 1.433 . S
C1333 N1336 1.384 . S
C1334 H1325 0.929 . S
C1334 C1326 1.378 . S
C1334 C1329 1.350 . S
C1335 H1322 0.929 . S
C1335 C1327 1.433 . S
C1335 N1337 1.384 . S
N1336 C1332 1.427 . S
N1336 C1333 1.384 . S
N1337 C1329 1.427 . S
N1337 C1335 1.384 . S
H1338 C1344 0.930 . S
H1339 C1348 0.930 . S
H1340 C1353 0.929 . S
H1341 C1351 0.929 . S
H1342 C1346 0.929 . S
H1343 C1352 0.929 . S
C1344 H1338 0.930 . S
C1344 C1345 1.367 . S
C1344 C1352 1.378 . S
C1345 C1344 1.367 . S
C1345 C1353 1.433 . S
C1346 H1342 0.929 . S
C1346 C1348 1.378 . S
C1346 C1350 1.350 . S
C1347 C1350 1.463 . S
C1347 C1352 1.350 . S
C1347 N1355 1.427 . S
C1348 H1339 0.930 . S
C1348 C1346 1.378 . S
C1348 C1349 1.367 . S
C1349 C1348 1.367 . S
C1349 C1351 1.433 . S
C1350 C1346 1.350 . S
C1350 C1347 1.463 . S
C1350 N1354 1.427 . S
C1351 H1341 0.929 . S
C1351 C1349 1.433 . S
C1351 N1354 1.384 . S
C1352 H1343 0.929 . S
C1352 C1344 1.378 . S
C1352 C1347 1.350 . S
C1353 H1340 0.929 . S
C1353 C1345 1.433 . S
C1353 N1355 1.384 . S
N1354 C1350 1.427 . S
N1354 C1351 1.384 . S
N1355 C1347 1.427 . S
N1355 C1353 1.384 . S
H1356 C1362 0.930 . S
H1357 C1366 0.930 . S
H1358 C1371 0.929 . S
H1359 C1369 0.929 . S
H1360 C1364 0.929 . S
H1361 C1370 0.929 . S
C1362 H1356 0.930 . S
C1362 C1363 1.367 . S
C1362 C1370 1.378 . S
C1363 C1362 1.367 . S
C1363 C1371 1.433 . S
C1364 H1360 0.929 . S
C1364 C1366 1.378 . S
C1364 C1368 1.350 . S
C1365 C1368 1.463 . S
C1365 C1370 1.350 . S
C1365 N1373 1.427 . S
C1366 H1357 0.930 . S
C1366 C1364 1.378 . S
C1366 C1367 1.367 . S
C1367 C1366 1.367 . S
C1367 C1369 1.433 . S
C1368 C1364 1.350 . S
C1368 C1365 1.463 . S
C1368 N1372 1.427 . S
C1369 H1359 0.929 . S
C1369 C1367 1.433 . S
C1369 N1372 1.384 . S
C1370 H1361 0.929 . S
C1370 C1362 1.378 . S
C1370 C1365 1.350 . S
C1371 H1358 0.929 . S
C1371 C1363 1.433 . S
C1371 N1373 1.384 . S
N1372 C1368 1.427 . S
N1372 C1369 1.384 . S
N1373 C1365 1.427 . S
N1373 C1371 1.384 . S
H1374 C1380 0.930 . S
H1375 C1384 0.930 . S
H1376 C1389 0.929 . S
H1377 C1387 0.929 . S
H1378 C1382 0.929 . S
H1379 C1388 0.929 . S
C1380 H1374 0.930 . S
C1380 C1381 1.367 . S
C1380 C1388 1.378 . S
C1381 C1380 1.367 . S
C1381 C1389 1.433 . S
C1382 H1378 0.929 . S
C1382 C1384 1.378 . S
C1382 C1386 1.350 . S
C1383 C1386 1.463 . S
C1383 C1388 1.350 . S
C1383 N1391 1.427 . S
C1384 H1375 0.930 . S
C1384 C1382 1.378 . S
C1384 C1385 1.367 . S
C1385 C1384 1.367 . S
C1385 C1387 1.433 . S
C1386 C1382 1.350 . S
C1386 C1383 1.463 . S
C1386 N1390 1.427 . S
C1387 H1377 0.929 . S
C1387 C1385 1.433 . S
C1387 N1390 1.384 . S
C1388 H1379 0.929 . S
C1388 C1380 1.378 . S
C1388 C1383 1.350 . S
C1389 H1376 0.929 . S
C1389 C1381 1.433 . S
C1389 N1391 1.384 . S
N1390 C1386 1.427 . S
N1390 C1387 1.384 . S
N1391 C1383 1.427 . S
N1391 C1389 1.384 . S
H1392 C1398 0.930 . S
H1393 C1402 0.930 . S
H1394 C1407 0.929 . S
H1395 C1405 0.929 . S
H1396 C1400 0.929 . S
H1397 C1406 0.929 . S
C1398 H1392 0.930 . S
C1398 C1399 1.367 . S
C1398 C1406 1.378 . S
C1399 C1398 1.367 . S
C1399 C1407 1.433 . S
C1400 H1396 0.929 . S
C1400 C1402 1.378 . S
C1400 C1404 1.350 . S
C1401 C1404 1.463 . S
C1401 C1406 1.350 . S
C1401 N1409 1.427 . S
C1402 H1393 0.930 . S
C1402 C1400 1.378 . S
C1402 C1403 1.367 . S
C1403 C1402 1.367 . S
C1403 C1405 1.433 . S
C1404 C1400 1.350 . S
C1404 C1401 1.463 . S
C1404 N1408 1.427 . S
C1405 H1395 0.929 . S
C1405 C1403 1.433 . S
C1405 N1408 1.384 . S
C1406 H1397 0.929 . S
C1406 C1398 1.378 . S
C1406 C1401 1.350 . S
C1407 H1394 0.929 . S
C1407 C1399 1.433 . S
C1407 N1409 1.384 . S
N1408 C1404 1.427 . S
N1408 C1405 1.384 . S
N1409 C1401 1.427 . S
N1409 C1407 1.384 . S
H1410 C1416 0.930 . S
H1411 C1420 0.930 . S
H1412 C1425 0.929 . S
H1413 C1423 0.929 . S
H1414 C1418 0.929 . S
H1415 C1424 0.929 . S
C1416 H1410 0.930 . S
C1416 C1417 1.367 . S
C1416 C1424 1.378 . S
C1417 C1416 1.367 . S
C1417 C1425 1.433 . S
C1418 H1414 0.929 . S
C1418 C1420 1.378 . S
C1418 C1422 1.350 . S
C1419 C1422 1.463 . S
C1419 C1424 1.350 . S
C1419 N1427 1.427 . S
C1420 H1411 0.930 . S
C1420 C1418 1.378 . S
C1420 C1421 1.367 . S
C1421 C1420 1.367 . S
C1421 C1423 1.433 . S
C1422 C1418 1.350 . S
C1422 C1419 1.463 . S
C1422 N1426 1.427 . S
C1423 H1413 0.929 . S
C1423 C1421 1.433 . S
C1423 N1426 1.384 . S
C1424 H1415 0.929 . S
C1424 C1416 1.378 . S
C1424 C1419 1.350 . S
C1425 H1412 0.929 . S
C1425 C1417 1.433 . S
C1425 N1427 1.384 . S
N1426 C1422 1.427 . S
N1426 C1423 1.384 . S
N1427 C1419 1.427 . S
N1427 C1425 1.384 . S
H1428 C1434 0.930 . S
H1429 C1438 0.930 . S
H1430 C1443 0.929 . S
H1431 C1441 0.929 . S
H1432 C1436 0.929 . S
H1433 C1442 0.929 . S
C1434 H1428 0.930 . S
C1434 C1435 1.367 . S
C1434 C1442 1.378 . S
C1435 C1434 1.367 . S
C1435 C1443 1.433 . S
C1436 H1432 0.929 . S
C1436 C1438 1.378 . S
C1436 C1440 1.350 . S
C1437 C1440 1.463 . S
C1437 C1442 1.350 . S
C1437 N1445 1.427 . S
C1438 H1429 0.930 . S
C1438 C1436 1.378 . S
C1438 C1439 1.367 . S
C1439 C1438 1.367 . S
C1439 C1441 1.433 . S
C1440 C1436 1.350 . S
C1440 C1437 1.463 . S
C1440 N1444 1.427 . S
C1441 H1431 0.929 . S
C1441 C1439 1.433 . S
C1441 N1444 1.384 . S
C1442 H1433 0.929 . S
C1442 C1434 1.378 . S
C1442 C1437 1.350 . S
C1443 H1430 0.929 . S
C1443 C1435 1.433 . S
C1443 N1445 1.384 . S
N1444 C1440 1.427 . S
N1444 C1441 1.384 . S
N1445 C1437 1.427 . S
N1445 C1443 1.384 . S
H1446 C1452 0.930 . S
H1447 C1456 0.930 . S
H1448 C1461 0.929 . S
H1449 C1459 0.929 . S
H1450 C1454 0.929 . S
H1451 C1460 0.929 . S
C1452 H1446 0.930 . S
C1452 C1453 1.367 . S
C1452 C1460 1.378 . S
C1453 C1452 1.367 . S
C1453 C1461 1.433 . S
C1454 H1450 0.929 . S
C1454 C1456 1.378 . S
C1454 C1458 1.350 . S
C1455 C1458 1.463 . S
C1455 C1460 1.350 . S
C1455 N1463 1.427 . S
C1456 H1447 0.930 . S
C1456 C1454 1.378 . S
C1456 C1457 1.367 . S
C1457 C1456 1.367 . S
C1457 C1459 1.433 . S
C1458 C1454 1.350 . S
C1458 C1455 1.463 . S
C1458 N1462 1.427 . S
C1459 H1449 0.929 . S
C1459 C1457 1.433 . S
C1459 N1462 1.384 . S
C1460 H1451 0.929 . S
C1460 C1452 1.378 . S
C1460 C1455 1.350 . S
C1461 H1448 0.929 . S
C1461 C1453 1.433 . S
C1461 N1463 1.384 . S
N1462 C1458 1.427 . S
N1462 C1459 1.384 . S
N1463 C1455 1.427 . S
N1463 C1461 1.384 . S
H1464 C1470 0.930 . S
H1465 C1474 0.930 . S
H1466 C1479 0.929 . S
H1467 C1477 0.929 . S
H1468 C1472 0.929 . S
H1469 C1478 0.929 . S
C1470 H1464 0.930 . S
C1470 C1471 1.367 . S
C1470 C1478 1.378 . S
C1471 C1470 1.367 . S
C1471 C1479 1.433 . S
C1472 H1468 0.929 . S
C1472 C1474 1.378 . S
C1472 C1476 1.350 . S
C1473 C1476 1.463 . S
C1473 C1478 1.350 . S
C1473 N1481 1.427 . S
C1474 H1465 0.930 . S
C1474 C1472 1.378 . S
C1474 C1475 1.367 . S
C1475 C1474 1.367 . S
C1475 C1477 1.433 . S
C1476 C1472 1.350 . S
C1476 C1473 1.463 . S
C1476 N1480 1.427 . S
C1477 H1467 0.929 . S
C1477 C1475 1.433 . S
C1477 N1480 1.384 . S
C1478 H1469 0.929 . S
C1478 C1470 1.378 . S
C1478 C1473 1.350 . S
C1479 H1466 0.929 . S
C1479 C1471 1.433 . S
C1479 N1481 1.384 . S
N1480 C1476 1.427 . S
N1480 C1477 1.384 . S
N1481 C1473 1.427 . S
N1481 C1479 1.384 . S
H1482 C1488 0.930 . S
H1483 C1492 0.930 . S
H1484 C1497 0.929 . S
H1485 C1495 0.929 . S
H1486 C1490 0.929 . S
H1487 C1496 0.929 . S
C1488 H1482 0.930 . S
C1488 C1489 1.367 . S
C1488 C1496 1.378 . S
C1489 C1488 1.367 . S
C1489 C1497 1.433 . S
C1490 H1486 0.929 . S
C1490 C1492 1.378 . S
C1490 C1494 1.350 . S
C1491 C1494 1.463 . S
C1491 C1496 1.350 . S
C1491 N1499 1.427 . S
C1492 H1483 0.930 . S
C1492 C1490 1.378 . S
C1492 C1493 1.367 . S
C1493 C1492 1.367 . S
C1493 C1495 1.433 . S
C1494 C1490 1.350 . S
C1494 C1491 1.463 . S
C1494 N1498 1.427 . S
C1495 H1485 0.929 . S
C1495 C1493 1.433 . S
C1495 N1498 1.384 . S
C1496 H1487 0.929 . S
C1496 C1488 1.378 . S
C1496 C1491 1.350 . S
C1497 H1484 0.929 . S
C1497 C1489 1.433 . S
C1497 N1499 1.384 . S
N1498 C1494 1.427 . S
N1498 C1495 1.384 . S
N1499 C1491 1.427 . S
N1499 C1497 1.384 . S
H1500 C1506 0.930 . S
H1501 C1510 0.930 . S
H1502 C1515 0.929 . S
H1503 C1513 0.929 . S
H1504 C1508 0.929 . S
H1505 C1514 0.929 . S
C1506 H1500 0.930 . S
C1506 C1507 1.367 . S
C1506 C1514 1.378 . S
C1507 C1506 1.367 . S
C1507 C1515 1.433 . S
C1508 H1504 0.929 . S
C1508 C1510 1.378 . S
C1508 C1512 1.350 . S
C1509 C1512 1.463 . S
C1509 C1514 1.350 . S
C1509 N1517 1.427 . S
C1510 H1501 0.930 . S
C1510 C1508 1.378 . S
C1510 C1511 1.367 . S
C1511 C1510 1.367 . S
C1511 C1513 1.433 . S
C1512 C1508 1.350 . S
C1512 C1509 1.463 . S
C1512 N1516 1.427 . S
C1513 H1503 0.929 . S
C1513 C1511 1.433 . S
C1513 N1516 1.384 . S
C1514 H1505 0.929 . S
C1514 C1506 1.378 . S
C1514 C1509 1.350 . S
C1515 H1502 0.929 . S
C1515 C1507 1.433 . S
C1515 N1517 1.384 . S
N1516 C1512 1.427 . S
N1516 C1513 1.384 . S
N1517 C1509 1.427 . S
N1517 C1515 1.384 . S
H1518 C1524 0.930 . S
H1519 C1528 0.930 . S
H1520 C1533 0.929 . S
H1521 C1531 0.929 . S
H1522 C1526 0.929 . S
H1523 C1532 0.929 . S
C1524 H1518 0.930 . S
C1524 C1525 1.367 . S
C1524 C1532 1.378 . S
C1525 C1524 1.367 . S
C1525 C1533 1.433 . S
C1526 H1522 0.929 . S
C1526 C1528 1.378 . S
C1526 C1530 1.350 . S
C1527 C1530 1.463 . S
C1527 C1532 1.350 . S
C1527 N1535 1.427 . S
C1528 H1519 0.930 . S
C1528 C1526 1.378 . S
C1528 C1529 1.367 . S
C1529 C1528 1.367 . S
C1529 C1531 1.433 . S
C1530 C1526 1.350 . S
C1530 C1527 1.463 . S
C1530 N1534 1.427 . S
C1531 H1521 0.929 . S
C1531 C1529 1.433 . S
C1531 N1534 1.384 . S
C1532 H1523 0.929 . S
C1532 C1524 1.378 . S
C1532 C1527 1.350 . S
C1533 H1520 0.929 . S
C1533 C1525 1.433 . S
C1533 N1535 1.384 . S
N1534 C1530 1.427 . S
N1534 C1531 1.384 . S
N1535 C1527 1.427 . S
N1535 C1533 1.384 . S
H1536 C1542 0.930 . S
H1537 C1546 0.930 . S
H1538 C1551 0.929 . S
H1539 C1549 0.929 . S
H1540 C1544 0.929 . S
H1541 C1550 0.929 . S
C1542 H1536 0.930 . S
C1542 C1543 1.367 . S
C1542 C1550 1.378 . S
C1543 C1542 1.367 . S
C1543 C1551 1.433 . S
C1544 H1540 0.929 . S
C1544 C1546 1.378 . S
C1544 C1548 1.350 . S
C1545 C1548 1.463 . S
C1545 C1550 1.350 . S
C1545 N1553 1.427 . S
C1546 H1537 0.930 . S
C1546 C1544 1.378 . S
C1546 C1547 1.367 . S
C1547 C1546 1.367 . S
C1547 C1549 1.433 . S
C1548 C1544 1.350 . S
C1548 C1545 1.463 . S
C1548 N1552 1.427 . S
C1549 H1539 0.929 . S
C1549 C1547 1.433 . S
C1549 N1552 1.384 . S
C1550 H1541 0.929 . S
C1550 C1542 1.378 . S
C1550 C1545 1.350 . S
C1551 H1538 0.929 . S
C1551 C1543 1.433 . S
C1551 N1553 1.384 . S
N1552 C1548 1.427 . S
N1552 C1549 1.384 . S
N1553 C1545 1.427 . S
N1553 C1551 1.384 . S
H1554 C1560 0.930 . S
H1555 C1564 0.930 . S
H1556 C1569 0.929 . S
H1557 C1567 0.929 . S
H1558 C1562 0.929 . S
H1559 C1568 0.929 . S
C1560 H1554 0.930 . S
C1560 C1561 1.367 . S
C1560 C1568 1.378 . S
C1561 C1560 1.367 . S
C1561 C1569 1.433 . S
C1562 H1558 0.929 . S
C1562 C1564 1.378 . S
C1562 C1566 1.350 . S
C1563 C1566 1.463 . S
C1563 C1568 1.350 . S
C1563 N1571 1.427 . S
C1564 H1555 0.930 . S
C1564 C1562 1.378 . S
C1564 C1565 1.367 . S
C1565 C1564 1.367 . S
C1565 C1567 1.433 . S
C1566 C1562 1.350 . S
C1566 C1563 1.463 . S
C1566 N1570 1.427 . S
C1567 H1557 0.929 . S
C1567 C1565 1.433 . S
C1567 N1570 1.384 . S
C1568 H1559 0.929 . S
C1568 C1560 1.378 . S
C1568 C1563 1.350 . S
C1569 H1556 0.929 . S
C1569 C1561 1.433 . S
C1569 N1571 1.384 . S
N1570 C1566 1.427 . S
N1570 C1567 1.384 . S
N1571 C1563 1.427 . S
N1571 C1569 1.384 . S
H1572 C1578 0.930 . S
H1573 C1582 0.930 . S
H1574 C1587 0.929 . S
H1575 C1585 0.929 . S
H1576 C1580 0.929 . S
H1577 C1586 0.929 . S
C1578 H1572 0.930 . S
C1578 C1579 1.367 . S
C1578 C1586 1.378 . S
C1579 C1578 1.367 . S
C1579 C1587 1.433 . S
C1580 H1576 0.929 . S
C1580 C1582 1.378 . S
C1580 C1584 1.350 . S
C1581 C1584 1.463 . S
C1581 C1586 1.350 . S
C1581 N1589 1.427 . S
C1582 H1573 0.930 . S
C1582 C1580 1.378 . S
C1582 C1583 1.367 . S
C1583 C1582 1.367 . S
C1583 C1585 1.433 . S
C1584 C1580 1.350 . S
C1584 C1581 1.463 . S
C1584 N1588 1.427 . S
C1585 H1575 0.929 . S
C1585 C1583 1.433 . S
C1585 N1588 1.384 . S
C1586 H1577 0.929 . S
C1586 C1578 1.378 . S
C1586 C1581 1.350 . S
C1587 H1574 0.929 . S
C1587 C1579 1.433 . S
C1587 N1589 1.384 . S
N1588 C1584 1.427 . S
N1588 C1585 1.384 . S
N1589 C1581 1.427 . S
N1589 C1587 1.384 . S
H1590 C1596 0.930 . S
H1591 C1600 0.930 . S
H1592 C1605 0.929 . S
H1593 C1603 0.929 . S
H1594 C1598 0.929 . S
H1595 C1604 0.929 . S
C1596 H1590 0.930 . S
C1596 C1597 1.367 . S
C1596 C1604 1.378 . S
C1597 C1596 1.367 . S
C1597 C1605 1.433 . S
C1598 H1594 0.929 . S
C1598 C1600 1.378 . S
C1598 C1602 1.350 . S
C1599 C1602 1.463 . S
C1599 C1604 1.350 . S
C1599 N1607 1.427 . S
C1600 H1591 0.930 . S
C1600 C1598 1.378 . S
C1600 C1601 1.367 . S
C1601 C1600 1.367 . S
C1601 C1603 1.433 . S
C1602 C1598 1.350 . S
C1602 C1599 1.463 . S
C1602 N1606 1.427 . S
C1603 H1593 0.929 . S
C1603 C1601 1.433 . S
C1603 N1606 1.384 . S
C1604 H1595 0.929 . S
C1604 C1596 1.378 . S
C1604 C1599 1.350 . S
C1605 H1592 0.929 . S
C1605 C1597 1.433 . S
C1605 N1607 1.384 . S
N1606 C1602 1.427 . S
N1606 C1603 1.384 . S
N1607 C1599 1.427 . S
N1607 C1605 1.384 . S
H1608 C1614 0.930 . S
H1609 C1618 0.930 . S
H1610 C1623 0.929 . S
H1611 C1621 0.929 . S
H1612 C1616 0.929 . S
H1613 C1622 0.929 . S
C1614 H1608 0.930 . S
C1614 C1615 1.367 . S
C1614 C1622 1.378 . S
C1615 C1614 1.367 . S
C1615 C1623 1.433 . S
C1616 H1612 0.929 . S
C1616 C1618 1.378 . S
C1616 C1620 1.350 . S
C1617 C1620 1.463 . S
C1617 C1622 1.350 . S
C1617 N1625 1.427 . S
C1618 H1609 0.930 . S
C1618 C1616 1.378 . S
C1618 C1619 1.367 . S
C1619 C1618 1.367 . S
C1619 C1621 1.433 . S
C1620 C1616 1.350 . S
C1620 C1617 1.463 . S
C1620 N1624 1.427 . S
C1621 H1611 0.929 . S
C1621 C1619 1.433 . S
C1621 N1624 1.384 . S
C1622 H1613 0.929 . S
C1622 C1614 1.378 . S
C1622 C1617 1.350 . S
C1623 H1610 0.929 . S
C1623 C1615 1.433 . S
C1623 N1625 1.384 . S
N1624 C1620 1.427 . S
N1624 C1621 1.384 . S
N1625 C1617 1.427 . S
N1625 C1623 1.384 . S
H1626 C1632 0.930 . S
H1627 C1636 0.930 . S
H1628 C1641 0.929 . S
H1629 C1639 0.929 . S
H1630 C1634 0.929 . S
H1631 C1640 0.929 . S
C1632 H1626 0.930 . S
C1632 C1633 1.367 . S
C1632 C1640 1.378 . S
C1633 C1632 1.367 . S
C1633 C1641 1.433 . S
C1634 H1630 0.929 . S
C1634 C1636 1.378 . S
C1634 C1638 1.350 . S
C1635 C1638 1.463 . S
C1635 C1640 1.350 . S
C1635 N1643 1.427 . S
C1636 H1627 0.930 . S
C1636 C1634 1.378 . S
C1636 C1637 1.367 . S
C1637 C1636 1.367 . S
C1637 C1639 1.433 . S
C1638 C1634 1.350 . S
C1638 C1635 1.463 . S
C1638 N1642 1.427 . S
C1639 H1629 0.929 . S
C1639 C1637 1.433 . S
C1639 N1642 1.384 . S
C1640 H1631 0.929 . S
C1640 C1632 1.378 . S
C1640 C1635 1.350 . S
C1641 H1628 0.929 . S
C1641 C1633 1.433 . S
C1641 N1643 1.384 . S
N1642 C1638 1.427 . S
N1642 C1639 1.384 . S
N1643 C1635 1.427 . S
N1643 C1641 1.384 . S
H1644 C1650 0.930 . S
H1645 C1654 0.930 . S
H1646 C1659 0.929 . S
H1647 C1657 0.929 . S
H1648 C1652 0.929 . S
H1649 C1658 0.929 . S
C1650 H1644 0.930 . S
C1650 C1651 1.367 . S
C1650 C1658 1.378 . S
C1651 C1650 1.367 . S
C1651 C1659 1.433 . S
C1652 H1648 0.929 . S
C1652 C1654 1.378 . S
C1652 C1656 1.350 . S
C1653 C1656 1.463 . S
C1653 C1658 1.350 . S
C1653 N1661 1.427 . S
C1654 H1645 0.930 . S
C1654 C1652 1.378 . S
C1654 C1655 1.367 . S
C1655 C1654 1.367 . S
C1655 C1657 1.433 . S
C1656 C1652 1.350 . S
C1656 C1653 1.463 . S
C1656 N1660 1.427 . S
C1657 H1647 0.929 . S
C1657 C1655 1.433 . S
C1657 N1660 1.384 . S
C1658 H1649 0.929 . S
C1658 C1650 1.378 . S
C1658 C1653 1.350 . S
C1659 H1646 0.929 . S
C1659 C1651 1.433 . S
C1659 N1661 1.384 . S
N1660 C1656 1.427 . S
N1660 C1657 1.384 . S
N1661 C1653 1.427 . S
N1661 C1659 1.384 . S
H1662 C1668 0.930 . S
H1663 C1672 0.930 . S
H1664 C1677 0.929 . S
H1665 C1675 0.929 . S
H1666 C1670 0.929 . S
H1667 C1676 0.929 . S
C1668 H1662 0.930 . S
C1668 C1669 1.367 . S
C1668 C1676 1.378 . S
C1669 C1668 1.367 . S
C1669 C1677 1.433 . S
C1670 H1666 0.929 . S
C1670 C1672 1.378 . S
C1670 C1674 1.350 . S
C1671 C1674 1.463 . S
C1671 C1676 1.350 . S
C1671 N1679 1.427 . S
C1672 H1663 0.930 . S
C1672 C1670 1.378 . S
C1672 C1673 1.367 . S
C1673 C1672 1.367 . S
C1673 C1675 1.433 . S
C1674 C1670 1.350 . S
C1674 C1671 1.463 . S
C1674 N1678 1.427 . S
C1675 H1665 0.929 . S
C1675 C1673 1.433 . S
C1675 N1678 1.384 . S
C1676 H1667 0.929 . S
C1676 C1668 1.378 . S
C1676 C1671 1.350 . S
C1677 H1664 0.929 . S
C1677 C1669 1.433 . S
C1677 N1679 1.384 . S
N1678 C1674 1.427 . S
N1678 C1675 1.384 . S
N1679 C1671 1.427 . S
N1679 C1677 1.384 . S
H1680 C1686 0.930 . S
H1681 C1690 0.930 . S
H1682 C1695 0.929 . S
H1683 C1693 0.929 . S
H1684 C1688 0.929 . S
H1685 C1694 0.929 . S
C1686 H1680 0.930 . S
C1686 C1687 1.367 . S
C1686 C1694 1.378 . S
C1687 C1686 1.367 . S
C1687 C1695 1.433 . S
C1688 H1684 0.929 . S
C1688 C1690 1.378 . S
C1688 C1692 1.350 . S
C1689 C1692 1.463 . S
C1689 C1694 1.350 . S
C1689 N1697 1.427 . S
C1690 H1681 0.930 . S
C1690 C1688 1.378 . S
C1690 C1691 1.367 . S
C1691 C1690 1.367 . S
C1691 C1693 1.433 . S
C1692 C1688 1.350 . S
C1692 C1689 1.463 . S
C1692 N1696 1.427 . S
C1693 H1683 0.929 . S
C1693 C1691 1.433 . S
C1693 N1696 1.384 . S
C1694 H1685 0.929 . S
C1694 C1686 1.378 . S
C1694 C1689 1.350 . S
C1695 H1682 0.929 . S
C1695 C1687 1.433 . S
C1695 N1697 1.384 . S
N1696 C1692 1.427 . S
N1696 C1693 1.384 . S
N1697 C1689 1.427 . S
N1697 C1695 1.384 . S
H1698 C1704 0.930 . S
H1699 C1708 0.930 . S
H1700 C1713 0.929 . S
H1701 C1711 0.929 . S
H1702 C1706 0.929 . S
H1703 C1712 0.929 . S
C1704 H1698 0.930 . S
C1704 C1705 1.367 . S
C1704 C1712 1.378 . S
C1705 C1704 1.367 . S
C1705 C1713 1.433 . S
C1706 H1702 0.929 . S
C1706 C1708 1.378 . S
C1706 C1710 1.350 . S
C1707 C1710 1.463 . S
C1707 C1712 1.350 . S
C1707 N1715 1.427 . S
C1708 H1699 0.930 . S
C1708 C1706 1.378 . S
C1708 C1709 1.367 . S
C1709 C1708 1.367 . S
C1709 C1711 1.433 . S
C1710 C1706 1.350 . S
C1710 C1707 1.463 . S
C1710 N1714 1.427 . S
C1711 H1701 0.929 . S
C1711 C1709 1.433 . S
C1711 N1714 1.384 . S
C1712 H1703 0.929 . S
C1712 C1704 1.378 . S
C1712 C1707 1.350 . S
C1713 H1700 0.929 . S
C1713 C1705 1.433 . S
C1713 N1715 1.384 . S
N1714 C1710 1.427 . S
N1714 C1711 1.384 . S
N1715 C1707 1.427 . S
N1715 C1713 1.384 . S
H1716 C1722 0.930 . S
H1717 C1726 0.930 . S
H1718 C1731 0.929 . S
H1719 C1729 0.929 . S
H1720 C1724 0.929 . S
H1721 C1730 0.929 . S
C1722 H1716 0.930 . S
C1722 C1723 1.367 . S
C1722 C1730 1.378 . S
C1723 C1722 1.367 . S
C1723 C1731 1.433 . S
C1724 H1720 0.929 . S
C1724 C1726 1.378 . S
C1724 C1728 1.350 . S
C1725 C1728 1.463 . S
C1725 C1730 1.350 . S
C1725 N1733 1.427 . S
C1726 H1717 0.930 . S
C1726 C1724 1.378 . S
C1726 C1727 1.367 . S
C1727 C1726 1.367 . S
C1727 C1729 1.433 . S
C1728 C1724 1.350 . S
C1728 C1725 1.463 . S
C1728 N1732 1.427 . S
C1729 H1719 0.929 . S
C1729 C1727 1.433 . S
C1729 N1732 1.384 . S
C1730 H1721 0.929 . S
C1730 C1722 1.378 . S
C1730 C1725 1.350 . S
C1731 H1718 0.929 . S
C1731 C1723 1.433 . S
C1731 N1733 1.384 . S
N1732 C1728 1.427 . S
N1732 C1729 1.384 . S
N1733 C1725 1.427 . S
N1733 C1731 1.384 . S
H1734 C1740 0.930 . S
H1735 C1744 0.930 . S
H1736 C1749 0.929 . S
H1737 C1747 0.929 . S
H1738 C1742 0.929 . S
H1739 C1748 0.929 . S
C1740 H1734 0.930 . S
C1740 C1741 1.367 . S
C1740 C1748 1.378 . S
C1741 C1740 1.367 . S
C1741 C1749 1.433 . S
C1742 H1738 0.929 . S
C1742 C1744 1.378 . S
C1742 C1746 1.350 . S
C1743 C1746 1.463 . S
C1743 C1748 1.350 . S
C1743 N1751 1.427 . S
C1744 H1735 0.930 . S
C1744 C1742 1.378 . S
C1744 C1745 1.367 . S
C1745 C1744 1.367 . S
C1745 C1747 1.433 . S
C1746 C1742 1.350 . S
C1746 C1743 1.463 . S
C1746 N1750 1.427 . S
C1747 H1737 0.929 . S
C1747 C1745 1.433 . S
C1747 N1750 1.384 . S
C1748 H1739 0.929 . S
C1748 C1740 1.378 . S
C1748 C1743 1.350 . S
C1749 H1736 0.929 . S
C1749 C1741 1.433 . S
C1749 N1751 1.384 . S
N1750 C1746 1.427 . S
N1750 C1747 1.384 . S
N1751 C1743 1.427 . S
N1751 C1749 1.384 . S
H1752 C1758 0.930 . S
H1753 C1762 0.930 . S
H1754 C1767 0.929 . S
H1755 C1765 0.929 . S
H1756 C1760 0.929 . S
H1757 C1766 0.929 . S
C1758 H1752 0.930 . S
C1758 C1759 1.367 . S
C1758 C1766 1.378 . S
C1759 C1758 1.367 . S
C1759 C1767 1.433 . S
C1760 H1756 0.929 . S
C1760 C1762 1.378 . S
C1760 C1764 1.350 . S
C1761 C1764 1.463 . S
C1761 C1766 1.350 . S
C1761 N1769 1.427 . S
C1762 H1753 0.930 . S
C1762 C1760 1.378 . S
C1762 C1763 1.367 . S
C1763 C1762 1.367 . S
C1763 C1765 1.433 . S
C1764 C1760 1.350 . S
C1764 C1761 1.463 . S
C1764 N1768 1.427 . S
C1765 H1755 0.929 . S
C1765 C1763 1.433 . S
C1765 N1768 1.384 . S
C1766 H1757 0.929 . S
C1766 C1758 1.378 . S
C1766 C1761 1.350 . S
C1767 H1754 0.929 . S
C1767 C1759 1.433 . S
C1767 N1769 1.384 . S
N1768 C1764 1.427 . S
N1768 C1765 1.384 . S
N1769 C1761 1.427 . S
N1769 C1767 1.384 . S
H1770 C1776 0.930 . S
H1771 C1780 0.930 . S
H1772 C1785 0.929 . S
H1773 C1783 0.929 . S
H1774 C1778 0.929 . S
H1775 C1784 0.929 . S
C1776 H1770 0.930 . S
C1776 C1777 1.367 . S
C1776 C1784 1.378 . S
C1777 C1776 1.367 . S
C1777 C1785 1.433 . S
C1778 H1774 0.929 . S
C1778 C1780 1.378 . S
C1778 C1782 1.350 . S
C1779 C1782 1.463 . S
C1779 C1784 1.350 . S
C1779 N1787 1.427 . S
C1780 H1771 0.930 . S
C1780 C1778 1.378 . S
C1780 C1781 1.367 . S
C1781 C1780 1.367 . S
C1781 C1783 1.433 . S
C1782 C1778 1.350 . S
C1782 C1779 1.463 . S
C1782 N1786 1.427 . S
C1783 H1773 0.929 . S
C1783 C1781 1.433 . S
C1783 N1786 1.384 . S
C1784 H1775 0.929 . S
C1784 C1776 1.378 . S
C1784 C1779 1.350 . S
C1785 H1772 0.929 . S
C1785 C1777 1.433 . S
C1785 N1787 1.384 . S
N1786 C1782 1.427 . S
N1786 C1783 1.384 . S
N1787 C1779 1.427 . S
N1787 C1785 1.384 . S
H1788 C1794 0.930 . S
H1789 C1798 0.930 . S
H1790 C1803 0.929 . S
H1791 C1801 0.929 . S
H1792 C1796 0.929 . S
H1793 C1802 0.929 . S
C1794 H1788 0.930 . S
C1794 C1795 1.367 . S
C1794 C1802 1.378 . S
C1795 C1794 1.367 . S
C1795 C1803 1.433 . S
C1796 H1792 0.929 . S
C1796 C1798 1.378 . S
C1796 C1800 1.350 . S
C1797 C1800 1.463 . S
C1797 C1802 1.350 . S
C1797 N1805 1.427 . S
C1798 H1789 0.930 . S
C1798 C1796 1.378 . S
C1798 C1799 1.367 . S
C1799 C1798 1.367 . S
C1799 C1801 1.433 . S
C1800 C1796 1.350 . S
C1800 C1797 1.463 . S
C1800 N1804 1.427 . S
C1801 H1791 0.929 . S
C1801 C1799 1.433 . S
C1801 N1804 1.384 . S
C1802 H1793 0.929 . S
C1802 C1794 1.378 . S
C1802 C1797 1.350 . S
C1803 H1790 0.929 . S
C1803 C1795 1.433 . S
C1803 N1805 1.384 . S
N1804 C1800 1.427 . S
N1804 C1801 1.384 . S
N1805 C1797 1.427 . S
N1805 C1803 1.384 . S
H1806 C1812 0.930 . S
H1807 C1816 0.930 . S
H1808 C1821 0.929 . S
H1809 C1819 0.929 . S
H1810 C1814 0.929 . S
H1811 C1820 0.929 . S
C1812 H1806 0.930 . S
C1812 C1813 1.367 . S
C1812 C1820 1.378 . S
C1813 C1812 1.367 . S
C1813 C1821 1.433 . S
C1814 H1810 0.929 . S
C1814 C1816 1.378 . S
C1814 C1818 1.350 . S
C1815 C1818 1.463 . S
C1815 C1820 1.350 . S
C1815 N1823 1.427 . S
C1816 H1807 0.930 . S
C1816 C1814 1.378 . S
C1816 C1817 1.367 . S
C1817 C1816 1.367 . S
C1817 C1819 1.433 . S
C1818 C1814 1.350 . S
C1818 C1815 1.463 . S
C1818 N1822 1.427 . S
C1819 H1809 0.929 . S
C1819 C1817 1.433 . S
C1819 N1822 1.384 . S
C1820 H1811 0.929 . S
C1820 C1812 1.378 . S
C1820 C1815 1.350 . S
C1821 H1808 0.929 . S
C1821 C1813 1.433 . S
C1821 N1823 1.384 . S
N1822 C1818 1.427 . S
N1822 C1819 1.384 . S
N1823 C1815 1.427 . S
N1823 C1821 1.384 . S
H1824 C1830 0.930 . S
H1825 C1834 0.930 . S
H1826 C1839 0.929 . S
H1827 C1837 0.929 . S
H1828 C1832 0.929 . S
H1829 C1838 0.929 . S
C1830 H1824 0.930 . S
C1830 C1831 1.367 . S
C1830 C1838 1.378 . S
C1831 C1830 1.367 . S
C1831 C1839 1.433 . S
C1832 H1828 0.929 . S
C1832 C1834 1.378 . S
C1832 C1836 1.350 . S
C1833 C1836 1.463 . S
C1833 C1838 1.350 . S
C1833 N1841 1.427 . S
C1834 H1825 0.930 . S
C1834 C1832 1.378 . S
C1834 C1835 1.367 . S
C1835 C1834 1.367 . S
C1835 C1837 1.433 . S
C1836 C1832 1.350 . S
C1836 C1833 1.463 . S
C1836 N1840 1.427 . S
C1837 H1827 0.929 . S
C1837 C1835 1.433 . S
C1837 N1840 1.384 . S
C1838 H1829 0.929 . S
C1838 C1830 1.378 . S
C1838 C1833 1.350 . S
C1839 H1826 0.929 . S
C1839 C1831 1.433 . S
C1839 N1841 1.384 . S
N1840 C1836 1.427 . S
N1840 C1837 1.384 . S
N1841 C1833 1.427 . S
N1841 C1839 1.384 . S
H1842 C1848 0.930 . S
H1843 C1852 0.930 . S
H1844 C1857 0.929 . S
H1845 C1855 0.929 . S
H1846 C1850 0.929 . S
H1847 C1856 0.929 . S
C1848 H1842 0.930 . S
C1848 C1849 1.367 . S
C1848 C1856 1.378 . S
C1849 C1848 1.367 . S
C1849 C1857 1.433 . S
C1850 H1846 0.929 . S
C1850 C1852 1.378 . S
C1850 C1854 1.350 . S
C1851 C1854 1.463 . S
C1851 C1856 1.350 . S
C1851 N1859 1.427 . S
C1852 H1843 0.930 . S
C1852 C1850 1.378 . S
C1852 C1853 1.367 . S
C1853 C1852 1.367 . S
C1853 C1855 1.433 . S
C1854 C1850 1.350 . S
C1854 C1851 1.463 . S
C1854 N1858 1.427 . S
C1855 H1845 0.929 . S
C1855 C1853 1.433 . S
C1855 N1858 1.384 . S
C1856 H1847 0.929 . S
C1856 C1848 1.378 . S
C1856 C1851 1.350 . S
C1857 H1844 0.929 . S
C1857 C1849 1.433 . S
C1857 N1859 1.384 . S
N1858 C1854 1.427 . S
N1858 C1855 1.384 . S
N1859 C1851 1.427 . S
N1859 C1857 1.384 . S
H1860 C1866 0.930 . S
H1861 C1870 0.930 . S
H1862 C1875 0.929 . S
H1863 C1873 0.929 . S
H1864 C1868 0.929 . S
H1865 C1874 0.929 . S
C1866 H1860 0.930 . S
C1866 C1867 1.367 . S
C1866 C1874 1.378 . S
C1867 C1866 1.367 . S
C1867 C1875 1.433 . S
C1868 H1864 0.929 . S
C1868 C1870 1.378 . S
C1868 C1872 1.350 . S
C1869 C1872 1.463 . S
C1869 C1874 1.350 . S
C1869 N1877 1.427 . S
C1870 H1861 0.930 . S
C1870 C1868 1.378 . S
C1870 C1871 1.367 . S
C1871 C1870 1.367 . S
C1871 C1873 1.433 . S
C1872 C1868 1.350 . S
C1872 C1869 1.463 . S
C1872 N1876 1.427 . S
C1873 H1863 0.929 . S
C1873 C1871 1.433 . S
C1873 N1876 1.384 . S
C1874 H1865 0.929 . S
C1874 C1866 1.378 . S
C1874 C1869 1.350 . S
C1875 H1862 0.929 . S
C1875 C1867 1.433 . S
C1875 N1877 1.384 . S
N1876 C1872 1.427 . S
N1876 C1873 1.384 . S
N1877 C1869 1.427 . S
N1877 C1875 1.384 . S
H1878 C1884 0.930 . S
H1879 C1888 0.930 . S
H1880 C1893 0.929 . S
H1881 C1891 0.929 . S
H1882 C1886 0.929 . S
H1883 C1892 0.929 . S
C1884 H1878 0.930 . S
C1884 C1885 1.367 . S
C1884 C1892 1.378 . S
C1885 C1884 1.367 . S
C1885 C1893 1.433 . S
C1886 H1882 0.929 . S
C1886 C1888 1.378 . S
C1886 C1890 1.350 . S
C1887 C1890 1.463 . S
C1887 C1892 1.350 . S
C1887 N1895 1.427 . S
C1888 H1879 0.930 . S
C1888 C1886 1.378 . S
C1888 C1889 1.367 . S
C1889 C1888 1.367 . S
C1889 C1891 1.433 . S
C1890 C1886 1.350 . S
C1890 C1887 1.463 . S
C1890 N1894 1.427 . S
C1891 H1881 0.929 . S
C1891 C1889 1.433 . S
C1891 N1894 1.384 . S
C1892 H1883 0.929 . S
C1892 C1884 1.378 . S
C1892 C1887 1.350 . S
C1893 H1880 0.929 . S
C1893 C1885 1.433 . S
C1893 N1895 1.384 . S
N1894 C1890 1.427 . S
N1894 C1891 1.384 . S
N1895 C1887 1.427 . S
N1895 C1893 1.384 . S
H1896 C1902 0.930 . S
H1897 C1906 0.930 . S
H1898 C1911 0.929 . S
H1899 C1909 0.929 . S
H1900 C1904 0.929 . S
H1901 C1910 0.929 . S
C1902 H1896 0.930 . S
C1902 C1903 1.367 . S
C1902 C1910 1.378 . S
C1903 C1902 1.367 . S
C1903 C1911 1.433 . S
C1904 H1900 0.929 . S
C1904 C1906 1.378 . S
C1904 C1908 1.350 . S
C1905 C1908 1.463 . S
C1905 C1910 1.350 . S
C1905 N1913 1.427 . S
C1906 H1897 0.930 . S
C1906 C1904 1.378 . S
C1906 C1907 1.367 . S
C1907 C1906 1.367 . S
C1907 C1909 1.433 . S
C1908 C1904 1.350 . S
C1908 C1905 1.463 . S
C1908 N1912 1.427 . S
C1909 H1899 0.929 . S
C1909 C1907 1.433 . S
C1909 N1912 1.384 . S
C1910 H1901 0.929 . S
C1910 C1902 1.378 . S
C1910 C1905 1.350 . S
C1911 H1898 0.929 . S
C1911 C1903 1.433 . S
C1911 N1913 1.384 . S
N1912 C1908 1.427 . S
N1912 C1909 1.384 . S
N1913 C1905 1.427 . S
N1913 C1911 1.384 . S
H1914 C1920 0.930 . S
H1915 C1924 0.930 . S
H1916 C1929 0.929 . S
H1917 C1927 0.929 . S
H1918 C1922 0.929 . S
H1919 C1928 0.929 . S
C1920 H1914 0.930 . S
C1920 C1921 1.367 . S
C1920 C1928 1.378 . S
C1921 C1920 1.367 . S
C1921 C1929 1.433 . S
C1922 H1918 0.929 . S
C1922 C1924 1.378 . S
C1922 C1926 1.350 . S
C1923 C1926 1.463 . S
C1923 C1928 1.350 . S
C1923 N1931 1.427 . S
C1924 H1915 0.930 . S
C1924 C1922 1.378 . S
C1924 C1925 1.367 . S
C1925 C1924 1.367 . S
C1925 C1927 1.433 . S
C1926 C1922 1.350 . S
C1926 C1923 1.463 . S
C1926 N1930 1.427 . S
C1927 H1917 0.929 . S
C1927 C1925 1.433 . S
C1927 N1930 1.384 . S
C1928 H1919 0.929 . S
C1928 C1920 1.378 . S
C1928 C1923 1.350 . S
C1929 H1916 0.929 . S
C1929 C1921 1.433 . S
C1929 N1931 1.384 . S
N1930 C1926 1.427 . S
N1930 C1927 1.384 . S
N1931 C1923 1.427 . S
N1931 C1929 1.384 . S
H1932 C1938 0.930 . S
H1933 C1942 0.930 . S
H1934 C1947 0.929 . S
H1935 C1945 0.929 . S
H1936 C1940 0.929 . S
H1937 C1946 0.929 . S
C1938 H1932 0.930 . S
C1938 C1939 1.367 . S
C1938 C1946 1.378 . S
C1939 C1938 1.367 . S
C1939 C1947 1.433 . S
C1940 H1936 0.929 . S
C1940 C1942 1.378 . S
C1940 C1944 1.350 . S
C1941 C1944 1.463 . S
C1941 C1946 1.350 . S
C1941 N1949 1.427 . S
C1942 H1933 0.930 . S
C1942 C1940 1.378 . S
C1942 C1943 1.367 . S
C1943 C1942 1.367 . S
C1943 C1945 1.433 . S
C1944 C1940 1.350 . S
C1944 C1941 1.463 . S
C1944 N1948 1.427 . S
C1945 H1935 0.929 . S
C1945 C1943 1.433 . S
C1945 N1948 1.384 . S
C1946 H1937 0.929 . S
C1946 C1938 1.378 . S
C1946 C1941 1.350 . S
C1947 H1934 0.929 . S
C1947 C1939 1.433 . S
C1947 N1949 1.384 . S
N1948 C1944 1.427 . S
N1948 C1945 1.384 . S
N1949 C1941 1.427 . S
N1949 C1947 1.384 . S
H1950 C1956 0.930 . S
H1951 C1960 0.930 . S
H1952 C1965 0.929 . S
H1953 C1963 0.929 . S
H1954 C1958 0.929 . S
H1955 C1964 0.929 . S
C1956 H1950 0.930 . S
C1956 C1957 1.367 . S
C1956 C1964 1.378 . S
C1957 C1956 1.367 . S
C1957 C1965 1.433 . S
C1958 H1954 0.929 . S
C1958 C1960 1.378 . S
C1958 C1962 1.350 . S
C1959 C1962 1.463 . S
C1959 C1964 1.350 . S
C1959 N1967 1.427 . S
C1960 H1951 0.930 . S
C1960 C1958 1.378 . S
C1960 C1961 1.367 . S
C1961 C1960 1.367 . S
C1961 C1963 1.433 . S
C1962 C1958 1.350 . S
C1962 C1959 1.463 . S
C1962 N1966 1.427 . S
C1963 H1953 0.929 . S
C1963 C1961 1.433 . S
C1963 N1966 1.384 . S
C1964 H1955 0.929 . S
C1964 C1956 1.378 . S
C1964 C1959 1.350 . S
C1965 H1952 0.929 . S
C1965 C1957 1.433 . S
C1965 N1967 1.384 . S
N1966 C1962 1.427 . S
N1966 C1963 1.384 . S
N1967 C1959 1.427 . S
N1967 C1965 1.384 . S
H1968 C1974 0.930 . S
H1969 C1978 0.930 . S
H1970 C1983 0.929 . S
H1971 C1981 0.929 . S
H1972 C1976 0.929 . S
H1973 C1982 0.929 . S
C1974 H1968 0.930 . S
C1974 C1975 1.367 . S
C1974 C1982 1.378 . S
C1975 C1974 1.367 . S
C1975 C1983 1.433 . S
C1976 H1972 0.929 . S
C1976 C1978 1.378 . S
C1976 C1980 1.350 . S
C1977 C1980 1.463 . S
C1977 C1982 1.350 . S
C1977 N1985 1.427 . S
C1978 H1969 0.930 . S
C1978 C1976 1.378 . S
C1978 C1979 1.367 . S
C1979 C1978 1.367 . S
C1979 C1981 1.433 . S
C1980 C1976 1.350 . S
C1980 C1977 1.463 . S
C1980 N1984 1.427 . S
C1981 H1971 0.929 . S
C1981 C1979 1.433 . S
C1981 N1984 1.384 . S
C1982 H1973 0.929 . S
C1982 C1974 1.378 . S
C1982 C1977 1.350 . S
C1983 H1970 0.929 . S
C1983 C1975 1.433 . S
C1983 N1985 1.384 . S
N1984 C1980 1.427 . S
N1984 C1981 1.384 . S
N1985 C1977 1.427 . S
N1985 C1983 1.384 . S
H1986 C1992 0.930 . S
H1987 C1996 0.930 . S
H1988 C2001 0.929 . S
H1989 C1999 0.929 . S
H1990 C1994 0.929 . S
H1991 C2000 0.929 . S
C1992 H1986 0.930 . S
C1992 C1993 1.367 . S
C1992 C2000 1.378 . S
C1993 C1992 1.367 . S
C1993 C2001 1.433 . S
C1994 H1990 0.929 . S
C1994 C1996 1.378 . S
C1994 C1998 1.350 . S
C1995 C1998 1.463 . S
C1995 C2000 1.350 . S
C1995 N2003 1.427 . S
C1996 H1987 0.930 . S
C1996 C1994 1.378 . S
C1996 C1997 1.367 . S
C1997 C1996 1.367 . S
C1997 C1999 1.433 . S
C1998 C1994 1.350 . S
C1998 C1995 1.463 . S
C1998 N2002 1.427 . S
C1999 H1989 0.929 . S
C1999 C1997 1.433 . S
C1999 N2002 1.384 . S
C2000 H1991 0.929 . S
C2000 C1992 1.378 . S
C2000 C1995 1.350 . S
C2001 H1988 0.929 . S
C2001 C1993 1.433 . S
C2001 N2003 1.384 . S
N2002 C1998 1.427 . S
N2002 C1999 1.384 . S
N2003 C1995 1.427 . S
N2003 C2001 1.384 . S
H2004 C2010 0.930 . S
H2005 C2014 0.930 . S
H2006 C2019 0.929 . S
H2007 C2017 0.929 . S
H2008 C2012 0.929 . S
H2009 C2018 0.929 . S
C2010 H2004 0.930 . S
C2010 C2011 1.367 . S
C2010 C2018 1.378 . S
C2011 C2010 1.367 . S
C2011 C2019 1.433 . S
C2012 H2008 0.929 . S
C2012 C2014 1.378 . S
C2012 C2016 1.350 . S
C2013 C2016 1.463 . S
C2013 C2018 1.350 . S
C2013 N2021 1.427 . S
C2014 H2005 0.930 . S
C2014 C2012 1.378 . S
C2014 C2015 1.367 . S
C2015 C2014 1.367 . S
C2015 C2017 1.433 . S
C2016 C2012 1.350 . S
C2016 C2013 1.463 . S
C2016 N2020 1.427 . S
C2017 H2007 0.929 . S
C2017 C2015 1.433 . S
C2017 N2020 1.384 . S
C2018 H2009 0.929 . S
C2018 C2010 1.378 . S
C2018 C2013 1.350 . S
C2019 H2006 0.929 . S
C2019 C2011 1.433 . S
C2019 N2021 1.384 . S
N2020 C2016 1.427 . S
N2020 C2017 1.384 . S
N2021 C2013 1.427 . S
N2021 C2019 1.384 . S
H2022 C2028 0.930 . S
H2023 C2032 0.930 . S
H2024 C2037 0.929 . S
H2025 C2035 0.929 . S
H2026 C2030 0.929 . S
H2027 C2036 0.929 . S
C2028 H2022 0.930 . S
C2028 C2029 1.367 . S
C2028 C2036 1.378 . S
C2029 C2028 1.367 . S
C2029 C2037 1.433 . S
C2030 H2026 0.929 . S
C2030 C2032 1.378 . S
C2030 C2034 1.350 . S
C2031 C2034 1.463 . S
C2031 C2036 1.350 . S
C2031 N2039 1.427 . S
C2032 H2023 0.930 . S
C2032 C2030 1.378 . S
C2032 C2033 1.367 . S
C2033 C2032 1.367 . S
C2033 C2035 1.433 . S
C2034 C2030 1.350 . S
C2034 C2031 1.463 . S
C2034 N2038 1.427 . S
C2035 H2025 0.929 . S
C2035 C2033 1.433 . S
C2035 N2038 1.384 . S
C2036 H2027 0.929 . S
C2036 C2028 1.378 . S
C2036 C2031 1.350 . S
C2037 H2024 0.929 . S
C2037 C2029 1.433 . S
C2037 N2039 1.384 . S
N2038 C2034 1.427 . S
N2038 C2035 1.384 . S
N2039 C2031 1.427 . S
N2039 C2037 1.384 . S
H2040 C2046 0.930 . S
H2041 C2050 0.930 . S
H2042 C2055 0.929 . S
H2043 C2053 0.929 . S
H2044 C2048 0.929 . S
H2045 C2054 0.929 . S
C2046 H2040 0.930 . S
C2046 C2047 1.367 . S
C2046 C2054 1.378 . S
C2047 C2046 1.367 . S
C2047 C2055 1.433 . S
C2048 H2044 0.929 . S
C2048 C2050 1.378 . S
C2048 C2052 1.350 . S
C2049 C2052 1.463 . S
C2049 C2054 1.350 . S
C2049 N2057 1.427 . S
C2050 H2041 0.930 . S
C2050 C2048 1.378 . S
C2050 C2051 1.367 . S
C2051 C2050 1.367 . S
C2051 C2053 1.433 . S
C2052 C2048 1.350 . S
C2052 C2049 1.463 . S
C2052 N2056 1.427 . S
C2053 H2043 0.929 . S
C2053 C2051 1.433 . S
C2053 N2056 1.384 . S
C2054 H2045 0.929 . S
C2054 C2046 1.378 . S
C2054 C2049 1.350 . S
C2055 H2042 0.929 . S
C2055 C2047 1.433 . S
C2055 N2057 1.384 . S
N2056 C2052 1.427 . S
N2056 C2053 1.384 . S
N2057 C2049 1.427 . S
N2057 C2055 1.384 . S
H2058 C2064 0.930 . S
H2059 C2068 0.930 . S
H2060 C2073 0.929 . S
H2061 C2071 0.929 . S
H2062 C2066 0.929 . S
H2063 C2072 0.929 . S
C2064 H2058 0.930 . S
C2064 C2065 1.367 . S
C2064 C2072 1.378 . S
C2065 C2064 1.367 . S
C2065 C2073 1.433 . S
C2066 H2062 0.929 . S
C2066 C2068 1.378 . S
C2066 C2070 1.350 . S
C2067 C2070 1.463 . S
C2067 C2072 1.350 . S
C2067 N2075 1.427 . S
C2068 H2059 0.930 . S
C2068 C2066 1.378 . S
C2068 C2069 1.367 . S
C2069 C2068 1.367 . S
C2069 C2071 1.433 . S
C2070 C2066 1.350 . S
C2070 C2067 1.463 . S
C2070 N2074 1.427 . S
C2071 H2061 0.929 . S
C2071 C2069 1.433 . S
C2071 N2074 1.384 . S
C2072 H2063 0.929 . S
C2072 C2064 1.378 . S
C2072 C2067 1.350 . S
C2073 H2060 0.929 . S
C2073 C2065 1.433 . S
C2073 N2075 1.384 . S
N2074 C2070 1.427 . S
N2074 C2071 1.384 . S
N2075 C2067 1.427 . S
N2075 C2073 1.384 . S
H2076 C2082 0.930 . S
H2077 C2086 0.930 . S
H2078 C2091 0.929 . S
H2079 C2089 0.929 . S
H2080 C2084 0.929 . S
H2081 C2090 0.929 . S
C2082 H2076 0.930 . S
C2082 C2083 1.367 . S
C2082 C2090 1.378 . S
C2083 C2082 1.367 . S
C2083 C2091 1.433 . S
C2084 H2080 0.929 . S
C2084 C2086 1.378 . S
C2084 C2088 1.350 . S
C2085 C2088 1.463 . S
C2085 C2090 1.350 . S
C2085 N2093 1.427 . S
C2086 H2077 0.930 . S
C2086 C2084 1.378 . S
C2086 C2087 1.367 . S
C2087 C2086 1.367 . S
C2087 C2089 1.433 . S
C2088 C2084 1.350 . S
C2088 C2085 1.463 . S
C2088 N2092 1.427 . S
C2089 H2079 0.929 . S
C2089 C2087 1.433 . S
C2089 N2092 1.384 . S
C2090 H2081 0.929 . S
C2090 C2082 1.378 . S
C2090 C2085 1.350 . S
C2091 H2078 0.929 . S
C2091 C2083 1.433 . S
C2091 N2093 1.384 . S
N2092 C2088 1.427 . S
N2092 C2089 1.384 . S
N2093 C2085 1.427 . S
N2093 C2091 1.384 . S
H2094 C2100 0.930 . S
H2095 C2104 0.930 . S
H2096 C2109 0.929 . S
H2097 C2107 0.929 . S
H2098 C2102 0.929 . S
H2099 C2108 0.929 . S
C2100 H2094 0.930 . S
C2100 C2101 1.367 . S
C2100 C2108 1.378 . S
C2101 C2100 1.367 . S
C2101 C2109 1.433 . S
C2102 H2098 0.929 . S
C2102 C2104 1.378 . S
C2102 C2106 1.350 . S
C2103 C2106 1.463 . S
C2103 C2108 1.350 . S
C2103 N2111 1.427 . S
C2104 H2095 0.930 . S
C2104 C2102 1.378 . S
C2104 C2105 1.367 . S
C2105 C2104 1.367 . S
C2105 C2107 1.433 . S
C2106 C2102 1.350 . S
C2106 C2103 1.463 . S
C2106 N2110 1.427 . S
C2107 H2097 0.929 . S
C2107 C2105 1.433 . S
C2107 N2110 1.384 . S
C2108 H2099 0.929 . S
C2108 C2100 1.378 . S
C2108 C2103 1.350 . S
C2109 H2096 0.929 . S
C2109 C2101 1.433 . S
C2109 N2111 1.384 . S
N2110 C2106 1.427 . S
N2110 C2107 1.384 . S
N2111 C2103 1.427 . S
N2111 C2109 1.384 . S
H2112 C2118 0.930 . S
H2113 C2122 0.930 . S
H2114 C2127 0.929 . S
H2115 C2125 0.929 . S
H2116 C2120 0.929 . S
H2117 C2126 0.929 . S
C2118 H2112 0.930 . S
C2118 C2119 1.367 . S
C2118 C2126 1.378 . S
C2119 C2118 1.367 . S
C2119 C2127 1.433 . S
C2120 H2116 0.929 . S
C2120 C2122 1.378 . S
C2120 C2124 1.350 . S
C2121 C2124 1.463 . S
C2121 C2126 1.350 . S
C2121 N2129 1.427 . S
C2122 H2113 0.930 . S
C2122 C2120 1.378 . S
C2122 C2123 1.367 . S
C2123 C2122 1.367 . S
C2123 C2125 1.433 . S
C2124 C2120 1.350 . S
C2124 C2121 1.463 . S
C2124 N2128 1.427 . S
C2125 H2115 0.929 . S
C2125 C2123 1.433 . S
C2125 N2128 1.384 . S
C2126 H2117 0.929 . S
C2126 C2118 1.378 . S
C2126 C2121 1.350 . S
C2127 H2114 0.929 . S
C2127 C2119 1.433 . S
C2127 N2129 1.384 . S
N2128 C2124 1.427 . S
N2128 C2125 1.384 . S
N2129 C2121 1.427 . S
N2129 C2127 1.384 . S
H2130 C2136 0.930 . S
H2131 C2140 0.930 . S
H2132 C2145 0.929 . S
H2133 C2143 0.929 . S
H2134 C2138 0.929 . S
H2135 C2144 0.929 . S
C2136 H2130 0.930 . S
C2136 C2137 1.367 . S
C2136 C2144 1.378 . S
C2137 C2136 1.367 . S
C2137 C2145 1.433 . S
C2138 H2134 0.929 . S
C2138 C2140 1.378 . S
C2138 C2142 1.350 . S
C2139 C2142 1.463 . S
C2139 C2144 1.350 . S
C2139 N2147 1.427 . S
C2140 H2131 0.930 . S
C2140 C2138 1.378 . S
C2140 C2141 1.367 . S
C2141 C2140 1.367 . S
C2141 C2143 1.433 . S
C2142 C2138 1.350 . S
C2142 C2139 1.463 . S
C2142 N2146 1.427 . S
C2143 H2133 0.929 . S
C2143 C2141 1.433 . S
C2143 N2146 1.384 . S
C2144 H2135 0.929 . S
C2144 C2136 1.378 . S
C2144 C2139 1.350 . S
C2145 H2132 0.929 . S
C2145 C2137 1.433 . S
C2145 N2147 1.384 . S
N2146 C2142 1.427 . S
N2146 C2143 1.384 . S
N2147 C2139 1.427 . S
N2147 C2145 1.384 . S
H2148 C2154 0.930 . S
H2149 C2158 0.930 . S
H2150 C2163 0.929 . S
H2151 C2161 0.929 . S
H2152 C2156 0.929 . S
H2153 C2162 0.929 . S
C2154 H2148 0.930 . S
C2154 C2155 1.367 . S
C2154 C2162 1.378 . S
C2155 C2154 1.367 . S
C2155 C2163 1.433 . S
C2156 H2152 0.929 . S
C2156 C2158 1.378 . S
C2156 C2160 1.350 . S
C2157 C2160 1.463 . S
C2157 C2162 1.350 . S
C2157 N2165 1.427 . S
C2158 H2149 0.930 . S
C2158 C2156 1.378 . S
C2158 C2159 1.367 . S
C2159 C2158 1.367 . S
C2159 C2161 1.433 . S
C2160 C2156 1.350 . S
C2160 C2157 1.463 . S
C2160 N2164 1.427 . S
C2161 H2151 0.929 . S
C2161 C2159 1.433 . S
C2161 N2164 1.384 . S
C2162 H2153 0.929 . S
C2162 C2154 1.378 . S
C2162 C2157 1.350 . S
C2163 H2150 0.929 . S
C2163 C2155 1.433 . S
C2163 N2165 1.384 . S
N2164 C2160 1.427 . S
N2164 C2161 1.384 . S
N2165 C2157 1.427 . S
N2165 C2163 1.384 . S
H2166 C2172 0.930 . S
H2167 C2176 0.930 . S
H2168 C2181 0.929 . S
H2169 C2179 0.929 . S
H2170 C2174 0.929 . S
H2171 C2180 0.929 . S
C2172 H2166 0.930 . S
C2172 C2173 1.367 . S
C2172 C2180 1.378 . S
C2173 C2172 1.367 . S
C2173 C2181 1.433 . S
C2174 H2170 0.929 . S
C2174 C2176 1.378 . S
C2174 C2178 1.350 . S
C2175 C2178 1.463 . S
C2175 C2180 1.350 . S
C2175 N2183 1.427 . S
C2176 H2167 0.930 . S
C2176 C2174 1.378 . S
C2176 C2177 1.367 . S
C2177 C2176 1.367 . S
C2177 C2179 1.433 . S
C2178 C2174 1.350 . S
C2178 C2175 1.463 . S
C2178 N2182 1.427 . S
C2179 H2169 0.929 . S
C2179 C2177 1.433 . S
C2179 N2182 1.384 . S
C2180 H2171 0.929 . S
C2180 C2172 1.378 . S
C2180 C2175 1.350 . S
C2181 H2168 0.929 . S
C2181 C2173 1.433 . S
C2181 N2183 1.384 . S
N2182 C2178 1.427 . S
N2182 C2179 1.384 . S
N2183 C2175 1.427 . S
N2183 C2181 1.384 . S
H2184 C2190 0.930 . S
H2185 C2194 0.930 . S
H2186 C2199 0.929 . S
H2187 C2197 0.929 . S
H2188 C2192 0.929 . S
H2189 C2198 0.929 . S
C2190 H2184 0.930 . S
C2190 C2191 1.367 . S
C2190 C2198 1.378 . S
C2191 C2190 1.367 . S
C2191 C2199 1.433 . S
C2192 H2188 0.929 . S
C2192 C2194 1.378 . S
C2192 C2196 1.350 . S
C2193 C2196 1.463 . S
C2193 C2198 1.350 . S
C2193 N2201 1.427 . S
C2194 H2185 0.930 . S
C2194 C2192 1.378 . S
C2194 C2195 1.367 . S
C2195 C2194 1.367 . S
C2195 C2197 1.433 . S
C2196 C2192 1.350 . S
C2196 C2193 1.463 . S
C2196 N2200 1.427 . S
C2197 H2187 0.929 . S
C2197 C2195 1.433 . S
C2197 N2200 1.384 . S
C2198 H2189 0.929 . S
C2198 C2190 1.378 . S
C2198 C2193 1.350 . S
C2199 H2186 0.929 . S
C2199 C2191 1.433 . S
C2199 N2201 1.384 . S
N2200 C2196 1.427 . S
N2200 C2197 1.384 . S
N2201 C2193 1.427 . S
N2201 C2199 1.384 . S
H2202 C2208 0.930 . S
H2203 C2212 0.930 . S
H2204 C2217 0.929 . S
H2205 C2215 0.929 . S
H2206 C2210 0.929 . S
H2207 C2216 0.929 . S
C2208 H2202 0.930 . S
C2208 C2209 1.367 . S
C2208 C2216 1.378 . S
C2209 C2208 1.367 . S
C2209 C2217 1.433 . S
C2210 H2206 0.929 . S
C2210 C2212 1.378 . S
C2210 C2214 1.350 . S
C2211 C2214 1.463 . S
C2211 C2216 1.350 . S
C2211 N2219 1.427 . S
C2212 H2203 0.930 . S
C2212 C2210 1.378 . S
C2212 C2213 1.367 . S
C2213 C2212 1.367 . S
C2213 C2215 1.433 . S
C2214 C2210 1.350 . S
C2214 C2211 1.463 . S
C2214 N2218 1.427 . S
C2215 H2205 0.929 . S
C2215 C2213 1.433 . S
C2215 N2218 1.384 . S
C2216 H2207 0.929 . S
C2216 C2208 1.378 . S
C2216 C2211 1.350 . S
C2217 H2204 0.929 . S
C2217 C2209 1.433 . S
C2217 N2219 1.384 . S
N2218 C2214 1.427 . S
N2218 C2215 1.384 . S
N2219 C2211 1.427 . S
N2219 C2217 1.384 . S
H2220 C2226 0.930 . S
H2221 C2230 0.930 . S
H2222 C2235 0.929 . S
H2223 C2233 0.929 . S
H2224 C2228 0.929 . S
H2225 C2234 0.929 . S
C2226 H2220 0.930 . S
C2226 C2227 1.367 . S
C2226 C2234 1.378 . S
C2227 C2226 1.367 . S
C2227 C2235 1.433 . S
C2228 H2224 0.929 . S
C2228 C2230 1.378 . S
C2228 C2232 1.350 . S
C2229 C2232 1.463 . S
C2229 C2234 1.350 . S
C2229 N2237 1.427 . S
C2230 H2221 0.930 . S
C2230 C2228 1.378 . S
C2230 C2231 1.367 . S
C2231 C2230 1.367 . S
C2231 C2233 1.433 . S
C2232 C2228 1.350 . S
C2232 C2229 1.463 . S
C2232 N2236 1.427 . S
C2233 H2223 0.929 . S
C2233 C2231 1.433 . S
C2233 N2236 1.384 . S
C2234 H2225 0.929 . S
C2234 C2226 1.378 . S
C2234 C2229 1.350 . S
C2235 H2222 0.929 . S
C2235 C2227 1.433 . S
C2235 N2237 1.384 . S
N2236 C2232 1.427 . S
N2236 C2233 1.384 . S
N2237 C2229 1.427 . S
N2237 C2235 1.384 . S
H2238 C2244 0.930 . S
H2239 C2248 0.930 . S
H2240 C2253 0.929 . S
H2241 C2251 0.929 . S
H2242 C2246 0.929 . S
H2243 C2252 0.929 . S
C2244 H2238 0.930 . S
C2244 C2245 1.367 . S
C2244 C2252 1.378 . S
C2245 C2244 1.367 . S
C2245 C2253 1.433 . S
C2246 H2242 0.929 . S
C2246 C2248 1.378 . S
C2246 C2250 1.350 . S
C2247 C2250 1.463 . S
C2247 C2252 1.350 . S
C2247 N2255 1.427 . S
C2248 H2239 0.930 . S
C2248 C2246 1.378 . S
C2248 C2249 1.367 . S
C2249 C2248 1.367 . S
C2249 C2251 1.433 . S
C2250 C2246 1.350 . S
C2250 C2247 1.463 . S
C2250 N2254 1.427 . S
C2251 H2241 0.929 . S
C2251 C2249 1.433 . S
C2251 N2254 1.384 . S
C2252 H2243 0.929 . S
C2252 C2244 1.378 . S
C2252 C2247 1.350 . S
C2253 H2240 0.929 . S
C2253 C2245 1.433 . S
C2253 N2255 1.384 . S
N2254 C2250 1.427 . S
N2254 C2251 1.384 . S
N2255 C2247 1.427 . S
N2255 C2253 1.384 . S
H2256 C2262 0.930 . S
H2257 C2266 0.930 . S
H2258 C2271 0.929 . S
H2259 C2269 0.929 . S
H2260 C2264 0.929 . S
H2261 C2270 0.929 . S
C2262 H2256 0.930 . S
C2262 C2263 1.367 . S
C2262 C2270 1.378 . S
C2263 C2262 1.367 . S
C2263 C2271 1.433 . S
C2264 H2260 0.929 . S
C2264 C2266 1.378 . S
C2264 C2268 1.350 . S
C2265 C2268 1.463 . S
C2265 C2270 1.350 . S
C2265 N2273 1.427 . S
C2266 H2257 0.930 . S
C2266 C2264 1.378 . S
C2266 C2267 1.367 . S
C2267 C2266 1.367 . S
C2267 C2269 1.433 . S
C2268 C2264 1.350 . S
C2268 C2265 1.463 . S
C2268 N2272 1.427 . S
C2269 H2259 0.929 . S
C2269 C2267 1.433 . S
C2269 N2272 1.384 . S
C2270 H2261 0.929 . S
C2270 C2262 1.378 . S
C2270 C2265 1.350 . S
C2271 H2258 0.929 . S
C2271 C2263 1.433 . S
C2271 N2273 1.384 . S
N2272 C2268 1.427 . S
N2272 C2269 1.384 . S
N2273 C2265 1.427 . S
N2273 C2271 1.384 . S
H2274 C2280 0.930 . S
H2275 C2284 0.930 . S
H2276 C2289 0.929 . S
H2277 C2287 0.929 . S
H2278 C2282 0.929 . S
H2279 C2288 0.929 . S
C2280 H2274 0.930 . S
C2280 C2281 1.367 . S
C2280 C2288 1.378 . S
C2281 C2280 1.367 . S
C2281 C2289 1.433 . S
C2282 H2278 0.929 . S
C2282 C2284 1.378 . S
C2282 C2286 1.350 . S
C2283 C2286 1.463 . S
C2283 C2288 1.350 . S
C2283 N2291 1.427 . S
C2284 H2275 0.930 . S
C2284 C2282 1.378 . S
C2284 C2285 1.367 . S
C2285 C2284 1.367 . S
C2285 C2287 1.433 . S
C2286 C2282 1.350 . S
C2286 C2283 1.463 . S
C2286 N2290 1.427 . S
C2287 H2277 0.929 . S
C2287 C2285 1.433 . S
C2287 N2290 1.384 . S
C2288 H2279 0.929 . S
C2288 C2280 1.378 . S
C2288 C2283 1.350 . S
C2289 H2276 0.929 . S
C2289 C2281 1.433 . S
C2289 N2291 1.384 . S
N2290 C2286 1.427 . S
N2290 C2287 1.384 . S
N2291 C2283 1.427 . S
N2291 C2289 1.384 . S
H2292 C2298 0.930 . S
H2293 C2302 0.930 . S
H2294 C2307 0.929 . S
H2295 C2305 0.929 . S
H2296 C2300 0.929 . S
H2297 C2306 0.929 . S
C2298 H2292 0.930 . S
C2298 C2299 1.367 . S
C2298 C2306 1.378 . S
C2299 C2298 1.367 . S
C2299 C2307 1.433 . S
C2300 H2296 0.929 . S
C2300 C2302 1.378 . S
C2300 C2304 1.350 . S
C2301 C2304 1.463 . S
C2301 C2306 1.350 . S
C2301 N2309 1.427 . S
C2302 H2293 0.930 . S
C2302 C2300 1.378 . S
C2302 C2303 1.367 . S
C2303 C2302 1.367 . S
C2303 C2305 1.433 . S
C2304 C2300 1.350 . S
C2304 C2301 1.463 . S
C2304 N2308 1.427 . S
C2305 H2295 0.929 . S
C2305 C2303 1.433 . S
C2305 N2308 1.384 . S
C2306 H2297 0.929 . S
C2306 C2298 1.378 . S
C2306 C2301 1.350 . S
C2307 H2294 0.929 . S
C2307 C2299 1.433 . S
C2307 N2309 1.384 . S
N2308 C2304 1.427 . S
N2308 C2305 1.384 . S
N2309 C2301 1.427 . S
N2309 C2307 1.384 . S
H2310 C2316 0.930 . S
H2311 C2320 0.930 . S
H2312 C2325 0.929 . S
H2313 C2323 0.929 . S
H2314 C2318 0.929 . S
H2315 C2324 0.929 . S
C2316 H2310 0.930 . S
C2316 C2317 1.367 . S
C2316 C2324 1.378 . S
C2317 C2316 1.367 . S
C2317 C2325 1.433 . S
C2318 H2314 0.929 . S
C2318 C2320 1.378 . S
C2318 C2322 1.350 . S
C2319 C2322 1.463 . S
C2319 C2324 1.350 . S
C2319 N2327 1.427 . S
C2320 H2311 0.930 . S
C2320 C2318 1.378 . S
C2320 C2321 1.367 . S
C2321 C2320 1.367 . S
C2321 C2323 1.433 . S
C2322 C2318 1.350 . S
C2322 C2319 1.463 . S
C2322 N2326 1.427 . S
C2323 H2313 0.929 . S
C2323 C2321 1.433 . S
C2323 N2326 1.384 . S
C2324 H2315 0.929 . S
C2324 C2316 1.378 . S
C2324 C2319 1.350 . S
C2325 H2312 0.929 . S
C2325 C2317 1.433 . S
C2325 N2327 1.384 . S
N2326 C2322 1.427 . S
N2326 C2323 1.384 . S
N2327 C2319 1.427 . S
N2327 C2325 1.384 . S
H2328 C2334 0.930 . S
H2329 C2338 0.930 . S
H2330 C2343 0.929 . S
H2331 C2341 0.929 . S
H2332 C2336 0.929 . S
H2333 C2342 0.929 . S
C2334 H2328 0.930 . S
C2334 C2335 1.367 . S
C2334 C2342 1.378 . S
C2335 C2334 1.367 . S
C2335 C2343 1.433 . S
C2336 H2332 0.929 . S
C2336 C2338 1.378 . S
C2336 C2340 1.350 . S
C2337 C2340 1.463 . S
C2337 C2342 1.350 . S
C2337 N2345 1.427 . S
C2338 H2329 0.930 . S
C2338 C2336 1.378 . S
C2338 C2339 1.367 . S
C2339 C2338 1.367 . S
C2339 C2341 1.433 . S
C2340 C2336 1.350 . S
C2340 C2337 1.463 . S
C2340 N2344 1.427 . S
C2341 H2331 0.929 . S
C2341 C2339 1.433 . S
C2341 N2344 1.384 . S
C2342 H2333 0.929 . S
C2342 C2334 1.378 . S
C2342 C2337 1.350 . S
C2343 H2330 0.929 . S
C2343 C2335 1.433 . S
C2343 N2345 1.384 . S
N2344 C2340 1.427 . S
N2344 C2341 1.384 . S
N2345 C2337 1.427 . S
N2345 C2343 1.384 . S
H2346 C2352 0.930 . S
H2347 C2356 0.930 . S
H2348 C2361 0.929 . S
H2349 C2359 0.929 . S
H2350 C2354 0.929 . S
H2351 C2360 0.929 . S
C2352 H2346 0.930 . S
C2352 C2353 1.367 . S
C2352 C2360 1.378 . S
C2353 C2352 1.367 . S
C2353 C2361 1.433 . S
C2354 H2350 0.929 . S
C2354 C2356 1.378 . S
C2354 C2358 1.350 . S
C2355 C2358 1.463 . S
C2355 C2360 1.350 . S
C2355 N2363 1.427 . S
C2356 H2347 0.930 . S
C2356 C2354 1.378 . S
C2356 C2357 1.367 . S
C2357 C2356 1.367 . S
C2357 C2359 1.433 . S
C2358 C2354 1.350 . S
C2358 C2355 1.463 . S
C2358 N2362 1.427 . S
C2359 H2349 0.929 . S
C2359 C2357 1.433 . S
C2359 N2362 1.384 . S
C2360 H2351 0.929 . S
C2360 C2352 1.378 . S
C2360 C2355 1.350 . S
C2361 H2348 0.929 . S
C2361 C2353 1.433 . S
C2361 N2363 1.384 . S
N2362 C2358 1.427 . S
N2362 C2359 1.384 . S
N2363 C2355 1.427 . S
N2363 C2361 1.384 . S
H2364 C2370 0.930 . S
H2365 C2374 0.930 . S
H2366 C2379 0.929 . S
H2367 C2377 0.929 . S
H2368 C2372 0.929 . S
H2369 C2378 0.929 . S
C2370 H2364 0.930 . S
C2370 C2371 1.367 . S
C2370 C2378 1.378 . S
C2371 C2370 1.367 . S
C2371 C2379 1.433 . S
C2372 H2368 0.929 . S
C2372 C2374 1.378 . S
C2372 C2376 1.350 . S
C2373 C2376 1.463 . S
C2373 C2378 1.350 . S
C2373 N2381 1.427 . S
C2374 H2365 0.930 . S
C2374 C2372 1.378 . S
C2374 C2375 1.367 . S
C2375 C2374 1.367 . S
C2375 C2377 1.433 . S
C2376 C2372 1.350 . S
C2376 C2373 1.463 . S
C2376 N2380 1.427 . S
C2377 H2367 0.929 . S
C2377 C2375 1.433 . S
C2377 N2380 1.384 . S
C2378 H2369 0.929 . S
C2378 C2370 1.378 . S
C2378 C2373 1.350 . S
C2379 H2366 0.929 . S
C2379 C2371 1.433 . S
C2379 N2381 1.384 . S
N2380 C2376 1.427 . S
N2380 C2377 1.384 . S
N2381 C2373 1.427 . S
N2381 C2379 1.384 . S
H2382 C2388 0.930 . S
H2383 C2392 0.930 . S
H2384 C2397 0.929 . S
H2385 C2395 0.929 . S
H2386 C2390 0.929 . S
H2387 C2396 0.929 . S
C2388 H2382 0.930 . S
C2388 C2389 1.367 . S
C2388 C2396 1.378 . S
C2389 C2388 1.367 . S
C2389 C2397 1.433 . S
C2390 H2386 0.929 . S
C2390 C2392 1.378 . S
C2390 C2394 1.350 . S
C2391 C2394 1.463 . S
C2391 C2396 1.350 . S
C2391 N2399 1.427 . S
C2392 H2383 0.930 . S
C2392 C2390 1.378 . S
C2392 C2393 1.367 . S
C2393 C2392 1.367 . S
C2393 C2395 1.433 . S
C2394 C2390 1.350 . S
C2394 C2391 1.463 . S
C2394 N2398 1.427 . S
C2395 H2385 0.929 . S
C2395 C2393 1.433 . S
C2395 N2398 1.384 . S
C2396 H2387 0.929 . S
C2396 C2388 1.378 . S
C2396 C2391 1.350 . S
C2397 H2384 0.929 . S
C2397 C2389 1.433 . S
C2397 N2399 1.384 . S
N2398 C2394 1.427 . S
N2398 C2395 1.384 . S
N2399 C2391 1.427 . S
N2399 C2397 1.384 . S
H2400 C2406 0.930 . S
H2401 C2410 0.930 . S
H2402 C2415 0.929 . S
H2403 C2413 0.929 . S
H2404 C2408 0.929 . S
H2405 C2414 0.929 . S
C2406 H2400 0.930 . S
C2406 C2407 1.367 . S
C2406 C2414 1.378 . S
C2407 C2406 1.367 . S
C2407 C2415 1.433 . S
C2408 H2404 0.929 . S
C2408 C2410 1.378 . S
C2408 C2412 1.350 . S
C2409 C2412 1.463 . S
C2409 C2414 1.350 . S
C2409 N2417 1.427 . S
C2410 H2401 0.930 . S
C2410 C2408 1.378 . S
C2410 C2411 1.367 . S
C2411 C2410 1.367 . S
C2411 C2413 1.433 . S
C2412 C2408 1.350 . S
C2412 C2409 1.463 . S
C2412 N2416 1.427 . S
C2413 H2403 0.929 . S
C2413 C2411 1.433 . S
C2413 N2416 1.384 . S
C2414 H2405 0.929 . S
C2414 C2406 1.378 . S
C2414 C2409 1.350 . S
C2415 H2402 0.929 . S
C2415 C2407 1.433 . S
C2415 N2417 1.384 . S
N2416 C2412 1.427 . S
N2416 C2413 1.384 . S
N2417 C2409 1.427 . S
N2417 C2415 1.384 . S
H2418 C2424 0.930 . S
H2419 C2428 0.930 . S
H2420 C2433 0.929 . S
H2421 C2431 0.929 . S
H2422 C2426 0.929 . S
H2423 C2432 0.929 . S
C2424 H2418 0.930 . S
C2424 C2425 1.367 . S
C2424 C2432 1.378 . S
C2425 C2424 1.367 . S
C2425 C2433 1.433 . S
C2426 H2422 0.929 . S
C2426 C2428 1.378 . S
C2426 C2430 1.350 . S
C2427 C2430 1.463 . S
C2427 C2432 1.350 . S
C2427 N2435 1.427 . S
C2428 H2419 0.930 . S
C2428 C2426 1.378 . S
C2428 C2429 1.367 . S
C2429 C2428 1.367 . S
C2429 C2431 1.433 . S
C2430 C2426 1.350 . S
C2430 C2427 1.463 . S
C2430 N2434 1.427 . S
C2431 H2421 0.929 . S
C2431 C2429 1.433 . S
C2431 N2434 1.384 . S
C2432 H2423 0.929 . S
C2432 C2424 1.378 . S
C2432 C2427 1.350 . S
C2433 H2420 0.929 . S
C2433 C2425 1.433 . S
C2433 N2435 1.384 . S
N2434 C2430 1.427 . S
N2434 C2431 1.384 . S
N2435 C2427 1.427 . S
N2435 C2433 1.384 . S
H2436 C2442 0.930 . S
H2437 C2446 0.930 . S
H2438 C2451 0.929 . S
H2439 C2449 0.929 . S
H2440 C2444 0.929 . S
H2441 C2450 0.929 . S
C2442 H2436 0.930 . S
C2442 C2443 1.367 . S
C2442 C2450 1.378 . S
C2443 C2442 1.367 . S
C2443 C2451 1.433 . S
C2444 H2440 0.929 . S
C2444 C2446 1.378 . S
C2444 C2448 1.350 . S
C2445 C2448 1.463 . S
C2445 C2450 1.350 . S
C2445 N2453 1.427 . S
C2446 H2437 0.930 . S
C2446 C2444 1.378 . S
C2446 C2447 1.367 . S
C2447 C2446 1.367 . S
C2447 C2449 1.433 . S
C2448 C2444 1.350 . S
C2448 C2445 1.463 . S
C2448 N2452 1.427 . S
C2449 H2439 0.929 . S
C2449 C2447 1.433 . S
C2449 N2452 1.384 . S
C2450 H2441 0.929 . S
C2450 C2442 1.378 . S
C2450 C2445 1.350 . S
C2451 H2438 0.929 . S
C2451 C2443 1.433 . S
C2451 N2453 1.384 . S
N2452 C2448 1.427 . S
N2452 C2449 1.384 . S
N2453 C2445 1.427 . S
N2453 C2451 1.384 . S
H2454 C2460 0.930 . S
H2455 C2464 0.930 . S
H2456 C2469 0.929 . S
H2457 C2467 0.929 . S
H2458 C2462 0.929 . S
H2459 C2468 0.929 . S
C2460 H2454 0.930 . S
C2460 C2461 1.367 . S
C2460 C2468 1.378 . S
C2461 C2460 1.367 . S
C2461 C2469 1.433 . S
C2462 H2458 0.929 . S
C2462 C2464 1.378 . S
C2462 C2466 1.350 . S
C2463 C2466 1.463 . S
C2463 C2468 1.350 . S
C2463 N2471 1.427 . S
C2464 H2455 0.930 . S
C2464 C2462 1.378 . S
C2464 C2465 1.367 . S
C2465 C2464 1.367 . S
C2465 C2467 1.433 . S
C2466 C2462 1.350 . S
C2466 C2463 1.463 . S
C2466 N2470 1.427 . S
C2467 H2457 0.929 . S
C2467 C2465 1.433 . S
C2467 N2470 1.384 . S
C2468 H2459 0.929 . S
C2468 C2460 1.378 . S
C2468 C2463 1.350 . S
C2469 H2456 0.929 . S
C2469 C2461 1.433 . S
C2469 N2471 1.384 . S
N2470 C2466 1.427 . S
N2470 C2467 1.384 . S
N2471 C2463 1.427 . S
N2471 C2469 1.384 . S
H2472 C2478 0.930 . S
H2473 C2482 0.930 . S
H2474 C2487 0.929 . S
H2475 C2485 0.929 . S
H2476 C2480 0.929 . S
H2477 C2486 0.929 . S
C2478 H2472 0.930 . S
C2478 C2479 1.367 . S
C2478 C2486 1.378 . S
C2479 C2478 1.367 . S
C2479 C2487 1.433 . S
C2480 H2476 0.929 . S
C2480 C2482 1.378 . S
C2480 C2484 1.350 . S
C2481 C2484 1.463 . S
C2481 C2486 1.350 . S
C2481 N2489 1.427 . S
C2482 H2473 0.930 . S
C2482 C2480 1.378 . S
C2482 C2483 1.367 . S
C2483 C2482 1.367 . S
C2483 C2485 1.433 . S
C2484 C2480 1.350 . S
C2484 C2481 1.463 . S
C2484 N2488 1.427 . S
C2485 H2475 0.929 . S
C2485 C2483 1.433 . S
C2485 N2488 1.384 . S
C2486 H2477 0.929 . S
C2486 C2478 1.378 . S
C2486 C2481 1.350 . S
C2487 H2474 0.929 . S
C2487 C2479 1.433 . S
C2487 N2489 1.384 . S
N2488 C2484 1.427 . S
N2488 C2485 1.384 . S
N2489 C2481 1.427 . S
N2489 C2487 1.384 . S
H2490 C2496 0.930 . S
H2491 C2500 0.930 . S
H2492 C2505 0.929 . S
H2493 C2503 0.929 . S
H2494 C2498 0.929 . S
H2495 C2504 0.929 . S
C2496 H2490 0.930 . S
C2496 C2497 1.367 . S
C2496 C2504 1.378 . S
C2497 C2496 1.367 . S
C2497 C2505 1.433 . S
C2498 H2494 0.929 . S
C2498 C2500 1.378 . S
C2498 C2502 1.350 . S
C2499 C2502 1.463 . S
C2499 C2504 1.350 . S
C2499 N2507 1.427 . S
C2500 H2491 0.930 . S
C2500 C2498 1.378 . S
C2500 C2501 1.367 . S
C2501 C2500 1.367 . S
C2501 C2503 1.433 . S
C2502 C2498 1.350 . S
C2502 C2499 1.463 . S
C2502 N2506 1.427 . S
C2503 H2493 0.929 . S
C2503 C2501 1.433 . S
C2503 N2506 1.384 . S
C2504 H2495 0.929 . S
C2504 C2496 1.378 . S
C2504 C2499 1.350 . S
C2505 H2492 0.929 . S
C2505 C2497 1.433 . S
C2505 N2507 1.384 . S
N2506 C2502 1.427 . S
N2506 C2503 1.384 . S
N2507 C2499 1.427 . S
N2507 C2505 1.384 . S
H2508 C2514 0.930 . S
H2509 C2518 0.930 . S
H2510 C2523 0.929 . S
H2511 C2521 0.929 . S
H2512 C2516 0.929 . S
H2513 C2522 0.929 . S
C2514 H2508 0.930 . S
C2514 C2515 1.367 . S
C2514 C2522 1.378 . S
C2515 C2514 1.367 . S
C2515 C2523 1.433 . S
C2516 H2512 0.929 . S
C2516 C2518 1.378 . S
C2516 C2520 1.350 . S
C2517 C2520 1.463 . S
C2517 C2522 1.350 . S
C2517 N2525 1.427 . S
C2518 H2509 0.930 . S
C2518 C2516 1.378 . S
C2518 C2519 1.367 . S
C2519 C2518 1.367 . S
C2519 C2521 1.433 . S
C2520 C2516 1.350 . S
C2520 C2517 1.463 . S
C2520 N2524 1.427 . S
C2521 H2511 0.929 . S
C2521 C2519 1.433 . S
C2521 N2524 1.384 . S
C2522 H2513 0.929 . S
C2522 C2514 1.378 . S
C2522 C2517 1.350 . S
C2523 H2510 0.929 . S
C2523 C2515 1.433 . S
C2523 N2525 1.384 . S
N2524 C2520 1.427 . S
N2524 C2521 1.384 . S
N2525 C2517 1.427 . S
N2525 C2523 1.384 . S
H2526 C2532 0.930 . S
H2527 C2536 0.930 . S
H2528 C2541 0.929 . S
H2529 C2539 0.929 . S
H2530 C2534 0.929 . S
H2531 C2540 0.929 . S
C2532 H2526 0.930 . S
C2532 C2533 1.367 . S
C2532 C2540 1.378 . S
C2533 C2532 1.367 . S
C2533 C2541 1.433 . S
C2534 H2530 0.929 . S
C2534 C2536 1.378 . S
C2534 C2538 1.350 . S
C2535 C2538 1.463 . S
C2535 C2540 1.350 . S
C2535 N2543 1.427 . S
C2536 H2527 0.930 . S
C2536 C2534 1.378 . S
C2536 C2537 1.367 . S
C2537 C2536 1.367 . S
C2537 C2539 1.433 . S
C2538 C2534 1.350 . S
C2538 C2535 1.463 . S
C2538 N2542 1.427 . S
C2539 H2529 0.929 . S
C2539 C2537 1.433 . S
C2539 N2542 1.384 . S
C2540 H2531 0.929 . S
C2540 C2532 1.378 . S
C2540 C2535 1.350 . S
C2541 H2528 0.929 . S
C2541 C2533 1.433 . S
C2541 N2543 1.384 . S
N2542 C2538 1.427 . S
N2542 C2539 1.384 . S
N2543 C2535 1.427 . S
N2543 C2541 1.384 . S
H2544 C2550 0.930 . S
H2545 C2554 0.930 . S
H2546 C2559 0.929 . S
H2547 C2557 0.929 . S
H2548 C2552 0.929 . S
H2549 C2558 0.929 . S
C2550 H2544 0.930 . S
C2550 C2551 1.367 . S
C2550 C2558 1.378 . S
C2551 C2550 1.367 . S
C2551 C2559 1.433 . S
C2552 H2548 0.929 . S
C2552 C2554 1.378 . S
C2552 C2556 1.350 . S
C2553 C2556 1.463 . S
C2553 C2558 1.350 . S
C2553 N2561 1.427 . S
C2554 H2545 0.930 . S
C2554 C2552 1.378 . S
C2554 C2555 1.367 . S
C2555 C2554 1.367 . S
C2555 C2557 1.433 . S
C2556 C2552 1.350 . S
C2556 C2553 1.463 . S
C2556 N2560 1.427 . S
C2557 H2547 0.929 . S
C2557 C2555 1.433 . S
C2557 N2560 1.384 . S
C2558 H2549 0.929 . S
C2558 C2550 1.378 . S
C2558 C2553 1.350 . S
C2559 H2546 0.929 . S
C2559 C2551 1.433 . S
C2559 N2561 1.384 . S
N2560 C2556 1.427 . S
N2560 C2557 1.384 . S
N2561 C2553 1.427 . S
N2561 C2559 1.384 . S
H2562 C2568 0.930 . S
H2563 C2572 0.930 . S
H2564 C2577 0.929 . S
H2565 C2575 0.929 . S
H2566 C2570 0.929 . S
H2567 C2576 0.929 . S
C2568 H2562 0.930 . S
C2568 C2569 1.367 . S
C2568 C2576 1.378 . S
C2569 C2568 1.367 . S
C2569 C2577 1.433 . S
C2570 H2566 0.929 . S
C2570 C2572 1.378 . S
C2570 C2574 1.350 . S
C2571 C2574 1.463 . S
C2571 C2576 1.350 . S
C2571 N2579 1.427 . S
C2572 H2563 0.930 . S
C2572 C2570 1.378 . S
C2572 C2573 1.367 . S
C2573 C2572 1.367 . S
C2573 C2575 1.433 . S
C2574 C2570 1.350 . S
C2574 C2571 1.463 . S
C2574 N2578 1.427 . S
C2575 H2565 0.929 . S
C2575 C2573 1.433 . S
C2575 N2578 1.384 . S
C2576 H2567 0.929 . S
C2576 C2568 1.378 . S
C2576 C2571 1.350 . S
C2577 H2564 0.929 . S
C2577 C2569 1.433 . S
C2577 N2579 1.384 . S
N2578 C2574 1.427 . S
N2578 C2575 1.384 . S
N2579 C2571 1.427 . S
N2579 C2577 1.384 . S
H2580 C2586 0.930 . S
H2581 C2590 0.930 . S
H2582 C2595 0.929 . S
H2583 C2593 0.929 . S
H2584 C2588 0.929 . S
H2585 C2594 0.929 . S
C2586 H2580 0.930 . S
C2586 C2587 1.367 . S
C2586 C2594 1.378 . S
C2587 C2586 1.367 . S
C2587 C2595 1.433 . S
C2588 H2584 0.929 . S
C2588 C2590 1.378 . S
C2588 C2592 1.350 . S
C2589 C2592 1.463 . S
C2589 C2594 1.350 . S
C2589 N2597 1.427 . S
C2590 H2581 0.930 . S
C2590 C2588 1.378 . S
C2590 C2591 1.367 . S
C2591 C2590 1.367 . S
C2591 C2593 1.433 . S
C2592 C2588 1.350 . S
C2592 C2589 1.463 . S
C2592 N2596 1.427 . S
C2593 H2583 0.929 . S
C2593 C2591 1.433 . S
C2593 N2596 1.384 . S
C2594 H2585 0.929 . S
C2594 C2586 1.378 . S
C2594 C2589 1.350 . S
C2595 H2582 0.929 . S
C2595 C2587 1.433 . S
C2595 N2597 1.384 . S
N2596 C2592 1.427 . S
N2596 C2593 1.384 . S
N2597 C2589 1.427 . S
N2597 C2595 1.384 . S
H2598 C2604 0.930 . S
H2599 C2608 0.930 . S
H2600 C2613 0.929 . S
H2601 C2611 0.929 . S
H2602 C2606 0.929 . S
H2603 C2612 0.929 . S
C2604 H2598 0.930 . S
C2604 C2605 1.367 . S
C2604 C2612 1.378 . S
C2605 C2604 1.367 . S
C2605 C2613 1.433 . S
C2606 H2602 0.929 . S
C2606 C2608 1.378 . S
C2606 C2610 1.350 . S
C2607 C2610 1.463 . S
C2607 C2612 1.350 . S
C2607 N2615 1.427 . S
C2608 H2599 0.930 . S
C2608 C2606 1.378 . S
C2608 C2609 1.367 . S
C2609 C2608 1.367 . S
C2609 C2611 1.433 . S
C2610 C2606 1.350 . S
C2610 C2607 1.463 . S
C2610 N2614 1.427 . S
C2611 H2601 0.929 . S
C2611 C2609 1.433 . S
C2611 N2614 1.384 . S
C2612 H2603 0.929 . S
C2612 C2604 1.378 . S
C2612 C2607 1.350 . S
C2613 H2600 0.929 . S
C2613 C2605 1.433 . S
C2613 N2615 1.384 . S
N2614 C2610 1.427 . S
N2614 C2611 1.384 . S
N2615 C2607 1.427 . S
N2615 C2613 1.384 . S
H2616 C2622 0.930 . S
H2617 C2626 0.930 . S
H2618 C2631 0.929 . S
H2619 C2629 0.929 . S
H2620 C2624 0.929 . S
H2621 C2630 0.929 . S
C2622 H2616 0.930 . S
C2622 C2623 1.367 . S
C2622 C2630 1.378 . S
C2623 C2622 1.367 . S
C2623 C2631 1.433 . S
C2624 H2620 0.929 . S
C2624 C2626 1.378 . S
C2624 C2628 1.350 . S
C2625 C2628 1.463 . S
C2625 C2630 1.350 . S
C2625 N2633 1.427 . S
C2626 H2617 0.930 . S
C2626 C2624 1.378 . S
C2626 C2627 1.367 . S
C2627 C2626 1.367 . S
C2627 C2629 1.433 . S
C2628 C2624 1.350 . S
C2628 C2625 1.463 . S
C2628 N2632 1.427 . S
C2629 H2619 0.929 . S
C2629 C2627 1.433 . S
C2629 N2632 1.384 . S
C2630 H2621 0.929 . S
C2630 C2622 1.378 . S
C2630 C2625 1.350 . S
C2631 H2618 0.929 . S
C2631 C2623 1.433 . S
C2631 N2633 1.384 . S
N2632 C2628 1.427 . S
N2632 C2629 1.384 . S
N2633 C2625 1.427 . S
N2633 C2631 1.384 . S
H2634 C2640 0.930 . S
H2635 C2644 0.930 . S
H2636 C2649 0.929 . S
H2637 C2647 0.929 . S
H2638 C2642 0.929 . S
H2639 C2648 0.929 . S
C2640 H2634 0.930 . S
C2640 C2641 1.367 . S
C2640 C2648 1.378 . S
C2641 C2640 1.367 . S
C2641 C2649 1.433 . S
C2642 H2638 0.929 . S
C2642 C2644 1.378 . S
C2642 C2646 1.350 . S
C2643 C2646 1.463 . S
C2643 C2648 1.350 . S
C2643 N2651 1.427 . S
C2644 H2635 0.930 . S
C2644 C2642 1.378 . S
C2644 C2645 1.367 . S
C2645 C2644 1.367 . S
C2645 C2647 1.433 . S
C2646 C2642 1.350 . S
C2646 C2643 1.463 . S
C2646 N2650 1.427 . S
C2647 H2637 0.929 . S
C2647 C2645 1.433 . S
C2647 N2650 1.384 . S
C2648 H2639 0.929 . S
C2648 C2640 1.378 . S
C2648 C2643 1.350 . S
C2649 H2636 0.929 . S
C2649 C2641 1.433 . S
C2649 N2651 1.384 . S
N2650 C2646 1.427 . S
N2650 C2647 1.384 . S
N2651 C2643 1.427 . S
N2651 C2649 1.384 . S
H2652 C2658 0.930 . S
H2653 C2662 0.930 . S
H2654 C2667 0.929 . S
H2655 C2665 0.929 . S
H2656 C2660 0.929 . S
H2657 C2666 0.929 . S
C2658 H2652 0.930 . S
C2658 C2659 1.367 . S
C2658 C2666 1.378 . S
C2659 C2658 1.367 . S
C2659 C2667 1.433 . S
C2660 H2656 0.929 . S
C2660 C2662 1.378 . S
C2660 C2664 1.350 . S
C2661 C2664 1.463 . S
C2661 C2666 1.350 . S
C2661 N2669 1.427 . S
C2662 H2653 0.930 . S
C2662 C2660 1.378 . S
C2662 C2663 1.367 . S
C2663 C2662 1.367 . S
C2663 C2665 1.433 . S
C2664 C2660 1.350 . S
C2664 C2661 1.463 . S
C2664 N2668 1.427 . S
C2665 H2655 0.929 . S
C2665 C2663 1.433 . S
C2665 N2668 1.384 . S
C2666 H2657 0.929 . S
C2666 C2658 1.378 . S
C2666 C2661 1.350 . S
C2667 H2654 0.929 . S
C2667 C2659 1.433 . S
C2667 N2669 1.384 . S
N2668 C2664 1.427 . S
N2668 C2665 1.384 . S
N2669 C2661 1.427 . S
N2669 C2667 1.384 . S
H2670 C2676 0.930 . S
H2671 C2680 0.930 . S
H2672 C2685 0.929 . S
H2673 C2683 0.929 . S
H2674 C2678 0.929 . S
H2675 C2684 0.929 . S
C2676 H2670 0.930 . S
C2676 C2677 1.367 . S
C2676 C2684 1.378 . S
C2677 C2676 1.367 . S
C2677 C2685 1.433 . S
C2678 H2674 0.929 . S
C2678 C2680 1.378 . S
C2678 C2682 1.350 . S
C2679 C2682 1.463 . S
C2679 C2684 1.350 . S
C2679 N2687 1.427 . S
C2680 H2671 0.930 . S
C2680 C2678 1.378 . S
C2680 C2681 1.367 . S
C2681 C2680 1.367 . S
C2681 C2683 1.433 . S
C2682 C2678 1.350 . S
C2682 C2679 1.463 . S
C2682 N2686 1.427 . S
C2683 H2673 0.929 . S
C2683 C2681 1.433 . S
C2683 N2686 1.384 . S
C2684 H2675 0.929 . S
C2684 C2676 1.378 . S
C2684 C2679 1.350 . S
C2685 H2672 0.929 . S
C2685 C2677 1.433 . S
C2685 N2687 1.384 . S
N2686 C2682 1.427 . S
N2686 C2683 1.384 . S
N2687 C2679 1.427 . S
N2687 C2685 1.384 . S
H2688 C2694 0.930 . S
H2689 C2698 0.930 . S
H2690 C2703 0.929 . S
H2691 C2701 0.929 . S
H2692 C2696 0.929 . S
H2693 C2702 0.929 . S
C2694 H2688 0.930 . S
C2694 C2695 1.367 . S
C2694 C2702 1.378 . S
C2695 C2694 1.367 . S
C2695 C2703 1.433 . S
C2696 H2692 0.929 . S
C2696 C2698 1.378 . S
C2696 C2700 1.350 . S
C2697 C2700 1.463 . S
C2697 C2702 1.350 . S
C2697 N2705 1.427 . S
C2698 H2689 0.930 . S
C2698 C2696 1.378 . S
C2698 C2699 1.367 . S
C2699 C2698 1.367 . S
C2699 C2701 1.433 . S
C2700 C2696 1.350 . S
C2700 C2697 1.463 . S
C2700 N2704 1.427 . S
C2701 H2691 0.929 . S
C2701 C2699 1.433 . S
C2701 N2704 1.384 . S
C2702 H2693 0.929 . S
C2702 C2694 1.378 . S
C2702 C2697 1.350 . S
C2703 H2690 0.929 . S
C2703 C2695 1.433 . S
C2703 N2705 1.384 . S
N2704 C2700 1.427 . S
N2704 C2701 1.384 . S
N2705 C2697 1.427 . S
N2705 C2703 1.384 . S
H2706 C2712 0.930 . S
H2707 C2716 0.930 . S
H2708 C2721 0.929 . S
H2709 C2719 0.929 . S
H2710 C2714 0.929 . S
H2711 C2720 0.929 . S
C2712 H2706 0.930 . S
C2712 C2713 1.367 . S
C2712 C2720 1.378 . S
C2713 C2712 1.367 . S
C2713 C2721 1.433 . S
C2714 H2710 0.929 . S
C2714 C2716 1.378 . S
C2714 C2718 1.350 . S
C2715 C2718 1.463 . S
C2715 C2720 1.350 . S
C2715 N2723 1.427 . S
C2716 H2707 0.930 . S
C2716 C2714 1.378 . S
C2716 C2717 1.367 . S
C2717 C2716 1.367 . S
C2717 C2719 1.433 . S
C2718 C2714 1.350 . S
C2718 C2715 1.463 . S
C2718 N2722 1.427 . S
C2719 H2709 0.929 . S
C2719 C2717 1.433 . S
C2719 N2722 1.384 . S
C2720 H2711 0.929 . S
C2720 C2712 1.378 . S
C2720 C2715 1.350 . S
C2721 H2708 0.929 . S
C2721 C2713 1.433 . S
C2721 N2723 1.384 . S
N2722 C2718 1.427 . S
N2722 C2719 1.384 . S
N2723 C2715 1.427 . S
N2723 C2721 1.384 . S
H2724 C2730 0.930 . S
H2725 C2734 0.930 . S
H2726 C2739 0.929 . S
H2727 C2737 0.929 . S
H2728 C2732 0.929 . S
H2729 C2738 0.929 . S
C2730 H2724 0.930 . S
C2730 C2731 1.367 . S
C2730 C2738 1.378 . S
C2731 C2730 1.367 . S
C2731 C2739 1.433 . S
C2732 H2728 0.929 . S
C2732 C2734 1.378 . S
C2732 C2736 1.350 . S
C2733 C2736 1.463 . S
C2733 C2738 1.350 . S
C2733 N2741 1.427 . S
C2734 H2725 0.930 . S
C2734 C2732 1.378 . S
C2734 C2735 1.367 . S
C2735 C2734 1.367 . S
C2735 C2737 1.433 . S
C2736 C2732 1.350 . S
C2736 C2733 1.463 . S
C2736 N2740 1.427 . S
C2737 H2727 0.929 . S
C2737 C2735 1.433 . S
C2737 N2740 1.384 . S
C2738 H2729 0.929 . S
C2738 C2730 1.378 . S
C2738 C2733 1.350 . S
C2739 H2726 0.929 . S
C2739 C2731 1.433 . S
C2739 N2741 1.384 . S
N2740 C2736 1.427 . S
N2740 C2737 1.384 . S
N2741 C2733 1.427 . S
N2741 C2739 1.384 . S
H2742 C2748 0.930 . S
H2743 C2752 0.930 . S
H2744 C2757 0.929 . S
H2745 C2755 0.929 . S
H2746 C2750 0.929 . S
H2747 C2756 0.929 . S
C2748 H2742 0.930 . S
C2748 C2749 1.367 . S
C2748 C2756 1.378 . S
C2749 C2748 1.367 . S
C2749 C2757 1.433 . S
C2750 H2746 0.929 . S
C2750 C2752 1.378 . S
C2750 C2754 1.350 . S
C2751 C2754 1.463 . S
C2751 C2756 1.350 . S
C2751 N2759 1.427 . S
C2752 H2743 0.930 . S
C2752 C2750 1.378 . S
C2752 C2753 1.367 . S
C2753 C2752 1.367 . S
C2753 C2755 1.433 . S
C2754 C2750 1.350 . S
C2754 C2751 1.463 . S
C2754 N2758 1.427 . S
C2755 H2745 0.929 . S
C2755 C2753 1.433 . S
C2755 N2758 1.384 . S
C2756 H2747 0.929 . S
C2756 C2748 1.378 . S
C2756 C2751 1.350 . S
C2757 H2744 0.929 . S
C2757 C2749 1.433 . S
C2757 N2759 1.384 . S
N2758 C2754 1.427 . S
N2758 C2755 1.384 . S
N2759 C2751 1.427 . S
N2759 C2757 1.384 . S
H2760 C2766 0.930 . S
H2761 C2770 0.930 . S
H2762 C2775 0.929 . S
H2763 C2773 0.929 . S
H2764 C2768 0.929 . S
H2765 C2774 0.929 . S
C2766 H2760 0.930 . S
C2766 C2767 1.367 . S
C2766 C2774 1.378 . S
C2767 C2766 1.367 . S
C2767 C2775 1.433 . S
C2768 H2764 0.929 . S
C2768 C2770 1.378 . S
C2768 C2772 1.350 . S
C2769 C2772 1.463 . S
C2769 C2774 1.350 . S
C2769 N2777 1.427 . S
C2770 H2761 0.930 . S
C2770 C2768 1.378 . S
C2770 C2771 1.367 . S
C2771 C2770 1.367 . S
C2771 C2773 1.433 . S
C2772 C2768 1.350 . S
C2772 C2769 1.463 . S
C2772 N2776 1.427 . S
C2773 H2763 0.929 . S
C2773 C2771 1.433 . S
C2773 N2776 1.384 . S
C2774 H2765 0.929 . S
C2774 C2766 1.378 . S
C2774 C2769 1.350 . S
C2775 H2762 0.929 . S
C2775 C2767 1.433 . S
C2775 N2777 1.384 . S
N2776 C2772 1.427 . S
N2776 C2773 1.384 . S
N2777 C2769 1.427 . S
N2777 C2775 1.384 . S
H2778 C2784 0.930 . S
H2779 C2788 0.930 . S
H2780 C2793 0.929 . S
H2781 C2791 0.929 . S
H2782 C2786 0.929 . S
H2783 C2792 0.929 . S
C2784 H2778 0.930 . S
C2784 C2785 1.367 . S
C2784 C2792 1.378 . S
C2785 C2784 1.367 . S
C2785 C2793 1.433 . S
C2786 H2782 0.929 . S
C2786 C2788 1.378 . S
C2786 C2790 1.350 . S
C2787 C2790 1.463 . S
C2787 C2792 1.350 . S
C2787 N2795 1.427 . S
C2788 H2779 0.930 . S
C2788 C2786 1.378 . S
C2788 C2789 1.367 . S
C2789 C2788 1.367 . S
C2789 C2791 1.433 . S
C2790 C2786 1.350 . S
C2790 C2787 1.463 . S
C2790 N2794 1.427 . S
C2791 H2781 0.929 . S
C2791 C2789 1.433 . S
C2791 N2794 1.384 . S
C2792 H2783 0.929 . S
C2792 C2784 1.378 . S
C2792 C2787 1.350 . S
C2793 H2780 0.929 . S
C2793 C2785 1.433 . S
C2793 N2795 1.384 . S
N2794 C2790 1.427 . S
N2794 C2791 1.384 . S
N2795 C2787 1.427 . S
N2795 C2793 1.384 . S
H2796 C2802 0.930 . S
H2797 C2806 0.930 . S
H2798 C2811 0.929 . S
H2799 C2809 0.929 . S
H2800 C2804 0.929 . S
H2801 C2810 0.929 . S
C2802 H2796 0.930 . S
C2802 C2803 1.367 . S
C2802 C2810 1.378 . S
C2803 C2802 1.367 . S
C2803 C2811 1.433 . S
C2804 H2800 0.929 . S
C2804 C2806 1.378 . S
C2804 C2808 1.350 . S
C2805 C2808 1.463 . S
C2805 C2810 1.350 . S
C2805 N2813 1.427 . S
C2806 H2797 0.930 . S
C2806 C2804 1.378 . S
C2806 C2807 1.367 . S
C2807 C2806 1.367 . S
C2807 C2809 1.433 . S
C2808 C2804 1.350 . S
C2808 C2805 1.463 . S
C2808 N2812 1.427 . S
C2809 H2799 0.929 . S
C2809 C2807 1.433 . S
C2809 N2812 1.384 . S
C2810 H2801 0.929 . S
C2810 C2802 1.378 . S
C2810 C2805 1.350 . S
C2811 H2798 0.929 . S
C2811 C2803 1.433 . S
C2811 N2813 1.384 . S
N2812 C2808 1.427 . S
N2812 C2809 1.384 . S
N2813 C2805 1.427 . S
N2813 C2811 1.384 . S
H2814 C2820 0.930 . S
H2815 C2824 0.930 . S
H2816 C2829 0.929 . S
H2817 C2827 0.929 . S
H2818 C2822 0.929 . S
H2819 C2828 0.929 . S
C2820 H2814 0.930 . S
C2820 C2821 1.367 . S
C2820 C2828 1.378 . S
C2821 C2820 1.367 . S
C2821 C2829 1.433 . S
C2822 H2818 0.929 . S
C2822 C2824 1.378 . S
C2822 C2826 1.350 . S
C2823 C2826 1.463 . S
C2823 C2828 1.350 . S
C2823 N2831 1.427 . S
C2824 H2815 0.930 . S
C2824 C2822 1.378 . S
C2824 C2825 1.367 . S
C2825 C2824 1.367 . S
C2825 C2827 1.433 . S
C2826 C2822 1.350 . S
C2826 C2823 1.463 . S
C2826 N2830 1.427 . S
C2827 H2817 0.929 . S
C2827 C2825 1.433 . S
C2827 N2830 1.384 . S
C2828 H2819 0.929 . S
C2828 C2820 1.378 . S
C2828 C2823 1.350 . S
C2829 H2816 0.929 . S
C2829 C2821 1.433 . S
C2829 N2831 1.384 . S
N2830 C2826 1.427 . S
N2830 C2827 1.384 . S
N2831 C2823 1.427 . S
N2831 C2829 1.384 . S
H2832 C2838 0.930 . S
H2833 C2842 0.930 . S
H2834 C2847 0.929 . S
H2835 C2845 0.929 . S
H2836 C2840 0.929 . S
H2837 C2846 0.929 . S
C2838 H2832 0.930 . S
C2838 C2839 1.367 . S
C2838 C2846 1.378 . S
C2839 C2838 1.367 . S
C2839 C2847 1.433 . S
C2840 H2836 0.929 . S
C2840 C2842 1.378 . S
C2840 C2844 1.350 . S
C2841 C2844 1.463 . S
C2841 C2846 1.350 . S
C2841 N2849 1.427 . S
C2842 H2833 0.930 . S
C2842 C2840 1.378 . S
C2842 C2843 1.367 . S
C2843 C2842 1.367 . S
C2843 C2845 1.433 . S
C2844 C2840 1.350 . S
C2844 C2841 1.463 . S
C2844 N2848 1.427 . S
C2845 H2835 0.929 . S
C2845 C2843 1.433 . S
C2845 N2848 1.384 . S
C2846 H2837 0.929 . S
C2846 C2838 1.378 . S
C2846 C2841 1.350 . S
C2847 H2834 0.929 . S
C2847 C2839 1.433 . S
C2847 N2849 1.384 . S
N2848 C2844 1.427 . S
N2848 C2845 1.384 . S
N2849 C2841 1.427 . S
N2849 C2847 1.384 . S
H2850 C2856 0.930 . S
H2851 C2860 0.930 . S
H2852 C2865 0.929 . S
H2853 C2863 0.929 . S
H2854 C2858 0.929 . S
H2855 C2864 0.929 . S
C2856 H2850 0.930 . S
C2856 C2857 1.367 . S
C2856 C2864 1.378 . S
C2857 C2856 1.367 . S
C2857 C2865 1.433 . S
C2858 H2854 0.929 . S
C2858 C2860 1.378 . S
C2858 C2862 1.350 . S
C2859 C2862 1.463 . S
C2859 C2864 1.350 . S
C2859 N2867 1.427 . S
C2860 H2851 0.930 . S
C2860 C2858 1.378 . S
C2860 C2861 1.367 . S
C2861 C2860 1.367 . S
C2861 C2863 1.433 . S
C2862 C2858 1.350 . S
C2862 C2859 1.463 . S
C2862 N2866 1.427 . S
C2863 H2853 0.929 . S
C2863 C2861 1.433 . S
C2863 N2866 1.384 . S
C2864 H2855 0.929 . S
C2864 C2856 1.378 . S
C2864 C2859 1.350 . S
C2865 H2852 0.929 . S
C2865 C2857 1.433 . S
C2865 N2867 1.384 . S
N2866 C2862 1.427 . S
N2866 C2863 1.384 . S
N2867 C2859 1.427 . S
N2867 C2865 1.384 . S
H2868 C2874 0.930 . S
H2869 C2878 0.930 . S
H2870 C2883 0.929 . S
H2871 C2881 0.929 . S
H2872 C2876 0.929 . S
H2873 C2882 0.929 . S
C2874 H2868 0.930 . S
C2874 C2875 1.367 . S
C2874 C2882 1.378 . S
C2875 C2874 1.367 . S
C2875 C2883 1.433 . S
C2876 H2872 0.929 . S
C2876 C2878 1.378 . S
C2876 C2880 1.350 . S
C2877 C2880 1.463 . S
C2877 C2882 1.350 . S
C2877 N2885 1.427 . S
C2878 H2869 0.930 . S
C2878 C2876 1.378 . S
C2878 C2879 1.367 . S
C2879 C2878 1.367 . S
C2879 C2881 1.433 . S
C2880 C2876 1.350 . S
C2880 C2877 1.463 . S
C2880 N2884 1.427 . S
C2881 H2871 0.929 . S
C2881 C2879 1.433 . S
C2881 N2884 1.384 . S
C2882 H2873 0.929 . S
C2882 C2874 1.378 . S
C2882 C2877 1.350 . S
C2883 H2870 0.929 . S
C2883 C2875 1.433 . S
C2883 N2885 1.384 . S
N2884 C2880 1.427 . S
N2884 C2881 1.384 . S
N2885 C2877 1.427 . S
N2885 C2883 1.384 . S
H2886 C2892 0.930 . S
H2887 C2896 0.930 . S
H2888 C2901 0.929 . S
H2889 C2899 0.929 . S
H2890 C2894 0.929 . S
H2891 C2900 0.929 . S
C2892 H2886 0.930 . S
C2892 C2893 1.367 . S
C2892 C2900 1.378 . S
C2893 C2892 1.367 . S
C2893 C2901 1.433 . S
C2894 H2890 0.929 . S
C2894 C2896 1.378 . S
C2894 C2898 1.350 . S
C2895 C2898 1.463 . S
C2895 C2900 1.350 . S
C2895 N2903 1.427 . S
C2896 H2887 0.930 . S
C2896 C2894 1.378 . S
C2896 C2897 1.367 . S
C2897 C2896 1.367 . S
C2897 C2899 1.433 . S
C2898 C2894 1.350 . S
C2898 C2895 1.463 . S
C2898 N2902 1.427 . S
C2899 H2889 0.929 . S
C2899 C2897 1.433 . S
C2899 N2902 1.384 . S
C2900 H2891 0.929 . S
C2900 C2892 1.378 . S
C2900 C2895 1.350 . S
C2901 H2888 0.929 . S
C2901 C2893 1.433 . S
C2901 N2903 1.384 . S
N2902 C2898 1.427 . S
N2902 C2899 1.384 . S
N2903 C2895 1.427 . S
N2903 C2901 1.384 . S
H2904 C2910 0.930 . S
H2905 C2914 0.930 . S
H2906 C2919 0.929 . S
H2907 C2917 0.929 . S
H2908 C2912 0.929 . S
H2909 C2918 0.929 . S
C2910 H2904 0.930 . S
C2910 C2911 1.367 . S
C2910 C2918 1.378 . S
C2911 C2910 1.367 . S
C2911 C2919 1.433 . S
C2912 H2908 0.929 . S
C2912 C2914 1.378 . S
C2912 C2916 1.350 . S
C2913 C2916 1.463 . S
C2913 C2918 1.350 . S
C2913 N2921 1.427 . S
C2914 H2905 0.930 . S
C2914 C2912 1.378 . S
C2914 C2915 1.367 . S
C2915 C2914 1.367 . S
C2915 C2917 1.433 . S
C2916 C2912 1.350 . S
C2916 C2913 1.463 . S
C2916 N2920 1.427 . S
C2917 H2907 0.929 . S
C2917 C2915 1.433 . S
C2917 N2920 1.384 . S
C2918 H2909 0.929 . S
C2918 C2910 1.378 . S
C2918 C2913 1.350 . S
C2919 H2906 0.929 . S
C2919 C2911 1.433 . S
C2919 N2921 1.384 . S
N2920 C2916 1.427 . S
N2920 C2917 1.384 . S
N2921 C2913 1.427 . S
N2921 C2919 1.384 . S
H2922 C2928 0.930 . S
H2923 C2932 0.930 . S
H2924 C2937 0.929 . S
H2925 C2935 0.929 . S
H2926 C2930 0.929 . S
H2927 C2936 0.929 . S
C2928 H2922 0.930 . S
C2928 C2929 1.367 . S
C2928 C2936 1.378 . S
C2929 C2928 1.367 . S
C2929 C2937 1.433 . S
C2930 H2926 0.929 . S
C2930 C2932 1.378 . S
C2930 C2934 1.350 . S
C2931 C2934 1.463 . S
C2931 C2936 1.350 . S
C2931 N2939 1.427 . S
C2932 H2923 0.930 . S
C2932 C2930 1.378 . S
C2932 C2933 1.367 . S
C2933 C2932 1.367 . S
C2933 C2935 1.433 . S
C2934 C2930 1.350 . S
C2934 C2931 1.463 . S
C2934 N2938 1.427 . S
C2935 H2925 0.929 . S
C2935 C2933 1.433 . S
C2935 N2938 1.384 . S
C2936 H2927 0.929 . S
C2936 C2928 1.378 . S
C2936 C2931 1.350 . S
C2937 H2924 0.929 . S
C2937 C2929 1.433 . S
C2937 N2939 1.384 . S
N2938 C2934 1.427 . S
N2938 C2935 1.384 . S
N2939 C2931 1.427 . S
N2939 C2937 1.384 . S
H2940 C2946 0.930 . S
H2941 C2950 0.930 . S
H2942 C2955 0.929 . S
H2943 C2953 0.929 . S
H2944 C2948 0.929 . S
H2945 C2954 0.929 . S
C2946 H2940 0.930 . S
C2946 C2947 1.367 . S
C2946 C2954 1.378 . S
C2947 C2946 1.367 . S
C2947 C2955 1.433 . S
C2948 H2944 0.929 . S
C2948 C2950 1.378 . S
C2948 C2952 1.350 . S
C2949 C2952 1.463 . S
C2949 C2954 1.350 . S
C2949 N2957 1.427 . S
C2950 H2941 0.930 . S
C2950 C2948 1.378 . S
C2950 C2951 1.367 . S
C2951 C2950 1.367 . S
C2951 C2953 1.433 . S
C2952 C2948 1.350 . S
C2952 C2949 1.463 . S
C2952 N2956 1.427 . S
C2953 H2943 0.929 . S
C2953 C2951 1.433 . S
C2953 N2956 1.384 . S
C2954 H2945 0.929 . S
C2954 C2946 1.378 . S
C2954 C2949 1.350 . S
C2955 H2942 0.929 . S
C2955 C2947 1.433 . S
C2955 N2957 1.384 . S
N2956 C2952 1.427 . S
N2956 C2953 1.384 . S
N2957 C2949 1.427 . S
N2957 C2955 1.384 . S
H2958 C2964 0.930 . S
H2959 C2968 0.930 . S
H2960 C2973 0.929 . S
H2961 C2971 0.929 . S
H2962 C2966 0.929 . S
H2963 C2972 0.929 . S
C2964 H2958 0.930 . S
C2964 C2965 1.367 . S
C2964 C2972 1.378 . S
C2965 C2964 1.367 . S
C2965 C2973 1.433 . S
C2966 H2962 0.929 . S
C2966 C2968 1.378 . S
C2966 C2970 1.350 . S
C2967 C2970 1.463 . S
C2967 C2972 1.350 . S
C2967 N2975 1.427 . S
C2968 H2959 0.930 . S
C2968 C2966 1.378 . S
C2968 C2969 1.367 . S
C2969 C2968 1.367 . S
C2969 C2971 1.433 . S
C2970 C2966 1.350 . S
C2970 C2967 1.463 . S
C2970 N2974 1.427 . S
C2971 H2961 0.929 . S
C2971 C2969 1.433 . S
C2971 N2974 1.384 . S
C2972 H2963 0.929 . S
C2972 C2964 1.378 . S
C2972 C2967 1.350 . S
C2973 H2960 0.929 . S
C2973 C2965 1.433 . S
C2973 N2975 1.384 . S
N2974 C2970 1.427 . S
N2974 C2971 1.384 . S
N2975 C2967 1.427 . S
N2975 C2973 1.384 . S
H2976 C2982 0.930 . S
H2977 C2986 0.930 . S
H2978 C2991 0.929 . S
H2979 C2989 0.929 . S
H2980 C2984 0.929 . S
H2981 C2990 0.929 . S
C2982 H2976 0.930 . S
C2982 C2983 1.367 . S
C2982 C2990 1.378 . S
C2983 C2982 1.367 . S
C2983 C2991 1.433 . S
C2984 H2980 0.929 . S
C2984 C2986 1.378 . S
C2984 C2988 1.350 . S
C2985 C2988 1.463 1_455 S
C2985 C2990 1.350 . S
C2985 N2993 1.427 . S
C2986 H2977 0.930 . S
C2986 C2984 1.378 . S
C2986 C2987 1.367 . S
C2987 C2986 1.367 . S
C2987 C2989 1.433 . S
C2988 C2984 1.350 . S
C2988 C2985 1.463 1_655 S
C2988 N2992 1.427 . S
C2989 H2979 0.929 . S
C2989 C2987 1.433 . S
C2989 N2992 1.384 . S
C2990 H2981 0.929 . S
C2990 C2982 1.378 . S
C2990 C2985 1.350 . S
C2991 H2978 0.929 . S
C2991 C2983 1.433 . S
C2991 N2993 1.384 . S
N2992 C2988 1.427 . S
N2992 C2989 1.384 . S
N2993 C2985 1.427 . S
N2993 C2991 1.384 . S
H2994 C3000 0.930 . S
H2995 C3004 0.930 . S
H2996 C3009 0.929 . S
H2997 C3007 0.929 . S
H2998 C3002 0.929 . S
H2999 C3008 0.929 . S
C3000 H2994 0.930 . S
C3000 C3001 1.367 . S
C3000 C3008 1.378 . S
C3001 C3000 1.367 . S
C3001 C3009 1.433 . S
C3002 H2998 0.929 . S
C3002 C3004 1.378 . S
C3002 C3006 1.350 . S
C3003 C3006 1.463 1_545 S
C3003 C3008 1.350 . S
C3003 N3011 1.427 . S
C3004 H2995 0.930 . S
C3004 C3002 1.378 . S
C3004 C3005 1.367 . S
C3005 C3004 1.367 . S
C3005 C3007 1.433 . S
C3006 C3002 1.350 . S
C3006 C3003 1.463 1_565 S
C3006 N3010 1.427 . S
C3007 H2997 0.929 . S
C3007 C3005 1.433 . S
C3007 N3010 1.384 . S
C3008 H2999 0.929 . S
C3008 C3000 1.378 . S
C3008 C3003 1.350 . S
C3009 H2996 0.929 . S
C3009 C3001 1.433 . S
C3009 N3011 1.384 . S
N3010 C3006 1.427 . S
N3010 C3007 1.384 . S
N3011 C3003 1.427 . S
N3011 C3009 1.384 . S
H3012 C3018 0.930 . S
H3013 C3022 0.930 . S
H3014 C3027 0.929 . S
H3015 C3025 0.929 . S
H3016 C3020 0.929 . S
H3017 C3026 0.929 . S
C3018 H3012 0.930 . S
C3018 C3019 1.367 . S
C3018 C3026 1.378 . S
C3019 C3018 1.367 . S
C3019 C3027 1.433 . S
C3020 H3016 0.929 . S
C3020 C3022 1.378 . S
C3020 C3024 1.350 . S
C3021 C3024 1.463 1_655 S
C3021 C3026 1.350 . S
C3021 N3029 1.427 . S
C3022 H3013 0.930 . S
C3022 C3020 1.378 . S
C3022 C3023 1.367 . S
C3023 C3022 1.367 . S
C3023 C3025 1.433 . S
C3024 C3020 1.350 . S
C3024 C3021 1.463 1_455 S
C3024 N3028 1.427 . S
C3025 H3015 0.929 . S
C3025 C3023 1.433 . S
C3025 N3028 1.384 . S
C3026 H3017 0.929 . S
C3026 C3018 1.378 . S
C3026 C3021 1.350 . S
C3027 H3014 0.929 . S
C3027 C3019 1.433 . S
C3027 N3029 1.384 . S
N3028 C3024 1.427 . S
N3028 C3025 1.384 . S
N3029 C3021 1.427 . S
N3029 C3027 1.384 . S
H3030 C3036 0.930 . S
H3031 C3040 0.930 . S
H3032 C3045 0.929 . S
H3033 C3043 0.929 . S
H3034 C3038 0.929 . S
H3035 C3044 0.929 . S
C3036 H3030 0.930 . S
C3036 C3037 1.367 . S
C3036 C3044 1.378 . S
C3037 C3036 1.367 . S
C3037 C3045 1.433 . S
C3038 H3034 0.929 . S
C3038 C3040 1.378 . S
C3038 C3042 1.350 . S
C3039 C3042 1.463 1_565 S
C3039 C3044 1.350 . S
C3039 N3047 1.427 . S
C3040 H3031 0.930 . S
C3040 C3038 1.378 . S
C3040 C3041 1.367 . S
C3041 C3040 1.367 . S
C3041 C3043 1.433 . S
C3042 C3038 1.350 . S
C3042 C3039 1.463 1_545 S
C3042 N3046 1.427 . S
C3043 H3033 0.929 . S
C3043 C3041 1.433 . S
C3043 N3046 1.384 . S
C3044 H3035 0.929 . S
C3044 C3036 1.378 . S
C3044 C3039 1.350 . S
C3045 H3032 0.929 . S
C3045 C3037 1.433 . S
C3045 N3047 1.384 . S
N3046 C3042 1.427 . S
N3046 C3043 1.384 . S
N3047 C3039 1.427 . S
N3047 C3045 1.384 . S
H3048 C3054 0.930 . S
H3049 C3058 0.930 . S
H3050 C3063 0.929 . S
H3051 C3061 0.929 . S
H3052 C3056 0.929 . S
H3053 C3062 0.929 . S
C3054 H3048 0.930 . S
C3054 C3055 1.367 . S
C3054 C3062 1.378 . S
C3055 C3054 1.367 . S
C3055 C3063 1.433 . S
C3056 H3052 0.929 . S
C3056 C3058 1.378 . S
C3056 C3060 1.350 . S
C3057 C3060 1.463 1_655 S
C3057 C3062 1.350 . S
C3057 N3065 1.427 . S
C3058 H3049 0.930 . S
C3058 C3056 1.378 . S
C3058 C3059 1.367 . S
C3059 C3058 1.367 . S
C3059 C3061 1.433 . S
C3060 C3056 1.350 . S
C3060 C3057 1.463 1_455 S
C3060 N3064 1.427 . S
C3061 H3051 0.929 . S
C3061 C3059 1.433 . S
C3061 N3064 1.384 . S
C3062 H3053 0.929 . S
C3062 C3054 1.378 . S
C3062 C3057 1.350 . S
C3063 H3050 0.929 . S
C3063 C3055 1.433 . S
C3063 N3065 1.384 . S
N3064 C3060 1.427 . S
N3064 C3061 1.384 . S
N3065 C3057 1.427 . S
N3065 C3063 1.384 . S
H3066 C3072 0.930 . S
H3067 C3076 0.930 . S
H3068 C3081 0.929 . S
H3069 C3079 0.929 . S
H3070 C3074 0.929 . S
H3071 C3080 0.929 . S
C3072 H3066 0.930 . S
C3072 C3073 1.367 . S
C3072 C3080 1.378 . S
C3073 C3072 1.367 . S
C3073 C3081 1.433 . S
C3074 H3070 0.929 . S
C3074 C3076 1.378 . S
C3074 C3078 1.350 . S
C3075 C3078 1.463 1_545 S
C3075 C3080 1.350 . S
C3075 N3083 1.427 . S
C3076 H3067 0.930 . S
C3076 C3074 1.378 . S
C3076 C3077 1.367 . S
C3077 C3076 1.367 . S
C3077 C3079 1.433 . S
C3078 C3074 1.350 . S
C3078 C3075 1.463 1_565 S
C3078 N3082 1.427 . S
C3079 H3069 0.929 . S
C3079 C3077 1.433 . S
C3079 N3082 1.384 . S
C3080 H3071 0.929 . S
C3080 C3072 1.378 . S
C3080 C3075 1.350 . S
C3081 H3068 0.929 . S
C3081 C3073 1.433 . S
C3081 N3083 1.384 . S
N3082 C3078 1.427 . S
N3082 C3079 1.384 . S
N3083 C3075 1.427 . S
N3083 C3081 1.384 . S
H3084 C3090 0.930 . S
H3085 C3094 0.930 . S
H3086 C3099 0.929 . S
H3087 C3097 0.929 . S
H3088 C3092 0.929 . S
H3089 C3098 0.929 . S
C3090 H3084 0.930 . S
C3090 C3091 1.367 . S
C3090 C3098 1.378 . S
C3091 C3090 1.367 . S
C3091 C3099 1.433 . S
C3092 H3088 0.929 . S
C3092 C3094 1.378 . S
C3092 C3096 1.350 . S
C3093 C3096 1.463 1_455 S
C3093 C3098 1.350 . S
C3093 N3101 1.427 . S
C3094 H3085 0.930 . S
C3094 C3092 1.378 . S
C3094 C3095 1.367 . S
C3095 C3094 1.367 . S
C3095 C3097 1.433 . S
C3096 C3092 1.350 . S
C3096 C3093 1.463 1_655 S
C3096 N3100 1.427 . S
C3097 H3087 0.929 . S
C3097 C3095 1.433 . S
C3097 N3100 1.384 . S
C3098 H3089 0.929 . S
C3098 C3090 1.378 . S
C3098 C3093 1.350 . S
C3099 H3086 0.929 . S
C3099 C3091 1.433 . S
C3099 N3101 1.384 . S
N3100 C3096 1.427 . S
N3100 C3097 1.384 . S
N3101 C3093 1.427 . S
N3101 C3099 1.384 . S
H3102 C3108 0.930 . S
H3103 C3112 0.930 . S
H3104 C3117 0.929 . S
H3105 C3115 0.929 . S
H3106 C3110 0.929 . S
H3107 C3116 0.929 . S
C3108 H3102 0.930 . S
C3108 C3109 1.367 . S
C3108 C3116 1.378 . S
C3109 C3108 1.367 . S
C3109 C3117 1.433 . S
C3110 H3106 0.929 . S
C3110 C3112 1.378 . S
C3110 C3114 1.350 . S
C3111 C3114 1.463 1_545 S
C3111 C3116 1.350 . S
C3111 N3119 1.427 . S
C3112 H3103 0.930 . S
C3112 C3110 1.378 . S
C3112 C3113 1.367 . S
C3113 C3112 1.367 . S
C3113 C3115 1.433 . S
C3114 C3110 1.350 . S
C3114 C3111 1.463 1_565 S
C3114 N3118 1.427 . S
C3115 H3105 0.929 . S
C3115 C3113 1.433 . S
C3115 N3118 1.384 . S
C3116 H3107 0.929 . S
C3116 C3108 1.378 . S
C3116 C3111 1.350 . S
C3117 H3104 0.929 . S
C3117 C3109 1.433 . S
C3117 N3119 1.384 . S
N3118 C3114 1.427 . S
N3118 C3115 1.384 . S
N3119 C3111 1.427 . S
N3119 C3117 1.384 . S
H3120 C3126 0.930 . S
H3121 C3130 0.930 . S
H3122 C3135 0.929 . S
H3123 C3133 0.929 . S
H3124 C3128 0.929 . S
H3125 C3134 0.929 . S
C3126 H3120 0.930 . S
C3126 C3127 1.367 . S
C3126 C3134 1.378 . S
C3127 C3126 1.367 . S
C3127 C3135 1.433 . S
C3128 H3124 0.929 . S
C3128 C3130 1.378 . S
C3128 C3132 1.350 . S
C3129 C3132 1.463 1_545 S
C3129 C3134 1.350 . S
C3129 N3137 1.427 . S
C3130 H3121 0.930 . S
C3130 C3128 1.378 . S
C3130 C3131 1.367 . S
C3131 C3130 1.367 . S
C3131 C3133 1.433 . S
C3132 C3128 1.350 . S
C3132 C3129 1.463 1_565 S
C3132 N3136 1.427 . S
C3133 H3123 0.929 . S
C3133 C3131 1.433 . S
C3133 N3136 1.384 . S
C3134 H3125 0.929 . S
C3134 C3126 1.378 . S
C3134 C3129 1.350 . S
C3135 H3122 0.929 . S
C3135 C3127 1.433 . S
C3135 N3137 1.384 . S
N3136 C3132 1.427 . S
N3136 C3133 1.384 . S
N3137 C3129 1.427 . S
N3137 C3135 1.384 . S
H3138 C3144 0.930 . S
H3139 C3148 0.930 . S
H3140 C3153 0.929 . S
H3141 C3151 0.929 . S
H3142 C3146 0.929 . S
H3143 C3152 0.929 . S
C3144 H3138 0.930 . S
C3144 C3145 1.367 . S
C3144 C3152 1.378 . S
C3145 C3144 1.367 . S
C3145 C3153 1.433 . S
C3146 H3142 0.929 . S
C3146 C3148 1.378 . S
C3146 C3150 1.350 . S
C3147 C3150 1.463 1_455 S
C3147 C3152 1.350 . S
C3147 N3155 1.427 . S
C3148 H3139 0.930 . S
C3148 C3146 1.378 . S
C3148 C3149 1.367 . S
C3149 C3148 1.367 . S
C3149 C3151 1.433 . S
C3150 C3146 1.350 . S
C3150 C3147 1.463 1_655 S
C3150 N3154 1.427 . S
C3151 H3141 0.929 . S
C3151 C3149 1.433 . S
C3151 N3154 1.384 . S
C3152 H3143 0.929 . S
C3152 C3144 1.378 . S
C3152 C3147 1.350 . S
C3153 H3140 0.929 . S
C3153 C3145 1.433 . S
C3153 N3155 1.384 . S
N3154 C3150 1.427 . S
N3154 C3151 1.384 . S
N3155 C3147 1.427 . S
N3155 C3153 1.384 . S
H3156 C3162 0.930 . S
H3157 C3166 0.930 . S
H3158 C3171 0.929 . S
H3159 C3169 0.929 . S
H3160 C3164 0.929 . S
H3161 C3170 0.929 . S
C3162 H3156 0.930 . S
C3162 C3163 1.367 . S
C3162 C3170 1.378 . S
C3163 C3162 1.367 . S
C3163 C3171 1.433 . S
C3164 H3160 0.929 . S
C3164 C3166 1.378 . S
C3164 C3168 1.350 . S
C3165 C3168 1.463 1_565 S
C3165 C3170 1.350 . S
C3165 N3173 1.427 . S
C3166 H3157 0.930 . S
C3166 C3164 1.378 . S
C3166 C3167 1.367 . S
C3167 C3166 1.367 . S
C3167 C3169 1.433 . S
C3168 C3164 1.350 . S
C3168 C3165 1.463 1_545 S
C3168 N3172 1.427 . S
C3169 H3159 0.929 . S
C3169 C3167 1.433 . S
C3169 N3172 1.384 . S
C3170 H3161 0.929 . S
C3170 C3162 1.378 . S
C3170 C3165 1.350 . S
C3171 H3158 0.929 . S
C3171 C3163 1.433 . S
C3171 N3173 1.384 . S
N3172 C3168 1.427 . S
N3172 C3169 1.384 . S
N3173 C3165 1.427 . S
N3173 C3171 1.384 . S
H3174 C3180 0.930 . S
H3175 C3184 0.930 . S
H3176 C3189 0.929 . S
H3177 C3187 0.929 . S
H3178 C3182 0.929 . S
H3179 C3188 0.929 . S
C3180 H3174 0.930 . S
C3180 C3181 1.367 . S
C3180 C3188 1.378 . S
C3181 C3180 1.367 . S
C3181 C3189 1.433 . S
C3182 H3178 0.929 . S
C3182 C3184 1.378 . S
C3182 C3186 1.350 . S
C3183 C3186 1.463 1_455 S
C3183 C3188 1.350 . S
C3183 N3191 1.427 . S
C3184 H3175 0.930 . S
C3184 C3182 1.378 . S
C3184 C3185 1.367 . S
C3185 C3184 1.367 . S
C3185 C3187 1.433 . S
C3186 C3182 1.350 . S
C3186 C3183 1.463 1_655 S
C3186 N3190 1.427 . S
C3187 H3177 0.929 . S
C3187 C3185 1.433 . S
C3187 N3190 1.384 . S
C3188 H3179 0.929 . S
C3188 C3180 1.378 . S
C3188 C3183 1.350 . S
C3189 H3176 0.929 . S
C3189 C3181 1.433 . S
C3189 N3191 1.384 . S
N3190 C3186 1.427 . S
N3190 C3187 1.384 . S
N3191 C3183 1.427 . S
N3191 C3189 1.384 . S
H3192 C3198 0.930 . S
H3193 C3202 0.930 . S
H3194 C3207 0.929 . S
H3195 C3205 0.929 . S
H3196 C3200 0.929 . S
H3197 C3206 0.929 . S
C3198 H3192 0.930 . S
C3198 C3199 1.367 . S
C3198 C3206 1.378 . S
C3199 C3198 1.367 . S
C3199 C3207 1.433 . S
C3200 H3196 0.929 . S
C3200 C3202 1.378 . S
C3200 C3204 1.350 . S
C3201 C3204 1.463 1_565 S
C3201 C3206 1.350 . S
C3201 N3209 1.427 . S
C3202 H3193 0.930 . S
C3202 C3200 1.378 . S
C3202 C3203 1.367 . S
C3203 C3202 1.367 . S
C3203 C3205 1.433 . S
C3204 C3200 1.350 . S
C3204 C3201 1.463 1_545 S
C3204 N3208 1.427 . S
C3205 H3195 0.929 . S
C3205 C3203 1.433 . S
C3205 N3208 1.384 . S
C3206 H3197 0.929 . S
C3206 C3198 1.378 . S
C3206 C3201 1.350 . S
C3207 H3194 0.929 . S
C3207 C3199 1.433 . S
C3207 N3209 1.384 . S
N3208 C3204 1.427 . S
N3208 C3205 1.384 . S
N3209 C3201 1.427 . S
N3209 C3207 1.384 . S
H3210 C3216 0.930 . S
H3211 C3220 0.930 . S
H3212 C3225 0.929 . S
H3213 C3223 0.929 . S
H3214 C3218 0.929 . S
H3215 C3224 0.929 . S
C3216 H3210 0.930 . S
C3216 C3217 1.367 . S
C3216 C3224 1.378 . S
C3217 C3216 1.367 . S
C3217 C3225 1.433 . S
C3218 H3214 0.929 . S
C3218 C3220 1.378 . S
C3218 C3222 1.350 . S
C3219 C3222 1.463 1_455 S
C3219 C3224 1.350 . S
C3219 N3227 1.427 . S
C3220 H3211 0.930 . S
C3220 C3218 1.378 . S
C3220 C3221 1.367 . S
C3221 C3220 1.367 . S
C3221 C3223 1.433 . S
C3222 C3218 1.350 . S
C3222 C3219 1.463 1_655 S
C3222 N3226 1.427 . S
C3223 H3213 0.929 . S
C3223 C3221 1.433 . S
C3223 N3226 1.384 . S
C3224 H3215 0.929 . S
C3224 C3216 1.378 . S
C3224 C3219 1.350 . S
C3225 H3212 0.929 . S
C3225 C3217 1.433 . S
C3225 N3227 1.384 . S
N3226 C3222 1.427 . S
N3226 C3223 1.384 . S
N3227 C3219 1.427 . S
N3227 C3225 1.384 . S
H3228 C3234 0.930 . S
H3229 C3238 0.930 . S
H3230 C3243 0.929 . S
H3231 C3241 0.929 . S
H3232 C3236 0.929 . S
H3233 C3242 0.929 . S
C3234 H3228 0.930 . S
C3234 C3235 1.367 . S
C3234 C3242 1.378 . S
C3235 C3234 1.367 . S
C3235 C3243 1.433 . S
C3236 H3232 0.929 . S
C3236 C3238 1.378 . S
C3236 C3240 1.350 . S
C3237 C3240 1.463 1_545 S
C3237 C3242 1.350 . S
C3237 N3245 1.427 . S
C3238 H3229 0.930 . S
C3238 C3236 1.378 . S
C3238 C3239 1.367 . S
C3239 C3238 1.367 . S
C3239 C3241 1.433 . S
C3240 C3236 1.350 . S
C3240 C3237 1.463 1_565 S
C3240 N3244 1.427 . S
C3241 H3231 0.929 . S
C3241 C3239 1.433 . S
C3241 N3244 1.384 . S
C3242 H3233 0.929 . S
C3242 C3234 1.378 . S
C3242 C3237 1.350 . S
C3243 H3230 0.929 . S
C3243 C3235 1.433 . S
C3243 N3245 1.384 . S
N3244 C3240 1.427 . S
N3244 C3241 1.384 . S
N3245 C3237 1.427 . S
N3245 C3243 1.384 . S
H3246 C3252 0.930 . S
H3247 C3256 0.930 . S
H3248 C3261 0.929 . S
H3249 C3259 0.929 . S
H3250 C3254 0.929 . S
H3251 C3260 0.929 . S
C3252 H3246 0.930 . S
C3252 C3253 1.367 . S
C3252 C3260 1.378 . S
C3253 C3252 1.367 . S
C3253 C3261 1.433 . S
C3254 H3250 0.929 . S
C3254 C3256 1.378 . S
C3254 C3258 1.350 . S
C3255 C3258 1.463 1_455 S
C3255 C3260 1.350 . S
C3255 N3263 1.427 . S
C3256 H3247 0.930 . S
C3256 C3254 1.378 . S
C3256 C3257 1.367 . S
C3257 C3256 1.367 . S
C3257 C3259 1.433 . S
C3258 C3254 1.350 . S
C3258 C3255 1.463 1_655 S
C3258 N3262 1.427 . S
C3259 H3249 0.929 . S
C3259 C3257 1.433 . S
C3259 N3262 1.384 . S
C3260 H3251 0.929 . S
C3260 C3252 1.378 . S
C3260 C3255 1.350 . S
C3261 H3248 0.929 . S
C3261 C3253 1.433 . S
C3261 N3263 1.384 . S
N3262 C3258 1.427 . S
N3262 C3259 1.384 . S
N3263 C3255 1.427 . S
N3263 C3261 1.384 . S
H3264 C3270 0.930 . S
H3265 C3274 0.930 . S
H3266 C3279 0.929 . S
H3267 C3277 0.929 . S
H3268 C3272 0.929 . S
H3269 C3278 0.929 . S
C3270 H3264 0.930 . S
C3270 C3271 1.367 . S
C3270 C3278 1.378 . S
C3271 C3270 1.367 . S
C3271 C3279 1.433 . S
C3272 H3268 0.929 . S
C3272 C3274 1.378 . S
C3272 C3276 1.350 . S
C3273 C3276 1.463 1_554 S
C3273 C3278 1.350 . S
C3273 N3281 1.427 . S
C3274 H3265 0.930 . S
C3274 C3272 1.378 . S
C3274 C3275 1.367 . S
C3275 C3274 1.367 . S
C3275 C3277 1.433 . S
C3276 C3272 1.350 . S
C3276 C3273 1.463 1_556 S
C3276 N3280 1.427 . S
C3277 H3267 0.929 . S
C3277 C3275 1.433 . S
C3277 N3280 1.384 . S
C3278 H3269 0.929 . S
C3278 C3270 1.378 . S
C3278 C3273 1.350 . S
C3279 H3266 0.929 . S
C3279 C3271 1.433 . S
C3279 N3281 1.384 . S
N3280 C3276 1.427 . S
N3280 C3277 1.384 . S
N3281 C3273 1.427 . S
N3281 C3279 1.384 . S
H3282 C3288 0.930 . S
H3283 C3292 0.930 . S
H3284 C3297 0.929 . S
H3285 C3295 0.929 . S
H3286 C3290 0.929 . S
H3287 C3296 0.929 . S
C3288 H3282 0.930 . S
C3288 C3289 1.367 . S
C3288 C3296 1.378 . S
C3289 C3288 1.367 . S
C3289 C3297 1.433 . S
C3290 H3286 0.929 . S
C3290 C3292 1.378 . S
C3290 C3294 1.350 . S
C3291 C3294 1.463 1_556 S
C3291 C3296 1.350 . S
C3291 N3299 1.427 . S
C3292 H3283 0.930 . S
C3292 C3290 1.378 . S
C3292 C3293 1.367 . S
C3293 C3292 1.367 . S
C3293 C3295 1.433 . S
C3294 C3290 1.350 . S
C3294 C3291 1.463 1_554 S
C3294 N3298 1.427 . S
C3295 H3285 0.929 . S
C3295 C3293 1.433 . S
C3295 N3298 1.384 . S
C3296 H3287 0.929 . S
C3296 C3288 1.378 . S
C3296 C3291 1.350 . S
C3297 H3284 0.929 . S
C3297 C3289 1.433 . S
C3297 N3299 1.384 . S
N3298 C3294 1.427 . S
N3298 C3295 1.384 . S
N3299 C3291 1.427 . S
N3299 C3297 1.384 . S
H3300 C3306 0.930 . S
H3301 C3310 0.930 . S
H3302 C3315 0.929 . S
H3303 C3313 0.929 . S
H3304 C3308 0.929 . S
H3305 C3314 0.929 . S
C3306 H3300 0.930 . S
C3306 C3307 1.367 . S
C3306 C3314 1.378 . S
C3307 C3306 1.367 . S
C3307 C3315 1.433 . S
C3308 H3304 0.929 . S
C3308 C3310 1.378 . S
C3308 C3312 1.350 . S
C3309 C3312 1.463 1_554 S
C3309 C3314 1.350 . S
C3309 N3317 1.427 . S
C3310 H3301 0.930 . S
C3310 C3308 1.378 . S
C3310 C3311 1.367 . S
C3311 C3310 1.367 . S
C3311 C3313 1.433 . S
C3312 C3308 1.350 . S
C3312 C3309 1.463 1_556 S
C3312 N3316 1.427 . S
C3313 H3303 0.929 . S
C3313 C3311 1.433 . S
C3313 N3316 1.384 . S
C3314 H3305 0.929 . S
C3314 C3306 1.378 . S
C3314 C3309 1.350 . S
C3315 H3302 0.929 . S
C3315 C3307 1.433 . S
C3315 N3317 1.384 . S
N3316 C3312 1.427 . S
N3316 C3313 1.384 . S
N3317 C3309 1.427 . S
N3317 C3315 1.384 . S
H3318 C3324 0.930 . S
H3319 C3328 0.930 . S
H3320 C3333 0.929 . S
H3321 C3331 0.929 . S
H3322 C3326 0.929 . S
H3323 C3332 0.929 . S
C3324 H3318 0.930 . S
C3324 C3325 1.367 . S
C3324 C3332 1.378 . S
C3325 C3324 1.367 . S
C3325 C3333 1.433 . S
C3326 H3322 0.929 . S
C3326 C3328 1.378 . S
C3326 C3330 1.350 . S
C3327 C3330 1.463 1_556 S
C3327 C3332 1.350 . S
C3327 N3335 1.427 . S
C3328 H3319 0.930 . S
C3328 C3326 1.378 . S
C3328 C3329 1.367 . S
C3329 C3328 1.367 . S
C3329 C3331 1.433 . S
C3330 C3326 1.350 . S
C3330 C3327 1.463 1_554 S
C3330 N3334 1.427 . S
C3331 H3321 0.929 . S
C3331 C3329 1.433 . S
C3331 N3334 1.384 . S
C3332 H3323 0.929 . S
C3332 C3324 1.378 . S
C3332 C3327 1.350 . S
C3333 H3320 0.929 . S
C3333 C3325 1.433 . S
C3333 N3335 1.384 . S
N3334 C3330 1.427 . S
N3334 C3331 1.384 . S
N3335 C3327 1.427 . S
N3335 C3333 1.384 . S
H3336 C3342 0.930 . S
H3337 C3346 0.930 . S
H3338 C3351 0.929 . S
H3339 C3349 0.929 . S
H3340 C3344 0.929 . S
H3341 C3350 0.929 . S
C3342 H3336 0.930 . S
C3342 C3343 1.367 . S
C3342 C3350 1.378 . S
C3343 C3342 1.367 . S
C3343 C3351 1.433 . S
C3344 H3340 0.929 . S
C3344 C3346 1.378 . S
C3344 C3348 1.350 . S
C3345 C3348 1.463 1_554 S
C3345 C3350 1.350 . S
C3345 N3353 1.427 . S
C3346 H3337 0.930 . S
C3346 C3344 1.378 . S
C3346 C3347 1.367 . S
C3347 C3346 1.367 . S
C3347 C3349 1.433 . S
C3348 C3344 1.350 . S
C3348 C3345 1.463 1_556 S
C3348 N3352 1.427 . S
C3349 H3339 0.929 . S
C3349 C3347 1.433 . S
C3349 N3352 1.384 . S
C3350 H3341 0.929 . S
C3350 C3342 1.378 . S
C3350 C3345 1.350 . S
C3351 H3338 0.929 . S
C3351 C3343 1.433 . S
C3351 N3353 1.384 . S
N3352 C3348 1.427 . S
N3352 C3349 1.384 . S
N3353 C3345 1.427 . S
N3353 C3351 1.384 . S
H3354 C3360 0.930 . S
H3355 C3364 0.930 . S
H3356 C3369 0.929 . S
H3357 C3367 0.929 . S
H3358 C3362 0.929 . S
H3359 C3368 0.929 . S
C3360 H3354 0.930 . S
C3360 C3361 1.367 . S
C3360 C3368 1.378 . S
C3361 C3360 1.367 . S
C3361 C3369 1.433 . S
C3362 H3358 0.929 . S
C3362 C3364 1.378 . S
C3362 C3366 1.350 . S
C3363 C3366 1.463 1_554 S
C3363 C3368 1.350 . S
C3363 N3371 1.427 . S
C3364 H3355 0.930 . S
C3364 C3362 1.378 . S
C3364 C3365 1.367 . S
C3365 C3364 1.367 . S
C3365 C3367 1.433 . S
C3366 C3362 1.350 . S
C3366 C3363 1.463 1_556 S
C3366 N3370 1.427 . S
C3367 H3357 0.929 . S
C3367 C3365 1.433 . S
C3367 N3370 1.384 . S
C3368 H3359 0.929 . S
C3368 C3360 1.378 . S
C3368 C3363 1.350 . S
C3369 H3356 0.929 . S
C3369 C3361 1.433 . S
C3369 N3371 1.384 . S
N3370 C3366 1.427 . S
N3370 C3367 1.384 . S
N3371 C3363 1.427 . S
N3371 C3369 1.384 . S
H3372 C3378 0.930 . S
H3373 C3382 0.930 . S
H3374 C3387 0.929 . S
H3375 C3385 0.929 . S
H3376 C3380 0.929 . S
H3377 C3386 0.929 . S
C3378 H3372 0.930 . S
C3378 C3379 1.367 . S
C3378 C3386 1.378 . S
C3379 C3378 1.367 . S
C3379 C3387 1.433 . S
C3380 H3376 0.929 . S
C3380 C3382 1.378 . S
C3380 C3384 1.350 . S
C3381 C3384 1.463 1_556 S
C3381 C3386 1.350 . S
C3381 N3389 1.427 . S
C3382 H3373 0.930 . S
C3382 C3380 1.378 . S
C3382 C3383 1.367 . S
C3383 C3382 1.367 . S
C3383 C3385 1.433 . S
C3384 C3380 1.350 . S
C3384 C3381 1.463 1_554 S
C3384 N3388 1.427 . S
C3385 H3375 0.929 . S
C3385 C3383 1.433 . S
C3385 N3388 1.384 . S
C3386 H3377 0.929 . S
C3386 C3378 1.378 . S
C3386 C3381 1.350 . S
C3387 H3374 0.929 . S
C3387 C3379 1.433 . S
C3387 N3389 1.384 . S
N3388 C3384 1.427 . S
N3388 C3385 1.384 . S
N3389 C3381 1.427 . S
N3389 C3387 1.384 . S
H3390 C3396 0.930 . S
H3391 C3400 0.930 . S
H3392 C3405 0.929 . S
H3393 C3403 0.929 . S
H3394 C3398 0.929 . S
H3395 C3404 0.929 . S
C3396 H3390 0.930 . S
C3396 C3397 1.367 . S
C3396 C3404 1.378 . S
C3397 C3396 1.367 . S
C3397 C3405 1.433 . S
C3398 H3394 0.929 . S
C3398 C3400 1.378 . S
C3398 C3402 1.350 . S
C3399 C3402 1.463 1_556 S
C3399 C3404 1.350 . S
C3399 N3407 1.427 . S
C3400 H3391 0.930 . S
C3400 C3398 1.378 . S
C3400 C3401 1.367 . S
C3401 C3400 1.367 . S
C3401 C3403 1.433 . S
C3402 C3398 1.350 . S
C3402 C3399 1.463 1_554 S
C3402 N3406 1.427 . S
C3403 H3393 0.929 . S
C3403 C3401 1.433 . S
C3403 N3406 1.384 . S
C3404 H3395 0.929 . S
C3404 C3396 1.378 . S
C3404 C3399 1.350 . S
C3405 H3392 0.929 . S
C3405 C3397 1.433 . S
C3405 N3407 1.384 . S
N3406 C3402 1.427 . S
N3406 C3403 1.384 . S
N3407 C3399 1.427 . S
N3407 C3405 1.384 . S
H3408 C3414 0.930 . S
H3409 C3418 0.930 . S
H3410 C3423 0.929 . S
H3411 C3421 0.929 . S
H3412 C3416 0.929 . S
H3413 C3422 0.929 . S
C3414 H3408 0.930 . S
C3414 C3415 1.367 . S
C3414 C3422 1.378 . S
C3415 C3414 1.367 . S
C3415 C3423 1.433 . S
C3416 H3412 0.929 . S
C3416 C3418 1.378 . S
C3416 C3420 1.350 . S
C3417 C3420 1.463 . S
C3417 C3422 1.350 . S
C3417 N3425 1.427 . S
C3418 H3409 0.930 . S
C3418 C3416 1.378 . S
C3418 C3419 1.367 . S
C3419 C3418 1.367 . S
C3419 C3421 1.433 . S
C3420 C3416 1.350 . S
C3420 C3417 1.463 . S
C3420 N3424 1.427 . S
C3421 H3411 0.929 . S
C3421 C3419 1.433 . S
C3421 N3424 1.384 . S
C3422 H3413 0.929 . S
C3422 C3414 1.378 . S
C3422 C3417 1.350 . S
C3423 H3410 0.929 . S
C3423 C3415 1.433 . S
C3423 N3425 1.384 . S
N3424 C3420 1.427 . S
N3424 C3421 1.384 . S
N3425 C3417 1.427 . S
N3425 C3423 1.384 . S
H3426 C3432 0.930 . S
H3427 C3436 0.930 . S
H3428 C3441 0.929 . S
H3429 C3439 0.929 . S
H3430 C3434 0.929 . S
H3431 C3440 0.929 . S
C3432 H3426 0.930 . S
C3432 C3433 1.367 . S
C3432 C3440 1.378 . S
C3433 C3432 1.367 . S
C3433 C3441 1.433 . S
C3434 H3430 0.929 . S
C3434 C3436 1.378 . S
C3434 C3438 1.350 . S
C3435 C3438 1.463 . S
C3435 C3440 1.350 . S
C3435 N3443 1.427 . S
C3436 H3427 0.930 . S
C3436 C3434 1.378 . S
C3436 C3437 1.367 . S
C3437 C3436 1.367 . S
C3437 C3439 1.433 . S
C3438 C3434 1.350 . S
C3438 C3435 1.463 . S
C3438 N3442 1.427 . S
C3439 H3429 0.929 . S
C3439 C3437 1.433 . S
C3439 N3442 1.384 . S
C3440 H3431 0.929 . S
C3440 C3432 1.378 . S
C3440 C3435 1.350 . S
C3441 H3428 0.929 . S
C3441 C3433 1.433 . S
C3441 N3443 1.384 . S
N3442 C3438 1.427 . S
N3442 C3439 1.384 . S
N3443 C3435 1.427 . S
N3443 C3441 1.384 . S
H3444 C3450 0.930 . S
H3445 C3454 0.930 . S
H3446 C3459 0.929 . S
H3447 C3457 0.929 . S
H3448 C3452 0.929 . S
H3449 C3458 0.929 . S
C3450 H3444 0.930 . S
C3450 C3451 1.367 . S
C3450 C3458 1.378 . S
C3451 C3450 1.367 . S
C3451 C3459 1.433 . S
C3452 H3448 0.929 . S
C3452 C3454 1.378 . S
C3452 C3456 1.350 . S
C3453 C3456 1.463 . S
C3453 C3458 1.350 . S
C3453 N3461 1.427 . S
C3454 H3445 0.930 . S
C3454 C3452 1.378 . S
C3454 C3455 1.367 . S
C3455 C3454 1.367 . S
C3455 C3457 1.433 . S
C3456 C3452 1.350 . S
C3456 C3453 1.463 . S
C3456 N3460 1.427 . S
C3457 H3447 0.929 . S
C3457 C3455 1.433 . S
C3457 N3460 1.384 . S
C3458 H3449 0.929 . S
C3458 C3450 1.378 . S
C3458 C3453 1.350 . S
C3459 H3446 0.929 . S
C3459 C3451 1.433 . S
C3459 N3461 1.384 . S
N3460 C3456 1.427 . S
N3460 C3457 1.384 . S
N3461 C3453 1.427 . S
N3461 C3459 1.384 . S
H3462 C3468 0.930 . S
H3463 C3472 0.930 . S
H3464 C3477 0.929 . S
H3465 C3475 0.929 . S
H3466 C3470 0.929 . S
H3467 C3476 0.929 . S
C3468 H3462 0.930 . S
C3468 C3469 1.367 . S
C3468 C3476 1.378 . S
C3469 C3468 1.367 . S
C3469 C3477 1.433 . S
C3470 H3466 0.929 . S
C3470 C3472 1.378 . S
C3470 C3474 1.350 . S
C3471 C3474 1.463 . S
C3471 C3476 1.350 . S
C3471 N3479 1.427 . S
C3472 H3463 0.930 . S
C3472 C3470 1.378 . S
C3472 C3473 1.367 . S
C3473 C3472 1.367 . S
C3473 C3475 1.433 . S
C3474 C3470 1.350 . S
C3474 C3471 1.463 . S
C3474 N3478 1.427 . S
C3475 H3465 0.929 . S
C3475 C3473 1.433 . S
C3475 N3478 1.384 . S
C3476 H3467 0.929 . S
C3476 C3468 1.378 . S
C3476 C3471 1.350 . S
C3477 H3464 0.929 . S
C3477 C3469 1.433 . S
C3477 N3479 1.384 . S
N3478 C3474 1.427 . S
N3478 C3475 1.384 . S
N3479 C3471 1.427 . S
N3479 C3477 1.384 . S
H3480 C3486 0.930 . S
H3481 C3490 0.930 . S
H3482 C3495 0.929 . S
H3483 C3493 0.929 . S
H3484 C3488 0.929 . S
H3485 C3494 0.929 . S
C3486 H3480 0.930 . S
C3486 C3487 1.367 . S
C3486 C3494 1.378 . S
C3487 C3486 1.367 . S
C3487 C3495 1.433 . S
C3488 H3484 0.929 . S
C3488 C3490 1.378 . S
C3488 C3492 1.350 . S
C3489 C3492 1.463 . S
C3489 C3494 1.350 . S
C3489 N3497 1.427 . S
C3490 H3481 0.930 . S
C3490 C3488 1.378 . S
C3490 C3491 1.367 . S
C3491 C3490 1.367 . S
C3491 C3493 1.433 . S
C3492 C3488 1.350 . S
C3492 C3489 1.463 . S
C3492 N3496 1.427 . S
C3493 H3483 0.929 . S
C3493 C3491 1.433 . S
C3493 N3496 1.384 . S
C3494 H3485 0.929 . S
C3494 C3486 1.378 . S
C3494 C3489 1.350 . S
C3495 H3482 0.929 . S
C3495 C3487 1.433 . S
C3495 N3497 1.384 . S
N3496 C3492 1.427 . S
N3496 C3493 1.384 . S
N3497 C3489 1.427 . S
N3497 C3495 1.384 . S
H3498 C3504 0.930 . S
H3499 C3508 0.930 . S
H3500 C3513 0.929 . S
H3501 C3511 0.929 . S
H3502 C3506 0.929 . S
H3503 C3512 0.929 . S
C3504 H3498 0.930 . S
C3504 C3505 1.367 . S
C3504 C3512 1.378 . S
C3505 C3504 1.367 . S
C3505 C3513 1.433 . S
C3506 H3502 0.929 . S
C3506 C3508 1.378 . S
C3506 C3510 1.350 . S
C3507 C3510 1.463 . S
C3507 C3512 1.350 . S
C3507 N3515 1.427 . S
C3508 H3499 0.930 . S
C3508 C3506 1.378 . S
C3508 C3509 1.367 . S
C3509 C3508 1.367 . S
C3509 C3511 1.433 . S
C3510 C3506 1.350 . S
C3510 C3507 1.463 . S
C3510 N3514 1.427 . S
C3511 H3501 0.929 . S
C3511 C3509 1.433 . S
C3511 N3514 1.384 . S
C3512 H3503 0.929 . S
C3512 C3504 1.378 . S
C3512 C3507 1.350 . S
C3513 H3500 0.929 . S
C3513 C3505 1.433 . S
C3513 N3515 1.384 . S
N3514 C3510 1.427 . S
N3514 C3511 1.384 . S
N3515 C3507 1.427 . S
N3515 C3513 1.384 . S
H3516 C3522 0.930 . S
H3517 C3526 0.930 . S
H3518 C3531 0.929 . S
H3519 C3529 0.929 . S
H3520 C3524 0.929 . S
H3521 C3530 0.929 . S
C3522 H3516 0.930 . S
C3522 C3523 1.367 . S
C3522 C3530 1.378 . S
C3523 C3522 1.367 . S
C3523 C3531 1.433 . S
C3524 H3520 0.929 . S
C3524 C3526 1.378 . S
C3524 C3528 1.350 . S
C3525 C3528 1.463 . S
C3525 C3530 1.350 . S
C3525 N3533 1.427 . S
C3526 H3517 0.930 . S
C3526 C3524 1.378 . S
C3526 C3527 1.367 . S
C3527 C3526 1.367 . S
C3527 C3529 1.433 . S
C3528 C3524 1.350 . S
C3528 C3525 1.463 . S
C3528 N3532 1.427 . S
C3529 H3519 0.929 . S
C3529 C3527 1.433 . S
C3529 N3532 1.384 . S
C3530 H3521 0.929 . S
C3530 C3522 1.378 . S
C3530 C3525 1.350 . S
C3531 H3518 0.929 . S
C3531 C3523 1.433 . S
C3531 N3533 1.384 . S
N3532 C3528 1.427 . S
N3532 C3529 1.384 . S
N3533 C3525 1.427 . S
N3533 C3531 1.384 . S
H3534 C3540 0.930 . S
H3535 C3544 0.930 . S
H3536 C3549 0.929 . S
H3537 C3547 0.929 . S
H3538 C3542 0.929 . S
H3539 C3548 0.929 . S
C3540 H3534 0.930 . S
C3540 C3541 1.367 . S
C3540 C3548 1.378 . S
C3541 C3540 1.367 . S
C3541 C3549 1.433 . S
C3542 H3538 0.929 . S
C3542 C3544 1.378 . S
C3542 C3546 1.350 . S
C3543 C3546 1.463 . S
C3543 C3548 1.350 . S
C3543 N3551 1.427 . S
C3544 H3535 0.930 . S
C3544 C3542 1.378 . S
C3544 C3545 1.367 . S
C3545 C3544 1.367 . S
C3545 C3547 1.433 . S
C3546 C3542 1.350 . S
C3546 C3543 1.463 . S
C3546 N3550 1.427 . S
C3547 H3537 0.929 . S
C3547 C3545 1.433 . S
C3547 N3550 1.384 . S
C3548 H3539 0.929 . S
C3548 C3540 1.378 . S
C3548 C3543 1.350 . S
C3549 H3536 0.929 . S
C3549 C3541 1.433 . S
C3549 N3551 1.384 . S
N3550 C3546 1.427 . S
N3550 C3547 1.384 . S
N3551 C3543 1.427 . S
N3551 C3549 1.384 . S
H3552 C3558 0.930 . S
H3553 C3562 0.930 . S
H3554 C3567 0.929 . S
H3555 C3565 0.929 . S
H3556 C3560 0.929 . S
H3557 C3566 0.929 . S
C3558 H3552 0.930 . S
C3558 C3559 1.367 . S
C3558 C3566 1.378 . S
C3559 C3558 1.367 . S
C3559 C3567 1.433 . S
C3560 H3556 0.929 . S
C3560 C3562 1.378 . S
C3560 C3564 1.350 . S
C3561 C3564 1.463 . S
C3561 C3566 1.350 . S
C3561 N3569 1.427 . S
C3562 H3553 0.930 . S
C3562 C3560 1.378 . S
C3562 C3563 1.367 . S
C3563 C3562 1.367 . S
C3563 C3565 1.433 . S
C3564 C3560 1.350 . S
C3564 C3561 1.463 . S
C3564 N3568 1.427 . S
C3565 H3555 0.929 . S
C3565 C3563 1.433 . S
C3565 N3568 1.384 . S
C3566 H3557 0.929 . S
C3566 C3558 1.378 . S
C3566 C3561 1.350 . S
C3567 H3554 0.929 . S
C3567 C3559 1.433 . S
C3567 N3569 1.384 . S
N3568 C3564 1.427 . S
N3568 C3565 1.384 . S
N3569 C3561 1.427 . S
N3569 C3567 1.384 . S
H3570 C3576 0.930 . S
H3571 C3580 0.930 . S
H3572 C3585 0.929 . S
H3573 C3583 0.929 . S
H3574 C3578 0.929 . S
H3575 C3584 0.929 . S
C3576 H3570 0.930 . S
C3576 C3577 1.367 . S
C3576 C3584 1.378 . S
C3577 C3576 1.367 . S
C3577 C3585 1.433 . S
C3578 H3574 0.929 . S
C3578 C3580 1.378 . S
C3578 C3582 1.350 . S
C3579 C3582 1.463 . S
C3579 C3584 1.350 . S
C3579 N3587 1.427 . S
C3580 H3571 0.930 . S
C3580 C3578 1.378 . S
C3580 C3581 1.367 . S
C3581 C3580 1.367 . S
C3581 C3583 1.433 . S
C3582 C3578 1.350 . S
C3582 C3579 1.463 . S
C3582 N3586 1.427 . S
C3583 H3573 0.929 . S
C3583 C3581 1.433 . S
C3583 N3586 1.384 . S
C3584 H3575 0.929 . S
C3584 C3576 1.378 . S
C3584 C3579 1.350 . S
C3585 H3572 0.929 . S
C3585 C3577 1.433 . S
C3585 N3587 1.384 . S
N3586 C3582 1.427 . S
N3586 C3583 1.384 . S
N3587 C3579 1.427 . S
N3587 C3585 1.384 . S
H3588 C3594 0.930 . S
H3589 C3598 0.930 . S
H3590 C3603 0.929 . S
H3591 C3601 0.929 . S
H3592 C3596 0.929 . S
H3593 C3602 0.929 . S
C3594 H3588 0.930 . S
C3594 C3595 1.367 . S
C3594 C3602 1.378 . S
C3595 C3594 1.367 . S
C3595 C3603 1.433 . S
C3596 H3592 0.929 . S
C3596 C3598 1.378 . S
C3596 C3600 1.350 . S
C3597 C3600 1.463 . S
C3597 C3602 1.350 . S
C3597 N3605 1.427 . S
C3598 H3589 0.930 . S
C3598 C3596 1.378 . S
C3598 C3599 1.367 . S
C3599 C3598 1.367 . S
C3599 C3601 1.433 . S
C3600 C3596 1.350 . S
C3600 C3597 1.463 . S
C3600 N3604 1.427 . S
C3601 H3591 0.929 . S
C3601 C3599 1.433 . S
C3601 N3604 1.384 . S
C3602 H3593 0.929 . S
C3602 C3594 1.378 . S
C3602 C3597 1.350 . S
C3603 H3590 0.929 . S
C3603 C3595 1.433 . S
C3603 N3605 1.384 . S
N3604 C3600 1.427 . S
N3604 C3601 1.384 . S
N3605 C3597 1.427 . S
N3605 C3603 1.384 . S
H3606 C3612 0.930 . S
H3607 C3616 0.930 . S
H3608 C3621 0.929 . S
H3609 C3619 0.929 . S
H3610 C3614 0.929 . S
H3611 C3620 0.929 . S
C3612 H3606 0.930 . S
C3612 C3613 1.367 . S
C3612 C3620 1.378 . S
C3613 C3612 1.367 . S
C3613 C3621 1.433 . S
C3614 H3610 0.929 . S
C3614 C3616 1.378 . S
C3614 C3618 1.350 . S
C3615 C3618 1.463 . S
C3615 C3620 1.350 . S
C3615 N3623 1.427 . S
C3616 H3607 0.930 . S
C3616 C3614 1.378 . S
C3616 C3617 1.367 . S
C3617 C3616 1.367 . S
C3617 C3619 1.433 . S
C3618 C3614 1.350 . S
C3618 C3615 1.463 . S
C3618 N3622 1.427 . S
C3619 H3609 0.929 . S
C3619 C3617 1.433 . S
C3619 N3622 1.384 . S
C3620 H3611 0.929 . S
C3620 C3612 1.378 . S
C3620 C3615 1.350 . S
C3621 H3608 0.929 . S
C3621 C3613 1.433 . S
C3621 N3623 1.384 . S
N3622 C3618 1.427 . S
N3622 C3619 1.384 . S
N3623 C3615 1.427 . S
N3623 C3621 1.384 . S
H3624 C3630 0.930 . S
H3625 C3634 0.930 . S
H3626 C3639 0.929 . S
H3627 C3637 0.929 . S
H3628 C3632 0.929 . S
H3629 C3638 0.929 . S
C3630 H3624 0.930 . S
C3630 C3631 1.367 . S
C3630 C3638 1.378 . S
C3631 C3630 1.367 . S
C3631 C3639 1.433 . S
C3632 H3628 0.929 . S
C3632 C3634 1.378 . S
C3632 C3636 1.350 . S
C3633 C3636 1.463 . S
C3633 C3638 1.350 . S
C3633 N3641 1.427 . S
C3634 H3625 0.930 . S
C3634 C3632 1.378 . S
C3634 C3635 1.367 . S
C3635 C3634 1.367 . S
C3635 C3637 1.433 . S
C3636 C3632 1.350 . S
C3636 C3633 1.463 . S
C3636 N3640 1.427 . S
C3637 H3627 0.929 . S
C3637 C3635 1.433 . S
C3637 N3640 1.384 . S
C3638 H3629 0.929 . S
C3638 C3630 1.378 . S
C3638 C3633 1.350 . S
C3639 H3626 0.929 . S
C3639 C3631 1.433 . S
C3639 N3641 1.384 . S
N3640 C3636 1.427 . S
N3640 C3637 1.384 . S
N3641 C3633 1.427 . S
N3641 C3639 1.384 . S
H3642 C3648 0.930 . S
H3643 C3652 0.930 . S
H3644 C3657 0.929 . S
H3645 C3655 0.929 . S
H3646 C3650 0.929 . S
H3647 C3656 0.929 . S
C3648 H3642 0.930 . S
C3648 C3649 1.367 . S
C3648 C3656 1.378 . S
C3649 C3648 1.367 . S
C3649 C3657 1.433 . S
C3650 H3646 0.929 . S
C3650 C3652 1.378 . S
C3650 C3654 1.350 . S
C3651 C3654 1.463 . S
C3651 C3656 1.350 . S
C3651 N3659 1.427 . S
C3652 H3643 0.930 . S
C3652 C3650 1.378 . S
C3652 C3653 1.367 . S
C3653 C3652 1.367 . S
C3653 C3655 1.433 . S
C3654 C3650 1.350 . S
C3654 C3651 1.463 . S
C3654 N3658 1.427 . S
C3655 H3645 0.929 . S
C3655 C3653 1.433 . S
C3655 N3658 1.384 . S
C3656 H3647 0.929 . S
C3656 C3648 1.378 . S
C3656 C3651 1.350 . S
C3657 H3644 0.929 . S
C3657 C3649 1.433 . S
C3657 N3659 1.384 . S
N3658 C3654 1.427 . S
N3658 C3655 1.384 . S
N3659 C3651 1.427 . S
N3659 C3657 1.384 . S
H3660 C3666 0.930 . S
H3661 C3670 0.930 . S
H3662 C3675 0.929 . S
H3663 C3673 0.929 . S
H3664 C3668 0.929 . S
H3665 C3674 0.929 . S
C3666 H3660 0.930 . S
C3666 C3667 1.367 . S
C3666 C3674 1.378 . S
C3667 C3666 1.367 . S
C3667 C3675 1.433 . S
C3668 H3664 0.929 . S
C3668 C3670 1.378 . S
C3668 C3672 1.350 . S
C3669 C3672 1.463 . S
C3669 C3674 1.350 . S
C3669 N3677 1.427 . S
C3670 H3661 0.930 . S
C3670 C3668 1.378 . S
C3670 C3671 1.367 . S
C3671 C3670 1.367 . S
C3671 C3673 1.433 . S
C3672 C3668 1.350 . S
C3672 C3669 1.463 . S
C3672 N3676 1.427 . S
C3673 H3663 0.929 . S
C3673 C3671 1.433 . S
C3673 N3676 1.384 . S
C3674 H3665 0.929 . S
C3674 C3666 1.378 . S
C3674 C3669 1.350 . S
C3675 H3662 0.929 . S
C3675 C3667 1.433 . S
C3675 N3677 1.384 . S
N3676 C3672 1.427 . S
N3676 C3673 1.384 . S
N3677 C3669 1.427 . S
N3677 C3675 1.384 . S
H3678 C3684 0.930 . S
H3679 C3688 0.930 . S
H3680 C3693 0.929 . S
H3681 C3691 0.929 . S
H3682 C3686 0.929 . S
H3683 C3692 0.929 . S
C3684 H3678 0.930 . S
C3684 C3685 1.367 . S
C3684 C3692 1.378 . S
C3685 C3684 1.367 . S
C3685 C3693 1.433 . S
C3686 H3682 0.929 . S
C3686 C3688 1.378 . S
C3686 C3690 1.350 . S
C3687 C3690 1.463 . S
C3687 C3692 1.350 . S
C3687 N3695 1.427 . S
C3688 H3679 0.930 . S
C3688 C3686 1.378 . S
C3688 C3689 1.367 . S
C3689 C3688 1.367 . S
C3689 C3691 1.433 . S
C3690 C3686 1.350 . S
C3690 C3687 1.463 . S
C3690 N3694 1.427 . S
C3691 H3681 0.929 . S
C3691 C3689 1.433 . S
C3691 N3694 1.384 . S
C3692 H3683 0.929 . S
C3692 C3684 1.378 . S
C3692 C3687 1.350 . S
C3693 H3680 0.929 . S
C3693 C3685 1.433 . S
C3693 N3695 1.384 . S
N3694 C3690 1.427 . S
N3694 C3691 1.384 . S
N3695 C3687 1.427 . S
N3695 C3693 1.384 . S
H3696 C3702 0.930 . S
H3697 C3706 0.930 . S
H3698 C3711 0.929 . S
H3699 C3709 0.929 . S
H3700 C3704 0.929 . S
H3701 C3710 0.929 . S
C3702 H3696 0.930 . S
C3702 C3703 1.367 . S
C3702 C3710 1.378 . S
C3703 C3702 1.367 . S
C3703 C3711 1.433 . S
C3704 H3700 0.929 . S
C3704 C3706 1.378 . S
C3704 C3708 1.350 . S
C3705 C3708 1.463 . S
C3705 C3710 1.350 . S
C3705 N3713 1.427 . S
C3706 H3697 0.930 . S
C3706 C3704 1.378 . S
C3706 C3707 1.367 . S
C3707 C3706 1.367 . S
C3707 C3709 1.433 . S
C3708 C3704 1.350 . S
C3708 C3705 1.463 . S
C3708 N3712 1.427 . S
C3709 H3699 0.929 . S
C3709 C3707 1.433 . S
C3709 N3712 1.384 . S
C3710 H3701 0.929 . S
C3710 C3702 1.378 . S
C3710 C3705 1.350 . S
C3711 H3698 0.929 . S
C3711 C3703 1.433 . S
C3711 N3713 1.384 . S
N3712 C3708 1.427 . S
N3712 C3709 1.384 . S
N3713 C3705 1.427 . S
N3713 C3711 1.384 . S
H3714 C3720 0.930 . S
H3715 C3724 0.930 . S
H3716 C3729 0.929 . S
H3717 C3727 0.929 . S
H3718 C3722 0.929 . S
H3719 C3728 0.929 . S
C3720 H3714 0.930 . S
C3720 C3721 1.367 . S
C3720 C3728 1.378 . S
C3721 C3720 1.367 . S
C3721 C3729 1.433 . S
C3722 H3718 0.929 . S
C3722 C3724 1.378 . S
C3722 C3726 1.350 . S
C3723 C3726 1.463 . S
C3723 C3728 1.350 . S
C3723 N3731 1.427 . S
C3724 H3715 0.930 . S
C3724 C3722 1.378 . S
C3724 C3725 1.367 . S
C3725 C3724 1.367 . S
C3725 C3727 1.433 . S
C3726 C3722 1.350 . S
C3726 C3723 1.463 . S
C3726 N3730 1.427 . S
C3727 H3717 0.929 . S
C3727 C3725 1.433 . S
C3727 N3730 1.384 . S
C3728 H3719 0.929 . S
C3728 C3720 1.378 . S
C3728 C3723 1.350 . S
C3729 H3716 0.929 . S
C3729 C3721 1.433 . S
C3729 N3731 1.384 . S
N3730 C3726 1.427 . S
N3730 C3727 1.384 . S
N3731 C3723 1.427 . S
N3731 C3729 1.384 . S
H3732 C3738 0.930 . S
H3733 C3742 0.930 . S
H3734 C3747 0.929 . S
H3735 C3745 0.929 . S
H3736 C3740 0.929 . S
H3737 C3746 0.929 . S
C3738 H3732 0.930 . S
C3738 C3739 1.367 . S
C3738 C3746 1.378 . S
C3739 C3738 1.367 . S
C3739 C3747 1.433 . S
C3740 H3736 0.929 . S
C3740 C3742 1.378 . S
C3740 C3744 1.350 . S
C3741 C3744 1.463 . S
C3741 C3746 1.350 . S
C3741 N3749 1.427 . S
C3742 H3733 0.930 . S
C3742 C3740 1.378 . S
C3742 C3743 1.367 . S
C3743 C3742 1.367 . S
C3743 C3745 1.433 . S
C3744 C3740 1.350 . S
C3744 C3741 1.463 . S
C3744 N3748 1.427 . S
C3745 H3735 0.929 . S
C3745 C3743 1.433 . S
C3745 N3748 1.384 . S
C3746 H3737 0.929 . S
C3746 C3738 1.378 . S
C3746 C3741 1.350 . S
C3747 H3734 0.929 . S
C3747 C3739 1.433 . S
C3747 N3749 1.384 . S
N3748 C3744 1.427 . S
N3748 C3745 1.384 . S
N3749 C3741 1.427 . S
N3749 C3747 1.384 . S
H3750 C3756 0.930 . S
H3751 C3760 0.930 . S
H3752 C3765 0.929 . S
H3753 C3763 0.929 . S
H3754 C3758 0.929 . S
H3755 C3764 0.929 . S
C3756 H3750 0.930 . S
C3756 C3757 1.367 . S
C3756 C3764 1.378 . S
C3757 C3756 1.367 . S
C3757 C3765 1.433 . S
C3758 H3754 0.929 . S
C3758 C3760 1.378 . S
C3758 C3762 1.350 . S
C3759 C3762 1.463 . S
C3759 C3764 1.350 . S
C3759 N3767 1.427 . S
C3760 H3751 0.930 . S
C3760 C3758 1.378 . S
C3760 C3761 1.367 . S
C3761 C3760 1.367 . S
C3761 C3763 1.433 . S
C3762 C3758 1.350 . S
C3762 C3759 1.463 . S
C3762 N3766 1.427 . S
C3763 H3753 0.929 . S
C3763 C3761 1.433 . S
C3763 N3766 1.384 . S
C3764 H3755 0.929 . S
C3764 C3756 1.378 . S
C3764 C3759 1.350 . S
C3765 H3752 0.929 . S
C3765 C3757 1.433 . S
C3765 N3767 1.384 . S
N3766 C3762 1.427 . S
N3766 C3763 1.384 . S
N3767 C3759 1.427 . S
N3767 C3765 1.384 . S
H3768 C3774 0.930 . S
H3769 C3778 0.930 . S
H3770 C3783 0.929 . S
H3771 C3781 0.929 . S
H3772 C3776 0.929 . S
H3773 C3782 0.929 . S
C3774 H3768 0.930 . S
C3774 C3775 1.367 . S
C3774 C3782 1.378 . S
C3775 C3774 1.367 . S
C3775 C3783 1.433 . S
C3776 H3772 0.929 . S
C3776 C3778 1.378 . S
C3776 C3780 1.350 . S
C3777 C3780 1.463 . S
C3777 C3782 1.350 . S
C3777 N3785 1.427 . S
C3778 H3769 0.930 . S
C3778 C3776 1.378 . S
C3778 C3779 1.367 . S
C3779 C3778 1.367 . S
C3779 C3781 1.433 . S
C3780 C3776 1.350 . S
C3780 C3777 1.463 . S
C3780 N3784 1.427 . S
C3781 H3771 0.929 . S
C3781 C3779 1.433 . S
C3781 N3784 1.384 . S
C3782 H3773 0.929 . S
C3782 C3774 1.378 . S
C3782 C3777 1.350 . S
C3783 H3770 0.929 . S
C3783 C3775 1.433 . S
C3783 N3785 1.384 . S
N3784 C3780 1.427 . S
N3784 C3781 1.384 . S
N3785 C3777 1.427 . S
N3785 C3783 1.384 . S
H3786 C3792 0.930 . S
H3787 C3796 0.930 . S
H3788 C3801 0.929 . S
H3789 C3799 0.929 . S
H3790 C3794 0.929 . S
H3791 C3800 0.929 . S
C3792 H3786 0.930 . S
C3792 C3793 1.367 . S
C3792 C3800 1.378 . S
C3793 C3792 1.367 . S
C3793 C3801 1.433 . S
C3794 H3790 0.929 . S
C3794 C3796 1.378 . S
C3794 C3798 1.350 . S
C3795 C3798 1.463 . S
C3795 C3800 1.350 . S
C3795 N3803 1.427 . S
C3796 H3787 0.930 . S
C3796 C3794 1.378 . S
C3796 C3797 1.367 . S
C3797 C3796 1.367 . S
C3797 C3799 1.433 . S
C3798 C3794 1.350 . S
C3798 C3795 1.463 . S
C3798 N3802 1.427 . S
C3799 H3789 0.929 . S
C3799 C3797 1.433 . S
C3799 N3802 1.384 . S
C3800 H3791 0.929 . S
C3800 C3792 1.378 . S
C3800 C3795 1.350 . S
C3801 H3788 0.929 . S
C3801 C3793 1.433 . S
C3801 N3803 1.384 . S
N3802 C3798 1.427 . S
N3802 C3799 1.384 . S
N3803 C3795 1.427 . S
N3803 C3801 1.384 . S
H3804 C3810 0.930 . S
H3805 C3814 0.930 . S
H3806 C3819 0.929 . S
H3807 C3817 0.929 . S
H3808 C3812 0.929 . S
H3809 C3818 0.929 . S
C3810 H3804 0.930 . S
C3810 C3811 1.367 . S
C3810 C3818 1.378 . S
C3811 C3810 1.367 . S
C3811 C3819 1.433 . S
C3812 H3808 0.929 . S
C3812 C3814 1.378 . S
C3812 C3816 1.350 . S
C3813 C3816 1.463 . S
C3813 C3818 1.350 . S
C3813 N3821 1.427 . S
C3814 H3805 0.930 . S
C3814 C3812 1.378 . S
C3814 C3815 1.367 . S
C3815 C3814 1.367 . S
C3815 C3817 1.433 . S
C3816 C3812 1.350 . S
C3816 C3813 1.463 . S
C3816 N3820 1.427 . S
C3817 H3807 0.929 . S
C3817 C3815 1.433 . S
C3817 N3820 1.384 . S
C3818 H3809 0.929 . S
C3818 C3810 1.378 . S
C3818 C3813 1.350 . S
C3819 H3806 0.929 . S
C3819 C3811 1.433 . S
C3819 N3821 1.384 . S
N3820 C3816 1.427 . S
N3820 C3817 1.384 . S
N3821 C3813 1.427 . S
N3821 C3819 1.384 . S
H3822 C3828 0.930 . S
H3823 C3832 0.930 . S
H3824 C3837 0.929 . S
H3825 C3835 0.929 . S
H3826 C3830 0.929 . S
H3827 C3836 0.929 . S
C3828 H3822 0.930 . S
C3828 C3829 1.367 . S
C3828 C3836 1.378 . S
C3829 C3828 1.367 . S
C3829 C3837 1.433 . S
C3830 H3826 0.929 . S
C3830 C3832 1.378 . S
C3830 C3834 1.350 . S
C3831 C3834 1.463 . S
C3831 C3836 1.350 . S
C3831 N3839 1.427 . S
C3832 H3823 0.930 . S
C3832 C3830 1.378 . S
C3832 C3833 1.367 . S
C3833 C3832 1.367 . S
C3833 C3835 1.433 . S
C3834 C3830 1.350 . S
C3834 C3831 1.463 . S
C3834 N3838 1.427 . S
C3835 H3825 0.929 . S
C3835 C3833 1.433 . S
C3835 N3838 1.384 . S
C3836 H3827 0.929 . S
C3836 C3828 1.378 . S
C3836 C3831 1.350 . S
C3837 H3824 0.929 . S
C3837 C3829 1.433 . S
C3837 N3839 1.384 . S
N3838 C3834 1.427 . S
N3838 C3835 1.384 . S
N3839 C3831 1.427 . S
N3839 C3837 1.384 . S
H3840 C3846 0.930 . S
H3841 C3850 0.930 . S
H3842 C3855 0.929 . S
H3843 C3853 0.929 . S
H3844 C3848 0.929 . S
H3845 C3854 0.929 . S
C3846 H3840 0.930 . S
C3846 C3847 1.367 . S
C3846 C3854 1.378 . S
C3847 C3846 1.367 . S
C3847 C3855 1.433 . S
C3848 H3844 0.929 . S
C3848 C3850 1.378 . S
C3848 C3852 1.350 . S
C3849 C3852 1.463 . S
C3849 C3854 1.350 . S
C3849 N3857 1.427 . S
C3850 H3841 0.930 . S
C3850 C3848 1.378 . S
C3850 C3851 1.367 . S
C3851 C3850 1.367 . S
C3851 C3853 1.433 . S
C3852 C3848 1.350 . S
C3852 C3849 1.463 . S
C3852 N3856 1.427 . S
C3853 H3843 0.929 . S
C3853 C3851 1.433 . S
C3853 N3856 1.384 . S
C3854 H3845 0.929 . S
C3854 C3846 1.378 . S
C3854 C3849 1.350 . S
C3855 H3842 0.929 . S
C3855 C3847 1.433 . S
C3855 N3857 1.384 . S
N3856 C3852 1.427 . S
N3856 C3853 1.384 . S
N3857 C3849 1.427 . S
N3857 C3855 1.384 . S
H3858 C3864 0.930 . S
H3859 C3868 0.930 . S
H3860 C3873 0.929 . S
H3861 C3871 0.929 . S
H3862 C3866 0.929 . S
H3863 C3872 0.929 . S
C3864 H3858 0.930 . S
C3864 C3865 1.367 . S
C3864 C3872 1.378 . S
C3865 C3864 1.367 . S
C3865 C3873 1.433 . S
C3866 H3862 0.929 . S
C3866 C3868 1.378 . S
C3866 C3870 1.350 . S
C3867 C3870 1.463 . S
C3867 C3872 1.350 . S
C3867 N3875 1.427 . S
C3868 H3859 0.930 . S
C3868 C3866 1.378 . S
C3868 C3869 1.367 . S
C3869 C3868 1.367 . S
C3869 C3871 1.433 . S
C3870 C3866 1.350 . S
C3870 C3867 1.463 . S
C3870 N3874 1.427 . S
C3871 H3861 0.929 . S
C3871 C3869 1.433 . S
C3871 N3874 1.384 . S
C3872 H3863 0.929 . S
C3872 C3864 1.378 . S
C3872 C3867 1.350 . S
C3873 H3860 0.929 . S
C3873 C3865 1.433 . S
C3873 N3875 1.384 . S
N3874 C3870 1.427 . S
N3874 C3871 1.384 . S
N3875 C3867 1.427 . S
N3875 C3873 1.384 . S
H3876 C3882 0.930 . S
H3877 C3886 0.930 . S
H3878 C3891 0.929 . S
H3879 C3889 0.929 . S
H3880 C3884 0.929 . S
H3881 C3890 0.929 . S
C3882 H3876 0.930 . S
C3882 C3883 1.367 . S
C3882 C3890 1.378 . S
C3883 C3882 1.367 . S
C3883 C3891 1.433 . S
C3884 H3880 0.929 . S
C3884 C3886 1.378 . S
C3884 C3888 1.350 . S
C3885 C3888 1.463 . S
C3885 C3890 1.350 . S
C3885 N3893 1.427 . S
C3886 H3877 0.930 . S
C3886 C3884 1.378 . S
C3886 C3887 1.367 . S
C3887 C3886 1.367 . S
C3887 C3889 1.433 . S
C3888 C3884 1.350 . S
C3888 C3885 1.463 . S
C3888 N3892 1.427 . S
C3889 H3879 0.929 . S
C3889 C3887 1.433 . S
C3889 N3892 1.384 . S
C3890 H3881 0.929 . S
C3890 C3882 1.378 . S
C3890 C3885 1.350 . S
C3891 H3878 0.929 . S
C3891 C3883 1.433 . S
C3891 N3893 1.384 . S
N3892 C3888 1.427 . S
N3892 C3889 1.384 . S
N3893 C3885 1.427 . S
N3893 C3891 1.384 . S
H3894 C3900 0.930 . S
H3895 C3904 0.930 . S
H3896 C3909 0.929 . S
H3897 C3907 0.929 . S
H3898 C3902 0.929 . S
H3899 C3908 0.929 . S
C3900 H3894 0.930 . S
C3900 C3901 1.367 . S
C3900 C3908 1.378 . S
C3901 C3900 1.367 . S
C3901 C3909 1.433 . S
C3902 H3898 0.929 . S
C3902 C3904 1.378 . S
C3902 C3906 1.350 . S
C3903 C3906 1.463 . S
C3903 C3908 1.350 . S
C3903 N3911 1.427 . S
C3904 H3895 0.930 . S
C3904 C3902 1.378 . S
C3904 C3905 1.367 . S
C3905 C3904 1.367 . S
C3905 C3907 1.433 . S
C3906 C3902 1.350 . S
C3906 C3903 1.463 . S
C3906 N3910 1.427 . S
C3907 H3897 0.929 . S
C3907 C3905 1.433 . S
C3907 N3910 1.384 . S
C3908 H3899 0.929 . S
C3908 C3900 1.378 . S
C3908 C3903 1.350 . S
C3909 H3896 0.929 . S
C3909 C3901 1.433 . S
C3909 N3911 1.384 . S
N3910 C3906 1.427 . S
N3910 C3907 1.384 . S
N3911 C3903 1.427 . S
N3911 C3909 1.384 . S
H3912 C3918 0.930 . S
H3913 C3922 0.930 . S
H3914 C3927 0.929 . S
H3915 C3925 0.929 . S
H3916 C3920 0.929 . S
H3917 C3926 0.929 . S
C3918 H3912 0.930 . S
C3918 C3919 1.367 . S
C3918 C3926 1.378 . S
C3919 C3918 1.367 . S
C3919 C3927 1.433 . S
C3920 H3916 0.929 . S
C3920 C3922 1.378 . S
C3920 C3924 1.350 . S
C3921 C3924 1.463 . S
C3921 C3926 1.350 . S
C3921 N3929 1.427 . S
C3922 H3913 0.930 . S
C3922 C3920 1.378 . S
C3922 C3923 1.367 . S
C3923 C3922 1.367 . S
C3923 C3925 1.433 . S
C3924 C3920 1.350 . S
C3924 C3921 1.463 . S
C3924 N3928 1.427 . S
C3925 H3915 0.929 . S
C3925 C3923 1.433 . S
C3925 N3928 1.384 . S
C3926 H3917 0.929 . S
C3926 C3918 1.378 . S
C3926 C3921 1.350 . S
C3927 H3914 0.929 . S
C3927 C3919 1.433 . S
C3927 N3929 1.384 . S
N3928 C3924 1.427 . S
N3928 C3925 1.384 . S
N3929 C3921 1.427 . S
N3929 C3927 1.384 . S
H3930 C3936 0.930 . S
H3931 C3940 0.930 . S
H3932 C3945 0.929 . S
H3933 C3943 0.929 . S
H3934 C3938 0.929 . S
H3935 C3944 0.929 . S
C3936 H3930 0.930 . S
C3936 C3937 1.367 . S
C3936 C3944 1.378 . S
C3937 C3936 1.367 . S
C3937 C3945 1.433 . S
C3938 H3934 0.929 . S
C3938 C3940 1.378 . S
C3938 C3942 1.350 . S
C3939 C3942 1.463 . S
C3939 C3944 1.350 . S
C3939 N3947 1.427 . S
C3940 H3931 0.930 . S
C3940 C3938 1.378 . S
C3940 C3941 1.367 . S
C3941 C3940 1.367 . S
C3941 C3943 1.433 . S
C3942 C3938 1.350 . S
C3942 C3939 1.463 . S
C3942 N3946 1.427 . S
C3943 H3933 0.929 . S
C3943 C3941 1.433 . S
C3943 N3946 1.384 . S
C3944 H3935 0.929 . S
C3944 C3936 1.378 . S
C3944 C3939 1.350 . S
C3945 H3932 0.929 . S
C3945 C3937 1.433 . S
C3945 N3947 1.384 . S
N3946 C3942 1.427 . S
N3946 C3943 1.384 . S
N3947 C3939 1.427 . S
N3947 C3945 1.384 . S
H3948 C3954 0.930 . S
H3949 C3958 0.930 . S
H3950 C3963 0.929 . S
H3951 C3961 0.929 . S
H3952 C3956 0.929 . S
H3953 C3962 0.929 . S
C3954 H3948 0.930 . S
C3954 C3955 1.367 . S
C3954 C3962 1.378 . S
C3955 C3954 1.367 . S
C3955 C3963 1.433 . S
C3956 H3952 0.929 . S
C3956 C3958 1.378 . S
C3956 C3960 1.350 . S
C3957 C3960 1.463 . S
C3957 C3962 1.350 . S
C3957 N3965 1.427 . S
C3958 H3949 0.930 . S
C3958 C3956 1.378 . S
C3958 C3959 1.367 . S
C3959 C3958 1.367 . S
C3959 C3961 1.433 . S
C3960 C3956 1.350 . S
C3960 C3957 1.463 . S
C3960 N3964 1.427 . S
C3961 H3951 0.929 . S
C3961 C3959 1.433 . S
C3961 N3964 1.384 . S
C3962 H3953 0.929 . S
C3962 C3954 1.378 . S
C3962 C3957 1.350 . S
C3963 H3950 0.929 . S
C3963 C3955 1.433 . S
C3963 N3965 1.384 . S
N3964 C3960 1.427 . S
N3964 C3961 1.384 . S
N3965 C3957 1.427 . S
N3965 C3963 1.384 . S
H3966 C3972 0.930 . S
H3967 C3976 0.930 . S
H3968 C3981 0.929 . S
H3969 C3979 0.929 . S
H3970 C3974 0.929 . S
H3971 C3980 0.929 . S
C3972 H3966 0.930 . S
C3972 C3973 1.367 . S
C3972 C3980 1.378 . S
C3973 C3972 1.367 . S
C3973 C3981 1.433 . S
C3974 H3970 0.929 . S
C3974 C3976 1.378 . S
C3974 C3978 1.350 . S
C3975 C3978 1.463 . S
C3975 C3980 1.350 . S
C3975 N3983 1.427 . S
C3976 H3967 0.930 . S
C3976 C3974 1.378 . S
C3976 C3977 1.367 . S
C3977 C3976 1.367 . S
C3977 C3979 1.433 . S
C3978 C3974 1.350 . S
C3978 C3975 1.463 . S
C3978 N3982 1.427 . S
C3979 H3969 0.929 . S
C3979 C3977 1.433 . S
C3979 N3982 1.384 . S
C3980 H3971 0.929 . S
C3980 C3972 1.378 . S
C3980 C3975 1.350 . S
C3981 H3968 0.929 . S
C3981 C3973 1.433 . S
C3981 N3983 1.384 . S
N3982 C3978 1.427 . S
N3982 C3979 1.384 . S
N3983 C3975 1.427 . S
N3983 C3981 1.384 . S
H3984 C3990 0.930 . S
H3985 C3994 0.930 . S
H3986 C3999 0.929 . S
H3987 C3997 0.929 . S
H3988 C3992 0.929 . S
H3989 C3998 0.929 . S
C3990 H3984 0.930 . S
C3990 C3991 1.367 . S
C3990 C3998 1.378 . S
C3991 C3990 1.367 . S
C3991 C3999 1.433 . S
C3992 H3988 0.929 . S
C3992 C3994 1.378 . S
C3992 C3996 1.350 . S
C3993 C3996 1.463 . S
C3993 C3998 1.350 . S
C3993 N4001 1.427 . S
C3994 H3985 0.930 . S
C3994 C3992 1.378 . S
C3994 C3995 1.367 . S
C3995 C3994 1.367 . S
C3995 C3997 1.433 . S
C3996 C3992 1.350 . S
C3996 C3993 1.463 . S
C3996 N4000 1.427 . S
C3997 H3987 0.929 . S
C3997 C3995 1.433 . S
C3997 N4000 1.384 . S
C3998 H3989 0.929 . S
C3998 C3990 1.378 . S
C3998 C3993 1.350 . S
C3999 H3986 0.929 . S
C3999 C3991 1.433 . S
C3999 N4001 1.384 . S
N4000 C3996 1.427 . S
N4000 C3997 1.384 . S
N4001 C3993 1.427 . S
N4001 C3999 1.384 . S
H4002 C4008 0.930 . S
H4003 C4012 0.930 . S
H4004 C4017 0.929 . S
H4005 C4015 0.929 . S
H4006 C4010 0.929 . S
H4007 C4016 0.929 . S
C4008 H4002 0.930 . S
C4008 C4009 1.367 . S
C4008 C4016 1.378 . S
C4009 C4008 1.367 . S
C4009 C4017 1.433 . S
C4010 H4006 0.929 . S
C4010 C4012 1.378 . S
C4010 C4014 1.350 . S
C4011 C4014 1.463 . S
C4011 C4016 1.350 . S
C4011 N4019 1.427 . S
C4012 H4003 0.930 . S
C4012 C4010 1.378 . S
C4012 C4013 1.367 . S
C4013 C4012 1.367 . S
C4013 C4015 1.433 . S
C4014 C4010 1.350 . S
C4014 C4011 1.463 . S
C4014 N4018 1.427 . S
C4015 H4005 0.929 . S
C4015 C4013 1.433 . S
C4015 N4018 1.384 . S
C4016 H4007 0.929 . S
C4016 C4008 1.378 . S
C4016 C4011 1.350 . S
C4017 H4004 0.929 . S
C4017 C4009 1.433 . S
C4017 N4019 1.384 . S
N4018 C4014 1.427 . S
N4018 C4015 1.384 . S
N4019 C4011 1.427 . S
N4019 C4017 1.384 . S
H4020 C4026 0.930 . S
H4021 C4030 0.930 . S
H4022 C4035 0.929 . S
H4023 C4033 0.929 . S
H4024 C4028 0.929 . S
H4025 C4034 0.929 . S
C4026 H4020 0.930 . S
C4026 C4027 1.367 . S
C4026 C4034 1.378 . S
C4027 C4026 1.367 . S
C4027 C4035 1.433 . S
C4028 H4024 0.929 . S
C4028 C4030 1.378 . S
C4028 C4032 1.350 . S
C4029 C4032 1.463 . S
C4029 C4034 1.350 . S
C4029 N4037 1.427 . S
C4030 H4021 0.930 . S
C4030 C4028 1.378 . S
C4030 C4031 1.367 . S
C4031 C4030 1.367 . S
C4031 C4033 1.433 . S
C4032 C4028 1.350 . S
C4032 C4029 1.463 . S
C4032 N4036 1.427 . S
C4033 H4023 0.929 . S
C4033 C4031 1.433 . S
C4033 N4036 1.384 . S
C4034 H4025 0.929 . S
C4034 C4026 1.378 . S
C4034 C4029 1.350 . S
C4035 H4022 0.929 . S
C4035 C4027 1.433 . S
C4035 N4037 1.384 . S
N4036 C4032 1.427 . S
N4036 C4033 1.384 . S
N4037 C4029 1.427 . S
N4037 C4035 1.384 . S
H4038 C4044 0.930 . S
H4039 C4048 0.930 . S
H4040 C4053 0.929 . S
H4041 C4051 0.929 . S
H4042 C4046 0.929 . S
H4043 C4052 0.929 . S
C4044 H4038 0.930 . S
C4044 C4045 1.367 . S
C4044 C4052 1.378 . S
C4045 C4044 1.367 . S
C4045 C4053 1.433 . S
C4046 H4042 0.929 . S
C4046 C4048 1.378 . S
C4046 C4050 1.350 . S
C4047 C4050 1.463 . S
C4047 C4052 1.350 . S
C4047 N4055 1.427 . S
C4048 H4039 0.930 . S
C4048 C4046 1.378 . S
C4048 C4049 1.367 . S
C4049 C4048 1.367 . S
C4049 C4051 1.433 . S
C4050 C4046 1.350 . S
C4050 C4047 1.463 . S
C4050 N4054 1.427 . S
C4051 H4041 0.929 . S
C4051 C4049 1.433 . S
C4051 N4054 1.384 . S
C4052 H4043 0.929 . S
C4052 C4044 1.378 . S
C4052 C4047 1.350 . S
C4053 H4040 0.929 . S
C4053 C4045 1.433 . S
C4053 N4055 1.384 . S
N4054 C4050 1.427 . S
N4054 C4051 1.384 . S
N4055 C4047 1.427 . S
N4055 C4053 1.384 . S
H4056 C4062 0.930 . S
H4057 C4066 0.930 . S
H4058 C4071 0.929 . S
H4059 C4069 0.929 . S
H4060 C4064 0.929 . S
H4061 C4070 0.929 . S
C4062 H4056 0.930 . S
C4062 C4063 1.367 . S
C4062 C4070 1.378 . S
C4063 C4062 1.367 . S
C4063 C4071 1.433 . S
C4064 H4060 0.929 . S
C4064 C4066 1.378 . S
C4064 C4068 1.350 . S
C4065 C4068 1.463 . S
C4065 C4070 1.350 . S
C4065 N4073 1.427 . S
C4066 H4057 0.930 . S
C4066 C4064 1.378 . S
C4066 C4067 1.367 . S
C4067 C4066 1.367 . S
C4067 C4069 1.433 . S
C4068 C4064 1.350 . S
C4068 C4065 1.463 . S
C4068 N4072 1.427 . S
C4069 H4059 0.929 . S
C4069 C4067 1.433 . S
C4069 N4072 1.384 . S
C4070 H4061 0.929 . S
C4070 C4062 1.378 . S
C4070 C4065 1.350 . S
C4071 H4058 0.929 . S
C4071 C4063 1.433 . S
C4071 N4073 1.384 . S
N4072 C4068 1.427 . S
N4072 C4069 1.384 . S
N4073 C4065 1.427 . S
N4073 C4071 1.384 . S
H4074 C4080 0.930 . S
H4075 C4084 0.930 . S
H4076 C4089 0.929 . S
H4077 C4087 0.929 . S
H4078 C4082 0.929 . S
H4079 C4088 0.929 . S
C4080 H4074 0.930 . S
C4080 C4081 1.367 . S
C4080 C4088 1.378 . S
C4081 C4080 1.367 . S
C4081 C4089 1.433 . S
C4082 H4078 0.929 . S
C4082 C4084 1.378 . S
C4082 C4086 1.350 . S
C4083 C4086 1.463 . S
C4083 C4088 1.350 . S
C4083 N4091 1.427 . S
C4084 H4075 0.930 . S
C4084 C4082 1.378 . S
C4084 C4085 1.367 . S
C4085 C4084 1.367 . S
C4085 C4087 1.433 . S
C4086 C4082 1.350 . S
C4086 C4083 1.463 . S
C4086 N4090 1.427 . S
C4087 H4077 0.929 . S
C4087 C4085 1.433 . S
C4087 N4090 1.384 . S
C4088 H4079 0.929 . S
C4088 C4080 1.378 . S
C4088 C4083 1.350 . S
C4089 H4076 0.929 . S
C4089 C4081 1.433 . S
C4089 N4091 1.384 . S
N4090 C4086 1.427 . S
N4090 C4087 1.384 . S
N4091 C4083 1.427 . S
N4091 C4089 1.384 . S
H4092 C4098 0.930 . S
H4093 C4102 0.930 . S
H4094 C4107 0.929 . S
H4095 C4105 0.929 . S
H4096 C4100 0.929 . S
H4097 C4106 0.929 . S
C4098 H4092 0.930 . S
C4098 C4099 1.367 . S
C4098 C4106 1.378 . S
C4099 C4098 1.367 . S
C4099 C4107 1.433 . S
C4100 H4096 0.929 . S
C4100 C4102 1.378 . S
C4100 C4104 1.350 . S
C4101 C4104 1.463 . S
C4101 C4106 1.350 . S
C4101 N4109 1.427 . S
C4102 H4093 0.930 . S
C4102 C4100 1.378 . S
C4102 C4103 1.367 . S
C4103 C4102 1.367 . S
C4103 C4105 1.433 . S
C4104 C4100 1.350 . S
C4104 C4101 1.463 . S
C4104 N4108 1.427 . S
C4105 H4095 0.929 . S
C4105 C4103 1.433 . S
C4105 N4108 1.384 . S
C4106 H4097 0.929 . S
C4106 C4098 1.378 . S
C4106 C4101 1.350 . S
C4107 H4094 0.929 . S
C4107 C4099 1.433 . S
C4107 N4109 1.384 . S
N4108 C4104 1.427 . S
N4108 C4105 1.384 . S
N4109 C4101 1.427 . S
N4109 C4107 1.384 . S
H4110 C4116 0.930 . S
H4111 C4120 0.930 . S
H4112 C4125 0.929 . S
H4113 C4123 0.929 . S
H4114 C4118 0.929 . S
H4115 C4124 0.929 . S
C4116 H4110 0.930 . S
C4116 C4117 1.367 . S
C4116 C4124 1.378 . S
C4117 C4116 1.367 . S
C4117 C4125 1.433 . S
C4118 H4114 0.929 . S
C4118 C4120 1.378 . S
C4118 C4122 1.350 . S
C4119 C4122 1.463 . S
C4119 C4124 1.350 . S
C4119 N4127 1.427 . S
C4120 H4111 0.930 . S
C4120 C4118 1.378 . S
C4120 C4121 1.367 . S
C4121 C4120 1.367 . S
C4121 C4123 1.433 . S
C4122 C4118 1.350 . S
C4122 C4119 1.463 . S
C4122 N4126 1.427 . S
C4123 H4113 0.929 . S
C4123 C4121 1.433 . S
C4123 N4126 1.384 . S
C4124 H4115 0.929 . S
C4124 C4116 1.378 . S
C4124 C4119 1.350 . S
C4125 H4112 0.929 . S
C4125 C4117 1.433 . S
C4125 N4127 1.384 . S
N4126 C4122 1.427 . S
N4126 C4123 1.384 . S
N4127 C4119 1.427 . S
N4127 C4125 1.384 . S
H4128 C4134 0.930 . S
H4129 C4138 0.930 . S
H4130 C4143 0.929 . S
H4131 C4141 0.929 . S
H4132 C4136 0.929 . S
H4133 C4142 0.929 . S
C4134 H4128 0.930 . S
C4134 C4135 1.367 . S
C4134 C4142 1.378 . S
C4135 C4134 1.367 . S
C4135 C4143 1.433 . S
C4136 H4132 0.929 . S
C4136 C4138 1.378 . S
C4136 C4140 1.350 . S
C4137 C4140 1.463 . S
C4137 C4142 1.350 . S
C4137 N4145 1.427 . S
C4138 H4129 0.930 . S
C4138 C4136 1.378 . S
C4138 C4139 1.367 . S
C4139 C4138 1.367 . S
C4139 C4141 1.433 . S
C4140 C4136 1.350 . S
C4140 C4137 1.463 . S
C4140 N4144 1.427 . S
C4141 H4131 0.929 . S
C4141 C4139 1.433 . S
C4141 N4144 1.384 . S
C4142 H4133 0.929 . S
C4142 C4134 1.378 . S
C4142 C4137 1.350 . S
C4143 H4130 0.929 . S
C4143 C4135 1.433 . S
C4143 N4145 1.384 . S
N4144 C4140 1.427 . S
N4144 C4141 1.384 . S
N4145 C4137 1.427 . S
N4145 C4143 1.384 . S
H4146 C4152 0.930 . S
H4147 C4156 0.930 . S
H4148 C4161 0.929 . S
H4149 C4159 0.929 . S
H4150 C4154 0.929 . S
H4151 C4160 0.929 . S
C4152 H4146 0.930 . S
C4152 C4153 1.367 . S
C4152 C4160 1.378 . S
C4153 C4152 1.367 . S
C4153 C4161 1.433 . S
C4154 H4150 0.929 . S
C4154 C4156 1.378 . S
C4154 C4158 1.350 . S
C4155 C4158 1.463 . S
C4155 C4160 1.350 . S
C4155 N4163 1.427 . S
C4156 H4147 0.930 . S
C4156 C4154 1.378 . S
C4156 C4157 1.367 . S
C4157 C4156 1.367 . S
C4157 C4159 1.433 . S
C4158 C4154 1.350 . S
C4158 C4155 1.463 . S
C4158 N4162 1.427 . S
C4159 H4149 0.929 . S
C4159 C4157 1.433 . S
C4159 N4162 1.384 . S
C4160 H4151 0.929 . S
C4160 C4152 1.378 . S
C4160 C4155 1.350 . S
C4161 H4148 0.929 . S
C4161 C4153 1.433 . S
C4161 N4163 1.384 . S
N4162 C4158 1.427 . S
N4162 C4159 1.384 . S
N4163 C4155 1.427 . S
N4163 C4161 1.384 . S
H4164 C4170 0.930 . S
H4165 C4174 0.930 . S
H4166 C4179 0.929 . S
H4167 C4177 0.929 . S
H4168 C4172 0.929 . S
H4169 C4178 0.929 . S
C4170 H4164 0.930 . S
C4170 C4171 1.367 . S
C4170 C4178 1.378 . S
C4171 C4170 1.367 . S
C4171 C4179 1.433 . S
C4172 H4168 0.929 . S
C4172 C4174 1.378 . S
C4172 C4176 1.350 . S
C4173 C4176 1.463 . S
C4173 C4178 1.350 . S
C4173 N4181 1.427 . S
C4174 H4165 0.930 . S
C4174 C4172 1.378 . S
C4174 C4175 1.367 . S
C4175 C4174 1.367 . S
C4175 C4177 1.433 . S
C4176 C4172 1.350 . S
C4176 C4173 1.463 . S
C4176 N4180 1.427 . S
C4177 H4167 0.929 . S
C4177 C4175 1.433 . S
C4177 N4180 1.384 . S
C4178 H4169 0.929 . S
C4178 C4170 1.378 . S
C4178 C4173 1.350 . S
C4179 H4166 0.929 . S
C4179 C4171 1.433 . S
C4179 N4181 1.384 . S
N4180 C4176 1.427 . S
N4180 C4177 1.384 . S
N4181 C4173 1.427 . S
N4181 C4179 1.384 . S
H4182 C4188 0.930 . S
H4183 C4192 0.930 . S
H4184 C4197 0.929 . S
H4185 C4195 0.929 . S
H4186 C4190 0.929 . S
H4187 C4196 0.929 . S
C4188 H4182 0.930 . S
C4188 C4189 1.367 . S
C4188 C4196 1.378 . S
C4189 C4188 1.367 . S
C4189 C4197 1.433 . S
C4190 H4186 0.929 . S
C4190 C4192 1.378 . S
C4190 C4194 1.350 . S
C4191 C4194 1.463 . S
C4191 C4196 1.350 . S
C4191 N4199 1.427 . S
C4192 H4183 0.930 . S
C4192 C4190 1.378 . S
C4192 C4193 1.367 . S
C4193 C4192 1.367 . S
C4193 C4195 1.433 . S
C4194 C4190 1.350 . S
C4194 C4191 1.463 . S
C4194 N4198 1.427 . S
C4195 H4185 0.929 . S
C4195 C4193 1.433 . S
C4195 N4198 1.384 . S
C4196 H4187 0.929 . S
C4196 C4188 1.378 . S
C4196 C4191 1.350 . S
C4197 H4184 0.929 . S
C4197 C4189 1.433 . S
C4197 N4199 1.384 . S
N4198 C4194 1.427 . S
N4198 C4195 1.384 . S
N4199 C4191 1.427 . S
N4199 C4197 1.384 . S
H4200 C4206 0.930 . S
H4201 C4210 0.930 . S
H4202 C4215 0.929 . S
H4203 C4213 0.929 . S
H4204 C4208 0.929 . S
H4205 C4214 0.929 . S
C4206 H4200 0.930 . S
C4206 C4207 1.367 . S
C4206 C4214 1.378 . S
C4207 C4206 1.367 . S
C4207 C4215 1.433 . S
C4208 H4204 0.929 . S
C4208 C4210 1.378 . S
C4208 C4212 1.350 . S
C4209 C4212 1.463 . S
C4209 C4214 1.350 . S
C4209 N4217 1.427 . S
C4210 H4201 0.930 . S
C4210 C4208 1.378 . S
C4210 C4211 1.367 . S
C4211 C4210 1.367 . S
C4211 C4213 1.433 . S
C4212 C4208 1.350 . S
C4212 C4209 1.463 . S
C4212 N4216 1.427 . S
C4213 H4203 0.929 . S
C4213 C4211 1.433 . S
C4213 N4216 1.384 . S
C4214 H4205 0.929 . S
C4214 C4206 1.378 . S
C4214 C4209 1.350 . S
C4215 H4202 0.929 . S
C4215 C4207 1.433 . S
C4215 N4217 1.384 . S
N4216 C4212 1.427 . S
N4216 C4213 1.384 . S
N4217 C4209 1.427 . S
N4217 C4215 1.384 . S
H4218 C4224 0.930 . S
H4219 C4228 0.930 . S
H4220 C4233 0.929 . S
H4221 C4231 0.929 . S
H4222 C4226 0.929 . S
H4223 C4232 0.929 . S
C4224 H4218 0.930 . S
C4224 C4225 1.367 . S
C4224 C4232 1.378 . S
C4225 C4224 1.367 . S
C4225 C4233 1.433 . S
C4226 H4222 0.929 . S
C4226 C4228 1.378 . S
C4226 C4230 1.350 . S
C4227 C4230 1.463 . S
C4227 C4232 1.350 . S
C4227 N4235 1.427 . S
C4228 H4219 0.930 . S
C4228 C4226 1.378 . S
C4228 C4229 1.367 . S
C4229 C4228 1.367 . S
C4229 C4231 1.433 . S
C4230 C4226 1.350 . S
C4230 C4227 1.463 . S
C4230 N4234 1.427 . S
C4231 H4221 0.929 . S
C4231 C4229 1.433 . S
C4231 N4234 1.384 . S
C4232 H4223 0.929 . S
C4232 C4224 1.378 . S
C4232 C4227 1.350 . S
C4233 H4220 0.929 . S
C4233 C4225 1.433 . S
C4233 N4235 1.384 . S
N4234 C4230 1.427 . S
N4234 C4231 1.384 . S
N4235 C4227 1.427 . S
N4235 C4233 1.384 . S
H4236 C4242 0.930 . S
H4237 C4246 0.930 . S
H4238 C4251 0.929 . S
H4239 C4249 0.929 . S
H4240 C4244 0.929 . S
H4241 C4250 0.929 . S
C4242 H4236 0.930 . S
C4242 C4243 1.367 . S
C4242 C4250 1.378 . S
C4243 C4242 1.367 . S
C4243 C4251 1.433 . S
C4244 H4240 0.929 . S
C4244 C4246 1.378 . S
C4244 C4248 1.350 . S
C4245 C4248 1.463 . S
C4245 C4250 1.350 . S
C4245 N4253 1.427 . S
C4246 H4237 0.930 . S
C4246 C4244 1.378 . S
C4246 C4247 1.367 . S
C4247 C4246 1.367 . S
C4247 C4249 1.433 . S
C4248 C4244 1.350 . S
C4248 C4245 1.463 . S
C4248 N4252 1.427 . S
C4249 H4239 0.929 . S
C4249 C4247 1.433 . S
C4249 N4252 1.384 . S
C4250 H4241 0.929 . S
C4250 C4242 1.378 . S
C4250 C4245 1.350 . S
C4251 H4238 0.929 . S
C4251 C4243 1.433 . S
C4251 N4253 1.384 . S
N4252 C4248 1.427 . S
N4252 C4249 1.384 . S
N4253 C4245 1.427 . S
N4253 C4251 1.384 . S
H4254 C4260 0.930 . S
H4255 C4264 0.930 . S
H4256 C4269 0.929 . S
H4257 C4267 0.929 . S
H4258 C4262 0.929 . S
H4259 C4268 0.929 . S
C4260 H4254 0.930 . S
C4260 C4261 1.367 . S
C4260 C4268 1.378 . S
C4261 C4260 1.367 . S
C4261 C4269 1.433 . S
C4262 H4258 0.929 . S
C4262 C4264 1.378 . S
C4262 C4266 1.350 . S
C4263 C4266 1.463 . S
C4263 C4268 1.350 . S
C4263 N4271 1.427 . S
C4264 H4255 0.930 . S
C4264 C4262 1.378 . S
C4264 C4265 1.367 . S
C4265 C4264 1.367 . S
C4265 C4267 1.433 . S
C4266 C4262 1.350 . S
C4266 C4263 1.463 . S
C4266 N4270 1.427 . S
C4267 H4257 0.929 . S
C4267 C4265 1.433 . S
C4267 N4270 1.384 . S
C4268 H4259 0.929 . S
C4268 C4260 1.378 . S
C4268 C4263 1.350 . S
C4269 H4256 0.929 . S
C4269 C4261 1.433 . S
C4269 N4271 1.384 . S
N4270 C4266 1.427 . S
N4270 C4267 1.384 . S
N4271 C4263 1.427 . S
N4271 C4269 1.384 . S
H4272 C4278 0.930 . S
H4273 C4282 0.930 . S
H4274 C4287 0.929 . S
H4275 C4285 0.929 . S
H4276 C4280 0.929 . S
H4277 C4286 0.929 . S
C4278 H4272 0.930 . S
C4278 C4279 1.367 . S
C4278 C4286 1.378 . S
C4279 C4278 1.367 . S
C4279 C4287 1.433 . S
C4280 H4276 0.929 . S
C4280 C4282 1.378 . S
C4280 C4284 1.345 . S
C4281 C4284 1.471 1_556 S
C4281 C4286 1.350 . S
C4281 N4289 1.427 . S
C4282 H4273 0.930 . S
C4282 C4280 1.378 . S
C4282 C4283 1.367 . S
C4283 C4282 1.367 . S
C4283 C4285 1.433 . S
C4284 C4280 1.345 . S
C4284 C4281 1.471 1_554 S
C4284 N4288 1.424 . S
C4285 H4275 0.929 . S
C4285 C4283 1.433 . S
C4285 N4288 1.384 . S
C4286 H4277 0.929 . S
C4286 C4278 1.378 . S
C4286 C4281 1.350 . S
C4287 H4274 0.929 . S
C4287 C4279 1.433 . S
C4287 N4289 1.384 . S
N4288 C4284 1.424 . S
N4288 C4285 1.384 . S
N4289 C4281 1.427 . S
N4289 C4287 1.384 . S
H4290 C4296 0.930 . S
H4291 C4300 0.930 . S
H4292 C4305 0.929 . S
H4293 C4303 0.929 . S
H4294 C4298 0.929 . S
H4295 C4304 0.929 . S
C4296 H4290 0.930 . S
C4296 C4297 1.367 . S
C4296 C4304 1.378 . S
C4297 C4296 1.367 . S
C4297 C4305 1.433 . S
C4298 H4294 0.929 . S
C4298 C4300 1.378 . S
C4298 C4302 1.350 . S
C4299 C4302 1.471 1_554 S
C4299 C4304 1.346 . S
C4299 N4307 1.423 . S
C4300 H4291 0.930 . S
C4300 C4298 1.378 . S
C4300 C4301 1.367 . S
C4301 C4300 1.367 . S
C4301 C4303 1.433 . S
C4302 C4298 1.350 . S
C4302 C4299 1.471 1_556 S
C4302 N4306 1.427 . S
C4303 H4293 0.929 . S
C4303 C4301 1.433 . S
C4303 N4306 1.384 . S
C4304 H4295 0.929 . S
C4304 C4296 1.378 . S
C4304 C4299 1.346 . S
C4305 H4292 0.929 . S
C4305 C4297 1.433 . S
C4305 N4307 1.384 . S
N4306 C4302 1.427 . S
N4306 C4303 1.384 . S
N4307 C4299 1.423 . S
N4307 C4305 1.384 . S
H4308 C4314 0.930 . S
H4309 C4318 0.930 . S
H4310 C4323 0.929 . S
H4311 C4321 0.929 . S
H4312 C4316 0.929 . S
H4313 C4322 0.927 1_556 S
C4314 H4308 0.930 . S
C4314 C4315 1.367 . S
C4314 C4322 1.378 . S
C4315 C4314 1.367 . S
C4315 C4323 1.433 . S
C4316 H4312 0.929 . S
C4316 C4318 1.378 . S
C4316 C4320 1.350 . S
C4317 C4320 1.458 . S
C4317 C4322 1.352 1_556 S
C4317 N4325 1.430 1_556 S
C4318 H4309 0.930 . S
C4318 C4316 1.378 . S
C4318 C4319 1.367 . S
C4319 C4318 1.367 . S
C4319 C4321 1.433 . S
C4320 C4316 1.350 . S
C4320 C4317 1.458 . S
C4320 N4324 1.427 . S
C4321 H4311 0.929 . S
C4321 C4319 1.433 . S
C4321 N4324 1.384 . S
C4322 H4313 0.927 1_554 S
C4322 C4314 1.378 . S
C4322 C4317 1.352 1_554 S
C4323 H4310 0.929 . S
C4323 C4315 1.433 . S
C4323 N4325 1.384 . S
N4324 C4320 1.427 . S
N4324 C4321 1.384 . S
N4325 C4317 1.430 1_554 S
N4325 C4323 1.384 . S
H4326 C4332 0.930 . S
H4327 C4336 0.930 . S
H4328 C4341 0.929 . S
H4329 C4339 0.929 . S
H4330 C4334 0.929 . S
H4331 C4340 0.929 . S
C4332 H4326 0.930 . S
C4332 C4333 1.367 . S
C4332 C4340 1.378 . S
C4333 C4332 1.367 . S
C4333 C4341 1.433 . S
C4334 H4330 0.929 . S
C4334 C4336 1.378 . S
C4334 C4338 1.350 . S
C4335 C4338 1.470 1_554 S
C4335 C4340 1.346 . S
C4335 N4343 1.424 . S
C4336 H4327 0.930 . S
C4336 C4334 1.378 . S
C4336 C4337 1.367 . S
C4337 C4336 1.367 . S
C4337 C4339 1.433 . S
C4338 C4334 1.350 . S
C4338 C4335 1.470 1_556 S
C4338 N4342 1.427 . S
C4339 H4329 0.929 . S
C4339 C4337 1.433 . S
C4339 N4342 1.384 . S
C4340 H4331 0.929 . S
C4340 C4332 1.378 . S
C4340 C4335 1.346 . S
C4341 H4328 0.929 . S
C4341 C4333 1.433 . S
C4341 N4343 1.384 . S
N4342 C4338 1.427 . S
N4342 C4339 1.384 . S
N4343 C4335 1.424 . S
N4343 C4341 1.384 . S
H4344 C4350 0.930 . S
H4345 C4354 0.930 . S
H4346 C4359 0.929 . S
H4347 C4357 0.929 . S
H4348 C4352 0.926 . S
H4349 C4358 0.929 . S
C4350 H4344 0.930 . S
C4350 C4351 1.367 . S
C4350 C4358 1.378 . S
C4351 C4350 1.367 . S
C4351 C4359 1.433 . S
C4352 H4348 0.926 . S
C4352 C4354 1.378 . S
C4352 C4356 1.352 1_556 S
C4353 C4356 1.458 . S
C4353 C4358 1.350 . S
C4353 N4361 1.427 . S
C4354 H4345 0.930 . S
C4354 C4352 1.378 . S
C4354 C4355 1.367 . S
C4355 C4354 1.367 . S
C4355 C4357 1.433 . S
C4356 C4352 1.352 1_554 S
C4356 C4353 1.458 . S
C4356 N4360 1.430 1_554 S
C4357 H4347 0.929 . S
C4357 C4355 1.433 . S
C4357 N4360 1.384 . S
C4358 H4349 0.929 . S
C4358 C4350 1.378 . S
C4358 C4353 1.350 . S
C4359 H4346 0.929 . S
C4359 C4351 1.433 . S
C4359 N4361 1.384 . S
N4360 C4356 1.430 1_556 S
N4360 C4357 1.384 . S
N4361 C4353 1.427 . S
N4361 C4359 1.384 . S
H4362 C4368 0.930 . S
H4363 C4372 0.930 . S
H4364 C4377 0.929 . S
H4365 C4375 0.929 . S
H4366 C4370 0.929 . S
H4367 C4376 0.929 . S
C4368 H4362 0.930 . S
C4368 C4369 1.367 . S
C4368 C4376 1.378 . S
C4369 C4368 1.367 . S
C4369 C4377 1.433 . S
C4370 H4366 0.929 . S
C4370 C4372 1.378 . S
C4370 C4374 1.350 . S
C4371 C4374 1.472 1_556 S
C4371 C4376 1.345 . S
C4371 N4379 1.423 . S
C4372 H4363 0.930 . S
C4372 C4370 1.378 . S
C4372 C4373 1.367 . S
C4373 C4372 1.367 . S
C4373 C4375 1.433 . S
C4374 C4370 1.350 . S
C4374 C4371 1.472 1_554 S
C4374 N4378 1.427 . S
C4375 H4365 0.929 . S
C4375 C4373 1.433 . S
C4375 N4378 1.384 . S
C4376 H4367 0.929 . S
C4376 C4368 1.378 . S
C4376 C4371 1.345 . S
C4377 H4364 0.929 . S
C4377 C4369 1.433 . S
C4377 N4379 1.384 . S
N4378 C4374 1.427 . S
N4378 C4375 1.384 . S
N4379 C4371 1.423 . S
N4379 C4377 1.384 . S
H4380 C4386 0.930 . S
H4381 C4390 0.930 . S
H4382 C4395 0.929 . S
H4383 C4393 0.929 . S
H4384 C4388 0.929 . S
H4385 C4394 0.929 . S
C4386 H4380 0.930 . S
C4386 C4387 1.367 . S
C4386 C4394 1.378 . S
C4387 C4386 1.367 . S
C4387 C4395 1.433 . S
C4388 H4384 0.929 . S
C4388 C4390 1.378 . S
C4388 C4392 1.355 1_556 S
C4389 C4392 1.453 . S
C4389 C4394 1.350 . S
C4389 N4397 1.427 . S
C4390 H4381 0.930 . S
C4390 C4388 1.378 . S
C4390 C4391 1.367 . S
C4391 C4390 1.367 . S
C4391 C4393 1.433 . S
C4392 C4388 1.355 1_554 S
C4392 C4389 1.453 . S
C4392 N4396 1.432 1_554 S
C4393 H4383 0.929 . S
C4393 C4391 1.433 . S
C4393 N4396 1.384 . S
C4394 H4385 0.929 . S
C4394 C4386 1.378 . S
C4394 C4389 1.350 . S
C4395 H4382 0.929 . S
C4395 C4387 1.433 . S
C4395 N4397 1.384 . S
N4396 C4392 1.432 1_556 S
N4396 C4393 1.384 . S
N4397 C4389 1.427 . S
N4397 C4395 1.384 . S
H4398 C4404 0.930 . S
H4399 C4408 0.930 . S
H4400 C4413 0.929 . S
H4401 C4411 0.929 . S
H4402 C4406 0.929 . S
H4403 C4412 0.921 1_554 S
C4404 H4398 0.930 . S
C4404 C4405 1.367 . S
C4404 C4412 1.378 . S
C4405 C4404 1.367 . S
C4405 C4413 1.433 . S
C4406 H4402 0.929 . S
C4406 C4408 1.378 . S
C4406 C4410 1.350 . S
C4407 C4410 1.456 . S
C4407 C4412 1.353 1_554 S
C4407 N4415 1.431 1_554 S
C4408 H4399 0.930 . S
C4408 C4406 1.378 . S
C4408 C4409 1.367 . S
C4409 C4408 1.367 . S
C4409 C4411 1.433 . S
C4410 C4406 1.350 . S
C4410 C4407 1.456 . S
C4410 N4414 1.427 . S
C4411 H4401 0.929 . S
C4411 C4409 1.433 . S
C4411 N4414 1.384 . S
C4412 H4403 0.921 1_556 S
C4412 C4404 1.378 . S
C4412 C4407 1.353 1_556 S
C4413 H4400 0.929 . S
C4413 C4405 1.433 . S
C4413 N4415 1.384 . S
N4414 C4410 1.427 . S
N4414 C4411 1.384 . S
N4415 C4407 1.431 1_556 S
N4415 C4413 1.384 . S
H4416 C4422 0.930 . S
H4417 C4426 0.930 . S
H4418 C4431 0.929 . S
H4419 C4429 0.929 . S
H4420 C4424 0.919 1_655 S
H4421 C4430 0.929 . S
C4422 H4416 0.930 . S
C4422 C4423 1.367 . S
C4422 C4430 1.378 . S
C4423 C4422 1.367 . S
C4423 C4431 1.433 . S
C4424 H4420 0.919 1_455 S
C4424 C4426 1.378 . S
C4424 C4428 1.352 1_455 S
C4425 C4428 1.457 . S
C4425 C4430 1.350 . S
C4425 N4433 1.427 . S
C4426 H4417 0.930 . S
C4426 C4424 1.378 . S
C4426 C4427 1.367 . S
C4427 C4426 1.367 . S
C4427 C4429 1.433 . S
C4428 C4424 1.352 1_655 S
C4428 C4425 1.457 . S
C4428 N4432 1.430 1_655 S
C4429 H4419 0.929 . S
C4429 C4427 1.433 . S
C4429 N4432 1.384 . S
C4430 H4421 0.929 . S
C4430 C4422 1.378 . S
C4430 C4425 1.350 . S
C4431 H4418 0.929 . S
C4431 C4423 1.433 . S
C4431 N4433 1.384 . S
N4432 C4428 1.430 1_455 S
N4432 C4429 1.384 . S
N4433 C4425 1.427 . S
N4433 C4431 1.384 . S
H4434 C4440 0.930 . S
H4435 C4444 0.930 . S
H4436 C4449 0.929 . S
H4437 C4447 0.929 . S
H4438 C4442 0.929 . S
H4439 C4448 0.919 1_565 S
C4440 H4434 0.930 . S
C4440 C4441 1.367 . S
C4440 C4448 1.378 . S
C4441 C4440 1.367 . S
C4441 C4449 1.433 . S
C4442 H4438 0.929 . S
C4442 C4444 1.378 . S
C4442 C4446 1.350 . S
C4443 C4446 1.459 . S
C4443 C4448 1.351 1_565 S
C4443 N4451 1.429 1_565 S
C4444 H4435 0.930 . S
C4444 C4442 1.378 . S
C4444 C4445 1.367 . S
C4445 C4444 1.367 . S
C4445 C4447 1.433 . S
C4446 C4442 1.350 . S
C4446 C4443 1.459 . S
C4446 N4450 1.427 . S
C4447 H4437 0.929 . S
C4447 C4445 1.433 . S
C4447 N4450 1.384 . S
C4448 H4439 0.919 1_545 S
C4448 C4440 1.378 . S
C4448 C4443 1.351 1_545 S
C4449 H4436 0.929 . S
C4449 C4441 1.433 . S
C4449 N4451 1.384 . S
N4450 C4446 1.427 . S
N4450 C4447 1.384 . S
N4451 C4443 1.429 1_545 S
N4451 C4449 1.384 . S
H4452 C4458 0.930 . S
H4453 C4462 0.930 . S
H4454 C4467 0.929 . S
H4455 C4465 0.929 . S
H4456 C4460 0.929 . S
H4457 C4466 0.929 . S
C4458 H4452 0.930 . S
C4458 C4459 1.367 . S
C4458 C4466 1.378 . S
C4459 C4458 1.367 . S
C4459 C4467 1.433 . S
C4460 H4456 0.929 . S
C4460 C4462 1.378 . S
C4460 C4464 1.346 . S
C4461 C4464 1.469 1_455 S
C4461 C4466 1.350 . S
C4461 N4469 1.427 . S
C4462 H4453 0.930 . S
C4462 C4460 1.378 . S
C4462 C4463 1.367 . S
C4463 C4462 1.367 . S
C4463 C4465 1.433 . S
C4464 C4460 1.346 . S
C4464 C4461 1.469 1_655 S
C4464 N4468 1.425 . S
C4465 H4455 0.929 . S
C4465 C4463 1.433 . S
C4465 N4468 1.384 . S
C4466 H4457 0.929 . S
C4466 C4458 1.378 . S
C4466 C4461 1.350 . S
C4467 H4454 0.929 . S
C4467 C4459 1.433 . S
C4467 N4469 1.384 . S
N4468 C4464 1.425 . S
N4468 C4465 1.384 . S
N4469 C4461 1.427 . S
N4469 C4467 1.384 . S
H4470 C4476 0.930 . S
H4471 C4480 0.930 . S
H4472 C4485 0.929 . S
H4473 C4483 0.929 . S
H4474 C4478 0.929 . S
H4475 C4484 0.929 . S
C4476 H4470 0.930 . S
C4476 C4477 1.367 . S
C4476 C4484 1.378 . S
C4477 C4476 1.367 . S
C4477 C4485 1.433 . S
C4478 H4474 0.929 . S
C4478 C4480 1.378 . S
C4478 C4482 1.350 . S
C4479 C4482 1.470 1_565 S
C4479 C4484 1.346 . S
C4479 N4487 1.425 . S
C4480 H4471 0.930 . S
C4480 C4478 1.378 . S
C4480 C4481 1.367 . S
C4481 C4480 1.367 . S
C4481 C4483 1.433 . S
C4482 C4478 1.350 . S
C4482 C4479 1.470 1_545 S
C4482 N4486 1.427 . S
C4483 H4473 0.929 . S
C4483 C4481 1.433 . S
C4483 N4486 1.384 . S
C4484 H4475 0.929 . S
C4484 C4476 1.378 . S
C4484 C4479 1.346 . S
C4485 H4472 0.929 . S
C4485 C4477 1.433 . S
C4485 N4487 1.384 . S
N4486 C4482 1.427 . S
N4486 C4483 1.384 . S
N4487 C4479 1.425 . S
N4487 C4485 1.384 . S
H4488 C4494 0.930 . S
H4489 C4498 0.930 . S
H4490 C4503 0.929 . S
H4491 C4501 0.929 . S
H4492 C4496 0.929 . S
H4493 C4502 0.929 . S
C4494 H4488 0.930 . S
C4494 C4495 1.367 . S
C4494 C4502 1.378 . S
C4495 C4494 1.367 . S
C4495 C4503 1.433 . S
C4496 H4492 0.929 . S
C4496 C4498 1.378 . S
C4496 C4500 1.350 . S
C4497 C4500 1.454 . S
C4497 C4502 1.354 1_655 S
C4497 N4505 1.432 1_655 S
C4498 H4489 0.930 . S
C4498 C4496 1.378 . S
C4498 C4499 1.367 . S
C4499 C4498 1.367 . S
C4499 C4501 1.433 . S
C4500 C4496 1.350 . S
C4500 C4497 1.454 . S
C4500 N4504 1.427 . S
C4501 H4491 0.929 . S
C4501 C4499 1.433 . S
C4501 N4504 1.384 . S
C4502 H4493 0.929 . S
C4502 C4494 1.378 . S
C4502 C4497 1.354 1_455 S
C4503 H4490 0.929 . S
C4503 C4495 1.433 . S
C4503 N4505 1.384 . S
N4504 C4500 1.427 . S
N4504 C4501 1.384 . S
N4505 C4497 1.432 1_455 S
N4505 C4503 1.384 . S
H4506 C4512 0.930 . S
H4507 C4516 0.930 . S
H4508 C4521 0.929 . S
H4509 C4519 0.929 . S
H4510 C4514 0.929 . S
H4511 C4520 0.929 . S
C4512 H4506 0.930 . S
C4512 C4513 1.367 . S
C4512 C4520 1.378 . S
C4513 C4512 1.367 . S
C4513 C4521 1.433 . S
C4514 H4510 0.929 . S
C4514 C4516 1.378 . S
C4514 C4518 1.350 . S
C4515 C4518 1.470 1_545 S
C4515 C4520 1.346 . S
C4515 N4523 1.425 . S
C4516 H4507 0.930 . S
C4516 C4514 1.378 . S
C4516 C4517 1.367 . S
C4517 C4516 1.367 . S
C4517 C4519 1.433 . S
C4518 C4514 1.350 . S
C4518 C4515 1.470 1_565 S
C4518 N4522 1.427 . S
C4519 H4509 0.929 . S
C4519 C4517 1.433 . S
C4519 N4522 1.384 . S
C4520 H4511 0.929 . S
C4520 C4512 1.378 . S
C4520 C4515 1.346 . S
C4521 H4508 0.929 . S
C4521 C4513 1.433 . S
C4521 N4523 1.384 . S
N4522 C4518 1.427 . S
N4522 C4519 1.384 . S
N4523 C4515 1.425 . S
N4523 C4521 1.384 . S
H4524 C4530 0.930 . S
H4525 C4534 0.930 . S
H4526 C4539 0.929 . S
H4527 C4537 0.929 . S
H4528 C4532 0.929 . S
H4529 C4538 0.963 . S
C4530 H4524 0.930 . S
C4530 C4531 1.367 . S
C4530 C4538 1.378 . S
C4531 C4530 1.367 . S
C4531 C4539 1.433 . S
C4532 H4528 0.929 . S
C4532 C4534 1.378 . S
C4532 C4536 1.350 . S
C4533 C4536 1.455 . S
C4533 C4538 1.353 1_455 S
C4533 N4541 1.431 1_455 S
C4534 H4525 0.930 . S
C4534 C4532 1.378 . S
C4534 C4535 1.367 . S
C4535 C4534 1.367 . S
C4535 C4537 1.433 . S
C4536 C4532 1.350 . S
C4536 C4533 1.455 . S
C4536 N4540 1.427 . S
C4537 H4527 0.929 . S
C4537 C4535 1.433 . S
C4537 N4540 1.384 . S
C4538 H4529 0.963 . S
C4538 C4530 1.378 . S
C4538 C4533 1.353 1_655 S
C4539 H4526 0.929 . S
C4539 C4531 1.433 . S
C4539 N4541 1.384 . S
N4540 C4536 1.427 . S
N4540 C4537 1.384 . S
N4541 C4533 1.431 1_655 S
N4541 C4539 1.384 . S
H4542 C4548 0.930 . S
H4543 C4552 0.930 . S
H4544 C4557 0.929 . S
H4545 C4555 0.929 . S
H4546 C4550 0.929 . S
H4547 C4556 0.929 . S
C4548 H4542 0.930 . S
C4548 C4549 1.367 . S
C4548 C4556 1.378 . S
C4549 C4548 1.367 . S
C4549 C4557 1.433 . S
C4550 H4546 0.929 . S
C4550 C4552 1.378 . S
C4550 C4554 1.350 . S
C4551 C4554 1.455 . S
C4551 C4556 1.353 1_545 S
C4551 N4559 1.431 1_545 S
C4552 H4543 0.930 . S
C4552 C4550 1.378 . S
C4552 C4553 1.367 . S
C4553 C4552 1.367 . S
C4553 C4555 1.433 . S
C4554 C4550 1.350 . S
C4554 C4551 1.455 . S
C4554 N4558 1.427 . S
C4555 H4545 0.929 . S
C4555 C4553 1.433 . S
C4555 N4558 1.384 . S
C4556 H4547 0.929 . S
C4556 C4548 1.378 . S
C4556 C4551 1.353 1_565 S
C4557 H4544 0.929 . S
C4557 C4549 1.433 . S
C4557 N4559 1.384 . S
N4558 C4554 1.427 . S
N4558 C4555 1.384 . S
N4559 C4551 1.431 1_565 S
N4559 C4557 1.384 . S
H4560 C4566 0.930 . S
H4561 C4570 0.930 . S
H4562 C4575 0.929 . S
H4563 C4573 0.929 . S
H4564 C4568 0.929 . S
H4565 C4574 0.929 . S
C4566 H4560 0.930 . S
C4566 C4567 1.367 . S
C4566 C4574 1.378 . S
C4567 C4566 1.367 . S
C4567 C4575 1.433 . S
C4568 H4564 0.929 . S
C4568 C4570 1.378 . S
C4568 C4572 1.346 . S
C4569 C4572 1.469 1_565 S
C4569 C4574 1.350 . S
C4569 N4577 1.427 . S
C4570 H4561 0.930 . S
C4570 C4568 1.378 . S
C4570 C4571 1.367 . S
C4571 C4570 1.367 . S
C4571 C4573 1.433 . S
C4572 C4568 1.346 . S
C4572 C4569 1.469 1_545 S
C4572 N4576 1.425 . S
C4573 H4563 0.929 . S
C4573 C4571 1.433 . S
C4573 N4576 1.384 . S
C4574 H4565 0.929 . S
C4574 C4566 1.378 . S
C4574 C4569 1.350 . S
C4575 H4562 0.929 . S
C4575 C4567 1.433 . S
C4575 N4577 1.384 . S
N4576 C4572 1.425 . S
N4576 C4573 1.384 . S
N4577 C4569 1.427 . S
N4577 C4575 1.384 . S
H4578 C4584 0.930 . S
H4579 C4588 0.930 . S
H4580 C4593 0.929 . S
H4581 C4591 0.929 . S
H4582 C4586 0.929 . S
H4583 C4592 0.929 . S
C4584 H4578 0.930 . S
C4584 C4585 1.367 . S
C4584 C4592 1.378 . S
C4585 C4584 1.367 . S
C4585 C4593 1.433 . S
C4586 H4582 0.929 . S
C4586 C4588 1.378 . S
C4586 C4590 1.350 . S
C4587 C4590 1.468 1_565 S
C4587 C4592 1.347 . S
C4587 N4595 1.425 . S
C4588 H4579 0.930 . S
C4588 C4586 1.378 . S
C4588 C4589 1.367 . S
C4589 C4588 1.367 . S
C4589 C4591 1.433 . S
C4590 C4586 1.350 . S
C4590 C4587 1.468 1_545 S
C4590 N4594 1.427 . S
C4591 H4581 0.929 . S
C4591 C4589 1.433 . S
C4591 N4594 1.384 . S
C4592 H4583 0.929 . S
C4592 C4584 1.378 . S
C4592 C4587 1.347 . S
C4593 H4580 0.929 . S
C4593 C4585 1.433 . S
C4593 N4595 1.384 . S
N4594 C4590 1.427 . S
N4594 C4591 1.384 . S
N4595 C4587 1.425 . S
N4595 C4593 1.384 . S
H4596 C4602 0.930 . S
H4597 C4606 0.930 . S
H4598 C4611 0.929 . S
H4599 C4609 0.929 . S
H4600 C4604 0.929 . S
H4601 C4610 0.929 . S
C4602 H4596 0.930 . S
C4602 C4603 1.367 . S
C4602 C4610 1.378 . S
C4603 C4602 1.367 . S
C4603 C4611 1.433 . S
C4604 H4600 0.929 . S
C4604 C4606 1.378 . S
C4604 C4608 1.350 . S
C4605 C4608 1.471 1_455 S
C4605 C4610 1.346 . S
C4605 N4613 1.424 . S
C4606 H4597 0.930 . S
C4606 C4604 1.378 . S
C4606 C4607 1.367 . S
C4607 C4606 1.367 . S
C4607 C4609 1.433 . S
C4608 C4604 1.350 . S
C4608 C4605 1.471 1_655 S
C4608 N4612 1.427 . S
C4609 H4599 0.929 . S
C4609 C4607 1.433 . S
C4609 N4612 1.384 . S
C4610 H4601 0.929 . S
C4610 C4602 1.378 . S
C4610 C4605 1.346 . S
C4611 H4598 0.929 . S
C4611 C4603 1.433 . S
C4611 N4613 1.384 . S
N4612 C4608 1.427 . S
N4612 C4609 1.384 . S
N4613 C4605 1.424 . S
N4613 C4611 1.384 . S
H4614 C4620 0.930 . S
H4615 C4624 0.930 . S
H4616 C4629 0.929 . S
H4617 C4627 0.929 . S
H4618 C4622 0.929 . S
H4619 C4628 0.929 . S
C4620 H4614 0.930 . S
C4620 C4621 1.367 . S
C4620 C4628 1.378 . S
C4621 C4620 1.367 . S
C4621 C4629 1.433 . S
C4622 H4618 0.929 . S
C4622 C4624 1.378 . S
C4622 C4626 1.350 . S
C4623 C4626 1.472 1_545 S
C4623 C4628 1.345 . S
C4623 N4631 1.423 . S
C4624 H4615 0.930 . S
C4624 C4622 1.378 . S
C4624 C4625 1.367 . S
C4625 C4624 1.367 . S
C4625 C4627 1.433 . S
C4626 C4622 1.350 . S
C4626 C4623 1.472 1_565 S
C4626 N4630 1.427 . S
C4627 H4617 0.929 . S
C4627 C4625 1.433 . S
C4627 N4630 1.384 . S
C4628 H4619 0.929 . S
C4628 C4620 1.378 . S
C4628 C4623 1.345 . S
C4629 H4616 0.929 . S
C4629 C4621 1.433 . S
C4629 N4631 1.384 . S
N4630 C4626 1.427 . S
N4630 C4627 1.384 . S
N4631 C4623 1.423 . S
N4631 C4629 1.384 . S
H4632 C4638 0.930 . S
H4633 C4642 0.930 . S
H4634 C4647 0.929 . S
H4635 C4645 0.929 . S
H4636 C4640 0.929 . S
H4637 C4646 0.929 . S
C4638 H4632 0.930 . S
C4638 C4639 1.367 . S
C4638 C4646 1.378 . S
C4639 C4638 1.367 . S
C4639 C4647 1.433 . S
C4640 H4636 0.929 . S
C4640 C4642 1.378 . S
C4640 C4644 1.350 . S
C4641 C4644 1.469 1_655 S
C4641 C4646 1.346 . S
C4641 N4649 1.425 . S
C4642 H4633 0.930 . S
C4642 C4640 1.378 . S
C4642 C4643 1.367 . S
C4643 C4642 1.367 . S
C4643 C4645 1.433 . S
C4644 C4640 1.350 . S
C4644 C4641 1.469 1_455 S
C4644 N4648 1.427 . S
C4645 H4635 0.929 . S
C4645 C4643 1.433 . S
C4645 N4648 1.384 . S
C4646 H4637 0.929 . S
C4646 C4638 1.378 . S
C4646 C4641 1.346 . S
C4647 H4634 0.929 . S
C4647 C4639 1.433 . S
C4647 N4649 1.384 . S
N4648 C4644 1.427 . S
N4648 C4645 1.384 . S
N4649 C4641 1.425 . S
N4649 C4647 1.384 . S
H4650 C4656 0.930 . S
H4651 C4660 0.930 . S
H4652 C4665 0.929 . S
H4653 C4663 0.929 . S
H4654 C4658 0.929 . S
H4655 C4664 0.929 . S
C4656 H4650 0.930 . S
C4656 C4657 1.367 . S
C4656 C4664 1.378 . S
C4657 C4656 1.367 . S
C4657 C4665 1.433 . S
C4658 H4654 0.929 . S
C4658 C4660 1.378 . S
C4658 C4662 1.347 . S
C4659 C4662 1.467 1_545 S
C4659 C4664 1.350 . S
C4659 N4667 1.427 . S
C4660 H4651 0.930 . S
C4660 C4658 1.378 . S
C4660 C4661 1.367 . S
C4661 C4660 1.367 . S
C4661 C4663 1.433 . S
C4662 C4658 1.347 . S
C4662 C4659 1.467 1_565 S
C4662 N4666 1.425 . S
C4663 H4653 0.929 . S
C4663 C4661 1.433 . S
C4663 N4666 1.384 . S
C4664 H4655 0.929 . S
C4664 C4656 1.378 . S
C4664 C4659 1.350 . S
C4665 H4652 0.929 . S
C4665 C4657 1.433 . S
C4665 N4667 1.384 . S
N4666 C4662 1.425 . S
N4666 C4663 1.384 . S
N4667 C4659 1.427 . S
N4667 C4665 1.384 . S
H4668 C4674 0.930 . S
H4669 C4678 0.930 . S
H4670 C4683 0.929 . S
H4671 C4681 0.929 . S
H4672 C4676 0.929 . S
H4673 C4682 0.929 . S
C4674 H4668 0.930 . S
C4674 C4675 1.367 . S
C4674 C4682 1.378 . S
C4675 C4674 1.367 . S
C4675 C4683 1.433 . S
C4676 H4672 0.929 . S
C4676 C4678 1.378 . S
C4676 C4680 1.354 1_455 S
C4677 C4680 1.453 . S
C4677 C4682 1.350 . S
C4677 N4685 1.427 . S
C4678 H4669 0.930 . S
C4678 C4676 1.378 . S
C4678 C4679 1.367 . S
C4679 C4678 1.367 . S
C4679 C4681 1.433 . S
C4680 C4676 1.354 1_655 S
C4680 C4677 1.453 . S
C4680 N4684 1.432 1_655 S
C4681 H4671 0.929 . S
C4681 C4679 1.433 . S
C4681 N4684 1.384 . S
C4682 H4673 0.929 . S
C4682 C4674 1.378 . S
C4682 C4677 1.350 . S
C4683 H4670 0.929 . S
C4683 C4675 1.433 . S
C4683 N4685 1.384 . S
N4684 C4680 1.432 1_455 S
N4684 C4681 1.384 . S
N4685 C4677 1.427 . S
N4685 C4683 1.384 . S
H4686 C4692 0.930 . S
H4687 C4696 0.930 . S
H4688 C4701 0.929 . S
H4689 C4699 0.929 . S
H4690 C4694 0.929 . S
H4691 C4700 0.929 . S
C4692 H4686 0.930 . S
C4692 C4693 1.367 . S
C4692 C4700 1.378 . S
C4693 C4692 1.367 . S
C4693 C4701 1.433 . S
C4694 H4690 0.929 . S
C4694 C4696 1.378 . S
C4694 C4698 1.350 . S
C4695 C4698 1.471 1_655 S
C4695 C4700 1.346 . S
C4695 N4703 1.424 . S
C4696 H4687 0.930 . S
C4696 C4694 1.378 . S
C4696 C4697 1.367 . S
C4697 C4696 1.367 . S
C4697 C4699 1.433 . S
C4698 C4694 1.350 . S
C4698 C4695 1.471 1_455 S
C4698 N4702 1.427 . S
C4699 H4689 0.929 . S
C4699 C4697 1.433 . S
C4699 N4702 1.384 . S
C4700 H4691 0.929 . S
C4700 C4692 1.378 . S
C4700 C4695 1.346 . S
C4701 H4688 0.929 . S
C4701 C4693 1.433 . S
C4701 N4703 1.384 . S
N4702 C4698 1.427 . S
N4702 C4699 1.384 . S
N4703 C4695 1.424 . S
N4703 C4701 1.384 . S
C1255 C3 1.210 . S
C1259 C408 1.237 . S
C1273 C16 1.218 . S
C1277 C369 1.238 . S
C1291 C380 1.237 . S
C1295 C29 1.214 . S
C1309 C393 1.242 . S
C1313 C44 1.223 . S
C1327 C330 1.242 . S
C1331 C57 1.223 . S
C1345 C341 1.242 . S
C1349 C68 1.223 . S
C1363 C83 1.207 . S
C1367 C354 1.240 . S
C1381 C315 1.243 . S
C1385 C96 1.208 . S
C1399 C108 1.214 . S
C1403 C576 1.238 . S
C1417 C122 1.223 . S
C1421 C536 1.241 . S
C1435 C134 1.214 . S
C1439 C550 1.248 . S
C1453 C148 1.215 . S
C1457 C564 1.237 . S
C1471 C166 1.211 . S
C1475 C615 1.247 . S
C1489 C174 1.207 . S
C1493 C590 1.241 . S
C1507 C192 1.214 . S
C1511 C602 1.238 . S
C1525 C523 1.239 . S
C1529 C198 1.221 . S
C1543 C211 1.208 . S
C1547 C510 1.243 . S
C1561 C432 1.244 . S
C1565 C226 1.210 . S
C1579 C452 1.247 . S
C1583 C244 1.212 . S
C1597 C252 1.223 . S
C1601 C458 1.242 . S
C1615 C426 1.241 . S
C1619 C264 1.205 . S
C1633 C486 1.242 . S
C1637 C278 1.207 . S
C1651 C296 1.215 . S
C1655 C504 1.238 . S
C1669 C309 1.205 . S
C1673 C472 1.242 . S
C1687 C1032 1.238 . S
C1691 C629 1.220 . S
C1705 C993 1.245 . S
C1709 C642 1.216 . S
C1723 C655 1.208 . S
C1727 C1006 1.239 . S
C1741 C1017 1.240 . S
C1745 C666 1.222 . S
C1759 C681 1.223 . S
C1763 C954 1.240 . S
C1777 C694 1.222 . S
C1781 C965 1.243 . S
C1795 C980 1.240 . S
C1799 C705 1.222 . S
C1813 C939 1.240 . S
C1817 C720 1.222 . S
C1831 C1200 1.243 . S
C1835 C738 1.222 . S
C1849 C1162 1.237 . S
C1853 C746 1.216 . S
C1867 C764 1.216 . S
C1871 C1180 1.248 . S
C1885 C772 1.222 . S
C1889 C1186 1.240 . S
C1903 C1239 1.245 . S
C1907 C784 1.207 . S
C1921 C1214 1.237 . S
C1925 C798 1.215 . S
C1939 C1232 1.247 . S
C1943 C810 1.218 . S
C1957 C822 1.223 . S
C1961 C1149 1.241 . S
C1975 C1134 1.244 . S
C1979 C837 1.209 . S
C1993 C848 1.210 . S
C1997 C1058 1.238 . S
C2011 C1076 1.241 . S
C2015 C862 1.205 . S
C2029 C1082 1.240 . S
C2033 C874 1.207 . S
C2047 C1044 1.240 . S
C2051 C888 1.220 . S
C2065 C902 1.210 . S
C2069 C1108 1.244 . S
C2083 C914 1.215 . S
C2087 C1122 1.238 . S
C2101 C1096 1.239 . S
C2105 C933 1.219 . S
C2119 C4 1.876 . S
C2123 C887 1.888 . S
C2137 C17 1.870 . S
C2141 C849 1.867 . S
C2155 C30 1.881 . S
C2159 C861 1.882 . S
C2173 C49 1.879 . S
C2177 C875 1.868 . S
C2191 C928 1.879 . S
C2195 C62 1.880 . S
C2209 C69 1.866 . S
C2213 C907 1.873 . S
C2227 C913 1.878 . S
C2231 C88 1.880 . S
C2245 C101 1.876 . S
C2249 C842 1.866 . S
C2263 C823 1.879 . S
C2267 C107 1.886 . S
C2281 C127 1.879 . S
C2285 C783 1.886 . S
C2299 C803 1.881 . S
C2303 C133 1.880 . S
C2317 C153 1.867 . S
C2321 C809 1.879 . S
C2335 C161 1.878 . S
C2339 C751 1.880 . S
C2353 C179 1.880 . S
C2357 C759 1.884 . S
C2371 C777 1.866 . S
C2375 C187 1.881 . S
C2389 C733 1.875 . S
C2393 C199 1.872 . S
C2407 C212 1.876 . S
C2411 C725 1.879 . S
C2425 C231 1.866 . S
C2429 C647 1.873 . S
C2443 C239 1.885 . S
C2447 C660 1.867 . S
C2461 C257 1.867 . S
C2465 C667 1.869 . S
C2479 C263 1.880 . S
C2483 C634 1.881 . S
C2497 C699 1.869 . S
C2501 C283 1.880 . S
C2515 C706 1.866 . S
C2519 C291 1.881 . S
C2533 C304 1.877 . S
C2537 C686 1.880 . S
C2551 C322 1.303 . S
C2555 C1201 1.305 . S
C2569 C329 1.307 . S
C2573 C1161 1.303 . S
C2587 C348 1.308 . S
C2591 C1173 1.302 . S
C2605 C361 1.309 . S
C2609 C1193 1.307 . S
C2623 C368 1.303 . S
C2627 C1240 1.304 . S
C2641 C1213 1.308 . S
C2645 C387 1.304 . S
C2659 C400 1.308 . S
C2663 C1225 1.300 . S
C2677 C407 1.306 . S
C2681 C1148 1.309 . S
C2695 C1141 1.303 . S
C2699 C419 1.301 . S
C2713 C1097 1.304 . S
C2717 C439 1.308 . S
C2731 C1115 1.302 . S
C2735 C445 1.304 . S
C2749 C1123 1.301 . S
C2753 C465 1.303 . S
C2767 C473 1.304 . S
C2771 C1057 1.308 . S
C2785 C485 1.302 . S
C2789 C1069 1.302 . S
C2803 C497 1.303 . S
C2807 C1089 1.308 . S
C2821 C1045 1.306 . S
C2825 C517 1.307 . S
C2839 C1031 1.309 . S
C2843 C530 1.307 . S
C2857 C543 1.307 . S
C2861 C953 1.309 . S
C2875 C972 1.303 . S
C2879 C551 1.305 . S
C2893 C979 1.308 . S
C2897 C563 1.308 . S
C2911 C577 1.305 . S
C2915 C946 1.307 . S
C2929 C589 1.307 . S
C2933 C1005 1.303 . S
C2947 C1024 1.308 . S
C2951 C603 1.301 . S
C2965 C616 1.304 . S
C2969 C992 1.308 . S
C2983 C10 1.874 . S
C2987 C374 1.835 . S
C3001 C23 1.871 . S
C3005 C381 1.828 . S
C3019 C36 1.874 . S
C3023 C394 1.837 . S
C3037 C43 1.867 . S
C3041 C413 1.838 . S
C3055 C316 1.832 . S
C3059 C56 1.875 . S
C3073 C75 1.866 . S
C3077 C335 1.837 . S
C3091 C342 1.834 . S
C3095 C82 1.872 . S
C3109 C355 1.831 . S
C3113 C95 1.871 . S
C3127 C109 1.871 . S
C3131 C499 1.853 . S
C3145 C511 1.842 . S
C3149 C121 1.870 . S
C3163 C135 1.873 . S
C3167 C471 1.854 . S
C3181 C147 1.872 . S
C3185 C491 1.834 . S
C3199 C159 1.872 . S
C3203 C447 1.851 . S
C3217 C173 1.874 . S
C3221 C459 1.832 . S
C3235 C185 1.871 . S
C3239 C421 1.852 . S
C3253 C433 1.842 . S
C3257 C205 1.870 . S
C3271 C218 1.872 . S
C3275 C595 1.828 . S
C3289 C225 1.869 . S
C3293 C569 1.831 . S
C3307 C575 1.849 . S
C3311 C237 1.874 . S
C3325 C251 1.870 . S
C3329 C537 1.830 . S
C3343 C549 1.856 . S
C3347 C265 1.871 . S
C3361 C277 1.871 . S
C3365 C524 1.829 . S
C3379 C614 1.856 . S
C3383 C289 1.871 . S
C3397 C601 1.852 . S
C3401 C302 1.874 . S
C3415 C628 1.872 . S
C3419 C998 1.834 . S
C3433 C641 1.872 . S
C3437 C1011 1.829 . S
C3451 C654 1.875 . S
C3455 C1018 1.832 . S
C3469 C1037 1.829 . S
C3473 C673 1.872 . S
C3487 C680 1.874 . S
C3491 C940 1.836 . S
C3505 C693 1.869 . S
C3509 C959 1.836 . S
C3523 C712 1.872 . S
C3527 C966 1.839 . S
C3541 C719 1.868 . S
C3545 C985 1.838 . S
C3559 C731 1.874 . S
C3563 C1121 1.852 . S
C3577 C1135 1.840 . S
C3581 C745 1.869 . S
C3595 C1095 1.848 . S
C3599 C757 1.875 . S
C3613 C1109 1.842 . S
C3617 C771 1.869 . S
C3631 C785 1.870 . S
C3635 C1071 1.855 . S
C3649 C1083 1.842 . S
C3653 C797 1.870 . S
C3667 C811 1.874 . S
C3671 C1043 1.849 . S
C3685 C1063 1.833 . S
C3689 C829 1.875 . S
C3703 C1219 1.830 . S
C3707 C836 1.869 . S
C3721 C1187 1.828 . S
C3725 C855 1.872 . S
C3739 C863 1.875 . S
C3743 C1199 1.852 . S
C3757 C881 1.872 . S
C3761 C1167 1.828 . S
C3775 C1175 1.848 . S
C3779 C889 1.874 . S
C3793 C901 1.872 . S
C3797 C1154 1.828 . S
C3811 C1238 1.856 . S
C3815 C915 1.872 . S
C3829 C1227 1.857 . S
C3833 C926 1.870 . S
C3847 C343 1.332 . S
C3851 C5 1.330 . S
C3865 C18 1.341 . S
C3869 C356 1.334 . S
C3883 C317 1.325 . S
C3887 C31 1.323 . S
C3901 C42 1.336 . S
C3905 C328 1.342 . S
C3919 C395 1.329 . S
C3923 C55 1.332 . S
C3937 C406 1.333 . S
C3941 C70 1.340 . S
C3955 C81 1.322 . S
C3959 C367 1.329 . S
C3973 C382 1.340 . S
C3977 C94 1.341 . S
C3991 C114 1.328 . S
C3995 C478 1.334 . S
C4009 C120 1.324 . S
C4013 C484 1.332 . S
C4027 C498 1.330 . S
C4031 C140 1.324 . S
C4045 C146 1.331 . S
C4049 C512 1.324 . S
C4063 C160 1.328 . S
C4067 C420 1.334 . S
C4081 C434 1.331 . S
C4085 C172 1.323 . S
C4099 C446 1.329 . S
C4103 C186 1.324 . S
C4117 C460 1.327 . S
C4121 C200 1.332 . S
C4135 C213 1.338 . S
C4139 C562 1.342 . S
C4153 C588 1.340 . S
C4157 C224 1.332 . S
C4171 C238 1.335 . S
C4175 C608 1.331 . S
C4189 C525 1.332 . S
C4193 C250 1.339 . S
C4207 C621 1.327 . S
C4211 C270 1.325 . S
C4225 C538 1.332 . S
C4229 C276 1.339 . S
C4243 C290 1.331 . S
C4247 C556 1.335 . S
C4261 C303 1.325 . S
C4265 C582 1.326 . S
C4279 C627 1.322 . S
C4283 C967 1.329 . S
C4297 C978 1.342 . S
C4301 C640 1.334 . S
C4315 C941 1.328 . S
C4319 C653 1.332 . S
C4333 C952 1.332 . S
C4337 C668 1.338 . S
C4351 C679 1.332 . S
C4355 C1019 1.327 . S
C4369 C1030 1.333 . S
C4373 C692 1.340 . S
C4387 C707 1.323 . S
C4391 C991 1.331 . S
C4405 C1004 1.340 . S
C4409 C718 1.341 . S
C4423 C732 1.334 . S
C4427 C1102 1.333 . S
C4441 C1110 1.330 . S
C4445 C744 1.331 . S
C4459 C758 1.327 . S
C4463 C1128 1.324 . S
C4477 C1136 1.324 . S
C4481 C770 1.324 . S
C4495 C1050 1.326 . S
C4499 C790 1.333 . S
C4513 C1056 1.325 . S
C4517 C796 1.323 . S
C4531 C1070 1.328 . S
C4535 C816 1.334 . S
C4549 C1084 1.324 . S
C4553 C824 1.331 . S
C4567 C835 1.337 . S
C4571 C1188 1.332 . S
C4585 C1212 1.338 . S
C4589 C850 1.331 . S
C4603 C1226 1.324 . S
C4607 C868 1.330 . S
C4621 C1147 1.342 . S
C4625 C876 1.334 . S
C4639 C1245 1.330 . S
C4643 C894 1.325 . S
C4657 C900 1.334 . S
C4661 C1160 1.333 . S
C4675 C920 1.333 . S
C4679 C1174 1.326 . S
C4693 C1206 1.332 . S
C4697 C927 1.325 . S
