# Generated by pormake.
# Topology uoa, (4)-cn, num edge types: 1
# Building blocks:
#     Node 0, Type 0, BuildingBlock: GALJAG_clean_sbu_0, # of connection points: 4
#     Node 1, Type 0, BuildingBlock: GALJAG_clean_sbu_0, # of connection points: 4
#     Node 2, Type 0, BuildingBlock: GALJAG_clean_sbu_0, # of connection points: 4
#     Node 3, Type 0, BuildingBlock: GALJAG_clean_sbu_0, # of connection points: 4
#     Node 4, Type 0, BuildingBlock: GALJAG_clean_sbu_0, # of connection points: 4
#     Node 5, Type 0, BuildingBlock: GALJAG_clean_sbu_0, # of connection points: 4
#     Node 6, Type 0, BuildingBlock: GALJAG_clean_sbu_0, # of connection points: 4
#     Node 7, Type 0, BuildingBlock: GALJAG_clean_sbu_0, # of connection points: 4
#     Node 8, Type 0, BuildingBlock: GALJAG_clean_sbu_0, # of connection points: 4
#     Node 9, Type 0, BuildingBlock: GALJAG_clean_sbu_0, # of connection points: 4
#     Node 10, Type 0, BuildingBlock: GALJAG_clean_sbu_0, # of connection points: 4
#     Node 11, Type 0, BuildingBlock: GALJAG_clean_sbu_0, # of connection points: 4
#     Node 12, Type 0, BuildingBlock: GALJAG_clean_sbu_0, # of connection points: 4
#     Node 13, Type 0, BuildingBlock: GALJAG_clean_sbu_0, # of connection points: 4
#     Node 14, Type 0, BuildingBlock: GALJAG_clean_sbu_0, # of connection points: 4
#     Node 15, Type 0, BuildingBlock: GALJAG_clean_sbu_0, # of connection points: 4
#     Node 16, Type 0, BuildingBlock: GALJAG_clean_sbu_0, # of connection points: 4
#     Node 17, Type 0, BuildingBlock: GALJAG_clean_sbu_0, # of connection points: 4
#     Node 18, Type 0, BuildingBlock: GALJAG_clean_sbu_0, # of connection points: 4
#     Node 19, Type 0, BuildingBlock: GALJAG_clean_sbu_0, # of connection points: 4
#     Node 20, Type 0, BuildingBlock: GALJAG_clean_sbu_0, # of connection points: 4
#     Node 21, Type 0, BuildingBlock: GALJAG_clean_sbu_0, # of connection points: 4
#     Node 22, Type 0, BuildingBlock: GALJAG_clean_sbu_0, # of connection points: 4
#     Node 23, Type 0, BuildingBlock: GALJAG_clean_sbu_0, # of connection points: 4
#     Node 24, Type 0, BuildingBlock: GALJAG_clean_sbu_0, # of connection points: 4
#     Node 25, Type 0, BuildingBlock: GALJAG_clean_sbu_0, # of connection points: 4
#     Node 26, Type 0, BuildingBlock: GALJAG_clean_sbu_0, # of connection points: 4
#     Node 27, Type 0, BuildingBlock: GALJAG_clean_sbu_0, # of connection points: 4
#     Node 28, Type 0, BuildingBlock: GALJAG_clean_sbu_0, # of connection points: 4
#     Node 29, Type 0, BuildingBlock: GALJAG_clean_sbu_0, # of connection points: 4
#     Node 30, Type 0, BuildingBlock: GALJAG_clean_sbu_0, # of connection points: 4
#     Node 31, Type 0, BuildingBlock: GALJAG_clean_sbu_0, # of connection points: 4
#     Edge 32, Type (0, 0), BuildingBlock: TEMPAE_clean_linker_10, # of connection points: 2
#     Edge 33, Type (0, 0), BuildingBlock: TEMPAE_clean_linker_10, # of connection points: 2
#     Edge 34, Type (0, 0), BuildingBlock: TEMPAE_clean_linker_10, # of connection points: 2
#     Edge 35, Type (0, 0), BuildingBlock: TEMPAE_clean_linker_10, # of connection points: 2
#     Edge 36, Type (0, 0), BuildingBlock: TEMPAE_clean_linker_10, # of connection points: 2
#     Edge 37, Type (0, 0), BuildingBlock: TEMPAE_clean_linker_10, # of connection points: 2
#     Edge 38, Type (0, 0), BuildingBlock: TEMPAE_clean_linker_10, # of connection points: 2
#     Edge 39, Type (0, 0), BuildingBlock: TEMPAE_clean_linker_10, # of connection points: 2
#     Edge 40, Type (0, 0), BuildingBlock: TEMPAE_clean_linker_10, # of connection points: 2
#     Edge 41, Type (0, 0), BuildingBlock: TEMPAE_clean_linker_10, # of connection points: 2
#     Edge 42, Type (0, 0), BuildingBlock: TEMPAE_clean_linker_10, # of connection points: 2
#     Edge 43, Type (0, 0), BuildingBlock: TEMPAE_clean_linker_10, # of connection points: 2
#     Edge 44, Type (0, 0), BuildingBlock: TEMPAE_clean_linker_10, # of connection points: 2
#     Edge 45, Type (0, 0), BuildingBlock: TEMPAE_clean_linker_10, # of connection points: 2
#     Edge 46, Type (0, 0), BuildingBlock: TEMPAE_clean_linker_10, # of connection points: 2
#     Edge 47, Type (0, 0), BuildingBlock: TEMPAE_clean_linker_10, # of connection points: 2
#     Edge 48, Type (0, 0), BuildingBlock: TEMPAE_clean_linker_10, # of connection points: 2
#     Edge 49, Type (0, 0), BuildingBlock: TEMPAE_clean_linker_10, # of connection points: 2
#     Edge 50, Type (0, 0), BuildingBlock: TEMPAE_clean_linker_10, # of connection points: 2
#     Edge 51, Type (0, 0), BuildingBlock: TEMPAE_clean_linker_10, # of connection points: 2
#     Edge 52, Type (0, 0), BuildingBlock: TEMPAE_clean_linker_10, # of connection points: 2
#     Edge 53, Type (0, 0), BuildingBlock: TEMPAE_clean_linker_10, # of connection points: 2
#     Edge 54, Type (0, 0), BuildingBlock: TEMPAE_clean_linker_10, # of connection points: 2
#     Edge 55, Type (0, 0), BuildingBlock: TEMPAE_clean_linker_10, # of connection points: 2
#     Edge 56, Type (0, 0), BuildingBlock: TEMPAE_clean_linker_10, # of connection points: 2
#     Edge 57, Type (0, 0), BuildingBlock: TEMPAE_clean_linker_10, # of connection points: 2
#     Edge 58, Type (0, 0), BuildingBlock: TEMPAE_clean_linker_10, # of connection points: 2
#     Edge 59, Type (0, 0), BuildingBlock: TEMPAE_clean_linker_10, # of connection points: 2
#     Edge 60, Type (0, 0), BuildingBlock: TEMPAE_clean_linker_10, # of connection points: 2
#     Edge 61, Type (0, 0), BuildingBlock: TEMPAE_clean_linker_10, # of connection points: 2
#     Edge 62, Type (0, 0), BuildingBlock: TEMPAE_clean_linker_10, # of connection points: 2
#     Edge 63, Type (0, 0), BuildingBlock: TEMPAE_clean_linker_10, # of connection points: 2
#     Edge 64, Type (0, 0), BuildingBlock: TEMPAE_clean_linker_10, # of connection points: 2
#     Edge 65, Type (0, 0), BuildingBlock: TEMPAE_clean_linker_10, # of connection points: 2
#     Edge 66, Type (0, 0), BuildingBlock: TEMPAE_clean_linker_10, # of connection points: 2
#     Edge 67, Type (0, 0), BuildingBlock: TEMPAE_clean_linker_10, # of connection points: 2
#     Edge 68, Type (0, 0), BuildingBlock: TEMPAE_clean_linker_10, # of connection points: 2
#     Edge 69, Type (0, 0), BuildingBlock: TEMPAE_clean_linker_10, # of connection points: 2
#     Edge 70, Type (0, 0), BuildingBlock: TEMPAE_clean_linker_10, # of connection points: 2
#     Edge 71, Type (0, 0), BuildingBlock: TEMPAE_clean_linker_10, # of connection points: 2
#     Edge 72, Type (0, 0), BuildingBlock: TEMPAE_clean_linker_10, # of connection points: 2
#     Edge 73, Type (0, 0), BuildingBlock: TEMPAE_clean_linker_10, # of connection points: 2
#     Edge 74, Type (0, 0), BuildingBlock: TEMPAE_clean_linker_10, # of connection points: 2
#     Edge 75, Type (0, 0), BuildingBlock: TEMPAE_clean_linker_10, # of connection points: 2
#     Edge 76, Type (0, 0), BuildingBlock: TEMPAE_clean_linker_10, # of connection points: 2
#     Edge 77, Type (0, 0), BuildingBlock: TEMPAE_clean_linker_10, # of connection points: 2
#     Edge 78, Type (0, 0), BuildingBlock: TEMPAE_clean_linker_10, # of connection points: 2
#     Edge 79, Type (0, 0), BuildingBlock: TEMPAE_clean_linker_10, # of connection points: 2
#     Edge 80, Type (0, 0), BuildingBlock: TEMPAE_clean_linker_10, # of connection points: 2
#     Edge 81, Type (0, 0), BuildingBlock: TEMPAE_clean_linker_10, # of connection points: 2
#     Edge 82, Type (0, 0), BuildingBlock: TEMPAE_clean_linker_10, # of connection points: 2
#     Edge 83, Type (0, 0), BuildingBlock: TEMPAE_clean_linker_10, # of connection points: 2
#     Edge 84, Type (0, 0), BuildingBlock: TEMPAE_clean_linker_10, # of connection points: 2
#     Edge 85, Type (0, 0), BuildingBlock: TEMPAE_clean_linker_10, # of connection points: 2
#     Edge 86, Type (0, 0), BuildingBlock: TEMPAE_clean_linker_10, # of connection points: 2
#     Edge 87, Type (0, 0), BuildingBlock: TEMPAE_clean_linker_10, # of connection points: 2
#     Edge 88, Type (0, 0), BuildingBlock: TEMPAE_clean_linker_10, # of connection points: 2
#     Edge 89, Type (0, 0), BuildingBlock: TEMPAE_clean_linker_10, # of connection points: 2
#     Edge 90, Type (0, 0), BuildingBlock: TEMPAE_clean_linker_10, # of connection points: 2
#     Edge 91, Type (0, 0), BuildingBlock: TEMPAE_clean_linker_10, # of connection points: 2
#     Edge 92, Type (0, 0), BuildingBlock: TEMPAE_clean_linker_10, # of connection points: 2
#     Edge 93, Type (0, 0), BuildingBlock: TEMPAE_clean_linker_10, # of connection points: 2
#     Edge 94, Type (0, 0), BuildingBlock: TEMPAE_clean_linker_10, # of connection points: 2
#     Edge 95, Type (0, 0), BuildingBlock: TEMPAE_clean_linker_10, # of connection points: 2
# Relax obj value: 0.050
# Max RMSD: 0.160
# Mean RMSD: 0.160
data_MOF--net-uoa--node1-GALJAG_clean_sbu_0--edge1-TEMPAE_clean_linker_10
_symmetry_space_group_name_H-M    P1
_symmetry_Int_Tables_number       1
_symmetry_cell_setting            triclinic
loop_
_symmetry_equiv_pos_as_xyz
'x, y, z'
_cell_length_a     75.598451
_cell_length_b     75.607054
_cell_length_c     28.740431
_cell_angle_alpha  89.976698
_cell_angle_beta   90.002112
_cell_angle_gamma 89.986289
loop_
_atom_site_label
_atom_site_type_symbol
_atom_site_fract_x
_atom_site_fract_y
_atom_site_fract_z
_atom_type_partial_charge
In0 In 0.03304 0.0907 0.00414 0.0
O1 O 0.06202 0.08482 0.02016 0.0
O2 O 0.05467 0.11132 0.00414 0.0
C3 C 0.01886 0.05815 0.00255 0.0
C4 C 0.02245 0.10082 0.08957 0.0
C5 C 0.02493 0.10131 0.91715 0.0
O6 O 0.0349 0.06092 0.99255 0.0
O7 O 0.01001 0.07179 0.01242 0.0
O8 O 0.0176 0.10809 0.95254 0.0
O9 O 0.03623 0.08951 0.92612 0.0
C10 C 0.06678 0.10077 0.01614 0.0
O11 O 0.01682 0.10857 0.05334 0.0
O12 O 0.03315 0.08836 0.08204 0.0
In13 In 0.14755 0.77808 0.26207 0.0
O14 O 0.12798 0.76156 0.30633 0.0
O15 O 0.1542 0.76508 0.33057 0.0
C16 C 0.13648 0.7757 0.17326 0.0
C17 C 0.13584 0.80944 0.29325 0.0
C18 C 0.18149 0.76992 0.24555 0.0
O19 O 0.13409 0.76331 0.20227 0.0
O20 O 0.14403 0.78925 0.18955 0.0
O21 O 0.1769 0.7848 0.2617 0.0
O22 O 0.16895 0.75935 0.23725 0.0
C23 C 0.13907 0.75888 0.33846 0.0
O24 O 0.15197 0.80516 0.29546 0.0
O25 O 0.12593 0.79817 0.27412 0.0
In26 In 0.46399 0.90136 0.54533 0.0
O27 O 0.47529 0.8792 0.59185 0.0
O28 O 0.48112 0.90577 0.60902 0.0
C29 C 0.46713 0.8892 0.45775 0.0
C30 C 0.43109 0.89421 0.57557 0.0
C31 C 0.4739 0.93464 0.52638 0.0
O32 O 0.47833 0.8855 0.48905 0.0
O33 O 0.45427 0.89854 0.47124 0.0
O34 O 0.45929 0.93115 0.54573 0.0
O35 O 0.4834 0.9214 0.51683 0.0
C36 C 0.48241 0.88975 0.62022 0.0
O37 O 0.43869 0.90866 0.58472 0.0
O38 O 0.43983 0.88389 0.54992 0.0
In39 In 0.34663 0.22384 0.78846 0.0
O40 O 0.36267 0.2425 0.83572 0.0
O41 O 0.33674 0.23507 0.85644 0.0
C42 C 0.36198 0.22998 0.70509 0.0
C43 C 0.36014 0.19294 0.81758 0.0
C44 C 0.31196 0.22753 0.77018 0.0
O45 O 0.35904 0.24224 0.734 0.0
O46 O 0.35772 0.21476 0.71902 0.0
O47 O 0.3179 0.2151 0.79502 0.0
O48 O 0.32352 0.23786 0.75397 0.0
C49 C 0.35071 0.24332 0.86642 0.0
O50 O 0.34646 0.19357 0.79239 0.0
O51 O 0.36692 0.20773 0.82709 0.0
In52 In 0.02658 0.9001 0.50149 0.0
O53 O 0.05568 0.90199 0.48091 0.0
O54 O 0.04421 0.87643 0.48815 0.0
C55 C 0.02016 0.93469 0.5138 0.0
C56 C 0.00881 0.89407 0.42122 0.0
C57 C 0.02078 0.88912 0.58944 0.0
O58 O 0.03489 0.92901 0.49931 0.0
O59 O 0.00887 0.92291 0.52315 0.0
O60 O 0.00945 0.88707 0.55748 0.0
O61 O 0.03501 0.89639 0.57663 0.0
C62 C 0.0577 0.88545 0.47799 0.0
O63 O 0.00788 0.88341 0.45505 0.0
O64 O 0.01819 0.90749 0.42874 0.0
In65 In 0.34196 0.78198 0.74552 0.0
O66 O 0.35661 0.76283 0.69632 0.0
O67 O 0.34425 0.78569 0.66793 0.0
C68 C 0.3498 0.77072 0.83224 0.0
C69 C 0.35444 0.81524 0.74404 0.0
C70 C 0.30811 0.77157 0.73886 0.0
O71 O 0.33656 0.78014 0.82258 0.0
O72 O 0.35945 0.76678 0.79776 0.0
O73 O 0.31237 0.78698 0.75174 0.0
O74 O 0.32092 0.76146 0.72957 0.0
C75 C 0.35299 0.7718 0.6603 0.0
O76 O 0.33834 0.81174 0.73682 0.0
O77 O 0.36397 0.80202 0.75371 0.0
In78 In 0.48094 0.09338 0.92896 0.0
O79 O 0.49861 0.11155 0.88489 0.0
O80 O 0.49406 0.08525 0.86164 0.0
C81 C 0.48436 0.10768 0.01454 0.0
C82 C 0.44983 0.10531 0.89668 0.0
C83 C 0.48702 0.05901 0.94616 0.0
O84 O 0.49715 0.1069 0.98625 0.0
O85 O 0.46991 0.10192 0.9988 0.0
O86 O 0.47409 0.06416 0.92178 0.0
O87 O 0.4968 0.07117 0.96164 0.0
C88 C 0.50096 0.1001 0.85343 0.0
O89 O 0.45083 0.09123 0.92021 0.0
O90 O 0.46429 0.11322 0.89043 0.0
In91 In 0.1534 0.20861 0.2217 0.0
O92 O 0.15934 0.1807 0.19547 0.0
O93 O 0.13285 0.18718 0.21395 0.0
C94 C 0.18637 0.22062 0.23562 0.0
C95 C 0.14457 0.22299 0.13921 0.0
C96 C 0.14113 0.21483 0.3081 0.0
O97 O 0.18244 0.20446 0.24037 0.0
O98 O 0.1737 0.23057 0.22418 0.0
O99 O 0.13771 0.2251 0.27448 0.0
O100 O 0.15024 0.20145 0.29752 0.0
C101 C 0.14339 0.17578 0.1979 0.0
O102 O 0.13449 0.22436 0.17424 0.0
O103 O 0.15882 0.2148 0.14659 0.0
In104 In 0.96551 0.8995 0.00155 0.0
O105 O 0.9839 0.88253 0.95492 0.0
O106 O 0.97524 0.90754 0.93051 0.0
C107 C 0.97064 0.88817 0.08949 0.0
C108 C 0.93451 0.88565 0.97385 0.0
C109 C 0.97259 0.93383 0.0158 0.0
O110 O 0.98194 0.8857 0.05765 0.0
O111 O 0.95669 0.89593 0.07649 0.0
O112 O 0.9577 0.92858 0.00128 0.0
O113 O 0.98366 0.92173 0.02422 0.0
C114 C 0.98391 0.89372 0.9222 0.0
O115 O 0.93692 0.90213 0.97686 0.0
O116 O 0.94745 0.8763 0.98657 0.0
In117 In 0.84413 0.21853 0.70659 0.0
O118 O 0.83995 0.19062 0.67779 0.0
O119 O 0.86603 0.19867 0.69604 0.0
C120 C 0.8106 0.22778 0.7246 0.0
C121 C 0.85181 0.23667 0.62801 0.0
C122 C 0.85559 0.22207 0.79469 0.0
O123 O 0.81455 0.21273 0.70841 0.0
O124 O 0.82353 0.23799 0.73178 0.0
O125 O 0.85865 0.23366 0.76387 0.0
O126 O 0.84721 0.20866 0.78051 0.0
C127 C 0.85619 0.18675 0.67956 0.0
O128 O 0.86284 0.23542 0.6609 0.0
O129 O 0.83713 0.22945 0.63592 0.0
In130 In 0.52584 0.09085 0.43257 0.0
O131 O 0.50925 0.10874 0.38525 0.0
O132 O 0.51661 0.08313 0.36083 0.0
C133 C 0.52278 0.10722 0.51594 0.0
C134 C 0.55744 0.09944 0.39722 0.0
C135 C 0.5155 0.05779 0.4534 0.0
O136 O 0.50984 0.10563 0.48848 0.0
O137 O 0.53714 0.10124 0.50042 0.0
O138 O 0.53164 0.06211 0.45181 0.0
O139 O 0.50475 0.07008 0.44449 0.0
C140 C 0.50897 0.09763 0.35227 0.0
O141 O 0.55528 0.08513 0.41931 0.0
O142 O 0.54401 0.10924 0.39435 0.0
In143 In 0.65537 0.7736 0.17212 0.0
O144 O 0.63673 0.75715 0.12622 0.0
O145 O 0.6637 0.75968 0.10616 0.0
C146 C 0.63943 0.76886 0.25533 0.0
C147 C 0.64484 0.80552 0.14142 0.0
C148 C 0.68972 0.76697 0.18912 0.0
O149 O 0.64053 0.75659 0.22559 0.0
O150 O 0.64568 0.78346 0.2421 0.0
O151 O 0.68477 0.77968 0.16372 0.0
O152 O 0.67737 0.75784 0.2062 0.0
C153 C 0.64854 0.75383 0.09625 0.0
O154 O 0.65658 0.80402 0.17242 0.0
O155 O 0.63861 0.79115 0.12668 0.0
In156 In 0.96965 0.09528 0.50402 0.0
O157 O 0.9402 0.09189 0.5185 0.0
O158 O 0.94991 0.11775 0.50368 0.0
C159 C 0.98108 0.06165 0.50275 0.0
C160 C 0.98075 0.1043 0.58985 0.0
C161 C 0.97868 0.10501 0.41697 0.0
O162 O 0.96531 0.06571 0.4928 0.0
O163 O 0.99103 0.07452 0.51245 0.0
O164 O 0.98665 0.11111 0.45226 0.0
O165 O 0.96632 0.09436 0.4261 0.0
C166 C 0.93684 0.10819 0.51452 0.0
O167 O 0.9874 0.11136 0.55382 0.0
O168 O 0.96875 0.09314 0.5819 0.0
In169 In 0.64974 0.2241 0.28384 0.0
O170 O 0.63398 0.24131 0.33496 0.0
O171 O 0.65717 0.22807 0.35898 0.0
C172 C 0.63568 0.23131 0.19946 0.0
C173 C 0.63718 0.19217 0.30684 0.0
C174 C 0.68348 0.2336 0.26888 0.0
O175 O 0.63486 0.24223 0.23271 0.0
O176 O 0.64308 0.21688 0.20947 0.0
O177 O 0.67851 0.21766 0.26695 0.0
O178 O 0.67144 0.24463 0.27796 0.0
C179 C 0.64426 0.23799 0.36869 0.0
O180 O 0.65302 0.19425 0.29382 0.0
O181 O 0.62785 0.20602 0.30694 0.0
In182 In 0.51609 0.89672 0.03849 0.0
O183 O 0.49809 0.88167 0.08932 0.0
O184 O 0.51084 0.9052 0.1124 0.0
C185 C 0.50778 0.88121 0.95645 0.0
C186 C 0.54765 0.88417 0.0651 0.0
C187 C 0.51056 0.93088 0.01688 0.0
O188 O 0.49614 0.88532 0.98602 0.0
O189 O 0.5234 0.88432 0.96914 0.0
O190 O 0.52561 0.92376 0.01353 0.0
O191 O 0.49842 0.92078 0.031 0.0
C192 C 0.50085 0.89239 0.12237 0.0
O193 O 0.54579 0.89985 0.05061 0.0
O194 O 0.53371 0.87497 0.06532 0.0
In195 In 0.8489 0.77878 0.74675 0.0
O196 O 0.86727 0.76222 0.79422 0.0
O197 O 0.84123 0.76788 0.817 0.0
C198 C 0.86089 0.77365 0.65953 0.0
C199 C 0.86062 0.81068 0.77438 0.0
C200 C 0.81513 0.77034 0.72892 0.0
O201 O 0.86397 0.7628 0.6921 0.0
O202 O 0.85228 0.78723 0.67153 0.0
O203 O 0.81955 0.78544 0.74382 0.0
O204 O 0.82773 0.75963 0.72265 0.0
C205 C 0.85591 0.76091 0.82627 0.0
O206 O 0.84441 0.80669 0.77479 0.0
O207 O 0.87068 0.7989 0.75818 0.0
In208 In 0.52361 0.59402 0.55827 0.0
O209 O 0.55359 0.59046 0.54907 0.0
O210 O 0.54425 0.60656 0.60445 0.0
C211 C 0.51549 0.5599 0.54195 0.0
C212 C 0.50561 0.60289 0.63602 0.0
C213 C 0.51788 0.61162 0.4775 0.0
O214 O 0.52815 0.56444 0.5679 0.0
O215 O 0.50711 0.57255 0.52373 0.0
O216 O 0.50574 0.60909 0.50698 0.0
O217 O 0.53284 0.60599 0.48987 0.0
C218 C 0.55737 0.60014 0.58343 0.0
O219 O 0.511 0.61444 0.60749 0.0
O220 O 0.50848 0.58715 0.62376 0.0
In221 In 0.65328 0.28319 0.78727 0.0
O222 O 0.6585 0.31106 0.81489 0.0
O223 O 0.63244 0.30446 0.79281 0.0
C224 C 0.68651 0.27183 0.77357 0.0
C225 C 0.64434 0.2687 0.86952 0.0
C226 C 0.64137 0.27653 0.70077 0.0
O227 O 0.68222 0.28787 0.76825 0.0
O228 O 0.67408 0.26168 0.78559 0.0
O229 O 0.63799 0.26631 0.73453 0.0
O230 O 0.65029 0.29005 0.71126 0.0
C231 C 0.64258 0.31588 0.81045 0.0
O232 O 0.63434 0.26731 0.83433 0.0
O233 O 0.65857 0.27694 0.86239 0.0
In234 In 0.97789 0.40447 0.07934 0.0
O235 O 0.99358 0.38451 0.12318 0.0
O236 O 0.99261 0.41132 0.14537 0.0
C237 C 0.98049 0.38898 0.99493 0.0
C238 C 0.9457 0.39572 0.1118 0.0
C239 C 0.98638 0.43841 0.06243 0.0
O240 O 0.99336 0.38952 0.02299 0.0
O241 O 0.96635 0.39555 0.01039 0.0
O242 O 0.97363 0.43414 0.08853 0.0
O243 O 0.99472 0.4256 0.0449 0.0
C244 C 0.99764 0.39575 0.15397 0.0
O245 O 0.9477 0.40818 0.08298 0.0
O246 O 0.95971 0.3879 0.12345 0.0
In247 In 0.84981 0.71891 0.2451 0.0
O248 O 0.86641 0.73648 0.29413 0.0
O249 O 0.84374 0.72322 0.32088 0.0
C250 C 0.8624 0.72548 0.15906 0.0
C251 C 0.8621 0.68669 0.26688 0.0
C252 C 0.81622 0.72902 0.23045 0.0
O253 O 0.86457 0.73629 0.19221 0.0
O254 O 0.85431 0.71149 0.16988 0.0
O255 O 0.82097 0.71302 0.22751 0.0
O256 O 0.82842 0.73976 0.2403 0.0
C257 C 0.85664 0.73333 0.32898 0.0
O258 O 0.84574 0.69014 0.26653 0.0
O259 O 0.87204 0.69936 0.25525 0.0
In260 In 0.53007 0.4043 0.00313 0.0
O261 O 0.55944 0.40778 0.98683 0.0
O262 O 0.54944 0.38168 0.99528 0.0
C263 C 0.52009 0.43812 0.0137 0.0
C264 C 0.51514 0.39687 0.91989 0.0
C265 C 0.5232 0.39343 0.09057 0.0
O266 O 0.53573 0.43386 0.00291 0.0
O267 O 0.50959 0.42534 0.01966 0.0
O268 O 0.51373 0.38879 0.05634 0.0
O269 O 0.5362 0.40317 0.08025 0.0
C270 C 0.56254 0.39138 0.98594 0.0
O271 O 0.51249 0.38717 0.95507 0.0
O272 O 0.52481 0.41009 0.92745 0.0
In273 In 0.84519 0.274 0.20891 0.0
O274 O 0.84413 0.30416 0.20202 0.0
O275 O 0.86693 0.29049 0.17747 0.0
C276 C 0.81083 0.26809 0.22656 0.0
C277 C 0.84969 0.25554 0.12945 0.0
C278 C 0.85936 0.26851 0.29392 0.0
O279 O 0.81606 0.28154 0.20438 0.0
O280 O 0.82292 0.25781 0.24014 0.0
O281 O 0.85896 0.25652 0.26321 0.0
O282 O 0.85314 0.28319 0.28104 0.0
C283 C 0.85912 0.3051 0.1827 0.0
O284 O 0.86093 0.25492 0.16203 0.0
O285 O 0.83627 0.26486 0.13799 0.0
In286 In 0.96827 0.59425 0.47044 0.0
O287 O 0.94099 0.58947 0.4381 0.0
O288 O 0.94721 0.61522 0.46299 0.0
C289 C 0.97738 0.56065 0.48794 0.0
C290 C 0.98684 0.60348 0.39372 0.0
C291 C 0.97171 0.60531 0.5588 0.0
O292 O 0.96255 0.56467 0.47052 0.0
O293 O 0.9875 0.57354 0.49639 0.0
O294 O 0.98317 0.6088 0.52798 0.0
O295 O 0.95848 0.59668 0.5445 0.0
C296 C 0.93611 0.60533 0.44318 0.0
O297 O 0.98393 0.61438 0.4261 0.0
O298 O 0.98111 0.58814 0.40133 0.0
In299 In 0.65492 0.72308 0.67188 0.0
O300 O 0.65819 0.69355 0.65613 0.0
O301 O 0.63268 0.7054 0.64972 0.0
C302 C 0.68884 0.73227 0.68495 0.0
C303 C 0.64757 0.73831 0.58966 0.0
C304 C 0.64197 0.72833 0.75839 0.0
O305 O 0.68379 0.71635 0.68714 0.0
O306 O 0.67681 0.74339 0.67655 0.0
O307 O 0.6419 0.74046 0.72808 0.0
O308 O 0.64816 0.7138 0.74456 0.0
C309 C 0.64202 0.69164 0.64594 0.0
O310 O 0.63758 0.7404 0.62463 0.0
O311 O 0.66116 0.72902 0.59694 0.0
In312 In 0.4654 0.3998 0.50355 0.0
O313 O 0.4838 0.38439 0.45396 0.0
O314 O 0.46693 0.40438 0.42637 0.0
C315 C 0.47334 0.38949 0.59085 0.0
C316 C 0.43348 0.38546 0.48849 0.0
C317 C 0.47525 0.43373 0.51146 0.0
O318 O 0.48284 0.38506 0.55645 0.0
O319 O 0.45997 0.39869 0.58067 0.0
O320 O 0.45931 0.42897 0.51597 0.0
O321 O 0.48607 0.42139 0.50351 0.0
C322 C 0.47858 0.39284 0.41839 0.0
O323 O 0.43598 0.40198 0.48704 0.0
O324 O 0.44698 0.37638 0.49855 0.0
In325 In 0.34134 0.71737 0.24475 0.0
O326 O 0.3384 0.68781 0.23117 0.0
O327 O 0.36318 0.69732 0.25582 0.0
C328 C 0.30733 0.72742 0.23816 0.0
C329 C 0.35333 0.72794 0.16076 0.0
C330 C 0.3491 0.72839 0.3317 0.0
O331 O 0.31176 0.71226 0.25256 0.0
O332 O 0.32001 0.73741 0.22715 0.0
O333 O 0.35834 0.73303 0.29702 0.0
O334 O 0.33628 0.71839 0.32211 0.0
C335 C 0.35422 0.68427 0.24186 0.0
O336 O 0.35603 0.73707 0.19706 0.0
O337 O 0.34495 0.71377 0.1675 0.0
In338 In 0.02257 0.59953 0.97573 0.0
O339 O 0.05209 0.59945 0.95741 0.0
O340 O 0.03681 0.62271 0.94467 0.0
C341 C 0.01675 0.56538 0.99596 0.0
C342 C 0.00541 0.60224 0.89427 0.0
C343 C 0.01674 0.61407 0.06015 0.0
O344 O 0.03222 0.57169 0.99378 0.0
O345 O 0.00447 0.57629 0.98828 0.0
O346 O 0.00471 0.61297 0.02975 0.0
O347 O 0.03163 0.60842 0.04721 0.0
C348 C 0.05156 0.61502 0.94134 0.0
O349 O 0.00249 0.61293 0.92737 0.0
O350 O 0.01644 0.59017 0.90319 0.0
In351 In 0.14943 0.26784 0.72413 0.0
O352 O 0.13388 0.25016 0.67375 0.0
O353 O 0.1568 0.26368 0.64904 0.0
C354 C 0.13586 0.26065 0.80908 0.0
C355 C 0.13603 0.29937 0.70053 0.0
C356 C 0.18343 0.25892 0.73738 0.0
O357 O 0.13486 0.24973 0.77588 0.0
O358 O 0.14319 0.27508 0.79877 0.0
O359 O 0.17829 0.27483 0.7381 0.0
O360 O 0.17142 0.24765 0.73054 0.0
C361 C 0.14404 0.2535 0.6398 0.0
O362 O 0.15172 0.29785 0.71521 0.0
O363 O 0.12723 0.2852 0.69919 0.0
In364 In 0.47279 0.59875 0.06076 0.0
O365 O 0.44487 0.5933 0.08774 0.0
O366 O 0.45213 0.61985 0.07178 0.0
C367 C 0.48195 0.56493 0.04579 0.0
C368 C 0.48803 0.60708 0.14273 0.0
C369 C 0.47923 0.61126 0.97439 0.0
O370 O 0.46626 0.5703 0.04009 0.0
O371 O 0.49287 0.5766 0.05832 0.0
O372 O 0.49094 0.61145 0.00584 0.0
O373 O 0.46446 0.60525 0.98709 0.0
C374 C 0.44044 0.60941 0.08689 0.0
O375 O 0.48841 0.61771 0.10866 0.0
O376 O 0.48047 0.59257 0.13455 0.0
In377 In 0.14649 0.72901 0.75899 0.0
O378 O 0.13021 0.74805 0.80451 0.0
O379 O 0.15658 0.742 0.82461 0.0
C380 C 0.13101 0.73283 0.67472 0.0
C381 C 0.13387 0.6992 0.79727 0.0
C382 C 0.18103 0.73352 0.74026 0.0
O383 O 0.1327 0.74557 0.70282 0.0
O384 O 0.13646 0.71818 0.69 0.0
O385 O 0.17532 0.72038 0.76289 0.0
O386 O 0.16928 0.74414 0.72641 0.0
C387 C 0.14236 0.74986 0.83443 0.0
O388 O 0.14701 0.69891 0.77008 0.0
O389 O 0.12696 0.71418 0.80326 0.0
In390 In 0.02192 0.4017 0.57616 0.0
O391 O 0.00432 0.38486 0.62379 0.0
O392 O 0.01351 0.40988 0.64819 0.0
C393 C 0.01775 0.3861 0.4921 0.0
C394 C 0.05289 0.39075 0.61079 0.0
C395 C 0.0136 0.43541 0.55639 0.0
O396 O 0.00495 0.3883 0.51976 0.0
O397 O 0.03246 0.39109 0.50774 0.0
O398 O 0.02944 0.43007 0.55717 0.0
O399 O 0.00214 0.4238 0.56548 0.0
C400 C 0.00494 0.39593 0.65687 0.0
O401 O 0.05157 0.40551 0.59036 0.0
O402 O 0.03893 0.38167 0.61237 0.0
In403 In 0.34438 0.27413 0.29289 0.0
O404 O 0.36554 0.26025 0.33828 0.0
O405 O 0.33872 0.25892 0.35904 0.0
C406 C 0.35564 0.2713 0.20439 0.0
C407 C 0.35407 0.30649 0.32181 0.0
C408 C 0.31065 0.26524 0.27626 0.0
O409 O 0.35852 0.25932 0.23425 0.0
O410 O 0.34747 0.28466 0.21964 0.0
O411 O 0.31479 0.27981 0.29492 0.0
O412 O 0.3235 0.25535 0.26573 0.0
C413 C 0.35452 0.25524 0.36853 0.0
O414 O 0.3643 0.29615 0.30038 0.0
O415 O 0.33857 0.30072 0.32783 0.0
C416 C 0.97952 0.09802 0.67465 0.0
C417 C 0.98693 0.10773 0.6379 0.0
C418 C 0.98598 0.09959 0.72009 0.0
C419 C 0.0001 0.11134 0.72938 0.0
C420 C 0.00712 0.12184 0.69291 0.0
C421 C 0.00052 0.11982 0.64737 0.0
C422 C 0.97819 0.088 0.75776 0.0
C423 C 0.02198 0.13472 0.70168 0.0
C424 C 0.0072 0.11864 0.85888 0.0
C425 C 0.02004 0.10579 0.86867 0.0
C426 C 0.00137 0.12153 0.81299 0.0
C427 C 0.00842 0.11116 0.77634 0.0
C428 C 0.02201 0.0988 0.78588 0.0
C429 C 0.0277 0.09634 0.83182 0.0
C430 C 0.98707 0.13503 0.80407 0.0
C431 C 0.02979 0.08733 0.748 0.0
H432 H 0.96896 0.0887 0.66772 0.0
H433 H 0.00621 0.12744 0.61915 0.0
H434 H 0.9884 0.07865 0.77061 0.0
H435 H 0.97392 0.09617 0.78775 0.0
H436 H 0.96666 0.08022 0.74527 0.0
H437 H 0.02439 0.14349 0.6713 0.0
H438 H 0.01901 0.14303 0.73252 0.0
H439 H 0.03433 0.12734 0.70929 0.0
H440 H 0.00134 0.12609 0.88717 0.0
H441 H 0.03773 0.08646 0.83905 0.0
H442 H 0.97445 0.12816 0.79625 0.0
H443 H 0.99043 0.14328 0.77338 0.0
H444 H 0.98494 0.14382 0.83454 0.0
H445 H 0.01955 0.07805 0.73502 0.0
H446 H 0.04129 0.07949 0.76042 0.0
H447 H 0.03408 0.09557 0.71813 0.0
C448 C 0.15387 0.75906 0.9117 0.0
C449 C 0.13958 0.75789 0.88077 0.0
C450 C 0.1513 0.76352 0.95849 0.0
C451 C 0.13399 0.76704 0.97484 0.0
C452 C 0.1196 0.7669 0.94324 0.0
C453 C 0.12257 0.76227 0.89645 0.0
C454 C 0.16703 0.76359 0.99093 0.0
C455 C 0.101 0.77083 0.95926 0.0
C456 C 0.1292 0.7573 0.10361 0.0
C457 C 0.13263 0.77394 0.12303 0.0
C458 C 0.12849 0.75504 0.05514 0.0
C459 C 0.1311 0.76982 0.02555 0.0
C460 C 0.13325 0.78685 0.04512 0.0
C461 C 0.13411 0.78869 0.09366 0.0
C462 C 0.12619 0.73664 0.03564 0.0
C463 C 0.13577 0.80297 0.01484 0.0
H464 H 0.16708 0.75576 0.89977 0.0
H465 H 0.11146 0.76133 0.87273 0.0
H466 H 0.16787 0.77641 0.00956 0.0
H467 H 0.16543 0.75308 0.01756 0.0
H468 H 0.17971 0.76134 0.97228 0.0
H469 H 0.09172 0.77241 0.92958 0.0
H470 H 0.09621 0.75984 0.98153 0.0
H471 H 0.10072 0.78305 0.98061 0.0
H472 H 0.12801 0.74587 0.12616 0.0
H473 H 0.13659 0.80163 0.10854 0.0
H474 H 0.13876 0.73227 0.01936 0.0
H475 H 0.11589 0.73657 0.00816 0.0
H476 H 0.12247 0.72691 0.06291 0.0
H477 H 0.14912 0.80259 0.99882 0.0
H478 H 0.13453 0.81545 0.03498 0.0
H479 H 0.12596 0.80313 0.98614 0.0
C480 C 0.49661 0.90317 0.20329 0.0
C481 C 0.49386 0.88993 0.16997 0.0
C482 C 0.49116 0.90092 0.24945 0.0
C483 C 0.48276 0.88498 0.26281 0.0
C484 C 0.4797 0.87161 0.22924 0.0
C485 C 0.48527 0.87426 0.18304 0.0
C486 C 0.49457 0.91558 0.28406 0.0
C487 C 0.47079 0.85445 0.24231 0.0
C488 C 0.48575 0.87738 0.39286 0.0
C489 C 0.46984 0.88493 0.40806 0.0
C490 C 0.48965 0.87611 0.34519 0.0
C491 C 0.47733 0.88257 0.31214 0.0
C492 C 0.46073 0.88902 0.32727 0.0
C493 C 0.45718 0.89013 0.37507 0.0
C494 C 0.50746 0.86904 0.33042 0.0
C495 C 0.4472 0.89597 0.29319 0.0
H496 H 0.50321 0.91534 0.19339 0.0
H497 H 0.48319 0.86395 0.15741 0.0
H498 H 0.48193 0.91995 0.29996 0.0
H499 H 0.50315 0.91066 0.31259 0.0
H500 H 0.50106 0.92724 0.26786 0.0
H501 H 0.46891 0.8456 0.21186 0.0
H502 H 0.47885 0.8474 0.26873 0.0
H503 H 0.4577 0.85714 0.25824 0.0
H504 H 0.49554 0.87326 0.4182 0.0
H505 H 0.44479 0.89585 0.3866 0.0
H506 H 0.51583 0.88013 0.31795 0.0
H507 H 0.50598 0.85958 0.30118 0.0
H508 H 0.51446 0.86232 0.35946 0.0
H509 H 0.45188 0.90873 0.27859 0.0
H510 H 0.43412 0.89819 0.30983 0.0
H511 H 0.4455 0.88667 0.26371 0.0
C512 C 0.3769 0.24906 0.43105 0.0
C513 C 0.35947 0.24803 0.41457 0.0
C514 C 0.38088 0.24518 0.47783 0.0
C515 C 0.36706 0.24027 0.50855 0.0
C516 C 0.34964 0.23828 0.49125 0.0
C517 C 0.34609 0.24212 0.44453 0.0
C518 C 0.39965 0.24719 0.49481 0.0
C519 C 0.3345 0.23297 0.52265 0.0
C520 C 0.37146 0.219 0.62709 0.0
C521 C 0.36737 0.23327 0.65638 0.0
C522 C 0.37306 0.22136 0.57882 0.0
C523 C 0.37022 0.23833 0.55943 0.0
C524 C 0.3675 0.25301 0.58925 0.0
C525 C 0.36621 0.25031 0.63748 0.0
C526 C 0.37638 0.20544 0.54839 0.0
C527 C 0.36443 0.27134 0.57001 0.0
H528 H 0.38729 0.25367 0.40804 0.0
H529 H 0.3326 0.24119 0.43192 0.0
H530 H 0.40072 0.25933 0.51626 0.0
H531 H 0.40346 0.23584 0.51717 0.0
H532 H 0.4092 0.24822 0.46556 0.0
H533 H 0.3219 0.23127 0.50327 0.0
H534 H 0.33761 0.22039 0.54073 0.0
H535 H 0.3325 0.24323 0.54975 0.0
H536 H 0.37259 0.20581 0.64162 0.0
H537 H 0.3631 0.26139 0.65998 0.0
H538 H 0.38595 0.20864 0.52037 0.0
H539 H 0.36382 0.20138 0.53151 0.0
H540 H 0.38151 0.19403 0.56871 0.0
H541 H 0.37455 0.27463 0.54344 0.0
H542 H 0.36473 0.2816 0.59765 0.0
H543 H 0.35131 0.27182 0.5527 0.0
C544 C 0.998 0.87402 0.86214 0.0
C545 C 0.99214 0.89079 0.87613 0.0
C546 C 0.00396 0.87111 0.81632 0.0
C547 C 0.00403 0.88532 0.78411 0.0
C548 C -0.00133 0.90237 0.79872 0.0
C549 C 0.99282 0.90487 0.84443 0.0
C550 C 0.00968 0.85279 0.80201 0.0
C551 C -0.00138 0.91793 0.76568 0.0
C552 C 0.03047 0.88732 0.67239 0.0
C553 C 0.01716 0.88503 0.63889 0.0
C554 C 0.02667 0.88608 0.72008 0.0
C555 C 0.00913 0.88259 0.73459 0.0
C556 C 0.99591 0.87909 0.70086 0.0
C557 C 0.0001 0.88032 0.65335 0.0
C558 C 0.04118 0.88974 0.75486 0.0
C559 C 0.97704 0.87531 0.71488 0.0
H560 H 0.99743 0.86308 0.8865 0.0
H561 H 0.98839 0.9179 0.85508 0.0
H562 H 0.00025 0.84743 0.77601 0.0
H563 H 0.02288 0.85326 0.78519 0.0
H564 H 0.01026 0.84354 0.83202 0.0
H565 H 0.99451 0.93042 0.78295 0.0
H566 H 0.01201 0.91986 0.75069 0.0
H567 H 0.98945 0.91531 0.73636 0.0
H568 H 0.04374 0.89079 0.66142 0.0
H569 H 0.98979 0.87844 0.62762 0.0
H570 H 0.04089 0.87989 0.78347 0.0
H571 H 0.03909 0.90297 0.77061 0.0
H572 H 0.05449 0.88952 0.73848 0.0
H573 H 0.97661 0.86518 0.74277 0.0
H574 H 0.96892 0.87066 0.68508 0.0
H575 H 0.97094 0.88754 0.72897 0.0
C576 C 0.36977 0.758 0.89376 0.0
C577 C 0.35323 0.76468 0.88036 0.0
C578 C 0.37281 0.7524 0.93982 0.0
C579 C 0.35886 0.75318 0.97272 0.0
C580 C 0.34217 0.75997 0.95919 0.0
C581 C 0.33963 0.76576 0.9134 0.0
C582 C 0.39084 0.74552 0.95321 0.0
C583 C 0.32682 0.76074 0.99282 0.0
C584 C 0.35509 0.72227 0.07563 0.0
C585 C 0.35795 0.7338 0.11313 0.0
C586 C 0.35655 0.72813 0.02954 0.0
C587 C 0.36106 0.74597 0.0206 0.0
C588 C 0.36523 0.75735 0.05824 0.0
C589 C 0.36358 0.75113 0.10421 0.0
C590 C 0.35195 0.71554 0.99058 0.0
C591 C 0.37034 0.77639 0.05008 0.0
H592 H 0.38035 0.75728 0.86837 0.0
H593 H 0.3268 0.77085 0.90321 0.0
H594 H 0.39586 0.75276 0.98407 0.0
H595 H 0.38989 0.73136 0.96301 0.0
H596 H 0.40058 0.74686 0.92448 0.0
H597 H 0.31479 0.76665 0.97695 0.0
H598 H 0.32353 0.7472 0.00501 0.0
H599 H 0.33048 0.76863 0.02388 0.0
H600 H 0.35093 0.70878 0.08225 0.0
H601 H 0.3659 0.76007 0.13305 0.0
H602 H 0.36212 0.71603 0.96281 0.0
H603 H 0.33917 0.71955 0.97475 0.0
H604 H 0.35072 0.70166 0.00294 0.0
H605 H 0.38025 0.77739 0.02174 0.0
H606 H 0.37582 0.78265 0.08194 0.0
H607 H 0.3585 0.784 0.03906 0.0
C608 C 0.47183 0.11191 0.094 0.0
C609 C 0.48654 0.11224 0.06423 0.0
C610 C 0.47395 0.11246 0.14247 0.0
C611 C 0.49118 0.11333 0.16151 0.0
C612 C 0.50595 0.11518 0.13155 0.0
C613 C 0.50345 0.11462 0.08316 0.0
C614 C 0.45784 0.11064 0.17315 0.0
C615 C 0.52454 0.11631 0.15052 0.0
C616 C 0.49885 0.11921 0.29158 0.0
C617 C 0.50217 0.10172 0.30529 0.0
C618 C 0.49479 0.12326 0.245 0.0
C619 C 0.494 0.10948 0.21172 0.0
C620 C 0.4966 0.09173 0.22597 0.0
C621 C 0.50068 0.08809 0.2725 0.0
C622 C 0.49205 0.14232 0.2311 0.0
C623 C 0.49568 0.07659 0.19173 0.0
H624 H 0.45869 0.11024 0.07955 0.0
H625 H 0.51485 0.11499 0.06031 0.0
H626 H 0.45737 0.09706 0.18776 0.0
H627 H 0.4585 0.11999 0.20284 0.0
H628 H 0.44538 0.11304 0.15364 0.0
H629 H 0.53424 0.12016 0.12332 0.0
H630 H 0.52524 0.126 0.17942 0.0
H631 H 0.52847 0.10323 0.16474 0.0
H632 H 0.50009 0.12979 0.3168 0.0
H633 H 0.50316 0.07454 0.28299 0.0
H634 H 0.47979 0.14374 0.21022 0.0
H635 H 0.50323 0.14671 0.20893 0.0
H636 H 0.49121 0.15122 0.26175 0.0
H637 H 0.4828 0.07675 0.17322 0.0
H638 H 0.4973 0.06352 0.20884 0.0
H639 H 0.50622 0.07809 0.16515 0.0
C640 C 0.12533 0.23835 0.57962 0.0
C641 C 0.14121 0.24665 0.59224 0.0
C642 C 0.12252 0.23257 0.53367 0.0
C643 C 0.13598 0.23501 0.49999 0.0
C644 C 0.15206 0.24327 0.51281 0.0
C645 C 0.15443 0.24903 0.55865 0.0
C646 C 0.10518 0.22393 0.52109 0.0
C647 C 0.16685 0.24596 0.47812 0.0
C648 C 0.14128 0.2069 0.3922 0.0
C649 C 0.13662 0.21889 0.35701 0.0
C650 C 0.13994 0.21155 0.43927 0.0
C651 C 0.13375 0.22859 0.45144 0.0
C652 C 0.1278 0.24027 0.41619 0.0
C653 C 0.12934 0.23529 0.36926 0.0
C654 C 0.14643 0.19869 0.47571 0.0
C655 C 0.12095 0.25849 0.42784 0.0
H656 H 0.11503 0.2366 0.60545 0.0
H657 H 0.16675 0.25541 0.56822 0.0
H658 H 0.09868 0.23143 0.49264 0.0
H659 H 0.10756 0.21034 0.508 0.0
H660 H 0.09597 0.22321 0.55117 0.0
H661 H 0.17851 0.25265 0.49374 0.0
H662 H 0.17117 0.23301 0.46395 0.0
H663 H 0.16209 0.25404 0.44842 0.0
H664 H 0.14678 0.19413 0.38297 0.0
H665 H 0.12562 0.24456 0.3422 0.0
H666 H 0.13682 0.1977 0.50476 0.0
H667 H 0.15909 0.20355 0.49047 0.0
H668 H 0.14866 0.18526 0.46118 0.0
H669 H 0.11139 0.25786 0.45708 0.0
H670 H 0.11442 0.26488 0.39755 0.0
H671 H 0.13212 0.26698 0.43912 0.0
C672 C 0.001 0.90464 0.34202 0.0
C673 C 0.00064 0.89102 0.37512 0.0
C674 C 0.99488 0.90195 0.29663 0.0
C675 C 0.9882 0.88517 0.28373 0.0
C676 C 0.98733 0.87144 0.31725 0.0
C677 C 0.99356 0.87453 0.36274 0.0
C678 C 0.99594 0.91702 0.26216 0.0
C679 C 0.98024 0.85341 0.30474 0.0
C680 C 0.96127 0.88777 0.17285 0.0
C681 C 0.97418 0.88418 0.13907 0.0
C682 C 0.96526 0.8868 0.22049 0.0
C683 C 0.9826 0.88222 0.23465 0.0
C684 C 0.99532 0.87738 0.20074 0.0
C685 C 0.99094 0.87841 0.15331 0.0
C686 C 0.95128 0.89194 0.25546 0.0
C687 C 0.01394 0.87236 0.21437 0.0
H688 H 0.00638 0.91745 0.3514 0.0
H689 H 0.99331 0.86395 0.38817 0.0
H690 H 0.00474 0.91332 0.23283 0.0
H691 H 0.98267 0.91978 0.24739 0.0
H692 H 0.00109 0.92937 0.27812 0.0
H693 H 0.97933 0.84454 0.33548 0.0
H694 H 0.96694 0.85462 0.28876 0.0
H695 H 0.98901 0.84714 0.27855 0.0
H696 H 0.94822 0.89209 0.1621 0.0
H697 H 0.00095 0.87552 0.12738 0.0
H698 H 0.95443 0.90518 0.26994 0.0
H699 H 0.95103 0.88246 0.28492 0.0
H700 H 0.93789 0.89251 0.23961 0.0
H701 H 0.02105 0.88428 0.22692 0.0
H702 H 0.02147 0.86668 0.18473 0.0
H703 H 0.01381 0.86263 0.24326 0.0
C704 C 0.86893 0.2407 0.06984 0.0
C705 C 0.85243 0.24753 0.08307 0.0
C706 C 0.87196 0.23502 0.02387 0.0
C707 C 0.85815 0.23625 0.99068 0.0
C708 C 0.84132 0.24256 0.00445 0.0
C709 C 0.83868 0.2481 0.05039 0.0
C710 C 0.89003 0.22825 0.01048 0.0
C711 C 0.82618 0.24399 0.97028 0.0
C712 C 0.86514 0.24132 0.86084 0.0
C713 C 0.85954 0.22477 0.8446 0.0
C714 C 0.86597 0.24489 0.90874 0.0
C715 C 0.86115 0.23156 0.94102 0.0
C716 C 0.85678 0.21444 0.9248 0.0
C717 C 0.85597 0.21127 0.87675 0.0
C718 C 0.87074 0.26331 0.92463 0.0
C719 C 0.85173 0.19982 0.95803 0.0
H720 H 0.87962 0.24029 0.09497 0.0
H721 H 0.82587 0.2533 0.06044 0.0
H722 H 0.88889 0.21532 0.99251 0.0
H723 H 0.8963 0.2376 0.98572 0.0
H724 H 0.89886 0.2267 0.04111 0.0
H725 H 0.81378 0.24869 0.98695 0.0
H726 H 0.82973 0.25333 0.94197 0.0
H727 H 0.8236 0.23094 0.954 0.0
H728 H 0.86798 0.25178 0.83615 0.0
H729 H 0.85179 0.19838 0.8644 0.0
H730 H 0.88051 0.26277 0.95339 0.0
H731 H 0.85873 0.27001 0.93816 0.0
H732 H 0.87629 0.27145 0.89593 0.0
H733 H 0.86117 0.19916 0.98753 0.0
H734 H 0.85133 0.18671 0.9406 0.0
H735 H 0.83844 0.20258 0.97273 0.0
C736 C 0.51015 0.12184 0.79221 0.0
C737 C 0.50847 0.10427 0.80727 0.0
C738 C 0.51393 0.12573 0.74538 0.0
C739 C 0.51605 0.11171 0.71321 0.0
C740 C 0.51545 0.09397 0.72902 0.0
C741 C 0.51167 0.09049 0.77582 0.0
C742 C 0.51466 0.14479 0.72994 0.0
C743 C 0.51784 0.0786 0.69602 0.0
C744 C 0.5042 0.11397 0.58555 0.0
C745 C 0.52095 0.1128 0.56499 0.0
C746 C 0.5024 0.11511 0.63408 0.0
C747 C 0.51774 0.11519 0.66247 0.0
C748 C 0.53466 0.11573 0.64154 0.0
C749 C 0.53607 0.11446 0.59299 0.0
C750 C 0.4841 0.11466 0.65505 0.0
C751 C 0.55132 0.11614 0.67047 0.0
H752 H 0.5076 0.13254 0.81639 0.0
H753 H 0.51049 0.07689 0.78737 0.0
H754 H 0.52611 0.14706 0.70653 0.0
H755 H 0.50251 0.14803 0.71004 0.0
H756 H 0.51561 0.15401 0.75994 0.0
H757 H 0.51794 0.06566 0.71435 0.0
H758 H 0.50694 0.0785 0.67017 0.0
H759 H 0.53043 0.08 0.67653 0.0
H760 H 0.49248 0.11278 0.56404 0.0
H761 H 0.54908 0.11377 0.57719 0.0
H762 H 0.48282 0.12476 0.68284 0.0
H763 H 0.48179 0.10153 0.67122 0.0
H764 H 0.47363 0.11699 0.6286 0.0
H765 H 0.55002 0.12569 0.69959 0.0
H766 H 0.56309 0.11975 0.64936 0.0
H767 H 0.55361 0.10288 0.68586 0.0
C768 C 0.65692 0.74569 0.50923 0.0
C769 C 0.64348 0.74514 0.54273 0.0
C770 C 0.65333 0.75052 0.4632 0.0
C771 C 0.63577 0.75474 0.45006 0.0
C772 C 0.62215 0.75458 0.48393 0.0
C773 C 0.6262 0.74987 0.53011 0.0
C774 C 0.66832 0.75079 0.42841 0.0
C775 C 0.60328 0.75887 0.47109 0.0
C776 C 0.63518 0.77977 0.33637 0.0
C777 C 0.63412 0.76584 0.30423 0.0
C778 C 0.63419 0.77656 0.38437 0.0
C779 C 0.632 0.75902 0.40051 0.0
C780 C 0.62921 0.74517 0.36811 0.0
C781 C 0.63036 0.74875 0.32024 0.0
C782 C 0.63716 0.79172 0.41765 0.0
C783 C 0.62653 0.72633 0.38395 0.0
H784 H 0.67032 0.74213 0.51893 0.0
H785 H 0.61576 0.74931 0.55592 0.0
H786 H 0.6658 0.74094 0.40057 0.0
H787 H 0.66918 0.76398 0.41162 0.0
H788 H 0.6813 0.74775 0.44468 0.0
H789 H 0.5945 0.75947 0.50206 0.0
H790 H 0.60261 0.77172 0.45251 0.0
H791 H 0.59813 0.74862 0.44703 0.0
H792 H 0.63791 0.79307 0.32422 0.0
H793 H 0.62937 0.73795 0.29555 0.0
H794 H 0.65074 0.79083 0.43218 0.0
H795 H 0.62777 0.79105 0.44724 0.0
H796 H 0.6357 0.80476 0.40024 0.0
H797 H 0.6393 0.7209 0.39662 0.0
H798 H 0.62166 0.71774 0.35534 0.0
H799 H 0.617 0.72574 0.41324 0.0
C800 C 0.9747 0.10083 0.33171 0.0
C801 C 0.98393 0.10887 0.36837 0.0
C802 C 0.98054 0.10236 0.28563 0.0
C803 C 0.99596 0.11229 0.27579 0.0
C804 C 0.0047 0.1214 0.31224 0.0
C805 C -0.00138 0.11951 0.35827 0.0
C806 C 0.97087 0.09233 0.24796 0.0
C807 C 0.02102 0.13233 0.30301 0.0
C808 C 0.02224 0.09431 0.17431 0.0
C809 C 0.0166 0.10509 0.13744 0.0
C810 C 0.0161 0.09699 0.21969 0.0
C811 C 0.00414 0.11096 0.22879 0.0
C812 C -0.00105 0.12241 0.19215 0.0
C813 C 0.00516 0.11925 0.14668 0.0
C814 C 0.02185 0.08433 0.25752 0.0
C815 C 0.98646 0.13762 0.20074 0.0
H816 H 0.96323 0.09271 0.33916 0.0
H817 H 0.00573 0.12587 0.38643 0.0
H818 H 0.96804 0.1011 0.21795 0.0
H819 H 0.97935 0.08138 0.23514 0.0
H820 H 0.9582 0.08662 0.26055 0.0
H821 H 0.02457 0.14076 0.33327 0.0
H822 H 0.03234 0.12344 0.29542 0.0
H823 H 0.01906 0.14091 0.2721 0.0
H824 H 0.03114 0.08336 0.16754 0.0
H825 H 0.00087 0.1277 0.11837 0.0
H826 H 0.01021 0.0769 0.27063 0.0
H827 H 0.0275 0.09174 0.28731 0.0
H828 H 0.03186 0.07467 0.24511 0.0
H829 H 0.97308 0.13243 0.2088 0.0
H830 H 0.98544 0.14653 0.17012 0.0
H831 H 0.99086 0.14544 0.23127 0.0
C832 C 0.63236 0.22276 0.11626 0.0
C833 C 0.63065 0.23566 0.15106 0.0
C834 C 0.63124 0.22728 0.06905 0.0
C835 C 0.62832 0.24512 0.05635 0.0
C836 C 0.62497 0.25789 0.09136 0.0
C837 C 0.62621 0.25301 0.13844 0.0
C838 C 0.63483 0.21323 0.03293 0.0
C839 C 0.62159 0.27702 0.07922 0.0
C840 C 0.65318 0.2613 0.95031 0.0
C841 C 0.63992 0.26184 0.91626 0.0
C842 C 0.64948 0.25583 0.99577 0.0
C843 C 0.63202 0.25089 0.00781 0.0
C844 C 0.61853 0.25125 0.97356 0.0
C845 C 0.62267 0.25667 0.92793 0.0
C846 C 0.66434 0.25543 0.03099 0.0
C847 C 0.59976 0.24617 0.98529 0.0
H848 H 0.63558 0.20927 0.1258 0.0
H849 H 0.62474 0.263 0.1652 0.0
H850 H 0.62538 0.2143 0.00357 0.0
H851 H 0.64833 0.21511 0.01859 0.0
H852 H 0.63398 0.19968 0.04778 0.0
H853 H 0.61623 0.28454 0.10929 0.0
H854 H 0.63417 0.2833 0.06821 0.0
H855 H 0.61218 0.27808 0.04974 0.0
H856 H 0.66656 0.26521 0.94146 0.0
H857 H 0.61237 0.25719 0.90173 0.0
H858 H 0.66582 0.24188 0.04533 0.0
H859 H 0.66121 0.26436 0.06049 0.0
H860 H 0.67721 0.25955 0.01581 0.0
H861 H 0.59939 0.23259 0.99987 0.0
H862 H 0.59091 0.24675 0.95448 0.0
H863 H 0.5945 0.25519 0.01241 0.0
C864 C 0.48615 0.86726 0.68367 0.0
C865 C 0.48912 0.88437 0.66642 0.0
C866 C 0.48964 0.86314 0.73054 0.0
C867 C 0.4961 0.87649 0.76062 0.0
C868 C 0.49999 0.89349 0.74262 0.0
C869 C 0.49651 0.89718 0.69577 0.0
C870 C 0.48559 0.8448 0.74828 0.0
C871 C 0.50698 0.90812 0.77339 0.0
C872 C 0.48674 0.87885 0.88978 0.0
C873 C 0.50364 0.87589 0.90819 0.0
C874 C 0.48372 0.87773 0.84166 0.0
C875 C 0.4979 0.87335 0.81152 0.0
C876 C 0.51453 0.8687 0.83048 0.0
C877 C 0.51724 0.87015 0.87862 0.0
C878 C 0.46576 0.88276 0.82284 0.0
C879 C 0.52987 0.86357 0.79969 0.0
H880 H 0.48038 0.85732 0.66114 0.0
H881 H 0.4989 0.91041 0.68259 0.0
H882 H 0.49653 0.83985 0.77049 0.0
H883 H 0.47349 0.84521 0.77007 0.0
H884 H 0.48337 0.83528 0.71942 0.0
H885 H 0.50996 0.92037 0.75354 0.0
H886 H 0.49708 0.91133 0.80062 0.0
H887 H 0.51921 0.90375 0.79133 0.0
H888 H 0.47618 0.88325 0.91252 0.0
H889 H 0.5303 0.86765 0.8928 0.0
H890 H 0.46126 0.873 0.79658 0.0
H891 H 0.46666 0.8958 0.80525 0.0
H892 H 0.45563 0.88366 0.85075 0.0
H893 H 0.52552 0.85427 0.7721 0.0
H894 H 0.54075 0.85733 0.81983 0.0
H895 H 0.53516 0.87555 0.78225 0.0
C896 C 0.87311 0.75386 0.59751 0.0
C897 C 0.86506 0.76985 0.6102 0.0
C898 C 0.87448 0.74889 0.55054 0.0
C899 C 0.86753 0.76014 0.51559 0.0
C900 C 0.8605 0.77683 0.52809 0.0
C901 C 0.85939 0.7815 0.57525 0.0
C902 C 0.88222 0.73105 0.53864 0.0
C903 C 0.85292 0.78921 0.492 0.0
C904 C 0.87523 0.74988 0.38715 0.0
C905 C 0.85973 0.74059 0.3761 0.0
C906 C 0.87811 0.75628 0.43256 0.0
C907 C 0.86512 0.7534 0.46733 0.0
C908 C 0.84944 0.74413 0.45608 0.0
C909 C 0.84698 0.73781 0.41078 0.0
C910 C 0.89502 0.76603 0.44342 0.0
C911 C 0.83517 0.74088 0.49193 0.0
H912 H 0.87763 0.74485 0.62435 0.0
H913 H 0.85325 0.79394 0.58478 0.0
H914 H 0.87144 0.72192 0.52825 0.0
H915 H 0.89144 0.73215 0.50875 0.0
H916 H 0.8894 0.72511 0.56855 0.0
H917 H 0.85019 0.80256 0.50647 0.0
H918 H 0.86208 0.79058 0.46207 0.0
H919 H 0.84033 0.78366 0.4785 0.0
H920 H 0.88514 0.752 0.3605 0.0
H921 H 0.83495 0.73068 0.4025 0.0
H922 H 0.90228 0.7591 0.47162 0.0
H923 H 0.89196 0.77953 0.45622 0.0
H924 H 0.90382 0.76712 0.41261 0.0
H925 H 0.84064 0.73321 0.52154 0.0
H926 H 0.82371 0.73351 0.47741 0.0
H927 H 0.83033 0.75366 0.50598 0.0
C928 C 0.49718 0.5973 0.22147 0.0
C929 C 0.49484 0.61118 0.18974 0.0
C930 C 0.50177 0.60057 0.26783 0.0
C931 C 0.50398 0.61822 0.28319 0.0
C932 C 0.50216 0.63233 0.25104 0.0
C933 C 0.49766 0.62863 0.20445 0.0
C934 C 0.50381 0.58507 0.30067 0.0
C935 C 0.50439 0.6513 0.26616 0.0
C936 C 0.49716 0.62023 0.41344 0.0
C937 C 0.51451 0.61782 0.42943 0.0
C938 C 0.49361 0.6221 0.36569 0.0
C939 C 0.50775 0.6215 0.33333 0.0
C940 C 0.52538 0.62078 0.34975 0.0
C941 C 0.52855 0.61895 0.39763 0.0
C942 C 0.47462 0.62309 0.34968 0.0
C943 C 0.54086 0.62025 0.31658 0.0
H944 H 0.49514 0.58377 0.2102 0.0
H945 H 0.49574 0.6394 0.18005 0.0
H946 H 0.51705 0.5854 0.31733 0.0
H947 H 0.4938 0.58594 0.32879 0.0
H948 H 0.50223 0.57215 0.28277 0.0
H949 H 0.50435 0.66058 0.23618 0.0
H950 H 0.49344 0.65498 0.28997 0.0
H951 H 0.51693 0.65297 0.28573 0.0
H952 H 0.48625 0.61951 0.43785 0.0
H953 H 0.54203 0.6173 0.40979 0.0
H954 H 0.47064 0.61012 0.33496 0.0
H955 H 0.47308 0.63314 0.32184 0.0
H956 H 0.46548 0.62638 0.3787 0.0
H957 H 0.5416 0.60696 0.3003 0.0
H958 H 0.55359 0.62287 0.33459 0.0
H959 H 0.53916 0.63006 0.28823 0.0
C960 C 0.65469 0.24218 0.44993 0.0
C961 C 0.64143 0.24464 0.41647 0.0
C962 C 0.65236 0.24784 0.49588 0.0
C963 C 0.63629 0.25607 0.50894 0.0
C964 C 0.62278 0.25854 0.47541 0.0
C965 C 0.62554 0.25286 0.42936 0.0
C966 C 0.6672 0.24511 0.5304 0.0
C967 C 0.60544 0.26715 0.48824 0.0
C968 C 0.62977 0.25589 0.63976 0.0
C969 C 0.63699 0.27232 0.65186 0.0
C970 C 0.62825 0.25084 0.59287 0.0
C971 C 0.63415 0.2625 0.55751 0.0
C972 C 0.64032 0.27956 0.56954 0.0
C973 C 0.64164 0.28427 0.61656 0.0
C974 C 0.62142 0.2326 0.58137 0.0
C975 C 0.64676 0.29239 0.53298 0.0
H976 H 0.66701 0.23585 0.44017 0.0
H977 H 0.61522 0.25467 0.40363 0.0
H978 H 0.67156 0.25806 0.54451 0.0
H979 H 0.66248 0.23705 0.56016 0.0
H980 H 0.67882 0.2384 0.51465 0.0
H981 H 0.59613 0.26777 0.45836 0.0
H982 H 0.59906 0.2597 0.51697 0.0
H983 H 0.60782 0.28078 0.50105 0.0
H984 H 0.62607 0.24665 0.66691 0.0
H985 H 0.64709 0.29707 0.62567 0.0
H986 H 0.63259 0.22413 0.56996 0.0
H987 H 0.6118 0.23321 0.55225 0.0
H988 H 0.61496 0.22622 0.61177 0.0
H989 H 0.65938 0.28748 0.51802 0.0
H990 H 0.64907 0.30582 0.54744 0.0
H991 H 0.63709 0.2934 0.50408 0.0
C992 C 0.99394 0.37505 0.71822 0.0
C993 C 0.99803 0.39232 0.704 0.0
C994 C 0.98979 0.37137 0.76498 0.0
C995 C 0.98968 0.38531 0.79789 0.0
C996 C 0.99306 0.40286 0.7831 0.0
C997 C 0.99722 0.40612 0.73643 0.0
C998 C 0.98623 0.35251 0.77945 0.0
C999 C 0.99287 0.41816 0.81691 0.0
C1000 C 0.96763 0.38458 0.91588 0.0
C1001 C 0.98236 0.38383 0.94552 0.0
C1002 C 0.96963 0.38357 0.86743 0.0
C1003 C 0.98677 0.38181 0.84826 0.0
C1004 C 0.00149 0.37948 0.87817 0.0
C1005 C -0.00089 0.38053 0.92656 0.0
C1006 C 0.95357 0.38592 0.83683 0.0
C1007 C 0.01998 0.37738 0.85908 0.0
H1008 H 0.99466 0.36433 0.69327 0.0
H1009 H 0.00029 0.4195 0.72553 0.0
H1010 H 0.99728 0.34769 0.80146 0.0
H1011 H 0.974 0.35173 0.80066 0.0
H1012 H 0.98488 0.34355 0.74905 0.0
H1013 H 0.99504 0.43108 0.7994 0.0
H1014 H 0.98003 0.41867 0.83553 0.0
H1015 H 0.00338 0.4163 0.84343 0.0
H1016 H 0.9546 0.38696 0.93037 0.0
H1017 H 0.01053 0.37983 0.9493 0.0
H1018 H 0.95378 0.37641 0.80746 0.0
H1019 H 0.95365 0.39944 0.82176 0.0
H1020 H 0.94105 0.38415 0.85654 0.0
H1021 H 0.02017 0.36754 0.83048 0.0
H1022 H 0.02952 0.37318 0.88633 0.0
H1023 H 0.02451 0.39019 0.84443 0.0
C1024 C 0.86581 0.71608 0.0765 0.0
C1025 C 0.86707 0.72944 0.1102 0.0
C1026 C 0.86703 0.72003 0.02894 0.0
C1027 C 0.8694 0.73779 0.01475 0.0
C1028 C 0.87202 0.75113 0.04872 0.0
C1029 C 0.87087 0.74677 0.09618 0.0
C1030 C 0.86437 0.70538 0.99393 0.0
C1031 C 0.8746 0.77023 0.03502 0.0
C1032 C 0.87678 0.74899 0.88677 0.0
C1033 C 0.85956 0.75341 0.87282 0.0
C1034 C 0.88028 0.74365 0.93282 0.0
C1035 C 0.86622 0.74277 0.96535 0.0
C1036 C 0.84877 0.7468 0.95094 0.0
C1037 C 0.84568 0.75202 0.90495 0.0
C1038 C 0.89901 0.73933 0.94692 0.0
C1039 C 0.83336 0.74595 0.98438 0.0
H1040 H 0.86308 0.7026 0.08719 0.0
H1041 H 0.87192 0.75713 0.12211 0.0
H1042 H 0.851 0.70657 0.97832 0.0
H1043 H 0.87414 0.70643 0.96526 0.0
H1044 H 0.86555 0.69209 0.01011 0.0
H1045 H 0.87896 0.77849 0.06485 0.0
H1046 H 0.8845 0.77137 0.00669 0.0
H1047 H 0.86193 0.77564 0.02166 0.0
H1048 H 0.88756 0.75013 0.86209 0.0
H1049 H 0.83232 0.75538 0.8944 0.0
H1050 H 0.89957 0.72607 0.9634 0.0
H1051 H 0.90365 0.74904 0.97317 0.0
H1052 H 0.90825 0.73957 0.91688 0.0
H1053 H 0.83226 0.73247 0.99934 0.0
H1054 H 0.82059 0.74936 0.96745 0.0
H1055 H 0.83557 0.75524 0.01369 0.0
C1056 C 0.52818 0.39711 0.17582 0.0
C1057 C 0.51861 0.38928 0.13945 0.0
C1058 C 0.52267 0.39538 0.22221 0.0
C1059 C 0.50731 0.38542 0.23258 0.0
C1060 C 0.49826 0.37652 0.19631 0.0
C1061 C 0.50396 0.37864 0.15007 0.0
C1062 C 0.53263 0.40521 0.25971 0.0
C1063 C 0.48197 0.36559 0.206 0.0
C1064 C 0.49758 0.37646 0.36072 0.0
C1065 C 0.48567 0.39015 0.37089 0.0
C1066 C 0.50445 0.37439 0.31548 0.0
C1067 C 0.49943 0.38642 0.28 0.0
C1068 C 0.48728 0.40012 0.29016 0.0
C1069 C 0.48051 0.40175 0.33528 0.0
C1070 C 0.51721 0.3595 0.30573 0.0
C1071 C 0.48169 0.41336 0.25357 0.0
H1072 H 0.53956 0.40529 0.16791 0.0
H1073 H 0.49659 0.37244 0.12214 0.0
H1074 H 0.52435 0.41626 0.27283 0.0
H1075 H 0.53545 0.39637 0.28959 0.0
H1076 H 0.54532 0.41076 0.24678 0.0
H1077 H 0.47804 0.35748 0.17548 0.0
H1078 H 0.48421 0.3567 0.23615 0.0
H1079 H 0.4708 0.37447 0.21504 0.0
H1080 H 0.50154 0.36742 0.38807 0.0
H1081 H 0.47132 0.41237 0.34282 0.0
H1082 H 0.5303 0.36499 0.29594 0.0
H1083 H 0.51247 0.35152 0.27584 0.0
H1084 H 0.51896 0.35065 0.33626 0.0
H1085 H 0.49342 0.42069 0.24066 0.0
H1086 H 0.47193 0.42308 0.26702 0.0
H1087 H 0.47575 0.40641 0.22339 0.0
C1088 C 0.86445 0.27916 0.37498 0.0
C1089 C 0.8643 0.26516 0.34296 0.0
C1090 C 0.86563 0.27596 0.42297 0.0
C1091 C 0.86656 0.25832 0.43929 0.0
C1092 C 0.86789 0.24424 0.40692 0.0
C1093 C 0.86677 0.24784 0.35905 0.0
C1094 C 0.86439 0.29136 0.45622 0.0
C1095 C 0.869 0.22525 0.42288 0.0
C1096 C 0.87331 0.2476 0.56779 0.0
C1097 C 0.85585 0.24435 0.5819 0.0
C1098 C 0.8771 0.25262 0.52165 0.0
C1099 C 0.86309 0.25441 0.48923 0.0
C1100 C 0.84541 0.25183 0.50401 0.0
C1101 C 0.84204 0.24685 0.55005 0.0
C1102 C 0.89609 0.25536 0.5072 0.0
C1103 C 0.83003 0.25375 0.47077 0.0
H1104 H 0.86274 0.29261 0.36272 0.0
H1105 H 0.86677 0.23697 0.33446 0.0
H1106 H 0.85097 0.29171 0.47184 0.0
H1107 H 0.87403 0.28988 0.48505 0.0
H1108 H 0.8668 0.3042 0.43848 0.0
H1109 H 0.87248 0.21615 0.39395 0.0
H1110 H 0.87896 0.22379 0.45094 0.0
H1111 H 0.85602 0.22113 0.43733 0.0
H1112 H 0.88404 0.2456 0.59227 0.0
H1113 H 0.8285 0.24445 0.56082 0.0
H1114 H 0.89755 0.26803 0.48809 0.0
H1115 H 0.90015 0.24461 0.4832 0.0
H1116 H 0.90522 0.2554 0.53748 0.0
H1117 H 0.83019 0.26705 0.4545 0.0
H1118 H 0.81706 0.25185 0.48823 0.0
H1119 H 0.83121 0.24387 0.44238 0.0
C1120 C 0.00016 0.59071 0.81454 0.0
C1121 C 0.99774 0.60423 0.84728 0.0
C1122 C 0.99461 0.59277 0.7684 0.0
C1123 C 0.98648 0.60879 0.75449 0.0
C1124 C 0.98359 0.62236 0.78761 0.0
C1125 C 0.98923 0.61989 0.83381 0.0
C1126 C 0.99779 0.57789 0.73429 0.0
C1127 C 0.97499 0.6396 0.77394 0.0
C1128 C 0.99038 0.6163 0.62457 0.0
C1129 C 0.97436 0.60919 0.60873 0.0
C1130 C 0.99406 0.61738 0.67238 0.0
C1131 C 0.98141 0.61119 0.70491 0.0
C1132 C 0.96476 0.60512 0.68913 0.0
C1133 C 0.96144 0.60419 0.64119 0.0
C1134 C 0.01193 0.62405 0.68788 0.0
C1135 C 0.9509 0.59845 0.72266 0.0
H1136 H 0.00668 0.57855 0.82481 0.0
H1137 H 0.98744 0.63041 0.85899 0.0
H1138 H 0.98514 0.57385 0.71786 0.0
H1139 H 0.00671 0.58246 0.70608 0.0
H1140 H 0.00383 0.5661 0.75105 0.0
H1141 H 0.97278 0.64841 0.80432 0.0
H1142 H 0.98347 0.64663 0.74844 0.0
H1143 H 0.9621 0.63708 0.75673 0.0
H1144 H 0.00038 0.62026 0.59963 0.0
H1145 H 0.94896 0.5988 0.62915 0.0
H1146 H 0.01992 0.61281 0.70115 0.0
H1147 H 0.01047 0.63367 0.71675 0.0
H1148 H 0.01933 0.63046 0.65905 0.0
H1149 H 0.95527 0.58563 0.73758 0.0
H1150 H 0.93789 0.59645 0.70548 0.0
H1151 H 0.9492 0.60783 0.75199 0.0
C1152 C 0.65871 0.74276 0.01943 0.0
C1153 C 0.64468 0.74641 0.0498 0.0
C1154 C 0.65563 0.73881 0.97254 0.0
C1155 C 0.63806 0.73842 0.95553 0.0
C1156 C 0.62375 0.74112 0.98655 0.0
C1157 C 0.62724 0.74512 0.03348 0.0
C1158 C 0.67128 0.73585 0.94076 0.0
C1159 C 0.60484 0.74059 0.96979 0.0
C1160 C 0.63645 0.74823 0.82634 0.0
C1161 C 0.63724 0.73113 0.80772 0.0
C1162 C 0.63543 0.75084 0.87466 0.0
C1163 C 0.63502 0.73599 0.90479 0.0
C1164 C 0.63429 0.71875 0.88583 0.0
C1165 C 0.63552 0.71652 0.8375 0.0
C1166 C 0.63619 0.76945 0.89355 0.0
C1167 C 0.63353 0.70259 0.91664 0.0
H1168 H 0.67221 0.74368 0.03191 0.0
H1169 H 0.61634 0.748 0.0568 0.0
H1170 H 0.66995 0.723 0.92246 0.0
H1171 H 0.67169 0.74637 0.91384 0.0
H1172 H 0.68405 0.73591 0.95988 0.0
H1173 H 0.59526 0.74066 0.9991 0.0
H1174 H 0.60221 0.75229 0.94753 0.0
H1175 H 0.6025 0.72865 0.94824 0.0
H1176 H 0.63772 0.75955 0.80342 0.0
H1177 H 0.63591 0.70326 0.82318 0.0
H1178 H 0.64924 0.7717 0.91018 0.0
H1179 H 0.62592 0.77142 0.92063 0.0
H1180 H 0.63431 0.77953 0.86584 0.0
H1181 H 0.64661 0.70055 0.93334 0.0
H1182 H 0.63013 0.69047 0.89672 0.0
H1183 H 0.62367 0.7044 0.94482 0.0
C1184 C 0.51053 0.40577 0.83757 0.0
C1185 C 0.5081 0.39318 0.87284 0.0
C1186 C 0.50451 0.40273 0.79224 0.0
C1187 C 0.49587 0.38663 0.7816 0.0
C1188 C 0.49344 0.37376 0.81692 0.0
C1189 C 0.49954 0.37723 0.86233 0.0
C1190 C 0.50725 0.41689 0.75579 0.0
C1191 C 0.48438 0.35642 0.80671 0.0
C1192 C 0.46665 0.39118 0.67557 0.0
C1193 C 0.47807 0.38576 0.63985 0.0
C1194 C 0.47182 0.39034 0.72234 0.0
C1195 C 0.48884 0.38388 0.73376 0.0
C1196 C 0.49996 0.37722 0.69813 0.0
C1197 C 0.49445 0.37827 0.65146 0.0
C1198 C 0.45955 0.3976 0.75915 0.0
C1199 C 0.51815 0.37008 0.70896 0.0
H1200 H 0.51714 0.41814 0.8454 0.0
H1201 H 0.49774 0.36742 0.88943 0.0
H1202 H 0.51486 0.41146 0.72604 0.0
H1203 H 0.49427 0.42138 0.74214 0.0
H1204 H 0.51444 0.42857 0.76965 0.0
H1205 H 0.48401 0.34758 0.83758 0.0
H1206 H 0.47061 0.35887 0.79497 0.0
H1207 H 0.4913 0.34948 0.77798 0.0
H1208 H 0.45388 0.39683 0.6669 0.0
H1209 H 0.50329 0.37396 0.62401 0.0
H1210 H 0.4649 0.4103 0.77246 0.0
H1211 H 0.45863 0.38838 0.78906 0.0
H1212 H 0.44602 0.40003 0.74544 0.0
H1213 H 0.52704 0.38119 0.71842 0.0
H1214 H 0.524 0.36299 0.67881 0.0
H1215 H 0.51764 0.36096 0.73916 0.0
C1216 C 0.36835 0.74277 0.39221 0.0
C1217 C 0.3525 0.73434 0.37993 0.0
C1218 C 0.37128 0.74856 0.43813 0.0
C1219 C 0.35791 0.74613 0.47212 0.0
C1220 C 0.342 0.73745 0.45985 0.0
C1221 C 0.33956 0.73156 0.4141 0.0
C1222 C 0.38852 0.75752 0.45013 0.0
C1223 C 0.32727 0.73482 0.49472 0.0
C1224 C 0.3643 0.74933 0.6031 0.0
C1225 C 0.35703 0.76603 0.61221 0.0
C1226 C 0.36581 0.74305 0.55716 0.0
C1227 C 0.35978 0.75369 0.51974 0.0
C1228 C 0.35339 0.77094 0.52873 0.0
C1229 C 0.35217 0.77691 0.57477 0.0
C1230 C 0.37295 0.72468 0.54888 0.0
C1231 C 0.34672 0.78271 0.49001 0.0
H1232 H 0.37844 0.74483 0.36597 0.0
H1233 H 0.32727 0.72507 0.40484 0.0
H1234 H 0.38605 0.77156 0.45925 0.0
H1235 H 0.39458 0.75114 0.48103 0.0
H1236 H 0.39812 0.75707 0.42088 0.0
H1237 H 0.31592 0.72739 0.4799 0.0
H1238 H 0.33225 0.72755 0.52557 0.0
H1239 H 0.32242 0.74787 0.50701 0.0
H1240 H 0.36818 0.7409 0.63187 0.0
H1241 H 0.34669 0.78991 0.58148 0.0
H1242 H 0.3826 0.72474 0.5198 0.0
H1243 H 0.36195 0.71575 0.53886 0.0
H1244 H 0.37947 0.71918 0.58037 0.0
H1245 H 0.35657 0.78348 0.4615 0.0
H1246 H 0.34379 0.79633 0.50227 0.0
H1247 H 0.33443 0.77699 0.47519 0.0
C1248 C 0.02747 0.62054 0.1404 0.0
C1249 C 0.01332 0.61903 0.10909 0.0
C1250 C 0.02451 0.6215 0.18852 0.0
C1251 C 0.00698 0.62074 0.20564 0.0
C1252 C 0.99261 0.62075 0.17396 0.0
C1253 C 0.99596 0.61996 0.12594 0.0
C1254 C 0.04018 0.6218 0.22104 0.0
C1255 C 0.9737 0.62001 0.19079 0.0
C1256 C -0.00163 0.59492 0.3161 0.0
C1257 C 0.99442 0.60834 0.34806 0.0
C1258 C 0.003 0.59889 0.27014 0.0
C1259 C 0.00375 0.61677 0.25563 0.0
C1260 C 0.00062 0.63046 0.28828 0.0
C1261 C 0.99596 0.62607 0.33429 0.0
C1262 C 0.00637 0.58386 0.23661 0.0
C1263 C 0.00147 0.64966 0.27418 0.0
H1264 H 0.04094 0.62005 0.1275 0.0
H1265 H 0.98497 0.61889 0.10187 0.0
H1266 H 0.03791 0.63114 0.25018 0.0
H1267 H 0.04207 0.60844 0.23628 0.0
H1268 H 0.05256 0.6256 0.20276 0.0
H1269 H 0.96411 0.6226 0.1623 0.0
H1270 H 0.97097 0.6067 0.20537 0.0
H1271 H 0.97148 0.62979 0.21895 0.0
H1272 H 0.9973 0.58119 0.32663 0.0
H1273 H 0.99284 0.63648 0.35887 0.0
H1274 H 0.01953 0.58541 0.22004 0.0
H1275 H 0.99632 0.58408 0.20847 0.0
H1276 H 0.00588 0.57072 0.25391 0.0
H1277 H 0.0137 0.65234 0.25402 0.0
H1278 H 0.00108 0.65864 0.30474 0.0
H1279 H 0.99008 0.65282 0.2513 0.0
C1280 C 0.13311 0.26913 0.89249 0.0
C1281 C 0.13104 0.25631 0.85765 0.0
C1282 C 0.13208 0.26459 0.9397 0.0
C1283 C 0.12886 0.24679 0.95235 0.0
C1284 C 0.12521 0.23412 0.91733 0.0
C1285 C 0.12638 0.23903 0.87025 0.0
C1286 C 0.13602 0.27854 0.97584 0.0
C1287 C 0.12151 0.21505 0.92942 0.0
C1288 C 0.15348 0.23012 0.05828 0.0
C1289 C 0.14023 0.22984 0.09239 0.0
C1290 C 0.14986 0.23565 0.01282 0.0
C1291 C 0.13248 0.24093 1.00085 0.0
C1292 C 0.11901 0.24081 0.03515 0.0
C1293 C 0.12307 0.23531 0.08076 0.0
C1294 C 0.16469 0.23577 0.97754 0.0
C1295 C 0.10033 0.24627 0.02349 0.0
H1296 H 0.13652 0.28259 0.88297 0.0
H1297 H 0.12463 0.22909 0.84346 0.0
H1298 H 0.12657 0.27766 0.00527 0.0
H1299 H 0.14949 0.27634 0.99009 0.0
H1300 H 0.13544 0.29211 0.96106 0.0
H1301 H 0.11602 0.20762 0.89936 0.0
H1302 H 0.13399 0.20854 0.94039 0.0
H1303 H 0.1121 0.21413 0.95893 0.0
H1304 H 0.16679 0.22597 0.06709 0.0
H1305 H 0.11278 0.235 0.107 0.0
H1306 H 0.16644 0.2493 0.96327 0.0
H1307 H 0.16137 0.22693 0.94801 0.0
H1308 H 0.17749 0.23138 0.99266 0.0
H1309 H 0.10021 0.25991 0.0093 0.0
H1310 H 0.09145 0.24573 0.05427 0.0
H1311 H 0.09493 0.23746 0.99611 0.0
C1312 C 0.49437 0.59337 0.7134 0.0
C1313 C 0.49898 0.60717 0.68316 0.0
C1314 C 0.49067 0.5966 0.76038 0.0
C1315 C 0.49142 0.61413 0.77765 0.0
C1316 C 0.49526 0.62825 0.74687 0.0
C1317 C 0.49907 0.6246 0.6999 0.0
C1318 C 0.48658 0.58113 0.79193 0.0
C1319 C 0.49593 0.64712 0.76386 0.0
C1320 C 0.46858 0.61809 0.89433 0.0
C1321 C 0.48276 0.61565 0.92513 0.0
C1322 C 0.47135 0.61908 0.84613 0.0
C1323 C 0.4887 0.61728 0.8283 0.0
C1324 C 0.50319 0.61602 0.85944 0.0
C1325 C 0.50005 0.61535 0.90762 0.0
C1326 C 0.45557 0.6208 0.81424 0.0
C1327 C 0.52189 0.61401 0.84183 0.0
H1328 H 0.49425 0.57987 0.70073 0.0
H1329 H 0.50269 0.63531 0.67671 0.0
H1330 H 0.49679 0.58017 0.81957 0.0
H1331 H 0.47365 0.58315 0.80935 0.0
H1332 H 0.48616 0.56837 0.77281 0.0
H1333 H 0.49728 0.65672 0.73479 0.0
H1334 H 0.4838 0.65035 0.78387 0.0
H1335 H 0.50734 0.64881 0.78771 0.0
H1336 H 0.45518 0.61852 0.90778 0.0
H1337 H 0.51105 0.61346 0.93132 0.0
H1338 H 0.45295 0.60788 0.79725 0.0
H1339 H 0.45823 0.63057 0.78631 0.0
H1340 H 0.44346 0.62487 0.83335 0.0
H1341 H 0.52345 0.6008 0.82549 0.0
H1342 H 0.5318 0.61527 0.87019 0.0
H1343 H 0.5248 0.62406 0.81479 0.0
C1344 C 0.11701 0.74932 0.39893 0.0
C1345 C 0.13462 0.75125 0.38441 0.0
C1346 C 0.113 0.74489 0.44538 0.0
C1347 C 0.12694 0.74247 0.47776 0.0
C1348 C 0.14471 0.74352 0.46247 0.0
C1349 C 0.14831 0.74784 0.41607 0.0
C1350 C 0.09391 0.74365 0.46023 0.0
C1351 C 0.16002 0.74094 0.49565 0.0
C1352 C 0.12425 0.75226 0.60662 0.0
C1353 C 0.12575 0.73524 0.6255 0.0
C1354 C 0.12311 0.75479 0.55829 0.0
C1355 C 0.12335 0.73992 0.52828 0.0
C1356 C 0.12319 0.72268 0.54747 0.0
C1357 C 0.12448 0.72054 0.59589 0.0
C1358 C 0.12321 0.77341 0.5393 0.0
C1359 C 0.12313 0.70648 0.51681 0.0
H1360 H 0.10639 0.752 0.37462 0.0
H1361 H 0.16195 0.7492 0.405 0.0
H1362 H 0.09173 0.73175 0.4821 0.0
H1363 H 0.09045 0.75536 0.4816 0.0
H1364 H 0.08479 0.74314 0.42993 0.0
H1365 H 0.17303 0.74147 0.47776 0.0
H1366 H 0.15974 0.75138 0.52278 0.0
H1367 H 0.15886 0.728 0.51357 0.0
H1368 H 0.12512 0.76367 0.62933 0.0
H1369 H 0.12542 0.70732 0.61032 0.0
H1370 H 0.11315 0.77492 0.5115 0.0
H1371 H 0.13633 0.77624 0.52362 0.0
H1372 H 0.12061 0.7834 0.56681 0.0
H1373 H 0.11359 0.70804 0.48777 0.0
H1374 H 0.11973 0.69433 0.53663 0.0
H1375 H 0.13645 0.70468 0.50131 0.0
C1376 C 0.00458 0.37324 0.21533 0.0
C1377 C 0.0047 0.39088 0.20017 0.0
C1378 C 0.00786 0.36902 0.26222 0.0
C1379 C 0.01128 0.38278 0.29441 0.0
C1380 C 0.01248 0.40047 0.27854 0.0
C1381 C 0.00921 0.40429 0.23165 0.0
C1382 C 0.0067 0.34998 0.2777 0.0
C1383 C 0.01626 0.41555 0.31158 0.0
C1384 C -0.00116 0.38144 0.42189 0.0
C1385 C 0.01556 0.38094 0.44284 0.0
C1386 C 0.99711 0.38065 0.37328 0.0
C1387 C 0.01246 0.37916 0.34521 0.0
C1388 C 0.02919 0.37696 0.3665 0.0
C1389 C 0.03055 0.37797 0.41511 0.0
C1390 C 0.97901 0.38293 0.35191 0.0
C1391 C 0.04582 0.37498 0.33792 0.0
H1392 H 0.00103 0.36283 0.19115 0.0
H1393 H 0.0094 0.41794 0.22006 0.0
H1394 H 0.01785 0.34661 0.3012 0.0
H1395 H 0.99427 0.34796 0.29751 0.0
H1396 H 0.00677 0.3407 0.24773 0.0
H1397 H 0.01766 0.42842 0.29324 0.0
H1398 H 0.00535 0.41671 0.33723 0.0
H1399 H 0.0286 0.41295 0.33131 0.0
H1400 H 0.98722 0.38368 0.44317 0.0
H1401 H 0.04351 0.37736 0.43121 0.0
H1402 H 0.97681 0.37301 0.3241 0.0
H1403 H 0.97808 0.39622 0.33568 0.0
H1404 H 0.96828 0.38167 0.37813 0.0
H1405 H 0.04372 0.36561 0.30875 0.0
H1406 H 0.05714 0.37028 0.35926 0.0
H1407 H 0.04939 0.38797 0.3226 0.0
C1408 C 0.35747 0.28359 0.12397 0.0
C1409 C 0.35969 0.26924 0.15436 0.0
C1410 C 0.35847 0.28131 0.0756 0.0
C1411 C 0.36157 0.26423 0.05725 0.0
C1412 C 0.36496 0.24992 0.08785 0.0
C1413 C 0.36406 0.25262 0.13614 0.0
C1414 C 0.35504 0.29695 0.04421 0.0
C1415 C 0.36829 0.23149 0.06965 0.0
C1416 C 0.33913 0.25151 0.94438 0.0
C1417 C 0.35334 0.25113 0.91306 0.0
C1418 C 0.34162 0.25623 0.99101 0.0
C1419 C 0.35876 0.2608 0.00681 0.0
C1420 C 0.37304 0.26128 0.97492 0.0
C1421 C 0.37016 0.25639 0.92827 0.0
C1422 C 0.32599 0.25562 0.02378 0.0
C1423 C 0.39143 0.26628 0.99043 0.0
H1424 H 0.35426 0.29652 0.13792 0.0
H1425 H 0.36583 0.2415 0.15949 0.0
H1426 H 0.36482 0.29737 0.01544 0.0
H1427 H 0.34173 0.29566 0.02831 0.0
H1428 H 0.35558 0.30968 0.06345 0.0
H1429 H 0.37268 0.2223 0.09753 0.0
H1430 H 0.35594 0.2262 0.05409 0.0
H1431 H 0.37847 0.23172 0.04188 0.0
H1432 H 0.32608 0.24753 0.9328 0.0
H1433 H 0.3812 0.25606 0.90422 0.0
H1434 H 0.3244 0.26853 0.04159 0.0
H1435 H 0.32832 0.24548 0.05105 0.0
H1436 H 0.31344 0.25241 0.00557 0.0
H1437 H 0.39113 0.27878 0.0106 0.0
H1438 H 0.40063 0.26789 0.96059 0.0
H1439 H 0.39675 0.25585 0.01374 0.0
C1440 C 0.01856 0.02642 0.97897 0.0
C1441 C 0.01113 0.0403 0.0046 0.0
C1442 C 0.01137 0.00934 0.98122 0.0
C1443 C 0.99677 0.00602 0.01089 0.0
C1444 C 0.98932 0.02 0.03711 0.0
C1445 C 0.99645 0.03705 0.03312 0.0
C1446 C 0.01939 0.99484 0.95187 0.0
C1447 C 0.97408 0.01686 0.07004 0.0
C1448 C 0.96934 0.96488 0.98839 0.0
C1449 C 0.97743 0.95265 0.01819 0.0
C1450 C 0.97539 0.98239 0.98593 0.0
C1451 C 0.98951 0.98784 0.01496 0.0
C1452 C 0.99714 0.97572 0.04671 0.0
C1453 C 0.99118 0.95816 0.04742 0.0
C1454 C 0.9672 0.99484 0.95091 0.0
C1455 C 0.01187 0.98119 0.07917 0.0
H1456 H 0.02986 0.02898 0.95674 0.0
H1457 H 0.99081 0.04777 0.05329 0.0
H1458 H 0.02491 0.98435 0.97462 0.0
H1459 H 0.00903 0.98862 0.92994 0.0
H1460 H 0.03011 -0.00019 0.92888 0.0
H1461 H 0.9699 0.02915 0.0882 0.0
H1462 H 0.96256 0.01147 0.0508 0.0
H1463 H 0.97789 0.00688 0.09653 0.0
H1464 H 0.95882 0.96054 0.96542 0.0
H1465 H 0.99738 0.94869 0.07059 0.0
H1466 H 0.97736 -0.00099 0.92528 0.0
H1467 H 0.96235 0.00696 0.96846 0.0
H1468 H 0.95601 0.98867 0.93184 0.0
H1469 H 0.02386 0.98453 0.05875 0.0
H1470 H 0.01532 0.97059 0.10437 0.0
H1471 H 0.008 0.99321 0.09883 0.0
C1472 C 0.21336 0.773 0.26589 0.0
C1473 C 0.20013 0.76471 0.23972 0.0
C1474 C 0.23092 0.76702 0.26404 0.0
C1475 C 0.23534 0.75274 0.23439 0.0
C1476 C 0.22212 0.74479 0.20649 0.0
C1477 C 0.20459 0.75073 0.20998 0.0
C1478 C 0.2446 0.7756 0.29497 0.0
C1479 C 0.22643 0.72984 0.17356 0.0
C1480 C 0.28401 0.74716 0.2058 0.0
C1481 C 0.28878 0.7333 0.23562 0.0
C1482 C 0.26652 0.75331 0.20405 0.0
C1483 C 0.25368 0.74572 0.23382 0.0
C1484 C 0.25846 0.73167 0.26392 0.0
C1485 C 0.27594 0.72545 0.26399 0.0
C1486 C 0.2618 0.76798 0.17059 0.0
C1487 C 0.24521 0.72349 0.29685 0.0
H1488 H 0.20988 0.78373 0.28916 0.0
H1489 H 0.19435 0.74439 0.18951 0.0
H1490 H 0.25013 0.76562 0.31929 0.0
H1491 H 0.25573 0.7807 0.27372 0.0
H1492 H 0.23903 0.7867 0.31564 0.0
H1493 H 0.21489 0.72599 0.15186 0.0
H1494 H 0.23747 0.73369 0.15025 0.0
H1495 H 0.23084 0.7181 0.19358 0.0
H1496 H 0.29394 0.75313 0.18358 0.0
H1497 H 0.27968 0.7148 0.28726 0.0
H1498 H 0.25748 0.77985 0.19021 0.0
H1499 H 0.25056 0.76386 0.14826 0.0
H1500 H 0.27309 0.77172 0.1479 0.0
H1501 H 0.23989 0.73378 0.32058 0.0
H1502 H 0.25108 0.71272 0.31815 0.0
H1503 H 0.23386 0.71803 0.27705 0.0
C1504 C 0.51983 0.02865 0.49232 0.0
C1505 C 0.50952 0.03976 0.46436 0.0
C1506 C 0.51393 0.01162 0.50392 0.0
C1507 C 0.49763 0.00546 0.48581 0.0
C1508 C 0.48732 0.01659 0.45694 0.0
C1509 C 0.49327 0.03373 0.44716 0.0
C1510 C 0.52504 0.00027 0.53582 0.0
C1511 C 0.47012 0.0103 0.4359 0.0
C1512 C 0.49128 0.95582 0.47875 0.0
C1513 C 0.47965 0.95277 0.5158 0.0
C1514 C 0.49705 0.97297 0.4682 0.0
C1515 C 0.49147 0.98727 0.49638 0.0
C1516 C 0.47988 0.98421 0.53426 0.0
C1517 C 0.47386 0.96697 0.54307 0.0
C1518 C 0.50897 0.9758 0.42669 0.0
C1519 C 0.47402 -0.00092 0.56575 0.0
H1520 H 0.53233 0.03342 0.50591 0.0
H1521 H 0.48537 0.04233 0.42526 0.0
H1522 H 0.51707 0.99604 0.56628 0.0
H1523 H 0.5293 0.98812 0.51736 0.0
H1524 H 0.53699 0.00732 0.54853 0.0
H1525 H 0.46391 0.02047 0.41327 0.0
H1526 H 0.47247 0.99821 0.41491 0.0
H1527 H 0.46064 0.00674 0.46381 0.0
H1528 H 0.49564 0.94481 0.4575 0.0
H1529 H 0.46497 0.96453 0.57198 0.0
H1530 H 0.52179 0.98145 0.43811 0.0
H1531 H 0.50285 0.98545 0.40244 0.0
H1532 H 0.5116 0.96333 0.40744 0.0
H1533 H 0.48576 0.00579 0.58078 0.0
H1534 H 0.46548 0.99436 0.59465 0.0
H1535 H 0.4666 0.00911 0.54546 0.0
C1536 C 0.28702 0.2408 0.72573 0.0
C1537 C 0.29292 0.23065 0.76344 0.0
C1538 C 0.26904 0.24486 0.72049 0.0
C1539 C 0.25682 0.23903 0.75451 0.0
C1540 C 0.26272 0.22867 0.79251 0.0
C1541 C 0.28072 0.22439 0.79618 0.0
C1542 C 0.26316 0.25554 0.67885 0.0
C1543 C 0.25011 0.22254 0.82996 0.0
C1544 C 0.21412 0.26513 0.7646 0.0
C1545 C 0.20211 0.25382 0.74251 0.0
C1546 C 0.23195 0.26032 0.76952 0.0
C1547 C 0.2379 0.24405 0.75075 0.0
C1548 C 0.22583 0.23267 0.72801 0.0
C1549 C 0.208 0.2376 0.72471 0.0
C1550 C 0.24439 0.2726 0.79492 0.0
C1551 C 0.23179 0.21544 0.70658 0.0
H1552 H 0.29649 0.24557 0.70031 0.0
H1553 H 0.28533 0.21669 0.82559 0.0
H1554 H 0.25246 0.24847 0.66005 0.0
H1555 H 0.25767 0.2684 0.6905 0.0
H1556 H 0.27417 0.25814 0.65419 0.0
H1557 H 0.25682 0.21451 0.85711 0.0
H1558 H 0.24387 0.23417 0.84686 0.0
H1559 H 0.23933 0.21453 0.81445 0.0
H1560 H 0.20952 0.27763 0.77857 0.0
H1561 H 0.19872 0.22891 0.70727 0.0
H1562 H 0.25501 0.2771 0.77108 0.0
H1563 H 0.25085 0.26548 0.8241 0.0
H1564 H 0.2375 0.28442 0.80905 0.0
H1565 H 0.24225 0.218 0.68034 0.0
H1566 H 0.22076 0.20823 0.68946 0.0
H1567 H 0.23762 0.20675 0.73364 0.0
C1568 C 0.00229 0.9597 0.54485 0.0
C1569 C 0.01584 0.95366 0.51571 0.0
C1570 C 0.99712 0.97752 0.54441 0.0
C1571 C 0.00536 0.98937 0.51302 0.0
C1572 C 0.01918 0.98334 0.48381 0.0
C1573 C 0.02444 0.96557 0.48601 0.0
C1574 C 0.98269 0.98359 0.57705 0.0
C1575 C 0.02799 0.9955 0.44915 0.0
C1576 C 0.97894 0.03003 0.47871 0.0
C1577 C 0.98736 0.04323 0.50468 0.0
C1578 C 0.98489 0.01246 0.48045 0.0
C1579 C -0.00078 0.00799 0.50996 0.0
C1580 C 0.00761 0.02127 0.53669 0.0
C1581 C 0.00173 0.03881 0.53319 0.0
C1582 C 0.97591 -0.00128 0.45055 0.0
C1583 C 0.02261 0.01692 0.56947 0.0
H1584 H 0.9957 0.95047 0.56795 0.0
H1585 H 0.0348 0.96083 0.4631 0.0
H1586 H 0.98729 0.99514 0.59756 0.0
H1587 H 0.97099 0.98792 0.55675 0.0
H1588 H 0.97851 0.973 0.60148 0.0
H1589 H 0.03863 0.98876 0.42923 0.0
H1590 H 0.018 0.0006 0.42422 0.0
H1591 H 0.03377 0.00709 0.46724 0.0
H1592 H 0.96788 0.0335 0.45648 0.0
H1593 H 0.00814 0.04902 0.55362 0.0
H1594 H 0.96985 0.98839 0.47287 0.0
H1595 H 0.9858 0.99207 0.42803 0.0
H1596 H 0.96543 0.00451 0.42811 0.0
H1597 H 0.01822 0.00689 0.5952 0.0
H1598 H 0.02745 0.02875 0.58853 0.0
H1599 H 0.03382 0.0111 0.54986 0.0
C1600 C 0.20567 0.74975 0.70171 0.0
C1601 C 0.20003 0.73721 0.73439 0.0
C1602 C 0.2235 0.75474 0.69899 0.0
C1603 C 0.23584 0.74728 0.73041 0.0
C1604 C 0.23028 0.73425 0.76264 0.0
C1605 C 0.21243 0.72923 0.76391 0.0
C1606 C 0.22904 0.76838 0.66344 0.0
C1607 C 0.24301 0.72619 0.79716 0.0
C1608 C 0.28516 0.75101 0.70818 0.0
C1609 C 0.28959 0.76568 0.73561 0.0
C1610 C 0.26762 0.74508 0.70529 0.0
C1611 C 0.25435 0.75379 0.73137 0.0
C1612 C 0.25879 0.76861 0.75916 0.0
C1613 C 0.27636 0.77451 0.76049 0.0
C1614 C 0.26329 0.72952 0.67443 0.0
C1615 C 0.24504 0.77804 0.78812 0.0
H1616 H 0.19609 0.75586 0.67869 0.0
H1617 H 0.20805 0.7196 0.78939 0.0
H1618 H 0.23321 0.78068 0.68136 0.0
H1619 H 0.24056 0.76352 0.64321 0.0
H1620 H 0.21818 0.77168 0.63888 0.0
H1621 H 0.23671 0.71574 0.8187 0.0
H1622 H 0.25452 0.72038 0.77877 0.0
H1623 H 0.24816 0.73665 0.82062 0.0
H1624 H 0.2954 0.74426 0.68863 0.0
H1625 H 0.27981 0.7858 0.78188 0.0
H1626 H 0.2528 0.73322 0.64922 0.0
H1627 H 0.25806 0.71846 0.69575 0.0
H1628 H 0.27501 0.72473 0.65481 0.0
H1629 H 0.23436 0.78321 0.76541 0.0
H1630 H 0.25071 0.78923 0.80821 0.0
H1631 H 0.23886 0.7686 0.81285 0.0
C1632 C 0.51924 0.95906 0.97791 0.0
C1633 C 0.50732 0.94961 0.00571 0.0
C1634 C 0.51609 0.97685 0.96669 0.0
C1635 C 0.50088 0.9854 0.98466 0.0
C1636 C 0.48891 0.97593 0.01315 0.0
C1637 C 0.49218 0.95807 0.02291 0.0
C1638 C 0.52896 0.98647 0.93548 0.0
C1639 C 0.47275 0.9847 0.03373 0.0
C1640 C 0.50141 0.03541 0.99319 0.0
C1641 C 0.49057 0.04021 0.95571 0.0
C1642 C 0.50483 0.01759 0.00311 0.0
C1643 C 0.49756 0.00432 0.97416 0.0
C1644 C 0.48681 0.00911 0.93582 0.0
C1645 C 0.48327 0.02704 0.92736 0.0
C1646 C 0.51604 0.01296 0.0449 0.0
C1647 C 0.47911 0.99531 0.90371 0.0
H1648 H 0.53089 0.95248 0.96438 0.0
H1649 H 0.483 0.95078 0.04466 0.0
H1650 H 0.52191 0.99185 0.9047 0.0
H1651 H 0.53481 0.99786 0.95431 0.0
H1652 H 0.53984 0.97776 0.92327 0.0
H1653 H 0.46493 0.97553 0.05584 0.0
H1654 H 0.47679 0.99623 0.05513 0.0
H1655 H 0.4641 0.98976 0.00554 0.0
H1656 H 0.50698 0.04561 0.01528 0.0
H1657 H 0.47499 0.03076 0.89815 0.0
H1658 H 0.52782 0.00531 0.03381 0.0
H1659 H 0.50838 0.00445 0.06907 0.0
H1660 H 0.52056 0.02488 0.06412 0.0
H1661 H 0.48984 0.98694 0.88923 0.0
H1662 H 0.4716 0.00127 0.87441 0.0
H1663 H 0.47012 0.98647 0.92343 0.0
C1664 C 0.20952 0.2432 0.22007 0.0
C1665 C 0.20444 0.22744 0.24197 0.0
C1666 C 0.22674 0.24981 0.22491 0.0
C1667 C 0.23897 0.24066 0.25337 0.0
C1668 C 0.2338 0.22489 0.27627 0.0
C1669 C 0.21662 0.21832 0.26973 0.0
C1670 C 0.23192 0.2664 0.199 0.0
C1671 C 0.24638 0.21502 0.30776 0.0
C1672 C 0.28817 0.2472 0.23472 0.0
C1673 C 0.2922 0.25969 0.26906 0.0
C1674 C 0.2708 0.24116 0.2286 0.0
C1675 C 0.2573 0.24742 0.25849 0.0
C1676 C 0.26133 0.26005 0.29329 0.0
C1677 C 0.27874 0.26624 0.29773 0.0
C1678 C 0.26691 0.22807 0.19026 0.0
C1679 C 0.24734 0.2667 0.32645 0.0
H1680 H 0.20011 0.25019 0.19831 0.0
H1681 H 0.21263 0.2062 0.28693 0.0
H1682 H 0.23626 0.27673 0.22391 0.0
H1683 H 0.24327 0.26359 0.17567 0.0
H1684 H 0.22088 0.27179 0.17778 0.0
H1685 H 0.24003 0.20342 0.32462 0.0
H1686 H 0.25797 0.21035 0.28754 0.0
H1687 H 0.25142 0.22399 0.33527 0.0
H1688 H 0.2986 0.24222 0.2124 0.0
H1689 H 0.28193 0.27579 0.32458 0.0
H1690 H 0.25631 0.23328 0.16731 0.0
H1691 H 0.26204 0.21549 0.2054 0.0
H1692 H 0.27875 0.22518 0.16867 0.0
H1693 H 0.23645 0.2731 0.30681 0.0
H1694 H 0.2527 0.27637 0.35192 0.0
H1695 H 0.24151 0.25542 0.34583 0.0
C1696 C 0.78874 0.24646 0.76649 0.0
C1697 C 0.79226 0.2334 0.7332 0.0
C1698 C 0.77145 0.25248 0.77409 0.0
C1699 C 0.75748 0.24564 0.74667 0.0
C1700 C 0.76099 0.23247 0.71288 0.0
C1701 C 0.77836 0.2263 0.70703 0.0
C1702 C 0.76813 0.26615 0.81139 0.0
C1703 C 0.74649 0.22519 0.68227 0.0
C1704 C 0.7103 0.25 0.78988 0.0
C1705 C 0.70466 0.2653 0.76673 0.0
C1706 C 0.72754 0.24355 0.78407 0.0
C1707 C 0.7392 0.25236 0.75329 0.0
C1708 C 0.73347 0.2677 0.72929 0.0
C1709 C 0.71631 0.27415 0.73687 0.0
C1710 C 0.73334 0.22746 0.81125 0.0
C1711 C 0.74541 0.27717 0.69535 0.0
H1712 H 0.79952 0.25186 0.78692 0.0
H1713 H 0.78115 0.21631 0.68099 0.0
H1714 H 0.76288 0.27844 0.7955 0.0
H1715 H 0.758 0.26125 0.83618 0.0
H1716 H 0.78032 0.26946 0.83115 0.0
H1717 H 0.75148 0.21519 0.65717 0.0
H1718 H 0.73605 0.21899 0.70394 0.0
H1719 H 0.74018 0.23611 0.6625 0.0
H1720 H 0.7013 0.24323 0.81325 0.0
H1721 H 0.71186 0.28592 0.71871 0.0
H1722 H 0.74512 0.23072 0.83262 0.0
H1723 H 0.73724 0.21672 0.78706 0.0
H1724 H 0.72277 0.22241 0.83459 0.0
H1725 H 0.75732 0.28218 0.71362 0.0
H1726 H 0.73869 0.28849 0.67815 0.0
H1727 H 0.75002 0.26783 0.66815 0.0
C1728 C 0.71339 0.75176 0.23402 0.0
C1729 C 0.70845 0.76242 0.19633 0.0
C1730 C 0.73104 0.74659 0.24024 0.0
C1731 C 0.74391 0.75187 0.2073 0.0
C1732 C 0.73898 0.76267 0.16918 0.0
C1733 C 0.7213 0.76801 0.16446 0.0
C1734 C 0.73588 0.73542 0.28192 0.0
C1735 C 0.75231 0.76829 0.13293 0.0
C1736 C 0.79227 0.75114 0.24193 0.0
C1737 C 0.79778 0.73481 0.22403 0.0
C1738 C 0.77472 0.75681 0.23703 0.0
C1739 C 0.76254 0.74604 0.2127 0.0
C1740 C 0.7681 0.72963 0.19397 0.0
C1741 C 0.78565 0.7241 0.20037 0.0
C1742 C 0.76917 0.7742 0.25837 0.0
C1743 C 0.75553 0.71796 0.16707 0.0
H1744 H 0.70345 0.7475 0.25879 0.0
H1745 H 0.71744 0.77613 0.13507 0.0
H1746 H 0.74111 0.72245 0.27025 0.0
H1747 H 0.74651 0.74198 0.30219 0.0
H1748 H 0.72441 0.73305 0.30528 0.0
H1749 H 0.74629 0.77657 0.10519 0.0
H1750 H 0.76316 0.77588 0.14948 0.0
H1751 H 0.75833 0.75643 0.1166 0.0
H1752 H 0.80163 0.75939 0.26056 0.0
H1753 H 0.78995 0.7115 0.18632 0.0
H1754 H 0.75824 0.77199 0.28346 0.0
H1755 H 0.76411 0.78322 0.231 0.0
H1756 H 0.78023 0.78087 0.2768 0.0
H1757 H 0.74437 0.71387 0.1897 0.0
H1758 H 0.7621 0.70588 0.15342 0.0
H1759 H 0.74983 0.72543 0.1374 0.0
C1760 C 0.71371 0.22829 0.23723 0.0
C1761 C 0.702 0.23901 0.26229 0.0
C1762 C 0.73137 0.23343 0.23067 0.0
C1763 C 0.73748 0.2494 0.25081 0.0
C1764 C 0.72571 0.26016 0.27657 0.0
C1765 C 0.70802 0.25494 0.28146 0.0
C1766 C 0.74346 0.22183 0.20207 0.0
C1767 C 0.73186 0.27704 0.29953 0.0
C1768 C 0.7869 0.25301 0.27071 0.0
C1769 C 0.792 0.26411 0.23409 0.0
C1770 C 0.76911 0.24843 0.27719 0.0
C1771 C 0.75625 0.25473 0.24544 0.0
C1772 C 0.76135 0.26597 0.20837 0.0
C1773 C 0.77919 0.27074 0.20352 0.0
C1774 C 0.76409 0.23681 0.31785 0.0
C1775 C 0.74805 0.27261 0.17326 0.0
H1776 H 0.709 0.21602 0.22218 0.0
H1777 H 0.69897 0.26317 0.30117 0.0
H1778 H 0.7493 0.22961 0.17315 0.0
H1779 H 0.75455 0.217 0.22389 0.0
H1780 H 0.73644 0.21022 0.1872 0.0
H1781 H 0.72108 0.28376 0.31898 0.0
H1782 H 0.74283 0.27412 0.32402 0.0
H1783 H 0.73709 0.28632 0.27297 0.0
H1784 H 0.79684 0.24797 0.29448 0.0
H1785 H 0.78319 0.2792 0.17494 0.0
H1786 H 0.75847 0.22417 0.30503 0.0
H1787 H 0.75372 0.24337 0.33904 0.0
H1788 H 0.77556 0.23378 0.34065 0.0
H1789 H 0.74158 0.26123 0.1558 0.0
H1790 H 0.75421 0.28115 0.1463 0.0
H1791 H 0.73751 0.28026 0.19103 0.0
C1792 C 0.71372 0.75269 0.66788 0.0
C1793 C 0.7074 0.73763 0.69084 0.0
C1794 C 0.73135 0.75807 0.67282 0.0
C1795 C 0.74272 0.74846 0.70269 0.0
C1796 C 0.73632 0.73334 0.72645 0.0
C1797 C 0.71876 0.72791 0.71958 0.0
C1798 C 0.73785 0.77393 0.6458 0.0
C1799 C 0.74792 0.72307 0.75962 0.0
C1800 C 0.79243 0.75231 0.68804 0.0
C1801 C 0.79659 0.76523 0.72117 0.0
C1802 C 0.77488 0.74695 0.68106 0.0
C1803 C 0.76132 0.75427 0.70905 0.0
C1804 C 0.76551 0.76721 0.7429 0.0
C1805 C 0.78311 0.77277 0.74801 0.0
C1806 C 0.77084 0.73354 0.64361 0.0
C1807 C 0.75147 0.77496 0.77423 0.0
H1808 H 0.70492 0.76011 0.64533 0.0
H1809 H 0.71377 0.71633 0.73757 0.0
H1810 H 0.74223 0.78443 0.67011 0.0
H1811 H 0.74946 0.77019 0.62433 0.0
H1812 H 0.7275 0.77949 0.62258 0.0
H1813 H 0.74074 0.71196 0.77647 0.0
H1814 H 0.75953 0.71764 0.74083 0.0
H1815 H 0.75304 0.73201 0.78713 0.0
H1816 H 0.80291 0.74657 0.66714 0.0
H1817 H 0.7864 0.78263 0.77398 0.0
H1818 H 0.7609 0.73898 0.61907 0.0
H1819 H 0.76504 0.72147 0.65936 0.0
H1820 H 0.78281 0.72969 0.62361 0.0
H1821 H 0.74132 0.78186 0.75312 0.0
H1822 H 0.75703 0.78448 0.79978 0.0
H1823 H 0.74466 0.76421 0.79349 0.0
C1824 C 0.51547 0.52848 0.56781 0.0
C1825 C 0.51019 0.54133 0.53555 0.0
C1826 C 0.50962 0.51095 0.56384 0.0
C1827 C 0.49858 0.50615 0.52611 0.0
C1828 C 0.49355 0.51901 0.49284 0.0
C1829 C 0.49926 0.53653 0.49828 0.0
C1830 C 0.515 0.49765 0.60041 0.0
C1831 C 0.48213 0.51427 0.45157 0.0
C1832 C 0.49713 0.45748 0.49519 0.0
C1833 C 0.48093 0.45231 0.51462 0.0
C1834 C 0.50287 0.47506 0.49787 0.0
C1835 C 0.49233 0.48764 0.5215 0.0
C1836 C 0.47597 0.48248 0.54131 0.0
C1837 C 0.47036 0.46487 0.53715 0.0
C1838 C 0.5202 0.48017 0.47543 0.0
C1839 C 0.46455 0.4955 0.56751 0.0
H1840 H 0.5238 0.53223 0.59687 0.0
H1841 H 0.49524 0.54647 0.47322 0.0
H1842 H 0.50305 0.4919 0.61695 0.0
H1843 H 0.5224 0.4866 0.58409 0.0
H1844 H 0.52341 0.5036 0.62796 0.0
H1845 H 0.4799 0.52571 0.42802 0.0
H1846 H 0.48842 0.50345 0.43138 0.0
H1847 H 0.46911 0.50933 0.46369 0.0
H1848 H 0.50525 0.44779 0.47739 0.0
H1849 H 0.45786 0.46084 0.55233 0.0
H1850 H 0.52956 0.48501 0.50228 0.0
H1851 H 0.51807 0.49114 0.4504 0.0
H1852 H 0.52646 0.46893 0.45673 0.0
H1853 H 0.47209 0.50111 0.59716 0.0
H1854 H 0.45227 0.48932 0.58113 0.0
H1855 H 0.46085 0.50667 0.54447 0.0
C1856 C 0.0014 0.46119 0.01401 0.0
C1857 C 0.99137 0.45692 0.05342 0.0
C1858 C 0.00612 0.47875 0.00455 0.0
C1859 C 0.00103 0.49225 0.03593 0.0
C1860 C 0.99122 0.48794 0.07634 0.0
C1861 C 0.9863 0.47031 0.0843 0.0
C1862 C 0.01621 0.48291 0.96053 0.0
C1863 C 0.98586 0.50195 0.11102 0.0
C1864 C 0.02542 0.53611 0.02933 0.0
C1865 C 0.01307 0.54663 0.0058 0.0
C1866 C 0.02162 0.51838 0.03989 0.0
C1867 C 0.0053 0.51099 0.02543 0.0
C1868 C 0.99296 0.52151 1.00086 0.0
C1869 C 0.99691 0.53927 0.99186 0.0
C1870 C 0.03493 0.50763 0.067 0.0
C1871 C 0.9756 0.51398 0.9839 0.0
H1872 H 0.00527 0.45082 0.99002 0.0
H1873 H 0.97867 0.46696 0.11502 0.0
H1874 H 0.00837 0.49207 0.93849 0.0
H1875 H 0.0288 0.48969 0.96907 0.0
H1876 H 0.01926 0.47085 0.93995 0.0
H1877 H 0.97918 0.49625 0.14201 0.0
H1878 H 0.99768 0.50943 0.12273 0.0
H1879 H 0.97676 0.51155 0.09433 0.0
H1880 H 0.03787 0.54185 0.04032 0.0
H1881 H 0.9874 0.54737 0.9733 0.0
H1882 H 0.03912 0.49596 0.04637 0.0
H1883 H 0.02877 0.50258 0.09944 0.0
H1884 H 0.04686 0.51543 0.07632 0.0
H1885 H 0.97808 0.50232 0.9614 0.0
H1886 H 0.96774 0.52379 0.96388 0.0
H1887 H 0.96758 0.50941 0.01389 0.0
C1888 C 0.5228 0.46989 0.9921 0.0
C1889 C 0.51436 0.45665 0.01792 0.0
C1890 C 0.51711 0.48752 0.99472 0.0
C1891 C 0.50305 0.49201 0.02506 0.0
C1892 C 0.49464 0.47868 0.05163 0.0
C1893 C 0.50022 0.46107 0.04715 0.0
C1894 C 0.52608 0.50131 0.96492 0.0
C1895 C 0.47997 0.48304 0.08539 0.0
C1896 C 0.50128 0.53957 0.06629 0.0
C1897 C 0.48718 0.54631 0.04013 0.0
C1898 C 0.50639 0.52183 0.06224 0.0
C1899 C 0.49753 0.51076 0.03011 0.0
C1900 C 0.48343 0.51759 0.00304 0.0
C1901 C 0.47821 0.53527 0.00897 0.0
C1902 C 0.52113 0.5149 0.09269 0.0
C1903 C 0.47403 0.5063 0.96748 0.0
H1904 H 0.53362 0.4664 0.96911 0.0
H1905 H 0.49376 0.45079 0.06725 0.0
H1906 H 0.5161 0.50845 0.94371 0.0
H1907 H 0.53271 0.51124 0.98733 0.0
H1908 H 0.53611 0.49547 0.94122 0.0
H1909 H 0.47497 0.47114 0.10389 0.0
H1910 H 0.48478 0.49269 0.11158 0.0
H1911 H 0.46877 0.48933 0.06674 0.0
H1912 H 0.5081 0.54811 0.09071 0.0
H1913 H 0.46737 0.54057 0.98856 0.0
H1914 H 0.53228 0.51023 0.07081 0.0
H1915 H 0.51639 0.50339 0.11317 0.0
H1916 H 0.52619 0.52508 0.11714 0.0
H1917 H 0.48373 0.50096 0.94212 0.0
H1918 H 0.46373 0.51379 0.94819 0.0
H1919 H 0.46768 0.49483 0.98479 0.0
C1920 C 0.0193 0.46432 0.51744 0.0
C1921 C 0.00868 0.45383 0.54625 0.0
C1922 C 0.0143 0.4817 0.50643 0.0
C1923 C -0.00135 0.48883 0.52602 0.0
C1924 C 0.98809 0.47834 0.55589 0.0
C1925 C 0.9931 0.46084 0.56503 0.0
C1926 C 0.02561 0.49236 0.47343 0.0
C1927 C 0.9716 0.48564 0.57853 0.0
C1928 C 0.99478 0.53874 0.53328 0.0
C1929 C 0.98268 0.5423 0.49762 0.0
C1930 C -1e-05 0.52135 0.54318 0.0
C1931 C 0.99334 0.50732 0.51569 0.0
C1932 C 0.98134 0.51091 0.47905 0.0
C1933 C 0.97591 0.52838 0.47093 0.0
C1934 C 0.01239 0.51798 0.58344 0.0
C1935 C 0.97434 0.49632 0.44826 0.0
H1936 H 0.03128 0.45879 0.50265 0.0
H1937 H 0.98497 0.45272 0.58761 0.0
H1938 H 0.01752 0.49692 0.44352 0.0
H1939 H 0.03071 0.50433 0.49125 0.0
H1940 H 0.03703 0.48466 0.45995 0.0
H1941 H 0.96521 0.47591 0.60213 0.0
H1942 H 0.97491 0.49767 0.59885 0.0
H1943 H 0.9619 0.4896 0.55152 0.0
H1944 H -8e-05 0.54954 0.55408 0.0
H1945 H 0.96666 0.53121 0.44306 0.0
H1946 H 0.02466 0.51154 0.57083 0.0
H1947 H 0.0061 0.50879 0.60862 0.0
H1948 H 0.01603 0.53034 0.602 0.0
H1949 H 0.98552 0.48891 0.43253 0.0
H1950 H 0.96578 0.50145 0.41988 0.0
H1951 H 0.96658 0.48678 0.46928 0.0
C1952 C 0.09404 0.09722 0.06417 0.0
C1953 C 0.08402 0.10729 0.03277 0.0
C1954 C 0.10759 0.10508 0.09038 0.0
C1955 C 0.1111 0.12334 0.08469 0.0
C1956 C 0.1024 0.13296 0.04913 0.0
C1957 C 0.08889 0.12481 0.02367 0.0
C1958 C 0.11685 0.09429 0.12722 0.0
C1959 C 0.10599 0.15239 0.04123 0.0
C1960 C 0.11949 0.15386 0.18559 0.0
C1961 C 0.13688 0.15926 0.17685 0.0
C1962 C 0.11143 0.14092 0.15809 0.0
C1963 C 0.121 0.13326 0.12081 0.0
C1964 C 0.1391 0.13742 0.11468 0.0
C1965 C 0.14688 0.15043 0.14294 0.0
C1966 C 0.09216 0.13664 0.1664 0.0
C1967 C 0.14984 0.12932 0.07592 0.0
H1968 H 0.09037 0.0836 0.07108 0.0
H1969 H 0.08133 0.13254 0.99886 0.0
H1970 H 0.13101 0.09801 0.12998 0.0
H1971 H 0.11058 0.09686 0.16146 0.0
H1972 H 0.1159 0.07989 0.11993 0.0
H1973 H 0.09993 0.15727 0.00843 0.0
H1974 H 0.10046 0.16014 0.07061 0.0
H1975 H 0.12042 0.15496 0.03999 0.0
H1976 H 0.11182 0.16051 0.21223 0.0
H1977 H 0.16038 0.15454 0.13623 0.0
H1978 H 0.09007 0.12212 0.16689 0.0
H1979 H 0.08406 0.14215 0.13761 0.0
H1980 H 0.08723 0.14223 0.19971 0.0
H1981 H 0.14641 0.11518 0.07094 0.0
H1982 H 0.16426 0.13043 0.08273 0.0
H1983 H 0.14689 0.13634 0.04291 0.0
C1984 C 0.11156 0.83104 0.30456 0.0
C1985 C 0.12851 0.82515 0.31652 0.0
C1986 C 0.10274 0.84352 0.332 0.0
C1987 C 0.11101 0.85002 0.37276 0.0
C1988 C 0.12864 0.84511 0.38311 0.0
C1989 C 0.13727 0.83274 0.35457 0.0
C1990 C 0.08405 0.84869 0.31921 0.0
C1991 C 0.13788 0.85177 0.4262 0.0
C1992 C 0.08519 0.88697 0.43012 0.0
C1993 C 0.07375 0.87721 0.45866 0.0
C1994 C 0.09839 0.87846 0.40401 0.0
C1995 C 0.10018 0.85987 0.40715 0.0
C1996 C 0.08966 0.85023 0.43908 0.0
C1997 C 0.07645 0.85902 0.46419 0.0
C1998 C 0.10938 0.88917 0.37045 0.0
C1999 C 0.09141 0.83042 0.44419 0.0
H2000 H 0.10486 0.82529 0.27483 0.0
H2001 H 0.15039 0.82816 0.36389 0.0
H2002 H 0.07468 0.84274 0.34447 0.0
H2003 H 0.08241 0.86325 0.32093 0.0
H2004 H 0.08038 0.84415 0.28374 0.0
H2005 H 0.15239 0.84949 0.42461 0.0
H2006 H 0.1354 0.8661 0.43137 0.0
H2007 H 0.1326 0.84472 0.45709 0.0
H2008 H 0.08312 0.90107 0.42585 0.0
H2009 H 0.06774 0.8515 0.4867 0.0
H2010 H 0.10442 0.88703 0.33455 0.0
H2011 H 0.12342 0.88489 0.37127 0.0
H2012 H 0.10872 0.90355 0.3782 0.0
H2013 H 0.0864 0.82386 0.41226 0.0
H2014 H 0.08383 0.82529 0.47444 0.0
H2015 H 0.10549 0.82663 0.44836 0.0
C2016 C 0.35236 0.84548 0.70949 0.0
C2017 C 0.36225 0.83264 0.73323 0.0
C2018 C 0.36077 0.85983 0.68775 0.0
C2019 C 0.37942 0.86115 0.68976 0.0
C2020 C 0.38915 0.84937 0.7183 0.0
C2021 C 0.38042 0.83525 0.73979 0.0
C2022 C 0.34989 0.87249 0.65898 0.0
C2023 C 0.40906 0.85049 0.72207 0.0
C2024 C 0.40675 0.87257 0.58466 0.0
C2025 C 0.41473 0.88837 0.59882 0.0
C2026 C 0.39402 0.8643 0.61244 0.0
C2027 C 0.38913 0.8721 0.65537 0.0
C2028 C 0.39582 0.88895 0.66756 0.0
C2029 C 0.40865 0.89692 0.63906 0.0
C2030 C 0.38704 0.84642 0.59772 0.0
C2031 C 0.39061 0.89791 0.7124 0.0
H2032 H 0.33824 0.84365 0.70487 0.0
H2033 H 0.38806 0.82551 0.75884 0.0
H2034 H 0.35514 0.88616 0.66153 0.0
H2035 H 0.35048 0.86846 0.62189 0.0
H2036 H 0.33579 0.87247 0.66996 0.0
H2037 H 0.41433 0.84184 0.75008 0.0
H2038 H 0.4151 0.84636 0.68859 0.0
H2039 H 0.41328 0.86428 0.72902 0.0
H2040 H 0.41125 0.86607 0.5532 0.0
H2041 H 0.41473 0.90923 0.64997 0.0
H2042 H 0.37241 0.84608 0.6003 0.0
H2043 H 0.39233 0.83607 0.62133 0.0
H2044 H 0.39088 0.84302 0.5615 0.0
H2045 H 0.37649 0.89546 0.72084 0.0
H2046 H 0.39291 0.91241 0.71071 0.0
H2047 H 0.39871 0.8925 0.74129 0.0
C2048 C 0.41706 0.1093 0.90224 0.0
C2049 C 0.4331 0.11285 0.87973 0.0
C2050 C 0.40183 0.11914 0.89151 0.0
C2051 C 0.40283 0.13263 0.8574 0.0
C2052 C 0.41861 0.13501 0.83164 0.0
C2053 C 0.43359 0.12515 0.84336 0.0
C2054 C 0.38517 0.1161 0.91928 0.0
C2055 C 0.42019 0.14905 0.79444 0.0
C2056 C 0.36542 0.16042 0.80934 0.0
C2057 C 0.36842 0.17633 0.83303 0.0
C2058 C 0.3756 0.14535 0.8194 0.0
C2059 C 0.3889 0.14637 0.85399 0.0
C2060 C 0.39082 0.16199 0.88066 0.0
C2061 C 0.38061 0.17681 0.86963 0.0
C2062 C 0.37306 0.12886 0.79063 0.0
C2063 C 0.40466 0.16357 0.91836 0.0
H2064 H 0.41668 0.09967 0.93021 0.0
H2065 H 0.44595 0.12764 0.82535 0.0
H2066 H 0.38412 0.12636 0.94673 0.0
H2067 H 0.37327 0.1172 0.89689 0.0
H2068 H 0.38521 0.10292 0.93638 0.0
H2069 H 0.43255 0.14765 0.77382 0.0
H2070 H 0.40875 0.14847 0.77035 0.0
H2071 H 0.42019 0.16232 0.81093 0.0
H2072 H 0.35587 0.16002 0.78121 0.0
H2073 H 0.38269 0.18904 0.88857 0.0
H2074 H 0.37425 0.11681 0.81245 0.0
H2075 H 0.38351 0.12821 0.76358 0.0
H2076 H 0.35998 0.12877 0.77297 0.0
H2077 H 0.40412 0.15199 0.94202 0.0
H2078 H 0.403 0.17579 0.93938 0.0
H2079 H 0.41802 0.16383 0.90232 0.0
C2080 C 0.88519 0.83168 0.78945 0.0
C2081 C 0.86771 0.8265 0.79776 0.0
C2082 C 0.89353 0.8441 0.81815 0.0
C2083 C 0.88419 0.85126 0.8565 0.0
C2084 C 0.86611 0.8471 0.86291 0.0
C2085 C 0.85801 0.8348 0.83314 0.0
C2086 C 0.91274 0.84849 0.8095 0.0
C2087 C 0.85572 0.85445 0.90336 0.0
C2088 C 0.91554 0.85972 0.95612 0.0
C2089 C 0.91895 0.8778 0.95094 0.0
C2090 C 0.90314 0.85118 0.92778 0.0
C2091 C 0.89417 0.86095 0.89295 0.0
C2092 C 0.89664 0.87946 0.88979 0.0
C2093 C 0.90897 0.88773 0.91916 0.0
C2094 C 0.9006 0.83145 0.93297 0.0
C2095 C 0.88733 0.89031 0.85312 0.0
H2096 H 0.89265 0.82538 0.7618 0.0
H2097 H 0.84447 0.83078 0.83969 0.0
H2098 H 0.91489 0.86299 0.81118 0.0
H2099 H 0.92103 0.84232 0.83695 0.0
H2100 H 0.91737 0.84362 0.77512 0.0
H2101 H 0.84125 0.85261 0.89865 0.0
H2102 H 0.85977 0.84754 0.93573 0.0
H2103 H 0.85849 0.86873 0.90822 0.0
H2104 H 0.92314 0.85207 0.98101 0.0
H2105 H 0.91162 0.90173 0.91505 0.0
H2106 H 0.9065 0.82458 0.90258 0.0
H2107 H 0.88632 0.82812 0.93378 0.0
H2108 H 0.90691 0.82624 0.96508 0.0
H2109 H 0.89354 0.88776 0.81878 0.0
H2110 H 0.88819 0.90471 0.86045 0.0
H2111 H 0.8732 0.88651 0.85041 0.0
C2112 C 0.91624 0.13371 0.51819 0.0
C2113 C 0.91985 0.11602 0.52886 0.0
C2114 C 0.90243 0.14274 0.54033 0.0
C2115 C 0.89218 0.13385 0.57433 0.0
C2116 C 0.8947 0.11553 0.58195 0.0
C2117 C 0.90852 0.10677 0.55887 0.0
C2118 C 0.89994 0.1622 0.53045 0.0
C2119 C 0.88394 0.10557 0.61758 0.0
C2120 C 0.8808 0.16537 0.67124 0.0
C2121 C 0.86367 0.17058 0.65893 0.0
C2122 C 0.88971 0.15233 0.64594 0.0
C2123 C 0.88133 0.14449 0.607 0.0
C2124 C 0.86353 0.14874 0.59654 0.0
C2125 C 0.85484 0.16175 0.6229 0.0
C2126 C 0.90859 0.14793 0.65887 0.0
C2127 C 0.85414 0.14061 0.55547 0.0
H2128 H 0.92485 0.14082 0.49449 0.0
H2129 H 0.91125 0.09303 0.56706 0.0
H2130 H 0.88571 0.16536 0.526 0.0
H2131 H 0.9049 0.17003 0.56039 0.0
H2132 H 0.90718 0.16647 0.49873 0.0
H2133 H 0.88485 0.09104 0.61243 0.0
H2134 H 0.88897 0.10872 0.6529 0.0
H2135 H 0.86983 0.10958 0.61624 0.0
H2136 H 0.88756 0.17207 0.69946 0.0
H2137 H 0.84156 0.1658 0.61334 0.0
H2138 H 0.91767 0.15314 0.6318 0.0
H2139 H 0.91048 0.1334 0.66053 0.0
H2140 H 0.91245 0.15372 0.69291 0.0
H2141 H 0.85883 0.14702 0.52301 0.0
H2142 H 0.83958 0.1424 0.55776 0.0
H2143 H 0.85712 0.12628 0.55271 0.0
C2144 C 0.63746 0.15902 0.30739 0.0
C2145 C 0.62989 0.17505 0.32172 0.0
C2146 C 0.62936 0.14282 0.31854 0.0
C2147 C 0.61354 0.14283 0.3449 0.0
C2148 C 0.60654 0.15899 0.36173 0.0
C2149 C 0.61473 0.17488 0.34959 0.0
C2150 C 0.6372 0.12589 0.29995 0.0
C2151 C 0.58984 0.15965 0.39066 0.0
C2152 C 0.57436 0.11322 0.33389 0.0
C2153 C 0.57436 0.10521 0.37772 0.0
C2154 C 0.58859 0.12369 0.31962 0.0
C2155 C 0.60281 0.12657 0.35072 0.0
C2156 C 0.6038 0.11675 0.39266 0.0
C2157 C 0.58947 0.10601 0.40569 0.0
C2158 C 0.58722 0.13349 0.27397 0.0
C2159 C 0.61887 0.11927 0.42638 0.0
H2160 H 0.64926 0.15917 0.28597 0.0
H2161 H 0.60906 0.18727 0.36139 0.0
H2162 H 0.63605 0.11501 0.3257 0.0
H2163 H 0.62984 0.12183 0.26831 0.0
H2164 H 0.65134 0.12757 0.2904 0.0
H2165 H 0.58709 0.17312 0.4043 0.0
H2166 H 0.57839 0.15544 0.3692 0.0
H2167 H 0.59084 0.15041 0.42054 0.0
H2168 H 0.56265 0.11235 0.31219 0.0
H2169 H 0.58937 0.09974 0.43964 0.0
H2170 H 0.6002 0.13386 0.25604 0.0
H2171 H 0.5831 0.14735 0.28071 0.0
H2172 H 0.57733 0.12734 0.25038 0.0
H2173 H 0.63162 0.12086 0.40775 0.0
H2174 H 0.61995 0.10797 0.45094 0.0
H2175 H 0.61655 0.13147 0.44696 0.0
C2176 C 0.56507 0.86075 0.1042 0.0
C2177 C 0.56477 0.8768 0.07999 0.0
C2178 C 0.58107 0.85255 0.1155 0.0
C2179 C 0.5972 0.86054 0.10184 0.0
C2180 C 0.59704 0.87721 0.07942 0.0
C2181 C 0.58074 0.88521 0.0688 0.0
C2182 C 0.58062 0.83485 0.13999 0.0
C2183 C 0.61395 0.88614 0.06447 0.0
C2184 C 0.63495 0.83625 0.15874 0.0
C2185 C 0.63718 0.82247 0.12675 0.0
C2186 C 0.62318 0.85017 0.14913 0.0
C2187 C 0.61375 0.85018 0.10652 0.0
C2188 C 0.61777 0.83746 0.072 0.0
C2189 C 0.62934 0.82363 0.08277 0.0
C2190 C 0.61942 0.86364 0.18652 0.0
C2191 C 0.60833 0.83722 0.02571 0.0
H2192 H 0.55273 0.85435 0.11352 0.0
H2193 H 0.58052 0.8977 0.05026 0.0
H2194 H 0.58551 0.82439 0.11617 0.0
H2195 H 0.58943 0.83502 0.17084 0.0
H2196 H 0.56708 0.8312 0.15157 0.0
H2197 H 0.61186 0.90038 0.05658 0.0
H2198 H 0.62428 0.88493 0.09172 0.0
H2199 H 0.61905 0.8796 0.03264 0.0
H2200 H 0.64109 0.83534 0.19275 0.0
H2201 H 0.63133 0.81306 0.0578 0.0
H2202 H 0.60712 0.85988 0.20514 0.0
H2203 H 0.61733 0.87697 0.1713 0.0
H2204 H 0.63034 0.86434 0.21233 0.0
H2205 H 0.59463 0.83229 0.03074 0.0
H2206 H 0.61506 0.82848 1.00017 0.0
H2207 H 0.60745 0.85073 0.01088 0.0
C2208 C 0.58827 0.60728 0.55983 0.0
C2209 C 0.57546 0.60579 0.5948 0.0
C2210 C 0.60345 0.61763 0.56699 0.0
C2211 C 0.60565 0.62649 0.61001 0.0
C2212 C 0.59401 0.62283 0.64734 0.0
C2213 C 0.57892 0.61261 0.63912 0.0
C2214 C 0.61587 0.62082 0.52681 0.0
C2215 C 0.59615 0.63159 0.6942 0.0
C2216 C 0.64263 0.65854 0.64006 0.0
C2217 C 0.63416 0.67471 0.63147 0.0
C2218 C 0.634 0.64245 0.63071 0.0
C2219 C 0.6166 0.64273 0.61242 0.0
C2220 C 0.60853 0.65908 0.60103 0.0
C2221 C 0.6174 0.67483 0.61083 0.0
C2222 C 0.64311 0.62531 0.64285 0.0
C2223 C 0.59007 0.66006 0.58089 0.0
H2224 H 0.58568 0.6018 0.52564 0.0
H2225 H 0.56915 0.6111 0.66648 0.0
H2226 H 0.61228 0.63343 0.50943 0.0
H2227 H 0.62974 0.62198 0.53903 0.0
H2228 H 0.61504 0.61004 0.50064 0.0
H2229 H 0.58806 0.62499 0.72141 0.0
H2230 H 0.6102 0.63148 0.70526 0.0
H2231 H 0.59186 0.6456 0.6917 0.0
H2232 H 0.65566 0.65844 0.6558 0.0
H2233 H 0.61095 0.68733 0.60338 0.0
H2234 H 0.63973 0.6147 0.6177 0.0
H2235 H 0.63871 0.62093 0.67782 0.0
H2236 H 0.65772 0.62693 0.6438 0.0
H2237 H 0.58904 0.65156 0.54955 0.0
H2238 H 0.58627 0.67375 0.57107 0.0
H2239 H 0.58037 0.65511 0.60678 0.0
C2240 C 0.58274 0.36585 0.97508 0.0
C2241 C 0.57929 0.38387 0.96871 0.0
C2242 C 0.59642 0.35749 0.95079 0.0
C2243 C 0.60675 0.3674 0.91896 0.0
C2244 C 0.6043 0.38591 0.91541 0.0
C2245 C 0.59058 0.39398 0.94058 0.0
C2246 C 0.59882 0.33776 0.95632 0.0
C2247 C 0.61514 0.39693 0.8822 0.0
C2248 C 0.64422 0.34035 0.86846 0.0
C2249 C 0.63554 0.33227 0.83098 0.0
C2250 C 0.63552 0.35307 0.89575 0.0
C2251 C 0.61789 0.35779 0.88479 0.0
C2252 C 0.60981 0.35094 0.84414 0.0
C2253 C 0.61872 0.33817 0.81787 0.0
C2254 C 0.64463 0.36021 0.93851 0.0
C2255 C 0.59113 0.35588 0.83066 0.0
H2256 H 0.57414 0.35806 0.9973 0.0
H2257 H 0.58795 0.40796 0.93568 0.0
H2258 H 0.59419 0.33096 0.92434 0.0
H2259 H 0.613 0.33446 0.96106 0.0
H2260 H 0.59127 0.33245 0.9864 0.0
H2261 H 0.61429 0.41125 0.89056 0.0
H2262 H 0.62923 0.39284 0.88273 0.0
H2263 H 0.61015 0.39496 0.84627 0.0
H2264 H 0.65726 0.3358 0.87863 0.0
H2265 H 0.61209 0.33206 0.78852 0.0
H2266 H 0.6397 0.35306 0.96964 0.0
H2267 H 0.64167 0.37446 0.94344 0.0
H2268 H 0.6592 0.35841 0.93664 0.0
H2269 H 0.58171 0.3499 0.85576 0.0
H2270 H 0.58767 0.35118 0.79519 0.0
H2271 H 0.58932 0.37043 0.83197 0.0
C2272 C 0.88233 0.32142 0.13975 0.0
C2273 C 0.86743 0.32188 0.16859 0.0
C2274 C 0.89184 0.33681 0.12985 0.0
C2275 C 0.88636 0.35307 0.14959 0.0
C2276 C 0.87065 0.35384 0.17634 0.0
C2277 C 0.86131 0.33815 0.18555 0.0
C2278 C 0.90841 0.3354 0.10063 0.0
C2279 C 0.86431 0.37095 0.19756 0.0
C2280 C 0.92745 0.37964 0.16908 0.0
C2281 C 0.92839 0.38918 0.12743 0.0
C2282 C 0.91263 0.36932 0.17951 0.0
C2283 C 0.89859 0.36837 0.14704 0.0
C2284 C 0.89863 0.37954 0.10745 0.0
C2285 C 0.91362 0.38994 0.0981 0.0
C2286 C 0.91298 0.35791 0.22266 0.0
C2287 C 0.88376 0.37912 0.07251 0.0
H2288 H 0.88692 0.30889 0.12595 0.0
H2289 H 0.84969 0.33853 0.20763 0.0
H2290 H 0.90827 0.34545 0.0725 0.0
H2291 H 0.92018 0.338 0.12265 0.0
H2292 H 0.90992 0.32212 0.08458 0.0
H2293 H 0.85016 0.3702 0.20776 0.0
H2294 H 0.8722 0.37384 0.2292 0.0
H2295 H 0.86612 0.38216 0.17311 0.0
H2296 H 0.9388 0.37933 0.19215 0.0
H2297 H 0.91434 0.39743 0.06598 0.0
H2298 H 0.91577 0.34401 0.21264 0.0
H2299 H 0.89998 0.35815 0.24048 0.0
H2300 H 0.92333 0.36225 0.24763 0.0
H2301 H 0.8854 0.36743 0.04958 0.0
H2302 H 0.8837 0.39116 0.05034 0.0
H2303 H 0.87075 0.37791 0.09011 0.0
C2304 C 0.91197 0.60418 0.38397 0.0
C2305 C 0.91994 0.61261 0.42202 0.0
C2306 C 0.89935 0.61308 0.35675 0.0
C2307 C 0.89467 0.63067 0.36829 0.0
C2308 C 0.90141 0.63848 0.40941 0.0
C2309 C 0.91403 0.62936 0.43567 0.0
C2310 C 0.89228 0.60423 0.31356 0.0
C2311 C 0.89654 0.65712 0.42343 0.0
C2312 C 0.88737 0.66626 0.27878 0.0
C2313 C 0.86938 0.66995 0.28485 0.0
C2314 C 0.89547 0.65239 0.30297 0.0
C2315 C 0.88531 0.64207 0.33424 0.0
C2316 C 0.86683 0.64477 0.33749 0.0
C2317 C 0.85903 0.65873 0.31258 0.0
C2318 C 0.9152 0.64978 0.2979 0.0
C2319 C 0.85554 0.6339 0.36998 0.0
H2320 H 0.91649 0.59118 0.37345 0.0
H2321 H 0.92002 0.63578 0.4655 0.0
H2322 H 0.87806 0.60733 0.30843 0.0
H2323 H 0.89956 0.60925 0.28274 0.0
H2324 H 0.89396 0.58965 0.31502 0.0
H2325 H 0.90118 0.66038 0.45909 0.0
H2326 H 0.90262 0.66663 0.39874 0.0
H2327 H 0.882 0.65902 0.42194 0.0
H2328 H 0.89535 0.67477 0.25681 0.0
H2329 H 0.84507 0.66151 0.31714 0.0
H2330 H 0.91833 0.63559 0.29251 0.0
H2331 H 0.92193 0.65406 0.33032 0.0
H2332 H 0.92074 0.65748 0.26838 0.0
H2333 H 0.85946 0.61976 0.36902 0.0
H2334 H 0.84127 0.63498 0.36124 0.0
H2335 H 0.85743 0.63866 0.40615 0.0
C2336 C 0.35238 0.33007 0.38246 0.0
C2337 C 0.36069 0.32289 0.34317 0.0
C2338 C 0.36084 0.34313 0.40916 0.0
C2339 C 0.37786 0.34905 0.39584 0.0
C2340 C 0.38547 0.34301 0.35371 0.0
C2341 C 0.3768 0.32993 0.328 0.0
C2342 C 0.35222 0.34942 0.4535 0.0
C2343 C 0.40348 0.3492 0.3378 0.0
C2344 C 0.40432 0.38659 0.44773 0.0
C2345 C 0.41683 0.37707 0.47366 0.0
C2346 C 0.39041 0.37783 0.42503 0.0
C2347 C 0.38908 0.35921 0.42866 0.0
C2348 C 0.40069 0.34983 0.45847 0.0
C2349 C 0.41447 0.3589 0.4805 0.0
C2350 C 0.37811 0.38829 0.39417 0.0
C2351 C 0.39956 0.32999 0.4639 0.0
H2352 H 0.33987 0.32465 0.39416 0.0
H2353 H 0.38312 0.32454 0.29723 0.0
H2354 H 0.35816 0.34234 0.4835 0.0
H2355 H 0.35445 0.36377 0.45883 0.0
H2356 H 0.33776 0.34679 0.45351 0.0
H2357 H 0.40656 0.3448 0.30182 0.0
H2358 H 0.40434 0.36384 0.33912 0.0
H2359 H 0.41377 0.34385 0.36149 0.0
H2360 H 0.40604 0.4007 0.44264 0.0
H2361 H 0.42398 0.35155 0.50114 0.0
H2362 H 0.36433 0.38337 0.39708 0.0
H2363 H 0.38227 0.38673 0.35738 0.0
H2364 H 0.37833 0.40261 0.40283 0.0
H2365 H 0.38574 0.32586 0.47089 0.0
H2366 H 0.40811 0.32505 0.49255 0.0
H2367 H 0.40379 0.32353 0.43105 0.0
C2368 C 0.37983 0.66379 0.24602 0.0
C2369 C 0.3627 0.66732 0.23 0.0
C2370 C 0.39014 0.65057 0.22533 0.0
C2371 C 0.38315 0.64085 0.18745 0.0
C2372 C 0.3652 0.64302 0.17468 0.0
C2373 C 0.35511 0.65625 0.19634 0.0
C2374 C 0.40911 0.64838 0.24073 0.0
C2375 C 0.3572 0.63274 0.13493 0.0
C2376 C 0.41838 0.63335 0.09677 0.0
C2377 C 0.42372 0.61603 0.10659 0.0
C2378 C 0.40433 0.64114 0.1209 0.0
C2379 C 0.39554 0.63139 0.15607 0.0
C2380 C 0.40009 0.61349 0.164 0.0
C2381 C 0.41417 0.60596 0.13895 0.0
C2382 C 0.39969 0.66021 0.11073 0.0
C2383 C 0.39096 0.60265 0.20096 0.0
H2384 H 0.38562 0.67218 0.27255 0.0
H2385 H 0.34181 0.65887 0.18405 0.0
H2386 H 0.41264 0.63418 0.24333 0.0
H2387 H 0.418 0.65449 0.21454 0.0
H2388 H 0.41162 0.65478 0.2749 0.0
H2389 H 0.34251 0.63301 0.13606 0.0
H2390 H 0.36153 0.63867 0.1015 0.0
H2391 H 0.36171 0.61877 0.13534 0.0
H2392 H 0.42564 0.64109 0.07137 0.0
H2393 H 0.41831 0.59254 0.14659 0.0
H2394 H 0.40328 0.66857 0.14102 0.0
H2395 H 0.38525 0.66162 0.10502 0.0
H2396 H 0.40672 0.66536 0.0796 0.0
H2397 H 0.3961 0.60652 0.23566 0.0
H2398 H 0.39334 0.58826 0.19618 0.0
H2399 H 0.3765 0.60513 0.20094 0.0
C2400 C 0.08409 0.61973 0.92998 0.0
C2401 C 0.06656 0.62359 0.91789 0.0
C2402 C 0.09814 0.62934 0.91017 0.0
C2403 C 0.09441 0.64274 0.87711 0.0
C2404 C 0.07676 0.64574 0.86267 0.0
C2405 C 0.06306 0.63627 0.88364 0.0
C2406 C 0.11677 0.62587 0.92662 0.0
C2407 C 0.0722 0.65966 0.82685 0.0
C2408 C 0.11893 0.68561 0.86469 0.0
C2409 C 0.1269 0.6835 0.82111 0.0
C2410 C 0.10981 0.67167 0.8857 0.0
C2411 C 0.10825 0.65537 0.86186 0.0
C2412 C 0.11742 0.65275 0.8194 0.0
C2413 C 0.12684 0.6669 0.79959 0.0
C2414 C 0.10058 0.67491 0.93153 0.0
C2415 C 0.11603 0.63557 0.79297 0.0
H2416 H 0.08675 0.60983 0.95635 0.0
H2417 H 0.0495 0.63898 0.87363 0.0
H2418 H 0.12614 0.62578 0.89693 0.0
H2419 H 0.12091 0.63665 0.95045 0.0
H2420 H 0.11784 0.61311 0.94557 0.0
H2421 H 0.05813 0.65893 0.81578 0.0
H2422 H 0.07464 0.673 0.84159 0.0
H2423 H 0.0807 0.65821 0.79564 0.0
H2424 H 0.11931 0.69841 0.8817 0.0
H2425 H 0.13313 0.66531 0.76594 0.0
H2426 H 0.10261 0.6636 0.95553 0.0
H2427 H 0.08614 0.67624 0.92548 0.0
H2428 H 0.10534 0.68717 0.94879 0.0
H2429 H 0.11689 0.62409 0.81689 0.0
H2430 H 0.12653 0.63438 0.76611 0.0
H2431 H 0.10299 0.63495 0.77534 0.0
C2432 C 0.08528 0.38493 0.60545 0.0
C2433 C 0.06942 0.38389 0.63039 0.0
C2434 C 0.0998 0.37439 0.61825 0.0
C2435 C 0.09827 0.36291 0.65703 0.0
C2436 C 0.08297 0.36357 0.68536 0.0
C2437 C 0.06861 0.3739 0.67126 0.0
C2438 C 0.11595 0.37416 0.58746 0.0
C2439 C 0.08093 0.35189 0.72766 0.0
C2440 C 0.11443 0.31591 0.65304 0.0
C2441 C 0.1283 0.31623 0.6852 0.0
C2442 C 0.10549 0.3314 0.64085 0.0
C2443 C 0.11034 0.34757 0.66216 0.0
C2444 C 0.12502 0.34817 0.69274 0.0
C2445 C 0.13397 0.3324 0.70371 0.0
C2446 C 0.09014 0.33019 0.60731 0.0
C2447 C 0.13054 0.36514 0.71615 0.0
H2448 H 0.08582 0.39275 0.57384 0.0
H2449 H 0.05635 0.37337 0.69082 0.0
H2450 H 0.12821 0.37274 0.60834 0.0
H2451 H 0.11516 0.36266 0.56358 0.0
H2452 H 0.1169 0.38637 0.56606 0.0
H2453 H 0.06973 0.35616 0.75001 0.0
H2454 H 0.07844 0.33808 0.71633 0.0
H2455 H 0.09321 0.3519 0.74878 0.0
H2456 H 0.11028 0.30342 0.63805 0.0
H2457 H 0.14479 0.33261 0.72846 0.0
H2458 H 0.09125 0.34051 0.58002 0.0
H2459 H 0.07756 0.33249 0.62629 0.0
H2460 H 0.08936 0.31706 0.59009 0.0
H2461 H 0.12975 0.37648 0.69171 0.0
H2462 H 0.1442 0.36428 0.7302 0.0
H2463 H 0.12142 0.36793 0.7455 0.0
loop_
_geom_bond_atom_site_label_1
_geom_bond_atom_site_label_2
_geom_bond_distance
_geom_bond_site_symmetry_2
_ccdc_geom_bond_type
In0 O1 2.294 . S
In0 O2 2.326 . S
In0 O6 2.266 . S
In0 O7 2.316 1_455 S
In0 O8 2.266 1_455 S
In0 O9 2.326 1_554 S
In0 O11 2.294 1_455 S
In0 O12 2.326 . S
O1 In0 2.294 . S
O1 C10 1.240 . S
O2 In0 2.326 . S
O2 C10 1.252 . S
C3 O6 1.252 . S
C3 O7 1.246 1_455 S
C4 O11 1.240 1_455 S
C4 O12 1.252 . S
C5 O8 1.252 1_456 S
C5 O9 1.260 . S
O6 In0 2.266 . S
O6 C3 1.252 . S
O7 In0 2.316 1_655 S
O7 C3 1.246 1_655 S
O8 In0 2.266 1_655 S
O8 C5 1.252 1_654 S
O9 In0 2.326 1_556 S
O9 C5 1.260 . S
C10 O1 1.240 . S
C10 O2 1.252 . S
O11 In0 2.294 1_655 S
O11 C4 1.240 1_655 S
O12 In0 2.326 . S
O12 C4 1.252 . S
In13 O14 2.294 . S
In13 O15 2.326 . S
In13 O19 2.266 . S
In13 O20 2.326 . S
In13 O21 2.266 . S
In13 O22 2.326 . S
In13 O24 2.294 . S
In13 O25 2.326 . S
O14 In13 2.294 . S
O14 C23 1.240 . S
O15 In13 2.326 . S
O15 C23 1.252 . S
C16 O19 1.252 . S
C16 O20 1.260 . S
C17 O24 1.240 . S
C17 O25 1.252 . S
C18 O21 1.252 . S
C18 O22 1.260 . S
O19 In13 2.266 . S
O19 C16 1.252 . S
O20 In13 2.326 . S
O20 C16 1.260 . S
O21 In13 2.266 . S
O21 C18 1.252 . S
O22 In13 2.326 . S
O22 C18 1.260 . S
C23 O14 1.240 . S
C23 O15 1.252 . S
O24 In13 2.294 . S
O24 C17 1.240 . S
O25 In13 2.326 . S
O25 C17 1.252 . S
In26 O27 2.294 . S
In26 O28 2.326 . S
In26 O32 2.266 . S
In26 O33 2.326 . S
In26 O34 2.266 . S
In26 O35 2.326 . S
In26 O37 2.294 . S
In26 O38 2.326 . S
O27 In26 2.294 . S
O27 C36 1.240 . S
O28 In26 2.326 . S
O28 C36 1.252 . S
C29 O32 1.252 . S
C29 O33 1.260 . S
C30 O37 1.240 . S
C30 O38 1.252 . S
C31 O34 1.252 . S
C31 O35 1.260 . S
O32 In26 2.266 . S
O32 C29 1.252 . S
O33 In26 2.326 . S
O33 C29 1.260 . S
O34 In26 2.266 . S
O34 C31 1.252 . S
O35 In26 2.326 . S
O35 C31 1.260 . S
C36 O27 1.240 . S
C36 O28 1.252 . S
O37 In26 2.294 . S
O37 C30 1.240 . S
O38 In26 2.326 . S
O38 C30 1.252 . S
In39 O40 2.294 . S
In39 O41 2.326 . S
In39 O45 2.266 . S
In39 O46 2.326 . S
In39 O47 2.266 . S
In39 O48 2.326 . S
In39 O50 2.294 . S
In39 O51 2.326 . S
O40 In39 2.294 . S
O40 C49 1.240 . S
O41 In39 2.326 . S
O41 C49 1.252 . S
C42 O45 1.252 . S
C42 O46 1.260 . S
C43 O50 1.240 . S
C43 O51 1.252 . S
C44 O47 1.252 . S
C44 O48 1.260 . S
O45 In39 2.266 . S
O45 C42 1.252 . S
O46 In39 2.326 . S
O46 C42 1.260 . S
O47 In39 2.266 . S
O47 C44 1.252 . S
O48 In39 2.326 . S
O48 C44 1.260 . S
C49 O40 1.240 . S
C49 O41 1.252 . S
O50 In39 2.294 . S
O50 C43 1.240 . S
O51 In39 2.326 . S
O51 C43 1.252 . S
In52 O53 2.294 . S
In52 O54 2.326 . S
In52 O58 2.266 . S
In52 O59 2.316 1_455 S
In52 O60 2.266 1_455 S
In52 O61 2.326 . S
In52 O63 2.294 1_455 S
In52 O64 2.326 . S
O53 In52 2.294 . S
O53 C62 1.240 . S
O54 In52 2.326 . S
O54 C62 1.252 . S
C55 O58 1.252 . S
C55 O59 1.245 1_455 S
C56 O63 1.240 1_455 S
C56 O64 1.252 . S
C57 O60 1.252 1_455 S
C57 O61 1.260 . S
O58 In52 2.266 . S
O58 C55 1.252 . S
O59 In52 2.316 1_655 S
O59 C55 1.245 1_655 S
O60 In52 2.266 1_655 S
O60 C57 1.252 1_655 S
O61 In52 2.326 . S
O61 C57 1.260 . S
C62 O53 1.240 . S
C62 O54 1.252 . S
O63 In52 2.294 1_655 S
O63 C56 1.240 1_655 S
O64 In52 2.326 . S
O64 C56 1.252 . S
In65 O66 2.294 . S
In65 O67 2.326 . S
In65 O71 2.266 . S
In65 O72 2.326 . S
In65 O73 2.266 . S
In65 O74 2.326 . S
In65 O76 2.294 . S
In65 O77 2.326 . S
O66 In65 2.294 . S
O66 C75 1.240 . S
O67 In65 2.326 . S
O67 C75 1.252 . S
C68 O71 1.252 . S
C68 O72 1.260 . S
C69 O76 1.240 . S
C69 O77 1.252 . S
C70 O73 1.252 . S
C70 O74 1.260 . S
O71 In65 2.266 . S
O71 C68 1.252 . S
O72 In65 2.326 . S
O72 C68 1.260 . S
O73 In65 2.266 . S
O73 C70 1.252 . S
O74 In65 2.326 . S
O74 C70 1.260 . S
C75 O66 1.240 . S
C75 O67 1.252 . S
O76 In65 2.294 . S
O76 C69 1.240 . S
O77 In65 2.326 . S
O77 C69 1.252 . S
In78 O79 2.294 . S
In78 O80 2.326 . S
In78 O84 2.266 . S
In78 O85 2.326 1_556 S
In78 O86 2.266 . S
In78 O87 2.326 . S
In78 O89 2.294 . S
In78 O90 2.326 . S
O79 In78 2.294 . S
O79 C88 1.240 . S
O80 In78 2.326 . S
O80 C88 1.252 . S
C81 O84 1.252 1_554 S
C81 O85 1.260 . S
C82 O89 1.240 . S
C82 O90 1.252 . S
C83 O86 1.252 . S
C83 O87 1.260 . S
O84 In78 2.266 . S
O84 C81 1.252 1_556 S
O85 In78 2.326 1_554 S
O85 C81 1.260 . S
O86 In78 2.266 . S
O86 C83 1.252 . S
O87 In78 2.326 . S
O87 C83 1.260 . S
C88 O79 1.240 . S
C88 O80 1.252 . S
O89 In78 2.294 . S
O89 C82 1.240 . S
O90 In78 2.326 . S
O90 C82 1.252 . S
In91 O92 2.294 . S
In91 O93 2.326 . S
In91 O97 2.266 . S
In91 O98 2.326 . S
In91 O99 2.266 . S
In91 O100 2.326 . S
In91 O102 2.294 . S
In91 O103 2.326 . S
O92 In91 2.294 . S
O92 C101 1.240 . S
O93 In91 2.326 . S
O93 C101 1.252 . S
C94 O97 1.252 . S
C94 O98 1.260 . S
C95 O102 1.240 . S
C95 O103 1.252 . S
C96 O99 1.252 . S
C96 O100 1.260 . S
O97 In91 2.266 . S
O97 C94 1.252 . S
O98 In91 2.326 . S
O98 C94 1.260 . S
O99 In91 2.266 . S
O99 C96 1.252 . S
O100 In91 2.326 . S
O100 C96 1.260 . S
C101 O92 1.240 . S
C101 O93 1.252 . S
O102 In91 2.294 . S
O102 C95 1.240 . S
O103 In91 2.326 . S
O103 C95 1.252 . S
In104 O105 2.294 1_655 S
In104 O106 2.326 . S
In104 O110 2.266 1_655 S
In104 O111 2.326 1_556 S
In104 O112 2.266 . S
In104 O113 2.316 1_655 S
In104 O115 2.294 . S
In104 O116 2.326 . S
O105 In104 2.294 1_455 S
O105 C114 1.240 1_455 S
O106 In104 2.326 . S
O106 C114 1.252 . S
C107 O110 1.252 1_654 S
C107 O111 1.260 . S
C108 O115 1.240 . S
C108 O116 1.252 . S
C109 O112 1.252 . S
C109 O113 1.246 1_655 S
O110 In104 2.266 1_455 S
O110 C107 1.252 1_456 S
O111 In104 2.326 1_554 S
O111 C107 1.260 . S
O112 In104 2.266 . S
O112 C109 1.252 . S
O113 In104 2.316 1_455 S
O113 C109 1.246 1_455 S
C114 O105 1.240 1_655 S
C114 O106 1.252 . S
O115 In104 2.294 . S
O115 C108 1.240 . S
O116 In104 2.326 . S
O116 C108 1.252 . S
In117 O118 2.294 . S
In117 O119 2.326 . S
In117 O123 2.266 . S
In117 O124 2.326 . S
In117 O125 2.266 . S
In117 O126 2.326 . S
In117 O128 2.294 . S
In117 O129 2.326 . S
O118 In117 2.294 . S
O118 C127 1.240 . S
O119 In117 2.326 . S
O119 C127 1.252 . S
C120 O123 1.252 . S
C120 O124 1.260 . S
C121 O128 1.240 . S
C121 O129 1.252 . S
C122 O125 1.252 . S
C122 O126 1.260 . S
O123 In117 2.266 . S
O123 C120 1.252 . S
O124 In117 2.326 . S
O124 C120 1.260 . S
O125 In117 2.266 . S
O125 C122 1.252 . S
O126 In117 2.326 . S
O126 C122 1.260 . S
C127 O118 1.240 . S
C127 O119 1.252 . S
O128 In117 2.294 . S
O128 C121 1.240 . S
O129 In117 2.326 . S
O129 C121 1.252 . S
In130 O131 2.294 . S
In130 O132 2.326 . S
In130 O136 2.266 . S
In130 O137 2.326 . S
In130 O138 2.266 . S
In130 O139 2.326 . S
In130 O141 2.294 . S
In130 O142 2.326 . S
O131 In130 2.294 . S
O131 C140 1.240 . S
O132 In130 2.326 . S
O132 C140 1.252 . S
C133 O136 1.252 . S
C133 O137 1.260 . S
C134 O141 1.240 . S
C134 O142 1.252 . S
C135 O138 1.252 . S
C135 O139 1.260 . S
O136 In130 2.266 . S
O136 C133 1.252 . S
O137 In130 2.326 . S
O137 C133 1.260 . S
O138 In130 2.266 . S
O138 C135 1.252 . S
O139 In130 2.326 . S
O139 C135 1.260 . S
C140 O131 1.240 . S
C140 O132 1.252 . S
O141 In130 2.294 . S
O141 C134 1.240 . S
O142 In130 2.326 . S
O142 C134 1.252 . S
In143 O144 2.294 . S
In143 O145 2.326 . S
In143 O149 2.266 . S
In143 O150 2.326 . S
In143 O151 2.266 . S
In143 O152 2.326 . S
In143 O154 2.294 . S
In143 O155 2.326 . S
O144 In143 2.294 . S
O144 C153 1.240 . S
O145 In143 2.326 . S
O145 C153 1.252 . S
C146 O149 1.252 . S
C146 O150 1.260 . S
C147 O154 1.240 . S
C147 O155 1.252 . S
C148 O151 1.252 . S
C148 O152 1.260 . S
O149 In143 2.266 . S
O149 C146 1.252 . S
O150 In143 2.326 . S
O150 C146 1.260 . S
O151 In143 2.266 . S
O151 C148 1.252 . S
O152 In143 2.326 . S
O152 C148 1.260 . S
C153 O144 1.240 . S
C153 O145 1.252 . S
O154 In143 2.294 . S
O154 C147 1.240 . S
O155 In143 2.326 . S
O155 C147 1.252 . S
In156 O157 2.294 . S
In156 O158 2.326 . S
In156 O162 2.266 . S
In156 O163 2.316 1_655 S
In156 O164 2.266 1_655 S
In156 O165 2.326 . S
In156 O167 2.294 1_655 S
In156 O168 2.326 . S
O157 In156 2.294 . S
O157 C166 1.240 . S
O158 In156 2.326 . S
O158 C166 1.252 . S
C159 O162 1.252 . S
C159 O163 1.245 1_655 S
C160 O167 1.240 1_655 S
C160 O168 1.252 . S
C161 O164 1.252 1_655 S
C161 O165 1.260 . S
O162 In156 2.266 . S
O162 C159 1.252 . S
O163 In156 2.316 1_455 S
O163 C159 1.245 1_455 S
O164 In156 2.266 1_455 S
O164 C161 1.252 1_455 S
O165 In156 2.326 . S
O165 C161 1.260 . S
C166 O157 1.240 . S
C166 O158 1.252 . S
O167 In156 2.294 1_455 S
O167 C160 1.240 1_455 S
O168 In156 2.326 . S
O168 C160 1.252 . S
In169 O170 2.294 . S
In169 O171 2.326 . S
In169 O175 2.266 . S
In169 O176 2.326 . S
In169 O177 2.266 . S
In169 O178 2.326 . S
In169 O180 2.294 . S
In169 O181 2.326 . S
O170 In169 2.294 . S
O170 C179 1.240 . S
O171 In169 2.326 . S
O171 C179 1.252 . S
C172 O175 1.252 . S
C172 O176 1.260 . S
C173 O180 1.240 . S
C173 O181 1.252 . S
C174 O177 1.252 . S
C174 O178 1.260 . S
O175 In169 2.266 . S
O175 C172 1.252 . S
O176 In169 2.326 . S
O176 C172 1.260 . S
O177 In169 2.266 . S
O177 C174 1.252 . S
O178 In169 2.326 . S
O178 C174 1.260 . S
C179 O170 1.240 . S
C179 O171 1.252 . S
O180 In169 2.294 . S
O180 C173 1.240 . S
O181 In169 2.326 . S
O181 C173 1.252 . S
In182 O183 2.294 . S
In182 O184 2.326 . S
In182 O188 2.266 . S
In182 O189 2.326 1_554 S
In182 O190 2.266 . S
In182 O191 2.326 . S
In182 O193 2.294 . S
In182 O194 2.326 . S
O183 In182 2.294 . S
O183 C192 1.240 . S
O184 In182 2.326 . S
O184 C192 1.252 . S
C185 O188 1.252 1_556 S
C185 O189 1.260 . S
C186 O193 1.240 . S
C186 O194 1.252 . S
C187 O190 1.252 . S
C187 O191 1.260 . S
O188 In182 2.266 . S
O188 C185 1.252 1_554 S
O189 In182 2.326 1_556 S
O189 C185 1.260 . S
O190 In182 2.266 . S
O190 C187 1.252 . S
O191 In182 2.326 . S
O191 C187 1.260 . S
C192 O183 1.240 . S
C192 O184 1.252 . S
O193 In182 2.294 . S
O193 C186 1.240 . S
O194 In182 2.326 . S
O194 C186 1.252 . S
In195 O196 2.294 . S
In195 O197 2.326 . S
In195 O201 2.266 . S
In195 O202 2.326 . S
In195 O203 2.266 . S
In195 O204 2.326 . S
In195 O206 2.294 . S
In195 O207 2.326 . S
O196 In195 2.294 . S
O196 C205 1.240 . S
O197 In195 2.326 . S
O197 C205 1.252 . S
C198 O201 1.252 . S
C198 O202 1.260 . S
C199 O206 1.240 . S
C199 O207 1.252 . S
C200 O203 1.252 . S
C200 O204 1.260 . S
O201 In195 2.266 . S
O201 C198 1.252 . S
O202 In195 2.326 . S
O202 C198 1.260 . S
O203 In195 2.266 . S
O203 C200 1.252 . S
O204 In195 2.326 . S
O204 C200 1.260 . S
C205 O196 1.240 . S
C205 O197 1.252 . S
O206 In195 2.294 . S
O206 C199 1.240 . S
O207 In195 2.326 . S
O207 C199 1.252 . S
In208 O209 2.294 . S
In208 O210 2.326 . S
In208 O214 2.266 . S
In208 O215 2.326 . S
In208 O216 2.266 . S
In208 O217 2.326 . S
In208 O219 2.294 . S
In208 O220 2.326 . S
O209 In208 2.294 . S
O209 C218 1.240 . S
O210 In208 2.326 . S
O210 C218 1.252 . S
C211 O214 1.252 . S
C211 O215 1.260 . S
C212 O219 1.240 . S
C212 O220 1.252 . S
C213 O216 1.252 . S
C213 O217 1.260 . S
O214 In208 2.266 . S
O214 C211 1.252 . S
O215 In208 2.326 . S
O215 C211 1.260 . S
O216 In208 2.266 . S
O216 C213 1.252 . S
O217 In208 2.326 . S
O217 C213 1.260 . S
C218 O209 1.240 . S
C218 O210 1.252 . S
O219 In208 2.294 . S
O219 C212 1.240 . S
O220 In208 2.326 . S
O220 C212 1.252 . S
In221 O222 2.294 . S
In221 O223 2.326 . S
In221 O227 2.266 . S
In221 O228 2.326 . S
In221 O229 2.266 . S
In221 O230 2.326 . S
In221 O232 2.294 . S
In221 O233 2.326 . S
O222 In221 2.294 . S
O222 C231 1.240 . S
O223 In221 2.326 . S
O223 C231 1.252 . S
C224 O227 1.252 . S
C224 O228 1.260 . S
C225 O232 1.240 . S
C225 O233 1.252 . S
C226 O229 1.252 . S
C226 O230 1.260 . S
O227 In221 2.266 . S
O227 C224 1.252 . S
O228 In221 2.326 . S
O228 C224 1.260 . S
O229 In221 2.266 . S
O229 C226 1.252 . S
O230 In221 2.326 . S
O230 C226 1.260 . S
C231 O222 1.240 . S
C231 O223 1.252 . S
O232 In221 2.294 . S
O232 C225 1.240 . S
O233 In221 2.326 . S
O233 C225 1.252 . S
In234 O235 2.294 1_655 S
In234 O236 2.326 . S
In234 O240 2.266 1_655 S
In234 O241 2.326 1_554 S
In234 O242 2.266 . S
In234 O243 2.316 1_655 S
In234 O245 2.294 . S
In234 O246 2.326 . S
O235 In234 2.294 1_455 S
O235 C244 1.240 1_455 S
O236 In234 2.326 . S
O236 C244 1.252 . S
C237 O240 1.252 1_656 S
C237 O241 1.260 . S
C238 O245 1.240 . S
C238 O246 1.252 . S
C239 O242 1.252 . S
C239 O243 1.246 1_655 S
O240 In234 2.266 1_455 S
O240 C237 1.252 1_454 S
O241 In234 2.326 1_556 S
O241 C237 1.260 . S
O242 In234 2.266 . S
O242 C239 1.252 . S
O243 In234 2.316 1_455 S
O243 C239 1.246 1_455 S
C244 O235 1.240 1_655 S
C244 O236 1.252 . S
O245 In234 2.294 . S
O245 C238 1.240 . S
O246 In234 2.326 . S
O246 C238 1.252 . S
In247 O248 2.294 . S
In247 O249 2.326 . S
In247 O253 2.266 . S
In247 O254 2.326 . S
In247 O255 2.266 . S
In247 O256 2.326 . S
In247 O258 2.294 . S
In247 O259 2.326 . S
O248 In247 2.294 . S
O248 C257 1.240 . S
O249 In247 2.326 . S
O249 C257 1.252 . S
C250 O253 1.252 . S
C250 O254 1.260 . S
C251 O258 1.240 . S
C251 O259 1.252 . S
C252 O255 1.252 . S
C252 O256 1.260 . S
O253 In247 2.266 . S
O253 C250 1.252 . S
O254 In247 2.326 . S
O254 C250 1.260 . S
O255 In247 2.266 . S
O255 C252 1.252 . S
O256 In247 2.326 . S
O256 C252 1.260 . S
C257 O248 1.240 . S
C257 O249 1.252 . S
O258 In247 2.294 . S
O258 C251 1.240 . S
O259 In247 2.326 . S
O259 C251 1.252 . S
In260 O261 2.294 . S
In260 O262 2.326 . S
In260 O266 2.266 . S
In260 O267 2.326 . S
In260 O268 2.266 . S
In260 O269 2.326 1_556 S
In260 O271 2.294 . S
In260 O272 2.326 . S
O261 In260 2.294 . S
O261 C270 1.240 . S
O262 In260 2.326 . S
O262 C270 1.252 . S
C263 O266 1.252 . S
C263 O267 1.260 . S
C264 O271 1.240 . S
C264 O272 1.252 . S
C265 O268 1.252 1_554 S
C265 O269 1.260 . S
O266 In260 2.266 . S
O266 C263 1.252 . S
O267 In260 2.326 . S
O267 C263 1.260 . S
O268 In260 2.266 . S
O268 C265 1.252 1_556 S
O269 In260 2.326 1_554 S
O269 C265 1.260 . S
C270 O261 1.240 . S
C270 O262 1.252 . S
O271 In260 2.294 . S
O271 C264 1.240 . S
O272 In260 2.326 . S
O272 C264 1.252 . S
In273 O274 2.294 . S
In273 O275 2.326 . S
In273 O279 2.266 . S
In273 O280 2.326 . S
In273 O281 2.266 . S
In273 O282 2.326 . S
In273 O284 2.294 . S
In273 O285 2.326 . S
O274 In273 2.294 . S
O274 C283 1.240 . S
O275 In273 2.326 . S
O275 C283 1.252 . S
C276 O279 1.252 . S
C276 O280 1.260 . S
C277 O284 1.240 . S
C277 O285 1.252 . S
C278 O281 1.252 . S
C278 O282 1.260 . S
O279 In273 2.266 . S
O279 C276 1.252 . S
O280 In273 2.326 . S
O280 C276 1.260 . S
O281 In273 2.266 . S
O281 C278 1.252 . S
O282 In273 2.326 . S
O282 C278 1.260 . S
C283 O274 1.240 . S
C283 O275 1.252 . S
O284 In273 2.294 . S
O284 C277 1.240 . S
O285 In273 2.326 . S
O285 C277 1.252 . S
In286 O287 2.294 . S
In286 O288 2.326 . S
In286 O292 2.266 . S
In286 O293 2.316 1_655 S
In286 O294 2.266 1_655 S
In286 O295 2.326 . S
In286 O297 2.294 1_655 S
In286 O298 2.326 . S
O287 In286 2.294 . S
O287 C296 1.240 . S
O288 In286 2.326 . S
O288 C296 1.252 . S
C289 O292 1.252 . S
C289 O293 1.245 1_655 S
C290 O297 1.240 1_655 S
C290 O298 1.252 . S
C291 O294 1.252 1_655 S
C291 O295 1.260 . S
O292 In286 2.266 . S
O292 C289 1.252 . S
O293 In286 2.316 1_455 S
O293 C289 1.245 1_455 S
O294 In286 2.266 1_455 S
O294 C291 1.252 1_455 S
O295 In286 2.326 . S
O295 C291 1.260 . S
C296 O287 1.240 . S
C296 O288 1.252 . S
O297 In286 2.294 1_455 S
O297 C290 1.240 1_455 S
O298 In286 2.326 . S
O298 C290 1.252 . S
In299 O300 2.294 . S
In299 O301 2.326 . S
In299 O305 2.266 . S
In299 O306 2.326 . S
In299 O307 2.266 . S
In299 O308 2.326 . S
In299 O310 2.294 . S
In299 O311 2.326 . S
O300 In299 2.294 . S
O300 C309 1.240 . S
O301 In299 2.326 . S
O301 C309 1.252 . S
C302 O305 1.252 . S
C302 O306 1.260 . S
C303 O310 1.240 . S
C303 O311 1.252 . S
C304 O307 1.252 . S
C304 O308 1.260 . S
O305 In299 2.266 . S
O305 C302 1.252 . S
O306 In299 2.326 . S
O306 C302 1.260 . S
O307 In299 2.266 . S
O307 C304 1.252 . S
O308 In299 2.326 . S
O308 C304 1.260 . S
C309 O300 1.240 . S
C309 O301 1.252 . S
O310 In299 2.294 . S
O310 C303 1.240 . S
O311 In299 2.326 . S
O311 C303 1.252 . S
In312 O313 2.294 . S
In312 O314 2.326 . S
In312 O318 2.266 . S
In312 O319 2.326 . S
In312 O320 2.266 . S
In312 O321 2.326 . S
In312 O323 2.294 . S
In312 O324 2.326 . S
O313 In312 2.294 . S
O313 C322 1.240 . S
O314 In312 2.326 . S
O314 C322 1.252 . S
C315 O318 1.252 . S
C315 O319 1.260 . S
C316 O323 1.240 . S
C316 O324 1.252 . S
C317 O320 1.252 . S
C317 O321 1.260 . S
O318 In312 2.266 . S
O318 C315 1.252 . S
O319 In312 2.326 . S
O319 C315 1.260 . S
O320 In312 2.266 . S
O320 C317 1.252 . S
O321 In312 2.326 . S
O321 C317 1.260 . S
C322 O313 1.240 . S
C322 O314 1.252 . S
O323 In312 2.294 . S
O323 C316 1.240 . S
O324 In312 2.326 . S
O324 C316 1.252 . S
In325 O326 2.294 . S
In325 O327 2.326 . S
In325 O331 2.266 . S
In325 O332 2.326 . S
In325 O333 2.266 . S
In325 O334 2.326 . S
In325 O336 2.294 . S
In325 O337 2.326 . S
O326 In325 2.294 . S
O326 C335 1.240 . S
O327 In325 2.326 . S
O327 C335 1.252 . S
C328 O331 1.252 . S
C328 O332 1.260 . S
C329 O336 1.240 . S
C329 O337 1.252 . S
C330 O333 1.252 . S
C330 O334 1.260 . S
O331 In325 2.266 . S
O331 C328 1.252 . S
O332 In325 2.326 . S
O332 C328 1.260 . S
O333 In325 2.266 . S
O333 C330 1.252 . S
O334 In325 2.326 . S
O334 C330 1.260 . S
C335 O326 1.240 . S
C335 O327 1.252 . S
O336 In325 2.294 . S
O336 C329 1.240 . S
O337 In325 2.326 . S
O337 C329 1.252 . S
In338 O339 2.294 . S
In338 O340 2.326 . S
In338 O344 2.266 . S
In338 O345 2.316 1_455 S
In338 O346 2.266 1_455 S
In338 O347 2.326 1_556 S
In338 O349 2.294 1_455 S
In338 O350 2.326 . S
O339 In338 2.294 . S
O339 C348 1.240 . S
O340 In338 2.326 . S
O340 C348 1.252 . S
C341 O344 1.252 . S
C341 O345 1.246 1_455 S
C342 O349 1.240 1_455 S
C342 O350 1.252 . S
C343 O346 1.252 1_454 S
C343 O347 1.260 . S
O344 In338 2.266 . S
O344 C341 1.252 . S
O345 In338 2.316 1_655 S
O345 C341 1.246 1_655 S
O346 In338 2.266 1_655 S
O346 C343 1.252 1_656 S
O347 In338 2.326 1_554 S
O347 C343 1.260 . S
C348 O339 1.240 . S
C348 O340 1.252 . S
O349 In338 2.294 1_655 S
O349 C342 1.240 1_655 S
O350 In338 2.326 . S
O350 C342 1.252 . S
In351 O352 2.294 . S
In351 O353 2.326 . S
In351 O357 2.266 . S
In351 O358 2.326 . S
In351 O359 2.266 . S
In351 O360 2.326 . S
In351 O362 2.294 . S
In351 O363 2.326 . S
O352 In351 2.294 . S
O352 C361 1.240 . S
O353 In351 2.326 . S
O353 C361 1.252 . S
C354 O357 1.252 . S
C354 O358 1.260 . S
C355 O362 1.240 . S
C355 O363 1.252 . S
C356 O359 1.252 . S
C356 O360 1.260 . S
O357 In351 2.266 . S
O357 C354 1.252 . S
O358 In351 2.326 . S
O358 C354 1.260 . S
O359 In351 2.266 . S
O359 C356 1.252 . S
O360 In351 2.326 . S
O360 C356 1.260 . S
C361 O352 1.240 . S
C361 O353 1.252 . S
O362 In351 2.294 . S
O362 C355 1.240 . S
O363 In351 2.326 . S
O363 C355 1.252 . S
In364 O365 2.294 . S
In364 O366 2.326 . S
In364 O370 2.266 . S
In364 O371 2.326 . S
In364 O372 2.266 . S
In364 O373 2.326 1_554 S
In364 O375 2.294 . S
In364 O376 2.326 . S
O365 In364 2.294 . S
O365 C374 1.240 . S
O366 In364 2.326 . S
O366 C374 1.252 . S
C367 O370 1.252 . S
C367 O371 1.260 . S
C368 O375 1.240 . S
C368 O376 1.252 . S
C369 O372 1.252 1_556 S
C369 O373 1.260 . S
O370 In364 2.266 . S
O370 C367 1.252 . S
O371 In364 2.326 . S
O371 C367 1.260 . S
O372 In364 2.266 . S
O372 C369 1.252 1_554 S
O373 In364 2.326 1_556 S
O373 C369 1.260 . S
C374 O365 1.240 . S
C374 O366 1.252 . S
O375 In364 2.294 . S
O375 C368 1.240 . S
O376 In364 2.326 . S
O376 C368 1.252 . S
In377 O378 2.294 . S
In377 O379 2.326 . S
In377 O383 2.266 . S
In377 O384 2.326 . S
In377 O385 2.266 . S
In377 O386 2.326 . S
In377 O388 2.294 . S
In377 O389 2.326 . S
O378 In377 2.294 . S
O378 C387 1.240 . S
O379 In377 2.326 . S
O379 C387 1.252 . S
C380 O383 1.252 . S
C380 O384 1.260 . S
C381 O388 1.240 . S
C381 O389 1.252 . S
C382 O385 1.252 . S
C382 O386 1.260 . S
O383 In377 2.266 . S
O383 C380 1.252 . S
O384 In377 2.326 . S
O384 C380 1.260 . S
O385 In377 2.266 . S
O385 C382 1.252 . S
O386 In377 2.326 . S
O386 C382 1.260 . S
C387 O378 1.240 . S
C387 O379 1.252 . S
O388 In377 2.294 . S
O388 C381 1.240 . S
O389 In377 2.326 . S
O389 C381 1.252 . S
In390 O391 2.294 1_455 S
In390 O392 2.326 . S
In390 O396 2.266 1_455 S
In390 O397 2.326 . S
In390 O398 2.266 . S
In390 O399 2.316 1_455 S
In390 O401 2.294 . S
In390 O402 2.326 . S
O391 In390 2.294 1_655 S
O391 C400 1.240 1_655 S
O392 In390 2.326 . S
O392 C400 1.252 . S
C393 O396 1.252 1_455 S
C393 O397 1.260 . S
C394 O401 1.240 . S
C394 O402 1.252 . S
C395 O398 1.252 . S
C395 O399 1.245 1_455 S
O396 In390 2.266 1_655 S
O396 C393 1.252 1_655 S
O397 In390 2.326 . S
O397 C393 1.260 . S
O398 In390 2.266 . S
O398 C395 1.252 . S
O399 In390 2.316 1_655 S
O399 C395 1.245 1_655 S
C400 O391 1.240 1_455 S
C400 O392 1.252 . S
O401 In390 2.294 . S
O401 C394 1.240 . S
O402 In390 2.326 . S
O402 C394 1.252 . S
In403 O404 2.294 . S
In403 O405 2.326 . S
In403 O409 2.266 . S
In403 O410 2.326 . S
In403 O411 2.266 . S
In403 O412 2.326 . S
In403 O414 2.294 . S
In403 O415 2.326 . S
O404 In403 2.294 . S
O404 C413 1.240 . S
O405 In403 2.326 . S
O405 C413 1.252 . S
C406 O409 1.252 . S
C406 O410 1.260 . S
C407 O414 1.240 . S
C407 O415 1.252 . S
C408 O411 1.252 . S
C408 O412 1.260 . S
O409 In403 2.266 . S
O409 C406 1.252 . S
O410 In403 2.326 . S
O410 C406 1.260 . S
O411 In403 2.266 . S
O411 C408 1.252 . S
O412 In403 2.326 . S
O412 C408 1.260 . S
C413 O404 1.240 . S
C413 O405 1.252 . S
O414 In403 2.294 . S
O414 C407 1.240 . S
O415 In403 2.326 . S
O415 C407 1.252 . S
C416 C417 1.382 1_655 S
C416 C418 1.394 . S
C416 H432 0.931 . S
C417 C416 1.382 1_455 S
C417 C421 1.385 . S
C418 C416 1.394 . S
C418 C419 1.369 1_655 S
C418 C422 1.531 . S
C419 C418 1.369 1_455 S
C419 C420 1.410 . S
C419 C427 1.503 . S
C420 C419 1.410 . S
C420 C421 1.392 . S
C420 C423 1.511 . S
C421 C417 1.385 . S
C421 C420 1.392 . S
C421 H433 0.929 . S
C422 C418 1.531 . S
C422 H434 0.960 . S
C422 H435 0.962 . S
C422 H436 0.960 . S
C423 C420 1.511 . S
C423 H437 0.961 . S
C423 H438 0.961 . S
C423 H439 0.961 . S
C424 C425 1.370 1_655 S
C424 C426 1.363 . S
C424 H440 0.931 . S
C425 C424 1.370 1_455 S
C425 C429 1.408 . S
C426 C424 1.363 . S
C426 C427 1.370 1_655 S
C426 C430 1.524 . S
C427 C419 1.503 . S
C427 C426 1.370 1_455 S
C427 C428 1.403 . S
C428 C427 1.403 . S
C428 C429 1.404 . S
C428 C431 1.539 . S
C429 C425 1.408 . S
C429 C428 1.404 . S
C429 H441 0.930 . S
C430 C426 1.524 . S
C430 H442 0.956 . S
C430 H443 0.961 . S
C430 H444 0.961 . S
C431 C428 1.539 . S
C431 H445 0.958 . S
C431 H446 0.961 . S
C431 H447 0.960 . S
H432 C416 0.931 . S
H433 C421 0.929 . S
H434 C422 0.960 . S
H435 C422 0.962 . S
H436 C422 0.960 . S
H437 C423 0.961 . S
H438 C423 0.961 . S
H439 C423 0.961 . S
H440 C424 0.931 . S
H441 C429 0.930 . S
H442 C430 0.956 . S
H443 C430 0.961 . S
H444 C430 0.961 . S
H445 C431 0.958 . S
H446 C431 0.961 . S
H447 C431 0.960 . S
C448 C449 1.391 . S
C448 C450 1.394 1_556 S
C448 H464 0.931 . S
C449 C448 1.391 . S
C449 C453 1.376 . S
C450 C448 1.394 1_554 S
C450 C451 1.369 . S
C450 C454 1.531 . S
C451 C450 1.369 . S
C451 C452 1.410 . S
C451 C459 1.503 . S
C452 C451 1.410 . S
C452 C453 1.392 1_554 S
C452 C455 1.511 . S
C453 C449 1.376 . S
C453 C452 1.392 1_556 S
C453 H465 0.929 . S
C454 C450 1.531 . S
C454 H466 0.960 . S
C454 H467 0.962 . S
C454 H468 0.960 . S
C455 C452 1.511 . S
C455 H469 0.961 . S
C455 H470 0.961 . S
C455 H471 0.961 . S
C456 C457 1.370 . S
C456 C458 1.363 . S
C456 H472 0.931 . S
C457 C456 1.370 . S
C457 C461 1.408 . S
C458 C456 1.363 . S
C458 C459 1.370 . S
C458 C462 1.524 . S
C459 C451 1.503 . S
C459 C458 1.370 . S
C459 C460 1.403 . S
C460 C459 1.403 . S
C460 C461 1.404 . S
C460 C463 1.539 . S
C461 C457 1.408 . S
C461 C460 1.404 . S
C461 H473 0.930 . S
C462 C458 1.524 . S
C462 H474 0.956 . S
C462 H475 0.961 . S
C462 H476 0.961 . S
C463 C460 1.539 . S
C463 H477 0.958 . S
C463 H478 0.961 . S
C463 H479 0.960 . S
H464 C448 0.931 . S
H465 C453 0.929 . S
H466 C454 0.960 . S
H467 C454 0.962 . S
H468 C454 0.960 . S
H469 C455 0.961 . S
H470 C455 0.961 . S
H471 C455 0.961 . S
H472 C456 0.931 . S
H473 C461 0.930 . S
H474 C462 0.956 . S
H475 C462 0.961 . S
H476 C462 0.961 . S
H477 C463 0.958 . S
H478 C463 0.961 . S
H479 C463 0.960 . S
C480 C481 1.391 . S
C480 C482 1.394 . S
C480 H496 0.931 . S
C481 C480 1.391 . S
C481 C485 1.376 . S
C482 C480 1.394 . S
C482 C483 1.369 . S
C482 C486 1.531 . S
C483 C482 1.369 . S
C483 C484 1.410 . S
C483 C491 1.503 . S
C484 C483 1.410 . S
C484 C485 1.392 . S
C484 C487 1.511 . S
C485 C481 1.376 . S
C485 C484 1.392 . S
C485 H497 0.929 . S
C486 C482 1.531 . S
C486 H498 0.960 . S
C486 H499 0.962 . S
C486 H500 0.960 . S
C487 C484 1.511 . S
C487 H501 0.961 . S
C487 H502 0.961 . S
C487 H503 0.961 . S
C488 C489 1.370 . S
C488 C490 1.363 . S
C488 H504 0.931 . S
C489 C488 1.370 . S
C489 C493 1.408 . S
C490 C488 1.363 . S
C490 C491 1.370 . S
C490 C494 1.524 . S
C491 C483 1.503 . S
C491 C490 1.370 . S
C491 C492 1.403 . S
C492 C491 1.403 . S
C492 C493 1.404 . S
C492 C495 1.539 . S
C493 C489 1.408 . S
C493 C492 1.404 . S
C493 H505 0.930 . S
C494 C490 1.524 . S
C494 H506 0.956 . S
C494 H507 0.961 . S
C494 H508 0.961 . S
C495 C492 1.539 . S
C495 H509 0.958 . S
C495 H510 0.961 . S
C495 H511 0.960 . S
H496 C480 0.931 . S
H497 C485 0.929 . S
H498 C486 0.960 . S
H499 C486 0.962 . S
H500 C486 0.960 . S
H501 C487 0.961 . S
H502 C487 0.961 . S
H503 C487 0.961 . S
H504 C488 0.931 . S
H505 C493 0.930 . S
H506 C494 0.956 . S
H507 C494 0.961 . S
H508 C494 0.961 . S
H509 C495 0.958 . S
H510 C495 0.961 . S
H511 C495 0.960 . S
C512 C513 1.391 . S
C512 C514 1.394 . S
C512 H528 0.931 . S
C513 C512 1.391 . S
C513 C517 1.376 . S
C514 C512 1.394 . S
C514 C515 1.369 . S
C514 C518 1.531 . S
C515 C514 1.369 . S
C515 C516 1.410 . S
C515 C523 1.503 . S
C516 C515 1.410 . S
C516 C517 1.392 . S
C516 C519 1.511 . S
C517 C513 1.376 . S
C517 C516 1.392 . S
C517 H529 0.929 . S
C518 C514 1.531 . S
C518 H530 0.960 . S
C518 H531 0.962 . S
C518 H532 0.960 . S
C519 C516 1.511 . S
C519 H533 0.961 . S
C519 H534 0.961 . S
C519 H535 0.961 . S
C520 C521 1.370 . S
C520 C522 1.363 . S
C520 H536 0.931 . S
C521 C520 1.370 . S
C521 C525 1.408 . S
C522 C520 1.363 . S
C522 C523 1.370 . S
C522 C526 1.524 . S
C523 C515 1.503 . S
C523 C522 1.370 . S
C523 C524 1.403 . S
C524 C523 1.403 . S
C524 C525 1.404 . S
C524 C527 1.539 . S
C525 C521 1.408 . S
C525 C524 1.404 . S
C525 H537 0.930 . S
C526 C522 1.524 . S
C526 H538 0.956 . S
C526 H539 0.961 . S
C526 H540 0.961 . S
C527 C524 1.539 . S
C527 H541 0.958 . S
C527 H542 0.961 . S
C527 H543 0.960 . S
H528 C512 0.931 . S
H529 C517 0.929 . S
H530 C518 0.960 . S
H531 C518 0.962 . S
H532 C518 0.960 . S
H533 C519 0.961 . S
H534 C519 0.961 . S
H535 C519 0.961 . S
H536 C520 0.931 . S
H537 C525 0.930 . S
H538 C526 0.956 . S
H539 C526 0.961 . S
H540 C526 0.961 . S
H541 C527 0.958 . S
H542 C527 0.961 . S
H543 C527 0.960 . S
C544 C545 1.447 . S
C544 C546 1.394 . S
C544 H560 0.931 . S
C545 C544 1.447 . S
C545 C549 1.322 1_655 S
C546 C544 1.394 . S
C546 C547 1.369 . S
C546 C550 1.531 . S
C547 C546 1.369 . S
C547 C548 1.410 1_655 S
C547 C555 1.505 . S
C548 C547 1.410 1_455 S
C548 C549 1.392 . S
C548 C551 1.511 . S
C549 C545 1.322 1_455 S
C549 C548 1.392 . S
C549 H561 0.929 . S
C550 C546 1.531 . S
C550 H562 0.960 . S
C550 H563 0.962 . S
C550 H564 0.960 . S
C551 C548 1.511 . S
C551 H565 0.961 . S
C551 H566 0.961 . S
C551 H567 0.961 . S
C552 C553 1.370 . S
C552 C554 1.363 . S
C552 H568 0.931 . S
C553 C552 1.370 . S
C553 C557 1.408 1_455 S
C554 C552 1.363 . S
C554 C555 1.365 1_455 S
C554 C558 1.524 . S
C555 C547 1.505 . S
C555 C554 1.365 1_655 S
C555 C556 1.408 . S
C556 C555 1.408 . S
C556 C557 1.404 . S
C556 C559 1.539 . S
C557 C553 1.408 1_655 S
C557 C556 1.404 . S
C557 H569 0.930 . S
C558 C554 1.524 . S
C558 H570 0.956 1_455 S
C558 H571 0.961 . S
C558 H572 0.961 . S
C559 C556 1.539 . S
C559 H573 0.958 . S
C559 H574 0.961 . S
C559 H575 0.960 . S
H560 C544 0.931 . S
H561 C549 0.929 . S
H562 C550 0.960 . S
H563 C550 0.962 . S
H564 C550 0.960 . S
H565 C551 0.961 . S
H566 C551 0.961 . S
H567 C551 0.961 . S
H568 C552 0.931 . S
H569 C557 0.930 . S
H570 C558 0.956 1_655 S
H571 C558 0.961 . S
H572 C558 0.961 . S
H573 C559 0.958 . S
H574 C559 0.961 . S
H575 C559 0.960 . S
C576 C577 1.391 . S
C576 C578 1.394 . S
C576 H592 0.931 . S
C577 C576 1.391 . S
C577 C581 1.376 . S
C578 C576 1.394 . S
C578 C579 1.369 . S
C578 C582 1.531 . S
C579 C578 1.369 . S
C579 C580 1.410 . S
C579 C587 1.503 . S
C580 C579 1.410 . S
C580 C581 1.392 . S
C580 C583 1.511 . S
C581 C577 1.376 . S
C581 C580 1.392 . S
C581 H593 0.929 . S
C582 C578 1.531 . S
C582 H594 0.960 . S
C582 H595 0.962 . S
C582 H596 0.960 . S
C583 C580 1.511 . S
C583 H597 0.961 . S
C583 H598 0.961 . S
C583 H599 0.961 . S
C584 C585 1.370 . S
C584 C586 1.363 1_554 S
C584 H600 0.931 . S
C585 C584 1.370 . S
C585 C589 1.408 . S
C586 C584 1.363 1_556 S
C586 C587 1.370 . S
C586 C590 1.524 . S
C587 C579 1.503 . S
C587 C586 1.370 . S
C587 C588 1.403 . S
C588 C587 1.403 . S
C588 C589 1.404 1_556 S
C588 C591 1.539 . S
C589 C585 1.408 . S
C589 C588 1.404 1_554 S
C589 H601 0.930 . S
C590 C586 1.524 . S
C590 H602 0.956 . S
C590 H603 0.961 . S
C590 H604 0.961 . S
C591 C588 1.539 . S
C591 H605 0.958 . S
C591 H606 0.961 . S
C591 H607 0.960 . S
H592 C576 0.931 . S
H593 C581 0.929 . S
H594 C582 0.960 . S
H595 C582 0.962 . S
H596 C582 0.960 . S
H597 C583 0.961 . S
H598 C583 0.961 . S
H599 C583 0.961 . S
H600 C584 0.931 . S
H601 C589 0.930 . S
H602 C590 0.956 . S
H603 C590 0.961 . S
H604 C590 0.961 . S
H605 C591 0.958 . S
H606 C591 0.961 . S
H607 C591 0.960 . S
C608 C609 1.391 . S
C608 C610 1.394 . S
C608 H624 0.931 . S
C609 C608 1.391 . S
C609 C613 1.376 . S
C610 C608 1.394 . S
C610 C611 1.369 . S
C610 C614 1.531 . S
C611 C610 1.369 . S
C611 C612 1.410 . S
C611 C619 1.503 . S
C612 C611 1.410 . S
C612 C613 1.392 . S
C612 C615 1.511 . S
C613 C609 1.376 . S
C613 C612 1.392 . S
C613 H625 0.929 . S
C614 C610 1.531 . S
C614 H626 0.960 . S
C614 H627 0.962 . S
C614 H628 0.960 . S
C615 C612 1.511 . S
C615 H629 0.961 . S
C615 H630 0.961 . S
C615 H631 0.961 . S
C616 C617 1.370 . S
C616 C618 1.363 . S
C616 H632 0.931 . S
C617 C616 1.370 . S
C617 C621 1.408 . S
C618 C616 1.363 . S
C618 C619 1.370 . S
C618 C622 1.524 . S
C619 C611 1.503 . S
C619 C618 1.370 . S
C619 C620 1.403 . S
C620 C619 1.403 . S
C620 C621 1.404 . S
C620 C623 1.539 . S
C621 C617 1.408 . S
C621 C620 1.404 . S
C621 H633 0.930 . S
C622 C618 1.524 . S
C622 H634 0.956 . S
C622 H635 0.961 . S
C622 H636 0.961 . S
C623 C620 1.539 . S
C623 H637 0.958 . S
C623 H638 0.961 . S
C623 H639 0.960 . S
H624 C608 0.931 . S
H625 C613 0.929 . S
H626 C614 0.960 . S
H627 C614 0.962 . S
H628 C614 0.960 . S
H629 C615 0.961 . S
H630 C615 0.961 . S
H631 C615 0.961 . S
H632 C616 0.931 . S
H633 C621 0.930 . S
H634 C622 0.956 . S
H635 C622 0.961 . S
H636 C622 0.961 . S
H637 C623 0.958 . S
H638 C623 0.961 . S
H639 C623 0.960 . S
C640 C641 1.391 . S
C640 C642 1.394 . S
C640 H656 0.931 . S
C641 C640 1.391 . S
C641 C645 1.376 . S
C642 C640 1.394 . S
C642 C643 1.369 . S
C642 C646 1.531 . S
C643 C642 1.369 . S
C643 C644 1.410 . S
C643 C651 1.503 . S
C644 C643 1.410 . S
C644 C645 1.392 . S
C644 C647 1.511 . S
C645 C641 1.376 . S
C645 C644 1.392 . S
C645 H657 0.929 . S
C646 C642 1.531 . S
C646 H658 0.960 . S
C646 H659 0.962 . S
C646 H660 0.960 . S
C647 C644 1.511 . S
C647 H661 0.961 . S
C647 H662 0.961 . S
C647 H663 0.961 . S
C648 C649 1.370 . S
C648 C650 1.363 . S
C648 H664 0.931 . S
C649 C648 1.370 . S
C649 C653 1.408 . S
C650 C648 1.363 . S
C650 C651 1.370 . S
C650 C654 1.524 . S
C651 C643 1.503 . S
C651 C650 1.370 . S
C651 C652 1.403 . S
C652 C651 1.403 . S
C652 C653 1.404 . S
C652 C655 1.539 . S
C653 C649 1.408 . S
C653 C652 1.404 . S
C653 H665 0.930 . S
C654 C650 1.524 . S
C654 H666 0.956 . S
C654 H667 0.961 . S
C654 H668 0.961 . S
C655 C652 1.539 . S
C655 H669 0.958 . S
C655 H670 0.961 . S
C655 H671 0.960 . S
H656 C640 0.931 . S
H657 C645 0.929 . S
H658 C646 0.960 . S
H659 C646 0.962 . S
H660 C646 0.960 . S
H661 C647 0.961 . S
H662 C647 0.961 . S
H663 C647 0.961 . S
H664 C648 0.931 . S
H665 C653 0.930 . S
H666 C654 0.956 . S
H667 C654 0.961 . S
H668 C654 0.961 . S
H669 C655 0.958 . S
H670 C655 0.961 . S
H671 C655 0.960 . S
C672 C673 1.391 1_655 S
C672 C674 1.394 . S
C672 H688 0.931 . S
C673 C672 1.391 1_455 S
C673 C677 1.376 . S
C674 C672 1.394 . S
C674 C675 1.369 1_655 S
C674 C678 1.531 . S
C675 C674 1.369 1_455 S
C675 C676 1.410 . S
C675 C683 1.503 . S
C676 C675 1.410 . S
C676 C677 1.392 . S
C676 C679 1.511 . S
C677 C673 1.376 . S
C677 C676 1.392 . S
C677 H689 0.929 . S
C678 C674 1.531 . S
C678 H690 0.960 . S
C678 H691 0.962 . S
C678 H692 0.960 . S
C679 C676 1.511 . S
C679 H693 0.961 . S
C679 H694 0.961 . S
C679 H695 0.961 . S
C680 C681 1.391 . S
C680 C682 1.363 . S
C680 H696 0.931 . S
C681 C680 1.391 . S
C681 C685 1.386 1_655 S
C682 C680 1.363 . S
C682 C683 1.370 1_655 S
C682 C686 1.524 . S
C683 C675 1.503 . S
C683 C682 1.370 1_455 S
C683 C684 1.403 . S
C684 C683 1.403 . S
C684 C685 1.404 . S
C684 C687 1.539 . S
C685 C681 1.386 1_455 S
C685 C684 1.404 . S
C685 H697 0.930 . S
C686 C682 1.524 . S
C686 H698 0.956 . S
C686 H699 0.961 . S
C686 H700 0.961 . S
C687 C684 1.539 . S
C687 H701 0.958 . S
C687 H702 0.961 . S
C687 H703 0.960 . S
H688 C672 0.931 . S
H689 C677 0.929 . S
H690 C678 0.960 . S
H691 C678 0.962 . S
H692 C678 0.960 . S
H693 C679 0.961 . S
H694 C679 0.961 . S
H695 C679 0.961 . S
H696 C680 0.931 . S
H697 C685 0.930 . S
H698 C686 0.956 . S
H699 C686 0.961 . S
H700 C686 0.961 . S
H701 C687 0.958 . S
H702 C687 0.961 . S
H703 C687 0.960 . S
C704 C705 1.391 . S
C704 C706 1.394 1_554 S
C704 H720 0.931 . S
C705 C704 1.391 . S
C705 C709 1.376 . S
C706 C704 1.394 1_556 S
C706 C707 1.369 . S
C706 C710 1.531 . S
C707 C706 1.369 . S
C707 C708 1.410 . S
C707 C715 1.503 . S
C708 C707 1.410 . S
C708 C709 1.392 1_556 S
C708 C711 1.511 . S
C709 C705 1.376 . S
C709 C708 1.392 1_554 S
C709 H721 0.929 . S
C710 C706 1.531 . S
C710 H722 0.960 . S
C710 H723 0.962 . S
C710 H724 0.960 . S
C711 C708 1.511 . S
C711 H725 0.961 . S
C711 H726 0.961 . S
C711 H727 0.961 . S
C712 C713 1.370 . S
C712 C714 1.363 . S
C712 H728 0.931 . S
C713 C712 1.370 . S
C713 C717 1.408 . S
C714 C712 1.363 . S
C714 C715 1.370 . S
C714 C718 1.524 . S
C715 C707 1.503 . S
C715 C714 1.370 . S
C715 C716 1.403 . S
C716 C715 1.403 . S
C716 C717 1.404 . S
C716 C719 1.539 . S
C717 C713 1.408 . S
C717 C716 1.404 . S
C717 H729 0.930 . S
C718 C714 1.524 . S
C718 H730 0.956 . S
C718 H731 0.961 . S
C718 H732 0.961 . S
C719 C716 1.539 . S
C719 H733 0.958 . S
C719 H734 0.961 . S
C719 H735 0.960 . S
H720 C704 0.931 . S
H721 C709 0.929 . S
H722 C710 0.960 . S
H723 C710 0.962 . S
H724 C710 0.960 . S
H725 C711 0.961 . S
H726 C711 0.961 . S
H727 C711 0.961 . S
H728 C712 0.931 . S
H729 C717 0.930 . S
H730 C718 0.956 . S
H731 C718 0.961 . S
H732 C718 0.961 . S
H733 C719 0.958 . S
H734 C719 0.961 . S
H735 C719 0.960 . S
C736 C737 1.391 . S
C736 C738 1.394 . S
C736 H752 0.931 . S
C737 C736 1.391 . S
C737 C741 1.376 . S
C738 C736 1.394 . S
C738 C739 1.369 . S
C738 C742 1.531 . S
C739 C738 1.369 . S
C739 C740 1.410 . S
C739 C747 1.503 . S
C740 C739 1.410 . S
C740 C741 1.392 . S
C740 C743 1.511 . S
C741 C737 1.376 . S
C741 C740 1.392 . S
C741 H753 0.929 . S
C742 C738 1.531 . S
C742 H754 0.960 . S
C742 H755 0.962 . S
C742 H756 0.960 . S
C743 C740 1.511 . S
C743 H757 0.961 . S
C743 H758 0.961 . S
C743 H759 0.961 . S
C744 C745 1.370 . S
C744 C746 1.363 . S
C744 H760 0.931 . S
C745 C744 1.370 . S
C745 C749 1.408 . S
C746 C744 1.363 . S
C746 C747 1.370 . S
C746 C750 1.524 . S
C747 C739 1.503 . S
C747 C746 1.370 . S
C747 C748 1.403 . S
C748 C747 1.403 . S
C748 C749 1.404 . S
C748 C751 1.539 . S
C749 C745 1.408 . S
C749 C748 1.404 . S
C749 H761 0.930 . S
C750 C746 1.524 . S
C750 H762 0.956 . S
C750 H763 0.961 . S
C750 H764 0.961 . S
C751 C748 1.539 . S
C751 H765 0.958 . S
C751 H766 0.961 . S
C751 H767 0.960 . S
H752 C736 0.931 . S
H753 C741 0.929 . S
H754 C742 0.960 . S
H755 C742 0.962 . S
H756 C742 0.960 . S
H757 C743 0.961 . S
H758 C743 0.961 . S
H759 C743 0.961 . S
H760 C744 0.931 . S
H761 C749 0.930 . S
H762 C750 0.956 . S
H763 C750 0.961 . S
H764 C750 0.961 . S
H765 C751 0.958 . S
H766 C751 0.961 . S
H767 C751 0.960 . S
C768 C769 1.391 . S
C768 C770 1.394 . S
C768 H784 0.931 . S
C769 C768 1.391 . S
C769 C773 1.376 . S
C770 C768 1.394 . S
C770 C771 1.369 . S
C770 C774 1.531 . S
C771 C770 1.369 . S
C771 C772 1.410 . S
C771 C779 1.503 . S
C772 C771 1.410 . S
C772 C773 1.392 . S
C772 C775 1.511 . S
C773 C769 1.376 . S
C773 C772 1.392 . S
C773 H785 0.929 . S
C774 C770 1.531 . S
C774 H786 0.960 . S
C774 H787 0.962 . S
C774 H788 0.960 . S
C775 C772 1.511 . S
C775 H789 0.961 . S
C775 H790 0.961 . S
C775 H791 0.961 . S
C776 C777 1.370 . S
C776 C778 1.363 . S
C776 H792 0.931 . S
C777 C776 1.370 . S
C777 C781 1.408 . S
C778 C776 1.363 . S
C778 C779 1.370 . S
C778 C782 1.524 . S
C779 C771 1.503 . S
C779 C778 1.370 . S
C779 C780 1.403 . S
C780 C779 1.403 . S
C780 C781 1.404 . S
C780 C783 1.539 . S
C781 C777 1.408 . S
C781 C780 1.404 . S
C781 H793 0.930 . S
C782 C778 1.524 . S
C782 H794 0.956 . S
C782 H795 0.961 . S
C782 H796 0.961 . S
C783 C780 1.539 . S
C783 H797 0.958 . S
C783 H798 0.961 . S
C783 H799 0.960 . S
H784 C768 0.931 . S
H785 C773 0.929 . S
H786 C774 0.960 . S
H787 C774 0.962 . S
H788 C774 0.960 . S
H789 C775 0.961 . S
H790 C775 0.961 . S
H791 C775 0.961 . S
H792 C776 0.931 . S
H793 C781 0.930 . S
H794 C782 0.956 . S
H795 C782 0.961 . S
H796 C782 0.961 . S
H797 C783 0.958 . S
H798 C783 0.961 . S
H799 C783 0.960 . S
C800 C801 1.406 . S
C800 C802 1.394 . S
C800 H816 0.931 . S
C801 C800 1.406 . S
C801 C805 1.360 1_655 S
C802 C800 1.394 . S
C802 C803 1.369 1_655 S
C802 C806 1.531 . S
C803 C802 1.369 1_455 S
C803 C804 1.410 . S
C803 C811 1.503 . S
C804 C803 1.410 . S
C804 C805 1.392 . S
C804 C807 1.511 . S
C805 C801 1.360 1_455 S
C805 C804 1.392 . S
C805 H817 0.929 . S
C806 C802 1.531 . S
C806 H818 0.960 . S
C806 H819 0.962 . S
C806 H820 0.960 . S
C807 C804 1.511 . S
C807 H821 0.961 . S
C807 H822 0.961 . S
C807 H823 0.961 . S
C808 C809 1.345 1_655 S
C808 C810 1.363 . S
C808 H824 0.931 . S
C809 C808 1.345 1_455 S
C809 C813 1.436 . S
C810 C808 1.363 . S
C810 C811 1.370 1_655 S
C810 C814 1.524 . S
C811 C803 1.503 . S
C811 C810 1.370 1_455 S
C811 C812 1.403 . S
C812 C811 1.403 . S
C812 C813 1.404 . S
C812 C815 1.539 . S
C813 C809 1.436 . S
C813 C812 1.404 . S
C813 H825 0.930 . S
C814 C810 1.524 . S
C814 H826 0.956 . S
C814 H827 0.961 . S
C814 H828 0.961 . S
C815 C812 1.539 . S
C815 H829 0.958 . S
C815 H830 0.961 . S
C815 H831 0.960 . S
H816 C800 0.931 . S
H817 C805 0.929 . S
H818 C806 0.960 . S
H819 C806 0.962 . S
H820 C806 0.960 . S
H821 C807 0.961 . S
H822 C807 0.961 . S
H823 C807 0.961 . S
H824 C808 0.931 . S
H825 C813 0.930 . S
H826 C814 0.956 . S
H827 C814 0.961 . S
H828 C814 0.961 . S
H829 C815 0.958 . S
H830 C815 0.961 . S
H831 C815 0.960 . S
C832 C833 1.391 . S
C832 C834 1.394 . S
C832 H848 0.931 . S
C833 C832 1.391 . S
C833 C837 1.376 . S
C834 C832 1.394 . S
C834 C835 1.369 . S
C834 C838 1.531 . S
C835 C834 1.369 . S
C835 C836 1.410 . S
C835 C843 1.503 . S
C836 C835 1.410 . S
C836 C837 1.392 . S
C836 C839 1.511 . S
C837 C833 1.376 . S
C837 C836 1.392 . S
C837 H849 0.929 . S
C838 C834 1.531 . S
C838 H850 0.960 . S
C838 H851 0.962 . S
C838 H852 0.960 . S
C839 C836 1.511 . S
C839 H853 0.961 . S
C839 H854 0.961 . S
C839 H855 0.961 . S
C840 C841 1.370 . S
C840 C842 1.363 1_556 S
C840 H856 0.931 . S
C841 C840 1.370 . S
C841 C845 1.408 . S
C842 C840 1.363 1_554 S
C842 C843 1.370 . S
C842 C846 1.524 . S
C843 C835 1.503 . S
C843 C842 1.370 . S
C843 C844 1.403 . S
C844 C843 1.403 . S
C844 C845 1.404 1_554 S
C844 C847 1.539 . S
C845 C841 1.408 . S
C845 C844 1.404 1_556 S
C845 H857 0.930 . S
C846 C842 1.524 . S
C846 H858 0.956 . S
C846 H859 0.961 . S
C846 H860 0.961 . S
C847 C844 1.539 . S
C847 H861 0.958 . S
C847 H862 0.961 . S
C847 H863 0.960 . S
H848 C832 0.931 . S
H849 C837 0.929 . S
H850 C838 0.960 . S
H851 C838 0.962 . S
H852 C838 0.960 . S
H853 C839 0.961 . S
H854 C839 0.961 . S
H855 C839 0.961 . S
H856 C840 0.931 . S
H857 C845 0.930 . S
H858 C846 0.956 . S
H859 C846 0.961 . S
H860 C846 0.961 . S
H861 C847 0.958 . S
H862 C847 0.961 . S
H863 C847 0.960 . S
C864 C865 1.391 . S
C864 C866 1.394 . S
C864 H880 0.931 . S
C865 C864 1.391 . S
C865 C869 1.376 . S
C866 C864 1.394 . S
C866 C867 1.369 . S
C866 C870 1.531 . S
C867 C866 1.369 . S
C867 C868 1.410 . S
C867 C875 1.503 . S
C868 C867 1.410 . S
C868 C869 1.392 . S
C868 C871 1.511 . S
C869 C865 1.376 . S
C869 C868 1.392 . S
C869 H881 0.929 . S
C870 C866 1.531 . S
C870 H882 0.960 . S
C870 H883 0.962 . S
C870 H884 0.960 . S
C871 C868 1.511 . S
C871 H885 0.961 . S
C871 H886 0.961 . S
C871 H887 0.961 . S
C872 C873 1.370 . S
C872 C874 1.363 . S
C872 H888 0.931 . S
C873 C872 1.370 . S
C873 C877 1.408 . S
C874 C872 1.363 . S
C874 C875 1.370 . S
C874 C878 1.524 . S
C875 C867 1.503 . S
C875 C874 1.370 . S
C875 C876 1.403 . S
C876 C875 1.403 . S
C876 C877 1.404 . S
C876 C879 1.539 . S
C877 C873 1.408 . S
C877 C876 1.404 . S
C877 H889 0.930 . S
C878 C874 1.524 . S
C878 H890 0.956 . S
C878 H891 0.961 . S
C878 H892 0.961 . S
C879 C876 1.539 . S
C879 H893 0.958 . S
C879 H894 0.961 . S
C879 H895 0.960 . S
H880 C864 0.931 . S
H881 C869 0.929 . S
H882 C870 0.960 . S
H883 C870 0.962 . S
H884 C870 0.960 . S
H885 C871 0.961 . S
H886 C871 0.961 . S
H887 C871 0.961 . S
H888 C872 0.931 . S
H889 C877 0.930 . S
H890 C878 0.956 . S
H891 C878 0.961 . S
H892 C878 0.961 . S
H893 C879 0.958 . S
H894 C879 0.961 . S
H895 C879 0.960 . S
C896 C897 1.391 . S
C896 C898 1.394 . S
C896 H912 0.931 . S
C897 C896 1.391 . S
C897 C901 1.376 . S
C898 C896 1.394 . S
C898 C899 1.369 . S
C898 C902 1.531 . S
C899 C898 1.369 . S
C899 C900 1.410 . S
C899 C907 1.503 . S
C900 C899 1.410 . S
C900 C901 1.392 . S
C900 C903 1.511 . S
C901 C897 1.376 . S
C901 C900 1.392 . S
C901 H913 0.929 . S
C902 C898 1.531 . S
C902 H914 0.960 . S
C902 H915 0.962 . S
C902 H916 0.960 . S
C903 C900 1.511 . S
C903 H917 0.961 . S
C903 H918 0.961 . S
C903 H919 0.961 . S
C904 C905 1.370 . S
C904 C906 1.363 . S
C904 H920 0.931 . S
C905 C904 1.370 . S
C905 C909 1.408 . S
C906 C904 1.363 . S
C906 C907 1.370 . S
C906 C910 1.524 . S
C907 C899 1.503 . S
C907 C906 1.370 . S
C907 C908 1.403 . S
C908 C907 1.403 . S
C908 C909 1.404 . S
C908 C911 1.539 . S
C909 C905 1.408 . S
C909 C908 1.404 . S
C909 H921 0.930 . S
C910 C906 1.524 . S
C910 H922 0.956 . S
C910 H923 0.961 . S
C910 H924 0.961 . S
C911 C908 1.539 . S
C911 H925 0.958 . S
C911 H926 0.961 . S
C911 H927 0.960 . S
H912 C896 0.931 . S
H913 C901 0.929 . S
H914 C902 0.960 . S
H915 C902 0.962 . S
H916 C902 0.960 . S
H917 C903 0.961 . S
H918 C903 0.961 . S
H919 C903 0.961 . S
H920 C904 0.931 . S
H921 C909 0.930 . S
H922 C910 0.956 . S
H923 C910 0.961 . S
H924 C910 0.961 . S
H925 C911 0.958 . S
H926 C911 0.961 . S
H927 C911 0.960 . S
C928 C929 1.391 . S
C928 C930 1.394 . S
C928 H944 0.931 . S
C929 C928 1.391 . S
C929 C933 1.376 . S
C930 C928 1.394 . S
C930 C931 1.369 . S
C930 C934 1.531 . S
C931 C930 1.369 . S
C931 C932 1.410 . S
C931 C939 1.503 . S
C932 C931 1.410 . S
C932 C933 1.392 . S
C932 C935 1.511 . S
C933 C929 1.376 . S
C933 C932 1.392 . S
C933 H945 0.929 . S
C934 C930 1.531 . S
C934 H946 0.960 . S
C934 H947 0.962 . S
C934 H948 0.960 . S
C935 C932 1.511 . S
C935 H949 0.961 . S
C935 H950 0.961 . S
C935 H951 0.961 . S
C936 C937 1.370 . S
C936 C938 1.363 . S
C936 H952 0.931 . S
C937 C936 1.370 . S
C937 C941 1.408 . S
C938 C936 1.363 . S
C938 C939 1.370 . S
C938 C942 1.524 . S
C939 C931 1.503 . S
C939 C938 1.370 . S
C939 C940 1.403 . S
C940 C939 1.403 . S
C940 C941 1.404 . S
C940 C943 1.539 . S
C941 C937 1.408 . S
C941 C940 1.404 . S
C941 H953 0.930 . S
C942 C938 1.524 . S
C942 H954 0.956 . S
C942 H955 0.961 . S
C942 H956 0.961 . S
C943 C940 1.539 . S
C943 H957 0.958 . S
C943 H958 0.961 . S
C943 H959 0.960 . S
H944 C928 0.931 . S
H945 C933 0.929 . S
H946 C934 0.960 . S
H947 C934 0.962 . S
H948 C934 0.960 . S
H949 C935 0.961 . S
H950 C935 0.961 . S
H951 C935 0.961 . S
H952 C936 0.931 . S
H953 C941 0.930 . S
H954 C942 0.956 . S
H955 C942 0.961 . S
H956 C942 0.961 . S
H957 C943 0.958 . S
H958 C943 0.961 . S
H959 C943 0.960 . S
C960 C961 1.391 . S
C960 C962 1.394 . S
C960 H976 0.931 . S
C961 C960 1.391 . S
C961 C965 1.376 . S
C962 C960 1.394 . S
C962 C963 1.369 . S
C962 C966 1.531 . S
C963 C962 1.369 . S
C963 C964 1.410 . S
C963 C971 1.503 . S
C964 C963 1.410 . S
C964 C965 1.392 . S
C964 C967 1.511 . S
C965 C961 1.376 . S
C965 C964 1.392 . S
C965 H977 0.929 . S
C966 C962 1.531 . S
C966 H978 0.960 . S
C966 H979 0.962 . S
C966 H980 0.960 . S
C967 C964 1.511 . S
C967 H981 0.961 . S
C967 H982 0.961 . S
C967 H983 0.961 . S
C968 C969 1.370 . S
C968 C970 1.363 . S
C968 H984 0.931 . S
C969 C968 1.370 . S
C969 C973 1.408 . S
C970 C968 1.363 . S
C970 C971 1.370 . S
C970 C974 1.524 . S
C971 C963 1.503 . S
C971 C970 1.370 . S
C971 C972 1.403 . S
C972 C971 1.403 . S
C972 C973 1.404 . S
C972 C975 1.539 . S
C973 C969 1.408 . S
C973 C972 1.404 . S
C973 H985 0.930 . S
C974 C970 1.524 . S
C974 H986 0.956 . S
C974 H987 0.961 . S
C974 H988 0.961 . S
C975 C972 1.539 . S
C975 H989 0.958 . S
C975 H990 0.961 . S
C975 H991 0.960 . S
H976 C960 0.931 . S
H977 C965 0.929 . S
H978 C966 0.960 . S
H979 C966 0.962 . S
H980 C966 0.960 . S
H981 C967 0.961 . S
H982 C967 0.961 . S
H983 C967 0.961 . S
H984 C968 0.931 . S
H985 C973 0.930 . S
H986 C974 0.956 . S
H987 C974 0.961 . S
H988 C974 0.961 . S
H989 C975 0.958 . S
H990 C975 0.961 . S
H991 C975 0.960 . S
C992 C993 1.391 1_655 S
C992 C994 1.394 . S
C992 H1008 0.931 . S
C993 C992 1.391 1_455 S
C993 C997 1.376 . S
C994 C992 1.394 . S
C994 C995 1.369 1_655 S
C994 C998 1.531 . S
C995 C994 1.369 1_455 S
C995 C996 1.410 . S
C995 C1003 1.505 . S
C996 C995 1.410 . S
C996 C997 1.392 . S
C996 C999 1.511 . S
C997 C993 1.376 . S
C997 C996 1.392 . S
C997 H1009 0.929 . S
C998 C994 1.531 . S
C998 H1010 0.960 . S
C998 H1011 0.962 . S
C998 H1012 0.960 . S
C999 C996 1.511 . S
C999 H1013 0.961 . S
C999 H1014 0.961 . S
C999 H1015 0.961 . S
C1000 C1001 1.387 . S
C1000 C1002 1.363 . S
C1000 H1016 0.931 . S
C1001 C1000 1.387 . S
C1001 C1005 1.392 1_655 S
C1002 C1000 1.363 . S
C1002 C1003 1.357 1_655 S
C1002 C1006 1.524 . S
C1003 C995 1.505 . S
C1003 C1002 1.357 1_455 S
C1003 C1004 1.416 . S
C1004 C1003 1.416 . S
C1004 C1005 1.404 . S
C1004 C1007 1.539 . S
C1005 C1001 1.392 1_455 S
C1005 C1004 1.404 . S
C1005 H1017 0.930 . S
C1006 C1002 1.524 . S
C1006 H1018 0.956 . S
C1006 H1019 0.961 . S
C1006 H1020 0.961 . S
C1007 C1004 1.539 . S
C1007 H1021 0.958 . S
C1007 H1022 0.961 . S
C1007 H1023 0.960 . S
H1008 C992 0.931 . S
H1009 C997 0.929 . S
H1010 C998 0.960 . S
H1011 C998 0.962 . S
H1012 C998 0.960 . S
H1013 C999 0.961 . S
H1014 C999 0.961 . S
H1015 C999 0.961 . S
H1016 C1000 0.931 . S
H1017 C1005 0.930 . S
H1018 C1006 0.956 . S
H1019 C1006 0.961 . S
H1020 C1006 0.961 . S
H1021 C1007 0.958 . S
H1022 C1007 0.961 . S
H1023 C1007 0.960 . S
C1024 C1025 1.391 . S
C1024 C1026 1.394 . S
C1024 H1040 0.931 . S
C1025 C1024 1.391 . S
C1025 C1029 1.376 . S
C1026 C1024 1.394 . S
C1026 C1027 1.369 . S
C1026 C1030 1.531 . S
C1027 C1026 1.369 . S
C1027 C1028 1.410 . S
C1027 C1035 1.503 . S
C1028 C1027 1.410 . S
C1028 C1029 1.392 . S
C1028 C1031 1.511 . S
C1029 C1025 1.376 . S
C1029 C1028 1.392 . S
C1029 H1041 0.929 . S
C1030 C1026 1.531 . S
C1030 H1042 0.960 . S
C1030 H1043 0.962 . S
C1030 H1044 0.960 . S
C1031 C1028 1.511 . S
C1031 H1045 0.961 . S
C1031 H1046 0.961 . S
C1031 H1047 0.961 . S
C1032 C1033 1.370 . S
C1032 C1034 1.363 1_556 S
C1032 H1048 0.931 . S
C1033 C1032 1.370 . S
C1033 C1037 1.408 . S
C1034 C1032 1.363 1_554 S
C1034 C1035 1.370 . S
C1034 C1038 1.524 . S
C1035 C1027 1.503 . S
C1035 C1034 1.370 . S
C1035 C1036 1.403 . S
C1036 C1035 1.403 . S
C1036 C1037 1.404 1_554 S
C1036 C1039 1.539 . S
C1037 C1033 1.408 . S
C1037 C1036 1.404 1_556 S
C1037 H1049 0.930 . S
C1038 C1034 1.524 . S
C1038 H1050 0.956 . S
C1038 H1051 0.961 . S
C1038 H1052 0.961 . S
C1039 C1036 1.539 . S
C1039 H1053 0.958 . S
C1039 H1054 0.961 . S
C1039 H1055 0.960 . S
H1040 C1024 0.931 . S
H1041 C1029 0.929 . S
H1042 C1030 0.960 . S
H1043 C1030 0.962 . S
H1044 C1030 0.960 . S
H1045 C1031 0.961 . S
H1046 C1031 0.961 . S
H1047 C1031 0.961 . S
H1048 C1032 0.931 . S
H1049 C1037 0.930 . S
H1050 C1038 0.956 . S
H1051 C1038 0.961 . S
H1052 C1038 0.961 . S
H1053 C1039 0.958 . S
H1054 C1039 0.961 . S
H1055 C1039 0.960 . S
C1056 C1057 1.391 . S
C1056 C1058 1.394 . S
C1056 H1072 0.931 . S
C1057 C1056 1.391 . S
C1057 C1061 1.376 . S
C1058 C1056 1.394 . S
C1058 C1059 1.369 . S
C1058 C1062 1.531 . S
C1059 C1058 1.369 . S
C1059 C1060 1.410 . S
C1059 C1067 1.503 . S
C1060 C1059 1.410 . S
C1060 C1061 1.392 . S
C1060 C1063 1.511 . S
C1061 C1057 1.376 . S
C1061 C1060 1.392 . S
C1061 H1073 0.929 . S
C1062 C1058 1.531 . S
C1062 H1074 0.960 . S
C1062 H1075 0.962 . S
C1062 H1076 0.960 . S
C1063 C1060 1.511 . S
C1063 H1077 0.961 . S
C1063 H1078 0.961 . S
C1063 H1079 0.961 . S
C1064 C1065 1.370 . S
C1064 C1066 1.363 . S
C1064 H1080 0.931 . S
C1065 C1064 1.370 . S
C1065 C1069 1.408 . S
C1066 C1064 1.363 . S
C1066 C1067 1.370 . S
C1066 C1070 1.524 . S
C1067 C1059 1.503 . S
C1067 C1066 1.370 . S
C1067 C1068 1.403 . S
C1068 C1067 1.403 . S
C1068 C1069 1.404 . S
C1068 C1071 1.539 . S
C1069 C1065 1.408 . S
C1069 C1068 1.404 . S
C1069 H1081 0.930 . S
C1070 C1066 1.524 . S
C1070 H1082 0.956 . S
C1070 H1083 0.961 . S
C1070 H1084 0.961 . S
C1071 C1068 1.539 . S
C1071 H1085 0.958 . S
C1071 H1086 0.961 . S
C1071 H1087 0.960 . S
H1072 C1056 0.931 . S
H1073 C1061 0.929 . S
H1074 C1062 0.960 . S
H1075 C1062 0.962 . S
H1076 C1062 0.960 . S
H1077 C1063 0.961 . S
H1078 C1063 0.961 . S
H1079 C1063 0.961 . S
H1080 C1064 0.931 . S
H1081 C1069 0.930 . S
H1082 C1070 0.956 . S
H1083 C1070 0.961 . S
H1084 C1070 0.961 . S
H1085 C1071 0.958 . S
H1086 C1071 0.961 . S
H1087 C1071 0.960 . S
C1088 C1089 1.391 . S
C1088 C1090 1.394 . S
C1088 H1104 0.931 . S
C1089 C1088 1.391 . S
C1089 C1093 1.376 . S
C1090 C1088 1.394 . S
C1090 C1091 1.369 . S
C1090 C1094 1.531 . S
C1091 C1090 1.369 . S
C1091 C1092 1.410 . S
C1091 C1099 1.503 . S
C1092 C1091 1.410 . S
C1092 C1093 1.392 . S
C1092 C1095 1.511 . S
C1093 C1089 1.376 . S
C1093 C1092 1.392 . S
C1093 H1105 0.929 . S
C1094 C1090 1.531 . S
C1094 H1106 0.960 . S
C1094 H1107 0.962 . S
C1094 H1108 0.960 . S
C1095 C1092 1.511 . S
C1095 H1109 0.961 . S
C1095 H1110 0.961 . S
C1095 H1111 0.961 . S
C1096 C1097 1.370 . S
C1096 C1098 1.363 . S
C1096 H1112 0.931 . S
C1097 C1096 1.370 . S
C1097 C1101 1.408 . S
C1098 C1096 1.363 . S
C1098 C1099 1.370 . S
C1098 C1102 1.524 . S
C1099 C1091 1.503 . S
C1099 C1098 1.370 . S
C1099 C1100 1.403 . S
C1100 C1099 1.403 . S
C1100 C1101 1.404 . S
C1100 C1103 1.539 . S
C1101 C1097 1.408 . S
C1101 C1100 1.404 . S
C1101 H1113 0.930 . S
C1102 C1098 1.524 . S
C1102 H1114 0.956 . S
C1102 H1115 0.961 . S
C1102 H1116 0.961 . S
C1103 C1100 1.539 . S
C1103 H1117 0.958 . S
C1103 H1118 0.961 . S
C1103 H1119 0.960 . S
H1104 C1088 0.931 . S
H1105 C1093 0.929 . S
H1106 C1094 0.960 . S
H1107 C1094 0.962 . S
H1108 C1094 0.960 . S
H1109 C1095 0.961 . S
H1110 C1095 0.961 . S
H1111 C1095 0.961 . S
H1112 C1096 0.931 . S
H1113 C1101 0.930 . S
H1114 C1102 0.956 . S
H1115 C1102 0.961 . S
H1116 C1102 0.961 . S
H1117 C1103 0.958 . S
H1118 C1103 0.961 . S
H1119 C1103 0.960 . S
C1120 C1121 1.386 1_455 S
C1120 C1122 1.394 . S
C1120 H1136 0.931 . S
C1121 C1120 1.386 1_655 S
C1121 C1125 1.382 . S
C1122 C1120 1.394 . S
C1122 C1123 1.369 1_455 S
C1122 C1126 1.531 . S
C1123 C1122 1.369 1_655 S
C1123 C1124 1.410 . S
C1123 C1131 1.503 . S
C1124 C1123 1.410 . S
C1124 C1125 1.392 . S
C1124 C1127 1.511 . S
C1125 C1121 1.382 . S
C1125 C1124 1.392 . S
C1125 H1137 0.929 . S
C1126 C1122 1.531 . S
C1126 H1138 0.960 . S
C1126 H1139 0.962 . S
C1126 H1140 0.960 . S
C1127 C1124 1.511 . S
C1127 H1141 0.961 . S
C1127 H1142 0.961 . S
C1127 H1143 0.961 . S
C1128 C1129 1.370 1_455 S
C1128 C1130 1.363 . S
C1128 H1144 0.931 . S
C1129 C1128 1.370 1_655 S
C1129 C1133 1.408 . S
C1130 C1128 1.363 . S
C1130 C1131 1.370 1_455 S
C1130 C1134 1.524 . S
C1131 C1123 1.503 . S
C1131 C1130 1.370 1_655 S
C1131 C1132 1.403 . S
C1132 C1131 1.403 . S
C1132 C1133 1.404 . S
C1132 C1135 1.539 . S
C1133 C1129 1.408 . S
C1133 C1132 1.404 . S
C1133 H1145 0.930 . S
C1134 C1130 1.524 . S
C1134 H1146 0.956 . S
C1134 H1147 0.961 . S
C1134 H1148 0.961 . S
C1135 C1132 1.539 . S
C1135 H1149 0.958 . S
C1135 H1150 0.961 . S
C1135 H1151 0.960 . S
H1136 C1120 0.931 . S
H1137 C1125 0.929 . S
H1138 C1126 0.960 . S
H1139 C1126 0.962 . S
H1140 C1126 0.960 . S
H1141 C1127 0.961 . S
H1142 C1127 0.961 . S
H1143 C1127 0.961 . S
H1144 C1128 0.931 . S
H1145 C1133 0.930 . S
H1146 C1134 0.956 . S
H1147 C1134 0.961 . S
H1148 C1134 0.961 . S
H1149 C1135 0.958 . S
H1150 C1135 0.961 . S
H1151 C1135 0.960 . S
C1152 C1153 1.391 . S
C1152 C1154 1.394 1_554 S
C1152 H1168 0.931 . S
C1153 C1152 1.391 . S
C1153 C1157 1.376 . S
C1154 C1152 1.394 1_556 S
C1154 C1155 1.369 . S
C1154 C1158 1.531 . S
C1155 C1154 1.369 . S
C1155 C1156 1.410 . S
C1155 C1163 1.503 . S
C1156 C1155 1.410 . S
C1156 C1157 1.392 1_556 S
C1156 C1159 1.511 . S
C1157 C1153 1.376 . S
C1157 C1156 1.392 1_554 S
C1157 H1169 0.929 . S
C1158 C1154 1.531 . S
C1158 H1170 0.960 . S
C1158 H1171 0.962 . S
C1158 H1172 0.960 . S
C1159 C1156 1.511 . S
C1159 H1173 0.961 . S
C1159 H1174 0.961 . S
C1159 H1175 0.961 . S
C1160 C1161 1.370 . S
C1160 C1162 1.363 . S
C1160 H1176 0.931 . S
C1161 C1160 1.370 . S
C1161 C1165 1.408 . S
C1162 C1160 1.363 . S
C1162 C1163 1.370 . S
C1162 C1166 1.524 . S
C1163 C1155 1.503 . S
C1163 C1162 1.370 . S
C1163 C1164 1.403 . S
C1164 C1163 1.403 . S
C1164 C1165 1.404 . S
C1164 C1167 1.539 . S
C1165 C1161 1.408 . S
C1165 C1164 1.404 . S
C1165 H1177 0.930 . S
C1166 C1162 1.524 . S
C1166 H1178 0.956 . S
C1166 H1179 0.961 . S
C1166 H1180 0.961 . S
C1167 C1164 1.539 . S
C1167 H1181 0.958 . S
C1167 H1182 0.961 . S
C1167 H1183 0.960 . S
H1168 C1152 0.931 . S
H1169 C1157 0.929 . S
H1170 C1158 0.960 . S
H1171 C1158 0.962 . S
H1172 C1158 0.960 . S
H1173 C1159 0.961 . S
H1174 C1159 0.961 . S
H1175 C1159 0.961 . S
H1176 C1160 0.931 . S
H1177 C1165 0.930 . S
H1178 C1166 0.956 . S
H1179 C1166 0.961 . S
H1180 C1166 0.961 . S
H1181 C1167 0.958 . S
H1182 C1167 0.961 . S
H1183 C1167 0.960 . S
C1184 C1185 1.391 . S
C1184 C1186 1.394 . S
C1184 H1200 0.931 . S
C1185 C1184 1.391 . S
C1185 C1189 1.376 . S
C1186 C1184 1.394 . S
C1186 C1187 1.369 . S
C1186 C1190 1.531 . S
C1187 C1186 1.369 . S
C1187 C1188 1.410 . S
C1187 C1195 1.503 . S
C1188 C1187 1.410 . S
C1188 C1189 1.392 . S
C1188 C1191 1.511 . S
C1189 C1185 1.376 . S
C1189 C1188 1.392 . S
C1189 H1201 0.929 . S
C1190 C1186 1.531 . S
C1190 H1202 0.960 . S
C1190 H1203 0.962 . S
C1190 H1204 0.960 . S
C1191 C1188 1.511 . S
C1191 H1205 0.961 . S
C1191 H1206 0.961 . S
C1191 H1207 0.961 . S
C1192 C1193 1.370 . S
C1192 C1194 1.363 . S
C1192 H1208 0.931 . S
C1193 C1192 1.370 . S
C1193 C1197 1.408 . S
C1194 C1192 1.363 . S
C1194 C1195 1.370 . S
C1194 C1198 1.524 . S
C1195 C1187 1.503 . S
C1195 C1194 1.370 . S
C1195 C1196 1.403 . S
C1196 C1195 1.403 . S
C1196 C1197 1.404 . S
C1196 C1199 1.539 . S
C1197 C1193 1.408 . S
C1197 C1196 1.404 . S
C1197 H1209 0.930 . S
C1198 C1194 1.524 . S
C1198 H1210 0.956 . S
C1198 H1211 0.961 . S
C1198 H1212 0.961 . S
C1199 C1196 1.539 . S
C1199 H1213 0.958 . S
C1199 H1214 0.961 . S
C1199 H1215 0.960 . S
H1200 C1184 0.931 . S
H1201 C1189 0.929 . S
H1202 C1190 0.960 . S
H1203 C1190 0.962 . S
H1204 C1190 0.960 . S
H1205 C1191 0.961 . S
H1206 C1191 0.961 . S
H1207 C1191 0.961 . S
H1208 C1192 0.931 . S
H1209 C1197 0.930 . S
H1210 C1198 0.956 . S
H1211 C1198 0.961 . S
H1212 C1198 0.961 . S
H1213 C1199 0.958 . S
H1214 C1199 0.961 . S
H1215 C1199 0.960 . S
C1216 C1217 1.391 . S
C1216 C1218 1.394 . S
C1216 H1232 0.931 . S
C1217 C1216 1.391 . S
C1217 C1221 1.376 . S
C1218 C1216 1.394 . S
C1218 C1219 1.369 . S
C1218 C1222 1.531 . S
C1219 C1218 1.369 . S
C1219 C1220 1.410 . S
C1219 C1227 1.503 . S
C1220 C1219 1.410 . S
C1220 C1221 1.392 . S
C1220 C1223 1.511 . S
C1221 C1217 1.376 . S
C1221 C1220 1.392 . S
C1221 H1233 0.929 . S
C1222 C1218 1.531 . S
C1222 H1234 0.960 . S
C1222 H1235 0.962 . S
C1222 H1236 0.960 . S
C1223 C1220 1.511 . S
C1223 H1237 0.961 . S
C1223 H1238 0.961 . S
C1223 H1239 0.961 . S
C1224 C1225 1.370 . S
C1224 C1226 1.363 . S
C1224 H1240 0.931 . S
C1225 C1224 1.370 . S
C1225 C1229 1.408 . S
C1226 C1224 1.363 . S
C1226 C1227 1.370 . S
C1226 C1230 1.524 . S
C1227 C1219 1.503 . S
C1227 C1226 1.370 . S
C1227 C1228 1.403 . S
C1228 C1227 1.403 . S
C1228 C1229 1.404 . S
C1228 C1231 1.539 . S
C1229 C1225 1.408 . S
C1229 C1228 1.404 . S
C1229 H1241 0.930 . S
C1230 C1226 1.524 . S
C1230 H1242 0.956 . S
C1230 H1243 0.961 . S
C1230 H1244 0.961 . S
C1231 C1228 1.539 . S
C1231 H1245 0.958 . S
C1231 H1246 0.961 . S
C1231 H1247 0.960 . S
H1232 C1216 0.931 . S
H1233 C1221 0.929 . S
H1234 C1222 0.960 . S
H1235 C1222 0.962 . S
H1236 C1222 0.960 . S
H1237 C1223 0.961 . S
H1238 C1223 0.961 . S
H1239 C1223 0.961 . S
H1240 C1224 0.931 . S
H1241 C1229 0.930 . S
H1242 C1230 0.956 . S
H1243 C1230 0.961 . S
H1244 C1230 0.961 . S
H1245 C1231 0.958 . S
H1246 C1231 0.961 . S
H1247 C1231 0.960 . S
C1248 C1249 1.401 . S
C1248 C1250 1.394 . S
C1248 H1264 0.931 . S
C1249 C1248 1.401 . S
C1249 C1253 1.365 1_455 S
C1250 C1248 1.394 . S
C1250 C1251 1.369 1_455 S
C1250 C1254 1.531 . S
C1251 C1250 1.369 1_655 S
C1251 C1252 1.410 . S
C1251 C1259 1.503 . S
C1252 C1251 1.410 . S
C1252 C1253 1.392 . S
C1252 C1255 1.511 . S
C1253 C1249 1.365 1_655 S
C1253 C1252 1.392 . S
C1253 H1265 0.929 . S
C1254 C1250 1.531 . S
C1254 H1266 0.960 . S
C1254 H1267 0.962 . S
C1254 H1268 0.960 . S
C1255 C1252 1.511 . S
C1255 H1269 0.961 . S
C1255 H1270 0.961 . S
C1255 H1271 0.961 . S
C1256 C1257 1.370 1_455 S
C1256 C1258 1.363 . S
C1256 H1272 0.931 . S
C1257 C1256 1.370 1_655 S
C1257 C1261 1.408 . S
C1258 C1256 1.363 . S
C1258 C1259 1.370 1_455 S
C1258 C1262 1.524 . S
C1259 C1251 1.503 . S
C1259 C1258 1.370 1_655 S
C1259 C1260 1.403 . S
C1260 C1259 1.403 . S
C1260 C1261 1.404 . S
C1260 C1263 1.539 . S
C1261 C1257 1.408 . S
C1261 C1260 1.404 . S
C1261 H1273 0.930 . S
C1262 C1258 1.524 . S
C1262 H1274 0.956 . S
C1262 H1275 0.961 . S
C1262 H1276 0.961 . S
C1263 C1260 1.539 . S
C1263 H1277 0.958 . S
C1263 H1278 0.961 . S
C1263 H1279 0.960 . S
H1264 C1248 0.931 . S
H1265 C1253 0.929 . S
H1266 C1254 0.960 . S
H1267 C1254 0.962 . S
H1268 C1254 0.960 . S
H1269 C1255 0.961 . S
H1270 C1255 0.961 . S
H1271 C1255 0.961 . S
H1272 C1256 0.931 . S
H1273 C1261 0.930 . S
H1274 C1262 0.956 . S
H1275 C1262 0.961 . S
H1276 C1262 0.961 . S
H1277 C1263 0.958 . S
H1278 C1263 0.961 . S
H1279 C1263 0.960 . S
C1280 C1281 1.391 . S
C1280 C1282 1.394 . S
C1280 H1296 0.931 . S
C1281 C1280 1.391 . S
C1281 C1285 1.376 . S
C1282 C1280 1.394 . S
C1282 C1283 1.369 . S
C1282 C1286 1.531 . S
C1283 C1282 1.369 . S
C1283 C1284 1.410 . S
C1283 C1291 1.503 . S
C1284 C1283 1.410 . S
C1284 C1285 1.392 . S
C1284 C1287 1.511 . S
C1285 C1281 1.376 . S
C1285 C1284 1.392 . S
C1285 H1297 0.929 . S
C1286 C1282 1.531 . S
C1286 H1298 0.960 . S
C1286 H1299 0.962 . S
C1286 H1300 0.960 . S
C1287 C1284 1.511 . S
C1287 H1301 0.961 . S
C1287 H1302 0.961 . S
C1287 H1303 0.961 . S
C1288 C1289 1.370 . S
C1288 C1290 1.363 1_554 S
C1288 H1304 0.931 . S
C1289 C1288 1.370 . S
C1289 C1293 1.408 . S
C1290 C1288 1.363 1_556 S
C1290 C1291 1.370 . S
C1290 C1294 1.524 . S
C1291 C1283 1.503 . S
C1291 C1290 1.370 . S
C1291 C1292 1.403 . S
C1292 C1291 1.403 . S
C1292 C1293 1.404 1_556 S
C1292 C1295 1.539 . S
C1293 C1289 1.408 . S
C1293 C1292 1.404 1_554 S
C1293 H1305 0.930 . S
C1294 C1290 1.524 . S
C1294 H1306 0.956 . S
C1294 H1307 0.961 . S
C1294 H1308 0.961 . S
C1295 C1292 1.539 . S
C1295 H1309 0.958 . S
C1295 H1310 0.961 . S
C1295 H1311 0.960 . S
H1296 C1280 0.931 . S
H1297 C1285 0.929 . S
H1298 C1286 0.960 . S
H1299 C1286 0.962 . S
H1300 C1286 0.960 . S
H1301 C1287 0.961 . S
H1302 C1287 0.961 . S
H1303 C1287 0.961 . S
H1304 C1288 0.931 . S
H1305 C1293 0.930 . S
H1306 C1294 0.956 . S
H1307 C1294 0.961 . S
H1308 C1294 0.961 . S
H1309 C1295 0.958 . S
H1310 C1295 0.961 . S
H1311 C1295 0.960 . S
C1312 C1313 1.391 . S
C1312 C1314 1.394 . S
C1312 H1328 0.931 . S
C1313 C1312 1.391 . S
C1313 C1317 1.376 . S
C1314 C1312 1.394 . S
C1314 C1315 1.369 . S
C1314 C1318 1.531 . S
C1315 C1314 1.369 . S
C1315 C1316 1.410 . S
C1315 C1323 1.503 . S
C1316 C1315 1.410 . S
C1316 C1317 1.392 . S
C1316 C1319 1.511 . S
C1317 C1313 1.376 . S
C1317 C1316 1.392 . S
C1317 H1329 0.929 . S
C1318 C1314 1.531 . S
C1318 H1330 0.960 . S
C1318 H1331 0.962 . S
C1318 H1332 0.960 . S
C1319 C1316 1.511 . S
C1319 H1333 0.961 . S
C1319 H1334 0.961 . S
C1319 H1335 0.961 . S
C1320 C1321 1.370 . S
C1320 C1322 1.363 . S
C1320 H1336 0.931 . S
C1321 C1320 1.370 . S
C1321 C1325 1.408 . S
C1322 C1320 1.363 . S
C1322 C1323 1.370 . S
C1322 C1326 1.524 . S
C1323 C1315 1.503 . S
C1323 C1322 1.370 . S
C1323 C1324 1.403 . S
C1324 C1323 1.403 . S
C1324 C1325 1.404 . S
C1324 C1327 1.539 . S
C1325 C1321 1.408 . S
C1325 C1324 1.404 . S
C1325 H1337 0.930 . S
C1326 C1322 1.524 . S
C1326 H1338 0.956 . S
C1326 H1339 0.961 . S
C1326 H1340 0.961 . S
C1327 C1324 1.539 . S
C1327 H1341 0.958 . S
C1327 H1342 0.961 . S
C1327 H1343 0.960 . S
H1328 C1312 0.931 . S
H1329 C1317 0.929 . S
H1330 C1318 0.960 . S
H1331 C1318 0.962 . S
H1332 C1318 0.960 . S
H1333 C1319 0.961 . S
H1334 C1319 0.961 . S
H1335 C1319 0.961 . S
H1336 C1320 0.931 . S
H1337 C1325 0.930 . S
H1338 C1326 0.956 . S
H1339 C1326 0.961 . S
H1340 C1326 0.961 . S
H1341 C1327 0.958 . S
H1342 C1327 0.961 . S
H1343 C1327 0.960 . S
C1344 C1345 1.391 . S
C1344 C1346 1.394 . S
C1344 H1360 0.931 . S
C1345 C1344 1.391 . S
C1345 C1349 1.376 . S
C1346 C1344 1.394 . S
C1346 C1347 1.369 . S
C1346 C1350 1.531 . S
C1347 C1346 1.369 . S
C1347 C1348 1.410 . S
C1347 C1355 1.503 . S
C1348 C1347 1.410 . S
C1348 C1349 1.392 . S
C1348 C1351 1.511 . S
C1349 C1345 1.376 . S
C1349 C1348 1.392 . S
C1349 H1361 0.929 . S
C1350 C1346 1.531 . S
C1350 H1362 0.960 . S
C1350 H1363 0.962 . S
C1350 H1364 0.960 . S
C1351 C1348 1.511 . S
C1351 H1365 0.961 . S
C1351 H1366 0.961 . S
C1351 H1367 0.961 . S
C1352 C1353 1.370 . S
C1352 C1354 1.363 . S
C1352 H1368 0.931 . S
C1353 C1352 1.370 . S
C1353 C1357 1.408 . S
C1354 C1352 1.363 . S
C1354 C1355 1.370 . S
C1354 C1358 1.524 . S
C1355 C1347 1.503 . S
C1355 C1354 1.370 . S
C1355 C1356 1.403 . S
C1356 C1355 1.403 . S
C1356 C1357 1.404 . S
C1356 C1359 1.539 . S
C1357 C1353 1.408 . S
C1357 C1356 1.404 . S
C1357 H1369 0.930 . S
C1358 C1354 1.524 . S
C1358 H1370 0.956 . S
C1358 H1371 0.961 . S
C1358 H1372 0.961 . S
C1359 C1356 1.539 . S
C1359 H1373 0.958 . S
C1359 H1374 0.961 . S
C1359 H1375 0.960 . S
H1360 C1344 0.931 . S
H1361 C1349 0.929 . S
H1362 C1350 0.960 . S
H1363 C1350 0.962 . S
H1364 C1350 0.960 . S
H1365 C1351 0.961 . S
H1366 C1351 0.961 . S
H1367 C1351 0.961 . S
H1368 C1352 0.931 . S
H1369 C1357 0.930 . S
H1370 C1358 0.956 . S
H1371 C1358 0.961 . S
H1372 C1358 0.961 . S
H1373 C1359 0.958 . S
H1374 C1359 0.961 . S
H1375 C1359 0.960 . S
C1376 C1377 1.385 1_655 S
C1376 C1378 1.394 . S
C1376 H1392 0.931 . S
C1377 C1376 1.385 1_455 S
C1377 C1381 1.382 . S
C1378 C1376 1.394 . S
C1378 C1379 1.369 1_655 S
C1378 C1382 1.531 . S
C1379 C1378 1.369 1_455 S
C1379 C1380 1.410 . S
C1379 C1387 1.503 . S
C1380 C1379 1.410 . S
C1380 C1381 1.392 . S
C1380 C1383 1.511 . S
C1381 C1377 1.382 . S
C1381 C1380 1.392 . S
C1381 H1393 0.929 . S
C1382 C1378 1.531 . S
C1382 H1394 0.960 . S
C1382 H1395 0.962 . S
C1382 H1396 0.960 . S
C1383 C1380 1.511 . S
C1383 H1397 0.961 . S
C1383 H1398 0.961 . S
C1383 H1399 0.961 . S
C1384 C1385 1.370 1_655 S
C1384 C1386 1.363 . S
C1384 H1400 0.931 . S
C1385 C1384 1.370 1_455 S
C1385 C1389 1.408 . S
C1386 C1384 1.363 . S
C1386 C1387 1.370 1_655 S
C1386 C1390 1.524 . S
C1387 C1379 1.503 . S
C1387 C1386 1.370 1_455 S
C1387 C1388 1.403 . S
C1388 C1387 1.403 . S
C1388 C1389 1.404 . S
C1388 C1391 1.539 . S
C1389 C1385 1.408 . S
C1389 C1388 1.404 . S
C1389 H1401 0.930 . S
C1390 C1386 1.524 . S
C1390 H1402 0.956 . S
C1390 H1403 0.961 . S
C1390 H1404 0.961 . S
C1391 C1388 1.539 . S
C1391 H1405 0.958 . S
C1391 H1406 0.961 . S
C1391 H1407 0.960 . S
H1392 C1376 0.931 . S
H1393 C1381 0.929 . S
H1394 C1382 0.960 . S
H1395 C1382 0.962 . S
H1396 C1382 0.960 . S
H1397 C1383 0.961 . S
H1398 C1383 0.961 . S
H1399 C1383 0.961 . S
H1400 C1384 0.931 . S
H1401 C1389 0.930 . S
H1402 C1390 0.956 . S
H1403 C1390 0.961 . S
H1404 C1390 0.961 . S
H1405 C1391 0.958 . S
H1406 C1391 0.961 . S
H1407 C1391 0.960 . S
C1408 C1409 1.391 . S
C1408 C1410 1.394 . S
C1408 H1424 0.931 . S
C1409 C1408 1.391 . S
C1409 C1413 1.376 . S
C1410 C1408 1.394 . S
C1410 C1411 1.369 . S
C1410 C1414 1.531 . S
C1411 C1410 1.369 . S
C1411 C1412 1.410 . S
C1411 C1419 1.503 . S
C1412 C1411 1.410 . S
C1412 C1413 1.392 . S
C1412 C1415 1.511 . S
C1413 C1409 1.376 . S
C1413 C1412 1.392 . S
C1413 H1425 0.929 . S
C1414 C1410 1.531 . S
C1414 H1426 0.960 . S
C1414 H1427 0.962 . S
C1414 H1428 0.960 . S
C1415 C1412 1.511 . S
C1415 H1429 0.961 . S
C1415 H1430 0.961 . S
C1415 H1431 0.961 . S
C1416 C1417 1.370 . S
C1416 C1418 1.363 1_556 S
C1416 H1432 0.931 . S
C1417 C1416 1.370 . S
C1417 C1421 1.408 . S
C1418 C1416 1.363 1_554 S
C1418 C1419 1.370 . S
C1418 C1422 1.524 . S
C1419 C1411 1.503 . S
C1419 C1418 1.370 . S
C1419 C1420 1.403 . S
C1420 C1419 1.403 . S
C1420 C1421 1.404 1_554 S
C1420 C1423 1.539 . S
C1421 C1417 1.408 . S
C1421 C1420 1.404 1_556 S
C1421 H1433 0.930 . S
C1422 C1418 1.524 . S
C1422 H1434 0.956 . S
C1422 H1435 0.961 . S
C1422 H1436 0.961 . S
C1423 C1420 1.539 . S
C1423 H1437 0.958 . S
C1423 H1438 0.961 . S
C1423 H1439 0.960 . S
H1424 C1408 0.931 . S
H1425 C1413 0.929 . S
H1426 C1414 0.960 . S
H1427 C1414 0.962 . S
H1428 C1414 0.960 . S
H1429 C1415 0.961 . S
H1430 C1415 0.961 . S
H1431 C1415 0.961 . S
H1432 C1416 0.931 . S
H1433 C1421 0.930 . S
H1434 C1422 0.956 . S
H1435 C1422 0.961 . S
H1436 C1422 0.961 . S
H1437 C1423 0.958 . S
H1438 C1423 0.961 . S
H1439 C1423 0.960 . S
C1440 C1441 1.391 . S
C1440 C1442 1.394 . S
C1440 H1456 0.931 . S
C1441 C1440 1.391 . S
C1441 C1445 1.376 1_455 S
C1442 C1440 1.394 . S
C1442 C1443 1.369 . S
C1442 C1446 1.531 1_554 S
C1443 C1442 1.369 . S
C1443 C1444 1.410 1_455 S
C1443 C1451 1.504 1_445 S
C1444 C1443 1.410 1_655 S
C1444 C1445 1.392 . S
C1444 C1447 1.511 . S
C1445 C1441 1.376 1_655 S
C1445 C1444 1.392 . S
C1445 H1457 0.929 . S
C1446 C1442 1.531 1_556 S
C1446 H1458 0.960 1_545 S
C1446 H1459 0.962 . S
C1446 H1460 0.960 . S
C1447 C1444 1.511 . S
C1447 H1461 0.961 . S
C1447 H1462 0.961 . S
C1447 H1463 0.961 . S
C1448 C1449 1.370 . S
C1448 C1450 1.363 . S
C1448 H1464 0.931 . S
C1449 C1448 1.370 . S
C1449 C1453 1.408 1_556 S
C1450 C1448 1.363 . S
C1450 C1451 1.367 1_556 S
C1450 C1454 1.524 1_565 S
C1451 C1443 1.504 1_665 S
C1451 C1450 1.367 1_554 S
C1451 C1452 1.399 1_655 S
C1452 C1451 1.399 1_455 S
C1452 C1453 1.391 1_455 S
C1452 C1455 1.556 . S
C1453 C1449 1.408 1_554 S
C1453 C1452 1.391 1_655 S
C1453 H1465 0.930 . S
C1454 C1450 1.524 1_545 S
C1454 H1466 0.913 1_655 S
C1454 H1467 0.961 . S
C1454 H1468 0.950 1_545 S
C1455 C1452 1.556 . S
C1455 H1469 0.958 . S
C1455 H1470 0.961 . S
C1455 H1471 0.960 . S
H1456 C1440 0.931 . S
H1457 C1445 0.929 . S
H1458 C1446 0.960 1_565 S
H1459 C1446 0.962 . S
H1460 C1446 0.960 . S
H1461 C1447 0.961 . S
H1462 C1447 0.961 . S
H1463 C1447 0.961 . S
H1464 C1448 0.931 . S
H1465 C1453 0.930 . S
H1466 C1454 0.913 1_455 S
H1467 C1454 0.961 . S
H1468 C1454 0.950 1_565 S
H1469 C1455 0.958 . S
H1470 C1455 0.961 . S
H1471 C1455 0.960 . S
C1472 C1473 1.391 . S
C1472 C1474 1.394 . S
C1472 H1488 0.931 . S
C1473 C1472 1.391 . S
C1473 C1477 1.376 . S
C1474 C1472 1.394 . S
C1474 C1475 1.369 . S
C1474 C1478 1.531 . S
C1475 C1474 1.369 . S
C1475 C1476 1.410 . S
C1475 C1483 1.503 . S
C1476 C1475 1.410 . S
C1476 C1477 1.392 . S
C1476 C1479 1.511 . S
C1477 C1473 1.376 . S
C1477 C1476 1.392 . S
C1477 H1489 0.929 . S
C1478 C1474 1.531 . S
C1478 H1490 0.960 . S
C1478 H1491 0.962 . S
C1478 H1492 0.960 . S
C1479 C1476 1.511 . S
C1479 H1493 0.961 . S
C1479 H1494 0.961 . S
C1479 H1495 0.961 . S
C1480 C1481 1.370 . S
C1480 C1482 1.363 . S
C1480 H1496 0.931 . S
C1481 C1480 1.370 . S
C1481 C1485 1.408 . S
C1482 C1480 1.363 . S
C1482 C1483 1.370 . S
C1482 C1486 1.524 . S
C1483 C1475 1.503 . S
C1483 C1482 1.370 . S
C1483 C1484 1.403 . S
C1484 C1483 1.403 . S
C1484 C1485 1.404 . S
C1484 C1487 1.539 . S
C1485 C1481 1.408 . S
C1485 C1484 1.404 . S
C1485 H1497 0.930 . S
C1486 C1482 1.524 . S
C1486 H1498 0.956 . S
C1486 H1499 0.961 . S
C1486 H1500 0.961 . S
C1487 C1484 1.539 . S
C1487 H1501 0.958 . S
C1487 H1502 0.961 . S
C1487 H1503 0.960 . S
H1488 C1472 0.931 . S
H1489 C1477 0.929 . S
H1490 C1478 0.960 . S
H1491 C1478 0.962 . S
H1492 C1478 0.960 . S
H1493 C1479 0.961 . S
H1494 C1479 0.961 . S
H1495 C1479 0.961 . S
H1496 C1480 0.931 . S
H1497 C1485 0.930 . S
H1498 C1486 0.956 . S
H1499 C1486 0.961 . S
H1500 C1486 0.961 . S
H1501 C1487 0.958 . S
H1502 C1487 0.961 . S
H1503 C1487 0.960 . S
C1504 C1505 1.391 . S
C1504 C1506 1.394 . S
C1504 H1520 0.931 . S
C1505 C1504 1.391 . S
C1505 C1509 1.376 . S
C1506 C1504 1.394 . S
C1506 C1507 1.369 . S
C1506 C1510 1.531 . S
C1507 C1506 1.369 . S
C1507 C1508 1.410 . S
C1507 C1515 1.503 1_545 S
C1508 C1507 1.410 . S
C1508 C1509 1.392 . S
C1508 C1511 1.511 . S
C1509 C1505 1.376 . S
C1509 C1508 1.392 . S
C1509 H1521 0.929 . S
C1510 C1506 1.531 . S
C1510 H1522 0.960 . S
C1510 H1523 0.962 . S
C1510 H1524 0.960 . S
C1511 C1508 1.511 . S
C1511 H1525 0.961 . S
C1511 H1526 0.961 1_545 S
C1511 H1527 0.961 . S
C1512 C1513 1.370 . S
C1512 C1514 1.363 . S
C1512 H1528 0.931 . S
C1513 C1512 1.370 . S
C1513 C1517 1.408 . S
C1514 C1512 1.363 . S
C1514 C1515 1.370 . S
C1514 C1518 1.524 . S
C1515 C1507 1.503 1_565 S
C1515 C1514 1.370 . S
C1515 C1516 1.403 . S
C1516 C1515 1.403 . S
C1516 C1517 1.404 . S
C1516 C1519 1.539 1_565 S
C1517 C1513 1.408 . S
C1517 C1516 1.404 . S
C1517 H1529 0.930 . S
C1518 C1514 1.524 . S
C1518 H1530 0.956 . S
C1518 H1531 0.961 . S
C1518 H1532 0.961 . S
C1519 C1516 1.539 1_545 S
C1519 H1533 0.958 . S
C1519 H1534 0.961 1_545 S
C1519 H1535 0.960 . S
H1520 C1504 0.931 . S
H1521 C1509 0.929 . S
H1522 C1510 0.960 . S
H1523 C1510 0.962 . S
H1524 C1510 0.960 . S
H1525 C1511 0.961 . S
H1526 C1511 0.961 1_565 S
H1527 C1511 0.961 . S
H1528 C1512 0.931 . S
H1529 C1517 0.930 . S
H1530 C1518 0.956 . S
H1531 C1518 0.961 . S
H1532 C1518 0.961 . S
H1533 C1519 0.958 . S
H1534 C1519 0.961 1_565 S
H1535 C1519 0.960 . S
C1536 C1537 1.391 . S
C1536 C1538 1.394 . S
C1536 H1552 0.931 . S
C1537 C1536 1.391 . S
C1537 C1541 1.376 . S
C1538 C1536 1.394 . S
C1538 C1539 1.369 . S
C1538 C1542 1.531 . S
C1539 C1538 1.369 . S
C1539 C1540 1.410 . S
C1539 C1547 1.503 . S
C1540 C1539 1.410 . S
C1540 C1541 1.392 . S
C1540 C1543 1.511 . S
C1541 C1537 1.376 . S
C1541 C1540 1.392 . S
C1541 H1553 0.929 . S
C1542 C1538 1.531 . S
C1542 H1554 0.960 . S
C1542 H1555 0.962 . S
C1542 H1556 0.960 . S
C1543 C1540 1.511 . S
C1543 H1557 0.961 . S
C1543 H1558 0.961 . S
C1543 H1559 0.961 . S
C1544 C1545 1.370 . S
C1544 C1546 1.363 . S
C1544 H1560 0.931 . S
C1545 C1544 1.370 . S
C1545 C1549 1.408 . S
C1546 C1544 1.363 . S
C1546 C1547 1.370 . S
C1546 C1550 1.524 . S
C1547 C1539 1.503 . S
C1547 C1546 1.370 . S
C1547 C1548 1.403 . S
C1548 C1547 1.403 . S
C1548 C1549 1.404 . S
C1548 C1551 1.539 . S
C1549 C1545 1.408 . S
C1549 C1548 1.404 . S
C1549 H1561 0.930 . S
C1550 C1546 1.524 . S
C1550 H1562 0.956 . S
C1550 H1563 0.961 . S
C1550 H1564 0.961 . S
C1551 C1548 1.539 . S
C1551 H1565 0.958 . S
C1551 H1566 0.961 . S
C1551 H1567 0.960 . S
H1552 C1536 0.931 . S
H1553 C1541 0.929 . S
H1554 C1542 0.960 . S
H1555 C1542 0.962 . S
H1556 C1542 0.960 . S
H1557 C1543 0.961 . S
H1558 C1543 0.961 . S
H1559 C1543 0.961 . S
H1560 C1544 0.931 . S
H1561 C1549 0.930 . S
H1562 C1550 0.956 . S
H1563 C1550 0.961 . S
H1564 C1550 0.961 . S
H1565 C1551 0.958 . S
H1566 C1551 0.961 . S
H1567 C1551 0.960 . S
C1568 C1569 1.391 1_655 S
C1568 C1570 1.394 . S
C1568 H1584 0.931 . S
C1569 C1568 1.391 1_455 S
C1569 C1573 1.376 . S
C1570 C1568 1.394 . S
C1570 C1571 1.369 1_655 S
C1570 C1574 1.531 . S
C1571 C1570 1.369 1_455 S
C1571 C1572 1.410 . S
C1571 C1579 1.503 1_465 S
C1572 C1571 1.410 . S
C1572 C1573 1.392 . S
C1572 C1575 1.512 . S
C1573 C1569 1.376 . S
C1573 C1572 1.392 . S
C1573 H1585 0.929 . S
C1574 C1570 1.531 . S
C1574 H1586 0.960 . S
C1574 H1587 0.962 . S
C1574 H1588 0.960 . S
C1575 C1572 1.512 . S
C1575 H1589 0.961 . S
C1575 H1590 0.960 1_565 S
C1575 H1591 0.961 . S
C1576 C1577 1.370 . S
C1576 C1578 1.363 . S
C1576 H1592 0.931 . S
C1577 C1576 1.370 . S
C1577 C1581 1.408 . S
C1578 C1576 1.363 . S
C1578 C1579 1.370 . S
C1578 C1582 1.524 . S
C1579 C1571 1.503 1_645 S
C1579 C1578 1.370 . S
C1579 C1580 1.407 . S
C1580 C1579 1.407 . S
C1580 C1581 1.421 . S
C1580 C1583 1.518 1_655 S
C1581 C1577 1.408 . S
C1581 C1580 1.421 . S
C1581 H1593 0.930 . S
C1582 C1578 1.524 . S
C1582 H1594 0.956 . S
C1582 H1595 0.961 1_655 S
C1582 H1596 0.961 . S
C1583 C1580 1.518 1_455 S
C1583 H1597 0.958 1_445 S
C1583 H1598 0.961 . S
C1583 H1599 0.960 1_545 S
H1584 C1568 0.931 . S
H1585 C1573 0.929 . S
H1586 C1574 0.960 . S
H1587 C1574 0.962 . S
H1588 C1574 0.960 . S
H1589 C1575 0.961 . S
H1590 C1575 0.960 1_545 S
H1591 C1575 0.961 . S
H1592 C1576 0.931 . S
H1593 C1581 0.930 . S
H1594 C1582 0.956 . S
H1595 C1582 0.961 1_455 S
H1596 C1582 0.961 . S
H1597 C1583 0.958 1_665 S
H1598 C1583 0.961 . S
H1599 C1583 0.960 1_565 S
C1600 C1601 1.391 . S
C1600 C1602 1.394 . S
C1600 H1616 0.931 . S
C1601 C1600 1.391 . S
C1601 C1605 1.376 . S
C1602 C1600 1.394 . S
C1602 C1603 1.369 . S
C1602 C1606 1.531 . S
C1603 C1602 1.369 . S
C1603 C1604 1.410 . S
C1603 C1611 1.503 . S
C1604 C1603 1.410 . S
C1604 C1605 1.392 . S
C1604 C1607 1.511 . S
C1605 C1601 1.376 . S
C1605 C1604 1.392 . S
C1605 H1617 0.929 . S
C1606 C1602 1.531 . S
C1606 H1618 0.960 . S
C1606 H1619 0.962 . S
C1606 H1620 0.960 . S
C1607 C1604 1.511 . S
C1607 H1621 0.961 . S
C1607 H1622 0.961 . S
C1607 H1623 0.961 . S
C1608 C1609 1.370 . S
C1608 C1610 1.363 . S
C1608 H1624 0.931 . S
C1609 C1608 1.370 . S
C1609 C1613 1.408 . S
C1610 C1608 1.363 . S
C1610 C1611 1.370 . S
C1610 C1614 1.524 . S
C1611 C1603 1.503 . S
C1611 C1610 1.370 . S
C1611 C1612 1.403 . S
C1612 C1611 1.403 . S
C1612 C1613 1.404 . S
C1612 C1615 1.539 . S
C1613 C1609 1.408 . S
C1613 C1612 1.404 . S
C1613 H1625 0.930 . S
C1614 C1610 1.524 . S
C1614 H1626 0.956 . S
C1614 H1627 0.961 . S
C1614 H1628 0.961 . S
C1615 C1612 1.539 . S
C1615 H1629 0.958 . S
C1615 H1630 0.961 . S
C1615 H1631 0.960 . S
H1616 C1600 0.931 . S
H1617 C1605 0.929 . S
H1618 C1606 0.960 . S
H1619 C1606 0.962 . S
H1620 C1606 0.960 . S
H1621 C1607 0.961 . S
H1622 C1607 0.961 . S
H1623 C1607 0.961 . S
H1624 C1608 0.931 . S
H1625 C1613 0.930 . S
H1626 C1614 0.956 . S
H1627 C1614 0.961 . S
H1628 C1614 0.961 . S
H1629 C1615 0.958 . S
H1630 C1615 0.961 . S
H1631 C1615 0.960 . S
C1632 C1633 1.391 . S
C1632 C1634 1.394 1_554 S
C1632 H1648 0.931 . S
C1633 C1632 1.391 . S
C1633 C1637 1.376 . S
C1634 C1632 1.394 1_556 S
C1634 C1635 1.369 . S
C1634 C1638 1.531 . S
C1635 C1634 1.369 . S
C1635 C1636 1.410 1_556 S
C1635 C1643 1.503 1_565 S
C1636 C1635 1.410 1_554 S
C1636 C1637 1.392 . S
C1636 C1639 1.511 . S
C1637 C1633 1.376 . S
C1637 C1636 1.392 . S
C1637 H1649 0.929 . S
C1638 C1634 1.531 . S
C1638 H1650 0.960 1_565 S
C1638 H1651 0.962 1_565 S
C1638 H1652 0.960 . S
C1639 C1636 1.511 . S
C1639 H1653 0.961 . S
C1639 H1654 0.961 . S
C1639 H1655 0.961 1_554 S
C1640 C1641 1.370 1_554 S
C1640 C1642 1.363 . S
C1640 H1656 0.931 . S
C1641 C1640 1.370 1_556 S
C1641 C1645 1.408 . S
C1642 C1640 1.363 . S
C1642 C1643 1.370 1_554 S
C1642 C1646 1.524 . S
C1643 C1635 1.503 1_545 S
C1643 C1642 1.370 1_556 S
C1643 C1644 1.403 . S
C1644 C1643 1.403 . S
C1644 C1645 1.404 . S
C1644 C1647 1.539 1_545 S
C1645 C1641 1.408 . S
C1645 C1644 1.404 . S
C1645 H1657 0.930 . S
C1646 C1642 1.524 . S
C1646 H1658 0.956 . S
C1646 H1659 0.961 . S
C1646 H1660 0.961 . S
C1647 C1644 1.539 1_565 S
C1647 H1661 0.958 . S
C1647 H1662 0.961 1_565 S
C1647 H1663 0.960 . S
H1648 C1632 0.931 . S
H1649 C1637 0.929 . S
H1650 C1638 0.960 1_545 S
H1651 C1638 0.962 1_545 S
H1652 C1638 0.960 . S
H1653 C1639 0.961 . S
H1654 C1639 0.961 . S
H1655 C1639 0.961 1_556 S
H1656 C1640 0.931 . S
H1657 C1645 0.930 . S
H1658 C1646 0.956 . S
H1659 C1646 0.961 . S
H1660 C1646 0.961 . S
H1661 C1647 0.958 . S
H1662 C1647 0.961 1_545 S
H1663 C1647 0.960 . S
C1664 C1665 1.391 . S
C1664 C1666 1.394 . S
C1664 H1680 0.931 . S
C1665 C1664 1.391 . S
C1665 C1669 1.376 . S
C1666 C1664 1.394 . S
C1666 C1667 1.369 . S
C1666 C1670 1.531 . S
C1667 C1666 1.369 . S
C1667 C1668 1.410 . S
C1667 C1675 1.503 . S
C1668 C1667 1.410 . S
C1668 C1669 1.392 . S
C1668 C1671 1.511 . S
C1669 C1665 1.376 . S
C1669 C1668 1.392 . S
C1669 H1681 0.929 . S
C1670 C1666 1.531 . S
C1670 H1682 0.960 . S
C1670 H1683 0.962 . S
C1670 H1684 0.960 . S
C1671 C1668 1.511 . S
C1671 H1685 0.961 . S
C1671 H1686 0.961 . S
C1671 H1687 0.961 . S
C1672 C1673 1.370 . S
C1672 C1674 1.363 . S
C1672 H1688 0.931 . S
C1673 C1672 1.370 . S
C1673 C1677 1.408 . S
C1674 C1672 1.363 . S
C1674 C1675 1.370 . S
C1674 C1678 1.524 . S
C1675 C1667 1.503 . S
C1675 C1674 1.370 . S
C1675 C1676 1.403 . S
C1676 C1675 1.403 . S
C1676 C1677 1.404 . S
C1676 C1679 1.539 . S
C1677 C1673 1.408 . S
C1677 C1676 1.404 . S
C1677 H1689 0.930 . S
C1678 C1674 1.524 . S
C1678 H1690 0.956 . S
C1678 H1691 0.961 . S
C1678 H1692 0.961 . S
C1679 C1676 1.539 . S
C1679 H1693 0.958 . S
C1679 H1694 0.961 . S
C1679 H1695 0.960 . S
H1680 C1664 0.931 . S
H1681 C1669 0.929 . S
H1682 C1670 0.960 . S
H1683 C1670 0.962 . S
H1684 C1670 0.960 . S
H1685 C1671 0.961 . S
H1686 C1671 0.961 . S
H1687 C1671 0.961 . S
H1688 C1672 0.931 . S
H1689 C1677 0.930 . S
H1690 C1678 0.956 . S
H1691 C1678 0.961 . S
H1692 C1678 0.961 . S
H1693 C1679 0.958 . S
H1694 C1679 0.961 . S
H1695 C1679 0.960 . S
C1696 C1697 1.391 . S
C1696 C1698 1.394 . S
C1696 H1712 0.931 . S
C1697 C1696 1.391 . S
C1697 C1701 1.376 . S
C1698 C1696 1.394 . S
C1698 C1699 1.369 . S
C1698 C1702 1.531 . S
C1699 C1698 1.369 . S
C1699 C1700 1.410 . S
C1699 C1707 1.503 . S
C1700 C1699 1.410 . S
C1700 C1701 1.392 . S
C1700 C1703 1.511 . S
C1701 C1697 1.376 . S
C1701 C1700 1.392 . S
C1701 H1713 0.929 . S
C1702 C1698 1.531 . S
C1702 H1714 0.960 . S
C1702 H1715 0.962 . S
C1702 H1716 0.960 . S
C1703 C1700 1.511 . S
C1703 H1717 0.961 . S
C1703 H1718 0.961 . S
C1703 H1719 0.961 . S
C1704 C1705 1.370 . S
C1704 C1706 1.363 . S
C1704 H1720 0.931 . S
C1705 C1704 1.370 . S
C1705 C1709 1.408 . S
C1706 C1704 1.363 . S
C1706 C1707 1.370 . S
C1706 C1710 1.524 . S
C1707 C1699 1.503 . S
C1707 C1706 1.370 . S
C1707 C1708 1.403 . S
C1708 C1707 1.403 . S
C1708 C1709 1.404 . S
C1708 C1711 1.539 . S
C1709 C1705 1.408 . S
C1709 C1708 1.404 . S
C1709 H1721 0.930 . S
C1710 C1706 1.524 . S
C1710 H1722 0.956 . S
C1710 H1723 0.961 . S
C1710 H1724 0.961 . S
C1711 C1708 1.539 . S
C1711 H1725 0.958 . S
C1711 H1726 0.961 . S
C1711 H1727 0.960 . S
H1712 C1696 0.931 . S
H1713 C1701 0.929 . S
H1714 C1702 0.960 . S
H1715 C1702 0.962 . S
H1716 C1702 0.960 . S
H1717 C1703 0.961 . S
H1718 C1703 0.961 . S
H1719 C1703 0.961 . S
H1720 C1704 0.931 . S
H1721 C1709 0.930 . S
H1722 C1710 0.956 . S
H1723 C1710 0.961 . S
H1724 C1710 0.961 . S
H1725 C1711 0.958 . S
H1726 C1711 0.961 . S
H1727 C1711 0.960 . S
C1728 C1729 1.391 . S
C1728 C1730 1.394 . S
C1728 H1744 0.931 . S
C1729 C1728 1.391 . S
C1729 C1733 1.376 . S
C1730 C1728 1.394 . S
C1730 C1731 1.369 . S
C1730 C1734 1.531 . S
C1731 C1730 1.369 . S
C1731 C1732 1.410 . S
C1731 C1739 1.503 . S
C1732 C1731 1.410 . S
C1732 C1733 1.392 . S
C1732 C1735 1.511 . S
C1733 C1729 1.376 . S
C1733 C1732 1.392 . S
C1733 H1745 0.929 . S
C1734 C1730 1.531 . S
C1734 H1746 0.960 . S
C1734 H1747 0.962 . S
C1734 H1748 0.960 . S
C1735 C1732 1.511 . S
C1735 H1749 0.961 . S
C1735 H1750 0.961 . S
C1735 H1751 0.961 . S
C1736 C1737 1.370 . S
C1736 C1738 1.363 . S
C1736 H1752 0.931 . S
C1737 C1736 1.370 . S
C1737 C1741 1.408 . S
C1738 C1736 1.363 . S
C1738 C1739 1.370 . S
C1738 C1742 1.524 . S
C1739 C1731 1.503 . S
C1739 C1738 1.370 . S
C1739 C1740 1.403 . S
C1740 C1739 1.403 . S
C1740 C1741 1.404 . S
C1740 C1743 1.539 . S
C1741 C1737 1.408 . S
C1741 C1740 1.404 . S
C1741 H1753 0.930 . S
C1742 C1738 1.524 . S
C1742 H1754 0.956 . S
C1742 H1755 0.961 . S
C1742 H1756 0.961 . S
C1743 C1740 1.539 . S
C1743 H1757 0.958 . S
C1743 H1758 0.961 . S
C1743 H1759 0.960 . S
H1744 C1728 0.931 . S
H1745 C1733 0.929 . S
H1746 C1734 0.960 . S
H1747 C1734 0.962 . S
H1748 C1734 0.960 . S
H1749 C1735 0.961 . S
H1750 C1735 0.961 . S
H1751 C1735 0.961 . S
H1752 C1736 0.931 . S
H1753 C1741 0.930 . S
H1754 C1742 0.956 . S
H1755 C1742 0.961 . S
H1756 C1742 0.961 . S
H1757 C1743 0.958 . S
H1758 C1743 0.961 . S
H1759 C1743 0.960 . S
C1760 C1761 1.391 . S
C1760 C1762 1.394 . S
C1760 H1776 0.931 . S
C1761 C1760 1.391 . S
C1761 C1765 1.376 . S
C1762 C1760 1.394 . S
C1762 C1763 1.369 . S
C1762 C1766 1.531 . S
C1763 C1762 1.369 . S
C1763 C1764 1.410 . S
C1763 C1771 1.503 . S
C1764 C1763 1.410 . S
C1764 C1765 1.392 . S
C1764 C1767 1.511 . S
C1765 C1761 1.376 . S
C1765 C1764 1.392 . S
C1765 H1777 0.929 . S
C1766 C1762 1.531 . S
C1766 H1778 0.960 . S
C1766 H1779 0.962 . S
C1766 H1780 0.960 . S
C1767 C1764 1.511 . S
C1767 H1781 0.961 . S
C1767 H1782 0.961 . S
C1767 H1783 0.961 . S
C1768 C1769 1.370 . S
C1768 C1770 1.363 . S
C1768 H1784 0.931 . S
C1769 C1768 1.370 . S
C1769 C1773 1.408 . S
C1770 C1768 1.363 . S
C1770 C1771 1.370 . S
C1770 C1774 1.524 . S
C1771 C1763 1.503 . S
C1771 C1770 1.370 . S
C1771 C1772 1.403 . S
C1772 C1771 1.403 . S
C1772 C1773 1.404 . S
C1772 C1775 1.539 . S
C1773 C1769 1.408 . S
C1773 C1772 1.404 . S
C1773 H1785 0.930 . S
C1774 C1770 1.524 . S
C1774 H1786 0.956 . S
C1774 H1787 0.961 . S
C1774 H1788 0.961 . S
C1775 C1772 1.539 . S
C1775 H1789 0.958 . S
C1775 H1790 0.961 . S
C1775 H1791 0.960 . S
H1776 C1760 0.931 . S
H1777 C1765 0.929 . S
H1778 C1766 0.960 . S
H1779 C1766 0.962 . S
H1780 C1766 0.960 . S
H1781 C1767 0.961 . S
H1782 C1767 0.961 . S
H1783 C1767 0.961 . S
H1784 C1768 0.931 . S
H1785 C1773 0.930 . S
H1786 C1774 0.956 . S
H1787 C1774 0.961 . S
H1788 C1774 0.961 . S
H1789 C1775 0.958 . S
H1790 C1775 0.961 . S
H1791 C1775 0.960 . S
C1792 C1793 1.391 . S
C1792 C1794 1.394 . S
C1792 H1808 0.931 . S
C1793 C1792 1.391 . S
C1793 C1797 1.376 . S
C1794 C1792 1.394 . S
C1794 C1795 1.369 . S
C1794 C1798 1.531 . S
C1795 C1794 1.369 . S
C1795 C1796 1.410 . S
C1795 C1803 1.503 . S
C1796 C1795 1.410 . S
C1796 C1797 1.392 . S
C1796 C1799 1.511 . S
C1797 C1793 1.376 . S
C1797 C1796 1.392 . S
C1797 H1809 0.929 . S
C1798 C1794 1.531 . S
C1798 H1810 0.960 . S
C1798 H1811 0.962 . S
C1798 H1812 0.960 . S
C1799 C1796 1.511 . S
C1799 H1813 0.961 . S
C1799 H1814 0.961 . S
C1799 H1815 0.961 . S
C1800 C1801 1.370 . S
C1800 C1802 1.363 . S
C1800 H1816 0.931 . S
C1801 C1800 1.370 . S
C1801 C1805 1.408 . S
C1802 C1800 1.363 . S
C1802 C1803 1.370 . S
C1802 C1806 1.524 . S
C1803 C1795 1.503 . S
C1803 C1802 1.370 . S
C1803 C1804 1.403 . S
C1804 C1803 1.403 . S
C1804 C1805 1.404 . S
C1804 C1807 1.539 . S
C1805 C1801 1.408 . S
C1805 C1804 1.404 . S
C1805 H1817 0.930 . S
C1806 C1802 1.524 . S
C1806 H1818 0.956 . S
C1806 H1819 0.961 . S
C1806 H1820 0.961 . S
C1807 C1804 1.539 . S
C1807 H1821 0.958 . S
C1807 H1822 0.961 . S
C1807 H1823 0.960 . S
H1808 C1792 0.931 . S
H1809 C1797 0.929 . S
H1810 C1798 0.960 . S
H1811 C1798 0.962 . S
H1812 C1798 0.960 . S
H1813 C1799 0.961 . S
H1814 C1799 0.961 . S
H1815 C1799 0.961 . S
H1816 C1800 0.931 . S
H1817 C1805 0.930 . S
H1818 C1806 0.956 . S
H1819 C1806 0.961 . S
H1820 C1806 0.961 . S
H1821 C1807 0.958 . S
H1822 C1807 0.961 . S
H1823 C1807 0.960 . S
C1824 C1825 1.391 . S
C1824 C1826 1.394 . S
C1824 H1840 0.931 . S
C1825 C1824 1.391 . S
C1825 C1829 1.376 . S
C1826 C1824 1.394 . S
C1826 C1827 1.369 . S
C1826 C1830 1.531 . S
C1827 C1826 1.369 . S
C1827 C1828 1.410 . S
C1827 C1835 1.503 . S
C1828 C1827 1.410 . S
C1828 C1829 1.392 . S
C1828 C1831 1.511 . S
C1829 C1825 1.376 . S
C1829 C1828 1.392 . S
C1829 H1841 0.929 . S
C1830 C1826 1.531 . S
C1830 H1842 0.960 . S
C1830 H1843 0.962 . S
C1830 H1844 0.960 . S
C1831 C1828 1.511 . S
C1831 H1845 0.961 . S
C1831 H1846 0.961 . S
C1831 H1847 0.961 . S
C1832 C1833 1.370 . S
C1832 C1834 1.363 . S
C1832 H1848 0.931 . S
C1833 C1832 1.370 . S
C1833 C1837 1.408 . S
C1834 C1832 1.363 . S
C1834 C1835 1.370 . S
C1834 C1838 1.524 . S
C1835 C1827 1.503 . S
C1835 C1834 1.370 . S
C1835 C1836 1.403 . S
C1836 C1835 1.403 . S
C1836 C1837 1.404 . S
C1836 C1839 1.539 . S
C1837 C1833 1.408 . S
C1837 C1836 1.404 . S
C1837 H1849 0.930 . S
C1838 C1834 1.524 . S
C1838 H1850 0.956 . S
C1838 H1851 0.961 . S
C1838 H1852 0.961 . S
C1839 C1836 1.539 . S
C1839 H1853 0.958 . S
C1839 H1854 0.961 . S
C1839 H1855 0.960 . S
H1840 C1824 0.931 . S
H1841 C1829 0.929 . S
H1842 C1830 0.960 . S
H1843 C1830 0.962 . S
H1844 C1830 0.960 . S
H1845 C1831 0.961 . S
H1846 C1831 0.961 . S
H1847 C1831 0.961 . S
H1848 C1832 0.931 . S
H1849 C1837 0.930 . S
H1850 C1838 0.956 . S
H1851 C1838 0.961 . S
H1852 C1838 0.961 . S
H1853 C1839 0.958 . S
H1854 C1839 0.961 . S
H1855 C1839 0.960 . S
C1856 C1857 1.392 1_556 S
C1856 C1858 1.393 1_655 S
C1856 H1872 0.930 1_655 S
C1857 C1856 1.392 1_554 S
C1857 C1861 1.376 . S
C1858 C1856 1.393 1_455 S
C1858 C1859 1.369 1_455 S
C1858 C1862 1.531 . S
C1859 C1858 1.369 1_655 S
C1859 C1860 1.410 1_556 S
C1859 C1867 1.497 1_655 S
C1860 C1859 1.410 1_554 S
C1860 C1861 1.392 . S
C1860 C1863 1.511 . S
C1861 C1857 1.376 . S
C1861 C1860 1.392 . S
C1861 H1873 0.929 . S
C1862 C1858 1.531 . S
C1862 H1874 0.960 . S
C1862 H1875 0.962 . S
C1862 H1876 0.960 . S
C1863 C1860 1.511 . S
C1863 H1877 0.961 . S
C1863 H1878 0.961 . S
C1863 H1879 0.961 . S
C1864 C1865 1.370 1_554 S
C1864 C1866 1.363 . S
C1864 H1880 0.931 . S
C1865 C1864 1.370 1_556 S
C1865 C1869 1.408 1_455 S
C1866 C1864 1.363 . S
C1866 C1867 1.386 1_554 S
C1866 C1870 1.524 . S
C1867 C1859 1.497 1_455 S
C1867 C1866 1.386 1_556 S
C1867 C1868 1.393 1_455 S
C1868 C1867 1.393 1_655 S
C1868 C1869 1.404 . S
C1868 C1871 1.539 . S
C1869 C1865 1.408 1_655 S
C1869 C1868 1.404 . S
C1869 H1881 0.930 . S
C1870 C1866 1.524 . S
C1870 H1882 0.956 . S
C1870 H1883 0.961 . S
C1870 H1884 0.961 . S
C1871 C1868 1.539 . S
C1871 H1885 0.958 . S
C1871 H1886 0.961 . S
C1871 H1887 0.960 . S
H1872 C1856 0.930 1_455 S
H1873 C1861 0.929 . S
H1874 C1862 0.960 . S
H1875 C1862 0.962 . S
H1876 C1862 0.960 . S
H1877 C1863 0.961 . S
H1878 C1863 0.961 . S
H1879 C1863 0.961 . S
H1880 C1864 0.931 . S
H1881 C1869 0.930 . S
H1882 C1870 0.956 . S
H1883 C1870 0.961 . S
H1884 C1870 0.961 . S
H1885 C1871 0.958 . S
H1886 C1871 0.961 . S
H1887 C1871 0.960 . S
C1888 C1889 1.391 . S
C1888 C1890 1.394 . S
C1888 H1904 0.931 . S
C1889 C1888 1.391 . S
C1889 C1893 1.376 . S
C1890 C1888 1.394 . S
C1890 C1891 1.369 . S
C1890 C1894 1.531 . S
C1891 C1890 1.369 . S
C1891 C1892 1.410 . S
C1891 C1899 1.507 . S
C1892 C1891 1.410 . S
C1892 C1893 1.392 . S
C1892 C1895 1.511 1_556 S
C1893 C1889 1.376 . S
C1893 C1892 1.392 . S
C1893 H1905 0.929 . S
C1894 C1890 1.531 . S
C1894 H1906 0.960 . S
C1894 H1907 0.962 . S
C1894 H1908 0.960 . S
C1895 C1892 1.511 1_554 S
C1895 H1909 0.961 . S
C1895 H1910 0.961 . S
C1895 H1911 0.961 1_554 S
C1896 C1897 1.370 . S
C1896 C1898 1.363 . S
C1896 H1912 0.931 . S
C1897 C1896 1.370 . S
C1897 C1901 1.408 1_554 S
C1898 C1896 1.363 . S
C1898 C1899 1.359 1_554 S
C1898 C1902 1.524 . S
C1899 C1891 1.507 . S
C1899 C1898 1.359 1_556 S
C1899 C1900 1.411 . S
C1900 C1899 1.411 . S
C1900 C1901 1.404 . S
C1900 C1903 1.539 . S
C1901 C1897 1.408 1_556 S
C1901 C1900 1.404 . S
C1901 H1913 0.930 . S
C1902 C1898 1.524 . S
C1902 H1914 0.956 . S
C1902 H1915 0.961 . S
C1902 H1916 0.961 . S
C1903 C1900 1.539 . S
C1903 H1917 0.958 . S
C1903 H1918 0.961 . S
C1903 H1919 0.960 . S
H1904 C1888 0.931 . S
H1905 C1893 0.929 . S
H1906 C1894 0.960 . S
H1907 C1894 0.962 . S
H1908 C1894 0.960 . S
H1909 C1895 0.961 . S
H1910 C1895 0.961 . S
H1911 C1895 0.961 1_556 S
H1912 C1896 0.931 . S
H1913 C1901 0.930 . S
H1914 C1902 0.956 . S
H1915 C1902 0.961 . S
H1916 C1902 0.961 . S
H1917 C1903 0.958 . S
H1918 C1903 0.961 . S
H1919 C1903 0.960 . S
C1920 C1921 1.391 . S
C1920 C1922 1.394 . S
C1920 H1936 0.931 . S
C1921 C1920 1.391 . S
C1921 C1925 1.376 1_455 S
C1922 C1920 1.394 . S
C1922 C1923 1.391 . S
C1922 C1926 1.531 . S
C1923 C1922 1.391 . S
C1923 C1924 1.394 1_455 S
C1923 C1931 1.498 1_455 S
C1924 C1923 1.394 1_655 S
C1924 C1925 1.392 . S
C1924 C1927 1.511 . S
C1925 C1921 1.376 1_655 S
C1925 C1924 1.392 . S
C1925 H1937 0.929 . S
C1926 C1922 1.531 . S
C1926 H1938 0.960 . S
C1926 H1939 0.962 . S
C1926 H1940 0.960 . S
C1927 C1924 1.511 . S
C1927 H1941 0.961 . S
C1927 H1942 0.961 . S
C1927 H1943 0.961 . S
C1928 C1929 1.370 . S
C1928 C1930 1.363 1_655 S
C1928 H1944 0.931 1_655 S
C1929 C1928 1.370 . S
C1929 C1933 1.408 . S
C1930 C1928 1.363 1_455 S
C1930 C1931 1.370 1_455 S
C1930 C1934 1.524 . S
C1931 C1923 1.498 1_655 S
C1931 C1930 1.370 1_655 S
C1931 C1932 1.403 . S
C1932 C1931 1.403 . S
C1932 C1933 1.404 . S
C1932 C1935 1.539 . S
C1933 C1929 1.408 . S
C1933 C1932 1.404 . S
C1933 H1945 0.930 . S
C1934 C1930 1.524 . S
C1934 H1946 0.956 . S
C1934 H1947 0.961 . S
C1934 H1948 0.961 . S
C1935 C1932 1.539 . S
C1935 H1949 0.958 . S
C1935 H1950 0.961 . S
C1935 H1951 0.960 . S
H1936 C1920 0.931 . S
H1937 C1925 0.929 . S
H1938 C1926 0.960 . S
H1939 C1926 0.962 . S
H1940 C1926 0.960 . S
H1941 C1927 0.961 . S
H1942 C1927 0.961 . S
H1943 C1927 0.961 . S
H1944 C1928 0.931 1_455 S
H1945 C1933 0.930 . S
H1946 C1934 0.956 . S
H1947 C1934 0.961 . S
H1948 C1934 0.961 . S
H1949 C1935 0.958 . S
H1950 C1935 0.961 . S
H1951 C1935 0.960 . S
C1952 C1953 1.391 . S
C1952 C1954 1.394 . S
C1952 H1968 0.931 . S
C1953 C1952 1.391 . S
C1953 C1957 1.376 . S
C1954 C1952 1.394 . S
C1954 C1955 1.369 . S
C1954 C1958 1.531 . S
C1955 C1954 1.369 . S
C1955 C1956 1.410 . S
C1955 C1963 1.503 . S
C1956 C1955 1.410 . S
C1956 C1957 1.392 . S
C1956 C1959 1.511 . S
C1957 C1953 1.376 . S
C1957 C1956 1.392 . S
C1957 H1969 0.929 . S
C1958 C1954 1.531 . S
C1958 H1970 0.960 . S
C1958 H1971 0.962 . S
C1958 H1972 0.960 . S
C1959 C1956 1.511 . S
C1959 H1973 0.961 . S
C1959 H1974 0.961 . S
C1959 H1975 0.961 . S
C1960 C1961 1.370 . S
C1960 C1962 1.363 . S
C1960 H1976 0.931 . S
C1961 C1960 1.370 . S
C1961 C1965 1.408 . S
C1962 C1960 1.363 . S
C1962 C1963 1.370 . S
C1962 C1966 1.524 . S
C1963 C1955 1.503 . S
C1963 C1962 1.370 . S
C1963 C1964 1.403 . S
C1964 C1963 1.403 . S
C1964 C1965 1.404 . S
C1964 C1967 1.539 . S
C1965 C1961 1.408 . S
C1965 C1964 1.404 . S
C1965 H1977 0.930 . S
C1966 C1962 1.524 . S
C1966 H1978 0.956 . S
C1966 H1979 0.961 . S
C1966 H1980 0.961 . S
C1967 C1964 1.539 . S
C1967 H1981 0.958 . S
C1967 H1982 0.961 . S
C1967 H1983 0.960 . S
H1968 C1952 0.931 . S
H1969 C1957 0.929 . S
H1970 C1958 0.960 . S
H1971 C1958 0.962 . S
H1972 C1958 0.960 . S
H1973 C1959 0.961 . S
H1974 C1959 0.961 . S
H1975 C1959 0.961 . S
H1976 C1960 0.931 . S
H1977 C1965 0.930 . S
H1978 C1966 0.956 . S
H1979 C1966 0.961 . S
H1980 C1966 0.961 . S
H1981 C1967 0.958 . S
H1982 C1967 0.961 . S
H1983 C1967 0.960 . S
C1984 C1985 1.391 . S
C1984 C1986 1.394 . S
C1984 H2000 0.931 . S
C1985 C1984 1.391 . S
C1985 C1989 1.376 . S
C1986 C1984 1.394 . S
C1986 C1987 1.369 . S
C1986 C1990 1.531 . S
C1987 C1986 1.369 . S
C1987 C1988 1.410 . S
C1987 C1995 1.503 . S
C1988 C1987 1.410 . S
C1988 C1989 1.392 . S
C1988 C1991 1.511 . S
C1989 C1985 1.376 . S
C1989 C1988 1.392 . S
C1989 H2001 0.929 . S
C1990 C1986 1.531 . S
C1990 H2002 0.960 . S
C1990 H2003 0.962 . S
C1990 H2004 0.960 . S
C1991 C1988 1.511 . S
C1991 H2005 0.961 . S
C1991 H2006 0.961 . S
C1991 H2007 0.961 . S
C1992 C1993 1.370 . S
C1992 C1994 1.363 . S
C1992 H2008 0.931 . S
C1993 C1992 1.370 . S
C1993 C1997 1.408 . S
C1994 C1992 1.363 . S
C1994 C1995 1.370 . S
C1994 C1998 1.524 . S
C1995 C1987 1.503 . S
C1995 C1994 1.370 . S
C1995 C1996 1.403 . S
C1996 C1995 1.403 . S
C1996 C1997 1.404 . S
C1996 C1999 1.539 . S
C1997 C1993 1.408 . S
C1997 C1996 1.404 . S
C1997 H2009 0.930 . S
C1998 C1994 1.524 . S
C1998 H2010 0.956 . S
C1998 H2011 0.961 . S
C1998 H2012 0.961 . S
C1999 C1996 1.539 . S
C1999 H2013 0.958 . S
C1999 H2014 0.961 . S
C1999 H2015 0.960 . S
H2000 C1984 0.931 . S
H2001 C1989 0.929 . S
H2002 C1990 0.960 . S
H2003 C1990 0.962 . S
H2004 C1990 0.960 . S
H2005 C1991 0.961 . S
H2006 C1991 0.961 . S
H2007 C1991 0.961 . S
H2008 C1992 0.931 . S
H2009 C1997 0.930 . S
H2010 C1998 0.956 . S
H2011 C1998 0.961 . S
H2012 C1998 0.961 . S
H2013 C1999 0.958 . S
H2014 C1999 0.961 . S
H2015 C1999 0.960 . S
C2016 C2017 1.391 . S
C2016 C2018 1.394 . S
C2016 H2032 0.931 . S
C2017 C2016 1.391 . S
C2017 C2021 1.376 . S
C2018 C2016 1.394 . S
C2018 C2019 1.369 . S
C2018 C2022 1.531 . S
C2019 C2018 1.369 . S
C2019 C2020 1.410 . S
C2019 C2027 1.503 . S
C2020 C2019 1.410 . S
C2020 C2021 1.392 . S
C2020 C2023 1.511 . S
C2021 C2017 1.376 . S
C2021 C2020 1.392 . S
C2021 H2033 0.929 . S
C2022 C2018 1.531 . S
C2022 H2034 0.960 . S
C2022 H2035 0.962 . S
C2022 H2036 0.960 . S
C2023 C2020 1.511 . S
C2023 H2037 0.961 . S
C2023 H2038 0.961 . S
C2023 H2039 0.961 . S
C2024 C2025 1.370 . S
C2024 C2026 1.363 . S
C2024 H2040 0.931 . S
C2025 C2024 1.370 . S
C2025 C2029 1.408 . S
C2026 C2024 1.363 . S
C2026 C2027 1.370 . S
C2026 C2030 1.524 . S
C2027 C2019 1.503 . S
C2027 C2026 1.370 . S
C2027 C2028 1.403 . S
C2028 C2027 1.403 . S
C2028 C2029 1.404 . S
C2028 C2031 1.539 . S
C2029 C2025 1.408 . S
C2029 C2028 1.404 . S
C2029 H2041 0.930 . S
C2030 C2026 1.524 . S
C2030 H2042 0.956 . S
C2030 H2043 0.961 . S
C2030 H2044 0.961 . S
C2031 C2028 1.539 . S
C2031 H2045 0.958 . S
C2031 H2046 0.961 . S
C2031 H2047 0.960 . S
H2032 C2016 0.931 . S
H2033 C2021 0.929 . S
H2034 C2022 0.960 . S
H2035 C2022 0.962 . S
H2036 C2022 0.960 . S
H2037 C2023 0.961 . S
H2038 C2023 0.961 . S
H2039 C2023 0.961 . S
H2040 C2024 0.931 . S
H2041 C2029 0.930 . S
H2042 C2030 0.956 . S
H2043 C2030 0.961 . S
H2044 C2030 0.961 . S
H2045 C2031 0.958 . S
H2046 C2031 0.961 . S
H2047 C2031 0.960 . S
C2048 C2049 1.391 . S
C2048 C2050 1.394 . S
C2048 H2064 0.931 . S
C2049 C2048 1.391 . S
C2049 C2053 1.376 . S
C2050 C2048 1.394 . S
C2050 C2051 1.369 . S
C2050 C2054 1.531 . S
C2051 C2050 1.369 . S
C2051 C2052 1.410 . S
C2051 C2059 1.503 . S
C2052 C2051 1.410 . S
C2052 C2053 1.392 . S
C2052 C2055 1.511 . S
C2053 C2049 1.376 . S
C2053 C2052 1.392 . S
C2053 H2065 0.929 . S
C2054 C2050 1.531 . S
C2054 H2066 0.960 . S
C2054 H2067 0.962 . S
C2054 H2068 0.960 . S
C2055 C2052 1.511 . S
C2055 H2069 0.961 . S
C2055 H2070 0.961 . S
C2055 H2071 0.961 . S
C2056 C2057 1.370 . S
C2056 C2058 1.363 . S
C2056 H2072 0.931 . S
C2057 C2056 1.370 . S
C2057 C2061 1.408 . S
C2058 C2056 1.363 . S
C2058 C2059 1.370 . S
C2058 C2062 1.524 . S
C2059 C2051 1.503 . S
C2059 C2058 1.370 . S
C2059 C2060 1.403 . S
C2060 C2059 1.403 . S
C2060 C2061 1.404 . S
C2060 C2063 1.539 . S
C2061 C2057 1.408 . S
C2061 C2060 1.404 . S
C2061 H2073 0.930 . S
C2062 C2058 1.524 . S
C2062 H2074 0.956 . S
C2062 H2075 0.961 . S
C2062 H2076 0.961 . S
C2063 C2060 1.539 . S
C2063 H2077 0.958 . S
C2063 H2078 0.961 . S
C2063 H2079 0.960 . S
H2064 C2048 0.931 . S
H2065 C2053 0.929 . S
H2066 C2054 0.960 . S
H2067 C2054 0.962 . S
H2068 C2054 0.960 . S
H2069 C2055 0.961 . S
H2070 C2055 0.961 . S
H2071 C2055 0.961 . S
H2072 C2056 0.931 . S
H2073 C2061 0.930 . S
H2074 C2062 0.956 . S
H2075 C2062 0.961 . S
H2076 C2062 0.961 . S
H2077 C2063 0.958 . S
H2078 C2063 0.961 . S
H2079 C2063 0.960 . S
C2080 C2081 1.391 . S
C2080 C2082 1.394 . S
C2080 H2096 0.931 . S
C2081 C2080 1.391 . S
C2081 C2085 1.376 . S
C2082 C2080 1.394 . S
C2082 C2083 1.369 . S
C2082 C2086 1.531 . S
C2083 C2082 1.369 . S
C2083 C2084 1.410 . S
C2083 C2091 1.503 . S
C2084 C2083 1.410 . S
C2084 C2085 1.392 . S
C2084 C2087 1.511 . S
C2085 C2081 1.376 . S
C2085 C2084 1.392 . S
C2085 H2097 0.929 . S
C2086 C2082 1.531 . S
C2086 H2098 0.960 . S
C2086 H2099 0.962 . S
C2086 H2100 0.960 . S
C2087 C2084 1.511 . S
C2087 H2101 0.961 . S
C2087 H2102 0.961 . S
C2087 H2103 0.961 . S
C2088 C2089 1.370 . S
C2088 C2090 1.363 . S
C2088 H2104 0.931 . S
C2089 C2088 1.370 . S
C2089 C2093 1.408 . S
C2090 C2088 1.363 . S
C2090 C2091 1.370 . S
C2090 C2094 1.524 . S
C2091 C2083 1.503 . S
C2091 C2090 1.370 . S
C2091 C2092 1.403 . S
C2092 C2091 1.403 . S
C2092 C2093 1.404 . S
C2092 C2095 1.539 . S
C2093 C2089 1.408 . S
C2093 C2092 1.404 . S
C2093 H2105 0.930 . S
C2094 C2090 1.524 . S
C2094 H2106 0.956 . S
C2094 H2107 0.961 . S
C2094 H2108 0.961 . S
C2095 C2092 1.539 . S
C2095 H2109 0.958 . S
C2095 H2110 0.961 . S
C2095 H2111 0.960 . S
H2096 C2080 0.931 . S
H2097 C2085 0.929 . S
H2098 C2086 0.960 . S
H2099 C2086 0.962 . S
H2100 C2086 0.960 . S
H2101 C2087 0.961 . S
H2102 C2087 0.961 . S
H2103 C2087 0.961 . S
H2104 C2088 0.931 . S
H2105 C2093 0.930 . S
H2106 C2094 0.956 . S
H2107 C2094 0.961 . S
H2108 C2094 0.961 . S
H2109 C2095 0.958 . S
H2110 C2095 0.961 . S
H2111 C2095 0.960 . S
C2112 C2113 1.391 . S
C2112 C2114 1.394 . S
C2112 H2128 0.931 . S
C2113 C2112 1.391 . S
C2113 C2117 1.376 . S
C2114 C2112 1.394 . S
C2114 C2115 1.369 . S
C2114 C2118 1.531 . S
C2115 C2114 1.369 . S
C2115 C2116 1.410 . S
C2115 C2123 1.503 . S
C2116 C2115 1.410 . S
C2116 C2117 1.392 . S
C2116 C2119 1.511 . S
C2117 C2113 1.376 . S
C2117 C2116 1.392 . S
C2117 H2129 0.929 . S
C2118 C2114 1.531 . S
C2118 H2130 0.960 . S
C2118 H2131 0.962 . S
C2118 H2132 0.960 . S
C2119 C2116 1.511 . S
C2119 H2133 0.961 . S
C2119 H2134 0.961 . S
C2119 H2135 0.961 . S
C2120 C2121 1.370 . S
C2120 C2122 1.363 . S
C2120 H2136 0.931 . S
C2121 C2120 1.370 . S
C2121 C2125 1.408 . S
C2122 C2120 1.363 . S
C2122 C2123 1.370 . S
C2122 C2126 1.524 . S
C2123 C2115 1.503 . S
C2123 C2122 1.370 . S
C2123 C2124 1.403 . S
C2124 C2123 1.403 . S
C2124 C2125 1.404 . S
C2124 C2127 1.539 . S
C2125 C2121 1.408 . S
C2125 C2124 1.404 . S
C2125 H2137 0.930 . S
C2126 C2122 1.524 . S
C2126 H2138 0.956 . S
C2126 H2139 0.961 . S
C2126 H2140 0.961 . S
C2127 C2124 1.539 . S
C2127 H2141 0.958 . S
C2127 H2142 0.961 . S
C2127 H2143 0.960 . S
H2128 C2112 0.931 . S
H2129 C2117 0.929 . S
H2130 C2118 0.960 . S
H2131 C2118 0.962 . S
H2132 C2118 0.960 . S
H2133 C2119 0.961 . S
H2134 C2119 0.961 . S
H2135 C2119 0.961 . S
H2136 C2120 0.931 . S
H2137 C2125 0.930 . S
H2138 C2126 0.956 . S
H2139 C2126 0.961 . S
H2140 C2126 0.961 . S
H2141 C2127 0.958 . S
H2142 C2127 0.961 . S
H2143 C2127 0.960 . S
C2144 C2145 1.391 . S
C2144 C2146 1.394 . S
C2144 H2160 0.931 . S
C2145 C2144 1.391 . S
C2145 C2149 1.376 . S
C2146 C2144 1.394 . S
C2146 C2147 1.369 . S
C2146 C2150 1.531 . S
C2147 C2146 1.369 . S
C2147 C2148 1.410 . S
C2147 C2155 1.503 . S
C2148 C2147 1.410 . S
C2148 C2149 1.392 . S
C2148 C2151 1.511 . S
C2149 C2145 1.376 . S
C2149 C2148 1.392 . S
C2149 H2161 0.929 . S
C2150 C2146 1.531 . S
C2150 H2162 0.960 . S
C2150 H2163 0.962 . S
C2150 H2164 0.960 . S
C2151 C2148 1.511 . S
C2151 H2165 0.961 . S
C2151 H2166 0.961 . S
C2151 H2167 0.961 . S
C2152 C2153 1.370 . S
C2152 C2154 1.363 . S
C2152 H2168 0.931 . S
C2153 C2152 1.370 . S
C2153 C2157 1.408 . S
C2154 C2152 1.363 . S
C2154 C2155 1.370 . S
C2154 C2158 1.524 . S
C2155 C2147 1.503 . S
C2155 C2154 1.370 . S
C2155 C2156 1.403 . S
C2156 C2155 1.403 . S
C2156 C2157 1.404 . S
C2156 C2159 1.539 . S
C2157 C2153 1.408 . S
C2157 C2156 1.404 . S
C2157 H2169 0.930 . S
C2158 C2154 1.524 . S
C2158 H2170 0.956 . S
C2158 H2171 0.961 . S
C2158 H2172 0.961 . S
C2159 C2156 1.539 . S
C2159 H2173 0.958 . S
C2159 H2174 0.961 . S
C2159 H2175 0.960 . S
H2160 C2144 0.931 . S
H2161 C2149 0.929 . S
H2162 C2150 0.960 . S
H2163 C2150 0.962 . S
H2164 C2150 0.960 . S
H2165 C2151 0.961 . S
H2166 C2151 0.961 . S
H2167 C2151 0.961 . S
H2168 C2152 0.931 . S
H2169 C2157 0.930 . S
H2170 C2158 0.956 . S
H2171 C2158 0.961 . S
H2172 C2158 0.961 . S
H2173 C2159 0.958 . S
H2174 C2159 0.961 . S
H2175 C2159 0.960 . S
C2176 C2177 1.391 . S
C2176 C2178 1.394 . S
C2176 H2192 0.931 . S
C2177 C2176 1.391 . S
C2177 C2181 1.376 . S
C2178 C2176 1.394 . S
C2178 C2179 1.369 . S
C2178 C2182 1.531 . S
C2179 C2178 1.369 . S
C2179 C2180 1.410 . S
C2179 C2187 1.503 . S
C2180 C2179 1.410 . S
C2180 C2181 1.392 . S
C2180 C2183 1.511 . S
C2181 C2177 1.376 . S
C2181 C2180 1.392 . S
C2181 H2193 0.929 . S
C2182 C2178 1.531 . S
C2182 H2194 0.960 . S
C2182 H2195 0.962 . S
C2182 H2196 0.960 . S
C2183 C2180 1.511 . S
C2183 H2197 0.961 . S
C2183 H2198 0.961 . S
C2183 H2199 0.961 . S
C2184 C2185 1.370 . S
C2184 C2186 1.363 . S
C2184 H2200 0.931 . S
C2185 C2184 1.370 . S
C2185 C2189 1.408 . S
C2186 C2184 1.363 . S
C2186 C2187 1.370 . S
C2186 C2190 1.524 . S
C2187 C2179 1.503 . S
C2187 C2186 1.370 . S
C2187 C2188 1.403 . S
C2188 C2187 1.403 . S
C2188 C2189 1.404 . S
C2188 C2191 1.539 . S
C2189 C2185 1.408 . S
C2189 C2188 1.404 . S
C2189 H2201 0.930 . S
C2190 C2186 1.524 . S
C2190 H2202 0.956 . S
C2190 H2203 0.961 . S
C2190 H2204 0.961 . S
C2191 C2188 1.539 . S
C2191 H2205 0.958 . S
C2191 H2206 0.961 . S
C2191 H2207 0.960 . S
H2192 C2176 0.931 . S
H2193 C2181 0.929 . S
H2194 C2182 0.960 . S
H2195 C2182 0.962 . S
H2196 C2182 0.960 . S
H2197 C2183 0.961 . S
H2198 C2183 0.961 . S
H2199 C2183 0.961 . S
H2200 C2184 0.931 . S
H2201 C2189 0.930 . S
H2202 C2190 0.956 . S
H2203 C2190 0.961 . S
H2204 C2190 0.961 . S
H2205 C2191 0.958 . S
H2206 C2191 0.961 . S
H2207 C2191 0.960 . S
C2208 C2209 1.391 . S
C2208 C2210 1.394 . S
C2208 H2224 0.931 . S
C2209 C2208 1.391 . S
C2209 C2213 1.376 . S
C2210 C2208 1.394 . S
C2210 C2211 1.369 . S
C2210 C2214 1.531 . S
C2211 C2210 1.369 . S
C2211 C2212 1.410 . S
C2211 C2219 1.503 . S
C2212 C2211 1.410 . S
C2212 C2213 1.392 . S
C2212 C2215 1.511 . S
C2213 C2209 1.376 . S
C2213 C2212 1.392 . S
C2213 H2225 0.929 . S
C2214 C2210 1.531 . S
C2214 H2226 0.960 . S
C2214 H2227 0.962 . S
C2214 H2228 0.960 . S
C2215 C2212 1.511 . S
C2215 H2229 0.961 . S
C2215 H2230 0.961 . S
C2215 H2231 0.961 . S
C2216 C2217 1.370 . S
C2216 C2218 1.363 . S
C2216 H2232 0.931 . S
C2217 C2216 1.370 . S
C2217 C2221 1.408 . S
C2218 C2216 1.363 . S
C2218 C2219 1.370 . S
C2218 C2222 1.524 . S
C2219 C2211 1.503 . S
C2219 C2218 1.370 . S
C2219 C2220 1.403 . S
C2220 C2219 1.403 . S
C2220 C2221 1.404 . S
C2220 C2223 1.539 . S
C2221 C2217 1.408 . S
C2221 C2220 1.404 . S
C2221 H2233 0.930 . S
C2222 C2218 1.524 . S
C2222 H2234 0.956 . S
C2222 H2235 0.961 . S
C2222 H2236 0.961 . S
C2223 C2220 1.539 . S
C2223 H2237 0.958 . S
C2223 H2238 0.961 . S
C2223 H2239 0.960 . S
H2224 C2208 0.931 . S
H2225 C2213 0.929 . S
H2226 C2214 0.960 . S
H2227 C2214 0.962 . S
H2228 C2214 0.960 . S
H2229 C2215 0.961 . S
H2230 C2215 0.961 . S
H2231 C2215 0.961 . S
H2232 C2216 0.931 . S
H2233 C2221 0.930 . S
H2234 C2222 0.956 . S
H2235 C2222 0.961 . S
H2236 C2222 0.961 . S
H2237 C2223 0.958 . S
H2238 C2223 0.961 . S
H2239 C2223 0.960 . S
C2240 C2241 1.391 . S
C2240 C2242 1.394 . S
C2240 H2256 0.931 . S
C2241 C2240 1.391 . S
C2241 C2245 1.376 . S
C2242 C2240 1.394 . S
C2242 C2243 1.369 . S
C2242 C2246 1.531 . S
C2243 C2242 1.369 . S
C2243 C2244 1.410 . S
C2243 C2251 1.503 . S
C2244 C2243 1.410 . S
C2244 C2245 1.392 . S
C2244 C2247 1.511 . S
C2245 C2241 1.376 . S
C2245 C2244 1.392 . S
C2245 H2257 0.929 . S
C2246 C2242 1.531 . S
C2246 H2258 0.960 . S
C2246 H2259 0.962 . S
C2246 H2260 0.960 . S
C2247 C2244 1.511 . S
C2247 H2261 0.961 . S
C2247 H2262 0.961 . S
C2247 H2263 0.961 . S
C2248 C2249 1.370 . S
C2248 C2250 1.363 . S
C2248 H2264 0.931 . S
C2249 C2248 1.370 . S
C2249 C2253 1.408 . S
C2250 C2248 1.363 . S
C2250 C2251 1.370 . S
C2250 C2254 1.524 . S
C2251 C2243 1.503 . S
C2251 C2250 1.370 . S
C2251 C2252 1.403 . S
C2252 C2251 1.403 . S
C2252 C2253 1.404 . S
C2252 C2255 1.539 . S
C2253 C2249 1.408 . S
C2253 C2252 1.404 . S
C2253 H2265 0.930 . S
C2254 C2250 1.524 . S
C2254 H2266 0.956 . S
C2254 H2267 0.961 . S
C2254 H2268 0.961 . S
C2255 C2252 1.539 . S
C2255 H2269 0.958 . S
C2255 H2270 0.961 . S
C2255 H2271 0.960 . S
H2256 C2240 0.931 . S
H2257 C2245 0.929 . S
H2258 C2246 0.960 . S
H2259 C2246 0.962 . S
H2260 C2246 0.960 . S
H2261 C2247 0.961 . S
H2262 C2247 0.961 . S
H2263 C2247 0.961 . S
H2264 C2248 0.931 . S
H2265 C2253 0.930 . S
H2266 C2254 0.956 . S
H2267 C2254 0.961 . S
H2268 C2254 0.961 . S
H2269 C2255 0.958 . S
H2270 C2255 0.961 . S
H2271 C2255 0.960 . S
C2272 C2273 1.391 . S
C2272 C2274 1.394 . S
C2272 H2288 0.931 . S
C2273 C2272 1.391 . S
C2273 C2277 1.376 . S
C2274 C2272 1.394 . S
C2274 C2275 1.369 . S
C2274 C2278 1.531 . S
C2275 C2274 1.369 . S
C2275 C2276 1.410 . S
C2275 C2283 1.503 . S
C2276 C2275 1.410 . S
C2276 C2277 1.392 . S
C2276 C2279 1.511 . S
C2277 C2273 1.376 . S
C2277 C2276 1.392 . S
C2277 H2289 0.929 . S
C2278 C2274 1.531 . S
C2278 H2290 0.960 . S
C2278 H2291 0.962 . S
C2278 H2292 0.960 . S
C2279 C2276 1.511 . S
C2279 H2293 0.961 . S
C2279 H2294 0.961 . S
C2279 H2295 0.961 . S
C2280 C2281 1.370 . S
C2280 C2282 1.363 . S
C2280 H2296 0.931 . S
C2281 C2280 1.370 . S
C2281 C2285 1.408 . S
C2282 C2280 1.363 . S
C2282 C2283 1.370 . S
C2282 C2286 1.524 . S
C2283 C2275 1.503 . S
C2283 C2282 1.370 . S
C2283 C2284 1.403 . S
C2284 C2283 1.403 . S
C2284 C2285 1.404 . S
C2284 C2287 1.539 . S
C2285 C2281 1.408 . S
C2285 C2284 1.404 . S
C2285 H2297 0.930 . S
C2286 C2282 1.524 . S
C2286 H2298 0.956 . S
C2286 H2299 0.961 . S
C2286 H2300 0.961 . S
C2287 C2284 1.539 . S
C2287 H2301 0.958 . S
C2287 H2302 0.961 . S
C2287 H2303 0.960 . S
H2288 C2272 0.931 . S
H2289 C2277 0.929 . S
H2290 C2278 0.960 . S
H2291 C2278 0.962 . S
H2292 C2278 0.960 . S
H2293 C2279 0.961 . S
H2294 C2279 0.961 . S
H2295 C2279 0.961 . S
H2296 C2280 0.931 . S
H2297 C2285 0.930 . S
H2298 C2286 0.956 . S
H2299 C2286 0.961 . S
H2300 C2286 0.961 . S
H2301 C2287 0.958 . S
H2302 C2287 0.961 . S
H2303 C2287 0.960 . S
C2304 C2305 1.391 . S
C2304 C2306 1.394 . S
C2304 H2320 0.931 . S
C2305 C2304 1.391 . S
C2305 C2309 1.376 . S
C2306 C2304 1.394 . S
C2306 C2307 1.369 . S
C2306 C2310 1.531 . S
C2307 C2306 1.369 . S
C2307 C2308 1.410 . S
C2307 C2315 1.503 . S
C2308 C2307 1.410 . S
C2308 C2309 1.392 . S
C2308 C2311 1.511 . S
C2309 C2305 1.376 . S
C2309 C2308 1.392 . S
C2309 H2321 0.929 . S
C2310 C2306 1.531 . S
C2310 H2322 0.960 . S
C2310 H2323 0.962 . S
C2310 H2324 0.960 . S
C2311 C2308 1.511 . S
C2311 H2325 0.961 . S
C2311 H2326 0.961 . S
C2311 H2327 0.961 . S
C2312 C2313 1.370 . S
C2312 C2314 1.363 . S
C2312 H2328 0.931 . S
C2313 C2312 1.370 . S
C2313 C2317 1.408 . S
C2314 C2312 1.363 . S
C2314 C2315 1.370 . S
C2314 C2318 1.524 . S
C2315 C2307 1.503 . S
C2315 C2314 1.370 . S
C2315 C2316 1.403 . S
C2316 C2315 1.403 . S
C2316 C2317 1.404 . S
C2316 C2319 1.539 . S
C2317 C2313 1.408 . S
C2317 C2316 1.404 . S
C2317 H2329 0.930 . S
C2318 C2314 1.524 . S
C2318 H2330 0.956 . S
C2318 H2331 0.961 . S
C2318 H2332 0.961 . S
C2319 C2316 1.539 . S
C2319 H2333 0.958 . S
C2319 H2334 0.961 . S
C2319 H2335 0.960 . S
H2320 C2304 0.931 . S
H2321 C2309 0.929 . S
H2322 C2310 0.960 . S
H2323 C2310 0.962 . S
H2324 C2310 0.960 . S
H2325 C2311 0.961 . S
H2326 C2311 0.961 . S
H2327 C2311 0.961 . S
H2328 C2312 0.931 . S
H2329 C2317 0.930 . S
H2330 C2318 0.956 . S
H2331 C2318 0.961 . S
H2332 C2318 0.961 . S
H2333 C2319 0.958 . S
H2334 C2319 0.961 . S
H2335 C2319 0.960 . S
C2336 C2337 1.391 . S
C2336 C2338 1.394 . S
C2336 H2352 0.931 . S
C2337 C2336 1.391 . S
C2337 C2341 1.376 . S
C2338 C2336 1.394 . S
C2338 C2339 1.369 . S
C2338 C2342 1.531 . S
C2339 C2338 1.369 . S
C2339 C2340 1.410 . S
C2339 C2347 1.503 . S
C2340 C2339 1.410 . S
C2340 C2341 1.392 . S
C2340 C2343 1.511 . S
C2341 C2337 1.376 . S
C2341 C2340 1.392 . S
C2341 H2353 0.929 . S
C2342 C2338 1.531 . S
C2342 H2354 0.960 . S
C2342 H2355 0.962 . S
C2342 H2356 0.960 . S
C2343 C2340 1.511 . S
C2343 H2357 0.961 . S
C2343 H2358 0.961 . S
C2343 H2359 0.961 . S
C2344 C2345 1.370 . S
C2344 C2346 1.363 . S
C2344 H2360 0.931 . S
C2345 C2344 1.370 . S
C2345 C2349 1.408 . S
C2346 C2344 1.363 . S
C2346 C2347 1.370 . S
C2346 C2350 1.524 . S
C2347 C2339 1.503 . S
C2347 C2346 1.370 . S
C2347 C2348 1.403 . S
C2348 C2347 1.403 . S
C2348 C2349 1.404 . S
C2348 C2351 1.539 . S
C2349 C2345 1.408 . S
C2349 C2348 1.404 . S
C2349 H2361 0.930 . S
C2350 C2346 1.524 . S
C2350 H2362 0.956 . S
C2350 H2363 0.961 . S
C2350 H2364 0.961 . S
C2351 C2348 1.539 . S
C2351 H2365 0.958 . S
C2351 H2366 0.961 . S
C2351 H2367 0.960 . S
H2352 C2336 0.931 . S
H2353 C2341 0.929 . S
H2354 C2342 0.960 . S
H2355 C2342 0.962 . S
H2356 C2342 0.960 . S
H2357 C2343 0.961 . S
H2358 C2343 0.961 . S
H2359 C2343 0.961 . S
H2360 C2344 0.931 . S
H2361 C2349 0.930 . S
H2362 C2350 0.956 . S
H2363 C2350 0.961 . S
H2364 C2350 0.961 . S
H2365 C2351 0.958 . S
H2366 C2351 0.961 . S
H2367 C2351 0.960 . S
C2368 C2369 1.391 . S
C2368 C2370 1.394 . S
C2368 H2384 0.931 . S
C2369 C2368 1.391 . S
C2369 C2373 1.376 . S
C2370 C2368 1.394 . S
C2370 C2371 1.369 . S
C2370 C2374 1.531 . S
C2371 C2370 1.369 . S
C2371 C2372 1.410 . S
C2371 C2379 1.503 . S
C2372 C2371 1.410 . S
C2372 C2373 1.392 . S
C2372 C2375 1.511 . S
C2373 C2369 1.376 . S
C2373 C2372 1.392 . S
C2373 H2385 0.929 . S
C2374 C2370 1.531 . S
C2374 H2386 0.960 . S
C2374 H2387 0.962 . S
C2374 H2388 0.960 . S
C2375 C2372 1.511 . S
C2375 H2389 0.961 . S
C2375 H2390 0.961 . S
C2375 H2391 0.961 . S
C2376 C2377 1.370 . S
C2376 C2378 1.363 . S
C2376 H2392 0.931 . S
C2377 C2376 1.370 . S
C2377 C2381 1.408 . S
C2378 C2376 1.363 . S
C2378 C2379 1.370 . S
C2378 C2382 1.524 . S
C2379 C2371 1.503 . S
C2379 C2378 1.370 . S
C2379 C2380 1.403 . S
C2380 C2379 1.403 . S
C2380 C2381 1.404 . S
C2380 C2383 1.539 . S
C2381 C2377 1.408 . S
C2381 C2380 1.404 . S
C2381 H2393 0.930 . S
C2382 C2378 1.524 . S
C2382 H2394 0.956 . S
C2382 H2395 0.961 . S
C2382 H2396 0.961 . S
C2383 C2380 1.539 . S
C2383 H2397 0.958 . S
C2383 H2398 0.961 . S
C2383 H2399 0.960 . S
H2384 C2368 0.931 . S
H2385 C2373 0.929 . S
H2386 C2374 0.960 . S
H2387 C2374 0.962 . S
H2388 C2374 0.960 . S
H2389 C2375 0.961 . S
H2390 C2375 0.961 . S
H2391 C2375 0.961 . S
H2392 C2376 0.931 . S
H2393 C2381 0.930 . S
H2394 C2382 0.956 . S
H2395 C2382 0.961 . S
H2396 C2382 0.961 . S
H2397 C2383 0.958 . S
H2398 C2383 0.961 . S
H2399 C2383 0.960 . S
C2400 C2401 1.391 . S
C2400 C2402 1.394 . S
C2400 H2416 0.931 . S
C2401 C2400 1.391 . S
C2401 C2405 1.376 . S
C2402 C2400 1.394 . S
C2402 C2403 1.369 . S
C2402 C2406 1.531 . S
C2403 C2402 1.369 . S
C2403 C2404 1.410 . S
C2403 C2411 1.503 . S
C2404 C2403 1.410 . S
C2404 C2405 1.392 . S
C2404 C2407 1.511 . S
C2405 C2401 1.376 . S
C2405 C2404 1.392 . S
C2405 H2417 0.929 . S
C2406 C2402 1.531 . S
C2406 H2418 0.960 . S
C2406 H2419 0.962 . S
C2406 H2420 0.960 . S
C2407 C2404 1.511 . S
C2407 H2421 0.961 . S
C2407 H2422 0.961 . S
C2407 H2423 0.961 . S
C2408 C2409 1.370 . S
C2408 C2410 1.363 . S
C2408 H2424 0.931 . S
C2409 C2408 1.370 . S
C2409 C2413 1.408 . S
C2410 C2408 1.363 . S
C2410 C2411 1.370 . S
C2410 C2414 1.524 . S
C2411 C2403 1.503 . S
C2411 C2410 1.370 . S
C2411 C2412 1.403 . S
C2412 C2411 1.403 . S
C2412 C2413 1.404 . S
C2412 C2415 1.539 . S
C2413 C2409 1.408 . S
C2413 C2412 1.404 . S
C2413 H2425 0.930 . S
C2414 C2410 1.524 . S
C2414 H2426 0.956 . S
C2414 H2427 0.961 . S
C2414 H2428 0.961 . S
C2415 C2412 1.539 . S
C2415 H2429 0.958 . S
C2415 H2430 0.961 . S
C2415 H2431 0.960 . S
H2416 C2400 0.931 . S
H2417 C2405 0.929 . S
H2418 C2406 0.960 . S
H2419 C2406 0.962 . S
H2420 C2406 0.960 . S
H2421 C2407 0.961 . S
H2422 C2407 0.961 . S
H2423 C2407 0.961 . S
H2424 C2408 0.931 . S
H2425 C2413 0.930 . S
H2426 C2414 0.956 . S
H2427 C2414 0.961 . S
H2428 C2414 0.961 . S
H2429 C2415 0.958 . S
H2430 C2415 0.961 . S
H2431 C2415 0.960 . S
C2432 C2433 1.391 . S
C2432 C2434 1.394 . S
C2432 H2448 0.931 . S
C2433 C2432 1.391 . S
C2433 C2437 1.376 . S
C2434 C2432 1.394 . S
C2434 C2435 1.369 . S
C2434 C2438 1.531 . S
C2435 C2434 1.369 . S
C2435 C2436 1.410 . S
C2435 C2443 1.503 . S
C2436 C2435 1.410 . S
C2436 C2437 1.392 . S
C2436 C2439 1.511 . S
C2437 C2433 1.376 . S
C2437 C2436 1.392 . S
C2437 H2449 0.929 . S
C2438 C2434 1.531 . S
C2438 H2450 0.960 . S
C2438 H2451 0.962 . S
C2438 H2452 0.960 . S
C2439 C2436 1.511 . S
C2439 H2453 0.961 . S
C2439 H2454 0.961 . S
C2439 H2455 0.961 . S
C2440 C2441 1.370 . S
C2440 C2442 1.363 . S
C2440 H2456 0.931 . S
C2441 C2440 1.370 . S
C2441 C2445 1.408 . S
C2442 C2440 1.363 . S
C2442 C2443 1.370 . S
C2442 C2446 1.524 . S
C2443 C2435 1.503 . S
C2443 C2442 1.370 . S
C2443 C2444 1.403 . S
C2444 C2443 1.403 . S
C2444 C2445 1.404 . S
C2444 C2447 1.539 . S
C2445 C2441 1.408 . S
C2445 C2444 1.404 . S
C2445 H2457 0.930 . S
C2446 C2442 1.524 . S
C2446 H2458 0.956 . S
C2446 H2459 0.961 . S
C2446 H2460 0.961 . S
C2447 C2444 1.539 . S
C2447 H2461 0.958 . S
C2447 H2462 0.961 . S
C2447 H2463 0.960 . S
H2448 C2432 0.931 . S
H2449 C2437 0.929 . S
H2450 C2438 0.960 . S
H2451 C2438 0.962 . S
H2452 C2438 0.960 . S
H2453 C2439 0.961 . S
H2454 C2439 0.961 . S
H2455 C2439 0.961 . S
H2456 C2440 0.931 . S
H2457 C2445 0.930 . S
H2458 C2446 0.956 . S
H2459 C2446 0.961 . S
H2460 C2446 0.961 . S
H2461 C2447 0.958 . S
H2462 C2447 0.961 . S
H2463 C2447 0.960 . S
C417 C160 1.266 1_455 S
C425 C5 1.246 . S
C449 C387 1.286 . S
C457 C16 1.251 . S
C481 C192 1.267 . S
C489 C29 1.246 . S
C513 C413 1.235 . S
C521 C42 1.261 . S
C545 C114 1.264 . S
C553 C57 1.252 . S
C577 C68 1.226 . S
C585 C329 1.269 . S
C609 C81 1.255 . S
C617 C140 1.254 . S
C641 C361 1.235 . S
C649 C96 1.261 . S
C673 C56 1.238 . S
C681 C107 1.272 . S
C705 C277 1.279 . S
C713 C122 1.246 . S
C737 C88 1.281 . S
C745 C133 1.255 . S
C769 C303 1.238 . S
C777 C146 1.270 . S
C801 C161 1.286 . S
C809 C4 1.275 . S
C833 C172 1.239 . S
C841 C225 1.274 . S
C865 C36 1.285 . S
C873 C185 1.251 . S
C897 C198 1.263 . S
C905 C257 1.254 . S
C929 C368 1.272 . S
C937 C213 1.246 . S
C961 C179 1.283 . S
C969 C226 1.257 . S
C993 C400 1.255 . S
C1001 C237 1.282 . S
C1025 C250 1.234 . S
C1033 C205 1.262 . S
C1057 C265 1.248 . S
C1065 C322 1.256 . S
C1089 C278 1.233 . S
C1097 C121 1.262 . S
C1121 C342 1.266 1_655 S
C1129 C291 1.246 . S
C1153 C153 1.276 . S
C1161 C304 1.262 . S
C1185 C264 1.263 . S
C1193 C315 1.264 . S
C1217 C330 1.274 . S
C1225 C75 1.252 . S
C1249 C343 1.285 . S
C1257 C290 1.258 . S
C1281 C354 1.240 . S
C1289 C95 1.274 . S
C1313 C212 1.235 . S
C1321 C369 1.265 . S
C1345 C23 1.283 . S
C1353 C380 1.246 . S
C1377 C244 1.276 1_455 S
C1385 C393 1.257 . S
C1409 C406 1.254 . S
C1417 C49 1.270 . S
C1441 C3 1.416 . S
C1449 C109 1.408 . S
C1473 C18 1.398 . S
C1481 C328 1.415 . S
C1505 C135 1.395 . S
C1513 C31 1.416 . S
C1537 C44 1.421 . S
C1545 C356 1.405 . S
C1569 C55 1.406 . S
C1577 C159 1.410 . S
C1601 C382 1.395 . S
C1609 C70 1.415 . S
C1633 C187 1.399 . S
C1641 C83 1.415 . S
C1665 C94 1.405 . S
C1673 C408 1.411 . S
C1697 C120 1.406 . S
C1705 C224 1.410 . S
C1729 C148 1.405 . S
C1737 C252 1.411 . S
C1761 C174 1.400 . S
C1769 C276 1.415 . S
C1793 C302 1.394 . S
C1801 C200 1.416 . S
C1825 C211 1.402 . S
C1833 C317 1.414 . S
C1857 C239 1.414 . S
C1865 C341 1.407 . S
C1889 C263 1.406 . S
C1897 C367 1.412 . S
C1921 C395 1.396 . S
C1929 C289 1.416 . S
C1953 C10 1.393 . S
C1961 C101 1.396 . S
C1985 C17 1.382 . S
C1993 C62 1.395 . S
C2017 C69 1.397 . S
C2025 C30 1.391 . S
C2049 C82 1.395 . S
C2057 C43 1.390 . S
C2081 C199 1.398 . S
C2089 C108 1.394 . S
C2113 C166 1.398 . S
C2121 C127 1.394 . S
C2145 C173 1.385 . S
C2153 C134 1.397 . S
C2177 C186 1.393 . S
C2185 C147 1.390 . S
C2209 C218 1.389 . S
C2217 C309 1.391 . S
C2241 C270 1.382 . S
C2249 C231 1.394 . S
C2273 C283 1.384 . S
C2281 C238 1.397 . S
C2305 C296 1.398 . S
C2313 C251 1.391 . S
C2337 C407 1.386 . S
C2345 C316 1.391 . S
C2369 C335 1.396 . S
C2377 C374 1.391 . S
C2401 C348 1.396 . S
C2409 C381 1.396 . S
C2433 C394 1.386 . S
C2441 C355 1.397 . S
