# Generated by pormake.
# Topology ict, (4)-cn, num edge types: 1
# Building blocks:
#     Node 0, Type 0, BuildingBlock: NAHDIM_clean_sbu_0, # of connection points: 4
#     Node 1, Type 0, BuildingBlock: NAHDIM_clean_sbu_0, # of connection points: 4
#     Node 2, Type 0, BuildingBlock: NAHDIM_clean_sbu_0, # of connection points: 4
#     Node 3, Type 0, BuildingBlock: NAHDIM_clean_sbu_0, # of connection points: 4
#     Node 4, Type 0, BuildingBlock: NAHDIM_clean_sbu_0, # of connection points: 4
#     Node 5, Type 0, BuildingBlock: NAHDIM_clean_sbu_0, # of connection points: 4
#     Node 6, Type 0, BuildingBlock: NAHDIM_clean_sbu_0, # of connection points: 4
#     Node 7, Type 0, BuildingBlock: NAHDIM_clean_sbu_0, # of connection points: 4
#     Node 8, Type 0, BuildingBlock: NAHDIM_clean_sbu_0, # of connection points: 4
#     Node 9, Type 0, BuildingBlock: NAHDIM_clean_sbu_0, # of connection points: 4
#     Node 10, Type 0, BuildingBlock: NAHDIM_clean_sbu_0, # of connection points: 4
#     Node 11, Type 0, BuildingBlock: NAHDIM_clean_sbu_0, # of connection points: 4
#     Node 12, Type 0, BuildingBlock: NAHDIM_clean_sbu_0, # of connection points: 4
#     Node 13, Type 0, BuildingBlock: NAHDIM_clean_sbu_0, # of connection points: 4
#     Node 14, Type 0, BuildingBlock: NAHDIM_clean_sbu_0, # of connection points: 4
#     Node 15, Type 0, BuildingBlock: NAHDIM_clean_sbu_0, # of connection points: 4
#     Node 16, Type 0, BuildingBlock: NAHDIM_clean_sbu_0, # of connection points: 4
#     Node 17, Type 0, BuildingBlock: NAHDIM_clean_sbu_0, # of connection points: 4
#     Node 18, Type 0, BuildingBlock: NAHDIM_clean_sbu_0, # of connection points: 4
#     Node 19, Type 0, BuildingBlock: NAHDIM_clean_sbu_0, # of connection points: 4
#     Node 20, Type 0, BuildingBlock: NAHDIM_clean_sbu_0, # of connection points: 4
#     Node 21, Type 0, BuildingBlock: NAHDIM_clean_sbu_0, # of connection points: 4
#     Node 22, Type 0, BuildingBlock: NAHDIM_clean_sbu_0, # of connection points: 4
#     Node 23, Type 0, BuildingBlock: NAHDIM_clean_sbu_0, # of connection points: 4
#     Node 24, Type 0, BuildingBlock: NAHDIM_clean_sbu_0, # of connection points: 4
#     Node 25, Type 0, BuildingBlock: NAHDIM_clean_sbu_0, # of connection points: 4
#     Node 26, Type 0, BuildingBlock: NAHDIM_clean_sbu_0, # of connection points: 4
#     Node 27, Type 0, BuildingBlock: NAHDIM_clean_sbu_0, # of connection points: 4
#     Node 28, Type 0, BuildingBlock: NAHDIM_clean_sbu_0, # of connection points: 4
#     Node 29, Type 0, BuildingBlock: NAHDIM_clean_sbu_0, # of connection points: 4
#     Node 30, Type 0, BuildingBlock: NAHDIM_clean_sbu_0, # of connection points: 4
#     Node 31, Type 0, BuildingBlock: NAHDIM_clean_sbu_0, # of connection points: 4
#     Node 32, Type 0, BuildingBlock: NAHDIM_clean_sbu_0, # of connection points: 4
#     Node 33, Type 0, BuildingBlock: NAHDIM_clean_sbu_0, # of connection points: 4
#     Node 34, Type 0, BuildingBlock: NAHDIM_clean_sbu_0, # of connection points: 4
#     Node 35, Type 0, BuildingBlock: NAHDIM_clean_sbu_0, # of connection points: 4
#     Edge 36, Type (0, 0), BuildingBlock: UVAHIK_clean_linker_0, # of connection points: 2
#     Edge 37, Type (0, 0), BuildingBlock: UVAHIK_clean_linker_0, # of connection points: 2
#     Edge 38, Type (0, 0), BuildingBlock: UVAHIK_clean_linker_0, # of connection points: 2
#     Edge 39, Type (0, 0), BuildingBlock: UVAHIK_clean_linker_0, # of connection points: 2
#     Edge 40, Type (0, 0), BuildingBlock: UVAHIK_clean_linker_0, # of connection points: 2
#     Edge 41, Type (0, 0), BuildingBlock: UVAHIK_clean_linker_0, # of connection points: 2
#     Edge 42, Type (0, 0), BuildingBlock: UVAHIK_clean_linker_0, # of connection points: 2
#     Edge 43, Type (0, 0), BuildingBlock: UVAHIK_clean_linker_0, # of connection points: 2
#     Edge 44, Type (0, 0), BuildingBlock: UVAHIK_clean_linker_0, # of connection points: 2
#     Edge 45, Type (0, 0), BuildingBlock: UVAHIK_clean_linker_0, # of connection points: 2
#     Edge 46, Type (0, 0), BuildingBlock: UVAHIK_clean_linker_0, # of connection points: 2
#     Edge 47, Type (0, 0), BuildingBlock: UVAHIK_clean_linker_0, # of connection points: 2
#     Edge 48, Type (0, 0), BuildingBlock: UVAHIK_clean_linker_0, # of connection points: 2
#     Edge 49, Type (0, 0), BuildingBlock: UVAHIK_clean_linker_0, # of connection points: 2
#     Edge 50, Type (0, 0), BuildingBlock: UVAHIK_clean_linker_0, # of connection points: 2
#     Edge 51, Type (0, 0), BuildingBlock: UVAHIK_clean_linker_0, # of connection points: 2
#     Edge 52, Type (0, 0), BuildingBlock: UVAHIK_clean_linker_0, # of connection points: 2
#     Edge 53, Type (0, 0), BuildingBlock: UVAHIK_clean_linker_0, # of connection points: 2
#     Edge 54, Type (0, 0), BuildingBlock: UVAHIK_clean_linker_0, # of connection points: 2
#     Edge 55, Type (0, 0), BuildingBlock: UVAHIK_clean_linker_0, # of connection points: 2
#     Edge 56, Type (0, 0), BuildingBlock: UVAHIK_clean_linker_0, # of connection points: 2
#     Edge 57, Type (0, 0), BuildingBlock: UVAHIK_clean_linker_0, # of connection points: 2
#     Edge 58, Type (0, 0), BuildingBlock: UVAHIK_clean_linker_0, # of connection points: 2
#     Edge 59, Type (0, 0), BuildingBlock: UVAHIK_clean_linker_0, # of connection points: 2
#     Edge 60, Type (0, 0), BuildingBlock: UVAHIK_clean_linker_0, # of connection points: 2
#     Edge 61, Type (0, 0), BuildingBlock: UVAHIK_clean_linker_0, # of connection points: 2
#     Edge 62, Type (0, 0), BuildingBlock: UVAHIK_clean_linker_0, # of connection points: 2
#     Edge 63, Type (0, 0), BuildingBlock: UVAHIK_clean_linker_0, # of connection points: 2
#     Edge 64, Type (0, 0), BuildingBlock: UVAHIK_clean_linker_0, # of connection points: 2
#     Edge 65, Type (0, 0), BuildingBlock: UVAHIK_clean_linker_0, # of connection points: 2
#     Edge 66, Type (0, 0), BuildingBlock: UVAHIK_clean_linker_0, # of connection points: 2
#     Edge 67, Type (0, 0), BuildingBlock: UVAHIK_clean_linker_0, # of connection points: 2
#     Edge 68, Type (0, 0), BuildingBlock: UVAHIK_clean_linker_0, # of connection points: 2
#     Edge 69, Type (0, 0), BuildingBlock: UVAHIK_clean_linker_0, # of connection points: 2
#     Edge 70, Type (0, 0), BuildingBlock: UVAHIK_clean_linker_0, # of connection points: 2
#     Edge 71, Type (0, 0), BuildingBlock: UVAHIK_clean_linker_0, # of connection points: 2
#     Edge 72, Type (0, 0), BuildingBlock: UVAHIK_clean_linker_0, # of connection points: 2
#     Edge 73, Type (0, 0), BuildingBlock: UVAHIK_clean_linker_0, # of connection points: 2
#     Edge 74, Type (0, 0), BuildingBlock: UVAHIK_clean_linker_0, # of connection points: 2
#     Edge 75, Type (0, 0), BuildingBlock: UVAHIK_clean_linker_0, # of connection points: 2
#     Edge 76, Type (0, 0), BuildingBlock: UVAHIK_clean_linker_0, # of connection points: 2
#     Edge 77, Type (0, 0), BuildingBlock: UVAHIK_clean_linker_0, # of connection points: 2
#     Edge 78, Type (0, 0), BuildingBlock: UVAHIK_clean_linker_0, # of connection points: 2
#     Edge 79, Type (0, 0), BuildingBlock: UVAHIK_clean_linker_0, # of connection points: 2
#     Edge 80, Type (0, 0), BuildingBlock: UVAHIK_clean_linker_0, # of connection points: 2
#     Edge 81, Type (0, 0), BuildingBlock: UVAHIK_clean_linker_0, # of connection points: 2
#     Edge 82, Type (0, 0), BuildingBlock: UVAHIK_clean_linker_0, # of connection points: 2
#     Edge 83, Type (0, 0), BuildingBlock: UVAHIK_clean_linker_0, # of connection points: 2
#     Edge 84, Type (0, 0), BuildingBlock: UVAHIK_clean_linker_0, # of connection points: 2
#     Edge 85, Type (0, 0), BuildingBlock: UVAHIK_clean_linker_0, # of connection points: 2
#     Edge 86, Type (0, 0), BuildingBlock: UVAHIK_clean_linker_0, # of connection points: 2
#     Edge 87, Type (0, 0), BuildingBlock: UVAHIK_clean_linker_0, # of connection points: 2
#     Edge 88, Type (0, 0), BuildingBlock: UVAHIK_clean_linker_0, # of connection points: 2
#     Edge 89, Type (0, 0), BuildingBlock: UVAHIK_clean_linker_0, # of connection points: 2
#     Edge 90, Type (0, 0), BuildingBlock: UVAHIK_clean_linker_0, # of connection points: 2
#     Edge 91, Type (0, 0), BuildingBlock: UVAHIK_clean_linker_0, # of connection points: 2
#     Edge 92, Type (0, 0), BuildingBlock: UVAHIK_clean_linker_0, # of connection points: 2
#     Edge 93, Type (0, 0), BuildingBlock: UVAHIK_clean_linker_0, # of connection points: 2
#     Edge 94, Type (0, 0), BuildingBlock: UVAHIK_clean_linker_0, # of connection points: 2
#     Edge 95, Type (0, 0), BuildingBlock: UVAHIK_clean_linker_0, # of connection points: 2
#     Edge 96, Type (0, 0), BuildingBlock: UVAHIK_clean_linker_0, # of connection points: 2
#     Edge 97, Type (0, 0), BuildingBlock: UVAHIK_clean_linker_0, # of connection points: 2
#     Edge 98, Type (0, 0), BuildingBlock: UVAHIK_clean_linker_0, # of connection points: 2
#     Edge 99, Type (0, 0), BuildingBlock: UVAHIK_clean_linker_0, # of connection points: 2
#     Edge 100, Type (0, 0), BuildingBlock: UVAHIK_clean_linker_0, # of connection points: 2
#     Edge 101, Type (0, 0), BuildingBlock: UVAHIK_clean_linker_0, # of connection points: 2
#     Edge 102, Type (0, 0), BuildingBlock: UVAHIK_clean_linker_0, # of connection points: 2
#     Edge 103, Type (0, 0), BuildingBlock: UVAHIK_clean_linker_0, # of connection points: 2
#     Edge 104, Type (0, 0), BuildingBlock: UVAHIK_clean_linker_0, # of connection points: 2
#     Edge 105, Type (0, 0), BuildingBlock: UVAHIK_clean_linker_0, # of connection points: 2
#     Edge 106, Type (0, 0), BuildingBlock: UVAHIK_clean_linker_0, # of connection points: 2
#     Edge 107, Type (0, 0), BuildingBlock: UVAHIK_clean_linker_0, # of connection points: 2
# Relax obj value: 0.088
# Max RMSD: 0.120
# Mean RMSD: 0.120
data_MOF--net-ict--node1-NAHDIM_clean_sbu_0--edge1-UVAHIK_clean_linker_0
_symmetry_space_group_name_H-M    P1
_symmetry_Int_Tables_number       1
_symmetry_cell_setting            triclinic
loop_
_symmetry_equiv_pos_as_xyz
'x, y, z'
_cell_length_a     85.191146
_cell_length_b     85.205162
_cell_length_c     46.356427
_cell_angle_alpha  90.044553
_cell_angle_beta   89.978141
_cell_angle_gamma 120.02088
loop_
_atom_site_label
_atom_site_type_symbol
_atom_site_fract_x
_atom_site_fract_y
_atom_site_fract_z
_atom_type_partial_charge
C0 C 0.25069 0.25509 0.987 0.0
O1 O 0.23494 0.24669 0.9738 0.0
O2 O 0.20759 0.23251 0.02794 0.0
Zn3 Zn 0.2307 0.23214 0.03557 0.0
O4 O 0.22746 0.20784 0.02464 0.0
C5 C 0.2315 0.24412 0.09452 0.0
O6 O 0.22165 0.25073 0.08415 0.0
O7 O 0.25174 0.25132 0.01318 0.0
C8 C 0.21974 0.19453 0.04191 0.0
O9 O 0.21366 0.19678 0.06671 0.0
C10 C 0.19655 0.22244 0.00861 0.0
O11 O 0.20061 0.2121 0.99296 0.0
O12 O 0.23686 0.23598 0.07771 0.0
C13 C 0.7466 0.99514 0.98944 0.0
O14 O 0.75463 0.98762 0.97562 0.0
O15 O 0.76699 0.97166 0.02563 0.0
Zn16 Zn 0.76816 0.99499 0.03756 0.0
O17 O 0.79309 0.01622 0.03049 0.0
C18 C 0.77505 0.99488 0.09725 0.0
O19 O 0.78981 0.99579 0.08671 0.0
O20 O 0.75007 -0.00098 0.01598 0.0
C21 C 0.79607 0.03225 0.03436 0.0
O22 O 0.78265 0.03464 0.04257 0.0
C23 C 0.77966 0.9717 0.01107 0.0
O24 O 0.79349 0.98724 0.00288 0.0
O25 O 0.76314 0.99411 0.07993 0.0
C26 C 0.99426 0.74916 0.99022 0.0
O27 O -0.00238 0.76369 0.97551 0.0
O28 O 0.02054 0.79337 0.02758 0.0
Zn29 Zn 0.99673 0.77153 0.03841 0.0
O30 O 0.97578 0.77527 0.02829 0.0
C31 C 0.00969 0.77023 0.096 0.0
O32 O 0.02561 0.77699 0.08349 0.0
O33 O 0.99354 0.7495 0.01756 0.0
C34 C 0.96899 0.78102 0.0471 0.0
O35 O 0.97617 0.7851 0.07302 0.0
C36 C 0.02488 0.80895 0.03741 0.0
O37 O 0.01354 0.81067 0.05451 0.0
O38 O 0.99591 0.76689 0.08094 0.0
C39 C 0.24448 0.2426 0.50672 0.0
O40 O 0.23484 0.22688 0.5196 0.0
O41 O 0.22324 0.20015 0.46511 0.0
Zn42 Zn 0.22319 0.22332 0.45658 0.0
O43 O 0.19871 0.22039 0.46544 0.0
C44 C 0.23967 0.22705 0.40023 0.0
O45 O 0.24842 0.21991 0.41292 0.0
O46 O 0.24195 0.24399 0.48007 0.0
C47 C 0.18668 0.21568 0.44595 0.0
O48 O 0.19023 0.21245 0.41975 0.0
C49 C 0.21168 0.18837 0.48219 0.0
O50 O 0.19971 0.19153 0.49475 0.0
O51 O 0.22855 0.22968 0.41474 0.0
C52 C 0.75271 0.00516 0.50739 0.0
O53 O 0.76784 0.01282 0.52233 0.0
O54 O 0.79764 0.02696 0.4764 0.0
Zn55 Zn 0.77588 0.00382 0.46318 0.0
O56 O 0.77867 0.98237 0.47289 0.0
C57 C 0.76093 0.002 0.4055 0.0
O58 O 0.746 -0.00132 0.41896 0.0
O59 O 0.75298 0.00053 0.48142 0.0
C60 C 0.76512 0.96662 0.46904 0.0
O61 O 0.74982 0.96504 0.45974 0.0
C62 C 0.80783 0.02759 0.4969 0.0
O63 O 0.80393 0.01262 0.51076 0.0
O64 O 0.77469 0.00467 0.42005 0.0
C65 C 0.00549 0.75862 0.5103 0.0
O66 O 0.00965 0.7747 0.5202 0.0
O67 O 0.97205 0.7709 0.46873 0.0
Zn68 Zn 0.99579 0.77196 0.46095 0.0
O69 O 0.01654 0.79686 0.46961 0.0
C70 C 0.98426 0.75931 0.40226 0.0
O71 O 0.96788 0.75363 0.4124 0.0
O72 O -0.00139 0.75397 0.48526 0.0
C73 C 0.02009 0.81036 0.45365 0.0
O74 O 0.00958 0.8081 0.43145 0.0
C75 C 0.97029 0.77948 0.48975 0.0
O76 O 0.98418 0.78893 0.5069 0.0
O77 O -0.00223 0.76707 0.41914 0.0
C78 C 0.74655 0.73946 -0.0019 0.0
O79 O 0.7621 0.74315 0.00967 0.0
O80 O 0.79152 0.76816 0.96821 0.0
Zn81 Zn 0.76865 0.76792 0.95631 0.0
O82 O 0.76996 0.79161 0.9663 0.0
C83 C 0.77957 0.77362 0.89729 0.0
O84 O 0.79539 0.7842 0.90932 0.0
O85 O 0.74647 0.74794 0.9756 0.0
C86 C 0.78419 0.807 0.9634 0.0
O87 O 0.7992 0.80784 0.95432 0.0
C88 C 0.80014 0.77564 0.99122 0.0
O89 O 0.7937 0.7831 0.00892 0.0
O90 O 0.76579 0.76466 0.91328 0.0
C91 C 0.24675 -8e-05 0.00595 0.0
O92 O 0.23547 0.00251 0.02184 0.0
O93 O 0.22571 0.0246 0.97376 0.0
Zn94 Zn 0.22465 0.00148 0.96118 0.0
O95 O 0.20122 0.98011 0.97459 0.0
C96 C 0.21165 0.99367 0.90274 0.0
O97 O 0.19589 0.98653 0.91585 0.0
O98 O 0.24511 -0.00055 0.97868 0.0
C99 C 0.19821 0.9642 0.9693 0.0
O100 O 0.2106 0.96219 0.9556 0.0
C101 C 0.21187 0.02635 0.97006 0.0
O102 O 0.19725 0.01294 0.95837 0.0
O103 O 0.22608 0.00101 0.91775 0.0
C104 C 0.99479 0.24591 0.01061 0.0
O105 O 0.98662 0.23047 0.0247 0.0
O106 O 0.97433 0.20188 0.9787 0.0
Zn107 Zn -0.00247 0.22387 0.96563 0.0
O108 O 0.01964 0.22193 0.97583 0.0
C109 C 0.98922 0.21364 0.90559 0.0
O110 O 0.98106 0.19714 0.9162 0.0
O111 O 0.00027 0.24618 0.98502 0.0
C112 C 0.02608 0.21481 0.95889 0.0
O113 O 0.01784 0.20788 0.93432 0.0
C114 C 0.97291 0.18646 0.98263 0.0
O115 O 0.98713 0.18457 0.97848 0.0
O116 O 0.99688 0.2271 0.92264 0.0
C117 C 0.74507 0.74642 0.4846 0.0
O118 O 0.75623 0.7606 0.46917 0.0
O119 O 0.76504 0.79184 0.51588 0.0
Zn120 Zn 0.76574 0.76994 0.53089 0.0
O121 O 0.78988 0.77166 0.52231 0.0
C122 C 0.76684 0.78189 0.58945 0.0
O123 O 0.77486 0.79793 0.57717 0.0
O124 O 0.74631 0.74738 0.51192 0.0
C125 C 0.80293 0.77839 0.54025 0.0
O126 O 0.80092 0.78481 0.56485 0.0
C127 C 0.77941 0.80691 0.51148 0.0
O128 O 0.79523 0.80819 0.51587 0.0
O129 O 0.76143 0.76783 0.57388 0.0
C130 C 0.24472 0.99207 0.48938 0.0
O131 O 0.22918 0.98403 0.47557 0.0
O132 O 0.20037 0.97356 0.52093 0.0
Zn133 Zn 0.2232 0.99581 0.53423 0.0
O134 O 0.22207 0.01826 0.52467 0.0
C135 C 0.21128 0.98529 0.59265 0.0
O136 O 0.19554 0.9758 0.57972 0.0
O137 O 0.24527 0.99775 0.51493 0.0
C138 C 0.20989 0.02094 0.53545 0.0
O139 O 0.19769 0.00866 0.55268 0.0
C140 C 0.19025 0.97374 0.50094 0.0
O141 O 0.19511 0.98888 0.48692 0.0
O142 O 0.22536 0.9948 0.57748 0.0
C143 C 0.00362 0.25401 0.49487 0.0
O144 O 0.01027 0.24512 0.48116 0.0
O145 O 0.02323 0.22967 0.525 0.0
Zn146 Zn 0.00213 0.23125 0.54172 0.0
O147 O 0.97863 0.20759 0.53613 0.0
C148 C 0.01464 0.23106 0.59924 0.0
O149 O 0.02145 0.22204 0.58642 0.0
O150 O -0.00047 0.25066 0.52139 0.0
C151 C 0.97256 0.19491 0.55469 0.0
O152 O 0.98188 0.19697 0.57832 0.0
C153 C 0.02229 0.21458 0.5197 0.0
O154 O 0.0071 0.19946 0.52485 0.0
O155 O 0.00612 0.23689 0.58428 0.0
C156 C 0.916 0.58262 0.31991 0.0
O157 O 0.90029 0.57472 0.30658 0.0
O158 O 0.87247 0.55815 0.35748 0.0
Zn159 Zn 0.89565 0.55832 0.36691 0.0
O160 O 0.89329 0.53431 0.35674 0.0
C161 C 0.89478 0.57038 0.4251 0.0
O162 O 0.88555 0.57722 0.41312 0.0
O163 O 0.91697 0.57797 0.34559 0.0
C164 C 0.88244 0.52028 0.37099 0.0
O165 O 0.87272 0.52176 0.39169 0.0
C166 C 0.86167 0.5479 0.33805 0.0
O167 O 0.86593 0.53747 0.32307 0.0
O168 O 0.90049 0.56202 0.40947 0.0
C169 C 0.41641 0.33458 0.31613 0.0
O170 O 0.42787 0.33219 0.30036 0.0
O171 O 0.434 0.3067 0.35137 0.0
Zn172 Zn 0.43644 0.3306 0.36253 0.0
O173 O 0.46101 0.35114 0.35151 0.0
C174 C 0.42348 0.31794 0.42055 0.0
O175 O 0.41361 0.30214 0.40796 0.0
O176 O 0.41733 0.33411 0.34342 0.0
C177 C 0.46526 0.36675 0.36107 0.0
O178 O 0.45341 0.36856 0.37677 0.0
C179 C 0.44526 0.30247 0.36143 0.0
O180 O 0.45832 0.31399 0.37838 0.0
O181 O 0.43396 0.33163 0.40538 0.0
C182 C 0.66416 0.08174 0.31851 0.0
O183 O 0.66896 0.0974 0.30621 0.0
O184 O 0.68582 0.12395 0.35848 0.0
Zn185 Zn 0.66304 0.10078 0.36873 0.0
O186 O 0.64121 0.1032 0.35986 0.0
C187 C 0.67666 0.09892 0.42554 0.0
O188 O 0.69251 0.1063 0.41264 0.0
O189 O 0.66124 0.08006 0.34551 0.0
C190 C 0.63463 0.10913 0.37873 0.0
O191 O 0.64244 0.11402 0.40414 0.0
C192 C 0.69085 0.13825 0.37328 0.0
O193 O 0.68111 0.13769 0.39564 0.0
O194 O 0.66264 0.09531 0.41095 0.0
C195 C 0.91106 0.58171 0.83819 0.0
O196 O 0.90222 0.56613 0.85176 0.0
O197 O 0.88764 0.5382 0.80038 0.0
Zn198 Zn 0.88775 0.5613 0.79062 0.0
O199 O 0.86385 0.55924 0.80067 0.0
C200 C 0.90203 0.56224 0.7337 0.0
O201 O 0.91088 0.55544 0.74708 0.0
O202 O 0.90739 0.58263 0.8119 0.0
C203 C 0.84966 0.5487 0.78647 0.0
O204 O 0.85074 0.53881 0.76564 0.0
C205 C 0.87701 0.52712 0.81918 0.0
O206 O 0.86597 0.53095 0.83328 0.0
O207 O 0.89156 0.56589 0.74807 0.0
C208 C 0.41711 0.32822 0.83478 0.0
O209 O 0.43109 0.33022 0.84975 0.0
O210 O 0.46178 0.35311 0.79577 0.0
Zn211 Zn 0.43912 0.32961 0.78649 0.0
O212 O 0.44221 0.30847 0.7971 0.0
C213 C 0.439 0.34145 0.72777 0.0
O214 O 0.44785 0.35782 0.73888 0.0
O215 O 0.41768 0.32784 0.80743 0.0
C216 C 0.42858 0.29256 0.79595 0.0
O217 O 0.41272 0.29043 0.78869 0.0
C218 C 0.47282 0.35402 0.81504 0.0
O219 O 0.46927 0.33932 0.82941 0.0
O220 O 0.43407 0.32779 0.74405 0.0
C221 C 0.6692 0.08613 0.84003 0.0
O222 O 0.66849 0.09901 0.85455 0.0
O223 O 0.64247 0.10439 0.79968 0.0
Zn224 Zn 0.66618 0.10539 0.79128 0.0
O225 O 0.68715 0.12965 0.80247 0.0
C226 C 0.65487 0.09283 0.73263 0.0
O227 O 0.63848 0.08485 0.74372 0.0
O228 O 0.66806 0.08592 0.8127 0.0
C229 C 0.69018 0.14369 0.78842 0.0
O230 O 0.67918 0.14208 0.76731 0.0
C231 C 0.64107 0.11374 0.81983 0.0
O232 O 0.65533 0.12411 0.83573 0.0
O233 O 0.66842 0.1021 0.7489 0.0
C234 C 0.41246 0.07998 0.34037 0.0
O235 O 0.42595 0.09273 0.35522 0.0
O236 O 0.45802 0.09997 0.30408 0.0
Zn237 Zn 0.43537 0.10054 0.29377 0.0
O238 O 0.43758 0.12417 0.30637 0.0
C239 C 0.44188 0.11273 0.23576 0.0
O240 O 0.45326 0.12786 0.249 0.0
O241 O 0.41353 0.08018 0.31302 0.0
C242 C 0.42524 0.12768 0.29941 0.0
O243 O 0.41121 0.11563 0.28458 0.0
C244 C 0.46844 0.10955 0.32439 0.0
O245 O 0.46417 0.1199 0.33961 0.0
O246 O 0.43235 0.09856 0.25068 0.0
C247 C 0.91331 0.32951 0.34113 0.0
O248 O 0.90122 0.33144 0.35593 0.0
O249 O 0.89105 0.3518 0.30273 0.0
Zn250 Zn 0.89132 0.32878 0.29382 0.0
O251 O 0.8681 0.30709 0.30683 0.0
C252 C 0.90202 0.34044 0.23497 0.0
O253 O 0.9099 0.35668 0.24661 0.0
O254 O 0.91207 0.32849 0.31381 0.0
C255 C 0.85327 0.30284 0.29418 0.0
O256 O 0.8533 0.31299 0.27283 0.0
C257 C 0.88093 0.35261 0.32214 0.0
O258 O 0.87044 0.33806 0.33738 0.0
O259 O 0.89352 0.32663 0.25106 0.0
C260 C 0.66513 0.57761 0.33756 0.0
O261 O 0.65845 0.56203 0.35111 0.0
O262 O 0.64413 0.53474 0.29762 0.0
Zn263 Zn 0.66806 0.55727 0.28995 0.0
O264 O 0.68897 0.55404 0.30168 0.0
C265 C 0.65693 0.56136 0.23325 0.0
O266 O 0.64158 0.55662 0.24658 0.0
O267 O 0.66982 0.5786 0.3113 0.0
C268 C 0.69292 0.54383 0.28716 0.0
O269 O 0.68272 0.53488 0.26501 0.0
C270 C 0.64207 0.52272 0.31584 0.0
O271 O 0.65607 0.52495 0.33098 0.0
O272 O 0.67022 0.56261 0.24757 0.0
C273 C 0.41326 0.0765 0.82281 0.0
O274 O 0.42379 0.09088 0.80727 0.0
O275 O 0.43397 0.12148 0.85207 0.0
Zn276 Zn 0.43513 0.10003 0.86803 0.0
O277 O 0.45919 0.10179 0.85898 0.0
C278 C 0.43578 0.11311 0.92565 0.0
O279 O 0.44237 0.12867 0.91208 0.0
O280 O 0.41542 0.07721 0.84999 0.0
C281 C 0.47269 0.10964 0.87594 0.0
O282 O 0.4711 0.11713 0.8997 0.0
C283 C 0.44802 0.13646 0.84584 0.0
O284 O 0.46409 0.13809 0.84897 0.0
O285 O 0.43147 0.09882 0.91121 0.0
C286 C 0.91145 0.33559 0.82105 0.0
O287 O 0.89753 0.33367 0.80599 0.0
O288 O 0.86654 0.31228 0.85912 0.0
Zn289 Zn 0.88969 0.33523 0.86891 0.0
O290 O 0.88783 0.35709 0.85811 0.0
C291 C 0.88956 0.3221 0.92643 0.0
O292 O 0.88205 0.30626 0.91349 0.0
O293 O 0.91094 0.33626 0.84839 0.0
C294 C 0.87689 0.36045 0.87171 0.0
O295 O 0.86674 0.34927 0.89212 0.0
C296 C 0.85568 0.31165 0.83976 0.0
O297 O 0.85972 0.32637 0.82505 0.0
O298 O 0.894 0.33625 0.9116 0.0
C299 C 0.66164 0.58353 0.81833 0.0
O300 O 0.66728 0.57384 0.8044 0.0
O301 O 0.68373 0.56184 0.85626 0.0
Zn302 Zn 0.66069 0.56172 0.86665 0.0
O303 O 0.63906 0.53758 0.85698 0.0
C304 C 0.67409 0.57248 0.92505 0.0
O305 O 0.68993 0.57749 0.91326 0.0
O306 O 0.65847 0.58098 0.84521 0.0
C307 C 0.63579 0.52354 0.87123 0.0
O308 O 0.64692 0.52497 0.89201 0.0
C309 C 0.68412 0.55117 0.83746 0.0
O310 O 0.66916 0.53998 0.82368 0.0
O311 O 0.66002 0.5657 0.90925 0.0
C312 C 0.58093 0.91768 0.64626 0.0
O313 O 0.56742 0.90536 0.63086 0.0
O314 O 0.53499 0.89755 0.68031 0.0
Zn315 Zn 0.55737 0.89677 0.69183 0.0
O316 O 0.55541 0.8732 0.67947 0.0
C317 C 0.54901 0.88444 0.74952 0.0
O318 O 0.53718 0.86973 0.73579 0.0
O319 O 0.57959 0.91712 0.67358 0.0
C320 C 0.56648 0.86867 0.68939 0.0
O321 O 0.57922 0.87966 0.7073 0.0
C322 C 0.52328 0.88599 0.66313 0.0
O323 O 0.52609 0.87348 0.65175 0.0
O324 O 0.55955 0.89847 0.73502 0.0
C325 C 0.08927 0.66965 0.64936 0.0
O326 O 0.10482 0.67254 0.63886 0.0
O327 O 0.1022 0.63732 0.68989 0.0
Zn328 Zn 0.10302 0.66085 0.69894 0.0
O329 O 0.12777 0.68191 0.69047 0.0
C330 C 0.09284 0.64917 0.75848 0.0
O331 O 0.08991 0.6334 0.74897 0.0
O332 O 0.08499 0.6638 0.67502 0.0
C333 C 0.14145 0.68554 0.70604 0.0
O334 O 0.13951 0.67498 0.72801 0.0
C335 C 0.11258 0.6365 0.67101 0.0
O336 O 0.1238 0.65123 0.65675 0.0
O337 O 0.09807 0.6623 0.74096 0.0
C338 C 0.32726 0.40926 0.65933 0.0
O339 O 0.33025 0.42344 0.64398 0.0
O340 O 0.3498 0.4546 0.69578 0.0
Zn341 Zn 0.32736 0.43129 0.70674 0.0
O342 O 0.30509 0.43263 0.69705 0.0
C343 C 0.34151 0.43414 0.7645 0.0
O344 O 0.35731 0.44354 0.75173 0.0
O345 O 0.32602 0.40979 0.68657 0.0
C346 C 0.30196 0.44381 0.7104 0.0
O347 O 0.31365 0.45458 0.72979 0.0
C348 C 0.34977 0.46488 0.67597 0.0
O349 O 0.33479 0.45995 0.66138 0.0
O350 O 0.32713 0.42756 0.74947 0.0
C351 C 0.58193 0.91623 0.16238 0.0
O352 O 0.57241 0.90168 0.17817 0.0
O353 O 0.56012 0.87089 0.13144 0.0
Zn354 Zn 0.5589 0.89265 0.11757 0.0
O355 O 0.53498 0.89061 0.12795 0.0
C356 C 0.55648 0.88004 0.05934 0.0
O357 O 0.55005 0.86435 0.07245 0.0
O358 O 0.5788 0.9155 0.13547 0.0
C359 C 0.52005 0.87803 0.11796 0.0
O360 O 0.52013 0.86568 0.10111 0.0
C361 C 0.55085 0.86093 0.15236 0.0
O362 O 0.54005 0.86503 0.16663 0.0
O363 O 0.56148 0.89427 0.07432 0.0
C364 C 0.08362 0.66604 0.17036 0.0
O365 O 0.0975 0.66766 0.1852 0.0
O366 O 0.12862 0.69079 0.13145 0.0
Zn367 Zn 0.1057 0.6674 0.12252 0.0
O368 O 0.10809 0.64598 0.13416 0.0
C369 C 0.10297 0.67834 0.0642 0.0
O370 O 0.10819 0.69422 0.07603 0.0
O371 O 0.08428 0.66603 0.14299 0.0
C372 C 0.1186 0.64228 0.11999 0.0
O373 O 0.12814 0.65296 0.09866 0.0
C374 C 0.13965 0.69164 0.1507 0.0
O375 O 0.13585 0.67701 0.16547 0.0
O376 O 0.10103 0.6653 0.07994 0.0
C377 C 0.33003 0.41992 0.17716 0.0
O378 O 0.32322 0.4284 0.19163 0.0
O379 O 0.30806 0.44182 0.13886 0.0
Zn380 Zn 0.33201 0.4434 0.13037 0.0
O381 O 0.35272 0.4676 0.14249 0.0
C382 C 0.32117 0.42994 0.0722 0.0
O383 O 0.30512 0.41999 0.08399 0.0
O384 O 0.3343 0.42391 0.15084 0.0
C385 C 0.35747 0.48149 0.12682 0.0
O386 O 0.3484 0.47988 0.10302 0.0
C387 C 0.3068 0.45223 0.15722 0.0
O388 O 0.32135 0.46396 0.17137 0.0
O389 O 0.33442 0.44074 0.08791 0.0
C390 C 0.0794 0.40875 0.67259 0.0
O391 O 0.09478 0.41714 0.6868 0.0
O392 O 0.12374 0.43156 0.63962 0.0
Zn393 Zn 0.10138 0.43188 0.62628 0.0
O394 O 0.10318 0.45593 0.63507 0.0
C395 C 0.11277 0.43339 0.56761 0.0
O396 O 0.12882 0.44103 0.57986 0.0
O397 O 0.0791 0.41251 0.64615 0.0
C398 C 0.11489 0.4706 0.62314 0.0
O399 O 0.12659 0.4703 0.60504 0.0
C400 C 0.13472 0.44254 0.6582 0.0
O401 O 0.13124 0.4544 0.67036 0.0
O402 O 0.09874 0.42788 0.58329 0.0
C403 C 0.5709 0.66194 0.6723 0.0
O404 O 0.56086 0.66641 0.68794 0.0
O405 O 0.55112 0.68667 0.63651 0.0
Zn406 Zn 0.54861 0.66256 0.62618 0.0
O407 O 0.52438 0.64188 0.63859 0.0
C408 C 0.56417 0.67283 0.56916 0.0
O409 O 0.57688 0.68713 0.58265 0.0
O410 O 0.56821 0.65982 0.64528 0.0
C411 C 0.51065 0.63633 0.62218 0.0
O412 O 0.51232 0.64476 0.59767 0.0
C413 C 0.54354 0.69341 0.62131 0.0
O414 O 0.53382 0.68435 0.59885 0.0
O415 O 0.55089 0.66078 0.58344 0.0
C416 C 0.32262 0.90942 0.67136 0.0
O417 O 0.31654 0.89389 0.68481 0.0
O418 O 0.30364 0.86572 0.63486 0.0
Zn419 Zn 0.32548 0.88939 0.62318 0.0
O420 O 0.34858 0.88908 0.63136 0.0
C421 C 0.31791 0.87961 0.56349 0.0
O422 O 0.31076 0.86321 0.57434 0.0
O423 O 0.32669 0.91047 0.64478 0.0
C424 C 0.35131 0.87664 0.62192 0.0
O425 O 0.3385 0.86317 0.60715 0.0
C426 C 0.3041 0.85556 0.65451 0.0
O427 O 0.31923 0.8608 0.66883 0.0
O428 O 0.32459 0.89317 0.58042 0.0
C429 C 0.08069 0.41597 0.15329 0.0
O430 O 0.09364 0.42927 0.13842 0.0
O431 O 0.10148 0.46179 0.1895 0.0
Zn432 Zn 0.10086 0.43866 0.20091 0.0
O433 O 0.1245 0.43977 0.19118 0.0
C434 C 0.10357 0.44859 0.26077 0.0
O435 O 0.11212 0.46504 0.24998 0.0
O436 O 0.08072 0.4172 0.1806 0.0
C437 C 0.13953 0.45247 0.20065 0.0
O438 O 0.13968 0.46541 0.21625 0.0
C439 C 0.11163 0.47214 0.16959 0.0
O440 O 0.12185 0.46747 0.1549 0.0
O441 O 0.09706 0.43505 0.24381 0.0
C442 C 0.582 0.66955 0.15371 0.0
O443 O 0.56858 0.66997 0.14046 0.0
O444 O 0.53754 0.64628 0.19119 0.0
Zn445 Zn 0.56128 0.66781 0.2034 0.0
O446 O 0.56081 0.69086 0.19558 0.0
C447 C 0.55694 0.6528 0.26144 0.0
O448 O 0.54438 0.63765 0.24968 0.0
O449 O 0.58172 0.66839 0.18104 0.0
C450 C 0.55641 0.69834 0.21526 0.0
O451 O 0.55205 0.69085 0.24093 0.0
C452 C 0.52259 0.64458 0.19978 0.0
O453 O 0.52281 0.65701 0.21682 0.0
O454 O 0.56575 0.66675 0.24576 0.0
C455 C 0.33471 0.91808 0.15043 0.0
O456 O 0.34023 0.9084 0.13615 0.0
O457 O 0.35639 0.89553 0.18511 0.0
Zn458 Zn 0.33379 0.89572 0.19766 0.0
O459 O 0.31134 0.87184 0.18858 0.0
C460 C 0.34303 0.8942 0.25674 0.0
O461 O 0.35146 0.88645 0.24492 0.0
O462 O 0.33158 0.91534 0.1773 0.0
C463 C 0.30797 0.85717 0.20094 0.0
O464 O 0.31962 0.85738 0.21971 0.0
C465 C 0.35622 0.88411 0.16727 0.0
O466 O 0.34082 0.87221 0.15531 0.0
O467 O 0.33474 0.89978 0.24065 0.0
C468 C 0.38515 0.3221 0.83337 0.0
C469 C 0.4004 0.32516 0.8495 0.0
C470 C 0.36893 0.31787 0.84715 0.0
C471 C 0.34891 0.31837 0.91789 0.0
H472 H 0.30583 0.27701 0.88666 0.0
C473 C 0.28436 0.27522 0.98465 0.0
C474 C 0.2674 0.26737 0.97088 0.0
C475 C 0.30032 0.2852 0.96891 0.0
C476 C 0.31762 0.28881 0.89539 0.0
H477 H 0.41075 0.3268 0.89281 0.0
H478 H 0.38237 0.31924 0.91685 0.0
H479 H 0.33439 0.28917 0.8608 0.0
H480 H 0.25386 0.26468 0.93003 0.0
H481 H 0.28176 0.28231 0.90257 0.0
H482 H 0.33215 0.31771 0.95285 0.0
C483 C 0.38302 0.32028 0.89354 0.0
C484 C 0.33403 0.29577 0.88056 0.0
C485 C 0.39925 0.3245 0.87975 0.0
C486 C 0.26671 0.27043 0.94125 0.0
C487 C 0.2827 0.28045 0.92548 0.0
C488 C 0.33247 0.31142 0.93271 0.0
C489 C 0.36759 0.31662 0.87736 0.0
C490 C 0.34992 0.31042 0.89188 0.0
C491 C 0.29969 0.28762 0.93903 0.0
C492 C 0.3167 0.29635 0.92187 0.0
H493 H 0.38561 0.32263 0.81002 0.0
H494 H 0.35735 0.31537 0.83411 0.0
H495 H 0.36087 0.32984 0.92693 0.0
H496 H 0.28538 0.27316 0.00748 0.0
H497 H 0.31316 0.29035 0.97998 0.0
C498 C 0.67497 0.07365 0.88516 0.0
C499 C 0.67284 0.07296 0.85505 0.0
C500 C 0.6799 0.06222 0.89906 0.0
C501 C 0.70396 0.03745 0.88503 0.0
H502 H 0.68515 0.01596 0.9599 0.0
C503 C 0.73092 0.99636 0.94444 0.0
C504 C 0.73474 0.00036 0.97388 0.0
C505 C 0.72085 0.00253 0.92934 0.0
C506 C 0.6906 0.02195 0.93905 0.0
H507 H 0.67348 0.05918 0.81604 0.0
H508 H 0.68202 0.0392 0.84035 0.0
H509 H 0.67193 0.03171 0.93458 0.0
H510 H 0.73051 0.01351 0.01078 0.0
H511 H 0.71327 0.02449 0.98442 0.0
H512 H 0.72297 0.02821 0.88975 0.0
C513 C 0.6801 0.04875 0.85315 0.0
C514 C 0.68301 0.03095 0.92456 0.0
C515 C 0.67513 0.06015 0.83925 0.0
C516 C 0.72781 0.01018 0.98811 0.0
C517 C 0.71779 0.01638 0.97301 0.0
C518 C 0.71158 0.02851 0.89954 0.0
C519 C 0.68283 0.04986 0.88314 0.0
C520 C 0.68978 0.03901 0.89757 0.0
C521 C 0.71442 0.01286 0.94336 0.0
C522 C 0.70517 0.02088 0.92691 0.0
H523 H 0.67328 0.08335 0.89797 0.0
H524 H 0.68207 0.06353 0.92217 0.0
H525 H 0.70967 0.04374 0.86445 0.0
H526 H 0.73596 0.98873 0.93289 0.0
H527 H 0.71825 -0.00064 0.9066 0.0
C528 C 0.98912 0.73113 0.94492 0.0
C529 C 0.99 0.73215 0.97518 0.0
C530 C 0.98365 0.71467 0.93087 0.0
C531 C 0.95631 0.66572 0.94363 0.0
H532 H 0.97645 0.66213 0.87054 0.0
C533 C 0.9271 0.59773 0.88354 0.0
C534 C 0.92386 0.59837 0.85397 0.0
C535 C 0.93781 0.6137 0.899 0.0
C536 C 0.97065 0.66294 0.89089 0.0
H537 H 0.98663 0.71685 0.01438 0.0
H538 H 0.97725 0.68821 0.98984 0.0
H539 H 0.99051 0.69097 0.89646 0.0
H540 H 0.92997 0.61624 0.81715 0.0
H541 H 0.9484 0.64404 0.84414 0.0
H542 H 0.93618 0.6379 0.93781 0.0
C543 C 0.9805 0.70007 0.977 0.0
C544 C 0.9787 0.67945 0.90572 0.0
C545 C 0.98595 0.71651 0.99104 0.0
C546 C 0.93216 0.61526 0.83994 0.0
C547 C 0.94284 0.63121 0.85538 0.0
C548 C 0.94827 0.64925 0.92881 0.0
C549 C 0.97897 0.69889 0.94679 0.0
C550 C 0.97146 0.68108 0.93206 0.0
C551 C 0.9455 0.63065 0.8852 0.0
C552 C 0.95517 0.64772 0.90208 0.0
H553 H 0.99217 0.74294 0.93207 0.0
H554 H 0.98245 0.71418 0.90759 0.0
H555 H 0.95022 0.66659 0.96363 0.0
H556 H 0.92102 0.58493 0.89496 0.0
H557 H 0.93984 0.61279 0.92186 0.0
C558 C 0.31898 0.37663 0.66138 0.0
C559 C 0.32356 0.39222 0.64498 0.0
C560 C 0.31368 0.36007 0.64782 0.0
C561 C 0.31304 0.33884 0.57767 0.0
H562 H 0.26875 0.29832 0.60751 0.0
C563 C 0.26649 0.27589 0.50979 0.0
C564 C 0.25709 0.25891 0.52342 0.0
C565 C 0.2772 0.29156 0.52582 0.0
C566 C 0.28132 0.30936 0.59918 0.0
H567 H 0.32698 0.40282 0.60148 0.0
H568 H 0.3176 0.37389 0.57785 0.0
H569 H 0.28309 0.32697 0.63344 0.0
H570 H 0.25224 0.24496 0.56442 0.0
H571 H 0.27113 0.27235 0.5924 0.0
H572 H 0.31101 0.32128 0.54303 0.0
C573 C 0.31822 0.3745 0.60118 0.0
C574 C 0.28954 0.32581 0.61406 0.0
C575 C 0.32349 0.39106 0.61474 0.0
C576 C 0.2592 0.25786 0.55329 0.0
C577 C 0.26995 0.27355 0.56935 0.0
C578 C 0.30484 0.32235 0.56281 0.0
C579 C 0.31289 0.35874 0.61759 0.0
C580 C 0.30531 0.34083 0.60321 0.0
C581 C 0.27882 0.29062 0.55586 0.0
C582 C 0.28869 0.30752 0.57312 0.0
H583 H 0.31901 0.37708 0.68473 0.0
H584 H 0.3099 0.34822 0.66104 0.0
H585 H 0.32533 0.3501 0.569 0.0
H586 H 0.26519 0.27719 0.4868 0.0
H587 H 0.28365 0.30449 0.51478 0.0
C588 C 0.60012 0.93055 0.60213 0.0
C589 C 0.5981 0.93092 0.63216 0.0
C590 C 0.61684 0.94188 0.58908 0.0
C591 C 0.66538 0.96557 0.60597 0.0
H592 H 0.67028 0.98692 0.5303 0.0
C593 C 0.73486 0.00513 0.55035 0.0
C594 C 0.73531 0.00062 0.52132 0.0
C595 C 0.71831 -0.00049 0.56421 0.0
C596 C 0.66911 0.98098 0.5514 0.0
H597 H 0.61185 0.94409 0.67192 0.0
H598 H 0.64099 0.96396 0.64908 0.0
H599 H 0.64074 0.97196 0.55413 0.0
H600 H 0.71877 0.98725 0.48374 0.0
H601 H 0.68995 0.97725 0.508 0.0
H602 H 0.69357 0.97412 0.60303 0.0
C603 C 0.6297 0.9547 0.63568 0.0
C604 C 0.6522 0.97242 0.56504 0.0
C605 C 0.61298 0.94337 0.64874 0.0
C606 C 0.7189 0.99094 0.50614 0.0
C607 C 0.70236 0.9853 0.52001 0.0
C608 C 0.68225 0.9741 0.59235 0.0
C609 C 0.63192 0.95383 0.60578 0.0
C610 C 0.6501 0.96439 0.5923 0.0
C611 C 0.70187 0.98925 0.54933 0.0
C612 C 0.68427 0.98167 0.56473 0.0
H613 H 0.58893 0.92114 0.58872 0.0
H614 H 0.61813 0.94073 0.56603 0.0
H615 H 0.66418 0.95926 0.62675 0.0
H616 H 0.74726 0.0127 0.5626 0.0
H617 H 0.71839 0.003 0.5867 0.0
C618 C 0.00597 0.72962 0.51667 0.0
C619 C 0.0107 0.74703 0.52666 0.0
C620 C 0.01251 0.71949 0.53062 0.0
C621 C 0.05134 0.72624 0.57291 0.0
H622 H 0.02261 0.67506 0.59122 0.0
C623 C 0.08462 0.68507 0.60711 0.0
C624 C 0.07801 0.67521 0.63286 0.0
C625 C 0.07505 0.6922 0.59318 0.0
C626 C 0.03075 0.68935 0.5862 0.0
H627 H 0.02534 0.76711 0.55985 0.0
H628 H 0.03681 0.74948 0.58395 0.0
H629 H 0.00791 0.69088 0.5702 0.0
H630 H 0.05568 0.66428 0.66334 0.0
H631 H 0.03887 0.67666 0.63873 0.0
H632 H 0.07417 0.72483 0.58874 0.0
C633 C 0.02816 0.74375 0.56525 0.0
C634 C 0.02238 0.69835 0.5741 0.0
C635 C 0.0215 0.75379 0.5515 0.0
C636 C 0.06117 0.67188 0.6436 0.0
C637 C 0.0515 0.67889 0.62948 0.0
C638 C 0.05972 0.71723 0.58463 0.0
C639 C 0.02401 0.72665 0.55463 0.0
C640 C 0.03261 0.71692 0.56752 0.0
C641 C 0.05859 0.68948 0.60453 0.0
C642 C 0.04952 0.69872 0.59144 0.0
H643 H -0.00239 0.72401 0.49764 0.0
H644 H 0.00916 0.70637 0.52195 0.0
H645 H 0.05958 0.74051 0.56774 0.0
H646 H 0.0975 0.68782 0.59818 0.0
H647 H 0.08069 0.70013 0.57376 0.0
C648 C 0.5992 0.67511 0.10746 0.0
C649 C 0.59785 0.67171 0.13727 0.0
C650 C 0.61481 0.67857 0.09236 0.0
C651 C 0.66334 0.69587 0.10444 0.0
H652 H 0.66228 0.68105 0.02501 0.0
C653 C 0.72916 0.71974 0.03992 0.0
C654 C 0.72926 0.72697 0.01263 0.0
C655 C 0.71289 0.70958 0.05495 0.0
C656 C 0.66278 0.68529 0.04718 0.0
H657 H 0.61149 0.66844 0.17436 0.0
H658 H 0.63862 0.67426 0.14792 0.0
H659 H 0.63396 0.66935 0.05193 0.0
H660 H 0.71224 0.72842 0.97911 0.0
H661 H 0.68398 0.71087 0.00536 0.0
H662 H 0.69207 0.71214 0.09953 0.0
C663 C 0.62775 0.67459 0.13632 0.0
C664 C 0.64657 0.67862 0.06258 0.0
C665 C 0.61217 0.67117 0.15144 0.0
C666 C 0.71267 0.72311 0.00014 0.0
C667 C 0.69642 0.71292 0.01511 0.0
C668 C 0.67953 0.70249 0.08908 0.0
C669 C 0.62939 0.67864 0.10671 0.0
C670 C 0.64664 0.68412 0.09121 0.0
C671 C 0.69639 0.70638 0.04294 0.0
C672 C 0.67941 0.69757 0.06011 0.0
H673 H 0.58842 0.67561 0.09589 0.0
H674 H 0.6157 0.68186 0.06963 0.0
H675 H 0.66388 0.7006 0.1263 0.0
H676 H 0.7417 0.72238 0.05008 0.0
H677 H 0.71326 0.70452 0.07621 0.0
C678 C 0.32264 0.93952 0.14969 0.0
C679 C 0.33048 0.93071 0.13497 0.0
C680 C 0.31702 0.95005 0.13466 0.0
C681 C 0.3021 0.95437 0.06226 0.0
H682 H 0.30432 0.99746 0.09446 0.0
C683 C 0.2711 0.99166 0.00272 0.0
C684 C 0.26009 0.99598 0.01965 0.0
C685 C 0.2825 0.98633 0.01571 0.0
C686 C 0.30356 0.98542 0.08524 0.0
H687 H 0.33941 0.9268 0.0931 0.0
H688 H 0.32979 0.94537 0.06693 0.0
H689 H 0.31958 0.9835 0.11917 0.0
H690 H 0.25296 -0.00119 0.06353 0.0
H691 H 0.27272 0.98937 0.08614 0.0
H692 H 0.28579 0.95602 0.0287 0.0
C693 C 0.32768 0.94385 0.09003 0.0
C694 C 0.31229 0.97742 0.09939 0.0
C695 C 0.33327 0.93328 0.10506 0.0
C696 C 0.26124 0.99553 0.04985 0.0
C697 C 0.27266 0.99024 0.06283 0.0
C698 C 0.29342 0.96238 0.04811 0.0
C699 C 0.31916 0.95206 0.10457 0.0
C700 C 0.31142 0.96163 0.08829 0.0
C701 C 0.28316 0.98525 0.0459 0.0
C702 C 0.29381 0.97783 0.05966 0.0
H703 H 0.32031 0.93784 0.17274 0.0
H704 H 0.31033 0.95601 0.1465 0.0
H705 H 0.30089 0.94206 0.05335 0.0
H706 H 0.27062 0.99197 0.97939 0.0
H707 H 0.29062 0.98282 0.00208 0.0
C708 C 0.05429 0.38427 0.15485 0.0
C709 C 0.06731 0.39904 0.13872 0.0
C710 C 0.04286 0.36769 0.14147 0.0
C711 C 0.02597 0.34559 0.07033 0.0
H712 H 0.02315 0.30376 0.10846 0.0
C713 C 0.00874 0.27967 0.0105 0.0
C714 C -0.00115 0.26304 0.02501 0.0
C715 C 0.01392 0.29598 0.02477 0.0
C716 C 0.02346 0.3152 0.09774 0.0
H717 H 0.07796 0.40821 0.09567 0.0
H718 H 0.05814 0.37926 0.0724 0.0
H719 H 0.0378 0.33298 0.13275 0.0
H720 H 0.98594 0.25048 0.06553 0.0
H721 H 0.99485 0.27899 0.09036 0.0
H722 H 0.01199 0.32783 0.03499 0.0
C723 C 0.05666 0.38052 0.09536 0.0
C724 C 0.03188 0.33198 0.11168 0.0
C725 C 0.06811 0.39709 0.10874 0.0
C726 C 0.99367 0.26306 0.05379 0.0
C727 C -0.00116 0.2794 0.06806 0.0
C728 C 0.01751 0.32879 0.05639 0.0
C729 C 0.04416 0.36553 0.11166 0.0
C730 C 0.03352 0.34743 0.09794 0.0
C731 C 0.0093 0.29606 0.05386 0.0
C732 C 0.01646 0.31347 0.06972 0.0
H733 H 0.05323 0.38535 0.17797 0.0
H734 H 0.03318 0.35647 0.15454 0.0
H735 H 0.02679 0.3572 0.05936 0.0
H736 H 0.01294 0.28015 0.98831 0.0
H737 H 0.02215 0.30856 0.01327 0.0
C738 C 0.66461 0.59353 0.38275 0.0
C739 C 0.66854 0.59418 0.35318 0.0
C740 C 0.66924 0.60945 0.39795 0.0
C741 C 0.68347 0.65812 0.38884 0.0
H742 H 0.70816 0.66364 0.4616 0.0
C743 C 0.7319 0.72755 0.44019 0.0
C744 C 0.73232 0.72907 0.4704 0.0
C745 C 0.72107 0.71079 0.42689 0.0
C746 C 0.701 0.66224 0.44159 0.0
H747 H 0.67978 0.61197 0.31615 0.0
H748 H 0.68806 0.63967 0.34269 0.0
H749 H 0.69445 0.63468 0.43657 0.0
H750 H 0.72107 0.71434 0.51029 0.0
H751 H 0.7021 0.68513 0.48702 0.0
H752 H 0.69052 0.6859 0.39357 0.0
C753 C 0.68123 0.62688 0.35412 0.0
C754 C 0.69313 0.64561 0.42723 0.0
C755 C 0.67659 0.61099 0.33893 0.0
C756 C 0.72116 0.71361 0.48697 0.0
C757 C 0.71035 0.69685 0.47365 0.0
C758 C 0.69138 0.67478 0.40321 0.0
C759 C 0.67789 0.62634 0.3839 0.0
C760 C 0.68454 0.64344 0.40045 0.0
C761 C 0.71044 0.69519 0.4435 0.0
C762 C 0.70049 0.6771 0.42951 0.0
H763 H 0.6583 0.58079 0.39432 0.0
H764 H 0.66627 0.60855 0.4208 0.0
H765 H 0.67671 0.6568 0.36846 0.0
H766 H 0.74031 0.7392 0.4268 0.0
H767 H 0.72159 0.70994 0.40362 0.0
C768 C 0.27851 0.00606 0.48833 0.0
C769 C 0.26167 0.99607 0.47441 0.0
C770 C 0.29463 0.01141 0.47332 0.0
C771 C 0.31252 0.02148 0.39959 0.0
H772 H 0.35549 0.02524 0.43505 0.0
C773 C 0.38067 0.05367 0.33926 0.0
C774 C 0.39568 0.06652 0.35517 0.0
C775 C 0.36433 0.04202 0.35311 0.0
C776 C 0.34361 0.02431 0.42489 0.0
H777 H 0.24855 0.98307 0.43421 0.0
H778 H 0.2767 0.9923 0.4081 0.0
H779 H 0.32661 0.00999 0.46078 0.0
H780 H 0.40552 0.07672 0.39821 0.0
H781 H 0.37699 0.05659 0.42226 0.0
H782 H 0.32953 0.03621 0.36408 0.0
C783 C 0.27742 0.99624 0.4305 0.0
C784 C 0.32708 0.01558 0.43962 0.0
C785 C 0.26129 0.99089 0.44551 0.0
C786 C 0.39421 0.067 0.3853 0.0
C787 C 0.37787 0.05536 0.39914 0.0
C788 C 0.32902 0.0302 0.38489 0.0
C789 C 0.29428 0.00688 0.44406 0.0
C790 C 0.31141 0.01436 0.42734 0.0
C791 C 0.36265 0.04296 0.38315 0.0
C792 C 0.34483 0.03201 0.39758 0.0
H793 H 0.27929 0.01025 0.51059 0.0
H794 H 0.30737 0.01975 0.48434 0.0
H795 H 0.30079 0.02104 0.38969 0.0
H796 H 0.3814 0.05286 0.31602 0.0
H797 H 0.35291 0.03244 0.34024 0.0
C798 C 0.93939 0.32373 0.34036 0.0
C799 C 0.92709 0.32681 0.35615 0.0
C800 C 0.9512 0.3194 0.3545 0.0
C801 C 0.97058 0.31895 0.42602 0.0
H802 H 0.97177 0.2774 0.39447 0.0
C803 C 0.9902 0.27428 0.4928 0.0
C804 C -0.00067 0.26646 0.479 0.0
C805 C 0.98452 0.28455 0.47714 0.0
C806 C 0.97191 0.28924 0.40332 0.0
H807 H 0.91816 0.32859 0.39925 0.0
H808 H 0.93862 0.32084 0.42387 0.0
H809 H 0.95629 0.29035 0.36817 0.0
H810 H 0.01051 0.2641 0.43824 0.0
H811 H 0.00079 0.2822 0.41101 0.0
H812 H 0.98586 0.3175 0.46157 0.0
C813 C 0.93924 0.32192 0.40057 0.0
C814 C 0.96302 0.29667 0.38822 0.0
C815 C 0.92742 0.32624 0.38643 0.0
C816 C 0.00336 0.2698 0.44948 0.0
C817 C -0.00229 0.2801 0.43383 0.0
C818 C 0.97952 0.31151 0.44114 0.0
C819 C 0.951 0.31807 0.38473 0.0
C820 C 0.96199 0.31142 0.3996 0.0
C821 C 0.98789 0.28727 0.44735 0.0
C822 C 0.98003 0.29638 0.43017 0.0
H823 H 0.93959 0.3242 0.317 0.0
H824 H 0.9603 0.31679 0.34171 0.0
H825 H 0.97024 0.33048 0.43515 0.0
H826 H 0.9869 0.27199 0.51554 0.0
H827 H 0.97682 0.28971 0.48818 0.0
C828 C 0.06541 0.66085 0.21539 0.0
C829 C 0.06678 0.66248 0.18521 0.0
C830 C 0.04896 0.65573 0.22919 0.0
C831 C 0.00012 0.63018 0.21495 0.0
H832 H 0.99669 0.64824 0.29011 0.0
C833 C 0.93208 0.59986 0.27535 0.0
C834 C 0.93272 0.59566 0.30449 0.0
C835 C 0.94808 0.61091 0.26017 0.0
C836 C -0.00256 0.64303 0.26915 0.0
H837 H 0.05217 0.66091 0.14596 0.0
H838 H 0.02351 0.6521 0.1701 0.0
H839 H 0.02564 0.66262 0.26453 0.0
H840 H 0.95061 0.60038 0.34084 0.0
H841 H 0.97842 0.61938 0.31431 0.0
H842 H 0.97214 0.61027 0.21983 0.0
C843 C 0.03509 0.65451 0.18304 0.0
C844 C 0.01401 0.65126 0.25452 0.0
C845 C 0.05154 0.65963 0.16924 0.0
C846 C 0.94963 0.60331 0.31839 0.0
C847 C 0.96559 0.61433 0.30322 0.0
C848 C 0.98358 0.62195 0.22957 0.0
C849 C 0.03352 0.65214 0.21311 0.0
C850 C 0.01561 0.64472 0.22747 0.0
C851 C 0.96503 0.61799 0.2738 0.0
C852 C 0.98212 0.62806 0.25707 0.0
H853 H 0.0769 0.66298 0.22834 0.0
H854 H 0.04816 0.65386 0.25236 0.0
H855 H 0.00094 0.62462 0.19435 0.0
H856 H 0.91927 0.59429 0.26406 0.0
H857 H 0.94718 0.61369 0.23762 0.0
C858 C 0.40323 0.3409 0.27236 0.0
C859 C 0.40351 0.33914 0.30246 0.0
C860 C 0.39203 0.34658 0.25967 0.0
C861 C 0.37013 0.37313 0.27655 0.0
H862 H 0.34578 0.35447 0.20338 0.0
C863 C 0.33067 0.40333 0.2214 0.0
C864 C 0.33422 0.40704 0.19183 0.0
C865 C 0.33615 0.39243 0.23569 0.0
C866 C 0.35256 0.35986 0.22377 0.0
H867 H 0.39171 0.34126 0.34277 0.0
H868 H 0.37214 0.35107 0.32057 0.0
H869 H 0.36095 0.34005 0.22694 0.0
H870 H 0.34567 0.40162 0.15385 0.0
H871 H 0.35543 0.3829 0.1788 0.0
H872 H 0.36225 0.39324 0.27308 0.0
C873 C 0.38075 0.3483 0.30683 0.0
C874 C 0.36124 0.3516 0.23725 0.0
C875 C 0.39192 0.3426 0.31952 0.0
C876 C 0.34274 0.39907 0.17666 0.0
C877 C 0.34824 0.38821 0.19094 0.0
C878 C 0.3615 0.3814 0.26306 0.0
C879 C 0.3809 0.35064 0.27681 0.0
C880 C 0.37035 0.35832 0.26358 0.0
C881 C 0.3453 0.38502 0.22072 0.0
C882 C 0.35285 0.37504 0.2363 0.0
H883 H 0.41197 0.33833 0.2586 0.0
H884 H 0.3926 0.34843 0.2365 0.0
H885 H 0.37725 0.3788 0.29661 0.0
H886 H 0.32402 0.40917 0.23367 0.0
H887 H 0.33345 0.39001 0.25857 0.0
C888 C 0.60423 0.94954 0.15967 0.0
C889 C 0.59499 0.93362 0.17614 0.0
C890 C 0.61531 0.96622 0.17307 0.0
C891 C 0.63862 0.98756 0.24181 0.0
H892 H 0.63074 0.02662 0.21755 0.0
C893 C 0.65443 0.04883 0.31386 0.0
C894 C 0.66068 0.06584 0.30086 0.0
C895 C 0.6496 0.03348 0.29701 0.0
C896 C 0.6334 0.016 0.22427 0.0
H897 H 0.59072 0.92262 0.21949 0.0
H898 H 0.60985 0.9517 0.24283 0.0
H899 H 0.61665 -0.00175 0.19082 0.0
H900 H 0.66753 0.0802 0.26003 0.0
H901 H 0.65922 0.0534 0.23064 0.0
H902 H 0.65502 0.00522 0.27576 0.0
C903 C 0.60869 0.9513 0.21955 0.0
C904 C 0.62531 -0.00029 0.20893 0.0
C905 C 0.59761 0.93463 0.20616 0.0
C906 C 0.66264 0.06728 0.27071 0.0
C907 C 0.6578 0.05191 0.25385 0.0
C908 C 0.64674 0.00387 0.25716 0.0
C909 C 0.6174 0.96733 0.20321 0.0
C910 C 0.62756 0.98519 0.21781 0.0
C911 C 0.65092 0.03479 0.26678 0.0
C912 C 0.64395 0.01816 0.24886 0.0
H913 H 0.6026 0.94921 0.13647 0.0
H914 H 0.62204 0.97829 0.15985 0.0
H915 H 0.64084 0.97672 0.24893 0.0
H916 H 0.65279 0.04725 0.33703 0.0
H917 H 0.64415 0.02047 0.30765 0.0
C918 C 0.33478 0.94292 0.67382 0.0
C919 C 0.32666 0.92598 0.68765 0.0
C920 C 0.3405 0.9588 0.68973 0.0
C921 C 0.35569 0.97641 0.7627 0.0
H922 H 0.3545 0.01847 0.73364 0.0
C923 C 0.38894 0.04384 0.82523 0.0
C924 C 0.39984 0.0594 0.80872 0.0
C925 C 0.37717 0.02738 0.81178 0.0
C926 C 0.35498 0.00685 0.74199 0.0
H927 H 0.31726 0.91234 0.72884 0.0
H928 H 0.3271 0.94006 0.75656 0.0
H929 H 0.33847 0.98973 0.70763 0.0
H930 H 0.40648 0.07003 0.76515 0.0
H931 H 0.38616 0.04129 0.74172 0.0
H932 H 0.37256 0.99356 0.79659 0.0
C933 C 0.32932 0.94107 0.73346 0.0
C934 C 0.3458 0.9904 0.7271 0.0
C935 C 0.32361 0.92519 0.71754 0.0
C936 C 0.39829 0.05829 0.77851 0.0
C937 C 0.38654 0.04183 0.76507 0.0
C938 C 0.36486 0.99284 0.77756 0.0
C939 C 0.33821 0.95809 0.71983 0.0
C940 C 0.3463 0.97507 0.73705 0.0
C941 C 0.37604 0.02612 0.78153 0.0
C942 C 0.36486 0.00833 0.76712 0.0
H943 H 0.33731 0.94401 0.6508 0.0
H944 H 0.34745 0.97168 0.67858 0.0
H945 H 0.35661 0.96496 0.77071 0.0
H946 H 0.3897 0.04426 0.84856 0.0
H947 H 0.36908 0.01558 0.82508 0.0
C948 C 0.06243 0.39301 0.71744 0.0
C949 C 0.0623 0.39653 0.68786 0.0
C950 C 0.04616 0.38302 0.73252 0.0
C951 C 0.99644 0.35283 0.72344 0.0
H952 H 0.99409 0.37413 0.79611 0.0
C953 C 0.92936 0.33928 0.77614 0.0
C954 C 0.9281 0.33842 0.80639 0.0
C955 C 0.94562 0.34351 0.76242 0.0
C956 C 0.99456 0.36779 0.77612 0.0
H957 H 0.045 0.39163 0.65063 0.0
H958 H 0.01669 0.37447 0.67698 0.0
H959 H 0.02285 0.38646 0.77081 0.0
H960 H 0.94269 0.34051 0.8459 0.0
H961 H 0.97099 0.34776 0.82194 0.0
H962 H 0.96796 0.33446 0.7285 0.0
C963 C 0.02933 0.37924 0.68851 0.0
C964 C 0.01108 0.37486 0.76161 0.0
C965 C 0.04558 0.38919 0.67343 0.0
C966 C 0.94324 0.34121 0.82257 0.0
C967 C 0.95949 0.34544 0.80885 0.0
C968 C 0.97988 0.34576 0.73797 0.0
C969 C 0.02942 0.37636 0.71835 0.0
C970 C 0.01217 0.36764 0.7349 0.0
C971 C 0.96097 0.34698 0.77866 0.0
C972 C 0.97872 0.35334 0.76429 0.0
H973 H 0.07508 0.39834 0.72916 0.0
H974 H 0.0467 0.38078 0.75541 0.0
H975 H 0.99688 0.3468 0.7031 0.0
H976 H 0.91794 0.33717 0.76304 0.0
H977 H 0.94636 0.34475 0.73915 0.0
C978 C 0.64966 0.60502 0.81709 0.0
C979 C 0.65723 0.5959 0.80251 0.0
C980 C 0.64374 0.61521 0.80182 0.0
C981 C 0.6271 0.61758 0.72997 0.0
H982 H 0.62996 0.66149 0.75976 0.0
C983 C 0.5948 0.6531 0.66926 0.0
C984 C 0.58428 0.65811 0.68611 0.0
C985 C 0.60639 0.64808 0.68232 0.0
C986 C 0.62901 0.6492 0.75124 0.0
H987 H 0.66539 0.59112 0.76058 0.0
H988 H 0.65521 0.60908 0.73395 0.0
H989 H 0.64592 0.64829 0.78462 0.0
H990 H 0.57821 0.66244 0.72987 0.0
H991 H 0.59829 0.65345 0.75268 0.0
H992 H 0.60989 0.61819 0.69702 0.0
C993 C 0.65357 0.60807 0.75717 0.0
C994 C 0.63814 0.64165 0.76545 0.0
C995 C 0.65948 0.59786 0.77245 0.0
C996 C 0.5861 0.65862 0.71627 0.0
C997 C 0.5977 0.65358 0.72935 0.0
C998 C 0.618 0.62512 0.71578 0.0
C999 C 0.64528 0.61654 0.77162 0.0
C1000 C 0.63707 0.62561 0.75519 0.0
C1001 C 0.60773 0.64794 0.71252 0.0
C1002 C 0.61864 0.64087 0.72646 0.0
H1003 H 0.64777 0.60383 0.84026 0.0
H1004 H 0.63725 0.6214 0.81359 0.0
H1005 H 0.62571 0.60504 0.72177 0.0
H1006 H 0.59384 0.65271 0.64594 0.0
H1007 H 0.61415 0.64408 0.66876 0.0
C1008 C 0.19747 0.04571 0.97201 0.0
C1009 C 0.21228 0.04332 0.9783 0.0
C1010 C 0.19792 0.06185 0.97925 0.0
C1011 C 0.2203 0.1015 0.02725 0.0
H1012 H 0.20362 0.12373 0.97127 0.0
C1013 C 0.21149 0.16278 0.05488 0.0
C1014 C 0.21812 0.17688 0.03453 0.0
C1015 C 0.21043 0.14628 0.04819 0.0
C1016 C 0.20839 0.11773 0.98706 0.0
H1017 H 0.23912 0.05594 0.9974 0.0
H1018 H 0.23989 0.08414 0.01002 0.0
H1019 H 0.20273 0.09539 0.95937 0.0
H1020 H 0.22864 0.18465 0.99105 0.0
H1021 H 0.22677 0.15585 0.97941 0.0
H1022 H 0.22617 0.12396 0.05481 0.0
C1023 C 0.22789 0.07347 -0.00037 0.0
C1024 C 0.20772 0.10141 0.98037 0.0
C1025 C 0.22748 0.05736 0.99225 0.0
C1026 C 0.22347 0.17406 0.00723 0.0
C1027 C 0.22231 0.15753 0.00049 0.0
C1028 C 0.22087 0.11776 0.03401 0.0
C1029 C 0.21315 0.07592 0.99307 0.0
C1030 C 0.21371 0.09315 0.00035 0.0
C1031 C 0.21587 0.1435 0.02095 0.0
C1032 C 0.21498 0.12608 0.01395 0.0
H1033 H 0.18553 0.03516 0.96133 0.0
H1034 H 0.18627 0.06325 0.97423 0.0
H1035 H 0.22487 0.09537 0.04317 0.0
H1036 H 0.20724 0.1645 0.0761 0.0
H1037 H 0.20522 0.13564 0.06428 0.0
C1038 C 0.94017 0.17273 0.99619 0.0
C1039 C 0.95519 0.17061 0.99029 0.0
C1040 C 0.92327 0.15768 0.00235 0.0
C1041 C 0.89657 0.10848 0.99091 0.0
H1042 H 0.86621 0.11003 0.0519 0.0
C1043 C 0.82912 0.04539 0.02358 0.0
C1044 C 0.81445 0.04797 0.02999 0.0
C1045 C 0.8465 0.06024 0.01961 0.0
C1046 C 0.87444 0.10945 0.03457 0.0
H1047 H 0.96429 0.15102 0.98664 0.0
H1048 H 0.93477 0.12476 0.99741 0.0
H1049 H 0.89624 0.1362 0.04371 0.0
H1050 H 0.80649 0.0682 0.03713 0.0
H1051 H 0.83672 0.0941 0.02969 0.0
H1052 H 0.87474 0.08187 0.98145 0.0
C1053 C 0.93606 0.13806 0.99704 0.0
C1054 C 0.89165 0.12443 0.02993 0.0
C1055 C 0.95299 0.15313 0.99103 0.0
C1056 C 0.81752 0.06574 0.03232 0.0
C1057 C 0.83488 0.08059 0.02824 0.0
C1058 C 0.87934 0.09354 0.99546 0.0
C1059 C 0.921 0.14017 0.00259 0.0
C1060 C 0.90288 0.12412 0.00801 0.0
C1061 C 0.84959 0.07803 0.02184 0.0
C1062 C 0.86803 0.09385 0.0173 0.0
H1063 H 0.94141 0.18602 0.9958 0.0
H1064 H 0.91188 0.15971 0.00627 0.0
H1065 H 0.90481 0.10794 0.97356 0.0
H1066 H 0.82724 0.03187 0.02178 0.0
H1067 H 0.85755 0.05778 0.01512 0.0
C1068 C 0.8251 0.76972 0.97727 0.0
C1069 C 0.81757 0.77646 0.99738 0.0
C1070 C 0.84179 0.7709 0.98264 0.0
C1071 C 0.87312 0.77596 0.0412 0.0
H1072 H 0.9084 0.79039 0.97942 0.0
C1073 C 0.94542 0.78892 0.06117 0.0
C1074 C 0.95257 0.78212 0.04053 0.0
C1075 C 0.92939 0.7891 0.05567 0.0
C1076 C 0.89863 0.78616 0.99682 0.0
H1077 H 0.82163 0.78962 0.03898 0.0
H1078 H 0.8508 0.79168 0.04832 0.0
H1079 H 0.8794 0.78875 0.97053 0.0
H1080 H 0.94866 0.77045 -0.00229 0.0
H1081 H 0.92057 0.77055 0.98826 0.0
H1082 H 0.89223 0.77316 0.06743 0.0
C1083 C 0.84371 0.78539 0.02849 0.0
C1084 C 0.88203 0.78523 0.99173 0.0
C1085 C 0.82704 0.78427 0.02308 0.0
C1086 C 0.94353 0.77582 0.01404 0.0
C1087 C 0.92747 0.77596 0.00857 0.0
C1088 C 0.88971 0.77683 0.04628 0.0
C1089 C 0.8513 0.77878 0.00826 0.0
C1090 C 0.86907 0.78007 0.01383 0.0
C1091 C 0.92012 0.78245 0.02944 0.0
C1092 C 0.90264 0.7819 0.02413 0.0
H1093 H 0.81816 0.7636 0.95726 0.0
H1094 H 0.84716 0.76547 0.96681 0.0
H1095 H 0.86332 0.77169 0.05856 0.0
H1096 H 0.9521 0.79398 0.08174 0.0
H1097 H 0.92427 0.79448 0.07201 0.0
C1098 C 0.16433 0.21564 0.48111 0.0
C1099 C 0.16908 0.21438 0.45251 0.0
C1100 C 0.14788 0.21481 0.48723 0.0
C1101 C 0.11327 0.2228 0.45488 0.0
H1102 H 0.08361 0.19406 0.51906 0.0
C1103 C 0.05444 0.23008 0.50225 0.0
C1104 C 0.03844 0.21402 0.50945 0.0
C1105 C 0.06991 0.22957 0.49373 0.0
C1106 C 0.09168 0.20204 0.50094 0.0
H1107 H 0.16023 0.21115 0.40792 0.0
H1108 H 0.13153 0.2098 0.41866 0.0
H1109 H 0.11145 0.19385 0.50729 0.0
H1110 H 0.02605 0.18479 0.51286 0.0
H1111 H 0.05309 0.18395 0.49805 0.0
H1112 H 0.09352 0.23103 0.44861 0.0
C1113 C 0.14059 0.2115 0.43629 0.0
C1114 C 0.10769 0.20205 0.49438 0.0
C1115 C 0.15698 0.21217 0.43018 0.0
C1116 C 0.03817 0.19742 0.50753 0.0
C1117 C 0.05367 0.19693 0.4992 0.0
C1118 C 0.09733 0.2229 0.46159 0.0
C1119 C 0.13589 0.21285 0.46486 0.0
C1120 C 0.11867 0.21247 0.47135 0.0
C1121 C 0.06974 0.21301 0.49241 0.0
C1122 C 0.0864 0.21256 0.48474 0.0
H1123 H 0.17335 0.21732 0.4988 0.0
H1124 H 0.14468 0.21605 0.50943 0.0
H1125 H 0.12155 0.23107 0.43714 0.0
H1126 H 0.05509 0.24309 0.50347 0.0
H1127 H 0.08215 0.2422 0.48885 0.0
C1128 C 0.79403 0.8404 0.50372 0.0
C1129 C 0.7783 0.82322 0.50414 0.0
C1130 C 0.79289 0.85596 0.4988 0.0
C1131 C 0.76342 0.87206 0.46878 0.0
H1132 H 0.79041 0.91307 0.51979 0.0
C1133 C 0.75147 0.93292 0.47092 0.0
C1134 C 0.76673 0.95031 0.47369 0.0
C1135 C 0.75305 0.91749 0.47438 0.0
C1136 C 0.78297 0.90184 0.50511 0.0
H1137 H 0.74906 0.80888 0.49894 0.0
H1138 H 0.74709 0.83608 0.49027 0.0
H1139 H 0.79309 0.88605 0.52517 0.0
H1140 H 0.79563 0.96514 0.48239 0.0
H1141 H 0.79844 0.93822 0.48797 0.0
H1142 H 0.75338 0.88785 0.44858 0.0
C1143 C 0.76031 0.83748 0.49368 0.0
C1144 C 0.7845 0.88636 0.50821 0.0
C1145 C 0.76144 0.82191 0.49878 0.0
C1146 C 0.78359 0.95194 0.48023 0.0
C1147 C 0.78519 0.93649 0.48357 0.0
C1148 C 0.76196 0.88758 0.46557 0.0
C1149 C 0.776 0.85469 0.494 0.0
C1150 C 0.77469 0.87128 0.49015 0.0
C1151 C 0.76995 0.91908 0.48057 0.0
C1152 C 0.77166 0.90264 0.48377 0.0
H1153 H 0.80724 0.84188 0.50771 0.0
H1154 H 0.80523 0.86903 0.4988 0.0
H1155 H 0.75587 0.86072 0.45432 0.0
H1156 H 0.73827 0.9312 0.46604 0.0
H1157 H 0.74098 0.90429 0.47243 0.0
C1158 C 0.04811 0.83014 0.48216 0.0
C1159 C 0.03651 0.82809 0.45913 0.0
C1160 C 0.0641 0.84656 0.48656 0.0
C1161 C 0.09714 0.88802 0.44846 0.0
H1162 H 0.11357 0.90576 0.52599 0.0
C1163 C 0.16139 0.95717 0.47257 0.0
C1164 C 0.17268 0.95727 0.49477 0.0
C1165 C 0.14445 0.94182 0.46769 0.0
C1166 C 0.10923 0.9009 0.50422 0.0
H1167 H 0.03242 0.84183 0.423 0.0
H1168 H 0.06028 0.87062 0.43093 0.0
H1169 H 0.08422 0.87852 0.5189 0.0
H1170 H 0.17513 0.94125 0.52899 0.0
H1171 H 0.14567 0.91452 0.52036 0.0
H1172 H 0.12223 0.91043 0.43385 0.0
C1173 C 0.05712 0.85941 0.44532 0.0
C1174 C 0.09242 0.8853 0.50015 0.0
C1175 C 0.0411 0.84295 0.44089 0.0
C1176 C 0.16676 0.94164 0.51174 0.0
C1177 C 0.14982 0.92636 0.50695 0.0
C1178 C 0.11395 0.90368 0.45254 0.0
C1179 C 0.06886 0.86136 0.46809 0.0
C1180 C 0.08626 0.87855 0.47225 0.0
C1181 C 0.13842 0.92632 0.48502 0.0
C1182 C 0.12026 0.91016 0.48048 0.0
H1183 H 0.04501 0.81896 0.49659 0.0
H1184 H 0.07295 0.84751 0.50406 0.0
H1185 H 0.0929 0.88306 0.42671 0.0
H1186 H 0.16555 0.969 0.45913 0.0
H1187 H 0.1359 0.94223 0.45075 0.0
C1188 C 0.79416 0.95472 0.99104 0.0
C1189 C 0.77931 0.95451 0.00464 0.0
C1190 C 0.79423 0.93858 0.98609 0.0
C1191 C 0.77305 0.89117 0.0113 0.0
H1192 H 0.7935 0.88437 0.94085 0.0
C1193 C 0.76795 0.82299 0.98047 0.0
C1194 C 0.78364 0.8238 0.96908 0.0
C1195 C 0.76723 0.83883 0.98494 0.0
C1196 C 0.7879 0.88615 0.96075 0.0
H1197 H 0.75271 0.93715 0.02316 0.0
H1198 H 0.7527 0.90896 0.01408 0.0
H1199 H 0.79217 0.91206 0.94762 0.0
H1200 H 0.81094 0.84192 0.95371 0.0
H1201 H 0.80967 0.86957 0.96156 0.0
H1202 H 0.7687 0.86518 0.0243 0.0
C1203 C 0.76445 0.92163 0.00772 0.0
C1204 C 0.78714 0.90201 0.96464 0.0
C1205 C 0.7644 0.93778 0.01276 0.0
C1206 C 0.79864 0.84082 0.96249 0.0
C1207 C 0.79788 0.85665 0.9668 0.0
C1208 C 0.77373 0.87527 0.00734 0.0
C1209 C 0.77942 0.92185 0.99452 0.0
C1210 C 0.77978 0.90476 0.99002 0.0
C1211 C 0.78214 0.85582 0.97796 0.0
C1212 C 0.78124 0.87263 0.98208 0.0
H1213 H 0.80589 0.96738 0.9846 0.0
H1214 H 0.80608 0.93928 0.97623 0.0
H1215 H 0.76756 0.89297 0.0313 0.0
H1216 H 0.75615 0.81009 0.98577 0.0
H1217 H 0.75486 0.83776 0.99334 0.0
C1218 C 0.1675 0.95029 0.99231 0.0
C1219 C 0.18067 0.9482 0.97726 0.0
C1220 C 0.15077 0.9352 -0.00085 0.0
C1221 C 0.11967 0.88808 0.97698 0.0
H1222 H 0.09829 0.88385 0.05248 0.0
C1223 C 0.05548 0.82288 0.01403 0.0
C1224 C 0.04263 0.82489 0.03017 0.0
C1225 C 0.07234 0.83791 0.0076 0.0
C1226 C 0.10397 0.88493 0.03117 0.0
H1227 H 0.18665 0.9286 0.95781 0.0
H1228 H 0.15746 0.90228 0.96985 0.0
H1229 H 0.12774 0.91012 0.04144 0.0
H1230 H 0.03735 0.84432 0.05197 0.0
H1231 H 0.06663 0.87057 0.04035 0.0
H1232 H 0.09587 0.86299 0.96659 0.0
C1233 C 0.16003 0.91561 0.97611 0.0
C1234 C 0.12085 0.89997 0.02488 0.0
C1235 C 0.17679 0.93069 0.96937 0.0
C1236 C 0.04697 0.84228 0.0396 0.0
C1237 C 0.06381 0.85733 0.03309 0.0
C1238 C 0.10276 0.87307 0.98323 0.0
C1239 C 0.14681 0.9177 0.99098 0.0
C1240 C 0.1289 0.9017 -0.00227 0.0
C1241 C 0.07672 0.85532 0.01709 0.0
C1242 C 0.0947 0.87131 0.01041 0.0
H1243 H 0.17005 0.9636 -0.00135 0.0
H1244 H 0.14079 0.93726 0.01036 0.0
H1245 H 0.1254 0.88917 0.95571 0.0
H1246 H 0.05259 0.80965 0.00654 0.0
H1247 H 0.08206 0.83584 0.99557 0.0
C1248 C 0.16736 0.21153 0.98195 0.0
C1249 C 0.1791 0.22195 0.00431 0.0
C1250 C 0.15067 0.21066 0.97825 0.0
C1251 C 0.12561 0.23438 0.99657 0.0
H1252 H 0.08367 0.18839 0.9757 0.0
C1253 C 0.05318 0.22407 0.99065 0.0
C1254 C 0.04298 0.2148 0.9662 0.0
C1255 C 0.06954 0.22465 0.99671 0.0
C1256 C 0.09529 0.20135 0.98134 0.0
H1257 H 0.18254 0.23969 0.04031 0.0
H1258 H 0.1533 0.23797 0.03409 0.0
H1259 H 0.11282 0.19017 0.98344 0.0
H1260 H 0.04182 0.19862 0.92921 0.0
H1261 H 0.0703 0.19964 0.93981 0.0
H1262 H 0.108 0.24553 0.99448 0.0
C1263 C 0.15711 0.23067 0.01915 0.0
C1264 C 0.112 0.2024 0.98571 0.0
C1265 C 0.17384 0.23159 0.02279 0.0
C1266 C 0.04933 0.20588 0.94823 0.0
C1267 C 0.06561 0.20637 0.95438 0.0
C1268 C 0.10886 0.23332 0.99232 0.0
C1269 C 0.14529 0.22013 0.9969 0.0
C1270 C 0.1274 0.21895 0.99313 0.0
C1271 C 0.07596 0.21586 0.97857 0.0
C1272 C 0.09355 0.21682 0.98441 0.0
H1273 H 0.17104 0.20401 0.96724 0.0
H1274 H 0.14205 0.20267 0.96059 0.0
H1275 H 0.13724 0.2474 0.00191 0.0
H1276 H 0.04865 0.23107 0.00494 0.0
H1277 H 0.07714 0.23191 0.01568 0.0
C1278 C 0.93853 0.7702 0.47487 0.0
C1279 C 0.95296 0.77917 0.49443 0.0
C1280 C 0.92228 0.7702 0.47902 0.0
C1281 C 0.90311 0.79503 0.51693 0.0
H1282 H 0.85713 0.75136 0.5026 0.0
C1283 C 0.83483 0.78723 0.553 0.0
C1284 C 0.82018 0.77889 0.53372 0.0
C1285 C 0.85105 0.78749 0.54726 0.0
C1286 C 0.86987 0.76372 0.50636 0.0
H1287 H 0.96156 0.795 0.53386 0.0
H1288 H 0.93314 0.79476 0.54134 0.0
H1289 H 0.88536 0.7512 0.49472 0.0
H1290 H 0.81109 0.76435 0.49315 0.0
H1291 H 0.83949 0.76485 0.4831 0.0
H1292 H 0.8876 0.80748 0.52885 0.0
C1293 C 0.93448 0.78799 0.52251 0.0
C1294 C 0.88605 0.76364 0.50185 0.0
C1295 C 0.95074 0.78803 0.51832 0.0
C1296 C 0.82212 0.77087 0.50847 0.0
C1297 C 0.83834 0.77107 0.50278 0.0
C1298 C 0.88694 0.79509 0.52152 0.0
C1299 C 0.92008 0.77913 0.50286 0.0
C1300 C 0.90286 0.77927 0.50721 0.0
C1301 C 0.85297 0.77937 0.52214 0.0
C1302 C 0.87014 0.77942 0.51641 0.0
H1303 H 0.93982 0.7633 0.45616 0.0
H1304 H 0.91155 0.76344 0.46329 0.0
H1305 H 0.91582 0.8074 0.52075 0.0
H1306 H 0.83379 0.79351 0.57268 0.0
H1307 H 0.86199 0.7938 0.56277 0.0
C1308 C 0.22438 0.16776 0.47435 0.0
C1309 C 0.21156 0.1712 0.48762 0.0
C1310 C 0.22412 0.15146 0.4793 0.0
C1311 C 0.20745 0.11331 0.53066 0.0
H1312 H 0.21537 0.08854 0.46696 0.0
C1313 C 0.19658 0.0411 0.54178 0.0
C1314 C 0.20967 0.03785 0.52913 0.0
C1315 C 0.19663 0.05726 0.53637 0.0
C1316 C 0.21332 0.09539 0.48502 0.0
H1317 H 0.1884 0.16019 0.51646 0.0
H1318 H 0.18786 0.13171 0.52486 0.0
H1319 H 0.21594 0.11706 0.45834 0.0
H1320 H 0.23301 0.04895 0.50064 0.0
H1321 H 0.23317 0.07718 0.49138 0.0
H1322 H 0.20482 0.09164 0.55734 0.0
C1323 C 0.19826 0.14171 0.51092 0.0
C1324 C 0.21366 0.11173 0.48009 0.0
C1325 C 0.19851 0.158 0.50598 0.0
C1326 C 0.22272 0.05102 0.51071 0.0
C1327 C 0.22275 0.06717 0.50527 0.0
C1328 C 0.20709 0.09696 0.53558 0.0
C1329 C 0.21105 0.13824 0.49763 0.0
C1330 C 0.21073 0.12088 0.50286 0.0
C1331 C 0.20976 0.0705 0.51815 0.0
C1332 C 0.21003 0.08782 0.51283 0.0
H1333 H 0.23465 0.17767 0.46014 0.0
H1334 H 0.23431 0.1493 0.46903 0.0
H1335 H 0.20542 0.12015 0.54875 0.0
H1336 H 0.1863 0.03121 0.556 0.0
H1337 H 0.18629 0.05932 0.54631 0.0
C1338 C 0.94967 0.16316 0.56864 0.0
C1339 C 0.95535 0.17784 0.54956 0.0
C1340 C 0.93348 0.14698 0.56379 0.0
C1341 C 0.88963 0.12811 0.52659 0.0
H1342 H 0.88882 0.08238 0.53412 0.0
C1343 C 0.82923 0.06054 0.48781 0.0
C1344 C 0.82418 0.04494 0.50446 0.0
C1345 C 0.84495 0.07681 0.49431 0.0
C1346 C 0.88873 0.09501 0.53234 0.0
H1347 H 0.94845 0.18708 0.51051 0.0
H1348 H 0.92015 0.15879 0.5021 0.0
H1349 H 0.91683 0.1107 0.5435 0.0
H1350 H 0.83152 0.03429 0.54132 0.0
H1351 H 0.85882 0.06281 0.55297 0.0
H1352 H 0.86153 0.11247 0.51558 0.0
C1353 C 0.9282 0.15987 0.52088 0.0
C1354 C 0.9048 0.11123 0.53764 0.0
C1355 C 0.94445 0.17603 0.52561 0.0
C1356 C 0.83508 0.04604 0.52798 0.0
C1357 C 0.85078 0.06236 0.53456 0.0
C1358 C 0.87354 0.11189 0.52142 0.0
C1359 C 0.92257 0.14517 0.53988 0.0
C1360 C 0.90544 0.12795 0.53469 0.0
C1361 C 0.85595 0.07791 0.51769 0.0
C1362 C 0.87292 0.09514 0.52408 0.0
H1363 H 0.95774 0.16412 0.58731 0.0
H1364 H 0.9294 0.13594 0.57896 0.0
H1365 H 0.88965 0.14079 0.52456 0.0
H1366 H 0.82117 0.06014 0.46946 0.0
H1367 H 0.84866 0.08844 0.48061 0.0
C1368 C 0.89192 0.50115 0.34324 0.0
C1369 C 0.88125 0.50266 0.36499 0.0
C1370 C 0.89124 0.48465 0.33821 0.0
C1371 C 0.87924 0.44134 0.37356 0.0
H1372 H 0.87999 0.4253 0.29552 0.0
C1373 C 0.86948 0.37059 0.34842 0.0
C1374 C 0.88075 0.36966 0.32715 0.0
C1375 C 0.86916 0.38665 0.35292 0.0
C1376 C 0.87996 0.42969 0.31745 0.0
H1377 H 0.86126 0.48793 0.39821 0.0
H1378 H 0.85996 0.45911 0.38925 0.0
H1379 H 0.87985 0.45355 0.30333 0.0
H1380 H 0.90058 0.38491 0.29399 0.0
H1381 H 0.90014 0.41295 0.30206 0.0
H1382 H 0.87942 0.41753 0.38768 0.0
C1383 C 0.86904 0.47075 0.37635 0.0
C1384 C 0.87987 0.44586 0.32192 0.0
C1385 C 0.86971 0.48725 0.38136 0.0
C1386 C 0.89171 0.38515 0.31052 0.0
C1387 C 0.89138 0.4012 0.31501 0.0
C1388 C 0.87932 0.42517 0.36909 0.0
C1389 C 0.87987 0.46929 0.35483 0.0
C1390 C 0.87956 0.4519 0.35003 0.0
C1391 C 0.88008 0.40212 0.33624 0.0
C1392 C 0.87974 0.41919 0.34098 0.0
H1393 H 0.90098 0.51276 0.33026 0.0
H1394 H 0.89991 0.48403 0.3217 0.0
H1395 H 0.87928 0.44576 0.39549 0.0
H1396 H 0.86082 0.35889 0.36154 0.0
H1397 H 0.86015 0.38686 0.36922 0.0
C1398 C 0.62137 0.49336 0.34075 0.0
C1399 C 0.62403 0.50643 0.31989 0.0
C1400 C 0.60427 0.47804 0.3446 0.0
C1401 C 0.55564 0.46108 0.33123 0.0
H1402 H 0.55088 0.41404 0.34541 0.0
C1403 C 0.48819 0.39957 0.36737 0.0
C1404 C 0.48338 0.38259 0.35539 0.0
C1405 C 0.50537 0.41451 0.36253 0.0
C1406 C 0.55197 0.42705 0.34122 0.0
H1407 H 0.61084 0.51355 0.28648 0.0
H1408 H 0.58114 0.48678 0.29298 0.0
H1409 H 0.58086 0.44032 0.33745 0.0
H1410 H 0.49281 0.368 0.32879 0.0
H1411 H 0.52276 0.39419 0.32002 0.0
H1412 H 0.52676 0.44779 0.33445 0.0
C1413 C 0.59218 0.48848 0.30668 0.0
C1414 C 0.56917 0.44215 0.33701 0.0
C1415 C 0.60925 0.50379 0.30286 0.0
C1416 C 0.49611 0.38089 0.33837 0.0
C1417 C 0.51331 0.39587 0.33349 0.0
C1418 C 0.53846 0.44599 0.33542 0.0
C1419 C 0.58946 0.47546 0.32766 0.0
C1420 C 0.5712 0.45935 0.33201 0.0
C1421 C 0.51814 0.41286 0.34555 0.0
C1422 C 0.53642 0.42881 0.34055 0.0
H1423 H 0.63246 0.495 0.35426 0.0
H1424 H 0.60258 0.46837 0.36118 0.0
H1425 H 0.55674 0.47415 0.32774 0.0
H1426 H 0.47874 0.40133 0.38071 0.0
H1427 H 0.50873 0.42732 0.37249 0.0
C1428 C 0.49121 0.10026 0.31171 0.0
C1429 C 0.48543 0.10941 0.33029 0.0
C1430 C 0.50747 0.10049 0.31688 0.0
C1431 C 0.54004 0.10721 0.37412 0.0
H1432 H 0.57315 0.11622 0.31062 0.0
C1433 C 0.61167 0.11794 0.39245 0.0
C1434 C 0.61803 0.10996 0.37256 0.0
C1435 C 0.59572 0.11829 0.38707 0.0
C1436 C 0.56396 0.11347 0.32853 0.0
H1437 H 0.4921 0.12585 0.36902 0.0
H1438 H 0.52048 0.12616 0.37809 0.0
H1439 H 0.54467 0.11569 0.30183 0.0
H1440 H 0.61266 0.09612 0.33135 0.0
H1441 H 0.58465 0.09641 0.32222 0.0
H1442 H 0.55915 0.10472 0.40079 0.0
C1443 C 0.51238 0.11877 0.35958 0.0
C1444 C 0.54767 0.11319 0.32348 0.0
C1445 C 0.49617 0.11866 0.3543 0.0
C1446 C 0.60817 0.10245 0.34706 0.0
C1447 C 0.59215 0.1027 0.34175 0.0
C1448 C 0.55628 0.10736 0.37914 0.0
C1449 C 0.51823 0.10976 0.34085 0.0
C1450 C 0.53554 0.11007 0.34623 0.0
C1451 C 0.58569 0.11056 0.36176 0.0
C1452 C 0.56845 0.11051 0.35641 0.0
H1453 H 0.48325 0.09301 0.29302 0.0
H1454 H 0.51155 0.09325 0.30226 0.0
H1455 H 0.53084 0.10452 0.39199 0.0
H1456 H 0.61901 0.12395 0.41223 0.0
H1457 H 0.59131 0.12473 0.40271 0.0
C1458 C 0.8167 0.53684 0.77652 0.0
C1459 C 0.83235 0.54817 0.79257 0.0
C1460 C 0.80053 0.53687 0.78158 0.0
C1461 C 0.78324 0.56531 0.81181 0.0
H1462 H 0.7371 0.52043 0.81295 0.0
C1463 C 0.71695 0.56238 0.84746 0.0
C1464 C 0.70114 0.55104 0.83174 0.0
C1465 C 0.73291 0.56197 0.84252 0.0
C1466 C 0.74985 0.53309 0.81236 0.0
H1467 H 0.84322 0.56817 0.82689 0.0
H1468 H 0.815 0.5681 0.83582 0.0
H1469 H 0.76498 0.51958 0.80499 0.0
H1470 H 0.68976 0.53049 0.79829 0.0
H1471 H 0.7177 0.52995 0.78943 0.0
H1472 H 0.76815 0.57883 0.81909 0.0
C1473 C 0.81529 0.55938 0.81906 0.0
C1474 C 0.76582 0.5326 0.80783 0.0
C1475 C 0.83143 0.55933 0.81405 0.0
C1476 C 0.70169 0.53936 0.81084 0.0
C1477 C 0.71767 0.53897 0.80588 0.0
C1478 C 0.76728 0.5658 0.8163 0.0
C1479 C 0.79969 0.54824 0.80275 0.0
C1480 C 0.7827 0.54871 0.80756 0.0
C1481 C 0.73345 0.55023 0.82172 0.0
C1482 C 0.7504 0.5497 0.81668 0.0
H1483 H 0.81695 0.52809 0.75979 0.0
H1484 H 0.7888 0.52825 0.76847 0.0
H1485 H 0.796 0.57797 0.81124 0.0
H1486 H 0.71697 0.57148 0.86381 0.0
H1487 H 0.74477 0.57065 0.85535 0.0
C1488 C 0.46182 0.16955 0.835 0.0
C1489 C 0.44632 0.15232 0.83767 0.0
C1490 C 0.46016 0.18475 0.82926 0.0
C1491 C 0.42879 0.19898 0.8009 0.0
H1492 H 0.45745 0.24204 0.84712 0.0
C1493 C 0.41554 0.25905 0.80106 0.0
C1494 C 0.43071 0.27661 0.80134 0.0
C1495 C 0.4176 0.24394 0.80518 0.0
C1496 C 0.44952 0.23022 0.83376 0.0
H1497 H 0.41693 0.13745 0.83561 0.0
H1498 H 0.41406 0.16399 0.82556 0.0
H1499 H 0.46099 0.2156 0.85369 0.0
H1500 H 0.45994 0.2921 0.8063 0.0
H1501 H 0.46356 0.26574 0.81306 0.0
H1502 H 0.41737 0.2136 0.78087 0.0
C1503 C 0.42749 0.16573 0.82781 0.0
C1504 C 0.45155 0.21507 0.83754 0.0
C1505 C 0.42914 0.15054 0.83371 0.0
C1506 C 0.44797 0.27875 0.80607 0.0
C1507 C 0.45004 0.26363 0.81008 0.0
C1508 C 0.42682 0.21416 0.79702 0.0
C1509 C 0.44298 0.18303 0.82589 0.0
C1510 C 0.44116 0.19927 0.82122 0.0
C1511 C 0.43489 0.24604 0.80957 0.0
C1512 C 0.43711 0.22995 0.81349 0.0
H1513 H 0.47526 0.17139 0.83786 0.0
H1514 H 0.47235 0.19788 0.82753 0.0
H1515 H 0.42076 0.18707 0.78777 0.0
H1516 H 0.40205 0.25693 0.79759 0.0
H1517 H 0.40562 0.2306 0.80513 0.0
C1518 C 0.71845 0.16304 0.81682 0.0
C1519 C 0.70635 0.16144 0.79488 0.0
C1520 C 0.73413 0.17963 0.82209 0.0
C1521 C 0.76533 0.22313 0.7871 0.0
H1522 H 0.78193 0.2389 0.86528 0.0
C1523 C 0.82634 0.29382 0.81311 0.0
C1524 C 0.83847 0.29461 0.83437 0.0
C1525 C 0.80996 0.27779 0.80836 0.0
C1526 C 0.77757 0.23459 0.84331 0.0
H1527 H 0.70105 0.17612 0.76165 0.0
H1528 H 0.72833 0.2051 0.77107 0.0
H1529 H 0.7536 0.21065 0.85721 0.0
H1530 H 0.84295 0.27914 0.86723 0.0
H1531 H 0.81447 0.25116 0.85874 0.0
H1532 H 0.78934 0.24704 0.7732 0.0
C1533 C 0.72582 0.19345 0.78391 0.0
C1534 C 0.76133 0.21841 0.83869 0.0
C1535 C 0.71013 0.17686 0.77864 0.0
C1536 C 0.83389 0.27901 0.85071 0.0
C1537 C 0.81751 0.263 0.84599 0.0
C1538 C 0.78157 0.23932 0.79172 0.0
C1539 C 0.73806 0.19499 0.80556 0.0
C1540 C 0.75506 0.21245 0.81053 0.0
C1541 C 0.80534 0.26222 0.82481 0.0
C1542 C 0.78791 0.24519 0.81988 0.0
H1543 H 0.71597 0.15142 0.8297 0.0
H1544 H 0.74338 0.1803 0.83871 0.0
H1545 H 0.76102 0.21878 0.76512 0.0
H1546 H 0.82943 0.30561 0.8002 0.0
H1547 H 0.80079 0.27768 0.79209 0.0
C1548 C 0.41402 0.14977 0.29738 0.0
C1549 C 0.427 0.14537 0.30688 0.0
C1550 C 0.41594 0.16668 0.30371 0.0
C1551 C 0.45025 0.21337 0.3243 0.0
H1552 H 0.40826 0.21733 0.34505 0.0
C1553 C 0.45601 0.28006 0.36554 0.0
C1554 C 0.44338 0.28461 0.35482 0.0
C1555 C 0.45407 0.26308 0.35974 0.0
C1556 C 0.42008 0.21646 0.339 0.0
H1557 H 0.45207 0.15518 0.33085 0.0
H1558 H 0.45528 0.18458 0.34222 0.0
H1559 H 0.40466 0.18757 0.33537 0.0
H1560 H 0.41883 0.27494 0.32946 0.0
H1561 H 0.41552 0.24535 0.31923 0.0
H1562 H 0.46567 0.24227 0.32803 0.0
C1563 C 0.44376 0.17508 0.32947 0.0
C1564 C 0.41802 0.19941 0.33345 0.0
C1565 C 0.44186 0.15818 0.3231 0.0
C1566 C 0.42879 0.27185 0.33808 0.0
C1567 C 0.42682 0.25485 0.33236 0.0
C1568 C 0.45231 0.23041 0.32992 0.0
C1569 C 0.43087 0.17956 0.31973 0.0
C1570 C 0.43308 0.19767 0.32598 0.0
C1571 C 0.43942 0.25026 0.34317 0.0
C1572 C 0.43724 0.23215 0.33728 0.0
H1573 H 0.40244 0.14024 0.28475 0.0
H1574 H 0.40588 0.16978 0.29556 0.0
H1575 H 0.46207 0.21254 0.31815 0.0
H1576 H 0.46738 0.28957 0.37856 0.0
H1577 H 0.46389 0.25988 0.36864 0.0
C1578 C 0.83639 0.27538 0.32539 0.0
C1579 C 0.83629 0.28646 0.30301 0.0
C1580 C 0.82045 0.25967 0.33329 0.0
C1581 C 0.77525 0.22636 0.30562 0.0
H1582 H 0.76475 0.21309 0.38625 0.0
C1583 C 0.718 0.15595 0.34169 0.0
C1584 C 0.70741 0.15533 0.36539 0.0
C1585 C 0.73358 0.17212 0.33417 0.0
C1586 C 0.76741 0.21667 0.36365 0.0
H1587 H 0.81932 0.28984 0.27163 0.0
H1588 H 0.79148 0.2625 0.28564 0.0
H1589 H 0.79192 0.24132 0.37317 0.0
H1590 H 0.70487 0.17121 0.39977 0.0
H1591 H 0.73195 0.19945 0.38649 0.0
H1592 H 0.75058 0.20185 0.29612 0.0
C1593 C 0.80393 0.26584 0.2968 0.0
C1594 C 0.78309 0.23275 0.35614 0.0
C1595 C 0.81988 0.28156 0.28889 0.0
C1596 C 0.71276 0.17121 0.38144 0.0
C1597 C 0.72834 0.18738 0.37392 0.0
C1598 C 0.75958 0.21027 0.31313 0.0
C1599 C 0.80406 0.25468 0.31901 0.0
C1600 C 0.78721 0.23776 0.32704 0.0
C1601 C 0.73893 0.18803 0.3502 0.0
C1602 C 0.7555 0.20522 0.34222 0.0
H1603 H 0.84881 0.27874 0.33668 0.0
H1604 H 0.82106 0.25125 0.35025 0.0
H1605 H 0.77813 0.22973 0.28299 0.0
H1606 H 0.71429 0.14394 0.32892 0.0
H1607 H 0.74158 0.17211 0.31602 0.0
C1608 C 0.8324 0.53626 0.31118 0.0
C1609 C 0.8443 0.54742 0.33285 0.0
C1610 C 0.81584 0.53555 0.30664 0.0
C1611 C 0.79197 0.56103 0.32015 0.0
H1612 H 0.74883 0.5148 0.30481 0.0
C1613 C 0.72087 0.55336 0.31671 0.0
C1614 C 0.70944 0.54298 0.294 0.0
C1615 C 0.73701 0.55339 0.32214 0.0
C1616 C 0.76079 0.52783 0.30882 0.0
H1617 H 0.84812 0.5666 0.36676 0.0
H1618 H 0.81918 0.56521 0.35902 0.0
H1619 H 0.77776 0.51605 0.31262 0.0
H1620 H 0.70581 0.52418 0.25959 0.0
H1621 H 0.73404 0.52432 0.26901 0.0
H1622 H 0.77502 0.57281 0.31635 0.0
C1623 C 0.82274 0.55719 0.34527 0.0
C1624 C 0.77737 0.52855 0.31325 0.0
C1625 C 0.8393 0.55791 0.3498 0.0
C1626 C 0.71431 0.53232 0.27726 0.0
C1627 C 0.73045 0.53233 0.28274 0.0
C1628 C 0.7754 0.5603 0.31576 0.0
C1629 C 0.8108 0.54598 0.32368 0.0
C1630 C 0.79316 0.54517 0.31896 0.0
C1631 C 0.74208 0.54302 0.30504 0.0
C1632 C 0.75962 0.54369 0.31004 0.0
H1633 H 0.83585 0.52805 0.29769 0.0
H1634 H 0.80706 0.52697 0.28956 0.0
H1635 H 0.80392 0.57409 0.32403 0.0
H1636 H 0.71749 0.56167 0.33011 0.0
H1637 H 0.74554 0.56156 0.33977 0.0
C1638 C 0.60868 0.10308 0.80692 0.0
C1639 C 0.62365 0.11317 0.82508 0.0
C1640 C 0.59232 0.10275 0.81171 0.0
C1641 C 0.57318 0.12807 0.84827 0.0
H1642 H 0.52756 0.08312 0.83958 0.0
C1643 C 0.50513 0.11979 0.88716 0.0
C1644 C 0.48998 0.11031 0.8691 0.0
C1645 C 0.52142 0.12029 0.881 0.0
C1646 C 0.54018 0.09582 0.84177 0.0
H1647 H 0.63311 0.13068 0.86267 0.0
H1648 H 0.60452 0.12989 0.87126 0.0
H1649 H 0.556 0.08358 0.83055 0.0
H1650 H 0.48011 0.09397 0.83029 0.0
H1651 H 0.50861 0.09489 0.81952 0.0
H1652 H 0.55735 0.14026 0.85976 0.0
C1653 C 0.6055 0.12248 0.85302 0.0
C1654 C 0.55648 0.09609 0.83658 0.0
C1655 C 0.62187 0.12284 0.84819 0.0
C1656 C 0.49151 0.10137 0.84467 0.0
C1657 C 0.50781 0.10181 0.83858 0.0
C1658 C 0.55689 0.12778 0.85354 0.0
C1659 C 0.59054 0.11247 0.83479 0.0
C1660 C 0.57318 0.11221 0.83987 0.0
C1661 C 0.52293 0.11127 0.85669 0.0
C1662 C 0.54021 0.11164 0.85045 0.0
H1663 H 0.60962 0.09553 0.78884 0.0
H1664 H 0.58114 0.09509 0.79704 0.0
H1665 H 0.58577 0.14079 0.85049 0.0
H1666 H 0.50441 0.1268 0.90618 0.0
H1667 H 0.53277 0.12752 0.89557 0.0
C1668 C 0.86507 0.49759 0.84536 0.0
C1669 C 0.87687 0.50995 0.82473 0.0
C1670 C 0.86474 0.48125 0.85026 0.0
C1671 C 0.87663 0.44935 0.8164 0.0
H1672 H 0.87374 0.43203 0.89464 0.0
C1673 C 0.88733 0.38929 0.84416 0.0
C1674 C 0.87605 0.37702 0.86533 0.0
C1675 C 0.88696 0.40524 0.83881 0.0
C1676 C 0.87432 0.43656 0.87264 0.0
H1677 H 0.89767 0.51486 0.79317 0.0
H1678 H 0.8972 0.48643 0.80193 0.0
H1679 H 0.87415 0.46047 0.88628 0.0
H1680 H 0.8553 0.37174 0.89717 0.0
H1681 H 0.85453 0.39948 0.88762 0.0
H1682 H 0.87684 0.42545 0.80276 0.0
C1683 C 0.88803 0.48928 0.81406 0.0
C1684 C 0.87457 0.45287 0.86786 0.0
C1685 C 0.88838 0.50563 0.80918 0.0
C1686 C 0.86423 0.38094 0.88079 0.0
C1687 C 0.86386 0.39689 0.87544 0.0
C1688 C 0.87638 0.43303 0.82118 0.0
C1689 C 0.87619 0.47689 0.83461 0.0
C1690 C 0.87577 0.45947 0.83969 0.0
C1691 C 0.87529 0.40928 0.85451 0.0
C1692 C 0.87526 0.42647 0.84936 0.0
H1693 H 0.85599 0.50048 0.85765 0.0
H1694 H 0.85532 0.4719 0.86602 0.0
H1695 H 0.87727 0.45392 0.79441 0.0
H1696 H 0.89663 0.3867 0.83189 0.0
H1697 H 0.89609 0.41459 0.82277 0.0
C1698 C 0.60736 0.50452 0.84306 0.0
C1699 C 0.61942 0.50592 0.86492 0.0
C1700 C 0.59165 0.48801 0.83757 0.0
C1701 C 0.57094 0.43866 0.84816 0.0
H1702 H 0.52594 0.43848 0.83452 0.0
C1703 C 0.50171 0.3725 0.84246 0.0
C1704 C 0.48957 0.37139 0.82097 0.0
C1705 C 0.5176 0.38887 0.84791 0.0
C1706 C 0.53843 0.43832 0.83797 0.0
H1707 H 0.62453 0.49103 0.898 0.0
H1708 H 0.59704 0.46223 0.88853 0.0
H1709 H 0.55369 0.46708 0.84363 0.0
H1710 H 0.4846 0.38662 0.78829 0.0
H1711 H 0.51239 0.41512 0.79763 0.0
H1712 H 0.55567 0.40988 0.84245 0.0
C1713 C 0.59982 0.47387 0.87546 0.0
C1714 C 0.55433 0.45471 0.84319 0.0
C1715 C 0.61553 0.4904 0.88098 0.0
C1716 C 0.49364 0.38702 0.80508 0.0
C1717 C 0.50952 0.40339 0.81053 0.0
C1718 C 0.55503 0.42226 0.84291 0.0
C1719 C 0.58766 0.47252 0.8538 0.0
C1720 C 0.57077 0.45507 0.8483 0.0
C1721 C 0.5217 0.4045 0.83199 0.0
C1722 C 0.5386 0.42191 0.83772 0.0
H1723 H 0.60998 0.5162 0.83021 0.0
H1724 H 0.58269 0.48735 0.82046 0.0
H1725 H 0.58344 0.43851 0.85164 0.0
H1726 H 0.49896 0.36072 0.85515 0.0
H1727 H 0.52658 0.38934 0.86484 0.0
C1728 C 0.53635 0.71818 0.61315 0.0
C1729 C 0.5459 0.71138 0.62848 0.0
C1730 C 0.53869 0.73523 0.61968 0.0
C1731 C 0.5552 0.77015 0.67711 0.0
H1732 H 0.55685 0.80139 0.61495 0.0
C1733 C 0.57546 0.845 0.69527 0.0
C1734 C 0.56464 0.85098 0.68169 0.0
C1735 C 0.57338 0.82807 0.68859 0.0
C1736 C 0.55626 0.79275 0.63254 0.0
H1737 H 0.56546 0.71721 0.66265 0.0
H1738 H 0.5698 0.74708 0.67369 0.0
H1739 H 0.55284 0.77163 0.60378 0.0
H1740 H 0.54328 0.84394 0.65021 0.0
H1741 H 0.5397 0.8144 0.63853 0.0
H1742 H 0.55879 0.79139 0.70583 0.0
C1743 C 0.56025 0.7391 0.65696 0.0
C1744 C 0.55393 0.77568 0.62617 0.0
C1745 C 0.55783 0.72201 0.65052 0.0
C1746 C 0.55184 0.83974 0.66105 0.0
C1747 C 0.54984 0.82286 0.65424 0.0
C1748 C 0.55763 0.78726 0.68346 0.0
C1749 C 0.55072 0.74593 0.6416 0.0
C1750 C 0.55332 0.76415 0.64838 0.0
C1751 C 0.56053 0.8168 0.66805 0.0
C1752 C 0.55815 0.79872 0.66125 0.0
H1753 H 0.52698 0.7103 0.59614 0.0
H1754 H 0.53092 0.73994 0.60774 0.0
H1755 H 0.5545 0.76151 0.69478 0.0
H1756 H 0.58546 0.85333 0.71126 0.0
H1757 H 0.58195 0.82385 0.69935 0.0
C1758 C 0.1609 0.71339 0.67702 0.0
C1759 C 0.15911 0.70194 0.70012 0.0
C1760 C 0.17731 0.72928 0.67203 0.0
C1761 C 0.21936 0.76247 0.7086 0.0
H1762 H 0.23613 0.77811 0.63045 0.0
C1763 C 0.28808 0.82659 0.68263 0.0
C1764 C 0.2879 0.83775 0.66046 0.0
C1765 C 0.27289 0.80958 0.68772 0.0
C1766 C 0.23154 0.77399 0.65239 0.0
H1767 H 0.17328 0.69803 0.73579 0.0
H1768 H 0.20204 0.72574 0.72687 0.0
H1769 H 0.20889 0.7489 0.63856 0.0
H1770 H 0.27159 0.83983 0.62636 0.0
H1771 H 0.24511 0.81024 0.63537 0.0
H1772 H 0.242 0.78764 0.72237 0.0
C1773 C 0.19064 0.72252 0.71286 0.0
C1774 C 0.21594 0.75726 0.65704 0.0
C1775 C 0.1742 0.70659 0.71787 0.0
C1776 C 0.27219 0.83157 0.64359 0.0
C1777 C 0.25705 0.81455 0.64861 0.0
C1778 C 0.235 0.7792 0.70394 0.0
C1779 C 0.19235 0.7341 0.68999 0.0
C1780 C 0.20955 0.75139 0.68518 0.0
C1781 C 0.25725 0.80334 0.67065 0.0
C1782 C 0.24114 0.78523 0.67576 0.0
H1783 H 0.14955 0.71023 0.66295 0.0
H1784 H 0.17808 0.73802 0.65447 0.0
H1785 H 0.21467 0.75845 0.73052 0.0
H1786 H 0.29999 0.83094 0.69599 0.0
H1787 H 0.2735 0.80118 0.70472 0.0
C1788 C 0.2722 0.43216 0.68509 0.0
C1789 C 0.28507 0.44424 0.70491 0.0
C1790 C 0.25597 0.43213 0.68062 0.0
C1791 C 0.2344 0.4601 0.68932 0.0
H1792 H 0.18976 0.41393 0.68354 0.0
C1793 C 0.16406 0.45473 0.68512 0.0
C1794 C 0.15158 0.44237 0.66514 0.0
C1795 C 0.18026 0.45492 0.69088 0.0
C1796 C 0.20212 0.42693 0.68483 0.0
H1797 H 0.29109 0.46591 0.73532 0.0
H1798 H 0.26271 0.46578 0.72758 0.0
H1799 H 0.21836 0.41455 0.69134 0.0
H1800 H 0.14628 0.42044 0.63569 0.0
H1801 H 0.17456 0.42089 0.64557 0.0
H1802 H 0.21816 0.47248 0.68265 0.0
C1803 C 0.26524 0.45644 0.71535 0.0
C1804 C 0.21851 0.42729 0.68928 0.0
C1805 C 0.28147 0.45644 0.71987 0.0
C1806 C 0.15557 0.4301 0.65128 0.0
C1807 C 0.17175 0.43029 0.65705 0.0
C1808 C 0.218 0.45975 0.68483 0.0
C1809 C 0.25226 0.4442 0.69581 0.0
C1810 C 0.23484 0.44388 0.69144 0.0
C1811 C 0.18432 0.44275 0.67682 0.0
C1812 C 0.20169 0.44315 0.68241 0.0
H1813 H 0.27458 0.42263 0.67313 0.0
H1814 H 0.24636 0.42272 0.6651 0.0
H1815 H 0.24678 0.4731 0.69055 0.0
H1816 H 0.16138 0.46434 0.69621 0.0
H1817 H 0.18957 0.46453 0.7065 0.0
C1818 C 0.37279 0.87038 0.14295 0.0
C1819 C 0.37306 0.88369 0.16121 0.0
C1820 C 0.38855 0.86953 0.13822 0.0
C1821 C 0.43335 0.88355 0.17036 0.0
H1822 H 0.44484 0.87351 0.09404 0.0
C1823 C 0.5028 0.89106 0.14216 0.0
C1824 C 0.5029 0.87782 0.12418 0.0
C1825 C 0.48674 0.8913 0.1471 0.0
C1826 C 0.44171 0.87611 0.11555 0.0
H1827 H 0.39018 0.90674 0.18844 0.0
H1828 H 0.41769 0.9054 0.17987 0.0
H1829 H 0.41734 0.87514 0.10133 0.0
H1830 H 0.48615 0.85426 0.09765 0.0
H1831 H 0.4581 0.85463 0.10646 0.0
H1832 H 0.45777 0.88461 0.18454 0.0
C1833 C 0.40524 0.89543 0.16958 0.0
C1834 C 0.42595 0.87705 0.11973 0.0
C1835 C 0.38949 0.89627 0.17432 0.0
C1836 C 0.48655 0.86468 0.11156 0.0
C1837 C 0.47049 0.86495 0.11645 0.0
C1838 C 0.44911 0.88263 0.16617 0.0
C1839 C 0.40494 0.88197 0.15163 0.0
C1840 C 0.42162 0.88084 0.14717 0.0
C1841 C 0.47043 0.87833 0.13414 0.0
C1842 C 0.45349 0.87894 0.13871 0.0
H1843 H 0.36035 0.86044 0.13258 0.0
H1844 H 0.38781 0.85888 0.12451 0.0
H1845 H 0.43025 0.88617 0.19187 0.0
H1846 H 0.51516 0.90139 0.1522 0.0
H1847 H 0.48719 0.9019 0.1606 0.0
C1848 C 0.13036 0.62113 0.1099 0.0
C1849 C 0.11933 0.62565 0.12638 0.0
C1850 C 0.13035 0.60495 0.11496 0.0
C1851 C 0.11816 0.56891 0.16932 0.0
H1852 H 0.11665 0.54019 0.10329 0.0
C1853 C 0.10215 0.49499 0.18052 0.0
C1854 C 0.11253 0.48966 0.16397 0.0
C1855 C 0.10342 0.51178 0.1759 0.0
C1856 C 0.11729 0.54815 0.12195 0.0
H1857 H 0.09988 0.61687 0.16146 0.0
H1858 H 0.09975 0.58861 0.1701 0.0
H1859 H 0.11849 0.56939 0.09575 0.0
H1860 H 0.13228 0.49776 0.12945 0.0
H1861 H 0.13455 0.52712 0.12151 0.0
H1862 H 0.11685 0.54762 0.19552 0.0
C1863 C 0.10855 0.59765 0.15345 0.0
C1864 C 0.11836 0.56489 0.11763 0.0
C1865 C 0.10855 0.61381 0.14839 0.0
C1866 C 0.12407 0.50143 0.14252 0.0
C1867 C 0.12531 0.51822 0.13788 0.0
C1868 C 0.11708 0.55217 0.17363 0.0
C1869 C 0.11932 0.59296 0.13663 0.0
C1870 C 0.11873 0.57542 0.14127 0.0
C1871 C 0.11507 0.52363 0.15462 0.0
C1872 C 0.11654 0.54156 0.15 0.0
H1873 H 0.13888 0.62998 0.09286 0.0
H1874 H 0.139 0.60186 0.10191 0.0
H1875 H 0.11871 0.57682 0.18798 0.0
H1876 H 0.0931 0.48624 0.19719 0.0
H1877 H 0.09514 0.51543 0.18887 0.0
C1878 C 0.48871 0.62635 0.20188 0.0
C1879 C 0.50518 0.62857 0.19137 0.0
C1880 C 0.47227 0.61106 0.19444 0.0
C1881 C 0.4511 0.57428 0.1407 0.0
H1882 H 0.41517 0.54964 0.20055 0.0
C1883 C 0.37981 0.51402 0.11602 0.0
C1884 C 0.37346 0.49906 0.13467 0.0
C1885 C 0.39538 0.53038 0.12288 0.0
C1886 C 0.4251 0.55634 0.18363 0.0
H1887 H 0.51729 0.61656 0.16457 0.0
H1888 H 0.4886 0.58983 0.15176 0.0
H1889 H 0.44357 0.57706 0.21231 0.0
H1890 H 0.37829 0.48965 0.17539 0.0
H1891 H 0.40547 0.51816 0.18727 0.0
H1892 H 0.43279 0.55334 0.11216 0.0
C1893 C 0.48839 0.6 0.16553 0.0
C1894 C 0.44128 0.57214 0.19029 0.0
C1895 C 0.50484 0.61527 0.17302 0.0
C1896 C 0.38282 0.50091 0.16055 0.0
C1897 C 0.39834 0.51729 0.16745 0.0
C1898 C 0.43489 0.55851 0.13402 0.0
C1899 C 0.47193 0.59769 0.17628 0.0
C1900 C 0.45451 0.58122 0.16895 0.0
C1901 C 0.40487 0.53215 0.14859 0.0
C1902 C 0.42177 0.5493 0.15545 0.0
H1903 H 0.48849 0.63638 0.21598 0.0
H1904 H 0.4598 0.60977 0.20278 0.0
H1905 H 0.46095 0.58107 0.12373 0.0
H1906 H 0.37288 0.51306 0.09594 0.0
H1907 H 0.39996 0.54167 0.10808 0.0
C1908 C 0.12434 0.61853 0.64557 0.0
C1909 C 0.11241 0.61929 0.66572 0.0
C1910 C 0.12447 0.60238 0.64101 0.0
C1911 C 0.11157 0.55848 0.67538 0.0
H1912 H 0.11653 0.54438 0.59786 0.0
C1913 C 0.10268 0.48821 0.64864 0.0
C1914 C 0.11498 0.48773 0.62891 0.0
C1915 C 0.10244 0.50428 0.65343 0.0
C1916 C 0.11534 0.54823 0.61967 0.0
H1917 H 0.09112 0.60364 0.6967 0.0
H1918 H 0.09121 0.57542 0.68847 0.0
H1919 H 0.11569 0.57227 0.60535 0.0
H1920 H 0.1368 0.50382 0.599 0.0
H1921 H 0.13644 0.53187 0.60752 0.0
H1922 H 0.11117 0.53439 0.68966 0.0
C1923 C 0.10065 0.58738 0.67649 0.0
C1924 C 0.11485 0.56421 0.62397 0.0
C1925 C 0.10052 0.60352 0.68107 0.0
C1926 C 0.12713 0.50371 0.61429 0.0
C1927 C 0.12685 0.51976 0.61903 0.0
C1928 C 0.11203 0.54248 0.67108 0.0
C1929 C 0.11267 0.58663 0.65648 0.0
C1930 C 0.11299 0.56954 0.65188 0.0
C1931 C 0.11445 0.52021 0.63855 0.0
C1932 C 0.11395 0.53719 0.64317 0.0
H1933 H 0.13371 0.63044 0.63345 0.0
H1934 H 0.13406 0.60234 0.62571 0.0
H1935 H 0.11041 0.56234 0.6972 0.0
H1936 H 0.09313 0.47613 0.66024 0.0
H1937 H 0.09261 0.50414 0.6684 0.0
C1938 C 0.36646 0.49369 0.6477 0.0
C1939 C 0.36621 0.48254 0.67024 0.0
C1940 C 0.38183 0.51059 0.64279 0.0
C1941 C 0.42277 0.54625 0.67872 0.0
H1942 H 0.44005 0.5614 0.60065 0.0
C1943 C 0.49223 0.60921 0.6535 0.0
C1944 C 0.49341 0.61976 0.62941 0.0
C1945 C 0.47632 0.59289 0.6591 0.0
C1946 C 0.43526 0.5575 0.62256 0.0
H1947 H 0.38195 0.48037 0.70522 0.0
H1948 H 0.40876 0.50982 0.69654 0.0
H1949 H 0.41315 0.53196 0.60889 0.0
H1950 H 0.47859 0.62174 0.59288 0.0
H1951 H 0.45075 0.59346 0.60294 0.0
H1952 H 0.44485 0.5718 0.69241 0.0
C1953 C 0.39701 0.50556 0.68284 0.0
C1954 C 0.41986 0.54061 0.62727 0.0
C1955 C 0.38169 0.48862 0.68767 0.0
C1956 C 0.47817 0.61388 0.61151 0.0
C1957 C 0.46225 0.5976 0.61716 0.0
C1958 C 0.43814 0.56318 0.67401 0.0
C1959 C 0.39724 0.51674 0.6604 0.0
C1960 C 0.41348 0.53477 0.6554 0.0
C1961 C 0.4612 0.58679 0.6408 0.0
C1962 C 0.4446 0.56898 0.64587 0.0
H1963 H 0.35476 0.48942 0.6339 0.0
H1964 H 0.38153 0.51898 0.62549 0.0
H1965 H 0.41802 0.54224 0.70062 0.0
H1966 H 0.50375 0.61334 0.66769 0.0
H1967 H 0.47605 0.58481 0.67733 0.0
C1968 C 0.38264 0.89189 0.64282 0.0
C1969 C 0.36895 0.87762 0.62671 0.0
C1970 C 0.39948 0.89308 0.64659 0.0
C1971 C 0.42941 0.87817 0.61444 0.0
H1972 H 0.45302 0.8907 0.68916 0.0
C1973 C 0.49265 0.87242 0.64006 0.0
C1974 C 0.50621 0.88599 0.65732 0.0
C1975 C 0.47617 0.87189 0.63571 0.0
C1976 C 0.44672 0.88742 0.66806 0.0
H1977 H 0.36214 0.85333 0.60219 0.0
H1978 H 0.39148 0.85538 0.60894 0.0
H1979 H 0.42361 0.88863 0.68319 0.0
H1980 H 0.51325 0.90992 0.68303 0.0
H1981 H 0.48458 0.90913 0.67511 0.0
H1982 H 0.45251 0.87697 0.59928 0.0
C1983 C 0.38926 0.86574 0.61836 0.0
C1984 C 0.42986 0.88621 0.66466 0.0
C1985 C 0.3724 0.86451 0.61466 0.0
C1986 C 0.50305 0.89923 0.66972 0.0
C1987 C 0.48658 0.89871 0.66534 0.0
C1988 C 0.44629 0.87941 0.61782 0.0
C1989 C 0.40301 0.88008 0.63426 0.0
C1990 C 0.42099 0.88151 0.63784 0.0
C1991 C 0.47289 0.88495 0.64848 0.0
C1992 C 0.45512 0.884 0.64469 0.0
H1993 H 0.38043 0.90223 0.65236 0.0
H1994 H 0.40986 0.90439 0.65872 0.0
H1995 H 0.42305 0.8748 0.59338 0.0
H1996 H 0.49463 0.86199 0.63025 0.0
H1997 H 0.46584 0.86099 0.62288 0.0
C1998 C 0.17287 0.4655 0.20787 0.0
C1999 C 0.15658 0.45238 0.19507 0.0
C2000 C 0.18888 0.46509 0.20354 0.0
C2001 C 0.21087 0.44779 0.15479 0.0
H2002 H 0.24202 0.45548 0.2206 0.0
C2003 C 0.27353 0.43861 0.14765 0.0
C2004 C 0.28928 0.45149 0.16205 0.0
C2005 C 0.25708 0.43821 0.15179 0.0
C2006 C 0.23358 0.45351 0.20193 0.0
H2007 H 0.14438 0.42868 0.16732 0.0
H2008 H 0.17239 0.42799 0.15977 0.0
H2009 H 0.2139 0.45599 0.22717 0.0
H2010 H 0.30009 0.47403 0.19212 0.0
H2011 H 0.2715 0.47349 0.19901 0.0
H2012 H 0.23063 0.44548 0.12948 0.0
C2013 C 0.17276 0.43863 0.17305 0.0
C2014 C 0.21746 0.45379 0.20571 0.0
C2015 C 0.15671 0.43899 0.17749 0.0
C2016 C 0.2882 0.46388 0.18078 0.0
C2017 C 0.27177 0.46351 0.18486 0.0
C2018 C 0.22703 0.44757 0.15098 0.0
C2019 C 0.18899 0.4516 0.18622 0.0
C2020 C 0.20597 0.45101 0.18217 0.0
C2021 C 0.25602 0.45069 0.17038 0.0
C2022 C 0.23862 0.4505 0.17449 0.0
H2023 H 0.17327 0.47603 0.22148 0.0
H2024 H 0.20123 0.47541 0.21365 0.0
H2025 H 0.20238 0.4458 0.13618 0.0
H2026 H 0.27389 0.42882 0.13313 0.0
H2027 H 0.24515 0.428 0.14061 0.0
C2028 C 0.56126 0.83877 0.14203 0.0
C2029 C 0.55195 0.84467 0.16001 0.0
C2030 C 0.562 0.82319 0.1488 0.0
C2031 C 0.53891 0.7812 0.1923 0.0
H2032 H 0.58273 0.77937 0.17691 0.0
C2033 C 0.54889 0.72211 0.22982 0.0
C2034 C 0.55608 0.71523 0.20937 0.0
C2035 C 0.54851 0.73803 0.22431 0.0
C2036 C 0.57036 0.77965 0.18111 0.0
H2037 H 0.53633 0.83898 0.19945 0.0
H2038 H 0.53796 0.812 0.21164 0.0
H2039 H 0.58206 0.80713 0.167 0.0
H2040 H 0.56862 0.71972 0.16715 0.0
H2041 H 0.56803 0.74761 0.15762 0.0
H2042 H 0.52732 0.75374 0.2067 0.0
C2043 C 0.54438 0.81921 0.19197 0.0
C2044 C 0.56995 0.79553 0.17539 0.0
C2045 C 0.54353 0.83474 0.18508 0.0
C2046 C 0.56298 0.72466 0.18334 0.0
C2047 C 0.56274 0.74068 0.17794 0.0
C2048 C 0.53938 0.76537 0.19821 0.0
C2049 C 0.55357 0.8132 0.17384 0.0
C2050 C 0.55418 0.79647 0.18075 0.0
C2051 C 0.55546 0.74749 0.19835 0.0
C2052 C 0.55507 0.7644 0.19252 0.0
H2053 H 0.56779 0.84604 0.12244 0.0
H2054 H 0.56893 0.81881 0.13408 0.0
H2055 H 0.52645 0.78133 0.19624 0.0
H2056 H 0.54347 0.71516 0.25009 0.0
H2057 H 0.54297 0.74306 0.24053 0.0
C2058 C 0.1693 0.70956 0.1764 0.0
C2059 C 0.15677 0.7088 0.15593 0.0
C2060 C 0.18565 0.72563 0.18093 0.0
C2061 C 0.20794 0.77514 0.171 0.0
H2062 H 0.25219 0.77315 0.17955 0.0
C2063 C 0.2785 0.83972 0.17444 0.0
C2064 C 0.29093 0.84011 0.19477 0.0
C2065 C 0.26222 0.82369 0.16916 0.0
C2066 C 0.23993 0.77393 0.17751 0.0
H2067 H 0.15156 0.72439 0.12426 0.0
H2068 H 0.18015 0.75242 0.1321 0.0
H2069 H 0.22351 0.74525 0.17172 0.0
H2070 H 0.29604 0.82393 0.22539 0.0
H2071 H 0.26758 0.79606 0.21641 0.0
H2072 H 0.22434 0.80381 0.17692 0.0
C2073 C 0.17724 0.74061 0.14483 0.0
C2074 C 0.22349 0.75793 0.17302 0.0
C2075 C 0.1609 0.72452 0.14024 0.0
C2076 C 0.28679 0.82409 0.20953 0.0
C2077 C 0.27051 0.80807 0.20427 0.0
C2078 C 0.22437 0.79114 0.17553 0.0
C2079 C 0.18983 0.74133 0.16514 0.0
C2080 C 0.20731 0.75836 0.16977 0.0
C2081 C 0.258 0.8077 0.1841 0.0
C2082 C 0.24056 0.79072 0.17888 0.0
H2083 H 0.16653 0.69771 0.1889 0.0
H2084 H 0.19496 0.72581 0.19702 0.0
H2085 H 0.19566 0.7759 0.16896 0.0
H2086 H 0.28131 0.85181 0.16262 0.0
H2087 H 0.253 0.8238 0.1532 0.0
C2088 C 0.24667 0.23872 0.13644 0.0
C2089 C 0.23557 0.24524 0.1257 0.0
C2090 C 0.24972 0.23876 0.16603 0.0
C2091 C 0.24608 0.25813 0.23566 0.0
H2092 H 0.24257 0.21439 0.2675 0.0
C2093 C 0.23303 0.23951 0.35603 0.0
C2094 C 0.24209 0.23139 0.3691 0.0
C2095 C 0.23456 0.24289 0.32643 0.0
C2096 C 0.24389 0.22682 0.25893 0.0
H2097 H 0.21932 0.25732 0.13757 0.0
H2098 H 0.22441 0.25714 0.18928 0.0
H2099 H 0.24094 0.21729 0.21551 0.0
H2100 H 0.26021 0.22084 0.36142 0.0
H2101 H 0.26288 0.22678 0.30958 0.0
H2102 H 0.2486 0.26743 0.27925 0.0
C2103 C 0.23096 0.25221 0.17478 0.0
C2104 C 0.24296 0.22849 0.22911 0.0
C2105 C 0.22795 0.25222 0.14514 0.0
C2106 C 0.25301 0.22705 0.35199 0.0
C2107 C 0.25448 0.23038 0.3223 0.0
C2108 C 0.24697 0.25643 0.2655 0.0
C2109 C 0.24169 0.24527 0.18558 0.0
C2110 C 0.24384 0.24407 0.21715 0.0
C2111 C 0.24514 0.23819 0.30918 0.0
C2112 C 0.24566 0.24066 0.27746 0.0
H2113 H 0.25287 0.23337 0.12202 0.0
H2114 H 0.2583 0.2336 0.17361 0.0
H2115 H 0.2471 0.27042 0.22709 0.0
H2116 H 0.22451 0.24304 0.36859 0.0
H2117 H 0.22701 0.24871 0.31692 0.0
C2118 C 0.78641 0.99737 0.14772 0.0
C2119 C 0.7727 0.99545 0.12876 0.0
C2120 C 0.78451 -0.00149 0.17743 0.0
C2121 C 0.75075 0.98768 0.23471 0.0
H2122 H 0.79222 0.02342 0.27814 0.0
C2123 C 0.74699 -0.00012 0.35689 0.0
C2124 C 0.76174 0.00215 0.37362 0.0
C2125 C 0.74783 -0.00027 0.32675 0.0
C2126 C 0.78056 0.01326 0.26637 0.0
H2127 H 0.74612 0.99299 0.12614 0.0
H2128 H 0.74285 0.99501 0.17813 0.0
H2129 H 0.79455 0.02153 0.22604 0.0
H2130 H 0.78891 0.00599 0.37183 0.0
H2131 H 0.79025 0.00545 0.31956 0.0
H2132 H 0.73684 0.97925 0.27516 0.0
C2133 C 0.75501 0.99553 0.16995 0.0
C2134 C 0.7819 0.01218 0.23653 0.0
C2135 C 0.75693 0.99445 0.14019 0.0
C2136 C 0.77734 0.00431 0.35962 0.0
C2137 C 0.77815 0.00412 0.32959 0.0
C2138 C 0.74942 0.98872 0.26463 0.0
C2139 C 0.76885 0.99771 0.18886 0.0
C2140 C 0.76709 -0.00074 0.22041 0.0
C2141 C 0.76343 0.00183 0.31279 0.0
C2142 C 0.76439 0.00139 0.28083 0.0
H2143 H 0.7987 -0.00189 0.13964 0.0
H2144 H 0.79529 -0.0001 0.1915 0.0
H2145 H 0.73915 0.97749 0.22287 0.0
H2146 H 0.7348 -0.00178 0.36704 0.0
H2147 H 0.73633 -0.00188 0.31439 0.0
C2148 C 0.00475 0.76385 0.36053 0.0
C2149 C 0.98717 0.75774 0.37119 0.0
C2150 C 0.00772 0.76343 0.33099 0.0
C2151 C 0.98461 0.74332 0.26184 0.0
H2152 H 0.02514 0.78631 0.22871 0.0
C2153 C 0.99054 0.75932 0.14042 0.0
C2154 C 0.00774 0.76696 0.12747 0.0
C2155 C 0.98862 0.75676 0.17021 0.0
C2156 C 0.01394 0.77409 0.23766 0.0
H2157 H 0.95887 0.74598 0.35924 0.0
H2158 H 0.9641 0.74545 0.30764 0.0
H2159 H 0.02058 0.7843 0.28074 0.0
H2160 H 0.03639 0.77765 0.13561 0.0
H2161 H 0.03301 0.77313 0.18778 0.0
H2162 H 0.9778 0.73329 0.21863 0.0
C2163 C 0.97556 0.75037 0.32216 0.0
C2164 C 0.01131 0.77293 0.26749 0.0
C2165 C 0.97258 0.75077 0.35173 0.0
C2166 C 0.02296 0.77177 0.14494 0.0
C2167 C 0.02104 0.76926 0.17481 0.0
C2168 C 0.98723 0.74449 0.232 0.0
C2169 C 0.9932 0.75691 0.31144 0.0
C2170 C 0.99651 0.75761 0.2799 0.0
C2171 C 0.00385 0.76183 0.18777 0.0
C2172 C 0.0018 0.75998 0.21956 0.0
H2173 H 0.01629 0.7692 0.37495 0.0
H2174 H 0.02143 0.7683 0.32346 0.0
H2175 H 0.97325 0.73122 0.27078 0.0
H2176 H 0.97852 0.75547 0.1276 0.0
H2177 H 0.97523 0.75124 0.17956 0.0
C2178 C 0.76222 0.75915 0.85203 0.0
C2179 C 0.77773 0.773 0.86559 0.0
C2180 C 0.76043 0.75895 0.82203 0.0
C2181 C 0.78727 0.77939 0.75508 0.0
H2182 H 0.74006 0.76396 0.72141 0.0
C2183 C 0.77779 0.79544 0.63817 0.0
C2184 C 0.7662 0.78037 0.62119 0.0
C2185 C 0.77842 0.79374 0.66802 0.0
C2186 C 0.75328 0.76818 0.7306 0.0
H2187 H 0.80341 0.7976 0.85848 0.0
H2188 H 0.80003 0.79768 0.80653 0.0
H2189 H 0.7429 0.76244 0.77365 0.0
H2190 H 0.74568 0.75188 0.62219 0.0
H2191 H 0.74645 0.74907 0.67473 0.0
H2192 H 0.79767 0.78579 0.71201 0.0
C2193 C 0.78947 0.7866 0.81875 0.0
C2194 C 0.75493 0.76723 0.76047 0.0
C2195 C 0.79138 0.78663 0.84863 0.0
C2196 C 0.75478 0.7637 0.63476 0.0
C2197 C 0.75517 0.76209 0.66473 0.0
C2198 C 0.78565 0.78063 0.72535 0.0
C2199 C 0.77399 0.77275 0.805 0.0
C2200 C 0.77199 0.77295 0.77312 0.0
C2201 C 0.76723 0.77703 0.6815 0.0
C2202 C 0.76868 0.77515 0.7129 0.0
H2203 H 0.75152 0.7484 0.86458 0.0
H2204 H 0.74845 0.74791 0.81221 0.0
H2205 H 0.80055 0.78348 0.76387 0.0
H2206 H 0.7868 0.80844 0.62835 0.0
H2207 H 0.78773 0.80547 0.68059 0.0
C2208 C 0.229 0.99586 0.6388 0.0
C2209 C 0.2123 0.98574 0.62452 0.0
C2210 C 0.2297 0.99688 0.66894 0.0
C2211 C 0.20131 0.99233 0.73162 0.0
H2212 H 0.23738 0.98752 0.77561 0.0
C2213 C 0.19644 0.98391 0.85474 0.0
C2214 C 0.21248 0.9931 0.87091 0.0
C2215 C 0.19706 0.98338 0.82469 0.0
C2216 C 0.22737 0.98913 0.76361 0.0
H2217 H 0.18331 0.96845 0.63071 0.0
H2218 H 0.18458 0.97021 0.68312 0.0
H2219 H 0.2374 0.98582 0.72298 0.0
H2220 H 0.24182 0.0089 0.86821 0.0
H2221 H 0.2429 0.00817 0.81561 0.0
H2222 H 0.1913 0.99573 0.77204 0.0
C2223 C 0.19709 0.97752 0.67104 0.0
C2224 C 0.22737 0.98813 0.73349 0.0
C2225 C 0.19639 0.97643 0.641 0.0
C2226 C 0.22921 0.00168 0.85636 0.0
C2227 C 0.22983 0.00118 0.82624 0.0
C2228 C 0.20135 0.9934 0.76166 0.0
C2229 C 0.21372 0.98789 0.68533 0.0
C2230 C 0.21421 0.98954 0.71722 0.0
C2231 C 0.21375 0.99207 0.81006 0.0
C2232 C 0.21425 0.99163 0.77804 0.0
H2233 H 0.24151 0.00318 0.62672 0.0
H2234 H 0.2427 0.00506 0.67937 0.0
H2235 H 0.19122 0.99383 0.71964 0.0
H2236 H 0.18333 0.97706 0.86525 0.0
H2237 H 0.18443 0.97596 0.81294 0.0
C2238 C 0.01059 0.24431 0.645 0.0
C2239 C 0.01463 0.23212 0.63103 0.0
C2240 C 0.00925 0.24425 0.67507 0.0
C2241 C 0.0191 0.2259 0.7417 0.0
H2242 H 0.98161 0.23349 0.77491 0.0
C2243 C 0.99009 0.20273 0.85597 0.0
C2244 C 0.99134 0.21652 0.87413 0.0
C2245 C 0.9935 0.20585 0.82647 0.0
C2246 C 0.9922 0.23147 0.76585 0.0
H2247 H 0.02056 0.21042 0.63752 0.0
H2248 H 0.0175 0.20976 0.68956 0.0
H2249 H 0.98712 0.23701 0.723 0.0
H2250 H 0.99654 0.24416 0.87561 0.0
H2251 H 0.00191 0.24938 0.82361 0.0
H2252 H 0.02343 0.21945 0.78458 0.0
C2253 C 0.01595 0.21982 0.67764 0.0
C2254 C 0.99548 0.23361 0.73616 0.0
C2255 C 0.0176 0.22011 0.64768 0.0
C2256 C 0.99552 0.23331 0.86209 0.0
C2257 C -0.00145 0.2363 0.83244 0.0
C2258 C 0.01555 0.22341 0.77123 0.0
C2259 C 0.01161 0.23178 0.69178 0.0
C2260 C 0.00888 0.23069 0.72363 0.0
C2261 C -0.00215 0.22268 0.81453 0.0
C2262 C 0.00199 0.22604 0.78348 0.0
H2263 H 0.00835 0.25381 0.63269 0.0
H2264 H 0.00626 0.25392 0.68517 0.0
H2265 H 0.02983 0.22397 0.73306 0.0
H2266 H 0.98698 0.18969 0.86466 0.0
H2267 H 0.99277 0.19513 0.81295 0.0
C2268 C 0.90828 0.56483 0.46916 0.0
C2269 C 0.89788 0.57165 0.45662 0.0
C2270 C 0.91056 0.56527 0.49903 0.0
C2271 C 0.90648 0.5867 0.56603 0.0
H2272 H 0.90198 0.54364 0.60235 0.0
C2273 C 0.89453 0.57277 0.68809 0.0
C2274 C 0.90367 0.56504 0.70212 0.0
C2275 C 0.89546 0.5748 0.65815 0.0
C2276 C 0.90354 0.55586 0.59252 0.0
H2277 H 0.88198 0.58456 0.46557 0.0
H2278 H 0.88574 0.58507 0.51775 0.0
H2279 H 0.90055 0.54498 0.55001 0.0
H2280 H 0.92125 0.55371 0.69574 0.0
H2281 H 0.92289 0.55731 0.6434 0.0
H2282 H 0.90913 0.59741 0.60868 0.0
C2283 C 0.89234 0.57961 0.50446 0.0
C2284 C 0.90272 0.55665 0.56251 0.0
C2285 C 0.89009 0.57922 0.47455 0.0
C2286 C 0.914 0.55966 0.68559 0.0
C2287 C 0.91487 0.56164 0.6556 0.0
C2288 C 0.90725 0.58589 0.59606 0.0
C2289 C 0.90246 0.57248 0.51706 0.0
C2290 C 0.90406 0.57202 0.54891 0.0
C2291 C 0.9055 0.56912 0.64156 0.0
C2292 C 0.90565 0.57041 0.60963 0.0
H2293 H 0.91456 0.55902 0.45595 0.0
H2294 H 0.91868 0.55993 0.508 0.0
H2295 H 0.90784 0.59885 0.5562 0.0
H2296 H 0.88644 0.57706 0.70018 0.0
H2297 H 0.88792 0.58041 0.64794 0.0
C2298 C 0.41291 0.30455 0.46974 0.0
C2299 C 0.42281 0.31984 0.45216 0.0
C2300 C 0.41287 0.3064 0.4997 0.0
C2301 C 0.42196 0.33974 0.55749 0.0
H2302 H 0.43041 0.30709 0.60455 0.0
C2303 C 0.44235 0.35367 0.67758 0.0
C2304 C 0.43522 0.3388 0.69648 0.0
C2305 C 0.43936 0.351 0.64789 0.0
C2306 C 0.42776 0.31615 0.59179 0.0
H2307 H 0.44014 0.34911 0.45218 0.0
H2308 H 0.4401 0.35229 0.50435 0.0
H2309 H 0.42748 0.30285 0.55247 0.0
H2310 H 0.41889 0.30948 0.69912 0.0
H2311 H 0.41345 0.30487 0.64747 0.0
H2312 H 0.42235 0.35312 0.59681 0.0
C2313 C 0.43227 0.3389 0.495 0.0
C2314 C 0.42609 0.31371 0.56194 0.0
C2315 C 0.43239 0.33704 0.46511 0.0
C2316 C 0.42471 0.32123 0.68513 0.0
C2317 C 0.42166 0.31857 0.65549 0.0
C2318 C 0.42357 0.34214 0.58738 0.0
C2319 C 0.42264 0.32359 0.51263 0.0
C2320 C 0.42334 0.32558 0.54445 0.0
C2321 C 0.42911 0.3334 0.63649 0.0
C2322 C 0.42664 0.33047 0.60485 0.0
H2323 H 0.40536 0.29112 0.46041 0.0
H2324 H 0.40519 0.29439 0.51276 0.0
H2325 H 0.41961 0.34895 0.54458 0.0
H2326 H 0.45053 0.36737 0.68565 0.0
H2327 H 0.44546 0.3627 0.6338 0.0
C2328 C 0.67523 0.09918 0.69003 0.0
C2329 C 0.65761 0.09147 0.70142 0.0
C2330 C 0.67792 0.09846 0.66046 0.0
C2331 C 0.65471 0.07487 0.59304 0.0
H2332 H 0.69238 0.11849 0.55654 0.0
C2333 C 0.65805 0.08728 0.47042 0.0
C2334 C 0.67516 0.09585 0.45706 0.0
C2335 C 0.65656 0.08531 0.50034 0.0
C2336 C 0.68199 0.10611 0.56646 0.0
H2337 H 0.62899 0.07674 0.69073 0.0
H2338 H 0.63368 0.07576 0.63903 0.0
H2339 H 0.68843 0.11781 0.60863 0.0
H2340 H 0.70412 0.10867 0.46461 0.0
H2341 H 0.7015 0.10521 0.51699 0.0
H2342 H 0.64806 0.06334 0.55065 0.0
C2343 C 0.64543 0.08212 0.65302 0.0
C2344 C 0.67972 0.10571 0.59632 0.0
C2345 C 0.64273 0.08279 0.68265 0.0
C2346 C 0.69075 0.10205 0.47424 0.0
C2347 C 0.68925 0.10015 0.50424 0.0
C2348 C 0.65696 0.07529 0.56313 0.0
C2349 C 0.66306 0.09008 0.64157 0.0
C2350 C 0.66595 0.09014 0.60995 0.0
C2351 C 0.67215 0.09193 0.51761 0.0
C2352 C 0.67052 0.09098 0.5495 0.0
H2353 H 0.687 0.10587 0.70393 0.0
H2354 H 0.69166 0.10447 0.65241 0.0
H2355 H 0.64418 0.06256 0.60291 0.0
H2356 H 0.64576 0.08234 0.45781 0.0
H2357 H 0.64321 0.0791 0.51002 0.0
C2358 C 0.43021 0.09579 0.18921 0.0
C2359 C 0.44025 0.1123 0.20399 0.0
C2360 C 0.42902 0.09548 0.15911 0.0
C2361 C 0.45218 0.12334 0.09484 0.0
H2362 H 0.40735 0.09016 0.0558 0.0
C2363 C 0.44206 0.1287 0.97345 0.0
C2364 C 0.4347 0.11252 0.9575 0.0
C2365 C 0.44202 0.12831 0.00354 0.0
C2366 C 0.41999 0.0994 0.06644 0.0
H2367 H 0.45659 0.14146 0.19885 0.0
H2368 H 0.4542 0.14096 0.14657 0.0
H2369 H 0.40866 0.09024 0.10846 0.0
H2370 H 0.42109 0.0832 0.96063 0.0
H2371 H 0.42094 0.08255 0.01335 0.0
H2372 H 0.46343 0.13264 0.05285 0.0
C2373 C 0.44759 0.1282 0.15808 0.0
C2374 C 0.42077 0.09942 0.09658 0.0
C2375 C 0.44888 0.12849 0.18811 0.0
C2376 C 0.42689 0.0959 0.97231 0.0
C2377 C 0.42672 0.09552 0.00247 0.0
C2378 C 0.45136 0.1234 0.06479 0.0
C2379 C 0.43777 0.11169 0.14318 0.0
C2380 C 0.43687 0.11144 0.11114 0.0
C2381 C 0.4345 0.11174 0.01836 0.0
C2382 C 0.43525 0.11148 0.05028 0.0
H2383 H 0.42344 0.08307 0.20085 0.0
H2384 H 0.42153 0.08251 0.14832 0.0
H2385 H 0.46492 0.1325 0.10527 0.0
H2386 H 0.44814 0.14173 0.96273 0.0
H2387 H 0.44789 0.14101 0.01525 0.0
C2388 C 0.91041 0.35339 0.18513 0.0
C2389 C 0.90241 0.3382 0.20337 0.0
C2390 C 0.91011 0.35121 0.15521 0.0
C2391 C 0.88489 0.31789 0.09798 0.0
H2392 H 0.92599 0.35019 0.05051 0.0
C2393 C 0.88619 0.30784 0.975 0.0
C2394 C 0.89235 0.3235 0.95803 0.0
C2395 C 0.88831 0.3092 0.00496 0.0
C2396 C 0.91436 0.34114 0.06349 0.0
H2397 H 0.8882 0.3088 0.20455 0.0
H2398 H 0.88791 0.30502 0.15245 0.0
H2399 H 0.92817 0.35338 0.10291 0.0
H2400 H 0.90585 0.35288 0.95916 0.0
H2401 H 0.90946 0.35521 0.01137 0.0
H2402 H 0.87105 0.30572 0.05856 0.0
C2403 C 0.89413 0.31862 0.16121 0.0
C2404 C 0.9156 0.34298 0.09348 0.0
C2405 C 0.89439 0.32079 0.1911 0.0
C2406 C 0.90094 0.34054 0.9716 0.0
C2407 C 0.90312 0.3419 0.00151 0.0
C2408 C 0.88367 0.31602 0.068 0.0
C2409 C 0.90184 0.33379 0.1429 0.0
C2410 C 0.90083 0.33146 0.11107 0.0
C2411 C 0.89671 0.32624 0.01854 0.0
C2412 C 0.89835 0.32771 0.05042 0.0
H2413 H 0.91666 0.36699 0.19389 0.0
H2414 H 0.91597 0.36319 0.14171 0.0
H2415 H 0.87315 0.30897 0.11085 0.0
H2416 H 0.87956 0.29451 0.96521 0.0
H2417 H 0.88341 0.2969 0.0175 0.0
C2418 C 0.64358 0.56181 0.18531 0.0
C2419 C 0.65863 0.56468 0.20179 0.0
C2420 C 0.64507 0.56428 0.15543 0.0
C2421 C 0.67828 0.58615 0.09658 0.0
H2422 H 0.64083 0.54865 0.04906 0.0
C2423 C 0.68752 0.57932 0.97469 0.0
C2424 C 0.67243 0.57383 0.9566 0.0
C2425 C 0.6857 0.57964 0.00461 0.0
C2426 C 0.65127 0.55941 0.06198 0.0
H2427 H 0.68715 0.57274 0.1999 0.0
H2428 H 0.6897 0.57698 0.14781 0.0
H2429 H 0.63779 0.54673 0.10135 0.0
H2430 H 0.64369 0.56491 0.95566 0.0
H2431 H 0.64059 0.56574 0.00777 0.0
H2432 H 0.69182 0.59876 0.05718 0.0
C2433 C 0.67679 0.57295 0.158 0.0
C2434 C 0.64952 0.55829 0.09196 0.0
C2435 C 0.67528 0.57041 0.18784 0.0
C2436 C 0.65557 0.56909 0.96901 0.0
C2437 C 0.65376 0.56947 -0.0011 0.0
C2438 C 0.68 0.5873 0.06657 0.0
C2439 C 0.66166 0.56977 0.14144 0.0
C2440 C 0.66309 0.57155 0.10959 0.0
C2441 C 0.66875 0.57453 0.01707 0.0
C2442 C 0.66658 0.57385 0.04892 0.0
H2443 H 0.63057 0.55745 0.19542 0.0
H2444 H 0.63323 0.56191 0.14325 0.0
H2445 H 0.68883 0.59671 0.10962 0.0
H2446 H 0.70069 0.58303 0.96582 0.0
H2447 H 0.69747 0.58341 0.01801 0.0
C2448 C 0.56524 0.89774 0.01318 0.0
C2449 C 0.55692 0.88094 0.02748 0.0
C2450 C 0.565 0.8985 0.98307 0.0
C2451 C 0.53892 0.87218 0.92048 0.0
H2452 H 0.58212 0.90401 0.87669 0.0
C2453 C 0.54061 0.8682 0.79679 0.0
C2454 C 0.55022 0.88447 0.78132 0.0
C2455 C 0.54176 0.8681 0.82682 0.0
C2456 C 0.56987 0.89524 0.88861 0.0
H2457 H 0.54204 0.85177 0.02139 0.0
H2458 H 0.54157 0.85314 0.96891 0.0
H2459 H 0.58368 0.90335 0.92924 0.0
H2460 H 0.56852 0.91344 0.7852 0.0
H2461 H 0.57019 0.91334 0.83771 0.0
H2462 H 0.52499 0.86423 0.88013 0.0
C2463 C 0.54818 0.8657 0.981 0.0
C2464 C 0.5708 0.89483 0.91868 0.0
C2465 C 0.54856 0.86493 0.01106 0.0
C2466 C 0.561 0.90066 0.79651 0.0
C2467 C 0.56204 0.90059 0.82661 0.0
C2468 C 0.53795 0.87269 0.89048 0.0
C2469 C 0.5563 0.88248 0.96672 0.0
C2470 C 0.55535 0.8832 0.93488 0.0
C2471 C 0.55242 0.88429 0.84213 0.0
C2472 C 0.55343 0.88413 0.87413 0.0
H2473 H 0.57181 0.91032 0.02524 0.0
H2474 H 0.57127 0.91162 0.97261 0.0
H2475 H 0.52673 0.86331 0.93248 0.0
H2476 H 0.5323 0.85546 0.78572 0.0
H2477 H 0.53444 0.85525 0.838 0.0
C2478 C 0.09415 0.65853 0.02045 0.0
C2479 C 0.09979 0.67563 0.03276 0.0
C2480 C 0.09165 0.65597 0.99072 0.0
C2481 C 0.10591 0.68082 0.92223 0.0
H2482 H 0.06624 0.63649 0.89069 0.0
C2483 C 0.09493 0.66911 0.79973 0.0
C2484 C 0.09118 0.65202 0.78956 0.0
C2485 C 0.09442 0.67216 0.82922 0.0
C2486 C 0.07745 0.64889 0.89919 0.0
H2487 H 0.10696 0.70338 0.02349 0.0
H2488 H 0.1025 0.69885 0.97145 0.0
H2489 H 0.06814 0.6417 0.94267 0.0
H2490 H 0.08353 0.62463 0.80236 0.0
H2491 H 0.0828 0.63001 0.85388 0.0
H2492 H 0.11538 0.6879 0.87885 0.0
C2493 C 0.10019 0.68749 0.98486 0.0
C2494 C 0.07854 0.65187 0.92895 0.0
C2495 C 0.10266 0.69006 0.01468 0.0
C2496 C 0.08648 0.63794 0.80948 0.0
C2497 C 0.08596 0.641 0.839 0.0
C2498 C 0.10482 0.67783 0.89249 0.0
C2499 C 0.09475 0.67043 0.97255 0.0
C2500 C 0.0929 0.66778 0.94082 0.0
C2501 C 0.09013 0.65821 0.84922 0.0
C2502 C 0.09068 0.66175 0.88066 0.0
H2503 H 0.09184 0.64712 0.03374 0.0
H2504 H 0.08771 0.64273 0.98189 0.0
H2505 H 0.11728 0.69309 0.93073 0.0
H2506 H 0.09851 0.68024 0.78495 0.0
H2507 H 0.09744 0.68549 0.83638 0.0
C2508 C 0.34124 0.43895 0.02876 0.0
C2509 C 0.32384 0.42893 0.04088 0.0
C2510 C 0.34379 0.43845 -0.00088 0.0
C2511 C 0.32223 0.41206 0.93296 0.0
H2512 H 0.35444 0.45746 0.89456 0.0
C2513 C 0.32338 0.42139 0.80959 0.0
C2514 C 0.3403 0.43195 0.79619 0.0
C2515 C 0.32205 0.42003 0.8396 0.0
C2516 C 0.34561 0.44463 0.90502 0.0
H2517 H 0.29549 0.41036 0.03141 0.0
H2518 H 0.29991 0.40971 0.97953 0.0
H2519 H 0.35068 0.45698 0.94668 0.0
H2520 H 0.36917 0.44901 0.80377 0.0
H2521 H 0.36683 0.44659 0.85625 0.0
H2522 H 0.31694 0.39981 0.8911 0.0
C2523 C 0.31162 0.41775 0.99304 0.0
C2524 C 0.34344 0.44435 0.93489 0.0
C2525 C 0.30907 0.41821 0.02275 0.0
C2526 C 0.35593 0.44082 0.81343 0.0
C2527 C 0.35458 0.43951 0.84348 0.0
C2528 C 0.32436 0.41236 0.90304 0.0
C2529 C 0.329 0.42797 0.98087 0.0
C2530 C 0.33165 0.42808 0.9492 0.0
C2531 C 0.33761 0.42923 0.85687 0.0
C2532 C 0.33599 0.42867 0.88875 0.0
H2533 H 0.35293 0.44726 0.04216 0.0
H2534 H 0.35739 0.44625 0.9905 0.0
H2535 H 0.31327 0.39927 0.94339 0.0
H2536 H 0.31107 0.41437 0.79694 0.0
H2537 H 0.30876 0.41216 0.84929 0.0
C2538 C 0.09464 0.42092 0.52232 0.0
C2539 C 0.11121 0.43262 0.53587 0.0
C2540 C 0.09312 0.42084 0.49228 0.0
C2541 C 0.12111 0.43726 0.42514 0.0
H2542 H 0.07656 0.43099 0.39181 0.0
C2543 C 0.11579 0.45965 0.3101 0.0
C2544 C 0.10294 0.44587 0.29226 0.0
C2545 C 0.11608 0.45676 0.33968 0.0
C2546 C 0.089 0.43262 0.40091 0.0
H2547 H 0.13914 0.45346 0.52869 0.0
H2548 H 0.13636 0.45394 0.47667 0.0
H2549 H 0.07862 0.42822 0.44391 0.0
H2550 H 0.07997 0.4185 0.29141 0.0
H2551 H 0.08013 0.41371 0.34358 0.0
H2552 H 0.13168 0.44259 0.38208 0.0
C2553 C 0.12464 0.44432 0.48891 0.0
C2554 C 0.09019 0.43093 0.43071 0.0
C2555 C 0.12624 0.44415 0.51884 0.0
C2556 C 0.09005 0.42932 0.30468 0.0
C2557 C 0.0901 0.42659 0.33442 0.0
C2558 C 0.12001 0.43932 0.39548 0.0
C2559 C 0.10806 0.43269 0.47517 0.0
C2560 C 0.10634 0.4334 0.44328 0.0
C2561 C 0.10328 0.4402 0.35202 0.0
C2562 C 0.10401 0.43715 0.38319 0.0
H2563 H 0.08286 0.4118 0.53494 0.0
H2564 H 0.08022 0.41146 0.48252 0.0
H2565 H 0.1336 0.4388 0.43381 0.0
H2566 H 0.12594 0.4725 0.30112 0.0
H2567 H 0.12629 0.46747 0.35295 0.0
C2568 C 0.57412 0.67002 0.30518 0.0
C2569 C 0.55997 0.65411 0.29296 0.0
C2570 C 0.57627 0.67183 0.33507 0.0
C2571 C 0.56276 0.64586 0.40353 0.0
H2572 H 0.57292 0.69192 0.4363 0.0
C2573 C 0.552 0.65488 0.52376 0.0
C2574 C 0.56517 0.67069 0.53767 0.0
C2575 C 0.55275 0.65283 0.49402 0.0
C2576 C 0.57033 0.67906 0.42748 0.0
H2577 H 0.53725 0.62745 0.30249 0.0
H2578 H 0.54081 0.63072 0.35469 0.0
H2579 H 0.57179 0.6882 0.38412 0.0
H2580 H 0.58954 0.6967 0.53128 0.0
H2581 H 0.59082 0.6931 0.47919 0.0
H2582 H 0.56093 0.63665 0.44703 0.0
C2583 C 0.55041 0.6417 0.34116 0.0
C2584 C 0.5697 0.67692 0.39757 0.0
C2585 C 0.54831 0.63986 0.31123 0.0
C2586 C 0.57917 0.68438 0.52119 0.0
C2587 C 0.57987 0.68235 0.49137 0.0
C2588 C 0.56332 0.64799 0.43347 0.0
C2589 C 0.56428 0.65781 0.35343 0.0
C2590 C 0.56577 0.66026 0.38523 0.0
C2591 C 0.56664 0.66656 0.47748 0.0
C2592 C 0.56697 0.66457 0.44575 0.0
H2593 H 0.58343 0.68121 0.29169 0.0
H2594 H 0.58729 0.68427 0.34379 0.0
H2595 H 0.55998 0.63295 0.39473 0.0
H2596 H 0.54102 0.64407 0.53581 0.0
H2597 H 0.54223 0.64062 0.48388 0.0
C2598 C 0.34559 0.88376 0.30584 0.0
C2599 C 0.34199 0.89507 0.28845 0.0
C2600 C 0.34368 0.88371 0.33573 0.0
C2601 C 0.32204 0.89691 0.39326 0.0
H2602 H 0.35228 0.88623 0.44258 0.0
C2603 C 0.32306 0.89869 0.51948 0.0
C2604 C 0.31981 0.88229 0.53196 0.0
C2605 C 0.32581 0.90143 0.48972 0.0
C2606 C 0.34377 0.88923 0.42899 0.0
H2607 H 0.33406 0.91559 0.28872 0.0
H2608 H 0.33146 0.91611 0.34109 0.0
H2609 H 0.35813 0.88989 0.39088 0.0
H2610 H 0.31684 0.85592 0.52314 0.0
H2611 H 0.32215 0.86097 0.47134 0.0
H2612 H 0.30806 0.89668 0.43196 0.0
C2613 C 0.3352 0.90683 0.33162 0.0
C2614 C 0.34699 0.89121 0.39935 0.0
C2615 C 0.33682 0.90664 0.30161 0.0
C2616 C 0.31922 0.86866 0.51414 0.0
C2617 C 0.32236 0.87156 0.48457 0.0
C2618 C 0.31905 0.89528 0.42306 0.0
C2619 C 0.33844 0.89523 0.34908 0.0
C2620 C 0.33594 0.89469 0.38096 0.0
C2621 C 0.32577 0.88798 0.47217 0.0
C2622 C 0.32968 0.89109 0.44102 0.0
H2623 H 0.34942 0.87454 0.29632 0.0
H2624 H 0.34589 0.87428 0.34825 0.0
H2625 H 0.31307 0.89934 0.37986 0.0
H2626 H 0.32355 0.9094 0.53272 0.0
H2627 H 0.32845 0.91421 0.48053 0.0
loop_
_geom_bond_atom_site_label_1
_geom_bond_atom_site_label_2
_geom_bond_distance
_geom_bond_site_symmetry_2
_ccdc_geom_bond_type
C0 O1 1.160 1_554 S
C0 O7 1.185 . S
O1 C0 1.160 1_556 S
O2 Zn3 1.899 . S
O2 C10 1.284 . S
Zn3 O2 1.899 . S
Zn3 O4 2.032 . S
Zn3 O7 2.086 . S
Zn3 O12 1.977 . S
O4 Zn3 2.032 . S
O4 C8 1.278 . S
C5 O6 1.203 . S
C5 O12 1.267 . S
O6 C5 1.203 . S
O7 C0 1.185 . S
O7 Zn3 2.086 . S
C8 O4 1.278 . S
C8 O9 1.211 . S
O9 C8 1.211 . S
C10 O2 1.284 . S
C10 O11 1.273 . S
O11 C10 1.273 . S
O12 Zn3 1.977 . S
O12 C5 1.267 . S
C13 O14 1.160 1_554 S
C13 O20 1.185 . S
O14 C13 1.160 1_556 S
O15 Zn16 1.899 1_565 S
O15 C23 1.284 . S
Zn16 O15 1.899 1_545 S
Zn16 O17 2.032 . S
Zn16 O20 2.086 . S
Zn16 O25 1.977 . S
O17 Zn16 2.032 . S
O17 C21 1.278 . S
C18 O19 1.203 . S
C18 O25 1.267 . S
O19 C18 1.203 . S
O20 C13 1.185 . S
O20 Zn16 2.086 . S
C21 O17 1.278 . S
C21 O22 1.211 . S
O22 C21 1.211 . S
C23 O15 1.284 . S
C23 O24 1.285 . S
O24 C23 1.285 . S
O25 Zn16 1.977 . S
O25 C18 1.267 . S
C26 O27 1.160 1_554 S
C26 O33 1.185 . S
O27 C26 1.160 1_556 S
O28 Zn29 1.899 1_455 S
O28 C36 1.284 . S
Zn29 O28 1.899 1_655 S
Zn29 O30 2.032 . S
Zn29 O33 2.086 . S
Zn29 O38 1.977 . S
O30 Zn29 2.032 . S
O30 C34 1.278 . S
C31 O32 1.203 . S
C31 O38 1.267 . S
O32 C31 1.203 . S
O33 C26 1.185 . S
O33 Zn29 2.086 . S
C34 O30 1.278 . S
C34 O35 1.211 . S
O35 C34 1.211 . S
C36 O28 1.284 . S
C36 O37 1.338 . S
O37 C36 1.338 . S
O38 Zn29 1.977 . S
O38 C31 1.267 . S
C39 O40 1.160 . S
C39 O46 1.185 . S
O40 C39 1.160 . S
O41 Zn42 1.899 . S
O41 C49 1.284 . S
Zn42 O41 1.899 . S
Zn42 O43 2.032 . S
Zn42 O46 2.086 . S
Zn42 O51 1.977 . S
O43 Zn42 2.032 . S
O43 C47 1.278 . S
C44 O45 1.203 . S
C44 O51 1.267 . S
O45 C44 1.203 . S
O46 C39 1.185 . S
O46 Zn42 2.086 . S
C47 O43 1.278 . S
C47 O48 1.211 . S
O48 C47 1.211 . S
C49 O41 1.284 . S
C49 O50 1.273 . S
O50 C49 1.273 . S
O51 Zn42 1.977 . S
O51 C44 1.267 . S
C52 O53 1.160 . S
C52 O59 1.185 . S
O53 C52 1.160 . S
O54 Zn55 1.899 1_545 S
O54 C62 1.284 . S
Zn55 O54 1.899 1_565 S
Zn55 O56 2.032 . S
Zn55 O59 2.086 . S
Zn55 O64 1.977 . S
O56 Zn55 2.032 . S
O56 C60 1.278 . S
C57 O58 1.203 . S
C57 O64 1.267 . S
O58 C57 1.203 . S
O59 C52 1.185 . S
O59 Zn55 2.086 . S
C60 O56 1.278 . S
C60 O61 1.211 . S
O61 C60 1.211 . S
C62 O54 1.284 . S
C62 O63 1.339 . S
O63 C62 1.339 . S
O64 Zn55 1.977 . S
O64 C57 1.267 . S
C65 O66 1.160 . S
C65 O72 1.185 . S
O66 C65 1.160 . S
O67 Zn68 1.899 1_655 S
O67 C75 1.284 . S
Zn68 O67 1.899 1_455 S
Zn68 O69 2.032 . S
Zn68 O72 2.086 . S
Zn68 O77 1.977 . S
O69 Zn68 2.032 . S
O69 C73 1.278 . S
C70 O71 1.203 . S
C70 O77 1.267 . S
O71 C70 1.203 . S
O72 C65 1.185 . S
O72 Zn68 2.086 . S
C73 O69 1.278 . S
C73 O74 1.211 . S
O74 C73 1.211 . S
C75 O67 1.284 . S
C75 O76 1.285 . S
O76 C75 1.285 . S
O77 Zn68 1.977 . S
O77 C70 1.267 . S
C78 O79 1.160 1_556 S
C78 O85 1.185 . S
O79 C78 1.160 1_554 S
O80 Zn81 1.899 . S
O80 C88 1.284 . S
Zn81 O80 1.899 . S
Zn81 O82 2.032 . S
Zn81 O85 2.086 . S
Zn81 O90 1.977 . S
O82 Zn81 2.032 . S
O82 C86 1.278 . S
C83 O84 1.203 . S
C83 O90 1.267 . S
O84 C83 1.203 . S
O85 C78 1.185 . S
O85 Zn81 2.086 . S
C86 O82 1.278 . S
C86 O87 1.211 . S
O87 C86 1.211 . S
C88 O80 1.284 . S
C88 O89 1.273 . S
O89 C88 1.273 . S
O90 Zn81 1.977 . S
O90 C83 1.267 . S
C91 O92 1.160 1_556 S
C91 O98 1.185 . S
O92 C91 1.160 1_554 S
O93 Zn94 1.899 1_545 S
O93 C101 1.284 . S
Zn94 O93 1.899 1_565 S
Zn94 O95 2.032 . S
Zn94 O98 2.086 . S
Zn94 O103 1.977 . S
O95 Zn94 2.032 . S
O95 C99 1.278 . S
C96 O97 1.203 . S
C96 O103 1.267 . S
O97 C96 1.203 . S
O98 C91 1.185 . S
O98 Zn94 2.086 . S
C99 O95 1.278 . S
C99 O100 1.211 . S
O100 C99 1.211 . S
C101 O93 1.284 . S
C101 O102 1.285 . S
O102 C101 1.285 . S
O103 Zn94 1.977 . S
O103 C96 1.267 . S
C104 O105 1.160 1_556 S
C104 O111 1.185 . S
O105 C104 1.160 1_554 S
O106 Zn107 1.899 1_655 S
O106 C114 1.284 . S
Zn107 O106 1.899 1_455 S
Zn107 O108 2.032 . S
Zn107 O111 2.086 . S
Zn107 O116 1.977 . S
O108 Zn107 2.032 . S
O108 C112 1.278 . S
C109 O110 1.203 . S
C109 O116 1.267 . S
O110 C109 1.203 . S
O111 C104 1.185 . S
O111 Zn107 2.086 . S
C112 O108 1.278 . S
C112 O113 1.211 . S
O113 C112 1.211 . S
C114 O106 1.284 . S
C114 O115 1.338 . S
O115 C114 1.338 . S
O116 Zn107 1.977 . S
O116 C109 1.267 . S
C117 O118 1.160 . S
C117 O124 1.185 . S
O118 C117 1.160 . S
O119 Zn120 1.899 . S
O119 C127 1.284 . S
Zn120 O119 1.899 . S
Zn120 O121 2.032 . S
Zn120 O124 2.086 . S
Zn120 O129 1.977 . S
O121 Zn120 2.032 . S
O121 C125 1.278 . S
C122 O123 1.203 . S
C122 O129 1.267 . S
O123 C122 1.203 . S
O124 C117 1.185 . S
O124 Zn120 2.086 . S
C125 O121 1.278 . S
C125 O126 1.211 . S
O126 C125 1.211 . S
C127 O119 1.284 . S
C127 O128 1.273 . S
O128 C127 1.273 . S
O129 Zn120 1.977 . S
O129 C122 1.267 . S
C130 O131 1.160 . S
C130 O137 1.185 . S
O131 C130 1.160 . S
O132 Zn133 1.899 1_565 S
O132 C140 1.284 . S
Zn133 O132 1.899 1_545 S
Zn133 O134 2.032 . S
Zn133 O137 2.086 . S
Zn133 O142 1.977 . S
O134 Zn133 2.032 . S
O134 C138 1.278 . S
C135 O136 1.203 . S
C135 O142 1.267 . S
O136 C135 1.203 . S
O137 C130 1.185 . S
O137 Zn133 2.086 . S
C138 O134 1.278 . S
C138 O139 1.211 . S
O139 C138 1.211 . S
C140 O132 1.284 . S
C140 O141 1.339 . S
O141 C140 1.339 . S
O142 Zn133 1.977 . S
O142 C135 1.267 . S
C143 O144 1.160 . S
C143 O150 1.185 . S
O144 C143 1.160 . S
O145 Zn146 1.899 1_455 S
O145 C153 1.284 . S
Zn146 O145 1.899 1_655 S
Zn146 O147 2.032 . S
Zn146 O150 2.086 . S
Zn146 O155 1.977 . S
O147 Zn146 2.032 . S
O147 C151 1.278 . S
C148 O149 1.203 . S
C148 O155 1.267 . S
O149 C148 1.203 . S
O150 C143 1.185 . S
O150 Zn146 2.086 . S
C151 O147 1.278 . S
C151 O152 1.211 . S
O152 C151 1.211 . S
C153 O145 1.284 . S
C153 O154 1.285 . S
O154 C153 1.285 . S
O155 Zn146 1.977 . S
O155 C148 1.267 . S
C156 O157 1.160 . S
C156 O163 1.185 . S
O157 C156 1.160 . S
O158 Zn159 1.899 . S
O158 C166 1.284 . S
Zn159 O158 1.899 . S
Zn159 O160 2.032 . S
Zn159 O163 2.086 . S
Zn159 O168 1.977 . S
O160 Zn159 2.032 . S
O160 C164 1.278 . S
C161 O162 1.203 . S
C161 O168 1.267 . S
O162 C161 1.203 . S
O163 C156 1.185 . S
O163 Zn159 2.086 . S
C164 O160 1.278 . S
C164 O165 1.211 . S
O165 C164 1.211 . S
C166 O158 1.284 . S
C166 O167 1.273 . S
O167 C166 1.273 . S
O168 Zn159 1.977 . S
O168 C161 1.267 . S
C169 O170 1.160 . S
C169 O176 1.185 . S
O170 C169 1.160 . S
O171 Zn172 1.899 . S
O171 C179 1.284 . S
Zn172 O171 1.899 . S
Zn172 O173 2.032 . S
Zn172 O176 2.086 . S
Zn172 O181 1.977 . S
O173 Zn172 2.032 . S
O173 C177 1.278 . S
C174 O175 1.203 . S
C174 O181 1.267 . S
O175 C174 1.203 . S
O176 C169 1.185 . S
O176 Zn172 2.086 . S
C177 O173 1.278 . S
C177 O178 1.211 . S
O178 C177 1.211 . S
C179 O171 1.284 . S
C179 O180 1.273 . S
O180 C179 1.273 . S
O181 Zn172 1.977 . S
O181 C174 1.267 . S
C182 O183 1.160 . S
C182 O189 1.185 . S
O183 C182 1.160 . S
O184 Zn185 1.899 . S
O184 C192 1.284 . S
Zn185 O184 1.899 . S
Zn185 O186 2.032 . S
Zn185 O189 2.086 . S
Zn185 O194 1.977 . S
O186 Zn185 2.032 . S
O186 C190 1.278 . S
C187 O188 1.203 . S
C187 O194 1.267 . S
O188 C187 1.203 . S
O189 C182 1.185 . S
O189 Zn185 2.086 . S
C190 O186 1.278 . S
C190 O191 1.211 . S
O191 C190 1.211 . S
C192 O184 1.284 . S
C192 O193 1.273 . S
O193 C192 1.273 . S
O194 Zn185 1.977 . S
O194 C187 1.267 . S
C195 O196 1.160 . S
C195 O202 1.185 . S
O196 C195 1.160 . S
O197 Zn198 1.899 . S
O197 C205 1.284 . S
Zn198 O197 1.899 . S
Zn198 O199 2.032 . S
Zn198 O202 2.086 . S
Zn198 O207 1.977 . S
O199 Zn198 2.032 . S
O199 C203 1.278 . S
C200 O201 1.203 . S
C200 O207 1.267 . S
O201 C200 1.203 . S
O202 C195 1.185 . S
O202 Zn198 2.086 . S
C203 O199 1.278 . S
C203 O204 1.211 . S
O204 C203 1.211 . S
C205 O197 1.284 . S
C205 O206 1.273 . S
O206 C205 1.273 . S
O207 Zn198 1.977 . S
O207 C200 1.267 . S
C208 O209 1.160 . S
C208 O215 1.185 . S
O209 C208 1.160 . S
O210 Zn211 1.899 . S
O210 C218 1.284 . S
Zn211 O210 1.899 . S
Zn211 O212 2.032 . S
Zn211 O215 2.086 . S
Zn211 O220 1.977 . S
O212 Zn211 2.032 . S
O212 C216 1.278 . S
C213 O214 1.203 . S
C213 O220 1.267 . S
O214 C213 1.203 . S
O215 C208 1.185 . S
O215 Zn211 2.086 . S
C216 O212 1.278 . S
C216 O217 1.211 . S
O217 C216 1.211 . S
C218 O210 1.284 . S
C218 O219 1.273 . S
O219 C218 1.273 . S
O220 Zn211 1.977 . S
O220 C213 1.267 . S
C221 O222 1.160 . S
C221 O228 1.185 . S
O222 C221 1.160 . S
O223 Zn224 1.899 . S
O223 C231 1.284 . S
Zn224 O223 1.899 . S
Zn224 O225 2.032 . S
Zn224 O228 2.086 . S
Zn224 O233 1.977 . S
O225 Zn224 2.032 . S
O225 C229 1.278 . S
C226 O227 1.203 . S
C226 O233 1.267 . S
O227 C226 1.203 . S
O228 C221 1.185 . S
O228 Zn224 2.086 . S
C229 O225 1.278 . S
C229 O230 1.211 . S
O230 C229 1.211 . S
C231 O223 1.284 . S
C231 O232 1.273 . S
O232 C231 1.273 . S
O233 Zn224 1.977 . S
O233 C226 1.267 . S
C234 O235 1.160 . S
C234 O241 1.185 . S
O235 C234 1.160 . S
O236 Zn237 1.899 . S
O236 C244 1.284 . S
Zn237 O236 1.899 . S
Zn237 O238 2.032 . S
Zn237 O241 2.086 . S
Zn237 O246 1.977 . S
O238 Zn237 2.032 . S
O238 C242 1.278 . S
C239 O240 1.203 . S
C239 O246 1.267 . S
O240 C239 1.203 . S
O241 C234 1.185 . S
O241 Zn237 2.086 . S
C242 O238 1.278 . S
C242 O243 1.211 . S
O243 C242 1.211 . S
C244 O236 1.284 . S
C244 O245 1.273 . S
O245 C244 1.273 . S
O246 Zn237 1.977 . S
O246 C239 1.267 . S
C247 O248 1.160 . S
C247 O254 1.185 . S
O248 C247 1.160 . S
O249 Zn250 1.899 . S
O249 C257 1.284 . S
Zn250 O249 1.899 . S
Zn250 O251 2.032 . S
Zn250 O254 2.086 . S
Zn250 O259 1.977 . S
O251 Zn250 2.032 . S
O251 C255 1.278 . S
C252 O253 1.203 . S
C252 O259 1.267 . S
O253 C252 1.203 . S
O254 C247 1.185 . S
O254 Zn250 2.086 . S
C255 O251 1.278 . S
C255 O256 1.211 . S
O256 C255 1.211 . S
C257 O249 1.284 . S
C257 O258 1.273 . S
O258 C257 1.273 . S
O259 Zn250 1.977 . S
O259 C252 1.267 . S
C260 O261 1.160 . S
C260 O267 1.185 . S
O261 C260 1.160 . S
O262 Zn263 1.899 . S
O262 C270 1.284 . S
Zn263 O262 1.899 . S
Zn263 O264 2.032 . S
Zn263 O267 2.086 . S
Zn263 O272 1.977 . S
O264 Zn263 2.032 . S
O264 C268 1.278 . S
C265 O266 1.203 . S
C265 O272 1.267 . S
O266 C265 1.203 . S
O267 C260 1.185 . S
O267 Zn263 2.086 . S
C268 O264 1.278 . S
C268 O269 1.211 . S
O269 C268 1.211 . S
C270 O262 1.284 . S
C270 O271 1.273 . S
O271 C270 1.273 . S
O272 Zn263 1.977 . S
O272 C265 1.267 . S
C273 O274 1.160 . S
C273 O280 1.185 . S
O274 C273 1.160 . S
O275 Zn276 1.899 . S
O275 C283 1.284 . S
Zn276 O275 1.899 . S
Zn276 O277 2.032 . S
Zn276 O280 2.086 . S
Zn276 O285 1.977 . S
O277 Zn276 2.032 . S
O277 C281 1.278 . S
C278 O279 1.203 . S
C278 O285 1.267 . S
O279 C278 1.203 . S
O280 C273 1.185 . S
O280 Zn276 2.086 . S
C281 O277 1.278 . S
C281 O282 1.211 . S
O282 C281 1.211 . S
C283 O275 1.284 . S
C283 O284 1.273 . S
O284 C283 1.273 . S
O285 Zn276 1.977 . S
O285 C278 1.267 . S
C286 O287 1.160 . S
C286 O293 1.185 . S
O287 C286 1.160 . S
O288 Zn289 1.899 . S
O288 C296 1.284 . S
Zn289 O288 1.899 . S
Zn289 O290 2.032 . S
Zn289 O293 2.086 . S
Zn289 O298 1.977 . S
O290 Zn289 2.032 . S
O290 C294 1.278 . S
C291 O292 1.203 . S
C291 O298 1.267 . S
O292 C291 1.203 . S
O293 C286 1.185 . S
O293 Zn289 2.086 . S
C294 O290 1.278 . S
C294 O295 1.211 . S
O295 C294 1.211 . S
C296 O288 1.284 . S
C296 O297 1.273 . S
O297 C296 1.273 . S
O298 Zn289 1.977 . S
O298 C291 1.267 . S
C299 O300 1.160 . S
C299 O306 1.185 . S
O300 C299 1.160 . S
O301 Zn302 1.899 . S
O301 C309 1.284 . S
Zn302 O301 1.899 . S
Zn302 O303 2.032 . S
Zn302 O306 2.086 . S
Zn302 O311 1.977 . S
O303 Zn302 2.032 . S
O303 C307 1.278 . S
C304 O305 1.203 . S
C304 O311 1.267 . S
O305 C304 1.203 . S
O306 C299 1.185 . S
O306 Zn302 2.086 . S
C307 O303 1.278 . S
C307 O308 1.211 . S
O308 C307 1.211 . S
C309 O301 1.284 . S
C309 O310 1.273 . S
O310 C309 1.273 . S
O311 Zn302 1.977 . S
O311 C304 1.267 . S
C312 O313 1.160 . S
C312 O319 1.185 . S
O313 C312 1.160 . S
O314 Zn315 1.899 . S
O314 C322 1.284 . S
Zn315 O314 1.899 . S
Zn315 O316 2.032 . S
Zn315 O319 2.086 . S
Zn315 O324 1.977 . S
O316 Zn315 2.032 . S
O316 C320 1.278 . S
C317 O318 1.203 . S
C317 O324 1.267 . S
O318 C317 1.203 . S
O319 C312 1.185 . S
O319 Zn315 2.086 . S
C320 O316 1.278 . S
C320 O321 1.211 . S
O321 C320 1.211 . S
C322 O314 1.284 . S
C322 O323 1.273 . S
O323 C322 1.273 . S
O324 Zn315 1.977 . S
O324 C317 1.267 . S
C325 O326 1.160 . S
C325 O332 1.185 . S
O326 C325 1.160 . S
O327 Zn328 1.899 . S
O327 C335 1.284 . S
Zn328 O327 1.899 . S
Zn328 O329 2.032 . S
Zn328 O332 2.086 . S
Zn328 O337 1.977 . S
O329 Zn328 2.032 . S
O329 C333 1.278 . S
C330 O331 1.203 . S
C330 O337 1.267 . S
O331 C330 1.203 . S
O332 C325 1.185 . S
O332 Zn328 2.086 . S
C333 O329 1.278 . S
C333 O334 1.211 . S
O334 C333 1.211 . S
C335 O327 1.284 . S
C335 O336 1.273 . S
O336 C335 1.273 . S
O337 Zn328 1.977 . S
O337 C330 1.267 . S
C338 O339 1.160 . S
C338 O345 1.185 . S
O339 C338 1.160 . S
O340 Zn341 1.899 . S
O340 C348 1.284 . S
Zn341 O340 1.899 . S
Zn341 O342 2.032 . S
Zn341 O345 2.086 . S
Zn341 O350 1.977 . S
O342 Zn341 2.032 . S
O342 C346 1.278 . S
C343 O344 1.203 . S
C343 O350 1.267 . S
O344 C343 1.203 . S
O345 C338 1.185 . S
O345 Zn341 2.086 . S
C346 O342 1.278 . S
C346 O347 1.211 . S
O347 C346 1.211 . S
C348 O340 1.284 . S
C348 O349 1.273 . S
O349 C348 1.273 . S
O350 Zn341 1.977 . S
O350 C343 1.267 . S
C351 O352 1.160 . S
C351 O358 1.185 . S
O352 C351 1.160 . S
O353 Zn354 1.899 . S
O353 C361 1.284 . S
Zn354 O353 1.899 . S
Zn354 O355 2.032 . S
Zn354 O358 2.086 . S
Zn354 O363 1.977 . S
O355 Zn354 2.032 . S
O355 C359 1.278 . S
C356 O357 1.203 . S
C356 O363 1.267 . S
O357 C356 1.203 . S
O358 C351 1.185 . S
O358 Zn354 2.086 . S
C359 O355 1.278 . S
C359 O360 1.211 . S
O360 C359 1.211 . S
C361 O353 1.284 . S
C361 O362 1.273 . S
O362 C361 1.273 . S
O363 Zn354 1.977 . S
O363 C356 1.267 . S
C364 O365 1.160 . S
C364 O371 1.185 . S
O365 C364 1.160 . S
O366 Zn367 1.899 . S
O366 C374 1.284 . S
Zn367 O366 1.899 . S
Zn367 O368 2.032 . S
Zn367 O371 2.086 . S
Zn367 O376 1.977 . S
O368 Zn367 2.032 . S
O368 C372 1.278 . S
C369 O370 1.203 . S
C369 O376 1.267 . S
O370 C369 1.203 . S
O371 C364 1.185 . S
O371 Zn367 2.086 . S
C372 O368 1.278 . S
C372 O373 1.211 . S
O373 C372 1.211 . S
C374 O366 1.284 . S
C374 O375 1.273 . S
O375 C374 1.273 . S
O376 Zn367 1.977 . S
O376 C369 1.267 . S
C377 O378 1.160 . S
C377 O384 1.185 . S
O378 C377 1.160 . S
O379 Zn380 1.899 . S
O379 C387 1.284 . S
Zn380 O379 1.899 . S
Zn380 O381 2.032 . S
Zn380 O384 2.086 . S
Zn380 O389 1.977 . S
O381 Zn380 2.032 . S
O381 C385 1.278 . S
C382 O383 1.203 . S
C382 O389 1.267 . S
O383 C382 1.203 . S
O384 C377 1.185 . S
O384 Zn380 2.086 . S
C385 O381 1.278 . S
C385 O386 1.211 . S
O386 C385 1.211 . S
C387 O379 1.284 . S
C387 O388 1.273 . S
O388 C387 1.273 . S
O389 Zn380 1.977 . S
O389 C382 1.267 . S
C390 O391 1.160 . S
C390 O397 1.185 . S
O391 C390 1.160 . S
O392 Zn393 1.899 . S
O392 C400 1.284 . S
Zn393 O392 1.899 . S
Zn393 O394 2.032 . S
Zn393 O397 2.086 . S
Zn393 O402 1.977 . S
O394 Zn393 2.032 . S
O394 C398 1.278 . S
C395 O396 1.203 . S
C395 O402 1.267 . S
O396 C395 1.203 . S
O397 C390 1.185 . S
O397 Zn393 2.086 . S
C398 O394 1.278 . S
C398 O399 1.211 . S
O399 C398 1.211 . S
C400 O392 1.284 . S
C400 O401 1.273 . S
O401 C400 1.273 . S
O402 Zn393 1.977 . S
O402 C395 1.267 . S
C403 O404 1.160 . S
C403 O410 1.185 . S
O404 C403 1.160 . S
O405 Zn406 1.899 . S
O405 C413 1.284 . S
Zn406 O405 1.899 . S
Zn406 O407 2.032 . S
Zn406 O410 2.086 . S
Zn406 O415 1.977 . S
O407 Zn406 2.032 . S
O407 C411 1.278 . S
C408 O409 1.203 . S
C408 O415 1.267 . S
O409 C408 1.203 . S
O410 C403 1.185 . S
O410 Zn406 2.086 . S
C411 O407 1.278 . S
C411 O412 1.211 . S
O412 C411 1.211 . S
C413 O405 1.284 . S
C413 O414 1.273 . S
O414 C413 1.273 . S
O415 Zn406 1.977 . S
O415 C408 1.267 . S
C416 O417 1.160 . S
C416 O423 1.185 . S
O417 C416 1.160 . S
O418 Zn419 1.899 . S
O418 C426 1.284 . S
Zn419 O418 1.899 . S
Zn419 O420 2.032 . S
Zn419 O423 2.086 . S
Zn419 O428 1.977 . S
O420 Zn419 2.032 . S
O420 C424 1.278 . S
C421 O422 1.203 . S
C421 O428 1.267 . S
O422 C421 1.203 . S
O423 C416 1.185 . S
O423 Zn419 2.086 . S
C424 O420 1.278 . S
C424 O425 1.211 . S
O425 C424 1.211 . S
C426 O418 1.284 . S
C426 O427 1.273 . S
O427 C426 1.273 . S
O428 Zn419 1.977 . S
O428 C421 1.267 . S
C429 O430 1.160 . S
C429 O436 1.185 . S
O430 C429 1.160 . S
O431 Zn432 1.899 . S
O431 C439 1.284 . S
Zn432 O431 1.899 . S
Zn432 O433 2.032 . S
Zn432 O436 2.086 . S
Zn432 O441 1.977 . S
O433 Zn432 2.032 . S
O433 C437 1.278 . S
C434 O435 1.203 . S
C434 O441 1.267 . S
O435 C434 1.203 . S
O436 C429 1.185 . S
O436 Zn432 2.086 . S
C437 O433 1.278 . S
C437 O438 1.211 . S
O438 C437 1.211 . S
C439 O431 1.284 . S
C439 O440 1.273 . S
O440 C439 1.273 . S
O441 Zn432 1.977 . S
O441 C434 1.267 . S
C442 O443 1.160 . S
C442 O449 1.185 . S
O443 C442 1.160 . S
O444 Zn445 1.899 . S
O444 C452 1.284 . S
Zn445 O444 1.899 . S
Zn445 O446 2.032 . S
Zn445 O449 2.086 . S
Zn445 O454 1.977 . S
O446 Zn445 2.032 . S
O446 C450 1.278 . S
C447 O448 1.203 . S
C447 O454 1.267 . S
O448 C447 1.203 . S
O449 C442 1.185 . S
O449 Zn445 2.086 . S
C450 O446 1.278 . S
C450 O451 1.211 . S
O451 C450 1.211 . S
C452 O444 1.284 . S
C452 O453 1.273 . S
O453 C452 1.273 . S
O454 Zn445 1.977 . S
O454 C447 1.267 . S
C455 O456 1.160 . S
C455 O462 1.185 . S
O456 C455 1.160 . S
O457 Zn458 1.899 . S
O457 C465 1.284 . S
Zn458 O457 1.899 . S
Zn458 O459 2.032 . S
Zn458 O462 2.086 . S
Zn458 O467 1.977 . S
O459 Zn458 2.032 . S
O459 C463 1.278 . S
C460 O461 1.203 . S
C460 O467 1.267 . S
O461 C460 1.203 . S
O462 C455 1.185 . S
O462 Zn458 2.086 . S
C463 O459 1.278 . S
C463 O464 1.211 . S
O464 C463 1.211 . S
C465 O457 1.284 . S
C465 O466 1.273 . S
O466 C465 1.273 . S
O467 Zn458 1.977 . S
O467 C460 1.267 . S
C468 C469 1.349 . S
C468 C470 1.327 . S
C468 H493 0.950 . S
C469 C468 1.349 . S
C469 C485 1.349 . S
C470 C468 1.327 . S
C470 C489 1.429 . S
C470 H494 0.950 . S
C471 C488 1.574 . S
C471 C490 1.368 . S
C471 H495 0.949 . S
H472 C476 0.949 . S
C473 C474 1.349 . S
C473 C475 1.327 . S
C473 H496 0.950 1_556 S
C474 C473 1.349 . S
C474 C486 1.349 . S
C475 C473 1.327 . S
C475 C491 1.429 . S
C475 H497 0.950 . S
C476 H472 0.949 . S
C476 C484 1.574 . S
C476 C492 1.368 . S
H477 C485 0.950 . S
H478 C483 0.950 . S
H479 C484 0.949 . S
H480 C486 0.950 . S
H481 C487 0.950 . S
H482 C488 0.949 . S
C483 H478 0.950 . S
C483 C485 1.327 . S
C483 C489 1.429 . S
C484 C476 1.574 . S
C484 H479 0.949 . S
C484 C490 1.368 . S
C485 C469 1.349 . S
C485 H477 0.950 . S
C485 C483 1.327 . S
C486 C474 1.349 . S
C486 H480 0.950 . S
C486 C487 1.327 . S
C487 H481 0.950 . S
C487 C486 1.327 . S
C487 C491 1.429 . S
C488 C471 1.574 . S
C488 H482 0.949 . S
C488 C492 1.368 . S
C489 C470 1.429 . S
C489 C483 1.429 . S
C489 C490 1.523 . S
C490 C471 1.368 . S
C490 C484 1.368 . S
C490 C489 1.523 . S
C491 C475 1.429 . S
C491 C487 1.429 . S
C491 C492 1.523 . S
C492 C476 1.368 . S
C492 C488 1.368 . S
C492 C491 1.523 . S
H493 C468 0.950 . S
H494 C470 0.950 . S
H495 C471 0.949 . S
H496 C473 0.950 1_554 S
H497 C475 0.950 . S
C498 C499 1.349 . S
C498 C500 1.327 . S
C498 H523 0.950 . S
C499 C498 1.349 . S
C499 C515 1.349 . S
C500 C498 1.327 . S
C500 C519 1.429 . S
C500 H524 0.950 . S
C501 C518 1.574 . S
C501 C520 1.368 . S
C501 H525 0.949 . S
H502 C506 0.949 . S
C503 C504 1.349 . S
C503 C505 1.327 . S
C503 H526 0.950 . S
C504 C503 1.349 . S
C504 C516 1.354 . S
C505 C503 1.327 . S
C505 C521 1.429 . S
C505 H527 0.950 . S
C506 H502 0.949 . S
C506 C514 1.574 . S
C506 C522 1.368 . S
H507 C515 0.950 . S
H508 C513 0.950 . S
H509 C514 0.949 . S
H510 C516 0.935 1_554 S
H511 C517 0.950 . S
H512 C518 0.949 . S
C513 H508 0.950 . S
C513 C515 1.327 . S
C513 C519 1.429 . S
C514 C506 1.574 . S
C514 H509 0.949 . S
C514 C520 1.368 . S
C515 C499 1.349 . S
C515 H507 0.950 . S
C515 C513 1.327 . S
C516 C504 1.354 . S
C516 H510 0.935 1_556 S
C516 C517 1.336 . S
C517 H511 0.950 . S
C517 C516 1.336 . S
C517 C521 1.429 . S
C518 C501 1.574 . S
C518 H512 0.949 . S
C518 C522 1.368 . S
C519 C500 1.429 . S
C519 C513 1.429 . S
C519 C520 1.523 . S
C520 C501 1.368 . S
C520 C514 1.368 . S
C520 C519 1.523 . S
C521 C505 1.429 . S
C521 C517 1.429 . S
C521 C522 1.523 . S
C522 C506 1.368 . S
C522 C518 1.368 . S
C522 C521 1.523 . S
H523 C498 0.950 . S
H524 C500 0.950 . S
H525 C501 0.949 . S
H526 C503 0.950 . S
H527 C505 0.950 . S
C528 C529 1.349 . S
C528 C530 1.327 . S
C528 H553 0.950 . S
C529 C528 1.349 . S
C529 C545 1.349 . S
C530 C528 1.327 . S
C530 C549 1.429 . S
C530 H554 0.950 . S
C531 C548 1.574 . S
C531 C550 1.368 . S
C531 H555 0.949 . S
H532 C536 0.949 . S
C533 C534 1.349 . S
C533 C535 1.327 . S
C533 H556 0.950 . S
C534 C533 1.349 . S
C534 C546 1.349 . S
C535 C533 1.327 . S
C535 C551 1.429 . S
C535 H557 0.950 . S
C536 H532 0.949 . S
C536 C544 1.574 . S
C536 C552 1.368 . S
H537 C545 0.950 1_554 S
H538 C543 0.950 . S
H539 C544 0.949 . S
H540 C546 0.950 . S
H541 C547 0.950 . S
H542 C548 0.949 . S
C543 H538 0.950 . S
C543 C545 1.327 . S
C543 C549 1.429 . S
C544 C536 1.574 . S
C544 H539 0.949 . S
C544 C550 1.368 . S
C545 C529 1.349 . S
C545 H537 0.950 1_556 S
C545 C543 1.327 . S
C546 C534 1.349 . S
C546 H540 0.950 . S
C546 C547 1.327 . S
C547 H541 0.950 . S
C547 C546 1.327 . S
C547 C551 1.429 . S
C548 C531 1.574 . S
C548 H542 0.949 . S
C548 C552 1.368 . S
C549 C530 1.429 . S
C549 C543 1.429 . S
C549 C550 1.523 . S
C550 C531 1.368 . S
C550 C544 1.368 . S
C550 C549 1.523 . S
C551 C535 1.429 . S
C551 C547 1.429 . S
C551 C552 1.523 . S
C552 C536 1.368 . S
C552 C548 1.368 . S
C552 C551 1.523 . S
H553 C528 0.950 . S
H554 C530 0.950 . S
H555 C531 0.949 . S
H556 C533 0.950 . S
H557 C535 0.950 . S
C558 C559 1.349 . S
C558 C560 1.327 . S
C558 H583 0.950 . S
C559 C558 1.349 . S
C559 C575 1.349 . S
C560 C558 1.327 . S
C560 C579 1.429 . S
C560 H584 0.950 . S
C561 C578 1.574 . S
C561 C580 1.368 . S
C561 H585 0.949 . S
H562 C566 0.949 . S
C563 C564 1.349 . S
C563 C565 1.327 . S
C563 H586 0.950 . S
C564 C563 1.349 . S
C564 C576 1.349 . S
C565 C563 1.327 . S
C565 C581 1.429 . S
C565 H587 0.950 . S
C566 H562 0.949 . S
C566 C574 1.574 . S
C566 C582 1.368 . S
H567 C575 0.950 . S
H568 C573 0.950 . S
H569 C574 0.949 . S
H570 C576 0.950 . S
H571 C577 0.950 . S
H572 C578 0.949 . S
C573 H568 0.950 . S
C573 C575 1.327 . S
C573 C579 1.429 . S
C574 C566 1.574 . S
C574 H569 0.949 . S
C574 C580 1.368 . S
C575 C559 1.349 . S
C575 H567 0.950 . S
C575 C573 1.327 . S
C576 C564 1.349 . S
C576 H570 0.950 . S
C576 C577 1.327 . S
C577 H571 0.950 . S
C577 C576 1.327 . S
C577 C581 1.429 . S
C578 C561 1.574 . S
C578 H572 0.949 . S
C578 C582 1.368 . S
C579 C560 1.429 . S
C579 C573 1.429 . S
C579 C580 1.523 . S
C580 C561 1.368 . S
C580 C574 1.368 . S
C580 C579 1.523 . S
C581 C565 1.429 . S
C581 C577 1.429 . S
C581 C582 1.523 . S
C582 C566 1.368 . S
C582 C578 1.368 . S
C582 C581 1.523 . S
H583 C558 0.950 . S
H584 C560 0.950 . S
H585 C561 0.949 . S
H586 C563 0.950 . S
H587 C565 0.950 . S
C588 C589 1.349 . S
C588 C590 1.327 . S
C588 H613 0.950 . S
C589 C588 1.349 . S
C589 C605 1.349 . S
C590 C588 1.327 . S
C590 C609 1.429 . S
C590 H614 0.950 . S
C591 C608 1.574 . S
C591 C610 1.368 . S
C591 H615 0.949 . S
H592 C596 0.949 . S
C593 C594 1.349 . S
C593 C595 1.327 . S
C593 H616 0.950 . S
C594 C593 1.349 . S
C594 C606 1.349 . S
C595 C593 1.327 . S
C595 C611 1.429 . S
C595 H617 0.950 . S
C596 H592 0.949 . S
C596 C604 1.574 . S
C596 C612 1.368 . S
H597 C605 0.950 . S
H598 C603 0.950 . S
H599 C604 0.949 . S
H600 C606 0.950 . S
H601 C607 0.950 . S
H602 C608 0.949 . S
C603 H598 0.950 . S
C603 C605 1.327 . S
C603 C609 1.429 . S
C604 C596 1.574 . S
C604 H599 0.949 . S
C604 C610 1.368 . S
C605 C589 1.349 . S
C605 H597 0.950 . S
C605 C603 1.327 . S
C606 C594 1.349 . S
C606 H600 0.950 . S
C606 C607 1.327 . S
C607 H601 0.950 . S
C607 C606 1.327 . S
C607 C611 1.429 . S
C608 C591 1.574 . S
C608 H602 0.949 . S
C608 C612 1.368 . S
C609 C590 1.429 . S
C609 C603 1.429 . S
C609 C610 1.523 . S
C610 C591 1.368 . S
C610 C604 1.368 . S
C610 C609 1.523 . S
C611 C595 1.429 . S
C611 C607 1.429 . S
C611 C612 1.523 . S
C612 C596 1.368 . S
C612 C608 1.368 . S
C612 C611 1.523 . S
H613 C588 0.950 . S
H614 C590 0.950 . S
H615 C591 0.949 . S
H616 C593 0.950 . S
H617 C595 0.950 . S
C618 C619 1.349 . S
C618 C620 1.327 . S
C618 H643 0.950 . S
C619 C618 1.349 . S
C619 C635 1.349 . S
C620 C618 1.327 . S
C620 C639 1.429 . S
C620 H644 0.950 . S
C621 C638 1.574 . S
C621 C640 1.368 . S
C621 H645 0.949 . S
H622 C626 0.949 . S
C623 C624 1.349 . S
C623 C625 1.327 . S
C623 H646 0.950 . S
C624 C623 1.349 . S
C624 C636 1.349 . S
C625 C623 1.327 . S
C625 C641 1.429 . S
C625 H647 0.950 . S
C626 H622 0.949 . S
C626 C634 1.574 . S
C626 C642 1.368 . S
H627 C635 0.950 . S
H628 C633 0.950 . S
H629 C634 0.949 . S
H630 C636 0.950 . S
H631 C637 0.950 . S
H632 C638 0.949 . S
C633 H628 0.950 . S
C633 C635 1.327 . S
C633 C639 1.429 . S
C634 C626 1.574 . S
C634 H629 0.949 . S
C634 C640 1.368 . S
C635 C619 1.349 . S
C635 H627 0.950 . S
C635 C633 1.327 . S
C636 C624 1.349 . S
C636 H630 0.950 . S
C636 C637 1.327 . S
C637 H631 0.950 . S
C637 C636 1.327 . S
C637 C641 1.429 . S
C638 C621 1.574 . S
C638 H632 0.949 . S
C638 C642 1.368 . S
C639 C620 1.429 . S
C639 C633 1.429 . S
C639 C640 1.523 . S
C640 C621 1.368 . S
C640 C634 1.368 . S
C640 C639 1.523 . S
C641 C625 1.429 . S
C641 C637 1.429 . S
C641 C642 1.523 . S
C642 C626 1.368 . S
C642 C638 1.368 . S
C642 C641 1.523 . S
H643 C618 0.950 . S
H644 C620 0.950 . S
H645 C621 0.949 . S
H646 C623 0.950 . S
H647 C625 0.950 . S
C648 C649 1.349 . S
C648 C650 1.327 . S
C648 H673 0.950 . S
C649 C648 1.349 . S
C649 C665 1.349 . S
C650 C648 1.327 . S
C650 C669 1.429 . S
C650 H674 0.950 . S
C651 C668 1.574 . S
C651 C670 1.368 . S
C651 H675 0.949 . S
H652 C656 0.949 . S
C653 C654 1.349 . S
C653 C655 1.327 . S
C653 H676 0.950 . S
C654 C653 1.349 . S
C654 C666 1.361 . S
C655 C653 1.327 . S
C655 C671 1.429 . S
C655 H677 0.950 . S
C656 H652 0.949 . S
C656 C664 1.574 . S
C656 C672 1.368 . S
H657 C665 0.950 . S
H658 C663 0.950 . S
H659 C664 0.949 . S
H660 C666 0.914 1_556 S
H661 C667 0.950 . S
H662 C668 0.949 . S
C663 H658 0.950 . S
C663 C665 1.327 . S
C663 C669 1.429 . S
C664 C656 1.574 . S
C664 H659 0.949 . S
C664 C670 1.368 . S
C665 C649 1.349 . S
C665 H657 0.950 . S
C665 C663 1.327 . S
C666 C654 1.361 . S
C666 H660 0.914 1_554 S
C666 C667 1.351 . S
C667 H661 0.950 . S
C667 C666 1.351 . S
C667 C671 1.429 . S
C668 C651 1.574 . S
C668 H662 0.949 . S
C668 C672 1.368 . S
C669 C650 1.429 . S
C669 C663 1.429 . S
C669 C670 1.523 . S
C670 C651 1.368 . S
C670 C664 1.368 . S
C670 C669 1.523 . S
C671 C655 1.429 . S
C671 C667 1.429 . S
C671 C672 1.523 . S
C672 C656 1.368 . S
C672 C668 1.368 . S
C672 C671 1.523 . S
H673 C648 0.950 . S
H674 C650 0.950 . S
H675 C651 0.949 . S
H676 C653 0.950 . S
H677 C655 0.950 . S
C678 C679 1.349 . S
C678 C680 1.327 . S
C678 H703 0.950 . S
C679 C678 1.349 . S
C679 C695 1.349 . S
C680 C678 1.327 . S
C680 C699 1.429 . S
C680 H704 0.950 . S
C681 C698 1.574 . S
C681 C700 1.368 . S
C681 H705 0.949 . S
H682 C686 0.949 . S
C683 C684 1.349 . S
C683 C685 1.327 . S
C683 H706 0.950 . S
C684 C683 1.349 . S
C684 C696 1.349 . S
C685 C683 1.327 . S
C685 C701 1.429 . S
C685 H707 0.950 . S
C686 H682 0.949 . S
C686 C694 1.574 . S
C686 C702 1.368 . S
H687 C695 0.950 . S
H688 C693 0.950 . S
H689 C694 0.949 . S
H690 C696 0.950 . S
H691 C697 0.950 . S
H692 C698 0.949 . S
C693 H688 0.950 . S
C693 C695 1.327 . S
C693 C699 1.429 . S
C694 C686 1.574 . S
C694 H689 0.949 . S
C694 C700 1.368 . S
C695 C679 1.349 . S
C695 H687 0.950 . S
C695 C693 1.327 . S
C696 C684 1.349 . S
C696 H690 0.950 . S
C696 C697 1.327 . S
C697 H691 0.950 . S
C697 C696 1.327 . S
C697 C701 1.429 . S
C698 C681 1.574 . S
C698 H692 0.949 . S
C698 C702 1.368 . S
C699 C680 1.429 . S
C699 C693 1.429 . S
C699 C700 1.523 . S
C700 C681 1.368 . S
C700 C694 1.368 . S
C700 C699 1.523 . S
C701 C685 1.429 . S
C701 C697 1.429 . S
C701 C702 1.523 . S
C702 C686 1.368 . S
C702 C698 1.368 . S
C702 C701 1.523 . S
H703 C678 0.950 . S
H704 C680 0.950 . S
H705 C681 0.949 . S
H706 C683 0.950 . S
H707 C685 0.950 . S
C708 C709 1.349 . S
C708 C710 1.327 . S
C708 H733 0.950 . S
C709 C708 1.349 . S
C709 C725 1.349 . S
C710 C708 1.327 . S
C710 C729 1.429 . S
C710 H734 0.950 . S
C711 C728 1.574 . S
C711 C730 1.368 . S
C711 H735 0.949 . S
H712 C716 0.949 . S
C713 C714 1.348 1_556 S
C713 C715 1.325 1_556 S
C713 H736 0.952 . S
C714 C713 1.348 1_554 S
C714 C726 1.349 . S
C715 C713 1.325 1_554 S
C715 C731 1.429 . S
C715 H737 0.950 . S
C716 H712 0.949 . S
C716 C724 1.574 . S
C716 C732 1.368 . S
H717 C725 0.950 . S
H718 C723 0.950 . S
H719 C724 0.949 . S
H720 C726 0.950 . S
H721 C727 0.950 . S
H722 C728 0.949 . S
C723 H718 0.950 . S
C723 C725 1.327 . S
C723 C729 1.429 . S
C724 C716 1.574 . S
C724 H719 0.949 . S
C724 C730 1.368 . S
C725 C709 1.349 . S
C725 H717 0.950 . S
C725 C723 1.327 . S
C726 C714 1.349 . S
C726 H720 0.950 . S
C726 C727 1.327 . S
C727 H721 0.950 . S
C727 C726 1.327 . S
C727 C731 1.429 . S
C728 C711 1.574 . S
C728 H722 0.949 . S
C728 C732 1.368 . S
C729 C710 1.429 . S
C729 C723 1.429 . S
C729 C730 1.523 . S
C730 C711 1.368 . S
C730 C724 1.368 . S
C730 C729 1.523 . S
C731 C715 1.429 . S
C731 C727 1.429 . S
C731 C732 1.523 . S
C732 C716 1.368 . S
C732 C728 1.368 . S
C732 C731 1.523 . S
H733 C708 0.950 . S
H734 C710 0.950 . S
H735 C711 0.949 . S
H736 C713 0.952 . S
H737 C715 0.950 . S
C738 C739 1.349 . S
C738 C740 1.327 . S
C738 H763 0.950 . S
C739 C738 1.349 . S
C739 C755 1.349 . S
C740 C738 1.327 . S
C740 C759 1.429 . S
C740 H764 0.950 . S
C741 C758 1.574 . S
C741 C760 1.368 . S
C741 H765 0.949 . S
H742 C746 0.949 . S
C743 C744 1.349 . S
C743 C745 1.327 . S
C743 H766 0.950 . S
C744 C743 1.349 . S
C744 C756 1.349 . S
C745 C743 1.327 . S
C745 C761 1.429 . S
C745 H767 0.950 . S
C746 H742 0.949 . S
C746 C754 1.574 . S
C746 C762 1.368 . S
H747 C755 0.950 . S
H748 C753 0.950 . S
H749 C754 0.949 . S
H750 C756 0.950 . S
H751 C757 0.950 . S
H752 C758 0.949 . S
C753 H748 0.950 . S
C753 C755 1.327 . S
C753 C759 1.429 . S
C754 C746 1.574 . S
C754 H749 0.949 . S
C754 C760 1.368 . S
C755 C739 1.349 . S
C755 H747 0.950 . S
C755 C753 1.327 . S
C756 C744 1.349 . S
C756 H750 0.950 . S
C756 C757 1.327 . S
C757 H751 0.950 . S
C757 C756 1.327 . S
C757 C761 1.429 . S
C758 C741 1.574 . S
C758 H752 0.949 . S
C758 C762 1.368 . S
C759 C740 1.429 . S
C759 C753 1.429 . S
C759 C760 1.523 . S
C760 C741 1.368 . S
C760 C754 1.368 . S
C760 C759 1.523 . S
C761 C745 1.429 . S
C761 C757 1.429 . S
C761 C762 1.523 . S
C762 C746 1.368 . S
C762 C758 1.368 . S
C762 C761 1.523 . S
H763 C738 0.950 . S
H764 C740 0.950 . S
H765 C741 0.949 . S
H766 C743 0.950 . S
H767 C745 0.950 . S
C768 C769 1.349 . S
C768 C770 1.327 . S
C768 H793 0.950 . S
C769 C768 1.349 . S
C769 C785 1.349 . S
C770 C768 1.327 . S
C770 C789 1.429 . S
C770 H794 0.950 . S
C771 C788 1.574 . S
C771 C790 1.368 . S
C771 H795 0.949 . S
H772 C776 0.949 . S
C773 C774 1.349 . S
C773 C775 1.327 . S
C773 H796 0.950 . S
C774 C773 1.349 . S
C774 C786 1.349 . S
C775 C773 1.327 . S
C775 C791 1.429 . S
C775 H797 0.950 . S
C776 H772 0.949 . S
C776 C784 1.574 . S
C776 C792 1.368 . S
H777 C785 0.950 . S
H778 C783 0.950 . S
H779 C784 0.949 . S
H780 C786 0.950 . S
H781 C787 0.950 . S
H782 C788 0.949 . S
C783 H778 0.950 . S
C783 C785 1.327 . S
C783 C789 1.429 . S
C784 C776 1.574 . S
C784 H779 0.949 . S
C784 C790 1.368 . S
C785 C769 1.349 . S
C785 H777 0.950 . S
C785 C783 1.327 . S
C786 C774 1.349 . S
C786 H780 0.950 . S
C786 C787 1.327 . S
C787 H781 0.950 . S
C787 C786 1.327 . S
C787 C791 1.429 . S
C788 C771 1.574 . S
C788 H782 0.949 . S
C788 C792 1.368 . S
C789 C770 1.429 . S
C789 C783 1.429 . S
C789 C790 1.523 . S
C790 C771 1.368 . S
C790 C784 1.368 . S
C790 C789 1.523 . S
C791 C775 1.429 . S
C791 C787 1.429 . S
C791 C792 1.523 . S
C792 C776 1.368 . S
C792 C788 1.368 . S
C792 C791 1.523 . S
H793 C768 0.950 . S
H794 C770 0.950 . S
H795 C771 0.949 . S
H796 C773 0.950 . S
H797 C775 0.950 . S
C798 C799 1.349 . S
C798 C800 1.327 . S
C798 H823 0.950 . S
C799 C798 1.349 . S
C799 C815 1.349 . S
C800 C798 1.327 . S
C800 C819 1.429 . S
C800 H824 0.950 . S
C801 C818 1.574 . S
C801 C820 1.368 . S
C801 H825 0.949 . S
H802 C806 0.949 . S
C803 C804 1.349 . S
C803 C805 1.327 . S
C803 H826 0.950 . S
C804 C803 1.349 . S
C804 C816 1.349 . S
C805 C803 1.327 . S
C805 C821 1.429 . S
C805 H827 0.950 . S
C806 H802 0.949 . S
C806 C814 1.574 . S
C806 C822 1.368 . S
H807 C815 0.950 . S
H808 C813 0.950 . S
H809 C814 0.949 . S
H810 C816 0.950 . S
H811 C817 0.950 . S
H812 C818 0.949 . S
C813 H808 0.950 . S
C813 C815 1.327 . S
C813 C819 1.429 . S
C814 C806 1.574 . S
C814 H809 0.949 . S
C814 C820 1.368 . S
C815 C799 1.349 . S
C815 H807 0.950 . S
C815 C813 1.327 . S
C816 C804 1.349 . S
C816 H810 0.950 . S
C816 C817 1.327 . S
C817 H811 0.950 . S
C817 C816 1.327 . S
C817 C821 1.429 . S
C818 C801 1.574 . S
C818 H812 0.949 . S
C818 C822 1.368 . S
C819 C800 1.429 . S
C819 C813 1.429 . S
C819 C820 1.523 . S
C820 C801 1.368 . S
C820 C814 1.368 . S
C820 C819 1.523 . S
C821 C805 1.429 . S
C821 C817 1.429 . S
C821 C822 1.523 . S
C822 C806 1.368 . S
C822 C818 1.368 . S
C822 C821 1.523 . S
H823 C798 0.950 . S
H824 C800 0.950 . S
H825 C801 0.949 . S
H826 C803 0.950 . S
H827 C805 0.950 . S
C828 C829 1.349 . S
C828 C830 1.327 . S
C828 H853 0.950 . S
C829 C828 1.349 . S
C829 C845 1.349 . S
C830 C828 1.327 . S
C830 C849 1.429 . S
C830 H854 0.950 . S
C831 C848 1.574 1_455 S
C831 C850 1.368 . S
C831 H855 0.949 . S
H832 C836 0.949 . S
C833 C834 1.349 . S
C833 C835 1.327 . S
C833 H856 0.950 . S
C834 C833 1.349 . S
C834 C846 1.349 . S
C835 C833 1.327 . S
C835 C851 1.429 . S
C835 H857 0.950 . S
C836 H832 0.949 . S
C836 C844 1.574 1_655 S
C836 C852 1.368 . S
H837 C845 0.950 . S
H838 C843 0.950 . S
H839 C844 0.949 . S
H840 C846 0.950 . S
H841 C847 0.950 . S
H842 C848 0.949 . S
C843 H838 0.950 . S
C843 C845 1.327 . S
C843 C849 1.429 . S
C844 C836 1.574 1_455 S
C844 H839 0.949 . S
C844 C850 1.368 . S
C845 C829 1.349 . S
C845 H837 0.950 . S
C845 C843 1.327 . S
C846 C834 1.349 . S
C846 H840 0.950 . S
C846 C847 1.327 . S
C847 H841 0.950 . S
C847 C846 1.327 . S
C847 C851 1.429 . S
C848 C831 1.574 1_655 S
C848 H842 0.949 . S
C848 C852 1.368 . S
C849 C830 1.429 . S
C849 C843 1.429 . S
C849 C850 1.523 . S
C850 C831 1.368 . S
C850 C844 1.368 . S
C850 C849 1.523 . S
C851 C835 1.429 . S
C851 C847 1.429 . S
C851 C852 1.523 . S
C852 C836 1.368 . S
C852 C848 1.368 . S
C852 C851 1.523 . S
H853 C828 0.950 . S
H854 C830 0.950 . S
H855 C831 0.949 . S
H856 C833 0.950 . S
H857 C835 0.950 . S
C858 C859 1.349 . S
C858 C860 1.327 . S
C858 H883 0.950 . S
C859 C858 1.349 . S
C859 C875 1.349 . S
C860 C858 1.327 . S
C860 C879 1.429 . S
C860 H884 0.950 . S
C861 C878 1.574 . S
C861 C880 1.368 . S
C861 H885 0.949 . S
H862 C866 0.949 . S
C863 C864 1.349 . S
C863 C865 1.327 . S
C863 H886 0.950 . S
C864 C863 1.349 . S
C864 C876 1.349 . S
C865 C863 1.327 . S
C865 C881 1.429 . S
C865 H887 0.950 . S
C866 H862 0.949 . S
C866 C874 1.574 . S
C866 C882 1.368 . S
H867 C875 0.950 . S
H868 C873 0.950 . S
H869 C874 0.949 . S
H870 C876 0.950 . S
H871 C877 0.950 . S
H872 C878 0.949 . S
C873 H868 0.950 . S
C873 C875 1.327 . S
C873 C879 1.429 . S
C874 C866 1.574 . S
C874 H869 0.949 . S
C874 C880 1.368 . S
C875 C859 1.349 . S
C875 H867 0.950 . S
C875 C873 1.327 . S
C876 C864 1.349 . S
C876 H870 0.950 . S
C876 C877 1.327 . S
C877 H871 0.950 . S
C877 C876 1.327 . S
C877 C881 1.429 . S
C878 C861 1.574 . S
C878 H872 0.949 . S
C878 C882 1.368 . S
C879 C860 1.429 . S
C879 C873 1.429 . S
C879 C880 1.523 . S
C880 C861 1.368 . S
C880 C874 1.368 . S
C880 C879 1.523 . S
C881 C865 1.429 . S
C881 C877 1.429 . S
C881 C882 1.523 . S
C882 C866 1.368 . S
C882 C878 1.368 . S
C882 C881 1.523 . S
H883 C858 0.950 . S
H884 C860 0.950 . S
H885 C861 0.949 . S
H886 C863 0.950 . S
H887 C865 0.950 . S
C888 C889 1.349 . S
C888 C890 1.327 . S
C888 H913 0.950 . S
C889 C888 1.349 . S
C889 C905 1.349 . S
C890 C888 1.327 . S
C890 C909 1.429 . S
C890 H914 0.950 . S
C891 C908 1.577 1_565 S
C891 C910 1.368 . S
C891 H915 0.949 . S
H892 C896 0.949 . S
C893 C894 1.349 . S
C893 C895 1.327 . S
C893 H916 0.950 . S
C894 C893 1.349 . S
C894 C906 1.349 . S
C895 C893 1.327 . S
C895 C911 1.429 . S
C895 H917 0.950 . S
C896 H892 0.949 . S
C896 C904 1.577 1_545 S
C896 C912 1.368 . S
H897 C905 0.950 . S
H898 C903 0.950 . S
H899 C904 0.956 . S
H900 C906 0.950 . S
H901 C907 0.950 . S
H902 C908 0.956 . S
C903 H898 0.950 . S
C903 C905 1.327 . S
C903 C909 1.429 . S
C904 C896 1.577 1_565 S
C904 H899 0.956 . S
C904 C910 1.363 . S
C905 C889 1.349 . S
C905 H897 0.950 . S
C905 C903 1.327 . S
C906 C894 1.349 . S
C906 H900 0.950 . S
C906 C907 1.327 . S
C907 H901 0.950 . S
C907 C906 1.327 . S
C907 C911 1.429 . S
C908 C891 1.577 1_545 S
C908 H902 0.956 . S
C908 C912 1.364 . S
C909 C890 1.429 . S
C909 C903 1.429 . S
C909 C910 1.523 . S
C910 C891 1.368 . S
C910 C904 1.363 . S
C910 C909 1.523 . S
C911 C895 1.429 . S
C911 C907 1.429 . S
C911 C912 1.523 . S
C912 C896 1.368 . S
C912 C908 1.364 . S
C912 C911 1.523 . S
H913 C888 0.950 . S
H914 C890 0.950 . S
H915 C891 0.949 . S
H916 C893 0.950 . S
H917 C895 0.950 . S
C918 C919 1.349 . S
C918 C920 1.327 . S
C918 H943 0.950 . S
C919 C918 1.349 . S
C919 C935 1.349 . S
C920 C918 1.327 . S
C920 C939 1.429 . S
C920 H944 0.950 . S
C921 C938 1.538 1_565 S
C921 C940 1.368 . S
C921 H945 0.949 . S
H922 C926 0.949 . S
C923 C924 1.349 . S
C923 C925 1.327 . S
C923 H946 0.950 . S
C924 C923 1.349 . S
C924 C936 1.349 . S
C925 C923 1.327 . S
C925 C941 1.429 . S
C925 H947 0.950 . S
C926 H922 0.949 . S
C926 C934 1.538 1_545 S
C926 C942 1.368 . S
H927 C935 0.950 . S
H928 C933 0.950 . S
H929 C934 0.939 . S
H930 C936 0.950 . S
H931 C937 0.950 . S
H932 C938 0.939 . S
C933 H928 0.950 . S
C933 C935 1.327 . S
C933 C939 1.429 . S
C934 C926 1.538 1_565 S
C934 H929 0.939 . S
C934 C940 1.417 . S
C935 C919 1.349 . S
C935 H927 0.950 . S
C935 C933 1.327 . S
C936 C924 1.349 . S
C936 H930 0.950 . S
C936 C937 1.327 . S
C937 H931 0.950 . S
C937 C936 1.327 . S
C937 C941 1.429 . S
C938 C921 1.538 1_545 S
C938 H932 0.939 . S
C938 C942 1.417 . S
C939 C920 1.429 . S
C939 C933 1.429 . S
C939 C940 1.523 . S
C940 C921 1.368 . S
C940 C934 1.417 . S
C940 C939 1.523 . S
C941 C925 1.429 . S
C941 C937 1.429 . S
C941 C942 1.523 . S
C942 C926 1.368 . S
C942 C938 1.417 . S
C942 C941 1.523 . S
H943 C918 0.950 . S
H944 C920 0.950 . S
H945 C921 0.949 . S
H946 C923 0.950 . S
H947 C925 0.950 . S
C948 C949 1.349 . S
C948 C950 1.327 . S
C948 H973 0.950 . S
C949 C948 1.349 . S
C949 C965 1.349 . S
C950 C948 1.327 . S
C950 C969 1.429 . S
C950 H974 0.950 . S
C951 C968 1.574 1_455 S
C951 C970 1.368 . S
C951 H975 0.949 . S
H952 C956 0.949 . S
C953 C954 1.349 . S
C953 C955 1.327 . S
C953 H976 0.950 . S
C954 C953 1.349 . S
C954 C966 1.349 . S
C955 C953 1.327 . S
C955 C971 1.429 . S
C955 H977 0.950 . S
C956 H952 0.949 . S
C956 C964 1.574 1_655 S
C956 C972 1.368 . S
H957 C965 0.950 . S
H958 C963 0.950 . S
H959 C964 0.949 . S
H960 C966 0.950 . S
H961 C967 0.950 . S
H962 C968 0.949 . S
C963 H958 0.950 . S
C963 C965 1.327 . S
C963 C969 1.429 . S
C964 C956 1.574 1_455 S
C964 H959 0.949 . S
C964 C970 1.368 . S
C965 C949 1.349 . S
C965 H957 0.950 . S
C965 C963 1.327 . S
C966 C954 1.349 . S
C966 H960 0.950 . S
C966 C967 1.327 . S
C967 H961 0.950 . S
C967 C966 1.327 . S
C967 C971 1.429 . S
C968 C951 1.574 1_655 S
C968 H962 0.949 . S
C968 C972 1.368 . S
C969 C950 1.429 . S
C969 C963 1.429 . S
C969 C970 1.523 . S
C970 C951 1.368 . S
C970 C964 1.368 . S
C970 C969 1.523 . S
C971 C955 1.429 . S
C971 C967 1.429 . S
C971 C972 1.523 . S
C972 C956 1.368 . S
C972 C968 1.368 . S
C972 C971 1.523 . S
H973 C948 0.950 . S
H974 C950 0.950 . S
H975 C951 0.949 . S
H976 C953 0.950 . S
H977 C955 0.950 . S
C978 C979 1.349 . S
C978 C980 1.327 . S
C978 H1003 0.950 . S
C979 C978 1.349 . S
C979 C995 1.349 . S
C980 C978 1.327 . S
C980 C999 1.429 . S
C980 H1004 0.950 . S
C981 C998 1.574 . S
C981 C1000 1.368 . S
C981 H1005 0.949 . S
H982 C986 0.949 . S
C983 C984 1.349 . S
C983 C985 1.327 . S
C983 H1006 0.950 . S
C984 C983 1.349 . S
C984 C996 1.349 . S
C985 C983 1.327 . S
C985 C1001 1.429 . S
C985 H1007 0.950 . S
C986 H982 0.949 . S
C986 C994 1.574 . S
C986 C1002 1.368 . S
H987 C995 0.950 . S
H988 C993 0.950 . S
H989 C994 0.949 . S
H990 C996 0.950 . S
H991 C997 0.950 . S
H992 C998 0.949 . S
C993 H988 0.950 . S
C993 C995 1.327 . S
C993 C999 1.429 . S
C994 C986 1.574 . S
C994 H989 0.949 . S
C994 C1000 1.368 . S
C995 C979 1.349 . S
C995 H987 0.950 . S
C995 C993 1.327 . S
C996 C984 1.349 . S
C996 H990 0.950 . S
C996 C997 1.327 . S
C997 H991 0.950 . S
C997 C996 1.327 . S
C997 C1001 1.429 . S
C998 C981 1.574 . S
C998 H992 0.949 . S
C998 C1002 1.368 . S
C999 C980 1.429 . S
C999 C993 1.429 . S
C999 C1000 1.523 . S
C1000 C981 1.368 . S
C1000 C994 1.368 . S
C1000 C999 1.523 . S
C1001 C985 1.429 . S
C1001 C997 1.429 . S
C1001 C1002 1.523 . S
C1002 C986 1.368 . S
C1002 C998 1.368 . S
C1002 C1001 1.523 . S
H1003 C978 0.950 . S
H1004 C980 0.950 . S
H1005 C981 0.949 . S
H1006 C983 0.950 . S
H1007 C985 0.950 . S
C1008 C1009 1.349 . S
C1008 C1010 1.327 . S
C1008 H1033 0.950 . S
C1009 C1008 1.349 . S
C1009 C1025 1.349 1_556 S
C1010 C1008 1.327 . S
C1010 C1029 1.429 . S
C1010 H1034 0.950 . S
C1011 C1028 1.574 . S
C1011 C1030 1.349 1_554 S
C1011 H1035 0.949 . S
H1012 C1016 0.949 . S
C1013 C1014 1.349 . S
C1013 C1015 1.327 . S
C1013 H1036 0.950 . S
C1014 C1013 1.349 . S
C1014 C1026 1.349 . S
C1015 C1013 1.327 . S
C1015 C1031 1.429 . S
C1015 H1037 0.950 . S
C1016 H1012 0.949 . S
C1016 C1024 1.574 . S
C1016 C1032 1.368 1_556 S
H1017 C1025 0.950 . S
H1018 C1023 0.950 . S
H1019 C1024 0.949 . S
H1020 C1026 0.950 1_556 S
H1021 C1027 0.950 . S
H1022 C1028 0.949 . S
C1023 H1018 0.950 . S
C1023 C1025 1.327 . S
C1023 C1029 1.429 1_554 S
C1024 C1016 1.574 . S
C1024 H1019 0.949 . S
C1024 C1030 1.384 . S
C1025 C1009 1.349 1_554 S
C1025 H1017 0.950 . S
C1025 C1023 1.327 . S
C1026 C1014 1.349 . S
C1026 H1020 0.950 1_554 S
C1026 C1027 1.327 1_554 S
C1027 H1021 0.950 . S
C1027 C1026 1.327 1_556 S
C1027 C1031 1.429 1_556 S
C1028 C1011 1.574 . S
C1028 H1022 0.949 . S
C1028 C1032 1.368 . S
C1029 C1010 1.429 . S
C1029 C1023 1.429 1_556 S
C1029 C1030 1.527 . S
C1030 C1011 1.349 1_556 S
C1030 C1024 1.384 . S
C1030 C1029 1.527 . S
C1031 C1015 1.429 . S
C1031 C1027 1.429 1_554 S
C1031 C1032 1.523 . S
C1032 C1016 1.368 1_554 S
C1032 C1028 1.368 . S
C1032 C1031 1.523 . S
H1033 C1008 0.950 . S
H1034 C1010 0.950 . S
H1035 C1011 0.949 . S
H1036 C1013 0.950 . S
H1037 C1015 0.950 . S
C1038 C1039 1.349 1_554 S
C1038 C1040 1.327 . S
C1038 H1063 0.950 . S
C1039 C1038 1.349 1_556 S
C1039 C1055 1.349 . S
C1040 C1038 1.327 . S
C1040 C1059 1.429 1_554 S
C1040 H1064 0.950 . S
C1041 C1058 1.574 . S
C1041 C1060 1.383 . S
C1041 H1065 0.949 . S
H1042 C1046 0.949 . S
C1043 C1044 1.349 . S
C1043 C1045 1.327 1_554 S
C1043 H1066 0.950 1_554 S
C1044 C1043 1.349 . S
C1044 C1056 1.349 . S
C1045 C1043 1.327 1_556 S
C1045 C1061 1.429 1_556 S
C1045 H1067 0.950 . S
C1046 H1042 0.949 . S
C1046 C1054 1.574 . S
C1046 C1062 1.368 . S
H1047 C1055 0.950 . S
H1048 C1053 0.950 . S
H1049 C1054 0.949 . S
H1050 C1056 0.950 . S
H1051 C1057 0.950 . S
H1052 C1058 0.949 . S
C1053 H1048 0.950 . S
C1053 C1055 1.327 . S
C1053 C1059 1.429 . S
C1054 C1046 1.574 . S
C1054 H1049 0.949 . S
C1054 C1060 1.350 1_554 S
C1055 C1039 1.349 . S
C1055 H1047 0.950 . S
C1055 C1053 1.327 . S
C1056 C1044 1.349 . S
C1056 H1050 0.950 . S
C1056 C1057 1.327 . S
C1057 H1051 0.950 . S
C1057 C1056 1.327 . S
C1057 C1061 1.429 . S
C1058 C1041 1.574 . S
C1058 H1052 0.949 . S
C1058 C1062 1.368 1_556 S
C1059 C1040 1.429 1_556 S
C1059 C1053 1.429 . S
C1059 C1060 1.527 . S
C1060 C1041 1.383 . S
C1060 C1054 1.350 1_556 S
C1060 C1059 1.527 . S
C1061 C1045 1.429 1_554 S
C1061 C1057 1.429 . S
C1061 C1062 1.523 . S
C1062 C1046 1.368 . S
C1062 C1058 1.368 1_554 S
C1062 C1061 1.523 . S
H1063 C1038 0.950 . S
H1064 C1040 0.950 . S
H1065 C1041 0.949 . S
H1066 C1043 0.950 1_556 S
H1067 C1045 0.950 . S
C1068 C1069 1.349 . S
C1068 C1070 1.327 . S
C1068 H1093 0.950 . S
C1069 C1068 1.349 . S
C1069 C1085 1.349 1_556 S
C1070 C1068 1.327 . S
C1070 C1089 1.429 . S
C1070 H1094 0.950 . S
C1071 C1088 1.574 . S
C1071 C1090 1.353 1_554 S
C1071 H1095 0.949 . S
H1072 C1076 0.949 . S
C1073 C1074 1.349 . S
C1073 C1075 1.327 . S
C1073 H1096 0.950 . S
C1074 C1073 1.349 . S
C1074 C1086 1.349 . S
C1075 C1073 1.327 . S
C1075 C1091 1.429 . S
C1075 H1097 0.950 . S
C1076 H1072 0.949 . S
C1076 C1084 1.574 . S
C1076 C1092 1.368 1_556 S
H1077 C1085 0.950 . S
H1078 C1083 0.950 . S
H1079 C1084 0.949 . S
H1080 C1086 0.950 1_556 S
H1081 C1087 0.950 1_556 S
H1082 C1088 0.949 . S
C1083 H1078 0.950 . S
C1083 C1085 1.327 . S
C1083 C1089 1.429 1_554 S
C1084 C1076 1.574 . S
C1084 H1079 0.949 . S
C1084 C1090 1.380 . S
C1085 C1069 1.349 1_554 S
C1085 H1077 0.950 . S
C1085 C1083 1.327 . S
C1086 C1074 1.349 . S
C1086 H1080 0.950 1_554 S
C1086 C1087 1.327 . S
C1087 H1081 0.950 1_554 S
C1087 C1086 1.327 . S
C1087 C1091 1.429 . S
C1088 C1071 1.574 . S
C1088 H1082 0.949 . S
C1088 C1092 1.368 . S
C1089 C1070 1.429 . S
C1089 C1083 1.429 1_556 S
C1089 C1090 1.527 . S
C1090 C1071 1.353 1_556 S
C1090 C1084 1.380 . S
C1090 C1089 1.527 . S
C1091 C1075 1.429 . S
C1091 C1087 1.429 . S
C1091 C1092 1.523 . S
C1092 C1076 1.368 1_554 S
C1092 C1088 1.368 . S
C1092 C1091 1.523 . S
H1093 C1068 0.950 . S
H1094 C1070 0.950 . S
H1095 C1071 0.949 . S
H1096 C1073 0.950 . S
H1097 C1075 0.950 . S
C1098 C1099 1.349 . S
C1098 C1100 1.327 . S
C1098 H1123 0.950 . S
C1099 C1098 1.349 . S
C1099 C1115 1.349 . S
C1100 C1098 1.327 . S
C1100 C1119 1.429 . S
C1100 H1124 0.950 . S
C1101 C1118 1.574 . S
C1101 C1120 1.368 . S
C1101 H1125 0.949 . S
H1102 C1106 0.949 . S
C1103 C1104 1.349 . S
C1103 C1105 1.327 . S
C1103 H1126 0.950 . S
C1104 C1103 1.349 . S
C1104 C1116 1.349 . S
C1105 C1103 1.327 . S
C1105 C1121 1.429 . S
C1105 H1127 0.950 . S
C1106 H1102 0.949 . S
C1106 C1114 1.574 . S
C1106 C1122 1.368 . S
H1107 C1115 0.950 . S
H1108 C1113 0.950 . S
H1109 C1114 0.949 . S
H1110 C1116 0.950 . S
H1111 C1117 0.950 . S
H1112 C1118 0.949 . S
C1113 H1108 0.950 . S
C1113 C1115 1.327 . S
C1113 C1119 1.429 . S
C1114 C1106 1.574 . S
C1114 H1109 0.949 . S
C1114 C1120 1.368 . S
C1115 C1099 1.349 . S
C1115 H1107 0.950 . S
C1115 C1113 1.327 . S
C1116 C1104 1.349 . S
C1116 H1110 0.950 . S
C1116 C1117 1.327 . S
C1117 H1111 0.950 . S
C1117 C1116 1.327 . S
C1117 C1121 1.429 . S
C1118 C1101 1.574 . S
C1118 H1112 0.949 . S
C1118 C1122 1.368 . S
C1119 C1100 1.429 . S
C1119 C1113 1.429 . S
C1119 C1120 1.523 . S
C1120 C1101 1.368 . S
C1120 C1114 1.368 . S
C1120 C1119 1.523 . S
C1121 C1105 1.429 . S
C1121 C1117 1.429 . S
C1121 C1122 1.523 . S
C1122 C1106 1.368 . S
C1122 C1118 1.368 . S
C1122 C1121 1.523 . S
H1123 C1098 0.950 . S
H1124 C1100 0.950 . S
H1125 C1101 0.949 . S
H1126 C1103 0.950 . S
H1127 C1105 0.950 . S
C1128 C1129 1.349 . S
C1128 C1130 1.327 . S
C1128 H1153 0.950 . S
C1129 C1128 1.349 . S
C1129 C1145 1.349 . S
C1130 C1128 1.327 . S
C1130 C1149 1.429 . S
C1130 H1154 0.950 . S
C1131 C1148 1.574 . S
C1131 C1150 1.368 . S
C1131 H1155 0.949 . S
H1132 C1136 0.949 . S
C1133 C1134 1.349 . S
C1133 C1135 1.327 . S
C1133 H1156 0.950 . S
C1134 C1133 1.349 . S
C1134 C1146 1.349 . S
C1135 C1133 1.327 . S
C1135 C1151 1.429 . S
C1135 H1157 0.950 . S
C1136 H1132 0.949 . S
C1136 C1144 1.574 . S
C1136 C1152 1.368 . S
H1137 C1145 0.950 . S
H1138 C1143 0.950 . S
H1139 C1144 0.949 . S
H1140 C1146 0.950 . S
H1141 C1147 0.950 . S
H1142 C1148 0.949 . S
C1143 H1138 0.950 . S
C1143 C1145 1.327 . S
C1143 C1149 1.429 . S
C1144 C1136 1.574 . S
C1144 H1139 0.949 . S
C1144 C1150 1.368 . S
C1145 C1129 1.349 . S
C1145 H1137 0.950 . S
C1145 C1143 1.327 . S
C1146 C1134 1.349 . S
C1146 H1140 0.950 . S
C1146 C1147 1.327 . S
C1147 H1141 0.950 . S
C1147 C1146 1.327 . S
C1147 C1151 1.429 . S
C1148 C1131 1.574 . S
C1148 H1142 0.949 . S
C1148 C1152 1.368 . S
C1149 C1130 1.429 . S
C1149 C1143 1.429 . S
C1149 C1150 1.523 . S
C1150 C1131 1.368 . S
C1150 C1144 1.368 . S
C1150 C1149 1.523 . S
C1151 C1135 1.429 . S
C1151 C1147 1.429 . S
C1151 C1152 1.523 . S
C1152 C1136 1.368 . S
C1152 C1148 1.368 . S
C1152 C1151 1.523 . S
H1153 C1128 0.950 . S
H1154 C1130 0.950 . S
H1155 C1131 0.949 . S
H1156 C1133 0.950 . S
H1157 C1135 0.950 . S
C1158 C1159 1.349 . S
C1158 C1160 1.327 . S
C1158 H1183 0.950 . S
C1159 C1158 1.349 . S
C1159 C1175 1.349 . S
C1160 C1158 1.327 . S
C1160 C1179 1.429 . S
C1160 H1184 0.950 . S
C1161 C1178 1.574 . S
C1161 C1180 1.368 . S
C1161 H1185 0.949 . S
H1162 C1166 0.949 . S
C1163 C1164 1.349 . S
C1163 C1165 1.327 . S
C1163 H1186 0.950 . S
C1164 C1163 1.349 . S
C1164 C1176 1.349 . S
C1165 C1163 1.327 . S
C1165 C1181 1.429 . S
C1165 H1187 0.950 . S
C1166 H1162 0.949 . S
C1166 C1174 1.574 . S
C1166 C1182 1.368 . S
H1167 C1175 0.950 . S
H1168 C1173 0.950 . S
H1169 C1174 0.949 . S
H1170 C1176 0.950 . S
H1171 C1177 0.950 . S
H1172 C1178 0.949 . S
C1173 H1168 0.950 . S
C1173 C1175 1.327 . S
C1173 C1179 1.429 . S
C1174 C1166 1.574 . S
C1174 H1169 0.949 . S
C1174 C1180 1.368 . S
C1175 C1159 1.349 . S
C1175 H1167 0.950 . S
C1175 C1173 1.327 . S
C1176 C1164 1.349 . S
C1176 H1170 0.950 . S
C1176 C1177 1.327 . S
C1177 H1171 0.950 . S
C1177 C1176 1.327 . S
C1177 C1181 1.429 . S
C1178 C1161 1.574 . S
C1178 H1172 0.949 . S
C1178 C1182 1.368 . S
C1179 C1160 1.429 . S
C1179 C1173 1.429 . S
C1179 C1180 1.523 . S
C1180 C1161 1.368 . S
C1180 C1174 1.368 . S
C1180 C1179 1.523 . S
C1181 C1165 1.429 . S
C1181 C1177 1.429 . S
C1181 C1182 1.523 . S
C1182 C1166 1.368 . S
C1182 C1178 1.368 . S
C1182 C1181 1.523 . S
H1183 C1158 0.950 . S
H1184 C1160 0.950 . S
H1185 C1161 0.949 . S
H1186 C1163 0.950 . S
H1187 C1165 0.950 . S
C1188 C1189 1.349 1_556 S
C1188 C1190 1.327 . S
C1188 H1213 0.950 . S
C1189 C1188 1.349 1_554 S
C1189 C1205 1.349 . S
C1190 C1188 1.327 . S
C1190 C1209 1.429 1_556 S
C1190 H1214 0.950 . S
C1191 C1208 1.574 . S
C1191 C1210 1.383 . S
C1191 H1215 0.949 . S
H1192 C1196 0.949 . S
C1193 C1194 1.349 . S
C1193 C1195 1.319 1_556 S
C1193 H1216 0.950 1_556 S
C1194 C1193 1.349 . S
C1194 C1206 1.349 . S
C1195 C1193 1.319 1_554 S
C1195 C1211 1.406 1_554 S
C1195 H1217 0.982 . S
C1196 H1192 0.949 . S
C1196 C1204 1.574 . S
C1196 C1212 1.368 . S
H1197 C1205 0.950 . S
H1198 C1203 0.950 . S
H1199 C1204 0.949 . S
H1200 C1206 0.950 . S
H1201 C1207 0.950 . S
H1202 C1208 0.949 . S
C1203 H1198 0.950 . S
C1203 C1205 1.327 . S
C1203 C1209 1.429 . S
C1204 C1196 1.574 . S
C1204 H1199 0.949 . S
C1204 C1210 1.350 1_556 S
C1205 C1189 1.349 . S
C1205 H1197 0.950 . S
C1205 C1203 1.327 . S
C1206 C1194 1.349 . S
C1206 H1200 0.950 . S
C1206 C1207 1.327 . S
C1207 H1201 0.950 . S
C1207 C1206 1.327 . S
C1207 C1211 1.429 . S
C1208 C1191 1.574 . S
C1208 H1202 0.949 . S
C1208 C1212 1.368 1_554 S
C1209 C1190 1.429 1_554 S
C1209 C1203 1.429 . S
C1209 C1210 1.527 . S
C1210 C1191 1.383 . S
C1210 C1204 1.350 1_554 S
C1210 C1209 1.527 . S
C1211 C1195 1.406 1_556 S
C1211 C1207 1.429 . S
C1211 C1212 1.523 . S
C1212 C1196 1.368 . S
C1212 C1208 1.368 1_556 S
C1212 C1211 1.523 . S
H1213 C1188 0.950 . S
H1214 C1190 0.950 . S
H1215 C1191 0.949 . S
H1216 C1193 0.950 1_554 S
H1217 C1195 0.982 . S
C1218 C1219 1.349 . S
C1218 C1220 1.327 . S
C1218 H1243 0.940 1_556 S
C1219 C1218 1.349 . S
C1219 C1235 1.349 . S
C1220 C1218 1.327 . S
C1220 C1239 1.429 . S
C1220 H1244 0.950 1_556 S
C1221 C1238 1.574 . S
C1221 C1240 1.368 . S
C1221 H1245 0.949 . S
H1222 C1226 0.949 . S
C1223 C1224 1.328 1_556 S
C1223 C1225 1.334 . S
C1223 H1246 0.965 . S
C1224 C1223 1.328 1_554 S
C1224 C1236 1.349 . S
C1225 C1223 1.334 . S
C1225 C1241 1.429 1_556 S
C1225 H1247 0.950 . S
C1226 H1222 0.949 . S
C1226 C1234 1.574 . S
C1226 C1242 1.380 . S
H1227 C1235 0.950 . S
H1228 C1233 0.950 . S
H1229 C1234 0.949 . S
H1230 C1236 0.950 . S
H1231 C1237 0.950 . S
H1232 C1238 0.949 . S
C1233 H1228 0.950 . S
C1233 C1235 1.327 . S
C1233 C1239 1.429 . S
C1234 C1226 1.574 . S
C1234 H1229 0.949 . S
C1234 C1240 1.368 1_554 S
C1235 C1219 1.349 . S
C1235 H1227 0.950 . S
C1235 C1233 1.327 . S
C1236 C1224 1.349 . S
C1236 H1230 0.950 . S
C1236 C1237 1.327 . S
C1237 H1231 0.950 . S
C1237 C1236 1.327 . S
C1237 C1241 1.429 . S
C1238 C1221 1.574 . S
C1238 H1232 0.949 . S
C1238 C1242 1.354 1_556 S
C1239 C1220 1.429 . S
C1239 C1233 1.429 . S
C1239 C1240 1.523 . S
C1240 C1221 1.368 . S
C1240 C1234 1.368 1_556 S
C1240 C1239 1.523 . S
C1241 C1225 1.429 1_554 S
C1241 C1237 1.429 . S
C1241 C1242 1.527 . S
C1242 C1226 1.380 . S
C1242 C1238 1.354 1_554 S
C1242 C1241 1.527 . S
H1243 C1218 0.940 1_554 S
H1244 C1220 0.950 1_554 S
H1245 C1221 0.949 . S
H1246 C1223 0.965 . S
H1247 C1225 0.950 . S
C1248 C1249 1.349 . S
C1248 C1250 1.327 . S
C1248 H1273 0.950 . S
C1249 C1248 1.349 . S
C1249 C1265 1.349 . S
C1250 C1248 1.327 . S
C1250 C1269 1.429 . S
C1250 H1274 0.950 . S
C1251 C1268 1.574 . S
C1251 C1270 1.357 1_556 S
C1251 H1275 0.949 . S
H1252 C1256 0.949 . S
C1253 C1254 1.349 . S
C1253 C1255 1.327 . S
C1253 H1276 0.950 . S
C1254 C1253 1.349 . S
C1254 C1266 1.349 . S
C1255 C1253 1.327 . S
C1255 C1271 1.429 . S
C1255 H1277 0.950 . S
C1256 H1252 0.949 . S
C1256 C1264 1.574 . S
C1256 C1272 1.368 1_554 S
H1257 C1265 0.950 1_556 S
H1258 C1263 0.950 . S
H1259 C1264 0.949 . S
H1260 C1266 0.950 . S
H1261 C1267 0.950 1_554 S
H1262 C1268 0.949 . S
C1263 H1258 0.950 . S
C1263 C1265 1.327 1_556 S
C1263 C1269 1.429 1_556 S
C1264 C1256 1.574 . S
C1264 H1259 0.949 . S
C1264 C1270 1.377 . S
C1265 C1249 1.349 . S
C1265 H1257 0.950 1_554 S
C1265 C1263 1.327 1_554 S
C1266 C1254 1.349 . S
C1266 H1260 0.950 . S
C1266 C1267 1.327 . S
C1267 H1261 0.950 1_556 S
C1267 C1266 1.327 . S
C1267 C1271 1.429 . S
C1268 C1251 1.574 . S
C1268 H1262 0.949 . S
C1268 C1272 1.368 . S
C1269 C1250 1.429 . S
C1269 C1263 1.429 1_554 S
C1269 C1270 1.527 . S
C1270 C1251 1.357 1_554 S
C1270 C1264 1.377 . S
C1270 C1269 1.527 . S
C1271 C1255 1.429 . S
C1271 C1267 1.429 . S
C1271 C1272 1.523 . S
C1272 C1256 1.368 1_556 S
C1272 C1268 1.368 . S
C1272 C1271 1.523 . S
H1273 C1248 0.950 . S
H1274 C1250 0.950 . S
H1275 C1251 0.949 . S
H1276 C1253 0.950 . S
H1277 C1255 0.950 . S
C1278 C1279 1.349 . S
C1278 C1280 1.327 . S
C1278 H1303 0.950 . S
C1279 C1278 1.349 . S
C1279 C1295 1.349 . S
C1280 C1278 1.327 . S
C1280 C1299 1.429 . S
C1280 H1304 0.950 . S
C1281 C1298 1.574 . S
C1281 C1300 1.368 . S
C1281 H1305 0.949 . S
H1282 C1286 0.949 . S
C1283 C1284 1.349 . S
C1283 C1285 1.327 . S
C1283 H1306 0.950 . S
C1284 C1283 1.349 . S
C1284 C1296 1.349 . S
C1285 C1283 1.327 . S
C1285 C1301 1.429 . S
C1285 H1307 0.950 . S
C1286 H1282 0.949 . S
C1286 C1294 1.574 . S
C1286 C1302 1.368 . S
H1287 C1295 0.950 . S
H1288 C1293 0.950 . S
H1289 C1294 0.949 . S
H1290 C1296 0.950 . S
H1291 C1297 0.950 . S
H1292 C1298 0.949 . S
C1293 H1288 0.950 . S
C1293 C1295 1.327 . S
C1293 C1299 1.429 . S
C1294 C1286 1.574 . S
C1294 H1289 0.949 . S
C1294 C1300 1.368 . S
C1295 C1279 1.349 . S
C1295 H1287 0.950 . S
C1295 C1293 1.327 . S
C1296 C1284 1.349 . S
C1296 H1290 0.950 . S
C1296 C1297 1.327 . S
C1297 H1291 0.950 . S
C1297 C1296 1.327 . S
C1297 C1301 1.429 . S
C1298 C1281 1.574 . S
C1298 H1292 0.949 . S
C1298 C1302 1.368 . S
C1299 C1280 1.429 . S
C1299 C1293 1.429 . S
C1299 C1300 1.523 . S
C1300 C1281 1.368 . S
C1300 C1294 1.368 . S
C1300 C1299 1.523 . S
C1301 C1285 1.429 . S
C1301 C1297 1.429 . S
C1301 C1302 1.523 . S
C1302 C1286 1.368 . S
C1302 C1298 1.368 . S
C1302 C1301 1.523 . S
H1303 C1278 0.950 . S
H1304 C1280 0.950 . S
H1305 C1281 0.949 . S
H1306 C1283 0.950 . S
H1307 C1285 0.950 . S
C1308 C1309 1.349 . S
C1308 C1310 1.327 . S
C1308 H1333 0.950 . S
C1309 C1308 1.349 . S
C1309 C1325 1.349 . S
C1310 C1308 1.327 . S
C1310 C1329 1.429 . S
C1310 H1334 0.950 . S
C1311 C1328 1.574 . S
C1311 C1330 1.368 . S
C1311 H1335 0.949 . S
H1312 C1316 0.949 . S
C1313 C1314 1.349 . S
C1313 C1315 1.327 . S
C1313 H1336 0.950 . S
C1314 C1313 1.349 . S
C1314 C1326 1.349 . S
C1315 C1313 1.327 . S
C1315 C1331 1.429 . S
C1315 H1337 0.950 . S
C1316 H1312 0.949 . S
C1316 C1324 1.574 . S
C1316 C1332 1.368 . S
H1317 C1325 0.950 . S
H1318 C1323 0.950 . S
H1319 C1324 0.949 . S
H1320 C1326 0.950 . S
H1321 C1327 0.950 . S
H1322 C1328 0.949 . S
C1323 H1318 0.950 . S
C1323 C1325 1.327 . S
C1323 C1329 1.429 . S
C1324 C1316 1.574 . S
C1324 H1319 0.949 . S
C1324 C1330 1.368 . S
C1325 C1309 1.349 . S
C1325 H1317 0.950 . S
C1325 C1323 1.327 . S
C1326 C1314 1.349 . S
C1326 H1320 0.950 . S
C1326 C1327 1.327 . S
C1327 H1321 0.950 . S
C1327 C1326 1.327 . S
C1327 C1331 1.429 . S
C1328 C1311 1.574 . S
C1328 H1322 0.949 . S
C1328 C1332 1.368 . S
C1329 C1310 1.429 . S
C1329 C1323 1.429 . S
C1329 C1330 1.523 . S
C1330 C1311 1.368 . S
C1330 C1324 1.368 . S
C1330 C1329 1.523 . S
C1331 C1315 1.429 . S
C1331 C1327 1.429 . S
C1331 C1332 1.523 . S
C1332 C1316 1.368 . S
C1332 C1328 1.368 . S
C1332 C1331 1.523 . S
H1333 C1308 0.950 . S
H1334 C1310 0.950 . S
H1335 C1311 0.949 . S
H1336 C1313 0.950 . S
H1337 C1315 0.950 . S
C1338 C1339 1.349 . S
C1338 C1340 1.327 . S
C1338 H1363 0.950 . S
C1339 C1338 1.349 . S
C1339 C1355 1.349 . S
C1340 C1338 1.327 . S
C1340 C1359 1.429 . S
C1340 H1364 0.950 . S
C1341 C1358 1.574 . S
C1341 C1360 1.368 . S
C1341 H1365 0.949 . S
H1342 C1346 0.949 . S
C1343 C1344 1.349 . S
C1343 C1345 1.327 . S
C1343 H1366 0.950 . S
C1344 C1343 1.349 . S
C1344 C1356 1.349 . S
C1345 C1343 1.327 . S
C1345 C1361 1.429 . S
C1345 H1367 0.950 . S
C1346 H1342 0.949 . S
C1346 C1354 1.574 . S
C1346 C1362 1.368 . S
H1347 C1355 0.950 . S
H1348 C1353 0.950 . S
H1349 C1354 0.949 . S
H1350 C1356 0.950 . S
H1351 C1357 0.950 . S
H1352 C1358 0.949 . S
C1353 H1348 0.950 . S
C1353 C1355 1.327 . S
C1353 C1359 1.429 . S
C1354 C1346 1.574 . S
C1354 H1349 0.949 . S
C1354 C1360 1.368 . S
C1355 C1339 1.349 . S
C1355 H1347 0.950 . S
C1355 C1353 1.327 . S
C1356 C1344 1.349 . S
C1356 H1350 0.950 . S
C1356 C1357 1.327 . S
C1357 H1351 0.950 . S
C1357 C1356 1.327 . S
C1357 C1361 1.429 . S
C1358 C1341 1.574 . S
C1358 H1352 0.949 . S
C1358 C1362 1.368 . S
C1359 C1340 1.429 . S
C1359 C1353 1.429 . S
C1359 C1360 1.523 . S
C1360 C1341 1.368 . S
C1360 C1354 1.368 . S
C1360 C1359 1.523 . S
C1361 C1345 1.429 . S
C1361 C1357 1.429 . S
C1361 C1362 1.523 . S
C1362 C1346 1.368 . S
C1362 C1358 1.368 . S
C1362 C1361 1.523 . S
H1363 C1338 0.950 . S
H1364 C1340 0.950 . S
H1365 C1341 0.949 . S
H1366 C1343 0.950 . S
H1367 C1345 0.950 . S
C1368 C1369 1.349 . S
C1368 C1370 1.327 . S
C1368 H1393 0.950 . S
C1369 C1368 1.349 . S
C1369 C1385 1.349 . S
C1370 C1368 1.327 . S
C1370 C1389 1.429 . S
C1370 H1394 0.950 . S
C1371 C1388 1.574 . S
C1371 C1390 1.368 . S
C1371 H1395 0.949 . S
H1372 C1376 0.949 . S
C1373 C1374 1.349 . S
C1373 C1375 1.327 . S
C1373 H1396 0.950 . S
C1374 C1373 1.349 . S
C1374 C1386 1.349 . S
C1375 C1373 1.327 . S
C1375 C1391 1.429 . S
C1375 H1397 0.950 . S
C1376 H1372 0.949 . S
C1376 C1384 1.574 . S
C1376 C1392 1.368 . S
H1377 C1385 0.950 . S
H1378 C1383 0.950 . S
H1379 C1384 0.949 . S
H1380 C1386 0.950 . S
H1381 C1387 0.950 . S
H1382 C1388 0.949 . S
C1383 H1378 0.950 . S
C1383 C1385 1.327 . S
C1383 C1389 1.429 . S
C1384 C1376 1.574 . S
C1384 H1379 0.949 . S
C1384 C1390 1.368 . S
C1385 C1369 1.349 . S
C1385 H1377 0.950 . S
C1385 C1383 1.327 . S
C1386 C1374 1.349 . S
C1386 H1380 0.950 . S
C1386 C1387 1.327 . S
C1387 H1381 0.950 . S
C1387 C1386 1.327 . S
C1387 C1391 1.429 . S
C1388 C1371 1.574 . S
C1388 H1382 0.949 . S
C1388 C1392 1.368 . S
C1389 C1370 1.429 . S
C1389 C1383 1.429 . S
C1389 C1390 1.523 . S
C1390 C1371 1.368 . S
C1390 C1384 1.368 . S
C1390 C1389 1.523 . S
C1391 C1375 1.429 . S
C1391 C1387 1.429 . S
C1391 C1392 1.523 . S
C1392 C1376 1.368 . S
C1392 C1388 1.368 . S
C1392 C1391 1.523 . S
H1393 C1368 0.950 . S
H1394 C1370 0.950 . S
H1395 C1371 0.949 . S
H1396 C1373 0.950 . S
H1397 C1375 0.950 . S
C1398 C1399 1.349 . S
C1398 C1400 1.327 . S
C1398 H1423 0.950 . S
C1399 C1398 1.349 . S
C1399 C1415 1.349 . S
C1400 C1398 1.327 . S
C1400 C1419 1.429 . S
C1400 H1424 0.950 . S
C1401 C1418 1.574 . S
C1401 C1420 1.368 . S
C1401 H1425 0.949 . S
H1402 C1406 0.949 . S
C1403 C1404 1.349 . S
C1403 C1405 1.327 . S
C1403 H1426 0.950 . S
C1404 C1403 1.349 . S
C1404 C1416 1.349 . S
C1405 C1403 1.327 . S
C1405 C1421 1.429 . S
C1405 H1427 0.950 . S
C1406 H1402 0.949 . S
C1406 C1414 1.574 . S
C1406 C1422 1.368 . S
H1407 C1415 0.950 . S
H1408 C1413 0.950 . S
H1409 C1414 0.949 . S
H1410 C1416 0.950 . S
H1411 C1417 0.950 . S
H1412 C1418 0.949 . S
C1413 H1408 0.950 . S
C1413 C1415 1.327 . S
C1413 C1419 1.429 . S
C1414 C1406 1.574 . S
C1414 H1409 0.949 . S
C1414 C1420 1.368 . S
C1415 C1399 1.349 . S
C1415 H1407 0.950 . S
C1415 C1413 1.327 . S
C1416 C1404 1.349 . S
C1416 H1410 0.950 . S
C1416 C1417 1.327 . S
C1417 H1411 0.950 . S
C1417 C1416 1.327 . S
C1417 C1421 1.429 . S
C1418 C1401 1.574 . S
C1418 H1412 0.949 . S
C1418 C1422 1.368 . S
C1419 C1400 1.429 . S
C1419 C1413 1.429 . S
C1419 C1420 1.523 . S
C1420 C1401 1.368 . S
C1420 C1414 1.368 . S
C1420 C1419 1.523 . S
C1421 C1405 1.429 . S
C1421 C1417 1.429 . S
C1421 C1422 1.523 . S
C1422 C1406 1.368 . S
C1422 C1418 1.368 . S
C1422 C1421 1.523 . S
H1423 C1398 0.950 . S
H1424 C1400 0.950 . S
H1425 C1401 0.949 . S
H1426 C1403 0.950 . S
H1427 C1405 0.950 . S
C1428 C1429 1.349 . S
C1428 C1430 1.327 . S
C1428 H1453 0.950 . S
C1429 C1428 1.349 . S
C1429 C1445 1.349 . S
C1430 C1428 1.327 . S
C1430 C1449 1.429 . S
C1430 H1454 0.950 . S
C1431 C1448 1.574 . S
C1431 C1450 1.368 . S
C1431 H1455 0.949 . S
H1432 C1436 0.949 . S
C1433 C1434 1.349 . S
C1433 C1435 1.327 . S
C1433 H1456 0.950 . S
C1434 C1433 1.349 . S
C1434 C1446 1.349 . S
C1435 C1433 1.327 . S
C1435 C1451 1.429 . S
C1435 H1457 0.950 . S
C1436 H1432 0.949 . S
C1436 C1444 1.574 . S
C1436 C1452 1.368 . S
H1437 C1445 0.950 . S
H1438 C1443 0.950 . S
H1439 C1444 0.949 . S
H1440 C1446 0.950 . S
H1441 C1447 0.950 . S
H1442 C1448 0.949 . S
C1443 H1438 0.950 . S
C1443 C1445 1.327 . S
C1443 C1449 1.429 . S
C1444 C1436 1.574 . S
C1444 H1439 0.949 . S
C1444 C1450 1.368 . S
C1445 C1429 1.349 . S
C1445 H1437 0.950 . S
C1445 C1443 1.327 . S
C1446 C1434 1.349 . S
C1446 H1440 0.950 . S
C1446 C1447 1.327 . S
C1447 H1441 0.950 . S
C1447 C1446 1.327 . S
C1447 C1451 1.429 . S
C1448 C1431 1.574 . S
C1448 H1442 0.949 . S
C1448 C1452 1.368 . S
C1449 C1430 1.429 . S
C1449 C1443 1.429 . S
C1449 C1450 1.523 . S
C1450 C1431 1.368 . S
C1450 C1444 1.368 . S
C1450 C1449 1.523 . S
C1451 C1435 1.429 . S
C1451 C1447 1.429 . S
C1451 C1452 1.523 . S
C1452 C1436 1.368 . S
C1452 C1448 1.368 . S
C1452 C1451 1.523 . S
H1453 C1428 0.950 . S
H1454 C1430 0.950 . S
H1455 C1431 0.949 . S
H1456 C1433 0.950 . S
H1457 C1435 0.950 . S
C1458 C1459 1.349 . S
C1458 C1460 1.327 . S
C1458 H1483 0.950 . S
C1459 C1458 1.349 . S
C1459 C1475 1.349 . S
C1460 C1458 1.327 . S
C1460 C1479 1.429 . S
C1460 H1484 0.950 . S
C1461 C1478 1.574 . S
C1461 C1480 1.368 . S
C1461 H1485 0.949 . S
H1462 C1466 0.949 . S
C1463 C1464 1.349 . S
C1463 C1465 1.327 . S
C1463 H1486 0.950 . S
C1464 C1463 1.349 . S
C1464 C1476 1.349 . S
C1465 C1463 1.327 . S
C1465 C1481 1.429 . S
C1465 H1487 0.950 . S
C1466 H1462 0.949 . S
C1466 C1474 1.574 . S
C1466 C1482 1.368 . S
H1467 C1475 0.950 . S
H1468 C1473 0.950 . S
H1469 C1474 0.949 . S
H1470 C1476 0.950 . S
H1471 C1477 0.950 . S
H1472 C1478 0.949 . S
C1473 H1468 0.950 . S
C1473 C1475 1.327 . S
C1473 C1479 1.429 . S
C1474 C1466 1.574 . S
C1474 H1469 0.949 . S
C1474 C1480 1.368 . S
C1475 C1459 1.349 . S
C1475 H1467 0.950 . S
C1475 C1473 1.327 . S
C1476 C1464 1.349 . S
C1476 H1470 0.950 . S
C1476 C1477 1.327 . S
C1477 H1471 0.950 . S
C1477 C1476 1.327 . S
C1477 C1481 1.429 . S
C1478 C1461 1.574 . S
C1478 H1472 0.949 . S
C1478 C1482 1.368 . S
C1479 C1460 1.429 . S
C1479 C1473 1.429 . S
C1479 C1480 1.523 . S
C1480 C1461 1.368 . S
C1480 C1474 1.368 . S
C1480 C1479 1.523 . S
C1481 C1465 1.429 . S
C1481 C1477 1.429 . S
C1481 C1482 1.523 . S
C1482 C1466 1.368 . S
C1482 C1478 1.368 . S
C1482 C1481 1.523 . S
H1483 C1458 0.950 . S
H1484 C1460 0.950 . S
H1485 C1461 0.949 . S
H1486 C1463 0.950 . S
H1487 C1465 0.950 . S
C1488 C1489 1.349 . S
C1488 C1490 1.327 . S
C1488 H1513 0.950 . S
C1489 C1488 1.349 . S
C1489 C1505 1.349 . S
C1490 C1488 1.327 . S
C1490 C1509 1.429 . S
C1490 H1514 0.950 . S
C1491 C1508 1.574 . S
C1491 C1510 1.368 . S
C1491 H1515 0.949 . S
H1492 C1496 0.949 . S
C1493 C1494 1.349 . S
C1493 C1495 1.327 . S
C1493 H1516 0.950 . S
C1494 C1493 1.349 . S
C1494 C1506 1.349 . S
C1495 C1493 1.327 . S
C1495 C1511 1.429 . S
C1495 H1517 0.950 . S
C1496 H1492 0.949 . S
C1496 C1504 1.574 . S
C1496 C1512 1.368 . S
H1497 C1505 0.950 . S
H1498 C1503 0.950 . S
H1499 C1504 0.949 . S
H1500 C1506 0.950 . S
H1501 C1507 0.950 . S
H1502 C1508 0.949 . S
C1503 H1498 0.950 . S
C1503 C1505 1.327 . S
C1503 C1509 1.429 . S
C1504 C1496 1.574 . S
C1504 H1499 0.949 . S
C1504 C1510 1.368 . S
C1505 C1489 1.349 . S
C1505 H1497 0.950 . S
C1505 C1503 1.327 . S
C1506 C1494 1.349 . S
C1506 H1500 0.950 . S
C1506 C1507 1.327 . S
C1507 H1501 0.950 . S
C1507 C1506 1.327 . S
C1507 C1511 1.429 . S
C1508 C1491 1.574 . S
C1508 H1502 0.949 . S
C1508 C1512 1.368 . S
C1509 C1490 1.429 . S
C1509 C1503 1.429 . S
C1509 C1510 1.523 . S
C1510 C1491 1.368 . S
C1510 C1504 1.368 . S
C1510 C1509 1.523 . S
C1511 C1495 1.429 . S
C1511 C1507 1.429 . S
C1511 C1512 1.523 . S
C1512 C1496 1.368 . S
C1512 C1508 1.368 . S
C1512 C1511 1.523 . S
H1513 C1488 0.950 . S
H1514 C1490 0.950 . S
H1515 C1491 0.949 . S
H1516 C1493 0.950 . S
H1517 C1495 0.950 . S
C1518 C1519 1.349 . S
C1518 C1520 1.327 . S
C1518 H1543 0.950 . S
C1519 C1518 1.349 . S
C1519 C1535 1.349 . S
C1520 C1518 1.327 . S
C1520 C1539 1.429 . S
C1520 H1544 0.950 . S
C1521 C1538 1.574 . S
C1521 C1540 1.368 . S
C1521 H1545 0.949 . S
H1522 C1526 0.949 . S
C1523 C1524 1.349 . S
C1523 C1525 1.327 . S
C1523 H1546 0.950 . S
C1524 C1523 1.349 . S
C1524 C1536 1.349 . S
C1525 C1523 1.327 . S
C1525 C1541 1.429 . S
C1525 H1547 0.950 . S
C1526 H1522 0.949 . S
C1526 C1534 1.574 . S
C1526 C1542 1.368 . S
H1527 C1535 0.950 . S
H1528 C1533 0.950 . S
H1529 C1534 0.949 . S
H1530 C1536 0.950 . S
H1531 C1537 0.950 . S
H1532 C1538 0.949 . S
C1533 H1528 0.950 . S
C1533 C1535 1.327 . S
C1533 C1539 1.429 . S
C1534 C1526 1.574 . S
C1534 H1529 0.949 . S
C1534 C1540 1.368 . S
C1535 C1519 1.349 . S
C1535 H1527 0.950 . S
C1535 C1533 1.327 . S
C1536 C1524 1.349 . S
C1536 H1530 0.950 . S
C1536 C1537 1.327 . S
C1537 H1531 0.950 . S
C1537 C1536 1.327 . S
C1537 C1541 1.429 . S
C1538 C1521 1.574 . S
C1538 H1532 0.949 . S
C1538 C1542 1.368 . S
C1539 C1520 1.429 . S
C1539 C1533 1.429 . S
C1539 C1540 1.523 . S
C1540 C1521 1.368 . S
C1540 C1534 1.368 . S
C1540 C1539 1.523 . S
C1541 C1525 1.429 . S
C1541 C1537 1.429 . S
C1541 C1542 1.523 . S
C1542 C1526 1.368 . S
C1542 C1538 1.368 . S
C1542 C1541 1.523 . S
H1543 C1518 0.950 . S
H1544 C1520 0.950 . S
H1545 C1521 0.949 . S
H1546 C1523 0.950 . S
H1547 C1525 0.950 . S
C1548 C1549 1.349 . S
C1548 C1550 1.327 . S
C1548 H1573 0.950 . S
C1549 C1548 1.349 . S
C1549 C1565 1.349 . S
C1550 C1548 1.327 . S
C1550 C1569 1.429 . S
C1550 H1574 0.950 . S
C1551 C1568 1.574 . S
C1551 C1570 1.368 . S
C1551 H1575 0.949 . S
H1552 C1556 0.949 . S
C1553 C1554 1.349 . S
C1553 C1555 1.327 . S
C1553 H1576 0.950 . S
C1554 C1553 1.349 . S
C1554 C1566 1.349 . S
C1555 C1553 1.327 . S
C1555 C1571 1.429 . S
C1555 H1577 0.950 . S
C1556 H1552 0.949 . S
C1556 C1564 1.574 . S
C1556 C1572 1.368 . S
H1557 C1565 0.950 . S
H1558 C1563 0.950 . S
H1559 C1564 0.949 . S
H1560 C1566 0.950 . S
H1561 C1567 0.950 . S
H1562 C1568 0.949 . S
C1563 H1558 0.950 . S
C1563 C1565 1.327 . S
C1563 C1569 1.429 . S
C1564 C1556 1.574 . S
C1564 H1559 0.949 . S
C1564 C1570 1.368 . S
C1565 C1549 1.349 . S
C1565 H1557 0.950 . S
C1565 C1563 1.327 . S
C1566 C1554 1.349 . S
C1566 H1560 0.950 . S
C1566 C1567 1.327 . S
C1567 H1561 0.950 . S
C1567 C1566 1.327 . S
C1567 C1571 1.429 . S
C1568 C1551 1.574 . S
C1568 H1562 0.949 . S
C1568 C1572 1.368 . S
C1569 C1550 1.429 . S
C1569 C1563 1.429 . S
C1569 C1570 1.523 . S
C1570 C1551 1.368 . S
C1570 C1564 1.368 . S
C1570 C1569 1.523 . S
C1571 C1555 1.429 . S
C1571 C1567 1.429 . S
C1571 C1572 1.523 . S
C1572 C1556 1.368 . S
C1572 C1568 1.368 . S
C1572 C1571 1.523 . S
H1573 C1548 0.950 . S
H1574 C1550 0.950 . S
H1575 C1551 0.949 . S
H1576 C1553 0.950 . S
H1577 C1555 0.950 . S
C1578 C1579 1.349 . S
C1578 C1580 1.327 . S
C1578 H1603 0.950 . S
C1579 C1578 1.349 . S
C1579 C1595 1.349 . S
C1580 C1578 1.327 . S
C1580 C1599 1.429 . S
C1580 H1604 0.950 . S
C1581 C1598 1.574 . S
C1581 C1600 1.368 . S
C1581 H1605 0.949 . S
H1582 C1586 0.949 . S
C1583 C1584 1.349 . S
C1583 C1585 1.327 . S
C1583 H1606 0.950 . S
C1584 C1583 1.349 . S
C1584 C1596 1.349 . S
C1585 C1583 1.327 . S
C1585 C1601 1.429 . S
C1585 H1607 0.950 . S
C1586 H1582 0.949 . S
C1586 C1594 1.574 . S
C1586 C1602 1.368 . S
H1587 C1595 0.950 . S
H1588 C1593 0.950 . S
H1589 C1594 0.949 . S
H1590 C1596 0.950 . S
H1591 C1597 0.950 . S
H1592 C1598 0.949 . S
C1593 H1588 0.950 . S
C1593 C1595 1.327 . S
C1593 C1599 1.429 . S
C1594 C1586 1.574 . S
C1594 H1589 0.949 . S
C1594 C1600 1.368 . S
C1595 C1579 1.349 . S
C1595 H1587 0.950 . S
C1595 C1593 1.327 . S
C1596 C1584 1.349 . S
C1596 H1590 0.950 . S
C1596 C1597 1.327 . S
C1597 H1591 0.950 . S
C1597 C1596 1.327 . S
C1597 C1601 1.429 . S
C1598 C1581 1.574 . S
C1598 H1592 0.949 . S
C1598 C1602 1.368 . S
C1599 C1580 1.429 . S
C1599 C1593 1.429 . S
C1599 C1600 1.523 . S
C1600 C1581 1.368 . S
C1600 C1594 1.368 . S
C1600 C1599 1.523 . S
C1601 C1585 1.429 . S
C1601 C1597 1.429 . S
C1601 C1602 1.523 . S
C1602 C1586 1.368 . S
C1602 C1598 1.368 . S
C1602 C1601 1.523 . S
H1603 C1578 0.950 . S
H1604 C1580 0.950 . S
H1605 C1581 0.949 . S
H1606 C1583 0.950 . S
H1607 C1585 0.950 . S
C1608 C1609 1.349 . S
C1608 C1610 1.327 . S
C1608 H1633 0.950 . S
C1609 C1608 1.349 . S
C1609 C1625 1.349 . S
C1610 C1608 1.327 . S
C1610 C1629 1.429 . S
C1610 H1634 0.950 . S
C1611 C1628 1.574 . S
C1611 C1630 1.368 . S
C1611 H1635 0.949 . S
H1612 C1616 0.949 . S
C1613 C1614 1.349 . S
C1613 C1615 1.327 . S
C1613 H1636 0.950 . S
C1614 C1613 1.349 . S
C1614 C1626 1.349 . S
C1615 C1613 1.327 . S
C1615 C1631 1.429 . S
C1615 H1637 0.950 . S
C1616 H1612 0.949 . S
C1616 C1624 1.574 . S
C1616 C1632 1.368 . S
H1617 C1625 0.950 . S
H1618 C1623 0.950 . S
H1619 C1624 0.949 . S
H1620 C1626 0.950 . S
H1621 C1627 0.950 . S
H1622 C1628 0.949 . S
C1623 H1618 0.950 . S
C1623 C1625 1.327 . S
C1623 C1629 1.429 . S
C1624 C1616 1.574 . S
C1624 H1619 0.949 . S
C1624 C1630 1.368 . S
C1625 C1609 1.349 . S
C1625 H1617 0.950 . S
C1625 C1623 1.327 . S
C1626 C1614 1.349 . S
C1626 H1620 0.950 . S
C1626 C1627 1.327 . S
C1627 H1621 0.950 . S
C1627 C1626 1.327 . S
C1627 C1631 1.429 . S
C1628 C1611 1.574 . S
C1628 H1622 0.949 . S
C1628 C1632 1.368 . S
C1629 C1610 1.429 . S
C1629 C1623 1.429 . S
C1629 C1630 1.523 . S
C1630 C1611 1.368 . S
C1630 C1624 1.368 . S
C1630 C1629 1.523 . S
C1631 C1615 1.429 . S
C1631 C1627 1.429 . S
C1631 C1632 1.523 . S
C1632 C1616 1.368 . S
C1632 C1628 1.368 . S
C1632 C1631 1.523 . S
H1633 C1608 0.950 . S
H1634 C1610 0.950 . S
H1635 C1611 0.949 . S
H1636 C1613 0.950 . S
H1637 C1615 0.950 . S
C1638 C1639 1.349 . S
C1638 C1640 1.327 . S
C1638 H1663 0.950 . S
C1639 C1638 1.349 . S
C1639 C1655 1.349 . S
C1640 C1638 1.327 . S
C1640 C1659 1.429 . S
C1640 H1664 0.950 . S
C1641 C1658 1.574 . S
C1641 C1660 1.368 . S
C1641 H1665 0.949 . S
H1642 C1646 0.949 . S
C1643 C1644 1.349 . S
C1643 C1645 1.327 . S
C1643 H1666 0.950 . S
C1644 C1643 1.349 . S
C1644 C1656 1.349 . S
C1645 C1643 1.327 . S
C1645 C1661 1.429 . S
C1645 H1667 0.950 . S
C1646 H1642 0.949 . S
C1646 C1654 1.574 . S
C1646 C1662 1.368 . S
H1647 C1655 0.950 . S
H1648 C1653 0.950 . S
H1649 C1654 0.949 . S
H1650 C1656 0.950 . S
H1651 C1657 0.950 . S
H1652 C1658 0.949 . S
C1653 H1648 0.950 . S
C1653 C1655 1.327 . S
C1653 C1659 1.429 . S
C1654 C1646 1.574 . S
C1654 H1649 0.949 . S
C1654 C1660 1.368 . S
C1655 C1639 1.349 . S
C1655 H1647 0.950 . S
C1655 C1653 1.327 . S
C1656 C1644 1.349 . S
C1656 H1650 0.950 . S
C1656 C1657 1.327 . S
C1657 H1651 0.950 . S
C1657 C1656 1.327 . S
C1657 C1661 1.429 . S
C1658 C1641 1.574 . S
C1658 H1652 0.949 . S
C1658 C1662 1.368 . S
C1659 C1640 1.429 . S
C1659 C1653 1.429 . S
C1659 C1660 1.523 . S
C1660 C1641 1.368 . S
C1660 C1654 1.368 . S
C1660 C1659 1.523 . S
C1661 C1645 1.429 . S
C1661 C1657 1.429 . S
C1661 C1662 1.523 . S
C1662 C1646 1.368 . S
C1662 C1658 1.368 . S
C1662 C1661 1.523 . S
H1663 C1638 0.950 . S
H1664 C1640 0.950 . S
H1665 C1641 0.949 . S
H1666 C1643 0.950 . S
H1667 C1645 0.950 . S
C1668 C1669 1.349 . S
C1668 C1670 1.327 . S
C1668 H1693 0.950 . S
C1669 C1668 1.349 . S
C1669 C1685 1.349 . S
C1670 C1668 1.327 . S
C1670 C1689 1.429 . S
C1670 H1694 0.950 . S
C1671 C1688 1.574 . S
C1671 C1690 1.368 . S
C1671 H1695 0.949 . S
H1672 C1676 0.949 . S
C1673 C1674 1.349 . S
C1673 C1675 1.327 . S
C1673 H1696 0.950 . S
C1674 C1673 1.349 . S
C1674 C1686 1.349 . S
C1675 C1673 1.327 . S
C1675 C1691 1.429 . S
C1675 H1697 0.950 . S
C1676 H1672 0.949 . S
C1676 C1684 1.574 . S
C1676 C1692 1.368 . S
H1677 C1685 0.950 . S
H1678 C1683 0.950 . S
H1679 C1684 0.949 . S
H1680 C1686 0.950 . S
H1681 C1687 0.950 . S
H1682 C1688 0.949 . S
C1683 H1678 0.950 . S
C1683 C1685 1.327 . S
C1683 C1689 1.429 . S
C1684 C1676 1.574 . S
C1684 H1679 0.949 . S
C1684 C1690 1.368 . S
C1685 C1669 1.349 . S
C1685 H1677 0.950 . S
C1685 C1683 1.327 . S
C1686 C1674 1.349 . S
C1686 H1680 0.950 . S
C1686 C1687 1.327 . S
C1687 H1681 0.950 . S
C1687 C1686 1.327 . S
C1687 C1691 1.429 . S
C1688 C1671 1.574 . S
C1688 H1682 0.949 . S
C1688 C1692 1.368 . S
C1689 C1670 1.429 . S
C1689 C1683 1.429 . S
C1689 C1690 1.523 . S
C1690 C1671 1.368 . S
C1690 C1684 1.368 . S
C1690 C1689 1.523 . S
C1691 C1675 1.429 . S
C1691 C1687 1.429 . S
C1691 C1692 1.523 . S
C1692 C1676 1.368 . S
C1692 C1688 1.368 . S
C1692 C1691 1.523 . S
H1693 C1668 0.950 . S
H1694 C1670 0.950 . S
H1695 C1671 0.949 . S
H1696 C1673 0.950 . S
H1697 C1675 0.950 . S
C1698 C1699 1.349 . S
C1698 C1700 1.327 . S
C1698 H1723 0.950 . S
C1699 C1698 1.349 . S
C1699 C1715 1.349 . S
C1700 C1698 1.327 . S
C1700 C1719 1.429 . S
C1700 H1724 0.950 . S
C1701 C1718 1.574 . S
C1701 C1720 1.368 . S
C1701 H1725 0.949 . S
H1702 C1706 0.949 . S
C1703 C1704 1.349 . S
C1703 C1705 1.327 . S
C1703 H1726 0.950 . S
C1704 C1703 1.349 . S
C1704 C1716 1.349 . S
C1705 C1703 1.327 . S
C1705 C1721 1.429 . S
C1705 H1727 0.950 . S
C1706 H1702 0.949 . S
C1706 C1714 1.574 . S
C1706 C1722 1.368 . S
H1707 C1715 0.950 . S
H1708 C1713 0.950 . S
H1709 C1714 0.949 . S
H1710 C1716 0.950 . S
H1711 C1717 0.950 . S
H1712 C1718 0.949 . S
C1713 H1708 0.950 . S
C1713 C1715 1.327 . S
C1713 C1719 1.429 . S
C1714 C1706 1.574 . S
C1714 H1709 0.949 . S
C1714 C1720 1.368 . S
C1715 C1699 1.349 . S
C1715 H1707 0.950 . S
C1715 C1713 1.327 . S
C1716 C1704 1.349 . S
C1716 H1710 0.950 . S
C1716 C1717 1.327 . S
C1717 H1711 0.950 . S
C1717 C1716 1.327 . S
C1717 C1721 1.429 . S
C1718 C1701 1.574 . S
C1718 H1712 0.949 . S
C1718 C1722 1.368 . S
C1719 C1700 1.429 . S
C1719 C1713 1.429 . S
C1719 C1720 1.523 . S
C1720 C1701 1.368 . S
C1720 C1714 1.368 . S
C1720 C1719 1.523 . S
C1721 C1705 1.429 . S
C1721 C1717 1.429 . S
C1721 C1722 1.523 . S
C1722 C1706 1.368 . S
C1722 C1718 1.368 . S
C1722 C1721 1.523 . S
H1723 C1698 0.950 . S
H1724 C1700 0.950 . S
H1725 C1701 0.949 . S
H1726 C1703 0.950 . S
H1727 C1705 0.950 . S
C1728 C1729 1.349 . S
C1728 C1730 1.327 . S
C1728 H1753 0.950 . S
C1729 C1728 1.349 . S
C1729 C1745 1.349 . S
C1730 C1728 1.327 . S
C1730 C1749 1.429 . S
C1730 H1754 0.950 . S
C1731 C1748 1.574 . S
C1731 C1750 1.368 . S
C1731 H1755 0.949 . S
H1732 C1736 0.949 . S
C1733 C1734 1.349 . S
C1733 C1735 1.327 . S
C1733 H1756 0.950 . S
C1734 C1733 1.349 . S
C1734 C1746 1.349 . S
C1735 C1733 1.327 . S
C1735 C1751 1.429 . S
C1735 H1757 0.950 . S
C1736 H1732 0.949 . S
C1736 C1744 1.574 . S
C1736 C1752 1.368 . S
H1737 C1745 0.950 . S
H1738 C1743 0.950 . S
H1739 C1744 0.949 . S
H1740 C1746 0.950 . S
H1741 C1747 0.950 . S
H1742 C1748 0.949 . S
C1743 H1738 0.950 . S
C1743 C1745 1.327 . S
C1743 C1749 1.429 . S
C1744 C1736 1.574 . S
C1744 H1739 0.949 . S
C1744 C1750 1.368 . S
C1745 C1729 1.349 . S
C1745 H1737 0.950 . S
C1745 C1743 1.327 . S
C1746 C1734 1.349 . S
C1746 H1740 0.950 . S
C1746 C1747 1.327 . S
C1747 H1741 0.950 . S
C1747 C1746 1.327 . S
C1747 C1751 1.429 . S
C1748 C1731 1.574 . S
C1748 H1742 0.949 . S
C1748 C1752 1.368 . S
C1749 C1730 1.429 . S
C1749 C1743 1.429 . S
C1749 C1750 1.523 . S
C1750 C1731 1.368 . S
C1750 C1744 1.368 . S
C1750 C1749 1.523 . S
C1751 C1735 1.429 . S
C1751 C1747 1.429 . S
C1751 C1752 1.523 . S
C1752 C1736 1.368 . S
C1752 C1748 1.368 . S
C1752 C1751 1.523 . S
H1753 C1728 0.950 . S
H1754 C1730 0.950 . S
H1755 C1731 0.949 . S
H1756 C1733 0.950 . S
H1757 C1735 0.950 . S
C1758 C1759 1.349 . S
C1758 C1760 1.327 . S
C1758 H1783 0.950 . S
C1759 C1758 1.349 . S
C1759 C1775 1.349 . S
C1760 C1758 1.327 . S
C1760 C1779 1.429 . S
C1760 H1784 0.950 . S
C1761 C1778 1.574 . S
C1761 C1780 1.368 . S
C1761 H1785 0.949 . S
H1762 C1766 0.949 . S
C1763 C1764 1.349 . S
C1763 C1765 1.327 . S
C1763 H1786 0.950 . S
C1764 C1763 1.349 . S
C1764 C1776 1.349 . S
C1765 C1763 1.327 . S
C1765 C1781 1.429 . S
C1765 H1787 0.950 . S
C1766 H1762 0.949 . S
C1766 C1774 1.574 . S
C1766 C1782 1.368 . S
H1767 C1775 0.950 . S
H1768 C1773 0.950 . S
H1769 C1774 0.949 . S
H1770 C1776 0.950 . S
H1771 C1777 0.950 . S
H1772 C1778 0.949 . S
C1773 H1768 0.950 . S
C1773 C1775 1.327 . S
C1773 C1779 1.429 . S
C1774 C1766 1.574 . S
C1774 H1769 0.949 . S
C1774 C1780 1.368 . S
C1775 C1759 1.349 . S
C1775 H1767 0.950 . S
C1775 C1773 1.327 . S
C1776 C1764 1.349 . S
C1776 H1770 0.950 . S
C1776 C1777 1.327 . S
C1777 H1771 0.950 . S
C1777 C1776 1.327 . S
C1777 C1781 1.429 . S
C1778 C1761 1.574 . S
C1778 H1772 0.949 . S
C1778 C1782 1.368 . S
C1779 C1760 1.429 . S
C1779 C1773 1.429 . S
C1779 C1780 1.523 . S
C1780 C1761 1.368 . S
C1780 C1774 1.368 . S
C1780 C1779 1.523 . S
C1781 C1765 1.429 . S
C1781 C1777 1.429 . S
C1781 C1782 1.523 . S
C1782 C1766 1.368 . S
C1782 C1778 1.368 . S
C1782 C1781 1.523 . S
H1783 C1758 0.950 . S
H1784 C1760 0.950 . S
H1785 C1761 0.949 . S
H1786 C1763 0.950 . S
H1787 C1765 0.950 . S
C1788 C1789 1.349 . S
C1788 C1790 1.327 . S
C1788 H1813 0.950 . S
C1789 C1788 1.349 . S
C1789 C1805 1.349 . S
C1790 C1788 1.327 . S
C1790 C1809 1.429 . S
C1790 H1814 0.950 . S
C1791 C1808 1.574 . S
C1791 C1810 1.368 . S
C1791 H1815 0.949 . S
H1792 C1796 0.949 . S
C1793 C1794 1.349 . S
C1793 C1795 1.327 . S
C1793 H1816 0.950 . S
C1794 C1793 1.349 . S
C1794 C1806 1.349 . S
C1795 C1793 1.327 . S
C1795 C1811 1.429 . S
C1795 H1817 0.950 . S
C1796 H1792 0.949 . S
C1796 C1804 1.574 . S
C1796 C1812 1.368 . S
H1797 C1805 0.950 . S
H1798 C1803 0.950 . S
H1799 C1804 0.949 . S
H1800 C1806 0.950 . S
H1801 C1807 0.950 . S
H1802 C1808 0.949 . S
C1803 H1798 0.950 . S
C1803 C1805 1.327 . S
C1803 C1809 1.429 . S
C1804 C1796 1.574 . S
C1804 H1799 0.949 . S
C1804 C1810 1.368 . S
C1805 C1789 1.349 . S
C1805 H1797 0.950 . S
C1805 C1803 1.327 . S
C1806 C1794 1.349 . S
C1806 H1800 0.950 . S
C1806 C1807 1.327 . S
C1807 H1801 0.950 . S
C1807 C1806 1.327 . S
C1807 C1811 1.429 . S
C1808 C1791 1.574 . S
C1808 H1802 0.949 . S
C1808 C1812 1.368 . S
C1809 C1790 1.429 . S
C1809 C1803 1.429 . S
C1809 C1810 1.523 . S
C1810 C1791 1.368 . S
C1810 C1804 1.368 . S
C1810 C1809 1.523 . S
C1811 C1795 1.429 . S
C1811 C1807 1.429 . S
C1811 C1812 1.523 . S
C1812 C1796 1.368 . S
C1812 C1808 1.368 . S
C1812 C1811 1.523 . S
H1813 C1788 0.950 . S
H1814 C1790 0.950 . S
H1815 C1791 0.949 . S
H1816 C1793 0.950 . S
H1817 C1795 0.950 . S
C1818 C1819 1.349 . S
C1818 C1820 1.327 . S
C1818 H1843 0.950 . S
C1819 C1818 1.349 . S
C1819 C1835 1.349 . S
C1820 C1818 1.327 . S
C1820 C1839 1.429 . S
C1820 H1844 0.950 . S
C1821 C1838 1.574 . S
C1821 C1840 1.368 . S
C1821 H1845 0.949 . S
H1822 C1826 0.949 . S
C1823 C1824 1.349 . S
C1823 C1825 1.327 . S
C1823 H1846 0.950 . S
C1824 C1823 1.349 . S
C1824 C1836 1.349 . S
C1825 C1823 1.327 . S
C1825 C1841 1.429 . S
C1825 H1847 0.950 . S
C1826 H1822 0.949 . S
C1826 C1834 1.574 . S
C1826 C1842 1.368 . S
H1827 C1835 0.950 . S
H1828 C1833 0.950 . S
H1829 C1834 0.949 . S
H1830 C1836 0.950 . S
H1831 C1837 0.950 . S
H1832 C1838 0.949 . S
C1833 H1828 0.950 . S
C1833 C1835 1.327 . S
C1833 C1839 1.429 . S
C1834 C1826 1.574 . S
C1834 H1829 0.949 . S
C1834 C1840 1.368 . S
C1835 C1819 1.349 . S
C1835 H1827 0.950 . S
C1835 C1833 1.327 . S
C1836 C1824 1.349 . S
C1836 H1830 0.950 . S
C1836 C1837 1.327 . S
C1837 H1831 0.950 . S
C1837 C1836 1.327 . S
C1837 C1841 1.429 . S
C1838 C1821 1.574 . S
C1838 H1832 0.949 . S
C1838 C1842 1.368 . S
C1839 C1820 1.429 . S
C1839 C1833 1.429 . S
C1839 C1840 1.523 . S
C1840 C1821 1.368 . S
C1840 C1834 1.368 . S
C1840 C1839 1.523 . S
C1841 C1825 1.429 . S
C1841 C1837 1.429 . S
C1841 C1842 1.523 . S
C1842 C1826 1.368 . S
C1842 C1838 1.368 . S
C1842 C1841 1.523 . S
H1843 C1818 0.950 . S
H1844 C1820 0.950 . S
H1845 C1821 0.949 . S
H1846 C1823 0.950 . S
H1847 C1825 0.950 . S
C1848 C1849 1.349 . S
C1848 C1850 1.327 . S
C1848 H1873 0.950 . S
C1849 C1848 1.349 . S
C1849 C1865 1.349 . S
C1850 C1848 1.327 . S
C1850 C1869 1.429 . S
C1850 H1874 0.950 . S
C1851 C1868 1.574 . S
C1851 C1870 1.368 . S
C1851 H1875 0.949 . S
H1852 C1856 0.949 . S
C1853 C1854 1.349 . S
C1853 C1855 1.327 . S
C1853 H1876 0.950 . S
C1854 C1853 1.349 . S
C1854 C1866 1.349 . S
C1855 C1853 1.327 . S
C1855 C1871 1.429 . S
C1855 H1877 0.950 . S
C1856 H1852 0.949 . S
C1856 C1864 1.574 . S
C1856 C1872 1.368 . S
H1857 C1865 0.950 . S
H1858 C1863 0.950 . S
H1859 C1864 0.949 . S
H1860 C1866 0.950 . S
H1861 C1867 0.950 . S
H1862 C1868 0.949 . S
C1863 H1858 0.950 . S
C1863 C1865 1.327 . S
C1863 C1869 1.429 . S
C1864 C1856 1.574 . S
C1864 H1859 0.949 . S
C1864 C1870 1.368 . S
C1865 C1849 1.349 . S
C1865 H1857 0.950 . S
C1865 C1863 1.327 . S
C1866 C1854 1.349 . S
C1866 H1860 0.950 . S
C1866 C1867 1.327 . S
C1867 H1861 0.950 . S
C1867 C1866 1.327 . S
C1867 C1871 1.429 . S
C1868 C1851 1.574 . S
C1868 H1862 0.949 . S
C1868 C1872 1.368 . S
C1869 C1850 1.429 . S
C1869 C1863 1.429 . S
C1869 C1870 1.523 . S
C1870 C1851 1.368 . S
C1870 C1864 1.368 . S
C1870 C1869 1.523 . S
C1871 C1855 1.429 . S
C1871 C1867 1.429 . S
C1871 C1872 1.523 . S
C1872 C1856 1.368 . S
C1872 C1868 1.368 . S
C1872 C1871 1.523 . S
H1873 C1848 0.950 . S
H1874 C1850 0.950 . S
H1875 C1851 0.949 . S
H1876 C1853 0.950 . S
H1877 C1855 0.950 . S
C1878 C1879 1.349 . S
C1878 C1880 1.327 . S
C1878 H1903 0.950 . S
C1879 C1878 1.349 . S
C1879 C1895 1.349 . S
C1880 C1878 1.327 . S
C1880 C1899 1.429 . S
C1880 H1904 0.950 . S
C1881 C1898 1.574 . S
C1881 C1900 1.368 . S
C1881 H1905 0.949 . S
H1882 C1886 0.949 . S
C1883 C1884 1.349 . S
C1883 C1885 1.327 . S
C1883 H1906 0.950 . S
C1884 C1883 1.349 . S
C1884 C1896 1.349 . S
C1885 C1883 1.327 . S
C1885 C1901 1.429 . S
C1885 H1907 0.950 . S
C1886 H1882 0.949 . S
C1886 C1894 1.574 . S
C1886 C1902 1.368 . S
H1887 C1895 0.950 . S
H1888 C1893 0.950 . S
H1889 C1894 0.949 . S
H1890 C1896 0.950 . S
H1891 C1897 0.950 . S
H1892 C1898 0.949 . S
C1893 H1888 0.950 . S
C1893 C1895 1.327 . S
C1893 C1899 1.429 . S
C1894 C1886 1.574 . S
C1894 H1889 0.949 . S
C1894 C1900 1.368 . S
C1895 C1879 1.349 . S
C1895 H1887 0.950 . S
C1895 C1893 1.327 . S
C1896 C1884 1.349 . S
C1896 H1890 0.950 . S
C1896 C1897 1.327 . S
C1897 H1891 0.950 . S
C1897 C1896 1.327 . S
C1897 C1901 1.429 . S
C1898 C1881 1.574 . S
C1898 H1892 0.949 . S
C1898 C1902 1.368 . S
C1899 C1880 1.429 . S
C1899 C1893 1.429 . S
C1899 C1900 1.523 . S
C1900 C1881 1.368 . S
C1900 C1894 1.368 . S
C1900 C1899 1.523 . S
C1901 C1885 1.429 . S
C1901 C1897 1.429 . S
C1901 C1902 1.523 . S
C1902 C1886 1.368 . S
C1902 C1898 1.368 . S
C1902 C1901 1.523 . S
H1903 C1878 0.950 . S
H1904 C1880 0.950 . S
H1905 C1881 0.949 . S
H1906 C1883 0.950 . S
H1907 C1885 0.950 . S
C1908 C1909 1.349 . S
C1908 C1910 1.327 . S
C1908 H1933 0.950 . S
C1909 C1908 1.349 . S
C1909 C1925 1.349 . S
C1910 C1908 1.327 . S
C1910 C1929 1.429 . S
C1910 H1934 0.950 . S
C1911 C1928 1.574 . S
C1911 C1930 1.368 . S
C1911 H1935 0.949 . S
H1912 C1916 0.949 . S
C1913 C1914 1.349 . S
C1913 C1915 1.327 . S
C1913 H1936 0.950 . S
C1914 C1913 1.349 . S
C1914 C1926 1.349 . S
C1915 C1913 1.327 . S
C1915 C1931 1.429 . S
C1915 H1937 0.950 . S
C1916 H1912 0.949 . S
C1916 C1924 1.574 . S
C1916 C1932 1.368 . S
H1917 C1925 0.950 . S
H1918 C1923 0.950 . S
H1919 C1924 0.949 . S
H1920 C1926 0.950 . S
H1921 C1927 0.950 . S
H1922 C1928 0.949 . S
C1923 H1918 0.950 . S
C1923 C1925 1.327 . S
C1923 C1929 1.429 . S
C1924 C1916 1.574 . S
C1924 H1919 0.949 . S
C1924 C1930 1.368 . S
C1925 C1909 1.349 . S
C1925 H1917 0.950 . S
C1925 C1923 1.327 . S
C1926 C1914 1.349 . S
C1926 H1920 0.950 . S
C1926 C1927 1.327 . S
C1927 H1921 0.950 . S
C1927 C1926 1.327 . S
C1927 C1931 1.429 . S
C1928 C1911 1.574 . S
C1928 H1922 0.949 . S
C1928 C1932 1.368 . S
C1929 C1910 1.429 . S
C1929 C1923 1.429 . S
C1929 C1930 1.523 . S
C1930 C1911 1.368 . S
C1930 C1924 1.368 . S
C1930 C1929 1.523 . S
C1931 C1915 1.429 . S
C1931 C1927 1.429 . S
C1931 C1932 1.523 . S
C1932 C1916 1.368 . S
C1932 C1928 1.368 . S
C1932 C1931 1.523 . S
H1933 C1908 0.950 . S
H1934 C1910 0.950 . S
H1935 C1911 0.949 . S
H1936 C1913 0.950 . S
H1937 C1915 0.950 . S
C1938 C1939 1.349 . S
C1938 C1940 1.327 . S
C1938 H1963 0.950 . S
C1939 C1938 1.349 . S
C1939 C1955 1.349 . S
C1940 C1938 1.327 . S
C1940 C1959 1.429 . S
C1940 H1964 0.950 . S
C1941 C1958 1.574 . S
C1941 C1960 1.368 . S
C1941 H1965 0.949 . S
H1942 C1946 0.949 . S
C1943 C1944 1.349 . S
C1943 C1945 1.327 . S
C1943 H1966 0.950 . S
C1944 C1943 1.349 . S
C1944 C1956 1.349 . S
C1945 C1943 1.327 . S
C1945 C1961 1.429 . S
C1945 H1967 0.950 . S
C1946 H1942 0.949 . S
C1946 C1954 1.574 . S
C1946 C1962 1.368 . S
H1947 C1955 0.950 . S
H1948 C1953 0.950 . S
H1949 C1954 0.949 . S
H1950 C1956 0.950 . S
H1951 C1957 0.950 . S
H1952 C1958 0.949 . S
C1953 H1948 0.950 . S
C1953 C1955 1.327 . S
C1953 C1959 1.429 . S
C1954 C1946 1.574 . S
C1954 H1949 0.949 . S
C1954 C1960 1.368 . S
C1955 C1939 1.349 . S
C1955 H1947 0.950 . S
C1955 C1953 1.327 . S
C1956 C1944 1.349 . S
C1956 H1950 0.950 . S
C1956 C1957 1.327 . S
C1957 H1951 0.950 . S
C1957 C1956 1.327 . S
C1957 C1961 1.429 . S
C1958 C1941 1.574 . S
C1958 H1952 0.949 . S
C1958 C1962 1.368 . S
C1959 C1940 1.429 . S
C1959 C1953 1.429 . S
C1959 C1960 1.523 . S
C1960 C1941 1.368 . S
C1960 C1954 1.368 . S
C1960 C1959 1.523 . S
C1961 C1945 1.429 . S
C1961 C1957 1.429 . S
C1961 C1962 1.523 . S
C1962 C1946 1.368 . S
C1962 C1958 1.368 . S
C1962 C1961 1.523 . S
H1963 C1938 0.950 . S
H1964 C1940 0.950 . S
H1965 C1941 0.949 . S
H1966 C1943 0.950 . S
H1967 C1945 0.950 . S
C1968 C1969 1.349 . S
C1968 C1970 1.327 . S
C1968 H1993 0.950 . S
C1969 C1968 1.349 . S
C1969 C1985 1.349 . S
C1970 C1968 1.327 . S
C1970 C1989 1.429 . S
C1970 H1994 0.950 . S
C1971 C1988 1.574 . S
C1971 C1990 1.368 . S
C1971 H1995 0.949 . S
H1972 C1976 0.949 . S
C1973 C1974 1.349 . S
C1973 C1975 1.327 . S
C1973 H1996 0.950 . S
C1974 C1973 1.349 . S
C1974 C1986 1.349 . S
C1975 C1973 1.327 . S
C1975 C1991 1.429 . S
C1975 H1997 0.950 . S
C1976 H1972 0.949 . S
C1976 C1984 1.574 . S
C1976 C1992 1.368 . S
H1977 C1985 0.950 . S
H1978 C1983 0.950 . S
H1979 C1984 0.949 . S
H1980 C1986 0.950 . S
H1981 C1987 0.950 . S
H1982 C1988 0.949 . S
C1983 H1978 0.950 . S
C1983 C1985 1.327 . S
C1983 C1989 1.429 . S
C1984 C1976 1.574 . S
C1984 H1979 0.949 . S
C1984 C1990 1.368 . S
C1985 C1969 1.349 . S
C1985 H1977 0.950 . S
C1985 C1983 1.327 . S
C1986 C1974 1.349 . S
C1986 H1980 0.950 . S
C1986 C1987 1.327 . S
C1987 H1981 0.950 . S
C1987 C1986 1.327 . S
C1987 C1991 1.429 . S
C1988 C1971 1.574 . S
C1988 H1982 0.949 . S
C1988 C1992 1.368 . S
C1989 C1970 1.429 . S
C1989 C1983 1.429 . S
C1989 C1990 1.523 . S
C1990 C1971 1.368 . S
C1990 C1984 1.368 . S
C1990 C1989 1.523 . S
C1991 C1975 1.429 . S
C1991 C1987 1.429 . S
C1991 C1992 1.523 . S
C1992 C1976 1.368 . S
C1992 C1988 1.368 . S
C1992 C1991 1.523 . S
H1993 C1968 0.950 . S
H1994 C1970 0.950 . S
H1995 C1971 0.949 . S
H1996 C1973 0.950 . S
H1997 C1975 0.950 . S
C1998 C1999 1.349 . S
C1998 C2000 1.327 . S
C1998 H2023 0.950 . S
C1999 C1998 1.349 . S
C1999 C2015 1.349 . S
C2000 C1998 1.327 . S
C2000 C2019 1.429 . S
C2000 H2024 0.950 . S
C2001 C2018 1.574 . S
C2001 C2020 1.368 . S
C2001 H2025 0.949 . S
H2002 C2006 0.949 . S
C2003 C2004 1.349 . S
C2003 C2005 1.327 . S
C2003 H2026 0.950 . S
C2004 C2003 1.349 . S
C2004 C2016 1.349 . S
C2005 C2003 1.327 . S
C2005 C2021 1.429 . S
C2005 H2027 0.950 . S
C2006 H2002 0.949 . S
C2006 C2014 1.574 . S
C2006 C2022 1.368 . S
H2007 C2015 0.950 . S
H2008 C2013 0.950 . S
H2009 C2014 0.949 . S
H2010 C2016 0.950 . S
H2011 C2017 0.950 . S
H2012 C2018 0.949 . S
C2013 H2008 0.950 . S
C2013 C2015 1.327 . S
C2013 C2019 1.429 . S
C2014 C2006 1.574 . S
C2014 H2009 0.949 . S
C2014 C2020 1.368 . S
C2015 C1999 1.349 . S
C2015 H2007 0.950 . S
C2015 C2013 1.327 . S
C2016 C2004 1.349 . S
C2016 H2010 0.950 . S
C2016 C2017 1.327 . S
C2017 H2011 0.950 . S
C2017 C2016 1.327 . S
C2017 C2021 1.429 . S
C2018 C2001 1.574 . S
C2018 H2012 0.949 . S
C2018 C2022 1.368 . S
C2019 C2000 1.429 . S
C2019 C2013 1.429 . S
C2019 C2020 1.523 . S
C2020 C2001 1.368 . S
C2020 C2014 1.368 . S
C2020 C2019 1.523 . S
C2021 C2005 1.429 . S
C2021 C2017 1.429 . S
C2021 C2022 1.523 . S
C2022 C2006 1.368 . S
C2022 C2018 1.368 . S
C2022 C2021 1.523 . S
H2023 C1998 0.950 . S
H2024 C2000 0.950 . S
H2025 C2001 0.949 . S
H2026 C2003 0.950 . S
H2027 C2005 0.950 . S
C2028 C2029 1.349 . S
C2028 C2030 1.327 . S
C2028 H2053 0.950 . S
C2029 C2028 1.349 . S
C2029 C2045 1.349 . S
C2030 C2028 1.327 . S
C2030 C2049 1.429 . S
C2030 H2054 0.950 . S
C2031 C2048 1.574 . S
C2031 C2050 1.368 . S
C2031 H2055 0.949 . S
H2032 C2036 0.949 . S
C2033 C2034 1.349 . S
C2033 C2035 1.327 . S
C2033 H2056 0.950 . S
C2034 C2033 1.349 . S
C2034 C2046 1.349 . S
C2035 C2033 1.327 . S
C2035 C2051 1.429 . S
C2035 H2057 0.950 . S
C2036 H2032 0.949 . S
C2036 C2044 1.574 . S
C2036 C2052 1.368 . S
H2037 C2045 0.950 . S
H2038 C2043 0.950 . S
H2039 C2044 0.949 . S
H2040 C2046 0.950 . S
H2041 C2047 0.950 . S
H2042 C2048 0.949 . S
C2043 H2038 0.950 . S
C2043 C2045 1.327 . S
C2043 C2049 1.429 . S
C2044 C2036 1.574 . S
C2044 H2039 0.949 . S
C2044 C2050 1.368 . S
C2045 C2029 1.349 . S
C2045 H2037 0.950 . S
C2045 C2043 1.327 . S
C2046 C2034 1.349 . S
C2046 H2040 0.950 . S
C2046 C2047 1.327 . S
C2047 H2041 0.950 . S
C2047 C2046 1.327 . S
C2047 C2051 1.429 . S
C2048 C2031 1.574 . S
C2048 H2042 0.949 . S
C2048 C2052 1.368 . S
C2049 C2030 1.429 . S
C2049 C2043 1.429 . S
C2049 C2050 1.523 . S
C2050 C2031 1.368 . S
C2050 C2044 1.368 . S
C2050 C2049 1.523 . S
C2051 C2035 1.429 . S
C2051 C2047 1.429 . S
C2051 C2052 1.523 . S
C2052 C2036 1.368 . S
C2052 C2048 1.368 . S
C2052 C2051 1.523 . S
H2053 C2028 0.950 . S
H2054 C2030 0.950 . S
H2055 C2031 0.949 . S
H2056 C2033 0.950 . S
H2057 C2035 0.950 . S
C2058 C2059 1.349 . S
C2058 C2060 1.327 . S
C2058 H2083 0.950 . S
C2059 C2058 1.349 . S
C2059 C2075 1.349 . S
C2060 C2058 1.327 . S
C2060 C2079 1.429 . S
C2060 H2084 0.950 . S
C2061 C2078 1.574 . S
C2061 C2080 1.368 . S
C2061 H2085 0.949 . S
H2062 C2066 0.949 . S
C2063 C2064 1.349 . S
C2063 C2065 1.327 . S
C2063 H2086 0.950 . S
C2064 C2063 1.349 . S
C2064 C2076 1.349 . S
C2065 C2063 1.327 . S
C2065 C2081 1.429 . S
C2065 H2087 0.950 . S
C2066 H2062 0.949 . S
C2066 C2074 1.574 . S
C2066 C2082 1.368 . S
H2067 C2075 0.950 . S
H2068 C2073 0.950 . S
H2069 C2074 0.949 . S
H2070 C2076 0.950 . S
H2071 C2077 0.950 . S
H2072 C2078 0.949 . S
C2073 H2068 0.950 . S
C2073 C2075 1.327 . S
C2073 C2079 1.429 . S
C2074 C2066 1.574 . S
C2074 H2069 0.949 . S
C2074 C2080 1.368 . S
C2075 C2059 1.349 . S
C2075 H2067 0.950 . S
C2075 C2073 1.327 . S
C2076 C2064 1.349 . S
C2076 H2070 0.950 . S
C2076 C2077 1.327 . S
C2077 H2071 0.950 . S
C2077 C2076 1.327 . S
C2077 C2081 1.429 . S
C2078 C2061 1.574 . S
C2078 H2072 0.949 . S
C2078 C2082 1.368 . S
C2079 C2060 1.429 . S
C2079 C2073 1.429 . S
C2079 C2080 1.523 . S
C2080 C2061 1.368 . S
C2080 C2074 1.368 . S
C2080 C2079 1.523 . S
C2081 C2065 1.429 . S
C2081 C2077 1.429 . S
C2081 C2082 1.523 . S
C2082 C2066 1.368 . S
C2082 C2078 1.368 . S
C2082 C2081 1.523 . S
H2083 C2058 0.950 . S
H2084 C2060 0.950 . S
H2085 C2061 0.949 . S
H2086 C2063 0.950 . S
H2087 C2065 0.950 . S
C2088 C2089 1.349 . S
C2088 C2090 1.327 . S
C2088 H2113 0.950 . S
C2089 C2088 1.349 . S
C2089 C2105 1.349 . S
C2090 C2088 1.327 . S
C2090 C2109 1.429 . S
C2090 H2114 0.950 . S
C2091 C2108 1.574 . S
C2091 C2110 1.368 . S
C2091 H2115 0.949 . S
H2092 C2096 0.949 . S
C2093 C2094 1.349 . S
C2093 C2095 1.327 . S
C2093 H2116 0.950 . S
C2094 C2093 1.349 . S
C2094 C2106 1.349 . S
C2095 C2093 1.327 . S
C2095 C2111 1.429 . S
C2095 H2117 0.950 . S
C2096 H2092 0.949 . S
C2096 C2104 1.574 . S
C2096 C2112 1.368 . S
H2097 C2105 0.950 . S
H2098 C2103 0.950 . S
H2099 C2104 0.949 . S
H2100 C2106 0.950 . S
H2101 C2107 0.950 . S
H2102 C2108 0.949 . S
C2103 H2098 0.950 . S
C2103 C2105 1.327 . S
C2103 C2109 1.429 . S
C2104 C2096 1.574 . S
C2104 H2099 0.949 . S
C2104 C2110 1.368 . S
C2105 C2089 1.349 . S
C2105 H2097 0.950 . S
C2105 C2103 1.327 . S
C2106 C2094 1.349 . S
C2106 H2100 0.950 . S
C2106 C2107 1.327 . S
C2107 H2101 0.950 . S
C2107 C2106 1.327 . S
C2107 C2111 1.429 . S
C2108 C2091 1.574 . S
C2108 H2102 0.949 . S
C2108 C2112 1.368 . S
C2109 C2090 1.429 . S
C2109 C2103 1.429 . S
C2109 C2110 1.523 . S
C2110 C2091 1.368 . S
C2110 C2104 1.368 . S
C2110 C2109 1.523 . S
C2111 C2095 1.429 . S
C2111 C2107 1.429 . S
C2111 C2112 1.523 . S
C2112 C2096 1.368 . S
C2112 C2108 1.368 . S
C2112 C2111 1.523 . S
H2113 C2088 0.950 . S
H2114 C2090 0.950 . S
H2115 C2091 0.949 . S
H2116 C2093 0.950 . S
H2117 C2095 0.950 . S
C2118 C2119 1.349 1_565 S
C2118 C2120 1.327 . S
C2118 H2143 0.950 . S
C2119 C2118 1.349 1_545 S
C2119 C2135 1.349 . S
C2120 C2118 1.327 . S
C2120 C2139 1.429 1_565 S
C2120 H2144 0.950 . S
C2121 C2138 1.574 . S
C2121 C2140 1.368 . S
C2121 H2145 0.949 . S
H2122 C2126 0.949 . S
C2123 C2124 1.349 1_545 S
C2123 C2125 1.327 . S
C2123 H2146 0.950 . S
C2124 C2123 1.349 1_565 S
C2124 C2136 1.349 . S
C2125 C2123 1.327 . S
C2125 C2141 1.429 1_545 S
C2125 H2147 0.950 . S
C2126 H2122 0.949 . S
C2126 C2134 1.574 . S
C2126 C2142 1.368 . S
H2127 C2135 0.950 . S
H2128 C2133 0.950 . S
H2129 C2134 0.949 . S
H2130 C2136 0.950 . S
H2131 C2137 0.950 . S
H2132 C2138 0.949 . S
C2133 H2128 0.950 . S
C2133 C2135 1.327 . S
C2133 C2139 1.429 . S
C2134 C2126 1.574 . S
C2134 H2129 0.949 . S
C2134 C2140 1.368 1_565 S
C2135 C2119 1.349 . S
C2135 H2127 0.950 . S
C2135 C2133 1.327 . S
C2136 C2124 1.349 . S
C2136 H2130 0.950 . S
C2136 C2137 1.327 . S
C2137 H2131 0.950 . S
C2137 C2136 1.327 . S
C2137 C2141 1.429 . S
C2138 C2121 1.574 . S
C2138 H2132 0.949 . S
C2138 C2142 1.368 1_545 S
C2139 C2120 1.429 1_545 S
C2139 C2133 1.429 . S
C2139 C2140 1.523 . S
C2140 C2121 1.368 . S
C2140 C2134 1.368 1_545 S
C2140 C2139 1.523 . S
C2141 C2125 1.429 1_565 S
C2141 C2137 1.429 . S
C2141 C2142 1.523 . S
C2142 C2126 1.368 . S
C2142 C2138 1.368 1_565 S
C2142 C2141 1.523 . S
H2143 C2118 0.950 . S
H2144 C2120 0.950 . S
H2145 C2121 0.949 . S
H2146 C2123 0.950 . S
H2147 C2125 0.950 . S
C2148 C2149 1.349 . S
C2148 C2150 1.327 . S
C2148 H2173 0.950 . S
C2149 C2148 1.349 . S
C2149 C2165 1.349 1_455 S
C2150 C2148 1.327 . S
C2150 C2169 1.429 . S
C2150 H2174 0.950 . S
C2151 C2168 1.574 . S
C2151 C2170 1.368 1_655 S
C2151 H2175 0.949 . S
H2152 C2156 0.949 . S
C2153 C2154 1.349 . S
C2153 C2155 1.327 . S
C2153 H2176 0.950 . S
C2154 C2153 1.349 . S
C2154 C2166 1.349 1_655 S
C2155 C2153 1.327 . S
C2155 C2171 1.429 . S
C2155 H2177 0.950 . S
C2156 H2152 0.949 . S
C2156 C2164 1.574 . S
C2156 C2172 1.368 1_455 S
H2157 C2165 0.950 . S
H2158 C2163 0.950 . S
H2159 C2164 0.949 . S
H2160 C2166 0.950 . S
H2161 C2167 0.950 . S
H2162 C2168 0.949 . S
C2163 H2158 0.950 . S
C2163 C2165 1.327 . S
C2163 C2169 1.429 1_655 S
C2164 C2156 1.574 . S
C2164 H2159 0.949 . S
C2164 C2170 1.368 . S
C2165 C2149 1.349 1_655 S
C2165 H2157 0.950 . S
C2165 C2163 1.327 . S
C2166 C2154 1.349 1_455 S
C2166 H2160 0.950 . S
C2166 C2167 1.327 . S
C2167 H2161 0.950 . S
C2167 C2166 1.327 . S
C2167 C2171 1.429 1_455 S
C2168 C2151 1.574 . S
C2168 H2162 0.949 . S
C2168 C2172 1.368 . S
C2169 C2150 1.429 . S
C2169 C2163 1.429 1_455 S
C2169 C2170 1.523 . S
C2170 C2151 1.368 1_455 S
C2170 C2164 1.368 . S
C2170 C2169 1.523 . S
C2171 C2155 1.429 . S
C2171 C2167 1.429 1_655 S
C2171 C2172 1.523 . S
C2172 C2156 1.368 1_655 S
C2172 C2168 1.368 . S
C2172 C2171 1.523 . S
H2173 C2148 0.950 . S
H2174 C2150 0.950 . S
H2175 C2151 0.949 . S
H2176 C2153 0.950 . S
H2177 C2155 0.950 . S
C2178 C2179 1.349 . S
C2178 C2180 1.327 . S
C2178 H2203 0.950 . S
C2179 C2178 1.349 . S
C2179 C2195 1.349 . S
C2180 C2178 1.327 . S
C2180 C2199 1.429 . S
C2180 H2204 0.950 . S
C2181 C2198 1.574 . S
C2181 C2200 1.368 . S
C2181 H2205 0.949 . S
H2182 C2186 0.949 . S
C2183 C2184 1.349 . S
C2183 C2185 1.327 . S
C2183 H2206 0.950 . S
C2184 C2183 1.349 . S
C2184 C2196 1.349 . S
C2185 C2183 1.327 . S
C2185 C2201 1.429 . S
C2185 H2207 0.950 . S
C2186 H2182 0.949 . S
C2186 C2194 1.574 . S
C2186 C2202 1.368 . S
H2187 C2195 0.950 . S
H2188 C2193 0.950 . S
H2189 C2194 0.949 . S
H2190 C2196 0.950 . S
H2191 C2197 0.950 . S
H2192 C2198 0.949 . S
C2193 H2188 0.950 . S
C2193 C2195 1.327 . S
C2193 C2199 1.429 . S
C2194 C2186 1.574 . S
C2194 H2189 0.949 . S
C2194 C2200 1.368 . S
C2195 C2179 1.349 . S
C2195 H2187 0.950 . S
C2195 C2193 1.327 . S
C2196 C2184 1.349 . S
C2196 H2190 0.950 . S
C2196 C2197 1.327 . S
C2197 H2191 0.950 . S
C2197 C2196 1.327 . S
C2197 C2201 1.429 . S
C2198 C2181 1.574 . S
C2198 H2192 0.949 . S
C2198 C2202 1.368 . S
C2199 C2180 1.429 . S
C2199 C2193 1.429 . S
C2199 C2200 1.523 . S
C2200 C2181 1.368 . S
C2200 C2194 1.368 . S
C2200 C2199 1.523 . S
C2201 C2185 1.429 . S
C2201 C2197 1.429 . S
C2201 C2202 1.523 . S
C2202 C2186 1.368 . S
C2202 C2198 1.368 . S
C2202 C2201 1.523 . S
H2203 C2178 0.950 . S
H2204 C2180 0.950 . S
H2205 C2181 0.949 . S
H2206 C2183 0.950 . S
H2207 C2185 0.950 . S
C2208 C2209 1.349 . S
C2208 C2210 1.327 . S
C2208 H2233 0.950 . S
C2209 C2208 1.349 . S
C2209 C2225 1.349 . S
C2210 C2208 1.327 . S
C2210 C2229 1.429 . S
C2210 H2234 0.950 1_545 S
C2211 C2228 1.574 . S
C2211 C2230 1.368 . S
C2211 H2235 0.949 . S
H2212 C2216 0.949 . S
C2213 C2214 1.349 . S
C2213 C2215 1.327 . S
C2213 H2236 0.950 . S
C2214 C2213 1.349 . S
C2214 C2226 1.349 . S
C2215 C2213 1.327 . S
C2215 C2231 1.429 . S
C2215 H2237 0.950 1_565 S
C2216 H2212 0.949 . S
C2216 C2224 1.574 . S
C2216 C2232 1.368 . S
H2217 C2225 0.950 . S
H2218 C2223 0.950 . S
H2219 C2224 0.949 . S
H2220 C2226 0.950 . S
H2221 C2227 0.950 . S
H2222 C2228 0.949 . S
C2223 H2218 0.950 . S
C2223 C2225 1.327 . S
C2223 C2229 1.429 . S
C2224 C2216 1.574 . S
C2224 H2219 0.949 . S
C2224 C2230 1.368 1_565 S
C2225 C2209 1.349 . S
C2225 H2217 0.950 . S
C2225 C2223 1.327 . S
C2226 C2214 1.349 . S
C2226 H2220 0.950 . S
C2226 C2227 1.327 . S
C2227 H2221 0.950 . S
C2227 C2226 1.327 . S
C2227 C2231 1.429 . S
C2228 C2211 1.574 . S
C2228 H2222 0.949 . S
C2228 C2232 1.368 1_545 S
C2229 C2210 1.429 . S
C2229 C2223 1.429 . S
C2229 C2230 1.523 . S
C2230 C2211 1.368 . S
C2230 C2224 1.368 1_545 S
C2230 C2229 1.523 . S
C2231 C2215 1.429 . S
C2231 C2227 1.429 . S
C2231 C2232 1.523 . S
C2232 C2216 1.368 . S
C2232 C2228 1.368 1_565 S
C2232 C2231 1.523 . S
H2233 C2208 0.950 . S
H2234 C2210 0.950 1_565 S
H2235 C2211 0.949 . S
H2236 C2213 0.950 . S
H2237 C2215 0.950 1_545 S
C2238 C2239 1.349 . S
C2238 C2240 1.327 . S
C2238 H2263 0.950 . S
C2239 C2238 1.349 . S
C2239 C2255 1.349 . S
C2240 C2238 1.327 . S
C2240 C2259 1.429 . S
C2240 H2264 0.950 . S
C2241 C2258 1.573 1_655 S
C2241 C2260 1.372 . S
C2241 H2265 0.955 . S
H2242 C2246 0.955 . S
C2243 C2244 1.349 . S
C2243 C2245 1.327 . S
C2243 H2266 0.950 . S
C2244 C2243 1.349 . S
C2244 C2256 1.349 . S
C2245 C2243 1.327 . S
C2245 C2261 1.429 . S
C2245 H2267 0.950 . S
C2246 H2242 0.955 . S
C2246 C2254 1.573 1_455 S
C2246 C2262 1.373 . S
H2247 C2255 0.950 . S
H2248 C2253 0.950 . S
H2249 C2254 0.949 . S
H2250 C2256 0.950 . S
H2251 C2257 0.950 . S
H2252 C2258 0.949 . S
C2253 H2248 0.950 . S
C2253 C2255 1.327 . S
C2253 C2259 1.429 . S
C2254 C2246 1.573 1_655 S
C2254 H2249 0.949 . S
C2254 C2260 1.368 . S
C2255 C2239 1.349 . S
C2255 H2247 0.950 . S
C2255 C2253 1.327 . S
C2256 C2244 1.349 . S
C2256 H2250 0.950 . S
C2256 C2257 1.327 . S
C2257 H2251 0.950 . S
C2257 C2256 1.327 . S
C2257 C2261 1.429 . S
C2258 C2241 1.573 1_455 S
C2258 H2252 0.949 . S
C2258 C2262 1.368 . S
C2259 C2240 1.429 . S
C2259 C2253 1.429 . S
C2259 C2260 1.523 . S
C2260 C2241 1.372 . S
C2260 C2254 1.368 . S
C2260 C2259 1.523 . S
C2261 C2245 1.429 . S
C2261 C2257 1.429 . S
C2261 C2262 1.523 . S
C2262 C2246 1.373 . S
C2262 C2258 1.368 . S
C2262 C2261 1.523 . S
H2263 C2238 0.950 . S
H2264 C2240 0.950 . S
H2265 C2241 0.955 . S
H2266 C2243 0.950 . S
H2267 C2245 0.950 . S
C2268 C2269 1.349 . S
C2268 C2270 1.327 . S
C2268 H2293 0.950 . S
C2269 C2268 1.349 . S
C2269 C2285 1.349 . S
C2270 C2268 1.327 . S
C2270 C2289 1.429 . S
C2270 H2294 0.950 . S
C2271 C2288 1.574 . S
C2271 C2290 1.368 . S
C2271 H2295 0.949 . S
H2272 C2276 0.949 . S
C2273 C2274 1.349 . S
C2273 C2275 1.327 . S
C2273 H2296 0.950 . S
C2274 C2273 1.349 . S
C2274 C2286 1.349 . S
C2275 C2273 1.327 . S
C2275 C2291 1.429 . S
C2275 H2297 0.950 . S
C2276 H2272 0.949 . S
C2276 C2284 1.574 . S
C2276 C2292 1.368 . S
H2277 C2285 0.950 . S
H2278 C2283 0.950 . S
H2279 C2284 0.949 . S
H2280 C2286 0.950 . S
H2281 C2287 0.950 . S
H2282 C2288 0.949 . S
C2283 H2278 0.950 . S
C2283 C2285 1.327 . S
C2283 C2289 1.429 . S
C2284 C2276 1.574 . S
C2284 H2279 0.949 . S
C2284 C2290 1.368 . S
C2285 C2269 1.349 . S
C2285 H2277 0.950 . S
C2285 C2283 1.327 . S
C2286 C2274 1.349 . S
C2286 H2280 0.950 . S
C2286 C2287 1.327 . S
C2287 H2281 0.950 . S
C2287 C2286 1.327 . S
C2287 C2291 1.429 . S
C2288 C2271 1.574 . S
C2288 H2282 0.949 . S
C2288 C2292 1.368 . S
C2289 C2270 1.429 . S
C2289 C2283 1.429 . S
C2289 C2290 1.523 . S
C2290 C2271 1.368 . S
C2290 C2284 1.368 . S
C2290 C2289 1.523 . S
C2291 C2275 1.429 . S
C2291 C2287 1.429 . S
C2291 C2292 1.523 . S
C2292 C2276 1.368 . S
C2292 C2288 1.368 . S
C2292 C2291 1.523 . S
H2293 C2268 0.950 . S
H2294 C2270 0.950 . S
H2295 C2271 0.949 . S
H2296 C2273 0.950 . S
H2297 C2275 0.950 . S
C2298 C2299 1.349 . S
C2298 C2300 1.327 . S
C2298 H2323 0.950 . S
C2299 C2298 1.349 . S
C2299 C2315 1.349 . S
C2300 C2298 1.327 . S
C2300 C2319 1.429 . S
C2300 H2324 0.950 . S
C2301 C2318 1.574 . S
C2301 C2320 1.368 . S
C2301 H2325 0.949 . S
H2302 C2306 0.949 . S
C2303 C2304 1.349 . S
C2303 C2305 1.327 . S
C2303 H2326 0.950 . S
C2304 C2303 1.349 . S
C2304 C2316 1.349 . S
C2305 C2303 1.327 . S
C2305 C2321 1.429 . S
C2305 H2327 0.950 . S
C2306 H2302 0.949 . S
C2306 C2314 1.574 . S
C2306 C2322 1.368 . S
H2307 C2315 0.950 . S
H2308 C2313 0.950 . S
H2309 C2314 0.949 . S
H2310 C2316 0.950 . S
H2311 C2317 0.950 . S
H2312 C2318 0.949 . S
C2313 H2308 0.950 . S
C2313 C2315 1.327 . S
C2313 C2319 1.429 . S
C2314 C2306 1.574 . S
C2314 H2309 0.949 . S
C2314 C2320 1.368 . S
C2315 C2299 1.349 . S
C2315 H2307 0.950 . S
C2315 C2313 1.327 . S
C2316 C2304 1.349 . S
C2316 H2310 0.950 . S
C2316 C2317 1.327 . S
C2317 H2311 0.950 . S
C2317 C2316 1.327 . S
C2317 C2321 1.429 . S
C2318 C2301 1.574 . S
C2318 H2312 0.949 . S
C2318 C2322 1.368 . S
C2319 C2300 1.429 . S
C2319 C2313 1.429 . S
C2319 C2320 1.523 . S
C2320 C2301 1.368 . S
C2320 C2314 1.368 . S
C2320 C2319 1.523 . S
C2321 C2305 1.429 . S
C2321 C2317 1.429 . S
C2321 C2322 1.523 . S
C2322 C2306 1.368 . S
C2322 C2318 1.368 . S
C2322 C2321 1.523 . S
H2323 C2298 0.950 . S
H2324 C2300 0.950 . S
H2325 C2301 0.949 . S
H2326 C2303 0.950 . S
H2327 C2305 0.950 . S
C2328 C2329 1.349 . S
C2328 C2330 1.327 . S
C2328 H2353 0.950 . S
C2329 C2328 1.349 . S
C2329 C2345 1.349 . S
C2330 C2328 1.327 . S
C2330 C2349 1.429 . S
C2330 H2354 0.950 . S
C2331 C2348 1.574 . S
C2331 C2350 1.368 . S
C2331 H2355 0.949 . S
H2332 C2336 0.949 . S
C2333 C2334 1.349 . S
C2333 C2335 1.327 . S
C2333 H2356 0.950 . S
C2334 C2333 1.349 . S
C2334 C2346 1.349 . S
C2335 C2333 1.327 . S
C2335 C2351 1.429 . S
C2335 H2357 0.950 . S
C2336 H2332 0.949 . S
C2336 C2344 1.574 . S
C2336 C2352 1.368 . S
H2337 C2345 0.950 . S
H2338 C2343 0.950 . S
H2339 C2344 0.949 . S
H2340 C2346 0.950 . S
H2341 C2347 0.950 . S
H2342 C2348 0.949 . S
C2343 H2338 0.950 . S
C2343 C2345 1.327 . S
C2343 C2349 1.429 . S
C2344 C2336 1.574 . S
C2344 H2339 0.949 . S
C2344 C2350 1.368 . S
C2345 C2329 1.349 . S
C2345 H2337 0.950 . S
C2345 C2343 1.327 . S
C2346 C2334 1.349 . S
C2346 H2340 0.950 . S
C2346 C2347 1.327 . S
C2347 H2341 0.950 . S
C2347 C2346 1.327 . S
C2347 C2351 1.429 . S
C2348 C2331 1.574 . S
C2348 H2342 0.949 . S
C2348 C2352 1.368 . S
C2349 C2330 1.429 . S
C2349 C2343 1.429 . S
C2349 C2350 1.523 . S
C2350 C2331 1.368 . S
C2350 C2344 1.368 . S
C2350 C2349 1.523 . S
C2351 C2335 1.429 . S
C2351 C2347 1.429 . S
C2351 C2352 1.523 . S
C2352 C2336 1.368 . S
C2352 C2348 1.368 . S
C2352 C2351 1.523 . S
H2353 C2328 0.950 . S
H2354 C2330 0.950 . S
H2355 C2331 0.949 . S
H2356 C2333 0.950 . S
H2357 C2335 0.950 . S
C2358 C2359 1.349 . S
C2358 C2360 1.327 . S
C2358 H2383 0.950 . S
C2359 C2358 1.349 . S
C2359 C2375 1.349 . S
C2360 C2358 1.327 . S
C2360 C2379 1.429 . S
C2360 H2384 0.950 . S
C2361 C2378 1.574 . S
C2361 C2380 1.368 . S
C2361 H2385 0.949 . S
H2362 C2366 0.949 . S
C2363 C2364 1.349 . S
C2363 C2365 1.327 1_556 S
C2363 H2386 0.950 . S
C2364 C2363 1.349 . S
C2364 C2376 1.349 . S
C2365 C2363 1.327 1_554 S
C2365 C2381 1.429 . S
C2365 H2387 0.950 . S
C2366 H2362 0.949 . S
C2366 C2374 1.574 . S
C2366 C2382 1.368 . S
H2367 C2375 0.950 . S
H2368 C2373 0.950 . S
H2369 C2374 0.949 . S
H2370 C2376 0.950 . S
H2371 C2377 0.950 . S
H2372 C2378 0.949 . S
C2373 H2368 0.950 . S
C2373 C2375 1.327 . S
C2373 C2379 1.429 . S
C2374 C2366 1.574 . S
C2374 H2369 0.949 . S
C2374 C2380 1.368 . S
C2375 C2359 1.349 . S
C2375 H2367 0.950 . S
C2375 C2373 1.327 . S
C2376 C2364 1.349 . S
C2376 H2370 0.950 . S
C2376 C2377 1.327 1_556 S
C2377 H2371 0.950 . S
C2377 C2376 1.327 1_554 S
C2377 C2381 1.429 . S
C2378 C2361 1.574 . S
C2378 H2372 0.949 . S
C2378 C2382 1.368 . S
C2379 C2360 1.429 . S
C2379 C2373 1.429 . S
C2379 C2380 1.523 . S
C2380 C2361 1.368 . S
C2380 C2374 1.368 . S
C2380 C2379 1.523 . S
C2381 C2365 1.429 . S
C2381 C2377 1.429 . S
C2381 C2382 1.523 . S
C2382 C2366 1.368 . S
C2382 C2378 1.368 . S
C2382 C2381 1.523 . S
H2383 C2358 0.950 . S
H2384 C2360 0.950 . S
H2385 C2361 0.949 . S
H2386 C2363 0.950 . S
H2387 C2365 0.950 . S
C2388 C2389 1.349 . S
C2388 C2390 1.327 . S
C2388 H2413 0.950 . S
C2389 C2388 1.349 . S
C2389 C2405 1.349 . S
C2390 C2388 1.327 . S
C2390 C2409 1.429 . S
C2390 H2414 0.950 . S
C2391 C2408 1.574 . S
C2391 C2410 1.368 . S
C2391 H2415 0.949 . S
H2392 C2396 0.949 . S
C2393 C2394 1.349 . S
C2393 C2395 1.327 1_556 S
C2393 H2416 0.950 . S
C2394 C2393 1.349 . S
C2394 C2406 1.349 . S
C2395 C2393 1.327 1_554 S
C2395 C2411 1.429 . S
C2395 H2417 0.950 . S
C2396 H2392 0.949 . S
C2396 C2404 1.574 . S
C2396 C2412 1.368 . S
H2397 C2405 0.950 . S
H2398 C2403 0.950 . S
H2399 C2404 0.949 . S
H2400 C2406 0.950 . S
H2401 C2407 0.950 . S
H2402 C2408 0.949 . S
C2403 H2398 0.950 . S
C2403 C2405 1.327 . S
C2403 C2409 1.429 . S
C2404 C2396 1.574 . S
C2404 H2399 0.949 . S
C2404 C2410 1.368 . S
C2405 C2389 1.349 . S
C2405 H2397 0.950 . S
C2405 C2403 1.327 . S
C2406 C2394 1.349 . S
C2406 H2400 0.950 . S
C2406 C2407 1.327 1_556 S
C2407 H2401 0.950 . S
C2407 C2406 1.327 1_554 S
C2407 C2411 1.429 . S
C2408 C2391 1.574 . S
C2408 H2402 0.949 . S
C2408 C2412 1.368 . S
C2409 C2390 1.429 . S
C2409 C2403 1.429 . S
C2409 C2410 1.523 . S
C2410 C2391 1.368 . S
C2410 C2404 1.368 . S
C2410 C2409 1.523 . S
C2411 C2395 1.429 . S
C2411 C2407 1.429 . S
C2411 C2412 1.523 . S
C2412 C2396 1.368 . S
C2412 C2408 1.368 . S
C2412 C2411 1.523 . S
H2413 C2388 0.950 . S
H2414 C2390 0.950 . S
H2415 C2391 0.949 . S
H2416 C2393 0.950 . S
H2417 C2395 0.950 . S
C2418 C2419 1.349 . S
C2418 C2420 1.327 . S
C2418 H2443 0.950 . S
C2419 C2418 1.349 . S
C2419 C2435 1.349 . S
C2420 C2418 1.327 . S
C2420 C2439 1.429 . S
C2420 H2444 0.950 . S
C2421 C2438 1.574 . S
C2421 C2440 1.368 . S
C2421 H2445 0.949 . S
H2422 C2426 0.949 . S
C2423 C2424 1.349 . S
C2423 C2425 1.327 1_556 S
C2423 H2446 0.950 . S
C2424 C2423 1.349 . S
C2424 C2436 1.349 . S
C2425 C2423 1.327 1_554 S
C2425 C2441 1.429 . S
C2425 H2447 0.950 . S
C2426 H2422 0.949 . S
C2426 C2434 1.574 . S
C2426 C2442 1.368 . S
H2427 C2435 0.950 . S
H2428 C2433 0.950 . S
H2429 C2434 0.949 . S
H2430 C2436 0.950 . S
H2431 C2437 0.950 . S
H2432 C2438 0.949 . S
C2433 H2428 0.950 . S
C2433 C2435 1.327 . S
C2433 C2439 1.429 . S
C2434 C2426 1.574 . S
C2434 H2429 0.949 . S
C2434 C2440 1.368 . S
C2435 C2419 1.349 . S
C2435 H2427 0.950 . S
C2435 C2433 1.327 . S
C2436 C2424 1.349 . S
C2436 H2430 0.950 . S
C2436 C2437 1.327 1_556 S
C2437 H2431 0.950 . S
C2437 C2436 1.327 1_554 S
C2437 C2441 1.429 . S
C2438 C2421 1.574 . S
C2438 H2432 0.949 . S
C2438 C2442 1.368 . S
C2439 C2420 1.429 . S
C2439 C2433 1.429 . S
C2439 C2440 1.523 . S
C2440 C2421 1.368 . S
C2440 C2434 1.368 . S
C2440 C2439 1.523 . S
C2441 C2425 1.429 . S
C2441 C2437 1.429 . S
C2441 C2442 1.523 . S
C2442 C2426 1.368 . S
C2442 C2438 1.368 . S
C2442 C2441 1.523 . S
H2443 C2418 0.950 . S
H2444 C2420 0.950 . S
H2445 C2421 0.949 . S
H2446 C2423 0.950 . S
H2447 C2425 0.950 . S
C2448 C2449 1.349 . S
C2448 C2450 1.327 1_554 S
C2448 H2473 0.950 . S
C2449 C2448 1.349 . S
C2449 C2465 1.349 . S
C2450 C2448 1.327 1_556 S
C2450 C2469 1.429 . S
C2450 H2474 0.950 . S
C2451 C2468 1.574 . S
C2451 C2470 1.368 . S
C2451 H2475 0.949 . S
H2452 C2456 0.949 . S
C2453 C2454 1.349 . S
C2453 C2455 1.327 . S
C2453 H2476 0.950 . S
C2454 C2453 1.349 . S
C2454 C2466 1.349 . S
C2455 C2453 1.327 . S
C2455 C2471 1.429 . S
C2455 H2477 0.950 . S
C2456 H2452 0.949 . S
C2456 C2464 1.574 . S
C2456 C2472 1.368 . S
H2457 C2465 0.950 . S
H2458 C2463 0.950 . S
H2459 C2464 0.949 . S
H2460 C2466 0.950 . S
H2461 C2467 0.950 . S
H2462 C2468 0.949 . S
C2463 H2458 0.950 . S
C2463 C2465 1.327 1_556 S
C2463 C2469 1.429 . S
C2464 C2456 1.574 . S
C2464 H2459 0.949 . S
C2464 C2470 1.368 . S
C2465 C2449 1.349 . S
C2465 H2457 0.950 . S
C2465 C2463 1.327 1_554 S
C2466 C2454 1.349 . S
C2466 H2460 0.950 . S
C2466 C2467 1.327 . S
C2467 H2461 0.950 . S
C2467 C2466 1.327 . S
C2467 C2471 1.429 . S
C2468 C2451 1.574 . S
C2468 H2462 0.949 . S
C2468 C2472 1.368 . S
C2469 C2450 1.429 . S
C2469 C2463 1.429 . S
C2469 C2470 1.523 . S
C2470 C2451 1.368 . S
C2470 C2464 1.368 . S
C2470 C2469 1.523 . S
C2471 C2455 1.429 . S
C2471 C2467 1.429 . S
C2471 C2472 1.523 . S
C2472 C2456 1.368 . S
C2472 C2468 1.368 . S
C2472 C2471 1.523 . S
H2473 C2448 0.950 . S
H2474 C2450 0.950 . S
H2475 C2451 0.949 . S
H2476 C2453 0.950 . S
H2477 C2455 0.950 . S
C2478 C2479 1.349 . S
C2478 C2480 1.327 1_554 S
C2478 H2503 0.950 . S
C2479 C2478 1.349 . S
C2479 C2495 1.349 . S
C2480 C2478 1.327 1_556 S
C2480 C2499 1.429 . S
C2480 H2504 0.950 . S
C2481 C2498 1.574 . S
C2481 C2500 1.368 . S
C2481 H2505 0.949 . S
H2482 C2486 0.949 . S
C2483 C2484 1.349 . S
C2483 C2485 1.327 . S
C2483 H2506 0.950 . S
C2484 C2483 1.349 . S
C2484 C2496 1.349 . S
C2485 C2483 1.327 . S
C2485 C2501 1.429 . S
C2485 H2507 0.950 . S
C2486 H2482 0.949 . S
C2486 C2494 1.574 . S
C2486 C2502 1.368 . S
H2487 C2495 0.950 . S
H2488 C2493 0.950 . S
H2489 C2494 0.949 . S
H2490 C2496 0.950 . S
H2491 C2497 0.950 . S
H2492 C2498 0.949 . S
C2493 H2488 0.950 . S
C2493 C2495 1.327 1_556 S
C2493 C2499 1.429 . S
C2494 C2486 1.574 . S
C2494 H2489 0.949 . S
C2494 C2500 1.368 . S
C2495 C2479 1.349 . S
C2495 H2487 0.950 . S
C2495 C2493 1.327 1_554 S
C2496 C2484 1.349 . S
C2496 H2490 0.950 . S
C2496 C2497 1.327 . S
C2497 H2491 0.950 . S
C2497 C2496 1.327 . S
C2497 C2501 1.429 . S
C2498 C2481 1.574 . S
C2498 H2492 0.949 . S
C2498 C2502 1.368 . S
C2499 C2480 1.429 . S
C2499 C2493 1.429 . S
C2499 C2500 1.523 . S
C2500 C2481 1.368 . S
C2500 C2494 1.368 . S
C2500 C2499 1.523 . S
C2501 C2485 1.429 . S
C2501 C2497 1.429 . S
C2501 C2502 1.523 . S
C2502 C2486 1.368 . S
C2502 C2498 1.368 . S
C2502 C2501 1.523 . S
H2503 C2478 0.950 . S
H2504 C2480 0.950 . S
H2505 C2481 0.949 . S
H2506 C2483 0.950 . S
H2507 C2485 0.950 . S
C2508 C2509 1.349 . S
C2508 C2510 1.327 1_554 S
C2508 H2533 0.950 . S
C2509 C2508 1.349 . S
C2509 C2525 1.349 . S
C2510 C2508 1.327 1_556 S
C2510 C2529 1.429 . S
C2510 H2534 0.950 . S
C2511 C2528 1.574 . S
C2511 C2530 1.368 . S
C2511 H2535 0.949 . S
H2512 C2516 0.949 . S
C2513 C2514 1.349 . S
C2513 C2515 1.327 . S
C2513 H2536 0.950 . S
C2514 C2513 1.349 . S
C2514 C2526 1.349 . S
C2515 C2513 1.327 . S
C2515 C2531 1.429 . S
C2515 H2537 0.950 . S
C2516 H2512 0.949 . S
C2516 C2524 1.574 . S
C2516 C2532 1.368 . S
H2517 C2525 0.950 . S
H2518 C2523 0.950 . S
H2519 C2524 0.949 . S
H2520 C2526 0.950 . S
H2521 C2527 0.950 . S
H2522 C2528 0.949 . S
C2523 H2518 0.950 . S
C2523 C2525 1.327 1_556 S
C2523 C2529 1.429 . S
C2524 C2516 1.574 . S
C2524 H2519 0.949 . S
C2524 C2530 1.368 . S
C2525 C2509 1.349 . S
C2525 H2517 0.950 . S
C2525 C2523 1.327 1_554 S
C2526 C2514 1.349 . S
C2526 H2520 0.950 . S
C2526 C2527 1.327 . S
C2527 H2521 0.950 . S
C2527 C2526 1.327 . S
C2527 C2531 1.429 . S
C2528 C2511 1.574 . S
C2528 H2522 0.949 . S
C2528 C2532 1.368 . S
C2529 C2510 1.429 . S
C2529 C2523 1.429 . S
C2529 C2530 1.523 . S
C2530 C2511 1.368 . S
C2530 C2524 1.368 . S
C2530 C2529 1.523 . S
C2531 C2515 1.429 . S
C2531 C2527 1.429 . S
C2531 C2532 1.523 . S
C2532 C2516 1.368 . S
C2532 C2528 1.368 . S
C2532 C2531 1.523 . S
H2533 C2508 0.950 . S
H2534 C2510 0.950 . S
H2535 C2511 0.949 . S
H2536 C2513 0.950 . S
H2537 C2515 0.950 . S
C2538 C2539 1.349 . S
C2538 C2540 1.327 . S
C2538 H2563 0.950 . S
C2539 C2538 1.349 . S
C2539 C2555 1.349 . S
C2540 C2538 1.327 . S
C2540 C2559 1.429 . S
C2540 H2564 0.950 . S
C2541 C2558 1.574 . S
C2541 C2560 1.368 . S
C2541 H2565 0.949 . S
H2542 C2546 0.949 . S
C2543 C2544 1.349 . S
C2543 C2545 1.327 . S
C2543 H2566 0.950 . S
C2544 C2543 1.349 . S
C2544 C2556 1.349 . S
C2545 C2543 1.327 . S
C2545 C2561 1.429 . S
C2545 H2567 0.950 . S
C2546 H2542 0.949 . S
C2546 C2554 1.574 . S
C2546 C2562 1.368 . S
H2547 C2555 0.950 . S
H2548 C2553 0.950 . S
H2549 C2554 0.949 . S
H2550 C2556 0.950 . S
H2551 C2557 0.950 . S
H2552 C2558 0.949 . S
C2553 H2548 0.950 . S
C2553 C2555 1.327 . S
C2553 C2559 1.429 . S
C2554 C2546 1.574 . S
C2554 H2549 0.949 . S
C2554 C2560 1.368 . S
C2555 C2539 1.349 . S
C2555 H2547 0.950 . S
C2555 C2553 1.327 . S
C2556 C2544 1.349 . S
C2556 H2550 0.950 . S
C2556 C2557 1.327 . S
C2557 H2551 0.950 . S
C2557 C2556 1.327 . S
C2557 C2561 1.429 . S
C2558 C2541 1.574 . S
C2558 H2552 0.949 . S
C2558 C2562 1.368 . S
C2559 C2540 1.429 . S
C2559 C2553 1.429 . S
C2559 C2560 1.523 . S
C2560 C2541 1.368 . S
C2560 C2554 1.368 . S
C2560 C2559 1.523 . S
C2561 C2545 1.429 . S
C2561 C2557 1.429 . S
C2561 C2562 1.523 . S
C2562 C2546 1.368 . S
C2562 C2558 1.368 . S
C2562 C2561 1.523 . S
H2563 C2538 0.950 . S
H2564 C2540 0.950 . S
H2565 C2541 0.949 . S
H2566 C2543 0.950 . S
H2567 C2545 0.950 . S
C2568 C2569 1.349 . S
C2568 C2570 1.327 . S
C2568 H2593 0.950 . S
C2569 C2568 1.349 . S
C2569 C2585 1.349 . S
C2570 C2568 1.327 . S
C2570 C2589 1.429 . S
C2570 H2594 0.950 . S
C2571 C2588 1.574 . S
C2571 C2590 1.368 . S
C2571 H2595 0.949 . S
H2572 C2576 0.949 . S
C2573 C2574 1.349 . S
C2573 C2575 1.327 . S
C2573 H2596 0.950 . S
C2574 C2573 1.349 . S
C2574 C2586 1.349 . S
C2575 C2573 1.327 . S
C2575 C2591 1.429 . S
C2575 H2597 0.950 . S
C2576 H2572 0.949 . S
C2576 C2584 1.574 . S
C2576 C2592 1.368 . S
H2577 C2585 0.950 . S
H2578 C2583 0.950 . S
H2579 C2584 0.949 . S
H2580 C2586 0.950 . S
H2581 C2587 0.950 . S
H2582 C2588 0.949 . S
C2583 H2578 0.950 . S
C2583 C2585 1.327 . S
C2583 C2589 1.429 . S
C2584 C2576 1.574 . S
C2584 H2579 0.949 . S
C2584 C2590 1.368 . S
C2585 C2569 1.349 . S
C2585 H2577 0.950 . S
C2585 C2583 1.327 . S
C2586 C2574 1.349 . S
C2586 H2580 0.950 . S
C2586 C2587 1.327 . S
C2587 H2581 0.950 . S
C2587 C2586 1.327 . S
C2587 C2591 1.429 . S
C2588 C2571 1.574 . S
C2588 H2582 0.949 . S
C2588 C2592 1.368 . S
C2589 C2570 1.429 . S
C2589 C2583 1.429 . S
C2589 C2590 1.523 . S
C2590 C2571 1.368 . S
C2590 C2584 1.368 . S
C2590 C2589 1.523 . S
C2591 C2575 1.429 . S
C2591 C2587 1.429 . S
C2591 C2592 1.523 . S
C2592 C2576 1.368 . S
C2592 C2588 1.368 . S
C2592 C2591 1.523 . S
H2593 C2568 0.950 . S
H2594 C2570 0.950 . S
H2595 C2571 0.949 . S
H2596 C2573 0.950 . S
H2597 C2575 0.950 . S
C2598 C2599 1.349 . S
C2598 C2600 1.327 . S
C2598 H2623 0.950 . S
C2599 C2598 1.349 . S
C2599 C2615 1.349 . S
C2600 C2598 1.327 . S
C2600 C2619 1.429 . S
C2600 H2624 0.950 . S
C2601 C2618 1.574 . S
C2601 C2620 1.368 . S
C2601 H2625 0.949 . S
H2602 C2606 0.949 . S
C2603 C2604 1.349 . S
C2603 C2605 1.327 . S
C2603 H2626 0.950 . S
C2604 C2603 1.349 . S
C2604 C2616 1.349 . S
C2605 C2603 1.327 . S
C2605 C2621 1.429 . S
C2605 H2627 0.950 . S
C2606 H2602 0.949 . S
C2606 C2614 1.574 . S
C2606 C2622 1.368 . S
H2607 C2615 0.950 . S
H2608 C2613 0.950 . S
H2609 C2614 0.949 . S
H2610 C2616 0.950 . S
H2611 C2617 0.950 . S
H2612 C2618 0.949 . S
C2613 H2608 0.950 . S
C2613 C2615 1.327 . S
C2613 C2619 1.429 . S
C2614 C2606 1.574 . S
C2614 H2609 0.949 . S
C2614 C2620 1.368 . S
C2615 C2599 1.349 . S
C2615 H2607 0.950 . S
C2615 C2613 1.327 . S
C2616 C2604 1.349 . S
C2616 H2610 0.950 . S
C2616 C2617 1.327 . S
C2617 H2611 0.950 . S
C2617 C2616 1.327 . S
C2617 C2621 1.429 . S
C2618 C2601 1.574 . S
C2618 H2612 0.949 . S
C2618 C2622 1.368 . S
C2619 C2600 1.429 . S
C2619 C2613 1.429 . S
C2619 C2620 1.523 . S
C2620 C2601 1.368 . S
C2620 C2614 1.368 . S
C2620 C2619 1.523 . S
C2621 C2605 1.429 . S
C2621 C2617 1.429 . S
C2621 C2622 1.523 . S
C2622 C2606 1.368 . S
C2622 C2618 1.368 . S
C2622 C2621 1.523 . S
H2623 C2598 0.950 . S
H2624 C2600 0.950 . S
H2625 C2601 0.949 . S
H2626 C2603 0.950 . S
H2627 C2605 0.950 . S
C469 C208 1.253 . S
C474 C0 1.253 1_556 S
C499 C221 1.253 . S
C504 C13 1.253 1_556 S
C529 C26 1.253 1_556 S
C534 C195 1.253 . S
C559 C338 1.253 . S
C564 C39 1.253 . S
C589 C312 1.253 . S
C594 C52 1.253 . S
C619 C65 1.253 . S
C624 C325 1.253 . S
C649 C442 1.253 . S
C654 C78 1.253 1_554 S
C679 C455 1.253 . S
C684 C91 1.253 1_554 S
C709 C429 1.253 . S
C714 C104 1.253 1_554 S
C739 C260 1.253 . S
C744 C117 1.253 . S
C769 C130 1.253 . S
C774 C234 1.253 . S
C799 C247 1.253 . S
C804 C143 1.253 . S
C829 C364 1.253 . S
C834 C156 1.253 . S
C859 C169 1.253 . S
C864 C377 1.253 . S
C889 C351 1.253 . S
C894 C182 1.253 . S
C919 C416 1.253 . S
C924 C273 1.253 . S
C949 C390 1.253 . S
C954 C286 1.253 . S
C979 C299 1.253 . S
C984 C403 1.253 . S
C1009 C101 1.273 . S
C1014 C8 1.270 . S
C1039 C114 1.273 . S
C1044 C21 1.270 . S
C1069 C88 1.272 . S
C1074 C34 1.269 . S
C1099 C47 1.270 . S
C1104 C153 1.272 . S
C1129 C127 1.272 . S
C1134 C60 1.269 . S
C1159 C73 1.270 . S
C1164 C140 1.273 . S
C1189 C23 1.273 . S
C1194 C86 1.270 . S
C1219 C99 1.270 . S
C1224 C36 1.273 . S
C1249 C10 1.272 . S
C1254 C112 1.269 . S
C1279 C75 1.272 . S
C1284 C125 1.270 . S
C1309 C49 1.272 . S
C1314 C138 1.269 . S
C1339 C151 1.270 . S
C1344 C62 1.273 . S
C1369 C164 1.270 . S
C1374 C257 1.273 . S
C1399 C270 1.272 . S
C1404 C177 1.269 . S
C1429 C244 1.272 . S
C1434 C190 1.270 . S
C1459 C203 1.269 . S
C1464 C309 1.272 . S
C1489 C283 1.273 . S
C1494 C216 1.270 . S
C1519 C229 1.270 . S
C1524 C296 1.272 . S
C1549 C242 1.270 . S
C1554 C179 1.272 . S
C1579 C255 1.270 . S
C1584 C192 1.272 . S
C1609 C166 1.272 . S
C1614 C268 1.269 . S
C1639 C231 1.272 . S
C1644 C281 1.269 . S
C1669 C205 1.272 . S
C1674 C294 1.270 . S
C1699 C307 1.269 . S
C1704 C218 1.272 . S
C1729 C413 1.272 . S
C1734 C320 1.270 . S
C1759 C333 1.270 . S
C1764 C426 1.272 . S
C1789 C346 1.269 . S
C1794 C400 1.272 . S
C1819 C465 1.272 . S
C1824 C359 1.269 . S
C1849 C372 1.270 . S
C1854 C439 1.272 . S
C1879 C452 1.272 . S
C1884 C385 1.269 . S
C1909 C335 1.273 . S
C1914 C398 1.270 . S
C1939 C348 1.272 . S
C1944 C411 1.269 . S
C1969 C424 1.270 . S
C1974 C322 1.272 . S
C1999 C437 1.269 . S
C2004 C387 1.272 . S
C2029 C361 1.273 . S
C2034 C450 1.270 . S
C2059 C374 1.272 . S
C2064 C463 1.270 . S
C2089 C5 1.300 . S
C2094 C44 1.300 . S
C2119 C18 1.300 . S
C2124 C57 1.300 . S
C2149 C70 1.300 . S
C2154 C31 1.300 . S
C2179 C83 1.300 . S
C2184 C122 1.300 . S
C2209 C135 1.300 . S
C2214 C96 1.300 . S
C2239 C148 1.300 . S
C2244 C109 1.300 . S
C2269 C161 1.300 . S
C2274 C200 1.300 . S
C2299 C174 1.300 . S
C2304 C213 1.300 . S
C2329 C226 1.300 . S
C2334 C187 1.300 . S
C2359 C239 1.300 . S
C2364 C278 1.300 . S
C2389 C252 1.300 . S
C2394 C291 1.300 . S
C2419 C265 1.300 . S
C2424 C304 1.300 . S
C2449 C356 1.300 . S
C2454 C317 1.300 . S
C2479 C369 1.300 . S
C2484 C330 1.300 . S
C2509 C382 1.300 . S
C2514 C343 1.300 . S
C2539 C395 1.300 . S
C2544 C434 1.300 . S
C2569 C447 1.300 . S
C2574 C408 1.300 . S
C2599 C460 1.300 . S
C2604 C421 1.300 . S
