# Generated by pormake.
# Topology acs-h, (5)-cn, num edge types: 1
# Building blocks:
#     Node 0, Type 0, BuildingBlock: XOMCOT_clean_sbu_1, # of connection points: 5
#     Node 1, Type 0, BuildingBlock: XOMCOT_clean_sbu_1, # of connection points: 5
#     Node 2, Type 0, BuildingBlock: XOMCOT_clean_sbu_1, # of connection points: 5
#     Node 3, Type 0, BuildingBlock: XOMCOT_clean_sbu_1, # of connection points: 5
#     Node 4, Type 0, BuildingBlock: XOMCOT_clean_sbu_1, # of connection points: 5
#     Node 5, Type 0, BuildingBlock: XOMCOT_clean_sbu_1, # of connection points: 5
#     Node 6, Type 0, BuildingBlock: XOMCOT_clean_sbu_1, # of connection points: 5
#     Node 7, Type 0, BuildingBlock: XOMCOT_clean_sbu_1, # of connection points: 5
#     Node 8, Type 0, BuildingBlock: XOMCOT_clean_sbu_1, # of connection points: 5
#     Node 9, Type 0, BuildingBlock: XOMCOT_clean_sbu_1, # of connection points: 5
#     Node 10, Type 0, BuildingBlock: XOMCOT_clean_sbu_1, # of connection points: 5
#     Node 11, Type 0, BuildingBlock: XOMCOT_clean_sbu_1, # of connection points: 5
#     Edge 12, Type (0, 0), BuildingBlock: UVAHIK_clean_linker_0, # of connection points: 2
#     Edge 13, Type (0, 0), BuildingBlock: UVAHIK_clean_linker_0, # of connection points: 2
#     Edge 14, Type (0, 0), BuildingBlock: UVAHIK_clean_linker_0, # of connection points: 2
#     Edge 15, Type (0, 0), BuildingBlock: UVAHIK_clean_linker_0, # of connection points: 2
#     Edge 16, Type (0, 0), BuildingBlock: UVAHIK_clean_linker_0, # of connection points: 2
#     Edge 17, Type (0, 0), BuildingBlock: UVAHIK_clean_linker_0, # of connection points: 2
#     Edge 18, Type (0, 0), BuildingBlock: UVAHIK_clean_linker_0, # of connection points: 2
#     Edge 19, Type (0, 0), BuildingBlock: UVAHIK_clean_linker_0, # of connection points: 2
#     Edge 20, Type (0, 0), BuildingBlock: UVAHIK_clean_linker_0, # of connection points: 2
#     Edge 21, Type (0, 0), BuildingBlock: UVAHIK_clean_linker_0, # of connection points: 2
#     Edge 22, Type (0, 0), BuildingBlock: UVAHIK_clean_linker_0, # of connection points: 2
#     Edge 23, Type (0, 0), BuildingBlock: UVAHIK_clean_linker_0, # of connection points: 2
#     Edge 24, Type (0, 0), BuildingBlock: UVAHIK_clean_linker_0, # of connection points: 2
#     Edge 25, Type (0, 0), BuildingBlock: UVAHIK_clean_linker_0, # of connection points: 2
#     Edge 26, Type (0, 0), BuildingBlock: UVAHIK_clean_linker_0, # of connection points: 2
#     Edge 27, Type (0, 0), BuildingBlock: UVAHIK_clean_linker_0, # of connection points: 2
#     Edge 28, Type (0, 0), BuildingBlock: UVAHIK_clean_linker_0, # of connection points: 2
#     Edge 29, Type (0, 0), BuildingBlock: UVAHIK_clean_linker_0, # of connection points: 2
#     Edge 30, Type (0, 0), BuildingBlock: UVAHIK_clean_linker_0, # of connection points: 2
#     Edge 31, Type (0, 0), BuildingBlock: UVAHIK_clean_linker_0, # of connection points: 2
#     Edge 32, Type (0, 0), BuildingBlock: UVAHIK_clean_linker_0, # of connection points: 2
#     Edge 33, Type (0, 0), BuildingBlock: UVAHIK_clean_linker_0, # of connection points: 2
#     Edge 34, Type (0, 0), BuildingBlock: UVAHIK_clean_linker_0, # of connection points: 2
#     Edge 35, Type (0, 0), BuildingBlock: UVAHIK_clean_linker_0, # of connection points: 2
#     Edge 36, Type (0, 0), BuildingBlock: UVAHIK_clean_linker_0, # of connection points: 2
#     Edge 37, Type (0, 0), BuildingBlock: UVAHIK_clean_linker_0, # of connection points: 2
#     Edge 38, Type (0, 0), BuildingBlock: UVAHIK_clean_linker_0, # of connection points: 2
#     Edge 39, Type (0, 0), BuildingBlock: UVAHIK_clean_linker_0, # of connection points: 2
#     Edge 40, Type (0, 0), BuildingBlock: UVAHIK_clean_linker_0, # of connection points: 2
#     Edge 41, Type (0, 0), BuildingBlock: UVAHIK_clean_linker_0, # of connection points: 2
# Relax obj value: 0.901
# Max RMSD: 0.275
# Mean RMSD: 0.275
data_MOF--net-acs-h--node1-XOMCOT_clean_sbu_1--edge1-UVAHIK_clean_linker_0
_symmetry_space_group_name_H-M    P1
_symmetry_Int_Tables_number       1
_symmetry_cell_setting            triclinic
loop_
_symmetry_equiv_pos_as_xyz
'x, y, z'
_cell_length_a     58.917825
_cell_length_b     59.048841
_cell_length_c     49.750477
_cell_angle_alpha  89.858134
_cell_angle_beta   90.12628
_cell_angle_gamma 119.98867
loop_
_atom_site_label
_atom_site_type_symbol
_atom_site_fract_x
_atom_site_fract_y
_atom_site_fract_z
_atom_type_partial_charge
C0 C 0.48802 0.16227 0.0589 0.0
C1 C 0.51337 0.16846 0.05324 0.0
N2 N 0.5227 0.16139 0.07445 0.0
N3 N 0.48152 0.15145 0.08357 0.0
C4 C 0.50294 0.15093 0.09239 0.0
H5 H 0.47514 0.16538 0.04584 0.0
Co6 Co 0.44937 0.13898 0.10042 0.0
C7 C 0.46069 0.13404 0.15918 0.0
O8 O 0.43622 0.11834 0.16621 0.0
N9 N 0.41665 0.12651 0.11671 0.0
C10 C 0.3745 0.10345 0.1281 0.0
C11 C 0.39407 0.10376 0.11269 0.0
C12 C 0.41016 0.13977 0.13421 0.0
N13 N 0.38474 0.12625 0.14146 0.0
O14 O 0.45711 0.17396 0.10524 0.0
H15 H 0.39172 0.08836 0.0993 0.0
H16 H 0.42409 0.15877 0.1422 0.0
O17 O 0.4663 0.14174 0.13485 0.0
C18 C 0.45115 0.18614 0.08813 0.0
O19 O 0.43718 0.1736 0.06696 0.0
N20 N 0.44272 0.10507 0.09409 0.0
C21 C 0.44879 0.06563 0.07105 0.0
C22 C 0.454 0.07153 0.09845 0.0
C23 C 0.4508 0.09135 0.10966 0.0
C24 C 0.43476 0.09764 0.0683 0.0
C25 C 0.43743 0.07777 0.05638 0.0
H26 H 0.45723 0.0969 0.13 0.0
H27 H 0.42856 0.10884 0.05622 0.0
H28 H 0.5039 0.14247 0.11134 0.0
H29 H 0.52421 0.17786 0.03515 0.0
H30 H 0.35431 0.08784 0.12913 0.0
H31 H 0.46288 0.06278 0.1106 0.0
H32 H 0.43252 0.07339 0.03533 0.0
C33 C 0.82565 0.31808 0.04461 0.0
C34 C 0.8161 0.33457 0.0387 0.0
N35 N 0.81158 0.34321 0.06202 0.0
N36 N 0.82726 0.31647 0.07149 0.0
C37 C 0.81827 0.33173 0.08153 0.0
H38 H 0.83199 0.30867 0.03026 0.0
Co39 Co 0.8427 0.29984 0.08914 0.0
C40 C 0.83659 0.30926 0.14611 0.0
O41 O 0.82671 0.28436 0.15189 0.0
N42 N 0.8586 0.28325 0.10665 0.0
C43 C 0.88576 0.2764 0.13193 0.0
C44 C 0.88214 0.29496 0.11911 0.0
C45 C 0.84845 0.25754 0.11198 0.0
N46 N 0.86442 0.25285 0.12764 0.0
O47 O 0.80869 0.27218 0.09843 0.0
H48 H 0.89536 0.31583 0.12005 0.0
H49 H 0.82892 0.24268 0.10618 0.0
O50 O 0.84374 0.31735 0.12217 0.0
C51 C 0.79511 0.25577 0.08032 0.0
O52 O 0.806 0.25703 0.05692 0.0
N53 N 0.87536 0.32702 0.07852 0.0
C54 C 0.91946 0.36728 0.05397 0.0
C55 C 0.90887 0.37203 0.07701 0.0
C56 C 0.88661 0.35172 0.08881 0.0
C57 C 0.88598 0.32173 0.05681 0.0
C58 C 0.90807 0.34169 0.04406 0.0
H59 H 0.87793 0.35642 0.10534 0.0
H60 H 0.87646 0.30215 0.04863 0.0
H61 H 0.81783 0.33546 0.10271 0.0
H62 H 0.81326 0.34018 0.01879 0.0
H63 H 0.90227 0.28015 0.14453 0.0
H64 H 0.91669 0.39165 0.08485 0.0
H65 H 0.91564 0.33735 0.02618 0.0
C66 C 0.66507 0.49777 0.06027 0.0
C67 C 0.64779 0.47227 0.05318 0.0
N68 N 0.63557 0.45894 0.07563 0.0
N69 N 0.66365 0.50046 0.08699 0.0
C70 C 0.64562 0.47648 0.09578 0.0
H71 H 0.67756 0.5135 0.04679 0.0
Co72 Co 0.68179 0.53158 0.10569 0.0
C73 C 0.65539 0.52019 0.1593 0.0
O74 O 0.6564 0.54294 0.15972 0.0
N75 N 0.7008 0.56328 0.12424 0.0
C76 C 0.72152 0.60466 0.13827 0.0
C77 C 0.70683 0.58795 0.11786 0.0
C78 C 0.71261 0.5657 0.14817 0.0
N79 N 0.72479 0.59044 0.15742 0.0
O80 O 0.70834 0.52322 0.11327 0.0
H81 H 0.70112 0.59379 0.0997 0.0
H82 H 0.71216 0.54944 0.15875 0.0
O83 O 0.66448 0.51393 0.13912 0.0
C84 C 0.72637 0.52919 0.09606 0.0
O85 O 0.72787 0.54382 0.07542 0.0
N86 N 0.6553 0.53894 0.09621 0.0
C87 C 0.61531 0.54139 0.06859 0.0
C88 C 0.60984 0.52594 0.09168 0.0
C89 C 0.62994 0.52447 0.10479 0.0
C90 C 0.66104 0.55446 0.07402 0.0
C91 C 0.6414 0.55628 0.06009 0.0
H92 H 0.62429 0.50962 0.11996 0.0
H93 H 0.68065 0.56389 0.06583 0.0
H94 H 0.63921 0.47206 0.11643 0.0
H95 H 0.64449 0.46422 0.0331 0.0
H96 H 0.72879 0.62549 0.13918 0.0
H97 H 0.58985 0.51312 0.09818 0.0
H98 H 0.64639 0.56802 0.04199 0.0
C99 C 0.8958 0.49132 0.42521 0.0
C100 C 0.89025 0.46585 0.42765 0.0
N101 N 0.86958 0.45075 0.41181 0.0
N102 N 0.87851 0.4924 0.40813 0.0
C103 C 0.8629 0.46731 0.40028 0.0
H104 H 0.91218 0.50788 0.43457 0.0
Co105 Co 0.8784 0.52176 0.39338 0.0
C106 C 0.88799 0.50397 0.34652 0.0
O107 O 0.91201 0.5168 0.35602 0.0
N108 N 0.87928 0.55068 0.37818 0.0
C109 C 0.89512 0.58846 0.35666 0.0
C110 C 0.90114 0.57079 0.36776 0.0
C111 C 0.8602 0.55646 0.37337 0.0
N112 N 0.86928 0.57941 0.36011 0.0
O113 O 0.84088 0.50597 0.40038 0.0
H114 H 0.92011 0.57208 0.36755 0.0
H115 H 0.83997 0.54384 0.379 0.0
O116 O 0.86984 0.50486 0.35939 0.0
C117 C 0.82539 0.48999 0.41803 0.0
O118 O 0.83474 0.48245 0.43799 0.0
N119 N 0.88838 0.53942 0.42631 0.0
C120 C 0.91128 0.56103 0.47542 0.0
C121 C 0.92686 0.56378 0.45304 0.0
C122 C 0.91495 0.55289 0.4286 0.0
C123 C 0.87316 0.54011 0.44662 0.0
C124 C 0.88421 0.55014 0.47179 0.0
H125 H 0.92684 0.55322 0.4119 0.0
H126 H 0.85243 0.53229 0.44407 0.0
H127 H 0.84701 0.46141 0.38606 0.0
H128 H 0.90138 0.45924 0.43929 0.0
H129 H 0.90857 0.60594 0.34573 0.0
H130 H 0.94787 0.5721 0.45492 0.0
H131 H 0.87166 0.54838 0.4885 0.0
C132 C 0.50916 0.32097 0.44136 0.0
C133 C 0.5354 0.33649 0.44666 0.0
N134 N 0.54711 0.35121 0.42472 0.0
N135 N 0.50422 0.32565 0.41617 0.0
C136 C 0.52766 0.34419 0.40649 0.0
H137 H 0.49452 0.30708 0.45499 0.0
Co138 Co 0.47102 0.30874 0.4013 0.0
C139 C 0.4766 0.32877 0.34529 0.0
O140 O 0.45312 0.32615 0.34624 0.0
N141 N 0.43682 0.29065 0.38709 0.0
C142 C 0.39412 0.27329 0.37867 0.0
C143 C 0.41489 0.29126 0.39385 0.0
C144 C 0.42869 0.27199 0.36795 0.0
N145 N 0.4029 0.26109 0.36255 0.0
O146 O 0.47539 0.27961 0.39411 0.0
H147 H 0.4136 0.30362 0.40895 0.0
H148 H 0.44163 0.26679 0.35776 0.0
O149 O 0.48556 0.32262 0.36576 0.0
C150 C 0.46786 0.26125 0.41124 0.0
O151 O 0.45504 0.26169 0.43262 0.0
N152 N 0.46774 0.33772 0.41027 0.0
C153 C 0.46932 0.38108 0.43418 0.0
C154 C 0.48106 0.38328 0.40916 0.0
C155 C 0.48057 0.36154 0.39782 0.0
C156 C 0.45624 0.33524 0.43466 0.0
C157 C 0.45648 0.35661 0.44687 0.0
H158 H 0.49233 0.36477 0.38021 0.0
H159 H 0.4476 0.31668 0.44511 0.0
H160 H 0.53032 0.35265 0.38665 0.0
H161 H 0.54507 0.3365 0.46517 0.0
H162 H 0.37405 0.26914 0.37982 0.0
H163 H 0.49222 0.40207 0.3993 0.0
H164 H 0.44751 0.3542 0.46643 0.0
C165 C 0.67826 0.16043 0.41619 0.0
C166 C 0.66216 0.16947 0.4253 0.0
N167 N 0.64357 0.16392 0.40656 0.0
N168 N 0.6698 0.14931 0.39187 0.0
C169 C 0.64858 0.15164 0.38665 0.0
H170 H 0.69463 0.16126 0.42693 0.0
Co171 Co 0.68266 0.13142 0.37243 0.0
C172 C 0.6604 0.12579 0.31634 0.0
O173 O 0.66662 0.10834 0.30864 0.0
N174 N 0.69609 0.11304 0.35345 0.0
C175 C 0.70298 0.08203 0.33648 0.0
C176 C 0.68791 0.08713 0.3538 0.0
C177 C 0.71649 0.1232 0.33613 0.0
N178 N 0.72099 0.10482 0.32558 0.0
O179 O 0.71275 0.16404 0.36388 0.0
H180 H 0.67176 0.07253 0.36546 0.0
H181 H 0.72721 0.14356 0.33027 0.0
O182 O 0.66579 0.13506 0.34016 0.0
C183 C 0.73263 0.17334 0.37929 0.0
O184 O 0.73318 0.15865 0.39889 0.0
N185 N 0.6531 0.10036 0.38285 0.0
C186 C 0.60946 0.06615 0.41277 0.0
C187 C 0.60667 0.07225 0.38613 0.0
C188 C 0.6288 0.08945 0.37143 0.0
C189 C 0.65639 0.09271 0.40769 0.0
C190 C 0.63481 0.07542 0.42298 0.0
H191 H 0.62581 0.09551 0.35198 0.0
H192 H 0.67578 0.10178 0.41649 0.0
H193 H 0.63614 0.14331 0.36926 0.0
H194 H 0.66388 0.17919 0.44423 0.0
H195 H 0.70081 0.0631 0.33211 0.0
H196 H 0.58752 0.06573 0.37745 0.0
H197 H 0.6379 0.07077 0.44324 0.0
C198 C 0.5097 0.85249 0.94371 0.0
C199 C 0.48438 0.84423 0.95158 0.0
N200 N 0.4685 0.83417 0.92999 0.0
N201 N 0.50991 0.84791 0.91724 0.0
C202 C 0.48457 0.83632 0.90958 0.0
H203 H 0.52699 0.86213 0.95623 0.0
Co204 Co 0.53935 0.85853 0.89594 0.0
C205 C 0.51757 0.85196 0.84133 0.0
O206 O 0.53023 0.84007 0.83352 0.0
N207 N 0.56907 0.8694 0.8749 0.0
C208 C 0.60074 0.89015 0.84494 0.0
C209 C 0.58056 0.89039 0.85849 0.0
C210 C 0.58284 0.85703 0.87139 0.0
N211 N 0.60202 0.86898 0.85292 0.0
O212 O 0.52737 0.82289 0.88746 0.0
H213 H 0.57387 0.90426 0.85556 0.0
H214 H 0.57824 0.839 0.88147 0.0
O215 O 0.52027 0.86056 0.86526 0.0
C216 C 0.52924 0.80836 0.90518 0.0
O217 O 0.54108 0.81886 0.92799 0.0
N218 N 0.55078 0.89301 0.90552 0.0
C219 C 0.56186 0.93864 0.93218 0.0
C220 C 0.54392 0.92938 0.91082 0.0
C221 C 0.5384 0.90632 0.8979 0.0
C222 C 0.56982 0.9028 0.92472 0.0
C223 C 0.57562 0.92564 0.93849 0.0
H224 H 0.5228 0.89842 0.88327 0.0
H225 H 0.5791 0.89173 0.93072 0.0
H226 H 0.47819 0.82994 0.88925 0.0
H227 H 0.47846 0.84653 0.97147 0.0
H228 H 0.61229 0.9035 0.82906 0.0
H229 H 0.53249 0.93854 0.9057 0.0
H230 H 0.58955 0.93218 0.95494 0.0
C231 C 0.16644 0.66926 0.93959 0.0
C232 C 0.17464 0.65136 0.94343 0.0
N233 N 0.17356 0.64003 0.91961 0.0
N234 N 0.16028 0.66923 0.9135 0.0
C235 C 0.1648 0.65122 0.90185 0.0
H236 H 0.16464 0.68122 0.95491 0.0
Co237 Co 0.14646 0.68874 0.89913 0.0
C238 C 0.13688 0.67365 0.84105 0.0
O239 O 0.11619 0.67654 0.83985 0.0
N240 N 0.13266 0.70899 0.88516 0.0
C241 C 0.10832 0.72705 0.87507 0.0
C242 C 0.10974 0.70824 0.8902 0.0
C243 C 0.14488 0.72865 0.86723 0.0
N244 N 0.13055 0.7399 0.86075 0.0
O245 O 0.18105 0.71738 0.89532 0.0
H246 H 0.09472 0.69495 0.90379 0.0
H247 H 0.16367 0.73407 0.85834 0.0
O248 O 0.14942 0.67773 0.86312 0.0
C249 C 0.19194 0.73293 0.91487 0.0
O250 O 0.178 0.73049 0.93639 0.0
N251 N 0.11302 0.66002 0.90476 0.0
C252 C 0.07141 0.6149 0.92662 0.0
C253 C 0.0812 0.61445 0.90111 0.0
C254 C 0.10228 0.6371 0.8907 0.0
C255 C 0.1031 0.66103 0.92915 0.0
C256 C 0.08203 0.63879 0.94031 0.0
H257 H 0.11115 0.63514 0.87268 0.0
H258 H 0.11267 0.67892 0.9407 0.0
H259 H 0.16083 0.64564 0.88095 0.0
H260 H 0.1809 0.64708 0.96229 0.0
H261 H 0.0923 0.73107 0.87477 0.0
H262 H 0.07423 0.59627 0.89027 0.0
H263 H 0.0751 0.64 0.9601 0.0
C264 C 0.33341 0.49257 0.92676 0.0
C265 C 0.3502 0.5184 0.93296 0.0
N266 N 0.35909 0.53188 0.90979 0.0
N267 N 0.33178 0.48978 0.89985 0.0
C268 C 0.3475 0.51406 0.89005 0.0
H269 H 0.32332 0.4767 0.94092 0.0
Co270 Co 0.31269 0.45806 0.88232 0.0
C271 C 0.33587 0.46833 0.82683 0.0
O272 O 0.3333 0.44502 0.82479 0.0
N273 N 0.29258 0.42513 0.86517 0.0
C274 C 0.27828 0.38584 0.84651 0.0
C275 C 0.29845 0.406 0.86044 0.0
C276 C 0.26836 0.41555 0.85448 0.0
N277 N 0.25935 0.3919 0.84322 0.0
O278 O 0.28605 0.46662 0.87591 0.0
H279 H 0.31671 0.4069 0.86551 0.0
H280 H 0.25764 0.42597 0.85378 0.0
O281 O 0.3284 0.47473 0.84813 0.0
C282 C 0.27011 0.46351 0.89467 0.0
O283 O 0.27089 0.45207 0.91706 0.0
N284 N 0.33948 0.45098 0.89055 0.0
C285 C 0.38036 0.44864 0.91606 0.0
C286 C 0.38512 0.46455 0.89343 0.0
C287 C 0.36452 0.46582 0.88126 0.0
C288 C 0.33427 0.43454 0.91185 0.0
C289 C 0.35445 0.4329 0.92483 0.0
H290 H 0.36937 0.48062 0.86614 0.0
H291 H 0.31456 0.42385 0.91976 0.0
H292 H 0.35109 0.51854 0.86888 0.0
H293 H 0.35541 0.52656 0.95297 0.0
H294 H 0.27778 0.36846 0.83884 0.0
H295 H 0.40491 0.47774 0.88662 0.0
H296 H 0.35001 0.42054 0.94241 0.0
C297 C 0.16871 0.5147 0.55763 0.0
C298 C 0.17738 0.54051 0.55144 0.0
N299 N 0.16969 0.55071 0.57121 0.0
N300 N 0.1557 0.50878 0.58119 0.0
C301 C 0.15637 0.53105 0.58876 0.0
H302 H 0.17166 0.50115 0.54565 0.0
Co303 Co 0.1395 0.47653 0.59868 0.0
C304 C 0.16559 0.51099 0.64544 0.0
O305 O 0.18887 0.51741 0.63606 0.0
N306 N 0.12372 0.44452 0.61576 0.0
C307 C 0.09937 0.40223 0.62512 0.0
C308 C 0.10418 0.42153 0.60657 0.0
C309 C 0.13058 0.4389 0.63959 0.0
N310 N 0.11601 0.41333 0.64592 0.0
O311 O 0.17251 0.47835 0.60193 0.0
H312 H 0.09436 0.41895 0.58748 0.0
H313 H 0.14671 0.45321 0.65158 0.0
O314 O 0.14503 0.49448 0.63286 0.0
C315 C 0.18253 0.46987 0.58493 0.0
O316 O 0.16894 0.45719 0.56363 0.0
N317 N 0.10703 0.47486 0.59518 0.0
C318 C 0.06755 0.48703 0.59012 0.0
C319 C 0.07228 0.47908 0.61498 0.0
C320 C 0.09221 0.47292 0.61709 0.0
C321 C 0.10028 0.47916 0.57027 0.0
C322 C 0.08086 0.48589 0.56734 0.0
H323 H 0.09686 0.46831 0.63665 0.0
H324 H 0.11156 0.47968 0.55292 0.0
H325 H 0.14688 0.53277 0.6066 0.0
H326 H 0.1889 0.55108 0.53409 0.0
H327 H 0.08489 0.3817 0.62337 0.0
H328 H 0.06207 0.47952 0.63288 0.0
H329 H 0.07731 0.49161 0.54777 0.0
C330 C 0.49251 0.67515 0.55708 0.0
C331 C 0.46671 0.65727 0.55166 0.0
N332 N 0.45619 0.64227 0.57367 0.0
N333 N 0.49821 0.67146 0.58237 0.0
C334 C 0.47571 0.65134 0.592 0.0
H335 H 0.50638 0.68976 0.5434 0.0
Co336 Co 0.53114 0.6901 0.59769 0.0
C337 C 0.52518 0.66518 0.65182 0.0
O338 O 0.54837 0.66713 0.65027 0.0
N339 N 0.56482 0.70976 0.61249 0.0
C340 C 0.60803 0.73263 0.61889 0.0
C341 C 0.58837 0.71711 0.60121 0.0
C342 C 0.57079 0.72174 0.63666 0.0
N343 N 0.59682 0.73525 0.64126 0.0
O344 O 0.5235 0.71659 0.6074 0.0
H345 H 0.59148 0.71214 0.58126 0.0
H346 H 0.55625 0.72082 0.65057 0.0
O347 O 0.51692 0.67339 0.63243 0.0
C348 C 0.52946 0.73555 0.5914 0.0
O349 O 0.5435 0.73791 0.56998 0.0
N350 N 0.53782 0.66372 0.58637 0.0
C351 C 0.54284 0.62468 0.5604 0.0
C352 C 0.52904 0.61949 0.5846 0.0
C353 C 0.52615 0.63902 0.59686 0.0
C354 C 0.55074 0.66891 0.56245 0.0
C355 C 0.55384 0.64979 0.54927 0.0
H356 H 0.51282 0.63331 0.61352 0.0
H357 H 0.55759 0.68767 0.55287 0.0
H358 H 0.47381 0.64292 0.61176 0.0
H359 H 0.4565 0.65558 0.53301 0.0
H360 H 0.62888 0.7412 0.61561 0.0
H361 H 0.51893 0.59995 0.59304 0.0
H362 H 0.56393 0.65433 0.53013 0.0
C363 C 0.33962 0.86419 0.56072 0.0
C364 C 0.35509 0.854 0.55279 0.0
N365 N 0.35964 0.84301 0.57441 0.0
N366 N 0.33468 0.85983 0.58723 0.0
C367 C 0.34675 0.84656 0.59487 0.0
H368 H 0.33303 0.87476 0.54817 0.0
Co369 Co 0.31724 0.87196 0.60866 0.0
C370 C 0.32888 0.86098 0.66333 0.0
O371 O 0.3042 0.85056 0.67045 0.0
N372 N 0.29978 0.88433 0.63003 0.0
C373 C 0.29122 0.90589 0.66117 0.0
C374 C 0.31065 0.90521 0.64659 0.0
C375 C 0.27379 0.87296 0.63456 0.0
N376 N 0.268 0.88539 0.65378 0.0
O377 O 0.29061 0.83667 0.6148 0.0
H378 H 0.33147 0.9182 0.64914 0.0
H379 H 0.25943 0.85512 0.62489 0.0
O380 O 0.33603 0.87034 0.63977 0.0
C381 C 0.2748 0.82547 0.59543 0.0
O382 O 0.27634 0.83943 0.57416 0.0
N383 N 0.3432 0.90606 0.60097 0.0
C384 C 0.38179 0.95126 0.5765 0.0
C385 C 0.38819 0.93946 0.59738 0.0
C386 C 0.36862 0.91665 0.60921 0.0
C387 C 0.33629 0.91833 0.58219 0.0
C388 C 0.35536 0.94103 0.56957 0.0
H389 H 0.37443 0.90669 0.62345 0.0
H390 H 0.31611 0.90935 0.57563 0.0
H391 H 0.34691 0.84044 0.61531 0.0
H392 H 0.36266 0.85498 0.53277 0.0
H393 H 0.29422 0.91922 0.67746 0.0
H394 H 0.4084 0.94642 0.60294 0.0
H395 H 0.3497 0.9496 0.55349 0.0
C396 C 0.63288 0.11767 0.27504 0.0
C397 C 0.64344 0.13163 0.299 0.0
C398 C 0.61494 0.1214 0.25999 0.0
C399 C 0.56621 0.14244 0.26727 0.0
H400 H 0.56737 0.14343 0.18934 0.0
C401 C 0.50844 0.1565 0.17078 0.0
C402 C 0.4823 0.13877 0.1778 0.0
C403 C 0.52913 0.15859 0.18641 0.0
C404 C 0.5669 0.14345 0.2111 0.0
H405 H 0.6445 0.16159 0.32504 0.0
H406 H 0.61295 0.16779 0.29895 0.0
H407 H 0.60245 0.14206 0.2141 0.0
H408 H 0.45742 0.1104 0.20765 0.0
H409 H 0.49356 0.11418 0.23506 0.0
H410 H 0.53054 0.14366 0.26424 0.0
C411 C 0.61826 0.15367 0.29206 0.0
C412 C 0.58687 0.1424 0.22527 0.0
C413 C 0.63636 0.15009 0.30701 0.0
C414 C 0.47731 0.12422 0.20164 0.0
C415 C 0.49804 0.12642 0.21738 0.0
C416 C 0.54614 0.14332 0.25309 0.0
C417 C 0.60709 0.13912 0.26856 0.0
C418 C 0.58665 0.14168 0.25351 0.0
C419 C 0.52418 0.1432 0.2096 0.0
C420 C 0.54615 0.14365 0.22483 0.0
H421 H 0.6379 0.10332 0.26824 0.0
H422 H 0.60654 0.10974 0.24208 0.0
H423 H 0.56536 0.14168 0.28902 0.0
H424 H 0.51299 0.16843 0.15286 0.0
H425 H 0.54904 0.17207 0.18015 0.0
C426 C 0.84602 0.35379 0.16018 0.0
C427 C 0.83949 0.32815 0.16722 0.0
C428 C 0.84908 0.37185 0.17992 0.0
C429 C 0.8657 0.38724 0.2508 0.0
H430 H 0.83787 0.43395 0.24064 0.0
C431 C 0.9009 0.48066 0.31344 0.0
C432 C 0.88149 0.48517 0.32423 0.0
C433 C 0.89441 0.461 0.29443 0.0
C434 C 0.84561 0.42093 0.24382 0.0
H435 H 0.83092 0.30137 0.20058 0.0
H436 H 0.83657 0.33315 0.2352 0.0
H437 H 0.82808 0.39958 0.20768 0.0
H438 H 0.84013 0.47302 0.32298 0.0
H439 H 0.82889 0.43886 0.28939 0.0
H440 H 0.88342 0.40871 0.2868 0.0
C441 C 0.83929 0.33916 0.21431 0.0
C442 C 0.84017 0.4014 0.22489 0.0
C443 C 0.83597 0.32096 0.1945 0.0
C444 C 0.85556 0.4701 0.31497 0.0
C445 C 0.84911 0.45055 0.29575 0.0
C446 C 0.87134 0.40691 0.26958 0.0
C447 C 0.84591 0.3648 0.20719 0.0
C448 C 0.85034 0.38449 0.22808 0.0
C449 C 0.86842 0.44555 0.28562 0.0
C450 C 0.86155 0.4241 0.26616 0.0
H451 H 0.84885 0.36004 0.13938 0.0
H452 H 0.85449 0.39155 0.17384 0.0
H453 H 0.87396 0.37462 0.25369 0.0
H454 H 0.92106 0.49188 0.32013 0.0
H455 H 0.90976 0.45783 0.28666 0.0
C456 C 0.64256 0.478 0.18306 0.0
C457 C 0.6396 0.50003 0.1795 0.0
C458 C 0.62613 0.45794 0.20066 0.0
C459 C 0.56087 0.42367 0.22463 0.0
H460 H 0.58476 0.40759 0.29082 0.0
C461 C 0.48821 0.35904 0.30604 0.0
C462 C 0.49464 0.34421 0.32327 0.0
C463 C 0.50627 0.37601 0.28722 0.0
C464 C 0.57775 0.41134 0.27215 0.0
H465 H 0.61725 0.51838 0.19167 0.0
H466 H 0.5881 0.4829 0.22179 0.0
H467 H 0.61642 0.44142 0.26078 0.0
H468 H 0.52472 0.33472 0.33347 0.0
H469 H 0.55588 0.36347 0.29973 0.0
H470 H 0.52244 0.39336 0.23515 0.0
C471 C 0.60339 0.48147 0.21123 0.0
C472 C 0.59592 0.43087 0.25511 0.0
C473 C 0.62015 0.50176 0.19413 0.0
C474 C 0.51922 0.34598 0.32053 0.0
C475 C 0.53718 0.36269 0.30134 0.0
C476 C 0.54279 0.40379 0.24131 0.0
C477 C 0.60616 0.45936 0.21447 0.0
C478 C 0.58749 0.43748 0.23152 0.0
C479 C 0.53113 0.3783 0.28471 0.0
C480 C 0.55085 0.39771 0.26564 0.0
H481 H 0.65738 0.47615 0.17203 0.0
H482 H 0.6285 0.44098 0.20289 0.0
H483 H 0.55406 0.42833 0.20632 0.0
H484 H 0.46956 0.35837 0.30776 0.0
H485 H 0.50094 0.38801 0.2753 0.0
C486 C 0.4998 0.85063 0.79514 0.0
C487 C 0.49898 0.85416 0.82297 0.0
C488 C 0.48176 0.85218 0.77799 0.0
C489 C 0.41586 0.84233 0.77579 0.0
H490 H 0.4396 0.88877 0.71415 0.0
C491 C 0.34321 0.85682 0.70973 0.0
C492 C 0.34843 0.86103 0.68209 0.0
C493 C 0.36176 0.85667 0.72726 0.0
C494 C 0.43251 0.87532 0.73097 0.0
H495 H 0.4786 0.86207 0.85464 0.0
H496 H 0.44667 0.86395 0.82473 0.0
H497 H 0.47159 0.8865 0.74349 0.0
H498 H 0.37714 0.86816 0.65112 0.0
H499 H 0.4087 0.86657 0.68121 0.0
H500 H 0.37683 0.83027 0.76296 0.0
C501 C 0.46141 0.86022 0.81623 0.0
C502 C 0.45092 0.87419 0.74784 0.0
C503 C 0.47976 0.85924 0.83329 0.0
C504 C 0.37251 0.86498 0.67233 0.0
C505 C 0.39079 0.86431 0.68972 0.0
C506 C 0.3974 0.84306 0.75864 0.0
C507 C 0.46227 0.85674 0.78844 0.0
C508 C 0.44276 0.85775 0.77043 0.0
C509 C 0.38577 0.86026 0.71748 0.0
C510 C 0.40545 0.85961 0.73598 0.0
H511 H 0.51441 0.84675 0.78659 0.0
H512 H 0.48273 0.84934 0.75661 0.0
H513 H 0.4091 0.82932 0.79299 0.0
H514 H 0.32491 0.85392 0.71788 0.0
H515 H 0.3573 0.854 0.74852 0.0
C516 C 0.13948 0.52631 0.67139 0.0
C517 C 0.16318 0.52644 0.66748 0.0
C518 C 0.13787 0.54305 0.69006 0.0
C519 C 0.16769 0.58136 0.75075 0.0
H520 H 0.13675 0.62241 0.72655 0.0
C521 C 0.16558 0.65904 0.81904 0.0
C522 C 0.14251 0.66056 0.81884 0.0
C523 C 0.16964 0.64429 0.79973 0.0
C524 C 0.14516 0.6109 0.73378 0.0
H525 H 0.20353 0.54365 0.68077 0.0
H526 H 0.2005 0.57259 0.71391 0.0
H527 H 0.14011 0.59231 0.69557 0.0
H528 H 0.10593 0.64829 0.79778 0.0
H529 H 0.1127 0.62217 0.7645 0.0
H530 H 0.17209 0.59925 0.78916 0.0
C531 C 0.18327 0.55959 0.70232 0.0
C532 C 0.14714 0.59371 0.71598 0.0
C533 C 0.18499 0.54306 0.68334 0.0
C534 C 0.12399 0.64768 0.79841 0.0
C535 C 0.12794 0.63273 0.77924 0.0
C536 C 0.16545 0.59834 0.76867 0.0
C537 C 0.15982 0.56007 0.70549 0.0
C538 C 0.15829 0.57867 0.72433 0.0
C539 C 0.15066 0.63054 0.77986 0.0
C540 C 0.15403 0.61326 0.76046 0.0
H541 H 0.12233 0.5139 0.65942 0.0
H542 H 0.11947 0.54281 0.69233 0.0
H543 H 0.17619 0.56984 0.75775 0.0
H544 H 0.18035 0.66892 0.83441 0.0
H545 H 0.18762 0.64353 0.80053 0.0
C546 C 0.51105 0.63095 0.68758 0.0
C547 C 0.50656 0.64871 0.67296 0.0
C548 C 0.49216 0.61326 0.70537 0.0
C549 C 0.42093 0.58264 0.7212 0.0
H550 H 0.44115 0.55614 0.78266 0.0
C551 C 0.3517 0.51231 0.80563 0.0
C552 C 0.35259 0.48899 0.80743 0.0
C553 C 0.36942 0.53284 0.7892 0.0
C554 C 0.4353 0.56345 0.76556 0.0
H555 H 0.47923 0.66263 0.66637 0.0
H556 H 0.44677 0.63266 0.69839 0.0
H557 H 0.47486 0.59164 0.75595 0.0
H558 H 0.37256 0.46881 0.79324 0.0
H559 H 0.40387 0.50495 0.76516 0.0
H560 H 0.38119 0.55468 0.73172 0.0
C561 C 0.46446 0.63168 0.69546 0.0
C562 C 0.45457 0.58365 0.75008 0.0
C563 C 0.48319 0.64908 0.67728 0.0
C564 C 0.37121 0.48643 0.79213 0.0
C565 C 0.38924 0.50712 0.77621 0.0
C566 C 0.40162 0.56279 0.73711 0.0
C567 C 0.46846 0.61317 0.70943 0.0
C568 C 0.44773 0.5932 0.72731 0.0
C569 C 0.38863 0.53054 0.77481 0.0
C570 C 0.40872 0.55276 0.75908 0.0
H571 H 0.52872 0.62995 0.6845 0.0
H572 H 0.49588 0.59907 0.7152 0.0
H573 H 0.41477 0.58907 0.70367 0.0
H574 H 0.33757 0.51483 0.81721 0.0
H575 H 0.36868 0.5508 0.78839 0.0
C576 C 0.47198 0.05953 0.03219 0.0
C577 C 0.45938 0.05068 0.05714 0.0
C578 C 0.48582 0.04851 0.02087 0.0
C579 C 0.49543 0.99141 0.02412 0.0
H580 H 0.56096 0.03878 0.98855 0.0
C581 C 0.55783 0.95283 0.9781 0.0
C582 C 0.56208 0.95841 0.9505 0.0
C583 C 0.55045 0.96717 0.99449 0.0
C584 C 0.54277 0.02539 -0.00148 0.0
H585 H 0.4504 0.02237 0.08907 0.0
H586 H 0.47518 0.00353 0.06959 0.0
H587 H 0.53556 0.05611 0.00993 0.0
H588 H 0.56469 0.98494 0.91893 0.0
H589 H 0.5519 0.01016 0.94763 0.0
H590 H 0.50257 0.96071 0.01252 0.0
C591 C 0.47415 0.01889 0.0587 0.0
C592 C 0.5281 0.03522 0.01057 0.0
C593 C 0.46008 0.02979 0.06995 0.0
C594 C 0.56137 0.98019 0.94013 0.0
C595 C 0.55414 0.99465 0.95657 0.0
C596 C 0.51021 0.98163 0.01229 0.0
C597 C 0.48766 0.02856 0.03431 0.0
C598 C 0.504 0.01827 0.02304 0.0
C599 C 0.54738 0.98742 0.98357 0.0
C600 C 0.53379 -0.00153 -0.00099 0.0
H601 H 0.47228 0.07585 0.02189 0.0
H602 H 0.49548 0.05599 0.00174 0.0
H603 H 0.47685 0.9778 0.03328 0.0
H604 H 0.55804 0.93602 0.98661 0.0
H605 H 0.54566 0.96146 0.01534 0.0
C606 C 0.93644 0.39244 0.01132 0.0
C607 C 0.93998 0.38969 0.03881 0.0
C608 C 0.95239 0.41615 -0.00175 0.0
C609 C 0.98981 0.48566 0.0149 0.0
H610 H 0.01309 0.49415 0.94085 0.0
C611 C 0.05793 0.58598 0.9671 0.0
C612 C 0.05324 0.59 0.94028 0.0
C613 C 0.04346 0.56143 0.97899 0.0
C614 C 0.0064 0.49199 0.96145 0.0
H615 H 0.9643 0.40851 0.07361 0.0
H616 H 0.9925 0.44983 0.05068 0.0
H617 H 0.99178 0.4507 0.96135 0.0
H618 H 0.02884 0.57173 0.90532 0.0
H619 H 0.00342 0.52867 0.92623 0.0
H620 H 0.0043 0.52685 0.01505 0.0
C621 C 0.97699 0.43394 0.0394 0.0
C622 C 0.99434 0.46718 0.9732 0.0
C623 C 0.961 0.41029 0.05247 0.0
C624 C 0.03305 0.56915 0.92594 0.0
C625 C 0.01861 0.54452 0.93784 0.0
C626 C 0.00185 0.51042 0.00318 0.0
C627 C 0.97216 0.43745 0.01247 0.0
C628 C 0.986 0.46378 8e-05 0.0
C629 C 0.02403 0.54032 0.96432 0.0
C630 C 0.0103 0.51385 0.97636 0.0
H631 H 0.92019 0.37694 0.00039 0.0
H632 H 0.94811 0.41829 0.97752 0.0
H633 H 0.98302 0.48358 0.03546 0.0
H634 H 0.07369 0.60145 0.97854 0.0
H635 H 0.04829 0.55871 -0.00068 0.0
C636 C 0.42564 0.45521 0.92036 0.0
C637 C 0.40277 0.45207 0.93262 0.0
C638 C 0.44862 0.464 0.93528 0.0
C639 C 0.48039 0.50405 0.99453 0.0
H640 H 0.53004 0.47973 0.98568 0.0
C641 C 0.57051 0.53572 0.06298 0.0
C642 C 0.59336 0.53818 0.05137 0.0
C643 C 0.54783 0.52715 0.04761 0.0
C644 C 0.51655 0.48701 0.98804 0.0
H645 H 0.38563 0.45421 0.97041 0.0
H646 H 0.42558 0.46894 0.99655 0.0
H647 H 0.48833 0.45781 0.96174 0.0
H648 H 0.61081 0.53512 0.01418 0.0
H649 H 0.57146 0.52095 0.98721 0.0
H650 H 0.5086 0.53329 0.02077 0.0
C651 C 0.42584 0.46503 0.97532 0.0
C652 C 0.49262 0.47435 0.97446 0.0
C653 C 0.40286 0.4562 0.96043 0.0
C654 C 0.5936 0.53365 0.02368 0.0
C655 C 0.57094 0.52512 0.00832 0.0
C656 C 0.50434 0.51675 0.00808 0.0
C657 C 0.44915 0.46985 0.96271 0.0
C658 C 0.47426 0.48268 0.97765 0.0
C659 C 0.54758 0.52093 0.02032 0.0
C660 C 0.52266 0.50834 0.00501 0.0
H661 H 0.42606 0.45201 0.89898 0.0
H662 H 0.4663 0.46755 0.92501 0.0
H663 H 0.46685 0.51127 0.99694 0.0
H664 H 0.56983 0.53926 0.08424 0.0
H665 H 0.53013 0.52408 0.05748 0.0
C666 C 0.02481 0.4864 0.59342 0.0
C667 C 0.05183 0.50004 0.58849 0.0
C668 C 0.01017 0.49899 0.59028 0.0
C669 C 0.01382 0.55461 0.55299 0.0
H670 H 0.94943 0.53598 0.59102 0.0
C671 C 0.94752 0.58653 0.50799 0.0
C672 C 0.92293 0.56467 0.50252 0.0
C673 C 0.96319 0.58546 0.52848 0.0
C674 C 0.96751 0.54158 0.58041 0.0
H675 H 0.08529 0.53761 0.57853 0.0
H676 H 0.06009 0.55989 0.57394 0.0
H677 H 0.97801 0.51983 0.60726 0.0
H678 H 0.89392 0.52607 0.51633 0.0
H679 H 0.92131 0.52393 0.5516 0.0
H680 H 0.0031 0.5753 0.52551 0.0
C681 C 0.04985 0.53933 0.5792 0.0
C682 C 0.98378 0.5322 0.58959 0.0
C683 C 0.06431 0.52665 0.58185 0.0
C684 C 0.91281 0.54323 0.52016 0.0
C685 C 0.92859 0.54201 0.54044 0.0
C686 C 0.99772 0.56402 0.54396 0.0
C687 C 0.02249 0.52551 0.58259 0.0
C688 C 0.00678 0.53804 0.57551 0.0
C689 C 0.95464 0.56235 0.54345 0.0
C690 C 0.97399 0.55705 0.55704 0.0
H691 H 0.01495 0.46586 0.59877 0.0
H692 H 0.98912 0.48766 0.59278 0.0
H693 H 0.03104 0.55914 0.54126 0.0
H694 H 0.95559 0.60343 0.49483 0.0
H695 H 0.98292 0.60176 0.53087 0.0
C696 C 0.48189 0.40926 0.47505 0.0
C697 C 0.47353 0.40494 0.44815 0.0
C698 C 0.48978 0.43337 0.48712 0.0
C699 C 0.51619 0.50239 0.46944 0.0
H700 H 0.50004 0.50873 0.54358 0.0
C701 C 0.53497 0.59888 0.51829 0.0
C702 C 0.54238 0.60286 0.54548 0.0
C703 C 0.52935 0.5756 0.50558 0.0
C704 C 0.50505 0.50726 0.52297 0.0
H705 H 0.46541 0.4218 0.41324 0.0
H706 H 0.47894 0.46392 0.43447 0.0
H707 H 0.48192 0.46553 0.5235 0.0
H708 H 0.55186 0.58677 0.58008 0.0
H709 H 0.54226 0.54614 0.55779 0.0
H710 H 0.53915 0.54419 0.46891 0.0
C711 C 0.47991 0.44885 0.44601 0.0
C712 C 0.49458 0.48253 0.51146 0.0
C713 C 0.47205 0.42475 0.43393 0.0
C714 C 0.54584 0.58399 0.55919 0.0
C715 C 0.54024 0.56074 0.54649 0.0
C716 C 0.52664 0.52715 0.48096 0.0
C717 C 0.48942 0.45359 0.47252 0.0
C718 C 0.50001 0.47984 0.48457 0.0
C719 C 0.53106 0.55596 0.51987 0.0
C720 C 0.52117 0.5298 0.50784 0.0
H721 H 0.48364 0.39451 0.48636 0.0
H722 H 0.49725 0.43653 0.5075 0.0
H723 H 0.52109 0.50089 0.4488 0.0
H724 H 0.53184 0.61297 0.50733 0.0
H725 H 0.52216 0.57238 0.48509 0.0
C726 C 0.5618 0.0342 0.42128 0.0
C727 C 0.58634 0.0537 0.43081 0.0
C728 C 0.53946 0.02526 0.43727 0.0
C729 C 0.51748 0.02098 0.50692 0.0
H730 H 0.45536 0.01648 0.47465 0.0
C731 C 0.42625 0.99068 0.57063 0.0
C732 C 0.40293 0.97084 0.55924 0.0
C733 C 0.44841 0.00501 0.55465 0.0
C734 C 0.47251 0.01754 0.48392 0.0
H735 H 0.60658 0.07882 0.46484 0.0
H736 H 0.56782 0.06267 0.49283 0.0
H737 H 0.49465 0.03063 0.44744 0.0
H738 H 0.38398 0.95158 0.52201 0.0
H739 H 0.42253 0.97631 0.49424 0.0
H740 H 0.49533 0.00722 0.54314 0.0
C741 C 0.5659 0.05427 0.47305 0.0
C742 C 0.49494 0.02553 0.46832 0.0
C743 C 0.58816 0.06335 0.45703 0.0
C744 C 0.40158 0.96698 0.5313 0.0
C745 C 0.42376 0.98116 0.51537 0.0
C746 C 0.49503 0.01281 0.52245 0.0
C747 C 0.54128 0.0355 0.46315 0.0
C748 C 0.51755 0.02713 0.47965 0.0
C749 C 0.44769 -0.00041 0.52705 0.0
C750 C 0.47221 0.01081 0.5111 0.0
H751 H 0.55977 0.02617 0.40129 0.0
H752 H 0.52072 0.01045 0.42934 0.0
H753 H 0.53459 0.02185 0.51608 0.0
H754 H 0.42769 0.99419 0.59209 0.0
H755 H 0.46641 0.01953 0.56413 0.0
C756 C 0.36671 0.23945 0.32968 0.0
C757 C 0.38816 0.24066 0.34343 0.0
C758 C 0.35413 0.22105 0.30926 0.0
C759 C 0.35017 0.16181 0.27779 0.0
H760 H 0.34632 0.19377 0.21108 0.0
C761 C 0.35213 0.11612 0.17745 0.0
C762 C 0.37206 0.13441 0.16066 0.0
C763 C 0.34272 0.12457 0.19872 0.0
C764 C 0.34702 0.18442 0.22958 0.0
H765 H 0.41198 0.2224 0.348 0.0
H766 H 0.39071 0.19094 0.31219 0.0
H767 H 0.35134 0.21641 0.25337 0.0
H768 H 0.39589 0.17561 0.15129 0.0
H769 H 0.38025 0.19039 0.18856 0.0
H770 H 0.34837 0.13102 0.25386 0.0
C771 C 0.38331 0.20392 0.31714 0.0
C772 C 0.3496 0.19727 0.25389 0.0
C773 C 0.39585 0.22227 0.3374 0.0
C774 C 0.38095 0.16111 0.16427 0.0
C775 C 0.3716 0.16954 0.18543 0.0
C776 C 0.34784 0.14908 0.25348 0.0
C777 C 0.36268 0.20344 0.3024 0.0
C778 C 0.35266 0.18676 0.27809 0.0
C779 C 0.35302 0.15144 0.20348 0.0
C780 C 0.34771 0.16096 0.22899 0.0
H781 H 0.36037 0.2534 0.33393 0.0
H782 H 0.3382 0.22107 0.29838 0.0
H783 H 0.35183 0.15291 0.2962 0.0
H784 H 0.34486 0.0954 0.17507 0.0
H785 H 0.32818 0.11012 0.21209 0.0
C786 C 0.76455 0.13144 0.30547 0.0
C787 C 0.73975 0.10887 0.30508 0.0
C788 C 0.7816 0.13735 0.28384 0.0
C789 C 0.77759 0.13202 0.21254 0.0
H790 H 0.85337 0.16742 0.21739 0.0
C791 C 0.83873 0.20465 0.13113 0.0
C792 C 0.85723 0.22896 0.14194 0.0
C793 C 0.82815 0.18207 0.147 0.0
C794 C 0.83223 0.15747 0.2156 0.0
H795 H 0.71366 0.07406 0.28257 0.0
H796 H 0.74336 0.08478 0.24412 0.0
H797 H 0.8268 0.14113 0.25519 0.0
H798 H 0.88044 0.24824 0.17731 0.0
H799 H 0.86184 0.20945 0.20492 0.0
H800 H 0.78271 0.15013 0.17422 0.0
C801 C 0.74968 0.09767 0.26138 0.0
C802 C 0.81707 0.14232 0.23718 0.0
C803 C 0.73277 0.09153 0.28331 0.0
C804 C 0.8664 0.22986 0.16822 0.0
C805 C 0.85572 0.20742 0.18411 0.0
C806 C 0.79273 0.14744 0.19114 0.0
C807 C 0.77399 0.12096 0.26121 0.0
C808 C 0.78966 0.13051 0.2363 0.0
C809 C 0.83571 0.18341 0.17406 0.0
C810 C 0.82024 0.16148 0.193 0.0
H811 H 0.77035 0.14494 0.32218 0.0
H812 H 0.80007 0.15561 0.28411 0.0
H813 H 0.75649 0.12326 0.2114 0.0
H814 H 0.83169 0.2033 0.11075 0.0
H815 H 0.81317 0.1638 0.13843 0.0
C816 C 0.86654 0.61627 0.3396 0.0
C817 C 0.85416 0.59015 0.34859 0.0
C818 C 0.85263 0.62552 0.3248 0.0
C819 C 0.78594 0.60949 0.30283 0.0
H820 H 0.81889 0.63476 0.23339 0.0
C821 C 0.72885 0.58231 0.20517 0.0
C822 C 0.7378 0.59917 0.1829 0.0
C823 C 0.74268 0.58951 0.2293 0.0
C824 C 0.80957 0.62847 0.25285 0.0
H825 H 0.81675 0.55396 0.35053 0.0
H826 H 0.79271 0.5701 0.32516 0.0
H827 H 0.84453 0.63274 0.27068 0.0
H828 H 0.76738 0.63738 0.16879 0.0
H829 H 0.79183 0.6501 0.21123 0.0
H830 H 0.75061 0.6039 0.28453 0.0
C831 C 0.81318 0.58348 0.32959 0.0
C832 C 0.8243 0.62729 0.27426 0.0
C833 C 0.82708 0.57416 0.34415 0.0
C834 C 0.76013 0.62402 0.18566 0.0
C835 C 0.77414 0.63122 0.20988 0.0
C836 C 0.77124 0.61078 0.28145 0.0
C837 C 0.82598 0.60895 0.319 0.0
C838 C 0.8123 0.61657 0.29906 0.0
C839 C 0.76583 0.61377 0.23176 0.0
C840 C 0.78259 0.61901 0.25588 0.0
H841 H 0.88717 0.62941 0.34323 0.0
H842 H 0.86292 0.64535 0.31713 0.0
H843 H 0.77633 0.60158 0.32189 0.0
H844 H 0.71139 0.56326 0.20376 0.0
H845 H 0.73588 0.57543 0.24559 0.0
C846 C 0.60599 0.83111 0.83866 0.0
C847 C 0.6164 0.85832 0.83982 0.0
C848 C 0.61679 0.8204 0.82151 0.0
C849 C 0.64849 0.83633 0.75643 0.0
H850 H 0.63759 0.7662 0.76377 0.0
C851 C 0.63387 0.77281 0.66378 0.0
C852 C 0.60971 0.74941 0.66522 0.0
C853 C 0.64518 0.78759 0.68696 0.0
C854 C 0.64111 0.78595 0.76147 0.0
H855 H 0.64822 0.89566 0.82626 0.0
H856 H 0.66712 0.87689 0.79611 0.0
H857 H 0.64058 0.79124 0.80396 0.0
H858 H 0.57939 0.72213 0.69202 0.0
H859 H 0.59894 0.74788 0.73241 0.0
H860 H 0.64754 0.83052 0.71398 0.0
C861 C 0.65023 0.86387 0.8081 0.0
C862 C 0.64278 0.80026 0.78444 0.0
C863 C 0.63936 0.87461 0.82529 0.0
C864 C 0.5978 0.74032 0.69035 0.0
C865 C 0.60922 0.75488 0.7135 0.0
C866 C 0.64701 0.8221 0.7335 0.0
C867 C 0.63831 0.83661 0.80512 0.0
C868 C 0.64491 0.82499 0.78209 0.0
C869 C 0.6327 0.77896 0.71197 0.0
C870 C 0.64182 0.79624 0.7358 0.0
H871 H 0.58827 0.81787 0.84937 0.0
H872 H 0.60684 0.79932 0.81956 0.0
H873 H 0.64998 0.85524 0.75378 0.0
H874 H 0.64341 0.78021 0.64461 0.0
H875 H 0.66328 0.80609 0.68525 0.0
C876 C 0.16382 0.77944 0.83753 0.0
C877 C 0.13743 0.76059 0.84158 0.0
C878 C 0.17094 0.79809 0.81727 0.0
C879 C 0.14928 0.80544 0.75121 0.0
H880 H 0.21181 0.87358 0.75681 0.0
C881 C 0.22634 0.84827 0.66992 0.0
C882 C 0.24368 0.87536 0.66828 0.0
C883 C 0.20576 0.83811 0.68831 0.0
C884 C 0.1939 0.85496 0.75478 0.0
H885 H 0.09763 0.74712 0.82835 0.0
H886 H 0.1101 0.77988 0.79267 0.0
H887 H 0.19016 0.84968 0.79741 0.0
H888 H 0.25111 0.91314 0.68248 0.0
H889 H 0.21506 0.89534 0.71476 0.0
H890 H 0.15358 0.81034 0.70854 0.0
C891 C 0.12527 0.78012 0.80522 0.0
C892 C 0.18168 0.84111 0.77812 0.0
C893 C 0.11813 0.76149 0.8257 0.0
C894 C 0.23846 0.89215 0.68373 0.0
C895 C 0.21779 0.88197 0.70217 0.0
C896 C 0.16143 0.81936 0.72783 0.0
C897 C 0.15181 0.79832 0.8005 0.0
C898 C 0.16014 0.81562 0.77655 0.0
C899 C 0.20195 0.85478 0.70549 0.0
C900 C 0.18473 0.84364 0.72937 0.0
H901 H 0.17906 0.77944 0.84973 0.0
H902 H 0.19159 0.81156 0.81396 0.0
H903 H 0.13265 0.78586 0.7493 0.0
H904 H 0.22974 0.83466 0.65855 0.0
H905 H 0.19421 0.81707 0.69047 0.0
C906 C 0.1133 0.37457 0.66846 0.0
C907 C 0.11921 0.40076 0.6693 0.0
C908 C 0.11933 0.36353 0.69033 0.0
C909 C 0.14196 0.37655 0.76193 0.0
H910 H 0.17899 0.34009 0.74287 0.0
C911 C 0.2119 0.37276 0.83794 0.0
C912 C 0.23615 0.37854 0.8272 0.0
C913 C 0.19013 0.3645 0.82118 0.0
C914 C 0.16877 0.35031 0.74861 0.0
H915 H 0.13425 0.43524 0.69443 0.0
H916 H 0.14566 0.41665 0.7318 0.0
H917 H 0.15403 0.34779 0.70878 0.0
H918 H 0.25686 0.3792 0.79124 0.0
H919 H 0.21958 0.36641 0.76148 0.0
H920 H 0.15873 0.38163 0.80084 0.0
C921 C 0.13606 0.40429 0.7146 0.0
C922 C 0.15404 0.35434 0.72909 0.0
C923 C 0.12994 0.41519 0.69291 0.0
C924 C 0.23813 0.37453 0.79981 0.0
C925 C 0.21661 0.36703 0.78286 0.0
C926 C 0.15712 0.37305 0.78124 0.0
C927 C 0.13136 0.3785 0.71344 0.0
C928 C 0.1415 0.36864 0.73523 0.0
C929 C 0.19253 0.36288 0.79317 0.0
C930 C 0.17173 0.36093 0.77455 0.0
H931 H 0.10503 0.36293 0.65054 0.0
H932 H 0.11518 0.34352 0.68887 0.0
H933 H 0.13187 0.38692 0.76759 0.0
H934 H 0.21013 0.37565 0.85915 0.0
H935 H 0.1718 0.36069 0.83008 0.0
C936 C 0.46474 0.22973 0.06731 0.0
C937 C 0.46389 0.21491 0.08982 0.0
C938 C 0.4806 0.25695 0.06748 0.0
C939 C 0.5406 0.30725 0.10013 0.0
H940 H 0.52435 0.35581 0.06427 0.0
C941 C 0.61153 0.41825 0.10206 0.0
C942 C 0.61529 0.43195 0.07781 0.0
C943 C 0.59163 0.39226 0.10445 0.0
C944 C 0.52921 0.34242 0.07417 0.0
H945 H 0.47727 0.21707 0.1309 0.0
H946 H 0.5045 0.2645 0.13135 0.0
H947 H 0.49078 0.30965 0.06771 0.0
H948 H 0.6008 0.42906 0.03713 0.0
H949 H 0.56633 0.38342 0.04112 0.0
H950 H 0.57904 0.33978 0.10632 0.0
C951 C 0.49351 0.2551 0.11331 0.0
C952 C 0.50998 0.31603 0.07619 0.0
C953 C 0.47778 0.22793 0.1131 0.0
C954 C 0.59863 0.419 0.05598 0.0
C955 C 0.57866 0.39296 0.05838 0.0
C956 C 0.55975 0.33356 0.09814 0.0
C957 C 0.4958 0.26984 0.09021 0.0
C958 C 0.51551 0.29814 0.08914 0.0
C959 C 0.575 0.37929 0.08263 0.0
C960 C 0.55432 0.35143 0.08507 0.0
H961 H 0.45426 0.22026 0.04906 0.0
H962 H 0.48201 0.26772 0.04931 0.0
H963 H 0.54571 0.2939 0.10969 0.0
H964 H 0.62415 0.42752 0.11919 0.0
H965 H 0.58917 0.38235 0.12349 0.0
C966 C 0.75073 0.2247 0.06199 0.0
C967 C 0.76662 0.23833 0.08403 0.0
C968 C 0.72348 0.21134 0.06429 0.0
C969 C 0.67196 0.21289 0.10466 0.0
H970 H 0.6261 0.15215 0.06177 0.0
C971 C 0.5599 0.16927 0.10366 0.0
C972 C 0.54865 0.16519 0.0779 0.0
C973 C 0.58557 0.17433 0.10695 0.0
C974 C 0.6387 0.16912 0.07384 0.0
H975 H 0.76645 0.24712 0.1263 0.0
H976 H 0.71882 0.22319 0.13054 0.0
H977 H 0.67287 0.16689 0.06402 0.0
H978 H 0.55515 0.1622 0.03554 0.0
H979 H 0.6001 0.17117 0.04123 0.0
H980 H 0.63781 0.21522 0.11425 0.0
C981 C 0.72741 0.22344 0.11124 0.0
C982 C 0.66548 0.17761 0.07511 0.0
C983 C 0.75472 0.23701 0.10887 0.0
C984 C 0.56339 0.16556 0.05558 0.0
C985 C 0.589 0.1704 0.05888 0.0
C986 C 0.64518 0.20425 0.10358 0.0
C987 C 0.71144 0.21109 0.08876 0.0
C988 C 0.68255 0.19996 0.09007 0.0
C989 C 0.60046 0.1752 0.08456 0.0
C990 C 0.62836 0.18261 0.08773 0.0
H991 H 0.75927 0.22533 0.04255 0.0
H992 H 0.71189 0.20235 0.04646 0.0
H993 H 0.6845 0.23042 0.116 0.0
H994 H 0.54915 0.16932 0.12125 0.0
H995 H 0.59385 0.1778 0.127 0.0
C996 C 0.79128 0.36338 0.08915 0.0
C997 C 0.80417 0.36287 0.06562 0.0
C998 C 0.78522 0.38316 0.09328 0.0
C999 C 0.77653 0.43306 0.05699 0.0
H1000 H 0.78366 0.4627 0.12811 0.0
C1001 C 0.75848 0.51875 0.07475 0.0
C1002 C 0.74158 0.51543 0.09619 0.0
C1003 C 0.76934 0.50256 0.07232 0.0
C1004 C 0.78149 0.45454 0.10817 0.0
H1005 H 0.82102 0.38295 0.02808 0.0
H1006 H 0.81054 0.41747 0.03525 0.0
H1007 H 0.79548 0.42901 0.12081 0.0
H1008 H 0.7242 0.4936 0.13283 0.0
H1009 H 0.74315 0.46535 0.12854 0.0
H1010 H 0.7624 0.45842 0.04437 0.0
C1011 C 0.80471 0.40233 0.05035 0.0
C1012 C 0.78816 0.43517 0.10399 0.0
C1013 C 0.81068 0.38249 0.0462 0.0
C1014 C 0.73711 0.49666 0.11604 0.0
C1015 C 0.74803 0.48049 0.11363 0.0
C1016 C 0.76997 0.45246 0.06114 0.0
C1017 C 0.79197 0.40296 0.07398 0.0
C1018 C 0.78558 0.42406 0.07838 0.0
C1019 C 0.76362 0.48275 0.0913 0.0
C1020 C 0.77222 0.46332 0.0868 0.0
H1021 H 0.7857 0.34837 0.10434 0.0
H1022 H 0.77496 0.38276 0.11147 0.0
H1023 H 0.77389 0.42466 0.03711 0.0
H1024 H 0.76248 0.53314 0.0592 0.0
H1025 H 0.78169 0.50509 0.05516 0.0
C1026 C 0.78532 0.48193 0.39243 0.0
C1027 C 0.79701 0.48067 0.41664 0.0
C1028 C 0.75821 0.4718 0.39093 0.0
C1029 C 0.70008 0.45461 0.4317 0.0
H1030 H 0.66144 0.40112 0.37834 0.0
C1031 C 0.59087 0.38045 0.44427 0.0
C1032 C 0.57465 0.37002 0.42158 0.0
C1033 C 0.61775 0.39739 0.44147 0.0
C1034 C 0.67185 0.41642 0.39301 0.0
H1035 H 0.78965 0.46863 0.45843 0.0
H1036 H 0.74248 0.45148 0.45591 0.0
H1037 H 0.70924 0.42515 0.37729 0.0
H1038 H 0.57427 0.37016 0.37793 0.0
H1039 H 0.62105 0.40045 0.37305 0.0
H1040 H 0.66295 0.44611 0.44749 0.0
C1041 C 0.75424 0.46012 0.43809 0.0
C1042 C 0.69926 0.4301 0.39243 0.0
C1043 C 0.78121 0.46978 0.43947 0.0
C1044 C 0.586 0.37778 0.39591 0.0
C1045 C 0.61296 0.39497 0.3931 0.0
C1046 C 0.67272 0.44123 0.43206 0.0
C1047 C 0.74244 0.46076 0.41376 0.0
C1048 C 0.71359 0.44881 0.4122 0.0
C1049 C 0.62924 0.40473 0.41586 0.0
C1050 C 0.65822 0.4214 0.41322 0.0
H1051 H 0.79702 0.49019 0.3745 0.0
H1052 H 0.74955 0.47257 0.37197 0.0
H1053 H 0.71072 0.46923 0.44695 0.0
H1054 H 0.58293 0.37543 0.46437 0.0
H1055 H 0.62959 0.40412 0.45951 0.0
C1056 C 0.61289 0.17464 0.38393 0.0
C1057 C 0.62222 0.16912 0.40761 0.0
C1058 C 0.59231 0.17991 0.3848 0.0
C1059 C 0.55811 0.20125 0.43179 0.0
H1060 H 0.50887 0.18213 0.37265 0.0
C1061 C 0.47718 0.22827 0.43226 0.0
C1062 C 0.47767 0.24267 0.40952 0.0
C1063 C 0.49054 0.21429 0.43217 0.0
C1064 C 0.52245 0.1875 0.38932 0.0
H1065 H 0.61683 0.16392 0.45066 0.0
H1066 H 0.58043 0.17255 0.45227 0.0
H1067 H 0.54077 0.1672 0.37286 0.0
H1068 H 0.49081 0.2521 0.36819 0.0
H1069 H 0.51391 0.22743 0.36799 0.0
H1070 H 0.5398 0.22159 0.44815 0.0
C1071 C 0.58946 0.17352 0.43305 0.0
C1072 C 0.54084 0.17912 0.3894 0.0
C1073 C 0.61029 0.16856 0.43218 0.0
C1074 C 0.49021 0.24131 0.38608 0.0
C1075 C 0.50333 0.22709 0.38591 0.0
C1076 C 0.53955 0.20934 0.43185 0.0
C1077 C 0.58035 0.17949 0.40939 0.0
C1078 C 0.55924 0.18633 0.41039 0.0
C1079 C 0.50433 0.21417 0.40924 0.0
C1080 C 0.52185 0.20294 0.4104 0.0
H1081 H 0.62194 0.17548 0.36475 0.0
H1082 H 0.58625 0.18495 0.36624 0.0
H1083 H 0.5722 0.20758 0.44806 0.0
H1084 H 0.46763 0.22886 0.45061 0.0
H1085 H 0.49079 0.20424 0.45032 0.0
C1086 C 0.844 0.4116 0.38332 0.0
C1087 C 0.85801 0.42303 0.40711 0.0
C1088 C 0.83276 0.38473 0.37889 0.0
C1089 C 0.8111 0.32254 0.41547 0.0
H1090 H 0.80939 0.29507 0.34429 0.0
C1091 C 0.77111 0.21298 0.39879 0.0
C1092 C 0.75219 0.20158 0.37838 0.0
C1093 C 0.78675 0.24013 0.4006 0.0
C1094 C 0.80968 0.30249 0.36425 0.0
H1095 H 0.87119 0.41497 0.4448 0.0
H1096 H 0.85235 0.36843 0.43675 0.0
H1097 H 0.83111 0.34234 0.35109 0.0
H1098 H 0.73604 0.20972 0.34283 0.0
H1099 H 0.76347 0.25715 0.34596 0.0
H1100 H 0.78971 0.28276 0.42863 0.0
C1101 C 0.84962 0.38013 0.4217 0.0
C1102 C 0.82201 0.32955 0.36815 0.0
C1103 C 0.86072 0.40694 0.42619 0.0
C1104 C 0.75038 0.21788 0.35885 0.0
C1105 C 0.76615 0.24506 0.36058 0.0
C1106 C 0.79898 0.29557 0.4116 0.0
C1107 C 0.83534 0.36863 0.39808 0.0
C1108 C 0.82277 0.3399 0.39382 0.0
C1109 C 0.78394 0.25647 0.38195 0.0
C1110 C 0.79804 0.28522 0.38595 0.0
H1111 H 0.84184 0.42338 0.36794 0.0
H1112 H 0.82169 0.37655 0.36058 0.0
H1113 H 0.81079 0.32973 0.43539 0.0
H1114 H 0.77312 0.20101 0.41408 0.0
H1115 H 0.80061 0.24837 0.41702 0.0
C1116 C 0.37812 0.57279 0.88322 0.0
C1117 C 0.37783 0.55931 0.90668 0.0
C1118 C 0.39632 0.59937 0.88022 0.0
C1119 C 0.45969 0.65203 0.90629 0.0
H1120 H 0.43527 0.6979 0.8796 0.0
C1121 C 0.51665 0.7636 0.92177 0.0
C1122 C 0.51593 0.77972 0.90137 0.0
C1123 C 0.5019 0.73643 0.91952 0.0
C1124 C 0.44255 0.68533 0.88664 0.0
H1125 H 0.39685 0.56318 0.94514 0.0
H1126 H 0.4282 0.6096 0.94015 0.0
H1127 H 0.40517 0.65091 0.88132 0.0
H1128 H 0.50008 0.77998 0.86203 0.0
H1129 H 0.4745 0.73247 0.85801 0.0
H1130 H 0.49696 0.68653 0.91203 0.0
C1131 C 0.41451 0.59955 0.92395 0.0
C1132 C 0.42527 0.65839 0.88766 0.0
C1133 C 0.39629 0.573 0.92698 0.0
C1134 C 0.50095 0.76809 0.87818 0.0
C1135 C 0.48617 0.74088 0.87593 0.0
C1136 C 0.47698 0.67898 0.90524 0.0
C1137 C 0.41469 0.61305 0.90058 0.0
C1138 C 0.43354 0.64147 0.89785 0.0
C1139 C 0.48611 0.72476 0.89681 0.0
C1140 C 0.46851 0.69597 0.89575 0.0
H1141 H 0.36407 0.56292 0.86729 0.0
H1142 H 0.39609 0.60917 0.86188 0.0
H1143 H 0.46677 0.63945 0.91381 0.0
H1144 H 0.528 0.77194 0.9399 0.0
H1145 H 0.5021 0.72459 0.93609 0.0
C1146 C 0.23568 0.75302 0.8922 0.0
C1147 C 0.22077 0.74976 0.91541 0.0
C1148 C 0.26301 0.76547 0.89367 0.0
C1149 C 0.31392 0.77494 0.94107 0.0
H1150 H 0.36199 0.82538 0.88955 0.0
C1151 C 0.42576 0.82038 0.95201 0.0
C1152 C 0.44075 0.82526 0.92849 0.0
C1153 C 0.39921 0.8128 0.95058 0.0
C1154 C 0.34882 0.81104 0.90391 0.0
H1155 H 0.22288 0.75821 0.95806 0.0
H1156 H 0.27056 0.77972 0.9606 0.0
H1157 H 0.31522 0.81044 0.88638 0.0
H1158 H 0.43884 0.82569 0.8848 0.0
H1159 H 0.39264 0.81137 0.88242 0.0
H1160 H 0.34706 0.77462 0.95808 0.0
C1161 C 0.26107 0.77252 0.94134 0.0
C1162 C 0.32207 0.80264 0.90215 0.0
C1163 C 0.23379 0.76036 0.93982 0.0
C1164 C 0.42821 0.82196 0.90347 0.0
C1165 C 0.4016 0.81408 0.90205 0.0
C1166 C 0.34057 0.78306 0.94263 0.0
C1167 C 0.27588 0.77462 0.91842 0.0
C1168 C 0.30438 0.78452 0.92073 0.0
C1169 C 0.38676 0.80954 0.92558 0.0
C1170 C 0.3584 0.8012 0.92406 0.0
H1171 H 0.22621 0.74513 0.87307 0.0
H1172 H 0.27396 0.76676 0.87571 0.0
H1173 H 0.30064 0.76058 0.95537 0.0
H1174 H 0.43441 0.82241 0.97167 0.0
H1175 H 0.38855 0.80981 0.96917 0.0
C1176 C 0.17755 0.60223 0.93464 0.0
C1177 C 0.17975 0.61975 0.91427 0.0
C1178 C 0.18381 0.58274 0.92955 0.0
C1179 C 0.22361 0.56727 0.88493 0.0
H1180 H 0.18235 0.49755 0.91476 0.0
C1181 C 0.25418 0.48974 0.86956 0.0
C1182 C 0.25375 0.47597 0.89282 0.0
C1183 C 0.24157 0.50447 0.86919 0.0
C1184 C 0.19414 0.51696 0.90639 0.0
H1185 H 0.19022 0.63043 0.8725 0.0
H1186 H 0.20097 0.59628 0.86357 0.0
H1187 H 0.16747 0.52915 0.92006 0.0
H1188 H 0.23862 0.46578 0.93344 0.0
H1189 H 0.21701 0.4917 0.93293 0.0
H1190 H 0.25068 0.55547 0.87195 0.0
C1191 C 0.1945 0.59773 0.88352 0.0
C1192 C 0.18561 0.53505 0.90943 0.0
C1193 C 0.18812 0.61715 0.88859 0.0
C1194 C 0.23935 0.47617 0.9152 0.0
C1195 C 0.22682 0.49095 0.91486 0.0
C1196 C 0.23219 0.54923 0.88198 0.0
C1197 C 0.19252 0.58038 0.90398 0.0
C1198 C 0.20046 0.56052 0.89906 0.0
C1199 C 0.22831 0.50578 0.89208 0.0
C1200 C 0.21776 0.52398 0.893 0.0
H1201 H 0.17084 0.60347 0.95453 0.0
H1202 H 0.18234 0.56985 0.94581 0.0
H1203 H 0.23566 0.58683 0.877 0.0
H1204 H 0.26494 0.48983 0.8519 0.0
H1205 H 0.24269 0.51527 0.85114 0.0
C1206 C 0.41501 0.60669 0.55448 0.0
C1207 C 0.42976 0.62091 0.57691 0.0
C1208 C 0.38914 0.58648 0.5575 0.0
C1209 C 0.33288 0.5647 0.60251 0.0
H1210 H 0.30376 0.50059 0.56113 0.0
C1211 C 0.22411 0.48854 0.61126 0.0
C1212 C 0.21084 0.47898 0.58677 0.0
C1213 C 0.25144 0.50167 0.61222 0.0
C1214 C 0.31157 0.51843 0.57274 0.0
H1215 H 0.42889 0.62474 0.6202 0.0
H1216 H 0.38383 0.58934 0.62549 0.0
H1217 H 0.35066 0.53211 0.55859 0.0
H1218 H 0.21569 0.47415 0.54438 0.0
H1219 H 0.26343 0.4975 0.54589 0.0
H1220 H 0.29391 0.55164 0.61604 0.0
C1221 C 0.39227 0.59396 0.60553 0.0
C1222 C 0.33842 0.53647 0.57129 0.0
C1223 C 0.41817 0.61411 0.60251 0.0
C1224 C 0.22537 0.48126 0.56357 0.0
C1225 C 0.25277 0.49462 0.56447 0.0
C1226 C 0.30609 0.54676 0.60389 0.0
C1227 C 0.37738 0.58008 0.58302 0.0
C1228 C 0.3493 0.55995 0.58593 0.0
C1229 C 0.26613 0.50575 0.58865 0.0
C1230 C 0.29503 0.52352 0.58881 0.0
H1231 H 0.42344 0.61115 0.53453 0.0
H1232 H 0.37812 0.57632 0.53973 0.0
H1233 H 0.34055 0.58278 0.6137 0.0
H1234 H 0.21339 0.4867 0.62957 0.0
H1235 H 0.26108 0.5094 0.6313 0.0
C1236 C 0.3978 0.84003 0.55831 0.0
C1237 C 0.37678 0.83219 0.57628 0.0
C1238 C 0.4154 0.83082 0.56127 0.0
C1239 C 0.42243 0.77788 0.59278 0.0
H1240 H 0.49674 0.82553 0.58225 0.0
C1241 C 0.49802 0.7459 0.61446 0.0
C1242 C 0.51653 0.75141 0.59404 0.0
C1243 C 0.48268 0.75784 0.61442 0.0
C1244 C 0.47604 0.81198 0.58513 0.0
H1245 H 0.3574 0.80783 0.61099 0.0
H1246 H 0.3883 0.79224 0.61647 0.0
H1247 H 0.46584 0.84142 0.57706 0.0
H1248 H 0.5346 0.77501 0.55854 0.0
H1249 H 0.5078 0.7958 0.55848 0.0
H1250 H 0.43256 0.74842 0.60072 0.0
C1251 C 0.39111 0.80538 0.59996 0.0
C1252 C 0.45832 0.82104 0.58206 0.0
C1253 C 0.37352 0.81455 0.59698 0.0
C1254 C 0.52046 0.77028 0.57452 0.0
C1255 C 0.50515 0.78227 0.57453 0.0
C1256 C 0.44012 0.76886 0.59592 0.0
C1257 C 0.41237 0.81353 0.58226 0.0
C1258 C 0.43129 0.80405 0.58574 0.0
C1259 C 0.48558 0.77562 0.59404 0.0
C1260 C 0.46711 0.78577 0.59204 0.0
H1261 H 0.40109 0.85378 0.54232 0.0
H1262 H 0.43135 0.83721 0.54706 0.0
H1263 H 0.40172 0.76417 0.59534 0.0
H1264 H 0.4946 0.73157 0.6299 0.0
H1265 H 0.46809 0.75269 0.63001 0.0
C1266 C 0.24416 0.78428 0.57135 0.0
C1267 C 0.25764 0.79675 0.59502 0.0
C1268 C 0.23082 0.75707 0.56944 0.0
C1269 C 0.20219 0.69558 0.60739 0.0
H1270 H 0.22267 0.67006 0.54558 0.0
C1271 C 0.1803 0.58896 0.59952 0.0
C1272 C 0.17571 0.57737 0.57399 0.0
C1273 C 0.18755 0.61526 0.6022 0.0
C1274 C 0.21624 0.67669 0.56268 0.0
H1275 H 0.2664 0.79045 0.6358 0.0
H1276 H 0.24273 0.7427 0.63249 0.0
H1277 H 0.23918 0.71665 0.55044 0.0
H1278 H 0.17392 0.58373 0.53139 0.0
H1279 H 0.18575 0.62947 0.53597 0.0
H1280 H 0.17901 0.6556 0.61954 0.0
C1281 C 0.24266 0.7541 0.61542 0.0
C1282 C 0.22583 0.70346 0.5655 0.0
C1283 C 0.25627 0.78139 0.61727 0.0
C1284 C 0.17776 0.59235 0.55124 0.0
C1285 C 0.18463 0.61856 0.55393 0.0
C1286 C 0.19227 0.6687 0.60439 0.0
C1287 C 0.23044 0.74175 0.59123 0.0
C1288 C 0.21906 0.71319 0.58795 0.0
C1289 C 0.19004 0.63049 0.57941 0.0
C1290 C 0.19937 0.65893 0.58209 0.0
H1291 H 0.2447 0.79551 0.55387 0.0
H1292 H 0.22127 0.748 0.55067 0.0
H1293 H 0.19655 0.70261 0.62479 0.0
H1294 H 0.17915 0.57791 0.61738 0.0
H1295 H 0.19197 0.6238 0.6221 0.0
loop_
_geom_bond_atom_site_label_1
_geom_bond_atom_site_label_2
_geom_bond_distance
_geom_bond_site_symmetry_2
_ccdc_geom_bond_type
C0 C1 1.351 . S
C0 N3 1.368 . S
C0 H5 0.931 . S
C1 C0 1.351 . S
C1 N2 1.373 . S
C1 H29 0.930 . S
N2 C1 1.373 . S
N2 C4 1.340 . S
N3 C0 1.368 . S
N3 C4 1.321 . S
N3 Co6 2.135 . S
C4 N2 1.340 . S
C4 N3 1.321 . S
C4 H28 0.930 . S
H5 C0 0.931 . S
Co6 N3 2.135 . S
Co6 N9 2.121 . S
Co6 O14 2.055 . S
Co6 O17 2.039 . S
Co6 N20 2.140 . S
C7 O8 1.227 . S
C7 O17 1.265 . S
O8 C7 1.227 . S
N9 Co6 2.121 . S
N9 C11 1.375 . S
N9 C12 1.313 . S
C10 C11 1.338 . S
C10 N13 1.377 . S
C10 H30 0.930 . S
C11 N9 1.375 . S
C11 C10 1.338 . S
C11 H15 0.931 . S
C12 N9 1.313 . S
C12 N13 1.344 . S
C12 H16 0.930 . S
N13 C10 1.377 . S
N13 C12 1.344 . S
O14 Co6 2.055 . S
O14 C18 1.253 . S
H15 C11 0.931 . S
H16 C12 0.930 . S
O17 Co6 2.039 . S
O17 C7 1.265 . S
C18 O14 1.253 . S
C18 O19 1.227 . S
O19 C18 1.227 . S
N20 Co6 2.140 . S
N20 C23 1.346 . S
N20 C24 1.345 . S
C21 C22 1.387 . S
C21 C25 1.391 . S
C22 C21 1.387 . S
C22 C23 1.369 . S
C22 H31 0.929 . S
C23 N20 1.346 . S
C23 C22 1.369 . S
C23 H26 0.928 . S
C24 N20 1.345 . S
C24 C25 1.371 . S
C24 H27 0.931 . S
C25 C21 1.391 . S
C25 C24 1.371 . S
C25 H32 0.930 . S
H26 C23 0.928 . S
H27 C24 0.931 . S
H28 C4 0.930 . S
H29 C1 0.930 . S
H30 C10 0.930 . S
H31 C22 0.929 . S
H32 C25 0.930 . S
C33 C34 1.351 . S
C33 N36 1.368 . S
C33 H38 0.931 . S
C34 C33 1.351 . S
C34 N35 1.373 . S
C34 H62 0.930 . S
N35 C34 1.373 . S
N35 C37 1.340 . S
N36 C33 1.368 . S
N36 C37 1.321 . S
N36 Co39 2.135 . S
C37 N35 1.340 . S
C37 N36 1.321 . S
C37 H61 0.930 . S
H38 C33 0.931 . S
Co39 N36 2.135 . S
Co39 N42 2.121 . S
Co39 O47 2.055 . S
Co39 O50 2.039 . S
Co39 N53 2.140 . S
C40 O41 1.227 . S
C40 O50 1.265 . S
O41 C40 1.227 . S
N42 Co39 2.121 . S
N42 C44 1.375 . S
N42 C45 1.313 . S
C43 C44 1.338 . S
C43 N46 1.377 . S
C43 H63 0.930 . S
C44 N42 1.375 . S
C44 C43 1.338 . S
C44 H48 0.931 . S
C45 N42 1.313 . S
C45 N46 1.344 . S
C45 H49 0.930 . S
N46 C43 1.377 . S
N46 C45 1.344 . S
O47 Co39 2.055 . S
O47 C51 1.253 . S
H48 C44 0.931 . S
H49 C45 0.930 . S
O50 Co39 2.039 . S
O50 C40 1.265 . S
C51 O47 1.253 . S
C51 O52 1.227 . S
O52 C51 1.227 . S
N53 Co39 2.140 . S
N53 C56 1.346 . S
N53 C57 1.345 . S
C54 C55 1.387 . S
C54 C58 1.391 . S
C55 C54 1.387 . S
C55 C56 1.369 . S
C55 H64 0.929 . S
C56 N53 1.346 . S
C56 C55 1.369 . S
C56 H59 0.928 . S
C57 N53 1.345 . S
C57 C58 1.371 . S
C57 H60 0.931 . S
C58 C54 1.391 . S
C58 C57 1.371 . S
C58 H65 0.930 . S
H59 C56 0.928 . S
H60 C57 0.931 . S
H61 C37 0.930 . S
H62 C34 0.930 . S
H63 C43 0.930 . S
H64 C55 0.929 . S
H65 C58 0.930 . S
C66 C67 1.351 . S
C66 N69 1.368 . S
C66 H71 0.931 . S
C67 C66 1.351 . S
C67 N68 1.373 . S
C67 H95 0.930 . S
N68 C67 1.373 . S
N68 C70 1.340 . S
N69 C66 1.368 . S
N69 C70 1.321 . S
N69 Co72 2.135 . S
C70 N68 1.340 . S
C70 N69 1.321 . S
C70 H94 0.930 . S
H71 C66 0.931 . S
Co72 N69 2.135 . S
Co72 N75 2.121 . S
Co72 O80 2.055 . S
Co72 O83 2.039 . S
Co72 N86 2.140 . S
C73 O74 1.227 . S
C73 O83 1.265 . S
O74 C73 1.227 . S
N75 Co72 2.121 . S
N75 C77 1.375 . S
N75 C78 1.313 . S
C76 C77 1.338 . S
C76 N79 1.377 . S
C76 H96 0.930 . S
C77 N75 1.375 . S
C77 C76 1.338 . S
C77 H81 0.931 . S
C78 N75 1.313 . S
C78 N79 1.344 . S
C78 H82 0.930 . S
N79 C76 1.377 . S
N79 C78 1.344 . S
O80 Co72 2.055 . S
O80 C84 1.253 . S
H81 C77 0.931 . S
H82 C78 0.930 . S
O83 Co72 2.039 . S
O83 C73 1.265 . S
C84 O80 1.253 . S
C84 O85 1.227 . S
O85 C84 1.227 . S
N86 Co72 2.140 . S
N86 C89 1.346 . S
N86 C90 1.345 . S
C87 C88 1.387 . S
C87 C91 1.391 . S
C88 C87 1.387 . S
C88 C89 1.369 . S
C88 H97 0.929 . S
C89 N86 1.346 . S
C89 C88 1.369 . S
C89 H92 0.928 . S
C90 N86 1.345 . S
C90 C91 1.371 . S
C90 H93 0.931 . S
C91 C87 1.391 . S
C91 C90 1.371 . S
C91 H98 0.930 . S
H92 C89 0.928 . S
H93 C90 0.931 . S
H94 C70 0.930 . S
H95 C67 0.930 . S
H96 C76 0.930 . S
H97 C88 0.929 . S
H98 C91 0.930 . S
C99 C100 1.351 . S
C99 N102 1.368 . S
C99 H104 0.931 . S
C100 C99 1.351 . S
C100 N101 1.373 . S
C100 H128 0.930 . S
N101 C100 1.373 . S
N101 C103 1.340 . S
N102 C99 1.368 . S
N102 C103 1.321 . S
N102 Co105 2.135 . S
C103 N101 1.340 . S
C103 N102 1.321 . S
C103 H127 0.930 . S
H104 C99 0.931 . S
Co105 N102 2.135 . S
Co105 N108 2.121 . S
Co105 O113 2.055 . S
Co105 O116 2.039 . S
Co105 N119 2.140 . S
C106 O107 1.227 . S
C106 O116 1.265 . S
O107 C106 1.227 . S
N108 Co105 2.121 . S
N108 C110 1.375 . S
N108 C111 1.313 . S
C109 C110 1.338 . S
C109 N112 1.377 . S
C109 H129 0.930 . S
C110 N108 1.375 . S
C110 C109 1.338 . S
C110 H114 0.931 . S
C111 N108 1.313 . S
C111 N112 1.344 . S
C111 H115 0.930 . S
N112 C109 1.377 . S
N112 C111 1.344 . S
O113 Co105 2.055 . S
O113 C117 1.253 . S
H114 C110 0.931 . S
H115 C111 0.930 . S
O116 Co105 2.039 . S
O116 C106 1.265 . S
C117 O113 1.253 . S
C117 O118 1.227 . S
O118 C117 1.227 . S
N119 Co105 2.140 . S
N119 C122 1.346 . S
N119 C123 1.345 . S
C120 C121 1.387 . S
C120 C124 1.391 . S
C121 C120 1.387 . S
C121 C122 1.369 . S
C121 H130 0.929 . S
C122 N119 1.346 . S
C122 C121 1.369 . S
C122 H125 0.928 . S
C123 N119 1.345 . S
C123 C124 1.371 . S
C123 H126 0.931 . S
C124 C120 1.391 . S
C124 C123 1.371 . S
C124 H131 0.930 . S
H125 C122 0.928 . S
H126 C123 0.931 . S
H127 C103 0.930 . S
H128 C100 0.930 . S
H129 C109 0.930 . S
H130 C121 0.929 . S
H131 C124 0.930 . S
C132 C133 1.351 . S
C132 N135 1.368 . S
C132 H137 0.931 . S
C133 C132 1.351 . S
C133 N134 1.373 . S
C133 H161 0.930 . S
N134 C133 1.373 . S
N134 C136 1.340 . S
N135 C132 1.368 . S
N135 C136 1.321 . S
N135 Co138 2.135 . S
C136 N134 1.340 . S
C136 N135 1.321 . S
C136 H160 0.930 . S
H137 C132 0.931 . S
Co138 N135 2.135 . S
Co138 N141 2.121 . S
Co138 O146 2.055 . S
Co138 O149 2.039 . S
Co138 N152 2.140 . S
C139 O140 1.227 . S
C139 O149 1.265 . S
O140 C139 1.227 . S
N141 Co138 2.121 . S
N141 C143 1.375 . S
N141 C144 1.313 . S
C142 C143 1.338 . S
C142 N145 1.377 . S
C142 H162 0.930 . S
C143 N141 1.375 . S
C143 C142 1.338 . S
C143 H147 0.931 . S
C144 N141 1.313 . S
C144 N145 1.344 . S
C144 H148 0.930 . S
N145 C142 1.377 . S
N145 C144 1.344 . S
O146 Co138 2.055 . S
O146 C150 1.253 . S
H147 C143 0.931 . S
H148 C144 0.930 . S
O149 Co138 2.039 . S
O149 C139 1.265 . S
C150 O146 1.253 . S
C150 O151 1.227 . S
O151 C150 1.227 . S
N152 Co138 2.140 . S
N152 C155 1.346 . S
N152 C156 1.345 . S
C153 C154 1.387 . S
C153 C157 1.391 . S
C154 C153 1.387 . S
C154 C155 1.369 . S
C154 H163 0.929 . S
C155 N152 1.346 . S
C155 C154 1.369 . S
C155 H158 0.928 . S
C156 N152 1.345 . S
C156 C157 1.371 . S
C156 H159 0.931 . S
C157 C153 1.391 . S
C157 C156 1.371 . S
C157 H164 0.930 . S
H158 C155 0.928 . S
H159 C156 0.931 . S
H160 C136 0.930 . S
H161 C133 0.930 . S
H162 C142 0.930 . S
H163 C154 0.929 . S
H164 C157 0.930 . S
C165 C166 1.351 . S
C165 N168 1.368 . S
C165 H170 0.931 . S
C166 C165 1.351 . S
C166 N167 1.373 . S
C166 H194 0.930 . S
N167 C166 1.373 . S
N167 C169 1.340 . S
N168 C165 1.368 . S
N168 C169 1.321 . S
N168 Co171 2.135 . S
C169 N167 1.340 . S
C169 N168 1.321 . S
C169 H193 0.930 . S
H170 C165 0.931 . S
Co171 N168 2.135 . S
Co171 N174 2.121 . S
Co171 O179 2.055 . S
Co171 O182 2.039 . S
Co171 N185 2.140 . S
C172 O173 1.227 . S
C172 O182 1.265 . S
O173 C172 1.227 . S
N174 Co171 2.121 . S
N174 C176 1.375 . S
N174 C177 1.313 . S
C175 C176 1.338 . S
C175 N178 1.377 . S
C175 H195 0.930 . S
C176 N174 1.375 . S
C176 C175 1.338 . S
C176 H180 0.931 . S
C177 N174 1.313 . S
C177 N178 1.344 . S
C177 H181 0.930 . S
N178 C175 1.377 . S
N178 C177 1.344 . S
O179 Co171 2.055 . S
O179 C183 1.253 . S
H180 C176 0.931 . S
H181 C177 0.930 . S
O182 Co171 2.039 . S
O182 C172 1.265 . S
C183 O179 1.253 . S
C183 O184 1.227 . S
O184 C183 1.227 . S
N185 Co171 2.140 . S
N185 C188 1.346 . S
N185 C189 1.345 . S
C186 C187 1.387 . S
C186 C190 1.391 . S
C187 C186 1.387 . S
C187 C188 1.369 . S
C187 H196 0.929 . S
C188 N185 1.346 . S
C188 C187 1.369 . S
C188 H191 0.928 . S
C189 N185 1.345 . S
C189 C190 1.371 . S
C189 H192 0.931 . S
C190 C186 1.391 . S
C190 C189 1.371 . S
C190 H197 0.930 . S
H191 C188 0.928 . S
H192 C189 0.931 . S
H193 C169 0.930 . S
H194 C166 0.930 . S
H195 C175 0.930 . S
H196 C187 0.929 . S
H197 C190 0.930 . S
C198 C199 1.351 . S
C198 N201 1.368 . S
C198 H203 0.931 . S
C199 C198 1.351 . S
C199 N200 1.373 . S
C199 H227 0.930 . S
N200 C199 1.373 . S
N200 C202 1.340 . S
N201 C198 1.368 . S
N201 C202 1.321 . S
N201 Co204 2.135 . S
C202 N200 1.340 . S
C202 N201 1.321 . S
C202 H226 0.930 . S
H203 C198 0.931 . S
Co204 N201 2.135 . S
Co204 N207 2.121 . S
Co204 O212 2.055 . S
Co204 O215 2.039 . S
Co204 N218 2.140 . S
C205 O206 1.227 . S
C205 O215 1.265 . S
O206 C205 1.227 . S
N207 Co204 2.121 . S
N207 C209 1.375 . S
N207 C210 1.313 . S
C208 C209 1.338 . S
C208 N211 1.377 . S
C208 H228 0.930 . S
C209 N207 1.375 . S
C209 C208 1.338 . S
C209 H213 0.931 . S
C210 N207 1.313 . S
C210 N211 1.344 . S
C210 H214 0.930 . S
N211 C208 1.377 . S
N211 C210 1.344 . S
O212 Co204 2.055 . S
O212 C216 1.253 . S
H213 C209 0.931 . S
H214 C210 0.930 . S
O215 Co204 2.039 . S
O215 C205 1.265 . S
C216 O212 1.253 . S
C216 O217 1.227 . S
O217 C216 1.227 . S
N218 Co204 2.140 . S
N218 C221 1.346 . S
N218 C222 1.345 . S
C219 C220 1.387 . S
C219 C223 1.391 . S
C220 C219 1.387 . S
C220 C221 1.369 . S
C220 H229 0.929 . S
C221 N218 1.346 . S
C221 C220 1.369 . S
C221 H224 0.928 . S
C222 N218 1.345 . S
C222 C223 1.371 . S
C222 H225 0.931 . S
C223 C219 1.391 . S
C223 C222 1.371 . S
C223 H230 0.930 . S
H224 C221 0.928 . S
H225 C222 0.931 . S
H226 C202 0.930 . S
H227 C199 0.930 . S
H228 C208 0.930 . S
H229 C220 0.929 . S
H230 C223 0.930 . S
C231 C232 1.351 . S
C231 N234 1.368 . S
C231 H236 0.931 . S
C232 C231 1.351 . S
C232 N233 1.373 . S
C232 H260 0.930 . S
N233 C232 1.373 . S
N233 C235 1.340 . S
N234 C231 1.368 . S
N234 C235 1.321 . S
N234 Co237 2.135 . S
C235 N233 1.340 . S
C235 N234 1.321 . S
C235 H259 0.930 . S
H236 C231 0.931 . S
Co237 N234 2.135 . S
Co237 N240 2.121 . S
Co237 O245 2.055 . S
Co237 O248 2.039 . S
Co237 N251 2.140 . S
C238 O239 1.227 . S
C238 O248 1.265 . S
O239 C238 1.227 . S
N240 Co237 2.121 . S
N240 C242 1.375 . S
N240 C243 1.313 . S
C241 C242 1.338 . S
C241 N244 1.377 . S
C241 H261 0.930 . S
C242 N240 1.375 . S
C242 C241 1.338 . S
C242 H246 0.931 . S
C243 N240 1.313 . S
C243 N244 1.344 . S
C243 H247 0.930 . S
N244 C241 1.377 . S
N244 C243 1.344 . S
O245 Co237 2.055 . S
O245 C249 1.253 . S
H246 C242 0.931 . S
H247 C243 0.930 . S
O248 Co237 2.039 . S
O248 C238 1.265 . S
C249 O245 1.253 . S
C249 O250 1.227 . S
O250 C249 1.227 . S
N251 Co237 2.140 . S
N251 C254 1.346 . S
N251 C255 1.345 . S
C252 C253 1.387 . S
C252 C256 1.391 . S
C253 C252 1.387 . S
C253 C254 1.369 . S
C253 H262 0.929 . S
C254 N251 1.346 . S
C254 C253 1.369 . S
C254 H257 0.928 . S
C255 N251 1.345 . S
C255 C256 1.371 . S
C255 H258 0.931 . S
C256 C252 1.391 . S
C256 C255 1.371 . S
C256 H263 0.930 . S
H257 C254 0.928 . S
H258 C255 0.931 . S
H259 C235 0.930 . S
H260 C232 0.930 . S
H261 C241 0.930 . S
H262 C253 0.929 . S
H263 C256 0.930 . S
C264 C265 1.351 . S
C264 N267 1.368 . S
C264 H269 0.931 . S
C265 C264 1.351 . S
C265 N266 1.373 . S
C265 H293 0.930 . S
N266 C265 1.373 . S
N266 C268 1.340 . S
N267 C264 1.368 . S
N267 C268 1.321 . S
N267 Co270 2.135 . S
C268 N266 1.340 . S
C268 N267 1.321 . S
C268 H292 0.930 . S
H269 C264 0.931 . S
Co270 N267 2.135 . S
Co270 N273 2.121 . S
Co270 O278 2.055 . S
Co270 O281 2.039 . S
Co270 N284 2.140 . S
C271 O272 1.227 . S
C271 O281 1.265 . S
O272 C271 1.227 . S
N273 Co270 2.121 . S
N273 C275 1.375 . S
N273 C276 1.313 . S
C274 C275 1.338 . S
C274 N277 1.377 . S
C274 H294 0.930 . S
C275 N273 1.375 . S
C275 C274 1.338 . S
C275 H279 0.931 . S
C276 N273 1.313 . S
C276 N277 1.344 . S
C276 H280 0.930 . S
N277 C274 1.377 . S
N277 C276 1.344 . S
O278 Co270 2.055 . S
O278 C282 1.253 . S
H279 C275 0.931 . S
H280 C276 0.930 . S
O281 Co270 2.039 . S
O281 C271 1.265 . S
C282 O278 1.253 . S
C282 O283 1.227 . S
O283 C282 1.227 . S
N284 Co270 2.140 . S
N284 C287 1.346 . S
N284 C288 1.345 . S
C285 C286 1.387 . S
C285 C289 1.391 . S
C286 C285 1.387 . S
C286 C287 1.369 . S
C286 H295 0.929 . S
C287 N284 1.346 . S
C287 C286 1.369 . S
C287 H290 0.928 . S
C288 N284 1.345 . S
C288 C289 1.371 . S
C288 H291 0.931 . S
C289 C285 1.391 . S
C289 C288 1.371 . S
C289 H296 0.930 . S
H290 C287 0.928 . S
H291 C288 0.931 . S
H292 C268 0.930 . S
H293 C265 0.930 . S
H294 C274 0.930 . S
H295 C286 0.929 . S
H296 C289 0.930 . S
C297 C298 1.351 . S
C297 N300 1.368 . S
C297 H302 0.931 . S
C298 C297 1.351 . S
C298 N299 1.373 . S
C298 H326 0.930 . S
N299 C298 1.373 . S
N299 C301 1.340 . S
N300 C297 1.368 . S
N300 C301 1.321 . S
N300 Co303 2.135 . S
C301 N299 1.340 . S
C301 N300 1.321 . S
C301 H325 0.930 . S
H302 C297 0.931 . S
Co303 N300 2.135 . S
Co303 N306 2.121 . S
Co303 O311 2.055 . S
Co303 O314 2.039 . S
Co303 N317 2.140 . S
C304 O305 1.227 . S
C304 O314 1.265 . S
O305 C304 1.227 . S
N306 Co303 2.121 . S
N306 C308 1.375 . S
N306 C309 1.313 . S
C307 C308 1.338 . S
C307 N310 1.377 . S
C307 H327 0.930 . S
C308 N306 1.375 . S
C308 C307 1.338 . S
C308 H312 0.931 . S
C309 N306 1.313 . S
C309 N310 1.344 . S
C309 H313 0.930 . S
N310 C307 1.377 . S
N310 C309 1.344 . S
O311 Co303 2.055 . S
O311 C315 1.253 . S
H312 C308 0.931 . S
H313 C309 0.930 . S
O314 Co303 2.039 . S
O314 C304 1.265 . S
C315 O311 1.253 . S
C315 O316 1.227 . S
O316 C315 1.227 . S
N317 Co303 2.140 . S
N317 C320 1.346 . S
N317 C321 1.345 . S
C318 C319 1.387 . S
C318 C322 1.391 . S
C319 C318 1.387 . S
C319 C320 1.369 . S
C319 H328 0.929 . S
C320 N317 1.346 . S
C320 C319 1.369 . S
C320 H323 0.928 . S
C321 N317 1.345 . S
C321 C322 1.371 . S
C321 H324 0.931 . S
C322 C318 1.391 . S
C322 C321 1.371 . S
C322 H329 0.930 . S
H323 C320 0.928 . S
H324 C321 0.931 . S
H325 C301 0.930 . S
H326 C298 0.930 . S
H327 C307 0.930 . S
H328 C319 0.929 . S
H329 C322 0.930 . S
C330 C331 1.351 . S
C330 N333 1.368 . S
C330 H335 0.931 . S
C331 C330 1.351 . S
C331 N332 1.373 . S
C331 H359 0.930 . S
N332 C331 1.373 . S
N332 C334 1.340 . S
N333 C330 1.368 . S
N333 C334 1.321 . S
N333 Co336 2.135 . S
C334 N332 1.340 . S
C334 N333 1.321 . S
C334 H358 0.930 . S
H335 C330 0.931 . S
Co336 N333 2.135 . S
Co336 N339 2.121 . S
Co336 O344 2.055 . S
Co336 O347 2.039 . S
Co336 N350 2.140 . S
C337 O338 1.227 . S
C337 O347 1.265 . S
O338 C337 1.227 . S
N339 Co336 2.121 . S
N339 C341 1.375 . S
N339 C342 1.313 . S
C340 C341 1.338 . S
C340 N343 1.377 . S
C340 H360 0.930 . S
C341 N339 1.375 . S
C341 C340 1.338 . S
C341 H345 0.931 . S
C342 N339 1.313 . S
C342 N343 1.344 . S
C342 H346 0.930 . S
N343 C340 1.377 . S
N343 C342 1.344 . S
O344 Co336 2.055 . S
O344 C348 1.253 . S
H345 C341 0.931 . S
H346 C342 0.930 . S
O347 Co336 2.039 . S
O347 C337 1.265 . S
C348 O344 1.253 . S
C348 O349 1.227 . S
O349 C348 1.227 . S
N350 Co336 2.140 . S
N350 C353 1.346 . S
N350 C354 1.345 . S
C351 C352 1.387 . S
C351 C355 1.391 . S
C352 C351 1.387 . S
C352 C353 1.369 . S
C352 H361 0.929 . S
C353 N350 1.346 . S
C353 C352 1.369 . S
C353 H356 0.928 . S
C354 N350 1.345 . S
C354 C355 1.371 . S
C354 H357 0.931 . S
C355 C351 1.391 . S
C355 C354 1.371 . S
C355 H362 0.930 . S
H356 C353 0.928 . S
H357 C354 0.931 . S
H358 C334 0.930 . S
H359 C331 0.930 . S
H360 C340 0.930 . S
H361 C352 0.929 . S
H362 C355 0.930 . S
C363 C364 1.351 . S
C363 N366 1.368 . S
C363 H368 0.931 . S
C364 C363 1.351 . S
C364 N365 1.373 . S
C364 H392 0.930 . S
N365 C364 1.373 . S
N365 C367 1.340 . S
N366 C363 1.368 . S
N366 C367 1.321 . S
N366 Co369 2.135 . S
C367 N365 1.340 . S
C367 N366 1.321 . S
C367 H391 0.930 . S
H368 C363 0.931 . S
Co369 N366 2.135 . S
Co369 N372 2.121 . S
Co369 O377 2.055 . S
Co369 O380 2.039 . S
Co369 N383 2.140 . S
C370 O371 1.227 . S
C370 O380 1.265 . S
O371 C370 1.227 . S
N372 Co369 2.121 . S
N372 C374 1.375 . S
N372 C375 1.313 . S
C373 C374 1.338 . S
C373 N376 1.377 . S
C373 H393 0.930 . S
C374 N372 1.375 . S
C374 C373 1.338 . S
C374 H378 0.931 . S
C375 N372 1.313 . S
C375 N376 1.344 . S
C375 H379 0.930 . S
N376 C373 1.377 . S
N376 C375 1.344 . S
O377 Co369 2.055 . S
O377 C381 1.253 . S
H378 C374 0.931 . S
H379 C375 0.930 . S
O380 Co369 2.039 . S
O380 C370 1.265 . S
C381 O377 1.253 . S
C381 O382 1.227 . S
O382 C381 1.227 . S
N383 Co369 2.140 . S
N383 C386 1.346 . S
N383 C387 1.345 . S
C384 C385 1.387 . S
C384 C388 1.391 . S
C385 C384 1.387 . S
C385 C386 1.369 . S
C385 H394 0.929 . S
C386 N383 1.346 . S
C386 C385 1.369 . S
C386 H389 0.928 . S
C387 N383 1.345 . S
C387 C388 1.371 . S
C387 H390 0.931 . S
C388 C384 1.391 . S
C388 C387 1.371 . S
C388 H395 0.930 . S
H389 C386 0.928 . S
H390 C387 0.931 . S
H391 C367 0.930 . S
H392 C364 0.930 . S
H393 C373 0.930 . S
H394 C385 0.929 . S
H395 C388 0.930 . S
C396 C397 1.349 . S
C396 C398 1.327 . S
C396 H421 0.950 . S
C397 C396 1.349 . S
C397 C413 1.349 . S
C398 C396 1.327 . S
C398 C417 1.429 . S
C398 H422 0.950 . S
C399 C416 1.574 . S
C399 C418 1.368 . S
C399 H423 0.949 . S
H400 C404 0.949 . S
C401 C402 1.349 . S
C401 C403 1.327 . S
C401 H424 0.950 . S
C402 C401 1.349 . S
C402 C414 1.349 . S
C403 C401 1.327 . S
C403 C419 1.429 . S
C403 H425 0.950 . S
C404 H400 0.949 . S
C404 C412 1.574 . S
C404 C420 1.368 . S
H405 C413 0.950 . S
H406 C411 0.950 . S
H407 C412 0.949 . S
H408 C414 0.950 . S
H409 C415 0.950 . S
H410 C416 0.949 . S
C411 H406 0.950 . S
C411 C413 1.327 . S
C411 C417 1.429 . S
C412 C404 1.574 . S
C412 H407 0.949 . S
C412 C418 1.368 . S
C413 C397 1.349 . S
C413 H405 0.950 . S
C413 C411 1.327 . S
C414 C402 1.349 . S
C414 H408 0.950 . S
C414 C415 1.327 . S
C415 H409 0.950 . S
C415 C414 1.327 . S
C415 C419 1.429 . S
C416 C399 1.574 . S
C416 H410 0.949 . S
C416 C420 1.368 . S
C417 C398 1.429 . S
C417 C411 1.429 . S
C417 C418 1.523 . S
C418 C399 1.368 . S
C418 C412 1.368 . S
C418 C417 1.523 . S
C419 C403 1.429 . S
C419 C415 1.429 . S
C419 C420 1.523 . S
C420 C404 1.368 . S
C420 C416 1.368 . S
C420 C419 1.523 . S
H421 C396 0.950 . S
H422 C398 0.950 . S
H423 C399 0.949 . S
H424 C401 0.950 . S
H425 C403 0.950 . S
C426 C427 1.349 . S
C426 C428 1.327 . S
C426 H451 0.950 . S
C427 C426 1.349 . S
C427 C443 1.349 . S
C428 C426 1.327 . S
C428 C447 1.429 . S
C428 H452 0.950 . S
C429 C446 1.574 . S
C429 C448 1.368 . S
C429 H453 0.949 . S
H430 C434 0.949 . S
C431 C432 1.349 . S
C431 C433 1.327 . S
C431 H454 0.950 . S
C432 C431 1.349 . S
C432 C444 1.349 . S
C433 C431 1.327 . S
C433 C449 1.429 . S
C433 H455 0.950 . S
C434 H430 0.949 . S
C434 C442 1.574 . S
C434 C450 1.368 . S
H435 C443 0.950 . S
H436 C441 0.950 . S
H437 C442 0.949 . S
H438 C444 0.950 . S
H439 C445 0.950 . S
H440 C446 0.949 . S
C441 H436 0.950 . S
C441 C443 1.327 . S
C441 C447 1.429 . S
C442 C434 1.574 . S
C442 H437 0.949 . S
C442 C448 1.368 . S
C443 C427 1.349 . S
C443 H435 0.950 . S
C443 C441 1.327 . S
C444 C432 1.349 . S
C444 H438 0.950 . S
C444 C445 1.327 . S
C445 H439 0.950 . S
C445 C444 1.327 . S
C445 C449 1.429 . S
C446 C429 1.574 . S
C446 H440 0.949 . S
C446 C450 1.368 . S
C447 C428 1.429 . S
C447 C441 1.429 . S
C447 C448 1.523 . S
C448 C429 1.368 . S
C448 C442 1.368 . S
C448 C447 1.523 . S
C449 C433 1.429 . S
C449 C445 1.429 . S
C449 C450 1.523 . S
C450 C434 1.368 . S
C450 C446 1.368 . S
C450 C449 1.523 . S
H451 C426 0.950 . S
H452 C428 0.950 . S
H453 C429 0.949 . S
H454 C431 0.950 . S
H455 C433 0.950 . S
C456 C457 1.349 . S
C456 C458 1.327 . S
C456 H481 0.950 . S
C457 C456 1.349 . S
C457 C473 1.349 . S
C458 C456 1.327 . S
C458 C477 1.429 . S
C458 H482 0.950 . S
C459 C476 1.574 . S
C459 C478 1.368 . S
C459 H483 0.949 . S
H460 C464 0.949 . S
C461 C462 1.349 . S
C461 C463 1.327 . S
C461 H484 0.950 . S
C462 C461 1.349 . S
C462 C474 1.349 . S
C463 C461 1.327 . S
C463 C479 1.429 . S
C463 H485 0.950 . S
C464 H460 0.949 . S
C464 C472 1.574 . S
C464 C480 1.368 . S
H465 C473 0.950 . S
H466 C471 0.950 . S
H467 C472 0.949 . S
H468 C474 0.950 . S
H469 C475 0.950 . S
H470 C476 0.949 . S
C471 H466 0.950 . S
C471 C473 1.327 . S
C471 C477 1.429 . S
C472 C464 1.574 . S
C472 H467 0.949 . S
C472 C478 1.368 . S
C473 C457 1.349 . S
C473 H465 0.950 . S
C473 C471 1.327 . S
C474 C462 1.349 . S
C474 H468 0.950 . S
C474 C475 1.327 . S
C475 H469 0.950 . S
C475 C474 1.327 . S
C475 C479 1.429 . S
C476 C459 1.574 . S
C476 H470 0.949 . S
C476 C480 1.368 . S
C477 C458 1.429 . S
C477 C471 1.429 . S
C477 C478 1.523 . S
C478 C459 1.368 . S
C478 C472 1.368 . S
C478 C477 1.523 . S
C479 C463 1.429 . S
C479 C475 1.429 . S
C479 C480 1.523 . S
C480 C464 1.368 . S
C480 C476 1.368 . S
C480 C479 1.523 . S
H481 C456 0.950 . S
H482 C458 0.950 . S
H483 C459 0.949 . S
H484 C461 0.950 . S
H485 C463 0.950 . S
C486 C487 1.349 . S
C486 C488 1.327 . S
C486 H511 0.950 . S
C487 C486 1.349 . S
C487 C503 1.349 . S
C488 C486 1.327 . S
C488 C507 1.429 . S
C488 H512 0.950 . S
C489 C506 1.574 . S
C489 C508 1.368 . S
C489 H513 0.949 . S
H490 C494 0.949 . S
C491 C492 1.349 . S
C491 C493 1.327 . S
C491 H514 0.950 . S
C492 C491 1.349 . S
C492 C504 1.349 . S
C493 C491 1.327 . S
C493 C509 1.429 . S
C493 H515 0.950 . S
C494 H490 0.949 . S
C494 C502 1.574 . S
C494 C510 1.368 . S
H495 C503 0.950 . S
H496 C501 0.950 . S
H497 C502 0.949 . S
H498 C504 0.950 . S
H499 C505 0.950 . S
H500 C506 0.949 . S
C501 H496 0.950 . S
C501 C503 1.327 . S
C501 C507 1.429 . S
C502 C494 1.574 . S
C502 H497 0.949 . S
C502 C508 1.368 . S
C503 C487 1.349 . S
C503 H495 0.950 . S
C503 C501 1.327 . S
C504 C492 1.349 . S
C504 H498 0.950 . S
C504 C505 1.327 . S
C505 H499 0.950 . S
C505 C504 1.327 . S
C505 C509 1.429 . S
C506 C489 1.574 . S
C506 H500 0.949 . S
C506 C510 1.368 . S
C507 C488 1.429 . S
C507 C501 1.429 . S
C507 C508 1.523 . S
C508 C489 1.368 . S
C508 C502 1.368 . S
C508 C507 1.523 . S
C509 C493 1.429 . S
C509 C505 1.429 . S
C509 C510 1.523 . S
C510 C494 1.368 . S
C510 C506 1.368 . S
C510 C509 1.523 . S
H511 C486 0.950 . S
H512 C488 0.950 . S
H513 C489 0.949 . S
H514 C491 0.950 . S
H515 C493 0.950 . S
C516 C517 1.349 . S
C516 C518 1.327 . S
C516 H541 0.950 . S
C517 C516 1.349 . S
C517 C533 1.349 . S
C518 C516 1.327 . S
C518 C537 1.429 . S
C518 H542 0.950 . S
C519 C536 1.574 . S
C519 C538 1.368 . S
C519 H543 0.949 . S
H520 C524 0.949 . S
C521 C522 1.349 . S
C521 C523 1.327 . S
C521 H544 0.950 . S
C522 C521 1.349 . S
C522 C534 1.349 . S
C523 C521 1.327 . S
C523 C539 1.429 . S
C523 H545 0.950 . S
C524 H520 0.949 . S
C524 C532 1.574 . S
C524 C540 1.368 . S
H525 C533 0.950 . S
H526 C531 0.950 . S
H527 C532 0.949 . S
H528 C534 0.950 . S
H529 C535 0.950 . S
H530 C536 0.949 . S
C531 H526 0.950 . S
C531 C533 1.327 . S
C531 C537 1.429 . S
C532 C524 1.574 . S
C532 H527 0.949 . S
C532 C538 1.368 . S
C533 C517 1.349 . S
C533 H525 0.950 . S
C533 C531 1.327 . S
C534 C522 1.349 . S
C534 H528 0.950 . S
C534 C535 1.327 . S
C535 H529 0.950 . S
C535 C534 1.327 . S
C535 C539 1.429 . S
C536 C519 1.574 . S
C536 H530 0.949 . S
C536 C540 1.368 . S
C537 C518 1.429 . S
C537 C531 1.429 . S
C537 C538 1.523 . S
C538 C519 1.368 . S
C538 C532 1.368 . S
C538 C537 1.523 . S
C539 C523 1.429 . S
C539 C535 1.429 . S
C539 C540 1.523 . S
C540 C524 1.368 . S
C540 C536 1.368 . S
C540 C539 1.523 . S
H541 C516 0.950 . S
H542 C518 0.950 . S
H543 C519 0.949 . S
H544 C521 0.950 . S
H545 C523 0.950 . S
C546 C547 1.349 . S
C546 C548 1.327 . S
C546 H571 0.950 . S
C547 C546 1.349 . S
C547 C563 1.349 . S
C548 C546 1.327 . S
C548 C567 1.429 . S
C548 H572 0.950 . S
C549 C566 1.574 . S
C549 C568 1.368 . S
C549 H573 0.949 . S
H550 C554 0.949 . S
C551 C552 1.349 . S
C551 C553 1.327 . S
C551 H574 0.950 . S
C552 C551 1.349 . S
C552 C564 1.349 . S
C553 C551 1.327 . S
C553 C569 1.429 . S
C553 H575 0.950 . S
C554 H550 0.949 . S
C554 C562 1.574 . S
C554 C570 1.368 . S
H555 C563 0.950 . S
H556 C561 0.950 . S
H557 C562 0.949 . S
H558 C564 0.950 . S
H559 C565 0.950 . S
H560 C566 0.949 . S
C561 H556 0.950 . S
C561 C563 1.327 . S
C561 C567 1.429 . S
C562 C554 1.574 . S
C562 H557 0.949 . S
C562 C568 1.368 . S
C563 C547 1.349 . S
C563 H555 0.950 . S
C563 C561 1.327 . S
C564 C552 1.349 . S
C564 H558 0.950 . S
C564 C565 1.327 . S
C565 H559 0.950 . S
C565 C564 1.327 . S
C565 C569 1.429 . S
C566 C549 1.574 . S
C566 H560 0.949 . S
C566 C570 1.368 . S
C567 C548 1.429 . S
C567 C561 1.429 . S
C567 C568 1.523 . S
C568 C549 1.368 . S
C568 C562 1.368 . S
C568 C567 1.523 . S
C569 C553 1.429 . S
C569 C565 1.429 . S
C569 C570 1.523 . S
C570 C554 1.368 . S
C570 C566 1.368 . S
C570 C569 1.523 . S
H571 C546 0.950 . S
H572 C548 0.950 . S
H573 C549 0.949 . S
H574 C551 0.950 . S
H575 C553 0.950 . S
C576 C577 1.349 . S
C576 C578 1.327 . S
C576 H601 0.950 . S
C577 C576 1.349 . S
C577 C593 1.349 . S
C578 C576 1.327 . S
C578 C597 1.429 . S
C578 H602 0.934 1_554 S
C579 C596 1.574 . S
C579 C598 1.368 1_565 S
C579 H603 0.949 . S
H580 C584 0.949 . S
C581 C582 1.349 . S
C581 C583 1.327 . S
C581 H604 0.950 . S
C582 C581 1.349 . S
C582 C594 1.349 . S
C583 C581 1.327 . S
C583 C599 1.429 . S
C583 H605 0.934 1_556 S
C584 H580 0.949 . S
C584 C592 1.574 . S
C584 C600 1.368 1_545 S
H585 C593 0.950 . S
H586 C591 0.917 1_565 S
H587 C592 0.949 . S
H588 C594 0.950 . S
H589 C595 0.917 1_545 S
H590 C596 0.949 . S
C591 H586 0.917 1_545 S
C591 C593 1.327 . S
C591 C597 1.429 . S
C592 C584 1.574 . S
C592 H587 0.949 . S
C592 C598 1.368 1_556 S
C593 C577 1.349 . S
C593 H585 0.950 . S
C593 C591 1.327 . S
C594 C582 1.349 . S
C594 H588 0.950 . S
C594 C595 1.327 . S
C595 H589 0.917 1_565 S
C595 C594 1.327 . S
C595 C599 1.429 . S
C596 C579 1.574 . S
C596 H590 0.949 . S
C596 C600 1.368 1_554 S
C597 C578 1.429 . S
C597 C591 1.429 . S
C597 C598 1.523 . S
C598 C579 1.368 1_545 S
C598 C592 1.368 1_554 S
C598 C597 1.523 . S
C599 C583 1.429 . S
C599 C595 1.429 . S
C599 C600 1.523 . S
C600 C584 1.368 1_565 S
C600 C596 1.368 1_556 S
C600 C599 1.523 . S
H601 C576 0.950 . S
H602 C578 0.934 1_556 S
H603 C579 0.949 . S
H604 C581 0.950 . S
H605 C583 0.934 1_554 S
C606 C607 1.349 . S
C606 C608 1.327 . S
C606 H631 0.950 1_554 S
C607 C606 1.349 . S
C607 C623 1.349 . S
C608 C606 1.327 . S
C608 C627 1.428 . S
C608 H632 0.950 1_554 S
C609 C626 1.574 . S
C609 C628 1.368 1_455 S
C609 H633 0.949 . S
H610 C614 0.949 . S
C611 C612 1.349 . S
C611 C613 1.327 . S
C611 H634 0.950 1_556 S
C612 C611 1.349 . S
C612 C624 1.349 . S
C613 C611 1.327 . S
C613 C629 1.428 . S
C613 H635 0.950 1_556 S
C614 H610 0.949 . S
C614 C622 1.574 . S
C614 C630 1.368 1_655 S
H615 C623 0.950 . S
H616 C621 0.950 . S
H617 C622 0.949 . S
H618 C624 0.950 . S
H619 C625 0.950 . S
H620 C626 0.949 . S
C621 H616 0.950 . S
C621 C623 1.327 . S
C621 C627 1.429 . S
C622 C614 1.574 . S
C622 H617 0.949 . S
C622 C628 1.368 1_556 S
C623 C607 1.349 . S
C623 H615 0.950 . S
C623 C621 1.327 . S
C624 C612 1.349 . S
C624 H618 0.950 . S
C624 C625 1.327 . S
C625 H619 0.950 . S
C625 C624 1.327 . S
C625 C629 1.429 . S
C626 C609 1.574 . S
C626 H620 0.949 . S
C626 C630 1.368 1_554 S
C627 C608 1.428 . S
C627 C621 1.429 . S
C627 C628 1.523 . S
C628 C609 1.368 1_655 S
C628 C622 1.368 1_554 S
C628 C627 1.523 . S
C629 C613 1.428 . S
C629 C625 1.429 . S
C629 C630 1.523 . S
C630 C614 1.368 1_455 S
C630 C626 1.368 1_556 S
C630 C629 1.523 . S
H631 C606 0.950 1_556 S
H632 C608 0.950 1_556 S
H633 C609 0.949 . S
H634 C611 0.950 1_554 S
H635 C613 0.950 1_554 S
C636 C637 1.349 . S
C636 C638 1.327 . S
C636 H661 0.950 . S
C637 C636 1.349 . S
C637 C653 1.349 . S
C638 C636 1.327 . S
C638 C657 1.429 . S
C638 H662 0.950 1_556 S
C639 C656 1.574 . S
C639 C658 1.368 . S
C639 H663 0.949 . S
H640 C644 0.949 . S
C641 C642 1.349 . S
C641 C643 1.327 . S
C641 H664 0.950 . S
C642 C641 1.349 . S
C642 C654 1.349 . S
C643 C641 1.327 . S
C643 C659 1.429 . S
C643 H665 0.950 1_554 S
C644 H640 0.949 . S
C644 C652 1.574 . S
C644 C660 1.368 . S
H645 C653 0.950 . S
H646 C651 0.950 . S
H647 C652 0.949 . S
H648 C654 0.950 . S
H649 C655 0.950 . S
H650 C656 0.949 . S
C651 H646 0.950 . S
C651 C653 1.327 . S
C651 C657 1.429 . S
C652 C644 1.574 . S
C652 H647 0.949 . S
C652 C658 1.368 1_554 S
C653 C637 1.349 . S
C653 H645 0.950 . S
C653 C651 1.327 . S
C654 C642 1.349 . S
C654 H648 0.950 . S
C654 C655 1.327 . S
C655 H649 0.950 . S
C655 C654 1.327 . S
C655 C659 1.429 . S
C656 C639 1.574 . S
C656 H650 0.949 . S
C656 C660 1.368 1_556 S
C657 C638 1.429 . S
C657 C651 1.429 . S
C657 C658 1.523 . S
C658 C639 1.368 . S
C658 C652 1.368 1_556 S
C658 C657 1.523 . S
C659 C643 1.429 . S
C659 C655 1.429 . S
C659 C660 1.523 . S
C660 C644 1.368 . S
C660 C656 1.368 1_554 S
C660 C659 1.523 . S
H661 C636 0.950 . S
H662 C638 0.950 1_554 S
H663 C639 0.949 . S
H664 C641 0.950 . S
H665 C643 0.950 1_556 S
C666 C667 1.349 . S
C666 C668 1.327 . S
C666 H691 0.950 . S
C667 C666 1.349 . S
C667 C683 1.349 . S
C668 C666 1.327 . S
C668 C687 1.429 . S
C668 H692 0.950 . S
C669 C686 1.574 . S
C669 C688 1.368 . S
C669 H693 0.949 . S
H670 C674 0.949 . S
C671 C672 1.349 . S
C671 C673 1.327 . S
C671 H694 0.950 . S
C672 C671 1.349 . S
C672 C684 1.349 . S
C673 C671 1.327 . S
C673 C689 1.429 . S
C673 H695 0.950 . S
C674 H670 0.949 . S
C674 C682 1.574 . S
C674 C690 1.368 . S
H675 C683 0.950 . S
H676 C681 0.950 . S
H677 C682 0.949 . S
H678 C684 0.950 . S
H679 C685 0.950 . S
H680 C686 0.949 . S
C681 H676 0.950 . S
C681 C683 1.327 . S
C681 C687 1.429 . S
C682 C674 1.574 . S
C682 H677 0.949 . S
C682 C688 1.368 1_655 S
C683 C667 1.349 . S
C683 H675 0.950 . S
C683 C681 1.327 . S
C684 C672 1.349 . S
C684 H678 0.950 . S
C684 C685 1.327 . S
C685 H679 0.950 . S
C685 C684 1.327 . S
C685 C689 1.429 . S
C686 C669 1.574 . S
C686 H680 0.949 . S
C686 C690 1.368 1_455 S
C687 C668 1.429 . S
C687 C681 1.429 . S
C687 C688 1.523 . S
C688 C669 1.368 . S
C688 C682 1.368 1_455 S
C688 C687 1.523 . S
C689 C673 1.429 . S
C689 C685 1.429 . S
C689 C690 1.523 . S
C690 C674 1.368 . S
C690 C686 1.368 1_655 S
C690 C689 1.523 . S
H691 C666 0.950 . S
H692 C668 0.950 . S
H693 C669 0.949 . S
H694 C671 0.950 . S
H695 C673 0.950 . S
C696 C697 1.349 . S
C696 C698 1.327 . S
C696 H721 0.950 . S
C697 C696 1.349 . S
C697 C713 1.349 . S
C698 C696 1.327 . S
C698 C717 1.429 . S
C698 H722 0.950 . S
C699 C716 1.574 . S
C699 C718 1.368 . S
C699 H723 0.949 . S
H700 C704 0.949 . S
C701 C702 1.349 . S
C701 C703 1.327 . S
C701 H724 0.950 . S
C702 C701 1.349 . S
C702 C714 1.349 . S
C703 C701 1.327 . S
C703 C719 1.429 . S
C703 H725 0.950 . S
C704 H700 0.949 . S
C704 C712 1.574 . S
C704 C720 1.368 . S
H705 C713 0.950 . S
H706 C711 0.950 . S
H707 C712 0.949 . S
H708 C714 0.950 . S
H709 C715 0.950 . S
H710 C716 0.949 . S
C711 H706 0.950 . S
C711 C713 1.327 . S
C711 C717 1.429 . S
C712 C704 1.574 . S
C712 H707 0.949 . S
C712 C718 1.368 . S
C713 C697 1.349 . S
C713 H705 0.950 . S
C713 C711 1.327 . S
C714 C702 1.349 . S
C714 H708 0.950 . S
C714 C715 1.327 . S
C715 H709 0.950 . S
C715 C714 1.327 . S
C715 C719 1.429 . S
C716 C699 1.574 . S
C716 H710 0.949 . S
C716 C720 1.368 . S
C717 C698 1.429 . S
C717 C711 1.429 . S
C717 C718 1.523 . S
C718 C699 1.368 . S
C718 C712 1.368 . S
C718 C717 1.523 . S
C719 C703 1.429 . S
C719 C715 1.429 . S
C719 C720 1.523 . S
C720 C704 1.368 . S
C720 C716 1.368 . S
C720 C719 1.523 . S
H721 C696 0.950 . S
H722 C698 0.950 . S
H723 C699 0.949 . S
H724 C701 0.950 . S
H725 C703 0.950 . S
C726 C727 1.349 . S
C726 C728 1.327 . S
C726 H751 0.950 . S
C727 C726 1.349 . S
C727 C743 1.349 . S
C728 C726 1.327 . S
C728 C747 1.429 . S
C728 H752 0.950 . S
C729 C746 1.574 1_545 S
C729 C748 1.368 . S
C729 H753 0.949 . S
H730 C734 0.949 . S
C731 C732 1.349 . S
C731 C733 1.327 . S
C731 H754 0.950 . S
C732 C731 1.349 . S
C732 C744 1.349 . S
C733 C731 1.327 . S
C733 C749 1.429 . S
C733 H755 0.950 . S
C734 H730 0.949 . S
C734 C742 1.574 1_565 S
C734 C750 1.368 . S
H735 C743 0.950 . S
H736 C741 0.950 . S
H737 C742 0.949 . S
H738 C744 0.950 . S
H739 C745 0.950 . S
H740 C746 0.949 . S
C741 H736 0.950 . S
C741 C743 1.327 . S
C741 C747 1.429 . S
C742 C734 1.574 1_545 S
C742 H737 0.949 . S
C742 C748 1.368 . S
C743 C727 1.349 . S
C743 H735 0.950 . S
C743 C741 1.327 . S
C744 C732 1.349 . S
C744 H738 0.950 . S
C744 C745 1.327 . S
C745 H739 0.950 . S
C745 C744 1.327 . S
C745 C749 1.429 . S
C746 C729 1.574 1_565 S
C746 H740 0.949 . S
C746 C750 1.368 . S
C747 C728 1.429 . S
C747 C741 1.429 . S
C747 C748 1.523 . S
C748 C729 1.368 . S
C748 C742 1.368 . S
C748 C747 1.523 . S
C749 C733 1.429 . S
C749 C745 1.429 . S
C749 C750 1.523 . S
C750 C734 1.368 . S
C750 C746 1.368 . S
C750 C749 1.523 . S
H751 C726 0.950 . S
H752 C728 0.950 . S
H753 C729 0.949 . S
H754 C731 0.950 . S
H755 C733 0.950 . S
C756 C757 1.349 . S
C756 C758 1.327 . S
C756 H781 0.950 . S
C757 C756 1.349 . S
C757 C773 1.349 . S
C758 C756 1.327 . S
C758 C777 1.429 . S
C758 H782 0.950 . S
C759 C776 1.574 . S
C759 C778 1.368 . S
C759 H783 0.949 . S
H760 C764 0.949 . S
C761 C762 1.349 . S
C761 C763 1.327 . S
C761 H784 0.950 . S
C762 C761 1.349 . S
C762 C774 1.349 . S
C763 C761 1.327 . S
C763 C779 1.429 . S
C763 H785 0.950 . S
C764 H760 0.949 . S
C764 C772 1.574 . S
C764 C780 1.368 . S
H765 C773 0.950 . S
H766 C771 0.950 . S
H767 C772 0.949 . S
H768 C774 0.950 . S
H769 C775 0.950 . S
H770 C776 0.949 . S
C771 H766 0.950 . S
C771 C773 1.327 . S
C771 C777 1.429 . S
C772 C764 1.574 . S
C772 H767 0.949 . S
C772 C778 1.368 . S
C773 C757 1.349 . S
C773 H765 0.950 . S
C773 C771 1.327 . S
C774 C762 1.349 . S
C774 H768 0.950 . S
C774 C775 1.327 . S
C775 H769 0.950 . S
C775 C774 1.327 . S
C775 C779 1.429 . S
C776 C759 1.574 . S
C776 H770 0.949 . S
C776 C780 1.368 . S
C777 C758 1.429 . S
C777 C771 1.429 . S
C777 C778 1.523 . S
C778 C759 1.368 . S
C778 C772 1.368 . S
C778 C777 1.523 . S
C779 C763 1.429 . S
C779 C775 1.429 . S
C779 C780 1.523 . S
C780 C764 1.368 . S
C780 C776 1.368 . S
C780 C779 1.523 . S
H781 C756 0.950 . S
H782 C758 0.950 . S
H783 C759 0.949 . S
H784 C761 0.950 . S
H785 C763 0.950 . S
C786 C787 1.349 . S
C786 C788 1.327 . S
C786 H811 0.950 . S
C787 C786 1.349 . S
C787 C803 1.349 . S
C788 C786 1.327 . S
C788 C807 1.429 . S
C788 H812 0.950 . S
C789 C806 1.574 . S
C789 C808 1.368 . S
C789 H813 0.949 . S
H790 C794 0.949 . S
C791 C792 1.349 . S
C791 C793 1.327 . S
C791 H814 0.950 . S
C792 C791 1.349 . S
C792 C804 1.349 . S
C793 C791 1.327 . S
C793 C809 1.429 . S
C793 H815 0.950 . S
C794 H790 0.949 . S
C794 C802 1.574 . S
C794 C810 1.368 . S
H795 C803 0.950 . S
H796 C801 0.950 . S
H797 C802 0.949 . S
H798 C804 0.950 . S
H799 C805 0.950 . S
H800 C806 0.949 . S
C801 H796 0.950 . S
C801 C803 1.327 . S
C801 C807 1.429 . S
C802 C794 1.574 . S
C802 H797 0.949 . S
C802 C808 1.368 . S
C803 C787 1.349 . S
C803 H795 0.950 . S
C803 C801 1.327 . S
C804 C792 1.349 . S
C804 H798 0.950 . S
C804 C805 1.327 . S
C805 H799 0.950 . S
C805 C804 1.327 . S
C805 C809 1.429 . S
C806 C789 1.574 . S
C806 H800 0.949 . S
C806 C810 1.368 . S
C807 C788 1.429 . S
C807 C801 1.429 . S
C807 C808 1.523 . S
C808 C789 1.368 . S
C808 C802 1.368 . S
C808 C807 1.523 . S
C809 C793 1.429 . S
C809 C805 1.429 . S
C809 C810 1.523 . S
C810 C794 1.368 . S
C810 C806 1.368 . S
C810 C809 1.523 . S
H811 C786 0.950 . S
H812 C788 0.950 . S
H813 C789 0.949 . S
H814 C791 0.950 . S
H815 C793 0.950 . S
C816 C817 1.349 . S
C816 C818 1.327 . S
C816 H841 0.950 . S
C817 C816 1.349 . S
C817 C833 1.349 . S
C818 C816 1.327 . S
C818 C837 1.429 . S
C818 H842 0.950 . S
C819 C836 1.574 . S
C819 C838 1.368 . S
C819 H843 0.949 . S
H820 C824 0.949 . S
C821 C822 1.349 . S
C821 C823 1.327 . S
C821 H844 0.950 . S
C822 C821 1.349 . S
C822 C834 1.349 . S
C823 C821 1.327 . S
C823 C839 1.429 . S
C823 H845 0.950 . S
C824 H820 0.949 . S
C824 C832 1.574 . S
C824 C840 1.368 . S
H825 C833 0.950 . S
H826 C831 0.950 . S
H827 C832 0.949 . S
H828 C834 0.950 . S
H829 C835 0.950 . S
H830 C836 0.949 . S
C831 H826 0.950 . S
C831 C833 1.327 . S
C831 C837 1.429 . S
C832 C824 1.574 . S
C832 H827 0.949 . S
C832 C838 1.368 . S
C833 C817 1.349 . S
C833 H825 0.950 . S
C833 C831 1.327 . S
C834 C822 1.349 . S
C834 H828 0.950 . S
C834 C835 1.327 . S
C835 H829 0.950 . S
C835 C834 1.327 . S
C835 C839 1.429 . S
C836 C819 1.574 . S
C836 H830 0.949 . S
C836 C840 1.368 . S
C837 C818 1.429 . S
C837 C831 1.429 . S
C837 C838 1.523 . S
C838 C819 1.368 . S
C838 C832 1.368 . S
C838 C837 1.523 . S
C839 C823 1.429 . S
C839 C835 1.429 . S
C839 C840 1.523 . S
C840 C824 1.368 . S
C840 C836 1.368 . S
C840 C839 1.523 . S
H841 C816 0.950 . S
H842 C818 0.950 . S
H843 C819 0.949 . S
H844 C821 0.950 . S
H845 C823 0.950 . S
C846 C847 1.349 . S
C846 C848 1.327 . S
C846 H871 0.950 . S
C847 C846 1.349 . S
C847 C863 1.349 . S
C848 C846 1.327 . S
C848 C867 1.429 . S
C848 H872 0.950 . S
C849 C866 1.574 . S
C849 C868 1.368 . S
C849 H873 0.949 . S
H850 C854 0.949 . S
C851 C852 1.349 . S
C851 C853 1.327 . S
C851 H874 0.950 . S
C852 C851 1.349 . S
C852 C864 1.349 . S
C853 C851 1.327 . S
C853 C869 1.429 . S
C853 H875 0.950 . S
C854 H850 0.949 . S
C854 C862 1.574 . S
C854 C870 1.368 . S
H855 C863 0.950 . S
H856 C861 0.950 . S
H857 C862 0.949 . S
H858 C864 0.950 . S
H859 C865 0.950 . S
H860 C866 0.949 . S
C861 H856 0.950 . S
C861 C863 1.327 . S
C861 C867 1.429 . S
C862 C854 1.574 . S
C862 H857 0.949 . S
C862 C868 1.368 . S
C863 C847 1.349 . S
C863 H855 0.950 . S
C863 C861 1.327 . S
C864 C852 1.349 . S
C864 H858 0.950 . S
C864 C865 1.327 . S
C865 H859 0.950 . S
C865 C864 1.327 . S
C865 C869 1.429 . S
C866 C849 1.574 . S
C866 H860 0.949 . S
C866 C870 1.368 . S
C867 C848 1.429 . S
C867 C861 1.429 . S
C867 C868 1.523 . S
C868 C849 1.368 . S
C868 C862 1.368 . S
C868 C867 1.523 . S
C869 C853 1.429 . S
C869 C865 1.429 . S
C869 C870 1.523 . S
C870 C854 1.368 . S
C870 C866 1.368 . S
C870 C869 1.523 . S
H871 C846 0.950 . S
H872 C848 0.950 . S
H873 C849 0.949 . S
H874 C851 0.950 . S
H875 C853 0.950 . S
C876 C877 1.349 . S
C876 C878 1.327 . S
C876 H901 0.950 . S
C877 C876 1.349 . S
C877 C893 1.349 . S
C878 C876 1.327 . S
C878 C897 1.429 . S
C878 H902 0.950 . S
C879 C896 1.574 . S
C879 C898 1.368 . S
C879 H903 0.949 . S
H880 C884 0.949 . S
C881 C882 1.349 . S
C881 C883 1.327 . S
C881 H904 0.950 . S
C882 C881 1.349 . S
C882 C894 1.349 . S
C883 C881 1.327 . S
C883 C899 1.429 . S
C883 H905 0.950 . S
C884 H880 0.949 . S
C884 C892 1.574 . S
C884 C900 1.368 . S
H885 C893 0.950 . S
H886 C891 0.950 . S
H887 C892 0.949 . S
H888 C894 0.950 . S
H889 C895 0.950 . S
H890 C896 0.949 . S
C891 H886 0.950 . S
C891 C893 1.327 . S
C891 C897 1.429 . S
C892 C884 1.574 . S
C892 H887 0.949 . S
C892 C898 1.368 . S
C893 C877 1.349 . S
C893 H885 0.950 . S
C893 C891 1.327 . S
C894 C882 1.349 . S
C894 H888 0.950 . S
C894 C895 1.327 . S
C895 H889 0.950 . S
C895 C894 1.327 . S
C895 C899 1.429 . S
C896 C879 1.574 . S
C896 H890 0.949 . S
C896 C900 1.368 . S
C897 C878 1.429 . S
C897 C891 1.429 . S
C897 C898 1.523 . S
C898 C879 1.368 . S
C898 C892 1.368 . S
C898 C897 1.523 . S
C899 C883 1.429 . S
C899 C895 1.429 . S
C899 C900 1.523 . S
C900 C884 1.368 . S
C900 C896 1.368 . S
C900 C899 1.523 . S
H901 C876 0.950 . S
H902 C878 0.950 . S
H903 C879 0.949 . S
H904 C881 0.950 . S
H905 C883 0.950 . S
C906 C907 1.349 . S
C906 C908 1.327 . S
C906 H931 0.950 . S
C907 C906 1.349 . S
C907 C923 1.349 . S
C908 C906 1.327 . S
C908 C927 1.429 . S
C908 H932 0.950 . S
C909 C926 1.574 . S
C909 C928 1.368 . S
C909 H933 0.949 . S
H910 C914 0.949 . S
C911 C912 1.349 . S
C911 C913 1.327 . S
C911 H934 0.950 . S
C912 C911 1.349 . S
C912 C924 1.349 . S
C913 C911 1.327 . S
C913 C929 1.429 . S
C913 H935 0.950 . S
C914 H910 0.949 . S
C914 C922 1.574 . S
C914 C930 1.368 . S
H915 C923 0.950 . S
H916 C921 0.950 . S
H917 C922 0.949 . S
H918 C924 0.950 . S
H919 C925 0.950 . S
H920 C926 0.949 . S
C921 H916 0.950 . S
C921 C923 1.327 . S
C921 C927 1.429 . S
C922 C914 1.574 . S
C922 H917 0.949 . S
C922 C928 1.368 . S
C923 C907 1.349 . S
C923 H915 0.950 . S
C923 C921 1.327 . S
C924 C912 1.349 . S
C924 H918 0.950 . S
C924 C925 1.327 . S
C925 H919 0.950 . S
C925 C924 1.327 . S
C925 C929 1.429 . S
C926 C909 1.574 . S
C926 H920 0.949 . S
C926 C930 1.368 . S
C927 C908 1.429 . S
C927 C921 1.429 . S
C927 C928 1.523 . S
C928 C909 1.368 . S
C928 C922 1.368 . S
C928 C927 1.523 . S
C929 C913 1.429 . S
C929 C925 1.429 . S
C929 C930 1.523 . S
C930 C914 1.368 . S
C930 C926 1.368 . S
C930 C929 1.523 . S
H931 C906 0.950 . S
H932 C908 0.950 . S
H933 C909 0.949 . S
H934 C911 0.950 . S
H935 C913 0.950 . S
C936 C937 1.349 . S
C936 C938 1.327 . S
C936 H961 0.950 . S
C937 C936 1.349 . S
C937 C953 1.349 . S
C938 C936 1.327 . S
C938 C957 1.429 . S
C938 H962 0.950 . S
C939 C956 1.574 . S
C939 C958 1.368 . S
C939 H963 0.949 . S
H940 C944 0.949 . S
C941 C942 1.349 . S
C941 C943 1.327 . S
C941 H964 0.950 . S
C942 C941 1.349 . S
C942 C954 1.349 . S
C943 C941 1.327 . S
C943 C959 1.429 . S
C943 H965 0.950 . S
C944 H940 0.949 . S
C944 C952 1.574 . S
C944 C960 1.368 . S
H945 C953 0.950 . S
H946 C951 0.950 . S
H947 C952 0.949 . S
H948 C954 0.950 . S
H949 C955 0.950 . S
H950 C956 0.949 . S
C951 H946 0.950 . S
C951 C953 1.327 . S
C951 C957 1.429 . S
C952 C944 1.574 . S
C952 H947 0.949 . S
C952 C958 1.368 . S
C953 C937 1.349 . S
C953 H945 0.950 . S
C953 C951 1.327 . S
C954 C942 1.349 . S
C954 H948 0.950 . S
C954 C955 1.327 . S
C955 H949 0.950 . S
C955 C954 1.327 . S
C955 C959 1.429 . S
C956 C939 1.574 . S
C956 H950 0.949 . S
C956 C960 1.368 . S
C957 C938 1.429 . S
C957 C951 1.429 . S
C957 C958 1.523 . S
C958 C939 1.368 . S
C958 C952 1.368 . S
C958 C957 1.523 . S
C959 C943 1.429 . S
C959 C955 1.429 . S
C959 C960 1.523 . S
C960 C944 1.368 . S
C960 C956 1.368 . S
C960 C959 1.523 . S
H961 C936 0.950 . S
H962 C938 0.950 . S
H963 C939 0.949 . S
H964 C941 0.950 . S
H965 C943 0.950 . S
C966 C967 1.349 . S
C966 C968 1.327 . S
C966 H991 0.950 . S
C967 C966 1.349 . S
C967 C983 1.349 . S
C968 C966 1.327 . S
C968 C987 1.429 . S
C968 H992 0.950 . S
C969 C986 1.574 . S
C969 C988 1.368 . S
C969 H993 0.949 . S
H970 C974 0.949 . S
C971 C972 1.349 . S
C971 C973 1.327 . S
C971 H994 0.950 . S
C972 C971 1.349 . S
C972 C984 1.349 . S
C973 C971 1.327 . S
C973 C989 1.429 . S
C973 H995 0.950 . S
C974 H970 0.949 . S
C974 C982 1.574 . S
C974 C990 1.368 . S
H975 C983 0.950 . S
H976 C981 0.950 . S
H977 C982 0.949 . S
H978 C984 0.950 . S
H979 C985 0.950 . S
H980 C986 0.949 . S
C981 H976 0.950 . S
C981 C983 1.327 . S
C981 C987 1.429 . S
C982 C974 1.574 . S
C982 H977 0.949 . S
C982 C988 1.368 . S
C983 C967 1.349 . S
C983 H975 0.950 . S
C983 C981 1.327 . S
C984 C972 1.349 . S
C984 H978 0.950 . S
C984 C985 1.327 . S
C985 H979 0.950 . S
C985 C984 1.327 . S
C985 C989 1.429 . S
C986 C969 1.574 . S
C986 H980 0.949 . S
C986 C990 1.368 . S
C987 C968 1.429 . S
C987 C981 1.429 . S
C987 C988 1.523 . S
C988 C969 1.368 . S
C988 C982 1.368 . S
C988 C987 1.523 . S
C989 C973 1.429 . S
C989 C985 1.429 . S
C989 C990 1.523 . S
C990 C974 1.368 . S
C990 C986 1.368 . S
C990 C989 1.523 . S
H991 C966 0.950 . S
H992 C968 0.950 . S
H993 C969 0.949 . S
H994 C971 0.950 . S
H995 C973 0.950 . S
C996 C997 1.349 . S
C996 C998 1.327 . S
C996 H1021 0.950 . S
C997 C996 1.349 . S
C997 C1013 1.349 . S
C998 C996 1.327 . S
C998 C1017 1.429 . S
C998 H1022 0.950 . S
C999 C1016 1.574 . S
C999 C1018 1.368 . S
C999 H1023 0.949 . S
H1000 C1004 0.949 . S
C1001 C1002 1.349 . S
C1001 C1003 1.327 . S
C1001 H1024 0.950 . S
C1002 C1001 1.349 . S
C1002 C1014 1.349 . S
C1003 C1001 1.327 . S
C1003 C1019 1.429 . S
C1003 H1025 0.950 . S
C1004 H1000 0.949 . S
C1004 C1012 1.574 . S
C1004 C1020 1.368 . S
H1005 C1013 0.950 . S
H1006 C1011 0.950 . S
H1007 C1012 0.949 . S
H1008 C1014 0.950 . S
H1009 C1015 0.950 . S
H1010 C1016 0.949 . S
C1011 H1006 0.950 . S
C1011 C1013 1.327 . S
C1011 C1017 1.429 . S
C1012 C1004 1.574 . S
C1012 H1007 0.949 . S
C1012 C1018 1.368 . S
C1013 C997 1.349 . S
C1013 H1005 0.950 . S
C1013 C1011 1.327 . S
C1014 C1002 1.349 . S
C1014 H1008 0.950 . S
C1014 C1015 1.327 . S
C1015 H1009 0.950 . S
C1015 C1014 1.327 . S
C1015 C1019 1.429 . S
C1016 C999 1.574 . S
C1016 H1010 0.949 . S
C1016 C1020 1.368 . S
C1017 C998 1.429 . S
C1017 C1011 1.429 . S
C1017 C1018 1.523 . S
C1018 C999 1.368 . S
C1018 C1012 1.368 . S
C1018 C1017 1.523 . S
C1019 C1003 1.429 . S
C1019 C1015 1.429 . S
C1019 C1020 1.523 . S
C1020 C1004 1.368 . S
C1020 C1016 1.368 . S
C1020 C1019 1.523 . S
H1021 C996 0.950 . S
H1022 C998 0.950 . S
H1023 C999 0.949 . S
H1024 C1001 0.950 . S
H1025 C1003 0.950 . S
C1026 C1027 1.349 . S
C1026 C1028 1.327 . S
C1026 H1051 0.950 . S
C1027 C1026 1.349 . S
C1027 C1043 1.349 . S
C1028 C1026 1.327 . S
C1028 C1047 1.429 . S
C1028 H1052 0.950 . S
C1029 C1046 1.574 . S
C1029 C1048 1.368 . S
C1029 H1053 0.949 . S
H1030 C1034 0.949 . S
C1031 C1032 1.349 . S
C1031 C1033 1.327 . S
C1031 H1054 0.950 . S
C1032 C1031 1.349 . S
C1032 C1044 1.349 . S
C1033 C1031 1.327 . S
C1033 C1049 1.429 . S
C1033 H1055 0.950 . S
C1034 H1030 0.949 . S
C1034 C1042 1.574 . S
C1034 C1050 1.368 . S
H1035 C1043 0.950 . S
H1036 C1041 0.950 . S
H1037 C1042 0.949 . S
H1038 C1044 0.950 . S
H1039 C1045 0.950 . S
H1040 C1046 0.949 . S
C1041 H1036 0.950 . S
C1041 C1043 1.327 . S
C1041 C1047 1.429 . S
C1042 C1034 1.574 . S
C1042 H1037 0.949 . S
C1042 C1048 1.368 . S
C1043 C1027 1.349 . S
C1043 H1035 0.950 . S
C1043 C1041 1.327 . S
C1044 C1032 1.349 . S
C1044 H1038 0.950 . S
C1044 C1045 1.327 . S
C1045 H1039 0.950 . S
C1045 C1044 1.327 . S
C1045 C1049 1.429 . S
C1046 C1029 1.574 . S
C1046 H1040 0.949 . S
C1046 C1050 1.368 . S
C1047 C1028 1.429 . S
C1047 C1041 1.429 . S
C1047 C1048 1.523 . S
C1048 C1029 1.368 . S
C1048 C1042 1.368 . S
C1048 C1047 1.523 . S
C1049 C1033 1.429 . S
C1049 C1045 1.429 . S
C1049 C1050 1.523 . S
C1050 C1034 1.368 . S
C1050 C1046 1.368 . S
C1050 C1049 1.523 . S
H1051 C1026 0.950 . S
H1052 C1028 0.950 . S
H1053 C1029 0.949 . S
H1054 C1031 0.950 . S
H1055 C1033 0.950 . S
C1056 C1057 1.349 . S
C1056 C1058 1.327 . S
C1056 H1081 0.950 . S
C1057 C1056 1.349 . S
C1057 C1073 1.349 . S
C1058 C1056 1.327 . S
C1058 C1077 1.429 . S
C1058 H1082 0.950 . S
C1059 C1076 1.574 . S
C1059 C1078 1.368 . S
C1059 H1083 0.949 . S
H1060 C1064 0.949 . S
C1061 C1062 1.349 . S
C1061 C1063 1.327 . S
C1061 H1084 0.950 . S
C1062 C1061 1.349 . S
C1062 C1074 1.349 . S
C1063 C1061 1.327 . S
C1063 C1079 1.429 . S
C1063 H1085 0.950 . S
C1064 H1060 0.949 . S
C1064 C1072 1.574 . S
C1064 C1080 1.368 . S
H1065 C1073 0.950 . S
H1066 C1071 0.950 . S
H1067 C1072 0.949 . S
H1068 C1074 0.950 . S
H1069 C1075 0.950 . S
H1070 C1076 0.949 . S
C1071 H1066 0.950 . S
C1071 C1073 1.327 . S
C1071 C1077 1.429 . S
C1072 C1064 1.574 . S
C1072 H1067 0.949 . S
C1072 C1078 1.368 . S
C1073 C1057 1.349 . S
C1073 H1065 0.950 . S
C1073 C1071 1.327 . S
C1074 C1062 1.349 . S
C1074 H1068 0.950 . S
C1074 C1075 1.327 . S
C1075 H1069 0.950 . S
C1075 C1074 1.327 . S
C1075 C1079 1.429 . S
C1076 C1059 1.574 . S
C1076 H1070 0.949 . S
C1076 C1080 1.368 . S
C1077 C1058 1.429 . S
C1077 C1071 1.429 . S
C1077 C1078 1.523 . S
C1078 C1059 1.368 . S
C1078 C1072 1.368 . S
C1078 C1077 1.523 . S
C1079 C1063 1.429 . S
C1079 C1075 1.429 . S
C1079 C1080 1.523 . S
C1080 C1064 1.368 . S
C1080 C1076 1.368 . S
C1080 C1079 1.523 . S
H1081 C1056 0.950 . S
H1082 C1058 0.950 . S
H1083 C1059 0.949 . S
H1084 C1061 0.950 . S
H1085 C1063 0.950 . S
C1086 C1087 1.349 . S
C1086 C1088 1.327 . S
C1086 H1111 0.950 . S
C1087 C1086 1.349 . S
C1087 C1103 1.349 . S
C1088 C1086 1.327 . S
C1088 C1107 1.429 . S
C1088 H1112 0.950 . S
C1089 C1106 1.574 . S
C1089 C1108 1.368 . S
C1089 H1113 0.949 . S
H1090 C1094 0.949 . S
C1091 C1092 1.349 . S
C1091 C1093 1.327 . S
C1091 H1114 0.950 . S
C1092 C1091 1.349 . S
C1092 C1104 1.349 . S
C1093 C1091 1.327 . S
C1093 C1109 1.429 . S
C1093 H1115 0.950 . S
C1094 H1090 0.949 . S
C1094 C1102 1.574 . S
C1094 C1110 1.368 . S
H1095 C1103 0.950 . S
H1096 C1101 0.950 . S
H1097 C1102 0.949 . S
H1098 C1104 0.950 . S
H1099 C1105 0.950 . S
H1100 C1106 0.949 . S
C1101 H1096 0.950 . S
C1101 C1103 1.327 . S
C1101 C1107 1.429 . S
C1102 C1094 1.574 . S
C1102 H1097 0.949 . S
C1102 C1108 1.368 . S
C1103 C1087 1.349 . S
C1103 H1095 0.950 . S
C1103 C1101 1.327 . S
C1104 C1092 1.349 . S
C1104 H1098 0.950 . S
C1104 C1105 1.327 . S
C1105 H1099 0.950 . S
C1105 C1104 1.327 . S
C1105 C1109 1.429 . S
C1106 C1089 1.574 . S
C1106 H1100 0.949 . S
C1106 C1110 1.368 . S
C1107 C1088 1.429 . S
C1107 C1101 1.429 . S
C1107 C1108 1.523 . S
C1108 C1089 1.368 . S
C1108 C1102 1.368 . S
C1108 C1107 1.523 . S
C1109 C1093 1.429 . S
C1109 C1105 1.429 . S
C1109 C1110 1.523 . S
C1110 C1094 1.368 . S
C1110 C1106 1.368 . S
C1110 C1109 1.523 . S
H1111 C1086 0.950 . S
H1112 C1088 0.950 . S
H1113 C1089 0.949 . S
H1114 C1091 0.950 . S
H1115 C1093 0.950 . S
C1116 C1117 1.349 . S
C1116 C1118 1.327 . S
C1116 H1141 0.950 . S
C1117 C1116 1.349 . S
C1117 C1133 1.349 . S
C1118 C1116 1.327 . S
C1118 C1137 1.429 . S
C1118 H1142 0.950 . S
C1119 C1136 1.574 . S
C1119 C1138 1.368 . S
C1119 H1143 0.949 . S
H1120 C1124 0.949 . S
C1121 C1122 1.349 . S
C1121 C1123 1.327 . S
C1121 H1144 0.950 . S
C1122 C1121 1.349 . S
C1122 C1134 1.349 . S
C1123 C1121 1.327 . S
C1123 C1139 1.429 . S
C1123 H1145 0.950 . S
C1124 H1120 0.949 . S
C1124 C1132 1.574 . S
C1124 C1140 1.368 . S
H1125 C1133 0.950 . S
H1126 C1131 0.950 . S
H1127 C1132 0.949 . S
H1128 C1134 0.950 . S
H1129 C1135 0.950 . S
H1130 C1136 0.949 . S
C1131 H1126 0.950 . S
C1131 C1133 1.327 . S
C1131 C1137 1.429 . S
C1132 C1124 1.574 . S
C1132 H1127 0.949 . S
C1132 C1138 1.368 . S
C1133 C1117 1.349 . S
C1133 H1125 0.950 . S
C1133 C1131 1.327 . S
C1134 C1122 1.349 . S
C1134 H1128 0.950 . S
C1134 C1135 1.327 . S
C1135 H1129 0.950 . S
C1135 C1134 1.327 . S
C1135 C1139 1.429 . S
C1136 C1119 1.574 . S
C1136 H1130 0.949 . S
C1136 C1140 1.368 . S
C1137 C1118 1.429 . S
C1137 C1131 1.429 . S
C1137 C1138 1.523 . S
C1138 C1119 1.368 . S
C1138 C1132 1.368 . S
C1138 C1137 1.523 . S
C1139 C1123 1.429 . S
C1139 C1135 1.429 . S
C1139 C1140 1.523 . S
C1140 C1124 1.368 . S
C1140 C1136 1.368 . S
C1140 C1139 1.523 . S
H1141 C1116 0.950 . S
H1142 C1118 0.950 . S
H1143 C1119 0.949 . S
H1144 C1121 0.950 . S
H1145 C1123 0.950 . S
C1146 C1147 1.349 . S
C1146 C1148 1.327 . S
C1146 H1171 0.950 . S
C1147 C1146 1.349 . S
C1147 C1163 1.349 . S
C1148 C1146 1.327 . S
C1148 C1167 1.429 . S
C1148 H1172 0.950 . S
C1149 C1166 1.574 . S
C1149 C1168 1.368 . S
C1149 H1173 0.949 . S
H1150 C1154 0.949 . S
C1151 C1152 1.349 . S
C1151 C1153 1.327 . S
C1151 H1174 0.950 . S
C1152 C1151 1.349 . S
C1152 C1164 1.349 . S
C1153 C1151 1.327 . S
C1153 C1169 1.429 . S
C1153 H1175 0.950 . S
C1154 H1150 0.949 . S
C1154 C1162 1.574 . S
C1154 C1170 1.368 . S
H1155 C1163 0.950 . S
H1156 C1161 0.950 . S
H1157 C1162 0.949 . S
H1158 C1164 0.950 . S
H1159 C1165 0.950 . S
H1160 C1166 0.949 . S
C1161 H1156 0.950 . S
C1161 C1163 1.327 . S
C1161 C1167 1.429 . S
C1162 C1154 1.574 . S
C1162 H1157 0.949 . S
C1162 C1168 1.368 . S
C1163 C1147 1.349 . S
C1163 H1155 0.950 . S
C1163 C1161 1.327 . S
C1164 C1152 1.349 . S
C1164 H1158 0.950 . S
C1164 C1165 1.327 . S
C1165 H1159 0.950 . S
C1165 C1164 1.327 . S
C1165 C1169 1.429 . S
C1166 C1149 1.574 . S
C1166 H1160 0.949 . S
C1166 C1170 1.368 . S
C1167 C1148 1.429 . S
C1167 C1161 1.429 . S
C1167 C1168 1.523 . S
C1168 C1149 1.368 . S
C1168 C1162 1.368 . S
C1168 C1167 1.523 . S
C1169 C1153 1.429 . S
C1169 C1165 1.429 . S
C1169 C1170 1.523 . S
C1170 C1154 1.368 . S
C1170 C1166 1.368 . S
C1170 C1169 1.523 . S
H1171 C1146 0.950 . S
H1172 C1148 0.950 . S
H1173 C1149 0.949 . S
H1174 C1151 0.950 . S
H1175 C1153 0.950 . S
C1176 C1177 1.349 . S
C1176 C1178 1.327 . S
C1176 H1201 0.950 . S
C1177 C1176 1.349 . S
C1177 C1193 1.349 . S
C1178 C1176 1.327 . S
C1178 C1197 1.429 . S
C1178 H1202 0.950 . S
C1179 C1196 1.574 . S
C1179 C1198 1.368 . S
C1179 H1203 0.949 . S
H1180 C1184 0.949 . S
C1181 C1182 1.349 . S
C1181 C1183 1.327 . S
C1181 H1204 0.950 . S
C1182 C1181 1.349 . S
C1182 C1194 1.349 . S
C1183 C1181 1.327 . S
C1183 C1199 1.429 . S
C1183 H1205 0.950 . S
C1184 H1180 0.949 . S
C1184 C1192 1.574 . S
C1184 C1200 1.368 . S
H1185 C1193 0.950 . S
H1186 C1191 0.950 . S
H1187 C1192 0.949 . S
H1188 C1194 0.950 . S
H1189 C1195 0.950 . S
H1190 C1196 0.949 . S
C1191 H1186 0.950 . S
C1191 C1193 1.327 . S
C1191 C1197 1.429 . S
C1192 C1184 1.574 . S
C1192 H1187 0.949 . S
C1192 C1198 1.368 . S
C1193 C1177 1.349 . S
C1193 H1185 0.950 . S
C1193 C1191 1.327 . S
C1194 C1182 1.349 . S
C1194 H1188 0.950 . S
C1194 C1195 1.327 . S
C1195 H1189 0.950 . S
C1195 C1194 1.327 . S
C1195 C1199 1.429 . S
C1196 C1179 1.574 . S
C1196 H1190 0.949 . S
C1196 C1200 1.368 . S
C1197 C1178 1.429 . S
C1197 C1191 1.429 . S
C1197 C1198 1.523 . S
C1198 C1179 1.368 . S
C1198 C1192 1.368 . S
C1198 C1197 1.523 . S
C1199 C1183 1.429 . S
C1199 C1195 1.429 . S
C1199 C1200 1.523 . S
C1200 C1184 1.368 . S
C1200 C1196 1.368 . S
C1200 C1199 1.523 . S
H1201 C1176 0.950 . S
H1202 C1178 0.950 . S
H1203 C1179 0.949 . S
H1204 C1181 0.950 . S
H1205 C1183 0.950 . S
C1206 C1207 1.349 . S
C1206 C1208 1.327 . S
C1206 H1231 0.950 . S
C1207 C1206 1.349 . S
C1207 C1223 1.349 . S
C1208 C1206 1.327 . S
C1208 C1227 1.429 . S
C1208 H1232 0.950 . S
C1209 C1226 1.574 . S
C1209 C1228 1.368 . S
C1209 H1233 0.949 . S
H1210 C1214 0.949 . S
C1211 C1212 1.349 . S
C1211 C1213 1.327 . S
C1211 H1234 0.950 . S
C1212 C1211 1.349 . S
C1212 C1224 1.349 . S
C1213 C1211 1.327 . S
C1213 C1229 1.429 . S
C1213 H1235 0.950 . S
C1214 H1210 0.949 . S
C1214 C1222 1.574 . S
C1214 C1230 1.368 . S
H1215 C1223 0.950 . S
H1216 C1221 0.950 . S
H1217 C1222 0.949 . S
H1218 C1224 0.950 . S
H1219 C1225 0.950 . S
H1220 C1226 0.949 . S
C1221 H1216 0.950 . S
C1221 C1223 1.327 . S
C1221 C1227 1.429 . S
C1222 C1214 1.574 . S
C1222 H1217 0.949 . S
C1222 C1228 1.368 . S
C1223 C1207 1.349 . S
C1223 H1215 0.950 . S
C1223 C1221 1.327 . S
C1224 C1212 1.349 . S
C1224 H1218 0.950 . S
C1224 C1225 1.327 . S
C1225 H1219 0.950 . S
C1225 C1224 1.327 . S
C1225 C1229 1.429 . S
C1226 C1209 1.574 . S
C1226 H1220 0.949 . S
C1226 C1230 1.368 . S
C1227 C1208 1.429 . S
C1227 C1221 1.429 . S
C1227 C1228 1.523 . S
C1228 C1209 1.368 . S
C1228 C1222 1.368 . S
C1228 C1227 1.523 . S
C1229 C1213 1.429 . S
C1229 C1225 1.429 . S
C1229 C1230 1.523 . S
C1230 C1214 1.368 . S
C1230 C1226 1.368 . S
C1230 C1229 1.523 . S
H1231 C1206 0.950 . S
H1232 C1208 0.950 . S
H1233 C1209 0.949 . S
H1234 C1211 0.950 . S
H1235 C1213 0.950 . S
C1236 C1237 1.349 . S
C1236 C1238 1.327 . S
C1236 H1261 0.950 . S
C1237 C1236 1.349 . S
C1237 C1253 1.349 . S
C1238 C1236 1.327 . S
C1238 C1257 1.429 . S
C1238 H1262 0.950 . S
C1239 C1256 1.574 . S
C1239 C1258 1.368 . S
C1239 H1263 0.949 . S
H1240 C1244 0.949 . S
C1241 C1242 1.349 . S
C1241 C1243 1.327 . S
C1241 H1264 0.950 . S
C1242 C1241 1.349 . S
C1242 C1254 1.349 . S
C1243 C1241 1.327 . S
C1243 C1259 1.429 . S
C1243 H1265 0.950 . S
C1244 H1240 0.949 . S
C1244 C1252 1.574 . S
C1244 C1260 1.368 . S
H1245 C1253 0.950 . S
H1246 C1251 0.950 . S
H1247 C1252 0.949 . S
H1248 C1254 0.950 . S
H1249 C1255 0.950 . S
H1250 C1256 0.949 . S
C1251 H1246 0.950 . S
C1251 C1253 1.327 . S
C1251 C1257 1.429 . S
C1252 C1244 1.574 . S
C1252 H1247 0.949 . S
C1252 C1258 1.368 . S
C1253 C1237 1.349 . S
C1253 H1245 0.950 . S
C1253 C1251 1.327 . S
C1254 C1242 1.349 . S
C1254 H1248 0.950 . S
C1254 C1255 1.327 . S
C1255 H1249 0.950 . S
C1255 C1254 1.327 . S
C1255 C1259 1.429 . S
C1256 C1239 1.574 . S
C1256 H1250 0.949 . S
C1256 C1260 1.368 . S
C1257 C1238 1.429 . S
C1257 C1251 1.429 . S
C1257 C1258 1.523 . S
C1258 C1239 1.368 . S
C1258 C1252 1.368 . S
C1258 C1257 1.523 . S
C1259 C1243 1.429 . S
C1259 C1255 1.429 . S
C1259 C1260 1.523 . S
C1260 C1244 1.368 . S
C1260 C1256 1.368 . S
C1260 C1259 1.523 . S
H1261 C1236 0.950 . S
H1262 C1238 0.950 . S
H1263 C1239 0.949 . S
H1264 C1241 0.950 . S
H1265 C1243 0.950 . S
C1266 C1267 1.349 . S
C1266 C1268 1.327 . S
C1266 H1291 0.950 . S
C1267 C1266 1.349 . S
C1267 C1283 1.349 . S
C1268 C1266 1.327 . S
C1268 C1287 1.429 . S
C1268 H1292 0.950 . S
C1269 C1286 1.574 . S
C1269 C1288 1.368 . S
C1269 H1293 0.949 . S
H1270 C1274 0.949 . S
C1271 C1272 1.349 . S
C1271 C1273 1.327 . S
C1271 H1294 0.950 . S
C1272 C1271 1.349 . S
C1272 C1284 1.349 . S
C1273 C1271 1.327 . S
C1273 C1289 1.429 . S
C1273 H1295 0.950 . S
C1274 H1270 0.949 . S
C1274 C1282 1.574 . S
C1274 C1290 1.368 . S
H1275 C1283 0.950 . S
H1276 C1281 0.950 . S
H1277 C1282 0.949 . S
H1278 C1284 0.950 . S
H1279 C1285 0.950 . S
H1280 C1286 0.949 . S
C1281 H1276 0.950 . S
C1281 C1283 1.327 . S
C1281 C1287 1.429 . S
C1282 C1274 1.574 . S
C1282 H1277 0.949 . S
C1282 C1288 1.368 . S
C1283 C1267 1.349 . S
C1283 H1275 0.950 . S
C1283 C1281 1.327 . S
C1284 C1272 1.349 . S
C1284 H1278 0.950 . S
C1284 C1285 1.327 . S
C1285 H1279 0.950 . S
C1285 C1284 1.327 . S
C1285 C1289 1.429 . S
C1286 C1269 1.574 . S
C1286 H1280 0.949 . S
C1286 C1290 1.368 . S
C1287 C1268 1.429 . S
C1287 C1281 1.429 . S
C1287 C1288 1.523 . S
C1288 C1269 1.368 . S
C1288 C1282 1.368 . S
C1288 C1287 1.523 . S
C1289 C1273 1.429 . S
C1289 C1285 1.429 . S
C1289 C1290 1.523 . S
C1290 C1274 1.368 . S
C1290 C1286 1.368 . S
C1290 C1289 1.523 . S
H1291 C1266 0.950 . S
H1292 C1268 0.950 . S
H1293 C1269 0.949 . S
H1294 C1271 0.950 . S
H1295 C1273 0.950 . S
C397 C172 0.626 . S
C402 C7 0.626 . S
C427 C40 0.626 . S
C432 C106 0.626 . S
C457 C73 0.626 . S
C462 C139 0.626 . S
C487 C205 0.626 . S
C492 C370 0.626 . S
C517 C304 0.626 . S
C522 C238 0.626 . S
C547 C337 0.626 . S
C552 C271 0.626 . S
C577 C21 1.878 . S
C582 C219 1.878 . S
C607 C54 1.880 . S
C612 C252 1.880 . S
C637 C285 1.879 . S
C642 C87 1.879 . S
C667 C318 1.878 . S
C672 C120 1.878 . S
C697 C153 1.879 . S
C702 C351 1.879 . S
C727 C186 1.881 . S
C732 C384 1.881 . S
C757 N145 1.208 . S
C762 N13 1.208 . S
C787 N178 1.209 . S
C792 N46 1.209 . S
C817 N112 1.208 . S
C822 N79 1.208 . S
C847 N211 1.208 . S
C852 N343 1.208 . S
C877 N244 1.209 . S
C882 N376 1.209 . S
C907 N310 1.208 . S
C912 N277 1.208 . S
C937 C18 0.557 . S
C942 N68 0.607 . S
C967 C51 0.558 . S
C972 N2 0.607 . S
C997 N35 0.607 . S
C1002 C84 0.557 . S
C1027 C117 0.557 . S
C1032 N134 0.607 . S
C1057 N167 0.607 . S
C1062 C150 0.557 . S
C1087 N101 0.607 . S
C1092 C183 0.558 . S
C1117 N266 0.607 . S
C1122 C216 0.557 . S
C1147 C249 0.558 . S
C1152 N200 0.607 . S
C1177 N233 0.607 . S
C1182 C282 0.557 . S
C1207 N332 0.607 . S
C1212 C315 0.557 . S
C1237 N365 0.607 . S
C1242 C348 0.557 . S
C1267 C381 0.558 . S
C1272 N299 0.607 . S
