# Generated by pormake.
# Topology wgp, (5)-cn, num edge types: 1
# Building blocks:
#     Node 0, Type 0, BuildingBlock: XOMCOT_clean_sbu_1, # of connection points: 5
#     Node 1, Type 0, BuildingBlock: XOMCOT_clean_sbu_1, # of connection points: 5
#     Node 2, Type 0, BuildingBlock: XOMCOT_clean_sbu_1, # of connection points: 5
#     Node 3, Type 0, BuildingBlock: XOMCOT_clean_sbu_1, # of connection points: 5
#     Node 4, Type 0, BuildingBlock: XOMCOT_clean_sbu_1, # of connection points: 5
#     Node 5, Type 0, BuildingBlock: XOMCOT_clean_sbu_1, # of connection points: 5
#     Node 6, Type 0, BuildingBlock: XOMCOT_clean_sbu_1, # of connection points: 5
#     Node 7, Type 0, BuildingBlock: XOMCOT_clean_sbu_1, # of connection points: 5
#     Node 8, Type 0, BuildingBlock: XOMCOT_clean_sbu_1, # of connection points: 5
#     Node 9, Type 0, BuildingBlock: XOMCOT_clean_sbu_1, # of connection points: 5
#     Node 10, Type 0, BuildingBlock: XOMCOT_clean_sbu_1, # of connection points: 5
#     Node 11, Type 0, BuildingBlock: XOMCOT_clean_sbu_1, # of connection points: 5
#     Node 12, Type 0, BuildingBlock: XOMCOT_clean_sbu_1, # of connection points: 5
#     Node 13, Type 0, BuildingBlock: XOMCOT_clean_sbu_1, # of connection points: 5
#     Node 14, Type 0, BuildingBlock: XOMCOT_clean_sbu_1, # of connection points: 5
#     Node 15, Type 0, BuildingBlock: XOMCOT_clean_sbu_1, # of connection points: 5
#     Node 16, Type 0, BuildingBlock: XOMCOT_clean_sbu_1, # of connection points: 5
#     Node 17, Type 0, BuildingBlock: XOMCOT_clean_sbu_1, # of connection points: 5
#     Node 18, Type 0, BuildingBlock: XOMCOT_clean_sbu_1, # of connection points: 5
#     Node 19, Type 0, BuildingBlock: XOMCOT_clean_sbu_1, # of connection points: 5
#     Node 20, Type 0, BuildingBlock: XOMCOT_clean_sbu_1, # of connection points: 5
#     Node 21, Type 0, BuildingBlock: XOMCOT_clean_sbu_1, # of connection points: 5
#     Node 22, Type 0, BuildingBlock: XOMCOT_clean_sbu_1, # of connection points: 5
#     Node 23, Type 0, BuildingBlock: XOMCOT_clean_sbu_1, # of connection points: 5
#     Node 24, Type 0, BuildingBlock: XOMCOT_clean_sbu_1, # of connection points: 5
#     Node 25, Type 0, BuildingBlock: XOMCOT_clean_sbu_1, # of connection points: 5
#     Node 26, Type 0, BuildingBlock: XOMCOT_clean_sbu_1, # of connection points: 5
#     Node 27, Type 0, BuildingBlock: XOMCOT_clean_sbu_1, # of connection points: 5
#     Node 28, Type 0, BuildingBlock: XOMCOT_clean_sbu_1, # of connection points: 5
#     Node 29, Type 0, BuildingBlock: XOMCOT_clean_sbu_1, # of connection points: 5
#     Node 30, Type 0, BuildingBlock: XOMCOT_clean_sbu_1, # of connection points: 5
#     Node 31, Type 0, BuildingBlock: XOMCOT_clean_sbu_1, # of connection points: 5
#     Edge 32, Type (0, 0), BuildingBlock: ZUJKAS_clean_linker_0, # of connection points: 2
#     Edge 33, Type (0, 0), BuildingBlock: ZUJKAS_clean_linker_0, # of connection points: 2
#     Edge 34, Type (0, 0), BuildingBlock: ZUJKAS_clean_linker_0, # of connection points: 2
#     Edge 35, Type (0, 0), BuildingBlock: ZUJKAS_clean_linker_0, # of connection points: 2
#     Edge 36, Type (0, 0), BuildingBlock: ZUJKAS_clean_linker_0, # of connection points: 2
#     Edge 37, Type (0, 0), BuildingBlock: ZUJKAS_clean_linker_0, # of connection points: 2
#     Edge 38, Type (0, 0), BuildingBlock: ZUJKAS_clean_linker_0, # of connection points: 2
#     Edge 39, Type (0, 0), BuildingBlock: ZUJKAS_clean_linker_0, # of connection points: 2
#     Edge 40, Type (0, 0), BuildingBlock: ZUJKAS_clean_linker_0, # of connection points: 2
#     Edge 41, Type (0, 0), BuildingBlock: ZUJKAS_clean_linker_0, # of connection points: 2
#     Edge 42, Type (0, 0), BuildingBlock: ZUJKAS_clean_linker_0, # of connection points: 2
#     Edge 43, Type (0, 0), BuildingBlock: ZUJKAS_clean_linker_0, # of connection points: 2
#     Edge 44, Type (0, 0), BuildingBlock: ZUJKAS_clean_linker_0, # of connection points: 2
#     Edge 45, Type (0, 0), BuildingBlock: ZUJKAS_clean_linker_0, # of connection points: 2
#     Edge 46, Type (0, 0), BuildingBlock: ZUJKAS_clean_linker_0, # of connection points: 2
#     Edge 47, Type (0, 0), BuildingBlock: ZUJKAS_clean_linker_0, # of connection points: 2
#     Edge 48, Type (0, 0), BuildingBlock: ZUJKAS_clean_linker_0, # of connection points: 2
#     Edge 49, Type (0, 0), BuildingBlock: ZUJKAS_clean_linker_0, # of connection points: 2
#     Edge 50, Type (0, 0), BuildingBlock: ZUJKAS_clean_linker_0, # of connection points: 2
#     Edge 51, Type (0, 0), BuildingBlock: ZUJKAS_clean_linker_0, # of connection points: 2
#     Edge 52, Type (0, 0), BuildingBlock: ZUJKAS_clean_linker_0, # of connection points: 2
#     Edge 53, Type (0, 0), BuildingBlock: ZUJKAS_clean_linker_0, # of connection points: 2
#     Edge 54, Type (0, 0), BuildingBlock: ZUJKAS_clean_linker_0, # of connection points: 2
#     Edge 55, Type (0, 0), BuildingBlock: ZUJKAS_clean_linker_0, # of connection points: 2
#     Edge 56, Type (0, 0), BuildingBlock: ZUJKAS_clean_linker_0, # of connection points: 2
#     Edge 57, Type (0, 0), BuildingBlock: ZUJKAS_clean_linker_0, # of connection points: 2
#     Edge 58, Type (0, 0), BuildingBlock: ZUJKAS_clean_linker_0, # of connection points: 2
#     Edge 59, Type (0, 0), BuildingBlock: ZUJKAS_clean_linker_0, # of connection points: 2
#     Edge 60, Type (0, 0), BuildingBlock: ZUJKAS_clean_linker_0, # of connection points: 2
#     Edge 61, Type (0, 0), BuildingBlock: ZUJKAS_clean_linker_0, # of connection points: 2
#     Edge 62, Type (0, 0), BuildingBlock: ZUJKAS_clean_linker_0, # of connection points: 2
#     Edge 63, Type (0, 0), BuildingBlock: ZUJKAS_clean_linker_0, # of connection points: 2
#     Edge 64, Type (0, 0), BuildingBlock: ZUJKAS_clean_linker_0, # of connection points: 2
#     Edge 65, Type (0, 0), BuildingBlock: ZUJKAS_clean_linker_0, # of connection points: 2
#     Edge 66, Type (0, 0), BuildingBlock: ZUJKAS_clean_linker_0, # of connection points: 2
#     Edge 67, Type (0, 0), BuildingBlock: ZUJKAS_clean_linker_0, # of connection points: 2
#     Edge 68, Type (0, 0), BuildingBlock: ZUJKAS_clean_linker_0, # of connection points: 2
#     Edge 69, Type (0, 0), BuildingBlock: ZUJKAS_clean_linker_0, # of connection points: 2
#     Edge 70, Type (0, 0), BuildingBlock: ZUJKAS_clean_linker_0, # of connection points: 2
#     Edge 71, Type (0, 0), BuildingBlock: ZUJKAS_clean_linker_0, # of connection points: 2
#     Edge 72, Type (0, 0), BuildingBlock: ZUJKAS_clean_linker_0, # of connection points: 2
#     Edge 73, Type (0, 0), BuildingBlock: ZUJKAS_clean_linker_0, # of connection points: 2
#     Edge 74, Type (0, 0), BuildingBlock: ZUJKAS_clean_linker_0, # of connection points: 2
#     Edge 75, Type (0, 0), BuildingBlock: ZUJKAS_clean_linker_0, # of connection points: 2
#     Edge 76, Type (0, 0), BuildingBlock: ZUJKAS_clean_linker_0, # of connection points: 2
#     Edge 77, Type (0, 0), BuildingBlock: ZUJKAS_clean_linker_0, # of connection points: 2
#     Edge 78, Type (0, 0), BuildingBlock: ZUJKAS_clean_linker_0, # of connection points: 2
#     Edge 79, Type (0, 0), BuildingBlock: ZUJKAS_clean_linker_0, # of connection points: 2
#     Edge 80, Type (0, 0), BuildingBlock: ZUJKAS_clean_linker_0, # of connection points: 2
#     Edge 81, Type (0, 0), BuildingBlock: ZUJKAS_clean_linker_0, # of connection points: 2
#     Edge 82, Type (0, 0), BuildingBlock: ZUJKAS_clean_linker_0, # of connection points: 2
#     Edge 83, Type (0, 0), BuildingBlock: ZUJKAS_clean_linker_0, # of connection points: 2
#     Edge 84, Type (0, 0), BuildingBlock: ZUJKAS_clean_linker_0, # of connection points: 2
#     Edge 85, Type (0, 0), BuildingBlock: ZUJKAS_clean_linker_0, # of connection points: 2
#     Edge 86, Type (0, 0), BuildingBlock: ZUJKAS_clean_linker_0, # of connection points: 2
#     Edge 87, Type (0, 0), BuildingBlock: ZUJKAS_clean_linker_0, # of connection points: 2
#     Edge 88, Type (0, 0), BuildingBlock: ZUJKAS_clean_linker_0, # of connection points: 2
#     Edge 89, Type (0, 0), BuildingBlock: ZUJKAS_clean_linker_0, # of connection points: 2
#     Edge 90, Type (0, 0), BuildingBlock: ZUJKAS_clean_linker_0, # of connection points: 2
#     Edge 91, Type (0, 0), BuildingBlock: ZUJKAS_clean_linker_0, # of connection points: 2
#     Edge 92, Type (0, 0), BuildingBlock: ZUJKAS_clean_linker_0, # of connection points: 2
#     Edge 93, Type (0, 0), BuildingBlock: ZUJKAS_clean_linker_0, # of connection points: 2
#     Edge 94, Type (0, 0), BuildingBlock: ZUJKAS_clean_linker_0, # of connection points: 2
#     Edge 95, Type (0, 0), BuildingBlock: ZUJKAS_clean_linker_0, # of connection points: 2
#     Edge 96, Type (0, 0), BuildingBlock: ZUJKAS_clean_linker_0, # of connection points: 2
#     Edge 97, Type (0, 0), BuildingBlock: ZUJKAS_clean_linker_0, # of connection points: 2
#     Edge 98, Type (0, 0), BuildingBlock: ZUJKAS_clean_linker_0, # of connection points: 2
#     Edge 99, Type (0, 0), BuildingBlock: ZUJKAS_clean_linker_0, # of connection points: 2
#     Edge 100, Type (0, 0), BuildingBlock: ZUJKAS_clean_linker_0, # of connection points: 2
#     Edge 101, Type (0, 0), BuildingBlock: ZUJKAS_clean_linker_0, # of connection points: 2
#     Edge 102, Type (0, 0), BuildingBlock: ZUJKAS_clean_linker_0, # of connection points: 2
#     Edge 103, Type (0, 0), BuildingBlock: ZUJKAS_clean_linker_0, # of connection points: 2
#     Edge 104, Type (0, 0), BuildingBlock: ZUJKAS_clean_linker_0, # of connection points: 2
#     Edge 105, Type (0, 0), BuildingBlock: ZUJKAS_clean_linker_0, # of connection points: 2
#     Edge 106, Type (0, 0), BuildingBlock: ZUJKAS_clean_linker_0, # of connection points: 2
#     Edge 107, Type (0, 0), BuildingBlock: ZUJKAS_clean_linker_0, # of connection points: 2
#     Edge 108, Type (0, 0), BuildingBlock: ZUJKAS_clean_linker_0, # of connection points: 2
#     Edge 109, Type (0, 0), BuildingBlock: ZUJKAS_clean_linker_0, # of connection points: 2
#     Edge 110, Type (0, 0), BuildingBlock: ZUJKAS_clean_linker_0, # of connection points: 2
#     Edge 111, Type (0, 0), BuildingBlock: ZUJKAS_clean_linker_0, # of connection points: 2
# Relax obj value: 0.159
# Max RMSD: 0.159
# Mean RMSD: 0.159
data_MOF--net-wgp--node1-XOMCOT_clean_sbu_1--edge1-ZUJKAS_clean_linker_0
_symmetry_space_group_name_H-M    P1
_symmetry_Int_Tables_number       1
_symmetry_cell_setting            triclinic
loop_
_symmetry_equiv_pos_as_xyz
'x, y, z'
_cell_length_a     44.227803
_cell_length_b     44.261719
_cell_length_c     134.31425
_cell_angle_alpha  89.980405
_cell_angle_beta   89.997868
_cell_angle_gamma 89.999637
loop_
_atom_site_label
_atom_site_type_symbol
_atom_site_fract_x
_atom_site_fract_y
_atom_site_fract_z
_atom_type_partial_charge
C0 C 0.21824 0.23997 0.06934 0.0
C1 C 0.21236 0.27051 0.06927 0.0
N2 N 0.23542 0.28494 0.07378 0.0
N3 N 0.24504 0.23476 0.07382 0.0
C4 C 0.25473 0.26269 0.07656 0.0
H5 H 0.20383 0.22265 0.06623 0.0
Co6 Co 0.2632 0.19604 0.07535 0.0
C7 C 0.23226 0.17233 0.05655 0.0
O8 O 0.21062 0.15652 0.06075 0.0
N9 N 0.281 0.15747 0.07697 0.0
C10 C 0.31163 0.12135 0.08255 0.0
C11 C 0.30649 0.15195 0.08217 0.0
C12 C 0.27083 0.12958 0.07438 0.0
N13 N 0.28911 0.10707 0.0777 0.0
O14 O 0.22646 0.18047 0.08091 0.0
H15 H 0.32022 0.16897 0.08573 0.0
H16 H 0.24977 0.12572 0.07053 0.0
O17 O 0.25143 0.18649 0.06186 0.0
C18 C 0.22518 0.18736 0.09012 0.0
O19 O 0.24642 0.20495 0.09376 0.0
N20 N 0.30016 0.21159 0.07075 0.0
C21 C 0.35475 0.23981 0.06614 0.0
C22 C 0.33846 0.22426 0.05879 0.0
C23 C 0.31127 0.21003 0.06126 0.0
C24 C 0.31647 0.22531 0.07805 0.0
C25 C 0.34367 0.23974 0.07592 0.0
H26 H 0.29954 0.19787 0.0555 0.0
H27 H 0.30791 0.22544 0.0856 0.0
H28 H 0.27533 0.26685 0.08062 0.0
H29 H 0.19285 0.28123 0.06593 0.0
H30 H 0.33054 0.11056 0.08622 0.0
H31 H 0.34638 0.22342 0.05117 0.0
H32 H 0.35597 0.25058 0.0819 0.0
C33 C 0.02333 0.04227 0.3264 0.0
C34 C 0.9924 0.04434 0.32644 0.0
N35 N 0.98084 0.0185 0.32276 0.0
N36 N 0.0317 0.01533 0.3226 0.0
C37 C 0.00524 1.00113 0.32053 0.0
H38 H 0.03877 0.05917 0.32919 0.0
Co39 Co 0.07243 1.00281 0.32166 0.0
C40 C 0.08001 0.97795 0.30137 0.0
O41 O 0.10794 0.98794 0.30168 0.0
N42 N 0.11365 0.98965 0.32113 0.0
C43 C 0.15178 0.95665 0.32041 0.0
C44 C 0.12096 0.96 0.32061 0.0
C45 C 0.14097 0.00381 0.32141 0.0
N46 N 0.16446 0.98421 0.32089 0.0
O47 O 0.06373 0.96817 0.32987 0.0
H48 H 0.10477 0.94173 0.32019 0.0
H49 H 0.14398 0.02793 0.32178 0.0
O50 O 0.063 0.98088 0.30908 0.0
C51 C 0.0599 0.97527 0.33899 0.0
O52 O 0.0584 0.00402 0.34136 0.0
N53 N 0.08079 0.03856 0.31451 0.0
C54 C 0.07983 0.09832 0.30795 0.0
C55 C 0.06608 0.07552 0.30235 0.0
C56 C 0.06628 0.04593 0.30585 0.0
C57 C 0.09505 0.06045 0.31989 0.0
C58 C 0.0954 0.09043 0.31665 0.0
H59 H 0.05193 0.03 0.3021 0.0
H60 H 0.10376 0.0552 0.32722 0.0
H61 H 0.00391 0.9785 0.31751 0.0
H62 H 0.97939 0.06312 0.32932 0.0
H63 H 0.1639 0.93545 0.32 0.0
H64 H 0.05313 0.08092 0.29573 0.0
H65 H 0.10527 0.10762 0.32138 0.0
C66 C 0.28035 0.76952 0.58392 0.0
C67 C 0.28669 0.73923 0.58327 0.0
N68 N 0.2715 0.72775 0.57546 0.0
N69 N 0.2613 0.77762 0.57652 0.0
C70 C 0.25657 0.7515 0.57143 0.0
H71 H 0.28842 0.78418 0.58975 0.0
Co72 Co 0.24296 0.81627 0.57494 0.0
C73 C 0.28176 0.8339 0.5572 0.0
O74 O 0.2996 0.85314 0.56177 0.0
N75 N 0.22458 0.85477 0.57353 0.0
C76 C 0.19011 0.89123 0.57465 0.0
C77 C 0.19502 0.86064 0.57512 0.0
C78 C 0.23722 0.88244 0.57221 0.0
N79 N 0.21671 0.9051 0.57291 0.0
O80 O 0.27638 0.83477 0.58178 0.0
H81 H 0.17811 0.84384 0.57688 0.0
H82 H 0.26124 0.88605 0.57139 0.0
O83 O 0.26137 0.81991 0.56203 0.0
C84 C 0.26758 0.84067 0.59062 0.0
O85 O 0.23937 0.83455 0.59297 0.0
N86 N 0.20917 0.79825 0.56906 0.0
C87 C 0.15626 0.7714 0.56219 0.0
C88 C 0.1734 0.79011 0.55593 0.0
C89 C 0.19971 0.80359 0.55954 0.0
C90 C 0.19265 0.78044 0.57528 0.0
C91 C 0.16625 0.76656 0.57197 0.0
H92 H 0.21181 0.81902 0.55476 0.0
H93 H 0.19999 0.77724 0.58289 0.0
H94 H 0.24176 0.74965 0.56504 0.0
H95 H 0.30016 0.72631 0.58848 0.0
H96 H 0.16859 0.90237 0.57574 0.0
H97 H 0.16636 0.79465 0.54835 0.0
H98 H 0.15327 0.75299 0.57715 0.0
C99 C 0.48508 0.9958 0.84103 0.0
C100 C 0.51563 1.00118 0.84177 0.0
N101 N 0.5276 1.0005 0.83257 0.0
N102 N 0.47748 0.99211 0.83138 0.0
C103 C 0.50403 0.99506 0.8264 0.0
H104 H 0.46976 0.99364 0.84724 0.0
Co105 Co 0.43903 0.98114 0.82649 0.0
C106 C 0.42933 0.02104 0.80942 0.0
O107 O 0.40358 0.02997 0.81331 0.0
N108 N 0.40019 0.96962 0.82143 0.0
C109 C 0.36516 0.95239 0.81092 0.0
C110 C 0.39555 0.95604 0.81255 0.0
C111 C 0.37176 0.974 0.82502 0.0
N112 N 0.34997 0.96387 0.81874 0.0
O113 O 0.42184 0.01602 0.83295 0.0
H114 H 0.41305 0.94985 0.80734 0.0
H115 H 0.36687 0.98529 0.83194 0.0
O116 O 0.44648 0.00339 0.81435 0.0
C117 C 0.41224 0.00885 0.84159 0.0
O118 O 0.41357 0.98029 0.84426 0.0
N119 N 0.4562 0.94607 0.82113 0.0
C120 C 0.4853 0.8922 0.81636 0.0
C121 C 0.48596 0.91672 0.80976 0.0
C122 C 0.47136 0.94355 0.8123 0.0
C123 C 0.45466 0.92226 0.82751 0.0
C124 C 0.46905 0.89505 0.82528 0.0
H125 H 0.4729 0.96225 0.8072 0.0
H126 H 0.44275 0.92474 0.8345 0.0
H127 H 0.50621 0.99277 0.81842 0.0
H128 H 0.52829 0.00392 0.84861 0.0
H129 H 0.3552 0.94213 0.80439 0.0
H130 H 0.49848 0.91555 0.80284 0.0
H131 H 0.46765 0.87652 0.83053 0.0
C132 C 0.24945 0.80275 0.41881 0.0
C133 C 0.24641 0.77214 0.41754 0.0
N134 N 0.2486 0.75864 0.42651 0.0
N135 N 0.25319 0.80899 0.42855 0.0
C136 C 0.25235 0.78159 0.43307 0.0
H137 H 0.2502 0.81911 0.41286 0.0
Co138 Co 0.26309 0.84724 0.43372 0.0
C139 C 0.22769 0.85242 0.45209 0.0
O140 O 0.21592 0.87769 0.44872 0.0
N141 N 0.27371 0.88587 0.43897 0.0
C142 C 0.29211 0.92079 0.44928 0.0
C143 C 0.2888 0.89039 0.44759 0.0
C144 C 0.26813 0.91425 0.43559 0.0
N145 N 0.27901 0.93597 0.44173 0.0
O146 O 0.22543 0.86283 0.42858 0.0
H147 H 0.29654 0.87271 0.45251 0.0
H148 H 0.25569 0.91913 0.42888 0.0
O149 O 0.24493 0.83689 0.44645 0.0
C150 C 0.22956 0.87361 0.41987 0.0
O151 O 0.25738 0.87485 0.41644 0.0
N152 N 0.30057 0.8318 0.4377 0.0
C153 C 0.3568 0.80424 0.43997 0.0
C154 C 0.33422 0.80062 0.44721 0.0
C155 C 0.30622 0.81459 0.44594 0.0
C156 C 0.32254 0.83652 0.43078 0.0
C157 C 0.3509 0.82304 0.43178 0.0
H158 H 0.28901 0.81053 0.45143 0.0
H159 H 0.3176 0.85008 0.42428 0.0
H160 H 0.25605 0.77839 0.44096 0.0
H161 H 0.24362 0.76076 0.41047 0.0
H162 H 0.30346 0.93078 0.4556 0.0
H163 H 0.33762 0.78608 0.45359 0.0
H164 H 0.36782 0.82689 0.42609 0.0
C165 C 0.46394 0.00655 0.66805 0.0
C166 C 0.49436 1.00228 0.66658 0.0
N167 N 0.50717 0.99484 0.67535 0.0
N168 N 0.45723 1.00179 0.67771 0.0
C169 C 0.48398 0.99399 0.68195 0.0
H170 H 0.44796 0.01428 0.66252 0.0
Co171 Co 0.41876 0.0105 0.68308 0.0
C172 C 0.44178 0.02153 0.70412 0.0
O173 O 0.44089 0.05095 0.70311 0.0
N174 N 0.37927 0.0187 0.68839 0.0
C175 C 0.34163 0.03808 0.69743 0.0
C176 C 0.37231 0.0375 0.69599 0.0
C177 C 0.35185 0.00837 0.68531 0.0
N178 N 0.3286 0.0197 0.69072 0.0
O179 O 0.40885 0.96859 0.68189 0.0
H180 H 0.38809 0.0513 0.7 0.0
H181 H 0.34878 0.99296 0.67917 0.0
O182 O 0.43374 0.00403 0.69696 0.0
C183 C 0.39926 0.96569 0.67298 0.0
O184 O 0.39604 0.98999 0.66746 0.0
N185 N 0.42827 0.05228 0.68274 0.0
C186 C 0.44209 0.11255 0.6786 0.0
C187 C 0.46379 0.09332 0.68276 0.0
C188 C 0.45668 0.06323 0.68455 0.0
C189 C 0.40729 0.07048 0.67829 0.0
C190 C 0.41349 0.10084 0.67635 0.0
H191 H 0.47404 0.049 0.68766 0.0
H192 H 0.38581 0.06132 0.67592 0.0
H193 H 0.48685 0.99029 0.68985 0.0
H194 H 0.50625 0.00554 0.65962 0.0
H195 H 0.3298 0.05199 0.70279 0.0
H196 H 0.48616 0.10143 0.68467 0.0
H197 H 0.39639 0.11474 0.67284 0.0
C198 C 0.21482 0.22728 0.92119 0.0
C199 C 0.21784 0.25752 0.91921 0.0
N200 N 0.23726 0.26964 0.92584 0.0
N201 N 0.23227 0.21981 0.92902 0.0
C202 C 0.24568 0.24617 0.93175 0.0
H203 H 0.19982 0.21183 0.91739 0.0
Co204 Co 0.23075 0.18059 0.9344 0.0
C205 C 0.27568 0.17977 0.95046 0.0
O206 O 0.28959 0.15723 0.94604 0.0
N207 N 0.22835 0.14078 0.93973 0.0
C208 C 0.22246 0.10344 0.95069 0.0
C209 C 0.22165 0.13417 0.9493 0.0
C210 C 0.2325 0.11335 0.9354 0.0
N211 N 0.22932 0.09026 0.94194 0.0
O212 O 0.26644 0.17003 0.927 0.0
H213 H 0.21662 0.15076 0.95498 0.0
H214 H 0.23815 0.11024 0.92764 0.0
O215 O 0.25387 0.19293 0.94601 0.0
C216 C 0.25873 0.16144 0.9183 0.0
O217 O 0.22972 0.16019 0.91621 0.0
N218 N 0.19479 0.19096 0.94082 0.0
C219 C 0.13788 0.21101 0.94675 0.0
C220 C 0.16416 0.22469 0.95047 0.0
C221 C 0.19245 0.21445 0.94736 0.0
C222 C 0.16961 0.17661 0.93741 0.0
C223 C 0.14088 0.18611 0.94035 0.0
H224 H 0.21225 0.2267 0.94973 0.0
H225 H 0.17184 0.1585 0.93205 0.0
H226 H 0.26076 0.24821 0.93806 0.0
H227 H 0.20555 0.26982 0.91354 0.0
H228 H 0.21792 0.09167 0.95759 0.0
H229 H 0.16294 0.24435 0.95525 0.0
H230 H 0.12121 0.17471 0.93736 0.0
C231 C 0.01217 0.9797 0.16617 0.0
C232 C 0.9819 0.98383 0.16441 0.0
N233 N 0.96902 0.99501 0.17271 0.0
N234 N 0.0189 0.98862 0.17551 0.0
C235 C 0.99195 0.99768 0.17936 0.0
H236 H 0.02792 0.96941 0.16106 0.0
Co237 Co 0.05757 0.98315 0.1812 0.0
C238 C 0.05904 0.02473 0.19841 0.0
O239 O 0.08408 0.03712 0.19508 0.0
N240 N 0.09654 0.97688 0.18687 0.0
C241 C 0.13211 0.96527 0.19796 0.0
C242 C 0.10157 0.96756 0.1963 0.0
C243 C 0.12469 0.97977 0.18293 0.0
N244 N 0.14687 0.97287 0.18954 0.0
O245 O 0.07154 0.01928 0.17459 0.0
H246 H 0.08405 0.96293 0.20171 0.0
H247 H 0.12893 0.98643 0.17533 0.0
O248 O 0.04549 0.0051 0.19309 0.0
C249 C 0.08077 0.01208 0.1659 0.0
O250 O 0.08164 0.98327 0.16355 0.0
N251 N 0.04407 0.94693 0.18675 0.0
C252 C 0.02051 0.89052 0.19164 0.0
C253 C 0.01005 0.91666 0.19641 0.0
C254 C 0.022 0.9447 0.19382 0.0
C255 C 0.05528 0.92173 0.18227 0.0
C256 C 0.04391 0.89321 0.18464 0.0
H257 H 0.01226 0.96454 0.19716 0.0
H258 H 0.07242 0.92395 0.17657 0.0
H259 H 0.98899 0.00532 0.18695 0.0
H260 H 0.96997 0.97753 0.15769 0.0
H261 H 0.1425 0.95891 0.20494 0.0
H262 H 0.99162 0.91572 0.20172 0.0
H263 H 0.0528 0.87356 0.18083 0.0
C264 C 0.73081 0.8013 0.9199 0.0
C265 C 0.72951 0.77058 0.91847 0.0
N266 N 0.74271 0.75687 0.92632 0.0
N267 N 0.74463 0.80704 0.92863 0.0
C268 C 0.75172 0.77957 0.93237 0.0
H269 H 0.72232 0.81847 0.9149 0.0
Co270 Co 0.75246 0.84575 0.93325 0.0
C271 C 0.75111 0.84249 0.95496 0.0
O272 O 0.73537 0.86766 0.95455 0.0
N273 N 0.76168 0.88559 0.9377 0.0
C274 C 0.78919 0.922 0.94472 0.0
C275 C 0.78697 0.89157 0.943 0.0
C276 C 0.7493 0.91324 0.93609 0.0
N277 N 0.76548 0.9357 0.94037 0.0
O278 O 0.79371 0.84088 0.92924 0.0
H279 H 0.80316 0.87473 0.94538 0.0
H280 H 0.72915 0.91723 0.93179 0.0
O281 O 0.76063 0.83023 0.94689 0.0
C282 C 0.79703 0.85493 0.92103 0.0
O283 O 0.77408 0.87027 0.91742 0.0
N284 N 0.71084 0.84995 0.93597 0.0
C285 C 0.6477 0.85052 0.93643 0.0
C286 C 0.66412 0.83137 0.94273 0.0
C287 C 0.69554 0.83074 0.94216 0.0
C288 C 0.69515 0.86775 0.9295 0.0
C289 C 0.66358 0.86888 0.92973 0.0
H290 H 0.70727 0.81342 0.94629 0.0
H291 H 0.70706 0.87975 0.92369 0.0
H292 H 0.76378 0.7763 0.9393 0.0
H293 H 0.71928 0.75925 0.91218 0.0
H294 H 0.80749 0.93326 0.94858 0.0
H295 H 0.65273 0.81551 0.9476 0.0
H296 H 0.65172 0.88313 0.92446 0.0
C297 C 0.96202 0.01525 0.66928 0.0
C298 C 0.99273 0.01645 0.66784 0.0
N299 N 0.00658 0.01363 0.67673 0.0
N300 N 0.9561 0.01203 0.67907 0.0
C301 C 0.98378 0.01116 0.68343 0.0
H302 H 0.94524 0.01577 0.66346 0.0
Co303 Co 0.91755 0.00551 0.68461 0.0
C304 C 0.91931 0.0414 0.70308 0.0
O305 O 0.89492 0.0562 0.70035 0.0
N306 N 0.87862 0.99813 0.6902 0.0
C307 C 0.84279 0.984 0.70092 0.0
C308 C 0.87333 0.98771 0.6995 0.0
C309 C 0.85062 1.00015 0.6861 0.0
N310 N 0.82838 0.99177 0.69247 0.0
O311 O 0.90491 0.04438 0.67987 0.0
H312 H 0.89059 0.983 0.70498 0.0
H313 H 0.84643 0.00692 0.67852 0.0
O314 O 0.93114 0.02235 0.69713 0.0
C315 C 0.89259 0.04208 0.67133 0.0
O316 O 0.88943 0.01516 0.66734 0.0
N317 N 0.9297 0.96696 0.68835 0.0
C318 C 0.95103 0.90828 0.69048 0.0
C319 C 0.9554 0.92956 0.69807 0.0
C320 C 0.94456 0.95889 0.69686 0.0
C321 C 0.92438 0.94637 0.68105 0.0
C322 C 0.93485 0.91682 0.68195 0.0
H323 H 0.94881 0.97496 0.70271 0.0
H324 H 0.91278 0.95333 0.67434 0.0
H325 H 0.98715 0.00745 0.69131 0.0
H326 H 0.00391 0.01889 0.66072 0.0
H327 H 0.83212 0.97635 0.70772 0.0
H328 H 0.96743 0.9237 0.70482 0.0
H329 H 0.93129 0.90119 0.67586 0.0
C330 C 0.78004 0.22475 0.41746 0.0
C331 C 0.77359 0.25483 0.41613 0.0
N332 N 0.76327 0.26606 0.4248 0.0
N333 N 0.77348 0.21664 0.4269 0.0
C334 C 0.76344 0.24248 0.43123 0.0
H335 H 0.78998 0.21008 0.41194 0.0
Co336 Co 0.78102 0.17784 0.43208 0.0
C337 C 0.7414 0.17261 0.44952 0.0
O338 O 0.72968 0.14768 0.44587 0.0
N339 N 0.78911 0.13856 0.43729 0.0
C340 C 0.80412 0.10202 0.44761 0.0
C341 C 0.80244 0.13273 0.44614 0.0
C342 C 0.78277 0.11075 0.43356 0.0
N343 N 0.79166 0.08817 0.43969 0.0
O344 O 0.74487 0.16359 0.42574 0.0
H345 H 0.80998 0.14978 0.45134 0.0
H346 H 0.77184 0.10686 0.42649 0.0
O347 O 0.76015 0.18772 0.44431 0.0
C348 C 0.75259 0.15525 0.41701 0.0
O349 O 0.78157 0.15495 0.41483 0.0
N350 N 0.81738 0.19201 0.43727 0.0
C351 C 0.87379 0.217 0.4413 0.0
C352 C 0.84815 0.22638 0.44662 0.0
C353 C 0.82005 0.21367 0.44445 0.0
C354 C 0.84214 0.18186 0.43228 0.0
C355 C 0.87065 0.19387 0.43423 0.0
H356 H 0.80043 0.22245 0.44822 0.0
H357 H 0.8395 0.16502 0.42651 0.0
H358 H 0.75696 0.24421 0.43897 0.0
H359 H 0.77758 0.2678 0.40942 0.0
H360 H 0.81305 0.09081 0.45414 0.0
H361 H 0.84946 0.24449 0.45202 0.0
H362 H 0.88991 0.18569 0.43005 0.0
C363 C 0.51738 0.95293 0.19055 0.0
C364 C 0.48694 0.94702 0.1916 0.0
N365 N 0.47129 0.96744 0.18621 0.0
N366 N 0.52104 0.97699 0.18452 0.0
C367 C 0.49257 0.98526 0.18197 0.0
H368 H 0.53569 0.94044 0.19395 0.0
Co369 Co 0.55757 0.99459 0.18032 0.0
C370 C 0.59241 0.00557 0.19859 0.0
O371 O 0.59995 0.03176 0.19469 0.0
N372 N 0.59493 0.01146 0.17573 0.0
C373 C 0.631 0.03669 0.16759 0.0
C374 C 0.60037 0.03385 0.16911 0.0
C375 C 0.62297 1.00039 0.17778 0.0
N376 N 0.64532 0.01572 0.1731 0.0
O377 O 0.57142 0.95652 0.17553 0.0
H378 H 0.58357 0.04708 0.1653 0.0
H379 H 0.62688 0.9811 0.18256 0.0
O380 O 0.57562 0.98739 0.1936 0.0
C381 C 0.55902 0.94923 0.16732 0.0
O382 O 0.53691 0.96617 0.16391 0.0
N383 N 0.5422 0.03236 0.18441 0.0
C384 C 0.5139 0.08693 0.18904 0.0
C385 C 0.51987 0.06557 0.19648 0.0
C386 C 0.53334 0.03816 0.19398 0.0
C387 C 0.53397 0.05165 0.17699 0.0
C388 C 0.52067 0.07945 0.17914 0.0
H389 H 0.53549 0.02123 0.19972 0.0
H390 H 0.53646 0.04491 0.16931 0.0
H391 H 0.4876 0.00383 0.17699 0.0
H392 H 0.47712 0.92931 0.19611 0.0
H393 H 0.64186 0.0531 0.16281 0.0
H394 H 0.51332 0.06954 0.20414 0.0
H395 H 0.51555 0.09474 0.17308 0.0
C396 C 0.7294 0.22128 0.58396 0.0
C397 C 0.73103 0.252 0.58528 0.0
N398 N 0.74282 0.26443 0.57699 0.0
N399 N 0.74044 0.214 0.57492 0.0
C400 C 0.7483 0.24087 0.5708 0.0
H401 H 0.71965 0.20543 0.58916 0.0
Co402 Co 0.73973 0.17463 0.56972 0.0
C403 C 0.78719 0.17396 0.55434 0.0
O404 O 0.7996 0.14987 0.55835 0.0
N405 N 0.73817 0.13474 0.56448 0.0
C406 C 0.73149 0.09698 0.55372 0.0
C407 C 0.73225 0.12781 0.55487 0.0
C408 C 0.74081 0.10745 0.56901 0.0
N409 N 0.73682 0.08409 0.56263 0.0
O410 O 0.7741 0.16459 0.5778 0.0
H411 H 0.72863 0.14419 0.54902 0.0
H412 H 0.74487 0.10451 0.57687 0.0
O413 O 0.7651 0.18677 0.55871 0.0
C414 C 0.76531 0.15471 0.58623 0.0
O415 O 0.73615 0.15095 0.58767 0.0
N416 N 0.70499 0.18459 0.56258 0.0
C417 C 0.6493 0.20062 0.55449 0.0
C418 C 0.67626 0.21134 0.55029 0.0
C419 C 0.7039 0.20332 0.5545 0.0
C420 C 0.67916 0.17331 0.56662 0.0
C421 C 0.65101 0.181 0.56269 0.0
H422 H 0.72413 0.21299 0.55139 0.0
H423 H 0.68047 0.15893 0.57312 0.0
H424 H 0.75728 0.24324 0.56335 0.0
H425 H 0.72284 0.26436 0.59169 0.0
H426 H 0.72754 0.08502 0.54682 0.0
H427 H 0.67604 0.22634 0.54391 0.0
H428 H 0.6308 0.17263 0.56631 0.0
C429 C 0.5331 0.03629 0.31427 0.0
C430 C 0.50278 0.04295 0.31342 0.0
N431 N 0.48691 0.02299 0.31894 0.0
N432 N 0.5365 0.01214 0.32027 0.0
C433 C 0.50805 0.00473 0.32307 0.0
H434 H 0.55144 0.04808 0.31063 0.0
Co435 Co 0.57257 0.99235 0.3237 0.0
C436 C 0.60538 0.98379 0.30488 0.0
O437 O 0.61292 0.95686 0.30818 0.0
N438 N 0.60965 0.97313 0.32743 0.0
C439 C 0.64617 0.94319 0.33326 0.0
C440 C 0.61543 0.94707 0.33232 0.0
C441 C 0.63757 0.98504 0.32581 0.0
N442 N 0.66023 0.96703 0.32909 0.0
O443 O 0.58829 0.02889 0.32912 0.0
H444 H 0.59884 0.93154 0.33518 0.0
H445 H 0.64116 0.00624 0.32198 0.0
O446 O 0.58948 1.0013 0.31041 0.0
C447 C 0.57729 0.03363 0.33775 0.0
O448 O 0.55583 0.01556 0.34098 0.0
N449 N 0.55513 0.95613 0.31909 0.0
C450 C 0.52092 0.90511 0.31432 0.0
C451 C 0.52862 0.92625 0.30697 0.0
C452 C 0.54513 0.95193 0.30955 0.0
C453 C 0.54598 0.93693 0.32642 0.0
C454 C 0.52967 0.91086 0.32418 0.0
H455 H 0.54834 0.96906 0.30394 0.0
H456 H 0.55029 0.94251 0.33412 0.0
H457 H 0.50303 0.98613 0.32802 0.0
H458 H 0.49323 0.06067 0.30885 0.0
H459 H 0.65723 0.92431 0.33685 0.0
H460 H 0.52098 0.92361 0.29936 0.0
H461 H 0.52374 0.89559 0.33016 0.0
C462 C 0.79834 0.79107 0.0875 0.0
C463 C 0.79791 0.76063 0.08956 0.0
N464 N 0.77959 0.74688 0.08294 0.0
N465 N 0.78027 0.79671 0.07965 0.0
C466 C 0.76912 0.76934 0.07702 0.0
H467 H 0.81165 0.80797 0.09131 0.0
Co468 Co 0.77568 0.83496 0.07388 0.0
C469 C 0.73196 0.82275 0.05776 0.0
O470 O 0.71314 0.8431 0.06127 0.0
N471 N 0.77153 0.87363 0.06807 0.0
C472 C 0.77364 0.91053 0.05685 0.0
C473 C 0.7754 0.87992 0.05831 0.0
C474 C 0.76773 0.90103 0.07241 0.0
N475 N 0.76901 0.92396 0.06572 0.0
O476 O 0.73819 0.83965 0.08075 0.0
H477 H 0.78017 0.86332 0.05262 0.0
H478 H 0.76534 0.90422 0.08035 0.0
O479 O 0.75639 0.81716 0.06242 0.0
C480 C 0.74354 0.84908 0.08953 0.0
O481 O 0.77171 0.85502 0.09197 0.0
N482 N 0.81335 0.83083 0.06788 0.0
C483 C 0.87242 0.82595 0.06093 0.0
C484 C 0.85024 0.80517 0.05793 0.0
C485 C 0.82078 0.80794 0.06153 0.0
C486 C 0.8345 0.85124 0.07086 0.0
C487 C 0.86409 0.84948 0.06737 0.0
H488 H 0.80432 0.79104 0.05949 0.0
H489 H 0.82838 0.86881 0.07608 0.0
H490 H 0.75392 0.76582 0.07082 0.0
H491 H 0.81105 0.74937 0.09525 0.0
H492 H 0.77589 0.92198 0.04977 0.0
H493 H 0.85581 0.7862 0.05318 0.0
H494 H 0.88038 0.86615 0.06983 0.0
C495 C 0.98403 0.98211 0.83816 0.0
C496 C 0.01443 0.97696 0.83936 0.0
N497 N 0.02719 0.97461 0.8303 0.0
N498 N 0.97726 0.98268 0.82837 0.0
C499 C 0.00416 0.97813 0.82375 0.0
H500 H 0.96812 0.98626 0.8441 0.0
Co501 Co 0.93864 0.99196 0.82342 0.0
C502 C 0.93226 0.95653 0.80513 0.0
O503 O 0.90722 0.94459 0.80863 0.0
N504 N 0.89939 1.00203 0.81847 0.0
C505 C 0.86339 0.02098 0.80863 0.0
C506 C 0.894 0.01718 0.8099 0.0
C507 C 0.87133 0.99672 0.8222 0.0
N508 N 0.8491 0.00806 0.81637 0.0
O509 O 0.92406 0.95434 0.8287 0.0
H510 H 0.91125 0.02477 0.80478 0.0
H511 H 0.86691 0.98506 0.8291 0.0
O512 O 0.94814 0.97357 0.81071 0.0
C513 C 0.91318 0.95757 0.83742 0.0
O514 O 0.91099 0.98494 0.84115 0.0
N515 N 0.95342 0.02932 0.81911 0.0
C516 C 0.97843 0.08611 0.81563 0.0
C517 C 0.98475 0.06187 0.80926 0.0
C518 C 0.97213 0.03362 0.81114 0.0
C519 C 0.94637 0.05273 0.82525 0.0
C520 C 0.95858 0.08142 0.82364 0.0
H521 H 0.97846 0.01523 0.80635 0.0
H522 H 0.93177 0.04885 0.83159 0.0
H523 H 0.00695 0.97791 0.81575 0.0
H524 H 0.02645 0.97638 0.84638 0.0
H525 H 0.85248 0.03194 0.80238 0.0
H526 H 1.00036 0.06431 0.8031 0.0
H527 H 0.9529 0.09959 0.8287 0.0
C528 C 0.76515 0.7179 0.5846 0.0
C529 C 0.76609 0.74848 0.58643 0.0
N530 N 0.75453 0.76314 0.57849 0.0
N531 N 0.75294 0.71303 0.57557 0.0
C532 C 0.7466 0.741 0.57203 0.0
H533 H 0.77338 0.70031 0.58949 0.0
Co534 Co 0.74915 0.67478 0.56972 0.0
C535 C 0.71016 0.68765 0.55234 0.0
O536 O 0.69028 0.66732 0.55517 0.0
N537 N 0.74592 0.63594 0.56383 0.0
C538 C 0.75062 0.59902 0.55268 0.0
C539 C 0.75217 0.62964 0.55421 0.0
C540 C 0.74108 0.60847 0.56802 0.0
N541 N 0.74371 0.58555 0.56138 0.0
O542 O 0.70979 0.67118 0.57548 0.0
H543 H 0.75875 0.64619 0.54869 0.0
H544 H 0.73639 0.60515 0.57583 0.0
O545 O 0.73326 0.6928 0.55773 0.0
C546 C 0.7119 0.65917 0.58407 0.0
O547 O 0.7386 0.65041 0.58724 0.0
N548 N 0.78838 0.67799 0.56488 0.0
C549 C 0.84942 0.68167 0.56005 0.0
C550 C 0.82846 0.70155 0.55574 0.0
C551 C 0.79796 0.69945 0.5583 0.0
C552 C 0.80829 0.65825 0.56905 0.0
C553 C 0.83892 0.65949 0.56667 0.0
H554 H 0.7824 0.71577 0.55525 0.0
H555 H 0.80034 0.64176 0.57439 0.0
H556 H 0.7373 0.74514 0.56471 0.0
H557 H 0.77475 0.75896 0.59312 0.0
H558 H 0.75566 0.58754 0.54576 0.0
H559 H 0.83568 0.71945 0.55078 0.0
H560 H 0.85429 0.64358 0.57012 0.0
C561 C 0.55411 0.52804 0.83599 0.0
C562 C 0.52387 0.52655 0.8383 0.0
N563 N 0.51112 0.50476 0.83273 0.0
N564 N 0.56067 0.50775 0.82878 0.0
C565 C 0.53401 0.49318 0.82726 0.0
H566 H 0.57004 0.54269 0.83964 0.0
Co567 Co 0.59899 0.49752 0.82309 0.0
C568 C 0.55836 0.50148 0.80552 0.0
O569 O 0.54511 0.52473 0.80976 0.0
N570 N 0.63652 0.48644 0.81783 0.0
C571 C 0.67207 0.46233 0.8093 0.0
C572 C 0.64151 0.46502 0.8109 0.0
C573 C 0.66443 0.4962 0.82045 0.0
N574 N 0.68661 0.48195 0.81531 0.0
O575 O 0.59391 0.45752 0.82831 0.0
H576 H 0.62411 0.45149 0.80743 0.0
H577 H 0.66832 0.51327 0.82607 0.0
O578 O 0.57942 0.48743 0.8102 0.0
C579 C 0.60365 0.46026 0.83721 0.0
O580 O 0.6149 0.48655 0.83988 0.0
N581 N 0.60609 0.53756 0.81889 0.0
C582 C 0.60898 0.59914 0.8151 0.0
C583 C 0.6082 0.57843 0.80719 0.0
C584 C 0.60782 0.54749 0.80927 0.0
C585 C 0.61253 0.557 0.82644 0.0
C586 C 0.61331 0.58804 0.82477 0.0
H587 H 0.60787 0.53177 0.80313 0.0
H588 H 0.61609 0.54842 0.83388 0.0
H589 H 0.53142 0.47436 0.82219 0.0
H590 H 0.51212 0.5408 0.84358 0.0
H591 H 0.68276 0.44626 0.80435 0.0
H592 H 0.60632 0.58593 0.79954 0.0
H593 H 0.61614 0.60321 0.83103 0.0
C594 C 0.71196 0.28784 0.08195 0.0
C595 C 0.70807 0.25707 0.08187 0.0
N596 N 0.73169 0.24443 0.07709 0.0
N597 N 0.73783 0.29488 0.07717 0.0
C598 C 0.7495 0.26792 0.07434 0.0
H599 H 0.69713 0.30405 0.08547 0.0
Co600 Co 0.75329 0.3342 0.0758 0.0
C601 C 0.77189 0.3396 0.05476 0.0
O602 O 0.76394 0.36817 0.05514 0.0
N603 N 0.76969 0.37404 0.07472 0.0
C604 C 0.80521 0.40936 0.07272 0.0
C605 C 0.79945 0.37892 0.07305 0.0
C606 C 0.75798 0.40237 0.07553 0.0
N607 N 0.77909 0.4242 0.07426 0.0
O608 O 0.78978 0.32211 0.0825 0.0
H609 H 0.81609 0.36133 0.07196 0.0
H610 H 0.73448 0.40732 0.07685 0.0
O611 O 0.76983 0.32321 0.06261 0.0
C612 C 0.78627 0.31702 0.09177 0.0
O613 O 0.75881 0.31746 0.0955 0.0
N614 N 0.71614 0.34586 0.07013 0.0
C615 C 0.65462 0.35212 0.06585 0.0
C616 C 0.67381 0.33629 0.05938 0.0
C617 C 0.70433 0.33299 0.06173 0.0
C618 C 0.69786 0.36164 0.07643 0.0
C619 C 0.66726 0.36575 0.07431 0.0
H620 H 0.71741 0.31756 0.05728 0.0
H621 H 0.70658 0.36923 0.08352 0.0
H622 H 0.77069 0.2656 0.07039 0.0
H623 H 0.68966 0.2449 0.08535 0.0
H624 H 0.82708 0.41972 0.07155 0.0
H625 H 0.66493 0.32422 0.05301 0.0
H626 H 0.65332 0.3779 0.07958 0.0
C627 C 0.99026 0.48585 0.3393 0.0
C628 C 0.02063 0.48952 0.34102 0.0
N629 N 0.03273 0.50448 0.33325 0.0
N630 N 0.98287 0.49873 0.33054 0.0
C631 C 0.00934 0.50986 0.32698 0.0
H632 H 0.97476 0.47334 0.34396 0.0
Co633 Co 0.94379 0.49585 0.32519 0.0
C634 C 0.94484 0.53705 0.30797 0.0
O635 O 0.92212 0.55245 0.31171 0.0
N636 N 0.9042 0.4923 0.31997 0.0
C637 C 0.86611 0.48276 0.30963 0.0
C638 C 0.89699 0.48427 0.31058 0.0
C639 C 0.87716 0.49522 0.32463 0.0
N640 N 0.85348 0.48955 0.31849 0.0
O641 O 0.93351 0.53355 0.33135 0.0
H642 H 0.91324 0.47949 0.30476 0.0
H643 H 0.87488 0.50064 0.33244 0.0
O644 O 0.9565 0.51565 0.31302 0.0
C645 C 0.9263 0.53013 0.34047 0.0
O646 O 0.92479 0.50257 0.34407 0.0
N647 N 0.95396 0.45831 0.31978 0.0
C648 C 0.97127 0.40029 0.31402 0.0
C649 C 0.98689 0.42577 0.31052 0.0
C650 C 0.97784 0.45453 0.31346 0.0
C651 C 0.93825 0.43398 0.3232 0.0
C652 C 0.94623 0.40476 0.3203 0.0
H653 H 0.99101 0.4736 0.31099 0.0
H654 H 0.91973 0.43725 0.32835 0.0
H655 H 0.01165 0.52086 0.31983 0.0
H656 H 0.03315 0.4804 0.34726 0.0
H657 H 0.85399 0.47721 0.30288 0.0
H658 H 0.00681 0.42362 0.30589 0.0
H659 H 0.93318 0.38589 0.32309 0.0
C660 C 0.79145 0.30058 0.92672 0.0
C661 C 0.79443 0.26981 0.92587 0.0
N662 N 0.77167 0.2566 0.93094 0.0
N663 N 0.76708 0.30688 0.93236 0.0
C664 C 0.75541 0.27965 0.93482 0.0
H665 H 0.80587 0.31737 0.9233 0.0
Co666 Co 0.75293 0.34575 0.93474 0.0
C667 C 0.72914 0.34613 0.95528 0.0
O668 O 0.73827 0.37429 0.95592 0.0
N669 N 0.73791 0.38558 0.93667 0.0
C670 C 0.70362 0.42209 0.93846 0.0
C671 C 0.70812 0.3915 0.93782 0.0
C672 C 0.75095 0.41334 0.93645 0.0
N673 N 0.73059 0.43591 0.93759 0.0
O674 O 0.71825 0.33708 0.92665 0.0
H675 H 0.69058 0.3745 0.93816 0.0
H676 H 0.7748 0.41728 0.93546 0.0
O677 O 0.73257 0.3317 0.94707 0.0
C678 C 0.72539 0.34443 0.91778 0.0
O679 O 0.75266 0.35532 0.91624 0.0
N680 N 0.78903 0.35377 0.94173 0.0
C681 C 0.84995 0.3523 0.94728 0.0
C682 C 0.82802 0.33731 0.95296 0.0
C683 C 0.79787 0.33778 0.94996 0.0
C684 C 0.80997 0.3693 0.93632 0.0
C685 C 0.84043 0.36938 0.93906 0.0
H686 H 0.7827 0.32248 0.95366 0.0
H687 H 0.80355 0.37938 0.9293 0.0
H688 H 0.73486 0.2768 0.93909 0.0
H689 H 0.81203 0.2581 0.92182 0.0
H690 H 0.68199 0.43329 0.93921 0.0
H691 H 0.8344 0.32278 0.95911 0.0
H692 H 0.85663 0.38093 0.93436 0.0
C693 C 0.94593 0.53773 0.17663 0.0
C694 C 0.97667 0.54187 0.17647 0.0
N695 N 0.98958 0.52176 0.18271 0.0
N696 N 0.93912 0.5151 0.18294 0.0
C697 C 0.96615 0.50567 0.18652 0.0
H698 H 0.92954 0.55007 0.17225 0.0
Co699 Co 0.89968 0.50103 0.18497 0.0
C700 C 0.8953 0.48534 0.20629 0.0
O701 O 0.867 0.4943 0.20602 0.0
N702 N 0.85951 0.48611 0.18662 0.0
C703 C 0.82305 0.45216 0.18919 0.0
C704 C 0.85369 0.45682 0.18876 0.0
C705 C 0.8316 0.49864 0.18564 0.0
N706 N 0.80905 0.47849 0.18724 0.0
O707 O 0.91029 0.46347 0.17878 0.0
H708 H 0.87076 0.43975 0.19002 0.0
H709 H 0.8275 0.52203 0.18389 0.0
O710 O 0.91119 0.48586 0.1983 0.0
C711 C 0.91091 0.46587 0.16932 0.0
O712 O 0.90633 0.4926 0.16534 0.0
N713 N 0.88974 0.53925 0.19018 0.0
C714 C 0.88606 0.6013 0.1938 0.0
C715 C 0.90147 0.58219 0.2004 0.0
C716 C 0.90358 0.55142 0.19835 0.0
C717 C 0.87448 0.55749 0.18373 0.0
C718 C 0.87177 0.58844 0.1855 0.0
H719 H 0.91883 0.5383 0.20286 0.0
H720 H 0.86618 0.54834 0.17678 0.0
H721 H 0.96851 0.48729 0.19177 0.0
H722 H 0.9885 0.55801 0.17184 0.0
H723 H 0.812 0.43081 0.19065 0.0
H724 H 0.9141 0.59123 0.20663 0.0
H725 H 0.86007 0.60239 0.18011 0.0
C726 C 0.71268 0.72873 0.42266 0.0
C727 C 0.71116 0.7597 0.42282 0.0
N728 N 0.73423 0.77038 0.42838 0.0
N729 N 0.73655 0.71953 0.4281 0.0
C730 C 0.74935 0.74539 0.43147 0.0
H731 H 0.69771 0.71382 0.41861 0.0
Co732 Co 0.74861 0.67903 0.42946 0.0
C733 C 0.76358 0.67085 0.45062 0.0
O734 O 0.75199 0.64362 0.4499 0.0
N735 N 0.76177 0.63797 0.43057 0.0
C736 C 0.79449 0.60066 0.43361 0.0
C737 C 0.79085 0.63131 0.43284 0.0
C738 C 0.74836 0.61038 0.42977 0.0
N739 N 0.76778 0.58745 0.4317 0.0
O740 O 0.7866 0.68837 0.42325 0.0
H741 H 0.80833 0.64787 0.43422 0.0
H742 H 0.72478 0.60679 0.42812 0.0
O743 O 0.76456 0.68794 0.44291 0.0
C744 C 0.78447 0.69338 0.41393 0.0
O745 O 0.75747 0.69484 0.40989 0.0
N746 N 0.71002 0.67027 0.43463 0.0
C747 C 0.64785 0.66882 0.43832 0.0
C748 C 0.6676 0.68341 0.44492 0.0
C749 C 0.69844 0.68439 0.44285 0.0
C750 C 0.69119 0.65576 0.42819 0.0
C751 C 0.66013 0.65419 0.42998 0.0
H752 H 0.71226 0.69896 0.44738 0.0
H753 H 0.7 0.64719 0.42123 0.0
H754 H 0.76949 0.74579 0.43604 0.0
H755 H 0.69476 0.77323 0.41884 0.0
H756 H 0.81523 0.58895 0.43547 0.0
H757 H 0.65909 0.69623 0.45119 0.0
H758 H 0.64572 0.64305 0.4246 0.0
C759 C 0.53991 0.52188 0.66533 0.0
C760 C 0.50927 0.52371 0.66381 0.0
N761 N 0.49517 0.52294 0.67271 0.0
N762 N 0.54564 0.52031 0.67516 0.0
C763 C 0.51791 0.52126 0.67948 0.0
H764 H 0.55685 0.52064 0.65955 0.0
Co765 Co 0.58446 0.51327 0.68043 0.0
C766 C 0.57982 0.54371 0.70002 0.0
O767 O 0.59992 0.56401 0.69736 0.0
N768 N 0.62367 0.50553 0.68569 0.0
C769 C 0.65955 0.48851 0.69592 0.0
C770 C 0.62896 0.49184 0.69452 0.0
C771 C 0.6517 0.50985 0.68182 0.0
N772 N 0.67395 0.4998 0.68791 0.0
O773 O 0.59512 0.55412 0.67732 0.0
H774 H 0.61159 0.48409 0.69957 0.0
H775 H 0.656 0.52007 0.67466 0.0
O776 O 0.57093 0.52399 0.69375 0.0
C777 C 0.60725 0.55522 0.66873 0.0
O778 O 0.61209 0.52985 0.66391 0.0
N779 N 0.57404 0.47308 0.68245 0.0
C780 C 0.5541 0.41362 0.68156 0.0
C781 C 0.54254 0.4335 0.68873 0.0
C782 C 0.55259 0.46325 0.68899 0.0
C783 C 0.58654 0.45381 0.67571 0.0
C784 C 0.57695 0.42384 0.67515 0.0
H785 H 0.54175 0.47854 0.69408 0.0
H786 H 0.60304 0.46221 0.67045 0.0
H787 H 0.51443 0.51937 0.68742 0.0
H788 H 0.49842 0.52488 0.65661 0.0
H789 H 0.67028 0.4777 0.70223 0.0
H790 H 0.52511 0.42641 0.69389 0.0
H791 H 0.58624 0.40931 0.66942 0.0
C792 C 0.22479 0.29992 0.42565 0.0
C793 C 0.22245 0.26901 0.42526 0.0
N794 N 0.24484 0.25698 0.43079 0.0
N795 N 0.24851 0.30758 0.43143 0.0
C796 C 0.26029 0.2809 0.43448 0.0
H797 H 0.21048 0.31585 0.42177 0.0
Co798 Co 0.26204 0.34729 0.43339 0.0
C799 C 0.27844 0.35141 0.45474 0.0
O800 O 0.27065 0.38003 0.45456 0.0
N801 N 0.27642 0.38762 0.43505 0.0
C802 C 0.30958 0.42476 0.43773 0.0
C803 C 0.30579 0.39408 0.4369 0.0
C804 C 0.26297 0.41521 0.43463 0.0
N805 N 0.28261 0.4381 0.43631 0.0
O806 O 0.29976 0.33715 0.42709 0.0
H807 H 0.32346 0.37743 0.43781 0.0
H808 H 0.23921 0.41885 0.43333 0.0
O809 O 0.27733 0.33579 0.44671 0.0
C810 C 0.29682 0.33468 0.41768 0.0
O811 O 0.26974 0.33758 0.41378 0.0
N812 N 0.22372 0.35682 0.43862 0.0
C813 C 0.16149 0.35916 0.44208 0.0
C814 C 0.18083 0.34459 0.44881 0.0
C815 C 0.21172 0.34315 0.44685 0.0
C816 C 0.20528 0.3716 0.4321 0.0
C817 C 0.17422 0.37363 0.43379 0.0
H818 H 0.22505 0.32838 0.45144 0.0
H819 H 0.21445 0.38003 0.42517 0.0
H820 H 0.28041 0.27905 0.43903 0.0
H821 H 0.20557 0.25636 0.42118 0.0
H822 H 0.33068 0.43634 0.43917 0.0
H823 H 0.17196 0.33189 0.45506 0.0
H824 H 0.16011 0.38476 0.42832 0.0
C825 C 0.44209 0.47037 0.17223 0.0
C826 C 0.47249 0.47111 0.17007 0.0
N827 N 0.48668 0.48731 0.17717 0.0
N828 N 0.43693 0.48607 0.18064 0.0
C829 C 0.4645 0.49628 0.18346 0.0
H830 H 0.4249 0.45832 0.1681 0.0
Co831 Co 0.3991 0.48898 0.18683 0.0
C832 C 0.41461 0.52719 0.20432 0.0
O833 O 0.39639 0.54895 0.20145 0.0
N834 N 0.36084 0.49165 0.19306 0.0
C835 C 0.32446 0.48588 0.20435 0.0
C836 C 0.35507 0.48487 0.20268 0.0
C837 C 0.33317 0.49667 0.18903 0.0
N838 N 0.31063 0.49319 0.19575 0.0
O839 O 0.39445 0.52855 0.1813 0.0
H840 H 0.37199 0.47835 0.20808 0.0
H841 H 0.32939 0.50132 0.18123 0.0
O842 O 0.41782 0.50381 0.1989 0.0
C843 C 0.3829 0.52507 0.17268 0.0
O844 O 0.37603 0.49756 0.16977 0.0
N845 N 0.40313 0.4494 0.19136 0.0
C846 C 0.40873 0.3883 0.19594 0.0
C847 C 0.43075 0.40911 0.19903 0.0
C848 C 0.4276 0.43957 0.19663 0.0
C849 C 0.38152 0.42959 0.18827 0.0
C850 C 0.38364 0.39898 0.1906 0.0
H851 H 0.44552 0.45496 0.1986 0.0
H852 H 0.36276 0.43753 0.18382 0.0
H853 H 0.46836 0.50954 0.1901 0.0
H854 H 0.48341 0.45946 0.16397 0.0
H855 H 0.31323 0.48113 0.21134 0.0
H856 H 0.45098 0.4018 0.20289 0.0
H857 H 0.36605 0.38379 0.18808 0.0
C858 C 0.21621 0.71967 0.94068 0.0
C859 C 0.20894 0.74981 0.94156 0.0
N860 N 0.22876 0.76605 0.93613 0.0
N861 N 0.24049 0.71672 0.93469 0.0
C862 C 0.24758 0.74542 0.93202 0.0
H863 H 0.20446 0.70103 0.94417 0.0
Co864 Co 0.25886 0.68003 0.9309 0.0
C865 C 0.27436 0.64925 0.94969 0.0
O866 O 0.2995 0.64028 0.9454 0.0
N867 N 0.27654 0.64235 0.92693 0.0
C868 C 0.30595 0.60536 0.92112 0.0
C869 C 0.30223 0.63614 0.92186 0.0
C870 C 0.2647 0.61458 0.92889 0.0
N871 N 0.2824 0.59172 0.92558 0.0
O872 O 0.22028 0.66383 0.92738 0.0
H873 H 0.31782 0.65245 0.91887 0.0
H874 H 0.244 0.61117 0.93303 0.0
O875 O 0.25536 0.66514 0.94473 0.0
C876 C 0.21267 0.67394 0.91885 0.0
O877 O 0.23006 0.69434 0.91463 0.0
N878 N 0.29672 0.69781 0.93343 0.0
C879 C 0.3497 0.73176 0.93466 0.0
C880 C 0.33374 0.72391 0.94329 0.0
C881 C 0.30678 0.70766 0.9425 0.0
C882 C 0.31106 0.70688 0.92497 0.0
C883 C 0.33787 0.72334 0.9254 0.0
H884 H 0.29352 0.7044 0.94915 0.0
H885 H 0.30117 0.70176 0.9178 0.0
H886 H 0.26596 0.75111 0.92705 0.0
H887 H 0.19074 0.75909 0.946 0.0
H888 H 0.32461 0.5939 0.91752 0.0
H889 H 0.34141 0.73125 0.95056 0.0
H890 H 0.34915 0.72948 0.91853 0.0
C891 C 0.03876 0.50706 0.66594 0.0
C892 C 0.0084 0.50302 0.6642 0.0
N893 N 0.99557 0.4914 0.67247 0.0
N894 N 0.04535 0.4981 0.67528 0.0
C895 C 0.01867 0.48807 0.67902 0.0
H896 H 0.05474 0.51751 0.66092 0.0
Co897 Co 0.08353 0.50411 0.68121 0.0
C898 C 0.05788 0.50796 0.70221 0.0
O899 O 0.05892 0.53753 0.70228 0.0
N900 N 0.12275 0.50934 0.68702 0.0
C901 C 0.16019 0.52201 0.69732 0.0
C902 C 0.12945 0.52084 0.69607 0.0
C903 C 0.15031 0.50384 0.68291 0.0
N904 N 0.17352 0.51128 0.68904 0.0
O905 O 0.09278 0.46266 0.67848 0.0
H906 H 0.11342 0.52913 0.70141 0.0
H907 H 0.15339 0.49487 0.6755 0.0
O908 O 0.0673 0.49294 0.69464 0.0
C909 C 0.10294 0.46149 0.66961 0.0
O910 O 0.1064 0.48679 0.66462 0.0
N911 N 0.07482 0.54616 0.68259 0.0
C912 C 0.06318 0.60824 0.68242 0.0
C913 C 0.04004 0.58755 0.68437 0.0
C914 C 0.04615 0.55677 0.68422 0.0
C915 C 0.09718 0.56611 0.68006 0.0
C916 C 0.09205 0.59725 0.68017 0.0
H917 H 0.02784 0.54164 0.68597 0.0
H918 H 0.11913 0.55809 0.67775 0.0
H919 H 0.01591 0.48014 0.68658 0.0
H920 H 0.99642 0.51004 0.65757 0.0
H921 H 0.17174 0.53121 0.70374 0.0
H922 H 0.01739 0.59505 0.68619 0.0
H923 H 0.11031 0.61253 0.67829 0.0
C924 C 0.30779 0.73709 0.0647 0.0
C925 C 0.31309 0.76761 0.0636 0.0
N926 N 0.29184 0.78302 0.06872 0.0
N927 N 0.28323 0.73306 0.07048 0.0
C928 C 0.2741 0.76142 0.07284 0.0
H929 H 0.32098 0.719 0.06147 0.0
Co930 Co 0.26538 0.69636 0.07449 0.0
C931 C 0.26028 0.65963 0.0563 0.0
O932 O 0.2335 0.65133 0.05955 0.0
N933 N 0.248 0.65898 0.07892 0.0
C934 C 0.22043 0.62331 0.08638 0.0
C935 C 0.22349 0.65381 0.08469 0.0
C936 C 0.26001 0.63094 0.07758 0.0
N937 N 0.24334 0.60877 0.08185 0.0
O938 O 0.30234 0.68375 0.08058 0.0
H939 H 0.20869 0.67071 0.08774 0.0
H940 H 0.28076 0.62691 0.07352 0.0
O941 O 0.27653 0.67745 0.06161 0.0
C942 C 0.30691 0.69724 0.08883 0.0
O943 O 0.28879 0.71951 0.09133 0.0
N944 N 0.22856 0.71053 0.06917 0.0
C945 C 0.17486 0.73757 0.0629 0.0
C946 C 0.19768 0.73068 0.05604 0.0
C947 C 0.22469 0.71797 0.05936 0.0
C948 C 0.20771 0.71956 0.07601 0.0
C949 C 0.18034 0.73232 0.07304 0.0
H950 H 0.2428 0.71533 0.05406 0.0
H951 H 0.21283 0.71806 0.08385 0.0
H952 H 0.25491 0.76604 0.0776 0.0
H953 H 0.33102 0.7776 0.05921 0.0
H954 H 0.20238 0.6127 0.09055 0.0
H955 H 0.19512 0.73601 0.04821 0.0
H956 H 0.1638 0.7382 0.07865 0.0
C957 C 0.05013 0.43542 0.83145 0.0
C958 C 0.01916 0.43335 0.8317 0.0
N959 N 0.00742 0.45803 0.82726 0.0
N960 N 0.05818 0.46115 0.82679 0.0
C961 C 0.03165 0.4745 0.8243 0.0
H962 H 0.06581 0.41941 0.83466 0.0
Co963 Co 0.09811 0.47508 0.82553 0.0
C964 C 0.10454 0.49482 0.80473 0.0
O965 O 0.13235 0.48446 0.80507 0.0
N966 N 0.13854 0.49013 0.8246 0.0
C967 C 0.17465 0.5249 0.82274 0.0
C968 C 0.14409 0.51981 0.82304 0.0
C969 C 0.16661 0.47777 0.82543 0.0
N970 N 0.1889 0.49845 0.82422 0.0
O971 O 0.08749 0.51083 0.83277 0.0
H972 H 0.12685 0.53686 0.82201 0.0
H973 H 0.17105 0.45416 0.82671 0.0
O974 O 0.08785 0.49354 0.81253 0.0
C975 C 0.0865 0.50453 0.84203 0.0
O976 O 0.0904 0.47628 0.84476 0.0
N977 N 0.10823 0.43825 0.8194 0.0
C978 C 0.1112 0.37689 0.81467 0.0
C979 C 0.09593 0.39721 0.80843 0.0
C980 C 0.09424 0.42766 0.81102 0.0
C981 C 0.12361 0.41887 0.82544 0.0
C982 C 0.12605 0.38828 0.82309 0.0
H983 H 0.07907 0.44175 0.80679 0.0
H984 H 0.1319 0.42667 0.83256 0.0
H985 H 0.03018 0.49637 0.82073 0.0
H986 H 0.00633 0.41504 0.83496 0.0
H987 H 0.18554 0.54654 0.82163 0.0
H988 H 0.083 0.38931 0.8021 0.0
H989 H 0.13776 0.3734 0.8282 0.0
C990 C 0.27481 0.27024 0.58395 0.0
C991 C 0.27363 0.23962 0.58562 0.0
N992 N 0.25616 0.22691 0.57855 0.0
N993 N 0.25797 0.27713 0.57591 0.0
C994 C 0.2469 0.2502 0.57275 0.0
H995 H 0.28813 0.28633 0.58812 0.0
Co996 Co 0.25618 0.31609 0.5704 0.0
C997 C 0.20944 0.31143 0.55468 0.0
O998 O 0.19458 0.33473 0.55826 0.0
N999 N 0.25515 0.35551 0.5648 0.0
C1000 C 0.26037 0.39227 0.55361 0.0
C1001 C 0.25986 0.36161 0.55506 0.0
C1002 C 0.25301 0.38316 0.56912 0.0
N1003 N 0.25621 0.40594 0.56245 0.0
O1004 O 0.2211 0.32461 0.57837 0.0
H1005 H 0.26349 0.34475 0.54936 0.0
H1006 H 0.25037 0.38666 0.57704 0.0
O1007 O 0.23229 0.3013 0.55938 0.0
C1008 C 0.23027 0.33407 0.58682 0.0
O1009 O 0.2595 0.33798 0.58805 0.0
N1010 N 0.29162 0.30798 0.56339 0.0
C1011 C 0.34775 0.29692 0.55477 0.0
C1012 C 0.32233 0.2801 0.55192 0.0
C1013 C 0.29446 0.28582 0.55638 0.0
C1014 C 0.31601 0.3246 0.56625 0.0
C1015 C 0.3443 0.3196 0.56198 0.0
H1016 H 0.27549 0.2718 0.55438 0.0
H1017 H 0.3135 0.34153 0.572 0.0
H1018 H 0.23287 0.24757 0.56621 0.0
H1019 H 0.28584 0.22753 0.59135 0.0
H1020 H 0.26383 0.40362 0.54656 0.0
H1021 H 0.32404 0.26232 0.54641 0.0
H1022 H 0.36347 0.33262 0.56458 0.0
C1023 C 0.49079 0.54266 0.3375 0.0
C1024 C 0.5215 0.54271 0.33898 0.0
N1025 N 0.53347 0.51876 0.33424 0.0
N1026 N 0.48294 0.51908 0.33165 0.0
C1027 C 0.50955 0.50447 0.33005 0.0
H1028 H 0.47555 0.55882 0.34075 0.0
Co1029 Co 0.44342 0.50658 0.32745 0.0
C1030 C 0.47897 0.50838 0.30865 0.0
O1031 O 0.49339 0.53215 0.31209 0.0
N1032 N 0.40497 0.49356 0.32359 0.0
C1033 C 0.36818 0.46707 0.31652 0.0
C1034 C 0.39895 0.47018 0.31748 0.0
C1035 C 0.37747 0.50413 0.32634 0.0
N1036 N 0.35453 0.4884 0.32211 0.0
O1037 O 0.45112 0.46733 0.33291 0.0
H1038 H 0.41585 0.45604 0.31401 0.0
H1039 H 0.37444 0.5227 0.33148 0.0
O1040 O 0.45938 0.49513 0.31419 0.0
C1041 C 0.448 0.46922 0.34233 0.0
O1042 O 0.44244 0.4959 0.34622 0.0
N1043 N 0.43351 0.54563 0.32293 0.0
C1044 C 0.42297 0.60609 0.31851 0.0
C1045 C 0.42496 0.58462 0.31086 0.0
C1046 C 0.42917 0.55422 0.31326 0.0
C1047 C 0.42661 0.56527 0.33039 0.0
C1048 C 0.42188 0.59578 0.32838 0.0
H1049 H 0.42927 0.53791 0.3073 0.0
H1050 H 0.42566 0.5573 0.33799 0.0
H1051 H 0.51131 0.48377 0.3258 0.0
H1052 H 0.53403 0.55953 0.34312 0.0
H1053 H 0.35687 0.45041 0.31195 0.0
H1054 H 0.42454 0.59122 0.30309 0.0
H1055 H 0.41835 0.61124 0.33452 0.0
H1056 H 0.21322 0.20434 0.10914 0.0
H1057 H 0.18347 0.1774 0.12157 0.0
H1058 H 0.15734 0.11182 0.09945 0.0
H1059 H 0.1877 0.13857 0.08691 0.0
H1060 H 0.12279 0.16002 0.12321 0.0
H1061 H 0.19962 0.0609 0.12089 0.0
H1062 H 0.20867 0.09681 0.11527 0.0
H1063 H 0.18233 0.0717 0.10932 0.0
C1064 C 0.20089 0.18437 0.10685 0.0
C1065 C 0.20312 0.1734 0.09704 0.0
C1066 C 0.1838 0.16904 0.11399 0.0
C1067 C 0.16863 0.1423 0.1115 0.0
C1068 C 0.16934 0.13215 0.10158 0.0
H1069 H 0.08128 0.00397 0.14601 0.0
H1070 H 0.10036 0.03771 0.13319 0.0
C1071 C 0.18647 0.14756 0.09439 0.0
C1072 C 0.15384 0.1243 0.11949 0.0
H1073 H 0.15801 0.05686 0.13175 0.0
C1074 C 0.13038 0.13742 0.12508 0.0
C1075 C 0.1641 0.09501 0.122 0.0
C1076 C 0.19023 0.08029 0.11664 0.0
C1077 C 0.11641 0.12169 0.13295 0.0
C1078 C 0.12656 0.0923 0.13541 0.0
C1079 C 0.15018 0.07937 0.12986 0.0
C1080 C 0.11229 0.07366 0.14335 0.0
C1081 C 0.09049 0.13638 0.13841 0.0
C1082 C 0.11209 0.08278 0.1534 0.0
C1083 C 0.10081 0.06342 0.16084 0.0
C1084 C 0.09009 0.03452 0.15831 0.0
C1085 C 0.0897 0.02594 0.14823 0.0
C1086 C 0.10058 0.04524 0.14086 0.0
H1087 H 0.08082 0.15559 0.13414 0.0
H1088 H 0.07224 0.11978 0.13993 0.0
H1089 H 0.09873 0.14521 0.14565 0.0
H1090 H 0.12151 0.1044 0.15554 0.0
H1091 H 0.10154 0.07054 0.16855 0.0
H1092 H 0.03106 0.97431 0.35676 0.0
H1093 H 0.04903 0.94983 0.37198 0.0
H1094 H 0.11881 0.90478 0.35519 0.0
H1095 H 0.10011 0.92837 0.33985 0.0
H1096 H 0.09831 0.87051 0.37166 0.0
H1097 H 0.1264 0.98857 0.38237 0.0
H1098 H 0.08699 0.98179 0.38012 0.0
H1099 H 0.11365 0.97873 0.37006 0.0
C1100 C 0.04947 0.95822 0.35626 0.0
C1101 C 0.06431 0.95334 0.34715 0.0
C1102 C 0.05989 0.94446 0.36498 0.0
C1103 C 0.08583 0.92622 0.36478 0.0
C1104 C 0.09886 0.91893 0.35553 0.0
H1105 H 0.23376 0.90899 0.40354 0.0
H1106 H 0.19492 0.9202 0.39129 0.0
C1107 C 0.08806 0.9323 0.34675 0.0
C1108 C 0.10177 0.91839 0.37419 0.0
H1109 H 0.1402 0.95043 0.39357 0.0
C1110 C 0.10718 0.88793 0.37653 0.0
C1111 C 0.11367 0.9412 0.38048 0.0
C1112 C 0.11018 0.9744 0.37812 0.0
C1113 C 0.12468 0.87973 0.38487 0.0
C1114 C 0.13677 0.9026 0.39107 0.0
C1115 C 0.1306 0.93295 0.38888 0.0
C1116 C 0.15939 0.89603 0.39897 0.0
C1117 C 0.1314 0.84679 0.38672 0.0
C1118 C 0.15221 0.87922 0.40754 0.0
C1119 C 0.17461 0.87278 0.41467 0.0
C1120 C 0.20442 0.88301 0.41327 0.0
C1121 C 0.21109 0.90059 0.40483 0.0
C1122 C 0.18888 0.90705 0.3978 0.0
H1123 H 0.12379 0.83221 0.38048 0.0
H1124 H 0.15603 0.84336 0.38786 0.0
H1125 H 0.11963 0.83937 0.3936 0.0
H1126 H 0.12945 0.8709 0.40868 0.0
H1127 H 0.16884 0.8591 0.42108 0.0
H1128 H 0.33012 0.83937 0.59093 0.0
H1129 H 0.36285 0.84951 0.60543 0.0
H1130 H 0.28438 0.87324 0.62279 0.0
H1131 H 0.25197 0.86341 0.60856 0.0
H1132 H 0.36792 0.90391 0.61766 0.0
H1133 H 0.32636 0.80625 0.6394 0.0
H1134 H 0.32184 0.80906 0.62605 0.0
H1135 H 0.29621 0.82848 0.63426 0.0
C1136 C 0.32001 0.84712 0.59782 0.0
C1137 C 0.28845 0.85031 0.59863 0.0
C1138 C 0.33865 0.85267 0.6061 0.0
C1139 C 0.32588 0.86125 0.61526 0.0
C1140 C 0.2946 0.86578 0.61589 0.0
H1141 H 0.34433 0.94118 0.66993 0.0
H1142 H 0.33206 0.90734 0.65613 0.0
C1143 C 0.27613 0.86033 0.6077 0.0
C1144 C 0.34461 0.8663 0.62426 0.0
H1145 H 0.34774 0.84745 0.64891 0.0
C1146 C 0.3643 0.89109 0.62444 0.0
C1147 C 0.33981 0.84945 0.63308 0.0
C1148 C 0.32012 0.82163 0.63319 0.0
C1149 C 0.37731 0.90104 0.63341 0.0
C1150 C 0.37077 0.88541 0.64238 0.0
C1151 C 0.35272 0.8594 0.64205 0.0
C1152 C 0.37869 0.89845 0.65221 0.0
C1153 C 0.39608 0.92953 0.63335 0.0
C1154 C 0.40894 0.90292 0.65502 0.0
C1155 C 0.41593 0.92198 0.66302 0.0
C1156 C 0.39274 0.93651 0.66832 0.0
C1157 C 0.36254 0.92957 0.66613 0.0
C1158 C 0.35555 0.91049 0.65817 0.0
H1159 H 0.39559 0.9411 0.62601 0.0
H1160 H 0.38788 0.94554 0.63911 0.0
H1161 H 0.41992 0.92385 0.6351 0.0
H1162 H 0.42711 0.8936 0.65057 0.0
H1163 H 0.43937 0.92773 0.66441 0.0
H1164 H 0.42056 0.0707 0.84188 0.0
H1165 H 0.40425 0.10592 0.85505 0.0
H1166 H 0.36045 0.03242 0.87043 0.0
H1167 H 0.37697 0.99749 0.85759 0.0
H1168 H 0.34903 0.12222 0.86202 0.0
H1169 H 0.41155 0.06702 0.89245 0.0
H1170 H 0.41895 0.05872 0.87952 0.0
H1171 H 0.38883 0.03972 0.88605 0.0
C1172 C 0.40734 0.06221 0.84807 0.0
C1173 C 0.40035 0.03129 0.84876 0.0
C1174 C 0.39819 0.08227 0.8556 0.0
C1175 C 0.38199 0.07161 0.86391 0.0
C1176 C 0.37391 0.04101 0.86432 0.0
H1177 H 0.24625 0.13695 0.90029 0.0
H1178 H 0.28113 0.12138 0.88738 0.0
C1179 C 0.38317 0.02108 0.8569 0.0
C1180 C 0.37218 0.09213 0.87206 0.0
H1181 H 0.36639 0.09493 0.89741 0.0
C1182 C 0.35339 0.11669 0.86976 0.0
C1183 C 0.37856 0.08566 0.88218 0.0
C1184 C 0.40089 0.06155 0.88518 0.0
C1185 C 0.33863 0.13306 0.87729 0.0
C1186 C 0.34212 0.1241 0.88736 0.0
C1187 C 0.36313 0.10144 0.8897 0.0
C1188 C 0.32145 0.13505 0.89532 0.0
C1189 C 0.31873 0.15925 0.87433 0.0
C1190 C 0.33243 0.14685 0.90435 0.0
C1191 C 0.31229 0.15549 0.91194 0.0
C1192 C 0.28091 0.15227 0.91059 0.0
C1193 C 0.27021 0.14011 0.90158 0.0
C1194 C 0.29018 0.13145 0.8941 0.0
H1195 H 0.32749 0.17047 0.86752 0.0
H1196 H 0.2957 0.15075 0.87262 0.0
H1197 H 0.31707 0.17629 0.88037 0.0
H1198 H 0.35652 0.14938 0.90553 0.0
H1199 H 0.32122 0.16469 0.9188 0.0
H1200 H 0.94444 0.9052 0.84078 0.0
H1201 H 0.93489 0.86891 0.85436 0.0
H1202 H 0.85331 0.91703 0.86198 0.0
H1203 H 0.86307 0.9533 0.84867 0.0
H1204 H 0.93044 0.89022 0.8748 0.0
H1205 H 0.82839 0.82668 0.86361 0.0
H1206 H 0.85331 0.84453 0.85469 0.0
H1207 H 0.82502 0.86638 0.86109 0.0
C1208 C 0.92396 0.90724 0.84515 0.0
C1209 C 0.90431 0.93179 0.84369 0.0
C1210 C 0.91864 0.88669 0.85293 0.0
C1211 C 0.89323 0.89011 0.85911 0.0
C1212 C 0.87275 0.91362 0.8572 0.0
H1213 H 0.83161 0.90105 0.9148 0.0
H1214 H 0.86484 0.90062 0.90032 0.0
C1215 C 0.87835 0.93437 0.84962 0.0
C1216 C 0.88959 0.87223 0.86837 0.0
H1217 H 0.83508 0.83479 0.88138 0.0
C1218 C 0.91009 0.8772 0.87618 0.0
C1219 C 0.86331 0.85492 0.87015 0.0
C1220 C 0.84139 0.84753 0.8619 0.0
C1221 C 0.90333 0.86804 0.88595 0.0
C1222 C 0.87534 0.8538 0.88792 0.0
C1223 C 0.85645 0.84595 0.87992 0.0
C1224 C 0.86251 0.8522 0.89812 0.0
C1225 C 0.9254 0.87527 0.89416 0.0
C1226 C 0.85086 0.825 0.90195 0.0
C1227 C 0.83212 0.82524 0.91038 0.0
C1228 C 0.82448 0.85274 0.91493 0.0
C1229 C 0.83779 0.87954 0.91152 0.0
C1230 C 0.8568 0.87926 0.90324 0.0
H1231 H 0.949 0.87529 0.89132 0.0
H1232 H 0.92053 0.8982 0.89709 0.0
H1233 H 0.92361 0.85884 0.90038 0.0
H1234 H 0.85464 0.80393 0.89804 0.0
H1235 H 0.8214 0.80442 0.91273 0.0
H1236 H 0.9286 0.08711 0.66426 0.0
H1237 H 0.91599 0.1213 0.65038 0.0
H1238 H 0.82429 0.0881 0.65068 0.0
H1239 H 0.83699 0.05384 0.66431 0.0
H1240 H 0.89457 0.09575 0.63198 0.0
H1241 H 0.81394 0.18013 0.64663 0.0
H1242 H 0.84053 0.1603 0.6545 0.0
H1243 H 0.8056 0.14258 0.65087 0.0
C1244 C 0.90549 0.08823 0.66161 0.0
C1245 C 0.88354 0.06841 0.66541 0.0
C1246 C 0.89838 0.10749 0.65365 0.0
C1247 C 0.86912 0.10746 0.64957 0.0
C1248 C 0.84681 0.08897 0.65383 0.0
H1249 H 0.75325 0.12278 0.60291 0.0
H1250 H 0.78457 0.11693 0.61764 0.0
C1251 C 0.85403 0.06945 0.66163 0.0
C1252 C 0.86243 0.12292 0.64003 0.0
H1253 H 0.8084 0.16688 0.62918 0.0
C1254 C 0.8764 0.11209 0.63134 0.0
C1255 C 0.8388 0.14423 0.63924 0.0
C1256 C 0.82405 0.15773 0.64832 0.0
C1257 C 0.86533 0.1198 0.62186 0.0
C1258 C 0.83995 0.13905 0.62111 0.0
C1259 C 0.82776 0.15194 0.62978 0.0
C1260 C 0.82251 0.14198 0.61173 0.0
C1261 C 0.87914 0.10537 0.61276 0.0
C1262 C 0.83374 0.15753 0.60338 0.0
C1263 C 0.81576 0.16083 0.59482 0.0
C1264 C 0.78633 0.14877 0.59458 0.0
C1265 C 0.77571 0.13256 0.60287 0.0
C1266 C 0.79356 0.12923 0.61132 0.0
H1267 H 0.89753 0.08929 0.61468 0.0
H1268 H 0.86152 0.09312 0.60847 0.0
H1269 H 0.88861 0.12317 0.60785 0.0
H1270 H 0.85601 0.16768 0.60358 0.0
H1271 H 0.82445 0.1736 0.58857 0.0
H1272 H 0.63352 0.05963 0.3367 0.0
H1273 H 0.6599 0.08607 0.3502 0.0
H1274 H 0.57968 0.08108 0.36837 0.0
H1275 H 0.55314 0.05504 0.35494 0.0
H1276 H 0.61336 0.13687 0.37026 0.0
H1277 H 0.6836 0.03359 0.37473 0.0
H1278 H 0.68385 0.04979 0.36246 0.0
H1279 H 0.64946 0.03414 0.36737 0.0
C1280 C 0.62128 0.06492 0.34346 0.0
C1281 C 0.59139 0.05497 0.34481 0.0
C1282 C 0.63641 0.07981 0.35119 0.0
C1283 C 0.62185 0.08497 0.36033 0.0
C1284 C 0.59134 0.07715 0.36139 0.0
H1285 H 0.69081 0.14651 0.4187 0.0
H1286 H 0.65603 0.1302 0.4054 0.0
C1287 C 0.57626 0.06221 0.35371 0.0
C1288 C 0.63904 0.0957 0.3691 0.0
H1289 H 0.69601 0.07537 0.38485 0.0
C1290 C 0.63142 0.12349 0.37348 0.0
C1291 C 0.66213 0.07783 0.37338 0.0
C1292 C 0.67016 0.04705 0.36933 0.0
C1293 C 0.64726 0.13446 0.38181 0.0
C1294 C 0.67088 0.1169 0.38592 0.0
C1295 C 0.67788 0.08878 0.38168 0.0
C1296 C 0.69065 0.12816 0.39401 0.0
C1297 C 0.63936 0.16512 0.38596 0.0
C1298 C 0.72146 0.13208 0.39203 0.0
C1299 C 0.74115 0.14097 0.39955 0.0
C1300 C 0.73058 0.14619 0.40927 0.0
C1301 C 0.69958 0.14266 0.41128 0.0
C1302 C 0.67972 0.13355 0.40369 0.0
H1303 H 0.62407 0.17793 0.38093 0.0
H1304 H 0.62783 0.16227 0.39324 0.0
H1305 H 0.66015 0.17865 0.38723 0.0
H1306 H 0.73037 0.12806 0.38463 0.0
H1307 H 0.76482 0.14367 0.39768 0.0
H1308 H 0.53196 0.921 0.15174 0.0
H1309 H 0.55668 0.89214 0.13856 0.0
H1310 H 0.64148 0.89846 0.15429 0.0
H1311 H 0.61671 0.92684 0.16762 0.0
H1312 H 0.59986 0.91725 0.12732 0.0
H1313 H 0.64496 0.81258 0.14416 0.0
H1314 H 0.6162 0.83516 0.15015 0.0
H1315 H 0.65548 0.84545 0.15115 0.0
C1316 C 0.5557 0.91545 0.15254 0.0
C1317 C 0.57245 0.92626 0.16069 0.0
C1318 C 0.56978 0.89897 0.14499 0.0
C1319 C 0.60089 0.893 0.14544 0.0
C1320 C 0.61732 0.90221 0.15387 0.0
H1321 H 0.75091 0.86568 0.1088 0.0
H1322 H 0.71245 0.87213 0.12153 0.0
C1323 C 0.60316 0.91851 0.16149 0.0
C1324 C 0.61685 0.88117 0.13654 0.0
H1325 H 0.66918 0.82936 0.12899 0.0
C1326 C 0.61451 0.89761 0.12761 0.0
C1327 C 0.6359 0.85556 0.13692 0.0
C1328 C 0.63806 0.836 0.14609 0.0
C1329 C 0.63211 0.89027 0.11927 0.0
C1330 C 0.65233 0.86562 0.11983 0.0
C1331 C 0.65362 0.84827 0.12859 0.0
C1332 C 0.67507 0.86003 0.11196 0.0
C1333 C 0.63035 0.91003 0.11013 0.0
C1334 C 0.66678 0.85093 0.10231 0.0
C1335 C 0.6889 0.84725 0.09492 0.0
C1336 C 0.71952 0.85267 0.09711 0.0
C1337 C 0.72756 0.86144 0.10682 0.0
C1338 C 0.70561 0.86499 0.11415 0.0
H1339 H 0.61649 0.93061 0.1114 0.0
H1340 H 0.65335 0.91706 0.10775 0.0
H1341 H 0.62004 0.89705 0.10393 0.0
H1342 H 0.64329 0.84675 0.10051 0.0
H1343 H 0.68205 0.84032 0.08752 0.0
H1344 H 0.6946 0.60936 0.59395 0.0
H1345 H 0.66142 0.60714 0.60846 0.0
H1346 H 0.64036 0.70168 0.6049 0.0
H1347 H 0.67336 0.70373 0.59011 0.0
H1348 H 0.66643 0.68434 0.62385 0.0
H1349 H 0.56928 0.61159 0.61413 0.0
H1350 H 0.60443 0.59667 0.6096 0.0
H1351 H 0.59074 0.6322 0.60489 0.0
C1352 C 0.68189 0.62933 0.59603 0.0
C1353 C 0.68609 0.65658 0.59089 0.0
C1354 C 0.66294 0.62807 0.60431 0.0
C1355 C 0.6482 0.65418 0.60771 0.0
C1356 C 0.65124 0.68122 0.60231 0.0
H1357 H 0.56527 0.59745 0.66373 0.0
H1358 H 0.57014 0.6335 0.64988 0.0
C1359 C 0.66985 0.68232 0.59385 0.0
C1360 C 0.63374 0.65351 0.61766 0.0
H1361 H 0.58594 0.60976 0.63138 0.0
C1362 C 0.64811 0.66882 0.6255 0.0
C1363 C 0.60965 0.63359 0.6198 0.0
C1364 C 0.59242 0.6178 0.61164 0.0
C1365 C 0.64115 0.66223 0.63547 0.0
C1366 C 0.61944 0.6397 0.63761 0.0
C1367 C 0.6028 0.62688 0.62976 0.0
C1368 C 0.61776 0.62489 0.6475 0.0
C1369 C 0.65838 0.67807 0.64362 0.0
C1370 C 0.64311 0.60894 0.65097 0.0
C1371 C 0.64027 0.58833 0.65877 0.0
C1372 C 0.61218 0.58363 0.66334 0.0
C1373 C 0.58735 0.60138 0.66048 0.0
C1374 C 0.59005 0.62173 0.65253 0.0
H1375 H 0.66535 0.70109 0.64124 0.0
H1376 H 0.64469 0.67985 0.65053 0.0
H1377 H 0.6792 0.66507 0.64533 0.0
H1378 H 0.66452 0.6104 0.64708 0.0
H1379 H 0.6595 0.57434 0.66072 0.0
H1380 H 0.66748 0.32049 0.91725 0.0
H1381 H 0.63301 0.31936 0.90282 0.0
H1382 H 0.70087 0.36397 0.88502 0.0
H1383 H 0.73508 0.36425 0.89901 0.0
H1384 H 0.60805 0.36325 0.89296 0.0
H1385 H 0.67563 0.30228 0.8655 0.0
H1386 H 0.68493 0.30127 0.87859 0.0
H1387 H 0.69984 0.33064 0.87062 0.0
C1388 C 0.67507 0.32957 0.91019 0.0
C1389 C 0.70409 0.3423 0.90928 0.0
C1390 C 0.65543 0.32883 0.90195 0.0
C1391 C 0.66462 0.34068 0.8927 0.0
C1392 C 0.69355 0.35343 0.89189 0.0
H1393 H 0.60735 0.46743 0.85706 0.0
H1394 H 0.6117 0.42925 0.86976 0.0
C1395 C 0.71306 0.35396 0.90001 0.0
C1396 C 0.64356 0.34342 0.88409 0.0
H1397 H 0.64713 0.34697 0.85876 0.0
C1398 C 0.61607 0.35869 0.88547 0.0
C1399 C 0.65289 0.33635 0.87427 0.0
C1400 C 0.67978 0.31636 0.87221 0.0
C1401 C 0.60028 0.37091 0.87734 0.0
C1402 C 0.61298 0.36883 0.86768 0.0
C1403 C 0.63782 0.34964 0.86618 0.0
C1404 C 0.60557 0.39128 0.85978 0.0
C1405 C 0.57117 0.38763 0.87929 0.0
C1406 C 0.60126 0.38297 0.84975 0.0
C1407 C 0.59922 0.40523 0.84228 0.0
C1408 C 0.60199 0.43596 0.84477 0.0
C1409 C 0.6053 0.44399 0.85483 0.0
C1410 C 0.60727 0.42204 0.86219 0.0
H1411 H 0.55769 0.37572 0.88506 0.0
H1412 H 0.57637 0.41049 0.88223 0.0
H1413 H 0.55728 0.38989 0.87245 0.0
H1414 H 0.60034 0.35935 0.84767 0.0
H1415 H 0.59675 0.39839 0.83459 0.0
H1416 H 0.79228 0.28348 0.10851 0.0
H1417 H 0.82563 0.29454 0.12258 0.0
H1418 H 0.86936 0.36426 0.10537 0.0
H1419 H 0.83686 0.3523 0.09111 0.0
H1420 H 0.90862 0.33662 0.11915 0.0
H1421 H 0.80033 0.37128 0.13686 0.0
H1422 H 0.80212 0.33224 0.13333 0.0
H1423 H 0.80279 0.36111 0.1239 0.0
C1424 C 0.80984 0.30034 0.10761 0.0
C1425 C 0.81191 0.3172 0.09878 0.0
C1426 C 0.8287 0.30681 0.11567 0.0
C1427 C 0.8493 0.33087 0.11512 0.0
C1428 C 0.85347 0.34573 0.10597 0.0
H1429 H 0.92954 0.46465 0.15014 0.0
H1430 H 0.9204 0.42495 0.13796 0.0
C1431 C 0.83498 0.33881 0.09781 0.0
C1432 C 0.86305 0.34338 0.12434 0.0
H1433 H 0.8445 0.37924 0.146 0.0
C1434 C 0.89464 0.34563 0.12508 0.0
C1435 C 0.84477 0.35525 0.13207 0.0
C1436 C 0.81064 0.35516 0.13151 0.0
C1437 C 0.90839 0.35997 0.13327 0.0
C1438 C 0.89003 0.37258 0.14083 0.0
C1439 C 0.85856 0.36922 0.14027 0.0
C1440 C 0.90215 0.39309 0.14861 0.0
C1441 C 0.9424 0.36193 0.13367 0.0
C1442 C 0.8955 0.38828 0.15873 0.0
C1443 C 0.90073 0.41112 0.16576 0.0
C1444 C 0.91217 0.43924 0.1627 0.0
C1445 C 0.92063 0.44321 0.1527 0.0
C1446 C 0.91568 0.42038 0.14573 0.0
H1447 H 0.95305 0.34297 0.12953 0.0
H1448 H 0.94978 0.38333 0.13011 0.0
H1449 H 0.95072 0.36171 0.14147 0.0
H1450 H 0.88473 0.3675 0.16109 0.0
H1451 H 0.89378 0.40754 0.1734 0.0
H1452 H 0.90951 0.58813 0.33546 0.0
H1453 H 0.89499 0.62883 0.34703 0.0
H1454 H 0.91462 0.57057 0.37194 0.0
H1455 H 0.92881 0.53021 0.36058 0.0
H1456 H 0.84721 0.62095 0.36125 0.0
H1457 H 0.95434 0.65143 0.38002 0.0
H1458 H 0.95318 0.63288 0.36803 0.0
H1459 H 0.94817 0.6114 0.37928 0.0
C1460 C 0.91118 0.58429 0.34341 0.0
C1461 C 0.92008 0.55596 0.34712 0.0
C1462 C 0.90296 0.6075 0.34999 0.0
C1463 C 0.90425 0.60285 0.36034 0.0
C1464 C 0.9141 0.5749 0.36401 0.0
H1465 H 0.83281 0.65541 0.41572 0.0
H1466 H 0.86615 0.63973 0.4021 0.0
C1467 C 0.92187 0.55172 0.35748 0.0
C1468 C 0.89182 0.62533 0.36741 0.0
H1469 H 0.90844 0.66301 0.38893 0.0
C1470 C 0.86065 0.63084 0.36717 0.0
C1471 C 0.90944 0.6378 0.37518 0.0
C1472 C 0.94321 0.63333 0.37562 0.0
C1473 C 0.84621 0.6468 0.37483 0.0
C1474 C 0.86366 0.65847 0.38282 0.0
C1475 C 0.89511 0.65416 0.38281 0.0
C1476 C 0.84907 0.67272 0.3916 0.0
C1477 C 0.81213 0.64914 0.37462 0.0
C1478 C 0.82992 0.69774 0.39043 0.0
C1479 C 0.81057 0.70636 0.39814 0.0
C1480 C 0.81072 0.69069 0.40723 0.0
C1481 C 0.83239 0.668 0.40881 0.0
C1482 C 0.85135 0.65895 0.40101 0.0
H1483 H 0.80186 0.63306 0.36925 0.0
H1484 H 0.80239 0.64465 0.3821 0.0
H1485 H 0.80553 0.67231 0.37234 0.0
H1486 H 0.82843 0.70925 0.38333 0.0
H1487 H 0.79415 0.72405 0.39677 0.0
H1488 H 0.29973 0.30389 0.40036 0.0
H1489 H 0.33646 0.31105 0.38699 0.0
H1490 H 0.38799 0.37082 0.40586 0.0
H1491 H 0.35174 0.3627 0.4194 0.0
H1492 H 0.34132 0.36464 0.37893 0.0
H1493 H 0.45546 0.3297 0.39104 0.0
H1494 H 0.4216 0.3176 0.39742 0.0
H1495 H 0.43778 0.35414 0.39995 0.0
C1496 C 0.31957 0.31761 0.40177 0.0
C1497 C 0.32296 0.33277 0.41089 0.0
C1498 C 0.34052 0.32174 0.39412 0.0
C1499 C 0.36509 0.34145 0.39538 0.0
C1500 C 0.36966 0.35497 0.40474 0.0
H1501 H 0.46113 0.46728 0.36194 0.0
H1502 H 0.44542 0.42883 0.37384 0.0
C1503 C 0.34889 0.3504 0.41249 0.0
C1504 C 0.38233 0.35187 0.38649 0.0
H1505 H 0.45333 0.36651 0.37768 0.0
C1506 C 0.36582 0.36435 0.37856 0.0
C1507 C 0.41428 0.35168 0.38601 0.0
C1508 C 0.43329 0.33727 0.39402 0.0
C1509 C 0.38024 0.37815 0.37045 0.0
C1510 C 0.41222 0.3791 0.37015 0.0
C1511 C 0.42883 0.36555 0.37788 0.0
C1512 C 0.42822 0.39805 0.36269 0.0
C1513 C 0.36104 0.39337 0.36261 0.0
C1514 C 0.42538 0.39278 0.3524 0.0
C1515 C 0.43438 0.41492 0.34553 0.0
C1516 C 0.44627 0.44251 0.3489 0.0
C1517 C 0.45172 0.44634 0.35914 0.0
C1518 C 0.44286 0.42431 0.36596 0.0
H1519 H 0.33687 0.39474 0.36482 0.0
H1520 H 0.36935 0.41661 0.36112 0.0
H1521 H 0.36241 0.38035 0.35557 0.0
H1522 H 0.41452 0.37242 0.34972 0.0
H1523 H 0.4299 0.41142 0.33768 0.0
H1524 H 0.34036 0.52791 0.15837 0.0
H1525 H 0.33582 0.56482 0.14501 0.0
H1526 H 0.41001 0.61572 0.15736 0.0
H1527 H 0.41468 0.57842 0.17095 0.0
H1528 H 0.32777 0.63066 0.14631 0.0
H1529 H 0.43358 0.5935 0.12737 0.0
H1530 H 0.41441 0.56983 0.13633 0.0
H1531 H 0.43484 0.60247 0.14045 0.0
C1532 C 0.35552 0.54714 0.15834 0.0
C1533 C 0.37795 0.55028 0.16567 0.0
C1534 C 0.35289 0.5682 0.15069 0.0
C1535 C 0.37282 0.59272 0.15013 0.0
C1536 C 0.39462 0.59671 0.15763 0.0
H1537 H 0.33174 0.72716 0.10444 0.0
H1538 H 0.35404 0.70477 0.11937 0.0
C1539 C 0.39708 0.57564 0.16542 0.0
C1540 C 0.37064 0.61322 0.14144 0.0
H1541 H 0.40206 0.62716 0.11864 0.0
C1542 C 0.34428 0.63046 0.14034 0.0
C1543 C 0.39202 0.61235 0.13361 0.0
C1544 C 0.42033 0.5935 0.1344 0.0
C1545 C 0.33819 0.64611 0.13148 0.0
C1546 C 0.35927 0.64481 0.12356 0.0
C1547 C 0.38608 0.62824 0.12475 0.0
C1548 C 0.35252 0.65897 0.1138 0.0
C1549 C 0.30848 0.66267 0.13049 0.0
C1550 C 0.34615 0.64083 0.10547 0.0
C1551 C 0.33368 0.65363 0.09686 0.0
C1552 C 0.32731 0.68472 0.09651 0.0
C1553 C 0.33617 0.70309 0.10454 0.0
C1554 C 0.34882 0.69034 0.11308 0.0
H1555 H 0.29237 0.6566 0.13652 0.0
H1556 H 0.31262 0.68737 0.13088 0.0
H1557 H 0.2977 0.65767 0.12321 0.0
H1558 H 0.34893 0.61654 0.10588 0.0
H1559 H 0.32693 0.6389 0.09081 0.0
H1560 H 0.10633 0.56324 0.84087 0.0
H1561 H 0.11694 0.59662 0.8551 0.0
H1562 H 0.07711 0.53143 0.875 0.0
H1563 H 0.06658 0.49811 0.86093 0.0
H1564 H 0.07538 0.61631 0.87463 0.0
H1565 H 0.17521 0.541 0.87983 0.0
H1566 H 0.15733 0.54583 0.86785 0.0
H1567 H 0.13907 0.52387 0.87732 0.0
C1568 C 0.09887 0.55658 0.84823 0.0
C1569 C 0.08589 0.52801 0.84983 0.0
C1570 C 0.105 0.57559 0.85634 0.0
C1571 C 0.09796 0.56627 0.86607 0.0
C1572 C 0.0827 0.53893 0.86754 0.0
H1573 H 0.18379 0.61965 0.92178 0.0
H1574 H 0.14995 0.59406 0.91 0.0
C1575 C 0.07677 0.51994 0.8595 0.0
C1576 C 0.11036 0.58256 0.87476 0.0
H1577 H 0.16834 0.57977 0.89148 0.0
C1578 C 0.09567 0.60842 0.87835 0.0
C1579 C 0.13659 0.57187 0.87963 0.0
C1580 C 0.1532 0.5442 0.87599 0.0
C1581 C 0.10678 0.62407 0.88671 0.0
C1582 C 0.13349 0.61376 0.89144 0.0
C1583 C 0.14776 0.58754 0.88792 0.0
C1584 C 0.14883 0.63107 0.89945 0.0
C1585 C 0.08966 0.65129 0.89042 0.0
C1586 C 0.15885 0.66056 0.89756 0.0
C1587 C 0.17799 0.67516 0.90426 0.0
C1588 C 0.18779 0.66049 0.91298 0.0
C1589 C 0.17645 0.6316 0.91517 0.0
C1590 C 0.15723 0.61694 0.90843 0.0
H1591 H 0.06532 0.64992 0.88842 0.0
H1592 H 0.09165 0.65369 0.89862 0.0
H1593 H 0.09903 0.67191 0.88688 0.0
H1594 H 0.15334 0.6717 0.89061 0.0
H1595 H 0.1863 0.69745 0.90236 0.0
H1596 H 0.24643 0.35242 0.60528 0.0
H1597 H 0.21462 0.36074 0.6197 0.0
H1598 H 0.13571 0.33682 0.60259 0.0
H1599 H 0.16789 0.32834 0.58783 0.0
H1600 H 0.12976 0.39058 0.61404 0.0
H1601 H 0.17351 0.298 0.63748 0.0
H1602 H 0.20372 0.31972 0.63218 0.0
H1603 H 0.17868 0.29887 0.62414 0.0
C1604 C 0.22234 0.34872 0.6045 0.0
C1605 C 0.20975 0.33955 0.59537 0.0
C1606 C 0.20418 0.35325 0.61283 0.0
C1607 C 0.1729 0.34864 0.61231 0.0
C1608 C 0.15991 0.34004 0.60318 0.0
H1609 H 0.06306 0.42131 0.66184 0.0
H1610 H 0.07425 0.38578 0.64824 0.0
C1611 C 0.17827 0.33531 0.59476 0.0
C1612 C 0.1543 0.35488 0.62129 0.0
H1613 H 0.15358 0.34169 0.64636 0.0
C1614 C 0.13413 0.37932 0.62107 0.0
C1615 C 0.15999 0.34008 0.63045 0.0
C1616 C 0.17993 0.3125 0.63107 0.0
C1617 C 0.12169 0.39106 0.62989 0.0
C1618 C 0.12942 0.37776 0.63914 0.0
C1619 C 0.14777 0.35193 0.63928 0.0
C1620 C 0.12259 0.39318 0.64869 0.0
C1621 C 0.10227 0.41906 0.62934 0.0
C1622 C 0.14617 0.40765 0.6538 0.0
C1623 C 0.13982 0.42769 0.66156 0.0
C1624 C 0.10985 0.43312 0.66445 0.0
C1625 C 0.08641 0.41676 0.65991 0.0
C1626 C 0.09274 0.39684 0.65206 0.0
H1627 H 0.10089 0.42832 0.62166 0.0
H1628 H 0.07903 0.41359 0.63187 0.0
H1629 H 0.11138 0.43684 0.63434 0.0
H1630 H 0.16934 0.40523 0.6513 0.0
H1631 H 0.15814 0.44068 0.66478 0.0
H1632 H 0.30321 0.14175 0.96378 0.0
H1633 H 0.29701 0.14144 0.98187 0.0
H1634 H 0.24647 0.22457 0.98021 0.0
H1635 H 0.25241 0.225 0.96211 0.0
H1636 H 0.31085 0.18112 0.99723 0.0
H1637 H 0.18674 0.16662 0.99357 0.0
H1638 H 0.21226 0.16243 0.98318 0.0
H1639 H 0.20127 0.19944 0.98734 0.0
C1640 C 0.29133 0.16035 0.96726 0.0
C1641 C 0.27794 0.1832 0.96145 0.0
C1642 C 0.28764 0.16002 0.97762 0.0
C1643 C 0.27053 0.1825 0.98237 0.0
C1644 C 0.25903 0.20651 0.97668 0.0
H1645 H 0.25785 0.21744 0.04567 0.0
H1646 H 0.26689 0.2189 0.02776 0.0
C1647 C 0.26264 0.20683 0.96632 0.0
C1648 C 0.26377 0.18021 0.9932 0.0
H1649 H 0.20564 0.17474 0.00991 0.0
C1650 C 0.28786 0.17969 1.0 0.0
C1651 C 0.23377 0.17769 0.99681 0.0
C1652 C 0.207 0.17626 0.98985 0.0
C1653 C 0.28275 0.17749 0.01031 0.0
C1654 C 0.25269 0.17625 0.01394 0.0
C1655 C 0.22864 0.176 0.00713 0.0
C1656 C 0.24585 0.17571 0.0248 0.0
C1657 C 0.30964 0.17611 0.01721 0.0
C1658 C 0.22977 0.15155 0.02908 0.0
C1659 C 0.22445 0.15068 0.03938 0.0
C1660 C 0.23516 0.17398 0.04555 0.0
C1661 C 0.25009 0.19869 0.04117 0.0
C1662 C 0.25531 0.19958 0.03091 0.0
H1663 H 0.33039 0.16865 0.01325 0.0
H1664 H 0.314 0.19896 0.02029 0.0
H1665 H 0.30539 0.16047 0.02352 0.0
H1666 H 0.22195 0.13303 0.02448 0.0
H1667 H 0.21278 0.13142 0.04253 0.0
H1668 H 0.10958 0.95669 0.28518 0.0
H1669 H 0.09442 0.96274 0.26784 0.0
H1670 H 0.00682 0.99449 0.27725 0.0
H1671 H 0.02184 0.98818 0.29475 0.0
H1672 H 0.04462 0.94328 0.25546 0.0
H1673 H 0.04695 0.06742 0.26228 0.0
H1674 H 0.06302 0.04071 0.27095 0.0
H1675 H 0.02277 0.04492 0.27011 0.0
C1676 C 0.08672 0.96403 0.28358 0.0
C1677 C 0.06709 0.97237 0.29135 0.0
C1678 C 0.07812 0.96758 0.27365 0.0
C1679 C 0.04978 0.97976 0.27125 0.0
C1680 C 0.02901 0.98551 0.27895 0.0
H1681 H 0.00685 0.00675 0.20773 0.0
H1682 H 0.99994 0.9974 0.22556 0.0
C1683 C 0.03752 0.9816 0.28894 0.0
C1684 C 0.04374 0.98907 0.26079 0.0
H1685 H 0.04108 0.05141 0.24574 0.0
C1686 C 0.04324 0.96688 0.25333 0.0
C1687 C 0.04253 0.01994 0.25803 0.0
C1688 C 0.04402 0.04476 0.26572 0.0
C1689 C 0.04225 0.97472 0.24318 0.0
C1690 C 0.04157 0.0056 0.24041 0.0
C1691 C 0.04137 0.02778 0.24788 0.0
C1692 C 0.04362 0.01514 0.22981 0.0
C1693 C 0.04345 0.94994 0.23547 0.0
C1694 C 0.06979 0.02969 0.22633 0.0
C1695 C 0.07386 0.03499 0.21613 0.0
C1696 C 0.05179 0.02586 0.20921 0.0
C1697 C 0.0246 0.01344 0.21282 0.0
C1698 C 0.02059 0.00805 0.22301 0.0
H1699 H 0.0491 0.92766 0.2388 0.0
H1700 H 0.02107 0.94801 0.23179 0.0
H1701 H 0.06045 0.95531 0.22965 0.0
H1702 H 0.08778 0.03554 0.23145 0.0
H1703 H 0.09509 0.04458 0.21365 0.0
H1704 H 0.25546 0.79003 0.54591 0.0
H1705 H 0.24707 0.79026 0.52796 0.0
H1706 H 0.29747 0.87329 0.52543 0.0
H1707 H 0.30596 0.87329 0.54349 0.0
H1708 H 0.21599 0.83576 0.51778 0.0
H1709 H 0.33204 0.82085 0.50277 0.0
H1710 H 0.32237 0.81223 0.51553 0.0
H1711 H 0.32805 0.85074 0.51173 0.0
C1712 C 0.26515 0.80818 0.54154 0.0
C1713 C 0.28123 0.83178 0.54616 0.0
C1714 C 0.26029 0.80826 0.53127 0.0
C1715 C 0.27164 0.83174 0.52534 0.0
C1716 C 0.28882 0.85471 0.52984 0.0
H1717 H 0.20996 0.89012 0.46715 0.0
H1718 H 0.21877 0.88358 0.48498 0.0
C1719 C 0.29368 0.85468 0.54017 0.0
C1720 C 0.26364 0.83309 0.51459 0.0
H1721 H 0.29355 0.83314 0.49113 0.0
C1722 C 0.23295 0.8351 0.51195 0.0
C1723 C 0.28573 0.83192 0.50698 0.0
C1724 C 0.3189 0.82855 0.50935 0.0
C1725 C 0.2238 0.83646 0.50194 0.0
C1726 C 0.24593 0.83607 0.49434 0.0
C1727 C 0.2766 0.83356 0.49696 0.0
C1728 C 0.23785 0.83877 0.48363 0.0
C1729 C 0.1905 0.83795 0.49956 0.0
C1730 C 0.24521 0.81557 0.47693 0.0
C1731 C 0.24001 0.81915 0.46672 0.0
C1732 C 0.22777 0.84622 0.46297 0.0
C1733 C 0.21924 0.86889 0.46976 0.0
C1734 C 0.22432 0.86523 0.47997 0.0
H1735 H 0.17642 0.83038 0.50595 0.0
H1736 H 0.18427 0.86165 0.49782 0.0
H1737 H 0.185 0.8238 0.49298 0.0
H1738 H 0.25553 0.79489 0.4796 0.0
H1739 H 0.24643 0.80104 0.46173 0.0
H1740 H 0.48153 0.00979 0.79908 0.0
H1741 H 0.48748 0.00662 0.781 0.0
H1742 H 0.39547 0.03647 0.77709 0.0
H1743 H 0.38914 0.03935 0.79515 0.0
H1744 H 0.45135 0.96928 0.768 0.0
H1745 H 0.44519 0.09106 0.7582 0.0
H1746 H 0.45305 0.0781 0.77068 0.0
H1747 H 0.415 0.07769 0.766 0.0
C1748 C 0.46262 0.01594 0.79438 0.0
C1749 C 0.43477 0.02458 0.79858 0.0
C1750 C 0.46607 0.01407 0.78405 0.0
C1751 C 0.44191 0.02123 0.77771 0.0
C1752 C 0.41449 0.03109 0.78185 0.0
H1753 H 0.40939 0.98112 0.71526 0.0
H1754 H 0.41193 0.97649 0.73349 0.0
C1755 C 0.41097 0.03285 0.79219 0.0
C1756 C 0.44499 0.01739 0.76678 0.0
H1757 H 0.4432 0.05617 0.74485 0.0
C1758 C 0.44973 0.98826 0.76292 0.0
C1759 C 0.44301 0.0422 0.7602 0.0
C1760 C 0.43904 0.07409 0.76395 0.0
C1761 C 0.45213 0.98326 0.7526 0.0
C1762 C 0.44953 0.00802 0.74601 0.0
C1763 C 0.44512 0.03716 0.74991 0.0
C1764 C 0.45164 0.00476 0.73503 0.0
C1765 C 0.45777 0.95168 0.74883 0.0
C1766 C 0.47367 0.0212 0.72984 0.0
C1767 C 0.47215 0.0239 0.7195 0.0
C1768 C 0.44868 0.01005 0.71415 0.0
C1769 C 0.42808 0.99144 0.71921 0.0
C1770 C 0.42945 0.98894 0.72962 0.0
H1771 H 0.46601 0.93648 0.75483 0.0
H1772 H 0.43633 0.94223 0.74588 0.0
H1773 H 0.47456 0.95184 0.74268 0.0
H1774 H 0.49099 0.03354 0.73384 0.0
H1775 H 0.48813 0.03858 0.71576 0.0
H1776 H 0.79921 0.81623 0.96465 0.0
H1777 H 0.79935 0.79812 0.98205 0.0
H1778 H 0.70349 0.81521 0.98399 0.0
H1779 H 0.70339 0.83324 0.96687 0.0
H1780 H 0.78223 0.83652 0.99772 0.0
H1781 H 0.71111 0.73388 0.99811 0.0
H1782 H 0.72869 0.74807 0.98689 0.0
H1783 H 0.69369 0.76404 0.99127 0.0
C1784 C 0.77814 0.81516 0.96875 0.0
C1785 C 0.75132 0.82611 0.9645 0.0
C1786 C 0.77821 0.80495 0.97866 0.0
C1787 C 0.75132 0.80494 0.98428 0.0
C1788 C 0.72435 0.81434 0.97977 0.0
H1789 H 0.6984 0.84773 0.04276 0.0
H1790 H 0.70406 0.83821 0.0249 0.0
C1791 C 0.72437 0.82488 0.97 0.0
C1792 C 0.75154 0.79954 0.99518 0.0
H1793 H 0.71307 0.7624 0.01357 0.0
C1794 C 0.76773 0.81979 1.00119 0.0
C1795 C 0.73251 0.77779 0.99971 0.0
C1796 C 0.71575 0.75452 0.99365 0.0
C1797 C 0.76388 0.82012 0.01156 0.0
C1798 C 0.74331 0.79975 0.016 0.0
C1799 C 0.72849 0.77827 0.01009 0.0
C1800 C 0.73614 0.80176 0.02673 0.0
C1801 C 0.78083 0.84307 0.01771 0.0
C1802 C 0.75146 0.7836 0.03361 0.0
C1803 C 0.74826 0.78895 0.04382 0.0
C1804 C 0.72971 0.81259 0.04728 0.0
C1805 C 0.71274 0.8293 0.04036 0.0
C1806 C 0.71606 0.82399 0.03015 0.0
H1807 H 0.79862 0.85481 0.01333 0.0
H1808 H 0.76472 0.86022 0.02057 0.0
H1809 H 0.79152 0.83196 0.02424 0.0
H1810 H 0.767 0.76631 0.03109 0.0
H1811 H 0.76141 0.77549 0.04898 0.0
H1812 H 0.98344 0.97411 0.79517 0.0
H1813 H 0.98705 0.98865 0.77762 0.0
H1814 H 0.89577 0.95789 0.77277 0.0
H1815 H 0.89176 0.9437 0.79031 0.0
H1816 H 0.93817 0.94358 0.757 0.0
H1817 H 0.93971 0.06485 0.76789 0.0
H1818 H 0.96777 0.04121 0.77365 0.0
H1819 H 0.92849 0.03525 0.77637 0.0
C1820 C 0.96422 0.97015 0.79035 0.0
C1821 C 0.93709 0.95832 0.79421 0.0
C1822 C 0.96633 0.97851 0.78033 0.0
C1823 C 0.94143 0.97502 0.77396 0.0
C1824 C 0.91517 0.96102 0.77759 0.0
H1825 H 0.8857 0.05888 0.71921 0.0
H1826 H 0.89417 0.04456 0.73658 0.0
C1827 C 0.91299 0.95275 0.78762 0.0
C1828 C 0.94196 0.98753 0.76371 0.0
H1829 H 0.94298 0.05401 0.75072 0.0
C1830 C 0.93946 0.96769 0.75561 0.0
C1831 C 0.9432 0.01906 0.76194 0.0
C1832 C 0.94471 0.04146 0.7704 0.0
C1833 C 0.9382 0.97852 0.74578 0.0
C1834 C 0.93971 0.01003 0.74401 0.0
C1835 C 0.94217 0.02988 0.7521 0.0
C1836 C 0.93707 0.02267 0.73381 0.0
C1837 C 0.93435 0.95622 0.73737 0.0
C1838 C 0.95914 0.01649 0.72659 0.0
C1839 C 0.95449 0.02486 0.71666 0.0
C1840 C 0.9276 0.03944 0.71376 0.0
C1841 C 0.90665 0.04768 0.72116 0.0
C1842 C 0.91137 0.03936 0.7311 0.0
H1843 H 0.92766 0.93349 0.74011 0.0
H1844 H 0.91701 0.96427 0.73201 0.0
H1845 H 0.95607 0.95396 0.7333 0.0
H1846 H 0.97944 0.00418 0.72856 0.0
H1847 H 0.97133 0.01864 0.71118 0.0
H1848 H 0.77269 0.22552 0.54421 0.0
H1849 H 0.7658 0.23036 0.52619 0.0
H1850 H 0.80271 0.14114 0.52201 0.0
H1851 H 0.80934 0.13592 0.54002 0.0
H1852 H 0.82053 0.18628 0.50717 0.0
H1853 H 0.69629 0.17935 0.51327 0.0
H1854 H 0.71589 0.20802 0.52021 0.0
H1855 H 0.72337 0.16889 0.52272 0.0
C1856 C 0.77984 0.20712 0.53944 0.0
C1857 C 0.79106 0.18012 0.54356 0.0
C1858 C 0.7758 0.20991 0.52916 0.0
C1859 C 0.78306 0.18582 0.52281 0.0
C1860 C 0.79674 0.1599 0.5268 0.0
H1861 H 0.72183 0.13455 0.46427 0.0
H1862 H 0.73031 0.14009 0.48218 0.0
C1863 C 0.80071 0.15704 0.5371 0.0
C1864 C 0.77432 0.18666 0.51215 0.0
H1865 H 0.71288 0.18582 0.49669 0.0
C1866 C 0.79703 0.18638 0.50486 0.0
C1867 C 0.74359 0.18633 0.50919 0.0
C1868 C 0.71828 0.18542 0.51672 0.0
C1869 C 0.78982 0.18595 0.49467 0.0
C1870 C 0.75909 0.186 0.49171 0.0
C1871 C 0.73638 0.18611 0.49899 0.0
C1872 C 0.75026 0.18457 0.48106 0.0
C1873 C 0.81511 0.18467 0.48714 0.0
C1874 C 0.7573 0.20837 0.47456 0.0
C1875 C 0.75224 0.20539 0.46433 0.0
C1876 C 0.74018 0.17849 0.46039 0.0
C1877 C 0.73116 0.15557 0.46702 0.0
C1878 C 0.73614 0.15862 0.47726 0.0
H1879 H 0.83711 0.17883 0.49063 0.0
H1880 H 0.81004 0.1678 0.48125 0.0
H1881 H 0.81745 0.20708 0.48351 0.0
H1882 H 0.76761 0.22886 0.47737 0.0
H1883 H 0.75887 0.22373 0.45946 0.0
H1884 H 0.63785 0.9509 0.29155 0.0
H1885 H 0.63886 0.95633 0.27356 0.0
H1886 H 0.58421 0.03677 0.27573 0.0
H1887 H 0.58221 0.03091 0.29388 0.0
H1888 H 0.56186 0.99799 0.2622 0.0
H1889 H 0.68434 0.01176 0.25538 0.0
H1890 H 0.67657 0.97849 0.26254 0.0
H1891 H 0.66801 0.01516 0.26763 0.0
C1892 C 0.62641 0.97009 0.28826 0.0
C1893 C 0.60988 0.99046 0.29418 0.0
C1894 C 0.62721 0.97326 0.27793 0.0
C1895 C 0.61196 0.99716 0.27328 0.0
C1896 C 0.59626 0.0182 0.27917 0.0
H1897 H 0.62651 0.04064 0.21082 0.0
H1898 H 0.63106 0.03739 0.22882 0.0
C1899 C 0.59529 0.01495 0.28955 0.0
C1900 C 0.61056 0.9986 0.26224 0.0
H1901 H 0.65429 0.99739 0.2413 0.0
C1902 C 0.58207 0.99815 0.25763 0.0
C1903 C 0.63691 0.99899 0.25626 0.0
C1904 C 0.66815 1.00145 0.26071 0.0
C1905 C 0.57921 0.99762 0.24721 0.0
C1906 C 0.60559 0.99661 0.24125 0.0
C1907 C 0.63407 0.99755 0.24587 0.0
C1908 C 0.6042 0.99675 0.2302 0.0
C1909 C 0.54794 0.99884 0.24272 0.0
C1910 C 0.58835 0.97438 0.22489 0.0
C1911 C 0.58542 0.97632 0.21452 0.0
C1912 C 0.59861 1.00049 0.20929 0.0
C1913 C 0.61583 0.02183 0.21459 0.0
C1914 C 0.61852 0.02001 0.22491 0.0
H1915 H 0.53099 0.00754 0.24811 0.0
H1916 H 0.54755 0.01343 0.236 0.0
H1917 H 0.54095 0.97572 0.24051 0.0
H1918 H 0.57781 0.95574 0.22879 0.0
H1919 H 0.57213 0.95945 0.21065 0.0
H1920 H 0.6823 0.66256 0.53616 0.0
H1921 H 0.69355 0.67293 0.51866 0.0
H1922 H 0.75123 0.74694 0.52734 0.0
H1923 H 0.74045 0.7364 0.54486 0.0
H1924 H 0.68992 0.72198 0.5057 0.0
H1925 H 0.80953 0.69002 0.51312 0.0
H1926 H 0.77983 0.68397 0.52209 0.0
H1927 H 0.79526 0.72112 0.5203 0.0
C1928 C 0.69676 0.68153 0.53434 0.0
C1929 C 0.71088 0.69834 0.5419 0.0
C1930 C 0.70327 0.68738 0.52433 0.0
C1931 C 0.72386 0.7102 0.52171 0.0
C1932 C 0.7359 0.72871 0.5292 0.0
H1933 H 0.75732 0.72966 0.45695 0.0
H1934 H 0.75152 0.74624 0.47432 0.0
C1935 C 0.7296 0.72274 0.53921 0.0
C1936 C 0.73456 0.71265 0.51126 0.0
H1937 H 0.79648 0.70056 0.49656 0.0
C1938 C 0.7133 0.71778 0.50369 0.0
C1939 C 0.76508 0.7069 0.50867 0.0
C1940 C 0.78877 0.69994 0.51644 0.0
C1941 C 0.72146 0.71619 0.49359 0.0
C1942 C 0.75184 0.70977 0.491 0.0
C1943 C 0.77333 0.70586 0.49858 0.0
C1944 C 0.7606 0.70215 0.48063 0.0
C1945 C 0.69716 0.71954 0.48577 0.0
C1946 C 0.76946 0.67245 0.47848 0.0
C1947 C 0.77298 0.66306 0.46864 0.0
C1948 C 0.76786 0.68321 0.46074 0.0
C1949 C 0.76152 0.71366 0.46289 0.0
C1950 C 0.75783 0.72306 0.4728 0.0
H1951 H 0.67412 0.71994 0.48906 0.0
H1952 H 0.70064 0.741 0.48166 0.0
H1953 H 0.69837 0.70072 0.48032 0.0
H1954 H 0.77192 0.65598 0.48439 0.0
H1955 H 0.77804 0.6395 0.46721 0.0
H1956 H 0.55866 0.49284 0.70921 0.0
H1957 H 0.55122 0.48413 0.72686 0.0
H1958 H 0.57744 0.57606 0.73305 0.0
H1959 H 0.58556 0.58483 0.7152 0.0
H1960 H 0.60613 0.53748 0.74502 0.0
H1961 H 0.48451 0.50846 0.7453 0.0
H1962 H 0.50542 0.48515 0.73683 0.0
H1963 H 0.50271 0.5252 0.73462 0.0
C1964 C 0.56204 0.51156 0.71423 0.0
C1965 C 0.57218 0.53974 0.71071 0.0
C1966 C 0.55779 0.50648 0.72439 0.0
C1967 C 0.56312 0.52957 0.73131 0.0
C1968 C 0.57293 0.55792 0.72785 0.0
H1969 H 0.51601 0.52785 0.79365 0.0
H1970 H 0.51697 0.53227 0.77559 0.0
C1971 C 0.57748 0.56295 0.71764 0.0
C1972 C 0.56035 0.52339 0.74217 0.0
H1973 H 0.5125 0.49549 0.75992 0.0
C1974 C 0.58558 0.52848 0.74829 0.0
C1975 C 0.53347 0.51184 0.74647 0.0
C1976 C 0.50491 0.50764 0.74048 0.0
C1977 C 0.58482 0.5221 0.75854 0.0
C1978 C 0.55835 0.50939 0.76275 0.0
C1979 C 0.53299 0.50464 0.75666 0.0
C1980 C 0.55578 0.50314 0.77361 0.0
C1981 C 0.61213 0.52986 0.76478 0.0
C1982 C 0.57635 0.48402 0.77852 0.0
C1983 C 0.57601 0.48156 0.78893 0.0
C1984 C 0.55488 0.498 0.79458 0.0
C1985 C 0.53282 0.5151 0.78956 0.0
C1986 C 0.53331 0.51769 0.7792 0.0
H1987 H 0.62714 0.54633 0.76096 0.0
H1988 H 0.6053 0.53951 0.77207 0.0
H1989 H 0.62543 0.50904 0.76618 0.0
H1990 H 0.59335 0.47183 0.77434 0.0
H1991 H 0.59322 0.46808 0.79254 0.0
H1992 H 0.70574 0.36969 0.97216 0.0
H1993 H 0.71144 0.34952 0.98893 0.0
H1994 H 0.74705 0.2665 0.9769 0.0
H1995 H 0.74139 0.28675 0.95996 0.0
H1996 H 0.69433 0.29739 0.99987 0.0
H1997 H 0.81843 0.30332 0.99277 0.0
H1998 H 0.79139 0.32017 0.98439 0.0
H1999 H 0.79591 0.27989 0.98472 0.0
C2000 C 0.71386 0.34675 0.97305 0.0
C2001 C 0.72354 0.33001 0.96476 0.0
C2002 C 0.71715 0.33523 0.98265 0.0
C2003 C 0.73034 0.3068 0.98419 0.0
C2004 C 0.73729 0.28873 0.97589 0.0
H2005 H 0.75884 0.28131 0.04903 0.0
H2006 H 0.7517 0.26365 0.03183 0.0
C2007 C 0.73375 0.30021 0.96621 0.0
C2008 C 0.74003 0.29854 0.99443 0.0
H2009 H 0.80274 0.29892 0.00931 0.0
C2010 C 0.71803 0.29679 1.00194 0.0
C2011 C 0.77102 0.2981 0.9971 0.0
C2012 C 0.79568 0.30061 0.98937 0.0
C2013 C 0.7261 0.29667 0.01207 0.0
C2014 C 0.75704 0.29801 0.01474 0.0
C2015 C 0.77908 0.29767 0.00722 0.0
C2016 C 0.76653 0.30549 0.02507 0.0
C2017 C 0.70141 0.29758 0.01982 0.0
C2018 C 0.77884 0.33413 0.02694 0.0
C2019 C 0.78298 0.34418 0.03668 0.0
C2020 C 0.77508 0.32573 0.04479 0.0
C2021 C 0.76522 0.29602 0.04293 0.0
C2022 C 0.76083 0.28601 0.03312 0.0
H2023 H 0.67856 0.29967 0.01646 0.0
H2024 H 0.70206 0.27652 0.0243 0.0
H2025 H 0.705 0.31689 0.02497 0.0
H2026 H 0.78354 0.3495 0.02085 0.0
H2027 H 0.79076 0.36711 0.03787 0.0
H2028 H 0.91045 0.56348 0.29342 0.0
H2029 H 0.91339 0.55387 0.27553 0.0
H2030 H 0.99474 0.50189 0.27989 0.0
H2031 H 0.99196 0.51128 0.29782 0.0
H2032 H 0.95728 0.5619 0.26029 0.0
H2033 H 0.93445 0.44052 0.26811 0.0
H2034 H 0.93008 0.46949 0.27745 0.0
H2035 H 0.96714 0.45638 0.2741 0.0
C2036 C 0.92943 0.55065 0.29057 0.0
C2037 C 0.95067 0.53769 0.29709 0.0
C2038 C 0.93101 0.54509 0.28033 0.0
C2039 C 0.95386 0.52654 0.27641 0.0
C2040 C 0.97652 0.51569 0.28279 0.0
H2041 H 0.95491 0.49489 0.21129 0.0
H2042 H 0.97499 0.50205 0.22819 0.0
C2043 C 0.97494 0.52118 0.29303 0.0
C2044 C 0.95229 0.51662 0.26586 0.0
H2045 H 0.93762 0.45494 0.25132 0.0
C2046 C 0.95343 0.53847 0.2583 0.0
C2047 C 0.94695 0.48603 0.2633 0.0
C2048 C 0.94432 0.46169 0.27114 0.0
C2049 C 0.94858 0.5307 0.24827 0.0
C2050 C 0.94275 0.50019 0.24574 0.0
C2051 C 0.94247 0.47822 0.25327 0.0
C2052 C 0.93282 0.49141 0.23558 0.0
C2053 C 0.94812 0.55541 0.24053 0.0
C2054 C 0.90304 0.48145 0.23417 0.0
C2055 C 0.89162 0.47722 0.22459 0.0
C2056 C 0.9098 0.48267 0.21619 0.0
C2057 C 0.94037 0.49039 0.21761 0.0
C2058 C 0.95177 0.49483 0.22725 0.0
H2059 H 0.94846 0.5783 0.24392 0.0
H2060 H 0.96825 0.55318 0.23565 0.0
H2061 H 0.92768 0.55343 0.23577 0.0
H2062 H 0.88807 0.47848 0.24048 0.0
H2063 H 0.86803 0.47113 0.22374 0.0
H2064 H 0.18586 0.34589 0.53964 0.0
H2065 H 0.19619 0.34011 0.52188 0.0
H2066 H 0.2405 0.25508 0.52758 0.0
H2067 H 0.22992 0.26053 0.54536 0.0
H2068 H 0.27721 0.29693 0.51798 0.0
H2069 H 0.16699 0.28746 0.49867 0.0
H2070 H 0.16829 0.31809 0.50743 0.0
H2071 H 0.17142 0.27981 0.51181 0.0
C2072 C 0.19671 0.32536 0.53709 0.0
C2073 C 0.2074 0.30384 0.54394 0.0
C2074 C 0.20269 0.32211 0.52691 0.0
C2075 C 0.2192 0.29718 0.52339 0.0
C2076 C 0.22781 0.27454 0.53012 0.0
H2077 H 0.26392 0.29266 0.45942 0.0
H2078 H 0.25266 0.27316 0.47613 0.0
C2079 C 0.22175 0.27771 0.54029 0.0
C2080 C 0.23087 0.29689 0.51301 0.0
H2081 H 0.20919 0.30383 0.48871 0.0
C2082 C 0.26233 0.29786 0.51156 0.0
C2083 C 0.21153 0.29785 0.50463 0.0
C2084 C 0.17768 0.29545 0.50568 0.0
C2085 C 0.27487 0.30151 0.50203 0.0
C2086 C 0.25546 0.30442 0.49373 0.0
C2087 C 0.22408 0.3017 0.49509 0.0
C2088 C 0.2669 0.31371 0.4838 0.0
C2089 C 0.30877 0.30302 0.50094 0.0
C2090 C 0.27946 0.34257 0.4826 0.0
C2091 C 0.28568 0.35381 0.47311 0.0
C2092 C 0.27956 0.33638 0.46459 0.0
C2093 C 0.26908 0.30658 0.46583 0.0
C2094 C 0.26242 0.29548 0.47536 0.0
H2095 H 0.32041 0.29183 0.50728 0.0
H2096 H 0.31624 0.29225 0.49389 0.0
H2097 H 0.31593 0.32705 0.50079 0.0
H2098 H 0.28279 0.35716 0.48898 0.0
H2099 H 0.29369 0.37684 0.4724 0.0
H2100 H 0.41151 0.57161 0.21862 0.0
H2101 H 0.42745 0.56799 0.23607 0.0
H2102 H 0.45971 0.47742 0.23086 0.0
H2103 H 0.44497 0.48121 0.21352 0.0
H2104 H 0.40709 0.53042 0.24997 0.0
H2105 H 0.5299 0.51114 0.24583 0.0
H2106 H 0.50653 0.5236 0.23562 0.0
H2107 H 0.5084 0.48413 0.23885 0.0
C2108 C 0.42257 0.55117 0.22115 0.0
C2109 C 0.42705 0.52677 0.21461 0.0
C2110 C 0.43157 0.54907 0.23114 0.0
C2111 C 0.44522 0.52257 0.23478 0.0
C2112 C 0.45005 0.49842 0.22821 0.0
H2113 H 0.44206 0.47095 0.29764 0.0
H2114 H 0.43515 0.47182 0.27956 0.0
C2115 C 0.44137 0.5006 0.21825 0.0
C2116 C 0.45251 0.51919 0.24554 0.0
H2117 H 0.50854 0.49858 0.2617 0.0
C2118 C 0.42935 0.52369 0.25254 0.0
C2119 C 0.48162 0.51064 0.24892 0.0
C2120 C 0.50809 0.50742 0.24191 0.0
C2121 C 0.43432 0.51949 0.26278 0.0
C2122 C 0.46305 0.50957 0.26612 0.0
C2123 C 0.48635 0.50555 0.25914 0.0
C2124 C 0.4699 0.50532 0.27687 0.0
C2125 C 0.40892 0.52651 0.26992 0.0
C2126 C 0.49316 0.52213 0.28131 0.0
C2127 C 0.49758 0.52119 0.2916 0.0
C2128 C 0.47871 0.50353 0.29771 0.0
C2129 C 0.45687 0.48496 0.29318 0.0
C2130 C 0.45262 0.48574 0.28285 0.0
H2131 H 0.39156 0.54132 0.26647 0.0
H2132 H 0.39767 0.50515 0.27215 0.0
H2133 H 0.41756 0.53777 0.27674 0.0
H2134 H 0.50704 0.53714 0.27686 0.0
H2135 H 0.51482 0.53561 0.29479 0.0
H2136 H 0.23145 0.621 0.04379 0.0
H2137 H 0.2371 0.61684 0.02586 0.0
H2138 H 0.31137 0.67996 0.02668 0.0
H2139 H 0.30511 0.68512 0.04477 0.0
H2140 H 0.271 0.69527 0.01269 0.0
H2141 H 0.29651 0.57377 0.00857 0.0
H2142 H 0.26256 0.57942 0.01561 0.0
H2143 H 0.29816 0.59271 0.02045 0.0
C2144 C 0.24937 0.63367 0.04022 0.0
C2145 C 0.26781 0.65345 0.04574 0.0
C2146 C 0.25271 0.63107 0.02994 0.0
C2147 C 0.27491 0.64774 0.0249 0.0
C2148 C 0.29415 0.66674 0.03042 0.0
H2149 H 0.31412 0.62193 0.96228 0.0
H2150 H 0.31386 0.62214 0.98037 0.0
C2151 C 0.29071 0.66951 0.04076 0.0
C2152 C 0.27618 0.64701 0.01384 0.0
H2153 H 0.27805 0.59902 0.99394 0.0
C2154 C 0.27289 0.67425 0.00859 0.0
C2155 C 0.27887 0.61964 0.00846 0.0
C2156 C 0.28454 0.5898 0.01357 0.0
C2157 C 0.27157 0.67483 0.99813 0.0
C2158 C 0.27266 0.64728 0.99278 0.0
C2159 C 0.27662 0.62011 0.99803 0.0
C2160 C 0.27147 0.6462 0.98171 0.0
C2161 C 0.26963 0.70502 0.99295 0.0
C2162 C 0.24724 0.65893 0.97637 0.0
C2163 C 0.24745 0.65914 0.96593 0.0
C2164 C 0.27169 0.64622 0.96066 0.0
C2165 C 0.29512 0.63224 0.96606 0.0
C2166 C 0.29503 0.63231 0.97644 0.0
H2167 H 0.27755 0.72369 0.99782 0.0
H2168 H 0.2833 0.70518 0.98601 0.0
H2169 H 0.24573 0.70965 0.99095 0.0
H2170 H 0.22834 0.66901 0.98027 0.0
H2171 H 0.22899 0.66995 0.962 0.0
H2172 H 0.04569 0.48718 0.79856 0.0
H2173 H 0.02779 0.48615 0.78122 0.0
H2174 H 0.11638 0.51296 0.77114 0.0
H2175 H 0.13428 0.51403 0.78831 0.0
H2176 H 0.06716 0.54278 0.76142 0.0
H2177 H 0.05581 0.41746 0.76172 0.0
H2178 H 0.03632 0.43825 0.77129 0.0
H2179 H 0.07686 0.43764 0.77113 0.0
C2180 C 0.06107 0.4936 0.79265 0.0
C2181 C 0.09143 0.5006 0.79478 0.0
C2182 C 0.05094 0.49262 0.78275 0.0
C2183 C 0.07096 0.49889 0.77489 0.0
C2184 C 0.10064 0.5078 0.77708 0.0
H2185 H 0.09342 0.46876 0.71263 0.0
H2186 H 0.09155 0.46208 0.73079 0.0
C2187 C 0.1108 0.5085 0.78691 0.0
C2188 C 0.06188 0.49531 0.76432 0.0
H2189 H 0.04752 0.44218 0.74642 0.0
C2190 C 0.0624 0.52087 0.75816 0.0
C2191 C 0.05622 0.46657 0.76007 0.0
C2192 C 0.0564 0.43828 0.76634 0.0
C2193 C 0.05798 0.51848 0.74785 0.0
C2194 C 0.05246 0.48974 0.74357 0.0
C2195 C 0.05149 0.46416 0.74974 0.0
C2196 C 0.04934 0.48618 0.73263 0.0
C2197 C 0.06045 0.54663 0.74154 0.0
C2198 C 0.02527 0.50012 0.72763 0.0
C2199 C 0.02637 0.50394 0.71731 0.0
C2200 C 0.05128 0.49345 0.71183 0.0
C2201 C 0.07369 0.47649 0.71668 0.0
C2202 C 0.07275 0.47293 0.72705 0.0
H2203 H 0.07065 0.56577 0.74571 0.0
H2204 H 0.0743 0.54229 0.7348 0.0
H2205 H 0.03753 0.55359 0.73908 0.0
H2206 H 0.00686 0.5102 0.73178 0.0
H2207 H 0.00898 0.51736 0.71373 0.0
H2208 H 0.24074 0.81537 0.07273 0.0
H2209 H 0.23582 0.87043 0.07372 0.0
H2210 H 0.33098 0.88002 0.06757 0.0
H2211 H 0.33607 0.82523 0.06657 0.0
H2212 H 0.2618 0.91174 0.08598 0.0
H2213 H 0.29521 0.93692 0.04718 0.0
H2214 H 0.28619 0.89919 0.05132 0.0
H2215 H 0.32311 0.91486 0.0536 0.0
C2216 C 0.26067 0.82913 0.07163 0.0
C2217 C 0.28879 0.81561 0.06949 0.0
C2218 C 0.25779 0.86071 0.07215 0.0
C2219 C 0.28288 0.87961 0.07051 0.0
C2220 C 0.31104 0.86614 0.06857 0.0
H2221 H 0.31266 0.06319 0.0896 0.0
H2222 H 0.30852 0.00878 0.08758 0.0
C2223 C 0.31394 0.83465 0.06802 0.0
C2224 C 0.27994 0.91328 0.07111 0.0
H2225 H 0.29507 0.97876 0.05847 0.0
C2226 C 0.26884 0.92634 0.07992 0.0
C2227 C 0.28852 0.93256 0.06317 0.0
C2228 C 0.29862 0.92019 0.05324 0.0
C2229 C 0.26725 0.95793 0.08114 0.0
C2230 C 0.27757 0.97721 0.07342 0.0
C2231 C 0.2875 0.96416 0.06446 0.0
C2232 C 0.27945 0.0108 0.07465 0.0
C2233 C 0.25434 0.97031 0.09071 0.0
C2234 C 0.26517 0.03052 0.0679 0.0
C2235 C 0.26787 0.06204 0.06895 0.0
C2236 C 0.28522 0.0746 0.07672 0.0
C2237 C 0.2994 0.05466 0.08345 0.0
C2238 C 0.2967 0.02331 0.08239 0.0
H2239 H 0.23875 0.95388 0.09428 0.0
H2240 H 0.27306 0.9748 0.096 0.0
H2241 H 0.24192 0.99176 0.08941 0.0
H2242 H 0.25191 0.02152 0.06181 0.0
H2243 H 0.25686 0.07651 0.06356 0.0
H2244 H 0.45356 0.97374 0.32433 0.0
H2245 H 0.39846 0.96992 0.32511 0.0
H2246 H 0.39051 0.06304 0.31613 0.0
H2247 H 0.44552 0.06736 0.31552 0.0
H2248 H 0.35493 0.00562 0.33638 0.0
H2249 H 0.33917 0.01521 0.29544 0.0
H2250 H 0.37521 0.00616 0.30101 0.0
H2251 H 0.36161 0.04438 0.30111 0.0
C2252 C 0.44024 0.99359 0.32264 0.0
C2253 C 0.45428 0.02085 0.31979 0.0
C2254 C 0.40864 0.99129 0.32305 0.0
C2255 C 0.39033 0.01607 0.32055 0.0
C2256 C 0.40416 0.04346 0.31792 0.0
H2257 H 0.19364 0.03146 0.32962 0.0
H2258 H 0.2484 0.04096 0.32974 0.0
C2259 C 0.43573 0.04584 0.31755 0.0
C2260 C 0.35677 0.01315 0.32057 0.0
H2261 H 0.29494 0.01366 0.30528 0.0
C2262 C 0.34178 0.00747 0.32959 0.0
C2263 C 0.33966 0.01533 0.31169 0.0
C2264 C 0.35463 0.02036 0.30173 0.0
C2265 C 0.31013 0.00406 0.32998 0.0
C2266 C 0.29301 0.00653 0.32111 0.0
C2267 C 0.30804 0.01209 0.31208 0.0
C2268 C 0.25969 1.00159 0.32094 0.0
C2269 C 0.29529 0.99706 0.33982 0.0
C2270 C 0.24776 0.97676 0.31578 0.0
C2271 C 0.21661 0.97135 0.31569 0.0
C2272 C 0.19652 0.9908 0.3207 0.0
C2273 C 0.20843 0.01612 0.32567 0.0
C2274 C 0.23975 0.02141 0.32582 0.0
H2275 H 0.31203 0.99044 0.34559 0.0
H2276 H 0.28306 0.01739 0.3425 0.0
H2277 H 0.27854 0.97855 0.33897 0.0
H2278 H 0.26265 0.96129 0.3119 0.0
H2279 H 0.20824 0.95194 0.31165 0.0
H2280 H 0.24543 0.19703 0.56117 0.0
H2281 H 0.23963 0.14235 0.55895 0.0
H2282 H 0.24937 0.12936 0.5906 0.0
H2283 H 0.25524 0.18377 0.59285 0.0
H2284 H 0.28458 0.09007 0.57999 0.0
H2285 H 0.16717 0.08927 0.56534 0.0
H2286 H 0.19303 0.11258 0.55847 0.0
H2287 H 0.1837 0.12218 0.5711 0.0
C2288 C 0.24587 0.18258 0.56767 0.0
C2289 C 0.25081 0.19489 0.5772 0.0
C2290 C 0.24258 0.15127 0.56639 0.0
C2291 C 0.24381 0.13163 0.57461 0.0
C2292 C 0.24844 0.14394 0.58412 0.0
H2293 H 0.18328 0.94862 0.58197 0.0
H2294 H 0.19151 1.00297 0.5816 0.0
C2295 C 0.25184 0.17512 0.5854 0.0
C2296 C 0.24096 0.09822 0.5734 0.0
H2297 H 0.19268 0.04239 0.56586 0.0
C2298 C 0.26453 0.07965 0.57686 0.0
C2299 C 0.21471 0.08455 0.56939 0.0
C2300 C 0.18806 0.10309 0.56594 0.0
C2301 C 0.26245 0.04792 0.57652 0.0
C2302 C 0.23628 0.03425 0.57246 0.0
C2303 C 0.21285 0.05283 0.5689 0.0
C2304 C 0.23173 1.00083 0.57247 0.0
C2305 C 0.28784 0.02934 0.58086 0.0
C2306 C 0.25152 0.98124 0.56742 0.0
C2307 C 0.24683 0.94985 0.56759 0.0
C2308 C 0.22205 0.93741 0.57275 0.0
C2309 C 0.20229 0.95721 0.57777 0.0
C2310 C 0.20704 0.98843 0.5776 0.0
H2311 H 0.3029 0.04308 0.58569 0.0
H2312 H 0.27883 0.01019 0.58531 0.0
H2313 H 0.30171 0.01991 0.57472 0.0
H2314 H 0.27044 0.99024 0.56325 0.0
H2315 H 0.26228 0.93538 0.56356 0.0
H2316 H 0.31765 0.97324 0.83584 0.0
H2317 H 0.26255 0.9754 0.83754 0.0
H2318 H 0.25265 0.96047 0.80603 0.0
H2319 H 0.30733 0.95918 0.80414 0.0
H2320 H 0.21865 0.01565 0.82603 0.0
H2321 H 0.20156 0.89216 0.82073 0.0
H2322 H 0.23726 0.90797 0.82469 0.0
H2323 H 0.22579 0.91091 0.81192 0.0
C2324 C 0.30391 0.9707 0.82923 0.0
C2325 C 0.31736 0.96572 0.81986 0.0
C2326 C 0.27233 0.97183 0.83024 0.0
C2327 C 0.25352 0.96774 0.82193 0.0
C2328 C 0.26673 0.96325 0.81257 0.0
H2329 H 0.05883 0.99876 0.81486 0.0
H2330 H 0.11393 0.99722 0.81246 0.0
C2331 C 0.29819 0.96234 0.81153 0.0
C2332 C 0.22003 0.96797 0.82298 0.0
H2333 H 0.15766 0.9225 0.8216 0.0
C2334 C 0.20528 0.99532 0.82507 0.0
C2335 C 0.20267 0.94138 0.82175 0.0
C2336 C 0.21749 0.91132 0.81971 0.0
C2337 C 0.17356 0.99681 0.82587 0.0
C2338 C 0.15617 0.97028 0.82451 0.0
C2339 C 0.17099 0.94287 0.82254 0.0
C2340 C 0.12267 0.97026 0.82559 0.0
C2341 C 0.15885 0.02663 0.82832 0.0
C2342 C 0.10924 0.95496 0.83359 0.0
C2343 C 0.0779 0.95581 0.83497 0.0
C2344 C 0.05918 0.9717 0.8283 0.0
C2345 C 0.07257 0.98616 0.82008 0.0
C2346 C 0.10406 0.98554 0.81876 0.0
H2347 H 0.17558 0.04373 0.83084 0.0
H2348 H 0.14729 0.03549 0.82159 0.0
H2349 H 0.14153 0.02366 0.83423 0.0
H2350 H 0.12311 0.94285 0.83891 0.0
H2351 H 0.06827 0.94416 0.8413 0.0
H2352 H 0.23415 0.21223 0.41752 0.0
H2353 H 0.24221 0.15809 0.41988 0.0
H2354 H 0.27835 0.17497 0.44916 0.0
H2355 H 0.27 0.22946 0.44688 0.0
H2356 H 0.29831 0.12646 0.4247 0.0
H2357 H 0.20853 0.11199 0.45334 0.0
H2358 H 0.20999 0.14444 0.44519 0.0
H2359 H 0.23573 0.14151 0.45547 0.0
C2360 C 0.24365 0.20448 0.4245 0.0
C2361 C 0.25115 0.22518 0.43206 0.0
C2362 C 0.24843 0.17351 0.4258 0.0
C2363 C 0.26054 0.16245 0.43473 0.0
C2364 C 0.26864 0.18301 0.44225 0.0
H2365 H 0.28542 0.97862 0.45622 0.0
H2366 H 0.2827 0.03322 0.45437 0.0
C2367 C 0.26409 0.21413 0.44091 0.0
C2368 C 0.26434 0.12934 0.43612 0.0
H2369 H 0.23674 0.06882 0.44904 0.0
C2370 C 0.28493 0.11382 0.43004 0.0
C2371 C 0.24687 0.11293 0.44309 0.0
C2372 C 0.22385 0.12839 0.44962 0.0
C2373 C 0.28874 0.08234 0.43079 0.0
C2374 C 0.27083 0.06577 0.43762 0.0
C2375 C 0.25041 0.08142 0.44377 0.0
C2376 C 0.27299 0.03226 0.43859 0.0
C2377 C 0.31239 0.06729 0.42438 0.0
C2378 C 0.26811 0.01326 0.43036 0.0
C2379 C 0.27012 0.98179 0.43136 0.0
C2380 C 0.27667 0.96851 0.44065 0.0
C2381 C 0.28095 0.98772 0.4489 0.0
C2382 C 0.27915 0.01912 0.44788 0.0
H2383 H 0.32991 0.08363 0.4219 0.0
H2384 H 0.3237 0.04856 0.42843 0.0
H2385 H 0.30142 0.05785 0.41764 0.0
H2386 H 0.26256 0.02274 0.42316 0.0
H2387 H 0.26677 0.96801 0.42481 0.0
H2388 H 0.03707 0.0261 0.6939 0.0
H2389 H 0.09201 0.02473 0.69646 0.0
H2390 H 0.10444 0.99581 0.6661 0.0
H2391 H 0.04998 0.99674 0.66352 0.0
H2392 H 0.13426 0.97613 0.69399 0.0
H2393 H 0.15891 0.07086 0.66814 0.0
H2394 H 0.12141 0.06336 0.67284 0.0
H2395 H 0.13655 0.0411 0.66282 0.0
C2396 C 0.05145 0.01927 0.68779 0.0
C2397 C 0.0389 0.01199 0.67845 0.0
C2398 C 0.08289 0.01859 0.68925 0.0
C2399 C 0.10243 0.01076 0.68141 0.0
C2400 C 0.08993 1.00268 0.67219 0.0
H2401 H 0.29877 0.00371 0.67374 0.0
H2402 H 0.24393 0.99896 0.67154 0.0
C2403 C 0.05864 0.00331 0.67073 0.0
C2404 C 0.13586 0.01088 0.6828 0.0
H2405 H 0.20102 0.04337 0.67422 0.0
C2406 C 0.14886 0.99093 0.68971 0.0
C2407 C 0.15496 0.03005 0.67716 0.0
C2408 C 0.14232 0.05276 0.66988 0.0
C2409 C 0.18042 0.98929 0.69101 0.0
C2410 C 0.19952 0.00857 0.6854 0.0
C2411 C 0.18647 0.02847 0.67848 0.0
C2412 C 0.23296 0.00939 0.68686 0.0
C2413 C 0.19302 0.96643 0.69824 0.0
C2414 C 0.24516 0.01677 0.69619 0.0
C2415 C 0.27644 0.01932 0.69748 0.0
C2416 C 0.29643 0.01486 0.68944 0.0
C2417 C 0.28419 0.00702 0.68012 0.0
C2418 C 0.25279 0.00448 0.67884 0.0
H2419 H 0.17685 0.94765 0.69957 0.0
H2420 H 0.21465 0.9568 0.6955 0.0
H2421 H 0.19735 0.97766 0.70549 0.0
H2422 H 0.23044 0.02124 0.70246 0.0
H2423 H 0.28493 0.02502 0.70479 0.0
H2424 H 0.18116 0.80443 0.93608 0.0
H2425 H 0.18252 0.8596 0.93548 0.0
H2426 H 0.27992 0.85704 0.93394 0.0
H2427 H 0.27847 0.80166 0.93423 0.0
H2428 H 0.20436 0.89743 0.9482 0.0
H2429 H 0.26404 0.91758 0.91262 0.0
H2430 H 0.25003 0.8808 0.91611 0.0
H2431 H 0.28557 0.89428 0.92092 0.0
C2432 C 0.20285 0.81562 0.93553 0.0
C2433 C 0.2297 0.79861 0.93519 0.0
C2434 C 0.20364 0.84723 0.93517 0.0
C2435 C 0.2313 0.86279 0.93453 0.0
C2436 C 0.2582 0.8458 0.93414 0.0
H2437 H 0.2507 0.04845 0.95481 0.0
H2438 H 0.25212 0.99373 0.95256 0.0
C2439 C 0.25738 0.81407 0.93435 0.0
C2440 C 0.23179 0.89663 0.93495 0.0
H2441 H 0.25897 0.96018 0.92345 0.0
C2442 C 0.21619 0.91106 0.94273 0.0
C2443 C 0.2468 0.91473 0.92777 0.0
C2444 C 0.26228 0.90108 0.91883 0.0
C2445 C 0.2155 0.94271 0.94362 0.0
C2446 C 0.23174 0.96076 0.93673 0.0
C2447 C 0.24687 0.94646 0.92883 0.0
C2448 C 0.23324 0.99442 0.9377 0.0
C2449 C 0.19676 0.95644 0.95186 0.0
C2450 C 0.22375 0.01344 0.9299 0.0
C2451 C 0.22334 0.04499 0.93113 0.0
C2452 C 0.23229 0.05812 0.94021 0.0
C2453 C 0.24296 0.03906 0.94782 0.0
C2454 C 0.2437 0.00769 0.94655 0.0
H2455 H 0.17864 0.94079 0.95436 0.0
H2456 H 0.21151 0.96114 0.95836 0.0
H2457 H 0.18612 0.97795 0.94945 0.0
H2458 H 0.21581 0.00385 0.92296 0.0
H2459 H 0.215 0.05903 0.92513 0.0
H2460 H 0.17887 1.00267 0.1751 0.0
H2461 H 0.23396 0.00433 0.17314 0.0
H2462 H 0.24434 0.94682 0.19879 0.0
H2463 H 0.18971 0.94427 0.20068 0.0
H2464 H 0.28148 1.00188 0.19859 0.0
H2465 H 0.2913 0.93318 0.16402 0.0
H2466 H 0.26423 0.96357 0.16406 0.0
H2467 H 0.25839 0.93149 0.17198 0.0
C2468 C 0.19274 0.99002 0.18026 0.0
C2469 C 0.17944 0.97344 0.18809 0.0
C2470 C 0.22433 0.99108 0.17914 0.0
C2471 C 0.24332 0.97564 0.18581 0.0
C2472 C 0.23019 0.95903 0.19357 0.0
H2473 H 0.4303 0.922 0.18751 0.0
H2474 H 0.37515 0.92618 0.18685 0.0
C2475 C 0.19875 0.95777 0.19467 0.0
C2476 C 0.27691 0.97701 0.18491 0.0
H2477 H 0.33656 0.95166 0.171 0.0
C2478 C 0.29353 0.99117 0.19251 0.0
C2479 C 0.29262 0.96279 0.17702 0.0
C2480 C 0.2759 0.94669 0.16881 0.0
C2481 C 0.32537 0.99125 0.19247 0.0
C2482 C 0.3411 0.97683 0.18462 0.0
C2483 C 0.32449 0.96287 0.17698 0.0
C2484 C 0.37475 0.97453 0.18456 0.0
C2485 C 0.34201 0.00593 0.201 0.0
C2486 C 0.393 1.00027 0.18336 0.0
C2487 C 0.42465 0.99794 0.18372 0.0
C2488 C 0.43871 0.96982 0.18536 0.0
C2489 C 0.4203 0.94405 0.18639 0.0
C2490 C 0.38873 0.94637 0.18594 0.0
H2491 H 0.32667 0.01174 0.20726 0.0
H2492 H 0.3601 0.99077 0.20381 0.0
H2493 H 0.35289 0.02704 0.19834 0.0
H2494 H 0.38275 0.02222 0.18221 0.0
H2495 H 0.43807 0.01826 0.18296 0.0
H2496 H 0.73707 0.9672 0.92569 0.0
H2497 H 0.73299 0.02232 0.92432 0.0
H2498 H 0.77801 0.03225 0.95259 0.0
H2499 H 0.78193 0.97738 0.95406 0.0
H2500 H 0.70781 0.06858 0.93761 0.0
H2501 H 0.832 0.07836 0.93226 0.0
H2502 H 0.81208 0.04297 0.93101 0.0
H2503 H 0.82065 0.05769 0.94315 0.0
C2504 C 0.74563 0.98108 0.93169 0.0
C2505 C 0.76022 0.96787 0.93993 0.0
C2506 C 0.74335 0.01258 0.93088 0.0
C2507 C 0.75564 0.03133 0.93828 0.0
C2508 C 0.76887 0.01818 0.94671 0.0
H2509 H 0.74377 0.227 0.94611 0.0
H2510 H 0.73717 0.17219 0.94779 0.0
C2511 C 0.77119 0.98681 0.94752 0.0
C2512 C 0.75626 0.0646 0.93696 0.0
H2513 H 0.80477 0.12396 0.93412 0.0
C2514 C 0.72895 0.08076 0.93683 0.0
C2515 C 0.78389 0.08033 0.93583 0.0
C2516 C 0.81385 0.06401 0.93548 0.0
C2517 C 0.72861 0.11239 0.93575 0.0
C2518 C 0.75632 0.12817 0.93487 0.0
C2519 C 0.78355 0.11188 0.93488 0.0
C2520 C 0.75787 0.16148 0.93362 0.0
C2521 C 0.69864 0.12861 0.93538 0.0
C2522 C 0.7718 0.17365 0.92514 0.0
C2523 C 0.77571 0.20481 0.92419 0.0
C2524 C 0.76589 0.22459 0.93173 0.0
C2525 C 0.7513 0.21242 0.94013 0.0
C2526 C 0.74746 0.18111 0.94109 0.0
H2527 H 0.67968 0.11288 0.93378 0.0
H2528 H 0.69429 0.13941 0.94269 0.0
H2529 H 0.69888 0.14661 0.92961 0.0
H2530 H 0.77998 0.15895 0.91928 0.0
H2531 H 0.78654 0.2134 0.91755 0.0
H2532 H 0.78628 0.95811 0.70227 0.0
H2533 H 0.73178 0.9574 0.6995 0.0
H2534 H 0.7418 0.02225 0.67579 0.0
H2535 H 0.79643 0.0235 0.67859 0.0
H2536 H 0.69014 0.00559 0.70051 0.0
H2537 H 0.6921 0.95428 0.66282 0.0
H2538 H 0.72444 0.95362 0.67102 0.0
H2539 H 0.71535 0.9873 0.66417 0.0
C2540 C 0.77704 0.97243 0.6965 0.0
C2541 C 0.79605 0.99087 0.69066 0.0
C2542 C 0.74577 0.97186 0.69489 0.0
C2543 C 0.73266 0.98948 0.68736 0.0
C2544 C 0.75143 0.00798 0.68152 0.0
H2545 H 0.55251 0.02271 0.66528 0.0
H2546 H 0.60649 0.02019 0.66866 0.0
C2547 C 0.78276 0.00864 0.68313 0.0
C2548 C 0.6993 0.98889 0.68577 0.0
H2549 H 0.64481 0.97251 0.66855 0.0
C2550 C 0.68019 0.9982 0.69355 0.0
C2551 C 0.68631 0.97919 0.67669 0.0
C2552 C 0.70553 0.96776 0.66821 0.0
C2553 C 0.64854 0.99894 0.69239 0.0
C2554 C 0.63553 0.98943 0.68327 0.0
C2555 C 0.65469 0.97978 0.67555 0.0
C2556 C 0.60228 0.99057 0.68139 0.0
C2557 C 0.62944 0.01087 0.70082 0.0
C2558 C 0.58164 0.97455 0.68737 0.0
C2559 C 0.55044 0.97592 0.68544 0.0
C2560 C 0.53928 0.99302 0.6774 0.0
C2561 C 0.56012 0.00882 0.67142 0.0
C2562 C 0.59114 0.00756 0.67338 0.0
H2563 H 0.64304 0.0243 0.70619 0.0
H2564 H 0.61076 0.02524 0.69798 0.0
H2565 H 0.61936 0.99159 0.70493 0.0
H2566 H 0.58965 0.96072 0.69348 0.0
H2567 H 0.53511 0.96328 0.69014 0.0
H2568 H 0.74657 0.05967 0.42965 0.0
H2569 H 0.73886 0.00508 0.42806 0.0
H2570 H 0.82035 0.98898 0.44487 0.0
H2571 H 0.82783 0.04344 0.44663 0.0
H2572 H 0.77192 0.96114 0.41968 0.0
H2573 H 0.76184 0.93735 0.46007 0.0
H2574 H 0.76151 0.97526 0.45514 0.0
H2575 H 0.79673 0.95554 0.45685 0.0
C2576 C 0.76292 0.04451 0.43297 0.0
C2577 C 0.78769 0.05598 0.43835 0.0
C2578 C 0.75843 0.01326 0.43209 0.0
C2579 C 0.77863 0.99276 0.43654 0.0
C2580 C 0.80388 0.0042 0.44164 0.0
H2581 H 0.78829 0.79449 0.43429 0.0
H2582 H 0.80035 0.84816 0.43645 0.0
C2583 C 0.80821 0.0354 0.44261 0.0
C2584 C 0.77347 0.95951 0.4357 0.0
H2585 H 0.7647 0.89472 0.44936 0.0
C2586 C 0.77028 0.9467 0.42618 0.0
C2587 C 0.77128 0.94048 0.44418 0.0
C2588 C 0.77271 0.95286 0.45464 0.0
C2589 C 0.76516 0.91557 0.42492 0.0
C2590 C 0.76311 0.89665 0.43337 0.0
C2591 C 0.76656 0.90926 0.44288 0.0
C2592 C 0.75573 0.864 0.43246 0.0
C2593 C 0.76199 0.90298 0.41454 0.0
C2594 C 0.7265 0.85509 0.42973 0.0
C2595 C 0.71939 0.8245 0.42862 0.0
C2596 C 0.74143 0.80192 0.43013 0.0
C2597 C 0.77063 0.81099 0.4331 0.0
C2598 C 0.77765 0.84173 0.43429 0.0
H2599 H 0.76942 0.91938 0.40877 0.0
H2600 H 0.77541 0.8819 0.41374 0.0
H2601 H 0.73793 0.89728 0.41314 0.0
H2602 H 0.70912 0.87189 0.42843 0.0
H2603 H 0.69648 0.81867 0.42657 0.0
H2604 H 0.93614 0.98681 0.18968 0.0
H2605 H 0.88069 0.98877 0.19121 0.0
H2606 H 0.87391 0.0159 0.16047 0.0
H2607 H 0.92886 0.01377 0.1589 0.0
H2608 H 0.83707 0.03394 0.18806 0.0
H2609 H 0.82113 0.94069 0.16114 0.0
H2610 H 0.85748 0.9495 0.16652 0.0
H2611 H 0.84337 0.97097 0.15612 0.0
C2612 C 0.9228 0.99359 0.1833 0.0
C2613 C 0.93692 0.99975 0.17413 0.0
C2614 C 0.8911 0.99455 0.18417 0.0
C2615 C 0.87298 1.00168 0.17587 0.0
C2616 C 0.88723 0.00943 0.16689 0.0
H2617 H 0.68769 0.02763 0.15904 0.0
H2618 H 0.74254 0.02297 0.16064 0.0
C2619 C 0.91871 0.00831 0.16601 0.0
C2620 C 0.83924 1.00061 0.17643 0.0
H2621 H 0.77724 0.96997 0.165 0.0
C2622 C 0.82398 0.01967 0.18312 0.0
C2623 C 0.82203 0.98183 0.17002 0.0
C2624 C 0.83682 0.95936 0.16312 0.0
C2625 C 0.79212 0.0215 0.18323 0.0
C2626 C 0.77504 0.00358 0.17654 0.0
C2627 C 0.79029 0.98387 0.17008 0.0
C2628 C 0.74146 0.00604 0.17574 0.0
C2629 C 0.77699 0.04347 0.19021 0.0
C2630 C 0.72238 0.99758 0.18363 0.0
C2631 C 0.69083 1.00016 0.18273 0.0
C2632 C 0.67771 0.01136 0.17391 0.0
C2633 C 0.69694 0.01933 0.16598 0.0
C2634 C 0.72836 0.01655 0.16687 0.0
H2635 H 0.79339 0.05948 0.19359 0.0
H2636 H 0.7593 0.05659 0.18625 0.0
H2637 H 0.76583 0.03074 0.19631 0.0
H2638 H 0.73188 0.98896 0.1905 0.0
H2639 H 0.67675 0.994 0.189 0.0
H2640 H 0.71806 0.79371 0.56555 0.0
H2641 H 0.71548 0.84837 0.56305 0.0
H2642 H 0.78261 0.86136 0.5859 0.0
H2643 H 0.7863 0.80693 0.58819 0.0
H2644 H 0.69983 0.89357 0.57605 0.0
H2645 H 0.81787 0.91049 0.56333 0.0
H2646 H 0.80079 0.87356 0.56419 0.0
H2647 H 0.81526 0.89184 0.57516 0.0
C2648 C 0.73261 0.80806 0.56997 0.0
C2649 C 0.75251 0.79557 0.57705 0.0
C2650 C 0.73095 0.83942 0.56856 0.0
C2651 C 0.74922 0.85906 0.57416 0.0
C2652 C 0.76875 0.84674 0.58133 0.0
H2653 H 0.76858 0.05564 0.57724 0.0
H2654 H 0.77072 1.0011 0.58048 0.0
C2655 C 0.77051 0.81544 0.58272 0.0
C2656 C 0.7474 0.89241 0.57268 0.0
H2657 H 0.7896 0.95484 0.56694 0.0
C2658 C 0.71944 0.90692 0.57401 0.0
C2659 C 0.773 0.90995 0.57004 0.0
C2660 C 0.80336 0.89567 0.568 0.0
C2661 C 0.71647 0.93841 0.57292 0.0
C2662 C 0.74206 0.9559 0.57031 0.0
C2663 C 0.77004 0.94145 0.56901 0.0
C2664 C 0.74007 0.98908 0.56857 0.0
C2665 C 0.68604 0.95278 0.57474 0.0
C2666 C 0.72229 1.00047 0.56077 0.0
C2667 C 0.72104 0.03155 0.55891 0.0
C2668 C 0.73758 0.05205 0.56479 0.0
C2669 C 0.75529 0.04058 0.57264 0.0
C2670 C 0.75667 0.00939 0.57446 0.0
H2671 H 0.67093 0.93779 0.57914 0.0
H2672 H 0.6885 0.9746 0.57874 0.0
H2673 H 0.67494 0.95732 0.56749 0.0
H2674 H 0.70964 0.98525 0.55603 0.0
H2675 H 0.70694 0.03951 0.55287 0.0
H2676 H 0.69042 0.02028 0.32674 0.0
H2677 H 0.74505 0.02733 0.32481 0.0
H2678 H 0.75847 0.93121 0.32742 0.0
H2679 H 0.70405 0.92387 0.32903 0.0
H2680 H 0.79111 0.01262 0.33785 0.0
H2681 H 0.80644 0.95024 0.3024 0.0
H2682 H 0.7697 0.96152 0.30693 0.0
H2683 H 0.78807 0.92863 0.31196 0.0
C2684 C 0.70489 1.00058 0.32677 0.0
C2685 C 0.69258 0.97148 0.32802 0.0
C2686 C 0.73621 0.00467 0.32572 0.0
C2687 C 0.75596 0.97976 0.3258 0.0
C2688 C 0.74377 0.95075 0.32712 0.0
H2689 H 0.95412 0.96305 0.32408 0.0
H2690 H 0.89951 0.9525 0.32464 0.0
C2691 C 0.71253 0.94664 0.32818 0.0
C2692 C 0.78934 0.9842 0.32487 0.0
H2693 H 0.85123 0.9649 0.31091 0.0
C2694 C 0.80419 1.00229 0.33193 0.0
C2695 C 0.80658 0.97056 0.31718 0.0
C2696 C 0.7919 0.95187 0.30913 0.0
C2697 C 0.83566 0.00686 0.33158 0.0
C2698 C 0.85287 0.99343 0.32386 0.0
C2699 C 0.83811 0.97513 0.31684 0.0
C2700 C 0.88598 0.99916 0.3228 0.0
C2701 C 0.85031 0.02569 0.33961 0.0
C2702 C 0.89657 0.02864 0.32122 0.0
C2703 C 0.92758 0.03466 0.32086 0.0
C2704 C 0.94895 0.01133 0.32204 0.0
C2705 C 0.93835 0.98152 0.32314 0.0
C2706 C 0.90713 0.9755 0.3235 0.0
H2707 H 0.83582 0.02732 0.34635 0.0
H2708 H 0.87256 0.01616 0.3418 0.0
H2709 H 0.85404 0.04892 0.33675 0.0
H2710 H 0.88077 0.04717 0.32038 0.0
H2711 H 0.93485 0.05776 0.31976 0.0
H2712 H 0.74046 0.95269 0.08102 0.0
H2713 H 0.73531 0.0075 0.08337 0.0
H2714 H 0.78831 0.02303 0.05693 0.0
H2715 H 0.79387 0.96874 0.0546 0.0
H2716 H 0.78052 0.05459 0.08513 0.0
H2717 H 0.7085 0.06903 0.05162 0.0
H2718 H 0.71527 0.03263 0.05726 0.0
H2719 H 0.74347 0.04952 0.0494 0.0
C2720 C 0.75125 0.96777 0.07576 0.0
C2721 C 0.76717 0.95616 0.06753 0.0
C2722 C 0.74822 0.99909 0.0771 0.0
C2723 C 0.76096 0.01936 0.07022 0.0
C2724 C 0.77771 0.00785 0.06221 0.0
H2725 H 0.78568 0.21531 0.07529 0.0
H2726 H 0.79369 0.16065 0.07366 0.0
C2727 C 0.78075 0.97669 0.06088 0.0
C2728 C 0.75643 0.05253 0.07123 0.0
H2729 H 0.72608 0.11379 0.05938 0.0
C2730 C 0.76856 0.06756 0.07953 0.0
C2731 C 0.74059 0.06939 0.06395 0.0
C2732 C 0.72595 0.05436 0.05509 0.0
C2733 C 0.76566 0.09906 0.08065 0.0
C2734 C 0.7505 0.11602 0.07322 0.0
C2735 C 0.738 0.10087 0.06501 0.0
C2736 C 0.7461 0.14929 0.07402 0.0
C2737 C 0.77835 0.11389 0.08985 0.0
C2738 C 0.71674 0.16119 0.07445 0.0
C2739 C 0.71212 0.19233 0.07529 0.0
C2740 C 0.73677 0.21243 0.07567 0.0
C2741 C 0.76621 0.20054 0.07499 0.0
C2742 C 0.77082 0.16925 0.07418 0.0
H2743 H 0.78308 0.09717 0.09583 0.0
H2744 H 0.79988 0.12536 0.08794 0.0
H2745 H 0.76247 0.13116 0.09279 0.0
H2746 H 0.6973 0.1463 0.07425 0.0
H2747 H 0.68915 0.20066 0.07562 0.0
H2748 H 0.81739 0.96305 0.82531 0.0
H2749 H 0.7624 0.96006 0.82743 0.0
H2750 H 0.75277 0.04738 0.81352 0.0
H2751 H 0.80748 0.04995 0.81113 0.0
H2752 H 0.72346 0.99222 0.83743 0.0
H2753 H 0.69227 1.00139 0.79772 0.0
H2754 H 0.73079 0.99579 0.80171 0.0
H2755 H 0.71446 0.03311 0.80163 0.0
C2756 C 0.80351 0.98158 0.82271 0.0
C2757 C 0.81679 0.00661 0.81796 0.0
C2758 C 0.77203 0.97983 0.82389 0.0
C2759 C 0.75315 1.00315 0.82041 0.0
C2760 C 0.76655 0.02856 0.81594 0.0
H2761 H 0.56986 0.03518 0.84151 0.0
H2762 H 0.62431 0.03545 0.83833 0.0
C2763 C 0.79792 0.03011 0.81463 0.0
C2764 C 0.71961 1.00138 0.82174 0.0
H2765 H 0.65225 0.00916 0.80946 0.0
C2766 C 0.70794 0.99571 0.83129 0.0
C2767 C 0.69912 0.00528 0.81371 0.0
C2768 C 0.7098 0.00889 0.80311 0.0
C2769 C 0.67661 0.99462 0.83308 0.0
C2770 C 0.65615 1.00042 0.82518 0.0
C2771 C 0.66779 0.00524 0.81558 0.0
C2772 C 0.62268 1.00152 0.82672 0.0
C2773 C 0.66588 0.98663 0.84342 0.0
C2774 C 0.60316 0.98368 0.8209 0.0
C2775 C 0.57183 0.98405 0.82257 0.0
C2776 C 0.5594 1.00213 0.83014 0.0
C2777 C 0.57884 0.02065 0.83574 0.0
C2778 C 0.61003 0.02062 0.83397 0.0
H2779 H 0.68316 0.97334 0.84754 0.0
H2780 H 0.66176 0.00771 0.84768 0.0
H2781 H 0.64459 0.97338 0.8432 0.0
H2782 H 0.61222 0.96891 0.81521 0.0
H2783 H 0.55746 0.96939 0.81818 0.0
H2784 H 0.73856 0.29332 0.55915 0.0
H2785 H 0.74021 0.3481 0.55628 0.0
H2786 H 0.75511 0.36284 0.58762 0.0
H2787 H 0.75404 0.30835 0.5905 0.0
H2788 H 0.70109 0.39172 0.56504 0.0
H2789 H 0.82091 0.41494 0.57456 0.0
H2790 H 0.80723 0.37742 0.5718 0.0
H2791 H 0.8007 0.39386 0.58385 0.0
C2792 C 0.74278 0.3082 0.56539 0.0
C2793 C 0.74617 0.29641 0.57506 0.0
C2794 C 0.7435 0.33952 0.56375 0.0
C2795 C 0.74807 0.35961 0.57172 0.0
C2796 C 0.75201 0.34784 0.58133 0.0
H2797 H 0.75308 0.55562 0.57888 0.0
H2798 H 0.75255 0.50085 0.5815 0.0
C2799 C 0.75111 0.31664 0.58298 0.0
C2800 C 0.74721 0.39292 0.57012 0.0
H2801 H 0.78872 0.45759 0.5728 0.0
C2802 C 0.72031 0.40611 0.56666 0.0
C2803 C 0.7722 0.41174 0.57233 0.0
C2804 C 0.802 0.39882 0.57576 0.0
C2805 C 0.71753 0.4376 0.56553 0.0
C2806 C 0.74256 0.45645 0.56771 0.0
C2807 C 0.76948 0.44322 0.57116 0.0
C2808 C 0.74157 0.48984 0.56623 0.0
C2809 C 0.68751 0.45041 0.56227 0.0
C2810 C 0.7356 0.50201 0.55678 0.0
C2811 C 0.73562 0.53329 0.55528 0.0
C2812 C 0.74194 0.5533 0.56316 0.0
C2813 C 0.74774 0.54106 0.57265 0.0
C2814 C 0.74768 0.50968 0.57415 0.0
H2815 H 0.66865 0.43448 0.5638 0.0
H2816 H 0.68265 0.47215 0.56607 0.0
H2817 H 0.68809 0.45456 0.55412 0.0
H2818 H 0.73139 0.48727 0.5505 0.0
H2819 H 0.73075 0.54175 0.5479 0.0
H2820 H 0.72908 0.46999 0.80129 0.0
H2821 H 0.78389 0.47038 0.80338 0.0
H2822 H 0.77338 0.50192 0.83353 0.0
H2823 H 0.71821 0.50123 0.83155 0.0
H2824 H 0.8219 0.53117 0.82185 0.0
H2825 H 0.82677 0.40576 0.82104 0.0
H2826 H 0.80707 0.42287 0.81078 0.0
H2827 H 0.79206 0.42623 0.82316 0.0
C2828 C 0.7383 0.47695 0.80839 0.0
C2829 C 0.71906 0.48511 0.8163 0.0
C2830 C 0.76971 0.47727 0.80955 0.0
C2831 C 0.78274 0.48574 0.81865 0.0
C2832 C 0.76379 0.49523 0.82644 0.0
H2833 H 0.96184 0.43949 0.83931 0.0
H2834 H 0.9079 0.44855 0.8372 0.0
C2835 C 0.73224 0.49489 0.82529 0.0
C2836 C 0.816 0.4832 0.82012 0.0
H2837 H 0.87347 0.43167 0.82092 0.0
C2838 C 0.83323 0.50945 0.82166 0.0
C2839 C 0.8307 0.45481 0.81996 0.0
C2840 C 0.81326 0.42573 0.81873 0.0
C2841 C 0.86485 0.50804 0.82292 0.0
C2842 C 0.87959 0.47966 0.82255 0.0
C2843 C 0.86224 0.45345 0.82112 0.0
C2844 C 0.91281 0.47623 0.82404 0.0
C2845 C 0.88215 0.53682 0.82482 0.0
C2846 C 0.93376 0.48889 0.81735 0.0
C2847 C 0.96489 0.48356 0.8185 0.0
C2848 C 0.97561 0.46525 0.82632 0.0
C2849 C 0.9545 0.45318 0.83309 0.0
C2850 C 0.92356 0.45851 0.83194 0.0
H2851 H 0.86698 0.55561 0.82708 0.0
H2852 H 0.89942 0.53339 0.83071 0.0
H2853 H 0.89403 0.54365 0.8179 0.0
H2854 H 0.92601 0.50222 0.81109 0.0
H2855 H 0.98043 0.49299 0.81311 0.0
H2856 H 0.78149 0.70511 0.09768 0.0
H2857 H 0.77744 0.65031 0.09596 0.0
H2858 H 0.7621 0.66033 0.06444 0.0
H2859 H 0.76617 0.71534 0.0661 0.0
H2860 H 0.72445 0.61635 0.07348 0.0
H2861 H 0.84496 0.59937 0.08353 0.0
H2862 H 0.82372 0.62027 0.0926 0.0
H2863 H 0.8297 0.63598 0.08042 0.0
C2864 C 0.77731 0.69572 0.09037 0.0
C2865 C 0.77454 0.71471 0.08201 0.0
C2866 C 0.77497 0.66434 0.0894 0.0
C2867 C 0.77005 0.65113 0.08004 0.0
C2868 C 0.76603 0.67 0.07174 0.0
H2869 H 0.81228 0.4661 0.06443 0.0
H2870 H 0.80795 0.52093 0.06556 0.0
C2871 C 0.76827 0.70149 0.0727 0.0
C2872 C 0.77023 0.61766 0.0789 0.0
H2873 H 0.81484 0.55538 0.08211 0.0
C2874 C 0.74421 0.60299 0.07535 0.0
C2875 C 0.79615 0.60025 0.08122 0.0
C2876 C 0.82533 0.61472 0.08457 0.0
C2877 C 0.7433 0.57135 0.07418 0.0
C2878 C 0.76897 0.5539 0.07676 0.0
C2879 C 0.79506 0.56867 0.08021 0.0
C2880 C 0.76988 0.52039 0.07567 0.0
C2881 C 0.7151 0.55698 0.07001 0.0
C2882 C 0.74983 0.50163 0.08094 0.0
C2883 C 0.7523 0.47006 0.08032 0.0
C2884 C 0.7751 0.45664 0.07449 0.0
C2885 C 0.79479 0.47557 0.06912 0.0
C2886 C 0.79224 0.507 0.06971 0.0
H2887 H 0.70069 0.57372 0.06607 0.0
H2888 H 0.72085 0.53847 0.06476 0.0
H2889 H 0.70166 0.54723 0.0762 0.0
H2890 H 0.73278 0.51136 0.08576 0.0
H2891 H 0.737 0.45621 0.08464 0.0
H2892 H 0.82538 0.51978 0.33359 0.0
H2893 H 0.77105 0.52154 0.33707 0.0
H2894 H 0.75414 0.46368 0.31187 0.0
H2895 H 0.80815 0.46076 0.3086 0.0
H2896 H 0.72557 0.54306 0.32546 0.0
H2897 H 0.7049 0.4218 0.33297 0.0
H2898 H 0.74247 0.43763 0.33245 0.0
H2899 H 0.7227 0.42816 0.32116 0.0
C2900 C 0.81021 0.50698 0.32889 0.0
C2901 C 0.82143 0.49012 0.3208 0.0
C2902 C 0.77906 0.50817 0.33085 0.0
C2903 C 0.7584 0.49236 0.32484 0.0
C2904 C 0.76953 0.47554 0.31678 0.0
H2905 H 0.56159 0.48771 0.31935 0.0
H2906 H 0.61621 0.48027 0.31725 0.0
C2907 C 0.80058 0.47427 0.31482 0.0
C2908 C 0.72516 0.49456 0.32667 0.0
H2909 H 0.66117 0.4525 0.33042 0.0
C2910 C 0.71157 0.52326 0.32663 0.0
C2911 C 0.70673 0.46873 0.32815 0.0
C2912 C 0.71996 0.43737 0.32879 0.0
C2913 C 0.68017 0.52678 0.32784 0.0
C2914 C 0.66175 0.50096 0.32924 0.0
C2915 C 0.67526 0.47226 0.32929 0.0
C2916 C 0.62851 0.50351 0.33082 0.0
C2917 C 0.66682 0.55813 0.32739 0.0
C2918 C 0.61719 0.51819 0.33929 0.0
C2919 C 0.58606 0.52225 0.34055 0.0
C2920 C 0.56537 0.51174 0.33337 0.0
C2921 C 0.57673 0.49596 0.32506 0.0
C2922 C 0.60799 0.49183 0.32382 0.0
H2923 H 0.68269 0.57462 0.32399 0.0
H2924 H 0.64542 0.55818 0.32307 0.0
H2925 H 0.66163 0.56588 0.33506 0.0
H2926 H 0.63252 0.52681 0.3449 0.0
H2927 H 0.57823 0.53389 0.34715 0.0
H2928 H 0.69695 0.47917 0.94658 0.0
H2929 H 0.70291 0.53383 0.94512 0.0
H2930 H 0.78212 0.52103 0.92691 0.0
H2931 H 0.77614 0.4661 0.92825 0.0
H2932 H 0.78719 0.56819 0.9419 0.0
H2933 H 0.68364 0.57881 0.91877 0.0
H2934 H 0.67833 0.55919 0.93035 0.0
H2935 H 0.70219 0.54307 0.92092 0.0
C2936 C 0.7156 0.48789 0.94223 0.0
C2937 C 0.7358 0.46815 0.93741 0.0
C2938 C 0.71902 0.51918 0.94143 0.0
C2939 C 0.74265 0.53148 0.93578 0.0
C2940 C 0.76365 0.51197 0.93129 0.0
H2941 H 0.74612 0.71357 0.91209 0.0
H2942 H 0.74851 0.65901 0.91458 0.0
C2943 C 0.76025 0.48057 0.93209 0.0
C2944 C 0.74459 0.56465 0.93424 0.0
H2945 H 0.70619 0.62435 0.92427 0.0
C2946 C 0.76957 0.58052 0.93802 0.0
C2947 C 0.72173 0.5806 0.92908 0.0
C2948 C 0.69506 0.56459 0.92446 0.0
C2949 C 0.77197 0.61206 0.93694 0.0
C2950 C 0.74863 0.6281 0.93202 0.0
C2951 C 0.72395 0.61209 0.92811 0.0
C2952 C 0.7494 0.66143 0.93066 0.0
C2953 C 0.79965 0.62789 0.94091 0.0
C2954 C 0.7492 0.68105 0.93888 0.0
C2955 C 0.7477 0.71241 0.93748 0.0
C2956 C 0.74609 0.72471 0.92783 0.0
C2957 C 0.74682 0.70493 0.91963 0.0
C2958 C 0.74837 0.67369 0.92103 0.0
H2959 H 0.8186 0.61187 0.94219 0.0
H2960 H 0.80734 0.64581 0.9357 0.0
H2961 H 0.79404 0.63871 0.94813 0.0
H2962 H 0.74934 0.67211 0.94638 0.0
H2963 H 0.74681 0.72692 0.94395 0.0
H2964 H 0.77875 0.52104 0.17648 0.0
H2965 H 0.7238 0.52692 0.17507 0.0
H2966 H 0.71094 0.45291 0.19551 0.0
H2967 H 0.76558 0.44705 0.19701 0.0
H2968 H 0.6773 0.44703 0.17828 0.0
H2969 H 0.66152 0.56091 0.19483 0.0
H2970 H 0.68902 0.55899 0.185 0.0
H2971 H 0.69577 0.53924 0.19648 0.0
C2972 C 0.76426 0.50635 0.18081 0.0
C2973 C 0.77672 0.48344 0.18682 0.0
C2974 C 0.7328 0.50976 0.18 0.0
C2975 C 0.71319 0.4905 0.18525 0.0
C2976 C 0.72558 0.46801 0.19138 0.0
H2977 H 0.51839 0.4969 0.19428 0.0
H2978 H 0.57342 0.49955 0.19607 0.0
C2979 C 0.75691 0.46459 0.19218 0.0
C2980 C 0.67979 0.49242 0.18397 0.0
H2981 H 0.61843 0.53838 0.18734 0.0
C2982 C 0.66445 0.46702 0.18026 0.0
C2983 C 0.66297 0.51839 0.18665 0.0
C2984 C 0.67803 0.54588 0.19105 0.0
C2985 C 0.63289 0.46692 0.17909 0.0
C2986 C 0.61611 0.49309 0.18156 0.0
C2987 C 0.63135 0.51843 0.18536 0.0
C2988 C 0.58267 0.49418 0.18036 0.0
C2989 C 0.61769 0.43852 0.1754 0.0
C2990 C 0.56952 0.49115 0.17091 0.0
C2991 C 0.53808 0.48973 0.16985 0.0
C2992 C 0.519 0.49143 0.17822 0.0
C2993 C 0.53225 0.49571 0.18766 0.0
C2994 C 0.56377 0.49712 0.1887 0.0
H2995 H 0.63263 0.41845 0.17611 0.0
H2996 H 0.59645 0.43413 0.17957 0.0
H2997 H 0.61188 0.44128 0.16741 0.0
H2998 H 0.58363 0.48945 0.16434 0.0
H2999 H 0.52873 0.48708 0.16246 0.0
H3000 H 0.77567 0.29744 0.44166 0.0
H3001 H 0.77096 0.35236 0.44401 0.0
H3002 H 0.7326 0.36074 0.41464 0.0
H3003 H 0.73737 0.30607 0.41226 0.0
H3004 H 0.80017 0.3955 0.4295 0.0
H3005 H 0.67624 0.41255 0.43372 0.0
H3006 H 0.69456 0.37715 0.43669 0.0
H3007 H 0.68853 0.3876 0.42394 0.0
C3008 C 0.76559 0.31094 0.43582 0.0
C3009 C 0.75692 0.29749 0.42677 0.0
C3010 C 0.76305 0.34229 0.43714 0.0
C3011 C 0.75123 0.3606 0.42952 0.0
C3012 C 0.74146 0.34704 0.42065 0.0
H3013 H 0.73162 0.55479 0.4194 0.0
H3014 H 0.72648 0.4994 0.41906 0.0
C3015 C 0.74436 0.31584 0.41928 0.0
C3016 C 0.75167 0.39408 0.43042 0.0
H3017 H 0.70632 0.45648 0.43193 0.0
C3018 C 0.77969 0.40886 0.43012 0.0
C3019 C 0.72488 0.41142 0.43103 0.0
C3020 C 0.69426 0.39651 0.43143 0.0
C3021 C 0.78169 0.44054 0.43026 0.0
C3022 C 0.75493 0.45805 0.43108 0.0
C3023 C 0.72684 0.44319 0.43135 0.0
C3024 C 0.75587 0.4917 0.43171 0.0
C3025 C 0.8125 0.45488 0.4292 0.0
C3026 C 0.77312 0.50593 0.43913 0.0
C3027 C 0.77633 0.53733 0.43923 0.0
C3028 C 0.76182 0.5554 0.43207 0.0
C3029 C 0.74304 0.54139 0.425 0.0
C3030 C 0.74018 0.50978 0.4248 0.0
H3031 H 0.82882 0.43933 0.42555 0.0
H3032 H 0.81136 0.47605 0.42477 0.0
H3033 H 0.82149 0.46037 0.43669 0.0
H3034 H 0.78459 0.49267 0.44475 0.0
H3035 H 0.7904 0.54756 0.4449 0.0
H3036 H 0.71834 0.5014 0.70184 0.0
H3037 H 0.77288 0.4993 0.69906 0.0
H3038 H 0.75795 0.49558 0.66736 0.0
H3039 H 0.70326 0.4979 0.6701 0.0
H3040 H 0.80685 0.45564 0.69049 0.0
H3041 H 0.82008 0.56211 0.66918 0.0
H3042 H 0.78586 0.55295 0.67584 0.0
H3043 H 0.79308 0.53664 0.66381 0.0
C3044 C 0.72659 0.50015 0.69427 0.0
C3045 C 0.70628 0.49987 0.68619 0.0
C3046 C 0.75787 0.49903 0.69269 0.0
C3047 C 0.7697 0.49766 0.683 0.0
C3048 C 0.74951 0.49736 0.6749 0.0
H3049 H 0.95152 0.48193 0.65875 0.0
H3050 H 0.8969 0.48214 0.6615 0.0
C3051 C 0.71817 0.49866 0.67648 0.0
C3052 C 0.80308 0.49563 0.68143 0.0
H3053 H 0.86292 0.52981 0.66987 0.0
C3054 C 0.8191 0.47196 0.68602 0.0
C3055 C 0.8192 0.5169 0.6756 0.0
C3056 C 0.80376 0.54375 0.6709 0.0
C3057 C 0.85056 0.46871 0.6848 0.0
C3058 C 0.8666 0.48988 0.67894 0.0
C3059 C 0.85062 0.51351 0.67434 0.0
C3060 C 0.89996 0.488 0.67744 0.0
C3061 C 0.86629 0.44229 0.68965 0.0
C3062 C 0.92001 0.49103 0.6855 0.0
C3063 C 0.95138 0.49109 0.68395 0.0
C3064 C 0.96341 0.48825 0.67428 0.0
C3065 C 0.94318 0.48454 0.66627 0.0
C3066 C 0.91188 0.48456 0.66783 0.0
H3067 H 0.85008 0.42429 0.69184 0.0
H3068 H 0.88349 0.43241 0.68459 0.0
H3069 H 0.87803 0.45017 0.69648 0.0
H3070 H 0.91138 0.49425 0.69297 0.0
H3071 H 0.96609 0.4945 0.69028 0.0
H3072 H 0.2374 0.72902 0.44395 0.0
H3073 H 0.24204 0.67454 0.44704 0.0
H3074 H 0.26745 0.66063 0.41641 0.0
H3075 H 0.26393 0.71457 0.41333 0.0
H3076 H 0.2125 0.62486 0.43801 0.0
H3077 H 0.33615 0.62001 0.4317 0.0
H3078 H 0.31621 0.65513 0.43359 0.0
H3079 H 0.31604 0.63721 0.42157 0.0
C3080 C 0.2442 0.71441 0.43789 0.0
C3081 C 0.2503 0.72644 0.42839 0.0
C3082 C 0.24665 0.68323 0.43966 0.0
C3083 C 0.25552 0.66354 0.43199 0.0
C3084 C 0.26107 0.6754 0.42249 0.0
H3085 H 0.23962 0.4687 0.42594 0.0
H3086 H 0.23156 0.52346 0.42568 0.0
C3087 C 0.25865 0.70639 0.42072 0.0
C3088 C 0.25912 0.63056 0.43381 0.0
H3089 H 0.31003 0.57287 0.43178 0.0
C3090 C 0.23387 0.61349 0.43674 0.0
C3091 C 0.28711 0.61576 0.43228 0.0
C3092 C 0.3155 0.63299 0.42971 0.0
C3093 C 0.23565 0.5819 0.43788 0.0
C3094 C 0.2633 0.56693 0.43586 0.0
C3095 C 0.28873 0.58419 0.43322 0.0
C3096 C 0.26663 0.53345 0.43644 0.0
C3097 C 0.20798 0.56495 0.44133 0.0
C3098 C 0.28929 0.52071 0.44244 0.0
C3099 C 0.29413 0.48949 0.44251 0.0
C3100 C 0.27643 0.47017 0.43657 0.0
C3101 C 0.25337 0.48287 0.43069 0.0
C3102 C 0.24867 0.51421 0.43057 0.0
H3103 H 0.19201 0.58 0.44534 0.0
H3104 H 0.19599 0.55563 0.43475 0.0
H3105 H 0.21419 0.54588 0.4463 0.0
H3106 H 0.30347 0.53501 0.44703 0.0
H3107 H 0.31178 0.48046 0.44723 0.0
H3108 H 0.0343 0.56252 0.17901 0.0
H3109 H 0.08838 0.55546 0.181 0.0
H3110 H 0.07298 0.46665 0.19318 0.0
H3111 H 0.01858 0.47281 0.19069 0.0
H3112 H 0.12228 0.54712 0.19694 0.0
H3113 H 0.13497 0.44742 0.17228 0.0
H3114 H 0.1006 0.4693 0.17278 0.0
H3115 H 0.10857 0.44159 0.18223 0.0
C3116 C 0.04218 0.5412 0.18196 0.0
C3117 C 0.0217 0.51804 0.18451 0.0
C3118 C 0.07331 0.53732 0.18318 0.0
C3119 C 0.08497 0.51028 0.18704 0.0
C3120 C 0.06468 0.48743 0.18992 0.0
H3121 H 0.2669 0.4612 0.20516 0.0
H3122 H 0.21219 0.46539 0.20281 0.0
C3123 C 0.03341 0.49117 0.18861 0.0
C3124 C 0.11832 0.50656 0.18817 0.0
H3125 H 0.17832 0.46196 0.18159 0.0
C3126 C 0.13448 0.52854 0.19354 0.0
C3127 C 0.13441 0.48241 0.18369 0.0
C3128 C 0.11883 0.45899 0.17734 0.0
C3129 C 0.16604 0.52687 0.19463 0.0
C3130 C 0.18194 0.5026 0.19026 0.0
C3131 C 0.16597 0.48054 0.18493 0.0
C3132 C 0.21517 0.49957 0.19136 0.0
C3133 C 0.18233 0.55087 0.20052 0.0
C3134 C 0.23497 0.51721 0.18561 0.0
C3135 C 0.26634 0.51482 0.18692 0.0
C3136 C 0.2784 0.49495 0.19407 0.0
C3137 C 0.25838 0.47708 0.19971 0.0
C3138 C 0.22712 0.47927 0.19834 0.0
H3139 H 0.16647 0.56689 0.20416 0.0
H3140 H 0.19669 0.5402 0.20633 0.0
H3141 H 0.19747 0.56381 0.1955 0.0
H3142 H 0.22611 0.53298 0.18018 0.0
H3143 H 0.28112 0.52897 0.1825 0.0
H3144 H 0.23559 0.31133 0.91102 0.0
H3145 H 0.24452 0.36532 0.91228 0.0
H3146 H 0.26704 0.35527 0.94333 0.0
H3147 H 0.25664 0.30082 0.94224 0.0
H3148 H 0.23047 0.40381 0.94041 0.0
H3149 H 0.32367 0.40896 0.91311 0.0
H3150 H 0.2906 0.392 0.90781 0.0
H3151 H 0.30972 0.37366 0.918 0.0
C3152 C 0.2423 0.3204 0.91816 0.0
C3153 C 0.2452 0.30142 0.92654 0.0
C3154 C 0.24782 0.35144 0.91884 0.0
C3155 C 0.25699 0.36455 0.92786 0.0
C3156 C 0.26017 0.34576 0.93626 0.0
H3157 H 0.32602 0.5496 0.92817 0.0
H3158 H 0.31967 0.495 0.92966 0.0
C3159 C 0.25447 0.31452 0.9356 0.0
C3160 C 0.26235 0.39792 0.92846 0.0
H3161 H 0.29968 0.45599 0.91701 0.0
C3162 C 0.24584 0.4152 0.93536 0.0
C3163 C 0.28271 0.41295 0.92199 0.0
C3164 C 0.30291 0.39588 0.91489 0.0
C3165 C 0.24847 0.44696 0.93577 0.0
C3166 C 0.26758 0.46211 0.9289 0.0
C3167 C 0.28467 0.44469 0.9222 0.0
C3168 C 0.27083 0.49585 0.92861 0.0
C3169 C 0.2311 0.46381 0.94368 0.0
C3170 C 0.24556 0.51498 0.92754 0.0
C3171 C 0.24919 0.54648 0.9268 0.0
C3172 C 0.27821 0.5595 0.92687 0.0
C3173 C 0.30339 0.54033 0.92795 0.0
C3174 C 0.29975 0.50902 0.92884 0.0
H3175 H 0.22564 0.44896 0.9501 0.0
H3176 H 0.24401 0.48361 0.94644 0.0
H3177 H 0.20943 0.47193 0.94049 0.0
H3178 H 0.22303 0.50557 0.92705 0.0
H3179 H 0.22939 0.56056 0.92585 0.0
H3180 H 0.46475 0.53156 0.69024 0.0
H3181 H 0.41027 0.52738 0.69304 0.0
H3182 H 0.39683 0.50802 0.66191 0.0
H3183 H 0.45086 0.51067 0.65911 0.0
H3184 H 0.36347 0.55947 0.68547 0.0
H3185 H 0.35022 0.43984 0.67427 0.0
H3186 H 0.38676 0.45676 0.6764 0.0
H3187 H 0.36749 0.46231 0.66473 0.0
C3188 C 0.45038 0.52602 0.68399 0.0
C3189 C 0.46275 0.52136 0.67444 0.0
C3190 C 0.41908 0.5238 0.6856 0.0
C3191 C 0.39935 0.51676 0.67773 0.0
C3192 C 0.41151 0.51268 0.66818 0.0
H3193 H 0.20249 0.50954 0.67106 0.0
H3194 H 0.25728 0.51032 0.66818 0.0
C3195 C 0.44269 0.5147 0.66657 0.0
C3196 C 0.36602 0.51455 0.67939 0.0
H3197 H 0.30472 0.46834 0.67604 0.0
C3198 C 0.35071 0.53945 0.68347 0.0
C3199 C 0.34919 0.48843 0.67677 0.0
C3200 C 0.36429 0.46022 0.67289 0.0
C3201 C 0.31916 0.53916 0.68484 0.0
C3202 C 0.30237 0.51322 0.68212 0.0
C3203 C 0.31758 0.48831 0.67804 0.0
C3204 C 0.26914 0.51127 0.68379 0.0
C3205 C 0.30388 0.56682 0.68905 0.0
C3206 C 0.25763 0.5107 0.69351 0.0
C3207 C 0.22643 0.50992 0.69519 0.0
C3208 C 0.20581 0.50985 0.68718 0.0
C3209 C 0.21749 0.50949 0.67741 0.0
C3210 C 0.24886 0.51009 0.67575 0.0
H3211 H 0.31878 0.58701 0.68875 0.0
H3212 H 0.28267 0.57183 0.68494 0.0
H3213 H 0.29788 0.56258 0.69695 0.0
H3214 H 0.27285 0.51096 0.69983 0.0
H3215 H 0.21855 0.50942 0.7028 0.0
H3216 H 0.19095 0.32732 0.07444 0.0
H3217 H 0.19681 0.38202 0.0756 0.0
H3218 H 0.29359 0.37168 0.07709 0.0
H3219 H 0.28793 0.31671 0.07588 0.0
H3220 H 0.2724 0.41328 0.09074 0.0
H3221 H 0.22486 0.43823 0.05351 0.0
H3222 H 0.19988 0.41607 0.06109 0.0
H3223 H 0.23566 0.40059 0.05726 0.0
C3224 C 0.21354 0.33656 0.07492 0.0
C3225 C 0.23896 0.31736 0.07497 0.0
C3226 C 0.21686 0.36798 0.07558 0.0
C3227 C 0.24568 0.38119 0.07622 0.0
C3228 C 0.2711 0.36213 0.07653 0.0
H3229 H 0.27187 0.5767 0.0673 0.0
H3230 H 0.27595 0.52157 0.06598 0.0
C3231 C 0.26781 0.3306 0.07589 0.0
C3232 C 0.24909 0.4148 0.07668 0.0
H3233 H 0.23035 0.48018 0.06453 0.0
C3234 C 0.2634 0.42788 0.08497 0.0
C3235 C 0.23788 0.43402 0.06908 0.0
C3236 C 0.22399 0.42155 0.05968 0.0
C3237 C 0.26578 0.45948 0.08604 0.0
C3238 C 0.25311 0.47871 0.07869 0.0
C3239 C 0.2398 0.4656 0.07023 0.0
C3240 C 0.25245 0.51236 0.07979 0.0
C3241 C 0.28205 0.47195 0.09501 0.0
C3242 C 0.23793 0.52577 0.08797 0.0
C3243 C 0.23571 0.55725 0.08876 0.0
C3244 C 0.24776 0.57631 0.08135 0.0
C3245 C 0.26267 0.56287 0.07321 0.0
C3246 C 0.26482 0.53127 0.07242 0.0
H3247 H 0.29826 0.45526 0.09813 0.0
H3248 H 0.29455 0.49295 0.09314 0.0
H3249 H 0.26528 0.47732 0.10089 0.0
H3250 H 0.22764 0.51184 0.09367 0.0
H3251 H 0.22429 0.56665 0.09518 0.0
H3252 H 0.47993 0.48455 0.81663 0.0
H3253 H 0.42496 0.47849 0.81525 0.0
H3254 H 0.41504 0.50275 0.84616 0.0
H3255 H 0.46981 0.50902 0.84756 0.0
H3256 H 0.38141 0.44349 0.82512 0.0
H3257 H 0.36321 0.5657 0.83203 0.0
H3258 H 0.40007 0.5501 0.82946 0.0
H3259 H 0.38398 0.54702 0.84172 0.0
C3260 C 0.46609 0.4881 0.82317 0.0
C3261 C 0.47926 0.49763 0.83218 0.0
C3262 C 0.43464 0.48473 0.82236 0.0
C3263 C 0.41577 0.49079 0.83054 0.0
C3264 C 0.42903 0.49869 0.83968 0.0
H3265 H 0.22033 0.45739 0.83519 0.0
H3266 H 0.27553 0.45315 0.83655 0.0
C3267 C 0.46037 0.50224 0.84047 0.0
C3268 C 0.38225 0.49032 0.82942 0.0
H3269 H 0.31952 0.53496 0.83139 0.0
C3270 C 0.36784 0.46347 0.82648 0.0
C3271 C 0.36456 0.51653 0.83105 0.0
C3272 C 0.3787 0.54656 0.83364 0.0
C3273 C 0.33622 0.46205 0.82525 0.0
C3274 C 0.31849 0.48807 0.82715 0.0
C3275 C 0.333 0.51493 0.83001 0.0
C3276 C 0.28498 0.48861 0.82588 0.0
C3277 C 0.32218 0.43294 0.82169 0.0
C3278 C 0.27179 0.51 0.8195 0.0
C3279 C 0.24038 0.51261 0.8188 0.0
C3280 C 0.22126 0.49391 0.82446 0.0
C3281 C 0.23441 0.4719 0.83066 0.0
C3282 C 0.26599 0.46942 0.83141 0.0
H3283 H 0.33914 0.41794 0.81811 0.0
H3284 H 0.31249 0.42069 0.82815 0.0
H3285 H 0.30368 0.43738 0.8163 0.0
H3286 H 0.28587 0.52501 0.81512 0.0
H3287 H 0.23103 0.52947 0.81384 0.0
H3288 H 0.28824 0.44785 0.55225 0.0
H3289 H 0.28809 0.50241 0.55468 0.0
H3290 H 0.22528 0.49242 0.57902 0.0
H3291 H 0.22569 0.43736 0.57668 0.0
H3292 H 0.24286 0.54241 0.5531 0.0
H3293 H 0.28888 0.54559 0.59152 0.0
H3294 H 0.28923 0.51173 0.58406 0.0
H3295 H 0.25511 0.52343 0.59024 0.0
C3296 C 0.27432 0.45718 0.55812 0.0
C3297 C 0.25688 0.43816 0.56425 0.0
C3298 C 0.27432 0.48847 0.55951 0.0
C3299 C 0.25689 0.5017 0.56708 0.0
C3300 C 0.23943 0.48281 0.57325 0.0
H3301 H 0.2222 0.69813 0.56834 0.0
H3302 H 0.21675 0.64339 0.56609 0.0
C3303 C 0.23962 0.45132 0.57191 0.0
C3304 C 0.25687 0.53525 0.56827 0.0
H3305 H 0.27344 0.59217 0.58458 0.0
C3306 C 0.24949 0.55329 0.56 0.0
C3307 C 0.2658 0.54954 0.57723 0.0
C3308 C 0.27549 0.53164 0.58625 0.0
C3309 C 0.25109 0.58503 0.56039 0.0
C3310 C 0.25966 0.59933 0.56938 0.0
C3311 C 0.26672 0.5813 0.57769 0.0
C3312 C 0.26287 0.63282 0.57026 0.0
C3313 C 0.24464 0.60284 0.55104 0.0
C3314 C 0.29045 0.64528 0.57343 0.0
C3315 C 0.29348 0.67646 0.57479 0.0
C3316 C 0.26904 0.69606 0.573 0.0
C3317 C 0.2416 0.68371 0.56961 0.0
C3318 C 0.23848 0.65238 0.56833 0.0
H3319 H 0.24646 0.58857 0.54427 0.0
H3320 H 0.22124 0.61183 0.55139 0.0
H3321 H 0.26042 0.62222 0.55029 0.0
H3322 H 0.30966 0.63079 0.57494 0.0
H3323 H 0.31495 0.68527 0.57735 0.0
H3324 H 0.06353 0.5025 0.31575 0.0
H3325 H 0.11873 0.50393 0.31367 0.0
H3326 H 0.12925 0.51961 0.34516 0.0
H3327 H 0.07436 0.51779 0.34727 0.0
H3328 H 0.16446 0.54561 0.31794 0.0
H3329 H 0.17742 0.4424 0.34096 0.0
H3330 H 0.14117 0.4552 0.33648 0.0
H3331 H 0.15807 0.47247 0.34726 0.0
C3332 C 0.07763 0.50678 0.32218 0.0
C3333 C 0.06463 0.50966 0.33169 0.0
C3334 C 0.10917 0.50748 0.321 0.0
C3335 C 0.12821 0.51114 0.3293 0.0
C3336 C 0.11512 0.51592 0.33869 0.0
H3337 H 0.32511 0.53959 0.32802 0.0
H3338 H 0.27043 0.54653 0.32983 0.0
C3339 C 0.08373 0.51497 0.33988 0.0
C3340 C 0.16168 0.50854 0.32827 0.0
H3341 H 0.22248 0.46775 0.33641 0.0
C3342 C 0.17718 0.52858 0.32197 0.0
C3343 C 0.17826 0.48603 0.33341 0.0
C3344 C 0.1629 0.4626 0.33983 0.0
C3345 C 0.20879 0.52694 0.32076 0.0
C3346 C 0.22545 0.50497 0.32613 0.0
C3347 C 0.20985 0.48481 0.33237 0.0
C3348 C 0.25883 0.50129 0.32505 0.0
C3349 C 0.22394 0.54822 0.31354 0.0
C3350 C 0.27071 0.47333 0.32207 0.0
C3351 C 0.30192 0.46914 0.3212 0.0
C3352 C 0.32224 0.49282 0.32328 0.0
C3353 C 0.3103 0.52079 0.32639 0.0
C3354 C 0.27894 0.52493 0.3273 0.0
H3355 H 0.20751 0.55811 0.3082 0.0
H3356 H 0.23449 0.56704 0.31774 0.0
H3357 H 0.24196 0.53649 0.30927 0.0
H3358 H 0.25576 0.45463 0.32038 0.0
H3359 H 0.31003 0.4471 0.31898 0.0
H3360 H 0.62138 0.35357 0.04852 0.0
H3361 H 0.56812 0.33959 0.04655 0.0
H3362 H 0.55927 0.33166 0.07841 0.0
H3363 H 0.6124 0.34414 0.08044 0.0
H3364 H 0.54342 0.27988 0.068 0.0
H3365 H 0.48646 0.3814 0.05236 0.0
H3366 H 0.5204 0.36942 0.04613 0.0
H3367 H 0.52252 0.38333 0.05866 0.0
C3368 C 0.60796 0.34928 0.05511 0.0
C3369 C 0.62128 0.34989 0.06463 0.0
C3370 C 0.57747 0.3416 0.05397 0.0
C3371 C 0.5598 0.33473 0.06235 0.0
C3372 C 0.57255 0.33702 0.07187 0.0
H3373 H 0.3739 0.29469 0.07296 0.0
H3374 H 0.42346 0.31798 0.07059 0.0
C3375 C 0.60295 0.34448 0.07301 0.0
C3376 C 0.52922 0.32166 0.06125 0.0
H3377 H 0.45706 0.33686 0.05377 0.0
C3378 C 0.52454 0.29228 0.06486 0.0
C3379 C 0.50476 0.33797 0.05715 0.0
C3380 C 0.50856 0.36988 0.05341 0.0
C3381 C 0.49587 0.27892 0.06468 0.0
C3382 C 0.47133 0.29516 0.06057 0.0
C3383 C 0.47604 0.32441 0.05682 0.0
C3384 C 0.44028 0.28286 0.06086 0.0
C3385 C 0.49191 0.24799 0.06925 0.0
C3386 C 0.43308 0.25584 0.05594 0.0
C3387 C 0.40493 0.24221 0.0574 0.0
C3388 C 0.38348 0.25554 0.06376 0.0
C3389 C 0.39021 0.28351 0.06821 0.0
C3390 C 0.41837 0.29702 0.06678 0.0
H3391 H 0.5115 0.24152 0.07397 0.0
H3392 H 0.47111 0.24708 0.07388 0.0
H3393 H 0.48972 0.23096 0.06324 0.0
H3394 H 0.44961 0.2448 0.05123 0.0
H3395 H 0.40048 0.22067 0.05387 0.0
H3396 H 0.99783 0.38012 0.29671 0.0
H3397 H 0.02104 0.33101 0.2937 0.0
H3398 H 0.99183 0.30068 0.32267 0.0
H3399 H 0.97085 0.35036 0.32609 0.0
H3400 H 0.04857 0.28632 0.31972 0.0
H3401 H 0.98268 0.25268 0.28636 0.0
H3402 H 1.00278 0.28756 0.28483 0.0
H3403 H 0.97275 0.28502 0.29383 0.0
C3404 C 0.99647 0.36311 0.30248 0.0
C3405 C 0.98244 0.36939 0.31167 0.0
C3406 C 0.00938 0.33483 0.30067 0.0
C3407 C 0.00782 0.312 0.3079 0.0
C3408 C 0.99323 0.31794 0.31697 0.0
H3409 H 0.02454 0.1224 0.30475 0.0
H3410 H 0.01111 0.17558 0.30355 0.0
C3411 C 0.98084 0.34633 0.31886 0.0
C3412 C 0.02236 0.28224 0.30628 0.0
H3413 H 0.02251 0.22024 0.29119 0.0
C3414 C 0.04292 0.27186 0.31347 0.0
C3415 C 0.01495 0.26346 0.29811 0.0
C3416 C 0.99188 0.27258 0.29039 0.0
C3417 C 0.05534 0.24277 0.31298 0.0
C3418 C 0.04798 0.22397 0.3048 0.0
C3419 C 0.02834 0.23481 0.2974 0.0
C3420 C 0.05723 0.19181 0.30444 0.0
C3421 C 0.07484 0.232 0.3215 0.0
C3422 C 0.08775 0.18312 0.30508 0.0
C3423 C 0.09547 0.15256 0.30593 0.0
C3424 C 0.07282 0.13033 0.30586 0.0
C3425 C 0.0425 0.13905 0.30467 0.0
C3426 C 0.03479 0.16946 0.30401 0.0
H3427 H 0.07235 0.24654 0.32819 0.0
H3428 H 0.06906 0.20844 0.32361 0.0
H3429 H 0.09893 0.23261 0.31921 0.0
H3430 H 0.1055 0.19996 0.30516 0.0
H3431 H 0.119 0.1463 0.30679 0.0
H3432 H 0.11261 0.79951 0.55114 0.0
H3433 H 0.06158 0.78124 0.54764 0.0
H3434 H 0.08195 0.69734 0.56253 0.0
H3435 H 0.13345 0.71498 0.56577 0.0
H3436 H 0.04432 0.69179 0.54485 0.0
H3437 H 0.00392 0.77786 0.57199 0.0
H3438 H 0.02596 0.79209 0.56178 0.0
H3439 H 0.04327 0.76774 0.57083 0.0
C3440 C 0.10656 0.77683 0.55343 0.0
C3441 C 0.12693 0.75881 0.55885 0.0
C3442 C 0.07733 0.76654 0.55147 0.0
C3443 C 0.068 0.7382 0.55497 0.0
C3444 C 0.08879 0.71936 0.55981 0.0
H3445 H 0.89461 0.67826 0.57379 0.0
H3446 H 0.94806 0.6895 0.57143 0.0
C3447 C 0.11806 0.72958 0.56174 0.0
C3448 C 0.03583 0.72949 0.55458 0.0
H3449 H 0.96711 0.74712 0.5645 0.0
C3450 C 0.02731 0.70394 0.54907 0.0
C3451 C 0.01394 0.74528 0.56022 0.0
C3452 C 0.02213 0.77213 0.56661 0.0
C3453 C 0.99728 0.69362 0.54911 0.0
C3454 C 0.97549 0.70944 0.55476 0.0
C3455 C 0.98399 0.73517 0.56015 0.0
C3456 C 0.94395 0.699 0.55569 0.0
C3457 C 0.98919 0.66544 0.54339 0.0
C3458 C 0.9241 0.70024 0.54756 0.0
C3459 C 0.89345 0.6936 0.54887 0.0
C3460 C 0.88227 0.68574 0.55833 0.0
C3461 C 0.90252 0.68373 0.56638 0.0
C3462 C 0.93304 0.69033 0.56506 0.0
H3463 H 0.00956 0.65309 0.54078 0.0
H3464 H 0.97537 0.65005 0.54807 0.0
H3465 H 0.97547 0.67172 0.53679 0.0
H3466 H 0.9321 0.7073 0.5403 0.0
H3467 H 0.87842 0.69513 0.54252 0.0
H3468 H 0.52006 0.85895 0.82906 0.0
H3469 H 0.54703 0.81205 0.82552 0.0
H3470 H 0.51682 0.81551 0.79501 0.0
H3471 H 0.48902 0.8622 0.79856 0.0
H3472 H 0.50679 0.76045 0.80398 0.0
H3473 H 0.62507 0.79643 0.81013 0.0
H3474 H 0.60095 0.80673 0.82032 0.0
H3475 H 0.59462 0.82305 0.80821 0.0
C3476 C 0.5191 0.84972 0.82159 0.0
C3477 C 0.5023 0.86417 0.8141 0.0
C3478 C 0.53493 0.82319 0.81955 0.0
C3479 C 0.53443 0.81069 0.80995 0.0
C3480 C 0.51781 0.82507 0.80243 0.0
H3481 H 0.62862 0.63647 0.79995 0.0
H3482 H 0.61264 0.68889 0.7968 0.0
C3483 C 0.502 0.85171 0.80446 0.0
C3484 C 0.54905 0.78117 0.80812 0.0
H3485 H 0.61511 0.74275 0.81171 0.0
C3486 C 0.53063 0.7567 0.80543 0.0
C3487 C 0.58022 0.77638 0.8099 0.0
C3488 C 0.60142 0.80213 0.8122 0.0
C3489 C 0.5421 0.72721 0.80522 0.0
C3490 C 0.57262 0.72217 0.80783 0.0
C3491 C 0.59162 0.74679 0.8098 0.0
C3492 C 0.58385 0.69139 0.80979 0.0
C3493 C 0.52118 0.70143 0.80267 0.0
C3494 C 0.57338 0.67603 0.81822 0.0
C3495 C 0.58241 0.64643 0.82004 0.0
C3496 C 0.60219 0.63157 0.81347 0.0
C3497 C 0.61325 0.64729 0.80511 0.0
C3498 C 0.60426 0.67716 0.80332 0.0
H3499 H 0.50094 0.70934 0.79852 0.0
H3500 H 0.53308 0.68412 0.79815 0.0
H3501 H 0.51338 0.69049 0.80966 0.0
H3502 H 0.55773 0.68681 0.82331 0.0
H3503 H 0.57301 0.63485 0.82644 0.0
H3504 H 0.60676 0.68015 0.42358 0.0
H3505 H 0.55432 0.69603 0.42554 0.0
H3506 H 0.56146 0.68499 0.45734 0.0
H3507 H 0.61398 0.66825 0.45546 0.0
H3508 H 0.50097 0.66866 0.43628 0.0
H3509 H 0.54365 0.77762 0.45164 0.0
H3510 H 0.56758 0.75224 0.44467 0.0
H3511 H 0.5572 0.74322 0.45723 0.0
C3512 C 0.597 0.68005 0.43098 0.0
C3513 C 0.61468 0.67307 0.43938 0.0
C3514 C 0.56705 0.68935 0.43208 0.0
C3515 C 0.55429 0.69201 0.44158 0.0
C3516 C 0.57114 0.68334 0.44995 0.0
H3517 H 0.39069 0.7929 0.45668 0.0
H3518 H 0.43699 0.76285 0.45787 0.0
C3519 C 0.60111 0.67388 0.44886 0.0
C3520 C 0.52444 0.7065 0.44271 0.0
H3521 H 0.49133 0.7732 0.44925 0.0
C3522 C 0.49871 0.69139 0.4392 0.0
C3523 C 0.52175 0.73612 0.44654 0.0
C3524 C 0.54895 0.75347 0.4502 0.0
C3525 C 0.47022 0.70536 0.43932 0.0
C3526 C 0.46771 0.73545 0.4428 0.0
C3527 C 0.49335 0.75017 0.44657 0.0
C3528 C 0.43908 0.75267 0.44213 0.0
C3529 C 0.44312 0.68773 0.43574 0.0
C3530 C 0.42521 0.75732 0.43286 0.0
C3531 C 0.39867 0.77423 0.43217 0.0
C3532 C 0.38565 0.78719 0.44071 0.0
C3533 C 0.39989 0.7829 0.44997 0.0
C3534 C 0.4264 0.76584 0.45067 0.0
H3535 H 0.44686 0.66299 0.43643 0.0
H3536 H 0.42246 0.69386 0.43998 0.0
H3537 H 0.43915 0.69283 0.42776 0.0
H3538 H 0.43503 0.74803 0.42614 0.0
H3539 H 0.38813 0.77676 0.42494 0.0
H3540 H 0.40685 0.16216 0.6821 0.0
H3541 H 0.42155 0.21527 0.6805 0.0
H3542 H 0.50928 0.18813 0.66967 0.0
H3543 H 0.49438 0.13522 0.67084 0.0
H3544 H 0.46777 0.24009 0.69101 0.0
H3545 H 0.48833 0.25579 0.65067 0.0
H3546 H 0.46748 0.22399 0.65556 0.0
H3547 H 0.50819 0.2238 0.65562 0.0
C3548 C 0.42896 0.16757 0.67912 0.0
C3549 C 0.44956 0.14458 0.67666 0.0
C3550 C 0.43735 0.19786 0.67825 0.0
C3551 C 0.46637 0.20557 0.67487 0.0
C3552 C 0.48657 0.18268 0.6721 0.0
H3553 H 0.58354 0.36028 0.67788 0.0
H3554 H 0.56083 0.3101 0.67586 0.0
C3555 C 0.47818 0.15246 0.67292 0.0
C3556 C 0.47679 0.23721 0.67527 0.0
H3557 H 0.51056 0.29272 0.66158 0.0
C3558 C 0.47671 0.25178 0.68455 0.0
C3559 C 0.48859 0.25225 0.66683 0.0
C3560 C 0.4879 0.23825 0.65659 0.0
C3561 C 0.48901 0.2807 0.68568 0.0
C3562 C 0.50147 0.29537 0.6773 0.0
C3563 C 0.50113 0.28112 0.66798 0.0
C3564 C 0.51497 0.32563 0.67812 0.0
C3565 C 0.4894 0.29508 0.69587 0.0
C3566 C 0.49651 0.35071 0.67992 0.0
C3567 C 0.5093 0.37926 0.68103 0.0
C3568 C 0.54081 0.38316 0.68036 0.0
C3569 C 0.55921 0.35797 0.67839 0.0
C3570 C 0.54633 0.32937 0.67726 0.0
H3571 H 0.48368 0.27868 0.70184 0.0
H3572 H 0.51198 0.30494 0.69746 0.0
H3573 H 0.47259 0.31369 0.69609 0.0
H3574 H 0.4722 0.34816 0.68048 0.0
H3575 H 0.49446 0.39834 0.68229 0.0
H3576 H 0.89241 0.34033 0.93311 0.0
H3577 H 0.94279 0.3194 0.93561 0.0
H3578 H 0.93126 0.32524 0.96741 0.0
H3579 H 0.88068 0.34696 0.96501 0.0
H3580 H 0.99515 0.34304 0.95592 0.0
H3581 H 0.9438 0.22946 0.95027 0.0
H3582 H 0.93184 0.25941 0.94208 0.0
H3583 H 0.92247 0.26111 0.95506 0.0
C3584 C 0.90086 0.33827 0.94065 0.0
C3585 C 0.88246 0.34534 0.94887 0.0
C3586 C 0.92959 0.32604 0.94205 0.0
C3587 C 0.94046 0.32065 0.95168 0.0
C3588 C 0.92309 0.32928 0.95992 0.0
H3589 H 0.11619 0.23448 0.96431 0.0
H3590 H 0.06802 0.26077 0.96695 0.0
C3591 C 0.89423 0.34155 0.95853 0.0
C3592 C 0.96865 0.30332 0.95298 0.0
H3593 H 0.99718 0.23226 0.95019 0.0
C3594 C 0.99571 0.31876 0.95484 0.0
C3595 C 0.969 0.27172 0.95154 0.0
C3596 C 0.94026 0.25425 0.94968 0.0
C3597 C 0.02353 0.30343 0.95485 0.0
C3598 C 0.02398 0.27191 0.95307 0.0
C3599 C 0.99671 0.2564 0.95157 0.0
C3600 C 0.05259 0.25505 0.95178 0.0
C3601 C 0.05231 0.32122 0.95625 0.0
C3602 C 0.05936 0.24243 0.94247 0.0
C3603 C 0.08668 0.22742 0.94095 0.0
C3604 C 0.10777 0.22458 0.94873 0.0
C3605 C 0.10056 0.23659 0.95814 0.0
C3606 C 0.07313 0.25165 0.95966 0.0
H3607 H 0.04836 0.34599 0.95587 0.0
H3608 H 0.0621 0.3159 0.96366 0.0
H3609 H 0.06924 0.31493 0.95051 0.0
H3610 H 0.04376 0.24483 0.9363 0.0
H3611 H 0.09168 0.21896 0.93356 0.0
H3612 H 0.88457 0.63557 0.21084 0.0
H3613 H 0.89991 0.68853 0.21254 0.0
H3614 H 0.91128 0.69468 0.18072 0.0
H3615 H 0.89656 0.64204 0.17896 0.0
H3616 H 0.9569 0.70807 0.20667 0.0
H3617 H 0.86832 0.77376 0.18725 0.0
H3618 H 0.8623 0.73552 0.19153 0.0
H3619 H 0.8816 0.7425 0.17996 0.0
C3620 C 0.88979 0.64841 0.20419 0.0
C3621 C 0.88933 0.63455 0.19477 0.0
C3622 C 0.89844 0.67864 0.20518 0.0
C3623 C 0.9064 0.69557 0.19675 0.0
C3624 C 0.9045 0.68225 0.1873 0.0
H3625 H 0.00472 0.84854 0.17773 0.0
H3626 H 0.97635 0.80187 0.18028 0.0
C3627 C 0.89599 0.65208 0.18631 0.0
C3628 C 0.92037 0.72574 0.1978 0.0
H3629 H 0.91713 0.79766 0.18875 0.0
C3630 C 0.94793 0.72788 0.20294 0.0
C3631 C 0.90861 0.75143 0.1929 0.0
C3632 C 0.87842 0.75081 0.18768 0.0
C3633 C 0.96497 0.75461 0.2028 0.0
C3634 C 0.95386 0.77984 0.1975 0.0
C3635 C 0.92565 0.77813 0.19275 0.0
C3636 C 0.97203 0.80757 0.19621 0.0
C3637 C 0.99543 0.75516 0.20786 0.0
C3638 C 0.97917 0.82603 0.20436 0.0
C3639 C 0.9957 0.85261 0.20294 0.0
C3640 C 0.00522 0.86115 0.19335 0.0
C3641 C 0.99824 0.84235 0.18524 0.0
C3642 C 0.98175 0.81585 0.18666 0.0
H3643 H 1.00303 0.73221 0.2101 0.0
H3644 H 0.01276 0.76523 0.20289 0.0
H3645 H 0.99403 0.76933 0.21466 0.0
H3646 H 0.97157 0.82013 0.21177 0.0
H3647 H 1.00083 0.86658 0.20934 0.0
H3648 H 0.36666 0.78046 0.92345 0.0
H3649 H 0.41538 0.80688 0.92375 0.0
H3650 H 0.44566 0.74892 0.94755 0.0
H3651 H 0.39712 0.72221 0.94725 0.0
H3652 H 0.4482 0.83524 0.94188 0.0
H3653 H 0.50646 0.74009 0.92269 0.0
H3654 H 0.46604 0.74564 0.92199 0.0
H3655 H 0.48269 0.7306 0.93312 0.0
C3656 C 0.38371 0.77338 0.92875 0.0
C3657 C 0.37826 0.74911 0.93527 0.0
C3658 C 0.41135 0.78861 0.92896 0.0
C3659 C 0.43398 0.77966 0.93563 0.0
C3660 C 0.42837 0.75602 0.94233 0.0
H3661 H 0.60844 0.84794 0.95212 0.0
H3662 H 0.55463 0.83513 0.95153 0.0
C3663 C 0.40067 0.7409 0.94218 0.0
C3664 C 0.46407 0.79392 0.93524 0.0
H3665 H 0.53698 0.78026 0.92838 0.0
C3666 C 0.46766 0.82337 0.9389 0.0
C3667 C 0.48914 0.77836 0.93123 0.0
C3668 C 0.48607 0.74698 0.92696 0.0
C3669 C 0.49611 0.83747 0.93888 0.0
C3670 C 0.52136 0.82156 0.93512 0.0
C3671 C 0.51752 0.79237 0.93125 0.0
C3672 C 0.55231 0.83404 0.93545 0.0
C3673 C 0.499 0.86922 0.94283 0.0
C3674 C 0.56866 0.83797 0.92659 0.0
C3675 C 0.59938 0.84515 0.9269 0.0
C3676 C 0.6143 0.8482 0.93609 0.0
C3677 C 0.59752 0.8456 0.94494 0.0
C3678 C 0.56676 0.83854 0.94462 0.0
H3679 H 0.47675 0.88084 0.94316 0.0
H3680 H 0.50844 0.86841 0.95048 0.0
H3681 H 0.51462 0.88275 0.93814 0.0
H3682 H 0.5579 0.83432 0.91945 0.0
H3683 H 0.61178 0.84659 0.91997 0.0
H3684 H 0.01433 0.63789 0.67487 0.0
H3685 H 1.00066 0.69082 0.67736 0.0
H3686 H 0.08385 0.7057 0.69337 0.0
H3687 H 0.09758 0.65243 0.69104 0.0
H3688 H 0.99736 0.71702 0.69801 0.0
H3689 H 0.07547 0.77657 0.67197 0.0
H3690 H 0.06473 0.73759 0.67012 0.0
H3691 H 0.09044 0.74734 0.67991 0.0
C3692 C 0.0298 0.65245 0.67888 0.0
C3693 C 0.05688 0.64102 0.68285 0.0
C3694 C 0.02202 0.68263 0.68025 0.0
C3695 C 0.04128 0.70194 0.68554 0.0
C3696 C 0.06888 0.69104 0.6892 0.0
H3697 H 0.00757 0.89342 0.69702 0.0
H3698 H 0.03094 0.8433 0.69726 0.0
C3699 C 0.0767 0.66072 0.68784 0.0
C3700 C 0.0312 0.7329 0.68774 0.0
H3701 H 0.04039 0.80634 0.68076 0.0
C3702 C 0.00689 0.73664 0.69432 0.0
C3703 C 0.04401 0.75825 0.68298 0.0
C3704 C 0.07006 0.755 0.67581 0.0
C3705 C 0.99441 0.76521 0.69607 0.0
C3706 C 0.00623 0.79043 0.69093 0.0
C3707 C 0.03136 0.78685 0.68465 0.0
C3708 C 0.99157 0.82032 0.69144 0.0
C3709 C 0.96857 0.76809 0.70335 0.0
C3710 C 0.96174 0.82384 0.68808 0.0
C3711 C 0.94828 0.85231 0.688 0.0
C3712 C 0.96453 0.87778 0.69121 0.0
C3713 C 0.99434 0.87413 0.69465 0.0
C3714 C 0.00779 0.8456 0.69473 0.0
H3715 H 0.96849 0.74921 0.7088 0.0
H3716 H 0.9697 0.7898 0.70747 0.0
H3717 H 0.94687 0.76736 0.69921 0.0
H3718 H 0.94907 0.80463 0.68534 0.0
H3719 H 0.92524 0.85443 0.68536 0.0
H3720 H 0.91306 0.23401 0.42672 0.0
H3721 H 0.96062 0.26128 0.42855 0.0
H3722 H 0.94795 0.26464 0.46035 0.0
H3723 H 0.90025 0.23678 0.45863 0.0
H3724 H 0.96527 0.32155 0.45078 0.0
H3725 H 0.03946 0.2254 0.4405 0.0
H3726 H 0.00906 0.23191 0.4319 0.0
H3727 H 1.00074 0.22037 0.44444 0.0
C3728 C 0.92058 0.24003 0.43413 0.0
C3729 C 0.90307 0.23286 0.44255 0.0
C3730 C 0.94767 0.25577 0.43515 0.0
C3731 C 0.95785 0.2646 0.44459 0.0
C3732 C 0.94039 0.25789 0.45301 0.0
H3733 H 0.12589 0.35937 0.45886 0.0
H3734 H 0.0743 0.33962 0.46026 0.0
C3735 C 0.9132 0.24204 0.45201 0.0
C3736 C 0.98679 0.28093 0.44552 0.0
H3737 H 0.06185 0.27434 0.44025 0.0
C3738 C 0.98651 0.31123 0.44861 0.0
C3739 C 0.01434 0.26723 0.44272 0.0
C3740 C 0.01609 0.23435 0.43979 0.0
C3741 C 0.01307 0.32866 0.44851 0.0
C3742 C 0.04034 0.3152 0.44532 0.0
C3743 C 0.04073 0.28463 0.44258 0.0
C3744 C 0.06886 0.33231 0.44444 0.0
C3745 C 0.01167 0.3615 0.45144 0.0
C3746 C 0.08247 0.33532 0.43507 0.0
C3747 C 0.11191 0.34624 0.43425 0.0
C3748 C 0.12836 0.35429 0.44282 0.0
C3749 C 0.11388 0.35313 0.45215 0.0
C3750 C 0.08436 0.34209 0.45295 0.0
H3751 H 0.98803 0.36969 0.45216 0.0
H3752 H 0.02317 0.36458 0.45872 0.0
H3753 H 0.02366 0.37567 0.44588 0.0
H3754 H 0.07084 0.32771 0.42843 0.0
H3755 H 0.12241 0.34631 0.42697 0.0
H3756 H 0.47065 0.11805 0.17861 0.0
H3757 H 0.44994 0.16786 0.18237 0.0
H3758 H 0.50297 0.17143 0.2093 0.0
H3759 H 0.52514 0.12237 0.20532 0.0
H3760 H 0.41743 0.18905 0.19833 0.0
H3761 H 0.52786 0.24848 0.19526 0.0
H3762 H 0.5227 0.20997 0.19123 0.0
H3763 H 0.52709 0.21845 0.20424 0.0
C3764 C 0.47826 0.12958 0.18526 0.0
C3765 C 0.49993 0.11641 0.19158 0.0
C3766 C 0.46612 0.15788 0.18746 0.0
C3767 C 0.47531 0.17349 0.19602 0.0
C3768 C 0.49605 0.15999 0.20255 0.0
H3769 H 0.4323 0.35995 0.21238 0.0
H3770 H 0.44571 0.30648 0.21399 0.0
C3771 C 0.50843 0.13179 0.20031 0.0
C3772 C 0.46371 0.20425 0.19792 0.0
H3773 H 0.48562 0.27797 0.19962 0.0
C3774 C 0.43233 0.20849 0.19869 0.0
C3775 C 0.48326 0.22952 0.19838 0.0
C3776 C 0.51707 0.22654 0.19715 0.0
C3777 C 0.41993 0.23748 0.1997 0.0
C3778 C 0.43945 0.26269 0.19993 0.0
C3779 C 0.47082 0.25842 0.19952 0.0
C3780 C 0.42791 0.29391 0.19958 0.0
C3781 C 0.38608 0.24102 0.20039 0.0
C3782 C 0.41339 0.30429 0.19096 0.0
C3783 C 0.40615 0.33479 0.18995 0.0
C3784 C 0.4133 0.35545 0.19755 0.0
C3785 C 0.42686 0.34469 0.20634 0.0
C3786 C 0.43431 0.31417 0.20731 0.0
H3787 H 0.37492 0.21963 0.20269 0.0
H3788 H 0.37997 0.25908 0.20577 0.0
H3789 H 0.37708 0.24752 0.19298 0.0
H3790 H 0.4089 0.28905 0.18483 0.0
H3791 H 0.39629 0.34232 0.183 0.0
H3792 H 0.63471 0.25785 0.54848 0.0
H3793 H 0.58466 0.27748 0.54444 0.0
H3794 H 0.54627 0.18893 0.54885 0.0
H3795 H 0.59655 0.16866 0.55246 0.0
H3796 H 0.52056 0.22192 0.5326 0.0
H3797 H 0.52536 0.28871 0.56768 0.0
H3798 H 0.55556 0.29552 0.55903 0.0
H3799 H 0.55215 0.25919 0.5649 0.0
C3800 C 0.61581 0.2423 0.54833 0.0
C3801 C 0.61959 0.2117 0.5509 0.0
C3802 C 0.58718 0.25367 0.54611 0.0
C3803 C 0.56181 0.23475 0.54654 0.0
C3804 C 0.56564 0.2039 0.54854 0.0
H3805 H 0.3717 0.24081 0.5519 0.0
H3806 H 0.42374 0.22819 0.54763 0.0
C3807 C 0.59431 0.19244 0.5507 0.0
C3808 C 0.53105 0.24748 0.54579 0.0
H3809 H 0.48111 0.29252 0.55818 0.0
C3810 C 0.51194 0.23758 0.53812 0.0
C3811 C 0.51999 0.26788 0.55304 0.0
C3812 C 0.53917 0.27832 0.56168 0.0
C3813 C 0.48176 0.24725 0.53759 0.0
C3814 C 0.47051 0.26694 0.545 0.0
C3815 C 0.48992 0.27758 0.55247 0.0
C3816 C 0.4381 0.27461 0.54582 0.0
C3817 C 0.46214 0.23614 0.52917 0.0
C3818 C 0.4289 0.30492 0.54619 0.0
C3819 C 0.39913 0.31224 0.54867 0.0
C3820 C 0.37815 0.28933 0.55087 0.0
C3821 C 0.38716 0.25896 0.55008 0.0
C3822 C 0.41691 0.25169 0.54761 0.0
H3823 H 0.47593 0.22961 0.5226 0.0
H3824 H 0.44948 0.21586 0.53167 0.0
H3825 H 0.44553 0.25362 0.52687 0.0
H3826 H 0.44503 0.32292 0.5449 0.0
H3827 H 0.39273 0.33582 0.54911 0.0
H3828 H 0.5261 0.86977 0.29766 0.0
H3829 H 0.50018 0.82225 0.29415 0.0
H3830 H 0.45175 0.82968 0.32193 0.0
H3831 H 0.47601 0.878 0.32518 0.0
H3832 H 0.50741 0.77368 0.30462 0.0
H3833 H 0.38548 0.79892 0.30459 0.0
H3834 H 0.41371 0.82826 0.30363 0.0
H3835 H 0.40241 0.81394 0.31565 0.0
C3836 C 0.50923 0.86178 0.30288 0.0
C3837 C 0.50338 0.87758 0.31176 0.0
C3838 C 0.4945 0.83454 0.30087 0.0
C3839 C 0.47369 0.82255 0.30771 0.0
C3840 C 0.46709 0.83879 0.31641 0.0
H3841 H 0.45366 0.64853 0.32908 0.0
H3842 H 0.4624 0.70107 0.32473 0.0
C3843 C 0.48153 0.86615 0.31837 0.0
C3844 C 0.46229 0.79129 0.30653 0.0
H3845 H 0.39943 0.74756 0.30978 0.0
C3846 C 0.48367 0.76808 0.30548 0.0
C3847 C 0.43129 0.78383 0.3075 0.0
C3848 C 0.40694 0.80766 0.30779 0.0
C3849 C 0.47522 0.73771 0.30618 0.0
C3850 C 0.44474 0.73041 0.30819 0.0
C3851 C 0.42291 0.75335 0.30843 0.0
C3852 C 0.43613 0.6995 0.31116 0.0
C3853 C 0.49924 0.71367 0.30518 0.0
C3854 C 0.41729 0.68167 0.30517 0.0
C3855 C 0.41181 0.65148 0.30772 0.0
C3856 C 0.42501 0.6389 0.31632 0.0
C3857 C 0.44273 0.65746 0.32249 0.0
C3858 C 0.44809 0.68745 0.31996 0.0
H3859 H 0.51883 0.72191 0.30077 0.0
H3860 H 0.5076 0.70745 0.3127 0.0
H3861 H 0.49006 0.69303 0.30159 0.0
H3862 H 0.40767 0.6908 0.29839 0.0
H3863 H 0.39773 0.6379 0.30288 0.0
H3864 H 0.1416 0.7223 0.04649 0.0
H3865 H 0.09233 0.7424 0.0415 0.0
H3866 H 0.09289 0.80185 0.06694 0.0
H3867 H 0.14256 0.78296 0.07171 0.0
H3868 H 0.04166 0.73747 0.05221 0.0
H3869 H 0.06393 0.85843 0.04554 0.0
H3870 H 0.09392 0.8308 0.04623 0.0
H3871 H 0.07847 0.8471 0.05742 0.0
C3872 C 0.13154 0.74019 0.05088 0.0
C3873 C 0.1459 0.75094 0.05953 0.0
C3874 C 0.10338 0.75156 0.04803 0.0
C3875 C 0.0892 0.77397 0.05375 0.0
C3876 C 0.10375 0.78513 0.06227 0.0
H3877 H 0.9225 0.83412 0.07248 0.0
H3878 H 0.97494 0.82358 0.06818 0.0
C3879 C 0.13192 0.77389 0.06509 0.0
C3880 C 0.05782 0.78336 0.05155 0.0
H3881 H 0.01237 0.84554 0.05042 0.0
C3882 C 0.03527 0.76104 0.05153 0.0
C3883 C 0.04958 0.8141 0.0506 0.0
C3884 C 0.07285 0.83891 0.04984 0.0
C3885 C 0.00457 0.76883 0.0514 0.0
C3886 C 0.9964 0.79966 0.05124 0.0
C3887 C 0.01886 0.82191 0.05059 0.0
C3888 C 0.96502 0.80912 0.05316 0.0
C3889 C 0.98105 0.74422 0.05215 0.0
C3890 C 0.94228 0.80497 0.04603 0.0
C3891 C 0.91217 0.81128 0.04842 0.0
C3892 C 0.90447 0.82173 0.05799 0.0
C3893 C 0.92761 0.82663 0.06499 0.0
C3894 C 0.9576 0.8205 0.06257 0.0
H3895 H 0.99131 0.7214 0.05285 0.0
H3896 H 0.96622 0.74827 0.05868 0.0
H3897 H 0.96659 0.74454 0.04539 0.0
H3898 H 0.94776 0.7963 0.03871 0.0
H3899 H 0.89491 0.80767 0.04283 0.0
H3900 H 0.11068 0.34452 0.79719 0.0
H3901 H 0.09434 0.29197 0.795 0.0
H3902 H 0.08549 0.28238 0.8268 0.0
H3903 H 0.10102 0.33462 0.82908 0.0
H3904 H 0.11202 0.23081 0.81636 0.0
H3905 H 1.00322 0.2717 0.80027 0.0
H3906 H 0.03768 0.28471 0.79458 0.0
H3907 H 0.02845 0.29638 0.807 0.0
C3908 C 0.10561 0.33107 0.80372 0.0
C3909 C 0.10704 0.34386 0.8133 0.0
C3910 C 0.09633 0.30112 0.80245 0.0
C3911 C 0.08839 0.28357 0.81074 0.0
C3912 C 0.0916 0.29562 0.82032 0.0
H3913 H 1.00291 0.12227 0.82999 0.0
H3914 H 0.0311 0.16917 0.82768 0.0
C3915 C 0.10073 0.32549 0.8216 0.0
C3916 C 0.07429 0.25357 0.80956 0.0
H3917 H 0.00753 0.21978 0.80339 0.0
C3918 C 0.08935 0.22824 0.8134 0.0
C3919 C 0.04472 0.25045 0.80569 0.0
C3920 C 0.02735 0.27719 0.80169 0.0
C3921 C 0.07525 0.19989 0.8137 0.0
C3922 C 0.04513 0.19708 0.81029 0.0
C3923 C 0.03057 0.22212 0.80604 0.0
C3924 C 0.02767 0.16889 0.81161 0.0
C3925 C 0.0926 0.17327 0.81778 0.0
C3926 C 0.01535 0.15391 0.80335 0.0
C3927 C 0.99877 0.12733 0.80466 0.0
C3928 C 0.99408 0.11543 0.81425 0.0
C3929 C 0.00585 0.13097 0.82251 0.0
C3930 C 0.02239 0.15752 0.8212 0.0
H3931 H 0.11741 0.1768 0.81716 0.0
H3932 H 0.0871 0.17043 0.82579 0.0
H3933 H 0.08651 0.15209 0.81383 0.0
H3934 H 0.01885 0.16261 0.7959 0.0
H3935 H 0.98966 0.11608 0.79816 0.0
loop_
_geom_bond_atom_site_label_1
_geom_bond_atom_site_label_2
_geom_bond_distance
_geom_bond_site_symmetry_2
_ccdc_geom_bond_type
C0 C1 1.351 . S
C0 N3 1.368 . S
C0 H5 0.931 . S
C1 C0 1.351 . S
C1 N2 1.373 . S
C1 H29 0.930 . S
N2 C1 1.373 . S
N2 C4 1.340 . S
N3 C0 1.368 . S
N3 C4 1.321 . S
N3 Co6 2.135 . S
C4 N2 1.340 . S
C4 N3 1.321 . S
C4 H28 0.930 . S
H5 C0 0.931 . S
Co6 N3 2.135 . S
Co6 N9 2.121 . S
Co6 O14 2.055 . S
Co6 O17 2.039 . S
Co6 N20 2.140 . S
C7 O8 1.227 . S
C7 O17 1.265 . S
O8 C7 1.227 . S
N9 Co6 2.121 . S
N9 C11 1.375 . S
N9 C12 1.313 . S
C10 C11 1.338 . S
C10 N13 1.377 . S
C10 H30 0.930 . S
C11 N9 1.375 . S
C11 C10 1.338 . S
C11 H15 0.931 . S
C12 N9 1.313 . S
C12 N13 1.344 . S
C12 H16 0.930 . S
N13 C10 1.377 . S
N13 C12 1.344 . S
O14 Co6 2.055 . S
O14 C18 1.253 . S
H15 C11 0.931 . S
H16 C12 0.930 . S
O17 Co6 2.039 . S
O17 C7 1.265 . S
C18 O14 1.253 . S
C18 O19 1.227 . S
O19 C18 1.227 . S
N20 Co6 2.140 . S
N20 C23 1.346 . S
N20 C24 1.345 . S
C21 C22 1.387 . S
C21 C25 1.391 . S
C22 C21 1.387 . S
C22 C23 1.369 . S
C22 H31 0.929 . S
C23 N20 1.346 . S
C23 C22 1.369 . S
C23 H26 0.928 . S
C24 N20 1.345 . S
C24 C25 1.371 . S
C24 H27 0.931 . S
C25 C21 1.391 . S
C25 C24 1.371 . S
C25 H32 0.930 . S
H26 C23 0.928 . S
H27 C24 0.931 . S
H28 C4 0.930 . S
H29 C1 0.930 . S
H30 C10 0.930 . S
H31 C22 0.929 . S
H32 C25 0.930 . S
C33 C34 1.351 . S
C33 N36 1.368 1_655 S
C33 H38 0.924 1_655 S
C34 C33 1.351 . S
C34 N35 1.373 . S
C34 H62 0.930 . S
N35 C34 1.373 . S
N35 C37 1.340 . S
N36 C33 1.368 1_455 S
N36 C37 1.321 1_455 S
N36 Co39 2.135 1_565 S
C37 N35 1.340 . S
C37 N36 1.321 1_655 S
C37 H61 0.930 . S
H38 C33 0.924 1_455 S
Co39 N36 2.135 1_545 S
Co39 N42 2.121 . S
Co39 O47 2.055 1_545 S
Co39 O50 2.039 1_545 S
Co39 N53 2.140 . S
C40 O41 1.227 1_565 S
C40 O50 1.265 . S
O41 C40 1.227 1_545 S
N42 Co39 2.121 . S
N42 C44 1.375 . S
N42 C45 1.313 . S
C43 C44 1.338 . S
C43 N46 1.377 . S
C43 H63 0.930 . S
C44 N42 1.375 . S
C44 C43 1.338 . S
C44 H48 0.931 . S
C45 N42 1.313 . S
C45 N46 1.344 . S
C45 H49 0.930 1_545 S
N46 C43 1.377 . S
N46 C45 1.344 . S
O47 Co39 2.055 1_565 S
O47 C51 1.253 . S
H48 C44 0.931 . S
H49 C45 0.930 1_565 S
O50 Co39 2.039 1_565 S
O50 C40 1.265 . S
C51 O47 1.253 . S
C51 O52 1.227 1_565 S
O52 C51 1.227 1_545 S
N53 Co39 2.140 . S
N53 C56 1.346 . S
N53 C57 1.345 . S
C54 C55 1.387 . S
C54 C58 1.391 . S
C55 C54 1.387 . S
C55 C56 1.369 . S
C55 H64 0.929 1_455 S
C56 N53 1.346 . S
C56 C55 1.369 . S
C56 H59 0.928 . S
C57 N53 1.345 . S
C57 C58 1.371 . S
C57 H60 0.931 . S
C58 C54 1.391 . S
C58 C57 1.371 . S
C58 H65 0.930 . S
H59 C56 0.928 . S
H60 C57 0.931 . S
H61 C37 0.930 . S
H62 C34 0.930 . S
H63 C43 0.930 . S
H64 C55 0.929 1_655 S
H65 C58 0.930 . S
C66 C67 1.351 . S
C66 N69 1.368 . S
C66 H71 0.931 . S
C67 C66 1.351 . S
C67 N68 1.373 . S
C67 H95 0.930 . S
N68 C67 1.373 . S
N68 C70 1.340 . S
N69 C66 1.368 . S
N69 C70 1.321 . S
N69 Co72 2.135 . S
C70 N68 1.340 . S
C70 N69 1.321 . S
C70 H94 0.930 . S
H71 C66 0.931 . S
Co72 N69 2.135 . S
Co72 N75 2.121 . S
Co72 O80 2.055 . S
Co72 O83 2.039 . S
Co72 N86 2.140 . S
C73 O74 1.227 . S
C73 O83 1.265 . S
O74 C73 1.227 . S
N75 Co72 2.121 . S
N75 C77 1.375 . S
N75 C78 1.313 . S
C76 C77 1.338 . S
C76 N79 1.377 . S
C76 H96 0.930 . S
C77 N75 1.375 . S
C77 C76 1.338 . S
C77 H81 0.931 . S
C78 N75 1.313 . S
C78 N79 1.344 . S
C78 H82 0.930 . S
N79 C76 1.377 . S
N79 C78 1.344 . S
O80 Co72 2.055 . S
O80 C84 1.253 . S
H81 C77 0.931 . S
H82 C78 0.930 . S
O83 Co72 2.039 . S
O83 C73 1.265 . S
C84 O80 1.253 . S
C84 O85 1.227 . S
O85 C84 1.227 . S
N86 Co72 2.140 . S
N86 C89 1.346 . S
N86 C90 1.345 . S
C87 C88 1.387 . S
C87 C91 1.391 . S
C88 C87 1.387 . S
C88 C89 1.369 . S
C88 H97 0.929 . S
C89 N86 1.346 . S
C89 C88 1.369 . S
C89 H92 0.928 . S
C90 N86 1.345 . S
C90 C91 1.371 . S
C90 H93 0.931 . S
C91 C87 1.391 . S
C91 C90 1.371 . S
C91 H98 0.930 . S
H92 C89 0.928 . S
H93 C90 0.931 . S
H94 C70 0.930 . S
H95 C67 0.930 . S
H96 C76 0.930 . S
H97 C88 0.929 . S
H98 C91 0.930 . S
C99 C100 1.351 . S
C99 N102 1.368 . S
C99 H104 0.931 . S
C100 C99 1.351 . S
C100 N101 1.373 . S
C100 H128 0.930 . S
N101 C100 1.373 . S
N101 C103 1.340 . S
N102 C99 1.368 . S
N102 C103 1.321 . S
N102 Co105 2.135 1_545 S
C103 N101 1.340 . S
C103 N102 1.321 . S
C103 H127 0.930 . S
H104 C99 0.931 . S
Co105 N102 2.135 1_565 S
Co105 N108 2.121 . S
Co105 O113 2.055 1_565 S
Co105 O116 2.039 1_565 S
Co105 N119 2.140 . S
C106 O107 1.227 1_545 S
C106 O116 1.265 . S
O107 C106 1.227 1_565 S
N108 Co105 2.121 . S
N108 C110 1.375 . S
N108 C111 1.313 . S
C109 C110 1.338 . S
C109 N112 1.377 . S
C109 H129 0.930 . S
C110 N108 1.375 . S
C110 C109 1.338 . S
C110 H114 0.931 . S
C111 N108 1.313 . S
C111 N112 1.344 . S
C111 H115 0.930 1_565 S
N112 C109 1.377 . S
N112 C111 1.344 . S
O113 Co105 2.055 1_545 S
O113 C117 1.253 . S
H114 C110 0.931 . S
H115 C111 0.930 1_545 S
O116 Co105 2.039 1_545 S
O116 C106 1.265 . S
C117 O113 1.253 . S
C117 O118 1.227 1_545 S
O118 C117 1.227 1_565 S
N119 Co105 2.140 . S
N119 C122 1.346 . S
N119 C123 1.345 . S
C120 C121 1.387 . S
C120 C124 1.391 . S
C121 C120 1.387 . S
C121 C122 1.369 . S
C121 H130 0.929 . S
C122 N119 1.346 . S
C122 C121 1.369 . S
C122 H125 0.928 . S
C123 N119 1.345 . S
C123 C124 1.371 . S
C123 H126 0.931 . S
C124 C120 1.391 . S
C124 C123 1.371 . S
C124 H131 0.930 . S
H125 C122 0.928 . S
H126 C123 0.931 . S
H127 C103 0.930 . S
H128 C100 0.930 . S
H129 C109 0.930 . S
H130 C121 0.929 . S
H131 C124 0.930 . S
C132 C133 1.351 . S
C132 N135 1.368 . S
C132 H137 0.931 . S
C133 C132 1.351 . S
C133 N134 1.373 . S
C133 H161 0.930 . S
N134 C133 1.373 . S
N134 C136 1.340 . S
N135 C132 1.368 . S
N135 C136 1.321 . S
N135 Co138 2.135 . S
C136 N134 1.340 . S
C136 N135 1.321 . S
C136 H160 0.930 . S
H137 C132 0.931 . S
Co138 N135 2.135 . S
Co138 N141 2.121 . S
Co138 O146 2.055 . S
Co138 O149 2.039 . S
Co138 N152 2.140 . S
C139 O140 1.227 . S
C139 O149 1.265 . S
O140 C139 1.227 . S
N141 Co138 2.121 . S
N141 C143 1.375 . S
N141 C144 1.313 . S
C142 C143 1.338 . S
C142 N145 1.377 . S
C142 H162 0.930 . S
C143 N141 1.375 . S
C143 C142 1.338 . S
C143 H147 0.931 . S
C144 N141 1.313 . S
C144 N145 1.344 . S
C144 H148 0.930 . S
N145 C142 1.377 . S
N145 C144 1.344 . S
O146 Co138 2.055 . S
O146 C150 1.253 . S
H147 C143 0.931 . S
H148 C144 0.930 . S
O149 Co138 2.039 . S
O149 C139 1.265 . S
C150 O146 1.253 . S
C150 O151 1.227 . S
O151 C150 1.227 . S
N152 Co138 2.140 . S
N152 C155 1.346 . S
N152 C156 1.345 . S
C153 C154 1.387 . S
C153 C157 1.391 . S
C154 C153 1.387 . S
C154 C155 1.369 . S
C154 H163 0.929 . S
C155 N152 1.346 . S
C155 C154 1.369 . S
C155 H158 0.928 . S
C156 N152 1.345 . S
C156 C157 1.371 . S
C156 H159 0.931 . S
C157 C153 1.391 . S
C157 C156 1.371 . S
C157 H164 0.930 . S
H158 C155 0.928 . S
H159 C156 0.931 . S
H160 C136 0.930 . S
H161 C133 0.930 . S
H162 C142 0.930 . S
H163 C154 0.929 . S
H164 C157 0.930 . S
C165 C166 1.351 . S
C165 N168 1.368 . S
C165 H170 0.931 . S
C166 C165 1.351 . S
C166 N167 1.373 . S
C166 H194 0.930 . S
N167 C166 1.373 . S
N167 C169 1.340 . S
N168 C165 1.368 . S
N168 C169 1.321 . S
N168 Co171 2.135 1_565 S
C169 N167 1.340 . S
C169 N168 1.321 . S
C169 H193 0.930 . S
H170 C165 0.931 . S
Co171 N168 2.135 1_545 S
Co171 N174 2.121 . S
Co171 O179 2.055 1_545 S
Co171 O182 2.039 1_545 S
Co171 N185 2.140 . S
C172 O173 1.227 1_565 S
C172 O182 1.265 . S
O173 C172 1.227 1_545 S
N174 Co171 2.121 . S
N174 C176 1.375 . S
N174 C177 1.313 . S
C175 C176 1.338 . S
C175 N178 1.377 . S
C175 H195 0.930 . S
C176 N174 1.375 . S
C176 C175 1.338 . S
C176 H180 0.931 . S
C177 N174 1.313 . S
C177 N178 1.344 . S
C177 H181 0.930 1_545 S
N178 C175 1.377 . S
N178 C177 1.344 . S
O179 Co171 2.055 1_565 S
O179 C183 1.253 . S
H180 C176 0.931 . S
H181 C177 0.930 1_565 S
O182 Co171 2.039 1_565 S
O182 C172 1.265 . S
C183 O179 1.253 . S
C183 O184 1.227 1_565 S
O184 C183 1.227 1_545 S
N185 Co171 2.140 . S
N185 C188 1.346 . S
N185 C189 1.345 . S
C186 C187 1.387 . S
C186 C190 1.391 . S
C187 C186 1.387 . S
C187 C188 1.369 . S
C187 H196 0.929 . S
C188 N185 1.346 . S
C188 C187 1.369 . S
C188 H191 0.928 . S
C189 N185 1.345 . S
C189 C190 1.371 . S
C189 H192 0.931 . S
C190 C186 1.391 . S
C190 C189 1.371 . S
C190 H197 0.930 . S
H191 C188 0.928 . S
H192 C189 0.931 . S
H193 C169 0.930 . S
H194 C166 0.930 . S
H195 C175 0.930 . S
H196 C187 0.929 . S
H197 C190 0.930 . S
C198 C199 1.351 . S
C198 N201 1.368 . S
C198 H203 0.931 . S
C199 C198 1.351 . S
C199 N200 1.373 . S
C199 H227 0.930 . S
N200 C199 1.373 . S
N200 C202 1.340 . S
N201 C198 1.368 . S
N201 C202 1.321 . S
N201 Co204 2.135 . S
C202 N200 1.340 . S
C202 N201 1.321 . S
C202 H226 0.930 . S
H203 C198 0.931 . S
Co204 N201 2.135 . S
Co204 N207 2.121 . S
Co204 O212 2.055 . S
Co204 O215 2.039 . S
Co204 N218 2.140 . S
C205 O206 1.227 . S
C205 O215 1.265 . S
O206 C205 1.227 . S
N207 Co204 2.121 . S
N207 C209 1.375 . S
N207 C210 1.313 . S
C208 C209 1.338 . S
C208 N211 1.377 . S
C208 H228 0.930 . S
C209 N207 1.375 . S
C209 C208 1.338 . S
C209 H213 0.931 . S
C210 N207 1.313 . S
C210 N211 1.344 . S
C210 H214 0.930 . S
N211 C208 1.377 . S
N211 C210 1.344 . S
O212 Co204 2.055 . S
O212 C216 1.253 . S
H213 C209 0.931 . S
H214 C210 0.930 . S
O215 Co204 2.039 . S
O215 C205 1.265 . S
C216 O212 1.253 . S
C216 O217 1.227 . S
O217 C216 1.227 . S
N218 Co204 2.140 . S
N218 C221 1.346 . S
N218 C222 1.345 . S
C219 C220 1.387 . S
C219 C223 1.391 . S
C220 C219 1.387 . S
C220 C221 1.369 . S
C220 H229 0.929 . S
C221 N218 1.346 . S
C221 C220 1.369 . S
C221 H224 0.928 . S
C222 N218 1.345 . S
C222 C223 1.371 . S
C222 H225 0.931 . S
C223 C219 1.391 . S
C223 C222 1.371 . S
C223 H230 0.930 . S
H224 C221 0.928 . S
H225 C222 0.931 . S
H226 C202 0.930 . S
H227 C199 0.930 . S
H228 C208 0.930 . S
H229 C220 0.929 . S
H230 C223 0.930 . S
C231 C232 1.351 . S
C231 N234 1.368 1_655 S
C231 H236 0.924 1_655 S
C232 C231 1.351 . S
C232 N233 1.373 . S
C232 H260 0.930 . S
N233 C232 1.373 . S
N233 C235 1.340 . S
N234 C231 1.368 1_455 S
N234 C235 1.321 1_455 S
N234 Co237 2.135 1_545 S
C235 N233 1.340 . S
C235 N234 1.321 1_655 S
C235 H259 0.930 . S
H236 C231 0.924 1_455 S
Co237 N234 2.135 1_565 S
Co237 N240 2.121 . S
Co237 O245 2.055 1_565 S
Co237 O248 2.039 1_565 S
Co237 N251 2.140 . S
C238 O239 1.227 1_545 S
C238 O248 1.265 . S
O239 C238 1.227 1_565 S
N240 Co237 2.121 . S
N240 C242 1.375 . S
N240 C243 1.313 . S
C241 C242 1.338 . S
C241 N244 1.377 . S
C241 H261 0.930 . S
C242 N240 1.375 . S
C242 C241 1.338 . S
C242 H246 0.931 . S
C243 N240 1.313 . S
C243 N244 1.344 . S
C243 H247 0.930 1_565 S
N244 C241 1.377 . S
N244 C243 1.344 . S
O245 Co237 2.055 1_545 S
O245 C249 1.253 . S
H246 C242 0.931 . S
H247 C243 0.930 1_545 S
O248 Co237 2.039 1_545 S
O248 C238 1.265 . S
C249 O245 1.253 . S
C249 O250 1.227 1_545 S
O250 C249 1.227 1_565 S
N251 Co237 2.140 . S
N251 C254 1.346 . S
N251 C255 1.345 . S
C252 C253 1.387 . S
C252 C256 1.391 . S
C253 C252 1.387 . S
C253 C254 1.369 . S
C253 H262 0.929 1_455 S
C254 N251 1.346 . S
C254 C253 1.369 . S
C254 H257 0.928 . S
C255 N251 1.345 . S
C255 C256 1.371 . S
C255 H258 0.931 . S
C256 C252 1.391 . S
C256 C255 1.371 . S
C256 H263 0.930 . S
H257 C254 0.928 . S
H258 C255 0.931 . S
H259 C235 0.930 . S
H260 C232 0.930 . S
H261 C241 0.930 . S
H262 C253 0.929 1_655 S
H263 C256 0.930 . S
C264 C265 1.351 . S
C264 N267 1.368 . S
C264 H269 0.931 . S
C265 C264 1.351 . S
C265 N266 1.373 . S
C265 H293 0.930 . S
N266 C265 1.373 . S
N266 C268 1.340 . S
N267 C264 1.368 . S
N267 C268 1.321 . S
N267 Co270 2.135 . S
C268 N266 1.340 . S
C268 N267 1.321 . S
C268 H292 0.930 . S
H269 C264 0.931 . S
Co270 N267 2.135 . S
Co270 N273 2.121 . S
Co270 O278 2.055 . S
Co270 O281 2.039 . S
Co270 N284 2.140 . S
C271 O272 1.227 . S
C271 O281 1.265 . S
O272 C271 1.227 . S
N273 Co270 2.121 . S
N273 C275 1.375 . S
N273 C276 1.313 . S
C274 C275 1.338 . S
C274 N277 1.377 . S
C274 H294 0.930 . S
C275 N273 1.375 . S
C275 C274 1.338 . S
C275 H279 0.931 . S
C276 N273 1.313 . S
C276 N277 1.344 . S
C276 H280 0.930 . S
N277 C274 1.377 . S
N277 C276 1.344 . S
O278 Co270 2.055 . S
O278 C282 1.253 . S
H279 C275 0.931 . S
H280 C276 0.930 . S
O281 Co270 2.039 . S
O281 C271 1.265 . S
C282 O278 1.253 . S
C282 O283 1.227 . S
O283 C282 1.227 . S
N284 Co270 2.140 . S
N284 C287 1.346 . S
N284 C288 1.345 . S
C285 C286 1.387 . S
C285 C289 1.391 . S
C286 C285 1.387 . S
C286 C287 1.369 . S
C286 H295 0.929 . S
C287 N284 1.346 . S
C287 C286 1.369 . S
C287 H290 0.928 . S
C288 N284 1.345 . S
C288 C289 1.371 . S
C288 H291 0.931 . S
C289 C285 1.391 . S
C289 C288 1.371 . S
C289 H296 0.930 . S
H290 C287 0.928 . S
H291 C288 0.931 . S
H292 C268 0.930 . S
H293 C265 0.930 . S
H294 C274 0.930 . S
H295 C286 0.929 . S
H296 C289 0.930 . S
C297 C298 1.351 . S
C297 N300 1.368 1_455 S
C297 H302 0.924 1_455 S
C298 C297 1.351 . S
C298 N299 1.373 . S
C298 H326 0.930 . S
N299 C298 1.373 . S
N299 C301 1.340 . S
N300 C297 1.368 1_655 S
N300 C301 1.321 1_655 S
N300 Co303 2.135 1_545 S
C301 N299 1.340 . S
C301 N300 1.321 1_455 S
C301 H325 0.930 . S
H302 C297 0.924 1_655 S
Co303 N300 2.135 1_565 S
Co303 N306 2.121 . S
Co303 O311 2.055 1_565 S
Co303 O314 2.039 1_565 S
Co303 N317 2.140 . S
C304 O305 1.227 1_545 S
C304 O314 1.265 . S
O305 C304 1.227 1_565 S
N306 Co303 2.121 . S
N306 C308 1.375 . S
N306 C309 1.313 . S
C307 C308 1.338 . S
C307 N310 1.377 . S
C307 H327 0.930 . S
C308 N306 1.375 . S
C308 C307 1.338 . S
C308 H312 0.931 . S
C309 N306 1.313 . S
C309 N310 1.344 . S
C309 H313 0.930 1_565 S
N310 C307 1.377 . S
N310 C309 1.344 . S
O311 Co303 2.055 1_545 S
O311 C315 1.253 . S
H312 C308 0.931 . S
H313 C309 0.930 1_545 S
O314 Co303 2.039 1_545 S
O314 C304 1.265 . S
C315 O311 1.253 . S
C315 O316 1.227 1_545 S
O316 C315 1.227 1_565 S
N317 Co303 2.140 . S
N317 C320 1.346 . S
N317 C321 1.345 . S
C318 C319 1.387 . S
C318 C322 1.391 . S
C319 C318 1.387 . S
C319 C320 1.369 . S
C319 H328 0.929 1_655 S
C320 N317 1.346 . S
C320 C319 1.369 . S
C320 H323 0.928 . S
C321 N317 1.345 . S
C321 C322 1.371 . S
C321 H324 0.931 . S
C322 C318 1.391 . S
C322 C321 1.371 . S
C322 H329 0.930 . S
H323 C320 0.928 . S
H324 C321 0.931 . S
H325 C301 0.930 . S
H326 C298 0.930 . S
H327 C307 0.930 . S
H328 C319 0.929 1_455 S
H329 C322 0.930 . S
C330 C331 1.351 . S
C330 N333 1.368 . S
C330 H335 0.931 . S
C331 C330 1.351 . S
C331 N332 1.373 . S
C331 H359 0.930 . S
N332 C331 1.373 . S
N332 C334 1.340 . S
N333 C330 1.368 . S
N333 C334 1.321 . S
N333 Co336 2.135 . S
C334 N332 1.340 . S
C334 N333 1.321 . S
C334 H358 0.930 . S
H335 C330 0.931 . S
Co336 N333 2.135 . S
Co336 N339 2.121 . S
Co336 O344 2.055 . S
Co336 O347 2.039 . S
Co336 N350 2.140 . S
C337 O338 1.227 . S
C337 O347 1.265 . S
O338 C337 1.227 . S
N339 Co336 2.121 . S
N339 C341 1.375 . S
N339 C342 1.313 . S
C340 C341 1.338 . S
C340 N343 1.377 . S
C340 H360 0.930 . S
C341 N339 1.375 . S
C341 C340 1.338 . S
C341 H345 0.931 . S
C342 N339 1.313 . S
C342 N343 1.344 . S
C342 H346 0.930 . S
N343 C340 1.377 . S
N343 C342 1.344 . S
O344 Co336 2.055 . S
O344 C348 1.253 . S
H345 C341 0.931 . S
H346 C342 0.930 . S
O347 Co336 2.039 . S
O347 C337 1.265 . S
C348 O344 1.253 . S
C348 O349 1.227 . S
O349 C348 1.227 . S
N350 Co336 2.140 . S
N350 C353 1.346 . S
N350 C354 1.345 . S
C351 C352 1.387 . S
C351 C355 1.391 . S
C352 C351 1.387 . S
C352 C353 1.369 . S
C352 H361 0.929 . S
C353 N350 1.346 . S
C353 C352 1.369 . S
C353 H356 0.928 . S
C354 N350 1.345 . S
C354 C355 1.371 . S
C354 H357 0.931 . S
C355 C351 1.391 . S
C355 C354 1.371 . S
C355 H362 0.930 . S
H356 C353 0.928 . S
H357 C354 0.931 . S
H358 C334 0.930 . S
H359 C331 0.930 . S
H360 C340 0.930 . S
H361 C352 0.929 . S
H362 C355 0.930 . S
C363 C364 1.351 . S
C363 N366 1.368 . S
C363 H368 0.931 . S
C364 C363 1.351 . S
C364 N365 1.373 . S
C364 H392 0.930 . S
N365 C364 1.373 . S
N365 C367 1.340 . S
N366 C363 1.368 . S
N366 C367 1.321 . S
N366 Co369 2.135 1_565 S
C367 N365 1.340 . S
C367 N366 1.321 . S
C367 H391 0.930 . S
H368 C363 0.931 . S
Co369 N366 2.135 1_545 S
Co369 N372 2.121 . S
Co369 O377 2.055 1_545 S
Co369 O380 2.039 1_545 S
Co369 N383 2.140 . S
C370 O371 1.227 1_565 S
C370 O380 1.265 . S
O371 C370 1.227 1_545 S
N372 Co369 2.121 . S
N372 C374 1.375 . S
N372 C375 1.313 . S
C373 C374 1.338 . S
C373 N376 1.377 . S
C373 H393 0.930 . S
C374 N372 1.375 . S
C374 C373 1.338 . S
C374 H378 0.931 . S
C375 N372 1.313 . S
C375 N376 1.344 . S
C375 H379 0.930 1_545 S
N376 C373 1.377 . S
N376 C375 1.344 . S
O377 Co369 2.055 1_565 S
O377 C381 1.253 . S
H378 C374 0.931 . S
H379 C375 0.930 1_565 S
O380 Co369 2.039 1_565 S
O380 C370 1.265 . S
C381 O377 1.253 . S
C381 O382 1.227 1_565 S
O382 C381 1.227 1_545 S
N383 Co369 2.140 . S
N383 C386 1.346 . S
N383 C387 1.345 . S
C384 C385 1.387 . S
C384 C388 1.391 . S
C385 C384 1.387 . S
C385 C386 1.369 . S
C385 H394 0.929 . S
C386 N383 1.346 . S
C386 C385 1.369 . S
C386 H389 0.928 . S
C387 N383 1.345 . S
C387 C388 1.371 . S
C387 H390 0.931 . S
C388 C384 1.391 . S
C388 C387 1.371 . S
C388 H395 0.930 . S
H389 C386 0.928 . S
H390 C387 0.931 . S
H391 C367 0.930 . S
H392 C364 0.930 . S
H393 C373 0.930 . S
H394 C385 0.929 . S
H395 C388 0.930 . S
C396 C397 1.351 . S
C396 N399 1.368 . S
C396 H401 0.931 . S
C397 C396 1.351 . S
C397 N398 1.373 . S
C397 H425 0.930 . S
N398 C397 1.373 . S
N398 C400 1.340 . S
N399 C396 1.368 . S
N399 C400 1.321 . S
N399 Co402 2.135 . S
C400 N398 1.340 . S
C400 N399 1.321 . S
C400 H424 0.930 . S
H401 C396 0.931 . S
Co402 N399 2.135 . S
Co402 N405 2.121 . S
Co402 O410 2.055 . S
Co402 O413 2.039 . S
Co402 N416 2.140 . S
C403 O404 1.227 . S
C403 O413 1.265 . S
O404 C403 1.227 . S
N405 Co402 2.121 . S
N405 C407 1.375 . S
N405 C408 1.313 . S
C406 C407 1.338 . S
C406 N409 1.377 . S
C406 H426 0.930 . S
C407 N405 1.375 . S
C407 C406 1.338 . S
C407 H411 0.931 . S
C408 N405 1.313 . S
C408 N409 1.344 . S
C408 H412 0.930 . S
N409 C406 1.377 . S
N409 C408 1.344 . S
O410 Co402 2.055 . S
O410 C414 1.253 . S
H411 C407 0.931 . S
H412 C408 0.930 . S
O413 Co402 2.039 . S
O413 C403 1.265 . S
C414 O410 1.253 . S
C414 O415 1.227 . S
O415 C414 1.227 . S
N416 Co402 2.140 . S
N416 C419 1.346 . S
N416 C420 1.345 . S
C417 C418 1.387 . S
C417 C421 1.391 . S
C418 C417 1.387 . S
C418 C419 1.369 . S
C418 H427 0.929 . S
C419 N416 1.346 . S
C419 C418 1.369 . S
C419 H422 0.928 . S
C420 N416 1.345 . S
C420 C421 1.371 . S
C420 H423 0.931 . S
C421 C417 1.391 . S
C421 C420 1.371 . S
C421 H428 0.930 . S
H422 C419 0.928 . S
H423 C420 0.931 . S
H424 C400 0.930 . S
H425 C397 0.930 . S
H426 C406 0.930 . S
H427 C418 0.929 . S
H428 C421 0.930 . S
C429 C430 1.351 . S
C429 N432 1.368 . S
C429 H434 0.931 . S
C430 C429 1.351 . S
C430 N431 1.373 . S
C430 H458 0.930 . S
N431 C430 1.373 . S
N431 C433 1.340 . S
N432 C429 1.368 . S
N432 C433 1.321 . S
N432 Co435 2.135 1_545 S
C433 N431 1.340 . S
C433 N432 1.321 . S
C433 H457 0.930 . S
H434 C429 0.931 . S
Co435 N432 2.135 1_565 S
Co435 N438 2.121 . S
Co435 O443 2.055 1_565 S
Co435 O446 2.039 1_565 S
Co435 N449 2.140 . S
C436 O437 1.227 1_545 S
C436 O446 1.265 . S
O437 C436 1.227 1_565 S
N438 Co435 2.121 . S
N438 C440 1.375 . S
N438 C441 1.313 . S
C439 C440 1.338 . S
C439 N442 1.377 . S
C439 H459 0.930 . S
C440 N438 1.375 . S
C440 C439 1.338 . S
C440 H444 0.931 . S
C441 N438 1.313 . S
C441 N442 1.344 . S
C441 H445 0.930 1_565 S
N442 C439 1.377 . S
N442 C441 1.344 . S
O443 Co435 2.055 1_545 S
O443 C447 1.253 . S
H444 C440 0.931 . S
H445 C441 0.930 1_545 S
O446 Co435 2.039 1_545 S
O446 C436 1.265 . S
C447 O443 1.253 . S
C447 O448 1.227 1_545 S
O448 C447 1.227 1_565 S
N449 Co435 2.140 . S
N449 C452 1.346 . S
N449 C453 1.345 . S
C450 C451 1.387 . S
C450 C454 1.391 . S
C451 C450 1.387 . S
C451 C452 1.369 . S
C451 H460 0.929 . S
C452 N449 1.346 . S
C452 C451 1.369 . S
C452 H455 0.928 . S
C453 N449 1.345 . S
C453 C454 1.371 . S
C453 H456 0.931 . S
C454 C450 1.391 . S
C454 C453 1.371 . S
C454 H461 0.930 . S
H455 C452 0.928 . S
H456 C453 0.931 . S
H457 C433 0.930 . S
H458 C430 0.930 . S
H459 C439 0.930 . S
H460 C451 0.929 . S
H461 C454 0.930 . S
C462 C463 1.351 . S
C462 N465 1.368 . S
C462 H467 0.931 . S
C463 C462 1.351 . S
C463 N464 1.373 . S
C463 H491 0.930 . S
N464 C463 1.373 . S
N464 C466 1.340 . S
N465 C462 1.368 . S
N465 C466 1.321 . S
N465 Co468 2.135 . S
C466 N464 1.340 . S
C466 N465 1.321 . S
C466 H490 0.930 . S
H467 C462 0.931 . S
Co468 N465 2.135 . S
Co468 N471 2.121 . S
Co468 O476 2.055 . S
Co468 O479 2.039 . S
Co468 N482 2.140 . S
C469 O470 1.227 . S
C469 O479 1.265 . S
O470 C469 1.227 . S
N471 Co468 2.121 . S
N471 C473 1.375 . S
N471 C474 1.313 . S
C472 C473 1.338 . S
C472 N475 1.377 . S
C472 H492 0.930 . S
C473 N471 1.375 . S
C473 C472 1.338 . S
C473 H477 0.931 . S
C474 N471 1.313 . S
C474 N475 1.344 . S
C474 H478 0.930 . S
N475 C472 1.377 . S
N475 C474 1.344 . S
O476 Co468 2.055 . S
O476 C480 1.253 . S
H477 C473 0.931 . S
H478 C474 0.930 . S
O479 Co468 2.039 . S
O479 C469 1.265 . S
C480 O476 1.253 . S
C480 O481 1.227 . S
O481 C480 1.227 . S
N482 Co468 2.140 . S
N482 C485 1.346 . S
N482 C486 1.345 . S
C483 C484 1.387 . S
C483 C487 1.391 . S
C484 C483 1.387 . S
C484 C485 1.369 . S
C484 H493 0.929 . S
C485 N482 1.346 . S
C485 C484 1.369 . S
C485 H488 0.928 . S
C486 N482 1.345 . S
C486 C487 1.371 . S
C486 H489 0.931 . S
C487 C483 1.391 . S
C487 C486 1.371 . S
C487 H494 0.930 . S
H488 C485 0.928 . S
H489 C486 0.931 . S
H490 C466 0.930 . S
H491 C463 0.930 . S
H492 C472 0.930 . S
H493 C484 0.929 . S
H494 C487 0.930 . S
C495 C496 1.351 . S
C495 N498 1.368 1_455 S
C495 H500 0.924 1_455 S
C496 C495 1.351 . S
C496 N497 1.373 . S
C496 H524 0.930 . S
N497 C496 1.373 . S
N497 C499 1.340 . S
N498 C495 1.368 1_655 S
N498 C499 1.321 1_655 S
N498 Co501 2.135 1_565 S
C499 N497 1.340 . S
C499 N498 1.321 1_455 S
C499 H523 0.930 . S
H500 C495 0.924 1_655 S
Co501 N498 2.135 1_545 S
Co501 N504 2.121 . S
Co501 O509 2.055 1_545 S
Co501 O512 2.039 1_545 S
Co501 N515 2.140 . S
C502 O503 1.227 1_565 S
C502 O512 1.265 . S
O503 C502 1.227 1_545 S
N504 Co501 2.121 . S
N504 C506 1.375 . S
N504 C507 1.313 . S
C505 C506 1.338 . S
C505 N508 1.377 . S
C505 H525 0.930 . S
C506 N504 1.375 . S
C506 C505 1.338 . S
C506 H510 0.931 . S
C507 N504 1.313 . S
C507 N508 1.344 . S
C507 H511 0.930 1_545 S
N508 C505 1.377 . S
N508 C507 1.344 . S
O509 Co501 2.055 1_565 S
O509 C513 1.253 . S
H510 C506 0.931 . S
H511 C507 0.930 1_565 S
O512 Co501 2.039 1_565 S
O512 C502 1.265 . S
C513 O509 1.253 . S
C513 O514 1.227 1_565 S
O514 C513 1.227 1_545 S
N515 Co501 2.140 . S
N515 C518 1.346 . S
N515 C519 1.345 . S
C516 C517 1.387 . S
C516 C520 1.391 . S
C517 C516 1.387 . S
C517 C518 1.369 . S
C517 H526 0.929 1_655 S
C518 N515 1.346 . S
C518 C517 1.369 . S
C518 H521 0.928 . S
C519 N515 1.345 . S
C519 C520 1.371 . S
C519 H522 0.931 . S
C520 C516 1.391 . S
C520 C519 1.371 . S
C520 H527 0.930 . S
H521 C518 0.928 . S
H522 C519 0.931 . S
H523 C499 0.930 . S
H524 C496 0.930 . S
H525 C505 0.930 . S
H526 C517 0.929 1_455 S
H527 C520 0.930 . S
C528 C529 1.351 . S
C528 N531 1.368 . S
C528 H533 0.931 . S
C529 C528 1.351 . S
C529 N530 1.373 . S
C529 H557 0.930 . S
N530 C529 1.373 . S
N530 C532 1.340 . S
N531 C528 1.368 . S
N531 C532 1.321 . S
N531 Co534 2.135 . S
C532 N530 1.340 . S
C532 N531 1.321 . S
C532 H556 0.930 . S
H533 C528 0.931 . S
Co534 N531 2.135 . S
Co534 N537 2.121 . S
Co534 O542 2.055 . S
Co534 O545 2.039 . S
Co534 N548 2.140 . S
C535 O536 1.227 . S
C535 O545 1.265 . S
O536 C535 1.227 . S
N537 Co534 2.121 . S
N537 C539 1.375 . S
N537 C540 1.313 . S
C538 C539 1.338 . S
C538 N541 1.377 . S
C538 H558 0.930 . S
C539 N537 1.375 . S
C539 C538 1.338 . S
C539 H543 0.931 . S
C540 N537 1.313 . S
C540 N541 1.344 . S
C540 H544 0.930 . S
N541 C538 1.377 . S
N541 C540 1.344 . S
O542 Co534 2.055 . S
O542 C546 1.253 . S
H543 C539 0.931 . S
H544 C540 0.930 . S
O545 Co534 2.039 . S
O545 C535 1.265 . S
C546 O542 1.253 . S
C546 O547 1.227 . S
O547 C546 1.227 . S
N548 Co534 2.140 . S
N548 C551 1.346 . S
N548 C552 1.345 . S
C549 C550 1.387 . S
C549 C553 1.391 . S
C550 C549 1.387 . S
C550 C551 1.369 . S
C550 H559 0.929 . S
C551 N548 1.346 . S
C551 C550 1.369 . S
C551 H554 0.928 . S
C552 N548 1.345 . S
C552 C553 1.371 . S
C552 H555 0.931 . S
C553 C549 1.391 . S
C553 C552 1.371 . S
C553 H560 0.930 . S
H554 C551 0.928 . S
H555 C552 0.931 . S
H556 C532 0.930 . S
H557 C529 0.930 . S
H558 C538 0.930 . S
H559 C550 0.929 . S
H560 C553 0.930 . S
C561 C562 1.351 . S
C561 N564 1.368 . S
C561 H566 0.931 . S
C562 C561 1.351 . S
C562 N563 1.373 . S
C562 H590 0.930 . S
N563 C562 1.373 . S
N563 C565 1.340 . S
N564 C561 1.368 . S
N564 C565 1.321 . S
N564 Co567 2.135 . S
C565 N563 1.340 . S
C565 N564 1.321 . S
C565 H589 0.930 . S
H566 C561 0.931 . S
Co567 N564 2.135 . S
Co567 N570 2.121 . S
Co567 O575 2.055 . S
Co567 O578 2.039 . S
Co567 N581 2.140 . S
C568 O569 1.227 . S
C568 O578 1.265 . S
O569 C568 1.227 . S
N570 Co567 2.121 . S
N570 C572 1.375 . S
N570 C573 1.313 . S
C571 C572 1.338 . S
C571 N574 1.377 . S
C571 H591 0.930 . S
C572 N570 1.375 . S
C572 C571 1.338 . S
C572 H576 0.931 . S
C573 N570 1.313 . S
C573 N574 1.344 . S
C573 H577 0.930 . S
N574 C571 1.377 . S
N574 C573 1.344 . S
O575 Co567 2.055 . S
O575 C579 1.253 . S
H576 C572 0.931 . S
H577 C573 0.930 . S
O578 Co567 2.039 . S
O578 C568 1.265 . S
C579 O575 1.253 . S
C579 O580 1.227 . S
O580 C579 1.227 . S
N581 Co567 2.140 . S
N581 C584 1.346 . S
N581 C585 1.345 . S
C582 C583 1.387 . S
C582 C586 1.391 . S
C583 C582 1.387 . S
C583 C584 1.369 . S
C583 H592 0.929 . S
C584 N581 1.346 . S
C584 C583 1.369 . S
C584 H587 0.928 . S
C585 N581 1.345 . S
C585 C586 1.371 . S
C585 H588 0.931 . S
C586 C582 1.391 . S
C586 C585 1.371 . S
C586 H593 0.930 . S
H587 C584 0.928 . S
H588 C585 0.931 . S
H589 C565 0.930 . S
H590 C562 0.930 . S
H591 C571 0.930 . S
H592 C583 0.929 . S
H593 C586 0.930 . S
C594 C595 1.351 . S
C594 N597 1.368 . S
C594 H599 0.931 . S
C595 C594 1.351 . S
C595 N596 1.373 . S
C595 H623 0.930 . S
N596 C595 1.373 . S
N596 C598 1.340 . S
N597 C594 1.368 . S
N597 C598 1.321 . S
N597 Co600 2.135 . S
C598 N596 1.340 . S
C598 N597 1.321 . S
C598 H622 0.930 . S
H599 C594 0.931 . S
Co600 N597 2.135 . S
Co600 N603 2.121 . S
Co600 O608 2.055 . S
Co600 O611 2.039 . S
Co600 N614 2.140 . S
C601 O602 1.227 . S
C601 O611 1.265 . S
O602 C601 1.227 . S
N603 Co600 2.121 . S
N603 C605 1.375 . S
N603 C606 1.313 . S
C604 C605 1.338 . S
C604 N607 1.377 . S
C604 H624 0.930 . S
C605 N603 1.375 . S
C605 C604 1.338 . S
C605 H609 0.931 . S
C606 N603 1.313 . S
C606 N607 1.344 . S
C606 H610 0.930 . S
N607 C604 1.377 . S
N607 C606 1.344 . S
O608 Co600 2.055 . S
O608 C612 1.253 . S
H609 C605 0.931 . S
H610 C606 0.930 . S
O611 Co600 2.039 . S
O611 C601 1.265 . S
C612 O608 1.253 . S
C612 O613 1.227 . S
O613 C612 1.227 . S
N614 Co600 2.140 . S
N614 C617 1.346 . S
N614 C618 1.345 . S
C615 C616 1.387 . S
C615 C619 1.391 . S
C616 C615 1.387 . S
C616 C617 1.369 . S
C616 H625 0.929 . S
C617 N614 1.346 . S
C617 C616 1.369 . S
C617 H620 0.928 . S
C618 N614 1.345 . S
C618 C619 1.371 . S
C618 H621 0.931 . S
C619 C615 1.391 . S
C619 C618 1.371 . S
C619 H626 0.930 . S
H620 C617 0.928 . S
H621 C618 0.931 . S
H622 C598 0.930 . S
H623 C595 0.930 . S
H624 C604 0.930 . S
H625 C616 0.929 . S
H626 C619 0.930 . S
C627 C628 1.351 . S
C627 N630 1.368 1_455 S
C627 H632 0.924 1_455 S
C628 C627 1.351 . S
C628 N629 1.373 . S
C628 H656 0.930 . S
N629 C628 1.373 . S
N629 C631 1.340 . S
N630 C627 1.368 1_655 S
N630 C631 1.321 1_655 S
N630 Co633 2.135 . S
C631 N629 1.340 . S
C631 N630 1.321 1_455 S
C631 H655 0.930 . S
H632 C627 0.924 1_655 S
Co633 N630 2.135 . S
Co633 N636 2.121 . S
Co633 O641 2.055 . S
Co633 O644 2.039 . S
Co633 N647 2.140 . S
C634 O635 1.227 . S
C634 O644 1.265 . S
O635 C634 1.227 . S
N636 Co633 2.121 . S
N636 C638 1.375 . S
N636 C639 1.313 . S
C637 C638 1.338 . S
C637 N640 1.377 . S
C637 H657 0.930 . S
C638 N636 1.375 . S
C638 C637 1.338 . S
C638 H642 0.931 . S
C639 N636 1.313 . S
C639 N640 1.344 . S
C639 H643 0.930 . S
N640 C637 1.377 . S
N640 C639 1.344 . S
O641 Co633 2.055 . S
O641 C645 1.253 . S
H642 C638 0.931 . S
H643 C639 0.930 . S
O644 Co633 2.039 . S
O644 C634 1.265 . S
C645 O641 1.253 . S
C645 O646 1.227 . S
O646 C645 1.227 . S
N647 Co633 2.140 . S
N647 C650 1.346 . S
N647 C651 1.345 . S
C648 C649 1.387 . S
C648 C652 1.391 . S
C649 C648 1.387 . S
C649 C650 1.369 . S
C649 H658 0.929 1_655 S
C650 N647 1.346 . S
C650 C649 1.369 . S
C650 H653 0.928 . S
C651 N647 1.345 . S
C651 C652 1.371 . S
C651 H654 0.931 . S
C652 C648 1.391 . S
C652 C651 1.371 . S
C652 H659 0.930 . S
H653 C650 0.928 . S
H654 C651 0.931 . S
H655 C631 0.930 . S
H656 C628 0.930 . S
H657 C637 0.930 . S
H658 C649 0.929 1_455 S
H659 C652 0.930 . S
C660 C661 1.351 . S
C660 N663 1.368 . S
C660 H665 0.931 . S
C661 C660 1.351 . S
C661 N662 1.373 . S
C661 H689 0.930 . S
N662 C661 1.373 . S
N662 C664 1.340 . S
N663 C660 1.368 . S
N663 C664 1.321 . S
N663 Co666 2.135 . S
C664 N662 1.340 . S
C664 N663 1.321 . S
C664 H688 0.930 . S
H665 C660 0.931 . S
Co666 N663 2.135 . S
Co666 N669 2.121 . S
Co666 O674 2.055 . S
Co666 O677 2.039 . S
Co666 N680 2.140 . S
C667 O668 1.227 . S
C667 O677 1.265 . S
O668 C667 1.227 . S
N669 Co666 2.121 . S
N669 C671 1.375 . S
N669 C672 1.313 . S
C670 C671 1.338 . S
C670 N673 1.377 . S
C670 H690 0.930 . S
C671 N669 1.375 . S
C671 C670 1.338 . S
C671 H675 0.931 . S
C672 N669 1.313 . S
C672 N673 1.344 . S
C672 H676 0.930 . S
N673 C670 1.377 . S
N673 C672 1.344 . S
O674 Co666 2.055 . S
O674 C678 1.253 . S
H675 C671 0.931 . S
H676 C672 0.930 . S
O677 Co666 2.039 . S
O677 C667 1.265 . S
C678 O674 1.253 . S
C678 O679 1.227 . S
O679 C678 1.227 . S
N680 Co666 2.140 . S
N680 C683 1.346 . S
N680 C684 1.345 . S
C681 C682 1.387 . S
C681 C685 1.391 . S
C682 C681 1.387 . S
C682 C683 1.369 . S
C682 H691 0.929 . S
C683 N680 1.346 . S
C683 C682 1.369 . S
C683 H686 0.928 . S
C684 N680 1.345 . S
C684 C685 1.371 . S
C684 H687 0.931 . S
C685 C681 1.391 . S
C685 C684 1.371 . S
C685 H692 0.930 . S
H686 C683 0.928 . S
H687 C684 0.931 . S
H688 C664 0.930 . S
H689 C661 0.930 . S
H690 C670 0.930 . S
H691 C682 0.929 . S
H692 C685 0.930 . S
C693 C694 1.351 . S
C693 N696 1.368 1_455 S
C693 H698 0.924 1_455 S
C694 C693 1.351 . S
C694 N695 1.373 . S
C694 H722 0.930 . S
N695 C694 1.373 . S
N695 C697 1.340 . S
N696 C693 1.368 1_655 S
N696 C697 1.321 1_655 S
N696 Co699 2.135 . S
C697 N695 1.340 . S
C697 N696 1.321 1_455 S
C697 H721 0.930 . S
H698 C693 0.924 1_655 S
Co699 N696 2.135 . S
Co699 N702 2.121 . S
Co699 O707 2.055 . S
Co699 O710 2.039 . S
Co699 N713 2.140 . S
C700 O701 1.227 . S
C700 O710 1.265 . S
O701 C700 1.227 . S
N702 Co699 2.121 . S
N702 C704 1.375 . S
N702 C705 1.313 . S
C703 C704 1.338 . S
C703 N706 1.377 . S
C703 H723 0.930 . S
C704 N702 1.375 . S
C704 C703 1.338 . S
C704 H708 0.931 . S
C705 N702 1.313 . S
C705 N706 1.344 . S
C705 H709 0.930 . S
N706 C703 1.377 . S
N706 C705 1.344 . S
O707 Co699 2.055 . S
O707 C711 1.253 . S
H708 C704 0.931 . S
H709 C705 0.930 . S
O710 Co699 2.039 . S
O710 C700 1.265 . S
C711 O707 1.253 . S
C711 O712 1.227 . S
O712 C711 1.227 . S
N713 Co699 2.140 . S
N713 C716 1.346 . S
N713 C717 1.345 . S
C714 C715 1.387 . S
C714 C718 1.391 . S
C715 C714 1.387 . S
C715 C716 1.369 . S
C715 H724 0.929 1_655 S
C716 N713 1.346 . S
C716 C715 1.369 . S
C716 H719 0.928 . S
C717 N713 1.345 . S
C717 C718 1.371 . S
C717 H720 0.931 . S
C718 C714 1.391 . S
C718 C717 1.371 . S
C718 H725 0.930 . S
H719 C716 0.928 . S
H720 C717 0.931 . S
H721 C697 0.930 . S
H722 C694 0.930 . S
H723 C703 0.930 . S
H724 C715 0.929 1_455 S
H725 C718 0.930 . S
C726 C727 1.351 . S
C726 N729 1.368 . S
C726 H731 0.931 . S
C727 C726 1.351 . S
C727 N728 1.373 . S
C727 H755 0.930 . S
N728 C727 1.373 . S
N728 C730 1.340 . S
N729 C726 1.368 . S
N729 C730 1.321 . S
N729 Co732 2.135 . S
C730 N728 1.340 . S
C730 N729 1.321 . S
C730 H754 0.930 . S
H731 C726 0.931 . S
Co732 N729 2.135 . S
Co732 N735 2.121 . S
Co732 O740 2.055 . S
Co732 O743 2.039 . S
Co732 N746 2.140 . S
C733 O734 1.227 . S
C733 O743 1.265 . S
O734 C733 1.227 . S
N735 Co732 2.121 . S
N735 C737 1.375 . S
N735 C738 1.313 . S
C736 C737 1.338 . S
C736 N739 1.377 . S
C736 H756 0.930 . S
C737 N735 1.375 . S
C737 C736 1.338 . S
C737 H741 0.931 . S
C738 N735 1.313 . S
C738 N739 1.344 . S
C738 H742 0.930 . S
N739 C736 1.377 . S
N739 C738 1.344 . S
O740 Co732 2.055 . S
O740 C744 1.253 . S
H741 C737 0.931 . S
H742 C738 0.930 . S
O743 Co732 2.039 . S
O743 C733 1.265 . S
C744 O740 1.253 . S
C744 O745 1.227 . S
O745 C744 1.227 . S
N746 Co732 2.140 . S
N746 C749 1.346 . S
N746 C750 1.345 . S
C747 C748 1.387 . S
C747 C751 1.391 . S
C748 C747 1.387 . S
C748 C749 1.369 . S
C748 H757 0.929 . S
C749 N746 1.346 . S
C749 C748 1.369 . S
C749 H752 0.928 . S
C750 N746 1.345 . S
C750 C751 1.371 . S
C750 H753 0.931 . S
C751 C747 1.391 . S
C751 C750 1.371 . S
C751 H758 0.930 . S
H752 C749 0.928 . S
H753 C750 0.931 . S
H754 C730 0.930 . S
H755 C727 0.930 . S
H756 C736 0.930 . S
H757 C748 0.929 . S
H758 C751 0.930 . S
C759 C760 1.351 . S
C759 N762 1.368 . S
C759 H764 0.931 . S
C760 C759 1.351 . S
C760 N761 1.373 . S
C760 H788 0.930 . S
N761 C760 1.373 . S
N761 C763 1.340 . S
N762 C759 1.368 . S
N762 C763 1.321 . S
N762 Co765 2.135 . S
C763 N761 1.340 . S
C763 N762 1.321 . S
C763 H787 0.930 . S
H764 C759 0.931 . S
Co765 N762 2.135 . S
Co765 N768 2.121 . S
Co765 O773 2.055 . S
Co765 O776 2.039 . S
Co765 N779 2.140 . S
C766 O767 1.227 . S
C766 O776 1.265 . S
O767 C766 1.227 . S
N768 Co765 2.121 . S
N768 C770 1.375 . S
N768 C771 1.313 . S
C769 C770 1.338 . S
C769 N772 1.377 . S
C769 H789 0.930 . S
C770 N768 1.375 . S
C770 C769 1.338 . S
C770 H774 0.931 . S
C771 N768 1.313 . S
C771 N772 1.344 . S
C771 H775 0.930 . S
N772 C769 1.377 . S
N772 C771 1.344 . S
O773 Co765 2.055 . S
O773 C777 1.253 . S
H774 C770 0.931 . S
H775 C771 0.930 . S
O776 Co765 2.039 . S
O776 C766 1.265 . S
C777 O773 1.253 . S
C777 O778 1.227 . S
O778 C777 1.227 . S
N779 Co765 2.140 . S
N779 C782 1.346 . S
N779 C783 1.345 . S
C780 C781 1.387 . S
C780 C784 1.391 . S
C781 C780 1.387 . S
C781 C782 1.369 . S
C781 H790 0.929 . S
C782 N779 1.346 . S
C782 C781 1.369 . S
C782 H785 0.928 . S
C783 N779 1.345 . S
C783 C784 1.371 . S
C783 H786 0.931 . S
C784 C780 1.391 . S
C784 C783 1.371 . S
C784 H791 0.930 . S
H785 C782 0.928 . S
H786 C783 0.931 . S
H787 C763 0.930 . S
H788 C760 0.930 . S
H789 C769 0.930 . S
H790 C781 0.929 . S
H791 C784 0.930 . S
C792 C793 1.351 . S
C792 N795 1.368 . S
C792 H797 0.931 . S
C793 C792 1.351 . S
C793 N794 1.373 . S
C793 H821 0.930 . S
N794 C793 1.373 . S
N794 C796 1.340 . S
N795 C792 1.368 . S
N795 C796 1.321 . S
N795 Co798 2.135 . S
C796 N794 1.340 . S
C796 N795 1.321 . S
C796 H820 0.930 . S
H797 C792 0.931 . S
Co798 N795 2.135 . S
Co798 N801 2.121 . S
Co798 O806 2.055 . S
Co798 O809 2.039 . S
Co798 N812 2.140 . S
C799 O800 1.227 . S
C799 O809 1.265 . S
O800 C799 1.227 . S
N801 Co798 2.121 . S
N801 C803 1.375 . S
N801 C804 1.313 . S
C802 C803 1.338 . S
C802 N805 1.377 . S
C802 H822 0.930 . S
C803 N801 1.375 . S
C803 C802 1.338 . S
C803 H807 0.931 . S
C804 N801 1.313 . S
C804 N805 1.344 . S
C804 H808 0.930 . S
N805 C802 1.377 . S
N805 C804 1.344 . S
O806 Co798 2.055 . S
O806 C810 1.253 . S
H807 C803 0.931 . S
H808 C804 0.930 . S
O809 Co798 2.039 . S
O809 C799 1.265 . S
C810 O806 1.253 . S
C810 O811 1.227 . S
O811 C810 1.227 . S
N812 Co798 2.140 . S
N812 C815 1.346 . S
N812 C816 1.345 . S
C813 C814 1.387 . S
C813 C817 1.391 . S
C814 C813 1.387 . S
C814 C815 1.369 . S
C814 H823 0.929 . S
C815 N812 1.346 . S
C815 C814 1.369 . S
C815 H818 0.928 . S
C816 N812 1.345 . S
C816 C817 1.371 . S
C816 H819 0.931 . S
C817 C813 1.391 . S
C817 C816 1.371 . S
C817 H824 0.930 . S
H818 C815 0.928 . S
H819 C816 0.931 . S
H820 C796 0.930 . S
H821 C793 0.930 . S
H822 C802 0.930 . S
H823 C814 0.929 . S
H824 C817 0.930 . S
C825 C826 1.351 . S
C825 N828 1.368 . S
C825 H830 0.931 . S
C826 C825 1.351 . S
C826 N827 1.373 . S
C826 H854 0.930 . S
N827 C826 1.373 . S
N827 C829 1.340 . S
N828 C825 1.368 . S
N828 C829 1.321 . S
N828 Co831 2.135 . S
C829 N827 1.340 . S
C829 N828 1.321 . S
C829 H853 0.930 . S
H830 C825 0.931 . S
Co831 N828 2.135 . S
Co831 N834 2.121 . S
Co831 O839 2.055 . S
Co831 O842 2.039 . S
Co831 N845 2.140 . S
C832 O833 1.227 . S
C832 O842 1.265 . S
O833 C832 1.227 . S
N834 Co831 2.121 . S
N834 C836 1.375 . S
N834 C837 1.313 . S
C835 C836 1.338 . S
C835 N838 1.377 . S
C835 H855 0.930 . S
C836 N834 1.375 . S
C836 C835 1.338 . S
C836 H840 0.931 . S
C837 N834 1.313 . S
C837 N838 1.344 . S
C837 H841 0.930 . S
N838 C835 1.377 . S
N838 C837 1.344 . S
O839 Co831 2.055 . S
O839 C843 1.253 . S
H840 C836 0.931 . S
H841 C837 0.930 . S
O842 Co831 2.039 . S
O842 C832 1.265 . S
C843 O839 1.253 . S
C843 O844 1.227 . S
O844 C843 1.227 . S
N845 Co831 2.140 . S
N845 C848 1.346 . S
N845 C849 1.345 . S
C846 C847 1.387 . S
C846 C850 1.391 . S
C847 C846 1.387 . S
C847 C848 1.369 . S
C847 H856 0.929 . S
C848 N845 1.346 . S
C848 C847 1.369 . S
C848 H851 0.928 . S
C849 N845 1.345 . S
C849 C850 1.371 . S
C849 H852 0.931 . S
C850 C846 1.391 . S
C850 C849 1.371 . S
C850 H857 0.930 . S
H851 C848 0.928 . S
H852 C849 0.931 . S
H853 C829 0.930 . S
H854 C826 0.930 . S
H855 C835 0.930 . S
H856 C847 0.929 . S
H857 C850 0.930 . S
C858 C859 1.351 . S
C858 N861 1.368 . S
C858 H863 0.931 . S
C859 C858 1.351 . S
C859 N860 1.373 . S
C859 H887 0.930 . S
N860 C859 1.373 . S
N860 C862 1.340 . S
N861 C858 1.368 . S
N861 C862 1.321 . S
N861 Co864 2.135 . S
C862 N860 1.340 . S
C862 N861 1.321 . S
C862 H886 0.930 . S
H863 C858 0.931 . S
Co864 N861 2.135 . S
Co864 N867 2.121 . S
Co864 O872 2.055 . S
Co864 O875 2.039 . S
Co864 N878 2.140 . S
C865 O866 1.227 . S
C865 O875 1.265 . S
O866 C865 1.227 . S
N867 Co864 2.121 . S
N867 C869 1.375 . S
N867 C870 1.313 . S
C868 C869 1.338 . S
C868 N871 1.377 . S
C868 H888 0.930 . S
C869 N867 1.375 . S
C869 C868 1.338 . S
C869 H873 0.931 . S
C870 N867 1.313 . S
C870 N871 1.344 . S
C870 H874 0.930 . S
N871 C868 1.377 . S
N871 C870 1.344 . S
O872 Co864 2.055 . S
O872 C876 1.253 . S
H873 C869 0.931 . S
H874 C870 0.930 . S
O875 Co864 2.039 . S
O875 C865 1.265 . S
C876 O872 1.253 . S
C876 O877 1.227 . S
O877 C876 1.227 . S
N878 Co864 2.140 . S
N878 C881 1.346 . S
N878 C882 1.345 . S
C879 C880 1.387 . S
C879 C883 1.391 . S
C880 C879 1.387 . S
C880 C881 1.369 . S
C880 H889 0.929 . S
C881 N878 1.346 . S
C881 C880 1.369 . S
C881 H884 0.928 . S
C882 N878 1.345 . S
C882 C883 1.371 . S
C882 H885 0.931 . S
C883 C879 1.391 . S
C883 C882 1.371 . S
C883 H890 0.930 . S
H884 C881 0.928 . S
H885 C882 0.931 . S
H886 C862 0.930 . S
H887 C859 0.930 . S
H888 C868 0.930 . S
H889 C880 0.929 . S
H890 C883 0.930 . S
C891 C892 1.351 . S
C891 N894 1.368 1_655 S
C891 H896 0.924 1_655 S
C892 C891 1.351 . S
C892 N893 1.373 . S
C892 H920 0.930 . S
N893 C892 1.373 . S
N893 C895 1.340 . S
N894 C891 1.368 1_455 S
N894 C895 1.321 1_455 S
N894 Co897 2.135 . S
C895 N893 1.340 . S
C895 N894 1.321 1_655 S
C895 H919 0.930 . S
H896 C891 0.924 1_455 S
Co897 N894 2.135 . S
Co897 N900 2.121 . S
Co897 O905 2.055 . S
Co897 O908 2.039 . S
Co897 N911 2.140 . S
C898 O899 1.227 . S
C898 O908 1.265 . S
O899 C898 1.227 . S
N900 Co897 2.121 . S
N900 C902 1.375 . S
N900 C903 1.313 . S
C901 C902 1.338 . S
C901 N904 1.377 . S
C901 H921 0.930 . S
C902 N900 1.375 . S
C902 C901 1.338 . S
C902 H906 0.931 . S
C903 N900 1.313 . S
C903 N904 1.344 . S
C903 H907 0.930 . S
N904 C901 1.377 . S
N904 C903 1.344 . S
O905 Co897 2.055 . S
O905 C909 1.253 . S
H906 C902 0.931 . S
H907 C903 0.930 . S
O908 Co897 2.039 . S
O908 C898 1.265 . S
C909 O905 1.253 . S
C909 O910 1.227 . S
O910 C909 1.227 . S
N911 Co897 2.140 . S
N911 C914 1.346 . S
N911 C915 1.345 . S
C912 C913 1.387 . S
C912 C916 1.391 . S
C913 C912 1.387 . S
C913 C914 1.369 . S
C913 H922 0.929 1_455 S
C914 N911 1.346 . S
C914 C913 1.369 . S
C914 H917 0.928 . S
C915 N911 1.345 . S
C915 C916 1.371 . S
C915 H918 0.931 . S
C916 C912 1.391 . S
C916 C915 1.371 . S
C916 H923 0.930 . S
H917 C914 0.928 . S
H918 C915 0.931 . S
H919 C895 0.930 . S
H920 C892 0.930 . S
H921 C901 0.930 . S
H922 C913 0.929 1_655 S
H923 C916 0.930 . S
C924 C925 1.351 . S
C924 N927 1.368 . S
C924 H929 0.931 . S
C925 C924 1.351 . S
C925 N926 1.373 . S
C925 H953 0.930 . S
N926 C925 1.373 . S
N926 C928 1.340 . S
N927 C924 1.368 . S
N927 C928 1.321 . S
N927 Co930 2.135 . S
C928 N926 1.340 . S
C928 N927 1.321 . S
C928 H952 0.930 . S
H929 C924 0.931 . S
Co930 N927 2.135 . S
Co930 N933 2.121 . S
Co930 O938 2.055 . S
Co930 O941 2.039 . S
Co930 N944 2.140 . S
C931 O932 1.227 . S
C931 O941 1.265 . S
O932 C931 1.227 . S
N933 Co930 2.121 . S
N933 C935 1.375 . S
N933 C936 1.313 . S
C934 C935 1.338 . S
C934 N937 1.377 . S
C934 H954 0.930 . S
C935 N933 1.375 . S
C935 C934 1.338 . S
C935 H939 0.931 . S
C936 N933 1.313 . S
C936 N937 1.344 . S
C936 H940 0.930 . S
N937 C934 1.377 . S
N937 C936 1.344 . S
O938 Co930 2.055 . S
O938 C942 1.253 . S
H939 C935 0.931 . S
H940 C936 0.930 . S
O941 Co930 2.039 . S
O941 C931 1.265 . S
C942 O938 1.253 . S
C942 O943 1.227 . S
O943 C942 1.227 . S
N944 Co930 2.140 . S
N944 C947 1.346 . S
N944 C948 1.345 . S
C945 C946 1.387 . S
C945 C949 1.391 . S
C946 C945 1.387 . S
C946 C947 1.369 . S
C946 H955 0.929 . S
C947 N944 1.346 . S
C947 C946 1.369 . S
C947 H950 0.928 . S
C948 N944 1.345 . S
C948 C949 1.371 . S
C948 H951 0.931 . S
C949 C945 1.391 . S
C949 C948 1.371 . S
C949 H956 0.930 . S
H950 C947 0.928 . S
H951 C948 0.931 . S
H952 C928 0.930 . S
H953 C925 0.930 . S
H954 C934 0.930 . S
H955 C946 0.929 . S
H956 C949 0.930 . S
C957 C958 1.351 . S
C957 N960 1.368 1_655 S
C957 H962 0.924 1_655 S
C958 C957 1.351 . S
C958 N959 1.373 . S
C958 H986 0.930 . S
N959 C958 1.373 . S
N959 C961 1.340 . S
N960 C957 1.368 1_455 S
N960 C961 1.321 1_455 S
N960 Co963 2.135 . S
C961 N959 1.340 . S
C961 N960 1.321 1_655 S
C961 H985 0.930 . S
H962 C957 0.924 1_455 S
Co963 N960 2.135 . S
Co963 N966 2.121 . S
Co963 O971 2.055 . S
Co963 O974 2.039 . S
Co963 N977 2.140 . S
C964 O965 1.227 . S
C964 O974 1.265 . S
O965 C964 1.227 . S
N966 Co963 2.121 . S
N966 C968 1.375 . S
N966 C969 1.313 . S
C967 C968 1.338 . S
C967 N970 1.377 . S
C967 H987 0.930 . S
C968 N966 1.375 . S
C968 C967 1.338 . S
C968 H972 0.931 . S
C969 N966 1.313 . S
C969 N970 1.344 . S
C969 H973 0.930 . S
N970 C967 1.377 . S
N970 C969 1.344 . S
O971 Co963 2.055 . S
O971 C975 1.253 . S
H972 C968 0.931 . S
H973 C969 0.930 . S
O974 Co963 2.039 . S
O974 C964 1.265 . S
C975 O971 1.253 . S
C975 O976 1.227 . S
O976 C975 1.227 . S
N977 Co963 2.140 . S
N977 C980 1.346 . S
N977 C981 1.345 . S
C978 C979 1.387 . S
C978 C982 1.391 . S
C979 C978 1.387 . S
C979 C980 1.369 . S
C979 H988 0.929 1_455 S
C980 N977 1.346 . S
C980 C979 1.369 . S
C980 H983 0.928 . S
C981 N977 1.345 . S
C981 C982 1.371 . S
C981 H984 0.931 . S
C982 C978 1.391 . S
C982 C981 1.371 . S
C982 H989 0.930 . S
H983 C980 0.928 . S
H984 C981 0.931 . S
H985 C961 0.930 . S
H986 C958 0.930 . S
H987 C967 0.930 . S
H988 C979 0.929 1_655 S
H989 C982 0.930 . S
C990 C991 1.351 . S
C990 N993 1.368 . S
C990 H995 0.931 . S
C991 C990 1.351 . S
C991 N992 1.373 . S
C991 H1019 0.930 . S
N992 C991 1.373 . S
N992 C994 1.340 . S
N993 C990 1.368 . S
N993 C994 1.321 . S
N993 Co996 2.135 . S
C994 N992 1.340 . S
C994 N993 1.321 . S
C994 H1018 0.930 . S
H995 C990 0.931 . S
Co996 N993 2.135 . S
Co996 N999 2.121 . S
Co996 O1004 2.055 . S
Co996 O1007 2.039 . S
Co996 N1010 2.140 . S
C997 O998 1.227 . S
C997 O1007 1.265 . S
O998 C997 1.227 . S
N999 Co996 2.121 . S
N999 C1001 1.375 . S
N999 C1002 1.313 . S
C1000 C1001 1.338 . S
C1000 N1003 1.377 . S
C1000 H1020 0.930 . S
C1001 N999 1.375 . S
C1001 C1000 1.338 . S
C1001 H1005 0.931 . S
C1002 N999 1.313 . S
C1002 N1003 1.344 . S
C1002 H1006 0.930 . S
N1003 C1000 1.377 . S
N1003 C1002 1.344 . S
O1004 Co996 2.055 . S
O1004 C1008 1.253 . S
H1005 C1001 0.931 . S
H1006 C1002 0.930 . S
O1007 Co996 2.039 . S
O1007 C997 1.265 . S
C1008 O1004 1.253 . S
C1008 O1009 1.227 . S
O1009 C1008 1.227 . S
N1010 Co996 2.140 . S
N1010 C1013 1.346 . S
N1010 C1014 1.345 . S
C1011 C1012 1.387 . S
C1011 C1015 1.391 . S
C1012 C1011 1.387 . S
C1012 C1013 1.369 . S
C1012 H1021 0.929 . S
C1013 N1010 1.346 . S
C1013 C1012 1.369 . S
C1013 H1016 0.928 . S
C1014 N1010 1.345 . S
C1014 C1015 1.371 . S
C1014 H1017 0.931 . S
C1015 C1011 1.391 . S
C1015 C1014 1.371 . S
C1015 H1022 0.930 . S
H1016 C1013 0.928 . S
H1017 C1014 0.931 . S
H1018 C994 0.930 . S
H1019 C991 0.930 . S
H1020 C1000 0.930 . S
H1021 C1012 0.929 . S
H1022 C1015 0.930 . S
C1023 C1024 1.351 . S
C1023 N1026 1.368 . S
C1023 H1028 0.931 . S
C1024 C1023 1.351 . S
C1024 N1025 1.373 . S
C1024 H1052 0.930 . S
N1025 C1024 1.373 . S
N1025 C1027 1.340 . S
N1026 C1023 1.368 . S
N1026 C1027 1.321 . S
N1026 Co1029 2.135 . S
C1027 N1025 1.340 . S
C1027 N1026 1.321 . S
C1027 H1051 0.930 . S
H1028 C1023 0.931 . S
Co1029 N1026 2.135 . S
Co1029 N1032 2.121 . S
Co1029 O1037 2.055 . S
Co1029 O1040 2.039 . S
Co1029 N1043 2.140 . S
C1030 O1031 1.227 . S
C1030 O1040 1.265 . S
O1031 C1030 1.227 . S
N1032 Co1029 2.121 . S
N1032 C1034 1.375 . S
N1032 C1035 1.313 . S
C1033 C1034 1.338 . S
C1033 N1036 1.377 . S
C1033 H1053 0.930 . S
C1034 N1032 1.375 . S
C1034 C1033 1.338 . S
C1034 H1038 0.931 . S
C1035 N1032 1.313 . S
C1035 N1036 1.344 . S
C1035 H1039 0.930 . S
N1036 C1033 1.377 . S
N1036 C1035 1.344 . S
O1037 Co1029 2.055 . S
O1037 C1041 1.253 . S
H1038 C1034 0.931 . S
H1039 C1035 0.930 . S
O1040 Co1029 2.039 . S
O1040 C1030 1.265 . S
C1041 O1037 1.253 . S
C1041 O1042 1.227 . S
O1042 C1041 1.227 . S
N1043 Co1029 2.140 . S
N1043 C1046 1.346 . S
N1043 C1047 1.345 . S
C1044 C1045 1.387 . S
C1044 C1048 1.391 . S
C1045 C1044 1.387 . S
C1045 C1046 1.369 . S
C1045 H1054 0.929 . S
C1046 N1043 1.346 . S
C1046 C1045 1.369 . S
C1046 H1049 0.928 . S
C1047 N1043 1.345 . S
C1047 C1048 1.371 . S
C1047 H1050 0.931 . S
C1048 C1044 1.391 . S
C1048 C1047 1.371 . S
C1048 H1055 0.930 . S
H1049 C1046 0.928 . S
H1050 C1047 0.931 . S
H1051 C1027 0.930 . S
H1052 C1024 0.930 . S
H1053 C1033 0.930 . S
H1054 C1045 0.929 . S
H1055 C1048 0.930 . S
H1056 C1064 0.929 . S
H1057 C1066 0.930 . S
H1058 C1068 0.930 . S
H1059 C1071 0.929 . S
H1060 C1074 0.930 . S
H1061 C1076 0.960 . S
H1062 C1076 0.960 . S
H1063 C1076 0.960 . S
C1064 H1056 0.929 . S
C1064 C1065 1.377 . S
C1064 C1066 1.384 . S
C1065 C1064 1.377 . S
C1065 C1071 1.390 . S
C1066 H1057 0.930 . S
C1066 C1064 1.384 . S
C1066 C1067 1.372 . S
C1067 C1066 1.372 . S
C1067 C1068 1.400 . S
C1067 C1072 1.490 . S
C1068 H1058 0.930 . S
C1068 C1067 1.400 . S
C1068 C1071 1.386 . S
H1069 C1085 0.930 . S
H1070 C1086 0.931 . S
C1071 H1059 0.929 . S
C1071 C1065 1.390 . S
C1071 C1068 1.386 . S
C1072 C1067 1.490 . S
C1072 C1074 1.395 . S
C1072 C1075 1.403 . S
H1073 C1079 0.930 . S
C1074 H1060 0.930 . S
C1074 C1072 1.395 . S
C1074 C1077 1.403 . S
C1075 C1072 1.403 . S
C1075 C1076 1.524 . S
C1075 C1079 1.400 . S
C1076 H1061 0.960 . S
C1076 H1062 0.960 . S
C1076 H1063 0.960 . S
C1076 C1075 1.524 . S
C1077 C1074 1.403 . S
C1077 C1078 1.392 . S
C1077 C1081 1.495 . S
C1078 C1077 1.392 . S
C1078 C1079 1.385 . S
C1078 C1080 1.478 . S
C1079 H1073 0.930 . S
C1079 C1075 1.400 . S
C1079 C1078 1.385 . S
C1080 C1078 1.478 . S
C1080 C1082 1.381 . S
C1080 C1086 1.383 . S
C1081 C1077 1.495 . S
C1081 H1087 0.959 . S
C1081 H1088 0.961 . S
C1081 H1089 0.960 . S
C1082 C1080 1.381 . S
C1082 C1083 1.394 . S
C1082 H1090 0.930 . S
C1083 C1082 1.394 . S
C1083 C1084 1.383 . S
C1083 H1091 0.929 . S
C1084 C1083 1.383 . S
C1084 C1085 1.377 . S
C1085 H1069 0.930 . S
C1085 C1084 1.377 . S
C1085 C1086 1.379 . S
C1086 H1070 0.931 . S
C1086 C1080 1.383 . S
C1086 C1085 1.379 . S
H1087 C1081 0.959 . S
H1088 C1081 0.961 . S
H1089 C1081 0.960 . S
H1090 C1082 0.930 . S
H1091 C1083 0.929 . S
H1092 C1100 0.929 . S
H1093 C1102 0.930 . S
H1094 C1104 0.930 . S
H1095 C1107 0.929 . S
H1096 C1110 0.930 . S
H1097 C1112 0.960 . S
H1098 C1112 0.960 . S
H1099 C1112 0.960 . S
C1100 H1092 0.929 . S
C1100 C1101 1.377 . S
C1100 C1102 1.384 . S
C1101 C1100 1.377 . S
C1101 C1107 1.390 . S
C1102 H1093 0.930 . S
C1102 C1100 1.384 . S
C1102 C1103 1.372 . S
C1103 C1102 1.372 . S
C1103 C1104 1.400 . S
C1103 C1108 1.490 . S
C1104 H1094 0.930 . S
C1104 C1103 1.400 . S
C1104 C1107 1.386 . S
H1105 C1121 0.930 . S
H1106 C1122 0.931 . S
C1107 H1095 0.929 . S
C1107 C1101 1.390 . S
C1107 C1104 1.386 . S
C1108 C1103 1.490 . S
C1108 C1110 1.395 . S
C1108 C1111 1.403 . S
H1109 C1115 0.930 . S
C1110 H1096 0.930 . S
C1110 C1108 1.395 . S
C1110 C1113 1.403 . S
C1111 C1108 1.403 . S
C1111 C1112 1.524 . S
C1111 C1115 1.400 . S
C1112 H1097 0.960 . S
C1112 H1098 0.960 . S
C1112 H1099 0.960 . S
C1112 C1111 1.524 . S
C1113 C1110 1.403 . S
C1113 C1114 1.392 . S
C1113 C1117 1.495 . S
C1114 C1113 1.392 . S
C1114 C1115 1.385 . S
C1114 C1116 1.478 . S
C1115 H1109 0.930 . S
C1115 C1111 1.400 . S
C1115 C1114 1.385 . S
C1116 C1114 1.478 . S
C1116 C1118 1.381 . S
C1116 C1122 1.383 . S
C1117 C1113 1.495 . S
C1117 H1123 0.959 . S
C1117 H1124 0.961 . S
C1117 H1125 0.960 . S
C1118 C1116 1.381 . S
C1118 C1119 1.394 . S
C1118 H1126 0.930 . S
C1119 C1118 1.394 . S
C1119 C1120 1.383 . S
C1119 H1127 0.929 . S
C1120 C1119 1.383 . S
C1120 C1121 1.377 . S
C1121 H1105 0.930 . S
C1121 C1120 1.377 . S
C1121 C1122 1.379 . S
C1122 H1106 0.931 . S
C1122 C1116 1.383 . S
C1122 C1121 1.379 . S
H1123 C1117 0.959 . S
H1124 C1117 0.961 . S
H1125 C1117 0.960 . S
H1126 C1118 0.930 . S
H1127 C1119 0.929 . S
H1128 C1136 0.929 . S
H1129 C1138 0.930 . S
H1130 C1140 0.930 . S
H1131 C1143 0.929 . S
H1132 C1146 0.930 . S
H1133 C1148 0.960 . S
H1134 C1148 0.960 . S
H1135 C1148 0.960 . S
C1136 H1128 0.929 . S
C1136 C1137 1.377 . S
C1136 C1138 1.384 . S
C1137 C1136 1.377 . S
C1137 C1143 1.390 . S
C1138 H1129 0.930 . S
C1138 C1136 1.384 . S
C1138 C1139 1.372 . S
C1139 C1138 1.372 . S
C1139 C1140 1.400 . S
C1139 C1144 1.490 . S
C1140 H1130 0.930 . S
C1140 C1139 1.400 . S
C1140 C1143 1.386 . S
H1141 C1157 0.930 . S
H1142 C1158 0.931 . S
C1143 H1131 0.929 . S
C1143 C1137 1.390 . S
C1143 C1140 1.386 . S
C1144 C1139 1.490 . S
C1144 C1146 1.395 . S
C1144 C1147 1.403 . S
H1145 C1151 0.930 . S
C1146 H1132 0.930 . S
C1146 C1144 1.395 . S
C1146 C1149 1.403 . S
C1147 C1144 1.403 . S
C1147 C1148 1.524 . S
C1147 C1151 1.400 . S
C1148 H1133 0.960 . S
C1148 H1134 0.960 . S
C1148 H1135 0.960 . S
C1148 C1147 1.524 . S
C1149 C1146 1.403 . S
C1149 C1150 1.392 . S
C1149 C1153 1.495 . S
C1150 C1149 1.392 . S
C1150 C1151 1.385 . S
C1150 C1152 1.478 . S
C1151 H1145 0.930 . S
C1151 C1147 1.400 . S
C1151 C1150 1.385 . S
C1152 C1150 1.478 . S
C1152 C1154 1.381 . S
C1152 C1158 1.383 . S
C1153 C1149 1.495 . S
C1153 H1159 0.959 . S
C1153 H1160 0.961 . S
C1153 H1161 0.960 . S
C1154 C1152 1.381 . S
C1154 C1155 1.394 . S
C1154 H1162 0.930 . S
C1155 C1154 1.394 . S
C1155 C1156 1.383 . S
C1155 H1163 0.929 . S
C1156 C1155 1.383 . S
C1156 C1157 1.377 . S
C1157 H1141 0.930 . S
C1157 C1156 1.377 . S
C1157 C1158 1.379 . S
C1158 H1142 0.931 . S
C1158 C1152 1.383 . S
C1158 C1157 1.379 . S
H1159 C1153 0.959 . S
H1160 C1153 0.961 . S
H1161 C1153 0.960 . S
H1162 C1154 0.930 . S
H1163 C1155 0.929 . S
H1164 C1172 0.929 . S
H1165 C1174 0.930 . S
H1166 C1176 0.930 . S
H1167 C1179 0.929 . S
H1168 C1182 0.930 . S
H1169 C1184 0.960 . S
H1170 C1184 0.960 . S
H1171 C1184 0.960 . S
C1172 H1164 0.929 . S
C1172 C1173 1.377 . S
C1172 C1174 1.384 . S
C1173 C1172 1.377 . S
C1173 C1179 1.390 . S
C1174 H1165 0.930 . S
C1174 C1172 1.384 . S
C1174 C1175 1.372 . S
C1175 C1174 1.372 . S
C1175 C1176 1.400 . S
C1175 C1180 1.490 . S
C1176 H1166 0.930 . S
C1176 C1175 1.400 . S
C1176 C1179 1.386 . S
H1177 C1193 0.930 . S
H1178 C1194 0.931 . S
C1179 H1167 0.929 . S
C1179 C1173 1.390 . S
C1179 C1176 1.386 . S
C1180 C1175 1.490 . S
C1180 C1182 1.395 . S
C1180 C1183 1.403 . S
H1181 C1187 0.930 . S
C1182 H1168 0.930 . S
C1182 C1180 1.395 . S
C1182 C1185 1.403 . S
C1183 C1180 1.403 . S
C1183 C1184 1.524 . S
C1183 C1187 1.400 . S
C1184 H1169 0.960 . S
C1184 H1170 0.960 . S
C1184 H1171 0.960 . S
C1184 C1183 1.524 . S
C1185 C1182 1.403 . S
C1185 C1186 1.392 . S
C1185 C1189 1.495 . S
C1186 C1185 1.392 . S
C1186 C1187 1.385 . S
C1186 C1188 1.478 . S
C1187 H1181 0.930 . S
C1187 C1183 1.400 . S
C1187 C1186 1.385 . S
C1188 C1186 1.478 . S
C1188 C1190 1.381 . S
C1188 C1194 1.383 . S
C1189 C1185 1.495 . S
C1189 H1195 0.959 . S
C1189 H1196 0.961 . S
C1189 H1197 0.960 . S
C1190 C1188 1.381 . S
C1190 C1191 1.394 . S
C1190 H1198 0.930 . S
C1191 C1190 1.394 . S
C1191 C1192 1.383 . S
C1191 H1199 0.929 . S
C1192 C1191 1.383 . S
C1192 C1193 1.377 . S
C1193 H1177 0.930 . S
C1193 C1192 1.377 . S
C1193 C1194 1.379 . S
C1194 H1178 0.931 . S
C1194 C1188 1.383 . S
C1194 C1193 1.379 . S
H1195 C1189 0.959 . S
H1196 C1189 0.961 . S
H1197 C1189 0.960 . S
H1198 C1190 0.930 . S
H1199 C1191 0.929 . S
H1200 C1208 0.929 . S
H1201 C1210 0.930 . S
H1202 C1212 0.930 . S
H1203 C1215 0.929 . S
H1204 C1218 0.930 . S
H1205 C1220 0.960 . S
H1206 C1220 0.960 . S
H1207 C1220 0.960 . S
C1208 H1200 0.929 . S
C1208 C1209 1.377 . S
C1208 C1210 1.384 . S
C1209 C1208 1.377 . S
C1209 C1215 1.390 . S
C1210 H1201 0.930 . S
C1210 C1208 1.384 . S
C1210 C1211 1.372 . S
C1211 C1210 1.372 . S
C1211 C1212 1.400 . S
C1211 C1216 1.490 . S
C1212 H1202 0.930 . S
C1212 C1211 1.400 . S
C1212 C1215 1.386 . S
H1213 C1229 0.930 . S
H1214 C1230 0.931 . S
C1215 H1203 0.929 . S
C1215 C1209 1.390 . S
C1215 C1212 1.386 . S
C1216 C1211 1.490 . S
C1216 C1218 1.395 . S
C1216 C1219 1.403 . S
H1217 C1223 0.930 . S
C1218 H1204 0.930 . S
C1218 C1216 1.395 . S
C1218 C1221 1.403 . S
C1219 C1216 1.403 . S
C1219 C1220 1.524 . S
C1219 C1223 1.400 . S
C1220 H1205 0.960 . S
C1220 H1206 0.960 . S
C1220 H1207 0.960 . S
C1220 C1219 1.524 . S
C1221 C1218 1.403 . S
C1221 C1222 1.392 . S
C1221 C1225 1.495 . S
C1222 C1221 1.392 . S
C1222 C1223 1.385 . S
C1222 C1224 1.478 . S
C1223 H1217 0.930 . S
C1223 C1219 1.400 . S
C1223 C1222 1.385 . S
C1224 C1222 1.478 . S
C1224 C1226 1.381 . S
C1224 C1230 1.383 . S
C1225 C1221 1.495 . S
C1225 H1231 0.959 . S
C1225 H1232 0.961 . S
C1225 H1233 0.960 . S
C1226 C1224 1.381 . S
C1226 C1227 1.394 . S
C1226 H1234 0.930 . S
C1227 C1226 1.394 . S
C1227 C1228 1.383 . S
C1227 H1235 0.929 . S
C1228 C1227 1.383 . S
C1228 C1229 1.377 . S
C1229 H1213 0.930 . S
C1229 C1228 1.377 . S
C1229 C1230 1.379 . S
C1230 H1214 0.931 . S
C1230 C1224 1.383 . S
C1230 C1229 1.379 . S
H1231 C1225 0.959 . S
H1232 C1225 0.961 . S
H1233 C1225 0.960 . S
H1234 C1226 0.930 . S
H1235 C1227 0.929 . S
H1236 C1244 0.929 . S
H1237 C1246 0.930 . S
H1238 C1248 0.930 . S
H1239 C1251 0.929 . S
H1240 C1254 0.930 . S
H1241 C1256 0.960 . S
H1242 C1256 0.960 . S
H1243 C1256 0.960 . S
C1244 H1236 0.929 . S
C1244 C1245 1.377 . S
C1244 C1246 1.384 . S
C1245 C1244 1.377 . S
C1245 C1251 1.390 . S
C1246 H1237 0.930 . S
C1246 C1244 1.384 . S
C1246 C1247 1.372 . S
C1247 C1246 1.372 . S
C1247 C1248 1.400 . S
C1247 C1252 1.490 . S
C1248 H1238 0.930 . S
C1248 C1247 1.400 . S
C1248 C1251 1.386 . S
H1249 C1265 0.930 . S
H1250 C1266 0.931 . S
C1251 H1239 0.929 . S
C1251 C1245 1.390 . S
C1251 C1248 1.386 . S
C1252 C1247 1.490 . S
C1252 C1254 1.395 . S
C1252 C1255 1.403 . S
H1253 C1259 0.930 . S
C1254 H1240 0.930 . S
C1254 C1252 1.395 . S
C1254 C1257 1.403 . S
C1255 C1252 1.403 . S
C1255 C1256 1.524 . S
C1255 C1259 1.400 . S
C1256 H1241 0.960 . S
C1256 H1242 0.960 . S
C1256 H1243 0.960 . S
C1256 C1255 1.524 . S
C1257 C1254 1.403 . S
C1257 C1258 1.392 . S
C1257 C1261 1.495 . S
C1258 C1257 1.392 . S
C1258 C1259 1.385 . S
C1258 C1260 1.478 . S
C1259 H1253 0.930 . S
C1259 C1255 1.400 . S
C1259 C1258 1.385 . S
C1260 C1258 1.478 . S
C1260 C1262 1.381 . S
C1260 C1266 1.383 . S
C1261 C1257 1.495 . S
C1261 H1267 0.959 . S
C1261 H1268 0.961 . S
C1261 H1269 0.960 . S
C1262 C1260 1.381 . S
C1262 C1263 1.394 . S
C1262 H1270 0.930 . S
C1263 C1262 1.394 . S
C1263 C1264 1.383 . S
C1263 H1271 0.929 . S
C1264 C1263 1.383 . S
C1264 C1265 1.377 . S
C1265 H1249 0.930 . S
C1265 C1264 1.377 . S
C1265 C1266 1.379 . S
C1266 H1250 0.931 . S
C1266 C1260 1.383 . S
C1266 C1265 1.379 . S
H1267 C1261 0.959 . S
H1268 C1261 0.961 . S
H1269 C1261 0.960 . S
H1270 C1262 0.930 . S
H1271 C1263 0.929 . S
H1272 C1280 0.929 . S
H1273 C1282 0.930 . S
H1274 C1284 0.930 . S
H1275 C1287 0.929 . S
H1276 C1290 0.930 . S
H1277 C1292 0.960 . S
H1278 C1292 0.960 . S
H1279 C1292 0.960 . S
C1280 H1272 0.929 . S
C1280 C1281 1.377 . S
C1280 C1282 1.384 . S
C1281 C1280 1.377 . S
C1281 C1287 1.390 . S
C1282 H1273 0.930 . S
C1282 C1280 1.384 . S
C1282 C1283 1.372 . S
C1283 C1282 1.372 . S
C1283 C1284 1.400 . S
C1283 C1288 1.490 . S
C1284 H1274 0.930 . S
C1284 C1283 1.400 . S
C1284 C1287 1.386 . S
H1285 C1301 0.930 . S
H1286 C1302 0.931 . S
C1287 H1275 0.929 . S
C1287 C1281 1.390 . S
C1287 C1284 1.386 . S
C1288 C1283 1.490 . S
C1288 C1290 1.395 . S
C1288 C1291 1.403 . S
H1289 C1295 0.930 . S
C1290 H1276 0.930 . S
C1290 C1288 1.395 . S
C1290 C1293 1.403 . S
C1291 C1288 1.403 . S
C1291 C1292 1.524 . S
C1291 C1295 1.400 . S
C1292 H1277 0.960 . S
C1292 H1278 0.960 . S
C1292 H1279 0.960 . S
C1292 C1291 1.524 . S
C1293 C1290 1.403 . S
C1293 C1294 1.392 . S
C1293 C1297 1.495 . S
C1294 C1293 1.392 . S
C1294 C1295 1.385 . S
C1294 C1296 1.478 . S
C1295 H1289 0.930 . S
C1295 C1291 1.400 . S
C1295 C1294 1.385 . S
C1296 C1294 1.478 . S
C1296 C1298 1.381 . S
C1296 C1302 1.383 . S
C1297 C1293 1.495 . S
C1297 H1303 0.959 . S
C1297 H1304 0.961 . S
C1297 H1305 0.960 . S
C1298 C1296 1.381 . S
C1298 C1299 1.394 . S
C1298 H1306 0.930 . S
C1299 C1298 1.394 . S
C1299 C1300 1.383 . S
C1299 H1307 0.929 . S
C1300 C1299 1.383 . S
C1300 C1301 1.377 . S
C1301 H1285 0.930 . S
C1301 C1300 1.377 . S
C1301 C1302 1.379 . S
C1302 H1286 0.931 . S
C1302 C1296 1.383 . S
C1302 C1301 1.379 . S
H1303 C1297 0.959 . S
H1304 C1297 0.961 . S
H1305 C1297 0.960 . S
H1306 C1298 0.930 . S
H1307 C1299 0.929 . S
H1308 C1316 0.929 . S
H1309 C1318 0.930 . S
H1310 C1320 0.930 . S
H1311 C1323 0.929 . S
H1312 C1326 0.930 . S
H1313 C1328 0.960 . S
H1314 C1328 0.960 . S
H1315 C1328 0.960 . S
C1316 H1308 0.929 . S
C1316 C1317 1.377 . S
C1316 C1318 1.384 . S
C1317 C1316 1.377 . S
C1317 C1323 1.390 . S
C1318 H1309 0.930 . S
C1318 C1316 1.384 . S
C1318 C1319 1.372 . S
C1319 C1318 1.372 . S
C1319 C1320 1.400 . S
C1319 C1324 1.490 . S
C1320 H1310 0.930 . S
C1320 C1319 1.400 . S
C1320 C1323 1.386 . S
H1321 C1337 0.930 . S
H1322 C1338 0.931 . S
C1323 H1311 0.929 . S
C1323 C1317 1.390 . S
C1323 C1320 1.386 . S
C1324 C1319 1.490 . S
C1324 C1326 1.395 . S
C1324 C1327 1.403 . S
H1325 C1331 0.930 . S
C1326 H1312 0.930 . S
C1326 C1324 1.395 . S
C1326 C1329 1.403 . S
C1327 C1324 1.403 . S
C1327 C1328 1.524 . S
C1327 C1331 1.400 . S
C1328 H1313 0.960 . S
C1328 H1314 0.960 . S
C1328 H1315 0.960 . S
C1328 C1327 1.524 . S
C1329 C1326 1.403 . S
C1329 C1330 1.392 . S
C1329 C1333 1.495 . S
C1330 C1329 1.392 . S
C1330 C1331 1.385 . S
C1330 C1332 1.478 . S
C1331 H1325 0.930 . S
C1331 C1327 1.400 . S
C1331 C1330 1.385 . S
C1332 C1330 1.478 . S
C1332 C1334 1.381 . S
C1332 C1338 1.383 . S
C1333 C1329 1.495 . S
C1333 H1339 0.959 . S
C1333 H1340 0.961 . S
C1333 H1341 0.960 . S
C1334 C1332 1.381 . S
C1334 C1335 1.394 . S
C1334 H1342 0.930 . S
C1335 C1334 1.394 . S
C1335 C1336 1.383 . S
C1335 H1343 0.929 . S
C1336 C1335 1.383 . S
C1336 C1337 1.377 . S
C1337 H1321 0.930 . S
C1337 C1336 1.377 . S
C1337 C1338 1.379 . S
C1338 H1322 0.931 . S
C1338 C1332 1.383 . S
C1338 C1337 1.379 . S
H1339 C1333 0.959 . S
H1340 C1333 0.961 . S
H1341 C1333 0.960 . S
H1342 C1334 0.930 . S
H1343 C1335 0.929 . S
H1344 C1352 0.929 . S
H1345 C1354 0.930 . S
H1346 C1356 0.930 . S
H1347 C1359 0.929 . S
H1348 C1362 0.930 . S
H1349 C1364 0.960 . S
H1350 C1364 0.960 . S
H1351 C1364 0.960 . S
C1352 H1344 0.929 . S
C1352 C1353 1.377 . S
C1352 C1354 1.384 . S
C1353 C1352 1.377 . S
C1353 C1359 1.390 . S
C1354 H1345 0.930 . S
C1354 C1352 1.384 . S
C1354 C1355 1.372 . S
C1355 C1354 1.372 . S
C1355 C1356 1.400 . S
C1355 C1360 1.490 . S
C1356 H1346 0.930 . S
C1356 C1355 1.400 . S
C1356 C1359 1.386 . S
H1357 C1373 0.930 . S
H1358 C1374 0.931 . S
C1359 H1347 0.929 . S
C1359 C1353 1.390 . S
C1359 C1356 1.386 . S
C1360 C1355 1.490 . S
C1360 C1362 1.395 . S
C1360 C1363 1.403 . S
H1361 C1367 0.930 . S
C1362 H1348 0.930 . S
C1362 C1360 1.395 . S
C1362 C1365 1.403 . S
C1363 C1360 1.403 . S
C1363 C1364 1.524 . S
C1363 C1367 1.400 . S
C1364 H1349 0.960 . S
C1364 H1350 0.960 . S
C1364 H1351 0.960 . S
C1364 C1363 1.524 . S
C1365 C1362 1.403 . S
C1365 C1366 1.392 . S
C1365 C1369 1.495 . S
C1366 C1365 1.392 . S
C1366 C1367 1.385 . S
C1366 C1368 1.478 . S
C1367 H1361 0.930 . S
C1367 C1363 1.400 . S
C1367 C1366 1.385 . S
C1368 C1366 1.478 . S
C1368 C1370 1.381 . S
C1368 C1374 1.383 . S
C1369 C1365 1.495 . S
C1369 H1375 0.959 . S
C1369 H1376 0.961 . S
C1369 H1377 0.960 . S
C1370 C1368 1.381 . S
C1370 C1371 1.394 . S
C1370 H1378 0.930 . S
C1371 C1370 1.394 . S
C1371 C1372 1.383 . S
C1371 H1379 0.929 . S
C1372 C1371 1.383 . S
C1372 C1373 1.377 . S
C1373 H1357 0.930 . S
C1373 C1372 1.377 . S
C1373 C1374 1.379 . S
C1374 H1358 0.931 . S
C1374 C1368 1.383 . S
C1374 C1373 1.379 . S
H1375 C1369 0.959 . S
H1376 C1369 0.961 . S
H1377 C1369 0.960 . S
H1378 C1370 0.930 . S
H1379 C1371 0.929 . S
H1380 C1388 0.929 . S
H1381 C1390 0.930 . S
H1382 C1392 0.930 . S
H1383 C1395 0.929 . S
H1384 C1398 0.930 . S
H1385 C1400 0.960 . S
H1386 C1400 0.960 . S
H1387 C1400 0.960 . S
C1388 H1380 0.929 . S
C1388 C1389 1.377 . S
C1388 C1390 1.384 . S
C1389 C1388 1.377 . S
C1389 C1395 1.390 . S
C1390 H1381 0.930 . S
C1390 C1388 1.384 . S
C1390 C1391 1.372 . S
C1391 C1390 1.372 . S
C1391 C1392 1.400 . S
C1391 C1396 1.490 . S
C1392 H1382 0.930 . S
C1392 C1391 1.400 . S
C1392 C1395 1.386 . S
H1393 C1409 0.930 . S
H1394 C1410 0.931 . S
C1395 H1383 0.929 . S
C1395 C1389 1.390 . S
C1395 C1392 1.386 . S
C1396 C1391 1.490 . S
C1396 C1398 1.395 . S
C1396 C1399 1.403 . S
H1397 C1403 0.930 . S
C1398 H1384 0.930 . S
C1398 C1396 1.395 . S
C1398 C1401 1.403 . S
C1399 C1396 1.403 . S
C1399 C1400 1.524 . S
C1399 C1403 1.400 . S
C1400 H1385 0.960 . S
C1400 H1386 0.960 . S
C1400 H1387 0.960 . S
C1400 C1399 1.524 . S
C1401 C1398 1.403 . S
C1401 C1402 1.392 . S
C1401 C1405 1.495 . S
C1402 C1401 1.392 . S
C1402 C1403 1.385 . S
C1402 C1404 1.478 . S
C1403 H1397 0.930 . S
C1403 C1399 1.400 . S
C1403 C1402 1.385 . S
C1404 C1402 1.478 . S
C1404 C1406 1.381 . S
C1404 C1410 1.383 . S
C1405 C1401 1.495 . S
C1405 H1411 0.959 . S
C1405 H1412 0.961 . S
C1405 H1413 0.960 . S
C1406 C1404 1.381 . S
C1406 C1407 1.394 . S
C1406 H1414 0.930 . S
C1407 C1406 1.394 . S
C1407 C1408 1.383 . S
C1407 H1415 0.929 . S
C1408 C1407 1.383 . S
C1408 C1409 1.377 . S
C1409 H1393 0.930 . S
C1409 C1408 1.377 . S
C1409 C1410 1.379 . S
C1410 H1394 0.931 . S
C1410 C1404 1.383 . S
C1410 C1409 1.379 . S
H1411 C1405 0.959 . S
H1412 C1405 0.961 . S
H1413 C1405 0.960 . S
H1414 C1406 0.930 . S
H1415 C1407 0.929 . S
H1416 C1424 0.929 . S
H1417 C1426 0.930 . S
H1418 C1428 0.930 . S
H1419 C1431 0.929 . S
H1420 C1434 0.930 . S
H1421 C1436 0.960 . S
H1422 C1436 0.960 . S
H1423 C1436 0.960 . S
C1424 H1416 0.929 . S
C1424 C1425 1.377 . S
C1424 C1426 1.384 . S
C1425 C1424 1.377 . S
C1425 C1431 1.390 . S
C1426 H1417 0.930 . S
C1426 C1424 1.384 . S
C1426 C1427 1.372 . S
C1427 C1426 1.372 . S
C1427 C1428 1.400 . S
C1427 C1432 1.490 . S
C1428 H1418 0.930 . S
C1428 C1427 1.400 . S
C1428 C1431 1.386 . S
H1429 C1445 0.930 . S
H1430 C1446 0.931 . S
C1431 H1419 0.929 . S
C1431 C1425 1.390 . S
C1431 C1428 1.386 . S
C1432 C1427 1.490 . S
C1432 C1434 1.395 . S
C1432 C1435 1.403 . S
H1433 C1439 0.930 . S
C1434 H1420 0.930 . S
C1434 C1432 1.395 . S
C1434 C1437 1.403 . S
C1435 C1432 1.403 . S
C1435 C1436 1.524 . S
C1435 C1439 1.400 . S
C1436 H1421 0.960 . S
C1436 H1422 0.960 . S
C1436 H1423 0.960 . S
C1436 C1435 1.524 . S
C1437 C1434 1.403 . S
C1437 C1438 1.392 . S
C1437 C1441 1.495 . S
C1438 C1437 1.392 . S
C1438 C1439 1.385 . S
C1438 C1440 1.478 . S
C1439 H1433 0.930 . S
C1439 C1435 1.400 . S
C1439 C1438 1.385 . S
C1440 C1438 1.478 . S
C1440 C1442 1.381 . S
C1440 C1446 1.383 . S
C1441 C1437 1.495 . S
C1441 H1447 0.959 . S
C1441 H1448 0.961 . S
C1441 H1449 0.960 . S
C1442 C1440 1.381 . S
C1442 C1443 1.394 . S
C1442 H1450 0.930 . S
C1443 C1442 1.394 . S
C1443 C1444 1.383 . S
C1443 H1451 0.929 . S
C1444 C1443 1.383 . S
C1444 C1445 1.377 . S
C1445 H1429 0.930 . S
C1445 C1444 1.377 . S
C1445 C1446 1.379 . S
C1446 H1430 0.931 . S
C1446 C1440 1.383 . S
C1446 C1445 1.379 . S
H1447 C1441 0.959 . S
H1448 C1441 0.961 . S
H1449 C1441 0.960 . S
H1450 C1442 0.930 . S
H1451 C1443 0.929 . S
H1452 C1460 0.929 . S
H1453 C1462 0.930 . S
H1454 C1464 0.930 . S
H1455 C1467 0.929 . S
H1456 C1470 0.930 . S
H1457 C1472 0.960 . S
H1458 C1472 0.960 . S
H1459 C1472 0.960 . S
C1460 H1452 0.929 . S
C1460 C1461 1.377 . S
C1460 C1462 1.384 . S
C1461 C1460 1.377 . S
C1461 C1467 1.390 . S
C1462 H1453 0.930 . S
C1462 C1460 1.384 . S
C1462 C1463 1.372 . S
C1463 C1462 1.372 . S
C1463 C1464 1.400 . S
C1463 C1468 1.490 . S
C1464 H1454 0.930 . S
C1464 C1463 1.400 . S
C1464 C1467 1.386 . S
H1465 C1481 0.930 . S
H1466 C1482 0.931 . S
C1467 H1455 0.929 . S
C1467 C1461 1.390 . S
C1467 C1464 1.386 . S
C1468 C1463 1.490 . S
C1468 C1470 1.395 . S
C1468 C1471 1.403 . S
H1469 C1475 0.930 . S
C1470 H1456 0.930 . S
C1470 C1468 1.395 . S
C1470 C1473 1.403 . S
C1471 C1468 1.403 . S
C1471 C1472 1.524 . S
C1471 C1475 1.400 . S
C1472 H1457 0.960 . S
C1472 H1458 0.960 . S
C1472 H1459 0.960 . S
C1472 C1471 1.524 . S
C1473 C1470 1.403 . S
C1473 C1474 1.392 . S
C1473 C1477 1.495 . S
C1474 C1473 1.392 . S
C1474 C1475 1.385 . S
C1474 C1476 1.478 . S
C1475 H1469 0.930 . S
C1475 C1471 1.400 . S
C1475 C1474 1.385 . S
C1476 C1474 1.478 . S
C1476 C1478 1.381 . S
C1476 C1482 1.383 . S
C1477 C1473 1.495 . S
C1477 H1483 0.959 . S
C1477 H1484 0.961 . S
C1477 H1485 0.960 . S
C1478 C1476 1.381 . S
C1478 C1479 1.394 . S
C1478 H1486 0.930 . S
C1479 C1478 1.394 . S
C1479 C1480 1.383 . S
C1479 H1487 0.929 . S
C1480 C1479 1.383 . S
C1480 C1481 1.377 . S
C1481 H1465 0.930 . S
C1481 C1480 1.377 . S
C1481 C1482 1.379 . S
C1482 H1466 0.931 . S
C1482 C1476 1.383 . S
C1482 C1481 1.379 . S
H1483 C1477 0.959 . S
H1484 C1477 0.961 . S
H1485 C1477 0.960 . S
H1486 C1478 0.930 . S
H1487 C1479 0.929 . S
H1488 C1496 0.929 . S
H1489 C1498 0.930 . S
H1490 C1500 0.930 . S
H1491 C1503 0.929 . S
H1492 C1506 0.930 . S
H1493 C1508 0.960 . S
H1494 C1508 0.960 . S
H1495 C1508 0.960 . S
C1496 H1488 0.929 . S
C1496 C1497 1.377 . S
C1496 C1498 1.384 . S
C1497 C1496 1.377 . S
C1497 C1503 1.390 . S
C1498 H1489 0.930 . S
C1498 C1496 1.384 . S
C1498 C1499 1.372 . S
C1499 C1498 1.372 . S
C1499 C1500 1.400 . S
C1499 C1504 1.490 . S
C1500 H1490 0.930 . S
C1500 C1499 1.400 . S
C1500 C1503 1.386 . S
H1501 C1517 0.930 . S
H1502 C1518 0.931 . S
C1503 H1491 0.929 . S
C1503 C1497 1.390 . S
C1503 C1500 1.386 . S
C1504 C1499 1.490 . S
C1504 C1506 1.395 . S
C1504 C1507 1.403 . S
H1505 C1511 0.930 . S
C1506 H1492 0.930 . S
C1506 C1504 1.395 . S
C1506 C1509 1.403 . S
C1507 C1504 1.403 . S
C1507 C1508 1.524 . S
C1507 C1511 1.400 . S
C1508 H1493 0.960 . S
C1508 H1494 0.960 . S
C1508 H1495 0.960 . S
C1508 C1507 1.524 . S
C1509 C1506 1.403 . S
C1509 C1510 1.392 . S
C1509 C1513 1.495 . S
C1510 C1509 1.392 . S
C1510 C1511 1.385 . S
C1510 C1512 1.478 . S
C1511 H1505 0.930 . S
C1511 C1507 1.400 . S
C1511 C1510 1.385 . S
C1512 C1510 1.478 . S
C1512 C1514 1.381 . S
C1512 C1518 1.383 . S
C1513 C1509 1.495 . S
C1513 H1519 0.959 . S
C1513 H1520 0.961 . S
C1513 H1521 0.960 . S
C1514 C1512 1.381 . S
C1514 C1515 1.394 . S
C1514 H1522 0.930 . S
C1515 C1514 1.394 . S
C1515 C1516 1.383 . S
C1515 H1523 0.929 . S
C1516 C1515 1.383 . S
C1516 C1517 1.377 . S
C1517 H1501 0.930 . S
C1517 C1516 1.377 . S
C1517 C1518 1.379 . S
C1518 H1502 0.931 . S
C1518 C1512 1.383 . S
C1518 C1517 1.379 . S
H1519 C1513 0.959 . S
H1520 C1513 0.961 . S
H1521 C1513 0.960 . S
H1522 C1514 0.930 . S
H1523 C1515 0.929 . S
H1524 C1532 0.929 . S
H1525 C1534 0.930 . S
H1526 C1536 0.930 . S
H1527 C1539 0.929 . S
H1528 C1542 0.930 . S
H1529 C1544 0.960 . S
H1530 C1544 0.960 . S
H1531 C1544 0.960 . S
C1532 H1524 0.929 . S
C1532 C1533 1.377 . S
C1532 C1534 1.384 . S
C1533 C1532 1.377 . S
C1533 C1539 1.390 . S
C1534 H1525 0.930 . S
C1534 C1532 1.384 . S
C1534 C1535 1.372 . S
C1535 C1534 1.372 . S
C1535 C1536 1.400 . S
C1535 C1540 1.490 . S
C1536 H1526 0.930 . S
C1536 C1535 1.400 . S
C1536 C1539 1.386 . S
H1537 C1553 0.930 . S
H1538 C1554 0.931 . S
C1539 H1527 0.929 . S
C1539 C1533 1.390 . S
C1539 C1536 1.386 . S
C1540 C1535 1.490 . S
C1540 C1542 1.395 . S
C1540 C1543 1.403 . S
H1541 C1547 0.930 . S
C1542 H1528 0.930 . S
C1542 C1540 1.395 . S
C1542 C1545 1.403 . S
C1543 C1540 1.403 . S
C1543 C1544 1.524 . S
C1543 C1547 1.400 . S
C1544 H1529 0.960 . S
C1544 H1530 0.960 . S
C1544 H1531 0.960 . S
C1544 C1543 1.524 . S
C1545 C1542 1.403 . S
C1545 C1546 1.392 . S
C1545 C1549 1.495 . S
C1546 C1545 1.392 . S
C1546 C1547 1.385 . S
C1546 C1548 1.478 . S
C1547 H1541 0.930 . S
C1547 C1543 1.400 . S
C1547 C1546 1.385 . S
C1548 C1546 1.478 . S
C1548 C1550 1.381 . S
C1548 C1554 1.383 . S
C1549 C1545 1.495 . S
C1549 H1555 0.959 . S
C1549 H1556 0.961 . S
C1549 H1557 0.960 . S
C1550 C1548 1.381 . S
C1550 C1551 1.394 . S
C1550 H1558 0.930 . S
C1551 C1550 1.394 . S
C1551 C1552 1.383 . S
C1551 H1559 0.929 . S
C1552 C1551 1.383 . S
C1552 C1553 1.377 . S
C1553 H1537 0.930 . S
C1553 C1552 1.377 . S
C1553 C1554 1.379 . S
C1554 H1538 0.931 . S
C1554 C1548 1.383 . S
C1554 C1553 1.379 . S
H1555 C1549 0.959 . S
H1556 C1549 0.961 . S
H1557 C1549 0.960 . S
H1558 C1550 0.930 . S
H1559 C1551 0.929 . S
H1560 C1568 0.929 . S
H1561 C1570 0.930 . S
H1562 C1572 0.930 . S
H1563 C1575 0.929 . S
H1564 C1578 0.930 . S
H1565 C1580 0.960 . S
H1566 C1580 0.960 . S
H1567 C1580 0.960 . S
C1568 H1560 0.929 . S
C1568 C1569 1.377 . S
C1568 C1570 1.384 . S
C1569 C1568 1.377 . S
C1569 C1575 1.390 . S
C1570 H1561 0.930 . S
C1570 C1568 1.384 . S
C1570 C1571 1.372 . S
C1571 C1570 1.372 . S
C1571 C1572 1.400 . S
C1571 C1576 1.490 . S
C1572 H1562 0.930 . S
C1572 C1571 1.400 . S
C1572 C1575 1.386 . S
H1573 C1589 0.930 . S
H1574 C1590 0.931 . S
C1575 H1563 0.929 . S
C1575 C1569 1.390 . S
C1575 C1572 1.386 . S
C1576 C1571 1.490 . S
C1576 C1578 1.395 . S
C1576 C1579 1.403 . S
H1577 C1583 0.930 . S
C1578 H1564 0.930 . S
C1578 C1576 1.395 . S
C1578 C1581 1.403 . S
C1579 C1576 1.403 . S
C1579 C1580 1.524 . S
C1579 C1583 1.400 . S
C1580 H1565 0.960 . S
C1580 H1566 0.960 . S
C1580 H1567 0.960 . S
C1580 C1579 1.524 . S
C1581 C1578 1.403 . S
C1581 C1582 1.392 . S
C1581 C1585 1.495 . S
C1582 C1581 1.392 . S
C1582 C1583 1.385 . S
C1582 C1584 1.478 . S
C1583 H1577 0.930 . S
C1583 C1579 1.400 . S
C1583 C1582 1.385 . S
C1584 C1582 1.478 . S
C1584 C1586 1.381 . S
C1584 C1590 1.383 . S
C1585 C1581 1.495 . S
C1585 H1591 0.959 . S
C1585 H1592 0.961 . S
C1585 H1593 0.960 . S
C1586 C1584 1.381 . S
C1586 C1587 1.394 . S
C1586 H1594 0.930 . S
C1587 C1586 1.394 . S
C1587 C1588 1.383 . S
C1587 H1595 0.929 . S
C1588 C1587 1.383 . S
C1588 C1589 1.377 . S
C1589 H1573 0.930 . S
C1589 C1588 1.377 . S
C1589 C1590 1.379 . S
C1590 H1574 0.931 . S
C1590 C1584 1.383 . S
C1590 C1589 1.379 . S
H1591 C1585 0.959 . S
H1592 C1585 0.961 . S
H1593 C1585 0.960 . S
H1594 C1586 0.930 . S
H1595 C1587 0.929 . S
H1596 C1604 0.929 . S
H1597 C1606 0.930 . S
H1598 C1608 0.930 . S
H1599 C1611 0.929 . S
H1600 C1614 0.930 . S
H1601 C1616 0.960 . S
H1602 C1616 0.960 . S
H1603 C1616 0.960 . S
C1604 H1596 0.929 . S
C1604 C1605 1.377 . S
C1604 C1606 1.384 . S
C1605 C1604 1.377 . S
C1605 C1611 1.390 . S
C1606 H1597 0.930 . S
C1606 C1604 1.384 . S
C1606 C1607 1.372 . S
C1607 C1606 1.372 . S
C1607 C1608 1.400 . S
C1607 C1612 1.490 . S
C1608 H1598 0.930 . S
C1608 C1607 1.400 . S
C1608 C1611 1.386 . S
H1609 C1625 0.930 . S
H1610 C1626 0.931 . S
C1611 H1599 0.929 . S
C1611 C1605 1.390 . S
C1611 C1608 1.386 . S
C1612 C1607 1.490 . S
C1612 C1614 1.395 . S
C1612 C1615 1.403 . S
H1613 C1619 0.930 . S
C1614 H1600 0.930 . S
C1614 C1612 1.395 . S
C1614 C1617 1.403 . S
C1615 C1612 1.403 . S
C1615 C1616 1.524 . S
C1615 C1619 1.400 . S
C1616 H1601 0.960 . S
C1616 H1602 0.960 . S
C1616 H1603 0.960 . S
C1616 C1615 1.524 . S
C1617 C1614 1.403 . S
C1617 C1618 1.392 . S
C1617 C1621 1.495 . S
C1618 C1617 1.392 . S
C1618 C1619 1.385 . S
C1618 C1620 1.478 . S
C1619 H1613 0.930 . S
C1619 C1615 1.400 . S
C1619 C1618 1.385 . S
C1620 C1618 1.478 . S
C1620 C1622 1.381 . S
C1620 C1626 1.383 . S
C1621 C1617 1.495 . S
C1621 H1627 0.959 . S
C1621 H1628 0.961 . S
C1621 H1629 0.960 . S
C1622 C1620 1.381 . S
C1622 C1623 1.394 . S
C1622 H1630 0.930 . S
C1623 C1622 1.394 . S
C1623 C1624 1.383 . S
C1623 H1631 0.929 . S
C1624 C1623 1.383 . S
C1624 C1625 1.377 . S
C1625 H1609 0.930 . S
C1625 C1624 1.377 . S
C1625 C1626 1.379 . S
C1626 H1610 0.931 . S
C1626 C1620 1.383 . S
C1626 C1625 1.379 . S
H1627 C1621 0.959 . S
H1628 C1621 0.961 . S
H1629 C1621 0.960 . S
H1630 C1622 0.930 . S
H1631 C1623 0.929 . S
H1632 C1640 0.929 . S
H1633 C1642 0.930 . S
H1634 C1644 0.930 . S
H1635 C1647 0.929 . S
H1636 C1650 0.930 . S
H1637 C1652 0.960 . S
H1638 C1652 0.960 . S
H1639 C1652 0.960 . S
C1640 H1632 0.929 . S
C1640 C1641 1.377 . S
C1640 C1642 1.384 . S
C1641 C1640 1.377 . S
C1641 C1647 1.390 . S
C1642 H1633 0.930 . S
C1642 C1640 1.384 . S
C1642 C1643 1.372 . S
C1643 C1642 1.372 . S
C1643 C1644 1.400 . S
C1643 C1648 1.490 . S
C1644 H1634 0.930 . S
C1644 C1643 1.400 . S
C1644 C1647 1.386 . S
H1645 C1661 0.930 . S
H1646 C1662 0.931 . S
C1647 H1635 0.929 . S
C1647 C1641 1.390 . S
C1647 C1644 1.386 . S
C1648 C1643 1.490 . S
C1648 C1650 1.395 . S
C1648 C1651 1.403 . S
H1649 C1655 0.930 . S
C1650 H1636 0.930 . S
C1650 C1648 1.395 . S
C1650 C1653 1.403 1_556 S
C1651 C1648 1.403 . S
C1651 C1652 1.524 . S
C1651 C1655 1.400 1_556 S
C1652 H1637 0.960 . S
C1652 H1638 0.960 . S
C1652 H1639 0.960 . S
C1652 C1651 1.524 . S
C1653 C1650 1.403 1_554 S
C1653 C1654 1.392 . S
C1653 C1657 1.495 . S
C1654 C1653 1.392 . S
C1654 C1655 1.385 . S
C1654 C1656 1.478 . S
C1655 H1649 0.930 . S
C1655 C1651 1.400 1_554 S
C1655 C1654 1.385 . S
C1656 C1654 1.478 . S
C1656 C1658 1.381 . S
C1656 C1662 1.383 . S
C1657 C1653 1.495 . S
C1657 H1663 0.959 . S
C1657 H1664 0.961 . S
C1657 H1665 0.960 . S
C1658 C1656 1.381 . S
C1658 C1659 1.394 . S
C1658 H1666 0.930 . S
C1659 C1658 1.394 . S
C1659 C1660 1.383 . S
C1659 H1667 0.929 . S
C1660 C1659 1.383 . S
C1660 C1661 1.377 . S
C1661 H1645 0.930 . S
C1661 C1660 1.377 . S
C1661 C1662 1.379 . S
C1662 H1646 0.931 . S
C1662 C1656 1.383 . S
C1662 C1661 1.379 . S
H1663 C1657 0.959 . S
H1664 C1657 0.961 . S
H1665 C1657 0.960 . S
H1666 C1658 0.930 . S
H1667 C1659 0.929 . S
H1668 C1676 0.929 . S
H1669 C1678 0.930 . S
H1670 C1680 0.930 1_655 S
H1671 C1683 0.929 1_655 S
H1672 C1686 0.930 . S
H1673 C1688 0.960 . S
H1674 C1688 0.960 . S
H1675 C1688 0.960 1_655 S
C1676 H1668 0.929 . S
C1676 C1677 1.377 . S
C1676 C1678 1.384 . S
C1677 C1676 1.377 . S
C1677 C1683 1.390 . S
C1678 H1669 0.930 . S
C1678 C1676 1.384 . S
C1678 C1679 1.372 . S
C1679 C1678 1.372 . S
C1679 C1680 1.400 . S
C1679 C1684 1.490 . S
C1680 H1670 0.930 1_455 S
C1680 C1679 1.400 . S
C1680 C1683 1.386 . S
H1681 C1697 0.929 1_655 S
H1682 C1698 0.931 1_655 S
C1683 H1671 0.929 1_455 S
C1683 C1677 1.390 . S
C1683 C1680 1.386 . S
C1684 C1679 1.490 . S
C1684 C1686 1.395 . S
C1684 C1687 1.403 1_565 S
H1685 C1691 0.930 . S
C1686 H1672 0.930 . S
C1686 C1684 1.395 . S
C1686 C1689 1.403 . S
C1687 C1684 1.403 1_545 S
C1687 C1688 1.524 . S
C1687 C1691 1.400 . S
C1688 H1673 0.960 . S
C1688 H1674 0.960 . S
C1688 H1675 0.960 1_455 S
C1688 C1687 1.524 . S
C1689 C1686 1.403 . S
C1689 C1690 1.392 . S
C1689 C1693 1.495 . S
C1690 C1689 1.392 . S
C1690 C1691 1.385 1_565 S
C1690 C1692 1.478 . S
C1691 H1685 0.930 . S
C1691 C1687 1.400 . S
C1691 C1690 1.385 1_545 S
C1692 C1690 1.478 . S
C1692 C1694 1.381 1_565 S
C1692 C1698 1.383 . S
C1693 C1689 1.495 . S
C1693 H1699 0.959 . S
C1693 H1700 0.961 . S
C1693 H1701 0.960 . S
C1694 C1692 1.381 1_545 S
C1694 C1695 1.394 . S
C1694 H1702 0.930 . S
C1695 C1694 1.394 . S
C1695 C1696 1.383 . S
C1695 H1703 0.929 . S
C1696 C1695 1.383 . S
C1696 C1697 1.380 . S
C1697 H1681 0.929 1_455 S
C1697 C1696 1.380 . S
C1697 C1698 1.377 1_545 S
C1698 H1682 0.931 1_455 S
C1698 C1692 1.383 . S
C1698 C1697 1.377 1_565 S
H1699 C1693 0.959 . S
H1700 C1693 0.961 . S
H1701 C1693 0.960 . S
H1702 C1694 0.930 . S
H1703 C1695 0.929 . S
H1704 C1712 0.929 . S
H1705 C1714 0.930 . S
H1706 C1716 0.930 . S
H1707 C1719 0.929 . S
H1708 C1722 0.930 . S
H1709 C1724 0.960 . S
H1710 C1724 0.960 . S
H1711 C1724 0.960 . S
C1712 H1704 0.929 . S
C1712 C1713 1.377 . S
C1712 C1714 1.384 . S
C1713 C1712 1.377 . S
C1713 C1719 1.390 . S
C1714 H1705 0.930 . S
C1714 C1712 1.384 . S
C1714 C1715 1.372 . S
C1715 C1714 1.372 . S
C1715 C1716 1.400 . S
C1715 C1720 1.490 . S
C1716 H1706 0.930 . S
C1716 C1715 1.400 . S
C1716 C1719 1.386 . S
H1717 C1733 0.930 . S
H1718 C1734 0.931 . S
C1719 H1707 0.929 . S
C1719 C1713 1.390 . S
C1719 C1716 1.386 . S
C1720 C1715 1.490 . S
C1720 C1722 1.395 . S
C1720 C1723 1.403 . S
H1721 C1727 0.930 . S
C1722 H1708 0.930 . S
C1722 C1720 1.395 . S
C1722 C1725 1.403 . S
C1723 C1720 1.403 . S
C1723 C1724 1.524 . S
C1723 C1727 1.400 . S
C1724 H1709 0.960 . S
C1724 H1710 0.960 . S
C1724 H1711 0.960 . S
C1724 C1723 1.524 . S
C1725 C1722 1.403 . S
C1725 C1726 1.392 . S
C1725 C1729 1.495 . S
C1726 C1725 1.392 . S
C1726 C1727 1.385 . S
C1726 C1728 1.478 . S
C1727 H1721 0.930 . S
C1727 C1723 1.400 . S
C1727 C1726 1.385 . S
C1728 C1726 1.478 . S
C1728 C1730 1.381 . S
C1728 C1734 1.383 . S
C1729 C1725 1.495 . S
C1729 H1735 0.959 . S
C1729 H1736 0.961 . S
C1729 H1737 0.960 . S
C1730 C1728 1.381 . S
C1730 C1731 1.394 . S
C1730 H1738 0.930 . S
C1731 C1730 1.394 . S
C1731 C1732 1.383 . S
C1731 H1739 0.929 . S
C1732 C1731 1.383 . S
C1732 C1733 1.377 . S
C1733 H1717 0.930 . S
C1733 C1732 1.377 . S
C1733 C1734 1.379 . S
C1734 H1718 0.931 . S
C1734 C1728 1.383 . S
C1734 C1733 1.379 . S
H1735 C1729 0.959 . S
H1736 C1729 0.961 . S
H1737 C1729 0.960 . S
H1738 C1730 0.930 . S
H1739 C1731 0.929 . S
H1740 C1748 0.929 . S
H1741 C1750 0.930 . S
H1742 C1752 0.930 . S
H1743 C1755 0.929 . S
H1744 C1758 0.930 . S
H1745 C1760 0.960 . S
H1746 C1760 0.960 . S
H1747 C1760 0.960 . S
C1748 H1740 0.929 . S
C1748 C1749 1.377 1_565 S
C1748 C1750 1.384 . S
C1749 C1748 1.377 1_545 S
C1749 C1755 1.390 . S
C1750 H1741 0.930 . S
C1750 C1748 1.384 . S
C1750 C1751 1.372 1_565 S
C1751 C1750 1.372 1_545 S
C1751 C1752 1.400 . S
C1751 C1756 1.489 1_545 S
C1752 H1742 0.930 . S
C1752 C1751 1.400 . S
C1752 C1755 1.386 . S
H1753 C1769 0.930 . S
H1754 C1770 0.931 . S
C1755 H1743 0.929 . S
C1755 C1749 1.390 . S
C1755 C1752 1.386 . S
C1756 C1751 1.489 1_565 S
C1756 C1758 1.410 . S
C1756 C1759 1.389 1_565 S
H1757 C1763 0.930 . S
C1758 H1744 0.930 . S
C1758 C1756 1.410 . S
C1758 C1761 1.403 . S
C1759 C1756 1.389 1_545 S
C1759 C1760 1.524 . S
C1759 C1763 1.400 . S
C1760 H1745 0.960 . S
C1760 H1746 0.960 . S
C1760 H1747 0.960 . S
C1760 C1759 1.524 . S
C1761 C1758 1.403 . S
C1761 C1762 1.392 . S
C1761 C1765 1.495 . S
C1762 C1761 1.392 . S
C1762 C1763 1.385 1_565 S
C1762 C1764 1.478 . S
C1763 H1757 0.930 . S
C1763 C1759 1.400 . S
C1763 C1762 1.385 1_545 S
C1764 C1762 1.478 . S
C1764 C1766 1.381 . S
C1764 C1770 1.383 1_565 S
C1765 C1761 1.495 . S
C1765 H1771 0.959 . S
C1765 H1772 0.961 . S
C1765 H1773 0.960 . S
C1766 C1764 1.381 . S
C1766 C1767 1.394 . S
C1766 H1774 0.930 . S
C1767 C1766 1.394 . S
C1767 C1768 1.383 . S
C1767 H1775 0.929 . S
C1768 C1767 1.383 . S
C1768 C1769 1.377 1_565 S
C1769 H1753 0.930 . S
C1769 C1768 1.377 1_545 S
C1769 C1770 1.379 . S
C1770 H1754 0.931 . S
C1770 C1764 1.383 1_545 S
C1770 C1769 1.379 . S
H1771 C1765 0.959 . S
H1772 C1765 0.961 . S
H1773 C1765 0.960 . S
H1774 C1766 0.930 . S
H1775 C1767 0.929 . S
H1776 C1784 0.929 . S
H1777 C1786 0.930 . S
H1778 C1788 0.930 . S
H1779 C1791 0.929 . S
H1780 C1794 0.930 . S
H1781 C1796 0.960 . S
H1782 C1796 0.960 . S
H1783 C1796 0.960 . S
C1784 H1776 0.929 . S
C1784 C1785 1.377 . S
C1784 C1786 1.384 . S
C1785 C1784 1.377 . S
C1785 C1791 1.390 . S
C1786 H1777 0.930 . S
C1786 C1784 1.384 . S
C1786 C1787 1.372 . S
C1787 C1786 1.372 . S
C1787 C1788 1.400 . S
C1787 C1792 1.490 . S
C1788 H1778 0.930 . S
C1788 C1787 1.400 . S
C1788 C1791 1.386 . S
H1789 C1805 0.930 . S
H1790 C1806 0.931 . S
C1791 H1779 0.929 . S
C1791 C1785 1.390 . S
C1791 C1788 1.386 . S
C1792 C1787 1.490 . S
C1792 C1794 1.395 . S
C1792 C1795 1.403 . S
H1793 C1799 0.930 . S
C1794 H1780 0.930 . S
C1794 C1792 1.395 . S
C1794 C1797 1.403 1_556 S
C1795 C1792 1.403 . S
C1795 C1796 1.524 . S
C1795 C1799 1.400 1_556 S
C1796 H1781 0.960 . S
C1796 H1782 0.960 . S
C1796 H1783 0.960 . S
C1796 C1795 1.524 . S
C1797 C1794 1.403 1_554 S
C1797 C1798 1.392 . S
C1797 C1801 1.495 . S
C1798 C1797 1.392 . S
C1798 C1799 1.385 . S
C1798 C1800 1.478 . S
C1799 H1793 0.930 . S
C1799 C1795 1.400 1_554 S
C1799 C1798 1.385 . S
C1800 C1798 1.478 . S
C1800 C1802 1.381 . S
C1800 C1806 1.383 . S
C1801 C1797 1.495 . S
C1801 H1807 0.959 . S
C1801 H1808 0.961 . S
C1801 H1809 0.960 . S
C1802 C1800 1.381 . S
C1802 C1803 1.394 . S
C1802 H1810 0.930 . S
C1803 C1802 1.394 . S
C1803 C1804 1.383 . S
C1803 H1811 0.929 . S
C1804 C1803 1.383 . S
C1804 C1805 1.377 . S
C1805 H1789 0.930 . S
C1805 C1804 1.377 . S
C1805 C1806 1.379 . S
C1806 H1790 0.931 . S
C1806 C1800 1.383 . S
C1806 C1805 1.379 . S
H1807 C1801 0.959 . S
H1808 C1801 0.961 . S
H1809 C1801 0.960 . S
H1810 C1802 0.930 . S
H1811 C1803 0.929 . S
H1812 C1820 0.932 1_455 S
H1813 C1822 0.930 1_455 S
H1814 C1824 0.930 . S
H1815 C1827 0.929 . S
H1816 C1830 0.930 . S
H1817 C1832 0.960 . S
H1818 C1832 0.960 . S
H1819 C1832 0.960 . S
C1820 H1812 0.932 1_655 S
C1820 C1821 1.374 1_545 S
C1820 C1822 1.385 . S
C1821 C1820 1.374 1_565 S
C1821 C1827 1.390 . S
C1822 H1813 0.930 1_655 S
C1822 C1820 1.385 . S
C1822 C1823 1.372 1_545 S
C1823 C1822 1.372 1_565 S
C1823 C1824 1.400 . S
C1823 C1828 1.490 . S
C1824 H1814 0.930 . S
C1824 C1823 1.400 . S
C1824 C1827 1.386 . S
H1825 C1841 0.930 . S
H1826 C1842 0.931 . S
C1827 H1815 0.929 . S
C1827 C1821 1.390 . S
C1827 C1824 1.386 . S
C1828 C1823 1.490 . S
C1828 C1830 1.395 . S
C1828 C1831 1.403 1_565 S
H1829 C1835 0.930 . S
C1830 H1816 0.930 . S
C1830 C1828 1.395 . S
C1830 C1833 1.403 . S
C1831 C1828 1.403 1_545 S
C1831 C1832 1.524 . S
C1831 C1835 1.400 . S
C1832 H1817 0.960 . S
C1832 H1818 0.960 . S
C1832 H1819 0.960 . S
C1832 C1831 1.524 . S
C1833 C1830 1.403 . S
C1833 C1834 1.392 . S
C1833 C1837 1.495 1_655 S
C1834 C1833 1.392 . S
C1834 C1835 1.385 1_565 S
C1834 C1836 1.478 . S
C1835 H1829 0.930 . S
C1835 C1831 1.400 . S
C1835 C1834 1.385 1_545 S
C1836 C1834 1.478 . S
C1836 C1838 1.381 1_565 S
C1836 C1842 1.383 . S
C1837 C1833 1.495 1_455 S
C1837 H1843 0.959 . S
C1837 H1844 0.961 1_455 S
C1837 H1845 0.960 . S
C1838 C1836 1.381 1_545 S
C1838 C1839 1.394 . S
C1838 H1846 0.930 1_655 S
C1839 C1838 1.394 . S
C1839 C1840 1.383 . S
C1839 H1847 0.929 1_655 S
C1840 C1839 1.383 . S
C1840 C1841 1.377 1_545 S
C1841 H1825 0.930 . S
C1841 C1840 1.377 1_565 S
C1841 C1842 1.379 . S
C1842 H1826 0.931 . S
C1842 C1836 1.383 . S
C1842 C1841 1.379 . S
H1843 C1837 0.959 . S
H1844 C1837 0.961 1_655 S
H1845 C1837 0.960 . S
H1846 C1838 0.930 1_455 S
H1847 C1839 0.929 1_455 S
H1848 C1856 0.929 . S
H1849 C1858 0.930 . S
H1850 C1860 0.930 . S
H1851 C1863 0.929 . S
H1852 C1866 0.930 . S
H1853 C1868 0.960 . S
H1854 C1868 0.960 . S
H1855 C1868 0.960 . S
C1856 H1848 0.929 . S
C1856 C1857 1.377 . S
C1856 C1858 1.384 . S
C1857 C1856 1.377 . S
C1857 C1863 1.390 . S
C1858 H1849 0.930 . S
C1858 C1856 1.384 . S
C1858 C1859 1.372 . S
C1859 C1858 1.372 . S
C1859 C1860 1.400 . S
C1859 C1864 1.490 . S
C1860 H1850 0.930 . S
C1860 C1859 1.400 . S
C1860 C1863 1.386 . S
H1861 C1877 0.930 . S
H1862 C1878 0.931 . S
C1863 H1851 0.929 . S
C1863 C1857 1.390 . S
C1863 C1860 1.386 . S
C1864 C1859 1.490 . S
C1864 C1866 1.395 . S
C1864 C1867 1.403 . S
H1865 C1871 0.930 . S
C1866 H1852 0.930 . S
C1866 C1864 1.395 . S
C1866 C1869 1.403 . S
C1867 C1864 1.403 . S
C1867 C1868 1.524 . S
C1867 C1871 1.400 . S
C1868 H1853 0.960 . S
C1868 H1854 0.960 . S
C1868 H1855 0.960 . S
C1868 C1867 1.524 . S
C1869 C1866 1.403 . S
C1869 C1870 1.392 . S
C1869 C1873 1.495 . S
C1870 C1869 1.392 . S
C1870 C1871 1.385 . S
C1870 C1872 1.478 . S
C1871 H1865 0.930 . S
C1871 C1867 1.400 . S
C1871 C1870 1.385 . S
C1872 C1870 1.478 . S
C1872 C1874 1.381 . S
C1872 C1878 1.383 . S
C1873 C1869 1.495 . S
C1873 H1879 0.959 . S
C1873 H1880 0.961 . S
C1873 H1881 0.960 . S
C1874 C1872 1.381 . S
C1874 C1875 1.394 . S
C1874 H1882 0.930 . S
C1875 C1874 1.394 . S
C1875 C1876 1.383 . S
C1875 H1883 0.929 . S
C1876 C1875 1.383 . S
C1876 C1877 1.377 . S
C1877 H1861 0.930 . S
C1877 C1876 1.377 . S
C1877 C1878 1.379 . S
C1878 H1862 0.931 . S
C1878 C1872 1.383 . S
C1878 C1877 1.379 . S
H1879 C1873 0.959 . S
H1880 C1873 0.961 . S
H1881 C1873 0.960 . S
H1882 C1874 0.930 . S
H1883 C1875 0.929 . S
H1884 C1892 0.929 . S
H1885 C1894 0.930 . S
H1886 C1896 0.930 . S
H1887 C1899 0.929 . S
H1888 C1902 0.930 . S
H1889 C1904 0.960 . S
H1890 C1904 0.959 . S
H1891 C1904 0.961 1_545 S
C1892 H1884 0.929 . S
C1892 C1893 1.377 1_565 S
C1892 C1894 1.384 . S
C1893 C1892 1.377 1_545 S
C1893 C1899 1.390 . S
C1894 H1885 0.930 . S
C1894 C1892 1.384 . S
C1894 C1895 1.372 1_565 S
C1895 C1894 1.372 1_545 S
C1895 C1896 1.400 . S
C1895 C1900 1.490 1_545 S
C1896 H1886 0.930 . S
C1896 C1895 1.400 . S
C1896 C1899 1.386 . S
H1897 C1913 0.930 . S
H1898 C1914 0.931 . S
C1899 H1887 0.929 . S
C1899 C1893 1.390 . S
C1899 C1896 1.386 . S
C1900 C1895 1.490 1_565 S
C1900 C1902 1.394 . S
C1900 C1903 1.403 . S
H1901 C1907 0.932 . S
C1902 H1888 0.930 . S
C1902 C1900 1.394 . S
C1902 C1905 1.403 . S
C1903 C1900 1.403 . S
C1903 C1904 1.524 . S
C1903 C1907 1.400 . S
C1904 H1889 0.960 . S
C1904 H1890 0.959 . S
C1904 H1891 0.961 1_565 S
C1904 C1903 1.524 . S
C1905 C1902 1.403 . S
C1905 C1906 1.392 . S
C1905 C1909 1.495 . S
C1906 C1905 1.392 . S
C1906 C1907 1.385 . S
C1906 C1908 1.478 . S
C1907 H1901 0.932 . S
C1907 C1903 1.400 . S
C1907 C1906 1.385 . S
C1908 C1906 1.478 . S
C1908 C1910 1.381 . S
C1908 C1914 1.383 1_565 S
C1909 C1905 1.495 . S
C1909 H1915 0.959 . S
C1909 H1916 0.961 1_565 S
C1909 H1917 0.960 . S
C1910 C1908 1.381 . S
C1910 C1911 1.394 . S
C1910 H1918 0.930 . S
C1911 C1910 1.394 . S
C1911 C1912 1.383 . S
C1911 H1919 0.929 . S
C1912 C1911 1.383 . S
C1912 C1913 1.377 1_565 S
C1913 H1897 0.930 . S
C1913 C1912 1.377 1_545 S
C1913 C1914 1.379 . S
C1914 H1898 0.931 . S
C1914 C1908 1.383 1_545 S
C1914 C1913 1.379 . S
H1915 C1909 0.959 . S
H1916 C1909 0.961 1_545 S
H1917 C1909 0.960 . S
H1918 C1910 0.930 . S
H1919 C1911 0.929 . S
H1920 C1928 0.929 . S
H1921 C1930 0.930 . S
H1922 C1932 0.930 . S
H1923 C1935 0.929 . S
H1924 C1938 0.930 . S
H1925 C1940 0.960 . S
H1926 C1940 0.960 . S
H1927 C1940 0.960 . S
C1928 H1920 0.929 . S
C1928 C1929 1.377 . S
C1928 C1930 1.384 . S
C1929 C1928 1.377 . S
C1929 C1935 1.390 . S
C1930 H1921 0.930 . S
C1930 C1928 1.384 . S
C1930 C1931 1.372 . S
C1931 C1930 1.372 . S
C1931 C1932 1.400 . S
C1931 C1936 1.490 . S
C1932 H1922 0.930 . S
C1932 C1931 1.400 . S
C1932 C1935 1.386 . S
H1933 C1949 0.930 . S
H1934 C1950 0.931 . S
C1935 H1923 0.929 . S
C1935 C1929 1.390 . S
C1935 C1932 1.386 . S
C1936 C1931 1.490 . S
C1936 C1938 1.395 . S
C1936 C1939 1.403 . S
H1937 C1943 0.930 . S
C1938 H1924 0.930 . S
C1938 C1936 1.395 . S
C1938 C1941 1.403 . S
C1939 C1936 1.403 . S
C1939 C1940 1.524 . S
C1939 C1943 1.400 . S
C1940 H1925 0.960 . S
C1940 H1926 0.960 . S
C1940 H1927 0.960 . S
C1940 C1939 1.524 . S
C1941 C1938 1.403 . S
C1941 C1942 1.392 . S
C1941 C1945 1.495 . S
C1942 C1941 1.392 . S
C1942 C1943 1.385 . S
C1942 C1944 1.478 . S
C1943 H1937 0.930 . S
C1943 C1939 1.400 . S
C1943 C1942 1.385 . S
C1944 C1942 1.478 . S
C1944 C1946 1.381 . S
C1944 C1950 1.383 . S
C1945 C1941 1.495 . S
C1945 H1951 0.959 . S
C1945 H1952 0.961 . S
C1945 H1953 0.960 . S
C1946 C1944 1.381 . S
C1946 C1947 1.394 . S
C1946 H1954 0.930 . S
C1947 C1946 1.394 . S
C1947 C1948 1.383 . S
C1947 H1955 0.929 . S
C1948 C1947 1.383 . S
C1948 C1949 1.377 . S
C1949 H1933 0.930 . S
C1949 C1948 1.377 . S
C1949 C1950 1.379 . S
C1950 H1934 0.931 . S
C1950 C1944 1.383 . S
C1950 C1949 1.379 . S
H1951 C1945 0.959 . S
H1952 C1945 0.961 . S
H1953 C1945 0.960 . S
H1954 C1946 0.930 . S
H1955 C1947 0.929 . S
H1956 C1964 0.929 . S
H1957 C1966 0.930 . S
H1958 C1968 0.930 . S
H1959 C1971 0.929 . S
H1960 C1974 0.930 . S
H1961 C1976 0.960 . S
H1962 C1976 0.960 . S
H1963 C1976 0.960 . S
C1964 H1956 0.929 . S
C1964 C1965 1.377 . S
C1964 C1966 1.384 . S
C1965 C1964 1.377 . S
C1965 C1971 1.390 . S
C1966 H1957 0.930 . S
C1966 C1964 1.384 . S
C1966 C1967 1.372 . S
C1967 C1966 1.372 . S
C1967 C1968 1.400 . S
C1967 C1972 1.490 . S
C1968 H1958 0.930 . S
C1968 C1967 1.400 . S
C1968 C1971 1.386 . S
H1969 C1985 0.930 . S
H1970 C1986 0.931 . S
C1971 H1959 0.929 . S
C1971 C1965 1.390 . S
C1971 C1968 1.386 . S
C1972 C1967 1.490 . S
C1972 C1974 1.395 . S
C1972 C1975 1.403 . S
H1973 C1979 0.930 . S
C1974 H1960 0.930 . S
C1974 C1972 1.395 . S
C1974 C1977 1.403 . S
C1975 C1972 1.403 . S
C1975 C1976 1.524 . S
C1975 C1979 1.400 . S
C1976 H1961 0.960 . S
C1976 H1962 0.960 . S
C1976 H1963 0.960 . S
C1976 C1975 1.524 . S
C1977 C1974 1.403 . S
C1977 C1978 1.392 . S
C1977 C1981 1.495 . S
C1978 C1977 1.392 . S
C1978 C1979 1.385 . S
C1978 C1980 1.478 . S
C1979 H1973 0.930 . S
C1979 C1975 1.400 . S
C1979 C1978 1.385 . S
C1980 C1978 1.478 . S
C1980 C1982 1.381 . S
C1980 C1986 1.383 . S
C1981 C1977 1.495 . S
C1981 H1987 0.959 . S
C1981 H1988 0.961 . S
C1981 H1989 0.960 . S
C1982 C1980 1.381 . S
C1982 C1983 1.394 . S
C1982 H1990 0.930 . S
C1983 C1982 1.394 . S
C1983 C1984 1.383 . S
C1983 H1991 0.929 . S
C1984 C1983 1.383 . S
C1984 C1985 1.377 . S
C1985 H1969 0.930 . S
C1985 C1984 1.377 . S
C1985 C1986 1.379 . S
C1986 H1970 0.931 . S
C1986 C1980 1.383 . S
C1986 C1985 1.379 . S
H1987 C1981 0.959 . S
H1988 C1981 0.961 . S
H1989 C1981 0.960 . S
H1990 C1982 0.930 . S
H1991 C1983 0.929 . S
H1992 C2000 0.929 . S
H1993 C2002 0.930 . S
H1994 C2004 0.930 . S
H1995 C2007 0.929 . S
H1996 C2010 0.930 . S
H1997 C2012 0.960 . S
H1998 C2012 0.960 . S
H1999 C2012 0.960 . S
C2000 H1992 0.929 . S
C2000 C2001 1.377 . S
C2000 C2002 1.384 . S
C2001 C2000 1.377 . S
C2001 C2007 1.390 . S
C2002 H1993 0.930 . S
C2002 C2000 1.384 . S
C2002 C2003 1.372 . S
C2003 C2002 1.372 . S
C2003 C2004 1.400 . S
C2003 C2008 1.490 . S
C2004 H1994 0.930 . S
C2004 C2003 1.400 . S
C2004 C2007 1.386 . S
H2005 C2021 0.930 . S
H2006 C2022 0.931 . S
C2007 H1995 0.929 . S
C2007 C2001 1.390 . S
C2007 C2004 1.386 . S
C2008 C2003 1.490 . S
C2008 C2010 1.395 . S
C2008 C2011 1.403 . S
H2009 C2015 0.930 . S
C2010 H1996 0.930 . S
C2010 C2008 1.395 . S
C2010 C2013 1.403 1_556 S
C2011 C2008 1.403 . S
C2011 C2012 1.524 . S
C2011 C2015 1.400 1_556 S
C2012 H1997 0.960 . S
C2012 H1998 0.960 . S
C2012 H1999 0.960 . S
C2012 C2011 1.524 . S
C2013 C2010 1.403 1_554 S
C2013 C2014 1.392 . S
C2013 C2017 1.495 . S
C2014 C2013 1.392 . S
C2014 C2015 1.385 . S
C2014 C2016 1.478 . S
C2015 H2009 0.930 . S
C2015 C2011 1.400 1_554 S
C2015 C2014 1.385 . S
C2016 C2014 1.478 . S
C2016 C2018 1.381 . S
C2016 C2022 1.383 . S
C2017 C2013 1.495 . S
C2017 H2023 0.959 . S
C2017 H2024 0.961 . S
C2017 H2025 0.960 . S
C2018 C2016 1.381 . S
C2018 C2019 1.394 . S
C2018 H2026 0.930 . S
C2019 C2018 1.394 . S
C2019 C2020 1.383 . S
C2019 H2027 0.929 . S
C2020 C2019 1.383 . S
C2020 C2021 1.377 . S
C2021 H2005 0.930 . S
C2021 C2020 1.377 . S
C2021 C2022 1.379 . S
C2022 H2006 0.931 . S
C2022 C2016 1.383 . S
C2022 C2021 1.379 . S
H2023 C2017 0.959 . S
H2024 C2017 0.961 . S
H2025 C2017 0.960 . S
H2026 C2018 0.930 . S
H2027 C2019 0.929 . S
H2028 C2036 0.929 . S
H2029 C2038 0.930 . S
H2030 C2040 0.930 . S
H2031 C2043 0.929 . S
H2032 C2046 0.930 . S
H2033 C2048 0.960 . S
H2034 C2048 0.960 . S
H2035 C2048 0.960 . S
C2036 H2028 0.929 . S
C2036 C2037 1.377 . S
C2036 C2038 1.384 . S
C2037 C2036 1.377 . S
C2037 C2043 1.390 . S
C2038 H2029 0.930 . S
C2038 C2036 1.384 . S
C2038 C2039 1.372 . S
C2039 C2038 1.372 . S
C2039 C2040 1.400 . S
C2039 C2044 1.490 . S
C2040 H2030 0.930 . S
C2040 C2039 1.400 . S
C2040 C2043 1.386 . S
H2041 C2057 0.930 . S
H2042 C2058 0.931 . S
C2043 H2031 0.929 . S
C2043 C2037 1.390 . S
C2043 C2040 1.386 . S
C2044 C2039 1.490 . S
C2044 C2046 1.395 . S
C2044 C2047 1.403 . S
H2045 C2051 0.930 . S
C2046 H2032 0.930 . S
C2046 C2044 1.395 . S
C2046 C2049 1.403 . S
C2047 C2044 1.403 . S
C2047 C2048 1.524 . S
C2047 C2051 1.400 . S
C2048 H2033 0.960 . S
C2048 H2034 0.960 . S
C2048 H2035 0.960 . S
C2048 C2047 1.524 . S
C2049 C2046 1.403 . S
C2049 C2050 1.392 . S
C2049 C2053 1.495 . S
C2050 C2049 1.392 . S
C2050 C2051 1.385 . S
C2050 C2052 1.478 . S
C2051 H2045 0.930 . S
C2051 C2047 1.400 . S
C2051 C2050 1.385 . S
C2052 C2050 1.478 . S
C2052 C2054 1.381 . S
C2052 C2058 1.383 . S
C2053 C2049 1.495 . S
C2053 H2059 0.959 . S
C2053 H2060 0.961 1_655 S
C2053 H2061 0.960 . S
C2054 C2052 1.381 . S
C2054 C2055 1.394 . S
C2054 H2062 0.930 . S
C2055 C2054 1.394 . S
C2055 C2056 1.383 . S
C2055 H2063 0.929 . S
C2056 C2055 1.383 . S
C2056 C2057 1.377 . S
C2057 H2041 0.930 . S
C2057 C2056 1.377 . S
C2057 C2058 1.379 . S
C2058 H2042 0.931 . S
C2058 C2052 1.383 . S
C2058 C2057 1.379 . S
H2059 C2053 0.959 . S
H2060 C2053 0.961 1_455 S
H2061 C2053 0.960 . S
H2062 C2054 0.930 . S
H2063 C2055 0.929 . S
H2064 C2072 0.929 . S
H2065 C2074 0.930 . S
H2066 C2076 0.930 . S
H2067 C2079 0.929 . S
H2068 C2082 0.930 . S
H2069 C2084 0.960 . S
H2070 C2084 0.960 . S
H2071 C2084 0.960 . S
C2072 H2064 0.929 . S
C2072 C2073 1.377 . S
C2072 C2074 1.384 . S
C2073 C2072 1.377 . S
C2073 C2079 1.390 . S
C2074 H2065 0.930 . S
C2074 C2072 1.384 . S
C2074 C2075 1.372 . S
C2075 C2074 1.372 . S
C2075 C2076 1.400 . S
C2075 C2080 1.490 . S
C2076 H2066 0.930 . S
C2076 C2075 1.400 . S
C2076 C2079 1.386 . S
H2077 C2093 0.930 . S
H2078 C2094 0.931 . S
C2079 H2067 0.929 . S
C2079 C2073 1.390 . S
C2079 C2076 1.386 . S
C2080 C2075 1.490 . S
C2080 C2082 1.395 . S
C2080 C2083 1.403 . S
H2081 C2087 0.930 . S
C2082 H2068 0.930 . S
C2082 C2080 1.395 . S
C2082 C2085 1.403 . S
C2083 C2080 1.403 . S
C2083 C2084 1.524 . S
C2083 C2087 1.400 . S
C2084 H2069 0.960 . S
C2084 H2070 0.960 . S
C2084 H2071 0.960 . S
C2084 C2083 1.524 . S
C2085 C2082 1.403 . S
C2085 C2086 1.392 . S
C2085 C2089 1.495 . S
C2086 C2085 1.392 . S
C2086 C2087 1.385 . S
C2086 C2088 1.478 . S
C2087 H2081 0.930 . S
C2087 C2083 1.400 . S
C2087 C2086 1.385 . S
C2088 C2086 1.478 . S
C2088 C2090 1.381 . S
C2088 C2094 1.383 . S
C2089 C2085 1.495 . S
C2089 H2095 0.959 . S
C2089 H2096 0.961 . S
C2089 H2097 0.960 . S
C2090 C2088 1.381 . S
C2090 C2091 1.394 . S
C2090 H2098 0.930 . S
C2091 C2090 1.394 . S
C2091 C2092 1.383 . S
C2091 H2099 0.929 . S
C2092 C2091 1.383 . S
C2092 C2093 1.377 . S
C2093 H2077 0.930 . S
C2093 C2092 1.377 . S
C2093 C2094 1.379 . S
C2094 H2078 0.931 . S
C2094 C2088 1.383 . S
C2094 C2093 1.379 . S
H2095 C2089 0.959 . S
H2096 C2089 0.961 . S
H2097 C2089 0.960 . S
H2098 C2090 0.930 . S
H2099 C2091 0.929 . S
H2100 C2108 0.929 . S
H2101 C2110 0.930 . S
H2102 C2112 0.930 . S
H2103 C2115 0.929 . S
H2104 C2118 0.930 . S
H2105 C2120 0.960 . S
H2106 C2120 0.960 . S
H2107 C2120 0.960 . S
C2108 H2100 0.929 . S
C2108 C2109 1.377 . S
C2108 C2110 1.384 . S
C2109 C2108 1.377 . S
C2109 C2115 1.390 . S
C2110 H2101 0.930 . S
C2110 C2108 1.384 . S
C2110 C2111 1.372 . S
C2111 C2110 1.372 . S
C2111 C2112 1.400 . S
C2111 C2116 1.490 . S
C2112 H2102 0.930 . S
C2112 C2111 1.400 . S
C2112 C2115 1.386 . S
H2113 C2129 0.930 . S
H2114 C2130 0.931 . S
C2115 H2103 0.929 . S
C2115 C2109 1.390 . S
C2115 C2112 1.386 . S
C2116 C2111 1.490 . S
C2116 C2118 1.395 . S
C2116 C2119 1.403 . S
H2117 C2123 0.930 . S
C2118 H2104 0.930 . S
C2118 C2116 1.395 . S
C2118 C2121 1.403 . S
C2119 C2116 1.403 . S
C2119 C2120 1.524 . S
C2119 C2123 1.400 . S
C2120 H2105 0.960 . S
C2120 H2106 0.960 . S
C2120 H2107 0.960 . S
C2120 C2119 1.524 . S
C2121 C2118 1.403 . S
C2121 C2122 1.392 . S
C2121 C2125 1.495 . S
C2122 C2121 1.392 . S
C2122 C2123 1.385 . S
C2122 C2124 1.478 . S
C2123 H2117 0.930 . S
C2123 C2119 1.400 . S
C2123 C2122 1.385 . S
C2124 C2122 1.478 . S
C2124 C2126 1.381 . S
C2124 C2130 1.383 . S
C2125 C2121 1.495 . S
C2125 H2131 0.959 . S
C2125 H2132 0.961 . S
C2125 H2133 0.960 . S
C2126 C2124 1.381 . S
C2126 C2127 1.394 . S
C2126 H2134 0.930 . S
C2127 C2126 1.394 . S
C2127 C2128 1.383 . S
C2127 H2135 0.929 . S
C2128 C2127 1.383 . S
C2128 C2129 1.377 . S
C2129 H2113 0.930 . S
C2129 C2128 1.377 . S
C2129 C2130 1.379 . S
C2130 H2114 0.931 . S
C2130 C2124 1.383 . S
C2130 C2129 1.379 . S
H2131 C2125 0.959 . S
H2132 C2125 0.961 . S
H2133 C2125 0.960 . S
H2134 C2126 0.930 . S
H2135 C2127 0.929 . S
H2136 C2144 0.929 . S
H2137 C2146 0.930 . S
H2138 C2148 0.930 . S
H2139 C2151 0.929 . S
H2140 C2154 0.930 . S
H2141 C2156 0.960 . S
H2142 C2156 0.960 . S
H2143 C2156 0.960 . S
C2144 H2136 0.929 . S
C2144 C2145 1.377 . S
C2144 C2146 1.384 . S
C2145 C2144 1.377 . S
C2145 C2151 1.390 . S
C2146 H2137 0.930 . S
C2146 C2144 1.384 . S
C2146 C2147 1.372 . S
C2147 C2146 1.372 . S
C2147 C2148 1.400 . S
C2147 C2152 1.490 . S
C2148 H2138 0.930 . S
C2148 C2147 1.400 . S
C2148 C2151 1.386 . S
H2149 C2165 0.930 . S
H2150 C2166 0.931 . S
C2151 H2139 0.929 . S
C2151 C2145 1.390 . S
C2151 C2148 1.386 . S
C2152 C2147 1.490 . S
C2152 C2154 1.395 . S
C2152 C2155 1.403 . S
H2153 C2159 0.930 . S
C2154 H2140 0.930 . S
C2154 C2152 1.395 . S
C2154 C2157 1.403 1_554 S
C2155 C2152 1.403 . S
C2155 C2156 1.524 . S
C2155 C2159 1.400 1_554 S
C2156 H2141 0.960 . S
C2156 H2142 0.960 . S
C2156 H2143 0.960 . S
C2156 C2155 1.524 . S
C2157 C2154 1.403 1_556 S
C2157 C2158 1.392 . S
C2157 C2161 1.495 . S
C2158 C2157 1.392 . S
C2158 C2159 1.385 . S
C2158 C2160 1.478 . S
C2159 H2153 0.930 . S
C2159 C2155 1.400 1_556 S
C2159 C2158 1.385 . S
C2160 C2158 1.478 . S
C2160 C2162 1.381 . S
C2160 C2166 1.383 . S
C2161 C2157 1.495 . S
C2161 H2167 0.959 . S
C2161 H2168 0.961 . S
C2161 H2169 0.960 . S
C2162 C2160 1.381 . S
C2162 C2163 1.394 . S
C2162 H2170 0.930 . S
C2163 C2162 1.394 . S
C2163 C2164 1.383 . S
C2163 H2171 0.929 . S
C2164 C2163 1.383 . S
C2164 C2165 1.377 . S
C2165 H2149 0.930 . S
C2165 C2164 1.377 . S
C2165 C2166 1.379 . S
C2166 H2150 0.931 . S
C2166 C2160 1.383 . S
C2166 C2165 1.379 . S
H2167 C2161 0.959 . S
H2168 C2161 0.961 . S
H2169 C2161 0.960 . S
H2170 C2162 0.930 . S
H2171 C2163 0.929 . S
H2172 C2180 0.929 1_655 S
H2173 C2182 0.930 1_655 S
H2174 C2184 0.930 . S
H2175 C2187 0.929 . S
H2176 C2190 0.930 . S
H2177 C2192 0.960 . S
H2178 C2192 0.960 . S
H2179 C2192 0.960 . S
C2180 H2172 0.929 1_455 S
C2180 C2181 1.377 . S
C2180 C2182 1.384 . S
C2181 C2180 1.377 . S
C2181 C2187 1.390 . S
C2182 H2173 0.930 1_455 S
C2182 C2180 1.384 . S
C2182 C2183 1.372 . S
C2183 C2182 1.372 . S
C2183 C2184 1.400 . S
C2183 C2188 1.490 . S
C2184 H2174 0.930 . S
C2184 C2183 1.400 . S
C2184 C2187 1.386 . S
H2185 C2201 0.930 . S
H2186 C2202 0.931 . S
C2187 H2175 0.929 . S
C2187 C2181 1.390 . S
C2187 C2184 1.386 . S
C2188 C2183 1.490 . S
C2188 C2190 1.395 . S
C2188 C2191 1.403 . S
H2189 C2195 0.930 . S
C2190 H2176 0.930 . S
C2190 C2188 1.395 . S
C2190 C2193 1.403 . S
C2191 C2188 1.403 . S
C2191 C2192 1.524 . S
C2191 C2195 1.400 . S
C2192 H2177 0.960 . S
C2192 H2178 0.960 . S
C2192 H2179 0.960 . S
C2192 C2191 1.524 . S
C2193 C2190 1.403 . S
C2193 C2194 1.392 . S
C2193 C2197 1.495 . S
C2194 C2193 1.392 . S
C2194 C2195 1.385 . S
C2194 C2196 1.478 . S
C2195 H2189 0.930 . S
C2195 C2191 1.400 . S
C2195 C2194 1.385 . S
C2196 C2194 1.478 . S
C2196 C2198 1.381 . S
C2196 C2202 1.383 . S
C2197 C2193 1.495 . S
C2197 H2203 0.959 . S
C2197 H2204 0.961 . S
C2197 H2205 0.960 . S
C2198 C2196 1.381 . S
C2198 C2199 1.394 . S
C2198 H2206 0.930 1_455 S
C2199 C2198 1.394 . S
C2199 C2200 1.383 . S
C2199 H2207 0.929 1_455 S
C2200 C2199 1.383 . S
C2200 C2201 1.377 . S
C2201 H2185 0.930 . S
C2201 C2200 1.377 . S
C2201 C2202 1.379 . S
C2202 H2186 0.931 . S
C2202 C2196 1.383 . S
C2202 C2201 1.379 . S
H2203 C2197 0.959 . S
H2204 C2197 0.961 . S
H2205 C2197 0.960 . S
H2206 C2198 0.930 1_655 S
H2207 C2199 0.929 1_655 S
H2208 C2216 0.929 . S
H2209 C2218 0.930 . S
H2210 C2220 0.930 . S
H2211 C2223 0.929 . S
H2212 C2226 0.930 . S
H2213 C2228 0.960 . S
H2214 C2228 0.960 . S
H2215 C2228 0.960 . S
C2216 H2208 0.929 . S
C2216 C2217 1.377 . S
C2216 C2218 1.384 . S
C2217 C2216 1.377 . S
C2217 C2223 1.390 . S
C2218 H2209 0.930 . S
C2218 C2216 1.384 . S
C2218 C2219 1.372 . S
C2219 C2218 1.372 . S
C2219 C2220 1.400 . S
C2219 C2224 1.490 . S
C2220 H2210 0.930 . S
C2220 C2219 1.400 . S
C2220 C2223 1.386 . S
H2221 C2237 0.930 . S
H2222 C2238 0.931 . S
C2223 H2211 0.929 . S
C2223 C2217 1.390 . S
C2223 C2220 1.386 . S
C2224 C2219 1.490 . S
C2224 C2226 1.395 . S
C2224 C2227 1.403 . S
H2225 C2231 0.930 . S
C2226 H2212 0.930 . S
C2226 C2224 1.395 . S
C2226 C2229 1.403 . S
C2227 C2224 1.403 . S
C2227 C2228 1.524 . S
C2227 C2231 1.400 . S
C2228 H2213 0.960 . S
C2228 H2214 0.960 . S
C2228 H2215 0.960 . S
C2228 C2227 1.524 . S
C2229 C2226 1.403 . S
C2229 C2230 1.392 . S
C2229 C2233 1.495 . S
C2230 C2229 1.392 . S
C2230 C2231 1.385 . S
C2230 C2232 1.478 1_565 S
C2231 H2225 0.930 . S
C2231 C2227 1.400 . S
C2231 C2230 1.385 . S
C2232 C2230 1.478 1_545 S
C2232 C2234 1.381 . S
C2232 C2238 1.383 . S
C2233 C2229 1.495 . S
C2233 H2239 0.959 . S
C2233 H2240 0.961 . S
C2233 H2241 0.960 . S
C2234 C2232 1.381 . S
C2234 C2235 1.394 . S
C2234 H2242 0.930 . S
C2235 C2234 1.394 . S
C2235 C2236 1.383 . S
C2235 H2243 0.929 . S
C2236 C2235 1.383 . S
C2236 C2237 1.377 . S
C2237 H2221 0.930 . S
C2237 C2236 1.377 . S
C2237 C2238 1.379 . S
C2238 H2222 0.931 . S
C2238 C2232 1.383 . S
C2238 C2237 1.379 . S
H2239 C2233 0.959 . S
H2240 C2233 0.961 . S
H2241 C2233 0.960 . S
H2242 C2234 0.930 . S
H2243 C2235 0.929 . S
H2244 C2252 0.929 . S
H2245 C2254 0.930 . S
H2246 C2256 0.930 . S
H2247 C2259 0.929 . S
H2248 C2262 0.930 . S
H2249 C2264 0.960 . S
H2250 C2264 0.960 . S
H2251 C2264 0.960 . S
C2252 H2244 0.929 . S
C2252 C2253 1.377 . S
C2252 C2254 1.384 . S
C2253 C2252 1.377 . S
C2253 C2259 1.390 . S
C2254 H2245 0.930 . S
C2254 C2252 1.384 . S
C2254 C2255 1.372 . S
C2255 C2254 1.372 . S
C2255 C2256 1.400 . S
C2255 C2260 1.490 . S
C2256 H2246 0.930 . S
C2256 C2255 1.400 . S
C2256 C2259 1.386 . S
H2257 C2273 0.930 . S
H2258 C2274 0.933 . S
C2259 H2247 0.929 . S
C2259 C2253 1.390 . S
C2259 C2256 1.386 . S
C2260 C2255 1.490 . S
C2260 C2262 1.395 1_545 S
C2260 C2263 1.403 . S
H2261 C2267 0.930 . S
C2262 H2248 0.930 . S
C2262 C2260 1.395 1_565 S
C2262 C2265 1.403 . S
C2263 C2260 1.403 . S
C2263 C2264 1.524 . S
C2263 C2267 1.400 . S
C2264 H2249 0.960 . S
C2264 H2250 0.960 . S
C2264 H2251 0.960 . S
C2264 C2263 1.524 . S
C2265 C2262 1.403 . S
C2265 C2266 1.392 1_565 S
C2265 C2269 1.495 . S
C2266 C2265 1.392 1_545 S
C2266 C2267 1.385 . S
C2266 C2268 1.478 . S
C2267 H2261 0.930 . S
C2267 C2263 1.400 . S
C2267 C2266 1.385 . S
C2268 C2266 1.478 . S
C2268 C2270 1.381 . S
C2268 C2274 1.383 . S
C2269 C2265 1.495 . S
C2269 H2275 0.959 . S
C2269 H2276 0.961 . S
C2269 H2277 0.960 . S
C2270 C2268 1.381 . S
C2270 C2271 1.394 . S
C2270 H2278 0.930 . S
C2271 C2270 1.394 . S
C2271 C2272 1.383 . S
C2271 H2279 0.929 . S
C2272 C2271 1.383 . S
C2272 C2273 1.377 . S
C2273 H2257 0.930 . S
C2273 C2272 1.377 . S
C2273 C2274 1.379 . S
C2274 H2258 0.933 . S
C2274 C2268 1.383 . S
C2274 C2273 1.379 . S
H2275 C2269 0.959 . S
H2276 C2269 0.961 . S
H2277 C2269 0.960 . S
H2278 C2270 0.930 . S
H2279 C2271 0.929 . S
H2280 C2288 0.929 . S
H2281 C2290 0.930 . S
H2282 C2292 0.930 . S
H2283 C2295 0.929 . S
H2284 C2298 0.930 . S
H2285 C2300 0.960 . S
H2286 C2300 0.960 . S
H2287 C2300 0.960 . S
C2288 H2280 0.929 . S
C2288 C2289 1.377 . S
C2288 C2290 1.384 . S
C2289 C2288 1.377 . S
C2289 C2295 1.390 . S
C2290 H2281 0.930 . S
C2290 C2288 1.384 . S
C2290 C2291 1.372 . S
C2291 C2290 1.372 . S
C2291 C2292 1.400 . S
C2291 C2296 1.490 . S
C2292 H2282 0.930 . S
C2292 C2291 1.400 . S
C2292 C2295 1.386 . S
H2293 C2309 0.930 . S
H2294 C2310 0.931 . S
C2295 H2283 0.929 . S
C2295 C2289 1.390 . S
C2295 C2292 1.386 . S
C2296 C2291 1.490 . S
C2296 C2298 1.395 . S
C2296 C2299 1.403 . S
H2297 C2303 0.930 . S
C2298 H2284 0.930 . S
C2298 C2296 1.395 . S
C2298 C2301 1.403 . S
C2299 C2296 1.403 . S
C2299 C2300 1.524 . S
C2299 C2303 1.400 . S
C2300 H2285 0.960 . S
C2300 H2286 0.960 . S
C2300 H2287 0.960 . S
C2300 C2299 1.524 . S
C2301 C2298 1.403 . S
C2301 C2302 1.392 . S
C2301 C2305 1.495 . S
C2302 C2301 1.392 . S
C2302 C2303 1.385 . S
C2302 C2304 1.478 1_545 S
C2303 H2297 0.930 . S
C2303 C2299 1.400 . S
C2303 C2302 1.385 . S
C2304 C2302 1.478 1_565 S
C2304 C2306 1.381 . S
C2304 C2310 1.383 . S
C2305 C2301 1.495 . S
C2305 H2311 0.959 . S
C2305 H2312 0.961 . S
C2305 H2313 0.960 . S
C2306 C2304 1.381 . S
C2306 C2307 1.394 . S
C2306 H2314 0.930 . S
C2307 C2306 1.394 . S
C2307 C2308 1.383 . S
C2307 H2315 0.929 . S
C2308 C2307 1.383 . S
C2308 C2309 1.377 . S
C2309 H2293 0.930 . S
C2309 C2308 1.377 . S
C2309 C2310 1.379 . S
C2310 H2294 0.931 . S
C2310 C2304 1.383 . S
C2310 C2309 1.379 . S
H2311 C2305 0.959 . S
H2312 C2305 0.961 . S
H2313 C2305 0.960 . S
H2314 C2306 0.930 . S
H2315 C2307 0.929 . S
H2316 C2324 0.929 . S
H2317 C2326 0.930 . S
H2318 C2328 0.930 . S
H2319 C2331 0.929 . S
H2320 C2334 0.930 . S
H2321 C2336 0.960 . S
H2322 C2336 0.960 . S
H2323 C2336 0.960 . S
C2324 H2316 0.929 . S
C2324 C2325 1.377 . S
C2324 C2326 1.384 . S
C2325 C2324 1.377 . S
C2325 C2331 1.390 . S
C2326 H2317 0.930 . S
C2326 C2324 1.384 . S
C2326 C2327 1.372 . S
C2327 C2326 1.372 . S
C2327 C2328 1.400 . S
C2327 C2332 1.490 . S
C2328 H2318 0.930 . S
C2328 C2327 1.400 . S
C2328 C2331 1.386 . S
H2329 C2345 0.930 . S
H2330 C2346 0.931 . S
C2331 H2319 0.929 . S
C2331 C2325 1.390 . S
C2331 C2328 1.386 . S
C2332 C2327 1.490 . S
C2332 C2334 1.395 1_565 S
C2332 C2335 1.403 . S
H2333 C2339 0.930 . S
C2334 H2320 0.930 . S
C2334 C2332 1.395 1_545 S
C2334 C2337 1.403 . S
C2335 C2332 1.403 . S
C2335 C2336 1.524 . S
C2335 C2339 1.400 . S
C2336 H2321 0.960 . S
C2336 H2322 0.960 . S
C2336 H2323 0.960 . S
C2336 C2335 1.524 . S
C2337 C2334 1.403 . S
C2337 C2338 1.392 1_545 S
C2337 C2341 1.495 . S
C2338 C2337 1.392 1_565 S
C2338 C2339 1.385 . S
C2338 C2340 1.478 . S
C2339 H2333 0.930 . S
C2339 C2335 1.400 . S
C2339 C2338 1.385 . S
C2340 C2338 1.478 . S
C2340 C2342 1.381 . S
C2340 C2346 1.383 1_565 S
C2341 C2337 1.495 . S
C2341 H2347 0.959 . S
C2341 H2348 0.961 . S
C2341 H2349 0.960 . S
C2342 C2340 1.381 . S
C2342 C2343 1.394 . S
C2342 H2350 0.930 . S
C2343 C2342 1.394 . S
C2343 C2344 1.383 . S
C2343 H2351 0.929 . S
C2344 C2343 1.383 . S
C2344 C2345 1.377 1_565 S
C2345 H2329 0.930 . S
C2345 C2344 1.377 1_545 S
C2345 C2346 1.379 . S
C2346 H2330 0.931 . S
C2346 C2340 1.383 1_545 S
C2346 C2345 1.379 . S
H2347 C2341 0.959 . S
H2348 C2341 0.961 . S
H2349 C2341 0.960 . S
H2350 C2342 0.930 . S
H2351 C2343 0.929 . S
H2352 C2360 0.929 . S
H2353 C2362 0.930 . S
H2354 C2364 0.930 . S
H2355 C2367 0.929 . S
H2356 C2370 0.930 . S
H2357 C2372 0.960 . S
H2358 C2372 0.960 . S
H2359 C2372 0.960 . S
C2360 H2352 0.929 . S
C2360 C2361 1.377 . S
C2360 C2362 1.384 . S
C2361 C2360 1.377 . S
C2361 C2367 1.390 . S
C2362 H2353 0.930 . S
C2362 C2360 1.384 . S
C2362 C2363 1.372 . S
C2363 C2362 1.372 . S
C2363 C2364 1.400 . S
C2363 C2368 1.490 . S
C2364 H2354 0.930 . S
C2364 C2363 1.400 . S
C2364 C2367 1.386 . S
H2365 C2381 0.930 . S
H2366 C2382 0.931 . S
C2367 H2355 0.929 . S
C2367 C2361 1.390 . S
C2367 C2364 1.386 . S
C2368 C2363 1.490 . S
C2368 C2370 1.395 . S
C2368 C2371 1.403 . S
H2369 C2375 0.930 . S
C2370 H2356 0.930 . S
C2370 C2368 1.395 . S
C2370 C2373 1.403 . S
C2371 C2368 1.403 . S
C2371 C2372 1.524 . S
C2371 C2375 1.400 . S
C2372 H2357 0.960 . S
C2372 H2358 0.960 . S
C2372 H2359 0.960 . S
C2372 C2371 1.524 . S
C2373 C2370 1.403 . S
C2373 C2374 1.392 . S
C2373 C2377 1.495 . S
C2374 C2373 1.392 . S
C2374 C2375 1.385 . S
C2374 C2376 1.478 1_545 S
C2375 H2369 0.930 . S
C2375 C2371 1.400 . S
C2375 C2374 1.385 . S
C2376 C2374 1.478 1_565 S
C2376 C2378 1.381 . S
C2376 C2382 1.383 . S
C2377 C2373 1.495 . S
C2377 H2383 0.959 . S
C2377 H2384 0.961 . S
C2377 H2385 0.960 . S
C2378 C2376 1.381 . S
C2378 C2379 1.394 . S
C2378 H2386 0.930 . S
C2379 C2378 1.394 . S
C2379 C2380 1.383 . S
C2379 H2387 0.929 . S
C2380 C2379 1.383 . S
C2380 C2381 1.377 . S
C2381 H2365 0.930 . S
C2381 C2380 1.377 . S
C2381 C2382 1.379 . S
C2382 H2366 0.931 . S
C2382 C2376 1.383 . S
C2382 C2381 1.379 . S
H2383 C2377 0.959 . S
H2384 C2377 0.961 . S
H2385 C2377 0.960 . S
H2386 C2378 0.930 . S
H2387 C2379 0.929 . S
H2388 C2396 0.929 . S
H2389 C2398 0.930 . S
H2390 C2400 0.930 . S
H2391 C2403 0.929 . S
H2392 C2406 0.930 . S
H2393 C2408 0.960 . S
H2394 C2408 0.960 . S
H2395 C2408 0.960 . S
C2396 H2388 0.929 . S
C2396 C2397 1.377 . S
C2396 C2398 1.384 . S
C2397 C2396 1.377 . S
C2397 C2403 1.390 . S
C2398 H2389 0.930 . S
C2398 C2396 1.384 . S
C2398 C2399 1.372 . S
C2399 C2398 1.372 . S
C2399 C2400 1.400 . S
C2399 C2404 1.490 . S
C2400 H2390 0.930 . S
C2400 C2399 1.400 . S
C2400 C2403 1.386 . S
H2401 C2417 0.930 . S
H2402 C2418 0.931 . S
C2403 H2391 0.929 . S
C2403 C2397 1.390 . S
C2403 C2400 1.386 . S
C2404 C2399 1.490 . S
C2404 C2406 1.395 1_545 S
C2404 C2407 1.403 . S
H2405 C2411 0.930 . S
C2406 H2392 0.930 . S
C2406 C2404 1.395 1_565 S
C2406 C2409 1.403 . S
C2407 C2404 1.403 . S
C2407 C2408 1.524 . S
C2407 C2411 1.400 . S
C2408 H2393 0.960 . S
C2408 H2394 0.960 . S
C2408 H2395 0.960 . S
C2408 C2407 1.524 . S
C2409 C2406 1.403 . S
C2409 C2410 1.392 1_565 S
C2409 C2413 1.495 . S
C2410 C2409 1.392 1_545 S
C2410 C2411 1.385 . S
C2410 C2412 1.478 . S
C2411 H2405 0.930 . S
C2411 C2407 1.400 . S
C2411 C2410 1.385 . S
C2412 C2410 1.478 . S
C2412 C2414 1.381 . S
C2412 C2418 1.383 . S
C2413 C2409 1.495 . S
C2413 H2419 0.959 . S
C2413 H2420 0.961 . S
C2413 H2421 0.960 . S
C2414 C2412 1.381 . S
C2414 C2415 1.394 . S
C2414 H2422 0.930 . S
C2415 C2414 1.394 . S
C2415 C2416 1.383 . S
C2415 H2423 0.929 . S
C2416 C2415 1.383 . S
C2416 C2417 1.377 . S
C2417 H2401 0.930 . S
C2417 C2416 1.377 . S
C2417 C2418 1.379 . S
C2418 H2402 0.931 . S
C2418 C2412 1.383 . S
C2418 C2417 1.379 . S
H2419 C2413 0.959 . S
H2420 C2413 0.961 . S
H2421 C2413 0.960 . S
H2422 C2414 0.930 . S
H2423 C2415 0.929 . S
H2424 C2432 0.929 . S
H2425 C2434 0.930 . S
H2426 C2436 0.930 . S
H2427 C2439 0.929 . S
H2428 C2442 0.930 . S
H2429 C2444 0.960 . S
H2430 C2444 0.960 . S
H2431 C2444 0.960 . S
C2432 H2424 0.929 . S
C2432 C2433 1.377 . S
C2432 C2434 1.384 . S
C2433 C2432 1.377 . S
C2433 C2439 1.390 . S
C2434 H2425 0.930 . S
C2434 C2432 1.384 . S
C2434 C2435 1.372 . S
C2435 C2434 1.372 . S
C2435 C2436 1.400 . S
C2435 C2440 1.490 . S
C2436 H2426 0.930 . S
C2436 C2435 1.400 . S
C2436 C2439 1.386 . S
H2437 C2453 0.930 . S
H2438 C2454 0.931 . S
C2439 H2427 0.929 . S
C2439 C2433 1.390 . S
C2439 C2436 1.386 . S
C2440 C2435 1.490 . S
C2440 C2442 1.395 . S
C2440 C2443 1.403 . S
H2441 C2447 0.930 . S
C2442 H2428 0.930 . S
C2442 C2440 1.395 . S
C2442 C2445 1.403 . S
C2443 C2440 1.403 . S
C2443 C2444 1.524 . S
C2443 C2447 1.400 . S
C2444 H2429 0.960 . S
C2444 H2430 0.960 . S
C2444 H2431 0.960 . S
C2444 C2443 1.524 . S
C2445 C2442 1.403 . S
C2445 C2446 1.392 . S
C2445 C2449 1.495 . S
C2446 C2445 1.392 . S
C2446 C2447 1.385 . S
C2446 C2448 1.478 1_565 S
C2447 H2441 0.930 . S
C2447 C2443 1.400 . S
C2447 C2446 1.385 . S
C2448 C2446 1.478 1_545 S
C2448 C2450 1.381 . S
C2448 C2454 1.383 . S
C2449 C2445 1.495 . S
C2449 H2455 0.959 . S
C2449 H2456 0.961 . S
C2449 H2457 0.960 . S
C2450 C2448 1.381 . S
C2450 C2451 1.394 . S
C2450 H2458 0.930 . S
C2451 C2450 1.394 . S
C2451 C2452 1.383 . S
C2451 H2459 0.929 . S
C2452 C2451 1.383 . S
C2452 C2453 1.377 . S
C2453 H2437 0.930 . S
C2453 C2452 1.377 . S
C2453 C2454 1.379 . S
C2454 H2438 0.931 . S
C2454 C2448 1.383 . S
C2454 C2453 1.379 . S
H2455 C2449 0.959 . S
H2456 C2449 0.961 . S
H2457 C2449 0.960 . S
H2458 C2450 0.930 . S
H2459 C2451 0.929 . S
H2460 C2468 0.929 . S
H2461 C2470 0.930 . S
H2462 C2472 0.930 . S
H2463 C2475 0.929 . S
H2464 C2478 0.930 . S
H2465 C2480 0.960 . S
H2466 C2480 0.960 1_545 S
H2467 C2480 0.960 . S
C2468 H2460 0.929 . S
C2468 C2469 1.377 1_545 S
C2468 C2470 1.384 . S
C2469 C2468 1.377 1_565 S
C2469 C2475 1.390 . S
C2470 H2461 0.930 . S
C2470 C2468 1.384 . S
C2470 C2471 1.372 1_545 S
C2471 C2470 1.372 1_565 S
C2471 C2472 1.400 . S
C2471 C2476 1.490 . S
C2472 H2462 0.930 . S
C2472 C2471 1.400 . S
C2472 C2475 1.386 . S
H2473 C2489 0.930 . S
H2474 C2490 0.931 . S
C2475 H2463 0.929 . S
C2475 C2469 1.390 . S
C2475 C2472 1.386 . S
C2476 C2471 1.490 . S
C2476 C2478 1.395 . S
C2476 C2479 1.403 . S
H2477 C2483 0.930 . S
C2478 H2464 0.930 . S
C2478 C2476 1.395 . S
C2478 C2481 1.403 . S
C2479 C2476 1.403 . S
C2479 C2480 1.524 . S
C2479 C2483 1.400 . S
C2480 H2465 0.960 . S
C2480 H2466 0.960 1_565 S
C2480 H2467 0.960 . S
C2480 C2479 1.524 . S
C2481 C2478 1.403 . S
C2481 C2482 1.392 . S
C2481 C2485 1.495 . S
C2482 C2481 1.392 . S
C2482 C2483 1.385 . S
C2482 C2484 1.478 . S
C2483 H2477 0.930 . S
C2483 C2479 1.400 . S
C2483 C2482 1.385 . S
C2484 C2482 1.478 . S
C2484 C2486 1.381 1_565 S
C2484 C2490 1.383 . S
C2485 C2481 1.495 . S
C2485 H2491 0.959 . S
C2485 H2492 0.961 . S
C2485 H2493 0.960 1_565 S
C2486 C2484 1.381 1_545 S
C2486 C2487 1.394 . S
C2486 H2494 0.930 . S
C2487 C2486 1.394 . S
C2487 C2488 1.383 1_545 S
C2487 H2495 0.929 . S
C2488 C2487 1.383 1_565 S
C2488 C2489 1.377 . S
C2489 H2473 0.930 . S
C2489 C2488 1.377 . S
C2489 C2490 1.379 . S
C2490 H2474 0.931 . S
C2490 C2484 1.383 . S
C2490 C2489 1.379 . S
H2491 C2485 0.959 . S
H2492 C2485 0.961 . S
H2493 C2485 0.960 1_545 S
H2494 C2486 0.930 . S
H2495 C2487 0.929 . S
H2496 C2504 0.929 . S
H2497 C2506 0.930 . S
H2498 C2508 0.930 . S
H2499 C2511 0.929 . S
H2500 C2514 0.930 . S
H2501 C2516 0.960 . S
H2502 C2516 0.960 . S
H2503 C2516 0.960 . S
C2504 H2496 0.929 . S
C2504 C2505 1.377 . S
C2504 C2506 1.384 . S
C2505 C2504 1.377 . S
C2505 C2511 1.390 . S
C2506 H2497 0.930 . S
C2506 C2504 1.384 . S
C2506 C2507 1.372 . S
C2507 C2506 1.372 . S
C2507 C2508 1.400 . S
C2507 C2512 1.490 1_565 S
C2508 H2498 0.930 . S
C2508 C2507 1.400 . S
C2508 C2511 1.386 . S
H2509 C2525 0.930 . S
H2510 C2526 0.931 . S
C2511 H2499 0.929 . S
C2511 C2505 1.390 . S
C2511 C2508 1.386 . S
C2512 C2507 1.490 1_545 S
C2512 C2514 1.395 . S
C2512 C2515 1.403 . S
H2513 C2519 0.930 . S
C2514 H2500 0.930 . S
C2514 C2512 1.395 . S
C2514 C2517 1.403 . S
C2515 C2512 1.403 . S
C2515 C2516 1.524 . S
C2515 C2519 1.400 . S
C2516 H2501 0.960 . S
C2516 H2502 0.960 . S
C2516 H2503 0.960 . S
C2516 C2515 1.524 . S
C2517 C2514 1.403 . S
C2517 C2518 1.392 . S
C2517 C2521 1.495 . S
C2518 C2517 1.392 . S
C2518 C2519 1.385 . S
C2518 C2520 1.478 . S
C2519 H2513 0.930 . S
C2519 C2515 1.400 . S
C2519 C2518 1.385 . S
C2520 C2518 1.478 . S
C2520 C2522 1.381 . S
C2520 C2526 1.383 . S
C2521 C2517 1.495 . S
C2521 H2527 0.959 . S
C2521 H2528 0.961 . S
C2521 H2529 0.960 . S
C2522 C2520 1.381 . S
C2522 C2523 1.394 . S
C2522 H2530 0.930 . S
C2523 C2522 1.394 . S
C2523 C2524 1.383 . S
C2523 H2531 0.929 . S
C2524 C2523 1.383 . S
C2524 C2525 1.377 . S
C2525 H2509 0.930 . S
C2525 C2524 1.377 . S
C2525 C2526 1.379 . S
C2526 H2510 0.931 . S
C2526 C2520 1.383 . S
C2526 C2525 1.379 . S
H2527 C2521 0.959 . S
H2528 C2521 0.961 . S
H2529 C2521 0.960 . S
H2530 C2522 0.930 . S
H2531 C2523 0.929 . S
H2532 C2540 0.929 . S
H2533 C2542 0.930 . S
H2534 C2544 0.930 . S
H2535 C2547 0.929 . S
H2536 C2550 0.930 . S
H2537 C2552 0.960 . S
H2538 C2552 0.960 1_565 S
H2539 C2552 0.960 . S
C2540 H2532 0.929 . S
C2540 C2541 1.377 . S
C2540 C2542 1.384 . S
C2541 C2540 1.377 . S
C2541 C2547 1.390 1_565 S
C2542 H2533 0.930 . S
C2542 C2540 1.384 . S
C2542 C2543 1.372 . S
C2543 C2542 1.372 . S
C2543 C2544 1.400 1_565 S
C2543 C2548 1.490 . S
C2544 H2534 0.930 . S
C2544 C2543 1.400 1_545 S
C2544 C2547 1.386 . S
H2545 C2561 0.930 . S
H2546 C2562 0.931 . S
C2547 H2535 0.929 . S
C2547 C2541 1.390 1_545 S
C2547 C2544 1.386 . S
C2548 C2543 1.490 . S
C2548 C2550 1.395 . S
C2548 C2551 1.403 . S
H2549 C2555 0.930 1_545 S
C2550 H2536 0.930 . S
C2550 C2548 1.395 . S
C2550 C2553 1.403 . S
C2551 C2548 1.403 . S
C2551 C2552 1.524 1_565 S
C2551 C2555 1.400 . S
C2552 H2537 0.960 . S
C2552 H2538 0.960 1_545 S
C2552 H2539 0.960 . S
C2552 C2551 1.524 1_545 S
C2553 C2550 1.403 . S
C2553 C2554 1.392 . S
C2553 C2557 1.495 . S
C2554 C2553 1.392 . S
C2554 C2555 1.385 . S
C2554 C2556 1.478 . S
C2555 H2549 0.930 1_565 S
C2555 C2551 1.400 . S
C2555 C2554 1.385 . S
C2556 C2554 1.478 . S
C2556 C2558 1.381 . S
C2556 C2562 1.383 1_565 S
C2557 C2553 1.495 . S
C2557 H2563 0.959 . S
C2557 H2564 0.961 . S
C2557 H2565 0.960 . S
C2558 C2556 1.381 . S
C2558 C2559 1.394 . S
C2558 H2566 0.930 . S
C2559 C2558 1.394 . S
C2559 C2560 1.383 . S
C2559 H2567 0.929 . S
C2560 C2559 1.383 . S
C2560 C2561 1.377 1_565 S
C2561 H2545 0.930 . S
C2561 C2560 1.377 1_545 S
C2561 C2562 1.379 . S
C2562 H2546 0.931 . S
C2562 C2556 1.383 1_545 S
C2562 C2561 1.379 . S
H2563 C2557 0.959 . S
H2564 C2557 0.961 . S
H2565 C2557 0.960 . S
H2566 C2558 0.930 . S
H2567 C2559 0.929 . S
H2568 C2576 0.929 . S
H2569 C2578 0.930 . S
H2570 C2580 0.930 . S
H2571 C2583 0.929 . S
H2572 C2586 0.930 . S
H2573 C2588 0.960 . S
H2574 C2588 0.960 . S
H2575 C2588 0.960 . S
C2576 H2568 0.929 . S
C2576 C2577 1.377 . S
C2576 C2578 1.384 . S
C2577 C2576 1.377 . S
C2577 C2583 1.390 . S
C2578 H2569 0.930 . S
C2578 C2576 1.384 . S
C2578 C2579 1.372 . S
C2579 C2578 1.372 . S
C2579 C2580 1.400 . S
C2579 C2584 1.490 1_545 S
C2580 H2570 0.930 . S
C2580 C2579 1.400 . S
C2580 C2583 1.386 . S
H2581 C2597 0.930 . S
H2582 C2598 0.931 . S
C2583 H2571 0.929 . S
C2583 C2577 1.390 . S
C2583 C2580 1.386 . S
C2584 C2579 1.490 1_565 S
C2584 C2586 1.395 . S
C2584 C2587 1.403 . S
H2585 C2591 0.930 . S
C2586 H2572 0.930 . S
C2586 C2584 1.395 . S
C2586 C2589 1.403 . S
C2587 C2584 1.403 . S
C2587 C2588 1.524 . S
C2587 C2591 1.400 . S
C2588 H2573 0.960 . S
C2588 H2574 0.960 . S
C2588 H2575 0.960 . S
C2588 C2587 1.524 . S
C2589 C2586 1.403 . S
C2589 C2590 1.392 . S
C2589 C2593 1.495 . S
C2590 C2589 1.392 . S
C2590 C2591 1.385 . S
C2590 C2592 1.478 . S
C2591 H2585 0.930 . S
C2591 C2587 1.400 . S
C2591 C2590 1.385 . S
C2592 C2590 1.478 . S
C2592 C2594 1.381 . S
C2592 C2598 1.383 . S
C2593 C2589 1.495 . S
C2593 H2599 0.959 . S
C2593 H2600 0.961 . S
C2593 H2601 0.960 . S
C2594 C2592 1.381 . S
C2594 C2595 1.394 . S
C2594 H2602 0.930 . S
C2595 C2594 1.394 . S
C2595 C2596 1.383 . S
C2595 H2603 0.929 . S
C2596 C2595 1.383 . S
C2596 C2597 1.377 . S
C2597 H2581 0.930 . S
C2597 C2596 1.377 . S
C2597 C2598 1.379 . S
C2598 H2582 0.931 . S
C2598 C2592 1.383 . S
C2598 C2597 1.379 . S
H2599 C2593 0.959 . S
H2600 C2593 0.961 . S
H2601 C2593 0.960 . S
H2602 C2594 0.930 . S
H2603 C2595 0.929 . S
H2604 C2612 0.929 . S
H2605 C2614 0.930 . S
H2606 C2616 0.930 . S
H2607 C2619 0.929 . S
H2608 C2622 0.930 . S
H2609 C2624 0.960 . S
H2610 C2624 0.960 1_565 S
H2611 C2624 0.960 . S
C2612 H2604 0.929 . S
C2612 C2613 1.377 1_565 S
C2612 C2614 1.384 . S
C2613 C2612 1.377 1_545 S
C2613 C2619 1.390 . S
C2614 H2605 0.930 . S
C2614 C2612 1.384 . S
C2614 C2615 1.372 1_565 S
C2615 C2614 1.372 1_545 S
C2615 C2616 1.400 . S
C2615 C2620 1.490 . S
C2616 H2606 0.930 . S
C2616 C2615 1.400 . S
C2616 C2619 1.386 . S
H2617 C2633 0.930 . S
H2618 C2634 0.931 . S
C2619 H2607 0.929 . S
C2619 C2613 1.390 . S
C2619 C2616 1.386 . S
C2620 C2615 1.490 . S
C2620 C2622 1.395 . S
C2620 C2623 1.403 . S
H2621 C2627 0.930 . S
C2622 H2608 0.930 . S
C2622 C2620 1.395 . S
C2622 C2625 1.403 . S
C2623 C2620 1.403 . S
C2623 C2624 1.524 . S
C2623 C2627 1.400 . S
C2624 H2609 0.960 . S
C2624 H2610 0.960 1_545 S
C2624 H2611 0.960 . S
C2624 C2623 1.524 . S
C2625 C2622 1.403 . S
C2625 C2626 1.392 . S
C2625 C2629 1.495 . S
C2626 C2625 1.392 . S
C2626 C2627 1.385 . S
C2626 C2628 1.478 . S
C2627 H2621 0.930 . S
C2627 C2623 1.400 . S
C2627 C2626 1.385 . S
C2628 C2626 1.478 . S
C2628 C2630 1.381 1_545 S
C2628 C2634 1.383 . S
C2629 C2625 1.495 . S
C2629 H2635 0.959 . S
C2629 H2636 0.961 . S
C2629 H2637 0.960 1_545 S
C2630 C2628 1.381 1_565 S
C2630 C2631 1.394 . S
C2630 H2638 0.930 . S
C2631 C2630 1.394 . S
C2631 C2632 1.383 1_565 S
C2631 H2639 0.929 . S
C2632 C2631 1.383 1_545 S
C2632 C2633 1.377 . S
C2633 H2617 0.930 . S
C2633 C2632 1.377 . S
C2633 C2634 1.379 . S
C2634 H2618 0.931 . S
C2634 C2628 1.383 . S
C2634 C2633 1.379 . S
H2635 C2629 0.959 . S
H2636 C2629 0.961 . S
H2637 C2629 0.960 1_565 S
H2638 C2630 0.930 . S
H2639 C2631 0.929 . S
H2640 C2648 0.929 . S
H2641 C2650 0.930 . S
H2642 C2652 0.930 . S
H2643 C2655 0.929 . S
H2644 C2658 0.930 . S
H2645 C2660 0.960 . S
H2646 C2660 0.960 . S
H2647 C2660 0.960 . S
C2648 H2640 0.929 . S
C2648 C2649 1.377 . S
C2648 C2650 1.384 . S
C2649 C2648 1.377 . S
C2649 C2655 1.390 . S
C2650 H2641 0.930 . S
C2650 C2648 1.384 . S
C2650 C2651 1.372 . S
C2651 C2650 1.372 . S
C2651 C2652 1.400 . S
C2651 C2656 1.490 . S
C2652 H2642 0.930 . S
C2652 C2651 1.400 . S
C2652 C2655 1.386 . S
H2653 C2669 0.930 . S
H2654 C2670 0.931 . S
C2655 H2643 0.929 . S
C2655 C2649 1.390 . S
C2655 C2652 1.386 . S
C2656 C2651 1.490 . S
C2656 C2658 1.395 . S
C2656 C2659 1.403 . S
H2657 C2663 0.930 . S
C2658 H2644 0.930 . S
C2658 C2656 1.395 . S
C2658 C2661 1.403 . S
C2659 C2656 1.403 . S
C2659 C2660 1.524 . S
C2659 C2663 1.400 . S
C2660 H2645 0.960 . S
C2660 H2646 0.960 . S
C2660 H2647 0.960 . S
C2660 C2659 1.524 . S
C2661 C2658 1.403 . S
C2661 C2662 1.392 . S
C2661 C2665 1.495 . S
C2662 C2661 1.392 . S
C2662 C2663 1.385 . S
C2662 C2664 1.478 1_565 S
C2663 H2657 0.930 . S
C2663 C2659 1.400 . S
C2663 C2662 1.385 . S
C2664 C2662 1.478 1_545 S
C2664 C2666 1.381 . S
C2664 C2670 1.383 . S
C2665 C2661 1.495 . S
C2665 H2671 0.959 . S
C2665 H2672 0.961 . S
C2665 H2673 0.960 . S
C2666 C2664 1.381 . S
C2666 C2667 1.394 . S
C2666 H2674 0.930 . S
C2667 C2666 1.394 . S
C2667 C2668 1.383 . S
C2667 H2675 0.929 . S
C2668 C2667 1.383 . S
C2668 C2669 1.377 . S
C2669 H2653 0.930 . S
C2669 C2668 1.377 . S
C2669 C2670 1.379 . S
C2670 H2654 0.931 . S
C2670 C2664 1.383 . S
C2670 C2669 1.379 . S
H2671 C2665 0.959 . S
H2672 C2665 0.961 . S
H2673 C2665 0.960 . S
H2674 C2666 0.930 . S
H2675 C2667 0.929 . S
H2676 C2684 0.929 . S
H2677 C2686 0.930 . S
H2678 C2688 0.930 . S
H2679 C2691 0.929 . S
H2680 C2694 0.930 . S
H2681 C2696 0.960 . S
H2682 C2696 0.960 . S
H2683 C2696 0.960 . S
C2684 H2676 0.929 . S
C2684 C2685 1.377 1_545 S
C2684 C2686 1.384 . S
C2685 C2684 1.377 1_565 S
C2685 C2691 1.390 . S
C2686 H2677 0.930 . S
C2686 C2684 1.384 . S
C2686 C2687 1.372 1_545 S
C2687 C2686 1.372 1_565 S
C2687 C2688 1.400 . S
C2687 C2692 1.490 . S
C2688 H2678 0.930 . S
C2688 C2687 1.400 . S
C2688 C2691 1.386 . S
H2689 C2705 0.930 . S
H2690 C2706 0.931 . S
C2691 H2679 0.929 . S
C2691 C2685 1.390 . S
C2691 C2688 1.386 . S
C2692 C2687 1.490 . S
C2692 C2694 1.395 1_565 S
C2692 C2695 1.403 . S
H2693 C2699 0.930 . S
C2694 H2680 0.930 . S
C2694 C2692 1.395 1_545 S
C2694 C2697 1.403 . S
C2695 C2692 1.403 . S
C2695 C2696 1.524 . S
C2695 C2699 1.400 . S
C2696 H2681 0.960 . S
C2696 H2682 0.960 . S
C2696 H2683 0.960 . S
C2696 C2695 1.524 . S
C2697 C2694 1.403 . S
C2697 C2698 1.392 1_545 S
C2697 C2701 1.495 . S
C2698 C2697 1.392 1_565 S
C2698 C2699 1.385 . S
C2698 C2700 1.478 . S
C2699 H2693 0.930 . S
C2699 C2695 1.400 . S
C2699 C2698 1.385 . S
C2700 C2698 1.478 . S
C2700 C2702 1.381 1_565 S
C2700 C2706 1.383 . S
C2701 C2697 1.495 . S
C2701 H2707 0.959 . S
C2701 H2708 0.961 . S
C2701 H2709 0.960 . S
C2702 C2700 1.381 1_545 S
C2702 C2703 1.394 . S
C2702 H2710 0.930 . S
C2703 C2702 1.394 . S
C2703 C2704 1.383 1_545 S
C2703 H2711 0.929 . S
C2704 C2703 1.383 1_565 S
C2704 C2705 1.377 . S
C2705 H2689 0.930 . S
C2705 C2704 1.377 . S
C2705 C2706 1.379 . S
C2706 H2690 0.931 . S
C2706 C2700 1.383 . S
C2706 C2705 1.379 . S
H2707 C2701 0.959 . S
H2708 C2701 0.961 . S
H2709 C2701 0.960 . S
H2710 C2702 0.930 . S
H2711 C2703 0.929 . S
H2712 C2720 0.929 . S
H2713 C2722 0.930 . S
H2714 C2724 0.930 . S
H2715 C2727 0.929 . S
H2716 C2730 0.930 . S
H2717 C2732 0.960 . S
H2718 C2732 0.960 . S
H2719 C2732 0.960 . S
C2720 H2712 0.929 . S
C2720 C2721 1.377 . S
C2720 C2722 1.384 . S
C2721 C2720 1.377 . S
C2721 C2727 1.390 . S
C2722 H2713 0.930 . S
C2722 C2720 1.384 . S
C2722 C2723 1.372 . S
C2723 C2722 1.372 . S
C2723 C2724 1.400 . S
C2723 C2728 1.490 1_565 S
C2724 H2714 0.930 . S
C2724 C2723 1.400 . S
C2724 C2727 1.386 . S
H2725 C2741 0.930 . S
H2726 C2742 0.931 . S
C2727 H2715 0.929 . S
C2727 C2721 1.390 . S
C2727 C2724 1.386 . S
C2728 C2723 1.490 1_545 S
C2728 C2730 1.395 . S
C2728 C2731 1.403 . S
H2729 C2735 0.930 . S
C2730 H2716 0.930 . S
C2730 C2728 1.395 . S
C2730 C2733 1.403 . S
C2731 C2728 1.403 . S
C2731 C2732 1.524 . S
C2731 C2735 1.400 . S
C2732 H2717 0.960 . S
C2732 H2718 0.960 . S
C2732 H2719 0.960 . S
C2732 C2731 1.524 . S
C2733 C2730 1.403 . S
C2733 C2734 1.392 . S
C2733 C2737 1.495 . S
C2734 C2733 1.392 . S
C2734 C2735 1.385 . S
C2734 C2736 1.478 . S
C2735 H2729 0.930 . S
C2735 C2731 1.400 . S
C2735 C2734 1.385 . S
C2736 C2734 1.478 . S
C2736 C2738 1.381 . S
C2736 C2742 1.383 . S
C2737 C2733 1.495 . S
C2737 H2743 0.959 . S
C2737 H2744 0.961 . S
C2737 H2745 0.960 . S
C2738 C2736 1.381 . S
C2738 C2739 1.394 . S
C2738 H2746 0.930 . S
C2739 C2738 1.394 . S
C2739 C2740 1.383 . S
C2739 H2747 0.929 . S
C2740 C2739 1.383 . S
C2740 C2741 1.377 . S
C2741 H2725 0.930 . S
C2741 C2740 1.377 . S
C2741 C2742 1.379 . S
C2742 H2726 0.931 . S
C2742 C2736 1.383 . S
C2742 C2741 1.379 . S
H2743 C2737 0.959 . S
H2744 C2737 0.961 . S
H2745 C2737 0.960 . S
H2746 C2738 0.930 . S
H2747 C2739 0.929 . S
H2748 C2756 0.929 . S
H2749 C2758 0.930 . S
H2750 C2760 0.930 . S
H2751 C2763 0.929 . S
H2752 C2766 0.930 . S
H2753 C2768 0.960 . S
H2754 C2768 0.960 . S
H2755 C2768 0.960 . S
C2756 H2748 0.929 . S
C2756 C2757 1.377 1_565 S
C2756 C2758 1.384 . S
C2757 C2756 1.377 1_545 S
C2757 C2763 1.390 . S
C2758 H2749 0.930 . S
C2758 C2756 1.384 . S
C2758 C2759 1.372 1_565 S
C2759 C2758 1.372 1_545 S
C2759 C2760 1.400 . S
C2759 C2764 1.490 . S
C2760 H2750 0.930 . S
C2760 C2759 1.400 . S
C2760 C2763 1.386 . S
H2761 C2777 0.930 . S
H2762 C2778 0.931 . S
C2763 H2751 0.929 . S
C2763 C2757 1.390 . S
C2763 C2760 1.386 . S
C2764 C2759 1.490 . S
C2764 C2766 1.395 1_545 S
C2764 C2767 1.403 . S
H2765 C2771 0.930 . S
C2766 H2752 0.930 . S
C2766 C2764 1.395 1_565 S
C2766 C2769 1.403 . S
C2767 C2764 1.403 . S
C2767 C2768 1.524 . S
C2767 C2771 1.400 . S
C2768 H2753 0.960 . S
C2768 H2754 0.960 . S
C2768 H2755 0.960 . S
C2768 C2767 1.524 . S
C2769 C2766 1.403 . S
C2769 C2770 1.392 1_565 S
C2769 C2773 1.495 . S
C2770 C2769 1.392 1_545 S
C2770 C2771 1.385 . S
C2770 C2772 1.478 . S
C2771 H2765 0.930 . S
C2771 C2767 1.400 . S
C2771 C2770 1.385 . S
C2772 C2770 1.478 . S
C2772 C2774 1.381 1_545 S
C2772 C2778 1.383 . S
C2773 C2769 1.495 . S
C2773 H2779 0.959 . S
C2773 H2780 0.961 . S
C2773 H2781 0.960 . S
C2774 C2772 1.381 1_565 S
C2774 C2775 1.394 . S
C2774 H2782 0.930 . S
C2775 C2774 1.394 . S
C2775 C2776 1.383 1_565 S
C2775 H2783 0.929 . S
C2776 C2775 1.383 1_545 S
C2776 C2777 1.377 . S
C2777 H2761 0.930 . S
C2777 C2776 1.377 . S
C2777 C2778 1.379 . S
C2778 H2762 0.931 . S
C2778 C2772 1.383 . S
C2778 C2777 1.379 . S
H2779 C2773 0.959 . S
H2780 C2773 0.961 . S
H2781 C2773 0.960 . S
H2782 C2774 0.930 . S
H2783 C2775 0.929 . S
H2784 C2792 0.929 . S
H2785 C2794 0.930 . S
H2786 C2796 0.930 . S
H2787 C2799 0.929 . S
H2788 C2802 0.930 . S
H2789 C2804 0.960 . S
H2790 C2804 0.960 . S
H2791 C2804 0.960 . S
C2792 H2784 0.929 . S
C2792 C2793 1.377 . S
C2792 C2794 1.384 . S
C2793 C2792 1.377 . S
C2793 C2799 1.390 . S
C2794 H2785 0.930 . S
C2794 C2792 1.384 . S
C2794 C2795 1.372 . S
C2795 C2794 1.372 . S
C2795 C2796 1.400 . S
C2795 C2800 1.490 . S
C2796 H2786 0.930 . S
C2796 C2795 1.400 . S
C2796 C2799 1.386 . S
H2797 C2813 0.930 . S
H2798 C2814 0.931 . S
C2799 H2787 0.929 . S
C2799 C2793 1.390 . S
C2799 C2796 1.386 . S
C2800 C2795 1.490 . S
C2800 C2802 1.395 . S
C2800 C2803 1.403 . S
H2801 C2807 0.930 . S
C2802 H2788 0.930 . S
C2802 C2800 1.395 . S
C2802 C2805 1.403 . S
C2803 C2800 1.403 . S
C2803 C2804 1.524 . S
C2803 C2807 1.400 . S
C2804 H2789 0.960 . S
C2804 H2790 0.960 . S
C2804 H2791 0.960 . S
C2804 C2803 1.524 . S
C2805 C2802 1.403 . S
C2805 C2806 1.392 . S
C2805 C2809 1.495 . S
C2806 C2805 1.392 . S
C2806 C2807 1.385 . S
C2806 C2808 1.478 . S
C2807 H2801 0.930 . S
C2807 C2803 1.400 . S
C2807 C2806 1.385 . S
C2808 C2806 1.478 . S
C2808 C2810 1.381 . S
C2808 C2814 1.383 . S
C2809 C2805 1.495 . S
C2809 H2815 0.959 . S
C2809 H2816 0.961 . S
C2809 H2817 0.960 . S
C2810 C2808 1.381 . S
C2810 C2811 1.394 . S
C2810 H2818 0.930 . S
C2811 C2810 1.394 . S
C2811 C2812 1.383 . S
C2811 H2819 0.929 . S
C2812 C2811 1.383 . S
C2812 C2813 1.377 . S
C2813 H2797 0.930 . S
C2813 C2812 1.377 . S
C2813 C2814 1.379 . S
C2814 H2798 0.931 . S
C2814 C2808 1.383 . S
C2814 C2813 1.379 . S
H2815 C2809 0.959 . S
H2816 C2809 0.961 . S
H2817 C2809 0.960 . S
H2818 C2810 0.930 . S
H2819 C2811 0.929 . S
H2820 C2828 0.929 . S
H2821 C2830 0.930 . S
H2822 C2832 0.930 . S
H2823 C2835 0.929 . S
H2824 C2838 0.930 . S
H2825 C2840 0.960 . S
H2826 C2840 0.960 . S
H2827 C2840 0.960 . S
C2828 H2820 0.929 . S
C2828 C2829 1.377 . S
C2828 C2830 1.384 . S
C2829 C2828 1.377 . S
C2829 C2835 1.390 . S
C2830 H2821 0.930 . S
C2830 C2828 1.384 . S
C2830 C2831 1.372 . S
C2831 C2830 1.372 . S
C2831 C2832 1.400 . S
C2831 C2836 1.490 . S
C2832 H2822 0.930 . S
C2832 C2831 1.400 . S
C2832 C2835 1.386 . S
H2833 C2849 0.930 . S
H2834 C2850 0.931 . S
C2835 H2823 0.929 . S
C2835 C2829 1.390 . S
C2835 C2832 1.386 . S
C2836 C2831 1.490 . S
C2836 C2838 1.395 . S
C2836 C2839 1.403 . S
H2837 C2843 0.930 . S
C2838 H2824 0.930 . S
C2838 C2836 1.395 . S
C2838 C2841 1.403 . S
C2839 C2836 1.403 . S
C2839 C2840 1.524 . S
C2839 C2843 1.400 . S
C2840 H2825 0.960 . S
C2840 H2826 0.960 . S
C2840 H2827 0.960 . S
C2840 C2839 1.524 . S
C2841 C2838 1.403 . S
C2841 C2842 1.392 . S
C2841 C2845 1.495 . S
C2842 C2841 1.392 . S
C2842 C2843 1.385 . S
C2842 C2844 1.478 . S
C2843 H2837 0.930 . S
C2843 C2839 1.400 . S
C2843 C2842 1.385 . S
C2844 C2842 1.478 . S
C2844 C2846 1.381 . S
C2844 C2850 1.383 . S
C2845 C2841 1.495 . S
C2845 H2851 0.959 . S
C2845 H2852 0.961 . S
C2845 H2853 0.960 . S
C2846 C2844 1.381 . S
C2846 C2847 1.394 . S
C2846 H2854 0.930 . S
C2847 C2846 1.394 . S
C2847 C2848 1.383 . S
C2847 H2855 0.929 . S
C2848 C2847 1.383 . S
C2848 C2849 1.377 . S
C2849 H2833 0.930 . S
C2849 C2848 1.377 . S
C2849 C2850 1.379 . S
C2850 H2834 0.931 . S
C2850 C2844 1.383 . S
C2850 C2849 1.379 . S
H2851 C2845 0.959 . S
H2852 C2845 0.961 . S
H2853 C2845 0.960 . S
H2854 C2846 0.930 . S
H2855 C2847 0.929 . S
H2856 C2864 0.929 . S
H2857 C2866 0.930 . S
H2858 C2868 0.930 . S
H2859 C2871 0.929 . S
H2860 C2874 0.930 . S
H2861 C2876 0.960 . S
H2862 C2876 0.960 . S
H2863 C2876 0.960 . S
C2864 H2856 0.929 . S
C2864 C2865 1.377 . S
C2864 C2866 1.384 . S
C2865 C2864 1.377 . S
C2865 C2871 1.390 . S
C2866 H2857 0.930 . S
C2866 C2864 1.384 . S
C2866 C2867 1.372 . S
C2867 C2866 1.372 . S
C2867 C2868 1.400 . S
C2867 C2872 1.490 . S
C2868 H2858 0.930 . S
C2868 C2867 1.400 . S
C2868 C2871 1.386 . S
H2869 C2885 0.930 . S
H2870 C2886 0.931 . S
C2871 H2859 0.929 . S
C2871 C2865 1.390 . S
C2871 C2868 1.386 . S
C2872 C2867 1.490 . S
C2872 C2874 1.395 . S
C2872 C2875 1.403 . S
H2873 C2879 0.930 . S
C2874 H2860 0.930 . S
C2874 C2872 1.395 . S
C2874 C2877 1.403 . S
C2875 C2872 1.403 . S
C2875 C2876 1.524 . S
C2875 C2879 1.400 . S
C2876 H2861 0.960 . S
C2876 H2862 0.960 . S
C2876 H2863 0.960 . S
C2876 C2875 1.524 . S
C2877 C2874 1.403 . S
C2877 C2878 1.392 . S
C2877 C2881 1.495 . S
C2878 C2877 1.392 . S
C2878 C2879 1.385 . S
C2878 C2880 1.478 . S
C2879 H2873 0.930 . S
C2879 C2875 1.400 . S
C2879 C2878 1.385 . S
C2880 C2878 1.478 . S
C2880 C2882 1.381 . S
C2880 C2886 1.383 . S
C2881 C2877 1.495 . S
C2881 H2887 0.959 . S
C2881 H2888 0.961 . S
C2881 H2889 0.960 . S
C2882 C2880 1.381 . S
C2882 C2883 1.394 . S
C2882 H2890 0.930 . S
C2883 C2882 1.394 . S
C2883 C2884 1.383 . S
C2883 H2891 0.929 . S
C2884 C2883 1.383 . S
C2884 C2885 1.377 . S
C2885 H2869 0.930 . S
C2885 C2884 1.377 . S
C2885 C2886 1.379 . S
C2886 H2870 0.931 . S
C2886 C2880 1.383 . S
C2886 C2885 1.379 . S
H2887 C2881 0.959 . S
H2888 C2881 0.961 . S
H2889 C2881 0.960 . S
H2890 C2882 0.930 . S
H2891 C2883 0.929 . S
H2892 C2900 0.929 . S
H2893 C2902 0.930 . S
H2894 C2904 0.930 . S
H2895 C2907 0.929 . S
H2896 C2910 0.930 . S
H2897 C2912 0.960 . S
H2898 C2912 0.960 . S
H2899 C2912 0.960 . S
C2900 H2892 0.929 . S
C2900 C2901 1.377 . S
C2900 C2902 1.384 . S
C2901 C2900 1.377 . S
C2901 C2907 1.390 . S
C2902 H2893 0.930 . S
C2902 C2900 1.384 . S
C2902 C2903 1.372 . S
C2903 C2902 1.372 . S
C2903 C2904 1.400 . S
C2903 C2908 1.490 . S
C2904 H2894 0.930 . S
C2904 C2903 1.400 . S
C2904 C2907 1.386 . S
H2905 C2921 0.930 . S
H2906 C2922 0.931 . S
C2907 H2895 0.929 . S
C2907 C2901 1.390 . S
C2907 C2904 1.386 . S
C2908 C2903 1.490 . S
C2908 C2910 1.395 . S
C2908 C2911 1.403 . S
H2909 C2915 0.930 . S
C2910 H2896 0.930 . S
C2910 C2908 1.395 . S
C2910 C2913 1.403 . S
C2911 C2908 1.403 . S
C2911 C2912 1.524 . S
C2911 C2915 1.400 . S
C2912 H2897 0.960 . S
C2912 H2898 0.960 . S
C2912 H2899 0.960 . S
C2912 C2911 1.524 . S
C2913 C2910 1.403 . S
C2913 C2914 1.392 . S
C2913 C2917 1.495 . S
C2914 C2913 1.392 . S
C2914 C2915 1.385 . S
C2914 C2916 1.478 . S
C2915 H2909 0.930 . S
C2915 C2911 1.400 . S
C2915 C2914 1.385 . S
C2916 C2914 1.478 . S
C2916 C2918 1.381 . S
C2916 C2922 1.383 . S
C2917 C2913 1.495 . S
C2917 H2923 0.959 . S
C2917 H2924 0.961 . S
C2917 H2925 0.960 . S
C2918 C2916 1.381 . S
C2918 C2919 1.394 . S
C2918 H2926 0.930 . S
C2919 C2918 1.394 . S
C2919 C2920 1.383 . S
C2919 H2927 0.929 . S
C2920 C2919 1.383 . S
C2920 C2921 1.377 . S
C2921 H2905 0.930 . S
C2921 C2920 1.377 . S
C2921 C2922 1.379 . S
C2922 H2906 0.931 . S
C2922 C2916 1.383 . S
C2922 C2921 1.379 . S
H2923 C2917 0.959 . S
H2924 C2917 0.961 . S
H2925 C2917 0.960 . S
H2926 C2918 0.930 . S
H2927 C2919 0.929 . S
H2928 C2936 0.929 . S
H2929 C2938 0.930 . S
H2930 C2940 0.930 . S
H2931 C2943 0.929 . S
H2932 C2946 0.930 . S
H2933 C2948 0.960 . S
H2934 C2948 0.960 . S
H2935 C2948 0.960 . S
C2936 H2928 0.929 . S
C2936 C2937 1.377 . S
C2936 C2938 1.384 . S
C2937 C2936 1.377 . S
C2937 C2943 1.390 . S
C2938 H2929 0.930 . S
C2938 C2936 1.384 . S
C2938 C2939 1.372 . S
C2939 C2938 1.372 . S
C2939 C2940 1.400 . S
C2939 C2944 1.490 . S
C2940 H2930 0.930 . S
C2940 C2939 1.400 . S
C2940 C2943 1.386 . S
H2941 C2957 0.930 . S
H2942 C2958 0.931 . S
C2943 H2931 0.929 . S
C2943 C2937 1.390 . S
C2943 C2940 1.386 . S
C2944 C2939 1.490 . S
C2944 C2946 1.395 . S
C2944 C2947 1.403 . S
H2945 C2951 0.930 . S
C2946 H2932 0.930 . S
C2946 C2944 1.395 . S
C2946 C2949 1.403 . S
C2947 C2944 1.403 . S
C2947 C2948 1.524 . S
C2947 C2951 1.400 . S
C2948 H2933 0.960 . S
C2948 H2934 0.960 . S
C2948 H2935 0.960 . S
C2948 C2947 1.524 . S
C2949 C2946 1.403 . S
C2949 C2950 1.392 . S
C2949 C2953 1.495 . S
C2950 C2949 1.392 . S
C2950 C2951 1.385 . S
C2950 C2952 1.478 . S
C2951 H2945 0.930 . S
C2951 C2947 1.400 . S
C2951 C2950 1.385 . S
C2952 C2950 1.478 . S
C2952 C2954 1.381 . S
C2952 C2958 1.383 . S
C2953 C2949 1.495 . S
C2953 H2959 0.959 . S
C2953 H2960 0.961 . S
C2953 H2961 0.960 . S
C2954 C2952 1.381 . S
C2954 C2955 1.394 . S
C2954 H2962 0.930 . S
C2955 C2954 1.394 . S
C2955 C2956 1.383 . S
C2955 H2963 0.929 . S
C2956 C2955 1.383 . S
C2956 C2957 1.377 . S
C2957 H2941 0.930 . S
C2957 C2956 1.377 . S
C2957 C2958 1.379 . S
C2958 H2942 0.931 . S
C2958 C2952 1.383 . S
C2958 C2957 1.379 . S
H2959 C2953 0.959 . S
H2960 C2953 0.961 . S
H2961 C2953 0.960 . S
H2962 C2954 0.930 . S
H2963 C2955 0.929 . S
H2964 C2972 0.929 . S
H2965 C2974 0.930 . S
H2966 C2976 0.930 . S
H2967 C2979 0.929 . S
H2968 C2982 0.930 . S
H2969 C2984 0.960 . S
H2970 C2984 0.960 . S
H2971 C2984 0.960 . S
C2972 H2964 0.929 . S
C2972 C2973 1.377 . S
C2972 C2974 1.384 . S
C2973 C2972 1.377 . S
C2973 C2979 1.390 . S
C2974 H2965 0.930 . S
C2974 C2972 1.384 . S
C2974 C2975 1.372 . S
C2975 C2974 1.372 . S
C2975 C2976 1.400 . S
C2975 C2980 1.490 . S
C2976 H2966 0.930 . S
C2976 C2975 1.400 . S
C2976 C2979 1.386 . S
H2977 C2993 0.930 . S
H2978 C2994 0.931 . S
C2979 H2967 0.929 . S
C2979 C2973 1.390 . S
C2979 C2976 1.386 . S
C2980 C2975 1.490 . S
C2980 C2982 1.395 . S
C2980 C2983 1.403 . S
H2981 C2987 0.930 . S
C2982 H2968 0.930 . S
C2982 C2980 1.395 . S
C2982 C2985 1.403 . S
C2983 C2980 1.403 . S
C2983 C2984 1.524 . S
C2983 C2987 1.400 . S
C2984 H2969 0.960 . S
C2984 H2970 0.960 . S
C2984 H2971 0.960 . S
C2984 C2983 1.524 . S
C2985 C2982 1.403 . S
C2985 C2986 1.392 . S
C2985 C2989 1.495 . S
C2986 C2985 1.392 . S
C2986 C2987 1.385 . S
C2986 C2988 1.478 . S
C2987 H2981 0.930 . S
C2987 C2983 1.400 . S
C2987 C2986 1.385 . S
C2988 C2986 1.478 . S
C2988 C2990 1.381 . S
C2988 C2994 1.383 . S
C2989 C2985 1.495 . S
C2989 H2995 0.959 . S
C2989 H2996 0.961 . S
C2989 H2997 0.960 . S
C2990 C2988 1.381 . S
C2990 C2991 1.394 . S
C2990 H2998 0.930 . S
C2991 C2990 1.394 . S
C2991 C2992 1.383 . S
C2991 H2999 0.929 . S
C2992 C2991 1.383 . S
C2992 C2993 1.377 . S
C2993 H2977 0.930 . S
C2993 C2992 1.377 . S
C2993 C2994 1.379 . S
C2994 H2978 0.931 . S
C2994 C2988 1.383 . S
C2994 C2993 1.379 . S
H2995 C2989 0.959 . S
H2996 C2989 0.961 . S
H2997 C2989 0.960 . S
H2998 C2990 0.930 . S
H2999 C2991 0.929 . S
H3000 C3008 0.929 . S
H3001 C3010 0.930 . S
H3002 C3012 0.930 . S
H3003 C3015 0.929 . S
H3004 C3018 0.930 . S
H3005 C3020 0.960 . S
H3006 C3020 0.960 . S
H3007 C3020 0.960 . S
C3008 H3000 0.929 . S
C3008 C3009 1.377 . S
C3008 C3010 1.384 . S
C3009 C3008 1.377 . S
C3009 C3015 1.390 . S
C3010 H3001 0.930 . S
C3010 C3008 1.384 . S
C3010 C3011 1.372 . S
C3011 C3010 1.372 . S
C3011 C3012 1.400 . S
C3011 C3016 1.490 . S
C3012 H3002 0.930 . S
C3012 C3011 1.400 . S
C3012 C3015 1.386 . S
H3013 C3029 0.930 . S
H3014 C3030 0.931 . S
C3015 H3003 0.929 . S
C3015 C3009 1.390 . S
C3015 C3012 1.386 . S
C3016 C3011 1.490 . S
C3016 C3018 1.395 . S
C3016 C3019 1.403 . S
H3017 C3023 0.930 . S
C3018 H3004 0.930 . S
C3018 C3016 1.395 . S
C3018 C3021 1.403 . S
C3019 C3016 1.403 . S
C3019 C3020 1.524 . S
C3019 C3023 1.400 . S
C3020 H3005 0.960 . S
C3020 H3006 0.960 . S
C3020 H3007 0.960 . S
C3020 C3019 1.524 . S
C3021 C3018 1.403 . S
C3021 C3022 1.392 . S
C3021 C3025 1.495 . S
C3022 C3021 1.392 . S
C3022 C3023 1.385 . S
C3022 C3024 1.478 . S
C3023 H3017 0.930 . S
C3023 C3019 1.400 . S
C3023 C3022 1.385 . S
C3024 C3022 1.478 . S
C3024 C3026 1.381 . S
C3024 C3030 1.383 . S
C3025 C3021 1.495 . S
C3025 H3031 0.959 . S
C3025 H3032 0.961 . S
C3025 H3033 0.960 . S
C3026 C3024 1.381 . S
C3026 C3027 1.394 . S
C3026 H3034 0.930 . S
C3027 C3026 1.394 . S
C3027 C3028 1.383 . S
C3027 H3035 0.929 . S
C3028 C3027 1.383 . S
C3028 C3029 1.377 . S
C3029 H3013 0.930 . S
C3029 C3028 1.377 . S
C3029 C3030 1.379 . S
C3030 H3014 0.931 . S
C3030 C3024 1.383 . S
C3030 C3029 1.379 . S
H3031 C3025 0.959 . S
H3032 C3025 0.961 . S
H3033 C3025 0.960 . S
H3034 C3026 0.930 . S
H3035 C3027 0.929 . S
H3036 C3044 0.929 . S
H3037 C3046 0.930 . S
H3038 C3048 0.930 . S
H3039 C3051 0.929 . S
H3040 C3054 0.930 . S
H3041 C3056 0.960 . S
H3042 C3056 0.960 . S
H3043 C3056 0.960 . S
C3044 H3036 0.929 . S
C3044 C3045 1.377 . S
C3044 C3046 1.384 . S
C3045 C3044 1.377 . S
C3045 C3051 1.390 . S
C3046 H3037 0.930 . S
C3046 C3044 1.384 . S
C3046 C3047 1.372 . S
C3047 C3046 1.372 . S
C3047 C3048 1.400 . S
C3047 C3052 1.490 . S
C3048 H3038 0.930 . S
C3048 C3047 1.400 . S
C3048 C3051 1.386 . S
H3049 C3065 0.930 . S
H3050 C3066 0.931 . S
C3051 H3039 0.929 . S
C3051 C3045 1.390 . S
C3051 C3048 1.386 . S
C3052 C3047 1.490 . S
C3052 C3054 1.395 . S
C3052 C3055 1.403 . S
H3053 C3059 0.930 . S
C3054 H3040 0.930 . S
C3054 C3052 1.395 . S
C3054 C3057 1.403 . S
C3055 C3052 1.403 . S
C3055 C3056 1.524 . S
C3055 C3059 1.400 . S
C3056 H3041 0.960 . S
C3056 H3042 0.960 . S
C3056 H3043 0.960 . S
C3056 C3055 1.524 . S
C3057 C3054 1.403 . S
C3057 C3058 1.392 . S
C3057 C3061 1.495 . S
C3058 C3057 1.392 . S
C3058 C3059 1.385 . S
C3058 C3060 1.478 . S
C3059 H3053 0.930 . S
C3059 C3055 1.400 . S
C3059 C3058 1.385 . S
C3060 C3058 1.478 . S
C3060 C3062 1.381 . S
C3060 C3066 1.383 . S
C3061 C3057 1.495 . S
C3061 H3067 0.959 . S
C3061 H3068 0.961 . S
C3061 H3069 0.960 . S
C3062 C3060 1.381 . S
C3062 C3063 1.394 . S
C3062 H3070 0.930 . S
C3063 C3062 1.394 . S
C3063 C3064 1.383 . S
C3063 H3071 0.929 . S
C3064 C3063 1.383 . S
C3064 C3065 1.377 . S
C3065 H3049 0.930 . S
C3065 C3064 1.377 . S
C3065 C3066 1.379 . S
C3066 H3050 0.931 . S
C3066 C3060 1.383 . S
C3066 C3065 1.379 . S
H3067 C3061 0.959 . S
H3068 C3061 0.961 . S
H3069 C3061 0.960 . S
H3070 C3062 0.930 . S
H3071 C3063 0.929 . S
H3072 C3080 0.929 . S
H3073 C3082 0.930 . S
H3074 C3084 0.930 . S
H3075 C3087 0.929 . S
H3076 C3090 0.930 . S
H3077 C3092 0.960 . S
H3078 C3092 0.960 . S
H3079 C3092 0.960 . S
C3080 H3072 0.929 . S
C3080 C3081 1.377 . S
C3080 C3082 1.384 . S
C3081 C3080 1.377 . S
C3081 C3087 1.390 . S
C3082 H3073 0.930 . S
C3082 C3080 1.384 . S
C3082 C3083 1.372 . S
C3083 C3082 1.372 . S
C3083 C3084 1.400 . S
C3083 C3088 1.490 . S
C3084 H3074 0.930 . S
C3084 C3083 1.400 . S
C3084 C3087 1.386 . S
H3085 C3101 0.930 . S
H3086 C3102 0.931 . S
C3087 H3075 0.929 . S
C3087 C3081 1.390 . S
C3087 C3084 1.386 . S
C3088 C3083 1.490 . S
C3088 C3090 1.395 . S
C3088 C3091 1.403 . S
H3089 C3095 0.930 . S
C3090 H3076 0.930 . S
C3090 C3088 1.395 . S
C3090 C3093 1.403 . S
C3091 C3088 1.403 . S
C3091 C3092 1.524 . S
C3091 C3095 1.400 . S
C3092 H3077 0.960 . S
C3092 H3078 0.960 . S
C3092 H3079 0.960 . S
C3092 C3091 1.524 . S
C3093 C3090 1.403 . S
C3093 C3094 1.392 . S
C3093 C3097 1.495 . S
C3094 C3093 1.392 . S
C3094 C3095 1.385 . S
C3094 C3096 1.478 . S
C3095 H3089 0.930 . S
C3095 C3091 1.400 . S
C3095 C3094 1.385 . S
C3096 C3094 1.478 . S
C3096 C3098 1.381 . S
C3096 C3102 1.383 . S
C3097 C3093 1.495 . S
C3097 H3103 0.959 . S
C3097 H3104 0.961 . S
C3097 H3105 0.960 . S
C3098 C3096 1.381 . S
C3098 C3099 1.394 . S
C3098 H3106 0.930 . S
C3099 C3098 1.394 . S
C3099 C3100 1.383 . S
C3099 H3107 0.929 . S
C3100 C3099 1.383 . S
C3100 C3101 1.377 . S
C3101 H3085 0.930 . S
C3101 C3100 1.377 . S
C3101 C3102 1.379 . S
C3102 H3086 0.931 . S
C3102 C3096 1.383 . S
C3102 C3101 1.379 . S
H3103 C3097 0.959 . S
H3104 C3097 0.961 . S
H3105 C3097 0.960 . S
H3106 C3098 0.930 . S
H3107 C3099 0.929 . S
H3108 C3116 0.929 . S
H3109 C3118 0.930 . S
H3110 C3120 0.930 . S
H3111 C3123 0.929 . S
H3112 C3126 0.930 . S
H3113 C3128 0.960 . S
H3114 C3128 0.960 . S
H3115 C3128 0.960 . S
C3116 H3108 0.929 . S
C3116 C3117 1.377 . S
C3116 C3118 1.384 . S
C3117 C3116 1.377 . S
C3117 C3123 1.390 . S
C3118 H3109 0.930 . S
C3118 C3116 1.384 . S
C3118 C3119 1.372 . S
C3119 C3118 1.372 . S
C3119 C3120 1.400 . S
C3119 C3124 1.490 . S
C3120 H3110 0.930 . S
C3120 C3119 1.400 . S
C3120 C3123 1.386 . S
H3121 C3137 0.930 . S
H3122 C3138 0.931 . S
C3123 H3111 0.929 . S
C3123 C3117 1.390 . S
C3123 C3120 1.386 . S
C3124 C3119 1.490 . S
C3124 C3126 1.395 . S
C3124 C3127 1.403 . S
H3125 C3131 0.930 . S
C3126 H3112 0.930 . S
C3126 C3124 1.395 . S
C3126 C3129 1.403 . S
C3127 C3124 1.403 . S
C3127 C3128 1.524 . S
C3127 C3131 1.400 . S
C3128 H3113 0.960 . S
C3128 H3114 0.960 . S
C3128 H3115 0.960 . S
C3128 C3127 1.524 . S
C3129 C3126 1.403 . S
C3129 C3130 1.392 . S
C3129 C3133 1.495 . S
C3130 C3129 1.392 . S
C3130 C3131 1.385 . S
C3130 C3132 1.478 . S
C3131 H3125 0.930 . S
C3131 C3127 1.400 . S
C3131 C3130 1.385 . S
C3132 C3130 1.478 . S
C3132 C3134 1.381 . S
C3132 C3138 1.383 . S
C3133 C3129 1.495 . S
C3133 H3139 0.959 . S
C3133 H3140 0.961 . S
C3133 H3141 0.960 . S
C3134 C3132 1.381 . S
C3134 C3135 1.394 . S
C3134 H3142 0.930 . S
C3135 C3134 1.394 . S
C3135 C3136 1.383 . S
C3135 H3143 0.929 . S
C3136 C3135 1.383 . S
C3136 C3137 1.377 . S
C3137 H3121 0.930 . S
C3137 C3136 1.377 . S
C3137 C3138 1.379 . S
C3138 H3122 0.931 . S
C3138 C3132 1.383 . S
C3138 C3137 1.379 . S
H3139 C3133 0.959 . S
H3140 C3133 0.961 . S
H3141 C3133 0.960 . S
H3142 C3134 0.930 . S
H3143 C3135 0.929 . S
H3144 C3152 0.929 . S
H3145 C3154 0.930 . S
H3146 C3156 0.930 . S
H3147 C3159 0.929 . S
H3148 C3162 0.930 . S
H3149 C3164 0.960 . S
H3150 C3164 0.960 . S
H3151 C3164 0.960 . S
C3152 H3144 0.929 . S
C3152 C3153 1.377 . S
C3152 C3154 1.384 . S
C3153 C3152 1.377 . S
C3153 C3159 1.390 . S
C3154 H3145 0.930 . S
C3154 C3152 1.384 . S
C3154 C3155 1.372 . S
C3155 C3154 1.372 . S
C3155 C3156 1.400 . S
C3155 C3160 1.490 . S
C3156 H3146 0.930 . S
C3156 C3155 1.400 . S
C3156 C3159 1.386 . S
H3157 C3173 0.930 . S
H3158 C3174 0.931 . S
C3159 H3147 0.929 . S
C3159 C3153 1.390 . S
C3159 C3156 1.386 . S
C3160 C3155 1.490 . S
C3160 C3162 1.395 . S
C3160 C3163 1.403 . S
H3161 C3167 0.930 . S
C3162 H3148 0.930 . S
C3162 C3160 1.395 . S
C3162 C3165 1.403 . S
C3163 C3160 1.403 . S
C3163 C3164 1.524 . S
C3163 C3167 1.400 . S
C3164 H3149 0.960 . S
C3164 H3150 0.960 . S
C3164 H3151 0.960 . S
C3164 C3163 1.524 . S
C3165 C3162 1.403 . S
C3165 C3166 1.392 . S
C3165 C3169 1.495 . S
C3166 C3165 1.392 . S
C3166 C3167 1.385 . S
C3166 C3168 1.478 . S
C3167 H3161 0.930 . S
C3167 C3163 1.400 . S
C3167 C3166 1.385 . S
C3168 C3166 1.478 . S
C3168 C3170 1.381 . S
C3168 C3174 1.383 . S
C3169 C3165 1.495 . S
C3169 H3175 0.959 . S
C3169 H3176 0.961 . S
C3169 H3177 0.960 . S
C3170 C3168 1.381 . S
C3170 C3171 1.394 . S
C3170 H3178 0.930 . S
C3171 C3170 1.394 . S
C3171 C3172 1.383 . S
C3171 H3179 0.929 . S
C3172 C3171 1.383 . S
C3172 C3173 1.377 . S
C3173 H3157 0.930 . S
C3173 C3172 1.377 . S
C3173 C3174 1.379 . S
C3174 H3158 0.931 . S
C3174 C3168 1.383 . S
C3174 C3173 1.379 . S
H3175 C3169 0.959 . S
H3176 C3169 0.961 . S
H3177 C3169 0.960 . S
H3178 C3170 0.930 . S
H3179 C3171 0.929 . S
H3180 C3188 0.929 . S
H3181 C3190 0.930 . S
H3182 C3192 0.930 . S
H3183 C3195 0.929 . S
H3184 C3198 0.930 . S
H3185 C3200 0.960 . S
H3186 C3200 0.960 . S
H3187 C3200 0.960 . S
C3188 H3180 0.929 . S
C3188 C3189 1.377 . S
C3188 C3190 1.384 . S
C3189 C3188 1.377 . S
C3189 C3195 1.390 . S
C3190 H3181 0.930 . S
C3190 C3188 1.384 . S
C3190 C3191 1.372 . S
C3191 C3190 1.372 . S
C3191 C3192 1.400 . S
C3191 C3196 1.490 . S
C3192 H3182 0.930 . S
C3192 C3191 1.400 . S
C3192 C3195 1.386 . S
H3193 C3209 0.930 . S
H3194 C3210 0.931 . S
C3195 H3183 0.929 . S
C3195 C3189 1.390 . S
C3195 C3192 1.386 . S
C3196 C3191 1.490 . S
C3196 C3198 1.395 . S
C3196 C3199 1.403 . S
H3197 C3203 0.930 . S
C3198 H3184 0.930 . S
C3198 C3196 1.395 . S
C3198 C3201 1.403 . S
C3199 C3196 1.403 . S
C3199 C3200 1.524 . S
C3199 C3203 1.400 . S
C3200 H3185 0.960 . S
C3200 H3186 0.960 . S
C3200 H3187 0.960 . S
C3200 C3199 1.524 . S
C3201 C3198 1.403 . S
C3201 C3202 1.392 . S
C3201 C3205 1.495 . S
C3202 C3201 1.392 . S
C3202 C3203 1.385 . S
C3202 C3204 1.478 . S
C3203 H3197 0.930 . S
C3203 C3199 1.400 . S
C3203 C3202 1.385 . S
C3204 C3202 1.478 . S
C3204 C3206 1.381 . S
C3204 C3210 1.383 . S
C3205 C3201 1.495 . S
C3205 H3211 0.959 . S
C3205 H3212 0.961 . S
C3205 H3213 0.960 . S
C3206 C3204 1.381 . S
C3206 C3207 1.394 . S
C3206 H3214 0.930 . S
C3207 C3206 1.394 . S
C3207 C3208 1.383 . S
C3207 H3215 0.929 . S
C3208 C3207 1.383 . S
C3208 C3209 1.377 . S
C3209 H3193 0.930 . S
C3209 C3208 1.377 . S
C3209 C3210 1.379 . S
C3210 H3194 0.931 . S
C3210 C3204 1.383 . S
C3210 C3209 1.379 . S
H3211 C3205 0.959 . S
H3212 C3205 0.961 . S
H3213 C3205 0.960 . S
H3214 C3206 0.930 . S
H3215 C3207 0.929 . S
H3216 C3224 0.929 . S
H3217 C3226 0.930 . S
H3218 C3228 0.930 . S
H3219 C3231 0.929 . S
H3220 C3234 0.930 . S
H3221 C3236 0.960 . S
H3222 C3236 0.960 . S
H3223 C3236 0.960 . S
C3224 H3216 0.929 . S
C3224 C3225 1.377 . S
C3224 C3226 1.384 . S
C3225 C3224 1.377 . S
C3225 C3231 1.390 . S
C3226 H3217 0.930 . S
C3226 C3224 1.384 . S
C3226 C3227 1.372 . S
C3227 C3226 1.372 . S
C3227 C3228 1.400 . S
C3227 C3232 1.490 . S
C3228 H3218 0.930 . S
C3228 C3227 1.400 . S
C3228 C3231 1.386 . S
H3229 C3245 0.930 . S
H3230 C3246 0.931 . S
C3231 H3219 0.929 . S
C3231 C3225 1.390 . S
C3231 C3228 1.386 . S
C3232 C3227 1.490 . S
C3232 C3234 1.395 . S
C3232 C3235 1.403 . S
H3233 C3239 0.930 . S
C3234 H3220 0.930 . S
C3234 C3232 1.395 . S
C3234 C3237 1.403 . S
C3235 C3232 1.403 . S
C3235 C3236 1.524 . S
C3235 C3239 1.400 . S
C3236 H3221 0.960 . S
C3236 H3222 0.960 . S
C3236 H3223 0.960 . S
C3236 C3235 1.524 . S
C3237 C3234 1.403 . S
C3237 C3238 1.392 . S
C3237 C3241 1.495 . S
C3238 C3237 1.392 . S
C3238 C3239 1.385 . S
C3238 C3240 1.478 . S
C3239 H3233 0.930 . S
C3239 C3235 1.400 . S
C3239 C3238 1.385 . S
C3240 C3238 1.478 . S
C3240 C3242 1.381 . S
C3240 C3246 1.383 . S
C3241 C3237 1.495 . S
C3241 H3247 0.959 . S
C3241 H3248 0.961 . S
C3241 H3249 0.960 . S
C3242 C3240 1.381 . S
C3242 C3243 1.394 . S
C3242 H3250 0.930 . S
C3243 C3242 1.394 . S
C3243 C3244 1.383 . S
C3243 H3251 0.929 . S
C3244 C3243 1.383 . S
C3244 C3245 1.377 . S
C3245 H3229 0.930 . S
C3245 C3244 1.377 . S
C3245 C3246 1.379 . S
C3246 H3230 0.931 . S
C3246 C3240 1.383 . S
C3246 C3245 1.379 . S
H3247 C3241 0.959 . S
H3248 C3241 0.961 . S
H3249 C3241 0.960 . S
H3250 C3242 0.930 . S
H3251 C3243 0.929 . S
H3252 C3260 0.929 . S
H3253 C3262 0.930 . S
H3254 C3264 0.930 . S
H3255 C3267 0.929 . S
H3256 C3270 0.930 . S
H3257 C3272 0.960 . S
H3258 C3272 0.960 . S
H3259 C3272 0.960 . S
C3260 H3252 0.929 . S
C3260 C3261 1.377 . S
C3260 C3262 1.384 . S
C3261 C3260 1.377 . S
C3261 C3267 1.390 . S
C3262 H3253 0.930 . S
C3262 C3260 1.384 . S
C3262 C3263 1.372 . S
C3263 C3262 1.372 . S
C3263 C3264 1.400 . S
C3263 C3268 1.490 . S
C3264 H3254 0.930 . S
C3264 C3263 1.400 . S
C3264 C3267 1.386 . S
H3265 C3281 0.930 . S
H3266 C3282 0.931 . S
C3267 H3255 0.929 . S
C3267 C3261 1.390 . S
C3267 C3264 1.386 . S
C3268 C3263 1.490 . S
C3268 C3270 1.395 . S
C3268 C3271 1.403 . S
H3269 C3275 0.930 . S
C3270 H3256 0.930 . S
C3270 C3268 1.395 . S
C3270 C3273 1.403 . S
C3271 C3268 1.403 . S
C3271 C3272 1.524 . S
C3271 C3275 1.400 . S
C3272 H3257 0.960 . S
C3272 H3258 0.960 . S
C3272 H3259 0.960 . S
C3272 C3271 1.524 . S
C3273 C3270 1.403 . S
C3273 C3274 1.392 . S
C3273 C3277 1.495 . S
C3274 C3273 1.392 . S
C3274 C3275 1.385 . S
C3274 C3276 1.478 . S
C3275 H3269 0.930 . S
C3275 C3271 1.400 . S
C3275 C3274 1.385 . S
C3276 C3274 1.478 . S
C3276 C3278 1.381 . S
C3276 C3282 1.383 . S
C3277 C3273 1.495 . S
C3277 H3283 0.959 . S
C3277 H3284 0.961 . S
C3277 H3285 0.960 . S
C3278 C3276 1.381 . S
C3278 C3279 1.394 . S
C3278 H3286 0.930 . S
C3279 C3278 1.394 . S
C3279 C3280 1.383 . S
C3279 H3287 0.929 . S
C3280 C3279 1.383 . S
C3280 C3281 1.377 . S
C3281 H3265 0.930 . S
C3281 C3280 1.377 . S
C3281 C3282 1.379 . S
C3282 H3266 0.931 . S
C3282 C3276 1.383 . S
C3282 C3281 1.379 . S
H3283 C3277 0.959 . S
H3284 C3277 0.961 . S
H3285 C3277 0.960 . S
H3286 C3278 0.930 . S
H3287 C3279 0.929 . S
H3288 C3296 0.929 . S
H3289 C3298 0.930 . S
H3290 C3300 0.930 . S
H3291 C3303 0.929 . S
H3292 C3306 0.930 . S
H3293 C3308 0.960 . S
H3294 C3308 0.960 . S
H3295 C3308 0.960 . S
C3296 H3288 0.929 . S
C3296 C3297 1.377 . S
C3296 C3298 1.384 . S
C3297 C3296 1.377 . S
C3297 C3303 1.390 . S
C3298 H3289 0.930 . S
C3298 C3296 1.384 . S
C3298 C3299 1.372 . S
C3299 C3298 1.372 . S
C3299 C3300 1.400 . S
C3299 C3304 1.490 . S
C3300 H3290 0.930 . S
C3300 C3299 1.400 . S
C3300 C3303 1.386 . S
H3301 C3317 0.930 . S
H3302 C3318 0.931 . S
C3303 H3291 0.929 . S
C3303 C3297 1.390 . S
C3303 C3300 1.386 . S
C3304 C3299 1.490 . S
C3304 C3306 1.395 . S
C3304 C3307 1.403 . S
H3305 C3311 0.930 . S
C3306 H3292 0.930 . S
C3306 C3304 1.395 . S
C3306 C3309 1.403 . S
C3307 C3304 1.403 . S
C3307 C3308 1.524 . S
C3307 C3311 1.400 . S
C3308 H3293 0.960 . S
C3308 H3294 0.960 . S
C3308 H3295 0.960 . S
C3308 C3307 1.524 . S
C3309 C3306 1.403 . S
C3309 C3310 1.392 . S
C3309 C3313 1.495 . S
C3310 C3309 1.392 . S
C3310 C3311 1.385 . S
C3310 C3312 1.478 . S
C3311 H3305 0.930 . S
C3311 C3307 1.400 . S
C3311 C3310 1.385 . S
C3312 C3310 1.478 . S
C3312 C3314 1.381 . S
C3312 C3318 1.383 . S
C3313 C3309 1.495 . S
C3313 H3319 0.959 . S
C3313 H3320 0.961 . S
C3313 H3321 0.960 . S
C3314 C3312 1.381 . S
C3314 C3315 1.394 . S
C3314 H3322 0.930 . S
C3315 C3314 1.394 . S
C3315 C3316 1.383 . S
C3315 H3323 0.929 . S
C3316 C3315 1.383 . S
C3316 C3317 1.377 . S
C3317 H3301 0.930 . S
C3317 C3316 1.377 . S
C3317 C3318 1.379 . S
C3318 H3302 0.931 . S
C3318 C3312 1.383 . S
C3318 C3317 1.379 . S
H3319 C3313 0.959 . S
H3320 C3313 0.961 . S
H3321 C3313 0.960 . S
H3322 C3314 0.930 . S
H3323 C3315 0.929 . S
H3324 C3332 0.929 . S
H3325 C3334 0.930 . S
H3326 C3336 0.930 . S
H3327 C3339 0.929 . S
H3328 C3342 0.930 . S
H3329 C3344 0.960 . S
H3330 C3344 0.960 . S
H3331 C3344 0.960 . S
C3332 H3324 0.929 . S
C3332 C3333 1.377 . S
C3332 C3334 1.384 . S
C3333 C3332 1.377 . S
C3333 C3339 1.390 . S
C3334 H3325 0.930 . S
C3334 C3332 1.384 . S
C3334 C3335 1.372 . S
C3335 C3334 1.372 . S
C3335 C3336 1.400 . S
C3335 C3340 1.490 . S
C3336 H3326 0.930 . S
C3336 C3335 1.400 . S
C3336 C3339 1.386 . S
H3337 C3353 0.930 . S
H3338 C3354 0.931 . S
C3339 H3327 0.929 . S
C3339 C3333 1.390 . S
C3339 C3336 1.386 . S
C3340 C3335 1.490 . S
C3340 C3342 1.395 . S
C3340 C3343 1.403 . S
H3341 C3347 0.930 . S
C3342 H3328 0.930 . S
C3342 C3340 1.395 . S
C3342 C3345 1.403 . S
C3343 C3340 1.403 . S
C3343 C3344 1.524 . S
C3343 C3347 1.400 . S
C3344 H3329 0.960 . S
C3344 H3330 0.960 . S
C3344 H3331 0.960 . S
C3344 C3343 1.524 . S
C3345 C3342 1.403 . S
C3345 C3346 1.392 . S
C3345 C3349 1.495 . S
C3346 C3345 1.392 . S
C3346 C3347 1.385 . S
C3346 C3348 1.478 . S
C3347 H3341 0.930 . S
C3347 C3343 1.400 . S
C3347 C3346 1.385 . S
C3348 C3346 1.478 . S
C3348 C3350 1.381 . S
C3348 C3354 1.383 . S
C3349 C3345 1.495 . S
C3349 H3355 0.959 . S
C3349 H3356 0.961 . S
C3349 H3357 0.960 . S
C3350 C3348 1.381 . S
C3350 C3351 1.394 . S
C3350 H3358 0.930 . S
C3351 C3350 1.394 . S
C3351 C3352 1.383 . S
C3351 H3359 0.929 . S
C3352 C3351 1.383 . S
C3352 C3353 1.377 . S
C3353 H3337 0.930 . S
C3353 C3352 1.377 . S
C3353 C3354 1.379 . S
C3354 H3338 0.931 . S
C3354 C3348 1.383 . S
C3354 C3353 1.379 . S
H3355 C3349 0.959 . S
H3356 C3349 0.961 . S
H3357 C3349 0.960 . S
H3358 C3350 0.930 . S
H3359 C3351 0.929 . S
H3360 C3368 0.929 . S
H3361 C3370 0.930 . S
H3362 C3372 0.930 . S
H3363 C3375 0.929 . S
H3364 C3378 0.930 . S
H3365 C3380 0.960 . S
H3366 C3380 0.960 . S
H3367 C3380 0.960 . S
C3368 H3360 0.929 . S
C3368 C3369 1.377 . S
C3368 C3370 1.384 . S
C3369 C3368 1.377 . S
C3369 C3375 1.390 . S
C3370 H3361 0.930 . S
C3370 C3368 1.384 . S
C3370 C3371 1.372 . S
C3371 C3370 1.372 . S
C3371 C3372 1.400 . S
C3371 C3376 1.490 . S
C3372 H3362 0.930 . S
C3372 C3371 1.400 . S
C3372 C3375 1.386 . S
H3373 C3389 0.930 . S
H3374 C3390 0.931 . S
C3375 H3363 0.929 . S
C3375 C3369 1.390 . S
C3375 C3372 1.386 . S
C3376 C3371 1.490 . S
C3376 C3378 1.395 . S
C3376 C3379 1.403 . S
H3377 C3383 0.930 . S
C3378 H3364 0.930 . S
C3378 C3376 1.395 . S
C3378 C3381 1.403 . S
C3379 C3376 1.403 . S
C3379 C3380 1.524 . S
C3379 C3383 1.400 . S
C3380 H3365 0.960 . S
C3380 H3366 0.960 . S
C3380 H3367 0.960 . S
C3380 C3379 1.524 . S
C3381 C3378 1.403 . S
C3381 C3382 1.392 . S
C3381 C3385 1.495 . S
C3382 C3381 1.392 . S
C3382 C3383 1.385 . S
C3382 C3384 1.478 . S
C3383 H3377 0.930 . S
C3383 C3379 1.400 . S
C3383 C3382 1.385 . S
C3384 C3382 1.478 . S
C3384 C3386 1.381 . S
C3384 C3390 1.383 . S
C3385 C3381 1.495 . S
C3385 H3391 0.959 . S
C3385 H3392 0.961 . S
C3385 H3393 0.960 . S
C3386 C3384 1.381 . S
C3386 C3387 1.394 . S
C3386 H3394 0.930 . S
C3387 C3386 1.394 . S
C3387 C3388 1.383 . S
C3387 H3395 0.929 . S
C3388 C3387 1.383 . S
C3388 C3389 1.377 . S
C3389 H3373 0.930 . S
C3389 C3388 1.377 . S
C3389 C3390 1.379 . S
C3390 H3374 0.931 . S
C3390 C3384 1.383 . S
C3390 C3389 1.379 . S
H3391 C3385 0.959 . S
H3392 C3385 0.961 . S
H3393 C3385 0.960 . S
H3394 C3386 0.930 . S
H3395 C3387 0.929 . S
H3396 C3404 0.929 1_455 S
H3397 C3406 0.930 . S
H3398 C3408 0.930 . S
H3399 C3411 0.929 . S
H3400 C3414 0.930 . S
H3401 C3416 0.960 . S
H3402 C3416 0.960 . S
H3403 C3416 0.960 . S
C3404 H3396 0.929 1_655 S
C3404 C3405 1.377 . S
C3404 C3406 1.384 1_655 S
C3405 C3404 1.377 . S
C3405 C3411 1.390 . S
C3406 H3397 0.930 . S
C3406 C3404 1.384 1_455 S
C3406 C3407 1.372 1_455 S
C3407 C3406 1.372 1_655 S
C3407 C3408 1.400 . S
C3407 C3412 1.490 . S
C3408 H3398 0.930 . S
C3408 C3407 1.400 . S
C3408 C3411 1.386 . S
H3409 C3425 0.930 1_655 S
H3410 C3426 0.931 1_655 S
C3411 H3399 0.929 . S
C3411 C3405 1.390 . S
C3411 C3408 1.386 . S
C3412 C3407 1.490 . S
C3412 C3414 1.395 1_655 S
C3412 C3415 1.403 . S
H3413 C3419 0.930 . S
C3414 H3400 0.930 . S
C3414 C3412 1.395 1_455 S
C3414 C3417 1.403 . S
C3415 C3412 1.403 . S
C3415 C3416 1.524 . S
C3415 C3419 1.400 . S
C3416 H3401 0.960 . S
C3416 H3402 0.960 . S
C3416 H3403 0.960 . S
C3416 C3415 1.524 . S
C3417 C3414 1.403 . S
C3417 C3418 1.392 . S
C3417 C3421 1.495 . S
C3418 C3417 1.392 . S
C3418 C3419 1.385 1_455 S
C3418 C3420 1.478 . S
C3419 H3413 0.930 . S
C3419 C3415 1.400 . S
C3419 C3418 1.385 1_655 S
C3420 C3418 1.478 . S
C3420 C3422 1.381 . S
C3420 C3426 1.383 . S
C3421 C3417 1.495 . S
C3421 H3427 0.959 . S
C3421 H3428 0.961 . S
C3421 H3429 0.960 . S
C3422 C3420 1.381 . S
C3422 C3423 1.394 . S
C3422 H3430 0.930 . S
C3423 C3422 1.394 . S
C3423 C3424 1.383 . S
C3423 H3431 0.929 . S
C3424 C3423 1.383 . S
C3424 C3425 1.377 . S
C3425 H3409 0.930 1_455 S
C3425 C3424 1.377 . S
C3425 C3426 1.379 . S
C3426 H3410 0.931 1_455 S
C3426 C3420 1.383 . S
C3426 C3425 1.379 . S
H3427 C3421 0.959 . S
H3428 C3421 0.961 . S
H3429 C3421 0.960 . S
H3430 C3422 0.930 . S
H3431 C3423 0.929 . S
H3432 C3440 0.929 . S
H3433 C3442 0.930 . S
H3434 C3444 0.930 . S
H3435 C3447 0.929 . S
H3436 C3450 0.930 . S
H3437 C3452 0.960 1_655 S
H3438 C3452 0.960 . S
H3439 C3452 0.960 . S
C3440 H3432 0.929 . S
C3440 C3441 1.377 . S
C3440 C3442 1.384 . S
C3441 C3440 1.377 . S
C3441 C3447 1.390 . S
C3442 H3433 0.930 . S
C3442 C3440 1.384 . S
C3442 C3443 1.372 . S
C3443 C3442 1.372 . S
C3443 C3444 1.400 . S
C3443 C3448 1.490 . S
C3444 H3434 0.930 . S
C3444 C3443 1.400 . S
C3444 C3447 1.386 . S
H3445 C3461 0.930 . S
H3446 C3462 0.931 . S
C3447 H3435 0.929 . S
C3447 C3441 1.390 . S
C3447 C3444 1.386 . S
C3448 C3443 1.490 . S
C3448 C3450 1.395 . S
C3448 C3451 1.403 . S
H3449 C3455 0.930 . S
C3450 H3436 0.930 . S
C3450 C3448 1.395 . S
C3450 C3453 1.403 1_455 S
C3451 C3448 1.403 . S
C3451 C3452 1.524 . S
C3451 C3455 1.400 1_455 S
C3452 H3437 0.960 1_455 S
C3452 H3438 0.960 . S
C3452 H3439 0.960 . S
C3452 C3451 1.524 . S
C3453 C3450 1.403 1_655 S
C3453 C3454 1.392 . S
C3453 C3457 1.495 . S
C3454 C3453 1.392 . S
C3454 C3455 1.385 . S
C3454 C3456 1.478 . S
C3455 H3449 0.930 . S
C3455 C3451 1.400 1_655 S
C3455 C3454 1.385 . S
C3456 C3454 1.478 . S
C3456 C3458 1.381 . S
C3456 C3462 1.383 . S
C3457 C3453 1.495 . S
C3457 H3463 0.959 1_655 S
C3457 H3464 0.961 . S
C3457 H3465 0.960 . S
C3458 C3456 1.381 . S
C3458 C3459 1.394 . S
C3458 H3466 0.930 . S
C3459 C3458 1.394 . S
C3459 C3460 1.383 . S
C3459 H3467 0.929 . S
C3460 C3459 1.383 . S
C3460 C3461 1.377 . S
C3461 H3445 0.930 . S
C3461 C3460 1.377 . S
C3461 C3462 1.379 . S
C3462 H3446 0.931 . S
C3462 C3456 1.383 . S
C3462 C3461 1.379 . S
H3463 C3457 0.959 1_455 S
H3464 C3457 0.961 . S
H3465 C3457 0.960 . S
H3466 C3458 0.930 . S
H3467 C3459 0.929 . S
H3468 C3476 0.929 . S
H3469 C3478 0.930 . S
H3470 C3480 0.930 . S
H3471 C3483 0.929 . S
H3472 C3486 0.930 . S
H3473 C3488 0.960 . S
H3474 C3488 0.960 . S
H3475 C3488 0.960 . S
C3476 H3468 0.929 . S
C3476 C3477 1.377 . S
C3476 C3478 1.384 . S
C3477 C3476 1.377 . S
C3477 C3483 1.390 . S
C3478 H3469 0.930 . S
C3478 C3476 1.384 . S
C3478 C3479 1.372 . S
C3479 C3478 1.372 . S
C3479 C3480 1.400 . S
C3479 C3484 1.490 . S
C3480 H3470 0.930 . S
C3480 C3479 1.400 . S
C3480 C3483 1.386 . S
H3481 C3497 0.930 . S
H3482 C3498 0.931 . S
C3483 H3471 0.929 . S
C3483 C3477 1.390 . S
C3483 C3480 1.386 . S
C3484 C3479 1.490 . S
C3484 C3486 1.395 . S
C3484 C3487 1.403 . S
H3485 C3491 0.930 . S
C3486 H3472 0.930 . S
C3486 C3484 1.395 . S
C3486 C3489 1.403 . S
C3487 C3484 1.403 . S
C3487 C3488 1.524 . S
C3487 C3491 1.400 . S
C3488 H3473 0.960 . S
C3488 H3474 0.960 . S
C3488 H3475 0.960 . S
C3488 C3487 1.524 . S
C3489 C3486 1.403 . S
C3489 C3490 1.392 . S
C3489 C3493 1.495 . S
C3490 C3489 1.392 . S
C3490 C3491 1.385 . S
C3490 C3492 1.478 . S
C3491 H3485 0.930 . S
C3491 C3487 1.400 . S
C3491 C3490 1.385 . S
C3492 C3490 1.478 . S
C3492 C3494 1.381 . S
C3492 C3498 1.383 . S
C3493 C3489 1.495 . S
C3493 H3499 0.959 . S
C3493 H3500 0.961 . S
C3493 H3501 0.960 . S
C3494 C3492 1.381 . S
C3494 C3495 1.394 . S
C3494 H3502 0.930 . S
C3495 C3494 1.394 . S
C3495 C3496 1.383 . S
C3495 H3503 0.929 . S
C3496 C3495 1.383 . S
C3496 C3497 1.377 . S
C3497 H3481 0.930 . S
C3497 C3496 1.377 . S
C3497 C3498 1.379 . S
C3498 H3482 0.931 . S
C3498 C3492 1.383 . S
C3498 C3497 1.379 . S
H3499 C3493 0.959 . S
H3500 C3493 0.961 . S
H3501 C3493 0.960 . S
H3502 C3494 0.930 . S
H3503 C3495 0.929 . S
H3504 C3512 0.929 . S
H3505 C3514 0.930 . S
H3506 C3516 0.930 . S
H3507 C3519 0.929 . S
H3508 C3522 0.930 . S
H3509 C3524 0.960 . S
H3510 C3524 0.960 . S
H3511 C3524 0.960 . S
C3512 H3504 0.929 . S
C3512 C3513 1.377 . S
C3512 C3514 1.384 . S
C3513 C3512 1.377 . S
C3513 C3519 1.390 . S
C3514 H3505 0.930 . S
C3514 C3512 1.384 . S
C3514 C3515 1.372 . S
C3515 C3514 1.372 . S
C3515 C3516 1.400 . S
C3515 C3520 1.490 . S
C3516 H3506 0.930 . S
C3516 C3515 1.400 . S
C3516 C3519 1.386 . S
H3517 C3533 0.930 . S
H3518 C3534 0.931 . S
C3519 H3507 0.929 . S
C3519 C3513 1.390 . S
C3519 C3516 1.386 . S
C3520 C3515 1.490 . S
C3520 C3522 1.395 . S
C3520 C3523 1.403 . S
H3521 C3527 0.930 . S
C3522 H3508 0.930 . S
C3522 C3520 1.395 . S
C3522 C3525 1.403 . S
C3523 C3520 1.403 . S
C3523 C3524 1.524 . S
C3523 C3527 1.400 . S
C3524 H3509 0.960 . S
C3524 H3510 0.960 . S
C3524 H3511 0.960 . S
C3524 C3523 1.524 . S
C3525 C3522 1.403 . S
C3525 C3526 1.392 . S
C3525 C3529 1.495 . S
C3526 C3525 1.392 . S
C3526 C3527 1.385 . S
C3526 C3528 1.478 . S
C3527 H3521 0.930 . S
C3527 C3523 1.400 . S
C3527 C3526 1.385 . S
C3528 C3526 1.478 . S
C3528 C3530 1.381 . S
C3528 C3534 1.383 . S
C3529 C3525 1.495 . S
C3529 H3535 0.959 . S
C3529 H3536 0.961 . S
C3529 H3537 0.960 . S
C3530 C3528 1.381 . S
C3530 C3531 1.394 . S
C3530 H3538 0.930 . S
C3531 C3530 1.394 . S
C3531 C3532 1.383 . S
C3531 H3539 0.929 . S
C3532 C3531 1.383 . S
C3532 C3533 1.377 . S
C3533 H3517 0.930 . S
C3533 C3532 1.377 . S
C3533 C3534 1.379 . S
C3534 H3518 0.931 . S
C3534 C3528 1.383 . S
C3534 C3533 1.379 . S
H3535 C3529 0.959 . S
H3536 C3529 0.961 . S
H3537 C3529 0.960 . S
H3538 C3530 0.930 . S
H3539 C3531 0.929 . S
H3540 C3548 0.929 . S
H3541 C3550 0.930 . S
H3542 C3552 0.930 . S
H3543 C3555 0.929 . S
H3544 C3558 0.930 . S
H3545 C3560 0.960 . S
H3546 C3560 0.960 . S
H3547 C3560 0.960 . S
C3548 H3540 0.929 . S
C3548 C3549 1.377 . S
C3548 C3550 1.384 . S
C3549 C3548 1.377 . S
C3549 C3555 1.390 . S
C3550 H3541 0.930 . S
C3550 C3548 1.384 . S
C3550 C3551 1.372 . S
C3551 C3550 1.372 . S
C3551 C3552 1.400 . S
C3551 C3556 1.490 . S
C3552 H3542 0.930 . S
C3552 C3551 1.400 . S
C3552 C3555 1.386 . S
H3553 C3569 0.930 . S
H3554 C3570 0.931 . S
C3555 H3543 0.929 . S
C3555 C3549 1.390 . S
C3555 C3552 1.386 . S
C3556 C3551 1.490 . S
C3556 C3558 1.395 . S
C3556 C3559 1.403 . S
H3557 C3563 0.930 . S
C3558 H3544 0.930 . S
C3558 C3556 1.395 . S
C3558 C3561 1.403 . S
C3559 C3556 1.403 . S
C3559 C3560 1.524 . S
C3559 C3563 1.400 . S
C3560 H3545 0.960 . S
C3560 H3546 0.960 . S
C3560 H3547 0.960 . S
C3560 C3559 1.524 . S
C3561 C3558 1.403 . S
C3561 C3562 1.392 . S
C3561 C3565 1.495 . S
C3562 C3561 1.392 . S
C3562 C3563 1.385 . S
C3562 C3564 1.478 . S
C3563 H3557 0.930 . S
C3563 C3559 1.400 . S
C3563 C3562 1.385 . S
C3564 C3562 1.478 . S
C3564 C3566 1.381 . S
C3564 C3570 1.383 . S
C3565 C3561 1.495 . S
C3565 H3571 0.959 . S
C3565 H3572 0.961 . S
C3565 H3573 0.960 . S
C3566 C3564 1.381 . S
C3566 C3567 1.394 . S
C3566 H3574 0.930 . S
C3567 C3566 1.394 . S
C3567 C3568 1.383 . S
C3567 H3575 0.929 . S
C3568 C3567 1.383 . S
C3568 C3569 1.377 . S
C3569 H3553 0.930 . S
C3569 C3568 1.377 . S
C3569 C3570 1.379 . S
C3570 H3554 0.931 . S
C3570 C3564 1.383 . S
C3570 C3569 1.379 . S
H3571 C3565 0.959 . S
H3572 C3565 0.961 . S
H3573 C3565 0.960 . S
H3574 C3566 0.930 . S
H3575 C3567 0.929 . S
H3576 C3584 0.929 . S
H3577 C3586 0.930 . S
H3578 C3588 0.930 . S
H3579 C3591 0.929 . S
H3580 C3594 0.930 . S
H3581 C3596 0.960 . S
H3582 C3596 0.960 . S
H3583 C3596 0.960 . S
C3584 H3576 0.929 . S
C3584 C3585 1.377 . S
C3584 C3586 1.384 . S
C3585 C3584 1.377 . S
C3585 C3591 1.390 . S
C3586 H3577 0.930 . S
C3586 C3584 1.384 . S
C3586 C3587 1.372 . S
C3587 C3586 1.372 . S
C3587 C3588 1.400 . S
C3587 C3592 1.490 . S
C3588 H3578 0.930 . S
C3588 C3587 1.400 . S
C3588 C3591 1.386 . S
H3589 C3605 0.930 . S
H3590 C3606 0.931 . S
C3591 H3579 0.929 . S
C3591 C3585 1.390 . S
C3591 C3588 1.386 . S
C3592 C3587 1.490 . S
C3592 C3594 1.395 . S
C3592 C3595 1.403 . S
H3593 C3599 0.930 . S
C3594 H3580 0.930 . S
C3594 C3592 1.395 . S
C3594 C3597 1.403 1_655 S
C3595 C3592 1.403 . S
C3595 C3596 1.524 . S
C3595 C3599 1.400 1_655 S
C3596 H3581 0.960 . S
C3596 H3582 0.960 . S
C3596 H3583 0.960 . S
C3596 C3595 1.524 . S
C3597 C3594 1.403 1_455 S
C3597 C3598 1.392 . S
C3597 C3601 1.495 . S
C3598 C3597 1.392 . S
C3598 C3599 1.385 . S
C3598 C3600 1.478 . S
C3599 H3593 0.930 . S
C3599 C3595 1.400 1_455 S
C3599 C3598 1.385 . S
C3600 C3598 1.478 . S
C3600 C3602 1.381 . S
C3600 C3606 1.383 . S
C3601 C3597 1.495 . S
C3601 H3607 0.959 . S
C3601 H3608 0.961 . S
C3601 H3609 0.960 . S
C3602 C3600 1.381 . S
C3602 C3603 1.394 . S
C3602 H3610 0.930 . S
C3603 C3602 1.394 . S
C3603 C3604 1.383 . S
C3603 H3611 0.929 . S
C3604 C3603 1.383 . S
C3604 C3605 1.377 . S
C3605 H3589 0.930 . S
C3605 C3604 1.377 . S
C3605 C3606 1.379 . S
C3606 H3590 0.931 . S
C3606 C3600 1.383 . S
C3606 C3605 1.379 . S
H3607 C3601 0.959 . S
H3608 C3601 0.961 . S
H3609 C3601 0.960 . S
H3610 C3602 0.930 . S
H3611 C3603 0.929 . S
H3612 C3620 0.929 . S
H3613 C3622 0.930 . S
H3614 C3624 0.930 . S
H3615 C3627 0.929 . S
H3616 C3630 0.930 . S
H3617 C3632 0.960 . S
H3618 C3632 0.960 . S
H3619 C3632 0.960 . S
C3620 H3612 0.929 . S
C3620 C3621 1.377 . S
C3620 C3622 1.384 . S
C3621 C3620 1.377 . S
C3621 C3627 1.390 . S
C3622 H3613 0.930 . S
C3622 C3620 1.384 . S
C3622 C3623 1.372 . S
C3623 C3622 1.372 . S
C3623 C3624 1.400 . S
C3623 C3628 1.490 . S
C3624 H3614 0.930 . S
C3624 C3623 1.400 . S
C3624 C3627 1.386 . S
H3625 C3641 0.930 . S
H3626 C3642 0.931 . S
C3627 H3615 0.929 . S
C3627 C3621 1.390 . S
C3627 C3624 1.386 . S
C3628 C3623 1.490 . S
C3628 C3630 1.395 1_655 S
C3628 C3631 1.403 . S
H3629 C3635 0.930 . S
C3630 H3616 0.930 . S
C3630 C3628 1.395 1_455 S
C3630 C3633 1.403 . S
C3631 C3628 1.403 . S
C3631 C3632 1.524 . S
C3631 C3635 1.400 . S
C3632 H3617 0.960 . S
C3632 H3618 0.960 . S
C3632 H3619 0.960 . S
C3632 C3631 1.524 . S
C3633 C3630 1.403 . S
C3633 C3634 1.392 . S
C3633 C3637 1.495 . S
C3634 C3633 1.392 . S
C3634 C3635 1.385 1_455 S
C3634 C3636 1.478 . S
C3635 H3629 0.930 . S
C3635 C3631 1.400 . S
C3635 C3634 1.385 1_655 S
C3636 C3634 1.478 . S
C3636 C3638 1.381 . S
C3636 C3642 1.383 . S
C3637 C3633 1.495 . S
C3637 H3643 0.959 . S
C3637 H3644 0.961 . S
C3637 H3645 0.960 . S
C3638 C3636 1.381 . S
C3638 C3639 1.394 . S
C3638 H3646 0.930 . S
C3639 C3638 1.394 . S
C3639 C3640 1.383 . S
C3639 H3647 0.929 . S
C3640 C3639 1.383 . S
C3640 C3641 1.377 . S
C3641 H3625 0.930 . S
C3641 C3640 1.377 . S
C3641 C3642 1.379 . S
C3642 H3626 0.931 . S
C3642 C3636 1.383 . S
C3642 C3641 1.379 . S
H3643 C3637 0.959 . S
H3644 C3637 0.961 . S
H3645 C3637 0.960 . S
H3646 C3638 0.930 . S
H3647 C3639 0.929 . S
H3648 C3656 0.929 . S
H3649 C3658 0.930 . S
H3650 C3660 0.930 . S
H3651 C3663 0.929 . S
H3652 C3666 0.930 . S
H3653 C3668 0.960 . S
H3654 C3668 0.960 . S
H3655 C3668 0.960 . S
C3656 H3648 0.929 . S
C3656 C3657 1.377 . S
C3656 C3658 1.384 . S
C3657 C3656 1.377 . S
C3657 C3663 1.390 . S
C3658 H3649 0.930 . S
C3658 C3656 1.384 . S
C3658 C3659 1.372 . S
C3659 C3658 1.372 . S
C3659 C3660 1.400 . S
C3659 C3664 1.490 . S
C3660 H3650 0.930 . S
C3660 C3659 1.400 . S
C3660 C3663 1.386 . S
H3661 C3677 0.930 . S
H3662 C3678 0.931 . S
C3663 H3651 0.929 . S
C3663 C3657 1.390 . S
C3663 C3660 1.386 . S
C3664 C3659 1.490 . S
C3664 C3666 1.395 . S
C3664 C3667 1.403 . S
H3665 C3671 0.930 . S
C3666 H3652 0.930 . S
C3666 C3664 1.395 . S
C3666 C3669 1.403 . S
C3667 C3664 1.403 . S
C3667 C3668 1.524 . S
C3667 C3671 1.400 . S
C3668 H3653 0.960 . S
C3668 H3654 0.960 . S
C3668 H3655 0.960 . S
C3668 C3667 1.524 . S
C3669 C3666 1.403 . S
C3669 C3670 1.392 . S
C3669 C3673 1.495 . S
C3670 C3669 1.392 . S
C3670 C3671 1.385 . S
C3670 C3672 1.478 . S
C3671 H3665 0.930 . S
C3671 C3667 1.400 . S
C3671 C3670 1.385 . S
C3672 C3670 1.478 . S
C3672 C3674 1.381 . S
C3672 C3678 1.383 . S
C3673 C3669 1.495 . S
C3673 H3679 0.959 . S
C3673 H3680 0.961 . S
C3673 H3681 0.960 . S
C3674 C3672 1.381 . S
C3674 C3675 1.394 . S
C3674 H3682 0.930 . S
C3675 C3674 1.394 . S
C3675 C3676 1.383 . S
C3675 H3683 0.929 . S
C3676 C3675 1.383 . S
C3676 C3677 1.377 . S
C3677 H3661 0.930 . S
C3677 C3676 1.377 . S
C3677 C3678 1.379 . S
C3678 H3662 0.931 . S
C3678 C3672 1.383 . S
C3678 C3677 1.379 . S
H3679 C3673 0.959 . S
H3680 C3673 0.961 . S
H3681 C3673 0.960 . S
H3682 C3674 0.930 . S
H3683 C3675 0.929 . S
H3684 C3692 0.937 . S
H3685 C3694 0.930 . S
H3686 C3696 0.930 . S
H3687 C3699 0.929 . S
H3688 C3702 0.930 . S
H3689 C3704 0.960 . S
H3690 C3704 0.960 . S
H3691 C3704 0.960 . S
C3692 H3684 0.937 . S
C3692 C3693 1.367 1_655 S
C3692 C3694 1.387 . S
C3693 C3692 1.367 1_455 S
C3693 C3699 1.390 . S
C3694 H3685 0.930 . S
C3694 C3692 1.387 . S
C3694 C3695 1.372 1_655 S
C3695 C3694 1.372 1_455 S
C3695 C3696 1.400 . S
C3695 C3700 1.490 . S
C3696 H3686 0.930 . S
C3696 C3695 1.400 . S
C3696 C3699 1.386 . S
H3697 C3713 0.930 1_455 S
H3698 C3714 0.931 . S
C3699 H3687 0.929 . S
C3699 C3693 1.390 . S
C3699 C3696 1.386 . S
C3700 C3695 1.490 . S
C3700 C3702 1.395 1_455 S
C3700 C3703 1.403 . S
H3701 C3707 0.930 . S
C3702 H3688 0.930 . S
C3702 C3700 1.395 1_655 S
C3702 C3705 1.403 . S
C3703 C3700 1.403 . S
C3703 C3704 1.524 . S
C3703 C3707 1.400 . S
C3704 H3689 0.960 . S
C3704 H3690 0.960 . S
C3704 H3691 0.960 . S
C3704 C3703 1.524 . S
C3705 C3702 1.403 . S
C3705 C3706 1.392 . S
C3705 C3709 1.495 . S
C3706 C3705 1.392 . S
C3706 C3707 1.385 1_655 S
C3706 C3708 1.478 . S
C3707 H3701 0.930 . S
C3707 C3703 1.400 . S
C3707 C3706 1.385 1_455 S
C3708 C3706 1.478 . S
C3708 C3710 1.381 . S
C3708 C3714 1.383 1_655 S
C3709 C3705 1.495 . S
C3709 H3715 0.959 . S
C3709 H3716 0.961 . S
C3709 H3717 0.960 . S
C3710 C3708 1.381 . S
C3710 C3711 1.394 . S
C3710 H3718 0.930 . S
C3711 C3710 1.394 . S
C3711 C3712 1.383 . S
C3711 H3719 0.929 . S
C3712 C3711 1.383 . S
C3712 C3713 1.377 . S
C3713 H3697 0.930 1_655 S
C3713 C3712 1.377 . S
C3713 C3714 1.379 1_655 S
C3714 H3698 0.931 . S
C3714 C3708 1.383 1_455 S
C3714 C3713 1.379 1_455 S
H3715 C3709 0.959 . S
H3716 C3709 0.961 . S
H3717 C3709 0.960 . S
H3718 C3710 0.930 . S
H3719 C3711 0.929 . S
H3720 C3728 0.929 . S
H3721 C3730 0.930 . S
H3722 C3732 0.930 . S
H3723 C3735 0.929 . S
H3724 C3738 0.930 . S
H3725 C3740 0.960 1_455 S
H3726 C3740 0.960 . S
H3727 C3740 0.960 . S
C3728 H3720 0.929 . S
C3728 C3729 1.377 . S
C3728 C3730 1.384 . S
C3729 C3728 1.377 . S
C3729 C3735 1.390 . S
C3730 H3721 0.930 . S
C3730 C3728 1.384 . S
C3730 C3731 1.372 . S
C3731 C3730 1.372 . S
C3731 C3732 1.400 . S
C3731 C3736 1.490 . S
C3732 H3722 0.930 . S
C3732 C3731 1.400 . S
C3732 C3735 1.386 . S
H3733 C3749 0.930 . S
H3734 C3750 0.931 . S
C3735 H3723 0.929 . S
C3735 C3729 1.390 . S
C3735 C3732 1.386 . S
C3736 C3731 1.490 . S
C3736 C3738 1.395 . S
C3736 C3739 1.403 . S
H3737 C3743 0.930 . S
C3738 H3724 0.930 . S
C3738 C3736 1.395 . S
C3738 C3741 1.403 1_655 S
C3739 C3736 1.403 . S
C3739 C3740 1.524 . S
C3739 C3743 1.400 1_655 S
C3740 H3725 0.960 1_655 S
C3740 H3726 0.960 . S
C3740 H3727 0.960 . S
C3740 C3739 1.524 . S
C3741 C3738 1.403 1_455 S
C3741 C3742 1.392 . S
C3741 C3745 1.495 . S
C3742 C3741 1.392 . S
C3742 C3743 1.385 . S
C3742 C3744 1.478 . S
C3743 H3737 0.930 . S
C3743 C3739 1.400 1_455 S
C3743 C3742 1.385 . S
C3744 C3742 1.478 . S
C3744 C3746 1.381 . S
C3744 C3750 1.383 . S
C3745 C3741 1.495 . S
C3745 H3751 0.959 1_455 S
C3745 H3752 0.961 . S
C3745 H3753 0.960 . S
C3746 C3744 1.381 . S
C3746 C3747 1.394 . S
C3746 H3754 0.930 . S
C3747 C3746 1.394 . S
C3747 C3748 1.383 . S
C3747 H3755 0.929 . S
C3748 C3747 1.383 . S
C3748 C3749 1.377 . S
C3749 H3733 0.930 . S
C3749 C3748 1.377 . S
C3749 C3750 1.379 . S
C3750 H3734 0.931 . S
C3750 C3744 1.383 . S
C3750 C3749 1.379 . S
H3751 C3745 0.959 1_655 S
H3752 C3745 0.961 . S
H3753 C3745 0.960 . S
H3754 C3746 0.930 . S
H3755 C3747 0.929 . S
H3756 C3764 0.929 . S
H3757 C3766 0.930 . S
H3758 C3768 0.930 . S
H3759 C3771 0.929 . S
H3760 C3774 0.930 . S
H3761 C3776 0.960 . S
H3762 C3776 0.960 . S
H3763 C3776 0.960 . S
C3764 H3756 0.929 . S
C3764 C3765 1.377 . S
C3764 C3766 1.384 . S
C3765 C3764 1.377 . S
C3765 C3771 1.390 . S
C3766 H3757 0.930 . S
C3766 C3764 1.384 . S
C3766 C3767 1.372 . S
C3767 C3766 1.372 . S
C3767 C3768 1.400 . S
C3767 C3772 1.490 . S
C3768 H3758 0.930 . S
C3768 C3767 1.400 . S
C3768 C3771 1.386 . S
H3769 C3785 0.930 . S
H3770 C3786 0.931 . S
C3771 H3759 0.929 . S
C3771 C3765 1.390 . S
C3771 C3768 1.386 . S
C3772 C3767 1.490 . S
C3772 C3774 1.395 . S
C3772 C3775 1.403 . S
H3773 C3779 0.930 . S
C3774 H3760 0.930 . S
C3774 C3772 1.395 . S
C3774 C3777 1.403 . S
C3775 C3772 1.403 . S
C3775 C3776 1.524 . S
C3775 C3779 1.400 . S
C3776 H3761 0.960 . S
C3776 H3762 0.960 . S
C3776 H3763 0.960 . S
C3776 C3775 1.524 . S
C3777 C3774 1.403 . S
C3777 C3778 1.392 . S
C3777 C3781 1.495 . S
C3778 C3777 1.392 . S
C3778 C3779 1.385 . S
C3778 C3780 1.478 . S
C3779 H3773 0.930 . S
C3779 C3775 1.400 . S
C3779 C3778 1.385 . S
C3780 C3778 1.478 . S
C3780 C3782 1.381 . S
C3780 C3786 1.383 . S
C3781 C3777 1.495 . S
C3781 H3787 0.959 . S
C3781 H3788 0.961 . S
C3781 H3789 0.960 . S
C3782 C3780 1.381 . S
C3782 C3783 1.394 . S
C3782 H3790 0.930 . S
C3783 C3782 1.394 . S
C3783 C3784 1.383 . S
C3783 H3791 0.929 . S
C3784 C3783 1.383 . S
C3784 C3785 1.377 . S
C3785 H3769 0.930 . S
C3785 C3784 1.377 . S
C3785 C3786 1.379 . S
C3786 H3770 0.931 . S
C3786 C3780 1.383 . S
C3786 C3785 1.379 . S
H3787 C3781 0.959 . S
H3788 C3781 0.961 . S
H3789 C3781 0.960 . S
H3790 C3782 0.930 . S
H3791 C3783 0.929 . S
H3792 C3800 0.929 . S
H3793 C3802 0.930 . S
H3794 C3804 0.930 . S
H3795 C3807 0.929 . S
H3796 C3810 0.930 . S
H3797 C3812 0.960 . S
H3798 C3812 0.960 . S
H3799 C3812 0.960 . S
C3800 H3792 0.929 . S
C3800 C3801 1.377 . S
C3800 C3802 1.384 . S
C3801 C3800 1.377 . S
C3801 C3807 1.390 . S
C3802 H3793 0.930 . S
C3802 C3800 1.384 . S
C3802 C3803 1.372 . S
C3803 C3802 1.372 . S
C3803 C3804 1.400 . S
C3803 C3808 1.490 . S
C3804 H3794 0.930 . S
C3804 C3803 1.400 . S
C3804 C3807 1.386 . S
H3805 C3821 0.930 . S
H3806 C3822 0.931 . S
C3807 H3795 0.929 . S
C3807 C3801 1.390 . S
C3807 C3804 1.386 . S
C3808 C3803 1.490 . S
C3808 C3810 1.395 . S
C3808 C3811 1.403 . S
H3809 C3815 0.930 . S
C3810 H3796 0.930 . S
C3810 C3808 1.395 . S
C3810 C3813 1.403 . S
C3811 C3808 1.403 . S
C3811 C3812 1.524 . S
C3811 C3815 1.400 . S
C3812 H3797 0.960 . S
C3812 H3798 0.960 . S
C3812 H3799 0.960 . S
C3812 C3811 1.524 . S
C3813 C3810 1.403 . S
C3813 C3814 1.392 . S
C3813 C3817 1.495 . S
C3814 C3813 1.392 . S
C3814 C3815 1.385 . S
C3814 C3816 1.478 . S
C3815 H3809 0.930 . S
C3815 C3811 1.400 . S
C3815 C3814 1.385 . S
C3816 C3814 1.478 . S
C3816 C3818 1.381 . S
C3816 C3822 1.383 . S
C3817 C3813 1.495 . S
C3817 H3823 0.959 . S
C3817 H3824 0.961 . S
C3817 H3825 0.960 . S
C3818 C3816 1.381 . S
C3818 C3819 1.394 . S
C3818 H3826 0.930 . S
C3819 C3818 1.394 . S
C3819 C3820 1.383 . S
C3819 H3827 0.929 . S
C3820 C3819 1.383 . S
C3820 C3821 1.377 . S
C3821 H3805 0.930 . S
C3821 C3820 1.377 . S
C3821 C3822 1.379 . S
C3822 H3806 0.931 . S
C3822 C3816 1.383 . S
C3822 C3821 1.379 . S
H3823 C3817 0.959 . S
H3824 C3817 0.961 . S
H3825 C3817 0.960 . S
H3826 C3818 0.930 . S
H3827 C3819 0.929 . S
H3828 C3836 0.929 . S
H3829 C3838 0.930 . S
H3830 C3840 0.930 . S
H3831 C3843 0.929 . S
H3832 C3846 0.930 . S
H3833 C3848 0.960 . S
H3834 C3848 0.960 . S
H3835 C3848 0.960 . S
C3836 H3828 0.929 . S
C3836 C3837 1.377 . S
C3836 C3838 1.384 . S
C3837 C3836 1.377 . S
C3837 C3843 1.390 . S
C3838 H3829 0.930 . S
C3838 C3836 1.384 . S
C3838 C3839 1.372 . S
C3839 C3838 1.372 . S
C3839 C3840 1.400 . S
C3839 C3844 1.490 . S
C3840 H3830 0.930 . S
C3840 C3839 1.400 . S
C3840 C3843 1.386 . S
H3841 C3857 0.930 . S
H3842 C3858 0.931 . S
C3843 H3831 0.929 . S
C3843 C3837 1.390 . S
C3843 C3840 1.386 . S
C3844 C3839 1.490 . S
C3844 C3846 1.395 . S
C3844 C3847 1.403 . S
H3845 C3851 0.930 . S
C3846 H3832 0.930 . S
C3846 C3844 1.395 . S
C3846 C3849 1.403 . S
C3847 C3844 1.403 . S
C3847 C3848 1.524 . S
C3847 C3851 1.400 . S
C3848 H3833 0.960 . S
C3848 H3834 0.960 . S
C3848 H3835 0.960 . S
C3848 C3847 1.524 . S
C3849 C3846 1.403 . S
C3849 C3850 1.392 . S
C3849 C3853 1.495 . S
C3850 C3849 1.392 . S
C3850 C3851 1.385 . S
C3850 C3852 1.478 . S
C3851 H3845 0.930 . S
C3851 C3847 1.400 . S
C3851 C3850 1.385 . S
C3852 C3850 1.478 . S
C3852 C3854 1.381 . S
C3852 C3858 1.383 . S
C3853 C3849 1.495 . S
C3853 H3859 0.959 . S
C3853 H3860 0.961 . S
C3853 H3861 0.960 . S
C3854 C3852 1.381 . S
C3854 C3855 1.394 . S
C3854 H3862 0.930 . S
C3855 C3854 1.394 . S
C3855 C3856 1.383 . S
C3855 H3863 0.929 . S
C3856 C3855 1.383 . S
C3856 C3857 1.377 . S
C3857 H3841 0.930 . S
C3857 C3856 1.377 . S
C3857 C3858 1.379 . S
C3858 H3842 0.931 . S
C3858 C3852 1.383 . S
C3858 C3857 1.379 . S
H3859 C3853 0.959 . S
H3860 C3853 0.961 . S
H3861 C3853 0.960 . S
H3862 C3854 0.930 . S
H3863 C3855 0.929 . S
H3864 C3872 0.929 . S
H3865 C3874 0.930 . S
H3866 C3876 0.930 . S
H3867 C3879 0.929 . S
H3868 C3882 0.930 . S
H3869 C3884 0.960 . S
H3870 C3884 0.960 . S
H3871 C3884 0.960 . S
C3872 H3864 0.929 . S
C3872 C3873 1.377 . S
C3872 C3874 1.384 . S
C3873 C3872 1.377 . S
C3873 C3879 1.390 . S
C3874 H3865 0.930 . S
C3874 C3872 1.384 . S
C3874 C3875 1.372 . S
C3875 C3874 1.372 . S
C3875 C3876 1.400 . S
C3875 C3880 1.490 . S
C3876 H3866 0.930 . S
C3876 C3875 1.400 . S
C3876 C3879 1.386 . S
H3877 C3893 0.930 . S
H3878 C3894 0.931 . S
C3879 H3867 0.929 . S
C3879 C3873 1.390 . S
C3879 C3876 1.386 . S
C3880 C3875 1.490 . S
C3880 C3882 1.395 . S
C3880 C3883 1.403 . S
H3881 C3887 0.930 . S
C3882 H3868 0.930 . S
C3882 C3880 1.395 . S
C3882 C3885 1.403 1_455 S
C3883 C3880 1.403 . S
C3883 C3884 1.524 . S
C3883 C3887 1.400 1_455 S
C3884 H3869 0.960 . S
C3884 H3870 0.960 . S
C3884 H3871 0.960 . S
C3884 C3883 1.524 . S
C3885 C3882 1.403 1_655 S
C3885 C3886 1.392 . S
C3885 C3889 1.495 . S
C3886 C3885 1.392 . S
C3886 C3887 1.385 . S
C3886 C3888 1.478 . S
C3887 H3881 0.930 . S
C3887 C3883 1.400 1_655 S
C3887 C3886 1.385 . S
C3888 C3886 1.478 . S
C3888 C3890 1.381 . S
C3888 C3894 1.383 . S
C3889 C3885 1.495 . S
C3889 H3895 0.959 . S
C3889 H3896 0.961 . S
C3889 H3897 0.960 . S
C3890 C3888 1.381 . S
C3890 C3891 1.394 . S
C3890 H3898 0.930 . S
C3891 C3890 1.394 . S
C3891 C3892 1.383 . S
C3891 H3899 0.929 . S
C3892 C3891 1.383 . S
C3892 C3893 1.377 . S
C3893 H3877 0.930 . S
C3893 C3892 1.377 . S
C3893 C3894 1.379 . S
C3894 H3878 0.931 . S
C3894 C3888 1.383 . S
C3894 C3893 1.379 . S
H3895 C3889 0.959 . S
H3896 C3889 0.961 . S
H3897 C3889 0.960 . S
H3898 C3890 0.930 . S
H3899 C3891 0.929 . S
H3900 C3908 0.929 . S
H3901 C3910 0.930 . S
H3902 C3912 0.930 1_655 S
H3903 C3915 0.929 . S
H3904 C3918 0.930 . S
H3905 C3920 0.960 . S
H3906 C3920 0.960 . S
H3907 C3920 0.960 . S
C3908 H3900 0.929 . S
C3908 C3909 1.377 . S
C3908 C3910 1.384 . S
C3909 C3908 1.377 . S
C3909 C3915 1.390 . S
C3910 H3901 0.930 . S
C3910 C3908 1.384 . S
C3910 C3911 1.372 . S
C3911 C3910 1.372 . S
C3911 C3912 1.400 . S
C3911 C3916 1.490 . S
C3912 H3902 0.930 1_455 S
C3912 C3911 1.400 . S
C3912 C3915 1.386 . S
H3913 C3929 0.930 . S
H3914 C3930 0.931 . S
C3915 H3903 0.929 . S
C3915 C3909 1.390 . S
C3915 C3912 1.386 . S
C3916 C3911 1.490 . S
C3916 C3918 1.395 . S
C3916 C3919 1.403 1_455 S
H3917 C3923 0.930 . S
C3918 H3904 0.930 . S
C3918 C3916 1.395 . S
C3918 C3921 1.403 . S
C3919 C3916 1.403 1_655 S
C3919 C3920 1.524 . S
C3919 C3923 1.400 . S
C3920 H3905 0.960 . S
C3920 H3906 0.960 . S
C3920 H3907 0.960 . S
C3920 C3919 1.524 . S
C3921 C3918 1.403 . S
C3921 C3922 1.392 1_455 S
C3921 C3925 1.495 . S
C3922 C3921 1.392 1_655 S
C3922 C3923 1.385 . S
C3922 C3924 1.478 . S
C3923 H3917 0.930 . S
C3923 C3919 1.400 . S
C3923 C3922 1.385 . S
C3924 C3922 1.478 . S
C3924 C3926 1.381 . S
C3924 C3930 1.383 . S
C3925 C3921 1.495 . S
C3925 H3931 0.959 . S
C3925 H3932 0.961 . S
C3925 H3933 0.960 . S
C3926 C3924 1.381 . S
C3926 C3927 1.394 . S
C3926 H3934 0.930 1_655 S
C3927 C3926 1.394 . S
C3927 C3928 1.383 . S
C3927 H3935 0.929 . S
C3928 C3927 1.383 . S
C3928 C3929 1.377 . S
C3929 H3913 0.930 . S
C3929 C3928 1.377 . S
C3929 C3930 1.379 . S
C3930 H3914 0.931 . S
C3930 C3924 1.383 . S
C3930 C3929 1.379 . S
H3931 C3925 0.959 . S
H3932 C3925 0.961 . S
H3933 C3925 0.960 . S
H3934 C3926 0.930 1_455 S
H3935 C3927 0.929 . S
C1065 C18 1.299 . S
C1084 C249 1.282 . S
C1101 C51 1.306 . S
C1120 C150 1.319 . S
C1137 C84 1.305 . S
C1156 C183 1.320 . S
C1173 C117 1.306 . S
C1192 C216 1.300 . S
C1209 C513 1.301 . S
C1228 C282 1.311 . S
C1245 C315 1.305 . S
C1264 C414 1.294 . S
C1281 C447 1.305 . S
C1300 C348 1.290 . S
C1317 C381 1.307 . S
C1336 C480 1.280 . S
C1353 C546 1.299 . S
C1372 C777 1.288 . S
C1389 C678 1.302 . S
C1408 C579 1.314 . S
C1425 C612 1.301 . S
C1444 C711 1.311 . S
C1461 C645 1.306 . S
C1480 C744 1.298 . S
C1497 C810 1.306 . S
C1516 C1041 1.285 . S
C1533 C843 1.303 . S
C1552 C942 1.296 . S
C1569 C975 1.302 . S
C1588 C876 1.301 . S
C1605 C1008 1.305 . S
C1624 C909 1.287 . S
C1641 C205 1.490 . S
C1660 C7 1.479 . S
C1677 C40 1.483 . S
C1696 C238 1.465 . S
C1713 C73 1.491 . S
C1732 C139 1.490 . S
C1749 C106 1.486 . S
C1768 C172 1.503 . S
C1785 C271 1.490 . S
C1804 C469 1.486 . S
C1821 C502 1.482 . S
C1840 C304 1.465 . S
C1857 C403 1.487 . S
C1876 C337 1.468 . S
C1893 C436 1.483 . S
C1912 C370 1.480 . S
C1929 C535 1.491 . S
C1948 C733 1.478 . S
C1965 C766 1.483 . S
C1984 C568 1.488 . S
C2001 C667 1.488 . S
C2020 C601 1.465 . S
C2037 C634 1.487 . S
C2056 C700 1.464 . S
C2073 C997 1.491 . S
C2092 C799 1.492 . S
C2109 C832 1.488 . S
C2128 C1030 1.474 . S
C2145 C931 1.483 . S
C2164 C865 1.477 . S
C2181 C964 1.484 . S
C2200 C898 1.462 . S
C2217 N926 1.270 . S
C2236 N13 1.277 . S
C2253 N431 1.267 . S
C2272 N46 1.255 . S
C2289 N992 1.269 . S
C2308 N79 1.283 . S
C2325 N112 1.268 . S
C2344 N497 1.250 . S
C2361 N794 1.263 . S
C2380 N145 1.275 . S
C2397 N299 1.267 . S
C2416 N178 1.254 . S
C2433 N860 1.260 . S
C2452 N211 1.254 . S
C2469 N244 1.269 . S
C2488 N365 1.283 . S
C2505 N277 1.269 . S
C2524 N662 1.247 . S
C2541 N310 1.270 . S
C2560 N167 1.282 . S
C2577 N343 1.264 . S
C2596 N728 1.242 . S
C2613 N233 1.264 . S
C2632 N376 1.243 . S
C2649 N530 1.270 . S
C2668 N409 1.271 . S
C2685 N442 1.264 . S
C2704 N35 1.243 . S
C2721 N475 1.267 . S
C2740 N596 1.242 . S
C2757 N508 1.263 . S
C2776 N101 1.249 . S
C2793 N398 1.266 . S
C2812 N541 1.250 . S
C2829 N574 1.268 . S
C2848 N959 1.281 . S
C2865 N464 1.261 . S
C2884 N607 1.258 . S
C2901 N640 1.269 . S
C2920 N1025 1.284 . S
C2937 N673 1.263 . S
C2956 N266 1.261 . S
C2973 N706 1.271 . S
C2992 N827 1.283 . S
C3009 N332 1.261 . S
C3028 N739 1.244 . S
C3045 N772 1.264 . S
C3064 N893 1.264 . S
C3081 N134 1.268 . S
C3100 N805 1.283 . S
C3117 N695 1.260 . S
C3136 N838 1.254 . S
C3153 N200 1.261 . S
C3172 N871 1.270 . S
C3189 N761 1.270 . S
C3208 N904 1.266 . S
C3225 N2 1.266 . S
C3244 N937 1.286 . S
C3261 N563 1.266 . S
C3280 N970 1.246 . S
C3297 N1003 1.271 . S
C3316 N68 1.276 . S
C3333 N629 1.269 . S
C3352 N1036 1.260 . S
C3369 C615 0.733 . S
C3388 C21 0.739 . S
C3405 C648 0.731 . S
C3424 C54 0.750 . S
C3441 C87 0.731 . S
C3460 C549 0.751 . S
C3477 C120 0.735 . S
C3496 C582 0.733 . S
C3513 C747 0.735 . S
C3532 C153 0.731 . S
C3549 C186 0.737 . S
C3568 C780 0.719 . S
C3585 C681 0.737 . S
C3604 C219 0.725 . S
C3621 C714 0.734 . S
C3640 C252 0.735 . S
C3657 C879 0.738 . S
C3676 C285 0.743 . S
C3693 C912 0.737 . S
C3712 C318 0.726 . S
C3729 C351 0.738 . S
C3748 C813 0.744 . S
C3765 C384 0.738 . S
C3784 C846 0.746 . S
C3801 C417 0.735 . S
C3820 C1011 0.719 . S
C3837 C450 0.731 . S
C3856 C1044 0.720 . S
C3873 C945 0.731 . S
C3892 C483 0.725 . S
C3909 C978 0.731 . S
C3928 C516 0.725 . S
