# Generated by pormake.
# Topology ukr, (4)-cn, num edge types: 1
# Building blocks:
#     Node 0, Type 0, BuildingBlock: CEKHIL_clean_sbu_0, # of connection points: 4
#     Node 1, Type 0, BuildingBlock: CEKHIL_clean_sbu_0, # of connection points: 4
#     Node 2, Type 0, BuildingBlock: CEKHIL_clean_sbu_0, # of connection points: 4
#     Node 3, Type 0, BuildingBlock: CEKHIL_clean_sbu_0, # of connection points: 4
#     Node 4, Type 0, BuildingBlock: CEKHIL_clean_sbu_0, # of connection points: 4
#     Node 5, Type 0, BuildingBlock: CEKHIL_clean_sbu_0, # of connection points: 4
#     Node 6, Type 0, BuildingBlock: CEKHIL_clean_sbu_0, # of connection points: 4
#     Node 7, Type 0, BuildingBlock: CEKHIL_clean_sbu_0, # of connection points: 4
#     Node 8, Type 0, BuildingBlock: CEKHIL_clean_sbu_0, # of connection points: 4
#     Node 9, Type 0, BuildingBlock: CEKHIL_clean_sbu_0, # of connection points: 4
#     Node 10, Type 0, BuildingBlock: CEKHIL_clean_sbu_0, # of connection points: 4
#     Node 11, Type 0, BuildingBlock: CEKHIL_clean_sbu_0, # of connection points: 4
#     Node 12, Type 0, BuildingBlock: CEKHIL_clean_sbu_0, # of connection points: 4
#     Node 13, Type 0, BuildingBlock: CEKHIL_clean_sbu_0, # of connection points: 4
#     Node 14, Type 0, BuildingBlock: CEKHIL_clean_sbu_0, # of connection points: 4
#     Node 15, Type 0, BuildingBlock: CEKHIL_clean_sbu_0, # of connection points: 4
#     Node 16, Type 0, BuildingBlock: CEKHIL_clean_sbu_0, # of connection points: 4
#     Node 17, Type 0, BuildingBlock: CEKHIL_clean_sbu_0, # of connection points: 4
#     Node 18, Type 0, BuildingBlock: CEKHIL_clean_sbu_0, # of connection points: 4
#     Node 19, Type 0, BuildingBlock: CEKHIL_clean_sbu_0, # of connection points: 4
#     Node 20, Type 0, BuildingBlock: CEKHIL_clean_sbu_0, # of connection points: 4
#     Node 21, Type 0, BuildingBlock: CEKHIL_clean_sbu_0, # of connection points: 4
#     Node 22, Type 0, BuildingBlock: CEKHIL_clean_sbu_0, # of connection points: 4
#     Node 23, Type 0, BuildingBlock: CEKHIL_clean_sbu_0, # of connection points: 4
#     Node 24, Type 0, BuildingBlock: CEKHIL_clean_sbu_0, # of connection points: 4
#     Node 25, Type 0, BuildingBlock: CEKHIL_clean_sbu_0, # of connection points: 4
#     Node 26, Type 0, BuildingBlock: CEKHIL_clean_sbu_0, # of connection points: 4
#     Node 27, Type 0, BuildingBlock: CEKHIL_clean_sbu_0, # of connection points: 4
#     Node 28, Type 0, BuildingBlock: CEKHIL_clean_sbu_0, # of connection points: 4
#     Node 29, Type 0, BuildingBlock: CEKHIL_clean_sbu_0, # of connection points: 4
#     Node 30, Type 0, BuildingBlock: CEKHIL_clean_sbu_0, # of connection points: 4
#     Node 31, Type 0, BuildingBlock: CEKHIL_clean_sbu_0, # of connection points: 4
#     Node 32, Type 0, BuildingBlock: CEKHIL_clean_sbu_0, # of connection points: 4
#     Node 33, Type 0, BuildingBlock: CEKHIL_clean_sbu_0, # of connection points: 4
#     Node 34, Type 0, BuildingBlock: CEKHIL_clean_sbu_0, # of connection points: 4
#     Node 35, Type 0, BuildingBlock: CEKHIL_clean_sbu_0, # of connection points: 4
#     Node 36, Type 0, BuildingBlock: CEKHIL_clean_sbu_0, # of connection points: 4
#     Node 37, Type 0, BuildingBlock: CEKHIL_clean_sbu_0, # of connection points: 4
#     Node 38, Type 0, BuildingBlock: CEKHIL_clean_sbu_0, # of connection points: 4
#     Node 39, Type 0, BuildingBlock: CEKHIL_clean_sbu_0, # of connection points: 4
#     Node 40, Type 0, BuildingBlock: CEKHIL_clean_sbu_0, # of connection points: 4
#     Node 41, Type 0, BuildingBlock: CEKHIL_clean_sbu_0, # of connection points: 4
#     Node 42, Type 0, BuildingBlock: CEKHIL_clean_sbu_0, # of connection points: 4
#     Node 43, Type 0, BuildingBlock: CEKHIL_clean_sbu_0, # of connection points: 4
#     Node 44, Type 0, BuildingBlock: CEKHIL_clean_sbu_0, # of connection points: 4
#     Node 45, Type 0, BuildingBlock: CEKHIL_clean_sbu_0, # of connection points: 4
#     Node 46, Type 0, BuildingBlock: CEKHIL_clean_sbu_0, # of connection points: 4
#     Node 47, Type 0, BuildingBlock: CEKHIL_clean_sbu_0, # of connection points: 4
#     Edge 48, Type (0, 0), BuildingBlock: CIFDUS_clean_linker_0, # of connection points: 2
#     Edge 49, Type (0, 0), BuildingBlock: CIFDUS_clean_linker_0, # of connection points: 2
#     Edge 50, Type (0, 0), BuildingBlock: CIFDUS_clean_linker_0, # of connection points: 2
#     Edge 51, Type (0, 0), BuildingBlock: CIFDUS_clean_linker_0, # of connection points: 2
#     Edge 52, Type (0, 0), BuildingBlock: CIFDUS_clean_linker_0, # of connection points: 2
#     Edge 53, Type (0, 0), BuildingBlock: CIFDUS_clean_linker_0, # of connection points: 2
#     Edge 54, Type (0, 0), BuildingBlock: CIFDUS_clean_linker_0, # of connection points: 2
#     Edge 55, Type (0, 0), BuildingBlock: CIFDUS_clean_linker_0, # of connection points: 2
#     Edge 56, Type (0, 0), BuildingBlock: CIFDUS_clean_linker_0, # of connection points: 2
#     Edge 57, Type (0, 0), BuildingBlock: CIFDUS_clean_linker_0, # of connection points: 2
#     Edge 58, Type (0, 0), BuildingBlock: CIFDUS_clean_linker_0, # of connection points: 2
#     Edge 59, Type (0, 0), BuildingBlock: CIFDUS_clean_linker_0, # of connection points: 2
#     Edge 60, Type (0, 0), BuildingBlock: CIFDUS_clean_linker_0, # of connection points: 2
#     Edge 61, Type (0, 0), BuildingBlock: CIFDUS_clean_linker_0, # of connection points: 2
#     Edge 62, Type (0, 0), BuildingBlock: CIFDUS_clean_linker_0, # of connection points: 2
#     Edge 63, Type (0, 0), BuildingBlock: CIFDUS_clean_linker_0, # of connection points: 2
#     Edge 64, Type (0, 0), BuildingBlock: CIFDUS_clean_linker_0, # of connection points: 2
#     Edge 65, Type (0, 0), BuildingBlock: CIFDUS_clean_linker_0, # of connection points: 2
#     Edge 66, Type (0, 0), BuildingBlock: CIFDUS_clean_linker_0, # of connection points: 2
#     Edge 67, Type (0, 0), BuildingBlock: CIFDUS_clean_linker_0, # of connection points: 2
#     Edge 68, Type (0, 0), BuildingBlock: CIFDUS_clean_linker_0, # of connection points: 2
#     Edge 69, Type (0, 0), BuildingBlock: CIFDUS_clean_linker_0, # of connection points: 2
#     Edge 70, Type (0, 0), BuildingBlock: CIFDUS_clean_linker_0, # of connection points: 2
#     Edge 71, Type (0, 0), BuildingBlock: CIFDUS_clean_linker_0, # of connection points: 2
#     Edge 72, Type (0, 0), BuildingBlock: CIFDUS_clean_linker_0, # of connection points: 2
#     Edge 73, Type (0, 0), BuildingBlock: CIFDUS_clean_linker_0, # of connection points: 2
#     Edge 74, Type (0, 0), BuildingBlock: CIFDUS_clean_linker_0, # of connection points: 2
#     Edge 75, Type (0, 0), BuildingBlock: CIFDUS_clean_linker_0, # of connection points: 2
#     Edge 76, Type (0, 0), BuildingBlock: CIFDUS_clean_linker_0, # of connection points: 2
#     Edge 77, Type (0, 0), BuildingBlock: CIFDUS_clean_linker_0, # of connection points: 2
#     Edge 78, Type (0, 0), BuildingBlock: CIFDUS_clean_linker_0, # of connection points: 2
#     Edge 79, Type (0, 0), BuildingBlock: CIFDUS_clean_linker_0, # of connection points: 2
#     Edge 80, Type (0, 0), BuildingBlock: CIFDUS_clean_linker_0, # of connection points: 2
#     Edge 81, Type (0, 0), BuildingBlock: CIFDUS_clean_linker_0, # of connection points: 2
#     Edge 82, Type (0, 0), BuildingBlock: CIFDUS_clean_linker_0, # of connection points: 2
#     Edge 83, Type (0, 0), BuildingBlock: CIFDUS_clean_linker_0, # of connection points: 2
#     Edge 84, Type (0, 0), BuildingBlock: CIFDUS_clean_linker_0, # of connection points: 2
#     Edge 85, Type (0, 0), BuildingBlock: CIFDUS_clean_linker_0, # of connection points: 2
#     Edge 86, Type (0, 0), BuildingBlock: CIFDUS_clean_linker_0, # of connection points: 2
#     Edge 87, Type (0, 0), BuildingBlock: CIFDUS_clean_linker_0, # of connection points: 2
#     Edge 88, Type (0, 0), BuildingBlock: CIFDUS_clean_linker_0, # of connection points: 2
#     Edge 89, Type (0, 0), BuildingBlock: CIFDUS_clean_linker_0, # of connection points: 2
#     Edge 90, Type (0, 0), BuildingBlock: CIFDUS_clean_linker_0, # of connection points: 2
#     Edge 91, Type (0, 0), BuildingBlock: CIFDUS_clean_linker_0, # of connection points: 2
#     Edge 92, Type (0, 0), BuildingBlock: CIFDUS_clean_linker_0, # of connection points: 2
#     Edge 93, Type (0, 0), BuildingBlock: CIFDUS_clean_linker_0, # of connection points: 2
#     Edge 94, Type (0, 0), BuildingBlock: CIFDUS_clean_linker_0, # of connection points: 2
#     Edge 95, Type (0, 0), BuildingBlock: CIFDUS_clean_linker_0, # of connection points: 2
#     Edge 96, Type (0, 0), BuildingBlock: CIFDUS_clean_linker_0, # of connection points: 2
#     Edge 97, Type (0, 0), BuildingBlock: CIFDUS_clean_linker_0, # of connection points: 2
#     Edge 98, Type (0, 0), BuildingBlock: CIFDUS_clean_linker_0, # of connection points: 2
#     Edge 99, Type (0, 0), BuildingBlock: CIFDUS_clean_linker_0, # of connection points: 2
#     Edge 100, Type (0, 0), BuildingBlock: CIFDUS_clean_linker_0, # of connection points: 2
#     Edge 101, Type (0, 0), BuildingBlock: CIFDUS_clean_linker_0, # of connection points: 2
#     Edge 102, Type (0, 0), BuildingBlock: CIFDUS_clean_linker_0, # of connection points: 2
#     Edge 103, Type (0, 0), BuildingBlock: CIFDUS_clean_linker_0, # of connection points: 2
#     Edge 104, Type (0, 0), BuildingBlock: CIFDUS_clean_linker_0, # of connection points: 2
#     Edge 105, Type (0, 0), BuildingBlock: CIFDUS_clean_linker_0, # of connection points: 2
#     Edge 106, Type (0, 0), BuildingBlock: CIFDUS_clean_linker_0, # of connection points: 2
#     Edge 107, Type (0, 0), BuildingBlock: CIFDUS_clean_linker_0, # of connection points: 2
#     Edge 108, Type (0, 0), BuildingBlock: CIFDUS_clean_linker_0, # of connection points: 2
#     Edge 109, Type (0, 0), BuildingBlock: CIFDUS_clean_linker_0, # of connection points: 2
#     Edge 110, Type (0, 0), BuildingBlock: CIFDUS_clean_linker_0, # of connection points: 2
#     Edge 111, Type (0, 0), BuildingBlock: CIFDUS_clean_linker_0, # of connection points: 2
#     Edge 112, Type (0, 0), BuildingBlock: CIFDUS_clean_linker_0, # of connection points: 2
#     Edge 113, Type (0, 0), BuildingBlock: CIFDUS_clean_linker_0, # of connection points: 2
#     Edge 114, Type (0, 0), BuildingBlock: CIFDUS_clean_linker_0, # of connection points: 2
#     Edge 115, Type (0, 0), BuildingBlock: CIFDUS_clean_linker_0, # of connection points: 2
#     Edge 116, Type (0, 0), BuildingBlock: CIFDUS_clean_linker_0, # of connection points: 2
#     Edge 117, Type (0, 0), BuildingBlock: CIFDUS_clean_linker_0, # of connection points: 2
#     Edge 118, Type (0, 0), BuildingBlock: CIFDUS_clean_linker_0, # of connection points: 2
#     Edge 119, Type (0, 0), BuildingBlock: CIFDUS_clean_linker_0, # of connection points: 2
#     Edge 120, Type (0, 0), BuildingBlock: CIFDUS_clean_linker_0, # of connection points: 2
#     Edge 121, Type (0, 0), BuildingBlock: CIFDUS_clean_linker_0, # of connection points: 2
#     Edge 122, Type (0, 0), BuildingBlock: CIFDUS_clean_linker_0, # of connection points: 2
#     Edge 123, Type (0, 0), BuildingBlock: CIFDUS_clean_linker_0, # of connection points: 2
#     Edge 124, Type (0, 0), BuildingBlock: CIFDUS_clean_linker_0, # of connection points: 2
#     Edge 125, Type (0, 0), BuildingBlock: CIFDUS_clean_linker_0, # of connection points: 2
#     Edge 126, Type (0, 0), BuildingBlock: CIFDUS_clean_linker_0, # of connection points: 2
#     Edge 127, Type (0, 0), BuildingBlock: CIFDUS_clean_linker_0, # of connection points: 2
#     Edge 128, Type (0, 0), BuildingBlock: CIFDUS_clean_linker_0, # of connection points: 2
#     Edge 129, Type (0, 0), BuildingBlock: CIFDUS_clean_linker_0, # of connection points: 2
#     Edge 130, Type (0, 0), BuildingBlock: CIFDUS_clean_linker_0, # of connection points: 2
#     Edge 131, Type (0, 0), BuildingBlock: CIFDUS_clean_linker_0, # of connection points: 2
#     Edge 132, Type (0, 0), BuildingBlock: CIFDUS_clean_linker_0, # of connection points: 2
#     Edge 133, Type (0, 0), BuildingBlock: CIFDUS_clean_linker_0, # of connection points: 2
#     Edge 134, Type (0, 0), BuildingBlock: CIFDUS_clean_linker_0, # of connection points: 2
#     Edge 135, Type (0, 0), BuildingBlock: CIFDUS_clean_linker_0, # of connection points: 2
#     Edge 136, Type (0, 0), BuildingBlock: CIFDUS_clean_linker_0, # of connection points: 2
#     Edge 137, Type (0, 0), BuildingBlock: CIFDUS_clean_linker_0, # of connection points: 2
#     Edge 138, Type (0, 0), BuildingBlock: CIFDUS_clean_linker_0, # of connection points: 2
#     Edge 139, Type (0, 0), BuildingBlock: CIFDUS_clean_linker_0, # of connection points: 2
#     Edge 140, Type (0, 0), BuildingBlock: CIFDUS_clean_linker_0, # of connection points: 2
#     Edge 141, Type (0, 0), BuildingBlock: CIFDUS_clean_linker_0, # of connection points: 2
#     Edge 142, Type (0, 0), BuildingBlock: CIFDUS_clean_linker_0, # of connection points: 2
#     Edge 143, Type (0, 0), BuildingBlock: CIFDUS_clean_linker_0, # of connection points: 2
# Relax obj value: 0.465
# Max RMSD: 0.182
# Mean RMSD: 0.182
data_MOF--net-ukr--node1-CEKHIL_clean_sbu_0--edge1-CIFDUS_clean_linker_0
_symmetry_space_group_name_H-M    P1
_symmetry_Int_Tables_number       1
_symmetry_cell_setting            triclinic
loop_
_symmetry_equiv_pos_as_xyz
'x, y, z'
_cell_length_a     59.760794
_cell_length_b     59.707624
_cell_length_c     59.712917
_cell_angle_alpha  90.039298
_cell_angle_beta   89.968371
_cell_angle_gamma 89.94837
loop_
_atom_site_label
_atom_site_type_symbol
_atom_site_fract_x
_atom_site_fract_y
_atom_site_fract_z
_atom_type_partial_charge
Co0 Co 0.0952 0.25387 0.20546 0.0
O1 O 0.06691 0.26455 0.21577 0.0
O2 O 0.08109 0.27087 0.18191 0.0
C3 C 0.09178 0.21833 0.21766 0.0
O4 O 0.12331 0.24533 0.18872 0.0
Co5 Co 0.13115 0.23656 0.23884 0.0
O6 O 0.14629 0.22562 0.21112 0.0
C7 C 0.12208 0.28494 0.23494 0.0
C8 C 0.06485 0.27368 0.19613 0.0
C9 C 0.14081 0.23331 0.19197 0.0
O10 O 0.11017 0.28153 0.21736 0.0
O11 O 0.1299 0.26916 0.24718 0.0
O12 O 0.08281 0.22423 0.19873 0.0
O13 O 0.10033 0.23437 0.22931 0.0
Co14 Co 0.22667 0.59902 0.69894 0.0
O15 O 0.22793 0.57187 0.71572 0.0
O16 O 0.22362 0.57387 0.67882 0.0
C17 C 0.25556 0.6167 0.71542 0.0
O18 O 0.22537 0.62434 0.67613 0.0
Co19 Co 0.21551 0.6431 0.72446 0.0
O20 O 0.21909 0.65688 0.69442 0.0
C21 C 0.18298 0.60713 0.72109 0.0
C22 C 0.22482 0.56161 0.6968 0.0
C23 C 0.22278 0.64574 0.67654 0.0
O24 O 0.1932 0.59996 0.70356 0.0
O25 O 0.19166 0.62165 0.7342 0.0
O26 O 0.25946 0.60216 0.69962 0.0
O27 O 0.23517 0.61761 0.72223 0.0
Co28 Co 0.9089 0.72546 0.20921 0.0
O29 O 0.93797 0.71806 0.21993 0.0
O30 O 0.92387 0.70683 0.1873 0.0
C31 C 0.90929 0.76239 0.21661 0.0
O32 O 0.87975 0.73059 0.19265 0.0
Co33 Co 0.87372 0.74294 0.24344 0.0
O34 O 0.85472 0.74624 0.21629 0.0
C35 C 0.88669 0.69576 0.24384 0.0
C36 C 0.94042 0.70687 0.20146 0.0
C37 C 0.86053 0.73925 0.19694 0.0
O38 O 0.89616 0.69823 0.22464 0.0
O39 O 0.87967 0.71226 0.25558 0.0
O40 O 0.91887 0.75482 0.19858 0.0
O41 O 0.9031 0.74731 0.23075 0.0
Co42 Co 0.75361 0.41332 0.70633 0.0
O43 O 0.76573 0.44167 0.71443 0.0
O44 O 0.7702 0.42532 0.68126 0.0
C45 C 0.71858 0.41865 0.71906 0.0
O46 O 0.74278 0.38442 0.69201 0.0
Co47 Co 0.73709 0.38108 0.7436 0.0
O48 O 0.72324 0.36509 0.71781 0.0
C49 C 0.78532 0.38735 0.73644 0.0
C50 C 0.77401 0.44232 0.69435 0.0
C51 C 0.72955 0.3684 0.69767 0.0
O52 O 0.78121 0.39799 0.71817 0.0
O53 O 0.77002 0.38122 0.75013 0.0
O54 O 0.72446 0.42664 0.69969 0.0
O55 O 0.73475 0.41082 0.73106 0.0
Co56 Co 0.09174 0.72448 0.77731 0.0
O57 O 0.06203 0.72037 0.76624 0.0
O58 O 0.07457 0.70842 0.79927 0.0
C59 C 0.09594 0.76092 0.76822 0.0
O60 O 0.12066 0.72604 0.79492 0.0
Co61 Co 0.13117 0.73706 0.74591 0.0
O62 O 0.14598 0.74521 0.77475 0.0
C63 C 0.10939 0.69286 0.74272 0.0
C64 C 0.05835 0.70972 0.78488 0.0
C65 C 0.13905 0.73696 0.79318 0.0
O66 O 0.10078 0.69567 0.76226 0.0
O67 O 0.1201 0.7083 0.73239 0.0
O68 O 0.08532 0.75549 0.78648 0.0
O69 O 0.10112 0.74439 0.75537 0.0
Co70 Co 0.75299 0.6029 0.30759 0.0
O71 O 0.76049 0.57675 0.29077 0.0
O72 O 0.76301 0.57971 0.32776 0.0
C73 C 0.72033 0.61003 0.28995 0.0
O74 O 0.74613 0.62697 0.33063 0.0
Co75 Co 0.74771 0.64913 0.28389 0.0
O76 O 0.73318 0.65752 0.31272 0.0
C77 C 0.79231 0.62842 0.28963 0.0
C78 C 0.76556 0.56759 0.30981 0.0
C79 C 0.73657 0.64624 0.33052 0.0
O80 O 0.7845 0.6143 0.30385 0.0
O81 O 0.78009 0.64196 0.27837 0.0
O82 O 0.72091 0.59549 0.30616 0.0
O83 O 0.73943 0.61797 0.28401 0.0
Co84 Co 0.89775 0.25871 0.78319 0.0
O85 O 0.92306 0.27061 0.76781 0.0
O86 O 0.91927 0.26954 0.80479 0.0
C87 C 0.89486 0.22678 0.76327 0.0
O88 O 0.87415 0.24676 0.80467 0.0
Co89 Co 0.85335 0.25016 0.7572 0.0
O90 O 0.84654 0.23155 0.78398 0.0
C91 C 0.86795 0.29616 0.76759 0.0
C92 C 0.93143 0.27466 0.78744 0.0
C93 C 0.85662 0.23441 0.80259 0.0
O94 O 0.88251 0.28887 0.78167 0.0
O95 O 0.85655 0.28344 0.75466 0.0
O96 O 0.9091 0.228 0.77968 0.0
O97 O 0.88519 0.24535 0.75815 0.0
Co98 Co 0.23764 0.40828 0.26964 0.0
O99 O 0.22493 0.43526 0.25811 0.0
O100 O 0.21806 0.42114 0.29188 0.0
C101 C 0.2735 0.41425 0.25976 0.0
O102 O 0.24808 0.38131 0.28736 0.0
Co103 Co 0.25931 0.37367 0.23745 0.0
O104 O 0.27019 0.35973 0.26576 0.0
C105 C 0.21042 0.37832 0.23912 0.0
C106 C 0.2145 0.43677 0.27714 0.0
C107 C 0.2617 0.36485 0.2847 0.0
O108 O 0.21215 0.3906 0.2567 0.0
O109 O 0.22726 0.37184 0.22754 0.0
O110 O 0.26547 0.4235 0.27778 0.0
O111 O 0.2589 0.40461 0.24708 0.0
Co112 Co 0.20098 0.08851 0.26316 0.0
O113 O 0.21658 0.064 0.27661 0.0
O114 O 0.17964 0.06697 0.27405 0.0
C115 C 0.22244 0.09046 0.23213 0.0
O116 O 0.17907 0.11083 0.24975 0.0
Co117 Co 0.22514 0.13357 0.25292 0.0
O118 O 0.19865 0.13847 0.2333 0.0
C119 C 0.21296 0.1213 0.29942 0.0
C120 C 0.19699 0.05533 0.2802 0.0
C121 C 0.18045 0.12787 0.23668 0.0
O122 O 0.20064 0.10502 0.29261 0.0
O123 O 0.22545 0.133 0.28651 0.0
O124 O 0.20623 0.07599 0.23315 0.0
O125 O 0.22612 0.10147 0.25029 0.0
Co126 Co 0.403 0.71682 0.74807 0.0
O127 O 0.43232 0.72819 0.75303 0.0
O128 O 0.42194 0.6929 0.75879 0.0
C129 C 0.39684 0.73205 0.71425 0.0
O130 O 0.3744 0.69915 0.74391 0.0
Co131 Co 0.36352 0.75052 0.74476 0.0
O132 O 0.34586 0.72311 0.7379 0.0
C133 C 0.3842 0.74183 0.78816 0.0
C134 C 0.43756 0.70806 0.75936 0.0
C135 C 0.35381 0.70331 0.73933 0.0
O136 O 0.3943 0.72476 0.77974 0.0
O137 O 0.37368 0.75616 0.77622 0.0
O138 O 0.40837 0.71366 0.71593 0.0
O139 O 0.39238 0.74196 0.73291 0.0
Co140 Co 0.79362 0.89178 0.26438 0.0
O141 O 0.77636 0.91791 0.27104 0.0
O142 O 0.81335 0.91552 0.27375 0.0
C143 C 0.77608 0.88338 0.23201 0.0
O144 O 0.81707 0.86791 0.25845 0.0
Co145 Co 0.77097 0.84493 0.26021 0.0
O146 O 0.80001 0.83664 0.24612 0.0
C147 C 0.77647 0.86678 0.3044 0.0
C148 C 0.79524 0.92744 0.27598 0.0
C149 C 0.81751 0.84835 0.24948 0.0
O150 O 0.79004 0.88134 0.29625 0.0
O151 O 0.76573 0.85252 0.29254 0.0
O152 O 0.79214 0.89808 0.23201 0.0
O153 O 0.77034 0.87592 0.25136 0.0
Co154 Co 0.59405 0.30365 0.77589 0.0
O155 O 0.56912 0.2857 0.78434 0.0
O156 O 0.5717 0.32248 0.78963 0.0
C157 C 0.59794 0.28901 0.7413 0.0
O158 O 0.61698 0.3276 0.76888 0.0
Co159 Co 0.63966 0.28128 0.7636 0.0
O160 O 0.64658 0.31164 0.75178 0.0
C161 C 0.62363 0.28281 0.81051 0.0
C162 C 0.56012 0.30413 0.79153 0.0
C163 C 0.6354 0.32877 0.75788 0.0
O164 O 0.60863 0.29745 0.80563 0.0
O165 O 0.63576 0.27282 0.79589 0.0
O166 O 0.5835 0.30495 0.74468 0.0
O167 O 0.60784 0.28159 0.75892 0.0
Co168 Co 0.21587 0.89128 0.7506 0.0
O169 O 0.23116 0.91941 0.7518 0.0
O170 O 0.19634 0.91456 0.73973 0.0
C171 C 0.22563 0.87874 0.78484 0.0
O172 O 0.19437 0.86512 0.74755 0.0
Co173 Co 0.24327 0.84709 0.75208 0.0
O174 O 0.21346 0.83257 0.74905 0.0
C175 C 0.24578 0.87608 0.71292 0.0
C176 C 0.21306 0.92802 0.74335 0.0
C177 C 0.19529 0.84364 0.74716 0.0
O178 O 0.22781 0.88607 0.71936 0.0
O179 O 0.25663 0.86256 0.72549 0.0
O180 O 0.20882 0.89243 0.78273 0.0
O181 O 0.23702 0.8752 0.76689 0.0
Co182 Co 0.58167 0.71031 0.24217 0.0
O183 O 0.55221 0.72236 0.24032 0.0
O184 O 0.56173 0.68775 0.2304 0.0
C185 C 0.59042 0.72197 0.27667 0.0
O186 O 0.61065 0.69242 0.2428 0.0
Co187 Co 0.62074 0.7445 0.2453 0.0
O188 O 0.63885 0.7168 0.24905 0.0
C189 C 0.59749 0.73855 0.20277 0.0
C190 C 0.54633 0.70311 0.23219 0.0
C191 C 0.63137 0.69695 0.24651 0.0
O192 O 0.58807 0.72098 0.21081 0.0
O193 O 0.60895 0.75208 0.2148 0.0
O194 O 0.57835 0.70406 0.27403 0.0
O195 O 0.59343 0.73386 0.25889 0.0
Co196 Co 0.78425 0.09358 0.72632 0.0
O197 O 0.77176 0.06495 0.71989 0.0
O198 O 0.80633 0.07567 0.71102 0.0
C199 C 0.77311 0.09706 0.76218 0.0
O200 O 0.80265 0.12164 0.73061 0.0
Co201 Co 0.75142 0.13273 0.73694 0.0
O202 O 0.77964 0.1501 0.74015 0.0
C203 C 0.75494 0.11554 0.69132 0.0
C204 C 0.79079 0.06044 0.71037 0.0
C205 C 0.79904 0.1421 0.73612 0.0
O206 O 0.77296 0.10514 0.69673 0.0
O207 O 0.74202 0.12475 0.70572 0.0
O208 O 0.7908 0.08526 0.75742 0.0
O209 O 0.76134 0.10311 0.74514 0.0
Co210 Co 0.39275 0.28848 0.22042 0.0
O211 O 0.41552 0.26617 0.2169 0.0
O212 O 0.42027 0.30269 0.21174 0.0
C213 C 0.37889 0.27551 0.25313 0.0
O214 O 0.37357 0.31649 0.22319 0.0
Co215 Co 0.34226 0.27531 0.22187 0.0
O216 O 0.33876 0.3063 0.23342 0.0
C217 C 0.3675 0.2742 0.17925 0.0
C218 C 0.42873 0.28261 0.21163 0.0
C219 C 0.35382 0.32107 0.23036 0.0
O220 O 0.38407 0.28472 0.188 0.0
O221 O 0.35049 0.26736 0.19034 0.0
O222 O 0.39661 0.28815 0.25315 0.0
O223 O 0.37174 0.2697 0.23365 0.0
Co224 Co 0.26108 0.18541 0.08945 0.0
O225 O 0.26025 0.19638 0.05973 0.0
O226 O 0.27527 0.16375 0.06979 0.0
C227 C 0.2256 0.19322 0.09885 0.0
O228 O 0.2639 0.16906 0.11907 0.0
Co229 Co 0.25421 0.22076 0.12725 0.0
O230 O 0.25576 0.19374 0.14663 0.0
C231 C 0.29537 0.22071 0.1011 0.0
C232 C 0.27101 0.17837 0.05417 0.0
C233 C 0.26067 0.17408 0.13977 0.0
O234 O 0.29078 0.20083 0.09423 0.0
O235 O 0.28117 0.23293 0.11151 0.0
O236 O 0.23004 0.1749 0.08789 0.0
O237 O 0.24194 0.2071 0.10073 0.0
Co238 Co 0.25903 0.74996 0.8968 0.0
O239 O 0.2658 0.73796 0.92571 0.0
O240 O 0.27164 0.77319 0.91524 0.0
C241 C 0.22436 0.73574 0.89288 0.0
O242 O 0.2534 0.76864 0.86907 0.0
Co243 Co 0.251 0.71852 0.8562 0.0
O244 O 0.23949 0.74647 0.84201 0.0
C245 C 0.29654 0.72487 0.87358 0.0
C246 C 0.27273 0.75796 0.93075 0.0
C247 C 0.24397 0.7658 0.84995 0.0
O248 O 0.28967 0.7413 0.8857 0.0
O249 O 0.28333 0.71208 0.86257 0.0
O250 O 0.22751 0.75377 0.90468 0.0
O251 O 0.24235 0.72553 0.88662 0.0
Co252 Co 0.69019 0.77112 0.41582 0.0
O253 O 0.69806 0.77797 0.44588 0.0
O254 O 0.66736 0.79026 0.42871 0.0
C255 C 0.69689 0.73397 0.41724 0.0
O256 O 0.67657 0.76693 0.38507 0.0
Co257 Co 0.72625 0.75187 0.38338 0.0
O258 O 0.6996 0.74525 0.36443 0.0
C259 C 0.72698 0.79966 0.39581 0.0
C260 C 0.67974 0.78963 0.4466 0.0
C261 C 0.68095 0.75515 0.3676 0.0
O262 O 0.70755 0.79788 0.40492 0.0
O263 O 0.7382 0.78282 0.38863 0.0
O264 O 0.67799 0.74192 0.42458 0.0
O265 O 0.71166 0.74878 0.41202 0.0
Co266 Co 0.74227 0.20061 0.90561 0.0
O267 O 0.73699 0.21209 0.93487 0.0
O268 O 0.72607 0.17851 0.9229 0.0
C269 C 0.77848 0.21065 0.90294 0.0
O270 O 0.74518 0.18333 0.87645 0.0
Co271 Co 0.75449 0.23426 0.86776 0.0
O272 O 0.75716 0.20666 0.84925 0.0
C273 C 0.70898 0.23317 0.88605 0.0
C274 C 0.72645 0.1935 0.93873 0.0
C275 C 0.75158 0.18729 0.85629 0.0
O276 O 0.71323 0.21424 0.89533 0.0
O277 O 0.72403 0.24526 0.87675 0.0
O278 O 0.77313 0.19211 0.91302 0.0
O279 O 0.76195 0.22321 0.89719 0.0
Co280 Co 0.27532 0.24814 0.39407 0.0
O281 O 0.26666 0.24531 0.4246 0.0
O282 O 0.29874 0.23272 0.41036 0.0
C283 C 0.2664 0.2843 0.38901 0.0
O284 O 0.28967 0.24888 0.36321 0.0
Co285 Co 0.23772 0.25781 0.35944 0.0
O286 O 0.26333 0.25932 0.33822 0.0
C287 C 0.24154 0.21302 0.37867 0.0
C288 C 0.28547 0.23487 0.42751 0.0
C289 C 0.28342 0.25413 0.34327 0.0
O290 O 0.26053 0.21859 0.3871 0.0
O291 O 0.22842 0.22714 0.36931 0.0
O292 O 0.28529 0.27897 0.39841 0.0
O293 O 0.25249 0.26801 0.38634 0.0
Co294 Co 0.7259 0.77152 0.10364 0.0
O295 O 0.72284 0.75654 0.07557 0.0
O296 O 0.72148 0.79342 0.08034 0.0
C297 C 0.75581 0.75262 0.11659 0.0
O298 O 0.7291 0.7925 0.13027 0.0
Co299 Co 0.7183 0.74318 0.14674 0.0
O300 O 0.72567 0.77192 0.16181 0.0
C301 C 0.68058 0.75461 0.11816 0.0
C302 C 0.72046 0.7763 0.06685 0.0
C303 C 0.72898 0.79047 0.15172 0.0
O304 O 0.69254 0.76972 0.10863 0.0
O305 O 0.68893 0.73964 0.13099 0.0
O306 O 0.75856 0.76891 0.10241 0.0
O307 O 0.73536 0.74648 0.11958 0.0
Co308 Co 0.69311 0.24549 0.59658 0.0
O309 O 0.70478 0.24089 0.56739 0.0
O310 O 0.66973 0.23351 0.57757 0.0
C311 C 0.70731 0.2799 0.60214 0.0
O312 O 0.67566 0.24873 0.62555 0.0
Co313 Co 0.7278 0.25016 0.63522 0.0
O314 O 0.70037 0.25444 0.65359 0.0
C315 C 0.72008 0.20649 0.61447 0.0
C316 C 0.68518 0.23319 0.56217 0.0
C317 C 0.68044 0.25246 0.64619 0.0
O318 O 0.70234 0.21421 0.60512 0.0
O319 O 0.73424 0.21891 0.62466 0.0
O320 O 0.68869 0.27754 0.59115 0.0
O321 O 0.71774 0.26161 0.60678 0.0
Co322 Co 0.27964 0.76711 0.59096 0.0
O323 O 0.27086 0.77741 0.56192 0.0
O324 O 0.30483 0.78114 0.57663 0.0
C325 C 0.26438 0.73256 0.58913 0.0
O326 O 0.29546 0.75818 0.61945 0.0
Co327 Co 0.24532 0.75368 0.62767 0.0
O328 O 0.27195 0.73941 0.64201 0.0
C329 C 0.25194 0.80125 0.61564 0.0
C330 C 0.29142 0.78426 0.55982 0.0
C331 C 0.29157 0.7457 0.63648 0.0
O332 O 0.26983 0.79637 0.60466 0.0
O333 O 0.23876 0.78646 0.62383 0.0
O334 O 0.28368 0.7364 0.57982 0.0
O335 O 0.25424 0.75 0.59679 0.0
Co336 Co 0.90611 0.73513 0.79633 0.0
O337 O 0.93683 0.73004 0.79048 0.0
O338 O 0.91765 0.71431 0.81837 0.0
C339 C 0.90594 0.77252 0.7931 0.0
O340 O 0.8742 0.73766 0.80756 0.0
Co341 Co 0.87712 0.75498 0.75796 0.0
O342 O 0.85388 0.75639 0.78177 0.0
C343 C 0.89307 0.70885 0.75478 0.0
C344 C 0.93636 0.71647 0.80743 0.0
C345 C 0.85612 0.74729 0.80097 0.0
O346 O 0.8982 0.70949 0.77571 0.0
O347 O 0.8871 0.72626 0.74383 0.0
O348 O 0.9124 0.76335 0.81177 0.0
O349 O 0.90329 0.75891 0.77654 0.0
Co350 Co 0.75458 0.40552 0.281 0.0
O351 O 0.75878 0.43375 0.26658 0.0
O352 O 0.77092 0.4252 0.30071 0.0
C353 C 0.71806 0.40133 0.27288 0.0
O354 O 0.75275 0.37845 0.30148 0.0
Co355 Co 0.7407 0.36364 0.25325 0.0
O356 O 0.73446 0.35082 0.28345 0.0
C357 C 0.78641 0.38178 0.24986 0.0
C358 C 0.76913 0.43985 0.28469 0.0
C359 C 0.7428 0.35939 0.30114 0.0
O360 O 0.78316 0.39403 0.26728 0.0
O361 O 0.77091 0.37052 0.24026 0.0
O362 O 0.72402 0.41353 0.28991 0.0
O363 O 0.73416 0.39447 0.26029 0.0
Co364 Co 0.09316 0.24902 0.78295 0.0
O365 O 0.06211 0.24954 0.77553 0.0
O366 O 0.077 0.26476 0.80614 0.0
C367 C 0.10055 0.21279 0.77603 0.0
O368 O 0.12423 0.25109 0.79633 0.0
Co369 Co 0.12789 0.23906 0.7455 0.0
O370 O 0.14985 0.24095 0.7705 0.0
C371 C 0.10486 0.2822 0.74607 0.0
C372 C 0.05943 0.26081 0.79395 0.0
C373 C 0.14445 0.24699 0.79028 0.0
O374 O 0.09777 0.27791 0.76597 0.0
O375 O 0.11449 0.26749 0.73379 0.0
O376 O 0.09122 0.2186 0.79485 0.0
O377 O 0.10164 0.22834 0.76109 0.0
Co378 Co 0.22911 0.58881 0.29823 0.0
O379 O 0.21409 0.56449 0.284 0.0
O380 O 0.21386 0.57115 0.32059 0.0
C381 C 0.26147 0.58426 0.2795 0.0
O382 O 0.24303 0.61163 0.31909 0.0
Co383 Co 0.24755 0.62949 0.27155 0.0
O384 O 0.26283 0.63734 0.30011 0.0
C385 C 0.19879 0.62301 0.27798 0.0
C386 C 0.2078 0.55849 0.30393 0.0
C387 C 0.25662 0.62827 0.3184 0.0
O388 O 0.20216 0.60845 0.29348 0.0
O389 O 0.21444 0.63128 0.26587 0.0
O390 O 0.25768 0.57241 0.29735 0.0
O391 O 0.24553 0.59728 0.27322 0.0
Co392 Co 0.90717 0.26771 0.20374 0.0
O393 O 0.9333 0.2762 0.21991 0.0
O394 O 0.92605 0.28572 0.18466 0.0
C395 C 0.90748 0.23138 0.21375 0.0
O396 O 0.88219 0.26152 0.1816 0.0
Co397 Co 0.86556 0.2493 0.22914 0.0
O398 O 0.85626 0.23997 0.19846 0.0
C399 C 0.87779 0.29711 0.23202 0.0
C400 C 0.93941 0.28659 0.20184 0.0
C401 C 0.86483 0.24887 0.18104 0.0
O402 O 0.8912 0.29503 0.21531 0.0
O403 O 0.86796 0.28055 0.24143 0.0
O404 O 0.91975 0.23804 0.19704 0.0
O405 O 0.8974 0.24696 0.22471 0.0
Co406 Co 0.22547 0.39579 0.72408 0.0
O407 O 0.219 0.42284 0.74001 0.0
O408 O 0.21661 0.41868 0.70314 0.0
C409 C 0.25809 0.38782 0.74125 0.0
O410 O 0.23201 0.37075 0.70181 0.0
Co411 Co 0.22843 0.35038 0.74947 0.0
O412 O 0.24366 0.34071 0.72146 0.0
C413 C 0.18494 0.37254 0.74285 0.0
C414 C 0.21509 0.4317 0.72055 0.0
C415 C 0.24136 0.35137 0.70312 0.0
O416 O 0.19348 0.38551 0.72794 0.0
O417 O 0.19658 0.35925 0.75498 0.0
O418 O 0.25753 0.40236 0.72509 0.0
O419 O 0.2388 0.38093 0.74806 0.0
Co420 Co 0.09113 0.74543 0.2084 0.0
O421 O 0.06269 0.73269 0.21525 0.0
O422 O 0.0799 0.72993 0.1823 0.0
C423 C 0.08521 0.77977 0.22296 0.0
O424 O 0.12006 0.75694 0.19501 0.0
Co425 Co 0.123 0.76065 0.24644 0.0
O426 O 0.14085 0.77372 0.22149 0.0
C427 C 0.11589 0.71272 0.23811 0.0
C428 C 0.06274 0.7252 0.19482 0.0
C429 C 0.13703 0.76867 0.20108 0.0
O430 O 0.10633 0.71737 0.21939 0.0
O431 O 0.12144 0.72766 0.25245 0.0
O432 O 0.07788 0.77496 0.20303 0.0
O433 O 0.09316 0.76307 0.23411 0.0
Co434 Co 0.77426 0.60333 0.69692 0.0
O435 O 0.78817 0.5797 0.71352 0.0
O436 O 0.78161 0.57908 0.67694 0.0
C437 C 0.74655 0.6091 0.72194 0.0
O438 O 0.75973 0.62393 0.67398 0.0
Co439 Co 0.76749 0.65139 0.7158 0.0
O440 O 0.74459 0.65337 0.6918 0.0
C441 C 0.81244 0.6354 0.70122 0.0
C442 C 0.78936 0.569 0.69461 0.0
C443 C 0.74654 0.64092 0.67459 0.0
O444 O 0.80441 0.61758 0.69223 0.0
O445 O 0.8008 0.6496 0.71232 0.0
O446 O 0.74444 0.59345 0.70691 0.0
O447 O 0.76522 0.61976 0.72178 0.0
Co448 Co 0.80207 0.90635 0.73468 0.0
O449 O 0.79024 0.93379 0.7237 0.0
O450 O 0.82427 0.92068 0.71605 0.0
C451 C 0.79158 0.91079 0.77063 0.0
O452 O 0.82008 0.87913 0.74349 0.0
Co453 Co 0.7707 0.87023 0.75515 0.0
O454 O 0.79942 0.85711 0.766 0.0
C455 C 0.7713 0.87809 0.70639 0.0
C456 C 0.80934 0.93634 0.71362 0.0
C457 C 0.81802 0.86263 0.75709 0.0
O458 O 0.78912 0.89001 0.70823 0.0
O459 O 0.7602 0.87075 0.7232 0.0
O460 O 0.80988 0.92011 0.76346 0.0
O461 O 0.77945 0.90134 0.7555 0.0
Co462 Co 0.59234 0.28073 0.2318 0.0
O463 O 0.56464 0.26595 0.22594 0.0
O464 O 0.57449 0.29903 0.21212 0.0
C465 C 0.59237 0.27539 0.26911 0.0
O466 O 0.6189 0.30159 0.23483 0.0
Co467 Co 0.63267 0.25521 0.25252 0.0
O468 O 0.64375 0.28615 0.25854 0.0
C469 C 0.6202 0.24795 0.20521 0.0
C470 C 0.55949 0.28337 0.21399 0.0
C471 C 0.63621 0.30278 0.24748 0.0
O472 O 0.60685 0.26488 0.20573 0.0
O473 O 0.63008 0.24015 0.22257 0.0
O474 O 0.58111 0.29194 0.26059 0.0
O475 O 0.60115 0.26178 0.25484 0.0
Co476 Co 0.22965 0.09539 0.73122 0.0
O477 O 0.24843 0.06953 0.7282 0.0
O478 O 0.21147 0.06959 0.72469 0.0
C479 C 0.24524 0.10876 0.76291 0.0
O480 O 0.20469 0.11833 0.73418 0.0
Co481 Co 0.24964 0.14355 0.72989 0.0
O482 O 0.21985 0.1519 0.74231 0.0
C483 C 0.24574 0.11687 0.68845 0.0
C484 C 0.2301 0.05831 0.725 0.0
C485 C 0.20309 0.13883 0.74054 0.0
O486 O 0.23304 0.10253 0.69831 0.0
O487 O 0.25597 0.13262 0.69878 0.0
O488 O 0.23056 0.09275 0.76397 0.0
O489 O 0.25154 0.11417 0.743 0.0
Co490 Co 0.37871 0.70072 0.21908 0.0
O491 O 0.40173 0.72264 0.21392 0.0
O492 O 0.40702 0.68594 0.21675 0.0
C493 C 0.36092 0.71921 0.24679 0.0
O494 O 0.3604 0.67283 0.22606 0.0
Co495 Co 0.32795 0.71006 0.21255 0.0
O496 O 0.32442 0.6828 0.23092 0.0
C497 C 0.35798 0.70576 0.17343 0.0
C498 C 0.41551 0.70575 0.21404 0.0
C499 C 0.34042 0.66888 0.23289 0.0
O500 O 0.37401 0.6982 0.18563 0.0
O501 O 0.3393 0.7127 0.18128 0.0
O502 O 0.37891 0.70773 0.25107 0.0
O503 O 0.35552 0.72068 0.22592 0.0
Co504 Co 0.80546 0.09129 0.2614 0.0
O505 O 0.7909 0.06378 0.26842 0.0
O506 O 0.82663 0.07123 0.27542 0.0
C507 C 0.79187 0.09395 0.22626 0.0
O508 O 0.82632 0.11755 0.25598 0.0
Co509 Co 0.77722 0.13356 0.24966 0.0
O510 O 0.80682 0.1464 0.24143 0.0
C511 C 0.77978 0.11714 0.2962 0.0
C512 C 0.81007 0.05711 0.27615 0.0
C513 C 0.82517 0.1371 0.24709 0.0
O514 O 0.79627 0.10419 0.29124 0.0
O515 O 0.76839 0.12791 0.28159 0.0
O516 O 0.8096 0.08195 0.23012 0.0
O517 O 0.78229 0.10228 0.24366 0.0
Co518 Co 0.40028 0.28773 0.7609 0.0
O519 O 0.43148 0.28133 0.76248 0.0
O520 O 0.41541 0.31312 0.77374 0.0
C521 C 0.39317 0.27607 0.72582 0.0
O522 O 0.36889 0.30031 0.76142 0.0
Co523 Co 0.36689 0.24828 0.75663 0.0
O524 O 0.34395 0.27247 0.75642 0.0
C525 C 0.39095 0.25472 0.79834 0.0
C526 C 0.43335 0.30098 0.77168 0.0
C527 C 0.34879 0.29309 0.75922 0.0
O528 O 0.39615 0.27452 0.7917 0.0
O529 O 0.38228 0.24015 0.78528 0.0
O530 O 0.40223 0.2956 0.72916 0.0
O531 O 0.39229 0.26327 0.74323 0.0
Co532 Co 0.21071 0.89023 0.27368 0.0
O533 O 0.2296 0.91354 0.28549 0.0
O534 O 0.19305 0.9163 0.27941 0.0
C535 C 0.23417 0.87961 0.24591 0.0
O536 O 0.18543 0.87133 0.26103 0.0
Co537 Co 0.22359 0.84003 0.26993 0.0
O538 O 0.19938 0.83935 0.24718 0.0
C539 C 0.21045 0.8599 0.31381 0.0
C540 C 0.21148 0.92564 0.28609 0.0
C541 C 0.18386 0.85387 0.2486 0.0
O542 O 0.20512 0.87876 0.30492 0.0
O543 O 0.21891 0.84343 0.30295 0.0
O544 O 0.22105 0.8968 0.2431 0.0
O545 O 0.23345 0.87049 0.26541 0.0
Co546 Co 0.60434 0.71213 0.75908 0.0
O547 O 0.57789 0.72993 0.7601 0.0
O548 O 0.5798 0.69399 0.76969 0.0
C549 C 0.61608 0.72283 0.72498 0.0
O550 O 0.62881 0.68848 0.75916 0.0
Co551 Co 0.65008 0.73675 0.75761 0.0
O552 O 0.66225 0.7058 0.75658 0.0
C553 C 0.62176 0.73949 0.79726 0.0
C554 C 0.56792 0.71215 0.76757 0.0
C555 C 0.65027 0.68815 0.7577 0.0
O556 O 0.61152 0.72173 0.79073 0.0
O557 O 0.63552 0.7501 0.78476 0.0
O558 O 0.60106 0.70721 0.72677 0.0
O559 O 0.62136 0.73289 0.74332 0.0
Co560 Co 0.73469 0.80333 0.90122 0.0
O561 O 0.72893 0.78523 0.92692 0.0
O562 O 0.72719 0.82238 0.92622 0.0
C563 C 0.7662 0.78543 0.89048 0.0
O564 O 0.74035 0.82766 0.87811 0.0
Co565 Co 0.7357 0.78228 0.85339 0.0
O566 O 0.74959 0.81137 0.84532 0.0
C567 C 0.69326 0.78703 0.87834 0.0
C568 C 0.72541 0.80388 0.93756 0.0
C569 C 0.74794 0.82846 0.85799 0.0
O570 O 0.70221 0.80091 0.89216 0.0
O571 O 0.70437 0.77618 0.86355 0.0
O572 O 0.76714 0.80065 0.90604 0.0
O573 O 0.7464 0.78041 0.88371 0.0
Co574 Co 0.74386 0.19837 0.09471 0.0
O575 O 0.73312 0.20693 0.06593 0.0
O576 O 0.72808 0.17345 0.08139 0.0
C577 C 0.7791 0.21143 0.09126 0.0
O578 O 0.75336 0.18333 0.12362 0.0
Co579 Co 0.75916 0.23468 0.12875 0.0
O580 O 0.77312 0.20834 0.14373 0.0
C581 C 0.71136 0.22891 0.11864 0.0
C582 C 0.72517 0.18676 0.06441 0.0
C583 C 0.76675 0.18835 0.13969 0.0
O584 O 0.71552 0.21011 0.10892 0.0
O585 O 0.72663 0.24227 0.12549 0.0
O586 O 0.77373 0.19215 0.08269 0.0
O587 O 0.76251 0.22308 0.09873 0.0
Co588 Co 0.28515 0.24477 0.58991 0.0
O589 O 0.27599 0.24152 0.55951 0.0
O590 O 0.31081 0.23681 0.5718 0.0
C591 C 0.26755 0.27728 0.59745 0.0
O592 O 0.30068 0.24727 0.61995 0.0
Co593 Co 0.24891 0.24351 0.62727 0.0
O594 O 0.27489 0.24849 0.64751 0.0
C595 C 0.26149 0.20208 0.60425 0.0
C596 C 0.29671 0.23658 0.55522 0.0
C597 C 0.29511 0.24887 0.64067 0.0
O598 O 0.27848 0.21211 0.59562 0.0
O599 O 0.24595 0.21249 0.61472 0.0
O600 O 0.28677 0.27738 0.58724 0.0
O601 O 0.25853 0.25784 0.59995 0.0
Co602 Co 0.25383 0.79095 0.09007 0.0
O603 O 0.25132 0.77879 0.06078 0.0
O604 O 0.27099 0.80922 0.0695 0.0
C605 C 0.21743 0.78869 0.09926 0.0
O606 O 0.25912 0.80852 0.11877 0.0
Co607 Co 0.24222 0.7599 0.13015 0.0
O608 O 0.24852 0.78718 0.14808 0.0
C609 C 0.2807 0.75034 0.10167 0.0
C610 C 0.26462 0.79474 0.0545 0.0
C611 C 0.25574 0.80552 0.13984 0.0
O612 O 0.28068 0.77094 0.09538 0.0
O613 O 0.26466 0.74181 0.11299 0.0
O614 O 0.22452 0.80577 0.08776 0.0
O615 O 0.2318 0.77298 0.10248 0.0
Co616 Co 0.71999 0.76164 0.59093 0.0
O617 O 0.72622 0.77479 0.56251 0.0
O618 O 0.69565 0.78134 0.58279 0.0
C619 C 0.72863 0.72586 0.58257 0.0
O620 O 0.70769 0.7507 0.62058 0.0
Co621 Co 0.75837 0.73992 0.61833 0.0
O622 O 0.73351 0.72955 0.63799 0.0
C623 C 0.75563 0.78881 0.61482 0.0
C624 C 0.70729 0.78523 0.56481 0.0
C625 C 0.71375 0.73752 0.63648 0.0
O626 O 0.73601 0.78701 0.6062 0.0
O627 O 0.76837 0.772 0.61861 0.0
O628 O 0.70918 0.73395 0.57712 0.0
O629 O 0.74287 0.74035 0.58988 0.0
Co630 Co 0.26841 0.22204 0.89556 0.0
O631 O 0.27024 0.23186 0.92594 0.0
O632 O 0.2802 0.19809 0.91362 0.0
C633 C 0.2337 0.23414 0.88739 0.0
O634 O 0.2683 0.20595 0.86568 0.0
Co635 Co 0.26538 0.25781 0.85804 0.0
O636 O 0.26438 0.23123 0.83794 0.0
C637 C 0.30669 0.25268 0.88312 0.0
C638 C 0.27838 0.21212 0.93016 0.0
C639 C 0.26633 0.21112 0.84489 0.0
O640 O 0.29963 0.23356 0.89 0.0
O641 O 0.29401 0.26668 0.87305 0.0
O642 O 0.23647 0.21563 0.89851 0.0
O643 O 0.25153 0.24608 0.88485 0.0
Co644 Co 0.28314 0.75454 0.4064 0.0
O645 O 0.2769 0.75968 0.43718 0.0
O646 O 0.30084 0.77962 0.41666 0.0
C647 C 0.28702 0.71715 0.40736 0.0
O648 O 0.29433 0.75314 0.37437 0.0
Co649 Co 0.24905 0.72715 0.37845 0.0
O650 O 0.27259 0.72917 0.35496 0.0
C651 C 0.23743 0.77246 0.39261 0.0
C652 C 0.29081 0.77628 0.4357 0.0
C653 C 0.28973 0.74179 0.35666 0.0
O654 O 0.25803 0.7756 0.39805 0.0
O655 O 0.22982 0.75326 0.38694 0.0
O656 O 0.30368 0.72989 0.4132 0.0
O657 O 0.26817 0.72733 0.40462 0.0
Co658 Co 0.70637 0.23698 0.40069 0.0
O659 O 0.72153 0.23157 0.42832 0.0
O660 O 0.68635 0.22191 0.42092 0.0
C661 C 0.71668 0.27299 0.39624 0.0
O662 O 0.6849 0.24027 0.37477 0.0
Co663 Co 0.73244 0.24942 0.35739 0.0
O664 O 0.70212 0.25855 0.34672 0.0
C665 C 0.73362 0.20317 0.3749 0.0
C666 C 0.70293 0.22249 0.43498 0.0
C667 C 0.68456 0.25093 0.35614 0.0
O668 O 0.71753 0.20755 0.38852 0.0
O669 O 0.74331 0.21804 0.36287 0.0
O670 O 0.69991 0.26802 0.4092 0.0
O671 O 0.72786 0.25615 0.38867 0.0
H672 H 0.96723 0.28691 0.16606 0.0
H673 H 0.96194 0.30693 0.23525 0.0
H674 H 0.00251 0.31013 0.23783 0.0
H675 H 0.03856 0.29753 0.22346 0.0
H676 H 0.04433 0.27449 0.15532 0.0
H677 H 0.00464 0.28256 0.14897 0.0
C678 C 0.975 0.29287 0.18136 0.0
C679 C 0.9619 0.29621 0.20059 0.0
C680 C -0.00159 0.29357 0.18302 0.0
C681 C 0.97192 0.30394 0.22038 0.0
C682 C 0.99507 0.30562 0.2219 0.0
C683 C 0.03122 0.29495 0.20704 0.0
C684 C 0.04391 0.28491 0.19006 0.0
C685 C 0.00842 0.29893 0.20382 0.0
C686 C 0.03463 0.28202 0.16868 0.0
C687 C 0.01193 0.28646 0.16512 0.0
H688 H 0.21351 0.5357 0.73166 0.0
H689 H 0.22792 0.53304 0.66092 0.0
H690 H 0.22366 0.49216 0.66143 0.0
H691 H 0.21863 0.45714 0.6829 0.0
H692 H 0.20456 0.46079 0.75375 0.0
H693 H 0.20547 0.50152 0.75219 0.0
C694 C 0.21574 0.5262 0.71633 0.0
C695 C 0.22144 0.53721 0.69638 0.0
C696 C 0.21317 0.50296 0.71677 0.0
C697 C 0.22375 0.5248 0.67653 0.0
C698 C 0.22128 0.50149 0.67683 0.0
C699 C 0.21535 0.46689 0.69787 0.0
C700 C 0.21173 0.45602 0.71845 0.0
C701 C 0.21633 0.49037 0.69695 0.0
C702 C 0.20755 0.4688 0.73775 0.0
C703 C 0.20816 0.49207 0.73691 0.0
H704 H 0.03947 0.69361 0.21612 0.0
H705 H 0.04176 0.73143 0.15481 0.0
H706 H 0.00234 0.72274 0.14762 0.0
H707 H 0.96577 0.71367 0.16472 0.0
H708 H 0.96387 0.67917 0.22802 0.0
H709 H 0.00457 0.67629 0.22818 0.0
C710 C 0.03148 0.69915 0.20076 0.0
C711 C 0.04301 0.71349 0.18626 0.0
C712 C 0.0088 0.69478 0.19727 0.0
C713 C 0.03294 0.72044 0.16623 0.0
C714 C 0.01038 0.71566 0.16226 0.0
C715 C 0.97432 0.70454 0.17789 0.0
C716 C 0.96218 0.69687 0.19648 0.0
C717 C -0.00219 0.70418 0.17849 0.0
C718 C 0.97315 0.68526 0.21366 0.0
C719 C 0.99638 0.68384 0.21386 0.0
H720 H 0.80028 0.46914 0.71862 0.0
H721 H 0.77132 0.46156 0.65302 0.0
H722 H 0.77817 0.50124 0.64514 0.0
H723 H 0.78412 0.53906 0.66067 0.0
H724 H 0.81092 0.54619 0.72743 0.0
H725 H 0.81367 0.50567 0.73098 0.0
C726 C 0.79618 0.47608 0.70233 0.0
C727 C 0.78493 0.46284 0.68658 0.0
C728 C 0.79942 0.49888 0.69833 0.0
C729 C 0.77994 0.47164 0.66539 0.0
C730 C 0.78362 0.49435 0.66101 0.0
C731 C 0.79117 0.53174 0.67572 0.0
C732 C 0.79665 0.54547 0.69403 0.0
C733 C 0.79207 0.50836 0.67791 0.0
C734 C 0.80608 0.53587 0.71331 0.0
C735 C 0.80764 0.51271 0.71538 0.0
H736 H 0.9578 0.68923 0.78006 0.0
H737 H 0.96059 0.71791 0.84609 0.0
H738 H 0.00133 0.71286 0.84684 0.0
H739 H 0.03586 0.71049 0.82414 0.0
H740 H 0.03182 0.68796 0.75566 0.0
H741 H 0.99203 0.68003 0.76022 0.0
C742 C 0.96734 0.69332 0.795 0.0
C743 C 0.95665 0.70407 0.81286 0.0
C744 C 0.99062 0.69209 0.79443 0.0
C745 C 0.96872 0.70947 0.83222 0.0
C746 C 0.99201 0.70698 0.83242 0.0
C747 C 0.0263 0.70318 0.81054 0.0
C748 C 0.03632 0.70018 0.78949 0.0
C749 C 0.00319 0.69992 0.81294 0.0
C750 C 0.02409 0.69075 0.77184 0.0
C751 C 0.00143 0.6862 0.77447 0.0
H752 H 0.78015 0.54263 0.27537 0.0
H753 H 0.76631 0.53963 0.3462 0.0
H754 H 0.77052 0.49881 0.34544 0.0
H755 H 0.77167 0.46392 0.32315 0.0
H756 H 0.78259 0.46779 0.25183 0.0
H757 H 0.78642 0.50837 0.25428 0.0
C758 C 0.77838 0.53308 0.29072 0.0
C759 C 0.77241 0.54394 0.31069 0.0
C760 C 0.78018 0.50977 0.29 0.0
C761 C 0.77067 0.53151 0.33057 0.0
C762 C 0.77298 0.5082 0.33011 0.0
C763 C 0.7755 0.47366 0.30831 0.0
C764 C 0.77654 0.46311 0.2873 0.0
C765 C 0.77678 0.4971 0.30971 0.0
C766 C 0.78144 0.47574 0.26812 0.0
C767 C 0.78356 0.49889 0.26949 0.0
H768 H 0.03225 0.28418 0.76758 0.0
H769 H 0.03719 0.25554 0.83352 0.0
H770 H -0.00305 0.26163 0.83949 0.0
H771 H 0.95972 0.2685 0.82264 0.0
H772 H 0.95571 0.29637 0.75608 0.0
H773 H 0.99634 0.29795 0.75387 0.0
C774 C 0.02453 0.27984 0.78345 0.0
C775 C 0.03721 0.26913 0.79996 0.0
C776 C 0.0016 0.28318 0.78656 0.0
C777 C 0.02745 0.26375 0.82062 0.0
C778 C 0.0045 0.26711 0.82393 0.0
C779 C 0.96778 0.27561 0.808 0.0
C780 C 0.95488 0.28181 0.78933 0.0
C781 C 0.99125 0.27587 0.80658 0.0
C782 C 0.9654 0.29111 0.77048 0.0
C783 C 0.98861 0.29193 0.76915 0.0
H784 H 0.21034 0.45744 0.31725 0.0
H785 H 0.1897 0.46105 0.24817 0.0
H786 H 0.17844 0.49999 0.25318 0.0
H787 H 0.18467 0.53456 0.27382 0.0
H788 H 0.20995 0.53223 0.34135 0.0
H789 H 0.20835 0.49132 0.34082 0.0
C790 C 0.20255 0.46657 0.30361 0.0
C791 C 0.20128 0.4568 0.28226 0.0
C792 C 0.1973 0.48931 0.30631 0.0
C793 C 0.19117 0.46856 0.26463 0.0
C794 C 0.18481 0.4908 0.26747 0.0
C795 C 0.18904 0.52507 0.28869 0.0
C796 C 0.19811 0.53615 0.30728 0.0
C797 C 0.18935 0.5017 0.28773 0.0
C798 C 0.2032 0.52393 0.32671 0.0
C799 C 0.20256 0.50053 0.32629 0.0
H800 H 0.17606 0.95364 0.28935 0.0
H801 H 0.24794 0.95123 0.29624 0.0
H802 H 0.24917 0.99202 0.2991 0.0
H803 H 0.2305 0.02805 0.29355 0.0
H804 H 0.1589 0.0304 0.28426 0.0
H805 H 0.15681 0.98982 0.28893 0.0
C806 C 0.19197 0.962 0.29184 0.0
C807 C 0.21194 0.94955 0.29209 0.0
C808 C 0.1926 0.98541 0.29289 0.0
C809 C 0.23238 0.96053 0.29571 0.0
C810 C 0.2331 0.98383 0.29729 0.0
C811 C 0.21438 0.01975 0.29297 0.0
C812 C 0.19494 0.03208 0.28809 0.0
C813 C 0.21341 0.99642 0.29495 0.0
C814 C 0.17413 0.0212 0.28775 0.0
C815 C 0.17294 -0.002 0.2903 0.0
H816 H 0.53777 0.67799 0.7658 0.0
H817 H 0.54462 0.74835 0.7809 0.0
H818 H 0.50416 0.75229 0.78318 0.0
H819 H 0.46732 0.73725 0.7754 0.0
H820 H 0.45933 0.6676 0.75817 0.0
H821 H 0.49975 0.66164 0.76258 0.0
C822 C 0.53032 0.69401 0.77005 0.0
C823 C 0.54396 0.71295 0.77279 0.0
C824 C 0.50693 0.69631 0.77069 0.0
C825 C 0.5343 0.73366 0.77833 0.0
C826 C 0.51121 0.73593 0.77964 0.0
C827 C 0.47439 0.72069 0.7729 0.0
C828 C 0.46065 0.703 0.76602 0.0
C829 C 0.49743 0.71761 0.77494 0.0
C830 C 0.46978 0.68149 0.76332 0.0
C831 C 0.49284 0.67814 0.76572 0.0
H832 H 0.77775 0.02933 0.28998 0.0
H833 H 0.84868 0.03239 0.27713 0.0
H834 H 0.85104 0.99144 0.27914 0.0
H835 H 0.83152 0.95496 0.2782 0.0
H836 H 0.76009 0.95292 0.28905 0.0
H837 H 0.75935 0.99332 0.29432 0.0
C838 C 0.79381 0.02104 0.28806 0.0
C839 C 0.81292 0.03365 0.28298 0.0
C840 C 0.79486 -0.00231 0.28854 0.0
C841 C 0.83372 0.0229 0.28096 0.0
C842 C 0.83502 -0.00049 0.2819 0.0
C843 C 0.8159 0.96336 0.28212 0.0
C844 C 0.79582 0.95112 0.28273 0.0
C845 C 0.81549 0.98673 0.28467 0.0
C846 C 0.7757 0.96208 0.28805 0.0
C847 C 0.77525 0.98517 0.2911 0.0
H848 H 0.52984 0.33736 0.7857 0.0
H849 H 0.53787 0.27045 0.81173 0.0
H850 H 0.49748 0.26496 0.81111 0.0
H851 H 0.46151 0.27611 0.79548 0.0
H852 H 0.45283 0.34217 0.76791 0.0
H853 H 0.49191 0.35129 0.77682 0.0
C854 C 0.52261 0.32194 0.79202 0.0
C855 C 0.5366 0.30414 0.79832 0.0
C856 C 0.49943 0.31858 0.7907 0.0
C857 C 0.52726 0.28421 0.8065 0.0
C858 C 0.50423 0.28101 0.80599 0.0
C859 C 0.46816 0.29263 0.79182 0.0
C860 C 0.45489 0.30829 0.78057 0.0
C861 C 0.4904 0.29754 0.79681 0.0
C862 C 0.46312 0.32985 0.77634 0.0
C863 C 0.48538 0.33499 0.78139 0.0
H864 H 0.19437 0.03007 0.72423 0.0
H865 H 0.26663 0.0312 0.72473 0.0
H866 H 0.26755 0.99073 0.72965 0.0
H867 H 0.24801 0.95562 0.73688 0.0
H868 H 0.17587 0.95378 0.73624 0.0
H869 H 0.17469 0.99403 0.72831 0.0
C870 C 0.2103 0.02141 0.72507 0.0
C871 C 0.23039 0.03363 0.72436 0.0
C872 C 0.21073 -0.00189 0.72819 0.0
C873 C 0.25092 0.02219 0.72539 0.0
C874 C 0.25148 -0.00094 0.7283 0.0
C875 C 0.23202 0.96403 0.73499 0.0
C876 C 0.21206 0.95194 0.73751 0.0
C877 C 0.23151 0.98697 0.7303 0.0
C878 C 0.19146 0.96286 0.73454 0.0
C879 C 0.19079 0.98583 0.73 0.0
H880 H 0.44733 0.67342 0.21352 0.0
H881 H 0.43833 0.7452 0.21257 0.0
H882 H 0.47863 0.75046 0.21641 0.0
H883 H 0.51562 0.73478 0.22359 0.0
H884 H 0.52502 0.66314 0.22513 0.0
H885 H 0.48513 0.65764 0.21732 0.0
C886 C 0.45422 0.69022 0.21389 0.0
C887 C 0.4399 0.70891 0.21308 0.0
C888 C 0.47733 0.69311 0.21639 0.0
C889 C 0.44902 0.73056 0.21332 0.0
C890 C 0.47203 0.73358 0.21559 0.0
C891 C 0.50897 0.71794 0.22211 0.0
C892 C 0.52303 0.69936 0.22531 0.0
C893 C 0.4862 0.71499 0.21776 0.0
C894 C 0.51438 0.67766 0.22288 0.0
C895 C 0.49163 0.67454 0.21847 0.0
H896 H 0.82924 0.03629 0.70925 0.0
H897 H 0.76007 0.03565 0.68869 0.0
H898 H 0.76237 0.99569 0.68075 0.0
H899 H 0.78075 0.96044 0.68938 0.0
H900 H 0.84839 0.95997 0.71414 0.0
H901 H 0.8505 0.00073 0.70993 0.0
C902 C 0.81498 0.02745 0.70232 0.0
C903 C 0.79437 0.03849 0.70008 0.0
C904 C 0.81614 0.00424 0.69881 0.0
C905 C 0.77594 0.02715 0.691 0.0
C906 C 0.77724 0.00437 0.68646 0.0
C907 C 0.79622 0.96926 0.69299 0.0
C908 C 0.81415 0.95763 0.70255 0.0
C909 C 0.79677 0.99257 0.69176 0.0
C910 C 0.83432 0.96882 0.70688 0.0
C911 C 0.83539 0.99212 0.70478 0.0
H912 H 0.52838 0.25122 0.20925 0.0
H913 H 0.53906 0.32216 0.20083 0.0
H914 H 0.49876 0.32798 0.19655 0.0
H915 H 0.46048 0.31349 0.20124 0.0
H916 H 0.45035 0.24257 0.21118 0.0
H917 H 0.49051 0.23614 0.20873 0.0
C918 C 0.52191 0.2679 0.20603 0.0
C919 C 0.5365 0.28629 0.20578 0.0
C920 C 0.49883 0.27115 0.20423 0.0
C921 C 0.52806 0.30776 0.2012 0.0
C922 C 0.50502 0.31111 0.19896 0.0
C923 C 0.46706 0.2966 0.20255 0.0
C924 C 0.45256 0.2786 0.20688 0.0
C925 C 0.49022 0.29304 0.20143 0.0
C926 C 0.46122 0.25676 0.2082 0.0
C927 C 0.48418 0.25305 0.20679 0.0
H928 H 0.29347 0.20964 0.03274 0.0
H929 H 0.26614 0.14347 0.02457 0.0
H930 H 0.26993 0.14674 0.98365 0.0
H931 H 0.27406 0.17176 0.95067 0.0
H932 H 0.29729 0.23945 0.9605 0.0
H933 H 0.30237 0.23236 0.00035 0.0
C934 C 0.28897 0.1957 0.02194 0.0
C935 C 0.27938 0.17649 0.03127 0.0
C936 C 0.29013 0.19824 -0.00121 0.0
C937 C 0.27367 0.15837 0.0175 0.0
C938 C 0.27557 0.1604 0.99418 0.0
C939 C 0.28072 0.18468 0.96156 0.0
C940 C 0.28499 0.20617 0.95299 0.0
C941 C 0.28269 0.18074 0.98466 0.0
C942 C 0.29357 0.22292 0.967 0.0
C943 C 0.2965 0.21887 0.98971 0.0
H944 H 0.28247 0.75976 0.03404 0.0
H945 H 0.26521 0.82904 0.024 0.0
H946 H 0.27031 0.82457 0.98335 0.0
H947 H 0.27279 0.79882 0.95089 0.0
H948 H 0.28762 0.72895 0.96212 0.0
H949 H 0.29085 0.73578 0.00221 0.0
C950 C 0.2804 0.77399 0.02292 0.0
C951 C 0.27322 0.79455 0.0316 0.0
C952 C 0.2827 0.77105 -0.00013 0.0
C953 C 0.27077 0.81306 0.01741 0.0
C954 C 0.27348 0.81042 0.99425 0.0
C955 C 0.2773 0.78527 0.9621 0.0
C956 C 0.27952 0.76334 0.95376 0.0
C957 C 0.27841 0.78919 0.98526 0.0
C958 C 0.28544 0.74588 0.96831 0.0
C959 C 0.28727 0.74975 0.99119 0.0
H960 H 0.66633 0.78391 0.54585 0.0
H961 H 0.73036 0.81683 0.54251 0.0
H962 H 0.72268 0.8289 0.50427 0.0
H963 H 0.70371 0.81918 0.46955 0.0
H964 H 0.64236 0.78163 0.47122 0.0
H965 H 0.64231 0.78286 0.51222 0.0
C966 C 0.67803 0.79463 0.53701 0.0
C967 C 0.69899 0.79923 0.54653 0.0
C968 C 0.67406 0.80026 0.51454 0.0
C969 C 0.71424 0.81297 0.53517 0.0
C970 C 0.7099 0.81973 0.51331 0.0
C971 C 0.68974 0.81238 0.47899 0.0
C972 C 0.6733 0.80006 0.46777 0.0
C973 C 0.69073 0.8119 0.50235 0.0
C974 C 0.65517 0.79122 0.47975 0.0
C975 C 0.65539 0.7916 0.50318 0.0
H976 H 0.69991 0.21048 0.03626 0.0
H977 H 0.73144 0.14615 0.0444 0.0
H978 H 0.7297 0.13978 0.00389 0.0
H979 H 0.72836 0.15733 0.96626 0.0
H980 H 0.70009 0.22339 0.95931 0.0
H981 H 0.69084 0.2242 -0.00096 0.0
C982 C 0.70558 0.19471 0.02917 0.0
C983 C 0.71622 0.17903 0.04293 0.0
C984 C 0.70546 0.19174 0.00598 0.0
C985 C 0.72327 0.15849 0.03391 0.0
C986 C 0.72254 0.155 0.01074 0.0
C987 C 0.71941 0.17144 0.97341 0.0
C988 C 0.71523 0.19045 0.96027 0.0
C989 C 0.71508 0.1722 0.99654 0.0
C990 C 0.70371 0.20876 0.96943 0.0
C991 C 0.69849 0.20926 0.9921 0.0
H992 H 0.27423 0.21076 0.52677 0.0
H993 H 0.33371 0.25098 0.53242 0.0
H994 H 0.33857 0.24998 0.49157 0.0
H995 H 0.32098 0.24406 0.45431 0.0
H996 H 0.26012 0.20567 0.44992 0.0
H997 H 0.26093 0.19885 0.49016 0.0
C998 C 0.28858 0.21877 0.51903 0.0
C999 C 0.30336 0.23125 0.53222 0.0
C1000 C 0.29088 0.21848 0.49577 0.0
C1001 C 0.32211 0.24135 0.52235 0.0
C1002 C 0.32476 0.24091 0.49904 0.0
C1003 C 0.30849 0.2335 0.46218 0.0
C1004 C 0.29045 0.22541 0.4495 0.0
C1005 C 0.30859 0.23045 0.48553 0.0
C1006 C 0.27408 0.21201 0.45961 0.0
C1007 C 0.27446 0.20827 0.48257 0.0
H1008 H 0.72188 0.81475 0.04226 0.0
H1009 H 0.71189 0.74329 0.037 0.0
H1010 H 0.71024 0.74612 0.99644 0.0
H1011 H 0.71492 0.76805 0.96257 0.0
H1012 H 0.72605 0.83931 0.96678 0.0
H1013 H 0.7236 0.83747 0.00771 0.0
C1014 C 0.7191 0.79988 0.0322 0.0
C1015 C 0.71732 0.77882 0.04256 0.0
C1016 C 0.71845 0.80155 0.00876 0.0
C1017 C 0.7136 0.75967 0.0294 0.0
C1018 C 0.71262 0.76124 0.0062 0.0
C1019 C 0.71661 0.78324 0.97241 0.0
C1020 C 0.72096 0.80371 0.96178 0.0
C1021 C 0.71556 0.78198 0.99573 0.0
C1022 C 0.72279 0.82331 0.97467 0.0
C1023 C 0.72149 0.82225 -0.00196 0.0
H1024 H 0.71538 0.21227 0.53705 0.0
H1025 H 0.6469 0.23488 0.53681 0.0
H1026 H 0.64492 0.22877 0.49615 0.0
H1027 H 0.66542 0.22428 0.46038 0.0
H1028 H 0.73507 0.20525 0.46159 0.0
H1029 H 0.73386 0.2022 0.50229 0.0
C1030 C 0.69988 0.21544 0.52812 0.0
C1031 C 0.68149 0.22451 0.53953 0.0
C1032 C 0.69923 0.21267 0.50496 0.0
C1033 C 0.6613 0.22806 0.52813 0.0
C1034 C 0.66026 0.22472 0.50494 0.0
C1035 C 0.68008 0.21882 0.46959 0.0
C1036 C 0.7004 0.21531 0.45827 0.0
C1037 C 0.6795 0.21812 0.49307 0.0
C1038 C 0.71937 0.2083 0.47016 0.0
C1039 C 0.7187 0.20663 0.49337 0.0
H1040 H 0.32614 0.77795 0.46359 0.0
H1041 H 0.26076 0.80563 0.45131 0.0
H1042 H 0.25733 0.81634 0.4906 0.0
H1043 H 0.26838 0.80759 0.52903 0.0
H1044 H 0.33277 0.77779 0.54193 0.0
H1045 H 0.34156 0.77859 0.50195 0.0
C1046 C 0.31175 0.7874 0.46942 0.0
C1047 C 0.29365 0.79096 0.45497 0.0
C1048 C 0.30951 0.79251 0.49224 0.0
C1049 C 0.27485 0.80288 0.4624 0.0
C1050 C 0.27279 0.80872 0.48488 0.0
C1051 C 0.28464 0.80206 0.52309 0.0
C1052 C 0.29965 0.79205 0.53805 0.0
C1053 C 0.28927 0.80206 0.50014 0.0
C1054 C 0.32087 0.78532 0.53051 0.0
C1055 C 0.32582 0.78561 0.50765 0.0
H1056 H 0.17985 0.36406 0.26892 0.0
H1057 H 0.193 0.36875 0.19808 0.0
H1058 H 0.1618 0.34341 0.19031 0.0
H1059 H 0.13641 0.3144 0.20418 0.0
H1060 H 0.12782 0.30538 0.27528 0.0
H1061 H 0.15117 0.33823 0.28259 0.0
C1062 C 0.17538 0.36009 0.25176 0.0
C1063 C 0.18865 0.36806 0.23407 0.0
C1064 C 0.1584 0.34448 0.24757 0.0
C1065 C 0.183 0.36262 0.21192 0.0
C1066 C 0.16526 0.34809 0.20751 0.0
C1067 C 0.13904 0.32015 0.22122 0.0
C1068 C 0.13056 0.30762 0.2392 0.0
C1069 C 0.15363 0.33806 0.22527 0.0
C1070 C 0.13431 0.31486 0.26124 0.0
C1071 C 0.14775 0.33351 0.26539 0.0
H1072 H 0.11118 0.65303 0.76451 0.0
H1073 H 0.10961 0.68217 0.69849 0.0
H1074 H 0.12586 0.64824 0.68266 0.0
H1075 H 0.15244 0.61818 0.69031 0.0
H1076 H 0.15923 0.5927 0.75726 0.0
H1077 H 0.12798 0.61581 0.76975 0.0
C1078 C 0.11346 0.65151 0.74654 0.0
C1079 C 0.11018 0.67028 0.73277 0.0
C1080 C 0.12403 0.63243 0.73776 0.0
C1081 C 0.11279 0.66809 0.70948 0.0
C1082 C 0.1221 0.64869 0.70042 0.0
C1083 C 0.14604 0.61662 0.70726 0.0
C1084 C 0.15864 0.60482 0.72315 0.0
C1085 C 0.12967 0.63172 0.71472 0.0
C1086 C 0.15002 0.60227 0.7449 0.0
C1087 C 0.1325 0.61595 0.75217 0.0
H1088 H 0.81672 0.62252 0.25233 0.0
H1089 H 0.82129 0.64213 0.32157 0.0
H1090 H 0.85678 0.66118 0.31413 0.0
H1091 H 0.8799 0.68031 0.28596 0.0
H1092 H 0.87438 0.66151 0.21643 0.0
H1093 H 0.84655 0.63327 0.226 0.0
C1094 C 0.8261 0.63009 0.26592 0.0
C1095 C 0.81653 0.6313 0.28734 0.0
C1096 C 0.84614 0.64139 0.26136 0.0
C1097 C 0.82855 0.64106 0.30497 0.0
C1098 C 0.84868 0.65213 0.30064 0.0
C1099 C 0.87327 0.66935 0.27306 0.0
C1100 C 0.87858 0.67342 0.25048 0.0
C1101 C 0.85675 0.65366 0.27861 0.0
C1102 C 0.87035 0.65888 0.23392 0.0
C1103 C 0.85419 0.6429 0.23935 0.0
H1104 H 0.86648 0.32373 0.73218 0.0
H1105 H 0.85353 0.3206 0.80305 0.0
H1106 H 0.82888 0.35325 0.80031 0.0
H1107 H 0.80449 0.37604 0.77611 0.0
H1108 H 0.81708 0.37835 0.70497 0.0
H1109 H 0.84886 0.35315 0.70948 0.0
C1110 C 0.859 0.33089 0.74713 0.0
C1111 C 0.86145 0.31983 0.76771 0.0
C1112 C 0.84446 0.3492 0.74527 0.0
C1113 C 0.85185 0.32903 0.78707 0.0
C1114 C 0.83753 0.34748 0.78543 0.0
C1115 C 0.81462 0.37154 0.76171 0.0
C1116 C 0.80807 0.37845 0.74017 0.0
C1117 C 0.83265 0.35672 0.76437 0.0
C1118 C 0.82161 0.37301 0.7217 0.0
C1119 C 0.83971 0.35846 0.72423 0.0
H1120 H 0.20133 0.19365 0.36949 0.0
H1121 H 0.27122 0.17827 0.37944 0.0
H1122 H 0.26666 0.14307 0.35942 0.0
H1123 H 0.24563 0.12313 0.33019 0.0
H1124 H 0.17626 0.139 0.31906 0.0
H1125 H 0.17755 0.16719 0.34878 0.0
C1126 C 0.21537 0.18221 0.36797 0.0
C1127 C 0.23676 0.18898 0.37511 0.0
C1128 C 0.21277 0.16223 0.35589 0.0
C1129 C 0.25465 0.17373 0.37368 0.0
C1130 C 0.25211 0.15362 0.36205 0.0
C1131 C 0.23056 0.132 0.33515 0.0
C1132 C 0.21098 0.12936 0.32249 0.0
C1133 C 0.23168 0.14859 0.35171 0.0
C1134 C 0.19146 0.14081 0.32877 0.0
C1135 C 0.19231 0.15714 0.34553 0.0
H1136 H 0.32576 0.75901 0.86947 0.0
H1137 H 0.32062 0.68716 0.86449 0.0
H1138 H 0.35459 0.68594 0.8418 0.0
H1139 H 0.37781 0.70608 0.81487 0.0
H1140 H 0.37849 0.77827 0.81517 0.0
H1141 H 0.355 0.7787 0.84863 0.0
C1142 C 0.33266 0.74302 0.86424 0.0
C1143 C 0.32054 0.72325 0.86815 0.0
C1144 C 0.35126 0.74263 0.84991 0.0
C1145 C 0.32956 0.70262 0.86132 0.0
C1146 C 0.34889 0.70195 0.84822 0.0
C1147 C 0.37368 0.72187 0.82288 0.0
C1148 C 0.37937 0.74212 0.81235 0.0
C1149 C 0.35879 0.72197 0.84103 0.0
C1150 C 0.37398 0.76248 0.82287 0.0
C1151 C 0.36035 0.76272 0.84186 0.0
H1152 H 0.7699 0.81316 0.39006 0.0
H1153 H 0.70156 0.83586 0.38484 0.0
H1154 H 0.71288 0.86482 0.35843 0.0
H1155 H 0.73991 0.87514 0.32909 0.0
H1156 H 0.80778 0.85131 0.33305 0.0
H1157 H 0.79922 0.83168 0.36797 0.0
C1158 C 0.75767 0.82507 0.38384 0.0
C1159 C 0.73487 0.82194 0.38871 0.0
C1160 C 0.7642 0.84119 0.36808 0.0
C1161 C 0.7192 0.83774 0.38107 0.0
C1162 C 0.72562 0.85416 0.36574 0.0
C1163 C 0.75302 0.86658 0.3383 0.0
C1164 C 0.77431 0.86434 0.32867 0.0
C1165 C 0.74774 0.85483 0.3579 0.0
C1166 C 0.79131 0.85323 0.3404 0.0
C1167 C 0.78631 0.84179 0.36018 0.0
H1168 H 0.69158 0.27501 0.88484 0.0
H1169 H 0.67413 0.20534 0.87739 0.0
H1170 H 0.64028 0.21572 0.85707 0.0
H1171 H 0.62252 0.24381 0.83276 0.0
H1172 H 0.6405 0.31331 0.83928 0.0
H1173 H 0.66683 0.30401 0.8692 0.0
C1174 C 0.67987 0.2622 0.8795 0.0
C1175 C 0.68555 0.2395 0.88194 0.0
C1176 C 0.6607 0.26828 0.86744 0.0
C1177 C 0.67017 0.22295 0.87545 0.0
C1178 C 0.65091 0.22886 0.86365 0.0
C1179 C 0.63137 0.25698 0.84163 0.0
C1180 C 0.62998 0.27909 0.83385 0.0
C1181 C 0.64692 0.25137 0.85824 0.0
C1182 C 0.64138 0.29617 0.84519 0.0
C1183 C 0.65667 0.2908 0.86204 0.0
H1184 H 0.28295 0.83047 0.63041 0.0
H1185 H 0.21221 0.82318 0.61865 0.0
H1186 H 0.20431 0.85368 0.64473 0.0
H1187 H 0.21689 0.87312 0.67851 0.0
H1188 H 0.28722 0.87561 0.69407 0.0
H1189 H 0.29611 0.85718 0.65865 0.0
C1190 C 0.26591 0.83633 0.63277 0.0
C1191 C 0.24814 0.82444 0.62307 0.0
C1192 C 0.26146 0.85281 0.64895 0.0
C1193 C 0.2261 0.83201 0.62625 0.0
C1194 C 0.22159 0.84931 0.6413 0.0
C1195 C 0.2342 0.87064 0.67358 0.0
C1196 C 0.25137 0.87524 0.68893 0.0
C1197 C 0.23901 0.85855 0.654 0.0
C1198 C 0.27375 0.87192 0.6825 0.0
C1199 C 0.2788 0.86115 0.66237 0.0
H1200 H 0.64827 0.72293 0.11744 0.0
H1201 H 0.65882 0.79389 0.12491 0.0
H1202 H 0.62638 0.79653 0.1495 0.0
H1203 H 0.60509 0.77623 0.17834 0.0
H1204 H 0.59598 0.70483 0.17203 0.0
H1205 H 0.61702 0.70487 0.13715 0.0
C1206 C 0.64263 0.73914 0.12344 0.0
C1207 C 0.65629 0.75799 0.12023 0.0
C1208 C 0.62458 0.74032 0.13839 0.0
C1209 C 0.64872 0.77905 0.12752 0.0
C1210 C 0.63036 0.7805 0.14193 0.0
C1211 C 0.60687 0.76086 0.16879 0.0
C1212 C 0.6 0.74043 0.17823 0.0
C1213 C 0.61963 0.76088 0.14907 0.0
C1214 C 0.60164 0.72074 0.16541 0.0
C1215 C 0.61388 0.72069 0.1455 0.0
H1216 H 0.7156 0.1212 0.66957 0.0
H1217 H 0.78707 0.12561 0.66084 0.0
H1218 H 0.78203 0.15196 0.63011 0.0
H1219 H 0.75786 0.18146 0.61449 0.0
H1220 H 0.68643 0.17752 0.6237 0.0
H1221 H 0.69076 0.14291 0.64493 0.0
C1222 C 0.72998 0.12717 0.66022 0.0
C1223 C 0.75163 0.12215 0.66782 0.0
C1224 C 0.72696 0.14278 0.64297 0.0
C1225 C 0.77021 0.1295 0.65542 0.0
C1226 C 0.76735 0.14481 0.63801 0.0
C1227 C 0.74323 0.17244 0.62033 0.0
C1228 C 0.72197 0.18223 0.6182 0.0
C1229 C 0.74589 0.15282 0.63291 0.0
C1230 C 0.70301 0.17034 0.62538 0.0
C1231 C 0.70549 0.15067 0.63773 0.0
H1232 H 0.31155 0.26287 0.098 0.0
H1233 H 0.33176 0.19445 0.10886 0.0
H1234 H 0.36379 0.20705 0.13071 0.0
H1235 H 0.37647 0.23623 0.15696 0.0
H1236 H 0.35414 0.3042 0.14835 0.0
H1237 H 0.33306 0.29343 0.11502 0.0
C1238 C 0.32366 0.25083 0.1042 0.0
C1239 C 0.31891 0.22783 0.1027 0.0
C1240 C 0.34139 0.2582 0.11765 0.0
C1241 C 0.33487 0.21227 0.11019 0.0
C1242 C 0.35305 0.21948 0.12299 0.0
C1243 C 0.36809 0.24883 0.14691 0.0
C1244 C 0.36645 0.27082 0.15503 0.0
C1245 C 0.35516 0.24223 0.12846 0.0
C1246 C 0.35554 0.28716 0.14221 0.0
C1247 C 0.34322 0.28092 0.12337 0.0
H1248 H 0.84234 0.62342 0.73204 0.0
H1249 H 0.83494 0.65927 0.67002 0.0
H1250 H 0.8667 0.68316 0.67962 0.0
H1251 H 0.8872 0.70062 0.71043 0.0
H1252 H 0.89069 0.6675 0.77458 0.0
H1253 H 0.87064 0.63542 0.75931 0.0
C1254 C 0.84863 0.63562 0.72012 0.0
C1255 C 0.83646 0.63983 0.70049 0.0
C1256 C 0.86576 0.65028 0.72658 0.0
C1257 C 0.8443 0.65575 0.68516 0.0
C1258 C 0.86218 0.66966 0.69087 0.0
C1259 C 0.88421 0.68609 0.7209 0.0
C1260 C 0.88946 0.68688 0.74386 0.0
C1261 C 0.87167 0.66822 0.71232 0.0
C1262 C 0.88627 0.66761 0.75699 0.0
C1263 C 0.87465 0.64928 0.7483 0.0
H1264 H 0.8626 0.3296 0.20498 0.0
H1265 H 0.87507 0.31368 0.2742 0.0
H1266 H 0.85148 0.34499 0.28609 0.0
H1267 H 0.82029 0.36982 0.27666 0.0
H1268 H 0.80298 0.38065 0.20751 0.0
H1269 H 0.83571 0.35914 0.19552 0.0
C1270 C 0.86085 0.33367 0.22262 0.0
C1271 C 0.87033 0.31951 0.23876 0.0
C1272 C 0.84602 0.35064 0.22925 0.0
C1273 C 0.86777 0.32449 0.26158 0.0
C1274 C 0.85418 0.34225 0.26834 0.0
C1275 C 0.82433 0.36827 0.25901 0.0
C1276 C 0.80939 0.37661 0.24293 0.0
C1277 C 0.84213 0.35448 0.25234 0.0
C1278 C 0.81438 0.37426 0.22008 0.0
C1279 C 0.83294 0.3618 0.21327 0.0
H1280 H 0.10593 0.3189 0.77279 0.0
H1281 H 0.11013 0.29855 0.7036 0.0
H1282 H 0.13108 0.33239 0.69462 0.0
H1283 H 0.15827 0.35961 0.7091 0.0
H1284 H 0.15823 0.37602 0.7793 0.0
H1285 H 0.12523 0.3527 0.78518 0.0
C1286 C 0.11053 0.32234 0.75556 0.0
C1287 C 0.10734 0.30583 0.73907 0.0
C1288 C 0.12384 0.34109 0.75083 0.0
C1289 C 0.113 0.31074 0.71673 0.0
C1290 C 0.12515 0.33003 0.71162 0.0
C1291 C 0.15019 0.35903 0.72538 0.0
C1292 C 0.16066 0.36913 0.74382 0.0
C1293 C 0.1323 0.34422 0.7289 0.0
C1294 C 0.15036 0.36822 0.76492 0.0
C1295 C 0.13169 0.35463 0.76833 0.0
H1296 H 0.17715 0.62919 0.23906 0.0
H1297 H 0.17124 0.63944 0.31024 0.0
H1298 H 0.14083 0.66628 0.30414 0.0
H1299 H 0.12213 0.69222 0.27812 0.0
H1300 H 0.12845 0.68198 0.20686 0.0
H1301 H 0.15207 0.64926 0.21337 0.0
C1302 C 0.16861 0.63677 0.25322 0.0
C1303 C 0.17646 0.63277 0.275 0.0
C1304 C 0.15149 0.65235 0.24952 0.0
C1305 C 0.16534 0.64237 0.29333 0.0
C1306 C 0.14815 0.65786 0.28982 0.0
C1307 C 0.12819 0.68243 0.26406 0.0
C1308 C 0.12409 0.68977 0.24206 0.0
C1309 C 0.142 0.66384 0.26793 0.0
C1310 C 0.13156 0.67675 0.22394 0.0
C1311 C 0.14521 0.65814 0.22765 0.0
H1312 H 0.79895 0.86208 0.67459 0.0
H1313 H 0.72936 0.87384 0.68951 0.0
H1314 H 0.7183 0.85045 0.65778 0.0
H1315 H 0.72845 0.82089 0.63133 0.0
H1316 H 0.79799 0.80496 0.62024 0.0
H1317 H 0.80917 0.83598 0.64451 0.0
C1318 C 0.7814 0.8601 0.67035 0.0
C1319 C 0.76494 0.86948 0.68426 0.0
C1320 C 0.77523 0.84555 0.65298 0.0
C1321 C 0.74224 0.86662 0.67896 0.0
C1322 C 0.73595 0.85317 0.66094 0.0
C1323 C 0.74605 0.82466 0.63366 0.0
C1324 C 0.76239 0.81057 0.62427 0.0
C1325 C 0.75228 0.84164 0.64861 0.0
C1326 C 0.78514 0.8155 0.62754 0.0
C1327 C 0.79152 0.83315 0.64147 0.0
H1328 H 0.6323 0.2722 0.16929 0.0
H1329 H 0.62687 0.20448 0.19353 0.0
H1330 H 0.65147 0.19134 0.16353 0.0
H1331 H 0.68119 0.20068 0.13676 0.0
H1332 H 0.69071 0.26934 0.11678 0.0
H1333 H 0.65769 0.28059 0.1382 0.0
C1334 C 0.63578 0.25446 0.16736 0.0
C1335 C 0.62797 0.2393 0.18351 0.0
C1336 C 0.65111 0.24732 0.15104 0.0
C1337 C 0.63282 0.21639 0.1812 0.0
C1338 C 0.64703 0.20893 0.1642 0.0
C1339 C 0.67546 0.21793 0.13644 0.0
C1340 C 0.6883 0.23422 0.12543 0.0
C1341 C 0.65732 0.22444 0.14991 0.0
C1342 C 0.68103 0.25659 0.12531 0.0
C1343 C 0.66226 0.26303 0.13765 0.0
H1344 H 0.22654 0.1733 0.60845 0.0
H1345 H 0.29865 0.176 0.60826 0.0
H1346 H 0.30028 0.14222 0.63101 0.0
H1347 H 0.28099 0.12095 0.66053 0.0
H1348 H 0.20899 0.11941 0.66214 0.0
H1349 H 0.20742 0.14301 0.62881 0.0
C1350 C 0.2426 0.16586 0.61252 0.0
C1351 C 0.2624 0.17757 0.6075 0.0
C1352 C 0.24339 0.14684 0.62629 0.0
C1353 C 0.28313 0.16753 0.61228 0.0
C1354 C 0.28408 0.14831 0.62555 0.0
C1355 C 0.26503 0.12475 0.65276 0.0
C1356 C 0.24515 0.11905 0.66394 0.0
C1357 C 0.26431 0.13906 0.63416 0.0
C1358 C 0.2245 0.12376 0.6538 0.0
C1359 C 0.22361 0.13759 0.63495 0.0
H1360 H 0.32378 0.76433 0.10588 0.0
H1361 H 0.28346 0.70558 0.09472 0.0
H1362 H 0.3127 0.68194 0.11046 0.0
H1363 H 0.34137 0.68105 0.13971 0.0
H1364 H 0.37976 0.74016 0.15392 0.0
H1365 H 0.36068 0.76033 0.12399 0.0
C1366 C 0.32195 0.74626 0.10579 0.0
C1367 C 0.30123 0.73672 0.10012 0.0
C1368 C 0.33845 0.73285 0.11592 0.0
C1369 C 0.29911 0.71328 0.09968 0.0
C1370 C 0.31577 0.69976 0.10882 0.0
C1371 C 0.34663 0.69783 0.13511 0.0
C1372 C 0.36114 0.70947 0.1494 0.0
C1373 C 0.33443 0.70967 0.11893 0.0
C1374 C 0.36826 0.73102 0.14327 0.0
C1375 C 0.35693 0.74274 0.12647 0.0
H1376 H 0.77474 0.1846 0.37206 0.0
H1377 H 0.7045 0.16987 0.36532 0.0
H1378 H 0.71333 0.13637 0.34347 0.0
H1379 H 0.74053 0.11799 0.31847 0.0
H1380 H 0.81075 0.13272 0.32522 0.0
H1381 H 0.80263 0.15901 0.35554 0.0
C1382 C 0.76148 0.17347 0.36658 0.0
C1383 C 0.73906 0.17973 0.3698 0.0
C1384 C 0.7667 0.15443 0.35385 0.0
C1385 C 0.72189 0.16528 0.36292 0.0
C1386 C 0.72693 0.14627 0.35024 0.0
C1387 C 0.75408 0.12615 0.3274 0.0
C1388 C 0.77611 0.12383 0.31956 0.0
C1389 C 0.7492 0.14157 0.34443 0.0
C1390 C 0.79366 0.1343 0.3311 0.0
C1391 C 0.78898 0.14958 0.3482 0.0
H1392 H 0.33865 0.22132 0.87691 0.0
H1393 H 0.32896 0.29256 0.88363 0.0
H1394 H 0.36297 0.29949 0.86216 0.0
H1395 H 0.38576 0.28545 0.83125 0.0
H1396 H 0.39085 0.2143 0.81987 0.0
H1397 H 0.36928 0.20708 0.85376 0.0
C1398 C 0.3446 0.23833 0.87463 0.0
C1399 C 0.33097 0.25643 0.88101 0.0
C1400 C 0.36316 0.24216 0.86079 0.0
C1401 C 0.33898 0.27838 0.87831 0.0
C1402 C 0.35831 0.28234 0.86583 0.0
C1403 C 0.38306 0.26834 0.83675 0.0
C1404 C 0.38893 0.25045 0.82261 0.0
C1405 C 0.36919 0.2644 0.85526 0.0
C1406 C 0.38584 0.22838 0.83019 0.0
C1407 C 0.37331 0.22425 0.84947 0.0
H1408 H 0.24917 0.81664 0.39397 0.0
H1409 H 0.19302 0.77289 0.38151 0.0
H1410 H 0.17454 0.80223 0.36021 0.0
H1411 H 0.18071 0.83437 0.33545 0.0
H1412 H 0.23805 0.87668 0.3454 0.0
H1413 H 0.24927 0.85447 0.37786 0.0
C1414 C 0.23253 0.81376 0.3873 0.0
C1415 C 0.22305 0.79221 0.38826 0.0
C1416 C 0.22232 0.83048 0.37432 0.0
C1417 C 0.20113 0.78905 0.38025 0.0
C1418 C 0.19052 0.80584 0.36799 0.0
C1419 C 0.19485 0.83948 0.34565 0.0
C1420 C 0.2088 0.85673 0.33803 0.0
C1421 C 0.20184 0.82583 0.36339 0.0
C1422 C 0.22712 0.86338 0.3511 0.0
C1423 C 0.23377 0.85039 0.36939 0.0
H1424 H 0.61922 0.78115 0.81445 0.0
H1425 H 0.6254 0.71175 0.83311 0.0
H1426 H 0.64332 0.72251 0.86824 0.0
H1427 H 0.66832 0.75036 0.88535 0.0
H1428 H 0.66461 0.81929 0.86479 0.0
H1429 H 0.63384 0.81043 0.83944 0.0
C1430 C 0.62348 0.76851 0.82679 0.0
C1431 C 0.62175 0.74574 0.82108 0.0
C1432 C 0.63456 0.77483 0.84648 0.0
C1433 C 0.62687 0.72939 0.83713 0.0
C1434 C 0.63736 0.73555 0.85711 0.0
C1435 C 0.65972 0.76362 0.87638 0.0
C1436 C 0.6689 0.78526 0.87634 0.0
C1437 C 0.64299 0.75806 0.8609 0.0
C1438 C 0.65779 0.80248 0.8649 0.0
C1439 C 0.64049 0.79729 0.85005 0.0
H1440 H 0.11125 0.18926 0.18897 0.0
H1441 H 0.0895 0.19693 0.25733 0.0
H1442 H 0.11245 0.16499 0.26861 0.0
H1443 H 0.14465 0.14084 0.26043 0.0
H1444 H 0.1707 0.13751 0.19327 0.0
H1445 H 0.13965 0.16073 0.17976 0.0
C1446 C 0.11083 0.18324 0.20611 0.0
C1447 C 0.09875 0.19523 0.22235 0.0
C1448 C 0.12527 0.16586 0.21269 0.0
C1449 C 0.09866 0.18776 0.24462 0.0
C1450 C 0.11196 0.16969 0.25108 0.0
C1451 C 0.14313 0.14484 0.24277 0.0
C1452 C 0.15978 0.13773 0.22781 0.0
C1453 C 0.1263 0.15951 0.23552 0.0
C1454 C 0.15801 0.14305 0.20501 0.0
C1455 C 0.1404 0.15642 0.19737 0.0
H1456 H 0.31004 0.70008 0.74939 0.0
H1457 H 0.36432 0.66429 0.71804 0.0
H1458 H 0.33878 0.63394 0.70761 0.0
H1459 H 0.30046 0.61818 0.70661 0.0
H1460 H 0.24739 0.65335 0.74097 0.0
H1461 H 0.27292 0.68321 0.75098 0.0
C1462 C 0.31625 0.68558 0.74035 0.0
C1463 C 0.33887 0.68439 0.73437 0.0
C1464 C 0.30166 0.6681 0.73487 0.0
C1465 C 0.34689 0.66544 0.7229 0.0
C1466 C 0.3323 0.64816 0.71686 0.0
C1467 C 0.29458 0.63234 0.71637 0.0
C1468 C 0.27197 0.63366 0.72268 0.0
C1469 C 0.30958 0.64938 0.72265 0.0
C1470 C 0.26462 0.65196 0.73559 0.0
C1471 C 0.27922 0.66912 0.7414 0.0
H1472 H 0.83408 0.83339 0.21004 0.0
H1473 H 0.84915 0.83952 0.28032 0.0
H1474 H 0.88226 0.8158 0.27563 0.0
H1475 H 0.90304 0.78872 0.25258 0.0
H1476 H 0.88941 0.78404 0.1819 0.0
H1477 H 0.85996 0.81229 0.18541 0.0
C1478 C 0.84498 0.82986 0.22414 0.0
C1479 C 0.83926 0.83774 0.24552 0.0
C1480 C 0.86414 0.81656 0.22121 0.0
C1481 C 0.8534 0.83345 0.26375 0.0
C1482 C 0.87223 0.81989 0.26108 0.0
C1483 C 0.89418 0.79459 0.23785 0.0
C1484 C 0.89813 0.7843 0.2171 0.0
C1485 C 0.87729 0.81073 0.24004 0.0
C1486 C 0.88667 0.79189 0.19803 0.0
C1487 C 0.86964 0.80781 0.20009 0.0
H1488 H 0.64096 0.35114 0.71893 0.0
H1489 H 0.65294 0.35493 0.78996 0.0
H1490 H 0.67687 0.38774 0.78457 0.0
H1491 H 0.69948 0.41039 0.75893 0.0
H1492 H 0.68732 0.40702 0.68786 0.0
H1493 H 0.65743 0.37985 0.69396 0.0
C1494 C 0.64838 0.35963 0.73318 0.0
C1495 C 0.64565 0.35075 0.75473 0.0
C1496 C 0.66191 0.37855 0.72994 0.0
C1497 C 0.65506 0.36167 0.77324 0.0
C1498 C 0.66871 0.38033 0.77015 0.0
C1499 C 0.68965 0.40434 0.74489 0.0
C1500 C 0.69578 0.41029 0.72302 0.0
C1501 C 0.67298 0.38829 0.74849 0.0
C1502 C 0.68288 0.40265 0.70489 0.0
C1503 C 0.666 0.38683 0.70834 0.0
H1504 H 0.11869 0.77429 0.73189 0.0
H1505 H 0.10118 0.79511 0.79884 0.0
H1506 H 0.129 0.82524 0.79682 0.0
H1507 H 0.162 0.84194 0.77789 0.0
H1508 H 0.18237 0.81664 0.71341 0.0
H1509 H 0.14982 0.79181 0.71251 0.0
C1510 C 0.12067 0.78564 0.74595 0.0
C1511 C 0.10807 0.78233 0.76558 0.0
C1512 C 0.1375 0.80187 0.74516 0.0
C1513 C 0.11064 0.79733 0.78352 0.0
C1514 C 0.12673 0.81438 0.78245 0.0
C1515 C 0.159 0.83118 0.76356 0.0
C1516 C 0.17433 0.83097 0.74568 0.0
C1517 C 0.14083 0.81623 0.76368 0.0
C1518 C 0.17064 0.81694 0.72726 0.0
C1519 C 0.15211 0.8028 0.72678 0.0
H1520 H 0.62914 0.66066 0.27384 0.0
H1521 H 0.67024 0.693 0.22414 0.0
H1522 H 0.70048 0.66643 0.2313 0.0
H1523 H 0.71663 0.63724 0.25448 0.0
H1524 H 0.67755 0.6065 0.30681 0.0
H1525 H 0.64492 0.62894 0.29573 0.0
C1526 C 0.64457 0.66144 0.2643 0.0
C1527 C 0.6476 0.67857 0.24844 0.0
C1528 C 0.66223 0.64662 0.26918 0.0
C1529 C 0.66768 0.67986 0.23638 0.0
C1530 C 0.68495 0.66476 0.24053 0.0
C1531 C 0.7009 0.63521 0.26334 0.0
C1532 C 0.69953 0.62043 0.28158 0.0
C1533 C 0.68264 0.64856 0.25734 0.0
C1534 C 0.679 0.61781 0.29272 0.0
C1535 C 0.66041 0.63073 0.28646 0.0
H1536 H 0.86658 0.22135 0.72909 0.0
H1537 H 0.89862 0.18507 0.78265 0.0
H1538 H 0.87261 0.15377 0.77718 0.0
H1539 H 0.83717 0.13944 0.7607 0.0
H1540 H 0.8028 0.17926 0.71128 0.0
H1541 H 0.83302 0.20676 0.7118 0.0
C1542 C 0.86817 0.20641 0.73932 0.0
C1543 C 0.88428 0.20558 0.75639 0.0
C1544 C 0.85234 0.1894 0.73713 0.0
C1545 C 0.88635 0.18606 0.76934 0.0
C1546 C 0.87128 0.16832 0.76643 0.0
C1547 C 0.83658 0.15407 0.74995 0.0
C1548 C 0.81795 0.15762 0.73607 0.0
C1549 C 0.85363 0.17024 0.75099 0.0
C1550 C 0.81701 0.17652 0.72223 0.0
C1551 C 0.83427 0.19211 0.72245 0.0
H1552 H 0.34755 0.34468 0.26846 0.0
H1553 H 0.34389 0.34902 0.19657 0.0
H1554 H 0.32223 0.38369 0.19941 0.0
H1555 H 0.29751 0.40703 0.22245 0.0
H1556 H 0.3009 0.40277 0.29439 0.0
H1557 H 0.33041 0.37458 0.2916 0.0
C1558 C 0.34269 0.35379 0.25351 0.0
C1559 C 0.34698 0.34451 0.23236 0.0
C1560 C 0.33019 0.37363 0.25533 0.0
C1561 C 0.34068 0.35611 0.21297 0.0
C1562 C 0.32823 0.37581 0.21462 0.0
C1563 C 0.3055 0.40067 0.23748 0.0
C1564 C 0.29683 0.40651 0.25853 0.0
C1565 C 0.32191 0.384 0.2357 0.0
C1566 C 0.30733 0.39847 0.27797 0.0
C1567 C 0.32394 0.38204 0.27638 0.0
H1568 H 0.23859 0.13458 0.1384 0.0
H1569 H 0.28301 0.17441 0.17898 0.0
H1570 H 0.27817 0.14856 0.2103 0.0
H1571 H 0.25713 0.11844 0.22759 0.0
H1572 H 0.20872 0.08121 0.18911 0.0
H1573 H 0.21955 0.10184 0.15529 0.0
C1574 C 0.24758 0.13717 0.15396 0.0
C1575 C 0.26114 0.15621 0.15657 0.0
C1576 C 0.24378 0.12287 0.17225 0.0
C1577 C 0.27252 0.15977 0.17677 0.0
C1578 C 0.26968 0.14509 0.19464 0.0
C1579 C 0.24918 0.11454 0.21172 0.0
C1580 C 0.23195 0.09859 0.21085 0.0
C1581 C 0.25471 0.12713 0.19281 0.0
C1582 C 0.22201 0.09348 0.19017 0.0
C1583 C 0.22808 0.1054 0.1709 0.0
H1584 H 0.3269 0.77122 0.64745 0.0
H1585 H 0.29939 0.705 0.65567 0.0
H1586 H 0.33265 0.69357 0.6769 0.0
H1587 H 0.36866 0.70318 0.69446 0.0
H1588 H 0.39229 0.77125 0.69201 0.0
H1589 H 0.36216 0.78109 0.66597 0.0
C1590 C 0.32827 0.75428 0.65386 0.0
C1591 C 0.31087 0.73894 0.65014 0.0
C1592 C 0.34699 0.74813 0.66653 0.0
C1593 C 0.31258 0.7171 0.65864 0.0
C1594 C 0.33163 0.71054 0.67054 0.0
C1595 C 0.36733 0.72005 0.68789 0.0
C1596 C 0.38266 0.73648 0.69476 0.0
C1597 C 0.34887 0.72597 0.67467 0.0
C1598 C 0.38078 0.75836 0.68652 0.0
C1599 C 0.36342 0.76401 0.67195 0.0
H1600 H 0.73803 0.86038 0.22884 0.0
H1601 H 0.79542 0.88061 0.19011 0.0
H1602 H 0.78412 0.85512 0.1598 0.0
H1603 H 0.76036 0.82334 0.14687 0.0
H1604 H 0.70525 0.8018 0.18824 0.0
H1605 H 0.7131 0.83159 0.21501 0.0
C1606 C 0.74791 0.85949 0.21361 0.0
C1607 C 0.76761 0.87212 0.21173 0.0
C1608 C 0.74179 0.84435 0.19687 0.0
C1609 C 0.78013 0.87104 0.19186 0.0
C1610 C 0.77378 0.85633 0.17467 0.0
C1611 C 0.74991 0.82555 0.16156 0.0
C1612 C 0.73236 0.81042 0.16578 0.0
C1613 C 0.75502 0.84234 0.17733 0.0
C1614 C 0.71896 0.81318 0.18487 0.0
C1615 C 0.72343 0.83018 0.20014 0.0
H1616 H 0.62071 0.25186 0.73158 0.0
H1617 H 0.59492 0.31221 0.70153 0.0
H1618 H 0.61644 0.30446 0.66731 0.0
H1619 H 0.64659 0.28287 0.64825 0.0
H1620 H 0.67445 0.2249 0.68102 0.0
H1621 H 0.64799 0.22916 0.7119 0.0
C1622 C 0.6195 0.26316 0.71739 0.0
C1623 C 0.6065 0.28266 0.71906 0.0
C1624 C 0.63247 0.25904 0.69838 0.0
C1625 C 0.60482 0.29704 0.70055 0.0
C1626 C 0.61727 0.29271 0.6811 0.0
C1627 C 0.64646 0.27103 0.66202 0.0
C1628 C 0.6623 0.25362 0.66262 0.0
C1629 C 0.63175 0.27414 0.68015 0.0
C1630 C 0.66234 0.23841 0.68045 0.0
C1631 C 0.64729 0.24086 0.69805 0.0
H1632 H 0.20103 0.84201 0.79129 0.0
H1633 H 0.25576 0.87959 0.81892 0.0
H1634 H 0.26545 0.84789 0.84329 0.0
H1635 H 0.26086 0.808 0.85312 0.0
H1636 H 0.21139 0.76856 0.81828 0.0
H1637 H 0.19755 0.80206 0.79944 0.0
C1638 C 0.21496 0.84324 0.80271 0.0
C1639 C 0.22758 0.86296 0.80351 0.0
C1640 C 0.22167 0.82436 0.81484 0.0
C1641 C 0.24557 0.8646 0.81846 0.0
C1642 C 0.2513 0.84639 0.83205 0.0
C1643 C 0.24704 0.80677 0.84142 0.0
C1644 C 0.2369 0.78588 0.83737 0.0
C1645 C 0.23994 0.82591 0.82977 0.0
C1646 C 0.2193 0.78446 0.82187 0.0
C1647 C 0.21134 0.80361 0.81113 0.0
H1648 H 0.60586 0.76068 0.29406 0.0
H1649 H 0.60876 0.68895 0.30188 0.0
H1650 H 0.6381 0.69286 0.33011 0.0
H1651 H 0.66399 0.71676 0.35137 0.0
H1652 H 0.65859 0.7885 0.34656 0.0
H1653 H 0.62923 0.7847 0.31813 0.0
C1654 C 0.6127 0.74599 0.30228 0.0
C1655 C 0.60522 0.72461 0.29608 0.0
C1656 C 0.62924 0.7484 0.31874 0.0
C1657 C 0.61411 0.7056 0.30669 0.0
C1658 C 0.63101 0.70781 0.32264 0.0
C1659 C 0.65629 0.73147 0.34409 0.0
C1660 C 0.66342 0.75283 0.35065 0.0
C1661 C 0.63889 0.72911 0.32856 0.0
C1662 C 0.65327 0.77191 0.34149 0.0
C1663 C 0.63653 0.76973 0.32535 0.0
H1664 H 0.73846 0.12307 0.77464 0.0
H1665 H 0.80142 0.09691 0.7984 0.0
H1666 H 0.79934 0.12145 0.83126 0.0
H1667 H 0.78133 0.15327 0.85105 0.0
H1668 H 0.72013 0.18106 0.82492 0.0
H1669 H 0.71972 0.15297 0.79507 0.0
C1670 C 0.75162 0.1225 0.78713 0.0
C1671 C 0.77015 0.10835 0.784 0.0
C1672 C 0.75069 0.13715 0.80541 0.0
C1673 C 0.78695 0.10765 0.80045 0.0
C1674 C 0.78585 0.1218 0.81914 0.0
C1675 C 0.76786 0.15291 0.8389 0.0
C1676 C 0.75079 0.16905 0.83992 0.0
C1677 C 0.7681 0.13707 0.82145 0.0
C1678 C 0.7334 0.16869 0.82422 0.0
C1679 C 0.73318 0.15269 0.80723 0.0
H1680 H 0.3394 0.25404 0.25459 0.0
H1681 H 0.38748 0.28738 0.29689 0.0
H1682 H 0.36274 0.28208 0.32931 0.0
H1683 H 0.32625 0.26968 0.34496 0.0
H1684 H 0.27756 0.23965 0.30091 0.0
H1685 H 0.30377 0.24202 0.26968 0.0
C1686 C 0.34459 0.26017 0.27087 0.0
C1687 C 0.36521 0.2712 0.2733 0.0
C1688 C 0.33009 0.2577 0.28907 0.0
C1689 C 0.37166 0.27885 0.29459 0.0
C1690 C 0.3575 0.27587 0.31308 0.0
C1691 C 0.32158 0.26346 0.32855 0.0
C1692 C 0.30011 0.25441 0.32515 0.0
C1693 C 0.33652 0.26555 0.31045 0.0
C1694 C 0.294 0.24671 0.30382 0.0
C1695 C 0.30895 0.24805 0.286 0.0
H1696 H 0.2014 0.23026 0.10598 0.0
H1697 H 0.20798 0.1613 0.12603 0.0
H1698 H 0.18283 0.16785 0.15782 0.0
H1699 H 0.16166 0.19444 0.18158 0.0
H1700 H 0.15196 0.26223 0.15899 0.0
H1701 H 0.17606 0.25522 0.12663 0.0
C1702 C 0.19675 0.21657 0.11699 0.0
C1703 C 0.2063 0.19537 0.11381 0.0
C1704 C 0.1822 0.22044 0.13495 0.0
C1705 C 0.20046 0.17767 0.12811 0.0
C1706 C 0.18636 0.1815 0.1464 0.0
C1707 C 0.16462 0.20746 0.16936 0.0
C1708 C 0.15523 0.22875 0.17257 0.0
C1709 C 0.17759 0.20298 0.15028 0.0
C1710 C 0.15913 0.2457 0.15677 0.0
C1711 C 0.1728 0.24169 0.13828 0.0
H1712 H 0.19782 0.7675 0.87479 0.0
H1713 H 0.20583 0.69607 0.88116 0.0
H1714 H 0.17789 0.69 0.8518 0.0
H1715 H 0.15514 0.7052 0.82093 0.0
H1716 H 0.15182 0.77658 0.81103 0.0
H1717 H 0.17362 0.78269 0.84524 0.0
C1718 C 0.19285 0.75063 0.87025 0.0
C1719 C 0.20359 0.73221 0.88018 0.0
C1720 C 0.178 0.74735 0.85233 0.0
C1721 C 0.19755 0.71043 0.87379 0.0
C1722 C 0.18181 0.70699 0.85686 0.0
C1723 C 0.15926 0.72204 0.82638 0.0
C1724 C 0.1523 0.74043 0.81355 0.0
C1725 C 0.17266 0.72533 0.8454 0.0
C1726 C 0.15745 0.76223 0.8206 0.0
C1727 C 0.16973 0.76569 0.84019 0.0
H1728 H 0.73445 0.70963 0.41314 0.0
H1729 H 0.66381 0.70849 0.39875 0.0
H1730 H 0.6696 0.67839 0.37153 0.0
H1731 H 0.69598 0.6582 0.34662 0.0
H1732 H 0.76642 0.65872 0.36187 0.0
H1733 H 0.75964 0.68343 0.39391 0.0
C1734 C 0.72025 0.70221 0.40459 0.0
C1735 C 0.69883 0.71136 0.40763 0.0
C1736 C 0.7238 0.68531 0.38869 0.0
C1737 C 0.68046 0.7016 0.3967 0.0
C1738 C 0.68383 0.68464 0.38089 0.0
C1739 C 0.70967 0.66334 0.35738 0.0
C1740 C 0.73166 0.6571 0.35196 0.0
C1741 C 0.70558 0.67729 0.37588 0.0
C1742 C 0.74939 0.66352 0.36589 0.0
C1743 C 0.74552 0.67765 0.38411 0.0
H1744 H 0.79805 0.18358 0.87302 0.0
H1745 H 0.80585 0.24637 0.90747 0.0
H1746 H 0.83468 0.25789 0.8807 0.0
H1747 H 0.85206 0.25291 0.84369 0.0
H1748 H 0.83878 0.19282 0.80593 0.0
H1749 H 0.81759 0.17736 0.83738 0.0
C1750 C 0.80669 0.19941 0.87499 0.0
C1751 C 0.80022 0.21404 0.89217 0.0
C1752 C 0.82177 0.2066 0.85848 0.0
C1753 C 0.81097 0.23478 0.89448 0.0
C1754 C 0.82718 0.24145 0.87901 0.0
C1755 C 0.84493 0.23624 0.84263 0.0
C1756 C 0.84678 0.22402 0.82263 0.0
C1757 C 0.83188 0.22796 0.86034 0.0
C1758 C 0.8373 0.20255 0.82119 0.0
C1759 C 0.82525 0.19371 0.83915 0.0
H1760 H 0.29685 0.29948 0.35967 0.0
H1761 H 0.23086 0.31229 0.38576 0.0
H1762 H 0.22447 0.34043 0.35658 0.0
H1763 H 0.23614 0.35807 0.32141 0.0
H1764 H 0.29977 0.34056 0.29199 0.0
H1765 H 0.30855 0.31709 0.32439 0.0
C1766 C 0.28131 0.30886 0.3592 0.0
C1767 C 0.26444 0.30427 0.37491 0.0
C1768 C 0.2772 0.32367 0.34146 0.0
C1769 C 0.24412 0.31595 0.37394 0.0
C1770 C 0.24042 0.3318 0.35716 0.0
C1771 C 0.25203 0.34931 0.32222 0.0
C1772 C 0.26733 0.3511 0.30443 0.0
C1773 C 0.25658 0.33528 0.34046 0.0
C1774 C 0.28772 0.3394 0.30549 0.0
C1775 C 0.29277 0.32606 0.32403 0.0
H1776 H 0.80031 0.76181 0.11356 0.0
H1777 H 0.75157 0.7273 0.15423 0.0
H1778 H 0.77974 0.72024 0.18272 0.0
H1779 H 0.81767 0.72588 0.19729 0.0
H1780 H 0.86752 0.7573 0.15577 0.0
H1781 H 0.83957 0.76357 0.12634 0.0
C1782 C 0.79596 0.75252 0.12854 0.0
C1783 C 0.77377 0.74552 0.13196 0.0
C1784 C 0.8124 0.74812 0.14476 0.0
C1785 C 0.76842 0.7332 0.15129 0.0
C1786 C 0.78452 0.72915 0.16765 0.0
C1787 C 0.82235 0.73396 0.1817 0.0
C1788 C 0.84435 0.7414 0.17863 0.0
C1789 C 0.80642 0.73692 0.16476 0.0
C1790 C 0.85054 0.75153 0.15836 0.0
C1791 C 0.8346 0.75512 0.14161 0.0
H1792 H 0.75051 0.35643 0.65919 0.0
H1793 H 0.68987 0.3461 0.69703 0.0
H1794 H 0.67588 0.3207 0.66821 0.0
H1795 H 0.68206 0.29944 0.63357 0.0
H1796 H 0.74509 0.30476 0.59912 0.0
H1797 H 0.75688 0.33464 0.62476 0.0
C1798 C 0.73416 0.34876 0.66098 0.0
C1799 C 0.72116 0.35323 0.68008 0.0
C1800 C 0.72664 0.33346 0.6448 0.0
C1801 C 0.70015 0.34293 0.68244 0.0
C1802 C 0.69212 0.32846 0.66595 0.0
C1803 C 0.69817 0.30751 0.63152 0.0
C1804 C 0.7126 0.30042 0.61443 0.0
C1805 C 0.70534 0.3234 0.64722 0.0
C1806 C 0.73366 0.31041 0.61204 0.0
C1807 C 0.74044 0.32726 0.6268 0.0
H1808 H 0.25756 0.64593 0.64729 0.0
H1809 H 0.19264 0.67484 0.65988 0.0
H1810 H 0.19831 0.70172 0.62958 0.0
H1811 H 0.22388 0.72064 0.60417 0.0
H1812 H 0.2906 0.69501 0.59424 0.0
H1813 H 0.28202 0.66286 0.61826 0.0
C1814 C 0.24449 0.65776 0.64288 0.0
C1815 C 0.22471 0.65854 0.65562 0.0
C1816 C 0.24832 0.67383 0.62606 0.0
C1817 C 0.20797 0.67407 0.65019 0.0
C1818 C 0.21124 0.68944 0.63295 0.0
C1819 C 0.23637 0.70771 0.6068 0.0
C1820 C 0.25788 0.71028 0.59766 0.0
C1821 C 0.23167 0.69002 0.62142 0.0
C1822 C 0.27388 0.69337 0.60104 0.0
C1823 C 0.26905 0.67513 0.615 0.0
H1824 H 0.83025 0.84378 0.79659 0.0
H1825 H 0.85052 0.85146 0.72768 0.0
H1826 H 0.88245 0.82673 0.73391 0.0
H1827 H 0.90187 0.79972 0.75775 0.0
H1828 H 0.8829 0.79275 0.82701 0.0
H1829 H 0.85355 0.82095 0.82215 0.0
C1830 C 0.8418 0.8401 0.78306 0.0
C1831 C 0.83794 0.84897 0.76163 0.0
C1832 C 0.86039 0.82624 0.78689 0.0
C1833 C 0.85317 0.84461 0.74427 0.0
C1834 C 0.87141 0.83053 0.74782 0.0
C1835 C 0.89177 0.80497 0.77193 0.0
C1836 C 0.89426 0.79414 0.79259 0.0
C1837 C 0.87488 0.8209 0.76891 0.0
C1838 C 0.88125 0.80098 0.81095 0.0
C1839 C 0.86428 0.81687 0.80809 0.0
H1840 H 0.64849 0.32548 0.28468 0.0
H1841 H 0.65037 0.32791 0.21261 0.0
H1842 H 0.67326 0.36188 0.21408 0.0
H1843 H 0.69638 0.3878 0.23604 0.0
H1844 H 0.69299 0.38672 0.30811 0.0
H1845 H 0.66611 0.35582 0.30662 0.0
C1846 C 0.65373 0.33366 0.26938 0.0
C1847 C 0.64829 0.32414 0.24859 0.0
C1848 C 0.66629 0.35347 0.2704 0.0
C1849 C 0.65468 0.33496 0.22877 0.0
C1850 C 0.66767 0.35434 0.22962 0.0
C1851 C 0.68911 0.38128 0.25137 0.0
C1852 C 0.69669 0.38924 0.27213 0.0
C1853 C 0.67401 0.3634 0.25034 0.0
C1854 C 0.68722 0.38088 0.29194 0.0
C1855 C 0.67216 0.36298 0.29109 0.0
H1856 H 0.18628 0.15325 0.77993 0.0
H1857 H 0.17042 0.14524 0.71003 0.0
H1858 H 0.13502 0.1653 0.71544 0.0
H1859 H 0.11102 0.18885 0.73928 0.0
H1860 H 0.12587 0.19535 0.80961 0.0
H1861 H 0.15899 0.1717 0.80508 0.0
C1862 C 0.17481 0.15566 0.76605 0.0
C1863 C 0.18079 0.14818 0.74459 0.0
C1864 C 0.15439 0.16682 0.76941 0.0
C1865 C 0.16596 0.15103 0.72665 0.0
C1866 C 0.14582 0.16248 0.72974 0.0
C1867 C 0.12116 0.18446 0.7537 0.0
C1868 C 0.11614 0.19377 0.77469 0.0
C1869 C 0.14015 0.17093 0.75093 0.0
C1870 C 0.12931 0.18812 0.79332 0.0
C1871 C 0.14841 0.17484 0.79068 0.0
H1872 H 0.32416 0.63074 0.21531 0.0
H1873 H 0.3448 0.66157 0.27709 0.0
H1874 H 0.32647 0.63187 0.29857 0.0
H1875 H 0.29733 0.60286 0.29923 0.0
H1876 H 0.27359 0.57494 0.2372 0.0
H1877 H 0.30119 0.59663 0.21629 0.0
C1878 C 0.32536 0.6303 0.23344 0.0
C1879 C 0.33568 0.64802 0.24476 0.0
C1880 C 0.31419 0.61359 0.24558 0.0
C1881 C 0.33699 0.6478 0.2682 0.0
C1882 C 0.32642 0.63093 0.28044 0.0
C1883 C 0.29912 0.60069 0.28127 0.0
C1884 C 0.28363 0.58745 0.26965 0.0
C1885 C 0.31396 0.61443 0.2693 0.0
C1886 C 0.28561 0.58496 0.24638 0.0
C1887 C 0.3011 0.59767 0.23441 0.0
H1888 H 0.84874 0.14588 0.20937 0.0
H1889 H 0.8471 0.15786 0.28045 0.0
H1890 H 0.87671 0.18593 0.27672 0.0
H1891 H 0.89799 0.21117 0.25246 0.0
H1892 H 0.89873 0.20056 0.18109 0.0
H1893 H 0.87475 0.16756 0.18551 0.0
C1894 C 0.85512 0.1545 0.22397 0.0
C1895 C 0.84568 0.15032 0.24507 0.0
C1896 C 0.87187 0.1708 0.22157 0.0
C1897 C 0.85425 0.16104 0.26408 0.0
C1898 C 0.87105 0.17709 0.26192 0.0
C1899 C 0.8935 0.20111 0.23799 0.0
C1900 C 0.89993 0.20816 0.21652 0.0
C1901 C 0.87933 0.18268 0.24066 0.0
C1902 C 0.89412 0.1952 0.1978 0.0
C1903 C 0.88017 0.17656 0.20031 0.0
H1904 H 0.26141 0.3508 0.76707 0.0
H1905 H 0.30084 0.3962 0.72705 0.0
H1906 H 0.33325 0.37137 0.73068 0.0
H1907 H 0.34911 0.33501 0.74218 0.0
H1908 H 0.30762 0.28773 0.77761 0.0
H1909 H 0.2769 0.3148 0.77827 0.0
C1910 C 0.27707 0.35536 0.75915 0.0
C1911 C 0.27863 0.37515 0.74653 0.0
C1912 C 0.29509 0.34044 0.76015 0.0
C1913 C 0.2992 0.38098 0.73677 0.0
C1914 C 0.31766 0.36672 0.7387 0.0
C1915 C 0.33336 0.33078 0.75017 0.0
C1916 C 0.3305 0.30952 0.75985 0.0
C1917 C 0.31559 0.34612 0.74983 0.0
C1918 C 0.31004 0.30399 0.76993 0.0
C1919 C 0.29257 0.31947 0.7704 0.0
H1920 H 0.14585 0.84603 0.27094 0.0
H1921 H 0.17377 0.84884 0.20453 0.0
H1922 H 0.13952 0.83237 0.18905 0.0
H1923 H 0.1066 0.80886 0.19596 0.0
H1924 H 0.08286 0.79985 0.26346 0.0
H1925 H 0.10971 0.82755 0.27702 0.0
C1926 C 0.14407 0.84352 0.25302 0.0
C1927 C 0.16209 0.84835 0.2388 0.0
C1928 C 0.12506 0.8327 0.24456 0.0
C1929 C 0.15997 0.84503 0.21567 0.0
C1930 C 0.14045 0.8356 0.20689 0.0
C1931 C 0.10663 0.81382 0.21345 0.0
C1932 C 0.093 0.80234 0.22878 0.0
C1933 C 0.12349 0.82815 0.22134 0.0
C1934 C 0.09328 0.80857 0.25144 0.0
C1935 C 0.10887 0.82411 0.25921 0.0
H1936 H 0.7017 0.60957 0.71233 0.0
H1937 H 0.75036 0.62901 0.76198 0.0
H1938 H 0.72296 0.65303 0.78021 0.0
H1939 H 0.68784 0.67379 0.77772 0.0
H1940 H 0.63874 0.65533 0.72833 0.0
H1941 H 0.66334 0.62547 0.71449 0.0
C1942 C 0.70596 0.61845 0.72758 0.0
C1943 C 0.72803 0.61784 0.73566 0.0
C1944 C 0.69016 0.63271 0.7378 0.0
C1945 C 0.73349 0.62949 0.75536 0.0
C1946 C 0.71788 0.64331 0.76575 0.0
C1947 C 0.68229 0.66271 0.76442 0.0
C1948 C 0.66173 0.66669 0.75393 0.0
C1949 C 0.69656 0.64588 0.75647 0.0
C1950 C 0.65454 0.65235 0.73673 0.0
C1951 C 0.66868 0.63546 0.72867 0.0
H1952 H 0.78882 0.84588 0.85013 0.0
H1953 H 0.71828 0.85891 0.8431 0.0
H1954 H 0.7262 0.8905 0.81823 0.0
H1955 H 0.75282 0.90881 0.79293 0.0
H1956 H 0.82341 0.8959 0.79963 0.0
H1957 H 0.8161 0.87044 0.83088 0.0
C1958 C 0.77533 0.85619 0.84368 0.0
C1959 C 0.75305 0.85025 0.8481 0.0
C1960 C 0.78005 0.87422 0.82936 0.0
C1961 C 0.73553 0.86342 0.83979 0.0
C1962 C 0.74006 0.88135 0.82554 0.0
C1963 C 0.76662 0.90117 0.80195 0.0
C1964 C 0.78853 0.90393 0.79401 0.0
C1965 C 0.76219 0.8862 0.81943 0.0
C1966 C 0.8064 0.89408 0.80565 0.0
C1967 C 0.80218 0.87924 0.82325 0.0
H1968 H 0.60075 0.24004 0.29514 0.0
H1969 H 0.60604 0.31193 0.29294 0.0
H1970 H 0.63497 0.31093 0.322 0.0
H1971 H 0.66386 0.2887 0.34189 0.0
H1972 H 0.65748 0.21686 0.34465 0.0
H1973 H 0.62403 0.21857 0.32112 0.0
C1974 C 0.60765 0.25552 0.3017 0.0
C1975 C 0.60166 0.27596 0.29183 0.0
C1976 C 0.62463 0.25471 0.31778 0.0
C1977 C 0.61042 0.296 0.30043 0.0
C1978 C 0.62726 0.29538 0.31669 0.0
C1979 C 0.65486 0.27354 0.33753 0.0
C1980 C 0.66319 0.25264 0.34432 0.0
C1981 C 0.63539 0.27472 0.32444 0.0
C1982 C 0.65134 0.23305 0.3392 0.0
C1983 C 0.63226 0.23404 0.32585 0.0
H1984 H 0.27009 0.14639 0.76225 0.0
H1985 H 0.23115 0.10466 0.80651 0.0
H1986 H 0.23575 0.13219 0.83665 0.0
H1987 H 0.24849 0.16954 0.8493 0.0
H1988 H 0.28383 0.21233 0.80307 0.0
H1989 H 0.28269 0.18303 0.77457 0.0
C1990 C 0.26261 0.1432 0.77848 0.0
C1991 C 0.25012 0.1236 0.78208 0.0
C1992 C 0.2645 0.15943 0.79526 0.0
C1993 C 0.24082 0.11966 0.80332 0.0
C1994 C 0.24335 0.13544 0.82049 0.0
C1995 C 0.2561 0.17229 0.83303 0.0
C1996 C 0.26624 0.19298 0.8282 0.0
C1997 C 0.25478 0.1556 0.81649 0.0
C1998 C 0.27581 0.19656 0.80704 0.0
C1999 C 0.27522 0.17981 0.7908 0.0
H2000 H 0.28126 0.74078 0.31223 0.0
H2001 H 0.33501 0.74151 0.36031 0.0
H2002 H 0.36225 0.73486 0.33042 0.0
H2003 H 0.37031 0.72611 0.29081 0.0
H2004 H 0.31666 0.72922 0.24256 0.0
H2005 H 0.28992 0.73716 0.27221 0.0
C2006 C 0.29898 0.73979 0.31605 0.0
C2007 C 0.30617 0.7414 0.33833 0.0
C2008 C 0.31453 0.73643 0.29879 0.0
C2009 C 0.32915 0.74037 0.34318 0.0
C2010 C 0.3447 0.73642 0.32615 0.0
C2011 C 0.35279 0.7287 0.28682 0.0
C2012 C 0.34542 0.72649 0.26461 0.0
C2013 C 0.33752 0.73399 0.30392 0.0
C2014 C 0.32277 0.73039 0.25956 0.0
C2015 C 0.30741 0.73499 0.27651 0.0
H2016 H 0.74605 0.14969 0.15158 0.0
H2017 H 0.80781 0.18627 0.15884 0.0
H2018 H 0.82348 0.1561 0.18126 0.0
H2019 H 0.81806 0.12137 0.20263 0.0
H2020 H 0.75368 0.08931 0.20237 0.0
H2021 H 0.74076 0.1147 0.17281 0.0
C2022 C 0.76298 0.15091 0.15801 0.0
C2023 C 0.77583 0.17007 0.15351 0.0
C2024 C 0.77142 0.13404 0.17203 0.0
C2025 C 0.79764 0.17165 0.16208 0.0
C2026 C 0.80661 0.15437 0.17492 0.0
C2027 C 0.80143 0.11973 0.19564 0.0
C2028 C 0.78688 0.10354 0.20428 0.0
C2029 C 0.7935 0.13572 0.18042 0.0
C2030 C 0.76522 0.10151 0.19552 0.0
C2031 C 0.75775 0.11624 0.17895 0.0
H2032 H 0.36249 0.24318 0.7208 0.0
H2033 H 0.39202 0.29929 0.68628 0.0
H2034 H 0.36491 0.29493 0.65579 0.0
H2035 H 0.33095 0.2767 0.64044 0.0
H2036 H 0.29898 0.22423 0.67828 0.0
H2037 H 0.32862 0.22594 0.70642 0.0
C2038 C 0.3631 0.2545 0.70667 0.0
C2039 C 0.37915 0.27165 0.70593 0.0
C2040 C 0.34677 0.2527 0.68999 0.0
C2041 C 0.37979 0.28594 0.68725 0.0
C2042 C 0.36422 0.28355 0.66991 0.0
C2043 C 0.33064 0.26564 0.65485 0.0
C2044 C 0.31298 0.25034 0.65744 0.0
C2045 C 0.34733 0.26727 0.67134 0.0
C2046 C 0.31242 0.23621 0.67617 0.0
C2047 C 0.32938 0.23711 0.69214 0.0
H2048 H 0.23036 0.8869 0.20059 0.0
H2049 H 0.26272 0.8448 0.24965 0.0
H2050 H 0.27506 0.81939 0.22042 0.0
H2051 H 0.27194 0.80612 0.18186 0.0
H2052 H 0.24074 0.84786 0.13204 0.0
H2053 H 0.2331 0.87656 0.16039 0.0
C2054 C 0.24054 0.87246 0.20476 0.0
C2055 C 0.24514 0.86749 0.22731 0.0
C2056 C 0.24769 0.85773 0.18774 0.0
C2057 C 0.25855 0.84881 0.23246 0.0
C2058 C 0.26565 0.83421 0.21576 0.0
C2059 C 0.26405 0.8218 0.17714 0.0
C2060 C 0.2568 0.8249 0.15506 0.0
C2061 C 0.25961 0.83804 0.19348 0.0
C2062 C 0.24664 0.84525 0.14899 0.0
C2063 C 0.24204 0.86153 0.16524 0.0
H2064 H 0.67257 0.75588 0.64306 0.0
H2065 H 0.71712 0.70474 0.66823 0.0
H2066 H 0.68905 0.69349 0.69565 0.0
H2067 H 0.65261 0.69934 0.71354 0.0
H2068 H 0.61013 0.75339 0.69197 0.0
H2069 H 0.63631 0.76205 0.66146 0.0
C2070 C 0.67615 0.74223 0.65449 0.0
C2071 C 0.69689 0.73105 0.65343 0.0
C2072 C 0.66022 0.73631 0.67068 0.0
C2073 C 0.70129 0.71358 0.66858 0.0
C2074 C 0.68524 0.7071 0.68425 0.0
C2075 C 0.64913 0.71295 0.70213 0.0
C2076 C 0.62964 0.72574 0.70479 0.0
C2077 C 0.66476 0.71848 0.68557 0.0
C2078 C 0.62504 0.74325 0.68991 0.0
C2079 C 0.64006 0.74828 0.67267 0.0
H2080 H 0.85813 0.76352 0.84307 0.0
H2081 H 0.8127 0.73689 0.79376 0.0
H2082 H 0.78098 0.74428 0.81864 0.0
H2083 H 0.76627 0.76043 0.85292 0.0
H2084 H 0.81063 0.79205 0.90035 0.0
H2085 H 0.84296 0.78043 0.87777 0.0
C2086 C 0.84127 0.75912 0.83801 0.0
C2087 C 0.83756 0.74952 0.81684 0.0
C2088 C 0.82309 0.76447 0.85192 0.0
C2089 C 0.81576 0.74418 0.81009 0.0
C2090 C 0.79772 0.74846 0.82425 0.0
C2091 C 0.78296 0.76486 0.85842 0.0
C2092 C 0.78604 0.77726 0.8782 0.0
C2093 C 0.80118 0.75897 0.84498 0.0
C2094 C 0.80784 0.78259 0.88513 0.0
C2095 C 0.82628 0.77597 0.87222 0.0
H2096 H 0.85891 0.21078 0.15719 0.0
H2097 H 0.84409 0.28141 0.15776 0.0
H2098 H 0.8187 0.27669 0.12593 0.0
H2099 H 0.79649 0.25145 0.1024 0.0
H2100 H 0.81173 0.18087 0.10112 0.0
H2101 H 0.84216 0.1867 0.12782 0.0
C2102 C 0.85044 0.22513 0.14992 0.0
C2103 C 0.85289 0.24632 0.15978 0.0
C2104 C 0.83618 0.22231 0.13144 0.0
C2105 C 0.8422 0.26495 0.15033 0.0
C2106 C 0.82772 0.26225 0.13221 0.0
C2107 C 0.80699 0.23748 0.10741 0.0
C2108 C 0.80168 0.21575 0.10017 0.0
C2109 C 0.82398 0.24088 0.1232 0.0
C2110 C 0.81551 0.19778 0.10648 0.0
C2111 C 0.83271 0.20106 0.12201 0.0
H2112 H 0.21899 0.34141 0.66498 0.0
H2113 H 0.28382 0.3378 0.69631 0.0
H2114 H 0.29886 0.31775 0.66381 0.0
H2115 H 0.29256 0.29819 0.62827 0.0
H2116 H 0.22641 0.29638 0.5998 0.0
H2117 H 0.21283 0.32205 0.6289 0.0
C2118 C 0.23646 0.33648 0.6644 0.0
C2119 C 0.25039 0.34103 0.68273 0.0
C2120 C 0.24468 0.32411 0.64612 0.0
C2121 C 0.2729 0.33435 0.68223 0.0
C2122 C 0.28147 0.32295 0.6637 0.0
C2123 C 0.27533 0.30393 0.62819 0.0
C2124 C 0.26052 0.29591 0.61184 0.0
C2125 C 0.26741 0.31736 0.64576 0.0
C2126 C 0.23808 0.30275 0.61214 0.0
C2127 C 0.23032 0.31723 0.62885 0.0
H2128 H 0.21052 0.81051 0.13791 0.0
H2129 H 0.17925 0.76606 0.09066 0.0
H2130 H 0.14986 0.75736 0.11797 0.0
H2131 H 0.13642 0.7585 0.1567 0.0
H2132 H 0.17229 0.79754 0.20589 0.0
H2133 H 0.19712 0.81173 0.17673 0.0
C2134 C 0.19709 0.79919 0.13358 0.0
C2135 C 0.1968 0.78902 0.11243 0.0
C2136 C 0.18154 0.79284 0.14996 0.0
C2137 C 0.1794 0.77435 0.1068 0.0
C2138 C 0.16289 0.76913 0.12251 0.0
C2139 C 0.14958 0.7702 0.16109 0.0
C2140 C 0.15233 0.77707 0.18348 0.0
C2141 C 0.16434 0.77759 0.14441 0.0
C2142 C 0.16967 0.79206 0.1888 0.0
C2143 C 0.18386 0.80024 0.17213 0.0
H2144 H 0.7678 0.64748 0.63559 0.0
H2145 H 0.70335 0.65337 0.66736 0.0
H2146 H 0.68938 0.67533 0.63566 0.0
H2147 H 0.69862 0.7002 0.60435 0.0
H2148 H 0.76542 0.69995 0.57721 0.0
H2149 H 0.7753 0.66808 0.60091 0.0
C2150 C 0.7505 0.653 0.63513 0.0
C2151 C 0.73657 0.64901 0.65362 0.0
C2152 C 0.74318 0.66692 0.6177 0.0
C2153 C 0.71429 0.65639 0.6532 0.0
C2154 C 0.70638 0.66899 0.63515 0.0
C2155 C 0.715 0.69246 0.60293 0.0
C2156 C 0.73135 0.70232 0.58921 0.0
C2157 C 0.72108 0.67548 0.618 0.0
C2158 C 0.75263 0.69251 0.5877 0.0
C2159 C 0.75834 0.67451 0.60146 0.0
H2160 H 0.14399 0.23016 0.83221 0.0
H2161 H 0.18457 0.26758 0.78575 0.0
H2162 H 0.21473 0.26972 0.8134 0.0
H2163 H 0.23005 0.25921 0.84972 0.0
H2164 H 0.19196 0.21699 0.89417 0.0
H2165 H 0.15989 0.21898 0.86869 0.0
C2166 C 0.1594 0.23893 0.82832 0.0
C2167 C 0.16218 0.24882 0.80717 0.0
C2168 C 0.17694 0.23929 0.84394 0.0
C2169 C 0.18223 0.25984 0.80199 0.0
C2170 C 0.19938 0.2611 0.81778 0.0
C2171 C 0.21478 0.2505 0.85396 0.0
C2172 C 0.21344 0.23787 0.87375 0.0
C2173 C 0.19701 0.25064 0.83868 0.0
C2174 C 0.19338 0.2268 0.87898 0.0
C2175 C 0.17511 0.22784 0.86438 0.0
H2176 H 0.2594 0.6819 0.40796 0.0
H2177 H 0.32156 0.70521 0.37998 0.0
H2178 H 0.31868 0.67769 0.34972 0.0
H2179 H 0.29459 0.65195 0.3278 0.0
H2180 H 0.23296 0.62816 0.35708 0.0
H2181 H 0.23966 0.65062 0.39042 0.0
C2182 C 0.27277 0.68024 0.39577 0.0
C2183 C 0.29044 0.69565 0.39588 0.0
C2184 C 0.27082 0.66463 0.37838 0.0
C2185 C 0.30779 0.69343 0.38016 0.0
C2186 C 0.30597 0.67793 0.36268 0.0
C2187 C 0.28288 0.65142 0.34168 0.0
C2188 C 0.26307 0.63885 0.33979 0.0
C2189 C 0.28692 0.66427 0.361 0.0
C2190 C 0.24824 0.63787 0.35804 0.0
C2191 C 0.25202 0.65073 0.37712 0.0
H2192 H 0.70608 0.34848 0.32515 0.0
H2193 H 0.77777 0.34126 0.32326 0.0
H2194 H 0.77637 0.31585 0.35546 0.0
H2195 H 0.75417 0.29247 0.38099 0.0
H2196 H 0.68258 0.30076 0.38401 0.0
H2197 H 0.68443 0.3296 0.35494 0.0
C2198 C 0.72134 0.34154 0.33206 0.0
C2199 C 0.74196 0.34629 0.32187 0.0
C2200 C 0.72039 0.32735 0.35078 0.0
C2201 C 0.76175 0.33758 0.33093 0.0
C2202 C 0.76094 0.32312 0.34927 0.0
C2203 C 0.73909 0.30115 0.37575 0.0
C2204 C 0.71829 0.29456 0.38447 0.0
C2205 C 0.7403 0.31748 0.35896 0.0
C2206 C 0.69881 0.3058 0.37768 0.0
C2207 C 0.69983 0.32203 0.36083 0.0
loop_
_geom_bond_atom_site_label_1
_geom_bond_atom_site_label_2
_geom_bond_distance
_geom_bond_site_symmetry_2
_ccdc_geom_bond_type
Co0 O1 2.216 . S
Co0 O2 2.091 . S
Co0 O4 2.004 . S
Co0 O10 2.021 . S
Co0 O12 2.137 . S
Co0 O13 2.244 . S
O1 Co0 2.216 . S
O1 C8 1.247 . S
O2 Co0 2.091 . S
O2 C8 1.261 . S
C3 O12 1.247 . S
C3 O13 1.272 . S
O4 Co0 2.004 . S
O4 C9 1.259 . S
Co5 O6 2.061 . S
Co5 O11 2.052 . S
Co5 O13 2.135 . S
O6 Co5 2.061 . S
O6 C9 1.235 . S
C7 O10 1.238 . S
C7 O11 1.241 . S
C8 O1 1.247 . S
C8 O2 1.261 . S
C9 O4 1.259 . S
C9 O6 1.235 . S
O10 Co0 2.021 . S
O10 C7 1.238 . S
O11 Co5 2.052 . S
O11 C7 1.241 . S
O12 Co0 2.137 . S
O12 C3 1.247 . S
O13 Co0 2.244 . S
O13 C3 1.272 . S
O13 Co5 2.135 . S
Co14 O15 2.216 . S
Co14 O16 2.091 . S
Co14 O18 2.004 . S
Co14 O24 2.021 . S
Co14 O26 2.137 . S
Co14 O27 2.244 . S
O15 Co14 2.216 . S
O15 C22 1.247 . S
O16 Co14 2.091 . S
O16 C22 1.261 . S
C17 O26 1.247 . S
C17 O27 1.272 . S
O18 Co14 2.004 . S
O18 C23 1.259 . S
Co19 O20 2.061 . S
Co19 O25 2.052 . S
Co19 O27 2.135 . S
O20 Co19 2.061 . S
O20 C23 1.235 . S
C21 O24 1.238 . S
C21 O25 1.241 . S
C22 O15 1.247 . S
C22 O16 1.261 . S
C23 O18 1.259 . S
C23 O20 1.235 . S
O24 Co14 2.021 . S
O24 C21 1.238 . S
O25 Co19 2.052 . S
O25 C21 1.241 . S
O26 Co14 2.137 . S
O26 C17 1.247 . S
O27 Co14 2.244 . S
O27 C17 1.272 . S
O27 Co19 2.135 . S
Co28 O29 2.216 . S
Co28 O30 2.091 . S
Co28 O32 2.004 . S
Co28 O38 2.021 . S
Co28 O40 2.137 . S
Co28 O41 2.244 . S
O29 Co28 2.216 . S
O29 C36 1.247 . S
O30 Co28 2.091 . S
O30 C36 1.261 . S
C31 O40 1.247 . S
C31 O41 1.272 . S
O32 Co28 2.004 . S
O32 C37 1.259 . S
Co33 O34 2.061 . S
Co33 O39 2.052 . S
Co33 O41 2.135 . S
O34 Co33 2.061 . S
O34 C37 1.235 . S
C35 O38 1.238 . S
C35 O39 1.241 . S
C36 O29 1.247 . S
C36 O30 1.261 . S
C37 O32 1.259 . S
C37 O34 1.235 . S
O38 Co28 2.021 . S
O38 C35 1.238 . S
O39 Co33 2.052 . S
O39 C35 1.241 . S
O40 Co28 2.137 . S
O40 C31 1.247 . S
O41 Co28 2.244 . S
O41 C31 1.272 . S
O41 Co33 2.135 . S
Co42 O43 2.216 . S
Co42 O44 2.091 . S
Co42 O46 2.004 . S
Co42 O52 2.021 . S
Co42 O54 2.137 . S
Co42 O55 2.244 . S
O43 Co42 2.216 . S
O43 C50 1.247 . S
O44 Co42 2.091 . S
O44 C50 1.261 . S
C45 O54 1.247 . S
C45 O55 1.272 . S
O46 Co42 2.004 . S
O46 C51 1.259 . S
Co47 O48 2.061 . S
Co47 O53 2.052 . S
Co47 O55 2.135 . S
O48 Co47 2.061 . S
O48 C51 1.235 . S
C49 O52 1.238 . S
C49 O53 1.241 . S
C50 O43 1.247 . S
C50 O44 1.261 . S
C51 O46 1.259 . S
C51 O48 1.235 . S
O52 Co42 2.021 . S
O52 C49 1.238 . S
O53 Co47 2.052 . S
O53 C49 1.241 . S
O54 Co42 2.137 . S
O54 C45 1.247 . S
O55 Co42 2.244 . S
O55 C45 1.272 . S
O55 Co47 2.135 . S
Co56 O57 2.216 . S
Co56 O58 2.091 . S
Co56 O60 2.004 . S
Co56 O66 2.021 . S
Co56 O68 2.137 . S
Co56 O69 2.244 . S
O57 Co56 2.216 . S
O57 C64 1.247 . S
O58 Co56 2.091 . S
O58 C64 1.261 . S
C59 O68 1.247 . S
C59 O69 1.272 . S
O60 Co56 2.004 . S
O60 C65 1.259 . S
Co61 O62 2.061 . S
Co61 O67 2.052 . S
Co61 O69 2.135 . S
O62 Co61 2.061 . S
O62 C65 1.235 . S
C63 O66 1.238 . S
C63 O67 1.241 . S
C64 O57 1.247 . S
C64 O58 1.261 . S
C65 O60 1.259 . S
C65 O62 1.235 . S
O66 Co56 2.021 . S
O66 C63 1.238 . S
O67 Co61 2.052 . S
O67 C63 1.241 . S
O68 Co56 2.137 . S
O68 C59 1.247 . S
O69 Co56 2.244 . S
O69 C59 1.272 . S
O69 Co61 2.135 . S
Co70 O71 2.216 . S
Co70 O72 2.091 . S
Co70 O74 2.004 . S
Co70 O80 2.021 . S
Co70 O82 2.137 . S
Co70 O83 2.244 . S
O71 Co70 2.216 . S
O71 C78 1.247 . S
O72 Co70 2.091 . S
O72 C78 1.261 . S
C73 O82 1.247 . S
C73 O83 1.272 . S
O74 Co70 2.004 . S
O74 C79 1.259 . S
Co75 O76 2.061 . S
Co75 O81 2.052 . S
Co75 O83 2.135 . S
O76 Co75 2.061 . S
O76 C79 1.235 . S
C77 O80 1.238 . S
C77 O81 1.241 . S
C78 O71 1.247 . S
C78 O72 1.261 . S
C79 O74 1.259 . S
C79 O76 1.235 . S
O80 Co70 2.021 . S
O80 C77 1.238 . S
O81 Co75 2.052 . S
O81 C77 1.241 . S
O82 Co70 2.137 . S
O82 C73 1.247 . S
O83 Co70 2.244 . S
O83 C73 1.272 . S
O83 Co75 2.135 . S
Co84 O85 2.216 . S
Co84 O86 2.091 . S
Co84 O88 2.004 . S
Co84 O94 2.021 . S
Co84 O96 2.137 . S
Co84 O97 2.244 . S
O85 Co84 2.216 . S
O85 C92 1.247 . S
O86 Co84 2.091 . S
O86 C92 1.261 . S
C87 O96 1.247 . S
C87 O97 1.272 . S
O88 Co84 2.004 . S
O88 C93 1.259 . S
Co89 O90 2.061 . S
Co89 O95 2.052 . S
Co89 O97 2.135 . S
O90 Co89 2.061 . S
O90 C93 1.235 . S
C91 O94 1.238 . S
C91 O95 1.241 . S
C92 O85 1.247 . S
C92 O86 1.261 . S
C93 O88 1.259 . S
C93 O90 1.235 . S
O94 Co84 2.021 . S
O94 C91 1.238 . S
O95 Co89 2.052 . S
O95 C91 1.241 . S
O96 Co84 2.137 . S
O96 C87 1.247 . S
O97 Co84 2.244 . S
O97 C87 1.272 . S
O97 Co89 2.135 . S
Co98 O99 2.216 . S
Co98 O100 2.091 . S
Co98 O102 2.004 . S
Co98 O108 2.021 . S
Co98 O110 2.137 . S
Co98 O111 2.244 . S
O99 Co98 2.216 . S
O99 C106 1.247 . S
O100 Co98 2.091 . S
O100 C106 1.261 . S
C101 O110 1.247 . S
C101 O111 1.272 . S
O102 Co98 2.004 . S
O102 C107 1.259 . S
Co103 O104 2.061 . S
Co103 O109 2.052 . S
Co103 O111 2.135 . S
O104 Co103 2.061 . S
O104 C107 1.235 . S
C105 O108 1.238 . S
C105 O109 1.241 . S
C106 O99 1.247 . S
C106 O100 1.261 . S
C107 O102 1.259 . S
C107 O104 1.235 . S
O108 Co98 2.021 . S
O108 C105 1.238 . S
O109 Co103 2.052 . S
O109 C105 1.241 . S
O110 Co98 2.137 . S
O110 C101 1.247 . S
O111 Co98 2.244 . S
O111 C101 1.272 . S
O111 Co103 2.135 . S
Co112 O113 2.216 . S
Co112 O114 2.091 . S
Co112 O116 2.004 . S
Co112 O122 2.021 . S
Co112 O124 2.137 . S
Co112 O125 2.244 . S
O113 Co112 2.216 . S
O113 C120 1.247 . S
O114 Co112 2.091 . S
O114 C120 1.261 . S
C115 O124 1.247 . S
C115 O125 1.272 . S
O116 Co112 2.004 . S
O116 C121 1.259 . S
Co117 O118 2.061 . S
Co117 O123 2.052 . S
Co117 O125 2.135 . S
O118 Co117 2.061 . S
O118 C121 1.235 . S
C119 O122 1.238 . S
C119 O123 1.241 . S
C120 O113 1.247 . S
C120 O114 1.261 . S
C121 O116 1.259 . S
C121 O118 1.235 . S
O122 Co112 2.021 . S
O122 C119 1.238 . S
O123 Co117 2.052 . S
O123 C119 1.241 . S
O124 Co112 2.137 . S
O124 C115 1.247 . S
O125 Co112 2.244 . S
O125 C115 1.272 . S
O125 Co117 2.135 . S
Co126 O127 2.216 . S
Co126 O128 2.091 . S
Co126 O130 2.004 . S
Co126 O136 2.021 . S
Co126 O138 2.137 . S
Co126 O139 2.244 . S
O127 Co126 2.216 . S
O127 C134 1.247 . S
O128 Co126 2.091 . S
O128 C134 1.261 . S
C129 O138 1.247 . S
C129 O139 1.272 . S
O130 Co126 2.004 . S
O130 C135 1.259 . S
Co131 O132 2.061 . S
Co131 O137 2.052 . S
Co131 O139 2.135 . S
O132 Co131 2.061 . S
O132 C135 1.235 . S
C133 O136 1.238 . S
C133 O137 1.241 . S
C134 O127 1.247 . S
C134 O128 1.261 . S
C135 O130 1.259 . S
C135 O132 1.235 . S
O136 Co126 2.021 . S
O136 C133 1.238 . S
O137 Co131 2.052 . S
O137 C133 1.241 . S
O138 Co126 2.137 . S
O138 C129 1.247 . S
O139 Co126 2.244 . S
O139 C129 1.272 . S
O139 Co131 2.135 . S
Co140 O141 2.216 . S
Co140 O142 2.091 . S
Co140 O144 2.004 . S
Co140 O150 2.021 . S
Co140 O152 2.137 . S
Co140 O153 2.244 . S
O141 Co140 2.216 . S
O141 C148 1.247 . S
O142 Co140 2.091 . S
O142 C148 1.261 . S
C143 O152 1.247 . S
C143 O153 1.272 . S
O144 Co140 2.004 . S
O144 C149 1.259 . S
Co145 O146 2.061 . S
Co145 O151 2.052 . S
Co145 O153 2.135 . S
O146 Co145 2.061 . S
O146 C149 1.235 . S
C147 O150 1.238 . S
C147 O151 1.241 . S
C148 O141 1.247 . S
C148 O142 1.261 . S
C149 O144 1.259 . S
C149 O146 1.235 . S
O150 Co140 2.021 . S
O150 C147 1.238 . S
O151 Co145 2.052 . S
O151 C147 1.241 . S
O152 Co140 2.137 . S
O152 C143 1.247 . S
O153 Co140 2.244 . S
O153 C143 1.272 . S
O153 Co145 2.135 . S
Co154 O155 2.216 . S
Co154 O156 2.091 . S
Co154 O158 2.004 . S
Co154 O164 2.021 . S
Co154 O166 2.137 . S
Co154 O167 2.244 . S
O155 Co154 2.216 . S
O155 C162 1.247 . S
O156 Co154 2.091 . S
O156 C162 1.261 . S
C157 O166 1.247 . S
C157 O167 1.272 . S
O158 Co154 2.004 . S
O158 C163 1.259 . S
Co159 O160 2.061 . S
Co159 O165 2.052 . S
Co159 O167 2.135 . S
O160 Co159 2.061 . S
O160 C163 1.235 . S
C161 O164 1.238 . S
C161 O165 1.241 . S
C162 O155 1.247 . S
C162 O156 1.261 . S
C163 O158 1.259 . S
C163 O160 1.235 . S
O164 Co154 2.021 . S
O164 C161 1.238 . S
O165 Co159 2.052 . S
O165 C161 1.241 . S
O166 Co154 2.137 . S
O166 C157 1.247 . S
O167 Co154 2.244 . S
O167 C157 1.272 . S
O167 Co159 2.135 . S
Co168 O169 2.216 . S
Co168 O170 2.091 . S
Co168 O172 2.004 . S
Co168 O178 2.021 . S
Co168 O180 2.137 . S
Co168 O181 2.244 . S
O169 Co168 2.216 . S
O169 C176 1.247 . S
O170 Co168 2.091 . S
O170 C176 1.261 . S
C171 O180 1.247 . S
C171 O181 1.272 . S
O172 Co168 2.004 . S
O172 C177 1.259 . S
Co173 O174 2.061 . S
Co173 O179 2.052 . S
Co173 O181 2.135 . S
O174 Co173 2.061 . S
O174 C177 1.235 . S
C175 O178 1.238 . S
C175 O179 1.241 . S
C176 O169 1.247 . S
C176 O170 1.261 . S
C177 O172 1.259 . S
C177 O174 1.235 . S
O178 Co168 2.021 . S
O178 C175 1.238 . S
O179 Co173 2.052 . S
O179 C175 1.241 . S
O180 Co168 2.137 . S
O180 C171 1.247 . S
O181 Co168 2.244 . S
O181 C171 1.272 . S
O181 Co173 2.135 . S
Co182 O183 2.216 . S
Co182 O184 2.091 . S
Co182 O186 2.004 . S
Co182 O192 2.021 . S
Co182 O194 2.137 . S
Co182 O195 2.244 . S
O183 Co182 2.216 . S
O183 C190 1.247 . S
O184 Co182 2.091 . S
O184 C190 1.261 . S
C185 O194 1.247 . S
C185 O195 1.272 . S
O186 Co182 2.004 . S
O186 C191 1.259 . S
Co187 O188 2.061 . S
Co187 O193 2.052 . S
Co187 O195 2.135 . S
O188 Co187 2.061 . S
O188 C191 1.235 . S
C189 O192 1.238 . S
C189 O193 1.241 . S
C190 O183 1.247 . S
C190 O184 1.261 . S
C191 O186 1.259 . S
C191 O188 1.235 . S
O192 Co182 2.021 . S
O192 C189 1.238 . S
O193 Co187 2.052 . S
O193 C189 1.241 . S
O194 Co182 2.137 . S
O194 C185 1.247 . S
O195 Co182 2.244 . S
O195 C185 1.272 . S
O195 Co187 2.135 . S
Co196 O197 2.216 . S
Co196 O198 2.091 . S
Co196 O200 2.004 . S
Co196 O206 2.021 . S
Co196 O208 2.137 . S
Co196 O209 2.244 . S
O197 Co196 2.216 . S
O197 C204 1.247 . S
O198 Co196 2.091 . S
O198 C204 1.261 . S
C199 O208 1.247 . S
C199 O209 1.272 . S
O200 Co196 2.004 . S
O200 C205 1.259 . S
Co201 O202 2.061 . S
Co201 O207 2.052 . S
Co201 O209 2.135 . S
O202 Co201 2.061 . S
O202 C205 1.235 . S
C203 O206 1.238 . S
C203 O207 1.241 . S
C204 O197 1.247 . S
C204 O198 1.261 . S
C205 O200 1.259 . S
C205 O202 1.235 . S
O206 Co196 2.021 . S
O206 C203 1.238 . S
O207 Co201 2.052 . S
O207 C203 1.241 . S
O208 Co196 2.137 . S
O208 C199 1.247 . S
O209 Co196 2.244 . S
O209 C199 1.272 . S
O209 Co201 2.135 . S
Co210 O211 2.216 . S
Co210 O212 2.091 . S
Co210 O214 2.004 . S
Co210 O220 2.021 . S
Co210 O222 2.137 . S
Co210 O223 2.244 . S
O211 Co210 2.216 . S
O211 C218 1.247 . S
O212 Co210 2.091 . S
O212 C218 1.261 . S
C213 O222 1.247 . S
C213 O223 1.272 . S
O214 Co210 2.004 . S
O214 C219 1.259 . S
Co215 O216 2.061 . S
Co215 O221 2.052 . S
Co215 O223 2.135 . S
O216 Co215 2.061 . S
O216 C219 1.235 . S
C217 O220 1.238 . S
C217 O221 1.241 . S
C218 O211 1.247 . S
C218 O212 1.261 . S
C219 O214 1.259 . S
C219 O216 1.235 . S
O220 Co210 2.021 . S
O220 C217 1.238 . S
O221 Co215 2.052 . S
O221 C217 1.241 . S
O222 Co210 2.137 . S
O222 C213 1.247 . S
O223 Co210 2.244 . S
O223 C213 1.272 . S
O223 Co215 2.135 . S
Co224 O225 2.216 . S
Co224 O226 2.091 . S
Co224 O228 2.004 . S
Co224 O234 2.021 . S
Co224 O236 2.137 . S
Co224 O237 2.244 . S
O225 Co224 2.216 . S
O225 C232 1.247 . S
O226 Co224 2.091 . S
O226 C232 1.261 . S
C227 O236 1.247 . S
C227 O237 1.272 . S
O228 Co224 2.004 . S
O228 C233 1.259 . S
Co229 O230 2.061 . S
Co229 O235 2.052 . S
Co229 O237 2.135 . S
O230 Co229 2.061 . S
O230 C233 1.235 . S
C231 O234 1.238 . S
C231 O235 1.241 . S
C232 O225 1.247 . S
C232 O226 1.261 . S
C233 O228 1.259 . S
C233 O230 1.235 . S
O234 Co224 2.021 . S
O234 C231 1.238 . S
O235 Co229 2.052 . S
O235 C231 1.241 . S
O236 Co224 2.137 . S
O236 C227 1.247 . S
O237 Co224 2.244 . S
O237 C227 1.272 . S
O237 Co229 2.135 . S
Co238 O239 2.216 . S
Co238 O240 2.091 . S
Co238 O242 2.004 . S
Co238 O248 2.021 . S
Co238 O250 2.137 . S
Co238 O251 2.244 . S
O239 Co238 2.216 . S
O239 C246 1.247 . S
O240 Co238 2.091 . S
O240 C246 1.261 . S
C241 O250 1.247 . S
C241 O251 1.272 . S
O242 Co238 2.004 . S
O242 C247 1.259 . S
Co243 O244 2.061 . S
Co243 O249 2.052 . S
Co243 O251 2.135 . S
O244 Co243 2.061 . S
O244 C247 1.235 . S
C245 O248 1.238 . S
C245 O249 1.241 . S
C246 O239 1.247 . S
C246 O240 1.261 . S
C247 O242 1.259 . S
C247 O244 1.235 . S
O248 Co238 2.021 . S
O248 C245 1.238 . S
O249 Co243 2.052 . S
O249 C245 1.241 . S
O250 Co238 2.137 . S
O250 C241 1.247 . S
O251 Co238 2.244 . S
O251 C241 1.272 . S
O251 Co243 2.135 . S
Co252 O253 2.216 . S
Co252 O254 2.091 . S
Co252 O256 2.004 . S
Co252 O262 2.021 . S
Co252 O264 2.137 . S
Co252 O265 2.244 . S
O253 Co252 2.216 . S
O253 C260 1.247 . S
O254 Co252 2.091 . S
O254 C260 1.261 . S
C255 O264 1.247 . S
C255 O265 1.272 . S
O256 Co252 2.004 . S
O256 C261 1.259 . S
Co257 O258 2.061 . S
Co257 O263 2.052 . S
Co257 O265 2.135 . S
O258 Co257 2.061 . S
O258 C261 1.235 . S
C259 O262 1.238 . S
C259 O263 1.241 . S
C260 O253 1.247 . S
C260 O254 1.261 . S
C261 O256 1.259 . S
C261 O258 1.235 . S
O262 Co252 2.021 . S
O262 C259 1.238 . S
O263 Co257 2.052 . S
O263 C259 1.241 . S
O264 Co252 2.137 . S
O264 C255 1.247 . S
O265 Co252 2.244 . S
O265 C255 1.272 . S
O265 Co257 2.135 . S
Co266 O267 2.216 . S
Co266 O268 2.091 . S
Co266 O270 2.004 . S
Co266 O276 2.021 . S
Co266 O278 2.137 . S
Co266 O279 2.244 . S
O267 Co266 2.216 . S
O267 C274 1.247 . S
O268 Co266 2.091 . S
O268 C274 1.261 . S
C269 O278 1.247 . S
C269 O279 1.272 . S
O270 Co266 2.004 . S
O270 C275 1.259 . S
Co271 O272 2.061 . S
Co271 O277 2.052 . S
Co271 O279 2.135 . S
O272 Co271 2.061 . S
O272 C275 1.235 . S
C273 O276 1.238 . S
C273 O277 1.241 . S
C274 O267 1.247 . S
C274 O268 1.261 . S
C275 O270 1.259 . S
C275 O272 1.235 . S
O276 Co266 2.021 . S
O276 C273 1.238 . S
O277 Co271 2.052 . S
O277 C273 1.241 . S
O278 Co266 2.137 . S
O278 C269 1.247 . S
O279 Co266 2.244 . S
O279 C269 1.272 . S
O279 Co271 2.135 . S
Co280 O281 2.216 . S
Co280 O282 2.091 . S
Co280 O284 2.004 . S
Co280 O290 2.021 . S
Co280 O292 2.137 . S
Co280 O293 2.244 . S
O281 Co280 2.216 . S
O281 C288 1.247 . S
O282 Co280 2.091 . S
O282 C288 1.261 . S
C283 O292 1.247 . S
C283 O293 1.272 . S
O284 Co280 2.004 . S
O284 C289 1.259 . S
Co285 O286 2.061 . S
Co285 O291 2.052 . S
Co285 O293 2.135 . S
O286 Co285 2.061 . S
O286 C289 1.235 . S
C287 O290 1.238 . S
C287 O291 1.241 . S
C288 O281 1.247 . S
C288 O282 1.261 . S
C289 O284 1.259 . S
C289 O286 1.235 . S
O290 Co280 2.021 . S
O290 C287 1.238 . S
O291 Co285 2.052 . S
O291 C287 1.241 . S
O292 Co280 2.137 . S
O292 C283 1.247 . S
O293 Co280 2.244 . S
O293 C283 1.272 . S
O293 Co285 2.135 . S
Co294 O295 2.216 . S
Co294 O296 2.091 . S
Co294 O298 2.004 . S
Co294 O304 2.021 . S
Co294 O306 2.137 . S
Co294 O307 2.244 . S
O295 Co294 2.216 . S
O295 C302 1.247 . S
O296 Co294 2.091 . S
O296 C302 1.261 . S
C297 O306 1.247 . S
C297 O307 1.272 . S
O298 Co294 2.004 . S
O298 C303 1.259 . S
Co299 O300 2.061 . S
Co299 O305 2.052 . S
Co299 O307 2.135 . S
O300 Co299 2.061 . S
O300 C303 1.235 . S
C301 O304 1.238 . S
C301 O305 1.241 . S
C302 O295 1.247 . S
C302 O296 1.261 . S
C303 O298 1.259 . S
C303 O300 1.235 . S
O304 Co294 2.021 . S
O304 C301 1.238 . S
O305 Co299 2.052 . S
O305 C301 1.241 . S
O306 Co294 2.137 . S
O306 C297 1.247 . S
O307 Co294 2.244 . S
O307 C297 1.272 . S
O307 Co299 2.135 . S
Co308 O309 2.216 . S
Co308 O310 2.091 . S
Co308 O312 2.004 . S
Co308 O318 2.021 . S
Co308 O320 2.137 . S
Co308 O321 2.244 . S
O309 Co308 2.216 . S
O309 C316 1.247 . S
O310 Co308 2.091 . S
O310 C316 1.261 . S
C311 O320 1.247 . S
C311 O321 1.272 . S
O312 Co308 2.004 . S
O312 C317 1.259 . S
Co313 O314 2.061 . S
Co313 O319 2.052 . S
Co313 O321 2.135 . S
O314 Co313 2.061 . S
O314 C317 1.235 . S
C315 O318 1.238 . S
C315 O319 1.241 . S
C316 O309 1.247 . S
C316 O310 1.261 . S
C317 O312 1.259 . S
C317 O314 1.235 . S
O318 Co308 2.021 . S
O318 C315 1.238 . S
O319 Co313 2.052 . S
O319 C315 1.241 . S
O320 Co308 2.137 . S
O320 C311 1.247 . S
O321 Co308 2.244 . S
O321 C311 1.272 . S
O321 Co313 2.135 . S
Co322 O323 2.216 . S
Co322 O324 2.091 . S
Co322 O326 2.004 . S
Co322 O332 2.021 . S
Co322 O334 2.137 . S
Co322 O335 2.244 . S
O323 Co322 2.216 . S
O323 C330 1.247 . S
O324 Co322 2.091 . S
O324 C330 1.261 . S
C325 O334 1.247 . S
C325 O335 1.272 . S
O326 Co322 2.004 . S
O326 C331 1.259 . S
Co327 O328 2.061 . S
Co327 O333 2.052 . S
Co327 O335 2.135 . S
O328 Co327 2.061 . S
O328 C331 1.235 . S
C329 O332 1.238 . S
C329 O333 1.241 . S
C330 O323 1.247 . S
C330 O324 1.261 . S
C331 O326 1.259 . S
C331 O328 1.235 . S
O332 Co322 2.021 . S
O332 C329 1.238 . S
O333 Co327 2.052 . S
O333 C329 1.241 . S
O334 Co322 2.137 . S
O334 C325 1.247 . S
O335 Co322 2.244 . S
O335 C325 1.272 . S
O335 Co327 2.135 . S
Co336 O337 2.216 . S
Co336 O338 2.091 . S
Co336 O340 2.004 . S
Co336 O346 2.021 . S
Co336 O348 2.137 . S
Co336 O349 2.244 . S
O337 Co336 2.216 . S
O337 C344 1.247 . S
O338 Co336 2.091 . S
O338 C344 1.261 . S
C339 O348 1.247 . S
C339 O349 1.272 . S
O340 Co336 2.004 . S
O340 C345 1.259 . S
Co341 O342 2.061 . S
Co341 O347 2.052 . S
Co341 O349 2.135 . S
O342 Co341 2.061 . S
O342 C345 1.235 . S
C343 O346 1.238 . S
C343 O347 1.241 . S
C344 O337 1.247 . S
C344 O338 1.261 . S
C345 O340 1.259 . S
C345 O342 1.235 . S
O346 Co336 2.021 . S
O346 C343 1.238 . S
O347 Co341 2.052 . S
O347 C343 1.241 . S
O348 Co336 2.137 . S
O348 C339 1.247 . S
O349 Co336 2.244 . S
O349 C339 1.272 . S
O349 Co341 2.135 . S
Co350 O351 2.216 . S
Co350 O352 2.091 . S
Co350 O354 2.004 . S
Co350 O360 2.021 . S
Co350 O362 2.137 . S
Co350 O363 2.244 . S
O351 Co350 2.216 . S
O351 C358 1.247 . S
O352 Co350 2.091 . S
O352 C358 1.261 . S
C353 O362 1.247 . S
C353 O363 1.272 . S
O354 Co350 2.004 . S
O354 C359 1.259 . S
Co355 O356 2.061 . S
Co355 O361 2.052 . S
Co355 O363 2.135 . S
O356 Co355 2.061 . S
O356 C359 1.235 . S
C357 O360 1.238 . S
C357 O361 1.241 . S
C358 O351 1.247 . S
C358 O352 1.261 . S
C359 O354 1.259 . S
C359 O356 1.235 . S
O360 Co350 2.021 . S
O360 C357 1.238 . S
O361 Co355 2.052 . S
O361 C357 1.241 . S
O362 Co350 2.137 . S
O362 C353 1.247 . S
O363 Co350 2.244 . S
O363 C353 1.272 . S
O363 Co355 2.135 . S
Co364 O365 2.216 . S
Co364 O366 2.091 . S
Co364 O368 2.004 . S
Co364 O374 2.021 . S
Co364 O376 2.137 . S
Co364 O377 2.244 . S
O365 Co364 2.216 . S
O365 C372 1.247 . S
O366 Co364 2.091 . S
O366 C372 1.261 . S
C367 O376 1.247 . S
C367 O377 1.272 . S
O368 Co364 2.004 . S
O368 C373 1.259 . S
Co369 O370 2.061 . S
Co369 O375 2.052 . S
Co369 O377 2.135 . S
O370 Co369 2.061 . S
O370 C373 1.235 . S
C371 O374 1.238 . S
C371 O375 1.241 . S
C372 O365 1.247 . S
C372 O366 1.261 . S
C373 O368 1.259 . S
C373 O370 1.235 . S
O374 Co364 2.021 . S
O374 C371 1.238 . S
O375 Co369 2.052 . S
O375 C371 1.241 . S
O376 Co364 2.137 . S
O376 C367 1.247 . S
O377 Co364 2.244 . S
O377 C367 1.272 . S
O377 Co369 2.135 . S
Co378 O379 2.216 . S
Co378 O380 2.091 . S
Co378 O382 2.004 . S
Co378 O388 2.021 . S
Co378 O390 2.137 . S
Co378 O391 2.244 . S
O379 Co378 2.216 . S
O379 C386 1.247 . S
O380 Co378 2.091 . S
O380 C386 1.261 . S
C381 O390 1.247 . S
C381 O391 1.272 . S
O382 Co378 2.004 . S
O382 C387 1.259 . S
Co383 O384 2.061 . S
Co383 O389 2.052 . S
Co383 O391 2.135 . S
O384 Co383 2.061 . S
O384 C387 1.235 . S
C385 O388 1.238 . S
C385 O389 1.241 . S
C386 O379 1.247 . S
C386 O380 1.261 . S
C387 O382 1.259 . S
C387 O384 1.235 . S
O388 Co378 2.021 . S
O388 C385 1.238 . S
O389 Co383 2.052 . S
O389 C385 1.241 . S
O390 Co378 2.137 . S
O390 C381 1.247 . S
O391 Co378 2.244 . S
O391 C381 1.272 . S
O391 Co383 2.135 . S
Co392 O393 2.216 . S
Co392 O394 2.091 . S
Co392 O396 2.004 . S
Co392 O402 2.021 . S
Co392 O404 2.137 . S
Co392 O405 2.244 . S
O393 Co392 2.216 . S
O393 C400 1.247 . S
O394 Co392 2.091 . S
O394 C400 1.261 . S
C395 O404 1.247 . S
C395 O405 1.272 . S
O396 Co392 2.004 . S
O396 C401 1.259 . S
Co397 O398 2.061 . S
Co397 O403 2.052 . S
Co397 O405 2.135 . S
O398 Co397 2.061 . S
O398 C401 1.235 . S
C399 O402 1.238 . S
C399 O403 1.241 . S
C400 O393 1.247 . S
C400 O394 1.261 . S
C401 O396 1.259 . S
C401 O398 1.235 . S
O402 Co392 2.021 . S
O402 C399 1.238 . S
O403 Co397 2.052 . S
O403 C399 1.241 . S
O404 Co392 2.137 . S
O404 C395 1.247 . S
O405 Co392 2.244 . S
O405 C395 1.272 . S
O405 Co397 2.135 . S
Co406 O407 2.216 . S
Co406 O408 2.091 . S
Co406 O410 2.004 . S
Co406 O416 2.021 . S
Co406 O418 2.137 . S
Co406 O419 2.244 . S
O407 Co406 2.216 . S
O407 C414 1.247 . S
O408 Co406 2.091 . S
O408 C414 1.261 . S
C409 O418 1.247 . S
C409 O419 1.272 . S
O410 Co406 2.004 . S
O410 C415 1.259 . S
Co411 O412 2.061 . S
Co411 O417 2.052 . S
Co411 O419 2.135 . S
O412 Co411 2.061 . S
O412 C415 1.235 . S
C413 O416 1.238 . S
C413 O417 1.241 . S
C414 O407 1.247 . S
C414 O408 1.261 . S
C415 O410 1.259 . S
C415 O412 1.235 . S
O416 Co406 2.021 . S
O416 C413 1.238 . S
O417 Co411 2.052 . S
O417 C413 1.241 . S
O418 Co406 2.137 . S
O418 C409 1.247 . S
O419 Co406 2.244 . S
O419 C409 1.272 . S
O419 Co411 2.135 . S
Co420 O421 2.216 . S
Co420 O422 2.091 . S
Co420 O424 2.004 . S
Co420 O430 2.021 . S
Co420 O432 2.137 . S
Co420 O433 2.244 . S
O421 Co420 2.216 . S
O421 C428 1.247 . S
O422 Co420 2.091 . S
O422 C428 1.261 . S
C423 O432 1.247 . S
C423 O433 1.272 . S
O424 Co420 2.004 . S
O424 C429 1.259 . S
Co425 O426 2.061 . S
Co425 O431 2.052 . S
Co425 O433 2.135 . S
O426 Co425 2.061 . S
O426 C429 1.235 . S
C427 O430 1.238 . S
C427 O431 1.241 . S
C428 O421 1.247 . S
C428 O422 1.261 . S
C429 O424 1.259 . S
C429 O426 1.235 . S
O430 Co420 2.021 . S
O430 C427 1.238 . S
O431 Co425 2.052 . S
O431 C427 1.241 . S
O432 Co420 2.137 . S
O432 C423 1.247 . S
O433 Co420 2.244 . S
O433 C423 1.272 . S
O433 Co425 2.135 . S
Co434 O435 2.216 . S
Co434 O436 2.091 . S
Co434 O438 2.004 . S
Co434 O444 2.021 . S
Co434 O446 2.137 . S
Co434 O447 2.244 . S
O435 Co434 2.216 . S
O435 C442 1.247 . S
O436 Co434 2.091 . S
O436 C442 1.261 . S
C437 O446 1.247 . S
C437 O447 1.272 . S
O438 Co434 2.004 . S
O438 C443 1.259 . S
Co439 O440 2.061 . S
Co439 O445 2.052 . S
Co439 O447 2.135 . S
O440 Co439 2.061 . S
O440 C443 1.235 . S
C441 O444 1.238 . S
C441 O445 1.241 . S
C442 O435 1.247 . S
C442 O436 1.261 . S
C443 O438 1.259 . S
C443 O440 1.235 . S
O444 Co434 2.021 . S
O444 C441 1.238 . S
O445 Co439 2.052 . S
O445 C441 1.241 . S
O446 Co434 2.137 . S
O446 C437 1.247 . S
O447 Co434 2.244 . S
O447 C437 1.272 . S
O447 Co439 2.135 . S
Co448 O449 2.216 . S
Co448 O450 2.091 . S
Co448 O452 2.004 . S
Co448 O458 2.021 . S
Co448 O460 2.137 . S
Co448 O461 2.244 . S
O449 Co448 2.216 . S
O449 C456 1.247 . S
O450 Co448 2.091 . S
O450 C456 1.261 . S
C451 O460 1.247 . S
C451 O461 1.272 . S
O452 Co448 2.004 . S
O452 C457 1.259 . S
Co453 O454 2.061 . S
Co453 O459 2.052 . S
Co453 O461 2.135 . S
O454 Co453 2.061 . S
O454 C457 1.235 . S
C455 O458 1.238 . S
C455 O459 1.241 . S
C456 O449 1.247 . S
C456 O450 1.261 . S
C457 O452 1.259 . S
C457 O454 1.235 . S
O458 Co448 2.021 . S
O458 C455 1.238 . S
O459 Co453 2.052 . S
O459 C455 1.241 . S
O460 Co448 2.137 . S
O460 C451 1.247 . S
O461 Co448 2.244 . S
O461 C451 1.272 . S
O461 Co453 2.135 . S
Co462 O463 2.216 . S
Co462 O464 2.091 . S
Co462 O466 2.004 . S
Co462 O472 2.021 . S
Co462 O474 2.137 . S
Co462 O475 2.244 . S
O463 Co462 2.216 . S
O463 C470 1.247 . S
O464 Co462 2.091 . S
O464 C470 1.261 . S
C465 O474 1.247 . S
C465 O475 1.272 . S
O466 Co462 2.004 . S
O466 C471 1.259 . S
Co467 O468 2.061 . S
Co467 O473 2.052 . S
Co467 O475 2.135 . S
O468 Co467 2.061 . S
O468 C471 1.235 . S
C469 O472 1.238 . S
C469 O473 1.241 . S
C470 O463 1.247 . S
C470 O464 1.261 . S
C471 O466 1.259 . S
C471 O468 1.235 . S
O472 Co462 2.021 . S
O472 C469 1.238 . S
O473 Co467 2.052 . S
O473 C469 1.241 . S
O474 Co462 2.137 . S
O474 C465 1.247 . S
O475 Co462 2.244 . S
O475 C465 1.272 . S
O475 Co467 2.135 . S
Co476 O477 2.216 . S
Co476 O478 2.091 . S
Co476 O480 2.004 . S
Co476 O486 2.021 . S
Co476 O488 2.137 . S
Co476 O489 2.244 . S
O477 Co476 2.216 . S
O477 C484 1.247 . S
O478 Co476 2.091 . S
O478 C484 1.261 . S
C479 O488 1.247 . S
C479 O489 1.272 . S
O480 Co476 2.004 . S
O480 C485 1.259 . S
Co481 O482 2.061 . S
Co481 O487 2.052 . S
Co481 O489 2.135 . S
O482 Co481 2.061 . S
O482 C485 1.235 . S
C483 O486 1.238 . S
C483 O487 1.241 . S
C484 O477 1.247 . S
C484 O478 1.261 . S
C485 O480 1.259 . S
C485 O482 1.235 . S
O486 Co476 2.021 . S
O486 C483 1.238 . S
O487 Co481 2.052 . S
O487 C483 1.241 . S
O488 Co476 2.137 . S
O488 C479 1.247 . S
O489 Co476 2.244 . S
O489 C479 1.272 . S
O489 Co481 2.135 . S
Co490 O491 2.216 . S
Co490 O492 2.091 . S
Co490 O494 2.004 . S
Co490 O500 2.021 . S
Co490 O502 2.137 . S
Co490 O503 2.244 . S
O491 Co490 2.216 . S
O491 C498 1.247 . S
O492 Co490 2.091 . S
O492 C498 1.261 . S
C493 O502 1.247 . S
C493 O503 1.272 . S
O494 Co490 2.004 . S
O494 C499 1.259 . S
Co495 O496 2.061 . S
Co495 O501 2.052 . S
Co495 O503 2.135 . S
O496 Co495 2.061 . S
O496 C499 1.235 . S
C497 O500 1.238 . S
C497 O501 1.241 . S
C498 O491 1.247 . S
C498 O492 1.261 . S
C499 O494 1.259 . S
C499 O496 1.235 . S
O500 Co490 2.021 . S
O500 C497 1.238 . S
O501 Co495 2.052 . S
O501 C497 1.241 . S
O502 Co490 2.137 . S
O502 C493 1.247 . S
O503 Co490 2.244 . S
O503 C493 1.272 . S
O503 Co495 2.135 . S
Co504 O505 2.216 . S
Co504 O506 2.091 . S
Co504 O508 2.004 . S
Co504 O514 2.021 . S
Co504 O516 2.137 . S
Co504 O517 2.244 . S
O505 Co504 2.216 . S
O505 C512 1.247 . S
O506 Co504 2.091 . S
O506 C512 1.261 . S
C507 O516 1.247 . S
C507 O517 1.272 . S
O508 Co504 2.004 . S
O508 C513 1.259 . S
Co509 O510 2.061 . S
Co509 O515 2.052 . S
Co509 O517 2.135 . S
O510 Co509 2.061 . S
O510 C513 1.235 . S
C511 O514 1.238 . S
C511 O515 1.241 . S
C512 O505 1.247 . S
C512 O506 1.261 . S
C513 O508 1.259 . S
C513 O510 1.235 . S
O514 Co504 2.021 . S
O514 C511 1.238 . S
O515 Co509 2.052 . S
O515 C511 1.241 . S
O516 Co504 2.137 . S
O516 C507 1.247 . S
O517 Co504 2.244 . S
O517 C507 1.272 . S
O517 Co509 2.135 . S
Co518 O519 2.216 . S
Co518 O520 2.091 . S
Co518 O522 2.004 . S
Co518 O528 2.021 . S
Co518 O530 2.137 . S
Co518 O531 2.244 . S
O519 Co518 2.216 . S
O519 C526 1.247 . S
O520 Co518 2.091 . S
O520 C526 1.261 . S
C521 O530 1.247 . S
C521 O531 1.272 . S
O522 Co518 2.004 . S
O522 C527 1.259 . S
Co523 O524 2.061 . S
Co523 O529 2.052 . S
Co523 O531 2.135 . S
O524 Co523 2.061 . S
O524 C527 1.235 . S
C525 O528 1.238 . S
C525 O529 1.241 . S
C526 O519 1.247 . S
C526 O520 1.261 . S
C527 O522 1.259 . S
C527 O524 1.235 . S
O528 Co518 2.021 . S
O528 C525 1.238 . S
O529 Co523 2.052 . S
O529 C525 1.241 . S
O530 Co518 2.137 . S
O530 C521 1.247 . S
O531 Co518 2.244 . S
O531 C521 1.272 . S
O531 Co523 2.135 . S
Co532 O533 2.216 . S
Co532 O534 2.091 . S
Co532 O536 2.004 . S
Co532 O542 2.021 . S
Co532 O544 2.137 . S
Co532 O545 2.244 . S
O533 Co532 2.216 . S
O533 C540 1.247 . S
O534 Co532 2.091 . S
O534 C540 1.261 . S
C535 O544 1.247 . S
C535 O545 1.272 . S
O536 Co532 2.004 . S
O536 C541 1.259 . S
Co537 O538 2.061 . S
Co537 O543 2.052 . S
Co537 O545 2.135 . S
O538 Co537 2.061 . S
O538 C541 1.235 . S
C539 O542 1.238 . S
C539 O543 1.241 . S
C540 O533 1.247 . S
C540 O534 1.261 . S
C541 O536 1.259 . S
C541 O538 1.235 . S
O542 Co532 2.021 . S
O542 C539 1.238 . S
O543 Co537 2.052 . S
O543 C539 1.241 . S
O544 Co532 2.137 . S
O544 C535 1.247 . S
O545 Co532 2.244 . S
O545 C535 1.272 . S
O545 Co537 2.135 . S
Co546 O547 2.216 . S
Co546 O548 2.091 . S
Co546 O550 2.004 . S
Co546 O556 2.021 . S
Co546 O558 2.137 . S
Co546 O559 2.244 . S
O547 Co546 2.216 . S
O547 C554 1.247 . S
O548 Co546 2.091 . S
O548 C554 1.261 . S
C549 O558 1.247 . S
C549 O559 1.272 . S
O550 Co546 2.004 . S
O550 C555 1.259 . S
Co551 O552 2.061 . S
Co551 O557 2.052 . S
Co551 O559 2.135 . S
O552 Co551 2.061 . S
O552 C555 1.235 . S
C553 O556 1.238 . S
C553 O557 1.241 . S
C554 O547 1.247 . S
C554 O548 1.261 . S
C555 O550 1.259 . S
C555 O552 1.235 . S
O556 Co546 2.021 . S
O556 C553 1.238 . S
O557 Co551 2.052 . S
O557 C553 1.241 . S
O558 Co546 2.137 . S
O558 C549 1.247 . S
O559 Co546 2.244 . S
O559 C549 1.272 . S
O559 Co551 2.135 . S
Co560 O561 2.216 . S
Co560 O562 2.091 . S
Co560 O564 2.004 . S
Co560 O570 2.021 . S
Co560 O572 2.137 . S
Co560 O573 2.244 . S
O561 Co560 2.216 . S
O561 C568 1.247 . S
O562 Co560 2.091 . S
O562 C568 1.261 . S
C563 O572 1.247 . S
C563 O573 1.272 . S
O564 Co560 2.004 . S
O564 C569 1.259 . S
Co565 O566 2.061 . S
Co565 O571 2.052 . S
Co565 O573 2.135 . S
O566 Co565 2.061 . S
O566 C569 1.235 . S
C567 O570 1.238 . S
C567 O571 1.241 . S
C568 O561 1.247 . S
C568 O562 1.261 . S
C569 O564 1.259 . S
C569 O566 1.235 . S
O570 Co560 2.021 . S
O570 C567 1.238 . S
O571 Co565 2.052 . S
O571 C567 1.241 . S
O572 Co560 2.137 . S
O572 C563 1.247 . S
O573 Co560 2.244 . S
O573 C563 1.272 . S
O573 Co565 2.135 . S
Co574 O575 2.216 . S
Co574 O576 2.091 . S
Co574 O578 2.004 . S
Co574 O584 2.021 . S
Co574 O586 2.137 . S
Co574 O587 2.244 . S
O575 Co574 2.216 . S
O575 C582 1.247 . S
O576 Co574 2.091 . S
O576 C582 1.261 . S
C577 O586 1.247 . S
C577 O587 1.272 . S
O578 Co574 2.004 . S
O578 C583 1.259 . S
Co579 O580 2.061 . S
Co579 O585 2.052 . S
Co579 O587 2.135 . S
O580 Co579 2.061 . S
O580 C583 1.235 . S
C581 O584 1.238 . S
C581 O585 1.241 . S
C582 O575 1.247 . S
C582 O576 1.261 . S
C583 O578 1.259 . S
C583 O580 1.235 . S
O584 Co574 2.021 . S
O584 C581 1.238 . S
O585 Co579 2.052 . S
O585 C581 1.241 . S
O586 Co574 2.137 . S
O586 C577 1.247 . S
O587 Co574 2.244 . S
O587 C577 1.272 . S
O587 Co579 2.135 . S
Co588 O589 2.216 . S
Co588 O590 2.091 . S
Co588 O592 2.004 . S
Co588 O598 2.021 . S
Co588 O600 2.137 . S
Co588 O601 2.244 . S
O589 Co588 2.216 . S
O589 C596 1.247 . S
O590 Co588 2.091 . S
O590 C596 1.261 . S
C591 O600 1.247 . S
C591 O601 1.272 . S
O592 Co588 2.004 . S
O592 C597 1.259 . S
Co593 O594 2.061 . S
Co593 O599 2.052 . S
Co593 O601 2.135 . S
O594 Co593 2.061 . S
O594 C597 1.235 . S
C595 O598 1.238 . S
C595 O599 1.241 . S
C596 O589 1.247 . S
C596 O590 1.261 . S
C597 O592 1.259 . S
C597 O594 1.235 . S
O598 Co588 2.021 . S
O598 C595 1.238 . S
O599 Co593 2.052 . S
O599 C595 1.241 . S
O600 Co588 2.137 . S
O600 C591 1.247 . S
O601 Co588 2.244 . S
O601 C591 1.272 . S
O601 Co593 2.135 . S
Co602 O603 2.216 . S
Co602 O604 2.091 . S
Co602 O606 2.004 . S
Co602 O612 2.021 . S
Co602 O614 2.137 . S
Co602 O615 2.244 . S
O603 Co602 2.216 . S
O603 C610 1.247 . S
O604 Co602 2.091 . S
O604 C610 1.261 . S
C605 O614 1.247 . S
C605 O615 1.272 . S
O606 Co602 2.004 . S
O606 C611 1.259 . S
Co607 O608 2.061 . S
Co607 O613 2.052 . S
Co607 O615 2.135 . S
O608 Co607 2.061 . S
O608 C611 1.235 . S
C609 O612 1.238 . S
C609 O613 1.241 . S
C610 O603 1.247 . S
C610 O604 1.261 . S
C611 O606 1.259 . S
C611 O608 1.235 . S
O612 Co602 2.021 . S
O612 C609 1.238 . S
O613 Co607 2.052 . S
O613 C609 1.241 . S
O614 Co602 2.137 . S
O614 C605 1.247 . S
O615 Co602 2.244 . S
O615 C605 1.272 . S
O615 Co607 2.135 . S
Co616 O617 2.216 . S
Co616 O618 2.091 . S
Co616 O620 2.004 . S
Co616 O626 2.021 . S
Co616 O628 2.137 . S
Co616 O629 2.244 . S
O617 Co616 2.216 . S
O617 C624 1.247 . S
O618 Co616 2.091 . S
O618 C624 1.261 . S
C619 O628 1.247 . S
C619 O629 1.272 . S
O620 Co616 2.004 . S
O620 C625 1.259 . S
Co621 O622 2.061 . S
Co621 O627 2.052 . S
Co621 O629 2.135 . S
O622 Co621 2.061 . S
O622 C625 1.235 . S
C623 O626 1.238 . S
C623 O627 1.241 . S
C624 O617 1.247 . S
C624 O618 1.261 . S
C625 O620 1.259 . S
C625 O622 1.235 . S
O626 Co616 2.021 . S
O626 C623 1.238 . S
O627 Co621 2.052 . S
O627 C623 1.241 . S
O628 Co616 2.137 . S
O628 C619 1.247 . S
O629 Co616 2.244 . S
O629 C619 1.272 . S
O629 Co621 2.135 . S
Co630 O631 2.216 . S
Co630 O632 2.091 . S
Co630 O634 2.004 . S
Co630 O640 2.021 . S
Co630 O642 2.137 . S
Co630 O643 2.244 . S
O631 Co630 2.216 . S
O631 C638 1.247 . S
O632 Co630 2.091 . S
O632 C638 1.261 . S
C633 O642 1.247 . S
C633 O643 1.272 . S
O634 Co630 2.004 . S
O634 C639 1.259 . S
Co635 O636 2.061 . S
Co635 O641 2.052 . S
Co635 O643 2.135 . S
O636 Co635 2.061 . S
O636 C639 1.235 . S
C637 O640 1.238 . S
C637 O641 1.241 . S
C638 O631 1.247 . S
C638 O632 1.261 . S
C639 O634 1.259 . S
C639 O636 1.235 . S
O640 Co630 2.021 . S
O640 C637 1.238 . S
O641 Co635 2.052 . S
O641 C637 1.241 . S
O642 Co630 2.137 . S
O642 C633 1.247 . S
O643 Co630 2.244 . S
O643 C633 1.272 . S
O643 Co635 2.135 . S
Co644 O645 2.216 . S
Co644 O646 2.091 . S
Co644 O648 2.004 . S
Co644 O654 2.021 . S
Co644 O656 2.137 . S
Co644 O657 2.244 . S
O645 Co644 2.216 . S
O645 C652 1.247 . S
O646 Co644 2.091 . S
O646 C652 1.261 . S
C647 O656 1.247 . S
C647 O657 1.272 . S
O648 Co644 2.004 . S
O648 C653 1.259 . S
Co649 O650 2.061 . S
Co649 O655 2.052 . S
Co649 O657 2.135 . S
O650 Co649 2.061 . S
O650 C653 1.235 . S
C651 O654 1.238 . S
C651 O655 1.241 . S
C652 O645 1.247 . S
C652 O646 1.261 . S
C653 O648 1.259 . S
C653 O650 1.235 . S
O654 Co644 2.021 . S
O654 C651 1.238 . S
O655 Co649 2.052 . S
O655 C651 1.241 . S
O656 Co644 2.137 . S
O656 C647 1.247 . S
O657 Co644 2.244 . S
O657 C647 1.272 . S
O657 Co649 2.135 . S
Co658 O659 2.216 . S
Co658 O660 2.091 . S
Co658 O662 2.004 . S
Co658 O668 2.021 . S
Co658 O670 2.137 . S
Co658 O671 2.244 . S
O659 Co658 2.216 . S
O659 C666 1.247 . S
O660 Co658 2.091 . S
O660 C666 1.261 . S
C661 O670 1.247 . S
C661 O671 1.272 . S
O662 Co658 2.004 . S
O662 C667 1.259 . S
Co663 O664 2.061 . S
Co663 O669 2.052 . S
Co663 O671 2.135 . S
O664 Co663 2.061 . S
O664 C667 1.235 . S
C665 O668 1.238 . S
C665 O669 1.241 . S
C666 O659 1.247 . S
C666 O660 1.261 . S
C667 O662 1.259 . S
C667 O664 1.235 . S
O668 Co658 2.021 . S
O668 C665 1.238 . S
O669 Co663 2.052 . S
O669 C665 1.241 . S
O670 Co658 2.137 . S
O670 C661 1.247 . S
O671 Co658 2.244 . S
O671 C661 1.272 . S
O671 Co663 2.135 . S
H672 C678 0.930 . S
H673 C681 0.930 . S
H674 C682 0.930 . S
H675 C683 0.930 . S
H676 C686 0.930 . S
H677 C687 0.930 . S
C678 H672 0.930 . S
C678 C679 1.355 . S
C678 C680 1.415 . S
C679 C678 1.355 . S
C679 C681 1.419 . S
C680 C678 1.415 . S
C680 C685 1.425 1_655 S
C680 C687 1.409 1_655 S
C681 H673 0.930 . S
C681 C679 1.419 . S
C681 C682 1.362 . S
C682 H674 0.930 . S
C682 C681 1.362 . S
C682 C685 1.409 1_655 S
C683 H675 0.930 . S
C683 C684 1.355 . S
C683 C685 1.415 . S
C684 C683 1.355 . S
C684 C686 1.419 . S
C685 C680 1.425 1_455 S
C685 C682 1.409 1_455 S
C685 C683 1.415 . S
C686 H676 0.930 . S
C686 C684 1.419 . S
C686 C687 1.362 . S
C687 H677 0.930 . S
C687 C680 1.409 1_455 S
C687 C686 1.362 . S
H688 C694 0.930 . S
H689 C697 0.930 . S
H690 C698 0.930 . S
H691 C699 0.930 . S
H692 C702 0.930 . S
H693 C703 0.930 . S
C694 H688 0.930 . S
C694 C695 1.355 . S
C694 C696 1.415 . S
C695 C694 1.355 . S
C695 C697 1.419 . S
C696 C694 1.415 . S
C696 C701 1.425 . S
C696 C703 1.409 . S
C697 H689 0.930 . S
C697 C695 1.419 . S
C697 C698 1.362 . S
C698 H690 0.930 . S
C698 C697 1.362 . S
C698 C701 1.409 . S
C699 H691 0.930 . S
C699 C700 1.355 . S
C699 C701 1.415 . S
C700 C699 1.355 . S
C700 C702 1.419 . S
C701 C696 1.425 . S
C701 C698 1.409 . S
C701 C699 1.415 . S
C702 H692 0.930 . S
C702 C700 1.419 . S
C702 C703 1.362 . S
C703 H693 0.930 . S
C703 C696 1.409 . S
C703 C702 1.362 . S
H704 C710 0.930 . S
H705 C713 0.930 . S
H706 C714 0.930 . S
H707 C715 0.930 . S
H708 C718 0.930 . S
H709 C719 0.930 . S
C710 H704 0.930 . S
C710 C711 1.355 . S
C710 C712 1.415 . S
C711 C710 1.355 . S
C711 C713 1.419 . S
C712 C710 1.415 . S
C712 C717 1.425 1_455 S
C712 C719 1.409 1_455 S
C713 H705 0.930 . S
C713 C711 1.419 . S
C713 C714 1.362 . S
C714 H706 0.930 . S
C714 C713 1.362 . S
C714 C717 1.409 1_455 S
C715 H707 0.930 . S
C715 C716 1.355 . S
C715 C717 1.415 . S
C716 C715 1.355 . S
C716 C718 1.419 . S
C717 C712 1.425 1_655 S
C717 C714 1.409 1_655 S
C717 C715 1.415 . S
C718 H708 0.930 . S
C718 C716 1.419 . S
C718 C719 1.362 . S
C719 H709 0.930 . S
C719 C712 1.409 1_655 S
C719 C718 1.362 . S
H720 C726 0.930 . S
H721 C729 0.930 . S
H722 C730 0.930 . S
H723 C731 0.930 . S
H724 C734 0.930 . S
H725 C735 0.930 . S
C726 H720 0.930 . S
C726 C727 1.355 . S
C726 C728 1.415 . S
C727 C726 1.355 . S
C727 C729 1.419 . S
C728 C726 1.415 . S
C728 C733 1.425 . S
C728 C735 1.409 . S
C729 H721 0.930 . S
C729 C727 1.419 . S
C729 C730 1.362 . S
C730 H722 0.930 . S
C730 C729 1.362 . S
C730 C733 1.409 . S
C731 H723 0.930 . S
C731 C732 1.355 . S
C731 C733 1.415 . S
C732 C731 1.355 . S
C732 C734 1.419 . S
C733 C728 1.425 . S
C733 C730 1.409 . S
C733 C731 1.415 . S
C734 H724 0.930 . S
C734 C732 1.419 . S
C734 C735 1.362 . S
C735 H725 0.930 . S
C735 C728 1.409 . S
C735 C734 1.362 . S
H736 C742 0.930 . S
H737 C745 0.930 . S
H738 C746 0.930 . S
H739 C747 0.930 . S
H740 C750 0.930 . S
H741 C751 0.930 . S
C742 H736 0.930 . S
C742 C743 1.355 . S
C742 C744 1.415 . S
C743 C742 1.355 . S
C743 C745 1.419 . S
C744 C742 1.415 . S
C744 C749 1.425 1_655 S
C744 C751 1.409 1_655 S
C745 H737 0.930 . S
C745 C743 1.419 . S
C745 C746 1.362 . S
C746 H738 0.930 . S
C746 C745 1.362 . S
C746 C749 1.409 1_655 S
C747 H739 0.930 . S
C747 C748 1.355 . S
C747 C749 1.415 . S
C748 C747 1.355 . S
C748 C750 1.419 . S
C749 C744 1.425 1_455 S
C749 C746 1.409 1_455 S
C749 C747 1.415 . S
C750 H740 0.930 . S
C750 C748 1.419 . S
C750 C751 1.362 . S
C751 H741 0.930 . S
C751 C744 1.409 1_455 S
C751 C750 1.362 . S
H752 C758 0.930 . S
H753 C761 0.930 . S
H754 C762 0.930 . S
H755 C763 0.930 . S
H756 C766 0.930 . S
H757 C767 0.930 . S
C758 H752 0.930 . S
C758 C759 1.355 . S
C758 C760 1.415 . S
C759 C758 1.355 . S
C759 C761 1.419 . S
C760 C758 1.415 . S
C760 C765 1.425 . S
C760 C767 1.409 . S
C761 H753 0.930 . S
C761 C759 1.419 . S
C761 C762 1.362 . S
C762 H754 0.930 . S
C762 C761 1.362 . S
C762 C765 1.409 . S
C763 H755 0.930 . S
C763 C764 1.355 . S
C763 C765 1.415 . S
C764 C763 1.355 . S
C764 C766 1.419 . S
C765 C760 1.425 . S
C765 C762 1.409 . S
C765 C763 1.415 . S
C766 H756 0.930 . S
C766 C764 1.419 . S
C766 C767 1.362 . S
C767 H757 0.930 . S
C767 C760 1.409 . S
C767 C766 1.362 . S
H768 C774 0.930 . S
H769 C777 0.930 . S
H770 C778 0.930 . S
H771 C779 0.930 . S
H772 C782 0.930 . S
H773 C783 0.930 . S
C774 H768 0.930 . S
C774 C775 1.355 . S
C774 C776 1.415 . S
C775 C774 1.355 . S
C775 C777 1.419 . S
C776 C774 1.415 . S
C776 C781 1.425 1_455 S
C776 C783 1.409 1_455 S
C777 H769 0.930 . S
C777 C775 1.419 . S
C777 C778 1.362 . S
C778 H770 0.930 . S
C778 C777 1.362 . S
C778 C781 1.409 1_455 S
C779 H771 0.930 . S
C779 C780 1.355 . S
C779 C781 1.415 . S
C780 C779 1.355 . S
C780 C782 1.419 . S
C781 C776 1.425 1_655 S
C781 C778 1.409 1_655 S
C781 C779 1.415 . S
C782 H772 0.930 . S
C782 C780 1.419 . S
C782 C783 1.362 . S
C783 H773 0.930 . S
C783 C776 1.409 1_655 S
C783 C782 1.362 . S
H784 C790 0.930 . S
H785 C793 0.930 . S
H786 C794 0.930 . S
H787 C795 0.930 . S
H788 C798 0.930 . S
H789 C799 0.930 . S
C790 H784 0.930 . S
C790 C791 1.355 . S
C790 C792 1.415 . S
C791 C790 1.355 . S
C791 C793 1.419 . S
C792 C790 1.415 . S
C792 C797 1.425 . S
C792 C799 1.409 . S
C793 H785 0.930 . S
C793 C791 1.419 . S
C793 C794 1.362 . S
C794 H786 0.930 . S
C794 C793 1.362 . S
C794 C797 1.409 . S
C795 H787 0.930 . S
C795 C796 1.355 . S
C795 C797 1.415 . S
C796 C795 1.355 . S
C796 C798 1.419 . S
C797 C792 1.425 . S
C797 C794 1.409 . S
C797 C795 1.415 . S
C798 H788 0.930 . S
C798 C796 1.419 . S
C798 C799 1.362 . S
C799 H789 0.930 . S
C799 C792 1.409 . S
C799 C798 1.362 . S
H800 C806 0.930 . S
H801 C809 0.930 . S
H802 C810 0.930 . S
H803 C811 0.930 . S
H804 C814 0.930 . S
H805 C815 0.930 . S
C806 H800 0.930 . S
C806 C807 1.355 . S
C806 C808 1.415 . S
C807 C806 1.355 . S
C807 C809 1.419 . S
C808 C806 1.415 . S
C808 C813 1.425 1_565 S
C808 C815 1.409 1_565 S
C809 H801 0.930 . S
C809 C807 1.419 . S
C809 C810 1.362 . S
C810 H802 0.930 . S
C810 C809 1.362 . S
C810 C813 1.409 1_565 S
C811 H803 0.930 . S
C811 C812 1.355 . S
C811 C813 1.415 . S
C812 C811 1.355 . S
C812 C814 1.419 . S
C813 C808 1.425 1_545 S
C813 C810 1.409 1_545 S
C813 C811 1.415 . S
C814 H804 0.930 . S
C814 C812 1.419 . S
C814 C815 1.362 . S
C815 H805 0.930 . S
C815 C808 1.409 1_545 S
C815 C814 1.362 . S
H816 C822 0.930 . S
H817 C825 0.930 . S
H818 C826 0.930 . S
H819 C827 0.930 . S
H820 C830 0.930 . S
H821 C831 0.930 . S
C822 H816 0.930 . S
C822 C823 1.355 . S
C822 C824 1.415 . S
C823 C822 1.355 . S
C823 C825 1.419 . S
C824 C822 1.415 . S
C824 C829 1.425 . S
C824 C831 1.409 . S
C825 H817 0.930 . S
C825 C823 1.419 . S
C825 C826 1.362 . S
C826 H818 0.930 . S
C826 C825 1.362 . S
C826 C829 1.409 . S
C827 H819 0.930 . S
C827 C828 1.355 . S
C827 C829 1.415 . S
C828 C827 1.355 . S
C828 C830 1.419 . S
C829 C824 1.425 . S
C829 C826 1.409 . S
C829 C827 1.415 . S
C830 H820 0.930 . S
C830 C828 1.419 . S
C830 C831 1.362 . S
C831 H821 0.930 . S
C831 C824 1.409 . S
C831 C830 1.362 . S
H832 C838 0.930 . S
H833 C841 0.930 . S
H834 C842 0.930 . S
H835 C843 0.930 . S
H836 C846 0.930 . S
H837 C847 0.930 . S
C838 H832 0.930 . S
C838 C839 1.355 . S
C838 C840 1.415 . S
C839 C838 1.355 . S
C839 C841 1.419 . S
C840 C838 1.415 . S
C840 C845 1.425 1_545 S
C840 C847 1.409 1_545 S
C841 H833 0.930 . S
C841 C839 1.419 . S
C841 C842 1.362 . S
C842 H834 0.930 . S
C842 C841 1.362 . S
C842 C845 1.409 1_545 S
C843 H835 0.930 . S
C843 C844 1.355 . S
C843 C845 1.415 . S
C844 C843 1.355 . S
C844 C846 1.419 . S
C845 C840 1.425 1_565 S
C845 C842 1.409 1_565 S
C845 C843 1.415 . S
C846 H836 0.930 . S
C846 C844 1.419 . S
C846 C847 1.362 . S
C847 H837 0.930 . S
C847 C840 1.409 1_565 S
C847 C846 1.362 . S
H848 C854 0.930 . S
H849 C857 0.930 . S
H850 C858 0.930 . S
H851 C859 0.930 . S
H852 C862 0.930 . S
H853 C863 0.930 . S
C854 H848 0.930 . S
C854 C855 1.355 . S
C854 C856 1.415 . S
C855 C854 1.355 . S
C855 C857 1.419 . S
C856 C854 1.415 . S
C856 C861 1.425 . S
C856 C863 1.409 . S
C857 H849 0.930 . S
C857 C855 1.419 . S
C857 C858 1.362 . S
C858 H850 0.930 . S
C858 C857 1.362 . S
C858 C861 1.409 . S
C859 H851 0.930 . S
C859 C860 1.355 . S
C859 C861 1.415 . S
C860 C859 1.355 . S
C860 C862 1.419 . S
C861 C856 1.425 . S
C861 C858 1.409 . S
C861 C859 1.415 . S
C862 H852 0.930 . S
C862 C860 1.419 . S
C862 C863 1.362 . S
C863 H853 0.930 . S
C863 C856 1.409 . S
C863 C862 1.362 . S
H864 C870 0.930 . S
H865 C873 0.930 . S
H866 C874 0.930 . S
H867 C875 0.930 . S
H868 C878 0.930 . S
H869 C879 0.930 . S
C870 H864 0.930 . S
C870 C871 1.355 . S
C870 C872 1.415 . S
C871 C870 1.355 . S
C871 C873 1.419 . S
C872 C870 1.415 . S
C872 C877 1.425 1_545 S
C872 C879 1.409 1_545 S
C873 H865 0.930 . S
C873 C871 1.419 . S
C873 C874 1.362 . S
C874 H866 0.930 . S
C874 C873 1.362 . S
C874 C877 1.409 1_545 S
C875 H867 0.930 . S
C875 C876 1.355 . S
C875 C877 1.415 . S
C876 C875 1.355 . S
C876 C878 1.419 . S
C877 C872 1.425 1_565 S
C877 C874 1.409 1_565 S
C877 C875 1.415 . S
C878 H868 0.930 . S
C878 C876 1.419 . S
C878 C879 1.362 . S
C879 H869 0.930 . S
C879 C872 1.409 1_565 S
C879 C878 1.362 . S
H880 C886 0.930 . S
H881 C889 0.930 . S
H882 C890 0.930 . S
H883 C891 0.930 . S
H884 C894 0.930 . S
H885 C895 0.930 . S
C886 H880 0.930 . S
C886 C887 1.355 . S
C886 C888 1.415 . S
C887 C886 1.355 . S
C887 C889 1.419 . S
C888 C886 1.415 . S
C888 C893 1.425 . S
C888 C895 1.409 . S
C889 H881 0.930 . S
C889 C887 1.419 . S
C889 C890 1.362 . S
C890 H882 0.930 . S
C890 C889 1.362 . S
C890 C893 1.409 . S
C891 H883 0.930 . S
C891 C892 1.355 . S
C891 C893 1.415 . S
C892 C891 1.355 . S
C892 C894 1.419 . S
C893 C888 1.425 . S
C893 C890 1.409 . S
C893 C891 1.415 . S
C894 H884 0.930 . S
C894 C892 1.419 . S
C894 C895 1.362 . S
C895 H885 0.930 . S
C895 C888 1.409 . S
C895 C894 1.362 . S
H896 C902 0.930 . S
H897 C905 0.930 . S
H898 C906 0.930 . S
H899 C907 0.930 . S
H900 C910 0.930 . S
H901 C911 0.930 . S
C902 H896 0.930 . S
C902 C903 1.355 . S
C902 C904 1.415 . S
C903 C902 1.355 . S
C903 C905 1.419 . S
C904 C902 1.415 . S
C904 C909 1.425 1_545 S
C904 C911 1.409 1_545 S
C905 H897 0.930 . S
C905 C903 1.419 . S
C905 C906 1.362 . S
C906 H898 0.930 . S
C906 C905 1.362 . S
C906 C909 1.409 1_545 S
C907 H899 0.930 . S
C907 C908 1.355 . S
C907 C909 1.415 . S
C908 C907 1.355 . S
C908 C910 1.419 . S
C909 C904 1.425 1_565 S
C909 C906 1.409 1_565 S
C909 C907 1.415 . S
C910 H900 0.930 . S
C910 C908 1.419 . S
C910 C911 1.362 . S
C911 H901 0.930 . S
C911 C904 1.409 1_565 S
C911 C910 1.362 . S
H912 C918 0.930 . S
H913 C921 0.930 . S
H914 C922 0.930 . S
H915 C923 0.930 . S
H916 C926 0.930 . S
H917 C927 0.930 . S
C918 H912 0.930 . S
C918 C919 1.355 . S
C918 C920 1.415 . S
C919 C918 1.355 . S
C919 C921 1.419 . S
C920 C918 1.415 . S
C920 C925 1.425 . S
C920 C927 1.409 . S
C921 H913 0.930 . S
C921 C919 1.419 . S
C921 C922 1.362 . S
C922 H914 0.930 . S
C922 C921 1.362 . S
C922 C925 1.409 . S
C923 H915 0.930 . S
C923 C924 1.355 . S
C923 C925 1.415 . S
C924 C923 1.355 . S
C924 C926 1.419 . S
C925 C920 1.425 . S
C925 C922 1.409 . S
C925 C923 1.415 . S
C926 H916 0.930 . S
C926 C924 1.419 . S
C926 C927 1.362 . S
C927 H917 0.930 . S
C927 C920 1.409 . S
C927 C926 1.362 . S
H928 C934 0.930 . S
H929 C937 0.930 . S
H930 C938 0.930 . S
H931 C939 0.930 . S
H932 C942 0.930 . S
H933 C943 0.930 . S
C934 H928 0.930 . S
C934 C935 1.355 . S
C934 C936 1.415 . S
C935 C934 1.355 . S
C935 C937 1.419 . S
C936 C934 1.415 . S
C936 C941 1.425 1_554 S
C936 C943 1.409 1_554 S
C937 H929 0.930 . S
C937 C935 1.419 . S
C937 C938 1.362 . S
C938 H930 0.930 . S
C938 C937 1.362 . S
C938 C941 1.409 1_554 S
C939 H931 0.930 . S
C939 C940 1.355 . S
C939 C941 1.415 . S
C940 C939 1.355 . S
C940 C942 1.419 . S
C941 C936 1.425 1_556 S
C941 C938 1.409 1_556 S
C941 C939 1.415 . S
C942 H932 0.930 . S
C942 C940 1.419 . S
C942 C943 1.362 . S
C943 H933 0.930 . S
C943 C936 1.409 1_556 S
C943 C942 1.362 . S
H944 C950 0.930 . S
H945 C953 0.930 . S
H946 C954 0.930 . S
H947 C955 0.930 . S
H948 C958 0.930 . S
H949 C959 0.930 . S
C950 H944 0.930 . S
C950 C951 1.355 . S
C950 C952 1.415 . S
C951 C950 1.355 . S
C951 C953 1.419 . S
C952 C950 1.415 . S
C952 C957 1.425 1_554 S
C952 C959 1.409 1_554 S
C953 H945 0.930 . S
C953 C951 1.419 . S
C953 C954 1.362 . S
C954 H946 0.930 . S
C954 C953 1.362 . S
C954 C957 1.409 1_554 S
C955 H947 0.930 . S
C955 C956 1.355 . S
C955 C957 1.415 . S
C956 C955 1.355 . S
C956 C958 1.419 . S
C957 C952 1.425 1_556 S
C957 C954 1.409 1_556 S
C957 C955 1.415 . S
C958 H948 0.930 . S
C958 C956 1.419 . S
C958 C959 1.362 . S
C959 H949 0.930 . S
C959 C952 1.409 1_556 S
C959 C958 1.362 . S
H960 C966 0.930 . S
H961 C969 0.930 . S
H962 C970 0.930 . S
H963 C971 0.930 . S
H964 C974 0.930 . S
H965 C975 0.930 . S
C966 H960 0.930 . S
C966 C967 1.355 . S
C966 C968 1.415 . S
C967 C966 1.355 . S
C967 C969 1.419 . S
C968 C966 1.415 . S
C968 C973 1.425 . S
C968 C975 1.409 . S
C969 H961 0.930 . S
C969 C967 1.419 . S
C969 C970 1.362 . S
C970 H962 0.930 . S
C970 C969 1.362 . S
C970 C973 1.409 . S
C971 H963 0.930 . S
C971 C972 1.355 . S
C971 C973 1.415 . S
C972 C971 1.355 . S
C972 C974 1.419 . S
C973 C968 1.425 . S
C973 C970 1.409 . S
C973 C971 1.415 . S
C974 H964 0.930 . S
C974 C972 1.419 . S
C974 C975 1.362 . S
C975 H965 0.930 . S
C975 C968 1.409 . S
C975 C974 1.362 . S
H976 C982 0.930 . S
H977 C985 0.930 . S
H978 C986 0.930 . S
H979 C987 0.930 . S
H980 C990 0.930 . S
H981 C991 0.930 . S
C982 H976 0.930 . S
C982 C983 1.355 . S
C982 C984 1.415 . S
C983 C982 1.355 . S
C983 C985 1.419 . S
C984 C982 1.415 . S
C984 C989 1.425 1_554 S
C984 C991 1.409 1_554 S
C985 H977 0.930 . S
C985 C983 1.419 . S
C985 C986 1.362 . S
C986 H978 0.930 . S
C986 C985 1.362 . S
C986 C989 1.409 1_554 S
C987 H979 0.930 . S
C987 C988 1.355 . S
C987 C989 1.415 . S
C988 C987 1.355 . S
C988 C990 1.419 . S
C989 C984 1.425 1_556 S
C989 C986 1.409 1_556 S
C989 C987 1.415 . S
C990 H980 0.930 . S
C990 C988 1.419 . S
C990 C991 1.362 . S
C991 H981 0.930 . S
C991 C984 1.409 1_556 S
C991 C990 1.362 . S
H992 C998 0.930 . S
H993 C1001 0.930 . S
H994 C1002 0.930 . S
H995 C1003 0.930 . S
H996 C1006 0.930 . S
H997 C1007 0.930 . S
C998 H992 0.930 . S
C998 C999 1.355 . S
C998 C1000 1.415 . S
C999 C998 1.355 . S
C999 C1001 1.419 . S
C1000 C998 1.415 . S
C1000 C1005 1.425 . S
C1000 C1007 1.409 . S
C1001 H993 0.930 . S
C1001 C999 1.419 . S
C1001 C1002 1.362 . S
C1002 H994 0.930 . S
C1002 C1001 1.362 . S
C1002 C1005 1.409 . S
C1003 H995 0.930 . S
C1003 C1004 1.355 . S
C1003 C1005 1.415 . S
C1004 C1003 1.355 . S
C1004 C1006 1.419 . S
C1005 C1000 1.425 . S
C1005 C1002 1.409 . S
C1005 C1003 1.415 . S
C1006 H996 0.930 . S
C1006 C1004 1.419 . S
C1006 C1007 1.362 . S
C1007 H997 0.930 . S
C1007 C1000 1.409 . S
C1007 C1006 1.362 . S
H1008 C1014 0.930 . S
H1009 C1017 0.930 . S
H1010 C1018 0.930 . S
H1011 C1019 0.930 . S
H1012 C1022 0.930 . S
H1013 C1023 0.930 . S
C1014 H1008 0.930 . S
C1014 C1015 1.355 . S
C1014 C1016 1.415 . S
C1015 C1014 1.355 . S
C1015 C1017 1.419 . S
C1016 C1014 1.415 . S
C1016 C1021 1.425 1_554 S
C1016 C1023 1.409 1_554 S
C1017 H1009 0.930 . S
C1017 C1015 1.419 . S
C1017 C1018 1.362 . S
C1018 H1010 0.930 . S
C1018 C1017 1.362 . S
C1018 C1021 1.409 1_554 S
C1019 H1011 0.930 . S
C1019 C1020 1.355 . S
C1019 C1021 1.415 . S
C1020 C1019 1.355 . S
C1020 C1022 1.419 . S
C1021 C1016 1.425 1_556 S
C1021 C1018 1.409 1_556 S
C1021 C1019 1.415 . S
C1022 H1012 0.930 . S
C1022 C1020 1.419 . S
C1022 C1023 1.362 . S
C1023 H1013 0.930 . S
C1023 C1016 1.409 1_556 S
C1023 C1022 1.362 . S
H1024 C1030 0.930 . S
H1025 C1033 0.930 . S
H1026 C1034 0.930 . S
H1027 C1035 0.930 . S
H1028 C1038 0.930 . S
H1029 C1039 0.930 . S
C1030 H1024 0.930 . S
C1030 C1031 1.355 . S
C1030 C1032 1.415 . S
C1031 C1030 1.355 . S
C1031 C1033 1.419 . S
C1032 C1030 1.415 . S
C1032 C1037 1.425 . S
C1032 C1039 1.409 . S
C1033 H1025 0.930 . S
C1033 C1031 1.419 . S
C1033 C1034 1.362 . S
C1034 H1026 0.930 . S
C1034 C1033 1.362 . S
C1034 C1037 1.409 . S
C1035 H1027 0.930 . S
C1035 C1036 1.355 . S
C1035 C1037 1.415 . S
C1036 C1035 1.355 . S
C1036 C1038 1.419 . S
C1037 C1032 1.425 . S
C1037 C1034 1.409 . S
C1037 C1035 1.415 . S
C1038 H1028 0.930 . S
C1038 C1036 1.419 . S
C1038 C1039 1.362 . S
C1039 H1029 0.930 . S
C1039 C1032 1.409 . S
C1039 C1038 1.362 . S
H1040 C1046 0.930 . S
H1041 C1049 0.930 . S
H1042 C1050 0.930 . S
H1043 C1051 0.930 . S
H1044 C1054 0.930 . S
H1045 C1055 0.930 . S
C1046 H1040 0.930 . S
C1046 C1047 1.355 . S
C1046 C1048 1.415 . S
C1047 C1046 1.355 . S
C1047 C1049 1.419 . S
C1048 C1046 1.415 . S
C1048 C1053 1.425 . S
C1048 C1055 1.409 . S
C1049 H1041 0.930 . S
C1049 C1047 1.419 . S
C1049 C1050 1.362 . S
C1050 H1042 0.930 . S
C1050 C1049 1.362 . S
C1050 C1053 1.409 . S
C1051 H1043 0.930 . S
C1051 C1052 1.355 . S
C1051 C1053 1.415 . S
C1052 C1051 1.355 . S
C1052 C1054 1.419 . S
C1053 C1048 1.425 . S
C1053 C1050 1.409 . S
C1053 C1051 1.415 . S
C1054 H1044 0.930 . S
C1054 C1052 1.419 . S
C1054 C1055 1.362 . S
C1055 H1045 0.930 . S
C1055 C1048 1.409 . S
C1055 C1054 1.362 . S
H1056 C1062 0.930 . S
H1057 C1065 0.930 . S
H1058 C1066 0.930 . S
H1059 C1067 0.930 . S
H1060 C1070 0.930 . S
H1061 C1071 0.930 . S
C1062 H1056 0.930 . S
C1062 C1063 1.355 . S
C1062 C1064 1.415 . S
C1063 C1062 1.355 . S
C1063 C1065 1.419 . S
C1064 C1062 1.415 . S
C1064 C1069 1.425 . S
C1064 C1071 1.409 . S
C1065 H1057 0.930 . S
C1065 C1063 1.419 . S
C1065 C1066 1.362 . S
C1066 H1058 0.930 . S
C1066 C1065 1.362 . S
C1066 C1069 1.409 . S
C1067 H1059 0.930 . S
C1067 C1068 1.355 . S
C1067 C1069 1.415 . S
C1068 C1067 1.355 . S
C1068 C1070 1.419 . S
C1069 C1064 1.425 . S
C1069 C1066 1.409 . S
C1069 C1067 1.415 . S
C1070 H1060 0.930 . S
C1070 C1068 1.419 . S
C1070 C1071 1.362 . S
C1071 H1061 0.930 . S
C1071 C1064 1.409 . S
C1071 C1070 1.362 . S
H1072 C1078 0.930 . S
H1073 C1081 0.930 . S
H1074 C1082 0.930 . S
H1075 C1083 0.930 . S
H1076 C1086 0.930 . S
H1077 C1087 0.930 . S
C1078 H1072 0.930 . S
C1078 C1079 1.355 . S
C1078 C1080 1.415 . S
C1079 C1078 1.355 . S
C1079 C1081 1.419 . S
C1080 C1078 1.415 . S
C1080 C1085 1.425 . S
C1080 C1087 1.409 . S
C1081 H1073 0.930 . S
C1081 C1079 1.419 . S
C1081 C1082 1.362 . S
C1082 H1074 0.930 . S
C1082 C1081 1.362 . S
C1082 C1085 1.409 . S
C1083 H1075 0.930 . S
C1083 C1084 1.355 . S
C1083 C1085 1.415 . S
C1084 C1083 1.355 . S
C1084 C1086 1.419 . S
C1085 C1080 1.425 . S
C1085 C1082 1.409 . S
C1085 C1083 1.415 . S
C1086 H1076 0.930 . S
C1086 C1084 1.419 . S
C1086 C1087 1.362 . S
C1087 H1077 0.930 . S
C1087 C1080 1.409 . S
C1087 C1086 1.362 . S
H1088 C1094 0.930 . S
H1089 C1097 0.930 . S
H1090 C1098 0.930 . S
H1091 C1099 0.930 . S
H1092 C1102 0.930 . S
H1093 C1103 0.930 . S
C1094 H1088 0.930 . S
C1094 C1095 1.355 . S
C1094 C1096 1.415 . S
C1095 C1094 1.355 . S
C1095 C1097 1.419 . S
C1096 C1094 1.415 . S
C1096 C1101 1.425 . S
C1096 C1103 1.409 . S
C1097 H1089 0.930 . S
C1097 C1095 1.419 . S
C1097 C1098 1.362 . S
C1098 H1090 0.930 . S
C1098 C1097 1.362 . S
C1098 C1101 1.409 . S
C1099 H1091 0.930 . S
C1099 C1100 1.355 . S
C1099 C1101 1.415 . S
C1100 C1099 1.355 . S
C1100 C1102 1.419 . S
C1101 C1096 1.425 . S
C1101 C1098 1.409 . S
C1101 C1099 1.415 . S
C1102 H1092 0.930 . S
C1102 C1100 1.419 . S
C1102 C1103 1.362 . S
C1103 H1093 0.930 . S
C1103 C1096 1.409 . S
C1103 C1102 1.362 . S
H1104 C1110 0.930 . S
H1105 C1113 0.930 . S
H1106 C1114 0.930 . S
H1107 C1115 0.930 . S
H1108 C1118 0.930 . S
H1109 C1119 0.930 . S
C1110 H1104 0.930 . S
C1110 C1111 1.355 . S
C1110 C1112 1.415 . S
C1111 C1110 1.355 . S
C1111 C1113 1.419 . S
C1112 C1110 1.415 . S
C1112 C1117 1.425 . S
C1112 C1119 1.409 . S
C1113 H1105 0.930 . S
C1113 C1111 1.419 . S
C1113 C1114 1.362 . S
C1114 H1106 0.930 . S
C1114 C1113 1.362 . S
C1114 C1117 1.409 . S
C1115 H1107 0.930 . S
C1115 C1116 1.355 . S
C1115 C1117 1.415 . S
C1116 C1115 1.355 . S
C1116 C1118 1.419 . S
C1117 C1112 1.425 . S
C1117 C1114 1.409 . S
C1117 C1115 1.415 . S
C1118 H1108 0.930 . S
C1118 C1116 1.419 . S
C1118 C1119 1.362 . S
C1119 H1109 0.930 . S
C1119 C1112 1.409 . S
C1119 C1118 1.362 . S
H1120 C1126 0.930 . S
H1121 C1129 0.930 . S
H1122 C1130 0.930 . S
H1123 C1131 0.930 . S
H1124 C1134 0.930 . S
H1125 C1135 0.930 . S
C1126 H1120 0.930 . S
C1126 C1127 1.355 . S
C1126 C1128 1.415 . S
C1127 C1126 1.355 . S
C1127 C1129 1.419 . S
C1128 C1126 1.415 . S
C1128 C1133 1.425 . S
C1128 C1135 1.409 . S
C1129 H1121 0.930 . S
C1129 C1127 1.419 . S
C1129 C1130 1.362 . S
C1130 H1122 0.930 . S
C1130 C1129 1.362 . S
C1130 C1133 1.409 . S
C1131 H1123 0.930 . S
C1131 C1132 1.355 . S
C1131 C1133 1.415 . S
C1132 C1131 1.355 . S
C1132 C1134 1.419 . S
C1133 C1128 1.425 . S
C1133 C1130 1.409 . S
C1133 C1131 1.415 . S
C1134 H1124 0.930 . S
C1134 C1132 1.419 . S
C1134 C1135 1.362 . S
C1135 H1125 0.930 . S
C1135 C1128 1.409 . S
C1135 C1134 1.362 . S
H1136 C1142 0.930 . S
H1137 C1145 0.930 . S
H1138 C1146 0.930 . S
H1139 C1147 0.930 . S
H1140 C1150 0.930 . S
H1141 C1151 0.930 . S
C1142 H1136 0.930 . S
C1142 C1143 1.355 . S
C1142 C1144 1.415 . S
C1143 C1142 1.355 . S
C1143 C1145 1.419 . S
C1144 C1142 1.415 . S
C1144 C1149 1.425 . S
C1144 C1151 1.409 . S
C1145 H1137 0.930 . S
C1145 C1143 1.419 . S
C1145 C1146 1.362 . S
C1146 H1138 0.930 . S
C1146 C1145 1.362 . S
C1146 C1149 1.409 . S
C1147 H1139 0.930 . S
C1147 C1148 1.355 . S
C1147 C1149 1.415 . S
C1148 C1147 1.355 . S
C1148 C1150 1.419 . S
C1149 C1144 1.425 . S
C1149 C1146 1.409 . S
C1149 C1147 1.415 . S
C1150 H1140 0.930 . S
C1150 C1148 1.419 . S
C1150 C1151 1.362 . S
C1151 H1141 0.930 . S
C1151 C1144 1.409 . S
C1151 C1150 1.362 . S
H1152 C1158 0.930 . S
H1153 C1161 0.930 . S
H1154 C1162 0.930 . S
H1155 C1163 0.930 . S
H1156 C1166 0.930 . S
H1157 C1167 0.930 . S
C1158 H1152 0.930 . S
C1158 C1159 1.355 . S
C1158 C1160 1.415 . S
C1159 C1158 1.355 . S
C1159 C1161 1.419 . S
C1160 C1158 1.415 . S
C1160 C1165 1.425 . S
C1160 C1167 1.409 . S
C1161 H1153 0.930 . S
C1161 C1159 1.419 . S
C1161 C1162 1.362 . S
C1162 H1154 0.930 . S
C1162 C1161 1.362 . S
C1162 C1165 1.409 . S
C1163 H1155 0.930 . S
C1163 C1164 1.355 . S
C1163 C1165 1.415 . S
C1164 C1163 1.355 . S
C1164 C1166 1.419 . S
C1165 C1160 1.425 . S
C1165 C1162 1.409 . S
C1165 C1163 1.415 . S
C1166 H1156 0.930 . S
C1166 C1164 1.419 . S
C1166 C1167 1.362 . S
C1167 H1157 0.930 . S
C1167 C1160 1.409 . S
C1167 C1166 1.362 . S
H1168 C1174 0.930 . S
H1169 C1177 0.930 . S
H1170 C1178 0.930 . S
H1171 C1179 0.930 . S
H1172 C1182 0.930 . S
H1173 C1183 0.930 . S
C1174 H1168 0.930 . S
C1174 C1175 1.355 . S
C1174 C1176 1.415 . S
C1175 C1174 1.355 . S
C1175 C1177 1.419 . S
C1176 C1174 1.415 . S
C1176 C1181 1.425 . S
C1176 C1183 1.409 . S
C1177 H1169 0.930 . S
C1177 C1175 1.419 . S
C1177 C1178 1.362 . S
C1178 H1170 0.930 . S
C1178 C1177 1.362 . S
C1178 C1181 1.409 . S
C1179 H1171 0.930 . S
C1179 C1180 1.355 . S
C1179 C1181 1.415 . S
C1180 C1179 1.355 . S
C1180 C1182 1.419 . S
C1181 C1176 1.425 . S
C1181 C1178 1.409 . S
C1181 C1179 1.415 . S
C1182 H1172 0.930 . S
C1182 C1180 1.419 . S
C1182 C1183 1.362 . S
C1183 H1173 0.930 . S
C1183 C1176 1.409 . S
C1183 C1182 1.362 . S
H1184 C1190 0.930 . S
H1185 C1193 0.930 . S
H1186 C1194 0.930 . S
H1187 C1195 0.930 . S
H1188 C1198 0.930 . S
H1189 C1199 0.930 . S
C1190 H1184 0.930 . S
C1190 C1191 1.355 . S
C1190 C1192 1.415 . S
C1191 C1190 1.355 . S
C1191 C1193 1.419 . S
C1192 C1190 1.415 . S
C1192 C1197 1.425 . S
C1192 C1199 1.409 . S
C1193 H1185 0.930 . S
C1193 C1191 1.419 . S
C1193 C1194 1.362 . S
C1194 H1186 0.930 . S
C1194 C1193 1.362 . S
C1194 C1197 1.409 . S
C1195 H1187 0.930 . S
C1195 C1196 1.355 . S
C1195 C1197 1.415 . S
C1196 C1195 1.355 . S
C1196 C1198 1.419 . S
C1197 C1192 1.425 . S
C1197 C1194 1.409 . S
C1197 C1195 1.415 . S
C1198 H1188 0.930 . S
C1198 C1196 1.419 . S
C1198 C1199 1.362 . S
C1199 H1189 0.930 . S
C1199 C1192 1.409 . S
C1199 C1198 1.362 . S
H1200 C1206 0.930 . S
H1201 C1209 0.930 . S
H1202 C1210 0.930 . S
H1203 C1211 0.930 . S
H1204 C1214 0.930 . S
H1205 C1215 0.930 . S
C1206 H1200 0.930 . S
C1206 C1207 1.355 . S
C1206 C1208 1.415 . S
C1207 C1206 1.355 . S
C1207 C1209 1.419 . S
C1208 C1206 1.415 . S
C1208 C1213 1.425 . S
C1208 C1215 1.409 . S
C1209 H1201 0.930 . S
C1209 C1207 1.419 . S
C1209 C1210 1.362 . S
C1210 H1202 0.930 . S
C1210 C1209 1.362 . S
C1210 C1213 1.409 . S
C1211 H1203 0.930 . S
C1211 C1212 1.355 . S
C1211 C1213 1.415 . S
C1212 C1211 1.355 . S
C1212 C1214 1.419 . S
C1213 C1208 1.425 . S
C1213 C1210 1.409 . S
C1213 C1211 1.415 . S
C1214 H1204 0.930 . S
C1214 C1212 1.419 . S
C1214 C1215 1.362 . S
C1215 H1205 0.930 . S
C1215 C1208 1.409 . S
C1215 C1214 1.362 . S
H1216 C1222 0.930 . S
H1217 C1225 0.930 . S
H1218 C1226 0.930 . S
H1219 C1227 0.930 . S
H1220 C1230 0.930 . S
H1221 C1231 0.930 . S
C1222 H1216 0.930 . S
C1222 C1223 1.355 . S
C1222 C1224 1.415 . S
C1223 C1222 1.355 . S
C1223 C1225 1.419 . S
C1224 C1222 1.415 . S
C1224 C1229 1.425 . S
C1224 C1231 1.409 . S
C1225 H1217 0.930 . S
C1225 C1223 1.419 . S
C1225 C1226 1.362 . S
C1226 H1218 0.930 . S
C1226 C1225 1.362 . S
C1226 C1229 1.409 . S
C1227 H1219 0.930 . S
C1227 C1228 1.355 . S
C1227 C1229 1.415 . S
C1228 C1227 1.355 . S
C1228 C1230 1.419 . S
C1229 C1224 1.425 . S
C1229 C1226 1.409 . S
C1229 C1227 1.415 . S
C1230 H1220 0.930 . S
C1230 C1228 1.419 . S
C1230 C1231 1.362 . S
C1231 H1221 0.930 . S
C1231 C1224 1.409 . S
C1231 C1230 1.362 . S
H1232 C1238 0.930 . S
H1233 C1241 0.930 . S
H1234 C1242 0.930 . S
H1235 C1243 0.930 . S
H1236 C1246 0.930 . S
H1237 C1247 0.930 . S
C1238 H1232 0.930 . S
C1238 C1239 1.355 . S
C1238 C1240 1.415 . S
C1239 C1238 1.355 . S
C1239 C1241 1.419 . S
C1240 C1238 1.415 . S
C1240 C1245 1.425 . S
C1240 C1247 1.409 . S
C1241 H1233 0.930 . S
C1241 C1239 1.419 . S
C1241 C1242 1.362 . S
C1242 H1234 0.930 . S
C1242 C1241 1.362 . S
C1242 C1245 1.409 . S
C1243 H1235 0.930 . S
C1243 C1244 1.355 . S
C1243 C1245 1.415 . S
C1244 C1243 1.355 . S
C1244 C1246 1.419 . S
C1245 C1240 1.425 . S
C1245 C1242 1.409 . S
C1245 C1243 1.415 . S
C1246 H1236 0.930 . S
C1246 C1244 1.419 . S
C1246 C1247 1.362 . S
C1247 H1237 0.930 . S
C1247 C1240 1.409 . S
C1247 C1246 1.362 . S
H1248 C1254 0.930 . S
H1249 C1257 0.930 . S
H1250 C1258 0.930 . S
H1251 C1259 0.930 . S
H1252 C1262 0.930 . S
H1253 C1263 0.930 . S
C1254 H1248 0.930 . S
C1254 C1255 1.355 . S
C1254 C1256 1.415 . S
C1255 C1254 1.355 . S
C1255 C1257 1.419 . S
C1256 C1254 1.415 . S
C1256 C1261 1.425 . S
C1256 C1263 1.409 . S
C1257 H1249 0.930 . S
C1257 C1255 1.419 . S
C1257 C1258 1.362 . S
C1258 H1250 0.930 . S
C1258 C1257 1.362 . S
C1258 C1261 1.409 . S
C1259 H1251 0.930 . S
C1259 C1260 1.355 . S
C1259 C1261 1.415 . S
C1260 C1259 1.355 . S
C1260 C1262 1.419 . S
C1261 C1256 1.425 . S
C1261 C1258 1.409 . S
C1261 C1259 1.415 . S
C1262 H1252 0.930 . S
C1262 C1260 1.419 . S
C1262 C1263 1.362 . S
C1263 H1253 0.930 . S
C1263 C1256 1.409 . S
C1263 C1262 1.362 . S
H1264 C1270 0.930 . S
H1265 C1273 0.930 . S
H1266 C1274 0.930 . S
H1267 C1275 0.930 . S
H1268 C1278 0.930 . S
H1269 C1279 0.930 . S
C1270 H1264 0.930 . S
C1270 C1271 1.355 . S
C1270 C1272 1.415 . S
C1271 C1270 1.355 . S
C1271 C1273 1.419 . S
C1272 C1270 1.415 . S
C1272 C1277 1.425 . S
C1272 C1279 1.409 . S
C1273 H1265 0.930 . S
C1273 C1271 1.419 . S
C1273 C1274 1.362 . S
C1274 H1266 0.930 . S
C1274 C1273 1.362 . S
C1274 C1277 1.409 . S
C1275 H1267 0.930 . S
C1275 C1276 1.355 . S
C1275 C1277 1.415 . S
C1276 C1275 1.355 . S
C1276 C1278 1.419 . S
C1277 C1272 1.425 . S
C1277 C1274 1.409 . S
C1277 C1275 1.415 . S
C1278 H1268 0.930 . S
C1278 C1276 1.419 . S
C1278 C1279 1.362 . S
C1279 H1269 0.930 . S
C1279 C1272 1.409 . S
C1279 C1278 1.362 . S
H1280 C1286 0.930 . S
H1281 C1289 0.930 . S
H1282 C1290 0.930 . S
H1283 C1291 0.930 . S
H1284 C1294 0.930 . S
H1285 C1295 0.930 . S
C1286 H1280 0.930 . S
C1286 C1287 1.355 . S
C1286 C1288 1.415 . S
C1287 C1286 1.355 . S
C1287 C1289 1.419 . S
C1288 C1286 1.415 . S
C1288 C1293 1.425 . S
C1288 C1295 1.409 . S
C1289 H1281 0.930 . S
C1289 C1287 1.419 . S
C1289 C1290 1.362 . S
C1290 H1282 0.930 . S
C1290 C1289 1.362 . S
C1290 C1293 1.409 . S
C1291 H1283 0.930 . S
C1291 C1292 1.355 . S
C1291 C1293 1.415 . S
C1292 C1291 1.355 . S
C1292 C1294 1.419 . S
C1293 C1288 1.425 . S
C1293 C1290 1.409 . S
C1293 C1291 1.415 . S
C1294 H1284 0.930 . S
C1294 C1292 1.419 . S
C1294 C1295 1.362 . S
C1295 H1285 0.930 . S
C1295 C1288 1.409 . S
C1295 C1294 1.362 . S
H1296 C1302 0.930 . S
H1297 C1305 0.930 . S
H1298 C1306 0.930 . S
H1299 C1307 0.930 . S
H1300 C1310 0.930 . S
H1301 C1311 0.930 . S
C1302 H1296 0.930 . S
C1302 C1303 1.355 . S
C1302 C1304 1.415 . S
C1303 C1302 1.355 . S
C1303 C1305 1.419 . S
C1304 C1302 1.415 . S
C1304 C1309 1.425 . S
C1304 C1311 1.409 . S
C1305 H1297 0.930 . S
C1305 C1303 1.419 . S
C1305 C1306 1.362 . S
C1306 H1298 0.930 . S
C1306 C1305 1.362 . S
C1306 C1309 1.409 . S
C1307 H1299 0.930 . S
C1307 C1308 1.355 . S
C1307 C1309 1.415 . S
C1308 C1307 1.355 . S
C1308 C1310 1.419 . S
C1309 C1304 1.425 . S
C1309 C1306 1.409 . S
C1309 C1307 1.415 . S
C1310 H1300 0.930 . S
C1310 C1308 1.419 . S
C1310 C1311 1.362 . S
C1311 H1301 0.930 . S
C1311 C1304 1.409 . S
C1311 C1310 1.362 . S
H1312 C1318 0.930 . S
H1313 C1321 0.930 . S
H1314 C1322 0.930 . S
H1315 C1323 0.930 . S
H1316 C1326 0.930 . S
H1317 C1327 0.930 . S
C1318 H1312 0.930 . S
C1318 C1319 1.355 . S
C1318 C1320 1.415 . S
C1319 C1318 1.355 . S
C1319 C1321 1.419 . S
C1320 C1318 1.415 . S
C1320 C1325 1.425 . S
C1320 C1327 1.409 . S
C1321 H1313 0.930 . S
C1321 C1319 1.419 . S
C1321 C1322 1.362 . S
C1322 H1314 0.930 . S
C1322 C1321 1.362 . S
C1322 C1325 1.409 . S
C1323 H1315 0.930 . S
C1323 C1324 1.355 . S
C1323 C1325 1.415 . S
C1324 C1323 1.355 . S
C1324 C1326 1.419 . S
C1325 C1320 1.425 . S
C1325 C1322 1.409 . S
C1325 C1323 1.415 . S
C1326 H1316 0.930 . S
C1326 C1324 1.419 . S
C1326 C1327 1.362 . S
C1327 H1317 0.930 . S
C1327 C1320 1.409 . S
C1327 C1326 1.362 . S
H1328 C1334 0.930 . S
H1329 C1337 0.930 . S
H1330 C1338 0.930 . S
H1331 C1339 0.930 . S
H1332 C1342 0.930 . S
H1333 C1343 0.930 . S
C1334 H1328 0.930 . S
C1334 C1335 1.355 . S
C1334 C1336 1.415 . S
C1335 C1334 1.355 . S
C1335 C1337 1.419 . S
C1336 C1334 1.415 . S
C1336 C1341 1.425 . S
C1336 C1343 1.409 . S
C1337 H1329 0.930 . S
C1337 C1335 1.419 . S
C1337 C1338 1.362 . S
C1338 H1330 0.930 . S
C1338 C1337 1.362 . S
C1338 C1341 1.409 . S
C1339 H1331 0.930 . S
C1339 C1340 1.355 . S
C1339 C1341 1.415 . S
C1340 C1339 1.355 . S
C1340 C1342 1.419 . S
C1341 C1336 1.425 . S
C1341 C1338 1.409 . S
C1341 C1339 1.415 . S
C1342 H1332 0.930 . S
C1342 C1340 1.419 . S
C1342 C1343 1.362 . S
C1343 H1333 0.930 . S
C1343 C1336 1.409 . S
C1343 C1342 1.362 . S
H1344 C1350 0.930 . S
H1345 C1353 0.930 . S
H1346 C1354 0.930 . S
H1347 C1355 0.930 . S
H1348 C1358 0.930 . S
H1349 C1359 0.930 . S
C1350 H1344 0.930 . S
C1350 C1351 1.355 . S
C1350 C1352 1.415 . S
C1351 C1350 1.355 . S
C1351 C1353 1.419 . S
C1352 C1350 1.415 . S
C1352 C1357 1.425 . S
C1352 C1359 1.409 . S
C1353 H1345 0.930 . S
C1353 C1351 1.419 . S
C1353 C1354 1.362 . S
C1354 H1346 0.930 . S
C1354 C1353 1.362 . S
C1354 C1357 1.409 . S
C1355 H1347 0.930 . S
C1355 C1356 1.355 . S
C1355 C1357 1.415 . S
C1356 C1355 1.355 . S
C1356 C1358 1.419 . S
C1357 C1352 1.425 . S
C1357 C1354 1.409 . S
C1357 C1355 1.415 . S
C1358 H1348 0.930 . S
C1358 C1356 1.419 . S
C1358 C1359 1.362 . S
C1359 H1349 0.930 . S
C1359 C1352 1.409 . S
C1359 C1358 1.362 . S
H1360 C1366 0.930 . S
H1361 C1369 0.930 . S
H1362 C1370 0.930 . S
H1363 C1371 0.930 . S
H1364 C1374 0.930 . S
H1365 C1375 0.930 . S
C1366 H1360 0.930 . S
C1366 C1367 1.355 . S
C1366 C1368 1.415 . S
C1367 C1366 1.355 . S
C1367 C1369 1.419 . S
C1368 C1366 1.415 . S
C1368 C1373 1.425 . S
C1368 C1375 1.409 . S
C1369 H1361 0.930 . S
C1369 C1367 1.419 . S
C1369 C1370 1.362 . S
C1370 H1362 0.930 . S
C1370 C1369 1.362 . S
C1370 C1373 1.409 . S
C1371 H1363 0.930 . S
C1371 C1372 1.355 . S
C1371 C1373 1.415 . S
C1372 C1371 1.355 . S
C1372 C1374 1.419 . S
C1373 C1368 1.425 . S
C1373 C1370 1.409 . S
C1373 C1371 1.415 . S
C1374 H1364 0.930 . S
C1374 C1372 1.419 . S
C1374 C1375 1.362 . S
C1375 H1365 0.930 . S
C1375 C1368 1.409 . S
C1375 C1374 1.362 . S
H1376 C1382 0.930 . S
H1377 C1385 0.930 . S
H1378 C1386 0.930 . S
H1379 C1387 0.930 . S
H1380 C1390 0.930 . S
H1381 C1391 0.930 . S
C1382 H1376 0.930 . S
C1382 C1383 1.355 . S
C1382 C1384 1.415 . S
C1383 C1382 1.355 . S
C1383 C1385 1.419 . S
C1384 C1382 1.415 . S
C1384 C1389 1.425 . S
C1384 C1391 1.409 . S
C1385 H1377 0.930 . S
C1385 C1383 1.419 . S
C1385 C1386 1.362 . S
C1386 H1378 0.930 . S
C1386 C1385 1.362 . S
C1386 C1389 1.409 . S
C1387 H1379 0.930 . S
C1387 C1388 1.355 . S
C1387 C1389 1.415 . S
C1388 C1387 1.355 . S
C1388 C1390 1.419 . S
C1389 C1384 1.425 . S
C1389 C1386 1.409 . S
C1389 C1387 1.415 . S
C1390 H1380 0.930 . S
C1390 C1388 1.419 . S
C1390 C1391 1.362 . S
C1391 H1381 0.930 . S
C1391 C1384 1.409 . S
C1391 C1390 1.362 . S
H1392 C1398 0.930 . S
H1393 C1401 0.930 . S
H1394 C1402 0.930 . S
H1395 C1403 0.930 . S
H1396 C1406 0.930 . S
H1397 C1407 0.930 . S
C1398 H1392 0.930 . S
C1398 C1399 1.355 . S
C1398 C1400 1.415 . S
C1399 C1398 1.355 . S
C1399 C1401 1.419 . S
C1400 C1398 1.415 . S
C1400 C1405 1.425 . S
C1400 C1407 1.409 . S
C1401 H1393 0.930 . S
C1401 C1399 1.419 . S
C1401 C1402 1.362 . S
C1402 H1394 0.930 . S
C1402 C1401 1.362 . S
C1402 C1405 1.409 . S
C1403 H1395 0.930 . S
C1403 C1404 1.355 . S
C1403 C1405 1.415 . S
C1404 C1403 1.355 . S
C1404 C1406 1.419 . S
C1405 C1400 1.425 . S
C1405 C1402 1.409 . S
C1405 C1403 1.415 . S
C1406 H1396 0.930 . S
C1406 C1404 1.419 . S
C1406 C1407 1.362 . S
C1407 H1397 0.930 . S
C1407 C1400 1.409 . S
C1407 C1406 1.362 . S
H1408 C1414 0.930 . S
H1409 C1417 0.930 . S
H1410 C1418 0.930 . S
H1411 C1419 0.930 . S
H1412 C1422 0.930 . S
H1413 C1423 0.930 . S
C1414 H1408 0.930 . S
C1414 C1415 1.355 . S
C1414 C1416 1.415 . S
C1415 C1414 1.355 . S
C1415 C1417 1.419 . S
C1416 C1414 1.415 . S
C1416 C1421 1.425 . S
C1416 C1423 1.409 . S
C1417 H1409 0.930 . S
C1417 C1415 1.419 . S
C1417 C1418 1.362 . S
C1418 H1410 0.930 . S
C1418 C1417 1.362 . S
C1418 C1421 1.409 . S
C1419 H1411 0.930 . S
C1419 C1420 1.355 . S
C1419 C1421 1.415 . S
C1420 C1419 1.355 . S
C1420 C1422 1.419 . S
C1421 C1416 1.425 . S
C1421 C1418 1.409 . S
C1421 C1419 1.415 . S
C1422 H1412 0.930 . S
C1422 C1420 1.419 . S
C1422 C1423 1.362 . S
C1423 H1413 0.930 . S
C1423 C1416 1.409 . S
C1423 C1422 1.362 . S
H1424 C1430 0.930 . S
H1425 C1433 0.930 . S
H1426 C1434 0.930 . S
H1427 C1435 0.930 . S
H1428 C1438 0.930 . S
H1429 C1439 0.930 . S
C1430 H1424 0.930 . S
C1430 C1431 1.355 . S
C1430 C1432 1.415 . S
C1431 C1430 1.355 . S
C1431 C1433 1.419 . S
C1432 C1430 1.415 . S
C1432 C1437 1.425 . S
C1432 C1439 1.409 . S
C1433 H1425 0.930 . S
C1433 C1431 1.419 . S
C1433 C1434 1.362 . S
C1434 H1426 0.930 . S
C1434 C1433 1.362 . S
C1434 C1437 1.409 . S
C1435 H1427 0.930 . S
C1435 C1436 1.355 . S
C1435 C1437 1.415 . S
C1436 C1435 1.355 . S
C1436 C1438 1.419 . S
C1437 C1432 1.425 . S
C1437 C1434 1.409 . S
C1437 C1435 1.415 . S
C1438 H1428 0.930 . S
C1438 C1436 1.419 . S
C1438 C1439 1.362 . S
C1439 H1429 0.930 . S
C1439 C1432 1.409 . S
C1439 C1438 1.362 . S
H1440 C1446 0.930 . S
H1441 C1449 0.930 . S
H1442 C1450 0.930 . S
H1443 C1451 0.930 . S
H1444 C1454 0.930 . S
H1445 C1455 0.930 . S
C1446 H1440 0.930 . S
C1446 C1447 1.355 . S
C1446 C1448 1.415 . S
C1447 C1446 1.355 . S
C1447 C1449 1.419 . S
C1448 C1446 1.415 . S
C1448 C1453 1.425 . S
C1448 C1455 1.409 . S
C1449 H1441 0.930 . S
C1449 C1447 1.419 . S
C1449 C1450 1.362 . S
C1450 H1442 0.930 . S
C1450 C1449 1.362 . S
C1450 C1453 1.409 . S
C1451 H1443 0.930 . S
C1451 C1452 1.355 . S
C1451 C1453 1.415 . S
C1452 C1451 1.355 . S
C1452 C1454 1.419 . S
C1453 C1448 1.425 . S
C1453 C1450 1.409 . S
C1453 C1451 1.415 . S
C1454 H1444 0.930 . S
C1454 C1452 1.419 . S
C1454 C1455 1.362 . S
C1455 H1445 0.930 . S
C1455 C1448 1.409 . S
C1455 C1454 1.362 . S
H1456 C1462 0.930 . S
H1457 C1465 0.930 . S
H1458 C1466 0.930 . S
H1459 C1467 0.930 . S
H1460 C1470 0.930 . S
H1461 C1471 0.930 . S
C1462 H1456 0.930 . S
C1462 C1463 1.355 . S
C1462 C1464 1.415 . S
C1463 C1462 1.355 . S
C1463 C1465 1.419 . S
C1464 C1462 1.415 . S
C1464 C1469 1.425 . S
C1464 C1471 1.409 . S
C1465 H1457 0.930 . S
C1465 C1463 1.419 . S
C1465 C1466 1.362 . S
C1466 H1458 0.930 . S
C1466 C1465 1.362 . S
C1466 C1469 1.409 . S
C1467 H1459 0.930 . S
C1467 C1468 1.355 . S
C1467 C1469 1.415 . S
C1468 C1467 1.355 . S
C1468 C1470 1.419 . S
C1469 C1464 1.425 . S
C1469 C1466 1.409 . S
C1469 C1467 1.415 . S
C1470 H1460 0.930 . S
C1470 C1468 1.419 . S
C1470 C1471 1.362 . S
C1471 H1461 0.930 . S
C1471 C1464 1.409 . S
C1471 C1470 1.362 . S
H1472 C1478 0.930 . S
H1473 C1481 0.930 . S
H1474 C1482 0.930 . S
H1475 C1483 0.930 . S
H1476 C1486 0.930 . S
H1477 C1487 0.930 . S
C1478 H1472 0.930 . S
C1478 C1479 1.355 . S
C1478 C1480 1.415 . S
C1479 C1478 1.355 . S
C1479 C1481 1.419 . S
C1480 C1478 1.415 . S
C1480 C1485 1.425 . S
C1480 C1487 1.409 . S
C1481 H1473 0.930 . S
C1481 C1479 1.419 . S
C1481 C1482 1.362 . S
C1482 H1474 0.930 . S
C1482 C1481 1.362 . S
C1482 C1485 1.409 . S
C1483 H1475 0.930 . S
C1483 C1484 1.355 . S
C1483 C1485 1.415 . S
C1484 C1483 1.355 . S
C1484 C1486 1.419 . S
C1485 C1480 1.425 . S
C1485 C1482 1.409 . S
C1485 C1483 1.415 . S
C1486 H1476 0.930 . S
C1486 C1484 1.419 . S
C1486 C1487 1.362 . S
C1487 H1477 0.930 . S
C1487 C1480 1.409 . S
C1487 C1486 1.362 . S
H1488 C1494 0.930 . S
H1489 C1497 0.930 . S
H1490 C1498 0.930 . S
H1491 C1499 0.930 . S
H1492 C1502 0.930 . S
H1493 C1503 0.930 . S
C1494 H1488 0.930 . S
C1494 C1495 1.355 . S
C1494 C1496 1.415 . S
C1495 C1494 1.355 . S
C1495 C1497 1.419 . S
C1496 C1494 1.415 . S
C1496 C1501 1.425 . S
C1496 C1503 1.409 . S
C1497 H1489 0.930 . S
C1497 C1495 1.419 . S
C1497 C1498 1.362 . S
C1498 H1490 0.930 . S
C1498 C1497 1.362 . S
C1498 C1501 1.409 . S
C1499 H1491 0.930 . S
C1499 C1500 1.355 . S
C1499 C1501 1.415 . S
C1500 C1499 1.355 . S
C1500 C1502 1.419 . S
C1501 C1496 1.425 . S
C1501 C1498 1.409 . S
C1501 C1499 1.415 . S
C1502 H1492 0.930 . S
C1502 C1500 1.419 . S
C1502 C1503 1.362 . S
C1503 H1493 0.930 . S
C1503 C1496 1.409 . S
C1503 C1502 1.362 . S
H1504 C1510 0.930 . S
H1505 C1513 0.930 . S
H1506 C1514 0.930 . S
H1507 C1515 0.930 . S
H1508 C1518 0.930 . S
H1509 C1519 0.930 . S
C1510 H1504 0.930 . S
C1510 C1511 1.355 . S
C1510 C1512 1.415 . S
C1511 C1510 1.355 . S
C1511 C1513 1.419 . S
C1512 C1510 1.415 . S
C1512 C1517 1.425 . S
C1512 C1519 1.409 . S
C1513 H1505 0.930 . S
C1513 C1511 1.419 . S
C1513 C1514 1.362 . S
C1514 H1506 0.930 . S
C1514 C1513 1.362 . S
C1514 C1517 1.409 . S
C1515 H1507 0.930 . S
C1515 C1516 1.355 . S
C1515 C1517 1.415 . S
C1516 C1515 1.355 . S
C1516 C1518 1.419 . S
C1517 C1512 1.425 . S
C1517 C1514 1.409 . S
C1517 C1515 1.415 . S
C1518 H1508 0.930 . S
C1518 C1516 1.419 . S
C1518 C1519 1.362 . S
C1519 H1509 0.930 . S
C1519 C1512 1.409 . S
C1519 C1518 1.362 . S
H1520 C1526 0.930 . S
H1521 C1529 0.930 . S
H1522 C1530 0.930 . S
H1523 C1531 0.930 . S
H1524 C1534 0.930 . S
H1525 C1535 0.930 . S
C1526 H1520 0.930 . S
C1526 C1527 1.355 . S
C1526 C1528 1.415 . S
C1527 C1526 1.355 . S
C1527 C1529 1.419 . S
C1528 C1526 1.415 . S
C1528 C1533 1.425 . S
C1528 C1535 1.409 . S
C1529 H1521 0.930 . S
C1529 C1527 1.419 . S
C1529 C1530 1.362 . S
C1530 H1522 0.930 . S
C1530 C1529 1.362 . S
C1530 C1533 1.409 . S
C1531 H1523 0.930 . S
C1531 C1532 1.355 . S
C1531 C1533 1.415 . S
C1532 C1531 1.355 . S
C1532 C1534 1.419 . S
C1533 C1528 1.425 . S
C1533 C1530 1.409 . S
C1533 C1531 1.415 . S
C1534 H1524 0.930 . S
C1534 C1532 1.419 . S
C1534 C1535 1.362 . S
C1535 H1525 0.930 . S
C1535 C1528 1.409 . S
C1535 C1534 1.362 . S
H1536 C1542 0.930 . S
H1537 C1545 0.930 . S
H1538 C1546 0.930 . S
H1539 C1547 0.930 . S
H1540 C1550 0.930 . S
H1541 C1551 0.930 . S
C1542 H1536 0.930 . S
C1542 C1543 1.355 . S
C1542 C1544 1.415 . S
C1543 C1542 1.355 . S
C1543 C1545 1.419 . S
C1544 C1542 1.415 . S
C1544 C1549 1.425 . S
C1544 C1551 1.409 . S
C1545 H1537 0.930 . S
C1545 C1543 1.419 . S
C1545 C1546 1.362 . S
C1546 H1538 0.930 . S
C1546 C1545 1.362 . S
C1546 C1549 1.409 . S
C1547 H1539 0.930 . S
C1547 C1548 1.355 . S
C1547 C1549 1.415 . S
C1548 C1547 1.355 . S
C1548 C1550 1.419 . S
C1549 C1544 1.425 . S
C1549 C1546 1.409 . S
C1549 C1547 1.415 . S
C1550 H1540 0.930 . S
C1550 C1548 1.419 . S
C1550 C1551 1.362 . S
C1551 H1541 0.930 . S
C1551 C1544 1.409 . S
C1551 C1550 1.362 . S
H1552 C1558 0.930 . S
H1553 C1561 0.930 . S
H1554 C1562 0.930 . S
H1555 C1563 0.930 . S
H1556 C1566 0.930 . S
H1557 C1567 0.930 . S
C1558 H1552 0.930 . S
C1558 C1559 1.355 . S
C1558 C1560 1.415 . S
C1559 C1558 1.355 . S
C1559 C1561 1.419 . S
C1560 C1558 1.415 . S
C1560 C1565 1.425 . S
C1560 C1567 1.409 . S
C1561 H1553 0.930 . S
C1561 C1559 1.419 . S
C1561 C1562 1.362 . S
C1562 H1554 0.930 . S
C1562 C1561 1.362 . S
C1562 C1565 1.409 . S
C1563 H1555 0.930 . S
C1563 C1564 1.355 . S
C1563 C1565 1.415 . S
C1564 C1563 1.355 . S
C1564 C1566 1.419 . S
C1565 C1560 1.425 . S
C1565 C1562 1.409 . S
C1565 C1563 1.415 . S
C1566 H1556 0.930 . S
C1566 C1564 1.419 . S
C1566 C1567 1.362 . S
C1567 H1557 0.930 . S
C1567 C1560 1.409 . S
C1567 C1566 1.362 . S
H1568 C1574 0.930 . S
H1569 C1577 0.930 . S
H1570 C1578 0.930 . S
H1571 C1579 0.930 . S
H1572 C1582 0.930 . S
H1573 C1583 0.930 . S
C1574 H1568 0.930 . S
C1574 C1575 1.355 . S
C1574 C1576 1.415 . S
C1575 C1574 1.355 . S
C1575 C1577 1.419 . S
C1576 C1574 1.415 . S
C1576 C1581 1.425 . S
C1576 C1583 1.409 . S
C1577 H1569 0.930 . S
C1577 C1575 1.419 . S
C1577 C1578 1.362 . S
C1578 H1570 0.930 . S
C1578 C1577 1.362 . S
C1578 C1581 1.409 . S
C1579 H1571 0.930 . S
C1579 C1580 1.355 . S
C1579 C1581 1.415 . S
C1580 C1579 1.355 . S
C1580 C1582 1.419 . S
C1581 C1576 1.425 . S
C1581 C1578 1.409 . S
C1581 C1579 1.415 . S
C1582 H1572 0.930 . S
C1582 C1580 1.419 . S
C1582 C1583 1.362 . S
C1583 H1573 0.930 . S
C1583 C1576 1.409 . S
C1583 C1582 1.362 . S
H1584 C1590 0.930 . S
H1585 C1593 0.930 . S
H1586 C1594 0.930 . S
H1587 C1595 0.930 . S
H1588 C1598 0.930 . S
H1589 C1599 0.930 . S
C1590 H1584 0.930 . S
C1590 C1591 1.355 . S
C1590 C1592 1.415 . S
C1591 C1590 1.355 . S
C1591 C1593 1.419 . S
C1592 C1590 1.415 . S
C1592 C1597 1.425 . S
C1592 C1599 1.409 . S
C1593 H1585 0.930 . S
C1593 C1591 1.419 . S
C1593 C1594 1.362 . S
C1594 H1586 0.930 . S
C1594 C1593 1.362 . S
C1594 C1597 1.409 . S
C1595 H1587 0.930 . S
C1595 C1596 1.355 . S
C1595 C1597 1.415 . S
C1596 C1595 1.355 . S
C1596 C1598 1.419 . S
C1597 C1592 1.425 . S
C1597 C1594 1.409 . S
C1597 C1595 1.415 . S
C1598 H1588 0.930 . S
C1598 C1596 1.419 . S
C1598 C1599 1.362 . S
C1599 H1589 0.930 . S
C1599 C1592 1.409 . S
C1599 C1598 1.362 . S
H1600 C1606 0.930 . S
H1601 C1609 0.930 . S
H1602 C1610 0.930 . S
H1603 C1611 0.930 . S
H1604 C1614 0.930 . S
H1605 C1615 0.930 . S
C1606 H1600 0.930 . S
C1606 C1607 1.355 . S
C1606 C1608 1.415 . S
C1607 C1606 1.355 . S
C1607 C1609 1.419 . S
C1608 C1606 1.415 . S
C1608 C1613 1.425 . S
C1608 C1615 1.409 . S
C1609 H1601 0.930 . S
C1609 C1607 1.419 . S
C1609 C1610 1.362 . S
C1610 H1602 0.930 . S
C1610 C1609 1.362 . S
C1610 C1613 1.409 . S
C1611 H1603 0.930 . S
C1611 C1612 1.355 . S
C1611 C1613 1.415 . S
C1612 C1611 1.355 . S
C1612 C1614 1.419 . S
C1613 C1608 1.425 . S
C1613 C1610 1.409 . S
C1613 C1611 1.415 . S
C1614 H1604 0.930 . S
C1614 C1612 1.419 . S
C1614 C1615 1.362 . S
C1615 H1605 0.930 . S
C1615 C1608 1.409 . S
C1615 C1614 1.362 . S
H1616 C1622 0.930 . S
H1617 C1625 0.930 . S
H1618 C1626 0.930 . S
H1619 C1627 0.930 . S
H1620 C1630 0.930 . S
H1621 C1631 0.930 . S
C1622 H1616 0.930 . S
C1622 C1623 1.355 . S
C1622 C1624 1.415 . S
C1623 C1622 1.355 . S
C1623 C1625 1.419 . S
C1624 C1622 1.415 . S
C1624 C1629 1.425 . S
C1624 C1631 1.409 . S
C1625 H1617 0.930 . S
C1625 C1623 1.419 . S
C1625 C1626 1.362 . S
C1626 H1618 0.930 . S
C1626 C1625 1.362 . S
C1626 C1629 1.409 . S
C1627 H1619 0.930 . S
C1627 C1628 1.355 . S
C1627 C1629 1.415 . S
C1628 C1627 1.355 . S
C1628 C1630 1.419 . S
C1629 C1624 1.425 . S
C1629 C1626 1.409 . S
C1629 C1627 1.415 . S
C1630 H1620 0.930 . S
C1630 C1628 1.419 . S
C1630 C1631 1.362 . S
C1631 H1621 0.930 . S
C1631 C1624 1.409 . S
C1631 C1630 1.362 . S
H1632 C1638 0.930 . S
H1633 C1641 0.930 . S
H1634 C1642 0.930 . S
H1635 C1643 0.930 . S
H1636 C1646 0.930 . S
H1637 C1647 0.930 . S
C1638 H1632 0.930 . S
C1638 C1639 1.355 . S
C1638 C1640 1.415 . S
C1639 C1638 1.355 . S
C1639 C1641 1.419 . S
C1640 C1638 1.415 . S
C1640 C1645 1.425 . S
C1640 C1647 1.409 . S
C1641 H1633 0.930 . S
C1641 C1639 1.419 . S
C1641 C1642 1.362 . S
C1642 H1634 0.930 . S
C1642 C1641 1.362 . S
C1642 C1645 1.409 . S
C1643 H1635 0.930 . S
C1643 C1644 1.355 . S
C1643 C1645 1.415 . S
C1644 C1643 1.355 . S
C1644 C1646 1.419 . S
C1645 C1640 1.425 . S
C1645 C1642 1.409 . S
C1645 C1643 1.415 . S
C1646 H1636 0.930 . S
C1646 C1644 1.419 . S
C1646 C1647 1.362 . S
C1647 H1637 0.930 . S
C1647 C1640 1.409 . S
C1647 C1646 1.362 . S
H1648 C1654 0.930 . S
H1649 C1657 0.930 . S
H1650 C1658 0.930 . S
H1651 C1659 0.930 . S
H1652 C1662 0.930 . S
H1653 C1663 0.930 . S
C1654 H1648 0.930 . S
C1654 C1655 1.355 . S
C1654 C1656 1.415 . S
C1655 C1654 1.355 . S
C1655 C1657 1.419 . S
C1656 C1654 1.415 . S
C1656 C1661 1.425 . S
C1656 C1663 1.409 . S
C1657 H1649 0.930 . S
C1657 C1655 1.419 . S
C1657 C1658 1.362 . S
C1658 H1650 0.930 . S
C1658 C1657 1.362 . S
C1658 C1661 1.409 . S
C1659 H1651 0.930 . S
C1659 C1660 1.355 . S
C1659 C1661 1.415 . S
C1660 C1659 1.355 . S
C1660 C1662 1.419 . S
C1661 C1656 1.425 . S
C1661 C1658 1.409 . S
C1661 C1659 1.415 . S
C1662 H1652 0.930 . S
C1662 C1660 1.419 . S
C1662 C1663 1.362 . S
C1663 H1653 0.930 . S
C1663 C1656 1.409 . S
C1663 C1662 1.362 . S
H1664 C1670 0.930 . S
H1665 C1673 0.930 . S
H1666 C1674 0.930 . S
H1667 C1675 0.930 . S
H1668 C1678 0.930 . S
H1669 C1679 0.930 . S
C1670 H1664 0.930 . S
C1670 C1671 1.355 . S
C1670 C1672 1.415 . S
C1671 C1670 1.355 . S
C1671 C1673 1.419 . S
C1672 C1670 1.415 . S
C1672 C1677 1.425 . S
C1672 C1679 1.409 . S
C1673 H1665 0.930 . S
C1673 C1671 1.419 . S
C1673 C1674 1.362 . S
C1674 H1666 0.930 . S
C1674 C1673 1.362 . S
C1674 C1677 1.409 . S
C1675 H1667 0.930 . S
C1675 C1676 1.355 . S
C1675 C1677 1.415 . S
C1676 C1675 1.355 . S
C1676 C1678 1.419 . S
C1677 C1672 1.425 . S
C1677 C1674 1.409 . S
C1677 C1675 1.415 . S
C1678 H1668 0.930 . S
C1678 C1676 1.419 . S
C1678 C1679 1.362 . S
C1679 H1669 0.930 . S
C1679 C1672 1.409 . S
C1679 C1678 1.362 . S
H1680 C1686 0.930 . S
H1681 C1689 0.930 . S
H1682 C1690 0.930 . S
H1683 C1691 0.930 . S
H1684 C1694 0.930 . S
H1685 C1695 0.930 . S
C1686 H1680 0.930 . S
C1686 C1687 1.355 . S
C1686 C1688 1.415 . S
C1687 C1686 1.355 . S
C1687 C1689 1.419 . S
C1688 C1686 1.415 . S
C1688 C1693 1.425 . S
C1688 C1695 1.409 . S
C1689 H1681 0.930 . S
C1689 C1687 1.419 . S
C1689 C1690 1.362 . S
C1690 H1682 0.930 . S
C1690 C1689 1.362 . S
C1690 C1693 1.409 . S
C1691 H1683 0.930 . S
C1691 C1692 1.355 . S
C1691 C1693 1.415 . S
C1692 C1691 1.355 . S
C1692 C1694 1.419 . S
C1693 C1688 1.425 . S
C1693 C1690 1.409 . S
C1693 C1691 1.415 . S
C1694 H1684 0.930 . S
C1694 C1692 1.419 . S
C1694 C1695 1.362 . S
C1695 H1685 0.930 . S
C1695 C1688 1.409 . S
C1695 C1694 1.362 . S
H1696 C1702 0.930 . S
H1697 C1705 0.930 . S
H1698 C1706 0.930 . S
H1699 C1707 0.930 . S
H1700 C1710 0.930 . S
H1701 C1711 0.930 . S
C1702 H1696 0.930 . S
C1702 C1703 1.355 . S
C1702 C1704 1.415 . S
C1703 C1702 1.355 . S
C1703 C1705 1.419 . S
C1704 C1702 1.415 . S
C1704 C1709 1.425 . S
C1704 C1711 1.409 . S
C1705 H1697 0.930 . S
C1705 C1703 1.419 . S
C1705 C1706 1.362 . S
C1706 H1698 0.930 . S
C1706 C1705 1.362 . S
C1706 C1709 1.409 . S
C1707 H1699 0.930 . S
C1707 C1708 1.355 . S
C1707 C1709 1.415 . S
C1708 C1707 1.355 . S
C1708 C1710 1.419 . S
C1709 C1704 1.425 . S
C1709 C1706 1.409 . S
C1709 C1707 1.415 . S
C1710 H1700 0.930 . S
C1710 C1708 1.419 . S
C1710 C1711 1.362 . S
C1711 H1701 0.930 . S
C1711 C1704 1.409 . S
C1711 C1710 1.362 . S
H1712 C1718 0.930 . S
H1713 C1721 0.930 . S
H1714 C1722 0.930 . S
H1715 C1723 0.930 . S
H1716 C1726 0.930 . S
H1717 C1727 0.930 . S
C1718 H1712 0.930 . S
C1718 C1719 1.355 . S
C1718 C1720 1.415 . S
C1719 C1718 1.355 . S
C1719 C1721 1.419 . S
C1720 C1718 1.415 . S
C1720 C1725 1.425 . S
C1720 C1727 1.409 . S
C1721 H1713 0.930 . S
C1721 C1719 1.419 . S
C1721 C1722 1.362 . S
C1722 H1714 0.930 . S
C1722 C1721 1.362 . S
C1722 C1725 1.409 . S
C1723 H1715 0.930 . S
C1723 C1724 1.355 . S
C1723 C1725 1.415 . S
C1724 C1723 1.355 . S
C1724 C1726 1.419 . S
C1725 C1720 1.425 . S
C1725 C1722 1.409 . S
C1725 C1723 1.415 . S
C1726 H1716 0.930 . S
C1726 C1724 1.419 . S
C1726 C1727 1.362 . S
C1727 H1717 0.930 . S
C1727 C1720 1.409 . S
C1727 C1726 1.362 . S
H1728 C1734 0.930 . S
H1729 C1737 0.930 . S
H1730 C1738 0.930 . S
H1731 C1739 0.930 . S
H1732 C1742 0.930 . S
H1733 C1743 0.930 . S
C1734 H1728 0.930 . S
C1734 C1735 1.355 . S
C1734 C1736 1.415 . S
C1735 C1734 1.355 . S
C1735 C1737 1.419 . S
C1736 C1734 1.415 . S
C1736 C1741 1.425 . S
C1736 C1743 1.409 . S
C1737 H1729 0.930 . S
C1737 C1735 1.419 . S
C1737 C1738 1.362 . S
C1738 H1730 0.930 . S
C1738 C1737 1.362 . S
C1738 C1741 1.409 . S
C1739 H1731 0.930 . S
C1739 C1740 1.355 . S
C1739 C1741 1.415 . S
C1740 C1739 1.355 . S
C1740 C1742 1.419 . S
C1741 C1736 1.425 . S
C1741 C1738 1.409 . S
C1741 C1739 1.415 . S
C1742 H1732 0.930 . S
C1742 C1740 1.419 . S
C1742 C1743 1.362 . S
C1743 H1733 0.930 . S
C1743 C1736 1.409 . S
C1743 C1742 1.362 . S
H1744 C1750 0.930 . S
H1745 C1753 0.930 . S
H1746 C1754 0.930 . S
H1747 C1755 0.930 . S
H1748 C1758 0.930 . S
H1749 C1759 0.930 . S
C1750 H1744 0.930 . S
C1750 C1751 1.355 . S
C1750 C1752 1.415 . S
C1751 C1750 1.355 . S
C1751 C1753 1.419 . S
C1752 C1750 1.415 . S
C1752 C1757 1.425 . S
C1752 C1759 1.409 . S
C1753 H1745 0.930 . S
C1753 C1751 1.419 . S
C1753 C1754 1.362 . S
C1754 H1746 0.930 . S
C1754 C1753 1.362 . S
C1754 C1757 1.409 . S
C1755 H1747 0.930 . S
C1755 C1756 1.355 . S
C1755 C1757 1.415 . S
C1756 C1755 1.355 . S
C1756 C1758 1.419 . S
C1757 C1752 1.425 . S
C1757 C1754 1.409 . S
C1757 C1755 1.415 . S
C1758 H1748 0.930 . S
C1758 C1756 1.419 . S
C1758 C1759 1.362 . S
C1759 H1749 0.930 . S
C1759 C1752 1.409 . S
C1759 C1758 1.362 . S
H1760 C1766 0.930 . S
H1761 C1769 0.930 . S
H1762 C1770 0.930 . S
H1763 C1771 0.930 . S
H1764 C1774 0.930 . S
H1765 C1775 0.930 . S
C1766 H1760 0.930 . S
C1766 C1767 1.355 . S
C1766 C1768 1.415 . S
C1767 C1766 1.355 . S
C1767 C1769 1.419 . S
C1768 C1766 1.415 . S
C1768 C1773 1.425 . S
C1768 C1775 1.409 . S
C1769 H1761 0.930 . S
C1769 C1767 1.419 . S
C1769 C1770 1.362 . S
C1770 H1762 0.930 . S
C1770 C1769 1.362 . S
C1770 C1773 1.409 . S
C1771 H1763 0.930 . S
C1771 C1772 1.355 . S
C1771 C1773 1.415 . S
C1772 C1771 1.355 . S
C1772 C1774 1.419 . S
C1773 C1768 1.425 . S
C1773 C1770 1.409 . S
C1773 C1771 1.415 . S
C1774 H1764 0.930 . S
C1774 C1772 1.419 . S
C1774 C1775 1.362 . S
C1775 H1765 0.930 . S
C1775 C1768 1.409 . S
C1775 C1774 1.362 . S
H1776 C1782 0.930 . S
H1777 C1785 0.930 . S
H1778 C1786 0.930 . S
H1779 C1787 0.930 . S
H1780 C1790 0.930 . S
H1781 C1791 0.930 . S
C1782 H1776 0.930 . S
C1782 C1783 1.355 . S
C1782 C1784 1.415 . S
C1783 C1782 1.355 . S
C1783 C1785 1.419 . S
C1784 C1782 1.415 . S
C1784 C1789 1.425 . S
C1784 C1791 1.409 . S
C1785 H1777 0.930 . S
C1785 C1783 1.419 . S
C1785 C1786 1.362 . S
C1786 H1778 0.930 . S
C1786 C1785 1.362 . S
C1786 C1789 1.409 . S
C1787 H1779 0.930 . S
C1787 C1788 1.355 . S
C1787 C1789 1.415 . S
C1788 C1787 1.355 . S
C1788 C1790 1.419 . S
C1789 C1784 1.425 . S
C1789 C1786 1.409 . S
C1789 C1787 1.415 . S
C1790 H1780 0.930 . S
C1790 C1788 1.419 . S
C1790 C1791 1.362 . S
C1791 H1781 0.930 . S
C1791 C1784 1.409 . S
C1791 C1790 1.362 . S
H1792 C1798 0.930 . S
H1793 C1801 0.930 . S
H1794 C1802 0.930 . S
H1795 C1803 0.930 . S
H1796 C1806 0.930 . S
H1797 C1807 0.930 . S
C1798 H1792 0.930 . S
C1798 C1799 1.355 . S
C1798 C1800 1.415 . S
C1799 C1798 1.355 . S
C1799 C1801 1.419 . S
C1800 C1798 1.415 . S
C1800 C1805 1.425 . S
C1800 C1807 1.409 . S
C1801 H1793 0.930 . S
C1801 C1799 1.419 . S
C1801 C1802 1.362 . S
C1802 H1794 0.930 . S
C1802 C1801 1.362 . S
C1802 C1805 1.409 . S
C1803 H1795 0.930 . S
C1803 C1804 1.355 . S
C1803 C1805 1.415 . S
C1804 C1803 1.355 . S
C1804 C1806 1.419 . S
C1805 C1800 1.425 . S
C1805 C1802 1.409 . S
C1805 C1803 1.415 . S
C1806 H1796 0.930 . S
C1806 C1804 1.419 . S
C1806 C1807 1.362 . S
C1807 H1797 0.930 . S
C1807 C1800 1.409 . S
C1807 C1806 1.362 . S
H1808 C1814 0.930 . S
H1809 C1817 0.930 . S
H1810 C1818 0.930 . S
H1811 C1819 0.930 . S
H1812 C1822 0.930 . S
H1813 C1823 0.930 . S
C1814 H1808 0.930 . S
C1814 C1815 1.355 . S
C1814 C1816 1.415 . S
C1815 C1814 1.355 . S
C1815 C1817 1.419 . S
C1816 C1814 1.415 . S
C1816 C1821 1.425 . S
C1816 C1823 1.409 . S
C1817 H1809 0.930 . S
C1817 C1815 1.419 . S
C1817 C1818 1.362 . S
C1818 H1810 0.930 . S
C1818 C1817 1.362 . S
C1818 C1821 1.409 . S
C1819 H1811 0.930 . S
C1819 C1820 1.355 . S
C1819 C1821 1.415 . S
C1820 C1819 1.355 . S
C1820 C1822 1.419 . S
C1821 C1816 1.425 . S
C1821 C1818 1.409 . S
C1821 C1819 1.415 . S
C1822 H1812 0.930 . S
C1822 C1820 1.419 . S
C1822 C1823 1.362 . S
C1823 H1813 0.930 . S
C1823 C1816 1.409 . S
C1823 C1822 1.362 . S
H1824 C1830 0.930 . S
H1825 C1833 0.930 . S
H1826 C1834 0.930 . S
H1827 C1835 0.930 . S
H1828 C1838 0.930 . S
H1829 C1839 0.930 . S
C1830 H1824 0.930 . S
C1830 C1831 1.355 . S
C1830 C1832 1.415 . S
C1831 C1830 1.355 . S
C1831 C1833 1.419 . S
C1832 C1830 1.415 . S
C1832 C1837 1.425 . S
C1832 C1839 1.409 . S
C1833 H1825 0.930 . S
C1833 C1831 1.419 . S
C1833 C1834 1.362 . S
C1834 H1826 0.930 . S
C1834 C1833 1.362 . S
C1834 C1837 1.409 . S
C1835 H1827 0.930 . S
C1835 C1836 1.355 . S
C1835 C1837 1.415 . S
C1836 C1835 1.355 . S
C1836 C1838 1.419 . S
C1837 C1832 1.425 . S
C1837 C1834 1.409 . S
C1837 C1835 1.415 . S
C1838 H1828 0.930 . S
C1838 C1836 1.419 . S
C1838 C1839 1.362 . S
C1839 H1829 0.930 . S
C1839 C1832 1.409 . S
C1839 C1838 1.362 . S
H1840 C1846 0.930 . S
H1841 C1849 0.930 . S
H1842 C1850 0.930 . S
H1843 C1851 0.930 . S
H1844 C1854 0.930 . S
H1845 C1855 0.930 . S
C1846 H1840 0.930 . S
C1846 C1847 1.355 . S
C1846 C1848 1.415 . S
C1847 C1846 1.355 . S
C1847 C1849 1.419 . S
C1848 C1846 1.415 . S
C1848 C1853 1.425 . S
C1848 C1855 1.409 . S
C1849 H1841 0.930 . S
C1849 C1847 1.419 . S
C1849 C1850 1.362 . S
C1850 H1842 0.930 . S
C1850 C1849 1.362 . S
C1850 C1853 1.409 . S
C1851 H1843 0.930 . S
C1851 C1852 1.355 . S
C1851 C1853 1.415 . S
C1852 C1851 1.355 . S
C1852 C1854 1.419 . S
C1853 C1848 1.425 . S
C1853 C1850 1.409 . S
C1853 C1851 1.415 . S
C1854 H1844 0.930 . S
C1854 C1852 1.419 . S
C1854 C1855 1.362 . S
C1855 H1845 0.930 . S
C1855 C1848 1.409 . S
C1855 C1854 1.362 . S
H1856 C1862 0.930 . S
H1857 C1865 0.930 . S
H1858 C1866 0.930 . S
H1859 C1867 0.930 . S
H1860 C1870 0.930 . S
H1861 C1871 0.930 . S
C1862 H1856 0.930 . S
C1862 C1863 1.355 . S
C1862 C1864 1.415 . S
C1863 C1862 1.355 . S
C1863 C1865 1.419 . S
C1864 C1862 1.415 . S
C1864 C1869 1.425 . S
C1864 C1871 1.409 . S
C1865 H1857 0.930 . S
C1865 C1863 1.419 . S
C1865 C1866 1.362 . S
C1866 H1858 0.930 . S
C1866 C1865 1.362 . S
C1866 C1869 1.409 . S
C1867 H1859 0.930 . S
C1867 C1868 1.355 . S
C1867 C1869 1.415 . S
C1868 C1867 1.355 . S
C1868 C1870 1.419 . S
C1869 C1864 1.425 . S
C1869 C1866 1.409 . S
C1869 C1867 1.415 . S
C1870 H1860 0.930 . S
C1870 C1868 1.419 . S
C1870 C1871 1.362 . S
C1871 H1861 0.930 . S
C1871 C1864 1.409 . S
C1871 C1870 1.362 . S
H1872 C1878 0.930 . S
H1873 C1881 0.930 . S
H1874 C1882 0.930 . S
H1875 C1883 0.930 . S
H1876 C1886 0.930 . S
H1877 C1887 0.930 . S
C1878 H1872 0.930 . S
C1878 C1879 1.355 . S
C1878 C1880 1.415 . S
C1879 C1878 1.355 . S
C1879 C1881 1.419 . S
C1880 C1878 1.415 . S
C1880 C1885 1.425 . S
C1880 C1887 1.409 . S
C1881 H1873 0.930 . S
C1881 C1879 1.419 . S
C1881 C1882 1.362 . S
C1882 H1874 0.930 . S
C1882 C1881 1.362 . S
C1882 C1885 1.409 . S
C1883 H1875 0.930 . S
C1883 C1884 1.355 . S
C1883 C1885 1.415 . S
C1884 C1883 1.355 . S
C1884 C1886 1.419 . S
C1885 C1880 1.425 . S
C1885 C1882 1.409 . S
C1885 C1883 1.415 . S
C1886 H1876 0.930 . S
C1886 C1884 1.419 . S
C1886 C1887 1.362 . S
C1887 H1877 0.930 . S
C1887 C1880 1.409 . S
C1887 C1886 1.362 . S
H1888 C1894 0.930 . S
H1889 C1897 0.930 . S
H1890 C1898 0.930 . S
H1891 C1899 0.930 . S
H1892 C1902 0.930 . S
H1893 C1903 0.930 . S
C1894 H1888 0.930 . S
C1894 C1895 1.355 . S
C1894 C1896 1.415 . S
C1895 C1894 1.355 . S
C1895 C1897 1.419 . S
C1896 C1894 1.415 . S
C1896 C1901 1.425 . S
C1896 C1903 1.409 . S
C1897 H1889 0.930 . S
C1897 C1895 1.419 . S
C1897 C1898 1.362 . S
C1898 H1890 0.930 . S
C1898 C1897 1.362 . S
C1898 C1901 1.409 . S
C1899 H1891 0.930 . S
C1899 C1900 1.355 . S
C1899 C1901 1.415 . S
C1900 C1899 1.355 . S
C1900 C1902 1.419 . S
C1901 C1896 1.425 . S
C1901 C1898 1.409 . S
C1901 C1899 1.415 . S
C1902 H1892 0.930 . S
C1902 C1900 1.419 . S
C1902 C1903 1.362 . S
C1903 H1893 0.930 . S
C1903 C1896 1.409 . S
C1903 C1902 1.362 . S
H1904 C1910 0.930 . S
H1905 C1913 0.930 . S
H1906 C1914 0.930 . S
H1907 C1915 0.930 . S
H1908 C1918 0.930 . S
H1909 C1919 0.930 . S
C1910 H1904 0.930 . S
C1910 C1911 1.355 . S
C1910 C1912 1.415 . S
C1911 C1910 1.355 . S
C1911 C1913 1.419 . S
C1912 C1910 1.415 . S
C1912 C1917 1.425 . S
C1912 C1919 1.409 . S
C1913 H1905 0.930 . S
C1913 C1911 1.419 . S
C1913 C1914 1.362 . S
C1914 H1906 0.930 . S
C1914 C1913 1.362 . S
C1914 C1917 1.409 . S
C1915 H1907 0.930 . S
C1915 C1916 1.355 . S
C1915 C1917 1.415 . S
C1916 C1915 1.355 . S
C1916 C1918 1.419 . S
C1917 C1912 1.425 . S
C1917 C1914 1.409 . S
C1917 C1915 1.415 . S
C1918 H1908 0.930 . S
C1918 C1916 1.419 . S
C1918 C1919 1.362 . S
C1919 H1909 0.930 . S
C1919 C1912 1.409 . S
C1919 C1918 1.362 . S
H1920 C1926 0.930 . S
H1921 C1929 0.930 . S
H1922 C1930 0.930 . S
H1923 C1931 0.930 . S
H1924 C1934 0.930 . S
H1925 C1935 0.930 . S
C1926 H1920 0.930 . S
C1926 C1927 1.355 . S
C1926 C1928 1.415 . S
C1927 C1926 1.355 . S
C1927 C1929 1.419 . S
C1928 C1926 1.415 . S
C1928 C1933 1.425 . S
C1928 C1935 1.409 . S
C1929 H1921 0.930 . S
C1929 C1927 1.419 . S
C1929 C1930 1.362 . S
C1930 H1922 0.930 . S
C1930 C1929 1.362 . S
C1930 C1933 1.409 . S
C1931 H1923 0.930 . S
C1931 C1932 1.355 . S
C1931 C1933 1.415 . S
C1932 C1931 1.355 . S
C1932 C1934 1.419 . S
C1933 C1928 1.425 . S
C1933 C1930 1.409 . S
C1933 C1931 1.415 . S
C1934 H1924 0.930 . S
C1934 C1932 1.419 . S
C1934 C1935 1.362 . S
C1935 H1925 0.930 . S
C1935 C1928 1.409 . S
C1935 C1934 1.362 . S
H1936 C1942 0.930 . S
H1937 C1945 0.930 . S
H1938 C1946 0.930 . S
H1939 C1947 0.930 . S
H1940 C1950 0.930 . S
H1941 C1951 0.930 . S
C1942 H1936 0.930 . S
C1942 C1943 1.355 . S
C1942 C1944 1.415 . S
C1943 C1942 1.355 . S
C1943 C1945 1.419 . S
C1944 C1942 1.415 . S
C1944 C1949 1.425 . S
C1944 C1951 1.409 . S
C1945 H1937 0.930 . S
C1945 C1943 1.419 . S
C1945 C1946 1.362 . S
C1946 H1938 0.930 . S
C1946 C1945 1.362 . S
C1946 C1949 1.409 . S
C1947 H1939 0.930 . S
C1947 C1948 1.355 . S
C1947 C1949 1.415 . S
C1948 C1947 1.355 . S
C1948 C1950 1.419 . S
C1949 C1944 1.425 . S
C1949 C1946 1.409 . S
C1949 C1947 1.415 . S
C1950 H1940 0.930 . S
C1950 C1948 1.419 . S
C1950 C1951 1.362 . S
C1951 H1941 0.930 . S
C1951 C1944 1.409 . S
C1951 C1950 1.362 . S
H1952 C1958 0.930 . S
H1953 C1961 0.930 . S
H1954 C1962 0.930 . S
H1955 C1963 0.930 . S
H1956 C1966 0.930 . S
H1957 C1967 0.930 . S
C1958 H1952 0.930 . S
C1958 C1959 1.355 . S
C1958 C1960 1.415 . S
C1959 C1958 1.355 . S
C1959 C1961 1.419 . S
C1960 C1958 1.415 . S
C1960 C1965 1.425 . S
C1960 C1967 1.409 . S
C1961 H1953 0.930 . S
C1961 C1959 1.419 . S
C1961 C1962 1.362 . S
C1962 H1954 0.930 . S
C1962 C1961 1.362 . S
C1962 C1965 1.409 . S
C1963 H1955 0.930 . S
C1963 C1964 1.355 . S
C1963 C1965 1.415 . S
C1964 C1963 1.355 . S
C1964 C1966 1.419 . S
C1965 C1960 1.425 . S
C1965 C1962 1.409 . S
C1965 C1963 1.415 . S
C1966 H1956 0.930 . S
C1966 C1964 1.419 . S
C1966 C1967 1.362 . S
C1967 H1957 0.930 . S
C1967 C1960 1.409 . S
C1967 C1966 1.362 . S
H1968 C1974 0.930 . S
H1969 C1977 0.930 . S
H1970 C1978 0.930 . S
H1971 C1979 0.930 . S
H1972 C1982 0.930 . S
H1973 C1983 0.930 . S
C1974 H1968 0.930 . S
C1974 C1975 1.355 . S
C1974 C1976 1.415 . S
C1975 C1974 1.355 . S
C1975 C1977 1.419 . S
C1976 C1974 1.415 . S
C1976 C1981 1.425 . S
C1976 C1983 1.409 . S
C1977 H1969 0.930 . S
C1977 C1975 1.419 . S
C1977 C1978 1.362 . S
C1978 H1970 0.930 . S
C1978 C1977 1.362 . S
C1978 C1981 1.409 . S
C1979 H1971 0.930 . S
C1979 C1980 1.355 . S
C1979 C1981 1.415 . S
C1980 C1979 1.355 . S
C1980 C1982 1.419 . S
C1981 C1976 1.425 . S
C1981 C1978 1.409 . S
C1981 C1979 1.415 . S
C1982 H1972 0.930 . S
C1982 C1980 1.419 . S
C1982 C1983 1.362 . S
C1983 H1973 0.930 . S
C1983 C1976 1.409 . S
C1983 C1982 1.362 . S
H1984 C1990 0.930 . S
H1985 C1993 0.930 . S
H1986 C1994 0.930 . S
H1987 C1995 0.930 . S
H1988 C1998 0.930 . S
H1989 C1999 0.930 . S
C1990 H1984 0.930 . S
C1990 C1991 1.355 . S
C1990 C1992 1.415 . S
C1991 C1990 1.355 . S
C1991 C1993 1.419 . S
C1992 C1990 1.415 . S
C1992 C1997 1.425 . S
C1992 C1999 1.409 . S
C1993 H1985 0.930 . S
C1993 C1991 1.419 . S
C1993 C1994 1.362 . S
C1994 H1986 0.930 . S
C1994 C1993 1.362 . S
C1994 C1997 1.409 . S
C1995 H1987 0.930 . S
C1995 C1996 1.355 . S
C1995 C1997 1.415 . S
C1996 C1995 1.355 . S
C1996 C1998 1.419 . S
C1997 C1992 1.425 . S
C1997 C1994 1.409 . S
C1997 C1995 1.415 . S
C1998 H1988 0.930 . S
C1998 C1996 1.419 . S
C1998 C1999 1.362 . S
C1999 H1989 0.930 . S
C1999 C1992 1.409 . S
C1999 C1998 1.362 . S
H2000 C2006 0.930 . S
H2001 C2009 0.930 . S
H2002 C2010 0.930 . S
H2003 C2011 0.930 . S
H2004 C2014 0.930 . S
H2005 C2015 0.930 . S
C2006 H2000 0.930 . S
C2006 C2007 1.355 . S
C2006 C2008 1.415 . S
C2007 C2006 1.355 . S
C2007 C2009 1.419 . S
C2008 C2006 1.415 . S
C2008 C2013 1.425 . S
C2008 C2015 1.409 . S
C2009 H2001 0.930 . S
C2009 C2007 1.419 . S
C2009 C2010 1.362 . S
C2010 H2002 0.930 . S
C2010 C2009 1.362 . S
C2010 C2013 1.409 . S
C2011 H2003 0.930 . S
C2011 C2012 1.355 . S
C2011 C2013 1.415 . S
C2012 C2011 1.355 . S
C2012 C2014 1.419 . S
C2013 C2008 1.425 . S
C2013 C2010 1.409 . S
C2013 C2011 1.415 . S
C2014 H2004 0.930 . S
C2014 C2012 1.419 . S
C2014 C2015 1.362 . S
C2015 H2005 0.930 . S
C2015 C2008 1.409 . S
C2015 C2014 1.362 . S
H2016 C2022 0.930 . S
H2017 C2025 0.930 . S
H2018 C2026 0.930 . S
H2019 C2027 0.930 . S
H2020 C2030 0.930 . S
H2021 C2031 0.930 . S
C2022 H2016 0.930 . S
C2022 C2023 1.355 . S
C2022 C2024 1.415 . S
C2023 C2022 1.355 . S
C2023 C2025 1.419 . S
C2024 C2022 1.415 . S
C2024 C2029 1.425 . S
C2024 C2031 1.409 . S
C2025 H2017 0.930 . S
C2025 C2023 1.419 . S
C2025 C2026 1.362 . S
C2026 H2018 0.930 . S
C2026 C2025 1.362 . S
C2026 C2029 1.409 . S
C2027 H2019 0.930 . S
C2027 C2028 1.355 . S
C2027 C2029 1.415 . S
C2028 C2027 1.355 . S
C2028 C2030 1.419 . S
C2029 C2024 1.425 . S
C2029 C2026 1.409 . S
C2029 C2027 1.415 . S
C2030 H2020 0.930 . S
C2030 C2028 1.419 . S
C2030 C2031 1.362 . S
C2031 H2021 0.930 . S
C2031 C2024 1.409 . S
C2031 C2030 1.362 . S
H2032 C2038 0.930 . S
H2033 C2041 0.930 . S
H2034 C2042 0.930 . S
H2035 C2043 0.930 . S
H2036 C2046 0.930 . S
H2037 C2047 0.930 . S
C2038 H2032 0.930 . S
C2038 C2039 1.355 . S
C2038 C2040 1.415 . S
C2039 C2038 1.355 . S
C2039 C2041 1.419 . S
C2040 C2038 1.415 . S
C2040 C2045 1.425 . S
C2040 C2047 1.409 . S
C2041 H2033 0.930 . S
C2041 C2039 1.419 . S
C2041 C2042 1.362 . S
C2042 H2034 0.930 . S
C2042 C2041 1.362 . S
C2042 C2045 1.409 . S
C2043 H2035 0.930 . S
C2043 C2044 1.355 . S
C2043 C2045 1.415 . S
C2044 C2043 1.355 . S
C2044 C2046 1.419 . S
C2045 C2040 1.425 . S
C2045 C2042 1.409 . S
C2045 C2043 1.415 . S
C2046 H2036 0.930 . S
C2046 C2044 1.419 . S
C2046 C2047 1.362 . S
C2047 H2037 0.930 . S
C2047 C2040 1.409 . S
C2047 C2046 1.362 . S
H2048 C2054 0.930 . S
H2049 C2057 0.930 . S
H2050 C2058 0.930 . S
H2051 C2059 0.930 . S
H2052 C2062 0.930 . S
H2053 C2063 0.930 . S
C2054 H2048 0.930 . S
C2054 C2055 1.355 . S
C2054 C2056 1.415 . S
C2055 C2054 1.355 . S
C2055 C2057 1.419 . S
C2056 C2054 1.415 . S
C2056 C2061 1.425 . S
C2056 C2063 1.409 . S
C2057 H2049 0.930 . S
C2057 C2055 1.419 . S
C2057 C2058 1.362 . S
C2058 H2050 0.930 . S
C2058 C2057 1.362 . S
C2058 C2061 1.409 . S
C2059 H2051 0.930 . S
C2059 C2060 1.355 . S
C2059 C2061 1.415 . S
C2060 C2059 1.355 . S
C2060 C2062 1.419 . S
C2061 C2056 1.425 . S
C2061 C2058 1.409 . S
C2061 C2059 1.415 . S
C2062 H2052 0.930 . S
C2062 C2060 1.419 . S
C2062 C2063 1.362 . S
C2063 H2053 0.930 . S
C2063 C2056 1.409 . S
C2063 C2062 1.362 . S
H2064 C2070 0.930 . S
H2065 C2073 0.930 . S
H2066 C2074 0.930 . S
H2067 C2075 0.930 . S
H2068 C2078 0.930 . S
H2069 C2079 0.930 . S
C2070 H2064 0.930 . S
C2070 C2071 1.355 . S
C2070 C2072 1.415 . S
C2071 C2070 1.355 . S
C2071 C2073 1.419 . S
C2072 C2070 1.415 . S
C2072 C2077 1.425 . S
C2072 C2079 1.409 . S
C2073 H2065 0.930 . S
C2073 C2071 1.419 . S
C2073 C2074 1.362 . S
C2074 H2066 0.930 . S
C2074 C2073 1.362 . S
C2074 C2077 1.409 . S
C2075 H2067 0.930 . S
C2075 C2076 1.355 . S
C2075 C2077 1.415 . S
C2076 C2075 1.355 . S
C2076 C2078 1.419 . S
C2077 C2072 1.425 . S
C2077 C2074 1.409 . S
C2077 C2075 1.415 . S
C2078 H2068 0.930 . S
C2078 C2076 1.419 . S
C2078 C2079 1.362 . S
C2079 H2069 0.930 . S
C2079 C2072 1.409 . S
C2079 C2078 1.362 . S
H2080 C2086 0.930 . S
H2081 C2089 0.930 . S
H2082 C2090 0.930 . S
H2083 C2091 0.930 . S
H2084 C2094 0.930 . S
H2085 C2095 0.930 . S
C2086 H2080 0.930 . S
C2086 C2087 1.355 . S
C2086 C2088 1.415 . S
C2087 C2086 1.355 . S
C2087 C2089 1.419 . S
C2088 C2086 1.415 . S
C2088 C2093 1.425 . S
C2088 C2095 1.409 . S
C2089 H2081 0.930 . S
C2089 C2087 1.419 . S
C2089 C2090 1.362 . S
C2090 H2082 0.930 . S
C2090 C2089 1.362 . S
C2090 C2093 1.409 . S
C2091 H2083 0.930 . S
C2091 C2092 1.355 . S
C2091 C2093 1.415 . S
C2092 C2091 1.355 . S
C2092 C2094 1.419 . S
C2093 C2088 1.425 . S
C2093 C2090 1.409 . S
C2093 C2091 1.415 . S
C2094 H2084 0.930 . S
C2094 C2092 1.419 . S
C2094 C2095 1.362 . S
C2095 H2085 0.930 . S
C2095 C2088 1.409 . S
C2095 C2094 1.362 . S
H2096 C2102 0.930 . S
H2097 C2105 0.930 . S
H2098 C2106 0.930 . S
H2099 C2107 0.930 . S
H2100 C2110 0.930 . S
H2101 C2111 0.930 . S
C2102 H2096 0.930 . S
C2102 C2103 1.355 . S
C2102 C2104 1.415 . S
C2103 C2102 1.355 . S
C2103 C2105 1.419 . S
C2104 C2102 1.415 . S
C2104 C2109 1.425 . S
C2104 C2111 1.409 . S
C2105 H2097 0.930 . S
C2105 C2103 1.419 . S
C2105 C2106 1.362 . S
C2106 H2098 0.930 . S
C2106 C2105 1.362 . S
C2106 C2109 1.409 . S
C2107 H2099 0.930 . S
C2107 C2108 1.355 . S
C2107 C2109 1.415 . S
C2108 C2107 1.355 . S
C2108 C2110 1.419 . S
C2109 C2104 1.425 . S
C2109 C2106 1.409 . S
C2109 C2107 1.415 . S
C2110 H2100 0.930 . S
C2110 C2108 1.419 . S
C2110 C2111 1.362 . S
C2111 H2101 0.930 . S
C2111 C2104 1.409 . S
C2111 C2110 1.362 . S
H2112 C2118 0.930 . S
H2113 C2121 0.930 . S
H2114 C2122 0.930 . S
H2115 C2123 0.930 . S
H2116 C2126 0.930 . S
H2117 C2127 0.930 . S
C2118 H2112 0.930 . S
C2118 C2119 1.355 . S
C2118 C2120 1.415 . S
C2119 C2118 1.355 . S
C2119 C2121 1.419 . S
C2120 C2118 1.415 . S
C2120 C2125 1.425 . S
C2120 C2127 1.409 . S
C2121 H2113 0.930 . S
C2121 C2119 1.419 . S
C2121 C2122 1.362 . S
C2122 H2114 0.930 . S
C2122 C2121 1.362 . S
C2122 C2125 1.409 . S
C2123 H2115 0.930 . S
C2123 C2124 1.355 . S
C2123 C2125 1.415 . S
C2124 C2123 1.355 . S
C2124 C2126 1.419 . S
C2125 C2120 1.425 . S
C2125 C2122 1.409 . S
C2125 C2123 1.415 . S
C2126 H2116 0.930 . S
C2126 C2124 1.419 . S
C2126 C2127 1.362 . S
C2127 H2117 0.930 . S
C2127 C2120 1.409 . S
C2127 C2126 1.362 . S
H2128 C2134 0.930 . S
H2129 C2137 0.930 . S
H2130 C2138 0.930 . S
H2131 C2139 0.930 . S
H2132 C2142 0.930 . S
H2133 C2143 0.930 . S
C2134 H2128 0.930 . S
C2134 C2135 1.355 . S
C2134 C2136 1.415 . S
C2135 C2134 1.355 . S
C2135 C2137 1.419 . S
C2136 C2134 1.415 . S
C2136 C2141 1.425 . S
C2136 C2143 1.409 . S
C2137 H2129 0.930 . S
C2137 C2135 1.419 . S
C2137 C2138 1.362 . S
C2138 H2130 0.930 . S
C2138 C2137 1.362 . S
C2138 C2141 1.409 . S
C2139 H2131 0.930 . S
C2139 C2140 1.355 . S
C2139 C2141 1.415 . S
C2140 C2139 1.355 . S
C2140 C2142 1.419 . S
C2141 C2136 1.425 . S
C2141 C2138 1.409 . S
C2141 C2139 1.415 . S
C2142 H2132 0.930 . S
C2142 C2140 1.419 . S
C2142 C2143 1.362 . S
C2143 H2133 0.930 . S
C2143 C2136 1.409 . S
C2143 C2142 1.362 . S
H2144 C2150 0.930 . S
H2145 C2153 0.930 . S
H2146 C2154 0.930 . S
H2147 C2155 0.930 . S
H2148 C2158 0.930 . S
H2149 C2159 0.930 . S
C2150 H2144 0.930 . S
C2150 C2151 1.355 . S
C2150 C2152 1.415 . S
C2151 C2150 1.355 . S
C2151 C2153 1.419 . S
C2152 C2150 1.415 . S
C2152 C2157 1.425 . S
C2152 C2159 1.409 . S
C2153 H2145 0.930 . S
C2153 C2151 1.419 . S
C2153 C2154 1.362 . S
C2154 H2146 0.930 . S
C2154 C2153 1.362 . S
C2154 C2157 1.409 . S
C2155 H2147 0.930 . S
C2155 C2156 1.355 . S
C2155 C2157 1.415 . S
C2156 C2155 1.355 . S
C2156 C2158 1.419 . S
C2157 C2152 1.425 . S
C2157 C2154 1.409 . S
C2157 C2155 1.415 . S
C2158 H2148 0.930 . S
C2158 C2156 1.419 . S
C2158 C2159 1.362 . S
C2159 H2149 0.930 . S
C2159 C2152 1.409 . S
C2159 C2158 1.362 . S
H2160 C2166 0.930 . S
H2161 C2169 0.930 . S
H2162 C2170 0.930 . S
H2163 C2171 0.930 . S
H2164 C2174 0.930 . S
H2165 C2175 0.930 . S
C2166 H2160 0.930 . S
C2166 C2167 1.355 . S
C2166 C2168 1.415 . S
C2167 C2166 1.355 . S
C2167 C2169 1.419 . S
C2168 C2166 1.415 . S
C2168 C2173 1.425 . S
C2168 C2175 1.409 . S
C2169 H2161 0.930 . S
C2169 C2167 1.419 . S
C2169 C2170 1.362 . S
C2170 H2162 0.930 . S
C2170 C2169 1.362 . S
C2170 C2173 1.409 . S
C2171 H2163 0.930 . S
C2171 C2172 1.355 . S
C2171 C2173 1.415 . S
C2172 C2171 1.355 . S
C2172 C2174 1.419 . S
C2173 C2168 1.425 . S
C2173 C2170 1.409 . S
C2173 C2171 1.415 . S
C2174 H2164 0.930 . S
C2174 C2172 1.419 . S
C2174 C2175 1.362 . S
C2175 H2165 0.930 . S
C2175 C2168 1.409 . S
C2175 C2174 1.362 . S
H2176 C2182 0.930 . S
H2177 C2185 0.930 . S
H2178 C2186 0.930 . S
H2179 C2187 0.930 . S
H2180 C2190 0.930 . S
H2181 C2191 0.930 . S
C2182 H2176 0.930 . S
C2182 C2183 1.355 . S
C2182 C2184 1.415 . S
C2183 C2182 1.355 . S
C2183 C2185 1.419 . S
C2184 C2182 1.415 . S
C2184 C2189 1.425 . S
C2184 C2191 1.409 . S
C2185 H2177 0.930 . S
C2185 C2183 1.419 . S
C2185 C2186 1.362 . S
C2186 H2178 0.930 . S
C2186 C2185 1.362 . S
C2186 C2189 1.409 . S
C2187 H2179 0.930 . S
C2187 C2188 1.355 . S
C2187 C2189 1.415 . S
C2188 C2187 1.355 . S
C2188 C2190 1.419 . S
C2189 C2184 1.425 . S
C2189 C2186 1.409 . S
C2189 C2187 1.415 . S
C2190 H2180 0.930 . S
C2190 C2188 1.419 . S
C2190 C2191 1.362 . S
C2191 H2181 0.930 . S
C2191 C2184 1.409 . S
C2191 C2190 1.362 . S
H2192 C2198 0.930 . S
H2193 C2201 0.930 . S
H2194 C2202 0.930 . S
H2195 C2203 0.930 . S
H2196 C2206 0.930 . S
H2197 C2207 0.930 . S
C2198 H2192 0.930 . S
C2198 C2199 1.355 . S
C2198 C2200 1.415 . S
C2199 C2198 1.355 . S
C2199 C2201 1.419 . S
C2200 C2198 1.415 . S
C2200 C2205 1.425 . S
C2200 C2207 1.409 . S
C2201 H2193 0.930 . S
C2201 C2199 1.419 . S
C2201 C2202 1.362 . S
C2202 H2194 0.930 . S
C2202 C2201 1.362 . S
C2202 C2205 1.409 . S
C2203 H2195 0.930 . S
C2203 C2204 1.355 . S
C2203 C2205 1.415 . S
C2204 C2203 1.355 . S
C2204 C2206 1.419 . S
C2205 C2200 1.425 . S
C2205 C2202 1.409 . S
C2205 C2203 1.415 . S
C2206 H2196 0.930 . S
C2206 C2204 1.419 . S
C2206 C2207 1.362 . S
C2207 H2197 0.930 . S
C2207 C2200 1.409 . S
C2207 C2206 1.362 . S
C679 C400 1.114 . S
C684 C8 1.118 . S
C695 C22 1.122 . S
C700 C414 1.111 . S
C711 C428 1.097 . S
C716 C36 1.136 . S
C727 C50 1.099 . S
C732 C442 1.134 . S
C743 C344 1.104 . S
C748 C64 1.129 . S
C759 C78 1.108 . S
C764 C358 1.125 . S
C775 C372 1.134 . S
C780 C92 1.098 . S
C791 C106 1.114 . S
C796 C386 1.119 . S
C807 C540 1.101 . S
C812 C120 1.131 . S
C823 C554 1.118 . S
C828 C134 1.114 . S
C839 C512 1.130 . S
C844 C148 1.102 . S
C855 C162 1.117 . S
C860 C526 1.116 . S
C871 C484 1.099 . S
C876 C176 1.133 . S
C887 C498 1.105 . S
C892 C190 1.128 . S
C903 C204 1.136 . S
C908 C456 1.097 . S
C919 C470 1.107 . S
C924 C218 1.126 . S
C935 C232 1.102 . S
C940 C638 1.131 . S
C951 C610 1.097 . S
C956 C246 1.136 . S
C967 C624 1.136 . S
C972 C260 1.096 . S
C983 C582 1.096 . S
C988 C274 1.136 . S
C999 C596 1.096 . S
C1004 C288 1.136 . S
C1015 C302 1.111 . S
C1020 C568 1.122 . S
C1031 C316 1.118 . S
C1036 C666 1.115 . S
C1047 C652 1.128 . S
C1052 C330 1.105 . S
C1063 C105 1.316 . S
C1068 C7 1.416 . S
C1079 C63 1.368 . S
C1084 C21 1.343 . S
C1095 C77 1.429 . S
C1100 C35 1.339 . S
C1111 C91 1.365 . S
C1116 C49 1.417 . S
C1127 C287 1.405 . S
C1132 C119 1.381 . S
C1143 C245 1.327 . S
C1148 C133 1.390 . S
C1159 C259 1.331 . S
C1164 C147 1.430 . S
C1175 C273 1.380 . S
C1180 C161 1.406 . S
C1191 C329 1.339 . S
C1196 C175 1.374 . S
C1207 C301 1.337 . S
C1212 C189 1.429 . S
C1223 C203 1.369 . S
C1228 C315 1.414 . S
C1239 C231 1.392 . S
C1244 C217 1.395 . S
C1255 C441 1.348 . S
C1260 C343 1.426 . S
C1271 C399 1.321 . S
C1276 C357 1.401 . S
C1287 C371 1.417 . S
C1292 C413 1.316 . S
C1303 C385 1.316 . S
C1308 C427 1.420 . S
C1319 C455 1.336 . S
C1324 C623 1.376 . S
C1335 C469 1.373 . S
C1340 C581 1.339 . S
C1351 C595 1.367 . S
C1356 C483 1.415 . S
C1367 C609 1.351 . S
C1372 C497 1.360 . S
C1383 C665 1.413 . S
C1388 C511 1.370 . S
C1399 C637 1.350 . S
C1404 C525 1.361 . S
C1415 C651 1.406 . S
C1420 C539 1.319 . S
C1431 C553 1.325 . S
C1436 C567 1.430 . S
C1447 C3 1.236 . S
C1452 C121 1.128 . S
C1463 C135 1.199 . S
C1468 C17 1.215 . S
C1479 C149 1.211 . S
C1484 C31 1.239 . S
C1495 C163 1.174 . S
C1500 C45 1.254 . S
C1511 C59 1.216 . S
C1516 C177 1.215 . S
C1527 C191 1.122 . S
C1532 C73 1.263 . S
C1543 C87 1.261 . S
C1548 C205 1.146 . S
C1559 C219 1.140 . S
C1564 C101 1.262 . S
C1575 C233 1.200 . S
C1580 C115 1.245 . S
C1591 C331 1.126 . S
C1596 C129 1.237 . S
C1607 C143 1.252 . S
C1612 C303 1.182 . S
C1623 C157 1.215 . S
C1628 C317 1.210 . S
C1639 C171 1.225 . S
C1644 C247 1.154 . S
C1655 C185 1.216 . S
C1660 C261 1.198 . S
C1671 C199 1.248 . S
C1676 C275 1.192 . S
C1687 C213 1.259 . S
C1692 C289 1.155 . S
C1703 C227 1.219 . S
C1708 C9 1.223 . S
C1719 C241 1.244 . S
C1724 C65 1.114 . S
C1735 C255 1.223 . S
C1740 C79 1.226 . S
C1751 C269 1.243 . S
C1756 C93 1.116 . S
C1767 C283 1.247 . S
C1772 C107 1.110 . S
C1783 C297 1.230 . S
C1788 C37 1.140 . S
C1799 C51 1.188 . S
C1804 C311 1.217 . S
C1815 C23 1.215 . S
C1820 C325 1.236 . S
C1831 C457 1.174 . S
C1836 C339 1.254 . S
C1847 C471 1.203 . S
C1852 C353 1.243 . S
C1863 C485 1.203 . S
C1868 C367 1.215 . S
C1879 C499 1.163 . S
C1884 C381 1.223 . S
C1895 C513 1.222 . S
C1900 C395 1.218 . S
C1911 C409 1.262 . S
C1916 C527 1.114 . S
C1927 C541 1.149 . S
C1932 C423 1.227 . S
C1943 C437 1.217 . S
C1948 C555 1.219 . S
C1959 C569 1.215 . S
C1964 C451 1.236 . S
C1975 C465 1.231 . S
C1980 C667 1.221 . S
C1991 C479 1.262 . S
C1996 C639 1.116 . S
C2007 C653 1.190 . S
C2012 C493 1.217 . S
C2023 C583 1.105 . S
C2028 C507 1.253 . S
C2039 C521 1.229 . S
C2044 C597 1.223 . S
C2055 C535 1.217 . S
C2060 C611 1.185 . S
C2071 C625 1.108 . S
C2076 C549 1.260 . S
C2087 C345 1.130 . S
C2092 C563 1.263 . S
C2103 C401 1.191 . S
C2108 C577 1.248 . S
C2119 C415 1.113 . S
C2124 C591 1.245 . S
C2135 C605 1.248 . S
C2140 C429 1.109 . S
C2151 C443 1.105 . S
C2156 C619 1.258 . S
C2167 C373 1.144 . S
C2172 C633 1.261 . S
C2183 C647 1.234 . S
C2188 C387 1.218 . S
C2199 C359 1.216 . S
C2204 C661 1.235 . S
