# Generated by pormake.
# Topology vbb, (4)-cn, num edge types: 1
# Building blocks:
#     Node 0, Type 0, BuildingBlock: QUQFOY_clean_sbu_1, # of connection points: 4
#     Node 1, Type 0, BuildingBlock: QUQFOY_clean_sbu_1, # of connection points: 4
#     Node 2, Type 0, BuildingBlock: QUQFOY_clean_sbu_1, # of connection points: 4
#     Node 3, Type 0, BuildingBlock: QUQFOY_clean_sbu_1, # of connection points: 4
#     Node 4, Type 0, BuildingBlock: QUQFOY_clean_sbu_1, # of connection points: 4
#     Node 5, Type 0, BuildingBlock: QUQFOY_clean_sbu_1, # of connection points: 4
#     Node 6, Type 0, BuildingBlock: QUQFOY_clean_sbu_1, # of connection points: 4
#     Node 7, Type 0, BuildingBlock: QUQFOY_clean_sbu_1, # of connection points: 4
#     Node 8, Type 0, BuildingBlock: QUQFOY_clean_sbu_1, # of connection points: 4
#     Node 9, Type 0, BuildingBlock: QUQFOY_clean_sbu_1, # of connection points: 4
#     Node 10, Type 0, BuildingBlock: QUQFOY_clean_sbu_1, # of connection points: 4
#     Node 11, Type 0, BuildingBlock: QUQFOY_clean_sbu_1, # of connection points: 4
#     Node 12, Type 0, BuildingBlock: QUQFOY_clean_sbu_1, # of connection points: 4
#     Node 13, Type 0, BuildingBlock: QUQFOY_clean_sbu_1, # of connection points: 4
#     Node 14, Type 0, BuildingBlock: QUQFOY_clean_sbu_1, # of connection points: 4
#     Node 15, Type 0, BuildingBlock: QUQFOY_clean_sbu_1, # of connection points: 4
#     Node 16, Type 0, BuildingBlock: QUQFOY_clean_sbu_1, # of connection points: 4
#     Node 17, Type 0, BuildingBlock: QUQFOY_clean_sbu_1, # of connection points: 4
#     Node 18, Type 0, BuildingBlock: QUQFOY_clean_sbu_1, # of connection points: 4
#     Node 19, Type 0, BuildingBlock: QUQFOY_clean_sbu_1, # of connection points: 4
#     Node 20, Type 0, BuildingBlock: QUQFOY_clean_sbu_1, # of connection points: 4
#     Node 21, Type 0, BuildingBlock: QUQFOY_clean_sbu_1, # of connection points: 4
#     Node 22, Type 0, BuildingBlock: QUQFOY_clean_sbu_1, # of connection points: 4
#     Node 23, Type 0, BuildingBlock: QUQFOY_clean_sbu_1, # of connection points: 4
#     Node 24, Type 0, BuildingBlock: QUQFOY_clean_sbu_1, # of connection points: 4
#     Node 25, Type 0, BuildingBlock: QUQFOY_clean_sbu_1, # of connection points: 4
#     Node 26, Type 0, BuildingBlock: QUQFOY_clean_sbu_1, # of connection points: 4
#     Node 27, Type 0, BuildingBlock: QUQFOY_clean_sbu_1, # of connection points: 4
#     Node 28, Type 0, BuildingBlock: QUQFOY_clean_sbu_1, # of connection points: 4
#     Node 29, Type 0, BuildingBlock: QUQFOY_clean_sbu_1, # of connection points: 4
#     Node 30, Type 0, BuildingBlock: QUQFOY_clean_sbu_1, # of connection points: 4
#     Node 31, Type 0, BuildingBlock: QUQFOY_clean_sbu_1, # of connection points: 4
#     Edge 32, Type (0, 0), BuildingBlock: CIFDUS_clean_linker_0, # of connection points: 2
#     Edge 33, Type (0, 0), BuildingBlock: CIFDUS_clean_linker_0, # of connection points: 2
#     Edge 34, Type (0, 0), BuildingBlock: CIFDUS_clean_linker_0, # of connection points: 2
#     Edge 35, Type (0, 0), BuildingBlock: CIFDUS_clean_linker_0, # of connection points: 2
#     Edge 36, Type (0, 0), BuildingBlock: CIFDUS_clean_linker_0, # of connection points: 2
#     Edge 37, Type (0, 0), BuildingBlock: CIFDUS_clean_linker_0, # of connection points: 2
#     Edge 38, Type (0, 0), BuildingBlock: CIFDUS_clean_linker_0, # of connection points: 2
#     Edge 39, Type (0, 0), BuildingBlock: CIFDUS_clean_linker_0, # of connection points: 2
#     Edge 40, Type (0, 0), BuildingBlock: CIFDUS_clean_linker_0, # of connection points: 2
#     Edge 41, Type (0, 0), BuildingBlock: CIFDUS_clean_linker_0, # of connection points: 2
#     Edge 42, Type (0, 0), BuildingBlock: CIFDUS_clean_linker_0, # of connection points: 2
#     Edge 43, Type (0, 0), BuildingBlock: CIFDUS_clean_linker_0, # of connection points: 2
#     Edge 44, Type (0, 0), BuildingBlock: CIFDUS_clean_linker_0, # of connection points: 2
#     Edge 45, Type (0, 0), BuildingBlock: CIFDUS_clean_linker_0, # of connection points: 2
#     Edge 46, Type (0, 0), BuildingBlock: CIFDUS_clean_linker_0, # of connection points: 2
#     Edge 47, Type (0, 0), BuildingBlock: CIFDUS_clean_linker_0, # of connection points: 2
#     Edge 48, Type (0, 0), BuildingBlock: CIFDUS_clean_linker_0, # of connection points: 2
#     Edge 49, Type (0, 0), BuildingBlock: CIFDUS_clean_linker_0, # of connection points: 2
#     Edge 50, Type (0, 0), BuildingBlock: CIFDUS_clean_linker_0, # of connection points: 2
#     Edge 51, Type (0, 0), BuildingBlock: CIFDUS_clean_linker_0, # of connection points: 2
#     Edge 52, Type (0, 0), BuildingBlock: CIFDUS_clean_linker_0, # of connection points: 2
#     Edge 53, Type (0, 0), BuildingBlock: CIFDUS_clean_linker_0, # of connection points: 2
#     Edge 54, Type (0, 0), BuildingBlock: CIFDUS_clean_linker_0, # of connection points: 2
#     Edge 55, Type (0, 0), BuildingBlock: CIFDUS_clean_linker_0, # of connection points: 2
#     Edge 56, Type (0, 0), BuildingBlock: CIFDUS_clean_linker_0, # of connection points: 2
#     Edge 57, Type (0, 0), BuildingBlock: CIFDUS_clean_linker_0, # of connection points: 2
#     Edge 58, Type (0, 0), BuildingBlock: CIFDUS_clean_linker_0, # of connection points: 2
#     Edge 59, Type (0, 0), BuildingBlock: CIFDUS_clean_linker_0, # of connection points: 2
#     Edge 60, Type (0, 0), BuildingBlock: CIFDUS_clean_linker_0, # of connection points: 2
#     Edge 61, Type (0, 0), BuildingBlock: CIFDUS_clean_linker_0, # of connection points: 2
#     Edge 62, Type (0, 0), BuildingBlock: CIFDUS_clean_linker_0, # of connection points: 2
#     Edge 63, Type (0, 0), BuildingBlock: CIFDUS_clean_linker_0, # of connection points: 2
#     Edge 64, Type (0, 0), BuildingBlock: CIFDUS_clean_linker_0, # of connection points: 2
#     Edge 65, Type (0, 0), BuildingBlock: CIFDUS_clean_linker_0, # of connection points: 2
#     Edge 66, Type (0, 0), BuildingBlock: CIFDUS_clean_linker_0, # of connection points: 2
#     Edge 67, Type (0, 0), BuildingBlock: CIFDUS_clean_linker_0, # of connection points: 2
#     Edge 68, Type (0, 0), BuildingBlock: CIFDUS_clean_linker_0, # of connection points: 2
#     Edge 69, Type (0, 0), BuildingBlock: CIFDUS_clean_linker_0, # of connection points: 2
#     Edge 70, Type (0, 0), BuildingBlock: CIFDUS_clean_linker_0, # of connection points: 2
#     Edge 71, Type (0, 0), BuildingBlock: CIFDUS_clean_linker_0, # of connection points: 2
#     Edge 72, Type (0, 0), BuildingBlock: CIFDUS_clean_linker_0, # of connection points: 2
#     Edge 73, Type (0, 0), BuildingBlock: CIFDUS_clean_linker_0, # of connection points: 2
#     Edge 74, Type (0, 0), BuildingBlock: CIFDUS_clean_linker_0, # of connection points: 2
#     Edge 75, Type (0, 0), BuildingBlock: CIFDUS_clean_linker_0, # of connection points: 2
#     Edge 76, Type (0, 0), BuildingBlock: CIFDUS_clean_linker_0, # of connection points: 2
#     Edge 77, Type (0, 0), BuildingBlock: CIFDUS_clean_linker_0, # of connection points: 2
#     Edge 78, Type (0, 0), BuildingBlock: CIFDUS_clean_linker_0, # of connection points: 2
#     Edge 79, Type (0, 0), BuildingBlock: CIFDUS_clean_linker_0, # of connection points: 2
#     Edge 80, Type (0, 0), BuildingBlock: CIFDUS_clean_linker_0, # of connection points: 2
#     Edge 81, Type (0, 0), BuildingBlock: CIFDUS_clean_linker_0, # of connection points: 2
#     Edge 82, Type (0, 0), BuildingBlock: CIFDUS_clean_linker_0, # of connection points: 2
#     Edge 83, Type (0, 0), BuildingBlock: CIFDUS_clean_linker_0, # of connection points: 2
#     Edge 84, Type (0, 0), BuildingBlock: CIFDUS_clean_linker_0, # of connection points: 2
#     Edge 85, Type (0, 0), BuildingBlock: CIFDUS_clean_linker_0, # of connection points: 2
#     Edge 86, Type (0, 0), BuildingBlock: CIFDUS_clean_linker_0, # of connection points: 2
#     Edge 87, Type (0, 0), BuildingBlock: CIFDUS_clean_linker_0, # of connection points: 2
#     Edge 88, Type (0, 0), BuildingBlock: CIFDUS_clean_linker_0, # of connection points: 2
#     Edge 89, Type (0, 0), BuildingBlock: CIFDUS_clean_linker_0, # of connection points: 2
#     Edge 90, Type (0, 0), BuildingBlock: CIFDUS_clean_linker_0, # of connection points: 2
#     Edge 91, Type (0, 0), BuildingBlock: CIFDUS_clean_linker_0, # of connection points: 2
#     Edge 92, Type (0, 0), BuildingBlock: CIFDUS_clean_linker_0, # of connection points: 2
#     Edge 93, Type (0, 0), BuildingBlock: CIFDUS_clean_linker_0, # of connection points: 2
#     Edge 94, Type (0, 0), BuildingBlock: CIFDUS_clean_linker_0, # of connection points: 2
#     Edge 95, Type (0, 0), BuildingBlock: CIFDUS_clean_linker_0, # of connection points: 2
# Relax obj value: 0.074
# Max RMSD: 0.231
# Mean RMSD: 0.231
data_MOF--net-vbb--node1-QUQFOY_clean_sbu_1--edge1-CIFDUS_clean_linker_0
_symmetry_space_group_name_H-M    P1
_symmetry_Int_Tables_number       1
_symmetry_cell_setting            triclinic
loop_
_symmetry_equiv_pos_as_xyz
'x, y, z'
_cell_length_a     38.45702
_cell_length_b     33.989097
_cell_length_c     94.463557
_cell_angle_alpha  90.043806
_cell_angle_beta   90.013817
_cell_angle_gamma 89.750509
loop_
_atom_site_label
_atom_site_type_symbol
_atom_site_fract_x
_atom_site_fract_y
_atom_site_fract_z
_atom_type_partial_charge
O0 O 0.50799 1.00372 0.07561 0.0
Cd1 Cd 0.50389 1.00011 0.09722 0.0
Cd2 Cd 0.47617 0.07161 0.09413 0.0
O3 O 0.46994 0.05211 0.07307 0.0
O4 O 0.49684 0.94334 0.10294 0.0
O5 O 0.45562 0.98868 0.10371 0.0
C6 C 0.46462 0.95242 0.10521 0.0
C7 C 0.43793 0.09482 0.11163 0.0
C8 C 0.48952 0.02553 0.06764 0.0
C9 C 0.5473 0.06748 0.10634 0.0
O10 O 0.52566 0.08776 0.09925 0.0
O11 O 0.54178 0.03097 0.10854 0.0
O12 O 0.44581 0.11663 0.10088 0.0
O13 O 0.44844 0.0588 0.11144 0.0
O14 O 0.75466 0.26066 0.07514 0.0
Cd15 Cd 0.75887 0.26591 0.09662 0.0
Cd16 Cd 0.7848 0.19176 0.09451 0.0
O17 O 0.7913 0.21046 0.07329 0.0
O18 O 0.7737 0.3209 0.10256 0.0
O19 O 0.80839 0.26905 0.1022 0.0
C20 C 0.80456 0.30621 0.10419 0.0
C21 C 0.822 0.16566 0.112 0.0
C22 C 0.77265 0.23739 0.0675 0.0
C23 C 0.7135 0.20082 0.10642 0.0
O24 O 0.73474 0.17901 0.09973 0.0
O25 O 0.7199 0.23735 0.10817 0.0
O26 O 0.81284 0.14451 0.10124 0.0
O27 O 0.8133 0.2022 0.11188 0.0
O28 O 0.50147 0.25759 0.22689 0.0
Cd29 Cd 0.49748 0.26171 0.20531 0.0
Cd30 Cd 0.47339 0.18793 0.20798 0.0
O31 O 0.46629 0.20665 0.22911 0.0
O32 O 0.48442 0.31735 0.19954 0.0
O33 O 0.44835 0.26706 0.19897 0.0
C34 C 0.45332 0.30421 0.19741 0.0
C35 C 0.43661 0.16072 0.19071 0.0
C36 C 0.48425 0.23428 0.23471 0.0
C37 C 0.54466 0.1973 0.19603 0.0
O38 O 0.52375 0.17549 0.2028 0.0
O39 O 0.53749 0.23362 0.19406 0.0
O40 O 0.4465 0.14005 0.20149 0.0
O41 O 0.44422 0.19755 0.19073 0.0
O42 O 0.75658 1.0084 0.22773 0.0
Cd43 Cd 0.76184 1.00419 0.20623 0.0
Cd44 Cd 0.78588 0.0779 0.20904 0.0
O45 O 0.79265 0.05849 0.23014 0.0
O46 O 0.77534 0.9486 0.20034 0.0
O47 O 0.81155 0.99872 0.20072 0.0
C48 C 0.80662 0.96175 0.19873 0.0
C49 C 0.82273 0.10279 0.19135 0.0
C50 C 0.77401 0.03129 0.23565 0.0
C51 C 0.71536 0.06939 0.19678 0.0
O52 O 0.73572 0.09097 0.20393 0.0
O53 O 0.72284 0.0332 0.19462 0.0
O54 O 0.81424 0.12434 0.20212 0.0
O55 O 0.81353 0.06648 0.19157 0.0
O56 O 0.511 0.99559 0.97831 0.0
Cd57 Cd 0.51557 0.99928 0.95681 0.0
Cd58 Cd 0.54607 0.92787 0.95979 0.0
O59 O 0.5516 0.94965 0.98071 0.0
O60 O 0.52836 0.05473 0.95025 0.0
O61 O 0.56552 1.00548 0.95198 0.0
C62 C 0.56009 0.04207 0.94937 0.0
C63 C 0.58396 0.90412 0.94208 0.0
C64 C 0.53085 0.97511 0.9862 0.0
C65 C 0.47469 0.92871 0.94796 0.0
O66 O 0.49709 0.90988 0.95515 0.0
O67 O 0.47881 0.96541 0.94549 0.0
O68 O 0.57729 0.88301 0.95314 0.0
O69 O 0.57234 0.93961 0.94195 0.0
O70 O 0.2504 0.76489 0.97737 0.0
Cd71 Cd 0.2481 0.76178 0.95566 0.0
Cd72 Cd 0.21542 0.83033 0.95879 0.0
O73 O 0.20912 0.80986 0.97971 0.0
O74 O 0.24362 0.70466 0.94965 0.0
O75 O 0.20057 0.74765 0.94866 0.0
C76 C 0.2111 0.71186 0.94722 0.0
C77 C 0.17749 0.85326 0.94109 0.0
C78 C 0.23008 0.78483 0.98525 0.0
C79 C 0.28784 0.83331 0.9477 0.0
O80 O 0.26404 0.85087 0.95457 0.0
O81 O 0.28528 0.79651 0.9451 0.0
O82 O 0.18377 0.87435 0.9522 0.0
O83 O 0.18919 0.81769 0.94099 0.0
O84 O 0.50703 0.76549 0.82568 0.0
Cd85 Cd 0.51141 0.76177 0.84722 0.0
Cd86 Cd 0.54463 0.82957 0.84413 0.0
O87 O 0.54997 0.80796 0.82323 0.0
O88 O 0.51693 0.7045 0.85321 0.0
O89 O 0.56007 0.74691 0.85273 0.0
C90 C 0.54984 0.71135 0.85464 0.0
C91 C 0.5831 0.84805 0.86229 0.0
C92 C 0.52787 0.78426 0.81775 0.0
C93 C 0.47315 0.83494 0.85557 0.0
O94 O 0.49661 0.8519 0.8484 0.0
O95 O 0.47568 0.79813 0.85827 0.0
O96 O 0.57869 0.87041 0.85134 0.0
O97 O 0.56876 0.81394 0.86205 0.0
O98 O 0.25256 1.00725 0.82617 0.0
Cd99 Cd 0.24885 1.01033 0.84783 0.0
Cd100 Cd 0.21652 0.94229 0.8444 0.0
O101 O 0.21093 0.96327 0.82349 0.0
O102 O 0.2437 0.06752 0.85378 0.0
O103 O 0.20066 0.02492 0.85423 0.0
C104 C 0.21099 0.06065 0.85578 0.0
C105 C 0.17821 0.91978 0.86196 0.0
C106 C 0.23241 0.98783 0.81812 0.0
C107 C 0.28847 0.93831 0.85591 0.0
O108 O 0.26495 0.92112 0.84883 0.0
O109 O 0.28575 0.97508 0.85861 0.0
O110 O 0.18455 0.89871 0.85083 0.0
O111 O 0.19007 0.95516 0.86214 0.0
O112 O 0.50377 0.50913 0.57585 0.0
Cd113 Cd 0.50065 0.50272 0.59734 0.0
Cd114 Cd 0.47369 0.57593 0.59543 0.0
O115 O 0.46639 0.55851 0.57417 0.0
O116 O 0.49517 0.44458 0.60195 0.0
O117 O 0.4527 0.48796 0.60378 0.0
C118 C 0.46271 0.45189 0.60448 0.0
C119 C 0.43613 0.59111 0.61427 0.0
C120 C 0.48547 0.53218 0.56828 0.0
C121 C 0.54574 0.56969 0.60663 0.0
O122 O 0.52358 0.59113 0.60027 0.0
O123 O 0.53993 0.53297 0.60843 0.0
O124 O 0.44196 0.61687 0.60447 0.0
O125 O 0.44883 0.5564 0.61248 0.0
O126 O 0.75647 0.76573 0.57622 0.0
Cd127 Cd 0.75946 0.7693 0.59788 0.0
Cd128 Cd 0.78617 0.69731 0.59506 0.0
O129 O 0.79309 0.71587 0.57397 0.0
O130 O 0.76618 0.82638 0.60346 0.0
O131 O 0.80752 0.7814 0.60487 0.0
C132 C 0.79835 0.81772 0.60604 0.0
C133 C 0.8246 0.67475 0.61261 0.0
C134 C 0.77447 0.74304 0.56838 0.0
C135 C 0.71417 0.70233 0.60653 0.0
O136 O 0.73638 0.68145 0.59996 0.0
O137 O 0.71985 0.73892 0.6086 0.0
O138 O 0.81652 0.65255 0.60198 0.0
O139 O 0.81389 0.71069 0.61234 0.0
O140 O 0.50446 0.75674 0.72846 0.0
Cd141 Cd 0.49894 0.76089 0.70706 0.0
Cd142 Cd 0.46681 0.69268 0.70993 0.0
O143 O 0.46061 0.7154 0.73071 0.0
O144 O 0.49402 0.81831 0.70093 0.0
O145 O 0.44983 0.77764 0.70269 0.0
C146 C 0.46079 0.8126 0.70021 0.0
C147 C 0.43164 0.6812 0.69001 0.0
C148 C 0.48309 0.73849 0.7363 0.0
C149 C 0.53723 0.68682 0.69879 0.0
O150 O 0.51466 0.66984 0.70641 0.0
O151 O 0.53373 0.72339 0.69574 0.0
O152 O 0.43149 0.65658 0.70047 0.0
O153 O 0.44899 0.71314 0.69157 0.0
O154 O 0.75963 0.52124 0.72796 0.0
Cd155 Cd 0.76442 0.51713 0.70643 0.0
Cd156 Cd 0.79447 0.58803 0.70954 0.0
O157 O 0.80023 0.56673 0.73044 0.0
O158 O 0.77692 0.46117 0.70011 0.0
O159 O 0.81438 0.50985 0.70138 0.0
C160 C 0.80872 0.47317 0.69905 0.0
C161 C 0.83168 0.61238 0.69186 0.0
C162 C 0.77927 0.54169 0.7359 0.0
C163 C 0.7231 0.58785 0.69772 0.0
O164 O 0.74542 0.60631 0.70501 0.0
O165 O 0.72736 0.55117 0.69512 0.0
O166 O 0.8249 0.63319 0.70302 0.0
O167 O 0.82085 0.57664 0.6917 0.0
O168 O 0.50259 0.50604 0.47867 0.0
Cd169 Cd 0.51108 0.50775 0.4576 0.0
Cd170 Cd 0.54169 0.44076 0.45964 0.0
O171 O 0.5474 0.46533 0.48041 0.0
O172 O 0.52569 0.56125 0.44967 0.0
O173 O 0.56277 0.51518 0.4563 0.0
C174 C 0.55761 0.54995 0.4514 0.0
C175 C 0.57398 0.43293 0.43854 0.0
C176 C 0.5248 0.48809 0.48628 0.0
C177 C 0.47336 0.43276 0.44919 0.0
O178 O 0.49521 0.41542 0.4571 0.0
O179 O 0.47748 0.4692 0.44609 0.0
O180 O 0.57914 0.40947 0.44916 0.0
O181 O 0.55259 0.46167 0.44029 0.0
O182 O 0.25812 0.26558 0.47817 0.0
Cd183 Cd 0.24941 0.2634 0.45708 0.0
Cd184 Cd 0.21959 0.33129 0.45943 0.0
O185 O 0.21379 0.30684 0.48022 0.0
O186 O 0.23495 0.20943 0.44949 0.0
O187 O 0.19782 0.25613 0.45549 0.0
C188 C 0.203 0.22097 0.45094 0.0
C189 C 0.18693 0.34204 0.43857 0.0
C190 C 0.23641 0.28381 0.48594 0.0
C191 C 0.28818 0.33712 0.44863 0.0
O192 O 0.26684 0.35475 0.45669 0.0
O193 O 0.28339 0.30086 0.44542 0.0
O194 O 0.18342 0.36544 0.44933 0.0
O195 O 0.20655 0.31163 0.44013 0.0
O196 O 0.50368 0.26097 0.32417 0.0
Cd197 Cd 0.51019 0.2566 0.34545 0.0
Cd198 Cd 0.53553 0.3298 0.34333 0.0
O199 O 0.54228 0.30882 0.32225 0.0
O200 O 0.52402 0.20139 0.35193 0.0
O201 O 0.56085 0.25023 0.34912 0.0
C202 C 0.55573 0.214 0.35226 0.0
C203 C 0.57216 0.34642 0.36244 0.0
C204 C 0.52261 0.28287 0.31649 0.0
C205 C 0.46559 0.32438 0.35512 0.0
O206 O 0.48591 0.34553 0.34781 0.0
O207 O 0.47283 0.28812 0.35737 0.0
O208 O 0.56793 0.37078 0.35204 0.0
O209 O 0.55793 0.31246 0.36134 0.0
O210 O 0.25583 0.51731 0.32497 0.0
Cd211 Cd 0.25237 0.52295 0.34652 0.0
Cd212 Cd 0.22572 0.44969 0.34414 0.0
O213 O 0.21929 0.4676 0.32284 0.0
O214 O 0.24674 0.58074 0.35154 0.0
O215 O 0.20455 0.53728 0.35311 0.0
C216 C 0.21442 0.57324 0.35414 0.0
C217 C 0.18807 0.43316 0.36278 0.0
C218 C 0.23814 0.49435 0.31718 0.0
C219 C 0.29711 0.45592 0.35598 0.0
O220 O 0.27552 0.43466 0.34932 0.0
O221 O 0.29108 0.49259 0.3578 0.0
O222 O 0.19473 0.40783 0.35289 0.0
O223 O 0.1997 0.46827 0.36112 0.0
O224 O 1.00421 0.01088 0.5761 0.0
Cd225 Cd 1.00151 1.0079 0.59774 0.0
Cd226 Cd 0.96775 0.07636 0.59471 0.0
O227 O 0.96198 0.05479 0.57381 0.0
O228 O 0.99593 0.95106 0.60407 0.0
O229 O 0.95338 0.99474 0.60405 0.0
C230 C 0.9633 0.95895 0.60597 0.0
C231 C 0.92964 0.09754 0.6127 0.0
C232 C 0.98337 0.03016 0.56826 0.0
C233 C 0.03984 0.08063 0.60586 0.0
O234 O 0.01599 0.09784 0.5989 0.0
O235 O 0.03772 0.04378 0.60843 0.0
O236 O 0.93476 0.11904 0.6016 0.0
O237 O 0.94279 0.06268 0.61268 0.0
O238 O 0.25494 0.25369 0.57536 0.0
Cd239 Cd 0.26045 0.25756 0.59673 0.0
Cd240 Cd 0.294 0.18986 0.59417 0.0
O241 O 0.2998 0.21315 0.57337 0.0
O242 O 0.26629 0.31438 0.60337 0.0
O243 O 0.30983 0.27271 0.60073 0.0
C244 C 0.29945 0.30768 0.60374 0.0
C245 C 0.32955 0.17812 0.61408 0.0
C246 C 0.27702 0.23587 0.56764 0.0
C247 C 0.22364 0.18312 0.60509 0.0
O248 O 0.24659 0.16622 0.59756 0.0
O249 O 0.22643 0.21978 0.60804 0.0
O250 O 0.33006 0.1539 0.60348 0.0
O251 O 0.31144 0.20975 0.61273 0.0
O252 O 1.00095 0.25389 0.72794 0.0
Cd253 Cd 0.99626 0.25782 0.70639 0.0
Cd254 Cd 0.96665 0.18648 0.70952 0.0
O255 O 0.96155 0.20717 0.73059 0.0
O256 O 0.98378 0.3138 0.70018 0.0
O257 O 0.94646 0.2649 0.70105 0.0
C258 C 0.95206 0.30167 0.6989 0.0
C259 C 0.92892 0.16138 0.69208 0.0
C260 C 0.98207 0.23285 0.73597 0.0
C261 C 0.03816 0.18771 0.69753 0.0
O262 O 0.01575 0.16884 0.70463 0.0
O263 O 0.03388 0.22449 0.69515 0.0
O264 O 0.93665 0.14071 0.70315 0.0
O265 O 0.93906 0.19738 0.69188 0.0
O266 O 0.25549 0.01709 0.72886 0.0
Cd267 Cd 0.2614 0.01351 0.70748 0.0
Cd268 Cd 0.29418 0.08088 0.71037 0.0
O269 O 0.3 0.05751 0.73114 0.0
O270 O 0.26655 0.95642 0.70095 0.0
O271 O 0.31071 0.99683 0.70346 0.0
C272 C 0.29981 0.96208 0.70056 0.0
C273 C 0.32936 0.09158 0.69032 0.0
C274 C 0.27721 0.03478 0.73672 0.0
C275 C 0.22397 0.08841 0.69938 0.0
O276 O 0.24673 0.10493 0.70705 0.0
O277 O 0.22714 0.05185 0.69622 0.0
O278 O 0.33032 0.11595 0.70087 0.0
O279 O 0.31099 0.06036 0.6918 0.0
O280 O 0.0091 1.00639 0.4788 0.0
Cd281 Cd 0.01367 0.01128 0.45725 0.0
Cd282 Cd 0.03717 0.93695 0.4597 0.0
O283 O 0.04358 0.95452 0.48103 0.0
O284 O 0.02678 0.06716 0.45184 0.0
O285 O 0.06293 0.01667 0.45099 0.0
C286 C 0.0579 0.05391 0.44963 0.0
C287 C 0.07439 0.91047 0.44231 0.0
C288 C 0.02562 0.98232 0.48664 0.0
C289 C 0.96607 0.94792 0.44761 0.0
O290 O 0.98685 0.92547 0.45428 0.0
O291 O 0.97351 0.98419 0.44582 0.0
O292 O 0.06424 0.88921 0.45287 0.0
O293 O 0.06669 0.94733 0.4426 0.0
O294 O 0.75059 0.76508 0.47887 0.0
Cd295 Cd 0.74649 0.75984 0.45734 0.0
Cd296 Cd 0.72242 0.83432 0.45963 0.0
O297 O 0.71567 0.81667 0.4809 0.0
O298 O 0.73383 0.70376 0.45187 0.0
O299 O 0.6973 0.75389 0.45115 0.0
C300 C 0.70259 0.71675 0.44969 0.0
C301 C 0.68488 0.8587 0.44199 0.0
C302 C 0.73364 0.78906 0.4866 0.0
C303 C 0.79359 0.82399 0.44771 0.0
O304 O 0.77267 0.84639 0.45433 0.0
O305 O 0.78636 0.78763 0.44595 0.0
O306 O 0.69417 0.88084 0.45247 0.0
O307 O 0.69384 0.82224 0.44247 0.0
O308 O 0.00622 0.76819 0.32536 0.0
Cd309 Cd 0.01121 0.7654 0.34686 0.0
Cd310 Cd 0.04408 0.83286 0.34352 0.0
O311 O 0.0501 0.80939 0.32283 0.0
O312 O 0.01725 0.70893 0.35355 0.0
O313 O 0.06012 0.75158 0.35188 0.0
C314 C 0.05015 0.71632 0.35456 0.0
C315 C 0.0804 0.85165 0.36239 0.0
C316 C 0.0277 0.78591 0.3174 0.0
C317 C 0.97358 0.83871 0.35502 0.0
O318 O 0.99598 0.85526 0.3472 0.0
O319 O 0.97689 0.80231 0.35818 0.0
O320 O 0.07784 0.87349 0.3512 0.0
O321 O 0.06569 0.81776 0.36203 0.0
O322 O 0.75337 1.0014 0.32495 0.0
Cd323 Cd 0.74722 1.00506 0.34631 0.0
Cd324 Cd 0.71756 0.93444 0.34353 0.0
O325 O 0.71185 0.95692 0.32264 0.0
O326 O 0.73377 0.06008 0.35311 0.0
O327 O 0.69676 0.01146 0.35006 0.0
C328 C 0.702 0.04761 0.35332 0.0
C329 C 0.68084 0.91373 0.36204 0.0
C330 C 0.73306 0.9816 0.31709 0.0
C331 C 0.78761 0.9342 0.35553 0.0
O332 O 0.76632 0.91545 0.34784 0.0
O333 O 0.78269 0.97073 0.35814 0.0
O334 O 0.68509 0.89194 0.35091 0.0
O335 O 0.69434 0.94822 0.36187 0.0
O336 O 1.00451 0.51171 0.07399 0.0
Cd337 Cd 1.00063 0.50614 0.09551 0.0
Cd338 Cd 0.97552 0.58087 0.09354 0.0
O339 O 0.96939 0.56327 0.07215 0.0
O340 O 0.98579 0.45114 0.10134 0.0
O341 O 0.9514 0.50325 0.10151 0.0
C342 C 0.95513 0.46601 0.10333 0.0
C343 C 0.93822 0.60776 0.11089 0.0
C344 C 0.98744 0.53581 0.06635 0.0
C345 C 0.04688 0.5701 0.10554 0.0
O346 O 0.02569 0.59247 0.09907 0.0
O347 O 0.04023 0.53356 0.10703 0.0
O348 O 0.94851 0.62887 0.1003 0.0
O349 O 0.9458 0.5709 0.11063 0.0
O350 O 0.25506 0.76226 0.07481 0.0
Cd351 Cd 0.25888 0.767 0.09642 0.0
Cd352 Cd 0.28646 0.69516 0.09388 0.0
O353 O 0.29242 0.71304 0.0726 0.0
O354 O 0.26582 0.82402 0.10188 0.0
O355 O 0.30695 0.77866 0.10313 0.0
C356 C 0.29792 0.81498 0.10443 0.0
C357 C 0.325 0.67271 0.11146 0.0
C358 C 0.27309 0.73957 0.06698 0.0
C359 C 0.21505 0.70041 0.10591 0.0
O360 O 0.2369 0.67952 0.09915 0.0
O361 O 0.22057 0.73706 0.10777 0.0
O362 O 0.31672 0.65034 0.10091 0.0
O363 O 0.31464 0.70876 0.11105 0.0
O364 O 0.0067 0.75121 0.22817 0.0
Cd365 Cd 0.99878 0.75296 0.2069 0.0
Cd366 Cd 0.96903 0.68449 0.21018 0.0
O367 O 0.96329 0.70936 0.23079 0.0
O368 O 0.98468 0.80703 0.1993 0.0
O369 O 0.94768 0.75968 0.20429 0.0
C370 C 0.95281 0.79508 0.20007 0.0
C371 C 0.93393 0.66571 0.19084 0.0
C372 C 0.98559 0.73311 0.23619 0.0
C373 C 0.03792 0.68001 0.1985 0.0
O374 O 0.01714 0.66284 0.20685 0.0
O375 O 0.03277 0.71605 0.19513 0.0
O376 O 0.93484 0.64454 0.20224 0.0
O377 O 0.95003 0.69877 0.19105 0.0
O378 O 0.26073 0.52049 0.22765 0.0
Cd379 Cd 0.26531 0.51653 0.20612 0.0
Cd380 Cd 0.2954 0.58776 0.209 0.0
O381 O 0.30098 0.56645 0.22999 0.0
O382 O 0.27776 0.46108 0.19951 0.0
O383 O 0.31503 0.50998 0.20108 0.0
C384 C 0.30943 0.47348 0.19842 0.0
C385 C 0.33219 0.61191 0.19108 0.0
C386 C 0.28036 0.54113 0.23553 0.0
C387 C 0.22445 0.58676 0.19699 0.0
O388 O 0.24634 0.60561 0.20436 0.0
O389 O 0.22888 0.55007 0.19458 0.0
O390 O 0.32565 0.63291 0.20221 0.0
O391 O 0.3215 0.57613 0.19108 0.0
O392 O 0.00904 0.51265 0.97657 0.0
Cd393 Cd 0.01166 0.51594 0.95486 0.0
Cd394 Cd 0.03754 0.4443 0.95763 0.0
O395 O 0.04522 0.46242 0.97873 0.0
O396 O 0.01759 0.5731 0.9495 0.0
O397 O 0.05938 0.52876 0.94747 0.0
C398 C 0.04972 0.56505 0.94662 0.0
C399 C 0.07496 0.41961 0.94009 0.0
C400 C 0.02694 0.48981 0.98438 0.0
C401 C 0.96531 0.44991 0.94644 0.0
O402 O 0.98745 0.4289 0.95298 0.0
O403 O 0.97134 0.48637 0.94429 0.0
O404 O 0.06646 0.39833 0.95089 0.0
O405 O 0.06551 0.45606 0.94019 0.0
O406 O 0.75296 0.25959 0.9779 0.0
Cd407 Cd 0.74883 0.25398 0.95647 0.0
Cd408 Cd 0.7238 0.3289 0.95842 0.0
O409 O 0.71642 0.30992 0.97959 0.0
O410 O 0.73614 0.19769 0.95077 0.0
O411 O 0.69904 0.24718 0.95118 0.0
C412 C 0.70453 0.21027 0.94927 0.0
C413 C 0.68682 0.34806 0.93974 0.0
C414 C 0.73491 0.28296 0.98546 0.0
C415 C 0.79519 0.32022 0.94711 0.0
O416 O 0.77397 0.34226 0.95372 0.0
O417 O 0.78824 0.28378 0.94517 0.0
O418 O 0.6934 0.37233 0.94996 0.0
O419 O 0.69862 0.31282 0.94092 0.0
O420 O 0.00819 0.26204 0.8253 0.0
Cd421 Cd 0.01177 0.25978 0.84699 0.0
Cd422 Cd 0.04349 0.32802 0.84326 0.0
O423 O 0.04942 0.3064 0.82245 0.0
O424 O 0.01691 0.2028 0.8532 0.0
O425 O 0.05997 0.2454 0.85349 0.0
C426 C 0.04961 0.20974 0.85521 0.0
C427 C 0.0808 0.3511 0.86105 0.0
C428 C 0.02819 0.28138 0.81718 0.0
C429 C 0.97181 0.33195 0.85478 0.0
O430 O 0.99497 0.34899 0.84748 0.0
O431 O 0.97482 0.29533 0.85767 0.0
O432 O 0.075 0.3719 0.84981 0.0
O433 O 0.06919 0.3156 0.86118 0.0
O434 O 0.75858 0.51208 0.82517 0.0
Cd435 Cd 0.75232 0.51464 0.84646 0.0
Cd436 Cd 0.71912 0.44857 0.84366 0.0
O437 O 0.7129 0.47331 0.82308 0.0
O438 O 0.74624 0.57103 0.85365 0.0
O439 O 0.7025 0.5307 0.84992 0.0
C440 C 0.71299 0.56513 0.8535 0.0
C441 C 0.6858 0.43972 0.86432 0.0
C442 C 0.73604 0.4954 0.8174 0.0
C443 C 0.78878 0.43832 0.85403 0.0
O444 O 0.76583 0.4225 0.84626 0.0
O445 O 0.78599 0.47477 0.85744 0.0
O446 O 0.68202 0.41604 0.85367 0.0
O447 O 0.70608 0.46931 0.86269 0.0
H448 H 0.42454 0.05688 0.13641 0.0
H449 H 0.42055 0.17169 0.11697 0.0
H450 H 0.41306 0.20211 0.14021 0.0
H451 H 0.4185 0.19685 0.16606 0.0
H452 H 0.42635 0.08228 0.1855 0.0
H453 H 0.42076 0.05111 0.1623 0.0
C454 C 0.42112 0.0885 0.13719 0.0
C455 C 0.42367 0.11198 0.12492 0.0
C456 C 0.41797 0.10593 0.15065 0.0
C457 C 0.41892 0.15286 0.12619 0.0
C458 C 0.41488 0.17033 0.13952 0.0
C459 C 0.41808 0.16502 0.16529 0.0
C460 C 0.42341 0.14199 0.17754 0.0
C461 C 0.41602 0.14729 0.15185 0.0
C462 C 0.42251 0.10079 0.17629 0.0
C463 C 0.41958 0.08292 0.16299 0.0
H464 H 0.83771 0.06453 0.16678 0.0
H465 H 0.83699 0.1802 0.18568 0.0
H466 H 0.84359 0.20991 0.16228 0.0
H467 H 0.83873 0.20332 0.13647 0.0
H468 H 0.83483 0.08775 0.11758 0.0
H469 H 0.84157 0.05778 0.14094 0.0
C470 C 0.83987 0.09623 0.16585 0.0
C471 C 0.83631 0.12011 0.178 0.0
C472 C 0.84238 0.11317 0.15231 0.0
C473 C 0.83945 0.16108 0.17655 0.0
C474 C 0.84297 0.17812 0.16313 0.0
C475 C 0.84023 0.17155 0.13738 0.0
C476 C 0.83573 0.14782 0.12525 0.0
C477 C 0.84282 0.15451 0.15091 0.0
C478 C 0.83803 0.10675 0.12669 0.0
C479 C 0.84162 0.08958 0.14009 0.0
H480 H 0.59639 0.80675 0.88639 0.0
H481 H 0.60178 0.92365 0.86875 0.0
H482 H 0.60944 0.95108 0.89245 0.0
H483 H 0.60329 0.94285 0.91818 0.0
H484 H 0.59465 0.82624 0.93583 0.0
H485 H 0.60037 0.79774 0.91218 0.0
C486 C 0.60017 0.83815 0.88767 0.0
C487 C 0.5979 0.86315 0.87578 0.0
C488 C 0.60354 0.85385 0.90139 0.0
C489 C 0.60323 0.9037 0.87766 0.0
C490 C 0.60733 0.91946 0.89126 0.0
C491 C 0.6036 0.91113 0.91692 0.0
C492 C 0.59795 0.88676 0.92878 0.0
C493 C 0.60582 0.89499 0.90323 0.0
C494 C 0.59882 0.84574 0.92693 0.0
C495 C 0.60177 0.82942 0.91336 0.0
H496 H 0.16264 0.95685 0.88681 0.0
H497 H 0.16396 0.84224 0.86711 0.0
H498 H 0.15764 0.81116 0.89026 0.0
H499 H 0.16248 0.81629 0.91618 0.0
H500 H 0.16324 0.93089 0.93587 0.0
H501 H 0.15731 0.96201 0.91271 0.0
C502 C 0.1606 0.92509 0.88751 0.0
C503 C 0.16434 0.90195 0.87519 0.0
C504 C 0.1578 0.90731 0.90093 0.0
C505 C 0.16133 0.86086 0.87636 0.0
C506 C 0.15799 0.843 0.88965 0.0
C507 C 0.1604 0.84806 0.91547 0.0
C508 C 0.16388 0.87117 0.9278 0.0
C509 C 0.15783 0.86586 0.90204 0.0
C510 C 0.16082 0.91229 0.92662 0.0
C511 C 0.1577 0.93018 0.91332 0.0
H512 H 0.4212 0.66461 0.6245 0.0
H513 H 0.41833 0.54167 0.63576 0.0
H514 H 0.41008 0.55892 0.66057 0.0
H515 H 0.41503 0.60865 0.67947 0.0
H516 H 0.41926 0.7315 0.6682 0.0
H517 H 0.41483 0.71462 0.64319 0.0
C518 C 0.41768 0.6416 0.63231 0.0
C519 C 0.42108 0.60193 0.62825 0.0
C520 C 0.41366 0.65171 0.64669 0.0
C521 C 0.41631 0.57251 0.63856 0.0
C522 C 0.41174 0.58233 0.65281 0.0
C523 C 0.41376 0.63178 0.67158 0.0
C524 C 0.41807 0.67122 0.67573 0.0
C525 C 0.41207 0.62181 0.6571 0.0
C526 C 0.41642 0.70081 0.66532 0.0
C527 C 0.41408 0.69119 0.65097 0.0
H528 H 0.84812 0.57506 0.66727 0.0
H529 H 0.84276 0.69046 0.68625 0.0
H530 H 0.84654 0.72063 0.66283 0.0
H531 H 0.84012 0.71377 0.63702 0.0
H532 H 0.84199 0.59808 0.61814 0.0
H533 H 0.85138 0.56866 0.64141 0.0
C534 C 0.84872 0.60686 0.66634 0.0
C535 C 0.84457 0.63042 0.67853 0.0
C536 C 0.84972 0.62399 0.65279 0.0
C537 C 0.84577 0.67155 0.67709 0.0
C538 C 0.8476 0.68885 0.66365 0.0
C539 C 0.84348 0.68217 0.63792 0.0
C540 C 0.83974 0.65815 0.62582 0.0
C541 C 0.84787 0.66532 0.65142 0.0
C542 C 0.84448 0.61731 0.62723 0.0
C543 C 0.84963 0.60041 0.64058 0.0
H544 H 0.5958 0.36278 0.42742 0.0
H545 H 0.58084 0.48519 0.41702 0.0
H546 H 0.5856 0.47007 0.39186 0.0
H547 H 0.58241 0.42053 0.37286 0.0
H548 H 0.59513 0.29781 0.38331 0.0
H549 H 0.60355 0.31457 0.40816 0.0
C550 C 0.5948 0.38628 0.41967 0.0
C551 C 0.58743 0.42493 0.4241 0.0
C552 C 0.59657 0.37722 0.40511 0.0
C553 C 0.58608 0.45506 0.41389 0.0
C554 C 0.58862 0.44643 0.39946 0.0
C555 C 0.58822 0.39761 0.38049 0.0
C556 C 0.58756 0.35797 0.37624 0.0
C557 C 0.59211 0.40736 0.39492 0.0
C558 C 0.59506 0.32859 0.38631 0.0
C559 C 0.59972 0.33811 0.40057 0.0
H560 H 0.17693 0.35891 0.37294 0.0
H561 H 0.16792 0.48144 0.38436 0.0
H562 H 0.16054 0.46358 0.40916 0.0
H563 H 0.16757 0.41394 0.42804 0.0
H564 H 0.1782 0.29165 0.41655 0.0
H565 H 0.1733 0.30851 0.39156 0.0
C566 C 0.17225 0.38165 0.38078 0.0
C567 C 0.17358 0.42147 0.37676 0.0
C568 C 0.16882 0.37122 0.39516 0.0
C569 C 0.16743 0.45051 0.38712 0.0
C570 C 0.16338 0.44035 0.40138 0.0
C571 C 0.16764 0.39089 0.42009 0.0
C572 C 0.17377 0.35167 0.42419 0.0
C573 C 0.16567 0.4009 0.40561 0.0
C574 C 0.17393 0.32217 0.41371 0.0
C575 C 0.17129 0.33179 0.39937 0.0
H576 H 0.91674 0.05895 0.63742 0.0
H577 H 0.91204 0.17418 0.61833 0.0
H578 H 0.90489 0.20403 0.64169 0.0
H579 H 0.91072 0.19818 0.66754 0.0
H580 H 0.91836 0.08314 0.68662 0.0
H581 H 0.91287 0.05254 0.66331 0.0
C582 C 0.91323 0.09053 0.6383 0.0
C583 C 0.91548 0.11429 0.62609 0.0
C584 C 0.9101 0.10763 0.65183 0.0
C585 C 0.91058 0.15512 0.6275 0.0
C586 C 0.90676 0.17228 0.6409 0.0
C587 C 0.91026 0.16636 0.66667 0.0
C588 C 0.91549 0.14304 0.67885 0.0
C589 C 0.90811 0.14896 0.65316 0.0
C590 C 0.91452 0.10188 0.67747 0.0
C591 C 0.91168 0.08433 0.6641 0.0
H592 H 0.3448 0.10534 0.62478 0.0
H593 H 0.34501 0.22872 0.63544 0.0
H594 H 0.35161 0.2127 0.66046 0.0
H595 H 0.34597 0.16376 0.67955 0.0
H596 H 0.34314 0.04043 0.66889 0.0
H597 H 0.34963 0.05619 0.64386 0.0
C598 C 0.34752 0.1287 0.63252 0.0
C599 C 0.34397 0.16814 0.62823 0.0
C600 C 0.35027 0.11926 0.64702 0.0
C601 C 0.34732 0.19806 0.63845 0.0
C602 C 0.35091 0.18893 0.65281 0.0
C603 C 0.34799 0.1403 0.6718 0.0
C604 C 0.34361 0.10102 0.67611 0.0
C605 C 0.35071 0.14963 0.65729 0.0
C606 C 0.34608 0.07099 0.66588 0.0
C607 C 0.34962 0.07997 0.65151 0.0
H608 H 0.08992 0.81119 0.38694 0.0
H609 H 0.09889 0.92734 0.36893 0.0
H610 H 0.10405 0.95549 0.39266 0.0
H611 H 0.09538 0.9482 0.41834 0.0
H612 H 0.08332 0.83225 0.43623 0.0
H613 H 0.09062 0.80301 0.41279 0.0
C614 C 0.0939 0.84259 0.38816 0.0
C615 C 0.09348 0.86716 0.37612 0.0
C616 C 0.09581 0.85871 0.40187 0.0
C617 C 0.099 0.9077 0.37795 0.0
C618 C 0.10165 0.92388 0.39156 0.0
C619 C 0.09523 0.91645 0.4172 0.0
C620 C 0.08826 0.89253 0.42907 0.0
C621 C 0.09848 0.89985 0.40359 0.0
C622 C 0.08845 0.85145 0.42734 0.0
C623 C 0.09237 0.83469 0.41388 0.0
H624 H 0.66634 0.81881 0.41817 0.0
H625 H 0.67238 0.93608 0.43554 0.0
H626 H 0.66462 0.96385 0.4119 0.0
H627 H 0.66715 0.95456 0.38614 0.0
H628 H 0.66519 0.83725 0.36867 0.0
H629 H 0.65953 0.80985 0.39248 0.0
C630 C 0.66508 0.85048 0.41686 0.0
C631 C 0.67054 0.87531 0.42864 0.0
C632 C 0.66176 0.86625 0.40315 0.0
C633 C 0.66848 0.91624 0.42671 0.0
C634 C 0.66429 0.93216 0.41315 0.0
C635 C 0.66459 0.92302 0.38749 0.0
C636 C 0.66717 0.89796 0.37561 0.0
C637 C 0.66258 0.90742 0.40125 0.0
C638 C 0.66341 0.85723 0.37758 0.0
C639 C 0.6605 0.84152 0.39123 0.0
H640 H 0.92443 0.70649 0.16639 0.0
H641 H 0.91478 0.59024 0.18425 0.0
H642 H 0.90882 0.56246 0.16049 0.0
H643 H 0.917 0.57002 0.13479 0.0
H644 H 0.92995 0.68604 0.11705 0.0
H645 H 0.92329 0.71505 0.14057 0.0
C646 C 0.92016 0.67515 0.16513 0.0
C647 C 0.92059 0.65041 0.17713 0.0
C648 C 0.91778 0.65927 0.15141 0.0
C649 C 0.91465 0.60998 0.17526 0.0
C650 C 0.91154 0.59403 0.16163 0.0
C651 C 0.91748 0.60176 0.13599 0.0
C652 C 0.92453 0.62575 0.12414 0.0
C653 C 0.91467 0.61819 0.14963 0.0
C654 C 0.92475 0.6668 0.12593 0.0
C655 C 0.92121 0.68342 0.13943 0.0
H656 H 0.34794 0.57406 0.1665 0.0
H657 H 0.34306 0.68989 0.18515 0.0
H658 H 0.34667 0.71952 0.16163 0.0
H659 H 0.34035 0.71213 0.13583 0.0
H660 H 0.34183 0.59603 0.11728 0.0
H661 H 0.35096 0.56707 0.14065 0.0
C662 C 0.34859 0.60583 0.16548 0.0
C663 C 0.3447 0.62967 0.17762 0.0
C664 C 0.34953 0.62266 0.15188 0.0
C665 C 0.3459 0.67076 0.17605 0.0
C666 C 0.34765 0.68775 0.16255 0.0
C667 C 0.34356 0.68053 0.13682 0.0
C668 C 0.33985 0.65628 0.12477 0.0
C669 C 0.34781 0.66395 0.15038 0.0
C670 C 0.34435 0.61544 0.12632 0.0
C671 C 0.34935 0.59881 0.13972 0.0
H672 H 0.09431 0.31479 0.88619 0.0
H673 H 0.09429 0.42889 0.86619 0.0
H674 H 0.09835 0.46058 0.88934 0.0
H675 H 0.09132 0.45606 0.91521 0.0
H676 H 0.08911 0.34185 0.93513 0.0
H677 H 0.09707 0.31026 0.91215 0.0
C678 C 0.09615 0.34658 0.88685 0.0
C679 C 0.09347 0.36938 0.87441 0.0
C680 C 0.09755 0.3647 0.90025 0.0
C681 C 0.09616 0.41052 0.87552 0.0
C682 C 0.09818 0.42873 0.88881 0.0
C683 C 0.09349 0.42428 0.9146 0.0
C684 C 0.08906 0.40141 0.92693 0.0
C685 C 0.09728 0.40617 0.90125 0.0
C686 C 0.09219 0.36027 0.92587 0.0
C687 C 0.09653 0.34211 0.91268 0.0
H688 H 0.67749 0.42306 0.9299 0.0
H689 H 0.66357 0.30131 0.91837 0.0
H690 H 0.65552 0.31984 0.89367 0.0
H691 H 0.66374 0.36913 0.87484 0.0
H692 H 0.67921 0.49062 0.88636 0.0
H693 H 0.67456 0.47387 0.91136 0.0
C694 C 0.67156 0.40073 0.92206 0.0
C695 C 0.67179 0.36082 0.92598 0.0
C696 C 0.66774 0.4115 0.90773 0.0
C697 C 0.66402 0.33227 0.91565 0.0
C698 C 0.65956 0.3428 0.90146 0.0
C699 C 0.6649 0.39211 0.8828 0.0
C700 C 0.67241 0.43093 0.87871 0.0
C701 C 0.66307 0.38212 0.89727 0.0
C702 C 0.67389 0.46035 0.8892 0.0
C703 C 0.6714 0.45079 0.90354 0.0
H704 H 0.36739 0.80394 0.10818 0.0
H705 H 0.28843 0.89456 0.10717 0.0
H706 H 0.33331 0.94507 0.10886 0.0
H707 H 0.39496 0.9635 0.10828 0.0
H708 H 0.47397 0.87289 0.10819 0.0
H709 H 0.429 0.82238 0.10943 0.0
C710 C 0.35989 0.83472 0.10852 0.0
C711 C 0.32451 0.84541 0.10744 0.0
C712 C 0.38588 0.86363 0.10921 0.0
C713 C 0.31539 0.88546 0.10794 0.0
C714 C 0.34108 0.91438 0.10886 0.0
C715 C 0.40244 0.93272 0.10873 0.0
C716 C 0.43788 0.92203 0.10804 0.0
C717 C 0.37642 0.90382 0.10914 0.0
C718 C 0.44697 0.88199 0.10867 0.0
C719 C 0.42123 0.85307 0.10932 0.0
H720 H 0.80773 0.38626 0.10714 0.0
H721 H 0.87154 0.28146 0.10724 0.0
H722 H 0.9239 0.32134 0.10816 0.0
H723 H 0.95203 0.38608 0.10659 0.0
H724 H 0.88826 0.49091 0.1067 0.0
H725 H 0.83594 0.45108 0.10819 0.0
C726 C 0.83306 0.37216 0.10758 0.0
C727 C 0.83556 0.33093 0.10694 0.0
C728 C 0.86333 0.39532 0.10804 0.0
C729 C 0.86869 0.31317 0.10761 0.0
C730 C 0.8988 0.33596 0.1081 0.0
C731 C 0.92673 0.40021 0.10715 0.0
C732 C 0.92421 0.44141 0.10635 0.0
C733 C 0.8965 0.37708 0.10795 0.0
C734 C 0.89111 0.45922 0.10718 0.0
C735 C 0.86104 0.43645 0.10801 0.0
H736 H 0.45331 0.38436 0.1949 0.0
H737 H 0.38538 0.28366 0.19396 0.0
H738 H 0.33469 0.32684 0.19301 0.0
H739 H 0.30917 0.39339 0.19477 0.0
H740 H 0.37737 0.49391 0.19559 0.0
H741 H 0.42793 0.45082 0.19413 0.0
C742 C 0.42746 0.37185 0.19426 0.0
C743 C 0.4233 0.33079 0.19465 0.0
C744 C 0.39821 0.39691 0.19382 0.0
C745 C 0.3895 0.31516 0.19376 0.0
C746 C 0.36036 0.33986 0.19326 0.0
C747 C 0.33505 0.40587 0.19441 0.0
C748 C 0.33931 0.44685 0.19545 0.0
C749 C 0.36432 0.38081 0.19364 0.0
C750 C 0.37316 0.46247 0.19492 0.0
C751 C 0.40224 0.43783 0.19411 0.0
H752 H 0.80758 0.88143 0.19703 0.0
H753 H 0.87404 0.98315 0.1945 0.0
H754 H 0.92526 0.94079 0.19346 0.0
H755 H 0.95181 0.87482 0.19555 0.0
H756 H 0.88507 0.77334 0.19826 0.0
H757 H 0.83384 0.81539 0.19681 0.0
C758 C 0.83321 0.89431 0.19603 0.0
C759 C 0.83683 0.93544 0.19599 0.0
C760 C 0.86278 0.86974 0.19558 0.0
C761 C 0.87036 0.95158 0.19466 0.0
C762 C 0.8998 0.92735 0.19409 0.0
C763 C 0.92608 0.8619 0.1956 0.0
C764 C 0.92244 0.821 0.19719 0.0
C765 C 0.89643 0.88639 0.1949 0.0
C766 C 0.88879 0.80477 0.19721 0.0
C767 C 0.85933 0.82882 0.19639 0.0
H768 H 0.70453 0.12975 0.94688 0.0
H769 H 0.63661 0.23112 0.94592 0.0
H770 H 0.58595 0.18855 0.94478 0.0
H771 H 0.56025 0.12234 0.94612 0.0
H772 H 0.62818 0.02095 0.94688 0.0
H773 H 0.6789 0.06344 0.94588 0.0
C774 C 0.6787 0.14251 0.94622 0.0
C775 C 0.67458 0.18364 0.94664 0.0
C776 C 0.64936 0.11776 0.94562 0.0
C777 C 0.64075 0.19958 0.94572 0.0
C778 C 0.6116 0.17523 0.94509 0.0
C779 C 0.58611 0.10953 0.94585 0.0
C780 C 0.59019 0.06846 0.94672 0.0
C781 C 0.61549 0.13424 0.94535 0.0
C782 C 0.62406 0.05246 0.94633 0.0
C783 C 0.65325 0.07677 0.94578 0.0
H784 H 0.14104 0.71876 0.94358 0.0
H785 H 0.22381 0.63267 0.94467 0.0
H786 H 0.18116 0.57964 0.94319 0.0
H787 H 0.12016 0.55763 0.9438 0.0
H788 H 0.03754 0.64399 0.94363 0.0
H789 H 0.0803 0.69682 0.94241 0.0
C790 C 0.14987 0.68842 0.94329 0.0
C791 C 0.18572 0.67983 0.94431 0.0
C792 C 0.12513 0.65802 0.94271 0.0
C793 C 0.19649 0.64026 0.94392 0.0
C794 C 0.17205 0.60986 0.94313 0.0
C795 C 0.11143 0.58798 0.94328 0.0
C796 C 0.07554 0.59671 0.94388 0.0
C797 C 0.13626 0.61836 0.94284 0.0
C798 C 0.06488 0.63629 0.94322 0.0
C799 C 0.08938 0.66659 0.94257 0.0
H800 H 0.62 0.71856 0.85793 0.0
H801 H 0.53832 0.63195 0.8564 0.0
H802 H 0.58175 0.5792 0.85706 0.0
H803 H 0.64284 0.55776 0.85603 0.0
H804 H 0.72467 0.64419 0.85707 0.0
H805 H 0.68122 0.69687 0.85876 0.0
C806 C 0.6116 0.68815 0.85792 0.0
C807 C 0.57579 0.67934 0.85703 0.0
C808 C 0.63679 0.65791 0.85811 0.0
C809 C 0.56556 0.6397 0.85707 0.0
C810 C 0.59044 0.60948 0.85739 0.0
C811 C 0.65128 0.5881 0.85677 0.0
C812 C 0.68711 0.59694 0.85631 0.0
C813 C 0.62612 0.61824 0.85759 0.0
C814 C 0.69739 0.63645 0.85739 0.0
C815 C 0.6725 0.66662 0.8583 0.0
H816 H 0.11998 0.21596 0.85829 0.0
H817 H 0.03708 0.13079 0.85806 0.0
H818 H 0.07971 0.07734 0.85949 0.0
H819 H 0.14058 0.05455 0.85874 0.0
H820 H 0.22349 0.13972 0.85827 0.0
H821 H 0.18084 0.19321 0.85931 0.0
C822 C 0.11113 0.18574 0.85875 0.0
C823 C 0.07521 0.17755 0.858 0.0
C824 C 0.13588 0.15503 0.85935 0.0
C825 C 0.06443 0.1381 0.85861 0.0
C826 C 0.08886 0.10745 0.85937 0.0
C827 C 0.14943 0.08479 0.85906 0.0
C828 C 0.18536 0.09295 0.85836 0.0
C829 C 0.12467 0.11552 0.85944 0.0
C830 C 0.19613 0.13242 0.85879 0.0
C831 C 0.17169 0.1631 0.85933 0.0
H832 H 0.39279 0.45979 0.60834 0.0
H833 H 0.47419 0.37229 0.60547 0.0
H834 H 0.43072 0.32004 0.60619 0.0
H835 H 0.36963 0.29942 0.60567 0.0
H836 H 0.28798 0.38677 0.60774 0.0
H837 H 0.3316 0.43885 0.60943 0.0
C838 C 0.40113 0.42928 0.60805 0.0
C839 C 0.43684 0.42007 0.60678 0.0
C840 C 0.37591 0.39936 0.60823 0.0
C841 C 0.44701 0.38032 0.60643 0.0
C842 C 0.42211 0.3504 0.60679 0.0
C843 C 0.36125 0.32982 0.60663 0.0
C844 C 0.32544 0.33912 0.60647 0.0
C845 C 0.38648 0.35961 0.60739 0.0
C846 C 0.31526 0.3787 0.60781 0.0
C847 C 0.34023 0.40852 0.60873 0.0
H848 H 0.86837 0.80804 0.60922 0.0
H849 H 0.78802 0.89711 0.60886 0.0
H850 H 0.83217 0.94849 0.61024 0.0
H851 H 0.89347 0.96825 0.60932 0.0
H852 H 0.974 0.87942 0.60873 0.0
H853 H 0.92988 0.82789 0.61011 0.0
C854 C 0.86042 0.83867 0.60965 0.0
C855 C 0.82479 0.84862 0.60886 0.0
C856 C 0.88604 0.86815 0.61017 0.0
C857 C 0.81514 0.88852 0.60942 0.0
C858 C 0.84043 0.91796 0.61016 0.0
C859 C 0.9015 0.93764 0.60969 0.0
C860 C 0.93713 0.9278 0.60884 0.0
C861 C 0.87595 0.90815 0.61021 0.0
C862 C 0.94687 0.88792 0.60935 0.0
C863 C 0.9216 0.8584 0.61008 0.0
H864 H 0.39055 0.8068 0.6972 0.0
H865 H 0.47361 0.89176 0.69807 0.0
H866 H 0.43097 0.94537 0.69712 0.0
H867 H 0.37013 0.96806 0.69798 0.0
H868 H 0.28706 0.88309 0.6976 0.0
H869 H 0.32973 0.82956 0.6963 0.0
C870 C 0.39944 0.83703 0.69703 0.0
C871 C 0.43538 0.84515 0.69781 0.0
C872 C 0.37472 0.86773 0.69665 0.0
C873 C 0.44624 0.88456 0.69749 0.0
C874 C 0.42181 0.91526 0.697 0.0
C875 C 0.36125 0.93785 0.69746 0.0
C876 C 0.32529 0.92969 0.69799 0.0
C877 C 0.38598 0.90719 0.69688 0.0
C878 C 0.31444 0.89032 0.69723 0.0
C879 C 0.33889 0.85966 0.69654 0.0
H880 H 0.80825 0.39266 0.69615 0.0
H881 H 0.87704 0.49264 0.6964 0.0
H882 H 0.92738 0.44904 0.69534 0.0
H883 H 0.95251 0.3822 0.69633 0.0
H884 H 0.88378 0.28219 0.69594 0.0
H885 H 0.83343 0.32581 0.69493 0.0
C886 C 0.83422 0.40492 0.69576 0.0
C887 C 0.83862 0.44598 0.69648 0.0
C888 C 0.86339 0.37955 0.69523 0.0
C889 C 0.87263 0.46121 0.69595 0.0
C890 C 0.90161 0.43625 0.69537 0.0
C891 C 0.92656 0.36994 0.69581 0.0
C892 C 0.92217 0.32886 0.69633 0.0
C893 C 0.8974 0.39531 0.69531 0.0
C894 C 0.88817 0.31364 0.69564 0.0
C895 C 0.85919 0.33861 0.69509 0.0
H896 H 0.55827 0.62931 0.44593 0.0
H897 H 0.62563 0.52833 0.45082 0.0
H898 H 0.67659 0.5703 0.44945 0.0
H899 H 0.70231 0.63632 0.44907 0.0
H900 H 0.63531 0.73763 0.44436 0.0
H901 H 0.58449 0.69512 0.44329 0.0
C902 C 0.5841 0.61648 0.44648 0.0
C903 C 0.58796 0.57576 0.44866 0.0
C904 C 0.61361 0.64093 0.44582 0.0
C905 C 0.62173 0.55964 0.44932 0.0
C906 C 0.65103 0.58363 0.44854 0.0
C907 C 0.67667 0.64906 0.44758 0.0
C908 C 0.67276 0.69015 0.44693 0.0
C909 C 0.64733 0.62443 0.44713 0.0
C910 C 0.63922 0.7061 0.44499 0.0
C911 C 0.61 0.68179 0.44441 0.0
H912 H 0.05832 0.13431 0.4488 0.0
H913 H 0.12535 0.03284 0.44462 0.0
H914 H 0.1762 0.07534 0.44352 0.0
H915 H 0.20239 0.14131 0.4459 0.0
H916 H 0.13493 0.24241 0.45025 0.0
H917 H 0.08402 0.20034 0.44901 0.0
C918 C 0.08398 0.12151 0.44743 0.0
C919 C 0.08787 0.08039 0.44692 0.0
C920 C 0.11333 0.14614 0.44696 0.0
C921 C 0.12145 0.06439 0.44513 0.0
C922 C 0.15068 0.0887 0.44453 0.0
C923 C 0.17656 0.15414 0.44637 0.0
C924 C 0.17267 0.19496 0.44833 0.0
C925 C 0.14706 0.12962 0.44577 0.0
C926 C 0.13887 0.21106 0.4489 0.0
C927 C 0.10959 0.187 0.44819 0.0
H928 H 0.70104 0.12784 0.35597 0.0
H929 H 0.6345 0.02593 0.35659 0.0
H930 H 0.58321 0.06809 0.35751 0.0
H931 H 0.55673 0.13401 0.35582 0.0
H932 H 0.6233 0.2359 0.35509 0.0
H933 H 0.67455 0.19388 0.35666 0.0
C934 C 0.67535 0.11489 0.35654 0.0
C935 C 0.67174 0.07379 0.35604 0.0
C936 C 0.64571 0.13936 0.35692 0.0
C937 C 0.63816 0.05751 0.35681 0.0
C938 C 0.60868 0.0816 0.35732 0.0
C939 C 0.58241 0.14701 0.35622 0.0
C940 C 0.58603 0.18802 0.35515 0.0
C941 C 0.61205 0.1226 0.35701 0.0
C942 C 0.61961 0.20437 0.35573 0.0
C943 C 0.64908 0.18035 0.35663 0.0
H944 H 0.14492 0.56487 0.35849 0.0
H945 H 0.22535 0.65274 0.35572 0.0
H946 H 0.1814 0.70482 0.35705 0.0
H947 H 0.12011 0.72514 0.35676 0.0
H948 H 0.03948 0.63731 0.35851 0.0
H949 H 0.08365 0.58543 0.35997 0.0
C950 C 0.15295 0.59541 0.35836 0.0
C951 C 0.18848 0.60484 0.3569 0.0
C952 C 0.12748 0.62519 0.35885 0.0
C953 C 0.19829 0.6446 0.3568 0.0
C954 C 0.17312 0.67441 0.35751 0.0
C955 C 0.11209 0.69469 0.35763 0.0
C956 C 0.07642 0.68515 0.35741 0.0
C957 C 0.13762 0.66501 0.35819 0.0
C958 C 0.06666 0.64552 0.35863 0.0
C959 C 0.09194 0.61582 0.3594 0.0
H960 H 0.53289 0.9759 0.05329 0.0
H961 H 0.45316 0.06385 0.04666 0.0
H962 H 0.45959 0.05634 1.02102 0.0
H963 H 0.48779 0.02501 1.00057 0.0
H964 H 0.56763 0.93717 1.00717 0.0
H965 H 0.5613 0.94477 0.03281 0.0
C966 C 0.51675 0.99343 0.04628 0.0
C967 C 0.49241 0.0204 0.05199 0.0
C968 C 0.52075 0.98912 0.03154 0.0
C969 C 0.47199 0.04285 0.04264 0.0
C970 C 0.47572 0.0386 0.02796 0.0
C971 C 0.50398 1.00751 1.00757 0.0
C972 C 0.52827 0.98049 1.00185 0.0
C973 C 0.50006 0.0119 1.0223 0.0
C974 C 0.54883 0.95819 1.01119 0.0
C975 C 0.54514 0.96248 1.02588 0.0
H976 H 0.73248 0.28889 0.0525 0.0
H977 H 0.807 0.19465 0.04706 0.0
H978 H 0.80118 0.2002 1.02134 0.0
H979 H 0.77489 0.23148 1.0005 0.0
H980 H 0.70041 0.32578 1.00588 0.0
H981 H 0.70616 0.32021 0.03162 0.0
C982 C 0.74763 0.26955 0.04573 0.0
C983 C 0.77029 0.24135 0.05181 0.0
C984 C 0.74399 0.27277 0.03095 0.0
C985 C 0.78947 0.21661 0.04276 0.0
C986 C 0.78607 0.21974 0.02804 0.0
C987 C 0.75973 0.25084 1.00725 0.0
C988 C 0.7371 0.27904 1.00116 0.0
C989 C 0.76334 0.24762 1.02203 0.0
C990 C 0.71791 0.3038 1.01019 0.0
C991 C 0.72127 0.30066 1.02493 0.0
H992 H 0.52481 0.28577 0.2494 0.0
H993 H 0.44987 0.19299 0.2554 0.0
H994 H 0.4558 0.19966 0.28108 0.0
H995 H 0.48226 0.23149 0.30173 0.0
H996 H 0.55737 0.32411 0.29582 0.0
H997 H 0.55147 0.31752 0.27012 0.0
C998 C 0.50959 0.26701 0.25628 0.0
C999 C 0.48676 0.23892 0.25038 0.0
C1000 C 0.51332 0.27083 0.27105 0.0
C1001 C 0.46753 0.21487 0.25957 0.0
C1002 C 0.47098 0.21864 0.27427 0.0
C1003 C 0.49751 0.25028 0.29487 0.0
C1004 C 0.52034 0.27832 0.3008 0.0
C1005 C 0.49385 0.24643 0.28012 0.0
C1006 C 0.5397 0.30228 0.29163 0.0
C1007 C 0.53626 0.29856 0.27691 0.0
H1008 H 0.7312 0.98169 0.25003 0.0
H1009 H 0.80954 0.07051 0.2566 0.0
H1010 H 0.80308 0.06329 0.28225 0.0
H1011 H 0.77535 0.03183 0.30271 0.0
H1012 H 0.69675 0.94329 0.29614 0.0
H1013 H 0.70306 0.95068 0.2705 0.0
C1014 C 0.74704 0.99948 0.25703 0.0
C1015 C 0.77101 0.02658 0.2513 0.0
C1016 C 0.74299 0.99536 0.27176 0.0
C1017 C 0.791 0.04941 0.26063 0.0
C1018 C 0.78725 0.04531 0.27532 0.0
C1019 C 0.75943 0.01412 0.29572 0.0
C1020 C 0.73552 0.98694 0.30145 0.0
C1021 C 0.76331 0.01843 0.28099 0.0
C1022 C 0.71526 0.96443 0.29211 0.0
C1023 C 0.71895 0.96859 0.27743 0.0
H1024 H 0.27359 0.73579 0.99984 0.0
H1025 H 0.19294 0.82291 1.00606 0.0
H1026 H 0.19972 0.81684 0.03172 0.0
H1027 H 0.2289 0.78753 0.05234 0.0
H1028 H 0.30939 0.70022 0.04618 0.0
H1029 H 0.30238 0.70594 1.0205 0.0
C1030 C 0.2573 0.75342 1.00677 0.0
C1031 C 0.23268 0.77983 1.00092 0.0
C1032 C 0.26148 0.74993 1.02153 0.0
C1033 C 0.21199 0.80233 1.01017 0.0
C1034 C 0.21595 0.79893 1.02488 0.0
C1035 C 0.2451 0.76976 0.04542 0.0
C1036 C 0.26984 0.74353 0.05129 0.0
C1037 C 0.24073 0.773 0.03067 0.0
C1038 C 0.29026 0.72069 0.04205 0.0
C1039 C 0.2862 0.72392 0.02734 0.0
H1040 H 0.53011 0.78291 0.75071 0.0
H1041 H 0.44309 0.70511 0.75724 0.0
H1042 H 0.44991 0.71202 0.78289 0.0
H1043 H 0.48068 0.73981 0.80338 0.0
H1044 H 0.56766 0.81763 0.7968 0.0
H1045 H 0.5608 0.8107 0.77116 0.0
C1046 C 0.51245 0.76747 0.75769 0.0
C1047 C 0.48598 0.74351 0.75195 0.0
C1048 C 0.51666 0.77141 0.77242 0.0
C1049 C 0.46358 0.72378 0.76128 0.0
C1050 C 0.46755 0.72767 0.77597 0.0
C1051 C 0.49831 0.75523 0.79639 0.0
C1052 C 0.5248 0.77921 0.80211 0.0
C1053 C 0.49407 0.7513 0.78165 0.0
C1054 C 0.54716 0.79896 0.79277 0.0
C1055 C 0.54317 0.79506 0.77809 0.0
H1056 H 0.23039 0.98993 0.75105 0.0
H1057 H 0.31721 0.06791 0.75776 0.0
H1058 H 0.31041 0.06066 0.7834 0.0
H1059 H 0.27962 0.0326 0.80386 0.0
H1060 H 0.19292 0.95448 0.79705 0.0
H1061 H 0.19983 0.96172 0.77144 0.0
C1062 C 0.24801 1.00535 0.75807 0.0
C1063 C 0.27441 0.02948 0.75238 0.0
C1064 C 0.24382 1.00119 0.7728 0.0
C1065 C 0.29678 0.04912 0.76176 0.0
C1066 C 0.29281 0.04504 0.77645 0.0
C1067 C 0.26205 0.01719 0.79682 0.0
C1068 C 0.23561 0.99305 0.80248 0.0
C1069 C 0.26634 0.02128 0.78208 0.0
C1070 C 0.21338 0.97328 0.79308 0.0
C1071 C 0.21739 0.97736 0.77841 0.0
H1072 H 0.48093 0.53568 0.50124 0.0
H1073 H 0.56442 0.45166 0.50669 0.0
H1074 H 0.55909 0.4578 0.53241 0.0
H1075 H 0.53027 0.48612 0.55325 0.0
H1076 H 0.44709 0.57057 0.54788 0.0
H1077 H 0.45272 0.56489 0.52213 0.0
C1078 C 0.49813 0.51873 0.50801 0.0
C1079 C 0.5231 0.49313 0.50195 0.0
C1080 C 0.49482 0.52231 0.5228 0.0
C1081 C 0.54506 0.47158 0.51099 0.0
C1082 C 0.54193 0.47502 0.52571 0.0
C1083 C 0.51319 0.50328 0.5465 0.0
C1084 C 0.48807 0.52864 0.55258 0.0
C1085 C 0.51677 0.50009 0.53172 0.0
C1086 C 0.46653 0.55078 0.54356 0.0
C1087 C 0.46979 0.54756 0.52882 0.0
H1088 H 0.73426 0.79522 0.55367 0.0
H1089 H 0.80824 0.70069 0.5477 0.0
H1090 H 0.80146 0.70637 0.52203 0.0
H1091 H 0.77425 0.73757 0.50136 0.0
H1092 H 0.70034 0.83218 0.50726 0.0
H1093 H 0.70726 0.82674 0.53295 0.0
C1094 C 0.7491 0.77588 0.5468 0.0
C1095 C 0.77185 0.74753 0.55271 0.0
C1096 C 0.74489 0.77914 0.53203 0.0
C1097 C 0.79065 0.72279 0.54353 0.0
C1098 C 0.78669 0.72597 0.52883 0.0
C1099 C 0.75947 0.75701 0.50822 0.0
C1100 C 0.73663 0.78524 0.50229 0.0
C1101 C 0.76377 0.75389 0.52297 0.0
C1102 C 0.71798 0.81016 0.51145 0.0
C1103 C 0.72201 0.8071 0.52616 0.0
H1104 H 0.78236 0.54045 0.80293 0.0
H1105 H 0.69528 0.46261 0.79656 0.0
H1106 H 0.70152 0.46979 0.7709 0.0
H1107 H 0.73207 0.49748 0.75034 0.0
H1108 H 0.81898 0.57553 0.75679 0.0
H1109 H 0.81247 0.56861 0.78243 0.0
C1110 C 0.76455 0.52507 0.79598 0.0
C1111 C 0.73829 0.50095 0.80177 0.0
C1112 C 0.76842 0.52918 0.78124 0.0
C1113 C 0.71563 0.48139 0.79248 0.0
C1114 C 0.71927 0.48541 0.77779 0.0
C1115 C 0.74976 0.51295 0.75731 0.0
C1116 C 0.77616 0.53694 0.75155 0.0
C1117 C 0.74569 0.50906 0.77206 0.0
C1118 C 0.79853 0.55685 0.76085 0.0
C1119 C 0.79477 0.55294 0.77553 0.0
H1120 H 0.28354 0.23967 0.50061 0.0
H1121 H 0.19476 0.31609 0.50664 0.0
H1122 H 0.20009 0.30829 0.53232 0.0
H1123 H 0.22997 0.28006 0.55296 0.0
H1124 H 0.31877 0.20366 0.54694 0.0
H1125 H 0.31345 0.21148 0.52126 0.0
C1126 C 0.26519 0.25462 0.50749 0.0
C1127 C 0.23864 0.27846 0.5016 0.0
C1128 C 0.26854 0.25015 0.52224 0.0
C1129 C 0.21534 0.29756 0.5108 0.0
C1130 C 0.21845 0.29314 0.5255 0.0
C1131 C 0.24833 0.2651 0.54609 0.0
C1132 C 0.27487 0.24127 0.55198 0.0
C1133 C 0.24499 0.26959 0.53133 0.0
C1134 C 0.29819 0.2222 0.54279 0.0
C1135 C 0.29509 0.22662 0.52808 0.0
H1136 H 0.28109 0.54336 0.30261 0.0
H1137 H 0.20278 0.45437 0.29631 0.0
H1138 H 0.20964 0.4606 0.27063 0.0
H1139 H 0.23778 0.4913 0.25004 0.0
H1140 H 0.31627 0.58005 0.25643 0.0
H1141 H 0.30953 0.57357 0.28208 0.0
C1142 C 0.26533 0.52531 0.29567 0.0
C1143 C 0.24125 0.49846 0.30149 0.0
C1144 C 0.26961 0.52886 0.28092 0.0
C1145 C 0.22139 0.47531 0.29221 0.0
C1146 C 0.22537 0.47883 0.27751 0.0
C1147 C 0.25359 0.50922 0.25699 0.0
C1148 C 0.27761 0.5362 0.2512 0.0
C1149 C 0.24944 0.50547 0.27175 0.0
C1150 C 0.29769 0.55905 0.2605 0.0
C1151 C 0.29375 0.55541 0.27519 0.0
H1152 H 0.98231 0.03159 0.50116 0.0
H1153 H 0.0606 0.94189 0.50753 0.0
H1154 H 0.0536 0.94824 0.5332 0.0
H1155 H 0.02559 0.97947 0.55377 0.0
H1156 H 0.94697 0.0688 0.54735 0.0
H1157 H 0.95363 0.06201 0.5217 0.0
C1158 C 0.99803 0.01343 0.50812 0.0
C1159 C 0.02219 0.98637 0.50232 0.0
C1160 C 0.99365 0.01702 0.52287 0.0
C1161 C 0.04195 0.96299 0.51161 0.0
C1162 C 0.03789 0.96659 0.52631 0.0
C1163 C 0.00973 0.99745 0.5468 0.0
C1164 C 0.98574 0.02472 0.55259 0.0
C1165 C 0.01382 0.9935 0.53205 0.0
C1166 C 0.96553 0.04757 0.54329 0.0
C1167 C 0.96943 0.04376 0.52859 0.0
H1168 H 0.0275 0.28016 0.75008 0.0
H1169 H 0.94537 0.19624 0.75721 0.0
H1170 H 0.95315 0.2033 0.78281 0.0
H1171 H 0.98318 0.23324 0.80312 0.0
H1172 H 0.06536 0.31706 0.79593 0.0
H1173 H 0.05774 0.30972 0.77035 0.0
C1174 C 0.01111 0.26341 0.75719 0.0
C1175 C 0.9857 0.23772 0.75162 0.0
C1176 C 0.0159 0.26743 0.7719 0.0
C1177 C 0.96501 0.21626 0.76111 0.0
C1178 C 0.96952 0.22024 0.77577 0.0
C1179 C 0.99962 0.24987 0.796 0.0
C1180 C 0.02494 0.27571 0.80155 0.0
C1181 C 0.99493 0.24568 0.78128 0.0
C1182 C 0.04578 0.29694 0.79205 0.0
C1183 C 0.04134 0.29282 0.77739 0.0
H1184 H 0.03248 0.77852 0.25035 0.0
H1185 H 0.94511 0.70153 0.2573 0.0
H1186 H 0.95102 0.71075 0.28289 0.0
H1187 H 0.98097 0.7404 0.30322 0.0
H1188 H 0.06836 0.8174 0.2963 0.0
H1189 H 0.0625 0.80813 0.2707 0.0
C1190 C 0.01456 0.76375 0.25742 0.0
C1191 C 0.98824 0.73934 0.2518 0.0
C1192 C 0.01825 0.76905 0.27213 0.0
C1193 C 0.96551 0.72049 0.26123 0.0
C1194 C 0.96894 0.72572 0.27589 0.0
C1195 C 0.99891 0.75517 0.29616 0.0
C1196 C 0.0252 0.77961 0.30178 0.0
C1197 C 0.99526 0.74985 0.28145 0.0
C1198 C 0.04797 0.79842 0.29236 0.0
C1199 C 0.04456 0.79317 0.2777 0.0
H1200 H 0.98722 0.54229 0.99924 0.0
H1201 H 0.06077 0.44725 1.00497 0.0
H1202 H 0.05442 0.45294 0.03065 0.0
H1203 H 0.02768 0.48424 0.05141 0.0
H1204 H 0.95414 0.57932 0.04579 0.0
H1205 H 0.96069 0.57396 1.02007 0.0
C1206 C 1.00206 0.52285 1.00606 0.0
C1207 C 0.02457 0.49434 1.00007 0.0
C1208 C 0.99809 0.52611 1.02085 0.0
C1209 C 0.04337 0.46947 1.00919 0.0
C1210 C 0.03966 0.47266 1.02391 0.0
C1211 C 0.0129 0.50382 0.04461 0.0
C1212 C 0.99027 0.53214 0.05063 0.0
C1213 C 0.01698 0.50072 0.02984 0.0
C1214 C 0.97162 0.55722 0.04153 0.0
C1215 C 0.97544 0.5542 0.02681 0.0
H1216 H 0.55888 0.14542 0.11007 0.0
H1217 H 0.60972 0.03214 0.11231 0.0
H1218 H 0.66613 0.0645 0.11468 0.0
H1219 H 0.70118 0.12445 0.1125 0.0
H1220 H 0.65055 0.2377 0.10981 0.0
H1221 H 0.59368 0.20588 0.11151 0.0
C1222 C 0.58226 0.12778 0.11131 0.0
C1223 C 0.58021 0.08639 0.11074 0.0
C1224 C 0.61457 0.14659 0.11249 0.0
C1225 C 0.6106 0.06398 0.11264 0.0
C1226 C 0.64287 0.08249 0.11391 0.0
C1227 C 0.67769 0.14225 0.11255 0.0
C1228 C 0.67999 0.18333 0.11079 0.0
C1229 C 0.64522 0.1237 0.11329 0.0
C1230 C 0.64946 0.20608 0.11113 0.0
C1231 C 0.61695 0.18783 0.11198 0.0
H1232 H 0.55936 0.12053 0.19108 0.0
H1233 H 0.60636 0.23555 0.1918 0.0
H1234 H 0.66413 0.20536 0.19009 0.0
H1235 H 0.70098 0.14628 0.192 0.0
H1236 H 0.65398 0.03125 0.19169 0.0
H1237 H 0.59634 0.06148 0.1894 0.0
C1238 C 0.58223 0.13905 0.19061 0.0
C1239 C 0.57864 0.18023 0.19182 0.0
C1240 C 0.61528 0.12146 0.18983 0.0
C1241 C 0.60841 0.20384 0.19094 0.0
C1242 C 0.64145 0.18655 0.19007 0.0
C1243 C 0.67815 0.12777 0.19118 0.0
C1244 C 0.68166 0.08656 0.19226 0.0
C1245 C 0.64518 0.14539 0.19006 0.0
C1246 C 0.65197 0.06297 0.19093 0.0
C1247 C 0.61901 0.08029 0.18972 0.0
H1248 H 0.40859 0.95719 0.94413 0.0
H1249 H 0.46995 0.85085 0.94216 0.0
H1250 H 0.4174 0.81152 0.93994 0.0
H1251 H 0.35372 0.8064 0.94201 0.0
H1252 H 0.29237 0.91265 0.94491 0.0
H1253 H 0.34466 0.95248 0.94312 0.0
C1254 C 0.41043 0.92555 0.94283 0.0
C1255 C 0.44312 0.90704 0.94348 0.0
C1256 C 0.37991 0.90279 0.94193 0.0
C1257 C 0.44504 0.86587 0.94187 0.0
C1258 C 0.41497 0.84324 0.94063 0.0
C1259 C 0.35176 0.83824 0.94192 0.0
C1260 C 0.31918 0.85636 0.94381 0.0
C1261 C 0.38217 0.86121 0.9412 0.0
C1262 C 0.31717 0.89778 0.94369 0.0
C1263 C 0.34711 0.92072 0.94267 0.0
H1264 H 0.40643 0.81015 0.86051 0.0
H1265 H 0.47047 0.91395 0.85956 0.0
H1266 H 0.41911 0.95577 0.86158 0.0
H1267 H 0.35536 0.96335 0.86029 0.0
H1268 H 0.29131 0.85952 0.86029 0.0
H1269 H 0.34276 0.81778 0.86218 0.0
C1270 C 0.40916 0.84185 0.8611 0.0
C1271 C 0.44226 0.85877 0.85972 0.0
C1272 C 0.37927 0.86602 0.86192 0.0
C1273 C 0.44527 0.90004 0.86043 0.0
C1274 C 0.41585 0.92411 0.86156 0.0
C1275 C 0.35267 0.93167 0.86106 0.0
C1276 C 0.31953 0.91469 0.85999 0.0
C1277 C 0.38259 0.90754 0.86181 0.0
C1278 C 0.31655 0.87346 0.86092 0.0
C1279 C 0.34601 0.84944 0.86198 0.0
H1280 H 0.70128 0.62455 0.61038 0.0
H1281 H 0.65134 0.73847 0.61121 0.0
H1282 H 0.59446 0.70684 0.61307 0.0
H1283 H 0.55889 0.647 0.61133 0.0
H1284 H 0.60877 0.53308 0.61036 0.0
H1285 H 0.66579 0.56456 0.61191 0.0
C1286 C 0.67798 0.64253 0.61119 0.0
C1287 C 0.68055 0.68389 0.61044 0.0
C1288 C 0.64538 0.6241 0.61213 0.0
C1289 C 0.65016 0.70667 0.61173 0.0
C1290 C 0.6176 0.68855 0.6127 0.0
C1291 C 0.58222 0.62898 0.61169 0.0
C1292 C 0.57957 0.58769 0.61052 0.0
C1293 C 0.61487 0.64732 0.61243 0.0
C1294 C 0.61002 0.56482 0.61123 0.0
C1295 C 0.64265 0.58286 0.61201 0.0
H1296 H 0.60298 0.71259 0.69248 0.0
H1297 H 0.54089 0.6076 0.6956 0.0
H1298 H 0.59273 0.56669 0.69335 0.0
H1299 H 0.65666 0.56061 0.69407 0.0
H1300 H 0.71883 0.66568 0.69186 0.0
H1301 H 0.66657 0.70611 0.68993 0.0
C1302 C 0.60075 0.6808 0.69231 0.0
C1303 C 0.56812 0.66332 0.69441 0.0
C1304 C 0.63095 0.65718 0.69133 0.0
C1305 C 0.56576 0.62195 0.6942 0.0
C1306 C 0.59545 0.59839 0.69294 0.0
C1307 C 0.65873 0.59221 0.69276 0.0
C1308 C 0.69159 0.61004 0.69327 0.0
C1309 C 0.62837 0.61562 0.69203 0.0
C1310 C 0.6938 0.65117 0.69167 0.0
C1311 C 0.66388 0.67444 0.6906 0.0
H1312 H 0.40803 0.46017 0.4433 0.0
H1313 H 0.4697 0.35403 0.44494 0.0
H1314 H 0.41756 0.31411 0.44244 0.0
H1315 H 0.35375 0.30914 0.44369 0.0
H1316 H 0.29203 0.41531 0.44347 0.0
H1317 H 0.34436 0.45507 0.44124 0.0
C1318 C 0.41006 0.42837 0.44272 0.0
C1319 C 0.44259 0.41014 0.4445 0.0
C1320 C 0.37975 0.4054 0.4417 0.0
C1321 C 0.44484 0.36881 0.44379 0.0
C1322 C 0.41501 0.34588 0.44239 0.0
C1323 C 0.35178 0.34087 0.44274 0.0
C1324 C 0.31915 0.35924 0.44391 0.0
C1325 C 0.38217 0.36377 0.44192 0.0
C1326 C 0.31696 0.40048 0.44276 0.0
C1327 C 0.3469 0.4233 0.44153 0.0
H1328 H 0.45247 0.40133 0.36025 0.0
H1329 H 0.40361 0.28732 0.36002 0.0
H1330 H 0.34641 0.31869 0.36227 0.0
H1331 H 0.3104 0.37858 0.36065 0.0
H1332 H 0.35941 0.49256 0.36052 0.0
H1333 H 0.4166 0.4611 0.36229 0.0
C1334 C 0.42933 0.38329 0.36096 0.0
C1335 C 0.43218 0.34206 0.35972 0.0
C1336 C 0.39662 0.40156 0.36205 0.0
C1337 C 0.4021 0.31906 0.36091 0.0
C1338 C 0.36939 0.33703 0.36208 0.0
C1339 C 0.33358 0.39659 0.36126 0.0
C1340 C 0.33072 0.43788 0.3602 0.0
C1341 C 0.36632 0.37827 0.3621 0.0
C1342 C 0.36089 0.4608 0.36126 0.0
C1343 C 0.3936 0.44278 0.36218 0.0
H1344 H 0.10675 0.05541 0.61026 0.0
H1345 H 0.04221 0.1595 0.61017 0.0
H1346 H 0.09348 0.20104 0.61203 0.0
H1347 H 0.15708 0.20834 0.61026 0.0
H1348 H 0.22156 0.10426 0.60927 0.0
H1349 H 0.17041 0.06267 0.61148 0.0
C1350 C 0.10391 0.0871 0.611 0.0
C1351 C 0.07071 0.10423 0.6099 0.0
C1352 C 0.1337 0.11109 0.61171 0.0
C1353 C 0.06752 0.14547 0.61081 0.0
C1354 C 0.09686 0.16937 0.61185 0.0
C1355 C 0.15994 0.17663 0.61089 0.0
C1356 C 0.19306 0.15951 0.60943 0.0
C1357 C 0.13019 0.15262 0.61179 0.0
C1358 C 0.1963 0.11826 0.61019 0.0
C1359 C 0.16702 0.09434 0.61143 0.0
H1360 H 0.15851 0.06332 0.69215 0.0
H1361 H 0.22038 0.16793 0.69723 0.0
H1362 H 0.16872 0.20905 0.6949 0.0
H1363 H 0.10477 0.21516 0.69491 0.0
H1364 H 0.04273 0.11046 0.69075 0.0
H1365 H 0.0951 0.07011 0.68896 0.0
C1366 C 0.16075 0.09511 0.69241 0.0
C1367 C 0.19326 0.11234 0.69508 0.0
C1368 C 0.13064 0.11884 0.69136 0.0
C1369 C 0.19562 0.15372 0.6954 0.0
C1370 C 0.16602 0.1774 0.69408 0.0
C1371 C 0.10279 0.18369 0.69321 0.0
C1372 C 0.06989 0.16589 0.69311 0.0
C1373 C 0.13318 0.1603 0.69258 0.0
C1374 C 0.06778 0.12492 0.69101 0.0
C1375 C 0.09775 0.1017 0.69003 0.0
H1376 H 0.95046 0.87142 0.44274 0.0
H1377 H 0.90479 0.9876 0.44322 0.0
H1378 H 0.84672 0.95882 0.44134 0.0
H1379 H 0.80911 0.90065 0.44307 0.0
H1380 H 0.85481 0.78447 0.44301 0.0
H1381 H 0.91282 0.8133 0.44099 0.0
C1382 C 0.92783 0.89051 0.44218 0.0
C1383 C 0.9319 0.93162 0.44336 0.0
C1384 C 0.89458 0.87373 0.44131 0.0
C1385 C 0.9024 0.95594 0.44238 0.0
C1386 C 0.86917 0.93945 0.44141 0.0
C1387 C 0.83173 0.88157 0.44237 0.0
C1388 C 0.82768 0.84043 0.44344 0.0
C1389 C 0.86495 0.89838 0.44141 0.0
C1390 C 0.85717 0.81615 0.44227 0.0
C1391 C 0.89036 0.83266 0.44121 0.0
H1392 H 0.90879 0.81235 0.36202 0.0
H1393 H 0.96934 0.91812 0.3575 0.0
H1394 H 0.91702 0.9583 0.35974 0.0
H1395 H 0.85312 0.963 0.35916 0.0
H1396 H 0.79244 0.85702 0.36229 0.0
H1397 H 0.84531 0.81771 0.36472 0.0
C1398 C 0.91058 0.84419 0.36189 0.0
C1399 C 0.9428 0.86212 0.35937 0.0
C1400 C 0.88015 0.86725 0.3628 0.0
C1401 C 0.94472 0.9035 0.35921 0.0
C1402 C 0.91478 0.92659 0.36047 0.0
C1403 C 0.85153 0.93147 0.36079 0.0
C1404 C 0.81903 0.91291 0.36039 0.0
C1405 C 0.88217 0.90877 0.3617 0.0
C1406 C 0.81729 0.87194 0.36241 0.0
C1407 C 0.84751 0.84937 0.36375 0.0
H1408 H 0.2023 0.62264 0.10954 0.0
H1409 H 0.15303 0.73682 0.11176 0.0
H1410 H 0.09616 0.7055 0.11398 0.0
H1411 H 0.06029 0.64624 0.1117 0.0
H1412 H 0.10932 0.53208 0.10896 0.0
H1413 H 0.16661 0.56284 0.11081 0.0
C1414 C 0.17916 0.6407 0.11074 0.0
C1415 C 0.18182 0.68205 0.11021 0.0
C1416 C 0.14657 0.62249 0.11182 0.0
C1417 C 0.15171 0.705 0.11206 0.0
C1418 C 0.11917 0.68709 0.11324 0.0
C1419 C 0.08351 0.628 0.11176 0.0
C1420 C 0.08063 0.58698 0.10994 0.0
C1421 C 0.11624 0.64594 0.11258 0.0
C1422 C 0.11084 0.56368 0.11031 0.0
C1423 C 0.1436 0.58131 0.11125 0.0
H1424 H 0.10231 0.70799 0.19173 0.0
H1425 H 0.04261 0.60121 0.19466 0.0
H1426 H 0.09528 0.5618 0.19196 0.0
H1427 H 0.15916 0.5577 0.19279 0.0
H1428 H 0.21902 0.66457 0.19116 0.0
H1429 H 0.16591 0.70353 0.18907 0.0
C1430 C 0.1008 0.67614 0.19138 0.0
C1431 C 0.06874 0.65759 0.19361 0.0
C1432 C 0.13143 0.65349 0.19025 0.0
C1433 C 0.06714 0.61623 0.19318 0.0
C1434 C 0.09727 0.59359 0.19166 0.0
C1435 C 0.16054 0.58939 0.19156 0.0
C1436 C 0.19289 0.60821 0.19234 0.0
C1437 C 0.12974 0.61186 0.1908 0.0
C1438 C 0.19431 0.64939 0.1908 0.0
C1439 C 0.16394 0.67177 0.18964 0.0
H1440 H 0.80933 0.39692 0.94192 0.0
H1441 H 0.85765 0.28221 0.94343 0.0
H1442 H 0.91512 0.31267 0.9417 0.0
H1443 H 0.9514 0.37217 0.94297 0.0
H1444 H 0.9029 0.48684 0.94164 0.0
H1445 H 0.84563 0.45606 0.93991 0.0
C1446 C 0.83242 0.37849 0.94163 0.0
C1447 C 0.82922 0.33731 0.94301 0.0
C1448 C 0.8653 0.39625 0.94081 0.0
C1449 C 0.85934 0.31388 0.94239 0.0
C1450 C 0.89222 0.33135 0.94152 0.0
C1451 C 0.92834 0.39048 0.94209 0.0
C1452 C 0.93142 0.43184 0.94266 0.0
C1453 C 0.8955 0.37255 0.94122 0.0
C1454 C 0.90132 0.45504 0.94126 0.0
C1455 C 0.86854 0.43742 0.94036 0.0
H1456 H 0.90453 0.30762 0.85854 0.0
H1457 H 0.96991 0.41027 0.86004 0.0
H1458 H 0.91894 0.45276 0.86201 0.0
H1459 H 0.85546 0.46162 0.85988 0.0
H1460 H 0.79014 0.35908 0.85727 0.0
H1461 H 0.84082 0.31621 0.85938 0.0
C1462 C 0.90758 0.33918 0.85967 0.0
C1463 C 0.94096 0.35568 0.85899 0.0
C1464 C 0.87795 0.36377 0.86042 0.0
C1465 C 0.94445 0.39676 0.86037 0.0
C1466 C 0.91528 0.4212 0.86147 0.0
C1467 C 0.8523 0.42994 0.86013 0.0
C1468 C 0.81909 0.41369 0.85825 0.0
C1469 C 0.88181 0.4052 0.86098 0.0
C1470 C 0.81548 0.37245 0.85852 0.0
C1471 C 0.8445 0.3478 0.8597 0.0
loop_
_geom_bond_atom_site_label_1
_geom_bond_atom_site_label_2
_geom_bond_distance
_geom_bond_site_symmetry_2
_ccdc_geom_bond_type
O0 Cd1 2.223 . S
O0 C8 1.315 . S
Cd1 O0 2.223 . S
Cd1 O4 2.297 1_545 S
Cd1 O5 2.439 1_545 S
Cd1 O11 2.240 . S
Cd2 O3 2.240 . S
Cd2 O10 2.223 . S
Cd2 O12 2.297 . S
Cd2 O13 2.439 . S
O3 Cd2 2.240 . S
O3 C8 1.279 . S
O4 Cd1 2.297 1_565 S
O4 C6 1.247 . S
O5 Cd1 2.439 1_565 S
O5 C6 1.208 . S
C6 O4 1.247 . S
C6 O5 1.208 . S
C7 O12 1.247 . S
C7 O13 1.208 . S
C8 O0 1.315 . S
C8 O3 1.279 . S
C9 O10 1.315 . S
C9 O11 1.279 . S
O10 Cd2 2.223 . S
O10 C9 1.315 . S
O11 Cd1 2.240 . S
O11 C9 1.279 . S
O12 Cd2 2.297 . S
O12 C7 1.247 . S
O13 Cd2 2.439 . S
O13 C7 1.208 . S
O14 Cd15 2.223 . S
O14 C22 1.315 . S
Cd15 O14 2.223 . S
Cd15 O18 2.297 . S
Cd15 O19 2.439 . S
Cd15 O25 2.240 . S
Cd16 O17 2.240 . S
Cd16 O24 2.223 . S
Cd16 O26 2.297 . S
Cd16 O27 2.439 . S
O17 Cd16 2.240 . S
O17 C22 1.279 . S
O18 Cd15 2.297 . S
O18 C20 1.247 . S
O19 Cd15 2.439 . S
O19 C20 1.208 . S
C20 O18 1.247 . S
C20 O19 1.208 . S
C21 O26 1.247 . S
C21 O27 1.208 . S
C22 O14 1.315 . S
C22 O17 1.279 . S
C23 O24 1.315 . S
C23 O25 1.279 . S
O24 Cd16 2.223 . S
O24 C23 1.315 . S
O25 Cd15 2.240 . S
O25 C23 1.279 . S
O26 Cd16 2.297 . S
O26 C21 1.247 . S
O27 Cd16 2.439 . S
O27 C21 1.208 . S
O28 Cd29 2.223 . S
O28 C36 1.315 . S
Cd29 O28 2.223 . S
Cd29 O32 2.297 . S
Cd29 O33 2.439 . S
Cd29 O39 2.240 . S
Cd30 O31 2.240 . S
Cd30 O38 2.223 . S
Cd30 O40 2.297 . S
Cd30 O41 2.439 . S
O31 Cd30 2.240 . S
O31 C36 1.279 . S
O32 Cd29 2.297 . S
O32 C34 1.247 . S
O33 Cd29 2.439 . S
O33 C34 1.208 . S
C34 O32 1.247 . S
C34 O33 1.208 . S
C35 O40 1.247 . S
C35 O41 1.208 . S
C36 O28 1.315 . S
C36 O31 1.279 . S
C37 O38 1.315 . S
C37 O39 1.279 . S
O38 Cd30 2.223 . S
O38 C37 1.315 . S
O39 Cd29 2.240 . S
O39 C37 1.279 . S
O40 Cd30 2.297 . S
O40 C35 1.247 . S
O41 Cd30 2.439 . S
O41 C35 1.208 . S
O42 Cd43 2.223 . S
O42 C50 1.315 . S
Cd43 O42 2.223 . S
Cd43 O46 2.297 1_545 S
Cd43 O47 2.439 1_545 S
Cd43 O53 2.240 . S
Cd44 O45 2.240 . S
Cd44 O52 2.223 . S
Cd44 O54 2.297 . S
Cd44 O55 2.439 . S
O45 Cd44 2.240 . S
O45 C50 1.279 . S
O46 Cd43 2.297 1_565 S
O46 C48 1.247 . S
O47 Cd43 2.439 1_565 S
O47 C48 1.208 . S
C48 O46 1.247 . S
C48 O47 1.208 . S
C49 O54 1.247 . S
C49 O55 1.208 . S
C50 O42 1.315 . S
C50 O45 1.279 . S
C51 O52 1.315 . S
C51 O53 1.279 . S
O52 Cd44 2.223 . S
O52 C51 1.315 . S
O53 Cd43 2.240 . S
O53 C51 1.279 . S
O54 Cd44 2.297 . S
O54 C49 1.247 . S
O55 Cd44 2.439 . S
O55 C49 1.208 . S
O56 Cd57 2.223 . S
O56 C64 1.315 . S
Cd57 O56 2.223 . S
Cd57 O60 2.297 1_565 S
Cd57 O61 2.439 1_565 S
Cd57 O67 2.240 . S
Cd58 O59 2.240 . S
Cd58 O66 2.223 . S
Cd58 O68 2.297 . S
Cd58 O69 2.439 . S
O59 Cd58 2.240 . S
O59 C64 1.279 . S
O60 Cd57 2.297 1_545 S
O60 C62 1.247 . S
O61 Cd57 2.439 1_545 S
O61 C62 1.208 . S
C62 O60 1.247 . S
C62 O61 1.208 . S
C63 O68 1.247 . S
C63 O69 1.208 . S
C64 O56 1.315 . S
C64 O59 1.279 . S
C65 O66 1.315 . S
C65 O67 1.279 . S
O66 Cd58 2.223 . S
O66 C65 1.315 . S
O67 Cd57 2.240 . S
O67 C65 1.279 . S
O68 Cd58 2.297 . S
O68 C63 1.247 . S
O69 Cd58 2.439 . S
O69 C63 1.208 . S
O70 Cd71 2.223 . S
O70 C78 1.315 . S
Cd71 O70 2.223 . S
Cd71 O74 2.297 . S
Cd71 O75 2.439 . S
Cd71 O81 2.240 . S
Cd72 O73 2.240 . S
Cd72 O80 2.223 . S
Cd72 O82 2.297 . S
Cd72 O83 2.439 . S
O73 Cd72 2.240 . S
O73 C78 1.279 . S
O74 Cd71 2.297 . S
O74 C76 1.247 . S
O75 Cd71 2.439 . S
O75 C76 1.208 . S
C76 O74 1.247 . S
C76 O75 1.208 . S
C77 O82 1.247 . S
C77 O83 1.208 . S
C78 O70 1.315 . S
C78 O73 1.279 . S
C79 O80 1.315 . S
C79 O81 1.279 . S
O80 Cd72 2.223 . S
O80 C79 1.315 . S
O81 Cd71 2.240 . S
O81 C79 1.279 . S
O82 Cd72 2.297 . S
O82 C77 1.247 . S
O83 Cd72 2.439 . S
O83 C77 1.208 . S
O84 Cd85 2.223 . S
O84 C92 1.315 . S
Cd85 O84 2.223 . S
Cd85 O88 2.297 . S
Cd85 O89 2.439 . S
Cd85 O95 2.240 . S
Cd86 O87 2.240 . S
Cd86 O94 2.223 . S
Cd86 O96 2.297 . S
Cd86 O97 2.439 . S
O87 Cd86 2.240 . S
O87 C92 1.279 . S
O88 Cd85 2.297 . S
O88 C90 1.247 . S
O89 Cd85 2.439 . S
O89 C90 1.208 . S
C90 O88 1.247 . S
C90 O89 1.208 . S
C91 O96 1.247 . S
C91 O97 1.208 . S
C92 O84 1.315 . S
C92 O87 1.279 . S
C93 O94 1.315 . S
C93 O95 1.279 . S
O94 Cd86 2.223 . S
O94 C93 1.315 . S
O95 Cd85 2.240 . S
O95 C93 1.279 . S
O96 Cd86 2.297 . S
O96 C91 1.247 . S
O97 Cd86 2.439 . S
O97 C91 1.208 . S
O98 Cd99 2.223 . S
O98 C106 1.315 . S
Cd99 O98 2.223 . S
Cd99 O102 2.297 1_565 S
Cd99 O103 2.439 1_565 S
Cd99 O109 2.240 . S
Cd100 O101 2.240 . S
Cd100 O108 2.223 . S
Cd100 O110 2.297 . S
Cd100 O111 2.439 . S
O101 Cd100 2.240 . S
O101 C106 1.279 . S
O102 Cd99 2.297 1_545 S
O102 C104 1.247 . S
O103 Cd99 2.439 1_545 S
O103 C104 1.208 . S
C104 O102 1.247 . S
C104 O103 1.208 . S
C105 O110 1.247 . S
C105 O111 1.208 . S
C106 O98 1.315 . S
C106 O101 1.279 . S
C107 O108 1.315 . S
C107 O109 1.279 . S
O108 Cd100 2.223 . S
O108 C107 1.315 . S
O109 Cd99 2.240 . S
O109 C107 1.279 . S
O110 Cd100 2.297 . S
O110 C105 1.247 . S
O111 Cd100 2.439 . S
O111 C105 1.208 . S
O112 Cd113 2.223 . S
O112 C120 1.315 . S
Cd113 O112 2.223 . S
Cd113 O116 2.297 . S
Cd113 O117 2.439 . S
Cd113 O123 2.240 . S
Cd114 O115 2.240 . S
Cd114 O122 2.223 . S
Cd114 O124 2.297 . S
Cd114 O125 2.439 . S
O115 Cd114 2.240 . S
O115 C120 1.279 . S
O116 Cd113 2.297 . S
O116 C118 1.247 . S
O117 Cd113 2.439 . S
O117 C118 1.208 . S
C118 O116 1.247 . S
C118 O117 1.208 . S
C119 O124 1.247 . S
C119 O125 1.208 . S
C120 O112 1.315 . S
C120 O115 1.279 . S
C121 O122 1.315 . S
C121 O123 1.279 . S
O122 Cd114 2.223 . S
O122 C121 1.315 . S
O123 Cd113 2.240 . S
O123 C121 1.279 . S
O124 Cd114 2.297 . S
O124 C119 1.247 . S
O125 Cd114 2.439 . S
O125 C119 1.208 . S
O126 Cd127 2.223 . S
O126 C134 1.315 . S
Cd127 O126 2.223 . S
Cd127 O130 2.297 . S
Cd127 O131 2.439 . S
Cd127 O137 2.240 . S
Cd128 O129 2.240 . S
Cd128 O136 2.223 . S
Cd128 O138 2.297 . S
Cd128 O139 2.439 . S
O129 Cd128 2.240 . S
O129 C134 1.279 . S
O130 Cd127 2.297 . S
O130 C132 1.247 . S
O131 Cd127 2.439 . S
O131 C132 1.208 . S
C132 O130 1.247 . S
C132 O131 1.208 . S
C133 O138 1.247 . S
C133 O139 1.208 . S
C134 O126 1.315 . S
C134 O129 1.279 . S
C135 O136 1.315 . S
C135 O137 1.279 . S
O136 Cd128 2.223 . S
O136 C135 1.315 . S
O137 Cd127 2.240 . S
O137 C135 1.279 . S
O138 Cd128 2.297 . S
O138 C133 1.247 . S
O139 Cd128 2.439 . S
O139 C133 1.208 . S
O140 Cd141 2.223 . S
O140 C148 1.315 . S
Cd141 O140 2.223 . S
Cd141 O144 2.297 . S
Cd141 O145 2.439 . S
Cd141 O151 2.240 . S
Cd142 O143 2.240 . S
Cd142 O150 2.223 . S
Cd142 O152 2.297 . S
Cd142 O153 2.439 . S
O143 Cd142 2.240 . S
O143 C148 1.279 . S
O144 Cd141 2.297 . S
O144 C146 1.247 . S
O145 Cd141 2.439 . S
O145 C146 1.208 . S
C146 O144 1.247 . S
C146 O145 1.208 . S
C147 O152 1.247 . S
C147 O153 1.208 . S
C148 O140 1.315 . S
C148 O143 1.279 . S
C149 O150 1.315 . S
C149 O151 1.279 . S
O150 Cd142 2.223 . S
O150 C149 1.315 . S
O151 Cd141 2.240 . S
O151 C149 1.279 . S
O152 Cd142 2.297 . S
O152 C147 1.247 . S
O153 Cd142 2.439 . S
O153 C147 1.208 . S
O154 Cd155 2.223 . S
O154 C162 1.315 . S
Cd155 O154 2.223 . S
Cd155 O158 2.297 . S
Cd155 O159 2.439 . S
Cd155 O165 2.240 . S
Cd156 O157 2.240 . S
Cd156 O164 2.223 . S
Cd156 O166 2.297 . S
Cd156 O167 2.439 . S
O157 Cd156 2.240 . S
O157 C162 1.279 . S
O158 Cd155 2.297 . S
O158 C160 1.247 . S
O159 Cd155 2.439 . S
O159 C160 1.208 . S
C160 O158 1.247 . S
C160 O159 1.208 . S
C161 O166 1.247 . S
C161 O167 1.208 . S
C162 O154 1.315 . S
C162 O157 1.279 . S
C163 O164 1.315 . S
C163 O165 1.279 . S
O164 Cd156 2.223 . S
O164 C163 1.315 . S
O165 Cd155 2.240 . S
O165 C163 1.279 . S
O166 Cd156 2.297 . S
O166 C161 1.247 . S
O167 Cd156 2.439 . S
O167 C161 1.208 . S
O168 Cd169 2.223 . S
O168 C176 1.315 . S
Cd169 O168 2.223 . S
Cd169 O172 2.297 . S
Cd169 O173 2.439 . S
Cd169 O179 2.240 . S
Cd170 O171 2.240 . S
Cd170 O178 2.223 . S
Cd170 O180 2.297 . S
Cd170 O181 2.439 . S
O171 Cd170 2.240 . S
O171 C176 1.279 . S
O172 Cd169 2.297 . S
O172 C174 1.247 . S
O173 Cd169 2.439 . S
O173 C174 1.208 . S
C174 O172 1.247 . S
C174 O173 1.208 . S
C175 O180 1.247 . S
C175 O181 1.208 . S
C176 O168 1.315 . S
C176 O171 1.279 . S
C177 O178 1.315 . S
C177 O179 1.279 . S
O178 Cd170 2.223 . S
O178 C177 1.315 . S
O179 Cd169 2.240 . S
O179 C177 1.279 . S
O180 Cd170 2.297 . S
O180 C175 1.247 . S
O181 Cd170 2.439 . S
O181 C175 1.208 . S
O182 Cd183 2.223 . S
O182 C190 1.315 . S
Cd183 O182 2.223 . S
Cd183 O186 2.297 . S
Cd183 O187 2.439 . S
Cd183 O193 2.240 . S
Cd184 O185 2.240 . S
Cd184 O192 2.223 . S
Cd184 O194 2.297 . S
Cd184 O195 2.439 . S
O185 Cd184 2.240 . S
O185 C190 1.279 . S
O186 Cd183 2.297 . S
O186 C188 1.247 . S
O187 Cd183 2.439 . S
O187 C188 1.208 . S
C188 O186 1.247 . S
C188 O187 1.208 . S
C189 O194 1.247 . S
C189 O195 1.208 . S
C190 O182 1.315 . S
C190 O185 1.279 . S
C191 O192 1.315 . S
C191 O193 1.279 . S
O192 Cd184 2.223 . S
O192 C191 1.315 . S
O193 Cd183 2.240 . S
O193 C191 1.279 . S
O194 Cd184 2.297 . S
O194 C189 1.247 . S
O195 Cd184 2.439 . S
O195 C189 1.208 . S
O196 Cd197 2.223 . S
O196 C204 1.315 . S
Cd197 O196 2.223 . S
Cd197 O200 2.297 . S
Cd197 O201 2.439 . S
Cd197 O207 2.240 . S
Cd198 O199 2.240 . S
Cd198 O206 2.223 . S
Cd198 O208 2.297 . S
Cd198 O209 2.439 . S
O199 Cd198 2.240 . S
O199 C204 1.279 . S
O200 Cd197 2.297 . S
O200 C202 1.247 . S
O201 Cd197 2.439 . S
O201 C202 1.208 . S
C202 O200 1.247 . S
C202 O201 1.208 . S
C203 O208 1.247 . S
C203 O209 1.208 . S
C204 O196 1.315 . S
C204 O199 1.279 . S
C205 O206 1.315 . S
C205 O207 1.279 . S
O206 Cd198 2.223 . S
O206 C205 1.315 . S
O207 Cd197 2.240 . S
O207 C205 1.279 . S
O208 Cd198 2.297 . S
O208 C203 1.247 . S
O209 Cd198 2.439 . S
O209 C203 1.208 . S
O210 Cd211 2.223 . S
O210 C218 1.315 . S
Cd211 O210 2.223 . S
Cd211 O214 2.297 . S
Cd211 O215 2.439 . S
Cd211 O221 2.240 . S
Cd212 O213 2.240 . S
Cd212 O220 2.223 . S
Cd212 O222 2.297 . S
Cd212 O223 2.439 . S
O213 Cd212 2.240 . S
O213 C218 1.279 . S
O214 Cd211 2.297 . S
O214 C216 1.247 . S
O215 Cd211 2.439 . S
O215 C216 1.208 . S
C216 O214 1.247 . S
C216 O215 1.208 . S
C217 O222 1.247 . S
C217 O223 1.208 . S
C218 O210 1.315 . S
C218 O213 1.279 . S
C219 O220 1.315 . S
C219 O221 1.279 . S
O220 Cd212 2.223 . S
O220 C219 1.315 . S
O221 Cd211 2.240 . S
O221 C219 1.279 . S
O222 Cd212 2.297 . S
O222 C217 1.247 . S
O223 Cd212 2.439 . S
O223 C217 1.208 . S
O224 Cd225 2.223 . S
O224 C232 1.315 . S
Cd225 O224 2.223 . S
Cd225 O228 2.297 1_545 S
Cd225 O229 2.439 1_545 S
Cd225 O235 2.240 1_655 S
Cd226 O227 2.240 . S
Cd226 O234 2.223 1_655 S
Cd226 O236 2.297 . S
Cd226 O237 2.439 . S
O227 Cd226 2.240 . S
O227 C232 1.279 . S
O228 Cd225 2.297 1_565 S
O228 C230 1.247 . S
O229 Cd225 2.439 1_565 S
O229 C230 1.208 . S
C230 O228 1.247 . S
C230 O229 1.208 . S
C231 O236 1.247 . S
C231 O237 1.208 . S
C232 O224 1.315 . S
C232 O227 1.279 . S
C233 O234 1.315 . S
C233 O235 1.279 . S
O234 Cd226 2.223 1_455 S
O234 C233 1.315 . S
O235 Cd225 2.240 1_455 S
O235 C233 1.279 . S
O236 Cd226 2.297 . S
O236 C231 1.247 . S
O237 Cd226 2.439 . S
O237 C231 1.208 . S
O238 Cd239 2.223 . S
O238 C246 1.315 . S
Cd239 O238 2.223 . S
Cd239 O242 2.297 . S
Cd239 O243 2.439 . S
Cd239 O249 2.240 . S
Cd240 O241 2.240 . S
Cd240 O248 2.223 . S
Cd240 O250 2.297 . S
Cd240 O251 2.439 . S
O241 Cd240 2.240 . S
O241 C246 1.279 . S
O242 Cd239 2.297 . S
O242 C244 1.247 . S
O243 Cd239 2.439 . S
O243 C244 1.208 . S
C244 O242 1.247 . S
C244 O243 1.208 . S
C245 O250 1.247 . S
C245 O251 1.208 . S
C246 O238 1.315 . S
C246 O241 1.279 . S
C247 O248 1.315 . S
C247 O249 1.279 . S
O248 Cd240 2.223 . S
O248 C247 1.315 . S
O249 Cd239 2.240 . S
O249 C247 1.279 . S
O250 Cd240 2.297 . S
O250 C245 1.247 . S
O251 Cd240 2.439 . S
O251 C245 1.208 . S
O252 Cd253 2.223 . S
O252 C260 1.315 . S
Cd253 O252 2.223 . S
Cd253 O256 2.297 . S
Cd253 O257 2.439 . S
Cd253 O263 2.240 1_655 S
Cd254 O255 2.240 . S
Cd254 O262 2.223 1_655 S
Cd254 O264 2.297 . S
Cd254 O265 2.439 . S
O255 Cd254 2.240 . S
O255 C260 1.279 . S
O256 Cd253 2.297 . S
O256 C258 1.247 . S
O257 Cd253 2.439 . S
O257 C258 1.208 . S
C258 O256 1.247 . S
C258 O257 1.208 . S
C259 O264 1.247 . S
C259 O265 1.208 . S
C260 O252 1.315 . S
C260 O255 1.279 . S
C261 O262 1.315 . S
C261 O263 1.279 . S
O262 Cd254 2.223 1_455 S
O262 C261 1.315 . S
O263 Cd253 2.240 1_455 S
O263 C261 1.279 . S
O264 Cd254 2.297 . S
O264 C259 1.247 . S
O265 Cd254 2.439 . S
O265 C259 1.208 . S
O266 Cd267 2.223 . S
O266 C274 1.315 . S
Cd267 O266 2.223 . S
Cd267 O270 2.297 1_545 S
Cd267 O271 2.439 1_545 S
Cd267 O277 2.240 . S
Cd268 O269 2.240 . S
Cd268 O276 2.223 . S
Cd268 O278 2.297 . S
Cd268 O279 2.439 . S
O269 Cd268 2.240 . S
O269 C274 1.279 . S
O270 Cd267 2.297 1_565 S
O270 C272 1.247 . S
O271 Cd267 2.439 1_565 S
O271 C272 1.208 . S
C272 O270 1.247 . S
C272 O271 1.208 . S
C273 O278 1.247 . S
C273 O279 1.208 . S
C274 O266 1.315 . S
C274 O269 1.279 . S
C275 O276 1.315 . S
C275 O277 1.279 . S
O276 Cd268 2.223 . S
O276 C275 1.315 . S
O277 Cd267 2.240 . S
O277 C275 1.279 . S
O278 Cd268 2.297 . S
O278 C273 1.247 . S
O279 Cd268 2.439 . S
O279 C273 1.208 . S
O280 Cd281 2.223 . S
O280 C288 1.315 . S
Cd281 O280 2.223 . S
Cd281 O284 2.297 1_565 S
Cd281 O285 2.439 1_565 S
Cd281 O291 2.240 1_455 S
Cd282 O283 2.240 . S
Cd282 O290 2.223 1_455 S
Cd282 O292 2.297 . S
Cd282 O293 2.439 . S
O283 Cd282 2.240 . S
O283 C288 1.279 . S
O284 Cd281 2.297 1_545 S
O284 C286 1.247 . S
O285 Cd281 2.439 1_545 S
O285 C286 1.208 . S
C286 O284 1.247 . S
C286 O285 1.208 . S
C287 O292 1.247 . S
C287 O293 1.208 . S
C288 O280 1.315 . S
C288 O283 1.279 . S
C289 O290 1.315 . S
C289 O291 1.279 . S
O290 Cd282 2.223 1_655 S
O290 C289 1.315 . S
O291 Cd281 2.240 1_655 S
O291 C289 1.279 . S
O292 Cd282 2.297 . S
O292 C287 1.247 . S
O293 Cd282 2.439 . S
O293 C287 1.208 . S
O294 Cd295 2.223 . S
O294 C302 1.315 . S
Cd295 O294 2.223 . S
Cd295 O298 2.297 . S
Cd295 O299 2.439 . S
Cd295 O305 2.240 . S
Cd296 O297 2.240 . S
Cd296 O304 2.223 . S
Cd296 O306 2.297 . S
Cd296 O307 2.439 . S
O297 Cd296 2.240 . S
O297 C302 1.279 . S
O298 Cd295 2.297 . S
O298 C300 1.247 . S
O299 Cd295 2.439 . S
O299 C300 1.208 . S
C300 O298 1.247 . S
C300 O299 1.208 . S
C301 O306 1.247 . S
C301 O307 1.208 . S
C302 O294 1.315 . S
C302 O297 1.279 . S
C303 O304 1.315 . S
C303 O305 1.279 . S
O304 Cd296 2.223 . S
O304 C303 1.315 . S
O305 Cd295 2.240 . S
O305 C303 1.279 . S
O306 Cd296 2.297 . S
O306 C301 1.247 . S
O307 Cd296 2.439 . S
O307 C301 1.208 . S
O308 Cd309 2.223 . S
O308 C316 1.315 . S
Cd309 O308 2.223 . S
Cd309 O312 2.297 . S
Cd309 O313 2.439 . S
Cd309 O319 2.240 1_455 S
Cd310 O311 2.240 . S
Cd310 O318 2.223 1_455 S
Cd310 O320 2.297 . S
Cd310 O321 2.439 . S
O311 Cd310 2.240 . S
O311 C316 1.279 . S
O312 Cd309 2.297 . S
O312 C314 1.247 . S
O313 Cd309 2.439 . S
O313 C314 1.208 . S
C314 O312 1.247 . S
C314 O313 1.208 . S
C315 O320 1.247 . S
C315 O321 1.208 . S
C316 O308 1.315 . S
C316 O311 1.279 . S
C317 O318 1.315 . S
C317 O319 1.279 . S
O318 Cd310 2.223 1_655 S
O318 C317 1.315 . S
O319 Cd309 2.240 1_655 S
O319 C317 1.279 . S
O320 Cd310 2.297 . S
O320 C315 1.247 . S
O321 Cd310 2.439 . S
O321 C315 1.208 . S
O322 Cd323 2.223 . S
O322 C330 1.315 . S
Cd323 O322 2.223 . S
Cd323 O326 2.297 1_565 S
Cd323 O327 2.439 1_565 S
Cd323 O333 2.240 . S
Cd324 O325 2.240 . S
Cd324 O332 2.223 . S
Cd324 O334 2.297 . S
Cd324 O335 2.439 . S
O325 Cd324 2.240 . S
O325 C330 1.279 . S
O326 Cd323 2.297 1_545 S
O326 C328 1.247 . S
O327 Cd323 2.439 1_545 S
O327 C328 1.208 . S
C328 O326 1.247 . S
C328 O327 1.208 . S
C329 O334 1.247 . S
C329 O335 1.208 . S
C330 O322 1.315 . S
C330 O325 1.279 . S
C331 O332 1.315 . S
C331 O333 1.279 . S
O332 Cd324 2.223 . S
O332 C331 1.315 . S
O333 Cd323 2.240 . S
O333 C331 1.279 . S
O334 Cd324 2.297 . S
O334 C329 1.247 . S
O335 Cd324 2.439 . S
O335 C329 1.208 . S
O336 Cd337 2.223 . S
O336 C344 1.315 . S
Cd337 O336 2.223 . S
Cd337 O340 2.297 . S
Cd337 O341 2.439 . S
Cd337 O347 2.240 1_655 S
Cd338 O339 2.240 . S
Cd338 O346 2.223 1_655 S
Cd338 O348 2.297 . S
Cd338 O349 2.439 . S
O339 Cd338 2.240 . S
O339 C344 1.279 . S
O340 Cd337 2.297 . S
O340 C342 1.247 . S
O341 Cd337 2.439 . S
O341 C342 1.208 . S
C342 O340 1.247 . S
C342 O341 1.208 . S
C343 O348 1.247 . S
C343 O349 1.208 . S
C344 O336 1.315 . S
C344 O339 1.279 . S
C345 O346 1.315 . S
C345 O347 1.279 . S
O346 Cd338 2.223 1_455 S
O346 C345 1.315 . S
O347 Cd337 2.240 1_455 S
O347 C345 1.279 . S
O348 Cd338 2.297 . S
O348 C343 1.247 . S
O349 Cd338 2.439 . S
O349 C343 1.208 . S
O350 Cd351 2.223 . S
O350 C358 1.315 . S
Cd351 O350 2.223 . S
Cd351 O354 2.297 . S
Cd351 O355 2.439 . S
Cd351 O361 2.240 . S
Cd352 O353 2.240 . S
Cd352 O360 2.223 . S
Cd352 O362 2.297 . S
Cd352 O363 2.439 . S
O353 Cd352 2.240 . S
O353 C358 1.279 . S
O354 Cd351 2.297 . S
O354 C356 1.247 . S
O355 Cd351 2.439 . S
O355 C356 1.208 . S
C356 O354 1.247 . S
C356 O355 1.208 . S
C357 O362 1.247 . S
C357 O363 1.208 . S
C358 O350 1.315 . S
C358 O353 1.279 . S
C359 O360 1.315 . S
C359 O361 1.279 . S
O360 Cd352 2.223 . S
O360 C359 1.315 . S
O361 Cd351 2.240 . S
O361 C359 1.279 . S
O362 Cd352 2.297 . S
O362 C357 1.247 . S
O363 Cd352 2.439 . S
O363 C357 1.208 . S
O364 Cd365 2.223 . S
O364 C372 1.315 . S
Cd365 O364 2.223 . S
Cd365 O368 2.297 . S
Cd365 O369 2.439 . S
Cd365 O375 2.240 1_655 S
Cd366 O367 2.240 . S
Cd366 O374 2.223 1_655 S
Cd366 O376 2.297 . S
Cd366 O377 2.439 . S
O367 Cd366 2.240 . S
O367 C372 1.279 . S
O368 Cd365 2.297 . S
O368 C370 1.247 . S
O369 Cd365 2.439 . S
O369 C370 1.208 . S
C370 O368 1.247 . S
C370 O369 1.208 . S
C371 O376 1.247 . S
C371 O377 1.208 . S
C372 O364 1.315 . S
C372 O367 1.279 . S
C373 O374 1.315 . S
C373 O375 1.279 . S
O374 Cd366 2.223 1_455 S
O374 C373 1.315 . S
O375 Cd365 2.240 1_455 S
O375 C373 1.279 . S
O376 Cd366 2.297 . S
O376 C371 1.247 . S
O377 Cd366 2.439 . S
O377 C371 1.208 . S
O378 Cd379 2.223 . S
O378 C386 1.315 . S
Cd379 O378 2.223 . S
Cd379 O382 2.297 . S
Cd379 O383 2.439 . S
Cd379 O389 2.240 . S
Cd380 O381 2.240 . S
Cd380 O388 2.223 . S
Cd380 O390 2.297 . S
Cd380 O391 2.439 . S
O381 Cd380 2.240 . S
O381 C386 1.279 . S
O382 Cd379 2.297 . S
O382 C384 1.247 . S
O383 Cd379 2.439 . S
O383 C384 1.208 . S
C384 O382 1.247 . S
C384 O383 1.208 . S
C385 O390 1.247 . S
C385 O391 1.208 . S
C386 O378 1.315 . S
C386 O381 1.279 . S
C387 O388 1.315 . S
C387 O389 1.279 . S
O388 Cd380 2.223 . S
O388 C387 1.315 . S
O389 Cd379 2.240 . S
O389 C387 1.279 . S
O390 Cd380 2.297 . S
O390 C385 1.247 . S
O391 Cd380 2.439 . S
O391 C385 1.208 . S
O392 Cd393 2.223 . S
O392 C400 1.315 . S
Cd393 O392 2.223 . S
Cd393 O396 2.297 . S
Cd393 O397 2.439 . S
Cd393 O403 2.240 1_455 S
Cd394 O395 2.240 . S
Cd394 O402 2.223 1_455 S
Cd394 O404 2.297 . S
Cd394 O405 2.439 . S
O395 Cd394 2.240 . S
O395 C400 1.279 . S
O396 Cd393 2.297 . S
O396 C398 1.247 . S
O397 Cd393 2.439 . S
O397 C398 1.208 . S
C398 O396 1.247 . S
C398 O397 1.208 . S
C399 O404 1.247 . S
C399 O405 1.208 . S
C400 O392 1.315 . S
C400 O395 1.279 . S
C401 O402 1.315 . S
C401 O403 1.279 . S
O402 Cd394 2.223 1_655 S
O402 C401 1.315 . S
O403 Cd393 2.240 1_655 S
O403 C401 1.279 . S
O404 Cd394 2.297 . S
O404 C399 1.247 . S
O405 Cd394 2.439 . S
O405 C399 1.208 . S
O406 Cd407 2.223 . S
O406 C414 1.315 . S
Cd407 O406 2.223 . S
Cd407 O410 2.297 . S
Cd407 O411 2.439 . S
Cd407 O417 2.240 . S
Cd408 O409 2.240 . S
Cd408 O416 2.223 . S
Cd408 O418 2.297 . S
Cd408 O419 2.439 . S
O409 Cd408 2.240 . S
O409 C414 1.279 . S
O410 Cd407 2.297 . S
O410 C412 1.247 . S
O411 Cd407 2.439 . S
O411 C412 1.208 . S
C412 O410 1.247 . S
C412 O411 1.208 . S
C413 O418 1.247 . S
C413 O419 1.208 . S
C414 O406 1.315 . S
C414 O409 1.279 . S
C415 O416 1.315 . S
C415 O417 1.279 . S
O416 Cd408 2.223 . S
O416 C415 1.315 . S
O417 Cd407 2.240 . S
O417 C415 1.279 . S
O418 Cd408 2.297 . S
O418 C413 1.247 . S
O419 Cd408 2.439 . S
O419 C413 1.208 . S
O420 Cd421 2.223 . S
O420 C428 1.315 . S
Cd421 O420 2.223 . S
Cd421 O424 2.297 . S
Cd421 O425 2.439 . S
Cd421 O431 2.240 1_455 S
Cd422 O423 2.240 . S
Cd422 O430 2.223 1_455 S
Cd422 O432 2.297 . S
Cd422 O433 2.439 . S
O423 Cd422 2.240 . S
O423 C428 1.279 . S
O424 Cd421 2.297 . S
O424 C426 1.247 . S
O425 Cd421 2.439 . S
O425 C426 1.208 . S
C426 O424 1.247 . S
C426 O425 1.208 . S
C427 O432 1.247 . S
C427 O433 1.208 . S
C428 O420 1.315 . S
C428 O423 1.279 . S
C429 O430 1.315 . S
C429 O431 1.279 . S
O430 Cd422 2.223 1_655 S
O430 C429 1.315 . S
O431 Cd421 2.240 1_655 S
O431 C429 1.279 . S
O432 Cd422 2.297 . S
O432 C427 1.247 . S
O433 Cd422 2.439 . S
O433 C427 1.208 . S
O434 Cd435 2.223 . S
O434 C442 1.315 . S
Cd435 O434 2.223 . S
Cd435 O438 2.297 . S
Cd435 O439 2.439 . S
Cd435 O445 2.240 . S
Cd436 O437 2.240 . S
Cd436 O444 2.223 . S
Cd436 O446 2.297 . S
Cd436 O447 2.439 . S
O437 Cd436 2.240 . S
O437 C442 1.279 . S
O438 Cd435 2.297 . S
O438 C440 1.247 . S
O439 Cd435 2.439 . S
O439 C440 1.208 . S
C440 O438 1.247 . S
C440 O439 1.208 . S
C441 O446 1.247 . S
C441 O447 1.208 . S
C442 O434 1.315 . S
C442 O437 1.279 . S
C443 O444 1.315 . S
C443 O445 1.279 . S
O444 Cd436 2.223 . S
O444 C443 1.315 . S
O445 Cd435 2.240 . S
O445 C443 1.279 . S
O446 Cd436 2.297 . S
O446 C441 1.247 . S
O447 Cd436 2.439 . S
O447 C441 1.208 . S
H448 C454 0.930 . S
H449 C457 0.930 . S
H450 C458 0.930 . S
H451 C459 0.930 . S
H452 C462 0.930 . S
H453 C463 0.930 . S
C454 H448 0.930 . S
C454 C455 1.355 . S
C454 C456 1.415 . S
C455 C454 1.355 . S
C455 C457 1.419 . S
C456 C454 1.415 . S
C456 C461 1.425 . S
C456 C463 1.409 . S
C457 H449 0.930 . S
C457 C455 1.419 . S
C457 C458 1.362 . S
C458 H450 0.930 . S
C458 C457 1.362 . S
C458 C461 1.409 . S
C459 H451 0.930 . S
C459 C460 1.355 . S
C459 C461 1.415 . S
C460 C459 1.355 . S
C460 C462 1.419 . S
C461 C456 1.425 . S
C461 C458 1.409 . S
C461 C459 1.415 . S
C462 H452 0.930 . S
C462 C460 1.419 . S
C462 C463 1.362 . S
C463 H453 0.930 . S
C463 C456 1.409 . S
C463 C462 1.362 . S
H464 C470 0.930 . S
H465 C473 0.930 . S
H466 C474 0.930 . S
H467 C475 0.930 . S
H468 C478 0.930 . S
H469 C479 0.930 . S
C470 H464 0.930 . S
C470 C471 1.355 . S
C470 C472 1.415 . S
C471 C470 1.355 . S
C471 C473 1.419 . S
C472 C470 1.415 . S
C472 C477 1.425 . S
C472 C479 1.409 . S
C473 H465 0.930 . S
C473 C471 1.419 . S
C473 C474 1.362 . S
C474 H466 0.930 . S
C474 C473 1.362 . S
C474 C477 1.409 . S
C475 H467 0.930 . S
C475 C476 1.355 . S
C475 C477 1.415 . S
C476 C475 1.355 . S
C476 C478 1.419 . S
C477 C472 1.425 . S
C477 C474 1.409 . S
C477 C475 1.415 . S
C478 H468 0.930 . S
C478 C476 1.419 . S
C478 C479 1.362 . S
C479 H469 0.930 . S
C479 C472 1.409 . S
C479 C478 1.362 . S
H480 C486 0.930 . S
H481 C489 0.930 . S
H482 C490 0.930 . S
H483 C491 0.930 . S
H484 C494 0.930 . S
H485 C495 0.930 . S
C486 H480 0.930 . S
C486 C487 1.355 . S
C486 C488 1.415 . S
C487 C486 1.355 . S
C487 C489 1.419 . S
C488 C486 1.415 . S
C488 C493 1.425 . S
C488 C495 1.409 . S
C489 H481 0.930 . S
C489 C487 1.419 . S
C489 C490 1.362 . S
C490 H482 0.930 . S
C490 C489 1.362 . S
C490 C493 1.409 . S
C491 H483 0.930 . S
C491 C492 1.355 . S
C491 C493 1.415 . S
C492 C491 1.355 . S
C492 C494 1.419 . S
C493 C488 1.425 . S
C493 C490 1.409 . S
C493 C491 1.415 . S
C494 H484 0.930 . S
C494 C492 1.419 . S
C494 C495 1.362 . S
C495 H485 0.930 . S
C495 C488 1.409 . S
C495 C494 1.362 . S
H496 C502 0.930 . S
H497 C505 0.930 . S
H498 C506 0.930 . S
H499 C507 0.930 . S
H500 C510 0.930 . S
H501 C511 0.930 . S
C502 H496 0.930 . S
C502 C503 1.355 . S
C502 C504 1.415 . S
C503 C502 1.355 . S
C503 C505 1.419 . S
C504 C502 1.415 . S
C504 C509 1.425 . S
C504 C511 1.409 . S
C505 H497 0.930 . S
C505 C503 1.419 . S
C505 C506 1.362 . S
C506 H498 0.930 . S
C506 C505 1.362 . S
C506 C509 1.409 . S
C507 H499 0.930 . S
C507 C508 1.355 . S
C507 C509 1.415 . S
C508 C507 1.355 . S
C508 C510 1.419 . S
C509 C504 1.425 . S
C509 C506 1.409 . S
C509 C507 1.415 . S
C510 H500 0.930 . S
C510 C508 1.419 . S
C510 C511 1.362 . S
C511 H501 0.930 . S
C511 C504 1.409 . S
C511 C510 1.362 . S
H512 C518 0.930 . S
H513 C521 0.930 . S
H514 C522 0.930 . S
H515 C523 0.930 . S
H516 C526 0.930 . S
H517 C527 0.930 . S
C518 H512 0.930 . S
C518 C519 1.355 . S
C518 C520 1.415 . S
C519 C518 1.355 . S
C519 C521 1.419 . S
C520 C518 1.415 . S
C520 C525 1.425 . S
C520 C527 1.409 . S
C521 H513 0.930 . S
C521 C519 1.419 . S
C521 C522 1.362 . S
C522 H514 0.930 . S
C522 C521 1.362 . S
C522 C525 1.409 . S
C523 H515 0.930 . S
C523 C524 1.355 . S
C523 C525 1.415 . S
C524 C523 1.355 . S
C524 C526 1.419 . S
C525 C520 1.425 . S
C525 C522 1.409 . S
C525 C523 1.415 . S
C526 H516 0.930 . S
C526 C524 1.419 . S
C526 C527 1.362 . S
C527 H517 0.930 . S
C527 C520 1.409 . S
C527 C526 1.362 . S
H528 C534 0.930 . S
H529 C537 0.930 . S
H530 C538 0.930 . S
H531 C539 0.930 . S
H532 C542 0.930 . S
H533 C543 0.930 . S
C534 H528 0.930 . S
C534 C535 1.355 . S
C534 C536 1.415 . S
C535 C534 1.355 . S
C535 C537 1.419 . S
C536 C534 1.415 . S
C536 C541 1.425 . S
C536 C543 1.409 . S
C537 H529 0.930 . S
C537 C535 1.419 . S
C537 C538 1.362 . S
C538 H530 0.930 . S
C538 C537 1.362 . S
C538 C541 1.409 . S
C539 H531 0.930 . S
C539 C540 1.355 . S
C539 C541 1.415 . S
C540 C539 1.355 . S
C540 C542 1.419 . S
C541 C536 1.425 . S
C541 C538 1.409 . S
C541 C539 1.415 . S
C542 H532 0.930 . S
C542 C540 1.419 . S
C542 C543 1.362 . S
C543 H533 0.930 . S
C543 C536 1.409 . S
C543 C542 1.362 . S
H544 C550 0.930 . S
H545 C553 0.930 . S
H546 C554 0.930 . S
H547 C555 0.930 . S
H548 C558 0.930 . S
H549 C559 0.930 . S
C550 H544 0.930 . S
C550 C551 1.355 . S
C550 C552 1.415 . S
C551 C550 1.355 . S
C551 C553 1.419 . S
C552 C550 1.415 . S
C552 C557 1.425 . S
C552 C559 1.409 . S
C553 H545 0.930 . S
C553 C551 1.419 . S
C553 C554 1.362 . S
C554 H546 0.930 . S
C554 C553 1.362 . S
C554 C557 1.409 . S
C555 H547 0.930 . S
C555 C556 1.355 . S
C555 C557 1.415 . S
C556 C555 1.355 . S
C556 C558 1.419 . S
C557 C552 1.425 . S
C557 C554 1.409 . S
C557 C555 1.415 . S
C558 H548 0.930 . S
C558 C556 1.419 . S
C558 C559 1.362 . S
C559 H549 0.930 . S
C559 C552 1.409 . S
C559 C558 1.362 . S
H560 C566 0.930 . S
H561 C569 0.930 . S
H562 C570 0.930 . S
H563 C571 0.930 . S
H564 C574 0.930 . S
H565 C575 0.930 . S
C566 H560 0.930 . S
C566 C567 1.355 . S
C566 C568 1.415 . S
C567 C566 1.355 . S
C567 C569 1.419 . S
C568 C566 1.415 . S
C568 C573 1.425 . S
C568 C575 1.409 . S
C569 H561 0.930 . S
C569 C567 1.419 . S
C569 C570 1.362 . S
C570 H562 0.930 . S
C570 C569 1.362 . S
C570 C573 1.409 . S
C571 H563 0.930 . S
C571 C572 1.355 . S
C571 C573 1.415 . S
C572 C571 1.355 . S
C572 C574 1.419 . S
C573 C568 1.425 . S
C573 C570 1.409 . S
C573 C571 1.415 . S
C574 H564 0.930 . S
C574 C572 1.419 . S
C574 C575 1.362 . S
C575 H565 0.930 . S
C575 C568 1.409 . S
C575 C574 1.362 . S
H576 C582 0.930 . S
H577 C585 0.930 . S
H578 C586 0.930 1_455 S
H579 C587 0.930 . S
H580 C590 0.930 . S
H581 C591 0.930 . S
C582 H576 0.930 . S
C582 C583 1.355 . S
C582 C584 1.415 . S
C583 C582 1.355 . S
C583 C585 1.419 . S
C584 C582 1.415 . S
C584 C589 1.425 . S
C584 C591 1.409 . S
C585 H577 0.930 . S
C585 C583 1.419 . S
C585 C586 1.362 . S
C586 H578 0.930 1_655 S
C586 C585 1.362 . S
C586 C589 1.409 . S
C587 H579 0.930 . S
C587 C588 1.355 . S
C587 C589 1.415 . S
C588 C587 1.355 . S
C588 C590 1.419 . S
C589 C584 1.425 . S
C589 C586 1.409 . S
C589 C587 1.415 . S
C590 H580 0.930 . S
C590 C588 1.419 . S
C590 C591 1.362 . S
C591 H581 0.930 . S
C591 C584 1.409 . S
C591 C590 1.362 . S
H592 C598 0.930 . S
H593 C601 0.930 . S
H594 C602 0.930 . S
H595 C603 0.930 . S
H596 C606 0.930 . S
H597 C607 0.930 . S
C598 H592 0.930 . S
C598 C599 1.355 . S
C598 C600 1.415 . S
C599 C598 1.355 . S
C599 C601 1.419 . S
C600 C598 1.415 . S
C600 C605 1.425 . S
C600 C607 1.409 . S
C601 H593 0.930 . S
C601 C599 1.419 . S
C601 C602 1.362 . S
C602 H594 0.930 . S
C602 C601 1.362 . S
C602 C605 1.409 . S
C603 H595 0.930 . S
C603 C604 1.355 . S
C603 C605 1.415 . S
C604 C603 1.355 . S
C604 C606 1.419 . S
C605 C600 1.425 . S
C605 C602 1.409 . S
C605 C603 1.415 . S
C606 H596 0.930 . S
C606 C604 1.419 . S
C606 C607 1.362 . S
C607 H597 0.930 . S
C607 C600 1.409 . S
C607 C606 1.362 . S
H608 C614 0.930 . S
H609 C617 0.930 . S
H610 C618 0.930 . S
H611 C619 0.930 . S
H612 C622 0.930 . S
H613 C623 0.930 1_655 S
C614 H608 0.930 . S
C614 C615 1.355 . S
C614 C616 1.415 . S
C615 C614 1.355 . S
C615 C617 1.419 . S
C616 C614 1.415 . S
C616 C621 1.425 . S
C616 C623 1.409 . S
C617 H609 0.930 . S
C617 C615 1.419 . S
C617 C618 1.362 . S
C618 H610 0.930 . S
C618 C617 1.362 . S
C618 C621 1.409 . S
C619 H611 0.930 . S
C619 C620 1.355 . S
C619 C621 1.415 . S
C620 C619 1.355 . S
C620 C622 1.419 . S
C621 C616 1.425 . S
C621 C618 1.409 . S
C621 C619 1.415 . S
C622 H612 0.930 . S
C622 C620 1.419 . S
C622 C623 1.362 . S
C623 H613 0.930 1_455 S
C623 C616 1.409 . S
C623 C622 1.362 . S
H624 C630 0.930 . S
H625 C633 0.930 . S
H626 C634 0.930 . S
H627 C635 0.930 . S
H628 C638 0.930 . S
H629 C639 0.930 . S
C630 H624 0.930 . S
C630 C631 1.355 . S
C630 C632 1.415 . S
C631 C630 1.355 . S
C631 C633 1.419 . S
C632 C630 1.415 . S
C632 C637 1.425 . S
C632 C639 1.409 . S
C633 H625 0.930 . S
C633 C631 1.419 . S
C633 C634 1.362 . S
C634 H626 0.930 . S
C634 C633 1.362 . S
C634 C637 1.409 . S
C635 H627 0.930 . S
C635 C636 1.355 . S
C635 C637 1.415 . S
C636 C635 1.355 . S
C636 C638 1.419 . S
C637 C632 1.425 . S
C637 C634 1.409 . S
C637 C635 1.415 . S
C638 H628 0.930 . S
C638 C636 1.419 . S
C638 C639 1.362 . S
C639 H629 0.930 . S
C639 C632 1.409 . S
C639 C638 1.362 . S
H640 C646 0.930 . S
H641 C649 0.930 . S
H642 C650 0.930 . S
H643 C651 0.930 . S
H644 C654 0.930 . S
H645 C655 0.930 . S
C646 H640 0.930 . S
C646 C647 1.355 . S
C646 C648 1.415 . S
C647 C646 1.355 . S
C647 C649 1.419 . S
C648 C646 1.415 . S
C648 C653 1.425 . S
C648 C655 1.409 . S
C649 H641 0.930 . S
C649 C647 1.419 . S
C649 C650 1.362 . S
C650 H642 0.930 . S
C650 C649 1.362 . S
C650 C653 1.409 . S
C651 H643 0.930 . S
C651 C652 1.355 . S
C651 C653 1.415 . S
C652 C651 1.355 . S
C652 C654 1.419 . S
C653 C648 1.425 . S
C653 C650 1.409 . S
C653 C651 1.415 . S
C654 H644 0.930 . S
C654 C652 1.419 . S
C654 C655 1.362 . S
C655 H645 0.930 . S
C655 C648 1.409 . S
C655 C654 1.362 . S
H656 C662 0.930 . S
H657 C665 0.930 . S
H658 C666 0.930 . S
H659 C667 0.930 . S
H660 C670 0.930 . S
H661 C671 0.930 . S
C662 H656 0.930 . S
C662 C663 1.355 . S
C662 C664 1.415 . S
C663 C662 1.355 . S
C663 C665 1.419 . S
C664 C662 1.415 . S
C664 C669 1.425 . S
C664 C671 1.409 . S
C665 H657 0.930 . S
C665 C663 1.419 . S
C665 C666 1.362 . S
C666 H658 0.930 . S
C666 C665 1.362 . S
C666 C669 1.409 . S
C667 H659 0.930 . S
C667 C668 1.355 . S
C667 C669 1.415 . S
C668 C667 1.355 . S
C668 C670 1.419 . S
C669 C664 1.425 . S
C669 C666 1.409 . S
C669 C667 1.415 . S
C670 H660 0.930 . S
C670 C668 1.419 . S
C670 C671 1.362 . S
C671 H661 0.930 . S
C671 C664 1.409 . S
C671 C670 1.362 . S
H672 C678 0.930 . S
H673 C681 0.930 . S
H674 C682 0.930 . S
H675 C683 0.930 . S
H676 C686 0.930 . S
H677 C687 0.930 . S
C678 H672 0.930 . S
C678 C679 1.355 . S
C678 C680 1.415 . S
C679 C678 1.355 . S
C679 C681 1.419 . S
C680 C678 1.415 . S
C680 C685 1.425 . S
C680 C687 1.409 . S
C681 H673 0.930 . S
C681 C679 1.419 . S
C681 C682 1.362 . S
C682 H674 0.930 . S
C682 C681 1.362 . S
C682 C685 1.409 . S
C683 H675 0.930 . S
C683 C684 1.355 . S
C683 C685 1.415 . S
C684 C683 1.355 . S
C684 C686 1.419 . S
C685 C680 1.425 . S
C685 C682 1.409 . S
C685 C683 1.415 . S
C686 H676 0.930 . S
C686 C684 1.419 . S
C686 C687 1.362 . S
C687 H677 0.930 . S
C687 C680 1.409 . S
C687 C686 1.362 . S
H688 C694 0.930 . S
H689 C697 0.930 . S
H690 C698 0.930 . S
H691 C699 0.930 . S
H692 C702 0.930 . S
H693 C703 0.930 . S
C694 H688 0.930 . S
C694 C695 1.355 . S
C694 C696 1.415 . S
C695 C694 1.355 . S
C695 C697 1.419 . S
C696 C694 1.415 . S
C696 C701 1.425 . S
C696 C703 1.409 . S
C697 H689 0.930 . S
C697 C695 1.419 . S
C697 C698 1.362 . S
C698 H690 0.930 . S
C698 C697 1.362 . S
C698 C701 1.409 . S
C699 H691 0.930 . S
C699 C700 1.355 . S
C699 C701 1.415 . S
C700 C699 1.355 . S
C700 C702 1.419 . S
C701 C696 1.425 . S
C701 C698 1.409 . S
C701 C699 1.415 . S
C702 H692 0.930 . S
C702 C700 1.419 . S
C702 C703 1.362 . S
C703 H693 0.930 . S
C703 C696 1.409 . S
C703 C702 1.362 . S
H704 C710 0.930 . S
H705 C713 0.930 . S
H706 C714 0.930 . S
H707 C715 0.930 . S
H708 C718 0.930 . S
H709 C719 0.930 . S
C710 H704 0.930 . S
C710 C711 1.355 . S
C710 C712 1.415 . S
C711 C710 1.355 . S
C711 C713 1.419 . S
C712 C710 1.415 . S
C712 C717 1.425 . S
C712 C719 1.409 . S
C713 H705 0.930 . S
C713 C711 1.419 . S
C713 C714 1.362 . S
C714 H706 0.930 . S
C714 C713 1.362 . S
C714 C717 1.409 . S
C715 H707 0.930 . S
C715 C716 1.355 . S
C715 C717 1.415 . S
C716 C715 1.355 . S
C716 C718 1.419 . S
C717 C712 1.425 . S
C717 C714 1.409 . S
C717 C715 1.415 . S
C718 H708 0.930 . S
C718 C716 1.419 . S
C718 C719 1.362 . S
C719 H709 0.930 . S
C719 C712 1.409 . S
C719 C718 1.362 . S
H720 C726 0.930 . S
H721 C729 0.930 . S
H722 C730 0.930 . S
H723 C731 0.930 . S
H724 C734 0.930 . S
H725 C735 0.930 . S
C726 H720 0.930 . S
C726 C727 1.355 . S
C726 C728 1.415 . S
C727 C726 1.355 . S
C727 C729 1.419 . S
C728 C726 1.415 . S
C728 C733 1.425 . S
C728 C735 1.409 . S
C729 H721 0.930 . S
C729 C727 1.419 . S
C729 C730 1.362 . S
C730 H722 0.930 . S
C730 C729 1.362 . S
C730 C733 1.409 . S
C731 H723 0.930 . S
C731 C732 1.355 . S
C731 C733 1.415 . S
C732 C731 1.355 . S
C732 C734 1.419 . S
C733 C728 1.425 . S
C733 C730 1.409 . S
C733 C731 1.415 . S
C734 H724 0.930 . S
C734 C732 1.419 . S
C734 C735 1.362 . S
C735 H725 0.930 . S
C735 C728 1.409 . S
C735 C734 1.362 . S
H736 C742 0.930 . S
H737 C745 0.930 . S
H738 C746 0.930 . S
H739 C747 0.930 . S
H740 C750 0.930 . S
H741 C751 0.930 . S
C742 H736 0.930 . S
C742 C743 1.355 . S
C742 C744 1.415 . S
C743 C742 1.355 . S
C743 C745 1.419 . S
C744 C742 1.415 . S
C744 C749 1.425 . S
C744 C751 1.409 . S
C745 H737 0.930 . S
C745 C743 1.419 . S
C745 C746 1.362 . S
C746 H738 0.930 . S
C746 C745 1.362 . S
C746 C749 1.409 . S
C747 H739 0.930 . S
C747 C748 1.355 . S
C747 C749 1.415 . S
C748 C747 1.355 . S
C748 C750 1.419 . S
C749 C744 1.425 . S
C749 C746 1.409 . S
C749 C747 1.415 . S
C750 H740 0.930 . S
C750 C748 1.419 . S
C750 C751 1.362 . S
C751 H741 0.930 . S
C751 C744 1.409 . S
C751 C750 1.362 . S
H752 C758 0.930 . S
H753 C761 0.930 . S
H754 C762 0.930 . S
H755 C763 0.930 . S
H756 C766 0.930 . S
H757 C767 0.930 . S
C758 H752 0.930 . S
C758 C759 1.355 . S
C758 C760 1.415 . S
C759 C758 1.355 . S
C759 C761 1.419 . S
C760 C758 1.415 . S
C760 C765 1.425 . S
C760 C767 1.409 . S
C761 H753 0.930 . S
C761 C759 1.419 . S
C761 C762 1.362 . S
C762 H754 0.930 . S
C762 C761 1.362 . S
C762 C765 1.409 . S
C763 H755 0.930 . S
C763 C764 1.355 . S
C763 C765 1.415 . S
C764 C763 1.355 . S
C764 C766 1.419 . S
C765 C760 1.425 . S
C765 C762 1.409 . S
C765 C763 1.415 . S
C766 H756 0.930 . S
C766 C764 1.419 . S
C766 C767 1.362 . S
C767 H757 0.930 . S
C767 C760 1.409 . S
C767 C766 1.362 . S
H768 C774 0.930 . S
H769 C777 0.930 . S
H770 C778 0.930 . S
H771 C779 0.930 . S
H772 C782 0.930 . S
H773 C783 0.930 . S
C774 H768 0.930 . S
C774 C775 1.355 . S
C774 C776 1.415 . S
C775 C774 1.355 . S
C775 C777 1.419 . S
C776 C774 1.415 . S
C776 C781 1.425 . S
C776 C783 1.409 . S
C777 H769 0.930 . S
C777 C775 1.419 . S
C777 C778 1.362 . S
C778 H770 0.930 . S
C778 C777 1.362 . S
C778 C781 1.409 . S
C779 H771 0.930 . S
C779 C780 1.355 . S
C779 C781 1.415 . S
C780 C779 1.355 . S
C780 C782 1.419 . S
C781 C776 1.425 . S
C781 C778 1.409 . S
C781 C779 1.415 . S
C782 H772 0.930 . S
C782 C780 1.419 . S
C782 C783 1.362 . S
C783 H773 0.930 . S
C783 C776 1.409 . S
C783 C782 1.362 . S
H784 C790 0.930 . S
H785 C793 0.930 . S
H786 C794 0.930 . S
H787 C795 0.930 . S
H788 C798 0.930 . S
H789 C799 0.930 . S
C790 H784 0.930 . S
C790 C791 1.355 . S
C790 C792 1.415 . S
C791 C790 1.355 . S
C791 C793 1.419 . S
C792 C790 1.415 . S
C792 C797 1.425 . S
C792 C799 1.409 . S
C793 H785 0.930 . S
C793 C791 1.419 . S
C793 C794 1.362 . S
C794 H786 0.930 . S
C794 C793 1.362 . S
C794 C797 1.409 . S
C795 H787 0.930 . S
C795 C796 1.355 . S
C795 C797 1.415 . S
C796 C795 1.355 . S
C796 C798 1.419 . S
C797 C792 1.425 . S
C797 C794 1.409 . S
C797 C795 1.415 . S
C798 H788 0.930 . S
C798 C796 1.419 . S
C798 C799 1.362 . S
C799 H789 0.930 . S
C799 C792 1.409 . S
C799 C798 1.362 . S
H800 C806 0.930 . S
H801 C809 0.930 . S
H802 C810 0.930 . S
H803 C811 0.930 . S
H804 C814 0.930 . S
H805 C815 0.930 . S
C806 H800 0.930 . S
C806 C807 1.355 . S
C806 C808 1.415 . S
C807 C806 1.355 . S
C807 C809 1.419 . S
C808 C806 1.415 . S
C808 C813 1.425 . S
C808 C815 1.409 . S
C809 H801 0.930 . S
C809 C807 1.419 . S
C809 C810 1.362 . S
C810 H802 0.930 . S
C810 C809 1.362 . S
C810 C813 1.409 . S
C811 H803 0.930 . S
C811 C812 1.355 . S
C811 C813 1.415 . S
C812 C811 1.355 . S
C812 C814 1.419 . S
C813 C808 1.425 . S
C813 C810 1.409 . S
C813 C811 1.415 . S
C814 H804 0.930 . S
C814 C812 1.419 . S
C814 C815 1.362 . S
C815 H805 0.930 . S
C815 C808 1.409 . S
C815 C814 1.362 . S
H816 C822 0.930 . S
H817 C825 0.930 . S
H818 C826 0.930 . S
H819 C827 0.930 . S
H820 C830 0.930 . S
H821 C831 0.930 . S
C822 H816 0.930 . S
C822 C823 1.355 . S
C822 C824 1.415 . S
C823 C822 1.355 . S
C823 C825 1.419 . S
C824 C822 1.415 . S
C824 C829 1.425 . S
C824 C831 1.409 . S
C825 H817 0.930 . S
C825 C823 1.419 . S
C825 C826 1.362 . S
C826 H818 0.930 . S
C826 C825 1.362 . S
C826 C829 1.409 . S
C827 H819 0.930 . S
C827 C828 1.355 . S
C827 C829 1.415 . S
C828 C827 1.355 . S
C828 C830 1.419 . S
C829 C824 1.425 . S
C829 C826 1.409 . S
C829 C827 1.415 . S
C830 H820 0.930 . S
C830 C828 1.419 . S
C830 C831 1.362 . S
C831 H821 0.930 . S
C831 C824 1.409 . S
C831 C830 1.362 . S
H832 C838 0.930 . S
H833 C841 0.930 . S
H834 C842 0.930 . S
H835 C843 0.930 . S
H836 C846 0.930 . S
H837 C847 0.930 . S
C838 H832 0.930 . S
C838 C839 1.355 . S
C838 C840 1.415 . S
C839 C838 1.355 . S
C839 C841 1.419 . S
C840 C838 1.415 . S
C840 C845 1.425 . S
C840 C847 1.409 . S
C841 H833 0.930 . S
C841 C839 1.419 . S
C841 C842 1.362 . S
C842 H834 0.930 . S
C842 C841 1.362 . S
C842 C845 1.409 . S
C843 H835 0.930 . S
C843 C844 1.355 . S
C843 C845 1.415 . S
C844 C843 1.355 . S
C844 C846 1.419 . S
C845 C840 1.425 . S
C845 C842 1.409 . S
C845 C843 1.415 . S
C846 H836 0.930 . S
C846 C844 1.419 . S
C846 C847 1.362 . S
C847 H837 0.930 . S
C847 C840 1.409 . S
C847 C846 1.362 . S
H848 C854 0.930 . S
H849 C857 0.930 . S
H850 C858 0.930 . S
H851 C859 0.930 . S
H852 C862 0.930 . S
H853 C863 0.930 . S
C854 H848 0.930 . S
C854 C855 1.355 . S
C854 C856 1.415 . S
C855 C854 1.355 . S
C855 C857 1.419 . S
C856 C854 1.415 . S
C856 C861 1.425 . S
C856 C863 1.409 . S
C857 H849 0.930 . S
C857 C855 1.419 . S
C857 C858 1.362 . S
C858 H850 0.930 . S
C858 C857 1.362 . S
C858 C861 1.409 . S
C859 H851 0.930 . S
C859 C860 1.355 . S
C859 C861 1.415 . S
C860 C859 1.355 . S
C860 C862 1.419 . S
C861 C856 1.425 . S
C861 C858 1.409 . S
C861 C859 1.415 . S
C862 H852 0.930 . S
C862 C860 1.419 . S
C862 C863 1.362 . S
C863 H853 0.930 . S
C863 C856 1.409 . S
C863 C862 1.362 . S
H864 C870 0.930 . S
H865 C873 0.930 . S
H866 C874 0.930 . S
H867 C875 0.930 . S
H868 C878 0.930 . S
H869 C879 0.930 . S
C870 H864 0.930 . S
C870 C871 1.355 . S
C870 C872 1.415 . S
C871 C870 1.355 . S
C871 C873 1.419 . S
C872 C870 1.415 . S
C872 C877 1.425 . S
C872 C879 1.409 . S
C873 H865 0.930 . S
C873 C871 1.419 . S
C873 C874 1.362 . S
C874 H866 0.930 . S
C874 C873 1.362 . S
C874 C877 1.409 . S
C875 H867 0.930 . S
C875 C876 1.355 . S
C875 C877 1.415 . S
C876 C875 1.355 . S
C876 C878 1.419 . S
C877 C872 1.425 . S
C877 C874 1.409 . S
C877 C875 1.415 . S
C878 H868 0.930 . S
C878 C876 1.419 . S
C878 C879 1.362 . S
C879 H869 0.930 . S
C879 C872 1.409 . S
C879 C878 1.362 . S
H880 C886 0.930 . S
H881 C889 0.930 . S
H882 C890 0.930 . S
H883 C891 0.930 . S
H884 C894 0.930 . S
H885 C895 0.930 . S
C886 H880 0.930 . S
C886 C887 1.355 . S
C886 C888 1.415 . S
C887 C886 1.355 . S
C887 C889 1.419 . S
C888 C886 1.415 . S
C888 C893 1.425 . S
C888 C895 1.409 . S
C889 H881 0.930 . S
C889 C887 1.419 . S
C889 C890 1.362 . S
C890 H882 0.930 . S
C890 C889 1.362 . S
C890 C893 1.409 . S
C891 H883 0.930 . S
C891 C892 1.355 . S
C891 C893 1.415 . S
C892 C891 1.355 . S
C892 C894 1.419 . S
C893 C888 1.425 . S
C893 C890 1.409 . S
C893 C891 1.415 . S
C894 H884 0.930 . S
C894 C892 1.419 . S
C894 C895 1.362 . S
C895 H885 0.930 . S
C895 C888 1.409 . S
C895 C894 1.362 . S
H896 C902 0.930 . S
H897 C905 0.930 . S
H898 C906 0.930 . S
H899 C907 0.930 . S
H900 C910 0.930 . S
H901 C911 0.930 . S
C902 H896 0.930 . S
C902 C903 1.355 . S
C902 C904 1.415 . S
C903 C902 1.355 . S
C903 C905 1.419 . S
C904 C902 1.415 . S
C904 C909 1.425 . S
C904 C911 1.409 . S
C905 H897 0.930 . S
C905 C903 1.419 . S
C905 C906 1.362 . S
C906 H898 0.930 . S
C906 C905 1.362 . S
C906 C909 1.409 . S
C907 H899 0.930 . S
C907 C908 1.355 . S
C907 C909 1.415 . S
C908 C907 1.355 . S
C908 C910 1.419 . S
C909 C904 1.425 . S
C909 C906 1.409 . S
C909 C907 1.415 . S
C910 H900 0.930 . S
C910 C908 1.419 . S
C910 C911 1.362 . S
C911 H901 0.930 . S
C911 C904 1.409 . S
C911 C910 1.362 . S
H912 C918 0.930 . S
H913 C921 0.930 . S
H914 C922 0.930 . S
H915 C923 0.930 . S
H916 C926 0.930 . S
H917 C927 0.930 . S
C918 H912 0.930 . S
C918 C919 1.355 . S
C918 C920 1.415 . S
C919 C918 1.355 . S
C919 C921 1.419 . S
C920 C918 1.415 . S
C920 C925 1.425 . S
C920 C927 1.409 . S
C921 H913 0.930 . S
C921 C919 1.419 . S
C921 C922 1.362 . S
C922 H914 0.930 . S
C922 C921 1.362 . S
C922 C925 1.409 . S
C923 H915 0.930 . S
C923 C924 1.355 . S
C923 C925 1.415 . S
C924 C923 1.355 . S
C924 C926 1.419 . S
C925 C920 1.425 . S
C925 C922 1.409 . S
C925 C923 1.415 . S
C926 H916 0.930 . S
C926 C924 1.419 . S
C926 C927 1.362 . S
C927 H917 0.930 . S
C927 C920 1.409 . S
C927 C926 1.362 . S
H928 C934 0.930 . S
H929 C937 0.930 . S
H930 C938 0.930 . S
H931 C939 0.930 . S
H932 C942 0.930 . S
H933 C943 0.930 . S
C934 H928 0.930 . S
C934 C935 1.355 . S
C934 C936 1.415 . S
C935 C934 1.355 . S
C935 C937 1.419 . S
C936 C934 1.415 . S
C936 C941 1.425 . S
C936 C943 1.409 . S
C937 H929 0.930 . S
C937 C935 1.419 . S
C937 C938 1.362 . S
C938 H930 0.930 . S
C938 C937 1.362 . S
C938 C941 1.409 . S
C939 H931 0.930 . S
C939 C940 1.355 . S
C939 C941 1.415 . S
C940 C939 1.355 . S
C940 C942 1.419 . S
C941 C936 1.425 . S
C941 C938 1.409 . S
C941 C939 1.415 . S
C942 H932 0.930 . S
C942 C940 1.419 . S
C942 C943 1.362 . S
C943 H933 0.930 . S
C943 C936 1.409 . S
C943 C942 1.362 . S
H944 C950 0.930 . S
H945 C953 0.930 . S
H946 C954 0.930 . S
H947 C955 0.930 . S
H948 C958 0.930 . S
H949 C959 0.930 . S
C950 H944 0.930 . S
C950 C951 1.355 . S
C950 C952 1.415 . S
C951 C950 1.355 . S
C951 C953 1.419 . S
C952 C950 1.415 . S
C952 C957 1.425 . S
C952 C959 1.409 . S
C953 H945 0.930 . S
C953 C951 1.419 . S
C953 C954 1.362 . S
C954 H946 0.930 . S
C954 C953 1.362 . S
C954 C957 1.409 . S
C955 H947 0.930 . S
C955 C956 1.355 . S
C955 C957 1.415 . S
C956 C955 1.355 . S
C956 C958 1.419 . S
C957 C952 1.425 . S
C957 C954 1.409 . S
C957 C955 1.415 . S
C958 H948 0.930 . S
C958 C956 1.419 . S
C958 C959 1.362 . S
C959 H949 0.930 . S
C959 C952 1.409 . S
C959 C958 1.362 . S
H960 C966 0.930 . S
H961 C969 0.930 . S
H962 C970 0.930 . S
H963 C971 0.930 . S
H964 C974 0.930 . S
H965 C975 0.930 . S
C966 H960 0.930 . S
C966 C967 1.355 . S
C966 C968 1.415 1_554 S
C967 C966 1.355 . S
C967 C969 1.419 . S
C968 C966 1.415 1_556 S
C968 C973 1.425 1_546 S
C968 C975 1.409 . S
C969 H961 0.930 . S
C969 C967 1.419 . S
C969 C970 1.362 1_545 S
C970 H962 0.930 . S
C970 C969 1.362 1_565 S
C970 C973 1.409 . S
C971 H963 0.930 . S
C971 C972 1.355 . S
C971 C973 1.415 1_556 S
C972 C971 1.355 . S
C972 C974 1.419 . S
C973 C968 1.425 1_564 S
C973 C970 1.409 . S
C973 C971 1.415 1_554 S
C974 H964 0.930 . S
C974 C972 1.419 . S
C974 C975 1.362 1_565 S
C975 H965 0.930 . S
C975 C968 1.409 . S
C975 C974 1.362 1_545 S
H976 C982 0.930 . S
H977 C985 0.930 . S
H978 C986 0.930 . S
H979 C987 0.930 . S
H980 C990 0.930 . S
H981 C991 0.930 . S
C982 H976 0.930 . S
C982 C983 1.355 . S
C982 C984 1.415 . S
C983 C982 1.355 . S
C983 C985 1.419 . S
C984 C982 1.415 . S
C984 C989 1.425 1_554 S
C984 C991 1.409 . S
C985 H977 0.930 . S
C985 C983 1.419 . S
C985 C986 1.362 1_554 S
C986 H978 0.930 . S
C986 C985 1.362 1_556 S
C986 C989 1.409 . S
C987 H979 0.930 . S
C987 C988 1.355 . S
C987 C989 1.415 . S
C988 C987 1.355 . S
C988 C990 1.419 . S
C989 C984 1.425 1_556 S
C989 C986 1.409 . S
C989 C987 1.415 . S
C990 H980 0.930 . S
C990 C988 1.419 . S
C990 C991 1.362 1_556 S
C991 H981 0.930 . S
C991 C984 1.409 . S
C991 C990 1.362 1_554 S
H992 C998 0.930 . S
H993 C1001 0.930 . S
H994 C1002 0.930 . S
H995 C1003 0.930 . S
H996 C1006 0.930 . S
H997 C1007 0.930 . S
C998 H992 0.930 . S
C998 C999 1.355 . S
C998 C1000 1.415 . S
C999 C998 1.355 . S
C999 C1001 1.419 . S
C1000 C998 1.415 . S
C1000 C1005 1.425 . S
C1000 C1007 1.409 . S
C1001 H993 0.930 . S
C1001 C999 1.419 . S
C1001 C1002 1.362 . S
C1002 H994 0.930 . S
C1002 C1001 1.362 . S
C1002 C1005 1.409 . S
C1003 H995 0.930 . S
C1003 C1004 1.355 . S
C1003 C1005 1.415 . S
C1004 C1003 1.355 . S
C1004 C1006 1.419 . S
C1005 C1000 1.425 . S
C1005 C1002 1.409 . S
C1005 C1003 1.415 . S
C1006 H996 0.930 . S
C1006 C1004 1.419 . S
C1006 C1007 1.362 . S
C1007 H997 0.930 . S
C1007 C1000 1.409 . S
C1007 C1006 1.362 . S
H1008 C1014 0.930 1_565 S
H1009 C1017 0.930 . S
H1010 C1018 0.930 . S
H1011 C1019 0.930 1_545 S
H1012 C1022 0.930 . S
H1013 C1023 0.930 . S
C1014 H1008 0.930 1_545 S
C1014 C1015 1.355 . S
C1014 C1016 1.415 1_545 S
C1015 C1014 1.355 . S
C1015 C1017 1.419 . S
C1016 C1014 1.415 1_565 S
C1016 C1021 1.425 1_565 S
C1016 C1023 1.409 . S
C1017 H1009 0.930 . S
C1017 C1015 1.419 . S
C1017 C1018 1.362 . S
C1018 H1010 0.930 . S
C1018 C1017 1.362 . S
C1018 C1021 1.409 . S
C1019 H1011 0.930 1_565 S
C1019 C1020 1.355 . S
C1019 C1021 1.415 1_565 S
C1020 C1019 1.355 . S
C1020 C1022 1.419 . S
C1021 C1016 1.425 1_545 S
C1021 C1018 1.409 . S
C1021 C1019 1.415 1_545 S
C1022 H1012 0.930 . S
C1022 C1020 1.419 . S
C1022 C1023 1.362 . S
C1023 H1013 0.930 . S
C1023 C1016 1.409 . S
C1023 C1022 1.362 . S
H1024 C1030 0.930 . S
H1025 C1033 0.930 . S
H1026 C1034 0.930 . S
H1027 C1035 0.930 . S
H1028 C1038 0.930 . S
H1029 C1039 0.930 . S
C1030 H1024 0.930 . S
C1030 C1031 1.355 . S
C1030 C1032 1.415 . S
C1031 C1030 1.355 . S
C1031 C1033 1.419 . S
C1032 C1030 1.415 . S
C1032 C1037 1.425 1_556 S
C1032 C1039 1.409 . S
C1033 H1025 0.930 . S
C1033 C1031 1.419 . S
C1033 C1034 1.362 1_556 S
C1034 H1026 0.930 . S
C1034 C1033 1.362 1_554 S
C1034 C1037 1.409 . S
C1035 H1027 0.930 . S
C1035 C1036 1.355 . S
C1035 C1037 1.415 . S
C1036 C1035 1.355 . S
C1036 C1038 1.419 . S
C1037 C1032 1.425 1_554 S
C1037 C1034 1.409 . S
C1037 C1035 1.415 . S
C1038 H1028 0.930 . S
C1038 C1036 1.419 . S
C1038 C1039 1.362 1_554 S
C1039 H1029 0.930 . S
C1039 C1032 1.409 . S
C1039 C1038 1.362 1_556 S
H1040 C1046 0.930 . S
H1041 C1049 0.930 . S
H1042 C1050 0.930 . S
H1043 C1051 0.930 . S
H1044 C1054 0.930 . S
H1045 C1055 0.930 . S
C1046 H1040 0.930 . S
C1046 C1047 1.355 . S
C1046 C1048 1.415 . S
C1047 C1046 1.355 . S
C1047 C1049 1.419 . S
C1048 C1046 1.415 . S
C1048 C1053 1.425 . S
C1048 C1055 1.409 . S
C1049 H1041 0.930 . S
C1049 C1047 1.419 . S
C1049 C1050 1.362 . S
C1050 H1042 0.930 . S
C1050 C1049 1.362 . S
C1050 C1053 1.409 . S
C1051 H1043 0.930 . S
C1051 C1052 1.355 . S
C1051 C1053 1.415 . S
C1052 C1051 1.355 . S
C1052 C1054 1.419 . S
C1053 C1048 1.425 . S
C1053 C1050 1.409 . S
C1053 C1051 1.415 . S
C1054 H1044 0.930 . S
C1054 C1052 1.419 . S
C1054 C1055 1.362 . S
C1055 H1045 0.930 . S
C1055 C1048 1.409 . S
C1055 C1054 1.362 . S
H1056 C1062 0.930 1_565 S
H1057 C1065 0.930 . S
H1058 C1066 0.930 . S
H1059 C1067 0.930 1_545 S
H1060 C1070 0.930 . S
H1061 C1071 0.930 . S
C1062 H1056 0.930 1_545 S
C1062 C1063 1.355 . S
C1062 C1064 1.415 1_545 S
C1063 C1062 1.355 . S
C1063 C1065 1.419 . S
C1064 C1062 1.415 1_565 S
C1064 C1069 1.425 1_565 S
C1064 C1071 1.409 . S
C1065 H1057 0.930 . S
C1065 C1063 1.419 . S
C1065 C1066 1.362 . S
C1066 H1058 0.930 . S
C1066 C1065 1.362 . S
C1066 C1069 1.409 . S
C1067 H1059 0.930 1_565 S
C1067 C1068 1.355 . S
C1067 C1069 1.415 1_565 S
C1068 C1067 1.355 . S
C1068 C1070 1.419 . S
C1069 C1064 1.425 1_545 S
C1069 C1066 1.409 . S
C1069 C1067 1.415 1_545 S
C1070 H1060 0.930 . S
C1070 C1068 1.419 . S
C1070 C1071 1.362 . S
C1071 H1061 0.930 . S
C1071 C1064 1.409 . S
C1071 C1070 1.362 . S
H1072 C1078 0.930 . S
H1073 C1081 0.930 . S
H1074 C1082 0.930 . S
H1075 C1083 0.930 . S
H1076 C1086 0.930 . S
H1077 C1087 0.930 . S
C1078 H1072 0.930 . S
C1078 C1079 1.355 . S
C1078 C1080 1.415 . S
C1079 C1078 1.355 . S
C1079 C1081 1.419 . S
C1080 C1078 1.415 . S
C1080 C1085 1.425 . S
C1080 C1087 1.409 . S
C1081 H1073 0.930 . S
C1081 C1079 1.419 . S
C1081 C1082 1.362 . S
C1082 H1074 0.930 . S
C1082 C1081 1.362 . S
C1082 C1085 1.409 . S
C1083 H1075 0.930 . S
C1083 C1084 1.355 . S
C1083 C1085 1.415 . S
C1084 C1083 1.355 . S
C1084 C1086 1.419 . S
C1085 C1080 1.425 . S
C1085 C1082 1.409 . S
C1085 C1083 1.415 . S
C1086 H1076 0.930 . S
C1086 C1084 1.419 . S
C1086 C1087 1.362 . S
C1087 H1077 0.930 . S
C1087 C1080 1.409 . S
C1087 C1086 1.362 . S
H1088 C1094 0.930 . S
H1089 C1097 0.930 . S
H1090 C1098 0.930 . S
H1091 C1099 0.930 . S
H1092 C1102 0.930 . S
H1093 C1103 0.930 . S
C1094 H1088 0.930 . S
C1094 C1095 1.355 . S
C1094 C1096 1.415 . S
C1095 C1094 1.355 . S
C1095 C1097 1.419 . S
C1096 C1094 1.415 . S
C1096 C1101 1.425 . S
C1096 C1103 1.409 . S
C1097 H1089 0.930 . S
C1097 C1095 1.419 . S
C1097 C1098 1.362 . S
C1098 H1090 0.930 . S
C1098 C1097 1.362 . S
C1098 C1101 1.409 . S
C1099 H1091 0.930 . S
C1099 C1100 1.355 . S
C1099 C1101 1.415 . S
C1100 C1099 1.355 . S
C1100 C1102 1.419 . S
C1101 C1096 1.425 . S
C1101 C1098 1.409 . S
C1101 C1099 1.415 . S
C1102 H1092 0.930 . S
C1102 C1100 1.419 . S
C1102 C1103 1.362 . S
C1103 H1093 0.930 . S
C1103 C1096 1.409 . S
C1103 C1102 1.362 . S
H1104 C1110 0.930 . S
H1105 C1113 0.930 . S
H1106 C1114 0.930 . S
H1107 C1115 0.930 . S
H1108 C1118 0.930 . S
H1109 C1119 0.930 . S
C1110 H1104 0.930 . S
C1110 C1111 1.355 . S
C1110 C1112 1.415 . S
C1111 C1110 1.355 . S
C1111 C1113 1.419 . S
C1112 C1110 1.415 . S
C1112 C1117 1.425 . S
C1112 C1119 1.409 . S
C1113 H1105 0.930 . S
C1113 C1111 1.419 . S
C1113 C1114 1.362 . S
C1114 H1106 0.930 . S
C1114 C1113 1.362 . S
C1114 C1117 1.409 . S
C1115 H1107 0.930 . S
C1115 C1116 1.355 . S
C1115 C1117 1.415 . S
C1116 C1115 1.355 . S
C1116 C1118 1.419 . S
C1117 C1112 1.425 . S
C1117 C1114 1.409 . S
C1117 C1115 1.415 . S
C1118 H1108 0.930 . S
C1118 C1116 1.419 . S
C1118 C1119 1.362 . S
C1119 H1109 0.930 . S
C1119 C1112 1.409 . S
C1119 C1118 1.362 . S
H1120 C1126 0.930 . S
H1121 C1129 0.930 . S
H1122 C1130 0.930 . S
H1123 C1131 0.930 . S
H1124 C1134 0.930 . S
H1125 C1135 0.930 . S
C1126 H1120 0.930 . S
C1126 C1127 1.355 . S
C1126 C1128 1.415 . S
C1127 C1126 1.355 . S
C1127 C1129 1.419 . S
C1128 C1126 1.415 . S
C1128 C1133 1.425 . S
C1128 C1135 1.409 . S
C1129 H1121 0.930 . S
C1129 C1127 1.419 . S
C1129 C1130 1.362 . S
C1130 H1122 0.930 . S
C1130 C1129 1.362 . S
C1130 C1133 1.409 . S
C1131 H1123 0.930 . S
C1131 C1132 1.355 . S
C1131 C1133 1.415 . S
C1132 C1131 1.355 . S
C1132 C1134 1.419 . S
C1133 C1128 1.425 . S
C1133 C1130 1.409 . S
C1133 C1131 1.415 . S
C1134 H1124 0.930 . S
C1134 C1132 1.419 . S
C1134 C1135 1.362 . S
C1135 H1125 0.930 . S
C1135 C1128 1.409 . S
C1135 C1134 1.362 . S
H1136 C1142 0.930 . S
H1137 C1145 0.930 . S
H1138 C1146 0.930 . S
H1139 C1147 0.930 . S
H1140 C1150 0.930 . S
H1141 C1151 0.930 . S
C1142 H1136 0.930 . S
C1142 C1143 1.355 . S
C1142 C1144 1.415 . S
C1143 C1142 1.355 . S
C1143 C1145 1.419 . S
C1144 C1142 1.415 . S
C1144 C1149 1.425 . S
C1144 C1151 1.409 . S
C1145 H1137 0.930 . S
C1145 C1143 1.419 . S
C1145 C1146 1.362 . S
C1146 H1138 0.930 . S
C1146 C1145 1.362 . S
C1146 C1149 1.409 . S
C1147 H1139 0.930 . S
C1147 C1148 1.355 . S
C1147 C1149 1.415 . S
C1148 C1147 1.355 . S
C1148 C1150 1.419 . S
C1149 C1144 1.425 . S
C1149 C1146 1.409 . S
C1149 C1147 1.415 . S
C1150 H1140 0.930 . S
C1150 C1148 1.419 . S
C1150 C1151 1.362 . S
C1151 H1141 0.930 . S
C1151 C1144 1.409 . S
C1151 C1150 1.362 . S
H1152 C1158 0.930 . S
H1153 C1161 0.930 . S
H1154 C1162 0.930 . S
H1155 C1163 0.930 . S
H1156 C1166 0.930 . S
H1157 C1167 0.930 . S
C1158 H1152 0.930 . S
C1158 C1159 1.355 . S
C1158 C1160 1.415 . S
C1159 C1158 1.355 . S
C1159 C1161 1.419 1_455 S
C1160 C1158 1.415 . S
C1160 C1165 1.425 1_465 S
C1160 C1167 1.409 . S
C1161 H1153 0.930 . S
C1161 C1159 1.419 1_655 S
C1161 C1162 1.362 1_565 S
C1162 H1154 0.930 . S
C1162 C1161 1.362 1_545 S
C1162 C1165 1.409 . S
C1163 H1155 0.930 . S
C1163 C1164 1.355 . S
C1163 C1165 1.415 . S
C1164 C1163 1.355 . S
C1164 C1166 1.419 1_655 S
C1165 C1160 1.425 1_645 S
C1165 C1162 1.409 . S
C1165 C1163 1.415 . S
C1166 H1156 0.930 . S
C1166 C1164 1.419 1_455 S
C1166 C1167 1.362 1_545 S
C1167 H1157 0.930 . S
C1167 C1160 1.409 . S
C1167 C1166 1.362 1_565 S
H1168 C1174 0.930 . S
H1169 C1177 0.930 . S
H1170 C1178 0.930 . S
H1171 C1179 0.930 . S
H1172 C1182 0.930 . S
H1173 C1183 0.930 . S
C1174 H1168 0.930 . S
C1174 C1175 1.355 . S
C1174 C1176 1.415 . S
C1175 C1174 1.355 . S
C1175 C1177 1.419 1_655 S
C1176 C1174 1.415 . S
C1176 C1181 1.425 1_655 S
C1176 C1183 1.409 . S
C1177 H1169 0.930 . S
C1177 C1175 1.419 1_455 S
C1177 C1178 1.362 . S
C1178 H1170 0.930 . S
C1178 C1177 1.362 . S
C1178 C1181 1.409 . S
C1179 H1171 0.930 . S
C1179 C1180 1.355 . S
C1179 C1181 1.415 . S
C1180 C1179 1.355 . S
C1180 C1182 1.419 1_455 S
C1181 C1176 1.425 1_455 S
C1181 C1178 1.409 . S
C1181 C1179 1.415 . S
C1182 H1172 0.930 . S
C1182 C1180 1.419 1_655 S
C1182 C1183 1.362 . S
C1183 H1173 0.930 . S
C1183 C1176 1.409 . S
C1183 C1182 1.362 . S
H1184 C1190 0.930 . S
H1185 C1193 0.930 . S
H1186 C1194 0.930 . S
H1187 C1195 0.930 . S
H1188 C1198 0.930 . S
H1189 C1199 0.930 . S
C1190 H1184 0.930 . S
C1190 C1191 1.355 1_455 S
C1190 C1192 1.415 . S
C1191 C1190 1.355 1_655 S
C1191 C1193 1.419 . S
C1192 C1190 1.415 . S
C1192 C1197 1.425 1_455 S
C1192 C1199 1.409 . S
C1193 H1185 0.930 . S
C1193 C1191 1.419 . S
C1193 C1194 1.362 . S
C1194 H1186 0.930 . S
C1194 C1193 1.362 . S
C1194 C1197 1.409 . S
C1195 H1187 0.930 . S
C1195 C1196 1.355 1_655 S
C1195 C1197 1.415 . S
C1196 C1195 1.355 1_455 S
C1196 C1198 1.419 . S
C1197 C1192 1.425 1_655 S
C1197 C1194 1.409 . S
C1197 C1195 1.415 . S
C1198 H1188 0.930 . S
C1198 C1196 1.419 . S
C1198 C1199 1.362 . S
C1199 H1189 0.930 . S
C1199 C1192 1.409 . S
C1199 C1198 1.362 . S
H1200 C1206 0.930 . S
H1201 C1209 0.930 . S
H1202 C1210 0.930 . S
H1203 C1211 0.930 . S
H1204 C1214 0.930 . S
H1205 C1215 0.930 . S
C1206 H1200 0.930 . S
C1206 C1207 1.355 1_655 S
C1206 C1208 1.415 . S
C1207 C1206 1.355 1_455 S
C1207 C1209 1.419 . S
C1208 C1206 1.415 . S
C1208 C1213 1.425 1_656 S
C1208 C1215 1.409 . S
C1209 H1201 0.930 . S
C1209 C1207 1.419 . S
C1209 C1210 1.362 1_556 S
C1210 H1202 0.930 . S
C1210 C1209 1.362 1_554 S
C1210 C1213 1.409 . S
C1211 H1203 0.930 . S
C1211 C1212 1.355 1_455 S
C1211 C1213 1.415 . S
C1212 C1211 1.355 1_655 S
C1212 C1214 1.419 . S
C1213 C1208 1.425 1_454 S
C1213 C1210 1.409 . S
C1213 C1211 1.415 . S
C1214 H1204 0.930 . S
C1214 C1212 1.419 . S
C1214 C1215 1.362 1_554 S
C1215 H1205 0.930 . S
C1215 C1208 1.409 . S
C1215 C1214 1.362 1_556 S
H1216 C1222 0.930 . S
H1217 C1225 0.930 . S
H1218 C1226 0.930 . S
H1219 C1227 0.930 . S
H1220 C1230 0.930 . S
H1221 C1231 0.930 . S
C1222 H1216 0.930 . S
C1222 C1223 1.355 . S
C1222 C1224 1.415 . S
C1223 C1222 1.355 . S
C1223 C1225 1.419 . S
C1224 C1222 1.415 . S
C1224 C1229 1.425 . S
C1224 C1231 1.409 . S
C1225 H1217 0.930 . S
C1225 C1223 1.419 . S
C1225 C1226 1.362 . S
C1226 H1218 0.930 . S
C1226 C1225 1.362 . S
C1226 C1229 1.409 . S
C1227 H1219 0.930 . S
C1227 C1228 1.355 . S
C1227 C1229 1.415 . S
C1228 C1227 1.355 . S
C1228 C1230 1.419 . S
C1229 C1224 1.425 . S
C1229 C1226 1.409 . S
C1229 C1227 1.415 . S
C1230 H1220 0.930 . S
C1230 C1228 1.419 . S
C1230 C1231 1.362 . S
C1231 H1221 0.930 . S
C1231 C1224 1.409 . S
C1231 C1230 1.362 . S
H1232 C1238 0.930 . S
H1233 C1241 0.930 . S
H1234 C1242 0.930 . S
H1235 C1243 0.930 . S
H1236 C1246 0.930 . S
H1237 C1247 0.930 . S
C1238 H1232 0.930 . S
C1238 C1239 1.355 . S
C1238 C1240 1.415 . S
C1239 C1238 1.355 . S
C1239 C1241 1.419 . S
C1240 C1238 1.415 . S
C1240 C1245 1.425 . S
C1240 C1247 1.409 . S
C1241 H1233 0.930 . S
C1241 C1239 1.419 . S
C1241 C1242 1.362 . S
C1242 H1234 0.930 . S
C1242 C1241 1.362 . S
C1242 C1245 1.409 . S
C1243 H1235 0.930 . S
C1243 C1244 1.355 . S
C1243 C1245 1.415 . S
C1244 C1243 1.355 . S
C1244 C1246 1.419 . S
C1245 C1240 1.425 . S
C1245 C1242 1.409 . S
C1245 C1243 1.415 . S
C1246 H1236 0.930 . S
C1246 C1244 1.419 . S
C1246 C1247 1.362 . S
C1247 H1237 0.930 . S
C1247 C1240 1.409 . S
C1247 C1246 1.362 . S
H1248 C1254 0.930 . S
H1249 C1257 0.930 . S
H1250 C1258 0.930 . S
H1251 C1259 0.930 . S
H1252 C1262 0.930 . S
H1253 C1263 0.930 . S
C1254 H1248 0.930 . S
C1254 C1255 1.355 . S
C1254 C1256 1.415 . S
C1255 C1254 1.355 . S
C1255 C1257 1.419 . S
C1256 C1254 1.415 . S
C1256 C1261 1.425 . S
C1256 C1263 1.409 . S
C1257 H1249 0.930 . S
C1257 C1255 1.419 . S
C1257 C1258 1.362 . S
C1258 H1250 0.930 . S
C1258 C1257 1.362 . S
C1258 C1261 1.409 . S
C1259 H1251 0.930 . S
C1259 C1260 1.355 . S
C1259 C1261 1.415 . S
C1260 C1259 1.355 . S
C1260 C1262 1.419 . S
C1261 C1256 1.425 . S
C1261 C1258 1.409 . S
C1261 C1259 1.415 . S
C1262 H1252 0.930 . S
C1262 C1260 1.419 . S
C1262 C1263 1.362 . S
C1263 H1253 0.930 . S
C1263 C1256 1.409 . S
C1263 C1262 1.362 . S
H1264 C1270 0.930 . S
H1265 C1273 0.930 . S
H1266 C1274 0.930 . S
H1267 C1275 0.930 . S
H1268 C1278 0.930 . S
H1269 C1279 0.930 . S
C1270 H1264 0.930 . S
C1270 C1271 1.355 . S
C1270 C1272 1.415 . S
C1271 C1270 1.355 . S
C1271 C1273 1.419 . S
C1272 C1270 1.415 . S
C1272 C1277 1.425 . S
C1272 C1279 1.409 . S
C1273 H1265 0.930 . S
C1273 C1271 1.419 . S
C1273 C1274 1.362 . S
C1274 H1266 0.930 . S
C1274 C1273 1.362 . S
C1274 C1277 1.409 . S
C1275 H1267 0.930 . S
C1275 C1276 1.355 . S
C1275 C1277 1.415 . S
C1276 C1275 1.355 . S
C1276 C1278 1.419 . S
C1277 C1272 1.425 . S
C1277 C1274 1.409 . S
C1277 C1275 1.415 . S
C1278 H1268 0.930 . S
C1278 C1276 1.419 . S
C1278 C1279 1.362 . S
C1279 H1269 0.930 . S
C1279 C1272 1.409 . S
C1279 C1278 1.362 . S
H1280 C1286 0.930 . S
H1281 C1289 0.930 . S
H1282 C1290 0.930 . S
H1283 C1291 0.930 . S
H1284 C1294 0.930 . S
H1285 C1295 0.930 . S
C1286 H1280 0.930 . S
C1286 C1287 1.355 . S
C1286 C1288 1.415 . S
C1287 C1286 1.355 . S
C1287 C1289 1.419 . S
C1288 C1286 1.415 . S
C1288 C1293 1.425 . S
C1288 C1295 1.409 . S
C1289 H1281 0.930 . S
C1289 C1287 1.419 . S
C1289 C1290 1.362 . S
C1290 H1282 0.930 . S
C1290 C1289 1.362 . S
C1290 C1293 1.409 . S
C1291 H1283 0.930 . S
C1291 C1292 1.355 . S
C1291 C1293 1.415 . S
C1292 C1291 1.355 . S
C1292 C1294 1.419 . S
C1293 C1288 1.425 . S
C1293 C1290 1.409 . S
C1293 C1291 1.415 . S
C1294 H1284 0.930 . S
C1294 C1292 1.419 . S
C1294 C1295 1.362 . S
C1295 H1285 0.930 . S
C1295 C1288 1.409 . S
C1295 C1294 1.362 . S
H1296 C1302 0.930 . S
H1297 C1305 0.930 . S
H1298 C1306 0.930 . S
H1299 C1307 0.930 . S
H1300 C1310 0.930 . S
H1301 C1311 0.930 . S
C1302 H1296 0.930 . S
C1302 C1303 1.355 . S
C1302 C1304 1.415 . S
C1303 C1302 1.355 . S
C1303 C1305 1.419 . S
C1304 C1302 1.415 . S
C1304 C1309 1.425 . S
C1304 C1311 1.409 . S
C1305 H1297 0.930 . S
C1305 C1303 1.419 . S
C1305 C1306 1.362 . S
C1306 H1298 0.930 . S
C1306 C1305 1.362 . S
C1306 C1309 1.409 . S
C1307 H1299 0.930 . S
C1307 C1308 1.355 . S
C1307 C1309 1.415 . S
C1308 C1307 1.355 . S
C1308 C1310 1.419 . S
C1309 C1304 1.425 . S
C1309 C1306 1.409 . S
C1309 C1307 1.415 . S
C1310 H1300 0.930 . S
C1310 C1308 1.419 . S
C1310 C1311 1.362 . S
C1311 H1301 0.930 . S
C1311 C1304 1.409 . S
C1311 C1310 1.362 . S
H1312 C1318 0.930 . S
H1313 C1321 0.930 . S
H1314 C1322 0.930 . S
H1315 C1323 0.930 . S
H1316 C1326 0.930 . S
H1317 C1327 0.930 . S
C1318 H1312 0.930 . S
C1318 C1319 1.355 . S
C1318 C1320 1.415 . S
C1319 C1318 1.355 . S
C1319 C1321 1.419 . S
C1320 C1318 1.415 . S
C1320 C1325 1.425 . S
C1320 C1327 1.409 . S
C1321 H1313 0.930 . S
C1321 C1319 1.419 . S
C1321 C1322 1.362 . S
C1322 H1314 0.930 . S
C1322 C1321 1.362 . S
C1322 C1325 1.409 . S
C1323 H1315 0.930 . S
C1323 C1324 1.355 . S
C1323 C1325 1.415 . S
C1324 C1323 1.355 . S
C1324 C1326 1.419 . S
C1325 C1320 1.425 . S
C1325 C1322 1.409 . S
C1325 C1323 1.415 . S
C1326 H1316 0.930 . S
C1326 C1324 1.419 . S
C1326 C1327 1.362 . S
C1327 H1317 0.930 . S
C1327 C1320 1.409 . S
C1327 C1326 1.362 . S
H1328 C1334 0.930 . S
H1329 C1337 0.930 . S
H1330 C1338 0.930 . S
H1331 C1339 0.930 . S
H1332 C1342 0.930 . S
H1333 C1343 0.930 . S
C1334 H1328 0.930 . S
C1334 C1335 1.355 . S
C1334 C1336 1.415 . S
C1335 C1334 1.355 . S
C1335 C1337 1.419 . S
C1336 C1334 1.415 . S
C1336 C1341 1.425 . S
C1336 C1343 1.409 . S
C1337 H1329 0.930 . S
C1337 C1335 1.419 . S
C1337 C1338 1.362 . S
C1338 H1330 0.930 . S
C1338 C1337 1.362 . S
C1338 C1341 1.409 . S
C1339 H1331 0.930 . S
C1339 C1340 1.355 . S
C1339 C1341 1.415 . S
C1340 C1339 1.355 . S
C1340 C1342 1.419 . S
C1341 C1336 1.425 . S
C1341 C1338 1.409 . S
C1341 C1339 1.415 . S
C1342 H1332 0.930 . S
C1342 C1340 1.419 . S
C1342 C1343 1.362 . S
C1343 H1333 0.930 . S
C1343 C1336 1.409 . S
C1343 C1342 1.362 . S
H1344 C1350 0.930 . S
H1345 C1353 0.930 . S
H1346 C1354 0.930 . S
H1347 C1355 0.930 . S
H1348 C1358 0.930 . S
H1349 C1359 0.930 . S
C1350 H1344 0.930 . S
C1350 C1351 1.355 . S
C1350 C1352 1.415 . S
C1351 C1350 1.355 . S
C1351 C1353 1.419 . S
C1352 C1350 1.415 . S
C1352 C1357 1.425 . S
C1352 C1359 1.409 . S
C1353 H1345 0.930 . S
C1353 C1351 1.419 . S
C1353 C1354 1.362 . S
C1354 H1346 0.930 . S
C1354 C1353 1.362 . S
C1354 C1357 1.409 . S
C1355 H1347 0.930 . S
C1355 C1356 1.355 . S
C1355 C1357 1.415 . S
C1356 C1355 1.355 . S
C1356 C1358 1.419 . S
C1357 C1352 1.425 . S
C1357 C1354 1.409 . S
C1357 C1355 1.415 . S
C1358 H1348 0.930 . S
C1358 C1356 1.419 . S
C1358 C1359 1.362 . S
C1359 H1349 0.930 . S
C1359 C1352 1.409 . S
C1359 C1358 1.362 . S
H1360 C1366 0.930 . S
H1361 C1369 0.930 . S
H1362 C1370 0.930 . S
H1363 C1371 0.930 . S
H1364 C1374 0.930 . S
H1365 C1375 0.930 . S
C1366 H1360 0.930 . S
C1366 C1367 1.355 . S
C1366 C1368 1.415 . S
C1367 C1366 1.355 . S
C1367 C1369 1.419 . S
C1368 C1366 1.415 . S
C1368 C1373 1.425 . S
C1368 C1375 1.409 . S
C1369 H1361 0.930 . S
C1369 C1367 1.419 . S
C1369 C1370 1.362 . S
C1370 H1362 0.930 . S
C1370 C1369 1.362 . S
C1370 C1373 1.409 . S
C1371 H1363 0.930 . S
C1371 C1372 1.355 . S
C1371 C1373 1.415 . S
C1372 C1371 1.355 . S
C1372 C1374 1.419 . S
C1373 C1368 1.425 . S
C1373 C1370 1.409 . S
C1373 C1371 1.415 . S
C1374 H1364 0.930 . S
C1374 C1372 1.419 . S
C1374 C1375 1.362 . S
C1375 H1365 0.930 . S
C1375 C1368 1.409 . S
C1375 C1374 1.362 . S
H1376 C1382 0.930 . S
H1377 C1385 0.930 . S
H1378 C1386 0.930 . S
H1379 C1387 0.930 . S
H1380 C1390 0.930 . S
H1381 C1391 0.930 . S
C1382 H1376 0.930 . S
C1382 C1383 1.355 . S
C1382 C1384 1.415 . S
C1383 C1382 1.355 . S
C1383 C1385 1.419 . S
C1384 C1382 1.415 . S
C1384 C1389 1.425 . S
C1384 C1391 1.409 . S
C1385 H1377 0.930 . S
C1385 C1383 1.419 . S
C1385 C1386 1.362 . S
C1386 H1378 0.930 . S
C1386 C1385 1.362 . S
C1386 C1389 1.409 . S
C1387 H1379 0.930 . S
C1387 C1388 1.355 . S
C1387 C1389 1.415 . S
C1388 C1387 1.355 . S
C1388 C1390 1.419 . S
C1389 C1384 1.425 . S
C1389 C1386 1.409 . S
C1389 C1387 1.415 . S
C1390 H1380 0.930 . S
C1390 C1388 1.419 . S
C1390 C1391 1.362 . S
C1391 H1381 0.930 . S
C1391 C1384 1.409 . S
C1391 C1390 1.362 . S
H1392 C1398 0.930 . S
H1393 C1401 0.930 . S
H1394 C1402 0.930 . S
H1395 C1403 0.930 . S
H1396 C1406 0.930 . S
H1397 C1407 0.930 . S
C1398 H1392 0.930 . S
C1398 C1399 1.355 . S
C1398 C1400 1.415 . S
C1399 C1398 1.355 . S
C1399 C1401 1.419 . S
C1400 C1398 1.415 . S
C1400 C1405 1.425 . S
C1400 C1407 1.409 . S
C1401 H1393 0.930 . S
C1401 C1399 1.419 . S
C1401 C1402 1.362 . S
C1402 H1394 0.930 . S
C1402 C1401 1.362 . S
C1402 C1405 1.409 . S
C1403 H1395 0.930 . S
C1403 C1404 1.355 . S
C1403 C1405 1.415 . S
C1404 C1403 1.355 . S
C1404 C1406 1.419 . S
C1405 C1400 1.425 . S
C1405 C1402 1.409 . S
C1405 C1403 1.415 . S
C1406 H1396 0.930 . S
C1406 C1404 1.419 . S
C1406 C1407 1.362 . S
C1407 H1397 0.930 . S
C1407 C1400 1.409 . S
C1407 C1406 1.362 . S
H1408 C1414 0.930 . S
H1409 C1417 0.930 . S
H1410 C1418 0.930 . S
H1411 C1419 0.930 . S
H1412 C1422 0.930 . S
H1413 C1423 0.930 . S
C1414 H1408 0.930 . S
C1414 C1415 1.355 . S
C1414 C1416 1.415 . S
C1415 C1414 1.355 . S
C1415 C1417 1.419 . S
C1416 C1414 1.415 . S
C1416 C1421 1.425 . S
C1416 C1423 1.409 . S
C1417 H1409 0.930 . S
C1417 C1415 1.419 . S
C1417 C1418 1.362 . S
C1418 H1410 0.930 . S
C1418 C1417 1.362 . S
C1418 C1421 1.409 . S
C1419 H1411 0.930 . S
C1419 C1420 1.355 . S
C1419 C1421 1.415 . S
C1420 C1419 1.355 . S
C1420 C1422 1.419 . S
C1421 C1416 1.425 . S
C1421 C1418 1.409 . S
C1421 C1419 1.415 . S
C1422 H1412 0.930 . S
C1422 C1420 1.419 . S
C1422 C1423 1.362 . S
C1423 H1413 0.930 . S
C1423 C1416 1.409 . S
C1423 C1422 1.362 . S
H1424 C1430 0.930 . S
H1425 C1433 0.930 . S
H1426 C1434 0.930 . S
H1427 C1435 0.930 . S
H1428 C1438 0.930 . S
H1429 C1439 0.930 . S
C1430 H1424 0.930 . S
C1430 C1431 1.355 . S
C1430 C1432 1.415 . S
C1431 C1430 1.355 . S
C1431 C1433 1.419 . S
C1432 C1430 1.415 . S
C1432 C1437 1.425 . S
C1432 C1439 1.409 . S
C1433 H1425 0.930 . S
C1433 C1431 1.419 . S
C1433 C1434 1.362 . S
C1434 H1426 0.930 . S
C1434 C1433 1.362 . S
C1434 C1437 1.409 . S
C1435 H1427 0.930 . S
C1435 C1436 1.355 . S
C1435 C1437 1.415 . S
C1436 C1435 1.355 . S
C1436 C1438 1.419 . S
C1437 C1432 1.425 . S
C1437 C1434 1.409 . S
C1437 C1435 1.415 . S
C1438 H1428 0.930 . S
C1438 C1436 1.419 . S
C1438 C1439 1.362 . S
C1439 H1429 0.930 . S
C1439 C1432 1.409 . S
C1439 C1438 1.362 . S
H1440 C1446 0.930 . S
H1441 C1449 0.930 . S
H1442 C1450 0.930 . S
H1443 C1451 0.930 . S
H1444 C1454 0.930 . S
H1445 C1455 0.930 . S
C1446 H1440 0.930 . S
C1446 C1447 1.355 . S
C1446 C1448 1.415 . S
C1447 C1446 1.355 . S
C1447 C1449 1.419 . S
C1448 C1446 1.415 . S
C1448 C1453 1.425 . S
C1448 C1455 1.409 . S
C1449 H1441 0.930 . S
C1449 C1447 1.419 . S
C1449 C1450 1.362 . S
C1450 H1442 0.930 . S
C1450 C1449 1.362 . S
C1450 C1453 1.409 . S
C1451 H1443 0.930 . S
C1451 C1452 1.355 . S
C1451 C1453 1.415 . S
C1452 C1451 1.355 . S
C1452 C1454 1.419 . S
C1453 C1448 1.425 . S
C1453 C1450 1.409 . S
C1453 C1451 1.415 . S
C1454 H1444 0.930 . S
C1454 C1452 1.419 . S
C1454 C1455 1.362 . S
C1455 H1445 0.930 . S
C1455 C1448 1.409 . S
C1455 C1454 1.362 . S
H1456 C1462 0.930 . S
H1457 C1465 0.930 . S
H1458 C1466 0.930 . S
H1459 C1467 0.930 . S
H1460 C1470 0.930 . S
H1461 C1471 0.930 . S
C1462 H1456 0.930 . S
C1462 C1463 1.355 . S
C1462 C1464 1.415 . S
C1463 C1462 1.355 . S
C1463 C1465 1.419 . S
C1464 C1462 1.415 . S
C1464 C1469 1.425 . S
C1464 C1471 1.409 . S
C1465 H1457 0.930 . S
C1465 C1463 1.419 . S
C1465 C1466 1.362 . S
C1466 H1458 0.930 . S
C1466 C1465 1.362 . S
C1466 C1469 1.409 . S
C1467 H1459 0.930 . S
C1467 C1468 1.355 . S
C1467 C1469 1.415 . S
C1468 C1467 1.355 . S
C1468 C1470 1.419 . S
C1469 C1464 1.425 . S
C1469 C1466 1.409 . S
C1469 C1467 1.415 . S
C1470 H1460 0.930 . S
C1470 C1468 1.419 . S
C1470 C1471 1.362 . S
C1471 H1461 0.930 . S
C1471 C1464 1.409 . S
C1471 C1470 1.362 . S
C455 C7 1.750 . S
C460 C35 1.724 . S
C471 C49 1.751 . S
C476 C21 1.741 . S
C487 C91 1.739 . S
C492 C63 1.754 . S
C503 C105 1.736 . S
C508 C77 1.752 . S
C519 C119 1.722 . S
C524 C147 1.748 . S
C535 C161 1.753 . S
C540 C133 1.740 . S
C551 C175 1.734 . S
C556 C203 1.716 . S
C567 C217 1.726 . S
C572 C189 1.717 . S
C583 C231 1.736 . S
C588 C259 1.754 . S
C599 C245 1.735 . S
C604 C273 1.716 . S
C615 C315 1.754 . S
C620 C287 1.732 . S
C631 C301 1.745 . S
C636 C329 1.750 . S
C647 C371 1.748 . S
C652 C343 1.751 . S
C663 C385 1.734 . S
C668 C357 1.752 . S
C679 C427 1.749 . S
C684 C399 1.750 . S
C695 C413 1.715 . S
C700 C441 1.727 . S
C711 C356 1.217 . S
C716 C6 1.210 . S
C727 C20 1.218 . S
C732 C342 1.244 . S
C743 C34 1.251 . S
C748 C384 1.259 . S
C759 C48 1.250 . S
C764 C370 1.259 . S
C775 C412 1.257 . S
C780 C62 1.254 . S
C791 C76 1.220 . S
C796 C398 1.210 . S
C807 C90 1.220 . S
C812 C440 1.210 . S
C823 C426 1.209 . S
C828 C104 1.224 . S
C839 C118 1.233 . S
C844 C244 1.211 . S
C855 C132 1.210 . S
C860 C230 1.222 . S
C871 C146 1.212 . S
C876 C272 1.215 . S
C887 C160 1.252 . S
C892 C258 1.258 . S
C903 C174 1.260 . S
C908 C300 1.245 . S
C919 C286 1.260 . S
C924 C188 1.244 . S
C935 C328 1.259 . S
C940 C202 1.247 . S
C951 C216 1.225 . S
C956 C314 1.209 . S
C967 C8 1.342 . S
C972 C64 1.342 . S
C983 C22 1.451 . S
C988 C414 1.451 . S
C999 C36 1.358 . S
C1004 C204 1.358 . S
C1015 C50 1.460 . S
C1020 C330 1.460 . S
C1031 C78 1.472 . S
C1036 C358 1.472 . S
C1047 C148 1.403 . S
C1052 C92 1.403 . S
C1063 C274 1.423 . S
C1068 C106 1.423 . S
C1079 C176 1.364 . S
C1084 C120 1.364 . S
C1095 C134 1.459 . S
C1100 C302 1.459 . S
C1111 C442 1.350 . S
C1116 C162 1.350 . S
C1127 C190 1.387 . S
C1132 C246 1.387 . S
C1143 C218 1.351 . S
C1148 C386 1.351 . S
C1159 C288 1.363 . S
C1164 C232 1.363 . S
C1175 C260 1.385 . S
C1180 C428 1.385 . S
C1191 C372 1.472 . S
C1196 C316 1.472 . S
C1207 C400 1.428 . S
C1212 C344 1.428 . S
C1223 C9 1.591 . S
C1228 C23 1.586 . S
C1239 C37 1.588 . S
C1244 C51 1.580 . S
C1255 C65 1.530 . S
C1260 C79 1.533 . S
C1271 C93 1.533 . S
C1276 C107 1.530 . S
C1287 C135 1.571 . S
C1292 C121 1.581 . S
C1303 C149 1.535 . S
C1308 C163 1.543 . S
C1319 C177 1.543 . S
C1324 C191 1.535 . S
C1335 C205 1.593 . S
C1340 C219 1.592 . S
C1351 C233 1.530 . S
C1356 C247 1.531 . S
C1367 C275 1.531 . S
C1372 C261 1.537 . S
C1383 C289 1.591 . S
C1388 C303 1.586 . S
C1399 C317 1.543 . S
C1404 C331 1.535 . S
C1415 C359 1.589 . S
C1420 C345 1.593 . S
C1431 C373 1.533 . S
C1436 C387 1.540 . S
C1447 C415 1.592 . S
C1452 C401 1.593 . S
C1463 C429 1.538 . S
C1468 C443 1.532 . S
