# Generated by pormake.
# Topology wkw, (8)-cn, num edge types: 1
# Building blocks:
#     Node 0, Type 0, BuildingBlock: TAGTUT_clean_sbu_1, # of connection points: 8
#     Node 1, Type 0, BuildingBlock: TAGTUT_clean_sbu_1, # of connection points: 8
#     Node 2, Type 0, BuildingBlock: TAGTUT_clean_sbu_1, # of connection points: 8
#     Node 3, Type 0, BuildingBlock: TAGTUT_clean_sbu_1, # of connection points: 8
#     Node 4, Type 0, BuildingBlock: TAGTUT_clean_sbu_1, # of connection points: 8
#     Node 5, Type 0, BuildingBlock: TAGTUT_clean_sbu_1, # of connection points: 8
#     Edge 6, Type (0, 0), BuildingBlock: TEMPAE_clean_linker_10, # of connection points: 2
#     Edge 7, Type (0, 0), BuildingBlock: TEMPAE_clean_linker_10, # of connection points: 2
#     Edge 8, Type (0, 0), BuildingBlock: TEMPAE_clean_linker_10, # of connection points: 2
#     Edge 9, Type (0, 0), BuildingBlock: TEMPAE_clean_linker_10, # of connection points: 2
#     Edge 10, Type (0, 0), BuildingBlock: TEMPAE_clean_linker_10, # of connection points: 2
#     Edge 11, Type (0, 0), BuildingBlock: TEMPAE_clean_linker_10, # of connection points: 2
#     Edge 12, Type (0, 0), BuildingBlock: TEMPAE_clean_linker_10, # of connection points: 2
#     Edge 13, Type (0, 0), BuildingBlock: TEMPAE_clean_linker_10, # of connection points: 2
#     Edge 14, Type (0, 0), BuildingBlock: TEMPAE_clean_linker_10, # of connection points: 2
#     Edge 15, Type (0, 0), BuildingBlock: TEMPAE_clean_linker_10, # of connection points: 2
#     Edge 16, Type (0, 0), BuildingBlock: TEMPAE_clean_linker_10, # of connection points: 2
#     Edge 17, Type (0, 0), BuildingBlock: TEMPAE_clean_linker_10, # of connection points: 2
#     Edge 18, Type (0, 0), BuildingBlock: TEMPAE_clean_linker_10, # of connection points: 2
#     Edge 19, Type (0, 0), BuildingBlock: TEMPAE_clean_linker_10, # of connection points: 2
#     Edge 20, Type (0, 0), BuildingBlock: TEMPAE_clean_linker_10, # of connection points: 2
#     Edge 21, Type (0, 0), BuildingBlock: TEMPAE_clean_linker_10, # of connection points: 2
#     Edge 22, Type (0, 0), BuildingBlock: TEMPAE_clean_linker_10, # of connection points: 2
#     Edge 23, Type (0, 0), BuildingBlock: TEMPAE_clean_linker_10, # of connection points: 2
#     Edge 24, Type (0, 0), BuildingBlock: TEMPAE_clean_linker_10, # of connection points: 2
#     Edge 25, Type (0, 0), BuildingBlock: TEMPAE_clean_linker_10, # of connection points: 2
#     Edge 26, Type (0, 0), BuildingBlock: TEMPAE_clean_linker_10, # of connection points: 2
#     Edge 27, Type (0, 0), BuildingBlock: TEMPAE_clean_linker_10, # of connection points: 2
#     Edge 28, Type (0, 0), BuildingBlock: TEMPAE_clean_linker_10, # of connection points: 2
#     Edge 29, Type (0, 0), BuildingBlock: TEMPAE_clean_linker_10, # of connection points: 2
# Relax obj value: 0.240
# Max RMSD: 0.273
# Mean RMSD: 0.273
data_MOF--net-wkw--node1-TAGTUT_clean_sbu_1--edge1-TEMPAE_clean_linker_10
_symmetry_space_group_name_H-M    P1
_symmetry_Int_Tables_number       1
_symmetry_cell_setting            triclinic
loop_
_symmetry_equiv_pos_as_xyz
'x, y, z'
_cell_length_a     40.135481
_cell_length_b     40.01903
_cell_length_c     18.927537
_cell_angle_alpha  89.961727
_cell_angle_beta   90.027359
_cell_angle_gamma 120.01203
loop_
_atom_site_label
_atom_site_type_symbol
_atom_site_fract_x
_atom_site_fract_y
_atom_site_fract_z
_atom_type_partial_charge
C0 C 0.77131 0.2221 0.85114 0.0
C1 C 0.87677 0.31451 0.76023 0.0
C2 C 0.94587 0.27574 0.9802 0.0
Mg3 Mg 0.82649 0.30659 0.88896 0.0
O4 O 0.85006 0.28372 0.93842 0.0
Mg5 Mg 0.86467 0.24972 0.88714 0.0
Mg6 Mg 0.89683 0.31437 -0.00612 0.0
O7 O 0.94471 0.3465 0.0564 0.0
Mg8 Mg 0.95802 0.31345 0.11785 0.0
Mg9 Mg 0.93141 0.38958 0.09121 0.0
C10 C 0.8486 0.36009 0.02355 0.0
C11 C 0.93728 0.39998 0.92044 0.0
O12 O 0.79961 0.21551 0.84934 0.0
O13 O 0.77513 0.25475 0.86799 0.0
O14 O 0.88181 0.28786 0.78657 0.0
O15 O 0.85729 0.32715 0.79199 0.0
O16 O 0.82845 0.34716 0.96711 0.0
O17 O 0.8714 0.34816 0.04484 0.0
C18 C 0.84918 0.22497 0.05078 0.0
O19 O 0.86597 0.26047 0.07151 0.0
O20 O 0.84761 0.21573 0.98597 0.0
O21 O 0.97839 0.37393 0.07872 0.0
O22 O 0.01893 0.36066 0.12797 0.0
O23 O 0.91633 0.36009 0.20073 0.0
C24 C 0.01073 0.38654 0.1111 0.0
O25 O 0.92803 0.31098 0.21508 0.0
O26 O 0.93201 0.26592 0.04203 0.0
C27 C 0.91616 0.33332 0.238 0.0
O28 O 0.92777 0.28548 0.93595 0.0
O29 O 0.91997 0.36338 0.91305 0.0
O30 O 0.94637 0.41608 0.98091 0.0
C31 C 0.55508 0.7685 -0.00754 0.0
C32 C 0.56831 0.87216 0.89409 0.0
C33 C 0.67399 0.94616 0.12021 0.0
Mg34 Mg 0.52516 0.82376 0.02426 0.0
O35 O 0.57152 0.84846 0.07346 0.0
Mg36 Mg 0.62073 0.86285 0.02498 0.0
Mg37 Mg 0.5874 0.8953 0.12739 0.0
O38 O 0.60369 0.94309 0.18748 0.0
Mg39 Mg 0.64326 0.95601 0.25625 0.0
Mg40 Mg 0.55188 0.93053 0.22396 0.0
C41 C 0.4925 0.84802 0.15358 0.0
C42 C 0.54769 0.94062 0.05467 0.0
O43 O 0.5899 0.79705 -0.01025 0.0
O44 O 0.52616 0.77228 0.00804 0.0
O45 O 0.60017 0.87866 0.92178 0.0
O46 O 0.53617 0.85258 0.92562 0.0
O47 O 0.48552 0.82738 0.09784 0.0
O48 O 0.5269 0.86955 0.17683 0.0
C49 C 0.62861 0.84797 0.18932 0.0
O50 O 0.60915 0.86428 0.20767 0.0
O51 O 0.63737 0.84651 0.12521 0.0
O52 O 0.58376 0.99159 0.26397 0.0
O53 O 0.64671 0.01164 0.28134 0.0
O54 O 0.56002 0.91142 0.33324 0.0
C55 C 0.61794 0.01757 0.28112 0.0
O56 O 0.61912 0.9209 0.34824 0.0
O57 O 0.66836 0.93208 0.18216 0.0
C58 C 0.58514 0.90901 0.37059 0.0
O59 O 0.64823 0.92705 0.07254 0.0
O60 O 0.56352 0.92012 0.04487 0.0
O61 O 0.54262 0.94997 0.11644 0.0
C62 C 0.79509 0.5599 0.16539 0.0
C63 C 0.702 0.57086 0.0773 0.0
C64 C 0.73382 0.67649 0.29715 0.0
Mg65 Mg 0.71084 0.52908 0.20535 0.0
O66 O 0.73452 0.57524 0.25628 0.0
Mg67 Mg 0.76615 0.62457 0.20433 0.0
Mg68 Mg 0.70244 0.58973 0.31024 0.0
O69 O 0.66922 0.60428 0.36853 0.0
Mg70 Mg 0.6932 0.646 0.43437 0.0
Mg71 Mg 0.63188 0.55225 0.40735 0.0
C72 C 0.65831 0.49511 0.34022 0.0
C73 C 0.61758 0.54261 0.23873 0.0
O74 O 0.80169 0.59494 0.1662 0.0
O75 O 0.76253 0.53066 0.18086 0.0
O76 O 0.72844 0.60256 0.10365 0.0
O77 O 0.68925 0.53875 0.10934 0.0
O78 O 0.67092 0.48884 0.28244 0.0
O79 O 0.67057 0.52948 0.36382 0.0
C80 C 0.79158 0.63601 0.36767 0.0
O81 O 0.75625 0.61588 0.38821 0.0
O82 O 0.8006 0.64356 0.30276 0.0
O83 O 0.59944 0.58185 0.44179 0.0
O84 O 0.63901 0.64615 0.45396 0.0
O85 O 0.65904 0.56449 0.5169 0.0
C86 C 0.60531 0.61579 0.45481 0.0
O87 O 0.70543 0.62554 0.53042 0.0
O88 O 0.74217 0.67282 0.36051 0.0
C89 C 0.68509 0.59138 0.55404 0.0
O90 O 0.72788 0.64961 0.25241 0.0
O91 O 0.65392 0.56146 0.22937 0.0
O92 O 0.6027 0.53782 0.29995 0.0
C93 C 0.2463 0.79334 0.33987 0.0
C94 C 0.14251 0.70125 0.24958 0.0
C95 C 0.06837 0.73559 0.46593 0.0
Mg96 Mg 0.1915 0.70891 0.37987 0.0
O97 O 0.16837 0.73264 0.42822 0.0
Mg98 Mg 0.15257 0.76544 0.37531 0.0
Mg99 Mg 0.12135 0.70164 0.48185 0.0
O100 O 0.07345 0.67043 0.54087 0.0
Mg101 Mg 0.05715 0.69664 0.60492 0.0
Mg102 Mg 0.08705 0.63317 0.5833 0.0
C103 C 0.16959 0.65591 0.51595 0.0
C104 C 0.08203 0.61487 0.41595 0.0
O105 O 0.21788 0.79982 0.33759 0.0
O106 O 0.24264 0.76089 0.3581 0.0
O107 O 0.13702 0.72752 0.27589 0.0
O108 O 0.16165 0.68832 0.28176 0.0
O109 O 0.18885 0.66781 0.45831 0.0
O110 O 0.14848 0.6695 0.53856 0.0
C111 C 0.16539 0.79134 0.53835 0.0
O112 O 0.1494 0.75591 0.55906 0.0
O113 O 0.16797 0.80036 0.47323 0.0
O114 O 0.02486 0.60268 0.61714 0.0
O115 O 1.00163 0.64372 0.6239 0.0
O116 O 0.10267 0.66193 0.69062 0.0
C117 C 0.9973 0.6096 0.62719 0.0
O118 O 0.08882 0.70888 0.70261 0.0
O119 O 0.08076 0.74477 0.52886 0.0
C120 C 0.10218 0.68833 0.72711 0.0
O121 O 0.08859 0.72827 0.42189 0.0
O122 O 0.09949 0.65098 0.40183 0.0
O123 O 0.07197 0.60264 0.47878 0.0
C124 C 0.46709 0.24237 0.52043 0.0
C125 C 0.44742 0.13402 0.43233 0.0
C126 C 0.33747 0.06823 0.6461 0.0
Mg127 Mg 0.49031 0.18289 0.56226 0.0
O128 O 0.44388 0.16262 0.61099 0.0
Mg129 Mg 0.39674 0.15033 0.55666 0.0
Mg130 Mg 0.42483 0.11473 0.66548 0.0
O131 O 0.40646 0.06616 0.72588 0.0
Mg132 Mg 0.35974 0.05368 0.78544 0.0
Mg133 Mg 0.46035 0.07369 0.76426 0.0
C134 C 0.51707 0.15861 0.70171 0.0
C135 C 0.4699 0.07337 0.59365 0.0
O136 O 0.43141 0.21563 0.51818 0.0
O137 O 0.49414 0.23619 0.53904 0.0
O138 O 0.41671 0.13145 0.45779 0.0
O139 O 0.47952 0.15165 0.46483 0.0
O140 O 0.52554 0.17854 0.64464 0.0
O141 O 0.48202 0.13633 0.7218 0.0
C142 C 0.38517 0.16497 0.71992 0.0
O143 O 0.40161 0.14612 0.74177 0.0
O144 O 0.37979 0.16835 0.65456 0.0
O145 O 0.39686 0.0315 0.73789 0.0
O146 O 0.34374 0.9923 0.7915 0.0
O147 O 0.44363 0.08492 0.87445 0.0
C148 C 0.37623 0.99859 0.76853 0.0
O149 O 0.38588 0.08091 0.88545 0.0
O150 O 0.34043 0.08128 0.70847 0.0
C151 C 0.41825 0.08765 0.91095 0.0
O152 O 0.3663 0.08661 0.604 0.0
O153 O 0.45103 0.09107 0.5859 0.0
O154 O 0.47555 0.06302 0.65405 0.0
C155 C 0.21989 0.45717 0.68632 0.0
C156 C 0.30906 0.44127 0.59274 0.0
C157 C 0.27493 0.33402 0.81239 0.0
Mg158 Mg 0.30375 0.4841 0.72316 0.0
O159 O 0.27923 0.43777 0.7735 0.0
Mg160 Mg 0.24538 0.38921 0.72146 0.0
Mg161 Mg 0.30997 0.42091 0.82606 0.0
O162 O 0.34168 0.40387 0.88307 0.0
Mg163 Mg 0.31613 0.36213 0.94876 0.0
Mg164 Mg 0.38118 0.45504 0.92183 0.0
C165 C 0.35799 0.51532 0.85698 0.0
C166 C 0.39441 0.46465 0.75265 0.0
O167 O 0.21204 0.4217 0.685 0.0
O168 O 0.25301 0.48535 0.70251 0.0
O169 O 0.28236 0.40992 0.61973 0.0
O170 O 0.32289 0.47349 0.62477 0.0
O171 O 0.34559 0.5226 0.79989 0.0
O172 O 0.34453 0.48069 0.88017 0.0
C173 C 0.22166 0.37788 0.88596 0.0
O174 O 0.2572 0.39653 0.90563 0.0
O175 O 0.21192 0.37135 0.82115 0.0
O176 O 0.4108 0.42215 0.95379 0.0
O177 O 0.36861 0.35826 0.96477 0.0
O178 O 0.35475 0.44391 0.03235 0.0
C179 C 0.40309 0.38742 0.96512 0.0
O180 O 0.30635 0.38379 0.0459 0.0
O181 O 0.26677 0.33814 0.87552 0.0
C182 C 0.32809 0.41767 0.06967 0.0
O183 O 0.28158 0.36104 0.76738 0.0
O184 O 0.35802 0.44752 0.7443 0.0
O185 O 0.40959 0.46834 0.81335 0.0
C186 C 0.88634 0.29976 0.35128 0.0
C187 C 0.90965 0.3338 0.31415 0.0
C188 C 0.8825 0.30049 0.42489 0.0
C189 C 0.90387 0.33584 0.46189 0.0
C190 C 0.92777 0.37024 0.42433 0.0
C191 C 0.92983 0.36887 0.35063 0.0
C192 C 0.85577 0.26344 0.46308 0.0
C193 C 0.95222 0.40815 0.46199 0.0
C194 C 0.86856 0.33977 0.64535 0.0
C195 C 0.88894 0.32689 0.68674 0.0
C196 C 0.87404 0.34409 0.57211 0.0
C197 C 0.90138 0.33648 0.54002 0.0
C198 C 0.92438 0.32675 0.58236 0.0
C199 C 0.91746 0.32146 0.65526 0.0
C200 C 0.84869 0.35416 0.5287 0.0
C201 C 0.95508 0.3202 0.5503 0.0
H202 H 0.871 0.27273 0.3227 0.0
H203 H 0.94858 0.39508 0.32163 0.0
H204 H 0.87252 0.25559 0.49925 0.0
H205 H 0.83508 0.26741 0.49586 0.0
H206 H 0.83934 0.23905 0.42609 0.0
H207 H 0.96778 0.43257 0.42461 0.0
H208 H 0.93425 0.41479 0.49727 0.0
H209 H 0.97368 0.40601 0.49578 0.0
H210 H 0.84646 0.34404 0.66941 0.0
H211 H 0.93362 0.31202 0.68729 0.0
H212 H 0.82941 0.32919 0.49496 0.0
H213 H 0.86633 0.37878 0.49304 0.0
H214 H 0.8307 0.36173 0.56218 0.0
H215 H 0.94139 0.29305 0.51929 0.0
H216 H 0.9738 0.31805 0.59117 0.0
H217 H 0.97334 0.34401 0.51349 0.0
C218 C 0.59114 0.87949 0.48235 0.0
C219 C 0.57734 0.90055 0.44614 0.0
C220 C 0.58763 0.87556 0.55603 0.0
C221 C 0.57149 0.89459 0.59402 0.0
C222 C 0.55751 0.9159 0.55745 0.0
C223 C 0.56002 0.91806 0.48368 0.0
C224 C 0.6016 0.85147 0.59326 0.0
C225 C 0.54141 0.93772 0.59628 0.0
C226 C 0.53506 0.85862 0.77834 0.0
C227 C 0.56767 0.88213 0.81936 0.0
C228 C 0.53567 0.86283 0.70493 0.0
C229 C 0.56928 0.8921 0.67211 0.0
C230 C 0.60138 0.91767 0.71368 0.0
C231 C 0.60045 0.91193 0.78696 0.0
C232 C 0.50117 0.83454 0.66225 0.0
C233 C 0.6371 0.95025 0.68053 0.0
H234 H 0.60477 0.8663 0.45303 0.0
H235 H 0.55024 0.9352 0.45556 0.0
H236 H 0.62614 0.87006 0.62831 0.0
H237 H 0.57839 0.82948 0.6271 0.0
H238 H 0.61102 0.83655 0.55561 0.0
H239 H 0.53053 0.95182 0.55969 0.0
H240 H 0.51761 0.91808 0.63174 0.0
H241 H 0.56416 0.96028 0.63001 0.0
H242 H 0.50969 0.83533 0.8031 0.0
H243 H 0.62555 0.9303 0.81872 0.0
H244 H 0.50938 0.81741 0.62772 0.0
H245 H 0.49125 0.85009 0.62735 0.0
H246 H 0.47674 0.81435 0.6962 0.0
H247 H 0.65183 0.93832 0.6484 0.0
H248 H 0.65767 0.97003 0.72075 0.0
H249 H 0.62932 0.96716 0.64449 0.0
C250 C 0.68127 0.53812 0.96108 0.0
C251 C 0.69067 0.57049 0.00316 0.0
C252 C 0.67817 0.53963 0.88762 0.0
C253 C 0.68332 0.57392 0.85596 0.0
C254 C 0.68985 0.60567 0.89873 0.0
C255 C 0.69413 0.60382 0.97193 0.0
C256 C 0.67185 0.50544 0.84369 0.0
C257 C 0.69376 0.64207 0.86695 0.0
C258 C 0.71975 0.59811 0.66734 0.0
C259 C 0.68532 0.58465 0.63017 0.0
C260 C 0.71941 0.59379 0.74099 0.0
C261 C 0.68391 0.57727 0.77793 0.0
C262 C 0.6491 0.56408 0.74035 0.0
C263 C 0.65021 0.56731 0.66667 0.0
C264 C 0.75697 0.607 0.77928 0.0
C265 C 0.61089 0.54773 0.778 0.0
H266 H 0.67883 0.51236 0.985 0.0
H267 H 0.70111 0.62875 0.00453 0.0
H268 H 0.64699 0.49638 0.80769 0.0
H269 H 0.69754 0.51375 0.81025 0.0
H270 H 0.66663 0.48032 0.87675 0.0
H271 H 0.69409 0.66211 0.90793 0.0
H272 H 0.72089 0.65725 0.83629 0.0
H273 H 0.6697 0.63498 0.82983 0.0
H274 H 0.74679 0.6117 0.63875 0.0
H275 H 0.62362 0.55773 0.63768 0.0
H276 H 0.75516 0.5831 0.81194 0.0
H277 H 0.76273 0.63105 0.81559 0.0
H278 H 0.78165 0.61694 0.74236 0.0
H279 H 0.60544 0.52233 0.81022 0.0
H280 H 0.58648 0.53888 0.74074 0.0
H281 H 0.61151 0.56962 0.8148 0.0
C282 C 0.09984 0.69054 0.14643 0.0
C283 C 0.13201 0.69065 0.17528 0.0
C284 C 0.09357 0.68744 0.07328 0.0
C285 C 0.1209 0.68583 0.0283 0.0
C286 C 0.15264 0.68443 0.05749 0.0
C287 C 0.15747 0.68625 0.13091 0.0
C288 C 0.05849 0.6873 0.04405 0.0
C289 C 0.18269 0.68332 0.01111 0.0
C290 C 0.09525 0.65348 0.83873 0.0
C291 C 0.10947 0.68884 0.80328 0.0
C292 C 0.09823 0.65204 0.91213 0.0
C293 C 0.11705 0.68691 0.95062 0.0
C294 C 0.13225 0.7228 0.91494 0.0
C295 C 0.12756 0.72332 0.84148 0.0
C296 C 0.08044 0.61324 0.94855 0.0
C297 C 0.15341 0.76056 0.95437 0.0
H298 H 0.0801 0.69379 0.181 0.0
H299 H 0.18263 0.6868 0.15324 0.0
H300 H 0.06741 0.71446 0.0146 0.0
H301 H 0.04319 0.66309 0.00629 0.0
H302 H 0.0381 0.68464 0.08633 0.0
H303 H 0.20497 0.68111 0.0423 0.0
H304 H 0.16905 0.65849 0.97429 0.0
H305 H 0.19706 0.70992 0.9785 0.0
H306 H 0.08042 0.62671 0.8092 0.0
H307 H 0.13829 0.75054 0.81386 0.0
H308 H 0.05899 0.61096 0.98807 0.0
H309 H 0.10281 0.61022 0.97758 0.0
H310 H 0.06597 0.58883 0.9108 0.0
H311 H 0.13377 0.76287 -0.00729 0.0
H312 H 0.16509 0.78587 0.91837 0.0
H313 H 0.17754 0.76168 0.98497 0.0
C314 C 0.44056 0.07468 0.02428 0.0
C315 C 0.42497 0.09407 0.98747 0.0
C316 C 0.44553 0.0782 0.09769 0.0
C317 C 0.4356 0.10261 0.13482 0.0
C318 C 0.42037 0.12281 0.09765 0.0
C319 C 0.41458 0.11774 0.02433 0.0
C320 C 0.46063 0.0552 0.13553 0.0
C321 C 0.41021 0.14976 0.13534 0.0
C322 C 0.41218 0.09155 0.33029 0.0
C323 C 0.44653 0.12102 0.35911 0.0
C324 C 0.40897 0.08367 0.25763 0.0
C325 C 0.44048 0.10667 0.21271 0.0
C326 C 0.47585 0.13514 0.24208 0.0
C327 C 0.47862 0.14157 0.31523 0.0
C328 C 0.37134 0.05186 0.22864 0.0
C329 C 0.50996 0.16057 0.19589 0.0
H330 H 0.44767 0.05566 -0.00428 0.0
H331 H 0.40242 0.13261 -0.00431 0.0
H332 H 0.44001 0.03695 0.17706 0.0
H333 H 0.46549 0.0363 0.09905 0.0
H334 H 0.48817 0.07494 0.16229 0.0
H335 H 0.40065 0.16483 0.09827 0.0
H336 H 0.38683 0.13335 0.17398 0.0
H337 H 0.43547 0.1717 0.16539 0.0
H338 H 0.38747 0.07535 0.36432 0.0
H339 H 0.50519 0.16451 0.33735 0.0
H340 H 0.37651 0.03311 0.19244 0.0
H341 H 0.35697 0.06457 0.1976 0.0
H342 H 0.35146 0.03367 0.27121 0.0
H343 H 0.51673 0.14281 0.16023 0.0
H344 H 0.53605 0.17971 0.2273 0.0
H345 H 0.50285 0.17882 0.16207 0.0
C346 C 0.3623 0.44248 0.1831 0.0
C347 C 0.32748 0.42486 0.14566 0.0
C348 C 0.36285 0.44622 0.25673 0.0
C349 C 0.32778 0.43328 0.29329 0.0
C350 C 0.29258 0.41654 0.25533 0.0
C351 C 0.29279 0.41172 0.18187 0.0
C352 C 0.40077 0.46285 0.29548 0.0
C353 C 0.25473 0.40358 0.29234 0.0
C354 C 0.31638 0.40754 0.48803 0.0
C355 C 0.31993 0.44107 0.5184 0.0
C356 C 0.32092 0.40534 0.41497 0.0
C357 C 0.32775 0.43692 0.37134 0.0
C358 C 0.33275 0.47134 0.40214 0.0
C359 C 0.32942 0.47321 0.47553 0.0
C360 C 0.31713 0.36878 0.38429 0.0
C361 C 0.3393 0.50535 0.35732 0.0
H362 H 0.3891 0.4519 0.15498 0.0
H363 H 0.26595 0.39797 0.15265 0.0
H364 H 0.40598 0.48852 0.32647 0.0
H365 H 0.39985 0.4413 0.33354 0.0
H366 H 0.42544 0.47136 0.25905 0.0
H367 H 0.23036 0.39354 0.25465 0.0
H368 H 0.24861 0.37966 0.3293 0.0
H369 H 0.25635 0.42764 0.32415 0.0
H370 H 0.30934 0.38278 0.52124 0.0
H371 H 0.33189 0.49911 0.4988 0.0
H372 H 0.34152 0.3757 0.34817 0.0
H373 H 0.2903 0.35363 0.35275 0.0
H374 H 0.3163 0.34879 0.42592 0.0
H375 H 0.3645 0.5144 0.32223 0.0
H376 H 0.34412 0.53052 0.38974 0.0
H377 H 0.3139 0.49684 0.32291 0.0
C378 C 0.58346 0.194 0.74867 0.0
C379 C 0.54952 0.15874 0.73896 0.0
C380 C 0.61727 0.19535 0.7718 0.0
C381 C 0.61737 0.16046 0.78413 0.0
C382 C 0.58301 0.12475 0.77624 0.0
C383 C 0.54939 0.12438 0.75434 0.0
C384 C 0.65324 0.2342 0.78059 0.0
C385 C 0.58202 0.08697 0.78843 0.0
C386 C 0.71958 0.18187 0.76671 0.0
C387 C 0.73187 0.19149 0.83662 0.0
C388 C 0.68062 0.16684 0.74931 0.0
C389 C 0.65407 0.16215 0.80324 0.0
C390 C 0.66575 0.16711 0.87477 0.0
C391 C 0.7047 0.1818 0.89059 0.0
C392 C 0.6689 0.16053 0.67253 0.0
C393 C 0.63841 0.16204 0.93397 0.0
H394 H 0.58377 0.22062 0.73629 0.0
H395 H 0.52397 0.09703 0.74549 0.0
H396 H 0.66537 0.23672 0.83431 0.0
H397 H 0.67537 0.23709 0.74209 0.0
H398 H 0.64776 0.25853 0.77239 0.0
H399 H 0.55403 0.06181 0.77285 0.0
H400 H 0.60525 0.08615 0.75809 0.0
H401 H 0.58706 0.08405 0.84512 0.0
H402 H 0.74077 0.18978 0.72506 0.0
H403 H 0.71451 0.18957 0.94469 0.0
H404 H 0.66665 0.18546 0.65286 0.0
H405 H 0.64031 0.13425 0.66582 0.0
H406 H 0.69023 0.15775 0.63939 0.0
H407 H 0.64954 0.15914 0.98602 0.0
H408 H 0.60968 0.13634 0.92514 0.0
H409 H 0.63464 0.18767 0.93599 0.0
C410 C 0.54396 0.71535 0.91166 0.0
C411 C 0.54639 0.72879 0.98067 0.0
C412 C 0.5194 0.67615 0.89595 0.0
C413 C 0.49653 0.65064 0.95045 0.0
C414 C 0.50322 0.66329 0.02144 0.0
C415 C 0.52828 0.70238 0.03571 0.0
C416 C 0.51444 0.66311 0.82002 0.0
C417 C 0.48005 0.63696 0.08132 0.0
C418 C 0.39321 0.58357 0.89569 0.0
C419 C 0.39182 0.54804 0.89057 0.0
C420 C 0.42687 0.61682 0.91711 0.0
C421 C 0.46039 0.61468 0.93211 0.0
C422 C 0.45898 0.57872 0.92869 0.0
C423 C 0.42457 0.54578 0.90838 0.0
C424 C 0.42675 0.65446 0.92191 0.0
C425 C 0.49414 0.57516 0.94251 0.0
H426 H 0.55786 0.73591 0.86913 0.0
H427 H 0.53027 0.71305 0.08915 0.0
H428 H 0.51095 0.63386 0.81629 0.0
H429 H 0.48806 0.66159 0.7981 0.0
H430 H 0.53931 0.68334 0.78699 0.0
H431 H 0.49351 0.64883 0.13346 0.0
H432 H 0.45082 0.63347 0.08107 0.0
H433 H 0.47675 0.60791 0.07496 0.0
H434 H 0.36801 0.58547 0.88162 0.0
H435 H 0.42434 0.51895 0.90295 0.0
H436 H 0.44681 0.6751 0.88216 0.0
H437 H 0.43689 0.66761 0.97482 0.0
H438 H 0.39772 0.65066 0.91263 0.0
H439 H 0.51269 0.58467 0.8948 0.0
H440 H 0.48633 0.54488 0.95421 0.0
H441 H 0.5114 0.59376 0.98707 0.0
C442 C 0.81415 0.39327 0.06723 0.0
C443 C 0.8489 0.3936 0.0577 0.0
C444 C 0.81373 0.42662 0.08885 0.0
C445 C 0.84901 0.46145 0.09931 0.0
C446 C 0.8841 0.46181 0.09133 0.0
C447 C 0.8835 0.42787 0.07108 0.0
C448 C 0.77553 0.42483 0.09856 0.0
C449 C 0.92238 0.49846 0.10017 0.0
C450 C 0.83221 0.54561 0.07936 0.0
C451 C 0.82544 0.55098 0.14972 0.0
C452 C 0.84431 0.51921 0.06216 0.0
C453 C 0.84868 0.49743 0.11677 0.0
C454 C 0.8466 0.50654 0.1882 0.0
C455 C 0.83528 0.5336 0.2038 0.0
C456 C 0.84807 0.51152 0.98537 0.0
C457 C 0.85133 0.48429 0.24807 0.0
H458 H 0.78725 0.36703 0.0564 0.0
H459 H 0.91044 0.42946 0.0619 0.0
H460 H 0.7742 0.43604 0.15147 0.0
H461 H 0.7724 0.44338 0.0586 0.0
H462 H 0.75082 0.395 0.09317 0.0
H463 H 0.94683 0.49283 0.10138 0.0
H464 H 0.92684 0.51819 0.0554 0.0
H465 H 0.92291 0.51373 0.1494 0.0
H466 H 0.82407 0.55871 0.03762 0.0
H467 H 0.82953 0.53758 0.25824 0.0
H468 H 0.82159 0.48503 0.96823 0.0
H469 H 0.87269 0.50665 0.97743 0.0
H470 H 0.85202 0.53579 0.95109 0.0
H471 H 0.82512 0.45538 0.2517 0.0
H472 H 0.85548 0.49918 0.29959 0.0
H473 H 0.87611 0.47986 0.23864 0.0
C474 C 0.46216 0.88402 0.2062 0.0
C475 C 0.45975 0.84902 0.18712 0.0
C476 C 0.42996 0.88522 0.23193 0.0
C477 C 0.39456 0.85041 0.23915 0.0
C478 C 0.39205 0.81489 0.22052 0.0
C479 C 0.42457 0.81473 0.19403 0.0
C480 C 0.43366 0.92377 0.24928 0.0
C481 C 0.35497 0.77693 0.22862 0.0
C482 C 0.31524 0.83045 0.36654 0.0
C483 C 0.28532 0.82305 0.31967 0.0
C484 C 0.3527 0.84396 0.34189 0.0
C485 C 0.36012 0.85013 0.2686 0.0
C486 C 0.33116 0.84794 0.22268 0.0
C487 C 0.29372 0.83409 0.24886 0.0
C488 C 0.38284 0.84659 0.39295 0.0
C489 C 0.33849 0.85581 0.14462 0.0
H490 H 0.48859 0.91074 0.19859 0.0
H491 H 0.42253 0.78765 0.17875 0.0
H492 H 0.41833 0.93095 0.20856 0.0
H493 H 0.42016 0.92275 0.30096 0.0
H494 H 0.46417 0.94735 0.25068 0.0
H495 H 0.35808 0.75189 0.21282 0.0
H496 H 0.34519 0.77292 0.2844 0.0
H497 H 0.3321 0.77699 0.19576 0.0
H498 H 0.30851 0.8218 0.42141 0.0
H499 H 0.27044 0.82808 0.21261 0.0
H500 H 0.41108 0.87266 0.38249 0.0
H501 H 0.38645 0.82103 0.38602 0.0
H502 H 0.37463 0.84733 0.44874 0.0
H503 H 0.36729 0.88134 0.13509 0.0
H504 H 0.31632 0.86073 0.11932 0.0
H505 H 0.33787 0.83064 0.11869 0.0
C506 C 0.47615 0.29225 0.4321 0.0
C507 C 0.47913 0.28243 0.50181 0.0
C508 C 0.50014 0.33014 0.40766 0.0
C509 C 0.52761 0.35816 0.45421 0.0
C510 C 0.52726 0.34921 0.52658 0.0
C511 C 0.50299 0.31134 0.54946 0.0
C512 C 0.49887 0.33904 0.33057 0.0
C513 C 0.55564 0.37827 0.57824 0.0
C514 C 0.62599 0.42649 0.37764 0.0
C515 C 0.62586 0.46137 0.37485 0.0
C516 C 0.59413 0.39279 0.40333 0.0
C517 C 0.56095 0.39382 0.42569 0.0
C518 C 0.56055 0.42891 0.42304 0.0
C519 C 0.59307 0.46225 0.39774 0.0
C520 C 0.59601 0.35604 0.40636 0.0
C521 C 0.52549 0.43106 0.44495 0.0
H522 H 0.45788 0.26973 0.39523 0.0
H523 H 0.50517 0.3035 0.60345 0.0
H524 H 0.50184 0.36796 0.32405 0.0
H525 H 0.5233 0.33936 0.30252 0.0
H526 H 0.47168 0.31718 0.30503 0.0
H527 H 0.54768 0.36877 0.6339 0.0
H528 H 0.58462 0.38221 0.56808 0.0
H529 H 0.55766 0.40676 0.57148 0.0
H530 H 0.6511 0.42555 0.3593 0.0
H531 H 0.5918 0.48833 0.39328 0.0
H532 H 0.57284 0.3335 0.37331 0.0
H533 H 0.59132 0.34502 0.4614 0.0
H534 H 0.62409 0.36026 0.38763 0.0
H535 H 0.50187 0.41468 0.40669 0.0
H536 H 0.53126 0.46125 0.44693 0.0
H537 H 0.51511 0.41762 0.49757 0.0
C538 C 0.20279 0.62069 0.55483 0.0
C539 C 0.16887 0.62246 0.55115 0.0
C540 C 0.20248 0.58754 0.57989 0.0
C541 C 0.16711 0.55481 0.59977 0.0
C542 C 0.13278 0.55639 0.59651 0.0
C543 C 0.13422 0.59038 0.57314 0.0
C544 C 0.24002 0.58746 0.5844 0.0
C545 C 0.09432 0.52179 0.61487 0.0
C546 C 0.17983 0.46753 0.59927 0.0
C547 C 0.19083 0.46793 0.66951 0.0
C548 C 0.16743 0.49303 0.5767 0.0
C549 C 0.16691 0.51962 0.62556 0.0
C550 C 0.17333 0.51649 0.69811 0.0
C551 C 0.18502 0.49042 0.71924 0.0
C552 C 0.1592 0.49444 0.49932 0.0
C553 C 0.17288 0.54402 0.75213 0.0
H554 H 0.22965 0.64529 0.53758 0.0
H555 H 0.10777 0.5907 0.56922 0.0
H556 H 0.2444 0.58014 0.63891 0.0
H557 H 0.23919 0.56512 0.54862 0.0
H558 H 0.26513 0.61579 0.56978 0.0
H559 H 0.07098 0.52903 0.61717 0.0
H560 H 0.08663 0.49908 0.57427 0.0
H561 H 0.09569 0.50932 0.66639 0.0
H562 H 0.18473 0.45039 0.56074 0.0
H563 H 0.19382 0.49075 0.77358 0.0
H564 H 0.18503 0.51822 0.47354 0.0
H565 H 0.13512 0.50022 0.49205 0.0
H566 H 0.152 0.46704 0.47211 0.0
H567 H 0.19909 0.57272 0.74561 0.0
H568 H 0.1724 0.53394 0.80703 0.0
H569 H 0.14761 0.54787 0.7445 0.0
C570 C 0.84013 0.16421 0.09771 0.0
C571 C 0.82851 0.1919 0.09843 0.0
C572 C 0.81338 0.12483 0.10593 0.0
C573 C 0.77406 0.11289 0.1168 0.0
C574 C 0.7629 0.14112 0.12556 0.0
C575 C 0.7903 0.1804 0.11566 0.0
C576 C 0.82672 0.09588 0.09661 0.0
C577 C 0.72157 0.12975 0.13983 0.0
C578 C 0.70247 0.01036 0.05535 0.0
C579 C 0.6971 0.98929 0.11766 0.0
C580 C 0.72659 0.05091 0.0545 0.0
C581 C 0.74497 0.07082 0.11771 0.0
C582 C 0.7383 0.04989 0.18102 0.0
C583 C 0.71557 0.00967 0.17981 0.0
C584 C 0.73347 0.07233 0.98558 0.0
C585 C 0.75619 0.06983 0.25004 0.0
H586 H 0.86946 0.17299 0.08257 0.0
H587 H 0.78096 0.20156 0.11422 0.0
H588 H 0.81756 0.07577 0.14216 0.0
H589 H 0.81327 0.07835 0.04856 0.0
H590 H 0.85849 0.10993 0.09131 0.0
H591 H 0.71881 0.15479 0.15709 0.0
H592 H 0.70442 0.11781 0.09091 0.0
H593 H 0.70892 0.10698 0.18099 0.0
H594 H 0.68879 0.99514 0.00702 0.0
H595 H 0.71275 0.99423 0.22848 0.0
H596 H 0.76438 0.08614 0.97127 0.0
H597 H 0.72641 0.09569 -0.00877 0.0
H598 H 0.71608 0.05305 0.94169 0.0
H599 H 0.7877 0.08129 0.2485 0.0
H600 H 0.74414 0.05005 0.29602 0.0
H601 H 0.75158 0.09466 0.2584 0.0
C602 C 0.67981 0.83985 0.24222 0.0
C603 C 0.64048 0.82764 0.2391 0.0
C604 C 0.69267 0.81378 0.25699 0.0
C605 C 0.66548 0.77445 0.26961 0.0
C606 C 0.62581 0.76272 0.27322 0.0
C607 C 0.61375 0.78947 0.25745 0.0
C608 C 0.73524 0.82777 0.25314 0.0
C609 C 0.59589 0.72133 0.28829 0.0
C610 C 0.69951 0.7032 0.22347 0.0
C611 C 0.71311 0.69869 0.28902 0.0
C612 C 0.68275 0.7268 0.21661 0.0
C613 C 0.67889 0.74581 0.27686 0.0
C614 C 0.69104 0.74002 0.34339 0.0
C615 C 0.70858 0.71739 0.34837 0.0
C616 C 0.67036 0.73251 0.14447 0.0
C617 C 0.68672 0.75881 0.40931 0.0
H618 H 0.70044 0.86907 0.22607 0.0
H619 H 0.58327 0.7796 0.25283 0.0
H620 H 0.7449 0.81949 0.30161 0.0
H621 H 0.74106 0.81389 0.20774 0.0
H622 H 0.75272 0.85958 0.24666 0.0
H623 H 0.56737 0.71819 0.3004 0.0
H624 H 0.59272 0.70333 0.24143 0.0
H625 H 0.60484 0.70984 0.33332 0.0
H626 H 0.70301 0.68926 0.17726 0.0
H627 H 0.71928 0.71495 0.39952 0.0
H628 H 0.68791 0.76327 0.12878 0.0
H629 H 0.63988 0.72541 0.14587 0.0
H630 H 0.67354 0.71442 0.10353 0.0
H631 H 0.70646 0.79046 0.40662 0.0
H632 H 0.69332 0.74776 0.45809 0.0
H633 H 0.65699 0.7538 0.4134 0.0
C634 C 1.00322 0.71405 0.51793 0.0
C635 C 0.02549 0.71588 0.45876 0.0
C636 C 0.96321 0.69764 0.51404 0.0
C637 C 0.94444 0.68381 0.44866 0.0
C638 C 0.96627 0.68489 0.38864 0.0
C639 C 1.00652 0.70065 0.39448 0.0
C640 C 0.94122 0.69638 0.57974 0.0
C641 C 0.94724 0.67059 0.31772 0.0
C642 C 0.83496 0.62139 0.43694 0.0
C643 C 0.82474 0.64858 0.41533 0.0
C644 C 0.87368 0.6325 0.4508 0.0
C645 C 0.90272 0.67164 0.44213 0.0
C646 C 0.89195 0.69954 0.42613 0.0
C647 C 0.85314 0.68766 0.41322 0.0
C648 C 0.88372 0.60193 0.46952 0.0
C649 C 0.92174 0.74164 0.41709 0.0
H650 H 0.01704 0.72605 0.56808 0.0
H651 H 0.02319 0.70205 0.3484 0.0
H652 H 0.95931 0.70412 0.62806 0.0
H653 H 0.93033 0.71684 0.57414 0.0
H654 H 0.9159 0.66714 0.58702 0.0
H655 H 0.96765 0.67149 0.2771 0.0
H656 H 0.92301 0.64052 0.32237 0.0
H657 H 0.93506 0.68861 0.29938 0.0
H658 H 0.81332 0.59101 0.43639 0.0
H659 H 0.84544 0.70857 0.39465 0.0
H660 H 0.90463 0.61166 0.5138 0.0
H661 H 0.89749 0.59662 0.42339 0.0
H662 H 0.85787 0.57424 0.48447 0.0
H663 H 0.94037 0.7525 0.46455 0.0
H664 H 0.90851 0.75991 0.40793 0.0
H665 H 0.94054 0.74503 0.37147 0.0
C666 C 0.17226 0.85257 0.57886 0.0
C667 C 0.1831 0.82448 0.58693 0.0
C668 C 0.19773 0.8914 0.59509 0.0
C669 C 0.23483 0.9024 0.62147 0.0
C670 C 0.24445 0.87352 0.63676 0.0
C671 C 0.21852 0.83479 0.6186 0.0
C672 C 0.18609 0.92102 0.57784 0.0
C673 C 0.28319 0.88387 0.66721 0.0
C674 C 0.31296 1.00564 0.57825 0.0
C675 C 0.31278 0.02545 0.63921 0.0
C676 C 0.28848 0.96536 0.57243 0.0
C677 C 0.26377 0.94429 0.62938 0.0
C678 C 0.26431 0.96397 0.69158 0.0
C679 C 0.28796 1.00414 0.69506 0.0
C680 C 0.28821 0.94549 0.50453 0.0
C681 C 0.23933 0.94268 0.75425 0.0
H682 H 0.14518 0.84471 0.55302 0.0
H683 H 0.22739 0.81336 0.62322 0.0
H684 H 0.19067 0.93982 0.62411 0.0
H685 H 0.20435 0.93981 0.53424 0.0
H686 H 0.15546 0.90751 0.56147 0.0
H687 H 0.28377 0.85803 0.68702 0.0
H688 H 0.30555 0.89773 0.62577 0.0
H689 H 0.29096 0.90487 0.7111 0.0
H690 H 0.33164 0.02165 0.53459 0.0
H691 H 0.28694 0.01884 0.74237 0.0
H692 H 0.25926 0.9324 0.47991 0.0
H693 H 0.29415 0.92174 0.51559 0.0
H694 H 0.30981 0.96563 0.46599 0.0
H695 H 0.20862 0.93126 0.74072 0.0
H696 H 0.24631 0.96149 0.80148 0.0
H697 H 0.24281 0.91764 0.7681 0.0
C698 C 0.39656 0.2222 0.78868 0.0
C699 C 0.37103 0.18422 0.76743 0.0
C700 C 0.38336 0.2483 0.80199 0.0
C701 C 0.34387 0.23619 0.7923 0.0
C702 C 0.31768 0.197 0.77633 0.0
C703 C 0.33157 0.17151 0.76469 0.0
C704 C 0.41207 0.28946 0.8214 0.0
C705 C 0.27533 0.18265 0.76574 0.0
C706 C 0.29661 0.29053 0.86498 0.0
C707 C 0.295 0.31112 0.80569 0.0
C708 C 0.31439 0.26811 0.8622 0.0
C709 C 0.32962 0.26423 0.79762 0.0
C710 C 0.32829 0.28471 0.73725 0.0
C711 C 0.31133 0.30824 0.74213 0.0
C712 C 0.31595 0.24773 0.92832 0.0
C713 C 0.34381 0.28086 0.66703 0.0
H714 H 0.42721 0.23249 0.7886 0.0
H715 H 0.31197 0.14247 0.7462 0.0
H716 H 0.41653 0.30854 0.77554 0.0
H717 H 0.40111 0.29945 0.86566 0.0
H718 H 0.44034 0.29289 0.83675 0.0
H719 H 0.25856 0.15101 0.75651 0.0
H720 H 0.26324 0.18954 0.81251 0.0
H721 H 0.27141 0.19748 0.71962 0.0
H722 H 0.28363 0.29157 0.91448 0.0
H723 H 0.31006 0.32357 0.69592 0.0
H724 H 0.29694 0.21612 0.92218 0.0
H725 H 0.30672 0.25713 0.97602 0.0
H726 H 0.3456 0.25318 0.93712 0.0
H727 H 0.37431 0.28845 0.67266 0.0
H728 H 0.34189 0.29958 0.62575 0.0
H729 H 0.32742 0.25042 0.64897 0.0
C730 C 0.0091 0.29176 0.03441 0.0
C731 C 0.98863 0.29409 0.97583 0.0
C732 C 0.04917 0.30823 0.03336 0.0
C733 C 0.06961 0.32597 0.97098 0.0
C734 C 0.04944 0.3285 0.91135 0.0
C735 C 0.00921 0.31287 0.91469 0.0
C736 C 0.06949 0.30586 0.09876 0.0
C737 C 0.07023 0.34666 0.84329 0.0
C738 C 0.17877 0.38951 0.96311 0.0
C739 C 0.1892 0.36356 0.93548 0.0
C740 C 0.14006 0.37727 0.97932 0.0
C741 C 0.11136 0.33847 0.96604 0.0
C742 C 0.12246 0.31158 0.94439 0.0
C743 C 0.16129 0.32442 0.93023 0.0
C744 C 0.12959 0.40651 0.00513 0.0
C745 C 0.09299 0.26994 0.92956 0.0
H746 H 0.99384 0.27692 0.08197 0.0
H747 H 0.99384 0.31459 0.86902 0.0
H748 H 0.08072 0.28594 0.08928 0.0
H749 H 0.09448 0.3346 0.11136 0.0
H750 H 0.05015 0.29536 0.14546 0.0
H751 H 0.05074 0.34743 0.80244 0.0
H752 H 0.09383 0.37656 0.85318 0.0
H753 H 0.08352 0.33017 0.82218 0.0
H754 H 0.20011 0.41995 0.96555 0.0
H755 H 0.16928 0.30454 0.90741 0.0
H756 H 0.10781 0.39422 0.04791 0.0
H757 H 0.1168 0.41462 0.96105 0.0
H758 H 0.15516 0.43312 0.02495 0.0
H759 H 0.07362 0.25688 0.97555 0.0
H760 H 0.10653 0.25229 0.91709 0.0
H761 H 0.07488 0.26849 0.88402 0.0
C762 C 1.00453 0.43684 0.17647 0.0
C763 C 0.0285 0.42429 0.14801 0.0
C764 C 0.01892 0.47215 0.2107 0.0
C765 C 0.05906 0.49596 0.21849 0.0
C766 C 0.0841 0.48406 0.18944 0.0
C767 C 0.06845 0.44804 0.15467 0.0
C768 C 0.99072 0.48272 0.24213 0.0
C769 C 0.12714 0.50882 0.19663 0.0
C770 C 0.08098 0.59346 0.28989 0.0
C771 C 0.07905 0.58636 0.36272 0.0
C772 C 0.07801 0.56547 0.24114 0.0
C773 C 0.07316 0.52985 0.26621 0.0
C774 C 0.07352 0.52369 0.33968 0.0
C775 C 0.07639 0.55187 0.38671 0.0
C776 C 0.07786 0.57302 0.16305 0.0
C777 C 0.06805 0.48611 0.36911 0.0
H778 H 0.97412 0.41846 0.17512 0.0
H779 H 0.0873 0.43858 0.13273 0.0
H780 H 0.99211 0.48222 0.30066 0.0
H781 H 0.99814 0.51231 0.22608 0.0
H782 H 0.96056 0.46254 0.22574 0.0
H783 H 0.14263 0.4989 0.16146 0.0
H784 H 0.13649 0.53937 0.18423 0.0
H785 H 0.13565 0.5078 0.25201 0.0
H786 H 0.08355 0.62021 0.27107 0.0
H787 H 0.07613 0.54648 0.44292 0.0
H788 H 0.04859 0.55418 0.14134 0.0
H789 H 0.0977 0.56587 0.13477 0.0
H790 H 0.08639 0.60351 0.15181 0.0
H791 H 0.07252 0.48733 0.42719 0.0
H792 H 0.08828 0.47856 0.34365 0.0
H793 H 0.03841 0.46247 0.3576 0.0
C794 C 0.49188 0.04025 0.51049 0.0
C795 C 0.49448 0.07422 0.53569 0.0
C796 C 0.51962 0.04168 0.46352 0.0
C797 C 0.55135 0.078 0.44386 0.0
C798 C 0.55378 0.11237 0.46903 0.0
C799 C 0.52512 0.11 0.51443 0.0
C800 C 0.51544 1.00427 0.43629 0.0
C801 C 0.58762 0.15154 0.45169 0.0
C802 C 0.6296 0.05894 0.38469 0.0
C803 C 0.62048 0.05221 0.31284 0.0
C804 C 0.61059 0.07264 0.428 0.0
C805 C 0.58199 0.07923 0.39808 0.0
C806 C 0.57802 0.07904 0.32383 0.0
C807 C 0.59808 0.0662 0.28179 0.0
C808 C 0.61723 0.07479 0.50675 0.0
C809 C 0.54835 0.08645 0.28941 0.0
H810 H 0.46857 0.01268 0.5285 0.0
H811 H 0.52784 0.13622 0.5365 0.0
H812 H 0.51655 1.00468 0.37768 0.0
H813 H 0.53966 1.00086 0.45565 0.0
H814 H 0.48803 0.97874 0.45342 0.0
H815 H 0.58145 0.17512 0.46334 0.0
H816 H 0.61269 0.15629 0.48403 0.0
H817 H 0.596 0.15345 0.39537 0.0
H818 H 0.64711 0.04839 0.40877 0.0
H819 H 0.59141 0.06131 0.22587 0.0
H820 H 0.59438 0.04801 0.53188 0.0
H821 H 0.61591 0.09955 0.52999 0.0
H822 H 0.64552 0.07759 0.51974 0.0
H823 H 0.55429 0.093 0.23222 0.0
H824 H 0.54716 0.1107 0.31523 0.0
H825 H 0.51951 0.06032 0.29486 0.0
C826 C 0.57137 0.62654 0.55228 0.0
C827 C 0.57149 0.61675 0.48141 0.0
C828 C 0.53753 0.60699 0.59248 0.0
C829 C 0.50378 0.57711 0.56052 0.0
C830 C 0.50243 0.57219 0.48643 0.0
C831 C 0.5364 0.59274 0.44739 0.0
C832 C 0.53936 0.61463 0.6708 0.0
C833 C 0.46694 0.54115 0.44984 0.0
C834 C 0.45204 0.4879 0.67567 0.0
C835 C 0.41927 0.48926 0.69558 0.0
C836 C 0.47906 0.51568 0.6295 0.0
C837 C 0.47369 0.54628 0.6052 0.0
C838 C 0.44033 0.54745 0.62488 0.0
C839 C 0.41339 0.51871 0.66959 0.0
C840 C 0.51384 0.51283 0.60826 0.0
C841 C 0.43407 0.58013 0.60261 0.0
H842 H 0.59846 0.64523 0.57862 0.0
H843 H 0.53659 0.5855 0.39221 0.0
H844 H 0.51203 0.61205 0.68982 0.0
H845 H 0.5438 0.59295 0.69942 0.0
H846 H 0.56351 0.64379 0.68423 0.0
H847 H 0.4681 0.546 0.39187 0.0
H848 H 0.46475 0.51273 0.4593 0.0
H849 H 0.44045 0.53961 0.47102 0.0
H850 H 0.45679 0.46549 0.69714 0.0
H851 H 0.3888 0.52062 0.6877 0.0
H852 H 0.54029 0.53769 0.63008 0.0
H853 H 0.51674 0.51393 0.54986 0.0
H854 H 0.51221 0.48581 0.6275 0.0
H855 H 0.45222 0.60574 0.63589 0.0
H856 H 0.40357 0.57256 0.6092 0.0
H857 H 0.44262 0.58849 0.54682 0.0
C858 C 0.9513 0.57546 0.72242 0.0
C859 C 0.96137 0.5763 0.65148 0.0
C860 C 0.93634 0.54097 0.76109 0.0
C861 C 0.93199 0.50739 0.72742 0.0
C862 C 0.93527 0.50679 0.65315 0.0
C863 C 0.94936 0.54143 0.61566 0.0
C864 C 0.93069 0.54196 0.83968 0.0
C865 C 0.93007 0.47141 0.61479 0.0
C866 C 0.97086 0.45612 0.83971 0.0
C867 C 0.93701 0.42351 0.86149 0.0
C868 C 0.96951 0.48271 0.79319 0.0
C869 C 0.93328 0.47706 0.77046 0.0
C870 C 0.89906 0.4436 0.79136 0.0
C871 C 0.90142 0.41713 0.83655 0.0
C872 C 1.00685 0.51762 0.77061 0.0
C873 C 0.85988 0.43687 0.77047 0.0
H874 H 0.9603 0.60239 0.75005 0.0
H875 H 0.95686 0.5422 0.56037 0.0
H876 H 0.90576 0.51447 0.85802 0.0
H877 H 0.95668 0.54579 0.86767 0.0
H878 H 0.92612 0.56622 0.85456 0.0
H879 H 0.95628 0.46906 0.62204 0.0
H880 H 0.90533 0.44473 0.63626 0.0
H881 H 0.92563 0.47304 0.55722 0.0
H882 H 0.99821 0.46126 0.8605 0.0
H883 H 0.87517 0.39266 0.85617 0.0
H884 H 0.00898 0.54407 0.79384 0.0
H885 H 0.00772 0.5208 0.71227 0.0
H886 H 0.0324 0.51579 0.78761 0.0
H887 H 0.83754 0.40591 0.77497 0.0
H888 H 0.85974 0.44669 0.71573 0.0
H889 H 0.85182 0.45362 0.80634 0.0
C890 C 0.5302 0.98386 -0.00951 0.0
C891 C 0.52852 0.94818 -0.00438 0.0
C892 C 0.50559 0.98888 0.94465 0.0
C893 C 0.47764 0.957 0.90528 0.0
C894 C 0.47726 0.92147 0.90752 0.0
C895 C 0.50291 0.91755 0.95257 0.0
C896 C 0.50822 0.02779 0.94111 0.0
C897 C 0.44827 0.88697 0.86586 0.0
C898 C 0.38872 0.96463 0.8675 0.0
C899 C 0.39622 0.97935 0.79865 0.0
C900 C 0.41398 0.95503 0.90151 0.0
C901 C 0.44748 0.96057 0.86576 0.0
C902 C 0.45366 0.97301 0.79456 0.0
C903 C 0.42767 0.9818 0.76176 0.0
C904 C 0.40607 0.94125 0.97718 0.0
C905 C 0.48828 0.97841 0.75339 0.0
H906 H 0.54991 0.00745 0.02415 0.0
H907 H 0.50087 0.88966 0.95812 0.0
H908 H 0.50797 0.0363 0.88537 0.0
H909 H 0.48278 0.02594 0.96763 0.0
H910 H 0.53455 0.0507 0.96733 0.0
H911 H 0.45359 0.86231 0.86949 0.0
H912 H 0.4189 0.87755 0.88597 0.0
H913 H 0.44896 0.89477 0.80945 0.0
H914 H 0.36453 0.96285 0.89628 0.0
H915 H 0.43297 0.99244 0.70791 0.0
H916 H 0.42713 0.96431 0.01245 0.0
H917 H 0.40955 0.91563 0.98422 0.0
H918 H 0.37662 0.93367 -0.00575 0.0
H919 H 0.51446 0.99062 0.78688 0.0
H920 H 0.49423 0.99759 0.70694 0.0
H921 H 0.48275 0.94997 0.73378 0.0
C922 C 0.43856 0.37619 0.05864 0.0
C923 C 0.43621 0.38395 0.98734 0.0
C924 C 0.47382 0.39629 0.09456 0.0
C925 C 0.50658 0.42468 0.05781 0.0
C926 C 0.50556 0.42681 0.98335 0.0
C927 C 0.47023 0.40551 0.94861 0.0
C928 C 0.47461 0.39128 0.17342 0.0
C929 C 0.53996 0.45609 0.94174 0.0
C930 C 0.55958 0.51756 0.16251 0.0
C931 C 0.59292 0.51727 0.18228 0.0
C932 C 0.53215 0.48839 0.11901 0.0
C933 C 0.53763 0.45742 0.09763 0.0
C934 C 0.57177 0.45756 0.1165 0.0
C935 C 0.59918 0.48775 0.1582 0.0
C936 C 0.49662 0.49003 0.09821 0.0
C937 C 0.57835 0.4247 0.09737 0.0
H938 H 0.41231 0.35915 0.08854 0.0
H939 H 0.46829 0.411 0.89303 0.0
H940 H 0.47171 0.41426 0.20061 0.0
H941 H 0.4506 0.36288 0.19094 0.0
H942 H 0.50231 0.39383 0.19011 0.0
H943 H 0.53699 0.44888 0.88456 0.0
H944 H 0.54258 0.48491 0.94774 0.0
H945 H 0.56697 0.45825 0.96157 0.0
H946 H 0.55459 0.54008 0.18248 0.0
H947 H 0.6244 0.48686 0.17593 0.0
H948 H 0.471 0.46635 0.12468 0.0
H949 H 0.49187 0.48598 0.04033 0.0
H950 H 0.4987 0.51787 0.11306 0.0
H951 H 0.56334 0.40112 0.13645 0.0
H952 H 0.60945 0.43384 0.09855 0.0
H953 H 0.56669 0.41277 0.04438 0.0
loop_
_geom_bond_atom_site_label_1
_geom_bond_atom_site_label_2
_geom_bond_distance
_geom_bond_site_symmetry_2
_ccdc_geom_bond_type
C0 O12 1.241 . S
C0 O13 1.280 . S
C1 O14 1.277 . S
C1 O15 1.245 . S
C2 O26 1.247 1_556 S
C2 O28 1.289 . S
Mg3 O4 1.926 . S
Mg3 O13 1.984 . S
Mg3 O15 1.988 . S
Mg3 O16 2.061 . S
O4 Mg3 1.926 . S
O4 Mg5 1.986 . S
O4 Mg6 1.914 1_556 S
Mg5 O4 1.986 . S
Mg5 O12 2.042 . S
Mg5 O14 2.041 . S
Mg5 O20 2.038 . S
Mg5 O28 2.238 . S
Mg6 O4 1.914 1_554 S
Mg6 O7 1.920 . S
Mg6 O17 2.109 . S
Mg6 O19 2.081 . S
Mg6 O28 2.104 1_554 S
Mg6 O29 2.076 1_554 S
O7 Mg6 1.920 . S
O7 Mg8 1.926 . S
O7 Mg9 1.986 . S
Mg8 O7 1.926 . S
Mg8 O22 1.984 . S
Mg8 O25 1.988 . S
Mg8 O26 2.061 . S
Mg9 O7 1.986 . S
Mg9 O17 2.238 . S
Mg9 O21 2.042 . S
Mg9 O23 2.041 . S
Mg9 O30 2.038 . S
C10 O16 1.247 1_554 S
C10 O17 1.289 . S
C11 O29 1.245 . S
C11 O30 1.274 1_556 S
O12 C0 1.241 . S
O12 Mg5 2.042 . S
O13 C0 1.280 . S
O13 Mg3 1.984 . S
O14 C1 1.277 . S
O14 Mg5 2.041 . S
O15 C1 1.245 . S
O15 Mg3 1.988 . S
O16 Mg3 2.061 . S
O16 C10 1.247 1_556 S
O17 Mg6 2.109 . S
O17 Mg9 2.238 . S
O17 C10 1.289 . S
C18 O19 1.245 . S
C18 O20 1.274 1_554 S
O19 Mg6 2.081 . S
O19 C18 1.245 . S
O20 Mg5 2.038 . S
O20 C18 1.274 1_556 S
O21 Mg9 2.042 . S
O21 C24 1.241 . S
O22 Mg8 1.984 . S
O22 C24 1.280 . S
O23 Mg9 2.041 . S
O23 C27 1.277 . S
C24 O21 1.241 . S
C24 O22 1.280 . S
O25 Mg8 1.988 . S
O25 C27 1.245 . S
O26 C2 1.247 1_554 S
O26 Mg8 2.061 . S
C27 O23 1.277 . S
C27 O25 1.245 . S
O28 C2 1.289 . S
O28 Mg5 2.238 . S
O28 Mg6 2.104 1_556 S
O29 Mg6 2.076 1_556 S
O29 C11 1.245 . S
O30 Mg9 2.038 . S
O30 C11 1.274 1_554 S
C31 O43 1.241 . S
C31 O44 1.280 . S
C32 O45 1.277 . S
C32 O46 1.245 . S
C33 O57 1.247 . S
C33 O59 1.289 . S
Mg34 O35 1.926 . S
Mg34 O44 1.984 . S
Mg34 O46 1.988 1_554 S
Mg34 O47 2.061 . S
O35 Mg34 1.926 . S
O35 Mg36 1.986 . S
O35 Mg37 1.917 . S
Mg36 O35 1.986 . S
Mg36 O43 2.042 . S
Mg36 O45 2.041 1_554 S
Mg36 O51 2.038 . S
Mg36 O59 2.238 . S
Mg37 O35 1.917 . S
Mg37 O38 1.917 . S
Mg37 O48 2.106 . S
Mg37 O50 2.079 . S
Mg37 O59 2.106 . S
Mg37 O60 2.079 . S
O38 Mg37 1.917 . S
O38 Mg39 1.926 . S
O38 Mg40 1.986 . S
Mg39 O38 1.926 . S
Mg39 O53 1.984 . S
Mg39 O56 1.988 . S
Mg39 O57 2.061 . S
Mg40 O38 1.986 . S
Mg40 O48 2.238 . S
Mg40 O52 2.042 . S
Mg40 O54 2.041 . S
Mg40 O61 2.038 . S
C41 O47 1.247 . S
C41 O48 1.289 . S
C42 O60 1.245 . S
C42 O61 1.274 . S
O43 C31 1.241 . S
O43 Mg36 2.042 . S
O44 C31 1.280 . S
O44 Mg34 1.984 . S
O45 C32 1.277 . S
O45 Mg36 2.041 1_556 S
O46 C32 1.245 . S
O46 Mg34 1.988 1_556 S
O47 Mg34 2.061 . S
O47 C41 1.247 . S
O48 Mg37 2.106 . S
O48 Mg40 2.238 . S
O48 C41 1.289 . S
C49 O50 1.245 . S
C49 O51 1.274 . S
O50 Mg37 2.079 . S
O50 C49 1.245 . S
O51 Mg36 2.038 . S
O51 C49 1.274 . S
O52 Mg40 2.042 . S
O52 C55 1.241 . S
O53 Mg39 1.984 . S
O53 C55 1.280 . S
O54 Mg40 2.041 . S
O54 C58 1.277 . S
C55 O52 1.241 . S
C55 O53 1.280 . S
O56 Mg39 1.988 . S
O56 C58 1.245 . S
O57 C33 1.247 . S
O57 Mg39 2.061 . S
C58 O54 1.277 . S
C58 O56 1.245 . S
O59 C33 1.289 . S
O59 Mg36 2.238 . S
O59 Mg37 2.106 . S
O60 Mg37 2.079 . S
O60 C42 1.245 . S
O61 Mg40 2.038 . S
O61 C42 1.274 . S
C62 O74 1.241 . S
C62 O75 1.280 . S
C63 O76 1.277 . S
C63 O77 1.245 . S
C64 O88 1.247 . S
C64 O90 1.289 . S
Mg65 O66 1.926 . S
Mg65 O75 1.984 . S
Mg65 O77 1.988 . S
Mg65 O78 2.061 . S
O66 Mg65 1.926 . S
O66 Mg67 1.986 . S
O66 Mg68 1.917 . S
Mg67 O66 1.986 . S
Mg67 O74 2.042 . S
Mg67 O76 2.041 . S
Mg67 O82 2.038 . S
Mg67 O90 2.238 . S
Mg68 O66 1.917 . S
Mg68 O69 1.917 . S
Mg68 O79 2.106 . S
Mg68 O81 2.079 . S
Mg68 O90 2.106 . S
Mg68 O91 2.079 . S
O69 Mg68 1.917 . S
O69 Mg70 1.926 . S
O69 Mg71 1.986 . S
Mg70 O69 1.926 . S
Mg70 O84 1.984 . S
Mg70 O87 1.988 . S
Mg70 O88 2.061 . S
Mg71 O69 1.986 . S
Mg71 O79 2.238 . S
Mg71 O83 2.042 . S
Mg71 O85 2.041 . S
Mg71 O92 2.038 . S
C72 O78 1.247 . S
C72 O79 1.289 . S
C73 O91 1.245 . S
C73 O92 1.274 . S
O74 C62 1.241 . S
O74 Mg67 2.042 . S
O75 C62 1.280 . S
O75 Mg65 1.984 . S
O76 C63 1.277 . S
O76 Mg67 2.041 . S
O77 C63 1.245 . S
O77 Mg65 1.988 . S
O78 Mg65 2.061 . S
O78 C72 1.247 . S
O79 Mg68 2.106 . S
O79 Mg71 2.238 . S
O79 C72 1.289 . S
C80 O81 1.245 . S
C80 O82 1.274 . S
O81 Mg68 2.079 . S
O81 C80 1.245 . S
O82 Mg67 2.038 . S
O82 C80 1.274 . S
O83 Mg71 2.042 . S
O83 C86 1.241 . S
O84 Mg70 1.984 . S
O84 C86 1.280 . S
O85 Mg71 2.041 . S
O85 C89 1.277 . S
C86 O83 1.241 . S
C86 O84 1.280 . S
O87 Mg70 1.988 . S
O87 C89 1.245 . S
O88 C64 1.247 . S
O88 Mg70 2.061 . S
C89 O85 1.277 . S
C89 O87 1.245 . S
O90 C64 1.289 . S
O90 Mg67 2.238 . S
O90 Mg68 2.106 . S
O91 Mg68 2.079 . S
O91 C73 1.245 . S
O92 Mg71 2.038 . S
O92 C73 1.274 . S
C93 O105 1.241 . S
C93 O106 1.280 . S
C94 O107 1.277 . S
C94 O108 1.245 . S
C95 O119 1.247 . S
C95 O121 1.289 . S
Mg96 O97 1.926 . S
Mg96 O106 1.984 . S
Mg96 O108 1.988 . S
Mg96 O109 2.061 . S
O97 Mg96 1.926 . S
O97 Mg98 1.986 . S
O97 Mg99 1.917 . S
Mg98 O97 1.986 . S
Mg98 O105 2.042 . S
Mg98 O107 2.041 . S
Mg98 O113 2.038 . S
Mg98 O121 2.238 . S
Mg99 O97 1.917 . S
Mg99 O100 1.917 . S
Mg99 O110 2.106 . S
Mg99 O112 2.079 . S
Mg99 O121 2.106 . S
Mg99 O122 2.079 . S
O100 Mg99 1.917 . S
O100 Mg101 1.926 . S
O100 Mg102 1.986 . S
Mg101 O100 1.926 . S
Mg101 O115 1.984 . S
Mg101 O118 1.988 . S
Mg101 O119 2.061 . S
Mg102 O100 1.986 . S
Mg102 O110 2.238 . S
Mg102 O114 2.042 . S
Mg102 O116 2.041 . S
Mg102 O123 2.038 . S
C103 O109 1.247 . S
C103 O110 1.289 . S
C104 O122 1.245 . S
C104 O123 1.274 . S
O105 C93 1.241 . S
O105 Mg98 2.042 . S
O106 C93 1.280 . S
O106 Mg96 1.984 . S
O107 C94 1.277 . S
O107 Mg98 2.041 . S
O108 C94 1.245 . S
O108 Mg96 1.988 . S
O109 Mg96 2.061 . S
O109 C103 1.247 . S
O110 Mg99 2.106 . S
O110 Mg102 2.238 . S
O110 C103 1.289 . S
C111 O112 1.245 . S
C111 O113 1.274 . S
O112 Mg99 2.079 . S
O112 C111 1.245 . S
O113 Mg98 2.038 . S
O113 C111 1.274 . S
O114 Mg102 2.042 . S
O114 C117 1.241 . S
O115 Mg101 1.984 . S
O115 C117 1.280 . S
O116 Mg102 2.041 . S
O116 C120 1.277 . S
C117 O114 1.241 . S
C117 O115 1.280 . S
O118 Mg101 1.988 . S
O118 C120 1.245 . S
O119 C95 1.247 . S
O119 Mg101 2.061 . S
C120 O116 1.277 . S
C120 O118 1.245 . S
O121 C95 1.289 . S
O121 Mg98 2.238 . S
O121 Mg99 2.106 . S
O122 Mg99 2.079 . S
O122 C104 1.245 . S
O123 Mg102 2.038 . S
O123 C104 1.274 . S
C124 O136 1.241 . S
C124 O137 1.280 . S
C125 O138 1.277 . S
C125 O139 1.245 . S
C126 O150 1.247 . S
C126 O152 1.289 . S
Mg127 O128 1.926 . S
Mg127 O137 1.984 . S
Mg127 O139 1.988 . S
Mg127 O140 2.061 . S
O128 Mg127 1.926 . S
O128 Mg129 1.986 . S
O128 Mg130 1.917 . S
Mg129 O128 1.986 . S
Mg129 O136 2.042 . S
Mg129 O138 2.041 . S
Mg129 O144 2.038 . S
Mg129 O152 2.238 . S
Mg130 O128 1.917 . S
Mg130 O131 1.917 . S
Mg130 O141 2.106 . S
Mg130 O143 2.079 . S
Mg130 O152 2.106 . S
Mg130 O153 2.079 . S
O131 Mg130 1.917 . S
O131 Mg132 1.926 . S
O131 Mg133 1.986 . S
Mg132 O131 1.926 . S
Mg132 O146 1.984 . S
Mg132 O149 1.988 . S
Mg132 O150 2.061 . S
Mg133 O131 1.986 . S
Mg133 O141 2.238 . S
Mg133 O145 2.042 . S
Mg133 O147 2.041 . S
Mg133 O154 2.038 . S
C134 O140 1.247 . S
C134 O141 1.289 . S
C135 O153 1.245 . S
C135 O154 1.274 . S
O136 C124 1.241 . S
O136 Mg129 2.042 . S
O137 C124 1.280 . S
O137 Mg127 1.984 . S
O138 C125 1.277 . S
O138 Mg129 2.041 . S
O139 C125 1.245 . S
O139 Mg127 1.988 . S
O140 Mg127 2.061 . S
O140 C134 1.247 . S
O141 Mg130 2.106 . S
O141 Mg133 2.238 . S
O141 C134 1.289 . S
C142 O143 1.245 . S
C142 O144 1.274 . S
O143 Mg130 2.079 . S
O143 C142 1.245 . S
O144 Mg129 2.038 . S
O144 C142 1.274 . S
O145 Mg133 2.042 . S
O145 C148 1.241 . S
O146 Mg132 1.984 . S
O146 C148 1.280 . S
O147 Mg133 2.041 . S
O147 C151 1.277 . S
C148 O145 1.241 . S
C148 O146 1.280 . S
O149 Mg132 1.988 . S
O149 C151 1.245 . S
O150 C126 1.247 . S
O150 Mg132 2.061 . S
C151 O147 1.277 . S
C151 O149 1.245 . S
O152 C126 1.289 . S
O152 Mg129 2.238 . S
O152 Mg130 2.106 . S
O153 Mg130 2.079 . S
O153 C135 1.245 . S
O154 Mg133 2.038 . S
O154 C135 1.274 . S
C155 O167 1.241 . S
C155 O168 1.280 . S
C156 O169 1.277 . S
C156 O170 1.245 . S
C157 O181 1.247 . S
C157 O183 1.289 . S
Mg158 O159 1.926 . S
Mg158 O168 1.984 . S
Mg158 O170 1.988 . S
Mg158 O171 2.061 . S
O159 Mg158 1.926 . S
O159 Mg160 1.986 . S
O159 Mg161 1.917 . S
Mg160 O159 1.986 . S
Mg160 O167 2.042 . S
Mg160 O169 2.041 . S
Mg160 O175 2.038 . S
Mg160 O183 2.238 . S
Mg161 O159 1.917 . S
Mg161 O162 1.917 . S
Mg161 O172 2.106 . S
Mg161 O174 2.079 . S
Mg161 O183 2.106 . S
Mg161 O184 2.079 . S
O162 Mg161 1.917 . S
O162 Mg163 1.926 . S
O162 Mg164 1.986 . S
Mg163 O162 1.926 . S
Mg163 O177 1.984 . S
Mg163 O180 1.988 1_556 S
Mg163 O181 2.061 . S
Mg164 O162 1.986 . S
Mg164 O172 2.238 . S
Mg164 O176 2.042 . S
Mg164 O178 2.041 1_556 S
Mg164 O185 2.038 . S
C165 O171 1.247 . S
C165 O172 1.289 . S
C166 O184 1.245 . S
C166 O185 1.274 . S
O167 C155 1.241 . S
O167 Mg160 2.042 . S
O168 C155 1.280 . S
O168 Mg158 1.984 . S
O169 C156 1.277 . S
O169 Mg160 2.041 . S
O170 C156 1.245 . S
O170 Mg158 1.988 . S
O171 Mg158 2.061 . S
O171 C165 1.247 . S
O172 Mg161 2.106 . S
O172 Mg164 2.238 . S
O172 C165 1.289 . S
C173 O174 1.245 . S
C173 O175 1.274 . S
O174 Mg161 2.079 . S
O174 C173 1.245 . S
O175 Mg160 2.038 . S
O175 C173 1.274 . S
O176 Mg164 2.042 . S
O176 C179 1.241 . S
O177 Mg163 1.984 . S
O177 C179 1.280 . S
O178 Mg164 2.041 1_554 S
O178 C182 1.277 . S
C179 O176 1.241 . S
C179 O177 1.280 . S
O180 Mg163 1.988 1_554 S
O180 C182 1.245 . S
O181 C157 1.247 . S
O181 Mg163 2.061 . S
C182 O178 1.277 . S
C182 O180 1.245 . S
O183 C157 1.289 . S
O183 Mg160 2.238 . S
O183 Mg161 2.106 . S
O184 Mg161 2.079 . S
O184 C166 1.245 . S
O185 Mg164 2.038 . S
O185 C166 1.274 . S
C186 C187 1.391 . S
C186 C188 1.394 . S
C186 H202 0.931 . S
C187 C186 1.391 . S
C187 C191 1.376 . S
C188 C186 1.394 . S
C188 C189 1.369 . S
C188 C192 1.531 . S
C189 C188 1.369 . S
C189 C190 1.410 . S
C189 C197 1.503 . S
C190 C189 1.410 . S
C190 C191 1.392 . S
C190 C193 1.511 . S
C191 C187 1.376 . S
C191 C190 1.392 . S
C191 H203 0.929 . S
C192 C188 1.531 . S
C192 H204 0.960 . S
C192 H205 0.962 . S
C192 H206 0.960 . S
C193 C190 1.511 . S
C193 H207 0.961 . S
C193 H208 0.961 . S
C193 H209 0.961 . S
C194 C195 1.370 . S
C194 C196 1.363 . S
C194 H210 0.931 . S
C195 C194 1.370 . S
C195 C199 1.408 . S
C196 C194 1.363 . S
C196 C197 1.370 . S
C196 C200 1.524 . S
C197 C189 1.503 . S
C197 C196 1.370 . S
C197 C198 1.403 . S
C198 C197 1.403 . S
C198 C199 1.404 . S
C198 C201 1.539 . S
C199 C195 1.408 . S
C199 C198 1.404 . S
C199 H211 0.930 . S
C200 C196 1.524 . S
C200 H212 0.956 . S
C200 H213 0.961 . S
C200 H214 0.961 . S
C201 C198 1.539 . S
C201 H215 0.958 . S
C201 H216 0.961 . S
C201 H217 0.960 . S
H202 C186 0.931 . S
H203 C191 0.929 . S
H204 C192 0.960 . S
H205 C192 0.962 . S
H206 C192 0.960 . S
H207 C193 0.961 . S
H208 C193 0.961 . S
H209 C193 0.961 . S
H210 C194 0.931 . S
H211 C199 0.930 . S
H212 C200 0.956 . S
H213 C200 0.961 . S
H214 C200 0.961 . S
H215 C201 0.958 . S
H216 C201 0.961 . S
H217 C201 0.960 . S
C218 C219 1.391 . S
C218 C220 1.394 . S
C218 H234 0.931 . S
C219 C218 1.391 . S
C219 C223 1.376 . S
C220 C218 1.394 . S
C220 C221 1.369 . S
C220 C224 1.531 . S
C221 C220 1.369 . S
C221 C222 1.410 . S
C221 C229 1.503 . S
C222 C221 1.410 . S
C222 C223 1.392 . S
C222 C225 1.511 . S
C223 C219 1.376 . S
C223 C222 1.392 . S
C223 H235 0.929 . S
C224 C220 1.531 . S
C224 H236 0.960 . S
C224 H237 0.962 . S
C224 H238 0.960 . S
C225 C222 1.511 . S
C225 H239 0.961 . S
C225 H240 0.961 . S
C225 H241 0.961 . S
C226 C227 1.370 . S
C226 C228 1.363 . S
C226 H242 0.931 . S
C227 C226 1.370 . S
C227 C231 1.408 . S
C228 C226 1.363 . S
C228 C229 1.370 . S
C228 C232 1.524 . S
C229 C221 1.503 . S
C229 C228 1.370 . S
C229 C230 1.403 . S
C230 C229 1.403 . S
C230 C231 1.404 . S
C230 C233 1.539 . S
C231 C227 1.408 . S
C231 C230 1.404 . S
C231 H243 0.930 . S
C232 C228 1.524 . S
C232 H244 0.956 . S
C232 H245 0.961 . S
C232 H246 0.961 . S
C233 C230 1.539 . S
C233 H247 0.958 . S
C233 H248 0.961 . S
C233 H249 0.960 . S
H234 C218 0.931 . S
H235 C223 0.929 . S
H236 C224 0.960 . S
H237 C224 0.962 . S
H238 C224 0.960 . S
H239 C225 0.961 . S
H240 C225 0.961 . S
H241 C225 0.961 . S
H242 C226 0.931 . S
H243 C231 0.930 . S
H244 C232 0.956 . S
H245 C232 0.961 . S
H246 C232 0.961 . S
H247 C233 0.958 . S
H248 C233 0.961 . S
H249 C233 0.960 . S
C250 C251 1.391 1_556 S
C250 C252 1.394 . S
C250 H266 0.931 1_556 S
C251 C250 1.391 1_554 S
C251 C255 1.376 1_554 S
C252 C250 1.394 . S
C252 C253 1.369 . S
C252 C256 1.531 . S
C253 C252 1.369 . S
C253 C254 1.410 . S
C253 C261 1.503 . S
C254 C253 1.410 . S
C254 C255 1.392 . S
C254 C257 1.511 . S
C255 C251 1.376 1_556 S
C255 C254 1.392 . S
C255 H267 0.929 1_556 S
C256 C252 1.531 . S
C256 H268 0.960 . S
C256 H269 0.962 . S
C256 H270 0.960 . S
C257 C254 1.511 . S
C257 H271 0.961 . S
C257 H272 0.961 . S
C257 H273 0.961 . S
C258 C259 1.370 . S
C258 C260 1.363 . S
C258 H274 0.931 . S
C259 C258 1.370 . S
C259 C263 1.408 . S
C260 C258 1.363 . S
C260 C261 1.370 . S
C260 C264 1.524 . S
C261 C253 1.503 . S
C261 C260 1.370 . S
C261 C262 1.403 . S
C262 C261 1.403 . S
C262 C263 1.404 . S
C262 C265 1.539 . S
C263 C259 1.408 . S
C263 C262 1.404 . S
C263 H275 0.930 . S
C264 C260 1.524 . S
C264 H276 0.956 . S
C264 H277 0.961 . S
C264 H278 0.961 . S
C265 C262 1.539 . S
C265 H279 0.958 . S
C265 H280 0.961 . S
C265 H281 0.960 . S
H266 C250 0.931 1_554 S
H267 C255 0.929 1_554 S
H268 C256 0.960 . S
H269 C256 0.962 . S
H270 C256 0.960 . S
H271 C257 0.961 . S
H272 C257 0.961 . S
H273 C257 0.961 . S
H274 C258 0.931 . S
H275 C263 0.930 . S
H276 C264 0.956 . S
H277 C264 0.961 . S
H278 C264 0.961 . S
H279 C265 0.958 . S
H280 C265 0.961 . S
H281 C265 0.960 . S
C282 C283 1.391 . S
C282 C284 1.394 . S
C282 H298 0.931 . S
C283 C282 1.391 . S
C283 C287 1.376 . S
C284 C282 1.394 . S
C284 C285 1.369 . S
C284 C288 1.531 . S
C285 C284 1.369 . S
C285 C286 1.410 . S
C285 C293 1.503 1_554 S
C286 C285 1.410 . S
C286 C287 1.392 . S
C286 C289 1.511 . S
C287 C283 1.376 . S
C287 C286 1.392 . S
C287 H299 0.929 . S
C288 C284 1.531 . S
C288 H300 0.960 1_554 S
C288 H301 0.962 . S
C288 H302 0.960 . S
C289 C286 1.511 . S
C289 H303 0.961 . S
C289 H304 0.961 1_554 S
C289 H305 0.961 . S
C290 C291 1.370 . S
C290 C292 1.363 . S
C290 H306 0.931 . S
C291 C290 1.370 . S
C291 C295 1.408 . S
C292 C290 1.363 . S
C292 C293 1.370 . S
C292 C296 1.524 . S
C293 C285 1.503 1_556 S
C293 C292 1.370 . S
C293 C294 1.403 . S
C294 C293 1.403 . S
C294 C295 1.404 . S
C294 C297 1.539 . S
C295 C291 1.408 . S
C295 C294 1.404 . S
C295 H307 0.930 . S
C296 C292 1.524 . S
C296 H308 0.956 . S
C296 H309 0.961 1_556 S
C296 H310 0.961 . S
C297 C294 1.539 . S
C297 H311 0.958 . S
C297 H312 0.961 . S
C297 H313 0.960 . S
H298 C282 0.931 . S
H299 C287 0.929 . S
H300 C288 0.960 1_556 S
H301 C288 0.962 . S
H302 C288 0.960 . S
H303 C289 0.961 . S
H304 C289 0.961 1_556 S
H305 C289 0.961 . S
H306 C290 0.931 . S
H307 C295 0.930 . S
H308 C296 0.956 . S
H309 C296 0.961 1_554 S
H310 C296 0.961 . S
H311 C297 0.958 . S
H312 C297 0.961 . S
H313 C297 0.960 . S
C314 C315 1.391 1_554 S
C314 C316 1.394 . S
C314 H330 0.931 1_554 S
C315 C314 1.391 1_556 S
C315 C319 1.376 1_556 S
C316 C314 1.394 . S
C316 C317 1.369 . S
C316 C320 1.531 . S
C317 C316 1.369 . S
C317 C318 1.410 . S
C317 C325 1.503 . S
C318 C317 1.410 . S
C318 C319 1.392 . S
C318 C321 1.511 . S
C319 C315 1.376 1_554 S
C319 C318 1.392 . S
C319 H331 0.929 1_554 S
C320 C316 1.531 . S
C320 H332 0.960 . S
C320 H333 0.962 . S
C320 H334 0.960 . S
C321 C318 1.511 . S
C321 H335 0.961 . S
C321 H336 0.961 . S
C321 H337 0.961 . S
C322 C323 1.370 . S
C322 C324 1.363 . S
C322 H338 0.931 . S
C323 C322 1.370 . S
C323 C327 1.408 . S
C324 C322 1.363 . S
C324 C325 1.370 . S
C324 C328 1.524 . S
C325 C317 1.503 . S
C325 C324 1.370 . S
C325 C326 1.403 . S
C326 C325 1.403 . S
C326 C327 1.404 . S
C326 C329 1.539 . S
C327 C323 1.408 . S
C327 C326 1.404 . S
C327 H339 0.930 . S
C328 C324 1.524 . S
C328 H340 0.956 . S
C328 H341 0.961 . S
C328 H342 0.961 . S
C329 C326 1.539 . S
C329 H343 0.958 . S
C329 H344 0.961 . S
C329 H345 0.960 . S
H330 C314 0.931 1_556 S
H331 C319 0.929 1_556 S
H332 C320 0.960 . S
H333 C320 0.962 . S
H334 C320 0.960 . S
H335 C321 0.961 . S
H336 C321 0.961 . S
H337 C321 0.961 . S
H338 C322 0.931 . S
H339 C327 0.930 . S
H340 C328 0.956 . S
H341 C328 0.961 . S
H342 C328 0.961 . S
H343 C329 0.958 . S
H344 C329 0.961 . S
H345 C329 0.960 . S
C346 C347 1.391 . S
C346 C348 1.394 . S
C346 H362 0.931 . S
C347 C346 1.391 . S
C347 C351 1.376 . S
C348 C346 1.394 . S
C348 C349 1.369 . S
C348 C352 1.531 . S
C349 C348 1.369 . S
C349 C350 1.410 . S
C349 C357 1.503 . S
C350 C349 1.410 . S
C350 C351 1.392 . S
C350 C353 1.511 . S
C351 C347 1.376 . S
C351 C350 1.392 . S
C351 H363 0.929 . S
C352 C348 1.531 . S
C352 H364 0.960 . S
C352 H365 0.962 . S
C352 H366 0.960 . S
C353 C350 1.511 . S
C353 H367 0.961 . S
C353 H368 0.961 . S
C353 H369 0.961 . S
C354 C355 1.370 . S
C354 C356 1.363 . S
C354 H370 0.931 . S
C355 C354 1.370 . S
C355 C359 1.408 . S
C356 C354 1.363 . S
C356 C357 1.370 . S
C356 C360 1.524 . S
C357 C349 1.503 . S
C357 C356 1.370 . S
C357 C358 1.403 . S
C358 C357 1.403 . S
C358 C359 1.404 . S
C358 C361 1.539 . S
C359 C355 1.408 . S
C359 C358 1.404 . S
C359 H371 0.930 . S
C360 C356 1.524 . S
C360 H372 0.956 . S
C360 H373 0.961 . S
C360 H374 0.961 . S
C361 C358 1.539 . S
C361 H375 0.958 . S
C361 H376 0.961 . S
C361 H377 0.960 . S
H362 C346 0.931 . S
H363 C351 0.929 . S
H364 C352 0.960 . S
H365 C352 0.962 . S
H366 C352 0.960 . S
H367 C353 0.961 . S
H368 C353 0.961 . S
H369 C353 0.961 . S
H370 C354 0.931 . S
H371 C359 0.930 . S
H372 C360 0.956 . S
H373 C360 0.961 . S
H374 C360 0.961 . S
H375 C361 0.958 . S
H376 C361 0.961 . S
H377 C361 0.960 . S
C378 C379 1.391 . S
C378 C380 1.394 . S
C378 H394 0.931 . S
C379 C378 1.391 . S
C379 C383 1.376 . S
C380 C378 1.394 . S
C380 C381 1.369 . S
C380 C384 1.531 . S
C381 C380 1.369 . S
C381 C382 1.410 . S
C381 C389 1.503 . S
C382 C381 1.410 . S
C382 C383 1.392 . S
C382 C385 1.511 . S
C383 C379 1.376 . S
C383 C382 1.392 . S
C383 H395 0.929 . S
C384 C380 1.531 . S
C384 H396 0.960 . S
C384 H397 0.962 . S
C384 H398 0.960 . S
C385 C382 1.511 . S
C385 H399 0.961 . S
C385 H400 0.961 . S
C385 H401 0.961 . S
C386 C387 1.370 . S
C386 C388 1.363 . S
C386 H402 0.931 . S
C387 C386 1.370 . S
C387 C391 1.408 . S
C388 C386 1.363 . S
C388 C389 1.370 . S
C388 C392 1.524 . S
C389 C381 1.503 . S
C389 C388 1.370 . S
C389 C390 1.403 . S
C390 C389 1.403 . S
C390 C391 1.404 . S
C390 C393 1.539 . S
C391 C387 1.408 . S
C391 C390 1.404 . S
C391 H403 0.930 . S
C392 C388 1.524 . S
C392 H404 0.956 . S
C392 H405 0.961 . S
C392 H406 0.961 . S
C393 C390 1.539 . S
C393 H407 0.958 . S
C393 H408 0.961 . S
C393 H409 0.960 . S
H394 C378 0.931 . S
H395 C383 0.929 . S
H396 C384 0.960 . S
H397 C384 0.962 . S
H398 C384 0.960 . S
H399 C385 0.961 . S
H400 C385 0.961 . S
H401 C385 0.961 . S
H402 C386 0.931 . S
H403 C391 0.930 . S
H404 C392 0.956 . S
H405 C392 0.961 . S
H406 C392 0.961 . S
H407 C393 0.958 . S
H408 C393 0.961 . S
H409 C393 0.960 . S
C410 C411 1.391 1_556 S
C410 C412 1.394 . S
C410 H426 0.931 . S
C411 C410 1.391 1_554 S
C411 C415 1.376 1_554 S
C412 C410 1.394 . S
C412 C413 1.369 . S
C412 C416 1.531 . S
C413 C412 1.369 . S
C413 C414 1.410 . S
C413 C421 1.503 . S
C414 C413 1.410 . S
C414 C415 1.392 . S
C414 C417 1.511 . S
C415 C411 1.376 1_556 S
C415 C414 1.392 . S
C415 H427 0.929 1_556 S
C416 C412 1.531 . S
C416 H428 0.960 . S
C416 H429 0.962 . S
C416 H430 0.960 . S
C417 C414 1.511 . S
C417 H431 0.961 . S
C417 H432 0.961 . S
C417 H433 0.961 . S
C418 C419 1.370 . S
C418 C420 1.363 . S
C418 H434 0.931 1_556 S
C419 C418 1.370 . S
C419 C423 1.408 . S
C420 C418 1.363 . S
C420 C421 1.370 . S
C420 C424 1.524 1_556 S
C421 C413 1.503 . S
C421 C420 1.370 . S
C421 C422 1.403 . S
C422 C421 1.403 . S
C422 C423 1.404 . S
C422 C425 1.539 . S
C423 C419 1.408 . S
C423 C422 1.404 . S
C423 H435 0.930 . S
C424 C420 1.524 1_554 S
C424 H436 0.956 . S
C424 H437 0.961 . S
C424 H438 0.961 . S
C425 C422 1.539 . S
C425 H439 0.958 . S
C425 H440 0.961 . S
C425 H441 0.960 . S
H426 C410 0.931 . S
H427 C415 0.929 1_554 S
H428 C416 0.960 . S
H429 C416 0.962 . S
H430 C416 0.960 . S
H431 C417 0.961 . S
H432 C417 0.961 . S
H433 C417 0.961 . S
H434 C418 0.931 1_554 S
H435 C423 0.930 . S
H436 C424 0.956 . S
H437 C424 0.961 . S
H438 C424 0.961 . S
H439 C425 0.958 . S
H440 C425 0.961 . S
H441 C425 0.960 . S
C442 C443 1.391 . S
C442 C444 1.394 . S
C442 H458 0.931 . S
C443 C442 1.391 . S
C443 C447 1.376 . S
C444 C442 1.394 . S
C444 C445 1.369 . S
C444 C448 1.531 . S
C445 C444 1.369 . S
C445 C446 1.410 . S
C445 C453 1.503 . S
C446 C445 1.410 . S
C446 C447 1.392 . S
C446 C449 1.511 . S
C447 C443 1.376 . S
C447 C446 1.392 . S
C447 H459 0.929 . S
C448 C444 1.531 . S
C448 H460 0.960 . S
C448 H461 0.962 . S
C448 H462 0.960 . S
C449 C446 1.511 . S
C449 H463 0.961 . S
C449 H464 0.961 . S
C449 H465 0.961 . S
C450 C451 1.370 . S
C450 C452 1.363 . S
C450 H466 0.931 . S
C451 C450 1.370 . S
C451 C455 1.408 . S
C452 C450 1.363 . S
C452 C453 1.370 . S
C452 C456 1.524 . S
C453 C445 1.503 . S
C453 C452 1.370 . S
C453 C454 1.403 . S
C454 C453 1.403 . S
C454 C455 1.404 . S
C454 C457 1.539 . S
C455 C451 1.408 . S
C455 C454 1.404 . S
C455 H467 0.930 . S
C456 C452 1.524 . S
C456 H468 0.956 . S
C456 H469 0.958 1_554 S
C456 H470 0.961 1_554 S
C457 C454 1.539 . S
C457 H471 0.958 . S
C457 H472 0.961 . S
C457 H473 0.960 . S
H458 C442 0.931 . S
H459 C447 0.929 . S
H460 C448 0.960 . S
H461 C448 0.962 . S
H462 C448 0.960 . S
H463 C449 0.961 . S
H464 C449 0.961 . S
H465 C449 0.961 . S
H466 C450 0.931 . S
H467 C455 0.930 . S
H468 C456 0.956 . S
H469 C456 0.958 1_556 S
H470 C456 0.961 1_556 S
H471 C457 0.958 . S
H472 C457 0.961 . S
H473 C457 0.960 . S
C474 C475 1.391 . S
C474 C476 1.394 . S
C474 H490 0.931 . S
C475 C474 1.391 . S
C475 C479 1.376 . S
C476 C474 1.394 . S
C476 C477 1.369 . S
C476 C480 1.531 . S
C477 C476 1.369 . S
C477 C478 1.410 . S
C477 C485 1.503 . S
C478 C477 1.410 . S
C478 C479 1.392 . S
C478 C481 1.511 . S
C479 C475 1.376 . S
C479 C478 1.392 . S
C479 H491 0.929 . S
C480 C476 1.531 . S
C480 H492 0.960 . S
C480 H493 0.962 . S
C480 H494 0.960 . S
C481 C478 1.511 . S
C481 H495 0.961 . S
C481 H496 0.961 . S
C481 H497 0.961 . S
C482 C483 1.370 . S
C482 C484 1.363 . S
C482 H498 0.931 . S
C483 C482 1.370 . S
C483 C487 1.408 . S
C484 C482 1.363 . S
C484 C485 1.370 . S
C484 C488 1.524 . S
C485 C477 1.503 . S
C485 C484 1.370 . S
C485 C486 1.403 . S
C486 C485 1.403 . S
C486 C487 1.404 . S
C486 C489 1.539 . S
C487 C483 1.408 . S
C487 C486 1.404 . S
C487 H499 0.930 . S
C488 C484 1.524 . S
C488 H500 0.956 . S
C488 H501 0.961 . S
C488 H502 0.961 . S
C489 C486 1.539 . S
C489 H503 0.958 . S
C489 H504 0.961 . S
C489 H505 0.960 . S
H490 C474 0.931 . S
H491 C479 0.929 . S
H492 C480 0.960 . S
H493 C480 0.962 . S
H494 C480 0.960 . S
H495 C481 0.961 . S
H496 C481 0.961 . S
H497 C481 0.961 . S
H498 C482 0.931 . S
H499 C487 0.930 . S
H500 C488 0.956 . S
H501 C488 0.961 . S
H502 C488 0.961 . S
H503 C489 0.958 . S
H504 C489 0.961 . S
H505 C489 0.960 . S
C506 C507 1.391 . S
C506 C508 1.394 . S
C506 H522 0.931 . S
C507 C506 1.391 . S
C507 C511 1.376 . S
C508 C506 1.394 . S
C508 C509 1.369 . S
C508 C512 1.531 . S
C509 C508 1.369 . S
C509 C510 1.410 . S
C509 C517 1.503 . S
C510 C509 1.410 . S
C510 C511 1.392 . S
C510 C513 1.511 . S
C511 C507 1.376 . S
C511 C510 1.392 . S
C511 H523 0.929 . S
C512 C508 1.531 . S
C512 H524 0.960 . S
C512 H525 0.962 . S
C512 H526 0.960 . S
C513 C510 1.511 . S
C513 H527 0.961 . S
C513 H528 0.961 . S
C513 H529 0.961 . S
C514 C515 1.370 . S
C514 C516 1.363 . S
C514 H530 0.931 . S
C515 C514 1.370 . S
C515 C519 1.408 . S
C516 C514 1.363 . S
C516 C517 1.370 . S
C516 C520 1.524 . S
C517 C509 1.503 . S
C517 C516 1.370 . S
C517 C518 1.403 . S
C518 C517 1.403 . S
C518 C519 1.404 . S
C518 C521 1.539 . S
C519 C515 1.408 . S
C519 C518 1.404 . S
C519 H531 0.930 . S
C520 C516 1.524 . S
C520 H532 0.956 . S
C520 H533 0.961 . S
C520 H534 0.961 . S
C521 C518 1.539 . S
C521 H535 0.958 . S
C521 H536 0.961 . S
C521 H537 0.960 . S
H522 C506 0.931 . S
H523 C511 0.929 . S
H524 C512 0.960 . S
H525 C512 0.962 . S
H526 C512 0.960 . S
H527 C513 0.961 . S
H528 C513 0.961 . S
H529 C513 0.961 . S
H530 C514 0.931 . S
H531 C519 0.930 . S
H532 C520 0.956 . S
H533 C520 0.961 . S
H534 C520 0.961 . S
H535 C521 0.958 . S
H536 C521 0.961 . S
H537 C521 0.960 . S
C538 C539 1.391 . S
C538 C540 1.394 . S
C538 H554 0.931 . S
C539 C538 1.391 . S
C539 C543 1.376 . S
C540 C538 1.394 . S
C540 C541 1.369 . S
C540 C544 1.531 . S
C541 C540 1.369 . S
C541 C542 1.410 . S
C541 C549 1.503 . S
C542 C541 1.410 . S
C542 C543 1.392 . S
C542 C545 1.511 . S
C543 C539 1.376 . S
C543 C542 1.392 . S
C543 H555 0.929 . S
C544 C540 1.531 . S
C544 H556 0.960 . S
C544 H557 0.962 . S
C544 H558 0.960 . S
C545 C542 1.511 . S
C545 H559 0.961 . S
C545 H560 0.961 . S
C545 H561 0.961 . S
C546 C547 1.370 . S
C546 C548 1.363 . S
C546 H562 0.931 . S
C547 C546 1.370 . S
C547 C551 1.408 . S
C548 C546 1.363 . S
C548 C549 1.370 . S
C548 C552 1.524 . S
C549 C541 1.503 . S
C549 C548 1.370 . S
C549 C550 1.403 . S
C550 C549 1.403 . S
C550 C551 1.404 . S
C550 C553 1.539 . S
C551 C547 1.408 . S
C551 C550 1.404 . S
C551 H563 0.930 . S
C552 C548 1.524 . S
C552 H564 0.956 . S
C552 H565 0.961 . S
C552 H566 0.961 . S
C553 C550 1.539 . S
C553 H567 0.958 . S
C553 H568 0.961 . S
C553 H569 0.960 . S
H554 C538 0.931 . S
H555 C543 0.929 . S
H556 C544 0.960 . S
H557 C544 0.962 . S
H558 C544 0.960 . S
H559 C545 0.961 . S
H560 C545 0.961 . S
H561 C545 0.961 . S
H562 C546 0.931 . S
H563 C551 0.930 . S
H564 C552 0.956 . S
H565 C552 0.961 . S
H566 C552 0.961 . S
H567 C553 0.958 . S
H568 C553 0.961 . S
H569 C553 0.960 . S
C570 C571 1.391 . S
C570 C572 1.394 . S
C570 H586 0.931 . S
C571 C570 1.391 . S
C571 C575 1.376 . S
C572 C570 1.394 . S
C572 C573 1.369 . S
C572 C576 1.531 . S
C573 C572 1.369 . S
C573 C574 1.410 . S
C573 C581 1.503 . S
C574 C573 1.410 . S
C574 C575 1.392 . S
C574 C577 1.511 . S
C575 C571 1.376 . S
C575 C574 1.392 . S
C575 H587 0.929 . S
C576 C572 1.531 . S
C576 H588 0.960 . S
C576 H589 0.962 . S
C576 H590 0.960 . S
C577 C574 1.511 . S
C577 H591 0.961 . S
C577 H592 0.961 . S
C577 H593 0.961 . S
C578 C579 1.370 1_545 S
C578 C580 1.363 . S
C578 H594 0.927 1_545 S
C579 C578 1.370 1_565 S
C579 C583 1.408 1_565 S
C580 C578 1.363 . S
C580 C581 1.370 . S
C580 C584 1.524 1_554 S
C581 C573 1.503 . S
C581 C580 1.370 . S
C581 C582 1.403 . S
C582 C581 1.403 . S
C582 C583 1.404 . S
C582 C585 1.539 . S
C583 C579 1.408 1_545 S
C583 C582 1.404 . S
C583 H595 0.930 1_545 S
C584 C580 1.524 1_556 S
C584 H596 0.956 . S
C584 H597 0.961 . S
C584 H598 0.961 . S
C585 C582 1.539 . S
C585 H599 0.958 . S
C585 H600 0.961 . S
C585 H601 0.960 . S
H586 C570 0.931 . S
H587 C575 0.929 . S
H588 C576 0.960 . S
H589 C576 0.962 . S
H590 C576 0.960 . S
H591 C577 0.961 . S
H592 C577 0.961 . S
H593 C577 0.961 . S
H594 C578 0.927 1_565 S
H595 C583 0.930 1_565 S
H596 C584 0.956 . S
H597 C584 0.961 . S
H598 C584 0.961 . S
H599 C585 0.958 . S
H600 C585 0.961 . S
H601 C585 0.960 . S
C602 C603 1.391 . S
C602 C604 1.394 . S
C602 H618 0.931 . S
C603 C602 1.391 . S
C603 C607 1.376 . S
C604 C602 1.394 . S
C604 C605 1.369 . S
C604 C608 1.531 . S
C605 C604 1.369 . S
C605 C606 1.410 . S
C605 C613 1.503 . S
C606 C605 1.410 . S
C606 C607 1.392 . S
C606 C609 1.511 . S
C607 C603 1.376 . S
C607 C606 1.392 . S
C607 H619 0.929 . S
C608 C604 1.531 . S
C608 H620 0.960 . S
C608 H621 0.962 . S
C608 H622 0.960 . S
C609 C606 1.511 . S
C609 H623 0.961 . S
C609 H624 0.961 . S
C609 H625 0.961 . S
C610 C611 1.370 . S
C610 C612 1.363 . S
C610 H626 0.931 . S
C611 C610 1.370 . S
C611 C615 1.408 . S
C612 C610 1.363 . S
C612 C613 1.370 . S
C612 C616 1.524 . S
C613 C605 1.503 . S
C613 C612 1.370 . S
C613 C614 1.403 . S
C614 C613 1.403 . S
C614 C615 1.404 . S
C614 C617 1.539 . S
C615 C611 1.408 . S
C615 C614 1.404 . S
C615 H627 0.930 . S
C616 C612 1.524 . S
C616 H628 0.956 . S
C616 H629 0.961 . S
C616 H630 0.961 . S
C617 C614 1.539 . S
C617 H631 0.958 . S
C617 H632 0.961 . S
C617 H633 0.960 . S
H618 C602 0.931 . S
H619 C607 0.929 . S
H620 C608 0.960 . S
H621 C608 0.962 . S
H622 C608 0.960 . S
H623 C609 0.961 . S
H624 C609 0.961 . S
H625 C609 0.961 . S
H626 C610 0.931 . S
H627 C615 0.930 . S
H628 C616 0.956 . S
H629 C616 0.961 . S
H630 C616 0.961 . S
H631 C617 0.958 . S
H632 C617 0.961 . S
H633 C617 0.960 . S
C634 C635 1.391 1_655 S
C634 C636 1.394 . S
C634 H650 0.931 . S
C635 C634 1.391 1_455 S
C635 C639 1.376 1_455 S
C636 C634 1.394 . S
C636 C637 1.369 . S
C636 C640 1.531 . S
C637 C636 1.369 . S
C637 C638 1.410 . S
C637 C645 1.503 . S
C638 C637 1.410 . S
C638 C639 1.392 . S
C638 C641 1.511 . S
C639 C635 1.376 1_655 S
C639 C638 1.392 . S
C639 H651 0.929 1_655 S
C640 C636 1.531 . S
C640 H652 0.960 . S
C640 H653 0.962 . S
C640 H654 0.960 . S
C641 C638 1.511 . S
C641 H655 0.961 . S
C641 H656 0.961 . S
C641 H657 0.961 . S
C642 C643 1.370 . S
C642 C644 1.363 . S
C642 H658 0.931 . S
C643 C642 1.370 . S
C643 C647 1.408 . S
C644 C642 1.363 . S
C644 C645 1.370 . S
C644 C648 1.524 . S
C645 C637 1.503 . S
C645 C644 1.370 . S
C645 C646 1.403 . S
C646 C645 1.403 . S
C646 C647 1.404 . S
C646 C649 1.539 . S
C647 C643 1.408 . S
C647 C646 1.404 . S
C647 H659 0.930 . S
C648 C644 1.524 . S
C648 H660 0.956 . S
C648 H661 0.961 . S
C648 H662 0.961 . S
C649 C646 1.539 . S
C649 H663 0.958 . S
C649 H664 0.961 . S
C649 H665 0.960 . S
H650 C634 0.931 . S
H651 C639 0.929 1_455 S
H652 C640 0.960 . S
H653 C640 0.962 . S
H654 C640 0.960 . S
H655 C641 0.961 . S
H656 C641 0.961 . S
H657 C641 0.961 . S
H658 C642 0.931 . S
H659 C647 0.930 . S
H660 C648 0.956 . S
H661 C648 0.961 . S
H662 C648 0.961 . S
H663 C649 0.958 . S
H664 C649 0.961 . S
H665 C649 0.960 . S
C666 C667 1.391 . S
C666 C668 1.394 . S
C666 H682 0.931 . S
C667 C666 1.391 . S
C667 C671 1.376 . S
C668 C666 1.394 . S
C668 C669 1.369 . S
C668 C672 1.531 . S
C669 C668 1.369 . S
C669 C670 1.410 . S
C669 C677 1.503 . S
C670 C669 1.410 . S
C670 C671 1.392 . S
C670 C673 1.511 . S
C671 C667 1.376 . S
C671 C670 1.392 . S
C671 H683 0.929 . S
C672 C668 1.531 . S
C672 H684 0.960 . S
C672 H685 0.962 . S
C672 H686 0.960 . S
C673 C670 1.511 . S
C673 H687 0.961 . S
C673 H688 0.961 . S
C673 H689 0.961 . S
C674 C675 1.370 1_565 S
C674 C676 1.363 . S
C674 H690 0.931 1_565 S
C675 C674 1.370 1_545 S
C675 C679 1.408 1_545 S
C676 C674 1.363 . S
C676 C677 1.370 . S
C676 C680 1.524 . S
C677 C669 1.503 . S
C677 C676 1.370 . S
C677 C678 1.403 . S
C678 C677 1.403 . S
C678 C679 1.404 . S
C678 C681 1.539 . S
C679 C675 1.408 1_565 S
C679 C678 1.404 . S
C679 H691 0.929 1_565 S
C680 C676 1.524 . S
C680 H692 0.956 . S
C680 H693 0.961 . S
C680 H694 0.961 . S
C681 C678 1.539 . S
C681 H695 0.958 . S
C681 H696 0.961 . S
C681 H697 0.960 . S
H682 C666 0.931 . S
H683 C671 0.929 . S
H684 C672 0.960 . S
H685 C672 0.962 . S
H686 C672 0.960 . S
H687 C673 0.961 . S
H688 C673 0.961 . S
H689 C673 0.961 . S
H690 C674 0.931 1_545 S
H691 C679 0.929 1_545 S
H692 C680 0.956 . S
H693 C680 0.961 . S
H694 C680 0.961 . S
H695 C681 0.958 . S
H696 C681 0.961 . S
H697 C681 0.960 . S
C698 C699 1.391 . S
C698 C700 1.394 . S
C698 H714 0.931 . S
C699 C698 1.391 . S
C699 C703 1.376 . S
C700 C698 1.394 . S
C700 C701 1.369 . S
C700 C704 1.531 . S
C701 C700 1.369 . S
C701 C702 1.410 . S
C701 C709 1.503 . S
C702 C701 1.410 . S
C702 C703 1.392 . S
C702 C705 1.511 . S
C703 C699 1.376 . S
C703 C702 1.392 . S
C703 H715 0.929 . S
C704 C700 1.531 . S
C704 H716 0.960 . S
C704 H717 0.962 . S
C704 H718 0.960 . S
C705 C702 1.511 . S
C705 H719 0.961 . S
C705 H720 0.961 . S
C705 H721 0.961 . S
C706 C707 1.370 . S
C706 C708 1.363 . S
C706 H722 0.931 . S
C707 C706 1.370 . S
C707 C711 1.408 . S
C708 C706 1.363 . S
C708 C709 1.370 . S
C708 C712 1.524 . S
C709 C701 1.503 . S
C709 C708 1.370 . S
C709 C710 1.403 . S
C710 C709 1.403 . S
C710 C711 1.404 . S
C710 C713 1.539 . S
C711 C707 1.408 . S
C711 C710 1.404 . S
C711 H723 0.930 . S
C712 C708 1.524 . S
C712 H724 0.956 . S
C712 H725 0.961 . S
C712 H726 0.961 . S
C713 C710 1.539 . S
C713 H727 0.958 . S
C713 H728 0.961 . S
C713 H729 0.960 . S
H714 C698 0.931 . S
H715 C703 0.929 . S
H716 C704 0.960 . S
H717 C704 0.962 . S
H718 C704 0.960 . S
H719 C705 0.961 . S
H720 C705 0.961 . S
H721 C705 0.961 . S
H722 C706 0.931 . S
H723 C711 0.930 . S
H724 C712 0.956 . S
H725 C712 0.961 . S
H726 C712 0.961 . S
H727 C713 0.958 . S
H728 C713 0.961 . S
H729 C713 0.960 . S
C730 C731 1.388 1_454 S
C730 C732 1.393 1_554 S
C730 H746 0.934 . S
C731 C730 1.388 1_656 S
C731 C735 1.376 1_655 S
C732 C730 1.393 1_556 S
C732 C733 1.369 . S
C732 C736 1.531 1_556 S
C733 C732 1.369 . S
C733 C734 1.410 . S
C733 C741 1.503 . S
C734 C733 1.410 . S
C734 C735 1.392 . S
C734 C737 1.511 . S
C735 C731 1.376 1_455 S
C735 C734 1.392 . S
C735 H747 0.929 1_455 S
C736 C732 1.531 1_554 S
C736 H748 0.960 . S
C736 H749 0.962 . S
C736 H750 0.960 . S
C737 C734 1.511 . S
C737 H751 0.961 . S
C737 H752 0.961 . S
C737 H753 0.961 . S
C738 C739 1.370 . S
C738 C740 1.363 . S
C738 H754 0.931 . S
C739 C738 1.370 . S
C739 C743 1.408 . S
C740 C738 1.363 . S
C740 C741 1.370 . S
C740 C744 1.524 . S
C741 C733 1.503 . S
C741 C740 1.370 . S
C741 C742 1.403 . S
C742 C741 1.403 . S
C742 C743 1.404 . S
C742 C745 1.539 . S
C743 C739 1.408 . S
C743 C742 1.404 . S
C743 H755 0.930 . S
C744 C740 1.524 . S
C744 H756 0.956 . S
C744 H757 0.961 . S
C744 H758 0.961 . S
C745 C742 1.539 . S
C745 H759 0.958 1_556 S
C745 H760 0.961 . S
C745 H761 0.960 . S
H746 C730 0.934 . S
H747 C735 0.929 1_655 S
H748 C736 0.960 . S
H749 C736 0.962 . S
H750 C736 0.960 . S
H751 C737 0.961 . S
H752 C737 0.961 . S
H753 C737 0.961 . S
H754 C738 0.931 . S
H755 C743 0.930 . S
H756 C744 0.956 . S
H757 C744 0.961 . S
H758 C744 0.961 . S
H759 C745 0.958 1_554 S
H760 C745 0.961 . S
H761 C745 0.960 . S
C762 C763 1.391 1_655 S
C762 C764 1.394 . S
C762 H778 0.931 . S
C763 C762 1.391 1_455 S
C763 C767 1.376 . S
C764 C762 1.394 . S
C764 C765 1.369 1_655 S
C764 C768 1.531 . S
C765 C764 1.369 1_455 S
C765 C766 1.410 . S
C765 C773 1.503 . S
C766 C765 1.410 . S
C766 C767 1.392 . S
C766 C769 1.511 . S
C767 C763 1.376 . S
C767 C766 1.392 . S
C767 H779 0.929 . S
C768 C764 1.531 . S
C768 H780 0.960 . S
C768 H781 0.962 . S
C768 H782 0.960 . S
C769 C766 1.511 . S
C769 H783 0.961 . S
C769 H784 0.961 . S
C769 H785 0.961 . S
C770 C771 1.370 . S
C770 C772 1.363 . S
C770 H786 0.931 . S
C771 C770 1.370 . S
C771 C775 1.408 . S
C772 C770 1.363 . S
C772 C773 1.370 . S
C772 C776 1.524 . S
C773 C765 1.503 . S
C773 C772 1.370 . S
C773 C774 1.403 . S
C774 C773 1.403 . S
C774 C775 1.404 . S
C774 C777 1.539 . S
C775 C771 1.408 . S
C775 C774 1.404 . S
C775 H787 0.930 . S
C776 C772 1.524 . S
C776 H788 0.956 . S
C776 H789 0.961 . S
C776 H790 0.961 . S
C777 C774 1.539 . S
C777 H791 0.958 1_455 S
C777 H792 0.961 . S
C777 H793 0.960 . S
H778 C762 0.931 . S
H779 C767 0.929 . S
H780 C768 0.960 . S
H781 C768 0.962 . S
H782 C768 0.960 . S
H783 C769 0.961 . S
H784 C769 0.961 . S
H785 C769 0.961 . S
H786 C770 0.931 . S
H787 C775 0.930 . S
H788 C776 0.956 . S
H789 C776 0.961 . S
H790 C776 0.961 . S
H791 C777 0.958 1_655 S
H792 C777 0.961 . S
H793 C777 0.960 . S
C794 C795 1.391 . S
C794 C796 1.394 . S
C794 H810 0.931 . S
C795 C794 1.391 . S
C795 C799 1.376 . S
C796 C794 1.394 . S
C796 C797 1.369 . S
C796 C800 1.531 1_545 S
C797 C796 1.369 . S
C797 C798 1.410 . S
C797 C805 1.503 . S
C798 C797 1.410 . S
C798 C799 1.392 . S
C798 C801 1.511 . S
C799 C795 1.376 . S
C799 C798 1.392 . S
C799 H811 0.929 . S
C800 C796 1.531 1_565 S
C800 H812 0.960 . S
C800 H813 0.962 1_565 S
C800 H814 0.960 . S
C801 C798 1.511 . S
C801 H815 0.961 . S
C801 H816 0.961 . S
C801 H817 0.961 . S
C802 C803 1.370 . S
C802 C804 1.363 . S
C802 H818 0.931 . S
C803 C802 1.370 . S
C803 C807 1.408 1_545 S
C804 C802 1.363 . S
C804 C805 1.370 . S
C804 C808 1.524 . S
C805 C797 1.503 . S
C805 C804 1.370 . S
C805 C806 1.403 1_545 S
C806 C805 1.403 1_565 S
C806 C807 1.404 . S
C806 C809 1.539 . S
C807 C803 1.408 1_565 S
C807 C806 1.404 . S
C807 H819 0.930 . S
C808 C804 1.524 . S
C808 H820 0.956 . S
C808 H821 0.961 . S
C808 H822 0.961 . S
C809 C806 1.539 . S
C809 H823 0.958 . S
C809 H824 0.961 . S
C809 H825 0.960 . S
H810 C794 0.931 . S
H811 C799 0.929 . S
H812 C800 0.960 . S
H813 C800 0.962 1_545 S
H814 C800 0.960 . S
H815 C801 0.961 . S
H816 C801 0.961 . S
H817 C801 0.961 . S
H818 C802 0.931 . S
H819 C807 0.930 . S
H820 C808 0.956 . S
H821 C808 0.961 . S
H822 C808 0.961 . S
H823 C809 0.958 . S
H824 C809 0.961 . S
H825 C809 0.960 . S
C826 C827 1.391 . S
C826 C828 1.394 . S
C826 H842 0.931 . S
C827 C826 1.391 . S
C827 C831 1.376 . S
C828 C826 1.394 . S
C828 C829 1.369 . S
C828 C832 1.531 . S
C829 C828 1.369 . S
C829 C830 1.410 . S
C829 C837 1.503 . S
C830 C829 1.410 . S
C830 C831 1.392 . S
C830 C833 1.511 . S
C831 C827 1.376 . S
C831 C830 1.392 . S
C831 H843 0.929 . S
C832 C828 1.531 . S
C832 H844 0.960 . S
C832 H845 0.962 . S
C832 H846 0.960 . S
C833 C830 1.511 . S
C833 H847 0.961 . S
C833 H848 0.961 . S
C833 H849 0.961 . S
C834 C835 1.370 . S
C834 C836 1.363 . S
C834 H850 0.931 . S
C835 C834 1.370 . S
C835 C839 1.408 . S
C836 C834 1.363 . S
C836 C837 1.370 . S
C836 C840 1.524 . S
C837 C829 1.503 . S
C837 C836 1.370 . S
C837 C838 1.403 . S
C838 C837 1.403 . S
C838 C839 1.404 . S
C838 C841 1.539 . S
C839 C835 1.408 . S
C839 C838 1.404 . S
C839 H851 0.930 . S
C840 C836 1.524 . S
C840 H852 0.956 . S
C840 H853 0.961 . S
C840 H854 0.961 . S
C841 C838 1.539 . S
C841 H855 0.958 . S
C841 H856 0.961 . S
C841 H857 0.960 . S
H842 C826 0.931 . S
H843 C831 0.929 . S
H844 C832 0.960 . S
H845 C832 0.962 . S
H846 C832 0.960 . S
H847 C833 0.961 . S
H848 C833 0.961 . S
H849 C833 0.961 . S
H850 C834 0.931 . S
H851 C839 0.930 . S
H852 C840 0.956 . S
H853 C840 0.961 . S
H854 C840 0.961 . S
H855 C841 0.958 . S
H856 C841 0.961 . S
H857 C841 0.960 . S
C858 C859 1.391 . S
C858 C860 1.394 . S
C858 H874 0.931 . S
C859 C858 1.391 . S
C859 C863 1.376 1_655 S
C860 C858 1.394 . S
C860 C861 1.369 . S
C860 C864 1.531 . S
C861 C860 1.369 . S
C861 C862 1.410 1_655 S
C861 C869 1.503 . S
C862 C861 1.410 1_455 S
C862 C863 1.392 . S
C862 C865 1.511 . S
C863 C859 1.376 1_455 S
C863 C862 1.392 . S
C863 H875 0.929 . S
C864 C860 1.531 . S
C864 H876 0.960 . S
C864 H877 0.962 . S
C864 H878 0.960 . S
C865 C862 1.511 . S
C865 H879 0.961 . S
C865 H880 0.961 . S
C865 H881 0.961 . S
C866 C867 1.370 . S
C866 C868 1.363 . S
C866 H882 0.931 . S
C867 C866 1.370 . S
C867 C871 1.408 . S
C868 C866 1.363 . S
C868 C869 1.370 . S
C868 C872 1.524 . S
C869 C861 1.503 . S
C869 C868 1.370 . S
C869 C870 1.403 . S
C870 C869 1.403 . S
C870 C871 1.404 . S
C870 C873 1.539 . S
C871 C867 1.408 . S
C871 C870 1.404 . S
C871 H883 0.930 . S
C872 C868 1.524 . S
C872 H884 0.956 . S
C872 H885 0.961 1_655 S
C872 H886 0.953 1_655 S
C873 C870 1.539 . S
C873 H887 0.958 . S
C873 H888 0.961 . S
C873 H889 0.960 . S
H874 C858 0.931 . S
H875 C863 0.929 . S
H876 C864 0.960 . S
H877 C864 0.962 . S
H878 C864 0.960 . S
H879 C865 0.961 . S
H880 C865 0.961 . S
H881 C865 0.961 . S
H882 C866 0.931 . S
H883 C871 0.930 . S
H884 C872 0.956 . S
H885 C872 0.961 1_455 S
H886 C872 0.953 1_455 S
H887 C873 0.958 . S
H888 C873 0.961 . S
H889 C873 0.960 . S
C890 C891 1.391 . S
C890 C892 1.394 . S
C890 H906 0.931 . S
C891 C890 1.391 . S
C891 C895 1.376 . S
C892 C890 1.394 . S
C892 C893 1.369 1_554 S
C892 C896 1.531 . S
C893 C892 1.369 1_556 S
C893 C894 1.410 . S
C893 C901 1.503 . S
C894 C893 1.410 . S
C894 C895 1.392 1_556 S
C894 C897 1.511 . S
C895 C891 1.376 . S
C895 C894 1.392 1_554 S
C895 H907 0.928 1_554 S
C896 C892 1.531 . S
C896 H908 0.960 1_565 S
C896 H909 0.962 . S
C896 H910 0.960 1_565 S
C897 C894 1.511 . S
C897 H911 0.961 . S
C897 H912 0.961 . S
C897 H913 0.961 . S
C898 C899 1.370 . S
C898 C900 1.363 . S
C898 H914 0.931 . S
C899 C898 1.370 . S
C899 C903 1.408 1_565 S
C900 C898 1.363 . S
C900 C901 1.370 . S
C900 C904 1.524 . S
C901 C893 1.503 . S
C901 C900 1.370 . S
C901 C902 1.403 1_565 S
C902 C901 1.403 1_545 S
C902 C903 1.404 . S
C902 C905 1.539 . S
C903 C899 1.408 1_545 S
C903 C902 1.404 . S
C903 H915 0.930 . S
C904 C900 1.524 . S
C904 H916 0.956 . S
C904 H917 0.961 . S
C904 H918 0.961 . S
C905 C902 1.539 . S
C905 H919 0.958 . S
C905 H920 0.961 . S
C905 H921 0.960 . S
H906 C890 0.931 . S
H907 C895 0.928 1_556 S
H908 C896 0.960 1_545 S
H909 C896 0.962 . S
H910 C896 0.960 1_545 S
H911 C897 0.961 . S
H912 C897 0.961 . S
H913 C897 0.961 . S
H914 C898 0.931 . S
H915 C903 0.930 . S
H916 C904 0.956 . S
H917 C904 0.961 . S
H918 C904 0.961 . S
H919 C905 0.958 . S
H920 C905 0.961 . S
H921 C905 0.960 . S
C922 C923 1.391 1_554 S
C922 C924 1.394 . S
C922 H938 0.931 . S
C923 C922 1.391 1_556 S
C923 C927 1.376 . S
C924 C922 1.394 . S
C924 C925 1.369 . S
C924 C928 1.531 . S
C925 C924 1.369 . S
C925 C926 1.410 . S
C925 C933 1.503 . S
C926 C925 1.410 . S
C926 C927 1.392 1_554 S
C926 C929 1.511 1_554 S
C927 C923 1.376 . S
C927 C926 1.392 1_556 S
C927 H939 0.929 . S
C928 C924 1.531 . S
C928 H940 0.960 . S
C928 H941 0.962 . S
C928 H942 0.960 . S
C929 C926 1.511 1_556 S
C929 H943 0.961 . S
C929 H944 0.961 1_556 S
C929 H945 0.961 . S
C930 C931 1.370 . S
C930 C932 1.363 . S
C930 H946 0.931 . S
C931 C930 1.370 . S
C931 C935 1.408 . S
C932 C930 1.363 . S
C932 C933 1.370 . S
C932 C936 1.524 . S
C933 C925 1.503 . S
C933 C932 1.370 . S
C933 C934 1.403 . S
C934 C933 1.403 . S
C934 C935 1.404 . S
C934 C937 1.539 . S
C935 C931 1.408 . S
C935 C934 1.404 . S
C935 H947 0.930 . S
C936 C932 1.524 . S
C936 H948 0.956 . S
C936 H949 0.961 . S
C936 H950 0.961 . S
C937 C934 1.539 . S
C937 H951 0.958 . S
C937 H952 0.961 . S
C937 H953 0.960 . S
H938 C922 0.931 . S
H939 C927 0.929 . S
H940 C928 0.960 . S
H941 C928 0.962 . S
H942 C928 0.960 . S
H943 C929 0.961 . S
H944 C929 0.961 1_554 S
H945 C929 0.961 . S
H946 C930 0.931 . S
H947 C935 0.930 . S
H948 C936 0.956 . S
H949 C936 0.961 . S
H950 C936 0.961 . S
H951 C937 0.958 . S
H952 C937 0.961 . S
H953 C937 0.960 . S
C187 C27 1.459 . S
C195 C1 1.486 . S
C219 C58 1.451 . S
C227 C32 1.486 . S
C251 C63 1.488 . S
C259 C89 1.470 . S
C283 C94 1.474 . S
C291 C120 1.480 . S
C315 C151 1.505 . S
C323 C125 1.466 . S
C347 C182 1.491 . S
C355 C156 1.469 . S
C379 C134 1.321 . S
C387 C0 1.279 . S
C411 C31 1.279 . S
C419 C165 1.259 . S
C443 C10 1.307 . S
C451 C62 1.307 . S
C475 C41 1.233 . S
C483 C93 1.288 . S
C507 C124 1.280 . S
C515 C72 1.259 . S
C539 C103 1.306 . S
C547 C155 1.307 . S
C571 C18 2.073 . S
C579 C33 2.031 . S
C603 C49 2.076 . S
C611 C64 2.030 . S
C635 C95 2.026 . S
C643 C80 2.056 . S
C667 C111 2.076 . S
C675 C126 2.030 . S
C699 C142 2.021 . S
C707 C157 2.054 . S
C731 C2 2.040 . S
C739 C173 2.050 . S
C763 C24 0.772 1_455 S
C771 C104 0.894 . S
C795 C135 0.935 . S
C803 C55 0.815 1_545 S
C827 C86 0.927 . S
C835 C166 0.890 . S
C859 C117 0.904 1_655 S
C867 C11 0.901 . S
C891 C42 0.935 . S
C899 C148 0.809 1_565 S
C923 C179 0.923 . S
C931 C73 0.885 . S
