# Generated by pormake.
# Topology snl, (6)-cn, num edge types: 1
# Building blocks:
#     Node 0, Type 0, BuildingBlock: INOVEN_clean_sbu_0, # of connection points: 6
#     Node 1, Type 0, BuildingBlock: INOVEN_clean_sbu_0, # of connection points: 6
#     Node 2, Type 0, BuildingBlock: INOVEN_clean_sbu_0, # of connection points: 6
#     Node 3, Type 0, BuildingBlock: INOVEN_clean_sbu_0, # of connection points: 6
#     Node 4, Type 0, BuildingBlock: INOVEN_clean_sbu_0, # of connection points: 6
#     Node 5, Type 0, BuildingBlock: INOVEN_clean_sbu_0, # of connection points: 6
#     Node 6, Type 0, BuildingBlock: INOVEN_clean_sbu_0, # of connection points: 6
#     Node 7, Type 0, BuildingBlock: INOVEN_clean_sbu_0, # of connection points: 6
#     Node 8, Type 0, BuildingBlock: INOVEN_clean_sbu_0, # of connection points: 6
#     Node 9, Type 0, BuildingBlock: INOVEN_clean_sbu_0, # of connection points: 6
#     Node 10, Type 0, BuildingBlock: INOVEN_clean_sbu_0, # of connection points: 6
#     Node 11, Type 0, BuildingBlock: INOVEN_clean_sbu_0, # of connection points: 6
#     Node 12, Type 0, BuildingBlock: INOVEN_clean_sbu_0, # of connection points: 6
#     Node 13, Type 0, BuildingBlock: INOVEN_clean_sbu_0, # of connection points: 6
#     Node 14, Type 0, BuildingBlock: INOVEN_clean_sbu_0, # of connection points: 6
#     Node 15, Type 0, BuildingBlock: INOVEN_clean_sbu_0, # of connection points: 6
#     Edge 16, Type (0, 0), BuildingBlock: UVAHIK_clean_linker_0, # of connection points: 2
#     Edge 17, Type (0, 0), BuildingBlock: UVAHIK_clean_linker_0, # of connection points: 2
#     Edge 18, Type (0, 0), BuildingBlock: UVAHIK_clean_linker_0, # of connection points: 2
#     Edge 19, Type (0, 0), BuildingBlock: UVAHIK_clean_linker_0, # of connection points: 2
#     Edge 20, Type (0, 0), BuildingBlock: UVAHIK_clean_linker_0, # of connection points: 2
#     Edge 21, Type (0, 0), BuildingBlock: UVAHIK_clean_linker_0, # of connection points: 2
#     Edge 22, Type (0, 0), BuildingBlock: UVAHIK_clean_linker_0, # of connection points: 2
#     Edge 23, Type (0, 0), BuildingBlock: UVAHIK_clean_linker_0, # of connection points: 2
#     Edge 24, Type (0, 0), BuildingBlock: UVAHIK_clean_linker_0, # of connection points: 2
#     Edge 25, Type (0, 0), BuildingBlock: UVAHIK_clean_linker_0, # of connection points: 2
#     Edge 26, Type (0, 0), BuildingBlock: UVAHIK_clean_linker_0, # of connection points: 2
#     Edge 27, Type (0, 0), BuildingBlock: UVAHIK_clean_linker_0, # of connection points: 2
#     Edge 28, Type (0, 0), BuildingBlock: UVAHIK_clean_linker_0, # of connection points: 2
#     Edge 29, Type (0, 0), BuildingBlock: UVAHIK_clean_linker_0, # of connection points: 2
#     Edge 30, Type (0, 0), BuildingBlock: UVAHIK_clean_linker_0, # of connection points: 2
#     Edge 31, Type (0, 0), BuildingBlock: UVAHIK_clean_linker_0, # of connection points: 2
#     Edge 32, Type (0, 0), BuildingBlock: UVAHIK_clean_linker_0, # of connection points: 2
#     Edge 33, Type (0, 0), BuildingBlock: UVAHIK_clean_linker_0, # of connection points: 2
#     Edge 34, Type (0, 0), BuildingBlock: UVAHIK_clean_linker_0, # of connection points: 2
#     Edge 35, Type (0, 0), BuildingBlock: UVAHIK_clean_linker_0, # of connection points: 2
#     Edge 36, Type (0, 0), BuildingBlock: UVAHIK_clean_linker_0, # of connection points: 2
#     Edge 37, Type (0, 0), BuildingBlock: UVAHIK_clean_linker_0, # of connection points: 2
#     Edge 38, Type (0, 0), BuildingBlock: UVAHIK_clean_linker_0, # of connection points: 2
#     Edge 39, Type (0, 0), BuildingBlock: UVAHIK_clean_linker_0, # of connection points: 2
#     Edge 40, Type (0, 0), BuildingBlock: UVAHIK_clean_linker_0, # of connection points: 2
#     Edge 41, Type (0, 0), BuildingBlock: UVAHIK_clean_linker_0, # of connection points: 2
#     Edge 42, Type (0, 0), BuildingBlock: UVAHIK_clean_linker_0, # of connection points: 2
#     Edge 43, Type (0, 0), BuildingBlock: UVAHIK_clean_linker_0, # of connection points: 2
#     Edge 44, Type (0, 0), BuildingBlock: UVAHIK_clean_linker_0, # of connection points: 2
#     Edge 45, Type (0, 0), BuildingBlock: UVAHIK_clean_linker_0, # of connection points: 2
#     Edge 46, Type (0, 0), BuildingBlock: UVAHIK_clean_linker_0, # of connection points: 2
#     Edge 47, Type (0, 0), BuildingBlock: UVAHIK_clean_linker_0, # of connection points: 2
#     Edge 48, Type (0, 0), BuildingBlock: UVAHIK_clean_linker_0, # of connection points: 2
#     Edge 49, Type (0, 0), BuildingBlock: UVAHIK_clean_linker_0, # of connection points: 2
#     Edge 50, Type (0, 0), BuildingBlock: UVAHIK_clean_linker_0, # of connection points: 2
#     Edge 51, Type (0, 0), BuildingBlock: UVAHIK_clean_linker_0, # of connection points: 2
#     Edge 52, Type (0, 0), BuildingBlock: UVAHIK_clean_linker_0, # of connection points: 2
#     Edge 53, Type (0, 0), BuildingBlock: UVAHIK_clean_linker_0, # of connection points: 2
#     Edge 54, Type (0, 0), BuildingBlock: UVAHIK_clean_linker_0, # of connection points: 2
#     Edge 55, Type (0, 0), BuildingBlock: UVAHIK_clean_linker_0, # of connection points: 2
#     Edge 56, Type (0, 0), BuildingBlock: UVAHIK_clean_linker_0, # of connection points: 2
#     Edge 57, Type (0, 0), BuildingBlock: UVAHIK_clean_linker_0, # of connection points: 2
#     Edge 58, Type (0, 0), BuildingBlock: UVAHIK_clean_linker_0, # of connection points: 2
#     Edge 59, Type (0, 0), BuildingBlock: UVAHIK_clean_linker_0, # of connection points: 2
#     Edge 60, Type (0, 0), BuildingBlock: UVAHIK_clean_linker_0, # of connection points: 2
#     Edge 61, Type (0, 0), BuildingBlock: UVAHIK_clean_linker_0, # of connection points: 2
#     Edge 62, Type (0, 0), BuildingBlock: UVAHIK_clean_linker_0, # of connection points: 2
#     Edge 63, Type (0, 0), BuildingBlock: UVAHIK_clean_linker_0, # of connection points: 2
# Relax obj value: 0.187
# Max RMSD: 0.265
# Mean RMSD: 0.222
data_MOF--net-snl--node1-INOVEN_clean_sbu_0--edge1-UVAHIK_clean_linker_0
_symmetry_space_group_name_H-M    P1
_symmetry_Int_Tables_number       1
_symmetry_cell_setting            triclinic
loop_
_symmetry_equiv_pos_as_xyz
'x, y, z'
_cell_length_a     73.84379
_cell_length_b     74.168739
_cell_length_c     30.266532
_cell_angle_alpha  100.40995
_cell_angle_beta   91.491483
_cell_angle_gamma 89.845645
loop_
_atom_site_label
_atom_site_type_symbol
_atom_site_fract_x
_atom_site_fract_y
_atom_site_fract_z
_atom_type_partial_charge
Gd0 Gd 0.14791 0.62991 0.13152 0.0
Gd1 Gd 0.13181 0.63698 0.22266 0.0
C2 C 0.10438 0.63687 0.14175 0.0
C3 C 0.15633 0.61776 0.0487 0.0
C4 C 0.15164 0.62004 1.00225 0.0
C5 C 0.14752 0.6373 0.99165 0.0
C6 C 0.15242 0.60478 0.96745 0.0
C7 C 0.1459 0.62405 0.91163 0.0
C8 C 0.14956 0.60673 0.92267 0.0
C9 C 0.14471 0.63928 0.94678 0.0
C10 C 0.14711 0.66592 0.17016 0.0
C11 C 0.17524 0.63115 0.21446 0.0
C12 C 0.12295 0.64802 0.30561 0.0
C13 C 0.12776 0.64558 0.35191 0.0
C14 C 0.13199 0.62829 0.36216 0.0
C15 C 0.127 0.66076 0.38695 0.0
C16 C 0.13378 0.64134 0.44228 0.0
C17 C 0.13 0.65869 0.43161 0.0
C18 C 0.13494 0.62619 0.40691 0.0
C19 C 0.13249 0.60125 0.18145 0.0
O20 O 0.1173 0.62834 0.11636 0.0
O21 O 0.10802 0.64491 0.18353 0.0
O22 O 0.16454 0.63147 0.0746 0.0
O23 O 0.14434 0.60981 0.06988 0.0
O24 O 0.16007 0.65827 0.14559 0.0
O25 O 0.13468 0.65443 0.17124 0.0
O26 O 0.1619 0.63915 0.2389 0.0
O27 O 0.17228 0.62326 0.1721 0.0
O28 O 0.11529 0.63414 0.27899 0.0
O29 O 0.13457 0.65672 0.28512 0.0
O30 O 0.11919 0.60861 0.2053 0.0
O31 O 0.14496 0.61278 0.18247 0.0
H32 H 0.14676 0.64929 0.01794 0.0
H33 H 0.15566 0.59136 0.97485 0.0
H34 H 0.15079 0.59474 0.89658 0.0
H35 H 0.14166 0.65276 0.9396 0.0
H36 H 0.13274 0.61636 0.33569 0.0
H37 H 0.12366 0.6742 0.37985 0.0
H38 H 0.12879 0.67062 0.45789 0.0
H39 H 0.13807 0.61269 0.41381 0.0
Gd40 Gd 0.64922 0.89528 0.40945 0.0
Gd41 Gd 0.63175 0.88922 0.3175 0.0
C42 C 0.60537 0.88878 0.39707 0.0
C43 C 0.65868 0.90674 0.49303 0.0
C44 C 0.654 0.90474 0.53917 0.0
C45 C 0.65079 0.8875 0.55056 0.0
C46 C 0.65389 0.92036 0.57312 0.0
C47 C 0.64843 0.9015 0.62974 0.0
C48 C 0.65111 0.91878 0.61784 0.0
C49 C 0.64804 0.8859 0.59536 0.0
C50 C 0.64758 0.85957 0.36878 0.0
C51 C 0.67549 0.89381 0.32775 0.0
C52 C 0.62184 0.87908 0.23375 0.0
C53 C 0.62668 0.88107 0.18768 0.0
C54 C 0.62989 0.89831 0.17622 0.0
C55 C 0.6269 0.86544 0.15379 0.0
C56 C 0.63249 0.88424 0.09714 0.0
C57 C 0.6298 0.86698 0.1091 0.0
C58 C 0.63276 0.89987 0.13143 0.0
C59 C 0.6334 0.92465 0.36084 0.0
O60 O 0.6188 0.89673 0.42349 0.0
O61 O 0.60822 0.88139 0.35483 0.0
O62 O 0.66595 0.89259 0.4676 0.0
O63 O 0.6472 0.91551 0.47096 0.0
O64 O 0.66097 0.86684 0.39423 0.0
O65 O 0.6352 0.87124 0.36793 0.0
O66 O 0.66158 0.88647 0.30253 0.0
O67 O 0.67337 0.90145 0.3703 0.0
O68 O 0.61537 0.89348 0.25997 0.0
O69 O 0.63272 0.86941 0.25505 0.0
O70 O 0.61964 0.91764 0.33641 0.0
O71 O 0.64577 0.91293 0.35946 0.0
H72 H 0.65079 0.87521 0.52504 0.0
H73 H 0.65631 0.9338 0.56514 0.0
H74 H 0.65116 0.93113 0.64314 0.0
H75 H 0.64617 0.87236 0.6032 0.0
H76 H 0.62979 0.91063 0.20165 0.0
H77 H 0.62447 0.852 0.16177 0.0
H78 H 0.62984 0.85461 0.08386 0.0
H79 H 0.63463 0.9134 0.12354 0.0
Gd80 Gd 0.3739 0.38582 0.57523 0.0
Gd81 Gd 0.39068 0.39577 0.66663 0.0
C82 C 0.41758 0.38404 0.58847 0.0
C83 C 0.36352 0.38218 0.49163 0.0
C84 C 0.36951 0.38413 0.44646 0.0
C85 C 0.37197 0.36833 0.41382 0.0
C86 C 0.37097 0.40142 0.43395 0.0
C87 C 0.37608 0.38697 0.35635 0.0
C88 C 0.37426 0.40282 0.38935 0.0
C89 C 0.3753 0.36973 0.36936 0.0
C90 C 0.3734 0.35808 0.62247 0.0
C91 C 0.34706 0.3953 0.65622 0.0
C92 C 0.40145 0.40056 0.75016 0.0
C93 C 0.39543 0.39962 0.79597 0.0
C94 C 0.39329 0.41591 0.82722 0.0
C95 C 0.39357 0.38274 0.81036 0.0
C96 C 0.38854 0.39852 0.88694 0.0
C97 C 0.39013 0.3822 0.85534 0.0
C98 C 0.38981 0.41537 0.87212 0.0
C99 C 0.39095 0.42303 0.61729 0.0
O100 O 0.4041 0.38753 0.56152 0.0
O101 O 0.41493 0.38374 0.63109 0.0
O102 O 0.37054 0.36882 0.5093 0.0
O103 O 0.36106 0.39711 0.52122 0.0
O104 O 0.36034 0.36176 0.59615 0.0
O105 O 0.38649 0.36896 0.6217 0.0
O106 O 0.36126 0.39328 0.68224 0.0
O107 O 0.34872 0.39516 0.61281 0.0
O108 O 0.39483 0.41371 0.7311 0.0
O109 O 0.40335 0.38515 0.72188 0.0
O110 O 0.40425 0.41964 0.64332 0.0
O111 O 0.37797 0.41231 0.61976 0.0
H112 H 0.37079 0.35483 0.42239 0.0
H113 H 0.36899 0.41388 0.4582 0.0
H114 H 0.37464 0.41631 0.38041 0.0
H115 H 0.37695 0.35726 0.34497 0.0
H116 H 0.39479 0.42912 0.8172 0.0
H117 H 0.39531 0.36992 0.78727 0.0
H118 H 0.38942 0.36899 0.86567 0.0
H119 H 0.38838 0.42819 0.8954 0.0
Gd120 Gd 0.88083 0.12041 0.84853 0.0
Gd121 Gd 0.88672 0.13937 0.95181 0.0
C122 C 0.88716 0.16436 0.87806 0.0
C123 C 0.866 0.1096 0.76978 0.0
C124 C 0.86871 0.11166 0.72275 0.0
C125 C 0.88545 0.11716 0.70857 0.0
C126 C 0.8542 0.10822 0.69158 0.0
C127 C 0.87311 0.11552 0.63213 0.0
C128 C 0.85636 0.11011 0.64681 0.0
C129 C 0.88763 0.11905 0.6637 0.0
C130 C 0.91672 0.12737 0.86791 0.0
C131 C 0.88207 0.09482 0.92576 0.0
C132 C 0.89766 0.1493 0.03475 0.0
C133 C 0.89547 0.1446 0.0798 0.0
C134 C 0.87891 0.1383 0.09321 0.0
C135 C 0.91014 0.14718 0.11061 0.0
C136 C 0.89162 0.13807 0.16858 0.0
C137 C 0.90828 0.14394 0.15441 0.0
C138 C 0.87701 0.13507 0.13716 0.0
C139 C 0.85227 0.13707 0.91737 0.0
O140 O 0.87823 0.15113 0.85072 0.0
O141 O 0.89507 0.16171 0.91605 0.0
O142 O 0.87813 0.09996 0.78783 0.0
O143 O 0.86089 0.12436 0.79731 0.0
O144 O 0.91035 0.11976 0.82865 0.0
O145 O 0.90359 0.13064 0.89375 0.0
O146 O 0.88565 0.10955 0.9566 0.0
O147 O 0.87881 0.09561 0.88267 0.0
O148 O 0.88372 0.15661 0.01699 0.0
O149 O 0.90644 0.13755 1.0054 0.0
O150 O 0.85802 0.15046 0.94831 0.0
O151 O 0.86455 0.1253 0.90901 0.0
H152 H 0.89682 0.11995 0.73214 0.0
H153 H 0.84114 0.1041 0.70193 0.0
H154 H 0.84478 0.10759 0.62385 0.0
H155 H 0.90078 0.12305 0.65365 0.0
H156 H 0.86739 0.13616 0.06998 0.0
H157 H 0.92306 0.15195 0.10094 0.0
H158 H 0.91994 0.14605 0.17721 0.0
H159 H 0.86395 0.13069 0.14684 0.0
Gd160 Gd 0.14663 0.39326 0.94164 0.0
Gd161 Gd 0.12907 0.38789 0.84926 0.0
C162 C 0.10313 0.38569 0.92868 0.0
C163 C 0.15613 0.40409 0.02542 0.0
C164 C 0.15113 0.40239 0.07146 0.0
C165 C 0.14481 0.3858 0.08165 0.0
C166 C 0.1538 0.41744 0.10638 0.0
C167 C 0.14477 0.39918 0.1616 0.0
C168 C 0.15065 0.41588 0.15092 0.0
C169 C 0.14169 0.38421 0.1263 0.0
C170 C 0.14618 0.358 0.89759 0.0
C171 C 0.17259 0.39462 0.86012 0.0
C172 C 0.11917 0.37781 0.76556 0.0
C173 C 0.12393 0.37997 0.71969 0.0
C174 C 0.13039 0.39664 0.71032 0.0
C175 C 0.12109 0.36519 0.68417 0.0
C176 C 0.13037 0.38383 0.63003 0.0
C177 C 0.12429 0.36706 0.63987 0.0
C178 C 0.13354 0.39856 0.66589 0.0
C179 C 0.1296 0.42285 0.89525 0.0
O180 O 0.11627 0.39386 0.95565 0.0
O181 O 0.10612 0.3788 0.88625 0.0
O182 O 0.16267 0.3895 1.00007 0.0
O183 O 0.14526 0.41347 1.00334 0.0
O184 O 0.15937 0.36533 0.9237 0.0
O185 O 0.13342 0.36933 0.89793 0.0
O186 O 0.15883 0.38762 0.83381 0.0
O187 O 0.17055 0.40056 0.90361 0.0
O188 O 0.1126 0.39215 0.79187 0.0
O189 O 0.13028 0.36827 0.78664 0.0
O190 O 0.11603 0.41578 0.87004 0.0
O191 O 0.14233 0.4115 0.89315 0.0
H192 H 0.14256 0.374 0.05524 0.0
H193 H 0.15876 0.43033 0.09929 0.0
H194 H 0.15338 0.42763 0.17715 0.0
H195 H 0.13693 0.37123 0.13319 0.0
H196 H 0.13277 0.40823 0.73723 0.0
H197 H 0.11605 0.35223 0.69062 0.0
H198 H 0.12148 0.3555 0.61319 0.0
H199 H 0.13845 0.41159 0.65962 0.0
Gd200 Gd 0.87811 0.90038 0.17655 0.0
Gd201 Gd 0.88189 0.88048 0.07394 0.0
C202 C 0.88345 0.85614 0.14947 0.0
C203 C 0.86427 0.91193 0.25423 0.0
C204 C 0.8668 0.90972 0.30151 0.0
C205 C 0.88319 0.90341 0.31765 0.0
C206 C 0.85236 0.91368 0.33081 0.0
C207 C 0.87057 0.90509 0.39219 0.0
C208 C 0.8542 0.91141 0.37562 0.0
C209 C 0.88508 0.90118 0.36261 0.0
C210 C 0.91353 0.89263 0.1579 0.0
C211 C 0.87888 0.92521 0.09798 0.0
C212 C 0.89124 0.86982 0.99132 0.0
C213 C 0.88924 0.87493 0.9464 0.0
C214 C 0.8731 0.88238 0.93193 0.0
C215 C 0.90368 0.87167 0.91683 0.0
C216 C 0.88577 0.88264 0.85818 0.0
C217 C 0.902 0.87549 0.87329 0.0
C218 C 0.87137 0.88615 0.8882 0.0
C219 C 0.84811 0.88376 0.10794 0.0
O220 O 0.87551 0.86983 0.1765 0.0
O221 O 0.89028 0.85813 0.11066 0.0
O222 O 0.87694 0.92085 0.23733 0.0
O223 O 0.85825 0.89749 0.22622 0.0
O224 O 0.90799 0.90062 0.19693 0.0
O225 O 0.89986 0.88936 0.13204 0.0
O226 O 0.88147 0.91018 0.06779 0.0
O227 O 0.87635 0.92491 0.14123 0.0
O228 O 0.87678 0.86382 1.00832 0.0
O229 O 0.9013 0.88055 0.02125 0.0
O230 O 0.85316 0.86998 0.07794 0.0
O231 O 0.86069 0.89537 0.1158 0.0
H232 H 0.89448 0.90013 0.29546 0.0
H233 H 0.83958 0.91853 0.31898 0.0
H234 H 0.84282 0.91481 0.39743 0.0
H235 H 0.89781 0.89608 0.374 0.0
H236 H 0.86179 0.88514 0.95423 0.0
H237 H 0.91623 0.86588 0.92723 0.0
H238 H 0.91329 0.87239 0.85107 0.0
H239 H 0.85877 0.89187 0.87795 0.0
Gd240 Gd 0.37889 0.61782 0.36246 0.0
Gd241 Gd 0.38639 0.63491 0.46624 0.0
C242 C 0.38478 0.66165 0.39606 0.0
C243 C 0.36311 0.60787 0.28456 0.0
C244 C 0.36551 0.61047 0.23783 0.0
C245 C 0.38206 0.61648 0.22382 0.0
C246 C 0.35103 0.60677 0.20664 0.0
C247 C 0.36966 0.61476 0.14748 0.0
C248 C 0.35306 0.60888 0.16198 0.0
C249 C 0.38413 0.61856 0.17908 0.0
C250 C 0.41484 0.62551 0.37834 0.0
C251 C 0.38392 0.59036 0.43475 0.0
C252 C 0.39818 0.64404 0.54875 0.0
C253 C 0.39552 0.63943 0.59367 0.0
C254 C 0.37888 0.63283 0.6057 0.0
C255 C 0.40976 0.64239 0.62571 0.0
C256 C 0.39066 0.6328 0.68196 0.0
C257 C 0.40739 0.63911 0.66931 0.0
C258 C 0.37646 0.62958 0.64944 0.0
C259 C 0.35128 0.63187 0.43616 0.0
O260 O 0.37544 0.64872 0.36869 0.0
O261 O 0.39359 0.65824 0.43226 0.0
O262 O 0.3754 0.59793 0.30108 0.0
O263 O 0.35827 0.6224 0.31333 0.0
O264 O 0.40792 0.61833 0.33933 0.0
O265 O 0.40222 0.62792 0.4058 0.0
O266 O 0.3881 0.60462 0.46651 0.0
O267 O 0.37845 0.59206 0.39345 0.0
O268 O 0.38478 0.65234 0.53155 0.0
O269 O 0.40605 0.63168 0.519 0.0
O270 O 0.35713 0.6448 0.46802 0.0
O271 O 0.36387 0.62074 0.42478 0.0
H272 H 0.39339 0.61953 0.24745 0.0
H273 H 0.33814 0.6021 0.21678 0.0
H274 H 0.34169 0.6056 0.1386 0.0
H275 H 0.39702 0.62335 0.16936 0.0
H276 H 0.3677 0.63037 0.58145 0.0
H277 H 0.42268 0.64755 0.61719 0.0
H278 H 0.41855 0.64197 0.69345 0.0
H279 H 0.36348 0.6245 0.65774 0.0
Gd280 Gd 0.64887 0.12907 0.6091 0.0
Gd281 Gd 0.63324 0.13612 0.70054 0.0
C282 C 0.60545 0.1363 0.62063 0.0
C283 C 0.65709 0.11659 0.52635 0.0
C284 C 0.65229 0.11849 0.47972 0.0
C285 C 0.64896 0.13569 0.46789 0.0
C286 C 0.65229 0.10285 0.44587 0.0
C287 C 0.6468 0.12161 0.38849 0.0
C288 C 0.64955 0.10437 0.40079 0.0
C289 C 0.64625 0.13723 0.42272 0.0
C290 C 0.64819 0.16509 0.64752 0.0
C291 C 0.67666 0.13108 0.6915 0.0
C292 C 0.6244 0.14705 0.78348 0.0
C293 C 0.62894 0.14463 0.82988 0.0
C294 C 0.63201 0.12722 0.8408 0.0
C295 C 0.62901 0.16002 0.86442 0.0
C296 C 0.63409 0.14065 0.92063 0.0
C297 C 0.63159 0.15808 0.90926 0.0
C298 C 0.63456 0.12526 0.88574 0.0
C299 C 0.63426 0.10033 0.65942 0.0
O300 O 0.61811 0.12751 0.59479 0.0
O301 O 0.60948 0.14441 0.66211 0.0
O302 O 0.66524 0.1305 0.55168 0.0
O303 O 0.64525 0.10867 0.54803 0.0
O304 O 0.66099 0.15745 0.62232 0.0
O305 O 0.6358 0.15361 0.64909 0.0
O306 O 0.66332 0.13892 0.71618 0.0
O307 O 0.67359 0.12295 0.64935 0.0
O308 O 0.61664 0.13327 0.75668 0.0
O309 O 0.63619 0.15565 0.76326 0.0
O310 O 0.62087 0.10759 0.68307 0.0
O311 O 0.64654 0.11203 0.66034 0.0
H312 H 0.64889 0.14798 0.4934 0.0
H313 H 0.6548 0.08945 0.45425 0.0
H314 H 0.64972 0.09201 0.3755 0.0
H315 H 0.64431 0.15074 0.41455 0.0
H316 H 0.63202 0.11511 0.81474 0.0
H317 H 0.62671 0.17358 0.85677 0.0
H318 H 0.63149 0.17027 0.93508 0.0
H319 H 0.63632 0.11161 0.89322 0.0
Gd320 Gd 0.88479 0.38627 0.83866 0.0
Gd321 Gd 0.86828 0.39274 0.93011 0.0
C322 C 0.84131 0.3906 0.84611 0.0
C323 C 0.89397 0.37509 0.75611 0.0
C324 C 0.88953 0.3775 0.70963 0.0
C325 C 0.88778 0.39495 0.69805 0.0
C326 C 0.88808 0.36194 0.67565 0.0
C327 C 0.88415 0.38116 0.6187 0.0
C328 C 0.88539 0.36373 0.63074 0.0
C329 C 0.88512 0.39676 0.65303 0.0
C330 C 0.88289 0.42199 0.87962 0.0
C331 C 0.91185 0.38641 0.92055 0.0
C332 C 0.85945 0.40465 1.01267 0.0
C333 C 0.86382 0.40232 0.05923 0.0
C334 C 0.86558 0.3849 0.07099 0.0
C335 C 0.86526 0.41793 0.09306 0.0
C336 C 0.86918 0.39881 0.15025 0.0
C337 C 0.86794 0.41622 0.13803 0.0
C338 C 0.86822 0.38317 0.11606 0.0
C339 C 0.86997 0.35692 0.89034 0.0
O340 O 0.85491 0.38299 0.82212 0.0
O341 O 0.84389 0.39874 0.88847 0.0
O342 O 0.90181 0.38881 0.78299 0.0
O343 O 0.88203 0.36661 0.7762 0.0
O344 O 0.89608 0.41526 0.85448 0.0
O345 O 0.87095 0.40995 0.8793 0.0
O346 O 0.89885 0.39475 0.94597 0.0
O347 O 0.90841 0.37859 0.87852 0.0
O348 O 0.85124 0.39105 0.98626 0.0
O349 O 0.87166 0.41258 0.99215 0.0
O350 O 0.85694 0.36397 0.91559 0.0
O351 O 0.88206 0.36881 0.88997 0.0
H352 H 0.88884 0.4072 0.7236 0.0
H353 H 0.88936 0.34835 0.68379 0.0
H354 H 0.88436 0.35141 0.6054 0.0
H355 H 0.88438 0.4104 0.64503 0.0
H356 H 0.86454 0.37262 0.04552 0.0
H357 H 0.86399 0.4315 0.08476 0.0
H358 H 0.86896 0.42856 0.16327 0.0
H359 H 0.86898 0.36956 0.12419 0.0
Gd360 Gd 0.38556 0.13822 0.69116 0.0
Gd361 Gd 0.3692 0.13118 0.59918 0.0
C362 C 0.34213 0.1331 0.67945 0.0
C363 C 0.39477 0.1489 0.77524 0.0
C364 C 0.39018 0.14645 0.82114 0.0
C365 C 0.38827 0.12899 0.83241 0.0
C366 C 0.38888 0.16198 0.85509 0.0
C367 C 0.38478 0.1427 0.91146 0.0
C368 C 0.38617 0.16015 0.89966 0.0
C369 C 0.38559 0.12714 0.87709 0.0
C370 C 0.38457 0.10233 0.65023 0.0
C371 C 0.41275 0.13843 0.61398 0.0
C372 C 0.36052 0.11903 0.51535 0.0
C373 C 0.3651 0.12122 0.46928 0.0
C374 C 0.36721 0.13859 0.45765 0.0
C375 C 0.36618 0.10559 0.43557 0.0
C376 C 0.37043 0.12462 0.3787 0.0
C377 C 0.36884 0.10725 0.39085 0.0
C378 C 0.36984 0.14027 0.41284 0.0
C379 C 0.36993 0.16731 0.63736 0.0
O380 O 0.35571 0.14111 0.70464 0.0
O381 O 0.34477 0.12485 0.63756 0.0
O382 O 0.40228 0.1351 0.7491 0.0
O383 O 0.38314 0.15773 0.75375 0.0
O384 O 0.39809 0.10987 0.67466 0.0
O385 O 0.37206 0.11382 0.64999 0.0
O386 O 0.39985 0.12957 0.58735 0.0
O387 O 0.40907 0.14663 0.65507 0.0
O388 O 0.35243 0.13275 0.54035 0.0
O389 O 0.37247 0.11102 0.53794 0.0
O390 O 0.35692 0.15938 0.61164 0.0
O391 O 0.38252 0.15599 0.63989 0.0
H392 H 0.38922 0.11676 0.80693 0.0
H393 H 0.3903 0.17558 0.84725 0.0
H394 H 0.38528 0.17245 0.92495 0.0
H395 H 0.38472 0.11349 0.88487 0.0
H396 H 0.36644 0.1509 0.48298 0.0
H397 H 0.36461 0.09205 0.44372 0.0
H398 H 0.36956 0.09488 0.36573 0.0
H399 H 0.37085 0.15387 0.40482 0.0
Gd400 Gd 0.63735 0.64249 0.44768 0.0
Gd401 Gd 0.64151 0.62384 0.34418 0.0
C402 C 0.64087 0.59789 0.42051 0.0
C403 C 0.62737 0.65254 0.5299 0.0
C404 C 0.62963 0.64766 0.57485 0.0
C405 C 0.64552 0.6394 0.58809 0.0
C406 C 0.61565 0.65177 0.60547 0.0
C407 C 0.63351 0.63993 0.66279 0.0
C408 C 0.61755 0.64795 0.64893 0.0
C409 C 0.64746 0.63562 0.63174 0.0
C410 C 0.67123 0.63974 0.41457 0.0
C411 C 0.63579 0.66778 0.37391 0.0
C412 C 0.65568 0.61268 0.26682 0.0
C413 C 0.65321 0.61481 0.21959 0.0
C414 C 0.63715 0.62196 0.20391 0.0
C415 C 0.66734 0.60984 0.18984 0.0
C416 C 0.64947 0.6191 0.12883 0.0
C417 C 0.66551 0.61194 0.14495 0.0
C418 C 0.63528 0.62404 0.15888 0.0
C419 C 0.60603 0.63104 0.36307 0.0
O420 O 0.63815 0.61253 0.4519 0.0
O421 O 0.6434 0.59889 0.37766 0.0
O422 O 0.64148 0.6594 0.51336 0.0
O423 O 0.61807 0.64108 0.49984 0.0
O424 O 0.66613 0.65315 0.44552 0.0
O425 O 0.65866 0.62819 0.40537 0.0
O426 O 0.64407 0.65452 0.34631 0.0
O427 O 0.62877 0.66514 0.412 0.0
O428 O 0.6431 0.60352 0.28331 0.0
O429 O 0.66135 0.62725 0.29493 0.0
O430 O 0.61159 0.62358 0.3236 0.0
O431 O 0.61969 0.63413 0.38891 0.0
H432 H 0.65644 0.636 0.56484 0.0
H433 H 0.6033 0.65817 0.59592 0.0
H434 H 0.60663 0.65168 0.67202 0.0
H435 H 0.65985 0.62925 0.64111 0.0
H436 H 0.62613 0.626 0.22652 0.0
H437 H 0.67983 0.60431 0.20137 0.0
H438 H 0.67661 0.60775 0.12272 0.0
H439 H 0.62283 0.62978 0.14777 0.0
Gd440 Gd 0.13565 0.88139 0.07649 0.0
Gd441 Gd 0.14079 0.90098 0.17941 0.0
C442 C 0.13998 0.92605 0.10114 0.0
C443 C 0.12537 0.87118 0.9931 0.0
C444 C 0.12757 0.87615 0.94832 0.0
C445 C 0.14396 0.88311 0.93571 0.0
C446 C 0.11307 0.87324 0.91696 0.0
C447 C 0.13142 0.88355 0.86029 0.0
C448 C 0.11495 0.87691 0.87352 0.0
C449 C 0.14587 0.88672 0.8921 0.0
C450 C 0.16984 0.88388 0.11239 0.0
C451 C 0.1345 0.85688 0.15133 0.0
C452 C 0.15523 0.91203 0.25852 0.0
C453 C 0.15259 0.90984 0.3055 0.0
C454 C 0.136 0.90395 0.31959 0.0
C455 C 0.1671 0.91343 0.33665 0.0
C456 C 0.14852 0.90533 0.39578 0.0
C457 C 0.1651 0.91122 0.38124 0.0
C458 C 0.13396 0.90177 0.36433 0.0
C459 C 0.10504 0.89379 0.15887 0.0
O460 O 0.13671 0.91112 0.07071 0.0
O461 O 0.14291 0.92559 0.14453 0.0
O462 O 0.13952 0.8644 1.01134 0.0
O463 O 0.11603 0.88246 0.02222 0.0
O464 O 0.1642 0.87027 0.08191 0.0
O465 O 0.15759 0.89575 0.11981 0.0
O466 O 0.14311 0.87032 0.17877 0.0
O467 O 0.1271 0.85916 0.11246 0.0
O468 O 0.14291 0.92141 0.24032 0.0
O469 O 0.1607 0.89742 0.231 0.0
O470 O 0.11116 0.90168 0.19816 0.0
O471 O 0.11833 0.89041 0.13355 0.0
H472 H 0.15532 0.88558 0.95939 0.0
H473 H 0.10033 0.86784 0.92589 0.0
H474 H 0.10359 0.87408 0.84993 0.0
H475 H 0.15867 0.89206 0.88335 0.0
H476 H 0.12465 0.90096 0.29599 0.0
H477 H 0.18002 0.91796 0.32644 0.0
H478 H 0.17654 0.91434 0.40449 0.0
H479 H 0.12107 0.89701 0.37408 0.0
Gd480 Gd 0.88659 0.63542 0.20725 0.0
Gd481 Gd 0.87037 0.62874 0.1139 0.0
C482 C 0.84307 0.63103 0.19377 0.0
C483 C 0.89552 0.6466 0.29118 0.0
C484 C 0.89097 0.64412 0.33699 0.0
C485 C 0.88929 0.62663 0.34826 0.0
C486 C 0.8894 0.65964 0.37079 0.0
C487 C 0.88553 0.64034 0.42713 0.0
C488 C 0.88667 0.6578 0.41531 0.0
C489 C 0.8866 0.62477 0.39289 0.0
C490 C 0.8845 0.5996 0.16657 0.0
C491 C 0.91401 0.63519 0.12962 0.0
C492 C 0.86169 0.61673 0.03013 0.0
C493 C 0.86617 0.61897 0.98412 0.0
C494 C 0.86795 0.63637 0.97243 0.0
C495 C 0.86758 0.60333 0.95059 0.0
C496 C 0.87151 0.62236 0.89369 0.0
C497 C 0.87025 0.60498 0.90591 0.0
C498 C 0.87059 0.63804 0.92766 0.0
C499 C 0.87159 0.66455 0.15347 0.0
O500 O 0.85664 0.63871 0.21966 0.0
O501 O 0.84581 0.62277 0.15194 0.0
O502 O 0.90344 0.63296 0.26539 0.0
O503 O 0.88362 0.65502 0.2694 0.0
O504 O 0.89777 0.60638 0.19313 0.0
O505 O 0.87267 0.61165 0.16521 0.0
O506 O 0.90097 0.62693 0.10242 0.0
O507 O 0.91052 0.643 0.17115 0.0
O508 O 0.85352 0.63037 0.05526 0.0
O509 O 0.87378 0.60879 0.05247 0.0
O510 O 0.8586 0.65717 0.12686 0.0
O511 O 0.88397 0.65299 0.15559 0.0
H512 H 0.89045 0.6144 0.32283 0.0
H513 H 0.89061 0.67326 0.36288 0.0
H514 H 0.88556 0.67009 0.44055 0.0
H515 H 0.88593 0.61112 0.40075 0.0
H516 H 0.86693 0.64868 0.99766 0.0
H517 H 0.86628 0.58978 0.95885 0.0
H518 H 0.87124 0.59261 0.88088 0.0
H519 H 0.87134 0.65164 0.9195 0.0
Gd520 Gd 0.14008 0.13988 0.95072 0.0
Gd521 Gd 0.14383 0.12043 0.84803 0.0
C522 C 0.14353 0.09525 0.92614 0.0
C523 C 0.13084 0.15041 0.03343 0.0
C524 C 0.13284 0.14525 0.07825 0.0
C525 C 0.14882 0.13736 0.09224 0.0
C526 C 0.11855 0.14887 0.10816 0.0
C527 C 0.1363 0.13737 0.16623 0.0
C528 C 0.12023 0.14497 0.1516 0.0
C529 C 0.15055 0.13351 0.13587 0.0
C530 C 0.17376 0.13731 0.9161 0.0
C531 C 0.13762 0.16449 0.876 0.0
C532 C 0.15776 0.10909 0.77037 0.0
C533 C 0.15519 0.11114 0.72304 0.0
C534 C 0.13888 0.11767 0.70702 0.0
C535 C 0.16953 0.10681 0.69358 0.0
C536 C 0.15139 0.11552 0.63225 0.0
C537 C 0.16767 0.10895 0.6487 0.0
C538 C 0.13698 0.11979 0.66199 0.0
C539 C 0.10836 0.12758 0.86693 0.0
O540 O 0.1409 0.11017 0.95663 0.0
O541 O 0.14589 0.09574 0.88291 0.0
O542 O 0.14531 0.1564 0.01645 0.0
O543 O 0.12076 0.1397 1.00351 0.0
O544 O 0.1685 0.15105 0.94597 0.0
O545 O 0.16141 0.12545 0.9084 0.0
O546 O 0.14591 0.15114 0.84864 0.0
O547 O 0.1309 0.16209 0.91457 0.0
O548 O 0.14528 0.09996 0.7873 0.0
O549 O 0.16348 0.12372 0.79823 0.0
O550 O 0.11394 0.11982 0.82774 0.0
O551 O 0.12201 0.13094 0.89283 0.0
H552 H 0.16 0.13432 0.06962 0.0
H553 H 0.10612 0.155 0.09809 0.0
H554 H 0.10907 0.14835 0.17412 0.0
H555 H 0.16302 0.12745 0.14579 0.0
H556 H 0.12769 0.12124 0.72938 0.0
H557 H 0.18223 0.10177 0.70534 0.0
H558 H 0.17895 0.10527 0.62675 0.0
H559 H 0.12434 0.12508 0.65068 0.0
Gd560 Gd 0.63829 0.38065 0.55595 0.0
Gd561 Gd 0.64052 0.40042 0.65383 0.0
C562 C 0.64213 0.42522 0.57815 0.0
C563 C 0.62974 0.36924 0.47199 0.0
C564 C 0.63122 0.37421 0.42707 0.0
C565 C 0.64774 0.37962 0.41138 0.0
C566 C 0.61586 0.37259 0.39842 0.0
C567 C 0.63359 0.38076 0.33808 0.0
C568 C 0.61699 0.37586 0.35451 0.0
C569 C 0.64891 0.38286 0.3673 0.0
C570 C 0.67193 0.38405 0.59435 0.0
C571 C 0.63617 0.35578 0.63002 0.0
C572 C 0.64921 0.41182 0.73785 0.0
C573 C 0.64783 0.40707 0.78305 0.0
C574 C 0.63128 0.40208 0.79942 0.0
C575 C 0.6633 0.40863 0.81135 0.0
C576 C 0.64564 0.40116 0.87261 0.0
C577 C 0.66225 0.40569 0.85557 0.0
C578 C 0.63021 0.39914 0.84376 0.0
C579 C 0.60681 0.39738 0.61619 0.0
O580 O 0.63693 0.41047 0.54921 0.0
O581 O 0.64685 0.42435 0.62025 0.0
O582 O 0.64457 0.36437 0.49137 0.0
O583 O 0.61896 0.37925 0.50012 0.0
O584 O 0.6666 0.36985 0.56538 0.0
O585 O 0.65972 0.39603 0.59925 0.0
O586 O 0.64235 0.37012 0.65915 0.0
O587 O 0.6306 0.35729 0.58907 0.0
O588 O 0.63436 0.41666 0.71857 0.0
O589 O 0.65986 0.4017 0.70968 0.0
O590 O 0.61226 0.41124 0.64598 0.0
O591 O 0.61888 0.38522 0.61066 0.0
H592 H 0.65982 0.38102 0.43282 0.0
H593 H 0.60296 0.36849 0.40983 0.0
H594 H 0.60484 0.37446 0.33336 0.0
H595 H 0.66193 0.38648 0.35576 0.0
H596 H 0.61912 0.40078 0.77831 0.0
H597 H 0.67621 0.41244 0.79945 0.0
H598 H 0.67447 0.40702 0.87646 0.0
H599 H 0.61717 0.39581 0.85579 0.0
Gd600 Gd 0.38699 0.88424 0.33788 0.0
Gd601 Gd 0.37164 0.89081 0.4285 0.0
C602 C 0.34364 0.8889 0.34676 0.0
C603 C 0.39567 0.87368 0.25464 0.0
C604 C 0.39086 0.87622 0.20848 0.0
C605 C 0.38686 0.89358 0.19833 0.0
C606 C 0.3914 0.86104 0.17342 0.0
C607 C 0.38486 0.88055 0.11824 0.0
C608 C 0.38841 0.86315 0.12883 0.0
C609 C 0.38393 0.89572 0.15362 0.0
C610 C 0.38582 0.9201 0.37892 0.0
C611 C 0.41515 0.88429 0.41662 0.0
C612 C 0.36345 0.90272 0.51159 0.0
C613 C 0.36834 0.90055 0.55796 0.0
C614 C 0.3725 0.88333 0.56873 0.0
C615 C 0.36765 0.91588 0.59257 0.0
C616 C 0.37424 0.89675 0.64859 0.0
C617 C 0.37059 0.91403 0.63738 0.0
C618 C 0.37538 0.88145 0.61363 0.0
C619 C 0.37253 0.85472 0.38991 0.0
O620 O 0.35697 0.88107 0.32216 0.0
O621 O 0.34676 0.89704 0.38886 0.0
O622 O 0.40332 0.88749 0.28152 0.0
O623 O 0.38408 0.86487 0.27489 0.0
O624 O 0.39922 0.91283 0.35538 0.0
O625 O 0.37354 0.90838 0.37823 0.0
O626 O 0.4024 0.89287 0.44255 0.0
O627 O 0.41108 0.87611 0.37528 0.0
O628 O 0.3554 0.88886 0.48585 0.0
O629 O 0.37518 0.91089 0.4902 0.0
O630 O 0.35956 0.86241 0.41439 0.0
O631 O 0.38492 0.86628 0.38868 0.0
H632 H 0.3863 0.90551 0.22482 0.0
H633 H 0.39455 0.84755 0.18047 0.0
H634 H 0.38946 0.85121 0.10252 0.0
H635 H 0.38099 0.90927 0.14674 0.0
H636 H 0.37319 0.87129 0.54257 0.0
H637 H 0.36438 0.92927 0.58502 0.0
H638 H 0.3694 0.92607 0.66336 0.0
H639 H 0.37842 0.86799 0.62099 0.0
C640 C 0.15181 0.64127 0.84882 0.0
C641 C 0.14394 0.62622 0.86362 0.0
C642 C 0.15067 0.64291 0.80345 0.0
C643 C 0.14258 0.61549 0.6893 0.0
H644 H 0.13514 0.66302 0.65565 0.0
C645 C 0.1281 0.62396 0.50492 0.0
C646 C 0.13589 0.63905 0.49018 0.0
C647 C 0.12932 0.62226 0.55025 0.0
C648 C 0.13745 0.64966 0.6644 0.0
H649 H 0.12825 0.60137 0.84212 0.0
H650 H 0.12619 0.60427 0.76316 0.0
H651 H 0.13642 0.6605 0.73484 0.0
H652 H 0.15159 0.6639 0.51169 0.0
H653 H 0.1538 0.6609 0.59057 0.0
H654 H 0.14361 0.60464 0.61884 0.0
C655 C 0.13355 0.61464 0.78651 0.0
C656 C 0.13817 0.64821 0.70992 0.0
C657 C 0.13471 0.61299 0.83187 0.0
C658 C 0.14518 0.65225 0.52191 0.0
C659 C 0.14642 0.65054 0.56722 0.0
C660 C 0.14186 0.61693 0.64378 0.0
C661 C 0.14161 0.62956 0.7716 0.0
C662 C 0.14074 0.63111 0.72302 0.0
C663 C 0.13839 0.63559 0.5821 0.0
C664 C 0.13929 0.63404 0.63067 0.0
H665 H 0.15928 0.65157 0.87212 0.0
H666 H 0.15727 0.65445 0.79319 0.0
H667 H 0.14488 0.60213 0.69806 0.0
H668 H 0.12061 0.61368 0.48162 0.0
H669 H 0.12276 0.6107 0.56049 0.0
C670 C 0.62387 0.875 1.015 0.0
C671 C 0.63442 0.88593 0.04898 0.0
C672 C 0.62543 0.87667 0.96992 0.0
C673 C 0.65607 0.89379 0.89123 0.0
H674 H 0.6128 0.89131 0.81501 0.0
C675 C 0.65719 0.91065 0.71183 0.0
C676 C 0.64658 0.89976 0.67789 0.0
C677 C 0.65568 0.90894 0.75691 0.0
C678 C 0.62506 0.89182 0.83562 0.0
H679 H 0.65505 0.90712 0.06163 0.0
H680 H 0.65753 0.91027 0.98313 0.0
H681 H 0.6103 0.88847 0.8936 0.0
H682 H 0.62591 0.8786 0.66532 0.0
H683 H 0.62354 0.87538 0.74376 0.0
H684 H 0.67083 0.89713 0.83325 0.0
C685 C 0.64816 0.90024 0.99136 0.0
C686 C 0.62363 0.89019 0.8808 0.0
C687 C 0.64659 0.89858 0.03652 0.0
C688 C 0.63442 0.88711 0.69039 0.0
C689 C 0.6329 0.88541 0.73553 0.0
C690 C 0.6575 0.89541 0.84605 0.0
C691 C 0.63757 0.88933 0.95743 0.0
C692 C 0.63911 0.89115 0.90926 0.0
C693 C 0.64354 0.89629 0.76943 0.0
C694 C 0.64201 0.89446 0.81759 0.0
H695 H 0.61417 0.86528 0.02324 0.0
H696 H 0.6172 0.86788 0.94477 0.0
H697 H 0.66833 0.8943 0.91186 0.0
H698 H 0.66688 0.92037 0.70356 0.0
H699 H 0.66395 0.9177 0.78203 0.0
C700 C 0.38869 0.40187 0.29516 0.0
C701 C 0.37781 0.3883 0.30817 0.0
C702 C 0.38993 0.4032 0.24979 0.0
C703 C 0.38246 0.37648 0.13502 0.0
H704 H 0.38166 0.42423 0.09992 0.0
C705 C 0.37537 0.38479 0.94932 0.0
C706 C 0.38649 0.39798 0.93548 0.0
C707 C 0.3741 0.38388 0.99489 0.0
C708 C 0.38208 0.4108 0.10921 0.0
H709 H 0.35936 0.36578 0.28361 0.0
H710 H 0.36156 0.36807 0.20479 0.0
H711 H 0.3803 0.42208 0.17927 0.0
H712 H 0.40511 0.42048 0.95892 0.0
H713 H 0.4028 0.41895 0.03825 0.0
H714 H 0.38421 0.3652 0.06502 0.0
C715 C 0.36942 0.37747 0.2295 0.0
C716 C 0.38133 0.40957 0.15469 0.0
C717 C 0.36818 0.37614 0.27475 0.0
C718 C 0.39615 0.41036 0.96839 0.0
C719 C 0.39486 0.40947 1.01392 0.0
C720 C 0.38319 0.37771 0.08957 0.0
C721 C 0.38031 0.391 0.21642 0.0
C722 C 0.38147 0.39239 0.16814 0.0
C723 C 0.38391 0.39615 0.02772 0.0
C724 C 0.38298 0.39488 0.0761 0.0
H725 H 0.39642 0.41134 0.32001 0.0
H726 H 0.39861 0.41365 0.2408 0.0
H727 H 0.38289 0.36304 0.14425 0.0
H728 H 0.36756 0.37521 0.92493 0.0
H729 H 0.36533 0.37364 1.00446 0.0
C730 C 0.88567 0.13192 0.57325 0.0
C731 C 0.87533 0.1175 0.58421 0.0
C732 C 0.88743 0.13396 0.5284 0.0
C733 C 0.88249 0.10864 0.41068 0.0
H734 H 0.88121 0.15742 0.38151 0.0
C735 C 0.87916 0.12095 0.22634 0.0
C736 C 0.8895 0.13551 0.21612 0.0
C737 C 0.87731 0.11862 0.27099 0.0
C738 C 0.8818 0.14369 0.38903 0.0
H739 H 0.85905 0.0937 0.5559 0.0
H740 H 0.86182 0.09746 0.47805 0.0
H741 H 0.87849 0.15359 0.45931 0.0
H742 H 0.90571 0.15923 0.24552 0.0
H743 H 0.90282 0.15495 0.32283 0.0
H744 H 0.88581 0.09875 0.34033 0.0
C745 C 0.86871 0.10713 0.50412 0.0
C746 C 0.88025 0.14149 0.43379 0.0
C747 C 0.86694 0.1051 0.54894 0.0
C748 C 0.89784 0.14771 0.25186 0.0
C749 C 0.89598 0.14539 0.29642 0.0
C750 C 0.88405 0.11084 0.36588 0.0
C751 C 0.87893 0.12163 0.49317 0.0
C752 C 0.8806 0.12394 0.44532 0.0
C753 C 0.88569 0.13082 0.30669 0.0
C754 C 0.88377 0.12841 0.3544 0.0
H755 H 0.8922 0.14185 0.5994 0.0
H756 H 0.89559 0.14516 0.52134 0.0
H757 H 0.88308 0.09492 0.41823 0.0
H758 H 0.87265 0.11119 0.19979 0.0
H759 H 0.86912 0.10735 0.27753 0.0
C760 C 0.14834 0.38142 0.22489 0.0
C761 C 0.14249 0.39731 0.20947 0.0
C762 C 0.14701 0.38001 0.27023 0.0
C763 C 0.1236 0.39985 0.37509 0.0
H764 H 0.16339 0.3781 0.433 0.0
C765 C 0.12712 0.402 0.56743 0.0
C766 C 0.13285 0.38598 0.58243 0.0
C767 C 0.12857 0.40361 0.52224 0.0
C768 C 0.15207 0.38405 0.41728 0.0
H769 H 0.13019 0.42401 0.22981 0.0
H770 H 0.12811 0.42167 0.30884 0.0
H771 H 0.16497 0.38018 0.35372 0.0
H772 H 0.14509 0.35928 0.56156 0.0
H773 H 0.14738 0.36198 0.48282 0.0
H774 H 0.1107 0.40371 0.43867 0.0
C775 C 0.13364 0.41022 0.28583 0.0
C776 C 0.15296 0.38522 0.37172 0.0
C777 C 0.13501 0.41164 0.24052 0.0
C778 C 0.14036 0.37175 0.55116 0.0
C779 C 0.14185 0.37337 0.50602 0.0
C780 C 0.12271 0.39868 0.42066 0.0
C781 C 0.13975 0.39444 0.30139 0.0
C782 C 0.13874 0.39312 0.34996 0.0
C783 C 0.13584 0.38927 0.49084 0.0
C784 C 0.13692 0.39075 0.44239 0.0
H785 H 0.15435 0.37018 0.20211 0.0
H786 H 0.15165 0.36756 0.28083 0.0
H787 H 0.11227 0.40578 0.35937 0.0
H788 H 0.12112 0.41318 0.59042 0.0
H789 H 0.12401 0.41615 0.51193 0.0
C790 C 0.8983 0.89328 0.79041 0.0
C791 C 0.88384 0.88597 0.81101 0.0
C792 C 0.89678 0.89566 0.74558 0.0
C793 C 0.87072 0.87929 0.6395 0.0
H794 H 0.89116 0.92213 0.60249 0.0
C795 C 0.85797 0.89537 0.46096 0.0
C796 C 0.87239 0.90259 0.44005 0.0
C797 C 0.85946 0.89334 0.50602 0.0
C798 C 0.88557 0.90996 0.61208 0.0
H799 H 0.85638 0.87553 0.8002 0.0
H800 H 0.85363 0.87994 0.72235 0.0
H801 H 0.89333 0.91895 0.68127 0.0
H802 H 0.89974 0.91334 0.45067 0.0
H803 H 0.90247 0.90951 0.529 0.0
H804 H 0.86299 0.87028 0.57036 0.0
C805 C 0.86624 0.88366 0.74077 0.0
C806 C 0.88679 0.90815 0.65737 0.0
C807 C 0.86774 0.88134 0.78566 0.0
C808 C 0.88841 0.90759 0.46546 0.0
C809 C 0.88989 0.9056 0.51061 0.0
C810 C 0.8695 0.8811 0.59423 0.0
C811 C 0.88078 0.89075 0.71999 0.0
C812 C 0.87937 0.89279 0.67174 0.0
C813 C 0.87542 0.89847 0.53157 0.0
C814 C 0.87689 0.89647 0.57985 0.0
H815 H 0.91084 0.89719 0.80898 0.0
H816 H 0.90832 0.90102 0.73072 0.0
H817 H 0.86512 0.86712 0.64909 0.0
H818 H 0.8455 0.89115 0.44239 0.0
H819 H 0.84796 0.88797 0.52101 0.0
C820 C 0.40189 0.6225 0.75289 0.0
C821 C 0.38802 0.63002 0.7291 0.0
C822 C 0.39969 0.62055 0.79762 0.0
C823 C 0.37279 0.63829 0.89817 0.0
H824 H 0.3914 0.59544 0.94091 0.0
C825 C 0.35779 0.62399 0.07583 0.0
C826 C 0.37185 0.61675 0.0996 0.0
C827 C 0.35971 0.62558 0.03075 0.0
C828 C 0.38631 0.60761 0.92972 0.0
H829 H 0.36088 0.64133 0.73421 0.0
H830 H 0.35693 0.63763 0.81184 0.0
H831 H 0.39462 0.59797 0.86228 0.0
H832 H 0.39897 0.60543 0.09404 0.0
H833 H 0.40244 0.60849 0.01581 0.0
H834 H 0.36451 0.64795 0.96562 0.0
C835 C 0.36962 0.63341 0.79601 0.0
C836 C 0.38814 0.60906 0.88452 0.0
C837 C 0.3718 0.63533 0.75122 0.0
C838 C 0.38792 0.61123 0.07704 0.0
C839 C 0.38982 0.61278 0.03191 0.0
C840 C 0.37096 0.63684 0.94337 0.0
C841 C 0.38357 0.62608 0.81995 0.0
C842 C 0.38143 0.62442 0.86808 0.0
C843 C 0.37573 0.61995 1.00808 0.0
C844 C 0.3777 0.62149 0.95983 0.0
H845 H 0.41449 0.61807 0.73688 0.0
H846 H 0.41081 0.615 0.81498 0.0
H847 H 0.36772 0.65047 0.88702 0.0
H848 H 0.34529 0.62857 0.09215 0.0
H849 H 0.34849 0.631 1.01349 0.0
C850 C 0.64773 0.12592 0.98274 0.0
C851 C 0.63558 0.13854 0.96873 0.0
C852 C 0.64893 0.12394 0.02789 0.0
C853 C 0.62344 0.13277 0.13378 0.0
H854 H 0.67038 0.12691 0.18977 0.0
C855 C 0.6329 0.13574 0.32569 0.0
C856 C 0.64515 0.12332 0.34013 0.0
C857 C 0.63164 0.13747 0.28038 0.0
C858 C 0.65714 0.12832 0.17456 0.0
H859 H 0.61495 0.15875 0.99148 0.0
H860 H 0.61733 0.15557 0.07005 0.0
H861 H 0.66843 0.13001 0.11097 0.0
H862 H 0.66585 0.10312 0.3179 0.0
H863 H 0.66336 0.10583 0.23902 0.0
H864 H 0.61215 0.13109 0.19737 0.0
C865 C 0.62583 0.14708 0.04612 0.0
C866 C 0.65602 0.1301 0.12929 0.0
C867 C 0.62465 0.14908 1.00106 0.0
C868 C 0.65608 0.11266 0.30801 0.0
C869 C 0.65483 0.11439 0.26277 0.0
C870 C 0.62456 0.131 0.17904 0.0
C871 C 0.63797 0.13447 0.06018 0.0
C872 C 0.63916 0.13238 0.1083 0.0
C873 C 0.64262 0.12684 0.24832 0.0
C874 C 0.64142 0.12876 0.20006 0.0
H875 H 0.65645 0.11768 0.95888 0.0
H876 H 0.6583 0.11397 0.0374 0.0
H877 H 0.6102 0.13421 0.11858 0.0
H878 H 0.62416 0.14407 0.34936 0.0
H879 H 0.62221 0.14733 0.27059 0.0
C880 C 0.88218 0.38359 0.21217 0.0
C881 C 0.87095 0.39704 0.19853 0.0
C882 C 0.88363 0.38189 0.25748 0.0
C883 C 0.85993 0.3937 0.36554 0.0
H884 H 0.90665 0.38399 0.41768 0.0
C885 C 0.87119 0.39649 0.55692 0.0
C886 C 0.88241 0.38301 0.57047 0.0
C887 C 0.86975 0.39824 0.51164 0.0
C888 C 0.89346 0.3865 0.40357 0.0
H889 H 0.85224 0.41908 0.22216 0.0
H890 H 0.85509 0.41639 0.301 0.0
H891 H 0.90428 0.38683 0.33875 0.0
H892 H 0.90112 0.36099 0.54672 0.0
H893 H 0.89829 0.36377 0.46795 0.0
H894 H 0.84911 0.39337 0.43035 0.0
C895 C 0.86266 0.40702 0.27665 0.0
C896 C 0.8921 0.38813 0.35823 0.0
C897 C 0.86121 0.40872 0.23141 0.0
C898 C 0.89215 0.37136 0.53754 0.0
C899 C 0.89072 0.37312 0.49234 0.0
C900 C 0.86129 0.39208 0.41087 0.0
C901 C 0.87386 0.39357 0.29032 0.0
C902 C 0.87531 0.39175 0.3386 0.0
C903 C 0.87952 0.38659 0.47875 0.0
C904 C 0.87807 0.38845 0.4305 0.0
H905 H 0.88999 0.37445 0.18789 0.0
H906 H 0.89225 0.37125 0.26668 0.0
H907 H 0.84673 0.39621 0.35142 0.0
H908 H 0.86337 0.4056 0.58125 0.0
H909 H 0.86113 0.40889 0.5025 0.0
C910 C 0.36224 0.11476 0.29646 0.0
C911 C 0.37214 0.12637 0.33052 0.0
C912 C 0.36361 0.11648 0.25135 0.0
C913 C 0.39301 0.13547 0.17309 0.0
H914 H 0.34994 0.13003 0.09576 0.0
C915 C 0.39286 0.15241 0.99375 0.0
C916 C 0.38306 0.14079 0.95952 0.0
C917 C 0.39148 0.15059 0.03878 0.0
C918 C 0.36215 0.13137 0.1167 0.0
H919 H 0.39141 0.14885 0.34328 0.0
H920 H 0.39352 0.15207 0.26478 0.0
H921 H 0.34769 0.12709 0.17436 0.0
H922 H 0.36393 0.1182 0.94635 0.0
H923 H 0.36176 0.11482 0.02477 0.0
H924 H 0.40746 0.13978 0.11544 0.0
C925 C 0.38483 0.14147 0.27295 0.0
C926 C 0.36086 0.12969 0.16188 0.0
C927 C 0.38346 0.13976 0.31811 0.0
C928 C 0.37181 0.1273 0.97167 0.0
C929 C 0.37041 0.12549 0.01677 0.0
C930 C 0.39429 0.13716 0.12792 0.0
C931 C 0.3749 0.12987 0.23892 0.0
C932 C 0.37627 0.13172 0.19073 0.0
C933 C 0.38026 0.13709 0.05096 0.0
C934 C 0.37888 0.13515 0.09908 0.0
H935 H 0.35319 0.10445 0.30465 0.0
H936 H 0.35591 0.10716 0.22614 0.0
H937 H 0.40522 0.13682 0.19401 0.0
H938 H 0.40185 0.16281 0.98575 0.0
H939 H 0.39911 0.15992 0.06413 0.0
C940 C 0.63138 0.61702 0.05621 0.0
C941 C 0.64767 0.62139 0.08092 0.0
C942 C 0.6299 0.61878 1.01094 0.0
C943 C 0.65107 0.64173 0.9258 0.0
H944 H 0.62571 0.60437 0.84055 0.0
C945 C 0.65208 0.64046 0.7341 0.0
C946 C 0.63564 0.63653 0.70976 0.0
C947 C 0.65374 0.63819 0.77897 0.0
C948 C 0.63269 0.61503 0.86397 0.0
H949 H 0.67506 0.63144 0.07736 0.0
H950 H 0.67257 0.63422 0.99847 0.0
H951 H 0.62796 0.60158 0.91958 0.0
H952 H 0.60823 0.62655 0.71336 0.0
H953 H 0.61105 0.62282 0.79162 0.0
H954 H 0.65577 0.65518 0.87023 0.0
C955 C 0.66088 0.62954 1.0141 0.0
C956 C 0.63396 0.61344 0.90935 0.0
C957 C 0.66237 0.62774 0.05928 0.0
C958 C 0.62103 0.62992 0.7312 0.0
C959 C 0.62271 0.62759 0.776 0.0
C960 C 0.6498 0.64331 0.88043 0.0
C961 C 0.64464 0.62503 0.98925 0.0
C962 C 0.64317 0.62677 0.9409 0.0
C963 C 0.63903 0.63185 0.80063 0.0
C964 C 0.64059 0.62999 0.84889 0.0
H965 H 0.61984 0.61194 0.07164 0.0
H966 H 0.61712 0.61537 0.99303 0.0
H967 H 0.65801 0.65241 0.9492 0.0
H968 H 0.66356 0.64572 0.71881 0.0
H969 H 0.66659 0.64138 0.7967 0.0
C970 C 0.16069 0.89542 0.46635 0.0
C971 C 0.14652 0.90291 0.44346 0.0
C972 C 0.15902 0.89344 0.51124 0.0
C973 C 0.13296 0.91058 0.61381 0.0
H974 H 0.15234 0.86743 0.65369 0.0
C975 C 0.11933 0.89431 0.79063 0.0
C976 C 0.13353 0.88673 0.81323 0.0
C977 C 0.12103 0.8966 0.74595 0.0
C978 C 0.14704 0.87969 0.64333 0.0
H979 H 0.11943 0.91423 0.45043 0.0
H980 H 0.11638 0.9105 0.52839 0.0
H981 H 0.15482 0.87053 0.57527 0.0
H982 H 0.16073 0.87567 0.80607 0.0
H983 H 0.1638 0.87993 0.72855 0.0
H984 H 0.12515 0.91971 0.6819 0.0
C985 C 0.12891 0.90632 0.51171 0.0
C986 C 0.14846 0.88146 0.59822 0.0
C987 C 0.13057 0.90826 0.46674 0.0
C988 C 0.14957 0.88171 0.79 0.0
C989 C 0.15124 0.88394 0.74525 0.0
C990 C 0.13153 0.90879 0.65894 0.0
C991 C 0.14312 0.89891 0.53466 0.0
C992 C 0.14145 0.89694 0.58278 0.0
C993 C 0.13695 0.89133 0.72248 0.0
C994 C 0.13857 0.89332 0.67438 0.0
H995 H 0.1731 0.89093 0.44947 0.0
H996 H 0.17033 0.88784 0.52777 0.0
H997 H 0.12766 0.92283 0.60344 0.0
H998 H 0.10686 0.89852 0.80751 0.0
H999 H 0.10967 0.90219 0.72954 0.0
C1000 C 0.88438 0.63758 0.83321 0.0
C1001 C 0.87321 0.62409 0.84558 0.0
C1002 C 0.88573 0.63927 0.78806 0.0
C1003 C 0.86181 0.62732 0.67724 0.0
H1004 H 0.90837 0.63743 0.63061 0.0
C1005 C 0.8727 0.62484 0.4872 0.0
C1006 C 0.88383 0.63844 0.47511 0.0
C1007 C 0.87134 0.62303 0.53227 0.0
C1008 C 0.89521 0.63481 0.64317 0.0
H1009 H 0.85449 0.60194 0.81981 0.0
H1010 H 0.85717 0.60461 0.74127 0.0
H1011 H 0.90619 0.63449 0.70921 0.0
H1012 H 0.90244 0.66063 0.50129 0.0
H1013 H 0.89975 0.65773 0.57966 0.0
H1014 H 0.85083 0.62763 0.61118 0.0
C1015 C 0.86477 0.61403 0.76649 0.0
C1016 C 0.89397 0.63313 0.68831 0.0
C1017 C 0.86343 0.61233 0.81158 0.0
C1018 C 0.89355 0.65016 0.5093 0.0
C1019 C 0.8922 0.64833 0.55429 0.0
C1020 C 0.86305 0.62899 0.63209 0.0
C1021 C 0.87591 0.62753 0.7541 0.0
C1022 C 0.87725 0.62937 0.70598 0.0
C1023 C 0.8811 0.63473 0.56641 0.0
C1024 C 0.87977 0.63278 0.61445 0.0
H1025 H 0.89223 0.64677 0.85839 0.0
H1026 H 0.89431 0.64996 0.77985 0.0
H1027 H 0.84865 0.6247 0.68981 0.0
H1028 H 0.86491 0.61567 0.46186 0.0
H1029 H 0.8628 0.61228 0.54029 0.0
C1030 C 0.13347 0.11314 0.55919 0.0
C1031 C 0.14958 0.11793 0.58436 0.0
C1032 C 0.13199 0.11505 0.51399 0.0
C1033 C 0.15273 0.13898 0.42984 0.0
H1034 H 0.12834 0.10132 0.34339 0.0
C1035 C 0.15446 0.13828 0.23835 0.0
C1036 C 0.13824 0.13398 0.2133 0.0
C1037 C 0.15595 0.13597 0.28324 0.0
C1038 C 0.13504 0.11207 0.36713 0.0
H1039 H 0.17666 0.12888 0.5816 0.0
H1040 H 0.17421 0.1319 0.50288 0.0
H1041 H 0.13047 0.0983 0.42228 0.0
H1042 H 0.11103 0.12333 0.21576 0.0
H1043 H 0.11355 0.11952 0.29402 0.0
H1044 H 0.1573 0.15274 0.37473 0.0
C1045 C 0.16263 0.12678 0.51809 0.0
C1046 C 0.13624 0.11034 0.41247 0.0
C1047 C 0.16411 0.12484 0.5632 0.0
C1048 C 0.12366 0.12698 0.23412 0.0
C1049 C 0.12517 0.12461 0.27894 0.0
C1050 C 0.15154 0.14069 0.38453 0.0
C1051 C 0.14657 0.12186 0.49278 0.0
C1052 C 0.14512 0.12377 0.44447 0.0
C1053 C 0.14129 0.12922 0.30426 0.0
C1054 C 0.14269 0.12726 0.35252 0.0
H1055 H 0.12205 0.10763 0.5742 0.0
H1056 H 0.11935 0.11131 0.49576 0.0
H1057 H 0.1594 0.14975 0.45356 0.0
H1058 H 0.16591 0.14384 0.22359 0.0
H1059 H 0.16865 0.13945 0.30147 0.0
C1060 C 0.64568 0.39708 0.2786 0.0
C1061 C 0.63494 0.38311 0.2903 0.0
C1062 C 0.64693 0.39912 0.23364 0.0
C1063 C 0.63981 0.37379 0.11689 0.0
H1064 H 0.63975 0.42233 0.08628 0.0
C1065 C 0.63359 0.3852 0.93273 0.0
C1066 C 0.6444 0.39901 0.92055 0.0
C1067 C 0.63246 0.38329 0.97779 0.0
C1068 C 0.63998 0.40867 0.09425 0.0
H1069 H 0.61731 0.36016 0.26342 0.0
H1070 H 0.61915 0.36399 0.18552 0.0
H1071 H 0.63792 0.41901 0.16474 0.0
H1072 H 0.66225 0.42186 0.94669 0.0
H1073 H 0.66058 0.4183 0.02489 0.0
H1074 H 0.64185 0.36345 0.04642 0.0
C1075 C 0.62677 0.37327 0.21098 0.0
C1076 C 0.63895 0.40677 0.13931 0.0
C1077 C 0.62552 0.37124 0.25584 0.0
C1078 C 0.65398 0.4109 0.95466 0.0
C1079 C 0.65284 0.40901 0.99967 0.0
C1080 C 0.64083 0.37569 0.07185 0.0
C1081 C 0.6375 0.38723 0.19922 0.0
C1082 C 0.63882 0.3893 0.15125 0.0
C1083 C 0.64207 0.39518 1.01187 0.0
C1084 C 0.64092 0.39316 0.0599 0.0
H1085 H 0.653 0.40657 0.30422 0.0
H1086 H 0.65546 0.40991 0.22582 0.0
H1087 H 0.64005 0.36013 0.12483 0.0
H1088 H 0.62613 0.37571 0.90738 0.0
H1089 H 0.62388 0.3726 0.98596 0.0
C1090 C 0.37335 0.86978 0.03873 0.0
C1091 C 0.38281 0.88286 0.07039 0.0
C1092 C 0.37226 0.87142 0.99339 0.0
C1093 C 0.37759 0.90465 0.91638 0.0
H1094 H 0.38305 0.8608 0.82616 0.0
C1095 C 0.38545 0.90789 0.72822 0.0
C1096 C 0.37614 0.89467 0.69662 0.0
C1097 C 0.38649 0.90638 0.77366 0.0
C1098 C 0.3813 0.87317 0.85085 0.0
H1099 H 0.39851 0.90797 0.07886 0.0
H1100 H 0.3966 0.91084 0.99988 0.0
H1101 H 0.38396 0.85854 0.90551 0.0
H1102 H 0.36056 0.86949 0.68837 0.0
H1103 H 0.36236 0.86684 0.76746 0.0
H1104 H 0.37492 0.91928 0.8617 0.0
C1105 C 0.38981 0.89942 1.01022 0.0
C1106 C 0.3818 0.87187 0.89643 0.0
C1107 C 0.39089 0.89779 0.05559 0.0
C1108 C 0.36809 0.87977 0.71159 0.0
C1109 C 0.36911 0.87826 0.75703 0.0
C1110 C 0.37708 0.90595 0.87078 0.0
C1111 C 0.38061 0.88618 0.97843 0.0
C1112 C 0.37995 0.88759 0.92983 0.0
C1113 C 0.37822 0.8916 0.78875 0.0
C1114 C 0.37892 0.89023 0.83738 0.0
H1115 H 0.36672 0.85827 0.04903 0.0
H1116 H 0.36478 0.86114 0.97005 0.0
H1117 H 0.37585 0.91701 0.94109 0.0
H1118 H 0.39204 0.91941 0.7178 0.0
H1119 H 0.3939 0.91673 0.79693 0.0
C1120 C 0.1271 0.69364 0.18155 0.0
C1121 C 0.14456 0.686 0.17983 0.0
C1122 C 0.12481 0.71259 0.18492 0.0
C1123 C 0.14599 0.75741 0.22004 0.0
H1124 H 0.11946 0.77187 0.11999 0.0
C1125 C 0.14846 0.83183 0.18629 0.0
C1126 C 0.13391 0.83837 0.16298 0.0
C1127 C 0.14871 0.81362 0.19298 0.0
C1128 C 0.12654 0.76827 0.14889 0.0
H1129 H 0.17326 0.69214 0.18259 0.0
H1130 H 0.16925 0.72537 0.19018 0.0
H1131 H 0.12135 0.73965 0.12562 0.0
H1132 H 0.10773 0.83139 0.13067 0.0
H1133 H 0.10753 0.80012 0.14468 0.0
H1134 H 0.15084 0.78593 0.24426 0.0
C1135 C 0.15738 0.71668 0.18827 0.0
C1136 C 0.12771 0.7497 0.15184 0.0
C1137 C 0.15967 0.69771 0.18381 0.0
C1138 C 0.11924 0.82663 0.14829 0.0
C1139 C 0.11925 0.8086 0.15598 0.0
C1140 C 0.14448 0.77606 0.21773 0.0
C1141 C 0.13994 0.72425 0.18781 0.0
C1142 C 0.13762 0.74407 0.18708 0.0
C1143 C 0.13419 0.80162 0.17743 0.0
C1144 C 0.13493 0.78179 0.18175 0.0
H1145 H 0.11522 0.68492 0.17835 0.0
H1146 H 0.11123 0.71813 0.18458 0.0
H1147 H 0.15365 0.75339 0.24768 0.0
H1148 H 0.16003 0.84055 0.19762 0.0
H1149 H 0.16062 0.80887 0.20898 0.0
C1150 C 0.58051 0.90078 0.45018 0.0
C1151 C 0.58684 0.88772 0.41432 0.0
C1152 C 0.56232 0.90057 0.46276 0.0
C1153 C 0.52163 0.8707 0.45285 0.0
H1154 H 0.4939 0.91544 0.4577 0.0
C1155 C 0.44572 0.86993 0.41086 0.0
C1156 C 0.43431 0.8838 0.43239 0.0
C1157 C 0.46434 0.87045 0.4201 0.0
C1158 C 0.50146 0.90289 0.45748 0.0
H1159 H 0.57926 0.86381 0.36482 0.0
H1160 H 0.54791 0.86328 0.38707 0.0
H1161 H 0.52691 0.91634 0.45323 0.0
H1162 H 0.43347 0.90884 0.48179 0.0
H1163 H 0.46629 0.9098 0.49814 0.0
H1164 H 0.49629 0.85712 0.45588 0.0
C1165 C 0.55685 0.87373 0.40547 0.0
C1166 C 0.5204 0.90341 0.45484 0.0
C1167 C 0.57483 0.87411 0.3925 0.0
C1168 C 0.44191 0.8979 0.46488 0.0
C1169 C 0.46071 0.89852 0.47389 0.0
C1170 C 0.50277 0.87019 0.45571 0.0
C1171 C 0.55026 0.88708 0.4403 0.0
C1172 C 0.53064 0.8872 0.45094 0.0
C1173 C 0.47219 0.88492 0.45104 0.0
C1174 C 0.49236 0.88615 0.45644 0.0
H1175 H 0.58942 0.9115 0.46745 0.0
H1176 H 0.55766 0.91102 0.48981 0.0
H1177 H 0.52915 0.85802 0.45076 0.0
H1178 H 0.44032 0.85885 0.3857 0.0
H1179 H 0.47268 0.85987 0.40132 0.0
C1180 C 0.35905 0.32927 0.63593 0.0
C1181 C 0.37465 0.34019 0.63766 0.0
C1182 C 0.36007 0.31155 0.64544 0.0
C1183 C 0.39182 0.2731 0.64466 0.0
H1184 H 0.35233 0.25287 0.70228 0.0
C1185 C 0.3887 0.19598 0.66083 0.0
C1186 C 0.37185 0.18753 0.64843 0.0
C1187 C 0.39043 0.21515 0.66709 0.0
C1188 C 0.36346 0.25827 0.686 0.0
H1189 H 0.40354 0.3413 0.6522 0.0
H1190 H 0.40538 0.31015 0.669 0.0
H1191 H 0.35297 0.28557 0.70048 0.0
H1192 H 0.34355 0.1925 0.63433 0.0
H1193 H 0.3465 0.22569 0.64536 0.0
H1194 H 0.40207 0.24564 0.62933 0.0
C1195 C 0.39234 0.31531 0.65988 0.0
C1196 C 0.36383 0.27705 0.68495 0.0
C1197 C 0.39128 0.33319 0.65059 0.0
C1198 C 0.35672 0.19861 0.64387 0.0
C1199 C 0.3584 0.21768 0.65047 0.0
C1200 C 0.39147 0.25427 0.64578 0.0
C1201 C 0.37675 0.30418 0.65688 0.0
C1202 C 0.37775 0.28466 0.66324 0.0
C1203 C 0.3753 0.22623 0.66163 0.0
C1204 C 0.37702 0.24653 0.66545 0.0
H1205 H 0.34602 0.33428 0.62609 0.0
H1206 H 0.34781 0.30337 0.64216 0.0
H1207 H 0.40269 0.27843 0.62734 0.0
H1208 H 0.40061 0.18777 0.66454 0.0
H1209 H 0.40362 0.22128 0.67599 0.0
C1210 C 0.94799 0.12989 0.84191 0.0
C1211 C 0.93613 0.13163 0.87794 0.0
C1212 C 0.96647 0.13323 0.84941 0.0
C1213 C 1.00374 0.13249 0.93014 0.0
H1214 H 0.02862 0.158 0.84827 0.0
C1215 C 0.083 0.13702 0.92101 0.0
C1216 C 0.08913 0.13186 0.87695 0.0
C1217 C 0.06444 0.14009 0.9288 0.0
C1218 C 0.0219 0.1509 0.87155 0.0
H1219 H 0.93437 0.13828 0.95032 0.0
H1220 H 0.96714 0.14387 0.96377 0.0
H1221 H 0.99564 0.15798 0.84862 0.0
H1222 H 0.08076 0.12617 0.80664 0.0
H1223 H 0.04879 0.1317 0.81999 0.0
H1224 H 0.03018 0.12483 0.95172 0.0
C1225 C 0.96192 0.14 0.9296 0.0
C1226 C 1.003 0.15089 0.87176 0.0
C1227 C 0.9432 0.13687 0.92196 0.0
C1228 C 0.07649 0.13015 0.841 0.0
C1229 C 0.05814 0.13344 0.84865 0.0
C1230 C 0.02277 0.1325 0.92993 0.0
C1231 C 0.97373 0.13828 0.89324 0.0
C1232 C 0.99366 0.14112 0.8998 0.0
C1233 C 0.05182 0.13839 0.89256 0.0
C1234 C 0.03202 0.14114 0.89938 0.0
H1235 H 0.94298 0.12585 0.80758 0.0
H1236 H 0.97518 0.13146 0.82068 0.0
H1237 H 0.99693 0.12481 0.95206 0.0
H1238 H 0.09244 0.13838 0.94931 0.0
H1239 H 0.05997 0.14389 0.96302 0.0
C1240 C 0.12694 0.32983 0.87614 0.0
C1241 C 0.14418 0.33797 0.88302 0.0
C1242 C 0.12512 0.31071 0.86769 0.0
C1243 C 0.14801 0.2672 0.82772 0.0
H1244 H 0.11963 0.24806 0.91478 0.0
C1245 C 0.1514 0.19076 0.84699 0.0
C1246 C 0.13657 0.18308 0.86503 0.0
C1247 C 0.15131 0.20933 0.84318 0.0
C1248 C 0.12726 0.25299 0.88931 0.0
H1249 H 0.17302 0.33262 0.88414 0.0
H1250 H 0.16985 0.29918 0.86794 0.0
H1251 H 0.12098 0.2809 0.91699 0.0
H1252 H 0.10956 0.18829 0.89027 0.0
H1253 H 0.10878 0.22015 0.88085 0.0
H1254 H 0.15403 0.23935 0.79922 0.0
C1255 C 0.15777 0.30758 0.86963 0.0
C1256 C 0.1281 0.27192 0.8909 0.0
C1257 C 0.15957 0.32668 0.87906 0.0
C1258 C 0.12126 0.19396 0.87671 0.0
C1259 C 0.12094 0.21233 0.87178 0.0
C1260 C 0.14686 0.24818 0.82544 0.0
C1261 C 0.14052 0.29941 0.86491 0.0
C1262 C 0.13864 0.27923 0.86051 0.0
C1263 C 0.13619 0.22052 0.85638 0.0
C1264 C 0.13663 0.24076 0.85659 0.0
H1265 H 0.11484 0.33821 0.87909 0.0
H1266 H 0.11168 0.30473 0.86403 0.0
H1267 H 0.15619 0.27252 0.80377 0.0
H1268 H 0.16345 0.18269 0.83815 0.0
H1269 H 0.16343 0.21501 0.83168 0.0
C1270 C 0.07374 0.89086 0.18424 0.0
C1271 C 0.08569 0.8893 0.14843 0.0
C1272 C 0.0553 0.88735 0.17641 0.0
C1273 C 0.01817 0.88804 0.09537 0.0
H1274 H 0.99332 0.86203 0.17628 0.0
C1275 C 0.93892 0.88326 0.10385 0.0
C1276 C 0.93274 0.88824 0.14791 0.0
C1277 C 0.95749 0.88021 0.09611 0.0
C1278 C 1.00003 0.86927 0.15327 0.0
H1279 H 0.08766 0.88281 0.07608 0.0
H1280 H 0.05495 0.87693 0.06204 0.0
H1281 H 0.02631 0.86225 0.17624 0.0
H1282 H 0.94104 0.89358 0.21828 0.0
H1283 H 0.97301 0.88808 0.20502 0.0
H1284 H 0.99171 0.89565 0.0738 0.0
C1285 C 0.06007 0.88078 0.0963 0.0
C1286 C 0.01894 0.86939 0.15322 0.0
C1287 C 0.07875 0.88407 0.10428 0.0
C1288 C 0.94534 0.88974 0.18392 0.0
C1289 C 0.9637 0.88647 0.17632 0.0
C1290 C 0.99914 0.88792 0.09542 0.0
C1291 C 0.04817 0.88232 0.13244 0.0
C1292 C 0.02826 0.87934 0.12555 0.0
C1293 C 0.97007 0.88175 0.1324 0.0
C1294 C 0.98989 0.8791 0.12564 0.0
H1295 H 0.07863 0.89489 0.21867 0.0
H1296 H 0.04651 0.88897 0.20497 0.0
H1297 H 0.02497 0.89586 0.07374 0.0
H1298 H 0.92951 0.88207 0.07551 0.0
H1299 H 0.96199 0.87658 0.06188 0.0
C1300 C 0.39969 0.69231 0.40202 0.0
C1301 C 0.38493 0.68069 0.38722 0.0
C1302 C 0.39948 0.71065 0.39651 0.0
C1303 C 0.37355 0.74441 0.3398 0.0
H1304 H 0.39835 0.7797 0.43146 0.0
C1305 C 0.35977 0.823 0.37586 0.0
C1306 C 0.37499 0.83458 0.38029 0.0
C1307 C 0.36184 0.80398 0.37117 0.0
C1308 C 0.39152 0.76998 0.40535 0.0
H1309 H 0.35838 0.67915 0.35477 0.0
H1310 H 0.35749 0.71129 0.34713 0.0
H1311 H 0.39996 0.74724 0.43498 0.0
H1312 H 0.40433 0.83535 0.38254 0.0
H1313 H 0.40795 0.80205 0.37578 0.0
H1314 H 0.36428 0.7676 0.31201 0.0
C1315 C 0.36961 0.70623 0.3616 0.0
C1316 C 0.3925 0.75126 0.4071 0.0
C1317 C 0.37003 0.68774 0.36617 0.0
C1318 C 0.39236 0.82674 0.37897 0.0
C1319 C 0.39443 0.80772 0.37534 0.0
C1320 C 0.37225 0.7632 0.33869 0.0
C1321 C 0.38427 0.71807 0.37708 0.0
C1322 C 0.38353 0.73811 0.37437 0.0
C1323 C 0.37918 0.79617 0.37182 0.0
C1324 C 0.38122 0.77617 0.37146 0.0
H1325 H 0.41147 0.68721 0.41791 0.0
H1326 H 0.41131 0.71897 0.4077 0.0
H1327 H 0.36673 0.73488 0.31335 0.0
H1328 H 0.34623 0.82869 0.3768 0.0
H1329 H 0.34986 0.79543 0.36877 0.0
C1330 C 0.57575 0.15224 0.62387 0.0
C1331 C 0.58642 0.13734 0.60446 0.0
C1332 C 0.55707 0.15218 0.61598 0.0
C1333 C 0.51827 0.13027 0.54679 0.0
H1334 H 0.49304 0.14587 0.65795 0.0
C1335 C 0.43946 0.12452 0.56969 0.0
C1336 C 0.43171 0.13911 0.5994 0.0
C1337 C 0.45829 0.12397 0.56333 0.0
C1338 C 0.4998 0.14167 0.62642 0.0
H1339 H 0.586 0.11113 0.55926 0.0
H1340 H 0.55297 0.1109 0.54566 0.0
H1341 H 0.52584 0.14548 0.65893 0.0
H1342 H 0.43729 0.16525 0.64256 0.0
H1343 H 0.46969 0.16454 0.63073 0.0
H1344 H 0.49186 0.12643 0.51454 0.0
C1345 C 0.55921 0.1227 0.56683 0.0
C1346 C 0.51868 0.14144 0.62699 0.0
C1347 C 0.5781 0.12283 0.57453 0.0
C1348 C 0.44288 0.15368 0.61999 0.0
C1349 C 0.4615 0.15321 0.61341 0.0
C1350 C 0.4992 0.13051 0.54621 0.0
C1351 C 0.54842 0.13711 0.58886 0.0
C1352 C 0.52821 0.13611 0.58716 0.0
C1353 C 0.46959 0.13805 0.58647 0.0
C1354 C 0.48976 0.13659 0.586 0.0
H1355 H 0.58178 0.16376 0.64656 0.0
H1356 H 0.54927 0.16374 0.63247 0.0
H1357 H 0.52521 0.12601 0.51556 0.0
H1358 H 0.43117 0.11306 0.55352 0.0
H1359 H 0.46408 0.11211 0.54228 0.0
C1360 C 0.87216 0.19003 0.84769 0.0
C1361 C 0.88735 0.1831 0.86783 0.0
C1362 C 0.87147 0.20852 0.84344 0.0
C1363 C 0.89375 0.2534 0.89098 0.0
H1364 H 0.86384 0.27072 0.80014 0.0
C1365 C 0.89039 0.3297 0.87257 0.0
C1366 C 0.87282 0.33696 0.87765 0.0
C1367 C 0.89309 0.31071 0.86558 0.0
C1368 C 0.87229 0.26602 0.82556 0.0
H1369 H 0.91417 0.18962 0.89669 0.0
H1370 H 0.91356 0.22144 0.88674 0.0
H1371 H 0.86755 0.2378 0.7974 0.0
H1372 H 0.8443 0.33021 0.87718 0.0
H1373 H 0.849 0.29695 0.86341 0.0
H1374 H 0.89877 0.28172 0.91825 0.0
C1375 C 0.90173 0.21303 0.87618 0.0
C1376 C 0.87432 0.24715 0.82433 0.0
C1377 C 0.9022 0.1947 0.88149 0.0
C1378 C 0.85797 0.32493 0.87347 0.0
C1379 C 0.86065 0.30595 0.86545 0.0
C1380 C 0.89203 0.27221 0.89154 0.0
C1381 C 0.88615 0.22041 0.85831 0.0
C1382 C 0.88489 0.24052 0.85743 0.0
C1383 C 0.87825 0.29868 0.86242 0.0
C1384 C 0.88111 0.2787 0.85924 0.0
H1385 H 0.86045 0.1814 0.83725 0.0
H1386 H 0.85911 0.21357 0.8301 0.0
H1387 H 0.90163 0.24906 0.91782 0.0
H1388 H 0.90208 0.33868 0.87576 0.0
H1389 H 0.90679 0.30541 0.86326 0.0
C1390 C 0.62735 0.83195 0.35394 0.0
C1391 C 0.64485 0.83954 0.35717 0.0
C1392 C 0.62499 0.81294 0.3488 0.0
C1393 C 0.64581 0.76829 0.31161 0.0
H1394 H 0.62047 0.7526 0.40863 0.0
C1395 C 0.64922 0.6933 0.34128 0.0
C1396 C 0.63495 0.68643 0.36315 0.0
C1397 C 0.64924 0.71162 0.33553 0.0
C1398 C 0.62721 0.75655 0.38053 0.0
H1399 H 0.67351 0.83332 0.35518 0.0
H1400 H 0.66935 0.80003 0.34455 0.0
H1401 H 0.62215 0.78502 0.40522 0.0
H1402 H 0.60901 0.69293 0.39375 0.0
H1403 H 0.6084 0.72442 0.38136 0.0
H1404 H 0.65055 0.73991 0.28603 0.0
C1405 C 0.65752 0.80878 0.34662 0.0
C1406 C 0.62825 0.77523 0.37885 0.0
C1407 C 0.65989 0.82778 0.35283 0.0
C1408 C 0.62031 0.69795 0.37728 0.0
C1409 C 0.62009 0.71611 0.37052 0.0
C1410 C 0.64443 0.74953 0.31263 0.0
C1411 C 0.64007 0.80121 0.34564 0.0
C1412 C 0.63775 0.78129 0.34476 0.0
C1413 C 0.63477 0.72341 0.3506 0.0
C1414 C 0.63532 0.74335 0.34752 0.0
H1415 H 0.61552 0.84072 0.35736 0.0
H1416 H 0.6114 0.80741 0.34804 0.0
H1417 H 0.65316 0.77265 0.28485 0.0
H1418 H 0.66075 0.68473 0.33039 0.0
H1419 H 0.66096 0.71664 0.32069 0.0
C1420 C 0.89086 0.69287 0.16635 0.0
C1421 C 0.8738 0.68458 0.16613 0.0
C1422 C 0.89238 0.71199 0.17214 0.0
C1423 C 0.86376 0.75312 0.16404 0.0
H1424 H 0.9076 0.77948 0.20956 0.0
C1425 C 0.87002 0.83205 0.18714 0.0
C1426 C 0.88381 0.83767 0.16147 0.0
C1427 C 0.86928 0.81392 0.19411 0.0
C1428 C 0.89526 0.77225 0.19695 0.0
H1429 H 0.84514 0.68958 0.17483 0.0
H1430 H 0.84778 0.72281 0.18809 0.0
H1431 H 0.9051 0.74682 0.21192 0.0
H1432 H 0.90814 0.82901 0.12495 0.0
H1433 H 0.90712 0.79746 0.13842 0.0
H1434 H 0.85386 0.77877 0.15021 0.0
C1435 C 0.85998 0.71477 0.18142 0.0
C1436 C 0.89384 0.75349 0.19789 0.0
C1437 C 0.85843 0.69569 0.17437 0.0
C1438 C 0.89731 0.82504 0.14471 0.0
C1439 C 0.89679 0.80703 0.15259 0.0
C1440 C 0.86504 0.77192 0.16411 0.0
C1441 C 0.87689 0.72325 0.17892 0.0
C1442 C 0.87814 0.74355 0.18088 0.0
C1443 C 0.88256 0.80121 0.17649 0.0
C1444 C 0.88086 0.78161 0.18002 0.0
H1445 H 0.90291 0.68455 0.15974 0.0
H1446 H 0.90563 0.71781 0.1694 0.0
H1447 H 0.85162 0.74607 0.14945 0.0
H1448 H 0.85939 0.84146 0.20026 0.0
H1449 H 0.85817 0.80972 0.21268 0.0
C1450 C 0.62833 0.19289 0.66038 0.0
C1451 C 0.64575 0.18517 0.65792 0.0
C1452 C 0.62612 0.21187 0.66446 0.0
C1453 C 0.64699 0.25659 0.70063 0.0
H1454 H 0.62169 0.27116 0.59903 0.0
C1455 C 0.64948 0.33132 0.66809 0.0
C1456 C 0.63532 0.33755 0.64297 0.0
C1457 C 0.64969 0.31314 0.6751 0.0
C1458 C 0.6284 0.26754 0.62839 0.0
H1459 H 0.67448 0.19117 0.66019 0.0
H1460 H 0.67059 0.22447 0.66904 0.0
H1461 H 0.62353 0.23893 0.60427 0.0
H1462 H 0.60973 0.33021 0.60804 0.0
H1463 H 0.60933 0.29909 0.62283 0.0
H1464 H 0.65149 0.28512 0.72571 0.0
C1465 C 0.6587 0.21581 0.66715 0.0
C1466 C 0.62955 0.24896 0.63108 0.0
C1467 C 0.66091 0.19681 0.66196 0.0
C1468 C 0.62092 0.32565 0.62708 0.0
C1469 C 0.62085 0.30769 0.63518 0.0
C1470 C 0.64547 0.27527 0.69859 0.0
C1471 C 0.64129 0.22347 0.66736 0.0
C1472 C 0.63902 0.2433 0.6669 0.0
C1473 C 0.6355 0.30092 0.65809 0.0
C1474 C 0.63632 0.28106 0.6621 0.0
H1475 H 0.61641 0.18422 0.65716 0.0
H1476 H 0.61256 0.21749 0.66456 0.0
H1477 H 0.65434 0.25252 0.72867 0.0
H1478 H 0.66083 0.34022 0.68035 0.0
H1479 H 0.66137 0.30856 0.69237 0.0
C1480 C 0.94109 0.36992 0.92048 0.0
C1481 C 0.93056 0.38515 0.93829 0.0
C1482 C 0.95966 0.36974 0.92964 0.0
C1483 C 0.99827 0.39175 0.99882 0.0
H1484 H 0.02366 0.37593 0.88797 0.0
C1485 C 0.0767 0.39863 0.97483 0.0
C1486 C 0.08457 0.38425 0.94476 0.0
C1487 C 0.05797 0.39866 0.98202 0.0
C1488 C 0.01685 0.38015 0.91942 0.0
H1489 H 0.93094 0.41168 0.98215 0.0
H1490 H 0.96383 0.41153 0.99779 0.0
H1491 H 0.99088 0.37622 0.88671 0.0
H1492 H 0.07951 0.35791 0.90211 0.0
H1493 H 0.04723 0.35766 0.91562 0.0
H1494 H 0.02462 0.39576 0.03126 0.0
C1495 C 0.95757 0.39966 0.97699 0.0
C1496 C 0.998 0.38034 0.91868 0.0
C1497 C 0.93878 0.39975 0.9681 0.0
C1498 C 0.07375 0.3693 0.92494 0.0
C1499 C 0.05522 0.36922 0.93249 0.0
C1500 C 0.01733 0.39154 0.99958 0.0
C1501 C 0.96828 0.38492 0.95634 0.0
C1502 C 0.98843 0.38579 0.95838 0.0
C1503 C 0.04694 0.38425 0.95945 0.0
C1504 C 0.0268 0.38539 0.9599 0.0
H1505 H 0.93506 0.35834 0.89796 0.0
H1506 H 0.96743 0.35797 0.91421 0.0
H1507 H 0.99126 0.39611 0.02991 0.0
H1508 H 0.08476 0.41036 0.99036 0.0
H1509 H 0.052 0.41043 1.00305 0.0
C1510 C 0.44185 0.63536 0.43019 0.0
C1511 C 0.43424 0.63012 0.38671 0.0
C1512 C 0.46052 0.63905 0.43625 0.0
C1513 C 0.50011 0.65137 0.37498 0.0
H1514 H 0.52945 0.62602 0.45244 0.0
C1515 C 0.57384 0.63287 0.3387 0.0
C1516 C 0.58682 0.63486 0.37394 0.0
C1517 C 0.5555 0.63565 0.34749 0.0
C1518 C 0.52142 0.63349 0.43133 0.0
H1519 H 0.44006 0.62487 0.3157 0.0
H1520 H 0.47219 0.63138 0.3261 0.0
H1521 H 0.49629 0.625 0.45555 0.0
H1522 H 0.59078 0.64148 0.4461 0.0
H1523 H 0.5584 0.64605 0.46183 0.0
H1524 H 0.52504 0.65925 0.34939 0.0
C1525 C 0.46393 0.63276 0.35559 0.0
C1526 C 0.50245 0.63291 0.43313 0.0
C1527 C 0.4455 0.6289 0.34964 0.0
C1528 C 0.58107 0.63985 0.41837 0.0
C1529 C 0.56256 0.6424 0.42731 0.0
C1530 C 0.51896 0.65192 0.37315 0.0
C1531 C 0.47173 0.63786 0.39885 0.0
C1532 C 0.4916 0.64129 0.40373 0.0
C1533 C 0.54958 0.64035 0.39184 0.0
C1534 C 0.52983 0.64244 0.40008 0.0
H1535 H 0.43345 0.63639 0.45932 0.0
H1536 H 0.46617 0.64294 0.47 0.0
H1537 H 0.49213 0.65829 0.35256 0.0
H1538 H 0.57783 0.62902 0.30408 0.0
H1539 H 0.54586 0.63368 0.31942 0.0
C1540 C 0.44866 0.37192 0.59629 0.0
C1541 C 0.43635 0.38137 0.57264 0.0
C1542 C 0.46703 0.37143 0.58688 0.0
C1543 C 0.50508 0.36713 0.55345 0.0
H1544 H 0.52601 0.41444 0.5474 0.0
C1545 C 0.58251 0.37872 0.56955 0.0
C1546 C 0.588 0.39496 0.59816 0.0
C1547 C 0.56439 0.37622 0.55481 0.0
C1548 C 0.5204 0.40111 0.54905 0.0
H1549 H 0.43353 0.397 0.51896 0.0
H1550 H 0.46595 0.39617 0.50226 0.0
H1551 H 0.49323 0.41049 0.54169 0.0
H1552 H 0.57904 0.42149 0.63277 0.0
H1553 H 0.5475 0.41702 0.60819 0.0
H1554 H 0.53208 0.35803 0.5638 0.0
C1555 C 0.46127 0.38921 0.52838 0.0
C1556 C 0.50159 0.39878 0.5451 0.0
C1557 C 0.44271 0.38957 0.53764 0.0
C1558 C 0.57519 0.40882 0.61075 0.0
C1559 C 0.55711 0.4063 0.59624 0.0
C1560 C 0.52386 0.36948 0.55762 0.0
C1561 C 0.47369 0.38043 0.55359 0.0
C1562 C 0.49365 0.38192 0.5488 0.0
C1563 C 0.55139 0.38989 0.5685 0.0
C1564 C 0.53174 0.38666 0.55696 0.0
H1565 H 0.44417 0.36535 0.62331 0.0
H1566 H 0.47614 0.36475 0.60745 0.0
H1567 H 0.49944 0.35386 0.55568 0.0
H1568 H 0.59214 0.36784 0.55915 0.0
H1569 H 0.56055 0.36349 0.53304 0.0
C1570 C 0.07865 0.6241 0.08899 0.0
C1571 C 0.08551 0.63757 0.12416 0.0
C1572 C 0.06015 0.62381 0.07669 0.0
C1573 C 0.0185 0.65251 0.08816 0.0
H1574 H 0.99279 0.60671 0.08423 0.0
C1575 C 0.94449 0.64992 0.13693 0.0
C1576 C 0.93283 0.63616 0.11425 0.0
C1577 C 0.96278 0.65009 0.12662 0.0
C1578 C 0.99977 0.61954 0.08425 0.0
H1579 H 0.07855 0.66173 0.17252 0.0
H1580 H 0.04664 0.66132 0.15099 0.0
H1581 H 0.02593 0.60703 0.08653 0.0
H1582 H 0.93116 0.61201 0.062 0.0
H1583 H 0.96346 0.61218 0.04411 0.0
H1584 H 0.99243 0.66515 0.08763 0.0
C1585 C 0.05539 0.65097 0.13278 0.0
C1586 C 0.01878 0.61972 0.08558 0.0
C1587 C 0.07371 0.65113 0.14538 0.0
C1588 C 0.93981 0.62283 0.0799 0.0
C1589 C 0.9583 0.62286 0.06991 0.0
C1590 C 0.99957 0.65232 0.08682 0.0
C1591 C 0.04827 0.63716 0.09882 0.0
C1592 C 0.02835 0.63632 0.08914 0.0
C1593 C 0.97003 0.63642 0.09354 0.0
C1594 C 0.98995 0.63595 0.08645 0.0
H1595 H 0.0874 0.61342 0.07219 0.0
H1596 H 0.0551 0.61303 0.05026 0.0
H1597 H 0.02545 0.66547 0.08994 0.0
H1598 H 0.93956 0.66044 0.16347 0.0
H1599 H 0.97141 0.66059 0.14594 0.0
C1600 C 0.14823 0.57504 0.13398 0.0
C1601 C 0.13226 0.58277 0.15319 0.0
C1602 C 0.14796 0.55768 0.10653 0.0
C1603 C 0.11915 0.51557 0.07427 0.0
H1604 H 0.15207 0.50529 0.97515 0.0
C1605 C 0.11371 0.45105 0.93344 0.0
C1606 C 0.12985 0.44121 0.9241 0.0
C1607 C 0.11394 0.46825 0.96166 0.0
C1608 C 0.14287 0.50795 1.00286 0.0
H1609 H 0.10344 0.57863 0.15828 0.0
H1610 H 0.10275 0.54873 0.10912 0.0
H1611 H 0.15238 0.53546 0.02312 0.0
H1612 H 0.15888 0.4416 0.93662 0.0
H1613 H 0.15934 0.47188 0.98502 0.0
H1614 H 0.10929 0.48812 0.05266 0.0
C1615 C 0.11565 0.55566 0.11623 0.0
C1616 C 0.1431 0.52523 0.03065 0.0
C1617 C 0.11599 0.57289 0.14426 0.0
C1618 C 0.14624 0.44893 0.94317 0.0
C1619 C 0.14651 0.46626 0.97073 0.0
C1620 C 0.11873 0.4984 0.04598 0.0
C1621 C 0.13165 0.54775 0.09696 0.0
C1622 C 0.1313 0.52931 0.06698 0.0
C1623 C 0.13035 0.47607 0.98044 0.0
C1624 C 0.13064 0.49438 1.01012 0.0
H1625 H 0.16098 0.58235 0.14041 0.0
H1626 H 0.16064 0.55202 0.09322 0.0
H1627 H 0.11009 0.51793 0.10227 0.0
H1628 H 0.10088 0.44538 0.91934 0.0
H1629 H 0.10129 0.47555 0.9684 0.0
C1630 C 0.70759 0.90534 0.32586 0.0
C1631 C 0.69357 0.89339 0.30701 0.0
C1632 C 0.72439 0.90497 0.30492 0.0
C1633 C 0.74631 0.88721 0.19476 0.0
H1634 H 0.79089 0.89792 0.26501 0.0
C1635 C 0.81751 0.87128 0.1208 0.0
C1636 C 0.83043 0.88541 0.13053 0.0
C1637 C 0.80088 0.87277 0.14247 0.0
C1638 C 0.77852 0.895 0.24495 0.0
H1639 H 0.68646 0.87125 0.25216 0.0
H1640 H 0.71564 0.87005 0.21703 0.0
H1641 H 0.762 0.89937 0.303 0.0
H1642 H 0.83586 0.91236 0.16988 0.0
H1643 H 0.80707 0.9147 0.20885 0.0
H1644 H 0.76301 0.88226 0.1369 0.0
C1645 C 0.71365 0.88027 0.24689 0.0
C1646 C 0.7619 0.89592 0.26669 0.0
C1647 C 0.69685 0.88085 0.26733 0.0
C1648 C 0.82631 0.90111 0.16219 0.0
C1649 C 0.80982 0.90246 0.18451 0.0
C1650 C 0.76293 0.88599 0.17319 0.0
C1651 C 0.72767 0.89245 0.26495 0.0
C1652 C 0.7455 0.89196 0.24195 0.0
C1653 C 0.79689 0.88832 0.17481 0.0
C1654 C 0.77923 0.88983 0.19798 0.0
H1655 H 0.70549 0.91522 0.35632 0.0
H1656 H 0.73467 0.91475 0.31975 0.0
H1657 H 0.73408 0.88453 0.17416 0.0
H1658 H 0.82027 0.85903 0.09647 0.0
H1659 H 0.79123 0.86162 0.13442 0.0
C1660 C 0.37525 0.44184 0.56627 0.0
C1661 C 0.39011 0.43912 0.59435 0.0
C1662 C 0.37441 0.45735 0.54566 0.0
C1663 C 0.39012 0.50486 0.56173 0.0
H1664 H 0.37962 0.50236 0.43459 0.0
C1665 C 0.39699 0.5692 0.48265 0.0
C1666 C 0.38502 0.57194 0.44761 0.0
C1667 C 0.39751 0.55248 0.49774 0.0
C1668 C 0.38229 0.5034 0.47029 0.0
H1669 H 0.41577 0.45047 0.62254 0.0
H1670 H 0.41407 0.47772 0.5877 0.0
H1671 H 0.38033 0.4742 0.46616 0.0
H1672 H 0.36439 0.55903 0.40035 0.0
H1673 H 0.36476 0.52989 0.42778 0.0
H1674 H 0.39149 0.53389 0.56684 0.0
C1675 C 0.40313 0.46781 0.58133 0.0
C1676 C 0.38278 0.4872 0.48831 0.0
C1677 C 0.40413 0.45218 0.6012 0.0
C1678 C 0.37381 0.55732 0.4273 0.0
C1679 C 0.37409 0.54058 0.44303 0.0
C1680 C 0.38935 0.52101 0.544 0.0
C1681 C 0.38823 0.47065 0.55349 0.0
C1682 C 0.38695 0.48775 0.53414 0.0
C1683 C 0.3858 0.538 0.479 0.0
C1684 C 0.38572 0.52058 0.49783 0.0
H1685 H 0.36418 0.4321 0.56058 0.0
H1686 H 0.36271 0.4592 0.52463 0.0
H1687 H 0.39303 0.50579 0.59734 0.0
H1688 H 0.40604 0.58006 0.49862 0.0
H1689 H 0.40718 0.55099 0.52434 0.0
C1690 C 0.82186 0.15048 0.90359 0.0
C1691 C 0.83436 0.13612 0.89379 0.0
C1692 C 0.80506 0.14967 0.88066 0.0
C1693 C 0.77342 0.117 0.80728 0.0
H1694 H 0.75156 0.16198 0.78351 0.0
C1695 C 0.70865 0.11913 0.69346 0.0
C1696 C 0.69513 0.13132 0.71231 0.0
C1697 C 0.72592 0.11939 0.71413 0.0
C1698 C 0.75747 0.1493 0.79003 0.0
H1699 H 0.83894 0.10946 0.8529 0.0
H1700 H 0.81013 0.10835 0.81144 0.0
H1701 H 0.78103 0.16306 0.822 0.0
H1702 H 0.68929 0.15353 0.76726 0.0
H1703 H 0.71938 0.15418 0.80255 0.0
H1704 H 0.74988 0.10329 0.77415 0.0
C1705 C 0.81298 0.12012 0.83747 0.0
C1706 C 0.77435 0.14991 0.81243 0.0
C1707 C 0.82964 0.12084 0.8609 0.0
C1708 C 0.69934 0.1439 0.75188 0.0
C1709 C 0.71663 0.14436 0.77202 0.0
C1710 C 0.75664 0.11639 0.78426 0.0
C1711 C 0.80039 0.13453 0.84693 0.0
C1712 C 0.78253 0.13379 0.82187 0.0
C1713 C 0.73012 0.13208 0.75354 0.0
C1714 C 0.74839 0.13255 0.77579 0.0
H1715 H 0.82506 0.16238 0.92905 0.0
H1716 H 0.79568 0.16087 0.8898 0.0
H1717 H 0.77901 0.1043 0.81442 0.0
H1718 H 0.70584 0.10925 0.66307 0.0
H1719 H 0.73607 0.10982 0.69901 0.0
C1720 C 0.89744 0.56805 0.14382 0.0
C1721 C 0.88394 0.58098 0.13884 0.0
C1722 C 0.89717 0.55067 0.11633 0.0
C1723 C 0.8835 0.52681 1.00558 0.0
H1724 H 0.88301 0.48224 0.05577 0.0
C1725 C 0.89627 0.45333 0.90437 0.0
C1726 C 0.88258 0.44055 0.9076 0.0
C1727 C 0.8963 0.47066 0.93207 0.0
C1728 C 0.88317 0.4946 0.04139 0.0
H1729 H 0.85937 0.58571 0.10191 0.0
H1730 H 0.85937 0.55566 0.05261 0.0
H1731 H 0.88362 0.5122 0.10611 0.0
H1732 H 0.85797 0.43602 0.94158 0.0
H1733 H 0.85851 0.46599 0.99135 0.0
H1734 H 0.8835 0.50921 0.94089 0.0
C1735 C 0.87006 0.55895 0.07797 0.0
C1736 C 0.8836 0.51168 0.07011 0.0
C1737 C 0.87008 0.57613 0.10616 0.0
C1738 C 0.86883 0.44549 0.93874 0.0
C1739 C 0.86912 0.46262 0.96719 0.0
C1740 C 0.88352 0.50973 0.9769 0.0
C1741 C 0.88361 0.54607 0.08275 0.0
C1742 C 0.88362 0.52794 0.05245 0.0
C1743 C 0.88286 0.47536 0.96414 0.0
C1744 C 0.88321 0.49347 0.99453 0.0
H1745 H 0.90825 0.57139 0.16883 0.0
H1746 H 0.90777 0.54096 0.12062 0.0
H1747 H 0.88358 0.53917 0.99118 0.0
H1748 H 0.907 0.44993 0.88058 0.0
H1749 H 0.90705 0.48025 0.92912 0.0
C1750 C 0.19544 0.12054 0.86066 0.0
C1751 C 0.19105 0.13631 0.8918 0.0
C1752 C 0.2114 0.1198 0.83631 0.0
C1753 C 0.25718 0.13926 0.84039 0.0
H1754 H 0.25614 0.12305 0.71114 0.0
C1755 C 0.32027 0.14669 0.73778 0.0
C1756 C 0.32404 0.13329 0.7 0.0
C1757 C 0.30379 0.14675 0.75942 0.0
C1758 C 0.25679 0.12735 0.74728 0.0
H1759 H 0.20021 0.16348 0.9228 0.0
H1760 H 0.22836 0.16202 0.88122 0.0
H1761 H 0.22816 0.12349 0.75276 0.0
H1762 H 0.31321 0.10954 0.65492 0.0
H1763 H 0.2845 0.10921 0.69364 0.0
H1764 H 0.28572 0.14264 0.83568 0.0
C1765 C 0.21932 0.1503 0.87519 0.0
C1766 C 0.24069 0.12767 0.77112 0.0
C1767 C 0.2032 0.15115 0.89898 0.0
C1768 C 0.3107 0.12009 0.68386 0.0
C1769 C 0.2942 0.11997 0.70606 0.0
C1770 C 0.27327 0.13869 0.81676 0.0
C1771 C 0.22355 0.13466 0.84332 0.0
C1772 C 0.24068 0.13382 0.8179 0.0
C1773 C 0.29058 0.13321 0.74456 0.0
C1774 C 0.27334 0.13297 0.76971 0.0
H1775 H 0.18647 0.10877 0.85484 0.0
H1776 H 0.21436 0.10748 0.81244 0.0
H1777 H 0.25769 0.14376 0.8765 0.0
H1778 H 0.33011 0.15726 0.75077 0.0
H1779 H 0.30144 0.15755 0.78789 0.0
C1780 C 0.64215 0.56334 0.40376 0.0
C1781 C 0.64191 0.57982 0.43512 0.0
C1782 C 0.64288 0.54642 0.41827 0.0
C1783 C 0.65571 0.52523 0.51622 0.0
H1784 H 0.62332 0.48608 0.46105 0.0
C1785 C 0.64576 0.45956 0.59187 0.0
C1786 C 0.64319 0.4429 0.56186 0.0
C1787 C 0.64617 0.47618 0.576 0.0
C1788 C 0.63267 0.49674 0.47647 0.0
H1789 H 0.64248 0.59135 0.50648 0.0
H1790 H 0.64379 0.56202 0.5314 0.0
H1791 H 0.6234 0.51489 0.43306 0.0
H1792 H 0.63949 0.43066 0.49142 0.0
H1793 H 0.64063 0.45939 0.46391 0.0
H1794 H 0.6651 0.5071 0.55942 0.0
C1795 C 0.64349 0.56213 0.49565 0.0
C1796 C 0.63268 0.51329 0.46038 0.0
C1797 C 0.6426 0.57897 0.48123 0.0
C1798 C 0.64132 0.44323 0.51564 0.0
C1799 C 0.64186 0.45977 0.49979 0.0
C1800 C 0.6558 0.50864 0.53212 0.0
C1801 C 0.64358 0.54564 0.46441 0.0
C1802 C 0.64412 0.52776 0.48023 0.0
C1803 C 0.64414 0.47651 0.52972 0.0
C1804 C 0.64421 0.49418 0.5126 0.0
H1805 H 0.64164 0.56347 0.36803 0.0
H1806 H 0.64306 0.53394 0.39336 0.0
H1807 H 0.66486 0.53604 0.5319 0.0
H1808 H 0.64716 0.45982 0.62768 0.0
H1809 H 0.64772 0.4888 0.60015 0.0
C1810 C 0.32094 0.87592 0.28661 0.0
C1811 C 0.32519 0.8887 0.3258 0.0
C1812 C 0.30376 0.87559 0.26596 0.0
C1813 C 0.26451 0.90412 0.2507 0.0
H1814 H 0.23941 0.85779 0.21389 0.0
C1815 C 0.19227 0.90033 0.16918 0.0
C1816 C 0.18756 0.88483 0.13695 0.0
C1817 C 0.20869 0.90099 0.19371 0.0
C1818 C 0.24629 0.87084 0.22317 0.0
H1819 H 0.31462 0.91125 0.37389 0.0
H1820 H 0.28457 0.91094 0.33701 0.0
H1821 H 0.26849 0.85864 0.2541 0.0
H1822 H 0.19667 0.85815 0.10388 0.0
H1823 H 0.22563 0.85954 0.14495 0.0
H1824 H 0.24276 0.91631 0.21849 0.0
C1825 C 0.29461 0.90109 0.3226 0.0
C1826 C 0.26295 0.87132 0.24659 0.0
C1827 C 0.31178 0.90121 0.34382 0.0
C1828 C 0.19985 0.87021 0.12881 0.0
C1829 C 0.2164 0.87097 0.15282 0.0
C1830 C 0.24797 0.90363 0.22666 0.0
C1831 C 0.29041 0.88822 0.2835 0.0
C1832 C 0.27229 0.88794 0.26048 0.0
C1833 C 0.22104 0.88631 0.186 0.0
C1834 C 0.23861 0.88695 0.21231 0.0
H1835 H 0.33091 0.86604 0.27186 0.0
H1836 H 0.30101 0.86562 0.23569 0.0
H1837 H 0.27149 0.91711 0.26051 0.0
H1838 H 0.18315 0.91191 0.17589 0.0
H1839 H 0.21151 0.91295 0.21922 0.0
C1840 C 0.64985 0.95028 0.41112 0.0
C1841 C 0.6336 0.94278 0.3908 0.0
C1842 C 0.64996 0.96728 0.44016 0.0
C1843 C 0.62139 1.00906 0.47556 0.0
H1844 H 0.65603 0.01804 0.57563 0.0
C1845 C 0.61796 0.07207 0.6204 0.0
C1846 C 0.63419 0.08197 0.63054 0.0
C1847 C 0.61783 0.05505 0.59137 0.0
C1848 C 0.64633 0.01574 0.54768 0.0
H1849 H 0.60466 0.94698 0.38543 0.0
H1850 H 0.60464 0.97622 0.43723 0.0
H1851 H 0.65573 0.98843 0.52515 0.0
H1852 H 0.663 0.08181 0.61875 0.0
H1853 H 0.66285 0.05183 0.569 0.0
H1854 H 0.61169 0.03629 0.49936 0.0
C1855 C 0.61747 0.9694 0.42983 0.0
C1856 C 0.64621 0.99878 0.51846 0.0
C1857 C 0.61743 0.95254 0.40026 0.0
C1858 C 0.65031 0.07443 0.61163 0.0
C1859 C 0.65024 0.05728 0.58327 0.0
C1860 C 0.62133 0.02589 0.50527 0.0
C1861 C 0.63375 0.97709 0.4502 0.0
C1862 C 0.63379 0.99518 0.48175 0.0
C1863 C 0.63397 0.04746 0.57256 0.0
C1864 C 0.63385 0.02945 0.54151 0.0
H1865 H 0.66253 0.94304 0.40434 0.0
H1866 H 0.66283 0.97279 0.4543 0.0
H1867 H 0.61186 1.00709 0.44733 0.0
H1868 H 0.60532 0.07761 0.63432 0.0
H1869 H 0.60512 0.04775 0.58389 0.0
C1870 C 0.20618 0.40066 0.86619 0.0
C1871 C 0.1904 0.39623 0.83953 0.0
C1872 C 0.223 0.40151 0.8462 0.0
C1873 C 0.24626 0.38575 0.73847 0.0
H1874 H 0.28232 0.42189 0.79011 0.0
C1875 C 0.31302 0.39561 0.6493 0.0
C1876 C 0.32889 0.39702 0.67639 0.0
C1877 C 0.29596 0.39639 0.66874 0.0
C1878 C 0.27242 0.41165 0.77544 0.0
H1879 H 0.17987 0.38971 0.77084 0.0
H1880 H 0.20893 0.39161 0.73625 0.0
H1881 H 0.25296 0.42162 0.8252 0.0
H1882 H 0.33922 0.40075 0.74529 0.0
H1883 H 0.30955 0.40216 0.77893 0.0
H1884 H 0.26571 0.37587 0.68857 0.0
C1885 C 0.2085 0.39397 0.77258 0.0
C1886 C 0.2556 0.41144 0.79565 0.0
C1887 C 0.19177 0.39299 0.7925 0.0
C1888 C 0.32729 0.39958 0.72334 0.0
C1889 C 0.31027 0.40051 0.74272 0.0
C1890 C 0.26302 0.38605 0.71812 0.0
C1891 C 0.22439 0.39806 0.79909 0.0
C1892 C 0.2423 0.39845 0.77751 0.0
C1893 C 0.29439 0.39876 0.71568 0.0
C1894 C 0.27633 0.39894 0.73645 0.0
H1895 H 0.20561 0.40317 0.90251 0.0
H1896 H 0.23495 0.4045 0.86775 0.0
H1897 H 0.23653 0.37531 0.72397 0.0
H1898 H 0.31376 0.39362 0.61305 0.0
H1899 H 0.28397 0.39517 0.64701 0.0
C1900 C 0.87802 0.95986 0.11053 0.0
C1901 C 0.87818 0.94286 0.08116 0.0
C1902 C 0.87786 0.97628 0.09356 0.0
C1903 C 0.88804 0.99463 0.99 0.0
H1904 H 0.86004 0.03641 0.04615 0.0
C1905 C 0.87894 0.06028 0.91166 0.0
C1906 C 0.88086 0.07704 0.94171 0.0
C1907 C 0.87803 0.04371 0.92781 0.0
C1908 C 0.86803 0.02489 0.03023 0.0
H1909 H 0.87779 0.92991 1.01067 0.0
H1910 H 0.87717 0.95822 0.9816 0.0
H1911 H 0.85978 1.00822 0.07703 0.0
H1912 H 0.88317 0.08937 1.01253 0.0
H1913 H 0.88162 0.06076 0.04013 0.0
H1914 H 0.89623 0.01131 0.94312 0.0
C1915 C 0.87764 0.95901 0.0177 0.0
C1916 C 0.86793 1.00874 0.04807 0.0
C1917 C 0.87788 0.9427 0.03454 0.0
C1918 C 0.8817 0.0768 0.98816 0.0
C1919 C 0.88067 0.06034 1.00419 0.0
C1920 C 0.88807 1.01075 0.97206 0.0
C1921 C 0.87779 0.97605 0.04686 0.0
C1922 C 0.87797 0.99339 0.02826 0.0
C1923 C 0.87885 0.04358 0.97433 0.0
C1924 C 0.87813 0.02611 0.99206 0.0
H1925 H 0.87827 0.96051 0.14657 0.0
H1926 H 0.87814 0.98916 0.11708 0.0
H1927 H 0.8962 0.98322 0.97424 0.0
H1928 H 0.87824 0.05994 0.87574 0.0
H1929 H 0.8765 0.03102 0.90391 0.0
C1930 C 0.20698 0.61861 0.21638 0.0
C1931 C 0.19353 0.63071 0.23591 0.0
C1932 C 0.22404 0.61811 0.2377 0.0
C1933 C 0.24784 0.63277 0.34934 0.0
H1934 H 0.29118 0.62327 0.27935 0.0
C1935 C 0.32035 0.64497 0.42713 0.0
C1936 C 0.33309 0.63106 0.41405 0.0
C1937 C 0.3033 0.64439 0.40548 0.0
C1938 C 0.27917 0.62581 0.29934 0.0
H1939 H 0.18767 0.65212 0.29261 0.0
H1940 H 0.21735 0.65174 0.32869 0.0
H1941 H 0.2617 0.62346 0.24101 0.0
H1942 H 0.33783 0.60542 0.36879 0.0
H1943 H 0.30823 0.60465 0.3302 0.0
H1944 H 0.26546 0.63562 0.40762 0.0
C1945 C 0.21469 0.64214 0.29777 0.0
C1946 C 0.26222 0.62584 0.27737 0.0
C1947 C 0.19762 0.64246 0.27681 0.0
C1948 C 0.32837 0.61647 0.37919 0.0
C1949 C 0.31144 0.61603 0.35706 0.0
C1950 C 0.26479 0.63298 0.37123 0.0
C1951 C 0.22815 0.62985 0.27882 0.0
C1952 C 0.24628 0.62939 0.30204 0.0
C1953 C 0.2987 0.62998 0.36996 0.0
C1954 C 0.28066 0.62954 0.34652 0.0
H1955 H 0.20425 0.60931 0.185 0.0
H1956 H 0.23389 0.60828 0.22223 0.0
H1957 H 0.23594 0.63511 0.36971 0.0
H1958 H 0.32359 0.65637 0.45393 0.0
H1959 H 0.29381 0.6554 0.41602 0.0
C1960 C 0.36929 0.94657 0.42382 0.0
C1961 C 0.38554 0.93892 0.40581 0.0
C1962 C 0.36906 0.96427 0.44971 0.0
C1963 C 0.39755 0.99815 0.52288 0.0
H1964 H 0.3624 0.03384 0.49627 0.0
C1965 C 0.40071 0.07367 0.61553 0.0
C1966 C 0.38451 0.08357 0.62297 0.0
C1967 C 0.40079 0.05614 0.58882 0.0
C1968 C 0.37213 0.02402 0.50491 0.0
H1969 H 0.4143 0.94368 0.40132 0.0
H1970 H 0.41397 0.97445 0.44748 0.0
H1971 H 0.3624 1.0031 0.45106 0.0
H1972 H 0.35563 0.08282 0.60865 0.0
H1973 H 0.35551 0.05198 0.56391 0.0
H1974 H 0.40695 0.01862 0.57759 0.0
C1975 C 0.40139 0.96682 0.44117 0.0
C1976 C 0.37217 1.00638 0.47866 0.0
C1977 C 0.40156 0.94926 0.41456 0.0
C1978 C 0.36834 0.07552 0.60342 0.0
C1979 C 0.36834 0.05784 0.57733 0.0
C1980 C 0.39732 0.01566 0.54967 0.0
C1981 C 0.38513 0.97457 0.45894 0.0
C1982 C 0.38495 0.99327 0.48717 0.0
C1983 C 0.38459 0.04785 0.56938 0.0
C1984 C 0.38467 0.02897 0.54103 0.0
H1985 H 0.35674 0.93889 0.41775 0.0
H1986 H 0.35635 0.9698 0.4632 0.0
H1987 H 0.40742 0.98827 0.53064 0.0
H1988 H 0.41342 0.07962 0.62975 0.0
H1989 H 0.41366 0.04924 0.58293 0.0
C1990 C 0.81099 0.61936 0.19407 0.0
C1991 C 0.82475 0.63164 0.21308 0.0
C1992 C 0.79395 0.6199 0.21384 0.0
C1993 C 0.76342 0.65045 0.28703 0.0
H1994 H 0.74267 0.60597 0.31458 0.0
C1995 C 0.70143 0.65285 0.40083 0.0
C1996 C 0.68876 0.63851 0.39151 0.0
C1997 C 0.71779 0.65178 0.37803 0.0
C1998 C 0.74805 0.61851 0.30653 0.0
H1999 H 0.83124 0.65435 0.26714 0.0
H2000 H 0.80158 0.65546 0.30081 0.0
H2001 H 0.77102 0.60452 0.27447 0.0
H2002 H 0.68344 0.61162 0.35181 0.0
H2003 H 0.71144 0.61004 0.31064 0.0
H2004 H 0.74043 0.66448 0.31806 0.0
C2005 C 0.80395 0.64536 0.2709 0.0
C2006 C 0.76436 0.61764 0.28358 0.0
C2007 C 0.821 0.64463 0.2517 0.0
C2008 C 0.69287 0.62298 0.3594 0.0
C2009 C 0.70908 0.622 0.33612 0.0
C2010 C 0.747 0.6513 0.30939 0.0
C2011 C 0.79026 0.63296 0.25241 0.0
C2012 C 0.77233 0.63363 0.27404 0.0
C2013 C 0.72181 0.6364 0.345 0.0
C2014 C 0.73913 0.63538 0.31998 0.0
H2015 H 0.81347 0.60918 0.16439 0.0
H2016 H 0.78362 0.61022 0.19876 0.0
H2017 H 0.76913 0.66298 0.27968 0.0
H2018 H 0.69869 0.66493 0.4257 0.0
H2019 H 0.72734 0.66298 0.38668 0.0
C2020 C 0.14449 0.06056 0.9129 0.0
C2021 C 0.14438 0.0775 0.94258 0.0
C2022 C 0.14471 0.04405 0.92952 0.0
C2023 C 0.15546 0.02481 0.03245 0.0
H2024 H 0.12337 0.98535 0.97772 0.0
C2025 C 0.14287 0.96065 0.11368 0.0
C2026 C 0.14111 0.94369 0.08436 0.0
C2027 C 0.14364 0.97705 0.09668 0.0
C2028 C 0.1326 0.99612 0.99316 0.0
H2029 H 0.14472 0.0902 1.01324 0.0
H2030 H 0.14505 0.0617 0.04166 0.0
H2031 H 0.12472 0.01326 0.94607 0.0
H2032 H 0.13917 0.93083 1.01386 0.0
H2033 H 0.14082 0.95905 0.98478 0.0
H2034 H 0.16339 1.00767 0.07948 0.0
C2035 C 0.14509 0.06108 1.00563 0.0
C2036 C 0.13338 0.01214 0.97489 0.0
C2037 C 0.14476 0.07748 0.98915 0.0
C2038 C 0.14034 0.94357 0.03775 0.0
C2039 C 0.14118 0.95985 0.02088 0.0
C2040 C 0.15474 1.00875 0.05064 0.0
C2041 C 0.14499 0.04413 0.97615 0.0
C2042 C 0.14477 0.02673 0.99437 0.0
C2043 C 0.1427 0.97685 0.04998 0.0
C2044 C 0.14329 0.99417 0.03127 0.0
H2045 H 0.14421 0.06004 0.8769 0.0
H2046 H 0.14476 0.03122 0.90585 0.0
H2047 H 0.16455 0.03569 0.04802 0.0
H2048 H 0.14348 0.96128 0.14972 0.0
H2049 H 0.14466 0.9899 0.12017 0.0
C2050 C 0.69367 0.4015 0.65129 0.0
C2051 C 0.68937 0.38557 0.62 0.0
C2052 C 0.7098 0.40262 0.67703 0.0
C2053 C 0.75583 0.38438 0.67699 0.0
H2054 H 0.75523 0.39927 0.80655 0.0
C2055 C 0.81941 0.37699 0.78519 0.0
C2056 C 0.82319 0.39026 0.82368 0.0
C2057 C 0.80283 0.37684 0.76196 0.0
C2058 C 0.75574 0.39536 0.77037 0.0
H2059 H 0.69878 0.35852 0.5902 0.0
H2060 H 0.72723 0.36068 0.63422 0.0
H2061 H 0.72699 0.39857 0.76228 0.0
H2062 H 0.81235 0.41368 0.8684 0.0
H2063 H 0.78345 0.41386 0.82689 0.0
H2064 H 0.78447 0.38162 0.68434 0.0
C2065 C 0.718 0.3722 0.63925 0.0
C2066 C 0.73951 0.3949 0.74505 0.0
C2067 C 0.70173 0.37096 0.61409 0.0
C2068 C 0.80981 0.40324 0.83892 0.0
C2069 C 0.79322 0.40328 0.81514 0.0
C2070 C 0.77205 0.3851 0.70212 0.0
C2071 C 0.72215 0.38799 0.67123 0.0
C2072 C 0.73938 0.38918 0.69814 0.0
C2073 C 0.78958 0.39017 0.77598 0.0
C2074 C 0.77224 0.39033 0.74928 0.0
H2075 H 0.68451 0.41308 0.65611 0.0
H2076 H 0.71273 0.41503 0.70104 0.0
H2077 H 0.75619 0.38022 0.64082 0.0
H2078 H 0.82931 0.3666 0.77291 0.0
H2079 H 0.80043 0.36616 0.73293 0.0
loop_
_geom_bond_atom_site_label_1
_geom_bond_atom_site_label_2
_geom_bond_distance
_geom_bond_site_symmetry_2
_ccdc_geom_bond_type
Gd0 C3 2.818 . S
Gd0 O20 2.377 . S
Gd0 O22 2.448 . S
Gd0 O23 2.506 . S
Gd0 O24 2.435 . S
Gd0 O25 2.717 . S
Gd0 O27 2.395 . S
Gd0 O31 2.327 . S
Gd1 C12 2.818 . S
Gd1 O21 2.395 . S
Gd1 O25 2.327 . S
Gd1 O26 2.377 . S
Gd1 O28 2.448 . S
Gd1 O29 2.506 . S
Gd1 O30 2.435 . S
Gd1 O31 2.717 . S
C2 O20 1.240 . S
C2 O21 1.240 . S
C3 Gd0 2.818 . S
C3 C4 1.510 1_554 S
C3 O22 1.249 . S
C3 O23 1.252 . S
C4 C3 1.510 1_556 S
C4 C5 1.404 . S
C4 C6 1.352 . S
C5 C4 1.404 . S
C5 C9 1.389 . S
C5 H32 0.930 . S
C6 C4 1.352 . S
C6 C8 1.374 . S
C6 H33 0.931 . S
C7 C8 1.359 . S
C7 C9 1.364 . S
C8 C6 1.374 . S
C8 C7 1.359 . S
C8 H34 0.931 . S
C9 C5 1.389 . S
C9 C7 1.364 . S
C9 H35 0.931 . S
C10 O24 1.256 . S
C10 O25 1.257 . S
C11 O26 1.240 . S
C11 O27 1.240 . S
C12 Gd1 2.818 . S
C12 C13 1.510 . S
C12 O28 1.249 . S
C12 O29 1.252 . S
C13 C12 1.510 . S
C13 C14 1.404 . S
C13 C15 1.352 . S
C14 C13 1.404 . S
C14 C18 1.389 . S
C14 H36 0.930 . S
C15 C13 1.352 . S
C15 C17 1.374 . S
C15 H37 0.931 . S
C16 C17 1.359 . S
C16 C18 1.364 . S
C17 C15 1.374 . S
C17 C16 1.359 . S
C17 H38 0.931 . S
C18 C14 1.389 . S
C18 C16 1.364 . S
C18 H39 0.931 . S
C19 O30 1.256 . S
C19 O31 1.257 . S
O20 Gd0 2.377 . S
O20 C2 1.240 . S
O21 Gd1 2.395 . S
O21 C2 1.240 . S
O22 Gd0 2.448 . S
O22 C3 1.249 . S
O23 Gd0 2.506 . S
O23 C3 1.252 . S
O24 Gd0 2.435 . S
O24 C10 1.256 . S
O25 Gd0 2.717 . S
O25 Gd1 2.327 . S
O25 C10 1.257 . S
O26 Gd1 2.377 . S
O26 C11 1.240 . S
O27 Gd0 2.395 . S
O27 C11 1.240 . S
O28 Gd1 2.448 . S
O28 C12 1.249 . S
O29 Gd1 2.506 . S
O29 C12 1.252 . S
O30 Gd1 2.435 . S
O30 C19 1.256 . S
O31 Gd0 2.327 . S
O31 Gd1 2.717 . S
O31 C19 1.257 . S
H32 C5 0.930 . S
H33 C6 0.931 . S
H34 C8 0.931 . S
H35 C9 0.931 . S
H36 C14 0.930 . S
H37 C15 0.931 . S
H38 C17 0.931 . S
H39 C18 0.931 . S
Gd40 C43 2.818 . S
Gd40 O60 2.377 . S
Gd40 O62 2.448 . S
Gd40 O63 2.506 . S
Gd40 O64 2.435 . S
Gd40 O65 2.717 . S
Gd40 O67 2.395 . S
Gd40 O71 2.327 . S
Gd41 C52 2.818 . S
Gd41 O61 2.395 . S
Gd41 O65 2.327 . S
Gd41 O66 2.377 . S
Gd41 O68 2.448 . S
Gd41 O69 2.506 . S
Gd41 O70 2.435 . S
Gd41 O71 2.717 . S
C42 O60 1.240 . S
C42 O61 1.240 . S
C43 Gd40 2.818 . S
C43 C44 1.510 . S
C43 O62 1.249 . S
C43 O63 1.252 . S
C44 C43 1.510 . S
C44 C45 1.404 . S
C44 C46 1.352 . S
C45 C44 1.404 . S
C45 C49 1.389 . S
C45 H72 0.930 . S
C46 C44 1.352 . S
C46 C48 1.374 . S
C46 H73 0.931 . S
C47 C48 1.359 . S
C47 C49 1.364 . S
C48 C46 1.374 . S
C48 C47 1.359 . S
C48 H74 0.931 . S
C49 C45 1.389 . S
C49 C47 1.364 . S
C49 H75 0.931 . S
C50 O64 1.256 . S
C50 O65 1.257 . S
C51 O66 1.240 . S
C51 O67 1.240 . S
C52 Gd41 2.818 . S
C52 C53 1.510 . S
C52 O68 1.249 . S
C52 O69 1.252 . S
C53 C52 1.510 . S
C53 C54 1.404 . S
C53 C55 1.352 . S
C54 C53 1.404 . S
C54 C58 1.389 . S
C54 H76 0.930 . S
C55 C53 1.352 . S
C55 C57 1.374 . S
C55 H77 0.931 . S
C56 C57 1.359 . S
C56 C58 1.364 . S
C57 C55 1.374 . S
C57 C56 1.359 . S
C57 H78 0.931 . S
C58 C54 1.389 . S
C58 C56 1.364 . S
C58 H79 0.931 . S
C59 O70 1.256 . S
C59 O71 1.257 . S
O60 Gd40 2.377 . S
O60 C42 1.240 . S
O61 Gd41 2.395 . S
O61 C42 1.240 . S
O62 Gd40 2.448 . S
O62 C43 1.249 . S
O63 Gd40 2.506 . S
O63 C43 1.252 . S
O64 Gd40 2.435 . S
O64 C50 1.256 . S
O65 Gd40 2.717 . S
O65 Gd41 2.327 . S
O65 C50 1.257 . S
O66 Gd41 2.377 . S
O66 C51 1.240 . S
O67 Gd40 2.395 . S
O67 C51 1.240 . S
O68 Gd41 2.448 . S
O68 C52 1.249 . S
O69 Gd41 2.506 . S
O69 C52 1.252 . S
O70 Gd41 2.435 . S
O70 C59 1.256 . S
O71 Gd40 2.327 . S
O71 Gd41 2.717 . S
O71 C59 1.257 . S
H72 C45 0.930 . S
H73 C46 0.931 . S
H74 C48 0.931 . S
H75 C49 0.931 . S
H76 C54 0.930 . S
H77 C55 0.931 . S
H78 C57 0.931 . S
H79 C58 0.931 . S
Gd80 C83 2.818 . S
Gd80 O100 2.377 . S
Gd80 O102 2.448 . S
Gd80 O103 2.506 . S
Gd80 O104 2.435 . S
Gd80 O105 2.717 . S
Gd80 O107 2.395 . S
Gd80 O111 2.327 . S
Gd81 C92 2.818 . S
Gd81 O101 2.395 . S
Gd81 O105 2.327 . S
Gd81 O106 2.377 . S
Gd81 O108 2.448 . S
Gd81 O109 2.506 . S
Gd81 O110 2.435 . S
Gd81 O111 2.717 . S
C82 O100 1.240 . S
C82 O101 1.240 . S
C83 Gd80 2.818 . S
C83 C84 1.510 . S
C83 O102 1.249 . S
C83 O103 1.252 . S
C84 C83 1.510 . S
C84 C85 1.404 . S
C84 C86 1.352 . S
C85 C84 1.404 . S
C85 C89 1.389 . S
C85 H112 0.930 . S
C86 C84 1.352 . S
C86 C88 1.374 . S
C86 H113 0.931 . S
C87 C88 1.359 . S
C87 C89 1.364 . S
C88 C86 1.374 . S
C88 C87 1.359 . S
C88 H114 0.931 . S
C89 C85 1.389 . S
C89 C87 1.364 . S
C89 H115 0.931 . S
C90 O104 1.256 . S
C90 O105 1.257 . S
C91 O106 1.240 . S
C91 O107 1.240 . S
C92 Gd81 2.818 . S
C92 C93 1.510 . S
C92 O108 1.249 . S
C92 O109 1.252 . S
C93 C92 1.510 . S
C93 C94 1.404 . S
C93 C95 1.352 . S
C94 C93 1.404 . S
C94 C98 1.389 . S
C94 H116 0.930 . S
C95 C93 1.352 . S
C95 C97 1.374 . S
C95 H117 0.931 . S
C96 C97 1.359 . S
C96 C98 1.364 . S
C97 C95 1.374 . S
C97 C96 1.359 . S
C97 H118 0.931 . S
C98 C94 1.389 . S
C98 C96 1.364 . S
C98 H119 0.931 . S
C99 O110 1.256 . S
C99 O111 1.257 . S
O100 Gd80 2.377 . S
O100 C82 1.240 . S
O101 Gd81 2.395 . S
O101 C82 1.240 . S
O102 Gd80 2.448 . S
O102 C83 1.249 . S
O103 Gd80 2.506 . S
O103 C83 1.252 . S
O104 Gd80 2.435 . S
O104 C90 1.256 . S
O105 Gd80 2.717 . S
O105 Gd81 2.327 . S
O105 C90 1.257 . S
O106 Gd81 2.377 . S
O106 C91 1.240 . S
O107 Gd80 2.395 . S
O107 C91 1.240 . S
O108 Gd81 2.448 . S
O108 C92 1.249 . S
O109 Gd81 2.506 . S
O109 C92 1.252 . S
O110 Gd81 2.435 . S
O110 C99 1.256 . S
O111 Gd80 2.327 . S
O111 Gd81 2.717 . S
O111 C99 1.257 . S
H112 C85 0.930 . S
H113 C86 0.931 . S
H114 C88 0.931 . S
H115 C89 0.931 . S
H116 C94 0.930 . S
H117 C95 0.931 . S
H118 C97 0.931 . S
H119 C98 0.931 . S
Gd120 C123 2.818 . S
Gd120 O140 2.377 . S
Gd120 O142 2.448 . S
Gd120 O143 2.506 . S
Gd120 O144 2.435 . S
Gd120 O145 2.717 . S
Gd120 O147 2.395 . S
Gd120 O151 2.327 . S
Gd121 C132 2.818 1_556 S
Gd121 O141 2.395 . S
Gd121 O145 2.327 . S
Gd121 O146 2.377 . S
Gd121 O148 2.448 . S
Gd121 O149 2.506 . S
Gd121 O150 2.435 . S
Gd121 O151 2.717 . S
C122 O140 1.240 . S
C122 O141 1.240 . S
C123 Gd120 2.818 . S
C123 C124 1.510 . S
C123 O142 1.249 . S
C123 O143 1.252 . S
C124 C123 1.510 . S
C124 C125 1.404 . S
C124 C126 1.352 . S
C125 C124 1.404 . S
C125 C129 1.389 . S
C125 H152 0.930 . S
C126 C124 1.352 . S
C126 C128 1.374 . S
C126 H153 0.931 . S
C127 C128 1.359 . S
C127 C129 1.364 . S
C128 C126 1.374 . S
C128 C127 1.359 . S
C128 H154 0.931 . S
C129 C125 1.389 . S
C129 C127 1.364 . S
C129 H155 0.931 . S
C130 O144 1.256 . S
C130 O145 1.257 . S
C131 O146 1.240 . S
C131 O147 1.240 . S
C132 Gd121 2.818 1_554 S
C132 C133 1.510 . S
C132 O148 1.249 1_554 S
C132 O149 1.252 1_554 S
C133 C132 1.510 . S
C133 C134 1.404 . S
C133 C135 1.352 . S
C134 C133 1.404 . S
C134 C138 1.389 . S
C134 H156 0.930 . S
C135 C133 1.352 . S
C135 C137 1.374 . S
C135 H157 0.931 . S
C136 C137 1.359 . S
C136 C138 1.364 . S
C137 C135 1.374 . S
C137 C136 1.359 . S
C137 H158 0.931 . S
C138 C134 1.389 . S
C138 C136 1.364 . S
C138 H159 0.931 . S
C139 O150 1.256 . S
C139 O151 1.257 . S
O140 Gd120 2.377 . S
O140 C122 1.240 . S
O141 Gd121 2.395 . S
O141 C122 1.240 . S
O142 Gd120 2.448 . S
O142 C123 1.249 . S
O143 Gd120 2.506 . S
O143 C123 1.252 . S
O144 Gd120 2.435 . S
O144 C130 1.256 . S
O145 Gd120 2.717 . S
O145 Gd121 2.327 . S
O145 C130 1.257 . S
O146 Gd121 2.377 . S
O146 C131 1.240 . S
O147 Gd120 2.395 . S
O147 C131 1.240 . S
O148 Gd121 2.448 . S
O148 C132 1.249 1_556 S
O149 Gd121 2.506 . S
O149 C132 1.252 1_556 S
O150 Gd121 2.435 . S
O150 C139 1.256 . S
O151 Gd120 2.327 . S
O151 Gd121 2.717 . S
O151 C139 1.257 . S
H152 C125 0.930 . S
H153 C126 0.931 . S
H154 C128 0.931 . S
H155 C129 0.931 . S
H156 C134 0.930 . S
H157 C135 0.931 . S
H158 C137 0.931 . S
H159 C138 0.931 . S
Gd160 C163 2.818 1_556 S
Gd160 O180 2.377 . S
Gd160 O182 2.448 1_556 S
Gd160 O183 2.506 1_556 S
Gd160 O184 2.435 . S
Gd160 O185 2.717 . S
Gd160 O187 2.395 . S
Gd160 O191 2.327 . S
Gd161 C172 2.818 . S
Gd161 O181 2.395 . S
Gd161 O185 2.327 . S
Gd161 O186 2.377 . S
Gd161 O188 2.448 . S
Gd161 O189 2.506 . S
Gd161 O190 2.435 . S
Gd161 O191 2.717 . S
C162 O180 1.240 . S
C162 O181 1.240 . S
C163 Gd160 2.818 1_554 S
C163 C164 1.510 . S
C163 O182 1.249 . S
C163 O183 1.252 . S
C164 C163 1.510 . S
C164 C165 1.404 . S
C164 C166 1.352 . S
C165 C164 1.404 . S
C165 C169 1.389 . S
C165 H192 0.930 . S
C166 C164 1.352 . S
C166 C168 1.374 . S
C166 H193 0.931 . S
C167 C168 1.359 . S
C167 C169 1.364 . S
C168 C166 1.374 . S
C168 C167 1.359 . S
C168 H194 0.931 . S
C169 C165 1.389 . S
C169 C167 1.364 . S
C169 H195 0.931 . S
C170 O184 1.256 . S
C170 O185 1.257 . S
C171 O186 1.240 . S
C171 O187 1.240 . S
C172 Gd161 2.818 . S
C172 C173 1.510 . S
C172 O188 1.249 . S
C172 O189 1.252 . S
C173 C172 1.510 . S
C173 C174 1.404 . S
C173 C175 1.352 . S
C174 C173 1.404 . S
C174 C178 1.389 . S
C174 H196 0.930 . S
C175 C173 1.352 . S
C175 C177 1.374 . S
C175 H197 0.931 . S
C176 C177 1.359 . S
C176 C178 1.364 . S
C177 C175 1.374 . S
C177 C176 1.359 . S
C177 H198 0.931 . S
C178 C174 1.389 . S
C178 C176 1.364 . S
C178 H199 0.931 . S
C179 O190 1.256 . S
C179 O191 1.257 . S
O180 Gd160 2.377 . S
O180 C162 1.240 . S
O181 Gd161 2.395 . S
O181 C162 1.240 . S
O182 Gd160 2.448 1_554 S
O182 C163 1.249 . S
O183 Gd160 2.506 1_554 S
O183 C163 1.252 . S
O184 Gd160 2.435 . S
O184 C170 1.256 . S
O185 Gd160 2.717 . S
O185 Gd161 2.327 . S
O185 C170 1.257 . S
O186 Gd161 2.377 . S
O186 C171 1.240 . S
O187 Gd160 2.395 . S
O187 C171 1.240 . S
O188 Gd161 2.448 . S
O188 C172 1.249 . S
O189 Gd161 2.506 . S
O189 C172 1.252 . S
O190 Gd161 2.435 . S
O190 C179 1.256 . S
O191 Gd160 2.327 . S
O191 Gd161 2.717 . S
O191 C179 1.257 . S
H192 C165 0.930 . S
H193 C166 0.931 . S
H194 C168 0.931 . S
H195 C169 0.931 . S
H196 C174 0.930 . S
H197 C175 0.931 . S
H198 C177 0.931 . S
H199 C178 0.931 . S
Gd200 C203 2.818 . S
Gd200 O220 2.377 . S
Gd200 O222 2.448 . S
Gd200 O223 2.506 . S
Gd200 O224 2.435 . S
Gd200 O225 2.717 . S
Gd200 O227 2.395 . S
Gd200 O231 2.327 . S
Gd201 C212 2.818 1_554 S
Gd201 O221 2.395 . S
Gd201 O225 2.327 . S
Gd201 O226 2.377 . S
Gd201 O228 2.448 1_554 S
Gd201 O229 2.506 . S
Gd201 O230 2.435 . S
Gd201 O231 2.717 . S
C202 O220 1.240 . S
C202 O221 1.240 . S
C203 Gd200 2.818 . S
C203 C204 1.510 . S
C203 O222 1.249 . S
C203 O223 1.252 . S
C204 C203 1.510 . S
C204 C205 1.404 . S
C204 C206 1.352 . S
C205 C204 1.404 . S
C205 C209 1.389 . S
C205 H232 0.930 . S
C206 C204 1.352 . S
C206 C208 1.374 . S
C206 H233 0.931 . S
C207 C208 1.359 . S
C207 C209 1.364 . S
C208 C206 1.374 . S
C208 C207 1.359 . S
C208 H234 0.931 . S
C209 C205 1.389 . S
C209 C207 1.364 . S
C209 H235 0.931 . S
C210 O224 1.256 . S
C210 O225 1.257 . S
C211 O226 1.240 . S
C211 O227 1.240 . S
C212 Gd201 2.818 1_556 S
C212 C213 1.510 . S
C212 O228 1.249 . S
C212 O229 1.252 1_556 S
C213 C212 1.510 . S
C213 C214 1.404 . S
C213 C215 1.352 . S
C214 C213 1.404 . S
C214 C218 1.389 . S
C214 H236 0.930 . S
C215 C213 1.352 . S
C215 C217 1.374 . S
C215 H237 0.931 . S
C216 C217 1.359 . S
C216 C218 1.364 . S
C217 C215 1.374 . S
C217 C216 1.359 . S
C217 H238 0.931 . S
C218 C214 1.389 . S
C218 C216 1.364 . S
C218 H239 0.931 . S
C219 O230 1.256 . S
C219 O231 1.257 . S
O220 Gd200 2.377 . S
O220 C202 1.240 . S
O221 Gd201 2.395 . S
O221 C202 1.240 . S
O222 Gd200 2.448 . S
O222 C203 1.249 . S
O223 Gd200 2.506 . S
O223 C203 1.252 . S
O224 Gd200 2.435 . S
O224 C210 1.256 . S
O225 Gd200 2.717 . S
O225 Gd201 2.327 . S
O225 C210 1.257 . S
O226 Gd201 2.377 . S
O226 C211 1.240 . S
O227 Gd200 2.395 . S
O227 C211 1.240 . S
O228 Gd201 2.448 1_556 S
O228 C212 1.249 . S
O229 Gd201 2.506 . S
O229 C212 1.252 1_554 S
O230 Gd201 2.435 . S
O230 C219 1.256 . S
O231 Gd200 2.327 . S
O231 Gd201 2.717 . S
O231 C219 1.257 . S
H232 C205 0.930 . S
H233 C206 0.931 . S
H234 C208 0.931 . S
H235 C209 0.931 . S
H236 C214 0.930 . S
H237 C215 0.931 . S
H238 C217 0.931 . S
H239 C218 0.931 . S
Gd240 C243 2.818 . S
Gd240 O260 2.377 . S
Gd240 O262 2.448 . S
Gd240 O263 2.506 . S
Gd240 O264 2.435 . S
Gd240 O265 2.717 . S
Gd240 O267 2.395 . S
Gd240 O271 2.327 . S
Gd241 C252 2.818 . S
Gd241 O261 2.395 . S
Gd241 O265 2.327 . S
Gd241 O266 2.377 . S
Gd241 O268 2.448 . S
Gd241 O269 2.506 . S
Gd241 O270 2.435 . S
Gd241 O271 2.717 . S
C242 O260 1.240 . S
C242 O261 1.240 . S
C243 Gd240 2.818 . S
C243 C244 1.510 . S
C243 O262 1.249 . S
C243 O263 1.252 . S
C244 C243 1.510 . S
C244 C245 1.404 . S
C244 C246 1.352 . S
C245 C244 1.404 . S
C245 C249 1.389 . S
C245 H272 0.930 . S
C246 C244 1.352 . S
C246 C248 1.374 . S
C246 H273 0.931 . S
C247 C248 1.359 . S
C247 C249 1.364 . S
C248 C246 1.374 . S
C248 C247 1.359 . S
C248 H274 0.931 . S
C249 C245 1.389 . S
C249 C247 1.364 . S
C249 H275 0.931 . S
C250 O264 1.256 . S
C250 O265 1.257 . S
C251 O266 1.240 . S
C251 O267 1.240 . S
C252 Gd241 2.818 . S
C252 C253 1.510 . S
C252 O268 1.249 . S
C252 O269 1.252 . S
C253 C252 1.510 . S
C253 C254 1.404 . S
C253 C255 1.352 . S
C254 C253 1.404 . S
C254 C258 1.389 . S
C254 H276 0.930 . S
C255 C253 1.352 . S
C255 C257 1.374 . S
C255 H277 0.931 . S
C256 C257 1.359 . S
C256 C258 1.364 . S
C257 C255 1.374 . S
C257 C256 1.359 . S
C257 H278 0.931 . S
C258 C254 1.389 . S
C258 C256 1.364 . S
C258 H279 0.931 . S
C259 O270 1.256 . S
C259 O271 1.257 . S
O260 Gd240 2.377 . S
O260 C242 1.240 . S
O261 Gd241 2.395 . S
O261 C242 1.240 . S
O262 Gd240 2.448 . S
O262 C243 1.249 . S
O263 Gd240 2.506 . S
O263 C243 1.252 . S
O264 Gd240 2.435 . S
O264 C250 1.256 . S
O265 Gd240 2.717 . S
O265 Gd241 2.327 . S
O265 C250 1.257 . S
O266 Gd241 2.377 . S
O266 C251 1.240 . S
O267 Gd240 2.395 . S
O267 C251 1.240 . S
O268 Gd241 2.448 . S
O268 C252 1.249 . S
O269 Gd241 2.506 . S
O269 C252 1.252 . S
O270 Gd241 2.435 . S
O270 C259 1.256 . S
O271 Gd240 2.327 . S
O271 Gd241 2.717 . S
O271 C259 1.257 . S
H272 C245 0.930 . S
H273 C246 0.931 . S
H274 C248 0.931 . S
H275 C249 0.931 . S
H276 C254 0.930 . S
H277 C255 0.931 . S
H278 C257 0.931 . S
H279 C258 0.931 . S
Gd280 C283 2.818 . S
Gd280 O300 2.377 . S
Gd280 O302 2.448 . S
Gd280 O303 2.506 . S
Gd280 O304 2.435 . S
Gd280 O305 2.717 . S
Gd280 O307 2.395 . S
Gd280 O311 2.327 . S
Gd281 C292 2.818 . S
Gd281 O301 2.395 . S
Gd281 O305 2.327 . S
Gd281 O306 2.377 . S
Gd281 O308 2.448 . S
Gd281 O309 2.506 . S
Gd281 O310 2.435 . S
Gd281 O311 2.717 . S
C282 O300 1.240 . S
C282 O301 1.240 . S
C283 Gd280 2.818 . S
C283 C284 1.510 . S
C283 O302 1.249 . S
C283 O303 1.252 . S
C284 C283 1.510 . S
C284 C285 1.404 . S
C284 C286 1.352 . S
C285 C284 1.404 . S
C285 C289 1.389 . S
C285 H312 0.930 . S
C286 C284 1.352 . S
C286 C288 1.374 . S
C286 H313 0.931 . S
C287 C288 1.359 . S
C287 C289 1.364 . S
C288 C286 1.374 . S
C288 C287 1.359 . S
C288 H314 0.931 . S
C289 C285 1.389 . S
C289 C287 1.364 . S
C289 H315 0.931 . S
C290 O304 1.256 . S
C290 O305 1.257 . S
C291 O306 1.240 . S
C291 O307 1.240 . S
C292 Gd281 2.818 . S
C292 C293 1.510 . S
C292 O308 1.249 . S
C292 O309 1.252 . S
C293 C292 1.510 . S
C293 C294 1.404 . S
C293 C295 1.352 . S
C294 C293 1.404 . S
C294 C298 1.389 . S
C294 H316 0.930 . S
C295 C293 1.352 . S
C295 C297 1.374 . S
C295 H317 0.931 . S
C296 C297 1.359 . S
C296 C298 1.364 . S
C297 C295 1.374 . S
C297 C296 1.359 . S
C297 H318 0.931 . S
C298 C294 1.389 . S
C298 C296 1.364 . S
C298 H319 0.931 . S
C299 O310 1.256 . S
C299 O311 1.257 . S
O300 Gd280 2.377 . S
O300 C282 1.240 . S
O301 Gd281 2.395 . S
O301 C282 1.240 . S
O302 Gd280 2.448 . S
O302 C283 1.249 . S
O303 Gd280 2.506 . S
O303 C283 1.252 . S
O304 Gd280 2.435 . S
O304 C290 1.256 . S
O305 Gd280 2.717 . S
O305 Gd281 2.327 . S
O305 C290 1.257 . S
O306 Gd281 2.377 . S
O306 C291 1.240 . S
O307 Gd280 2.395 . S
O307 C291 1.240 . S
O308 Gd281 2.448 . S
O308 C292 1.249 . S
O309 Gd281 2.506 . S
O309 C292 1.252 . S
O310 Gd281 2.435 . S
O310 C299 1.256 . S
O311 Gd280 2.327 . S
O311 Gd281 2.717 . S
O311 C299 1.257 . S
H312 C285 0.930 . S
H313 C286 0.931 . S
H314 C288 0.931 . S
H315 C289 0.931 . S
H316 C294 0.930 . S
H317 C295 0.931 . S
H318 C297 0.931 . S
H319 C298 0.931 . S
Gd320 C323 2.818 . S
Gd320 O340 2.377 . S
Gd320 O342 2.448 . S
Gd320 O343 2.506 . S
Gd320 O344 2.435 . S
Gd320 O345 2.717 . S
Gd320 O347 2.395 . S
Gd320 O351 2.327 . S
Gd321 C332 2.818 1_556 S
Gd321 O341 2.395 . S
Gd321 O345 2.327 . S
Gd321 O346 2.377 . S
Gd321 O348 2.448 . S
Gd321 O349 2.506 1_556 S
Gd321 O350 2.435 . S
Gd321 O351 2.717 . S
C322 O340 1.240 . S
C322 O341 1.240 . S
C323 Gd320 2.818 . S
C323 C324 1.510 . S
C323 O342 1.249 . S
C323 O343 1.252 . S
C324 C323 1.510 . S
C324 C325 1.404 . S
C324 C326 1.352 . S
C325 C324 1.404 . S
C325 C329 1.389 . S
C325 H352 0.930 . S
C326 C324 1.352 . S
C326 C328 1.374 . S
C326 H353 0.931 . S
C327 C328 1.359 . S
C327 C329 1.364 . S
C328 C326 1.374 . S
C328 C327 1.359 . S
C328 H354 0.931 . S
C329 C325 1.389 . S
C329 C327 1.364 . S
C329 H355 0.931 . S
C330 O344 1.256 . S
C330 O345 1.257 . S
C331 O346 1.240 . S
C331 O347 1.240 . S
C332 Gd321 2.818 1_554 S
C332 C333 1.510 . S
C332 O348 1.249 1_554 S
C332 O349 1.252 . S
C333 C332 1.510 . S
C333 C334 1.404 . S
C333 C335 1.352 . S
C334 C333 1.404 . S
C334 C338 1.389 . S
C334 H356 0.930 . S
C335 C333 1.352 . S
C335 C337 1.374 . S
C335 H357 0.931 . S
C336 C337 1.359 . S
C336 C338 1.364 . S
C337 C335 1.374 . S
C337 C336 1.359 . S
C337 H358 0.931 . S
C338 C334 1.389 . S
C338 C336 1.364 . S
C338 H359 0.931 . S
C339 O350 1.256 . S
C339 O351 1.257 . S
O340 Gd320 2.377 . S
O340 C322 1.240 . S
O341 Gd321 2.395 . S
O341 C322 1.240 . S
O342 Gd320 2.448 . S
O342 C323 1.249 . S
O343 Gd320 2.506 . S
O343 C323 1.252 . S
O344 Gd320 2.435 . S
O344 C330 1.256 . S
O345 Gd320 2.717 . S
O345 Gd321 2.327 . S
O345 C330 1.257 . S
O346 Gd321 2.377 . S
O346 C331 1.240 . S
O347 Gd320 2.395 . S
O347 C331 1.240 . S
O348 Gd321 2.448 . S
O348 C332 1.249 1_556 S
O349 Gd321 2.506 1_554 S
O349 C332 1.252 . S
O350 Gd321 2.435 . S
O350 C339 1.256 . S
O351 Gd320 2.327 . S
O351 Gd321 2.717 . S
O351 C339 1.257 . S
H352 C325 0.930 . S
H353 C326 0.931 . S
H354 C328 0.931 . S
H355 C329 0.931 . S
H356 C334 0.930 . S
H357 C335 0.931 . S
H358 C337 0.931 . S
H359 C338 0.931 . S
Gd360 C363 2.818 . S
Gd360 O380 2.377 . S
Gd360 O382 2.448 . S
Gd360 O383 2.506 . S
Gd360 O384 2.435 . S
Gd360 O385 2.717 . S
Gd360 O387 2.395 . S
Gd360 O391 2.327 . S
Gd361 C372 2.818 . S
Gd361 O381 2.395 . S
Gd361 O385 2.327 . S
Gd361 O386 2.377 . S
Gd361 O388 2.448 . S
Gd361 O389 2.506 . S
Gd361 O390 2.435 . S
Gd361 O391 2.717 . S
C362 O380 1.240 . S
C362 O381 1.240 . S
C363 Gd360 2.818 . S
C363 C364 1.510 . S
C363 O382 1.249 . S
C363 O383 1.252 . S
C364 C363 1.510 . S
C364 C365 1.404 . S
C364 C366 1.352 . S
C365 C364 1.404 . S
C365 C369 1.389 . S
C365 H392 0.930 . S
C366 C364 1.352 . S
C366 C368 1.374 . S
C366 H393 0.931 . S
C367 C368 1.359 . S
C367 C369 1.364 . S
C368 C366 1.374 . S
C368 C367 1.359 . S
C368 H394 0.931 . S
C369 C365 1.389 . S
C369 C367 1.364 . S
C369 H395 0.931 . S
C370 O384 1.256 . S
C370 O385 1.257 . S
C371 O386 1.240 . S
C371 O387 1.240 . S
C372 Gd361 2.818 . S
C372 C373 1.510 . S
C372 O388 1.249 . S
C372 O389 1.252 . S
C373 C372 1.510 . S
C373 C374 1.404 . S
C373 C375 1.352 . S
C374 C373 1.404 . S
C374 C378 1.389 . S
C374 H396 0.930 . S
C375 C373 1.352 . S
C375 C377 1.374 . S
C375 H397 0.931 . S
C376 C377 1.359 . S
C376 C378 1.364 . S
C377 C375 1.374 . S
C377 C376 1.359 . S
C377 H398 0.931 . S
C378 C374 1.389 . S
C378 C376 1.364 . S
C378 H399 0.931 . S
C379 O390 1.256 . S
C379 O391 1.257 . S
O380 Gd360 2.377 . S
O380 C362 1.240 . S
O381 Gd361 2.395 . S
O381 C362 1.240 . S
O382 Gd360 2.448 . S
O382 C363 1.249 . S
O383 Gd360 2.506 . S
O383 C363 1.252 . S
O384 Gd360 2.435 . S
O384 C370 1.256 . S
O385 Gd360 2.717 . S
O385 Gd361 2.327 . S
O385 C370 1.257 . S
O386 Gd361 2.377 . S
O386 C371 1.240 . S
O387 Gd360 2.395 . S
O387 C371 1.240 . S
O388 Gd361 2.448 . S
O388 C372 1.249 . S
O389 Gd361 2.506 . S
O389 C372 1.252 . S
O390 Gd361 2.435 . S
O390 C379 1.256 . S
O391 Gd360 2.327 . S
O391 Gd361 2.717 . S
O391 C379 1.257 . S
H392 C365 0.930 . S
H393 C366 0.931 . S
H394 C368 0.931 . S
H395 C369 0.931 . S
H396 C374 0.930 . S
H397 C375 0.931 . S
H398 C377 0.931 . S
H399 C378 0.931 . S
Gd400 C403 2.818 . S
Gd400 O420 2.377 . S
Gd400 O422 2.448 . S
Gd400 O423 2.506 . S
Gd400 O424 2.435 . S
Gd400 O425 2.717 . S
Gd400 O427 2.395 . S
Gd400 O431 2.327 . S
Gd401 C412 2.818 . S
Gd401 O421 2.395 . S
Gd401 O425 2.327 . S
Gd401 O426 2.377 . S
Gd401 O428 2.448 . S
Gd401 O429 2.506 . S
Gd401 O430 2.435 . S
Gd401 O431 2.717 . S
C402 O420 1.240 . S
C402 O421 1.240 . S
C403 Gd400 2.818 . S
C403 C404 1.510 . S
C403 O422 1.249 . S
C403 O423 1.252 . S
C404 C403 1.510 . S
C404 C405 1.404 . S
C404 C406 1.352 . S
C405 C404 1.404 . S
C405 C409 1.389 . S
C405 H432 0.930 . S
C406 C404 1.352 . S
C406 C408 1.374 . S
C406 H433 0.931 . S
C407 C408 1.359 . S
C407 C409 1.364 . S
C408 C406 1.374 . S
C408 C407 1.359 . S
C408 H434 0.931 . S
C409 C405 1.389 . S
C409 C407 1.364 . S
C409 H435 0.931 . S
C410 O424 1.256 . S
C410 O425 1.257 . S
C411 O426 1.240 . S
C411 O427 1.240 . S
C412 Gd401 2.818 . S
C412 C413 1.510 . S
C412 O428 1.249 . S
C412 O429 1.252 . S
C413 C412 1.510 . S
C413 C414 1.404 . S
C413 C415 1.352 . S
C414 C413 1.404 . S
C414 C418 1.389 . S
C414 H436 0.930 . S
C415 C413 1.352 . S
C415 C417 1.374 . S
C415 H437 0.931 . S
C416 C417 1.359 . S
C416 C418 1.364 . S
C417 C415 1.374 . S
C417 C416 1.359 . S
C417 H438 0.931 . S
C418 C414 1.389 . S
C418 C416 1.364 . S
C418 H439 0.931 . S
C419 O430 1.256 . S
C419 O431 1.257 . S
O420 Gd400 2.377 . S
O420 C402 1.240 . S
O421 Gd401 2.395 . S
O421 C402 1.240 . S
O422 Gd400 2.448 . S
O422 C403 1.249 . S
O423 Gd400 2.506 . S
O423 C403 1.252 . S
O424 Gd400 2.435 . S
O424 C410 1.256 . S
O425 Gd400 2.717 . S
O425 Gd401 2.327 . S
O425 C410 1.257 . S
O426 Gd401 2.377 . S
O426 C411 1.240 . S
O427 Gd400 2.395 . S
O427 C411 1.240 . S
O428 Gd401 2.448 . S
O428 C412 1.249 . S
O429 Gd401 2.506 . S
O429 C412 1.252 . S
O430 Gd401 2.435 . S
O430 C419 1.256 . S
O431 Gd400 2.327 . S
O431 Gd401 2.717 . S
O431 C419 1.257 . S
H432 C405 0.930 . S
H433 C406 0.931 . S
H434 C408 0.931 . S
H435 C409 0.931 . S
H436 C414 0.930 . S
H437 C415 0.931 . S
H438 C417 0.931 . S
H439 C418 0.931 . S
Gd440 C443 2.818 1_554 S
Gd440 O460 2.377 . S
Gd440 O462 2.448 . S
Gd440 O463 2.506 . S
Gd440 O464 2.435 . S
Gd440 O465 2.717 . S
Gd440 O467 2.395 . S
Gd440 O471 2.327 . S
Gd441 C452 2.818 . S
Gd441 O461 2.395 . S
Gd441 O465 2.327 . S
Gd441 O466 2.377 . S
Gd441 O468 2.448 . S
Gd441 O469 2.506 . S
Gd441 O470 2.435 . S
Gd441 O471 2.717 . S
C442 O460 1.240 . S
C442 O461 1.240 . S
C443 Gd440 2.818 1_556 S
C443 C444 1.510 . S
C443 O462 1.249 1_556 S
C443 O463 1.252 1_556 S
C444 C443 1.510 . S
C444 C445 1.404 . S
C444 C446 1.352 . S
C445 C444 1.404 . S
C445 C449 1.389 . S
C445 H472 0.930 . S
C446 C444 1.352 . S
C446 C448 1.374 . S
C446 H473 0.931 . S
C447 C448 1.359 . S
C447 C449 1.364 . S
C448 C446 1.374 . S
C448 C447 1.359 . S
C448 H474 0.931 . S
C449 C445 1.389 . S
C449 C447 1.364 . S
C449 H475 0.931 . S
C450 O464 1.256 . S
C450 O465 1.257 . S
C451 O466 1.240 . S
C451 O467 1.240 . S
C452 Gd441 2.818 . S
C452 C453 1.510 . S
C452 O468 1.249 . S
C452 O469 1.252 . S
C453 C452 1.510 . S
C453 C454 1.404 . S
C453 C455 1.352 . S
C454 C453 1.404 . S
C454 C458 1.389 . S
C454 H476 0.930 . S
C455 C453 1.352 . S
C455 C457 1.374 . S
C455 H477 0.931 . S
C456 C457 1.359 . S
C456 C458 1.364 . S
C457 C455 1.374 . S
C457 C456 1.359 . S
C457 H478 0.931 . S
C458 C454 1.389 . S
C458 C456 1.364 . S
C458 H479 0.931 . S
C459 O470 1.256 . S
C459 O471 1.257 . S
O460 Gd440 2.377 . S
O460 C442 1.240 . S
O461 Gd441 2.395 . S
O461 C442 1.240 . S
O462 Gd440 2.448 . S
O462 C443 1.249 1_554 S
O463 Gd440 2.506 . S
O463 C443 1.252 1_554 S
O464 Gd440 2.435 . S
O464 C450 1.256 . S
O465 Gd440 2.717 . S
O465 Gd441 2.327 . S
O465 C450 1.257 . S
O466 Gd441 2.377 . S
O466 C451 1.240 . S
O467 Gd440 2.395 . S
O467 C451 1.240 . S
O468 Gd441 2.448 . S
O468 C452 1.249 . S
O469 Gd441 2.506 . S
O469 C452 1.252 . S
O470 Gd441 2.435 . S
O470 C459 1.256 . S
O471 Gd440 2.327 . S
O471 Gd441 2.717 . S
O471 C459 1.257 . S
H472 C445 0.930 . S
H473 C446 0.931 . S
H474 C448 0.931 . S
H475 C449 0.931 . S
H476 C454 0.930 . S
H477 C455 0.931 . S
H478 C457 0.931 . S
H479 C458 0.931 . S
Gd480 C483 2.818 . S
Gd480 O500 2.377 . S
Gd480 O502 2.448 . S
Gd480 O503 2.506 . S
Gd480 O504 2.435 . S
Gd480 O505 2.717 . S
Gd480 O507 2.395 . S
Gd480 O511 2.327 . S
Gd481 C492 2.818 1_554 S
Gd481 O501 2.395 . S
Gd481 O505 2.327 . S
Gd481 O506 2.377 . S
Gd481 O508 2.448 . S
Gd481 O509 2.506 . S
Gd481 O510 2.435 . S
Gd481 O511 2.717 . S
C482 O500 1.240 . S
C482 O501 1.240 . S
C483 Gd480 2.818 . S
C483 C484 1.510 . S
C483 O502 1.249 . S
C483 O503 1.252 . S
C484 C483 1.510 . S
C484 C485 1.404 . S
C484 C486 1.352 . S
C485 C484 1.404 . S
C485 C489 1.389 . S
C485 H512 0.930 . S
C486 C484 1.352 . S
C486 C488 1.374 . S
C486 H513 0.931 . S
C487 C488 1.359 . S
C487 C489 1.364 . S
C488 C486 1.374 . S
C488 C487 1.359 . S
C488 H514 0.931 . S
C489 C485 1.389 . S
C489 C487 1.364 . S
C489 H515 0.931 . S
C490 O504 1.256 . S
C490 O505 1.257 . S
C491 O506 1.240 . S
C491 O507 1.240 . S
C492 Gd481 2.818 1_556 S
C492 C493 1.510 . S
C492 O508 1.249 1_556 S
C492 O509 1.252 1_556 S
C493 C492 1.510 . S
C493 C494 1.404 . S
C493 C495 1.352 . S
C494 C493 1.404 . S
C494 C498 1.389 . S
C494 H516 0.930 . S
C495 C493 1.352 . S
C495 C497 1.374 . S
C495 H517 0.931 . S
C496 C497 1.359 . S
C496 C498 1.364 . S
C497 C495 1.374 . S
C497 C496 1.359 . S
C497 H518 0.931 . S
C498 C494 1.389 . S
C498 C496 1.364 . S
C498 H519 0.931 . S
C499 O510 1.256 . S
C499 O511 1.257 . S
O500 Gd480 2.377 . S
O500 C482 1.240 . S
O501 Gd481 2.395 . S
O501 C482 1.240 . S
O502 Gd480 2.448 . S
O502 C483 1.249 . S
O503 Gd480 2.506 . S
O503 C483 1.252 . S
O504 Gd480 2.435 . S
O504 C490 1.256 . S
O505 Gd480 2.717 . S
O505 Gd481 2.327 . S
O505 C490 1.257 . S
O506 Gd481 2.377 . S
O506 C491 1.240 . S
O507 Gd480 2.395 . S
O507 C491 1.240 . S
O508 Gd481 2.448 . S
O508 C492 1.249 1_554 S
O509 Gd481 2.506 . S
O509 C492 1.252 1_554 S
O510 Gd481 2.435 . S
O510 C499 1.256 . S
O511 Gd480 2.327 . S
O511 Gd481 2.717 . S
O511 C499 1.257 . S
H512 C485 0.930 . S
H513 C486 0.931 . S
H514 C488 0.931 . S
H515 C489 0.931 . S
H516 C494 0.930 . S
H517 C495 0.931 . S
H518 C497 0.931 . S
H519 C498 0.931 . S
Gd520 C523 2.818 1_556 S
Gd520 O540 2.377 . S
Gd520 O542 2.448 1_556 S
Gd520 O543 2.506 . S
Gd520 O544 2.435 . S
Gd520 O545 2.717 . S
Gd520 O547 2.395 . S
Gd520 O551 2.327 . S
Gd521 C532 2.818 . S
Gd521 O541 2.395 . S
Gd521 O545 2.327 . S
Gd521 O546 2.377 . S
Gd521 O548 2.448 . S
Gd521 O549 2.506 . S
Gd521 O550 2.435 . S
Gd521 O551 2.717 . S
C522 O540 1.240 . S
C522 O541 1.240 . S
C523 Gd520 2.818 1_554 S
C523 C524 1.510 . S
C523 O542 1.249 . S
C523 O543 1.252 1_554 S
C524 C523 1.510 . S
C524 C525 1.404 . S
C524 C526 1.352 . S
C525 C524 1.404 . S
C525 C529 1.389 . S
C525 H552 0.930 . S
C526 C524 1.352 . S
C526 C528 1.374 . S
C526 H553 0.931 . S
C527 C528 1.359 . S
C527 C529 1.364 . S
C528 C526 1.374 . S
C528 C527 1.359 . S
C528 H554 0.931 . S
C529 C525 1.389 . S
C529 C527 1.364 . S
C529 H555 0.931 . S
C530 O544 1.256 . S
C530 O545 1.257 . S
C531 O546 1.240 . S
C531 O547 1.240 . S
C532 Gd521 2.818 . S
C532 C533 1.510 . S
C532 O548 1.249 . S
C532 O549 1.252 . S
C533 C532 1.510 . S
C533 C534 1.404 . S
C533 C535 1.352 . S
C534 C533 1.404 . S
C534 C538 1.389 . S
C534 H556 0.930 . S
C535 C533 1.352 . S
C535 C537 1.374 . S
C535 H557 0.931 . S
C536 C537 1.359 . S
C536 C538 1.364 . S
C537 C535 1.374 . S
C537 C536 1.359 . S
C537 H558 0.931 . S
C538 C534 1.389 . S
C538 C536 1.364 . S
C538 H559 0.931 . S
C539 O550 1.256 . S
C539 O551 1.257 . S
O540 Gd520 2.377 . S
O540 C522 1.240 . S
O541 Gd521 2.395 . S
O541 C522 1.240 . S
O542 Gd520 2.448 1_554 S
O542 C523 1.249 . S
O543 Gd520 2.506 . S
O543 C523 1.252 1_556 S
O544 Gd520 2.435 . S
O544 C530 1.256 . S
O545 Gd520 2.717 . S
O545 Gd521 2.327 . S
O545 C530 1.257 . S
O546 Gd521 2.377 . S
O546 C531 1.240 . S
O547 Gd520 2.395 . S
O547 C531 1.240 . S
O548 Gd521 2.448 . S
O548 C532 1.249 . S
O549 Gd521 2.506 . S
O549 C532 1.252 . S
O550 Gd521 2.435 . S
O550 C539 1.256 . S
O551 Gd520 2.327 . S
O551 Gd521 2.717 . S
O551 C539 1.257 . S
H552 C525 0.930 . S
H553 C526 0.931 . S
H554 C528 0.931 . S
H555 C529 0.931 . S
H556 C534 0.930 . S
H557 C535 0.931 . S
H558 C537 0.931 . S
H559 C538 0.931 . S
Gd560 C563 2.818 . S
Gd560 O580 2.377 . S
Gd560 O582 2.448 . S
Gd560 O583 2.506 . S
Gd560 O584 2.435 . S
Gd560 O585 2.717 . S
Gd560 O587 2.395 . S
Gd560 O591 2.327 . S
Gd561 C572 2.818 . S
Gd561 O581 2.395 . S
Gd561 O585 2.327 . S
Gd561 O586 2.377 . S
Gd561 O588 2.448 . S
Gd561 O589 2.506 . S
Gd561 O590 2.435 . S
Gd561 O591 2.717 . S
C562 O580 1.240 . S
C562 O581 1.240 . S
C563 Gd560 2.818 . S
C563 C564 1.510 . S
C563 O582 1.249 . S
C563 O583 1.252 . S
C564 C563 1.510 . S
C564 C565 1.404 . S
C564 C566 1.352 . S
C565 C564 1.404 . S
C565 C569 1.389 . S
C565 H592 0.930 . S
C566 C564 1.352 . S
C566 C568 1.374 . S
C566 H593 0.931 . S
C567 C568 1.359 . S
C567 C569 1.364 . S
C568 C566 1.374 . S
C568 C567 1.359 . S
C568 H594 0.931 . S
C569 C565 1.389 . S
C569 C567 1.364 . S
C569 H595 0.931 . S
C570 O584 1.256 . S
C570 O585 1.257 . S
C571 O586 1.240 . S
C571 O587 1.240 . S
C572 Gd561 2.818 . S
C572 C573 1.510 . S
C572 O588 1.249 . S
C572 O589 1.252 . S
C573 C572 1.510 . S
C573 C574 1.404 . S
C573 C575 1.352 . S
C574 C573 1.404 . S
C574 C578 1.389 . S
C574 H596 0.930 . S
C575 C573 1.352 . S
C575 C577 1.374 . S
C575 H597 0.931 . S
C576 C577 1.359 . S
C576 C578 1.364 . S
C577 C575 1.374 . S
C577 C576 1.359 . S
C577 H598 0.931 . S
C578 C574 1.389 . S
C578 C576 1.364 . S
C578 H599 0.931 . S
C579 O590 1.256 . S
C579 O591 1.257 . S
O580 Gd560 2.377 . S
O580 C562 1.240 . S
O581 Gd561 2.395 . S
O581 C562 1.240 . S
O582 Gd560 2.448 . S
O582 C563 1.249 . S
O583 Gd560 2.506 . S
O583 C563 1.252 . S
O584 Gd560 2.435 . S
O584 C570 1.256 . S
O585 Gd560 2.717 . S
O585 Gd561 2.327 . S
O585 C570 1.257 . S
O586 Gd561 2.377 . S
O586 C571 1.240 . S
O587 Gd560 2.395 . S
O587 C571 1.240 . S
O588 Gd561 2.448 . S
O588 C572 1.249 . S
O589 Gd561 2.506 . S
O589 C572 1.252 . S
O590 Gd561 2.435 . S
O590 C579 1.256 . S
O591 Gd560 2.327 . S
O591 Gd561 2.717 . S
O591 C579 1.257 . S
H592 C565 0.930 . S
H593 C566 0.931 . S
H594 C568 0.931 . S
H595 C569 0.931 . S
H596 C574 0.930 . S
H597 C575 0.931 . S
H598 C577 0.931 . S
H599 C578 0.931 . S
Gd600 C603 2.818 . S
Gd600 O620 2.377 . S
Gd600 O622 2.448 . S
Gd600 O623 2.506 . S
Gd600 O624 2.435 . S
Gd600 O625 2.717 . S
Gd600 O627 2.395 . S
Gd600 O631 2.327 . S
Gd601 C612 2.818 . S
Gd601 O621 2.395 . S
Gd601 O625 2.327 . S
Gd601 O626 2.377 . S
Gd601 O628 2.448 . S
Gd601 O629 2.506 . S
Gd601 O630 2.435 . S
Gd601 O631 2.717 . S
C602 O620 1.240 . S
C602 O621 1.240 . S
C603 Gd600 2.818 . S
C603 C604 1.510 . S
C603 O622 1.249 . S
C603 O623 1.252 . S
C604 C603 1.510 . S
C604 C605 1.404 . S
C604 C606 1.352 . S
C605 C604 1.404 . S
C605 C609 1.389 . S
C605 H632 0.930 . S
C606 C604 1.352 . S
C606 C608 1.374 . S
C606 H633 0.931 . S
C607 C608 1.359 . S
C607 C609 1.364 . S
C608 C606 1.374 . S
C608 C607 1.359 . S
C608 H634 0.931 . S
C609 C605 1.389 . S
C609 C607 1.364 . S
C609 H635 0.931 . S
C610 O624 1.256 . S
C610 O625 1.257 . S
C611 O626 1.240 . S
C611 O627 1.240 . S
C612 Gd601 2.818 . S
C612 C613 1.510 . S
C612 O628 1.249 . S
C612 O629 1.252 . S
C613 C612 1.510 . S
C613 C614 1.404 . S
C613 C615 1.352 . S
C614 C613 1.404 . S
C614 C618 1.389 . S
C614 H636 0.930 . S
C615 C613 1.352 . S
C615 C617 1.374 . S
C615 H637 0.931 . S
C616 C617 1.359 . S
C616 C618 1.364 . S
C617 C615 1.374 . S
C617 C616 1.359 . S
C617 H638 0.931 . S
C618 C614 1.389 . S
C618 C616 1.364 . S
C618 H639 0.931 . S
C619 O630 1.256 . S
C619 O631 1.257 . S
O620 Gd600 2.377 . S
O620 C602 1.240 . S
O621 Gd601 2.395 . S
O621 C602 1.240 . S
O622 Gd600 2.448 . S
O622 C603 1.249 . S
O623 Gd600 2.506 . S
O623 C603 1.252 . S
O624 Gd600 2.435 . S
O624 C610 1.256 . S
O625 Gd600 2.717 . S
O625 Gd601 2.327 . S
O625 C610 1.257 . S
O626 Gd601 2.377 . S
O626 C611 1.240 . S
O627 Gd600 2.395 . S
O627 C611 1.240 . S
O628 Gd601 2.448 . S
O628 C612 1.249 . S
O629 Gd601 2.506 . S
O629 C612 1.252 . S
O630 Gd601 2.435 . S
O630 C619 1.256 . S
O631 Gd600 2.327 . S
O631 Gd601 2.717 . S
O631 C619 1.257 . S
H632 C605 0.930 . S
H633 C606 0.931 . S
H634 C608 0.931 . S
H635 C609 0.931 . S
H636 C614 0.930 . S
H637 C615 0.931 . S
H638 C617 0.931 . S
H639 C618 0.931 . S
C640 C641 1.349 . S
C640 C642 1.327 . S
C640 H665 0.950 . S
C641 C640 1.349 . S
C641 C657 1.349 . S
C642 C640 1.327 . S
C642 C661 1.429 . S
C642 H666 0.950 . S
C643 C660 1.574 . S
C643 C662 1.368 . S
C643 H667 0.949 . S
H644 C648 0.949 . S
C645 C646 1.349 . S
C645 C647 1.327 . S
C645 H668 0.950 . S
C646 C645 1.349 . S
C646 C658 1.349 . S
C647 C645 1.327 . S
C647 C663 1.429 . S
C647 H669 0.950 . S
C648 H644 0.949 . S
C648 C656 1.574 . S
C648 C664 1.368 . S
H649 C657 0.950 . S
H650 C655 0.950 . S
H651 C656 0.949 . S
H652 C658 0.950 . S
H653 C659 0.950 . S
H654 C660 0.949 . S
C655 H650 0.950 . S
C655 C657 1.327 . S
C655 C661 1.429 . S
C656 C648 1.574 . S
C656 H651 0.949 . S
C656 C662 1.368 . S
C657 C641 1.349 . S
C657 H649 0.950 . S
C657 C655 1.327 . S
C658 C646 1.349 . S
C658 H652 0.950 . S
C658 C659 1.327 . S
C659 H653 0.950 . S
C659 C658 1.327 . S
C659 C663 1.429 . S
C660 C643 1.574 . S
C660 H654 0.949 . S
C660 C664 1.368 . S
C661 C642 1.429 . S
C661 C655 1.429 . S
C661 C662 1.523 . S
C662 C643 1.368 . S
C662 C656 1.368 . S
C662 C661 1.523 . S
C663 C647 1.429 . S
C663 C659 1.429 . S
C663 C664 1.523 . S
C664 C648 1.368 . S
C664 C660 1.368 . S
C664 C663 1.523 . S
H665 C640 0.950 . S
H666 C642 0.950 . S
H667 C643 0.949 . S
H668 C645 0.950 . S
H669 C647 0.950 . S
C670 C671 1.349 . S
C670 C672 1.327 1_554 S
C670 H695 0.950 . S
C671 C670 1.349 . S
C671 C687 1.349 . S
C672 C670 1.327 1_556 S
C672 C691 1.429 . S
C672 H696 0.950 . S
C673 C690 1.574 . S
C673 C692 1.368 . S
C673 H697 0.949 . S
H674 C678 0.949 . S
C675 C676 1.349 . S
C675 C677 1.327 . S
C675 H698 0.950 . S
C676 C675 1.349 . S
C676 C688 1.349 . S
C677 C675 1.327 . S
C677 C693 1.429 . S
C677 H699 0.950 . S
C678 H674 0.949 . S
C678 C686 1.574 . S
C678 C694 1.368 . S
H679 C687 0.950 . S
H680 C685 0.950 . S
H681 C686 0.949 . S
H682 C688 0.950 . S
H683 C689 0.950 . S
H684 C690 0.949 . S
C685 H680 0.950 . S
C685 C687 1.327 1_556 S
C685 C691 1.429 . S
C686 C678 1.574 . S
C686 H681 0.949 . S
C686 C692 1.368 . S
C687 C671 1.349 . S
C687 H679 0.950 . S
C687 C685 1.327 1_554 S
C688 C676 1.349 . S
C688 H682 0.950 . S
C688 C689 1.327 . S
C689 H683 0.950 . S
C689 C688 1.327 . S
C689 C693 1.429 . S
C690 C673 1.574 . S
C690 H684 0.949 . S
C690 C694 1.368 . S
C691 C672 1.429 . S
C691 C685 1.429 . S
C691 C692 1.523 . S
C692 C673 1.368 . S
C692 C686 1.368 . S
C692 C691 1.523 . S
C693 C677 1.429 . S
C693 C689 1.429 . S
C693 C694 1.523 . S
C694 C678 1.368 . S
C694 C690 1.368 . S
C694 C693 1.523 . S
H695 C670 0.950 . S
H696 C672 0.950 . S
H697 C673 0.949 . S
H698 C675 0.950 . S
H699 C677 0.950 . S
C700 C701 1.349 . S
C700 C702 1.327 . S
C700 H725 0.950 . S
C701 C700 1.349 . S
C701 C717 1.349 . S
C702 C700 1.327 . S
C702 C721 1.429 . S
C702 H726 0.950 . S
C703 C720 1.574 . S
C703 C722 1.368 . S
C703 H727 0.949 . S
H704 C708 0.949 . S
C705 C706 1.349 . S
C705 C707 1.327 1_556 S
C705 H728 0.950 . S
C706 C705 1.349 . S
C706 C718 1.349 . S
C707 C705 1.327 1_554 S
C707 C723 1.429 . S
C707 H729 0.950 . S
C708 H704 0.949 . S
C708 C716 1.574 . S
C708 C724 1.368 . S
H709 C717 0.950 . S
H710 C715 0.950 . S
H711 C716 0.949 . S
H712 C718 0.950 . S
H713 C719 0.950 . S
H714 C720 0.949 . S
C715 H710 0.950 . S
C715 C717 1.327 . S
C715 C721 1.429 . S
C716 C708 1.574 . S
C716 H711 0.949 . S
C716 C722 1.368 . S
C717 C701 1.349 . S
C717 H709 0.950 . S
C717 C715 1.327 . S
C718 C706 1.349 . S
C718 H712 0.950 . S
C718 C719 1.327 1_556 S
C719 H713 0.950 . S
C719 C718 1.327 1_554 S
C719 C723 1.429 . S
C720 C703 1.574 . S
C720 H714 0.949 . S
C720 C724 1.368 . S
C721 C702 1.429 . S
C721 C715 1.429 . S
C721 C722 1.523 . S
C722 C703 1.368 . S
C722 C716 1.368 . S
C722 C721 1.523 . S
C723 C707 1.429 . S
C723 C719 1.429 . S
C723 C724 1.523 . S
C724 C708 1.368 . S
C724 C720 1.368 . S
C724 C723 1.523 . S
H725 C700 0.950 . S
H726 C702 0.950 . S
H727 C703 0.949 . S
H728 C705 0.950 . S
H729 C707 0.950 . S
C730 C731 1.349 . S
C730 C732 1.327 . S
C730 H755 0.950 . S
C731 C730 1.349 . S
C731 C747 1.349 . S
C732 C730 1.327 . S
C732 C751 1.429 . S
C732 H756 0.950 . S
C733 C750 1.574 . S
C733 C752 1.368 . S
C733 H757 0.949 . S
H734 C738 0.949 . S
C735 C736 1.349 . S
C735 C737 1.327 . S
C735 H758 0.950 . S
C736 C735 1.349 . S
C736 C748 1.349 . S
C737 C735 1.327 . S
C737 C753 1.429 . S
C737 H759 0.950 . S
C738 H734 0.949 . S
C738 C746 1.574 . S
C738 C754 1.368 . S
H739 C747 0.950 . S
H740 C745 0.950 . S
H741 C746 0.949 . S
H742 C748 0.950 . S
H743 C749 0.950 . S
H744 C750 0.949 . S
C745 H740 0.950 . S
C745 C747 1.327 . S
C745 C751 1.429 . S
C746 C738 1.574 . S
C746 H741 0.949 . S
C746 C752 1.368 . S
C747 C731 1.349 . S
C747 H739 0.950 . S
C747 C745 1.327 . S
C748 C736 1.349 . S
C748 H742 0.950 . S
C748 C749 1.327 . S
C749 H743 0.950 . S
C749 C748 1.327 . S
C749 C753 1.429 . S
C750 C733 1.574 . S
C750 H744 0.949 . S
C750 C754 1.368 . S
C751 C732 1.429 . S
C751 C745 1.429 . S
C751 C752 1.523 . S
C752 C733 1.368 . S
C752 C746 1.368 . S
C752 C751 1.523 . S
C753 C737 1.429 . S
C753 C749 1.429 . S
C753 C754 1.523 . S
C754 C738 1.368 . S
C754 C750 1.368 . S
C754 C753 1.523 . S
H755 C730 0.950 . S
H756 C732 0.950 . S
H757 C733 0.949 . S
H758 C735 0.950 . S
H759 C737 0.950 . S
C760 C761 1.349 . S
C760 C762 1.327 . S
C760 H785 0.950 . S
C761 C760 1.349 . S
C761 C777 1.349 . S
C762 C760 1.327 . S
C762 C781 1.429 . S
C762 H786 0.950 . S
C763 C780 1.574 . S
C763 C782 1.368 . S
C763 H787 0.949 . S
H764 C768 0.949 . S
C765 C766 1.349 . S
C765 C767 1.327 . S
C765 H788 0.950 . S
C766 C765 1.349 . S
C766 C778 1.349 . S
C767 C765 1.327 . S
C767 C783 1.429 . S
C767 H789 0.950 . S
C768 H764 0.949 . S
C768 C776 1.574 . S
C768 C784 1.368 . S
H769 C777 0.950 . S
H770 C775 0.950 . S
H771 C776 0.949 . S
H772 C778 0.950 . S
H773 C779 0.950 . S
H774 C780 0.949 . S
C775 H770 0.950 . S
C775 C777 1.327 . S
C775 C781 1.429 . S
C776 C768 1.574 . S
C776 H771 0.949 . S
C776 C782 1.368 . S
C777 C761 1.349 . S
C777 H769 0.950 . S
C777 C775 1.327 . S
C778 C766 1.349 . S
C778 H772 0.950 . S
C778 C779 1.327 . S
C779 H773 0.950 . S
C779 C778 1.327 . S
C779 C783 1.429 . S
C780 C763 1.574 . S
C780 H774 0.949 . S
C780 C784 1.368 . S
C781 C762 1.429 . S
C781 C775 1.429 . S
C781 C782 1.523 . S
C782 C763 1.368 . S
C782 C776 1.368 . S
C782 C781 1.523 . S
C783 C767 1.429 . S
C783 C779 1.429 . S
C783 C784 1.523 . S
C784 C768 1.368 . S
C784 C780 1.368 . S
C784 C783 1.523 . S
H785 C760 0.950 . S
H786 C762 0.950 . S
H787 C763 0.949 . S
H788 C765 0.950 . S
H789 C767 0.950 . S
C790 C791 1.349 . S
C790 C792 1.327 . S
C790 H815 0.950 . S
C791 C790 1.349 . S
C791 C807 1.349 . S
C792 C790 1.327 . S
C792 C811 1.429 . S
C792 H816 0.950 . S
C793 C810 1.574 . S
C793 C812 1.368 . S
C793 H817 0.949 . S
H794 C798 0.949 . S
C795 C796 1.349 . S
C795 C797 1.327 . S
C795 H818 0.950 . S
C796 C795 1.349 . S
C796 C808 1.349 . S
C797 C795 1.327 . S
C797 C813 1.429 . S
C797 H819 0.950 . S
C798 H794 0.949 . S
C798 C806 1.574 . S
C798 C814 1.368 . S
H799 C807 0.950 . S
H800 C805 0.950 . S
H801 C806 0.949 . S
H802 C808 0.950 . S
H803 C809 0.950 . S
H804 C810 0.949 . S
C805 H800 0.950 . S
C805 C807 1.327 . S
C805 C811 1.429 . S
C806 C798 1.574 . S
C806 H801 0.949 . S
C806 C812 1.368 . S
C807 C791 1.349 . S
C807 H799 0.950 . S
C807 C805 1.327 . S
C808 C796 1.349 . S
C808 H802 0.950 . S
C808 C809 1.327 . S
C809 H803 0.950 . S
C809 C808 1.327 . S
C809 C813 1.429 . S
C810 C793 1.574 . S
C810 H804 0.949 . S
C810 C814 1.368 . S
C811 C792 1.429 . S
C811 C805 1.429 . S
C811 C812 1.523 . S
C812 C793 1.368 . S
C812 C806 1.368 . S
C812 C811 1.523 . S
C813 C797 1.429 . S
C813 C809 1.429 . S
C813 C814 1.523 . S
C814 C798 1.368 . S
C814 C810 1.368 . S
C814 C813 1.523 . S
H815 C790 0.950 . S
H816 C792 0.950 . S
H817 C793 0.949 . S
H818 C795 0.950 . S
H819 C797 0.950 . S
C820 C821 1.349 . S
C820 C822 1.327 . S
C820 H845 0.950 . S
C821 C820 1.349 . S
C821 C837 1.349 . S
C822 C820 1.327 . S
C822 C841 1.429 . S
C822 H846 0.950 . S
C823 C840 1.574 . S
C823 C842 1.368 . S
C823 H847 0.949 . S
H824 C828 0.949 . S
C825 C826 1.349 . S
C825 C827 1.327 . S
C825 H848 0.950 . S
C826 C825 1.349 . S
C826 C838 1.349 . S
C827 C825 1.327 . S
C827 C843 1.429 . S
C827 H849 0.950 . S
C828 H824 0.949 . S
C828 C836 1.574 . S
C828 C844 1.368 . S
H829 C837 0.950 . S
H830 C835 0.950 . S
H831 C836 0.949 . S
H832 C838 0.950 . S
H833 C839 0.950 . S
H834 C840 0.949 . S
C835 H830 0.950 . S
C835 C837 1.327 . S
C835 C841 1.429 . S
C836 C828 1.574 . S
C836 H831 0.949 . S
C836 C842 1.368 . S
C837 C821 1.349 . S
C837 H829 0.950 . S
C837 C835 1.327 . S
C838 C826 1.349 . S
C838 H832 0.950 . S
C838 C839 1.327 . S
C839 H833 0.950 . S
C839 C838 1.327 . S
C839 C843 1.429 . S
C840 C823 1.574 . S
C840 H834 0.949 . S
C840 C844 1.368 . S
C841 C822 1.429 . S
C841 C835 1.429 . S
C841 C842 1.523 . S
C842 C823 1.368 . S
C842 C836 1.368 . S
C842 C841 1.523 . S
C843 C827 1.429 . S
C843 C839 1.429 . S
C843 C844 1.523 1_554 S
C844 C828 1.368 . S
C844 C840 1.368 . S
C844 C843 1.523 1_556 S
H845 C820 0.950 . S
H846 C822 0.950 . S
H847 C823 0.949 . S
H848 C825 0.950 . S
H849 C827 0.950 . S
C850 C851 1.349 . S
C850 C852 1.306 1_556 S
C850 H875 0.950 . S
C851 C850 1.349 . S
C851 C867 1.349 . S
C852 C850 1.306 1_554 S
C852 C871 1.436 . S
C852 H876 0.964 . S
C853 C870 1.574 . S
C853 C872 1.368 . S
C853 H877 0.949 . S
H854 C858 0.949 . S
C855 C856 1.349 . S
C855 C857 1.327 . S
C855 H878 0.950 . S
C856 C855 1.349 . S
C856 C868 1.349 . S
C857 C855 1.327 . S
C857 C873 1.429 . S
C857 H879 0.950 . S
C858 H854 0.949 . S
C858 C866 1.574 . S
C858 C874 1.368 . S
H859 C867 0.950 . S
H860 C865 0.950 . S
H861 C866 0.949 . S
H862 C868 0.950 . S
H863 C869 0.950 . S
H864 C870 0.949 . S
C865 H860 0.950 . S
C865 C867 1.327 . S
C865 C871 1.429 1_556 S
C866 C858 1.574 . S
C866 H861 0.949 . S
C866 C872 1.368 . S
C867 C851 1.349 . S
C867 H859 0.950 . S
C867 C865 1.327 . S
C868 C856 1.349 . S
C868 H862 0.950 . S
C868 C869 1.327 . S
C869 H863 0.950 . S
C869 C868 1.327 . S
C869 C873 1.429 . S
C870 C853 1.574 . S
C870 H864 0.949 . S
C870 C874 1.368 . S
C871 C852 1.436 . S
C871 C865 1.429 1_554 S
C871 C872 1.523 . S
C872 C853 1.368 . S
C872 C866 1.368 . S
C872 C871 1.523 . S
C873 C857 1.429 . S
C873 C869 1.429 . S
C873 C874 1.523 . S
C874 C858 1.368 . S
C874 C870 1.368 . S
C874 C873 1.523 . S
H875 C850 0.950 . S
H876 C852 0.964 . S
H877 C853 0.949 . S
H878 C855 0.950 . S
H879 C857 0.950 . S
C880 C881 1.349 . S
C880 C882 1.327 . S
C880 H905 0.950 . S
C881 C880 1.349 . S
C881 C897 1.349 . S
C882 C880 1.327 . S
C882 C901 1.429 . S
C882 H906 0.950 . S
C883 C900 1.574 . S
C883 C902 1.368 . S
C883 H907 0.949 . S
H884 C888 0.949 . S
C885 C886 1.349 . S
C885 C887 1.327 . S
C885 H908 0.950 . S
C886 C885 1.349 . S
C886 C898 1.349 . S
C887 C885 1.327 . S
C887 C903 1.429 . S
C887 H909 0.950 . S
C888 H884 0.949 . S
C888 C896 1.574 . S
C888 C904 1.368 . S
H889 C897 0.950 . S
H890 C895 0.950 . S
H891 C896 0.949 . S
H892 C898 0.950 . S
H893 C899 0.950 . S
H894 C900 0.949 . S
C895 H890 0.950 . S
C895 C897 1.327 . S
C895 C901 1.429 . S
C896 C888 1.574 . S
C896 H891 0.949 . S
C896 C902 1.368 . S
C897 C881 1.349 . S
C897 H889 0.950 . S
C897 C895 1.327 . S
C898 C886 1.349 . S
C898 H892 0.950 . S
C898 C899 1.327 . S
C899 H893 0.950 . S
C899 C898 1.327 . S
C899 C903 1.429 . S
C900 C883 1.574 . S
C900 H894 0.949 . S
C900 C904 1.368 . S
C901 C882 1.429 . S
C901 C895 1.429 . S
C901 C902 1.523 . S
C902 C883 1.368 . S
C902 C896 1.368 . S
C902 C901 1.523 . S
C903 C887 1.429 . S
C903 C899 1.429 . S
C903 C904 1.523 . S
C904 C888 1.368 . S
C904 C900 1.368 . S
C904 C903 1.523 . S
H905 C880 0.950 . S
H906 C882 0.950 . S
H907 C883 0.949 . S
H908 C885 0.950 . S
H909 C887 0.950 . S
C910 C911 1.349 . S
C910 C912 1.327 . S
C910 H935 0.950 . S
C911 C910 1.349 . S
C911 C927 1.349 . S
C912 C910 1.327 . S
C912 C931 1.429 . S
C912 H936 0.950 . S
C913 C930 1.574 . S
C913 C932 1.368 . S
C913 H937 0.949 . S
H914 C918 0.949 . S
C915 C916 1.349 . S
C915 C917 1.327 . S
C915 H938 0.950 . S
C916 C915 1.349 . S
C916 C928 1.349 . S
C917 C915 1.327 . S
C917 C933 1.429 . S
C917 H939 0.950 . S
C918 H914 0.949 . S
C918 C926 1.574 . S
C918 C934 1.368 . S
H919 C927 0.950 . S
H920 C925 0.950 . S
H921 C926 0.949 . S
H922 C928 0.950 . S
H923 C929 0.950 . S
H924 C930 0.949 . S
C925 H920 0.950 . S
C925 C927 1.327 . S
C925 C931 1.429 . S
C926 C918 1.574 . S
C926 H921 0.949 . S
C926 C932 1.368 . S
C927 C911 1.349 . S
C927 H919 0.950 . S
C927 C925 1.327 . S
C928 C916 1.349 . S
C928 H922 0.950 . S
C928 C929 1.327 . S
C929 H923 0.950 . S
C929 C928 1.327 . S
C929 C933 1.429 . S
C930 C913 1.574 . S
C930 H924 0.949 . S
C930 C934 1.368 . S
C931 C912 1.429 . S
C931 C925 1.429 . S
C931 C932 1.523 . S
C932 C913 1.368 . S
C932 C926 1.368 . S
C932 C931 1.523 . S
C933 C917 1.429 . S
C933 C929 1.429 . S
C933 C934 1.523 1_556 S
C934 C918 1.368 . S
C934 C930 1.368 . S
C934 C933 1.523 1_554 S
H935 C910 0.950 . S
H936 C912 0.950 . S
H937 C913 0.949 . S
H938 C915 0.950 . S
H939 C917 0.950 . S
C940 C941 1.349 . S
C940 C942 1.327 1_554 S
C940 H965 0.950 . S
C941 C940 1.349 . S
C941 C957 1.349 . S
C942 C940 1.327 1_556 S
C942 C961 1.429 . S
C942 H966 0.950 . S
C943 C960 1.574 . S
C943 C962 1.368 . S
C943 H967 0.949 . S
H944 C948 0.949 . S
C945 C946 1.349 . S
C945 C947 1.327 . S
C945 H968 0.950 . S
C946 C945 1.349 . S
C946 C958 1.349 . S
C947 C945 1.327 . S
C947 C963 1.429 . S
C947 H969 0.950 . S
C948 H944 0.949 . S
C948 C956 1.574 . S
C948 C964 1.368 . S
H949 C957 0.950 . S
H950 C955 0.950 . S
H951 C956 0.949 . S
H952 C958 0.950 . S
H953 C959 0.950 . S
H954 C960 0.949 . S
C955 H950 0.950 . S
C955 C957 1.327 1_556 S
C955 C961 1.429 . S
C956 C948 1.574 . S
C956 H951 0.949 . S
C956 C962 1.368 . S
C957 C941 1.349 . S
C957 H949 0.950 . S
C957 C955 1.327 1_554 S
C958 C946 1.349 . S
C958 H952 0.950 . S
C958 C959 1.327 . S
C959 H953 0.950 . S
C959 C958 1.327 . S
C959 C963 1.429 . S
C960 C943 1.574 . S
C960 H954 0.949 . S
C960 C964 1.368 . S
C961 C942 1.429 . S
C961 C955 1.429 . S
C961 C962 1.523 . S
C962 C943 1.368 . S
C962 C956 1.368 . S
C962 C961 1.523 . S
C963 C947 1.429 . S
C963 C959 1.429 . S
C963 C964 1.523 . S
C964 C948 1.368 . S
C964 C960 1.368 . S
C964 C963 1.523 . S
H965 C940 0.950 . S
H966 C942 0.950 . S
H967 C943 0.949 . S
H968 C945 0.950 . S
H969 C947 0.950 . S
C970 C971 1.349 . S
C970 C972 1.327 . S
C970 H995 0.950 . S
C971 C970 1.349 . S
C971 C987 1.349 . S
C972 C970 1.327 . S
C972 C991 1.429 . S
C972 H996 0.950 . S
C973 C990 1.574 . S
C973 C992 1.368 . S
C973 H997 0.949 . S
H974 C978 0.949 . S
C975 C976 1.349 . S
C975 C977 1.327 . S
C975 H998 0.950 . S
C976 C975 1.349 . S
C976 C988 1.349 . S
C977 C975 1.327 . S
C977 C993 1.429 . S
C977 H999 0.950 . S
C978 H974 0.949 . S
C978 C986 1.574 . S
C978 C994 1.368 . S
H979 C987 0.950 . S
H980 C985 0.950 . S
H981 C986 0.949 . S
H982 C988 0.950 . S
H983 C989 0.950 . S
H984 C990 0.949 . S
C985 H980 0.950 . S
C985 C987 1.327 . S
C985 C991 1.429 . S
C986 C978 1.574 . S
C986 H981 0.949 . S
C986 C992 1.368 . S
C987 C971 1.349 . S
C987 H979 0.950 . S
C987 C985 1.327 . S
C988 C976 1.349 . S
C988 H982 0.950 . S
C988 C989 1.327 . S
C989 H983 0.950 . S
C989 C988 1.327 . S
C989 C993 1.429 . S
C990 C973 1.574 . S
C990 H984 0.949 . S
C990 C994 1.368 . S
C991 C972 1.429 . S
C991 C985 1.429 . S
C991 C992 1.523 . S
C992 C973 1.368 . S
C992 C986 1.368 . S
C992 C991 1.523 . S
C993 C977 1.429 . S
C993 C989 1.429 . S
C993 C994 1.523 . S
C994 C978 1.368 . S
C994 C990 1.368 . S
C994 C993 1.523 . S
H995 C970 0.950 . S
H996 C972 0.950 . S
H997 C973 0.949 . S
H998 C975 0.950 . S
H999 C977 0.950 . S
C1000 C1001 1.349 . S
C1000 C1002 1.327 . S
C1000 H1025 0.950 . S
C1001 C1000 1.349 . S
C1001 C1017 1.349 . S
C1002 C1000 1.327 . S
C1002 C1021 1.429 . S
C1002 H1026 0.950 . S
C1003 C1020 1.574 . S
C1003 C1022 1.368 . S
C1003 H1027 0.949 . S
H1004 C1008 0.949 . S
C1005 C1006 1.349 . S
C1005 C1007 1.327 . S
C1005 H1028 0.950 . S
C1006 C1005 1.349 . S
C1006 C1018 1.349 . S
C1007 C1005 1.327 . S
C1007 C1023 1.429 . S
C1007 H1029 0.950 . S
C1008 H1004 0.949 . S
C1008 C1016 1.574 . S
C1008 C1024 1.368 . S
H1009 C1017 0.950 . S
H1010 C1015 0.950 . S
H1011 C1016 0.949 . S
H1012 C1018 0.950 . S
H1013 C1019 0.950 . S
H1014 C1020 0.949 . S
C1015 H1010 0.950 . S
C1015 C1017 1.327 . S
C1015 C1021 1.429 . S
C1016 C1008 1.574 . S
C1016 H1011 0.949 . S
C1016 C1022 1.368 . S
C1017 C1001 1.349 . S
C1017 H1009 0.950 . S
C1017 C1015 1.327 . S
C1018 C1006 1.349 . S
C1018 H1012 0.950 . S
C1018 C1019 1.327 . S
C1019 H1013 0.950 . S
C1019 C1018 1.327 . S
C1019 C1023 1.429 . S
C1020 C1003 1.574 . S
C1020 H1014 0.949 . S
C1020 C1024 1.368 . S
C1021 C1002 1.429 . S
C1021 C1015 1.429 . S
C1021 C1022 1.523 . S
C1022 C1003 1.368 . S
C1022 C1016 1.368 . S
C1022 C1021 1.523 . S
C1023 C1007 1.429 . S
C1023 C1019 1.429 . S
C1023 C1024 1.523 . S
C1024 C1008 1.368 . S
C1024 C1020 1.368 . S
C1024 C1023 1.523 . S
H1025 C1000 0.950 . S
H1026 C1002 0.950 . S
H1027 C1003 0.949 . S
H1028 C1005 0.950 . S
H1029 C1007 0.950 . S
C1030 C1031 1.349 . S
C1030 C1032 1.327 . S
C1030 H1055 0.950 . S
C1031 C1030 1.349 . S
C1031 C1047 1.349 . S
C1032 C1030 1.327 . S
C1032 C1051 1.429 . S
C1032 H1056 0.950 . S
C1033 C1050 1.574 . S
C1033 C1052 1.368 . S
C1033 H1057 0.949 . S
H1034 C1038 0.949 . S
C1035 C1036 1.349 . S
C1035 C1037 1.327 . S
C1035 H1058 0.950 . S
C1036 C1035 1.349 . S
C1036 C1048 1.349 . S
C1037 C1035 1.327 . S
C1037 C1053 1.429 . S
C1037 H1059 0.950 . S
C1038 H1034 0.949 . S
C1038 C1046 1.574 . S
C1038 C1054 1.368 . S
H1039 C1047 0.950 . S
H1040 C1045 0.950 . S
H1041 C1046 0.949 . S
H1042 C1048 0.950 . S
H1043 C1049 0.950 . S
H1044 C1050 0.949 . S
C1045 H1040 0.950 . S
C1045 C1047 1.327 . S
C1045 C1051 1.429 . S
C1046 C1038 1.574 . S
C1046 H1041 0.949 . S
C1046 C1052 1.368 . S
C1047 C1031 1.349 . S
C1047 H1039 0.950 . S
C1047 C1045 1.327 . S
C1048 C1036 1.349 . S
C1048 H1042 0.950 . S
C1048 C1049 1.327 . S
C1049 H1043 0.950 . S
C1049 C1048 1.327 . S
C1049 C1053 1.429 . S
C1050 C1033 1.574 . S
C1050 H1044 0.949 . S
C1050 C1054 1.368 . S
C1051 C1032 1.429 . S
C1051 C1045 1.429 . S
C1051 C1052 1.523 . S
C1052 C1033 1.368 . S
C1052 C1046 1.368 . S
C1052 C1051 1.523 . S
C1053 C1037 1.429 . S
C1053 C1049 1.429 . S
C1053 C1054 1.523 . S
C1054 C1038 1.368 . S
C1054 C1050 1.368 . S
C1054 C1053 1.523 . S
H1055 C1030 0.950 . S
H1056 C1032 0.950 . S
H1057 C1033 0.949 . S
H1058 C1035 0.950 . S
H1059 C1037 0.950 . S
C1060 C1061 1.349 . S
C1060 C1062 1.327 . S
C1060 H1085 0.950 . S
C1061 C1060 1.349 . S
C1061 C1077 1.349 . S
C1062 C1060 1.327 . S
C1062 C1081 1.429 . S
C1062 H1086 0.950 . S
C1063 C1080 1.574 . S
C1063 C1082 1.368 . S
C1063 H1087 0.949 . S
H1064 C1068 0.949 . S
C1065 C1066 1.349 . S
C1065 C1067 1.327 . S
C1065 H1088 0.950 . S
C1066 C1065 1.349 . S
C1066 C1078 1.349 . S
C1067 C1065 1.327 . S
C1067 C1083 1.429 . S
C1067 H1089 0.950 . S
C1068 H1064 0.949 . S
C1068 C1076 1.574 . S
C1068 C1084 1.368 . S
H1069 C1077 0.950 . S
H1070 C1075 0.950 . S
H1071 C1076 0.949 . S
H1072 C1078 0.950 . S
H1073 C1079 0.950 . S
H1074 C1080 0.949 . S
C1075 H1070 0.950 . S
C1075 C1077 1.327 . S
C1075 C1081 1.429 . S
C1076 C1068 1.574 . S
C1076 H1071 0.949 . S
C1076 C1082 1.368 . S
C1077 C1061 1.349 . S
C1077 H1069 0.950 . S
C1077 C1075 1.327 . S
C1078 C1066 1.349 . S
C1078 H1072 0.950 . S
C1078 C1079 1.327 . S
C1079 H1073 0.950 . S
C1079 C1078 1.327 . S
C1079 C1083 1.429 . S
C1080 C1063 1.574 . S
C1080 H1074 0.949 . S
C1080 C1084 1.368 . S
C1081 C1062 1.429 . S
C1081 C1075 1.429 . S
C1081 C1082 1.523 . S
C1082 C1063 1.368 . S
C1082 C1076 1.368 . S
C1082 C1081 1.523 . S
C1083 C1067 1.429 . S
C1083 C1079 1.429 . S
C1083 C1084 1.523 1_556 S
C1084 C1068 1.368 . S
C1084 C1080 1.368 . S
C1084 C1083 1.523 1_554 S
H1085 C1060 0.950 . S
H1086 C1062 0.950 . S
H1087 C1063 0.949 . S
H1088 C1065 0.950 . S
H1089 C1067 0.950 . S
C1090 C1091 1.349 . S
C1090 C1092 1.327 1_554 S
C1090 H1115 0.950 . S
C1091 C1090 1.349 . S
C1091 C1107 1.349 . S
C1092 C1090 1.327 1_556 S
C1092 C1111 1.429 . S
C1092 H1116 0.950 . S
C1093 C1110 1.574 . S
C1093 C1112 1.368 . S
C1093 H1117 0.949 . S
H1094 C1098 0.949 . S
C1095 C1096 1.349 . S
C1095 C1097 1.327 . S
C1095 H1118 0.950 . S
C1096 C1095 1.349 . S
C1096 C1108 1.349 . S
C1097 C1095 1.327 . S
C1097 C1113 1.429 . S
C1097 H1119 0.950 . S
C1098 H1094 0.949 . S
C1098 C1106 1.574 . S
C1098 C1114 1.368 . S
H1099 C1107 0.950 . S
H1100 C1105 0.950 . S
H1101 C1106 0.949 . S
H1102 C1108 0.950 . S
H1103 C1109 0.950 . S
H1104 C1110 0.949 . S
C1105 H1100 0.950 . S
C1105 C1107 1.327 1_556 S
C1105 C1111 1.429 . S
C1106 C1098 1.574 . S
C1106 H1101 0.949 . S
C1106 C1112 1.368 . S
C1107 C1091 1.349 . S
C1107 H1099 0.950 . S
C1107 C1105 1.327 1_554 S
C1108 C1096 1.349 . S
C1108 H1102 0.950 . S
C1108 C1109 1.327 . S
C1109 H1103 0.950 . S
C1109 C1108 1.327 . S
C1109 C1113 1.429 . S
C1110 C1093 1.574 . S
C1110 H1104 0.949 . S
C1110 C1114 1.368 . S
C1111 C1092 1.429 . S
C1111 C1105 1.429 . S
C1111 C1112 1.523 . S
C1112 C1093 1.368 . S
C1112 C1106 1.368 . S
C1112 C1111 1.523 . S
C1113 C1097 1.429 . S
C1113 C1109 1.429 . S
C1113 C1114 1.523 . S
C1114 C1098 1.368 . S
C1114 C1110 1.368 . S
C1114 C1113 1.523 . S
H1115 C1090 0.950 . S
H1116 C1092 0.950 . S
H1117 C1093 0.949 . S
H1118 C1095 0.950 . S
H1119 C1097 0.950 . S
C1120 C1121 1.349 . S
C1120 C1122 1.327 . S
C1120 H1145 0.950 . S
C1121 C1120 1.349 . S
C1121 C1137 1.349 . S
C1122 C1120 1.327 . S
C1122 C1141 1.429 . S
C1122 H1146 0.950 . S
C1123 C1140 1.574 . S
C1123 C1142 1.368 . S
C1123 H1147 0.949 . S
H1124 C1128 0.949 . S
C1125 C1126 1.349 . S
C1125 C1127 1.327 . S
C1125 H1148 0.950 . S
C1126 C1125 1.349 . S
C1126 C1138 1.349 . S
C1127 C1125 1.327 . S
C1127 C1143 1.429 . S
C1127 H1149 0.950 . S
C1128 H1124 0.949 . S
C1128 C1136 1.574 . S
C1128 C1144 1.368 . S
H1129 C1137 0.950 . S
H1130 C1135 0.950 . S
H1131 C1136 0.949 . S
H1132 C1138 0.950 . S
H1133 C1139 0.950 . S
H1134 C1140 0.949 . S
C1135 H1130 0.950 . S
C1135 C1137 1.327 . S
C1135 C1141 1.429 . S
C1136 C1128 1.574 . S
C1136 H1131 0.949 . S
C1136 C1142 1.368 . S
C1137 C1121 1.349 . S
C1137 H1129 0.950 . S
C1137 C1135 1.327 . S
C1138 C1126 1.349 . S
C1138 H1132 0.950 . S
C1138 C1139 1.327 . S
C1139 H1133 0.950 . S
C1139 C1138 1.327 . S
C1139 C1143 1.429 . S
C1140 C1123 1.574 . S
C1140 H1134 0.949 . S
C1140 C1144 1.368 . S
C1141 C1122 1.429 . S
C1141 C1135 1.429 . S
C1141 C1142 1.523 . S
C1142 C1123 1.368 . S
C1142 C1136 1.368 . S
C1142 C1141 1.523 . S
C1143 C1127 1.429 . S
C1143 C1139 1.429 . S
C1143 C1144 1.523 . S
C1144 C1128 1.368 . S
C1144 C1140 1.368 . S
C1144 C1143 1.523 . S
H1145 C1120 0.950 . S
H1146 C1122 0.950 . S
H1147 C1123 0.949 . S
H1148 C1125 0.950 . S
H1149 C1127 0.950 . S
C1150 C1151 1.349 . S
C1150 C1152 1.327 . S
C1150 H1175 0.950 . S
C1151 C1150 1.349 . S
C1151 C1167 1.349 . S
C1152 C1150 1.327 . S
C1152 C1171 1.429 . S
C1152 H1176 0.950 . S
C1153 C1170 1.574 . S
C1153 C1172 1.368 . S
C1153 H1177 0.949 . S
H1154 C1158 0.949 . S
C1155 C1156 1.349 . S
C1155 C1157 1.327 . S
C1155 H1178 0.950 . S
C1156 C1155 1.349 . S
C1156 C1168 1.349 . S
C1157 C1155 1.327 . S
C1157 C1173 1.429 . S
C1157 H1179 0.950 . S
C1158 H1154 0.949 . S
C1158 C1166 1.574 . S
C1158 C1174 1.368 . S
H1159 C1167 0.950 . S
H1160 C1165 0.950 . S
H1161 C1166 0.949 . S
H1162 C1168 0.950 . S
H1163 C1169 0.950 . S
H1164 C1170 0.949 . S
C1165 H1160 0.950 . S
C1165 C1167 1.327 . S
C1165 C1171 1.429 . S
C1166 C1158 1.574 . S
C1166 H1161 0.949 . S
C1166 C1172 1.368 . S
C1167 C1151 1.349 . S
C1167 H1159 0.950 . S
C1167 C1165 1.327 . S
C1168 C1156 1.349 . S
C1168 H1162 0.950 . S
C1168 C1169 1.327 . S
C1169 H1163 0.950 . S
C1169 C1168 1.327 . S
C1169 C1173 1.429 . S
C1170 C1153 1.574 . S
C1170 H1164 0.949 . S
C1170 C1174 1.368 . S
C1171 C1152 1.429 . S
C1171 C1165 1.429 . S
C1171 C1172 1.523 . S
C1172 C1153 1.368 . S
C1172 C1166 1.368 . S
C1172 C1171 1.523 . S
C1173 C1157 1.429 . S
C1173 C1169 1.429 . S
C1173 C1174 1.523 . S
C1174 C1158 1.368 . S
C1174 C1170 1.368 . S
C1174 C1173 1.523 . S
H1175 C1150 0.950 . S
H1176 C1152 0.950 . S
H1177 C1153 0.949 . S
H1178 C1155 0.950 . S
H1179 C1157 0.950 . S
C1180 C1181 1.349 . S
C1180 C1182 1.327 . S
C1180 H1205 0.950 . S
C1181 C1180 1.349 . S
C1181 C1197 1.349 . S
C1182 C1180 1.327 . S
C1182 C1201 1.429 . S
C1182 H1206 0.950 . S
C1183 C1200 1.574 . S
C1183 C1202 1.368 . S
C1183 H1207 0.949 . S
H1184 C1188 0.949 . S
C1185 C1186 1.349 . S
C1185 C1187 1.327 . S
C1185 H1208 0.950 . S
C1186 C1185 1.349 . S
C1186 C1198 1.349 . S
C1187 C1185 1.327 . S
C1187 C1203 1.429 . S
C1187 H1209 0.950 . S
C1188 H1184 0.949 . S
C1188 C1196 1.574 . S
C1188 C1204 1.368 . S
H1189 C1197 0.950 . S
H1190 C1195 0.950 . S
H1191 C1196 0.949 . S
H1192 C1198 0.950 . S
H1193 C1199 0.950 . S
H1194 C1200 0.949 . S
C1195 H1190 0.950 . S
C1195 C1197 1.327 . S
C1195 C1201 1.429 . S
C1196 C1188 1.574 . S
C1196 H1191 0.949 . S
C1196 C1202 1.368 . S
C1197 C1181 1.349 . S
C1197 H1189 0.950 . S
C1197 C1195 1.327 . S
C1198 C1186 1.349 . S
C1198 H1192 0.950 . S
C1198 C1199 1.327 . S
C1199 H1193 0.950 . S
C1199 C1198 1.327 . S
C1199 C1203 1.429 . S
C1200 C1183 1.574 . S
C1200 H1194 0.949 . S
C1200 C1204 1.368 . S
C1201 C1182 1.429 . S
C1201 C1195 1.429 . S
C1201 C1202 1.523 . S
C1202 C1183 1.368 . S
C1202 C1196 1.368 . S
C1202 C1201 1.523 . S
C1203 C1187 1.429 . S
C1203 C1199 1.429 . S
C1203 C1204 1.523 . S
C1204 C1188 1.368 . S
C1204 C1200 1.368 . S
C1204 C1203 1.523 . S
H1205 C1180 0.950 . S
H1206 C1182 0.950 . S
H1207 C1183 0.949 . S
H1208 C1185 0.950 . S
H1209 C1187 0.950 . S
C1210 C1211 1.349 . S
C1210 C1212 1.327 . S
C1210 H1235 0.950 . S
C1211 C1210 1.349 . S
C1211 C1227 1.349 . S
C1212 C1210 1.327 . S
C1212 C1231 1.429 . S
C1212 H1236 0.950 . S
C1213 C1230 1.574 1_655 S
C1213 C1232 1.368 . S
C1213 H1237 0.949 . S
H1214 C1218 0.949 . S
C1215 C1216 1.349 . S
C1215 C1217 1.327 . S
C1215 H1238 0.950 . S
C1216 C1215 1.349 . S
C1216 C1228 1.349 . S
C1217 C1215 1.327 . S
C1217 C1233 1.429 . S
C1217 H1239 0.950 . S
C1218 H1214 0.949 . S
C1218 C1226 1.574 1_455 S
C1218 C1234 1.368 . S
H1219 C1227 0.950 . S
H1220 C1225 0.950 . S
H1221 C1226 0.949 . S
H1222 C1228 0.950 . S
H1223 C1229 0.950 . S
H1224 C1230 0.949 . S
C1225 H1220 0.950 . S
C1225 C1227 1.327 . S
C1225 C1231 1.429 . S
C1226 C1218 1.574 1_655 S
C1226 H1221 0.949 . S
C1226 C1232 1.368 . S
C1227 C1211 1.349 . S
C1227 H1219 0.950 . S
C1227 C1225 1.327 . S
C1228 C1216 1.349 . S
C1228 H1222 0.950 . S
C1228 C1229 1.327 . S
C1229 H1223 0.950 . S
C1229 C1228 1.327 . S
C1229 C1233 1.429 . S
C1230 C1213 1.574 1_455 S
C1230 H1224 0.949 . S
C1230 C1234 1.368 . S
C1231 C1212 1.429 . S
C1231 C1225 1.429 . S
C1231 C1232 1.523 . S
C1232 C1213 1.368 . S
C1232 C1226 1.368 . S
C1232 C1231 1.523 . S
C1233 C1217 1.429 . S
C1233 C1229 1.429 . S
C1233 C1234 1.523 . S
C1234 C1218 1.368 . S
C1234 C1230 1.368 . S
C1234 C1233 1.523 . S
H1235 C1210 0.950 . S
H1236 C1212 0.950 . S
H1237 C1213 0.949 . S
H1238 C1215 0.950 . S
H1239 C1217 0.950 . S
C1240 C1241 1.349 . S
C1240 C1242 1.327 . S
C1240 H1265 0.950 . S
C1241 C1240 1.349 . S
C1241 C1257 1.349 . S
C1242 C1240 1.327 . S
C1242 C1261 1.429 . S
C1242 H1266 0.950 . S
C1243 C1260 1.574 . S
C1243 C1262 1.368 . S
C1243 H1267 0.949 . S
H1244 C1248 0.949 . S
C1245 C1246 1.349 . S
C1245 C1247 1.327 . S
C1245 H1268 0.950 . S
C1246 C1245 1.349 . S
C1246 C1258 1.349 . S
C1247 C1245 1.327 . S
C1247 C1263 1.429 . S
C1247 H1269 0.950 . S
C1248 H1244 0.949 . S
C1248 C1256 1.574 . S
C1248 C1264 1.368 . S
H1249 C1257 0.950 . S
H1250 C1255 0.950 . S
H1251 C1256 0.949 . S
H1252 C1258 0.950 . S
H1253 C1259 0.950 . S
H1254 C1260 0.949 . S
C1255 H1250 0.950 . S
C1255 C1257 1.327 . S
C1255 C1261 1.429 . S
C1256 C1248 1.574 . S
C1256 H1251 0.949 . S
C1256 C1262 1.368 . S
C1257 C1241 1.349 . S
C1257 H1249 0.950 . S
C1257 C1255 1.327 . S
C1258 C1246 1.349 . S
C1258 H1252 0.950 . S
C1258 C1259 1.327 . S
C1259 H1253 0.950 . S
C1259 C1258 1.327 . S
C1259 C1263 1.429 . S
C1260 C1243 1.574 . S
C1260 H1254 0.949 . S
C1260 C1264 1.368 . S
C1261 C1242 1.429 . S
C1261 C1255 1.429 . S
C1261 C1262 1.523 . S
C1262 C1243 1.368 . S
C1262 C1256 1.368 . S
C1262 C1261 1.523 . S
C1263 C1247 1.429 . S
C1263 C1259 1.429 . S
C1263 C1264 1.523 . S
C1264 C1248 1.368 . S
C1264 C1260 1.368 . S
C1264 C1263 1.523 . S
H1265 C1240 0.950 . S
H1266 C1242 0.950 . S
H1267 C1243 0.949 . S
H1268 C1245 0.950 . S
H1269 C1247 0.950 . S
C1270 C1271 1.349 . S
C1270 C1272 1.327 . S
C1270 H1295 0.950 . S
C1271 C1270 1.349 . S
C1271 C1287 1.349 . S
C1272 C1270 1.327 . S
C1272 C1291 1.429 . S
C1272 H1296 0.950 . S
C1273 C1290 1.574 1_455 S
C1273 C1292 1.368 . S
C1273 H1297 0.949 . S
H1274 C1278 0.949 . S
C1275 C1276 1.349 . S
C1275 C1277 1.327 . S
C1275 H1298 0.950 . S
C1276 C1275 1.349 . S
C1276 C1288 1.349 . S
C1277 C1275 1.327 . S
C1277 C1293 1.429 . S
C1277 H1299 0.950 . S
C1278 H1274 0.949 . S
C1278 C1286 1.574 1_655 S
C1278 C1294 1.368 . S
H1279 C1287 0.950 . S
H1280 C1285 0.950 . S
H1281 C1286 0.949 . S
H1282 C1288 0.950 . S
H1283 C1289 0.950 . S
H1284 C1290 0.949 . S
C1285 H1280 0.950 . S
C1285 C1287 1.327 . S
C1285 C1291 1.429 . S
C1286 C1278 1.574 1_455 S
C1286 H1281 0.949 . S
C1286 C1292 1.368 . S
C1287 C1271 1.349 . S
C1287 H1279 0.950 . S
C1287 C1285 1.327 . S
C1288 C1276 1.349 . S
C1288 H1282 0.950 . S
C1288 C1289 1.327 . S
C1289 H1283 0.950 . S
C1289 C1288 1.327 . S
C1289 C1293 1.429 . S
C1290 C1273 1.574 1_655 S
C1290 H1284 0.949 . S
C1290 C1294 1.368 . S
C1291 C1272 1.429 . S
C1291 C1285 1.429 . S
C1291 C1292 1.523 . S
C1292 C1273 1.368 . S
C1292 C1286 1.368 . S
C1292 C1291 1.523 . S
C1293 C1277 1.429 . S
C1293 C1289 1.429 . S
C1293 C1294 1.523 . S
C1294 C1278 1.368 . S
C1294 C1290 1.368 . S
C1294 C1293 1.523 . S
H1295 C1270 0.950 . S
H1296 C1272 0.950 . S
H1297 C1273 0.949 . S
H1298 C1275 0.950 . S
H1299 C1277 0.950 . S
C1300 C1301 1.349 . S
C1300 C1302 1.327 . S
C1300 H1325 0.950 . S
C1301 C1300 1.349 . S
C1301 C1317 1.349 . S
C1302 C1300 1.327 . S
C1302 C1321 1.429 . S
C1302 H1326 0.950 . S
C1303 C1320 1.574 . S
C1303 C1322 1.368 . S
C1303 H1327 0.949 . S
H1304 C1308 0.949 . S
C1305 C1306 1.349 . S
C1305 C1307 1.327 . S
C1305 H1328 0.950 . S
C1306 C1305 1.349 . S
C1306 C1318 1.349 . S
C1307 C1305 1.327 . S
C1307 C1323 1.429 . S
C1307 H1329 0.950 . S
C1308 H1304 0.949 . S
C1308 C1316 1.574 . S
C1308 C1324 1.368 . S
H1309 C1317 0.950 . S
H1310 C1315 0.950 . S
H1311 C1316 0.949 . S
H1312 C1318 0.950 . S
H1313 C1319 0.950 . S
H1314 C1320 0.949 . S
C1315 H1310 0.950 . S
C1315 C1317 1.327 . S
C1315 C1321 1.429 . S
C1316 C1308 1.574 . S
C1316 H1311 0.949 . S
C1316 C1322 1.368 . S
C1317 C1301 1.349 . S
C1317 H1309 0.950 . S
C1317 C1315 1.327 . S
C1318 C1306 1.349 . S
C1318 H1312 0.950 . S
C1318 C1319 1.327 . S
C1319 H1313 0.950 . S
C1319 C1318 1.327 . S
C1319 C1323 1.429 . S
C1320 C1303 1.574 . S
C1320 H1314 0.949 . S
C1320 C1324 1.368 . S
C1321 C1302 1.429 . S
C1321 C1315 1.429 . S
C1321 C1322 1.523 . S
C1322 C1303 1.368 . S
C1322 C1316 1.368 . S
C1322 C1321 1.523 . S
C1323 C1307 1.429 . S
C1323 C1319 1.429 . S
C1323 C1324 1.523 . S
C1324 C1308 1.368 . S
C1324 C1320 1.368 . S
C1324 C1323 1.523 . S
H1325 C1300 0.950 . S
H1326 C1302 0.950 . S
H1327 C1303 0.949 . S
H1328 C1305 0.950 . S
H1329 C1307 0.950 . S
C1330 C1331 1.349 . S
C1330 C1332 1.327 . S
C1330 H1355 0.950 . S
C1331 C1330 1.349 . S
C1331 C1347 1.349 . S
C1332 C1330 1.327 . S
C1332 C1351 1.429 . S
C1332 H1356 0.950 . S
C1333 C1350 1.574 . S
C1333 C1352 1.368 . S
C1333 H1357 0.949 . S
H1334 C1338 0.949 . S
C1335 C1336 1.349 . S
C1335 C1337 1.327 . S
C1335 H1358 0.950 . S
C1336 C1335 1.349 . S
C1336 C1348 1.349 . S
C1337 C1335 1.327 . S
C1337 C1353 1.429 . S
C1337 H1359 0.950 . S
C1338 H1334 0.949 . S
C1338 C1346 1.574 . S
C1338 C1354 1.368 . S
H1339 C1347 0.950 . S
H1340 C1345 0.950 . S
H1341 C1346 0.949 . S
H1342 C1348 0.950 . S
H1343 C1349 0.950 . S
H1344 C1350 0.949 . S
C1345 H1340 0.950 . S
C1345 C1347 1.327 . S
C1345 C1351 1.429 . S
C1346 C1338 1.574 . S
C1346 H1341 0.949 . S
C1346 C1352 1.368 . S
C1347 C1331 1.349 . S
C1347 H1339 0.950 . S
C1347 C1345 1.327 . S
C1348 C1336 1.349 . S
C1348 H1342 0.950 . S
C1348 C1349 1.327 . S
C1349 H1343 0.950 . S
C1349 C1348 1.327 . S
C1349 C1353 1.429 . S
C1350 C1333 1.574 . S
C1350 H1344 0.949 . S
C1350 C1354 1.368 . S
C1351 C1332 1.429 . S
C1351 C1345 1.429 . S
C1351 C1352 1.523 . S
C1352 C1333 1.368 . S
C1352 C1346 1.368 . S
C1352 C1351 1.523 . S
C1353 C1337 1.429 . S
C1353 C1349 1.429 . S
C1353 C1354 1.523 . S
C1354 C1338 1.368 . S
C1354 C1350 1.368 . S
C1354 C1353 1.523 . S
H1355 C1330 0.950 . S
H1356 C1332 0.950 . S
H1357 C1333 0.949 . S
H1358 C1335 0.950 . S
H1359 C1337 0.950 . S
C1360 C1361 1.349 . S
C1360 C1362 1.327 . S
C1360 H1385 0.950 . S
C1361 C1360 1.349 . S
C1361 C1377 1.349 . S
C1362 C1360 1.327 . S
C1362 C1381 1.429 . S
C1362 H1386 0.950 . S
C1363 C1380 1.574 . S
C1363 C1382 1.368 . S
C1363 H1387 0.949 . S
H1364 C1368 0.949 . S
C1365 C1366 1.349 . S
C1365 C1367 1.327 . S
C1365 H1388 0.950 . S
C1366 C1365 1.349 . S
C1366 C1378 1.349 . S
C1367 C1365 1.327 . S
C1367 C1383 1.429 . S
C1367 H1389 0.950 . S
C1368 H1364 0.949 . S
C1368 C1376 1.574 . S
C1368 C1384 1.368 . S
H1369 C1377 0.950 . S
H1370 C1375 0.950 . S
H1371 C1376 0.949 . S
H1372 C1378 0.950 . S
H1373 C1379 0.950 . S
H1374 C1380 0.949 . S
C1375 H1370 0.950 . S
C1375 C1377 1.327 . S
C1375 C1381 1.429 . S
C1376 C1368 1.574 . S
C1376 H1371 0.949 . S
C1376 C1382 1.368 . S
C1377 C1361 1.349 . S
C1377 H1369 0.950 . S
C1377 C1375 1.327 . S
C1378 C1366 1.349 . S
C1378 H1372 0.950 . S
C1378 C1379 1.327 . S
C1379 H1373 0.950 . S
C1379 C1378 1.327 . S
C1379 C1383 1.429 . S
C1380 C1363 1.574 . S
C1380 H1374 0.949 . S
C1380 C1384 1.368 . S
C1381 C1362 1.429 . S
C1381 C1375 1.429 . S
C1381 C1382 1.523 . S
C1382 C1363 1.368 . S
C1382 C1376 1.368 . S
C1382 C1381 1.523 . S
C1383 C1367 1.429 . S
C1383 C1379 1.429 . S
C1383 C1384 1.523 . S
C1384 C1368 1.368 . S
C1384 C1380 1.368 . S
C1384 C1383 1.523 . S
H1385 C1360 0.950 . S
H1386 C1362 0.950 . S
H1387 C1363 0.949 . S
H1388 C1365 0.950 . S
H1389 C1367 0.950 . S
C1390 C1391 1.349 . S
C1390 C1392 1.327 . S
C1390 H1415 0.950 . S
C1391 C1390 1.349 . S
C1391 C1407 1.349 . S
C1392 C1390 1.327 . S
C1392 C1411 1.429 . S
C1392 H1416 0.950 . S
C1393 C1410 1.574 . S
C1393 C1412 1.368 . S
C1393 H1417 0.949 . S
H1394 C1398 0.949 . S
C1395 C1396 1.349 . S
C1395 C1397 1.327 . S
C1395 H1418 0.950 . S
C1396 C1395 1.349 . S
C1396 C1408 1.349 . S
C1397 C1395 1.327 . S
C1397 C1413 1.429 . S
C1397 H1419 0.950 . S
C1398 H1394 0.949 . S
C1398 C1406 1.574 . S
C1398 C1414 1.368 . S
H1399 C1407 0.950 . S
H1400 C1405 0.950 . S
H1401 C1406 0.949 . S
H1402 C1408 0.950 . S
H1403 C1409 0.950 . S
H1404 C1410 0.949 . S
C1405 H1400 0.950 . S
C1405 C1407 1.327 . S
C1405 C1411 1.429 . S
C1406 C1398 1.574 . S
C1406 H1401 0.949 . S
C1406 C1412 1.368 . S
C1407 C1391 1.349 . S
C1407 H1399 0.950 . S
C1407 C1405 1.327 . S
C1408 C1396 1.349 . S
C1408 H1402 0.950 . S
C1408 C1409 1.327 . S
C1409 H1403 0.950 . S
C1409 C1408 1.327 . S
C1409 C1413 1.429 . S
C1410 C1393 1.574 . S
C1410 H1404 0.949 . S
C1410 C1414 1.368 . S
C1411 C1392 1.429 . S
C1411 C1405 1.429 . S
C1411 C1412 1.523 . S
C1412 C1393 1.368 . S
C1412 C1406 1.368 . S
C1412 C1411 1.523 . S
C1413 C1397 1.429 . S
C1413 C1409 1.429 . S
C1413 C1414 1.523 . S
C1414 C1398 1.368 . S
C1414 C1410 1.368 . S
C1414 C1413 1.523 . S
H1415 C1390 0.950 . S
H1416 C1392 0.950 . S
H1417 C1393 0.949 . S
H1418 C1395 0.950 . S
H1419 C1397 0.950 . S
C1420 C1421 1.349 . S
C1420 C1422 1.327 . S
C1420 H1445 0.950 . S
C1421 C1420 1.349 . S
C1421 C1437 1.349 . S
C1422 C1420 1.327 . S
C1422 C1441 1.429 . S
C1422 H1446 0.950 . S
C1423 C1440 1.574 . S
C1423 C1442 1.368 . S
C1423 H1447 0.949 . S
H1424 C1428 0.949 . S
C1425 C1426 1.349 . S
C1425 C1427 1.327 . S
C1425 H1448 0.950 . S
C1426 C1425 1.349 . S
C1426 C1438 1.349 . S
C1427 C1425 1.327 . S
C1427 C1443 1.429 . S
C1427 H1449 0.950 . S
C1428 H1424 0.949 . S
C1428 C1436 1.574 . S
C1428 C1444 1.368 . S
H1429 C1437 0.950 . S
H1430 C1435 0.950 . S
H1431 C1436 0.949 . S
H1432 C1438 0.950 . S
H1433 C1439 0.950 . S
H1434 C1440 0.949 . S
C1435 H1430 0.950 . S
C1435 C1437 1.327 . S
C1435 C1441 1.429 . S
C1436 C1428 1.574 . S
C1436 H1431 0.949 . S
C1436 C1442 1.368 . S
C1437 C1421 1.349 . S
C1437 H1429 0.950 . S
C1437 C1435 1.327 . S
C1438 C1426 1.349 . S
C1438 H1432 0.950 . S
C1438 C1439 1.327 . S
C1439 H1433 0.950 . S
C1439 C1438 1.327 . S
C1439 C1443 1.429 . S
C1440 C1423 1.574 . S
C1440 H1434 0.949 . S
C1440 C1444 1.368 . S
C1441 C1422 1.429 . S
C1441 C1435 1.429 . S
C1441 C1442 1.523 . S
C1442 C1423 1.368 . S
C1442 C1436 1.368 . S
C1442 C1441 1.523 . S
C1443 C1427 1.429 . S
C1443 C1439 1.429 . S
C1443 C1444 1.523 . S
C1444 C1428 1.368 . S
C1444 C1440 1.368 . S
C1444 C1443 1.523 . S
H1445 C1420 0.950 . S
H1446 C1422 0.950 . S
H1447 C1423 0.949 . S
H1448 C1425 0.950 . S
H1449 C1427 0.950 . S
C1450 C1451 1.349 . S
C1450 C1452 1.327 . S
C1450 H1475 0.950 . S
C1451 C1450 1.349 . S
C1451 C1467 1.349 . S
C1452 C1450 1.327 . S
C1452 C1471 1.429 . S
C1452 H1476 0.950 . S
C1453 C1470 1.574 . S
C1453 C1472 1.368 . S
C1453 H1477 0.949 . S
H1454 C1458 0.949 . S
C1455 C1456 1.349 . S
C1455 C1457 1.327 . S
C1455 H1478 0.950 . S
C1456 C1455 1.349 . S
C1456 C1468 1.349 . S
C1457 C1455 1.327 . S
C1457 C1473 1.429 . S
C1457 H1479 0.950 . S
C1458 H1454 0.949 . S
C1458 C1466 1.574 . S
C1458 C1474 1.368 . S
H1459 C1467 0.950 . S
H1460 C1465 0.950 . S
H1461 C1466 0.949 . S
H1462 C1468 0.950 . S
H1463 C1469 0.950 . S
H1464 C1470 0.949 . S
C1465 H1460 0.950 . S
C1465 C1467 1.327 . S
C1465 C1471 1.429 . S
C1466 C1458 1.574 . S
C1466 H1461 0.949 . S
C1466 C1472 1.368 . S
C1467 C1451 1.349 . S
C1467 H1459 0.950 . S
C1467 C1465 1.327 . S
C1468 C1456 1.349 . S
C1468 H1462 0.950 . S
C1468 C1469 1.327 . S
C1469 H1463 0.950 . S
C1469 C1468 1.327 . S
C1469 C1473 1.429 . S
C1470 C1453 1.574 . S
C1470 H1464 0.949 . S
C1470 C1474 1.368 . S
C1471 C1452 1.429 . S
C1471 C1465 1.429 . S
C1471 C1472 1.523 . S
C1472 C1453 1.368 . S
C1472 C1466 1.368 . S
C1472 C1471 1.523 . S
C1473 C1457 1.429 . S
C1473 C1469 1.429 . S
C1473 C1474 1.523 . S
C1474 C1458 1.368 . S
C1474 C1470 1.368 . S
C1474 C1473 1.523 . S
H1475 C1450 0.950 . S
H1476 C1452 0.950 . S
H1477 C1453 0.949 . S
H1478 C1455 0.950 . S
H1479 C1457 0.950 . S
C1480 C1481 1.349 . S
C1480 C1482 1.327 . S
C1480 H1505 0.950 . S
C1481 C1480 1.349 . S
C1481 C1497 1.349 . S
C1482 C1480 1.327 . S
C1482 C1501 1.429 . S
C1482 H1506 0.950 . S
C1483 C1500 1.574 1_655 S
C1483 C1502 1.368 . S
C1483 H1507 0.949 . S
H1484 C1488 0.949 . S
C1485 C1486 1.349 . S
C1485 C1487 1.327 . S
C1485 H1508 0.950 1_556 S
C1486 C1485 1.349 . S
C1486 C1498 1.349 . S
C1487 C1485 1.327 . S
C1487 C1503 1.429 . S
C1487 H1509 0.950 1_556 S
C1488 H1484 0.949 . S
C1488 C1496 1.574 1_455 S
C1488 C1504 1.368 . S
H1489 C1497 0.950 . S
H1490 C1495 0.950 . S
H1491 C1496 0.949 . S
H1492 C1498 0.950 . S
H1493 C1499 0.950 . S
H1494 C1500 0.949 . S
C1495 H1490 0.950 . S
C1495 C1497 1.327 . S
C1495 C1501 1.429 . S
C1496 C1488 1.574 1_655 S
C1496 H1491 0.949 . S
C1496 C1502 1.368 . S
C1497 C1481 1.349 . S
C1497 H1489 0.950 . S
C1497 C1495 1.327 . S
C1498 C1486 1.349 . S
C1498 H1492 0.950 . S
C1498 C1499 1.327 . S
C1499 H1493 0.950 . S
C1499 C1498 1.327 . S
C1499 C1503 1.429 . S
C1500 C1483 1.574 1_455 S
C1500 H1494 0.949 . S
C1500 C1504 1.368 . S
C1501 C1482 1.429 . S
C1501 C1495 1.429 . S
C1501 C1502 1.523 . S
C1502 C1483 1.368 . S
C1502 C1496 1.368 . S
C1502 C1501 1.523 . S
C1503 C1487 1.429 . S
C1503 C1499 1.429 . S
C1503 C1504 1.523 . S
C1504 C1488 1.368 . S
C1504 C1500 1.368 . S
C1504 C1503 1.523 . S
H1505 C1480 0.950 . S
H1506 C1482 0.950 . S
H1507 C1483 0.949 . S
H1508 C1485 0.950 1_554 S
H1509 C1487 0.950 1_554 S
C1510 C1511 1.349 . S
C1510 C1512 1.327 . S
C1510 H1535 0.950 . S
C1511 C1510 1.349 . S
C1511 C1527 1.349 . S
C1512 C1510 1.327 . S
C1512 C1531 1.429 . S
C1512 H1536 0.950 . S
C1513 C1530 1.574 . S
C1513 C1532 1.368 . S
C1513 H1537 0.949 . S
H1514 C1518 0.949 . S
C1515 C1516 1.349 . S
C1515 C1517 1.327 . S
C1515 H1538 0.950 . S
C1516 C1515 1.349 . S
C1516 C1528 1.349 . S
C1517 C1515 1.327 . S
C1517 C1533 1.429 . S
C1517 H1539 0.950 . S
C1518 H1514 0.949 . S
C1518 C1526 1.574 . S
C1518 C1534 1.368 . S
H1519 C1527 0.950 . S
H1520 C1525 0.950 . S
H1521 C1526 0.949 . S
H1522 C1528 0.950 . S
H1523 C1529 0.950 . S
H1524 C1530 0.949 . S
C1525 H1520 0.950 . S
C1525 C1527 1.327 . S
C1525 C1531 1.429 . S
C1526 C1518 1.574 . S
C1526 H1521 0.949 . S
C1526 C1532 1.368 . S
C1527 C1511 1.349 . S
C1527 H1519 0.950 . S
C1527 C1525 1.327 . S
C1528 C1516 1.349 . S
C1528 H1522 0.950 . S
C1528 C1529 1.327 . S
C1529 H1523 0.950 . S
C1529 C1528 1.327 . S
C1529 C1533 1.429 . S
C1530 C1513 1.574 . S
C1530 H1524 0.949 . S
C1530 C1534 1.368 . S
C1531 C1512 1.429 . S
C1531 C1525 1.429 . S
C1531 C1532 1.523 . S
C1532 C1513 1.368 . S
C1532 C1526 1.368 . S
C1532 C1531 1.523 . S
C1533 C1517 1.429 . S
C1533 C1529 1.429 . S
C1533 C1534 1.523 . S
C1534 C1518 1.368 . S
C1534 C1530 1.368 . S
C1534 C1533 1.523 . S
H1535 C1510 0.950 . S
H1536 C1512 0.950 . S
H1537 C1513 0.949 . S
H1538 C1515 0.950 . S
H1539 C1517 0.950 . S
C1540 C1541 1.349 . S
C1540 C1542 1.327 . S
C1540 H1565 0.950 . S
C1541 C1540 1.349 . S
C1541 C1557 1.349 . S
C1542 C1540 1.327 . S
C1542 C1561 1.429 . S
C1542 H1566 0.950 . S
C1543 C1560 1.574 . S
C1543 C1562 1.368 . S
C1543 H1567 0.949 . S
H1544 C1548 0.949 . S
C1545 C1546 1.349 . S
C1545 C1547 1.327 . S
C1545 H1568 0.950 . S
C1546 C1545 1.349 . S
C1546 C1558 1.349 . S
C1547 C1545 1.327 . S
C1547 C1563 1.429 . S
C1547 H1569 0.950 . S
C1548 H1544 0.949 . S
C1548 C1556 1.574 . S
C1548 C1564 1.368 . S
H1549 C1557 0.950 . S
H1550 C1555 0.950 . S
H1551 C1556 0.949 . S
H1552 C1558 0.950 . S
H1553 C1559 0.950 . S
H1554 C1560 0.949 . S
C1555 H1550 0.950 . S
C1555 C1557 1.327 . S
C1555 C1561 1.429 . S
C1556 C1548 1.574 . S
C1556 H1551 0.949 . S
C1556 C1562 1.368 . S
C1557 C1541 1.349 . S
C1557 H1549 0.950 . S
C1557 C1555 1.327 . S
C1558 C1546 1.349 . S
C1558 H1552 0.950 . S
C1558 C1559 1.327 . S
C1559 H1553 0.950 . S
C1559 C1558 1.327 . S
C1559 C1563 1.429 . S
C1560 C1543 1.574 . S
C1560 H1554 0.949 . S
C1560 C1564 1.368 . S
C1561 C1542 1.429 . S
C1561 C1555 1.429 . S
C1561 C1562 1.523 . S
C1562 C1543 1.368 . S
C1562 C1556 1.368 . S
C1562 C1561 1.523 . S
C1563 C1547 1.429 . S
C1563 C1559 1.429 . S
C1563 C1564 1.523 . S
C1564 C1548 1.368 . S
C1564 C1560 1.368 . S
C1564 C1563 1.523 . S
H1565 C1540 0.950 . S
H1566 C1542 0.950 . S
H1567 C1543 0.949 . S
H1568 C1545 0.950 . S
H1569 C1547 0.950 . S
C1570 C1571 1.349 . S
C1570 C1572 1.327 . S
C1570 H1595 0.950 . S
C1571 C1570 1.349 . S
C1571 C1587 1.349 . S
C1572 C1570 1.327 . S
C1572 C1591 1.429 . S
C1572 H1596 0.950 . S
C1573 C1590 1.574 1_455 S
C1573 C1592 1.368 . S
C1573 H1597 0.949 . S
H1574 C1578 0.949 . S
C1575 C1576 1.349 . S
C1575 C1577 1.327 . S
C1575 H1598 0.950 . S
C1576 C1575 1.349 . S
C1576 C1588 1.349 . S
C1577 C1575 1.327 . S
C1577 C1593 1.429 . S
C1577 H1599 0.950 . S
C1578 H1574 0.949 . S
C1578 C1586 1.574 1_655 S
C1578 C1594 1.368 . S
H1579 C1587 0.950 . S
H1580 C1585 0.950 . S
H1581 C1586 0.949 . S
H1582 C1588 0.950 . S
H1583 C1589 0.950 . S
H1584 C1590 0.949 . S
C1585 H1580 0.950 . S
C1585 C1587 1.327 . S
C1585 C1591 1.429 . S
C1586 C1578 1.574 1_455 S
C1586 H1581 0.949 . S
C1586 C1592 1.368 . S
C1587 C1571 1.349 . S
C1587 H1579 0.950 . S
C1587 C1585 1.327 . S
C1588 C1576 1.349 . S
C1588 H1582 0.950 . S
C1588 C1589 1.327 . S
C1589 H1583 0.950 . S
C1589 C1588 1.327 . S
C1589 C1593 1.429 . S
C1590 C1573 1.574 1_655 S
C1590 H1584 0.949 . S
C1590 C1594 1.368 . S
C1591 C1572 1.429 . S
C1591 C1585 1.429 . S
C1591 C1592 1.523 . S
C1592 C1573 1.368 . S
C1592 C1586 1.368 . S
C1592 C1591 1.523 . S
C1593 C1577 1.429 . S
C1593 C1589 1.429 . S
C1593 C1594 1.523 . S
C1594 C1578 1.368 . S
C1594 C1590 1.368 . S
C1594 C1593 1.523 . S
H1595 C1570 0.950 . S
H1596 C1572 0.950 . S
H1597 C1573 0.949 . S
H1598 C1575 0.950 . S
H1599 C1577 0.950 . S
C1600 C1601 1.349 . S
C1600 C1602 1.327 . S
C1600 H1625 0.950 . S
C1601 C1600 1.349 . S
C1601 C1617 1.349 . S
C1602 C1600 1.327 . S
C1602 C1621 1.429 . S
C1602 H1626 0.950 . S
C1603 C1620 1.574 . S
C1603 C1622 1.368 . S
C1603 H1627 0.949 . S
H1604 C1608 0.949 . S
C1605 C1606 1.349 . S
C1605 C1607 1.327 1_556 S
C1605 H1628 0.950 . S
C1606 C1605 1.349 . S
C1606 C1618 1.349 . S
C1607 C1605 1.327 1_554 S
C1607 C1623 1.429 1_554 S
C1607 H1629 0.950 . S
C1608 H1604 0.949 . S
C1608 C1616 1.574 1_556 S
C1608 C1624 1.368 1_556 S
H1609 C1617 0.950 . S
H1610 C1615 0.950 . S
H1611 C1616 0.949 . S
H1612 C1618 0.950 . S
H1613 C1619 0.950 . S
H1614 C1620 0.949 . S
C1615 H1610 0.950 . S
C1615 C1617 1.327 . S
C1615 C1621 1.429 . S
C1616 C1608 1.574 1_554 S
C1616 H1611 0.949 . S
C1616 C1622 1.368 . S
C1617 C1601 1.349 . S
C1617 H1609 0.950 . S
C1617 C1615 1.327 . S
C1618 C1606 1.349 . S
C1618 H1612 0.950 . S
C1618 C1619 1.327 . S
C1619 H1613 0.950 . S
C1619 C1618 1.327 . S
C1619 C1623 1.429 . S
C1620 C1603 1.574 . S
C1620 H1614 0.949 . S
C1620 C1624 1.368 . S
C1621 C1602 1.429 . S
C1621 C1615 1.429 . S
C1621 C1622 1.523 . S
C1622 C1603 1.368 . S
C1622 C1616 1.368 . S
C1622 C1621 1.523 . S
C1623 C1607 1.429 1_556 S
C1623 C1619 1.429 . S
C1623 C1624 1.523 1_556 S
C1624 C1608 1.368 1_554 S
C1624 C1620 1.368 . S
C1624 C1623 1.523 1_554 S
H1625 C1600 0.950 . S
H1626 C1602 0.950 . S
H1627 C1603 0.949 . S
H1628 C1605 0.950 . S
H1629 C1607 0.950 . S
C1630 C1631 1.349 . S
C1630 C1632 1.327 . S
C1630 H1655 0.950 . S
C1631 C1630 1.349 . S
C1631 C1647 1.349 . S
C1632 C1630 1.327 . S
C1632 C1651 1.429 . S
C1632 H1656 0.950 . S
C1633 C1650 1.574 . S
C1633 C1652 1.368 . S
C1633 H1657 0.949 . S
H1634 C1638 0.949 . S
C1635 C1636 1.349 . S
C1635 C1637 1.327 . S
C1635 H1658 0.950 . S
C1636 C1635 1.349 . S
C1636 C1648 1.349 . S
C1637 C1635 1.327 . S
C1637 C1653 1.429 . S
C1637 H1659 0.950 . S
C1638 H1634 0.949 . S
C1638 C1646 1.574 . S
C1638 C1654 1.368 . S
H1639 C1647 0.950 . S
H1640 C1645 0.950 . S
H1641 C1646 0.949 . S
H1642 C1648 0.950 . S
H1643 C1649 0.950 . S
H1644 C1650 0.949 . S
C1645 H1640 0.950 . S
C1645 C1647 1.327 . S
C1645 C1651 1.429 . S
C1646 C1638 1.574 . S
C1646 H1641 0.949 . S
C1646 C1652 1.368 . S
C1647 C1631 1.349 . S
C1647 H1639 0.950 . S
C1647 C1645 1.327 . S
C1648 C1636 1.349 . S
C1648 H1642 0.950 . S
C1648 C1649 1.327 . S
C1649 H1643 0.950 . S
C1649 C1648 1.327 . S
C1649 C1653 1.429 . S
C1650 C1633 1.574 . S
C1650 H1644 0.949 . S
C1650 C1654 1.368 . S
C1651 C1632 1.429 . S
C1651 C1645 1.429 . S
C1651 C1652 1.523 . S
C1652 C1633 1.368 . S
C1652 C1646 1.368 . S
C1652 C1651 1.523 . S
C1653 C1637 1.429 . S
C1653 C1649 1.429 . S
C1653 C1654 1.523 . S
C1654 C1638 1.368 . S
C1654 C1650 1.368 . S
C1654 C1653 1.523 . S
H1655 C1630 0.950 . S
H1656 C1632 0.950 . S
H1657 C1633 0.949 . S
H1658 C1635 0.950 . S
H1659 C1637 0.950 . S
C1660 C1661 1.349 . S
C1660 C1662 1.327 . S
C1660 H1685 0.950 . S
C1661 C1660 1.349 . S
C1661 C1677 1.349 . S
C1662 C1660 1.327 . S
C1662 C1681 1.429 . S
C1662 H1686 0.950 . S
C1663 C1680 1.574 . S
C1663 C1682 1.368 . S
C1663 H1687 0.949 . S
H1664 C1668 0.949 . S
C1665 C1666 1.349 . S
C1665 C1667 1.327 . S
C1665 H1688 0.950 . S
C1666 C1665 1.349 . S
C1666 C1678 1.349 . S
C1667 C1665 1.327 . S
C1667 C1683 1.429 . S
C1667 H1689 0.950 . S
C1668 H1664 0.949 . S
C1668 C1676 1.574 . S
C1668 C1684 1.368 . S
H1669 C1677 0.950 . S
H1670 C1675 0.950 . S
H1671 C1676 0.949 . S
H1672 C1678 0.950 . S
H1673 C1679 0.950 . S
H1674 C1680 0.949 . S
C1675 H1670 0.950 . S
C1675 C1677 1.327 . S
C1675 C1681 1.429 . S
C1676 C1668 1.574 . S
C1676 H1671 0.949 . S
C1676 C1682 1.368 . S
C1677 C1661 1.349 . S
C1677 H1669 0.950 . S
C1677 C1675 1.327 . S
C1678 C1666 1.349 . S
C1678 H1672 0.950 . S
C1678 C1679 1.327 . S
C1679 H1673 0.950 . S
C1679 C1678 1.327 . S
C1679 C1683 1.429 . S
C1680 C1663 1.574 . S
C1680 H1674 0.949 . S
C1680 C1684 1.368 . S
C1681 C1662 1.429 . S
C1681 C1675 1.429 . S
C1681 C1682 1.523 . S
C1682 C1663 1.368 . S
C1682 C1676 1.368 . S
C1682 C1681 1.523 . S
C1683 C1667 1.429 . S
C1683 C1679 1.429 . S
C1683 C1684 1.523 . S
C1684 C1668 1.368 . S
C1684 C1680 1.368 . S
C1684 C1683 1.523 . S
H1685 C1660 0.950 . S
H1686 C1662 0.950 . S
H1687 C1663 0.949 . S
H1688 C1665 0.950 . S
H1689 C1667 0.950 . S
C1690 C1691 1.349 . S
C1690 C1692 1.327 . S
C1690 H1715 0.950 . S
C1691 C1690 1.349 . S
C1691 C1707 1.349 . S
C1692 C1690 1.327 . S
C1692 C1711 1.429 . S
C1692 H1716 0.950 . S
C1693 C1710 1.574 . S
C1693 C1712 1.368 . S
C1693 H1717 0.949 . S
H1694 C1698 0.949 . S
C1695 C1696 1.349 . S
C1695 C1697 1.327 . S
C1695 H1718 0.950 . S
C1696 C1695 1.349 . S
C1696 C1708 1.349 . S
C1697 C1695 1.327 . S
C1697 C1713 1.429 . S
C1697 H1719 0.950 . S
C1698 H1694 0.949 . S
C1698 C1706 1.574 . S
C1698 C1714 1.368 . S
H1699 C1707 0.950 . S
H1700 C1705 0.950 . S
H1701 C1706 0.949 . S
H1702 C1708 0.950 . S
H1703 C1709 0.950 . S
H1704 C1710 0.949 . S
C1705 H1700 0.950 . S
C1705 C1707 1.327 . S
C1705 C1711 1.429 . S
C1706 C1698 1.574 . S
C1706 H1701 0.949 . S
C1706 C1712 1.368 . S
C1707 C1691 1.349 . S
C1707 H1699 0.950 . S
C1707 C1705 1.327 . S
C1708 C1696 1.349 . S
C1708 H1702 0.950 . S
C1708 C1709 1.327 . S
C1709 H1703 0.950 . S
C1709 C1708 1.327 . S
C1709 C1713 1.429 . S
C1710 C1693 1.574 . S
C1710 H1704 0.949 . S
C1710 C1714 1.368 . S
C1711 C1692 1.429 . S
C1711 C1705 1.429 . S
C1711 C1712 1.523 . S
C1712 C1693 1.368 . S
C1712 C1706 1.368 . S
C1712 C1711 1.523 . S
C1713 C1697 1.429 . S
C1713 C1709 1.429 . S
C1713 C1714 1.523 . S
C1714 C1698 1.368 . S
C1714 C1710 1.368 . S
C1714 C1713 1.523 . S
H1715 C1690 0.950 . S
H1716 C1692 0.950 . S
H1717 C1693 0.949 . S
H1718 C1695 0.950 . S
H1719 C1697 0.950 . S
C1720 C1721 1.349 . S
C1720 C1722 1.327 . S
C1720 H1745 0.950 . S
C1721 C1720 1.349 . S
C1721 C1737 1.349 . S
C1722 C1720 1.327 . S
C1722 C1741 1.429 . S
C1722 H1746 0.950 . S
C1723 C1740 1.574 . S
C1723 C1742 1.368 1_556 S
C1723 H1747 0.949 . S
H1724 C1728 0.949 . S
C1725 C1726 1.349 . S
C1725 C1727 1.327 . S
C1725 H1748 0.950 . S
C1726 C1725 1.349 . S
C1726 C1738 1.349 . S
C1727 C1725 1.327 . S
C1727 C1743 1.429 . S
C1727 H1749 0.950 . S
C1728 H1724 0.949 . S
C1728 C1736 1.574 . S
C1728 C1744 1.368 1_554 S
H1729 C1737 0.950 . S
H1730 C1735 0.950 1_556 S
H1731 C1736 0.949 . S
H1732 C1738 0.950 . S
H1733 C1739 0.950 1_554 S
H1734 C1740 0.949 . S
C1735 H1730 0.950 1_554 S
C1735 C1737 1.327 . S
C1735 C1741 1.429 . S
C1736 C1728 1.574 . S
C1736 H1731 0.949 . S
C1736 C1742 1.368 . S
C1737 C1721 1.349 . S
C1737 H1729 0.950 . S
C1737 C1735 1.327 . S
C1738 C1726 1.349 . S
C1738 H1732 0.950 . S
C1738 C1739 1.327 . S
C1739 H1733 0.950 1_556 S
C1739 C1738 1.327 . S
C1739 C1743 1.429 . S
C1740 C1723 1.574 . S
C1740 H1734 0.949 . S
C1740 C1744 1.368 . S
C1741 C1722 1.429 . S
C1741 C1735 1.429 . S
C1741 C1742 1.523 . S
C1742 C1723 1.368 1_554 S
C1742 C1736 1.368 . S
C1742 C1741 1.523 . S
C1743 C1727 1.429 . S
C1743 C1739 1.429 . S
C1743 C1744 1.523 . S
C1744 C1728 1.368 1_556 S
C1744 C1740 1.368 . S
C1744 C1743 1.523 . S
H1745 C1720 0.950 . S
H1746 C1722 0.950 . S
H1747 C1723 0.949 . S
H1748 C1725 0.950 . S
H1749 C1727 0.950 . S
C1750 C1751 1.349 . S
C1750 C1752 1.327 . S
C1750 H1775 0.950 . S
C1751 C1750 1.349 . S
C1751 C1767 1.349 . S
C1752 C1750 1.327 . S
C1752 C1771 1.429 . S
C1752 H1776 0.950 . S
C1753 C1770 1.574 . S
C1753 C1772 1.368 . S
C1753 H1777 0.949 . S
H1754 C1758 0.949 . S
C1755 C1756 1.349 . S
C1755 C1757 1.327 . S
C1755 H1778 0.950 . S
C1756 C1755 1.349 . S
C1756 C1768 1.349 . S
C1757 C1755 1.327 . S
C1757 C1773 1.429 . S
C1757 H1779 0.950 . S
C1758 H1754 0.949 . S
C1758 C1766 1.574 . S
C1758 C1774 1.368 . S
H1759 C1767 0.950 . S
H1760 C1765 0.950 . S
H1761 C1766 0.949 . S
H1762 C1768 0.950 . S
H1763 C1769 0.950 . S
H1764 C1770 0.949 . S
C1765 H1760 0.950 . S
C1765 C1767 1.327 . S
C1765 C1771 1.429 . S
C1766 C1758 1.574 . S
C1766 H1761 0.949 . S
C1766 C1772 1.368 . S
C1767 C1751 1.349 . S
C1767 H1759 0.950 . S
C1767 C1765 1.327 . S
C1768 C1756 1.349 . S
C1768 H1762 0.950 . S
C1768 C1769 1.327 . S
C1769 H1763 0.950 . S
C1769 C1768 1.327 . S
C1769 C1773 1.429 . S
C1770 C1753 1.574 . S
C1770 H1764 0.949 . S
C1770 C1774 1.368 . S
C1771 C1752 1.429 . S
C1771 C1765 1.429 . S
C1771 C1772 1.523 . S
C1772 C1753 1.368 . S
C1772 C1766 1.368 . S
C1772 C1771 1.523 . S
C1773 C1757 1.429 . S
C1773 C1769 1.429 . S
C1773 C1774 1.523 . S
C1774 C1758 1.368 . S
C1774 C1770 1.368 . S
C1774 C1773 1.523 . S
H1775 C1750 0.950 . S
H1776 C1752 0.950 . S
H1777 C1753 0.949 . S
H1778 C1755 0.950 . S
H1779 C1757 0.950 . S
C1780 C1781 1.349 . S
C1780 C1782 1.327 . S
C1780 H1805 0.950 . S
C1781 C1780 1.349 . S
C1781 C1797 1.349 . S
C1782 C1780 1.327 . S
C1782 C1801 1.429 . S
C1782 H1806 0.950 . S
C1783 C1800 1.574 . S
C1783 C1802 1.368 . S
C1783 H1807 0.949 . S
H1784 C1788 0.949 . S
C1785 C1786 1.349 . S
C1785 C1787 1.327 . S
C1785 H1808 0.950 . S
C1786 C1785 1.349 . S
C1786 C1798 1.349 . S
C1787 C1785 1.327 . S
C1787 C1803 1.429 . S
C1787 H1809 0.950 . S
C1788 H1784 0.949 . S
C1788 C1796 1.574 . S
C1788 C1804 1.368 . S
H1789 C1797 0.950 . S
H1790 C1795 0.950 . S
H1791 C1796 0.949 . S
H1792 C1798 0.950 . S
H1793 C1799 0.950 . S
H1794 C1800 0.949 . S
C1795 H1790 0.950 . S
C1795 C1797 1.327 . S
C1795 C1801 1.429 . S
C1796 C1788 1.574 . S
C1796 H1791 0.949 . S
C1796 C1802 1.368 . S
C1797 C1781 1.349 . S
C1797 H1789 0.950 . S
C1797 C1795 1.327 . S
C1798 C1786 1.349 . S
C1798 H1792 0.950 . S
C1798 C1799 1.327 . S
C1799 H1793 0.950 . S
C1799 C1798 1.327 . S
C1799 C1803 1.429 . S
C1800 C1783 1.574 . S
C1800 H1794 0.949 . S
C1800 C1804 1.368 . S
C1801 C1782 1.429 . S
C1801 C1795 1.429 . S
C1801 C1802 1.523 . S
C1802 C1783 1.368 . S
C1802 C1796 1.368 . S
C1802 C1801 1.523 . S
C1803 C1787 1.429 . S
C1803 C1799 1.429 . S
C1803 C1804 1.523 . S
C1804 C1788 1.368 . S
C1804 C1800 1.368 . S
C1804 C1803 1.523 . S
H1805 C1780 0.950 . S
H1806 C1782 0.950 . S
H1807 C1783 0.949 . S
H1808 C1785 0.950 . S
H1809 C1787 0.950 . S
C1810 C1811 1.349 . S
C1810 C1812 1.327 . S
C1810 H1835 0.950 . S
C1811 C1810 1.349 . S
C1811 C1827 1.349 . S
C1812 C1810 1.327 . S
C1812 C1831 1.429 . S
C1812 H1836 0.950 . S
C1813 C1830 1.574 . S
C1813 C1832 1.368 . S
C1813 H1837 0.949 . S
H1814 C1818 0.949 . S
C1815 C1816 1.349 . S
C1815 C1817 1.327 . S
C1815 H1838 0.950 . S
C1816 C1815 1.349 . S
C1816 C1828 1.349 . S
C1817 C1815 1.327 . S
C1817 C1833 1.429 . S
C1817 H1839 0.950 . S
C1818 H1814 0.949 . S
C1818 C1826 1.574 . S
C1818 C1834 1.368 . S
H1819 C1827 0.950 . S
H1820 C1825 0.950 . S
H1821 C1826 0.949 . S
H1822 C1828 0.950 . S
H1823 C1829 0.950 . S
H1824 C1830 0.949 . S
C1825 H1820 0.950 . S
C1825 C1827 1.327 . S
C1825 C1831 1.429 . S
C1826 C1818 1.574 . S
C1826 H1821 0.949 . S
C1826 C1832 1.368 . S
C1827 C1811 1.349 . S
C1827 H1819 0.950 . S
C1827 C1825 1.327 . S
C1828 C1816 1.349 . S
C1828 H1822 0.950 . S
C1828 C1829 1.327 . S
C1829 H1823 0.950 . S
C1829 C1828 1.327 . S
C1829 C1833 1.429 . S
C1830 C1813 1.574 . S
C1830 H1824 0.949 . S
C1830 C1834 1.368 . S
C1831 C1812 1.429 . S
C1831 C1825 1.429 . S
C1831 C1832 1.523 . S
C1832 C1813 1.368 . S
C1832 C1826 1.368 . S
C1832 C1831 1.523 . S
C1833 C1817 1.429 . S
C1833 C1829 1.429 . S
C1833 C1834 1.523 . S
C1834 C1818 1.368 . S
C1834 C1830 1.368 . S
C1834 C1833 1.523 . S
H1835 C1810 0.950 . S
H1836 C1812 0.950 . S
H1837 C1813 0.949 . S
H1838 C1815 0.950 . S
H1839 C1817 0.950 . S
C1840 C1841 1.349 . S
C1840 C1842 1.327 . S
C1840 H1865 0.950 . S
C1841 C1840 1.349 . S
C1841 C1857 1.349 . S
C1842 C1840 1.327 . S
C1842 C1861 1.429 . S
C1842 H1866 0.950 . S
C1843 C1860 1.574 1_565 S
C1843 C1862 1.368 . S
C1843 H1867 0.949 . S
H1844 C1848 0.949 . S
C1845 C1846 1.349 . S
C1845 C1847 1.327 . S
C1845 H1868 0.950 . S
C1846 C1845 1.349 . S
C1846 C1858 1.349 . S
C1847 C1845 1.327 . S
C1847 C1863 1.429 . S
C1847 H1869 0.950 . S
C1848 H1844 0.949 . S
C1848 C1856 1.574 1_545 S
C1848 C1864 1.368 . S
H1849 C1857 0.950 . S
H1850 C1855 0.950 . S
H1851 C1856 0.949 . S
H1852 C1858 0.950 . S
H1853 C1859 0.950 . S
H1854 C1860 0.949 . S
C1855 H1850 0.950 . S
C1855 C1857 1.327 . S
C1855 C1861 1.429 . S
C1856 C1848 1.574 1_565 S
C1856 H1851 0.949 . S
C1856 C1862 1.368 . S
C1857 C1841 1.349 . S
C1857 H1849 0.950 . S
C1857 C1855 1.327 . S
C1858 C1846 1.349 . S
C1858 H1852 0.950 . S
C1858 C1859 1.327 . S
C1859 H1853 0.950 . S
C1859 C1858 1.327 . S
C1859 C1863 1.429 . S
C1860 C1843 1.574 1_545 S
C1860 H1854 0.949 . S
C1860 C1864 1.368 . S
C1861 C1842 1.429 . S
C1861 C1855 1.429 . S
C1861 C1862 1.523 . S
C1862 C1843 1.368 . S
C1862 C1856 1.368 . S
C1862 C1861 1.523 . S
C1863 C1847 1.429 . S
C1863 C1859 1.429 . S
C1863 C1864 1.523 . S
C1864 C1848 1.368 . S
C1864 C1860 1.368 . S
C1864 C1863 1.523 . S
H1865 C1840 0.950 . S
H1866 C1842 0.950 . S
H1867 C1843 0.949 . S
H1868 C1845 0.950 . S
H1869 C1847 0.950 . S
C1870 C1871 1.349 . S
C1870 C1872 1.327 . S
C1870 H1895 0.950 . S
C1871 C1870 1.349 . S
C1871 C1887 1.349 . S
C1872 C1870 1.327 . S
C1872 C1891 1.429 . S
C1872 H1896 0.950 . S
C1873 C1890 1.574 . S
C1873 C1892 1.368 . S
C1873 H1897 0.949 . S
H1874 C1878 0.949 . S
C1875 C1876 1.349 . S
C1875 C1877 1.327 . S
C1875 H1898 0.950 . S
C1876 C1875 1.349 . S
C1876 C1888 1.349 . S
C1877 C1875 1.327 . S
C1877 C1893 1.429 . S
C1877 H1899 0.950 . S
C1878 H1874 0.949 . S
C1878 C1886 1.574 . S
C1878 C1894 1.368 . S
H1879 C1887 0.950 . S
H1880 C1885 0.950 . S
H1881 C1886 0.949 . S
H1882 C1888 0.950 . S
H1883 C1889 0.950 . S
H1884 C1890 0.949 . S
C1885 H1880 0.950 . S
C1885 C1887 1.327 . S
C1885 C1891 1.429 . S
C1886 C1878 1.574 . S
C1886 H1881 0.949 . S
C1886 C1892 1.368 . S
C1887 C1871 1.349 . S
C1887 H1879 0.950 . S
C1887 C1885 1.327 . S
C1888 C1876 1.349 . S
C1888 H1882 0.950 . S
C1888 C1889 1.327 . S
C1889 H1883 0.950 . S
C1889 C1888 1.327 . S
C1889 C1893 1.429 . S
C1890 C1873 1.574 . S
C1890 H1884 0.949 . S
C1890 C1894 1.368 . S
C1891 C1872 1.429 . S
C1891 C1885 1.429 . S
C1891 C1892 1.523 . S
C1892 C1873 1.368 . S
C1892 C1886 1.368 . S
C1892 C1891 1.523 . S
C1893 C1877 1.429 . S
C1893 C1889 1.429 . S
C1893 C1894 1.523 . S
C1894 C1878 1.368 . S
C1894 C1890 1.368 . S
C1894 C1893 1.523 . S
H1895 C1870 0.950 . S
H1896 C1872 0.950 . S
H1897 C1873 0.949 . S
H1898 C1875 0.950 . S
H1899 C1877 0.950 . S
C1900 C1901 1.349 . S
C1900 C1902 1.327 . S
C1900 H1925 0.950 . S
C1901 C1900 1.349 . S
C1901 C1917 1.349 . S
C1902 C1900 1.327 . S
C1902 C1921 1.429 . S
C1902 H1926 0.950 . S
C1903 C1920 1.574 . S
C1903 C1922 1.368 1_556 S
C1903 H1927 0.949 . S
H1904 C1908 0.949 . S
C1905 C1906 1.349 . S
C1905 C1907 1.327 . S
C1905 H1928 0.950 . S
C1906 C1905 1.349 . S
C1906 C1918 1.349 . S
C1907 C1905 1.327 . S
C1907 C1923 1.429 . S
C1907 H1929 0.950 . S
C1908 H1904 0.949 . S
C1908 C1916 1.612 . S
C1908 C1924 1.368 1_554 S
H1909 C1917 0.950 . S
H1910 C1915 0.950 1_556 S
H1911 C1916 0.943 . S
H1912 C1918 0.950 . S
H1913 C1919 0.950 1_554 S
H1914 C1920 0.949 . S
C1915 H1910 0.950 1_554 S
C1915 C1917 1.327 . S
C1915 C1921 1.429 . S
C1916 C1908 1.612 . S
C1916 H1911 0.943 . S
C1916 C1922 1.338 1_545 S
C1917 C1901 1.349 . S
C1917 H1909 0.950 . S
C1917 C1915 1.327 . S
C1918 C1906 1.349 . S
C1918 H1912 0.950 . S
C1918 C1919 1.327 . S
C1919 H1913 0.950 1_556 S
C1919 C1918 1.327 . S
C1919 C1923 1.429 . S
C1920 C1903 1.574 . S
C1920 H1914 0.949 . S
C1920 C1924 1.368 1_565 S
C1921 C1902 1.429 . S
C1921 C1915 1.429 . S
C1921 C1922 1.523 . S
C1922 C1903 1.368 1_554 S
C1922 C1916 1.338 1_565 S
C1922 C1921 1.523 . S
C1923 C1907 1.429 . S
C1923 C1919 1.429 . S
C1923 C1924 1.523 . S
C1924 C1908 1.368 1_556 S
C1924 C1920 1.368 1_545 S
C1924 C1923 1.523 . S
H1925 C1900 0.950 . S
H1926 C1902 0.950 . S
H1927 C1903 0.949 . S
H1928 C1905 0.950 . S
H1929 C1907 0.950 . S
C1930 C1931 1.349 . S
C1930 C1932 1.327 . S
C1930 H1955 0.950 . S
C1931 C1930 1.349 . S
C1931 C1947 1.349 . S
C1932 C1930 1.327 . S
C1932 C1951 1.429 . S
C1932 H1956 0.950 . S
C1933 C1950 1.574 . S
C1933 C1952 1.368 . S
C1933 H1957 0.949 . S
H1934 C1938 0.949 . S
C1935 C1936 1.349 . S
C1935 C1937 1.327 . S
C1935 H1958 0.950 . S
C1936 C1935 1.349 . S
C1936 C1948 1.349 . S
C1937 C1935 1.327 . S
C1937 C1953 1.429 . S
C1937 H1959 0.950 . S
C1938 H1934 0.949 . S
C1938 C1946 1.574 . S
C1938 C1954 1.368 . S
H1939 C1947 0.950 . S
H1940 C1945 0.950 . S
H1941 C1946 0.949 . S
H1942 C1948 0.950 . S
H1943 C1949 0.950 . S
H1944 C1950 0.949 . S
C1945 H1940 0.950 . S
C1945 C1947 1.327 . S
C1945 C1951 1.429 . S
C1946 C1938 1.574 . S
C1946 H1941 0.949 . S
C1946 C1952 1.368 . S
C1947 C1931 1.349 . S
C1947 H1939 0.950 . S
C1947 C1945 1.327 . S
C1948 C1936 1.349 . S
C1948 H1942 0.950 . S
C1948 C1949 1.327 . S
C1949 H1943 0.950 . S
C1949 C1948 1.327 . S
C1949 C1953 1.429 . S
C1950 C1933 1.574 . S
C1950 H1944 0.949 . S
C1950 C1954 1.368 . S
C1951 C1932 1.429 . S
C1951 C1945 1.429 . S
C1951 C1952 1.523 . S
C1952 C1933 1.368 . S
C1952 C1946 1.368 . S
C1952 C1951 1.523 . S
C1953 C1937 1.429 . S
C1953 C1949 1.429 . S
C1953 C1954 1.523 . S
C1954 C1938 1.368 . S
C1954 C1950 1.368 . S
C1954 C1953 1.523 . S
H1955 C1930 0.950 . S
H1956 C1932 0.950 . S
H1957 C1933 0.949 . S
H1958 C1935 0.950 . S
H1959 C1937 0.950 . S
C1960 C1961 1.349 . S
C1960 C1962 1.327 . S
C1960 H1985 0.950 . S
C1961 C1960 1.349 . S
C1961 C1977 1.349 . S
C1962 C1960 1.327 . S
C1962 C1981 1.429 . S
C1962 H1986 0.950 . S
C1963 C1980 1.574 1_565 S
C1963 C1982 1.368 . S
C1963 H1987 0.949 . S
H1964 C1968 0.949 . S
C1965 C1966 1.349 . S
C1965 C1967 1.327 . S
C1965 H1988 0.950 . S
C1966 C1965 1.349 . S
C1966 C1978 1.349 . S
C1967 C1965 1.327 . S
C1967 C1983 1.429 . S
C1967 H1989 0.950 . S
C1968 H1964 0.949 . S
C1968 C1976 1.574 1_545 S
C1968 C1984 1.368 . S
H1969 C1977 0.950 . S
H1970 C1975 0.950 . S
H1971 C1976 0.949 . S
H1972 C1978 0.950 . S
H1973 C1979 0.950 . S
H1974 C1980 0.949 . S
C1975 H1970 0.950 . S
C1975 C1977 1.327 . S
C1975 C1981 1.429 . S
C1976 C1968 1.574 1_565 S
C1976 H1971 0.949 . S
C1976 C1982 1.368 . S
C1977 C1961 1.349 . S
C1977 H1969 0.950 . S
C1977 C1975 1.327 . S
C1978 C1966 1.349 . S
C1978 H1972 0.950 . S
C1978 C1979 1.327 . S
C1979 H1973 0.950 . S
C1979 C1978 1.327 . S
C1979 C1983 1.429 . S
C1980 C1963 1.574 1_545 S
C1980 H1974 0.949 . S
C1980 C1984 1.368 . S
C1981 C1962 1.429 . S
C1981 C1975 1.429 . S
C1981 C1982 1.523 . S
C1982 C1963 1.368 . S
C1982 C1976 1.368 . S
C1982 C1981 1.523 . S
C1983 C1967 1.429 . S
C1983 C1979 1.429 . S
C1983 C1984 1.523 . S
C1984 C1968 1.368 . S
C1984 C1980 1.368 . S
C1984 C1983 1.523 . S
H1985 C1960 0.950 . S
H1986 C1962 0.950 . S
H1987 C1963 0.949 . S
H1988 C1965 0.950 . S
H1989 C1967 0.950 . S
C1990 C1991 1.349 . S
C1990 C1992 1.327 . S
C1990 H2015 0.950 . S
C1991 C1990 1.349 . S
C1991 C2007 1.349 . S
C1992 C1990 1.327 . S
C1992 C2011 1.429 . S
C1992 H2016 0.950 . S
C1993 C2010 1.574 . S
C1993 C2012 1.368 . S
C1993 H2017 0.949 . S
H1994 C1998 0.949 . S
C1995 C1996 1.349 . S
C1995 C1997 1.327 . S
C1995 H2018 0.950 . S
C1996 C1995 1.349 . S
C1996 C2008 1.349 . S
C1997 C1995 1.327 . S
C1997 C2013 1.429 . S
C1997 H2019 0.950 . S
C1998 H1994 0.949 . S
C1998 C2006 1.574 . S
C1998 C2014 1.368 . S
H1999 C2007 0.950 . S
H2000 C2005 0.950 . S
H2001 C2006 0.949 . S
H2002 C2008 0.950 . S
H2003 C2009 0.950 . S
H2004 C2010 0.949 . S
C2005 H2000 0.950 . S
C2005 C2007 1.327 . S
C2005 C2011 1.429 . S
C2006 C1998 1.574 . S
C2006 H2001 0.949 . S
C2006 C2012 1.368 . S
C2007 C1991 1.349 . S
C2007 H1999 0.950 . S
C2007 C2005 1.327 . S
C2008 C1996 1.349 . S
C2008 H2002 0.950 . S
C2008 C2009 1.327 . S
C2009 H2003 0.950 . S
C2009 C2008 1.327 . S
C2009 C2013 1.429 . S
C2010 C1993 1.574 . S
C2010 H2004 0.949 . S
C2010 C2014 1.368 . S
C2011 C1992 1.429 . S
C2011 C2005 1.429 . S
C2011 C2012 1.523 . S
C2012 C1993 1.368 . S
C2012 C2006 1.368 . S
C2012 C2011 1.523 . S
C2013 C1997 1.429 . S
C2013 C2009 1.429 . S
C2013 C2014 1.523 . S
C2014 C1998 1.368 . S
C2014 C2010 1.368 . S
C2014 C2013 1.523 . S
H2015 C1990 0.950 . S
H2016 C1992 0.950 . S
H2017 C1993 0.949 . S
H2018 C1995 0.950 . S
H2019 C1997 0.950 . S
C2020 C2021 1.349 . S
C2020 C2022 1.327 . S
C2020 H2045 0.950 . S
C2021 C2020 1.349 . S
C2021 C2037 1.349 . S
C2022 C2020 1.327 . S
C2022 C2041 1.429 . S
C2022 H2046 0.950 . S
C2023 C2040 1.574 1_545 S
C2023 C2042 1.368 1_554 S
C2023 H2047 0.949 . S
H2024 C2028 0.949 . S
C2025 C2026 1.349 . S
C2025 C2027 1.327 . S
C2025 H2048 0.950 . S
C2026 C2025 1.349 . S
C2026 C2038 1.349 . S
C2027 C2025 1.327 . S
C2027 C2043 1.429 . S
C2027 H2049 0.950 . S
C2028 H2024 0.949 . S
C2028 C2036 1.574 . S
C2028 C2044 1.368 1_556 S
H2029 C2037 0.950 . S
H2030 C2035 0.950 1_554 S
H2031 C2036 0.962 . S
H2032 C2038 0.950 . S
H2033 C2039 0.950 1_556 S
H2034 C2040 0.949 . S
C2035 H2030 0.950 1_556 S
C2035 C2037 1.327 . S
C2035 C2041 1.429 . S
C2036 C2028 1.574 . S
C2036 H2031 0.962 . S
C2036 C2042 1.368 1_565 S
C2037 C2021 1.349 . S
C2037 H2029 0.950 . S
C2037 C2035 1.327 . S
C2038 C2026 1.349 . S
C2038 H2032 0.950 . S
C2038 C2039 1.327 . S
C2039 H2033 0.950 1_554 S
C2039 C2038 1.327 . S
C2039 C2043 1.429 . S
C2040 C2023 1.574 1_565 S
C2040 H2034 0.949 . S
C2040 C2044 1.368 . S
C2041 C2022 1.429 . S
C2041 C2035 1.429 . S
C2041 C2042 1.523 . S
C2042 C2023 1.368 1_556 S
C2042 C2036 1.368 1_545 S
C2042 C2041 1.523 . S
C2043 C2027 1.429 . S
C2043 C2039 1.429 . S
C2043 C2044 1.523 . S
C2044 C2028 1.368 1_554 S
C2044 C2040 1.368 . S
C2044 C2043 1.523 . S
H2045 C2020 0.950 . S
H2046 C2022 0.950 . S
H2047 C2023 0.949 . S
H2048 C2025 0.950 . S
H2049 C2027 0.950 . S
C2050 C2051 1.349 . S
C2050 C2052 1.327 . S
C2050 H2075 0.950 . S
C2051 C2050 1.349 . S
C2051 C2067 1.349 . S
C2052 C2050 1.327 . S
C2052 C2071 1.429 . S
C2052 H2076 0.950 . S
C2053 C2070 1.574 . S
C2053 C2072 1.368 . S
C2053 H2077 0.949 . S
H2054 C2058 0.949 . S
C2055 C2056 1.349 . S
C2055 C2057 1.327 . S
C2055 H2078 0.950 . S
C2056 C2055 1.349 . S
C2056 C2068 1.349 . S
C2057 C2055 1.327 . S
C2057 C2073 1.429 . S
C2057 H2079 0.950 . S
C2058 H2054 0.949 . S
C2058 C2066 1.574 . S
C2058 C2074 1.368 . S
H2059 C2067 0.950 . S
H2060 C2065 0.950 . S
H2061 C2066 0.949 . S
H2062 C2068 0.950 . S
H2063 C2069 0.950 . S
H2064 C2070 0.949 . S
C2065 H2060 0.950 . S
C2065 C2067 1.327 . S
C2065 C2071 1.429 . S
C2066 C2058 1.574 . S
C2066 H2061 0.949 . S
C2066 C2072 1.368 . S
C2067 C2051 1.349 . S
C2067 H2059 0.950 . S
C2067 C2065 1.327 . S
C2068 C2056 1.349 . S
C2068 H2062 0.950 . S
C2068 C2069 1.327 . S
C2069 H2063 0.950 . S
C2069 C2068 1.327 . S
C2069 C2073 1.429 . S
C2070 C2053 1.574 . S
C2070 H2064 0.949 . S
C2070 C2074 1.368 . S
C2071 C2052 1.429 . S
C2071 C2065 1.429 . S
C2071 C2072 1.523 . S
C2072 C2053 1.368 . S
C2072 C2066 1.368 . S
C2072 C2071 1.523 . S
C2073 C2057 1.429 . S
C2073 C2069 1.429 . S
C2073 C2074 1.523 . S
C2074 C2058 1.368 . S
C2074 C2070 1.368 . S
C2074 C2073 1.523 . S
H2075 C2050 0.950 . S
H2076 C2052 0.950 . S
H2077 C2053 0.949 . S
H2078 C2055 0.950 . S
H2079 C2057 0.950 . S
C641 C7 1.894 . S
C646 C16 1.894 . S
C671 C56 1.841 . S
C676 C47 1.841 . S
C701 C87 1.793 . S
C706 C96 1.793 . S
C731 C127 1.584 . S
C736 C136 1.584 . S
C761 C167 1.823 . S
C766 C176 1.823 . S
C791 C216 1.583 . S
C796 C207 1.583 . S
C821 C256 1.575 . S
C826 C247 1.575 . S
C851 C296 1.897 . S
C856 C287 1.897 . S
C881 C336 1.811 . S
C886 C327 1.811 . S
C911 C376 1.803 . S
C916 C367 1.803 . S
C941 C416 1.644 . S
C946 C407 1.644 . S
C971 C456 1.558 . S
C976 C447 1.558 . S
C1001 C496 1.866 . S
C1006 C487 1.866 . S
C1031 C536 1.646 . S
C1036 C527 1.646 . S
C1061 C567 1.600 . S
C1066 C576 1.600 . S
C1091 C607 1.990 . S
C1096 C616 1.990 . S
C1121 C10 1.631 . S
C1126 C451 1.707 . S
C1151 C42 1.670 . S
C1156 C611 1.656 . S
C1181 C90 1.639 . S
C1186 C379 1.604 . S
C1211 C130 1.775 . S
C1216 C539 1.778 . S
C1241 C170 1.688 . S
C1246 C531 1.713 . S
C1271 C459 1.741 . S
C1276 C210 1.747 . S
C1301 C242 1.677 . S
C1306 C619 1.583 . S
C1331 C282 1.784 . S
C1336 C371 1.778 . S
C1361 C122 1.732 . S
C1366 C339 1.673 . S
C1391 C50 1.640 . S
C1396 C411 1.709 . S
C1421 C499 1.681 . S
C1426 C202 1.749 . S
C1451 C290 1.568 . S
C1456 C571 1.645 . S
C1481 C331 1.791 . S
C1486 C162 1.769 . S
C1511 C250 1.771 . S
C1516 C419 1.825 . S
C1541 C82 1.906 . S
C1546 C579 1.870 . S
C1571 C2 1.703 . S
C1576 C491 1.702 . S
C1601 C19 1.270 . S
C1606 C179 1.267 . S
C1631 C51 1.711 . S
C1636 C219 1.708 . S
C1661 C99 2.059 . S
C1666 C251 2.062 . S
C1691 C139 1.689 . S
C1696 C291 1.693 . S
C1721 C490 1.368 . S
C1726 C330 1.369 . S
C1751 C530 1.941 . S
C1756 C362 1.941 . S
C1781 C402 1.890 . S
C1786 C562 1.891 . S
C1811 C602 1.565 . S
C1816 C450 1.561 . S
C1841 C59 1.247 . S
C1846 C299 1.248 . S
C1871 C171 1.780 . S
C1876 C91 1.786 . S
C1901 C211 2.076 . S
C1906 C131 2.076 . S
C1931 C11 1.686 . S
C1936 C259 1.685 . S
C1961 C610 1.205 . S
C1966 C370 1.200 . S
C1991 C482 1.695 . S
C1996 C410 1.690 . S
C2021 C522 2.092 . S
C2026 C442 2.091 . S
C2051 C570 1.772 . S
C2056 C322 1.772 . S
