# Generated by pormake.
# Topology wiv, (6)-cn, num edge types: 1
# Building blocks:
#     Node 0, Type 0, BuildingBlock: CUWYAW_clean_sbu_0, # of connection points: 6
#     Node 1, Type 0, BuildingBlock: CUWYAW_clean_sbu_0, # of connection points: 6
#     Node 2, Type 0, BuildingBlock: CUWYAW_clean_sbu_0, # of connection points: 6
#     Node 3, Type 0, BuildingBlock: CUWYAW_clean_sbu_0, # of connection points: 6
#     Node 4, Type 0, BuildingBlock: CUWYAW_clean_sbu_0, # of connection points: 6
#     Node 5, Type 0, BuildingBlock: CUWYAW_clean_sbu_0, # of connection points: 6
#     Node 6, Type 0, BuildingBlock: CUWYAW_clean_sbu_0, # of connection points: 6
#     Node 7, Type 0, BuildingBlock: CUWYAW_clean_sbu_0, # of connection points: 6
#     Node 8, Type 0, BuildingBlock: CUWYAW_clean_sbu_0, # of connection points: 6
#     Node 9, Type 0, BuildingBlock: CUWYAW_clean_sbu_0, # of connection points: 6
#     Node 10, Type 0, BuildingBlock: CUWYAW_clean_sbu_0, # of connection points: 6
#     Node 11, Type 0, BuildingBlock: CUWYAW_clean_sbu_0, # of connection points: 6
#     Node 12, Type 0, BuildingBlock: CUWYAW_clean_sbu_0, # of connection points: 6
#     Node 13, Type 0, BuildingBlock: CUWYAW_clean_sbu_0, # of connection points: 6
#     Node 14, Type 0, BuildingBlock: CUWYAW_clean_sbu_0, # of connection points: 6
#     Node 15, Type 0, BuildingBlock: CUWYAW_clean_sbu_0, # of connection points: 6
#     Edge 16, Type (0, 0), BuildingBlock: XIVTED_clean_linker_0, # of connection points: 2
#     Edge 17, Type (0, 0), BuildingBlock: XIVTED_clean_linker_0, # of connection points: 2
#     Edge 18, Type (0, 0), BuildingBlock: XIVTED_clean_linker_0, # of connection points: 2
#     Edge 19, Type (0, 0), BuildingBlock: XIVTED_clean_linker_0, # of connection points: 2
#     Edge 20, Type (0, 0), BuildingBlock: XIVTED_clean_linker_0, # of connection points: 2
#     Edge 21, Type (0, 0), BuildingBlock: XIVTED_clean_linker_0, # of connection points: 2
#     Edge 22, Type (0, 0), BuildingBlock: XIVTED_clean_linker_0, # of connection points: 2
#     Edge 23, Type (0, 0), BuildingBlock: XIVTED_clean_linker_0, # of connection points: 2
#     Edge 24, Type (0, 0), BuildingBlock: XIVTED_clean_linker_0, # of connection points: 2
#     Edge 25, Type (0, 0), BuildingBlock: XIVTED_clean_linker_0, # of connection points: 2
#     Edge 26, Type (0, 0), BuildingBlock: XIVTED_clean_linker_0, # of connection points: 2
#     Edge 27, Type (0, 0), BuildingBlock: XIVTED_clean_linker_0, # of connection points: 2
#     Edge 28, Type (0, 0), BuildingBlock: XIVTED_clean_linker_0, # of connection points: 2
#     Edge 29, Type (0, 0), BuildingBlock: XIVTED_clean_linker_0, # of connection points: 2
#     Edge 30, Type (0, 0), BuildingBlock: XIVTED_clean_linker_0, # of connection points: 2
#     Edge 31, Type (0, 0), BuildingBlock: XIVTED_clean_linker_0, # of connection points: 2
#     Edge 32, Type (0, 0), BuildingBlock: XIVTED_clean_linker_0, # of connection points: 2
#     Edge 33, Type (0, 0), BuildingBlock: XIVTED_clean_linker_0, # of connection points: 2
#     Edge 34, Type (0, 0), BuildingBlock: XIVTED_clean_linker_0, # of connection points: 2
#     Edge 35, Type (0, 0), BuildingBlock: XIVTED_clean_linker_0, # of connection points: 2
#     Edge 36, Type (0, 0), BuildingBlock: XIVTED_clean_linker_0, # of connection points: 2
#     Edge 37, Type (0, 0), BuildingBlock: XIVTED_clean_linker_0, # of connection points: 2
#     Edge 38, Type (0, 0), BuildingBlock: XIVTED_clean_linker_0, # of connection points: 2
#     Edge 39, Type (0, 0), BuildingBlock: XIVTED_clean_linker_0, # of connection points: 2
#     Edge 40, Type (0, 0), BuildingBlock: XIVTED_clean_linker_0, # of connection points: 2
#     Edge 41, Type (0, 0), BuildingBlock: XIVTED_clean_linker_0, # of connection points: 2
#     Edge 42, Type (0, 0), BuildingBlock: XIVTED_clean_linker_0, # of connection points: 2
#     Edge 43, Type (0, 0), BuildingBlock: XIVTED_clean_linker_0, # of connection points: 2
#     Edge 44, Type (0, 0), BuildingBlock: XIVTED_clean_linker_0, # of connection points: 2
#     Edge 45, Type (0, 0), BuildingBlock: XIVTED_clean_linker_0, # of connection points: 2
#     Edge 46, Type (0, 0), BuildingBlock: XIVTED_clean_linker_0, # of connection points: 2
#     Edge 47, Type (0, 0), BuildingBlock: XIVTED_clean_linker_0, # of connection points: 2
#     Edge 48, Type (0, 0), BuildingBlock: XIVTED_clean_linker_0, # of connection points: 2
#     Edge 49, Type (0, 0), BuildingBlock: XIVTED_clean_linker_0, # of connection points: 2
#     Edge 50, Type (0, 0), BuildingBlock: XIVTED_clean_linker_0, # of connection points: 2
#     Edge 51, Type (0, 0), BuildingBlock: XIVTED_clean_linker_0, # of connection points: 2
#     Edge 52, Type (0, 0), BuildingBlock: XIVTED_clean_linker_0, # of connection points: 2
#     Edge 53, Type (0, 0), BuildingBlock: XIVTED_clean_linker_0, # of connection points: 2
#     Edge 54, Type (0, 0), BuildingBlock: XIVTED_clean_linker_0, # of connection points: 2
#     Edge 55, Type (0, 0), BuildingBlock: XIVTED_clean_linker_0, # of connection points: 2
#     Edge 56, Type (0, 0), BuildingBlock: XIVTED_clean_linker_0, # of connection points: 2
#     Edge 57, Type (0, 0), BuildingBlock: XIVTED_clean_linker_0, # of connection points: 2
#     Edge 58, Type (0, 0), BuildingBlock: XIVTED_clean_linker_0, # of connection points: 2
#     Edge 59, Type (0, 0), BuildingBlock: XIVTED_clean_linker_0, # of connection points: 2
#     Edge 60, Type (0, 0), BuildingBlock: XIVTED_clean_linker_0, # of connection points: 2
#     Edge 61, Type (0, 0), BuildingBlock: XIVTED_clean_linker_0, # of connection points: 2
#     Edge 62, Type (0, 0), BuildingBlock: XIVTED_clean_linker_0, # of connection points: 2
#     Edge 63, Type (0, 0), BuildingBlock: XIVTED_clean_linker_0, # of connection points: 2
# Relax obj value: 0.130
# Max RMSD: 0.187
# Mean RMSD: 0.187
data_MOF--net-wiv--node1-CUWYAW_clean_sbu_0--edge1-XIVTED_clean_linker_0
_symmetry_space_group_name_H-M    P1
_symmetry_Int_Tables_number       1
_symmetry_cell_setting            triclinic
loop_
_symmetry_equiv_pos_as_xyz
'x, y, z'
_cell_length_a     51.273959
_cell_length_b     51.272246
_cell_length_c     25.050019
_cell_angle_alpha  89.897892
_cell_angle_beta   89.948969
_cell_angle_gamma 90.024922
loop_
_atom_site_label
_atom_site_type_symbol
_atom_site_fract_x
_atom_site_fract_y
_atom_site_fract_z
_atom_type_partial_charge
C0 C 0.4064 0.12498 0.98462 0.0
Eu1 Eu 0.38407 0.11325 0.07545 0.0
C2 C 0.39977 0.12265 0.92707 0.0
C3 C 0.41828 0.11266 0.89121 0.0
C4 C 0.41236 0.10995 0.83685 0.0
C5 C 0.3877 0.11716 0.81686 0.0
C6 C 0.36919 0.12723 0.853 0.0
C7 C 0.37516 0.12997 0.90735 0.0
C8 C 0.38337 0.06475 0.1194 0.0
C9 C 0.32238 0.10088 0.04833 0.0
C10 C 0.32493 0.09347 0.25647 0.0
Eu11 Eu 0.3465 0.10618 0.16527 0.0
C12 C 0.33179 0.09528 0.31392 0.0
C13 C 0.31302 0.10393 0.35062 0.0
C14 C 0.3191 0.10632 0.40494 0.0
C15 C 0.34418 0.10008 0.42403 0.0
C16 C 0.36295 0.09124 0.3871 0.0
C17 C 0.35684 0.0889 0.3327 0.0
C18 C 0.34907 0.15621 0.12887 0.0
C19 C 0.40862 0.11917 0.18962 0.0
O20 O 0.39293 0.14165 1.01303 0.0
O21 O 0.41067 0.10317 1.0103 0.0
O22 O 0.40446 0.07672 0.10455 0.0
O23 O 0.36359 0.07845 0.10863 0.0
O24 O 0.34505 0.1105 0.0327 0.0
O25 O 0.3183 0.09466 0.09905 0.0
O26 O 0.3383 0.07718 0.22706 0.0
O27 O 0.32048 0.11548 0.23184 0.0
O28 O 0.32769 0.14413 0.14144 0.0
O29 O 0.36833 0.14117 0.13555 0.0
O30 O 0.38663 0.10807 0.20593 0.0
O31 O 0.41133 0.12723 0.13981 0.0
H32 H 0.43742 0.10694 0.9053 0.0
H33 H 0.42728 0.10249 0.81036 0.0
H34 H 0.34988 0.13265 0.83949 0.0
H35 H 0.36041 0.13768 0.93397 0.0
H36 H 0.29356 0.10891 0.33721 0.0
H37 H 0.30401 0.11282 0.43208 0.0
H38 H 0.38253 0.08653 0.40004 0.0
H39 H 0.37177 0.08225 0.30533 0.0
C40 C 0.08746 0.68386 0.79806 0.0
Eu41 Eu 0.10061 0.65692 0.88225 0.0
C42 C 0.09163 0.67952 0.74021 0.0
C43 C 0.10847 0.65975 0.72242 0.0
C44 C 0.11134 0.65464 0.66774 0.0
C45 C 0.09727 0.66906 0.62946 0.0
C46 C 0.08048 0.68895 0.64759 0.0
C47 C 0.07771 0.69411 0.70235 0.0
C48 C 0.15017 0.64097 0.90175 0.0
C49 C 0.11014 0.5951 0.86363 0.0
C50 C 0.11369 0.60006 0.0707 0.0
Eu51 Eu 0.10495 0.62131 0.97722 0.0
C52 C 0.11299 0.60887 0.1272 0.0
C53 C 0.09387 0.62645 0.14503 0.0
C54 C 0.09268 0.63395 0.19877 0.0
C55 C 0.11037 0.62379 0.23649 0.0
C56 C 0.12966 0.6063 0.21829 0.0
C57 C 0.13096 0.59899 0.16431 0.0
C58 C 0.05777 0.62122 0.92708 0.0
C59 C 0.09647 0.68327 1.00029 0.0
O60 O 0.07192 0.6671 0.8215 0.0
O61 O 0.10826 0.68894 0.82667 0.0
O62 O 0.14001 0.64329 0.85478 0.0
O63 O 0.13391 0.64771 0.9373 0.0
O64 O 0.09762 0.61614 0.84659 0.0
O65 O 0.1195 0.59391 0.91283 0.0
O66 O 0.13228 0.60934 0.04023 0.0
O67 O 0.09129 0.59917 0.04597 0.0
O68 O 0.06941 0.60032 0.94403 0.0
O69 O 0.0714 0.64104 0.93768 0.0
O70 O 0.09688 0.65927 1.01915 0.0
O71 O 0.09846 0.68801 0.94823 0.0
H72 H 0.11914 0.64796 0.75091 0.0
H73 H 0.12414 0.63894 0.65555 0.0
H74 H 0.06952 0.70064 0.61942 0.0
H75 H 0.06449 0.70934 0.71515 0.0
H76 H 0.07959 0.63419 0.11746 0.0
H77 H 0.07783 0.64779 0.21062 0.0
H78 H 0.14344 0.59772 0.24592 0.0
H79 H 0.14578 0.58526 0.15171 0.0
C80 C 0.60189 0.88515 0.97448 0.0
Eu81 Eu 0.62486 0.89505 0.06532 0.0
C82 C 0.60879 0.88681 0.91709 0.0
C83 C 0.5906 0.89679 0.88058 0.0
C84 C 0.59679 0.89883 0.82623 0.0
C85 C 0.62138 0.89092 0.80706 0.0
C86 C 0.63959 0.88092 0.84387 0.0
C87 C 0.63337 0.87888 0.89822 0.0
C88 C 0.62775 0.94273 0.11202 0.0
C89 C 0.68695 0.90414 0.03885 0.0
C90 C 0.6856 0.90673 0.24693 0.0
Eu91 Eu 0.66241 0.89794 0.15558 0.0
C92 C 0.67868 0.90563 0.30431 0.0
C93 C 0.69664 0.8954 0.34097 0.0
C94 C 0.69043 0.89376 0.39534 0.0
C95 C 0.66603 0.90229 0.41439 0.0
C96 C 0.64808 0.91265 0.37744 0.0
C97 C 0.65434 0.91431 0.32303 0.0
C98 C 0.65741 0.84925 0.11416 0.0
C99 C 0.59961 0.88856 0.17901 0.0
O100 O 0.61392 0.86746 1.00305 0.0
O101 O 0.59947 0.90729 0.99977 0.0
O102 O 0.60635 0.93247 0.09414 0.0
O103 O 0.64698 0.9281 0.10179 0.0
O104 O 0.66375 0.89651 0.02244 0.0
O105 O 0.69143 0.9088 0.09008 0.0
O106 O 0.67455 0.92489 0.21814 0.0
O107 O 0.68672 0.88446 0.22191 0.0
O108 O 0.67943 0.86011 0.1266 0.0
O109 O 0.63883 0.86488 0.12297 0.0
O110 O 0.62236 0.89724 0.19688 0.0
O111 O 0.59645 0.88247 0.1283 0.0
H112 H 0.57152 0.90299 0.89413 0.0
H113 H 0.58214 0.90629 0.79912 0.0
H114 H 0.65883 0.87499 0.83084 0.0
H115 H 0.64785 0.87121 0.92547 0.0
H116 H 0.71556 0.88866 0.32751 0.0
H117 H 0.70492 0.88604 0.42253 0.0
H118 H 0.629 0.91913 0.39038 0.0
H119 H 0.64009 0.92228 0.2956 0.0
C120 C 0.90908 0.32335 0.79612 0.0
Eu121 Eu 0.89494 0.34462 0.88659 0.0
C122 C 0.9058 0.32936 0.73873 0.0
C123 C 0.8872 0.34757 0.72128 0.0
C124 C 0.88458 0.35334 0.66677 0.0
C125 C 0.90049 0.341 0.62844 0.0
C126 C 0.91914 0.32279 0.64639 0.0
C127 C 0.92175 0.31708 0.70089 0.0
C128 C 0.84463 0.3491 0.91979 0.0
C129 C 0.88384 0.40757 0.86335 0.0
C130 C 0.87799 0.40435 0.06812 0.0
Eu131 Eu 0.88912 0.38192 0.9772 0.0
C132 C 0.87999 0.39735 0.12538 0.0
C133 C 0.89891 0.37964 0.14359 0.0
C134 C 0.90071 0.37333 0.19798 0.0
C135 C 0.88372 0.38474 0.23553 0.0
C136 C 0.86473 0.40241 0.21691 0.0
C137 C 0.86288 0.40859 0.16248 0.0
C138 C 0.93785 0.37898 0.93462 0.0
C139 C 0.89882 0.32006 1.00399 0.0
O140 O 0.92379 0.33938 0.82321 0.0
O141 O 0.88808 0.31665 0.82244 0.0
O142 O 0.85567 0.32743 0.9055 0.0
O143 O 0.86076 0.36775 0.91601 0.0
O144 O 0.89198 0.38466 0.84514 0.0
O145 O 0.87805 0.41098 0.9142 0.0
O146 O 0.86088 0.3914 0.03986 0.0
O147 O 0.89997 0.40775 0.04252 0.0
O148 O 0.9269 0.40054 0.94959 0.0
O149 O 0.92302 0.35993 0.94467 0.0
O150 O 0.8894 0.34278 1.01922 0.0
O151 O 0.90559 0.3161 0.95351 0.0
H152 H 0.87466 0.35728 0.74983 0.0
H153 H 0.86981 0.36722 0.65465 0.0
H154 H 0.93204 0.31319 0.61841 0.0
H155 H 0.93636 0.30311 0.71351 0.0
H156 H 0.91241 0.37074 0.11575 0.0
H157 H 0.91575 0.35987 0.21069 0.0
H158 H 0.85105 0.41131 0.24434 0.0
H159 H 0.84808 0.42224 0.14935 0.0
C160 C 0.40425 0.38575 0.32545 0.0
Eu161 Eu 0.38128 0.39569 0.23453 0.0
C162 C 0.39733 0.38666 0.38284 0.0
C163 C 0.41581 0.39546 0.41992 0.0
C164 C 0.40965 0.39687 0.47433 0.0
C165 C 0.38477 0.38957 0.493 0.0
C166 C 0.36623 0.38082 0.45558 0.0
C167 C 0.37246 0.37932 0.40115 0.0
C168 C 0.37877 0.44317 0.18666 0.0
C169 C 0.3193 0.40553 0.26117 0.0
C170 C 0.32067 0.40751 0.05293 0.0
Eu171 Eu 0.34358 0.39844 0.1445 0.0
C172 C 0.32756 0.40563 0.99564 0.0
C173 C 0.30847 0.39822 0.9586 0.0
C174 C 0.31449 0.39637 0.90417 0.0
C175 C 0.33982 0.4019 0.88543 0.0
C176 C 0.35898 0.40919 0.92289 0.0
C177 C 0.35293 0.41101 0.97735 0.0
C178 C 0.3478 0.34994 0.18727 0.0
C179 C 0.40646 0.38856 0.12074 0.0
O180 O 0.39281 0.36793 0.29628 0.0
O181 O 0.4059 0.40821 0.30092 0.0
O182 O 0.40009 0.43284 0.20483 0.0
O183 O 0.35941 0.42874 0.19731 0.0
O184 O 0.34246 0.3978 0.27767 0.0
O185 O 0.31478 0.40995 0.20983 0.0
O186 O 0.33267 0.42536 0.08083 0.0
O187 O 0.31848 0.38554 0.07897 0.0
O188 O 0.32597 0.36111 0.17454 0.0
O189 O 0.36668 0.36526 0.1781 0.0
O190 O 0.38329 0.39571 0.10239 0.0
O191 O 0.41038 0.38421 0.172 0.0
H192 H 0.43506 0.40137 0.40673 0.0
H193 H 0.42431 0.40408 0.50168 0.0
H194 H 0.34697 0.37477 0.4684 0.0
H195 H 0.35781 0.37242 0.37344 0.0
H196 H 0.28882 0.39382 0.97182 0.0
H197 H 0.29932 0.39026 0.87687 0.0
H198 H 0.3786 0.4139 0.9101 0.0
H199 H 0.36807 0.41676 1.00505 0.0
C200 C 0.40821 0.6817 1.00465 0.0
Eu201 Eu 0.3948 0.66028 0.91398 0.0
C202 C 0.40625 0.67471 0.06216 0.0
C203 C 0.39477 0.69227 0.0981 0.0
C204 C 0.39245 0.68603 0.15243 0.0
C205 C 0.40166 0.66202 0.17239 0.0
C206 C 0.41324 0.64446 0.13617 0.0
C207 C 0.41547 0.6507 0.0818 0.0
C208 C 0.34448 0.65562 0.88088 0.0
C209 C 0.38368 0.59775 0.93865 0.0
C210 C 0.37799 0.59949 0.73362 0.0
Eu211 Eu 0.38849 0.62248 0.82424 0.0
C212 C 0.37958 0.60633 0.67594 0.0
C213 C 0.394 0.59044 0.64112 0.0
C214 C 0.39617 0.59671 0.58677 0.0
C215 C 0.384 0.61911 0.56577 0.0
C216 C 0.36946 0.63496 0.60074 0.0
C217 C 0.36718 0.62859 0.65505 0.0
C218 C 0.43739 0.62558 0.8662 0.0
C219 C 0.39696 0.68449 0.79661 0.0
O220 O 0.42415 0.668 0.97507 0.0
O221 O 0.38635 0.68687 0.98007 0.0
O222 O 0.3554 0.67737 0.89505 0.0
O223 O 0.36057 0.63705 0.88539 0.0
O224 O 0.39414 0.62007 0.95476 0.0
O225 O 0.37564 0.59479 0.88894 0.0
O226 O 0.36047 0.61153 0.76259 0.0
O227 O 0.40016 0.59682 0.75876 0.0
O228 O 0.4261 0.60392 0.85283 0.0
O229 O 0.42264 0.64461 0.85565 0.0
O230 O 0.38732 0.66169 0.78231 0.0
O231 O 0.40474 0.68856 0.84641 0.0
H232 H 0.38742 0.71087 0.08406 0.0
H233 H 0.38304 0.69993 0.1786 0.0
H234 H 0.42091 0.62596 0.14986 0.0
H235 H 0.42447 0.63669 0.05521 0.0
H236 H 0.40376 0.57318 0.65606 0.0
H237 H 0.40778 0.58419 0.56138 0.0
H238 H 0.35952 0.65216 0.58604 0.0
H239 H 0.35573 0.64116 0.68065 0.0
C240 C 0.59722 0.62475 0.31235 0.0
Eu241 Eu 0.61799 0.61222 0.22076 0.0
C242 C 0.60476 0.6232 0.36945 0.0
C243 C 0.58707 0.61268 0.40643 0.0
C244 C 0.59386 0.61009 0.4603 0.0
C245 C 0.61856 0.61804 0.47878 0.0
C246 C 0.63629 0.62862 0.44151 0.0
C247 C 0.62948 0.63115 0.38747 0.0
C248 C 0.61676 0.56415 0.17562 0.0
C249 C 0.68009 0.59864 0.24439 0.0
C250 C 0.67361 0.57878 0.03873 0.0
Eu251 Eu 0.65616 0.6016 0.12446 0.0
C252 C 0.66927 0.58251 0.98034 0.0
C253 C 0.68657 0.59748 0.9492 0.0
C254 C 0.68181 0.60162 0.89464 0.0
C255 C 0.65961 0.59091 0.86987 0.0
C256 C 0.64266 0.57548 0.90084 0.0
C257 C 0.64746 0.57125 0.95515 0.0
C258 C 0.65358 0.65397 0.14002 0.0
C259 C 0.59471 0.62071 0.10526 0.0
O260 O 0.6097 0.64144 0.28186 0.0
O261 O 0.59309 0.60245 0.28857 0.0
O262 O 0.59605 0.57655 0.19127 0.0
O263 O 0.63689 0.57748 0.18545 0.0
O264 O 0.65683 0.60597 0.26172 0.0
O265 O 0.6849 0.59435 0.19287 0.0
O266 O 0.65357 0.57036 0.06627 0.0
O267 O 0.68684 0.59678 0.06431 0.0
O268 O 0.66845 0.64273 0.1051 0.0
O269 O 0.64152 0.63676 0.16664 0.0
O270 O 0.61591 0.60882 0.08663 0.0
O271 O 0.59226 0.62761 0.15585 0.0
H272 H 0.56799 0.60619 0.39349 0.0
H273 H 0.57982 0.60138 0.48728 0.0
H274 H 0.65538 0.63521 0.45408 0.0
H275 H 0.64361 0.63921 0.35983 0.0
H276 H 0.70366 0.60627 0.96711 0.0
H277 H 0.69523 0.6137 0.87213 0.0
H278 H 0.62567 0.56647 0.88301 0.0
H279 H 0.63387 0.55925 0.97746 0.0
C280 C 0.59127 0.32134 0.9928 0.0
Eu281 Eu 0.60254 0.34867 0.90802 0.0
C282 C 0.59466 0.32648 0.05071 0.0
C283 C 0.59863 0.30589 0.08678 0.0
C284 C 0.60166 0.31082 0.14161 0.0
C285 C 0.60081 0.33651 0.16164 0.0
C286 C 0.59686 0.35706 0.1251 0.0
C287 C 0.59391 0.35212 0.07047 0.0
C288 C 0.65112 0.36678 0.88617 0.0
C289 C 0.60959 0.41111 0.92583 0.0
C290 C 0.61137 0.4061 0.71924 0.0
Eu291 Eu 0.6043 0.38412 0.81259 0.0
C292 C 0.61358 0.39805 0.66265 0.0
C293 C 0.60879 0.41643 0.62233 0.0
C294 C 0.60903 0.40908 0.56849 0.0
C295 C 0.61396 0.38307 0.55352 0.0
C296 C 0.61889 0.36466 0.59419 0.0
C297 C 0.61879 0.3721 0.64817 0.0
C298 C 0.55809 0.38334 0.86627 0.0
C299 C 0.5983 0.32195 0.79028 0.0
O300 O 0.57443 0.33631 0.96808 0.0
O301 O 0.61259 0.31771 0.96485 0.0
O302 O 0.64138 0.36431 0.93351 0.0
O303 O 0.63492 0.35908 0.85124 0.0
O304 O 0.59952 0.38919 0.94501 0.0
O305 O 0.61699 0.41306 0.87536 0.0
O306 O 0.63052 0.39999 0.75155 0.0
O307 O 0.58852 0.4026 0.74117 0.0
O308 O 0.56884 0.40441 0.84775 0.0
O309 O 0.57196 0.36378 0.855 0.0
O310 O 0.59752 0.34589 0.7714 0.0
O311 O 0.60118 0.31737 0.84222 0.0
H312 H 0.59942 0.28596 0.07254 0.0
H313 H 0.605 0.29448 0.16818 0.0
H314 H 0.59562 0.37705 0.13871 0.0
H315 H 0.59084 0.36842 0.04368 0.0
H316 H 0.60445 0.43649 0.63255 0.0
H317 H 0.60472 0.42375 0.53861 0.0
H318 H 0.623 0.34452 0.58434 0.0
H319 H 0.62256 0.35755 0.67854 0.0
C320 C 0.90507 0.61463 0.46696 0.0
Eu321 Eu 0.88176 0.60581 0.55812 0.0
C322 C 0.89797 0.614 0.4096 0.0
C323 C 0.91568 0.60373 0.37245 0.0
C324 C 0.90921 0.60229 0.31819 0.0
C325 C 0.88478 0.61104 0.29971 0.0
C326 C 0.86706 0.62136 0.33716 0.0
C327 C 0.87361 0.62289 0.39143 0.0
C328 C 0.8791 0.55856 0.60703 0.0
C329 C 0.8197 0.59651 0.53108 0.0
C330 C 0.82149 0.59192 0.73926 0.0
Eu331 Eu 0.84383 0.60259 0.64785 0.0
C332 C 0.82863 0.59352 0.79652 0.0
C333 C 0.80998 0.60178 0.83385 0.0
C334 C 0.81631 0.60371 0.88812 0.0
C335 C 0.8415 0.59738 0.90649 0.0
C336 C 0.86018 0.58912 0.86879 0.0
C337 C 0.85383 0.58725 0.81446 0.0
C338 C 0.84779 0.65132 0.60596 0.0
C339 C 0.90668 0.61337 0.6718 0.0
O340 O 0.89464 0.633 0.49631 0.0
O341 O 0.90564 0.59212 0.4915 0.0
O342 O 0.90068 0.56935 0.5914 0.0
O343 O 0.85988 0.57271 0.59461 0.0
O344 O 0.84287 0.60457 0.51509 0.0
O345 O 0.81515 0.59145 0.58217 0.0
O346 O 0.83372 0.57459 0.71027 0.0
O347 O 0.81854 0.61407 0.71416 0.0
O348 O 0.82604 0.64009 0.61935 0.0
O349 O 0.86677 0.63606 0.61456 0.0
O350 O 0.88351 0.60601 0.69011 0.0
O351 O 0.91064 0.61774 0.62053 0.0
H352 H 0.93452 0.59662 0.3855 0.0
H353 H 0.92323 0.59388 0.29084 0.0
H354 H 0.84819 0.62854 0.32449 0.0
H355 H 0.85956 0.63096 0.41917 0.0
H356 H 0.79047 0.60688 0.82095 0.0
H357 H 0.80151 0.61057 0.91555 0.0
H358 H 0.87966 0.58375 0.88125 0.0
H359 H 0.86866 0.58085 0.78657 0.0
C360 C 0.59569 0.18105 0.29296 0.0
Eu361 Eu 0.60763 0.15909 0.38444 0.0
C362 C 0.59842 0.17426 0.23579 0.0
C363 C 0.61406 0.15327 0.21939 0.0
C364 C 0.6163 0.14695 0.16507 0.0
C365 C 0.60292 0.16148 0.12584 0.0
C366 C 0.58721 0.18247 0.14276 0.0
C367 C 0.58499 0.18874 0.19705 0.0
C368 C 0.65762 0.15517 0.41952 0.0
C369 C 0.61887 0.09671 0.36006 0.0
C370 C 0.62552 0.09898 0.56508 0.0
Eu371 Eu 0.61392 0.12137 0.4741 0.0
C372 C 0.62277 0.10578 0.62229 0.0
C373 C 0.60544 0.12535 0.63902 0.0
C374 C 0.60325 0.13181 0.69326 0.0
C375 C 0.61823 0.11871 0.73213 0.0
C376 C 0.63553 0.09907 0.71499 0.0
C377 C 0.63779 0.09274 0.66071 0.0
C378 C 0.56478 0.124 0.43305 0.0
C379 C 0.60428 0.18322 0.50152 0.0
O380 O 0.57951 0.1668 0.32073 0.0
O381 O 0.61721 0.18575 0.31907 0.0
O382 O 0.64612 0.17685 0.40704 0.0
O383 O 0.64212 0.13621 0.41334 0.0
O384 O 0.60815 0.11892 0.34416 0.0
O385 O 0.62705 0.09376 0.40967 0.0
O386 O 0.64207 0.11296 0.53743 0.0
O387 O 0.60393 0.0946 0.53884 0.0
O388 O 0.57586 0.10262 0.44895 0.0
O389 O 0.57953 0.14324 0.44218 0.0
O390 O 0.61409 0.16051 0.51592 0.0
O391 O 0.59666 0.18725 0.45154 0.0
H392 H 0.62463 0.14179 0.24856 0.0
H393 H 0.62884 0.13088 0.15384 0.0
H394 H 0.57625 0.19387 0.11411 0.0
H395 H 0.57268 0.20491 0.20882 0.0
H396 H 0.59355 0.13563 0.61012 0.0
H397 H 0.58953 0.14683 0.70478 0.0
H398 H 0.64766 0.08879 0.74345 0.0
H399 H 0.65137 0.07766 0.64872 0.0
C400 C 0.09538 0.38039 0.48261 0.0
Eu401 Eu 0.11772 0.39136 0.57367 0.0
C402 C 0.10235 0.38251 0.42545 0.0
C403 C 0.1197 0.40178 0.40722 0.0
C404 C 0.12622 0.40348 0.35298 0.0
C405 C 0.11538 0.38606 0.31566 0.0
C406 C 0.09798 0.36679 0.33424 0.0
C407 C 0.0916 0.36503 0.38854 0.0
C408 C 0.119 0.43949 0.61904 0.0
C409 C 0.17939 0.40261 0.54741 0.0
C410 C 0.17702 0.40735 0.75535 0.0
Eu411 Eu 0.1548 0.39616 0.66409 0.0
C412 C 0.17052 0.40436 0.8125 0.0
C413 C 0.15173 0.38626 0.82963 0.0
C414 C 0.14552 0.38393 0.88395 0.0
C415 C 0.15797 0.39969 0.92234 0.0
C416 C 0.17675 0.41785 0.90471 0.0
C417 C 0.18292 0.42014 0.85041 0.0
C418 C 0.15235 0.34711 0.62384 0.0
C419 C 0.09215 0.38395 0.68687 0.0
O420 O 0.10844 0.3633 0.51073 0.0
O421 O 0.09192 0.40229 0.50827 0.0
O422 O 0.098 0.42839 0.60141 0.0
O423 O 0.13868 0.42542 0.60925 0.0
O424 O 0.15667 0.39351 0.53133 0.0
O425 O 0.18331 0.4084 0.59837 0.0
O426 O 0.16268 0.42377 0.72844 0.0
O427 O 0.18153 0.38596 0.72865 0.0
O428 O 0.1737 0.35903 0.63703 0.0
O429 O 0.13289 0.36185 0.63178 0.0
O430 O 0.11489 0.39221 0.70562 0.0
O431 O 0.08889 0.37885 0.63576 0.0
H432 H 0.1282 0.41557 0.43494 0.0
H433 H 0.13945 0.41874 0.34019 0.0
H434 H 0.08952 0.35282 0.30689 0.0
H435 H 0.07824 0.34996 0.40175 0.0
H436 H 0.14189 0.37388 0.801 0.0
H437 H 0.1312 0.36953 0.89589 0.0
H438 H 0.18644 0.43063 0.93277 0.0
H439 H 0.19734 0.43437 0.83797 0.0
C440 C 0.40385 0.81898 0.30258 0.0
Eu441 Eu 0.39704 0.84855 0.38614 0.0
C442 C 0.40027 0.82399 0.24487 0.0
C443 C 0.3856 0.84549 0.22739 0.0
C444 C 0.38359 0.85129 0.17288 0.0
C445 C 0.39639 0.83585 0.13441 0.0
C446 C 0.41089 0.81416 0.15226 0.0
C447 C 0.41282 0.80833 0.20689 0.0
C448 C 0.35026 0.86926 0.41242 0.0
C449 C 0.39314 0.91117 0.36853 0.0
C450 C 0.39332 0.9054 0.57581 0.0
Eu451 Eu 0.39922 0.88383 0.48201 0.0
C452 C 0.39172 0.89644 0.63212 0.0
C453 C 0.4082 0.87666 0.65146 0.0
C454 C 0.40736 0.86908 0.70519 0.0
C455 C 0.39019 0.8813 0.7412 0.0
C456 C 0.37356 0.90099 0.72161 0.0
C457 C 0.37429 0.90841 0.66766 0.0
C458 C 0.44427 0.88164 0.42508 0.0
C459 C 0.4027 0.82158 0.50387 0.0
O460 O 0.42263 0.83218 0.32517 0.0
O461 O 0.3827 0.81843 0.33193 0.0
O462 O 0.35888 0.86671 0.36421 0.0
O463 O 0.3667 0.86041 0.44577 0.0
O464 O 0.40133 0.88877 0.34811 0.0
O465 O 0.38711 0.91339 0.41972 0.0
O466 O 0.37369 0.89978 0.54439 0.0
O467 O 0.41583 0.90242 0.55211 0.0
O468 O 0.43575 0.90264 0.44797 0.0
O469 O 0.42957 0.86248 0.43558 0.0
O470 O 0.40587 0.84532 0.52264 0.0
O471 O 0.39771 0.81746 0.45252 0.0
H472 H 0.37591 0.858 0.256 0.0
H473 H 0.37192 0.8679 0.16096 0.0
H474 H 0.42135 0.80201 0.12416 0.0
H475 H 0.4245 0.79184 0.21953 0.0
H476 H 0.42214 0.86738 0.62521 0.0
H477 H 0.42071 0.85413 0.71881 0.0
H478 H 0.35989 0.91064 0.74797 0.0
H479 H 0.36142 0.92374 0.65382 0.0
C480 C 0.90545 0.8764 0.80652 0.0
Eu481 Eu 0.88373 0.88869 0.71559 0.0
C482 C 0.89854 0.87922 0.86407 0.0
C483 C 0.90651 0.90125 0.89324 0.0
C484 C 0.90005 0.90387 0.94737 0.0
C485 C 0.88555 0.88446 0.97397 0.0
C486 C 0.87771 0.86236 0.94481 0.0
C487 C 0.88417 0.85974 0.8907 0.0
C488 C 0.88172 0.93786 0.67481 0.0
C489 C 0.8222 0.90004 0.74375 0.0
C490 C 0.82418 0.90702 0.53524 0.0
Eu491 Eu 0.84613 0.89529 0.62657 0.0
C492 C 0.83098 0.90486 0.47755 0.0
C493 C 0.82291 0.88315 0.44752 0.0
C494 C 0.82903 0.8812 0.39313 0.0
C495 C 0.84326 0.90098 0.36709 0.0
C496 C 0.85119 0.92278 0.39712 0.0
C497 C 0.84508 0.92473 0.45153 0.0
C498 C 0.84954 0.84524 0.6622 0.0
C499 C 0.90839 0.88382 0.60154 0.0
O500 O 0.8915 0.86009 0.77825 0.0
O501 O 0.91095 0.89773 0.78004 0.0
O502 O 0.903 0.92658 0.69063 0.0
O503 O 0.86229 0.92331 0.68378 0.0
O504 O 0.84485 0.89025 0.75862 0.0
O505 O 0.81807 0.90676 0.6933 0.0
O506 O 0.83751 0.92361 0.56381 0.0
O507 O 0.81967 0.88536 0.56123 0.0
O508 O 0.82794 0.85711 0.6507 0.0
O509 O 0.86861 0.86053 0.65521 0.0
O510 O 0.88625 0.8947 0.58566 0.0
O511 O 0.91122 0.87553 0.65109 0.0
H512 H 0.91772 0.91658 0.87424 0.0
H513 H 0.90621 0.9213 0.96821 0.0
H514 H 0.86691 0.84679 0.964 0.0
H515 H 0.87795 0.84234 0.86981 0.0
H516 H 0.81185 0.86757 0.46607 0.0
H517 H 0.82283 0.86398 0.37164 0.0
H518 H 0.86179 0.93862 0.37841 0.0
H519 H 0.85134 0.94192 0.47311 0.0
C520 C 0.91205 0.1801 0.50339 0.0
Eu521 Eu 0.90148 0.15796 0.41163 0.0
C522 C 0.91063 0.17248 0.56037 0.0
C523 C 0.89415 0.15225 0.57759 0.0
C524 C 0.89266 0.14559 0.63186 0.0
C525 C 0.9077 0.15894 0.67022 0.0
C526 C 0.92443 0.17899 0.65241 0.0
C527 C 0.92584 0.18566 0.59817 0.0
C528 C 0.85218 0.15449 0.37286 0.0
C529 C 0.89021 0.09564 0.43606 0.0
C530 C 0.88494 0.09747 0.23142 0.0
Eu531 Eu 0.89631 0.12016 0.32198 0.0
C532 C 0.8883 0.10363 0.17402 0.0
C533 C 0.90827 0.12031 0.15634 0.0
C534 C 0.91075 0.12654 0.10201 0.0
C535 C 0.89344 0.11603 0.06402 0.0
C536 C 0.87358 0.09916 0.08203 0.0
C537 C 0.87101 0.09312 0.13641 0.0
C538 C 0.94483 0.12252 0.36591 0.0
C539 C 0.90675 0.18214 0.29442 0.0
O540 O 0.92942 0.16809 0.47432 0.0
O541 O 0.88987 0.1827 0.47838 0.0
O542 O 0.86378 0.1761 0.38539 0.0
O543 O 0.86729 0.13534 0.38067 0.0
O544 O 0.9009 0.11779 0.45224 0.0
O545 O 0.88238 0.09279 0.38625 0.0
O546 O 0.86856 0.11217 0.25778 0.0
O547 O 0.90614 0.09264 0.25871 0.0
O548 O 0.93394 0.10119 0.34927 0.0
O549 O 0.9303 0.14183 0.35583 0.0
O550 O 0.89852 0.159 0.27872 0.0
O551 O 0.9122 0.18668 0.34535 0.0
H552 H 0.88224 0.14173 0.54913 0.0
H553 H 0.87933 0.13027 0.64378 0.0
H554 H 0.9367 0.18943 0.68032 0.0
H555 H 0.93883 0.20121 0.58574 0.0
H556 H 0.92193 0.12858 0.18461 0.0
H557 H 0.92645 0.13934 0.0897 0.0
H558 H 0.85968 0.09096 0.05419 0.0
H559 H 0.85538 0.0803 0.14915 0.0
C560 C 0.10095 0.12005 0.81886 0.0
Eu561 Eu 0.12363 0.10894 0.72817 0.0
C562 C 0.10761 0.11796 0.87647 0.0
C563 C 0.08949 0.10714 0.91226 0.0
C564 C 0.09541 0.10472 0.9667 0.0
C565 C 0.11968 0.11305 0.98685 0.0
C566 C 0.13782 0.12388 0.95077 0.0
C567 C 0.13185 0.12635 0.89633 0.0
C568 C 0.12555 0.06057 0.68422 0.0
C569 C 0.18566 0.09837 0.75566 0.0
C570 C 0.18363 0.09099 0.5474 0.0
Eu571 Eu 0.16165 0.103 0.6385 0.0
C572 C 0.17669 0.09237 0.48989 0.0
C573 C 0.19499 0.102 0.45311 0.0
C574 C 0.18888 0.10382 0.39869 0.0
C575 C 0.16426 0.09602 0.3795 0.0
C576 C 0.14592 0.08637 0.4166 0.0
C577 C 0.15205 0.08456 0.4711 0.0
C578 C 0.1576 0.15284 0.67506 0.0
C579 C 0.0993 0.11438 0.61352 0.0
O580 O 0.11392 0.13711 0.79029 0.0
O581 O 0.09731 0.09811 0.79338 0.0
O582 O 0.10419 0.07196 0.69922 0.0
O583 O 0.14501 0.07475 0.69497 0.0
O584 O 0.16267 0.10721 0.7711 0.0
O585 O 0.19006 0.09235 0.70498 0.0
O586 O 0.17096 0.07423 0.57714 0.0
O587 O 0.18721 0.11323 0.57166 0.0
O588 O 0.17934 0.14149 0.66235 0.0
O589 O 0.13881 0.13725 0.66815 0.0
O590 O 0.12161 0.10387 0.59753 0.0
O591 O 0.0962 0.12227 0.66332 0.0
H592 H 0.07071 0.10042 0.89802 0.0
H593 H 0.08106 0.09593 0.99288 0.0
H594 H 0.15657 0.13081 0.96467 0.0
H595 H 0.14625 0.13483 0.86983 0.0
H596 H 0.21406 0.10827 0.46656 0.0
H597 H 0.2034 0.11175 0.37177 0.0
H598 H 0.12688 0.07986 0.40351 0.0
H599 H 0.13752 0.07703 0.49848 0.0
C600 C 0.09624 0.82471 0.49733 0.0
Eu601 Eu 0.10807 0.84653 0.40593 0.0
C602 C 0.09955 0.83126 0.55462 0.0
C603 C 0.10872 0.81225 0.59033 0.0
C604 C 0.1117 0.81796 0.64471 0.0
C605 C 0.10546 0.84285 0.66483 0.0
C606 C 0.09638 0.8619 0.62872 0.0
C607 C 0.09353 0.85621 0.57434 0.0
C608 C 0.158 0.85185 0.37146 0.0
C609 C 0.11777 0.90962 0.42908 0.0
C610 C 0.12426 0.90679 0.22462 0.0
Eu611 Eu 0.11301 0.88399 0.31521 0.0
C612 C 0.12361 0.89999 0.16705 0.0
C613 C 0.11089 0.91667 0.13101 0.0
C614 C 0.10954 0.91052 0.07662 0.0
C615 C 0.12082 0.88743 0.05686 0.0
C616 C 0.1336 0.87074 0.09307 0.0
C617 C 0.1351 0.87701 0.14747 0.0
C618 C 0.06426 0.88055 0.35753 0.0
C619 C 0.10441 0.82206 0.28864 0.0
O620 O 0.08015 0.83921 0.46984 0.0
O621 O 0.11738 0.81917 0.47051 0.0
O622 O 0.14716 0.82987 0.38446 0.0
O623 O 0.1417 0.87026 0.37616 0.0
O624 O 0.11017 0.88652 0.44736 0.0
O625 O 0.12327 0.91326 0.37816 0.0
O626 O 0.1416 0.89506 0.2546 0.0
O627 O 0.10167 0.90899 0.24839 0.0
O628 O 0.0747 0.90205 0.34053 0.0
O629 O 0.07937 0.86156 0.34862 0.0
O630 O 0.11366 0.84489 0.27349 0.0
O631 O 0.09752 0.81798 0.33908 0.0
H632 H 0.11361 0.79291 0.57612 0.0
H633 H 0.11916 0.80288 0.67085 0.0
H634 H 0.09101 0.88117 0.64251 0.0
H635 H 0.08645 0.87134 0.54784 0.0
H636 H 0.10184 0.93448 0.14505 0.0
H637 H 0.09925 0.92369 0.05016 0.0
H638 H 0.14277 0.85295 0.07929 0.0
H639 H 0.14519 0.86381 0.17418 0.0
H640 H 0.40245 0.96236 0.39258 0.0
H641 H 0.34719 0.02547 0.12788 0.0
H642 H 0.37803 0.91237 0.26373 0.0
H643 H 0.41943 0.05296 0.19532 0.0
H644 H 0.34868 0.98764 0.18904 0.0
H645 H 0.39928 1.00014 0.33213 0.0
C646 C 0.39622 0.95938 0.35173 0.0
C647 C 0.39062 0.93422 0.333 0.0
C648 C 0.36412 0.00204 0.19029 0.0
C649 C 0.38633 0.97728 0.2644 0.0
C650 C 0.36325 0.02357 0.15567 0.0
C651 C 0.38336 0.04212 0.15627 0.0
C652 C 0.38473 0.99968 0.22691 0.0
C653 C 0.40371 0.03889 0.19318 0.0
C654 C 0.39452 0.98087 0.31735 0.0
C655 C 0.38273 0.93143 0.27959 0.0
N656 N 0.40375 0.01824 0.22742 0.0
N657 N 0.38055 0.95273 0.24725 0.0
H658 H 0.9578 0.60225 0.6524 0.0
H659 H 0.02046 0.65903 0.91348 0.0
H660 H 0.90627 0.62928 0.77666 0.0
H661 H 0.04364 0.5831 0.85716 0.0
H662 H 0.98278 0.65773 0.85214 0.0
H663 H 0.99443 0.60443 0.71545 0.0
C664 C 0.95425 0.60892 0.69277 0.0
C665 C 0.92897 0.61566 0.70931 0.0
C666 C 0.99618 0.64141 0.85346 0.0
C667 C 0.97084 0.61868 0.78102 0.0
C668 C 0.01764 0.64216 0.88815 0.0
C669 C 0.03503 0.62106 0.89055 0.0
C670 C 0.99273 0.61984 0.81972 0.0
C671 C 0.03056 0.59967 0.85683 0.0
C672 C 0.9751 0.61001 0.72866 0.0
C673 C 0.92545 0.62389 0.76234 0.0
N674 N 0.01007 0.59975 0.82229 0.0
N675 N 0.94622 0.62548 0.79622 0.0
H676 H 0.66988 0.96624 0.16115 0.0
H677 H 0.59063 0.0888 0.26904 0.0
H678 H 0.58708 0.97462 0.13681 0.0
H679 H 0.65285 0.05509 0.3622 0.0
H680 H 0.59398 0.05232 0.20635 0.0
H681 H 0.66878 0.00399 0.2219 0.0
C682 C 0.65149 0.9759 0.16873 0.0
C683 C 0.62843 0.96684 0.14491 0.0
C684 C 0.60693 0.05297 0.24046 0.0
C685 C 0.62726 0.01058 0.21228 0.0
C686 C 0.60511 0.07381 0.2762 0.0
C687 C 0.62137 0.07493 0.32124 0.0
C688 C 0.62557 0.03334 0.24891 0.0
C689 C 0.63977 0.05489 0.32831 0.0
C690 C 0.65091 0.99747 0.20316 0.0
C691 C 0.6053 0.98073 0.15468 0.0
N692 N 0.64149 0.03499 0.29237 0.0
N693 N 0.60532 0.00191 0.18733 0.0
H694 H 0.97555 0.34098 0.92725 0.0
H695 H 0.04115 0.39345 0.66387 0.0
H696 H 0.95223 0.41486 0.8603 0.0
H697 H 0.09133 0.36918 0.79277 0.0
H698 H 0.00367 0.3913 0.72474 0.0
H699 H 0.01406 0.34108 0.86768 0.0
C700 C 0.97851 0.35712 0.89995 0.0
C701 C 0.96089 0.37805 0.89891 0.0
C702 C 0.02288 0.38629 0.73948 0.0
C703 C 0.0041 0.37789 0.8302 0.0
C704 C 0.04424 0.38738 0.70483 0.0
C705 C 0.06941 0.38151 0.72332 0.0
C706 C 0.02651 0.37849 0.79264 0.0
C707 C 0.07228 0.37398 0.777 0.0
C708 C 1.00044 0.3572 0.8663 0.0
C709 C 0.96552 0.39849 0.86274 0.0
N710 N 0.05103 0.37242 0.80975 0.0
N711 N 0.98647 0.39775 0.82938 0.0
H712 H 0.41962 0.47498 0.16256 0.0
H713 H 0.34947 0.55645 0.93622 0.0
H714 H 0.33683 0.46706 0.13742 0.0
H715 H 0.41247 0.5889 0.02884 0.0
H716 H 0.34672 0.51993 0.99983 0.0
H717 H 0.41973 0.51349 0.10472 0.0
C718 C 0.40143 0.48132 0.14485 0.0
C719 C 0.37823 0.46746 0.15419 0.0
C720 C 0.36102 0.53516 1.00624 0.0
C721 C 0.37838 0.51136 0.08698 0.0
C722 C 0.36271 0.55591 0.96987 0.0
C723 C 0.38124 0.57578 0.97717 0.0
C724 C 0.37842 0.53391 0.04944 0.0
C725 C 0.39782 0.57411 1.0217 0.0
C726 C 0.40153 0.50333 0.11187 0.0
C727 C 0.35525 0.47675 0.1303 0.0
N728 N 0.39623 0.55341 0.0557 0.0
N729 N 0.35594 0.4979 0.09715 0.0
H730 H 0.59426 0.63024 0.99693 0.0
H731 H 0.44826 0.5933 0.94927 0.0
H732 H 0.54315 0.6185 0.13166 0.0
H733 H 0.47851 0.66009 0.86488 0.0
H734 H 0.48645 0.59431 1.00832 0.0
H735 H 0.55564 0.63381 0.93859 0.0
C736 C 0.57497 0.62855 1.01424 0.0
C737 C 0.57191 0.62427 0.06932 0.0
C738 C 0.4847 0.60873 0.97685 0.0
C739 C 0.52795 0.62754 1.00281 0.0
C740 C 0.46302 0.60813 0.94311 0.0
C741 C 0.46028 0.62666 0.90223 0.0
C742 C 0.50431 0.62739 0.9685 0.0
C743 C 0.47992 0.64553 0.89609 0.0
C744 C 0.55302 0.63067 0.98103 0.0
C745 C 0.54643 0.62209 0.08958 0.0
N746 N 0.50139 0.64519 0.92837 0.0
N747 N 0.52549 0.62332 0.05628 0.0
H748 H 0.65128 0.52358 0.1714 0.0
H749 H 0.60242 0.4626 0.90065 0.0
H750 H 0.58148 0.55321 0.09726 0.0
H751 H 0.62137 0.41176 0.03227 0.0
H752 H 0.60425 0.50015 0.96179 0.0
H753 H 0.65014 0.48594 0.11022 0.0
C754 C 0.63575 0.52211 0.14226 0.0
C755 C 0.61627 0.54126 0.13967 0.0
C756 C 0.60809 0.48074 0.97702 0.0
C757 C 0.61539 0.49903 0.06885 0.0
C758 C 0.60721 0.45939 0.94225 0.0
C759 C 0.61171 0.43407 0.96151 0.0
C760 C 0.61434 0.47681 0.031 0.0
C761 C 0.61764 0.43096 1.01591 0.0
C762 C 0.63511 0.50072 0.10755 0.0
C763 C 0.59665 0.53863 0.10096 0.0
N764 N 0.61907 0.4521 0.04868 0.0
N765 N 0.59687 0.51806 0.06659 0.0
H766 H 0.40551 0.3733 1.01569 0.0
H767 H 0.54607 0.42039 0.93991 0.0
H768 H 0.45791 0.39873 0.13971 0.0
H769 H 0.52001 0.34619 0.87934 0.0
H770 H 0.50937 0.42036 1.0031 0.0
H771 H 0.44284 0.37044 0.95386 0.0
C772 C 0.42484 0.37825 0.02989 0.0
C773 C 0.42867 0.3861 0.08302 0.0
C774 C 0.51171 0.40414 0.97588 0.0
C775 C 0.47107 0.38356 1.01234 0.0
C776 C 0.53251 0.40417 0.93974 0.0
C777 C 0.53599 0.38326 0.9044 0.0
C778 C 0.49374 0.38349 0.97543 0.0
C779 C 0.51798 0.36263 0.90609 0.0
C780 C 0.44605 0.3765 0.99473 0.0
C781 C 0.45413 0.39235 0.09928 0.0
N782 N 0.49735 0.36342 0.94052 0.0
N783 N 0.4743 0.39132 0.06391 0.0
H784 H 0.89336 0.45882 0.88456 0.0
H785 H 0.84182 0.52026 0.61552 0.0
H786 H 0.86949 0.40745 0.75754 0.0
H787 H 0.91411 0.54656 0.68468 0.0
H788 H 0.84194 0.4828 0.67781 0.0
H789 H 0.89128 0.49578 0.82212 0.0
C790 C 0.88742 0.45537 0.84368 0.0
C791 C 0.88163 0.43003 0.82615 0.0
C792 C 0.8577 0.49686 0.67915 0.0
C793 C 0.87868 0.47227 0.7551 0.0
C794 C 0.85759 0.51819 0.64394 0.0
C795 C 0.87811 0.53629 0.64474 0.0
C796 C 0.87796 0.49428 0.71653 0.0
C797 C 0.89809 0.53283 0.6824 0.0
C798 C 0.88637 0.47641 0.80815 0.0
C799 C 0.87425 0.42665 0.77257 0.0
N800 N 0.89737 0.51242 0.71717 0.0
N801 N 0.87271 0.44758 0.73899 0.0
H802 H 0.53313 0.08304 0.40898 0.0
H803 H 0.44903 0.15455 0.18798 0.0
H804 H 0.53999 0.16613 0.38622 0.0
H805 H 0.41876 0.08943 0.27793 0.0
H806 H 0.48588 0.15729 0.2507 0.0
H807 H 0.49425 0.08301 0.35238 0.0
C808 C 0.52646 0.10132 0.39211 0.0
C809 C 0.54013 0.12458 0.40174 0.0
C810 C 0.47104 0.14255 0.25678 0.0
C811 C 0.49578 0.12454 0.33589 0.0
C812 C 0.4501 0.14087 0.22091 0.0
C813 C 0.43072 0.12176 0.22776 0.0
C814 C 0.47298 0.12456 0.29898 0.0
C815 C 0.43309 0.10459 0.27128 0.0
C816 C 0.50424 0.10126 0.3598 0.0
C817 C 0.5304 0.14768 0.37894 0.0
N818 N 0.45394 0.10619 0.30476 0.0
N819 N 0.50905 0.14704 0.34642 0.0
H820 H 0.14643 0.55546 0.86613 0.0
H821 H 0.07711 0.46955 0.6445 0.0
H822 H 0.07993 0.58317 0.77726 0.0
H823 H 0.16029 0.46486 0.66762 0.0
H824 H 0.07582 0.5078 0.70262 0.0
H825 H 0.15 0.5184 0.80407 0.0
C826 C 0.13255 0.55372 0.83377 0.0
C827 C 0.11281 0.57244 0.82701 0.0
C828 C 0.09437 0.49841 0.69501 0.0
C829 C 0.11663 0.53002 0.75645 0.0
C830 C 0.09515 0.47655 0.66181 0.0
C831 C 0.11881 0.46369 0.65173 0.0
C832 C 0.11734 0.50734 0.71932 0.0
C833 C 0.14156 0.47381 0.67519 0.0
C834 C 0.13472 0.53268 0.79823 0.0
C835 C 0.09548 0.56928 0.78405 0.0
N836 N 0.14024 0.49484 0.70848 0.0
N837 N 0.09763 0.5484 0.75087 0.0
H838 H 0.5496 0.87361 0.15562 0.0
H839 H 0.4947 0.891 0.45397 0.0
H840 H 0.59803 0.89768 0.28749 0.0
H841 H 0.44705 0.87296 0.3177 0.0
H842 H 0.53333 0.8917 0.3955 0.0
H843 H 0.51244 0.87082 0.21614 0.0
C844 C 0.55251 0.87825 0.19735 0.0
C845 C 0.5771 0.88599 0.21627 0.0
C846 C 0.51445 0.88719 0.37853 0.0
C847 C 0.53429 0.88286 0.28625 0.0
C848 C 0.49246 0.88673 0.41188 0.0
C849 C 0.46781 0.88081 0.39094 0.0
C850 C 0.51163 0.88202 0.32368 0.0
C851 C 0.46578 0.87612 0.33603 0.0
C852 C 0.53118 0.87669 0.23198 0.0
C853 C 0.57949 0.89173 0.27094 0.0
N854 N 0.48734 0.87678 0.30439 0.0
N855 N 0.55838 0.89009 0.30395 0.0
H856 H 0.83963 0.96275 0.629 0.0
H857 H 0.91872 0.08679 0.52655 0.0
H858 H 0.92266 0.96996 0.65163 0.0
H859 H 0.85606 0.05425 0.43309 0.0
H860 H 0.91568 0.04943 0.58757 0.0
H861 H 0.84066 0.00164 0.57121 0.0
C862 C 0.85805 0.97245 0.62177 0.0
C863 C 0.88119 0.96271 0.64413 0.0
C864 C 0.90255 0.05056 0.55379 0.0
C865 C 0.8823 0.00773 0.5801 0.0
C866 C 0.90419 0.0719 0.51905 0.0
C867 C 0.88772 0.07359 0.47439 0.0
C868 C 0.88388 0.03103 0.54472 0.0
C869 C 0.86928 0.05363 0.46673 0.0
C870 C 0.85859 0.99465 0.58899 0.0
C871 C 0.90439 0.9766 0.6348 0.0
N872 N 0.86774 0.03326 0.50171 0.0
N873 N 0.90434 0.99842 0.60373 0.0
H874 H 0.09024 0.0844 0.5254 0.0
H875 H 0.96948 0.16478 0.41193 0.0
H876 H 0.05852 0.14937 0.61318 0.0
H877 H 0.97579 0.08145 0.39341 0.0
H878 H 0.00731 0.16377 0.47252 0.0
H879 H 0.05368 0.08739 0.46278 0.0
C880 C 0.0757 0.09944 0.5313 0.0
C881 C 0.07744 0.11662 0.57477 0.0
C882 C 1.00034 0.14576 0.45509 0.0
C883 C 0.03567 0.12035 0.50259 0.0
C884 C 0.97873 0.14629 0.42071 0.0
C885 C 0.96905 0.12308 0.39858 0.0
C886 C 0.01287 0.12196 0.46589 0.0
C887 C 0.98239 0.09979 0.40993 0.0
C888 C 0.05478 0.10104 0.49565 0.0
C889 C 0.05786 0.13562 0.58048 0.0
N890 N 0.00363 0.09983 0.44253 0.0
N891 N 0.03788 0.1371 0.5446 0.0
H892 H 0.10925 0.96112 0.40783 0.0
H893 H 0.16221 0.02167 0.67556 0.0
H894 H 0.13144 0.90901 0.53526 0.0
H895 H 0.08983 0.04875 0.60792 0.0
H896 H 0.16116 0.9841 0.61382 0.0
H897 H 0.11202 0.99792 0.47024 0.0
C898 C 0.11493 0.95745 0.44881 0.0
C899 C 0.12008 0.93196 0.46643 0.0
C900 C 0.14559 0.99835 0.61272 0.0
C901 C 0.12386 0.97403 0.53743 0.0
C902 C 0.14621 0.01974 0.64762 0.0
C903 C 0.12595 0.03812 0.64705 0.0
C904 C 0.12508 0.996 0.57588 0.0
C905 C 0.10569 0.03484 0.60999 0.0
C906 C 0.1164 0.97842 0.48431 0.0
C907 C 0.1272 0.92834 0.52013 0.0
N908 N 0.10591 0.01438 0.57548 0.0
N909 N 0.12915 0.94919 0.55369 0.0
H910 H 0.03163 0.9209 0.37994 0.0
H911 H 0.94966 0.8496 0.60417 0.0
H912 H 0.04037 0.83818 0.40553 0.0
H913 H 0.9173 0.9127 0.51139 0.0
H914 H 0.98636 0.84711 0.54104 0.0
H915 H 0.99268 0.92045 0.4364 0.0
C916 C 0.02536 0.9026 0.3974 0.0
C917 C 0.03958 0.8796 0.38868 0.0
C918 C 0.97111 0.86136 0.53446 0.0
C919 C 0.99517 0.87911 0.45432 0.0
C920 C 0.95026 0.86291 0.57056 0.0
C921 C 0.93038 0.88142 0.56312 0.0
C922 C 0.97244 0.87889 0.49137 0.0
C923 C 0.93212 0.89808 0.51866 0.0
C924 C 0.0031 0.90239 0.42962 0.0
C925 C 0.03036 0.85646 0.41217 0.0
N926 N 0.95291 0.89664 0.48492 0.0
N927 N 0.00895 0.85685 0.44461 0.0
H928 H 0.39298 0.18728 0.13515 0.0
H929 H 0.30861 0.31501 0.2001 0.0
H930 H 0.30894 0.19078 0.13278 0.0
H931 H 0.39135 0.31917 0.17015 0.0
H932 H 0.30991 0.26818 0.18443 0.0
H933 H 0.39421 0.23452 0.15291 0.0
C934 C 0.37483 0.19802 0.13771 0.0
C935 C 0.3508 0.18505 0.13261 0.0
C936 C 0.32787 0.2792 0.18145 0.0
C937 C 0.35207 0.23882 0.15392 0.0
C938 C 0.32716 0.30598 0.19081 0.0
C939 C 0.34986 0.32108 0.18616 0.0
C940 C 0.35149 0.26716 0.16731 0.0
C941 C 0.37338 0.30824 0.1742 0.0
C942 C 0.37555 0.22491 0.14815 0.0
C943 C 0.32791 0.19989 0.13659 0.0
N944 N 0.37358 0.282 0.16487 0.0
N945 N 0.32912 0.22582 0.14732 0.0
H946 H 0.31571 0.61289 0.85117 0.0
H947 H 0.18165 0.66632 0.974 0.0
H948 H 0.30814 0.68961 0.91984 0.0
H949 H 0.18357 0.61229 0.84248 0.0
H950 H 0.22964 0.66864 0.97117 0.0
H951 H 0.26838 0.60662 0.86209 0.0
C952 C 0.30409 0.62841 0.86832 0.0
C953 C 0.31583 0.65188 0.88416 0.0
C954 C 0.21951 0.65602 0.94346 0.0
C955 C 0.26202 0.64455 0.89824 0.0
C956 C 0.19221 0.65449 0.94548 0.0
C957 C 0.17875 0.63911 0.90839 0.0
C958 C 0.23332 0.64168 0.90477 0.0
C959 C 0.19331 0.62442 0.87167 0.0
C960 C 0.27717 0.6248 0.87471 0.0
C961 C 0.2999 0.67129 0.9066 0.0
N962 N 0.21979 0.62605 0.87075 0.0
N963 N 0.27388 0.66714 0.91331 0.0
H964 H 0.6952 0.8141 0.09278 0.0
H965 H 0.61302 0.68625 0.17356 0.0
H966 H 0.61418 0.81889 0.13786 0.0
H967 H 0.69241 0.68699 0.1168 0.0
H968 H 0.61226 0.73446 0.16642 0.0
H969 H 0.69356 0.76706 0.10399 0.0
C970 C 0.67693 0.80515 0.10454 0.0
C971 C 0.65483 0.82044 0.11428 0.0
C972 C 0.62987 0.72397 0.15605 0.0
C973 C 0.65276 0.76614 0.12824 0.0
C974 C 0.63037 0.69656 0.16071 0.0
C975 C 0.65283 0.68268 0.14581 0.0
C976 C 0.65203 0.7373 0.1367 0.0
C977 C 0.67465 0.69687 0.12855 0.0
C978 C 0.67599 0.7782 0.11126 0.0
C979 C 0.63165 0.80774 0.12958 0.0
N980 N 0.67366 0.72319 0.12439 0.0
N981 N 0.63122 0.78129 0.13642 0.0
H982 H 0.80875 0.31346 0.88562 0.0
H983 H 0.68343 0.39988 0.93741 0.0
H984 H 0.81531 0.39303 0.93959 0.0
H985 H 0.68367 0.33712 0.82332 0.0
H986 H 0.73109 0.39727 0.94287 0.0
H987 H 0.76228 0.32033 0.86923 0.0
C988 C 0.80039 0.33236 0.89446 0.0
C989 C 0.816 0.35271 0.91422 0.0
C990 C 0.72082 0.38438 0.91588 0.0
C991 C 0.76258 0.36067 0.89533 0.0
C992 C 0.69366 0.38595 0.91251 0.0
C993 C 0.67969 0.36887 0.87944 0.0
C994 C 0.73411 0.36503 0.88716 0.0
C995 C 0.69377 0.3509 0.84867 0.0
C996 C 0.77386 0.33632 0.88455 0.0
C997 C 0.804 0.3768 0.92454 0.0
N998 N 0.7202 0.34914 0.85396 0.0
N999 N 0.77798 0.38007 0.91535 0.0
H1000 H 0.80845 0.68622 0.59521 0.0
H1001 H 0.89353 0.81434 0.65319 0.0
H1002 H 0.89153 0.68216 0.62049 0.0
H1003 H 0.80959 0.81048 0.66136 0.0
H1004 H 0.89463 0.76702 0.63599 0.0
H1005 H 0.80997 0.73309 0.61024 0.0
C1006 C 0.82712 0.69527 0.60335 0.0
C1007 C 0.84986 0.68019 0.60687 0.0
C1008 C 0.87603 0.77658 0.64189 0.0
C1009 C 0.85176 0.73417 0.62495 0.0
C1010 C 0.87539 0.80352 0.652 0.0
C1011 C 0.85141 0.8164 0.65857 0.0
C1012 C 0.85251 0.76256 0.63792 0.0
C1013 C 0.82851 0.80145 0.65635 0.0
C1014 C 0.82796 0.72208 0.61234 0.0
C1015 C 0.87353 0.69307 0.61736 0.0
N1016 N 0.82964 0.7755 0.6459 0.0
N1017 N 0.87386 0.71934 0.62634 0.0
H1018 H 0.81797 0.19433 0.36173 0.0
H1019 H 0.68807 0.11076 0.41283 0.0
H1020 H 0.82065 0.1111 0.38628 0.0
H1021 H 0.69281 0.19468 0.41976 0.0
H1022 H 0.73562 0.10905 0.39843 0.0
H1023 H 0.77095 0.19337 0.37452 0.0
C1024 C 0.80859 0.17575 0.36933 0.0
C1025 C 0.8233 0.1528 0.37324 0.0
C1026 C 0.7262 0.12778 0.40344 0.0
C1027 C 0.76911 0.15154 0.38868 0.0
C1028 C 0.69912 0.12877 0.41194 0.0
C1029 C 0.68645 0.15293 0.41733 0.0
C1030 C 0.74054 0.15113 0.39996 0.0
C1031 C 0.70168 0.17564 0.41559 0.0
C1032 C 0.78168 0.17523 0.37699 0.0
C1033 C 0.81001 0.12926 0.38291 0.0
N1034 N 0.72777 0.17417 0.40675 0.0
N1035 N 0.78363 0.12923 0.3906 0.0
H1036 H 0.19278 0.31379 0.61104 0.0
H1037 H 0.11272 0.1825 0.67031 0.0
H1038 H 0.10982 0.31464 0.63948 0.0
H1039 H 0.1966 0.18875 0.67181 0.0
H1040 H 0.1099 0.22985 0.65454 0.0
H1041 H 0.1931 0.2668 0.62495 0.0
C1042 C 0.17452 0.304 0.61968 0.0
C1043 C 0.15128 0.3182 0.62437 0.0
C1044 C 0.12888 0.22082 0.65866 0.0
C1045 C 0.1515 0.26407 0.64117 0.0
C1046 C 0.1305 0.19385 0.66795 0.0
C1047 C 0.15496 0.18164 0.67225 0.0
C1048 C 0.15188 0.23557 0.65328 0.0
C1049 C 0.17735 0.19726 0.6686 0.0
C1050 C 0.17474 0.27712 0.628 0.0
C1051 C 0.12818 0.30441 0.63543 0.0
N1052 N 0.17526 0.22326 0.65902 0.0
N1053 N 0.12888 0.27808 0.64377 0.0
H1054 H 0.31841 0.90526 0.3688 0.0
H1055 H 0.19407 0.81548 0.40095 0.0
H1056 H 0.31785 0.83764 0.47104 0.0
H1057 H 0.18676 0.89682 0.35914 0.0
H1058 H 0.24015 0.82245 0.4208 0.0
H1059 H 0.27078 0.90281 0.3621 0.0
C1060 C 0.30809 0.89036 0.39117 0.0
C1061 C 0.32194 0.87182 0.42107 0.0
C1062 C 0.22849 0.8388 0.4074 0.0
C1063 C 0.26766 0.86814 0.41157 0.0
C1064 C 0.2022 0.8348 0.39548 0.0
C1065 C 0.1865 0.85561 0.37819 0.0
C1066 C 0.23943 0.8637 0.40118 0.0
C1067 C 0.19817 0.88022 0.37215 0.0
C1068 C 0.28097 0.88885 0.38697 0.0
C1069 C 0.30781 0.85256 0.44836 0.0
N1070 N 0.22399 0.88356 0.38331 0.0
N1071 N 0.28145 0.85092 0.44217 0.0
H1072 H 0.23933 0.09324 0.74364 0.0
H1073 H 0.26886 0.09442 0.06062 0.0
H1074 H 0.17942 0.09735 0.86425 0.0
H1075 H 0.32861 0.09947 0.93981 0.0
H1076 H 0.23584 0.0918 0.98951 0.0
H1077 H 0.27237 0.09183 0.81484 0.0
C1078 C 0.23306 0.09368 0.78492 0.0
C1079 C 0.20642 0.09567 0.79757 0.0
C1080 C 0.25621 0.09342 0.97859 0.0
C1081 C 0.24427 0.09405 0.87976 0.0
C1082 C 0.2751 0.09482 1.01931 0.0
C1083 C 0.30167 0.09745 1.00656 0.0
C1084 C 0.26386 0.09442 0.92449 0.0
C1085 C 0.30843 0.09789 0.95195 0.0
C1086 C 0.25196 0.09298 0.82569 0.0
C1087 C 0.19964 0.09621 0.85216 0.0
N1088 N 0.28979 0.09644 0.91327 0.0
N1089 N 0.2183 0.09545 0.8909 0.0
H1090 H 0.07991 0.67966 0.10381 0.0
H1091 H 0.114 0.82718 0.18173 0.0
H1092 H 0.10865 0.73609 0.99037 0.0
H1093 H 0.08843 0.77004 0.29703 0.0
H1094 H 0.11053 0.79477 0.11156 0.0
H1095 H 0.08094 0.7127 0.17339 0.0
C1096 C 0.08643 0.69903 0.09326 0.0
C1097 C 0.09447 0.7048 0.04071 0.0
C1098 C 0.10565 0.78919 0.15207 0.0
C1099 C 0.09556 0.74331 0.12146 0.0
C1100 C 0.1077 0.80777 0.19266 0.0
C1101 C 0.10172 0.80154 0.24616 0.0
C1102 C 0.09743 0.76379 0.16427 0.0
C1103 C 0.09337 0.77591 0.25675 0.0
C1104 C 0.08695 0.718 0.13336 0.0
C1105 C 0.10223 0.73058 0.02998 0.0
N1106 N 0.09153 0.75804 0.21631 0.0
N1107 N 0.10271 0.74877 0.06995 0.0
H1108 H 0.74085 0.90473 0.05065 0.0
H1109 H 0.76945 0.91179 0.73361 0.0
H1110 H 0.68056 0.90982 0.93115 0.0
H1111 H 0.82848 0.8958 0.85193 0.0
H1112 H 0.73699 0.91506 0.80577 0.0
H1113 H 0.77375 0.90566 0.97897 0.0
C1114 C 0.7345 0.90627 1.00955 0.0
C1115 C 0.70779 0.90694 0.99722 0.0
C1116 C 0.7571 0.91092 0.81586 0.0
C1117 C 0.74539 0.90799 0.9146 0.0
C1118 C 0.77566 0.9091 0.77456 0.0
C1119 C 0.80183 0.90336 0.78624 0.0
C1120 C 0.76471 0.90719 0.86946 0.0
C1121 C 0.80858 0.90007 0.84047 0.0
C1122 C 0.75329 0.90667 0.9685 0.0
C1123 C 0.70084 0.90885 0.94287 0.0
N1124 N 0.79026 0.90201 0.8797 0.0
N1125 N 0.71939 0.90926 0.90389 0.0
H1126 H 0.89203 0.32555 0.11171 0.0
H1127 H 0.91036 0.17538 0.18649 0.0
H1128 H 0.91276 0.26759 0.9945 0.0
H1129 H 0.90808 0.23621 0.30497 0.0
H1130 H 0.91042 0.20829 0.11621 0.0
H1131 H 0.89668 0.29311 0.18188 0.0
C1132 C 0.89769 0.30601 0.10042 0.0
C1133 C 0.90206 0.29955 0.04644 0.0
C1134 C 0.9101 0.21455 0.15748 0.0
C1135 C 0.90714 0.26169 0.12809 0.0
C1136 C 0.91004 0.19569 0.19797 0.0
C1137 C 0.90918 0.20284 0.25225 0.0
C1138 C 0.90891 0.24108 0.17075 0.0
C1139 C 0.90887 0.22964 0.26397 0.0
C1140 C 0.90036 0.2874 0.14096 0.0
C1141 C 0.90919 0.27365 0.03522 0.0
N1142 N 0.90847 0.24771 0.22366 0.0
N1143 N 0.91132 0.25569 0.07554 0.0
H1144 H 0.32566 0.41106 0.36899 0.0
H1145 H 0.17404 0.39821 0.43926 0.0
H1146 H 0.2654 0.40691 0.24932 0.0
H1147 H 0.2324 0.41395 0.55887 0.0
H1148 H 0.20715 0.40148 0.37023 0.0
H1149 H 0.29229 0.41228 0.43847 0.0
C1150 C 0.30537 0.41044 0.35712 0.0
C1151 C 0.29848 0.40863 0.30277 0.0
C1152 C 0.21282 0.40438 0.41143 0.0
C1153 C 0.2598 0.41009 0.38321 0.0
C1154 C 0.19381 0.40253 0.4513 0.0
C1155 C 0.20019 0.40585 0.50561 0.0
C1156 C 0.23885 0.40934 0.42526 0.0
C1157 C 0.2264 0.41129 0.51783 0.0
C1158 C 0.28627 0.41125 0.3971 0.0
C1159 C 0.27176 0.40833 0.2904 0.0
N1160 N 0.24473 0.41269 0.47811 0.0
N1161 N 0.25348 0.40882 0.33021 0.0
H1162 H 0.41635 0.73516 0.80331 0.0
H1163 H 0.38512 0.77036 0.49527 0.0
H1164 H 0.38214 0.68101 0.69188 0.0
H1165 H 0.42347 0.8228 0.60432 0.0
H1166 H 0.38446 0.73699 0.56611 0.0
H1167 H 0.41912 0.76762 0.73101 0.0
C1168 C 0.40941 0.73003 0.76388 0.0
C1169 C 0.39895 0.70515 0.75418 0.0
C1170 C 0.39307 0.75583 0.57444 0.0
C1171 C 0.40211 0.74231 0.67072 0.0
C1172 C 0.39357 0.77485 0.53377 0.0
C1173 C 0.4041 0.79968 0.54363 0.0
C1174 C 0.40318 0.7616 0.62549 0.0
C1175 C 0.41468 0.80424 0.59475 0.0
C1176 C 0.41103 0.74858 0.72245 0.0
C1177 C 0.39032 0.6998 0.70182 0.0
N1178 N 0.41384 0.78559 0.63349 0.0
N1179 N 0.39206 0.71808 0.66245 0.0
H1180 H 0.67376 0.59633 0.35285 0.0
H1181 H 0.8262 0.59398 0.42283 0.0
H1182 H 0.73394 0.59353 0.23249 0.0
H1183 H 0.76582 0.59269 0.54275 0.0
H1184 H 0.79299 0.59279 0.35335 0.0
H1185 H 0.70696 0.59401 0.422 0.0
C1186 C 0.69398 0.5952 0.34066 0.0
C1187 C 0.70087 0.59535 0.28613 0.0
C1188 C 0.78689 0.59267 0.39475 0.0
C1189 C 0.73948 0.59254 0.36655 0.0
C1190 C 0.80592 0.59347 0.43478 0.0
C1191 C 0.79897 0.59372 0.48923 0.0
C1192 C 0.76039 0.59217 0.40867 0.0
C1193 C 0.77224 0.59254 0.50158 0.0
C1194 C 0.71302 0.59379 0.38057 0.0
C1195 C 0.72755 0.59348 0.27368 0.0
N1196 N 0.754 0.59198 0.46173 0.0
N1197 N 0.74581 0.59231 0.31346 0.0
H1198 H 0.61896 0.17928 0.60627 0.0
H1199 H 0.58198 0.32573 0.68668 0.0
H1200 H 0.58503 0.23412 0.49545 0.0
H1201 H 0.61063 0.26911 0.79996 0.0
H1202 H 0.58251 0.29258 0.61734 0.0
H1203 H 0.61565 0.21155 0.67684 0.0
C1204 C 0.61067 0.1981 0.59648 0.0
C1205 C 0.60214 0.20371 0.54416 0.0
C1206 C 0.58855 0.28725 0.6573 0.0
C1207 C 0.59857 0.24139 0.62629 0.0
C1208 C 0.58832 0.30626 0.69732 0.0
C1209 C 0.59643 0.30044 0.74981 0.0
C1210 C 0.59702 0.26189 0.66912 0.0
C1211 C 0.60413 0.27464 0.76043 0.0
C1212 C 0.60885 0.21662 0.63725 0.0
C1213 C 0.59186 0.22873 0.53482 0.0
N1214 N 0.60438 0.25643 0.72048 0.0
N1215 N 0.59044 0.24659 0.57532 0.0
H1216 H 0.32895 0.13877 0.49354 0.0
H1217 H 0.4021 0.07773 0.74806 0.0
H1218 H 0.37429 0.06795 0.48747 0.0
H1219 H 0.35881 0.14987 0.75235 0.0
H1220 H 0.39199 0.07367 0.65307 0.0
H1221 H 0.33919 0.14275 0.58843 0.0
C1222 C 0.34094 0.12394 0.51211 0.0
C1223 C 0.35066 0.10292 0.48207 0.0
C1224 C 0.38469 0.0904 0.67477 0.0
C1225 C 0.36275 0.10756 0.59137 0.0
C1226 C 0.3906 0.09283 0.72912 0.0
C1227 C 0.38139 0.11424 0.75872 0.0
C1228 C 0.36942 0.10948 0.64935 0.0
C1229 C 0.36611 0.13285 0.73171 0.0
C1230 C 0.34692 0.12633 0.5664 0.0
C1231 C 0.36654 0.08464 0.50856 0.0
N1232 N 0.36067 0.13006 0.67879 0.0
N1233 N 0.37201 0.08736 0.56151 0.0
H1234 H 0.14152 0.65636 0.57251 0.0
H1235 H 0.06604 0.63305 0.29612 0.0
H1236 H 0.05873 0.66784 0.55286 0.0
H1237 H 0.14993 0.6309 0.31025 0.0
H1238 H 0.06302 0.64479 0.39026 0.0
H1239 H 0.14491 0.64561 0.47757 0.0
C1240 C 0.12401 0.65656 0.54837 0.0
C1241 C 0.09978 0.66305 0.57112 0.0
C1242 C 0.08211 0.6418 0.37279 0.0
C1243 C 0.10359 0.6508 0.4617 0.0
C1244 C 0.0839 0.63523 0.31868 0.0
C1245 C 0.10832 0.631 0.29448 0.0
C1246 C 0.10487 0.64409 0.40362 0.0
C1247 C 0.13063 0.63359 0.32683 0.0
C1248 C 0.12601 0.65054 0.49397 0.0
C1249 C 0.07788 0.66329 0.53728 0.0
N1250 N 0.12836 0.63992 0.3795 0.0
N1251 N 0.0803 0.65719 0.48457 0.0
H1252 H 0.67797 0.86277 0.48477 0.0
H1253 H 0.60877 0.93026 0.73663 0.0
H1254 H 0.63887 0.93721 0.47689 0.0
H1255 H 0.64899 0.85643 0.7446 0.0
H1256 H 0.61922 0.93299 0.64154 0.0
H1257 H 0.66751 0.86017 0.57978 0.0
C1258 C 0.66731 0.87868 0.50297 0.0
C1259 C 0.6594 0.9003 0.47244 0.0
C1260 C 0.62578 0.91619 0.66407 0.0
C1261 C 0.64703 0.89726 0.58174 0.0
C1262 C 0.61968 0.91453 0.71843 0.0
C1263 C 0.62794 0.89304 0.749 0.0
C1264 C 0.64024 0.8962 0.63968 0.0
C1265 C 0.64244 0.87353 0.72306 0.0
C1266 C 0.6612 0.87709 0.55731 0.0
C1267 C 0.64516 0.92001 0.49841 0.0
N1268 N 0.64806 0.87556 0.67007 0.0
N1269 N 0.63949 0.91803 0.5514 0.0
H1270 H 0.87836 0.41784 0.32132 0.0
H1271 H 0.90417 0.30745 0.54282 0.0
H1272 H 0.89424 0.33733 0.28322 0.0
H1273 H 0.89053 0.38844 0.5804 0.0
H1274 H 0.90027 0.3179 0.44794 0.0
H1275 H 0.88195 0.40725 0.41619 0.0
C1276 C 0.88243 0.39788 0.33278 0.0
C1277 C 0.88593 0.37848 0.29381 0.0
C1278 C 0.89812 0.3334 0.47691 0.0
C1279 C 0.89037 0.36622 0.4031 0.0
C1280 C 0.9005 0.32748 0.53128 0.0
C1281 C 0.89775 0.34707 0.57014 0.0
C1282 C 0.89293 0.35915 0.46081 0.0
C1283 C 0.89249 0.37256 0.55227 0.0
C1284 C 0.88465 0.39188 0.38712 0.0
C1285 C 0.89167 0.35305 0.31152 0.0
N1286 N 0.8903 0.37784 0.49912 0.0
N1287 N 0.89366 0.34769 0.36468 0.0
H1288 H 0.41594 0.37738 0.57888 0.0
H1289 H 0.30913 0.4156 0.79956 0.0
H1290 H 0.33876 0.40514 0.54026 0.0
H1291 H 0.385 0.38427 0.83777 0.0
H1292 H 0.3197 0.41223 0.70473 0.0
H1293 H 0.40521 0.38054 0.67369 0.0
C1294 C 0.39676 0.38428 0.59022 0.0
C1295 C 0.37828 0.39106 0.55116 0.0
C1296 C 0.33405 0.40608 0.73383 0.0
C1297 C 0.36573 0.39447 0.66031 0.0
C1298 C 0.32797 0.40785 0.78817 0.0
C1299 C 0.34614 0.40016 0.82717 0.0
C1300 C 0.35855 0.39658 0.71793 0.0
C1301 C 0.37044 0.39077 0.80949 0.0
C1302 C 0.39059 0.38592 0.64452 0.0
C1303 C 0.35358 0.39941 0.56868 0.0
N1304 N 0.37589 0.38924 0.75636 0.0
N1305 N 0.34808 0.40093 0.6218 0.0
H1306 H 0.3913 0.61416 0.21849 0.0
H1307 H 0.39045 0.66757 0.51968 0.0
H1308 H 0.40607 0.69454 0.25976 0.0
H1309 H 0.38326 0.58613 0.47902 0.0
H1310 H 0.39456 0.67806 0.42471 0.0
H1311 H 0.38728 0.60376 0.31334 0.0
C1312 C 0.39389 0.62965 0.24732 0.0
C1313 C 0.39909 0.65534 0.23053 0.0
C1314 C 0.39211 0.65789 0.43653 0.0
C1315 C 0.39405 0.64349 0.34001 0.0
C1316 C 0.38958 0.65187 0.49087 0.0
C1317 C 0.38649 0.62588 0.50776 0.0
C1318 C 0.39143 0.63782 0.39837 0.0
C1319 C 0.38593 0.60641 0.46824 0.0
C1320 C 0.39141 0.62368 0.30167 0.0
C1321 C 0.40168 0.67454 0.2703 0.0
N1322 N 0.38831 0.61277 0.41562 0.0
N1323 N 0.39913 0.66824 0.32293 0.0
H1324 H 0.61226 0.60146 0.82362 0.0
H1325 H 0.66621 0.60501 0.52306 0.0
H1326 H 0.69367 0.59206 0.78445 0.0
H1327 H 0.58715 0.62451 0.56708 0.0
H1328 H 0.67678 0.59954 0.6177 0.0
H1329 H 0.60275 0.60867 0.72928 0.0
C1330 C 0.62817 0.60078 0.79518 0.0
C1331 C 0.65382 0.59598 0.81226 0.0
C1332 C 0.65713 0.60506 0.6066 0.0
C1333 C 0.64302 0.60448 0.70349 0.0
C1334 C 0.65108 0.60835 0.55244 0.0
C1335 C 0.62565 0.61517 0.53655 0.0
C1336 C 0.63764 0.60849 0.64545 0.0
C1337 C 0.60688 0.61878 0.57689 0.0
C1338 C 0.62273 0.60508 0.74121 0.0
C1339 C 0.67364 0.59586 0.77336 0.0
N1340 N 0.61323 0.61533 0.62917 0.0
N1341 N 0.66781 0.59991 0.72089 0.0
H1342 H 0.63281 0.41034 0.46699 0.0
H1343 H 0.58284 0.3078 0.24776 0.0
H1344 H 0.59429 0.33815 0.50783 0.0
H1345 H 0.62583 0.37785 0.20986 0.0
H1346 H 0.58722 0.31799 0.34278 0.0
H1347 H 0.63037 0.39847 0.37279 0.0
C1348 C 0.62375 0.392 0.45626 0.0
C1349 C 0.61361 0.37534 0.49582 0.0
C1350 C 0.59572 0.33111 0.31365 0.0
C1351 C 0.61094 0.36143 0.38714 0.0
C1352 C 0.59338 0.32522 0.2592 0.0
C1353 C 0.60387 0.342 0.22017 0.0
C1354 C 0.60865 0.354 0.32958 0.0
C1355 C 0.61696 0.3645 0.23801 0.0
C1356 C 0.6225 0.38515 0.40228 0.0
C1357 C 0.60258 0.35157 0.47905 0.0
N1358 N 0.6189 0.36981 0.29111 0.0
N1359 N 0.60143 0.34542 0.42614 0.0
H1360 H 0.8877 0.61351 0.9522 0.0
H1361 H 0.8376 0.59786 0.25442 0.0
H1362 H 0.81071 0.58611 0.99399 0.0
H1363 H 0.91616 0.62015 0.21232 0.0
H1364 H 0.82696 0.59479 0.15944 0.0
H1365 H 0.89819 0.61674 0.04708 0.0
C1366 C 0.87301 0.608 0.98116 0.0
C1367 C 0.84823 0.59948 0.96457 0.0
C1368 C 0.84654 0.60034 0.17096 0.0
C1369 C 0.8601 0.60355 0.07403 0.0
C1370 C 0.8526 0.60228 0.22531 0.0
C1371 C 0.87787 0.60927 0.24176 0.0
C1372 C 0.86581 0.60552 0.13238 0.0
C1373 C 0.89653 0.61435 0.20183 0.0
C1374 C 0.87899 0.61002 0.03552 0.0
C1375 C 0.82993 0.59312 1.00448 0.0
N1376 N 0.89012 0.6124 0.14923 0.0
N1377 N 0.83623 0.59528 0.05711 0.0
H1378 H 0.61234 0.16719 0.77823 0.0
H1379 H 0.60643 0.11288 0.0791 0.0
H1380 H 0.6186 0.08562 0.819 0.0
H1381 H 0.60482 0.19479 0.03916 0.0
H1382 H 0.61034 0.10255 0.98421 0.0
H1383 H 0.60845 0.17759 0.8732 0.0
C1384 C 0.61276 0.15141 0.80701 0.0
C1385 C 0.61582 0.12543 0.79017 0.0
C1386 C 0.60914 0.12279 0.99618 0.0
C1387 C 0.61158 0.13732 0.89968 0.0
C1388 C 0.60706 0.12875 0.05057 0.0
C1389 C 0.60529 0.15481 0.0677 0.0
C1390 C 0.60944 0.14298 0.95811 0.0
C1391 C 0.60573 0.17441 0.02823 0.0
C1392 C 0.61069 0.1574 0.86141 0.0
C1393 C 0.61662 0.10595 0.8298 0.0
N1394 N 0.60776 0.1681 0.97555 0.0
N1395 N 0.61448 0.11227 0.88244 0.0
H1396 H 0.16308 0.39652 0.26973 0.0
H1397 H 0.10992 0.39108 0.96861 0.0
H1398 H 0.08299 0.3801 0.22895 0.0
H1399 H 0.19089 0.40292 1.00901 0.0
H1400 H 0.09965 0.38739 0.0636 0.0
H1401 H 0.17346 0.39987 0.17464 0.0
C1402 C 0.14762 0.39374 0.24087 0.0
C1403 C 0.12208 0.38801 0.25767 0.0
C1404 C 0.11967 0.39079 0.05171 0.0
C1405 C 0.13394 0.39162 0.14822 0.0
C1406 C 0.12561 0.39274 0.99731 0.0
C1407 C 0.15137 0.39732 0.98037 0.0
C1408 C 0.13958 0.39344 0.08986 0.0
C1409 C 0.1707 0.39976 1.01988 0.0
C1410 C 0.15361 0.39551 0.18646 0.0
C1411 C 0.103 0.38422 0.21811 0.0
N1412 N 0.16442 0.3978 0.07257 0.0
N1413 N 0.1093 0.38614 0.16542 0.0
H1414 H 0.39586 0.88462 0.08791 0.0
H1415 H 0.39415 0.83236 0.78623 0.0
H1416 H 0.39397 0.80283 0.0474 0.0
H1417 H 0.38646 0.91354 0.82858 0.0
H1418 H 0.39547 0.82113 0.88123 0.0
H1419 H 0.39344 0.89544 0.99317 0.0
C1420 C 0.39472 0.86887 0.05928 0.0
C1421 C 0.39501 0.84269 0.07624 0.0
C1422 C 0.39342 0.84139 0.86976 0.0
C1423 C 0.39268 0.85511 0.96673 0.0
C1424 C 0.39279 0.84786 0.81543 0.0
C1425 C 0.39018 0.87399 0.79908 0.0
C1426 C 0.39161 0.86117 0.90838 0.0
C1427 C 0.38816 0.89312 0.83903 0.0
C1428 C 0.3935 0.87511 1.00496 0.0
C1429 C 0.39412 0.82327 0.03661 0.0
N1430 N 0.38902 0.88635 0.89161 0.0
N1431 N 0.39301 0.82986 0.98392 0.0
H1432 H 0.88852 0.91551 0.31554 0.0
H1433 H 0.83991 0.87083 0.02513 0.0
H1434 H 0.81283 0.88173 0.28545 0.0
H1435 H 0.91575 0.90423 0.05543 0.0
H1436 H 0.82963 0.87477 0.12008 0.0
H1437 H 0.89857 0.91209 0.22042 0.0
C1438 C 0.87391 0.90751 0.28901 0.0
C1439 C 0.84973 0.89892 0.30895 0.0
C1440 C 0.84852 0.88126 0.10598 0.0
C1441 C 0.86133 0.89465 0.19943 0.0
C1442 C 0.85449 0.87887 0.05168 0.0
C1443 C 0.87881 0.88714 0.03188 0.0
C1444 C 0.86695 0.89199 0.14117 0.0
C1445 C 0.89664 0.89786 0.06844 0.0
C1446 C 0.87976 0.90541 0.23459 0.0
C1447 C 0.83185 0.8883 0.27235 0.0
N1448 N 0.89039 0.89992 0.12112 0.0
N1449 N 0.83799 0.8865 0.21957 0.0
H1450 H 0.90514 0.1635 1.01815 0.0
H1451 H 0.90117 0.11049 0.71677 0.0
H1452 H 0.88758 0.08371 0.97709 0.0
H1453 H 0.90989 0.19185 0.75723 0.0
H1454 H 0.89767 0.10009 0.81175 0.0
H1455 H 0.909 0.17386 0.92306 0.0
C1456 C 0.90224 0.14809 0.98924 0.0
C1457 C 0.896 0.12265 1.00599 0.0
C1458 C 0.90036 0.12022 0.79986 0.0
C1459 C 0.90024 0.1345 0.89648 0.0
C1460 C 0.90222 0.12624 0.74542 0.0
C1461 C 0.90582 0.15217 0.7284 0.0
C1462 C 0.90219 0.1402 0.83804 0.0
C1463 C 0.90752 0.17155 0.76802 0.0
C1464 C 0.90429 0.15408 0.93482 0.0
C1465 C 0.8921 0.10365 0.96631 0.0
N1466 N 0.9057 0.16518 0.82072 0.0
N1467 N 0.89433 0.10994 0.91363 0.0
H1468 H 0.08718 0.12039 0.0733 0.0
H1469 H 0.19627 0.08703 0.29287 0.0
H1470 H 0.16654 0.09991 0.034 0.0
H1471 H 0.1175 0.10962 0.33235 0.0
H1472 H 0.18565 0.0913 0.19821 0.0
H1473 H 0.0977 0.11578 0.16799 0.0
C1474 C 0.10679 0.11477 0.0844 0.0
C1475 C 0.12594 0.11051 0.04512 0.0
C1476 C 0.17066 0.09531 0.22755 0.0
C1477 C 0.13824 0.10544 0.15432 0.0
C1478 C 0.17676 0.09303 0.28184 0.0
C1479 C 0.15782 0.09804 0.3212 0.0
C1480 C 0.14538 0.10266 0.21196 0.0
C1481 C 0.13272 0.10523 0.30382 0.0
C1482 C 0.11283 0.1123 0.13869 0.0
C1483 C 0.15115 0.10373 0.06252 0.0
N1484 N 0.12729 0.10735 0.25072 0.0
N1485 N 0.15651 0.10138 0.11561 0.0
H1486 H 0.09625 0.81064 0.75127 0.0
H1487 H 0.12617 0.92032 0.97071 0.0
H1488 H 0.12097 0.8889 0.71215 0.0
H1489 H 0.11182 0.83962 1.01019 0.0
H1490 H 0.12269 0.90947 0.87601 0.0
H1491 H 0.10074 0.82102 0.84597 0.0
C1492 C 0.10281 0.82996 0.76236 0.0
C1493 C 0.10823 0.84887 0.7231 0.0
C1494 C 0.12035 0.8941 0.90533 0.0
C1495 C 0.11298 0.86105 0.83227 0.0
C1496 C 0.12217 0.90032 0.95955 0.0
C1497 C 0.11923 0.8809 0.99878 0.0
C1498 C 0.11538 0.86825 0.88981 0.0
C1499 C 0.1145 0.85523 0.98154 0.0
C1500 C 0.10521 0.83591 0.81665 0.0
C1501 C 0.11614 0.87373 0.74057 0.0
N1502 N 0.11263 0.84969 0.92849 0.0
N1503 N 0.11822 0.87906 0.79363 0.0
loop_
_geom_bond_atom_site_label_1
_geom_bond_atom_site_label_2
_geom_bond_distance
_geom_bond_site_symmetry_2
_ccdc_geom_bond_type
C0 Eu1 2.835 1_556 S
C0 C2 1.500 . S
C0 O20 1.257 . S
C0 O21 1.260 . S
Eu1 C0 2.835 1_554 S
Eu1 O20 2.473 1_554 S
Eu1 O21 2.480 1_554 S
Eu1 O22 2.430 . S
Eu1 O23 2.670 . S
Eu1 O24 2.394 . S
Eu1 O29 2.355 . S
Eu1 O31 2.374 . S
C2 C0 1.500 . S
C2 C3 1.377 . S
C2 C7 1.377 . S
C3 C2 1.377 . S
C3 C4 1.395 . S
C3 H32 0.931 . S
C4 C3 1.395 . S
C4 C5 1.383 . S
C4 H33 0.931 . S
C5 C4 1.383 . S
C5 C6 1.394 . S
C6 C5 1.394 . S
C6 C7 1.378 . S
C6 H34 0.931 . S
C7 C2 1.377 . S
C7 C6 1.378 . S
C7 H35 0.931 . S
C8 O22 1.259 . S
C8 O23 1.270 . S
C9 O24 1.251 . S
C9 O25 1.251 . S
C10 Eu11 2.835 . S
C10 C12 1.500 . S
C10 O26 1.257 . S
C10 O27 1.260 . S
Eu11 C10 2.835 . S
Eu11 O23 2.355 . S
Eu11 O25 2.374 . S
Eu11 O26 2.473 . S
Eu11 O27 2.480 . S
Eu11 O28 2.430 . S
Eu11 O29 2.670 . S
Eu11 O30 2.394 . S
C12 C10 1.500 . S
C12 C13 1.377 . S
C12 C17 1.377 . S
C13 C12 1.377 . S
C13 C14 1.395 . S
C13 H36 0.931 . S
C14 C13 1.395 . S
C14 C15 1.383 . S
C14 H37 0.931 . S
C15 C14 1.383 . S
C15 C16 1.394 . S
C16 C15 1.394 . S
C16 C17 1.378 . S
C16 H38 0.931 . S
C17 C12 1.377 . S
C17 C16 1.378 . S
C17 H39 0.931 . S
C18 O28 1.259 . S
C18 O29 1.270 . S
C19 O30 1.251 . S
C19 O31 1.251 . S
O20 C0 1.257 . S
O20 Eu1 2.473 1_556 S
O21 C0 1.260 . S
O21 Eu1 2.480 1_556 S
O22 Eu1 2.430 . S
O22 C8 1.259 . S
O23 Eu1 2.670 . S
O23 C8 1.270 . S
O23 Eu11 2.355 . S
O24 Eu1 2.394 . S
O24 C9 1.251 . S
O25 C9 1.251 . S
O25 Eu11 2.374 . S
O26 C10 1.257 . S
O26 Eu11 2.473 . S
O27 C10 1.260 . S
O27 Eu11 2.480 . S
O28 Eu11 2.430 . S
O28 C18 1.259 . S
O29 Eu1 2.355 . S
O29 Eu11 2.670 . S
O29 C18 1.270 . S
O30 Eu11 2.394 . S
O30 C19 1.251 . S
O31 Eu1 2.374 . S
O31 C19 1.251 . S
H32 C3 0.931 . S
H33 C4 0.931 . S
H34 C6 0.931 . S
H35 C7 0.931 . S
H36 C13 0.931 . S
H37 C14 0.931 . S
H38 C16 0.931 . S
H39 C17 0.931 . S
C40 Eu41 2.835 . S
C40 C42 1.500 . S
C40 O60 1.257 . S
C40 O61 1.260 . S
Eu41 C40 2.835 . S
Eu41 O60 2.473 . S
Eu41 O61 2.480 . S
Eu41 O62 2.430 . S
Eu41 O63 2.670 . S
Eu41 O64 2.394 . S
Eu41 O69 2.355 . S
Eu41 O71 2.374 . S
C42 C40 1.500 . S
C42 C43 1.377 . S
C42 C47 1.377 . S
C43 C42 1.377 . S
C43 C44 1.395 . S
C43 H72 0.931 . S
C44 C43 1.395 . S
C44 C45 1.383 . S
C44 H73 0.931 . S
C45 C44 1.383 . S
C45 C46 1.394 . S
C46 C45 1.394 . S
C46 C47 1.378 . S
C46 H74 0.931 . S
C47 C42 1.377 . S
C47 C46 1.378 . S
C47 H75 0.931 . S
C48 O62 1.259 . S
C48 O63 1.270 . S
C49 O64 1.251 . S
C49 O65 1.251 . S
C50 Eu51 2.835 1_554 S
C50 C52 1.500 . S
C50 O66 1.257 . S
C50 O67 1.260 . S
Eu51 C50 2.835 1_556 S
Eu51 O63 2.355 . S
Eu51 O65 2.374 . S
Eu51 O66 2.473 1_556 S
Eu51 O67 2.480 1_556 S
Eu51 O68 2.430 . S
Eu51 O69 2.670 . S
Eu51 O70 2.394 . S
C52 C50 1.500 . S
C52 C53 1.377 . S
C52 C57 1.377 . S
C53 C52 1.377 . S
C53 C54 1.395 . S
C53 H76 0.931 . S
C54 C53 1.395 . S
C54 C55 1.383 . S
C54 H77 0.931 . S
C55 C54 1.383 . S
C55 C56 1.394 . S
C56 C55 1.394 . S
C56 C57 1.378 . S
C56 H78 0.931 . S
C57 C52 1.377 . S
C57 C56 1.378 . S
C57 H79 0.931 . S
C58 O68 1.259 . S
C58 O69 1.270 . S
C59 O70 1.251 . S
C59 O71 1.251 . S
O60 C40 1.257 . S
O60 Eu41 2.473 . S
O61 C40 1.260 . S
O61 Eu41 2.480 . S
O62 Eu41 2.430 . S
O62 C48 1.259 . S
O63 Eu41 2.670 . S
O63 C48 1.270 . S
O63 Eu51 2.355 . S
O64 Eu41 2.394 . S
O64 C49 1.251 . S
O65 C49 1.251 . S
O65 Eu51 2.374 . S
O66 C50 1.257 . S
O66 Eu51 2.473 1_554 S
O67 C50 1.260 . S
O67 Eu51 2.480 1_554 S
O68 Eu51 2.430 . S
O68 C58 1.259 . S
O69 Eu41 2.355 . S
O69 Eu51 2.670 . S
O69 C58 1.270 . S
O70 Eu51 2.394 . S
O70 C59 1.251 . S
O71 Eu41 2.374 . S
O71 C59 1.251 . S
H72 C43 0.931 . S
H73 C44 0.931 . S
H74 C46 0.931 . S
H75 C47 0.931 . S
H76 C53 0.931 . S
H77 C54 0.931 . S
H78 C56 0.931 . S
H79 C57 0.931 . S
C80 Eu81 2.835 1_556 S
C80 C82 1.500 . S
C80 O100 1.257 . S
C80 O101 1.260 . S
Eu81 C80 2.835 1_554 S
Eu81 O100 2.473 1_554 S
Eu81 O101 2.480 1_554 S
Eu81 O102 2.430 . S
Eu81 O103 2.670 . S
Eu81 O104 2.394 . S
Eu81 O109 2.355 . S
Eu81 O111 2.374 . S
C82 C80 1.500 . S
C82 C83 1.377 . S
C82 C87 1.377 . S
C83 C82 1.377 . S
C83 C84 1.395 . S
C83 H112 0.931 . S
C84 C83 1.395 . S
C84 C85 1.383 . S
C84 H113 0.931 . S
C85 C84 1.383 . S
C85 C86 1.394 . S
C86 C85 1.394 . S
C86 C87 1.378 . S
C86 H114 0.931 . S
C87 C82 1.377 . S
C87 C86 1.378 . S
C87 H115 0.931 . S
C88 O102 1.259 . S
C88 O103 1.270 . S
C89 O104 1.251 . S
C89 O105 1.251 . S
C90 Eu91 2.835 . S
C90 C92 1.500 . S
C90 O106 1.257 . S
C90 O107 1.260 . S
Eu91 C90 2.835 . S
Eu91 O103 2.355 . S
Eu91 O105 2.374 . S
Eu91 O106 2.473 . S
Eu91 O107 2.480 . S
Eu91 O108 2.430 . S
Eu91 O109 2.670 . S
Eu91 O110 2.394 . S
C92 C90 1.500 . S
C92 C93 1.377 . S
C92 C97 1.377 . S
C93 C92 1.377 . S
C93 C94 1.395 . S
C93 H116 0.931 . S
C94 C93 1.395 . S
C94 C95 1.383 . S
C94 H117 0.931 . S
C95 C94 1.383 . S
C95 C96 1.394 . S
C96 C95 1.394 . S
C96 C97 1.378 . S
C96 H118 0.931 . S
C97 C92 1.377 . S
C97 C96 1.378 . S
C97 H119 0.931 . S
C98 O108 1.259 . S
C98 O109 1.270 . S
C99 O110 1.251 . S
C99 O111 1.251 . S
O100 C80 1.257 . S
O100 Eu81 2.473 1_556 S
O101 C80 1.260 . S
O101 Eu81 2.480 1_556 S
O102 Eu81 2.430 . S
O102 C88 1.259 . S
O103 Eu81 2.670 . S
O103 C88 1.270 . S
O103 Eu91 2.355 . S
O104 Eu81 2.394 . S
O104 C89 1.251 . S
O105 C89 1.251 . S
O105 Eu91 2.374 . S
O106 C90 1.257 . S
O106 Eu91 2.473 . S
O107 C90 1.260 . S
O107 Eu91 2.480 . S
O108 Eu91 2.430 . S
O108 C98 1.259 . S
O109 Eu81 2.355 . S
O109 Eu91 2.670 . S
O109 C98 1.270 . S
O110 Eu91 2.394 . S
O110 C99 1.251 . S
O111 Eu81 2.374 . S
O111 C99 1.251 . S
H112 C83 0.931 . S
H113 C84 0.931 . S
H114 C86 0.931 . S
H115 C87 0.931 . S
H116 C93 0.931 . S
H117 C94 0.931 . S
H118 C96 0.931 . S
H119 C97 0.931 . S
C120 Eu121 2.835 . S
C120 C122 1.500 . S
C120 O140 1.257 . S
C120 O141 1.260 . S
Eu121 C120 2.835 . S
Eu121 O140 2.473 . S
Eu121 O141 2.480 . S
Eu121 O142 2.430 . S
Eu121 O143 2.670 . S
Eu121 O144 2.394 . S
Eu121 O149 2.355 . S
Eu121 O151 2.374 . S
C122 C120 1.500 . S
C122 C123 1.377 . S
C122 C127 1.377 . S
C123 C122 1.377 . S
C123 C124 1.395 . S
C123 H152 0.931 . S
C124 C123 1.395 . S
C124 C125 1.383 . S
C124 H153 0.931 . S
C125 C124 1.383 . S
C125 C126 1.394 . S
C126 C125 1.394 . S
C126 C127 1.378 . S
C126 H154 0.931 . S
C127 C122 1.377 . S
C127 C126 1.378 . S
C127 H155 0.931 . S
C128 O142 1.259 . S
C128 O143 1.270 . S
C129 O144 1.251 . S
C129 O145 1.251 . S
C130 Eu131 2.835 1_554 S
C130 C132 1.500 . S
C130 O146 1.257 . S
C130 O147 1.260 . S
Eu131 C130 2.835 1_556 S
Eu131 O143 2.355 . S
Eu131 O145 2.374 . S
Eu131 O146 2.473 1_556 S
Eu131 O147 2.480 1_556 S
Eu131 O148 2.430 . S
Eu131 O149 2.670 . S
Eu131 O150 2.394 . S
C132 C130 1.500 . S
C132 C133 1.377 . S
C132 C137 1.377 . S
C133 C132 1.377 . S
C133 C134 1.395 . S
C133 H156 0.931 . S
C134 C133 1.395 . S
C134 C135 1.383 . S
C134 H157 0.931 . S
C135 C134 1.383 . S
C135 C136 1.394 . S
C136 C135 1.394 . S
C136 C137 1.378 . S
C136 H158 0.931 . S
C137 C132 1.377 . S
C137 C136 1.378 . S
C137 H159 0.931 . S
C138 O148 1.259 . S
C138 O149 1.270 . S
C139 O150 1.251 . S
C139 O151 1.251 . S
O140 C120 1.257 . S
O140 Eu121 2.473 . S
O141 C120 1.260 . S
O141 Eu121 2.480 . S
O142 Eu121 2.430 . S
O142 C128 1.259 . S
O143 Eu121 2.670 . S
O143 C128 1.270 . S
O143 Eu131 2.355 . S
O144 Eu121 2.394 . S
O144 C129 1.251 . S
O145 C129 1.251 . S
O145 Eu131 2.374 . S
O146 C130 1.257 . S
O146 Eu131 2.473 1_554 S
O147 C130 1.260 . S
O147 Eu131 2.480 1_554 S
O148 Eu131 2.430 . S
O148 C138 1.259 . S
O149 Eu121 2.355 . S
O149 Eu131 2.670 . S
O149 C138 1.270 . S
O150 Eu131 2.394 . S
O150 C139 1.251 . S
O151 Eu121 2.374 . S
O151 C139 1.251 . S
H152 C123 0.931 . S
H153 C124 0.931 . S
H154 C126 0.931 . S
H155 C127 0.931 . S
H156 C133 0.931 . S
H157 C134 0.931 . S
H158 C136 0.931 . S
H159 C137 0.931 . S
C160 Eu161 2.835 . S
C160 C162 1.500 . S
C160 O180 1.257 . S
C160 O181 1.260 . S
Eu161 C160 2.835 . S
Eu161 O180 2.473 . S
Eu161 O181 2.480 . S
Eu161 O182 2.430 . S
Eu161 O183 2.670 . S
Eu161 O184 2.394 . S
Eu161 O189 2.355 . S
Eu161 O191 2.374 . S
C162 C160 1.500 . S
C162 C163 1.377 . S
C162 C167 1.377 . S
C163 C162 1.377 . S
C163 C164 1.395 . S
C163 H192 0.931 . S
C164 C163 1.395 . S
C164 C165 1.383 . S
C164 H193 0.931 . S
C165 C164 1.383 . S
C165 C166 1.394 . S
C166 C165 1.394 . S
C166 C167 1.378 . S
C166 H194 0.931 . S
C167 C162 1.377 . S
C167 C166 1.378 . S
C167 H195 0.931 . S
C168 O182 1.259 . S
C168 O183 1.270 . S
C169 O184 1.251 . S
C169 O185 1.251 . S
C170 Eu171 2.835 1_556 S
C170 C172 1.500 . S
C170 O186 1.257 . S
C170 O187 1.260 . S
Eu171 C170 2.835 1_554 S
Eu171 O183 2.355 . S
Eu171 O185 2.374 . S
Eu171 O186 2.473 1_554 S
Eu171 O187 2.480 1_554 S
Eu171 O188 2.430 . S
Eu171 O189 2.670 . S
Eu171 O190 2.394 . S
C172 C170 1.500 . S
C172 C173 1.377 . S
C172 C177 1.377 . S
C173 C172 1.377 . S
C173 C174 1.395 . S
C173 H196 0.931 . S
C174 C173 1.395 . S
C174 C175 1.383 . S
C174 H197 0.931 . S
C175 C174 1.383 . S
C175 C176 1.394 . S
C176 C175 1.394 . S
C176 C177 1.378 . S
C176 H198 0.931 . S
C177 C172 1.377 . S
C177 C176 1.378 . S
C177 H199 0.931 . S
C178 O188 1.259 . S
C178 O189 1.270 . S
C179 O190 1.251 . S
C179 O191 1.251 . S
O180 C160 1.257 . S
O180 Eu161 2.473 . S
O181 C160 1.260 . S
O181 Eu161 2.480 . S
O182 Eu161 2.430 . S
O182 C168 1.259 . S
O183 Eu161 2.670 . S
O183 C168 1.270 . S
O183 Eu171 2.355 . S
O184 Eu161 2.394 . S
O184 C169 1.251 . S
O185 C169 1.251 . S
O185 Eu171 2.374 . S
O186 C170 1.257 . S
O186 Eu171 2.473 1_556 S
O187 C170 1.260 . S
O187 Eu171 2.480 1_556 S
O188 Eu171 2.430 . S
O188 C178 1.259 . S
O189 Eu161 2.355 . S
O189 Eu171 2.670 . S
O189 C178 1.270 . S
O190 Eu171 2.394 . S
O190 C179 1.251 . S
O191 Eu161 2.374 . S
O191 C179 1.251 . S
H192 C163 0.931 . S
H193 C164 0.931 . S
H194 C166 0.931 . S
H195 C167 0.931 . S
H196 C173 0.931 . S
H197 C174 0.931 . S
H198 C176 0.931 . S
H199 C177 0.931 . S
C200 Eu201 2.835 1_554 S
C200 C202 1.500 . S
C200 O220 1.257 . S
C200 O221 1.260 . S
Eu201 C200 2.835 1_556 S
Eu201 O220 2.473 1_556 S
Eu201 O221 2.480 1_556 S
Eu201 O222 2.430 . S
Eu201 O223 2.670 . S
Eu201 O224 2.394 . S
Eu201 O229 2.355 . S
Eu201 O231 2.374 . S
C202 C200 1.500 . S
C202 C203 1.377 . S
C202 C207 1.377 . S
C203 C202 1.377 . S
C203 C204 1.395 . S
C203 H232 0.931 . S
C204 C203 1.395 . S
C204 C205 1.383 . S
C204 H233 0.931 . S
C205 C204 1.383 . S
C205 C206 1.394 . S
C206 C205 1.394 . S
C206 C207 1.378 . S
C206 H234 0.931 . S
C207 C202 1.377 . S
C207 C206 1.378 . S
C207 H235 0.931 . S
C208 O222 1.259 . S
C208 O223 1.270 . S
C209 O224 1.251 . S
C209 O225 1.251 . S
C210 Eu211 2.835 . S
C210 C212 1.500 . S
C210 O226 1.257 . S
C210 O227 1.260 . S
Eu211 C210 2.835 . S
Eu211 O223 2.355 . S
Eu211 O225 2.374 . S
Eu211 O226 2.473 . S
Eu211 O227 2.480 . S
Eu211 O228 2.430 . S
Eu211 O229 2.670 . S
Eu211 O230 2.394 . S
C212 C210 1.500 . S
C212 C213 1.377 . S
C212 C217 1.377 . S
C213 C212 1.377 . S
C213 C214 1.395 . S
C213 H236 0.931 . S
C214 C213 1.395 . S
C214 C215 1.383 . S
C214 H237 0.931 . S
C215 C214 1.383 . S
C215 C216 1.394 . S
C216 C215 1.394 . S
C216 C217 1.378 . S
C216 H238 0.931 . S
C217 C212 1.377 . S
C217 C216 1.378 . S
C217 H239 0.931 . S
C218 O228 1.259 . S
C218 O229 1.270 . S
C219 O230 1.251 . S
C219 O231 1.251 . S
O220 C200 1.257 . S
O220 Eu201 2.473 1_554 S
O221 C200 1.260 . S
O221 Eu201 2.480 1_554 S
O222 Eu201 2.430 . S
O222 C208 1.259 . S
O223 Eu201 2.670 . S
O223 C208 1.270 . S
O223 Eu211 2.355 . S
O224 Eu201 2.394 . S
O224 C209 1.251 . S
O225 C209 1.251 . S
O225 Eu211 2.374 . S
O226 C210 1.257 . S
O226 Eu211 2.473 . S
O227 C210 1.260 . S
O227 Eu211 2.480 . S
O228 Eu211 2.430 . S
O228 C218 1.259 . S
O229 Eu201 2.355 . S
O229 Eu211 2.670 . S
O229 C218 1.270 . S
O230 Eu211 2.394 . S
O230 C219 1.251 . S
O231 Eu201 2.374 . S
O231 C219 1.251 . S
H232 C203 0.931 . S
H233 C204 0.931 . S
H234 C206 0.931 . S
H235 C207 0.931 . S
H236 C213 0.931 . S
H237 C214 0.931 . S
H238 C216 0.931 . S
H239 C217 0.931 . S
C240 Eu241 2.835 . S
C240 C242 1.500 . S
C240 O260 1.257 . S
C240 O261 1.260 . S
Eu241 C240 2.835 . S
Eu241 O260 2.473 . S
Eu241 O261 2.480 . S
Eu241 O262 2.430 . S
Eu241 O263 2.670 . S
Eu241 O264 2.394 . S
Eu241 O269 2.355 . S
Eu241 O271 2.374 . S
C242 C240 1.500 . S
C242 C243 1.377 . S
C242 C247 1.377 . S
C243 C242 1.377 . S
C243 C244 1.395 . S
C243 H272 0.931 . S
C244 C243 1.395 . S
C244 C245 1.383 . S
C244 H273 0.931 . S
C245 C244 1.383 . S
C245 C246 1.394 . S
C246 C245 1.394 . S
C246 C247 1.378 . S
C246 H274 0.931 . S
C247 C242 1.377 . S
C247 C246 1.378 . S
C247 H275 0.931 . S
C248 O262 1.259 . S
C248 O263 1.270 . S
C249 O264 1.251 . S
C249 O265 1.251 . S
C250 Eu251 2.835 1_556 S
C250 C252 1.500 . S
C250 O266 1.257 . S
C250 O267 1.260 . S
Eu251 C250 2.835 1_554 S
Eu251 O263 2.355 . S
Eu251 O265 2.374 . S
Eu251 O266 2.473 1_554 S
Eu251 O267 2.480 1_554 S
Eu251 O268 2.430 . S
Eu251 O269 2.670 . S
Eu251 O270 2.394 . S
C252 C250 1.500 . S
C252 C253 1.377 . S
C252 C257 1.377 . S
C253 C252 1.377 . S
C253 C254 1.395 . S
C253 H276 0.931 . S
C254 C253 1.395 . S
C254 C255 1.383 . S
C254 H277 0.931 . S
C255 C254 1.383 . S
C255 C256 1.394 . S
C256 C255 1.394 . S
C256 C257 1.378 . S
C256 H278 0.931 . S
C257 C252 1.377 . S
C257 C256 1.378 . S
C257 H279 0.931 . S
C258 O268 1.259 . S
C258 O269 1.270 . S
C259 O270 1.251 . S
C259 O271 1.251 . S
O260 C240 1.257 . S
O260 Eu241 2.473 . S
O261 C240 1.260 . S
O261 Eu241 2.480 . S
O262 Eu241 2.430 . S
O262 C248 1.259 . S
O263 Eu241 2.670 . S
O263 C248 1.270 . S
O263 Eu251 2.355 . S
O264 Eu241 2.394 . S
O264 C249 1.251 . S
O265 C249 1.251 . S
O265 Eu251 2.374 . S
O266 C250 1.257 . S
O266 Eu251 2.473 1_556 S
O267 C250 1.260 . S
O267 Eu251 2.480 1_556 S
O268 Eu251 2.430 . S
O268 C258 1.259 . S
O269 Eu241 2.355 . S
O269 Eu251 2.670 . S
O269 C258 1.270 . S
O270 Eu251 2.394 . S
O270 C259 1.251 . S
O271 Eu241 2.374 . S
O271 C259 1.251 . S
H272 C243 0.931 . S
H273 C244 0.931 . S
H274 C246 0.931 . S
H275 C247 0.931 . S
H276 C253 0.931 . S
H277 C254 0.931 . S
H278 C256 0.931 . S
H279 C257 0.931 . S
C280 Eu281 2.835 1_554 S
C280 C282 1.500 . S
C280 O300 1.257 . S
C280 O301 1.260 . S
Eu281 C280 2.835 1_556 S
Eu281 O300 2.473 1_556 S
Eu281 O301 2.480 1_556 S
Eu281 O302 2.430 . S
Eu281 O303 2.670 . S
Eu281 O304 2.394 . S
Eu281 O309 2.355 . S
Eu281 O311 2.374 . S
C282 C280 1.500 . S
C282 C283 1.377 . S
C282 C287 1.377 . S
C283 C282 1.377 . S
C283 C284 1.395 . S
C283 H312 0.931 . S
C284 C283 1.395 . S
C284 C285 1.383 . S
C284 H313 0.931 . S
C285 C284 1.383 . S
C285 C286 1.394 . S
C286 C285 1.394 . S
C286 C287 1.378 . S
C286 H314 0.931 . S
C287 C282 1.377 . S
C287 C286 1.378 . S
C287 H315 0.931 . S
C288 O302 1.259 . S
C288 O303 1.270 . S
C289 O304 1.251 . S
C289 O305 1.251 . S
C290 Eu291 2.835 . S
C290 C292 1.500 . S
C290 O306 1.257 . S
C290 O307 1.260 . S
Eu291 C290 2.835 . S
Eu291 O303 2.355 . S
Eu291 O305 2.374 . S
Eu291 O306 2.473 . S
Eu291 O307 2.480 . S
Eu291 O308 2.430 . S
Eu291 O309 2.670 . S
Eu291 O310 2.394 . S
C292 C290 1.500 . S
C292 C293 1.377 . S
C292 C297 1.377 . S
C293 C292 1.377 . S
C293 C294 1.395 . S
C293 H316 0.931 . S
C294 C293 1.395 . S
C294 C295 1.383 . S
C294 H317 0.931 . S
C295 C294 1.383 . S
C295 C296 1.394 . S
C296 C295 1.394 . S
C296 C297 1.378 . S
C296 H318 0.931 . S
C297 C292 1.377 . S
C297 C296 1.378 . S
C297 H319 0.931 . S
C298 O308 1.259 . S
C298 O309 1.270 . S
C299 O310 1.251 . S
C299 O311 1.251 . S
O300 C280 1.257 . S
O300 Eu281 2.473 1_554 S
O301 C280 1.260 . S
O301 Eu281 2.480 1_554 S
O302 Eu281 2.430 . S
O302 C288 1.259 . S
O303 Eu281 2.670 . S
O303 C288 1.270 . S
O303 Eu291 2.355 . S
O304 Eu281 2.394 . S
O304 C289 1.251 . S
O305 C289 1.251 . S
O305 Eu291 2.374 . S
O306 C290 1.257 . S
O306 Eu291 2.473 . S
O307 C290 1.260 . S
O307 Eu291 2.480 . S
O308 Eu291 2.430 . S
O308 C298 1.259 . S
O309 Eu281 2.355 . S
O309 Eu291 2.670 . S
O309 C298 1.270 . S
O310 Eu291 2.394 . S
O310 C299 1.251 . S
O311 Eu281 2.374 . S
O311 C299 1.251 . S
H312 C283 0.931 . S
H313 C284 0.931 . S
H314 C286 0.931 . S
H315 C287 0.931 . S
H316 C293 0.931 . S
H317 C294 0.931 . S
H318 C296 0.931 . S
H319 C297 0.931 . S
C320 Eu321 2.835 . S
C320 C322 1.500 . S
C320 O340 1.257 . S
C320 O341 1.260 . S
Eu321 C320 2.835 . S
Eu321 O340 2.473 . S
Eu321 O341 2.480 . S
Eu321 O342 2.430 . S
Eu321 O343 2.670 . S
Eu321 O344 2.394 . S
Eu321 O349 2.355 . S
Eu321 O351 2.374 . S
C322 C320 1.500 . S
C322 C323 1.377 . S
C322 C327 1.377 . S
C323 C322 1.377 . S
C323 C324 1.395 . S
C323 H352 0.931 . S
C324 C323 1.395 . S
C324 C325 1.383 . S
C324 H353 0.931 . S
C325 C324 1.383 . S
C325 C326 1.394 . S
C326 C325 1.394 . S
C326 C327 1.378 . S
C326 H354 0.931 . S
C327 C322 1.377 . S
C327 C326 1.378 . S
C327 H355 0.931 . S
C328 O342 1.259 . S
C328 O343 1.270 . S
C329 O344 1.251 . S
C329 O345 1.251 . S
C330 Eu331 2.835 . S
C330 C332 1.500 . S
C330 O346 1.257 . S
C330 O347 1.260 . S
Eu331 C330 2.835 . S
Eu331 O343 2.355 . S
Eu331 O345 2.374 . S
Eu331 O346 2.473 . S
Eu331 O347 2.480 . S
Eu331 O348 2.430 . S
Eu331 O349 2.670 . S
Eu331 O350 2.394 . S
C332 C330 1.500 . S
C332 C333 1.377 . S
C332 C337 1.377 . S
C333 C332 1.377 . S
C333 C334 1.395 . S
C333 H356 0.931 . S
C334 C333 1.395 . S
C334 C335 1.383 . S
C334 H357 0.931 . S
C335 C334 1.383 . S
C335 C336 1.394 . S
C336 C335 1.394 . S
C336 C337 1.378 . S
C336 H358 0.931 . S
C337 C332 1.377 . S
C337 C336 1.378 . S
C337 H359 0.931 . S
C338 O348 1.259 . S
C338 O349 1.270 . S
C339 O350 1.251 . S
C339 O351 1.251 . S
O340 C320 1.257 . S
O340 Eu321 2.473 . S
O341 C320 1.260 . S
O341 Eu321 2.480 . S
O342 Eu321 2.430 . S
O342 C328 1.259 . S
O343 Eu321 2.670 . S
O343 C328 1.270 . S
O343 Eu331 2.355 . S
O344 Eu321 2.394 . S
O344 C329 1.251 . S
O345 C329 1.251 . S
O345 Eu331 2.374 . S
O346 C330 1.257 . S
O346 Eu331 2.473 . S
O347 C330 1.260 . S
O347 Eu331 2.480 . S
O348 Eu331 2.430 . S
O348 C338 1.259 . S
O349 Eu321 2.355 . S
O349 Eu331 2.670 . S
O349 C338 1.270 . S
O350 Eu331 2.394 . S
O350 C339 1.251 . S
O351 Eu321 2.374 . S
O351 C339 1.251 . S
H352 C323 0.931 . S
H353 C324 0.931 . S
H354 C326 0.931 . S
H355 C327 0.931 . S
H356 C333 0.931 . S
H357 C334 0.931 . S
H358 C336 0.931 . S
H359 C337 0.931 . S
C360 Eu361 2.835 . S
C360 C362 1.500 . S
C360 O380 1.257 . S
C360 O381 1.260 . S
Eu361 C360 2.835 . S
Eu361 O380 2.473 . S
Eu361 O381 2.480 . S
Eu361 O382 2.430 . S
Eu361 O383 2.670 . S
Eu361 O384 2.394 . S
Eu361 O389 2.355 . S
Eu361 O391 2.374 . S
C362 C360 1.500 . S
C362 C363 1.377 . S
C362 C367 1.377 . S
C363 C362 1.377 . S
C363 C364 1.395 . S
C363 H392 0.931 . S
C364 C363 1.395 . S
C364 C365 1.383 . S
C364 H393 0.931 . S
C365 C364 1.383 . S
C365 C366 1.394 . S
C366 C365 1.394 . S
C366 C367 1.378 . S
C366 H394 0.931 . S
C367 C362 1.377 . S
C367 C366 1.378 . S
C367 H395 0.931 . S
C368 O382 1.259 . S
C368 O383 1.270 . S
C369 O384 1.251 . S
C369 O385 1.251 . S
C370 Eu371 2.835 . S
C370 C372 1.500 . S
C370 O386 1.257 . S
C370 O387 1.260 . S
Eu371 C370 2.835 . S
Eu371 O383 2.355 . S
Eu371 O385 2.374 . S
Eu371 O386 2.473 . S
Eu371 O387 2.480 . S
Eu371 O388 2.430 . S
Eu371 O389 2.670 . S
Eu371 O390 2.394 . S
C372 C370 1.500 . S
C372 C373 1.377 . S
C372 C377 1.377 . S
C373 C372 1.377 . S
C373 C374 1.395 . S
C373 H396 0.931 . S
C374 C373 1.395 . S
C374 C375 1.383 . S
C374 H397 0.931 . S
C375 C374 1.383 . S
C375 C376 1.394 . S
C376 C375 1.394 . S
C376 C377 1.378 . S
C376 H398 0.931 . S
C377 C372 1.377 . S
C377 C376 1.378 . S
C377 H399 0.931 . S
C378 O388 1.259 . S
C378 O389 1.270 . S
C379 O390 1.251 . S
C379 O391 1.251 . S
O380 C360 1.257 . S
O380 Eu361 2.473 . S
O381 C360 1.260 . S
O381 Eu361 2.480 . S
O382 Eu361 2.430 . S
O382 C368 1.259 . S
O383 Eu361 2.670 . S
O383 C368 1.270 . S
O383 Eu371 2.355 . S
O384 Eu361 2.394 . S
O384 C369 1.251 . S
O385 C369 1.251 . S
O385 Eu371 2.374 . S
O386 C370 1.257 . S
O386 Eu371 2.473 . S
O387 C370 1.260 . S
O387 Eu371 2.480 . S
O388 Eu371 2.430 . S
O388 C378 1.259 . S
O389 Eu361 2.355 . S
O389 Eu371 2.670 . S
O389 C378 1.270 . S
O390 Eu371 2.394 . S
O390 C379 1.251 . S
O391 Eu361 2.374 . S
O391 C379 1.251 . S
H392 C363 0.931 . S
H393 C364 0.931 . S
H394 C366 0.931 . S
H395 C367 0.931 . S
H396 C373 0.931 . S
H397 C374 0.931 . S
H398 C376 0.931 . S
H399 C377 0.931 . S
C400 Eu401 2.835 . S
C400 C402 1.500 . S
C400 O420 1.257 . S
C400 O421 1.260 . S
Eu401 C400 2.835 . S
Eu401 O420 2.473 . S
Eu401 O421 2.480 . S
Eu401 O422 2.430 . S
Eu401 O423 2.670 . S
Eu401 O424 2.394 . S
Eu401 O429 2.355 . S
Eu401 O431 2.374 . S
C402 C400 1.500 . S
C402 C403 1.377 . S
C402 C407 1.377 . S
C403 C402 1.377 . S
C403 C404 1.395 . S
C403 H432 0.931 . S
C404 C403 1.395 . S
C404 C405 1.383 . S
C404 H433 0.931 . S
C405 C404 1.383 . S
C405 C406 1.394 . S
C406 C405 1.394 . S
C406 C407 1.378 . S
C406 H434 0.931 . S
C407 C402 1.377 . S
C407 C406 1.378 . S
C407 H435 0.931 . S
C408 O422 1.259 . S
C408 O423 1.270 . S
C409 O424 1.251 . S
C409 O425 1.251 . S
C410 Eu411 2.835 . S
C410 C412 1.500 . S
C410 O426 1.257 . S
C410 O427 1.260 . S
Eu411 C410 2.835 . S
Eu411 O423 2.355 . S
Eu411 O425 2.374 . S
Eu411 O426 2.473 . S
Eu411 O427 2.480 . S
Eu411 O428 2.430 . S
Eu411 O429 2.670 . S
Eu411 O430 2.394 . S
C412 C410 1.500 . S
C412 C413 1.377 . S
C412 C417 1.377 . S
C413 C412 1.377 . S
C413 C414 1.395 . S
C413 H436 0.931 . S
C414 C413 1.395 . S
C414 C415 1.383 . S
C414 H437 0.931 . S
C415 C414 1.383 . S
C415 C416 1.394 . S
C416 C415 1.394 . S
C416 C417 1.378 . S
C416 H438 0.931 . S
C417 C412 1.377 . S
C417 C416 1.378 . S
C417 H439 0.931 . S
C418 O428 1.259 . S
C418 O429 1.270 . S
C419 O430 1.251 . S
C419 O431 1.251 . S
O420 C400 1.257 . S
O420 Eu401 2.473 . S
O421 C400 1.260 . S
O421 Eu401 2.480 . S
O422 Eu401 2.430 . S
O422 C408 1.259 . S
O423 Eu401 2.670 . S
O423 C408 1.270 . S
O423 Eu411 2.355 . S
O424 Eu401 2.394 . S
O424 C409 1.251 . S
O425 C409 1.251 . S
O425 Eu411 2.374 . S
O426 C410 1.257 . S
O426 Eu411 2.473 . S
O427 C410 1.260 . S
O427 Eu411 2.480 . S
O428 Eu411 2.430 . S
O428 C418 1.259 . S
O429 Eu401 2.355 . S
O429 Eu411 2.670 . S
O429 C418 1.270 . S
O430 Eu411 2.394 . S
O430 C419 1.251 . S
O431 Eu401 2.374 . S
O431 C419 1.251 . S
H432 C403 0.931 . S
H433 C404 0.931 . S
H434 C406 0.931 . S
H435 C407 0.931 . S
H436 C413 0.931 . S
H437 C414 0.931 . S
H438 C416 0.931 . S
H439 C417 0.931 . S
C440 Eu441 2.835 . S
C440 C442 1.500 . S
C440 O460 1.257 . S
C440 O461 1.260 . S
Eu441 C440 2.835 . S
Eu441 O460 2.473 . S
Eu441 O461 2.480 . S
Eu441 O462 2.430 . S
Eu441 O463 2.670 . S
Eu441 O464 2.394 . S
Eu441 O469 2.355 . S
Eu441 O471 2.374 . S
C442 C440 1.500 . S
C442 C443 1.377 . S
C442 C447 1.377 . S
C443 C442 1.377 . S
C443 C444 1.395 . S
C443 H472 0.931 . S
C444 C443 1.395 . S
C444 C445 1.383 . S
C444 H473 0.931 . S
C445 C444 1.383 . S
C445 C446 1.394 . S
C446 C445 1.394 . S
C446 C447 1.378 . S
C446 H474 0.931 . S
C447 C442 1.377 . S
C447 C446 1.378 . S
C447 H475 0.931 . S
C448 O462 1.259 . S
C448 O463 1.270 . S
C449 O464 1.251 . S
C449 O465 1.251 . S
C450 Eu451 2.835 . S
C450 C452 1.500 . S
C450 O466 1.257 . S
C450 O467 1.260 . S
Eu451 C450 2.835 . S
Eu451 O463 2.355 . S
Eu451 O465 2.374 . S
Eu451 O466 2.473 . S
Eu451 O467 2.480 . S
Eu451 O468 2.430 . S
Eu451 O469 2.670 . S
Eu451 O470 2.394 . S
C452 C450 1.500 . S
C452 C453 1.377 . S
C452 C457 1.377 . S
C453 C452 1.377 . S
C453 C454 1.395 . S
C453 H476 0.931 . S
C454 C453 1.395 . S
C454 C455 1.383 . S
C454 H477 0.931 . S
C455 C454 1.383 . S
C455 C456 1.394 . S
C456 C455 1.394 . S
C456 C457 1.378 . S
C456 H478 0.931 . S
C457 C452 1.377 . S
C457 C456 1.378 . S
C457 H479 0.931 . S
C458 O468 1.259 . S
C458 O469 1.270 . S
C459 O470 1.251 . S
C459 O471 1.251 . S
O460 C440 1.257 . S
O460 Eu441 2.473 . S
O461 C440 1.260 . S
O461 Eu441 2.480 . S
O462 Eu441 2.430 . S
O462 C448 1.259 . S
O463 Eu441 2.670 . S
O463 C448 1.270 . S
O463 Eu451 2.355 . S
O464 Eu441 2.394 . S
O464 C449 1.251 . S
O465 C449 1.251 . S
O465 Eu451 2.374 . S
O466 C450 1.257 . S
O466 Eu451 2.473 . S
O467 C450 1.260 . S
O467 Eu451 2.480 . S
O468 Eu451 2.430 . S
O468 C458 1.259 . S
O469 Eu441 2.355 . S
O469 Eu451 2.670 . S
O469 C458 1.270 . S
O470 Eu451 2.394 . S
O470 C459 1.251 . S
O471 Eu441 2.374 . S
O471 C459 1.251 . S
H472 C443 0.931 . S
H473 C444 0.931 . S
H474 C446 0.931 . S
H475 C447 0.931 . S
H476 C453 0.931 . S
H477 C454 0.931 . S
H478 C456 0.931 . S
H479 C457 0.931 . S
C480 Eu481 2.835 . S
C480 C482 1.500 . S
C480 O500 1.257 . S
C480 O501 1.260 . S
Eu481 C480 2.835 . S
Eu481 O500 2.473 . S
Eu481 O501 2.480 . S
Eu481 O502 2.430 . S
Eu481 O503 2.670 . S
Eu481 O504 2.394 . S
Eu481 O509 2.355 . S
Eu481 O511 2.374 . S
C482 C480 1.500 . S
C482 C483 1.377 . S
C482 C487 1.377 . S
C483 C482 1.377 . S
C483 C484 1.395 . S
C483 H512 0.931 . S
C484 C483 1.395 . S
C484 C485 1.383 . S
C484 H513 0.931 . S
C485 C484 1.383 . S
C485 C486 1.394 . S
C486 C485 1.394 . S
C486 C487 1.378 . S
C486 H514 0.931 . S
C487 C482 1.377 . S
C487 C486 1.378 . S
C487 H515 0.931 . S
C488 O502 1.259 . S
C488 O503 1.270 . S
C489 O504 1.251 . S
C489 O505 1.251 . S
C490 Eu491 2.835 . S
C490 C492 1.500 . S
C490 O506 1.257 . S
C490 O507 1.260 . S
Eu491 C490 2.835 . S
Eu491 O503 2.355 . S
Eu491 O505 2.374 . S
Eu491 O506 2.473 . S
Eu491 O507 2.480 . S
Eu491 O508 2.430 . S
Eu491 O509 2.670 . S
Eu491 O510 2.394 . S
C492 C490 1.500 . S
C492 C493 1.377 . S
C492 C497 1.377 . S
C493 C492 1.377 . S
C493 C494 1.395 . S
C493 H516 0.931 . S
C494 C493 1.395 . S
C494 C495 1.383 . S
C494 H517 0.931 . S
C495 C494 1.383 . S
C495 C496 1.394 . S
C496 C495 1.394 . S
C496 C497 1.378 . S
C496 H518 0.931 . S
C497 C492 1.377 . S
C497 C496 1.378 . S
C497 H519 0.931 . S
C498 O508 1.259 . S
C498 O509 1.270 . S
C499 O510 1.251 . S
C499 O511 1.251 . S
O500 C480 1.257 . S
O500 Eu481 2.473 . S
O501 C480 1.260 . S
O501 Eu481 2.480 . S
O502 Eu481 2.430 . S
O502 C488 1.259 . S
O503 Eu481 2.670 . S
O503 C488 1.270 . S
O503 Eu491 2.355 . S
O504 Eu481 2.394 . S
O504 C489 1.251 . S
O505 C489 1.251 . S
O505 Eu491 2.374 . S
O506 C490 1.257 . S
O506 Eu491 2.473 . S
O507 C490 1.260 . S
O507 Eu491 2.480 . S
O508 Eu491 2.430 . S
O508 C498 1.259 . S
O509 Eu481 2.355 . S
O509 Eu491 2.670 . S
O509 C498 1.270 . S
O510 Eu491 2.394 . S
O510 C499 1.251 . S
O511 Eu481 2.374 . S
O511 C499 1.251 . S
H512 C483 0.931 . S
H513 C484 0.931 . S
H514 C486 0.931 . S
H515 C487 0.931 . S
H516 C493 0.931 . S
H517 C494 0.931 . S
H518 C496 0.931 . S
H519 C497 0.931 . S
C520 Eu521 2.835 . S
C520 C522 1.500 . S
C520 O540 1.257 . S
C520 O541 1.260 . S
Eu521 C520 2.835 . S
Eu521 O540 2.473 . S
Eu521 O541 2.480 . S
Eu521 O542 2.430 . S
Eu521 O543 2.670 . S
Eu521 O544 2.394 . S
Eu521 O549 2.355 . S
Eu521 O551 2.374 . S
C522 C520 1.500 . S
C522 C523 1.377 . S
C522 C527 1.377 . S
C523 C522 1.377 . S
C523 C524 1.395 . S
C523 H552 0.931 . S
C524 C523 1.395 . S
C524 C525 1.383 . S
C524 H553 0.931 . S
C525 C524 1.383 . S
C525 C526 1.394 . S
C526 C525 1.394 . S
C526 C527 1.378 . S
C526 H554 0.931 . S
C527 C522 1.377 . S
C527 C526 1.378 . S
C527 H555 0.931 . S
C528 O542 1.259 . S
C528 O543 1.270 . S
C529 O544 1.251 . S
C529 O545 1.251 . S
C530 Eu531 2.835 . S
C530 C532 1.500 . S
C530 O546 1.257 . S
C530 O547 1.260 . S
Eu531 C530 2.835 . S
Eu531 O543 2.355 . S
Eu531 O545 2.374 . S
Eu531 O546 2.473 . S
Eu531 O547 2.480 . S
Eu531 O548 2.430 . S
Eu531 O549 2.670 . S
Eu531 O550 2.394 . S
C532 C530 1.500 . S
C532 C533 1.377 . S
C532 C537 1.377 . S
C533 C532 1.377 . S
C533 C534 1.395 . S
C533 H556 0.931 . S
C534 C533 1.395 . S
C534 C535 1.383 . S
C534 H557 0.931 . S
C535 C534 1.383 . S
C535 C536 1.394 . S
C536 C535 1.394 . S
C536 C537 1.378 . S
C536 H558 0.931 . S
C537 C532 1.377 . S
C537 C536 1.378 . S
C537 H559 0.931 . S
C538 O548 1.259 . S
C538 O549 1.270 . S
C539 O550 1.251 . S
C539 O551 1.251 . S
O540 C520 1.257 . S
O540 Eu521 2.473 . S
O541 C520 1.260 . S
O541 Eu521 2.480 . S
O542 Eu521 2.430 . S
O542 C528 1.259 . S
O543 Eu521 2.670 . S
O543 C528 1.270 . S
O543 Eu531 2.355 . S
O544 Eu521 2.394 . S
O544 C529 1.251 . S
O545 C529 1.251 . S
O545 Eu531 2.374 . S
O546 C530 1.257 . S
O546 Eu531 2.473 . S
O547 C530 1.260 . S
O547 Eu531 2.480 . S
O548 Eu531 2.430 . S
O548 C538 1.259 . S
O549 Eu521 2.355 . S
O549 Eu531 2.670 . S
O549 C538 1.270 . S
O550 Eu531 2.394 . S
O550 C539 1.251 . S
O551 Eu521 2.374 . S
O551 C539 1.251 . S
H552 C523 0.931 . S
H553 C524 0.931 . S
H554 C526 0.931 . S
H555 C527 0.931 . S
H556 C533 0.931 . S
H557 C534 0.931 . S
H558 C536 0.931 . S
H559 C537 0.931 . S
C560 Eu561 2.835 . S
C560 C562 1.500 . S
C560 O580 1.257 . S
C560 O581 1.260 . S
Eu561 C560 2.835 . S
Eu561 O580 2.473 . S
Eu561 O581 2.480 . S
Eu561 O582 2.430 . S
Eu561 O583 2.670 . S
Eu561 O584 2.394 . S
Eu561 O589 2.355 . S
Eu561 O591 2.374 . S
C562 C560 1.500 . S
C562 C563 1.377 . S
C562 C567 1.377 . S
C563 C562 1.377 . S
C563 C564 1.395 . S
C563 H592 0.931 . S
C564 C563 1.395 . S
C564 C565 1.383 . S
C564 H593 0.931 . S
C565 C564 1.383 . S
C565 C566 1.394 . S
C566 C565 1.394 . S
C566 C567 1.378 . S
C566 H594 0.931 . S
C567 C562 1.377 . S
C567 C566 1.378 . S
C567 H595 0.931 . S
C568 O582 1.259 . S
C568 O583 1.270 . S
C569 O584 1.251 . S
C569 O585 1.251 . S
C570 Eu571 2.835 . S
C570 C572 1.500 . S
C570 O586 1.257 . S
C570 O587 1.260 . S
Eu571 C570 2.835 . S
Eu571 O583 2.355 . S
Eu571 O585 2.374 . S
Eu571 O586 2.473 . S
Eu571 O587 2.480 . S
Eu571 O588 2.430 . S
Eu571 O589 2.670 . S
Eu571 O590 2.394 . S
C572 C570 1.500 . S
C572 C573 1.377 . S
C572 C577 1.377 . S
C573 C572 1.377 . S
C573 C574 1.395 . S
C573 H596 0.931 . S
C574 C573 1.395 . S
C574 C575 1.383 . S
C574 H597 0.931 . S
C575 C574 1.383 . S
C575 C576 1.394 . S
C576 C575 1.394 . S
C576 C577 1.378 . S
C576 H598 0.931 . S
C577 C572 1.377 . S
C577 C576 1.378 . S
C577 H599 0.931 . S
C578 O588 1.259 . S
C578 O589 1.270 . S
C579 O590 1.251 . S
C579 O591 1.251 . S
O580 C560 1.257 . S
O580 Eu561 2.473 . S
O581 C560 1.260 . S
O581 Eu561 2.480 . S
O582 Eu561 2.430 . S
O582 C568 1.259 . S
O583 Eu561 2.670 . S
O583 C568 1.270 . S
O583 Eu571 2.355 . S
O584 Eu561 2.394 . S
O584 C569 1.251 . S
O585 C569 1.251 . S
O585 Eu571 2.374 . S
O586 C570 1.257 . S
O586 Eu571 2.473 . S
O587 C570 1.260 . S
O587 Eu571 2.480 . S
O588 Eu571 2.430 . S
O588 C578 1.259 . S
O589 Eu561 2.355 . S
O589 Eu571 2.670 . S
O589 C578 1.270 . S
O590 Eu571 2.394 . S
O590 C579 1.251 . S
O591 Eu561 2.374 . S
O591 C579 1.251 . S
H592 C563 0.931 . S
H593 C564 0.931 . S
H594 C566 0.931 . S
H595 C567 0.931 . S
H596 C573 0.931 . S
H597 C574 0.931 . S
H598 C576 0.931 . S
H599 C577 0.931 . S
C600 Eu601 2.835 . S
C600 C602 1.500 . S
C600 O620 1.257 . S
C600 O621 1.260 . S
Eu601 C600 2.835 . S
Eu601 O620 2.473 . S
Eu601 O621 2.480 . S
Eu601 O622 2.430 . S
Eu601 O623 2.670 . S
Eu601 O624 2.394 . S
Eu601 O629 2.355 . S
Eu601 O631 2.374 . S
C602 C600 1.500 . S
C602 C603 1.377 . S
C602 C607 1.377 . S
C603 C602 1.377 . S
C603 C604 1.395 . S
C603 H632 0.931 . S
C604 C603 1.395 . S
C604 C605 1.383 . S
C604 H633 0.931 . S
C605 C604 1.383 . S
C605 C606 1.394 . S
C606 C605 1.394 . S
C606 C607 1.378 . S
C606 H634 0.931 . S
C607 C602 1.377 . S
C607 C606 1.378 . S
C607 H635 0.931 . S
C608 O622 1.259 . S
C608 O623 1.270 . S
C609 O624 1.251 . S
C609 O625 1.251 . S
C610 Eu611 2.835 . S
C610 C612 1.500 . S
C610 O626 1.257 . S
C610 O627 1.260 . S
Eu611 C610 2.835 . S
Eu611 O623 2.355 . S
Eu611 O625 2.374 . S
Eu611 O626 2.473 . S
Eu611 O627 2.480 . S
Eu611 O628 2.430 . S
Eu611 O629 2.670 . S
Eu611 O630 2.394 . S
C612 C610 1.500 . S
C612 C613 1.377 . S
C612 C617 1.377 . S
C613 C612 1.377 . S
C613 C614 1.395 . S
C613 H636 0.931 . S
C614 C613 1.395 . S
C614 C615 1.383 . S
C614 H637 0.931 . S
C615 C614 1.383 . S
C615 C616 1.394 . S
C616 C615 1.394 . S
C616 C617 1.378 . S
C616 H638 0.931 . S
C617 C612 1.377 . S
C617 C616 1.378 . S
C617 H639 0.931 . S
C618 O628 1.259 . S
C618 O629 1.270 . S
C619 O630 1.251 . S
C619 O631 1.251 . S
O620 C600 1.257 . S
O620 Eu601 2.473 . S
O621 C600 1.260 . S
O621 Eu601 2.480 . S
O622 Eu601 2.430 . S
O622 C608 1.259 . S
O623 Eu601 2.670 . S
O623 C608 1.270 . S
O623 Eu611 2.355 . S
O624 Eu601 2.394 . S
O624 C609 1.251 . S
O625 C609 1.251 . S
O625 Eu611 2.374 . S
O626 C610 1.257 . S
O626 Eu611 2.473 . S
O627 C610 1.260 . S
O627 Eu611 2.480 . S
O628 Eu611 2.430 . S
O628 C618 1.259 . S
O629 Eu601 2.355 . S
O629 Eu611 2.670 . S
O629 C618 1.270 . S
O630 Eu611 2.394 . S
O630 C619 1.251 . S
O631 Eu601 2.374 . S
O631 C619 1.251 . S
H632 C603 0.931 . S
H633 C604 0.931 . S
H634 C606 0.931 . S
H635 C607 0.931 . S
H636 C613 0.931 . S
H637 C614 0.931 . S
H638 C616 0.931 . S
H639 C617 0.931 . S
H640 C646 0.930 . S
H641 C650 0.930 . S
H642 C655 0.929 . S
H643 C653 0.929 . S
H644 C648 0.929 . S
H645 C654 0.929 . S
C646 H640 0.930 . S
C646 C647 1.367 . S
C646 C654 1.378 . S
C647 C646 1.367 . S
C647 C655 1.433 . S
C648 H644 0.929 . S
C648 C650 1.378 1_565 S
C648 C652 1.350 . S
C649 C652 1.463 . S
C649 C654 1.350 . S
C649 N657 1.427 . S
C650 H641 0.930 . S
C650 C648 1.378 1_545 S
C650 C651 1.367 . S
C651 C650 1.367 . S
C651 C653 1.433 . S
C652 C648 1.350 . S
C652 C649 1.463 . S
C652 N656 1.427 1_565 S
C653 H643 0.929 . S
C653 C651 1.433 . S
C653 N656 1.384 . S
C654 H645 0.929 . S
C654 C646 1.378 . S
C654 C649 1.350 . S
C655 H642 0.929 . S
C655 C647 1.433 . S
C655 N657 1.384 . S
N656 C652 1.427 1_545 S
N656 C653 1.384 . S
N657 C649 1.427 . S
N657 C655 1.384 . S
H658 C664 0.930 . S
H659 C668 0.930 . S
H660 C673 0.929 . S
H661 C671 0.929 . S
H662 C666 0.929 . S
H663 C672 0.929 . S
C664 H658 0.930 . S
C664 C665 1.367 . S
C664 C672 1.378 . S
C665 C664 1.367 . S
C665 C673 1.433 . S
C666 H662 0.929 . S
C666 C668 1.378 1_655 S
C666 C670 1.350 . S
C667 C670 1.463 . S
C667 C672 1.350 . S
C667 N675 1.427 . S
C668 H659 0.930 . S
C668 C666 1.378 1_455 S
C668 C669 1.367 . S
C669 C668 1.367 . S
C669 C671 1.433 . S
C670 C666 1.350 . S
C670 C667 1.463 . S
C670 N674 1.427 1_655 S
C671 H661 0.929 . S
C671 C669 1.433 . S
C671 N674 1.384 . S
C672 H663 0.929 . S
C672 C664 1.378 . S
C672 C667 1.350 . S
C673 H660 0.929 . S
C673 C665 1.433 . S
C673 N675 1.384 . S
N674 C670 1.427 1_455 S
N674 C671 1.384 . S
N675 C667 1.427 . S
N675 C673 1.384 . S
H676 C682 0.930 . S
H677 C686 0.930 . S
H678 C691 0.929 . S
H679 C689 0.929 . S
H680 C684 0.929 . S
H681 C690 0.929 . S
C682 H676 0.930 . S
C682 C683 1.367 . S
C682 C690 1.378 1_565 S
C683 C682 1.367 . S
C683 C691 1.433 . S
C684 H680 0.929 . S
C684 C686 1.378 . S
C684 C688 1.350 . S
C685 C688 1.463 . S
C685 C690 1.350 . S
C685 N693 1.427 1_545 S
C686 H677 0.930 . S
C686 C684 1.378 . S
C686 C687 1.367 . S
C687 C686 1.367 . S
C687 C689 1.433 . S
C688 C684 1.350 . S
C688 C685 1.463 . S
C688 N692 1.427 . S
C689 H679 0.929 . S
C689 C687 1.433 . S
C689 N692 1.384 . S
C690 H681 0.929 . S
C690 C682 1.378 1_545 S
C690 C685 1.350 . S
C691 H678 0.929 . S
C691 C683 1.433 . S
C691 N693 1.384 . S
N692 C688 1.427 . S
N692 C689 1.384 . S
N693 C685 1.427 1_565 S
N693 C691 1.384 . S
H694 C700 0.930 . S
H695 C704 0.930 . S
H696 C709 0.929 . S
H697 C707 0.929 . S
H698 C702 0.929 . S
H699 C708 0.929 . S
C700 H694 0.930 . S
C700 C701 1.367 . S
C700 C708 1.378 1_655 S
C701 C700 1.367 . S
C701 C709 1.433 . S
C702 H698 0.929 . S
C702 C704 1.378 . S
C702 C706 1.350 . S
C703 C706 1.463 . S
C703 C708 1.350 . S
C703 N711 1.427 1_455 S
C704 H695 0.930 . S
C704 C702 1.378 . S
C704 C705 1.367 . S
C705 C704 1.367 . S
C705 C707 1.433 . S
C706 C702 1.350 . S
C706 C703 1.463 . S
C706 N710 1.427 . S
C707 H697 0.929 . S
C707 C705 1.433 . S
C707 N710 1.384 . S
C708 H699 0.929 . S
C708 C700 1.378 1_455 S
C708 C703 1.350 . S
C709 H696 0.929 . S
C709 C701 1.433 . S
C709 N711 1.384 . S
N710 C706 1.427 . S
N710 C707 1.384 . S
N711 C703 1.427 1_655 S
N711 C709 1.384 . S
H712 C718 0.930 . S
H713 C722 0.930 . S
H714 C727 0.929 . S
H715 C725 0.929 . S
H716 C720 0.929 . S
H717 C726 0.929 . S
C718 H712 0.930 . S
C718 C719 1.367 . S
C718 C726 1.378 . S
C719 C718 1.367 . S
C719 C727 1.433 . S
C720 H716 0.929 . S
C720 C722 1.378 . S
C720 C724 1.350 1_556 S
C721 C724 1.463 . S
C721 C726 1.350 . S
C721 N729 1.427 . S
C722 H713 0.930 . S
C722 C720 1.378 . S
C722 C723 1.367 . S
C723 C722 1.367 . S
C723 C725 1.433 1_556 S
C724 C720 1.350 1_554 S
C724 C721 1.463 . S
C724 N728 1.427 . S
C725 H715 0.929 . S
C725 C723 1.433 1_554 S
C725 N728 1.384 . S
C726 H717 0.929 . S
C726 C718 1.378 . S
C726 C721 1.350 . S
C727 H714 0.929 . S
C727 C719 1.433 . S
C727 N729 1.384 . S
N728 C724 1.427 . S
N728 C725 1.384 . S
N729 C721 1.427 . S
N729 C727 1.384 . S
H730 C736 0.930 . S
H731 C740 0.930 . S
H732 C745 0.929 . S
H733 C743 0.929 . S
H734 C738 0.929 1_554 S
H735 C744 0.929 . S
C736 H730 0.930 . S
C736 C737 1.367 1_556 S
C736 C744 1.378 . S
C737 C736 1.367 1_554 S
C737 C745 1.433 . S
C738 H734 0.929 1_556 S
C738 C740 1.378 . S
C738 C742 1.350 . S
C739 C742 1.463 . S
C739 C744 1.350 . S
C739 N747 1.427 1_556 S
C740 H731 0.930 . S
C740 C738 1.378 . S
C740 C741 1.367 . S
C741 C740 1.367 . S
C741 C743 1.433 . S
C742 C738 1.350 . S
C742 C739 1.463 . S
C742 N746 1.427 . S
C743 H733 0.929 . S
C743 C741 1.433 . S
C743 N746 1.384 . S
C744 H735 0.929 . S
C744 C736 1.378 . S
C744 C739 1.350 . S
C745 H732 0.929 . S
C745 C737 1.433 . S
C745 N747 1.384 . S
N746 C742 1.427 . S
N746 C743 1.384 . S
N747 C739 1.427 1_554 S
N747 C745 1.384 . S
H748 C754 0.930 . S
H749 C758 0.930 . S
H750 C763 0.929 . S
H751 C761 0.929 . S
H752 C756 0.929 . S
H753 C762 0.929 . S
C754 H748 0.930 . S
C754 C755 1.367 . S
C754 C762 1.378 . S
C755 C754 1.367 . S
C755 C763 1.433 . S
C756 H752 0.929 . S
C756 C758 1.378 . S
C756 C760 1.350 1_556 S
C757 C760 1.463 . S
C757 C762 1.350 . S
C757 N765 1.427 . S
C758 H749 0.930 . S
C758 C756 1.378 . S
C758 C759 1.367 . S
C759 C758 1.367 . S
C759 C761 1.433 1_556 S
C760 C756 1.350 1_554 S
C760 C757 1.463 . S
C760 N764 1.427 . S
C761 H751 0.929 . S
C761 C759 1.433 1_554 S
C761 N764 1.384 . S
C762 H753 0.929 . S
C762 C754 1.378 . S
C762 C757 1.350 . S
C763 H750 0.929 . S
C763 C755 1.433 . S
C763 N765 1.384 . S
N764 C760 1.427 . S
N764 C761 1.384 . S
N765 C757 1.427 . S
N765 C763 1.384 . S
H766 C772 0.930 . S
H767 C776 0.930 . S
H768 C781 0.929 . S
H769 C779 0.929 . S
H770 C774 0.929 . S
H771 C780 0.929 . S
C772 H766 0.930 . S
C772 C773 1.367 . S
C772 C780 1.378 1_554 S
C773 C772 1.367 . S
C773 C781 1.433 . S
C774 H770 0.929 . S
C774 C776 1.378 . S
C774 C778 1.350 . S
C775 C778 1.463 . S
C775 C780 1.350 . S
C775 N783 1.427 1_556 S
C776 H767 0.930 . S
C776 C774 1.378 . S
C776 C777 1.367 . S
C777 C776 1.367 . S
C777 C779 1.433 . S
C778 C774 1.350 . S
C778 C775 1.463 . S
C778 N782 1.427 . S
C779 H769 0.929 . S
C779 C777 1.433 . S
C779 N782 1.384 . S
C780 H771 0.929 . S
C780 C772 1.378 1_556 S
C780 C775 1.350 . S
C781 H768 0.929 . S
C781 C773 1.433 . S
C781 N783 1.384 . S
N782 C778 1.427 . S
N782 C779 1.384 . S
N783 C775 1.427 1_554 S
N783 C781 1.384 . S
H784 C790 0.930 . S
H785 C794 0.930 . S
H786 C799 0.929 . S
H787 C797 0.929 . S
H788 C792 0.929 . S
H789 C798 0.929 . S
C790 H784 0.930 . S
C790 C791 1.367 . S
C790 C798 1.378 . S
C791 C790 1.367 . S
C791 C799 1.433 . S
C792 H788 0.929 . S
C792 C794 1.378 . S
C792 C796 1.350 . S
C793 C796 1.463 . S
C793 C798 1.350 . S
C793 N801 1.427 . S
C794 H785 0.930 . S
C794 C792 1.378 . S
C794 C795 1.367 . S
C795 C794 1.367 . S
C795 C797 1.433 . S
C796 C792 1.350 . S
C796 C793 1.463 . S
C796 N800 1.427 . S
C797 H787 0.929 . S
C797 C795 1.433 . S
C797 N800 1.384 . S
C798 H789 0.929 . S
C798 C790 1.378 . S
C798 C793 1.350 . S
C799 H786 0.929 . S
C799 C791 1.433 . S
C799 N801 1.384 . S
N800 C796 1.427 . S
N800 C797 1.384 . S
N801 C793 1.427 . S
N801 C799 1.384 . S
H802 C808 0.930 . S
H803 C812 0.930 . S
H804 C817 0.929 . S
H805 C815 0.929 . S
H806 C810 0.929 . S
H807 C816 0.929 . S
C808 H802 0.930 . S
C808 C809 1.367 . S
C808 C816 1.378 . S
C809 C808 1.367 . S
C809 C817 1.433 . S
C810 H806 0.929 . S
C810 C812 1.378 . S
C810 C814 1.350 . S
C811 C814 1.463 . S
C811 C816 1.350 . S
C811 N819 1.427 . S
C812 H803 0.930 . S
C812 C810 1.378 . S
C812 C813 1.367 . S
C813 C812 1.367 . S
C813 C815 1.433 . S
C814 C810 1.350 . S
C814 C811 1.463 . S
C814 N818 1.427 . S
C815 H805 0.929 . S
C815 C813 1.433 . S
C815 N818 1.384 . S
C816 H807 0.929 . S
C816 C808 1.378 . S
C816 C811 1.350 . S
C817 H804 0.929 . S
C817 C809 1.433 . S
C817 N819 1.384 . S
N818 C814 1.427 . S
N818 C815 1.384 . S
N819 C811 1.427 . S
N819 C817 1.384 . S
H820 C826 0.930 . S
H821 C830 0.930 . S
H822 C835 0.929 . S
H823 C833 0.929 . S
H824 C828 0.929 . S
H825 C834 0.929 . S
C826 H820 0.930 . S
C826 C827 1.367 . S
C826 C834 1.378 . S
C827 C826 1.367 . S
C827 C835 1.433 . S
C828 H824 0.929 . S
C828 C830 1.378 . S
C828 C832 1.350 . S
C829 C832 1.463 . S
C829 C834 1.350 . S
C829 N837 1.427 . S
C830 H821 0.930 . S
C830 C828 1.378 . S
C830 C831 1.367 . S
C831 C830 1.367 . S
C831 C833 1.433 . S
C832 C828 1.350 . S
C832 C829 1.463 . S
C832 N836 1.427 . S
C833 H823 0.929 . S
C833 C831 1.433 . S
C833 N836 1.384 . S
C834 H825 0.929 . S
C834 C826 1.378 . S
C834 C829 1.350 . S
C835 H822 0.929 . S
C835 C827 1.433 . S
C835 N837 1.384 . S
N836 C832 1.427 . S
N836 C833 1.384 . S
N837 C829 1.427 . S
N837 C835 1.384 . S
H838 C844 0.930 . S
H839 C848 0.930 . S
H840 C853 0.929 . S
H841 C851 0.929 . S
H842 C846 0.929 . S
H843 C852 0.929 . S
C844 H838 0.930 . S
C844 C845 1.367 . S
C844 C852 1.378 . S
C845 C844 1.367 . S
C845 C853 1.433 . S
C846 H842 0.929 . S
C846 C848 1.378 . S
C846 C850 1.350 . S
C847 C850 1.463 . S
C847 C852 1.350 . S
C847 N855 1.427 . S
C848 H839 0.930 . S
C848 C846 1.378 . S
C848 C849 1.367 . S
C849 C848 1.367 . S
C849 C851 1.433 . S
C850 C846 1.350 . S
C850 C847 1.463 . S
C850 N854 1.427 . S
C851 H841 0.929 . S
C851 C849 1.433 . S
C851 N854 1.384 . S
C852 H843 0.929 . S
C852 C844 1.378 . S
C852 C847 1.350 . S
C853 H840 0.929 . S
C853 C845 1.433 . S
C853 N855 1.384 . S
N854 C850 1.427 . S
N854 C851 1.384 . S
N855 C847 1.427 . S
N855 C853 1.384 . S
H856 C862 0.930 . S
H857 C866 0.930 . S
H858 C871 0.929 . S
H859 C869 0.929 . S
H860 C864 0.929 . S
H861 C870 0.929 . S
C862 H856 0.930 . S
C862 C863 1.367 . S
C862 C870 1.378 1_565 S
C863 C862 1.367 . S
C863 C871 1.433 . S
C864 H860 0.929 . S
C864 C866 1.378 . S
C864 C868 1.350 . S
C865 C868 1.463 . S
C865 C870 1.350 . S
C865 N873 1.427 1_545 S
C866 H857 0.930 . S
C866 C864 1.378 . S
C866 C867 1.367 . S
C867 C866 1.367 . S
C867 C869 1.433 . S
C868 C864 1.350 . S
C868 C865 1.463 . S
C868 N872 1.427 . S
C869 H859 0.929 . S
C869 C867 1.433 . S
C869 N872 1.384 . S
C870 H861 0.929 . S
C870 C862 1.378 1_545 S
C870 C865 1.350 . S
C871 H858 0.929 . S
C871 C863 1.433 . S
C871 N873 1.384 . S
N872 C868 1.427 . S
N872 C869 1.384 . S
N873 C865 1.427 1_565 S
N873 C871 1.384 . S
H874 C880 0.930 . S
H875 C884 0.930 . S
H876 C889 0.929 . S
H877 C887 0.929 . S
H878 C882 0.929 . S
H879 C888 0.929 . S
C880 H874 0.930 . S
C880 C881 1.367 . S
C880 C888 1.378 . S
C881 C880 1.367 . S
C881 C889 1.433 . S
C882 H878 0.929 . S
C882 C884 1.378 1_455 S
C882 C886 1.350 . S
C883 C886 1.463 . S
C883 C888 1.350 . S
C883 N891 1.427 . S
C884 H875 0.930 . S
C884 C882 1.378 1_655 S
C884 C885 1.367 . S
C885 C884 1.367 . S
C885 C887 1.433 . S
C886 C882 1.350 . S
C886 C883 1.463 . S
C886 N890 1.427 1_455 S
C887 H877 0.929 . S
C887 C885 1.433 . S
C887 N890 1.384 . S
C888 H879 0.929 . S
C888 C880 1.378 . S
C888 C883 1.350 . S
C889 H876 0.929 . S
C889 C881 1.433 . S
C889 N891 1.384 . S
N890 C886 1.427 1_655 S
N890 C887 1.384 . S
N891 C883 1.427 . S
N891 C889 1.384 . S
H892 C898 0.930 . S
H893 C902 0.930 . S
H894 C907 0.929 . S
H895 C905 0.929 . S
H896 C900 0.929 . S
H897 C906 0.929 . S
C898 H892 0.930 . S
C898 C899 1.367 . S
C898 C906 1.378 . S
C899 C898 1.367 . S
C899 C907 1.433 . S
C900 H896 0.929 . S
C900 C902 1.378 1_565 S
C900 C904 1.350 . S
C901 C904 1.463 . S
C901 C906 1.350 . S
C901 N909 1.427 . S
C902 H893 0.930 . S
C902 C900 1.378 1_545 S
C902 C903 1.367 . S
C903 C902 1.367 . S
C903 C905 1.433 . S
C904 C900 1.350 . S
C904 C901 1.463 . S
C904 N908 1.427 1_565 S
C905 H895 0.929 . S
C905 C903 1.433 . S
C905 N908 1.384 . S
C906 H897 0.929 . S
C906 C898 1.378 . S
C906 C901 1.350 . S
C907 H894 0.929 . S
C907 C899 1.433 . S
C907 N909 1.384 . S
N908 C904 1.427 1_545 S
N908 C905 1.384 . S
N909 C901 1.427 . S
N909 C907 1.384 . S
H910 C916 0.930 . S
H911 C920 0.930 . S
H912 C925 0.929 . S
H913 C923 0.929 . S
H914 C918 0.929 . S
H915 C924 0.929 . S
C916 H910 0.930 . S
C916 C917 1.367 . S
C916 C924 1.378 1_455 S
C917 C916 1.367 . S
C917 C925 1.433 . S
C918 H914 0.929 . S
C918 C920 1.378 . S
C918 C922 1.350 . S
C919 C922 1.463 . S
C919 C924 1.350 . S
C919 N927 1.427 1_655 S
C920 H911 0.930 . S
C920 C918 1.378 . S
C920 C921 1.367 . S
C921 C920 1.367 . S
C921 C923 1.433 . S
C922 C918 1.350 . S
C922 C919 1.463 . S
C922 N926 1.427 . S
C923 H913 0.929 . S
C923 C921 1.433 . S
C923 N926 1.384 . S
C924 H915 0.929 . S
C924 C916 1.378 1_655 S
C924 C919 1.350 . S
C925 H912 0.929 . S
C925 C917 1.433 . S
C925 N927 1.384 . S
N926 C922 1.427 . S
N926 C923 1.384 . S
N927 C919 1.427 1_455 S
N927 C925 1.384 . S
H928 C934 0.930 . S
H929 C938 0.930 . S
H930 C943 0.929 . S
H931 C941 0.929 . S
H932 C936 0.929 . S
H933 C942 0.929 . S
C934 H928 0.930 . S
C934 C935 1.367 . S
C934 C942 1.378 . S
C935 C934 1.367 . S
C935 C943 1.433 . S
C936 H932 0.929 . S
C936 C938 1.378 . S
C936 C940 1.350 . S
C937 C940 1.463 . S
C937 C942 1.350 . S
C937 N945 1.427 . S
C938 H929 0.930 . S
C938 C936 1.378 . S
C938 C939 1.367 . S
C939 C938 1.367 . S
C939 C941 1.433 . S
C940 C936 1.350 . S
C940 C937 1.463 . S
C940 N944 1.427 . S
C941 H931 0.929 . S
C941 C939 1.433 . S
C941 N944 1.384 . S
C942 H933 0.929 . S
C942 C934 1.378 . S
C942 C937 1.350 . S
C943 H930 0.929 . S
C943 C935 1.433 . S
C943 N945 1.384 . S
N944 C940 1.427 . S
N944 C941 1.384 . S
N945 C937 1.427 . S
N945 C943 1.384 . S
H946 C952 0.930 . S
H947 C956 0.930 . S
H948 C961 0.929 . S
H949 C959 0.929 . S
H950 C954 0.929 . S
H951 C960 0.929 . S
C952 H946 0.930 . S
C952 C953 1.367 . S
C952 C960 1.378 . S
C953 C952 1.367 . S
C953 C961 1.433 . S
C954 H950 0.929 . S
C954 C956 1.378 . S
C954 C958 1.350 . S
C955 C958 1.463 . S
C955 C960 1.350 . S
C955 N963 1.427 . S
C956 H947 0.930 . S
C956 C954 1.378 . S
C956 C957 1.367 . S
C957 C956 1.367 . S
C957 C959 1.433 . S
C958 C954 1.350 . S
C958 C955 1.463 . S
C958 N962 1.427 . S
C959 H949 0.929 . S
C959 C957 1.433 . S
C959 N962 1.384 . S
C960 H951 0.929 . S
C960 C952 1.378 . S
C960 C955 1.350 . S
C961 H948 0.929 . S
C961 C953 1.433 . S
C961 N963 1.384 . S
N962 C958 1.427 . S
N962 C959 1.384 . S
N963 C955 1.427 . S
N963 C961 1.384 . S
H964 C970 0.930 . S
H965 C974 0.930 . S
H966 C979 0.929 . S
H967 C977 0.929 . S
H968 C972 0.929 . S
H969 C978 0.929 . S
C970 H964 0.930 . S
C970 C971 1.367 . S
C970 C978 1.378 . S
C971 C970 1.367 . S
C971 C979 1.433 . S
C972 H968 0.929 . S
C972 C974 1.378 . S
C972 C976 1.350 . S
C973 C976 1.463 . S
C973 C978 1.350 . S
C973 N981 1.427 . S
C974 H965 0.930 . S
C974 C972 1.378 . S
C974 C975 1.367 . S
C975 C974 1.367 . S
C975 C977 1.433 . S
C976 C972 1.350 . S
C976 C973 1.463 . S
C976 N980 1.427 . S
C977 H967 0.929 . S
C977 C975 1.433 . S
C977 N980 1.384 . S
C978 H969 0.929 . S
C978 C970 1.378 . S
C978 C973 1.350 . S
C979 H966 0.929 . S
C979 C971 1.433 . S
C979 N981 1.384 . S
N980 C976 1.427 . S
N980 C977 1.384 . S
N981 C973 1.427 . S
N981 C979 1.384 . S
H982 C988 0.930 . S
H983 C992 0.930 . S
H984 C997 0.929 . S
H985 C995 0.929 . S
H986 C990 0.929 . S
H987 C996 0.929 . S
C988 H982 0.930 . S
C988 C989 1.367 . S
C988 C996 1.378 . S
C989 C988 1.367 . S
C989 C997 1.433 . S
C990 H986 0.929 . S
C990 C992 1.378 . S
C990 C994 1.350 . S
C991 C994 1.463 . S
C991 C996 1.350 . S
C991 N999 1.427 . S
C992 H983 0.930 . S
C992 C990 1.378 . S
C992 C993 1.367 . S
C993 C992 1.367 . S
C993 C995 1.433 . S
C994 C990 1.350 . S
C994 C991 1.463 . S
C994 N998 1.427 . S
C995 H985 0.929 . S
C995 C993 1.433 . S
C995 N998 1.384 . S
C996 H987 0.929 . S
C996 C988 1.378 . S
C996 C991 1.350 . S
C997 H984 0.929 . S
C997 C989 1.433 . S
C997 N999 1.384 . S
N998 C994 1.427 . S
N998 C995 1.384 . S
N999 C991 1.427 . S
N999 C997 1.384 . S
H1000 C1006 0.930 . S
H1001 C1010 0.930 . S
H1002 C1015 0.929 . S
H1003 C1013 0.929 . S
H1004 C1008 0.929 . S
H1005 C1014 0.929 . S
C1006 H1000 0.930 . S
C1006 C1007 1.367 . S
C1006 C1014 1.378 . S
C1007 C1006 1.367 . S
C1007 C1015 1.433 . S
C1008 H1004 0.929 . S
C1008 C1010 1.378 . S
C1008 C1012 1.350 . S
C1009 C1012 1.463 . S
C1009 C1014 1.350 . S
C1009 N1017 1.427 . S
C1010 H1001 0.930 . S
C1010 C1008 1.378 . S
C1010 C1011 1.367 . S
C1011 C1010 1.367 . S
C1011 C1013 1.433 . S
C1012 C1008 1.350 . S
C1012 C1009 1.463 . S
C1012 N1016 1.427 . S
C1013 H1003 0.929 . S
C1013 C1011 1.433 . S
C1013 N1016 1.384 . S
C1014 H1005 0.929 . S
C1014 C1006 1.378 . S
C1014 C1009 1.350 . S
C1015 H1002 0.929 . S
C1015 C1007 1.433 . S
C1015 N1017 1.384 . S
N1016 C1012 1.427 . S
N1016 C1013 1.384 . S
N1017 C1009 1.427 . S
N1017 C1015 1.384 . S
H1018 C1024 0.930 . S
H1019 C1028 0.930 . S
H1020 C1033 0.929 . S
H1021 C1031 0.929 . S
H1022 C1026 0.929 . S
H1023 C1032 0.929 . S
C1024 H1018 0.930 . S
C1024 C1025 1.367 . S
C1024 C1032 1.378 . S
C1025 C1024 1.367 . S
C1025 C1033 1.433 . S
C1026 H1022 0.929 . S
C1026 C1028 1.378 . S
C1026 C1030 1.350 . S
C1027 C1030 1.463 . S
C1027 C1032 1.350 . S
C1027 N1035 1.427 . S
C1028 H1019 0.930 . S
C1028 C1026 1.378 . S
C1028 C1029 1.367 . S
C1029 C1028 1.367 . S
C1029 C1031 1.433 . S
C1030 C1026 1.350 . S
C1030 C1027 1.463 . S
C1030 N1034 1.427 . S
C1031 H1021 0.929 . S
C1031 C1029 1.433 . S
C1031 N1034 1.384 . S
C1032 H1023 0.929 . S
C1032 C1024 1.378 . S
C1032 C1027 1.350 . S
C1033 H1020 0.929 . S
C1033 C1025 1.433 . S
C1033 N1035 1.384 . S
N1034 C1030 1.427 . S
N1034 C1031 1.384 . S
N1035 C1027 1.427 . S
N1035 C1033 1.384 . S
H1036 C1042 0.930 . S
H1037 C1046 0.930 . S
H1038 C1051 0.929 . S
H1039 C1049 0.929 . S
H1040 C1044 0.929 . S
H1041 C1050 0.929 . S
C1042 H1036 0.930 . S
C1042 C1043 1.367 . S
C1042 C1050 1.378 . S
C1043 C1042 1.367 . S
C1043 C1051 1.433 . S
C1044 H1040 0.929 . S
C1044 C1046 1.378 . S
C1044 C1048 1.350 . S
C1045 C1048 1.463 . S
C1045 C1050 1.350 . S
C1045 N1053 1.427 . S
C1046 H1037 0.930 . S
C1046 C1044 1.378 . S
C1046 C1047 1.367 . S
C1047 C1046 1.367 . S
C1047 C1049 1.433 . S
C1048 C1044 1.350 . S
C1048 C1045 1.463 . S
C1048 N1052 1.427 . S
C1049 H1039 0.929 . S
C1049 C1047 1.433 . S
C1049 N1052 1.384 . S
C1050 H1041 0.929 . S
C1050 C1042 1.378 . S
C1050 C1045 1.350 . S
C1051 H1038 0.929 . S
C1051 C1043 1.433 . S
C1051 N1053 1.384 . S
N1052 C1048 1.427 . S
N1052 C1049 1.384 . S
N1053 C1045 1.427 . S
N1053 C1051 1.384 . S
H1054 C1060 0.930 . S
H1055 C1064 0.930 . S
H1056 C1069 0.929 . S
H1057 C1067 0.929 . S
H1058 C1062 0.929 . S
H1059 C1068 0.929 . S
C1060 H1054 0.930 . S
C1060 C1061 1.367 . S
C1060 C1068 1.378 . S
C1061 C1060 1.367 . S
C1061 C1069 1.433 . S
C1062 H1058 0.929 . S
C1062 C1064 1.378 . S
C1062 C1066 1.350 . S
C1063 C1066 1.463 . S
C1063 C1068 1.350 . S
C1063 N1071 1.427 . S
C1064 H1055 0.930 . S
C1064 C1062 1.378 . S
C1064 C1065 1.367 . S
C1065 C1064 1.367 . S
C1065 C1067 1.433 . S
C1066 C1062 1.350 . S
C1066 C1063 1.463 . S
C1066 N1070 1.427 . S
C1067 H1057 0.929 . S
C1067 C1065 1.433 . S
C1067 N1070 1.384 . S
C1068 H1059 0.929 . S
C1068 C1060 1.378 . S
C1068 C1063 1.350 . S
C1069 H1056 0.929 . S
C1069 C1061 1.433 . S
C1069 N1071 1.384 . S
N1070 C1066 1.427 . S
N1070 C1067 1.384 . S
N1071 C1063 1.427 . S
N1071 C1069 1.384 . S
H1072 C1078 0.930 . S
H1073 C1082 0.930 1_554 S
H1074 C1087 0.929 . S
H1075 C1085 0.929 . S
H1076 C1080 0.929 . S
H1077 C1086 0.929 . S
C1078 H1072 0.930 . S
C1078 C1079 1.367 . S
C1078 C1086 1.378 . S
C1079 C1078 1.367 . S
C1079 C1087 1.433 . S
C1080 H1076 0.929 . S
C1080 C1082 1.378 . S
C1080 C1084 1.350 . S
C1081 C1084 1.463 . S
C1081 C1086 1.350 . S
C1081 N1089 1.427 . S
C1082 H1073 0.930 1_556 S
C1082 C1080 1.378 . S
C1082 C1083 1.367 . S
C1083 C1082 1.367 . S
C1083 C1085 1.433 . S
C1084 C1080 1.350 . S
C1084 C1081 1.463 . S
C1084 N1088 1.427 . S
C1085 H1075 0.929 . S
C1085 C1083 1.433 . S
C1085 N1088 1.384 . S
C1086 H1077 0.929 . S
C1086 C1078 1.378 . S
C1086 C1081 1.350 . S
C1087 H1074 0.929 . S
C1087 C1079 1.433 . S
C1087 N1089 1.384 . S
N1088 C1084 1.427 . S
N1088 C1085 1.384 . S
N1089 C1081 1.427 . S
N1089 C1087 1.384 . S
H1090 C1096 0.930 . S
H1091 C1100 0.930 . S
H1092 C1105 0.929 . S
H1093 C1103 0.929 . S
H1094 C1098 0.929 . S
H1095 C1104 0.929 . S
C1096 H1090 0.930 . S
C1096 C1097 1.367 . S
C1096 C1104 1.378 . S
C1097 C1096 1.367 . S
C1097 C1105 1.433 . S
C1098 H1094 0.929 . S
C1098 C1100 1.378 . S
C1098 C1102 1.350 . S
C1099 C1102 1.463 . S
C1099 C1104 1.350 . S
C1099 N1107 1.427 . S
C1100 H1091 0.930 . S
C1100 C1098 1.378 . S
C1100 C1101 1.367 . S
C1101 C1100 1.367 . S
C1101 C1103 1.433 . S
C1102 C1098 1.350 . S
C1102 C1099 1.463 . S
C1102 N1106 1.427 . S
C1103 H1093 0.929 . S
C1103 C1101 1.433 . S
C1103 N1106 1.384 . S
C1104 H1095 0.929 . S
C1104 C1096 1.378 . S
C1104 C1099 1.350 . S
C1105 H1092 0.929 . S
C1105 C1097 1.433 . S
C1105 N1107 1.384 . S
N1106 C1102 1.427 . S
N1106 C1103 1.384 . S
N1107 C1099 1.427 . S
N1107 C1105 1.384 . S
H1108 C1114 0.930 . S
H1109 C1118 0.930 . S
H1110 C1123 0.929 . S
H1111 C1121 0.929 . S
H1112 C1116 0.929 . S
H1113 C1122 0.929 . S
C1114 H1108 0.930 . S
C1114 C1115 1.367 . S
C1114 C1122 1.378 . S
C1115 C1114 1.367 . S
C1115 C1123 1.433 . S
C1116 H1112 0.929 . S
C1116 C1118 1.378 . S
C1116 C1120 1.350 . S
C1117 C1120 1.463 . S
C1117 C1122 1.350 . S
C1117 N1125 1.427 . S
C1118 H1109 0.930 . S
C1118 C1116 1.378 . S
C1118 C1119 1.367 . S
C1119 C1118 1.367 . S
C1119 C1121 1.433 . S
C1120 C1116 1.350 . S
C1120 C1117 1.463 . S
C1120 N1124 1.427 . S
C1121 H1111 0.929 . S
C1121 C1119 1.433 . S
C1121 N1124 1.384 . S
C1122 H1113 0.929 . S
C1122 C1114 1.378 . S
C1122 C1117 1.350 . S
C1123 H1110 0.929 . S
C1123 C1115 1.433 . S
C1123 N1125 1.384 . S
N1124 C1120 1.427 . S
N1124 C1121 1.384 . S
N1125 C1117 1.427 . S
N1125 C1123 1.384 . S
H1126 C1132 0.930 . S
H1127 C1136 0.930 . S
H1128 C1141 0.929 1_556 S
H1129 C1139 0.929 . S
H1130 C1134 0.929 . S
H1131 C1140 0.929 . S
C1132 H1126 0.930 . S
C1132 C1133 1.367 . S
C1132 C1140 1.378 . S
C1133 C1132 1.367 . S
C1133 C1141 1.433 . S
C1134 H1130 0.929 . S
C1134 C1136 1.378 . S
C1134 C1138 1.350 . S
C1135 C1138 1.463 . S
C1135 C1140 1.350 . S
C1135 N1143 1.427 . S
C1136 H1127 0.930 . S
C1136 C1134 1.378 . S
C1136 C1137 1.367 . S
C1137 C1136 1.367 . S
C1137 C1139 1.433 . S
C1138 C1134 1.350 . S
C1138 C1135 1.463 . S
C1138 N1142 1.427 . S
C1139 H1129 0.929 . S
C1139 C1137 1.433 . S
C1139 N1142 1.384 . S
C1140 H1131 0.929 . S
C1140 C1132 1.378 . S
C1140 C1135 1.350 . S
C1141 H1128 0.929 1_554 S
C1141 C1133 1.433 . S
C1141 N1143 1.384 . S
N1142 C1138 1.427 . S
N1142 C1139 1.384 . S
N1143 C1135 1.427 . S
N1143 C1141 1.384 . S
H1144 C1150 0.930 . S
H1145 C1154 0.930 . S
H1146 C1159 0.929 . S
H1147 C1157 0.929 . S
H1148 C1152 0.929 . S
H1149 C1158 0.929 . S
C1150 H1144 0.930 . S
C1150 C1151 1.367 . S
C1150 C1158 1.378 . S
C1151 C1150 1.367 . S
C1151 C1159 1.433 . S
C1152 H1148 0.929 . S
C1152 C1154 1.378 . S
C1152 C1156 1.350 . S
C1153 C1156 1.463 . S
C1153 C1158 1.350 . S
C1153 N1161 1.427 . S
C1154 H1145 0.930 . S
C1154 C1152 1.378 . S
C1154 C1155 1.367 . S
C1155 C1154 1.367 . S
C1155 C1157 1.433 . S
C1156 C1152 1.350 . S
C1156 C1153 1.463 . S
C1156 N1160 1.427 . S
C1157 H1147 0.929 . S
C1157 C1155 1.433 . S
C1157 N1160 1.384 . S
C1158 H1149 0.929 . S
C1158 C1150 1.378 . S
C1158 C1153 1.350 . S
C1159 H1146 0.929 . S
C1159 C1151 1.433 . S
C1159 N1161 1.384 . S
N1160 C1156 1.427 . S
N1160 C1157 1.384 . S
N1161 C1153 1.427 . S
N1161 C1159 1.384 . S
H1162 C1168 0.930 . S
H1163 C1172 0.930 . S
H1164 C1177 0.929 . S
H1165 C1175 0.929 . S
H1166 C1170 0.929 . S
H1167 C1176 0.929 . S
C1168 H1162 0.930 . S
C1168 C1169 1.367 . S
C1168 C1176 1.378 . S
C1169 C1168 1.367 . S
C1169 C1177 1.433 . S
C1170 H1166 0.929 . S
C1170 C1172 1.378 . S
C1170 C1174 1.350 . S
C1171 C1174 1.463 . S
C1171 C1176 1.350 . S
C1171 N1179 1.427 . S
C1172 H1163 0.930 . S
C1172 C1170 1.378 . S
C1172 C1173 1.367 . S
C1173 C1172 1.367 . S
C1173 C1175 1.433 . S
C1174 C1170 1.350 . S
C1174 C1171 1.463 . S
C1174 N1178 1.427 . S
C1175 H1165 0.929 . S
C1175 C1173 1.433 . S
C1175 N1178 1.384 . S
C1176 H1167 0.929 . S
C1176 C1168 1.378 . S
C1176 C1171 1.350 . S
C1177 H1164 0.929 . S
C1177 C1169 1.433 . S
C1177 N1179 1.384 . S
N1178 C1174 1.427 . S
N1178 C1175 1.384 . S
N1179 C1171 1.427 . S
N1179 C1177 1.384 . S
H1180 C1186 0.930 . S
H1181 C1190 0.930 . S
H1182 C1195 0.929 . S
H1183 C1193 0.929 . S
H1184 C1188 0.929 . S
H1185 C1194 0.929 . S
C1186 H1180 0.930 . S
C1186 C1187 1.367 . S
C1186 C1194 1.378 . S
C1187 C1186 1.367 . S
C1187 C1195 1.433 . S
C1188 H1184 0.929 . S
C1188 C1190 1.378 . S
C1188 C1192 1.350 . S
C1189 C1192 1.463 . S
C1189 C1194 1.350 . S
C1189 N1197 1.427 . S
C1190 H1181 0.930 . S
C1190 C1188 1.378 . S
C1190 C1191 1.367 . S
C1191 C1190 1.367 . S
C1191 C1193 1.433 . S
C1192 C1188 1.350 . S
C1192 C1189 1.463 . S
C1192 N1196 1.427 . S
C1193 H1183 0.929 . S
C1193 C1191 1.433 . S
C1193 N1196 1.384 . S
C1194 H1185 0.929 . S
C1194 C1186 1.378 . S
C1194 C1189 1.350 . S
C1195 H1182 0.929 . S
C1195 C1187 1.433 . S
C1195 N1197 1.384 . S
N1196 C1192 1.427 . S
N1196 C1193 1.384 . S
N1197 C1189 1.427 . S
N1197 C1195 1.384 . S
H1198 C1204 0.930 . S
H1199 C1208 0.930 . S
H1200 C1213 0.929 . S
H1201 C1211 0.929 . S
H1202 C1206 0.929 . S
H1203 C1212 0.929 . S
C1204 H1198 0.930 . S
C1204 C1205 1.367 . S
C1204 C1212 1.378 . S
C1205 C1204 1.367 . S
C1205 C1213 1.433 . S
C1206 H1202 0.929 . S
C1206 C1208 1.378 . S
C1206 C1210 1.350 . S
C1207 C1210 1.463 . S
C1207 C1212 1.350 . S
C1207 N1215 1.427 . S
C1208 H1199 0.930 . S
C1208 C1206 1.378 . S
C1208 C1209 1.367 . S
C1209 C1208 1.367 . S
C1209 C1211 1.433 . S
C1210 C1206 1.350 . S
C1210 C1207 1.463 . S
C1210 N1214 1.427 . S
C1211 H1201 0.929 . S
C1211 C1209 1.433 . S
C1211 N1214 1.384 . S
C1212 H1203 0.929 . S
C1212 C1204 1.378 . S
C1212 C1207 1.350 . S
C1213 H1200 0.929 . S
C1213 C1205 1.433 . S
C1213 N1215 1.384 . S
N1214 C1210 1.427 . S
N1214 C1211 1.384 . S
N1215 C1207 1.427 . S
N1215 C1213 1.384 . S
H1216 C1222 0.930 . S
H1217 C1226 0.930 . S
H1218 C1231 0.929 . S
H1219 C1229 0.929 . S
H1220 C1224 0.929 . S
H1221 C1230 0.929 . S
C1222 H1216 0.930 . S
C1222 C1223 1.367 . S
C1222 C1230 1.378 . S
C1223 C1222 1.367 . S
C1223 C1231 1.433 . S
C1224 H1220 0.929 . S
C1224 C1226 1.378 . S
C1224 C1228 1.350 . S
C1225 C1228 1.463 . S
C1225 C1230 1.350 . S
C1225 N1233 1.427 . S
C1226 H1217 0.930 . S
C1226 C1224 1.378 . S
C1226 C1227 1.367 . S
C1227 C1226 1.367 . S
C1227 C1229 1.433 . S
C1228 C1224 1.350 . S
C1228 C1225 1.463 . S
C1228 N1232 1.427 . S
C1229 H1219 0.929 . S
C1229 C1227 1.433 . S
C1229 N1232 1.384 . S
C1230 H1221 0.929 . S
C1230 C1222 1.378 . S
C1230 C1225 1.350 . S
C1231 H1218 0.929 . S
C1231 C1223 1.433 . S
C1231 N1233 1.384 . S
N1232 C1228 1.427 . S
N1232 C1229 1.384 . S
N1233 C1225 1.427 . S
N1233 C1231 1.384 . S
H1234 C1240 0.930 . S
H1235 C1244 0.930 . S
H1236 C1249 0.929 . S
H1237 C1247 0.929 . S
H1238 C1242 0.929 . S
H1239 C1248 0.929 . S
C1240 H1234 0.930 . S
C1240 C1241 1.367 . S
C1240 C1248 1.378 . S
C1241 C1240 1.367 . S
C1241 C1249 1.433 . S
C1242 H1238 0.929 . S
C1242 C1244 1.378 . S
C1242 C1246 1.350 . S
C1243 C1246 1.463 . S
C1243 C1248 1.350 . S
C1243 N1251 1.427 . S
C1244 H1235 0.930 . S
C1244 C1242 1.378 . S
C1244 C1245 1.367 . S
C1245 C1244 1.367 . S
C1245 C1247 1.433 . S
C1246 C1242 1.350 . S
C1246 C1243 1.463 . S
C1246 N1250 1.427 . S
C1247 H1237 0.929 . S
C1247 C1245 1.433 . S
C1247 N1250 1.384 . S
C1248 H1239 0.929 . S
C1248 C1240 1.378 . S
C1248 C1243 1.350 . S
C1249 H1236 0.929 . S
C1249 C1241 1.433 . S
C1249 N1251 1.384 . S
N1250 C1246 1.427 . S
N1250 C1247 1.384 . S
N1251 C1243 1.427 . S
N1251 C1249 1.384 . S
H1252 C1258 0.930 . S
H1253 C1262 0.930 . S
H1254 C1267 0.929 . S
H1255 C1265 0.929 . S
H1256 C1260 0.929 . S
H1257 C1266 0.929 . S
C1258 H1252 0.930 . S
C1258 C1259 1.367 . S
C1258 C1266 1.378 . S
C1259 C1258 1.367 . S
C1259 C1267 1.433 . S
C1260 H1256 0.929 . S
C1260 C1262 1.378 . S
C1260 C1264 1.350 . S
C1261 C1264 1.463 . S
C1261 C1266 1.350 . S
C1261 N1269 1.427 . S
C1262 H1253 0.930 . S
C1262 C1260 1.378 . S
C1262 C1263 1.367 . S
C1263 C1262 1.367 . S
C1263 C1265 1.433 . S
C1264 C1260 1.350 . S
C1264 C1261 1.463 . S
C1264 N1268 1.427 . S
C1265 H1255 0.929 . S
C1265 C1263 1.433 . S
C1265 N1268 1.384 . S
C1266 H1257 0.929 . S
C1266 C1258 1.378 . S
C1266 C1261 1.350 . S
C1267 H1254 0.929 . S
C1267 C1259 1.433 . S
C1267 N1269 1.384 . S
N1268 C1264 1.427 . S
N1268 C1265 1.384 . S
N1269 C1261 1.427 . S
N1269 C1267 1.384 . S
H1270 C1276 0.930 . S
H1271 C1280 0.930 . S
H1272 C1285 0.929 . S
H1273 C1283 0.929 . S
H1274 C1278 0.929 . S
H1275 C1284 0.929 . S
C1276 H1270 0.930 . S
C1276 C1277 1.367 . S
C1276 C1284 1.378 . S
C1277 C1276 1.367 . S
C1277 C1285 1.433 . S
C1278 H1274 0.929 . S
C1278 C1280 1.378 . S
C1278 C1282 1.350 . S
C1279 C1282 1.463 . S
C1279 C1284 1.350 . S
C1279 N1287 1.427 . S
C1280 H1271 0.930 . S
C1280 C1278 1.378 . S
C1280 C1281 1.367 . S
C1281 C1280 1.367 . S
C1281 C1283 1.433 . S
C1282 C1278 1.350 . S
C1282 C1279 1.463 . S
C1282 N1286 1.427 . S
C1283 H1273 0.929 . S
C1283 C1281 1.433 . S
C1283 N1286 1.384 . S
C1284 H1275 0.929 . S
C1284 C1276 1.378 . S
C1284 C1279 1.350 . S
C1285 H1272 0.929 . S
C1285 C1277 1.433 . S
C1285 N1287 1.384 . S
N1286 C1282 1.427 . S
N1286 C1283 1.384 . S
N1287 C1279 1.427 . S
N1287 C1285 1.384 . S
H1288 C1294 0.930 . S
H1289 C1298 0.930 . S
H1290 C1303 0.929 . S
H1291 C1301 0.929 . S
H1292 C1296 0.929 . S
H1293 C1302 0.929 . S
C1294 H1288 0.930 . S
C1294 C1295 1.367 . S
C1294 C1302 1.378 . S
C1295 C1294 1.367 . S
C1295 C1303 1.433 . S
C1296 H1292 0.929 . S
C1296 C1298 1.378 . S
C1296 C1300 1.350 . S
C1297 C1300 1.463 . S
C1297 C1302 1.350 . S
C1297 N1305 1.427 . S
C1298 H1289 0.930 . S
C1298 C1296 1.378 . S
C1298 C1299 1.367 . S
C1299 C1298 1.367 . S
C1299 C1301 1.433 . S
C1300 C1296 1.350 . S
C1300 C1297 1.463 . S
C1300 N1304 1.427 . S
C1301 H1291 0.929 . S
C1301 C1299 1.433 . S
C1301 N1304 1.384 . S
C1302 H1293 0.929 . S
C1302 C1294 1.378 . S
C1302 C1297 1.350 . S
C1303 H1290 0.929 . S
C1303 C1295 1.433 . S
C1303 N1305 1.384 . S
N1304 C1300 1.427 . S
N1304 C1301 1.384 . S
N1305 C1297 1.427 . S
N1305 C1303 1.384 . S
H1306 C1312 0.930 . S
H1307 C1316 0.930 . S
H1308 C1321 0.929 . S
H1309 C1319 0.929 . S
H1310 C1314 0.929 . S
H1311 C1320 0.929 . S
C1312 H1306 0.930 . S
C1312 C1313 1.367 . S
C1312 C1320 1.378 . S
C1313 C1312 1.367 . S
C1313 C1321 1.433 . S
C1314 H1310 0.929 . S
C1314 C1316 1.378 . S
C1314 C1318 1.350 . S
C1315 C1318 1.463 . S
C1315 C1320 1.350 . S
C1315 N1323 1.427 . S
C1316 H1307 0.930 . S
C1316 C1314 1.378 . S
C1316 C1317 1.367 . S
C1317 C1316 1.367 . S
C1317 C1319 1.433 . S
C1318 C1314 1.350 . S
C1318 C1315 1.463 . S
C1318 N1322 1.427 . S
C1319 H1309 0.929 . S
C1319 C1317 1.433 . S
C1319 N1322 1.384 . S
C1320 H1311 0.929 . S
C1320 C1312 1.378 . S
C1320 C1315 1.350 . S
C1321 H1308 0.929 . S
C1321 C1313 1.433 . S
C1321 N1323 1.384 . S
N1322 C1318 1.427 . S
N1322 C1319 1.384 . S
N1323 C1315 1.427 . S
N1323 C1321 1.384 . S
H1324 C1330 0.930 . S
H1325 C1334 0.930 . S
H1326 C1339 0.929 . S
H1327 C1337 0.929 . S
H1328 C1332 0.929 . S
H1329 C1338 0.929 . S
C1330 H1324 0.930 . S
C1330 C1331 1.367 . S
C1330 C1338 1.378 . S
C1331 C1330 1.367 . S
C1331 C1339 1.433 . S
C1332 H1328 0.929 . S
C1332 C1334 1.378 . S
C1332 C1336 1.350 . S
C1333 C1336 1.463 . S
C1333 C1338 1.350 . S
C1333 N1341 1.427 . S
C1334 H1325 0.930 . S
C1334 C1332 1.378 . S
C1334 C1335 1.367 . S
C1335 C1334 1.367 . S
C1335 C1337 1.433 . S
C1336 C1332 1.350 . S
C1336 C1333 1.463 . S
C1336 N1340 1.427 . S
C1337 H1327 0.929 . S
C1337 C1335 1.433 . S
C1337 N1340 1.384 . S
C1338 H1329 0.929 . S
C1338 C1330 1.378 . S
C1338 C1333 1.350 . S
C1339 H1326 0.929 . S
C1339 C1331 1.433 . S
C1339 N1341 1.384 . S
N1340 C1336 1.427 . S
N1340 C1337 1.384 . S
N1341 C1333 1.427 . S
N1341 C1339 1.384 . S
H1342 C1348 0.930 . S
H1343 C1352 0.930 . S
H1344 C1357 0.929 . S
H1345 C1355 0.929 . S
H1346 C1350 0.929 . S
H1347 C1356 0.929 . S
C1348 H1342 0.930 . S
C1348 C1349 1.367 . S
C1348 C1356 1.378 . S
C1349 C1348 1.367 . S
C1349 C1357 1.433 . S
C1350 H1346 0.929 . S
C1350 C1352 1.378 . S
C1350 C1354 1.350 . S
C1351 C1354 1.463 . S
C1351 C1356 1.350 . S
C1351 N1359 1.427 . S
C1352 H1343 0.930 . S
C1352 C1350 1.378 . S
C1352 C1353 1.367 . S
C1353 C1352 1.367 . S
C1353 C1355 1.433 . S
C1354 C1350 1.350 . S
C1354 C1351 1.463 . S
C1354 N1358 1.427 . S
C1355 H1345 0.929 . S
C1355 C1353 1.433 . S
C1355 N1358 1.384 . S
C1356 H1347 0.929 . S
C1356 C1348 1.378 . S
C1356 C1351 1.350 . S
C1357 H1344 0.929 . S
C1357 C1349 1.433 . S
C1357 N1359 1.384 . S
N1358 C1354 1.427 . S
N1358 C1355 1.384 . S
N1359 C1351 1.427 . S
N1359 C1357 1.384 . S
H1360 C1366 0.930 1_556 S
H1361 C1370 0.930 . S
H1362 C1375 0.929 . S
H1363 C1373 0.929 . S
H1364 C1368 0.929 . S
H1365 C1374 0.929 . S
C1366 H1360 0.930 1_554 S
C1366 C1367 1.367 1_554 S
C1366 C1374 1.378 . S
C1367 C1366 1.367 1_556 S
C1367 C1375 1.433 1_556 S
C1368 H1364 0.929 . S
C1368 C1370 1.378 . S
C1368 C1372 1.350 . S
C1369 C1372 1.463 . S
C1369 C1374 1.350 . S
C1369 N1377 1.427 . S
C1370 H1361 0.930 . S
C1370 C1368 1.378 . S
C1370 C1371 1.367 . S
C1371 C1370 1.367 . S
C1371 C1373 1.433 . S
C1372 C1368 1.350 . S
C1372 C1369 1.463 . S
C1372 N1376 1.427 . S
C1373 H1363 0.929 . S
C1373 C1371 1.433 . S
C1373 N1376 1.384 . S
C1374 H1365 0.929 . S
C1374 C1366 1.378 . S
C1374 C1369 1.350 . S
C1375 H1362 0.929 . S
C1375 C1367 1.433 1_554 S
C1375 N1377 1.384 . S
N1376 C1372 1.427 . S
N1376 C1373 1.384 . S
N1377 C1369 1.427 . S
N1377 C1375 1.384 . S
H1378 C1384 0.930 . S
H1379 C1388 0.930 . S
H1380 C1393 0.929 . S
H1381 C1391 0.929 . S
H1382 C1386 0.929 . S
H1383 C1392 0.929 . S
C1384 H1378 0.930 . S
C1384 C1385 1.367 . S
C1384 C1392 1.378 . S
C1385 C1384 1.367 . S
C1385 C1393 1.433 . S
C1386 H1382 0.929 . S
C1386 C1388 1.378 . S
C1386 C1390 1.350 . S
C1387 C1390 1.463 . S
C1387 C1392 1.350 . S
C1387 N1395 1.427 . S
C1388 H1379 0.930 . S
C1388 C1386 1.378 . S
C1388 C1389 1.367 1_556 S
C1389 C1388 1.367 1_554 S
C1389 C1391 1.433 1_554 S
C1390 C1386 1.350 . S
C1390 C1387 1.463 . S
C1390 N1394 1.427 . S
C1391 H1381 0.929 . S
C1391 C1389 1.433 1_556 S
C1391 N1394 1.384 . S
C1392 H1383 0.929 . S
C1392 C1384 1.378 . S
C1392 C1387 1.350 . S
C1393 H1380 0.929 . S
C1393 C1385 1.433 . S
C1393 N1395 1.384 . S
N1394 C1390 1.427 . S
N1394 C1391 1.384 . S
N1395 C1387 1.427 . S
N1395 C1393 1.384 . S
H1396 C1402 0.930 . S
H1397 C1406 0.930 . S
H1398 C1411 0.929 . S
H1399 C1409 0.929 . S
H1400 C1404 0.929 . S
H1401 C1410 0.929 . S
C1402 H1396 0.930 . S
C1402 C1403 1.367 . S
C1402 C1410 1.378 . S
C1403 C1402 1.367 . S
C1403 C1411 1.433 . S
C1404 H1400 0.929 . S
C1404 C1406 1.378 . S
C1404 C1408 1.350 . S
C1405 C1408 1.463 . S
C1405 C1410 1.350 . S
C1405 N1413 1.427 . S
C1406 H1397 0.930 . S
C1406 C1404 1.378 . S
C1406 C1407 1.367 1_554 S
C1407 C1406 1.367 1_556 S
C1407 C1409 1.433 1_556 S
C1408 C1404 1.350 . S
C1408 C1405 1.463 . S
C1408 N1412 1.427 . S
C1409 H1399 0.929 . S
C1409 C1407 1.433 1_554 S
C1409 N1412 1.384 . S
C1410 H1401 0.929 . S
C1410 C1402 1.378 . S
C1410 C1405 1.350 . S
C1411 H1398 0.929 . S
C1411 C1403 1.433 . S
C1411 N1413 1.384 . S
N1412 C1408 1.427 . S
N1412 C1409 1.384 . S
N1413 C1405 1.427 . S
N1413 C1411 1.384 . S
H1414 C1420 0.930 . S
H1415 C1424 0.930 . S
H1416 C1429 0.929 . S
H1417 C1427 0.929 . S
H1418 C1422 0.929 . S
H1419 C1428 0.929 . S
C1420 H1414 0.930 . S
C1420 C1421 1.367 1_556 S
C1420 C1428 1.378 . S
C1421 C1420 1.367 1_554 S
C1421 C1429 1.433 1_554 S
C1422 H1418 0.929 . S
C1422 C1424 1.378 . S
C1422 C1426 1.350 . S
C1423 C1426 1.463 . S
C1423 C1428 1.350 . S
C1423 N1431 1.427 . S
C1424 H1415 0.930 . S
C1424 C1422 1.378 . S
C1424 C1425 1.367 . S
C1425 C1424 1.367 . S
C1425 C1427 1.433 . S
C1426 C1422 1.350 . S
C1426 C1423 1.463 . S
C1426 N1430 1.427 . S
C1427 H1417 0.929 . S
C1427 C1425 1.433 . S
C1427 N1430 1.384 . S
C1428 H1419 0.929 . S
C1428 C1420 1.378 . S
C1428 C1423 1.350 . S
C1429 H1416 0.929 . S
C1429 C1421 1.433 1_556 S
C1429 N1431 1.384 . S
N1430 C1426 1.427 . S
N1430 C1427 1.384 . S
N1431 C1423 1.427 . S
N1431 C1429 1.384 . S
H1432 C1438 0.930 . S
H1433 C1442 0.930 1_556 S
H1434 C1447 0.929 . S
H1435 C1445 0.929 . S
H1436 C1440 0.929 . S
H1437 C1446 0.929 . S
C1438 H1432 0.930 . S
C1438 C1439 1.367 . S
C1438 C1446 1.378 . S
C1439 C1438 1.367 . S
C1439 C1447 1.433 . S
C1440 H1436 0.929 . S
C1440 C1442 1.378 . S
C1440 C1444 1.350 . S
C1441 C1444 1.463 . S
C1441 C1446 1.350 . S
C1441 N1449 1.427 . S
C1442 H1433 0.930 1_554 S
C1442 C1440 1.378 . S
C1442 C1443 1.367 1_554 S
C1443 C1442 1.367 1_556 S
C1443 C1445 1.433 1_556 S
C1444 C1440 1.350 . S
C1444 C1441 1.463 . S
C1444 N1448 1.427 . S
C1445 H1435 0.929 . S
C1445 C1443 1.433 1_554 S
C1445 N1448 1.384 . S
C1446 H1437 0.929 . S
C1446 C1438 1.378 . S
C1446 C1441 1.350 . S
C1447 H1434 0.929 . S
C1447 C1439 1.433 . S
C1447 N1449 1.384 . S
N1448 C1444 1.427 . S
N1448 C1445 1.384 . S
N1449 C1441 1.427 . S
N1449 C1447 1.384 . S
H1450 C1456 0.930 1_554 S
H1451 C1460 0.930 . S
H1452 C1465 0.929 1_554 S
H1453 C1463 0.929 . S
H1454 C1458 0.929 . S
H1455 C1464 0.929 . S
C1456 H1450 0.930 1_556 S
C1456 C1457 1.367 1_556 S
C1456 C1464 1.378 . S
C1457 C1456 1.367 1_554 S
C1457 C1465 1.433 1_554 S
C1458 H1454 0.929 . S
C1458 C1460 1.378 . S
C1458 C1462 1.350 . S
C1459 C1462 1.463 . S
C1459 C1464 1.350 . S
C1459 N1467 1.427 . S
C1460 H1451 0.930 . S
C1460 C1458 1.378 . S
C1460 C1461 1.367 . S
C1461 C1460 1.367 . S
C1461 C1463 1.433 . S
C1462 C1458 1.350 . S
C1462 C1459 1.463 . S
C1462 N1466 1.427 . S
C1463 H1453 0.929 . S
C1463 C1461 1.433 . S
C1463 N1466 1.384 . S
C1464 H1455 0.929 . S
C1464 C1456 1.378 . S
C1464 C1459 1.350 . S
C1465 H1452 0.929 1_556 S
C1465 C1457 1.433 1_556 S
C1465 N1467 1.384 . S
N1466 C1462 1.427 . S
N1466 C1463 1.384 . S
N1467 C1459 1.427 . S
N1467 C1465 1.384 . S
H1468 C1474 0.930 . S
H1469 C1478 0.930 . S
H1470 C1483 0.929 1_556 S
H1471 C1481 0.929 . S
H1472 C1476 0.929 . S
H1473 C1482 0.929 . S
C1474 H1468 0.930 . S
C1474 C1475 1.367 1_554 S
C1474 C1482 1.378 . S
C1475 C1474 1.367 1_556 S
C1475 C1483 1.433 1_556 S
C1476 H1472 0.929 . S
C1476 C1478 1.378 . S
C1476 C1480 1.350 . S
C1477 C1480 1.463 . S
C1477 C1482 1.350 . S
C1477 N1485 1.427 . S
C1478 H1469 0.930 . S
C1478 C1476 1.378 . S
C1478 C1479 1.367 . S
C1479 C1478 1.367 . S
C1479 C1481 1.433 . S
C1480 C1476 1.350 . S
C1480 C1477 1.463 . S
C1480 N1484 1.427 . S
C1481 H1471 0.929 . S
C1481 C1479 1.433 . S
C1481 N1484 1.384 . S
C1482 H1473 0.929 . S
C1482 C1474 1.378 . S
C1482 C1477 1.350 . S
C1483 H1470 0.929 1_554 S
C1483 C1475 1.433 1_554 S
C1483 N1485 1.384 . S
N1484 C1480 1.427 . S
N1484 C1481 1.384 . S
N1485 C1477 1.427 . S
N1485 C1483 1.384 . S
H1486 C1492 0.930 . S
H1487 C1496 0.930 . S
H1488 C1501 0.929 . S
H1489 C1499 0.929 1_554 S
H1490 C1494 0.929 . S
H1491 C1500 0.929 . S
C1492 H1486 0.930 . S
C1492 C1493 1.367 . S
C1492 C1500 1.378 . S
C1493 C1492 1.367 . S
C1493 C1501 1.433 . S
C1494 H1490 0.929 . S
C1494 C1496 1.378 . S
C1494 C1498 1.350 . S
C1495 C1498 1.463 . S
C1495 C1500 1.350 . S
C1495 N1503 1.427 . S
C1496 H1487 0.930 . S
C1496 C1494 1.378 . S
C1496 C1497 1.367 1_556 S
C1497 C1496 1.367 1_554 S
C1497 C1499 1.433 1_554 S
C1498 C1494 1.350 . S
C1498 C1495 1.463 . S
C1498 N1502 1.427 . S
C1499 H1489 0.929 1_556 S
C1499 C1497 1.433 1_556 S
C1499 N1502 1.384 . S
C1500 H1491 0.929 . S
C1500 C1492 1.378 . S
C1500 C1495 1.350 . S
C1501 H1488 0.929 . S
C1501 C1493 1.433 . S
C1501 N1503 1.384 . S
N1502 C1498 1.427 . S
N1502 C1499 1.384 . S
N1503 C1495 1.427 . S
N1503 C1501 1.384 . S
C647 C449 1.720 . S
C651 C8 1.699 . S
C665 C339 1.721 . S
C669 C58 1.700 . S
C683 C88 1.702 . S
C687 C369 1.724 . S
C701 C138 1.695 . S
C705 C419 1.717 . S
C719 C168 1.691 . S
C723 C209 1.716 . S
C737 C259 1.723 . S
C741 C218 1.695 . S
C755 C248 1.698 . S
C759 C289 1.719 . S
C773 C179 1.719 . S
C777 C298 1.691 . S
C791 C129 1.718 . S
C795 C328 1.696 . S
C809 C378 1.690 . S
C813 C19 1.718 . S
C827 C49 1.717 . S
C831 C408 1.690 . S
C845 C99 1.716 . S
C849 C458 1.692 . S
C863 C488 1.702 . S
C867 C529 1.724 . S
C881 C579 1.724 . S
C885 C538 1.702 . S
C899 C609 1.723 . S
C903 C568 1.702 . S
C917 C618 1.691 . S
C921 C499 1.716 . S
C935 C18 1.208 . S
C939 C178 1.197 . S
C953 C208 1.203 . S
C957 C48 1.193 . S
C971 C98 1.204 . S
C975 C258 1.213 . S
C989 C128 1.203 . S
C993 C288 1.213 . S
C1007 C338 1.191 . S
C1011 C498 1.198 . S
C1025 C528 1.192 . S
C1029 C368 1.194 . S
C1043 C418 1.208 . S
C1047 C578 1.214 . S
C1061 C448 1.212 . S
C1065 C608 1.202 . S
C1079 C569 2.313 . S
C1083 C9 2.314 1_556 S
C1097 C59 2.310 1_554 S
C1101 C619 2.312 . S
C1115 C89 2.311 1_556 S
C1119 C489 2.310 . S
C1133 C139 2.308 1_554 S
C1137 C539 2.308 . S
C1151 C169 2.311 . S
C1155 C409 2.309 . S
C1169 C219 2.314 . S
C1173 C459 2.315 . S
C1187 C249 2.309 . S
C1191 C329 2.308 . S
C1205 C379 2.309 . S
C1209 C299 2.308 . S
C1223 C15 1.014 . S
C1227 C5 1.014 . S
C1241 C45 1.014 . S
C1245 C55 1.014 . S
C1259 C95 1.012 . S
C1263 C85 1.012 . S
C1277 C135 1.015 . S
C1281 C125 1.015 . S
C1295 C165 1.014 . S
C1299 C175 1.014 . S
C1313 C205 1.010 . S
C1317 C215 1.010 . S
C1331 C255 1.011 . S
C1335 C245 1.011 . S
C1349 C295 1.015 . S
C1353 C285 1.015 . S
C1367 C335 1.010 . S
C1371 C325 1.010 . S
C1385 C375 1.011 . S
C1389 C365 1.011 . S
C1403 C405 1.011 . S
C1407 C415 1.011 . S
C1421 C445 1.011 . S
C1425 C455 1.011 . S
C1439 C495 1.011 . S
C1443 C485 1.011 . S
C1457 C535 1.011 . S
C1461 C525 1.011 . S
C1475 C565 1.015 . S
C1479 C575 1.015 . S
C1493 C605 1.015 . S
C1497 C615 1.015 . S
