# Generated by pormake.
# Topology ukh, (4)-cn, num edge types: 1
# Building blocks:
#     Node 0, Type 0, BuildingBlock: TATPOV_clean_sbu_0, # of connection points: 4
#     Node 1, Type 0, BuildingBlock: TATPOV_clean_sbu_0, # of connection points: 4
#     Node 2, Type 0, BuildingBlock: TATPOV_clean_sbu_0, # of connection points: 4
#     Node 3, Type 0, BuildingBlock: TATPOV_clean_sbu_0, # of connection points: 4
#     Node 4, Type 0, BuildingBlock: TATPOV_clean_sbu_0, # of connection points: 4
#     Node 5, Type 0, BuildingBlock: TATPOV_clean_sbu_0, # of connection points: 4
#     Node 6, Type 0, BuildingBlock: TATPOV_clean_sbu_0, # of connection points: 4
#     Node 7, Type 0, BuildingBlock: TATPOV_clean_sbu_0, # of connection points: 4
#     Node 8, Type 0, BuildingBlock: TATPOV_clean_sbu_0, # of connection points: 4
#     Node 9, Type 0, BuildingBlock: TATPOV_clean_sbu_0, # of connection points: 4
#     Node 10, Type 0, BuildingBlock: TATPOV_clean_sbu_0, # of connection points: 4
#     Node 11, Type 0, BuildingBlock: TATPOV_clean_sbu_0, # of connection points: 4
#     Edge 12, Type (0, 0), BuildingBlock: OJICUG_clean_linker_0, # of connection points: 2
#     Edge 13, Type (0, 0), BuildingBlock: OJICUG_clean_linker_0, # of connection points: 2
#     Edge 14, Type (0, 0), BuildingBlock: OJICUG_clean_linker_0, # of connection points: 2
#     Edge 15, Type (0, 0), BuildingBlock: OJICUG_clean_linker_0, # of connection points: 2
#     Edge 16, Type (0, 0), BuildingBlock: OJICUG_clean_linker_0, # of connection points: 2
#     Edge 17, Type (0, 0), BuildingBlock: OJICUG_clean_linker_0, # of connection points: 2
#     Edge 18, Type (0, 0), BuildingBlock: OJICUG_clean_linker_0, # of connection points: 2
#     Edge 19, Type (0, 0), BuildingBlock: OJICUG_clean_linker_0, # of connection points: 2
#     Edge 20, Type (0, 0), BuildingBlock: OJICUG_clean_linker_0, # of connection points: 2
#     Edge 21, Type (0, 0), BuildingBlock: OJICUG_clean_linker_0, # of connection points: 2
#     Edge 22, Type (0, 0), BuildingBlock: OJICUG_clean_linker_0, # of connection points: 2
#     Edge 23, Type (0, 0), BuildingBlock: OJICUG_clean_linker_0, # of connection points: 2
#     Edge 24, Type (0, 0), BuildingBlock: OJICUG_clean_linker_0, # of connection points: 2
#     Edge 25, Type (0, 0), BuildingBlock: OJICUG_clean_linker_0, # of connection points: 2
#     Edge 26, Type (0, 0), BuildingBlock: OJICUG_clean_linker_0, # of connection points: 2
#     Edge 27, Type (0, 0), BuildingBlock: OJICUG_clean_linker_0, # of connection points: 2
#     Edge 28, Type (0, 0), BuildingBlock: OJICUG_clean_linker_0, # of connection points: 2
#     Edge 29, Type (0, 0), BuildingBlock: OJICUG_clean_linker_0, # of connection points: 2
#     Edge 30, Type (0, 0), BuildingBlock: OJICUG_clean_linker_0, # of connection points: 2
#     Edge 31, Type (0, 0), BuildingBlock: OJICUG_clean_linker_0, # of connection points: 2
#     Edge 32, Type (0, 0), BuildingBlock: OJICUG_clean_linker_0, # of connection points: 2
#     Edge 33, Type (0, 0), BuildingBlock: OJICUG_clean_linker_0, # of connection points: 2
#     Edge 34, Type (0, 0), BuildingBlock: OJICUG_clean_linker_0, # of connection points: 2
#     Edge 35, Type (0, 0), BuildingBlock: OJICUG_clean_linker_0, # of connection points: 2
# Relax obj value: 0.150
# Max RMSD: 0.200
# Mean RMSD: 0.200
data_MOF--net-ukh--node1-TATPOV_clean_sbu_0--edge1-OJICUG_clean_linker_0
_symmetry_space_group_name_H-M    P1
_symmetry_Int_Tables_number       1
_symmetry_cell_setting            triclinic
loop_
_symmetry_equiv_pos_as_xyz
'x, y, z'
_cell_length_a     22.946255
_cell_length_b     22.890681
_cell_length_c     45.252611
_cell_angle_alpha  90.260991
_cell_angle_beta   90.013933
_cell_angle_gamma 119.78967
loop_
_atom_site_label
_atom_site_type_symbol
_atom_site_fract_x
_atom_site_fract_y
_atom_site_fract_z
_atom_type_partial_charge
Zn0 Zn 0.33431 0.22303 1.01483 0.0
Zn1 Zn 0.32317 0.21526 0.07343 0.0
O2 O 0.35149 0.14689 0.05981 0.0
O3 O 0.37132 0.16055 1.01214 0.0
O4 O 0.32284 0.20857 0.11819 0.0
O5 O 0.39406 0.32224 1.01761 0.0
O6 O 0.38684 0.31635 0.0661 0.0
C7 C 0.36951 0.13078 0.03587 0.0
C8 C 0.19935 0.17759 0.03543 0.0
O9 O 0.22649 0.18736 0.06096 0.0
O10 O 0.23425 0.18685 1.01241 0.0
C11 C 0.29433 0.15292 0.132 0.0
O12 O 0.26099 0.09657 0.11692 0.0
C13 C 0.40864 0.35101 0.04261 0.0
Zn14 Zn 0.09577 0.32421 0.3527 0.0
Zn15 Zn 0.09765 0.31171 0.41039 0.0
O16 O 0.19221 0.34152 0.39368 0.0
O17 O 0.19438 0.36566 0.34666 0.0
O18 O 0.11204 0.30886 0.45467 0.0
O19 O 0.05171 0.37929 0.35766 0.0
O20 O 0.05641 0.37368 0.40608 0.0
C21 C 0.22425 0.36179 0.36938 0.0
C22 C 0.01132 0.18816 0.37199 0.0
O23 O 0.0289 0.21489 0.39763 0.0
O24 O 0.03589 0.22379 0.34913 0.0
C25 C 0.06645 0.27057 0.47263 0.0
O26 O 0.00566 0.23006 0.46249 0.0
C27 C 0.03899 0.39323 0.38308 0.0
Zn28 Zn 0.74851 0.10783 0.68435 0.0
Zn29 Zn 0.76011 0.10904 0.74262 0.0
O30 O 0.82739 0.20384 0.72686 0.0
O31 O 0.81079 0.20607 0.67919 0.0
O32 O 0.77592 0.12066 0.78708 0.0
O33 O 0.65025 0.07058 0.68863 0.0
O34 O 0.65812 0.07222 0.73714 0.0
C35 C 0.84216 0.23579 0.70246 0.0
C36 C 0.79262 0.01754 0.70497 0.0
O37 O 0.78479 0.03732 0.73033 0.0
O38 O 0.78303 0.04234 0.68175 0.0
C39 C 0.83557 0.14687 0.79715 0.0
O40 O 0.88522 0.16388 0.77847 0.0
C41 C 0.62255 0.05827 0.71374 0.0
Zn42 Zn 0.63346 0.76809 1.01553 0.0
Zn43 Zn 0.64462 0.77694 0.07424 0.0
O44 O 0.61808 0.84648 0.06022 0.0
O45 O 0.59999 0.83318 1.01236 0.0
O46 O 0.64925 0.7888 0.11899 0.0
O47 O 0.57003 0.66994 1.01887 0.0
O48 O 0.57767 0.67595 0.06741 0.0
C49 C 0.60134 0.86306 0.03612 0.0
C50 C 0.76689 0.80791 0.03603 0.0
O51 O 0.73991 0.80022 0.06144 0.0
O52 O 0.73254 0.79967 1.01288 0.0
C53 C 0.68188 0.84747 0.13033 0.0
O54 O 0.71379 0.89935 0.11271 0.0
C55 C 0.55442 0.64141 0.04378 0.0
Zn56 Zn 0.84813 0.61673 0.35466 0.0
Zn57 Zn 0.85028 0.63185 0.41281 0.0
O58 O 0.75564 0.60815 0.39774 0.0
O59 O 0.7511 0.58679 0.35016 0.0
O60 O 0.84176 0.63867 0.45727 0.0
O61 O 0.87857 0.55 0.35949 0.0
O62 O 0.88154 0.56182 0.40786 0.0
C63 C 0.72293 0.59098 0.37342 0.0
C64 C 0.94456 0.75066 0.37391 0.0
O65 O 0.9246 0.72566 0.39956 0.0
O66 O 0.91797 0.71494 0.35108 0.0
C67 C 0.84299 0.68984 0.4691 0.0
O68 O 0.85197 0.74014 0.45218 0.0
C69 C 0.89091 0.53541 0.38478 0.0
Zn70 Zn 0.20591 0.85921 0.68465 0.0
Zn71 Zn 0.196 0.86227 0.74308 0.0
O72 O 0.12806 0.7664 0.72838 0.0
O73 O 0.14244 0.76062 0.68071 0.0
O74 O 0.18197 0.85422 0.78758 0.0
O75 O 0.30423 0.89577 0.68895 0.0
O76 O 0.29761 0.89819 0.73743 0.0
C77 C 0.1121 0.73268 0.70429 0.0
C78 C 0.16292 0.95143 0.7045 0.0
O79 O 0.17104 0.93305 0.73004 0.0
O80 O 0.17216 0.92531 0.68151 0.0
C81 C 0.12269 0.82754 0.79796 0.0
O82 O 0.07199 0.80775 0.77953 0.0
C83 C 0.33254 0.90989 0.71402 0.0
Zn84 Zn 0.74804 0.63269 0.71379 0.0
Zn85 Zn 0.75888 0.64377 0.65507 0.0
O86 O 0.8269 0.61647 0.6703 0.0
O87 O 0.81139 0.59728 0.71796 0.0
O88 O 0.77265 0.64646 0.61042 0.0
O89 O 0.64974 0.57135 0.7092 0.0
O90 O 0.65736 0.57827 0.66071 0.0
C91 C 0.84227 0.59911 0.69455 0.0
C92 C 0.79126 0.76699 0.69357 0.0
O93 O 0.7832 0.73963 0.66814 0.0
O94 O 0.782 0.7325 0.7167 0.0
C95 C 0.79985 0.69993 0.59502 0.0
O96 O 0.81946 0.75818 0.60805 0.0
C97 C 0.62196 0.55613 0.68402 0.0
Zn98 Zn 0.10828 0.76412 0.04441 0.0
Zn99 Zn 0.10832 0.77681 0.98591 0.0
O100 O 0.20279 0.84508 1.00172 0.0
O101 O 0.20577 0.82968 0.04945 0.0
O102 O 0.12005 0.79318 0.94164 0.0
O103 O 0.07584 0.66654 0.03892 0.0
O104 O 0.07431 0.67519 0.99053 0.0
C105 C 0.23494 0.86069 1.02617 0.0
C106 C 0.01516 0.80546 1.02411 0.0
O107 O 0.03576 0.79977 0.99862 0.0
O108 O 0.03991 0.79499 0.04716 0.0
C109 C 0.07188 0.77736 0.92361 0.0
O110 O 0.01011 0.74823 0.93371 0.0
C111 C 0.06351 0.63942 1.01357 0.0
Zn112 Zn 0.32813 0.09588 0.37681 0.0
Zn113 Zn 0.31016 0.09117 0.31809 0.0
O114 O 0.33526 0.18698 0.3324 0.0
O115 O 0.3575 0.19348 0.37993 0.0
O116 O 0.29714 0.09355 0.2736 0.0
O117 O 0.39522 0.06624 0.37054 0.0
O118 O 0.38125 0.06143 0.32226 0.0
C119 C 0.35333 0.22087 0.35645 0.0
C120 C 0.19396 -0.00146 0.35908 0.0
O121 O 0.2179 0.018 0.33323 0.0
O122 O 0.2305 0.0255 0.38163 0.0
C123 C 0.3305 0.14731 0.25876 0.0
O124 O 0.37502 0.20225 0.27246 0.0
C125 C 0.40913 0.05358 0.3451 0.0
Zn126 Zn 0.20535 0.33547 0.7116 0.0
Zn127 Zn 0.1955 0.32296 0.65325 0.0
O128 O 0.12719 0.35083 0.66775 0.0
O129 O 0.14219 0.37105 0.71544 0.0
O130 O 0.18126 0.31647 0.60869 0.0
O131 O 0.30357 0.39689 0.70772 0.0
O132 O 0.29709 0.38894 0.6592 0.0
C133 C 0.11158 0.36877 0.69187 0.0
C134 C 0.16269 0.20074 0.69177 0.0
O135 O 0.17103 0.22739 0.66628 0.0
O136 O 0.17156 0.23585 0.71481 0.0
C137 C 0.12273 0.27822 0.59823 0.0
O138 O 0.07346 0.24251 0.61662 0.0
C139 C 0.33194 0.41172 0.68275 0.0
Zn140 Zn 0.86243 0.22302 0.04284 0.0
Zn141 Zn 0.86089 0.21029 0.98491 0.0
O142 O 0.76616 0.14511 1.00122 0.0
O143 O 0.76398 0.16451 0.04865 0.0
O144 O 0.8468 0.19283 0.9406 0.0
O145 O 0.90419 0.32189 0.0384 0.0
O146 O 0.90048 0.3131 0.98988 0.0
C147 C 0.73408 0.13223 1.02557 0.0
C148 C 0.94929 0.17451 1.02265 0.0
O149 O 0.93094 0.18347 0.99722 0.0
O150 O 0.92432 0.18451 0.04578 0.0
C151 C 0.89345 0.20448 0.92233 0.0
O152 O 0.95533 0.23019 0.93213 0.0
C153 C 0.91674 0.34926 1.01324 0.0
Zn154 Zn 0.62794 0.85686 0.37633 0.0
Zn155 Zn 0.64078 0.85479 0.31863 0.0
O156 O 0.61018 0.7594 0.33482 0.0
O157 O 0.58614 0.7579 0.38188 0.0
O158 O 0.64598 0.84253 0.27427 0.0
O159 O 0.57316 0.90114 0.3713 0.0
O160 O 0.57805 0.89521 0.32286 0.0
C161 C 0.5896 0.72753 0.35914 0.0
C162 C 0.76363 0.94108 0.35752 0.0
O163 O 0.73707 0.92359 0.33188 0.0
O164 O 0.72795 0.91647 0.38036 0.0
C165 C 0.67899 0.89146 0.25679 0.0
O166 O 0.71134 0.9529 0.26765 0.0
C167 C 0.55864 0.91298 0.34589 0.0
C168 C 0.50033 0.53126 0.07116 0.0
C169 C 0.51404 0.56721 0.04455 0.0
H170 H 0.45634 0.434 0.09156 0.0
C171 C 0.49281 0.53139 1.01777 0.0
H172 H 0.51638 0.55751 0.09214 0.0
C173 C 0.45982 0.46157 1.0174 0.0
C174 C 0.44642 0.42529 0.04383 0.0
H175 H 0.50245 0.55722 0.9968 0.0
H176 H 0.44449 0.43612 0.99621 0.0
C177 C 0.46648 0.46069 0.07081 0.0
C178 C -0.00726 0.4563 0.41156 0.0
C179 C -0.00132 0.4271 0.38515 0.0
H180 H 0.95321 0.51386 0.4324 0.0
C181 C 0.96387 0.42868 0.35993 0.0
H182 H 0.01842 0.45506 0.43143 0.0
C183 C 0.92611 0.46072 0.3606 0.0
C184 C 0.92248 0.49288 0.38643 0.0
H185 H 0.9659 0.40534 0.33936 0.0
H186 H 0.90114 0.46173 0.34044 0.0
C187 C 0.95503 0.48935 0.41217 0.0
C188 C 0.44261 0.96676 0.74194 0.0
C189 C 0.40674 0.94566 0.71514 0.0
H190 H 0.53974 0.01969 0.76273 0.0
C191 C 0.44252 0.96301 0.68845 0.0
H192 H 0.41637 0.95452 0.76287 0.0
C193 C 0.51204 0.00084 0.68836 0.0
C194 C 0.54836 0.02204 0.71496 0.0
H195 H 0.41687 0.94809 0.66733 0.0
H196 H 0.53724 0.01281 0.66717 0.0
C197 C 0.51306 0.00449 0.74186 0.0
C198 C 0.51264 0.49969 0.65556 0.0
C199 C 0.54781 0.51755 0.68258 0.0
H200 H 0.41604 0.45216 0.6342 0.0
C201 C 0.51133 0.50176 0.70906 0.0
H202 H 0.53944 0.51165 0.63478 0.0
C203 C 0.44175 0.46926 0.70873 0.0
C204 C 0.40612 0.45074 0.6819 0.0
H205 H 0.53644 0.51506 0.73033 0.0
H206 H 0.41597 0.45805 0.72976 0.0
C207 C 0.44215 0.4662 0.65523 0.0
C208 C 0.96432 0.45903 0.98548 0.0
C209 C 0.95558 0.42349 1.0119 0.0
H210 H 0.00602 0.55625 0.96506 0.0
C211 C -0.01335 0.45952 0.03782 0.0
H212 H 0.94153 0.43246 0.96509 0.0
C213 C 0.02398 0.5292 0.03771 0.0
C214 C 0.03097 0.56532 1.01173 0.0
H215 H -0.01772 0.43396 0.05849 0.0
H216 H 0.04625 0.55477 0.05836 0.0
C217 C 0.00162 0.52968 0.98542 0.0
C218 C 0.48848 0.02387 0.3684 0.0
C219 C 0.45345 0.02411 0.34303 0.0
H220 H 0.54813 -0.01141 0.38908 0.0
C221 C 0.45639 -0.00949 0.31743 0.0
H222 H 0.4881 0.04987 0.38841 0.0
C223 C 0.49154 0.95484 0.3178 0.0
C224 C 0.5235 0.95207 0.34385 0.0
H225 H 0.42974 -0.01019 0.29756 0.0
H226 H 0.49211 0.92805 0.29811 0.0
C227 C 0.52268 -0.01181 0.36884 0.0
C228 C 0.3524 0.20949 0.21086 0.0
C229 C 0.3197 0.14847 0.22644 0.0
H230 H 0.36974 0.25891 0.16911 0.0
C231 C 0.2772 0.08903 0.21077 0.0
H232 H 0.38529 0.25632 0.2222 0.0
C233 C 0.2684 0.09051 0.18018 0.0
C234 C 0.30159 0.15151 0.16459 0.0
H235 H 0.25117 0.04117 0.22206 0.0
H236 H 0.23583 0.0437 0.16876 0.0
C237 C 0.34333 0.21103 0.18036 0.0
C238 C 0.14652 0.31489 0.5158 0.0
C239 C 0.08154 0.27191 0.50467 0.0
H240 H 0.21067 0.35055 0.55391 0.0
C241 C 0.03084 0.23031 0.52454 0.0
H242 H 0.18685 0.34755 0.50113 0.0
C243 C 0.0445 0.23205 0.55477 0.0
C244 C 0.10928 0.27537 0.56596 0.0
H245 H -0.01973 0.19648 0.5168 0.0
H246 H 0.004 0.19954 0.5694 0.0
C247 C 0.16023 0.31656 0.54608 0.0
C248 C 0.9159 0.18911 0.83999 0.0
C249 C 0.84967 0.16023 0.8293 0.0
H250 H -0.01841 0.22562 0.87748 0.0
C251 C 0.79773 0.14557 0.84955 0.0
H252 H 0.95722 0.20112 0.82507 0.0
C253 C 0.81181 0.15983 0.87972 0.0
C254 C 0.87816 0.189 0.89036 0.0
H255 H 0.74616 0.12339 0.84209 0.0
H256 H 0.77063 0.14805 0.89468 0.0
C257 C 0.92995 0.20325 0.87011 0.0
C258 C 0.71758 0.92326 0.17488 0.0
C259 C 0.68222 0.85796 0.16281 0.0
H260 H 0.74435 0.98499 0.21374 0.0
C261 C 0.64638 0.80344 0.18201 0.0
H262 H 0.74575 0.96649 0.16081 0.0
C263 C 0.64554 0.81413 0.21251 0.0
C264 C 0.6805 0.87958 0.22452 0.0
H265 H 0.61857 0.75248 0.17349 0.0
H266 H 0.61716 0.77106 0.22664 0.0
C267 C 0.71674 0.93392 0.20532 0.0
C268 C 0.8325 0.75454 0.54521 0.0
C269 C 0.81062 0.6969 0.5628 0.0
H270 H 0.85963 0.79747 0.50203 0.0
C271 C 0.8 0.63687 0.54932 0.0
H272 H 0.8412 0.80163 0.55483 0.0
C273 C 0.8112 0.63464 0.51899 0.0
C274 C 0.83264 0.69223 0.50139 0.0
H275 H 0.78339 0.59159 0.56221 0.0
H276 H 0.80248 0.5876 0.50931 0.0
C277 C 0.84306 0.75214 0.51488 0.0
C278 C 0.15129 0.82269 0.88052 0.0
C279 C 0.08527 0.79134 0.89153 0.0
H280 H 0.21503 0.85893 0.8425 0.0
C281 C 0.03202 0.77318 0.87154 0.0
H282 H 0.19356 0.83748 0.89529 0.0
C283 C 0.04436 0.78553 0.84128 0.0
C284 C 0.11028 0.81641 0.83022 0.0
H285 H -0.01943 0.74905 0.8792 0.0
H286 H 0.00198 0.77043 0.82655 0.0
C287 C 0.16365 0.83508 0.85023 0.0
C288 C 0.32605 0.96536 1.00361 0.0
C289 C 0.29816 0.92562 1.02883 0.0
H290 H 0.37493 0.06488 0.9862 0.0
C291 C 0.31887 0.95591 0.05686 0.0
H292 H 0.31301 0.94323 0.9817 0.0
C293 C 0.35367 0.02593 0.0595 0.0
C294 C 0.36855 0.06582 0.03409 0.0
H295 H 0.30024 0.92643 0.07683 0.0
H296 H 0.36052 0.04807 0.08133 0.0
C297 C 0.3617 0.03537 1.00625 0.0
C298 C 0.30436 0.34819 0.33714 0.0
C299 C 0.28703 0.3595 0.36559 0.0
H300 H 0.34054 0.29399 0.31166 0.0
C301 C 0.31613 0.34667 0.39021 0.0
H302 H 0.28467 0.35958 0.31759 0.0
C303 C 0.34907 0.30971 0.38673 0.0
C304 C 0.35235 0.28481 0.35865 0.0
H305 H 0.30563 0.35689 0.41239 0.0
H306 H 0.36334 0.29306 0.40643 0.0
C307 C 0.33637 0.3103 0.33368 0.0
C308 C 0.94774 0.32671 0.72484 0.0
C309 C 0.90705 0.29892 0.69972 0.0
H310 H 0.04762 0.37467 0.74191 0.0
C311 C 0.93641 0.31901 0.6716 0.0
H312 H 0.92643 0.31408 0.74681 0.0
C313 C 0.00616 0.35289 0.66874 0.0
C314 C 0.04679 0.36772 0.69399 0.0
H315 H 0.90623 0.30042 0.65172 0.0
H316 H 0.02742 0.3592 0.64682 0.0
C317 C 0.01749 0.36151 0.72196 0.0
C318 C 0.60708 0.95709 1.00652 0.0
C319 C 0.60214 0.92792 0.03438 0.0
H320 H 0.65339 0.04822 0.98165 0.0
C321 C 0.61779 0.96876 0.0597 0.0
H322 H 0.59307 0.92674 0.98657 0.0
C323 C 0.65146 0.03867 0.05684 0.0
C324 C 0.67054 0.06788 1.02866 0.0
H325 H 0.61236 0.94758 0.08156 0.0
H326 H 0.67091 0.069 0.07668 0.0
C327 C 0.64163 0.02699 1.00365 0.0
C328 C 0.5991 0.6452 0.39151 0.0
C329 C 0.59021 0.66376 0.36295 0.0
H330 H 0.64927 0.60573 0.41751 0.0
C331 C 0.60307 0.63404 0.33847 0.0
H332 H 0.58758 0.66535 0.41094 0.0
C333 C 0.63761 0.59878 0.34232 0.0
C334 C 0.66028 0.59397 0.37063 0.0
H335 H 0.59467 0.64549 0.3162 0.0
H336 H 0.6544 0.58389 0.32279 0.0
C337 C 0.63465 0.61093 0.39534 0.0
C338 C 0.00706 0.64411 0.72761 0.0
C339 C 0.04702 0.66942 0.70225 0.0
H340 H 0.90771 0.59807 0.74497 0.0
C341 C 0.01681 0.64668 0.67435 0.0
H342 H 0.02903 0.6588 0.74947 0.0
C343 C 0.94697 0.61264 0.67171 0.0
C344 C 0.90711 0.60032 0.69698 0.0
H345 H 0.0464 0.66328 0.65432 0.0
H346 H 0.92504 0.60418 0.64981 0.0
C347 C 0.93722 0.6092 0.72497 0.0
C348 C 0.04133 0.15961 1.00068 0.0
C349 C 0.0059 0.16121 1.02567 0.0
H350 H 0.12995 0.16259 0.98418 0.0
C351 C 0.03003 0.15817 0.05391 0.0
H352 H 0.02388 0.16132 0.97863 0.0
C353 C 0.09111 0.15928 0.05714 0.0
C354 C 0.1292 0.16317 0.0322 0.0
H355 H 0.0036 0.15857 0.07366 0.0
H356 H 0.10997 0.16051 0.07922 0.0
C357 C 0.10229 0.16045 1.00391 0.0
C358 C 0.87189 0.03124 0.33637 0.0
C359 C 0.83375 -0.00368 0.36108 0.0
H360 H 0.95877 0.11891 0.32045 0.0
C361 C 0.86025 0.01982 0.38952 0.0
H362 H 0.85332 0.01417 0.31417 0.0
C363 C 0.92065 0.08013 0.39317 0.0
C364 C 0.95587 0.11802 0.36846 0.0
H365 H 0.83255 -0.00634 0.40908 0.0
H366 H 0.93765 0.0988 0.41537 0.0
C367 C 0.93241 0.09141 0.34001 0.0
C368 C 0.80732 0.87398 0.67128 0.0
C369 C 0.80416 0.83689 0.69644 0.0
H370 H 0.80716 0.96077 0.65424 0.0
C371 C 0.80661 0.86461 0.72457 0.0
H372 H 0.80616 0.85445 0.64931 0.0
C373 C 0.80698 0.92559 0.72744 0.0
C374 C 0.80506 0.96018 0.70225 0.0
H375 H 0.80497 0.8377 0.74446 0.0
H376 H 0.80547 0.94384 0.74939 0.0
C377 C 0.80786 0.93502 0.67415 0.0
C378 C 0.86326 0.8216 1.005 0.0
C379 C 0.83598 0.81906 0.03315 0.0
H380 H 0.9415 0.81971 0.97999 0.0
C381 C 0.87261 0.82048 0.05826 0.0
H382 H 0.83666 0.82115 0.98515 0.0
C383 C 0.93288 0.81982 0.05526 0.0
C384 C 0.95777 0.81762 1.02708 0.0
H385 H 0.85335 0.81909 0.08025 0.0
H386 H 0.95838 0.8181 0.0751 0.0
C387 C 0.92348 0.82082 1.002 0.0
C388 C 0.02576 0.84534 0.34202 0.0
C389 C 0.00299 0.81913 0.37043 0.0
H390 H 0.10358 0.92269 0.31611 0.0
C391 C 0.04007 0.85642 0.39514 0.0
H392 H -0.00188 0.81823 0.32248 0.0
C393 C 0.10066 0.91648 0.39145 0.0
C394 C 0.12543 0.94054 0.36297 0.0
H395 H 0.02378 0.83792 0.41732 0.0
H396 H 0.12926 0.94266 0.41095 0.0
C397 C 0.08629 0.90535 0.33833 0.0
C398 C 0.14749 0.04365 0.7263 0.0
C399 C 0.15026 0.00852 0.70132 0.0
H400 H 0.14833 0.1316 0.74287 0.0
C401 C 0.14786 0.03275 0.67307 0.0
H402 H 0.14864 0.0261 0.74837 0.0
C403 C 0.14789 0.09344 0.66987 0.0
C404 C 0.15017 0.13108 0.69487 0.0
H405 H 0.14921 0.00656 0.65331 0.0
H406 H 0.14935 0.1123 0.64781 0.0
C407 C 0.14736 0.10425 0.72311 0.0
loop_
_geom_bond_atom_site_label_1
_geom_bond_atom_site_label_2
_geom_bond_distance
_geom_bond_site_symmetry_2
_ccdc_geom_bond_type
Zn0 O3 2.036 . S
Zn0 O5 2.049 1_556 S
Zn0 O10 2.067 1_556 S
Zn1 O2 1.962 . S
Zn1 O4 1.986 . S
Zn1 O6 1.996 . S
Zn1 O9 1.943 . S
O2 Zn1 1.962 . S
O2 C7 1.254 . S
O3 Zn0 2.036 . S
O3 C7 1.255 1_556 S
O4 Zn1 1.986 . S
O4 C11 1.262 . S
O5 Zn0 2.049 1_554 S
O5 C13 1.260 . S
O6 Zn1 1.996 . S
O6 C13 1.257 . S
C7 O2 1.254 . S
C7 O3 1.255 1_554 S
C8 O9 1.249 . S
C8 O10 1.270 . S
O9 Zn1 1.943 . S
O9 C8 1.249 . S
O10 Zn0 2.067 1_554 S
O10 C8 1.270 . S
C11 O4 1.262 . S
C11 O12 1.232 . S
O12 C11 1.232 . S
C13 O5 1.260 . S
C13 O6 1.257 . S
Zn14 O17 2.031 . S
Zn14 O19 2.049 . S
Zn14 O24 2.067 1_455 S
Zn15 O16 1.962 . S
Zn15 O18 1.986 . S
Zn15 O20 1.996 . S
Zn15 O23 1.943 . S
O16 Zn15 1.962 . S
O16 C21 1.254 . S
O17 Zn14 2.031 . S
O17 C21 1.269 . S
O18 Zn15 1.986 . S
O18 C25 1.262 . S
O19 Zn14 2.049 . S
O19 C27 1.260 . S
O20 Zn15 1.996 . S
O20 C27 1.257 . S
C21 O16 1.254 . S
C21 O17 1.269 . S
C22 O23 1.249 1_655 S
C22 O24 1.270 . S
O23 Zn15 1.943 . S
O23 C22 1.249 1_455 S
O24 Zn14 2.067 1_655 S
O24 C22 1.270 . S
C25 O18 1.262 . S
C25 O26 1.232 . S
O26 C25 1.232 . S
C27 O19 1.260 . S
C27 O20 1.257 . S
Zn28 O31 2.031 . S
Zn28 O33 2.049 . S
Zn28 O38 2.067 1_545 S
Zn29 O30 1.962 . S
Zn29 O32 1.986 . S
Zn29 O34 1.996 . S
Zn29 O37 1.943 . S
O30 Zn29 1.962 . S
O30 C35 1.254 . S
O31 Zn28 2.031 . S
O31 C35 1.269 . S
O32 Zn29 1.986 . S
O32 C39 1.262 . S
O33 Zn28 2.049 . S
O33 C41 1.260 . S
O34 Zn29 1.996 . S
O34 C41 1.257 . S
C35 O30 1.254 . S
C35 O31 1.269 . S
C36 O37 1.249 1_565 S
C36 O38 1.270 . S
O37 Zn29 1.943 . S
O37 C36 1.249 1_545 S
O38 Zn28 2.067 1_565 S
O38 C36 1.270 . S
C39 O32 1.262 . S
C39 O40 1.232 . S
O40 C39 1.232 . S
C41 O33 1.260 . S
C41 O34 1.257 . S
Zn42 O45 2.036 . S
Zn42 O47 2.049 1_556 S
Zn42 O52 2.067 1_556 S
Zn43 O44 1.962 . S
Zn43 O46 1.986 . S
Zn43 O48 1.996 . S
Zn43 O51 1.943 . S
O44 Zn43 1.962 . S
O44 C49 1.254 . S
O45 Zn42 2.036 . S
O45 C49 1.255 1_556 S
O46 Zn43 1.986 . S
O46 C53 1.262 . S
O47 Zn42 2.049 1_554 S
O47 C55 1.260 . S
O48 Zn43 1.996 . S
O48 C55 1.257 . S
C49 O44 1.254 . S
C49 O45 1.255 1_554 S
C50 O51 1.249 . S
C50 O52 1.270 . S
O51 Zn43 1.943 . S
O51 C50 1.249 . S
O52 Zn42 2.067 1_554 S
O52 C50 1.270 . S
C53 O46 1.262 . S
C53 O54 1.232 . S
O54 C53 1.232 . S
C55 O47 1.260 . S
C55 O48 1.257 . S
Zn56 O59 2.031 . S
Zn56 O61 2.049 . S
Zn56 O66 2.067 1_655 S
Zn57 O58 1.962 . S
Zn57 O60 1.986 . S
Zn57 O62 1.996 . S
Zn57 O65 1.943 . S
O58 Zn57 1.962 . S
O58 C63 1.254 . S
O59 Zn56 2.031 . S
O59 C63 1.269 . S
O60 Zn57 1.986 . S
O60 C67 1.262 . S
O61 Zn56 2.049 . S
O61 C69 1.260 . S
O62 Zn57 1.996 . S
O62 C69 1.257 . S
C63 O58 1.254 . S
C63 O59 1.269 . S
C64 O65 1.249 1_455 S
C64 O66 1.270 . S
O65 Zn57 1.943 . S
O65 C64 1.249 1_655 S
O66 Zn56 2.067 1_455 S
O66 C64 1.270 . S
C67 O60 1.262 . S
C67 O68 1.232 . S
O68 C67 1.232 . S
C69 O61 1.260 . S
C69 O62 1.257 . S
Zn70 O73 2.031 . S
Zn70 O75 2.049 . S
Zn70 O80 2.067 1_565 S
Zn71 O72 1.962 . S
Zn71 O74 1.986 . S
Zn71 O76 1.996 . S
Zn71 O79 1.943 . S
O72 Zn71 1.962 . S
O72 C77 1.254 . S
O73 Zn70 2.031 . S
O73 C77 1.269 . S
O74 Zn71 1.986 . S
O74 C81 1.262 . S
O75 Zn70 2.049 . S
O75 C83 1.260 . S
O76 Zn71 1.996 . S
O76 C83 1.257 . S
C77 O72 1.254 . S
C77 O73 1.269 . S
C78 O79 1.249 1_545 S
C78 O80 1.270 . S
O79 Zn71 1.943 . S
O79 C78 1.249 1_565 S
O80 Zn70 2.067 1_545 S
O80 C78 1.270 . S
C81 O74 1.262 . S
C81 O82 1.232 . S
O82 C81 1.232 . S
C83 O75 1.260 . S
C83 O76 1.257 . S
Zn84 O87 2.031 . S
Zn84 O89 2.049 . S
Zn84 O94 2.067 . S
Zn85 O86 1.962 . S
Zn85 O88 1.986 . S
Zn85 O90 1.996 . S
Zn85 O93 1.943 . S
O86 Zn85 1.962 . S
O86 C91 1.254 . S
O87 Zn84 2.031 . S
O87 C91 1.269 . S
O88 Zn85 1.986 . S
O88 C95 1.262 . S
O89 Zn84 2.049 . S
O89 C97 1.260 . S
O90 Zn85 1.996 . S
O90 C97 1.257 . S
C91 O86 1.254 . S
C91 O87 1.269 . S
C92 O93 1.249 . S
C92 O94 1.270 . S
O93 Zn85 1.943 . S
O93 C92 1.249 . S
O94 Zn84 2.067 . S
O94 C92 1.270 . S
C95 O88 1.262 . S
C95 O96 1.232 . S
O96 C95 1.232 . S
C97 O89 1.260 . S
C97 O90 1.257 . S
Zn98 O101 2.036 . S
Zn98 O103 2.049 1_554 S
Zn98 O108 2.067 1_454 S
Zn99 O100 1.962 . S
Zn99 O102 1.986 . S
Zn99 O104 1.996 . S
Zn99 O107 1.943 . S
O100 Zn99 1.962 . S
O100 C105 1.254 . S
O101 Zn98 2.036 . S
O101 C105 1.255 1_554 S
O102 Zn99 1.986 . S
O102 C109 1.262 . S
O103 Zn98 2.049 1_556 S
O103 C111 1.260 . S
O104 Zn99 1.996 . S
O104 C111 1.257 . S
C105 O100 1.254 . S
C105 O101 1.255 1_556 S
C106 O107 1.249 1_655 S
C106 O108 1.270 . S
O107 Zn99 1.943 . S
O107 C106 1.249 1_455 S
O108 Zn98 2.067 1_656 S
O108 C106 1.270 . S
C109 O102 1.262 . S
C109 O110 1.232 . S
O110 C109 1.232 . S
C111 O103 1.260 . S
C111 O104 1.257 . S
Zn112 O115 2.031 . S
Zn112 O117 2.049 . S
Zn112 O122 2.067 1_545 S
Zn113 O114 1.962 . S
Zn113 O116 1.986 . S
Zn113 O118 1.996 . S
Zn113 O121 1.943 . S
O114 Zn113 1.962 . S
O114 C119 1.254 . S
O115 Zn112 2.031 . S
O115 C119 1.269 . S
O116 Zn113 1.986 . S
O116 C123 1.262 . S
O117 Zn112 2.049 . S
O117 C125 1.260 . S
O118 Zn113 1.996 . S
O118 C125 1.257 . S
C119 O114 1.254 . S
C119 O115 1.269 . S
C120 O121 1.249 1_565 S
C120 O122 1.270 . S
O121 Zn113 1.943 . S
O121 C120 1.249 1_545 S
O122 Zn112 2.067 1_565 S
O122 C120 1.270 . S
C123 O116 1.262 . S
C123 O124 1.232 . S
O124 C123 1.232 . S
C125 O117 1.260 . S
C125 O118 1.257 . S
Zn126 O129 2.031 . S
Zn126 O131 2.049 . S
Zn126 O136 2.067 . S
Zn127 O128 1.962 . S
Zn127 O130 1.986 . S
Zn127 O132 1.996 . S
Zn127 O135 1.943 . S
O128 Zn127 1.962 . S
O128 C133 1.254 . S
O129 Zn126 2.031 . S
O129 C133 1.269 . S
O130 Zn127 1.986 . S
O130 C137 1.262 . S
O131 Zn126 2.049 . S
O131 C139 1.260 . S
O132 Zn127 1.996 . S
O132 C139 1.257 . S
C133 O128 1.254 . S
C133 O129 1.269 . S
C134 O135 1.249 . S
C134 O136 1.270 . S
O135 Zn127 1.943 . S
O135 C134 1.249 . S
O136 Zn126 2.067 . S
O136 C134 1.270 . S
C137 O130 1.262 . S
C137 O138 1.232 . S
O138 C137 1.232 . S
C139 O131 1.260 . S
C139 O132 1.257 . S
Zn140 O143 2.036 . S
Zn140 O145 2.049 1_554 S
Zn140 O150 2.067 1_654 S
Zn141 O142 1.962 . S
Zn141 O144 1.986 . S
Zn141 O146 1.996 . S
Zn141 O149 1.943 . S
O142 Zn141 1.962 . S
O142 C147 1.254 . S
O143 Zn140 2.036 . S
O143 C147 1.255 1_554 S
O144 Zn141 1.986 . S
O144 C151 1.262 . S
O145 Zn140 2.049 1_556 S
O145 C153 1.260 . S
O146 Zn141 1.996 . S
O146 C153 1.257 . S
C147 O142 1.254 . S
C147 O143 1.255 1_556 S
C148 O149 1.249 1_455 S
C148 O150 1.270 . S
O149 Zn141 1.943 . S
O149 C148 1.249 1_655 S
O150 Zn140 2.067 1_456 S
O150 C148 1.270 . S
C151 O144 1.262 . S
C151 O152 1.232 . S
O152 C151 1.232 . S
C153 O145 1.260 . S
C153 O146 1.257 . S
Zn154 O157 2.031 . S
Zn154 O159 2.049 . S
Zn154 O164 2.067 1_565 S
Zn155 O156 1.962 . S
Zn155 O158 1.986 . S
Zn155 O160 1.996 . S
Zn155 O163 1.943 . S
O156 Zn155 1.962 . S
O156 C161 1.254 . S
O157 Zn154 2.031 . S
O157 C161 1.269 . S
O158 Zn155 1.986 . S
O158 C165 1.262 . S
O159 Zn154 2.049 . S
O159 C167 1.260 . S
O160 Zn155 1.996 . S
O160 C167 1.257 . S
C161 O156 1.254 . S
C161 O157 1.269 . S
C162 O163 1.249 1_545 S
C162 O164 1.270 . S
O163 Zn155 1.943 . S
O163 C162 1.249 1_565 S
O164 Zn154 2.067 1_545 S
O164 C162 1.270 . S
C165 O158 1.262 . S
C165 O166 1.232 . S
O166 C165 1.232 . S
C167 O159 1.260 . S
C167 O160 1.257 . S
C168 C169 1.387 . S
C168 H172 0.950 . S
C168 C177 1.390 . S
C169 C168 1.387 . S
C169 C171 1.387 . S
H170 C177 0.950 . S
C171 C169 1.387 . S
C171 C173 1.390 . S
C171 H175 0.950 1_554 S
H172 C168 0.950 . S
C173 C171 1.390 . S
C173 C174 1.387 . S
C173 H176 0.950 1_554 S
C174 C173 1.387 . S
C174 C177 1.387 . S
H175 C171 0.950 1_556 S
H176 C173 0.950 1_556 S
C177 C168 1.390 . S
C177 H170 0.950 . S
C177 C174 1.387 . S
C178 C179 1.387 . S
C178 H182 0.950 . S
C178 C187 1.390 1_455 S
C179 C178 1.387 . S
C179 C181 1.387 . S
H180 C187 0.950 . S
C181 C179 1.387 . S
C181 C183 1.390 1_455 S
C181 H185 0.950 . S
H182 C178 0.950 . S
C183 C181 1.390 1_655 S
C183 C184 1.387 . S
C183 H186 0.950 . S
C184 C183 1.387 . S
C184 C187 1.387 . S
H185 C181 0.950 . S
H186 C183 0.950 . S
C187 C178 1.390 1_655 S
C187 H180 0.950 . S
C187 C184 1.387 . S
C188 C189 1.387 . S
C188 H192 0.950 . S
C188 C197 1.390 1_565 S
C189 C188 1.387 . S
C189 C191 1.387 . S
H190 C197 0.950 . S
C191 C189 1.387 . S
C191 C193 1.390 1_565 S
C191 H195 0.950 . S
H192 C188 0.950 . S
C193 C191 1.390 1_545 S
C193 C194 1.387 . S
C193 H196 0.950 . S
C194 C193 1.387 . S
C194 C197 1.387 . S
H195 C191 0.950 . S
H196 C193 0.950 . S
C197 C188 1.390 1_545 S
C197 H190 0.950 . S
C197 C194 1.387 . S
C198 C199 1.387 . S
C198 H202 0.950 . S
C198 C207 1.390 . S
C199 C198 1.387 . S
C199 C201 1.387 . S
H200 C207 0.950 . S
C201 C199 1.387 . S
C201 C203 1.390 . S
C201 H205 0.950 . S
H202 C198 0.950 . S
C203 C201 1.390 . S
C203 C204 1.387 . S
C203 H206 0.950 . S
C204 C203 1.387 . S
C204 C207 1.387 . S
H205 C201 0.950 . S
H206 C203 0.950 . S
C207 C198 1.390 . S
C207 H200 0.950 . S
C207 C204 1.387 . S
C208 C209 1.387 . S
C208 H212 0.950 . S
C208 C217 1.390 1_655 S
C209 C208 1.387 . S
C209 C211 1.387 . S
H210 C217 0.950 . S
C211 C209 1.387 . S
C211 C213 1.390 1_655 S
C211 H215 0.950 1_556 S
H212 C208 0.950 . S
C213 C211 1.390 1_455 S
C213 C214 1.387 . S
C213 H216 0.950 1_556 S
C214 C213 1.387 . S
C214 C217 1.387 . S
H215 C211 0.950 1_554 S
H216 C213 0.950 1_554 S
C217 C208 1.390 1_455 S
C217 H210 0.950 . S
C217 C214 1.387 . S
C218 C219 1.387 . S
C218 H222 0.950 . S
C218 C227 1.390 1_545 S
C219 C218 1.387 . S
C219 C221 1.387 . S
H220 C227 0.950 . S
C221 C219 1.387 . S
C221 C223 1.390 1_545 S
C221 H225 0.950 . S
H222 C218 0.950 . S
C223 C221 1.390 1_565 S
C223 C224 1.387 . S
C223 H226 0.950 . S
C224 C223 1.387 . S
C224 C227 1.387 . S
H225 C221 0.950 . S
H226 C223 0.950 . S
C227 C218 1.390 1_565 S
C227 H220 0.950 . S
C227 C224 1.387 . S
C228 C229 1.387 . S
C228 H232 0.950 . S
C228 C237 1.390 . S
C229 C228 1.387 . S
C229 C231 1.387 . S
H230 C237 0.950 . S
C231 C229 1.387 . S
C231 C233 1.390 . S
C231 H235 0.950 . S
H232 C228 0.950 . S
C233 C231 1.390 . S
C233 C234 1.387 . S
C233 H236 0.950 . S
C234 C233 1.387 . S
C234 C237 1.387 . S
H235 C231 0.950 . S
H236 C233 0.950 . S
C237 C228 1.390 . S
C237 H230 0.950 . S
C237 C234 1.387 . S
C238 C239 1.387 . S
C238 H242 0.950 . S
C238 C247 1.390 . S
C239 C238 1.387 . S
C239 C241 1.387 . S
H240 C247 0.950 . S
C241 C239 1.387 . S
C241 C243 1.390 . S
C241 H245 0.950 . S
H242 C238 0.950 . S
C243 C241 1.390 . S
C243 C244 1.387 . S
C243 H246 0.950 . S
C244 C243 1.387 . S
C244 C247 1.387 . S
H245 C241 0.950 . S
H246 C243 0.950 . S
C247 C238 1.390 . S
C247 H240 0.950 . S
C247 C244 1.387 . S
C248 C249 1.387 . S
C248 H252 0.950 . S
C248 C257 1.390 . S
C249 C248 1.387 . S
C249 C251 1.387 . S
H250 C257 0.950 . S
C251 C249 1.387 . S
C251 C253 1.390 . S
C251 H255 0.950 . S
H252 C248 0.950 . S
C253 C251 1.390 . S
C253 C254 1.387 . S
C253 H256 0.950 . S
C254 C253 1.387 . S
C254 C257 1.387 . S
H255 C251 0.950 . S
H256 C253 0.950 . S
C257 C248 1.390 . S
C257 H250 0.950 . S
C257 C254 1.387 . S
C258 C259 1.387 . S
C258 H262 0.950 . S
C258 C267 1.390 . S
C259 C258 1.387 . S
C259 C261 1.387 . S
H260 C267 0.950 . S
C261 C259 1.387 . S
C261 C263 1.390 . S
C261 H265 0.950 . S
H262 C258 0.950 . S
C263 C261 1.390 . S
C263 C264 1.387 . S
C263 H266 0.950 . S
C264 C263 1.387 . S
C264 C267 1.387 . S
H265 C261 0.950 . S
H266 C263 0.950 . S
C267 C258 1.390 . S
C267 H260 0.950 . S
C267 C264 1.387 . S
C268 C269 1.387 . S
C268 H272 0.950 . S
C268 C277 1.390 . S
C269 C268 1.387 . S
C269 C271 1.387 . S
H270 C277 0.950 . S
C271 C269 1.387 . S
C271 C273 1.390 . S
C271 H275 0.950 . S
H272 C268 0.950 . S
C273 C271 1.390 . S
C273 C274 1.387 . S
C273 H276 0.950 . S
C274 C273 1.387 . S
C274 C277 1.387 . S
H275 C271 0.950 . S
H276 C273 0.950 . S
C277 C268 1.390 . S
C277 H270 0.950 . S
C277 C274 1.387 . S
C278 C279 1.387 . S
C278 H282 0.950 . S
C278 C287 1.390 . S
C279 C278 1.387 . S
C279 C281 1.387 . S
H280 C287 0.950 . S
C281 C279 1.387 . S
C281 C283 1.390 . S
C281 H285 0.950 . S
H282 C278 0.950 . S
C283 C281 1.390 . S
C283 C284 1.387 . S
C283 H286 0.950 . S
C284 C283 1.387 . S
C284 C287 1.387 . S
H285 C281 0.950 . S
H286 C283 0.950 . S
C287 C278 1.390 . S
C287 H280 0.950 . S
C287 C284 1.387 . S
C288 C289 1.387 . S
C288 H292 0.950 . S
C288 C297 1.390 1_566 S
C289 C288 1.387 . S
C289 C291 1.387 . S
H290 C297 0.950 . S
C291 C289 1.387 . S
C291 C293 1.390 1_566 S
C291 H295 0.950 . S
H292 C288 0.950 . S
C293 C291 1.390 1_544 S
C293 C294 1.387 . S
C293 H296 0.950 . S
C294 C293 1.387 . S
C294 C297 1.387 . S
H295 C291 0.950 . S
H296 C293 0.950 . S
C297 C288 1.390 1_544 S
C297 H290 0.950 . S
C297 C294 1.387 . S
C298 C299 1.387 . S
C298 H302 0.950 . S
C298 C307 1.390 . S
C299 C298 1.387 . S
C299 C301 1.387 . S
H300 C307 0.950 . S
C301 C299 1.387 . S
C301 C303 1.390 . S
C301 H305 0.950 . S
H302 C298 0.950 . S
C303 C301 1.390 . S
C303 C304 1.387 . S
C303 H306 0.950 . S
C304 C303 1.387 . S
C304 C307 1.387 . S
H305 C301 0.950 . S
H306 C303 0.950 . S
C307 C298 1.390 . S
C307 H300 0.950 . S
C307 C304 1.387 . S
C308 C309 1.387 . S
C308 H312 0.950 . S
C308 C317 1.390 1_655 S
C309 C308 1.387 . S
C309 C311 1.387 . S
H310 C317 0.950 . S
C311 C309 1.387 . S
C311 C313 1.390 1_655 S
C311 H315 0.950 . S
H312 C308 0.950 . S
C313 C311 1.390 1_455 S
C313 C314 1.387 . S
C313 H316 0.950 . S
C314 C313 1.387 . S
C314 C317 1.387 . S
H315 C311 0.950 . S
H316 C313 0.950 . S
C317 C308 1.390 1_455 S
C317 H310 0.950 . S
C317 C314 1.387 . S
C318 C319 1.387 . S
C318 H322 0.950 . S
C318 C327 1.390 1_564 S
C319 C318 1.387 . S
C319 C321 1.387 . S
H320 C327 0.950 . S
C321 C319 1.387 . S
C321 C323 1.390 1_564 S
C321 H325 0.950 . S
H322 C318 0.950 . S
C323 C321 1.390 1_546 S
C323 C324 1.387 . S
C323 H326 0.950 . S
C324 C323 1.387 . S
C324 C327 1.387 . S
H325 C321 0.950 . S
H326 C323 0.950 . S
C327 C318 1.390 1_546 S
C327 H320 0.950 . S
C327 C324 1.387 . S
C328 C329 1.387 . S
C328 H332 0.950 . S
C328 C337 1.390 . S
C329 C328 1.387 . S
C329 C331 1.387 . S
H330 C337 0.950 . S
C331 C329 1.387 . S
C331 C333 1.390 . S
C331 H335 0.950 . S
H332 C328 0.950 . S
C333 C331 1.390 . S
C333 C334 1.387 . S
C333 H336 0.950 . S
C334 C333 1.387 . S
C334 C337 1.387 . S
H335 C331 0.950 . S
H336 C333 0.950 . S
C337 C328 1.390 . S
C337 H330 0.950 . S
C337 C334 1.387 . S
C338 C339 1.387 . S
C338 H342 0.950 . S
C338 C347 1.390 1_455 S
C339 C338 1.387 . S
C339 C341 1.387 . S
H340 C347 0.950 . S
C341 C339 1.387 . S
C341 C343 1.390 1_455 S
C341 H345 0.950 . S
H342 C338 0.950 . S
C343 C341 1.390 1_655 S
C343 C344 1.387 . S
C343 H346 0.950 . S
C344 C343 1.387 . S
C344 C347 1.387 . S
H345 C341 0.950 . S
H346 C343 0.950 . S
C347 C338 1.390 1_655 S
C347 H340 0.950 . S
C347 C344 1.387 . S
C348 C349 1.387 . S
C348 H352 0.950 . S
C348 C357 1.390 1_556 S
C349 C348 1.387 . S
C349 C351 1.387 . S
H350 C357 0.950 . S
C351 C349 1.387 . S
C351 C353 1.390 1_556 S
C351 H355 0.950 . S
H352 C348 0.950 . S
C353 C351 1.390 1_554 S
C353 C354 1.387 . S
C353 H356 0.950 . S
C354 C353 1.387 . S
C354 C357 1.387 . S
H355 C351 0.950 . S
H356 C353 0.950 . S
C357 C348 1.390 1_554 S
C357 H350 0.950 . S
C357 C354 1.387 . S
C358 C359 1.387 . S
C358 H362 0.950 . S
C358 C367 1.390 . S
C359 C358 1.387 . S
C359 C361 1.387 . S
H360 C367 0.950 . S
C361 C359 1.387 . S
C361 C363 1.390 . S
C361 H365 0.950 . S
H362 C358 0.950 . S
C363 C361 1.390 . S
C363 C364 1.387 . S
C363 H366 0.950 . S
C364 C363 1.387 . S
C364 C367 1.387 . S
H365 C361 0.950 . S
H366 C363 0.950 . S
C367 C358 1.390 . S
C367 H360 0.950 . S
C367 C364 1.387 . S
C368 C369 1.387 . S
C368 H372 0.950 . S
C368 C377 1.390 . S
C369 C368 1.387 . S
C369 C371 1.387 . S
H370 C377 0.961 . S
C371 C369 1.387 . S
C371 C373 1.390 . S
C371 H375 0.950 . S
H372 C368 0.950 . S
C373 C371 1.390 . S
C373 C374 1.387 . S
C373 H376 0.950 . S
C374 C373 1.387 . S
C374 C377 1.387 . S
H375 C371 0.950 . S
H376 C373 0.950 . S
C377 C368 1.390 . S
C377 H370 0.961 . S
C377 C374 1.387 . S
C378 C379 1.387 . S
C378 H382 0.950 . S
C378 C387 1.390 1_554 S
C379 C378 1.387 . S
C379 C381 1.387 . S
H380 C387 0.950 . S
C381 C379 1.387 . S
C381 C383 1.390 1_554 S
C381 H385 0.950 . S
H382 C378 0.950 . S
C383 C381 1.390 1_556 S
C383 C384 1.387 . S
C383 H386 0.950 . S
C384 C383 1.387 . S
C384 C387 1.387 . S
H385 C381 0.950 . S
H386 C383 0.950 . S
C387 C378 1.390 1_556 S
C387 H380 0.950 . S
C387 C384 1.387 . S
C388 C389 1.387 . S
C388 H392 0.950 . S
C388 C397 1.390 . S
C389 C388 1.387 . S
C389 C391 1.387 . S
H390 C397 0.950 . S
C391 C389 1.387 . S
C391 C393 1.390 . S
C391 H395 0.950 . S
H392 C388 0.950 . S
C393 C391 1.390 . S
C393 C394 1.387 . S
C393 H396 0.950 . S
C394 C393 1.387 . S
C394 C397 1.387 . S
H395 C391 0.950 . S
H396 C393 0.950 . S
C397 C388 1.390 . S
C397 H390 0.950 . S
C397 C394 1.387 . S
C398 C399 1.387 . S
C398 H402 0.950 . S
C398 C407 1.390 . S
C399 C398 1.387 . S
C399 C401 1.387 . S
H400 C407 0.950 . S
C401 C399 1.387 . S
C401 C403 1.390 . S
C401 H405 0.950 . S
H402 C398 0.950 . S
C403 C401 1.390 . S
C403 C404 1.387 . S
C403 H406 0.950 . S
C404 C403 1.387 . S
C404 C407 1.387 . S
H405 C401 0.950 . S
H406 C403 0.950 . S
C407 C398 1.390 . S
C407 H400 0.950 . S
C407 C404 1.387 . S
C169 C55 1.455 . S
C174 C13 1.455 . S
C179 C27 1.455 . S
C184 C69 1.455 . S
C189 C83 1.455 . S
C194 C41 1.455 . S
C199 C97 1.455 . S
C204 C139 1.455 . S
C209 C153 1.455 . S
C214 C111 1.455 . S
C219 C125 1.458 . S
C224 C167 1.458 . S
C229 C123 1.521 . S
C234 C11 1.521 . S
C239 C25 1.520 . S
C244 C137 1.520 . S
C249 C39 1.522 . S
C254 C151 1.522 . S
C259 C53 1.522 . S
C264 C165 1.522 . S
C269 C95 1.522 . S
C274 C67 1.522 . S
C279 C109 1.520 . S
C284 C81 1.520 . S
C289 C105 1.190 . S
C294 C7 1.190 . S
C299 C21 1.189 . S
C304 C119 1.191 . S
C309 C35 1.191 . S
C314 C133 1.189 . S
C319 C49 1.190 . S
C324 C147 1.190 . S
C329 C161 1.188 . S
C334 C63 1.190 . S
C339 C77 1.191 . S
C344 C91 1.189 . S
C349 C148 1.359 . S
C354 C8 1.359 . S
C359 C162 1.361 . S
C364 C22 1.359 . S
C369 C92 1.360 . S
C374 C36 1.359 . S
C379 C50 1.359 . S
C384 C106 1.359 . S
C389 C64 1.359 . S
C394 C120 1.361 . S
C399 C78 1.362 . S
C404 C134 1.360 . S
