# Generated by pormake.
# Topology lhb, (8)-cn, num edge types: 1
# Building blocks:
#     Node 0, Type 0, BuildingBlock: VETTIZ_charged_sbu_0, # of connection points: 8
#     Node 1, Type 0, BuildingBlock: VETTIZ_charged_sbu_0, # of connection points: 8
#     Node 2, Type 0, BuildingBlock: VETTIZ_charged_sbu_0, # of connection points: 8
#     Node 3, Type 0, BuildingBlock: VETTIZ_charged_sbu_0, # of connection points: 8
#     Node 4, Type 0, BuildingBlock: VETTIZ_charged_sbu_0, # of connection points: 8
#     Node 5, Type 0, BuildingBlock: VETTIZ_charged_sbu_0, # of connection points: 8
#     Node 6, Type 0, BuildingBlock: VETTIZ_charged_sbu_0, # of connection points: 8
#     Node 7, Type 0, BuildingBlock: VETTIZ_charged_sbu_0, # of connection points: 8
#     Edge 8, Type (0, 0), BuildingBlock: ZUJKAS_clean_linker_0, # of connection points: 2
#     Edge 9, Type (0, 0), BuildingBlock: ZUJKAS_clean_linker_0, # of connection points: 2
#     Edge 10, Type (0, 0), BuildingBlock: ZUJKAS_clean_linker_0, # of connection points: 2
#     Edge 11, Type (0, 0), BuildingBlock: ZUJKAS_clean_linker_0, # of connection points: 2
#     Edge 12, Type (0, 0), BuildingBlock: ZUJKAS_clean_linker_0, # of connection points: 2
#     Edge 13, Type (0, 0), BuildingBlock: ZUJKAS_clean_linker_0, # of connection points: 2
#     Edge 14, Type (0, 0), BuildingBlock: ZUJKAS_clean_linker_0, # of connection points: 2
#     Edge 15, Type (0, 0), BuildingBlock: ZUJKAS_clean_linker_0, # of connection points: 2
#     Edge 16, Type (0, 0), BuildingBlock: ZUJKAS_clean_linker_0, # of connection points: 2
#     Edge 17, Type (0, 0), BuildingBlock: ZUJKAS_clean_linker_0, # of connection points: 2
#     Edge 18, Type (0, 0), BuildingBlock: ZUJKAS_clean_linker_0, # of connection points: 2
#     Edge 19, Type (0, 0), BuildingBlock: ZUJKAS_clean_linker_0, # of connection points: 2
#     Edge 20, Type (0, 0), BuildingBlock: ZUJKAS_clean_linker_0, # of connection points: 2
#     Edge 21, Type (0, 0), BuildingBlock: ZUJKAS_clean_linker_0, # of connection points: 2
#     Edge 22, Type (0, 0), BuildingBlock: ZUJKAS_clean_linker_0, # of connection points: 2
#     Edge 23, Type (0, 0), BuildingBlock: ZUJKAS_clean_linker_0, # of connection points: 2
#     Edge 24, Type (0, 0), BuildingBlock: ZUJKAS_clean_linker_0, # of connection points: 2
#     Edge 25, Type (0, 0), BuildingBlock: ZUJKAS_clean_linker_0, # of connection points: 2
#     Edge 26, Type (0, 0), BuildingBlock: ZUJKAS_clean_linker_0, # of connection points: 2
#     Edge 27, Type (0, 0), BuildingBlock: ZUJKAS_clean_linker_0, # of connection points: 2
#     Edge 28, Type (0, 0), BuildingBlock: ZUJKAS_clean_linker_0, # of connection points: 2
#     Edge 29, Type (0, 0), BuildingBlock: ZUJKAS_clean_linker_0, # of connection points: 2
#     Edge 30, Type (0, 0), BuildingBlock: ZUJKAS_clean_linker_0, # of connection points: 2
#     Edge 31, Type (0, 0), BuildingBlock: ZUJKAS_clean_linker_0, # of connection points: 2
#     Edge 32, Type (0, 0), BuildingBlock: ZUJKAS_clean_linker_0, # of connection points: 2
#     Edge 33, Type (0, 0), BuildingBlock: ZUJKAS_clean_linker_0, # of connection points: 2
#     Edge 34, Type (0, 0), BuildingBlock: ZUJKAS_clean_linker_0, # of connection points: 2
#     Edge 35, Type (0, 0), BuildingBlock: ZUJKAS_clean_linker_0, # of connection points: 2
#     Edge 36, Type (0, 0), BuildingBlock: ZUJKAS_clean_linker_0, # of connection points: 2
#     Edge 37, Type (0, 0), BuildingBlock: ZUJKAS_clean_linker_0, # of connection points: 2
#     Edge 38, Type (0, 0), BuildingBlock: ZUJKAS_clean_linker_0, # of connection points: 2
#     Edge 39, Type (0, 0), BuildingBlock: ZUJKAS_clean_linker_0, # of connection points: 2
# Relax obj value: 0.196
# Max RMSD: 0.257
# Mean RMSD: 0.257
data_MOF--net-lhb--node1-VETTIZ_charged_sbu_0--edge1-ZUJKAS_clean_linker_0
_symmetry_space_group_name_H-M    P1
_symmetry_Int_Tables_number       1
_symmetry_cell_setting            triclinic
loop_
_symmetry_equiv_pos_as_xyz
'x, y, z'
_cell_length_a     38.387805
_cell_length_b     20.397311
_cell_length_c     69.769669
_cell_angle_alpha  90.850702
_cell_angle_beta   90.313474
_cell_angle_gamma 89.521892
loop_
_atom_site_label
_atom_site_type_symbol
_atom_site_fract_x
_atom_site_fract_y
_atom_site_fract_z
_atom_type_partial_charge
Fe0 Fe 0.96844 0.92459 0.98379 0.0
O1 O 0.9844 0.97012 1.00722 0.0
Fe2 Fe 0.02784 0.03009 1.00425 0.0
Fe3 Fe 0.99831 0.92575 0.03159 0.0
O4 O 0.98579 0.97418 1.00594 0.0
O5 O 0.04196 -0.01454 0.02849 0.0
O6 O 0.04026 -0.018 0.0299 0.0
Fe7 Fe 0.05772 0.03369 0.05161 0.0
C8 C 0.92623 0.87555 1.01748 0.0
O9 O 0.98821 0.83542 0.99195 0.0
O10 O 0.02438 0.85339 1.01673 0.0
O11 O 0.09998 0.04765 0.03432 0.0
O12 O 0.07486 0.08248 1.00593 0.0
O13 O 0.05438 0.95872 0.98858 0.0
O14 O 0.01247 0.93765 0.96756 0.0
O15 O 0.0191 0.88756 0.05765 0.0
O16 O 0.07101 0.94255 0.06132 0.0
C17 C 0.044 0.93216 0.97298 0.0
O18 O 0.04099 0.12355 0.04214 0.0
O19 O 1.00201 0.10152 1.01941 0.0
O20 O 0.92683 0.90451 1.00104 0.0
O21 O 0.95192 0.87222 0.02973 0.0
C22 C 0.01338 0.81815 1.0028 0.0
C23 C 0.04953 0.8967 0.0658 0.0
C24 C 0.98068 0.01568 0.06363 0.0
O25 O 0.97133 -0.00427 0.04706 0.0
O26 O 0.01273 0.02433 0.06781 0.0
C27 C 0.10124 0.07427 1.01755 0.0
O28 O 1.00555 0.07249 0.97921 0.0
O29 O 0.95376 0.01689 0.97523 0.0
C30 C 0.01662 0.14142 0.03092 0.0
C31 C 0.97377 0.06695 0.97249 0.0
Fe32 Fe 0.1996 0.27089 0.24284 0.0
O33 O 0.22577 0.22142 0.2619 0.0
Fe34 Fe 0.24596 0.27116 0.28599 0.0
Fe35 Fe 0.26711 0.16533 0.25588 0.0
O36 O 0.22479 0.22534 0.26326 0.0
O37 O 0.28758 0.2159 0.2799 0.0
O38 O 0.28869 0.21187 0.27843 0.0
Fe39 Fe 0.31166 0.16627 0.2999 0.0
C40 C 0.2054 0.12908 0.22819 0.0
O41 O 0.23866 0.26604 0.22252 0.0
O42 O 0.28721 0.23413 0.23773 0.0
O43 O 0.32792 0.25846 0.30745 0.0
O44 O 0.27493 0.31197 0.30956 0.0
O45 O 0.26505 0.34301 0.26903 0.0
O46 O 0.21809 0.36141 0.25086 0.0
O47 O 0.31419 0.11186 0.2528 0.0
O48 O 0.34765 0.14545 0.27872 0.0
C49 C 0.24725 0.37915 0.25793 0.0
O50 O 0.27325 0.18195 0.32062 0.0
O51 O 0.22617 0.20061 0.30327 0.0
O52 O 0.18549 0.17788 0.23353 0.0
O53 O 0.23816 0.12251 0.23307 0.0
C54 C 0.27177 0.26282 0.22393 0.0
C55 C 0.34376 0.11692 0.26205 0.0
C56 C 0.26324 0.05869 0.28461 0.0
O57 O 0.24688 0.09539 0.27308 0.0
O58 O 0.29098 0.07653 0.29316 0.0
C59 C 0.30776 0.30419 0.31441 0.0
O60 O 0.19844 0.32251 0.28949 0.0
O61 O 0.16369 0.28408 0.26462 0.0
C62 C 0.24028 0.18871 0.31931 0.0
C63 C 0.1683 0.31373 0.2811 0.0
Fe64 Fe 0.74207 0.76823 0.25639 0.0
O65 O 0.78743 0.72584 0.26298 0.0
Fe66 Fe 0.7036 0.78837 0.30151 0.0
Fe67 Fe 0.81402 0.66929 0.2456 0.0
O68 O 0.72689 0.73356 0.28174 0.0
O69 O 0.72854 0.73094 0.2834 0.0
O70 O 0.78886 0.72338 0.26443 0.0
Fe71 Fe 0.77472 0.69242 0.29029 0.0
C72 C 0.73905 0.65059 0.22972 0.0
O73 O 0.76477 0.80023 0.23056 0.0
O74 O 0.82038 0.75602 0.23113 0.0
O75 O 0.79101 0.77947 0.30197 0.0
O76 O 0.74572 0.79882 0.32053 0.0
O77 O 0.71651 0.87481 0.28925 0.0
O78 O 0.7601 0.85225 0.26921 0.0
O79 O 0.85373 0.68011 0.26566 0.0
O80 O 0.82585 0.65625 0.294 0.0
C81 C 0.74466 0.89007 0.28107 0.0
O82 O 0.7529 0.66553 0.31715 0.0
O83 O 0.69591 0.70044 0.31466 0.0
O84 O 0.72406 0.68459 0.2428 0.0
O85 O 0.77204 0.65123 0.22738 0.0
C86 C 0.79697 0.79647 0.2246 0.0
C87 C 0.8537 0.66271 0.28356 0.0
C88 C 0.77896 0.56473 0.26999 0.0
O89 O 0.80362 0.58332 0.25928 0.0
O90 O 0.75938 0.60456 0.27913 0.0
C91 C 0.77855 0.79996 0.31775 0.0
O92 O 0.66377 0.78462 0.28144 0.0
O93 O 0.69167 0.80888 0.25318 0.0
C94 C 0.72074 0.66893 0.32334 0.0
C95 C 0.66379 0.80345 0.26369 0.0
Fe96 Fe 0.95943 0.43745 0.49157 0.0
O97 O 0.98087 0.48301 0.51346 0.0
Fe98 Fe 0.02388 0.54126 0.50839 0.0
Fe99 Fe 0.99768 0.43902 0.53729 0.0
O100 O 0.98204 0.4866 0.51213 0.0
O101 O 0.04172 0.49548 0.53177 0.0
O102 O 0.04026 0.49189 0.5333 0.0
Fe103 Fe 0.06134 0.54267 0.55423 0.0
C104 C 0.92185 0.39946 0.5281 0.0
O105 O 0.97754 0.34714 0.49977 0.0
O106 O 0.01959 0.36437 0.52155 0.0
O107 O 0.10065 0.55701 0.53489 0.0
O108 O 0.07094 0.59322 0.50801 0.0
O109 O 0.04711 0.47085 0.49094 0.0
O110 O 1.00117 0.44286 0.47304 0.0
O111 O 0.02172 0.40074 0.56252 0.0
O112 O 0.07528 0.45055 0.56297 0.0
C113 C 0.03399 0.44464 0.47588 0.0
O114 O 0.04329 0.63293 0.54596 0.0
O115 O 1.0009 0.61227 0.525 0.0
O116 O 0.92044 0.42605 0.51131 0.0
O117 O 0.95 0.38978 0.53822 0.0
C118 C 1.00484 0.32897 0.50878 0.0
C119 C 0.05337 0.40809 0.5693 0.0
C120 C 0.98658 0.52752 0.56995 0.0
O121 O 0.97489 0.51206 0.55347 0.0
O122 O 0.01926 0.53356 0.57278 0.0
C123 C 0.09905 0.58543 0.51836 0.0
O124 O 0.99843 0.5841 0.4844 0.0
O125 O 0.94597 0.52989 0.48259 0.0
C126 C 0.01692 0.65108 0.53624 0.0
C127 C 0.96628 0.57807 0.47833 0.0
Fe128 Fe 0.24114 0.75696 0.7527 0.0
O129 O 0.28451 0.70675 0.75852 0.0
Fe130 Fe 0.2064 0.78346 0.79856 0.0
Fe131 Fe 0.30649 0.64599 0.74035 0.0
O132 O 0.22568 0.72533 0.77832 0.0
O133 O 0.22736 0.72281 0.77994 0.0
O134 O 0.28598 0.70396 0.76004 0.0
Fe135 Fe 0.27098 0.67341 0.78587 0.0
C136 C 0.23063 0.64151 0.72595 0.0
O137 O 0.2643 0.7855 0.7266 0.0
O138 O 0.31742 0.73128 0.72626 0.0
O139 O 0.29339 0.75427 0.79829 0.0
O140 O 0.24955 0.78426 0.81696 0.0
O141 O 0.22383 0.86744 0.7865 0.0
O142 O 0.26375 0.83739 0.76491 0.0
O143 O 0.34736 0.64588 0.75979 0.0
O144 O 0.31994 0.62592 0.78851 0.0
C145 C 0.25028 0.87926 0.77629 0.0
O146 O 0.24852 0.64894 0.81278 0.0
O147 O 0.19406 0.697 0.81138 0.0
O148 O 0.21817 0.67663 0.73957 0.0
O149 O 0.26322 0.63924 0.72253 0.0
C150 C 0.29583 0.77571 0.72007 0.0
C151 C 0.34757 0.62836 0.77767 0.0
C152 C 0.26229 0.55147 0.76214 0.0
O153 O 0.29053 0.56261 0.75338 0.0
O154 O 0.24877 0.59193 0.77397 0.0
C155 C 0.2822 0.77794 0.81403 0.0
O156 O 0.16559 0.78851 0.77912 0.0
O157 O 0.19282 0.80648 0.75025 0.0
C158 C 0.21699 0.65901 0.81938 0.0
C159 C 0.16545 0.80642 0.7613 0.0
Fe160 Fe 0.70569 0.28921 0.74112 0.0
O161 O 0.7305 0.23962 0.76068 0.0
Fe162 Fe 0.74935 0.28784 0.78542 0.0
Fe163 Fe 0.77207 0.18398 0.75493 0.0
O164 O 0.72941 0.24346 0.76208 0.0
O165 O 0.79138 0.23316 0.7795 0.0
O166 O 0.79259 0.22915 0.778 0.0
Fe167 Fe 0.8151 0.18178 0.79926 0.0
C168 C 0.71081 0.14762 0.72703 0.0
O169 O 0.74534 0.28131 0.72104 0.0
O170 O 0.79292 0.25457 0.73764 0.0
O171 O 0.83044 0.27377 0.80786 0.0
O172 O 0.77708 0.32615 0.80978 0.0
O173 O 0.76928 0.36117 0.76926 0.0
O174 O 0.72495 0.37903 0.74904 0.0
O175 O 0.8194 0.13106 0.7521 0.0
O176 O 0.85209 0.16407 0.77835 0.0
C177 C 0.75337 0.39631 0.75707 0.0
O178 O 0.77571 0.19409 0.81955 0.0
O179 O 0.72901 0.21612 0.80211 0.0
O180 O 0.69099 0.19666 0.73219 0.0
O181 O 0.7438 0.14172 0.73158 0.0
C182 C 0.77837 0.28073 0.72317 0.0
C183 C 0.84875 0.13628 0.76155 0.0
C184 C 0.76806 0.07463 0.7824 0.0
O185 O 0.75132 0.11297 0.77152 0.0
O186 O 0.79544 0.09213 0.79136 0.0
C187 C 0.80961 0.31776 0.81516 0.0
O188 O 0.70135 0.33867 0.78849 0.0
O189 O 0.66883 0.30432 0.76227 0.0
C190 C 0.74284 0.20227 0.81812 0.0
C191 C 0.67193 0.33168 0.77916 0.0
Fe192 Fe 0.46343 0.94276 0.48542 0.0
O193 O 0.48145 -0.00908 0.5079 0.0
Fe194 Fe 0.52558 0.04826 0.50453 0.0
Fe195 Fe 0.49484 0.94779 0.53252 0.0
O196 O 0.48282 -0.00542 0.50659 0.0
O197 O 0.53955 0.00366 0.5288 0.0
O198 O 0.53804 -2e-05 0.53018 0.0
Fe199 Fe 0.55673 0.05089 0.55174 0.0
C200 C 0.41987 0.91023 0.52016 0.0
O201 O 0.4782 0.85294 0.49566 0.0
O202 O 0.51866 0.87261 0.51798 0.0
O203 O 0.59851 0.06402 0.53399 0.0
O204 O 0.57286 0.09911 0.50581 0.0
O205 O 0.55108 0.97565 0.4889 0.0
O206 O 0.50843 0.94309 0.46926 0.0
O207 O 0.51572 0.90954 0.55867 0.0
O208 O 0.56935 0.95907 0.56102 0.0
C209 C 0.54052 0.9445 0.47404 0.0
O210 O 0.53944 0.14067 0.54288 0.0
O211 O 0.50075 0.12125 0.5196 0.0
O212 O 0.4212 0.9357 0.50321 0.0
O213 O 0.44652 0.89978 0.53146 0.0
C214 C 0.50412 0.83485 0.50579 0.0
C215 C 0.54687 0.91596 0.56626 0.0
C216 C 0.48009 0.0381 0.56441 0.0
O217 O 0.47031 0.0213 0.54766 0.0
O218 O 0.51236 0.04294 0.56858 0.0
C219 C 0.59944 0.09062 0.51722 0.0
O220 O 0.5042 0.09008 0.47934 0.0
O221 O 0.45286 0.03387 0.47436 0.0
C222 C 0.51346 0.15784 0.5327 0.0
C223 C 0.47373 0.08221 0.47121 0.0
Fe224 Fe 0.47188 0.41369 0.99085 0.0
O225 O 0.48453 0.46887 1.01297 0.0
Fe226 Fe 0.52293 0.53971 1.00964 0.0
Fe227 Fe 0.49942 0.43276 0.03831 0.0
O228 O 0.4856 0.47312 1.01162 0.0
O229 O 0.53858 0.50295 0.03488 0.0
O230 O 0.53746 0.49818 0.03631 0.0
Fe231 Fe 0.54821 0.55726 0.05798 0.0
C232 C 0.42932 0.37329 0.02516 0.0
O233 O 0.49286 0.3306 1.00245 0.0
O234 O 0.53013 0.36286 0.02525 0.0
O235 O 0.58904 0.58652 0.04137 0.0
O236 O 0.56459 0.60548 1.01149 0.0
O237 O 0.55567 0.47493 0.99504 0.0
O238 O 0.5172 0.42464 0.97569 0.0
O239 O 0.52169 0.40435 0.06522 0.0
O240 O 0.56921 0.47246 0.06838 0.0
C241 C 0.54829 0.43927 0.9804 0.0
O242 O 0.5228 0.63812 0.04798 0.0
O243 O 0.49055 0.60675 1.02286 0.0
O244 O 0.42969 0.39702 1.00797 0.0
O245 O 0.45585 0.37071 0.03692 0.0
C246 C 0.51887 0.32004 1.01339 0.0
C247 C 0.55126 0.42184 0.07323 0.0
C248 C 0.47391 0.51792 0.06898 0.0
O249 O 0.46749 0.49921 0.05195 0.0
O250 O 0.50469 0.53361 0.07395 0.0
C251 C 0.58899 0.61193 0.02442 0.0
O252 O 0.50067 0.57041 0.98338 0.0
O253 O 0.45492 0.49936 0.97846 0.0
C254 C 0.4983 0.64783 0.03603 0.0
C255 C 0.47213 0.55208 0.97463 0.0
H256 H 0.10785 0.82812 0.07508 0.0
H257 H 0.13484 0.8326 0.10686 0.0
H258 H 0.03982 0.9143 0.13017 0.0
H259 H 0.01247 0.90668 0.09857 0.0
H260 H 0.14587 0.94996 0.12072 0.0
H261 H 0.07359 0.81678 0.17591 0.0
H262 H 0.06773 0.79998 0.15062 0.0
H263 H 0.04497 0.86745 0.16204 0.0
C264 C 0.09199 0.84258 0.08726 0.0
C265 C 0.05797 0.86657 0.08437 0.0
C266 C 0.10762 0.84621 0.10541 0.0
C267 C 0.08965 0.87446 0.12102 0.0
C268 C 0.05427 0.89126 0.11858 0.0
H269 H 0.1368 0.1179 0.21767 0.0
H270 H 0.11157 0.04666 0.19306 0.0
C271 C 0.03844 0.88648 0.10044 0.0
C272 C 0.10945 0.89828 0.13826 0.0
H273 H 0.10815 0.9087 0.18725 0.0
C274 C 0.13804 0.93956 0.13527 0.0
C275 C 0.09916 0.88569 0.15731 0.0
C276 C 0.06989 0.8395 0.16166 0.0
C277 C 0.15554 0.97065 0.15059 0.0
C278 C 0.14459 0.95968 0.16959 0.0
C279 C 0.11664 0.91703 0.1727 0.0
C280 C 0.15989 -0.00321 0.18615 0.0
C281 C 0.18445 0.01779 0.1462 0.0
C282 C 0.19543 -0.00863 0.19093 0.0
C283 C 0.21018 0.03251 0.20506 0.0
C284 C 0.18963 0.07995 0.2147 0.0
C285 C 0.15368 0.08271 0.21047 0.0
C286 C 0.13905 0.04163 0.19642 0.0
H287 H 0.18515 0.0304 0.13077 0.0
H288 H 0.18149 0.06382 0.15476 0.0
H289 H 0.20986 -0.00492 0.15003 0.0
H290 H 0.21197 0.95639 0.1834 0.0
H291 H 0.23784 0.02846 0.20798 0.0
H292 H 0.91003 -0.00468 0.06112 0.0
H293 H 0.8695 0.97879 0.08752 0.0
H294 H 0.95216 0.01661 0.12821 0.0
H295 H 0.99238 0.03513 0.10205 0.0
H296 H 0.87273 0.88475 0.11283 0.0
H297 H 0.87581 0.11922 0.15317 0.0
H298 H 0.89312 0.11091 0.12925 0.0
H299 H 0.91908 0.08784 0.14973 0.0
C300 C 0.91939 0.00184 0.07569 0.0
C301 C 0.95459 0.01666 0.07938 0.0
C302 C 0.89615 -0.00787 0.0908 0.0
C303 C 0.90749 -0.00276 0.10996 0.0
C304 C 0.94233 0.01418 0.11365 0.0
H305 H 0.8624 0.84003 0.2177 0.0
H306 H 0.8834 0.89616 0.18942 0.0
C307 C 0.96547 0.02442 0.09858 0.0
C308 C 0.8842 0.97835 0.12601 0.0
H309 H 0.85838 0.02403 0.17117 0.0
C310 C 0.86894 0.91591 0.12538 0.0
C311 C 0.87903 0.01886 0.14246 0.0
C312 C 0.89234 0.08819 0.1436 0.0
C313 C 0.85052 0.89158 0.1411 0.0
C314 C 0.84715 0.93066 0.1579 0.0
C315 C 0.86107 -0.00593 0.15828 0.0
C316 C 0.83283 0.90345 0.17583 0.0
C317 C 0.83635 0.82284 0.14007 0.0
C318 C 0.79712 0.8905 0.17785 0.0
C319 C 0.78485 0.8587 0.1942 0.0
C320 C 0.80822 0.83865 0.20862 0.0
C321 C 0.8437 0.85422 0.2068 0.0
C322 C 0.8558 0.88652 0.19066 0.0
H323 H 0.84348 0.79692 0.12651 0.0
H324 H 0.84633 0.79395 0.15233 0.0
H325 H 0.80752 0.8247 0.14111 0.0
H326 H 0.77894 0.90347 0.16658 0.0
H327 H 0.75742 0.84721 0.19513 0.0
H328 H 0.01495 0.39327 0.44098 0.0
H329 H 0.0522 0.34628 0.41608 0.0
H330 H 0.14289 0.38436 0.45106 0.0
H331 H 0.10565 0.4316 0.47631 0.0
H332 H 0.10717 0.40829 0.39652 0.0
H333 H 0.15345 0.18816 0.43559 0.0
H334 H 0.1159 0.2356 0.44315 0.0
H335 H 0.15899 0.26566 0.4478 0.0
C336 C 0.0428 0.39168 0.44351 0.0
C337 C 0.0572 0.41632 0.46076 0.0
C338 C 0.06409 0.36472 0.42919 0.0
C339 C 0.1003 0.36107 0.43175 0.0
C340 C 0.11494 0.3857 0.44888 0.0
H341 H 0.26383 0.20727 0.35625 0.0
H342 H 0.23037 0.24828 0.38371 0.0
C343 C 0.09361 0.41306 0.46326 0.0
C344 C 0.12245 0.33286 0.41617 0.0
H345 H 0.17642 0.2041 0.4047 0.0
C346 C 0.12235 0.36368 0.39831 0.0
C347 C 0.14234 0.27478 0.41853 0.0
C348 C 0.14263 0.23861 0.43723 0.0
C349 C 0.14165 0.3383 0.38278 0.0
C350 C 0.16099 0.27931 0.38499 0.0
C351 C 0.1615 0.24902 0.40295 0.0
C352 C 0.18077 0.24854 0.3688 0.0
C353 C 0.1416 0.37583 0.36427 0.0
C354 C 0.16392 0.23221 0.35147 0.0
C355 C 0.18301 0.20918 0.33569 0.0
C356 C 0.21939 0.20085 0.33694 0.0
C357 C 0.23588 0.21292 0.35472 0.0
C358 C 0.21677 0.23671 0.37046 0.0
H359 H 0.13466 0.42829 0.36668 0.0
H360 H 0.16743 0.37305 0.3572 0.0
H361 H 0.12189 0.35459 0.35434 0.0
H362 H 0.13602 0.23885 0.34998 0.0
H363 H 0.16936 0.20001 0.32229 0.0
H364 H 0.8494 0.78221 0.31829 0.0
H365 H 0.88649 0.76604 0.34636 0.0
H366 H 0.80007 0.81267 0.3834 0.0
H367 H 0.76247 0.82917 0.35535 0.0
H368 H 0.87707 0.862 0.39428 0.0
H369 H 0.858 0.59551 0.37922 0.0
H370 H 0.86951 0.64679 0.35948 0.0
H371 H 0.82786 0.65706 0.37068 0.0
C372 C 0.83834 0.79095 0.33235 0.0
C373 C 0.80266 0.80619 0.33449 0.0
C374 C 0.85969 0.78158 0.34841 0.0
C375 C 0.84598 0.78768 0.36694 0.0
C376 C 0.81118 0.80794 0.3692 0.0
H377 H 0.89796 0.60775 0.47263 0.0
H378 H 0.87191 0.66728 0.44609 0.0
C379 C 0.78972 0.81735 0.35312 0.0
C380 C 0.86654 0.76452 0.38366 0.0
H381 H 0.89335 0.62404 0.40557 0.0
C382 C 0.88089 0.81006 0.39672 0.0
C383 C 0.87128 0.6967 0.38683 0.0
C384 C 0.85578 0.64583 0.37343 0.0
C385 C 0.89981 0.78918 0.41295 0.0
C386 C 0.9043 0.72135 0.41614 0.0
C387 C 0.89011 0.67605 0.40299 0.0
C388 C 0.92098 0.69545 0.43379 0.0
C389 C 0.91414 0.83928 0.42692 0.0
C390 C 0.95741 0.69311 0.43603 0.0
C391 C 0.97261 0.65868 0.45133 0.0
C392 C 0.95152 0.6257 0.46445 0.0
C393 C 0.91506 0.63184 0.46269 0.0
C394 C 0.90004 0.66603 0.44753 0.0
H395 H 0.90707 0.8902 0.4229 0.0
H396 H 0.90416 0.82982 0.44152 0.0
H397 H 0.94296 0.83474 0.42751 0.0
H398 H 0.97404 0.71517 0.42547 0.0
H399 H 1.00072 0.65468 0.45221 0.0
H400 H 0.11659 0.36496 0.58163 0.0
H401 H 0.13802 0.37924 0.6143 0.0
H402 H 0.03328 0.41811 0.63369 0.0
H403 H 0.01167 0.40272 0.60082 0.0
H404 H 0.0768 0.52199 0.63982 0.0
H405 H 0.14158 0.29919 0.66689 0.0
H406 H 0.15508 0.31632 0.64294 0.0
H407 H 0.11023 0.29664 0.64748 0.0
C408 C 0.09783 0.37264 0.59302 0.0
C409 C 0.06248 0.38355 0.58859 0.0
C410 C 0.11017 0.38116 0.61178 0.0
C411 C 0.08739 0.40035 0.62655 0.0
C412 C 0.05144 0.40346 0.62256 0.0
H413 H 0.15919 0.63004 0.7282 0.0
H414 H 0.1206 0.5673 0.7068 0.0
C415 C 0.03902 0.39405 0.60376 0.0
C416 C 0.10199 0.42897 0.64467 0.0
H417 H 0.16352 0.40281 0.67939 0.0
C418 C 0.09512 0.49549 0.64879 0.0
C419 C 0.12611 0.39472 0.65631 0.0
C420 C 0.13341 0.32258 0.65329 0.0
C421 C 0.11335 0.5297 0.6633 0.0
C422 C 0.13873 0.49618 0.67435 0.0
C423 C 0.14427 0.42878 0.67089 0.0
C424 C 0.16187 0.53127 0.68832 0.0
C425 C 0.10684 0.60242 0.66579 0.0
C426 C 0.19805 0.53036 0.68552 0.0
C427 C 0.22018 0.56567 0.69779 0.0
C428 C 0.20673 0.60299 0.71325 0.0
C429 C 0.17049 0.6026 0.71634 0.0
C430 C 0.14833 0.56688 0.70405 0.0
H431 H 0.09223 0.62324 0.65348 0.0
H432 H 0.09119 0.61131 0.67891 0.0
H433 H 0.13176 0.6292 0.66745 0.0
H434 H 0.20922 0.50321 0.67355 0.0
H435 H 0.24789 0.56413 0.69499 0.0
H436 H 0.75865 0.31839 0.68713 0.0
H437 H 0.79454 0.36763 0.66247 0.0
H438 H 0.88324 0.36326 0.70064 0.0
H439 H 0.84778 0.31191 0.72518 0.0
H440 H 0.8283 0.48076 0.66139 0.0
H441 H 0.92493 0.27858 0.65399 0.0
H442 H 0.88523 0.27002 0.66738 0.0
H443 H 0.92217 0.31082 0.67799 0.0
C444 C 0.78587 0.32743 0.69027 0.0
C445 C 0.80036 0.31044 0.70812 0.0
C446 C 0.80638 0.35581 0.67613 0.0
C447 C 0.84186 0.36824 0.67948 0.0
C448 C 0.85625 0.35253 0.69743 0.0
H449 H 1.00341 0.53887 0.60817 0.0
H450 H 0.96786 0.50687 0.63543 0.0
C451 C 0.83584 0.32342 0.71152 0.0
C452 C 0.86344 0.39849 0.66425 0.0
H453 H 0.9372 0.37651 0.6375 0.0
C454 C 0.85207 0.45778 0.65616 0.0
C455 C 0.89452 0.3687 0.65733 0.0
C456 C 0.90729 0.30323 0.66447 0.0
C457 C 0.87088 0.48801 0.6415 0.0
C458 C 0.90188 0.45826 0.63467 0.0
C459 C 0.91353 0.39952 0.64287 0.0
C460 C 0.92193 0.48549 0.61846 0.0
C461 C 0.85762 0.55184 0.63349 0.0
C462 C 0.90773 0.48537 0.59987 0.0
C463 C 0.92804 0.50327 0.5842 0.0
C464 C 0.96308 0.52167 0.58678 0.0
C465 C 0.97657 0.5252 0.60559 0.0
C466 C 0.95633 0.50659 0.62122 0.0
H467 H 0.83805 0.57571 0.64303 0.0
H468 H 0.87943 0.58631 0.63128 0.0
H469 H 0.84509 0.54223 0.61936 0.0
H470 H 0.88138 0.46855 0.59736 0.0
H471 H 0.9167 0.49963 0.56998 0.0
H472 H 0.15458 0.62437 0.83411 0.0
H473 H 0.13537 0.65136 0.86654 0.0
H474 H 0.24124 0.69239 0.88317 0.0
H475 H 0.26068 0.66707 0.85044 0.0
H476 H 0.14668 0.62364 0.90423 0.0
H477 H 0.19733 0.87181 0.888 0.0
H478 H 0.19604 0.80701 0.87019 0.0
H479 H 0.22913 0.80684 0.88852 0.0
C480 C 0.17406 0.63625 0.84488 0.0
C481 C 0.20908 0.64431 0.83962 0.0
C482 C 0.16299 0.65222 0.86344 0.0
C483 C 0.18673 0.67632 0.87714 0.0
C484 C 0.22241 0.6757 0.87267 0.0
H485 H 0.11563 0.92076 0.97596 0.0
H486 H 0.15464 0.85384 0.9556 0.0
C487 C 0.23356 0.65992 0.85402 0.0
C488 C 0.17322 0.70983 0.89478 0.0
H489 H 0.1635 0.86204 0.91551 0.0
C490 C 0.15084 0.67553 0.90687 0.0
C491 C 0.17858 0.77777 0.8983 0.0
C492 C 0.20133 0.81834 0.88554 0.0
C493 C 0.13271 0.7076 0.92182 0.0
C494 C 0.13663 0.77603 0.92463 0.0
C495 C 0.1605 0.80963 0.91332 0.0
C496 C 0.11339 0.81474 0.93765 0.0
C497 C 0.10887 0.66812 0.93423 0.0
C498 C 0.07739 0.81595 0.93413 0.0
C499 C 0.05521 0.85439 0.94553 0.0
C500 C 0.06842 0.89297 0.96078 0.0
C501 C 0.10457 0.8918 0.96433 0.0
C502 C 0.12688 0.85345 0.95275 0.0
H503 H 0.11711 0.61581 0.93458 0.0
H504 H 0.10816 0.68794 0.94913 0.0
H505 H 0.08206 0.67015 0.92822 0.0
H506 H 0.0664 0.78776 0.92233 0.0
H507 H 0.02756 0.85356 0.94238 0.0
H508 H 0.773 0.32557 0.84854 0.0
H509 H 0.79962 0.31311 0.88025 0.0
H510 H 0.90084 0.34831 0.85618 0.0
H511 H 0.87438 0.36054 0.82461 0.0
H512 H 0.84369 0.20846 0.88321 0.0
H513 H 0.91301 0.42957 0.90911 0.0
H514 H 0.8791 0.43288 0.89107 0.0
H515 H 0.92278 0.40902 0.88461 0.0
C516 C 0.80062 0.33456 0.8502 0.0
C517 C 0.82161 0.34356 0.83402 0.0
C518 C 0.81592 0.32674 0.86835 0.0
C519 C 0.85235 0.32935 0.87068 0.0
C520 C 0.87272 0.34689 0.85494 0.0
H521 H 1.00566 0.14147 0.94497 0.0
H522 H 0.97627 0.21239 0.92145 0.0
C523 C 0.85749 0.35416 0.83682 0.0
C524 C 0.86945 0.30068 0.88795 0.0
H525 H 0.93193 0.32673 0.92241 0.0
C526 C 0.86252 0.23483 0.89197 0.0
C527 C 0.89466 0.33438 0.89916 0.0
C528 C 0.90263 0.40557 0.89589 0.0
C529 C 0.88058 0.20131 0.90644 0.0
C530 C 0.90582 0.23484 0.91769 0.0
C531 C 0.91264 0.30095 0.91382 0.0
C532 C 0.92485 0.20131 0.93352 0.0
C533 C 0.87327 0.12934 0.90905 0.0
C534 C 0.90611 0.17411 0.94862 0.0
C535 C 0.92266 0.13324 0.96178 0.0
C536 C 0.95855 0.11954 0.96046 0.0
C537 C 0.97799 0.15109 0.94633 0.0
C538 C 0.9612 0.19151 0.93289 0.0
H539 H 0.86087 0.10709 0.89611 0.0
H540 H 0.89756 0.10159 0.91226 0.0
H541 H 0.85512 0.12359 0.92122 0.0
H542 H 0.87827 0.18223 0.94974 0.0
H543 H 0.90706 0.11053 0.97271 0.0
H544 H 0.74079 0.06954 0.6988 0.0
H545 H 0.70995 0.00233 0.67458 0.0
H546 H 0.61241 0.04546 0.70254 0.0
H547 H 0.64264 0.11296 0.72637 0.0
H548 H 0.66082 0.89267 0.6754 0.0
H549 H 0.60029 0.12212 0.64859 0.0
H550 H 0.63704 0.12232 0.66482 0.0
H551 H 0.59385 0.10868 0.67369 0.0
C552 C 0.71287 0.06361 0.69996 0.0
C553 C 0.69412 0.09759 0.71432 0.0
C554 C 0.69526 0.02525 0.68611 0.0
C555 C 0.65874 0.01999 0.68651 0.0
C556 C 0.64046 0.04986 0.70168 0.0
H557 H 0.5072 0.92101 0.59842 0.0
H558 H 0.53193 0.93024 0.63074 0.0
C559 C 0.65786 0.08847 0.71532 0.0
C560 C 0.63916 -0.01143 0.67034 0.0
H561 H 0.58029 0.02319 0.63494 0.0
C562 C 0.64319 0.92108 0.66654 0.0
C563 C 0.61606 0.02556 0.65878 0.0
C564 C 0.61169 0.09877 0.6615 0.0
C565 C 0.62447 0.88964 0.6516 0.0
C566 C 0.60147 0.92684 0.63999 0.0
C567 C 0.59738 -0.00581 0.64397 0.0
C568 C 0.58395 0.89971 0.62245 0.0
C569 C 0.62928 0.81683 0.64851 0.0
C570 C 0.60415 0.87481 0.60724 0.0
C571 C 0.58984 0.86855 0.58881 0.0
C572 C 0.55516 0.88778 0.58516 0.0
C573 C 0.53378 0.90456 0.6008 0.0
C574 C 0.54812 0.9109 0.61927 0.0
H575 H 0.63714 0.79242 0.66202 0.0
H576 H 0.60509 0.79372 0.64296 0.0
H577 H 0.65032 0.8081 0.63791 0.0
H578 H 0.63187 0.86679 0.60908 0.0
H579 H 0.60707 0.85652 0.577 0.0
H580 H 0.41644 0.97894 0.56432 0.0
H581 H 0.38004 0.95678 0.59185 0.0
H582 H 0.44859 0.0713 0.62808 0.0
H583 H 0.48636 0.09053 0.60064 0.0
H584 H 0.43898 0.96365 0.64404 0.0
H585 H 0.30801 0.04672 0.6224 0.0
H586 H 0.3246 -0.00927 0.60462 0.0
H587 H 0.3463 0.06773 0.609 0.0
C588 C 0.42336 0.00096 0.57803 0.0
C589 C 0.45439 0.03664 0.58024 0.0
C590 C 0.40224 -0.01143 0.59383 0.0
C591 C 0.41101 0.01313 0.61215 0.0
C592 C 0.44105 0.0518 0.61416 0.0
H593 H 0.27858 0.90343 0.71077 0.0
H594 H 0.30537 0.97011 0.68569 0.0
C595 C 0.46261 0.06305 0.59842 0.0
C596 C 0.39157 -0.00851 0.62943 0.0
H597 H 0.30989 0.96096 0.64645 0.0
C598 C 0.41075 0.96449 0.64465 0.0
C599 C 0.35467 -0.00679 0.63064 0.0
C600 C 0.33231 0.02691 0.61586 0.0
C601 C 0.39426 0.93616 0.66036 0.0
C602 C 0.35745 0.93217 0.66064 0.0
C603 C 0.33811 0.96263 0.64607 0.0
C604 C 0.33914 0.8922 0.67512 0.0
C605 C 0.41666 0.91012 0.67644 0.0
C606 C 0.34817 0.82586 0.67704 0.0
C607 C 0.33338 0.78837 0.69136 0.0
C608 C 0.30851 0.81569 0.70395 0.0
C609 C 0.29781 0.88113 0.70137 0.0
C610 C 0.31313 0.91922 0.68707 0.0
H611 H 0.44163 0.93712 0.67758 0.0
H612 H 0.40312 0.91387 0.69044 0.0
H613 H 0.42308 0.85782 0.67346 0.0
H614 H 0.36719 0.80311 0.66759 0.0
H615 H 0.34169 0.73772 0.69265 0.0
H616 H 0.59601 0.50688 0.95956 0.0
H617 H 0.63214 0.46194 0.93335 0.0
H618 H 0.59892 0.26666 0.94705 0.0
H619 H 0.5617 0.31184 0.97243 0.0
H620 H 0.6847 0.37649 0.92836 0.0
H621 H 0.56743 0.27575 0.89257 0.0
H622 H 0.5648 0.32935 0.91327 0.0
H623 H 0.5735 0.24305 0.91606 0.0
C624 C 0.59711 0.45431 0.95716 0.0
C625 C 0.57611 0.41269 0.96791 0.0
C626 C 0.61758 0.42861 0.94214 0.0
C627 C 0.61746 0.36095 0.93777 0.0
C628 C 0.59858 0.31914 0.94962 0.0
H629 H 0.7608 0.17294 0.85524 0.0
H630 H 0.73086 0.20811 0.88457 0.0
C631 C 0.57767 0.34485 0.96429 0.0
C632 C 0.63543 0.33433 0.92033 0.0
H633 H 0.62191 0.24238 0.87962 0.0
C634 C 0.67096 0.34728 0.91768 0.0
C635 C 0.61742 0.29734 0.9061 0.0
C636 C 0.57862 0.28615 0.90701 0.0
C637 C 0.68899 0.32364 0.9014 0.0
C638 C 0.67131 0.28403 0.88764 0.0
C639 C 0.63572 0.27173 0.89024 0.0
C640 C 0.68854 0.25774 0.86993 0.0
C641 C 0.72648 0.34333 0.89885 0.0
C642 C 0.67377 0.27006 0.85184 0.0
C643 C 0.69028 0.24829 0.83506 0.0
C644 C 0.72226 0.21408 0.8359 0.0
C645 C 0.73628 0.19924 0.85403 0.0
C646 C 0.71944 0.2203 0.87085 0.0
H647 H 0.7328 0.38824 0.90734 0.0
H648 H 0.74379 0.30329 0.90392 0.0
H649 H 0.73235 0.35243 0.88356 0.0
H650 H 0.64986 0.29835 0.85064 0.0
H651 H 0.67867 0.26101 0.82142 0.0
H652 H 0.43548 0.50619 0.94414 0.0
H653 H 0.40829 0.5673 0.91845 0.0
H654 H 0.44881 0.74761 0.94234 0.0
H655 H 0.47735 0.68554 0.9682 0.0
H656 H 0.35798 0.6581 0.92294 0.0
H657 H 0.47094 0.7657 0.8854 0.0
H658 H 0.47588 0.7005 0.90245 0.0
H659 H 0.4678 0.78299 0.91069 0.0
C660 C 0.43892 0.55885 0.94397 0.0
C661 C 0.45829 0.59105 0.9584 0.0
C662 C 0.42333 0.59379 0.92918 0.0
C663 C 0.42636 0.66214 0.92838 0.0
C664 C 0.44644 0.69478 0.94247 0.0
H665 H 0.27052 0.83236 0.84972 0.0
H666 H 0.30672 0.82 0.87844 0.0
C667 C 0.4626 0.65936 0.9573 0.0
C668 C 0.40647 0.69769 0.91328 0.0
H669 H 0.41519 0.78681 0.87247 0.0
C670 C 0.37045 0.68691 0.91201 0.0
C671 C 0.42276 0.73493 0.89897 0.0
C672 C 0.4615 0.74655 0.89925 0.0
C673 C 0.35059 0.70913 0.89643 0.0
C674 C 0.3668 0.74591 0.88194 0.0
C675 C 0.40264 0.75913 0.8836 0.0
C676 C 0.34771 0.76488 0.86412 0.0
C677 C 0.31289 0.68905 0.89509 0.0
C678 C 0.35975 0.7424 0.8462 0.0
C679 C 0.33954 0.75098 0.82966 0.0
C680 C 0.30659 0.78171 0.83066 0.0
C681 C 0.29562 0.80806 0.84841 0.0
C682 C 0.31617 0.80041 0.86491 0.0
H683 H 0.30693 0.64794 0.90479 0.0
H684 H 0.29607 0.73126 0.89932 0.0
H685 H 0.30602 0.6737 0.88023 0.0
H686 H 0.38401 0.71509 0.84512 0.0
H687 H 0.34895 0.72997 0.81629 0.0
H688 H 0.51672 0.43514 0.10676 0.0
H689 H 0.54686 0.4526 0.13742 0.0
H690 H 0.64165 0.37525 0.11279 0.0
H691 H 0.61184 0.35981 0.08201 0.0
H692 H 0.59376 0.38928 0.16493 0.0
H693 H 0.65879 0.57434 0.12011 0.0
H694 H 0.62087 0.53004 0.11203 0.0
H695 H 0.66315 0.49151 0.11134 0.0
C696 C 0.54338 0.41794 0.10823 0.0
C697 C 0.56193 0.39593 0.092 0.0
C698 C 0.56077 0.42884 0.12573 0.0
C699 C 0.59679 0.41707 0.12724 0.0
C700 C 0.61399 0.38582 0.11186 0.0
H701 H 0.76134 0.57062 0.20024 0.0
H702 H 0.72609 0.50967 0.17698 0.0
C703 C 0.59677 0.37582 0.09433 0.0
C704 C 0.61731 0.44768 0.14317 0.0
H705 H 0.6785 0.56542 0.15198 0.0
C706 C 0.61232 0.42771 0.16213 0.0
C707 C 0.64116 0.4987 0.13956 0.0
C708 C 0.64617 0.52551 0.1197 0.0
C709 C 0.63131 0.45612 0.17748 0.0
C710 C 0.65553 0.50638 0.17377 0.0
C711 C 0.66018 0.52658 0.15483 0.0
C712 C 0.67657 0.53911 0.18914 0.0
C713 C 0.62583 0.4313 0.19748 0.0
C714 C 0.66056 0.5762 0.20382 0.0
C715 C 0.68072 0.61152 0.2172 0.0
C716 C 0.71739 0.61079 0.21613 0.0
C717 C 0.73325 0.57269 0.20156 0.0
C718 C 0.7131 0.53756 0.18822 0.0
H719 H 0.61303 0.38264 0.19735 0.0
H720 H 0.65099 0.4274 0.20533 0.0
H721 H 0.60885 0.46636 0.20546 0.0
H722 H 0.63243 0.5794 0.20462 0.0
H723 H 0.66752 0.64037 0.22815 0.0
H724 H 0.33404 0.22106 0.20888 0.0
H725 H 0.36668 0.27067 0.1828 0.0
H726 H 0.29017 0.42654 0.17971 0.0
H727 H 0.2565 0.37471 0.20487 0.0
H728 H 0.30478 0.39213 0.14583 0.0
H729 H 0.43103 0.41941 0.18326 0.0
H730 H 0.41817 0.33523 0.18245 0.0
H731 H 0.39226 0.39471 0.19557 0.0
C732 C 0.32437 0.26609 0.20266 0.0
C733 C 0.29272 0.29395 0.20885 0.0
C734 C 0.3432 0.29485 0.18785 0.0
C735 C 0.33145 0.35341 0.17943 0.0
C736 C 0.29996 0.3815 0.18586 0.0
H737 H 0.4708 0.57179 0.1051 0.0
H738 H 0.4336 0.53834 0.13155 0.0
C739 C 0.28069 0.35186 0.20027 0.0
C740 C 0.35094 0.38407 0.1634 0.0
H741 H 0.43192 0.43111 0.14918 0.0
C742 C 0.33254 0.40126 0.1467 0.0
C743 C 0.38708 0.39748 0.16449 0.0
C744 C 0.40816 0.38642 0.1825 0.0
C745 C 0.34918 0.43014 0.13106 0.0
C746 C 0.38572 0.43951 0.13166 0.0
C747 C 0.40401 0.42346 0.1485 0.0
C748 C 0.40568 0.46476 0.115 0.0
C749 C 0.32703 0.45166 0.11431 0.0
C750 C 0.40218 0.43575 0.09668 0.0
C751 C 0.42266 0.45634 0.08141 0.0
C752 C 0.44805 0.50496 0.0842 0.0
C753 C 0.45132 0.53457 0.10244 0.0
C754 C 0.43021 0.51506 0.11761 0.0
H755 H 0.30005 0.46386 0.11891 0.0
H756 H 0.33808 0.49518 0.10725 0.0
H757 H 0.32533 0.4109 0.10364 0.0
H758 H 0.38449 0.39538 0.09429 0.0
H759 H 0.41984 0.43154 0.06767 0.0
H760 H 0.61215 0.93754 0.47766 0.0
H761 H 0.65301 0.87363 0.45772 0.0
H762 H 0.56743 0.80324 0.42311 0.0
H763 H 0.52658 0.86598 0.44286 0.0
H764 H 0.6156 0.70341 0.43411 0.0
H765 H 0.68206 0.91786 0.40253 0.0
H766 H 0.68028 0.91466 0.42825 0.0
H767 H 0.64084 0.92577 0.41471 0.0
C768 C 0.60202 0.90869 0.46575 0.0
C769 C 0.56598 0.90756 0.46183 0.0
C770 C 0.62546 0.87224 0.45434 0.0
C771 C 0.61333 0.83398 0.4388 0.0
C772 C 0.57743 0.83235 0.435 0.0
H773 H 0.65971 0.62845 0.33853 0.0
H774 H 0.63971 0.6561 0.37067 0.0
C775 C 0.55408 0.86871 0.4463 0.0
C776 C 0.6376 0.79587 0.42619 0.0
H777 H 0.69796 0.81373 0.39088 0.0
C778 C 0.63398 0.72744 0.42484 0.0
C779 C 0.66189 0.82698 0.41423 0.0
C780 C 0.66654 0.90037 0.41481 0.0
C781 C 0.6529 0.68973 0.41135 0.0
C782 C 0.67557 0.72133 0.39856 0.0
C783 C 0.68068 0.78927 0.40068 0.0
C784 C 0.69012 0.68753 0.38121 0.0
C785 C 0.64788 0.61649 0.41074 0.0
C786 C 0.72561 0.69261 0.37651 0.0
C787 C 0.73723 0.67594 0.35801 0.0
C788 C 0.71336 0.65576 0.34377 0.0
C789 C 0.67877 0.64371 0.34917 0.0
C790 C 0.66725 0.65972 0.36763 0.0
H791 H 0.64176 0.59778 0.4252 0.0
H792 H 0.62551 0.60467 0.4012 0.0
H793 H 0.67137 0.59043 0.40524 0.0
H794 H 0.74383 0.71381 0.38672 0.0
H795 H 0.76403 0.68572 0.35433 0.0
H796 H 0.47155 0.21762 0.47301 0.0
H797 H 0.44011 0.29034 0.45074 0.0
H798 H 0.41801 0.12394 0.4139 0.0
H799 H 0.4475 0.05172 0.43639 0.0
H800 H 0.44356 0.32546 0.41403 0.0
H801 H 0.32152 0.19069 0.42289 0.0
H802 H 0.3589 0.17676 0.43811 0.0
H803 H 0.35482 0.1342 0.41535 0.0
C804 C 0.46022 0.19702 0.46005 0.0
C805 C 0.46148 0.12897 0.45654 0.0
C806 C 0.44215 0.23846 0.44737 0.0
C807 C 0.42544 0.21234 0.43096 0.0
C808 C 0.42929 0.14509 0.42682 0.0
H809 H 0.37512 0.33355 0.32223 0.0
H810 H 0.40102 0.33336 0.35386 0.0
C811 C 0.44656 0.10387 0.43957 0.0
C812 C 0.40348 0.25375 0.41807 0.0
H813 H 0.32715 0.24854 0.39288 0.0
C814 C 0.4178 0.30948 0.40966 0.0
C815 C 0.36912 0.23537 0.41292 0.0
C816 C 0.35009 0.18148 0.42301 0.0
C817 C 0.40004 0.34319 0.39499 0.0
C818 C 0.36773 0.31896 0.38799 0.0
C819 C 0.35214 0.26703 0.39773 0.0
C820 C 0.3521 0.33915 0.36921 0.0
C821 C 0.41645 0.40401 0.38713 0.0
C822 C 0.31568 0.34511 0.3668 0.0
C823 C 0.30059 0.34355 0.3484 0.0
C824 C 0.32171 0.33599 0.3321 0.0
C825 C 0.35808 0.33915 0.33449 0.0
C826 C 0.37306 0.33951 0.35277 0.0
H827 H 0.42926 0.43265 0.39882 0.0
H828 H 0.43703 0.38962 0.37675 0.0
H829 H 0.39706 0.43606 0.37992 0.0
H830 H 0.29872 0.34546 0.37916 0.0
H831 H 0.2725 0.34108 0.34711 0.0
H832 H 1.00769 0.7371 0.97156 0.0
H833 H 0.01502 0.61793 0.97136 0.0
H834 H 0.05566 0.62741 0.02907 0.0
H835 H 0.04864 0.74642 0.02945 0.0
H836 H 0.08499 0.52306 1.0027 0.0
H837 H 0.94007 0.53533 1.00789 0.0
H838 H 0.95991 0.57561 0.98801 0.0
H839 H 0.96701 0.60632 1.01194 0.0
C840 C 0.01904 0.71394 0.98403 0.0
C841 C 0.02656 0.75058 1.00076 0.0
C842 C 0.02333 0.64608 0.98383 0.0
C843 C 0.03508 0.61445 1.00035 0.0
C844 C 0.04636 0.65143 1.01624 0.0
H845 H 0.04006 0.24219 0.05346 0.0
H846 H 0.04326 0.35727 0.04462 0.0
C847 C 0.04224 0.71934 1.01644 0.0
C848 C 0.02994 0.54374 1.00244 0.0
H849 H 0.96648 0.43208 1.01095 0.0
C850 C 0.05915 0.50277 1.00429 0.0
C851 C 0.99606 0.51813 1.00453 0.0
C852 C 0.96387 0.56094 1.00313 0.0
C853 C 0.05534 0.43633 1.0085 0.0
C854 C 0.02151 0.4114 1.01137 0.0
C855 C 0.9923 0.45188 1.00885 0.0
C856 C 0.01599 0.34384 1.01763 0.0
C857 C 0.08749 0.39352 1.00993 0.0
C858 C 0.99738 0.29979 1.00598 0.0
C859 C 0.99498 0.23423 1.01111 0.0
C860 C 0.01135 0.21207 0.02795 0.0
C861 C 0.02757 0.25764 0.0403 0.0
C862 C 0.02977 0.32315 0.03518 0.0
H863 H 0.10977 0.41475 1.00211 0.0
H864 H 0.09519 0.38923 0.02522 0.0
H865 H 0.08251 0.34346 1.00412 0.0
H866 H 0.98608 0.31548 0.99253 0.0
H867 H 0.98218 0.20042 1.0013 0.0
H868 H 0.2218 0.46672 0.23225 0.0
H869 H 0.22746 0.5857 0.23428 0.0
H870 H 0.30028 0.56585 0.28119 0.0
H871 H 0.29508 0.44701 0.27924 0.0
H872 H 0.20615 0.64278 0.26942 0.0
H873 H 0.34006 0.71758 0.25002 0.0
H874 H 0.32136 0.64071 0.24211 0.0
H875 H 0.3383 0.6496 0.26606 0.0
C876 C 0.23976 0.48762 0.24265 0.0
C877 C 0.25734 0.44789 0.25591 0.0
C878 C 0.24304 0.5554 0.24371 0.0
C879 C 0.26413 0.58399 0.25791 0.0
C880 C 0.28421 0.54431 0.26999 0.0
H881 H 0.28946 0.96527 0.30836 0.0
H882 H 0.28479 0.84691 0.30367 0.0
C883 C 0.28104 0.47645 0.26891 0.0
C884 C 0.2604 0.65408 0.26239 0.0
H885 H 0.30574 0.79576 0.26748 0.0
C886 C 0.22778 0.6766 0.26881 0.0
C887 C 0.28885 0.69715 0.26176 0.0
C888 C 0.32407 0.6753 0.25446 0.0
C889 C 0.22299 0.74142 0.27505 0.0
C890 C 0.25153 0.78435 0.27459 0.0
C891 C 0.28407 0.76202 0.26798 0.0
C892 C 0.24815 0.85366 0.28011 0.0
C893 C 0.18781 0.76312 0.28244 0.0
C894 C 0.22777 0.89574 0.26893 0.0
C895 C 0.23023 0.96327 0.27158 0.0
C896 C 0.25355 -0.01074 0.28527 0.0
C897 C 0.27161 0.94664 0.29754 0.0
C898 C 0.26902 0.87915 0.2949 0.0
H899 H 0.17144 0.72073 0.28634 0.0
H900 H 0.19061 0.79599 0.29518 0.0
H901 H 0.17392 0.79076 0.2711 0.0
H902 H 0.21183 0.87663 0.2573 0.0
H903 H 0.21587 -0.00519 0.26193 0.0
H904 H 0.73805 0.96001 0.31401 0.0
H905 H 0.75334 0.07484 0.31936 0.0
H906 H 0.79814 0.08103 0.26283 0.0
H907 H 0.78344 0.96547 0.25745 0.0
H908 H 0.83287 0.16036 0.29421 0.0
H909 H 0.6893 0.19643 0.28588 0.0
H910 H 0.70386 0.14109 0.30412 0.0
H911 H 0.71074 0.12041 0.27933 0.0
C912 C 0.75166 -0.01433 0.30284 0.0
C913 C 0.75869 0.95513 0.28509 0.0
C914 C 0.76064 0.05072 0.30601 0.0
C915 C 0.77627 0.08585 0.29136 0.0
C916 C 0.78603 0.05404 0.27424 0.0
H917 H 0.80741 0.46328 0.24965 0.0
H918 H 0.8088 0.3481 0.25847 0.0
C919 C 0.77743 -0.01146 0.27114 0.0
C920 C 0.77689 0.15739 0.29247 0.0
H921 H 0.72354 0.29031 0.2879 0.0
C922 C 0.80906 0.18912 0.29311 0.0
C923 C 0.74557 0.19397 0.29109 0.0
C924 C 0.71035 0.16152 0.28994 0.0
C925 C 0.81077 0.25736 0.29182 0.0
C926 C 0.77953 0.29354 0.28942 0.0
C927 C 0.74734 0.26195 0.28973 0.0
C928 C 0.77955 0.36317 0.28464 0.0
C929 C 0.84589 0.28996 0.29267 0.0
C930 C 0.76113 0.4086 0.29601 0.0
C931 C 0.75965 0.47414 0.29081 0.0
C932 C 0.77666 0.49481 0.2742 0.0
C933 C 0.7943 0.4487 0.2626 0.0
C934 C 0.79555 0.38321 0.26775 0.0
H935 H 0.86512 0.25987 0.30071 0.0
H936 H 0.85582 0.29558 0.27789 0.0
H937 H 0.84413 0.33934 0.29954 0.0
H938 H 0.74814 0.39335 0.30893 0.0
H939 H 0.74605 0.50874 0.30009 0.0
H940 H 0.97436 0.71181 0.51036 0.0
H941 H 0.9745 0.82809 0.50274 0.0
H942 H 0.04364 0.86626 0.55048 0.0
H943 H 0.04413 0.74996 0.55818 0.0
H944 H 0.95953 0.94382 0.52446 0.0
H945 H 0.09824 0.92515 0.50256 0.0
H946 H 0.07135 0.85414 0.5061 0.0
H947 H 0.08979 0.8971 0.52636 0.0
C948 C 0.989 0.74503 0.51953 0.0
C949 C 1.00983 0.72164 0.53466 0.0
C950 C 0.98916 0.81128 0.51507 0.0
C951 C 1.00997 0.85463 0.52572 0.0
C952 C 0.02824 0.83264 0.54184 0.0
H953 H 0.04728 0.25886 0.53256 0.0
H954 H 0.05349 0.13974 0.53275 0.0
C955 C 0.02823 0.76643 0.54629 0.0
C956 C 0.01374 0.92247 0.51953 0.0
H957 H 0.07371 0.03292 0.50471 0.0
C958 C 0.98433 0.96333 0.51993 0.0
C959 C 0.04621 0.9468 0.51349 0.0
C960 C 0.07816 0.90342 0.5119 0.0
C961 C 0.98683 0.02942 0.51525 0.0
C962 C 0.01952 0.05429 0.50976 0.0
C963 C 0.04878 0.01305 0.50886 0.0
C964 C 0.02392 0.12448 0.50661 0.0
C965 C 0.95485 0.07276 0.51692 0.0
C966 C 1.00708 0.15451 0.49119 0.0
C967 C 1.00322 0.22236 0.49109 0.0
C968 C 0.01628 0.26053 0.50641 0.0
C969 C 0.03657 0.23058 0.52069 0.0
C970 C 0.04026 0.16267 0.52081 0.0
H971 H 0.93311 0.04795 0.52426 0.0
H972 H 0.96102 0.11869 0.52494 0.0
H973 H 0.94579 0.08638 0.50237 0.0
H974 H 0.99477 0.12525 0.48001 0.0
H975 H 0.98815 0.24442 0.47966 0.0
H976 H 0.28279 0.9387 0.74672 0.0
H977 H 0.28826 0.05709 0.74272 0.0
H978 H 0.24907 0.08981 0.79997 0.0
H979 H 0.24366 0.97206 0.80412 0.0
H980 H 0.22433 0.12958 0.7458 0.0
H981 H 0.32666 0.22633 0.7948 0.0
H982 H 0.32586 0.1419 0.78659 0.0
H983 H 0.2981 0.16896 0.80586 0.0
C984 C 0.27655 0.97113 0.75867 0.0
C985 C 0.26214 0.94691 0.77558 0.0
C986 C 0.27965 0.03843 0.75635 0.0
C987 C 0.26899 0.08138 0.77105 0.0
C988 C 0.25775 0.05696 0.78859 0.0
H989 H 0.22558 0.48557 0.7889 0.0
H990 H 0.2167 0.367 0.78891 0.0
C991 C 0.2544 -0.01008 0.79087 0.0
C992 C 0.26362 0.15084 0.7672 0.0
H993 H 0.28357 0.30287 0.78409 0.0
C994 C 0.23755 0.1678 0.75394 0.0
C995 C 0.28071 0.19962 0.77808 0.0
C996 C 0.30962 0.18342 0.79202 0.0
C997 C 0.22739 0.23314 0.75165 0.0
C998 C 0.24393 0.28168 0.76288 0.0
C999 C 0.27045 0.26475 0.77586 0.0
C1000 C 0.23699 0.35141 0.76031 0.0
C1001 C 0.19878 0.24986 0.7376 0.0
C1002 C 0.24938 0.38111 0.74378 0.0
C1003 C 0.25476 0.44826 0.7438 0.0
C1004 C 0.2479 0.48579 0.76039 0.0
C1005 C 0.23142 0.45719 0.77604 0.0
C1006 C 0.22619 0.38982 0.77604 0.0
H1007 H 0.18336 0.20605 0.73338 0.0
H1008 H 0.18096 0.28773 0.74376 0.0
H1009 H 0.2105 0.27015 0.72447 0.0
H1010 H 0.2581 0.35181 0.73161 0.0
H1011 H 0.26674 0.46999 0.73141 0.0
H1012 H 0.7342 0.47827 0.72842 0.0
H1013 H 0.74204 0.5968 0.7282 0.0
H1014 H 0.80656 0.5848 0.77888 0.0
H1015 H 0.79911 0.46632 0.77919 0.0
H1016 H 0.71542 0.65993 0.76121 0.0
H1017 H 0.85228 0.73085 0.74771 0.0
H1018 H 0.83456 0.65313 0.7398 0.0
H1019 H 0.8478 0.66509 0.76434 0.0
C1020 C 0.75088 0.50066 0.7392 0.0
C1021 C 0.76525 0.46356 0.75415 0.0
C1022 C 0.7555 0.56816 0.73895 0.0
C1023 C 0.77473 0.59903 0.75355 0.0
C1024 C 0.79201 0.56142 0.76736 0.0
H1025 H 0.79355 0.97803 0.80524 0.0
H1026 H 0.79106 0.86033 0.79858 0.0
C1027 C 0.78749 0.49382 0.7676 0.0
C1028 C 0.77068 0.6698 0.75678 0.0
H1029 H 0.81599 0.81088 0.76342 0.0
C1030 C 0.73727 0.69335 0.76142 0.0
C1031 C 0.79938 0.71236 0.75723 0.0
C1032 C 0.8355 0.6893 0.75184 0.0
C1033 C 0.73195 0.75847 0.7672 0.0
C1034 C 0.76077 0.80079 0.76802 0.0
C1035 C 0.79406 0.77765 0.76293 0.0
C1036 C 0.75711 0.86975 0.77391 0.0
C1037 C 0.69587 0.78081 0.77299 0.0
C1038 C 0.73759 0.91299 0.76266 0.0
C1039 C 0.73863 0.98004 0.76651 0.0
C1040 C 0.75977 0.00454 0.78146 0.0
C1041 C 0.77729 0.96054 0.79353 0.0
C1042 C 0.77602 0.89348 0.78973 0.0
H1043 H 0.67875 0.73875 0.7762 0.0
H1044 H 0.69692 0.81382 0.78578 0.0
H1045 H 0.6838 0.8084 0.76105 0.0
H1046 H 0.72319 0.89532 0.75025 0.0
H1047 H 0.72488 0.0127 0.75691 0.0
H1048 H 0.5432 0.77014 0.53239 0.0
H1049 H 0.54543 0.65189 0.53673 0.0
H1050 H 0.48723 0.62295 0.48426 0.0
H1051 H 0.48452 0.74132 0.47979 0.0
H1052 H 0.45573 0.57387 0.51779 0.0
H1053 H 0.59384 0.49361 0.51059 0.0
H1054 H 0.58713 0.56454 0.52574 0.0
H1055 H 0.57745 0.56907 0.50057 0.0
C1056 C 0.5318 0.73863 0.52145 0.0
C1057 C 0.51305 0.76484 0.50595 0.0
C1058 C 0.5332 0.67113 0.52394 0.0
C1059 C 0.51635 0.62936 0.51083 0.0
C1060 C 0.50022 0.65497 0.49451 0.0
H1061 H 0.47012 0.22226 0.50803 0.0
H1062 H 0.4647 0.34081 0.50521 0.0
C1063 C 0.49869 0.72241 0.49202 0.0
C1064 C 0.51136 0.56041 0.51556 0.0
H1065 H 0.55479 0.41809 0.52429 0.0
C1066 C 0.47729 0.53947 0.51911 0.0
C1067 C 0.5397 0.51663 0.51742 0.0
C1068 C 0.57659 0.53677 0.51324 0.0
C1069 C 0.4708 0.47526 0.52472 0.0
C1070 C 0.49914 0.43147 0.52658 0.0
C1071 C 0.53321 0.45249 0.52303 0.0
C1072 C 0.49436 0.36219 0.53101 0.0
C1073 C 0.43391 0.45497 0.52882 0.0
C1074 C 0.51165 0.33559 0.54684 0.0
C1075 C 0.5153 0.26802 0.54832 0.0
C1076 C 0.50183 0.2265 0.53389 0.0
C1077 C 0.48127 0.25319 0.51918 0.0
C1078 C 0.47786 0.32086 0.51763 0.0
H1079 H 0.41675 0.49807 0.53174 0.0
H1080 H 0.42328 0.42824 0.51614 0.0
H1081 H 0.43302 0.42173 0.54126 0.0
H1082 H 0.52439 0.36719 0.5573 0.0
H1083 H 0.53068 0.24871 0.56005 0.0
H1084 H 0.47428 0.71109 1.00437 0.0
H1085 H 0.47372 0.83014 1.00076 0.0
H1086 H 0.49198 0.85531 0.06145 0.0
H1087 H 0.49252 0.73654 0.06523 0.0
H1088 H 0.44865 0.95859 0.04135 0.0
H1089 H 0.57805 0.897 1.00969 0.0
H1090 H 0.54095 0.85559 0.9995 0.0
H1091 H 0.55389 0.83956 0.02375 0.0
C1092 C 0.47653 0.74197 1.01708 0.0
C1093 C 0.48434 0.71491 0.03501 0.0
C1094 C 0.4764 0.80986 1.01496 0.0
C1095 C 0.48371 0.85072 0.03078 0.0
C1096 C 0.48663 0.8241 0.04909 0.0
H1097 H 0.53979 0.25864 0.04597 0.0
H1098 H 0.53722 0.14012 0.05094 0.0
C1099 C 0.48694 0.75638 0.05121 0.0
C1100 C 0.49459 0.91866 0.02792 0.0
H1101 H 0.5621 0.00888 1.01117 0.0
C1102 C 0.47337 0.96984 0.03476 0.0
C1103 C 0.52721 0.93236 1.01958 0.0
C1104 C 0.55158 0.8784 1.01281 0.0
C1105 C 0.48361 0.03519 0.033 0.0
C1106 C 0.51613 0.04886 0.02454 0.0
C1107 C 0.53742 -0.00235 1.01781 0.0
C1108 C 0.52678 0.11659 1.02114 0.0
C1109 C 0.45934 0.08929 0.03977 0.0
C1110 C 0.52421 0.14109 1.00256 0.0
C1111 C 0.52565 0.20831 0.99968 0.0
C1112 C 0.5299 0.25152 1.01536 0.0
C1113 C 0.53662 0.22625 0.03364 0.0
C1114 C 0.53485 0.15882 0.03654 0.0
H1115 H 0.4331 0.07062 0.04337 0.0
H1116 H 0.47048 0.1133 0.05277 0.0
H1117 H 0.45642 0.12723 0.0286 0.0
H1118 H 0.51822 0.10879 0.99054 0.0
H1119 H 0.5205 0.22677 0.98545 0.0
H1120 H 0.4177 0.25263 0.0402 0.0
H1121 H 0.36097 0.19729 0.04084 0.0
H1122 H 0.31024 0.37555 1.0226 0.0
H1123 H 0.36642 0.43052 1.02202 0.0
H1124 H 0.27158 0.30175 0.04945 0.0
H1125 H 0.31921 0.15441 0.98689 0.0
H1126 H 0.34483 0.14993 1.00849 0.0
H1127 H 0.34184 0.22583 0.99586 0.0
C1128 C 0.3942 0.28031 0.03704 0.0
C1129 C 0.39609 0.34533 0.0309 0.0
C1130 C 0.362 0.24869 0.03722 0.0
C1131 C 0.33172 0.28222 0.03135 0.0
C1132 C 0.33338 0.34889 0.02703 0.0
H1133 H 0.11571 0.19548 1.00377 0.0
H1134 H 0.17329 0.24758 1.00459 0.0
C1135 C 0.36539 0.38016 0.02672 0.0
C1136 C 0.29894 0.24724 0.02752 0.0
H1137 H 0.26118 0.1383 0.99634 0.0
C1138 C 0.26925 0.26574 0.03793 0.0
C1139 C 0.29613 0.20115 1.01225 0.0
C1140 C 0.32706 0.18179 1.00008 0.0
C1141 C 0.23667 0.23864 0.03361 0.0
C1142 C 0.23382 0.19296 1.01823 0.0
C1143 C 0.26356 0.17406 1.00793 0.0
C1144 C 0.20064 0.16013 1.01381 0.0
C1145 C 0.20572 0.25813 0.04574 0.0
C1146 C 0.1977 0.09314 1.01747 0.0
C1147 C 0.1652 0.0636 1.0169 0.0
C1148 C 0.13528 0.10053 1.01247 0.0
C1149 C 0.13857 0.1661 1.00704 0.0
C1150 C 0.17125 0.19591 1.00774 0.0
H1151 H 0.21368 0.2838 0.0592 0.0
H1152 H 0.18859 0.29171 0.03751 0.0
H1153 H 0.19026 0.21441 0.04948 0.0
H1154 H 0.22017 0.06476 1.02203 0.0
H1155 H 0.16311 0.01285 1.02111 0.0
H1156 H 0.88488 0.88187 0.04935 0.0
H1157 H 0.8259 0.83571 0.0519 0.0
H1158 H 0.83759 0.744 0.99613 0.0
H1159 H 0.89576 0.78986 0.99354 0.0
H1160 H 0.77303 0.8667 0.02302 0.0
H1161 H 0.79568 0.59881 0.02943 0.0
H1162 H 0.82838 0.65872 0.03573 0.0
H1163 H 0.82084 0.63648 1.01104 0.0
C1164 C 0.87501 0.85033 0.03797 0.0
C1165 C 0.8944 0.83929 1.02124 0.0
C1166 C 0.84149 0.82437 0.03937 0.0
C1167 C 0.82772 0.78625 0.02423 0.0
C1168 C 0.84801 0.77248 1.00805 0.0
H1169 H 0.63119 0.60756 0.993 0.0
H1170 H 0.6887 0.65946 0.99072 0.0
C1171 C 0.88107 0.79888 1.00655 0.0
C1172 C 0.79097 0.76645 0.02404 0.0
H1173 H 0.73879 0.63277 1.01967 0.0
C1174 C 0.76538 0.81561 1.02253 0.0
C1175 C 0.78143 0.69981 0.02304 0.0
C1176 C 0.80798 0.64534 0.02505 0.0
C1177 C 0.73029 0.7997 1.01968 0.0
C1178 C 0.72077 0.73301 1.01857 0.0
C1179 C 0.74637 0.68389 1.02021 0.0
C1180 C 0.6841 0.71262 1.0177 0.0
C1181 C 0.7038 0.8542 1.01754 0.0
C1182 C 0.66247 0.72709 0.03331 0.0
C1183 C 0.63012 0.69758 0.03463 0.0
C1184 C 0.61892 0.65322 1.02037 0.0
C1185 C 0.63936 0.64215 1.00404 0.0
C1186 C 0.67209 0.67139 1.0028 0.0
H1187 H 0.71615 0.90048 1.01301 0.0
H1188 H 0.6833 0.84062 1.00695 0.0
H1189 H 0.69106 0.86366 0.03156 0.0
H1190 H 0.67152 0.75782 0.04509 0.0
H1191 H 0.61458 0.70667 0.04734 0.0
H1192 H 0.16406 0.42688 0.3027 0.0
H1193 H 0.11083 0.48828 0.31077 0.0
H1194 H 0.04878 0.33063 0.28735 0.0
H1195 H 0.10169 0.27037 0.27872 0.0
H1196 H 0.03462 0.44267 0.27034 0.0
H1197 H 0.03174 0.48495 0.34899 0.0
H1198 H 0.07191 0.50862 0.3381 0.0
H1199 H 0.05957 0.42379 0.3378 0.0
C1200 C 0.13903 0.40461 0.29979 0.0
C1201 C 0.13699 0.34428 0.28983 0.0
C1202 C 0.10859 0.43962 0.3045 0.0
C1203 C 0.07572 0.41412 0.29968 0.0
C1204 C 0.0738 0.35148 0.29114 0.0
H1205 H 0.86563 0.57035 0.311 0.0
H1206 H 0.9213 0.5155 0.31784 0.0
C1207 C 0.10407 0.3171 0.28618 0.0
C1208 C 0.04381 0.45585 0.30063 0.0
H1209 H 0.99199 0.54922 0.33023 0.0
C1210 C 0.02527 0.46552 0.2835 0.0
C1211 C 0.0315 0.48566 0.31779 0.0
C1212 C 0.0495 0.47483 0.33676 0.0
C1213 C 0.99496 0.50403 0.28295 0.0
C1214 C 0.98322 0.53574 0.29992 0.0
C1215 C 1.00137 0.52566 0.31719 0.0
C1216 C 0.95158 0.57804 0.29965 0.0
C1217 C 0.97543 0.50948 0.26417 0.0
C1218 C 0.95052 0.63355 0.28801 0.0
C1219 C 0.91879 0.6643 0.28387 0.0
C1220 C 0.88759 0.64083 0.29156 0.0
C1221 C 0.88921 0.58953 0.30482 0.0
C1222 C 0.921 0.55812 0.30876 0.0
H1223 H 0.98282 0.46964 0.2539 0.0
H1224 H 0.94684 0.50774 0.26643 0.0
H1225 H 0.98166 0.55696 0.25748 0.0
H1226 H 0.97395 0.65041 0.28111 0.0
H1227 H 0.91847 0.70432 0.27383 0.0
H1228 H 0.35835 0.97248 0.51499 0.0
H1229 H 0.30061 0.9235 0.51643 0.0
H1230 H 0.34632 0.74509 0.53807 0.0
H1231 H 0.4042 0.79479 0.53712 0.0
H1232 H 0.28689 0.81737 0.49374 0.0
H1233 H 0.25799 0.76245 0.56958 0.0
H1234 H 0.29127 0.81963 0.56283 0.0
H1235 H 0.29993 0.73283 0.562 0.0
C1236 C 0.35585 0.92359 0.52068 0.0
C1237 C 0.38549 0.88703 0.52586 0.0
C1238 C 0.32296 0.8957 0.52144 0.0
C1239 C 0.31927 0.83075 0.52729 0.0
C1240 C 0.34859 0.79571 0.53381 0.0
H1241 H 0.1641 0.53534 0.52083 0.0
H1242 H 0.21818 0.59746 0.52016 0.0
C1243 C 0.38159 0.82401 0.53327 0.0
C1244 C 0.28584 0.79718 0.524 0.0
H1245 H 0.2234 0.70758 0.54578 0.0
C1246 C 0.27275 0.79396 0.50515 0.0
C1247 C 0.26765 0.76669 0.5389 0.0
C1248 C 0.27972 0.77102 0.55949 0.0
C1249 C 0.24233 0.75932 0.50071 0.0
C1250 C 0.22464 0.72761 0.51554 0.0
C1251 C 0.23734 0.73177 0.53444 0.0
C1252 C 0.19324 0.68831 0.5119 0.0
C1253 C 0.22989 0.75516 0.48018 0.0
C1254 C 0.1617 0.71841 0.50655 0.0
C1255 C 0.13078 0.68271 0.50668 0.0
C1256 C 0.13127 0.61705 0.51243 0.0
C1257 C 0.16322 0.58598 0.51635 0.0
C1258 C 0.194 0.62137 0.51607 0.0
H1259 H 0.24999 0.77193 0.47 0.0
H1260 H 0.22256 0.70409 0.47631 0.0
H1261 H 0.2064 0.78664 0.47847 0.0
H1262 H 0.16066 0.77032 0.50351 0.0
H1263 H 0.10631 0.70781 0.50391 0.0
H1264 H 0.8598 0.46185 0.52869 0.0
H1265 H 0.80294 0.409 0.52927 0.0
H1266 H 0.85291 0.22374 0.54135 0.0
H1267 H 0.90992 0.27702 0.54119 0.0
H1268 H 0.79338 0.312 0.50107 0.0
H1269 H 0.76348 0.21925 0.57361 0.0
H1270 H 0.79434 0.28408 0.56973 0.0
H1271 H 0.80652 0.20016 0.56507 0.0
C1272 C 0.85841 0.41044 0.53231 0.0
C1273 C 0.8889 0.37313 0.53483 0.0
C1274 C 0.82605 0.38036 0.53256 0.0
C1275 C 0.82388 0.31259 0.53523 0.0
C1276 C 0.85411 0.27631 0.53953 0.0
H1277 H 0.66178 0.02987 0.51952 0.0
H1278 H 0.71848 0.08342 0.52055 0.0
C1279 C 0.88659 0.30669 0.53949 0.0
C1280 C 0.79126 0.27882 0.53025 0.0
H1281 H 0.72834 0.1802 0.54783 0.0
C1282 C 0.77896 0.28346 0.51131 0.0
C1283 C 0.77295 0.2413 0.54361 0.0
C1284 C 0.78475 0.23615 0.5642 0.0
C1285 C 0.74882 0.25081 0.50528 0.0
C1286 C 0.73043 0.21341 0.51865 0.0
C1287 C 0.74274 0.20879 0.5376 0.0
C1288 C 0.69793 0.17929 0.51357 0.0
C1289 C 0.73733 0.25556 0.48462 0.0
C1290 C 0.66803 0.21503 0.50829 0.0
C1291 C 0.6357 0.18419 0.50735 0.0
C1292 C 0.63311 0.11782 0.51203 0.0
C1293 C 0.66339 0.08118 0.51583 0.0
C1294 C 0.69563 0.1117 0.51653 0.0
H1295 H 0.75899 0.2709 0.47523 0.0
H1296 H 0.72713 0.20795 0.47921 0.0
H1297 H 0.71617 0.29272 0.48352 0.0
H1298 H 0.66926 0.26749 0.50625 0.0
H1299 H 0.61249 0.21338 0.50471 0.0
H1300 H 0.91551 0.1507 0.77443 0.0
H1301 H 0.96738 0.09283 0.76383 0.0
H1302 H 0.90818 -0.00517 0.71936 0.0
H1303 H 0.85514 0.05192 0.73033 0.0
H1304 H 0.94675 0.90919 0.73869 0.0
H1305 H 0.03227 0.11288 0.71988 0.0
H1306 H 0.01505 0.12803 0.74335 0.0
H1307 H 0.98591 0.12414 0.72298 0.0
C1308 C 0.91329 0.11755 0.76222 0.0
C1309 C 0.88087 0.10593 0.75332 0.0
C1310 C 0.94329 0.08493 0.756 0.0
C1311 C 0.94201 0.04038 0.74052 0.0
C1312 C 0.90991 0.02955 0.73122 0.0
H1313 H 0.15196 0.86637 0.7267 0.0
H1314 H 0.09668 0.91558 0.71606 0.0
C1315 C 0.87962 0.06232 0.73749 0.0
C1316 C 0.97363 0.00082 0.7357 0.0
H1317 H 0.06194 0.01483 0.73227 0.0
C1318 C 0.97183 0.93224 0.73676 0.0
C1319 C 1.00639 0.03025 0.73263 0.0
C1320 C 1.0099 0.10286 0.72942 0.0
C1321 C 1.00214 0.89314 0.73673 0.0
C1322 C 0.03516 0.92354 0.73615 0.0
C1323 C 0.03676 -0.00863 0.73316 0.0
C1324 C 0.06784 0.88776 0.7412 0.0
C1325 C 0.99842 0.81977 0.73794 0.0
C1326 C 0.07012 0.85582 0.75883 0.0
C1327 C 0.10142 0.82766 0.7649 0.0
C1328 C 0.13164 0.83137 0.75363 0.0
C1329 C 0.12927 0.86232 0.73574 0.0
C1330 C 0.09768 0.89056 0.72964 0.0
H1331 H 0.97425 0.8032 0.73057 0.0
H1332 H 0.02103 0.79351 0.73148 0.0
H1333 H 0.9964 0.80587 0.75321 0.0
H1334 H 0.04791 0.85462 0.76832 0.0
H1335 H 0.10198 0.80442 0.77875 0.0
H1336 H 0.66395 0.41529 0.81052 0.0
H1337 H 0.60966 0.46769 0.8217 0.0
H1338 H 0.55229 0.36338 0.77774 0.0
H1339 H 0.60539 0.31048 0.76687 0.0
H1340 H 0.56834 0.54944 0.80184 0.0
H1341 H 0.48885 0.33918 0.82232 0.0
H1342 H 0.53544 0.33239 0.81924 0.0
H1343 H 0.50641 0.32386 0.79894 0.0
C1344 C 0.63964 0.40261 0.8035 0.0
C1345 C 0.63926 0.3589 0.78767 0.0
C1346 C 0.60863 0.43264 0.8099 0.0
C1347 C 0.57668 0.41872 0.80079 0.0
C1348 C 0.57629 0.37374 0.7854 0.0
H1349 H 0.41099 0.6321 0.76019 0.0
H1350 H 0.46616 0.58859 0.77139 0.0
C1351 C 0.607 0.34399 0.77902 0.0
C1352 C 0.54413 0.45557 0.80559 0.0
H1353 H 0.45635 0.43309 0.80921 0.0
C1354 C 0.54397 0.52411 0.80399 0.0
C1355 C 0.51226 0.42322 0.80895 0.0
C1356 C 0.51086 0.35066 0.81268 0.0
C1357 C 0.51258 0.56008 0.80369 0.0
C1358 C 0.48048 0.52648 0.80452 0.0
C1359 C 0.48082 0.45893 0.80813 0.0
C1360 C 0.44692 0.55829 0.79895 0.0
C1361 C 0.51415 0.63354 0.80176 0.0
C1362 C 0.41712 0.55488 0.81053 0.0
C1363 C 0.3849 0.57939 0.80401 0.0
C1364 C 0.38185 0.60699 0.78568 0.0
C1365 C 0.41202 0.61131 0.77438 0.0
C1366 C 0.44394 0.58698 0.78087 0.0
H1367 H 0.53784 0.65338 0.8089 0.0
H1368 H 0.51562 0.6459 0.78635 0.0
H1369 H 0.49085 0.65812 0.80804 0.0
H1370 H 0.41867 0.53237 0.82448 0.0
H1371 H 0.36232 0.57523 0.81314 0.0
H1372 H 0.6488 0.84973 0.22746 0.0
H1373 H 0.59296 0.894 0.21597 0.0
H1374 H 0.54609 0.85073 0.27033 0.0
H1375 H 0.6007 0.80492 0.28162 0.0
H1376 H 0.50201 0.82427 0.24116 0.0
H1377 H 0.55837 0.07302 0.23277 0.0
H1378 H 0.57716 0.00792 0.21852 0.0
H1379 H 0.58224 0.00768 0.24414 0.0
C1380 C 0.62648 0.84895 0.23688 0.0
C1381 C 0.62958 0.82444 0.25559 0.0
C1382 C 0.5946 0.87466 0.23031 0.0
C1383 C 0.56543 0.87693 0.24242 0.0
C1384 C 0.56816 0.84972 0.2607 0.0
H1385 H 0.41044 0.12771 0.27526 0.0
H1386 H 0.46179 0.06863 0.26454 0.0
C1387 C 0.59968 0.82369 0.26719 0.0
C1388 C 0.53244 0.91097 0.23703 0.0
H1389 H 0.49791 0.06437 0.23139 0.0
C1390 C 0.50103 0.87658 0.23861 0.0
C1391 C 0.53124 0.97925 0.23366 0.0
C1392 C 0.56395 0.01949 0.23227 0.0
C1393 C 0.46864 0.90927 0.23858 0.0
C1394 C 0.4676 0.97813 0.23638 0.0
C1395 C 0.4988 0.0116 0.23309 0.0
C1396 C 0.43596 0.01758 0.24114 0.0
C1397 C 0.43617 0.87056 0.24251 0.0
C1398 C 0.40414 0.00985 0.2313 0.0
C1399 C 0.37412 0.04349 0.2376 0.0
C1400 C 0.37556 0.08561 0.25378 0.0
C1401 C 0.40795 0.09526 0.26291 0.0
C1402 C 0.43761 0.06166 0.25671 0.0
H1403 H 0.44218 0.81922 0.24658 0.0
H1404 H 0.4209 0.89418 0.25423 0.0
H1405 H 0.41957 0.86919 0.22945 0.0
H1406 H 0.40237 0.97706 0.219 0.0
H1407 H 0.34972 0.03521 0.23012 0.0
loop_
_geom_bond_atom_site_label_1
_geom_bond_atom_site_label_2
_geom_bond_distance
_geom_bond_site_symmetry_2
_ccdc_geom_bond_type
Fe0 O1 1.886 1_556 S
Fe0 O4 1.715 . S
Fe0 O9 2.077 . S
Fe0 O14 1.935 1_655 S
Fe0 O20 2.077 . S
Fe0 O29 1.935 . S
O1 Fe0 1.886 1_554 S
O1 Fe3 1.715 . S
Fe2 O4 1.886 1_445 S
Fe2 O5 1.715 . S
Fe2 O12 1.935 . S
Fe2 O13 2.077 . S
Fe2 O19 1.935 1_455 S
Fe2 O28 2.077 1_455 S
Fe3 O1 1.715 . S
Fe3 O6 1.886 1_665 S
Fe3 O10 1.935 1_655 S
Fe3 O15 2.077 1_655 S
Fe3 O21 1.935 . S
Fe3 O25 2.077 . S
O4 Fe0 1.715 . S
O4 Fe2 1.886 1_665 S
O5 Fe2 1.715 . S
O5 Fe7 1.886 1_556 S
O6 Fe3 1.886 1_445 S
O6 Fe7 1.715 . S
Fe7 O5 1.886 1_554 S
Fe7 O6 1.715 . S
Fe7 O11 2.077 . S
Fe7 O16 1.935 . S
Fe7 O18 2.077 . S
Fe7 O26 1.935 1_455 S
C8 O20 1.381 1_554 S
C8 O21 1.421 . S
O9 Fe0 2.077 . S
O9 C22 1.381 1_656 S
O10 Fe3 1.935 1_455 S
O10 C22 1.421 . S
O11 Fe7 2.077 . S
O11 C27 1.333 1_554 S
O12 Fe2 1.935 . S
O12 C27 1.466 . S
O13 Fe2 2.077 . S
O13 C17 1.381 1_545 S
O14 Fe0 1.935 1_455 S
O14 C17 1.421 . S
O15 Fe3 2.077 1_455 S
O15 C23 1.381 . S
O16 Fe7 1.935 . S
O16 C23 1.421 1_545 S
C17 O13 1.381 1_565 S
C17 O14 1.421 . S
O18 Fe7 2.077 . S
O18 C30 1.333 1_454 S
O19 Fe2 1.935 1_655 S
O19 C30 1.466 . S
O20 Fe0 2.077 . S
O20 C8 1.381 1_556 S
O21 Fe3 1.935 . S
O21 C8 1.421 . S
C22 O9 1.381 1_454 S
C22 O10 1.421 . S
C23 O15 1.381 . S
C23 O16 1.421 1_565 S
C24 O25 1.381 1_545 S
C24 O26 1.421 . S
O25 Fe3 2.077 . S
O25 C24 1.381 1_565 S
O26 Fe7 1.935 1_655 S
O26 C24 1.421 . S
C27 O11 1.333 1_556 S
C27 O12 1.466 . S
O28 Fe2 2.077 1_655 S
O28 C31 1.381 . S
O29 Fe0 1.935 . S
O29 C31 1.421 1_565 S
C30 O18 1.333 1_656 S
C30 O19 1.466 . S
C31 O28 1.381 . S
C31 O29 1.421 1_545 S
Fe32 O33 1.886 . S
Fe32 O36 1.715 . S
Fe32 O41 2.077 . S
Fe32 O46 1.935 . S
Fe32 O52 2.077 . S
Fe32 O61 1.935 . S
O33 Fe32 1.886 . S
O33 Fe35 1.715 . S
Fe34 O36 1.886 . S
Fe34 O37 1.715 . S
Fe34 O44 1.935 . S
Fe34 O45 2.077 . S
Fe34 O51 1.935 . S
Fe34 O60 2.077 . S
Fe35 O33 1.715 . S
Fe35 O38 1.886 . S
Fe35 O42 1.935 . S
Fe35 O47 2.077 . S
Fe35 O53 1.935 . S
Fe35 O57 2.077 . S
O36 Fe32 1.715 . S
O36 Fe34 1.886 . S
O37 Fe34 1.715 . S
O37 Fe39 1.886 . S
O38 Fe35 1.886 . S
O38 Fe39 1.715 . S
Fe39 O37 1.886 . S
Fe39 O38 1.715 . S
Fe39 O43 2.077 . S
Fe39 O48 1.935 . S
Fe39 O50 2.077 . S
Fe39 O58 1.935 . S
C40 O52 1.381 . S
C40 O53 1.421 . S
O41 Fe32 2.077 . S
O41 C54 1.381 . S
O42 Fe35 1.935 . S
O42 C54 1.421 . S
O43 Fe39 2.077 . S
O43 C59 1.381 . S
O44 Fe34 1.935 . S
O44 C59 1.421 . S
O45 Fe34 2.077 . S
O45 C49 1.381 . S
O46 Fe32 1.935 . S
O46 C49 1.421 . S
O47 Fe35 2.077 . S
O47 C55 1.381 . S
O48 Fe39 1.935 . S
O48 C55 1.421 . S
C49 O45 1.381 . S
C49 O46 1.421 . S
O50 Fe39 2.077 . S
O50 C62 1.381 . S
O51 Fe34 1.935 . S
O51 C62 1.421 . S
O52 Fe32 2.077 . S
O52 C40 1.381 . S
O53 Fe35 1.935 . S
O53 C40 1.421 . S
C54 O41 1.381 . S
C54 O42 1.421 . S
C55 O47 1.381 . S
C55 O48 1.421 . S
C56 O57 1.381 . S
C56 O58 1.421 . S
O57 Fe35 2.077 . S
O57 C56 1.381 . S
O58 Fe39 1.935 . S
O58 C56 1.421 . S
C59 O43 1.381 . S
C59 O44 1.421 . S
O60 Fe34 2.077 . S
O60 C63 1.381 . S
O61 Fe32 1.935 . S
O61 C63 1.421 . S
C62 O50 1.381 . S
C62 O51 1.421 . S
C63 O60 1.381 . S
C63 O61 1.421 . S
Fe64 O65 1.886 . S
Fe64 O68 1.715 . S
Fe64 O73 2.077 . S
Fe64 O78 1.935 . S
Fe64 O84 2.077 . S
Fe64 O93 1.935 . S
O65 Fe64 1.886 . S
O65 Fe67 1.715 . S
Fe66 O68 1.886 . S
Fe66 O69 1.715 . S
Fe66 O76 1.935 . S
Fe66 O77 2.077 . S
Fe66 O83 1.935 . S
Fe66 O92 2.077 . S
Fe67 O65 1.715 . S
Fe67 O70 1.886 . S
Fe67 O74 1.935 . S
Fe67 O79 2.077 . S
Fe67 O85 1.935 . S
Fe67 O89 2.077 . S
O68 Fe64 1.715 . S
O68 Fe66 1.886 . S
O69 Fe66 1.715 . S
O69 Fe71 1.886 . S
O70 Fe67 1.886 . S
O70 Fe71 1.715 . S
Fe71 O69 1.886 . S
Fe71 O70 1.715 . S
Fe71 O75 2.077 . S
Fe71 O80 1.935 . S
Fe71 O82 2.077 . S
Fe71 O90 1.935 . S
C72 O84 1.381 . S
C72 O85 1.421 . S
O73 Fe64 2.077 . S
O73 C86 1.381 . S
O74 Fe67 1.935 . S
O74 C86 1.421 . S
O75 Fe71 2.077 . S
O75 C91 1.381 . S
O76 Fe66 1.935 . S
O76 C91 1.421 . S
O77 Fe66 2.077 . S
O77 C81 1.381 . S
O78 Fe64 1.935 . S
O78 C81 1.421 . S
O79 Fe67 2.077 . S
O79 C87 1.381 . S
O80 Fe71 1.935 . S
O80 C87 1.421 . S
C81 O77 1.381 . S
C81 O78 1.421 . S
O82 Fe71 2.077 . S
O82 C94 1.381 . S
O83 Fe66 1.935 . S
O83 C94 1.421 . S
O84 Fe64 2.077 . S
O84 C72 1.381 . S
O85 Fe67 1.935 . S
O85 C72 1.421 . S
C86 O73 1.381 . S
C86 O74 1.421 . S
C87 O79 1.381 . S
C87 O80 1.421 . S
C88 O89 1.381 . S
C88 O90 1.421 . S
O89 Fe67 2.077 . S
O89 C88 1.381 . S
O90 Fe71 1.935 . S
O90 C88 1.421 . S
C91 O75 1.381 . S
C91 O76 1.421 . S
O92 Fe66 2.077 . S
O92 C95 1.381 . S
O93 Fe64 1.935 . S
O93 C95 1.421 . S
C94 O82 1.381 . S
C94 O83 1.421 . S
C95 O92 1.381 . S
C95 O93 1.421 . S
Fe96 O97 1.886 . S
Fe96 O100 1.715 . S
Fe96 O105 2.077 . S
Fe96 O110 1.935 1_655 S
Fe96 O116 2.077 . S
Fe96 O125 1.935 . S
O97 Fe96 1.886 . S
O97 Fe99 1.715 . S
Fe98 O100 1.886 1_455 S
Fe98 O101 1.715 . S
Fe98 O108 1.935 . S
Fe98 O109 2.077 . S
Fe98 O115 1.935 1_455 S
Fe98 O124 2.077 1_455 S
Fe99 O97 1.715 . S
Fe99 O102 1.886 1_655 S
Fe99 O106 1.935 1_655 S
Fe99 O111 2.077 1_655 S
Fe99 O117 1.935 . S
Fe99 O121 2.077 . S
O100 Fe96 1.715 . S
O100 Fe98 1.886 1_655 S
O101 Fe98 1.715 . S
O101 Fe103 1.886 . S
O102 Fe99 1.886 1_455 S
O102 Fe103 1.715 . S
Fe103 O101 1.886 . S
Fe103 O102 1.715 . S
Fe103 O107 2.077 . S
Fe103 O112 1.935 . S
Fe103 O114 2.077 . S
Fe103 O122 1.935 1_455 S
C104 O116 1.381 . S
C104 O117 1.421 . S
O105 Fe96 2.077 . S
O105 C118 1.381 1_655 S
O106 Fe99 1.935 1_455 S
O106 C118 1.421 . S
O107 Fe103 2.077 . S
O107 C123 1.381 . S
O108 Fe98 1.935 . S
O108 C123 1.421 . S
O109 Fe98 2.077 . S
O109 C113 1.381 . S
O110 Fe96 1.935 1_455 S
O110 C113 1.421 . S
O111 Fe99 2.077 1_455 S
O111 C119 1.381 . S
O112 Fe103 1.935 . S
O112 C119 1.421 . S
C113 O109 1.381 . S
C113 O110 1.421 . S
O114 Fe103 2.077 . S
O114 C126 1.381 1_455 S
O115 Fe98 1.935 1_655 S
O115 C126 1.421 . S
O116 Fe96 2.077 . S
O116 C104 1.381 . S
O117 Fe99 1.935 . S
O117 C104 1.421 . S
C118 O105 1.381 1_455 S
C118 O106 1.421 . S
C119 O111 1.381 . S
C119 O112 1.421 . S
C120 O121 1.381 . S
C120 O122 1.421 . S
O121 Fe99 2.077 . S
O121 C120 1.381 . S
O122 Fe103 1.935 1_655 S
O122 C120 1.421 . S
C123 O107 1.381 . S
C123 O108 1.421 . S
O124 Fe98 2.077 1_655 S
O124 C127 1.381 . S
O125 Fe96 1.935 . S
O125 C127 1.421 . S
C126 O114 1.381 1_655 S
C126 O115 1.421 . S
C127 O124 1.381 . S
C127 O125 1.421 . S
Fe128 O129 1.886 . S
Fe128 O132 1.715 . S
Fe128 O137 2.077 . S
Fe128 O142 1.935 . S
Fe128 O148 2.077 . S
Fe128 O157 1.935 . S
O129 Fe128 1.886 . S
O129 Fe131 1.715 . S
Fe130 O132 1.886 . S
Fe130 O133 1.715 . S
Fe130 O140 1.935 . S
Fe130 O141 2.077 . S
Fe130 O147 1.935 . S
Fe130 O156 2.077 . S
Fe131 O129 1.715 . S
Fe131 O134 1.886 . S
Fe131 O138 1.935 . S
Fe131 O143 2.077 . S
Fe131 O149 1.935 . S
Fe131 O153 2.077 . S
O132 Fe128 1.715 . S
O132 Fe130 1.886 . S
O133 Fe130 1.715 . S
O133 Fe135 1.886 . S
O134 Fe131 1.886 . S
O134 Fe135 1.715 . S
Fe135 O133 1.886 . S
Fe135 O134 1.715 . S
Fe135 O139 2.077 . S
Fe135 O144 1.935 . S
Fe135 O146 2.077 . S
Fe135 O154 1.935 . S
C136 O148 1.381 . S
C136 O149 1.421 . S
O137 Fe128 2.077 . S
O137 C150 1.381 . S
O138 Fe131 1.935 . S
O138 C150 1.421 . S
O139 Fe135 2.077 . S
O139 C155 1.381 . S
O140 Fe130 1.935 . S
O140 C155 1.421 . S
O141 Fe130 2.077 . S
O141 C145 1.381 . S
O142 Fe128 1.935 . S
O142 C145 1.421 . S
O143 Fe131 2.077 . S
O143 C151 1.381 . S
O144 Fe135 1.935 . S
O144 C151 1.421 . S
C145 O141 1.381 . S
C145 O142 1.421 . S
O146 Fe135 2.077 . S
O146 C158 1.381 . S
O147 Fe130 1.935 . S
O147 C158 1.421 . S
O148 Fe128 2.077 . S
O148 C136 1.381 . S
O149 Fe131 1.935 . S
O149 C136 1.421 . S
C150 O137 1.381 . S
C150 O138 1.421 . S
C151 O143 1.381 . S
C151 O144 1.421 . S
C152 O153 1.381 . S
C152 O154 1.421 . S
O153 Fe131 2.077 . S
O153 C152 1.381 . S
O154 Fe135 1.935 . S
O154 C152 1.421 . S
C155 O139 1.381 . S
C155 O140 1.421 . S
O156 Fe130 2.077 . S
O156 C159 1.381 . S
O157 Fe128 1.935 . S
O157 C159 1.421 . S
C158 O146 1.381 . S
C158 O147 1.421 . S
C159 O156 1.381 . S
C159 O157 1.421 . S
Fe160 O161 1.886 . S
Fe160 O164 1.715 . S
Fe160 O169 2.077 . S
Fe160 O174 1.935 . S
Fe160 O180 2.077 . S
Fe160 O189 1.935 . S
O161 Fe160 1.886 . S
O161 Fe163 1.715 . S
Fe162 O164 1.886 . S
Fe162 O165 1.715 . S
Fe162 O172 1.935 . S
Fe162 O173 2.077 . S
Fe162 O179 1.935 . S
Fe162 O188 2.077 . S
Fe163 O161 1.715 . S
Fe163 O166 1.886 . S
Fe163 O170 1.935 . S
Fe163 O175 2.077 . S
Fe163 O181 1.935 . S
Fe163 O185 2.077 . S
O164 Fe160 1.715 . S
O164 Fe162 1.886 . S
O165 Fe162 1.715 . S
O165 Fe167 1.886 . S
O166 Fe163 1.886 . S
O166 Fe167 1.715 . S
Fe167 O165 1.886 . S
Fe167 O166 1.715 . S
Fe167 O171 2.077 . S
Fe167 O176 1.935 . S
Fe167 O178 2.077 . S
Fe167 O186 1.935 . S
C168 O180 1.381 . S
C168 O181 1.421 . S
O169 Fe160 2.077 . S
O169 C182 1.381 . S
O170 Fe163 1.935 . S
O170 C182 1.421 . S
O171 Fe167 2.077 . S
O171 C187 1.381 . S
O172 Fe162 1.935 . S
O172 C187 1.421 . S
O173 Fe162 2.077 . S
O173 C177 1.381 . S
O174 Fe160 1.935 . S
O174 C177 1.421 . S
O175 Fe163 2.077 . S
O175 C183 1.381 . S
O176 Fe167 1.935 . S
O176 C183 1.421 . S
C177 O173 1.381 . S
C177 O174 1.421 . S
O178 Fe167 2.077 . S
O178 C190 1.381 . S
O179 Fe162 1.935 . S
O179 C190 1.421 . S
O180 Fe160 2.077 . S
O180 C168 1.381 . S
O181 Fe163 1.935 . S
O181 C168 1.421 . S
C182 O169 1.381 . S
C182 O170 1.421 . S
C183 O175 1.381 . S
C183 O176 1.421 . S
C184 O185 1.381 . S
C184 O186 1.421 . S
O185 Fe163 2.077 . S
O185 C184 1.381 . S
O186 Fe167 1.935 . S
O186 C184 1.421 . S
C187 O171 1.381 . S
C187 O172 1.421 . S
O188 Fe162 2.077 . S
O188 C191 1.381 . S
O189 Fe160 1.935 . S
O189 C191 1.421 . S
C190 O178 1.381 . S
C190 O179 1.421 . S
C191 O188 1.381 . S
C191 O189 1.421 . S
Fe192 O193 1.886 . S
Fe192 O196 1.715 . S
Fe192 O201 2.077 . S
Fe192 O206 1.935 . S
Fe192 O212 2.077 . S
Fe192 O221 1.935 . S
O193 Fe192 1.886 . S
O193 Fe195 1.715 . S
Fe194 O196 1.886 1_545 S
Fe194 O197 1.715 . S
Fe194 O204 1.935 . S
Fe194 O205 2.077 . S
Fe194 O211 1.935 . S
Fe194 O220 2.077 . S
Fe195 O193 1.715 . S
Fe195 O198 1.886 1_565 S
Fe195 O202 1.935 . S
Fe195 O207 2.077 . S
Fe195 O213 1.935 . S
Fe195 O217 2.077 . S
O196 Fe192 1.715 . S
O196 Fe194 1.886 1_565 S
O197 Fe194 1.715 . S
O197 Fe199 1.886 . S
O198 Fe195 1.886 1_545 S
O198 Fe199 1.715 . S
Fe199 O197 1.886 . S
Fe199 O198 1.715 . S
Fe199 O203 2.077 . S
Fe199 O208 1.935 . S
Fe199 O210 2.077 . S
Fe199 O218 1.935 . S
C200 O212 1.381 . S
C200 O213 1.421 . S
O201 Fe192 2.077 . S
O201 C214 1.381 . S
O202 Fe195 1.935 . S
O202 C214 1.421 . S
O203 Fe199 2.077 . S
O203 C219 1.381 . S
O204 Fe194 1.935 . S
O204 C219 1.421 . S
O205 Fe194 2.077 . S
O205 C209 1.381 1_545 S
O206 Fe192 1.935 . S
O206 C209 1.421 . S
O207 Fe195 2.077 . S
O207 C215 1.381 . S
O208 Fe199 1.935 . S
O208 C215 1.421 1_545 S
C209 O205 1.381 1_565 S
C209 O206 1.421 . S
O210 Fe199 2.077 . S
O210 C222 1.381 . S
O211 Fe194 1.935 . S
O211 C222 1.421 . S
O212 Fe192 2.077 . S
O212 C200 1.381 . S
O213 Fe195 1.935 . S
O213 C200 1.421 . S
C214 O201 1.381 . S
C214 O202 1.421 . S
C215 O207 1.381 . S
C215 O208 1.421 1_565 S
C216 O217 1.381 1_545 S
C216 O218 1.421 . S
O217 Fe195 2.077 . S
O217 C216 1.381 1_565 S
O218 Fe199 1.935 . S
O218 C216 1.421 . S
C219 O203 1.381 . S
C219 O204 1.421 . S
O220 Fe194 2.077 . S
O220 C223 1.381 . S
O221 Fe192 1.935 . S
O221 C223 1.421 1_565 S
C222 O210 1.381 . S
C222 O211 1.421 . S
C223 O220 1.381 . S
C223 O221 1.421 1_545 S
Fe224 O225 1.886 1_556 S
Fe224 O228 1.715 . S
Fe224 O233 2.077 . S
Fe224 O238 1.935 . S
Fe224 O244 2.077 . S
Fe224 O253 1.935 . S
O225 Fe224 1.886 1_554 S
O225 Fe227 1.715 . S
Fe226 O228 1.886 . S
Fe226 O229 1.715 . S
Fe226 O236 1.935 . S
Fe226 O237 2.077 . S
Fe226 O243 1.935 . S
Fe226 O252 2.077 . S
Fe227 O225 1.715 . S
Fe227 O230 1.886 . S
Fe227 O234 1.935 . S
Fe227 O239 2.077 . S
Fe227 O245 1.935 . S
Fe227 O249 2.077 . S
O228 Fe224 1.715 . S
O228 Fe226 1.886 . S
O229 Fe226 1.715 . S
O229 Fe231 1.886 1_556 S
O230 Fe227 1.886 . S
O230 Fe231 1.715 . S
Fe231 O229 1.886 1_554 S
Fe231 O230 1.715 . S
Fe231 O235 2.077 . S
Fe231 O240 1.935 . S
Fe231 O242 2.077 . S
Fe231 O250 1.935 . S
C232 O244 1.381 1_554 S
C232 O245 1.421 . S
O233 Fe224 2.077 . S
O233 C246 1.381 1_556 S
O234 Fe227 1.935 . S
O234 C246 1.421 . S
O235 Fe231 2.077 . S
O235 C251 1.333 1_554 S
O236 Fe226 1.935 . S
O236 C251 1.466 . S
O237 Fe226 2.077 . S
O237 C241 1.381 . S
O238 Fe224 1.935 . S
O238 C241 1.421 . S
O239 Fe227 2.077 . S
O239 C247 1.381 . S
O240 Fe231 1.935 . S
O240 C247 1.421 . S
C241 O237 1.381 . S
C241 O238 1.421 . S
O242 Fe231 2.077 . S
O242 C254 1.333 1_554 S
O243 Fe226 1.935 . S
O243 C254 1.466 . S
O244 Fe224 2.077 . S
O244 C232 1.381 1_556 S
O245 Fe227 1.935 . S
O245 C232 1.421 . S
C246 O233 1.381 1_554 S
C246 O234 1.421 . S
C247 O239 1.381 . S
C247 O240 1.421 . S
C248 O249 1.381 . S
C248 O250 1.421 . S
O249 Fe227 2.077 . S
O249 C248 1.381 . S
O250 Fe231 1.935 . S
O250 C248 1.421 . S
C251 O235 1.333 1_556 S
C251 O236 1.466 . S
O252 Fe226 2.077 . S
O252 C255 1.381 . S
O253 Fe224 1.935 . S
O253 C255 1.421 . S
C254 O242 1.333 1_556 S
C254 O243 1.466 . S
C255 O252 1.381 . S
C255 O253 1.421 . S
H256 C264 0.929 . S
H257 C266 0.930 . S
H258 C268 0.930 . S
H259 C271 0.929 . S
H260 C274 0.924 1_565 S
H261 C276 0.960 . S
H262 C276 0.960 . S
H263 C276 0.960 . S
C264 H256 0.929 . S
C264 C265 1.377 . S
C264 C266 1.384 . S
C265 C264 1.377 . S
C265 C271 1.390 1_565 S
C266 H257 0.930 . S
C266 C264 1.384 . S
C266 C267 1.372 1_565 S
C267 C266 1.372 1_545 S
C267 C268 1.400 . S
C267 C272 1.490 . S
C268 H258 0.930 . S
C268 C267 1.400 . S
C268 C271 1.386 . S
H269 C285 0.930 . S
H270 C286 0.931 . S
C271 H259 0.929 . S
C271 C265 1.390 1_545 S
C271 C268 1.386 . S
C272 C267 1.490 . S
C272 C274 1.395 . S
C272 C275 1.403 . S
H273 C279 0.930 . S
C274 H260 0.924 1_545 S
C274 C272 1.395 . S
C274 C277 1.403 . S
C275 C272 1.403 . S
C275 C276 1.524 . S
C275 C279 1.400 . S
C276 H261 0.960 . S
C276 H262 0.960 . S
C276 H263 0.960 . S
C276 C275 1.524 . S
C277 C274 1.403 . S
C277 C278 1.392 . S
C277 C281 1.495 . S
C278 C277 1.392 . S
C278 C279 1.385 . S
C278 C280 1.478 . S
C279 H273 0.930 . S
C279 C275 1.400 . S
C279 C278 1.385 . S
C280 C278 1.478 . S
C280 C282 1.381 . S
C280 C286 1.383 . S
C281 C277 1.495 . S
C281 H287 0.959 . S
C281 H288 0.961 . S
C281 H289 0.960 . S
C282 C280 1.381 . S
C282 C283 1.394 . S
C282 H290 0.930 . S
C283 C282 1.394 . S
C283 C284 1.383 . S
C283 H291 0.929 . S
C284 C283 1.383 . S
C284 C285 1.377 . S
C285 H269 0.930 . S
C285 C284 1.377 . S
C285 C286 1.379 . S
C286 H270 0.931 . S
C286 C280 1.383 . S
C286 C285 1.379 . S
H287 C281 0.959 . S
H288 C281 0.961 . S
H289 C281 0.960 . S
H290 C282 0.930 . S
H291 C283 0.929 . S
H292 C300 0.929 . S
H293 C302 0.930 . S
H294 C304 0.930 . S
H295 C307 0.929 . S
H296 C310 0.930 . S
H297 C312 0.960 . S
H298 C312 0.960 . S
H299 C312 0.960 . S
C300 H292 0.929 . S
C300 C301 1.377 1_565 S
C300 C302 1.384 . S
C301 C300 1.377 1_545 S
C301 C307 1.390 . S
C302 H293 0.930 . S
C302 C300 1.384 . S
C302 C303 1.372 . S
C303 C302 1.372 . S
C303 C304 1.400 1_565 S
C303 C308 1.490 . S
C304 H294 0.930 . S
C304 C303 1.400 1_545 S
C304 C307 1.386 . S
H305 C321 0.930 . S
H306 C322 0.931 . S
C307 H295 0.929 . S
C307 C301 1.390 . S
C307 C304 1.386 . S
C308 C303 1.490 . S
C308 C310 1.395 . S
C308 C311 1.403 . S
H309 C315 0.930 . S
C310 H296 0.930 . S
C310 C308 1.395 . S
C310 C313 1.403 . S
C311 C308 1.403 . S
C311 C312 1.524 1_565 S
C311 C315 1.400 . S
C312 H297 0.960 . S
C312 H298 0.960 . S
C312 H299 0.960 . S
C312 C311 1.524 1_545 S
C313 C310 1.403 . S
C313 C314 1.392 . S
C313 C317 1.495 . S
C314 C313 1.392 . S
C314 C315 1.385 . S
C314 C316 1.478 . S
C315 H309 0.930 . S
C315 C311 1.400 . S
C315 C314 1.385 . S
C316 C314 1.478 . S
C316 C318 1.381 . S
C316 C322 1.383 . S
C317 C313 1.495 . S
C317 H323 0.959 . S
C317 H324 0.961 . S
C317 H325 0.960 . S
C318 C316 1.381 . S
C318 C319 1.394 . S
C318 H326 0.930 . S
C319 C318 1.394 . S
C319 C320 1.383 . S
C319 H327 0.929 . S
C320 C319 1.383 . S
C320 C321 1.377 . S
C321 H305 0.930 . S
C321 C320 1.377 . S
C321 C322 1.379 . S
C322 H306 0.931 . S
C322 C316 1.383 . S
C322 C321 1.379 . S
H323 C317 0.959 . S
H324 C317 0.961 . S
H325 C317 0.960 . S
H326 C318 0.930 . S
H327 C319 0.929 . S
H328 C336 0.929 . S
H329 C338 0.930 . S
H330 C340 0.930 . S
H331 C343 0.929 . S
H332 C346 0.930 . S
H333 C348 0.960 . S
H334 C348 0.960 . S
H335 C348 0.960 . S
C336 H328 0.929 . S
C336 C337 1.377 . S
C336 C338 1.384 . S
C337 C336 1.377 . S
C337 C343 1.390 . S
C338 H329 0.930 . S
C338 C336 1.384 . S
C338 C339 1.372 . S
C339 C338 1.372 . S
C339 C340 1.400 . S
C339 C344 1.490 . S
C340 H330 0.930 . S
C340 C339 1.400 . S
C340 C343 1.386 . S
H341 C357 0.930 . S
H342 C358 0.931 . S
C343 H331 0.929 . S
C343 C337 1.390 . S
C343 C340 1.386 . S
C344 C339 1.490 . S
C344 C346 1.395 . S
C344 C347 1.403 . S
H345 C351 0.930 . S
C346 H332 0.930 . S
C346 C344 1.395 . S
C346 C349 1.403 . S
C347 C344 1.403 . S
C347 C348 1.524 . S
C347 C351 1.400 . S
C348 H333 0.960 . S
C348 H334 0.960 . S
C348 H335 0.960 . S
C348 C347 1.524 . S
C349 C346 1.403 . S
C349 C350 1.392 . S
C349 C353 1.495 . S
C350 C349 1.392 . S
C350 C351 1.385 . S
C350 C352 1.478 . S
C351 H345 0.930 . S
C351 C347 1.400 . S
C351 C350 1.385 . S
C352 C350 1.478 . S
C352 C354 1.381 . S
C352 C358 1.383 . S
C353 C349 1.495 . S
C353 H359 0.959 . S
C353 H360 0.961 . S
C353 H361 0.960 . S
C354 C352 1.381 . S
C354 C355 1.394 . S
C354 H362 0.930 . S
C355 C354 1.394 . S
C355 C356 1.383 . S
C355 H363 0.929 . S
C356 C355 1.383 . S
C356 C357 1.377 . S
C357 H341 0.930 . S
C357 C356 1.377 . S
C357 C358 1.379 . S
C358 H342 0.931 . S
C358 C352 1.383 . S
C358 C357 1.379 . S
H359 C353 0.959 . S
H360 C353 0.961 . S
H361 C353 0.960 . S
H362 C354 0.930 . S
H363 C355 0.929 . S
H364 C372 0.929 . S
H365 C374 0.930 . S
H366 C376 0.930 . S
H367 C379 0.929 . S
H368 C382 0.930 . S
H369 C384 0.960 . S
H370 C384 0.960 . S
H371 C384 0.960 . S
C372 H364 0.929 . S
C372 C373 1.377 . S
C372 C374 1.384 . S
C373 C372 1.377 . S
C373 C379 1.390 . S
C374 H365 0.930 . S
C374 C372 1.384 . S
C374 C375 1.372 . S
C375 C374 1.372 . S
C375 C376 1.400 . S
C375 C380 1.490 . S
C376 H366 0.930 . S
C376 C375 1.400 . S
C376 C379 1.386 . S
H377 C393 0.930 . S
H378 C394 0.931 . S
C379 H367 0.929 . S
C379 C373 1.390 . S
C379 C376 1.386 . S
C380 C375 1.490 . S
C380 C382 1.395 . S
C380 C383 1.403 . S
H381 C387 0.930 . S
C382 H368 0.930 . S
C382 C380 1.395 . S
C382 C385 1.403 . S
C383 C380 1.403 . S
C383 C384 1.524 . S
C383 C387 1.400 . S
C384 H369 0.960 . S
C384 H370 0.960 . S
C384 H371 0.960 . S
C384 C383 1.524 . S
C385 C382 1.403 . S
C385 C386 1.392 . S
C385 C389 1.495 . S
C386 C385 1.392 . S
C386 C387 1.385 . S
C386 C388 1.478 . S
C387 H381 0.930 . S
C387 C383 1.400 . S
C387 C386 1.385 . S
C388 C386 1.478 . S
C388 C390 1.381 . S
C388 C394 1.383 . S
C389 C385 1.495 . S
C389 H395 0.959 . S
C389 H396 0.961 . S
C389 H397 0.960 . S
C390 C388 1.381 . S
C390 C391 1.394 . S
C390 H398 0.930 . S
C391 C390 1.394 . S
C391 C392 1.383 . S
C391 H399 0.929 . S
C392 C391 1.383 . S
C392 C393 1.377 . S
C393 H377 0.930 . S
C393 C392 1.377 . S
C393 C394 1.379 . S
C394 H378 0.931 . S
C394 C388 1.383 . S
C394 C393 1.379 . S
H395 C389 0.959 . S
H396 C389 0.961 . S
H397 C389 0.960 . S
H398 C390 0.930 . S
H399 C391 0.929 . S
H400 C408 0.929 . S
H401 C410 0.930 . S
H402 C412 0.930 . S
H403 C415 0.929 . S
H404 C418 0.930 . S
H405 C420 0.960 . S
H406 C420 0.960 . S
H407 C420 0.960 . S
C408 H400 0.929 . S
C408 C409 1.377 . S
C408 C410 1.384 . S
C409 C408 1.377 . S
C409 C415 1.390 . S
C410 H401 0.930 . S
C410 C408 1.384 . S
C410 C411 1.372 . S
C411 C410 1.372 . S
C411 C412 1.400 . S
C411 C416 1.490 . S
C412 H402 0.930 . S
C412 C411 1.400 . S
C412 C415 1.386 . S
H413 C429 0.930 . S
H414 C430 0.931 . S
C415 H403 0.929 . S
C415 C409 1.390 . S
C415 C412 1.386 . S
C416 C411 1.490 . S
C416 C418 1.395 . S
C416 C419 1.403 . S
H417 C423 0.930 . S
C418 H404 0.930 . S
C418 C416 1.395 . S
C418 C421 1.403 . S
C419 C416 1.403 . S
C419 C420 1.524 . S
C419 C423 1.400 . S
C420 H405 0.960 . S
C420 H406 0.960 . S
C420 H407 0.960 . S
C420 C419 1.524 . S
C421 C418 1.403 . S
C421 C422 1.392 . S
C421 C425 1.495 . S
C422 C421 1.392 . S
C422 C423 1.385 . S
C422 C424 1.478 . S
C423 H417 0.930 . S
C423 C419 1.400 . S
C423 C422 1.385 . S
C424 C422 1.478 . S
C424 C426 1.381 . S
C424 C430 1.383 . S
C425 C421 1.495 . S
C425 H431 0.959 . S
C425 H432 0.961 . S
C425 H433 0.960 . S
C426 C424 1.381 . S
C426 C427 1.394 . S
C426 H434 0.930 . S
C427 C426 1.394 . S
C427 C428 1.383 . S
C427 H435 0.929 . S
C428 C427 1.383 . S
C428 C429 1.377 . S
C429 H413 0.930 . S
C429 C428 1.377 . S
C429 C430 1.379 . S
C430 H414 0.931 . S
C430 C424 1.383 . S
C430 C429 1.379 . S
H431 C425 0.959 . S
H432 C425 0.961 . S
H433 C425 0.960 . S
H434 C426 0.930 . S
H435 C427 0.929 . S
H436 C444 0.929 . S
H437 C446 0.930 . S
H438 C448 0.930 . S
H439 C451 0.929 . S
H440 C454 0.930 . S
H441 C456 0.960 . S
H442 C456 0.960 . S
H443 C456 0.960 . S
C444 H436 0.929 . S
C444 C445 1.377 . S
C444 C446 1.384 . S
C445 C444 1.377 . S
C445 C451 1.390 . S
C446 H437 0.930 . S
C446 C444 1.384 . S
C446 C447 1.372 . S
C447 C446 1.372 . S
C447 C448 1.400 . S
C447 C452 1.490 . S
C448 H438 0.930 . S
C448 C447 1.400 . S
C448 C451 1.386 . S
H449 C465 0.930 . S
H450 C466 0.931 . S
C451 H439 0.929 . S
C451 C445 1.390 . S
C451 C448 1.386 . S
C452 C447 1.490 . S
C452 C454 1.395 . S
C452 C455 1.403 . S
H453 C459 0.930 . S
C454 H440 0.930 . S
C454 C452 1.395 . S
C454 C457 1.403 . S
C455 C452 1.403 . S
C455 C456 1.524 . S
C455 C459 1.400 . S
C456 H441 0.960 . S
C456 H442 0.960 . S
C456 H443 0.960 . S
C456 C455 1.524 . S
C457 C454 1.403 . S
C457 C458 1.392 . S
C457 C461 1.495 . S
C458 C457 1.392 . S
C458 C459 1.385 . S
C458 C460 1.478 . S
C459 H453 0.930 . S
C459 C455 1.400 . S
C459 C458 1.385 . S
C460 C458 1.478 . S
C460 C462 1.381 . S
C460 C466 1.383 . S
C461 C457 1.495 . S
C461 H467 0.959 . S
C461 H468 0.961 . S
C461 H469 0.960 . S
C462 C460 1.381 . S
C462 C463 1.394 . S
C462 H470 0.930 . S
C463 C462 1.394 . S
C463 C464 1.383 . S
C463 H471 0.929 . S
C464 C463 1.383 . S
C464 C465 1.377 . S
C465 H449 0.930 . S
C465 C464 1.377 . S
C465 C466 1.379 . S
C466 H450 0.931 . S
C466 C460 1.383 . S
C466 C465 1.379 . S
H467 C461 0.959 . S
H468 C461 0.961 . S
H469 C461 0.960 . S
H470 C462 0.930 . S
H471 C463 0.929 . S
H472 C480 0.929 . S
H473 C482 0.930 . S
H474 C484 0.930 . S
H475 C487 0.929 . S
H476 C490 0.930 . S
H477 C492 0.960 . S
H478 C492 0.960 . S
H479 C492 0.960 . S
C480 H472 0.929 . S
C480 C481 1.377 . S
C480 C482 1.384 . S
C481 C480 1.377 . S
C481 C487 1.390 . S
C482 H473 0.930 . S
C482 C480 1.384 . S
C482 C483 1.372 . S
C483 C482 1.372 . S
C483 C484 1.400 . S
C483 C488 1.490 . S
C484 H474 0.930 . S
C484 C483 1.400 . S
C484 C487 1.386 . S
H485 C501 0.930 . S
H486 C502 0.931 . S
C487 H475 0.929 . S
C487 C481 1.390 . S
C487 C484 1.386 . S
C488 C483 1.490 . S
C488 C490 1.395 . S
C488 C491 1.403 . S
H489 C495 0.930 . S
C490 H476 0.930 . S
C490 C488 1.395 . S
C490 C493 1.403 . S
C491 C488 1.403 . S
C491 C492 1.524 . S
C491 C495 1.400 . S
C492 H477 0.960 . S
C492 H478 0.960 . S
C492 H479 0.960 . S
C492 C491 1.524 . S
C493 C490 1.403 . S
C493 C494 1.392 . S
C493 C497 1.495 . S
C494 C493 1.392 . S
C494 C495 1.385 . S
C494 C496 1.478 . S
C495 H489 0.930 . S
C495 C491 1.400 . S
C495 C494 1.385 . S
C496 C494 1.478 . S
C496 C498 1.381 . S
C496 C502 1.383 . S
C497 C493 1.495 . S
C497 H503 0.959 . S
C497 H504 0.961 . S
C497 H505 0.960 . S
C498 C496 1.381 . S
C498 C499 1.394 . S
C498 H506 0.930 . S
C499 C498 1.394 . S
C499 C500 1.383 . S
C499 H507 0.929 . S
C500 C499 1.383 . S
C500 C501 1.377 . S
C501 H485 0.930 . S
C501 C500 1.377 . S
C501 C502 1.379 . S
C502 H486 0.931 . S
C502 C496 1.383 . S
C502 C501 1.379 . S
H503 C497 0.959 . S
H504 C497 0.961 . S
H505 C497 0.960 . S
H506 C498 0.930 . S
H507 C499 0.929 . S
H508 C516 0.929 . S
H509 C518 0.930 . S
H510 C520 0.930 . S
H511 C523 0.929 . S
H512 C526 0.930 . S
H513 C528 0.960 . S
H514 C528 0.960 . S
H515 C528 0.960 . S
C516 H508 0.929 . S
C516 C517 1.377 . S
C516 C518 1.384 . S
C517 C516 1.377 . S
C517 C523 1.390 . S
C518 H509 0.930 . S
C518 C516 1.384 . S
C518 C519 1.372 . S
C519 C518 1.372 . S
C519 C520 1.400 . S
C519 C524 1.490 . S
C520 H510 0.930 . S
C520 C519 1.400 . S
C520 C523 1.386 . S
H521 C537 0.930 . S
H522 C538 0.931 . S
C523 H511 0.929 . S
C523 C517 1.390 . S
C523 C520 1.386 . S
C524 C519 1.490 . S
C524 C526 1.395 . S
C524 C527 1.403 . S
H525 C531 0.930 . S
C526 H512 0.930 . S
C526 C524 1.395 . S
C526 C529 1.403 . S
C527 C524 1.403 . S
C527 C528 1.524 . S
C527 C531 1.400 . S
C528 H513 0.960 . S
C528 H514 0.960 . S
C528 H515 0.960 . S
C528 C527 1.524 . S
C529 C526 1.403 . S
C529 C530 1.392 . S
C529 C533 1.495 . S
C530 C529 1.392 . S
C530 C531 1.385 . S
C530 C532 1.478 . S
C531 H525 0.930 . S
C531 C527 1.400 . S
C531 C530 1.385 . S
C532 C530 1.478 . S
C532 C534 1.381 . S
C532 C538 1.383 . S
C533 C529 1.495 . S
C533 H539 0.959 . S
C533 H540 0.961 . S
C533 H541 0.960 . S
C534 C532 1.381 . S
C534 C535 1.394 . S
C534 H542 0.930 . S
C535 C534 1.394 . S
C535 C536 1.383 . S
C535 H543 0.929 . S
C536 C535 1.383 . S
C536 C537 1.377 . S
C537 H521 0.930 . S
C537 C536 1.377 . S
C537 C538 1.379 . S
C538 H522 0.931 . S
C538 C532 1.383 . S
C538 C537 1.379 . S
H539 C533 0.959 . S
H540 C533 0.961 . S
H541 C533 0.960 . S
H542 C534 0.930 . S
H543 C535 0.929 . S
H544 C552 0.929 . S
H545 C554 0.930 . S
H546 C556 0.930 . S
H547 C559 0.929 . S
H548 C562 0.930 . S
H549 C564 0.960 . S
H550 C564 0.960 . S
H551 C564 0.960 . S
C552 H544 0.929 . S
C552 C553 1.377 . S
C552 C554 1.384 . S
C553 C552 1.377 . S
C553 C559 1.390 . S
C554 H545 0.930 . S
C554 C552 1.384 . S
C554 C555 1.372 . S
C555 C554 1.372 . S
C555 C556 1.400 . S
C555 C560 1.490 . S
C556 H546 0.930 . S
C556 C555 1.400 . S
C556 C559 1.386 . S
H557 C573 0.930 . S
H558 C574 0.931 . S
C559 H547 0.929 . S
C559 C553 1.390 . S
C559 C556 1.386 . S
C560 C555 1.490 . S
C560 C562 1.395 . S
C560 C563 1.403 . S
H561 C567 0.930 . S
C562 H548 0.930 . S
C562 C560 1.395 . S
C562 C565 1.403 . S
C563 C560 1.403 . S
C563 C564 1.524 . S
C563 C567 1.400 . S
C564 H549 0.960 . S
C564 H550 0.960 . S
C564 H551 0.960 . S
C564 C563 1.524 . S
C565 C562 1.403 . S
C565 C566 1.392 . S
C565 C569 1.495 1_545 S
C566 C565 1.392 . S
C566 C567 1.385 . S
C566 C568 1.478 . S
C567 H561 0.930 . S
C567 C563 1.400 . S
C567 C566 1.385 . S
C568 C566 1.478 . S
C568 C570 1.381 . S
C568 C574 1.383 1_545 S
C569 C565 1.495 1_565 S
C569 H575 0.959 . S
C569 H576 0.961 . S
C569 H577 0.960 . S
C570 C568 1.381 . S
C570 C571 1.394 1_545 S
C570 H578 0.930 . S
C571 C570 1.394 1_565 S
C571 C572 1.383 . S
C571 H579 0.929 . S
C572 C571 1.383 . S
C572 C573 1.377 . S
C573 H557 0.930 . S
C573 C572 1.377 . S
C573 C574 1.379 . S
C574 H558 0.931 . S
C574 C568 1.383 1_565 S
C574 C573 1.379 . S
H575 C569 0.959 . S
H576 C569 0.961 . S
H577 C569 0.960 . S
H578 C570 0.930 . S
H579 C571 0.929 . S
H580 C588 0.929 . S
H581 C590 0.930 . S
H582 C592 0.930 . S
H583 C595 0.929 . S
H584 C598 0.930 . S
H585 C600 0.960 . S
H586 C600 0.960 . S
H587 C600 0.960 . S
C588 H580 0.929 . S
C588 C589 1.377 1_565 S
C588 C590 1.384 . S
C589 C588 1.377 1_545 S
C589 C595 1.390 . S
C590 H581 0.930 . S
C590 C588 1.384 . S
C590 C591 1.372 . S
C591 C590 1.372 . S
C591 C592 1.400 1_565 S
C591 C596 1.490 . S
C592 H582 0.930 . S
C592 C591 1.400 1_545 S
C592 C595 1.386 . S
H593 C609 0.930 . S
H594 C610 0.931 . S
C595 H583 0.929 . S
C595 C589 1.390 . S
C595 C592 1.386 . S
C596 C591 1.490 . S
C596 C598 1.395 . S
C596 C599 1.403 . S
H597 C603 0.930 . S
C598 H584 0.930 . S
C598 C596 1.395 . S
C598 C601 1.403 . S
C599 C596 1.403 . S
C599 C600 1.524 1_565 S
C599 C603 1.400 . S
C600 H585 0.960 . S
C600 H586 0.960 . S
C600 H587 0.960 . S
C600 C599 1.524 1_545 S
C601 C598 1.403 . S
C601 C602 1.392 . S
C601 C605 1.495 . S
C602 C601 1.392 . S
C602 C603 1.385 . S
C602 C604 1.478 . S
C603 H597 0.930 . S
C603 C599 1.400 . S
C603 C602 1.385 . S
C604 C602 1.478 . S
C604 C606 1.381 . S
C604 C610 1.383 . S
C605 C601 1.495 . S
C605 H611 0.959 . S
C605 H612 0.961 . S
C605 H613 0.960 . S
C606 C604 1.381 . S
C606 C607 1.394 . S
C606 H614 0.930 . S
C607 C606 1.394 . S
C607 C608 1.383 . S
C607 H615 0.929 . S
C608 C607 1.383 . S
C608 C609 1.377 . S
C609 H593 0.930 . S
C609 C608 1.377 . S
C609 C610 1.379 . S
C610 H594 0.931 . S
C610 C604 1.383 . S
C610 C609 1.379 . S
H611 C605 0.959 . S
H612 C605 0.961 . S
H613 C605 0.960 . S
H614 C606 0.930 . S
H615 C607 0.929 . S
H616 C624 0.929 . S
H617 C626 0.930 . S
H618 C628 0.930 . S
H619 C631 0.929 . S
H620 C634 0.930 . S
H621 C636 0.960 . S
H622 C636 0.960 . S
H623 C636 0.960 . S
C624 H616 0.929 . S
C624 C625 1.377 . S
C624 C626 1.384 . S
C625 C624 1.377 . S
C625 C631 1.390 . S
C626 H617 0.930 . S
C626 C624 1.384 . S
C626 C627 1.372 . S
C627 C626 1.372 . S
C627 C628 1.400 . S
C627 C632 1.490 . S
C628 H618 0.930 . S
C628 C627 1.400 . S
C628 C631 1.386 . S
H629 C645 0.930 . S
H630 C646 0.931 . S
C631 H619 0.929 . S
C631 C625 1.390 . S
C631 C628 1.386 . S
C632 C627 1.490 . S
C632 C634 1.395 . S
C632 C635 1.403 . S
H633 C639 0.930 . S
C634 H620 0.930 . S
C634 C632 1.395 . S
C634 C637 1.403 . S
C635 C632 1.403 . S
C635 C636 1.524 . S
C635 C639 1.400 . S
C636 H621 0.960 . S
C636 H622 0.960 . S
C636 H623 0.960 . S
C636 C635 1.524 . S
C637 C634 1.403 . S
C637 C638 1.392 . S
C637 C641 1.495 . S
C638 C637 1.392 . S
C638 C639 1.385 . S
C638 C640 1.478 . S
C639 H633 0.930 . S
C639 C635 1.400 . S
C639 C638 1.385 . S
C640 C638 1.478 . S
C640 C642 1.381 . S
C640 C646 1.383 . S
C641 C637 1.495 . S
C641 H647 0.959 . S
C641 H648 0.961 . S
C641 H649 0.960 . S
C642 C640 1.381 . S
C642 C643 1.394 . S
C642 H650 0.930 . S
C643 C642 1.394 . S
C643 C644 1.383 . S
C643 H651 0.929 . S
C644 C643 1.383 . S
C644 C645 1.377 . S
C645 H629 0.930 . S
C645 C644 1.377 . S
C645 C646 1.379 . S
C646 H630 0.931 . S
C646 C640 1.383 . S
C646 C645 1.379 . S
H647 C641 0.959 . S
H648 C641 0.961 . S
H649 C641 0.960 . S
H650 C642 0.930 . S
H651 C643 0.929 . S
H652 C660 0.929 . S
H653 C662 0.930 . S
H654 C664 0.930 . S
H655 C667 0.929 . S
H656 C670 0.930 . S
H657 C672 0.960 . S
H658 C672 0.960 . S
H659 C672 0.960 . S
C660 H652 0.929 . S
C660 C661 1.377 . S
C660 C662 1.384 . S
C661 C660 1.377 . S
C661 C667 1.390 . S
C662 H653 0.930 . S
C662 C660 1.384 . S
C662 C663 1.372 . S
C663 C662 1.372 . S
C663 C664 1.400 . S
C663 C668 1.490 . S
C664 H654 0.930 . S
C664 C663 1.400 . S
C664 C667 1.386 . S
H665 C681 0.930 . S
H666 C682 0.931 . S
C667 H655 0.929 . S
C667 C661 1.390 . S
C667 C664 1.386 . S
C668 C663 1.490 . S
C668 C670 1.395 . S
C668 C671 1.403 . S
H669 C675 0.930 . S
C670 H656 0.930 . S
C670 C668 1.395 . S
C670 C673 1.403 . S
C671 C668 1.403 . S
C671 C672 1.524 . S
C671 C675 1.400 . S
C672 H657 0.960 . S
C672 H658 0.960 . S
C672 H659 0.960 . S
C672 C671 1.524 . S
C673 C670 1.403 . S
C673 C674 1.392 . S
C673 C677 1.495 . S
C674 C673 1.392 . S
C674 C675 1.385 . S
C674 C676 1.478 . S
C675 H669 0.930 . S
C675 C671 1.400 . S
C675 C674 1.385 . S
C676 C674 1.478 . S
C676 C678 1.381 . S
C676 C682 1.383 . S
C677 C673 1.495 . S
C677 H683 0.959 . S
C677 H684 0.961 . S
C677 H685 0.960 . S
C678 C676 1.381 . S
C678 C679 1.394 . S
C678 H686 0.930 . S
C679 C678 1.394 . S
C679 C680 1.383 . S
C679 H687 0.929 . S
C680 C679 1.383 . S
C680 C681 1.377 . S
C681 H665 0.930 . S
C681 C680 1.377 . S
C681 C682 1.379 . S
C682 H666 0.931 . S
C682 C676 1.383 . S
C682 C681 1.379 . S
H683 C677 0.959 . S
H684 C677 0.961 . S
H685 C677 0.960 . S
H686 C678 0.930 . S
H687 C679 0.929 . S
H688 C696 0.929 . S
H689 C698 0.930 . S
H690 C700 0.930 . S
H691 C703 0.929 . S
H692 C706 0.930 . S
H693 C708 0.960 . S
H694 C708 0.960 . S
H695 C708 0.960 . S
C696 H688 0.929 . S
C696 C697 1.377 . S
C696 C698 1.384 . S
C697 C696 1.377 . S
C697 C703 1.390 . S
C698 H689 0.930 . S
C698 C696 1.384 . S
C698 C699 1.372 . S
C699 C698 1.372 . S
C699 C700 1.400 . S
C699 C704 1.490 . S
C700 H690 0.930 . S
C700 C699 1.400 . S
C700 C703 1.386 . S
H701 C717 0.930 . S
H702 C718 0.931 . S
C703 H691 0.929 . S
C703 C697 1.390 . S
C703 C700 1.386 . S
C704 C699 1.490 . S
C704 C706 1.395 . S
C704 C707 1.403 . S
H705 C711 0.930 . S
C706 H692 0.930 . S
C706 C704 1.395 . S
C706 C709 1.403 . S
C707 C704 1.403 . S
C707 C708 1.524 . S
C707 C711 1.400 . S
C708 H693 0.960 . S
C708 H694 0.960 . S
C708 H695 0.960 . S
C708 C707 1.524 . S
C709 C706 1.403 . S
C709 C710 1.392 . S
C709 C713 1.495 . S
C710 C709 1.392 . S
C710 C711 1.385 . S
C710 C712 1.478 . S
C711 H705 0.930 . S
C711 C707 1.400 . S
C711 C710 1.385 . S
C712 C710 1.478 . S
C712 C714 1.381 . S
C712 C718 1.383 . S
C713 C709 1.495 . S
C713 H719 0.959 . S
C713 H720 0.961 . S
C713 H721 0.960 . S
C714 C712 1.381 . S
C714 C715 1.394 . S
C714 H722 0.930 . S
C715 C714 1.394 . S
C715 C716 1.383 . S
C715 H723 0.929 . S
C716 C715 1.383 . S
C716 C717 1.377 . S
C717 H701 0.930 . S
C717 C716 1.377 . S
C717 C718 1.379 . S
C718 H702 0.931 . S
C718 C712 1.383 . S
C718 C717 1.379 . S
H719 C713 0.959 . S
H720 C713 0.961 . S
H721 C713 0.960 . S
H722 C714 0.930 . S
H723 C715 0.929 . S
H724 C732 0.929 . S
H725 C734 0.930 . S
H726 C736 0.930 . S
H727 C739 0.929 . S
H728 C742 0.930 . S
H729 C744 0.960 . S
H730 C744 0.960 . S
H731 C744 0.960 . S
C732 H724 0.929 . S
C732 C733 1.377 . S
C732 C734 1.384 . S
C733 C732 1.377 . S
C733 C739 1.390 . S
C734 H725 0.930 . S
C734 C732 1.384 . S
C734 C735 1.372 . S
C735 C734 1.372 . S
C735 C736 1.400 . S
C735 C740 1.490 . S
C736 H726 0.930 . S
C736 C735 1.400 . S
C736 C739 1.386 . S
H737 C753 0.930 . S
H738 C754 0.931 . S
C739 H727 0.929 . S
C739 C733 1.390 . S
C739 C736 1.386 . S
C740 C735 1.490 . S
C740 C742 1.395 . S
C740 C743 1.403 . S
H741 C747 0.930 . S
C742 H728 0.930 . S
C742 C740 1.395 . S
C742 C745 1.403 . S
C743 C740 1.403 . S
C743 C744 1.524 . S
C743 C747 1.400 . S
C744 H729 0.960 . S
C744 H730 0.960 . S
C744 H731 0.960 . S
C744 C743 1.524 . S
C745 C742 1.403 . S
C745 C746 1.392 . S
C745 C749 1.495 . S
C746 C745 1.392 . S
C746 C747 1.385 . S
C746 C748 1.478 . S
C747 H741 0.930 . S
C747 C743 1.400 . S
C747 C746 1.385 . S
C748 C746 1.478 . S
C748 C750 1.381 . S
C748 C754 1.383 . S
C749 C745 1.495 . S
C749 H755 0.959 . S
C749 H756 0.961 . S
C749 H757 0.960 . S
C750 C748 1.381 . S
C750 C751 1.394 . S
C750 H758 0.930 . S
C751 C750 1.394 . S
C751 C752 1.383 . S
C751 H759 0.929 . S
C752 C751 1.383 . S
C752 C753 1.377 . S
C753 H737 0.930 . S
C753 C752 1.377 . S
C753 C754 1.379 . S
C754 H738 0.931 . S
C754 C748 1.383 . S
C754 C753 1.379 . S
H755 C749 0.959 . S
H756 C749 0.961 . S
H757 C749 0.960 . S
H758 C750 0.930 . S
H759 C751 0.929 . S
H760 C768 0.929 . S
H761 C770 0.930 . S
H762 C772 0.930 . S
H763 C775 0.929 . S
H764 C778 0.930 . S
H765 C780 0.960 . S
H766 C780 0.960 . S
H767 C780 0.960 . S
C768 H760 0.929 . S
C768 C769 1.377 . S
C768 C770 1.384 . S
C769 C768 1.377 . S
C769 C775 1.390 . S
C770 H761 0.930 . S
C770 C768 1.384 . S
C770 C771 1.372 . S
C771 C770 1.372 . S
C771 C772 1.400 . S
C771 C776 1.490 . S
C772 H762 0.930 . S
C772 C771 1.400 . S
C772 C775 1.386 . S
H773 C789 0.930 . S
H774 C790 0.931 . S
C775 H763 0.929 . S
C775 C769 1.390 . S
C775 C772 1.386 . S
C776 C771 1.490 . S
C776 C778 1.395 . S
C776 C779 1.403 . S
H777 C783 0.930 . S
C778 H764 0.930 . S
C778 C776 1.395 . S
C778 C781 1.403 . S
C779 C776 1.403 . S
C779 C780 1.524 . S
C779 C783 1.400 . S
C780 H765 0.960 . S
C780 H766 0.960 . S
C780 H767 0.960 . S
C780 C779 1.524 . S
C781 C778 1.403 . S
C781 C782 1.392 . S
C781 C785 1.495 . S
C782 C781 1.392 . S
C782 C783 1.385 . S
C782 C784 1.478 . S
C783 H777 0.930 . S
C783 C779 1.400 . S
C783 C782 1.385 . S
C784 C782 1.478 . S
C784 C786 1.381 . S
C784 C790 1.383 . S
C785 C781 1.495 . S
C785 H791 0.959 . S
C785 H792 0.961 . S
C785 H793 0.960 . S
C786 C784 1.381 . S
C786 C787 1.394 . S
C786 H794 0.930 . S
C787 C786 1.394 . S
C787 C788 1.383 . S
C787 H795 0.929 . S
C788 C787 1.383 . S
C788 C789 1.377 . S
C789 H773 0.930 . S
C789 C788 1.377 . S
C789 C790 1.379 . S
C790 H774 0.931 . S
C790 C784 1.383 . S
C790 C789 1.379 . S
H791 C785 0.959 . S
H792 C785 0.961 . S
H793 C785 0.960 . S
H794 C786 0.930 . S
H795 C787 0.929 . S
H796 C804 0.929 . S
H797 C806 0.930 . S
H798 C808 0.930 . S
H799 C811 0.929 1_565 S
H800 C814 0.930 . S
H801 C816 0.960 . S
H802 C816 0.960 . S
H803 C816 0.960 . S
C804 H796 0.929 . S
C804 C805 1.377 . S
C804 C806 1.384 . S
C805 C804 1.377 . S
C805 C811 1.390 . S
C806 H797 0.930 . S
C806 C804 1.384 . S
C806 C807 1.372 . S
C807 C806 1.372 . S
C807 C808 1.400 . S
C807 C812 1.490 . S
C808 H798 0.930 . S
C808 C807 1.400 . S
C808 C811 1.386 . S
H809 C825 0.930 . S
H810 C826 0.931 . S
C811 H799 0.929 1_545 S
C811 C805 1.390 . S
C811 C808 1.386 . S
C812 C807 1.490 . S
C812 C814 1.395 . S
C812 C815 1.403 . S
H813 C819 0.930 . S
C814 H800 0.930 . S
C814 C812 1.395 . S
C814 C817 1.403 . S
C815 C812 1.403 . S
C815 C816 1.524 . S
C815 C819 1.400 . S
C816 H801 0.960 . S
C816 H802 0.960 . S
C816 H803 0.960 . S
C816 C815 1.524 . S
C817 C814 1.403 . S
C817 C818 1.392 . S
C817 C821 1.495 . S
C818 C817 1.392 . S
C818 C819 1.385 . S
C818 C820 1.478 . S
C819 H813 0.930 . S
C819 C815 1.400 . S
C819 C818 1.385 . S
C820 C818 1.478 . S
C820 C822 1.381 . S
C820 C826 1.383 . S
C821 C817 1.495 . S
C821 H827 0.959 . S
C821 H828 0.961 . S
C821 H829 0.960 . S
C822 C820 1.381 . S
C822 C823 1.394 . S
C822 H830 0.930 . S
C823 C822 1.394 . S
C823 C824 1.383 . S
C823 H831 0.929 . S
C824 C823 1.383 . S
C824 C825 1.377 . S
C825 H809 0.930 . S
C825 C824 1.377 . S
C825 C826 1.379 . S
C826 H810 0.931 . S
C826 C820 1.383 . S
C826 C825 1.379 . S
H827 C821 0.959 . S
H828 C821 0.961 . S
H829 C821 0.960 . S
H830 C822 0.930 . S
H831 C823 0.929 . S
H832 C840 0.929 . S
H833 C842 0.930 . S
H834 C844 0.930 . S
H835 C847 0.920 1_655 S
H836 C850 0.932 . S
H837 C852 0.960 . S
H838 C852 0.960 . S
H839 C852 0.960 1_554 S
C840 H832 0.929 . S
C840 C841 1.379 . S
C840 C842 1.384 . S
C841 C840 1.379 . S
C841 C847 1.401 1_556 S
C842 H833 0.930 . S
C842 C840 1.384 . S
C842 C843 1.408 . S
C843 C842 1.408 . S
C843 C844 1.364 1_456 S
C843 C848 1.490 . S
C844 H834 0.930 . S
C844 C843 1.364 1_654 S
C844 C847 1.383 1_655 S
H845 C861 0.930 . S
H846 C862 0.931 . S
C847 H835 0.920 1_455 S
C847 C841 1.401 1_554 S
C847 C844 1.383 1_455 S
C848 C843 1.490 . S
C848 C850 1.392 1_556 S
C848 C851 1.407 1_455 S
H849 C855 0.930 . S
C850 H836 0.932 . S
C850 C848 1.392 1_554 S
C850 C853 1.403 . S
C851 C848 1.407 1_655 S
C851 C852 1.524 . S
C851 C855 1.400 . S
C852 H837 0.960 . S
C852 H838 0.960 . S
C852 H839 0.960 1_556 S
C852 C851 1.524 . S
C853 C850 1.403 . S
C853 C854 1.391 1_554 S
C853 C857 1.501 . S
C854 C853 1.391 1_556 S
C854 C855 1.385 1_455 S
C854 C856 1.477 1_456 S
C855 H849 0.930 . S
C855 C851 1.400 . S
C855 C854 1.385 1_655 S
C856 C854 1.477 1_654 S
C856 C858 1.365 1_654 S
C856 C862 1.398 . S
C857 C853 1.501 . S
C857 H863 0.959 . S
C857 H864 0.961 . S
C857 H865 0.960 1_554 S
C858 C856 1.365 1_456 S
C858 C859 1.393 1_455 S
C858 H866 0.930 . S
C859 C858 1.393 1_655 S
C859 C860 1.370 1_556 S
C859 H867 0.928 1_655 S
C860 C859 1.370 1_554 S
C860 C861 1.393 . S
C861 H845 0.930 . S
C861 C860 1.393 . S
C861 C862 1.379 . S
C862 H846 0.931 . S
C862 C856 1.398 . S
C862 C861 1.379 . S
H863 C857 0.959 . S
H864 C857 0.961 . S
H865 C857 0.960 1_556 S
H866 C858 0.930 . S
H867 C859 0.928 1_455 S
H868 C876 0.929 . S
H869 C878 0.930 . S
H870 C880 0.930 . S
H871 C883 0.929 . S
H872 C886 0.930 . S
H873 C888 0.960 . S
H874 C888 0.960 . S
H875 C888 0.960 . S
C876 H868 0.929 . S
C876 C877 1.377 . S
C876 C878 1.384 . S
C877 C876 1.377 . S
C877 C883 1.390 . S
C878 H869 0.930 . S
C878 C876 1.384 . S
C878 C879 1.372 . S
C879 C878 1.372 . S
C879 C880 1.400 . S
C879 C884 1.490 . S
C880 H870 0.930 . S
C880 C879 1.400 . S
C880 C883 1.386 . S
H881 C897 0.930 1_545 S
H882 C898 0.931 . S
C883 H871 0.929 . S
C883 C877 1.390 . S
C883 C880 1.386 . S
C884 C879 1.490 . S
C884 C886 1.395 . S
C884 C887 1.403 . S
H885 C891 0.930 . S
C886 H872 0.930 . S
C886 C884 1.395 . S
C886 C889 1.403 . S
C887 C884 1.403 . S
C887 C888 1.524 . S
C887 C891 1.400 . S
C888 H873 0.960 . S
C888 H874 0.960 . S
C888 H875 0.960 . S
C888 C887 1.524 . S
C889 C886 1.403 . S
C889 C890 1.392 . S
C889 C893 1.495 . S
C890 C889 1.392 . S
C890 C891 1.385 . S
C890 C892 1.478 . S
C891 H885 0.930 . S
C891 C887 1.400 . S
C891 C890 1.385 . S
C892 C890 1.478 . S
C892 C894 1.381 . S
C892 C898 1.383 . S
C893 C889 1.495 . S
C893 H899 0.959 . S
C893 H900 0.961 . S
C893 H901 0.960 . S
C894 C892 1.381 . S
C894 C895 1.394 1_565 S
C894 H902 0.930 . S
C895 C894 1.394 1_545 S
C895 C896 1.383 . S
C895 H903 0.929 . S
C896 C895 1.383 . S
C896 C897 1.377 1_545 S
C897 H881 0.930 1_565 S
C897 C896 1.377 1_565 S
C897 C898 1.379 . S
C898 H882 0.931 . S
C898 C892 1.383 . S
C898 C897 1.379 . S
H899 C893 0.959 . S
H900 C893 0.961 . S
H901 C893 0.960 . S
H902 C894 0.930 . S
H903 C895 0.929 . S
H904 C912 0.929 1_565 S
H905 C914 0.930 . S
H906 C916 0.930 . S
H907 C919 0.929 . S
H908 C922 0.930 . S
H909 C924 0.960 . S
H910 C924 0.960 . S
H911 C924 0.960 . S
C912 H904 0.929 1_545 S
C912 C913 1.377 1_545 S
C912 C914 1.384 . S
C913 C912 1.377 1_565 S
C913 C919 1.390 . S
C914 H905 0.930 . S
C914 C912 1.384 . S
C914 C915 1.372 . S
C915 C914 1.372 . S
C915 C916 1.400 . S
C915 C920 1.490 . S
C916 H906 0.930 . S
C916 C915 1.400 . S
C916 C919 1.386 1_545 S
H917 C933 0.930 . S
H918 C934 0.931 . S
C919 H907 0.929 . S
C919 C913 1.390 . S
C919 C916 1.386 1_565 S
C920 C915 1.490 . S
C920 C922 1.395 . S
C920 C923 1.403 . S
H921 C927 0.930 . S
C922 H908 0.930 . S
C922 C920 1.395 . S
C922 C925 1.403 . S
C923 C920 1.403 . S
C923 C924 1.524 . S
C923 C927 1.400 . S
C924 H909 0.960 . S
C924 H910 0.960 . S
C924 H911 0.960 . S
C924 C923 1.524 . S
C925 C922 1.403 . S
C925 C926 1.392 . S
C925 C929 1.495 . S
C926 C925 1.392 . S
C926 C927 1.385 . S
C926 C928 1.478 . S
C927 H921 0.930 . S
C927 C923 1.400 . S
C927 C926 1.385 . S
C928 C926 1.478 . S
C928 C930 1.381 . S
C928 C934 1.383 . S
C929 C925 1.495 . S
C929 H935 0.959 . S
C929 H936 0.961 . S
C929 H937 0.960 . S
C930 C928 1.381 . S
C930 C931 1.394 . S
C930 H938 0.930 . S
C931 C930 1.394 . S
C931 C932 1.383 . S
C931 H939 0.929 . S
C932 C931 1.383 . S
C932 C933 1.377 . S
C933 H917 0.930 . S
C933 C932 1.377 . S
C933 C934 1.379 . S
C934 H918 0.931 . S
C934 C928 1.383 . S
C934 C933 1.379 . S
H935 C929 0.959 . S
H936 C929 0.961 . S
H937 C929 0.960 . S
H938 C930 0.930 . S
H939 C931 0.929 . S
H940 C948 0.929 . S
H941 C950 0.930 . S
H942 C952 0.930 . S
H943 C955 0.929 . S
H944 C958 0.930 . S
H945 C960 0.960 . S
H946 C960 0.960 . S
H947 C960 0.960 . S
C948 H940 0.929 . S
C948 C949 1.377 . S
C948 C950 1.384 . S
C949 C948 1.377 . S
C949 C955 1.390 . S
C950 H941 0.930 . S
C950 C948 1.384 . S
C950 C951 1.372 . S
C951 C950 1.372 . S
C951 C952 1.400 . S
C951 C956 1.490 . S
C952 H942 0.930 . S
C952 C951 1.400 . S
C952 C955 1.386 . S
H953 C969 0.930 . S
H954 C970 0.931 1_655 S
C955 H943 0.929 . S
C955 C949 1.390 . S
C955 C952 1.386 . S
C956 C951 1.490 . S
C956 C958 1.395 . S
C956 C959 1.403 1_655 S
H957 C963 0.930 . S
C958 H944 0.930 . S
C958 C956 1.395 . S
C958 C961 1.403 1_565 S
C959 C956 1.403 1_455 S
C959 C960 1.524 . S
C959 C963 1.400 1_565 S
C960 H945 0.960 . S
C960 H946 0.960 . S
C960 H947 0.960 . S
C960 C959 1.524 . S
C961 C958 1.403 1_545 S
C961 C962 1.391 1_655 S
C961 C965 1.495 . S
C962 C961 1.391 1_455 S
C962 C963 1.386 . S
C962 C964 1.478 . S
C963 H957 0.930 . S
C963 C959 1.400 1_545 S
C963 C962 1.386 . S
C964 C962 1.478 . S
C964 C966 1.381 . S
C964 C970 1.383 . S
C965 C961 1.495 . S
C965 H971 0.959 . S
C965 H972 0.961 . S
C965 H973 0.960 . S
C966 C964 1.381 . S
C966 C967 1.394 . S
C966 H974 0.930 . S
C967 C966 1.394 . S
C967 C968 1.383 . S
C967 H975 0.929 . S
C968 C967 1.383 . S
C968 C969 1.377 . S
C969 H953 0.930 . S
C969 C968 1.377 . S
C969 C970 1.379 . S
C970 H954 0.931 1_455 S
C970 C964 1.383 . S
C970 C969 1.379 . S
H971 C965 0.959 . S
H972 C965 0.961 . S
H973 C965 0.960 . S
H974 C966 0.930 . S
H975 C967 0.929 . S
H976 C984 0.929 . S
H977 C986 0.930 . S
H978 C988 0.930 . S
H979 C991 0.925 1_565 S
H980 C994 0.930 . S
H981 C996 0.960 . S
H982 C996 0.960 . S
H983 C996 0.960 . S
C984 H976 0.929 . S
C984 C985 1.377 . S
C984 C986 1.384 1_565 S
C985 C984 1.377 . S
C985 C991 1.384 1_565 S
C986 H977 0.930 . S
C986 C984 1.384 1_545 S
C986 C987 1.372 . S
C987 C986 1.372 . S
C987 C988 1.400 . S
C987 C992 1.490 . S
C988 H978 0.930 . S
C988 C987 1.400 . S
C988 C991 1.396 . S
H989 C1005 0.930 . S
H990 C1006 0.931 . S
C991 H979 0.925 1_545 S
C991 C985 1.384 1_545 S
C991 C988 1.396 . S
C992 C987 1.490 . S
C992 C994 1.395 . S
C992 C995 1.403 . S
H993 C999 0.930 . S
C994 H980 0.930 . S
C994 C992 1.395 . S
C994 C997 1.403 . S
C995 C992 1.403 . S
C995 C996 1.524 . S
C995 C999 1.400 . S
C996 H981 0.960 . S
C996 H982 0.960 . S
C996 H983 0.960 . S
C996 C995 1.524 . S
C997 C994 1.403 . S
C997 C998 1.392 . S
C997 C1001 1.495 . S
C998 C997 1.392 . S
C998 C999 1.385 . S
C998 C1000 1.478 . S
C999 H993 0.930 . S
C999 C995 1.400 . S
C999 C998 1.385 . S
C1000 C998 1.478 . S
C1000 C1002 1.381 . S
C1000 C1006 1.383 . S
C1001 C997 1.495 . S
C1001 H1007 0.959 . S
C1001 H1008 0.961 . S
C1001 H1009 0.960 . S
C1002 C1000 1.381 . S
C1002 C1003 1.394 . S
C1002 H1010 0.930 . S
C1003 C1002 1.394 . S
C1003 C1004 1.383 . S
C1003 H1011 0.929 . S
C1004 C1003 1.383 . S
C1004 C1005 1.377 . S
C1005 H989 0.930 . S
C1005 C1004 1.377 . S
C1005 C1006 1.379 . S
C1006 H990 0.931 . S
C1006 C1000 1.383 . S
C1006 C1005 1.379 . S
H1007 C1001 0.959 . S
H1008 C1001 0.961 . S
H1009 C1001 0.960 . S
H1010 C1002 0.930 . S
H1011 C1003 0.929 . S
H1012 C1020 0.929 . S
H1013 C1022 0.930 . S
H1014 C1024 0.930 . S
H1015 C1027 0.929 . S
H1016 C1030 0.930 . S
H1017 C1032 0.960 . S
H1018 C1032 0.960 . S
H1019 C1032 0.960 . S
C1020 H1012 0.929 . S
C1020 C1021 1.377 . S
C1020 C1022 1.384 . S
C1021 C1020 1.377 . S
C1021 C1027 1.390 . S
C1022 H1013 0.930 . S
C1022 C1020 1.384 . S
C1022 C1023 1.372 . S
C1023 C1022 1.372 . S
C1023 C1024 1.400 . S
C1023 C1028 1.490 . S
C1024 H1014 0.930 . S
C1024 C1023 1.400 . S
C1024 C1027 1.386 . S
H1025 C1041 0.930 1_545 S
H1026 C1042 0.931 . S
C1027 H1015 0.929 . S
C1027 C1021 1.390 . S
C1027 C1024 1.386 . S
C1028 C1023 1.490 . S
C1028 C1030 1.395 . S
C1028 C1031 1.403 . S
H1029 C1035 0.930 . S
C1030 H1016 0.930 . S
C1030 C1028 1.395 . S
C1030 C1033 1.403 . S
C1031 C1028 1.403 . S
C1031 C1032 1.524 . S
C1031 C1035 1.400 . S
C1032 H1017 0.960 . S
C1032 H1018 0.960 . S
C1032 H1019 0.960 . S
C1032 C1031 1.524 . S
C1033 C1030 1.403 . S
C1033 C1034 1.392 . S
C1033 C1037 1.495 . S
C1034 C1033 1.392 . S
C1034 C1035 1.385 . S
C1034 C1036 1.478 . S
C1035 H1029 0.930 . S
C1035 C1031 1.400 . S
C1035 C1034 1.385 . S
C1036 C1034 1.478 . S
C1036 C1038 1.381 . S
C1036 C1042 1.383 . S
C1037 C1033 1.495 . S
C1037 H1043 0.959 . S
C1037 H1044 0.961 . S
C1037 H1045 0.960 . S
C1038 C1036 1.381 . S
C1038 C1039 1.394 1_565 S
C1038 H1046 0.930 . S
C1039 C1038 1.394 1_545 S
C1039 C1040 1.383 . S
C1039 H1047 0.929 . S
C1040 C1039 1.383 . S
C1040 C1041 1.377 1_545 S
C1041 H1025 0.930 1_565 S
C1041 C1040 1.377 1_565 S
C1041 C1042 1.379 . S
C1042 H1026 0.931 . S
C1042 C1036 1.383 . S
C1042 C1041 1.379 . S
H1043 C1037 0.959 . S
H1044 C1037 0.961 . S
H1045 C1037 0.960 . S
H1046 C1038 0.930 . S
H1047 C1039 0.929 . S
H1048 C1056 0.929 . S
H1049 C1058 0.930 . S
H1050 C1060 0.930 . S
H1051 C1063 0.929 . S
H1052 C1066 0.930 . S
H1053 C1068 0.960 . S
H1054 C1068 0.960 . S
H1055 C1068 0.960 . S
C1056 H1048 0.929 . S
C1056 C1057 1.377 . S
C1056 C1058 1.384 . S
C1057 C1056 1.377 . S
C1057 C1063 1.390 . S
C1058 H1049 0.930 . S
C1058 C1056 1.384 . S
C1058 C1059 1.372 . S
C1059 C1058 1.372 . S
C1059 C1060 1.400 . S
C1059 C1064 1.490 . S
C1060 H1050 0.930 . S
C1060 C1059 1.400 . S
C1060 C1063 1.386 . S
H1061 C1077 0.930 . S
H1062 C1078 0.931 . S
C1063 H1051 0.929 . S
C1063 C1057 1.390 . S
C1063 C1060 1.386 . S
C1064 C1059 1.490 . S
C1064 C1066 1.395 . S
C1064 C1067 1.403 . S
H1065 C1071 0.930 . S
C1066 H1052 0.930 . S
C1066 C1064 1.395 . S
C1066 C1069 1.403 . S
C1067 C1064 1.403 . S
C1067 C1068 1.524 . S
C1067 C1071 1.400 . S
C1068 H1053 0.960 . S
C1068 H1054 0.960 . S
C1068 H1055 0.960 . S
C1068 C1067 1.524 . S
C1069 C1066 1.403 . S
C1069 C1070 1.392 . S
C1069 C1073 1.495 . S
C1070 C1069 1.392 . S
C1070 C1071 1.385 . S
C1070 C1072 1.478 . S
C1071 H1065 0.930 . S
C1071 C1067 1.400 . S
C1071 C1070 1.385 . S
C1072 C1070 1.478 . S
C1072 C1074 1.381 . S
C1072 C1078 1.383 . S
C1073 C1069 1.495 . S
C1073 H1079 0.959 . S
C1073 H1080 0.961 . S
C1073 H1081 0.960 . S
C1074 C1072 1.381 . S
C1074 C1075 1.394 . S
C1074 H1082 0.930 . S
C1075 C1074 1.394 . S
C1075 C1076 1.383 . S
C1075 H1083 0.929 . S
C1076 C1075 1.383 . S
C1076 C1077 1.377 . S
C1077 H1061 0.930 . S
C1077 C1076 1.377 . S
C1077 C1078 1.379 . S
C1078 H1062 0.931 . S
C1078 C1072 1.383 . S
C1078 C1077 1.379 . S
H1079 C1073 0.959 . S
H1080 C1073 0.961 . S
H1081 C1073 0.960 . S
H1082 C1074 0.930 . S
H1083 C1075 0.929 . S
H1084 C1092 0.929 . S
H1085 C1094 0.930 . S
H1086 C1096 0.930 . S
H1087 C1099 0.929 . S
H1088 C1102 0.930 . S
H1089 C1104 0.960 . S
H1090 C1104 0.960 1_556 S
H1091 C1104 0.960 . S
C1092 H1084 0.929 . S
C1092 C1093 1.376 . S
C1092 C1094 1.384 . S
C1093 C1092 1.376 . S
C1093 C1099 1.391 1_556 S
C1094 H1085 0.930 . S
C1094 C1092 1.384 . S
C1094 C1095 1.419 . S
C1095 C1094 1.419 . S
C1095 C1096 1.353 1_556 S
C1095 C1100 1.491 . S
C1096 H1086 0.930 . S
C1096 C1095 1.353 1_554 S
C1096 C1099 1.386 . S
H1097 C1113 0.930 . S
H1098 C1114 0.931 . S
C1099 H1087 0.929 . S
C1099 C1093 1.391 1_554 S
C1099 C1096 1.386 . S
C1100 C1095 1.491 . S
C1100 C1102 1.395 . S
C1100 C1103 1.403 1_556 S
H1101 C1107 0.930 . S
C1102 H1088 0.930 . S
C1102 C1100 1.395 . S
C1102 C1105 1.403 1_565 S
C1103 C1100 1.403 1_554 S
C1103 C1104 1.524 . S
C1103 C1107 1.400 1_565 S
C1104 H1089 0.960 . S
C1104 H1090 0.960 1_554 S
C1104 H1091 0.960 . S
C1104 C1103 1.524 . S
C1105 C1102 1.403 1_545 S
C1105 C1106 1.392 . S
C1105 C1109 1.495 . S
C1106 C1105 1.392 . S
C1106 C1107 1.385 1_556 S
C1106 C1108 1.480 . S
C1107 H1101 0.930 . S
C1107 C1103 1.400 1_545 S
C1107 C1106 1.385 1_554 S
C1108 C1106 1.480 . S
C1108 C1110 1.430 . S
C1108 C1114 1.333 1_556 S
C1109 C1105 1.495 . S
C1109 H1115 0.959 . S
C1109 H1116 0.970 . S
C1109 H1117 0.960 . S
C1110 C1108 1.430 . S
C1110 C1111 1.394 . S
C1110 H1118 0.930 . S
C1111 C1110 1.394 . S
C1111 C1112 1.383 . S
C1111 H1119 0.929 . S
C1112 C1111 1.383 . S
C1112 C1113 1.377 1_556 S
C1113 H1097 0.930 . S
C1113 C1112 1.377 1_554 S
C1113 C1114 1.379 . S
C1114 H1098 0.931 . S
C1114 C1108 1.333 1_554 S
C1114 C1113 1.379 . S
H1115 C1109 0.959 . S
H1116 C1109 0.970 . S
H1117 C1109 0.960 . S
H1118 C1110 0.930 . S
H1119 C1111 0.929 . S
H1120 C1128 0.929 . S
H1121 C1130 0.930 . S
H1122 C1132 0.930 . S
H1123 C1135 0.929 . S
H1124 C1138 0.930 . S
H1125 C1140 0.960 . S
H1126 C1140 0.960 . S
H1127 C1140 0.960 . S
C1128 H1120 0.929 . S
C1128 C1129 1.382 . S
C1128 C1130 1.384 . S
C1129 C1128 1.382 . S
C1129 C1135 1.385 1_554 S
C1130 H1121 0.930 . S
C1130 C1128 1.384 . S
C1130 C1131 1.417 . S
C1131 C1130 1.417 . S
C1131 C1132 1.354 1_554 S
C1131 C1136 1.493 . S
C1132 H1122 0.930 . S
C1132 C1131 1.354 1_556 S
C1132 C1135 1.386 . S
H1133 C1149 0.930 . S
H1134 C1150 0.931 . S
C1135 H1123 0.929 . S
C1135 C1129 1.385 1_556 S
C1135 C1132 1.386 . S
C1136 C1131 1.493 . S
C1136 C1138 1.395 . S
C1136 C1139 1.403 1_554 S
H1137 C1143 0.930 . S
C1138 H1124 0.930 . S
C1138 C1136 1.395 . S
C1138 C1141 1.403 . S
C1139 C1136 1.403 1_556 S
C1139 C1140 1.524 . S
C1139 C1143 1.400 . S
C1140 H1125 0.960 . S
C1140 H1126 0.960 . S
C1140 H1127 0.960 . S
C1140 C1139 1.524 . S
C1141 C1138 1.403 . S
C1141 C1142 1.392 . S
C1141 C1145 1.495 . S
C1142 C1141 1.392 . S
C1142 C1143 1.385 1_554 S
C1142 C1144 1.478 . S
C1143 H1137 0.930 . S
C1143 C1139 1.400 . S
C1143 C1142 1.385 1_556 S
C1144 C1142 1.478 . S
C1144 C1146 1.381 . S
C1144 C1150 1.383 1_554 S
C1145 C1141 1.495 . S
C1145 H1151 0.959 . S
C1145 H1152 0.961 . S
C1145 H1153 0.960 . S
C1146 C1144 1.381 . S
C1146 C1147 1.394 . S
C1146 H1154 0.930 . S
C1147 C1146 1.394 . S
C1147 C1148 1.383 . S
C1147 H1155 0.929 . S
C1148 C1147 1.383 . S
C1148 C1149 1.377 1_554 S
C1149 H1133 0.930 . S
C1149 C1148 1.377 1_556 S
C1149 C1150 1.379 . S
C1150 H1134 0.931 . S
C1150 C1144 1.383 1_556 S
C1150 C1149 1.379 . S
H1151 C1145 0.959 . S
H1152 C1145 0.961 . S
H1153 C1145 0.960 . S
H1154 C1146 0.930 . S
H1155 C1147 0.929 . S
H1156 C1164 0.929 . S
H1157 C1166 0.930 . S
H1158 C1168 0.930 . S
H1159 C1171 0.929 . S
H1160 C1174 0.930 . S
H1161 C1176 0.960 . S
H1162 C1176 0.960 . S
H1163 C1176 0.960 1_556 S
C1164 H1156 0.929 . S
C1164 C1165 1.395 . S
C1164 C1166 1.384 . S
C1165 C1164 1.395 . S
C1165 C1171 1.373 1_554 S
C1166 H1157 0.930 . S
C1166 C1164 1.384 . S
C1166 C1167 1.372 . S
C1167 C1166 1.372 . S
C1167 C1168 1.400 1_554 S
C1167 C1172 1.490 . S
C1168 H1158 0.930 . S
C1168 C1167 1.400 1_556 S
C1168 C1171 1.386 . S
H1169 C1185 0.930 . S
H1170 C1186 0.931 . S
C1171 H1159 0.929 . S
C1171 C1165 1.373 1_556 S
C1171 C1168 1.386 . S
C1172 C1167 1.490 . S
C1172 C1174 1.396 . S
C1172 C1175 1.403 . S
H1173 C1179 0.930 . S
C1174 H1160 0.930 . S
C1174 C1172 1.396 . S
C1174 C1177 1.403 . S
C1175 C1172 1.403 . S
C1175 C1176 1.524 . S
C1175 C1179 1.400 . S
C1176 H1161 0.960 . S
C1176 H1162 0.960 . S
C1176 H1163 0.960 1_554 S
C1176 C1175 1.524 . S
C1177 C1174 1.403 . S
C1177 C1178 1.392 . S
C1177 C1181 1.494 1_554 S
C1178 C1177 1.392 . S
C1178 C1179 1.387 . S
C1178 C1180 1.477 . S
C1179 H1173 0.930 . S
C1179 C1175 1.400 . S
C1179 C1178 1.387 . S
C1180 C1178 1.477 . S
C1180 C1182 1.381 . S
C1180 C1186 1.382 1_554 S
C1181 C1177 1.494 1_556 S
C1181 H1187 0.959 . S
C1181 H1188 0.976 . S
C1181 H1189 0.945 1_556 S
C1182 C1180 1.381 . S
C1182 C1183 1.394 . S
C1182 H1190 0.930 . S
C1183 C1182 1.394 . S
C1183 C1184 1.388 1_554 S
C1183 H1191 0.929 . S
C1184 C1183 1.388 1_556 S
C1184 C1185 1.372 . S
C1185 H1169 0.930 . S
C1185 C1184 1.372 . S
C1185 C1186 1.379 . S
C1186 H1170 0.931 . S
C1186 C1180 1.382 1_556 S
C1186 C1185 1.379 . S
H1187 C1181 0.959 . S
H1188 C1181 0.976 . S
H1189 C1181 0.945 1_554 S
H1190 C1182 0.930 . S
H1191 C1183 0.929 . S
H1192 C1200 0.929 . S
H1193 C1202 0.930 . S
H1194 C1204 0.930 . S
H1195 C1207 0.929 . S
H1196 C1210 0.930 . S
H1197 C1212 0.960 1_655 S
H1198 C1212 0.960 . S
H1199 C1212 0.960 . S
C1200 H1192 0.929 . S
C1200 C1201 1.377 . S
C1200 C1202 1.384 . S
C1201 C1200 1.377 . S
C1201 C1207 1.390 . S
C1202 H1193 0.930 . S
C1202 C1200 1.384 . S
C1202 C1203 1.372 . S
C1203 C1202 1.372 . S
C1203 C1204 1.400 . S
C1203 C1208 1.490 . S
C1204 H1194 0.930 . S
C1204 C1203 1.400 . S
C1204 C1207 1.386 . S
H1205 C1221 0.930 . S
H1206 C1222 0.931 . S
C1207 H1195 0.929 . S
C1207 C1201 1.390 . S
C1207 C1204 1.386 . S
C1208 C1203 1.490 . S
C1208 C1210 1.395 . S
C1208 C1211 1.403 . S
H1209 C1215 0.930 . S
C1210 H1196 0.930 . S
C1210 C1208 1.395 . S
C1210 C1213 1.403 1_455 S
C1211 C1208 1.403 . S
C1211 C1212 1.524 . S
C1211 C1215 1.400 1_455 S
C1212 H1197 0.960 1_455 S
C1212 H1198 0.960 . S
C1212 H1199 0.960 . S
C1212 C1211 1.524 . S
C1213 C1210 1.403 1_655 S
C1213 C1214 1.392 . S
C1213 C1217 1.495 . S
C1214 C1213 1.392 . S
C1214 C1215 1.385 . S
C1214 C1216 1.478 . S
C1215 H1209 0.930 . S
C1215 C1211 1.400 1_655 S
C1215 C1214 1.385 . S
C1216 C1214 1.478 . S
C1216 C1218 1.381 . S
C1216 C1222 1.383 . S
C1217 C1213 1.495 . S
C1217 H1223 0.959 1_655 S
C1217 H1224 0.961 . S
C1217 H1225 0.960 . S
C1218 C1216 1.381 . S
C1218 C1219 1.394 . S
C1218 H1226 0.930 . S
C1219 C1218 1.394 . S
C1219 C1220 1.383 . S
C1219 H1227 0.929 . S
C1220 C1219 1.383 . S
C1220 C1221 1.377 . S
C1221 H1205 0.930 . S
C1221 C1220 1.377 . S
C1221 C1222 1.379 . S
C1222 H1206 0.931 . S
C1222 C1216 1.383 . S
C1222 C1221 1.379 . S
H1223 C1217 0.959 1_455 S
H1224 C1217 0.961 . S
H1225 C1217 0.960 . S
H1226 C1218 0.930 . S
H1227 C1219 0.929 . S
H1228 C1236 0.929 . S
H1229 C1238 0.930 . S
H1230 C1240 0.930 . S
H1231 C1243 0.929 . S
H1232 C1246 0.930 . S
H1233 C1248 0.960 . S
H1234 C1248 0.960 . S
H1235 C1248 0.960 . S
C1236 H1228 0.929 . S
C1236 C1237 1.377 . S
C1236 C1238 1.384 . S
C1237 C1236 1.377 . S
C1237 C1243 1.390 . S
C1238 H1229 0.930 . S
C1238 C1236 1.384 . S
C1238 C1239 1.372 . S
C1239 C1238 1.372 . S
C1239 C1240 1.400 . S
C1239 C1244 1.490 . S
C1240 H1230 0.930 . S
C1240 C1239 1.400 . S
C1240 C1243 1.386 . S
H1241 C1257 0.930 . S
H1242 C1258 0.931 . S
C1243 H1231 0.929 . S
C1243 C1237 1.390 . S
C1243 C1240 1.386 . S
C1244 C1239 1.490 . S
C1244 C1246 1.395 . S
C1244 C1247 1.403 . S
H1245 C1251 0.930 . S
C1246 H1232 0.930 . S
C1246 C1244 1.395 . S
C1246 C1249 1.403 . S
C1247 C1244 1.403 . S
C1247 C1248 1.524 . S
C1247 C1251 1.400 . S
C1248 H1233 0.960 . S
C1248 H1234 0.960 . S
C1248 H1235 0.960 . S
C1248 C1247 1.524 . S
C1249 C1246 1.403 . S
C1249 C1250 1.392 . S
C1249 C1253 1.495 . S
C1250 C1249 1.392 . S
C1250 C1251 1.385 . S
C1250 C1252 1.478 . S
C1251 H1245 0.930 . S
C1251 C1247 1.400 . S
C1251 C1250 1.385 . S
C1252 C1250 1.478 . S
C1252 C1254 1.381 . S
C1252 C1258 1.383 . S
C1253 C1249 1.495 . S
C1253 H1259 0.959 . S
C1253 H1260 0.961 . S
C1253 H1261 0.960 . S
C1254 C1252 1.381 . S
C1254 C1255 1.394 . S
C1254 H1262 0.930 . S
C1255 C1254 1.394 . S
C1255 C1256 1.383 . S
C1255 H1263 0.929 . S
C1256 C1255 1.383 . S
C1256 C1257 1.377 . S
C1257 H1241 0.930 . S
C1257 C1256 1.377 . S
C1257 C1258 1.379 . S
C1258 H1242 0.931 . S
C1258 C1252 1.383 . S
C1258 C1257 1.379 . S
H1259 C1253 0.959 . S
H1260 C1253 0.961 . S
H1261 C1253 0.960 . S
H1262 C1254 0.930 . S
H1263 C1255 0.929 . S
H1264 C1272 0.929 . S
H1265 C1274 0.930 . S
H1266 C1276 0.930 . S
H1267 C1279 0.929 . S
H1268 C1282 0.930 . S
H1269 C1284 0.960 . S
H1270 C1284 0.960 . S
H1271 C1284 0.960 . S
C1272 H1264 0.929 . S
C1272 C1273 1.377 . S
C1272 C1274 1.384 . S
C1273 C1272 1.377 . S
C1273 C1279 1.390 . S
C1274 H1265 0.930 . S
C1274 C1272 1.384 . S
C1274 C1275 1.372 . S
C1275 C1274 1.372 . S
C1275 C1276 1.400 . S
C1275 C1280 1.490 . S
C1276 H1266 0.930 . S
C1276 C1275 1.400 . S
C1276 C1279 1.386 . S
H1277 C1293 0.930 . S
H1278 C1294 0.931 . S
C1279 H1267 0.929 . S
C1279 C1273 1.390 . S
C1279 C1276 1.386 . S
C1280 C1275 1.490 . S
C1280 C1282 1.395 . S
C1280 C1283 1.403 . S
H1281 C1287 0.930 . S
C1282 H1268 0.930 . S
C1282 C1280 1.395 . S
C1282 C1285 1.403 . S
C1283 C1280 1.403 . S
C1283 C1284 1.524 . S
C1283 C1287 1.400 . S
C1284 H1269 0.960 . S
C1284 H1270 0.960 . S
C1284 H1271 0.960 . S
C1284 C1283 1.524 . S
C1285 C1282 1.403 . S
C1285 C1286 1.392 . S
C1285 C1289 1.495 . S
C1286 C1285 1.392 . S
C1286 C1287 1.385 . S
C1286 C1288 1.478 . S
C1287 H1281 0.930 . S
C1287 C1283 1.400 . S
C1287 C1286 1.385 . S
C1288 C1286 1.478 . S
C1288 C1290 1.381 . S
C1288 C1294 1.383 . S
C1289 C1285 1.495 . S
C1289 H1295 0.959 . S
C1289 H1296 0.961 . S
C1289 H1297 0.960 . S
C1290 C1288 1.381 . S
C1290 C1291 1.394 . S
C1290 H1298 0.930 . S
C1291 C1290 1.394 . S
C1291 C1292 1.383 . S
C1291 H1299 0.929 . S
C1292 C1291 1.383 . S
C1292 C1293 1.377 . S
C1293 H1277 0.930 . S
C1293 C1292 1.377 . S
C1293 C1294 1.379 . S
C1294 H1278 0.931 . S
C1294 C1288 1.383 . S
C1294 C1293 1.379 . S
H1295 C1289 0.959 . S
H1296 C1289 0.961 . S
H1297 C1289 0.960 . S
H1298 C1290 0.930 . S
H1299 C1291 0.929 . S
H1300 C1308 0.929 . S
H1301 C1310 0.930 1_565 S
H1302 C1312 0.930 . S
H1303 C1315 0.929 . S
H1304 C1318 0.930 . S
H1305 C1320 0.960 1_455 S
H1306 C1320 0.960 . S
H1307 C1320 0.960 . S
C1308 H1300 0.929 . S
C1308 C1309 1.377 . S
C1308 C1310 1.384 . S
C1309 C1308 1.377 . S
C1309 C1315 1.390 . S
C1310 H1301 0.930 1_545 S
C1310 C1308 1.384 . S
C1310 C1311 1.372 . S
C1311 C1310 1.372 . S
C1311 C1312 1.400 . S
C1311 C1316 1.490 . S
C1312 H1302 0.930 . S
C1312 C1311 1.400 . S
C1312 C1315 1.386 . S
H1313 C1329 0.930 . S
H1314 C1330 0.931 . S
C1315 H1303 0.929 . S
C1315 C1309 1.390 . S
C1315 C1312 1.386 . S
C1316 C1311 1.490 . S
C1316 C1318 1.395 1_545 S
C1316 C1319 1.403 . S
H1317 C1323 0.930 . S
C1318 H1304 0.930 . S
C1318 C1316 1.395 1_565 S
C1318 C1321 1.403 1_655 S
C1319 C1316 1.403 . S
C1319 C1320 1.524 . S
C1319 C1323 1.400 1_655 S
C1320 H1305 0.960 1_655 S
C1320 H1306 0.960 . S
C1320 H1307 0.960 . S
C1320 C1319 1.524 . S
C1321 C1318 1.403 1_455 S
C1321 C1322 1.392 . S
C1321 C1325 1.495 . S
C1322 C1321 1.392 . S
C1322 C1323 1.385 1_565 S
C1322 C1324 1.478 . S
C1323 H1317 0.930 . S
C1323 C1319 1.400 1_455 S
C1323 C1322 1.385 1_545 S
C1324 C1322 1.478 . S
C1324 C1326 1.381 . S
C1324 C1330 1.383 . S
C1325 C1321 1.495 . S
C1325 H1331 0.959 1_455 S
C1325 H1332 0.961 . S
C1325 H1333 0.960 . S
C1326 C1324 1.381 . S
C1326 C1327 1.394 . S
C1326 H1334 0.930 . S
C1327 C1326 1.394 . S
C1327 C1328 1.383 . S
C1327 H1335 0.929 . S
C1328 C1327 1.383 . S
C1328 C1329 1.377 . S
C1329 H1313 0.930 . S
C1329 C1328 1.377 . S
C1329 C1330 1.379 . S
C1330 H1314 0.931 . S
C1330 C1324 1.383 . S
C1330 C1329 1.379 . S
H1331 C1325 0.959 1_655 S
H1332 C1325 0.961 . S
H1333 C1325 0.960 . S
H1334 C1326 0.930 . S
H1335 C1327 0.929 . S
H1336 C1344 0.929 . S
H1337 C1346 0.930 . S
H1338 C1348 0.930 . S
H1339 C1351 0.929 . S
H1340 C1354 0.930 . S
H1341 C1356 0.960 . S
H1342 C1356 0.960 . S
H1343 C1356 0.960 . S
C1344 H1336 0.929 . S
C1344 C1345 1.377 . S
C1344 C1346 1.384 . S
C1345 C1344 1.377 . S
C1345 C1351 1.390 . S
C1346 H1337 0.930 . S
C1346 C1344 1.384 . S
C1346 C1347 1.372 . S
C1347 C1346 1.372 . S
C1347 C1348 1.400 . S
C1347 C1352 1.490 . S
C1348 H1338 0.930 . S
C1348 C1347 1.400 . S
C1348 C1351 1.386 . S
H1349 C1365 0.930 . S
H1350 C1366 0.931 . S
C1351 H1339 0.929 . S
C1351 C1345 1.390 . S
C1351 C1348 1.386 . S
C1352 C1347 1.490 . S
C1352 C1354 1.395 . S
C1352 C1355 1.403 . S
H1353 C1359 0.930 . S
C1354 H1340 0.930 . S
C1354 C1352 1.395 . S
C1354 C1357 1.403 . S
C1355 C1352 1.403 . S
C1355 C1356 1.524 . S
C1355 C1359 1.400 . S
C1356 H1341 0.960 . S
C1356 H1342 0.960 . S
C1356 H1343 0.960 . S
C1356 C1355 1.524 . S
C1357 C1354 1.403 . S
C1357 C1358 1.392 . S
C1357 C1361 1.495 . S
C1358 C1357 1.392 . S
C1358 C1359 1.385 . S
C1358 C1360 1.478 . S
C1359 H1353 0.930 . S
C1359 C1355 1.400 . S
C1359 C1358 1.385 . S
C1360 C1358 1.478 . S
C1360 C1362 1.381 . S
C1360 C1366 1.383 . S
C1361 C1357 1.495 . S
C1361 H1367 0.959 . S
C1361 H1368 0.961 . S
C1361 H1369 0.960 . S
C1362 C1360 1.381 . S
C1362 C1363 1.394 . S
C1362 H1370 0.930 . S
C1363 C1362 1.394 . S
C1363 C1364 1.383 . S
C1363 H1371 0.929 . S
C1364 C1363 1.383 . S
C1364 C1365 1.377 . S
C1365 H1349 0.930 . S
C1365 C1364 1.377 . S
C1365 C1366 1.379 . S
C1366 H1350 0.931 . S
C1366 C1360 1.383 . S
C1366 C1365 1.379 . S
H1367 C1361 0.959 . S
H1368 C1361 0.961 . S
H1369 C1361 0.960 . S
H1370 C1362 0.930 . S
H1371 C1363 0.929 . S
H1372 C1380 0.929 . S
H1373 C1382 0.930 . S
H1374 C1384 0.930 1_545 S
H1375 C1387 0.929 . S
H1376 C1390 0.930 . S
H1377 C1392 0.960 . S
H1378 C1392 0.960 . S
H1379 C1392 0.960 . S
C1380 H1372 0.929 . S
C1380 C1381 1.377 . S
C1380 C1382 1.384 . S
C1381 C1380 1.377 . S
C1381 C1387 1.390 . S
C1382 H1373 0.930 . S
C1382 C1380 1.384 . S
C1382 C1383 1.372 . S
C1383 C1382 1.372 . S
C1383 C1384 1.400 . S
C1383 C1388 1.490 . S
C1384 H1374 0.930 1_565 S
C1384 C1383 1.400 . S
C1384 C1387 1.386 . S
H1385 C1401 0.930 . S
H1386 C1402 0.931 . S
C1387 H1375 0.929 . S
C1387 C1381 1.390 . S
C1387 C1384 1.386 . S
C1388 C1383 1.490 . S
C1388 C1390 1.395 . S
C1388 C1391 1.403 1_565 S
H1389 C1395 0.930 . S
C1390 H1376 0.930 . S
C1390 C1388 1.395 . S
C1390 C1393 1.403 . S
C1391 C1388 1.403 1_545 S
C1391 C1392 1.524 . S
C1391 C1395 1.400 . S
C1392 H1377 0.960 . S
C1392 H1378 0.960 . S
C1392 H1379 0.960 . S
C1392 C1391 1.524 . S
C1393 C1390 1.403 . S
C1393 C1394 1.392 1_565 S
C1393 C1397 1.495 . S
C1394 C1393 1.392 1_545 S
C1394 C1395 1.385 . S
C1394 C1396 1.478 . S
C1395 H1389 0.930 . S
C1395 C1391 1.400 . S
C1395 C1394 1.385 . S
C1396 C1394 1.478 . S
C1396 C1398 1.381 . S
C1396 C1402 1.383 . S
C1397 C1393 1.495 . S
C1397 H1403 0.959 . S
C1397 H1404 0.961 . S
C1397 H1405 0.960 . S
C1398 C1396 1.381 . S
C1398 C1399 1.394 . S
C1398 H1406 0.930 1_545 S
C1399 C1398 1.394 . S
C1399 C1400 1.383 . S
C1399 H1407 0.929 . S
C1400 C1399 1.383 . S
C1400 C1401 1.377 . S
C1401 H1385 0.930 . S
C1401 C1400 1.377 . S
C1401 C1402 1.379 . S
C1402 H1386 0.931 . S
C1402 C1396 1.383 . S
C1402 C1401 1.379 . S
H1403 C1397 0.959 . S
H1404 C1397 0.961 . S
H1405 C1397 0.960 . S
H1406 C1398 0.930 1_565 S
H1407 C1399 0.929 . S
C265 C23 1.312 . S
C284 C40 1.410 . S
C301 C24 1.360 . S
C320 C86 1.460 . S
C337 C113 1.442 . S
C356 C62 1.285 . S
C373 C91 1.348 . S
C392 C127 1.445 . S
C409 C119 1.321 . S
C428 C136 1.438 . S
C445 C182 1.457 . S
C464 C120 1.395 . S
C481 C158 1.302 . S
C500 C17 1.412 . S
C517 C187 1.349 . S
C536 C31 1.447 . S
C553 C168 1.442 . S
C572 C215 1.358 . S
C589 C216 1.357 . S
C608 C150 1.470 . S
C625 C241 1.440 . S
C644 C190 1.263 . S
C661 C255 1.453 . S
C680 C155 1.311 . S
C697 C247 1.301 . S
C716 C72 1.466 . S
C733 C54 1.463 . S
C752 C248 1.350 . S
C769 C209 1.451 . S
C788 C94 1.355 . S
C805 C223 1.464 . S
C824 C59 1.394 . S
C841 C22 0.580 1_556 S
C860 C30 0.486 1_554 S
C877 C49 0.604 . S
C896 C56 0.640 . S
C913 C81 0.584 . S
C932 C88 0.500 . S
C949 C126 0.566 . S
C968 C118 0.511 . S
C985 C145 0.597 . S
C1004 C152 0.675 . S
C1021 C177 0.604 . S
C1040 C184 0.634 . S
C1057 C214 0.586 . S
C1076 C222 0.670 . S
C1093 C254 0.568 . S
C1112 C246 0.494 1_556 S
C1129 C232 1.450 . S
C1148 C27 1.434 1_554 S
C1165 C8 1.452 . S
C1184 C251 1.433 . S
C1201 C63 1.454 . S
C1220 C87 1.470 . S
C1237 C200 1.450 . S
C1256 C123 1.430 . S
C1273 C104 1.453 . S
C1292 C219 1.434 . S
C1309 C183 1.452 . S
C1328 C159 1.465 . S
C1345 C191 1.458 . S
C1364 C151 1.466 . S
C1381 C95 1.454 . S
C1400 C55 1.433 . S
