# Generated by pormake.
# Topology wjd, (6)-cn, num edge types: 1
# Building blocks:
#     Node 0, Type 0, BuildingBlock: KUMJIN_clean_sbu_1, # of connection points: 6
#     Node 1, Type 0, BuildingBlock: KUMJIN_clean_sbu_1, # of connection points: 6
#     Node 2, Type 0, BuildingBlock: KUMJIN_clean_sbu_1, # of connection points: 6
#     Node 3, Type 0, BuildingBlock: KUMJIN_clean_sbu_1, # of connection points: 6
#     Node 4, Type 0, BuildingBlock: KUMJIN_clean_sbu_1, # of connection points: 6
#     Node 5, Type 0, BuildingBlock: KUMJIN_clean_sbu_1, # of connection points: 6
#     Node 6, Type 0, BuildingBlock: KUMJIN_clean_sbu_1, # of connection points: 6
#     Node 7, Type 0, BuildingBlock: KUMJIN_clean_sbu_1, # of connection points: 6
#     Node 8, Type 0, BuildingBlock: KUMJIN_clean_sbu_1, # of connection points: 6
#     Node 9, Type 0, BuildingBlock: KUMJIN_clean_sbu_1, # of connection points: 6
#     Node 10, Type 0, BuildingBlock: KUMJIN_clean_sbu_1, # of connection points: 6
#     Node 11, Type 0, BuildingBlock: KUMJIN_clean_sbu_1, # of connection points: 6
#     Edge 12, Type (0, 0), BuildingBlock: XIVTED_clean_linker_0, # of connection points: 2
#     Edge 13, Type (0, 0), BuildingBlock: XIVTED_clean_linker_0, # of connection points: 2
#     Edge 14, Type (0, 0), BuildingBlock: XIVTED_clean_linker_0, # of connection points: 2
#     Edge 15, Type (0, 0), BuildingBlock: XIVTED_clean_linker_0, # of connection points: 2
#     Edge 16, Type (0, 0), BuildingBlock: XIVTED_clean_linker_0, # of connection points: 2
#     Edge 17, Type (0, 0), BuildingBlock: XIVTED_clean_linker_0, # of connection points: 2
#     Edge 18, Type (0, 0), BuildingBlock: XIVTED_clean_linker_0, # of connection points: 2
#     Edge 19, Type (0, 0), BuildingBlock: XIVTED_clean_linker_0, # of connection points: 2
#     Edge 20, Type (0, 0), BuildingBlock: XIVTED_clean_linker_0, # of connection points: 2
#     Edge 21, Type (0, 0), BuildingBlock: XIVTED_clean_linker_0, # of connection points: 2
#     Edge 22, Type (0, 0), BuildingBlock: XIVTED_clean_linker_0, # of connection points: 2
#     Edge 23, Type (0, 0), BuildingBlock: XIVTED_clean_linker_0, # of connection points: 2
#     Edge 24, Type (0, 0), BuildingBlock: XIVTED_clean_linker_0, # of connection points: 2
#     Edge 25, Type (0, 0), BuildingBlock: XIVTED_clean_linker_0, # of connection points: 2
#     Edge 26, Type (0, 0), BuildingBlock: XIVTED_clean_linker_0, # of connection points: 2
#     Edge 27, Type (0, 0), BuildingBlock: XIVTED_clean_linker_0, # of connection points: 2
#     Edge 28, Type (0, 0), BuildingBlock: XIVTED_clean_linker_0, # of connection points: 2
#     Edge 29, Type (0, 0), BuildingBlock: XIVTED_clean_linker_0, # of connection points: 2
#     Edge 30, Type (0, 0), BuildingBlock: XIVTED_clean_linker_0, # of connection points: 2
#     Edge 31, Type (0, 0), BuildingBlock: XIVTED_clean_linker_0, # of connection points: 2
#     Edge 32, Type (0, 0), BuildingBlock: XIVTED_clean_linker_0, # of connection points: 2
#     Edge 33, Type (0, 0), BuildingBlock: XIVTED_clean_linker_0, # of connection points: 2
#     Edge 34, Type (0, 0), BuildingBlock: XIVTED_clean_linker_0, # of connection points: 2
#     Edge 35, Type (0, 0), BuildingBlock: XIVTED_clean_linker_0, # of connection points: 2
#     Edge 36, Type (0, 0), BuildingBlock: XIVTED_clean_linker_0, # of connection points: 2
#     Edge 37, Type (0, 0), BuildingBlock: XIVTED_clean_linker_0, # of connection points: 2
#     Edge 38, Type (0, 0), BuildingBlock: XIVTED_clean_linker_0, # of connection points: 2
#     Edge 39, Type (0, 0), BuildingBlock: XIVTED_clean_linker_0, # of connection points: 2
#     Edge 40, Type (0, 0), BuildingBlock: XIVTED_clean_linker_0, # of connection points: 2
#     Edge 41, Type (0, 0), BuildingBlock: XIVTED_clean_linker_0, # of connection points: 2
#     Edge 42, Type (0, 0), BuildingBlock: XIVTED_clean_linker_0, # of connection points: 2
#     Edge 43, Type (0, 0), BuildingBlock: XIVTED_clean_linker_0, # of connection points: 2
#     Edge 44, Type (0, 0), BuildingBlock: XIVTED_clean_linker_0, # of connection points: 2
#     Edge 45, Type (0, 0), BuildingBlock: XIVTED_clean_linker_0, # of connection points: 2
#     Edge 46, Type (0, 0), BuildingBlock: XIVTED_clean_linker_0, # of connection points: 2
#     Edge 47, Type (0, 0), BuildingBlock: XIVTED_clean_linker_0, # of connection points: 2
# Relax obj value: 0.073
# Max RMSD: 0.186
# Mean RMSD: 0.186
data_MOF--net-wjd--node1-KUMJIN_clean_sbu_1--edge1-XIVTED_clean_linker_0
_symmetry_space_group_name_H-M    P1
_symmetry_Int_Tables_number       1
_symmetry_cell_setting            triclinic
loop_
_symmetry_equiv_pos_as_xyz
'x, y, z'
_cell_length_a     39.398902
_cell_length_b     39.408532
_cell_length_c     53.972615
_cell_angle_alpha  89.970167
_cell_angle_beta   90.029328
_cell_angle_gamma 119.89851
loop_
_atom_site_label
_atom_site_type_symbol
_atom_site_fract_x
_atom_site_fract_y
_atom_site_fract_z
_atom_type_partial_charge
Eu0 Eu 0.31172 0.07877 0.13628 0.0
C1 C 0.32617 0.22388 0.08221 0.0
N2 N 0.34155 0.20144 0.07469 0.0
C3 C 0.32072 0.20169 0.03304 0.0
C4 C 0.3068 0.23567 0.06525 0.0
C5 C 0.33948 0.19051 0.05052 0.0
C6 C 0.30424 0.22429 0.04043 0.0
C7 C 0.31245 0.25673 0.11546 0.0
C8 C 0.32894 0.2342 0.1071 0.0
C9 C 0.293 0.26837 0.09863 0.0
C10 C 0.29025 0.25794 0.0736 0.0
Eu11 Eu 0.37348 0.18495 0.1052 0.0
N12 N 0.34725 0.22183 0.12314 0.0
C13 C 0.3161 0.26704 0.14051 0.0
C14 C 0.35332 0.2343 0.14714 0.0
C15 C 0.33708 0.25621 0.15633 0.0
H16 H 0.35274 0.1736 0.04462 0.0
H17 H 0.3414 0.26536 0.17553 0.0
H18 H 0.31332 0.09056 0.19783 0.0
H19 H 0.35604 0.99252 0.08004 0.0
H20 H 0.37169 0.22876 0.15918 0.0
H21 H 0.30369 0.28418 0.14768 0.0
H22 H 0.32684 0.03409 0.088 0.0
H23 H 0.31908 0.19296 0.01387 0.0
H24 H 0.27998 0.28549 0.10479 0.0
H25 H 0.27509 0.2671 0.06087 0.0
H26 H 0.3412 0.076 0.23441 0.0
H27 H 0.28961 0.23279 0.02684 0.0
H28 H 0.38298 0.97237 0.11487 0.0
N29 N 0.33224 0.06189 0.17274 0.0
C30 C 0.34913 0.03935 0.16979 0.0
C31 C 0.34336 0.06514 0.21644 0.0
C32 C 0.36384 0.0287 0.19034 0.0
C33 C 0.32822 0.07402 0.19562 0.0
C34 C 0.36127 0.04237 0.21382 0.0
N35 N 0.33928 0.03949 0.12645 0.0
C36 C 0.33956 0.02655 0.10311 0.0
C37 C 0.36868 1.00312 0.14249 0.0
C38 C 0.35209 0.0272 0.14607 0.0
C39 C 0.3705 0.99095 0.11839 0.0
C40 C 0.35554 1.00245 0.09866 0.0
H41 H 0.37294 0.03541 0.22999 0.0
H42 H 0.39233 0.99662 0.20239 0.0
H43 H 0.39612 0.97384 0.16058 0.0
O44 O 0.25609 0.03603 0.1199 0.0
O45 O 0.37868 0.10437 0.13471 0.0
O46 O 0.39532 0.14283 0.10017 0.0
O47 O 0.26471 0.03493 0.15942 0.0
O48 O 0.30328 0.08361 0.09508 0.0
O49 O 0.36045 0.13446 0.07844 0.0
O50 O 0.42788 0.23744 0.11638 0.0
O51 O 0.30673 0.1525 0.10371 0.0
O52 O 0.29013 0.12197 0.14123 0.0
O53 O 0.41611 0.22312 0.07769 0.0
O54 O 0.38663 0.17797 0.14607 0.0
O55 O 0.32576 0.13149 0.15932 0.0
C56 C 0.40465 0.12689 0.1181 0.0
C57 C 0.22088 0.97523 0.13978 0.0
C58 C 0.15972 0.91355 0.1356 0.0
C59 C 0.18103 0.89372 0.13429 0.0
C60 C 0.24176 0.95505 0.13866 0.0
C61 C 0.22182 0.91441 0.13599 0.0
C62 C 0.17987 0.95439 0.13851 0.0
C63 C 0.32723 0.10074 0.07639 0.0
C64 C 0.24126 0.01807 0.14077 0.0
C65 C 0.38088 1.00512 0.1868 0.0
C66 C 0.38307 0.99217 0.16298 0.0
C67 C 0.28288 0.13895 0.12269 0.0
C68 C 0.44876 0.29046 0.08843 0.0
C69 C 0.49169 0.36101 0.09439 0.0
C70 C 0.46692 0.36776 0.0789 0.0
C71 C 0.4249 0.29832 0.07286 0.0
C72 C 0.48238 0.32203 0.0991 0.0
C73 C 0.43384 0.33664 0.06829 0.0
C74 C 0.36173 0.15873 0.1641 0.0
C75 C 0.43839 0.24953 0.09374 0.0
H76 H 0.16607 0.86221 0.13213 0.0
H77 H 0.27333 0.97062 0.13959 0.0
H78 H 0.23805 0.89894 0.13505 0.0
H79 H 0.16372 0.97004 0.13908 0.0
H80 H 0.47357 0.39726 0.07449 0.0
H81 H 0.39947 0.27494 0.06395 0.0
H82 H 0.50097 0.31625 0.11112 0.0
H83 H 0.41523 0.34228 0.05623 0.0
Eu84 Eu 0.83028 0.64673 0.40647 0.0
C85 C 0.72299 0.67332 0.32696 0.0
N86 N 0.7625 0.69129 0.32945 0.0
C87 C 0.77002 0.69085 0.28543 0.0
C88 C 0.70531 0.66261 0.30341 0.0
C89 C 0.7862 0.70126 0.30917 0.0
C90 C 0.72937 0.67113 0.28255 0.0
C91 C 0.65923 0.64943 0.34599 0.0
C92 C 0.70019 0.66675 0.34797 0.0
C93 C 0.64141 0.63794 0.32261 0.0
C94 C 0.66439 0.64446 0.30138 0.0
Eu95 Eu 0.78682 0.70651 0.37021 0.0
N96 N 0.71817 0.67758 0.37039 0.0
C97 C 0.63746 0.64447 0.36756 0.0
C98 C 0.6974 0.67437 0.39134 0.0
C99 C 0.65668 0.65731 0.3903 0.0
H100 H 0.81764 0.71757 0.31132 0.0
H101 H 0.64017 0.65413 0.40701 0.0
H102 H 0.8288 0.66105 0.46755 0.0
H103 H 0.95374 0.69476 0.34249 0.0
H104 H 0.71225 0.68437 0.40885 0.0
H105 H 0.60589 0.63123 0.36681 0.0
H106 H 0.88455 0.65941 0.35471 0.0
H107 H 0.78888 0.69831 0.26938 0.0
H108 H 0.60993 0.62435 0.32071 0.0
H109 H 0.65026 0.63586 0.28344 0.0
H110 H 0.87635 0.6941 0.50137 0.0
H111 H 0.71691 0.6634 0.26414 0.0
H112 H 1.00489 0.7308 0.37399 0.0
N113 N 0.87256 0.67787 0.43984 0.0
C114 C 0.91144 0.6959 0.4345 0.0
C115 C 0.88657 0.695 0.48264 0.0
C116 C 0.93957 0.71492 0.45326 0.0
C117 C 0.85972 0.67665 0.46344 0.0
C118 C 0.92666 0.71431 0.47753 0.0
N119 N 0.89549 0.67897 0.39201 0.0
C120 C 0.9061 0.67686 0.36828 0.0
C121 C 0.9634 0.71594 0.40402 0.0
C122 C 0.9232 0.6965 0.41 0.0
C123 C 0.97433 0.71601 0.37934 0.0
C124 C 0.94555 0.696 0.36146 0.0
H125 H 0.9474 0.7286 0.49245 0.0
H126 H 1.00156 0.74922 0.46141 0.0
H127 H 0.02238 0.75009 0.41839 0.0
O128 O 0.84659 0.6029 0.39714 0.0
O129 O 0.85893 0.71325 0.40952 0.0
O130 O 0.85176 0.72819 0.3701 0.0
O131 O 0.82362 0.60234 0.43351 0.0
O132 O 0.81207 0.63073 0.36573 0.0
O133 O 0.82868 0.69146 0.35226 0.0
O134 O 0.79578 0.76024 0.38794 0.0
O135 O 0.74202 0.64121 0.37639 0.0
O136 O 0.76486 0.61289 0.40513 0.0
O137 O 0.79532 0.75637 0.34799 0.0
O138 O 0.78918 0.71059 0.41205 0.0
O139 O 0.78801 0.65666 0.43078 0.0
C140 C 0.87189 0.73753 0.39072 0.0
C141 C 0.81299 0.54192 0.41692 0.0
C142 C 0.81104 0.47926 0.41281 0.0
C143 C 0.76998 0.46003 0.41435 0.0
C144 C 0.77201 0.52216 0.41806 0.0
C145 C 0.75065 0.4814 0.41679 0.0
C146 C 0.83249 0.5204 0.4139 0.0
C147 C 0.81808 0.65512 0.34746 0.0
C148 C 0.83572 0.58489 0.41831 0.0
C149 C 0.97955 0.73431 0.44724 0.0
C150 C 0.99141 0.73482 0.42272 0.0
C151 C 0.7372 0.61237 0.39124 0.0
C152 C 0.77534 0.79823 0.36543 0.0
C153 C 0.77419 0.85936 0.36698 0.0
C154 C 0.73352 0.83842 0.36317 0.0
C155 C 0.73478 0.7777 0.36141 0.0
C156 C 0.79506 0.8391 0.36794 0.0
C157 C 0.71401 0.79782 0.36023 0.0
C158 C 0.78053 0.68605 0.4307 0.0
C159 C 0.79761 0.77763 0.36701 0.0
H160 H 0.75284 0.42838 0.41355 0.0
H161 H 0.75662 0.53827 0.41996 0.0
H162 H 0.719 0.46632 0.41779 0.0
H163 H 0.86419 0.53555 0.41291 0.0
H164 H 0.71691 0.85354 0.36237 0.0
H165 H 0.7192 0.74627 0.35919 0.0
H166 H 0.82642 0.85501 0.37114 0.0
H167 H 0.6827 0.78189 0.35716 0.0
Eu168 Eu 0.93996 0.23683 0.13675 0.0
C169 C 0.79978 0.09823 0.08738 0.0
N170 N 0.8221 0.13474 0.07781 0.0
C171 C 0.82691 0.10778 0.03911 0.0
C172 C 0.79084 0.06484 0.07312 0.0
C173 C 0.83535 0.14006 0.054 0.0
C174 C 0.80467 0.07001 0.04872 0.0
C175 C 0.76485 0.05683 0.12241 0.0
C176 C 0.78724 0.09439 0.11187 0.0
C177 C 0.7561 0.02352 0.1083 0.0
C178 C 0.769 0.0275 0.08373 0.0
Eu179 Eu 0.83463 0.18723 0.10416 0.0
N180 N 0.79699 0.12721 0.12537 0.0
C181 C 0.75156 0.05383 0.14678 0.0
C182 C 0.78114 0.12417 0.14829 0.0
C183 C 0.75915 0.08763 0.1596 0.0
H184 H 0.85224 0.1692 0.04643 0.0
H185 H 0.74747 0.08552 0.17804 0.0
H186 H 0.92675 0.23108 0.19831 0.0
H187 H 0.02631 0.36355 0.07757 0.0
H188 H 0.78412 0.14953 0.15772 0.0
H189 H 0.7344 0.02553 0.15556 0.0
H190 H 0.98709 0.29337 0.08768 0.0
H191 H 0.83756 0.11205 0.02024 0.0
H192 H 0.73922 0.99449 0.1162 0.0
H193 H 0.76204 1.00151 0.07311 0.0
H194 H 0.9393 0.2761 0.23323 0.0
H195 H 0.7984 0.04507 0.03718 0.0
H196 H 0.0423 0.41304 0.11046 0.0
N197 N 0.95494 0.27682 0.17192 0.0
C198 C 0.97625 0.31602 0.16782 0.0
C199 C 0.95026 0.28774 0.21504 0.0
C200 C 0.98543 0.34278 0.18743 0.0
C201 C 0.94262 0.2623 0.19513 0.0
C202 C 0.97179 0.32815 0.21122 0.0
N203 N 0.97845 0.30297 0.12517 0.0
C204 C 0.99262 0.31461 0.10183 0.0
C205 C 0.01158 0.36991 0.1391 0.0
C206 C 0.9888 0.32948 0.14386 0.0
C207 C 0.02461 0.38222 0.11487 0.0
C208 C 0.01547 0.3544 0.09622 0.0
H209 H 0.97776 0.3478 0.22672 0.0
H210 H 0.01494 0.40414 0.19755 0.0
H211 H 0.03816 0.42787 0.15531 0.0
O212 O 0.98269 0.2223 0.12215 0.0
O213 O 0.91275 0.27639 0.13161 0.0
O214 O 0.873 0.25152 0.09739 0.0
O215 O 0.98491 0.23742 0.16087 0.0
O216 O 0.93633 0.22097 0.09611 0.0
O217 O 0.88512 0.22458 0.07756 0.0
O218 O 0.77969 0.18829 0.11091 0.0
O219 O 0.87007 0.15581 0.10538 0.0
O220 O 0.89759 0.17268 0.14363 0.0
O221 O 0.79753 0.18377 0.07331 0.0
O222 O 0.83966 0.21062 0.14411 0.0
O223 O 0.88719 0.19946 0.16001 0.0
C224 C 0.89177 0.27936 0.11362 0.0
C225 C 0.04427 0.25108 0.14138 0.0
C226 C 0.10622 0.25205 0.13608 0.0
C227 C 0.12556 0.2931 0.13457 0.0
C228 C 0.06407 0.29205 0.14 0.0
C229 C 0.10459 0.31292 0.13669 0.0
C230 C 0.06545 0.23115 0.13966 0.0
C231 C 0.91993 0.22723 0.07679 0.0
C232 C 1.00141 0.2285 0.14307 0.0
C233 C 1.00763 0.38314 0.1827 0.0
C234 C 0.0208 0.39666 0.15863 0.0
C235 C 0.88206 0.147 0.12572 0.0
C236 C 0.73625 0.18387 0.07675 0.0
C237 C 0.67098 0.17634 0.08048 0.0
C238 C 0.67108 0.18278 0.05488 0.0
C239 C 0.73534 0.18999 0.05116 0.0
C240 C 0.70366 0.17671 0.09148 0.0
C241 C 0.70298 0.18942 0.04036 0.0
C242 C 0.85859 0.20685 0.16317 0.0
C243 C 0.77134 0.18486 0.08737 0.0
H244 H 0.15698 0.30983 0.13191 0.0
H245 H 0.04824 0.30785 0.14125 0.0
H246 H 0.11975 0.34454 0.13556 0.0
H247 H 0.05012 0.19943 0.14041 0.0
H248 H 0.64627 0.18264 0.0461 0.0
H249 H 0.75984 0.19548 0.0394 0.0
H250 H 0.70383 0.17192 0.11125 0.0
H251 H 0.70268 0.1943 0.02064 0.0
Eu252 Eu 0.37046 0.18171 0.4056 0.0
C253 C 0.34188 0.04041 0.32874 0.0
N254 N 0.322 0.05991 0.33228 0.0
C255 C 0.31056 0.05936 0.28871 0.0
C256 C 0.3472 0.02985 0.30475 0.0
C257 C 0.30592 0.0691 0.31287 0.0
C258 C 0.33122 0.03956 0.28467 0.0
C259 C 0.37578 0.00875 0.3462 0.0
C260 C 0.35578 0.0298 0.34924 0.0
C261 C 0.38191 0.99891 0.32226 0.0
C262 C 0.36758 0.00936 0.30159 0.0
Eu263 Eu 0.31571 0.07522 0.37336 0.0
N264 N 0.3492 0.0395 0.37215 0.0
C265 C 0.38867 0.99786 0.36735 0.0
C266 C 0.36053 0.02785 0.39289 0.0
C267 C 0.38087 0.00734 0.3908 0.0
H268 H 0.28915 0.08358 0.3161 0.0
H269 H 0.39057 0.99891 0.40726 0.0
H270 H 0.33757 0.17269 0.46362 0.0
H271 H 0.35464 0.26217 0.32755 0.0
H272 H 0.35507 0.03551 0.41102 0.0
H273 H 0.4043 0.98183 0.36578 0.0
H274 H 0.38483 0.23079 0.35097 0.0
H275 H 0.29782 0.06668 0.2733 0.0
H276 H 0.39729 0.98282 0.31955 0.0
H277 H 0.3721 1.00116 0.28324 0.0
H278 H 0.29257 0.18682 0.48754 0.0
H279 H 0.33399 0.03109 0.26609 0.0
H280 H 0.30275 0.27114 0.34683 0.0
N281 N 0.32929 0.19559 0.42995 0.0
C282 C 0.31209 0.21377 0.4184 0.0
C283 C 0.29771 0.19443 0.4681 0.0
C284 C 0.28635 0.22255 0.43137 0.0
C285 C 0.32302 0.18633 0.45451 0.0
C286 C 0.27912 0.21243 0.45646 0.0
N287 N 0.3458 0.21531 0.38164 0.0
C288 C 0.36008 0.23136 0.35892 0.0
C289 C 0.30369 0.24352 0.3813 0.0
C290 C 0.3204 0.2237 0.39355 0.0
C291 C 0.31493 0.25588 0.35689 0.0
C292 C 0.34397 0.2506 0.34587 0.0
H293 H 0.25945 0.2186 0.46704 0.0
H294 H 0.2484 0.24751 0.4285 0.0
H295 H 0.26374 0.26608 0.38471 0.0
O296 O 0.42651 0.23413 0.39716 0.0
O297 O 0.30448 0.14068 0.40807 0.0
O298 O 0.29178 0.11633 0.36913 0.0
O299 O 0.4051 0.22421 0.4345 0.0
O300 O 0.38731 0.17453 0.36555 0.0
O301 O 0.32738 0.12836 0.35195 0.0
O302 O 0.26277 0.04213 0.39538 0.0
O303 O 0.38245 0.10314 0.37813 0.0
O304 O 0.39998 0.14642 0.41121 0.0
O305 O 0.26569 0.02239 0.35839 0.0
O306 O 0.32011 0.07457 0.41486 0.0
O307 O 0.3568 0.13431 0.43541 0.0
C308 C 0.28161 0.12881 0.38864 0.0
C309 C 0.43936 0.29017 0.42005 0.0
C310 C 0.48306 0.3603 0.41223 0.0
C311 C 0.45225 0.36703 0.41834 0.0
C312 C 0.4095 0.29816 0.42642 0.0
C313 C 0.41588 0.33622 0.42546 0.0
C314 C 0.47645 0.32156 0.41317 0.0
C315 C 0.36324 0.15526 0.3472 0.0
C316 C 0.43111 0.24911 0.41917 0.0
C317 C 0.26859 0.24092 0.41892 0.0
C318 C 0.27721 0.25135 0.39396 0.0
C319 C 0.40685 0.12478 0.39586 0.0
C320 C 0.22393 0.97476 0.38725 0.0
C321 C 0.16207 0.91521 0.39582 0.0
C322 C 0.18316 0.89838 0.40598 0.0
C323 C 0.24444 0.95747 0.39735 0.0
C324 C 0.18281 0.95353 0.38632 0.0
C325 C 0.22405 0.91938 0.40663 0.0
C326 C 0.33464 0.09537 0.43515 0.0
C327 C 0.24483 0.01535 0.37847 0.0
H328 H 0.45653 0.3964 0.41812 0.0
H329 H 0.38111 0.27502 0.43217 0.0
H330 H 0.39252 0.34189 0.43035 0.0
H331 H 0.49976 0.31581 0.4082 0.0
H332 H 0.16801 0.86881 0.41321 0.0
H333 H 0.2761 0.97351 0.39819 0.0
H334 H 0.16702 0.96718 0.37875 0.0
H335 H 0.23996 0.90611 0.41445 0.0
Eu336 Eu 0.78259 0.7092 0.13897 0.0
C337 C 0.90746 0.69146 0.07766 0.0
N338 N 0.86862 0.67544 0.0726 0.0
C339 C 0.88251 0.69135 0.02964 0.0
C340 C 0.93551 0.70864 0.05865 0.0
C341 C 0.85572 0.67481 0.04907 0.0
C342 C 0.92256 0.70834 0.03443 0.0
C343 C 0.95955 0.71026 0.10794 0.0
C344 C 0.91934 0.69237 0.10217 0.0
C345 C 0.98747 0.72694 0.08895 0.0
C346 C 0.9755 0.72613 0.06441 0.0
Eu347 Eu 0.82632 0.6467 0.10639 0.0
N348 N 0.89177 0.67726 0.12042 0.0
C349 C 0.9706 0.71135 0.1327 0.0
C350 C 0.90237 0.67651 0.14438 0.0
C351 C 0.94187 0.69412 0.15095 0.0
H352 H 0.82476 0.66098 0.04518 0.0
H353 H 0.95011 0.69394 0.17006 0.0
H354 H 0.76311 0.67049 0.19602 0.0
H355 H 0.68701 0.72536 0.07229 0.0
H356 H 0.88074 0.66163 0.15846 0.0
H357 H 1.00119 0.72503 0.13788 0.0
H358 H 0.75007 0.73881 0.08996 0.0
H359 H 0.87225 0.69083 0.01096 0.0
H360 H 0.01846 0.74092 0.09309 0.0
H361 H 0.99746 0.73951 0.05003 0.0
H362 H 0.70531 0.63198 0.22264 0.0
H363 H 0.94324 0.72126 0.01933 0.0
H364 H 0.62554 0.68312 0.09499 0.0
N365 N 0.72986 0.67331 0.16599 0.0
C366 C 0.69424 0.66607 0.15773 0.0
C367 C 0.70177 0.64118 0.2044 0.0
C368 C 0.66056 0.64485 0.17247 0.0
C369 C 0.73435 0.6624 0.18919 0.0
C370 C 0.66466 0.63213 0.19595 0.0
N371 N 0.7244 0.6999 0.12039 0.0
C372 C 0.72339 0.71819 0.09917 0.0
C373 C 0.65476 0.67226 0.1254 0.0
C374 C 0.69141 0.67931 0.13425 0.0
C375 C 0.65313 0.68792 0.10243 0.0
C376 C 0.68771 0.71158 0.08948 0.0
H377 H 0.63945 0.61568 0.20779 0.0
H378 H 0.59772 0.6205 0.17434 0.0
H379 H 0.59267 0.64471 0.13329 0.0
O380 O 0.79437 0.77048 0.13502 0.0
O381 O 0.74316 0.64223 0.13891 0.0
O382 O 0.76082 0.61837 0.10494 0.0
O383 O 0.78623 0.74272 0.17132 0.0
O384 O 0.79765 0.71781 0.09798 0.0
O385 O 0.78499 0.65791 0.08217 0.0
O386 O 0.83317 0.59736 0.11842 0.0
O387 O 0.86036 0.71326 0.10407 0.0
O388 O 0.84776 0.73204 0.1413 0.0
O389 O 0.82352 0.60369 0.07972 0.0
O390 O 0.80953 0.63423 0.14755 0.0
O391 O 0.82139 0.69424 0.16133 0.0
C392 C 0.73646 0.61445 0.12274 0.0
C393 C 0.7994 0.80919 0.17242 0.0
C394 C 0.80901 0.87545 0.17381 0.0
C395 C 0.81173 0.87481 0.1998 0.0
C396 C 0.80176 0.80944 0.19844 0.0
C397 C 0.808 0.84204 0.21194 0.0
C398 C 0.80329 0.84252 0.16004 0.0
C399 C 0.78495 0.6914 0.0802 0.0
C400 C 0.7932 0.77386 0.15903 0.0
C401 C 0.62396 0.63694 0.16334 0.0
C402 C 0.62108 0.65062 0.1399 0.0
C403 C 0.87096 0.73826 0.12242 0.0
C404 C 0.80731 0.54016 0.0937 0.0
C405 C 0.80631 0.47762 0.09482 0.0
C406 C 0.76716 0.45891 0.08673 0.0
C407 C 0.76854 0.52094 0.08519 0.0
C408 C 0.82608 0.51838 0.09871 0.0
C409 C 0.74844 0.48042 0.08207 0.0
C410 C 0.81466 0.65876 0.16566 0.0
C411 C 0.8294 0.58303 0.09621 0.0
H412 H 0.81718 0.89997 0.21085 0.0
H413 H 0.79904 0.78442 0.20851 0.0
H414 H 0.81008 0.84196 0.23194 0.0
H415 H 0.8013 0.84261 0.14002 0.0
H416 H 0.75105 0.42754 0.08383 0.0
H417 H 0.75394 0.53728 0.08073 0.0
H418 H 0.85639 0.53331 0.1047 0.0
H419 H 0.71842 0.46569 0.07565 0.0
Eu420 Eu 0.8368 0.18698 0.40401 0.0
C421 C 0.97234 0.30493 0.33113 0.0
N422 N 0.95308 0.26518 0.33138 0.0
C423 C 0.94983 0.26341 0.28711 0.0
C424 C 0.98048 0.32559 0.3086 0.0
C425 C 0.94253 0.24424 0.30989 0.0
C426 C 0.96863 0.30428 0.28646 0.0
C427 C 1.00535 0.3663 0.3538 0.0
C428 C 0.98472 0.32509 0.35346 0.0
C429 C 0.01294 0.387 0.33139 0.0
C430 C 1.00053 0.36671 0.30887 0.0
Eu431 Eu 0.94126 0.23581 0.37063 0.0
N432 N 0.9762 0.3043 0.37492 0.0
C433 C 0.01793 0.38543 0.37665 0.0
C434 C 0.98979 0.32262 0.39712 0.0
C435 C 1.01041 0.36348 0.39837 0.0
H436 H 0.92887 0.2127 0.31033 0.0
H437 H 0.02053 0.37801 0.41607 0.0
H438 H 0.85038 0.18404 0.46517 0.0
H439 H 0.76368 0.06826 0.33673 0.0
H440 H 0.98413 0.30569 0.41382 0.0
H441 H 0.03386 0.4171 0.37769 0.0
H442 H 0.7985 0.13658 0.3507 0.0
H443 H 0.9412 0.24655 0.27017 0.0
H444 H 0.02863 0.41871 0.33127 0.0
H445 H 1.00692 0.3831 0.29173 0.0
H446 H 0.83364 0.13413 0.49774 0.0
H447 H 0.9745 0.31918 0.2688 0.0
H448 H 0.74522 0.01478 0.36703 0.0
N449 N 0.82376 0.14226 0.4363 0.0
C450 C 0.80267 0.10382 0.42996 0.0
C451 C 0.82492 0.12524 0.47874 0.0
C452 C 0.79207 0.07438 0.44803 0.0
C453 C 0.8347 0.15343 0.46023 0.0
C454 C 0.80354 0.08555 0.47263 0.0
N455 N 0.80423 0.12275 0.38793 0.0
C456 C 0.79287 0.11396 0.36383 0.0
C457 C 0.77112 0.05408 0.39816 0.0
C458 C 0.79255 0.0938 0.40518 0.0
C459 C 0.76145 0.04494 0.37317 0.0
C460 C 0.77209 0.07503 0.35597 0.0
H461 H 0.79598 0.06378 0.48704 0.0
H462 H 0.76213 0.01185 0.45467 0.0
H463 H 0.74329 0.99415 0.41114 0.0
O464 O 0.78004 0.17765 0.39172 0.0
O465 O 0.87328 0.15685 0.40521 0.0
O466 O 0.90025 0.17049 0.36676 0.0
O467 O 0.795 0.18726 0.43057 0.0
O468 O 0.84159 0.20836 0.36367 0.0
O469 O 0.88774 0.19471 0.34922 0.0
O470 O 0.98827 0.23068 0.38854 0.0
O471 O 0.91461 0.27597 0.37586 0.0
O472 O 0.87118 0.2518 0.40885 0.0
O473 O 0.98777 0.23554 0.34877 0.0
O474 O 0.93868 0.22436 0.41188 0.0
O475 O 0.88714 0.22754 0.43001 0.0
C476 C 0.88663 0.14702 0.38593 0.0
C477 C 0.74938 0.20476 0.41528 0.0
C478 C 0.68911 0.20788 0.41364 0.0
C479 C 0.71106 0.2483 0.41845 0.0
C480 C 0.77082 0.24511 0.41982 0.0
C481 C 0.75166 0.26676 0.42137 0.0
C482 C 0.70861 0.18628 0.41188 0.0
C483 C 0.86033 0.20341 0.34508 0.0
C484 C 0.76893 0.18143 0.41374 0.0
C485 C 0.77062 0.03487 0.44103 0.0
C486 C 0.76002 0.02477 0.41621 0.0
C487 C 0.89299 0.27965 0.3932 0.0
C488 C 1.00974 0.19466 0.36522 0.0
C489 C 0.05043 0.16471 0.37019 0.0
C490 C 0.01869 0.12849 0.36304 0.0
C491 C 0.97872 0.15845 0.35737 0.0
C492 C 0.04591 0.1979 0.37131 0.0
C493 C 0.98309 0.12549 0.35651 0.0
C494 C 0.92353 0.23385 0.43046 0.0
C495 C 1.00376 0.22847 0.3677 0.0
H496 H 0.69681 0.26568 0.41979 0.0
H497 H 0.80224 0.25975 0.42221 0.0
H498 H 0.76829 0.29792 0.42492 0.0
H499 H 0.69203 0.15503 0.40839 0.0
H500 H 0.02176 0.10269 0.36204 0.0
H501 H 0.95116 0.15566 0.3518 0.0
H502 H 0.07019 0.22584 0.37712 0.0
H503 H 0.95889 0.09762 0.35065 0.0
Eu504 Eu 0.18712 0.36386 0.60826 0.0
C505 C 0.06545 0.34224 0.69187 0.0
N506 N 0.07654 0.3163 0.68468 0.0
C507 C 0.08607 0.30486 0.72709 0.0
C508 C 0.06591 0.35196 0.71704 0.0
C509 C 0.08478 0.29602 0.70188 0.0
C510 C 0.07748 0.33365 0.73467 0.0
C511 C 0.03425 0.37982 0.68112 0.0
C512 C 0.04996 0.356 0.67422 0.0
C513 C 0.03712 0.39194 0.70589 0.0
C514 C 0.05298 0.37805 0.72384 0.0
Eu515 Eu 0.07857 0.30694 0.64152 0.0
N516 N 0.04688 0.34294 0.65068 0.0
C517 C 0.01449 0.38911 0.66317 0.0
C518 C 0.02479 0.34903 0.63367 0.0
C519 C 1.00905 0.37296 0.63945 0.0
H520 H 0.09163 0.27387 0.69605 0.0
H521 H 0.99278 0.37892 0.62564 0.0
H522 H 0.17601 0.33115 0.55053 0.0
H523 H 0.27569 0.35357 0.68359 0.0
H524 H 0.02084 0.33668 0.61532 0.0
H525 H 1.00201 0.40739 0.66769 0.0
H526 H 0.24105 0.38157 0.66162 0.0
H527 H 0.09387 0.28963 0.74062 0.0
H528 H 0.02572 0.41073 0.71153 0.0
H529 H 0.05359 0.38634 0.74305 0.0
H530 H 0.19166 0.28836 0.52528 0.0
H531 H 0.07839 0.34038 0.75421 0.0
H532 H 0.28594 0.30312 0.66338 0.0
N533 N 0.20096 0.32345 0.58337 0.0
C534 C 0.22195 0.30851 0.59392 0.0
C535 C 0.20013 0.29357 0.54459 0.0
C536 C 0.23192 0.28427 0.5802 0.0
C537 C 0.19099 0.31745 0.55893 0.0
C538 C 0.22042 0.27663 0.55532 0.0
N539 N 0.22516 0.34265 0.63077 0.0
C540 C 0.24226 0.35742 0.65322 0.0
C541 C 0.25544 0.3024 0.62984 0.0
C542 C 0.23355 0.31758 0.61846 0.0
C543 C 0.26916 0.31422 0.65397 0.0
C544 C 0.26325 0.34251 0.66549 0.0
H545 H 0.22738 0.25802 0.5442 0.0
H546 H 0.26002 0.24903 0.58164 0.0
H547 H 0.28057 0.26484 0.62511 0.0
O548 O 0.24991 0.4041 0.60374 0.0
O549 O 0.14477 0.29804 0.60407 0.0
O550 O 0.12 0.28319 0.64293 0.0
O551 O 0.20899 0.40996 0.58015 0.0
O552 O 0.18269 0.37892 0.6488 0.0
O553 O 0.13434 0.31876 0.66087 0.0
O554 O 0.04393 0.25229 0.62107 0.0
O555 O 0.09812 0.36661 0.6233 0.0
O556 O 0.16482 0.39897 0.62864 0.0
O557 O 0.0222 0.26089 0.6556 0.0
O558 O 0.07749 0.31429 0.60024 0.0
O559 O 0.13804 0.34985 0.57999 0.0
C560 C 0.13303 0.27418 0.62315 0.0
C561 C 0.26773 0.46826 0.59146 0.0
C562 C 0.33019 0.52855 0.59799 0.0
C563 C 0.31011 0.54963 0.59865 0.0
C564 C 0.24843 0.4901 0.59227 0.0
C565 C 0.26953 0.53047 0.59597 0.0
C566 C 0.30881 0.48767 0.5946 0.0
C567 C 0.16242 0.35391 0.66645 0.0
C568 C 0.24543 0.42547 0.5872 0.0
C569 C 0.25261 0.26819 0.59175 0.0
C570 C 0.26414 0.27705 0.61655 0.0
C571 C 0.13225 0.39919 0.62412 0.0
C572 C 1.01052 0.19755 0.64693 0.0
C573 C 0.96879 0.12667 0.65047 0.0
C574 C 0.99832 0.12534 0.66437 0.0
C575 C 0.03943 0.19539 0.66091 0.0
C576 C 0.97524 0.16304 0.64148 0.0
C577 C 0.0334 0.15946 0.66945 0.0
C578 C 0.09911 0.32964 0.58027 0.0
C579 C 0.0176 0.23598 0.63831 0.0
H580 H 0.32597 0.5811 0.60118 0.0
H581 H 0.21702 0.47608 0.58991 0.0
H582 H 0.25439 0.54704 0.59653 0.0
H583 H 0.32413 0.47123 0.59383 0.0
H584 H 0.99434 0.09774 0.67121 0.0
H585 H 0.06667 0.22154 0.6653 0.0
H586 H 0.95274 0.16458 0.6308 0.0
H587 H 0.05593 0.15808 0.68014 0.0
Eu588 Eu 0.23811 0.93233 0.87523 0.0
C589 C 0.10657 0.79318 0.93719 0.0
N590 N 0.14566 0.81313 0.94201 0.0
C591 C 0.13316 0.81415 0.98534 0.0
C592 C 0.07912 0.78334 0.95648 0.0
C593 C 0.15933 0.82336 0.96562 0.0
C594 C 0.0929 0.79416 0.98075 0.0
C595 C 0.05361 0.76286 0.90723 0.0
C596 C 0.09394 0.78316 0.91279 0.0
C597 C 0.02623 0.75306 0.92642 0.0
C598 C 0.03893 0.76327 0.95096 0.0
Eu599 Eu 0.18692 0.82692 0.90753 0.0
N600 N 0.1211 0.79429 0.89442 0.0
C601 C 0.04202 0.75322 0.88251 0.0
C602 C 0.11 0.78333 0.87049 0.0
C603 C 0.07035 0.76314 0.86411 0.0
H604 H 0.19039 0.83814 0.96935 0.0
H605 H 0.06166 0.75512 0.84501 0.0
H606 H 0.25248 0.91403 0.81672 0.0
H607 H 0.34385 0.03163 0.94314 0.0
H608 H 0.1315 0.78972 0.85632 0.0
H609 H 0.01132 0.73779 0.87747 0.0
H610 H 0.27849 0.99153 0.92456 0.0
H611 H 0.14405 0.82234 1.00406 0.0
H612 H 0.99513 0.73764 0.92248 0.0
H613 H 0.01741 0.75554 0.96554 0.0
H614 H 0.30776 0.92548 0.78964 0.0
H615 H 0.07271 0.78711 0.99608 0.0
H616 H 0.40262 0.04133 0.92045 0.0
N617 N 0.2888 0.94403 0.84742 0.0
C618 C 0.32591 0.96671 0.85601 0.0
C619 C 0.31326 0.93709 0.80829 0.0
C620 C 0.35836 0.9746 0.84109 0.0
C621 C 0.282 0.93012 0.82375 0.0
C622 C 0.35162 0.95921 0.81703 0.0
N623 N 0.29932 0.97358 0.8939 0.0
C624 C 0.30356 0.99311 0.91551 0.0
C625 C 0.36942 1.00563 0.88925 0.0
C626 C 0.33128 0.98152 0.87999 0.0
C627 C 0.37382 0.02257 0.91268 0.0
C628 C 0.34073 0.01696 0.92563 0.0
H629 H 0.37579 0.96456 0.805 0.0
H630 H 0.42167 1.00369 0.83948 0.0
H631 H 0.43137 0.03119 0.8815 0.0
O632 O 0.23193 0.98469 0.88163 0.0
O633 O 0.27221 0.89881 0.87696 0.0
O634 O 0.25173 0.86451 0.9134 0.0
O635 O 0.24 0.96815 0.84433 0.0
O636 O 0.2186 0.92688 0.91547 0.0
O637 O 0.22699 0.87801 0.93295 0.0
O638 O 0.18147 0.773 0.89253 0.0
O639 O 0.1531 0.86006 0.90646 0.0
O640 O 0.17276 0.89381 0.86994 0.0
O641 O 0.18676 0.78256 0.93207 0.0
O642 O 0.20551 0.83093 0.86669 0.0
O643 O 0.19861 0.88149 0.85102 0.0
C644 C 0.27812 0.88156 0.89605 0.0
C645 C 0.23393 0.02606 0.84666 0.0
C646 C 0.2221 0.08126 0.8484 0.0
C647 C 0.23209 0.08861 0.8232 0.0
C648 C 0.24391 0.03432 0.82149 0.0
C649 C 0.24286 0.06528 0.80989 0.0
C650 C 0.22267 0.04957 0.86016 0.0
C651 C 0.22782 0.91194 0.93439 0.0
C652 C 0.23495 0.99244 0.85797 0.0
C653 C 0.39634 0.99746 0.85062 0.0
C654 C 0.40186 0.01299 0.8746 0.0
C655 C 0.14638 0.87627 0.88727 0.0
C656 C 0.20735 0.74012 0.91521 0.0
C657 C 0.21219 0.68072 0.91304 0.0
C658 C 0.25258 0.70347 0.91782 0.0
C659 C 0.24763 0.76221 0.91979 0.0
C660 C 0.18972 0.69941 0.91151 0.0
C661 C 0.27014 0.74393 0.92101 0.0
C662 C 0.20125 0.84994 0.84795 0.0
C663 C 0.18335 0.75907 0.91404 0.0
H664 H 0.23151 0.11258 0.81374 0.0
H665 H 0.25261 0.0168 0.81064 0.0
H666 H 0.25053 0.07128 0.7905 0.0
H667 H 0.21494 0.04366 0.87958 0.0
H668 H 0.27062 0.68991 0.91898 0.0
H669 H 0.2615 0.79348 0.9225 0.0
H670 H 0.1585 0.68225 0.90803 0.0
H671 H 0.30127 0.76114 0.92458 0.0
Eu672 Eu 0.65115 0.823 0.60757 0.0
C673 C 0.66814 0.71269 0.68973 0.0
N674 N 0.69219 0.75109 0.68449 0.0
C675 C 0.70075 0.76661 0.72776 0.0
C676 C 0.65876 0.69973 0.71443 0.0
C677 C 0.70959 0.77793 0.70296 0.0
C678 C 0.67488 0.72738 0.73353 0.0
C679 C 0.63093 0.64569 0.67512 0.0
C680 C 0.65427 0.68605 0.67035 0.0
C681 C 0.6205 0.63268 0.69965 0.0
C682 C 0.63431 0.65965 0.71925 0.0
Eu683 Eu 0.7017 0.76793 0.64221 0.0
N684 N 0.66462 0.69953 0.64685 0.0
C685 C 0.61939 0.61962 0.65511 0.0
C686 C 0.65519 0.6743 0.62738 0.0
C687 C 0.63195 0.63398 0.63117 0.0
H688 H 0.72993 0.8082 0.69852 0.0
H689 H 0.62365 0.61404 0.61564 0.0
H690 H 0.68114 0.84233 0.54878 0.0
H691 H 0.6715 0.92505 0.68281 0.0
H692 H 0.66451 0.68549 0.60889 0.0
H693 H 0.60139 0.58837 0.65799 0.0
H694 H 0.6395 0.86206 0.66106 0.0
H695 H 0.71389 0.78809 0.74239 0.0
H696 H 0.60231 0.60179 0.70369 0.0
H697 H 0.62654 0.64912 0.7381 0.0
H698 H 0.7252 0.89931 0.523 0.0
H699 H 0.66823 0.71865 0.75275 0.0
H700 H 0.72313 0.98398 0.66176 0.0
N701 N 0.69145 0.87589 0.58154 0.0
C702 C 0.70943 0.91203 0.59201 0.0
C703 C 0.72115 0.90327 0.5424 0.0
C704 C 0.73464 0.9454 0.57797 0.0
C705 C 0.69645 0.87104 0.55705 0.0
C706 C 0.7405 0.9406 0.55292 0.0
N707 N 0.67742 0.88285 0.62979 0.0
C708 C 0.6642 0.88649 0.65244 0.0
C709 C 0.72017 0.95286 0.62806 0.0
C710 C 0.70251 0.91556 0.61686 0.0
C711 C 0.71019 0.95589 0.65249 0.0
C712 C 0.68131 0.92267 0.6645 0.0
H713 H 0.75969 0.96552 0.54153 0.0
H714 H 0.7731 0.00827 0.57893 0.0
H715 H 0.76029 0.01483 0.62274 0.0
O716 O 0.5963 0.82198 0.61611 0.0
O717 O 0.71749 0.8481 0.60583 0.0
O718 O 0.72863 0.83364 0.64457 0.0
O719 O 0.61602 0.8295 0.57838 0.0
O720 O 0.63346 0.8008 0.64777 0.0
O721 O 0.69284 0.81305 0.66126 0.0
O722 O 0.75347 0.77894 0.62099 0.0
O723 O 0.63515 0.73077 0.63571 0.0
O724 O 0.61961 0.75797 0.6024 0.0
O725 O 0.74813 0.76083 0.65922 0.0
O726 O 0.69841 0.76191 0.60067 0.0
O727 O 0.66492 0.78785 0.57906 0.0
C728 C 0.74012 0.85711 0.62536 0.0
C729 C 0.58323 0.86349 0.59146 0.0
C730 C 0.5405 0.89147 0.59847 0.0
C731 C 0.57042 0.9275 0.58933 0.0
C732 C 0.61226 0.89983 0.58231 0.0
C733 C 0.60589 0.93154 0.58136 0.0
C734 C 0.54721 0.85939 0.59947 0.0
C735 C 0.65748 0.80567 0.66611 0.0
C736 C 0.59103 0.83049 0.59371 0.0
C737 C 0.75332 0.98234 0.58935 0.0
C738 C 0.74616 0.98605 0.61433 0.0
C739 C 0.61153 0.72905 0.61772 0.0
C740 C 0.81115 0.80594 0.64473 0.0
C741 C 0.88183 0.83367 0.64208 0.0
C742 C 0.88713 0.86876 0.65222 0.0
C743 C 0.8171 0.84091 0.65552 0.0
C744 C 0.8437 0.80218 0.63824 0.0
C745 C 0.85487 0.87225 0.65899 0.0
C746 C 0.68538 0.76927 0.58004 0.0
C747 C 0.77104 0.77396 0.63997 0.0
H748 H 0.56615 0.95252 0.58781 0.0
H749 H 0.63992 0.90385 0.57579 0.0
H750 H 0.62852 0.9594 0.57424 0.0
H751 H 0.52477 0.83149 0.60673 0.0
H752 H 0.91632 0.89322 0.6553 0.0
H753 H 0.79255 0.84393 0.66137 0.0
H754 H 0.83945 0.77511 0.63022 0.0
H755 H 0.85915 0.89922 0.66712 0.0
Eu756 Eu 0.08248 0.30568 0.88082 0.0
C757 C 0.22065 0.31759 0.9368 0.0
N758 N 0.20271 0.33886 0.94111 0.0
C759 C 0.19759 0.32265 0.98435 0.0
C760 C 0.22611 0.29648 0.95599 0.0
C761 C 0.19347 0.34361 0.9648 0.0
C762 C 0.21326 0.29834 0.97985 0.0
C763 C 0.25821 0.30067 0.90888 0.0
C764 C 0.23643 0.31948 0.91358 0.0
C765 C 0.26176 0.27777 0.92751 0.0
C766 C 0.24567 0.27561 0.95102 0.0
Eu767 Eu 0.19372 0.3699 0.90594 0.0
N768 N 0.23198 0.34128 0.89582 0.0
C769 C 0.27671 0.30646 0.88584 0.0
C770 C 0.25197 0.34924 0.87396 0.0
C771 C 0.27421 0.3315 0.86849 0.0
H772 H 0.18313 0.36374 0.96887 0.0
H773 H 0.28914 0.33689 0.85087 0.0
H774 H 0.09189 0.34905 0.82611 0.0
H775 H 0.97831 0.27928 0.95523 0.0
H776 H 0.24955 0.36833 0.86053 0.0
H777 H 0.29377 0.29256 0.88153 0.0
H778 H 0.02486 0.26796 0.93083 0.0
H779 H 0.18922 0.32574 1.00295 0.0
H780 H 0.27787 0.26256 0.92416 0.0
H781 H 0.24973 0.25885 0.96546 0.0
H782 H 0.07083 0.39195 0.80592 0.0
H783 H 0.21689 0.28254 0.9951 0.0
H784 H 0.96062 0.32817 0.94102 0.0
N785 N 0.06279 0.34548 0.85996 0.0
C786 C 0.03778 0.35378 0.87228 0.0
C787 C 0.0616 0.38169 0.82465 0.0
C788 C 0.02494 0.37799 0.86155 0.0
C789 C 0.07355 0.35755 0.83609 0.0
C790 C 0.0376 0.3924 0.83756 0.0
N791 N 0.03618 0.31262 0.9047 0.0
C792 C 0.01859 0.29054 0.92516 0.0
C793 C 0.99734 0.34402 0.90836 0.0
C794 C 0.02451 0.33726 0.89548 0.0
C795 C 0.98166 0.32389 0.93058 0.0
C796 C 0.99166 0.29635 0.93871 0.0
H797 H 0.02835 0.41109 0.82865 0.0
H798 H 0.98936 0.40515 0.86702 0.0
H799 H 0.965 0.37522 0.90795 0.0
O800 O 0.02508 0.25211 0.87921 0.0
O801 O 0.11401 0.37347 0.88023 0.0
O802 O 0.15113 0.3899 0.91535 0.0
O803 O 0.06325 0.26985 0.84747 0.0
O804 O 0.09647 0.29423 0.91962 0.0
O805 O 0.14346 0.35471 0.93367 0.0
O806 O 0.23539 0.42571 0.88907 0.0
O807 O 0.1743 0.31417 0.88431 0.0
O808 O 0.11201 0.27396 0.89775 0.0
O809 O 0.24561 0.41287 0.92625 0.0
O810 O 0.18243 0.38016 0.86558 0.0
O811 O 0.12982 0.32106 0.8525 0.0
C812 C 0.132 0.39778 0.89868 0.0
C813 C 0.02745 0.20225 0.85639 0.0
C814 C 0.98656 0.13107 0.85808 0.0
C815 C 0.01999 0.12772 0.8539 0.0
C816 C 0.06041 0.19802 0.8523 0.0
C817 C 0.05663 0.16099 0.85115 0.0
C818 C 0.9905 0.16857 0.85959 0.0
C819 C 0.11187 0.32022 0.93739 0.0
C820 C 0.03195 0.24173 0.85778 0.0
C821 C 0.99936 0.38634 0.87485 0.0
C822 C 0.98557 0.36937 0.8982 0.0
C823 C 0.14593 0.27926 0.89016 0.0
C824 C 0.27697 0.47949 0.91416 0.0
C825 C 0.33575 0.54394 0.91539 0.0
C826 C 0.31321 0.55939 0.92524 0.0
C827 C 0.25497 0.4953 0.92395 0.0
C828 C 0.3172 0.50382 0.90972 0.0
C829 C 0.27308 0.5352 0.92938 0.0
C830 C 0.16157 0.35474 0.8481 0.0
C831 C 0.25874 0.43785 0.90807 0.0
H832 H 0.01779 0.09922 0.85298 0.0
H833 H 0.08922 0.22335 0.84994 0.0
H834 H 0.08221 0.15808 0.84808 0.0
H835 H 0.96494 0.17153 0.86284 0.0
H836 H 0.32659 0.59025 0.9296 0.0
H837 H 0.22397 0.47679 0.92739 0.0
H838 H 0.33416 0.49134 0.9023 0.0
H839 H 0.256 0.54742 0.93687 0.0
Eu840 Eu 0.19355 0.82694 0.60791 0.0
C841 C 0.2978 0.96206 0.68813 0.0
N842 N 0.25862 0.93967 0.68465 0.0
C843 C 0.24863 0.93001 0.72849 0.0
C844 C 0.31414 0.96851 0.7121 0.0
C845 C 0.23382 0.9251 0.7044 0.0
C846 C 0.28904 0.95142 0.73233 0.0
C847 C 0.36173 1.00675 0.67099 0.0
C848 C 0.32131 0.9808 0.66787 0.0
C849 C 0.37842 0.01205 0.69467 0.0
C850 C 0.35469 0.9929 0.71518 0.0
Eu851 Eu 0.23611 0.93244 0.64343 0.0
N852 N 0.3043 0.97531 0.64526 0.0
C853 C 0.38394 0.02736 0.65031 0.0
C854 C 0.32529 0.99691 0.62532 0.0
C855 C 0.36554 0.02269 0.62741 0.0
H856 H 0.2025 0.90987 0.70158 0.0
H857 H 0.38228 0.03902 0.61142 0.0
H858 H 0.18401 0.84843 0.54949 0.0
H859 H 0.08156 0.74001 0.67727 0.0
H860 H 0.31096 0.99333 0.60771 0.0
H861 H 0.4151 0.04752 0.65193 0.0
H862 H 0.14815 0.77625 0.66062 0.0
H863 H 0.22889 0.91772 0.74407 0.0
H864 H 0.40949 0.03159 0.69741 0.0
H865 H 0.36781 0.99802 0.73343 0.0
H866 H 0.13072 0.83554 0.52 0.0
H867 H 0.30044 0.95574 0.75103 0.0
H868 H 0.02521 0.72804 0.65105 0.0
N869 N 0.14515 0.81748 0.57899 0.0
C870 C 0.10743 0.79484 0.58655 0.0
C871 C 0.12381 0.82413 0.53869 0.0
C872 C 0.07619 0.78698 0.57043 0.0
C873 C 0.15387 0.83154 0.55539 0.0
C874 C 0.08481 0.8019 0.54626 0.0
N875 N 0.1309 0.78959 0.62625 0.0
C876 C 0.12443 0.77363 0.64941 0.0
C877 C 0.06121 0.75894 0.61942 0.0
C878 C 0.10013 0.78105 0.61089 0.0
C879 C 0.05466 0.745 0.64379 0.0
C880 C 0.08639 0.75194 0.65871 0.0
H881 H 0.0616 0.79647 0.53333 0.0
H882 H 0.01313 0.75902 0.56693 0.0
H883 H 1.00002 0.73457 0.60976 0.0
O884 O 0.17687 0.76475 0.6093 0.0
O885 O 0.16412 0.8644 0.60591 0.0
O886 O 0.17211 0.88658 0.6454 0.0
O887 O 0.20854 0.80034 0.57721 0.0
O888 O 0.21163 0.82837 0.64847 0.0
O889 O 0.19742 0.87443 0.66186 0.0
O890 O 0.22453 0.97515 0.62481 0.0
O891 O 0.28312 0.9184 0.62966 0.0
O892 O 0.25376 0.85085 0.62438 0.0
O893 O 0.22468 0.97267 0.66468 0.0
O894 O 0.22859 0.92988 0.60181 0.0
O895 O 0.23608 0.88024 0.58427 0.0
C896 C 0.15072 0.87393 0.62534 0.0
C897 C 0.19111 0.7313 0.57618 0.0
C898 C 0.17598 0.66285 0.57726 0.0
C899 C 0.18634 0.66579 0.55215 0.0
C900 C 0.20149 0.73322 0.55113 0.0
C901 C 0.19915 0.70072 0.53927 0.0
C902 C 0.17859 0.69588 0.58938 0.0
C903 C 0.20837 0.84882 0.66661 0.0
C904 C 0.19198 0.76592 0.5877 0.0
C905 C 0.03751 0.76515 0.579 0.0
C906 C 0.03006 0.75129 0.60342 0.0
C907 C 0.28474 0.88597 0.62614 0.0
C908 C 0.24249 0.0337 0.6468 0.0
C909 C 0.24142 0.09499 0.6434 0.0
C910 C 0.28058 0.11535 0.65145 0.0
C911 C 0.2815 0.05458 0.65484 0.0
C912 C 0.22248 0.05394 0.64116 0.0
C913 C 0.30039 0.09522 0.65713 0.0
C914 C 0.24198 0.91657 0.58423 0.0
C915 C 0.2217 0.99076 0.6454 0.0
H916 H 0.18476 0.64093 0.5425 0.0
H917 H 0.21098 0.75979 0.54052 0.0
H918 H 0.2071 0.70256 0.51992 0.0
H919 H 0.17035 0.69375 0.60871 0.0
H920 H 0.29569 0.14683 0.65382 0.0
H921 H 0.29717 0.03948 0.65966 0.0
H922 H 0.19226 0.03775 0.63506 0.0
H923 H 0.33038 0.11114 0.66357 0.0
Eu924 Eu 0.70932 0.77719 0.87633 0.0
C925 C 0.69901 0.90964 0.93909 0.0
N926 N 0.67972 0.87034 0.94302 0.0
C927 C 0.68822 0.88036 0.98686 0.0
C928 C 0.71403 0.93599 0.95913 0.0
C929 C 0.67381 0.85534 0.96642 0.0
C930 C 0.70848 0.92085 0.98321 0.0
C931 C 0.72462 0.96425 0.91022 0.0
C932 C 0.70435 0.92366 0.91487 0.0
C933 C 0.73947 0.99054 0.93018 0.0
C934 C 0.73423 0.97646 0.95454 0.0
Eu935 Eu 0.65641 0.83112 0.90734 0.0
N936 N 0.69111 0.89755 0.89582 0.0
C937 C 0.72979 0.97719 0.88561 0.0
C938 C 0.6947 0.90991 0.87188 0.0
C939 C 0.71454 0.94989 0.86638 0.0
H940 H 0.65741 0.82408 0.9694 0.0
H941 H 0.71792 0.95962 0.84733 0.0
H942 H 0.66968 0.75626 0.81959 0.0
H943 H 0.70848 0.67902 0.94819 0.0
H944 H 0.6823 0.8891 0.85701 0.0
H945 H 0.74533 0.00815 0.88128 0.0
H946 H 0.733 0.74198 0.9264 0.0
H947 H 0.68353 0.86842 1.00542 0.0
H948 H 0.75525 0.02184 0.92695 0.0
H949 H 0.74601 0.99714 0.96972 0.0
H950 H 0.62257 0.69806 0.79572 0.0
H951 H 0.71961 0.94016 0.9991 0.0
H952 H 0.65544 0.61834 0.92945 0.0
N953 N 0.66604 0.72361 0.85176 0.0
C954 C 0.65186 0.68763 0.86221 0.0
C955 C 0.63032 0.69477 0.81446 0.0
C956 C 0.62507 0.65367 0.84929 0.0
C957 C 0.65665 0.72766 0.82804 0.0
C958 C 0.61417 0.65763 0.82521 0.0
N959 N 0.69019 0.71835 0.89797 0.0
C960 C 0.70798 0.71625 0.91909 0.0
C961 C 0.65005 0.64806 0.8972 0.0
C962 C 0.66382 0.68503 0.88609 0.0
C963 C 0.66522 0.64618 0.9203 0.0
C964 C 0.69498 0.68037 0.93102 0.0
H965 H 0.59368 0.6322 0.81466 0.0
H966 H 0.58937 0.59052 0.85117 0.0
H967 H 0.6115 0.58556 0.89296 0.0
O968 O 0.76657 0.77935 0.88049 0.0
O969 O 0.64196 0.74683 0.87736 0.0
O970 O 0.63053 0.76688 0.91448 0.0
O971 O 0.73936 0.77255 0.84417 0.0
O972 O 0.7253 0.79964 0.91597 0.0
O973 O 0.66825 0.79196 0.93323 0.0
O974 O 0.60751 0.83358 0.8901 0.0
O975 O 0.72304 0.86629 0.90527 0.0
O976 O 0.7395 0.84279 0.87101 0.0
O977 O 0.61125 0.83295 0.92998 0.0
O978 O 0.64357 0.81354 0.86625 0.0
O979 O 0.70025 0.81749 0.85136 0.0
C980 C 0.61987 0.74066 0.89698 0.0
C981 C 0.80133 0.77406 0.84388 0.0
C982 C 0.86817 0.7847 0.84237 0.0
C983 C 0.86273 0.77528 0.81695 0.0
C984 C 0.79678 0.76384 0.81867 0.0
C985 C 0.82728 0.76456 0.80536 0.0
C986 C 0.83709 0.78425 0.85581 0.0
C987 C 0.70176 0.792 0.93507 0.0
C988 C 0.76896 0.77567 0.85664 0.0
C989 C 0.61017 0.61697 0.86074 0.0
C990 C 0.62265 0.61417 0.8846 0.0
C991 C 0.74726 0.87045 0.88729 0.0
C992 C 0.54841 0.80987 0.91229 0.0
C993 C 0.48394 0.80467 0.91071 0.0
C994 C 0.46673 0.76434 0.91554 0.0
C995 C 0.5306 0.76966 0.91698 0.0
C996 C 0.52501 0.82731 0.90884 0.0
C997 C 0.48993 0.74699 0.9185 0.0
C998 C 0.66712 0.81698 0.84788 0.0
C999 C 0.59129 0.83401 0.91104 0.0
H1000 H 0.88615 0.77674 0.80569 0.0
H1001 H 0.76969 0.75577 0.809 0.0
H1002 H 0.82361 0.75725 0.78585 0.0
H1003 H 0.84067 0.79188 0.87529 0.0
H1004 H 0.43522 0.74616 0.91693 0.0
H1005 H 0.54826 0.756 0.91957 0.0
H1006 H 0.53876 0.8585 0.90533 0.0
H1007 H 0.47633 0.7159 0.92215 0.0
H1008 H 0.15652 0.26027 0.09898 0.0
H1009 H 0.24706 0.14436 0.16491 0.0
H1010 H 0.10717 0.19725 0.16695 0.0
H1011 H 0.2477 0.15683 0.08546 0.0
H1012 H 0.20062 0.16859 0.16802 0.0
H1013 H 0.19638 0.2287 0.09556 0.0
C1014 C 0.15408 0.23968 0.11314 0.0
C1015 C 0.12871 0.23137 0.1333 0.0
C1016 C 0.21077 0.16569 0.14993 0.0
C1017 C 0.17426 0.19543 0.12963 0.0
C1018 C 0.23712 0.15178 0.14812 0.0
C1019 C 0.25169 0.14919 0.12489 0.0
C1020 C 0.19937 0.1774 0.1284 0.0
C1021 C 0.23789 0.15924 0.10376 0.0
C1022 C 0.17662 0.22156 0.11113 0.0
C1023 C 0.12635 0.20427 0.15109 0.0
N1024 N 0.21294 0.17343 0.10603 0.0
N1025 N 0.14923 0.18753 0.14901 0.0
H1026 H 0.11275 0.87254 0.43341 0.0
H1027 H 0.92016 0.77284 0.35097 0.0
H1028 H 0.11246 0.90669 0.35749 0.0
H1029 H 0.91771 0.77437 0.43087 0.0
H1030 H 0.99064 0.81948 0.35213 0.0
H1031 H 0.04139 0.83282 0.43208 0.0
C1032 C 0.09762 0.87169 0.41645 0.0
C1033 C 0.11858 0.89277 0.39549 0.0
C1034 C 0.97455 0.80993 0.36938 0.0
C1035 C 0.03683 0.84749 0.39386 0.0
C1036 C 0.93432 0.78346 0.36874 0.0
C1037 C 0.91317 0.76941 0.39089 0.0
C1038 C 0.9937 0.82222 0.39232 0.0
C1039 C 0.93304 0.78404 0.41338 0.0
C1040 C 0.05688 0.84925 0.41576 0.0
C1041 C 0.09741 0.89102 0.3741 0.0
N1042 N 0.97226 0.80926 0.41353 0.0
N1043 N 0.05768 0.86845 0.37375 0.0
H1044 H 0.87747 0.09258 0.09235 0.0
H1045 H 0.77501 0.91763 0.18842 0.0
H1046 H 0.86056 0.10811 0.16955 0.0
H1047 H 0.85149 0.9148 0.13224 0.0
H1048 H 0.79135 0.98292 0.17461 0.0
H1049 H 0.85537 0.02309 0.10068 0.0
C1050 C 0.86926 0.08134 0.11103 0.0
C1051 C 0.87095 0.10594 0.13036 0.0
C1052 C 0.80427 0.96785 0.16516 0.0
C1053 C 0.84502 0.02713 0.13975 0.0
C1054 C 0.79498 0.93061 0.17299 0.0
C1055 C 0.81273 0.91115 0.16189 0.0
C1056 C 0.83102 0.98571 0.1458 0.0
C1057 C 0.8374 0.92891 0.14143 0.0
C1058 C 0.85672 0.04192 0.11571 0.0
C1059 C 0.85995 0.09019 0.1542 0.0
N1060 N 0.84619 0.96554 0.13413 0.0
N1061 N 0.84708 0.05168 0.15817 0.0
H1062 H 0.23368 0.12506 0.42615 0.0
H1063 H 0.11895 0.20479 0.34477 0.0
H1064 H 0.25489 0.14944 0.34803 0.0
H1065 H 0.06647 0.12869 0.40755 0.0
H1066 H 0.1779 0.199 0.35023 0.0
H1067 H 0.17983 0.13934 0.42365 0.0
C1068 C 0.22679 0.13323 0.40848 0.0
C1069 C 0.24828 0.13574 0.38722 0.0
C1070 C 0.15362 0.18401 0.36297 0.0
C1071 C 0.18771 0.15279 0.38434 0.0
C1072 C 0.12033 0.18761 0.36001 0.0
C1073 C 0.08817 0.16717 0.37578 0.0
C1074 C 0.15468 0.16027 0.38203 0.0
C1075 C 0.09087 0.14485 0.39508 0.0
C1076 C 0.19625 0.14143 0.40708 0.0
C1077 C 0.23854 0.14667 0.36476 0.0
N1078 N 0.12359 0.14193 0.39768 0.0
N1079 N 0.20905 0.15508 0.36392 0.0
H1080 H 0.10573 0.91534 0.16664 0.0
H1081 H 0.92233 0.77066 0.08413 0.0
H1082 H 0.11607 0.86208 0.09942 0.0
H1083 H 0.91346 0.77768 0.16345 0.0
H1084 H 0.99275 0.81586 0.08694 0.0
H1085 H 0.03401 0.87607 0.16323 0.0
C1086 C 0.09282 0.89558 0.1511 0.0
C1087 C 0.1166 0.89157 0.13336 0.0
C1088 C 0.9753 0.80773 0.10369 0.0
C1089 C 0.03529 0.84735 0.12922 0.0
C1090 C 0.93518 0.78194 0.10212 0.0
C1091 C 0.91222 0.76979 0.12364 0.0
C1092 C 0.99244 0.82226 0.12688 0.0
C1093 C 0.93017 0.78614 0.14641 0.0
C1094 C 0.0521 0.87316 0.14924 0.0
C1095 C 0.09864 0.86561 0.1136 0.0
N1096 N 0.96938 0.8115 0.14747 0.0
N1097 N 0.05901 0.84454 0.112 0.0
H1098 H 0.75775 0.89844 0.40188 0.0
H1099 H 0.874 0.09632 0.42361 0.0
H1100 H 0.83582 0.91687 0.34095 0.0
H1101 H 0.87828 0.10427 0.34381 0.0
H1102 H 0.84934 0.02606 0.42042 0.0
H1103 H 0.78971 0.96924 0.40791 0.0
C1104 C 0.78174 0.91756 0.38983 0.0
C1105 C 0.79433 0.90208 0.37096 0.0
C1106 C 0.85583 0.04323 0.40362 0.0
C1107 C 0.83085 0.98288 0.37762 0.0
C1108 C 0.87007 0.0833 0.40541 0.0
C1109 C 0.87753 0.10597 0.38395 0.0
C1110 C 0.84942 0.02573 0.38018 0.0
C1111 C 0.87269 0.08776 0.36082 0.0
C1112 C 0.8001 0.95785 0.39336 0.0
C1113 C 0.82555 0.92792 0.35581 0.0
N1114 N 0.85874 0.04851 0.35952 0.0
N1115 N 0.8425 0.96729 0.35923 0.0
H1116 H 0.16743 0.07671 0.6579 0.0
H1117 H 0.14553 0.24424 0.66549 0.0
H1118 H 0.26771 0.16295 0.61705 0.0
H1119 H 0.14368 0.23277 0.58591 0.0
H1120 H 0.16691 0.19582 0.66904 0.0
H1121 H 0.13601 0.11669 0.65207 0.0
C1122 C 0.18257 0.10368 0.64742 0.0
C1123 C 0.22039 0.11673 0.63812 0.0
C1124 C 0.16147 0.2038 0.65086 0.0
C1125 C 0.18451 0.16183 0.63125 0.0
C1126 C 0.14929 0.23134 0.64874 0.0
C1127 C 0.14341 0.243 0.62527 0.0
C1128 C 0.16815 0.18809 0.6294 0.0
C1129 C 0.14869 0.22515 0.60428 0.0
C1130 C 0.16472 0.12639 0.64423 0.0
C1131 C 0.23875 0.15208 0.62478 0.0
N1132 N 0.16157 0.19903 0.60678 0.0
N1133 N 0.22061 0.17346 0.62171 0.0
H1134 H 0.11062 0.86457 0.84247 0.0
H1135 H 0.90889 0.84007 0.87889 0.0
H1136 H 0.08924 0.86436 0.92088 0.0
H1137 H 0.91614 0.75459 0.83244 0.0
H1138 H 0.97673 0.8634 0.89241 0.0
H1139 H 0.04117 0.84073 0.83459 0.0
C1140 C 0.09147 0.86024 0.85799 0.0
C1141 C 0.10559 0.8664 0.88236 0.0
C1142 C 0.96301 0.83938 0.87938 0.0
C1143 C 0.02653 0.8398 0.8734 0.0
C1144 C 0.92431 0.82585 0.87174 0.0
C1145 C 0.90684 0.79589 0.85392 0.0
C1146 C 0.98436 0.82336 0.86871 0.0
C1147 C 0.92862 0.77877 0.84538 0.0
C1148 C 0.05191 0.84639 0.85349 0.0
C1149 C 0.07934 0.85992 0.90182 0.0
N1150 N 0.96638 0.79329 0.85241 0.0
N1151 N 0.04088 0.8471 0.89694 0.0
H1152 H 0.76872 0.89643 0.66868 0.0
H1153 H 0.92939 0.09771 0.60642 0.0
H1154 H 0.78605 0.90995 0.5896 0.0
H1155 H 0.92368 0.0715 0.68439 0.0
H1156 H 0.87188 0.03252 0.59949 0.0
H1157 H 0.82136 0.96343 0.67434 0.0
C1158 C 0.78374 0.91349 0.65245 0.0
C1159 C 0.77294 0.89758 0.62859 0.0
C1160 C 0.88319 0.04122 0.6181 0.0
C1161 C 0.83333 0.97488 0.63496 0.0
C1162 C 0.91572 0.07844 0.62208 0.0
C1163 C 0.93148 0.08976 0.64597 0.0
C1164 C 0.86627 0.0155 0.63823 0.0
C1165 C 0.9128 0.0637 0.66562 0.0
C1166 C 0.81375 0.95191 0.6557 0.0
C1167 C 0.79336 0.92125 0.60829 0.0
N1168 N 0.88138 0.02785 0.6613 0.0
N1169 N 0.82259 0.95883 0.61191 0.0
H1170 H 0.11201 0.20718 0.91357 0.0
H1171 H 0.26721 0.15966 0.85235 0.0
H1172 H 0.1932 0.27489 0.85574 0.0
H1173 H 0.15433 0.06404 0.87356 0.0
H1174 H 0.24637 0.20583 0.86499 0.0
H1175 H 0.13026 0.156 0.90766 0.0
C1176 C 0.13352 0.21121 0.89967 0.0
C1177 C 0.15208 0.24578 0.88563 0.0
C1178 C 0.22624 0.17476 0.86719 0.0
C1179 C 0.17346 0.18855 0.87931 0.0
C1180 C 0.23823 0.14847 0.86018 0.0
C1181 C 0.21229 0.10811 0.86169 0.0
C1182 C 0.18794 0.16073 0.87581 0.0
C1183 C 0.17512 0.09504 0.87213 0.0
C1184 C 0.14399 0.18224 0.89642 0.0
C1185 C 0.17935 0.24948 0.86766 0.0
N1186 N 0.16373 0.12139 0.87857 0.0
N1187 N 0.18957 0.22158 0.86527 0.0
H1188 H 0.10574 0.87463 0.58699 0.0
H1189 H 0.91248 0.79786 0.66971 0.0
H1190 H 0.10203 0.85114 0.66529 0.0
H1191 H 0.93111 0.86435 0.60274 0.0
H1192 H 0.97709 0.80359 0.66438 0.0
H1193 H 0.03694 0.85838 0.58885 0.0
C1194 C 0.09038 0.86605 0.60454 0.0
C1195 C 0.10951 0.86453 0.62605 0.0
C1196 C 0.96677 0.8164 0.65065 0.0
C1197 C 0.03114 0.84555 0.62827 0.0
C1198 C 0.9299 0.81281 0.65357 0.0
C1199 C 0.9167 0.83042 0.6365 0.0
C1200 C 0.99033 0.83758 0.63044 0.0
C1201 C 0.94039 0.85014 0.61612 0.0
C1202 C 0.05126 0.85681 0.60559 0.0
C1203 C 0.08842 0.85317 0.64834 0.0
N1204 N 0.97621 0.8533 0.61365 0.0
N1205 N 0.0503 0.84398 0.64886 0.0
H1206 H 0.95435 0.06813 0.82733 0.0
H1207 H 0.78106 0.93234 0.91967 0.0
H1208 H 0.93174 0.11173 0.89491 0.0
H1209 H 0.79265 0.8978 0.84568 0.0
H1210 H 0.83611 0.99785 0.91156 0.0
H1211 H 0.89495 1.00543 0.83404 0.0
C1212 C 0.9366 0.06449 0.84352 0.0
C1213 C 0.94803 0.09497 0.86068 0.0
C1214 C 0.82652 0.97595 0.89709 0.0
C1215 C 0.88006 0.0231 0.86867 0.0
C1216 C 0.79503 0.93854 0.90168 0.0
C1217 C 0.78192 0.90958 0.88325 0.0
C1218 C 0.8455 0.98427 0.87403 0.0
C1219 C 0.80174 0.91908 0.86049 0.0
C1220 C 0.90267 0.02872 0.84735 0.0
C1221 C 0.92382 0.08893 0.88122 0.0
N1222 N 0.83253 0.95554 0.85657 0.0
N1223 N 0.89111 0.05347 0.8848 0.0
H1224 H 0.42678 0.16735 0.31888 0.0
H1225 H 0.31817 0.17486 0.1951 0.0
H1226 H 0.31879 0.16987 0.31602 0.0
H1227 H 0.42428 0.16878 0.19259 0.0
H1228 H 0.32448 0.18244 0.23985 0.0
H1229 H 0.43273 0.17635 0.27341 0.0
C1230 C 0.40503 0.17095 0.30877 0.0
C1231 C 0.37247 0.16827 0.32114 0.0
C1232 C 0.34687 0.18005 0.22967 0.0
C1233 C 0.37864 0.17797 0.2695 0.0
C1234 C 0.34336 0.176 0.20405 0.0
C1235 C 0.37094 0.17157 0.19018 0.0
C1236 C 0.37787 0.17897 0.24185 0.0
C1237 C 0.40279 0.1728 0.20268 0.0
C1238 C 0.40819 0.17569 0.28286 0.0
C1239 C 0.34448 0.17201 0.3072 0.0
N1240 N 0.40516 0.17584 0.22793 0.0
N1241 N 0.34815 0.1765 0.28227 0.0
H1242 H 0.8802 0.69698 0.31777 0.0
H1243 H 0.76911 0.59141 0.19235 0.0
H1244 H 0.76591 0.59376 0.31837 0.0
H1245 H 0.87087 0.70634 0.19773 0.0
H1246 H 0.77266 0.58328 0.23753 0.0
H1247 H 0.88314 0.69135 0.2731 0.0
C1248 C 0.85611 0.67239 0.30847 0.0
C1249 C 0.82291 0.64557 0.32174 0.0
C1250 C 0.79456 0.60992 0.22866 0.0
C1251 C 0.82533 0.63969 0.27019 0.0
C1252 C 0.79275 0.61437 0.20294 0.0
C1253 C 0.8198 0.64954 0.19143 0.0
C1254 C 0.82401 0.64063 0.24265 0.0
C1255 C 0.84938 0.67882 0.20594 0.0
C1256 C 0.85759 0.66939 0.28288 0.0
C1257 C 0.79224 0.61465 0.30875 0.0
N1258 N 0.85061 0.67374 0.23069 0.0
N1259 N 0.79388 0.61284 0.28353 0.0
H1260 H 0.83397 0.14353 0.19221 0.0
H1261 H 0.84863 0.25647 0.31856 0.0
H1262 H 0.85249 0.26082 0.19249 0.0
H1263 H 0.84431 0.14538 0.31266 0.0
H1264 H 0.83882 0.25568 0.27328 0.0
H1265 H 0.82478 0.14004 0.23681 0.0
C1266 C 0.83496 0.16822 0.2017 0.0
C1267 C 0.8433 0.20221 0.18865 0.0
C1268 C 0.83919 0.23115 0.28203 0.0
C1269 C 0.83466 0.19933 0.24024 0.0
C1270 C 0.84438 0.23143 0.30783 0.0
C1271 C 0.8468 0.20072 0.31926 0.0
C1272 C 0.83605 0.19972 0.26785 0.0
C1273 C 0.8423 0.16947 0.30455 0.0
C1274 C 0.83014 0.16644 0.22727 0.0
C1275 C 0.84518 0.23375 0.2019 0.0
N1276 N 0.83728 0.16985 0.27973 0.0
N1277 N 0.84148 0.23181 0.22712 0.0
H1278 H 0.17772 0.30794 0.69594 0.0
H1279 H 0.18636 0.42185 0.82068 0.0
H1280 H 0.17641 0.41659 0.6955 0.0
H1281 H 0.16506 0.30359 0.81666 0.0
H1282 H 0.19667 0.42782 0.77541 0.0
H1283 H 0.18835 0.31395 0.74058 0.0
C1284 C 0.18044 0.33349 0.70533 0.0
C1285 C 0.17608 0.36176 0.69226 0.0
C1286 C 0.19044 0.40088 0.78457 0.0
C1287 C 0.18722 0.36848 0.74345 0.0
C1288 C 0.18491 0.39761 0.81033 0.0
C1289 C 0.17489 0.3622 0.82221 0.0
C1290 C 0.18638 0.36862 0.77094 0.0
C1291 C 0.1726 0.33133 0.80809 0.0
C1292 C 0.18633 0.33688 0.73081 0.0
C1293 C 0.17983 0.39435 0.7051 0.0
N1294 N 0.17812 0.33521 0.78325 0.0
N1295 N 0.18458 0.39657 0.73018 0.0
H1296 H 0.14294 0.8365 0.81642 0.0
H1297 H 0.26143 0.84181 0.69599 0.0
H1298 H 0.24981 0.83215 0.82131 0.0
H1299 H 0.14504 0.82587 0.69572 0.0
H1300 H 0.25663 0.83196 0.7413 0.0
H1301 H 0.14128 0.82591 0.77196 0.0
C1302 C 0.16562 0.83235 0.80808 0.0
C1303 C 0.19629 0.83476 0.82247 0.0
C1304 C 0.2318 0.8296 0.7312 0.0
C1305 C 0.19558 0.824 0.77121 0.0
C1306 C 0.23446 0.83491 0.7054 0.0
C1307 C 0.20348 0.83436 0.69227 0.0
C1308 C 0.19793 0.82379 0.74369 0.0
C1309 C 0.16948 0.82632 0.70522 0.0
C1310 C 0.16484 0.82648 0.78264 0.0
C1311 C 0.22528 0.82971 0.81078 0.0
N1312 N 0.16777 0.82172 0.73016 0.0
N1313 N 0.22464 0.82525 0.78567 0.0
H1314 H 0.70374 0.86832 0.69403 0.0
H1315 H 0.59802 0.77268 0.82263 0.0
H1316 H 0.59561 0.75829 0.69682 0.0
H1317 H 0.71554 0.86929 0.81432 0.0
H1318 H 0.58901 0.77276 0.77732 0.0
H1319 H 0.70016 0.87555 0.73844 0.0
C1320 C 0.67862 0.84607 0.70403 0.0
C1321 C 0.64969 0.8129 0.69176 0.0
C1322 C 0.61642 0.79439 0.78554 0.0
C1323 C 0.64606 0.82014 0.74312 0.0
C1324 C 0.62138 0.79464 0.81134 0.0
C1325 C 0.65747 0.82123 0.82208 0.0
C1326 C 0.64764 0.82132 0.77069 0.0
C1327 C 0.68725 0.84839 0.80672 0.0
C1328 C 0.67674 0.85002 0.72948 0.0
C1329 C 0.61812 0.78461 0.70564 0.0
N1330 N 0.6817 0.84765 0.78189 0.0
N1331 N 0.61737 0.78858 0.73076 0.0
H1332 H 0.28908 0.92607 0.96534 0.0
H1333 H 0.25639 0.06889 0.05445 0.0
H1334 H 0.19691 0.95339 0.95474 0.0
H1335 H 0.37032 0.08034 0.04585 0.0
H1336 H 0.23178 0.02135 0.02066 0.0
H1337 H 0.31631 0.9756 0.99862 0.0
C1338 C 0.27403 0.94171 0.97049 0.0
C1339 C 0.24047 0.93539 0.9575 0.0
C1340 C 0.26233 0.03458 0.02585 0.0
C1341 C 0.27159 0.9922 0.99506 0.0
C1342 C 0.27645 0.06196 0.045 0.0
C1343 C 0.31556 0.07901 0.05265 0.0
C1344 C 0.28717 0.02319 0.01453 0.0
C1345 C 0.34017 0.06846 0.0401 0.0
C1346 C 0.28992 0.97039 0.98913 0.0
C1347 C 0.22268 0.95718 0.9644 0.0
N1348 N 0.32543 0.04075 0.02184 0.0
N1349 N 0.23835 0.98443 0.98268 0.0
H1350 H 0.76245 0.65031 0.47717 0.0
H1351 H 0.67915 0.78562 0.53057 0.0
H1352 H 0.75963 0.74237 0.43532 0.0
H1353 H 0.71201 0.71718 0.57682 0.0
H1354 H 0.69979 0.76308 0.49412 0.0
H1355 H 0.73578 0.66797 0.51299 0.0
C1356 C 0.75632 0.6741 0.47541 0.0
C1357 C 0.76376 0.69489 0.45305 0.0
C1358 C 0.70216 0.75286 0.51231 0.0
C1359 C 0.73247 0.71482 0.49387 0.0
C1360 C 0.69023 0.76567 0.53315 0.0
C1361 C 0.69385 0.75363 0.55702 0.0
C1362 C 0.71736 0.7274 0.5153 0.0
C1363 C 0.70852 0.72754 0.55897 0.0
C1364 C 0.74099 0.68414 0.49586 0.0
C1365 C 0.75474 0.72535 0.45202 0.0
N1366 N 0.71967 0.71543 0.53854 0.0
N1367 N 0.73961 0.73423 0.47197 0.0
H1368 H 0.09167 0.36619 0.96487 0.0
H1369 H 0.95824 0.19236 0.0581 0.0
H1370 H 0.08065 0.25185 0.96243 0.0
H1371 H 0.93675 0.28774 0.0444 0.0
H1372 H 1.00817 0.21738 0.02584 0.0
H1373 H 0.04214 0.34307 0.99817 0.0
C1374 C 0.07974 0.33667 0.97191 0.0
C1375 C 0.09027 0.31085 0.96107 0.0
C1376 C 0.99228 0.23268 0.02956 0.0
C1377 C 0.0334 0.28412 0.99848 0.0
C1378 C 0.96351 0.21818 0.04783 0.0
C1379 C 0.94299 0.23769 0.05363 0.0
C1380 C 1.00139 0.26755 0.0172 0.0
C1381 C 0.95138 0.27141 0.04005 0.0
C1382 C 0.05104 0.3233 0.99054 0.0
C1383 C 0.07335 0.27263 0.97038 0.0
N1384 N 0.98038 0.28564 0.02261 0.0
N1385 N 0.04573 0.26042 0.98842 0.0
H1386 H 0.34627 0.119 0.48475 0.0
H1387 H 0.26032 0.89992 0.53765 0.0
H1388 H 0.30213 0.01598 0.43862 0.0
H1389 H 0.26311 0.99386 0.58043 0.0
H1390 H 0.28672 0.94483 0.5021 0.0
H1391 H 0.32687 0.07603 0.52151 0.0
C1392 C 0.33307 0.08769 0.48224 0.0
C1393 C 0.32618 0.07151 0.45833 0.0
C1394 C 0.28177 0.95553 0.51942 0.0
C1395 C 0.30427 0.02221 0.50025 0.0
C1396 C 0.26673 0.92987 0.53972 0.0
C1397 C 0.25939 0.94282 0.56225 0.0
C1398 C 0.29015 0.99463 0.52172 0.0
C1399 C 0.26825 0.9822 0.56362 0.0
C1400 C 0.32189 0.06313 0.50322 0.0
C1401 C 0.3086 0.03038 0.45644 0.0
N1402 N 0.28319 1.00656 0.5438 0.0
N1403 N 0.29847 0.00744 0.47694 0.0
H1404 H 0.7184 0.64898 0.05221 0.0
H1405 H 0.77444 0.8222 0.95479 0.0
H1406 H 0.82519 0.76014 0.05567 0.0
H1407 H 0.65451 0.73341 0.96762 0.0
H1408 H 0.79483 0.79585 0.98903 0.0
H1409 H 0.69606 0.67419 0.01766 0.0
C1410 C 0.73751 0.67825 0.04524 0.0
C1411 C 0.77385 0.70241 0.05656 0.0
C1412 C 0.76397 0.78229 0.98461 0.0
C1413 C 0.74844 0.73155 0.01756 0.0
C1414 C 0.75231 0.79753 0.96517 0.0
C1415 C 0.71271 0.78026 0.95854 0.0
C1416 C 0.736 0.74896 0.9974 0.0
C1417 C 0.68528 0.748 0.97244 0.0
C1418 C 0.72453 0.69283 0.02586 0.0
C1419 C 0.79709 0.7405 0.04734 0.0
N1420 N 0.69747 0.73304 0.99105 0.0
N1421 N 0.78407 0.7538 0.02843 0.0
H1422 H 0.12227 0.33165 0.53136 0.0
H1423 H 0.90615 0.25486 0.47586 0.0
H1424 H 0.02272 0.3109 0.57586 0.0
H1425 H 0.99943 0.25116 0.4362 0.0
H1426 H 0.9503 0.28278 0.51163 0.0
H1427 H 0.07975 0.31079 0.49464 0.0
C1428 C 0.09178 0.32327 0.53346 0.0
C1429 C 0.07623 0.32276 0.55693 0.0
C1430 C 0.96097 0.27583 0.495 0.0
C1431 C 0.02725 0.29878 0.51497 0.0
C1432 C 0.93569 0.25976 0.47461 0.0
C1433 C 0.94872 0.25024 0.4529 0.0
C1434 C 0.9997 0.28287 0.49357 0.0
C1435 C 0.98764 0.25765 0.45243 0.0
C1436 C 0.06739 0.31111 0.51249 0.0
C1437 C 0.03622 0.31153 0.55831 0.0
N1438 N 0.01158 0.27351 0.47231 0.0
N1439 N 0.01324 0.29992 0.53777 0.0
H1440 H 0.61515 0.10985 0.10401 0.0
H1441 H 0.46829 0.19296 0.10288 0.0
H1442 H 0.64777 0.22938 0.08807 0.0
H1443 H 0.43451 0.07999 0.13445 0.0
H1444 H 0.53516 0.20646 0.09975 0.0
H1445 H 0.5506 0.09789 0.11834 0.0
C1446 C 0.60909 0.13381 0.10429 0.0
C1447 C 0.63665 0.17069 0.09496 0.0
C1448 C 0.51342 0.17873 0.10757 0.0
C1449 C 0.56316 0.15716 0.11062 0.0
C1450 C 0.47502 0.17092 0.10927 0.0
C1451 C 0.44561 0.13509 0.11871 0.0
C1452 C 0.52288 0.1503 0.11496 0.0
C1453 C 0.45627 0.1079 0.12699 0.0
C1454 C 0.57225 0.12693 0.11225 0.0
C1455 C 0.6273 0.20061 0.0952 0.0
N1456 N 0.49406 0.1158 0.12458 0.0
N1457 N 0.59132 0.19308 0.10261 0.0
H1458 H 0.67417 0.58394 0.35882 0.0
H1459 H 0.55521 0.37941 0.43092 0.0
H1460 H 0.71087 0.55807 0.42823 0.0
H1461 H 0.49911 0.41947 0.37937 0.0
H1462 H 0.61699 0.4408 0.42465 0.0
H1463 H 0.61259 0.52102 0.36183 0.0
C1464 C 0.66935 0.56526 0.37468 0.0
C1465 C 0.69821 0.5762 0.39306 0.0
C1466 C 0.5912 0.43602 0.41456 0.0
C1467 C 0.62852 0.50378 0.39621 0.0
C1468 C 0.55607 0.40081 0.41795 0.0
C1469 C 0.52193 0.39441 0.40577 0.0
C1470 C 0.59236 0.46491 0.39865 0.0
C1471 C 0.52469 0.42341 0.38932 0.0
C1472 C 0.63436 0.52921 0.37629 0.0
C1473 C 0.69024 0.55053 0.41316 0.0
N1474 N 0.5592 0.4574 0.38628 0.0
N1475 N 0.65652 0.51556 0.41405 0.0
H1476 H 0.87341 0.30413 0.07153 0.0
H1477 H 0.85123 0.47647 0.13394 0.0
H1478 H 0.90324 0.33619 0.14822 0.0
H1479 H 0.80733 0.42597 0.06203 0.0
H1480 H 0.879 0.43282 0.13872 0.0
H1481 H 0.8587 0.35649 0.06685 0.0
C1482 C 0.8772 0.32246 0.08744 0.0
C1483 C 0.88909 0.31532 0.11043 0.0
C1484 C 0.86346 0.43157 0.12188 0.0
C1485 C 0.87176 0.37584 0.10517 0.0
C1486 C 0.84779 0.45652 0.1191 0.0
C1487 C 0.82647 0.45441 0.09768 0.0
C1488 C 0.85819 0.40488 0.10292 0.0
C1489 C 0.82289 0.42811 0.07902 0.0
C1490 C 0.86867 0.35247 0.08474 0.0
C1491 C 0.89401 0.34061 0.13019 0.0
N1492 N 0.8384 0.40445 0.08212 0.0
N1493 N 0.88485 0.36957 0.12721 0.0
H1494 H 0.4494 0.14253 0.43807 0.0
H1495 H 0.64146 0.1575 0.37725 0.0
H1496 H 0.45117 0.11114 0.36166 0.0
H1497 H 0.63851 0.21422 0.44485 0.0
H1498 H 0.57012 0.12982 0.37302 0.0
H1499 H 0.51635 0.15683 0.44281 0.0
C1500 C 0.46382 0.13828 0.42225 0.0
C1501 C 0.44483 0.12628 0.39927 0.0
C1502 C 0.58519 0.14817 0.3888 0.0
C1503 C 0.52227 0.143 0.40463 0.0
C1504 C 0.62573 0.1638 0.39128 0.0
C1505 C 0.64588 0.18851 0.41131 0.0
C1506 C 0.5648 0.15685 0.40673 0.0
C1507 C 0.62425 0.19582 0.42895 0.0
C1508 C 0.50222 0.14658 0.425 0.0
C1509 C 0.46487 0.12057 0.37965 0.0
N1510 N 0.58504 0.18013 0.42623 0.0
N1511 N 0.50286 0.12948 0.38268 0.0
H1512 H 0.5663 0.37205 0.09754 0.0
H1513 H 0.66102 0.5996 0.12864 0.0
H1514 H 0.49889 0.42815 0.1143 0.0
H1515 H 0.7291 0.54254 0.12 0.0
H1516 H 0.60118 0.53604 0.12677 0.0
H1517 H 0.6261 0.4326 0.10882 0.0
C1518 C 0.56398 0.39684 0.104 0.0
C1519 C 0.52755 0.39515 0.10465 0.0
C1520 C 0.62918 0.53725 0.12547 0.0
C1521 C 0.59586 0.4647 0.11724 0.0
C1522 C 0.6634 0.57364 0.12684 0.0
C1523 C 0.69999 0.57631 0.12433 0.0
C1524 C 0.63165 0.50328 0.12136 0.0
C1525 C 0.7013 0.54164 0.12131 0.0
C1526 C 0.59816 0.4315 0.11027 0.0
C1527 C 0.52641 0.42835 0.11301 0.0
N1528 N 0.66766 0.50657 0.11969 0.0
N1529 N 0.56001 0.46177 0.11871 0.0
H1530 H 0.80273 0.42184 0.44398 0.0
H1531 H 0.90672 0.3367 0.35825 0.0
H1532 H 0.86346 0.48271 0.37765 0.0
H1533 H 0.87754 0.30674 0.43524 0.0
H1534 H 0.8927 0.39081 0.36344 0.0
H1535 H 0.82972 0.37844 0.43958 0.0
C1536 C 0.82209 0.42617 0.42856 0.0
C1537 C 0.83082 0.45571 0.41113 0.0
C1538 C 0.88995 0.37259 0.3792 0.0
C1539 C 0.86185 0.40589 0.40574 0.0
C1540 C 0.8981 0.34192 0.37627 0.0
C1541 C 0.89253 0.31674 0.39621 0.0
C1542 C 0.8761 0.37771 0.40216 0.0
C1543 C 0.88143 0.32482 0.41918 0.0
C1544 C 0.83764 0.40149 0.42604 0.0
C1545 C 0.8562 0.46026 0.39151 0.0
N1546 N 0.87311 0.35411 0.4214 0.0
N1547 N 0.87053 0.43523 0.38913 0.0
H1548 H 0.11155 0.59283 0.56675 0.0
H1549 H 0.19039 0.47032 0.64021 0.0
H1550 H 0.21165 0.646 0.61521 0.0
H1551 H 0.07981 0.41638 0.60159 0.0
H1552 H 0.19713 0.53447 0.63275 0.0
H1553 H 0.09715 0.52807 0.58125 0.0
C1554 C 0.12996 0.59079 0.58091 0.0
C1555 C 0.16265 0.62476 0.58995 0.0
C1556 C 0.17113 0.50865 0.62615 0.0
C1557 C 0.1471 0.55064 0.60614 0.0
C1558 C 0.16726 0.4719 0.63034 0.0
C1559 C 0.13448 0.43778 0.62144 0.0
C1560 C 0.14211 0.51161 0.61282 0.0
C1561 C 0.10546 0.4418 0.6089 0.0
C1562 C 0.12189 0.55382 0.58908 0.0
C1563 C 0.1859 0.62054 0.60801 0.0
N1564 N 0.11013 0.47803 0.60476 0.0
N1565 N 0.17798 0.58415 0.61528 0.0
H1566 H 0.30719 0.86721 0.93776 0.0
H1567 H 0.48293 0.85294 0.87394 0.0
H1568 H 0.3313 0.88938 0.85962 0.0
H1569 H 0.42713 0.79696 0.94256 0.0
H1570 H 0.43638 0.87736 0.86985 0.0
H1571 H 0.36029 0.85314 0.9413 0.0
C1572 C 0.32393 0.8695 0.9213 0.0
C1573 C 0.31424 0.87885 0.89824 0.0
C1574 C 0.43457 0.85987 0.88581 0.0
C1575 C 0.37591 0.86299 0.90231 0.0
C1576 C 0.46118 0.84616 0.88823 0.0
C1577 C 0.45863 0.82264 0.90854 0.0
C1578 C 0.40584 0.85056 0.90409 0.0
C1579 C 0.42986 0.81458 0.92648 0.0
C1580 C 0.35432 0.86135 0.92336 0.0
C1581 C 0.33763 0.88206 0.87772 0.0
N1582 N 0.40473 0.82849 0.92384 0.0
N1583 N 0.36731 0.87383 0.88018 0.0
H1584 H 0.56812 0.70739 0.57562 0.0
H1585 H 0.37792 0.52415 0.63372 0.0
H1586 H 0.56742 0.66834 0.65047 0.0
H1587 H 0.38054 0.58362 0.56615 0.0
H1588 H 0.4492 0.56852 0.63826 0.0
H1589 H 0.50202 0.65385 0.5699 0.0
C1590 C 0.55414 0.68735 0.59091 0.0
C1591 C 0.57331 0.69288 0.61374 0.0
C1592 C 0.43417 0.57145 0.62232 0.0
C1593 C 0.49661 0.63085 0.60721 0.0
C1594 C 0.39368 0.54604 0.61964 0.0
C1595 C 0.37354 0.5504 0.59953 0.0
C1596 C 0.4544 0.60094 0.60457 0.0
C1597 C 0.39503 0.57939 0.58192 0.0
C1598 C 0.51617 0.65663 0.58759 0.0
C1599 C 0.55367 0.66531 0.63261 0.0
N1600 N 0.4341 0.6035 0.58489 0.0
N1601 N 0.51612 0.63563 0.62903 0.0
H1602 H 0.16327 0.63217 0.87629 0.0
H1603 H 0.14615 0.44109 0.94012 0.0
H1604 H 0.21977 0.63107 0.94447 0.0
H1605 H 0.12409 0.4429 0.86195 0.0
H1606 H 0.16103 0.50842 0.94347 0.0
H1607 H 0.13775 0.56108 0.8721 0.0
C1608 C 0.16997 0.61691 0.89045 0.0
C1609 C 0.19391 0.63751 0.91068 0.0
C1610 C 0.15264 0.4942 0.92556 0.0
C1611 C 0.16472 0.55673 0.90613 0.0
C1612 C 0.14399 0.45557 0.92361 0.0
C1613 C 0.13441 0.43643 0.90062 0.0
C1614 C 0.15142 0.51423 0.90442 0.0
C1615 C 0.13149 0.45664 0.88001 0.0
C1616 C 0.15563 0.57653 0.88797 0.0
C1617 C 0.20184 0.61646 0.92846 0.0
N1618 N 0.14032 0.49473 0.88234 0.0
N1619 N 0.18729 0.57739 0.92577 0.0
H1620 H 0.35823 0.94365 0.6419 0.0
H1621 H 0.46596 0.83079 0.58948 0.0
H1622 H 0.29941 0.83198 0.60475 0.0
H1623 H 0.52777 0.94423 0.62439 0.0
H1624 H 0.40414 0.82914 0.59777 0.0
H1625 H 0.42038 0.94388 0.63758 0.0
C1626 C 0.35831 0.91936 0.63275 0.0
C1627 C 0.32335 0.88785 0.62373 0.0
C1628 C 0.43121 0.85436 0.60374 0.0
C1629 C 0.39437 0.88762 0.61879 0.0
C1630 C 0.46657 0.85512 0.59919 0.0
C1631 C 0.5023 0.88785 0.60599 0.0
C1632 C 0.43138 0.88651 0.61524 0.0
C1633 C 0.50105 0.9187 0.61835 0.0
C1634 C 0.3938 0.91934 0.63039 0.0
C1635 C 0.32538 0.85684 0.61226 0.0
N1636 N 0.46631 0.91738 0.62243 0.0
N1637 N 0.3601 0.85758 0.6101 0.0
H1638 H 0.57917 0.70958 0.93918 0.0
H1639 H 0.38082 0.54853 0.87505 0.0
H1640 H 0.57078 0.69264 0.85996 0.0
H1641 H 0.38835 0.59735 0.94772 0.0
H1642 H 0.45171 0.59276 0.86978 0.0
H1643 H 0.51096 0.65922 0.94324 0.0
C1644 C 0.56302 0.69486 0.9226 0.0
C1645 C 0.58051 0.70575 0.89914 0.0
C1646 C 0.43771 0.59367 0.88684 0.0
C1647 C 0.50198 0.6476 0.90372 0.0
C1648 C 0.3974 0.56839 0.88992 0.0
C1649 C 0.37863 0.56953 0.9118 0.0
C1650 C 0.45935 0.61966 0.90597 0.0
C1651 C 0.40144 0.59587 0.93042 0.0
C1652 C 0.52396 0.66616 0.92494 0.0
C1653 C 0.55829 0.68522 0.87837 0.0
N1654 N 0.44048 0.61974 0.92708 0.0
N1655 N 0.5199 0.65721 0.88111 0.0
loop_
_geom_bond_atom_site_label_1
_geom_bond_atom_site_label_2
_geom_bond_distance
_geom_bond_site_symmetry_2
_ccdc_geom_bond_type
Eu0 N29 2.600 . S
Eu0 N35 2.562 . S
Eu0 O44 2.462 . S
Eu0 O45 2.373 . S
Eu0 O47 2.432 . S
Eu0 O48 2.291 . S
Eu0 O52 2.335 . S
Eu0 O55 2.372 . S
Eu0 C64 2.787 . S
C1 N2 1.365 . S
C1 C4 1.405 . S
C1 C8 1.448 . S
N2 C1 1.365 . S
N2 C5 1.319 . S
N2 Eu11 2.600 . S
C3 C5 1.397 . S
C3 C6 1.367 . S
C3 H23 0.931 1_554 S
C4 C1 1.405 . S
C4 C6 1.403 . S
C4 C10 1.439 . S
C5 N2 1.319 . S
C5 C3 1.397 . S
C5 H16 0.930 . S
C6 C3 1.367 . S
C6 C4 1.403 . S
C6 H27 0.929 . S
C7 C8 1.430 . S
C7 C9 1.387 . S
C7 C13 1.404 . S
C8 C1 1.448 . S
C8 C7 1.430 . S
C8 N12 1.351 . S
C9 C7 1.387 . S
C9 C10 1.374 . S
C9 H24 0.931 . S
C10 C4 1.439 . S
C10 C9 1.374 . S
C10 H25 0.931 . S
Eu11 N2 2.600 . S
Eu11 N12 2.562 . S
Eu11 O46 2.335 . S
Eu11 O49 2.372 . S
Eu11 O50 2.462 . S
Eu11 O51 2.373 . S
Eu11 O53 2.432 . S
Eu11 O54 2.291 . S
Eu11 C75 2.787 . S
N12 C8 1.351 . S
N12 Eu11 2.562 . S
N12 C14 1.325 . S
C13 C7 1.404 . S
C13 C15 1.366 . S
C13 H21 0.930 . S
C14 N12 1.325 . S
C14 C15 1.416 . S
C14 H20 0.929 . S
C15 C13 1.366 . S
C15 C14 1.416 . S
C15 H17 0.930 . S
H16 C5 0.930 . S
H17 C15 0.930 . S
H18 C33 0.930 . S
H19 C40 0.933 . S
H20 C14 0.929 . S
H21 C13 0.930 . S
H22 C36 0.929 . S
H23 C3 0.931 1_556 S
H24 C9 0.931 . S
H25 C10 0.931 . S
H26 C31 0.931 . S
H27 C6 0.929 . S
H28 C39 0.930 . S
N29 Eu0 2.600 . S
N29 C30 1.365 . S
N29 C33 1.319 . S
C30 N29 1.365 . S
C30 C32 1.405 . S
C30 C38 1.448 . S
C31 H26 0.931 . S
C31 C33 1.397 . S
C31 C34 1.367 . S
C32 C30 1.405 . S
C32 C34 1.403 . S
C32 C65 1.439 . S
C33 H18 0.930 . S
C33 N29 1.319 . S
C33 C31 1.397 . S
C34 C31 1.367 . S
C34 C32 1.403 . S
C34 H41 0.929 . S
N35 Eu0 2.562 . S
N35 C36 1.325 . S
N35 C38 1.351 . S
C36 H22 0.929 . S
C36 N35 1.325 . S
C36 C40 1.416 . S
C37 C38 1.430 . S
C37 C39 1.404 1_545 S
C37 C66 1.387 1_545 S
C38 C30 1.448 . S
C38 N35 1.351 . S
C38 C37 1.430 . S
C39 H28 0.930 . S
C39 C37 1.404 1_565 S
C39 C40 1.366 1_565 S
C40 H19 0.933 . S
C40 C36 1.416 . S
C40 C39 1.366 1_545 S
H41 C34 0.929 . S
H42 C65 0.911 1_565 S
H43 C66 0.931 . S
O44 Eu0 2.462 . S
O44 C64 1.252 . S
O45 Eu0 2.373 . S
O45 C56 1.249 . S
O46 Eu11 2.335 . S
O46 C56 1.264 . S
O47 Eu0 2.432 . S
O47 C64 1.268 . S
O48 Eu0 2.291 . S
O48 C63 1.255 . S
O49 Eu11 2.372 . S
O49 C63 1.257 . S
O50 Eu11 2.462 . S
O50 C75 1.252 . S
O51 Eu11 2.373 . S
O51 C67 1.249 . S
O52 Eu0 2.335 . S
O52 C67 1.264 . S
O53 Eu11 2.432 . S
O53 C75 1.268 . S
O54 Eu11 2.291 . S
O54 C74 1.255 . S
O55 Eu0 2.372 . S
O55 C74 1.257 . S
C56 O45 1.249 . S
C56 O46 1.264 . S
C57 C60 1.382 . S
C57 C62 1.390 . S
C57 C64 1.506 1_565 S
C58 C59 1.398 . S
C58 C62 1.392 . S
C59 C58 1.398 . S
C59 C61 1.372 . S
C59 H76 0.931 . S
C60 C57 1.382 . S
C60 C61 1.390 . S
C60 H77 0.931 . S
C61 C59 1.372 . S
C61 C60 1.390 . S
C61 H78 0.929 . S
C62 C57 1.390 . S
C62 C58 1.392 . S
C62 H79 0.930 . S
C63 O48 1.255 . S
C63 O49 1.257 . S
C64 Eu0 2.787 . S
C64 O44 1.252 . S
C64 O47 1.268 . S
C64 C57 1.506 1_545 S
C65 C32 1.439 . S
C65 H42 0.911 1_545 S
C65 C66 1.374 1_545 S
C66 C37 1.387 1_565 S
C66 H43 0.931 . S
C66 C65 1.374 1_565 S
C67 O51 1.249 . S
C67 O52 1.264 . S
C68 C71 1.382 . S
C68 C72 1.390 . S
C68 C75 1.506 . S
C69 C70 1.398 . S
C69 C72 1.392 . S
C70 C69 1.398 . S
C70 C73 1.372 . S
C70 H80 0.931 . S
C71 C68 1.382 . S
C71 C73 1.390 . S
C71 H81 0.931 . S
C72 C68 1.390 . S
C72 C69 1.392 . S
C72 H82 0.930 . S
C73 C70 1.372 . S
C73 C71 1.390 . S
C73 H83 0.929 . S
C74 O54 1.255 . S
C74 O55 1.257 . S
C75 Eu11 2.787 . S
C75 O50 1.252 . S
C75 O53 1.268 . S
C75 C68 1.506 . S
H76 C59 0.931 . S
H77 C60 0.931 . S
H78 C61 0.929 . S
H79 C62 0.930 . S
H80 C70 0.931 . S
H81 C71 0.931 . S
H82 C72 0.930 . S
H83 C73 0.929 . S
Eu84 N113 2.600 . S
Eu84 N119 2.562 . S
Eu84 O128 2.462 . S
Eu84 O129 2.373 . S
Eu84 O131 2.432 . S
Eu84 O132 2.291 . S
Eu84 O136 2.335 . S
Eu84 O139 2.372 . S
Eu84 C148 2.787 . S
C85 N86 1.365 . S
C85 C88 1.405 . S
C85 C92 1.448 . S
N86 C85 1.365 . S
N86 C89 1.319 . S
N86 Eu95 2.600 . S
C87 C89 1.397 . S
C87 C90 1.367 . S
C87 H107 0.931 . S
C88 C85 1.405 . S
C88 C90 1.403 . S
C88 C94 1.439 . S
C89 N86 1.319 . S
C89 C87 1.397 . S
C89 H100 0.930 . S
C90 C87 1.367 . S
C90 C88 1.403 . S
C90 H111 0.929 . S
C91 C92 1.430 . S
C91 C93 1.387 . S
C91 C97 1.404 . S
C92 C85 1.448 . S
C92 C91 1.430 . S
C92 N96 1.351 . S
C93 C91 1.387 . S
C93 C94 1.374 . S
C93 H108 0.931 . S
C94 C88 1.439 . S
C94 C93 1.374 . S
C94 H109 0.931 . S
Eu95 N86 2.600 . S
Eu95 N96 2.562 . S
Eu95 O130 2.335 . S
Eu95 O133 2.372 . S
Eu95 O134 2.462 . S
Eu95 O135 2.373 . S
Eu95 O137 2.432 . S
Eu95 O138 2.291 . S
Eu95 C159 2.787 . S
N96 C92 1.351 . S
N96 Eu95 2.562 . S
N96 C98 1.325 . S
C97 C91 1.404 . S
C97 C99 1.366 . S
C97 H105 0.930 . S
C98 N96 1.325 . S
C98 C99 1.416 . S
C98 H104 0.929 . S
C99 C97 1.366 . S
C99 C98 1.416 . S
C99 H101 0.930 . S
H100 C89 0.930 . S
H101 C99 0.930 . S
H102 C117 0.930 . S
H103 C124 0.930 . S
H104 C98 0.929 . S
H105 C97 0.930 . S
H106 C120 0.929 . S
H107 C87 0.931 . S
H108 C93 0.931 . S
H109 C94 0.931 . S
H110 C115 0.931 . S
H111 C90 0.929 . S
H112 C123 0.930 1_455 S
N113 Eu84 2.600 . S
N113 C114 1.365 . S
N113 C117 1.319 . S
C114 N113 1.365 . S
C114 C116 1.405 . S
C114 C122 1.448 . S
C115 H110 0.931 . S
C115 C117 1.397 . S
C115 C118 1.367 . S
C116 C114 1.405 . S
C116 C118 1.403 . S
C116 C149 1.418 1_655 S
C117 H102 0.930 . S
C117 N113 1.319 . S
C117 C115 1.397 . S
C118 C115 1.367 . S
C118 C116 1.403 . S
C118 H125 0.929 . S
N119 Eu84 2.562 . S
N119 C120 1.325 . S
N119 C122 1.351 . S
C120 H106 0.929 . S
C120 N119 1.325 . S
C120 C124 1.416 . S
C121 C122 1.430 . S
C121 C123 1.404 . S
C121 C150 1.387 1_655 S
C122 C114 1.448 . S
C122 N119 1.351 . S
C122 C121 1.430 . S
C123 H112 0.930 1_655 S
C123 C121 1.404 . S
C123 C124 1.366 . S
C124 H103 0.930 . S
C124 C120 1.416 . S
C124 C123 1.366 . S
H125 C118 0.929 . S
H126 C149 0.944 . S
H127 C150 0.931 . S
O128 Eu84 2.462 . S
O128 C148 1.252 . S
O129 Eu84 2.373 . S
O129 C140 1.249 . S
O130 Eu95 2.335 . S
O130 C140 1.264 . S
O131 Eu84 2.432 . S
O131 C148 1.268 . S
O132 Eu84 2.291 . S
O132 C147 1.255 . S
O133 Eu95 2.372 . S
O133 C147 1.257 . S
O134 Eu95 2.462 . S
O134 C159 1.252 . S
O135 Eu95 2.373 . S
O135 C151 1.249 . S
O136 Eu84 2.335 . S
O136 C151 1.264 . S
O137 Eu95 2.432 . S
O137 C159 1.268 . S
O138 Eu95 2.291 . S
O138 C158 1.255 . S
O139 Eu84 2.372 . S
O139 C158 1.257 . S
C140 O129 1.249 . S
C140 O130 1.264 . S
C141 C144 1.382 . S
C141 C146 1.390 . S
C141 C148 1.506 . S
C142 C143 1.398 . S
C142 C146 1.392 . S
C143 C142 1.398 . S
C143 C145 1.372 . S
C143 H160 0.931 . S
C144 C141 1.382 . S
C144 C145 1.390 . S
C144 H161 0.931 . S
C145 C143 1.372 . S
C145 C144 1.390 . S
C145 H162 0.929 . S
C146 C141 1.390 . S
C146 C142 1.392 . S
C146 H163 0.930 . S
C147 O132 1.255 . S
C147 O133 1.257 . S
C148 Eu84 2.787 . S
C148 O128 1.252 . S
C148 O131 1.268 . S
C148 C141 1.506 . S
C149 C116 1.418 1_455 S
C149 H126 0.944 . S
C149 C150 1.383 . S
C150 C121 1.387 1_455 S
C150 H127 0.931 . S
C150 C149 1.383 . S
C151 O135 1.249 . S
C151 O136 1.264 . S
C152 C155 1.382 . S
C152 C156 1.390 . S
C152 C159 1.506 . S
C153 C154 1.398 . S
C153 C156 1.392 . S
C154 C153 1.398 . S
C154 C157 1.372 . S
C154 H164 0.931 . S
C155 C152 1.382 . S
C155 C157 1.390 . S
C155 H165 0.931 . S
C156 C152 1.390 . S
C156 C153 1.392 . S
C156 H166 0.930 . S
C157 C154 1.372 . S
C157 C155 1.390 . S
C157 H167 0.929 . S
C158 O138 1.255 . S
C158 O139 1.257 . S
C159 Eu95 2.787 . S
C159 O134 1.252 . S
C159 O137 1.268 . S
C159 C152 1.506 . S
H160 C143 0.931 . S
H161 C144 0.931 . S
H162 C145 0.929 . S
H163 C146 0.930 . S
H164 C154 0.931 . S
H165 C155 0.931 . S
H166 C156 0.930 . S
H167 C157 0.929 . S
Eu168 N197 2.600 . S
Eu168 N203 2.562 . S
Eu168 O212 2.462 . S
Eu168 O213 2.373 . S
Eu168 O215 2.432 . S
Eu168 O216 2.291 . S
Eu168 O220 2.335 . S
Eu168 O223 2.372 . S
Eu168 C232 2.787 . S
C169 N170 1.365 . S
C169 C172 1.405 . S
C169 C176 1.448 . S
N170 C169 1.365 . S
N170 C173 1.319 . S
N170 Eu179 2.600 . S
C171 C173 1.397 . S
C171 C174 1.367 . S
C171 H191 0.931 1_554 S
C172 C169 1.405 . S
C172 C174 1.403 . S
C172 C178 1.422 1_545 S
C173 N170 1.319 . S
C173 C171 1.397 . S
C173 H184 0.930 . S
C174 C171 1.367 . S
C174 C172 1.403 . S
C174 H195 0.929 . S
C175 C176 1.430 . S
C175 C177 1.387 1_545 S
C175 C181 1.404 . S
C176 C169 1.448 . S
C176 C175 1.430 . S
C176 N180 1.351 . S
C177 C175 1.387 1_565 S
C177 C178 1.378 . S
C177 H192 0.931 . S
C178 C172 1.422 1_565 S
C178 C177 1.378 . S
C178 H193 0.945 . S
Eu179 N170 2.600 . S
Eu179 N180 2.562 . S
Eu179 O214 2.335 . S
Eu179 O217 2.372 . S
Eu179 O218 2.462 . S
Eu179 O219 2.373 . S
Eu179 O221 2.432 . S
Eu179 O222 2.291 . S
Eu179 C243 2.787 . S
N180 C176 1.351 . S
N180 Eu179 2.562 . S
N180 C182 1.325 . S
C181 C175 1.404 . S
C181 C183 1.366 . S
C181 H189 0.930 1_545 S
C182 N180 1.325 . S
C182 C183 1.416 . S
C182 H188 0.929 . S
C183 C181 1.366 . S
C183 C182 1.416 . S
C183 H185 0.930 . S
H184 C173 0.930 . S
H185 C183 0.930 . S
H186 C201 0.930 . S
H187 C208 0.931 . S
H188 C182 0.929 . S
H189 C181 0.930 1_565 S
H190 C204 0.929 . S
H191 C171 0.931 1_556 S
H192 C177 0.931 . S
H193 C178 0.945 . S
H194 C199 0.931 . S
H195 C174 0.929 . S
H196 C207 0.930 . S
N197 Eu168 2.600 . S
N197 C198 1.365 . S
N197 C201 1.319 . S
C198 N197 1.365 . S
C198 C200 1.405 . S
C198 C206 1.448 . S
C199 H194 0.931 . S
C199 C201 1.397 . S
C199 C202 1.367 . S
C200 C198 1.405 . S
C200 C202 1.403 . S
C200 C233 1.439 . S
C201 H186 0.930 . S
C201 N197 1.319 . S
C201 C199 1.397 . S
C202 C199 1.367 . S
C202 C200 1.403 . S
C202 H209 0.929 . S
N203 Eu168 2.562 . S
N203 C204 1.325 . S
N203 C206 1.351 . S
C204 H190 0.929 . S
C204 N203 1.325 . S
C204 C208 1.416 . S
C205 C206 1.430 . S
C205 C207 1.404 1_655 S
C205 C234 1.387 1_655 S
C206 C198 1.448 . S
C206 N203 1.351 . S
C206 C205 1.430 . S
C207 H196 0.930 . S
C207 C205 1.404 1_455 S
C207 C208 1.366 1_455 S
C208 H187 0.931 . S
C208 C204 1.416 . S
C208 C207 1.366 1_655 S
H209 C202 0.929 . S
H210 C233 0.933 1_455 S
H211 C234 0.931 . S
O212 Eu168 2.462 . S
O212 C232 1.252 . S
O213 Eu168 2.373 . S
O213 C224 1.249 . S
O214 Eu179 2.335 . S
O214 C224 1.264 . S
O215 Eu168 2.432 . S
O215 C232 1.268 . S
O216 Eu168 2.291 . S
O216 C231 1.255 . S
O217 Eu179 2.372 . S
O217 C231 1.257 . S
O218 Eu179 2.462 . S
O218 C243 1.252 . S
O219 Eu179 2.373 . S
O219 C235 1.249 . S
O220 Eu168 2.335 . S
O220 C235 1.264 . S
O221 Eu179 2.432 . S
O221 C243 1.268 . S
O222 Eu179 2.291 . S
O222 C242 1.255 . S
O223 Eu168 2.372 . S
O223 C242 1.257 . S
C224 O213 1.249 . S
C224 O214 1.264 . S
C225 C228 1.382 . S
C225 C230 1.390 . S
C225 C232 1.506 1_455 S
C226 C227 1.398 . S
C226 C230 1.392 . S
C227 C226 1.398 . S
C227 C229 1.372 . S
C227 H244 0.931 . S
C228 C225 1.382 . S
C228 C229 1.390 . S
C228 H245 0.931 . S
C229 C227 1.372 . S
C229 C228 1.390 . S
C229 H246 0.929 . S
C230 C225 1.390 . S
C230 C226 1.392 . S
C230 H247 0.930 . S
C231 O216 1.255 . S
C231 O217 1.257 . S
C232 Eu168 2.787 . S
C232 O212 1.252 . S
C232 O215 1.268 . S
C232 C225 1.506 1_655 S
C233 C200 1.439 . S
C233 H210 0.933 1_655 S
C233 C234 1.374 1_655 S
C234 C205 1.387 1_455 S
C234 H211 0.931 . S
C234 C233 1.374 1_455 S
C235 O219 1.249 . S
C235 O220 1.264 . S
C236 C239 1.382 . S
C236 C240 1.390 . S
C236 C243 1.506 . S
C237 C238 1.398 . S
C237 C240 1.392 . S
C238 C237 1.398 . S
C238 C241 1.372 . S
C238 H248 0.931 . S
C239 C236 1.382 . S
C239 C241 1.390 . S
C239 H249 0.931 . S
C240 C236 1.390 . S
C240 C237 1.392 . S
C240 H250 0.930 . S
C241 C238 1.372 . S
C241 C239 1.390 . S
C241 H251 0.929 . S
C242 O222 1.255 . S
C242 O223 1.257 . S
C243 Eu179 2.787 . S
C243 O218 1.252 . S
C243 O221 1.268 . S
C243 C236 1.506 . S
H244 C227 0.931 . S
H245 C228 0.931 . S
H246 C229 0.929 . S
H247 C230 0.930 . S
H248 C238 0.931 . S
H249 C239 0.931 . S
H250 C240 0.930 . S
H251 C241 0.929 . S
Eu252 N281 2.600 . S
Eu252 N287 2.562 . S
Eu252 O296 2.462 . S
Eu252 O297 2.373 . S
Eu252 O299 2.432 . S
Eu252 O300 2.291 . S
Eu252 O304 2.335 . S
Eu252 O307 2.372 . S
Eu252 C316 2.787 . S
C253 N254 1.365 . S
C253 C256 1.405 . S
C253 C260 1.448 . S
N254 C253 1.365 . S
N254 C257 1.319 . S
N254 Eu263 2.600 . S
C255 C257 1.397 . S
C255 C258 1.367 . S
C255 H275 0.931 . S
C256 C253 1.405 . S
C256 C258 1.403 . S
C256 C262 1.439 . S
C257 N254 1.319 . S
C257 C255 1.397 . S
C257 H268 0.930 . S
C258 C255 1.367 . S
C258 C256 1.403 . S
C258 H279 0.929 . S
C259 C260 1.430 . S
C259 C261 1.387 1_545 S
C259 C265 1.404 1_545 S
C260 C253 1.448 . S
C260 C259 1.430 . S
C260 N264 1.351 . S
C261 C259 1.387 1_565 S
C261 C262 1.374 1_565 S
C261 H276 0.931 . S
C262 C256 1.439 . S
C262 C261 1.374 1_545 S
C262 H277 0.911 1_545 S
Eu263 N254 2.600 . S
Eu263 N264 2.562 . S
Eu263 O298 2.335 . S
Eu263 O301 2.372 . S
Eu263 O302 2.462 . S
Eu263 O303 2.373 . S
Eu263 O305 2.432 . S
Eu263 O306 2.291 . S
Eu263 C327 2.787 . S
N264 C260 1.351 . S
N264 Eu263 2.562 . S
N264 C266 1.325 . S
C265 C259 1.404 1_565 S
C265 C267 1.366 1_565 S
C265 H273 0.930 . S
C266 N264 1.325 . S
C266 C267 1.416 . S
C266 H272 0.929 . S
C267 C265 1.366 1_545 S
C267 C266 1.416 . S
C267 H269 0.933 . S
H268 C257 0.930 . S
H269 C267 0.933 . S
H270 C285 0.930 . S
H271 C292 0.930 . S
H272 C266 0.929 . S
H273 C265 0.930 . S
H274 C288 0.929 . S
H275 C255 0.931 . S
H276 C261 0.931 . S
H277 C262 0.911 1_565 S
H278 C283 0.931 . S
H279 C258 0.929 . S
H280 C291 0.930 . S
N281 Eu252 2.600 . S
N281 C282 1.365 . S
N281 C285 1.319 . S
C282 N281 1.365 . S
C282 C284 1.405 . S
C282 C290 1.448 . S
C283 H278 0.931 . S
C283 C285 1.397 . S
C283 C286 1.367 . S
C284 C282 1.405 . S
C284 C286 1.403 . S
C284 C317 1.439 . S
C285 H270 0.930 . S
C285 N281 1.319 . S
C285 C283 1.397 . S
C286 C283 1.367 . S
C286 C284 1.403 . S
C286 H293 0.929 . S
N287 Eu252 2.562 . S
N287 C288 1.325 . S
N287 C290 1.351 . S
C288 H274 0.929 . S
C288 N287 1.325 . S
C288 C292 1.416 . S
C289 C290 1.430 . S
C289 C291 1.404 . S
C289 C318 1.387 . S
C290 C282 1.448 . S
C290 N287 1.351 . S
C290 C289 1.430 . S
C291 H280 0.930 . S
C291 C289 1.404 . S
C291 C292 1.366 . S
C292 H271 0.930 . S
C292 C288 1.416 . S
C292 C291 1.366 . S
H293 C286 0.929 . S
H294 C317 0.931 . S
H295 C318 0.931 . S
O296 Eu252 2.462 . S
O296 C316 1.252 . S
O297 Eu252 2.373 . S
O297 C308 1.249 . S
O298 Eu263 2.335 . S
O298 C308 1.264 . S
O299 Eu252 2.432 . S
O299 C316 1.268 . S
O300 Eu252 2.291 . S
O300 C315 1.255 . S
O301 Eu263 2.372 . S
O301 C315 1.257 . S
O302 Eu263 2.462 . S
O302 C327 1.252 . S
O303 Eu263 2.373 . S
O303 C319 1.249 . S
O304 Eu252 2.335 . S
O304 C319 1.264 . S
O305 Eu263 2.432 . S
O305 C327 1.268 . S
O306 Eu263 2.291 . S
O306 C326 1.255 . S
O307 Eu252 2.372 . S
O307 C326 1.257 . S
C308 O297 1.249 . S
C308 O298 1.264 . S
C309 C312 1.382 . S
C309 C314 1.390 . S
C309 C316 1.506 . S
C310 C311 1.398 . S
C310 C314 1.392 . S
C311 C310 1.398 . S
C311 C313 1.372 . S
C311 H328 0.931 . S
C312 C309 1.382 . S
C312 C313 1.390 . S
C312 H329 0.931 . S
C313 C311 1.372 . S
C313 C312 1.390 . S
C313 H330 0.929 . S
C314 C309 1.390 . S
C314 C310 1.392 . S
C314 H331 0.930 . S
C315 O300 1.255 . S
C315 O301 1.257 . S
C316 Eu252 2.787 . S
C316 O296 1.252 . S
C316 O299 1.268 . S
C316 C309 1.506 . S
C317 C284 1.439 . S
C317 H294 0.931 . S
C317 C318 1.374 . S
C318 C289 1.387 . S
C318 H295 0.931 . S
C318 C317 1.374 . S
C319 O303 1.249 . S
C319 O304 1.264 . S
C320 C323 1.382 . S
C320 C324 1.390 . S
C320 C327 1.506 1_565 S
C321 C322 1.398 . S
C321 C324 1.392 . S
C322 C321 1.398 . S
C322 C325 1.372 . S
C322 H332 0.931 . S
C323 C320 1.382 . S
C323 C325 1.390 . S
C323 H333 0.931 . S
C324 C320 1.390 . S
C324 C321 1.392 . S
C324 H334 0.930 . S
C325 C322 1.372 . S
C325 C323 1.390 . S
C325 H335 0.929 . S
C326 O306 1.255 . S
C326 O307 1.257 . S
C327 Eu263 2.787 . S
C327 O302 1.252 . S
C327 O305 1.268 . S
C327 C320 1.506 1_545 S
H328 C311 0.931 . S
H329 C312 0.931 . S
H330 C313 0.929 . S
H331 C314 0.930 . S
H332 C322 0.931 . S
H333 C323 0.931 . S
H334 C324 0.930 . S
H335 C325 0.929 . S
Eu336 N365 2.600 . S
Eu336 N371 2.562 . S
Eu336 O380 2.462 . S
Eu336 O381 2.373 . S
Eu336 O383 2.432 . S
Eu336 O384 2.291 . S
Eu336 O388 2.335 . S
Eu336 O391 2.372 . S
Eu336 C400 2.787 . S
C337 N338 1.365 . S
C337 C340 1.405 . S
C337 C344 1.448 . S
N338 C337 1.365 . S
N338 C341 1.319 . S
N338 Eu347 2.600 . S
C339 C341 1.397 . S
C339 C342 1.367 . S
C339 H359 0.931 1_554 S
C340 C337 1.405 . S
C340 C342 1.403 . S
C340 C346 1.418 1_655 S
C341 N338 1.319 . S
C341 C339 1.397 . S
C341 H352 0.930 . S
C342 C339 1.367 . S
C342 C340 1.403 . S
C342 H363 0.929 . S
C343 C344 1.430 . S
C343 C345 1.387 1_655 S
C343 C349 1.404 . S
C344 C337 1.448 . S
C344 C343 1.430 . S
C344 N348 1.351 . S
C345 C343 1.387 1_455 S
C345 C346 1.383 . S
C345 H360 0.931 . S
C346 C340 1.418 1_455 S
C346 C345 1.383 . S
C346 H361 0.944 . S
Eu347 N338 2.600 . S
Eu347 N348 2.562 . S
Eu347 O382 2.335 . S
Eu347 O385 2.372 . S
Eu347 O386 2.462 . S
Eu347 O387 2.373 . S
Eu347 O389 2.432 . S
Eu347 O390 2.291 . S
Eu347 C411 2.787 . S
N348 C344 1.351 . S
N348 Eu347 2.562 . S
N348 C350 1.325 . S
C349 C343 1.404 . S
C349 C351 1.366 . S
C349 H357 0.930 1_655 S
C350 N348 1.325 . S
C350 C351 1.416 . S
C350 H356 0.929 . S
C351 C349 1.366 . S
C351 C350 1.416 . S
C351 H353 0.930 . S
H352 C341 0.930 . S
H353 C351 0.930 . S
H354 C369 0.930 . S
H355 C376 0.930 . S
H356 C350 0.929 . S
H357 C349 0.930 1_455 S
H358 C372 0.929 . S
H359 C339 0.931 1_556 S
H360 C345 0.931 . S
H361 C346 0.944 . S
H362 C367 0.931 . S
H363 C342 0.929 . S
H364 C375 0.930 . S
N365 Eu336 2.600 . S
N365 C366 1.365 . S
N365 C369 1.319 . S
C366 N365 1.365 . S
C366 C368 1.405 . S
C366 C374 1.448 . S
C367 H362 0.931 . S
C367 C369 1.397 . S
C367 C370 1.367 . S
C368 C366 1.405 . S
C368 C370 1.403 . S
C368 C401 1.439 . S
C369 H354 0.930 . S
C369 N365 1.319 . S
C369 C367 1.397 . S
C370 C367 1.367 . S
C370 C368 1.403 . S
C370 H377 0.929 . S
N371 Eu336 2.562 . S
N371 C372 1.325 . S
N371 C374 1.351 . S
C372 H358 0.929 . S
C372 N371 1.325 . S
C372 C376 1.416 . S
C373 C374 1.430 . S
C373 C375 1.404 . S
C373 C402 1.387 . S
C374 C366 1.448 . S
C374 N371 1.351 . S
C374 C373 1.430 . S
C375 H364 0.930 . S
C375 C373 1.404 . S
C375 C376 1.366 . S
C376 H355 0.930 . S
C376 C372 1.416 . S
C376 C375 1.366 . S
H377 C370 0.929 . S
H378 C401 0.931 . S
H379 C402 0.931 . S
O380 Eu336 2.462 . S
O380 C400 1.252 . S
O381 Eu336 2.373 . S
O381 C392 1.249 . S
O382 Eu347 2.335 . S
O382 C392 1.264 . S
O383 Eu336 2.432 . S
O383 C400 1.268 . S
O384 Eu336 2.291 . S
O384 C399 1.255 . S
O385 Eu347 2.372 . S
O385 C399 1.257 . S
O386 Eu347 2.462 . S
O386 C411 1.252 . S
O387 Eu347 2.373 . S
O387 C403 1.249 . S
O388 Eu336 2.335 . S
O388 C403 1.264 . S
O389 Eu347 2.432 . S
O389 C411 1.268 . S
O390 Eu347 2.291 . S
O390 C410 1.255 . S
O391 Eu336 2.372 . S
O391 C410 1.257 . S
C392 O381 1.249 . S
C392 O382 1.264 . S
C393 C396 1.382 . S
C393 C398 1.390 . S
C393 C400 1.506 . S
C394 C395 1.398 . S
C394 C398 1.392 . S
C395 C394 1.398 . S
C395 C397 1.372 . S
C395 H412 0.931 . S
C396 C393 1.382 . S
C396 C397 1.390 . S
C396 H413 0.931 . S
C397 C395 1.372 . S
C397 C396 1.390 . S
C397 H414 0.929 . S
C398 C393 1.390 . S
C398 C394 1.392 . S
C398 H415 0.930 . S
C399 O384 1.255 . S
C399 O385 1.257 . S
C400 Eu336 2.787 . S
C400 O380 1.252 . S
C400 O383 1.268 . S
C400 C393 1.506 . S
C401 C368 1.439 . S
C401 H378 0.931 . S
C401 C402 1.374 . S
C402 C373 1.387 . S
C402 H379 0.931 . S
C402 C401 1.374 . S
C403 O387 1.249 . S
C403 O388 1.264 . S
C404 C407 1.382 . S
C404 C408 1.390 . S
C404 C411 1.506 . S
C405 C406 1.398 . S
C405 C408 1.392 . S
C406 C405 1.398 . S
C406 C409 1.372 . S
C406 H416 0.931 . S
C407 C404 1.382 . S
C407 C409 1.390 . S
C407 H417 0.931 . S
C408 C404 1.390 . S
C408 C405 1.392 . S
C408 H418 0.930 . S
C409 C406 1.372 . S
C409 C407 1.390 . S
C409 H419 0.929 . S
C410 O390 1.255 . S
C410 O391 1.257 . S
C411 Eu347 2.787 . S
C411 O386 1.252 . S
C411 O389 1.268 . S
C411 C404 1.506 . S
H412 C395 0.931 . S
H413 C396 0.931 . S
H414 C397 0.929 . S
H415 C398 0.930 . S
H416 C406 0.931 . S
H417 C407 0.931 . S
H418 C408 0.930 . S
H419 C409 0.929 . S
Eu420 N449 2.600 . S
Eu420 N455 2.562 . S
Eu420 O464 2.462 . S
Eu420 O465 2.373 . S
Eu420 O467 2.432 . S
Eu420 O468 2.291 . S
Eu420 O472 2.335 . S
Eu420 O475 2.372 . S
Eu420 C484 2.787 . S
C421 N422 1.365 . S
C421 C424 1.405 . S
C421 C428 1.448 . S
N422 C421 1.365 . S
N422 C425 1.319 . S
N422 Eu431 2.600 . S
C423 C425 1.397 . S
C423 C426 1.367 . S
C423 H443 0.931 . S
C424 C421 1.405 . S
C424 C426 1.403 . S
C424 C430 1.439 . S
C425 N422 1.319 . S
C425 C423 1.397 . S
C425 H436 0.930 . S
C426 C423 1.367 . S
C426 C424 1.403 . S
C426 H447 0.929 . S
C427 C428 1.430 . S
C427 C429 1.387 1_655 S
C427 C433 1.404 1_655 S
C428 C421 1.448 . S
C428 C427 1.430 . S
C428 N432 1.351 . S
C429 C427 1.387 1_455 S
C429 C430 1.374 1_455 S
C429 H444 0.931 . S
C430 C424 1.439 . S
C430 C429 1.374 1_655 S
C430 H445 0.933 1_655 S
Eu431 N422 2.600 . S
Eu431 N432 2.562 . S
Eu431 O466 2.335 . S
Eu431 O469 2.372 . S
Eu431 O470 2.462 . S
Eu431 O471 2.373 . S
Eu431 O473 2.432 . S
Eu431 O474 2.291 . S
Eu431 C495 2.787 . S
N432 C428 1.351 . S
N432 Eu431 2.562 . S
N432 C434 1.325 . S
C433 C427 1.404 1_455 S
C433 C435 1.366 1_455 S
C433 H441 0.930 . S
C434 N432 1.325 . S
C434 C435 1.416 . S
C434 H440 0.929 . S
C435 C433 1.366 1_655 S
C435 C434 1.416 . S
C435 H437 0.931 . S
H436 C425 0.930 . S
H437 C435 0.931 . S
H438 C453 0.930 . S
H439 C460 0.930 . S
H440 C434 0.929 . S
H441 C433 0.930 . S
H442 C456 0.929 . S
H443 C423 0.931 . S
H444 C429 0.931 . S
H445 C430 0.933 1_455 S
H446 C451 0.931 . S
H447 C426 0.929 . S
H448 C459 0.930 1_565 S
N449 Eu420 2.600 . S
N449 C450 1.365 . S
N449 C453 1.319 . S
C450 N449 1.365 . S
C450 C452 1.405 . S
C450 C458 1.448 . S
C451 H446 0.931 . S
C451 C453 1.397 . S
C451 C454 1.367 . S
C452 C450 1.405 . S
C452 C454 1.403 . S
C452 C485 1.422 1_545 S
C453 H438 0.930 . S
C453 N449 1.319 . S
C453 C451 1.397 . S
C454 C451 1.367 . S
C454 C452 1.403 . S
C454 H461 0.929 . S
N455 Eu420 2.562 . S
N455 C456 1.325 . S
N455 C458 1.351 . S
C456 H442 0.929 . S
C456 N455 1.325 . S
C456 C460 1.416 . S
C457 C458 1.430 . S
C457 C459 1.404 . S
C457 C486 1.387 1_545 S
C458 C450 1.448 . S
C458 N455 1.351 . S
C458 C457 1.430 . S
C459 H448 0.930 1_545 S
C459 C457 1.404 . S
C459 C460 1.366 . S
C460 H439 0.930 . S
C460 C456 1.416 . S
C460 C459 1.366 . S
H461 C454 0.929 . S
H462 C485 0.945 . S
H463 C486 0.931 . S
O464 Eu420 2.462 . S
O464 C484 1.252 . S
O465 Eu420 2.373 . S
O465 C476 1.249 . S
O466 Eu431 2.335 . S
O466 C476 1.264 . S
O467 Eu420 2.432 . S
O467 C484 1.268 . S
O468 Eu420 2.291 . S
O468 C483 1.255 . S
O469 Eu431 2.372 . S
O469 C483 1.257 . S
O470 Eu431 2.462 . S
O470 C495 1.252 . S
O471 Eu431 2.373 . S
O471 C487 1.249 . S
O472 Eu420 2.335 . S
O472 C487 1.264 . S
O473 Eu431 2.432 . S
O473 C495 1.268 . S
O474 Eu431 2.291 . S
O474 C494 1.255 . S
O475 Eu420 2.372 . S
O475 C494 1.257 . S
C476 O465 1.249 . S
C476 O466 1.264 . S
C477 C480 1.382 . S
C477 C482 1.390 . S
C477 C484 1.506 . S
C478 C479 1.398 . S
C478 C482 1.392 . S
C479 C478 1.398 . S
C479 C481 1.372 . S
C479 H496 0.931 . S
C480 C477 1.382 . S
C480 C481 1.390 . S
C480 H497 0.931 . S
C481 C479 1.372 . S
C481 C480 1.390 . S
C481 H498 0.929 . S
C482 C477 1.390 . S
C482 C478 1.392 . S
C482 H499 0.930 . S
C483 O468 1.255 . S
C483 O469 1.257 . S
C484 Eu420 2.787 . S
C484 O464 1.252 . S
C484 O467 1.268 . S
C484 C477 1.506 . S
C485 C452 1.422 1_565 S
C485 H462 0.945 . S
C485 C486 1.378 . S
C486 C457 1.387 1_565 S
C486 H463 0.931 . S
C486 C485 1.378 . S
C487 O471 1.249 . S
C487 O472 1.264 . S
C488 C491 1.382 . S
C488 C492 1.390 . S
C488 C495 1.506 1_455 S
C489 C490 1.398 . S
C489 C492 1.392 . S
C490 C489 1.398 . S
C490 C493 1.372 . S
C490 H500 0.931 . S
C491 C488 1.382 . S
C491 C493 1.390 . S
C491 H501 0.931 . S
C492 C488 1.390 . S
C492 C489 1.392 . S
C492 H502 0.930 . S
C493 C490 1.372 . S
C493 C491 1.390 . S
C493 H503 0.929 . S
C494 O474 1.255 . S
C494 O475 1.257 . S
C495 Eu431 2.787 . S
C495 O470 1.252 . S
C495 O473 1.268 . S
C495 C488 1.506 1_655 S
H496 C479 0.931 . S
H497 C480 0.931 . S
H498 C481 0.929 . S
H499 C482 0.930 . S
H500 C490 0.931 . S
H501 C491 0.931 . S
H502 C492 0.930 . S
H503 C493 0.929 . S
Eu504 N533 2.600 . S
Eu504 N539 2.562 . S
Eu504 O548 2.462 . S
Eu504 O549 2.373 . S
Eu504 O551 2.432 . S
Eu504 O552 2.291 . S
Eu504 O556 2.335 . S
Eu504 O559 2.372 . S
Eu504 C568 2.787 . S
C505 N506 1.365 . S
C505 C508 1.405 . S
C505 C512 1.448 . S
N506 C505 1.365 . S
N506 C509 1.319 . S
N506 Eu515 2.600 . S
C507 C509 1.397 . S
C507 C510 1.367 . S
C507 H527 0.931 . S
C508 C505 1.405 . S
C508 C510 1.403 . S
C508 C514 1.439 . S
C509 N506 1.319 . S
C509 C507 1.397 . S
C509 H520 0.930 . S
C510 C507 1.367 . S
C510 C508 1.403 . S
C510 H531 0.929 . S
C511 C512 1.430 . S
C511 C513 1.387 1_455 S
C511 C517 1.404 1_455 S
C512 C505 1.448 . S
C512 C511 1.430 . S
C512 N516 1.351 . S
C513 C511 1.387 1_655 S
C513 C514 1.374 1_655 S
C513 H528 0.931 . S
C514 C508 1.439 . S
C514 C513 1.374 1_455 S
C514 H529 0.911 1_455 S
Eu515 N506 2.600 . S
Eu515 N516 2.562 . S
Eu515 O550 2.335 . S
Eu515 O553 2.372 . S
Eu515 O554 2.462 . S
Eu515 O555 2.373 . S
Eu515 O557 2.432 . S
Eu515 O558 2.291 . S
Eu515 C579 2.787 . S
N516 C512 1.351 . S
N516 Eu515 2.562 . S
N516 C518 1.325 . S
C517 C511 1.404 1_655 S
C517 C519 1.366 1_655 S
C517 H525 0.930 . S
C518 N516 1.325 . S
C518 C519 1.416 . S
C518 H524 0.929 . S
C519 C517 1.366 1_455 S
C519 C518 1.416 . S
C519 H521 0.933 . S
H520 C509 0.930 . S
H521 C519 0.933 . S
H522 C537 0.930 . S
H523 C544 0.930 . S
H524 C518 0.929 . S
H525 C517 0.930 . S
H526 C540 0.929 . S
H527 C507 0.931 . S
H528 C513 0.931 . S
H529 C514 0.911 1_655 S
H530 C535 0.931 . S
H531 C510 0.929 . S
H532 C543 0.930 . S
N533 Eu504 2.600 . S
N533 C534 1.365 . S
N533 C537 1.319 . S
C534 N533 1.365 . S
C534 C536 1.405 . S
C534 C542 1.448 . S
C535 H530 0.931 . S
C535 C537 1.397 . S
C535 C538 1.367 . S
C536 C534 1.405 . S
C536 C538 1.403 . S
C536 C569 1.439 . S
C537 H522 0.930 . S
C537 N533 1.319 . S
C537 C535 1.397 . S
C538 C535 1.367 . S
C538 C536 1.403 . S
C538 H545 0.929 . S
N539 Eu504 2.562 . S
N539 C540 1.325 . S
N539 C542 1.351 . S
C540 H526 0.929 . S
C540 N539 1.325 . S
C540 C544 1.416 . S
C541 C542 1.430 . S
C541 C543 1.404 . S
C541 C570 1.387 . S
C542 C534 1.448 . S
C542 N539 1.351 . S
C542 C541 1.430 . S
C543 H532 0.930 . S
C543 C541 1.404 . S
C543 C544 1.366 . S
C544 H523 0.930 . S
C544 C540 1.416 . S
C544 C543 1.366 . S
H545 C538 0.929 . S
H546 C569 0.931 . S
H547 C570 0.931 . S
O548 Eu504 2.462 . S
O548 C568 1.252 . S
O549 Eu504 2.373 . S
O549 C560 1.249 . S
O550 Eu515 2.335 . S
O550 C560 1.264 . S
O551 Eu504 2.432 . S
O551 C568 1.268 . S
O552 Eu504 2.291 . S
O552 C567 1.255 . S
O553 Eu515 2.372 . S
O553 C567 1.257 . S
O554 Eu515 2.462 . S
O554 C579 1.252 . S
O555 Eu515 2.373 . S
O555 C571 1.249 . S
O556 Eu504 2.335 . S
O556 C571 1.264 . S
O557 Eu515 2.432 . S
O557 C579 1.268 . S
O558 Eu515 2.291 . S
O558 C578 1.255 . S
O559 Eu504 2.372 . S
O559 C578 1.257 . S
C560 O549 1.249 . S
C560 O550 1.264 . S
C561 C564 1.382 . S
C561 C566 1.390 . S
C561 C568 1.506 . S
C562 C563 1.398 . S
C562 C566 1.392 . S
C563 C562 1.398 . S
C563 C565 1.372 . S
C563 H580 0.931 . S
C564 C561 1.382 . S
C564 C565 1.390 . S
C564 H581 0.931 . S
C565 C563 1.372 . S
C565 C564 1.390 . S
C565 H582 0.929 . S
C566 C561 1.390 . S
C566 C562 1.392 . S
C566 H583 0.930 . S
C567 O552 1.255 . S
C567 O553 1.257 . S
C568 Eu504 2.787 . S
C568 O548 1.252 . S
C568 O551 1.268 . S
C568 C561 1.506 . S
C569 C536 1.439 . S
C569 H546 0.931 . S
C569 C570 1.374 . S
C570 C541 1.387 . S
C570 H547 0.931 . S
C570 C569 1.374 . S
C571 O555 1.249 . S
C571 O556 1.264 . S
C572 C575 1.382 . S
C572 C576 1.390 . S
C572 C579 1.506 1_655 S
C573 C574 1.398 . S
C573 C576 1.392 . S
C574 C573 1.398 . S
C574 C577 1.372 . S
C574 H584 0.931 . S
C575 C572 1.382 . S
C575 C577 1.390 . S
C575 H585 0.931 . S
C576 C572 1.390 . S
C576 C573 1.392 . S
C576 H586 0.930 . S
C577 C574 1.372 . S
C577 C575 1.390 . S
C577 H587 0.929 . S
C578 O558 1.255 . S
C578 O559 1.257 . S
C579 Eu515 2.787 . S
C579 O554 1.252 . S
C579 O557 1.268 . S
C579 C572 1.506 1_455 S
H580 C563 0.931 . S
H581 C564 0.931 . S
H582 C565 0.929 . S
H583 C566 0.930 . S
H584 C574 0.931 . S
H585 C575 0.931 . S
H586 C576 0.930 . S
H587 C577 0.929 . S
Eu588 N617 2.600 . S
Eu588 N623 2.562 . S
Eu588 O632 2.462 . S
Eu588 O633 2.373 . S
Eu588 O635 2.432 . S
Eu588 O636 2.291 . S
Eu588 O640 2.335 . S
Eu588 O643 2.372 . S
Eu588 C652 2.787 . S
C589 N590 1.365 . S
C589 C592 1.405 . S
C589 C596 1.448 . S
N590 C589 1.365 . S
N590 C593 1.319 . S
N590 Eu599 2.600 . S
C591 C593 1.397 . S
C591 C594 1.367 . S
C591 H611 0.931 1_556 S
C592 C589 1.405 . S
C592 C594 1.403 . S
C592 C598 1.422 1_455 S
C593 N590 1.319 . S
C593 C591 1.397 . S
C593 H604 0.930 . S
C594 C591 1.367 . S
C594 C592 1.403 . S
C594 H615 0.929 . S
C595 C596 1.430 . S
C595 C597 1.387 1_455 S
C595 C601 1.404 . S
C596 C589 1.448 . S
C596 C595 1.430 . S
C596 N600 1.351 . S
C597 C595 1.387 1_655 S
C597 C598 1.378 . S
C597 H612 0.931 . S
C598 C592 1.422 1_655 S
C598 C597 1.378 . S
C598 H613 0.945 . S
Eu599 N590 2.600 . S
Eu599 N600 2.562 . S
Eu599 O634 2.335 . S
Eu599 O637 2.372 . S
Eu599 O638 2.462 . S
Eu599 O639 2.373 . S
Eu599 O641 2.432 . S
Eu599 O642 2.291 . S
Eu599 C663 2.787 . S
N600 C596 1.351 . S
N600 Eu599 2.562 . S
N600 C602 1.325 . S
C601 C595 1.404 . S
C601 C603 1.366 . S
C601 H609 0.930 1_455 S
C602 N600 1.325 . S
C602 C603 1.416 . S
C602 H608 0.929 . S
C603 C601 1.366 . S
C603 C602 1.416 . S
C603 H605 0.930 . S
H604 C593 0.930 . S
H605 C603 0.930 . S
H606 C621 0.930 . S
H607 C628 0.931 . S
H608 C602 0.929 . S
H609 C601 0.930 1_655 S
H610 C624 0.929 . S
H611 C591 0.931 1_554 S
H612 C597 0.931 . S
H613 C598 0.945 . S
H614 C619 0.931 . S
H615 C594 0.929 . S
H616 C627 0.930 . S
N617 Eu588 2.600 . S
N617 C618 1.365 . S
N617 C621 1.319 . S
C618 N617 1.365 . S
C618 C620 1.405 . S
C618 C626 1.448 . S
C619 H614 0.931 . S
C619 C621 1.397 . S
C619 C622 1.367 . S
C620 C618 1.405 . S
C620 C622 1.403 . S
C620 C653 1.439 . S
C621 H606 0.930 . S
C621 N617 1.319 . S
C621 C619 1.397 . S
C622 C619 1.367 . S
C622 C620 1.403 . S
C622 H629 0.929 . S
N623 Eu588 2.562 . S
N623 C624 1.325 . S
N623 C626 1.351 . S
C624 H610 0.929 . S
C624 N623 1.325 . S
C624 C628 1.416 . S
C625 C626 1.430 . S
C625 C627 1.404 1_565 S
C625 C654 1.387 1_565 S
C626 C618 1.448 . S
C626 N623 1.351 . S
C626 C625 1.430 . S
C627 H616 0.930 . S
C627 C625 1.404 1_545 S
C627 C628 1.366 1_545 S
C628 H607 0.931 . S
C628 C624 1.416 . S
C628 C627 1.366 1_565 S
H629 C622 0.929 . S
H630 C653 0.933 1_545 S
H631 C654 0.931 . S
O632 Eu588 2.462 . S
O632 C652 1.252 . S
O633 Eu588 2.373 . S
O633 C644 1.249 . S
O634 Eu599 2.335 . S
O634 C644 1.264 . S
O635 Eu588 2.432 . S
O635 C652 1.268 . S
O636 Eu588 2.291 . S
O636 C651 1.255 . S
O637 Eu599 2.372 . S
O637 C651 1.257 . S
O638 Eu599 2.462 . S
O638 C663 1.252 . S
O639 Eu599 2.373 . S
O639 C655 1.249 . S
O640 Eu588 2.335 . S
O640 C655 1.264 . S
O641 Eu599 2.432 . S
O641 C663 1.268 . S
O642 Eu599 2.291 . S
O642 C662 1.255 . S
O643 Eu588 2.372 . S
O643 C662 1.257 . S
C644 O633 1.249 . S
C644 O634 1.264 . S
C645 C648 1.382 . S
C645 C650 1.390 . S
C645 C652 1.506 1_545 S
C646 C647 1.398 . S
C646 C650 1.392 . S
C647 C646 1.398 . S
C647 C649 1.372 . S
C647 H664 0.931 . S
C648 C645 1.382 . S
C648 C649 1.390 . S
C648 H665 0.931 . S
C649 C647 1.372 . S
C649 C648 1.390 . S
C649 H666 0.929 . S
C650 C645 1.390 . S
C650 C646 1.392 . S
C650 H667 0.930 . S
C651 O636 1.255 . S
C651 O637 1.257 . S
C652 Eu588 2.787 . S
C652 O632 1.252 . S
C652 O635 1.268 . S
C652 C645 1.506 1_565 S
C653 C620 1.439 . S
C653 H630 0.933 1_565 S
C653 C654 1.374 1_565 S
C654 C625 1.387 1_545 S
C654 H631 0.931 . S
C654 C653 1.374 1_545 S
C655 O639 1.249 . S
C655 O640 1.264 . S
C656 C659 1.382 . S
C656 C660 1.390 . S
C656 C663 1.506 . S
C657 C658 1.398 . S
C657 C660 1.392 . S
C658 C657 1.398 . S
C658 C661 1.372 . S
C658 H668 0.931 . S
C659 C656 1.382 . S
C659 C661 1.390 . S
C659 H669 0.931 . S
C660 C656 1.390 . S
C660 C657 1.392 . S
C660 H670 0.930 . S
C661 C658 1.372 . S
C661 C659 1.390 . S
C661 H671 0.929 . S
C662 O642 1.255 . S
C662 O643 1.257 . S
C663 Eu599 2.787 . S
C663 O638 1.252 . S
C663 O641 1.268 . S
C663 C656 1.506 . S
H664 C647 0.931 . S
H665 C648 0.931 . S
H666 C649 0.929 . S
H667 C650 0.930 . S
H668 C658 0.931 . S
H669 C659 0.931 . S
H670 C660 0.930 . S
H671 C661 0.929 . S
Eu672 N701 2.600 . S
Eu672 N707 2.562 . S
Eu672 O716 2.462 . S
Eu672 O717 2.373 . S
Eu672 O719 2.432 . S
Eu672 O720 2.291 . S
Eu672 O724 2.335 . S
Eu672 O727 2.372 . S
Eu672 C736 2.787 . S
C673 N674 1.365 . S
C673 C676 1.405 . S
C673 C680 1.448 . S
N674 C673 1.365 . S
N674 C677 1.319 . S
N674 Eu683 2.600 . S
C675 C677 1.397 . S
C675 C678 1.367 . S
C675 H695 0.931 . S
C676 C673 1.405 . S
C676 C678 1.403 . S
C676 C682 1.439 . S
C677 N674 1.319 . S
C677 C675 1.397 . S
C677 H688 0.930 . S
C678 C675 1.367 . S
C678 C676 1.403 . S
C678 H699 0.929 . S
C679 C680 1.430 . S
C679 C681 1.387 . S
C679 C685 1.404 . S
C680 C673 1.448 . S
C680 C679 1.430 . S
C680 N684 1.351 . S
C681 C679 1.387 . S
C681 C682 1.374 . S
C681 H696 0.931 . S
C682 C676 1.439 . S
C682 C681 1.374 . S
C682 H697 0.931 . S
Eu683 N674 2.600 . S
Eu683 N684 2.562 . S
Eu683 O718 2.335 . S
Eu683 O721 2.372 . S
Eu683 O722 2.462 . S
Eu683 O723 2.373 . S
Eu683 O725 2.432 . S
Eu683 O726 2.291 . S
Eu683 C747 2.787 . S
N684 C680 1.351 . S
N684 Eu683 2.562 . S
N684 C686 1.325 . S
C685 C679 1.404 . S
C685 C687 1.366 . S
C685 H693 0.930 . S
C686 N684 1.325 . S
C686 C687 1.416 . S
C686 H692 0.929 . S
C687 C685 1.366 . S
C687 C686 1.416 . S
C687 H689 0.930 . S
H688 C677 0.930 . S
H689 C687 0.930 . S
H690 C705 0.930 . S
H691 C712 0.930 . S
H692 C686 0.929 . S
H693 C685 0.930 . S
H694 C708 0.929 . S
H695 C675 0.931 . S
H696 C681 0.931 . S
H697 C682 0.931 . S
H698 C703 0.931 . S
H699 C678 0.929 . S
H700 C711 0.930 1_545 S
N701 Eu672 2.600 . S
N701 C702 1.365 . S
N701 C705 1.319 . S
C702 N701 1.365 . S
C702 C704 1.405 . S
C702 C710 1.448 . S
C703 H698 0.931 . S
C703 C705 1.397 . S
C703 C706 1.367 . S
C704 C702 1.405 . S
C704 C706 1.403 . S
C704 C737 1.418 1_565 S
C705 H690 0.930 . S
C705 N701 1.319 . S
C705 C703 1.397 . S
C706 C703 1.367 . S
C706 C704 1.403 . S
C706 H713 0.929 . S
N707 Eu672 2.562 . S
N707 C708 1.325 . S
N707 C710 1.351 . S
C708 H694 0.929 . S
C708 N707 1.325 . S
C708 C712 1.416 . S
C709 C710 1.430 . S
C709 C711 1.404 . S
C709 C738 1.387 1_565 S
C710 C702 1.448 . S
C710 N707 1.351 . S
C710 C709 1.430 . S
C711 H700 0.930 1_565 S
C711 C709 1.404 . S
C711 C712 1.366 . S
C712 H691 0.930 . S
C712 C708 1.416 . S
C712 C711 1.366 . S
H713 C706 0.929 . S
H714 C737 0.944 . S
H715 C738 0.931 . S
O716 Eu672 2.462 . S
O716 C736 1.252 . S
O717 Eu672 2.373 . S
O717 C728 1.249 . S
O718 Eu683 2.335 . S
O718 C728 1.264 . S
O719 Eu672 2.432 . S
O719 C736 1.268 . S
O720 Eu672 2.291 . S
O720 C735 1.255 . S
O721 Eu683 2.372 . S
O721 C735 1.257 . S
O722 Eu683 2.462 . S
O722 C747 1.252 . S
O723 Eu683 2.373 . S
O723 C739 1.249 . S
O724 Eu672 2.335 . S
O724 C739 1.264 . S
O725 Eu683 2.432 . S
O725 C747 1.268 . S
O726 Eu683 2.291 . S
O726 C746 1.255 . S
O727 Eu672 2.372 . S
O727 C746 1.257 . S
C728 O717 1.249 . S
C728 O718 1.264 . S
C729 C732 1.382 . S
C729 C734 1.390 . S
C729 C736 1.506 . S
C730 C731 1.398 . S
C730 C734 1.392 . S
C731 C730 1.398 . S
C731 C733 1.372 . S
C731 H748 0.931 . S
C732 C729 1.382 . S
C732 C733 1.390 . S
C732 H749 0.931 . S
C733 C731 1.372 . S
C733 C732 1.390 . S
C733 H750 0.929 . S
C734 C729 1.390 . S
C734 C730 1.392 . S
C734 H751 0.930 . S
C735 O720 1.255 . S
C735 O721 1.257 . S
C736 Eu672 2.787 . S
C736 O716 1.252 . S
C736 O719 1.268 . S
C736 C729 1.506 . S
C737 C704 1.418 1_545 S
C737 H714 0.944 . S
C737 C738 1.383 . S
C738 C709 1.387 1_545 S
C738 H715 0.931 . S
C738 C737 1.383 . S
C739 O723 1.249 . S
C739 O724 1.264 . S
C740 C743 1.382 . S
C740 C744 1.390 . S
C740 C747 1.506 . S
C741 C742 1.398 . S
C741 C744 1.392 . S
C742 C741 1.398 . S
C742 C745 1.372 . S
C742 H752 0.931 . S
C743 C740 1.382 . S
C743 C745 1.390 . S
C743 H753 0.931 . S
C744 C740 1.390 . S
C744 C741 1.392 . S
C744 H754 0.930 . S
C745 C742 1.372 . S
C745 C743 1.390 . S
C745 H755 0.929 . S
C746 O726 1.255 . S
C746 O727 1.257 . S
C747 Eu683 2.787 . S
C747 O722 1.252 . S
C747 O725 1.268 . S
C747 C740 1.506 . S
H748 C731 0.931 . S
H749 C732 0.931 . S
H750 C733 0.929 . S
H751 C734 0.930 . S
H752 C742 0.931 . S
H753 C743 0.931 . S
H754 C744 0.930 . S
H755 C745 0.929 . S
Eu756 N785 2.600 . S
Eu756 N791 2.562 . S
Eu756 O800 2.462 . S
Eu756 O801 2.373 . S
Eu756 O803 2.432 . S
Eu756 O804 2.291 . S
Eu756 O808 2.335 . S
Eu756 O811 2.372 . S
Eu756 C820 2.787 . S
C757 N758 1.365 . S
C757 C760 1.405 . S
C757 C764 1.448 . S
N758 C757 1.365 . S
N758 C761 1.319 . S
N758 Eu767 2.600 . S
C759 C761 1.397 . S
C759 C762 1.367 . S
C759 H779 0.931 1_556 S
C760 C757 1.405 . S
C760 C762 1.403 . S
C760 C766 1.439 . S
C761 N758 1.319 . S
C761 C759 1.397 . S
C761 H772 0.930 . S
C762 C759 1.367 . S
C762 C760 1.403 . S
C762 H783 0.929 . S
C763 C764 1.430 . S
C763 C765 1.387 . S
C763 C769 1.404 . S
C764 C757 1.448 . S
C764 C763 1.430 . S
C764 N768 1.351 . S
C765 C763 1.387 . S
C765 C766 1.374 . S
C765 H780 0.931 . S
C766 C760 1.439 . S
C766 C765 1.374 . S
C766 H781 0.931 . S
Eu767 N758 2.600 . S
Eu767 N768 2.562 . S
Eu767 O802 2.335 . S
Eu767 O805 2.372 . S
Eu767 O806 2.462 . S
Eu767 O807 2.373 . S
Eu767 O809 2.432 . S
Eu767 O810 2.291 . S
Eu767 C831 2.787 . S
N768 C764 1.351 . S
N768 Eu767 2.562 . S
N768 C770 1.325 . S
C769 C763 1.404 . S
C769 C771 1.366 . S
C769 H777 0.930 . S
C770 N768 1.325 . S
C770 C771 1.416 . S
C770 H776 0.929 . S
C771 C769 1.366 . S
C771 C770 1.416 . S
C771 H773 0.930 . S
H772 C761 0.930 . S
H773 C771 0.930 . S
H774 C789 0.930 . S
H775 C796 0.933 . S
H776 C770 0.929 . S
H777 C769 0.930 . S
H778 C792 0.929 . S
H779 C759 0.931 1_554 S
H780 C765 0.931 . S
H781 C766 0.931 . S
H782 C787 0.931 . S
H783 C762 0.929 . S
H784 C795 0.930 . S
N785 Eu756 2.600 . S
N785 C786 1.365 . S
N785 C789 1.319 . S
C786 N785 1.365 . S
C786 C788 1.405 . S
C786 C794 1.448 . S
C787 H782 0.931 . S
C787 C789 1.397 . S
C787 C790 1.367 . S
C788 C786 1.405 . S
C788 C790 1.403 . S
C788 C821 1.439 . S
C789 H774 0.930 . S
C789 N785 1.319 . S
C789 C787 1.397 . S
C790 C787 1.367 . S
C790 C788 1.403 . S
C790 H797 0.929 . S
N791 Eu756 2.562 . S
N791 C792 1.325 . S
N791 C794 1.351 . S
C792 H778 0.929 . S
C792 N791 1.325 . S
C792 C796 1.416 . S
C793 C794 1.430 . S
C793 C795 1.404 1_455 S
C793 C822 1.387 1_455 S
C794 C786 1.448 . S
C794 N791 1.351 . S
C794 C793 1.430 . S
C795 H784 0.930 . S
C795 C793 1.404 1_655 S
C795 C796 1.366 1_655 S
C796 H775 0.933 . S
C796 C792 1.416 . S
C796 C795 1.366 1_455 S
H797 C790 0.929 . S
H798 C821 0.911 1_655 S
H799 C822 0.931 . S
O800 Eu756 2.462 . S
O800 C820 1.252 . S
O801 Eu756 2.373 . S
O801 C812 1.249 . S
O802 Eu767 2.335 . S
O802 C812 1.264 . S
O803 Eu756 2.432 . S
O803 C820 1.268 . S
O804 Eu756 2.291 . S
O804 C819 1.255 . S
O805 Eu767 2.372 . S
O805 C819 1.257 . S
O806 Eu767 2.462 . S
O806 C831 1.252 . S
O807 Eu767 2.373 . S
O807 C823 1.249 . S
O808 Eu756 2.335 . S
O808 C823 1.264 . S
O809 Eu767 2.432 . S
O809 C831 1.268 . S
O810 Eu767 2.291 . S
O810 C830 1.255 . S
O811 Eu756 2.372 . S
O811 C830 1.257 . S
C812 O801 1.249 . S
C812 O802 1.264 . S
C813 C816 1.382 . S
C813 C818 1.390 . S
C813 C820 1.506 1_655 S
C814 C815 1.398 . S
C814 C818 1.392 . S
C815 C814 1.398 . S
C815 C817 1.372 . S
C815 H832 0.931 . S
C816 C813 1.382 . S
C816 C817 1.390 . S
C816 H833 0.931 . S
C817 C815 1.372 . S
C817 C816 1.390 . S
C817 H834 0.929 . S
C818 C813 1.390 . S
C818 C814 1.392 . S
C818 H835 0.930 . S
C819 O804 1.255 . S
C819 O805 1.257 . S
C820 Eu756 2.787 . S
C820 O800 1.252 . S
C820 O803 1.268 . S
C820 C813 1.506 1_455 S
C821 C788 1.439 . S
C821 H798 0.911 1_455 S
C821 C822 1.374 1_455 S
C822 C793 1.387 1_655 S
C822 H799 0.931 . S
C822 C821 1.374 1_655 S
C823 O807 1.249 . S
C823 O808 1.264 . S
C824 C827 1.382 . S
C824 C828 1.390 . S
C824 C831 1.506 . S
C825 C826 1.398 . S
C825 C828 1.392 . S
C826 C825 1.398 . S
C826 C829 1.372 . S
C826 H836 0.931 . S
C827 C824 1.382 . S
C827 C829 1.390 . S
C827 H837 0.931 . S
C828 C824 1.390 . S
C828 C825 1.392 . S
C828 H838 0.930 . S
C829 C826 1.372 . S
C829 C827 1.390 . S
C829 H839 0.929 . S
C830 O810 1.255 . S
C830 O811 1.257 . S
C831 Eu767 2.787 . S
C831 O806 1.252 . S
C831 O809 1.268 . S
C831 C824 1.506 . S
H832 C815 0.931 . S
H833 C816 0.931 . S
H834 C817 0.929 . S
H835 C818 0.930 . S
H836 C826 0.931 . S
H837 C827 0.931 . S
H838 C828 0.930 . S
H839 C829 0.929 . S
Eu840 N869 2.600 . S
Eu840 N875 2.562 . S
Eu840 O884 2.462 . S
Eu840 O885 2.373 . S
Eu840 O887 2.432 . S
Eu840 O888 2.291 . S
Eu840 O892 2.335 . S
Eu840 O895 2.372 . S
Eu840 C904 2.787 . S
C841 N842 1.365 . S
C841 C844 1.405 . S
C841 C848 1.448 . S
N842 C841 1.365 . S
N842 C845 1.319 . S
N842 Eu851 2.600 . S
C843 C845 1.397 . S
C843 C846 1.367 . S
C843 H863 0.931 . S
C844 C841 1.405 . S
C844 C846 1.403 . S
C844 C850 1.439 . S
C845 N842 1.319 . S
C845 C843 1.397 . S
C845 H856 0.930 . S
C846 C843 1.367 . S
C846 C844 1.403 . S
C846 H867 0.929 . S
C847 C848 1.430 . S
C847 C849 1.387 1_565 S
C847 C853 1.404 1_565 S
C848 C841 1.448 . S
C848 C847 1.430 . S
C848 N852 1.351 . S
C849 C847 1.387 1_545 S
C849 C850 1.374 1_545 S
C849 H864 0.931 . S
C850 C844 1.439 . S
C850 C849 1.374 1_565 S
C850 H865 0.933 1_565 S
Eu851 N842 2.600 . S
Eu851 N852 2.562 . S
Eu851 O886 2.335 . S
Eu851 O889 2.372 . S
Eu851 O890 2.462 . S
Eu851 O891 2.373 . S
Eu851 O893 2.432 . S
Eu851 O894 2.291 . S
Eu851 C915 2.787 . S
N852 C848 1.351 . S
N852 Eu851 2.562 . S
N852 C854 1.325 . S
C853 C847 1.404 1_545 S
C853 C855 1.366 1_545 S
C853 H861 0.930 . S
C854 N852 1.325 . S
C854 C855 1.416 . S
C854 H860 0.929 . S
C855 C853 1.366 1_565 S
C855 C854 1.416 . S
C855 H857 0.931 . S
H856 C845 0.930 . S
H857 C855 0.931 . S
H858 C873 0.930 . S
H859 C880 0.930 . S
H860 C854 0.929 . S
H861 C853 0.930 . S
H862 C876 0.929 . S
H863 C843 0.931 . S
H864 C849 0.931 . S
H865 C850 0.933 1_545 S
H866 C871 0.931 . S
H867 C846 0.929 . S
H868 C879 0.930 1_655 S
N869 Eu840 2.600 . S
N869 C870 1.365 . S
N869 C873 1.319 . S
C870 N869 1.365 . S
C870 C872 1.405 . S
C870 C878 1.448 . S
C871 H866 0.931 . S
C871 C873 1.397 . S
C871 C874 1.367 . S
C872 C870 1.405 . S
C872 C874 1.403 . S
C872 C905 1.422 1_455 S
C873 H858 0.930 . S
C873 N869 1.319 . S
C873 C871 1.397 . S
C874 C871 1.367 . S
C874 C872 1.403 . S
C874 H881 0.929 . S
N875 Eu840 2.562 . S
N875 C876 1.325 . S
N875 C878 1.351 . S
C876 H862 0.929 . S
C876 N875 1.325 . S
C876 C880 1.416 . S
C877 C878 1.430 . S
C877 C879 1.404 . S
C877 C906 1.387 1_455 S
C878 C870 1.448 . S
C878 N875 1.351 . S
C878 C877 1.430 . S
C879 H868 0.930 1_455 S
C879 C877 1.404 . S
C879 C880 1.366 . S
C880 H859 0.930 . S
C880 C876 1.416 . S
C880 C879 1.366 . S
H881 C874 0.929 . S
H882 C905 0.945 . S
H883 C906 0.931 . S
O884 Eu840 2.462 . S
O884 C904 1.252 . S
O885 Eu840 2.373 . S
O885 C896 1.249 . S
O886 Eu851 2.335 . S
O886 C896 1.264 . S
O887 Eu840 2.432 . S
O887 C904 1.268 . S
O888 Eu840 2.291 . S
O888 C903 1.255 . S
O889 Eu851 2.372 . S
O889 C903 1.257 . S
O890 Eu851 2.462 . S
O890 C915 1.252 . S
O891 Eu851 2.373 . S
O891 C907 1.249 . S
O892 Eu840 2.335 . S
O892 C907 1.264 . S
O893 Eu851 2.432 . S
O893 C915 1.268 . S
O894 Eu851 2.291 . S
O894 C914 1.255 . S
O895 Eu840 2.372 . S
O895 C914 1.257 . S
C896 O885 1.249 . S
C896 O886 1.264 . S
C897 C900 1.382 . S
C897 C902 1.390 . S
C897 C904 1.506 . S
C898 C899 1.398 . S
C898 C902 1.392 . S
C899 C898 1.398 . S
C899 C901 1.372 . S
C899 H916 0.931 . S
C900 C897 1.382 . S
C900 C901 1.390 . S
C900 H917 0.931 . S
C901 C899 1.372 . S
C901 C900 1.390 . S
C901 H918 0.929 . S
C902 C897 1.390 . S
C902 C898 1.392 . S
C902 H919 0.930 . S
C903 O888 1.255 . S
C903 O889 1.257 . S
C904 Eu840 2.787 . S
C904 O884 1.252 . S
C904 O887 1.268 . S
C904 C897 1.506 . S
C905 C872 1.422 1_655 S
C905 H882 0.945 . S
C905 C906 1.378 . S
C906 C877 1.387 1_655 S
C906 H883 0.931 . S
C906 C905 1.378 . S
C907 O891 1.249 . S
C907 O892 1.264 . S
C908 C911 1.382 . S
C908 C912 1.390 . S
C908 C915 1.506 1_545 S
C909 C910 1.398 . S
C909 C912 1.392 . S
C910 C909 1.398 . S
C910 C913 1.372 . S
C910 H920 0.931 . S
C911 C908 1.382 . S
C911 C913 1.390 . S
C911 H921 0.931 . S
C912 C908 1.390 . S
C912 C909 1.392 . S
C912 H922 0.930 . S
C913 C910 1.372 . S
C913 C911 1.390 . S
C913 H923 0.929 . S
C914 O894 1.255 . S
C914 O895 1.257 . S
C915 Eu851 2.787 . S
C915 O890 1.252 . S
C915 O893 1.268 . S
C915 C908 1.506 1_565 S
H916 C899 0.931 . S
H917 C900 0.931 . S
H918 C901 0.929 . S
H919 C902 0.930 . S
H920 C910 0.931 . S
H921 C911 0.931 . S
H922 C912 0.930 . S
H923 C913 0.929 . S
Eu924 N953 2.600 . S
Eu924 N959 2.562 . S
Eu924 O968 2.462 . S
Eu924 O969 2.373 . S
Eu924 O971 2.432 . S
Eu924 O972 2.291 . S
Eu924 O976 2.335 . S
Eu924 O979 2.372 . S
Eu924 C988 2.787 . S
C925 N926 1.365 . S
C925 C928 1.405 . S
C925 C932 1.448 . S
N926 C925 1.365 . S
N926 C929 1.319 . S
N926 Eu935 2.600 . S
C927 C929 1.397 . S
C927 C930 1.367 . S
C927 H947 0.931 1_556 S
C928 C925 1.405 . S
C928 C930 1.403 . S
C928 C934 1.418 1_565 S
C929 N926 1.319 . S
C929 C927 1.397 . S
C929 H940 0.930 . S
C930 C927 1.367 . S
C930 C928 1.403 . S
C930 H951 0.929 . S
C931 C932 1.430 . S
C931 C933 1.387 1_565 S
C931 C937 1.404 . S
C932 C925 1.448 . S
C932 C931 1.430 . S
C932 N936 1.351 . S
C933 C931 1.387 1_545 S
C933 C934 1.383 . S
C933 H948 0.931 . S
C934 C928 1.418 1_545 S
C934 C933 1.383 . S
C934 H949 0.944 . S
Eu935 N926 2.600 . S
Eu935 N936 2.562 . S
Eu935 O970 2.335 . S
Eu935 O973 2.372 . S
Eu935 O974 2.462 . S
Eu935 O975 2.373 . S
Eu935 O977 2.432 . S
Eu935 O978 2.291 . S
Eu935 C999 2.787 . S
N936 C932 1.351 . S
N936 Eu935 2.562 . S
N936 C938 1.325 . S
C937 C931 1.404 . S
C937 C939 1.366 . S
C937 H945 0.930 1_565 S
C938 N936 1.325 . S
C938 C939 1.416 . S
C938 H944 0.929 . S
C939 C937 1.366 . S
C939 C938 1.416 . S
C939 H941 0.930 . S
H940 C929 0.930 . S
H941 C939 0.930 . S
H942 C957 0.930 . S
H943 C964 0.930 . S
H944 C938 0.929 . S
H945 C937 0.930 1_545 S
H946 C960 0.929 . S
H947 C927 0.931 1_554 S
H948 C933 0.931 . S
H949 C934 0.944 . S
H950 C955 0.931 . S
H951 C930 0.929 . S
H952 C963 0.930 . S
N953 Eu924 2.600 . S
N953 C954 1.365 . S
N953 C957 1.319 . S
C954 N953 1.365 . S
C954 C956 1.405 . S
C954 C962 1.448 . S
C955 H950 0.931 . S
C955 C957 1.397 . S
C955 C958 1.367 . S
C956 C954 1.405 . S
C956 C958 1.403 . S
C956 C989 1.439 . S
C957 H942 0.930 . S
C957 N953 1.319 . S
C957 C955 1.397 . S
C958 C955 1.367 . S
C958 C956 1.403 . S
C958 H965 0.929 . S
N959 Eu924 2.562 . S
N959 C960 1.325 . S
N959 C962 1.351 . S
C960 H946 0.929 . S
C960 N959 1.325 . S
C960 C964 1.416 . S
C961 C962 1.430 . S
C961 C963 1.404 . S
C961 C990 1.387 . S
C962 C954 1.448 . S
C962 N959 1.351 . S
C962 C961 1.430 . S
C963 H952 0.930 . S
C963 C961 1.404 . S
C963 C964 1.366 . S
C964 H943 0.930 . S
C964 C960 1.416 . S
C964 C963 1.366 . S
H965 C958 0.929 . S
H966 C989 0.931 . S
H967 C990 0.931 . S
O968 Eu924 2.462 . S
O968 C988 1.252 . S
O969 Eu924 2.373 . S
O969 C980 1.249 . S
O970 Eu935 2.335 . S
O970 C980 1.264 . S
O971 Eu924 2.432 . S
O971 C988 1.268 . S
O972 Eu924 2.291 . S
O972 C987 1.255 . S
O973 Eu935 2.372 . S
O973 C987 1.257 . S
O974 Eu935 2.462 . S
O974 C999 1.252 . S
O975 Eu935 2.373 . S
O975 C991 1.249 . S
O976 Eu924 2.335 . S
O976 C991 1.264 . S
O977 Eu935 2.432 . S
O977 C999 1.268 . S
O978 Eu935 2.291 . S
O978 C998 1.255 . S
O979 Eu924 2.372 . S
O979 C998 1.257 . S
C980 O969 1.249 . S
C980 O970 1.264 . S
C981 C984 1.382 . S
C981 C986 1.390 . S
C981 C988 1.506 . S
C982 C983 1.398 . S
C982 C986 1.392 . S
C983 C982 1.398 . S
C983 C985 1.372 . S
C983 H1000 0.931 . S
C984 C981 1.382 . S
C984 C985 1.390 . S
C984 H1001 0.931 . S
C985 C983 1.372 . S
C985 C984 1.390 . S
C985 H1002 0.929 . S
C986 C981 1.390 . S
C986 C982 1.392 . S
C986 H1003 0.930 . S
C987 O972 1.255 . S
C987 O973 1.257 . S
C988 Eu924 2.787 . S
C988 O968 1.252 . S
C988 O971 1.268 . S
C988 C981 1.506 . S
C989 C956 1.439 . S
C989 H966 0.931 . S
C989 C990 1.374 . S
C990 C961 1.387 . S
C990 H967 0.931 . S
C990 C989 1.374 . S
C991 O975 1.249 . S
C991 O976 1.264 . S
C992 C995 1.382 . S
C992 C996 1.390 . S
C992 C999 1.506 . S
C993 C994 1.398 . S
C993 C996 1.392 . S
C994 C993 1.398 . S
C994 C997 1.372 . S
C994 H1004 0.931 . S
C995 C992 1.382 . S
C995 C997 1.390 . S
C995 H1005 0.931 . S
C996 C992 1.390 . S
C996 C993 1.392 . S
C996 H1006 0.930 . S
C997 C994 1.372 . S
C997 C995 1.390 . S
C997 H1007 0.929 . S
C998 O978 1.255 . S
C998 O979 1.257 . S
C999 Eu935 2.787 . S
C999 O974 1.252 . S
C999 O977 1.268 . S
C999 C992 1.506 . S
H1000 C983 0.931 . S
H1001 C984 0.931 . S
H1002 C985 0.929 . S
H1003 C986 0.930 . S
H1004 C994 0.931 . S
H1005 C995 0.931 . S
H1006 C996 0.930 . S
H1007 C997 0.929 . S
H1008 C1014 0.930 . S
H1009 C1018 0.930 . S
H1010 C1023 0.929 . S
H1011 C1021 0.929 . S
H1012 C1016 0.929 . S
H1013 C1022 0.929 . S
C1014 H1008 0.930 . S
C1014 C1015 1.367 . S
C1014 C1022 1.378 . S
C1015 C1014 1.367 . S
C1015 C1023 1.433 . S
C1016 H1012 0.929 . S
C1016 C1018 1.378 . S
C1016 C1020 1.350 . S
C1017 C1020 1.463 . S
C1017 C1022 1.350 . S
C1017 N1025 1.427 . S
C1018 H1009 0.930 . S
C1018 C1016 1.378 . S
C1018 C1019 1.367 . S
C1019 C1018 1.367 . S
C1019 C1021 1.433 . S
C1020 C1016 1.350 . S
C1020 C1017 1.463 . S
C1020 N1024 1.427 . S
C1021 H1011 0.929 . S
C1021 C1019 1.433 . S
C1021 N1024 1.384 . S
C1022 H1013 0.929 . S
C1022 C1014 1.378 . S
C1022 C1017 1.350 . S
C1023 H1010 0.929 . S
C1023 C1015 1.433 . S
C1023 N1025 1.384 . S
N1024 C1020 1.427 . S
N1024 C1021 1.384 . S
N1025 C1017 1.427 . S
N1025 C1023 1.384 . S
H1026 C1032 0.930 . S
H1027 C1036 0.930 . S
H1028 C1041 0.929 . S
H1029 C1039 0.929 . S
H1030 C1034 0.929 . S
H1031 C1040 0.929 . S
C1032 H1026 0.930 . S
C1032 C1033 1.367 . S
C1032 C1040 1.378 . S
C1033 C1032 1.367 . S
C1033 C1041 1.433 . S
C1034 H1030 0.929 . S
C1034 C1036 1.378 . S
C1034 C1038 1.350 . S
C1035 C1038 1.463 1_455 S
C1035 C1040 1.350 . S
C1035 N1043 1.427 . S
C1036 H1027 0.930 . S
C1036 C1034 1.378 . S
C1036 C1037 1.367 . S
C1037 C1036 1.367 . S
C1037 C1039 1.433 . S
C1038 C1034 1.350 . S
C1038 C1035 1.463 1_655 S
C1038 N1042 1.427 . S
C1039 H1029 0.929 . S
C1039 C1037 1.433 . S
C1039 N1042 1.384 . S
C1040 H1031 0.929 . S
C1040 C1032 1.378 . S
C1040 C1035 1.350 . S
C1041 H1028 0.929 . S
C1041 C1033 1.433 . S
C1041 N1043 1.384 . S
N1042 C1038 1.427 . S
N1042 C1039 1.384 . S
N1043 C1035 1.427 . S
N1043 C1041 1.384 . S
H1044 C1050 0.930 . S
H1045 C1054 0.930 . S
H1046 C1059 0.929 . S
H1047 C1057 0.929 . S
H1048 C1052 0.929 . S
H1049 C1058 0.929 . S
C1050 H1044 0.930 . S
C1050 C1051 1.367 . S
C1050 C1058 1.378 . S
C1051 C1050 1.367 . S
C1051 C1059 1.433 . S
C1052 H1048 0.929 . S
C1052 C1054 1.378 . S
C1052 C1056 1.350 . S
C1053 C1056 1.463 1_545 S
C1053 C1058 1.350 . S
C1053 N1061 1.427 . S
C1054 H1045 0.930 . S
C1054 C1052 1.378 . S
C1054 C1055 1.367 . S
C1055 C1054 1.367 . S
C1055 C1057 1.433 . S
C1056 C1052 1.350 . S
C1056 C1053 1.463 1_565 S
C1056 N1060 1.427 . S
C1057 H1047 0.929 . S
C1057 C1055 1.433 . S
C1057 N1060 1.384 . S
C1058 H1049 0.929 . S
C1058 C1050 1.378 . S
C1058 C1053 1.350 . S
C1059 H1046 0.929 . S
C1059 C1051 1.433 . S
C1059 N1061 1.384 . S
N1060 C1056 1.427 . S
N1060 C1057 1.384 . S
N1061 C1053 1.427 . S
N1061 C1059 1.384 . S
H1062 C1068 0.930 . S
H1063 C1072 0.930 . S
H1064 C1077 0.929 . S
H1065 C1075 0.929 . S
H1066 C1070 0.929 . S
H1067 C1076 0.929 . S
C1068 H1062 0.930 . S
C1068 C1069 1.367 . S
C1068 C1076 1.378 . S
C1069 C1068 1.367 . S
C1069 C1077 1.433 . S
C1070 H1066 0.929 . S
C1070 C1072 1.378 . S
C1070 C1074 1.350 . S
C1071 C1074 1.463 . S
C1071 C1076 1.350 . S
C1071 N1079 1.427 . S
C1072 H1063 0.930 . S
C1072 C1070 1.378 . S
C1072 C1073 1.367 . S
C1073 C1072 1.367 . S
C1073 C1075 1.433 . S
C1074 C1070 1.350 . S
C1074 C1071 1.463 . S
C1074 N1078 1.427 . S
C1075 H1065 0.929 . S
C1075 C1073 1.433 . S
C1075 N1078 1.384 . S
C1076 H1067 0.929 . S
C1076 C1068 1.378 . S
C1076 C1071 1.350 . S
C1077 H1064 0.929 . S
C1077 C1069 1.433 . S
C1077 N1079 1.384 . S
N1078 C1074 1.427 . S
N1078 C1075 1.384 . S
N1079 C1071 1.427 . S
N1079 C1077 1.384 . S
H1080 C1086 0.930 . S
H1081 C1090 0.930 . S
H1082 C1095 0.929 . S
H1083 C1093 0.929 . S
H1084 C1088 0.929 . S
H1085 C1094 0.929 . S
C1086 H1080 0.930 . S
C1086 C1087 1.367 . S
C1086 C1094 1.378 . S
C1087 C1086 1.367 . S
C1087 C1095 1.433 . S
C1088 H1084 0.929 . S
C1088 C1090 1.378 . S
C1088 C1092 1.350 . S
C1089 C1092 1.463 1_455 S
C1089 C1094 1.350 . S
C1089 N1097 1.427 . S
C1090 H1081 0.930 . S
C1090 C1088 1.378 . S
C1090 C1091 1.367 . S
C1091 C1090 1.367 . S
C1091 C1093 1.433 . S
C1092 C1088 1.350 . S
C1092 C1089 1.463 1_655 S
C1092 N1096 1.427 . S
C1093 H1083 0.929 . S
C1093 C1091 1.433 . S
C1093 N1096 1.384 . S
C1094 H1085 0.929 . S
C1094 C1086 1.378 . S
C1094 C1089 1.350 . S
C1095 H1082 0.929 . S
C1095 C1087 1.433 . S
C1095 N1097 1.384 . S
N1096 C1092 1.427 . S
N1096 C1093 1.384 . S
N1097 C1089 1.427 . S
N1097 C1095 1.384 . S
H1098 C1104 0.930 . S
H1099 C1108 0.930 . S
H1100 C1113 0.929 . S
H1101 C1111 0.929 . S
H1102 C1106 0.929 . S
H1103 C1112 0.929 . S
C1104 H1098 0.930 . S
C1104 C1105 1.367 . S
C1104 C1112 1.378 . S
C1105 C1104 1.367 . S
C1105 C1113 1.433 . S
C1106 H1102 0.929 . S
C1106 C1108 1.378 . S
C1106 C1110 1.350 . S
C1107 C1110 1.463 1_565 S
C1107 C1112 1.350 . S
C1107 N1115 1.427 . S
C1108 H1099 0.930 . S
C1108 C1106 1.378 . S
C1108 C1109 1.367 . S
C1109 C1108 1.367 . S
C1109 C1111 1.433 . S
C1110 C1106 1.350 . S
C1110 C1107 1.463 1_545 S
C1110 N1114 1.427 . S
C1111 H1101 0.929 . S
C1111 C1109 1.433 . S
C1111 N1114 1.384 . S
C1112 H1103 0.929 . S
C1112 C1104 1.378 . S
C1112 C1107 1.350 . S
C1113 H1100 0.929 . S
C1113 C1105 1.433 . S
C1113 N1115 1.384 . S
N1114 C1110 1.427 . S
N1114 C1111 1.384 . S
N1115 C1107 1.427 . S
N1115 C1113 1.384 . S
H1116 C1122 0.930 . S
H1117 C1126 0.930 . S
H1118 C1131 0.929 . S
H1119 C1129 0.929 . S
H1120 C1124 0.929 . S
H1121 C1130 0.929 . S
C1122 H1116 0.930 . S
C1122 C1123 1.367 . S
C1122 C1130 1.378 . S
C1123 C1122 1.367 . S
C1123 C1131 1.433 . S
C1124 H1120 0.929 . S
C1124 C1126 1.378 . S
C1124 C1128 1.350 . S
C1125 C1128 1.463 . S
C1125 C1130 1.350 . S
C1125 N1133 1.427 . S
C1126 H1117 0.930 . S
C1126 C1124 1.378 . S
C1126 C1127 1.367 . S
C1127 C1126 1.367 . S
C1127 C1129 1.433 . S
C1128 C1124 1.350 . S
C1128 C1125 1.463 . S
C1128 N1132 1.427 . S
C1129 H1119 0.929 . S
C1129 C1127 1.433 . S
C1129 N1132 1.384 . S
C1130 H1121 0.929 . S
C1130 C1122 1.378 . S
C1130 C1125 1.350 . S
C1131 H1118 0.929 . S
C1131 C1123 1.433 . S
C1131 N1133 1.384 . S
N1132 C1128 1.427 . S
N1132 C1129 1.384 . S
N1133 C1125 1.427 . S
N1133 C1131 1.384 . S
H1134 C1140 0.930 . S
H1135 C1144 0.930 . S
H1136 C1149 0.929 . S
H1137 C1147 0.929 . S
H1138 C1142 0.929 . S
H1139 C1148 0.929 1_655 S
C1140 H1134 0.930 . S
C1140 C1141 1.367 . S
C1140 C1148 1.378 . S
C1141 C1140 1.367 . S
C1141 C1149 1.433 . S
C1142 H1138 0.929 . S
C1142 C1144 1.378 . S
C1142 C1146 1.350 . S
C1143 C1146 1.463 1_455 S
C1143 C1148 1.350 . S
C1143 N1151 1.427 . S
C1144 H1135 0.930 . S
C1144 C1142 1.378 . S
C1144 C1145 1.367 . S
C1145 C1144 1.367 . S
C1145 C1147 1.433 . S
C1146 C1142 1.350 . S
C1146 C1143 1.463 1_655 S
C1146 N1150 1.427 . S
C1147 H1137 0.929 . S
C1147 C1145 1.433 . S
C1147 N1150 1.384 . S
C1148 H1139 0.929 1_455 S
C1148 C1140 1.378 . S
C1148 C1143 1.350 . S
C1149 H1136 0.929 . S
C1149 C1141 1.433 . S
C1149 N1151 1.384 . S
N1150 C1146 1.427 . S
N1150 C1147 1.384 . S
N1151 C1143 1.427 . S
N1151 C1149 1.384 . S
H1152 C1158 0.930 . S
H1153 C1162 0.930 . S
H1154 C1167 0.929 . S
H1155 C1165 0.929 . S
H1156 C1160 0.929 . S
H1157 C1166 0.929 1_545 S
C1158 H1152 0.930 . S
C1158 C1159 1.367 . S
C1158 C1166 1.378 . S
C1159 C1158 1.367 . S
C1159 C1167 1.433 . S
C1160 H1156 0.929 . S
C1160 C1162 1.378 . S
C1160 C1164 1.350 . S
C1161 C1164 1.463 1_565 S
C1161 C1166 1.350 . S
C1161 N1169 1.427 . S
C1162 H1153 0.930 . S
C1162 C1160 1.378 . S
C1162 C1163 1.367 . S
C1163 C1162 1.367 . S
C1163 C1165 1.433 . S
C1164 C1160 1.350 . S
C1164 C1161 1.463 1_545 S
C1164 N1168 1.427 . S
C1165 H1155 0.929 . S
C1165 C1163 1.433 . S
C1165 N1168 1.384 . S
C1166 H1157 0.929 1_565 S
C1166 C1158 1.378 . S
C1166 C1161 1.350 . S
C1167 H1154 0.929 . S
C1167 C1159 1.433 . S
C1167 N1169 1.384 . S
N1168 C1164 1.427 . S
N1168 C1165 1.384 . S
N1169 C1161 1.427 . S
N1169 C1167 1.384 . S
H1170 C1176 0.930 . S
H1171 C1180 0.930 . S
H1172 C1185 0.929 . S
H1173 C1183 0.929 . S
H1174 C1178 0.929 . S
H1175 C1184 0.929 . S
C1176 H1170 0.930 . S
C1176 C1177 1.367 . S
C1176 C1184 1.378 . S
C1177 C1176 1.367 . S
C1177 C1185 1.433 . S
C1178 H1174 0.929 . S
C1178 C1180 1.378 . S
C1178 C1182 1.350 . S
C1179 C1182 1.463 . S
C1179 C1184 1.350 . S
C1179 N1187 1.427 . S
C1180 H1171 0.930 . S
C1180 C1178 1.378 . S
C1180 C1181 1.367 . S
C1181 C1180 1.367 . S
C1181 C1183 1.433 . S
C1182 C1178 1.350 . S
C1182 C1179 1.463 . S
C1182 N1186 1.427 . S
C1183 H1173 0.929 . S
C1183 C1181 1.433 . S
C1183 N1186 1.384 . S
C1184 H1175 0.929 . S
C1184 C1176 1.378 . S
C1184 C1179 1.350 . S
C1185 H1172 0.929 . S
C1185 C1177 1.433 . S
C1185 N1187 1.384 . S
N1186 C1182 1.427 . S
N1186 C1183 1.384 . S
N1187 C1179 1.427 . S
N1187 C1185 1.384 . S
H1188 C1194 0.930 . S
H1189 C1198 0.930 . S
H1190 C1203 0.929 . S
H1191 C1201 0.929 . S
H1192 C1196 0.929 . S
H1193 C1202 0.929 . S
C1194 H1188 0.930 . S
C1194 C1195 1.367 . S
C1194 C1202 1.378 . S
C1195 C1194 1.367 . S
C1195 C1203 1.433 . S
C1196 H1192 0.929 . S
C1196 C1198 1.378 . S
C1196 C1200 1.350 . S
C1197 C1200 1.463 1_455 S
C1197 C1202 1.350 . S
C1197 N1205 1.427 . S
C1198 H1189 0.930 . S
C1198 C1196 1.378 . S
C1198 C1199 1.367 . S
C1199 C1198 1.367 . S
C1199 C1201 1.433 . S
C1200 C1196 1.350 . S
C1200 C1197 1.463 1_655 S
C1200 N1204 1.427 . S
C1201 H1191 0.929 . S
C1201 C1199 1.433 . S
C1201 N1204 1.384 . S
C1202 H1193 0.929 . S
C1202 C1194 1.378 . S
C1202 C1197 1.350 . S
C1203 H1190 0.929 . S
C1203 C1195 1.433 . S
C1203 N1205 1.384 . S
N1204 C1200 1.427 . S
N1204 C1201 1.384 . S
N1205 C1197 1.427 . S
N1205 C1203 1.384 . S
H1206 C1212 0.930 . S
H1207 C1216 0.930 . S
H1208 C1221 0.929 . S
H1209 C1219 0.929 . S
H1210 C1214 0.929 . S
H1211 C1220 0.929 . S
C1212 H1206 0.930 . S
C1212 C1213 1.367 . S
C1212 C1220 1.378 . S
C1213 C1212 1.367 . S
C1213 C1221 1.433 . S
C1214 H1210 0.929 . S
C1214 C1216 1.378 . S
C1214 C1218 1.350 . S
C1215 C1218 1.463 1_545 S
C1215 C1220 1.350 . S
C1215 N1223 1.427 . S
C1216 H1207 0.930 . S
C1216 C1214 1.378 . S
C1216 C1217 1.367 . S
C1217 C1216 1.367 . S
C1217 C1219 1.433 . S
C1218 C1214 1.350 . S
C1218 C1215 1.463 1_565 S
C1218 N1222 1.427 . S
C1219 H1209 0.929 . S
C1219 C1217 1.433 . S
C1219 N1222 1.384 . S
C1220 H1211 0.929 . S
C1220 C1212 1.378 . S
C1220 C1215 1.350 . S
C1221 H1208 0.929 . S
C1221 C1213 1.433 . S
C1221 N1223 1.384 . S
N1222 C1218 1.427 . S
N1222 C1219 1.384 . S
N1223 C1215 1.427 . S
N1223 C1221 1.384 . S
H1224 C1230 0.930 . S
H1225 C1234 0.930 . S
H1226 C1239 0.929 . S
H1227 C1237 0.929 . S
H1228 C1232 0.929 . S
H1229 C1238 0.929 . S
C1230 H1224 0.930 . S
C1230 C1231 1.367 . S
C1230 C1238 1.378 . S
C1231 C1230 1.367 . S
C1231 C1239 1.433 . S
C1232 H1228 0.929 . S
C1232 C1234 1.378 . S
C1232 C1236 1.350 . S
C1233 C1236 1.463 . S
C1233 C1238 1.350 . S
C1233 N1241 1.427 . S
C1234 H1225 0.930 . S
C1234 C1232 1.378 . S
C1234 C1235 1.367 . S
C1235 C1234 1.367 . S
C1235 C1237 1.433 . S
C1236 C1232 1.350 . S
C1236 C1233 1.463 . S
C1236 N1240 1.427 . S
C1237 H1227 0.929 . S
C1237 C1235 1.433 . S
C1237 N1240 1.384 . S
C1238 H1229 0.929 . S
C1238 C1230 1.378 . S
C1238 C1233 1.350 . S
C1239 H1226 0.929 . S
C1239 C1231 1.433 . S
C1239 N1241 1.384 . S
N1240 C1236 1.427 . S
N1240 C1237 1.384 . S
N1241 C1233 1.427 . S
N1241 C1239 1.384 . S
H1242 C1248 0.930 . S
H1243 C1252 0.930 . S
H1244 C1257 0.929 . S
H1245 C1255 0.929 . S
H1246 C1250 0.929 . S
H1247 C1256 0.929 . S
C1248 H1242 0.930 . S
C1248 C1249 1.367 . S
C1248 C1256 1.378 . S
C1249 C1248 1.367 . S
C1249 C1257 1.433 . S
C1250 H1246 0.929 . S
C1250 C1252 1.378 . S
C1250 C1254 1.350 . S
C1251 C1254 1.463 . S
C1251 C1256 1.350 . S
C1251 N1259 1.427 . S
C1252 H1243 0.930 . S
C1252 C1250 1.378 . S
C1252 C1253 1.367 . S
C1253 C1252 1.367 . S
C1253 C1255 1.433 . S
C1254 C1250 1.350 . S
C1254 C1251 1.463 . S
C1254 N1258 1.427 . S
C1255 H1245 0.929 . S
C1255 C1253 1.433 . S
C1255 N1258 1.384 . S
C1256 H1247 0.929 . S
C1256 C1248 1.378 . S
C1256 C1251 1.350 . S
C1257 H1244 0.929 . S
C1257 C1249 1.433 . S
C1257 N1259 1.384 . S
N1258 C1254 1.427 . S
N1258 C1255 1.384 . S
N1259 C1251 1.427 . S
N1259 C1257 1.384 . S
H1260 C1266 0.930 . S
H1261 C1270 0.930 . S
H1262 C1275 0.929 . S
H1263 C1273 0.929 . S
H1264 C1268 0.929 . S
H1265 C1274 0.929 . S
C1266 H1260 0.930 . S
C1266 C1267 1.367 . S
C1266 C1274 1.378 . S
C1267 C1266 1.367 . S
C1267 C1275 1.433 . S
C1268 H1264 0.929 . S
C1268 C1270 1.378 . S
C1268 C1272 1.350 . S
C1269 C1272 1.463 . S
C1269 C1274 1.350 . S
C1269 N1277 1.427 . S
C1270 H1261 0.930 . S
C1270 C1268 1.378 . S
C1270 C1271 1.367 . S
C1271 C1270 1.367 . S
C1271 C1273 1.433 . S
C1272 C1268 1.350 . S
C1272 C1269 1.463 . S
C1272 N1276 1.427 . S
C1273 H1263 0.929 . S
C1273 C1271 1.433 . S
C1273 N1276 1.384 . S
C1274 H1265 0.929 . S
C1274 C1266 1.378 . S
C1274 C1269 1.350 . S
C1275 H1262 0.929 . S
C1275 C1267 1.433 . S
C1275 N1277 1.384 . S
N1276 C1272 1.427 . S
N1276 C1273 1.384 . S
N1277 C1269 1.427 . S
N1277 C1275 1.384 . S
H1278 C1284 0.930 . S
H1279 C1288 0.930 . S
H1280 C1293 0.929 . S
H1281 C1291 0.929 . S
H1282 C1286 0.929 . S
H1283 C1292 0.929 . S
C1284 H1278 0.930 . S
C1284 C1285 1.367 . S
C1284 C1292 1.378 . S
C1285 C1284 1.367 . S
C1285 C1293 1.433 . S
C1286 H1282 0.929 . S
C1286 C1288 1.378 . S
C1286 C1290 1.350 . S
C1287 C1290 1.463 . S
C1287 C1292 1.350 . S
C1287 N1295 1.427 . S
C1288 H1279 0.930 . S
C1288 C1286 1.378 . S
C1288 C1289 1.367 . S
C1289 C1288 1.367 . S
C1289 C1291 1.433 . S
C1290 C1286 1.350 . S
C1290 C1287 1.463 . S
C1290 N1294 1.427 . S
C1291 H1281 0.929 . S
C1291 C1289 1.433 . S
C1291 N1294 1.384 . S
C1292 H1283 0.929 . S
C1292 C1284 1.378 . S
C1292 C1287 1.350 . S
C1293 H1280 0.929 . S
C1293 C1285 1.433 . S
C1293 N1295 1.384 . S
N1294 C1290 1.427 . S
N1294 C1291 1.384 . S
N1295 C1287 1.427 . S
N1295 C1293 1.384 . S
H1296 C1302 0.930 . S
H1297 C1306 0.930 . S
H1298 C1311 0.929 . S
H1299 C1309 0.929 . S
H1300 C1304 0.929 . S
H1301 C1310 0.929 . S
C1302 H1296 0.930 . S
C1302 C1303 1.367 . S
C1302 C1310 1.378 . S
C1303 C1302 1.367 . S
C1303 C1311 1.433 . S
C1304 H1300 0.929 . S
C1304 C1306 1.378 . S
C1304 C1308 1.350 . S
C1305 C1308 1.463 . S
C1305 C1310 1.350 . S
C1305 N1313 1.427 . S
C1306 H1297 0.930 . S
C1306 C1304 1.378 . S
C1306 C1307 1.367 . S
C1307 C1306 1.367 . S
C1307 C1309 1.433 . S
C1308 C1304 1.350 . S
C1308 C1305 1.463 . S
C1308 N1312 1.427 . S
C1309 H1299 0.929 . S
C1309 C1307 1.433 . S
C1309 N1312 1.384 . S
C1310 H1301 0.929 . S
C1310 C1302 1.378 . S
C1310 C1305 1.350 . S
C1311 H1298 0.929 . S
C1311 C1303 1.433 . S
C1311 N1313 1.384 . S
N1312 C1308 1.427 . S
N1312 C1309 1.384 . S
N1313 C1305 1.427 . S
N1313 C1311 1.384 . S
H1314 C1320 0.930 . S
H1315 C1324 0.930 . S
H1316 C1329 0.929 . S
H1317 C1327 0.929 . S
H1318 C1322 0.929 . S
H1319 C1328 0.929 . S
C1320 H1314 0.930 . S
C1320 C1321 1.367 . S
C1320 C1328 1.378 . S
C1321 C1320 1.367 . S
C1321 C1329 1.433 . S
C1322 H1318 0.929 . S
C1322 C1324 1.378 . S
C1322 C1326 1.350 . S
C1323 C1326 1.463 . S
C1323 C1328 1.350 . S
C1323 N1331 1.427 . S
C1324 H1315 0.930 . S
C1324 C1322 1.378 . S
C1324 C1325 1.367 . S
C1325 C1324 1.367 . S
C1325 C1327 1.433 . S
C1326 C1322 1.350 . S
C1326 C1323 1.463 . S
C1326 N1330 1.427 . S
C1327 H1317 0.929 . S
C1327 C1325 1.433 . S
C1327 N1330 1.384 . S
C1328 H1319 0.929 . S
C1328 C1320 1.378 . S
C1328 C1323 1.350 . S
C1329 H1316 0.929 . S
C1329 C1321 1.433 . S
C1329 N1331 1.384 . S
N1330 C1326 1.427 . S
N1330 C1327 1.384 . S
N1331 C1323 1.427 . S
N1331 C1329 1.384 . S
H1332 C1338 0.930 . S
H1333 C1342 0.930 . S
H1334 C1347 0.929 . S
H1335 C1345 0.929 . S
H1336 C1340 0.928 . S
H1337 C1346 0.927 . S
C1338 H1332 0.930 . S
C1338 C1339 1.367 . S
C1338 C1346 1.379 1_556 S
C1339 C1338 1.367 . S
C1339 C1347 1.433 . S
C1340 H1336 0.928 . S
C1340 C1342 1.378 1_556 S
C1340 C1344 1.350 1_556 S
C1341 C1344 1.463 1_566 S
C1341 C1346 1.350 1_556 S
C1341 N1349 1.427 . S
C1342 H1333 0.930 . S
C1342 C1340 1.378 1_554 S
C1342 C1343 1.367 . S
C1343 C1342 1.367 . S
C1343 C1345 1.433 . S
C1344 C1340 1.350 1_554 S
C1344 C1341 1.463 1_544 S
C1344 N1348 1.427 . S
C1345 H1335 0.929 . S
C1345 C1343 1.433 . S
C1345 N1348 1.384 . S
C1346 H1337 0.927 . S
C1346 C1338 1.379 1_554 S
C1346 C1341 1.350 1_554 S
C1347 H1334 0.929 . S
C1347 C1339 1.433 . S
C1347 N1349 1.384 . S
N1348 C1344 1.427 . S
N1348 C1345 1.384 . S
N1349 C1341 1.427 . S
N1349 C1347 1.384 . S
H1350 C1356 0.930 . S
H1351 C1360 0.930 . S
H1352 C1365 0.929 . S
H1353 C1363 0.929 . S
H1354 C1358 0.929 . S
H1355 C1364 0.929 . S
C1356 H1350 0.930 . S
C1356 C1357 1.367 . S
C1356 C1364 1.378 . S
C1357 C1356 1.367 . S
C1357 C1365 1.433 . S
C1358 H1354 0.929 . S
C1358 C1360 1.378 . S
C1358 C1362 1.350 . S
C1359 C1362 1.463 . S
C1359 C1364 1.350 . S
C1359 N1367 1.427 . S
C1360 H1351 0.930 . S
C1360 C1358 1.378 . S
C1360 C1361 1.367 . S
C1361 C1360 1.367 . S
C1361 C1363 1.433 . S
C1362 C1358 1.350 . S
C1362 C1359 1.463 . S
C1362 N1366 1.427 . S
C1363 H1353 0.929 . S
C1363 C1361 1.433 . S
C1363 N1366 1.384 . S
C1364 H1355 0.929 . S
C1364 C1356 1.378 . S
C1364 C1359 1.350 . S
C1365 H1352 0.929 . S
C1365 C1357 1.433 . S
C1365 N1367 1.384 . S
N1366 C1362 1.427 . S
N1366 C1363 1.384 . S
N1367 C1359 1.427 . S
N1367 C1365 1.384 . S
H1368 C1374 0.930 . S
H1369 C1378 0.930 . S
H1370 C1383 0.929 . S
H1371 C1381 0.929 . S
H1372 C1376 0.924 1_556 S
H1373 C1382 0.924 1_554 S
C1374 H1368 0.930 . S
C1374 C1375 1.367 . S
C1374 C1382 1.381 . S
C1375 C1374 1.367 . S
C1375 C1383 1.433 . S
C1376 H1372 0.924 1_554 S
C1376 C1378 1.381 . S
C1376 C1380 1.352 . S
C1377 C1380 1.463 1_456 S
C1377 C1382 1.352 . S
C1377 N1385 1.427 . S
C1378 H1369 0.930 . S
C1378 C1376 1.381 . S
C1378 C1379 1.367 . S
C1379 C1378 1.367 . S
C1379 C1381 1.433 . S
C1380 C1376 1.352 . S
C1380 C1377 1.463 1_654 S
C1380 N1384 1.427 . S
C1381 H1371 0.929 . S
C1381 C1379 1.433 . S
C1381 N1384 1.384 . S
C1382 H1373 0.924 1_556 S
C1382 C1374 1.381 . S
C1382 C1377 1.352 . S
C1383 H1370 0.929 . S
C1383 C1375 1.433 . S
C1383 N1385 1.384 . S
N1384 C1380 1.427 . S
N1384 C1381 1.384 . S
N1385 C1377 1.427 . S
N1385 C1383 1.384 . S
H1386 C1392 0.930 . S
H1387 C1396 0.930 . S
H1388 C1401 0.929 . S
H1389 C1399 0.929 . S
H1390 C1394 0.929 . S
H1391 C1400 0.929 . S
C1392 H1386 0.930 . S
C1392 C1393 1.367 . S
C1392 C1400 1.378 . S
C1393 C1392 1.367 . S
C1393 C1401 1.433 . S
C1394 H1390 0.929 . S
C1394 C1396 1.378 . S
C1394 C1398 1.350 . S
C1395 C1398 1.463 1_545 S
C1395 C1400 1.350 . S
C1395 N1403 1.427 . S
C1396 H1387 0.930 . S
C1396 C1394 1.378 . S
C1396 C1397 1.367 . S
C1397 C1396 1.367 . S
C1397 C1399 1.433 . S
C1398 C1394 1.350 . S
C1398 C1395 1.463 1_565 S
C1398 N1402 1.427 . S
C1399 H1389 0.929 . S
C1399 C1397 1.433 . S
C1399 N1402 1.384 . S
C1400 H1391 0.929 . S
C1400 C1392 1.378 . S
C1400 C1395 1.350 . S
C1401 H1388 0.929 . S
C1401 C1393 1.433 . S
C1401 N1403 1.384 . S
N1402 C1398 1.427 . S
N1402 C1399 1.384 . S
N1403 C1395 1.427 . S
N1403 C1401 1.384 . S
H1404 C1410 0.930 . S
H1405 C1414 0.930 . S
H1406 C1419 0.929 . S
H1407 C1417 0.929 . S
H1408 C1412 0.929 1_554 S
H1409 C1418 0.929 1_556 S
C1410 H1404 0.930 . S
C1410 C1411 1.367 . S
C1410 C1418 1.378 . S
C1411 C1410 1.367 . S
C1411 C1419 1.433 . S
C1412 H1408 0.929 1_556 S
C1412 C1414 1.378 . S
C1412 C1416 1.350 . S
C1413 C1416 1.463 1_554 S
C1413 C1418 1.350 . S
C1413 N1421 1.427 . S
C1414 H1405 0.930 . S
C1414 C1412 1.378 . S
C1414 C1415 1.367 . S
C1415 C1414 1.367 . S
C1415 C1417 1.433 . S
C1416 C1412 1.350 . S
C1416 C1413 1.463 1_556 S
C1416 N1420 1.427 . S
C1417 H1407 0.929 . S
C1417 C1415 1.433 . S
C1417 N1420 1.384 . S
C1418 H1409 0.929 1_554 S
C1418 C1410 1.378 . S
C1418 C1413 1.350 . S
C1419 H1406 0.929 . S
C1419 C1411 1.433 . S
C1419 N1421 1.384 . S
N1420 C1416 1.427 . S
N1420 C1417 1.384 . S
N1421 C1413 1.427 . S
N1421 C1419 1.384 . S
H1422 C1428 0.930 . S
H1423 C1432 0.930 . S
H1424 C1437 0.929 . S
H1425 C1435 0.929 . S
H1426 C1430 0.929 . S
H1427 C1436 0.929 . S
C1428 H1422 0.930 . S
C1428 C1429 1.367 . S
C1428 C1436 1.378 . S
C1429 C1428 1.367 . S
C1429 C1437 1.433 . S
C1430 H1426 0.929 . S
C1430 C1432 1.378 . S
C1430 C1434 1.350 . S
C1431 C1434 1.463 1_455 S
C1431 C1436 1.350 . S
C1431 N1439 1.427 . S
C1432 H1423 0.930 . S
C1432 C1430 1.378 . S
C1432 C1433 1.367 . S
C1433 C1432 1.367 . S
C1433 C1435 1.433 . S
C1434 C1430 1.350 . S
C1434 C1431 1.463 1_655 S
C1434 N1438 1.427 . S
C1435 H1425 0.929 . S
C1435 C1433 1.433 . S
C1435 N1438 1.384 . S
C1436 H1427 0.929 . S
C1436 C1428 1.378 . S
C1436 C1431 1.350 . S
C1437 H1424 0.929 . S
C1437 C1429 1.433 . S
C1437 N1439 1.384 . S
N1438 C1434 1.427 . S
N1438 C1435 1.384 . S
N1439 C1431 1.427 . S
N1439 C1437 1.384 . S
H1440 C1446 0.930 . S
H1441 C1450 0.930 . S
H1442 C1455 0.929 . S
H1443 C1453 0.929 . S
H1444 C1448 0.929 . S
H1445 C1454 0.929 . S
C1446 H1440 0.930 . S
C1446 C1447 1.367 . S
C1446 C1454 1.378 . S
C1447 C1446 1.367 . S
C1447 C1455 1.433 . S
C1448 H1444 0.929 . S
C1448 C1450 1.378 . S
C1448 C1452 1.350 . S
C1449 C1452 1.463 . S
C1449 C1454 1.350 . S
C1449 N1457 1.427 . S
C1450 H1441 0.930 . S
C1450 C1448 1.378 . S
C1450 C1451 1.367 . S
C1451 C1450 1.367 . S
C1451 C1453 1.433 . S
C1452 C1448 1.350 . S
C1452 C1449 1.463 . S
C1452 N1456 1.427 . S
C1453 H1443 0.929 . S
C1453 C1451 1.433 . S
C1453 N1456 1.384 . S
C1454 H1445 0.929 . S
C1454 C1446 1.378 . S
C1454 C1449 1.350 . S
C1455 H1442 0.929 . S
C1455 C1447 1.433 . S
C1455 N1457 1.384 . S
N1456 C1452 1.427 . S
N1456 C1453 1.384 . S
N1457 C1449 1.427 . S
N1457 C1455 1.384 . S
H1458 C1464 0.930 . S
H1459 C1468 0.930 . S
H1460 C1473 0.929 . S
H1461 C1471 0.929 . S
H1462 C1466 0.929 . S
H1463 C1472 0.929 . S
C1464 H1458 0.930 . S
C1464 C1465 1.367 . S
C1464 C1472 1.378 . S
C1465 C1464 1.367 . S
C1465 C1473 1.433 . S
C1466 H1462 0.929 . S
C1466 C1468 1.378 . S
C1466 C1470 1.350 . S
C1467 C1470 1.463 . S
C1467 C1472 1.350 . S
C1467 N1475 1.427 . S
C1468 H1459 0.930 . S
C1468 C1466 1.378 . S
C1468 C1469 1.367 . S
C1469 C1468 1.367 . S
C1469 C1471 1.433 . S
C1470 C1466 1.350 . S
C1470 C1467 1.463 . S
C1470 N1474 1.427 . S
C1471 H1461 0.929 . S
C1471 C1469 1.433 . S
C1471 N1474 1.384 . S
C1472 H1463 0.929 . S
C1472 C1464 1.378 . S
C1472 C1467 1.350 . S
C1473 H1460 0.929 . S
C1473 C1465 1.433 . S
C1473 N1475 1.384 . S
N1474 C1470 1.427 . S
N1474 C1471 1.384 . S
N1475 C1467 1.427 . S
N1475 C1473 1.384 . S
H1476 C1482 0.930 . S
H1477 C1486 0.930 . S
H1478 C1491 0.929 . S
H1479 C1489 0.929 . S
H1480 C1484 0.929 . S
H1481 C1490 0.929 . S
C1482 H1476 0.930 . S
C1482 C1483 1.367 . S
C1482 C1490 1.378 . S
C1483 C1482 1.367 . S
C1483 C1491 1.433 . S
C1484 H1480 0.929 . S
C1484 C1486 1.378 . S
C1484 C1488 1.350 . S
C1485 C1488 1.463 . S
C1485 C1490 1.350 . S
C1485 N1493 1.427 . S
C1486 H1477 0.930 . S
C1486 C1484 1.378 . S
C1486 C1487 1.367 . S
C1487 C1486 1.367 . S
C1487 C1489 1.433 . S
C1488 C1484 1.350 . S
C1488 C1485 1.463 . S
C1488 N1492 1.427 . S
C1489 H1479 0.929 . S
C1489 C1487 1.433 . S
C1489 N1492 1.384 . S
C1490 H1481 0.929 . S
C1490 C1482 1.378 . S
C1490 C1485 1.350 . S
C1491 H1478 0.929 . S
C1491 C1483 1.433 . S
C1491 N1493 1.384 . S
N1492 C1488 1.427 . S
N1492 C1489 1.384 . S
N1493 C1485 1.427 . S
N1493 C1491 1.384 . S
H1494 C1500 0.930 . S
H1495 C1504 0.930 . S
H1496 C1509 0.929 . S
H1497 C1507 0.929 . S
H1498 C1502 0.929 . S
H1499 C1508 0.929 . S
C1500 H1494 0.930 . S
C1500 C1501 1.367 . S
C1500 C1508 1.378 . S
C1501 C1500 1.367 . S
C1501 C1509 1.433 . S
C1502 H1498 0.929 . S
C1502 C1504 1.378 . S
C1502 C1506 1.350 . S
C1503 C1506 1.463 . S
C1503 C1508 1.350 . S
C1503 N1511 1.427 . S
C1504 H1495 0.930 . S
C1504 C1502 1.378 . S
C1504 C1505 1.367 . S
C1505 C1504 1.367 . S
C1505 C1507 1.433 . S
C1506 C1502 1.350 . S
C1506 C1503 1.463 . S
C1506 N1510 1.427 . S
C1507 H1497 0.929 . S
C1507 C1505 1.433 . S
C1507 N1510 1.384 . S
C1508 H1499 0.929 . S
C1508 C1500 1.378 . S
C1508 C1503 1.350 . S
C1509 H1496 0.929 . S
C1509 C1501 1.433 . S
C1509 N1511 1.384 . S
N1510 C1506 1.427 . S
N1510 C1507 1.384 . S
N1511 C1503 1.427 . S
N1511 C1509 1.384 . S
H1512 C1518 0.930 . S
H1513 C1522 0.930 . S
H1514 C1527 0.929 . S
H1515 C1525 0.929 . S
H1516 C1520 0.929 . S
H1517 C1526 0.929 . S
C1518 H1512 0.930 . S
C1518 C1519 1.367 . S
C1518 C1526 1.378 . S
C1519 C1518 1.367 . S
C1519 C1527 1.433 . S
C1520 H1516 0.929 . S
C1520 C1522 1.378 . S
C1520 C1524 1.350 . S
C1521 C1524 1.463 . S
C1521 C1526 1.350 . S
C1521 N1529 1.427 . S
C1522 H1513 0.930 . S
C1522 C1520 1.378 . S
C1522 C1523 1.367 . S
C1523 C1522 1.367 . S
C1523 C1525 1.433 . S
C1524 C1520 1.350 . S
C1524 C1521 1.463 . S
C1524 N1528 1.427 . S
C1525 H1515 0.929 . S
C1525 C1523 1.433 . S
C1525 N1528 1.384 . S
C1526 H1517 0.929 . S
C1526 C1518 1.378 . S
C1526 C1521 1.350 . S
C1527 H1514 0.929 . S
C1527 C1519 1.433 . S
C1527 N1529 1.384 . S
N1528 C1524 1.427 . S
N1528 C1525 1.384 . S
N1529 C1521 1.427 . S
N1529 C1527 1.384 . S
H1530 C1536 0.930 . S
H1531 C1540 0.930 . S
H1532 C1545 0.929 . S
H1533 C1543 0.929 . S
H1534 C1538 0.929 . S
H1535 C1544 0.929 . S
C1536 H1530 0.930 . S
C1536 C1537 1.367 . S
C1536 C1544 1.378 . S
C1537 C1536 1.367 . S
C1537 C1545 1.433 . S
C1538 H1534 0.929 . S
C1538 C1540 1.378 . S
C1538 C1542 1.350 . S
C1539 C1542 1.463 . S
C1539 C1544 1.350 . S
C1539 N1547 1.427 . S
C1540 H1531 0.930 . S
C1540 C1538 1.378 . S
C1540 C1541 1.367 . S
C1541 C1540 1.367 . S
C1541 C1543 1.433 . S
C1542 C1538 1.350 . S
C1542 C1539 1.463 . S
C1542 N1546 1.427 . S
C1543 H1533 0.929 . S
C1543 C1541 1.433 . S
C1543 N1546 1.384 . S
C1544 H1535 0.929 . S
C1544 C1536 1.378 . S
C1544 C1539 1.350 . S
C1545 H1532 0.929 . S
C1545 C1537 1.433 . S
C1545 N1547 1.384 . S
N1546 C1542 1.427 . S
N1546 C1543 1.384 . S
N1547 C1539 1.427 . S
N1547 C1545 1.384 . S
H1548 C1554 0.930 . S
H1549 C1558 0.930 . S
H1550 C1563 0.929 . S
H1551 C1561 0.929 . S
H1552 C1556 0.929 . S
H1553 C1562 0.929 . S
C1554 H1548 0.930 . S
C1554 C1555 1.367 . S
C1554 C1562 1.378 . S
C1555 C1554 1.367 . S
C1555 C1563 1.433 . S
C1556 H1552 0.929 . S
C1556 C1558 1.378 . S
C1556 C1560 1.350 . S
C1557 C1560 1.463 . S
C1557 C1562 1.350 . S
C1557 N1565 1.427 . S
C1558 H1549 0.930 . S
C1558 C1556 1.378 . S
C1558 C1559 1.367 . S
C1559 C1558 1.367 . S
C1559 C1561 1.433 . S
C1560 C1556 1.350 . S
C1560 C1557 1.463 . S
C1560 N1564 1.427 . S
C1561 H1551 0.929 . S
C1561 C1559 1.433 . S
C1561 N1564 1.384 . S
C1562 H1553 0.929 . S
C1562 C1554 1.378 . S
C1562 C1557 1.350 . S
C1563 H1550 0.929 . S
C1563 C1555 1.433 . S
C1563 N1565 1.384 . S
N1564 C1560 1.427 . S
N1564 C1561 1.384 . S
N1565 C1557 1.427 . S
N1565 C1563 1.384 . S
H1566 C1572 0.930 . S
H1567 C1576 0.930 . S
H1568 C1581 0.929 . S
H1569 C1579 0.929 . S
H1570 C1574 0.929 . S
H1571 C1580 0.929 . S
C1572 H1566 0.930 . S
C1572 C1573 1.367 . S
C1572 C1580 1.378 . S
C1573 C1572 1.367 . S
C1573 C1581 1.433 . S
C1574 H1570 0.929 . S
C1574 C1576 1.378 . S
C1574 C1578 1.350 . S
C1575 C1578 1.463 . S
C1575 C1580 1.350 . S
C1575 N1583 1.427 . S
C1576 H1567 0.930 . S
C1576 C1574 1.378 . S
C1576 C1577 1.367 . S
C1577 C1576 1.367 . S
C1577 C1579 1.433 . S
C1578 C1574 1.350 . S
C1578 C1575 1.463 . S
C1578 N1582 1.427 . S
C1579 H1569 0.929 . S
C1579 C1577 1.433 . S
C1579 N1582 1.384 . S
C1580 H1571 0.929 . S
C1580 C1572 1.378 . S
C1580 C1575 1.350 . S
C1581 H1568 0.929 . S
C1581 C1573 1.433 . S
C1581 N1583 1.384 . S
N1582 C1578 1.427 . S
N1582 C1579 1.384 . S
N1583 C1575 1.427 . S
N1583 C1581 1.384 . S
H1584 C1590 0.930 . S
H1585 C1594 0.930 . S
H1586 C1599 0.929 . S
H1587 C1597 0.929 . S
H1588 C1592 0.929 . S
H1589 C1598 0.929 . S
C1590 H1584 0.930 . S
C1590 C1591 1.367 . S
C1590 C1598 1.378 . S
C1591 C1590 1.367 . S
C1591 C1599 1.433 . S
C1592 H1588 0.929 . S
C1592 C1594 1.378 . S
C1592 C1596 1.350 . S
C1593 C1596 1.463 . S
C1593 C1598 1.350 . S
C1593 N1601 1.427 . S
C1594 H1585 0.930 . S
C1594 C1592 1.378 . S
C1594 C1595 1.367 . S
C1595 C1594 1.367 . S
C1595 C1597 1.433 . S
C1596 C1592 1.350 . S
C1596 C1593 1.463 . S
C1596 N1600 1.427 . S
C1597 H1587 0.929 . S
C1597 C1595 1.433 . S
C1597 N1600 1.384 . S
C1598 H1589 0.929 . S
C1598 C1590 1.378 . S
C1598 C1593 1.350 . S
C1599 H1586 0.929 . S
C1599 C1591 1.433 . S
C1599 N1601 1.384 . S
N1600 C1596 1.427 . S
N1600 C1597 1.384 . S
N1601 C1593 1.427 . S
N1601 C1599 1.384 . S
H1602 C1608 0.930 . S
H1603 C1612 0.930 . S
H1604 C1617 0.929 . S
H1605 C1615 0.929 . S
H1606 C1610 0.929 . S
H1607 C1616 0.929 . S
C1608 H1602 0.930 . S
C1608 C1609 1.367 . S
C1608 C1616 1.378 . S
C1609 C1608 1.367 . S
C1609 C1617 1.433 . S
C1610 H1606 0.929 . S
C1610 C1612 1.378 . S
C1610 C1614 1.350 . S
C1611 C1614 1.463 . S
C1611 C1616 1.350 . S
C1611 N1619 1.427 . S
C1612 H1603 0.930 . S
C1612 C1610 1.378 . S
C1612 C1613 1.367 . S
C1613 C1612 1.367 . S
C1613 C1615 1.433 . S
C1614 C1610 1.350 . S
C1614 C1611 1.463 . S
C1614 N1618 1.427 . S
C1615 H1605 0.929 . S
C1615 C1613 1.433 . S
C1615 N1618 1.384 . S
C1616 H1607 0.929 . S
C1616 C1608 1.378 . S
C1616 C1611 1.350 . S
C1617 H1604 0.929 . S
C1617 C1609 1.433 . S
C1617 N1619 1.384 . S
N1618 C1614 1.427 . S
N1618 C1615 1.384 . S
N1619 C1611 1.427 . S
N1619 C1617 1.384 . S
H1620 C1626 0.930 . S
H1621 C1630 0.930 . S
H1622 C1635 0.929 . S
H1623 C1633 0.929 . S
H1624 C1628 0.929 . S
H1625 C1634 0.929 . S
C1626 H1620 0.930 . S
C1626 C1627 1.367 . S
C1626 C1634 1.378 . S
C1627 C1626 1.367 . S
C1627 C1635 1.433 . S
C1628 H1624 0.929 . S
C1628 C1630 1.378 . S
C1628 C1632 1.350 . S
C1629 C1632 1.463 . S
C1629 C1634 1.350 . S
C1629 N1637 1.427 . S
C1630 H1621 0.930 . S
C1630 C1628 1.378 . S
C1630 C1631 1.367 . S
C1631 C1630 1.367 . S
C1631 C1633 1.433 . S
C1632 C1628 1.350 . S
C1632 C1629 1.463 . S
C1632 N1636 1.427 . S
C1633 H1623 0.929 . S
C1633 C1631 1.433 . S
C1633 N1636 1.384 . S
C1634 H1625 0.929 . S
C1634 C1626 1.378 . S
C1634 C1629 1.350 . S
C1635 H1622 0.929 . S
C1635 C1627 1.433 . S
C1635 N1637 1.384 . S
N1636 C1632 1.427 . S
N1636 C1633 1.384 . S
N1637 C1629 1.427 . S
N1637 C1635 1.384 . S
H1638 C1644 0.930 . S
H1639 C1648 0.930 . S
H1640 C1653 0.929 . S
H1641 C1651 0.929 . S
H1642 C1646 0.929 . S
H1643 C1652 0.929 . S
C1644 H1638 0.930 . S
C1644 C1645 1.367 . S
C1644 C1652 1.378 . S
C1645 C1644 1.367 . S
C1645 C1653 1.433 . S
C1646 H1642 0.929 . S
C1646 C1648 1.378 . S
C1646 C1650 1.350 . S
C1647 C1650 1.463 . S
C1647 C1652 1.350 . S
C1647 N1655 1.427 . S
C1648 H1639 0.930 . S
C1648 C1646 1.378 . S
C1648 C1649 1.367 . S
C1649 C1648 1.367 . S
C1649 C1651 1.433 . S
C1650 C1646 1.350 . S
C1650 C1647 1.463 . S
C1650 N1654 1.427 . S
C1651 H1641 0.929 . S
C1651 C1649 1.433 . S
C1651 N1654 1.384 . S
C1652 H1643 0.929 . S
C1652 C1644 1.378 . S
C1652 C1647 1.350 . S
C1653 H1640 0.929 . S
C1653 C1645 1.433 . S
C1653 N1655 1.384 . S
N1654 C1650 1.427 . S
N1654 C1651 1.384 . S
N1655 C1647 1.427 . S
N1655 C1653 1.384 . S
C1015 C226 1.135 . S
C1019 C67 1.269 . S
C1033 C321 1.131 . S
C1037 C140 1.269 . S
C1051 C235 1.264 . S
C1055 C394 1.113 . S
C1069 C308 1.263 . S
C1073 C489 1.106 . S
C1087 C58 1.104 . S
C1091 C403 1.262 . S
C1105 C153 1.116 . S
C1109 C476 1.265 . S
C1123 C909 1.127 . S
C1127 C560 1.267 . S
C1141 C655 1.266 . S
C1145 C982 1.122 . S
C1159 C728 1.269 . S
C1163 C573 1.133 . S
C1177 C823 1.265 . S
C1181 C646 1.115 . S
C1195 C896 1.262 . S
C1199 C741 1.104 . S
C1213 C814 1.104 . S
C1217 C991 1.262 . S
C1231 C315 1.935 . S
C1235 C74 1.921 . S
C1249 C147 1.926 . S
C1253 C410 1.930 . S
C1267 C242 1.921 . S
C1271 C483 1.934 . S
C1285 C567 1.925 . S
C1289 C830 1.930 . S
C1303 C662 1.933 . S
C1307 C903 1.922 . S
C1321 C735 1.933 . S
C1325 C998 1.923 . S
C1339 C651 2.160 . S
C1343 C63 2.163 . S
C1357 C158 2.162 . S
C1361 C746 2.163 . S
C1375 C819 2.160 . S
C1379 C231 2.163 . S
C1393 C326 2.163 . S
C1397 C914 2.162 . S
C1411 C399 2.158 . S
C1415 C987 2.163 . S
C1429 C578 2.161 . S
C1433 C494 2.163 . S
C1447 C237 1.266 . S
C1451 C56 1.416 . S
C1465 C151 1.415 . S
C1469 C310 1.246 . S
C1483 C224 1.419 . S
C1487 C405 1.271 . S
C1501 C319 1.419 . S
C1505 C478 1.271 . S
C1519 C69 1.245 . S
C1523 C392 1.414 . S
C1537 C142 1.244 . S
C1541 C487 1.411 . S
C1555 C898 1.267 . S
C1559 C571 1.416 . S
C1573 C644 1.420 . S
C1577 C993 1.268 . S
C1591 C739 1.420 . S
C1595 C562 1.266 . S
C1609 C657 1.268 . S
C1613 C812 1.420 . S
C1627 C907 1.413 . S
C1631 C730 1.243 . S
C1645 C980 1.419 . S
C1649 C825 1.270 . S
