# Generated by pormake.
# Topology sms, (6)-cn, num edge types: 1
# Building blocks:
#     Node 0, Type 0, BuildingBlock: IZENUY_clean_sbu_0, # of connection points: 6
#     Node 1, Type 0, BuildingBlock: IZENUY_clean_sbu_0, # of connection points: 6
#     Node 2, Type 0, BuildingBlock: IZENUY_clean_sbu_0, # of connection points: 6
#     Node 3, Type 0, BuildingBlock: IZENUY_clean_sbu_0, # of connection points: 6
#     Node 4, Type 0, BuildingBlock: IZENUY_clean_sbu_0, # of connection points: 6
#     Node 5, Type 0, BuildingBlock: IZENUY_clean_sbu_0, # of connection points: 6
#     Node 6, Type 0, BuildingBlock: IZENUY_clean_sbu_0, # of connection points: 6
#     Node 7, Type 0, BuildingBlock: IZENUY_clean_sbu_0, # of connection points: 6
#     Node 8, Type 0, BuildingBlock: IZENUY_clean_sbu_0, # of connection points: 6
#     Node 9, Type 0, BuildingBlock: IZENUY_clean_sbu_0, # of connection points: 6
#     Node 10, Type 0, BuildingBlock: IZENUY_clean_sbu_0, # of connection points: 6
#     Node 11, Type 0, BuildingBlock: IZENUY_clean_sbu_0, # of connection points: 6
#     Node 12, Type 0, BuildingBlock: IZENUY_clean_sbu_0, # of connection points: 6
#     Node 13, Type 0, BuildingBlock: IZENUY_clean_sbu_0, # of connection points: 6
#     Node 14, Type 0, BuildingBlock: IZENUY_clean_sbu_0, # of connection points: 6
#     Node 15, Type 0, BuildingBlock: IZENUY_clean_sbu_0, # of connection points: 6
#     Node 16, Type 0, BuildingBlock: IZENUY_clean_sbu_0, # of connection points: 6
#     Node 17, Type 0, BuildingBlock: IZENUY_clean_sbu_0, # of connection points: 6
#     Edge 18, Type (0, 0), None
#     Edge 19, Type (0, 0), None
#     Edge 20, Type (0, 0), None
#     Edge 21, Type (0, 0), None
#     Edge 22, Type (0, 0), None
#     Edge 23, Type (0, 0), None
#     Edge 24, Type (0, 0), None
#     Edge 25, Type (0, 0), None
#     Edge 26, Type (0, 0), None
#     Edge 27, Type (0, 0), None
#     Edge 28, Type (0, 0), None
#     Edge 29, Type (0, 0), None
#     Edge 30, Type (0, 0), None
#     Edge 31, Type (0, 0), None
#     Edge 32, Type (0, 0), None
#     Edge 33, Type (0, 0), None
#     Edge 34, Type (0, 0), None
#     Edge 35, Type (0, 0), None
#     Edge 36, Type (0, 0), None
#     Edge 37, Type (0, 0), None
#     Edge 38, Type (0, 0), None
#     Edge 39, Type (0, 0), None
#     Edge 40, Type (0, 0), None
#     Edge 41, Type (0, 0), None
#     Edge 42, Type (0, 0), None
#     Edge 43, Type (0, 0), None
#     Edge 44, Type (0, 0), None
#     Edge 45, Type (0, 0), None
#     Edge 46, Type (0, 0), None
#     Edge 47, Type (0, 0), None
#     Edge 48, Type (0, 0), None
#     Edge 49, Type (0, 0), None
#     Edge 50, Type (0, 0), None
#     Edge 51, Type (0, 0), None
#     Edge 52, Type (0, 0), None
#     Edge 53, Type (0, 0), None
#     Edge 54, Type (0, 0), None
#     Edge 55, Type (0, 0), None
#     Edge 56, Type (0, 0), None
#     Edge 57, Type (0, 0), None
#     Edge 58, Type (0, 0), None
#     Edge 59, Type (0, 0), None
#     Edge 60, Type (0, 0), None
#     Edge 61, Type (0, 0), None
#     Edge 62, Type (0, 0), None
#     Edge 63, Type (0, 0), None
#     Edge 64, Type (0, 0), None
#     Edge 65, Type (0, 0), None
#     Edge 66, Type (0, 0), None
#     Edge 67, Type (0, 0), None
#     Edge 68, Type (0, 0), None
#     Edge 69, Type (0, 0), None
#     Edge 70, Type (0, 0), None
#     Edge 71, Type (0, 0), None
# Relax obj value: 0.431
# Max RMSD: 0.158
# Mean RMSD: 0.158
data_MOF--net-sms--node1-IZENUY_clean_sbu_0--edge1-none
_symmetry_space_group_name_H-M    P1
_symmetry_Int_Tables_number       1
_symmetry_cell_setting            triclinic
loop_
_symmetry_equiv_pos_as_xyz
'x, y, z'
_cell_length_a     18.010887
_cell_length_b     18.012734
_cell_length_c     26.656845
_cell_angle_alpha  89.999137
_cell_angle_beta   89.997245
_cell_angle_gamma 120.00332
loop_
_atom_site_label
_atom_site_type_symbol
_atom_site_fract_x
_atom_site_fract_y
_atom_site_fract_z
_atom_type_partial_charge
Fe0 Fe 0.26752 0.5124 0.14869 0.0
Fe1 Fe 0.1732 0.32106 0.14121 0.0
O2 O 0.22435 0.4219 0.11086 0.0
Fe3 Fe 0.23298 0.43676 1.045 0.0
O4 O 0.35291 0.50375 1.04882 0.0
O5 O 0.34036 0.58492 0.10337 0.0
O6 O 0.34948 0.48863 0.16823 0.0
C7 C 0.33184 0.42285 0.19399 0.0
C8 C 0.18637 0.5586 0.08029 0.0
O9 O 0.2555 0.35792 0.19277 0.0
C10 C 0.06657 0.30259 0.0589 0.0
O11 O 0.20686 0.45872 0.20436 0.0
O12 O 0.09793 0.34816 0.17591 0.0
O13 O 0.21796 0.53202 1.04656 0.0
O14 O 0.18403 0.53389 0.12562 0.0
C15 C 0.25878 0.29513 0.0615 0.0
O16 O 0.08823 0.27097 0.09449 0.0
O17 O 0.11785 0.37277 1.03786 0.0
C18 C 0.12806 0.41037 0.20628 0.0
O19 O 0.24047 0.28762 0.10792 0.0
O20 O 0.24616 0.34391 1.03295 0.0
C21 C 0.38748 0.56983 0.07659 0.0
Fe22 Fe 0.52472 0.76273 0.1487 0.0
Fe23 Fe 0.71607 0.85975 0.1412 0.0
O24 O 0.61523 0.81005 0.11086 0.0
Fe25 Fe 0.60036 0.80382 1.045 0.0
O26 O 0.53339 0.85675 1.04882 0.0
O27 O 0.4522 0.76304 0.10338 0.0
O28 O 0.54851 0.86847 0.16823 0.0
C29 C 0.61429 0.9166 0.19399 0.0
C30 C 0.4786 0.6354 0.08031 0.0
O31 O 0.67923 0.90521 0.19276 0.0
C32 C 0.73453 0.77157 0.0589 0.0
O33 O 0.57841 0.75577 0.20437 0.0
O34 O 0.68898 0.7574 0.1759 0.0
O35 O 0.5051 0.69354 1.04655 0.0
O36 O 0.50318 0.65773 0.12565 0.0
C37 C 0.74201 0.97127 0.06149 0.0
O38 O 0.76616 0.82487 0.09448 0.0
O39 O 0.66436 0.75269 1.03785 0.0
C40 C 0.62676 0.72533 0.20628 0.0
O41 O 0.74953 0.96047 0.10791 0.0
O42 O 0.69323 0.90986 1.03294 0.0
C43 C 0.4673 0.82525 0.07659 0.0
Fe44 Fe 0.17736 0.86391 0.1412 0.0
Fe45 Fe 0.23332 0.80418 1.045 0.0
O46 O 0.22708 0.81279 0.11086 0.0
Fe47 Fe 0.27438 0.7696 0.14871 0.0
O48 O 0.16862 0.68764 0.16822 0.0
O49 O 0.13189 0.7816 0.19277 0.0
O50 O 0.07664 0.79663 0.10792 0.0
C51 C 0.06585 0.77833 0.0615 0.0
C52 C 0.31179 0.90903 0.20628 0.0
O53 O 0.12728 0.79099 1.03294 0.0
C54 C 0.40175 0.85083 0.08031 0.0
O55 O 0.21224 0.94888 0.09449 0.0
O56 O 0.28446 0.91931 1.03786 0.0
O57 O 0.28133 0.83024 0.20437 0.0
O58 O 0.27971 0.93917 0.17591 0.0
C59 C 0.21188 0.64969 0.07658 0.0
O60 O 0.34361 0.81921 1.04655 0.0
O61 O 0.37941 0.85308 0.12566 0.0
C62 C 0.26554 0.97056 0.05891 0.0
O63 O 0.18039 0.68427 1.04881 0.0
O64 O 0.27408 0.6968 0.10338 0.0
C65 C 0.12049 0.70527 0.19399 0.0
Fe66 Fe 0.44404 0.22565 0.0567 0.0
Fe67 Fe 0.51969 0.26021 0.95301 0.0
O68 O 0.42918 0.21703 0.99085 0.0
Fe69 Fe 0.32834 0.16588 0.96051 0.0
O70 O 0.29489 0.23315 0.99379 0.0
O71 O 0.35117 0.23881 0.06876 0.0
O72 O 0.51101 0.34557 0.05288 0.0
C73 C 0.5771 0.38015 1.02511 0.0
C74 C 0.30987 0.05925 1.04281 0.0
O75 O 0.59221 0.33305 0.99833 0.0
C76 C 0.41766 0.12077 0.89543 0.0
O77 O 0.5393 0.21065 0.05515 0.0
O78 O 0.54118 0.17673 0.97608 0.0
O79 O 0.27824 0.08091 1.00722 0.0
O80 O 0.38005 0.11053 0.06385 0.0
C81 C 0.43013 0.32451 0.90771 0.0
O82 O 0.46601 0.19956 0.89734 0.0
O83 O 0.35544 0.09063 0.9258 0.0
C84 C 0.56589 0.17905 1.02141 0.0
O85 O 0.49591 0.34216 0.93347 0.0
O86 O 0.36519 0.24818 0.90894 0.0
C87 C 0.3024 0.25146 1.04021 0.0
Fe88 Fe 0.87125 0.17008 0.9605 0.0
Fe89 Fe 0.81148 0.226 0.0567 0.0
O90 O 0.8201 0.21976 0.99084 0.0
Fe91 Fe 0.77692 0.26708 0.95301 0.0
O92 O 0.69496 0.16135 0.93347 0.0
O93 O 0.78894 0.12463 0.90893 0.0
O94 O 0.80397 0.06936 0.99378 0.0
C95 C 0.78567 0.05856 1.0402 0.0
C96 C 0.91638 0.30452 0.89542 0.0
O97 O 0.79831 0.11997 0.06875 0.0
C98 C 0.85807 0.39445 1.02141 0.0
O99 O 0.95623 0.20496 1.00721 0.0
O100 O 0.92661 0.27715 0.06384 0.0
O101 O 0.83758 0.27406 0.89734 0.0
O102 O 0.94652 0.27245 0.92579 0.0
C103 C 0.65698 0.20455 1.02512 0.0
O104 O 0.82649 0.33627 0.05515 0.0
O105 O 0.86041 0.37207 0.97608 0.0
C106 C 0.97789 0.25825 1.04279 0.0
O107 O 0.69156 0.17305 0.05289 0.0
O108 O 0.70409 0.26675 0.99833 0.0
C109 C 0.71261 0.11322 0.90771 0.0
Fe110 Fe 0.86705 0.70875 0.96049 0.0
Fe111 Fe 0.81109 0.59305 0.0567 0.0
O112 O 0.81733 0.60791 0.99084 0.0
Fe113 Fe 0.77002 0.51742 0.953 0.0
O114 O 0.87578 0.54122 0.93348 0.0
O115 O 0.91252 0.67191 0.90893 0.0
O116 O 0.96777 0.7422 0.99378 0.0
C117 C 0.97855 0.73468 1.0402 0.0
C118 C 0.73262 0.61944 0.89542 0.0
O119 O 0.91713 0.68591 0.06876 0.0
C120 C 0.64266 0.47127 1.02139 0.0
O121 O 0.83216 0.75884 1.00721 0.0
O122 O 0.75995 0.65704 0.06384 0.0
O123 O 0.76307 0.5711 0.89733 0.0
O124 O 0.76469 0.68165 0.92579 0.0
C125 C 0.83254 0.46002 1.02512 0.0
O126 O 0.7008 0.49779 0.05515 0.0
O127 O 0.665 0.49586 0.97604 0.0
C128 C 0.77887 0.72722 1.0428 0.0
O129 O 0.86403 0.52609 0.05289 0.0
O130 O 0.77034 0.44492 0.99832 0.0
C131 C 0.92392 0.60699 0.90771 0.0
Fe132 Fe 0.93419 0.84572 0.48203 0.0
Fe133 Fe 0.83986 0.65439 0.47454 0.0
O134 O 0.89101 0.75523 0.44419 0.0
Fe135 Fe 0.89964 0.77009 0.37834 0.0
O136 O 1.01957 0.83707 0.38215 0.0
O137 O 1.00703 0.91824 0.43671 0.0
O138 O 1.01615 0.82195 0.50156 0.0
C139 C 0.99851 0.75617 0.52733 0.0
C140 C 0.85303 0.89193 0.41363 0.0
O141 O 0.92217 0.69124 0.5261 0.0
C142 C 0.73323 0.63592 0.39223 0.0
O143 O 0.87353 0.79204 0.5377 0.0
O144 O 0.76459 0.68149 0.50925 0.0
O145 O 0.88462 0.86534 0.37989 0.0
O146 O 0.8507 0.86721 0.45896 0.0
C147 C 0.92543 0.62845 0.39483 0.0
O148 O 0.75488 0.6043 0.42783 0.0
O149 O 0.78451 0.7061 0.37119 0.0
C150 C 0.79473 0.7437 0.53962 0.0
O151 O 0.90712 0.62094 0.44126 0.0
O152 O 0.91282 0.67724 0.36628 0.0
C153 C 0.05414 0.90316 0.40992 0.0
Fe154 Fe 0.26702 0.13715 0.37833 0.0
Fe155 Fe 0.19138 0.09606 0.48203 0.0
O156 O 0.28188 0.14338 0.44418 0.0
Fe157 Fe 0.38273 0.19308 0.47452 0.0
O158 O 0.41618 0.2938 0.44124 0.0
O159 O 0.35989 0.24319 0.36627 0.0
O160 O 0.20004 0.19008 0.38215 0.0
C161 C 0.13396 0.15858 0.40992 0.0
C162 C 0.40119 0.10491 0.39222 0.0
O163 O 0.11886 0.09637 0.43671 0.0
C164 C 0.29343 0.05865 0.53961 0.0
O165 O 0.17176 0.02688 0.37988 0.0
O166 O 0.16985 0.99106 0.45898 0.0
O167 O 0.43282 0.15821 0.4278 0.0
O168 O 0.33102 0.08602 0.37118 0.0
C169 C 0.28096 0.24993 0.52732 0.0
O170 O 0.24507 0.08909 0.5377 0.0
O171 O 0.35564 0.09073 0.50923 0.0
C172 C 0.14526 0.96873 0.41363 0.0
O173 O 0.21517 0.2018 0.50156 0.0
O174 O 0.34589 0.23853 0.52609 0.0
C175 C 0.40866 0.3046 0.39482 0.0
Fe176 Fe 0.84402 0.19724 0.47454 0.0
Fe177 Fe 0.89998 0.1375 0.37834 0.0
O178 O 0.89374 0.14612 0.4442 0.0
Fe179 Fe 0.94105 0.10293 0.48204 0.0
O180 O 0.83529 0.02097 0.50156 0.0
O181 O 0.79856 0.11493 0.52611 0.0
O182 O 0.74329 0.12996 0.44126 0.0
C183 C 0.7325 0.11165 0.39484 0.0
C184 C 0.97845 0.24237 0.53962 0.0
O185 O 0.79393 0.12431 0.36628 0.0
C186 C 0.06841 0.18416 0.41365 0.0
O187 O 0.8789 0.28221 0.42783 0.0
O188 O 0.9511 0.25263 0.37119 0.0
O189 O 0.948 0.16357 0.53771 0.0
O190 O 0.94638 0.2725 0.50925 0.0
C191 C 0.87854 0.98302 0.40992 0.0
O192 O 1.01027 0.15253 0.37989 0.0
O193 O 0.04607 0.18641 0.45899 0.0
C194 C 0.93218 0.30388 0.39224 0.0
O195 O 0.84704 0.01759 0.38215 0.0
O196 O 0.94074 0.03013 0.43671 0.0
C197 C 0.78716 0.0386 0.52733 0.0
Fe198 Fe 0.99498 0.49921 0.29383 0.0
Fe199 Fe 0.11068 0.55897 0.39004 0.0
O200 O 0.09583 0.55035 0.32418 0.0
Fe201 Fe 0.18637 0.59355 0.28636 0.0
O202 O 0.16262 0.67551 0.26681 0.0
O203 O 0.03185 0.58152 0.24227 0.0
O204 O 0.96154 0.56648 0.32712 0.0
C205 C 0.96905 0.58478 0.37354 0.0
C206 C 0.08436 0.45412 0.2288 0.0
O207 O 1.01781 0.57212 0.4021 0.0
C208 C 0.23255 0.51237 0.35477 0.0
O209 O 0.94489 0.41423 0.34055 0.0
O210 O 0.04669 0.44384 0.39718 0.0
O211 O 0.13271 0.53291 0.23069 0.0
O212 O 0.02207 0.42395 0.25912 0.0
C213 C 0.24376 0.71347 0.35848 0.0
O214 O 0.20595 0.54396 0.3885 0.0
O215 O 0.20785 0.51006 0.30944 0.0
C216 C 0.97652 0.39257 0.37613 0.0
O217 O 0.17765 0.67888 0.38623 0.0
O218 O 0.25887 0.66637 0.33169 0.0
C219 C 0.09678 0.65785 0.24111 0.0
Fe220 Fe 0.53791 0.50341 0.29383 0.0
Fe221 Fe 0.47814 0.55933 0.39004 0.0
O222 O 0.48676 0.55311 0.32418 0.0
Fe223 Fe 0.44357 0.60044 0.28636 0.0
O224 O 0.3616 0.49471 0.26682 0.0
O225 O 0.4556 0.45796 0.24227 0.0
O226 O 0.47063 0.40269 0.32711 0.0
C227 C 0.45233 0.39189 0.37353 0.0
C228 C 0.58301 0.63788 0.2288 0.0
O229 O 0.46497 0.4533 0.40209 0.0
C230 C 0.52473 0.72779 0.35476 0.0
O231 O 0.62289 0.53829 0.34054 0.0
O232 O 0.59328 0.61047 0.39717 0.0
O233 O 0.50421 0.60743 0.23069 0.0
O234 O 0.61318 0.60576 0.25911 0.0
C235 C 0.32364 0.53789 0.35848 0.0
O236 O 0.49315 0.6696 0.3885 0.0
O237 O 0.52706 0.70541 0.30944 0.0
C238 C 0.64455 0.59157 0.37613 0.0
O239 O 0.35822 0.50638 0.38624 0.0
O240 O 0.37075 0.6001 0.3317 0.0
C241 C 0.37926 0.44655 0.24111 0.0
Fe242 Fe 0.53371 0.04209 0.29383 0.0
Fe243 Fe 0.47774 0.9264 0.39004 0.0
O244 O 0.48398 0.94124 0.32418 0.0
Fe245 Fe 0.43666 0.85072 0.28635 0.0
O246 O 0.54241 0.87449 0.26682 0.0
O247 O 0.57917 1.00523 0.24227 0.0
O248 O 0.63443 0.07552 0.32712 0.0
C249 C 0.64521 0.06802 0.37354 0.0
C250 C 0.39925 0.95273 0.22879 0.0
O251 O 0.58378 0.01926 0.4021 0.0
C252 C 0.3093 0.8046 0.35475 0.0
O253 O 0.49882 0.09218 0.34054 0.0
O254 O 0.4266 0.99039 0.39717 0.0
O255 O 0.4297 0.90439 0.23068 0.0
O256 O 0.43137 0.01501 0.25911 0.0
C257 C 0.49918 0.79335 0.35848 0.0
O258 O 0.36745 0.83113 0.3885 0.0
O259 O 0.33164 0.82918 0.3094 0.0
C260 C 0.44552 0.06056 0.37612 0.0
O261 O 0.53068 0.85943 0.38624 0.0
O262 O 0.43698 0.77823 0.33169 0.0
C263 C 0.59059 0.94032 0.24111 0.0
Fe264 Fe 0.50654 0.98772 0.80788 0.0
Fe265 Fe 0.56632 0.10341 0.71167 0.0
O266 O 0.55769 0.08856 0.77752 0.0
Fe267 Fe 0.60087 0.17909 0.81534 0.0
O268 O 0.68285 0.15534 0.83489 0.0
O269 O 0.58885 0.02459 0.85943 0.0
O270 O 0.57381 0.95428 0.77459 0.0
C271 C 0.59212 0.96179 0.72817 0.0
C272 C 0.46142 0.07708 0.87291 0.0
O273 O 0.5795 1.01056 0.69962 0.0
C274 C 0.5197 0.22527 0.74694 0.0
O275 O 0.42156 0.93763 0.76116 0.0
O276 O 0.45119 0.03942 0.70452 0.0
O277 O 0.54022 0.12543 0.87101 0.0
O278 O 0.43126 0.0148 0.84259 0.0
C279 C 0.72082 0.2365 0.74323 0.0
O280 O 0.5513 0.19867 0.7132 0.0
O281 O 0.51737 0.20056 0.79227 0.0
C282 C 0.39991 0.96924 0.72556 0.0
O283 O 0.68624 0.1704 0.71548 0.0
O284 O 0.6737 0.25159 0.77001 0.0
C285 C 0.66519 0.08951 0.8606 0.0
Fe286 Fe 0.85803 0.42938 0.81535 0.0
Fe287 Fe 0.04942 0.52643 0.80786 0.0
O288 O 0.94857 0.47671 0.77752 0.0
Fe289 Fe 0.93372 0.47048 0.71166 0.0
O290 O 0.86674 0.52342 0.71547 0.0
O291 O 0.78553 0.42969 0.77002 0.0
O292 O 0.8818 0.53511 0.83488 0.0
C293 C 0.94764 0.58328 0.86059 0.0
C294 C 0.81194 0.30205 0.74695 0.0
O295 O 1.01256 0.57187 0.85942 0.0
C296 C 0.06789 0.43825 0.72557 0.0
O297 O 0.91171 0.42241 0.87102 0.0
O298 O 0.02235 0.4241 0.84258 0.0
O299 O 0.83846 0.36021 0.7132 0.0
O300 O 0.83652 0.32438 0.7923 0.0
C301 C 0.07536 0.63793 0.72815 0.0
O302 O 0.09952 0.49154 0.76115 0.0
O303 O 0.99772 0.41936 0.70452 0.0
C304 C 0.96007 0.39197 0.87291 0.0
O305 O 0.08287 0.62714 0.77458 0.0
O306 O 0.02659 0.57652 0.6996 0.0
C307 C 0.80064 0.49191 0.74323 0.0
Fe308 Fe 0.51069 0.53057 0.80787 0.0
Fe309 Fe 0.56666 0.47085 0.71166 0.0
O310 O 0.56043 0.47945 0.77752 0.0
Fe311 Fe 0.60775 0.43625 0.81535 0.0
O312 O 0.502 0.35428 0.83487 0.0
O313 O 0.46524 0.44826 0.85943 0.0
O314 O 0.40998 0.46328 0.77458 0.0
C315 C 0.39919 0.44499 0.72816 0.0
C316 C 0.64515 0.57568 0.87291 0.0
O317 O 0.46062 0.45766 0.69961 0.0
C318 C 0.7351 0.51749 0.74695 0.0
O319 O 0.54557 0.61554 0.76116 0.0
O320 O 0.6178 0.58597 0.70453 0.0
O321 O 0.61471 0.49689 0.87102 0.0
O322 O 0.61303 0.60583 0.84259 0.0
C323 C 0.54523 0.31636 0.74322 0.0
O324 O 0.67695 0.48588 0.7132 0.0
O325 O 0.71276 0.51974 0.7923 0.0
C326 C 0.59887 0.63722 0.72557 0.0
O327 O 0.51373 0.35094 0.71546 0.0
O328 O 0.60744 0.36346 0.77001 0.0
C329 C 0.45382 0.37193 0.86059 0.0
Fe330 Fe 0.77736 0.8923 0.72338 0.0
Fe331 Fe 0.85305 0.92689 0.6197 0.0
O332 O 0.76252 0.88369 0.65752 0.0
Fe333 Fe 0.66167 0.83255 0.62717 0.0
O334 O 0.62822 0.89982 0.66046 0.0
O335 O 0.68449 0.90546 0.73544 0.0
O336 O 0.84434 1.01222 0.71957 0.0
C337 C 0.91044 0.04681 0.69181 0.0
C338 C 0.6432 0.72591 0.70947 0.0
O339 O 0.92555 0.99971 0.66503 0.0
C340 C 0.75104 0.78745 0.56214 0.0
O341 O 0.87263 0.8773 0.72183 0.0
O342 O 0.87453 0.84339 0.64277 0.0
O343 O 0.61157 0.74757 0.67389 0.0
O344 O 0.71338 0.77718 0.73052 0.0
C345 C 0.76345 0.99118 0.57445 0.0
O346 O 0.79939 0.86625 0.56403 0.0
O347 O 0.68874 0.75729 0.59246 0.0
C348 C 0.89923 0.84571 0.6881 0.0
O349 O 0.8293 1.00885 0.60015 0.0
O350 O 0.69853 0.91485 0.57562 0.0
C351 C 0.63573 0.91811 0.70688 0.0
Fe352 Fe 0.14483 0.89266 0.72337 0.0
Fe353 Fe 0.11024 0.93376 0.61969 0.0
O354 O 0.15344 0.88643 0.65751 0.0
Fe355 Fe 0.20459 0.83674 0.62715 0.0
O356 O 0.13731 0.73602 0.66044 0.0
O357 O 0.13166 0.78663 0.73542 0.0
O358 O 0.0249 0.83971 0.71957 0.0
C359 C 0.99033 0.87122 0.69181 0.0
C360 C 0.31123 0.9249 0.70946 0.0
O361 O 0.03743 0.93343 0.66503 0.0
C362 C 0.24968 0.9712 0.56212 0.0
O363 O 0.15984 1.00293 0.72183 0.0
O364 O 0.19374 0.03874 0.64276 0.0
O365 O 0.28957 0.87163 0.67386 0.0
O366 O 0.25996 0.9438 0.7305 0.0
C367 C 0.04593 0.77987 0.57444 0.0
O368 O 0.17088 0.94075 0.56402 0.0
O369 O 0.27985 0.93908 0.59244 0.0
C370 C 0.19141 0.06112 0.68809 0.0
O371 O 0.02827 0.82804 0.60015 0.0
O372 O 0.12227 0.79129 0.5756 0.0
C373 C 0.11901 0.72522 0.70686 0.0
Fe374 Fe 0.20039 0.37542 0.62716 0.0
Fe375 Fe 0.14443 0.25973 0.72337 0.0
O376 O 0.15066 0.27457 0.65751 0.0
Fe377 Fe 0.10333 0.18405 0.61968 0.0
O378 O 0.20908 0.20782 0.60015 0.0
O379 O 0.24584 0.33856 0.5756 0.0
O380 O 0.30111 0.40885 0.66044 0.0
C381 C 0.31189 0.40135 0.70687 0.0
C382 C 0.06592 0.28606 0.56213 0.0
O383 O 0.25048 0.35259 0.73542 0.0
C384 C 0.97599 0.13793 0.68809 0.0
O385 O 0.16551 0.42551 0.67387 0.0
O386 O 0.0933 0.32372 0.73051 0.0
O387 O 0.09636 0.23772 0.56401 0.0
O388 O 0.09804 0.34834 0.59245 0.0
C389 C 0.16587 0.12668 0.69181 0.0
O390 O 0.03414 0.16446 0.72184 0.0
O391 O 0.99832 0.16252 0.64274 0.0
C392 C 0.11222 0.3939 0.70947 0.0
O393 O 0.19737 0.19276 0.71957 0.0
O394 O 0.10365 0.11156 0.66502 0.0
C395 C 0.25725 0.27365 0.57444 0.0
loop_
_geom_bond_atom_site_label_1
_geom_bond_atom_site_label_2
_geom_bond_distance
_geom_bond_site_symmetry_2
_ccdc_geom_bond_type
Fe0 O2 1.918 . S
Fe0 O5 1.997 . S
Fe0 O6 2.002 . S
Fe0 O11 1.976 . S
Fe0 O14 1.996 . S
Fe1 O2 1.918 . S
Fe1 O9 1.997 . S
Fe1 O12 1.996 . S
Fe1 O16 1.976 . S
Fe1 O19 2.002 . S
O2 Fe0 1.918 . S
O2 Fe1 1.918 . S
O2 Fe3 1.918 . S
Fe3 O2 1.918 . S
Fe3 O4 2.002 . S
Fe3 O13 1.976 . S
Fe3 O17 1.996 1_554 S
Fe3 O20 1.997 1_554 S
O4 Fe3 2.002 . S
O4 C21 1.295 . S
O5 Fe0 1.997 . S
O5 C21 1.235 . S
O6 Fe0 2.002 . S
O6 C7 1.295 . S
C7 O6 1.295 . S
C7 O9 1.235 . S
C8 O13 1.287 . S
C8 O14 1.255 . S
O9 Fe1 1.997 . S
O9 C7 1.235 . S
C10 O16 1.287 . S
C10 O17 1.255 1_554 S
O11 Fe0 1.976 . S
O11 C18 1.287 . S
O12 Fe1 1.996 . S
O12 C18 1.255 . S
O13 Fe3 1.976 . S
O13 C8 1.287 . S
O14 Fe0 1.996 . S
O14 C8 1.255 . S
C15 O19 1.295 . S
C15 O20 1.235 1_554 S
O16 Fe1 1.976 . S
O16 C10 1.287 . S
O17 Fe3 1.996 1_556 S
O17 C10 1.255 1_556 S
C18 O11 1.287 . S
C18 O12 1.255 . S
O19 Fe1 2.002 . S
O19 C15 1.295 . S
O20 Fe3 1.997 1_556 S
O20 C15 1.235 1_556 S
C21 O4 1.295 . S
C21 O5 1.235 . S
Fe22 O24 1.918 . S
Fe22 O27 1.997 . S
Fe22 O28 2.002 . S
Fe22 O33 1.976 . S
Fe22 O36 1.996 . S
Fe23 O24 1.918 . S
Fe23 O31 1.997 . S
Fe23 O34 1.996 . S
Fe23 O38 1.976 . S
Fe23 O41 2.002 . S
O24 Fe22 1.918 . S
O24 Fe23 1.918 . S
O24 Fe25 1.918 . S
Fe25 O24 1.918 . S
Fe25 O26 2.002 . S
Fe25 O35 1.976 . S
Fe25 O39 1.996 1_554 S
Fe25 O42 1.997 1_554 S
O26 Fe25 2.002 . S
O26 C43 1.295 . S
O27 Fe22 1.997 . S
O27 C43 1.235 . S
O28 Fe22 2.002 . S
O28 C29 1.295 . S
C29 O28 1.295 . S
C29 O31 1.235 . S
C30 O35 1.287 . S
C30 O36 1.255 . S
O31 Fe23 1.997 . S
O31 C29 1.235 . S
C32 O38 1.287 . S
C32 O39 1.255 1_554 S
O33 Fe22 1.976 . S
O33 C40 1.287 . S
O34 Fe23 1.996 . S
O34 C40 1.255 . S
O35 Fe25 1.976 . S
O35 C30 1.287 . S
O36 Fe22 1.996 . S
O36 C30 1.255 . S
C37 O41 1.295 . S
C37 O42 1.235 1_554 S
O38 Fe23 1.976 . S
O38 C32 1.287 . S
O39 Fe25 1.996 1_556 S
O39 C32 1.255 1_556 S
C40 O33 1.287 . S
C40 O34 1.255 . S
O41 Fe23 2.002 . S
O41 C37 1.295 . S
O42 Fe25 1.997 1_556 S
O42 C37 1.235 1_556 S
C43 O26 1.295 . S
C43 O27 1.235 . S
Fe44 O46 1.918 . S
Fe44 O49 1.997 . S
Fe44 O50 2.002 . S
Fe44 O55 1.976 . S
Fe44 O58 1.996 . S
Fe45 O46 1.918 . S
Fe45 O53 1.997 1_554 S
Fe45 O56 1.996 1_554 S
Fe45 O60 1.976 . S
Fe45 O63 2.002 . S
O46 Fe44 1.918 . S
O46 Fe45 1.918 . S
O46 Fe47 1.918 . S
Fe47 O46 1.918 . S
Fe47 O48 2.002 . S
Fe47 O57 1.976 . S
Fe47 O61 1.996 . S
Fe47 O64 1.997 . S
O48 Fe47 2.002 . S
O48 C65 1.295 . S
O49 Fe44 1.997 . S
O49 C65 1.235 . S
O50 Fe44 2.002 . S
O50 C51 1.295 . S
C51 O50 1.295 . S
C51 O53 1.235 1_554 S
C52 O57 1.287 . S
C52 O58 1.255 . S
O53 Fe45 1.997 1_556 S
O53 C51 1.235 1_556 S
C54 O60 1.287 . S
C54 O61 1.255 . S
O55 Fe44 1.976 . S
O55 C62 1.287 . S
O56 Fe45 1.996 1_556 S
O56 C62 1.255 1_556 S
O57 Fe47 1.976 . S
O57 C52 1.287 . S
O58 Fe44 1.996 . S
O58 C52 1.255 . S
C59 O63 1.295 . S
C59 O64 1.235 . S
O60 Fe45 1.976 . S
O60 C54 1.287 . S
O61 Fe47 1.996 . S
O61 C54 1.255 . S
C62 O55 1.287 . S
C62 O56 1.255 1_554 S
O63 Fe45 2.002 . S
O63 C59 1.295 . S
O64 Fe47 1.997 . S
O64 C59 1.235 . S
C65 O48 1.295 . S
C65 O49 1.235 . S
Fe66 O68 1.918 . S
Fe66 O71 1.997 1_556 S
Fe66 O72 2.002 . S
Fe66 O77 1.976 . S
Fe66 O80 1.996 1_556 S
Fe67 O68 1.918 . S
Fe67 O75 1.997 . S
Fe67 O78 1.996 . S
Fe67 O82 1.976 . S
Fe67 O85 2.002 . S
O68 Fe66 1.918 . S
O68 Fe67 1.918 . S
O68 Fe69 1.918 . S
Fe69 O68 1.918 . S
Fe69 O70 2.002 . S
Fe69 O79 1.976 . S
Fe69 O83 1.996 . S
Fe69 O86 1.997 . S
O70 Fe69 2.002 . S
O70 C87 1.295 . S
O71 Fe66 1.997 1_554 S
O71 C87 1.235 1_554 S
O72 Fe66 2.002 . S
O72 C73 1.295 . S
C73 O72 1.295 . S
C73 O75 1.235 . S
C74 O79 1.287 . S
C74 O80 1.255 1_556 S
O75 Fe67 1.997 . S
O75 C73 1.235 . S
C76 O82 1.287 . S
C76 O83 1.255 . S
O77 Fe66 1.976 . S
O77 C84 1.287 . S
O78 Fe67 1.996 . S
O78 C84 1.255 . S
O79 Fe69 1.976 . S
O79 C74 1.287 . S
O80 Fe66 1.996 1_554 S
O80 C74 1.255 1_554 S
C81 O85 1.295 . S
C81 O86 1.235 . S
O82 Fe67 1.976 . S
O82 C76 1.287 . S
O83 Fe69 1.996 . S
O83 C76 1.255 . S
C84 O77 1.287 . S
C84 O78 1.255 . S
O85 Fe67 2.002 . S
O85 C81 1.295 . S
O86 Fe69 1.997 . S
O86 C81 1.235 . S
C87 O70 1.295 . S
C87 O71 1.235 1_556 S
Fe88 O90 1.918 . S
Fe88 O93 1.997 . S
Fe88 O94 2.002 . S
Fe88 O99 1.976 . S
Fe88 O102 1.996 . S
Fe89 O90 1.918 . S
Fe89 O97 1.997 1_556 S
Fe89 O100 1.996 1_556 S
Fe89 O104 1.976 . S
Fe89 O107 2.002 . S
O90 Fe88 1.918 . S
O90 Fe89 1.918 . S
O90 Fe91 1.918 . S
Fe91 O90 1.918 . S
Fe91 O92 2.002 . S
Fe91 O101 1.976 . S
Fe91 O105 1.996 . S
Fe91 O108 1.997 . S
O92 Fe91 2.002 . S
O92 C109 1.295 . S
O93 Fe88 1.997 . S
O93 C109 1.235 . S
O94 Fe88 2.002 . S
O94 C95 1.295 . S
C95 O94 1.295 . S
C95 O97 1.235 1_556 S
C96 O101 1.287 . S
C96 O102 1.255 . S
O97 Fe89 1.997 1_554 S
O97 C95 1.235 1_554 S
C98 O104 1.287 . S
C98 O105 1.255 . S
O99 Fe88 1.976 . S
O99 C106 1.287 . S
O100 Fe89 1.996 1_554 S
O100 C106 1.255 1_554 S
O101 Fe91 1.976 . S
O101 C96 1.287 . S
O102 Fe88 1.996 . S
O102 C96 1.255 . S
C103 O107 1.295 . S
C103 O108 1.235 . S
O104 Fe89 1.976 . S
O104 C98 1.287 . S
O105 Fe91 1.996 . S
O105 C98 1.255 . S
C106 O99 1.287 . S
C106 O100 1.255 1_556 S
O107 Fe89 2.002 . S
O107 C103 1.295 . S
O108 Fe91 1.997 . S
O108 C103 1.235 . S
C109 O92 1.295 . S
C109 O93 1.235 . S
Fe110 O112 1.918 . S
Fe110 O115 1.997 . S
Fe110 O116 2.002 . S
Fe110 O121 1.976 . S
Fe110 O124 1.996 . S
Fe111 O112 1.918 . S
Fe111 O119 1.997 1_556 S
Fe111 O122 1.996 1_556 S
Fe111 O126 1.976 . S
Fe111 O129 2.002 . S
O112 Fe110 1.918 . S
O112 Fe111 1.918 . S
O112 Fe113 1.918 . S
Fe113 O112 1.918 . S
Fe113 O114 2.002 . S
Fe113 O123 1.976 . S
Fe113 O127 1.996 . S
Fe113 O130 1.997 . S
O114 Fe113 2.002 . S
O114 C131 1.295 . S
O115 Fe110 1.997 . S
O115 C131 1.235 . S
O116 Fe110 2.002 . S
O116 C117 1.295 . S
C117 O116 1.295 . S
C117 O119 1.235 1_556 S
C118 O123 1.287 . S
C118 O124 1.255 . S
O119 Fe111 1.997 1_554 S
O119 C117 1.235 1_554 S
C120 O126 1.287 . S
C120 O127 1.255 . S
O121 Fe110 1.976 . S
O121 C128 1.287 . S
O122 Fe111 1.996 1_554 S
O122 C128 1.255 1_554 S
O123 Fe113 1.976 . S
O123 C118 1.287 . S
O124 Fe110 1.996 . S
O124 C118 1.255 . S
C125 O129 1.295 . S
C125 O130 1.235 . S
O126 Fe111 1.976 . S
O126 C120 1.287 . S
O127 Fe113 1.996 . S
O127 C120 1.255 . S
C128 O121 1.287 . S
C128 O122 1.255 1_556 S
O129 Fe111 2.002 . S
O129 C125 1.295 . S
O130 Fe113 1.997 . S
O130 C125 1.235 . S
C131 O114 1.295 . S
C131 O115 1.235 . S
Fe132 O134 1.918 . S
Fe132 O137 1.997 1_655 S
Fe132 O138 2.002 . S
Fe132 O143 1.976 . S
Fe132 O146 1.996 . S
Fe133 O134 1.918 . S
Fe133 O141 1.997 . S
Fe133 O144 1.996 . S
Fe133 O148 1.976 . S
Fe133 O151 2.002 . S
O134 Fe132 1.918 . S
O134 Fe133 1.918 . S
O134 Fe135 1.918 . S
Fe135 O134 1.918 . S
Fe135 O136 2.002 . S
Fe135 O145 1.976 . S
Fe135 O149 1.996 . S
Fe135 O152 1.997 . S
O136 Fe135 2.002 . S
O136 C153 1.295 1_655 S
O137 Fe132 1.997 1_455 S
O137 C153 1.235 . S
O138 Fe132 2.002 . S
O138 C139 1.295 . S
C139 O138 1.295 . S
C139 O141 1.235 . S
C140 O145 1.287 . S
C140 O146 1.255 . S
O141 Fe133 1.997 . S
O141 C139 1.235 . S
C142 O148 1.287 . S
C142 O149 1.255 . S
O143 Fe132 1.976 . S
O143 C150 1.287 . S
O144 Fe133 1.996 . S
O144 C150 1.255 . S
O145 Fe135 1.976 . S
O145 C140 1.287 . S
O146 Fe132 1.996 . S
O146 C140 1.255 . S
C147 O151 1.295 . S
C147 O152 1.235 . S
O148 Fe133 1.976 . S
O148 C142 1.287 . S
O149 Fe135 1.996 . S
O149 C142 1.255 . S
C150 O143 1.287 . S
C150 O144 1.255 . S
O151 Fe133 2.002 . S
O151 C147 1.295 . S
O152 Fe135 1.997 . S
O152 C147 1.235 . S
C153 O136 1.295 1_455 S
C153 O137 1.235 . S
Fe154 O156 1.918 . S
Fe154 O159 1.997 . S
Fe154 O160 2.002 . S
Fe154 O165 1.974 1_545 S
Fe154 O168 1.996 . S
Fe155 O156 1.918 . S
Fe155 O163 1.997 . S
Fe155 O166 1.996 1_545 S
Fe155 O170 1.976 . S
Fe155 O173 2.002 . S
O156 Fe154 1.918 . S
O156 Fe155 1.918 . S
O156 Fe157 1.918 . S
Fe157 O156 1.918 . S
Fe157 O158 2.002 . S
Fe157 O167 1.976 . S
Fe157 O171 1.996 . S
Fe157 O174 1.997 . S
O158 Fe157 2.002 . S
O158 C175 1.295 . S
O159 Fe154 1.997 . S
O159 C175 1.235 . S
O160 Fe154 2.002 . S
O160 C161 1.295 . S
C161 O160 1.295 . S
C161 O163 1.235 . S
C162 O167 1.287 . S
C162 O168 1.255 . S
O163 Fe155 1.997 . S
O163 C161 1.235 . S
C164 O170 1.287 . S
C164 O171 1.255 . S
O165 Fe154 1.974 1_565 S
O165 C172 1.287 . S
O166 Fe155 1.996 1_565 S
O166 C172 1.255 . S
O167 Fe157 1.976 . S
O167 C162 1.287 . S
O168 Fe154 1.996 . S
O168 C162 1.255 . S
C169 O173 1.295 . S
C169 O174 1.235 . S
O170 Fe155 1.976 . S
O170 C164 1.287 . S
O171 Fe157 1.996 . S
O171 C164 1.255 . S
C172 O165 1.287 . S
C172 O166 1.255 . S
O173 Fe155 2.002 . S
O173 C169 1.295 . S
O174 Fe157 1.997 . S
O174 C169 1.235 . S
C175 O158 1.295 . S
C175 O159 1.235 . S
Fe176 O178 1.918 . S
Fe176 O181 1.997 . S
Fe176 O182 2.002 . S
Fe176 O187 1.976 . S
Fe176 O190 1.996 . S
Fe177 O178 1.918 . S
Fe177 O185 1.997 . S
Fe177 O188 1.996 . S
Fe177 O192 1.960 1_655 S
Fe177 O195 2.002 . S
O178 Fe176 1.918 . S
O178 Fe177 1.918 . S
O178 Fe179 1.918 . S
Fe179 O178 1.918 . S
Fe179 O180 2.002 . S
Fe179 O189 1.976 . S
Fe179 O193 1.996 1_655 S
Fe179 O196 1.997 1_545 S
O180 Fe179 2.002 . S
O180 C197 1.295 . S
O181 Fe176 1.997 . S
O181 C197 1.235 . S
O182 Fe176 2.002 . S
O182 C183 1.295 . S
C183 O182 1.295 . S
C183 O185 1.235 . S
C184 O189 1.287 . S
C184 O190 1.255 . S
O185 Fe177 1.997 . S
O185 C183 1.235 . S
C186 O192 1.298 . S
C186 O193 1.255 . S
O187 Fe176 1.976 . S
O187 C194 1.287 . S
O188 Fe177 1.996 . S
O188 C194 1.255 . S
O189 Fe179 1.976 . S
O189 C184 1.287 . S
O190 Fe176 1.996 . S
O190 C184 1.255 . S
C191 O195 1.295 1_565 S
C191 O196 1.235 . S
O192 Fe177 1.960 1_455 S
O192 C186 1.298 . S
O193 Fe179 1.996 1_455 S
O193 C186 1.255 . S
C194 O187 1.287 . S
C194 O188 1.255 . S
O195 Fe177 2.002 . S
O195 C191 1.295 1_545 S
O196 Fe179 1.997 1_565 S
O196 C191 1.235 . S
C197 O180 1.295 . S
C197 O181 1.235 . S
Fe198 O200 1.918 1_655 S
Fe198 O203 1.997 . S
Fe198 O204 2.002 . S
Fe198 O209 1.976 . S
Fe198 O212 1.996 . S
Fe199 O200 1.918 . S
Fe199 O207 1.997 . S
Fe199 O210 1.996 . S
Fe199 O214 1.976 . S
Fe199 O217 2.002 . S
O200 Fe198 1.918 1_455 S
O200 Fe199 1.918 . S
O200 Fe201 1.918 . S
Fe201 O200 1.918 . S
Fe201 O202 2.002 . S
Fe201 O211 1.976 . S
Fe201 O215 1.996 . S
Fe201 O218 1.997 . S
O202 Fe201 2.002 . S
O202 C219 1.295 . S
O203 Fe198 1.997 . S
O203 C219 1.235 1_655 S
O204 Fe198 2.002 . S
O204 C205 1.295 . S
C205 O204 1.295 . S
C205 O207 1.235 1_655 S
C206 O211 1.287 . S
C206 O212 1.255 1_455 S
O207 Fe199 1.997 . S
O207 C205 1.235 1_455 S
C208 O214 1.287 . S
C208 O215 1.255 . S
O209 Fe198 1.976 . S
O209 C216 1.287 . S
O210 Fe199 1.996 . S
O210 C216 1.255 1_455 S
O211 Fe201 1.976 . S
O211 C206 1.287 . S
O212 Fe198 1.996 . S
O212 C206 1.255 1_655 S
C213 O217 1.295 . S
C213 O218 1.235 . S
O214 Fe199 1.976 . S
O214 C208 1.287 . S
O215 Fe201 1.996 . S
O215 C208 1.255 . S
C216 O209 1.287 . S
C216 O210 1.255 1_655 S
O217 Fe199 2.002 . S
O217 C213 1.295 . S
O218 Fe201 1.997 . S
O218 C213 1.235 . S
C219 O202 1.295 . S
C219 O203 1.235 1_455 S
Fe220 O222 1.918 . S
Fe220 O225 1.997 . S
Fe220 O226 2.002 . S
Fe220 O231 1.976 . S
Fe220 O234 1.996 . S
Fe221 O222 1.918 . S
Fe221 O229 1.997 . S
Fe221 O232 1.996 . S
Fe221 O236 1.976 . S
Fe221 O239 2.002 . S
O222 Fe220 1.918 . S
O222 Fe221 1.918 . S
O222 Fe223 1.918 . S
Fe223 O222 1.918 . S
Fe223 O224 2.002 . S
Fe223 O233 1.976 . S
Fe223 O237 1.996 . S
Fe223 O240 1.997 . S
O224 Fe223 2.002 . S
O224 C241 1.295 . S
O225 Fe220 1.997 . S
O225 C241 1.235 . S
O226 Fe220 2.002 . S
O226 C227 1.295 . S
C227 O226 1.295 . S
C227 O229 1.235 . S
C228 O233 1.287 . S
C228 O234 1.255 . S
O229 Fe221 1.997 . S
O229 C227 1.235 . S
C230 O236 1.287 . S
C230 O237 1.255 . S
O231 Fe220 1.976 . S
O231 C238 1.287 . S
O232 Fe221 1.996 . S
O232 C238 1.255 . S
O233 Fe223 1.976 . S
O233 C228 1.287 . S
O234 Fe220 1.996 . S
O234 C228 1.255 . S
C235 O239 1.295 . S
C235 O240 1.235 . S
O236 Fe221 1.976 . S
O236 C230 1.287 . S
O237 Fe223 1.996 . S
O237 C230 1.255 . S
C238 O231 1.287 . S
C238 O232 1.255 . S
O239 Fe221 2.002 . S
O239 C235 1.295 . S
O240 Fe223 1.997 . S
O240 C235 1.235 . S
C241 O224 1.295 . S
C241 O225 1.235 . S
Fe242 O244 1.918 1_545 S
Fe242 O247 1.997 . S
Fe242 O248 2.002 . S
Fe242 O253 1.976 . S
Fe242 O256 1.996 . S
Fe243 O244 1.918 . S
Fe243 O251 1.997 . S
Fe243 O254 1.996 . S
Fe243 O258 1.976 . S
Fe243 O261 2.002 . S
O244 Fe242 1.918 1_565 S
O244 Fe243 1.918 . S
O244 Fe245 1.918 . S
Fe245 O244 1.918 . S
Fe245 O246 2.002 . S
Fe245 O255 1.976 . S
Fe245 O259 1.996 . S
Fe245 O262 1.997 . S
O246 Fe245 2.002 . S
O246 C263 1.295 . S
O247 Fe242 1.997 . S
O247 C263 1.235 1_545 S
O248 Fe242 2.002 . S
O248 C249 1.295 . S
C249 O248 1.295 . S
C249 O251 1.235 1_545 S
C250 O255 1.287 . S
C250 O256 1.255 1_565 S
O251 Fe243 1.997 . S
O251 C249 1.235 1_565 S
C252 O258 1.287 . S
C252 O259 1.255 . S
O253 Fe242 1.976 . S
O253 C260 1.287 . S
O254 Fe243 1.996 . S
O254 C260 1.255 1_565 S
O255 Fe245 1.976 . S
O255 C250 1.287 . S
O256 Fe242 1.996 . S
O256 C250 1.255 1_545 S
C257 O261 1.295 . S
C257 O262 1.235 . S
O258 Fe243 1.976 . S
O258 C252 1.287 . S
O259 Fe245 1.996 . S
O259 C252 1.255 . S
C260 O253 1.287 . S
C260 O254 1.255 1_545 S
O261 Fe243 2.002 . S
O261 C257 1.295 . S
O262 Fe245 1.997 . S
O262 C257 1.235 . S
C263 O246 1.295 . S
C263 O247 1.235 1_565 S
Fe264 O266 1.918 1_565 S
Fe264 O269 1.997 . S
Fe264 O270 2.002 . S
Fe264 O275 1.976 . S
Fe264 O278 1.996 . S
Fe265 O266 1.918 . S
Fe265 O273 1.997 . S
Fe265 O276 1.996 . S
Fe265 O280 1.976 . S
Fe265 O283 2.002 . S
O266 Fe264 1.918 1_545 S
O266 Fe265 1.918 . S
O266 Fe267 1.918 . S
Fe267 O266 1.918 . S
Fe267 O268 2.002 . S
Fe267 O277 1.976 . S
Fe267 O281 1.996 . S
Fe267 O284 1.997 . S
O268 Fe267 2.002 . S
O268 C285 1.295 . S
O269 Fe264 1.997 . S
O269 C285 1.235 1_565 S
O270 Fe264 2.002 . S
O270 C271 1.295 . S
C271 O270 1.295 . S
C271 O273 1.235 1_565 S
C272 O277 1.287 . S
C272 O278 1.255 1_545 S
O273 Fe265 1.997 . S
O273 C271 1.235 1_545 S
C274 O280 1.287 . S
C274 O281 1.255 . S
O275 Fe264 1.976 . S
O275 C282 1.287 . S
O276 Fe265 1.996 . S
O276 C282 1.255 1_545 S
O277 Fe267 1.976 . S
O277 C272 1.287 . S
O278 Fe264 1.996 . S
O278 C272 1.255 1_565 S
C279 O283 1.295 . S
C279 O284 1.235 . S
O280 Fe265 1.976 . S
O280 C274 1.287 . S
O281 Fe267 1.996 . S
O281 C274 1.255 . S
C282 O275 1.287 . S
C282 O276 1.255 1_565 S
O283 Fe265 2.002 . S
O283 C279 1.295 . S
O284 Fe267 1.997 . S
O284 C279 1.235 . S
C285 O268 1.295 . S
C285 O269 1.235 1_545 S
Fe286 O288 1.918 . S
Fe286 O291 1.997 . S
Fe286 O292 2.002 . S
Fe286 O297 1.976 . S
Fe286 O300 1.996 . S
Fe287 O288 1.918 1_455 S
Fe287 O295 1.997 . S
Fe287 O298 1.996 . S
Fe287 O302 1.976 . S
Fe287 O305 2.002 . S
O288 Fe286 1.918 . S
O288 Fe287 1.918 1_655 S
O288 Fe289 1.918 . S
Fe289 O288 1.918 . S
Fe289 O290 2.002 . S
Fe289 O299 1.976 . S
Fe289 O303 1.996 . S
Fe289 O306 1.997 . S
O290 Fe289 2.002 . S
O290 C307 1.295 . S
O291 Fe286 1.997 . S
O291 C307 1.235 . S
O292 Fe286 2.002 . S
O292 C293 1.295 . S
C293 O292 1.295 . S
C293 O295 1.235 1_655 S
C294 O299 1.287 . S
C294 O300 1.255 . S
O295 Fe287 1.997 . S
O295 C293 1.235 1_455 S
C296 O302 1.287 . S
C296 O303 1.255 1_455 S
O297 Fe286 1.976 . S
O297 C304 1.287 . S
O298 Fe287 1.996 . S
O298 C304 1.255 1_455 S
O299 Fe289 1.976 . S
O299 C294 1.287 . S
O300 Fe286 1.996 . S
O300 C294 1.255 . S
C301 O305 1.295 . S
C301 O306 1.235 1_455 S
O302 Fe287 1.976 . S
O302 C296 1.287 . S
O303 Fe289 1.996 . S
O303 C296 1.255 1_655 S
C304 O297 1.287 . S
C304 O298 1.255 1_655 S
O305 Fe287 2.002 . S
O305 C301 1.295 . S
O306 Fe289 1.997 . S
O306 C301 1.235 1_655 S
C307 O290 1.295 . S
C307 O291 1.235 . S
Fe308 O310 1.918 . S
Fe308 O313 1.997 . S
Fe308 O314 2.002 . S
Fe308 O319 1.976 . S
Fe308 O322 1.996 . S
Fe309 O310 1.918 . S
Fe309 O317 1.997 . S
Fe309 O320 1.996 . S
Fe309 O324 1.976 . S
Fe309 O327 2.002 . S
O310 Fe308 1.918 . S
O310 Fe309 1.918 . S
O310 Fe311 1.918 . S
Fe311 O310 1.918 . S
Fe311 O312 2.002 . S
Fe311 O321 1.976 . S
Fe311 O325 1.996 . S
Fe311 O328 1.997 . S
O312 Fe311 2.002 . S
O312 C329 1.295 . S
O313 Fe308 1.997 . S
O313 C329 1.235 . S
O314 Fe308 2.002 . S
O314 C315 1.295 . S
C315 O314 1.295 . S
C315 O317 1.235 . S
C316 O321 1.287 . S
C316 O322 1.255 . S
O317 Fe309 1.997 . S
O317 C315 1.235 . S
C318 O324 1.287 . S
C318 O325 1.255 . S
O319 Fe308 1.976 . S
O319 C326 1.287 . S
O320 Fe309 1.996 . S
O320 C326 1.255 . S
O321 Fe311 1.976 . S
O321 C316 1.287 . S
O322 Fe308 1.996 . S
O322 C316 1.255 . S
C323 O327 1.295 . S
C323 O328 1.235 . S
O324 Fe309 1.976 . S
O324 C318 1.287 . S
O325 Fe311 1.996 . S
O325 C318 1.255 . S
C326 O319 1.287 . S
C326 O320 1.255 . S
O327 Fe309 2.002 . S
O327 C323 1.295 . S
O328 Fe311 1.997 . S
O328 C323 1.235 . S
C329 O312 1.295 . S
C329 O313 1.235 . S
Fe330 O332 1.918 . S
Fe330 O335 1.997 . S
Fe330 O336 2.002 . S
Fe330 O341 1.976 . S
Fe330 O344 1.996 . S
Fe331 O332 1.918 . S
Fe331 O339 1.997 1_565 S
Fe331 O342 1.996 . S
Fe331 O346 1.976 . S
Fe331 O349 2.002 . S
O332 Fe330 1.918 . S
O332 Fe331 1.918 . S
O332 Fe333 1.918 . S
Fe333 O332 1.918 . S
Fe333 O334 2.002 . S
Fe333 O343 1.976 . S
Fe333 O347 1.996 . S
Fe333 O350 1.997 . S
O334 Fe333 2.002 . S
O334 C351 1.295 . S
O335 Fe330 1.997 . S
O335 C351 1.235 . S
O336 Fe330 2.002 . S
O336 C337 1.295 1_565 S
C337 O336 1.295 1_545 S
C337 O339 1.235 . S
C338 O343 1.287 . S
C338 O344 1.255 . S
O339 Fe331 1.997 1_545 S
O339 C337 1.235 . S
C340 O346 1.287 . S
C340 O347 1.255 . S
O341 Fe330 1.976 . S
O341 C348 1.287 . S
O342 Fe331 1.996 . S
O342 C348 1.255 . S
O343 Fe333 1.976 . S
O343 C338 1.287 . S
O344 Fe330 1.996 . S
O344 C338 1.255 . S
C345 O349 1.295 . S
C345 O350 1.235 . S
O346 Fe331 1.976 . S
O346 C340 1.287 . S
O347 Fe333 1.996 . S
O347 C340 1.255 . S
C348 O341 1.287 . S
C348 O342 1.255 . S
O349 Fe331 2.002 . S
O349 C345 1.295 . S
O350 Fe333 1.997 . S
O350 C345 1.235 . S
C351 O334 1.295 . S
C351 O335 1.235 . S
Fe352 O354 1.918 . S
Fe352 O357 1.997 . S
Fe352 O358 2.002 . S
Fe352 O363 1.960 1_565 S
Fe352 O366 1.996 . S
Fe353 O354 1.918 . S
Fe353 O361 1.997 1_455 S
Fe353 O364 1.996 1_565 S
Fe353 O368 1.976 . S
Fe353 O371 2.002 . S
O354 Fe352 1.918 . S
O354 Fe353 1.918 . S
O354 Fe355 1.918 . S
Fe355 O354 1.918 . S
Fe355 O356 2.002 . S
Fe355 O365 1.976 . S
Fe355 O369 1.996 . S
Fe355 O372 1.997 . S
O356 Fe355 2.002 . S
O356 C373 1.295 . S
O357 Fe352 1.997 . S
O357 C373 1.235 . S
O358 Fe352 2.002 . S
O358 C359 1.295 1_455 S
C359 O358 1.295 1_655 S
C359 O361 1.235 . S
C360 O365 1.287 . S
C360 O366 1.255 . S
O361 Fe353 1.997 1_655 S
O361 C359 1.235 . S
C362 O368 1.287 . S
C362 O369 1.255 . S
O363 Fe352 1.960 1_545 S
O363 C370 1.298 . S
O364 Fe353 1.996 1_545 S
O364 C370 1.255 . S
O365 Fe355 1.976 . S
O365 C360 1.287 . S
O366 Fe352 1.996 . S
O366 C360 1.255 . S
C367 O371 1.295 . S
C367 O372 1.235 . S
O368 Fe353 1.976 . S
O368 C362 1.287 . S
O369 Fe355 1.996 . S
O369 C362 1.255 . S
C370 O363 1.298 . S
C370 O364 1.255 . S
O371 Fe353 2.002 . S
O371 C367 1.295 . S
O372 Fe355 1.997 . S
O372 C367 1.235 . S
C373 O356 1.295 . S
C373 O357 1.235 . S
Fe374 O376 1.918 . S
Fe374 O379 1.997 . S
Fe374 O380 2.002 . S
Fe374 O385 1.976 . S
Fe374 O388 1.996 . S
Fe375 O376 1.918 . S
Fe375 O383 1.997 . S
Fe375 O386 1.996 . S
Fe375 O390 1.974 1_455 S
Fe375 O393 2.002 . S
O376 Fe374 1.918 . S
O376 Fe375 1.918 . S
O376 Fe377 1.918 . S
Fe377 O376 1.918 . S
Fe377 O378 2.002 . S
Fe377 O387 1.976 . S
Fe377 O391 1.996 1_455 S
Fe377 O394 1.997 . S
O378 Fe377 2.002 . S
O378 C395 1.295 . S
O379 Fe374 1.997 . S
O379 C395 1.235 . S
O380 Fe374 2.002 . S
O380 C381 1.295 . S
C381 O380 1.295 . S
C381 O383 1.235 . S
C382 O387 1.287 . S
C382 O388 1.255 . S
O383 Fe375 1.997 . S
O383 C381 1.235 . S
C384 O390 1.287 . S
C384 O391 1.255 . S
O385 Fe374 1.976 . S
O385 C392 1.287 . S
O386 Fe375 1.996 . S
O386 C392 1.255 . S
O387 Fe377 1.976 . S
O387 C382 1.287 . S
O388 Fe374 1.996 . S
O388 C382 1.255 . S
C389 O393 1.295 . S
C389 O394 1.235 . S
O390 Fe375 1.974 1_655 S
O390 C384 1.287 . S
O391 Fe377 1.996 1_655 S
O391 C384 1.255 . S
C392 O385 1.287 . S
C392 O386 1.255 . S
O393 Fe375 2.002 . S
O393 C389 1.295 . S
O394 Fe377 1.997 . S
O394 C389 1.235 . S
C395 O378 1.295 . S
C395 O379 1.235 . S
C59 C8 1.161 . S
C30 C21 1.161 . S
C43 C54 1.161 . S
C84 C103 1.161 . S
C125 C98 1.161 . S
C120 C73 1.161 . S
C191 C140 1.161 . S
C153 C172 1.161 . S
C161 C186 1.161 . S
C235 C208 1.161 . S
C230 C257 1.161 . S
C213 C252 1.161 . S
C274 C323 1.161 . S
C279 C294 1.161 . S
C307 C318 1.161 . S
C359 C348 1.161 . S
C389 C370 1.161 . S
C384 C337 1.161 . S
C18 C206 1.578 . S
C40 C228 1.578 . S
C250 C52 1.578 . S
C76 C272 1.578 . S
C304 C96 1.578 . S
C316 C118 1.578 . S
C293 C131 1.584 . S
C81 C329 1.584 . S
C285 C109 1.584 . S
C29 C263 1.584 . S
C65 C219 1.584 . S
C241 C7 1.584 . S
C340 C150 1.578 . S
C164 C362 1.578 1_545 S
C382 C184 1.578 1_455 S
C395 C169 1.584 . S
C197 C345 1.584 1_545 S
C367 C139 1.584 1_455 S
C15 C87 1.455 1_554 S
C95 C37 1.455 1_546 S
C117 C51 1.455 1_656 S
C32 C128 1.325 1_554 S
C62 C74 1.325 1_564 S
C106 C10 1.325 1_656 S
C147 C205 1.455 . S
C227 C175 1.455 . S
C249 C183 1.455 . S
C162 C260 1.325 . S
C216 C194 1.325 . S
C142 C238 1.325 . S
C351 C271 1.455 . S
C373 C301 1.455 . S
C381 C315 1.455 . S
C296 C392 1.325 . S
C326 C338 1.325 . S
C360 C282 1.324 . S
