# Generated by pormake.
# Topology afi, (4)-cn, num edge types: 1
# Building blocks:
#     Node 0, Type 0, BuildingBlock: GALJAG_clean_sbu_0, # of connection points: 4
#     Node 1, Type 0, BuildingBlock: GALJAG_clean_sbu_0, # of connection points: 4
#     Node 2, Type 0, BuildingBlock: GALJAG_clean_sbu_0, # of connection points: 4
#     Node 3, Type 0, BuildingBlock: GALJAG_clean_sbu_0, # of connection points: 4
#     Node 4, Type 0, BuildingBlock: GALJAG_clean_sbu_0, # of connection points: 4
#     Node 5, Type 0, BuildingBlock: GALJAG_clean_sbu_0, # of connection points: 4
#     Node 6, Type 0, BuildingBlock: GALJAG_clean_sbu_0, # of connection points: 4
#     Node 7, Type 0, BuildingBlock: GALJAG_clean_sbu_0, # of connection points: 4
#     Node 8, Type 0, BuildingBlock: GALJAG_clean_sbu_0, # of connection points: 4
#     Node 9, Type 0, BuildingBlock: GALJAG_clean_sbu_0, # of connection points: 4
#     Node 10, Type 0, BuildingBlock: GALJAG_clean_sbu_0, # of connection points: 4
#     Node 11, Type 0, BuildingBlock: GALJAG_clean_sbu_0, # of connection points: 4
#     Node 12, Type 0, BuildingBlock: GALJAG_clean_sbu_0, # of connection points: 4
#     Node 13, Type 0, BuildingBlock: GALJAG_clean_sbu_0, # of connection points: 4
#     Node 14, Type 0, BuildingBlock: GALJAG_clean_sbu_0, # of connection points: 4
#     Node 15, Type 0, BuildingBlock: GALJAG_clean_sbu_0, # of connection points: 4
#     Node 16, Type 0, BuildingBlock: GALJAG_clean_sbu_0, # of connection points: 4
#     Node 17, Type 0, BuildingBlock: GALJAG_clean_sbu_0, # of connection points: 4
#     Node 18, Type 0, BuildingBlock: GALJAG_clean_sbu_0, # of connection points: 4
#     Node 19, Type 0, BuildingBlock: GALJAG_clean_sbu_0, # of connection points: 4
#     Node 20, Type 0, BuildingBlock: GALJAG_clean_sbu_0, # of connection points: 4
#     Node 21, Type 0, BuildingBlock: GALJAG_clean_sbu_0, # of connection points: 4
#     Node 22, Type 0, BuildingBlock: GALJAG_clean_sbu_0, # of connection points: 4
#     Node 23, Type 0, BuildingBlock: GALJAG_clean_sbu_0, # of connection points: 4
#     Edge 24, Type (0, 0), BuildingBlock: ZUJKAS_clean_linker_0, # of connection points: 2
#     Edge 25, Type (0, 0), BuildingBlock: ZUJKAS_clean_linker_0, # of connection points: 2
#     Edge 26, Type (0, 0), BuildingBlock: ZUJKAS_clean_linker_0, # of connection points: 2
#     Edge 27, Type (0, 0), BuildingBlock: ZUJKAS_clean_linker_0, # of connection points: 2
#     Edge 28, Type (0, 0), BuildingBlock: ZUJKAS_clean_linker_0, # of connection points: 2
#     Edge 29, Type (0, 0), BuildingBlock: ZUJKAS_clean_linker_0, # of connection points: 2
#     Edge 30, Type (0, 0), BuildingBlock: ZUJKAS_clean_linker_0, # of connection points: 2
#     Edge 31, Type (0, 0), BuildingBlock: ZUJKAS_clean_linker_0, # of connection points: 2
#     Edge 32, Type (0, 0), BuildingBlock: ZUJKAS_clean_linker_0, # of connection points: 2
#     Edge 33, Type (0, 0), BuildingBlock: ZUJKAS_clean_linker_0, # of connection points: 2
#     Edge 34, Type (0, 0), BuildingBlock: ZUJKAS_clean_linker_0, # of connection points: 2
#     Edge 35, Type (0, 0), BuildingBlock: ZUJKAS_clean_linker_0, # of connection points: 2
#     Edge 36, Type (0, 0), BuildingBlock: ZUJKAS_clean_linker_0, # of connection points: 2
#     Edge 37, Type (0, 0), BuildingBlock: ZUJKAS_clean_linker_0, # of connection points: 2
#     Edge 38, Type (0, 0), BuildingBlock: ZUJKAS_clean_linker_0, # of connection points: 2
#     Edge 39, Type (0, 0), BuildingBlock: ZUJKAS_clean_linker_0, # of connection points: 2
#     Edge 40, Type (0, 0), BuildingBlock: ZUJKAS_clean_linker_0, # of connection points: 2
#     Edge 41, Type (0, 0), BuildingBlock: ZUJKAS_clean_linker_0, # of connection points: 2
#     Edge 42, Type (0, 0), BuildingBlock: ZUJKAS_clean_linker_0, # of connection points: 2
#     Edge 43, Type (0, 0), BuildingBlock: ZUJKAS_clean_linker_0, # of connection points: 2
#     Edge 44, Type (0, 0), BuildingBlock: ZUJKAS_clean_linker_0, # of connection points: 2
#     Edge 45, Type (0, 0), BuildingBlock: ZUJKAS_clean_linker_0, # of connection points: 2
#     Edge 46, Type (0, 0), BuildingBlock: ZUJKAS_clean_linker_0, # of connection points: 2
#     Edge 47, Type (0, 0), BuildingBlock: ZUJKAS_clean_linker_0, # of connection points: 2
#     Edge 48, Type (0, 0), BuildingBlock: ZUJKAS_clean_linker_0, # of connection points: 2
#     Edge 49, Type (0, 0), BuildingBlock: ZUJKAS_clean_linker_0, # of connection points: 2
#     Edge 50, Type (0, 0), BuildingBlock: ZUJKAS_clean_linker_0, # of connection points: 2
#     Edge 51, Type (0, 0), BuildingBlock: ZUJKAS_clean_linker_0, # of connection points: 2
#     Edge 52, Type (0, 0), BuildingBlock: ZUJKAS_clean_linker_0, # of connection points: 2
#     Edge 53, Type (0, 0), BuildingBlock: ZUJKAS_clean_linker_0, # of connection points: 2
#     Edge 54, Type (0, 0), BuildingBlock: ZUJKAS_clean_linker_0, # of connection points: 2
#     Edge 55, Type (0, 0), BuildingBlock: ZUJKAS_clean_linker_0, # of connection points: 2
#     Edge 56, Type (0, 0), BuildingBlock: ZUJKAS_clean_linker_0, # of connection points: 2
#     Edge 57, Type (0, 0), BuildingBlock: ZUJKAS_clean_linker_0, # of connection points: 2
#     Edge 58, Type (0, 0), BuildingBlock: ZUJKAS_clean_linker_0, # of connection points: 2
#     Edge 59, Type (0, 0), BuildingBlock: ZUJKAS_clean_linker_0, # of connection points: 2
#     Edge 60, Type (0, 0), BuildingBlock: ZUJKAS_clean_linker_0, # of connection points: 2
#     Edge 61, Type (0, 0), BuildingBlock: ZUJKAS_clean_linker_0, # of connection points: 2
#     Edge 62, Type (0, 0), BuildingBlock: ZUJKAS_clean_linker_0, # of connection points: 2
#     Edge 63, Type (0, 0), BuildingBlock: ZUJKAS_clean_linker_0, # of connection points: 2
#     Edge 64, Type (0, 0), BuildingBlock: ZUJKAS_clean_linker_0, # of connection points: 2
#     Edge 65, Type (0, 0), BuildingBlock: ZUJKAS_clean_linker_0, # of connection points: 2
#     Edge 66, Type (0, 0), BuildingBlock: ZUJKAS_clean_linker_0, # of connection points: 2
#     Edge 67, Type (0, 0), BuildingBlock: ZUJKAS_clean_linker_0, # of connection points: 2
#     Edge 68, Type (0, 0), BuildingBlock: ZUJKAS_clean_linker_0, # of connection points: 2
#     Edge 69, Type (0, 0), BuildingBlock: ZUJKAS_clean_linker_0, # of connection points: 2
#     Edge 70, Type (0, 0), BuildingBlock: ZUJKAS_clean_linker_0, # of connection points: 2
#     Edge 71, Type (0, 0), BuildingBlock: ZUJKAS_clean_linker_0, # of connection points: 2
# Relax obj value: 0.135
# Max RMSD: 0.138
# Mean RMSD: 0.138
data_MOF--net-afi--node1-GALJAG_clean_sbu_0--edge1-ZUJKAS_clean_linker_0
_symmetry_space_group_name_H-M    P1
_symmetry_Int_Tables_number       1
_symmetry_cell_setting            triclinic
loop_
_symmetry_equiv_pos_as_xyz
'x, y, z'
_cell_length_a     88.289216
_cell_length_b     88.29119
_cell_length_c     51.992556
_cell_angle_alpha  90.010087
_cell_angle_beta   89.983744
_cell_angle_gamma 119.9897
loop_
_atom_site_label
_atom_site_type_symbol
_atom_site_fract_x
_atom_site_fract_y
_atom_site_fract_z
_atom_type_partial_charge
In0 In 0.4545 0.12121 0.19071 0.0
O1 O 0.46641 0.12913 0.15077 0.0
O2 O 0.43879 0.11735 0.15392 0.0
C3 C 0.48488 0.12357 0.20609 0.0
C4 C 0.45089 0.14849 0.20655 0.0
C5 C 0.43201 0.08851 0.20792 0.0
O6 O 0.47814 0.11768 0.18438 0.0
O7 O 0.47628 0.12825 0.22012 0.0
O8 O 0.43943 0.10149 0.22279 0.0
O9 O 0.4357 0.09207 0.1845 0.0
C10 C 0.45201 0.12379 0.13936 0.0
O11 O 0.43846 0.1329 0.20736 0.0
O12 O 0.465 0.15025 0.19784 0.0
In13 In 0.33519 0.45591 0.18718 0.0
O14 O 0.30604 0.43961 0.19747 0.0
O15 O 0.31901 0.4668 0.20517 0.0
C16 C 0.34642 0.43407 0.20325 0.0
C17 C 0.32987 0.45285 0.13568 0.0
C18 C 0.36266 0.48617 0.20373 0.0
O19 O 0.33265 0.43323 0.21192 0.0
O20 O 0.35433 0.44578 0.18656 0.0
O21 O 0.35904 0.48274 0.1802 0.0
O22 O 0.35233 0.47437 0.21898 0.0
C23 C 0.30492 0.45239 0.20599 0.0
O24 O 0.33384 0.46671 0.1478 0.0
O25 O 0.32834 0.44046 0.14955 0.0
In26 In 0.88 0.33535 0.18806 0.0
O27 O 0.88553 0.34709 0.1479 0.0
O28 O 0.87486 0.31957 0.15095 0.0
C29 C 0.87574 0.36222 0.20382 0.0
C30 C 0.8521 0.30514 0.20455 0.0
C31 C 0.91246 0.34369 0.20435 0.0
O32 O 0.87177 0.35583 0.18151 0.0
O33 O 0.88167 0.35495 0.21829 0.0
O34 O 0.89976 0.33904 0.21952 0.0
O35 O 0.90872 0.34375 0.181 0.0
C36 C 0.8802 0.33272 0.13637 0.0
O37 O 0.86728 0.30719 0.20308 0.0
O38 O 0.85104 0.31829 0.19779 0.0
In39 In 0.54766 0.88126 0.19281 0.0
O40 O 0.54038 0.88404 0.15176 0.0
O41 O 0.56193 0.88 0.15671 0.0
C42 C 0.51685 0.87604 0.21161 0.0
C43 C 0.54965 0.85311 0.2088 0.0
C44 C 0.57047 0.91412 0.2089 0.0
O45 O 0.51843 0.87134 0.18934 0.0
O46 O 0.53077 0.88312 0.22466 0.0
O47 O 0.56846 0.90072 0.22061 0.0
O48 O 0.56116 0.91092 0.18906 0.0
C49 C 0.55226 0.88228 0.14123 0.0
O50 O 0.56278 0.86832 0.20816 0.0
O51 O 0.53558 0.85214 0.20147 0.0
In52 In 0.66605 0.54428 0.18914 0.0
O53 O 0.68926 0.55485 0.2169 0.0
O54 O 0.68736 0.53681 0.18838 0.0
C55 C 0.65483 0.56679 0.20192 0.0
C56 C 0.66949 0.54911 0.13759 0.0
C57 C 0.64183 0.51318 0.20901 0.0
O58 O 0.67067 0.57086 0.20357 0.0
O59 O 0.64481 0.55155 0.19372 0.0
O60 O 0.6461 0.51528 0.18558 0.0
O61 O 0.65009 0.52671 0.22268 0.0
C62 C 0.69584 0.54637 0.2071 0.0
O63 O 0.65683 0.53601 0.14799 0.0
O64 O 0.68053 0.55994 0.15319 0.0
In65 In 0.1227 0.66633 0.18802 0.0
O66 O 0.1291 0.66334 0.14662 0.0
O67 O 0.11623 0.67787 0.15291 0.0
C68 C 0.12791 0.6406 0.2062 0.0
C69 C 0.15041 0.69605 0.20635 0.0
C70 C 0.08896 0.65426 0.20148 0.0
O71 O 0.1265 0.64287 0.18258 0.0
O72 O 0.12691 0.65148 0.22084 0.0
O73 O 0.10062 0.67008 0.2043 0.0
O74 O 0.09429 0.64472 0.19165 0.0
C75 C 0.1227 0.67196 0.13685 0.0
O76 O 0.13538 0.68941 0.21624 0.0
O77 O 0.15142 0.68773 0.1874 0.0
In78 In 0.87929 0.54635 0.31075 0.0
O79 O 0.86647 0.56156 0.29514 0.0
O80 O 0.85017 0.53448 0.30257 0.0
C81 C 0.91238 0.56813 0.2945 0.0
C82 C 0.87765 0.55034 0.36211 0.0
C83 C 0.87604 0.51634 0.29191 0.0
O84 O 0.89925 0.56753 0.28383 0.0
O85 O 0.90881 0.55799 0.31344 0.0
O86 O 0.87867 0.52042 0.31539 0.0
O87 O 0.87499 0.52741 0.27778 0.0
C88 C 0.85121 0.5485 0.29491 0.0
O89 O 0.87133 0.53563 0.35136 0.0
O90 O 0.88476 0.56319 0.34694 0.0
In91 In 0.33435 0.87838 0.3127 0.0
O92 O 0.34436 0.88033 0.35355 0.0
O93 O 0.31874 0.87643 0.34901 0.0
C94 C 0.36101 0.87444 0.29502 0.0
C95 C 0.30438 0.85034 0.29576 0.0
C96 C 0.34381 0.91127 0.2974 0.0
O97 O 0.35411 0.86901 0.3168 0.0
O98 O 0.35432 0.88166 0.28199 0.0
O99 O 0.33535 0.8981 0.28313 0.0
O100 O 0.34724 0.90782 0.31942 0.0
C101 C 0.33069 0.87836 0.3643 0.0
O102 O 0.30622 0.86542 0.29742 0.0
O103 O 0.3176 0.84944 0.30255 0.0
In104 In 0.45517 0.33343 0.3116 0.0
O105 O 0.46536 0.33147 0.35114 0.0
O106 O 0.43913 0.32596 0.34872 0.0
C107 C 0.48604 0.3606 0.29623 0.0
C108 C 0.45132 0.30309 0.29261 0.0
C109 C 0.43396 0.34524 0.29466 0.0
O110 O 0.48164 0.35754 0.3196 0.0
O111 O 0.47486 0.34991 0.28058 0.0
O112 O 0.43312 0.3315 0.28591 0.0
O113 O 0.44538 0.35287 0.31182 0.0
C114 C 0.4513 0.32726 0.36286 0.0
O115 O 0.43858 0.30441 0.30077 0.0
O116 O 0.46586 0.31701 0.2939 0.0
In117 In 0.12263 0.45455 0.30954 0.0
O118 O 0.13495 0.43899 0.29348 0.0
O119 O 0.15168 0.46596 0.30114 0.0
C120 C 0.08972 0.43199 0.29324 0.0
C121 C 0.12557 0.45117 0.36062 0.0
C122 C 0.12491 0.48472 0.29322 0.0
O123 O 0.10297 0.43676 0.27913 0.0
O124 O 0.09309 0.43841 0.31556 0.0
O125 O 0.12094 0.47923 0.31599 0.0
O126 O 0.12771 0.47498 0.2786 0.0
C127 C 0.15034 0.45184 0.29329 0.0
O128 O 0.13084 0.46575 0.34981 0.0
O129 O 0.11886 0.43819 0.34563 0.0
In130 In 0.66769 0.12417 0.31181 0.0
O131 O 0.69064 0.1366 0.28338 0.0
O132 O 0.68956 0.15271 0.31266 0.0
C133 C 0.65615 0.09032 0.29973 0.0
C134 C 0.67231 0.12444 0.36328 0.0
C135 C 0.64203 0.12907 0.29246 0.0
O136 O 0.67201 0.10203 0.29759 0.0
O137 O 0.64627 0.09568 0.30816 0.0
O138 O 0.64451 0.12853 0.31623 0.0
O139 O 0.65268 0.12739 0.27823 0.0
C140 C 0.69766 0.15157 0.29349 0.0
O141 O 0.66399 0.13089 0.35269 0.0
O142 O 0.67847 0.11784 0.34789 0.0
In143 In 0.54694 0.66776 0.30966 0.0
O144 O 0.53479 0.66589 0.34905 0.0
O145 O 0.5624 0.67766 0.34721 0.0
C146 C 0.51742 0.63994 0.29174 0.0
C147 C 0.54948 0.69799 0.29282 0.0
C148 C 0.56971 0.65767 0.29357 0.0
O149 O 0.52141 0.64215 0.31528 0.0
O150 O 0.52832 0.65182 0.27713 0.0
O151 O 0.56814 0.66948 0.28235 0.0
O152 O 0.56 0.65118 0.31296 0.0
C153 C 0.54908 0.67296 0.36112 0.0
O154 O 0.56271 0.6967 0.29825 0.0
O155 O 0.53508 0.6841 0.29581 0.0
In156 In 0.54575 0.87967 0.81522 0.0
O157 O 0.53632 0.87049 0.856 0.0
O158 O 0.56317 0.88937 0.85101 0.0
C159 C 0.51344 0.87293 0.80117 0.0
C160 C 0.54976 0.85326 0.79629 0.0
C161 C 0.56724 0.91296 0.7994 0.0
O162 O 0.51973 0.87833 0.82325 0.0
O163 O 0.52335 0.87065 0.78613 0.0
O164 O 0.57219 0.90181 0.8005 0.0
O165 O 0.55165 0.90732 0.80631 0.0
C166 C 0.55099 0.88 0.86644 0.0
O167 O 0.55289 0.86648 0.78306 0.0
O168 O 0.54471 0.85342 0.81888 0.0
In169 In 0.66776 0.54721 0.81053 0.0
O170 O 0.69634 0.56292 0.7972 0.0
O171 O 0.68438 0.5353 0.79821 0.0
C172 C 0.658 0.57031 0.7945 0.0
C173 C 0.67098 0.55063 0.86224 0.0
C174 C 0.64158 0.51609 0.79368 0.0
O175 O 0.66682 0.56584 0.78063 0.0
O176 O 0.65431 0.56333 0.81644 0.0
O177 O 0.64876 0.518 0.81533 0.0
O178 O 0.64772 0.52985 0.78034 0.0
C179 C 0.69793 0.54967 0.79337 0.0
O180 O 0.65729 0.53921 0.8512 0.0
O181 O 0.68321 0.56045 0.84719 0.0
In182 In 0.12283 0.66665 0.81171 0.0
O183 O 0.13524 0.69102 0.78594 0.0
O184 O 0.15202 0.68652 0.80988 0.0
C185 C 0.08928 0.65499 0.79759 0.0
C186 C 0.12371 0.67314 0.86278 0.0
C187 C 0.12696 0.64023 0.79355 0.0
O188 O 0.10149 0.67019 0.79227 0.0
O189 O 0.09398 0.64584 0.81021 0.0
O190 O 0.12463 0.64203 0.81701 0.0
O191 O 0.12734 0.65188 0.77903 0.0
C192 C 0.15066 0.69623 0.79338 0.0
O193 O 0.1306 0.66503 0.85288 0.0
O194 O 0.11633 0.67816 0.8469 0.0
In195 In 0.45832 0.123 0.81229 0.0
O196 O 0.4487 0.13619 0.78368 0.0
O197 O 0.46404 0.15116 0.81526 0.0
C198 C 0.43647 0.08937 0.7983 0.0
C199 C 0.4539 0.1227 0.86377 0.0
C200 C 0.4894 0.12889 0.79367 0.0
O201 O 0.43193 0.10084 0.79748 0.0
O202 O 0.45178 0.09484 0.80638 0.0
O203 O 0.48538 0.12623 0.81715 0.0
O204 O 0.4778 0.12882 0.7794 0.0
C205 C 0.45577 0.15068 0.79527 0.0
O206 O 0.46868 0.12927 0.85315 0.0
O207 O 0.44112 0.11619 0.84839 0.0
In208 In 0.33641 0.45683 0.80818 0.0
O209 O 0.31657 0.45094 0.77561 0.0
O210 O 0.31016 0.45566 0.81287 0.0
C211 C 0.34716 0.43475 0.7909 0.0
C212 C 0.3334 0.45376 0.85987 0.0
C213 C 0.36218 0.4892 0.79502 0.0
O214 O 0.33151 0.42937 0.79745 0.0
O215 O 0.35708 0.451 0.793 0.0
O216 O 0.36231 0.48171 0.8156 0.0
O217 O 0.34885 0.48048 0.78112 0.0
C218 C 0.30565 0.45225 0.78968 0.0
O219 O 0.33726 0.46773 0.84812 0.0
O220 O 0.33101 0.4412 0.84553 0.0
In221 In 0.88129 0.33586 0.80872 0.0
O222 O 0.86878 0.30767 0.79391 0.0
O223 O 0.85254 0.31888 0.79774 0.0
C224 C 0.91373 0.34428 0.79215 0.0
C225 C 0.88138 0.33297 0.86039 0.0
C226 C 0.87687 0.36274 0.79358 0.0
O227 O 0.90095 0.33949 0.77711 0.0
O228 O 0.91009 0.34446 0.81553 0.0
O229 O 0.87246 0.35587 0.81556 0.0
O230 O 0.88331 0.35595 0.77913 0.0
C231 C 0.85368 0.30569 0.7915 0.0
O232 O 0.88699 0.34743 0.849 0.0
O233 O 0.8758 0.31987 0.84568 0.0
In234 In 0.12378 0.45593 0.68652 0.0
O235 O 0.13657 0.4412 0.70398 0.0
O236 O 0.15316 0.46733 0.69173 0.0
C237 C 0.09085 0.43338 0.70274 0.0
C238 C 0.12553 0.45179 0.63539 0.0
C239 C 0.12648 0.48612 0.7038 0.0
O240 O 0.10415 0.43746 0.71639 0.0
O241 O 0.09417 0.44047 0.68086 0.0
O242 O 0.12339 0.48134 0.68064 0.0
O243 O 0.12829 0.4757 0.71836 0.0
C244 C 0.152 0.45374 0.70155 0.0
O245 O 0.13033 0.46642 0.64574 0.0
O246 O 0.11985 0.43909 0.65089 0.0
In247 In 0.66923 0.12239 0.69015 0.0
O248 O 0.66856 0.13267 0.65026 0.0
O249 O 0.67876 0.11551 0.65329 0.0
C250 C 0.64154 0.12513 0.70583 0.0
C251 C 0.69942 0.1499 0.70762 0.0
C252 C 0.65806 0.08947 0.70703 0.0
O253 O 0.64477 0.12413 0.68246 0.0
O254 O 0.65229 0.12474 0.72143 0.0
O255 O 0.67015 0.10274 0.71808 0.0
O256 O 0.65182 0.09282 0.68748 0.0
C257 C 0.67494 0.12457 0.6388 0.0
O258 O 0.69819 0.13547 0.70175 0.0
O259 O 0.6855 0.15037 0.70483 0.0
In260 In 0.54738 0.66941 0.68887 0.0
O261 O 0.53485 0.66284 0.64919 0.0
O262 O 0.56214 0.68098 0.65132 0.0
C263 C 0.51717 0.64185 0.70586 0.0
C264 C 0.55099 0.70058 0.70314 0.0
C265 C 0.571 0.66075 0.70639 0.0
O266 O 0.52537 0.64096 0.68662 0.0
O267 O 0.52417 0.65664 0.71656 0.0
O268 O 0.56173 0.66406 0.72125 0.0
O269 O 0.56864 0.6622 0.68283 0.0
C270 C 0.54883 0.67268 0.63721 0.0
O271 O 0.56201 0.69606 0.70922 0.0
O272 O 0.53834 0.68946 0.68995 0.0
In273 In 0.87987 0.54694 0.68867 0.0
O274 O 0.86746 0.56262 0.70403 0.0
O275 O 0.85105 0.53529 0.69894 0.0
C276 C 0.91313 0.56866 0.70425 0.0
C277 C 0.87757 0.55058 0.63732 0.0
C278 C 0.8767 0.51697 0.70744 0.0
O279 O 0.90018 0.5687 0.71446 0.0
O280 O 0.9093 0.55786 0.68613 0.0
O281 O 0.879 0.52091 0.68389 0.0
O282 O 0.87595 0.52816 0.72168 0.0
C283 C 0.85226 0.54955 0.70575 0.0
O284 O 0.87071 0.53594 0.6484 0.0
O285 O 0.88554 0.56351 0.65214 0.0
In286 In 0.3353 0.87939 0.69137 0.0
O287 O 0.34473 0.88031 0.65041 0.0
O288 O 0.32034 0.87923 0.65512 0.0
C289 C 0.36025 0.87377 0.71181 0.0
C290 C 0.30498 0.85114 0.7066 0.0
C291 C 0.34613 0.91265 0.7065 0.0
O292 O 0.35568 0.87082 0.68855 0.0
O293 O 0.35208 0.87939 0.72499 0.0
O294 O 0.33386 0.89954 0.71758 0.0
O295 O 0.35273 0.90898 0.6877 0.0
C296 C 0.33168 0.87981 0.63974 0.0
O297 O 0.30751 0.86651 0.70784 0.0
O298 O 0.31768 0.85006 0.69772 0.0
In299 In 0.45772 0.33482 0.68927 0.0
O300 O 0.44887 0.31251 0.71863 0.0
O301 O 0.46258 0.31189 0.68553 0.0
C302 C 0.43542 0.34572 0.70464 0.0
C303 C 0.45299 0.33011 0.63791 0.0
C304 C 0.48901 0.36064 0.70637 0.0
O305 O 0.43135 0.32984 0.70549 0.0
O306 O 0.4505 0.35586 0.69595 0.0
O307 O 0.48346 0.36023 0.68391 0.0
O308 O 0.47884 0.34788 0.72035 0.0
C309 C 0.4551 0.30458 0.70624 0.0
O310 O 0.4678 0.33685 0.64848 0.0
O311 O 0.44038 0.32565 0.65327 0.0
H312 H 0.42587 0.07688 0.25765 0.0
H313 H 0.40887 0.04654 0.27252 0.0
H314 H 0.39521 0.02911 0.19407 0.0
H315 H 0.4125 0.0593 0.17905 0.0
H316 H 0.37414 0.0213 0.26718 0.0
H317 H 0.41672 1.00046 0.21864 0.0
H318 H 0.42283 0.02314 0.22205 0.0
H319 H 0.40782 0.00995 0.19722 0.0
C320 C 0.41918 0.06657 0.2436 0.0
C321 C 0.42065 0.07043 0.21718 0.0
C322 C 0.40947 0.04926 0.25211 0.0
C323 C 0.40107 0.03553 0.23436 0.0
C324 C 0.40195 0.03944 0.20805 0.0
H325 H 0.34157 0.92221 0.24912 0.0
H326 H 0.35413 0.95242 0.23392 0.0
C327 C 0.41175 0.05672 0.19952 0.0
C328 C 0.39166 0.01711 0.24333 0.0
H329 H 0.3907 0.9781 0.23763 0.0
C330 C 0.37777 0.01185 0.26078 0.0
C331 C 0.39647 0.00482 0.235 0.0
C332 C 0.41188 0.00988 0.21739 0.0
C333 C 0.36842 0.99456 0.26985 0.0
C334 C 0.37319 0.9823 0.2614 0.0
C335 C 0.38701 0.98753 0.2439 0.0
C336 C 0.36442 0.96409 0.27106 0.0
C337 C 0.35337 0.98947 0.28817 0.0
C338 C 0.36604 0.96069 0.29696 0.0
C339 C 0.35897 0.94348 0.30566 0.0
C340 C 0.35014 0.92938 0.28858 0.0
C341 C 0.34824 0.93281 0.26274 0.0
C342 C 0.35541 0.95003 0.25403 0.0
H343 H 0.34879 0.99912 0.28806 0.0
H344 H 0.34222 0.97638 0.28323 0.0
H345 H 0.35767 0.98881 0.30798 0.0
H346 H 0.37321 0.97136 0.31031 0.0
H347 H 0.3607 0.94125 0.32565 0.0
H348 H 0.43701 0.37675 0.30576 0.0
H349 H 0.41883 0.38845 0.29029 0.0
H350 H 0.38696 0.34084 0.24793 0.0
H351 H 0.40555 0.32924 0.26276 0.0
H352 H 0.3946 0.36853 0.21919 0.0
H353 H 0.3711 0.3773 0.31338 0.0
H354 H 0.39452 0.38844 0.3125 0.0
H355 H 0.38221 0.36495 0.30972 0.0
C356 C 0.42607 0.36871 0.29328 0.0
C357 C 0.42265 0.35204 0.28556 0.0
C358 C 0.41558 0.37537 0.28461 0.0
C359 C 0.40125 0.36537 0.26845 0.0
C360 C 0.39785 0.34873 0.26059 0.0
H361 H 0.33001 0.40527 0.2344 0.0
H362 H 0.34139 0.38644 0.24901 0.0
C363 C 0.40847 0.34212 0.26905 0.0
C364 C 0.39045 0.37274 0.25878 0.0
H365 H 0.36886 0.39382 0.27814 0.0
C366 C 0.38876 0.37384 0.2321 0.0
C367 C 0.38248 0.37933 0.27556 0.0
C368 C 0.3825 0.37727 0.30437 0.0
C369 C 0.38008 0.38212 0.22176 0.0
C370 C 0.37336 0.38997 0.23856 0.0
C371 C 0.37427 0.38808 0.26523 0.0
C372 C 0.36609 0.40086 0.22893 0.0
C373 C 0.37823 0.38235 0.19293 0.0
C374 C 0.37624 0.41533 0.21306 0.0
C375 C 0.36972 0.42595 0.20452 0.0
C376 C 0.35302 0.42253 0.21207 0.0
C377 C 0.34292 0.40819 0.22823 0.0
C378 C 0.3494 0.39744 0.23658 0.0
H379 H 0.37831 0.37102 0.18381 0.0
H380 H 0.36596 0.38212 0.18745 0.0
H381 H 0.38947 0.39442 0.18505 0.0
H382 H 0.38936 0.41859 0.20756 0.0
H383 H 0.37789 0.43701 0.19231 0.0
H384 H 0.92451 0.34922 0.25382 0.0
H385 H 0.95492 0.36218 0.26811 0.0
H386 H 0.97153 0.36473 0.18942 0.0
H387 H 0.94123 0.35218 0.17496 0.0
H388 H 0.97991 0.35225 0.26266 0.0
H389 H 1.00066 0.41522 0.21272 0.0
H390 H 0.97797 0.39882 0.21677 0.0
H391 H 0.99084 0.39652 0.19189 0.0
C392 C 0.93463 0.35244 0.23959 0.0
C393 C 0.93052 0.34985 0.21325 0.0
C394 C 0.95199 0.35983 0.24777 0.0
C395 C 0.96552 0.36475 0.22979 0.0
C396 C 0.96134 0.36143 0.20358 0.0
H397 H 0.07903 0.41924 0.24469 0.0
H398 H 0.0489 0.40155 0.22917 0.0
C399 C 0.94402 0.35416 0.19536 0.0
C400 C 0.98401 0.37376 0.23841 0.0
H401 H 0.02297 0.41182 0.23226 0.0
C402 C 0.98933 0.36528 0.25603 0.0
C403 C 0.99627 0.39078 0.2298 0.0
C404 C 0.99115 0.40096 0.21195 0.0
C405 C 0.00663 0.37331 0.26508 0.0
C406 C 0.01885 0.39031 0.25644 0.0
C407 C 0.01358 0.39873 0.23869 0.0
C408 C 0.03703 0.39992 0.26623 0.0
C409 C 0.01177 0.36351 0.28359 0.0
C410 C 0.04029 0.40487 0.29218 0.0
C411 C 0.05745 0.41502 0.30105 0.0
C412 C 0.07165 0.42042 0.28411 0.0
C413 C 0.06835 0.41523 0.2582 0.0
C414 C 0.05118 0.40515 0.24931 0.0
H415 H 0.00227 0.34923 0.28336 0.0
H416 H 0.02498 0.36563 0.27898 0.0
H417 H 0.01215 0.36839 0.30339 0.0
H418 H 0.02955 0.40125 0.30544 0.0
H419 H 0.05958 0.41887 0.3211 0.0
H420 H 0.57399 0.94432 0.18939 0.0
H421 H 0.5919 0.97393 0.2061 0.0
H422 H 0.61142 0.95436 0.26594 0.0
H423 H 0.59309 0.92453 0.24965 0.0
H424 H 0.60134 0.97606 0.28501 0.0
H425 H 0.6436 0.00739 0.20055 0.0
H426 H 0.62089 0.99676 0.19206 0.0
H427 H 0.63021 0.98396 0.2036 0.0
C428 C 0.58223 0.94633 0.20595 0.0
C429 C 0.58218 0.93212 0.21818 0.0
C430 C 0.59258 0.9633 0.21537 0.0
C431 C 0.60329 0.96644 0.23697 0.0
C432 C 0.60336 0.95226 0.24912 0.0
H433 H 0.67493 0.07508 0.2835 0.0
H434 H 0.6635 0.04458 0.2704 0.0
C435 C 0.59291 0.93524 0.2398 0.0
C436 C 0.61345 0.98436 0.24778 0.0
H437 H 0.64175 0.0268 0.23134 0.0
C438 C 0.61037 0.98712 0.27337 0.0
C439 C 0.62548 0.99877 0.23279 0.0
C440 C 0.63039 0.99655 0.20582 0.0
C441 C 0.61832 0.00399 0.28398 0.0
C442 C 0.62933 0.01853 0.26837 0.0
C443 C 0.6331 0.01569 0.24319 0.0
C444 C 0.6364 0.0368 0.27736 0.0
C445 C 0.6148 0.00605 0.3118 0.0
C446 C 0.62496 0.04258 0.28539 0.0
C447 C 0.63144 0.05991 0.29301 0.0
C448 C 0.64949 0.07188 0.29242 0.0
C449 C 0.66096 0.06613 0.28423 0.0
C450 C 0.65445 0.04873 0.27674 0.0
H451 H 0.61126 0.994 0.32299 0.0
H452 H 0.62634 0.01722 0.32095 0.0
H453 H 0.60362 0.00844 0.3129 0.0
H454 H 0.61095 0.03376 0.28536 0.0
H455 H 0.62226 0.06398 0.299 0.0
H456 H 0.57282 0.6306 0.31253 0.0
H457 H 0.59078 0.61896 0.29579 0.0
H458 H 0.6111 0.65876 0.23699 0.0
H459 H 0.59277 0.67025 0.25333 0.0
H460 H 0.60086 0.62698 0.21724 0.0
H461 H 0.64249 0.63697 0.30214 0.0
H462 H 0.61971 0.625 0.31026 0.0
H463 H 0.62929 0.64723 0.29907 0.0
C464 C 0.58125 0.637 0.2962 0.0
C465 C 0.58142 0.65137 0.28428 0.0
C466 C 0.59162 0.63041 0.28676 0.0
C467 C 0.60256 0.63819 0.26544 0.0
C468 C 0.60286 0.65264 0.25359 0.0
H469 H 0.67385 0.60074 0.21841 0.0
H470 H 0.66264 0.61997 0.23177 0.0
C471 C 0.5924 0.65919 0.26295 0.0
C472 C 0.61273 0.63046 0.25458 0.0
H473 H 0.64074 0.61593 0.27101 0.0
C474 C 0.60977 0.62479 0.2289 0.0
C475 C 0.62461 0.62787 0.26961 0.0
C476 C 0.62937 0.63477 0.29671 0.0
C477 C 0.61769 0.61585 0.21824 0.0
C478 C 0.62854 0.61212 0.23386 0.0
C479 C 0.63221 0.61856 0.25914 0.0
C480 C 0.63549 0.60083 0.2248 0.0
C481 C 0.61427 0.61044 0.19035 0.0
C482 C 0.62394 0.58366 0.21671 0.0
C483 C 0.6303 0.57273 0.20898 0.0
C484 C 0.64832 0.57867 0.20948 0.0
C485 C 0.65989 0.59583 0.21774 0.0
C486 C 0.65352 0.60681 0.22539 0.0
H487 H 0.61083 0.61904 0.17922 0.0
H488 H 0.62582 0.61079 0.18126 0.0
H489 H 0.60306 0.59689 0.18907 0.0
H490 H 0.60995 0.57859 0.21677 0.0
H491 H 0.62104 0.55952 0.20293 0.0
H492 H 0.07356 0.67232 0.22021 0.0
H493 H 0.04327 0.66022 0.23486 0.0
H494 H 0.0329 0.60824 0.21652 0.0
H495 H 0.06291 0.62025 0.20129 0.0
H496 H 0.0067 0.61357 0.20055 0.0
H497 H 0.0237 0.63466 0.30219 0.0
H498 H 0.03334 0.65211 0.27915 0.0
H499 H 0.03953 0.63556 0.2794 0.0
C500 C 0.06478 0.65832 0.21926 0.0
C501 C 0.07061 0.64722 0.20972 0.0
C502 C 0.04752 0.65142 0.22779 0.0
C503 C 0.03589 0.63329 0.2272 0.0
C504 C 0.04164 0.62226 0.21723 0.0
H505 H 0.94181 0.56874 0.31168 0.0
H506 H 0.97147 0.58573 0.29463 0.0
C507 C 0.05881 0.62914 0.20856 0.0
C508 C 0.01772 0.62564 0.23698 0.0
H509 H 0.99377 0.62068 0.29114 0.0
C510 C 0.00385 0.61518 0.22033 0.0
C511 C 0.01406 0.62761 0.26287 0.0
C512 C 0.02842 0.63795 0.28205 0.0
C513 C 0.98644 0.60643 0.22892 0.0
C514 C 0.98276 0.60855 0.25474 0.0
C515 C 0.99661 0.61921 0.2713 0.0
C516 C 0.96477 0.59887 0.26545 0.0
C517 C 0.97225 0.59447 0.21052 0.0
C518 C 0.95117 0.60082 0.25502 0.0
C519 C 0.93413 0.59099 0.26461 0.0
C520 C 0.93046 0.57921 0.28502 0.0
C521 C 0.94421 0.57768 0.29592 0.0
C522 C 0.96118 0.58741 0.28622 0.0
H523 H 0.97765 0.59099 0.19366 0.0
H524 H 0.96257 0.58221 0.22026 0.0
H525 H 0.96529 0.60116 0.20327 0.0
H526 H 0.95371 0.60989 0.23937 0.0
H527 H 0.92382 0.59253 0.25595 0.0
H528 H 0.55823 0.93803 0.79345 0.0
H529 H 0.57656 0.96802 0.77844 0.0
H530 H 0.6203 0.95934 0.77104 0.0
H531 H 0.60185 0.92906 0.78564 0.0
H532 H 0.6067 0.99468 0.79922 0.0
H533 H 0.61863 0.97875 0.7005 0.0
H534 H 0.60209 0.96264 0.72138 0.0
H535 H 0.62471 0.96917 0.72609 0.0
C536 C 0.57174 0.94246 0.78857 0.0
C537 C 0.57858 0.93116 0.7906 0.0
C538 C 0.58221 0.95963 0.78005 0.0
C539 C 0.59974 0.96587 0.77333 0.0
C540 C 0.60672 0.9547 0.77565 0.0
H541 H 0.66986 0.0786 0.74782 0.0
H542 H 0.65751 0.04873 0.76443 0.0
C543 C 0.5962 0.93744 0.78412 0.0
C544 C 0.61055 0.98413 0.76411 0.0
H545 H 0.63246 0.00862 0.71168 0.0
C546 C 0.61244 0.99776 0.78014 0.0
C547 C 0.61788 0.98807 0.73912 0.0
C548 C 0.61564 0.97391 0.72063 0.0
C549 C 0.62117 0.01521 0.77173 0.0
C550 C 0.62854 0.01916 0.74677 0.0
C551 C 0.62692 0.00556 0.73088 0.0
C552 C 0.63683 0.03714 0.73608 0.0
C553 C 0.62177 0.02913 0.78926 0.0
C554 C 0.62968 0.04044 0.71415 0.0
C555 C 0.63679 0.05741 0.70451 0.0
C556 C 0.65122 0.07143 0.71661 0.0
C557 C 0.65866 0.06807 0.73821 0.0
C558 C 0.65157 0.05103 0.74779 0.0
H559 H 0.61212 0.02343 0.80517 0.0
H560 H 0.63499 0.03662 0.79793 0.0
H561 H 0.61917 0.03841 0.77837 0.0
H562 H 0.61833 0.02991 0.70477 0.0
H563 H 0.63079 0.05957 0.6878 0.0
H564 H 0.63945 0.58205 0.82162 0.0
H565 H 0.62723 0.59981 0.80582 0.0
H566 H 0.64995 0.60287 0.73122 0.0
H567 H 0.66215 0.585 0.74684 0.0
H568 H 0.64415 0.63408 0.78272 0.0
H569 H 0.59703 0.58224 0.71688 0.0
H570 H 0.60817 0.57779 0.74234 0.0
H571 H 0.61953 0.58803 0.71312 0.0
C572 C 0.64193 0.58658 0.80189 0.0
C573 C 0.65166 0.58204 0.7854 0.0
C574 C 0.63497 0.59675 0.79292 0.0
C575 C 0.6375 0.60245 0.76729 0.0
C576 C 0.64763 0.59837 0.75098 0.0
H577 H 0.59241 0.65343 0.6777 0.0
H578 H 0.61014 0.64094 0.69251 0.0
C579 C 0.65465 0.58823 0.75995 0.0
C580 C 0.62911 0.61225 0.75753 0.0
H581 H 0.59779 0.60929 0.71604 0.0
C582 C 0.63404 0.62871 0.7681 0.0
C583 C 0.61593 0.60518 0.73848 0.0
C584 C 0.6097 0.58729 0.72712 0.0
C585 C 0.6262 0.63836 0.75996 0.0
C586 C 0.61284 0.63118 0.74114 0.0
C587 C 0.60806 0.6148 0.73042 0.0
C588 C 0.60329 0.64017 0.73265 0.0
C589 C 0.63246 0.65625 0.77133 0.0
C590 C 0.59361 0.64397 0.7503 0.0
C591 C 0.58352 0.65118 0.7419 0.0
C592 C 0.58281 0.65456 0.71564 0.0
C593 C 0.59273 0.651 0.69806 0.0
C594 C 0.60284 0.64385 0.70649 0.0
H595 H 0.64585 0.66187 0.77943 0.0
H596 H 0.63247 0.66542 0.7567 0.0
H597 H 0.62356 0.65518 0.78718 0.0
H598 H 0.59343 0.64087 0.7705 0.0
H599 H 0.57592 0.65366 0.75587 0.0
H600 H 0.92522 0.59518 0.73954 0.0
H601 H 0.95531 0.61317 0.75504 0.0
H602 H 0.97186 0.58491 0.70559 0.0
H603 H 0.94203 0.56732 0.68951 0.0
H604 H 0.97526 0.60355 0.78056 0.0
H605 H 0.00827 0.63434 0.68915 0.0
H606 H 0.98477 0.62275 0.69245 0.0
H607 H 0.99622 0.61097 0.68657 0.0
C608 C 0.93534 0.59296 0.73178 0.0
C609 C 0.93131 0.57993 0.7132 0.0
C610 C 0.95251 0.60323 0.74066 0.0
C611 C 0.96593 0.60063 0.73113 0.0
C612 C 0.96187 0.58754 0.71268 0.0
H613 H 0.06182 0.62195 0.80365 0.0
H614 H 0.03186 0.61023 0.78842 0.0
C615 C 0.94476 0.57739 0.70364 0.0
C616 C 0.98399 0.61088 0.74147 0.0
H617 H 0.02683 0.63495 0.72346 0.0
C618 C 0.98652 0.6106 0.76809 0.0
C619 C 0.99869 0.62036 0.72531 0.0
C620 C 0.99685 0.6223 0.69683 0.0
C621 C 0.00336 0.6189 0.77884 0.0
C622 C 0.01809 0.62733 0.76246 0.0
C623 C 0.01555 0.62827 0.73599 0.0
C624 C 0.03623 0.63469 0.77224 0.0
C625 C 0.00516 0.61856 0.80767 0.0
C626 C 0.04882 0.65224 0.76761 0.0
C627 C 0.06607 0.65894 0.77604 0.0
C628 C 0.07101 0.64818 0.7892 0.0
C629 C 0.05838 0.63062 0.79378 0.0
C630 C 0.0412 0.62392 0.78523 0.0
H631 H 0.9933 0.61691 0.81765 0.0
H632 H 0.00683 0.60731 0.813 0.0
H633 H 0.01669 0.63074 0.81474 0.0
H634 H 0.04531 0.66075 0.75745 0.0
H635 H 0.07553 0.67251 0.77216 0.0
H636 H 0.44489 0.06371 0.79551 0.0
H637 H 0.42669 0.03374 0.78031 0.0
H638 H 0.384 0.04342 0.76739 0.0
H639 H 0.40236 0.07369 0.78211 0.0
H640 H 0.39579 0.00736 0.79866 0.0
H641 H 0.38786 0.02393 0.6983 0.0
H642 H 0.40361 0.03987 0.7202 0.0
H643 H 0.3809 0.03352 0.72271 0.0
C644 C 0.43163 0.05949 0.78942 0.0
C645 C 0.42508 0.07108 0.78987 0.0
C646 C 0.42124 0.04234 0.78077 0.0
C647 C 0.40407 0.03639 0.77238 0.0
C648 C 0.39734 0.04783 0.77327 0.0
H649 H 0.33346 0.92401 0.74551 0.0
H650 H 0.34575 0.95397 0.76167 0.0
C651 C 0.40779 0.06507 0.78182 0.0
C652 C 0.39338 0.01819 0.76283 0.0
H653 H 0.37304 0.994 0.7094 0.0
C654 C 0.39071 0.00441 0.77919 0.0
C655 C 0.38694 0.0144 0.73734 0.0
C656 C 0.39007 0.02868 0.71849 0.0
C657 C 0.38205 0.987 0.77066 0.0
C658 C 0.37552 0.9832 0.74521 0.0
C659 C 0.37794 0.99694 0.72896 0.0
C660 C 0.36722 0.9652 0.73454 0.0
C661 C 0.38063 0.97292 0.78866 0.0
C662 C 0.37481 0.96168 0.71333 0.0
C663 C 0.36771 0.94465 0.7039 0.0
C664 C 0.35287 0.9308 0.71551 0.0
C665 C 0.34498 0.9344 0.7363 0.0
C666 C 0.35204 0.95149 0.74564 0.0
H667 H 0.38987 0.97847 0.80508 0.0
H668 H 0.36717 0.96567 0.79658 0.0
H669 H 0.38327 0.96346 0.77835 0.0
H670 H 0.38649 0.97207 0.70441 0.0
H671 H 0.37407 0.9423 0.68782 0.0
H672 H 0.32967 0.39882 0.78943 0.0
H673 H 0.34163 0.38001 0.77679 0.0
H674 H 0.39117 0.42579 0.75954 0.0
H675 H 0.37951 0.44452 0.77241 0.0
H676 H 0.35677 0.37774 0.72997 0.0
H677 H 0.40462 0.39887 0.80968 0.0
H678 H 0.38659 0.40305 0.80954 0.0
H679 H 0.40624 0.41699 0.79179 0.0
C680 C 0.3431 0.40482 0.78291 0.0
C681 C 0.35371 0.42313 0.78214 0.0
C682 C 0.3499 0.39409 0.77571 0.0
C683 C 0.36739 0.40153 0.76776 0.0
C684 C 0.37777 0.41978 0.76623 0.0
H685 H 0.44251 0.37942 0.70555 0.0
H686 H 0.42401 0.39062 0.72161 0.0
C687 C 0.37105 0.43047 0.77348 0.0
C688 C 0.37503 0.39045 0.7609 0.0
H689 H 0.40991 0.38499 0.77383 0.0
C690 C 0.3682 0.37905 0.7398 0.0
C691 C 0.38985 0.39209 0.77391 0.0
C692 C 0.39715 0.40328 0.79766 0.0
C693 C 0.37648 0.37008 0.73043 0.0
C694 C 0.39186 0.37252 0.74262 0.0
C695 C 0.39818 0.38327 0.76441 0.0
C696 C 0.40243 0.36523 0.73199 0.0
C697 C 0.36929 0.35873 0.70685 0.0
C698 C 0.39639 0.34719 0.73251 0.0
C699 C 0.407 0.34072 0.72336 0.0
C700 C 0.42378 0.35221 0.7136 0.0
C701 C 0.42966 0.37022 0.71293 0.0
C702 C 0.41911 0.37665 0.72211 0.0
H703 H 0.35855 0.35995 0.69777 0.0
H704 H 0.37983 0.36224 0.69245 0.0
H705 H 0.36412 0.34485 0.71228 0.0
H706 H 0.38363 0.33819 0.74036 0.0
H707 H 0.40215 0.32678 0.72417 0.0
H708 H 0.0605 0.42184 0.67583 0.0
H709 H 0.03054 0.40432 0.69191 0.0
H710 H 0.05034 0.40148 0.76646 0.0
H711 H 0.08038 0.41903 0.75056 0.0
H712 H 0.01345 0.3697 0.71658 0.0
H713 H 0.0181 0.42292 0.77937 0.0
H714 H 0.03328 0.42696 0.75344 0.0
H715 H 0.03511 0.41752 0.78303 0.0
C716 C 0.05848 0.4174 0.69561 0.0
C717 C 0.07278 0.42189 0.71199 0.0
C718 C 0.04137 0.40737 0.70473 0.0
C719 C 0.03827 0.40179 0.73041 0.0
C720 C 0.0525 0.40586 0.74665 0.0
H721 H 0.94272 0.35329 0.82128 0.0
H722 H 0.9729 0.36554 0.80641 0.0
C723 C 0.06963 0.41582 0.73751 0.0
C724 C 0.02013 0.39213 0.74035 0.0
H725 H 0.99184 0.39592 0.78095 0.0
C726 C 0.00868 0.37537 0.73069 0.0
C727 C 0.01403 0.39961 0.75877 0.0
C728 C 0.02568 0.41779 0.7692 0.0
C729 C 0.99126 0.36579 0.73916 0.0
C730 C 0.98506 0.37337 0.75731 0.0
C731 C 0.9966 0.39009 0.7671 0.0
C732 C 0.96657 0.36449 0.766 0.0
C733 C 0.97977 0.34754 0.7289 0.0
C734 C 0.95294 0.35974 0.74823 0.0
C735 C 0.93566 0.35261 0.75667 0.0
C736 C 0.93173 0.35033 0.78307 0.0
C737 C 0.94534 0.35487 0.80081 0.0
C738 C 0.9626 0.36189 0.79235 0.0
H739 H 0.98764 0.34177 0.72176 0.0
H740 H 0.97059 0.33878 0.74386 0.0
H741 H 0.97198 0.34804 0.71252 0.0
H742 H 0.95572 0.36203 0.72786 0.0
H743 H 0.92547 0.34938 0.74256 0.0
H744 H 0.47624 0.18281 0.20701 0.0
H745 H 0.4737 0.20784 0.22124 0.0
H746 H 0.41924 0.17346 0.23911 0.0
H747 H 0.42175 0.14825 0.22521 0.0
H748 H 0.45182 0.21958 0.20232 0.0
H749 H 0.43856 0.2015 0.30568 0.0
H750 H 0.44681 0.19129 0.28411 0.0
H751 H 0.42409 0.18506 0.28339 0.0
C752 C 0.46373 0.18055 0.21406 0.0
C753 C 0.44921 0.16356 0.21511 0.0
C754 C 0.4623 0.19487 0.22214 0.0
C755 C 0.44635 0.19249 0.23153 0.0
C756 C 0.43176 0.17555 0.23238 0.0
H757 H 0.42183 0.27079 0.29098 0.0
H758 H 0.41927 0.24343 0.275 0.0
C759 C 0.43319 0.16118 0.22432 0.0
C760 C 0.44509 0.20787 0.23996 0.0
H761 H 0.4382 0.2269 0.29249 0.0
C762 C 0.44879 0.22116 0.22202 0.0
C763 C 0.44105 0.20985 0.26564 0.0
C764 C 0.43753 0.19626 0.28593 0.0
C765 C 0.44873 0.23646 0.22911 0.0
C766 C 0.44511 0.23863 0.25491 0.0
C767 C 0.44096 0.22517 0.27272 0.0
C768 C 0.44648 0.25517 0.26407 0.0
C769 C 0.45252 0.25019 0.20892 0.0
C770 C 0.46266 0.27074 0.26344 0.0
C771 C 0.46417 0.28631 0.27258 0.0
C772 C 0.44952 0.28659 0.2826 0.0
C773 C 0.43332 0.27097 0.28328 0.0
C774 C 0.43184 0.25535 0.2742 0.0
H775 H 0.45028 0.24464 0.18919 0.0
H776 H 0.44427 0.25627 0.2118 0.0
H777 H 0.46643 0.26061 0.21037 0.0
H778 H 0.47419 0.27081 0.25614 0.0
H779 H 0.47684 0.29811 0.27191 0.0
H780 H 0.15081 0.42294 0.27526 0.0
H781 H 0.17638 0.42098 0.26164 0.0
H782 H 0.2098 0.47581 0.27814 0.0
H783 H 0.18442 0.47784 0.29198 0.0
H784 H 0.20057 0.43961 0.22241 0.0
H785 H 0.23323 0.45281 0.31745 0.0
H786 H 0.21058 0.44688 0.31383 0.0
H787 H 0.22768 0.46898 0.3079 0.0
C788 C 0.16362 0.43455 0.27606 0.0
C789 C 0.16563 0.45053 0.28481 0.0
C790 C 0.1782 0.43341 0.26827 0.0
C791 C 0.19501 0.44818 0.2693 0.0
C792 C 0.19699 0.46417 0.27772 0.0
H793 H 0.30009 0.47818 0.22599 0.0
H794 H 0.27281 0.47583 0.2413 0.0
C795 C 0.18246 0.46533 0.28548 0.0
C796 C 0.21048 0.44707 0.26092 0.0
H797 H 0.2504 0.45437 0.28104 0.0
C798 C 0.21139 0.44263 0.23526 0.0
C799 C 0.22455 0.45101 0.27777 0.0
C800 C 0.22395 0.45503 0.30584 0.0
C801 C 0.22632 0.44269 0.22574 0.0
C802 C 0.24056 0.44704 0.24247 0.0
C803 C 0.23948 0.4511 0.26825 0.0
C804 C 0.257 0.44816 0.23335 0.0
C805 C 0.227 0.43873 0.19767 0.0
C806 C 0.25718 0.43331 0.22411 0.0
C807 C 0.27279 0.43461 0.21534 0.0
C808 C 0.28845 0.45078 0.21576 0.0
C809 C 0.28823 0.46556 0.22536 0.0
C810 C 0.27267 0.46424 0.23414 0.0
H811 H 0.21664 0.43932 0.18632 0.0
H812 H 0.23993 0.44807 0.18926 0.0
H813 H 0.22508 0.42537 0.19578 0.0
H814 H 0.24528 0.42072 0.22376 0.0
H815 H 0.27257 0.42299 0.20815 0.0
H816 H 0.71774 0.15226 0.25293 0.0
H817 H 0.74502 0.17726 0.23736 0.0
H818 H 0.74164 0.20978 0.29638 0.0
H819 H 0.71457 0.18486 0.31223 0.0
H820 H 0.75076 0.20916 0.21896 0.0
H821 H 0.79133 0.21855 0.30532 0.0
H822 H 0.7706 0.19892 0.29994 0.0
H823 H 0.77129 0.21826 0.31239 0.0
C824 C 0.72287 0.16472 0.26264 0.0
C825 C 0.71407 0.16659 0.28387 0.0
C826 C 0.73844 0.17898 0.25373 0.0
C827 C 0.74551 0.1953 0.26599 0.0
C828 C 0.73663 0.19721 0.28701 0.0
H829 H 0.81843 0.29811 0.20893 0.0
H830 H 0.79293 0.27085 0.22297 0.0
C831 C 0.7211 0.18299 0.29593 0.0
C832 C 0.76186 0.21049 0.25633 0.0
H833 H 0.80292 0.24178 0.27461 0.0
C834 C 0.76222 0.21622 0.23104 0.0
C835 C 0.77688 0.21953 0.27202 0.0
C836 C 0.77763 0.21342 0.29884 0.0
C837 C 0.777 0.23109 0.22128 0.0
C838 C 0.7917 0.24062 0.23739 0.0
C839 C 0.79156 0.23456 0.26239 0.0
C840 C 0.8072 0.25711 0.22884 0.0
C841 C 0.77678 0.2364 0.19377 0.0
C842 C 0.82379 0.25859 0.22813 0.0
C843 C 0.83843 0.27421 0.22026 0.0
C844 C 0.83673 0.28865 0.21313 0.0
C845 C 0.82014 0.28718 0.21416 0.0
C846 C 0.80553 0.27158 0.22202 0.0
H847 H 0.76692 0.22528 0.18212 0.0
H848 H 0.77333 0.24689 0.19338 0.0
H849 H 0.7898 0.24152 0.18462 0.0
H850 H 0.82537 0.2476 0.2335 0.0
H851 H 0.85105 0.27496 0.21973 0.0
H852 H 0.57861 0.85176 0.22401 0.0
H853 H 0.58009 0.82588 0.23725 0.0
H854 H 0.5244 0.79379 0.22625 0.0
H855 H 0.52286 0.81948 0.21267 0.0
H856 H 0.56332 0.80297 0.2778 0.0
H857 H 0.54355 0.76793 0.18454 0.0
H858 H 0.55023 0.7908 0.18764 0.0
H859 H 0.5284 0.77426 0.1963 0.0
C860 C 0.5667 0.83917 0.22434 0.0
C861 C 0.55063 0.83762 0.21716 0.0
C862 C 0.56757 0.82441 0.23191 0.0
C863 C 0.55241 0.80787 0.23229 0.0
C864 C 0.53632 0.80636 0.22552 0.0
H865 H 0.5227 0.7031 0.27839 0.0
H866 H 0.52449 0.7303 0.26383 0.0
C867 C 0.53545 0.82107 0.21791 0.0
C868 C 0.55328 0.79221 0.24037 0.0
H869 H 0.54357 0.7514 0.2208 0.0
C870 C 0.55917 0.79175 0.26528 0.0
C871 C 0.5479 0.77762 0.22394 0.0
C872 C 0.54232 0.77769 0.19653 0.0
C873 C 0.55925 0.77684 0.27453 0.0
C874 C 0.55349 0.76212 0.25828 0.0
C875 C 0.5479 0.76269 0.23323 0.0
C876 C 0.55264 0.74577 0.26716 0.0
C877 C 0.56494 0.77672 0.30185 0.0
C878 C 0.56792 0.74544 0.2736 0.0
C879 C 0.56694 0.7299 0.2819 0.0
C880 C 0.55066 0.71444 0.28383 0.0
C881 C 0.53542 0.71481 0.27716 0.0
C882 C 0.53642 0.73032 0.26882 0.0
H883 H 0.56549 0.78758 0.31341 0.0
H884 H 0.55591 0.76413 0.31142 0.0
H885 H 0.57819 0.77822 0.30173 0.0
H886 H 0.58059 0.75717 0.27205 0.0
H887 H 0.5789 0.72999 0.28681 0.0
H888 H 0.71671 0.5666 0.24642 0.0
H889 H 0.74405 0.56886 0.2616 0.0
H890 H 0.73912 0.53111 0.20469 0.0
H891 H 0.71196 0.52896 0.1892 0.0
H892 H 0.74975 0.5431 0.28146 0.0
H893 H 0.78884 0.57128 0.19286 0.0
H894 H 0.76832 0.57058 0.19847 0.0
H895 H 0.76857 0.55144 0.18727 0.0
C896 C 0.7215 0.55883 0.23708 0.0
C897 C 0.71224 0.54766 0.21653 0.0
C898 C 0.7371 0.56014 0.24578 0.0
C899 C 0.74377 0.55038 0.23399 0.0
C900 C 0.73443 0.53906 0.21368 0.0
H901 H 0.81742 0.5219 0.29274 0.0
H902 H 0.79173 0.5233 0.27873 0.0
C903 C 0.71885 0.53776 0.20496 0.0
C904 C 0.76021 0.55162 0.24341 0.0
H905 H 0.8009 0.56062 0.22432 0.0
C906 C 0.76099 0.54705 0.26903 0.0
C907 C 0.77494 0.55702 0.22727 0.0
C908 C 0.77525 0.56303 0.20001 0.0
C909 C 0.77591 0.54723 0.27873 0.0
C910 C 0.79032 0.55182 0.26223 0.0
C911 C 0.78976 0.55692 0.23685 0.0
C912 C 0.80596 0.55108 0.2708 0.0
C913 C 0.77615 0.54258 0.3066 0.0
C914 C 0.82257 0.56615 0.27036 0.0
C915 C 0.83733 0.56536 0.27821 0.0
C916 C 0.83571 0.54946 0.28648 0.0
C917 C 0.81908 0.53436 0.28663 0.0
C918 C 0.80436 0.53516 0.27878 0.0
H919 H 0.76652 0.54428 0.31819 0.0
H920 H 0.77266 0.52867 0.30797 0.0
H921 H 0.78934 0.55073 0.31514 0.0
H922 H 0.8241 0.57854 0.26409 0.0
H923 H 0.84998 0.5772 0.27782 0.0
H924 H 0.18377 0.71215 0.18798 0.0
H925 H 0.20912 0.73877 0.20412 0.0
H926 H 0.17691 0.74341 0.26241 0.0
H927 H 0.15147 0.7166 0.24655 0.0
H928 H 0.21411 0.77242 0.20825 0.0
H929 H 0.2178 0.74624 0.30378 0.0
H930 H 0.20482 0.7323 0.27768 0.0
H931 H 0.19696 0.74412 0.29628 0.0
C932 C 0.18208 0.7188 0.20428 0.0
C933 C 0.16565 0.71224 0.21609 0.0
C934 C 0.19657 0.73403 0.21345 0.0
C935 C 0.19495 0.74295 0.23465 0.0
C936 C 0.17852 0.73655 0.24631 0.0
H937 H 0.27401 0.84891 0.28059 0.0
H938 H 0.24703 0.82318 0.2659 0.0
C939 C 0.16399 0.72129 0.23716 0.0
C940 C 0.21049 0.75902 0.24428 0.0
H941 H 0.23732 0.77632 0.29637 0.0
C942 C 0.21917 0.77331 0.22754 0.0
C943 C 0.21716 0.76004 0.26935 0.0
C944 C 0.20883 0.74483 0.28779 0.0
C945 C 0.23436 0.78863 0.23518 0.0
C946 C 0.24088 0.78976 0.26039 0.0
C947 C 0.2322 0.77546 0.27713 0.0
C948 C 0.25708 0.80539 0.26945 0.0
C949 C 0.24357 0.80328 0.216 0.0
C950 C 0.27154 0.80384 0.27682 0.0
C951 C 0.2869 0.81847 0.28532 0.0
C952 C 0.28807 0.83492 0.28673 0.0
C953 C 0.27353 0.83643 0.27956 0.0
C954 C 0.25814 0.82176 0.27106 0.0
H955 H 0.2393 0.79879 0.19597 0.0
H956 H 0.24053 0.81377 0.22038 0.0
H957 H 0.25797 0.80898 0.21717 0.0
H958 H 0.27097 0.79131 0.27579 0.0
H959 H 0.29787 0.81688 0.29076 0.0
H960 H 0.53039 0.71381 0.6882 0.0
H961 H 0.53191 0.74091 0.70239 0.0
H962 H 0.57584 0.75198 0.75103 0.0
H963 H 0.57466 0.72502 0.73638 0.0
H964 H 0.52755 0.7495 0.75026 0.0
H965 H 0.59335 0.79833 0.71453 0.0
H966 H 0.58231 0.77577 0.70432 0.0
H967 H 0.59344 0.78191 0.73478 0.0
C968 C 0.54049 0.7221 0.70173 0.0
C969 C 0.55244 0.71732 0.71115 0.0
C970 C 0.54133 0.73758 0.70983 0.0
C971 C 0.55412 0.74861 0.72752 0.0
C972 C 0.56612 0.7439 0.73692 0.0
H973 H 0.54595 0.82492 0.82271 0.0
H974 H 0.54756 0.79992 0.80586 0.0
C975 C 0.56536 0.72843 0.72867 0.0
C976 C 0.55418 0.76449 0.73708 0.0
H977 H 0.57947 0.80885 0.74293 0.0
C978 C 0.53889 0.76248 0.74856 0.0
C979 C 0.56891 0.78145 0.73457 0.0
C980 C 0.58538 0.78457 0.72116 0.0
C981 C 0.53796 0.7769 0.75788 0.0
C982 C 0.55289 0.79379 0.75625 0.0
C983 C 0.56811 0.79587 0.74441 0.0
C984 C 0.55286 0.80943 0.76666 0.0
C985 C 0.52088 0.77393 0.76897 0.0
C986 C 0.55596 0.82339 0.75041 0.0
C987 C 0.55522 0.83781 0.76006 0.0
C988 C 0.5514 0.83849 0.78614 0.0
C989 C 0.54876 0.8247 0.80248 0.0
C990 C 0.54959 0.81036 0.79286 0.0
H991 H 0.50965 0.76138 0.76225 0.0
H992 H 0.5214 0.77339 0.79025 0.0
H993 H 0.51845 0.78472 0.76368 0.0
H994 H 0.55861 0.82297 0.73016 0.0
H995 H 0.55737 0.84828 0.74704 0.0
H996 H 0.72954 0.57912 0.78476 0.0
H997 H 0.75651 0.58069 0.76903 0.0
H998 H 0.73016 0.52441 0.76519 0.0
H999 H 0.70323 0.52271 0.78082 0.0
H1000 H 0.77515 0.5647 0.79163 0.0
H1001 H 0.75187 0.54093 0.6926 0.0
H1002 H 0.74125 0.54918 0.71342 0.0
H1003 H 0.73752 0.52739 0.71774 0.0
C1004 C 0.7295 0.56709 0.78049 0.0
C1005 C 0.71426 0.55079 0.78392 0.0
C1006 C 0.7449 0.56802 0.77155 0.0
C1007 C 0.74524 0.55268 0.76564 0.0
C1008 C 0.73008 0.5364 0.76924 0.0
H1009 H 0.81881 0.52289 0.7121 0.0
H1010 H 0.79352 0.52473 0.72702 0.0
C1011 C 0.71473 0.53546 0.77828 0.0
C1012 C 0.76149 0.55357 0.75619 0.0
H1013 H 0.77856 0.5427 0.70524 0.0
C1014 C 0.776 0.56005 0.77267 0.0
C1015 C 0.7625 0.54747 0.73146 0.0
C1016 C 0.74753 0.54098 0.71264 0.0
C1017 C 0.79132 0.56004 0.76538 0.0
C1018 C 0.79224 0.5537 0.74076 0.0
C1019 C 0.77782 0.54752 0.72413 0.0
C1020 C 0.80779 0.55281 0.73211 0.0
C1021 C 0.80613 0.56621 0.78444 0.0
C1022 C 0.82421 0.56802 0.72982 0.0
C1023 C 0.83873 0.567 0.72138 0.0
C1024 C 0.83703 0.55076 0.71488 0.0
C1025 C 0.82055 0.53559 0.71701 0.0
C1026 C 0.80608 0.53661 0.72549 0.0
H1027 H 0.80177 0.56656 0.80436 0.0
H1028 H 0.81198 0.55762 0.78409 0.0
H1029 H 0.81649 0.57965 0.77925 0.0
H1030 H 0.82576 0.58069 0.73431 0.0
H1031 H 0.85125 0.57892 0.71978 0.0
H1032 H 0.27609 0.85021 0.72756 0.0
H1033 H 0.249 0.82436 0.74173 0.0
H1034 H 0.26966 0.79129 0.71878 0.0
H1035 H 0.29667 0.817 0.7044 0.0
H1036 H 0.23493 0.7792 0.7025 0.0
H1037 H 0.24377 0.79532 0.80675 0.0
H1038 H 0.24498 0.81222 0.78612 0.0
H1039 H 0.26136 0.80589 0.78379 0.0
C1040 C 0.27485 0.83743 0.72556 0.0
C1041 C 0.28852 0.83563 0.71498 0.0
C1042 C 0.25941 0.82269 0.73375 0.0
C1043 C 0.25743 0.80595 0.73158 0.0
C1044 C 0.27096 0.80411 0.72069 0.0
H1045 H 0.18487 0.70933 0.80642 0.0
H1046 H 0.21025 0.73607 0.79062 0.0
C1047 C 0.28639 0.81881 0.71254 0.0
C1048 C 0.24125 0.79027 0.74055 0.0
H1049 H 0.21721 0.77047 0.7943 0.0
C1050 C 0.231 0.77729 0.72255 0.0
C1051 C 0.2363 0.78775 0.76676 0.0
C1052 C 0.24722 0.80093 0.78707 0.0
C1053 C 0.2159 0.76184 0.73007 0.0
C1054 C 0.21081 0.75944 0.75623 0.0
C1055 C 0.22107 0.77242 0.77422 0.0
C1056 C 0.19528 0.74324 0.76554 0.0
C1057 C 0.20579 0.74803 0.71007 0.0
C1058 C 0.17842 0.73846 0.75683 0.0
C1059 C 0.16388 0.72314 0.76579 0.0
C1060 C 0.16596 0.7124 0.78372 0.0
C1061 C 0.18284 0.71731 0.79256 0.0
C1062 C 0.19735 0.7326 0.7836 0.0
H1063 H 0.21359 0.75008 0.69232 0.0
H1064 H 0.20161 0.73476 0.7177 0.0
H1065 H 0.19388 0.74854 0.70475 0.0
H1066 H 0.1765 0.74666 0.74326 0.0
H1067 H 0.15102 0.71975 0.75875 0.0
H1068 H 0.46695 0.28528 0.68164 0.0
H1069 H 0.46563 0.25839 0.69647 0.0
H1070 H 0.43983 0.25998 0.76602 0.0
H1071 H 0.44086 0.28683 0.7511 0.0
H1072 H 0.48042 0.25368 0.73994 0.0
H1073 H 0.40841 0.2098 0.74106 0.0
H1074 H 0.41883 0.23069 0.72489 0.0
H1075 H 0.41592 0.22961 0.75919 0.0
C1076 C 0.46089 0.27986 0.70003 0.0
C1077 C 0.45397 0.28814 0.71519 0.0
C1078 C 0.46016 0.26449 0.70847 0.0
C1079 C 0.45244 0.25705 0.73219 0.0
C1080 C 0.44553 0.2653 0.74742 0.0
H1081 H 0.46932 0.18259 0.81823 0.0
H1082 H 0.46818 0.20817 0.80288 0.0
C1083 C 0.44622 0.28069 0.73895 0.0
C1084 C 0.45233 0.24108 0.74131 0.0
H1085 H 0.42548 0.19869 0.75972 0.0
C1086 C 0.46841 0.24164 0.74422 0.0
C1087 C 0.43663 0.22533 0.74655 0.0
C1088 C 0.41895 0.22369 0.74256 0.0
C1089 C 0.46925 0.22696 0.75255 0.0
C1090 C 0.45358 0.21138 0.75858 0.0
C1091 C 0.43748 0.21071 0.7553 0.0
C1092 C 0.4537 0.19564 0.76827 0.0
C1093 C 0.48689 0.22819 0.75441 0.0
C1094 C 0.44549 0.17994 0.75429 0.0
C1095 C 0.44602 0.16524 0.7631 0.0
C1096 C 0.45472 0.16599 0.78612 0.0
C1097 C 0.46263 0.18163 0.80033 0.0
C1098 C 0.46206 0.19629 0.79153 0.0
H1099 H 0.49692 0.2392 0.74277 0.0
H1100 H 0.49128 0.23047 0.77475 0.0
H1101 H 0.48619 0.21588 0.74788 0.0
H1102 H 0.43889 0.17915 0.73635 0.0
H1103 H 0.43976 0.15334 0.7518 0.0
H1104 H 0.18623 0.4777 0.69281 0.0
H1105 H 0.21201 0.47615 0.70593 0.0
H1106 H 0.17877 0.42625 0.74198 0.0
H1107 H 0.15288 0.4275 0.72825 0.0
H1108 H 0.2232 0.47509 0.75317 0.0
H1109 H 0.21073 0.4155 0.70012 0.0
H1110 H 0.19864 0.42662 0.69391 0.0
H1111 H 0.19299 0.41196 0.72083 0.0
C1112 C 0.18441 0.46634 0.70338 0.0
C1113 C 0.16754 0.45269 0.70943 0.0
C1114 C 0.19915 0.46547 0.71086 0.0
C1115 C 0.19734 0.45096 0.72458 0.0
C1116 C 0.18049 0.43736 0.73084 0.0
H1117 H 0.27927 0.45172 0.81753 0.0
H1118 H 0.25286 0.45084 0.80138 0.0
C1119 C 0.16571 0.43815 0.72316 0.0
C1120 C 0.21314 0.45052 0.73328 0.0
H1121 H 0.23353 0.42629 0.7314 0.0
C1122 C 0.22549 0.46445 0.7483 0.0
C1123 C 0.21625 0.43676 0.72663 0.0
C1124 C 0.20405 0.42195 0.70927 0.0
C1125 C 0.24071 0.46489 0.75717 0.0
C1126 C 0.24346 0.45078 0.75144 0.0
C1127 C 0.23129 0.43698 0.73604 0.0
C1128 C 0.25895 0.45019 0.76121 0.0
C1129 C 0.25384 0.48065 0.77221 0.0
C1130 C 0.2708 0.44935 0.74404 0.0
C1131 C 0.28583 0.44962 0.75326 0.0
C1132 C 0.28924 0.45073 0.7798 0.0
C1133 C 0.27708 0.45103 0.79696 0.0
C1134 C 0.26203 0.45064 0.78775 0.0
H1135 H 0.25234 0.49223 0.76852 0.0
H1136 H 0.25178 0.47768 0.79308 0.0
H1137 H 0.26744 0.4841 0.76735 0.0
H1138 H 0.26861 0.44887 0.72349 0.0
H1139 H 0.29495 0.44933 0.7396 0.0
H1140 H 0.85266 0.27522 0.77813 0.0
H1141 H 0.82732 0.24809 0.76281 0.0
H1142 H 0.79511 0.27191 0.76922 0.0
H1143 H 0.82033 0.29904 0.78429 0.0
H1144 H 0.79482 0.22699 0.78785 0.0
H1145 H 0.78632 0.25302 0.69521 0.0
H1146 H 0.80613 0.26417 0.71399 0.0
H1147 H 0.78726 0.26576 0.72271 0.0
C1148 C 0.84019 0.27468 0.77616 0.0
C1149 C 0.83849 0.28928 0.78227 0.0
C1150 C 0.82574 0.25918 0.76746 0.0
C1151 C 0.80942 0.25809 0.76452 0.0
C1152 C 0.80767 0.27259 0.77087 0.0
H1153 H 0.7045 0.18185 0.72148 0.0
H1154 H 0.73169 0.20741 0.73555 0.0
C1155 C 0.82207 0.28805 0.77959 0.0
C1156 C 0.79407 0.2417 0.75535 0.0
H1157 H 0.76303 0.22521 0.7082 0.0
C1158 C 0.78794 0.22652 0.77031 0.0
C1159 C 0.78517 0.24116 0.73245 0.0
C1160 C 0.79162 0.25685 0.715 0.0
C1161 C 0.77274 0.21094 0.76346 0.0
C1162 C 0.76364 0.2105 0.74082 0.0
C1163 C 0.76999 0.2256 0.72561 0.0
C1164 C 0.74718 0.19471 0.73292 0.0
C1165 C 0.7662 0.19527 0.78096 0.0
C1166 C 0.74689 0.1791 0.72666 0.0
C1167 C 0.73133 0.16442 0.71865 0.0
C1168 C 0.71585 0.16518 0.71663 0.0
C1169 C 0.71621 0.18085 0.72289 0.0
C1170 C 0.73173 0.19547 0.73089 0.0
H1171 H 0.77231 0.19891 0.80032 0.0
H1172 H 0.75177 0.18868 0.78319 0.0
H1173 H 0.76947 0.18574 0.77241 0.0
H1174 H 0.75874 0.17833 0.72763 0.0
H1175 H 0.73147 0.15256 0.71381 0.0
H1176 H 0.42243 0.11152 0.11004 0.0
H1177 H 0.42049 0.11051 0.06293 0.0
H1178 H 0.4767 0.13607 0.05786 0.0
H1179 H 0.47875 0.13698 0.10477 0.0
H1180 H 0.43569 0.13789 0.02564 0.0
H1181 H 0.45973 0.09093 0.0157 0.0
H1182 H 0.45223 0.09485 0.04595 0.0
H1183 H 0.47385 0.10992 0.03443 0.0
C1184 C 0.43436 0.11699 0.09885 0.0
C1185 C 0.45074 0.12421 0.11106 0.0
C1186 C 0.43323 0.1164 0.07199 0.0
C1187 C 0.44843 0.12293 0.05698 0.0
C1188 C 0.4648 0.13064 0.06913 0.0
H1189 H 0.47981 0.13575 0.89955 0.0
H1190 H 0.47685 0.1353 0.94627 0.0
C1191 C 0.46595 0.13123 0.09593 0.0
C1192 C 0.4473 0.12155 0.02858 0.0
H1193 H 0.45852 0.10504 0.97735 0.0
C1194 C 0.44049 0.13057 0.01503 0.0
C1195 C 0.45348 0.11188 0.01488 0.0
C1196 C 0.46008 0.1012 0.02846 0.0
C1197 C 0.44043 0.1308 0.988 0.0
C1198 C 0.44714 0.12158 0.97433 0.0
C1199 C 0.45347 0.11217 0.98792 0.0
C1200 C 0.44859 0.1222 0.94594 0.0
C1201 C 0.43383 0.14142 0.97427 0.0
C1202 C 0.43364 0.11491 0.93027 0.0
C1203 C 0.43529 0.11513 0.90346 0.0
C1204 C 0.45191 0.12261 0.892 0.0
C1205 C 0.46682 0.12991 0.90779 0.0
C1206 C 0.46516 0.12966 0.93449 0.0
H1207 H 0.43224 0.15039 0.98754 0.0
H1208 H 0.44291 0.14925 0.95856 0.0
H1209 H 0.42092 0.13246 0.96551 0.0
H1210 H 0.42071 0.10883 0.93877 0.0
H1211 H 0.42357 0.10936 0.89175 0.0
H1212 H 0.33803 0.47917 0.89392 0.0
H1213 H 0.33578 0.47705 0.9408 0.0
H1214 H 0.32271 0.42306 0.93673 0.0
H1215 H 0.32514 0.42513 0.88972 0.0
H1216 H 0.30684 0.45429 0.9713 0.0
H1217 H 0.36379 0.4448 0.98774 0.0
H1218 H 0.36013 0.45252 0.95752 0.0
H1219 H 0.34766 0.42972 0.96561 0.0
C1220 C 0.33472 0.46685 0.90299 0.0
C1221 C 0.33185 0.45233 0.88817 0.0
C1222 C 0.33341 0.46566 0.92977 0.0
C1223 C 0.32929 0.44997 0.94223 0.0
C1224 C 0.3262 0.43538 0.92749 0.0
H1225 H 0.32213 0.42456 0.10553 0.0
H1226 H 0.32047 0.42287 0.0585 0.0
C1227 C 0.32752 0.43655 0.90066 0.0
C1228 C 0.32813 0.44897 0.97066 0.0
H1229 H 0.34714 0.44331 0.02418 0.0
C1230 C 0.31563 0.45187 0.98289 0.0
C1231 C 0.33959 0.44576 0.98567 0.0
C1232 C 0.35366 0.44316 0.97356 0.0
C1233 C 0.31426 0.45162 0.0098 0.0
C1234 C 0.32591 0.44871 0.02483 0.0
C1235 C 0.33822 0.44553 0.01259 0.0
C1236 C 0.32596 0.44946 0.0533 0.0
C1237 C 0.30025 0.45433 0.02189 0.0
C1238 C 0.32964 0.46498 0.06593 0.0
C1239 C 0.33056 0.46598 0.09276 0.0
C1240 C 0.32795 0.45149 0.10742 0.0
C1241 C 0.32415 0.43592 0.09474 0.0
C1242 C 0.32322 0.43494 0.0679 0.0
H1243 H 0.2895 0.45141 0.00814 0.0
H1244 H 0.29463 0.44596 0.03918 0.0
H1245 H 0.30606 0.46819 0.0279 0.0
H1246 H 0.33216 0.47646 0.05501 0.0
H1247 H 0.33362 0.47818 0.10198 0.0
H1248 H 0.89256 0.35946 0.8952 0.0
H1249 H 0.89171 0.35729 0.9421 0.0
H1250 H 0.86861 0.3013 0.93664 0.0
H1251 H 0.86958 0.30338 0.88956 0.0
H1252 H 0.86171 0.33818 0.97294 0.0
H1253 H 0.90988 0.31574 0.98662 0.0
H1254 H 0.90814 0.32534 0.9569 0.0
H1255 H 0.89233 0.3031 0.96458 0.0
C1256 C 0.8874 0.34669 0.90396 0.0
C1257 C 0.88118 0.33159 0.88872 0.0
C1258 C 0.88691 0.34547 0.93075 0.0
C1259 C 0.88028 0.32916 0.94281 0.0
C1260 C 0.87406 0.31404 0.92768 0.0
H1261 H 0.8689 0.30331 0.10689 0.0
H1262 H 0.86803 0.30145 0.05977 0.0
C1263 C 0.87454 0.31524 0.90082 0.0
C1264 C 0.8794 0.32807 0.97125 0.0
H1265 H 0.89572 0.31788 0.02385 0.0
C1266 C 0.86912 0.33372 0.98408 0.0
C1267 C 0.88899 0.32212 0.98568 0.0
C1268 C 0.90058 0.31634 0.97284 0.0
C1269 C 0.86825 0.33369 0.01101 0.0
C1270 C 0.87819 0.32818 0.02548 0.0
C1271 C 0.88815 0.32214 0.01266 0.0
C1272 C 0.87893 0.32925 0.05392 0.0
C1273 C 0.85662 0.33948 0.02375 0.0
C1274 C 0.88563 0.34552 0.06615 0.0
C1275 C 0.88613 0.34662 0.09295 0.0
C1276 C 0.88004 0.33147 0.10803 0.0
C1277 C 0.87363 0.3152 0.09576 0.0
C1278 C 0.87314 0.31412 0.06888 0.0
H1279 H 0.84634 0.33852 0.01042 0.0
H1280 H 0.85021 0.33151 0.04113 0.0
H1281 H 0.86466 0.35334 0.02975 0.0
H1282 H 0.89051 0.35739 0.05493 0.0
H1283 H 0.89125 0.35935 0.10184 0.0
H1284 H 0.57592 0.87738 0.11375 0.0
H1285 H 0.57933 0.87816 0.06683 0.0
H1286 H 0.53709 0.88902 0.05834 0.0
H1287 H 0.53367 0.88837 0.10503 0.0
H1288 H 0.55403 0.85706 0.03 0.0
H1289 H 0.57659 0.92732 0.01483 0.0
H1290 H 0.57689 0.91842 0.04598 0.0
H1291 H 0.55689 0.9162 0.03349 0.0
C1292 C 0.56743 0.88003 0.10186 0.0
C1293 C 0.55457 0.88288 0.11304 0.0
C1294 C 0.5694 0.88046 0.07511 0.0
C1295 C 0.55864 0.88392 0.05918 0.0
C1296 C 0.54575 0.88669 0.07032 0.0
H1297 H 0.52674 0.86025 0.90253 0.0
H1298 H 0.53052 0.86117 0.94915 0.0
C1299 C 0.54375 0.8862 0.09699 0.0
C1300 C 0.56034 0.88398 0.03084 0.0
H1301 H 0.56653 0.909 0.97754 0.0
C1302 C 0.55697 0.86847 0.01851 0.0
C1303 C 0.56442 0.89895 0.01594 0.0
C1304 C 0.56908 0.91623 0.02822 0.0
C1305 C 0.5568 0.8673 0.99158 0.0
C1306 C 0.55985 0.88196 0.97667 0.0
C1307 C 0.56402 0.89771 0.98902 0.0
C1308 C 0.55791 0.881 0.94833 0.0
C1309 C 0.55322 0.85033 0.97931 0.0
C1310 C 0.57199 0.89209 0.93242 0.0
C1311 C 0.56985 0.89164 0.90572 0.0
C1312 C 0.55354 0.88021 0.89455 0.0
C1313 C 0.53949 0.86914 0.91056 0.0
C1314 C 0.54165 0.86956 0.93719 0.0
H1315 H 0.55627 0.84238 0.99264 0.0
H1316 H 0.53914 0.84256 0.97426 0.0
H1317 H 0.56097 0.85274 0.96142 0.0
H1318 H 0.58461 0.9011 0.94069 0.0
H1319 H 0.5809 0.90036 0.89386 0.0
H1320 H 0.64636 0.52807 0.10124 0.0
H1321 H 0.64908 0.53145 0.05453 0.0
H1322 H 0.69897 0.57856 0.06329 0.0
H1323 H 0.69638 0.57524 0.11024 0.0
H1324 H 0.65372 0.56121 0.02492 0.0
H1325 H 0.70842 0.54751 0.01266 0.0
H1326 H 0.69517 0.54148 0.0414 0.0
H1327 H 0.71144 0.56389 0.03591 0.0
C1328 C 0.65793 0.53915 0.09326 0.0
C1329 C 0.67119 0.55137 0.10938 0.0
C1330 C 0.65945 0.54106 0.06658 0.0
C1331 C 0.67429 0.55515 0.05551 0.0
C1332 C 0.68752 0.56747 0.0715 0.0
H1333 H 0.69866 0.5747 0.89084 0.0
H1334 H 0.70037 0.57761 0.93787 0.0
C1335 C 0.68599 0.5656 0.09827 0.0
C1336 C 0.67563 0.5569 0.02717 0.0
H1337 H 0.69729 0.55337 0.97516 0.0
C1338 C 0.66331 0.55961 0.01402 0.0
C1339 C 0.68824 0.55494 0.01308 0.0
C1340 C 0.70154 0.55168 0.02635 0.0
C1341 C 0.66308 0.56012 0.98707 0.0
C1342 C 0.67525 0.55747 0.97292 0.0
C1343 C 0.68795 0.55534 0.98608 0.0
C1344 C 0.67433 0.55584 0.94452 0.0
C1345 C 0.64978 0.56348 0.974 0.0
C1346 C 0.65926 0.54247 0.93277 0.0
C1347 C 0.65824 0.5408 0.90604 0.0
C1348 C 0.67234 0.55239 0.89053 0.0
C1349 C 0.68756 0.56562 0.90232 0.0
C1350 C 0.68857 0.56729 0.92913 0.0
H1351 H 0.64525 0.57044 0.98694 0.0
H1352 H 0.65521 0.57133 0.95622 0.0
H1353 H 0.63821 0.5508 0.96866 0.0
H1354 H 0.64829 0.53323 0.94431 0.0
H1355 H 0.64638 0.53039 0.89755 0.0
H1356 H 0.10813 0.6885 0.88948 0.0
H1357 H 0.10827 0.69254 0.93625 0.0
H1358 H 0.13989 0.66829 0.94581 0.0
H1359 H 0.13994 0.66436 0.89937 0.0
H1360 H 0.09591 0.66634 0.97422 0.0
H1361 H 0.16642 0.71334 0.98773 0.0
H1362 H 0.1559 0.70906 0.95667 0.0
H1363 H 0.16251 0.69438 0.96973 0.0
C1364 C 0.11523 0.68418 0.90158 0.0
C1365 C 0.12408 0.67617 0.89079 0.0
C1366 C 0.11529 0.68648 0.92824 0.0
C1367 C 0.12434 0.68098 0.94443 0.0
C1368 C 0.13316 0.67299 0.93363 0.0
H1369 H 0.13717 0.66145 0.09978 0.0
H1370 H 0.13702 0.66548 0.05333 0.0
C1371 C 0.13307 0.67065 0.90709 0.0
C1372 C 0.12392 0.68265 0.97273 0.0
H1373 H 0.15044 0.69784 0.02543 0.0
C1374 C 0.10778 0.67348 0.98546 0.0
C1375 C 0.13943 0.69204 0.98729 0.0
C1376 C 0.15703 0.70291 0.97465 0.0
C1377 C 0.10685 0.67261 0.01244 0.0
C1378 C 0.12246 0.68132 0.02694 0.0
C1379 C 0.13851 0.6911 0.01422 0.0
C1380 C 0.12258 0.67931 0.05519 0.0
C1381 C 0.08931 0.66166 0.02521 0.0
C1382 C 0.11464 0.68591 0.07164 0.0
C1383 C 0.11472 0.68363 0.09829 0.0
C1384 C 0.12275 0.67473 0.10882 0.0
C1385 C 0.13084 0.66832 0.09226 0.0
C1386 C 0.13079 0.67064 0.06572 0.0
H1387 H 0.07891 0.6535 0.01116 0.0
H1388 H 0.09005 0.65296 0.03996 0.0
H1389 H 0.08546 0.67038 0.03505 0.0
H1390 H 0.10844 0.69284 0.06388 0.0
H1391 H 0.10844 0.68876 0.11061 0.0
H1392 H 0.89148 0.58066 0.60884 0.0
H1393 H 0.8906 0.58321 0.56194 0.0
H1394 H 0.8613 0.527 0.55547 0.0
H1395 H 0.8619 0.52436 0.60217 0.0
H1396 H 0.9038 0.57019 0.52503 0.0
H1397 H 0.83239 0.54173 0.51225 0.0
H1398 H 0.84295 0.54884 0.54315 0.0
H1399 H 0.83787 0.52787 0.53043 0.0
C1400 C 0.88471 0.56886 0.59741 0.0
C1401 C 0.87668 0.55231 0.60916 0.0
C1402 C 0.88423 0.57034 0.57065 0.0
C1403 C 0.87563 0.5553 0.55527 0.0
C1404 C 0.86764 0.53878 0.56701 0.0
H1405 H 0.86334 0.52434 0.39778 0.0
H1406 H 0.86314 0.52729 0.4445 0.0
C1407 C 0.8681 0.53729 0.59369 0.0
C1408 C 0.87568 0.55673 0.52686 0.0
H1409 H 0.84881 0.54375 0.47444 0.0
C1410 C 0.8918 0.56465 0.51393 0.0
C1411 C 0.86 0.54951 0.51247 0.0
C1412 C 0.84233 0.54166 0.52528 0.0
C1413 C 0.89263 0.56479 0.48695 0.0
C1414 C 0.87692 0.55704 0.47259 0.0
C1415 C 0.86083 0.54961 0.48551 0.0
C1416 C 0.87685 0.55557 0.44419 0.0
C1417 C 0.91027 0.57255 0.47405 0.0
C1418 C 0.88442 0.57052 0.42851 0.0
C1419 C 0.88458 0.56888 0.40175 0.0
C1420 C 0.87708 0.55225 0.39028 0.0
C1421 C 0.86925 0.53733 0.40604 0.0
C1422 C 0.8691 0.53898 0.43273 0.0
H1423 H 0.92079 0.57474 0.48785 0.0
H1424 H 0.91004 0.56391 0.45835 0.0
H1425 H 0.9136 0.58535 0.46545 0.0
H1426 H 0.8902 0.58344 0.43697 0.0
H1427 H 0.89064 0.5806 0.39007 0.0
H1428 H 0.30444 0.87784 0.61174 0.0
H1429 H 0.30134 0.87653 0.56471 0.0
H1430 H 0.35172 0.8802 0.55717 0.0
H1431 H 0.35483 0.88133 0.60389 0.0
H1432 H 0.32332 0.90071 0.52688 0.0
H1433 H 0.31924 0.83637 0.51538 0.0
H1434 H 0.31631 0.84418 0.54603 0.0
H1435 H 0.33794 0.85169 0.53361 0.0
C1436 C 0.31483 0.87835 0.60001 0.0
C1437 C 0.32983 0.87957 0.61147 0.0
C1438 C 0.31304 0.87761 0.5732 0.0
C1439 C 0.32616 0.87795 0.55753 0.0
C1440 C 0.34127 0.87953 0.56895 0.0
H1441 H 0.35448 0.88136 0.40016 0.0
H1442 H 0.35168 0.88104 0.44694 0.0
C1443 C 0.34307 0.88028 0.59565 0.0
C1444 C 0.32431 0.87687 0.52917 0.0
H1445 H 0.32504 0.85357 0.47728 0.0
C1446 C 0.32345 0.89029 0.51598 0.0
C1447 C 0.32439 0.86321 0.51509 0.0
C1448 C 0.32434 0.84795 0.52824 0.0
C1449 C 0.32354 0.89085 0.48897 0.0
C1450 C 0.3243 0.87753 0.47492 0.0
C1451 C 0.32457 0.86382 0.48813 0.0
C1452 C 0.32581 0.87803 0.44654 0.0
C1453 C 0.32357 0.90605 0.47564 0.0
C1454 C 0.31212 0.87633 0.43083 0.0
C1455 C 0.31367 0.87649 0.40402 0.0
C1456 C 0.32893 0.8783 0.39257 0.0
C1457 C 0.34257 0.87997 0.4084 0.0
C1458 C 0.341 0.87978 0.43513 0.0
H1459 H 0.32614 0.91679 0.48923 0.0
H1460 H 0.3336 0.91132 0.4602 0.0
H1461 H 0.31062 0.9015 0.46658 0.0
H1462 H 0.30019 0.8747 0.4393 0.0
H1463 H 0.30292 0.87512 0.39229 0.0
H1464 H 0.47825 0.33717 0.60229 0.0
H1465 H 0.47493 0.33391 0.55562 0.0
H1466 H 0.41957 0.31442 0.56309 0.0
H1467 H 0.42279 0.31772 0.60999 0.0
H1468 H 0.45249 0.30254 0.5265 0.0
H1469 H 0.43724 0.35595 0.51132 0.0
H1470 H 0.44715 0.35397 0.54057 0.0
H1471 H 0.42427 0.33957 0.53479 0.0
C1472 C 0.46536 0.33219 0.59403 0.0
C1473 C 0.45078 0.32777 0.60977 0.0
C1474 C 0.46349 0.3303 0.56738 0.0
C1475 C 0.44705 0.32409 0.55595 0.0
C1476 C 0.43241 0.31945 0.57158 0.0
H1477 H 0.42223 0.31796 0.39209 0.0
H1478 H 0.4197 0.31518 0.43899 0.0
C1479 C 0.43425 0.32128 0.59832 0.0
C1480 C 0.44543 0.3226 0.52762 0.0
H1481 H 0.43808 0.34081 0.47461 0.0
C1482 C 0.44924 0.31082 0.51512 0.0
C1483 C 0.44111 0.33338 0.51292 0.0
C1484 C 0.43731 0.34654 0.52545 0.0
C1485 C 0.44901 0.30963 0.48819 0.0
C1486 C 0.44525 0.32081 0.47343 0.0
C1487 C 0.44098 0.33227 0.48598 0.0
C1488 C 0.44648 0.32146 0.44498 0.0
C1489 C 0.45273 0.29636 0.47582 0.0
C1490 C 0.46238 0.32597 0.43282 0.0
C1491 C 0.46385 0.32751 0.40607 0.0
C1492 C 0.44947 0.32473 0.39101 0.0
C1493 C 0.43352 0.32014 0.4032 0.0
C1494 C 0.43206 0.31856 0.42996 0.0
H1495 H 0.44994 0.28546 0.4892 0.0
H1496 H 0.44485 0.29085 0.45809 0.0
H1497 H 0.46678 0.30281 0.47055 0.0
H1498 H 0.4738 0.32869 0.44406 0.0
H1499 H 0.47634 0.3312 0.39724 0.0
H1500 H 0.13713 0.47742 0.59918 0.0
H1501 H 0.13767 0.47428 0.55257 0.0
H1502 H 0.11638 0.41869 0.56127 0.0
H1503 H 0.1156 0.42171 0.60811 0.0
H1504 H 0.15508 0.46044 0.52336 0.0
H1505 H 0.08289 0.42255 0.50978 0.0
H1506 H 0.09284 0.43432 0.53907 0.0
H1507 H 0.09186 0.41387 0.53261 0.0
C1508 C 0.13256 0.46452 0.59121 0.0
C1509 C 0.12624 0.44979 0.60728 0.0
C1510 C 0.1329 0.46275 0.56458 0.0
C1511 C 0.12688 0.44624 0.55348 0.0
C1512 C 0.12082 0.43151 0.56946 0.0
H1513 H 0.11469 0.42124 0.38865 0.0
H1514 H 0.11594 0.4187 0.4355 0.0
C1515 C 0.12046 0.43327 0.59618 0.0
C1516 C 0.12702 0.44464 0.52514 0.0
H1517 H 0.10032 0.42906 0.47266 0.0
C1518 C 0.14312 0.45348 0.51226 0.0
C1519 C 0.1114 0.43546 0.51077 0.0
C1520 C 0.09373 0.42609 0.52364 0.0
C1521 C 0.14401 0.45366 0.48531 0.0
C1522 C 0.12835 0.44504 0.4709 0.0
C1523 C 0.11229 0.43568 0.48379 0.0
C1524 C 0.12826 0.44653 0.44253 0.0
C1525 C 0.16172 0.46313 0.47253 0.0
C1526 C 0.13463 0.46299 0.43103 0.0
C1527 C 0.13395 0.46448 0.40438 0.0
C1528 C 0.12676 0.44951 0.38872 0.0
C1529 C 0.12036 0.43301 0.40024 0.0
C1530 C 0.12106 0.43154 0.42696 0.0
H1531 H 0.17219 0.46421 0.48557 0.0
H1532 H 0.16193 0.45638 0.45462 0.0
H1533 H 0.16478 0.47657 0.46747 0.0
H1534 H 0.13985 0.47469 0.44272 0.0
H1535 H 0.13887 0.47735 0.39609 0.0
H1536 H 0.66093 0.13891 0.3991 0.0
H1537 H 0.66345 0.13836 0.44582 0.0
H1538 H 0.69035 0.1091 0.43812 0.0
H1539 H 0.6881 0.10983 0.39115 0.0
H1540 H 0.64986 0.10882 0.47685 0.0
H1541 H 0.72212 0.14881 0.4872 0.0
H1542 H 0.71094 0.14839 0.45791 0.0
H1543 H 0.71436 0.1305 0.46565 0.0
C1544 C 0.6675 0.13247 0.40732 0.0
C1545 C 0.67435 0.12444 0.39148 0.0
C1546 C 0.66892 0.13216 0.43401 0.0
C1547 C 0.67725 0.12386 0.44542 0.0
C1548 C 0.68416 0.11586 0.42969 0.0
H1549 H 0.68824 0.10817 0.60946 0.0
H1550 H 0.68937 0.10737 0.56231 0.0
C1551 C 0.68278 0.1162 0.40289 0.0
C1552 C 0.67795 0.12306 0.47383 0.0
H1553 H 0.70579 0.13665 0.52524 0.0
C1554 C 0.66209 0.11487 0.48742 0.0
C1555 C 0.69393 0.13087 0.48754 0.0
C1556 C 0.71133 0.14027 0.47392 0.0
C1557 C 0.66177 0.11446 0.51437 0.0
C1558 C 0.67772 0.12265 0.52808 0.0
C1559 C 0.6936 0.13043 0.51457 0.0
C1560 C 0.67803 0.12388 0.55647 0.0
C1561 C 0.64435 0.10528 0.52799 0.0
C1562 C 0.67167 0.13376 0.56865 0.0
C1563 C 0.67105 0.13428 0.59544 0.0
C1564 C 0.67682 0.12494 0.61054 0.0
C1565 C 0.68367 0.11545 0.5983 0.0
C1566 C 0.68433 0.11499 0.57143 0.0
H1567 H 0.63368 0.09611 0.51503 0.0
H1568 H 0.64487 0.09789 0.54492 0.0
H1569 H 0.64103 0.11516 0.53493 0.0
H1570 H 0.66698 0.1409 0.55739 0.0
H1571 H 0.66578 0.14176 0.6043 0.0
H1572 H 0.52185 0.66156 0.3947 0.0
H1573 H 0.52317 0.66323 0.44168 0.0
H1574 H 0.5795 0.69 0.43854 0.0
H1575 H 0.5783 0.68841 0.39143 0.0
H1576 H 0.53996 0.64887 0.4735 0.0
H1577 H 0.56784 0.72046 0.48733 0.0
H1578 H 0.55728 0.70946 0.4578 0.0
H1579 H 0.579 0.71388 0.46493 0.0
C1580 C 0.53453 0.66795 0.40398 0.0
C1581 C 0.54998 0.67487 0.3894 0.0
C1582 C 0.53525 0.66888 0.4308 0.0
C1583 C 0.55143 0.67687 0.44351 0.0
C1584 C 0.5669 0.684 0.42904 0.0
H1585 H 0.57775 0.69049 0.6068 0.0
H1586 H 0.57886 0.69154 0.55968 0.0
C1587 C 0.56619 0.68301 0.40217 0.0
C1588 C 0.55198 0.6769 0.47195 0.0
H1589 H 0.56374 0.70352 0.5246 0.0
C1590 C 0.54514 0.6608 0.48471 0.0
C1591 C 0.55889 0.69251 0.48642 0.0
C1592 C 0.56608 0.71009 0.47354 0.0
C1593 C 0.54506 0.65988 0.51164 0.0
C1594 C 0.55159 0.67546 0.52619 0.0
C1595 C 0.55868 0.6916 0.5134 0.0
C1596 C 0.55089 0.67521 0.55468 0.0
C1597 C 0.53823 0.64224 0.52423 0.0
C1598 C 0.53478 0.66598 0.56747 0.0
C1599 C 0.53413 0.66527 0.5943 0.0
C1600 C 0.54956 0.67398 0.60886 0.0
C1601 C 0.56565 0.68362 0.59606 0.0
C1602 C 0.5663 0.68424 0.56918 0.0
H1603 H 0.53862 0.63263 0.51085 0.0
H1604 H 0.54591 0.64321 0.54169 0.0
H1605 H 0.52442 0.63712 0.53002 0.0
H1606 H 0.5227 0.65927 0.55667 0.0
H1607 H 0.52152 0.65787 0.60362 0.0
H1608 H 0.50663 0.1164 0.1779 0.0
H1609 H 0.53404 0.1183 0.19188 0.0
H1610 H 0.52814 0.1357 0.26678 0.0
H1611 H 0.50072 0.13382 0.25298 0.0
H1612 H 0.56512 0.1488 0.21291 0.0
H1613 H 0.53443 0.09253 0.2805 0.0
H1614 H 0.52223 0.0959 0.25547 0.0
H1615 H 0.52794 0.10873 0.28438 0.0
C1616 C 0.51116 0.12061 0.19735 0.0
C1617 C 0.50149 0.12488 0.2144 0.0
C1618 C 0.52682 0.12173 0.20527 0.0
C1619 C 0.53297 0.12696 0.23041 0.0
C1620 C 0.52346 0.13141 0.24739 0.0
H1621 H 0.61937 0.13535 0.31964 0.0
H1622 H 0.59368 0.13596 0.30357 0.0
C1623 C 0.50785 0.13038 0.23946 0.0
C1624 C 0.54935 0.12776 0.23891 0.0
H1625 H 0.56529 0.10927 0.28057 0.0
C1626 C 0.56521 0.14014 0.22764 0.0
C1627 C 0.54935 0.11644 0.25812 0.0
C1628 C 0.53259 0.10253 0.27024 0.0
C1629 C 0.58118 0.14177 0.23551 0.0
C1630 C 0.58119 0.13043 0.25475 0.0
C1631 C 0.56527 0.11798 0.26587 0.0
C1632 C 0.5975 0.13126 0.26389 0.0
C1633 C 0.59791 0.1559 0.22364 0.0
C1634 C 0.60825 0.12849 0.24688 0.0
C1635 C 0.62305 0.12827 0.25601 0.0
C1636 C 0.6272 0.13059 0.28234 0.0
C1637 C 0.61652 0.13353 0.29925 0.0
C1638 C 0.60182 0.13386 0.29011 0.0
H1639 H 0.59612 0.16635 0.21477 0.0
H1640 H 0.60851 0.16193 0.23817 0.0
H1641 H 0.60215 0.15009 0.20829 0.0
H1642 H 0.60496 0.12606 0.22667 0.0
H1643 H 0.63097 0.12583 0.24257 0.0
H1644 H 0.49237 0.61296 0.31984 0.0
H1645 H 0.46589 0.58728 0.30397 0.0
H1646 H 0.47939 0.60661 0.22632 0.0
H1647 H 0.50604 0.63226 0.24201 0.0
H1648 H 0.43796 0.58586 0.27585 0.0
H1649 H 0.47122 0.55663 0.22136 0.0
H1650 H 0.48241 0.57371 0.2449 0.0
H1651 H 0.47816 0.57894 0.21329 0.0
C1652 C 0.48972 0.61173 0.29937 0.0
C1653 C 0.50132 0.62457 0.28214 0.0
C1654 C 0.47458 0.59707 0.29036 0.0
C1655 C 0.47081 0.59494 0.26396 0.0
C1656 C 0.48224 0.60785 0.24673 0.0
H1657 H 0.38643 0.51328 0.17436 0.0
H1658 H 0.41222 0.54013 0.18906 0.0
C1659 C 0.4974 0.62253 0.25573 0.0
C1660 C 0.4548 0.57928 0.25458 0.0
H1661 H 0.44048 0.54299 0.21688 0.0
C1662 C 0.43848 0.57645 0.26299 0.0
C1663 C 0.45557 0.56707 0.2378 0.0
C1664 C 0.47277 0.56909 0.22894 0.0
C1665 C 0.42286 0.56182 0.25481 0.0
C1666 C 0.42363 0.54956 0.23815 0.0
C1667 C 0.43995 0.55244 0.22963 0.0
C1668 C 0.40767 0.53354 0.22947 0.0
C1669 C 0.40567 0.55978 0.26372 0.0
C1670 C 0.39664 0.5209 0.24733 0.0
C1671 C 0.38188 0.50556 0.239 0.0
C1672 C 0.37798 0.50257 0.21264 0.0
C1673 C 0.38907 0.51524 0.1948 0.0
C1674 C 0.40381 0.53057 0.20315 0.0
H1675 H 0.40716 0.57238 0.27055 0.0
H1676 H 0.39581 0.55463 0.24804 0.0
H1677 H 0.40059 0.55038 0.27996 0.0
H1678 H 0.39958 0.52276 0.26769 0.0
H1679 H 0.37363 0.49598 0.25318 0.0
H1680 H 0.86992 0.50439 0.24231 0.0
H1681 H 0.86768 0.47729 0.22594 0.0
H1682 H 0.87685 0.46456 0.30231 0.0
H1683 H 0.87883 0.49139 0.31885 0.0
H1684 H 0.8926 0.46716 0.22724 0.0
H1685 H 0.83336 0.41962 0.28055 0.0
H1686 H 0.83978 0.44243 0.27766 0.0
H1687 H 0.85008 0.43553 0.30108 0.0
C1688 C 0.87133 0.49574 0.25562 0.0
C1689 C 0.87446 0.49996 0.28188 0.0
C1690 C 0.87005 0.48029 0.24625 0.0
C1691 C 0.87179 0.46877 0.26299 0.0
C1692 C 0.87504 0.47304 0.28917 0.0
H1693 H 0.88184 0.37698 0.25156 0.0
H1694 H 0.88017 0.40274 0.26477 0.0
C1695 C 0.87629 0.48844 0.29855 0.0
C1696 C 0.87097 0.45265 0.253 0.0
H1697 H 0.8502 0.40834 0.26098 0.0
C1698 C 0.88321 0.45427 0.23438 0.0
C1699 C 0.85868 0.43586 0.26236 0.0
C1700 C 0.84462 0.43319 0.28133 0.0
C1701 C 0.88388 0.4396 0.2255 0.0
C1702 C 0.87186 0.42289 0.23533 0.0
C1703 C 0.85943 0.42121 0.2536 0.0
C1704 C 0.87231 0.40704 0.22733 0.0
C1705 C 0.89776 0.44212 0.20628 0.0
C1706 C 0.86816 0.40081 0.20201 0.0
C1707 C 0.86904 0.38607 0.19444 0.0
C1708 C 0.87409 0.37735 0.21208 0.0
C1709 C 0.87796 0.38346 0.23753 0.0
C1710 C 0.87699 0.39814 0.24511 0.0
H1711 H 0.90802 0.45608 0.20434 0.0
H1712 H 0.90406 0.43444 0.21196 0.0
H1713 H 0.89161 0.43736 0.18717 0.0
H1714 H 0.8643 0.40738 0.18812 0.0
H1715 H 0.86595 0.38163 0.17471 0.0
H1716 H 0.48542 0.86115 0.18683 0.0
H1717 H 0.45838 0.85974 0.2014 0.0
H1718 H 0.48357 0.88514 0.27234 0.0
H1719 H 0.51073 0.88674 0.25782 0.0
H1720 H 0.43784 0.84435 0.24623 0.0
H1721 H 0.46508 0.91627 0.24263 0.0
H1722 H 0.47564 0.90564 0.22732 0.0
H1723 H 0.47754 0.90928 0.26145 0.0
C1724 C 0.48518 0.86636 0.20558 0.0
C1725 C 0.50022 0.87415 0.22113 0.0
C1726 C 0.46973 0.86553 0.21388 0.0
C1727 C 0.46907 0.87256 0.23777 0.0
C1728 C 0.48391 0.87991 0.25365 0.0
H1729 H 0.37757 0.85958 0.31992 0.0
H1730 H 0.40337 0.85838 0.30556 0.0
C1731 C 0.49938 0.88072 0.24539 0.0
C1732 C 0.45294 0.87247 0.24583 0.0
H1733 H 0.4367 0.89936 0.26024 0.0
C1734 C 0.43756 0.85635 0.2493 0.0
C1735 C 0.45259 0.88817 0.24944 0.0
C1736 C 0.46853 0.90584 0.24482 0.0
C1737 C 0.42185 0.85552 0.25668 0.0
C1738 C 0.42162 0.87123 0.26094 0.0
C1739 C 0.43695 0.88734 0.25712 0.0
C1740 C 0.40561 0.87131 0.26923 0.0
C1741 C 0.40558 0.83787 0.25944 0.0
C1742 C 0.39847 0.87918 0.25372 0.0
C1743 C 0.38378 0.87995 0.26192 0.0
C1744 C 0.37606 0.87295 0.28586 0.0
C1745 C 0.38319 0.865 0.30132 0.0
C1746 C 0.39786 0.86423 0.29309 0.0
H1747 H 0.40688 0.82746 0.24942 0.0
H1748 H 0.4032 0.83439 0.28013 0.0
H1749 H 0.39398 0.83809 0.25166 0.0
H1750 H 0.40431 0.8848 0.2353 0.0
H1751 H 0.37861 0.8862 0.24962 0.0
H1752 H 0.62105 0.48333 0.18216 0.0
H1753 H 0.59547 0.45672 0.19788 0.0
H1754 H 0.6041 0.47881 0.27407 0.0
H1755 H 0.6298 0.50554 0.2585 0.0
H1756 H 0.59561 0.44196 0.2705 0.0
H1757 H 0.54918 0.45602 0.21788 0.0
H1758 H 0.56663 0.45686 0.19894 0.0
H1759 H 0.57157 0.47258 0.22411 0.0
C1760 C 0.61761 0.48248 0.20231 0.0
C1761 C 0.62736 0.49656 0.21908 0.0
C1762 C 0.60296 0.4673 0.21122 0.0
C1763 C 0.59779 0.46594 0.23702 0.0
C1764 C 0.60786 0.47968 0.25405 0.0
H1765 H 0.51101 0.38637 0.3262 0.0
H1766 H 0.53849 0.41165 0.3122 0.0
C1767 C 0.62251 0.49492 0.24513 0.0
C1768 C 0.58158 0.45036 0.24598 0.0
H1769 H 0.53722 0.42867 0.23879 0.0
C1770 C 0.58282 0.43904 0.26368 0.0
C1771 C 0.56496 0.44664 0.23697 0.0
C1772 C 0.56289 0.4587 0.21858 0.0
C1773 C 0.56784 0.42383 0.27223 0.0
C1774 C 0.55119 0.42012 0.26324 0.0
C1775 C 0.54999 0.43151 0.2456 0.0
C1776 C 0.53478 0.40454 0.2719 0.0
C1777 C 0.57001 0.41169 0.2903 0.0
C1778 C 0.52336 0.39236 0.25384 0.0
C1779 C 0.50756 0.37801 0.26175 0.0
C1780 C 0.50287 0.37561 0.28788 0.0
C1781 C 0.51432 0.38781 0.30595 0.0
C1782 C 0.53009 0.4022 0.29801 0.0
H1783 H 0.58349 0.41374 0.28956 0.0
H1784 H 0.5675 0.41426 0.31029 0.0
H1785 H 0.56062 0.39779 0.28569 0.0
H1786 H 0.52668 0.39398 0.23358 0.0
H1787 H 0.49899 0.36884 0.24739 0.0
H1788 H 0.1273 0.63055 0.25614 0.0
H1789 H 0.12814 0.60476 0.27153 0.0
H1790 H 0.13337 0.59152 0.19343 0.0
H1791 H 0.13217 0.61703 0.1779 0.0
H1792 H 0.10787 0.56378 0.21979 0.0
H1793 H 0.16886 0.59583 0.27755 0.0
H1794 H 0.15327 0.60234 0.28627 0.0
H1795 H 0.16319 0.60769 0.25491 0.0
C1796 C 0.12882 0.62224 0.2423 0.0
C1797 C 0.12968 0.62581 0.21583 0.0
C1798 C 0.1294 0.60757 0.25112 0.0
C1799 C 0.13105 0.59634 0.23365 0.0
C1800 C 0.13215 0.60004 0.20725 0.0
H1801 H 0.13175 0.49839 0.24468 0.0
H1802 H 0.1334 0.52558 0.23018 0.0
C1803 C 0.13149 0.61463 0.19841 0.0
C1804 C 0.13063 0.58019 0.24265 0.0
H1805 H 0.15115 0.56495 0.28179 0.0
C1806 C 0.1174 0.56405 0.23323 0.0
C1807 C 0.14305 0.58057 0.26024 0.0
C1808 C 0.158 0.59754 0.27017 0.0
C1809 C 0.1161 0.54825 0.24117 0.0
C1810 C 0.12847 0.54863 0.25878 0.0
C1811 C 0.14168 0.56474 0.26829 0.0
C1812 C 0.12785 0.53239 0.26761 0.0
C1813 C 0.10128 0.53125 0.23105 0.0
C1814 C 0.12454 0.52743 0.29354 0.0
C1815 C 0.1236 0.51193 0.30188 0.0
C1816 C 0.1261 0.5012 0.28443 0.0
C1817 C 0.12969 0.50635 0.25854 0.0
C1818 C 0.13057 0.52183 0.25021 0.0
H1819 H 0.09075 0.53299 0.22239 0.0
H1820 H 0.10636 0.52606 0.21598 0.0
H1821 H 0.09556 0.52136 0.24663 0.0
H1822 H 0.12247 0.53546 0.30727 0.0
H1823 H 0.12088 0.50833 0.32197 0.0
H1824 H 0.49787 0.86321 0.75392 0.0
H1825 H 0.47052 0.86156 0.74017 0.0
H1826 H 0.46302 0.87554 0.81667 0.0
H1827 H 0.49037 0.87739 0.83048 0.0
H1828 H 0.4356 0.84129 0.75963 0.0
H1829 H 0.46172 0.91275 0.77026 0.0
H1830 H 0.47566 0.90322 0.7697 0.0
H1831 H 0.46378 0.90209 0.79838 0.0
C1832 C 0.49033 0.86583 0.76783 0.0
C1833 C 0.49632 0.87056 0.79322 0.0
C1834 C 0.47472 0.86487 0.75996 0.0
C1835 C 0.46492 0.86871 0.77731 0.0
C1836 C 0.47057 0.87285 0.80288 0.0
H1837 H 0.37289 0.87986 0.76099 0.0
H1838 H 0.39745 0.87728 0.77774 0.0
C1839 C 0.48616 0.87382 0.81075 0.0
C1840 C 0.44899 0.86878 0.76855 0.0
H1841 H 0.43167 0.89543 0.76038 0.0
C1842 C 0.43472 0.85311 0.75974 0.0
C1843 C 0.44792 0.88423 0.76876 0.0
C1844 C 0.46312 0.90158 0.77706 0.0
C1845 C 0.41925 0.85244 0.75143 0.0
C1846 C 0.41821 0.86793 0.75153 0.0
C1847 C 0.43248 0.88356 0.76044 0.0
C1848 C 0.40266 0.86838 0.74179 0.0
C1849 C 0.40408 0.83512 0.74302 0.0
C1850 C 0.3975 0.86428 0.71603 0.0
C1851 C 0.38349 0.86572 0.70644 0.0
C1852 C 0.37447 0.87141 0.7224 0.0
C1853 C 0.37957 0.8754 0.74826 0.0
C1854 C 0.39359 0.87394 0.75784 0.0
H1855 H 0.4051 0.82395 0.75084 0.0
H1856 H 0.39143 0.83378 0.74925 0.0
H1857 H 0.40402 0.8343 0.72172 0.0
H1858 H 0.40456 0.86035 0.70315 0.0
H1859 H 0.37993 0.86265 0.6864 0.0
H1860 H 0.62469 0.50864 0.74743 0.0
H1861 H 0.59957 0.48085 0.73375 0.0
H1862 H 0.60013 0.45761 0.80642 0.0
H1863 H 0.6252 0.48535 0.8203 0.0
H1864 H 0.5966 0.44657 0.73088 0.0
H1865 H 0.54945 0.44897 0.79947 0.0
H1866 H 0.57011 0.46803 0.79156 0.0
H1867 H 0.56942 0.45185 0.81318 0.0
C1868 C 0.61948 0.4976 0.76047 0.0
C1869 C 0.62685 0.49918 0.78498 0.0
C1870 C 0.60516 0.48175 0.75263 0.0
C1871 C 0.59789 0.46728 0.76921 0.0
C1872 C 0.60541 0.46872 0.79351 0.0
H1873 H 0.50399 0.36461 0.75382 0.0
H1874 H 0.53127 0.38964 0.76938 0.0
C1875 C 0.61976 0.48454 0.80134 0.0
C1876 C 0.58238 0.45071 0.76109 0.0
H1877 H 0.539 0.42374 0.77367 0.0
C1878 C 0.584 0.44154 0.74023 0.0
C1879 C 0.56603 0.44417 0.77346 0.0
C1880 C 0.5635 0.45378 0.79555 0.0
C1881 C 0.56964 0.42593 0.73138 0.0
C1882 C 0.55316 0.41958 0.74338 0.0
C1883 C 0.55164 0.42862 0.76452 0.0
C1884 C 0.53716 0.40403 0.73361 0.0
C1885 C 0.5723 0.4163 0.70945 0.0
C1886 C 0.53138 0.40388 0.70842 0.0
C1887 C 0.5159 0.38962 0.69949 0.0
C1888 C 0.50577 0.3753 0.71567 0.0
C1889 C 0.51156 0.37544 0.74089 0.0
C1890 C 0.52711 0.38972 0.74981 0.0
H1891 H 0.5862 0.41969 0.70787 0.0
H1892 H 0.56406 0.40192 0.71182 0.0
H1893 H 0.56863 0.42007 0.69113 0.0
H1894 H 0.53868 0.41496 0.6958 0.0
H1895 H 0.51171 0.38996 0.68002 0.0
H1896 H 0.12743 0.61454 0.82187 0.0
H1897 H 0.12891 0.58921 0.80621 0.0
H1898 H 0.13096 0.60651 0.72804 0.0
H1899 H 0.12978 0.6321 0.74363 0.0
H1900 H 0.10545 0.56313 0.77457 0.0
H1901 H 0.17141 0.59669 0.72998 0.0
H1902 H 0.16405 0.60763 0.75172 0.0
H1903 H 0.15715 0.60429 0.71867 0.0
C1904 C 0.12836 0.61305 0.80135 0.0
C1905 C 0.12854 0.62533 0.78396 0.0
C1906 C 0.12919 0.59856 0.79244 0.0
C1907 C 0.13027 0.59608 0.76599 0.0
C1908 C 0.13051 0.60835 0.74856 0.0
H1909 H 0.12555 0.51151 0.67515 0.0
H1910 H 0.12669 0.53827 0.69059 0.0
C1911 C 0.12973 0.62291 0.75748 0.0
C1912 C 0.1303 0.58021 0.75674 0.0
H1913 H 0.1538 0.56619 0.72196 0.0
C1914 C 0.11607 0.56379 0.7632 0.0
C1915 C 0.14416 0.58113 0.74187 0.0
C1916 C 0.16014 0.59837 0.73532 0.0
C1917 C 0.1152 0.54826 0.75488 0.0
C1918 C 0.12902 0.54919 0.73995 0.0
C1919 C 0.14324 0.56557 0.73342 0.0
C1920 C 0.12882 0.53323 0.73074 0.0
C1921 C 0.09936 0.53097 0.76168 0.0
C1922 C 0.1299 0.5217 0.74823 0.0
C1923 C 0.12932 0.50644 0.73948 0.0
C1924 C 0.12762 0.50247 0.71309 0.0
C1925 C 0.12679 0.51418 0.69561 0.0
C1926 C 0.12747 0.52948 0.70436 0.0
H1927 H 0.08834 0.53259 0.76861 0.0
H1928 H 0.09488 0.52206 0.74482 0.0
H1929 H 0.10286 0.52464 0.77719 0.0
H1930 H 0.13117 0.52451 0.76865 0.0
H1931 H 0.13004 0.49769 0.75339 0.0
H1932 H 0.63121 0.12636 0.75498 0.0
H1933 H 0.60566 0.12834 0.76851 0.0
H1934 H 0.59225 0.12959 0.68909 0.0
H1935 H 0.61757 0.12735 0.67542 0.0
H1936 H 0.59708 0.15428 0.75775 0.0
H1937 H 0.54695 0.0898 0.71906 0.0
H1938 H 0.56959 0.09578 0.7228 0.0
H1939 H 0.56291 0.10387 0.69594 0.0
C1940 C 0.62278 0.12702 0.74041 0.0
C1941 C 0.62631 0.12658 0.71415 0.0
C1942 C 0.60822 0.12817 0.74816 0.0
C1943 C 0.59693 0.12884 0.7298 0.0
C1944 C 0.60059 0.12872 0.70357 0.0
H1945 H 0.50001 0.13201 0.74353 0.0
H1946 H 0.52682 0.13351 0.72727 0.0
C1947 C 0.61511 0.12753 0.6958 0.0
C1948 C 0.58138 0.12982 0.7381 0.0
H1949 H 0.53677 0.10812 0.73545 0.0
C1950 C 0.58389 0.14419 0.75292 0.0
C1951 C 0.56419 0.11665 0.73168 0.0
C1952 C 0.56067 0.10057 0.71669 0.0
C1953 C 0.56965 0.14579 0.76137 0.0
C1954 C 0.55247 0.13255 0.75513 0.0
C1955 C 0.54997 0.11829 0.74009 0.0
C1956 C 0.53685 0.13281 0.76495 0.0
C1957 C 0.57311 0.16174 0.77666 0.0
C1958 C 0.53363 0.13189 0.79149 0.0
C1959 C 0.51838 0.13101 0.80079 0.0
C1960 C 0.50601 0.13096 0.78371 0.0
C1961 C 0.50934 0.13209 0.75714 0.0
C1962 C 0.52462 0.13293 0.74784 0.0
H1963 H 0.58667 0.17271 0.77373 0.0
H1964 H 0.5638 0.16621 0.77134 0.0
H1965 H 0.57143 0.15841 0.79744 0.0
H1966 H 0.54273 0.13142 0.805 0.0
H1967 H 0.51614 0.13006 0.82136 0.0
H1968 H 0.39198 0.50982 0.82201 0.0
H1969 H 0.41756 0.53697 0.80784 0.0
H1970 H 0.39187 0.53405 0.73595 0.0
H1971 H 0.3661 0.50696 0.75014 0.0
H1972 H 0.4379 0.54058 0.76556 0.0
H1973 H 0.41035 0.58479 0.75816 0.0
H1974 H 0.39947 0.56429 0.77537 0.0
H1975 H 0.39818 0.56458 0.74089 0.0
C1976 C 0.39168 0.51508 0.80331 0.0
C1977 C 0.37703 0.50628 0.78718 0.0
C1978 C 0.40631 0.53057 0.79524 0.0
C1979 C 0.40655 0.53762 0.77096 0.0
C1980 C 0.39183 0.52902 0.75496 0.0
H1981 H 0.49922 0.60924 0.68477 0.0
H1982 H 0.47227 0.5841 0.70064 0.0
C1983 C 0.37716 0.51351 0.76304 0.0
C1984 C 0.42264 0.55333 0.76183 0.0
H1985 H 0.43867 0.59513 0.74026 0.0
C1986 C 0.43809 0.55253 0.76012 0.0
C1987 C 0.42289 0.56896 0.75502 0.0
C1988 C 0.40688 0.57083 0.75765 0.0
C1989 C 0.45375 0.56686 0.75141 0.0
C1990 C 0.45386 0.58229 0.74376 0.0
C1991 C 0.43849 0.58321 0.74589 0.0
C1992 C 0.46988 0.59766 0.7337 0.0
C1993 C 0.47008 0.56542 0.75084 0.0
C1994 C 0.47719 0.61375 0.74663 0.0
C1995 C 0.49252 0.62817 0.7375 0.0
C1996 C 0.50076 0.62674 0.71524 0.0
C1997 C 0.49324 0.6107 0.70209 0.0
C1998 C 0.47789 0.59631 0.71119 0.0
H1999 H 0.46888 0.55475 0.76353 0.0
H2000 H 0.47234 0.56248 0.73093 0.0
H2001 H 0.48169 0.57788 0.75691 0.0
H2002 H 0.47115 0.61508 0.76398 0.0
H2003 H 0.49799 0.64038 0.748 0.0
H2004 H 0.88341 0.37817 0.74631 0.0
H2005 H 0.88153 0.4039 0.73366 0.0
H2006 H 0.86457 0.40724 0.81017 0.0
H2007 H 0.86639 0.38148 0.823 0.0
H2008 H 0.85086 0.4089 0.73773 0.0
H2009 H 0.90844 0.45647 0.79501 0.0
H2010 H 0.90485 0.43507 0.78658 0.0
H2011 H 0.89211 0.43734 0.81158 0.0
C2012 C 0.87924 0.38435 0.76042 0.0
C2013 C 0.87511 0.37786 0.78567 0.0
C2014 C 0.87815 0.39902 0.75316 0.0
C2015 C 0.87309 0.40753 0.77107 0.0
C2016 C 0.8687 0.40095 0.79618 0.0
H2017 H 0.87086 0.50509 0.75708 0.0
H2018 H 0.86857 0.47795 0.77335 0.0
C2019 C 0.86968 0.38621 0.80343 0.0
C2020 C 0.87252 0.42338 0.76341 0.0
H2021 H 0.89319 0.4676 0.77191 0.0
C2022 C 0.86007 0.42174 0.74522 0.0
C2023 C 0.88448 0.44005 0.7734 0.0
C2024 C 0.89833 0.44248 0.79261 0.0
C2025 C 0.85928 0.43641 0.73666 0.0
C2026 C 0.87157 0.45318 0.7461 0.0
C2027 C 0.8838 0.45474 0.76468 0.0
C2028 C 0.87242 0.46934 0.73619 0.0
C2029 C 0.84518 0.43378 0.7178 0.0
C2030 C 0.87554 0.47358 0.70999 0.0
C2031 C 0.8768 0.489 0.70067 0.0
C2032 C 0.87514 0.50057 0.71742 0.0
C2033 C 0.87215 0.49639 0.74371 0.0
C2034 C 0.87084 0.48092 0.75302 0.0
H2035 H 0.83389 0.42023 0.71867 0.0
H2036 H 0.8404 0.44307 0.7215 0.0
H2037 H 0.85057 0.43605 0.698 0.0
H2038 H 0.87725 0.46506 0.69677 0.0
H2039 H 0.87923 0.49192 0.68035 0.0
loop_
_geom_bond_atom_site_label_1
_geom_bond_atom_site_label_2
_geom_bond_distance
_geom_bond_site_symmetry_2
_ccdc_geom_bond_type
In0 O1 2.294 . S
In0 O2 2.326 . S
In0 O6 2.266 . S
In0 O7 2.326 . S
In0 O8 2.266 . S
In0 O9 2.326 . S
In0 O11 2.294 . S
In0 O12 2.326 . S
O1 In0 2.294 . S
O1 C10 1.240 . S
O2 In0 2.326 . S
O2 C10 1.252 . S
C3 O6 1.252 . S
C3 O7 1.260 . S
C4 O11 1.240 . S
C4 O12 1.252 . S
C5 O8 1.252 . S
C5 O9 1.260 . S
O6 In0 2.266 . S
O6 C3 1.252 . S
O7 In0 2.326 . S
O7 C3 1.260 . S
O8 In0 2.266 . S
O8 C5 1.252 . S
O9 In0 2.326 . S
O9 C5 1.260 . S
C10 O1 1.240 . S
C10 O2 1.252 . S
O11 In0 2.294 . S
O11 C4 1.240 . S
O12 In0 2.326 . S
O12 C4 1.252 . S
In13 O14 2.294 . S
In13 O15 2.326 . S
In13 O19 2.266 . S
In13 O20 2.326 . S
In13 O21 2.266 . S
In13 O22 2.326 . S
In13 O24 2.294 . S
In13 O25 2.326 . S
O14 In13 2.294 . S
O14 C23 1.240 . S
O15 In13 2.326 . S
O15 C23 1.252 . S
C16 O19 1.252 . S
C16 O20 1.260 . S
C17 O24 1.240 . S
C17 O25 1.252 . S
C18 O21 1.252 . S
C18 O22 1.260 . S
O19 In13 2.266 . S
O19 C16 1.252 . S
O20 In13 2.326 . S
O20 C16 1.260 . S
O21 In13 2.266 . S
O21 C18 1.252 . S
O22 In13 2.326 . S
O22 C18 1.260 . S
C23 O14 1.240 . S
C23 O15 1.252 . S
O24 In13 2.294 . S
O24 C17 1.240 . S
O25 In13 2.326 . S
O25 C17 1.252 . S
In26 O27 2.294 . S
In26 O28 2.326 . S
In26 O32 2.266 . S
In26 O33 2.326 . S
In26 O34 2.266 . S
In26 O35 2.326 . S
In26 O37 2.294 . S
In26 O38 2.326 . S
O27 In26 2.294 . S
O27 C36 1.240 . S
O28 In26 2.326 . S
O28 C36 1.252 . S
C29 O32 1.252 . S
C29 O33 1.260 . S
C30 O37 1.240 . S
C30 O38 1.252 . S
C31 O34 1.252 . S
C31 O35 1.260 . S
O32 In26 2.266 . S
O32 C29 1.252 . S
O33 In26 2.326 . S
O33 C29 1.260 . S
O34 In26 2.266 . S
O34 C31 1.252 . S
O35 In26 2.326 . S
O35 C31 1.260 . S
C36 O27 1.240 . S
C36 O28 1.252 . S
O37 In26 2.294 . S
O37 C30 1.240 . S
O38 In26 2.326 . S
O38 C30 1.252 . S
In39 O40 2.294 . S
In39 O41 2.326 . S
In39 O45 2.266 . S
In39 O46 2.326 . S
In39 O47 2.266 . S
In39 O48 2.326 . S
In39 O50 2.294 . S
In39 O51 2.326 . S
O40 In39 2.294 . S
O40 C49 1.240 . S
O41 In39 2.326 . S
O41 C49 1.252 . S
C42 O45 1.252 . S
C42 O46 1.260 . S
C43 O50 1.240 . S
C43 O51 1.252 . S
C44 O47 1.252 . S
C44 O48 1.260 . S
O45 In39 2.266 . S
O45 C42 1.252 . S
O46 In39 2.326 . S
O46 C42 1.260 . S
O47 In39 2.266 . S
O47 C44 1.252 . S
O48 In39 2.326 . S
O48 C44 1.260 . S
C49 O40 1.240 . S
C49 O41 1.252 . S
O50 In39 2.294 . S
O50 C43 1.240 . S
O51 In39 2.326 . S
O51 C43 1.252 . S
In52 O53 2.294 . S
In52 O54 2.326 . S
In52 O58 2.266 . S
In52 O59 2.326 . S
In52 O60 2.266 . S
In52 O61 2.326 . S
In52 O63 2.294 . S
In52 O64 2.326 . S
O53 In52 2.294 . S
O53 C62 1.240 . S
O54 In52 2.326 . S
O54 C62 1.252 . S
C55 O58 1.252 . S
C55 O59 1.260 . S
C56 O63 1.240 . S
C56 O64 1.252 . S
C57 O60 1.252 . S
C57 O61 1.260 . S
O58 In52 2.266 . S
O58 C55 1.252 . S
O59 In52 2.326 . S
O59 C55 1.260 . S
O60 In52 2.266 . S
O60 C57 1.252 . S
O61 In52 2.326 . S
O61 C57 1.260 . S
C62 O53 1.240 . S
C62 O54 1.252 . S
O63 In52 2.294 . S
O63 C56 1.240 . S
O64 In52 2.326 . S
O64 C56 1.252 . S
In65 O66 2.294 . S
In65 O67 2.326 . S
In65 O71 2.266 . S
In65 O72 2.326 . S
In65 O73 2.266 . S
In65 O74 2.326 . S
In65 O76 2.294 . S
In65 O77 2.326 . S
O66 In65 2.294 . S
O66 C75 1.240 . S
O67 In65 2.326 . S
O67 C75 1.252 . S
C68 O71 1.252 . S
C68 O72 1.260 . S
C69 O76 1.240 . S
C69 O77 1.252 . S
C70 O73 1.252 . S
C70 O74 1.260 . S
O71 In65 2.266 . S
O71 C68 1.252 . S
O72 In65 2.326 . S
O72 C68 1.260 . S
O73 In65 2.266 . S
O73 C70 1.252 . S
O74 In65 2.326 . S
O74 C70 1.260 . S
C75 O66 1.240 . S
C75 O67 1.252 . S
O76 In65 2.294 . S
O76 C69 1.240 . S
O77 In65 2.326 . S
O77 C69 1.252 . S
In78 O79 2.294 . S
In78 O80 2.326 . S
In78 O84 2.266 . S
In78 O85 2.326 . S
In78 O86 2.266 . S
In78 O87 2.326 . S
In78 O89 2.294 . S
In78 O90 2.326 . S
O79 In78 2.294 . S
O79 C88 1.240 . S
O80 In78 2.326 . S
O80 C88 1.252 . S
C81 O84 1.252 . S
C81 O85 1.260 . S
C82 O89 1.240 . S
C82 O90 1.252 . S
C83 O86 1.252 . S
C83 O87 1.260 . S
O84 In78 2.266 . S
O84 C81 1.252 . S
O85 In78 2.326 . S
O85 C81 1.260 . S
O86 In78 2.266 . S
O86 C83 1.252 . S
O87 In78 2.326 . S
O87 C83 1.260 . S
C88 O79 1.240 . S
C88 O80 1.252 . S
O89 In78 2.294 . S
O89 C82 1.240 . S
O90 In78 2.326 . S
O90 C82 1.252 . S
In91 O92 2.294 . S
In91 O93 2.326 . S
In91 O97 2.266 . S
In91 O98 2.326 . S
In91 O99 2.266 . S
In91 O100 2.326 . S
In91 O102 2.294 . S
In91 O103 2.326 . S
O92 In91 2.294 . S
O92 C101 1.240 . S
O93 In91 2.326 . S
O93 C101 1.252 . S
C94 O97 1.252 . S
C94 O98 1.260 . S
C95 O102 1.240 . S
C95 O103 1.252 . S
C96 O99 1.252 . S
C96 O100 1.260 . S
O97 In91 2.266 . S
O97 C94 1.252 . S
O98 In91 2.326 . S
O98 C94 1.260 . S
O99 In91 2.266 . S
O99 C96 1.252 . S
O100 In91 2.326 . S
O100 C96 1.260 . S
C101 O92 1.240 . S
C101 O93 1.252 . S
O102 In91 2.294 . S
O102 C95 1.240 . S
O103 In91 2.326 . S
O103 C95 1.252 . S
In104 O105 2.294 . S
In104 O106 2.326 . S
In104 O110 2.266 . S
In104 O111 2.326 . S
In104 O112 2.266 . S
In104 O113 2.326 . S
In104 O115 2.294 . S
In104 O116 2.326 . S
O105 In104 2.294 . S
O105 C114 1.240 . S
O106 In104 2.326 . S
O106 C114 1.252 . S
C107 O110 1.252 . S
C107 O111 1.260 . S
C108 O115 1.240 . S
C108 O116 1.252 . S
C109 O112 1.252 . S
C109 O113 1.260 . S
O110 In104 2.266 . S
O110 C107 1.252 . S
O111 In104 2.326 . S
O111 C107 1.260 . S
O112 In104 2.266 . S
O112 C109 1.252 . S
O113 In104 2.326 . S
O113 C109 1.260 . S
C114 O105 1.240 . S
C114 O106 1.252 . S
O115 In104 2.294 . S
O115 C108 1.240 . S
O116 In104 2.326 . S
O116 C108 1.252 . S
In117 O118 2.294 . S
In117 O119 2.326 . S
In117 O123 2.266 . S
In117 O124 2.326 . S
In117 O125 2.266 . S
In117 O126 2.326 . S
In117 O128 2.294 . S
In117 O129 2.326 . S
O118 In117 2.294 . S
O118 C127 1.240 . S
O119 In117 2.326 . S
O119 C127 1.252 . S
C120 O123 1.252 . S
C120 O124 1.260 . S
C121 O128 1.240 . S
C121 O129 1.252 . S
C122 O125 1.252 . S
C122 O126 1.260 . S
O123 In117 2.266 . S
O123 C120 1.252 . S
O124 In117 2.326 . S
O124 C120 1.260 . S
O125 In117 2.266 . S
O125 C122 1.252 . S
O126 In117 2.326 . S
O126 C122 1.260 . S
C127 O118 1.240 . S
C127 O119 1.252 . S
O128 In117 2.294 . S
O128 C121 1.240 . S
O129 In117 2.326 . S
O129 C121 1.252 . S
In130 O131 2.294 . S
In130 O132 2.326 . S
In130 O136 2.266 . S
In130 O137 2.326 . S
In130 O138 2.266 . S
In130 O139 2.326 . S
In130 O141 2.294 . S
In130 O142 2.326 . S
O131 In130 2.294 . S
O131 C140 1.240 . S
O132 In130 2.326 . S
O132 C140 1.252 . S
C133 O136 1.252 . S
C133 O137 1.260 . S
C134 O141 1.240 . S
C134 O142 1.252 . S
C135 O138 1.252 . S
C135 O139 1.260 . S
O136 In130 2.266 . S
O136 C133 1.252 . S
O137 In130 2.326 . S
O137 C133 1.260 . S
O138 In130 2.266 . S
O138 C135 1.252 . S
O139 In130 2.326 . S
O139 C135 1.260 . S
C140 O131 1.240 . S
C140 O132 1.252 . S
O141 In130 2.294 . S
O141 C134 1.240 . S
O142 In130 2.326 . S
O142 C134 1.252 . S
In143 O144 2.294 . S
In143 O145 2.326 . S
In143 O149 2.266 . S
In143 O150 2.326 . S
In143 O151 2.266 . S
In143 O152 2.326 . S
In143 O154 2.294 . S
In143 O155 2.326 . S
O144 In143 2.294 . S
O144 C153 1.240 . S
O145 In143 2.326 . S
O145 C153 1.252 . S
C146 O149 1.252 . S
C146 O150 1.260 . S
C147 O154 1.240 . S
C147 O155 1.252 . S
C148 O151 1.252 . S
C148 O152 1.260 . S
O149 In143 2.266 . S
O149 C146 1.252 . S
O150 In143 2.326 . S
O150 C146 1.260 . S
O151 In143 2.266 . S
O151 C148 1.252 . S
O152 In143 2.326 . S
O152 C148 1.260 . S
C153 O144 1.240 . S
C153 O145 1.252 . S
O154 In143 2.294 . S
O154 C147 1.240 . S
O155 In143 2.326 . S
O155 C147 1.252 . S
In156 O157 2.294 . S
In156 O158 2.326 . S
In156 O162 2.266 . S
In156 O163 2.326 . S
In156 O164 2.266 . S
In156 O165 2.326 . S
In156 O167 2.294 . S
In156 O168 2.326 . S
O157 In156 2.294 . S
O157 C166 1.240 . S
O158 In156 2.326 . S
O158 C166 1.252 . S
C159 O162 1.252 . S
C159 O163 1.260 . S
C160 O167 1.240 . S
C160 O168 1.252 . S
C161 O164 1.252 . S
C161 O165 1.260 . S
O162 In156 2.266 . S
O162 C159 1.252 . S
O163 In156 2.326 . S
O163 C159 1.260 . S
O164 In156 2.266 . S
O164 C161 1.252 . S
O165 In156 2.326 . S
O165 C161 1.260 . S
C166 O157 1.240 . S
C166 O158 1.252 . S
O167 In156 2.294 . S
O167 C160 1.240 . S
O168 In156 2.326 . S
O168 C160 1.252 . S
In169 O170 2.294 . S
In169 O171 2.326 . S
In169 O175 2.266 . S
In169 O176 2.326 . S
In169 O177 2.266 . S
In169 O178 2.326 . S
In169 O180 2.294 . S
In169 O181 2.326 . S
O170 In169 2.294 . S
O170 C179 1.240 . S
O171 In169 2.326 . S
O171 C179 1.252 . S
C172 O175 1.252 . S
C172 O176 1.260 . S
C173 O180 1.240 . S
C173 O181 1.252 . S
C174 O177 1.252 . S
C174 O178 1.260 . S
O175 In169 2.266 . S
O175 C172 1.252 . S
O176 In169 2.326 . S
O176 C172 1.260 . S
O177 In169 2.266 . S
O177 C174 1.252 . S
O178 In169 2.326 . S
O178 C174 1.260 . S
C179 O170 1.240 . S
C179 O171 1.252 . S
O180 In169 2.294 . S
O180 C173 1.240 . S
O181 In169 2.326 . S
O181 C173 1.252 . S
In182 O183 2.294 . S
In182 O184 2.326 . S
In182 O188 2.266 . S
In182 O189 2.326 . S
In182 O190 2.266 . S
In182 O191 2.326 . S
In182 O193 2.294 . S
In182 O194 2.326 . S
O183 In182 2.294 . S
O183 C192 1.240 . S
O184 In182 2.326 . S
O184 C192 1.252 . S
C185 O188 1.252 . S
C185 O189 1.260 . S
C186 O193 1.240 . S
C186 O194 1.252 . S
C187 O190 1.252 . S
C187 O191 1.260 . S
O188 In182 2.266 . S
O188 C185 1.252 . S
O189 In182 2.326 . S
O189 C185 1.260 . S
O190 In182 2.266 . S
O190 C187 1.252 . S
O191 In182 2.326 . S
O191 C187 1.260 . S
C192 O183 1.240 . S
C192 O184 1.252 . S
O193 In182 2.294 . S
O193 C186 1.240 . S
O194 In182 2.326 . S
O194 C186 1.252 . S
In195 O196 2.294 . S
In195 O197 2.326 . S
In195 O201 2.266 . S
In195 O202 2.326 . S
In195 O203 2.266 . S
In195 O204 2.326 . S
In195 O206 2.294 . S
In195 O207 2.326 . S
O196 In195 2.294 . S
O196 C205 1.240 . S
O197 In195 2.326 . S
O197 C205 1.252 . S
C198 O201 1.252 . S
C198 O202 1.260 . S
C199 O206 1.240 . S
C199 O207 1.252 . S
C200 O203 1.252 . S
C200 O204 1.260 . S
O201 In195 2.266 . S
O201 C198 1.252 . S
O202 In195 2.326 . S
O202 C198 1.260 . S
O203 In195 2.266 . S
O203 C200 1.252 . S
O204 In195 2.326 . S
O204 C200 1.260 . S
C205 O196 1.240 . S
C205 O197 1.252 . S
O206 In195 2.294 . S
O206 C199 1.240 . S
O207 In195 2.326 . S
O207 C199 1.252 . S
In208 O209 2.294 . S
In208 O210 2.326 . S
In208 O214 2.266 . S
In208 O215 2.326 . S
In208 O216 2.266 . S
In208 O217 2.326 . S
In208 O219 2.294 . S
In208 O220 2.326 . S
O209 In208 2.294 . S
O209 C218 1.240 . S
O210 In208 2.326 . S
O210 C218 1.252 . S
C211 O214 1.252 . S
C211 O215 1.260 . S
C212 O219 1.240 . S
C212 O220 1.252 . S
C213 O216 1.252 . S
C213 O217 1.260 . S
O214 In208 2.266 . S
O214 C211 1.252 . S
O215 In208 2.326 . S
O215 C211 1.260 . S
O216 In208 2.266 . S
O216 C213 1.252 . S
O217 In208 2.326 . S
O217 C213 1.260 . S
C218 O209 1.240 . S
C218 O210 1.252 . S
O219 In208 2.294 . S
O219 C212 1.240 . S
O220 In208 2.326 . S
O220 C212 1.252 . S
In221 O222 2.294 . S
In221 O223 2.326 . S
In221 O227 2.266 . S
In221 O228 2.326 . S
In221 O229 2.266 . S
In221 O230 2.326 . S
In221 O232 2.294 . S
In221 O233 2.326 . S
O222 In221 2.294 . S
O222 C231 1.240 . S
O223 In221 2.326 . S
O223 C231 1.252 . S
C224 O227 1.252 . S
C224 O228 1.260 . S
C225 O232 1.240 . S
C225 O233 1.252 . S
C226 O229 1.252 . S
C226 O230 1.260 . S
O227 In221 2.266 . S
O227 C224 1.252 . S
O228 In221 2.326 . S
O228 C224 1.260 . S
O229 In221 2.266 . S
O229 C226 1.252 . S
O230 In221 2.326 . S
O230 C226 1.260 . S
C231 O222 1.240 . S
C231 O223 1.252 . S
O232 In221 2.294 . S
O232 C225 1.240 . S
O233 In221 2.326 . S
O233 C225 1.252 . S
In234 O235 2.294 . S
In234 O236 2.326 . S
In234 O240 2.266 . S
In234 O241 2.326 . S
In234 O242 2.266 . S
In234 O243 2.326 . S
In234 O245 2.294 . S
In234 O246 2.326 . S
O235 In234 2.294 . S
O235 C244 1.240 . S
O236 In234 2.326 . S
O236 C244 1.252 . S
C237 O240 1.252 . S
C237 O241 1.260 . S
C238 O245 1.240 . S
C238 O246 1.252 . S
C239 O242 1.252 . S
C239 O243 1.260 . S
O240 In234 2.266 . S
O240 C237 1.252 . S
O241 In234 2.326 . S
O241 C237 1.260 . S
O242 In234 2.266 . S
O242 C239 1.252 . S
O243 In234 2.326 . S
O243 C239 1.260 . S
C244 O235 1.240 . S
C244 O236 1.252 . S
O245 In234 2.294 . S
O245 C238 1.240 . S
O246 In234 2.326 . S
O246 C238 1.252 . S
In247 O248 2.294 . S
In247 O249 2.326 . S
In247 O253 2.266 . S
In247 O254 2.326 . S
In247 O255 2.266 . S
In247 O256 2.326 . S
In247 O258 2.294 . S
In247 O259 2.326 . S
O248 In247 2.294 . S
O248 C257 1.240 . S
O249 In247 2.326 . S
O249 C257 1.252 . S
C250 O253 1.252 . S
C250 O254 1.260 . S
C251 O258 1.240 . S
C251 O259 1.252 . S
C252 O255 1.252 . S
C252 O256 1.260 . S
O253 In247 2.266 . S
O253 C250 1.252 . S
O254 In247 2.326 . S
O254 C250 1.260 . S
O255 In247 2.266 . S
O255 C252 1.252 . S
O256 In247 2.326 . S
O256 C252 1.260 . S
C257 O248 1.240 . S
C257 O249 1.252 . S
O258 In247 2.294 . S
O258 C251 1.240 . S
O259 In247 2.326 . S
O259 C251 1.252 . S
In260 O261 2.294 . S
In260 O262 2.326 . S
In260 O266 2.266 . S
In260 O267 2.326 . S
In260 O268 2.266 . S
In260 O269 2.326 . S
In260 O271 2.294 . S
In260 O272 2.326 . S
O261 In260 2.294 . S
O261 C270 1.240 . S
O262 In260 2.326 . S
O262 C270 1.252 . S
C263 O266 1.252 . S
C263 O267 1.260 . S
C264 O271 1.240 . S
C264 O272 1.252 . S
C265 O268 1.252 . S
C265 O269 1.260 . S
O266 In260 2.266 . S
O266 C263 1.252 . S
O267 In260 2.326 . S
O267 C263 1.260 . S
O268 In260 2.266 . S
O268 C265 1.252 . S
O269 In260 2.326 . S
O269 C265 1.260 . S
C270 O261 1.240 . S
C270 O262 1.252 . S
O271 In260 2.294 . S
O271 C264 1.240 . S
O272 In260 2.326 . S
O272 C264 1.252 . S
In273 O274 2.294 . S
In273 O275 2.326 . S
In273 O279 2.266 . S
In273 O280 2.326 . S
In273 O281 2.266 . S
In273 O282 2.326 . S
In273 O284 2.294 . S
In273 O285 2.326 . S
O274 In273 2.294 . S
O274 C283 1.240 . S
O275 In273 2.326 . S
O275 C283 1.252 . S
C276 O279 1.252 . S
C276 O280 1.260 . S
C277 O284 1.240 . S
C277 O285 1.252 . S
C278 O281 1.252 . S
C278 O282 1.260 . S
O279 In273 2.266 . S
O279 C276 1.252 . S
O280 In273 2.326 . S
O280 C276 1.260 . S
O281 In273 2.266 . S
O281 C278 1.252 . S
O282 In273 2.326 . S
O282 C278 1.260 . S
C283 O274 1.240 . S
C283 O275 1.252 . S
O284 In273 2.294 . S
O284 C277 1.240 . S
O285 In273 2.326 . S
O285 C277 1.252 . S
In286 O287 2.294 . S
In286 O288 2.326 . S
In286 O292 2.266 . S
In286 O293 2.326 . S
In286 O294 2.266 . S
In286 O295 2.326 . S
In286 O297 2.294 . S
In286 O298 2.326 . S
O287 In286 2.294 . S
O287 C296 1.240 . S
O288 In286 2.326 . S
O288 C296 1.252 . S
C289 O292 1.252 . S
C289 O293 1.260 . S
C290 O297 1.240 . S
C290 O298 1.252 . S
C291 O294 1.252 . S
C291 O295 1.260 . S
O292 In286 2.266 . S
O292 C289 1.252 . S
O293 In286 2.326 . S
O293 C289 1.260 . S
O294 In286 2.266 . S
O294 C291 1.252 . S
O295 In286 2.326 . S
O295 C291 1.260 . S
C296 O287 1.240 . S
C296 O288 1.252 . S
O297 In286 2.294 . S
O297 C290 1.240 . S
O298 In286 2.326 . S
O298 C290 1.252 . S
In299 O300 2.294 . S
In299 O301 2.326 . S
In299 O305 2.266 . S
In299 O306 2.326 . S
In299 O307 2.266 . S
In299 O308 2.326 . S
In299 O310 2.294 . S
In299 O311 2.326 . S
O300 In299 2.294 . S
O300 C309 1.240 . S
O301 In299 2.326 . S
O301 C309 1.252 . S
C302 O305 1.252 . S
C302 O306 1.260 . S
C303 O310 1.240 . S
C303 O311 1.252 . S
C304 O307 1.252 . S
C304 O308 1.260 . S
O305 In299 2.266 . S
O305 C302 1.252 . S
O306 In299 2.326 . S
O306 C302 1.260 . S
O307 In299 2.266 . S
O307 C304 1.252 . S
O308 In299 2.326 . S
O308 C304 1.260 . S
C309 O300 1.240 . S
C309 O301 1.252 . S
O310 In299 2.294 . S
O310 C303 1.240 . S
O311 In299 2.326 . S
O311 C303 1.252 . S
H312 C320 0.929 . S
H313 C322 0.930 . S
H314 C324 0.930 . S
H315 C327 0.929 . S
H316 C330 0.930 . S
H317 C332 0.960 1_565 S
H318 C332 0.960 . S
H319 C332 0.960 . S
C320 H312 0.929 . S
C320 C321 1.377 . S
C320 C322 1.384 . S
C321 C320 1.377 . S
C321 C327 1.390 . S
C322 H313 0.930 . S
C322 C320 1.384 . S
C322 C323 1.372 . S
C323 C322 1.372 . S
C323 C324 1.400 . S
C323 C328 1.490 . S
C324 H314 0.930 . S
C324 C323 1.400 . S
C324 C327 1.386 . S
H325 C341 0.930 . S
H326 C342 0.931 . S
C327 H315 0.929 . S
C327 C321 1.390 . S
C327 C324 1.386 . S
C328 C323 1.490 . S
C328 C330 1.395 . S
C328 C331 1.403 . S
H329 C335 0.930 . S
C330 H316 0.930 . S
C330 C328 1.395 . S
C330 C333 1.403 1_545 S
C331 C328 1.403 . S
C331 C332 1.524 . S
C331 C335 1.400 1_545 S
C332 H317 0.960 1_545 S
C332 H318 0.960 . S
C332 H319 0.960 . S
C332 C331 1.524 . S
C333 C330 1.403 1_565 S
C333 C334 1.392 . S
C333 C337 1.495 . S
C334 C333 1.392 . S
C334 C335 1.385 . S
C334 C336 1.478 . S
C335 H329 0.930 . S
C335 C331 1.400 1_565 S
C335 C334 1.385 . S
C336 C334 1.478 . S
C336 C338 1.381 . S
C336 C342 1.383 . S
C337 C333 1.495 . S
C337 H343 0.959 1_565 S
C337 H344 0.961 . S
C337 H345 0.960 . S
C338 C336 1.381 . S
C338 C339 1.394 . S
C338 H346 0.930 . S
C339 C338 1.394 . S
C339 C340 1.383 . S
C339 H347 0.929 . S
C340 C339 1.383 . S
C340 C341 1.377 . S
C341 H325 0.930 . S
C341 C340 1.377 . S
C341 C342 1.379 . S
C342 H326 0.931 . S
C342 C336 1.383 . S
C342 C341 1.379 . S
H343 C337 0.959 1_545 S
H344 C337 0.961 . S
H345 C337 0.960 . S
H346 C338 0.930 . S
H347 C339 0.929 . S
H348 C356 0.929 . S
H349 C358 0.930 . S
H350 C360 0.930 . S
H351 C363 0.929 . S
H352 C366 0.930 . S
H353 C368 0.960 . S
H354 C368 0.960 . S
H355 C368 0.960 . S
C356 H348 0.929 . S
C356 C357 1.377 . S
C356 C358 1.384 . S
C357 C356 1.377 . S
C357 C363 1.390 . S
C358 H349 0.930 . S
C358 C356 1.384 . S
C358 C359 1.372 . S
C359 C358 1.372 . S
C359 C360 1.400 . S
C359 C364 1.490 . S
C360 H350 0.930 . S
C360 C359 1.400 . S
C360 C363 1.386 . S
H361 C377 0.930 . S
H362 C378 0.931 . S
C363 H351 0.929 . S
C363 C357 1.390 . S
C363 C360 1.386 . S
C364 C359 1.490 . S
C364 C366 1.395 . S
C364 C367 1.403 . S
H365 C371 0.930 . S
C366 H352 0.930 . S
C366 C364 1.395 . S
C366 C369 1.403 . S
C367 C364 1.403 . S
C367 C368 1.524 . S
C367 C371 1.400 . S
C368 H353 0.960 . S
C368 H354 0.960 . S
C368 H355 0.960 . S
C368 C367 1.524 . S
C369 C366 1.403 . S
C369 C370 1.392 . S
C369 C373 1.495 . S
C370 C369 1.392 . S
C370 C371 1.385 . S
C370 C372 1.478 . S
C371 H365 0.930 . S
C371 C367 1.400 . S
C371 C370 1.385 . S
C372 C370 1.478 . S
C372 C374 1.381 . S
C372 C378 1.383 . S
C373 C369 1.495 . S
C373 H379 0.959 . S
C373 H380 0.961 . S
C373 H381 0.960 . S
C374 C372 1.381 . S
C374 C375 1.394 . S
C374 H382 0.930 . S
C375 C374 1.394 . S
C375 C376 1.383 . S
C375 H383 0.929 . S
C376 C375 1.383 . S
C376 C377 1.377 . S
C377 H361 0.930 . S
C377 C376 1.377 . S
C377 C378 1.379 . S
C378 H362 0.931 . S
C378 C372 1.383 . S
C378 C377 1.379 . S
H379 C373 0.959 . S
H380 C373 0.961 . S
H381 C373 0.960 . S
H382 C374 0.930 . S
H383 C375 0.929 . S
H384 C392 0.929 . S
H385 C394 0.930 . S
H386 C396 0.930 . S
H387 C399 0.929 . S
H388 C402 0.930 . S
H389 C404 0.960 1_455 S
H390 C404 0.960 . S
H391 C404 0.960 . S
C392 H384 0.929 . S
C392 C393 1.377 . S
C392 C394 1.384 . S
C393 C392 1.377 . S
C393 C399 1.390 . S
C394 H385 0.930 . S
C394 C392 1.384 . S
C394 C395 1.372 . S
C395 C394 1.372 . S
C395 C396 1.400 . S
C395 C400 1.490 . S
C396 H386 0.930 . S
C396 C395 1.400 . S
C396 C399 1.386 . S
H397 C413 0.930 . S
H398 C414 0.931 . S
C399 H387 0.929 . S
C399 C393 1.390 . S
C399 C396 1.386 . S
C400 C395 1.490 . S
C400 C402 1.395 . S
C400 C403 1.403 . S
H401 C407 0.930 . S
C402 H388 0.930 . S
C402 C400 1.395 . S
C402 C405 1.403 1_655 S
C403 C400 1.403 . S
C403 C404 1.524 . S
C403 C407 1.400 1_655 S
C404 H389 0.960 1_655 S
C404 H390 0.960 . S
C404 H391 0.960 . S
C404 C403 1.524 . S
C405 C402 1.403 1_455 S
C405 C406 1.392 . S
C405 C409 1.495 . S
C406 C405 1.392 . S
C406 C407 1.385 . S
C406 C408 1.478 . S
C407 H401 0.930 . S
C407 C403 1.400 1_455 S
C407 C406 1.385 . S
C408 C406 1.478 . S
C408 C410 1.381 . S
C408 C414 1.383 . S
C409 C405 1.495 . S
C409 H415 0.959 1_455 S
C409 H416 0.961 . S
C409 H417 0.960 . S
C410 C408 1.381 . S
C410 C411 1.394 . S
C410 H418 0.930 . S
C411 C410 1.394 . S
C411 C412 1.383 . S
C411 H419 0.929 . S
C412 C411 1.383 . S
C412 C413 1.377 . S
C413 H397 0.930 . S
C413 C412 1.377 . S
C413 C414 1.379 . S
C414 H398 0.931 . S
C414 C408 1.383 . S
C414 C413 1.379 . S
H415 C409 0.959 1_655 S
H416 C409 0.961 . S
H417 C409 0.960 . S
H418 C410 0.930 . S
H419 C411 0.929 . S
H420 C428 0.929 . S
H421 C430 0.930 . S
H422 C432 0.930 . S
H423 C435 0.929 . S
H424 C438 0.930 . S
H425 C440 0.960 1_545 S
H426 C440 0.960 . S
H427 C440 0.960 . S
C428 H420 0.929 . S
C428 C429 1.377 . S
C428 C430 1.384 . S
C429 C428 1.377 . S
C429 C435 1.390 . S
C430 H421 0.930 . S
C430 C428 1.384 . S
C430 C431 1.372 . S
C431 C430 1.372 . S
C431 C432 1.400 . S
C431 C436 1.490 . S
C432 H422 0.930 . S
C432 C431 1.400 . S
C432 C435 1.386 . S
H433 C449 0.930 . S
H434 C450 0.931 . S
C435 H423 0.929 . S
C435 C429 1.390 . S
C435 C432 1.386 . S
C436 C431 1.490 . S
C436 C438 1.395 . S
C436 C439 1.403 . S
H437 C443 0.930 . S
C438 H424 0.930 . S
C438 C436 1.395 . S
C438 C441 1.403 1_565 S
C439 C436 1.403 . S
C439 C440 1.524 . S
C439 C443 1.400 1_565 S
C440 H425 0.960 1_565 S
C440 H426 0.960 . S
C440 H427 0.960 . S
C440 C439 1.524 . S
C441 C438 1.403 1_545 S
C441 C442 1.392 . S
C441 C445 1.495 . S
C442 C441 1.392 . S
C442 C443 1.385 . S
C442 C444 1.478 . S
C443 H437 0.930 . S
C443 C439 1.400 1_545 S
C443 C442 1.385 . S
C444 C442 1.478 . S
C444 C446 1.381 . S
C444 C450 1.383 . S
C445 C441 1.495 . S
C445 H451 0.959 1_545 S
C445 H452 0.961 . S
C445 H453 0.960 . S
C446 C444 1.381 . S
C446 C447 1.394 . S
C446 H454 0.930 . S
C447 C446 1.394 . S
C447 C448 1.383 . S
C447 H455 0.929 . S
C448 C447 1.383 . S
C448 C449 1.377 . S
C449 H433 0.930 . S
C449 C448 1.377 . S
C449 C450 1.379 . S
C450 H434 0.931 . S
C450 C444 1.383 . S
C450 C449 1.379 . S
H451 C445 0.959 1_565 S
H452 C445 0.961 . S
H453 C445 0.960 . S
H454 C446 0.930 . S
H455 C447 0.929 . S
H456 C464 0.929 . S
H457 C466 0.930 . S
H458 C468 0.930 . S
H459 C471 0.929 . S
H460 C474 0.930 . S
H461 C476 0.960 . S
H462 C476 0.960 . S
H463 C476 0.960 . S
C464 H456 0.929 . S
C464 C465 1.377 . S
C464 C466 1.384 . S
C465 C464 1.377 . S
C465 C471 1.390 . S
C466 H457 0.930 . S
C466 C464 1.384 . S
C466 C467 1.372 . S
C467 C466 1.372 . S
C467 C468 1.400 . S
C467 C472 1.490 . S
C468 H458 0.930 . S
C468 C467 1.400 . S
C468 C471 1.386 . S
H469 C485 0.930 . S
H470 C486 0.931 . S
C471 H459 0.929 . S
C471 C465 1.390 . S
C471 C468 1.386 . S
C472 C467 1.490 . S
C472 C474 1.395 . S
C472 C475 1.403 . S
H473 C479 0.930 . S
C474 H460 0.930 . S
C474 C472 1.395 . S
C474 C477 1.403 . S
C475 C472 1.403 . S
C475 C476 1.524 . S
C475 C479 1.400 . S
C476 H461 0.960 . S
C476 H462 0.960 . S
C476 H463 0.960 . S
C476 C475 1.524 . S
C477 C474 1.403 . S
C477 C478 1.392 . S
C477 C481 1.495 . S
C478 C477 1.392 . S
C478 C479 1.385 . S
C478 C480 1.478 . S
C479 H473 0.930 . S
C479 C475 1.400 . S
C479 C478 1.385 . S
C480 C478 1.478 . S
C480 C482 1.381 . S
C480 C486 1.383 . S
C481 C477 1.495 . S
C481 H487 0.959 . S
C481 H488 0.961 . S
C481 H489 0.960 . S
C482 C480 1.381 . S
C482 C483 1.394 . S
C482 H490 0.930 . S
C483 C482 1.394 . S
C483 C484 1.383 . S
C483 H491 0.929 . S
C484 C483 1.383 . S
C484 C485 1.377 . S
C485 H469 0.930 . S
C485 C484 1.377 . S
C485 C486 1.379 . S
C486 H470 0.931 . S
C486 C480 1.383 . S
C486 C485 1.379 . S
H487 C481 0.959 . S
H488 C481 0.961 . S
H489 C481 0.960 . S
H490 C482 0.930 . S
H491 C483 0.929 . S
H492 C500 0.929 . S
H493 C502 0.930 . S
H494 C504 0.930 . S
H495 C507 0.929 . S
H496 C510 0.930 . S
H497 C512 0.960 . S
H498 C512 0.960 . S
H499 C512 0.960 . S
C500 H492 0.929 . S
C500 C501 1.377 . S
C500 C502 1.384 . S
C501 C500 1.377 . S
C501 C507 1.390 . S
C502 H493 0.930 . S
C502 C500 1.384 . S
C502 C503 1.372 . S
C503 C502 1.372 . S
C503 C504 1.400 . S
C503 C508 1.490 . S
C504 H494 0.930 . S
C504 C503 1.400 . S
C504 C507 1.386 . S
H505 C521 0.930 . S
H506 C522 0.931 . S
C507 H495 0.929 . S
C507 C501 1.390 . S
C507 C504 1.386 . S
C508 C503 1.490 . S
C508 C510 1.395 . S
C508 C511 1.403 . S
H509 C515 0.930 . S
C510 H496 0.930 . S
C510 C508 1.395 . S
C510 C513 1.403 1_455 S
C511 C508 1.403 . S
C511 C512 1.524 . S
C511 C515 1.400 1_455 S
C512 H497 0.960 . S
C512 H498 0.960 . S
C512 H499 0.960 . S
C512 C511 1.524 . S
C513 C510 1.403 1_655 S
C513 C514 1.392 . S
C513 C517 1.495 . S
C514 C513 1.392 . S
C514 C515 1.385 . S
C514 C516 1.478 . S
C515 H509 0.930 . S
C515 C511 1.400 1_655 S
C515 C514 1.385 . S
C516 C514 1.478 . S
C516 C518 1.381 . S
C516 C522 1.383 . S
C517 C513 1.495 . S
C517 H523 0.959 . S
C517 H524 0.961 . S
C517 H525 0.960 . S
C518 C516 1.381 . S
C518 C519 1.394 . S
C518 H526 0.930 . S
C519 C518 1.394 . S
C519 C520 1.383 . S
C519 H527 0.929 . S
C520 C519 1.383 . S
C520 C521 1.377 . S
C521 H505 0.930 . S
C521 C520 1.377 . S
C521 C522 1.379 . S
C522 H506 0.931 . S
C522 C516 1.383 . S
C522 C521 1.379 . S
H523 C517 0.959 . S
H524 C517 0.961 . S
H525 C517 0.960 . S
H526 C518 0.930 . S
H527 C519 0.929 . S
H528 C536 0.929 . S
H529 C538 0.930 . S
H530 C540 0.930 . S
H531 C543 0.929 . S
H532 C546 0.930 . S
H533 C548 0.960 . S
H534 C548 0.960 . S
H535 C548 0.960 . S
C536 H528 0.929 . S
C536 C537 1.377 . S
C536 C538 1.384 . S
C537 C536 1.377 . S
C537 C543 1.390 . S
C538 H529 0.930 . S
C538 C536 1.384 . S
C538 C539 1.372 . S
C539 C538 1.372 . S
C539 C540 1.400 . S
C539 C544 1.490 . S
C540 H530 0.930 . S
C540 C539 1.400 . S
C540 C543 1.386 . S
H541 C557 0.930 . S
H542 C558 0.931 . S
C543 H531 0.929 . S
C543 C537 1.390 . S
C543 C540 1.386 . S
C544 C539 1.490 . S
C544 C546 1.395 . S
C544 C547 1.403 . S
H545 C551 0.930 . S
C546 H532 0.930 . S
C546 C544 1.395 . S
C546 C549 1.403 1_565 S
C547 C544 1.403 . S
C547 C548 1.524 . S
C547 C551 1.400 1_565 S
C548 H533 0.960 . S
C548 H534 0.960 . S
C548 H535 0.960 . S
C548 C547 1.524 . S
C549 C546 1.403 1_545 S
C549 C550 1.392 . S
C549 C553 1.495 . S
C550 C549 1.392 . S
C550 C551 1.385 . S
C550 C552 1.478 . S
C551 H545 0.930 . S
C551 C547 1.400 1_545 S
C551 C550 1.385 . S
C552 C550 1.478 . S
C552 C554 1.381 . S
C552 C558 1.383 . S
C553 C549 1.495 . S
C553 H559 0.959 . S
C553 H560 0.961 . S
C553 H561 0.960 . S
C554 C552 1.381 . S
C554 C555 1.394 . S
C554 H562 0.930 . S
C555 C554 1.394 . S
C555 C556 1.383 . S
C555 H563 0.929 . S
C556 C555 1.383 . S
C556 C557 1.377 . S
C557 H541 0.930 . S
C557 C556 1.377 . S
C557 C558 1.379 . S
C558 H542 0.931 . S
C558 C552 1.383 . S
C558 C557 1.379 . S
H559 C553 0.959 . S
H560 C553 0.961 . S
H561 C553 0.960 . S
H562 C554 0.930 . S
H563 C555 0.929 . S
H564 C572 0.929 . S
H565 C574 0.930 . S
H566 C576 0.930 . S
H567 C579 0.929 . S
H568 C582 0.930 . S
H569 C584 0.960 . S
H570 C584 0.960 . S
H571 C584 0.960 . S
C572 H564 0.929 . S
C572 C573 1.377 . S
C572 C574 1.384 . S
C573 C572 1.377 . S
C573 C579 1.390 . S
C574 H565 0.930 . S
C574 C572 1.384 . S
C574 C575 1.372 . S
C575 C574 1.372 . S
C575 C576 1.400 . S
C575 C580 1.490 . S
C576 H566 0.930 . S
C576 C575 1.400 . S
C576 C579 1.386 . S
H577 C593 0.930 . S
H578 C594 0.931 . S
C579 H567 0.929 . S
C579 C573 1.390 . S
C579 C576 1.386 . S
C580 C575 1.490 . S
C580 C582 1.395 . S
C580 C583 1.403 . S
H581 C587 0.930 . S
C582 H568 0.930 . S
C582 C580 1.395 . S
C582 C585 1.403 . S
C583 C580 1.403 . S
C583 C584 1.524 . S
C583 C587 1.400 . S
C584 H569 0.960 . S
C584 H570 0.960 . S
C584 H571 0.960 . S
C584 C583 1.524 . S
C585 C582 1.403 . S
C585 C586 1.392 . S
C585 C589 1.495 . S
C586 C585 1.392 . S
C586 C587 1.385 . S
C586 C588 1.478 . S
C587 H581 0.930 . S
C587 C583 1.400 . S
C587 C586 1.385 . S
C588 C586 1.478 . S
C588 C590 1.381 . S
C588 C594 1.383 . S
C589 C585 1.495 . S
C589 H595 0.959 . S
C589 H596 0.961 . S
C589 H597 0.960 . S
C590 C588 1.381 . S
C590 C591 1.394 . S
C590 H598 0.930 . S
C591 C590 1.394 . S
C591 C592 1.383 . S
C591 H599 0.929 . S
C592 C591 1.383 . S
C592 C593 1.377 . S
C593 H577 0.930 . S
C593 C592 1.377 . S
C593 C594 1.379 . S
C594 H578 0.931 . S
C594 C588 1.383 . S
C594 C593 1.379 . S
H595 C589 0.959 . S
H596 C589 0.961 . S
H597 C589 0.960 . S
H598 C590 0.930 . S
H599 C591 0.929 . S
H600 C608 0.929 . S
H601 C610 0.930 . S
H602 C612 0.930 . S
H603 C615 0.929 . S
H604 C618 0.930 . S
H605 C620 0.960 1_455 S
H606 C620 0.960 . S
H607 C620 0.960 . S
C608 H600 0.929 . S
C608 C609 1.377 . S
C608 C610 1.384 . S
C609 C608 1.377 . S
C609 C615 1.390 . S
C610 H601 0.930 . S
C610 C608 1.384 . S
C610 C611 1.372 . S
C611 C610 1.372 . S
C611 C612 1.400 . S
C611 C616 1.490 . S
C612 H602 0.930 . S
C612 C611 1.400 . S
C612 C615 1.386 . S
H613 C629 0.930 . S
H614 C630 0.931 . S
C615 H603 0.929 . S
C615 C609 1.390 . S
C615 C612 1.386 . S
C616 C611 1.490 . S
C616 C618 1.395 . S
C616 C619 1.403 . S
H617 C623 0.930 . S
C618 H604 0.930 . S
C618 C616 1.395 . S
C618 C621 1.403 1_655 S
C619 C616 1.403 . S
C619 C620 1.524 . S
C619 C623 1.400 1_655 S
C620 H605 0.960 1_655 S
C620 H606 0.960 . S
C620 H607 0.960 . S
C620 C619 1.524 . S
C621 C618 1.403 1_455 S
C621 C622 1.392 . S
C621 C625 1.495 . S
C622 C621 1.392 . S
C622 C623 1.385 . S
C622 C624 1.478 . S
C623 H617 0.930 . S
C623 C619 1.400 1_455 S
C623 C622 1.385 . S
C624 C622 1.478 . S
C624 C626 1.381 . S
C624 C630 1.383 . S
C625 C621 1.495 . S
C625 H631 0.959 1_455 S
C625 H632 0.961 . S
C625 H633 0.960 . S
C626 C624 1.381 . S
C626 C627 1.394 . S
C626 H634 0.930 . S
C627 C626 1.394 . S
C627 C628 1.383 . S
C627 H635 0.929 . S
C628 C627 1.383 . S
C628 C629 1.377 . S
C629 H613 0.930 . S
C629 C628 1.377 . S
C629 C630 1.379 . S
C630 H614 0.931 . S
C630 C624 1.383 . S
C630 C629 1.379 . S
H631 C625 0.959 1_655 S
H632 C625 0.961 . S
H633 C625 0.960 . S
H634 C626 0.930 . S
H635 C627 0.929 . S
H636 C644 0.929 . S
H637 C646 0.930 . S
H638 C648 0.930 . S
H639 C651 0.929 . S
H640 C654 0.930 . S
H641 C656 0.960 . S
H642 C656 0.960 . S
H643 C656 0.960 . S
C644 H636 0.929 . S
C644 C645 1.377 . S
C644 C646 1.384 . S
C645 C644 1.377 . S
C645 C651 1.390 . S
C646 H637 0.930 . S
C646 C644 1.384 . S
C646 C647 1.372 . S
C647 C646 1.372 . S
C647 C648 1.400 . S
C647 C652 1.490 . S
C648 H638 0.930 . S
C648 C647 1.400 . S
C648 C651 1.386 . S
H649 C665 0.930 . S
H650 C666 0.931 . S
C651 H639 0.929 . S
C651 C645 1.390 . S
C651 C648 1.386 . S
C652 C647 1.490 . S
C652 C654 1.395 . S
C652 C655 1.403 . S
H653 C659 0.930 . S
C654 H640 0.930 . S
C654 C652 1.395 . S
C654 C657 1.403 1_545 S
C655 C652 1.403 . S
C655 C656 1.524 . S
C655 C659 1.400 1_545 S
C656 H641 0.960 . S
C656 H642 0.960 . S
C656 H643 0.960 . S
C656 C655 1.524 . S
C657 C654 1.403 1_565 S
C657 C658 1.392 . S
C657 C661 1.495 . S
C658 C657 1.392 . S
C658 C659 1.385 . S
C658 C660 1.478 . S
C659 H653 0.930 . S
C659 C655 1.400 1_565 S
C659 C658 1.385 . S
C660 C658 1.478 . S
C660 C662 1.381 . S
C660 C666 1.383 . S
C661 C657 1.495 . S
C661 H667 0.959 . S
C661 H668 0.961 . S
C661 H669 0.960 . S
C662 C660 1.381 . S
C662 C663 1.394 . S
C662 H670 0.930 . S
C663 C662 1.394 . S
C663 C664 1.383 . S
C663 H671 0.929 . S
C664 C663 1.383 . S
C664 C665 1.377 . S
C665 H649 0.930 . S
C665 C664 1.377 . S
C665 C666 1.379 . S
C666 H650 0.931 . S
C666 C660 1.383 . S
C666 C665 1.379 . S
H667 C661 0.959 . S
H668 C661 0.961 . S
H669 C661 0.960 . S
H670 C662 0.930 . S
H671 C663 0.929 . S
H672 C680 0.929 . S
H673 C682 0.930 . S
H674 C684 0.930 . S
H675 C687 0.929 . S
H676 C690 0.930 . S
H677 C692 0.960 . S
H678 C692 0.960 . S
H679 C692 0.960 . S
C680 H672 0.929 . S
C680 C681 1.377 . S
C680 C682 1.384 . S
C681 C680 1.377 . S
C681 C687 1.390 . S
C682 H673 0.930 . S
C682 C680 1.384 . S
C682 C683 1.372 . S
C683 C682 1.372 . S
C683 C684 1.400 . S
C683 C688 1.490 . S
C684 H674 0.930 . S
C684 C683 1.400 . S
C684 C687 1.386 . S
H685 C701 0.930 . S
H686 C702 0.931 . S
C687 H675 0.929 . S
C687 C681 1.390 . S
C687 C684 1.386 . S
C688 C683 1.490 . S
C688 C690 1.395 . S
C688 C691 1.403 . S
H689 C695 0.930 . S
C690 H676 0.930 . S
C690 C688 1.395 . S
C690 C693 1.403 . S
C691 C688 1.403 . S
C691 C692 1.524 . S
C691 C695 1.400 . S
C692 H677 0.960 . S
C692 H678 0.960 . S
C692 H679 0.960 . S
C692 C691 1.524 . S
C693 C690 1.403 . S
C693 C694 1.392 . S
C693 C697 1.495 . S
C694 C693 1.392 . S
C694 C695 1.385 . S
C694 C696 1.478 . S
C695 H689 0.930 . S
C695 C691 1.400 . S
C695 C694 1.385 . S
C696 C694 1.478 . S
C696 C698 1.381 . S
C696 C702 1.383 . S
C697 C693 1.495 . S
C697 H703 0.959 . S
C697 H704 0.961 . S
C697 H705 0.960 . S
C698 C696 1.381 . S
C698 C699 1.394 . S
C698 H706 0.930 . S
C699 C698 1.394 . S
C699 C700 1.383 . S
C699 H707 0.929 . S
C700 C699 1.383 . S
C700 C701 1.377 . S
C701 H685 0.930 . S
C701 C700 1.377 . S
C701 C702 1.379 . S
C702 H686 0.931 . S
C702 C696 1.383 . S
C702 C701 1.379 . S
H703 C697 0.959 . S
H704 C697 0.961 . S
H705 C697 0.960 . S
H706 C698 0.930 . S
H707 C699 0.929 . S
H708 C716 0.929 . S
H709 C718 0.930 . S
H710 C720 0.930 . S
H711 C723 0.929 . S
H712 C726 0.930 . S
H713 C728 0.960 . S
H714 C728 0.960 . S
H715 C728 0.960 . S
C716 H708 0.929 . S
C716 C717 1.377 . S
C716 C718 1.384 . S
C717 C716 1.377 . S
C717 C723 1.390 . S
C718 H709 0.930 . S
C718 C716 1.384 . S
C718 C719 1.372 . S
C719 C718 1.372 . S
C719 C720 1.400 . S
C719 C724 1.490 . S
C720 H710 0.930 . S
C720 C719 1.400 . S
C720 C723 1.386 . S
H721 C737 0.930 . S
H722 C738 0.931 . S
C723 H711 0.929 . S
C723 C717 1.390 . S
C723 C720 1.386 . S
C724 C719 1.490 . S
C724 C726 1.395 . S
C724 C727 1.403 . S
H725 C731 0.930 . S
C726 H712 0.930 . S
C726 C724 1.395 . S
C726 C729 1.403 1_455 S
C727 C724 1.403 . S
C727 C728 1.524 . S
C727 C731 1.400 1_455 S
C728 H713 0.960 . S
C728 H714 0.960 . S
C728 H715 0.960 . S
C728 C727 1.524 . S
C729 C726 1.403 1_655 S
C729 C730 1.392 . S
C729 C733 1.495 . S
C730 C729 1.392 . S
C730 C731 1.385 . S
C730 C732 1.478 . S
C731 H725 0.930 . S
C731 C727 1.400 1_655 S
C731 C730 1.385 . S
C732 C730 1.478 . S
C732 C734 1.381 . S
C732 C738 1.383 . S
C733 C729 1.495 . S
C733 H739 0.959 . S
C733 H740 0.961 . S
C733 H741 0.960 . S
C734 C732 1.381 . S
C734 C735 1.394 . S
C734 H742 0.930 . S
C735 C734 1.394 . S
C735 C736 1.383 . S
C735 H743 0.929 . S
C736 C735 1.383 . S
C736 C737 1.377 . S
C737 H721 0.930 . S
C737 C736 1.377 . S
C737 C738 1.379 . S
C738 H722 0.931 . S
C738 C732 1.383 . S
C738 C737 1.379 . S
H739 C733 0.959 . S
H740 C733 0.961 . S
H741 C733 0.960 . S
H742 C734 0.930 . S
H743 C735 0.929 . S
H744 C752 0.929 . S
H745 C754 0.930 . S
H746 C756 0.930 . S
H747 C759 0.929 . S
H748 C762 0.930 . S
H749 C764 0.960 . S
H750 C764 0.960 . S
H751 C764 0.960 . S
C752 H744 0.929 . S
C752 C753 1.377 . S
C752 C754 1.384 . S
C753 C752 1.377 . S
C753 C759 1.390 . S
C754 H745 0.930 . S
C754 C752 1.384 . S
C754 C755 1.372 . S
C755 C754 1.372 . S
C755 C756 1.400 . S
C755 C760 1.490 . S
C756 H746 0.930 . S
C756 C755 1.400 . S
C756 C759 1.386 . S
H757 C773 0.930 . S
H758 C774 0.931 . S
C759 H747 0.929 . S
C759 C753 1.390 . S
C759 C756 1.386 . S
C760 C755 1.490 . S
C760 C762 1.395 . S
C760 C763 1.403 . S
H761 C767 0.930 . S
C762 H748 0.930 . S
C762 C760 1.395 . S
C762 C765 1.403 . S
C763 C760 1.403 . S
C763 C764 1.524 . S
C763 C767 1.400 . S
C764 H749 0.960 . S
C764 H750 0.960 . S
C764 H751 0.960 . S
C764 C763 1.524 . S
C765 C762 1.403 . S
C765 C766 1.392 . S
C765 C769 1.495 . S
C766 C765 1.392 . S
C766 C767 1.385 . S
C766 C768 1.478 . S
C767 H761 0.930 . S
C767 C763 1.400 . S
C767 C766 1.385 . S
C768 C766 1.478 . S
C768 C770 1.381 . S
C768 C774 1.383 . S
C769 C765 1.495 . S
C769 H775 0.959 . S
C769 H776 0.961 . S
C769 H777 0.960 . S
C770 C768 1.381 . S
C770 C771 1.394 . S
C770 H778 0.930 . S
C771 C770 1.394 . S
C771 C772 1.383 . S
C771 H779 0.929 . S
C772 C771 1.383 . S
C772 C773 1.377 . S
C773 H757 0.930 . S
C773 C772 1.377 . S
C773 C774 1.379 . S
C774 H758 0.931 . S
C774 C768 1.383 . S
C774 C773 1.379 . S
H775 C769 0.959 . S
H776 C769 0.961 . S
H777 C769 0.960 . S
H778 C770 0.930 . S
H779 C771 0.929 . S
H780 C788 0.929 . S
H781 C790 0.930 . S
H782 C792 0.930 . S
H783 C795 0.929 . S
H784 C798 0.930 . S
H785 C800 0.960 . S
H786 C800 0.960 . S
H787 C800 0.960 . S
C788 H780 0.929 . S
C788 C789 1.377 . S
C788 C790 1.384 . S
C789 C788 1.377 . S
C789 C795 1.390 . S
C790 H781 0.930 . S
C790 C788 1.384 . S
C790 C791 1.372 . S
C791 C790 1.372 . S
C791 C792 1.400 . S
C791 C796 1.490 . S
C792 H782 0.930 . S
C792 C791 1.400 . S
C792 C795 1.386 . S
H793 C809 0.930 . S
H794 C810 0.931 . S
C795 H783 0.929 . S
C795 C789 1.390 . S
C795 C792 1.386 . S
C796 C791 1.490 . S
C796 C798 1.395 . S
C796 C799 1.403 . S
H797 C803 0.930 . S
C798 H784 0.930 . S
C798 C796 1.395 . S
C798 C801 1.403 . S
C799 C796 1.403 . S
C799 C800 1.524 . S
C799 C803 1.400 . S
C800 H785 0.960 . S
C800 H786 0.960 . S
C800 H787 0.960 . S
C800 C799 1.524 . S
C801 C798 1.403 . S
C801 C802 1.392 . S
C801 C805 1.495 . S
C802 C801 1.392 . S
C802 C803 1.385 . S
C802 C804 1.478 . S
C803 H797 0.930 . S
C803 C799 1.400 . S
C803 C802 1.385 . S
C804 C802 1.478 . S
C804 C806 1.381 . S
C804 C810 1.383 . S
C805 C801 1.495 . S
C805 H811 0.959 . S
C805 H812 0.961 . S
C805 H813 0.960 . S
C806 C804 1.381 . S
C806 C807 1.394 . S
C806 H814 0.930 . S
C807 C806 1.394 . S
C807 C808 1.383 . S
C807 H815 0.929 . S
C808 C807 1.383 . S
C808 C809 1.377 . S
C809 H793 0.930 . S
C809 C808 1.377 . S
C809 C810 1.379 . S
C810 H794 0.931 . S
C810 C804 1.383 . S
C810 C809 1.379 . S
H811 C805 0.959 . S
H812 C805 0.961 . S
H813 C805 0.960 . S
H814 C806 0.930 . S
H815 C807 0.929 . S
H816 C824 0.929 . S
H817 C826 0.930 . S
H818 C828 0.930 . S
H819 C831 0.929 . S
H820 C834 0.930 . S
H821 C836 0.960 . S
H822 C836 0.960 . S
H823 C836 0.960 . S
C824 H816 0.929 . S
C824 C825 1.377 . S
C824 C826 1.384 . S
C825 C824 1.377 . S
C825 C831 1.390 . S
C826 H817 0.930 . S
C826 C824 1.384 . S
C826 C827 1.372 . S
C827 C826 1.372 . S
C827 C828 1.400 . S
C827 C832 1.490 . S
C828 H818 0.930 . S
C828 C827 1.400 . S
C828 C831 1.386 . S
H829 C845 0.930 . S
H830 C846 0.931 . S
C831 H819 0.929 . S
C831 C825 1.390 . S
C831 C828 1.386 . S
C832 C827 1.490 . S
C832 C834 1.395 . S
C832 C835 1.403 . S
H833 C839 0.930 . S
C834 H820 0.930 . S
C834 C832 1.395 . S
C834 C837 1.403 . S
C835 C832 1.403 . S
C835 C836 1.524 . S
C835 C839 1.400 . S
C836 H821 0.960 . S
C836 H822 0.960 . S
C836 H823 0.960 . S
C836 C835 1.524 . S
C837 C834 1.403 . S
C837 C838 1.392 . S
C837 C841 1.495 . S
C838 C837 1.392 . S
C838 C839 1.385 . S
C838 C840 1.478 . S
C839 H833 0.930 . S
C839 C835 1.400 . S
C839 C838 1.385 . S
C840 C838 1.478 . S
C840 C842 1.381 . S
C840 C846 1.383 . S
C841 C837 1.495 . S
C841 H847 0.959 . S
C841 H848 0.961 . S
C841 H849 0.960 . S
C842 C840 1.381 . S
C842 C843 1.394 . S
C842 H850 0.930 . S
C843 C842 1.394 . S
C843 C844 1.383 . S
C843 H851 0.929 . S
C844 C843 1.383 . S
C844 C845 1.377 . S
C845 H829 0.930 . S
C845 C844 1.377 . S
C845 C846 1.379 . S
C846 H830 0.931 . S
C846 C840 1.383 . S
C846 C845 1.379 . S
H847 C841 0.959 . S
H848 C841 0.961 . S
H849 C841 0.960 . S
H850 C842 0.930 . S
H851 C843 0.929 . S
H852 C860 0.929 . S
H853 C862 0.930 . S
H854 C864 0.930 . S
H855 C867 0.929 . S
H856 C870 0.930 . S
H857 C872 0.960 . S
H858 C872 0.960 . S
H859 C872 0.960 . S
C860 H852 0.929 . S
C860 C861 1.377 . S
C860 C862 1.384 . S
C861 C860 1.377 . S
C861 C867 1.390 . S
C862 H853 0.930 . S
C862 C860 1.384 . S
C862 C863 1.372 . S
C863 C862 1.372 . S
C863 C864 1.400 . S
C863 C868 1.490 . S
C864 H854 0.930 . S
C864 C863 1.400 . S
C864 C867 1.386 . S
H865 C881 0.930 . S
H866 C882 0.931 . S
C867 H855 0.929 . S
C867 C861 1.390 . S
C867 C864 1.386 . S
C868 C863 1.490 . S
C868 C870 1.395 . S
C868 C871 1.403 . S
H869 C875 0.930 . S
C870 H856 0.930 . S
C870 C868 1.395 . S
C870 C873 1.403 . S
C871 C868 1.403 . S
C871 C872 1.524 . S
C871 C875 1.400 . S
C872 H857 0.960 . S
C872 H858 0.960 . S
C872 H859 0.960 . S
C872 C871 1.524 . S
C873 C870 1.403 . S
C873 C874 1.392 . S
C873 C877 1.495 . S
C874 C873 1.392 . S
C874 C875 1.385 . S
C874 C876 1.478 . S
C875 H869 0.930 . S
C875 C871 1.400 . S
C875 C874 1.385 . S
C876 C874 1.478 . S
C876 C878 1.381 . S
C876 C882 1.383 . S
C877 C873 1.495 . S
C877 H883 0.959 . S
C877 H884 0.961 . S
C877 H885 0.960 . S
C878 C876 1.381 . S
C878 C879 1.394 . S
C878 H886 0.930 . S
C879 C878 1.394 . S
C879 C880 1.383 . S
C879 H887 0.929 . S
C880 C879 1.383 . S
C880 C881 1.377 . S
C881 H865 0.930 . S
C881 C880 1.377 . S
C881 C882 1.379 . S
C882 H866 0.931 . S
C882 C876 1.383 . S
C882 C881 1.379 . S
H883 C877 0.959 . S
H884 C877 0.961 . S
H885 C877 0.960 . S
H886 C878 0.930 . S
H887 C879 0.929 . S
H888 C896 0.929 . S
H889 C898 0.930 . S
H890 C900 0.930 . S
H891 C903 0.929 . S
H892 C906 0.930 . S
H893 C908 0.960 . S
H894 C908 0.960 . S
H895 C908 0.960 . S
C896 H888 0.929 . S
C896 C897 1.377 . S
C896 C898 1.384 . S
C897 C896 1.377 . S
C897 C903 1.390 . S
C898 H889 0.930 . S
C898 C896 1.384 . S
C898 C899 1.372 . S
C899 C898 1.372 . S
C899 C900 1.400 . S
C899 C904 1.490 . S
C900 H890 0.930 . S
C900 C899 1.400 . S
C900 C903 1.386 . S
H901 C917 0.930 . S
H902 C918 0.931 . S
C903 H891 0.929 . S
C903 C897 1.390 . S
C903 C900 1.386 . S
C904 C899 1.490 . S
C904 C906 1.395 . S
C904 C907 1.403 . S
H905 C911 0.930 . S
C906 H892 0.930 . S
C906 C904 1.395 . S
C906 C909 1.403 . S
C907 C904 1.403 . S
C907 C908 1.524 . S
C907 C911 1.400 . S
C908 H893 0.960 . S
C908 H894 0.960 . S
C908 H895 0.960 . S
C908 C907 1.524 . S
C909 C906 1.403 . S
C909 C910 1.392 . S
C909 C913 1.495 . S
C910 C909 1.392 . S
C910 C911 1.385 . S
C910 C912 1.478 . S
C911 H905 0.930 . S
C911 C907 1.400 . S
C911 C910 1.385 . S
C912 C910 1.478 . S
C912 C914 1.381 . S
C912 C918 1.383 . S
C913 C909 1.495 . S
C913 H919 0.959 . S
C913 H920 0.961 . S
C913 H921 0.960 . S
C914 C912 1.381 . S
C914 C915 1.394 . S
C914 H922 0.930 . S
C915 C914 1.394 . S
C915 C916 1.383 . S
C915 H923 0.929 . S
C916 C915 1.383 . S
C916 C917 1.377 . S
C917 H901 0.930 . S
C917 C916 1.377 . S
C917 C918 1.379 . S
C918 H902 0.931 . S
C918 C912 1.383 . S
C918 C917 1.379 . S
H919 C913 0.959 . S
H920 C913 0.961 . S
H921 C913 0.960 . S
H922 C914 0.930 . S
H923 C915 0.929 . S
H924 C932 0.929 . S
H925 C934 0.930 . S
H926 C936 0.930 . S
H927 C939 0.929 . S
H928 C942 0.930 . S
H929 C944 0.960 . S
H930 C944 0.960 . S
H931 C944 0.960 . S
C932 H924 0.929 . S
C932 C933 1.377 . S
C932 C934 1.384 . S
C933 C932 1.377 . S
C933 C939 1.390 . S
C934 H925 0.930 . S
C934 C932 1.384 . S
C934 C935 1.372 . S
C935 C934 1.372 . S
C935 C936 1.400 . S
C935 C940 1.490 . S
C936 H926 0.930 . S
C936 C935 1.400 . S
C936 C939 1.386 . S
H937 C953 0.930 . S
H938 C954 0.931 . S
C939 H927 0.929 . S
C939 C933 1.390 . S
C939 C936 1.386 . S
C940 C935 1.490 . S
C940 C942 1.395 . S
C940 C943 1.403 . S
H941 C947 0.930 . S
C942 H928 0.930 . S
C942 C940 1.395 . S
C942 C945 1.403 . S
C943 C940 1.403 . S
C943 C944 1.524 . S
C943 C947 1.400 . S
C944 H929 0.960 . S
C944 H930 0.960 . S
C944 H931 0.960 . S
C944 C943 1.524 . S
C945 C942 1.403 . S
C945 C946 1.392 . S
C945 C949 1.495 . S
C946 C945 1.392 . S
C946 C947 1.385 . S
C946 C948 1.478 . S
C947 H941 0.930 . S
C947 C943 1.400 . S
C947 C946 1.385 . S
C948 C946 1.478 . S
C948 C950 1.381 . S
C948 C954 1.383 . S
C949 C945 1.495 . S
C949 H955 0.959 . S
C949 H956 0.961 . S
C949 H957 0.960 . S
C950 C948 1.381 . S
C950 C951 1.394 . S
C950 H958 0.930 . S
C951 C950 1.394 . S
C951 C952 1.383 . S
C951 H959 0.929 . S
C952 C951 1.383 . S
C952 C953 1.377 . S
C953 H937 0.930 . S
C953 C952 1.377 . S
C953 C954 1.379 . S
C954 H938 0.931 . S
C954 C948 1.383 . S
C954 C953 1.379 . S
H955 C949 0.959 . S
H956 C949 0.961 . S
H957 C949 0.960 . S
H958 C950 0.930 . S
H959 C951 0.929 . S
H960 C968 0.929 . S
H961 C970 0.930 . S
H962 C972 0.930 . S
H963 C975 0.929 . S
H964 C978 0.930 . S
H965 C980 0.960 . S
H966 C980 0.960 . S
H967 C980 0.960 . S
C968 H960 0.929 . S
C968 C969 1.377 . S
C968 C970 1.384 . S
C969 C968 1.377 . S
C969 C975 1.390 . S
C970 H961 0.930 . S
C970 C968 1.384 . S
C970 C971 1.372 . S
C971 C970 1.372 . S
C971 C972 1.400 . S
C971 C976 1.490 . S
C972 H962 0.930 . S
C972 C971 1.400 . S
C972 C975 1.386 . S
H973 C989 0.930 . S
H974 C990 0.931 . S
C975 H963 0.929 . S
C975 C969 1.390 . S
C975 C972 1.386 . S
C976 C971 1.490 . S
C976 C978 1.395 . S
C976 C979 1.403 . S
H977 C983 0.930 . S
C978 H964 0.930 . S
C978 C976 1.395 . S
C978 C981 1.403 . S
C979 C976 1.403 . S
C979 C980 1.524 . S
C979 C983 1.400 . S
C980 H965 0.960 . S
C980 H966 0.960 . S
C980 H967 0.960 . S
C980 C979 1.524 . S
C981 C978 1.403 . S
C981 C982 1.392 . S
C981 C985 1.495 . S
C982 C981 1.392 . S
C982 C983 1.385 . S
C982 C984 1.478 . S
C983 H977 0.930 . S
C983 C979 1.400 . S
C983 C982 1.385 . S
C984 C982 1.478 . S
C984 C986 1.381 . S
C984 C990 1.383 . S
C985 C981 1.495 . S
C985 H991 0.959 . S
C985 H992 0.961 . S
C985 H993 0.960 . S
C986 C984 1.381 . S
C986 C987 1.394 . S
C986 H994 0.930 . S
C987 C986 1.394 . S
C987 C988 1.383 . S
C987 H995 0.929 . S
C988 C987 1.383 . S
C988 C989 1.377 . S
C989 H973 0.930 . S
C989 C988 1.377 . S
C989 C990 1.379 . S
C990 H974 0.931 . S
C990 C984 1.383 . S
C990 C989 1.379 . S
H991 C985 0.959 . S
H992 C985 0.961 . S
H993 C985 0.960 . S
H994 C986 0.930 . S
H995 C987 0.929 . S
H996 C1004 0.929 . S
H997 C1006 0.930 . S
H998 C1008 0.930 . S
H999 C1011 0.929 . S
H1000 C1014 0.930 . S
H1001 C1016 0.960 . S
H1002 C1016 0.960 . S
H1003 C1016 0.960 . S
C1004 H996 0.929 . S
C1004 C1005 1.377 . S
C1004 C1006 1.384 . S
C1005 C1004 1.377 . S
C1005 C1011 1.390 . S
C1006 H997 0.930 . S
C1006 C1004 1.384 . S
C1006 C1007 1.372 . S
C1007 C1006 1.372 . S
C1007 C1008 1.400 . S
C1007 C1012 1.490 . S
C1008 H998 0.930 . S
C1008 C1007 1.400 . S
C1008 C1011 1.386 . S
H1009 C1025 0.930 . S
H1010 C1026 0.931 . S
C1011 H999 0.929 . S
C1011 C1005 1.390 . S
C1011 C1008 1.386 . S
C1012 C1007 1.490 . S
C1012 C1014 1.395 . S
C1012 C1015 1.403 . S
H1013 C1019 0.930 . S
C1014 H1000 0.930 . S
C1014 C1012 1.395 . S
C1014 C1017 1.403 . S
C1015 C1012 1.403 . S
C1015 C1016 1.524 . S
C1015 C1019 1.400 . S
C1016 H1001 0.960 . S
C1016 H1002 0.960 . S
C1016 H1003 0.960 . S
C1016 C1015 1.524 . S
C1017 C1014 1.403 . S
C1017 C1018 1.392 . S
C1017 C1021 1.495 . S
C1018 C1017 1.392 . S
C1018 C1019 1.385 . S
C1018 C1020 1.478 . S
C1019 H1013 0.930 . S
C1019 C1015 1.400 . S
C1019 C1018 1.385 . S
C1020 C1018 1.478 . S
C1020 C1022 1.381 . S
C1020 C1026 1.383 . S
C1021 C1017 1.495 . S
C1021 H1027 0.959 . S
C1021 H1028 0.961 . S
C1021 H1029 0.960 . S
C1022 C1020 1.381 . S
C1022 C1023 1.394 . S
C1022 H1030 0.930 . S
C1023 C1022 1.394 . S
C1023 C1024 1.383 . S
C1023 H1031 0.929 . S
C1024 C1023 1.383 . S
C1024 C1025 1.377 . S
C1025 H1009 0.930 . S
C1025 C1024 1.377 . S
C1025 C1026 1.379 . S
C1026 H1010 0.931 . S
C1026 C1020 1.383 . S
C1026 C1025 1.379 . S
H1027 C1021 0.959 . S
H1028 C1021 0.961 . S
H1029 C1021 0.960 . S
H1030 C1022 0.930 . S
H1031 C1023 0.929 . S
H1032 C1040 0.929 . S
H1033 C1042 0.930 . S
H1034 C1044 0.930 . S
H1035 C1047 0.929 . S
H1036 C1050 0.930 . S
H1037 C1052 0.960 . S
H1038 C1052 0.960 . S
H1039 C1052 0.960 . S
C1040 H1032 0.929 . S
C1040 C1041 1.377 . S
C1040 C1042 1.384 . S
C1041 C1040 1.377 . S
C1041 C1047 1.390 . S
C1042 H1033 0.930 . S
C1042 C1040 1.384 . S
C1042 C1043 1.372 . S
C1043 C1042 1.372 . S
C1043 C1044 1.400 . S
C1043 C1048 1.490 . S
C1044 H1034 0.930 . S
C1044 C1043 1.400 . S
C1044 C1047 1.386 . S
H1045 C1061 0.930 . S
H1046 C1062 0.931 . S
C1047 H1035 0.929 . S
C1047 C1041 1.390 . S
C1047 C1044 1.386 . S
C1048 C1043 1.490 . S
C1048 C1050 1.395 . S
C1048 C1051 1.403 . S
H1049 C1055 0.930 . S
C1050 H1036 0.930 . S
C1050 C1048 1.395 . S
C1050 C1053 1.403 . S
C1051 C1048 1.403 . S
C1051 C1052 1.524 . S
C1051 C1055 1.400 . S
C1052 H1037 0.960 . S
C1052 H1038 0.960 . S
C1052 H1039 0.960 . S
C1052 C1051 1.524 . S
C1053 C1050 1.403 . S
C1053 C1054 1.392 . S
C1053 C1057 1.495 . S
C1054 C1053 1.392 . S
C1054 C1055 1.385 . S
C1054 C1056 1.478 . S
C1055 H1049 0.930 . S
C1055 C1051 1.400 . S
C1055 C1054 1.385 . S
C1056 C1054 1.478 . S
C1056 C1058 1.381 . S
C1056 C1062 1.383 . S
C1057 C1053 1.495 . S
C1057 H1063 0.959 . S
C1057 H1064 0.961 . S
C1057 H1065 0.960 . S
C1058 C1056 1.381 . S
C1058 C1059 1.394 . S
C1058 H1066 0.930 . S
C1059 C1058 1.394 . S
C1059 C1060 1.383 . S
C1059 H1067 0.929 . S
C1060 C1059 1.383 . S
C1060 C1061 1.377 . S
C1061 H1045 0.930 . S
C1061 C1060 1.377 . S
C1061 C1062 1.379 . S
C1062 H1046 0.931 . S
C1062 C1056 1.383 . S
C1062 C1061 1.379 . S
H1063 C1057 0.959 . S
H1064 C1057 0.961 . S
H1065 C1057 0.960 . S
H1066 C1058 0.930 . S
H1067 C1059 0.929 . S
H1068 C1076 0.929 . S
H1069 C1078 0.930 . S
H1070 C1080 0.930 . S
H1071 C1083 0.929 . S
H1072 C1086 0.930 . S
H1073 C1088 0.960 . S
H1074 C1088 0.960 . S
H1075 C1088 0.960 . S
C1076 H1068 0.929 . S
C1076 C1077 1.377 . S
C1076 C1078 1.384 . S
C1077 C1076 1.377 . S
C1077 C1083 1.390 . S
C1078 H1069 0.930 . S
C1078 C1076 1.384 . S
C1078 C1079 1.372 . S
C1079 C1078 1.372 . S
C1079 C1080 1.400 . S
C1079 C1084 1.490 . S
C1080 H1070 0.930 . S
C1080 C1079 1.400 . S
C1080 C1083 1.386 . S
H1081 C1097 0.930 . S
H1082 C1098 0.931 . S
C1083 H1071 0.929 . S
C1083 C1077 1.390 . S
C1083 C1080 1.386 . S
C1084 C1079 1.490 . S
C1084 C1086 1.395 . S
C1084 C1087 1.403 . S
H1085 C1091 0.930 . S
C1086 H1072 0.930 . S
C1086 C1084 1.395 . S
C1086 C1089 1.403 . S
C1087 C1084 1.403 . S
C1087 C1088 1.524 . S
C1087 C1091 1.400 . S
C1088 H1073 0.960 . S
C1088 H1074 0.960 . S
C1088 H1075 0.960 . S
C1088 C1087 1.524 . S
C1089 C1086 1.403 . S
C1089 C1090 1.392 . S
C1089 C1093 1.495 . S
C1090 C1089 1.392 . S
C1090 C1091 1.385 . S
C1090 C1092 1.478 . S
C1091 H1085 0.930 . S
C1091 C1087 1.400 . S
C1091 C1090 1.385 . S
C1092 C1090 1.478 . S
C1092 C1094 1.381 . S
C1092 C1098 1.383 . S
C1093 C1089 1.495 . S
C1093 H1099 0.959 . S
C1093 H1100 0.961 . S
C1093 H1101 0.960 . S
C1094 C1092 1.381 . S
C1094 C1095 1.394 . S
C1094 H1102 0.930 . S
C1095 C1094 1.394 . S
C1095 C1096 1.383 . S
C1095 H1103 0.929 . S
C1096 C1095 1.383 . S
C1096 C1097 1.377 . S
C1097 H1081 0.930 . S
C1097 C1096 1.377 . S
C1097 C1098 1.379 . S
C1098 H1082 0.931 . S
C1098 C1092 1.383 . S
C1098 C1097 1.379 . S
H1099 C1093 0.959 . S
H1100 C1093 0.961 . S
H1101 C1093 0.960 . S
H1102 C1094 0.930 . S
H1103 C1095 0.929 . S
H1104 C1112 0.929 . S
H1105 C1114 0.930 . S
H1106 C1116 0.930 . S
H1107 C1119 0.929 . S
H1108 C1122 0.930 . S
H1109 C1124 0.960 . S
H1110 C1124 0.960 . S
H1111 C1124 0.960 . S
C1112 H1104 0.929 . S
C1112 C1113 1.377 . S
C1112 C1114 1.384 . S
C1113 C1112 1.377 . S
C1113 C1119 1.390 . S
C1114 H1105 0.930 . S
C1114 C1112 1.384 . S
C1114 C1115 1.372 . S
C1115 C1114 1.372 . S
C1115 C1116 1.400 . S
C1115 C1120 1.490 . S
C1116 H1106 0.930 . S
C1116 C1115 1.400 . S
C1116 C1119 1.386 . S
H1117 C1133 0.930 . S
H1118 C1134 0.931 . S
C1119 H1107 0.929 . S
C1119 C1113 1.390 . S
C1119 C1116 1.386 . S
C1120 C1115 1.490 . S
C1120 C1122 1.395 . S
C1120 C1123 1.403 . S
H1121 C1127 0.930 . S
C1122 H1108 0.930 . S
C1122 C1120 1.395 . S
C1122 C1125 1.403 . S
C1123 C1120 1.403 . S
C1123 C1124 1.524 . S
C1123 C1127 1.400 . S
C1124 H1109 0.960 . S
C1124 H1110 0.960 . S
C1124 H1111 0.960 . S
C1124 C1123 1.524 . S
C1125 C1122 1.403 . S
C1125 C1126 1.392 . S
C1125 C1129 1.495 . S
C1126 C1125 1.392 . S
C1126 C1127 1.385 . S
C1126 C1128 1.478 . S
C1127 H1121 0.930 . S
C1127 C1123 1.400 . S
C1127 C1126 1.385 . S
C1128 C1126 1.478 . S
C1128 C1130 1.381 . S
C1128 C1134 1.383 . S
C1129 C1125 1.495 . S
C1129 H1135 0.959 . S
C1129 H1136 0.961 . S
C1129 H1137 0.960 . S
C1130 C1128 1.381 . S
C1130 C1131 1.394 . S
C1130 H1138 0.930 . S
C1131 C1130 1.394 . S
C1131 C1132 1.383 . S
C1131 H1139 0.929 . S
C1132 C1131 1.383 . S
C1132 C1133 1.377 . S
C1133 H1117 0.930 . S
C1133 C1132 1.377 . S
C1133 C1134 1.379 . S
C1134 H1118 0.931 . S
C1134 C1128 1.383 . S
C1134 C1133 1.379 . S
H1135 C1129 0.959 . S
H1136 C1129 0.961 . S
H1137 C1129 0.960 . S
H1138 C1130 0.930 . S
H1139 C1131 0.929 . S
H1140 C1148 0.929 . S
H1141 C1150 0.930 . S
H1142 C1152 0.930 . S
H1143 C1155 0.929 . S
H1144 C1158 0.930 . S
H1145 C1160 0.960 . S
H1146 C1160 0.960 . S
H1147 C1160 0.960 . S
C1148 H1140 0.929 . S
C1148 C1149 1.377 . S
C1148 C1150 1.384 . S
C1149 C1148 1.377 . S
C1149 C1155 1.390 . S
C1150 H1141 0.930 . S
C1150 C1148 1.384 . S
C1150 C1151 1.372 . S
C1151 C1150 1.372 . S
C1151 C1152 1.400 . S
C1151 C1156 1.490 . S
C1152 H1142 0.930 . S
C1152 C1151 1.400 . S
C1152 C1155 1.386 . S
H1153 C1169 0.930 . S
H1154 C1170 0.931 . S
C1155 H1143 0.929 . S
C1155 C1149 1.390 . S
C1155 C1152 1.386 . S
C1156 C1151 1.490 . S
C1156 C1158 1.395 . S
C1156 C1159 1.403 . S
H1157 C1163 0.930 . S
C1158 H1144 0.930 . S
C1158 C1156 1.395 . S
C1158 C1161 1.403 . S
C1159 C1156 1.403 . S
C1159 C1160 1.524 . S
C1159 C1163 1.400 . S
C1160 H1145 0.960 . S
C1160 H1146 0.960 . S
C1160 H1147 0.960 . S
C1160 C1159 1.524 . S
C1161 C1158 1.403 . S
C1161 C1162 1.392 . S
C1161 C1165 1.495 . S
C1162 C1161 1.392 . S
C1162 C1163 1.385 . S
C1162 C1164 1.478 . S
C1163 H1157 0.930 . S
C1163 C1159 1.400 . S
C1163 C1162 1.385 . S
C1164 C1162 1.478 . S
C1164 C1166 1.381 . S
C1164 C1170 1.383 . S
C1165 C1161 1.495 . S
C1165 H1171 0.959 . S
C1165 H1172 0.961 . S
C1165 H1173 0.960 . S
C1166 C1164 1.381 . S
C1166 C1167 1.394 . S
C1166 H1174 0.930 . S
C1167 C1166 1.394 . S
C1167 C1168 1.383 . S
C1167 H1175 0.929 . S
C1168 C1167 1.383 . S
C1168 C1169 1.377 . S
C1169 H1153 0.930 . S
C1169 C1168 1.377 . S
C1169 C1170 1.379 . S
C1170 H1154 0.931 . S
C1170 C1164 1.383 . S
C1170 C1169 1.379 . S
H1171 C1165 0.959 . S
H1172 C1165 0.961 . S
H1173 C1165 0.960 . S
H1174 C1166 0.930 . S
H1175 C1167 0.929 . S
H1176 C1184 0.929 . S
H1177 C1186 0.930 . S
H1178 C1188 0.930 . S
H1179 C1191 0.929 . S
H1180 C1194 0.930 . S
H1181 C1196 0.960 . S
H1182 C1196 0.960 . S
H1183 C1196 0.960 . S
C1184 H1176 0.929 . S
C1184 C1185 1.377 . S
C1184 C1186 1.384 . S
C1185 C1184 1.377 . S
C1185 C1191 1.390 . S
C1186 H1177 0.930 . S
C1186 C1184 1.384 . S
C1186 C1187 1.372 . S
C1187 C1186 1.372 . S
C1187 C1188 1.400 . S
C1187 C1192 1.490 . S
C1188 H1178 0.930 . S
C1188 C1187 1.400 . S
C1188 C1191 1.386 . S
H1189 C1205 0.930 . S
H1190 C1206 0.931 . S
C1191 H1179 0.929 . S
C1191 C1185 1.390 . S
C1191 C1188 1.386 . S
C1192 C1187 1.490 . S
C1192 C1194 1.395 . S
C1192 C1195 1.403 . S
H1193 C1199 0.930 . S
C1194 H1180 0.930 . S
C1194 C1192 1.395 . S
C1194 C1197 1.403 1_554 S
C1195 C1192 1.403 . S
C1195 C1196 1.524 . S
C1195 C1199 1.400 1_554 S
C1196 H1181 0.960 . S
C1196 H1182 0.960 . S
C1196 H1183 0.960 . S
C1196 C1195 1.524 . S
C1197 C1194 1.403 1_556 S
C1197 C1198 1.392 . S
C1197 C1201 1.495 . S
C1198 C1197 1.392 . S
C1198 C1199 1.385 . S
C1198 C1200 1.478 . S
C1199 H1193 0.930 . S
C1199 C1195 1.400 1_556 S
C1199 C1198 1.385 . S
C1200 C1198 1.478 . S
C1200 C1202 1.381 . S
C1200 C1206 1.383 . S
C1201 C1197 1.495 . S
C1201 H1207 0.959 . S
C1201 H1208 0.961 . S
C1201 H1209 0.960 . S
C1202 C1200 1.381 . S
C1202 C1203 1.394 . S
C1202 H1210 0.930 . S
C1203 C1202 1.394 . S
C1203 C1204 1.383 . S
C1203 H1211 0.929 . S
C1204 C1203 1.383 . S
C1204 C1205 1.377 . S
C1205 H1189 0.930 . S
C1205 C1204 1.377 . S
C1205 C1206 1.379 . S
C1206 H1190 0.931 . S
C1206 C1200 1.383 . S
C1206 C1205 1.379 . S
H1207 C1201 0.959 . S
H1208 C1201 0.961 . S
H1209 C1201 0.960 . S
H1210 C1202 0.930 . S
H1211 C1203 0.929 . S
H1212 C1220 0.929 . S
H1213 C1222 0.930 . S
H1214 C1224 0.930 . S
H1215 C1227 0.929 . S
H1216 C1230 0.930 . S
H1217 C1232 0.960 . S
H1218 C1232 0.960 . S
H1219 C1232 0.960 . S
C1220 H1212 0.929 . S
C1220 C1221 1.377 . S
C1220 C1222 1.384 . S
C1221 C1220 1.377 . S
C1221 C1227 1.390 . S
C1222 H1213 0.930 . S
C1222 C1220 1.384 . S
C1222 C1223 1.372 . S
C1223 C1222 1.372 . S
C1223 C1224 1.400 . S
C1223 C1228 1.490 . S
C1224 H1214 0.930 . S
C1224 C1223 1.400 . S
C1224 C1227 1.386 . S
H1225 C1241 0.930 . S
H1226 C1242 0.931 . S
C1227 H1215 0.929 . S
C1227 C1221 1.390 . S
C1227 C1224 1.386 . S
C1228 C1223 1.490 . S
C1228 C1230 1.395 . S
C1228 C1231 1.403 . S
H1229 C1235 0.930 . S
C1230 H1216 0.930 . S
C1230 C1228 1.395 . S
C1230 C1233 1.403 1_556 S
C1231 C1228 1.403 . S
C1231 C1232 1.524 . S
C1231 C1235 1.400 1_556 S
C1232 H1217 0.960 . S
C1232 H1218 0.960 . S
C1232 H1219 0.960 . S
C1232 C1231 1.524 . S
C1233 C1230 1.403 1_554 S
C1233 C1234 1.392 . S
C1233 C1237 1.495 . S
C1234 C1233 1.392 . S
C1234 C1235 1.385 . S
C1234 C1236 1.478 . S
C1235 H1229 0.930 . S
C1235 C1231 1.400 1_554 S
C1235 C1234 1.385 . S
C1236 C1234 1.478 . S
C1236 C1238 1.381 . S
C1236 C1242 1.383 . S
C1237 C1233 1.495 . S
C1237 H1243 0.959 . S
C1237 H1244 0.961 . S
C1237 H1245 0.960 . S
C1238 C1236 1.381 . S
C1238 C1239 1.394 . S
C1238 H1246 0.930 . S
C1239 C1238 1.394 . S
C1239 C1240 1.383 . S
C1239 H1247 0.929 . S
C1240 C1239 1.383 . S
C1240 C1241 1.377 . S
C1241 H1225 0.930 . S
C1241 C1240 1.377 . S
C1241 C1242 1.379 . S
C1242 H1226 0.931 . S
C1242 C1236 1.383 . S
C1242 C1241 1.379 . S
H1243 C1237 0.959 . S
H1244 C1237 0.961 . S
H1245 C1237 0.960 . S
H1246 C1238 0.930 . S
H1247 C1239 0.929 . S
H1248 C1256 0.929 . S
H1249 C1258 0.930 . S
H1250 C1260 0.930 . S
H1251 C1263 0.929 . S
H1252 C1266 0.930 . S
H1253 C1268 0.960 . S
H1254 C1268 0.960 . S
H1255 C1268 0.960 . S
C1256 H1248 0.929 . S
C1256 C1257 1.377 . S
C1256 C1258 1.384 . S
C1257 C1256 1.377 . S
C1257 C1263 1.390 . S
C1258 H1249 0.930 . S
C1258 C1256 1.384 . S
C1258 C1259 1.372 . S
C1259 C1258 1.372 . S
C1259 C1260 1.400 . S
C1259 C1264 1.490 . S
C1260 H1250 0.930 . S
C1260 C1259 1.400 . S
C1260 C1263 1.386 . S
H1261 C1277 0.930 . S
H1262 C1278 0.931 . S
C1263 H1251 0.929 . S
C1263 C1257 1.390 . S
C1263 C1260 1.386 . S
C1264 C1259 1.490 . S
C1264 C1266 1.395 . S
C1264 C1267 1.403 . S
H1265 C1271 0.930 . S
C1266 H1252 0.930 . S
C1266 C1264 1.395 . S
C1266 C1269 1.403 1_556 S
C1267 C1264 1.403 . S
C1267 C1268 1.524 . S
C1267 C1271 1.400 1_556 S
C1268 H1253 0.960 . S
C1268 H1254 0.960 . S
C1268 H1255 0.960 . S
C1268 C1267 1.524 . S
C1269 C1266 1.403 1_554 S
C1269 C1270 1.392 . S
C1269 C1273 1.495 . S
C1270 C1269 1.392 . S
C1270 C1271 1.385 . S
C1270 C1272 1.478 . S
C1271 H1265 0.930 . S
C1271 C1267 1.400 1_554 S
C1271 C1270 1.385 . S
C1272 C1270 1.478 . S
C1272 C1274 1.381 . S
C1272 C1278 1.383 . S
C1273 C1269 1.495 . S
C1273 H1279 0.959 . S
C1273 H1280 0.961 . S
C1273 H1281 0.960 . S
C1274 C1272 1.381 . S
C1274 C1275 1.394 . S
C1274 H1282 0.930 . S
C1275 C1274 1.394 . S
C1275 C1276 1.383 . S
C1275 H1283 0.929 . S
C1276 C1275 1.383 . S
C1276 C1277 1.377 . S
C1277 H1261 0.930 . S
C1277 C1276 1.377 . S
C1277 C1278 1.379 . S
C1278 H1262 0.931 . S
C1278 C1272 1.383 . S
C1278 C1277 1.379 . S
H1279 C1273 0.959 . S
H1280 C1273 0.961 . S
H1281 C1273 0.960 . S
H1282 C1274 0.930 . S
H1283 C1275 0.929 . S
H1284 C1292 0.929 . S
H1285 C1294 0.930 . S
H1286 C1296 0.930 . S
H1287 C1299 0.929 . S
H1288 C1302 0.930 . S
H1289 C1304 0.960 . S
H1290 C1304 0.960 . S
H1291 C1304 0.960 . S
C1292 H1284 0.929 . S
C1292 C1293 1.377 . S
C1292 C1294 1.384 . S
C1293 C1292 1.377 . S
C1293 C1299 1.390 . S
C1294 H1285 0.930 . S
C1294 C1292 1.384 . S
C1294 C1295 1.372 . S
C1295 C1294 1.372 . S
C1295 C1296 1.400 . S
C1295 C1300 1.490 . S
C1296 H1286 0.930 . S
C1296 C1295 1.400 . S
C1296 C1299 1.386 . S
H1297 C1313 0.930 . S
H1298 C1314 0.931 . S
C1299 H1287 0.929 . S
C1299 C1293 1.390 . S
C1299 C1296 1.386 . S
C1300 C1295 1.490 . S
C1300 C1302 1.395 . S
C1300 C1303 1.403 . S
H1301 C1307 0.930 . S
C1302 H1288 0.930 . S
C1302 C1300 1.395 . S
C1302 C1305 1.403 1_554 S
C1303 C1300 1.403 . S
C1303 C1304 1.524 . S
C1303 C1307 1.400 1_554 S
C1304 H1289 0.960 . S
C1304 H1290 0.960 . S
C1304 H1291 0.960 . S
C1304 C1303 1.524 . S
C1305 C1302 1.403 1_556 S
C1305 C1306 1.392 . S
C1305 C1309 1.495 . S
C1306 C1305 1.392 . S
C1306 C1307 1.385 . S
C1306 C1308 1.478 . S
C1307 H1301 0.930 . S
C1307 C1303 1.400 1_556 S
C1307 C1306 1.385 . S
C1308 C1306 1.478 . S
C1308 C1310 1.381 . S
C1308 C1314 1.383 . S
C1309 C1305 1.495 . S
C1309 H1315 0.959 . S
C1309 H1316 0.961 . S
C1309 H1317 0.960 . S
C1310 C1308 1.381 . S
C1310 C1311 1.394 . S
C1310 H1318 0.930 . S
C1311 C1310 1.394 . S
C1311 C1312 1.383 . S
C1311 H1319 0.929 . S
C1312 C1311 1.383 . S
C1312 C1313 1.377 . S
C1313 H1297 0.930 . S
C1313 C1312 1.377 . S
C1313 C1314 1.379 . S
C1314 H1298 0.931 . S
C1314 C1308 1.383 . S
C1314 C1313 1.379 . S
H1315 C1309 0.959 . S
H1316 C1309 0.961 . S
H1317 C1309 0.960 . S
H1318 C1310 0.930 . S
H1319 C1311 0.929 . S
H1320 C1328 0.929 . S
H1321 C1330 0.930 . S
H1322 C1332 0.930 . S
H1323 C1335 0.929 . S
H1324 C1338 0.930 . S
H1325 C1340 0.960 . S
H1326 C1340 0.960 . S
H1327 C1340 0.960 . S
C1328 H1320 0.929 . S
C1328 C1329 1.377 . S
C1328 C1330 1.384 . S
C1329 C1328 1.377 . S
C1329 C1335 1.390 . S
C1330 H1321 0.930 . S
C1330 C1328 1.384 . S
C1330 C1331 1.372 . S
C1331 C1330 1.372 . S
C1331 C1332 1.400 . S
C1331 C1336 1.490 . S
C1332 H1322 0.930 . S
C1332 C1331 1.400 . S
C1332 C1335 1.386 . S
H1333 C1349 0.930 . S
H1334 C1350 0.931 . S
C1335 H1323 0.929 . S
C1335 C1329 1.390 . S
C1335 C1332 1.386 . S
C1336 C1331 1.490 . S
C1336 C1338 1.395 . S
C1336 C1339 1.403 . S
H1337 C1343 0.930 . S
C1338 H1324 0.930 . S
C1338 C1336 1.395 . S
C1338 C1341 1.403 1_554 S
C1339 C1336 1.403 . S
C1339 C1340 1.524 . S
C1339 C1343 1.400 1_554 S
C1340 H1325 0.960 . S
C1340 H1326 0.960 . S
C1340 H1327 0.960 . S
C1340 C1339 1.524 . S
C1341 C1338 1.403 1_556 S
C1341 C1342 1.392 . S
C1341 C1345 1.495 . S
C1342 C1341 1.392 . S
C1342 C1343 1.385 . S
C1342 C1344 1.478 . S
C1343 H1337 0.930 . S
C1343 C1339 1.400 1_556 S
C1343 C1342 1.385 . S
C1344 C1342 1.478 . S
C1344 C1346 1.381 . S
C1344 C1350 1.383 . S
C1345 C1341 1.495 . S
C1345 H1351 0.959 . S
C1345 H1352 0.961 . S
C1345 H1353 0.960 . S
C1346 C1344 1.381 . S
C1346 C1347 1.394 . S
C1346 H1354 0.930 . S
C1347 C1346 1.394 . S
C1347 C1348 1.383 . S
C1347 H1355 0.929 . S
C1348 C1347 1.383 . S
C1348 C1349 1.377 . S
C1349 H1333 0.930 . S
C1349 C1348 1.377 . S
C1349 C1350 1.379 . S
C1350 H1334 0.931 . S
C1350 C1344 1.383 . S
C1350 C1349 1.379 . S
H1351 C1345 0.959 . S
H1352 C1345 0.961 . S
H1353 C1345 0.960 . S
H1354 C1346 0.930 . S
H1355 C1347 0.929 . S
H1356 C1364 0.929 . S
H1357 C1366 0.930 . S
H1358 C1368 0.930 . S
H1359 C1371 0.929 . S
H1360 C1374 0.930 . S
H1361 C1376 0.960 . S
H1362 C1376 0.960 . S
H1363 C1376 0.960 . S
C1364 H1356 0.929 . S
C1364 C1365 1.377 . S
C1364 C1366 1.384 . S
C1365 C1364 1.377 . S
C1365 C1371 1.390 . S
C1366 H1357 0.930 . S
C1366 C1364 1.384 . S
C1366 C1367 1.372 . S
C1367 C1366 1.372 . S
C1367 C1368 1.400 . S
C1367 C1372 1.490 . S
C1368 H1358 0.930 . S
C1368 C1367 1.400 . S
C1368 C1371 1.386 . S
H1369 C1385 0.930 . S
H1370 C1386 0.931 . S
C1371 H1359 0.929 . S
C1371 C1365 1.390 . S
C1371 C1368 1.386 . S
C1372 C1367 1.490 . S
C1372 C1374 1.395 . S
C1372 C1375 1.403 . S
H1373 C1379 0.930 . S
C1374 H1360 0.930 . S
C1374 C1372 1.395 . S
C1374 C1377 1.403 1_556 S
C1375 C1372 1.403 . S
C1375 C1376 1.524 . S
C1375 C1379 1.400 1_556 S
C1376 H1361 0.960 . S
C1376 H1362 0.960 . S
C1376 H1363 0.960 . S
C1376 C1375 1.524 . S
C1377 C1374 1.403 1_554 S
C1377 C1378 1.392 . S
C1377 C1381 1.495 . S
C1378 C1377 1.392 . S
C1378 C1379 1.385 . S
C1378 C1380 1.478 . S
C1379 H1373 0.930 . S
C1379 C1375 1.400 1_554 S
C1379 C1378 1.385 . S
C1380 C1378 1.478 . S
C1380 C1382 1.381 . S
C1380 C1386 1.383 . S
C1381 C1377 1.495 . S
C1381 H1387 0.959 . S
C1381 H1388 0.961 . S
C1381 H1389 0.960 . S
C1382 C1380 1.381 . S
C1382 C1383 1.394 . S
C1382 H1390 0.930 . S
C1383 C1382 1.394 . S
C1383 C1384 1.383 . S
C1383 H1391 0.929 . S
C1384 C1383 1.383 . S
C1384 C1385 1.377 . S
C1385 H1369 0.930 . S
C1385 C1384 1.377 . S
C1385 C1386 1.379 . S
C1386 H1370 0.931 . S
C1386 C1380 1.383 . S
C1386 C1385 1.379 . S
H1387 C1381 0.959 . S
H1388 C1381 0.961 . S
H1389 C1381 0.960 . S
H1390 C1382 0.930 . S
H1391 C1383 0.929 . S
H1392 C1400 0.929 . S
H1393 C1402 0.930 . S
H1394 C1404 0.930 . S
H1395 C1407 0.929 . S
H1396 C1410 0.930 . S
H1397 C1412 0.960 . S
H1398 C1412 0.960 . S
H1399 C1412 0.960 . S
C1400 H1392 0.929 . S
C1400 C1401 1.377 . S
C1400 C1402 1.384 . S
C1401 C1400 1.377 . S
C1401 C1407 1.390 . S
C1402 H1393 0.930 . S
C1402 C1400 1.384 . S
C1402 C1403 1.372 . S
C1403 C1402 1.372 . S
C1403 C1404 1.400 . S
C1403 C1408 1.490 . S
C1404 H1394 0.930 . S
C1404 C1403 1.400 . S
C1404 C1407 1.386 . S
H1405 C1421 0.930 . S
H1406 C1422 0.931 . S
C1407 H1395 0.929 . S
C1407 C1401 1.390 . S
C1407 C1404 1.386 . S
C1408 C1403 1.490 . S
C1408 C1410 1.395 . S
C1408 C1411 1.403 . S
H1409 C1415 0.930 . S
C1410 H1396 0.930 . S
C1410 C1408 1.395 . S
C1410 C1413 1.403 . S
C1411 C1408 1.403 . S
C1411 C1412 1.524 . S
C1411 C1415 1.400 . S
C1412 H1397 0.960 . S
C1412 H1398 0.960 . S
C1412 H1399 0.960 . S
C1412 C1411 1.524 . S
C1413 C1410 1.403 . S
C1413 C1414 1.392 . S
C1413 C1417 1.495 . S
C1414 C1413 1.392 . S
C1414 C1415 1.385 . S
C1414 C1416 1.478 . S
C1415 H1409 0.930 . S
C1415 C1411 1.400 . S
C1415 C1414 1.385 . S
C1416 C1414 1.478 . S
C1416 C1418 1.381 . S
C1416 C1422 1.383 . S
C1417 C1413 1.495 . S
C1417 H1423 0.959 . S
C1417 H1424 0.961 . S
C1417 H1425 0.960 . S
C1418 C1416 1.381 . S
C1418 C1419 1.394 . S
C1418 H1426 0.930 . S
C1419 C1418 1.394 . S
C1419 C1420 1.383 . S
C1419 H1427 0.929 . S
C1420 C1419 1.383 . S
C1420 C1421 1.377 . S
C1421 H1405 0.930 . S
C1421 C1420 1.377 . S
C1421 C1422 1.379 . S
C1422 H1406 0.931 . S
C1422 C1416 1.383 . S
C1422 C1421 1.379 . S
H1423 C1417 0.959 . S
H1424 C1417 0.961 . S
H1425 C1417 0.960 . S
H1426 C1418 0.930 . S
H1427 C1419 0.929 . S
H1428 C1436 0.929 . S
H1429 C1438 0.930 . S
H1430 C1440 0.930 . S
H1431 C1443 0.929 . S
H1432 C1446 0.930 . S
H1433 C1448 0.960 . S
H1434 C1448 0.960 . S
H1435 C1448 0.960 . S
C1436 H1428 0.929 . S
C1436 C1437 1.377 . S
C1436 C1438 1.384 . S
C1437 C1436 1.377 . S
C1437 C1443 1.390 . S
C1438 H1429 0.930 . S
C1438 C1436 1.384 . S
C1438 C1439 1.372 . S
C1439 C1438 1.372 . S
C1439 C1440 1.400 . S
C1439 C1444 1.490 . S
C1440 H1430 0.930 . S
C1440 C1439 1.400 . S
C1440 C1443 1.386 . S
H1441 C1457 0.930 . S
H1442 C1458 0.931 . S
C1443 H1431 0.929 . S
C1443 C1437 1.390 . S
C1443 C1440 1.386 . S
C1444 C1439 1.490 . S
C1444 C1446 1.395 . S
C1444 C1447 1.403 . S
H1445 C1451 0.930 . S
C1446 H1432 0.930 . S
C1446 C1444 1.395 . S
C1446 C1449 1.403 . S
C1447 C1444 1.403 . S
C1447 C1448 1.524 . S
C1447 C1451 1.400 . S
C1448 H1433 0.960 . S
C1448 H1434 0.960 . S
C1448 H1435 0.960 . S
C1448 C1447 1.524 . S
C1449 C1446 1.403 . S
C1449 C1450 1.392 . S
C1449 C1453 1.495 . S
C1450 C1449 1.392 . S
C1450 C1451 1.385 . S
C1450 C1452 1.478 . S
C1451 H1445 0.930 . S
C1451 C1447 1.400 . S
C1451 C1450 1.385 . S
C1452 C1450 1.478 . S
C1452 C1454 1.381 . S
C1452 C1458 1.383 . S
C1453 C1449 1.495 . S
C1453 H1459 0.959 . S
C1453 H1460 0.961 . S
C1453 H1461 0.960 . S
C1454 C1452 1.381 . S
C1454 C1455 1.394 . S
C1454 H1462 0.930 . S
C1455 C1454 1.394 . S
C1455 C1456 1.383 . S
C1455 H1463 0.929 . S
C1456 C1455 1.383 . S
C1456 C1457 1.377 . S
C1457 H1441 0.930 . S
C1457 C1456 1.377 . S
C1457 C1458 1.379 . S
C1458 H1442 0.931 . S
C1458 C1452 1.383 . S
C1458 C1457 1.379 . S
H1459 C1453 0.959 . S
H1460 C1453 0.961 . S
H1461 C1453 0.960 . S
H1462 C1454 0.930 . S
H1463 C1455 0.929 . S
H1464 C1472 0.929 . S
H1465 C1474 0.930 . S
H1466 C1476 0.930 . S
H1467 C1479 0.929 . S
H1468 C1482 0.930 . S
H1469 C1484 0.960 . S
H1470 C1484 0.960 . S
H1471 C1484 0.960 . S
C1472 H1464 0.929 . S
C1472 C1473 1.377 . S
C1472 C1474 1.384 . S
C1473 C1472 1.377 . S
C1473 C1479 1.390 . S
C1474 H1465 0.930 . S
C1474 C1472 1.384 . S
C1474 C1475 1.372 . S
C1475 C1474 1.372 . S
C1475 C1476 1.400 . S
C1475 C1480 1.490 . S
C1476 H1466 0.930 . S
C1476 C1475 1.400 . S
C1476 C1479 1.386 . S
H1477 C1493 0.930 . S
H1478 C1494 0.931 . S
C1479 H1467 0.929 . S
C1479 C1473 1.390 . S
C1479 C1476 1.386 . S
C1480 C1475 1.490 . S
C1480 C1482 1.395 . S
C1480 C1483 1.403 . S
H1481 C1487 0.930 . S
C1482 H1468 0.930 . S
C1482 C1480 1.395 . S
C1482 C1485 1.403 . S
C1483 C1480 1.403 . S
C1483 C1484 1.524 . S
C1483 C1487 1.400 . S
C1484 H1469 0.960 . S
C1484 H1470 0.960 . S
C1484 H1471 0.960 . S
C1484 C1483 1.524 . S
C1485 C1482 1.403 . S
C1485 C1486 1.392 . S
C1485 C1489 1.495 . S
C1486 C1485 1.392 . S
C1486 C1487 1.385 . S
C1486 C1488 1.478 . S
C1487 H1481 0.930 . S
C1487 C1483 1.400 . S
C1487 C1486 1.385 . S
C1488 C1486 1.478 . S
C1488 C1490 1.381 . S
C1488 C1494 1.383 . S
C1489 C1485 1.495 . S
C1489 H1495 0.959 . S
C1489 H1496 0.961 . S
C1489 H1497 0.960 . S
C1490 C1488 1.381 . S
C1490 C1491 1.394 . S
C1490 H1498 0.930 . S
C1491 C1490 1.394 . S
C1491 C1492 1.383 . S
C1491 H1499 0.929 . S
C1492 C1491 1.383 . S
C1492 C1493 1.377 . S
C1493 H1477 0.930 . S
C1493 C1492 1.377 . S
C1493 C1494 1.379 . S
C1494 H1478 0.931 . S
C1494 C1488 1.383 . S
C1494 C1493 1.379 . S
H1495 C1489 0.959 . S
H1496 C1489 0.961 . S
H1497 C1489 0.960 . S
H1498 C1490 0.930 . S
H1499 C1491 0.929 . S
H1500 C1508 0.929 . S
H1501 C1510 0.930 . S
H1502 C1512 0.930 . S
H1503 C1515 0.929 . S
H1504 C1518 0.930 . S
H1505 C1520 0.960 . S
H1506 C1520 0.960 . S
H1507 C1520 0.960 . S
C1508 H1500 0.929 . S
C1508 C1509 1.377 . S
C1508 C1510 1.384 . S
C1509 C1508 1.377 . S
C1509 C1515 1.390 . S
C1510 H1501 0.930 . S
C1510 C1508 1.384 . S
C1510 C1511 1.372 . S
C1511 C1510 1.372 . S
C1511 C1512 1.400 . S
C1511 C1516 1.490 . S
C1512 H1502 0.930 . S
C1512 C1511 1.400 . S
C1512 C1515 1.386 . S
H1513 C1529 0.930 . S
H1514 C1530 0.931 . S
C1515 H1503 0.929 . S
C1515 C1509 1.390 . S
C1515 C1512 1.386 . S
C1516 C1511 1.490 . S
C1516 C1518 1.395 . S
C1516 C1519 1.403 . S
H1517 C1523 0.930 . S
C1518 H1504 0.930 . S
C1518 C1516 1.395 . S
C1518 C1521 1.403 . S
C1519 C1516 1.403 . S
C1519 C1520 1.524 . S
C1519 C1523 1.400 . S
C1520 H1505 0.960 . S
C1520 H1506 0.960 . S
C1520 H1507 0.960 . S
C1520 C1519 1.524 . S
C1521 C1518 1.403 . S
C1521 C1522 1.392 . S
C1521 C1525 1.495 . S
C1522 C1521 1.392 . S
C1522 C1523 1.385 . S
C1522 C1524 1.478 . S
C1523 H1517 0.930 . S
C1523 C1519 1.400 . S
C1523 C1522 1.385 . S
C1524 C1522 1.478 . S
C1524 C1526 1.381 . S
C1524 C1530 1.383 . S
C1525 C1521 1.495 . S
C1525 H1531 0.959 . S
C1525 H1532 0.961 . S
C1525 H1533 0.960 . S
C1526 C1524 1.381 . S
C1526 C1527 1.394 . S
C1526 H1534 0.930 . S
C1527 C1526 1.394 . S
C1527 C1528 1.383 . S
C1527 H1535 0.929 . S
C1528 C1527 1.383 . S
C1528 C1529 1.377 . S
C1529 H1513 0.930 . S
C1529 C1528 1.377 . S
C1529 C1530 1.379 . S
C1530 H1514 0.931 . S
C1530 C1524 1.383 . S
C1530 C1529 1.379 . S
H1531 C1525 0.959 . S
H1532 C1525 0.961 . S
H1533 C1525 0.960 . S
H1534 C1526 0.930 . S
H1535 C1527 0.929 . S
H1536 C1544 0.929 . S
H1537 C1546 0.930 . S
H1538 C1548 0.930 . S
H1539 C1551 0.929 . S
H1540 C1554 0.930 . S
H1541 C1556 0.960 . S
H1542 C1556 0.960 . S
H1543 C1556 0.960 . S
C1544 H1536 0.929 . S
C1544 C1545 1.377 . S
C1544 C1546 1.384 . S
C1545 C1544 1.377 . S
C1545 C1551 1.390 . S
C1546 H1537 0.930 . S
C1546 C1544 1.384 . S
C1546 C1547 1.372 . S
C1547 C1546 1.372 . S
C1547 C1548 1.400 . S
C1547 C1552 1.490 . S
C1548 H1538 0.930 . S
C1548 C1547 1.400 . S
C1548 C1551 1.386 . S
H1549 C1565 0.930 . S
H1550 C1566 0.931 . S
C1551 H1539 0.929 . S
C1551 C1545 1.390 . S
C1551 C1548 1.386 . S
C1552 C1547 1.490 . S
C1552 C1554 1.395 . S
C1552 C1555 1.403 . S
H1553 C1559 0.930 . S
C1554 H1540 0.930 . S
C1554 C1552 1.395 . S
C1554 C1557 1.403 . S
C1555 C1552 1.403 . S
C1555 C1556 1.524 . S
C1555 C1559 1.400 . S
C1556 H1541 0.960 . S
C1556 H1542 0.960 . S
C1556 H1543 0.960 . S
C1556 C1555 1.524 . S
C1557 C1554 1.403 . S
C1557 C1558 1.392 . S
C1557 C1561 1.495 . S
C1558 C1557 1.392 . S
C1558 C1559 1.385 . S
C1558 C1560 1.478 . S
C1559 H1553 0.930 . S
C1559 C1555 1.400 . S
C1559 C1558 1.385 . S
C1560 C1558 1.478 . S
C1560 C1562 1.381 . S
C1560 C1566 1.383 . S
C1561 C1557 1.495 . S
C1561 H1567 0.959 . S
C1561 H1568 0.961 . S
C1561 H1569 0.960 . S
C1562 C1560 1.381 . S
C1562 C1563 1.394 . S
C1562 H1570 0.930 . S
C1563 C1562 1.394 . S
C1563 C1564 1.383 . S
C1563 H1571 0.929 . S
C1564 C1563 1.383 . S
C1564 C1565 1.377 . S
C1565 H1549 0.930 . S
C1565 C1564 1.377 . S
C1565 C1566 1.379 . S
C1566 H1550 0.931 . S
C1566 C1560 1.383 . S
C1566 C1565 1.379 . S
H1567 C1561 0.959 . S
H1568 C1561 0.961 . S
H1569 C1561 0.960 . S
H1570 C1562 0.930 . S
H1571 C1563 0.929 . S
H1572 C1580 0.929 . S
H1573 C1582 0.930 . S
H1574 C1584 0.930 . S
H1575 C1587 0.929 . S
H1576 C1590 0.930 . S
H1577 C1592 0.960 . S
H1578 C1592 0.960 . S
H1579 C1592 0.960 . S
C1580 H1572 0.929 . S
C1580 C1581 1.377 . S
C1580 C1582 1.384 . S
C1581 C1580 1.377 . S
C1581 C1587 1.390 . S
C1582 H1573 0.930 . S
C1582 C1580 1.384 . S
C1582 C1583 1.372 . S
C1583 C1582 1.372 . S
C1583 C1584 1.400 . S
C1583 C1588 1.490 . S
C1584 H1574 0.930 . S
C1584 C1583 1.400 . S
C1584 C1587 1.386 . S
H1585 C1601 0.930 . S
H1586 C1602 0.931 . S
C1587 H1575 0.929 . S
C1587 C1581 1.390 . S
C1587 C1584 1.386 . S
C1588 C1583 1.490 . S
C1588 C1590 1.395 . S
C1588 C1591 1.403 . S
H1589 C1595 0.930 . S
C1590 H1576 0.930 . S
C1590 C1588 1.395 . S
C1590 C1593 1.403 . S
C1591 C1588 1.403 . S
C1591 C1592 1.524 . S
C1591 C1595 1.400 . S
C1592 H1577 0.960 . S
C1592 H1578 0.960 . S
C1592 H1579 0.960 . S
C1592 C1591 1.524 . S
C1593 C1590 1.403 . S
C1593 C1594 1.392 . S
C1593 C1597 1.495 . S
C1594 C1593 1.392 . S
C1594 C1595 1.385 . S
C1594 C1596 1.478 . S
C1595 H1589 0.930 . S
C1595 C1591 1.400 . S
C1595 C1594 1.385 . S
C1596 C1594 1.478 . S
C1596 C1598 1.381 . S
C1596 C1602 1.383 . S
C1597 C1593 1.495 . S
C1597 H1603 0.959 . S
C1597 H1604 0.961 . S
C1597 H1605 0.960 . S
C1598 C1596 1.381 . S
C1598 C1599 1.394 . S
C1598 H1606 0.930 . S
C1599 C1598 1.394 . S
C1599 C1600 1.383 . S
C1599 H1607 0.929 . S
C1600 C1599 1.383 . S
C1600 C1601 1.377 . S
C1601 H1585 0.930 . S
C1601 C1600 1.377 . S
C1601 C1602 1.379 . S
C1602 H1586 0.931 . S
C1602 C1596 1.383 . S
C1602 C1601 1.379 . S
H1603 C1597 0.959 . S
H1604 C1597 0.961 . S
H1605 C1597 0.960 . S
H1606 C1598 0.930 . S
H1607 C1599 0.929 . S
H1608 C1616 0.929 . S
H1609 C1618 0.930 . S
H1610 C1620 0.930 . S
H1611 C1623 0.929 . S
H1612 C1626 0.930 . S
H1613 C1628 0.960 . S
H1614 C1628 0.960 . S
H1615 C1628 0.960 . S
C1616 H1608 0.929 . S
C1616 C1617 1.377 . S
C1616 C1618 1.384 . S
C1617 C1616 1.377 . S
C1617 C1623 1.390 . S
C1618 H1609 0.930 . S
C1618 C1616 1.384 . S
C1618 C1619 1.372 . S
C1619 C1618 1.372 . S
C1619 C1620 1.400 . S
C1619 C1624 1.490 . S
C1620 H1610 0.930 . S
C1620 C1619 1.400 . S
C1620 C1623 1.386 . S
H1621 C1637 0.930 . S
H1622 C1638 0.931 . S
C1623 H1611 0.929 . S
C1623 C1617 1.390 . S
C1623 C1620 1.386 . S
C1624 C1619 1.490 . S
C1624 C1626 1.395 . S
C1624 C1627 1.403 . S
H1625 C1631 0.930 . S
C1626 H1612 0.930 . S
C1626 C1624 1.395 . S
C1626 C1629 1.403 . S
C1627 C1624 1.403 . S
C1627 C1628 1.524 . S
C1627 C1631 1.400 . S
C1628 H1613 0.960 . S
C1628 H1614 0.960 . S
C1628 H1615 0.960 . S
C1628 C1627 1.524 . S
C1629 C1626 1.403 . S
C1629 C1630 1.392 . S
C1629 C1633 1.495 . S
C1630 C1629 1.392 . S
C1630 C1631 1.385 . S
C1630 C1632 1.478 . S
C1631 H1625 0.930 . S
C1631 C1627 1.400 . S
C1631 C1630 1.385 . S
C1632 C1630 1.478 . S
C1632 C1634 1.381 . S
C1632 C1638 1.383 . S
C1633 C1629 1.495 . S
C1633 H1639 0.959 . S
C1633 H1640 0.961 . S
C1633 H1641 0.960 . S
C1634 C1632 1.381 . S
C1634 C1635 1.394 . S
C1634 H1642 0.930 . S
C1635 C1634 1.394 . S
C1635 C1636 1.383 . S
C1635 H1643 0.929 . S
C1636 C1635 1.383 . S
C1636 C1637 1.377 . S
C1637 H1621 0.930 . S
C1637 C1636 1.377 . S
C1637 C1638 1.379 . S
C1638 H1622 0.931 . S
C1638 C1632 1.383 . S
C1638 C1637 1.379 . S
H1639 C1633 0.959 . S
H1640 C1633 0.961 . S
H1641 C1633 0.960 . S
H1642 C1634 0.930 . S
H1643 C1635 0.929 . S
H1644 C1652 0.929 . S
H1645 C1654 0.930 . S
H1646 C1656 0.930 . S
H1647 C1659 0.929 . S
H1648 C1662 0.930 . S
H1649 C1664 0.960 . S
H1650 C1664 0.960 . S
H1651 C1664 0.960 . S
C1652 H1644 0.929 . S
C1652 C1653 1.377 . S
C1652 C1654 1.384 . S
C1653 C1652 1.377 . S
C1653 C1659 1.390 . S
C1654 H1645 0.930 . S
C1654 C1652 1.384 . S
C1654 C1655 1.372 . S
C1655 C1654 1.372 . S
C1655 C1656 1.400 . S
C1655 C1660 1.490 . S
C1656 H1646 0.930 . S
C1656 C1655 1.400 . S
C1656 C1659 1.386 . S
H1657 C1673 0.930 . S
H1658 C1674 0.931 . S
C1659 H1647 0.929 . S
C1659 C1653 1.390 . S
C1659 C1656 1.386 . S
C1660 C1655 1.490 . S
C1660 C1662 1.395 . S
C1660 C1663 1.403 . S
H1661 C1667 0.930 . S
C1662 H1648 0.930 . S
C1662 C1660 1.395 . S
C1662 C1665 1.403 . S
C1663 C1660 1.403 . S
C1663 C1664 1.524 . S
C1663 C1667 1.400 . S
C1664 H1649 0.960 . S
C1664 H1650 0.960 . S
C1664 H1651 0.960 . S
C1664 C1663 1.524 . S
C1665 C1662 1.403 . S
C1665 C1666 1.392 . S
C1665 C1669 1.495 . S
C1666 C1665 1.392 . S
C1666 C1667 1.385 . S
C1666 C1668 1.478 . S
C1667 H1661 0.930 . S
C1667 C1663 1.400 . S
C1667 C1666 1.385 . S
C1668 C1666 1.478 . S
C1668 C1670 1.381 . S
C1668 C1674 1.383 . S
C1669 C1665 1.495 . S
C1669 H1675 0.959 . S
C1669 H1676 0.961 . S
C1669 H1677 0.960 . S
C1670 C1668 1.381 . S
C1670 C1671 1.394 . S
C1670 H1678 0.930 . S
C1671 C1670 1.394 . S
C1671 C1672 1.383 . S
C1671 H1679 0.929 . S
C1672 C1671 1.383 . S
C1672 C1673 1.377 . S
C1673 H1657 0.930 . S
C1673 C1672 1.377 . S
C1673 C1674 1.379 . S
C1674 H1658 0.931 . S
C1674 C1668 1.383 . S
C1674 C1673 1.379 . S
H1675 C1669 0.959 . S
H1676 C1669 0.961 . S
H1677 C1669 0.960 . S
H1678 C1670 0.930 . S
H1679 C1671 0.929 . S
H1680 C1688 0.929 . S
H1681 C1690 0.930 . S
H1682 C1692 0.930 . S
H1683 C1695 0.929 . S
H1684 C1698 0.930 . S
H1685 C1700 0.960 . S
H1686 C1700 0.960 . S
H1687 C1700 0.960 . S
C1688 H1680 0.929 . S
C1688 C1689 1.377 . S
C1688 C1690 1.384 . S
C1689 C1688 1.377 . S
C1689 C1695 1.390 . S
C1690 H1681 0.930 . S
C1690 C1688 1.384 . S
C1690 C1691 1.372 . S
C1691 C1690 1.372 . S
C1691 C1692 1.400 . S
C1691 C1696 1.490 . S
C1692 H1682 0.930 . S
C1692 C1691 1.400 . S
C1692 C1695 1.386 . S
H1693 C1709 0.930 . S
H1694 C1710 0.931 . S
C1695 H1683 0.929 . S
C1695 C1689 1.390 . S
C1695 C1692 1.386 . S
C1696 C1691 1.490 . S
C1696 C1698 1.395 . S
C1696 C1699 1.403 . S
H1697 C1703 0.930 . S
C1698 H1684 0.930 . S
C1698 C1696 1.395 . S
C1698 C1701 1.403 . S
C1699 C1696 1.403 . S
C1699 C1700 1.524 . S
C1699 C1703 1.400 . S
C1700 H1685 0.960 . S
C1700 H1686 0.960 . S
C1700 H1687 0.960 . S
C1700 C1699 1.524 . S
C1701 C1698 1.403 . S
C1701 C1702 1.392 . S
C1701 C1705 1.495 . S
C1702 C1701 1.392 . S
C1702 C1703 1.385 . S
C1702 C1704 1.478 . S
C1703 H1697 0.930 . S
C1703 C1699 1.400 . S
C1703 C1702 1.385 . S
C1704 C1702 1.478 . S
C1704 C1706 1.381 . S
C1704 C1710 1.383 . S
C1705 C1701 1.495 . S
C1705 H1711 0.959 . S
C1705 H1712 0.961 . S
C1705 H1713 0.960 . S
C1706 C1704 1.381 . S
C1706 C1707 1.394 . S
C1706 H1714 0.930 . S
C1707 C1706 1.394 . S
C1707 C1708 1.383 . S
C1707 H1715 0.929 . S
C1708 C1707 1.383 . S
C1708 C1709 1.377 . S
C1709 H1693 0.930 . S
C1709 C1708 1.377 . S
C1709 C1710 1.379 . S
C1710 H1694 0.931 . S
C1710 C1704 1.383 . S
C1710 C1709 1.379 . S
H1711 C1705 0.959 . S
H1712 C1705 0.961 . S
H1713 C1705 0.960 . S
H1714 C1706 0.930 . S
H1715 C1707 0.929 . S
H1716 C1724 0.929 . S
H1717 C1726 0.930 . S
H1718 C1728 0.930 . S
H1719 C1731 0.929 . S
H1720 C1734 0.930 . S
H1721 C1736 0.960 . S
H1722 C1736 0.960 . S
H1723 C1736 0.960 . S
C1724 H1716 0.929 . S
C1724 C1725 1.377 . S
C1724 C1726 1.384 . S
C1725 C1724 1.377 . S
C1725 C1731 1.390 . S
C1726 H1717 0.930 . S
C1726 C1724 1.384 . S
C1726 C1727 1.372 . S
C1727 C1726 1.372 . S
C1727 C1728 1.400 . S
C1727 C1732 1.490 . S
C1728 H1718 0.930 . S
C1728 C1727 1.400 . S
C1728 C1731 1.386 . S
H1729 C1745 0.930 . S
H1730 C1746 0.931 . S
C1731 H1719 0.929 . S
C1731 C1725 1.390 . S
C1731 C1728 1.386 . S
C1732 C1727 1.490 . S
C1732 C1734 1.395 . S
C1732 C1735 1.403 . S
H1733 C1739 0.930 . S
C1734 H1720 0.930 . S
C1734 C1732 1.395 . S
C1734 C1737 1.403 . S
C1735 C1732 1.403 . S
C1735 C1736 1.524 . S
C1735 C1739 1.400 . S
C1736 H1721 0.960 . S
C1736 H1722 0.960 . S
C1736 H1723 0.960 . S
C1736 C1735 1.524 . S
C1737 C1734 1.403 . S
C1737 C1738 1.392 . S
C1737 C1741 1.495 . S
C1738 C1737 1.392 . S
C1738 C1739 1.385 . S
C1738 C1740 1.478 . S
C1739 H1733 0.930 . S
C1739 C1735 1.400 . S
C1739 C1738 1.385 . S
C1740 C1738 1.478 . S
C1740 C1742 1.381 . S
C1740 C1746 1.383 . S
C1741 C1737 1.495 . S
C1741 H1747 0.959 . S
C1741 H1748 0.961 . S
C1741 H1749 0.960 . S
C1742 C1740 1.381 . S
C1742 C1743 1.394 . S
C1742 H1750 0.930 . S
C1743 C1742 1.394 . S
C1743 C1744 1.383 . S
C1743 H1751 0.929 . S
C1744 C1743 1.383 . S
C1744 C1745 1.377 . S
C1745 H1729 0.930 . S
C1745 C1744 1.377 . S
C1745 C1746 1.379 . S
C1746 H1730 0.931 . S
C1746 C1740 1.383 . S
C1746 C1745 1.379 . S
H1747 C1741 0.959 . S
H1748 C1741 0.961 . S
H1749 C1741 0.960 . S
H1750 C1742 0.930 . S
H1751 C1743 0.929 . S
H1752 C1760 0.929 . S
H1753 C1762 0.930 . S
H1754 C1764 0.930 . S
H1755 C1767 0.929 . S
H1756 C1770 0.930 . S
H1757 C1772 0.960 . S
H1758 C1772 0.960 . S
H1759 C1772 0.960 . S
C1760 H1752 0.929 . S
C1760 C1761 1.377 . S
C1760 C1762 1.384 . S
C1761 C1760 1.377 . S
C1761 C1767 1.390 . S
C1762 H1753 0.930 . S
C1762 C1760 1.384 . S
C1762 C1763 1.372 . S
C1763 C1762 1.372 . S
C1763 C1764 1.400 . S
C1763 C1768 1.490 . S
C1764 H1754 0.930 . S
C1764 C1763 1.400 . S
C1764 C1767 1.386 . S
H1765 C1781 0.930 . S
H1766 C1782 0.931 . S
C1767 H1755 0.929 . S
C1767 C1761 1.390 . S
C1767 C1764 1.386 . S
C1768 C1763 1.490 . S
C1768 C1770 1.395 . S
C1768 C1771 1.403 . S
H1769 C1775 0.930 . S
C1770 H1756 0.930 . S
C1770 C1768 1.395 . S
C1770 C1773 1.403 . S
C1771 C1768 1.403 . S
C1771 C1772 1.524 . S
C1771 C1775 1.400 . S
C1772 H1757 0.960 . S
C1772 H1758 0.960 . S
C1772 H1759 0.960 . S
C1772 C1771 1.524 . S
C1773 C1770 1.403 . S
C1773 C1774 1.392 . S
C1773 C1777 1.495 . S
C1774 C1773 1.392 . S
C1774 C1775 1.385 . S
C1774 C1776 1.478 . S
C1775 H1769 0.930 . S
C1775 C1771 1.400 . S
C1775 C1774 1.385 . S
C1776 C1774 1.478 . S
C1776 C1778 1.381 . S
C1776 C1782 1.383 . S
C1777 C1773 1.495 . S
C1777 H1783 0.959 . S
C1777 H1784 0.961 . S
C1777 H1785 0.960 . S
C1778 C1776 1.381 . S
C1778 C1779 1.394 . S
C1778 H1786 0.930 . S
C1779 C1778 1.394 . S
C1779 C1780 1.383 . S
C1779 H1787 0.929 . S
C1780 C1779 1.383 . S
C1780 C1781 1.377 . S
C1781 H1765 0.930 . S
C1781 C1780 1.377 . S
C1781 C1782 1.379 . S
C1782 H1766 0.931 . S
C1782 C1776 1.383 . S
C1782 C1781 1.379 . S
H1783 C1777 0.959 . S
H1784 C1777 0.961 . S
H1785 C1777 0.960 . S
H1786 C1778 0.930 . S
H1787 C1779 0.929 . S
H1788 C1796 0.929 . S
H1789 C1798 0.930 . S
H1790 C1800 0.930 . S
H1791 C1803 0.929 . S
H1792 C1806 0.930 . S
H1793 C1808 0.960 . S
H1794 C1808 0.960 . S
H1795 C1808 0.960 . S
C1796 H1788 0.929 . S
C1796 C1797 1.377 . S
C1796 C1798 1.384 . S
C1797 C1796 1.377 . S
C1797 C1803 1.390 . S
C1798 H1789 0.930 . S
C1798 C1796 1.384 . S
C1798 C1799 1.372 . S
C1799 C1798 1.372 . S
C1799 C1800 1.400 . S
C1799 C1804 1.490 . S
C1800 H1790 0.930 . S
C1800 C1799 1.400 . S
C1800 C1803 1.386 . S
H1801 C1817 0.930 . S
H1802 C1818 0.931 . S
C1803 H1791 0.929 . S
C1803 C1797 1.390 . S
C1803 C1800 1.386 . S
C1804 C1799 1.490 . S
C1804 C1806 1.395 . S
C1804 C1807 1.403 . S
H1805 C1811 0.930 . S
C1806 H1792 0.930 . S
C1806 C1804 1.395 . S
C1806 C1809 1.403 . S
C1807 C1804 1.403 . S
C1807 C1808 1.524 . S
C1807 C1811 1.400 . S
C1808 H1793 0.960 . S
C1808 H1794 0.960 . S
C1808 H1795 0.960 . S
C1808 C1807 1.524 . S
C1809 C1806 1.403 . S
C1809 C1810 1.392 . S
C1809 C1813 1.495 . S
C1810 C1809 1.392 . S
C1810 C1811 1.385 . S
C1810 C1812 1.478 . S
C1811 H1805 0.930 . S
C1811 C1807 1.400 . S
C1811 C1810 1.385 . S
C1812 C1810 1.478 . S
C1812 C1814 1.381 . S
C1812 C1818 1.383 . S
C1813 C1809 1.495 . S
C1813 H1819 0.959 . S
C1813 H1820 0.961 . S
C1813 H1821 0.960 . S
C1814 C1812 1.381 . S
C1814 C1815 1.394 . S
C1814 H1822 0.930 . S
C1815 C1814 1.394 . S
C1815 C1816 1.383 . S
C1815 H1823 0.929 . S
C1816 C1815 1.383 . S
C1816 C1817 1.377 . S
C1817 H1801 0.930 . S
C1817 C1816 1.377 . S
C1817 C1818 1.379 . S
C1818 H1802 0.931 . S
C1818 C1812 1.383 . S
C1818 C1817 1.379 . S
H1819 C1813 0.959 . S
H1820 C1813 0.961 . S
H1821 C1813 0.960 . S
H1822 C1814 0.930 . S
H1823 C1815 0.929 . S
H1824 C1832 0.929 . S
H1825 C1834 0.930 . S
H1826 C1836 0.930 . S
H1827 C1839 0.929 . S
H1828 C1842 0.930 . S
H1829 C1844 0.960 . S
H1830 C1844 0.960 . S
H1831 C1844 0.960 . S
C1832 H1824 0.929 . S
C1832 C1833 1.377 . S
C1832 C1834 1.384 . S
C1833 C1832 1.377 . S
C1833 C1839 1.390 . S
C1834 H1825 0.930 . S
C1834 C1832 1.384 . S
C1834 C1835 1.372 . S
C1835 C1834 1.372 . S
C1835 C1836 1.400 . S
C1835 C1840 1.490 . S
C1836 H1826 0.930 . S
C1836 C1835 1.400 . S
C1836 C1839 1.386 . S
H1837 C1853 0.930 . S
H1838 C1854 0.931 . S
C1839 H1827 0.929 . S
C1839 C1833 1.390 . S
C1839 C1836 1.386 . S
C1840 C1835 1.490 . S
C1840 C1842 1.395 . S
C1840 C1843 1.403 . S
H1841 C1847 0.930 . S
C1842 H1828 0.930 . S
C1842 C1840 1.395 . S
C1842 C1845 1.403 . S
C1843 C1840 1.403 . S
C1843 C1844 1.524 . S
C1843 C1847 1.400 . S
C1844 H1829 0.960 . S
C1844 H1830 0.960 . S
C1844 H1831 0.960 . S
C1844 C1843 1.524 . S
C1845 C1842 1.403 . S
C1845 C1846 1.392 . S
C1845 C1849 1.495 . S
C1846 C1845 1.392 . S
C1846 C1847 1.385 . S
C1846 C1848 1.478 . S
C1847 H1841 0.930 . S
C1847 C1843 1.400 . S
C1847 C1846 1.385 . S
C1848 C1846 1.478 . S
C1848 C1850 1.381 . S
C1848 C1854 1.383 . S
C1849 C1845 1.495 . S
C1849 H1855 0.959 . S
C1849 H1856 0.961 . S
C1849 H1857 0.960 . S
C1850 C1848 1.381 . S
C1850 C1851 1.394 . S
C1850 H1858 0.930 . S
C1851 C1850 1.394 . S
C1851 C1852 1.383 . S
C1851 H1859 0.929 . S
C1852 C1851 1.383 . S
C1852 C1853 1.377 . S
C1853 H1837 0.930 . S
C1853 C1852 1.377 . S
C1853 C1854 1.379 . S
C1854 H1838 0.931 . S
C1854 C1848 1.383 . S
C1854 C1853 1.379 . S
H1855 C1849 0.959 . S
H1856 C1849 0.961 . S
H1857 C1849 0.960 . S
H1858 C1850 0.930 . S
H1859 C1851 0.929 . S
H1860 C1868 0.929 . S
H1861 C1870 0.930 . S
H1862 C1872 0.930 . S
H1863 C1875 0.929 . S
H1864 C1878 0.930 . S
H1865 C1880 0.960 . S
H1866 C1880 0.960 . S
H1867 C1880 0.960 . S
C1868 H1860 0.929 . S
C1868 C1869 1.377 . S
C1868 C1870 1.384 . S
C1869 C1868 1.377 . S
C1869 C1875 1.390 . S
C1870 H1861 0.930 . S
C1870 C1868 1.384 . S
C1870 C1871 1.372 . S
C1871 C1870 1.372 . S
C1871 C1872 1.400 . S
C1871 C1876 1.490 . S
C1872 H1862 0.930 . S
C1872 C1871 1.400 . S
C1872 C1875 1.386 . S
H1873 C1889 0.930 . S
H1874 C1890 0.931 . S
C1875 H1863 0.929 . S
C1875 C1869 1.390 . S
C1875 C1872 1.386 . S
C1876 C1871 1.490 . S
C1876 C1878 1.395 . S
C1876 C1879 1.403 . S
H1877 C1883 0.930 . S
C1878 H1864 0.930 . S
C1878 C1876 1.395 . S
C1878 C1881 1.403 . S
C1879 C1876 1.403 . S
C1879 C1880 1.524 . S
C1879 C1883 1.400 . S
C1880 H1865 0.960 . S
C1880 H1866 0.960 . S
C1880 H1867 0.960 . S
C1880 C1879 1.524 . S
C1881 C1878 1.403 . S
C1881 C1882 1.392 . S
C1881 C1885 1.495 . S
C1882 C1881 1.392 . S
C1882 C1883 1.385 . S
C1882 C1884 1.478 . S
C1883 H1877 0.930 . S
C1883 C1879 1.400 . S
C1883 C1882 1.385 . S
C1884 C1882 1.478 . S
C1884 C1886 1.381 . S
C1884 C1890 1.383 . S
C1885 C1881 1.495 . S
C1885 H1891 0.959 . S
C1885 H1892 0.961 . S
C1885 H1893 0.960 . S
C1886 C1884 1.381 . S
C1886 C1887 1.394 . S
C1886 H1894 0.930 . S
C1887 C1886 1.394 . S
C1887 C1888 1.383 . S
C1887 H1895 0.929 . S
C1888 C1887 1.383 . S
C1888 C1889 1.377 . S
C1889 H1873 0.930 . S
C1889 C1888 1.377 . S
C1889 C1890 1.379 . S
C1890 H1874 0.931 . S
C1890 C1884 1.383 . S
C1890 C1889 1.379 . S
H1891 C1885 0.959 . S
H1892 C1885 0.961 . S
H1893 C1885 0.960 . S
H1894 C1886 0.930 . S
H1895 C1887 0.929 . S
H1896 C1904 0.929 . S
H1897 C1906 0.930 . S
H1898 C1908 0.930 . S
H1899 C1911 0.929 . S
H1900 C1914 0.930 . S
H1901 C1916 0.960 . S
H1902 C1916 0.960 . S
H1903 C1916 0.960 . S
C1904 H1896 0.929 . S
C1904 C1905 1.377 . S
C1904 C1906 1.384 . S
C1905 C1904 1.377 . S
C1905 C1911 1.390 . S
C1906 H1897 0.930 . S
C1906 C1904 1.384 . S
C1906 C1907 1.372 . S
C1907 C1906 1.372 . S
C1907 C1908 1.400 . S
C1907 C1912 1.490 . S
C1908 H1898 0.930 . S
C1908 C1907 1.400 . S
C1908 C1911 1.386 . S
H1909 C1925 0.930 . S
H1910 C1926 0.931 . S
C1911 H1899 0.929 . S
C1911 C1905 1.390 . S
C1911 C1908 1.386 . S
C1912 C1907 1.490 . S
C1912 C1914 1.395 . S
C1912 C1915 1.403 . S
H1913 C1919 0.930 . S
C1914 H1900 0.930 . S
C1914 C1912 1.395 . S
C1914 C1917 1.403 . S
C1915 C1912 1.403 . S
C1915 C1916 1.524 . S
C1915 C1919 1.400 . S
C1916 H1901 0.960 . S
C1916 H1902 0.960 . S
C1916 H1903 0.960 . S
C1916 C1915 1.524 . S
C1917 C1914 1.403 . S
C1917 C1918 1.392 . S
C1917 C1921 1.495 . S
C1918 C1917 1.392 . S
C1918 C1919 1.385 . S
C1918 C1920 1.478 . S
C1919 H1913 0.930 . S
C1919 C1915 1.400 . S
C1919 C1918 1.385 . S
C1920 C1918 1.478 . S
C1920 C1922 1.381 . S
C1920 C1926 1.383 . S
C1921 C1917 1.495 . S
C1921 H1927 0.959 . S
C1921 H1928 0.961 . S
C1921 H1929 0.960 . S
C1922 C1920 1.381 . S
C1922 C1923 1.394 . S
C1922 H1930 0.930 . S
C1923 C1922 1.394 . S
C1923 C1924 1.383 . S
C1923 H1931 0.929 . S
C1924 C1923 1.383 . S
C1924 C1925 1.377 . S
C1925 H1909 0.930 . S
C1925 C1924 1.377 . S
C1925 C1926 1.379 . S
C1926 H1910 0.931 . S
C1926 C1920 1.383 . S
C1926 C1925 1.379 . S
H1927 C1921 0.959 . S
H1928 C1921 0.961 . S
H1929 C1921 0.960 . S
H1930 C1922 0.930 . S
H1931 C1923 0.929 . S
H1932 C1940 0.929 . S
H1933 C1942 0.930 . S
H1934 C1944 0.930 . S
H1935 C1947 0.929 . S
H1936 C1950 0.930 . S
H1937 C1952 0.960 . S
H1938 C1952 0.960 . S
H1939 C1952 0.960 . S
C1940 H1932 0.929 . S
C1940 C1941 1.377 . S
C1940 C1942 1.384 . S
C1941 C1940 1.377 . S
C1941 C1947 1.390 . S
C1942 H1933 0.930 . S
C1942 C1940 1.384 . S
C1942 C1943 1.372 . S
C1943 C1942 1.372 . S
C1943 C1944 1.400 . S
C1943 C1948 1.490 . S
C1944 H1934 0.930 . S
C1944 C1943 1.400 . S
C1944 C1947 1.386 . S
H1945 C1961 0.930 . S
H1946 C1962 0.931 . S
C1947 H1935 0.929 . S
C1947 C1941 1.390 . S
C1947 C1944 1.386 . S
C1948 C1943 1.490 . S
C1948 C1950 1.395 . S
C1948 C1951 1.403 . S
H1949 C1955 0.930 . S
C1950 H1936 0.930 . S
C1950 C1948 1.395 . S
C1950 C1953 1.403 . S
C1951 C1948 1.403 . S
C1951 C1952 1.524 . S
C1951 C1955 1.400 . S
C1952 H1937 0.960 . S
C1952 H1938 0.960 . S
C1952 H1939 0.960 . S
C1952 C1951 1.524 . S
C1953 C1950 1.403 . S
C1953 C1954 1.392 . S
C1953 C1957 1.495 . S
C1954 C1953 1.392 . S
C1954 C1955 1.385 . S
C1954 C1956 1.478 . S
C1955 H1949 0.930 . S
C1955 C1951 1.400 . S
C1955 C1954 1.385 . S
C1956 C1954 1.478 . S
C1956 C1958 1.381 . S
C1956 C1962 1.383 . S
C1957 C1953 1.495 . S
C1957 H1963 0.959 . S
C1957 H1964 0.961 . S
C1957 H1965 0.960 . S
C1958 C1956 1.381 . S
C1958 C1959 1.394 . S
C1958 H1966 0.930 . S
C1959 C1958 1.394 . S
C1959 C1960 1.383 . S
C1959 H1967 0.929 . S
C1960 C1959 1.383 . S
C1960 C1961 1.377 . S
C1961 H1945 0.930 . S
C1961 C1960 1.377 . S
C1961 C1962 1.379 . S
C1962 H1946 0.931 . S
C1962 C1956 1.383 . S
C1962 C1961 1.379 . S
H1963 C1957 0.959 . S
H1964 C1957 0.961 . S
H1965 C1957 0.960 . S
H1966 C1958 0.930 . S
H1967 C1959 0.929 . S
H1968 C1976 0.929 . S
H1969 C1978 0.930 . S
H1970 C1980 0.930 . S
H1971 C1983 0.929 . S
H1972 C1986 0.930 . S
H1973 C1988 0.960 . S
H1974 C1988 0.960 . S
H1975 C1988 0.960 . S
C1976 H1968 0.929 . S
C1976 C1977 1.377 . S
C1976 C1978 1.384 . S
C1977 C1976 1.377 . S
C1977 C1983 1.390 . S
C1978 H1969 0.930 . S
C1978 C1976 1.384 . S
C1978 C1979 1.372 . S
C1979 C1978 1.372 . S
C1979 C1980 1.400 . S
C1979 C1984 1.490 . S
C1980 H1970 0.930 . S
C1980 C1979 1.400 . S
C1980 C1983 1.386 . S
H1981 C1997 0.930 . S
H1982 C1998 0.931 . S
C1983 H1971 0.929 . S
C1983 C1977 1.390 . S
C1983 C1980 1.386 . S
C1984 C1979 1.490 . S
C1984 C1986 1.395 . S
C1984 C1987 1.403 . S
H1985 C1991 0.930 . S
C1986 H1972 0.930 . S
C1986 C1984 1.395 . S
C1986 C1989 1.403 . S
C1987 C1984 1.403 . S
C1987 C1988 1.524 . S
C1987 C1991 1.400 . S
C1988 H1973 0.960 . S
C1988 H1974 0.960 . S
C1988 H1975 0.960 . S
C1988 C1987 1.524 . S
C1989 C1986 1.403 . S
C1989 C1990 1.392 . S
C1989 C1993 1.495 . S
C1990 C1989 1.392 . S
C1990 C1991 1.385 . S
C1990 C1992 1.478 . S
C1991 H1985 0.930 . S
C1991 C1987 1.400 . S
C1991 C1990 1.385 . S
C1992 C1990 1.478 . S
C1992 C1994 1.381 . S
C1992 C1998 1.383 . S
C1993 C1989 1.495 . S
C1993 H1999 0.959 . S
C1993 H2000 0.961 . S
C1993 H2001 0.960 . S
C1994 C1992 1.381 . S
C1994 C1995 1.394 . S
C1994 H2002 0.930 . S
C1995 C1994 1.394 . S
C1995 C1996 1.383 . S
C1995 H2003 0.929 . S
C1996 C1995 1.383 . S
C1996 C1997 1.377 . S
C1997 H1981 0.930 . S
C1997 C1996 1.377 . S
C1997 C1998 1.379 . S
C1998 H1982 0.931 . S
C1998 C1992 1.383 . S
C1998 C1997 1.379 . S
H1999 C1993 0.959 . S
H2000 C1993 0.961 . S
H2001 C1993 0.960 . S
H2002 C1994 0.930 . S
H2003 C1995 0.929 . S
H2004 C2012 0.929 . S
H2005 C2014 0.930 . S
H2006 C2016 0.930 . S
H2007 C2019 0.929 . S
H2008 C2022 0.930 . S
H2009 C2024 0.960 . S
H2010 C2024 0.960 . S
H2011 C2024 0.960 . S
C2012 H2004 0.929 . S
C2012 C2013 1.377 . S
C2012 C2014 1.384 . S
C2013 C2012 1.377 . S
C2013 C2019 1.390 . S
C2014 H2005 0.930 . S
C2014 C2012 1.384 . S
C2014 C2015 1.372 . S
C2015 C2014 1.372 . S
C2015 C2016 1.400 . S
C2015 C2020 1.490 . S
C2016 H2006 0.930 . S
C2016 C2015 1.400 . S
C2016 C2019 1.386 . S
H2017 C2033 0.930 . S
H2018 C2034 0.931 . S
C2019 H2007 0.929 . S
C2019 C2013 1.390 . S
C2019 C2016 1.386 . S
C2020 C2015 1.490 . S
C2020 C2022 1.395 . S
C2020 C2023 1.403 . S
H2021 C2027 0.930 . S
C2022 H2008 0.930 . S
C2022 C2020 1.395 . S
C2022 C2025 1.403 . S
C2023 C2020 1.403 . S
C2023 C2024 1.524 . S
C2023 C2027 1.400 . S
C2024 H2009 0.960 . S
C2024 H2010 0.960 . S
C2024 H2011 0.960 . S
C2024 C2023 1.524 . S
C2025 C2022 1.403 . S
C2025 C2026 1.392 . S
C2025 C2029 1.495 . S
C2026 C2025 1.392 . S
C2026 C2027 1.385 . S
C2026 C2028 1.478 . S
C2027 H2021 0.930 . S
C2027 C2023 1.400 . S
C2027 C2026 1.385 . S
C2028 C2026 1.478 . S
C2028 C2030 1.381 . S
C2028 C2034 1.383 . S
C2029 C2025 1.495 . S
C2029 H2035 0.959 . S
C2029 H2036 0.961 . S
C2029 H2037 0.960 . S
C2030 C2028 1.381 . S
C2030 C2031 1.394 . S
C2030 H2038 0.930 . S
C2031 C2030 1.394 . S
C2031 C2032 1.383 . S
C2031 H2039 0.929 . S
C2032 C2031 1.383 . S
C2032 C2033 1.377 . S
C2033 H2017 0.930 . S
C2033 C2032 1.377 . S
C2033 C2034 1.379 . S
C2034 H2018 0.931 . S
C2034 C2028 1.383 . S
C2034 C2033 1.379 . S
H2035 C2029 0.959 . S
H2036 C2029 0.961 . S
H2037 C2029 0.960 . S
H2038 C2030 0.930 . S
H2039 C2031 0.929 . S
C321 C5 1.579 . S
C340 C96 1.582 . S
C357 C109 1.581 . S
C376 C16 1.578 . S
C393 C31 1.580 . S
C412 C120 1.582 . S
C429 C44 1.580 . S
C448 C133 1.579 . S
C465 C148 1.580 . S
C484 C55 1.578 . S
C501 C70 1.581 . S
C520 C81 1.574 . S
C537 C161 1.579 . S
C556 C252 1.573 . S
C573 C172 1.581 . S
C592 C265 1.581 . S
C609 C276 1.582 . S
C628 C185 1.581 . S
C645 C198 1.580 . S
C664 C291 1.574 . S
C681 C211 1.581 . S
C700 C302 1.583 . S
C717 C237 1.580 . S
C736 C224 1.582 . S
C753 C4 1.576 . S
C772 C108 1.567 . S
C789 C127 1.576 . S
C808 C23 1.579 . S
C825 C140 1.576 . S
C844 C30 1.579 . S
C861 C43 1.577 . S
C880 C147 1.580 . S
C897 C62 1.577 . S
C916 C88 1.579 . S
C933 C69 1.575 . S
C952 C95 1.565 . S
C969 C264 1.577 . S
C988 C160 1.570 . S
C1005 C179 1.575 . S
C1024 C283 1.566 . S
C1041 C290 1.576 . S
C1060 C192 1.566 . S
C1077 C309 1.578 . S
C1096 C205 1.572 . S
C1113 C244 1.577 . S
C1132 C218 1.570 . S
C1149 C231 1.574 . S
C1168 C251 1.567 . S
C1185 C10 1.678 . S
C1204 C199 1.686 . S
C1221 C212 1.676 . S
C1240 C17 1.683 . S
C1257 C225 1.678 . S
C1276 C36 1.664 . S
C1293 C49 1.681 . S
C1312 C166 1.673 . S
C1329 C56 1.677 . S
C1348 C173 1.670 . S
C1365 C186 1.681 . S
C1384 C75 1.667 . S
C1401 C277 1.678 . S
C1420 C82 1.686 . S
C1437 C296 1.678 . S
C1456 C101 1.686 . S
C1473 C303 1.676 . S
C1492 C114 1.685 . S
C1509 C238 1.678 . S
C1528 C121 1.664 . S
C1545 C134 1.677 . S
C1564 C257 1.667 . S
C1581 C153 1.680 . S
C1600 C270 1.663 . S
C1617 C3 1.541 . S
C1636 C135 1.546 . S
C1653 C146 1.544 . S
C1672 C18 1.553 . S
C1689 C83 1.545 . S
C1708 C29 1.529 . S
C1725 C42 1.541 . S
C1744 C94 1.539 . S
C1761 C57 1.542 . S
C1780 C107 1.533 . S
C1797 C68 1.545 . S
C1816 C122 1.548 . S
C1833 C159 1.544 . S
C1852 C289 1.535 . S
C1869 C174 1.542 . S
C1888 C304 1.528 . S
C1905 C187 1.541 . S
C1924 C239 1.535 . S
C1941 C250 1.544 . S
C1960 C200 1.537 . S
C1977 C213 1.542 . S
C1996 C263 1.535 . S
C2013 C226 1.543 . S
C2032 C278 1.534 . S
