# Generated by pormake.
# Topology bcs, (6)-cn, num edge types: 1
# Building blocks:
#     Node 0, Type 0, BuildingBlock: UKALOJ_clean_sbu_0, # of connection points: 6
#     Node 1, Type 0, BuildingBlock: UKALOJ_clean_sbu_0, # of connection points: 6
#     Node 2, Type 0, BuildingBlock: UKALOJ_clean_sbu_0, # of connection points: 6
#     Node 3, Type 0, BuildingBlock: UKALOJ_clean_sbu_0, # of connection points: 6
#     Node 4, Type 0, BuildingBlock: UKALOJ_clean_sbu_0, # of connection points: 6
#     Node 5, Type 0, BuildingBlock: UKALOJ_clean_sbu_0, # of connection points: 6
#     Node 6, Type 0, BuildingBlock: UKALOJ_clean_sbu_0, # of connection points: 6
#     Node 7, Type 0, BuildingBlock: UKALOJ_clean_sbu_0, # of connection points: 6
#     Node 8, Type 0, BuildingBlock: UKALOJ_clean_sbu_0, # of connection points: 6
#     Node 9, Type 0, BuildingBlock: UKALOJ_clean_sbu_0, # of connection points: 6
#     Node 10, Type 0, BuildingBlock: UKALOJ_clean_sbu_0, # of connection points: 6
#     Node 11, Type 0, BuildingBlock: UKALOJ_clean_sbu_0, # of connection points: 6
#     Node 12, Type 0, BuildingBlock: UKALOJ_clean_sbu_0, # of connection points: 6
#     Node 13, Type 0, BuildingBlock: UKALOJ_clean_sbu_0, # of connection points: 6
#     Node 14, Type 0, BuildingBlock: UKALOJ_clean_sbu_0, # of connection points: 6
#     Node 15, Type 0, BuildingBlock: UKALOJ_clean_sbu_0, # of connection points: 6
#     Edge 16, Type (0, 0), BuildingBlock: OJICUG_clean_linker_0, # of connection points: 2
#     Edge 17, Type (0, 0), BuildingBlock: OJICUG_clean_linker_0, # of connection points: 2
#     Edge 18, Type (0, 0), BuildingBlock: OJICUG_clean_linker_0, # of connection points: 2
#     Edge 19, Type (0, 0), BuildingBlock: OJICUG_clean_linker_0, # of connection points: 2
#     Edge 20, Type (0, 0), BuildingBlock: OJICUG_clean_linker_0, # of connection points: 2
#     Edge 21, Type (0, 0), BuildingBlock: OJICUG_clean_linker_0, # of connection points: 2
#     Edge 22, Type (0, 0), BuildingBlock: OJICUG_clean_linker_0, # of connection points: 2
#     Edge 23, Type (0, 0), BuildingBlock: OJICUG_clean_linker_0, # of connection points: 2
#     Edge 24, Type (0, 0), BuildingBlock: OJICUG_clean_linker_0, # of connection points: 2
#     Edge 25, Type (0, 0), BuildingBlock: OJICUG_clean_linker_0, # of connection points: 2
#     Edge 26, Type (0, 0), BuildingBlock: OJICUG_clean_linker_0, # of connection points: 2
#     Edge 27, Type (0, 0), BuildingBlock: OJICUG_clean_linker_0, # of connection points: 2
#     Edge 28, Type (0, 0), BuildingBlock: OJICUG_clean_linker_0, # of connection points: 2
#     Edge 29, Type (0, 0), BuildingBlock: OJICUG_clean_linker_0, # of connection points: 2
#     Edge 30, Type (0, 0), BuildingBlock: OJICUG_clean_linker_0, # of connection points: 2
#     Edge 31, Type (0, 0), BuildingBlock: OJICUG_clean_linker_0, # of connection points: 2
#     Edge 32, Type (0, 0), BuildingBlock: OJICUG_clean_linker_0, # of connection points: 2
#     Edge 33, Type (0, 0), BuildingBlock: OJICUG_clean_linker_0, # of connection points: 2
#     Edge 34, Type (0, 0), BuildingBlock: OJICUG_clean_linker_0, # of connection points: 2
#     Edge 35, Type (0, 0), BuildingBlock: OJICUG_clean_linker_0, # of connection points: 2
#     Edge 36, Type (0, 0), BuildingBlock: OJICUG_clean_linker_0, # of connection points: 2
#     Edge 37, Type (0, 0), BuildingBlock: OJICUG_clean_linker_0, # of connection points: 2
#     Edge 38, Type (0, 0), BuildingBlock: OJICUG_clean_linker_0, # of connection points: 2
#     Edge 39, Type (0, 0), BuildingBlock: OJICUG_clean_linker_0, # of connection points: 2
#     Edge 40, Type (0, 0), BuildingBlock: OJICUG_clean_linker_0, # of connection points: 2
#     Edge 41, Type (0, 0), BuildingBlock: OJICUG_clean_linker_0, # of connection points: 2
#     Edge 42, Type (0, 0), BuildingBlock: OJICUG_clean_linker_0, # of connection points: 2
#     Edge 43, Type (0, 0), BuildingBlock: OJICUG_clean_linker_0, # of connection points: 2
#     Edge 44, Type (0, 0), BuildingBlock: OJICUG_clean_linker_0, # of connection points: 2
#     Edge 45, Type (0, 0), BuildingBlock: OJICUG_clean_linker_0, # of connection points: 2
#     Edge 46, Type (0, 0), BuildingBlock: OJICUG_clean_linker_0, # of connection points: 2
#     Edge 47, Type (0, 0), BuildingBlock: OJICUG_clean_linker_0, # of connection points: 2
#     Edge 48, Type (0, 0), BuildingBlock: OJICUG_clean_linker_0, # of connection points: 2
#     Edge 49, Type (0, 0), BuildingBlock: OJICUG_clean_linker_0, # of connection points: 2
#     Edge 50, Type (0, 0), BuildingBlock: OJICUG_clean_linker_0, # of connection points: 2
#     Edge 51, Type (0, 0), BuildingBlock: OJICUG_clean_linker_0, # of connection points: 2
#     Edge 52, Type (0, 0), BuildingBlock: OJICUG_clean_linker_0, # of connection points: 2
#     Edge 53, Type (0, 0), BuildingBlock: OJICUG_clean_linker_0, # of connection points: 2
#     Edge 54, Type (0, 0), BuildingBlock: OJICUG_clean_linker_0, # of connection points: 2
#     Edge 55, Type (0, 0), BuildingBlock: OJICUG_clean_linker_0, # of connection points: 2
#     Edge 56, Type (0, 0), BuildingBlock: OJICUG_clean_linker_0, # of connection points: 2
#     Edge 57, Type (0, 0), BuildingBlock: OJICUG_clean_linker_0, # of connection points: 2
#     Edge 58, Type (0, 0), BuildingBlock: OJICUG_clean_linker_0, # of connection points: 2
#     Edge 59, Type (0, 0), BuildingBlock: OJICUG_clean_linker_0, # of connection points: 2
#     Edge 60, Type (0, 0), BuildingBlock: OJICUG_clean_linker_0, # of connection points: 2
#     Edge 61, Type (0, 0), BuildingBlock: OJICUG_clean_linker_0, # of connection points: 2
#     Edge 62, Type (0, 0), BuildingBlock: OJICUG_clean_linker_0, # of connection points: 2
#     Edge 63, Type (0, 0), BuildingBlock: OJICUG_clean_linker_0, # of connection points: 2
# Relax obj value: 0.591
# Max RMSD: 0.313
# Mean RMSD: 0.274
data_MOF--net-bcs--node1-UKALOJ_clean_sbu_0--edge1-OJICUG_clean_linker_0
_symmetry_space_group_name_H-M    P1
_symmetry_Int_Tables_number       1
_symmetry_cell_setting            triclinic
loop_
_symmetry_equiv_pos_as_xyz
'x, y, z'
_cell_length_a     27.867982
_cell_length_b     27.541483
_cell_length_c     29.761054
_cell_angle_alpha  89.600327
_cell_angle_beta   90.201957
_cell_angle_gamma 72.422732
loop_
_atom_site_label
_atom_site_type_symbol
_atom_site_fract_x
_atom_site_fract_y
_atom_site_fract_z
_atom_type_partial_charge
Zn0 Zn 0.03815 0.03177 0.00492 0.0
O1 O 0.0798 0.00015 0.06333 0.0
C2 C 0.06844 0.92837 0.96152 0.0
Zn3 Zn 0.98396 0.98639 0.01542 0.0
C4 C 0.06514 0.96844 0.08662 0.0
O5 O 0.02673 0.95624 0.07389 0.0
C6 C 0.95629 0.04993 0.93396 0.0
O7 O 0.94168 0.04962 0.0513 0.0
O8 O 0.99484 0.09388 0.04322 0.0
N9 N 0.9334 0.94709 0.03169 0.0
C10 C 0.90907 0.94467 0.07049 0.0
C11 C 0.89113 0.89341 0.02482 0.0
N12 N 0.92197 0.91532 0.00336 0.0
N13 N 0.88244 0.91107 0.06708 0.0
C14 C 0.1124 0.07544 0.95055 0.0
C15 C 0.13257 0.12325 0.99833 0.0
N16 N 0.08894 0.07106 0.98939 0.0
N17 N 0.10185 0.10061 0.01904 0.0
N18 N 0.13986 0.10813 0.95527 0.0
H19 H 0.13295 0.00382 0.91717 0.0
H20 H 0.13094 0.05539 0.88046 0.0
H21 H 0.07302 0.04601 0.90015 0.0
C22 C 0.11203 0.04403 0.90953 0.0
C23 C 0.90744 0.97905 0.10982 0.0
H24 H 0.88395 0.01798 0.10055 0.0
H25 H 0.94568 0.98052 0.1183 0.0
H26 H 0.89004 0.96793 0.13994 0.0
O27 O 0.94254 0.01739 0.95698 0.0
O28 O 0.99448 0.06268 0.94661 0.0
C29 C 0.95389 0.08967 0.0588 0.0
O30 O 0.08021 0.96883 0.96833 0.0
O31 O 0.02784 0.92389 0.97773 0.0
Zn32 Zn 0.2282 0.75559 0.28323 0.0
O33 O 0.28091 0.69019 0.31151 0.0
C34 C 0.28982 0.81593 0.32309 0.0
Zn35 Zn 0.28956 0.76014 0.23666 0.0
C36 C 0.32629 0.67293 0.29868 0.0
O37 O 0.34156 0.69475 0.26634 0.0
C38 C 0.19137 0.8428 0.22127 0.0
O39 O 0.26616 0.71405 0.18857 0.0
O40 O 0.20574 0.71134 0.23465 0.0
N41 N 0.34394 0.76834 0.19311 0.0
C42 C 0.35205 0.8106 0.17585 0.0
C43 C 0.40667 0.74688 0.14719 0.0
N44 N 0.37806 0.72877 0.17531 0.0
N45 N 0.39065 0.79815 0.14672 0.0
C46 C 0.1645 0.70464 0.3419 0.0
C47 C 0.10867 0.76809 0.36962 0.0
N48 N 0.17347 0.74708 0.32602 0.0
N49 N 0.1386 0.78648 0.34321 0.0
N50 N 0.1245 0.71683 0.36948 0.0
H51 H 0.21321 0.64969 0.29702 0.0
H52 H 0.16699 0.62777 0.32623 0.0
H53 H 0.22057 0.63417 0.35609 0.0
C54 C 0.19302 0.65118 0.3291 0.0
C55 C 0.3241 0.86416 0.18874 0.0
H56 H 0.29585 0.88113 0.16228 0.0
H57 H 0.35036 0.88741 0.1906 0.0
H58 H 0.3049 0.86578 0.22138 0.0
O59 O 0.23661 0.82528 0.20813 0.0
O60 O 0.17631 0.82127 0.2539 0.0
C61 C 0.22789 0.69953 0.19725 0.0
O62 O 0.25184 0.80083 0.33152 0.0
O63 O 0.31182 0.80514 0.28544 0.0
Zn64 Zn 0.52819 0.04049 0.5122 0.0
O65 O 0.48678 0.10086 0.46993 0.0
C66 C 0.44788 0.06141 0.58231 0.0
Zn67 Zn 0.47899 0.98946 0.5047 0.0
C68 C 0.44903 0.09071 0.45276 0.0
O69 O 0.44015 0.04943 0.46309 0.0
C70 C 0.55815 0.9395 0.5642 0.0
O71 O 0.52217 0.95429 0.44818 0.0
O72 O 0.5705 0.00352 0.45559 0.0
N73 N 0.42358 0.95567 0.49075 0.0
C74 C 0.42207 0.91708 0.46358 0.0
C75 C 0.34643 0.95603 0.48167 0.0
N76 N 0.37646 0.97945 0.50219 0.0
N77 N 0.37406 0.91694 0.45684 0.0
C78 C 0.58871 0.10876 0.55524 0.0
C79 C 0.66276 0.07015 0.53268 0.0
N80 N 0.58458 0.07319 0.52573 0.0
N81 N 0.63073 0.04968 0.51153 0.0
N82 N 0.63745 0.10701 0.56079 0.0
H83 H 0.51135 0.15547 0.55436 0.0
H84 H 0.55414 0.1827 0.5836 0.0
H85 H 0.53647 0.1313 0.60885 0.0
C86 C 0.54497 0.14696 0.57659 0.0
C87 C 0.46758 0.87796 0.44573 0.0
H88 H 0.47731 0.89076 0.41262 0.0
H89 H 0.45984 0.84106 0.44112 0.0
H90 H 0.49999 0.8726 0.46901 0.0
O91 O 0.52022 0.92949 0.5473 0.0
O92 O 0.56719 0.98056 0.55354 0.0
C93 C 0.55931 0.96819 0.4348 0.0
O94 O 0.48512 0.0753 0.56905 0.0
O95 O 0.43638 0.02646 0.56116 0.0
Zn96 Zn 0.28335 0.2712 0.77943 0.0
O97 O 0.23155 0.33445 0.81008 0.0
C98 C 0.22769 0.2079 0.82245 0.0
Zn99 Zn 0.22104 0.26531 0.73441 0.0
C100 C 0.18585 0.35161 0.79763 0.0
O101 O 0.17057 0.33115 0.76455 0.0
C102 C 0.31873 0.18441 0.71644 0.0
O103 O 0.23958 0.30958 0.68276 0.0
O104 O 0.29798 0.31963 0.72835 0.0
N105 N 0.16246 0.25565 0.6972 0.0
C106 C 0.16019 0.23062 0.65875 0.0
C107 C 0.08813 0.24839 0.6893 0.0
N108 N 0.11729 0.2675 0.71556 0.0
N109 N 0.11403 0.22461 0.65341 0.0
C110 C 0.34311 0.3046 0.85704 0.0
C111 C 0.41401 0.29416 0.82574 0.0
N112 N 0.34132 0.28306 0.81663 0.0
N113 N 0.38559 0.27636 0.7975 0.0
N114 N 0.38833 0.31273 0.86338 0.0
H115 H 0.27898 0.28813 0.88608 0.0
H116 H 0.27633 0.35399 0.88636 0.0
H117 H 0.3172 0.31018 0.9255 0.0
C118 C 0.30162 0.31459 0.89083 0.0
C119 C 0.20361 0.21076 0.62743 0.0
H120 H 0.23465 0.22667 0.63516 0.0
H121 H 0.19178 0.22233 0.59248 0.0
H122 H 0.21685 0.16856 0.62912 0.0
O123 O 0.27214 0.19904 0.70665 0.0
O124 O 0.335 0.20766 0.74694 0.0
C125 C 0.27544 0.32799 0.69049 0.0
O126 O 0.26664 0.22191 0.82985 0.0
O127 O 0.20356 0.22098 0.7858 0.0
Zn128 Zn 0.04631 0.99835 0.48808 0.0
O129 O 0.01342 0.94686 0.45655 0.0
C130 C 0.96636 0.08444 0.45299 0.0
Zn131 Zn 0.98103 0.01679 0.53403 0.0
C132 C 0.97153 0.94127 0.4682 0.0
O133 O 0.94731 0.96753 0.50045 0.0
C134 C 0.05519 0.0737 0.5542 0.0
O135 O 0.01684 0.95798 0.57969 0.0
O136 O 0.0814 0.94158 0.53428 0.0
N137 N 0.92134 0.04409 0.57537 0.0
C138 C 0.89962 0.0203 0.6048 0.0
C139 C 0.86789 0.10017 0.61554 0.0
N140 N 0.90133 0.09376 0.58176 0.0
N141 N 0.86622 0.05449 0.6302 0.0
C142 C 0.1142 0.97067 0.40361 0.0
C143 C 0.18671 0.94203 0.4334 0.0
N144 N 0.10806 0.97216 0.44848 0.0
N145 N 0.15311 0.9532 0.46692 0.0
N146 N 0.16376 0.95268 0.39287 0.0
H147 H 0.03447 0.99263 0.38762 0.0
H148 H 0.074 0.95359 0.34735 0.0
H149 H 0.07175 0.0198 0.35147 0.0
C150 C 0.07111 0.9854 0.37079 0.0
C151 C 0.91308 0.96366 0.6108 0.0
H152 H 0.92895 0.94358 0.57963 0.0
H153 H 0.87942 0.95265 0.62072 0.0
H154 H 0.94138 0.95157 0.6382 0.0
O155 O 0.01493 0.06537 0.56672 0.0
O156 O 0.07862 0.05033 0.52032 0.0
C157 C 0.06138 0.93177 0.57 0.0
O158 O 0.01037 0.0573 0.44269 0.0
O159 O 0.94641 0.07482 0.48884 0.0
Zn160 Zn 0.2747 0.77766 0.76181 0.0
O161 O 0.22197 0.81253 0.71259 0.0
C162 C 0.19085 0.79503 0.83137 0.0
Zn163 Zn 0.23329 0.72036 0.76501 0.0
C164 C 0.18548 0.79738 0.69977 0.0
O165 O 0.17888 0.75763 0.71698 0.0
C166 C 0.32182 0.70162 0.82781 0.0
O167 O 0.28351 0.68733 0.71153 0.0
O168 O 0.32495 0.74349 0.71132 0.0
N169 N 0.20681 0.65898 0.76562 0.0
C170 C 0.23015 0.60999 0.75517 0.0
C171 C 0.15247 0.61769 0.76307 0.0
N172 N 0.1586 0.6635 0.77138 0.0
N173 N 0.19685 0.58331 0.75279 0.0
C174 C 0.27934 0.88773 0.77069 0.0
C175 C 0.35726 0.87817 0.76123 0.0
N176 N 0.30171 0.83834 0.761 0.0
N177 N 0.35003 0.83261 0.75445 0.0
N178 N 0.31349 0.91351 0.7715 0.0
H179 H 0.20193 0.89296 0.75611 0.0
H180 H 0.21263 0.95277 0.76951 0.0
H181 H 0.21413 0.90675 0.81296 0.0
C182 C 0.22382 0.91141 0.77747 0.0
C183 C 0.28573 0.58751 0.74771 0.0
H184 H 0.30743 0.60622 0.769 0.0
H185 H 0.29485 0.59258 0.71213 0.0
H186 H 0.29771 0.54604 0.75527 0.0
O187 O 0.28653 0.68511 0.81411 0.0
O188 O 0.3278 0.74158 0.81051 0.0
C189 C 0.31803 0.70363 0.69537 0.0
O190 O 0.22472 0.81109 0.81379 0.0
O191 O 0.1836 0.75465 0.81673 0.0
Zn192 Zn 0.53596 0.00353 0.03606 0.0
O193 O 0.49039 0.06018 0.07986 0.0
C194 C 0.4653 0.9409 0.05027 0.0
Zn195 Zn 0.47296 0.02095 0.98694 0.0
C196 C 0.44622 0.0859 0.06765 0.0
O197 O 0.42958 0.07713 0.0298 0.0
C198 C 0.56218 0.93882 0.95486 0.0
O199 O 0.50477 0.07452 0.95806 0.0
O200 O 0.567 0.05799 0.00672 0.0
N201 N 0.41701 0.04266 0.94016 0.0
C202 C 0.39161 0.01586 0.91793 0.0
C203 C 0.36791 0.09142 0.89089 0.0
N204 N 0.4021 0.08968 0.92353 0.0
N205 N 0.36013 0.04574 0.88745 0.0
C206 C 0.60632 0.00869 0.11485 0.0
C207 C 0.65014 0.93096 0.12384 0.0
N208 N 0.5921 0.9819 0.08266 0.0
N209 N 0.6194 0.93359 0.08817 0.0
N210 N 0.64194 0.9776 0.14131 0.0
H211 H 0.57128 0.0843 0.08777 0.0
H212 H 0.61681 0.08075 0.13194 0.0
H213 H 0.5563 0.07442 0.1454 0.0
C214 C 0.58657 0.06539 0.11991 0.0
C215 C 0.40029 0.95961 0.92355 0.0
H216 H 0.39617 0.94189 0.89097 0.0
H217 H 0.37176 0.95344 0.94698 0.0
H218 H 0.43813 0.94026 0.9374 0.0
O219 O 0.51745 0.96368 0.9435 0.0
O220 O 0.57966 0.94823 0.99215 0.0
C221 C 0.54439 0.08287 0.97268 0.0
O222 O 0.50546 0.94861 0.06426 0.0
O223 O 0.44151 0.96719 0.01737 0.0
Zn224 Zn 0.25845 0.28572 0.26047 0.0
O225 O 0.3099 0.25887 0.31218 0.0
C226 C 0.31235 0.21462 0.19428 0.0
Zn227 Zn 0.22277 0.22375 0.25597 0.0
C228 C 0.3099 0.21462 0.32418 0.0
O229 O 0.2787 0.1948 0.30636 0.0
C230 C 0.17471 0.29242 0.18982 0.0
O231 O 0.16653 0.25403 0.30548 0.0
O232 O 0.20202 0.31522 0.30814 0.0
N233 N 0.20958 0.15502 0.2532 0.0
C234 C 0.21204 0.12 0.28551 0.0
C235 C 0.20605 0.08516 0.22276 0.0
N236 N 0.20588 0.13336 0.21422 0.0
N237 N 0.21102 0.07556 0.26721 0.0
C238 C 0.30219 0.37922 0.27226 0.0
C239 C 0.24415 0.43491 0.23712 0.0
N240 N 0.26832 0.35632 0.25831 0.0
N241 N 0.23193 0.39154 0.23745 0.0
N242 N 0.28822 0.42874 0.25863 0.0
H243 H 0.33013 0.33705 0.33245 0.0
H244 H 0.36096 0.38329 0.31871 0.0
H245 H 0.37377 0.32468 0.28658 0.0
C246 C 0.34448 0.35491 0.30416 0.0
C247 C 0.21187 0.13043 0.33499 0.0
H248 H 0.19993 0.17165 0.34191 0.0
H249 H 0.25018 0.11372 0.34905 0.0
H250 H 0.1863 0.11268 0.35263 0.0
O251 O 0.16885 0.25192 0.20575 0.0
O252 O 0.2072 0.31053 0.20706 0.0
C253 C 0.16863 0.29594 0.32167 0.0
O254 O 0.31611 0.25484 0.21276 0.0
O255 O 0.27758 0.19633 0.20615 0.0
Zn256 Zn 0.47629 0.51556 0.04244 0.0
O257 O 0.52243 0.45504 0.08228 0.0
C258 C 0.54987 0.57579 0.05691 0.0
Zn259 Zn 0.5388 0.49874 0.99329 0.0
C260 C 0.56674 0.43054 0.07028 0.0
O261 O 0.58394 0.44199 0.03374 0.0
C262 C 0.44832 0.58276 0.96476 0.0
O263 O 0.50593 0.44543 0.96519 0.0
O264 O 0.44149 0.465 0.01107 0.0
N265 N 0.59246 0.47974 0.94482 0.0
C266 C 0.6055 0.50862 0.91342 0.0
C267 C 0.64925 0.43163 0.90165 0.0
N268 N 0.61975 0.43189 0.9376 0.0
N269 N 0.64034 0.47937 0.88583 0.0
C270 C 0.4134 0.5048 0.12445 0.0
C271 C 0.38221 0.58171 0.14569 0.0
N272 N 0.42519 0.53458 0.09311 0.0
N273 N 0.40576 0.58239 0.10627 0.0
N274 N 0.3876 0.53331 0.15834 0.0
H275 H 0.43329 0.43523 0.0857 0.0
H276 H 0.39241 0.43606 0.13251 0.0
H277 H 0.45794 0.42897 0.14164 0.0
C278 C 0.42477 0.44812 0.12056 0.0
C279 C 0.58514 0.56553 0.91 0.0
H280 H 0.55391 0.57564 0.88512 0.0
H281 H 0.61467 0.58187 0.89793 0.0
H282 H 0.57099 0.58266 0.94272 0.0
O283 O 0.49195 0.55652 0.95249 0.0
O284 O 0.43146 0.57424 0.00257 0.0
C285 C 0.46485 0.43906 0.97828 0.0
O286 O 0.51066 0.56691 0.07171 0.0
O287 O 0.5717 0.55182 0.02264 0.0
Zn288 Zn 0.78771 0.29003 0.25926 0.0
O289 O 0.73236 0.31995 0.211 0.0
C290 C 0.70455 0.30382 0.32951 0.0
Zn291 Zn 0.75043 0.22919 0.26386 0.0
C292 C 0.69793 0.30164 0.19838 0.0
O293 O 0.69398 0.26106 0.21622 0.0
C294 C 0.84104 0.21735 0.32422 0.0
O295 O 0.80126 0.19652 0.21156 0.0
O296 O 0.83735 0.2572 0.20749 0.0
N297 N 0.73025 0.16432 0.27018 0.0
C298 C 0.72607 0.12998 0.23972 0.0
C299 C 0.71247 0.10229 0.30404 0.0
N300 N 0.72197 0.14699 0.31018 0.0
N301 N 0.71597 0.09038 0.26017 0.0
C302 C 0.78259 0.40336 0.26494 0.0
C303 C 0.85887 0.40088 0.25581 0.0
N304 N 0.80881 0.35474 0.25567 0.0
N305 N 0.85611 0.35345 0.24914 0.0
N306 N 0.81321 0.43307 0.26585 0.0
H307 H 0.70684 0.40171 0.25129 0.0
H308 H 0.71219 0.46382 0.26436 0.0
H309 H 0.71804 0.41708 0.30795 0.0
C310 C 0.72673 0.42251 0.27234 0.0
C311 C 0.72858 0.1365 0.18981 0.0
H312 H 0.72465 0.17635 0.18027 0.0
H313 H 0.69847 0.12455 0.1729 0.0
H314 H 0.76529 0.11158 0.17771 0.0
O315 O 0.80639 0.19904 0.31218 0.0
O316 O 0.84433 0.25824 0.30662 0.0
C317 C 0.83285 0.21546 0.19333 0.0
O318 O 0.73749 0.32183 0.31259 0.0
O319 O 0.69997 0.26245 0.31475 0.0
Zn320 Zn 0.03517 0.50038 0.53087 0.0
O321 O -0.00047 0.56129 0.57592 0.0
C322 C 0.9612 0.44479 0.55246 0.0
Zn323 Zn 0.9688 0.52179 0.48489 0.0
C324 C 0.95522 0.58886 0.56598 0.0
O325 O 0.93482 0.57989 0.53012 0.0
C326 C 0.04792 0.43299 0.4499 0.0
O327 O 0.00163 0.57187 0.45116 0.0
O328 O 0.06744 0.55034 0.49614 0.0
N329 N 0.90587 0.54829 0.44531 0.0
C330 C 0.89831 0.54553 0.40083 0.0
C331 C 0.82699 0.58057 0.43017 0.0
N332 N 0.8616 0.57133 0.46333 0.0
N333 N 0.84881 0.56483 0.39024 0.0
C334 C 0.10565 0.47699 0.61489 0.0
C335 C 0.17682 0.44068 0.58573 0.0
N336 N 0.09806 0.47386 0.57045 0.0
N337 N 0.14222 0.45009 0.55255 0.0
N338 N 0.15506 0.45702 0.62554 0.0
H339 H 0.06196 0.54302 0.65008 0.0
H340 H 0.07208 0.48445 0.68104 0.0
H341 H 0.02818 0.49843 0.63566 0.0
C342 C 0.06469 0.50211 0.64728 0.0
C343 C 0.93943 0.52161 0.36821 0.0
H344 H 0.97607 0.52413 0.38063 0.0
H345 H 0.93241 0.54118 0.33521 0.0
H346 H 0.94156 0.48109 0.36345 0.0
O347 O 0.00385 0.46116 0.44006 0.0
O348 O 0.06895 0.44187 0.48547 0.0
C349 C 0.04373 0.57674 0.46324 0.0
O350 O 0.00297 0.45044 0.56438 0.0
O351 O 0.93676 0.47123 0.51983 0.0
Zn352 Zn 0.72859 0.75668 0.24059 0.0
O353 O 0.74928 0.80565 0.19252 0.0
C354 C 0.82733 0.67593 0.22281 0.0
Zn355 Zn 0.79078 0.76043 0.28694 0.0
C356 C 0.78797 0.8196 0.20108 0.0
O357 O 0.81092 0.80646 0.23825 0.0
C358 C 0.73245 0.69745 0.32684 0.0
O359 O 0.73743 0.82441 0.31659 0.0
O360 O 0.67595 0.82017 0.27201 0.0
N361 N 0.84599 0.76931 0.32937 0.0
C362 C 0.85438 0.81196 0.34502 0.0
C363 C 0.91035 0.74885 0.37419 0.0
N364 N 0.88095 0.73013 0.34749 0.0
N365 N 0.89409 0.8001 0.37334 0.0
C366 C 0.6653 0.70534 0.18139 0.0
C367 C 0.6105 0.76872 0.1513 0.0
N368 N 0.67362 0.74784 0.19755 0.0
N369 N 0.63939 0.78717 0.17881 0.0
N370 N 0.62641 0.71746 0.15215 0.0
H371 H 0.71619 0.63189 0.16742 0.0
H372 H 0.66544 0.63105 0.20345 0.0
H373 H 0.71721 0.65035 0.22539 0.0
C374 C 0.69292 0.65185 0.19571 0.0
C375 C 0.8258 0.86534 0.33114 0.0
H376 H 0.80328 0.86663 0.30032 0.0
H377 H 0.85234 0.88778 0.32554 0.0
H378 H 0.80045 0.8837 0.35879 0.0
O379 O 0.76972 0.71356 0.33539 0.0
O380 O 0.70962 0.70861 0.2893 0.0
C381 C 0.69141 0.84102 0.30478 0.0
O382 O 0.78167 0.69391 0.21047 0.0
O383 O 0.84311 0.69573 0.2561 0.0
Zn384 Zn 0.72682 0.25492 0.78316 0.0
O385 O 0.78067 0.19113 0.81313 0.0
C386 C 0.78608 0.31821 0.82191 0.0
Zn387 Zn 0.78803 0.26023 0.73689 0.0
C388 C 0.82615 0.17447 0.80032 0.0
O389 O 0.8407 0.1958 0.76724 0.0
C390 C 0.68917 0.34082 0.71975 0.0
O391 O 0.76559 0.2136 0.68919 0.0
O392 O 0.70612 0.20806 0.73533 0.0
N393 N 0.84205 0.26911 0.69359 0.0
C394 C 0.84957 0.31182 0.67677 0.0
C395 C 0.90477 0.24888 0.64765 0.0
N396 N 0.87651 0.23001 0.67552 0.0
N397 N 0.88813 0.30014 0.64763 0.0
C398 C 0.66423 0.20571 0.84518 0.0
C399 C 0.60718 0.27031 0.8697 0.0
N400 N 0.67217 0.24734 0.82643 0.0
N401 N 0.63658 0.28744 0.84168 0.0
N402 N 0.62416 0.21917 0.87267 0.0
H403 H 0.71293 0.14871 0.8023 0.0
H404 H 0.66891 0.1271 0.83523 0.0
H405 H 0.72245 0.13776 0.86203 0.0
C406 C 0.69387 0.15179 0.83517 0.0
C407 C 0.82114 0.36514 0.6901 0.0
H408 H 0.79325 0.38241 0.66346 0.0
H409 H 0.84722 0.38852 0.69278 0.0
H410 H 0.8014 0.36638 0.72236 0.0
O411 O 0.73481 0.32441 0.70759 0.0
O412 O 0.67404 0.31891 0.75208 0.0
C413 C 0.72821 0.19759 0.69769 0.0
O414 O 0.74831 0.30283 0.83034 0.0
O415 O 0.80914 0.30608 0.78495 0.0
Zn416 Zn 0.78062 0.79691 0.76279 0.0
O417 O 0.83298 0.7624 0.81229 0.0
C418 C 0.83039 0.72356 0.69456 0.0
Zn419 Zn 0.74219 0.73739 0.75744 0.0
C420 C 0.82977 0.71931 0.82427 0.0
O421 O 0.79644 0.7024 0.80661 0.0
C422 C 0.69256 0.81511 0.69587 0.0
O423 O 0.68795 0.77033 0.80784 0.0
O424 O 0.72774 0.82777 0.81305 0.0
N425 N 0.72027 0.67348 0.75361 0.0
C426 C 0.71768 0.63915 0.78515 0.0
C427 C 0.70034 0.61177 0.72214 0.0
N428 N 0.70968 0.65635 0.71445 0.0
N429 N 0.70619 0.59974 0.76614 0.0
C430 C 0.80236 0.89613 0.7356 0.0
C431 C 0.81408 0.92657 0.79902 0.0
N432 N 0.8015 0.86122 0.76711 0.0
N433 N 0.80869 0.88016 0.80652 0.0
N434 N 0.809 0.93781 0.75486 0.0
H435 H 0.80533 0.84783 0.67769 0.0
H436 H 0.83033 0.9004 0.66896 0.0
H437 H 0.76381 0.91165 0.67218 0.0
C438 C 0.80047 0.88807 0.68586 0.0
C439 C 0.72281 0.64569 0.83478 0.0
H440 H 0.69289 0.63478 0.85301 0.0
H441 H 0.72053 0.68528 0.84334 0.0
H442 H 0.75958 0.62011 0.84656 0.0
O443 O 0.68951 0.77219 0.70856 0.0
O444 O 0.72622 0.83214 0.71281 0.0
C445 C 0.69287 0.81024 0.82594 0.0
O446 O 0.83555 0.76335 0.71274 0.0
O447 O 0.79491 0.70657 0.70691 0.0
Zn448 Zn 0.53327 0.53127 0.50522 0.0
O449 O 0.5758 0.50057 0.56326 0.0
C450 C 0.57103 0.43066 0.45762 0.0
Zn451 Zn 0.48251 0.48118 0.51221 0.0
C452 C 0.56321 0.46601 0.5845 0.0
O453 O 0.52677 0.45148 0.57001 0.0
C454 C 0.45248 0.54635 0.4329 0.0
O455 O 0.43617 0.53985 0.55164 0.0
O456 O 0.48456 0.58923 0.54518 0.0
N457 N 0.43877 0.43351 0.52603 0.0
C458 C 0.39447 0.44068 0.54744 0.0
C459 C 0.42601 0.36087 0.53844 0.0
N460 N 0.45789 0.38374 0.5201 0.0
N461 N 0.38586 0.39587 0.55592 0.0
C462 C 0.61763 0.57474 0.46493 0.0
C463 C 0.59091 0.65233 0.48451 0.0
N464 N 0.57697 0.57938 0.49121 0.0
N465 N 0.56085 0.62775 0.50354 0.0
N466 N 0.62686 0.61982 0.45998 0.0
H467 H 0.65943 0.49695 0.47395 0.0
H468 H 0.68662 0.52976 0.43377 0.0
H469 H 0.63092 0.51317 0.41861 0.0
C470 C 0.65064 0.52577 0.44655 0.0
C471 C 0.35857 0.49127 0.559 0.0
H472 H 0.35745 0.51895 0.53148 0.0
H473 H 0.37112 0.50457 0.59075 0.0
H474 H 0.32005 0.48844 0.56409 0.0
O475 O 0.43945 0.51239 0.45461 0.0
O476 O 0.48939 0.56039 0.44694 0.0
C477 C 0.4451 0.58131 0.56059 0.0
O478 O 0.58012 0.47194 0.46697 0.0
O479 O 0.53085 0.42331 0.47189 0.0
Zn480 Zn 0.03145 0.53241 0.01615 0.0
O481 O 0.99295 0.59828 0.97804 0.0
C482 C 0.95235 0.55253 0.08728 0.0
Zn483 Zn 0.97701 0.48799 0.00487 0.0
C484 C 0.95401 0.59194 0.95962 0.0
O485 O 0.94206 0.55189 0.96779 0.0
C486 C 0.05464 0.4259 0.05851 0.0
O487 O 0.01846 0.45571 0.94599 0.0
O488 O 0.07066 0.50016 0.95757 0.0
N489 N 0.91834 0.46065 0.98779 0.0
C490 C 0.9157 0.42219 0.96108 0.0
C491 C 0.84038 0.46567 0.97621 0.0
N492 N 0.87144 0.48734 0.9974 0.0
N493 N 0.8672 0.42487 0.95284 0.0
C494 C 0.09321 0.59865 0.0592 0.0
C495 C 0.16834 0.5548 0.04389 0.0
N496 N 0.09024 0.55995 0.03291 0.0
N497 N 0.13703 0.53304 0.0232 0.0
N498 N 0.14185 0.59591 0.06709 0.0
H499 H 0.01654 0.64611 0.05114 0.0
H500 H 0.05816 0.6766 0.0782 0.0
H501 H 0.03688 0.63027 0.10826 0.0
C502 C 0.04854 0.64051 0.07491 0.0
C503 C 0.9605 0.38068 0.94508 0.0
H504 H 0.97222 0.39152 0.91196 0.0
H505 H 0.95097 0.34461 0.94114 0.0
H506 H 0.99239 0.37468 0.96903 0.0
O507 O 0.01337 0.42329 0.04221 0.0
O508 O 0.06816 0.46559 0.05211 0.0
C509 C 0.05683 0.46846 0.93398 0.0
O510 O 0.99151 0.56373 0.07535 0.0
O511 O 0.93705 0.52192 0.06342 0.0
C512 C 0.23281 0.1618 0.89717 0.0
C513 C 0.20752 0.17951 0.85646 0.0
H514 H 0.23102 0.12422 0.96061 0.0
C515 C 0.16026 0.17224 0.84887 0.0
H516 H 0.26886 0.16743 0.90435 0.0
C517 C 0.13856 0.14862 0.8811 0.0
C518 C 0.16395 0.13017 0.92137 0.0
H519 H 0.13908 0.18606 0.81836 0.0
H520 H 0.1012 0.14574 0.87493 0.0
C521 C 0.21117 0.13731 0.92936 0.0
C522 C 0.14226 0.94743 0.13541 0.0
C523 C 0.09418 0.94314 0.12652 0.0
H524 H 0.21037 0.91977 0.17364 0.0
C525 C 0.07561 0.91136 0.15426 0.0
H526 H 0.15742 0.97209 0.11513 0.0
C527 C 0.10596 0.88166 0.18798 0.0
C528 C 0.15556 0.88279 0.19417 0.0
H529 H 0.0384 0.90775 0.14871 0.0
H530 H 0.09176 0.85533 0.20704 0.0
C531 C 0.1727 0.91737 0.16882 0.0
C532 C 0.31359 0.87172 0.43457 0.0
C533 C 0.35414 0.88993 0.42392 0.0
H534 H 0.26134 0.83395 0.41121 0.0
C535 C 0.37195 0.88544 0.37958 0.0
H536 H 0.29863 0.87565 0.46833 0.0
C537 C 0.35053 0.86213 0.34684 0.0
C538 C 0.31048 0.84304 0.35753 0.0
H539 H 0.40163 0.90111 0.3699 0.0
H540 H 0.36536 0.85924 0.31303 0.0
C541 C 0.29212 0.84823 0.40179 0.0
C542 C 0.4049 0.14398 0.68509 0.0
C543 C 0.354 0.146 0.68778 0.0
H544 H 0.4745 0.11526 0.65008 0.0
C545 C 0.33578 0.11571 0.65842 0.0
H546 H 0.42023 0.16669 0.70724 0.0
C547 C 0.36688 0.08654 0.62536 0.0
C548 C 0.41681 0.08733 0.62067 0.0
H549 H 0.29695 0.11585 0.66 0.0
H550 H 0.35111 0.06513 0.60226 0.0
C551 C 0.43587 0.11508 0.65183 0.0
C552 C 0.06966 0.87295 0.63627 0.0
C553 C 0.09177 0.89283 0.60108 0.0
H554 H 0.08276 0.82518 0.69529 0.0
C555 C 0.14435 0.87711 0.59669 0.0
H556 H 0.02917 0.88428 0.64011 0.0
C557 C 0.17447 0.84442 0.62822 0.0
C558 C 0.15263 0.82591 0.66414 0.0
H559 H 0.16253 0.89167 0.56989 0.0
H560 H 0.21503 0.83443 0.62508 0.0
C561 C 0.10008 0.83905 0.66748 0.0
C562 C 0.28671 0.97036 0.83602 0.0
C563 C 0.31048 0.96026 0.794 0.0
H564 H 0.28342 0.00814 0.89906 0.0
C565 C 0.34094 0.98968 0.77967 0.0
H566 H 0.26437 0.94748 0.84884 0.0
C567 C 0.35225 0.02412 0.809 0.0
C568 C 0.3334 0.029 0.85288 0.0
H569 H 0.35973 0.9824 0.74752 0.0
H570 H 0.3801 0.04237 0.79932 0.0
C571 C 0.29783 0.00487 0.86509 0.0
C572 C 0.36044 0.13528 0.09258 0.0
C573 C 0.41281 0.12331 0.09796 0.0
H574 H 0.28786 0.17364 0.1192 0.0
C575 C 0.4321 0.14582 0.13321 0.0
H576 H 0.34437 0.11862 0.06578 0.0
C577 C 0.39939 0.17856 0.16335 0.0
C578 C 0.34718 0.18808 0.15909 0.0
H579 H 0.47231 0.13765 0.13782 0.0
H580 H 0.4149 0.19429 0.19113 0.0
C581 C 0.32805 0.1668 0.12312 0.0
C582 C 0.16452 0.97183 0.31088 0.0
C583 C 0.18812 0.96484 0.35338 0.0
H584 H 0.1523 0.01551 0.24959 0.0
C585 C 0.23143 0.98053 0.35888 0.0
H586 H 0.13522 0.9552 0.30285 0.0
C587 C 0.24323 0.01226 0.32707 0.0
C588 C 0.21138 0.02944 0.29001 0.0
H589 H 0.25292 0.97334 0.38988 0.0
H590 H 0.2742 0.02728 0.33366 0.0
C591 C 0.17523 0.0052 0.27966 0.0
C592 C 0.84208 0.16013 0.12688 0.0
C593 C 0.86265 0.18916 0.15522 0.0
H594 H 0.85454 0.10717 0.07312 0.0
C595 C 0.91187 0.19081 0.14767 0.0
H596 H 0.80358 0.15991 0.13079 0.0
C597 C 0.94133 0.16052 0.11425 0.0
C598 C 0.92158 0.12866 0.08813 0.0
H599 H 0.92826 0.21349 0.1689 0.0
H600 H 0.98012 0.16004 0.11048 0.0
C601 C 0.87117 0.13026 0.09365 0.0
C602 C 0.03389 0.65018 0.41003 0.0
C603 C 0.06438 0.61344 0.4396 0.0
H604 H 0.02955 0.71253 0.36474 0.0
C605 C 0.11459 0.61242 0.44654 0.0
H606 H 0.99499 0.65211 0.4041 0.0
C607 C 0.13411 0.64678 0.42381 0.0
C608 C 0.10369 0.6831 0.39416 0.0
H609 H 0.139 0.58474 0.46916 0.0
H610 H 0.17297 0.64518 0.42937 0.0
C611 C 0.05333 0.68498 0.38779 0.0
C612 C 0.59145 0.85592 0.60566 0.0
C613 C 0.59117 0.90634 0.59797 0.0
H614 H 0.62459 0.78671 0.64284 0.0
C615 C 0.62339 0.9263 0.62331 0.0
H616 H 0.56684 0.83975 0.58668 0.0
C617 C 0.65563 0.89659 0.65521 0.0
C618 C 0.65706 0.84589 0.66241 0.0
H619 H 0.62359 0.96533 0.61887 0.0
H620 H 0.67914 0.91374 0.67451 0.0
C621 C 0.62441 0.82574 0.63769 0.0
C622 C 0.3921 0.41253 0.94865 0.0
C623 C 0.44423 0.40304 0.9539 0.0
H624 H 0.33317 0.39326 0.91427 0.0
C625 C 0.47702 0.36093 0.93224 0.0
H626 H 0.366 0.44527 0.96439 0.0
C627 C 0.45819 0.32984 0.90486 0.0
C628 C 0.40609 0.34033 0.8977 0.0
H629 H 0.51743 0.35259 0.9357 0.0
H630 H 0.48462 0.29854 0.88779 0.0
C631 C 0.37322 0.38204 0.92026 0.0
C632 C 0.96421 0.83316 0.39276 0.0
C633 C 0.91406 0.8341 0.39834 0.0
H634 H 0.02161 0.86692 0.40997 0.0
C635 C 0.88308 0.86955 0.42768 0.0
H636 H 0.98846 0.80622 0.37007 0.0
C637 C 0.9018 0.90408 0.45079 0.0
C638 C 0.95176 0.90411 0.44453 0.0
H639 H 0.8444 0.87033 0.43274 0.0
H640 H 0.87696 0.93111 0.47311 0.0
C641 C 0.98285 0.86812 0.41537 0.0
C642 C 0.42865 0.65107 0.6176 0.0
C643 C 0.4111 0.61784 0.59116 0.0
H644 H 0.41268 0.70457 0.67174 0.0
C645 C 0.36147 0.61664 0.59683 0.0
H646 H 0.46668 0.65299 0.61381 0.0
C647 C 0.3312 0.64496 0.63039 0.0
C648 C 0.34943 0.67626 0.65832 0.0
H649 H 0.34601 0.5934 0.57564 0.0
H650 H 0.29351 0.64215 0.63458 0.0
C651 C 0.39789 0.68031 0.65084 0.0
C652 C 0.61401 0.12066 0.95636 0.0
C653 C 0.56433 0.12006 0.94901 0.0
H654 H 0.67209 0.15309 0.93711 0.0
C655 C 0.53424 0.15406 0.91722 0.0
H656 H 0.63813 0.09492 0.98053 0.0
C657 C 0.55366 0.18733 0.89284 0.0
C658 C 0.60355 0.18686 0.89941 0.0
H659 H 0.49578 0.15463 0.91079 0.0
H660 H 0.53032 0.21235 0.86781 0.0
C661 C 0.63353 0.1536 0.9315 0.0
C662 C 0.13698 0.38287 0.09309 0.0
C663 C 0.08665 0.38479 0.08648 0.0
H664 H 0.20429 0.3513 0.13071 0.0
C665 C 0.06697 0.35069 0.10997 0.0
H666 H 0.15343 0.40796 0.0747 0.0
C667 C 0.09646 0.31783 0.14241 0.0
C668 C 0.14551 0.31923 0.15133 0.0
H669 H 0.02821 0.35143 0.10513 0.0
H670 H 0.0801 0.29368 0.16211 0.0
C671 C 0.16608 0.35045 0.12519 0.0
C672 C 0.6311 0.52086 0.81233 0.0
C673 C 0.66231 0.49616 0.84788 0.0
H674 H 0.62151 0.57375 0.75745 0.0
C675 C 0.71187 0.49801 0.8506 0.0
H676 H 0.59268 0.51965 0.81011 0.0
C677 C 0.72817 0.52907 0.82087 0.0
C678 C 0.69492 0.55831 0.7884 0.0
H679 H 0.73618 0.4792 0.87805 0.0
H680 H 0.76541 0.53302 0.8251 0.0
C681 C 0.64746 0.55163 0.78248 0.0
C682 C 0.61229 0.33517 0.1646 0.0
C683 C 0.66418 0.3279 0.16244 0.0
H684 H 0.53996 0.37434 0.13657 0.0
C685 C 0.68392 0.3504 0.12761 0.0
H686 H 0.59657 0.31801 0.19139 0.0
C687 C 0.65204 0.38182 0.09635 0.0
C688 C 0.59979 0.39209 0.10001 0.0
H689 H 0.72405 0.34478 0.12528 0.0
H690 H 0.66828 0.39997 0.07063 0.0
C691 C 0.58008 0.36765 0.13366 0.0
C692 C 0.79448 0.51527 0.36594 0.0
C693 C 0.82412 0.54653 0.35461 0.0
H694 H 0.7692 0.45321 0.34682 0.0
C695 C 0.83788 0.54946 0.30952 0.0
H696 H 0.78298 0.51253 0.40035 0.0
C697 C 0.8299 0.51489 0.27823 0.0
C698 C 0.8065 0.47856 0.29154 0.0
H699 H 0.85846 0.57531 0.29948 0.0
H700 H 0.84537 0.51381 0.24479 0.0
C701 C 0.78616 0.4813 0.33488 0.0
C702 C 0.65614 0.6214 0.38211 0.0
C703 C 0.65861 0.63393 0.42757 0.0
H704 H 0.67803 0.63136 0.31455 0.0
C705 C 0.68921 0.66376 0.44014 0.0
H706 H 0.63217 0.59906 0.37159 0.0
C707 C 0.71612 0.68168 0.4076 0.0
C708 C 0.71172 0.67113 0.36183 0.0
H709 H 0.6914 0.67397 0.47498 0.0
H710 H 0.73825 0.70594 0.41802 0.0
C711 C 0.68219 0.64003 0.34954 0.0
C712 C 0.84676 0.3644 0.84499 0.0
C713 C 0.80521 0.34754 0.85541 0.0
H714 H 0.89836 0.4029 0.86757 0.0
C715 C 0.78391 0.35724 0.89847 0.0
H716 H 0.86374 0.35824 0.812 0.0
C717 C 0.80443 0.38242 0.93057 0.0
C718 C 0.84691 0.39772 0.92039 0.0
H719 H 0.75179 0.34493 0.90755 0.0
H720 H 0.78754 0.3895 0.96353 0.0
C721 C 0.86721 0.38932 0.87703 0.0
C722 C 0.85613 0.85514 0.17599 0.0
C723 C 0.80953 0.84692 0.16722 0.0
H724 H 0.91667 0.87967 0.15037 0.0
C725 C 0.78661 0.86151 0.125 0.0
H726 H 0.87549 0.84363 0.20774 0.0
C727 C 0.80997 0.88368 0.0924 0.0
C728 C 0.85661 0.89159 0.10141 0.0
H729 H 0.75115 0.85503 0.11689 0.0
H730 H 0.79192 0.89426 0.05999 0.0
C731 C 0.87966 0.87636 0.14329 0.0
C732 C 0.84647 0.10077 0.8539 0.0
C733 C 0.86266 0.1355 0.82787 0.0
H734 H 0.86354 0.04592 0.90747 0.0
C735 C 0.91217 0.13734 0.83328 0.0
H736 H 0.80883 0.09794 0.84986 0.0
C737 C 0.9435 0.10789 0.86661 0.0
C738 C 0.92609 0.07555 0.89469 0.0
H739 H 0.92563 0.16386 0.81373 0.0
H740 H 0.98065 0.11193 0.87146 0.0
C741 C 0.87793 0.07087 0.88681 0.0
C742 C 0.72519 0.16716 0.61842 0.0
C743 C 0.70731 0.17122 0.66284 0.0
H744 H 0.71622 0.1439 0.55089 0.0
C745 C 0.66662 0.15294 0.67308 0.0
H746 H 0.75654 0.18072 0.60937 0.0
C747 C 0.64353 0.13235 0.63959 0.0
C748 C 0.66017 0.12996 0.59493 0.0
H749 H 0.65225 0.15482 0.707 0.0
H750 H 0.6132 0.11747 0.64889 0.0
C751 C 0.70197 0.14648 0.58487 0.0
C752 C 0.57245 0.91364 0.36576 0.0
C753 C 0.59116 0.94122 0.39735 0.0
H754 H 0.58918 0.86114 0.31093 0.0
C755 C 0.64173 0.9403 0.39445 0.0
H756 H 0.53339 0.91461 0.36635 0.0
C757 C 0.67366 0.90972 0.36272 0.0
C758 C 0.65569 0.87991 0.33272 0.0
H759 H 0.65729 0.96137 0.41805 0.0
H760 H 0.71285 0.90824 0.36269 0.0
C761 C 0.6043 0.88351 0.3336 0.0
C762 C 0.92715 0.17273 0.35269 0.0
C763 C 0.87517 0.19138 0.35989 0.0
H764 H 0.99757 0.12288 0.37686 0.0
C765 C 0.85443 0.17897 0.39943 0.0
H766 H 0.94344 0.18178 0.32193 0.0
C767 C 0.8849 0.14629 0.43077 0.0
C768 C 0.93653 0.1245 0.42253 0.0
H769 H 0.81424 0.19316 0.40529 0.0
H770 H 0.86739 0.13622 0.4604 0.0
C771 C 0.9578 0.13895 0.38382 0.0
C772 C 0.73469 0.02021 0.20622 0.0
C773 C 0.70309 0.04945 0.23914 0.0
H774 H 0.73908 0.97306 0.14836 0.0
C775 C 0.655 0.04456 0.2455 0.0
H776 H 0.77227 0.02303 0.20148 0.0
C777 C 0.63635 0.01598 0.21549 0.0
C778 C 0.66587 0.9918 0.1793 0.0
H779 H 0.63029 0.06679 0.27083 0.0
H780 H 0.59749 0.01634 0.21805 0.0
C781 C 0.71607 0.99143 0.17629 0.0
C782 C 0.60675 0.84648 0.85865 0.0
C783 C 0.65904 0.83724 0.86161 0.0
H784 H 0.53448 0.88717 0.88567 0.0
C785 C 0.67908 0.85872 0.89688 0.0
H786 H 0.59054 0.83059 0.83144 0.0
C787 C 0.64747 0.89001 0.9281 0.0
C788 C 0.595 0.9016 0.92404 0.0
H789 H 0.71934 0.85209 0.89981 0.0
H790 H 0.66417 0.90677 0.95439 0.0
C791 C 0.57483 0.87905 0.88938 0.0
C792 C 0.79555 0.03671 0.66701 0.0
C793 C 0.8432 0.04345 0.67 0.0
H794 H 0.74596 0.99806 0.69419 0.0
C795 C 0.87356 0.02545 0.70789 0.0
H796 H 0.77197 0.05031 0.63776 0.0
C797 C 0.8595 0.99467 0.73935 0.0
C798 C 0.81509 0.98182 0.73277 0.0
H799 H 0.91063 0.03034 0.71021 0.0
H800 H 0.8857 0.97649 0.76578 0.0
C801 C 0.78126 0.00631 0.69868 0.0
C802 C 0.18004 0.85736 0.89293 0.0
C803 C 0.16087 0.82394 0.86843 0.0
H804 H 0.16629 0.9153 0.94245 0.0
C805 C 0.11264 0.82078 0.87838 0.0
H806 H 0.2176 0.85967 0.88684 0.0
C807 C 0.08285 0.85315 0.91043 0.0
C808 C 0.10118 0.88874 0.93285 0.0
H809 H 0.0972 0.79499 0.86011 0.0
H810 H 0.04489 0.85187 0.91616 0.0
C811 C 0.15061 0.88925 0.92484 0.0
C812 C 0.89214 0.4071 0.57092 0.0
C813 C 0.94243 0.40658 0.5758 0.0
H814 H 0.83557 0.37277 0.59012 0.0
C815 C 0.97513 0.36874 0.6031 0.0
H816 H 0.86617 0.43548 0.54992 0.0
C817 C 0.95766 0.33267 0.62552 0.0
C818 C 0.90709 0.33442 0.62174 0.0
H819 H 0.01428 0.36693 0.60715 0.0
H820 H 0.98317 0.30426 0.6468 0.0
C821 C 0.87459 0.37146 0.59392 0.0
C822 C 0.41072 0.1761 0.41508 0.0
C823 C 0.41598 0.1239 0.41906 0.0
H824 H 0.37192 0.24671 0.3818 0.0
C825 C 0.38781 0.10222 0.3907 0.0
H826 H 0.43222 0.19358 0.4365 0.0
C827 C 0.35414 0.13195 0.35984 0.0
C828 C 0.34713 0.18441 0.35669 0.0
H829 H 0.39174 0.06186 0.39217 0.0
H830 H 0.33384 0.11345 0.33819 0.0
C831 C 0.37625 0.20634 0.38401 0.0
C832 C 0.61883 0.6148 0.0729 0.0
C833 C 0.5693 0.61371 0.07984 0.0
H834 H 0.67586 0.64914 0.09105 0.0
C835 C 0.53839 0.6488 0.10981 0.0
H836 H 0.64351 0.58839 0.05003 0.0
C837 C 0.5568 0.68373 0.13268 0.0
C838 C 0.60661 0.68368 0.12664 0.0
H839 H 0.49994 0.64919 0.11573 0.0
H840 H 0.53268 0.70988 0.15604 0.0
C841 C 0.63741 0.64926 0.09639 0.0
C842 C 0.07563 0.15542 0.64882 0.0
C843 C 0.09998 0.18699 0.62737 0.0
H844 H 0.04294 0.09491 0.64258 0.0
C845 C 0.11016 0.18054 0.58114 0.0
H846 H 0.06729 0.15932 0.68436 0.0
C847 C 0.09756 0.14225 0.55734 0.0
C848 C 0.07309 0.11105 0.57912 0.0
H849 H 0.12637 0.20575 0.56299 0.0
H850 H 0.10526 0.13828 0.52168 0.0
C851 C 0.06204 0.11825 0.62498 0.0
C852 C 0.6881 0.36488 0.39259 0.0
C853 C 0.67165 0.33169 0.36542 0.0
H854 H 0.67028 0.41936 0.44487 0.0
C855 C 0.62317 0.32724 0.37182 0.0
H856 H 0.7257 0.36818 0.38912 0.0
C857 C 0.5906 0.35801 0.40317 0.0
C858 C 0.60642 0.39315 0.42873 0.0
H859 H 0.60973 0.3016 0.35136 0.0
H860 H 0.55263 0.35569 0.40614 0.0
C861 C 0.65608 0.39469 0.42426 0.0
C862 C 0.39642 0.90237 0.06736 0.0
C863 C 0.44659 0.90214 0.07287 0.0
H864 H 0.3393 0.86889 0.08708 0.0
C865 C 0.47865 0.86526 0.10138 0.0
H866 H 0.37088 0.93014 0.04557 0.0
C867 C 0.46063 0.83005 0.12455 0.0
C868 C 0.41013 0.83163 0.12025 0.0
H869 H 0.51761 0.86384 0.1061 0.0
H870 H 0.48559 0.80263 0.14696 0.0
C871 C 0.37829 0.86761 0.09115 0.0
C872 C 0.92393 0.67726 0.92002 0.0
C873 C 0.92467 0.6263 0.92473 0.0
H874 H 0.89229 0.74778 0.88401 0.0
C875 C 0.89645 0.60634 0.89484 0.0
H876 H 0.94577 0.69328 0.94242 0.0
C877 C 0.86689 0.63664 0.86191 0.0
C878 C 0.86422 0.688 0.85797 0.0
H879 H 0.89713 0.56681 0.89663 0.0
H880 H 0.84603 0.61953 0.83949 0.0
C881 C 0.89355 0.70817 0.88672 0.0
C882 C 0.39501 0.47123 0.21959 0.0
C883 C 0.36756 0.51633 0.19771 0.0
H884 H 0.39121 0.40517 0.25398 0.0
C885 C 0.31758 0.53977 0.21018 0.0
H886 H 0.43472 0.45448 0.21314 0.0
C887 C 0.2931 0.51353 0.23765 0.0
C888 C 0.31783 0.46286 0.25118 0.0
H889 H 0.29612 0.57565 0.19501 0.0
H890 H 0.2531 0.53015 0.24319 0.0
C891 C 0.3701 0.44362 0.24474 0.0
C892 C 0.43549 0.6444 0.90101 0.0
C893 C 0.41542 0.6184 0.93303 0.0
H894 H 0.4208 0.69247 0.84237 0.0
C895 C 0.36404 0.62272 0.9319 0.0
H896 H 0.47503 0.6418 0.90167 0.0
C897 C 0.33359 0.65043 0.8977 0.0
C898 C 0.35387 0.67521 0.86487 0.0
H899 H 0.34787 0.60271 0.95616 0.0
H900 H 0.29427 0.65202 0.89666 0.0
C901 C 0.40464 0.67331 0.86734 0.0
C902 C 0.16688 0.4707 0.70642 0.0
C903 C 0.18017 0.4745 0.66133 0.0
H904 H 0.16149 0.50422 0.772 0.0
C905 C 0.21039 0.50529 0.65033 0.0
H906 H 0.1457 0.44524 0.71607 0.0
C907 C 0.22029 0.53771 0.68208 0.0
C908 C 0.20087 0.5394 0.7257 0.0
H909 H 0.22147 0.50867 0.61589 0.0
H910 H 0.23807 0.56543 0.67078 0.0
C911 C 0.17636 0.5038 0.73838 0.0
C912 C 0.2953 0.33674 0.60946 0.0
C913 C 0.29577 0.35283 0.65419 0.0
H914 H 0.32493 0.33747 0.54286 0.0
C915 C 0.32208 0.38745 0.66475 0.0
H916 H 0.27574 0.30962 0.6005 0.0
C917 C 0.34933 0.40383 0.63171 0.0
C918 C 0.35138 0.38535 0.58765 0.0
H919 H 0.32316 0.40036 0.69894 0.0
H920 H 0.37119 0.42866 0.64117 0.0
C921 C 0.32353 0.35232 0.57659 0.0
C922 C 0.22842 0.66042 0.12078 0.0
C923 C 0.20706 0.67158 0.16369 0.0
H924 H 0.22371 0.62779 0.05609 0.0
C925 C 0.16397 0.65728 0.17406 0.0
H926 H 0.26178 0.67062 0.11177 0.0
C927 C 0.14226 0.63324 0.14222 0.0
C928 C 0.16277 0.62317 0.09904 0.0
H929 H 0.14682 0.66461 0.20693 0.0
H930 H 0.11011 0.62139 0.15187 0.0
C931 C 0.2066 0.63618 0.08887 0.0
C932 C 0.60434 0.3778 0.68484 0.0
C933 C 0.65336 0.38015 0.69209 0.0
H934 H 0.5374 0.40298 0.64473 0.0
C935 C 0.67008 0.4156 0.66749 0.0
H936 H 0.59053 0.35072 0.70326 0.0
C937 C 0.63973 0.44565 0.63402 0.0
C938 C 0.59222 0.44038 0.62426 0.0
H939 H 0.70733 0.41884 0.67305 0.0
H940 H 0.65451 0.47111 0.61438 0.0
C941 C 0.57415 0.40741 0.65102 0.0
C942 C 0.91327 0.63366 0.19152 0.0
C943 C 0.86215 0.63678 0.19458 0.0
H944 H 0.98214 0.60415 0.15532 0.0
C945 C 0.84288 0.60701 0.1656 0.0
H946 H 0.92928 0.65604 0.21341 0.0
C947 C 0.87295 0.57759 0.13223 0.0
C948 C 0.92299 0.57756 0.12679 0.0
H949 H 0.8039 0.60799 0.16754 0.0
H950 H 0.85617 0.55685 0.10934 0.0
C951 C 0.94335 0.60445 0.15782 0.0
C952 C 0.94704 0.64526 0.63401 0.0
C953 C 0.92525 0.62846 0.59678 0.0
H954 H 0.93373 0.69048 0.6941 0.0
C955 C 0.87292 0.64794 0.59004 0.0
H956 H 0.98725 0.63108 0.63998 0.0
C957 C 0.84273 0.68092 0.62099 0.0
C958 C 0.8641 0.69634 0.65889 0.0
H959 H 0.85474 0.63601 0.56178 0.0
H960 H 0.80228 0.69331 0.61598 0.0
C961 C 0.91661 0.67948 0.66469 0.0
C962 C 0.3752 0.56781 0.38424 0.0
C963 C 0.42331 0.57198 0.39319 0.0
H964 H 0.307 0.59595 0.34617 0.0
C965 C 0.44184 0.60403 0.36576 0.0
H966 H 0.36004 0.54305 0.40441 0.0
C967 C 0.41155 0.63395 0.33215 0.0
C968 C 0.36196 0.63287 0.32582 0.0
H969 H 0.47907 0.60757 0.37139 0.0
H970 H 0.42579 0.66038 0.31326 0.0
C971 C 0.34474 0.5982 0.351 0.0
C972 C 0.09957 0.38929 0.8293 0.0
C973 C 0.1499 0.38925 0.82613 0.0
H974 H 0.03054 0.4144 0.86592 0.0
C975 C 0.16736 0.42002 0.85544 0.0
H976 H 0.08503 0.3659 0.80719 0.0
C977 C 0.13626 0.44757 0.88916 0.0
C978 C 0.0871 0.44459 0.89458 0.0
H979 H 0.20575 0.4213 0.85341 0.0
H980 H 0.15162 0.46933 0.91225 0.0
C981 C 0.06855 0.41651 0.86336 0.0
C982 C 0.15696 0.33426 0.39681 0.0
C983 C 0.13511 0.32225 0.35764 0.0
H984 H 0.14647 0.37778 0.45686 0.0
C985 C 0.08314 0.34329 0.35045 0.0
H986 H 0.19714 0.31876 0.40268 0.0
C987 C 0.05389 0.37832 0.38114 0.0
C988 C 0.07636 0.39213 0.41949 0.0
H989 H 0.06583 0.33508 0.31995 0.0
H990 H 0.01423 0.39576 0.3741 0.0
C991 C 0.12788 0.36834 0.42764 0.0
loop_
_geom_bond_atom_site_label_1
_geom_bond_atom_site_label_2
_geom_bond_distance
_geom_bond_site_symmetry_2
_ccdc_geom_bond_type
Zn0 O1 2.055 1_545 S
Zn0 O8 2.046 . S
Zn0 N16 2.036 1_554 S
Zn0 O28 2.053 1_454 S
Zn0 O30 2.066 1_544 S
O1 Zn0 2.055 1_565 S
O1 C4 1.259 . S
C2 O30 1.256 . S
C2 O31 1.244 . S
Zn3 O5 2.046 1_655 S
Zn3 O7 2.055 1_565 S
Zn3 N9 2.036 . S
Zn3 O27 2.066 1_564 S
Zn3 O31 2.053 1_654 S
C4 O1 1.259 . S
C4 O5 1.254 . S
O5 Zn3 2.046 1_455 S
O5 C4 1.254 . S
C6 O27 1.256 . S
C6 O28 1.244 . S
O7 Zn3 2.055 1_545 S
O7 C29 1.259 . S
O8 Zn0 2.046 . S
O8 C29 1.254 1_455 S
N9 Zn3 2.036 . S
N9 C10 1.298 . S
N9 N12 1.398 . S
C10 N9 1.298 . S
C10 N13 1.367 . S
C10 C23 1.481 . S
C11 N12 1.299 . S
C11 N13 1.379 . S
N12 N9 1.398 . S
N12 C11 1.299 . S
N13 C10 1.367 . S
N13 C11 1.379 . S
C14 N16 1.298 . S
C14 N18 1.367 . S
C14 C22 1.481 . S
C15 N17 1.299 . S
C15 N18 1.379 . S
N16 Zn0 2.036 1_556 S
N16 C14 1.298 . S
N16 N17 1.398 . S
N17 C15 1.299 . S
N17 N16 1.398 . S
N18 C14 1.367 . S
N18 C15 1.379 . S
H19 C22 0.980 1_554 S
H20 C22 0.975 1_554 S
H21 C22 0.981 . S
C22 C14 1.481 . S
C22 H19 0.980 1_556 S
C22 H20 0.975 1_556 S
C22 H21 0.981 . S
C23 C10 1.481 . S
C23 H24 0.980 1_565 S
C23 H25 0.981 . S
C23 H26 0.977 1_565 S
H24 C23 0.980 1_545 S
H25 C23 0.981 . S
H26 C23 0.977 1_545 S
O27 Zn3 2.066 1_546 S
O27 C6 1.256 . S
O28 Zn0 2.053 1_656 S
O28 C6 1.244 . S
C29 O7 1.259 . S
C29 O8 1.254 1_655 S
O30 Zn0 2.066 1_566 S
O30 C2 1.256 . S
O31 C2 1.244 . S
O31 Zn3 2.053 1_456 S
Zn32 O33 2.055 . S
Zn32 O40 2.046 . S
Zn32 N48 2.036 . S
Zn32 O60 2.053 . S
Zn32 O62 2.066 . S
O33 Zn32 2.055 . S
O33 C36 1.259 . S
C34 O62 1.256 . S
C34 O63 1.244 . S
Zn35 O37 2.046 . S
Zn35 O39 2.055 . S
Zn35 N41 2.036 . S
Zn35 O59 2.066 . S
Zn35 O63 2.053 . S
C36 O33 1.259 . S
C36 O37 1.254 . S
O37 Zn35 2.046 . S
O37 C36 1.254 . S
C38 O59 1.256 . S
C38 O60 1.244 . S
O39 Zn35 2.055 . S
O39 C61 1.259 . S
O40 Zn32 2.046 . S
O40 C61 1.254 . S
N41 Zn35 2.036 . S
N41 C42 1.298 . S
N41 N44 1.398 . S
C42 N41 1.298 . S
C42 N45 1.367 . S
C42 C55 1.481 . S
C43 N44 1.299 . S
C43 N45 1.379 . S
N44 N41 1.398 . S
N44 C43 1.299 . S
N45 C42 1.367 . S
N45 C43 1.379 . S
C46 N48 1.298 . S
C46 N50 1.367 . S
C46 C54 1.481 . S
C47 N49 1.299 . S
C47 N50 1.379 . S
N48 Zn32 2.036 . S
N48 C46 1.298 . S
N48 N49 1.398 . S
N49 C47 1.299 . S
N49 N48 1.398 . S
N50 C46 1.367 . S
N50 C47 1.379 . S
H51 C54 0.980 . S
H52 C54 0.981 . S
H53 C54 0.981 . S
C54 C46 1.481 . S
C54 H51 0.980 . S
C54 H52 0.981 . S
C54 H53 0.981 . S
C55 C42 1.481 . S
C55 H56 0.980 . S
C55 H57 0.981 . S
C55 H58 0.981 . S
H56 C55 0.980 . S
H57 C55 0.981 . S
H58 C55 0.981 . S
O59 Zn35 2.066 . S
O59 C38 1.256 . S
O60 Zn32 2.053 . S
O60 C38 1.244 . S
C61 O39 1.259 . S
C61 O40 1.254 . S
O62 Zn32 2.066 . S
O62 C34 1.256 . S
O63 C34 1.244 . S
O63 Zn35 2.053 . S
Zn64 O65 2.055 . S
Zn64 O72 2.044 1_545 S
Zn64 N80 2.036 . S
Zn64 O92 2.053 1_545 S
Zn64 O94 2.066 . S
O65 Zn64 2.055 . S
O65 C68 1.259 . S
C66 O94 1.256 . S
C66 O95 1.244 . S
Zn67 O69 2.046 1_565 S
Zn67 O71 2.055 . S
Zn67 N73 2.036 . S
Zn67 O91 2.066 . S
Zn67 O95 2.053 1_565 S
C68 O65 1.259 . S
C68 O69 1.254 . S
O69 Zn67 2.046 1_545 S
O69 C68 1.254 . S
C70 O91 1.256 . S
C70 O92 1.244 . S
O71 Zn67 2.055 . S
O71 C93 1.259 . S
O72 Zn64 2.044 1_565 S
O72 C93 1.258 . S
N73 Zn67 2.036 . S
N73 C74 1.298 . S
N73 N76 1.398 . S
C74 N73 1.298 . S
C74 N77 1.367 . S
C74 C87 1.481 . S
C75 N76 1.299 . S
C75 N77 1.379 . S
N76 N73 1.398 . S
N76 C75 1.299 . S
N77 C74 1.367 . S
N77 C75 1.379 . S
C78 N80 1.298 . S
C78 N82 1.367 . S
C78 C86 1.481 . S
C79 N81 1.299 . S
C79 N82 1.379 . S
N80 Zn64 2.036 . S
N80 C78 1.298 . S
N80 N81 1.398 . S
N81 C79 1.299 . S
N81 N80 1.398 . S
N82 C78 1.367 . S
N82 C79 1.379 . S
H83 C86 0.980 . S
H84 C86 0.981 . S
H85 C86 0.981 . S
C86 C78 1.481 . S
C86 H83 0.980 . S
C86 H84 0.981 . S
C86 H85 0.981 . S
C87 C74 1.481 . S
C87 H88 0.980 . S
C87 H89 0.981 . S
C87 H90 0.981 . S
H88 C87 0.980 . S
H89 C87 0.981 . S
H90 C87 0.981 . S
O91 Zn67 2.066 . S
O91 C70 1.256 . S
O92 Zn64 2.053 1_565 S
O92 C70 1.244 . S
C93 O71 1.259 . S
C93 O72 1.258 . S
O94 Zn64 2.066 . S
O94 C66 1.256 . S
O95 C66 1.244 . S
O95 Zn67 2.053 1_545 S
Zn96 O97 2.055 . S
Zn96 O104 2.046 . S
Zn96 N112 2.036 . S
Zn96 O124 2.053 . S
Zn96 O126 2.066 . S
O97 Zn96 2.055 . S
O97 C100 1.259 . S
C98 O126 1.256 . S
C98 O127 1.244 . S
Zn99 O101 2.046 . S
Zn99 O103 2.055 . S
Zn99 N105 2.036 . S
Zn99 O123 2.066 . S
Zn99 O127 2.053 . S
C100 O97 1.259 . S
C100 O101 1.254 . S
O101 Zn99 2.046 . S
O101 C100 1.254 . S
C102 O123 1.256 . S
C102 O124 1.244 . S
O103 Zn99 2.055 . S
O103 C125 1.259 . S
O104 Zn96 2.046 . S
O104 C125 1.254 . S
N105 Zn99 2.036 . S
N105 C106 1.298 . S
N105 N108 1.398 . S
C106 N105 1.298 . S
C106 N109 1.367 . S
C106 C119 1.481 . S
C107 N108 1.299 . S
C107 N109 1.379 . S
N108 N105 1.398 . S
N108 C107 1.299 . S
N109 C106 1.367 . S
N109 C107 1.379 . S
C110 N112 1.298 . S
C110 N114 1.367 . S
C110 C118 1.481 . S
C111 N113 1.299 . S
C111 N114 1.379 . S
N112 Zn96 2.036 . S
N112 C110 1.298 . S
N112 N113 1.398 . S
N113 C111 1.299 . S
N113 N112 1.398 . S
N114 C110 1.367 . S
N114 C111 1.379 . S
H115 C118 0.980 . S
H116 C118 0.981 . S
H117 C118 0.981 . S
C118 C110 1.481 . S
C118 H115 0.980 . S
C118 H116 0.981 . S
C118 H117 0.981 . S
C119 C106 1.481 . S
C119 H120 0.980 . S
C119 H121 0.981 . S
C119 H122 0.981 . S
H120 C119 0.980 . S
H121 C119 0.981 . S
H122 C119 0.981 . S
O123 Zn99 2.066 . S
O123 C102 1.256 . S
O124 Zn96 2.053 . S
O124 C102 1.244 . S
C125 O103 1.259 . S
C125 O104 1.254 . S
O126 Zn96 2.066 . S
O126 C98 1.256 . S
O127 C98 1.244 . S
O127 Zn99 2.053 . S
Zn128 O129 2.055 1_545 S
Zn128 O136 2.046 1_545 S
Zn128 N144 2.036 . S
Zn128 O156 2.053 . S
Zn128 O158 2.066 1_455 S
O129 Zn128 2.055 1_565 S
O129 C132 1.259 1_455 S
C130 O158 1.256 . S
C130 O159 1.244 . S
Zn131 O133 2.046 . S
Zn131 O135 2.055 1_655 S
Zn131 N137 2.036 . S
Zn131 O155 2.066 1_565 S
Zn131 O159 2.053 1_565 S
C132 O129 1.259 1_655 S
C132 O133 1.254 . S
O133 Zn131 2.046 . S
O133 C132 1.254 . S
C134 O155 1.256 1_455 S
C134 O156 1.244 . S
O135 Zn131 2.055 1_455 S
O135 C157 1.259 . S
O136 Zn128 2.046 1_565 S
O136 C157 1.254 . S
N137 Zn131 2.036 . S
N137 C138 1.298 . S
N137 N140 1.398 . S
C138 N137 1.298 . S
C138 N141 1.367 . S
C138 C151 1.481 . S
C139 N140 1.299 . S
C139 N141 1.379 . S
N140 N137 1.398 . S
N140 C139 1.299 . S
N141 C138 1.367 . S
N141 C139 1.379 . S
C142 N144 1.298 . S
C142 N146 1.367 . S
C142 C150 1.481 . S
C143 N145 1.299 . S
C143 N146 1.379 . S
N144 Zn128 2.036 . S
N144 C142 1.298 . S
N144 N145 1.398 . S
N145 C143 1.299 . S
N145 N144 1.398 . S
N146 C142 1.367 . S
N146 C143 1.379 . S
H147 C150 0.980 1_565 S
H148 C150 0.981 1_565 S
H149 C150 0.981 . S
C150 C142 1.481 . S
C150 H147 0.980 1_545 S
C150 H148 0.981 1_545 S
C150 H149 0.981 . S
C151 C138 1.481 . S
C151 H152 0.980 . S
C151 H153 0.981 . S
C151 H154 0.981 . S
H152 C151 0.980 . S
H153 C151 0.981 . S
H154 C151 0.981 . S
O155 Zn131 2.066 1_545 S
O155 C134 1.256 1_655 S
O156 Zn128 2.053 . S
O156 C134 1.244 . S
C157 O135 1.259 . S
C157 O136 1.254 . S
O158 Zn128 2.066 1_655 S
O158 C130 1.256 . S
O159 C130 1.244 . S
O159 Zn131 2.053 1_545 S
Zn160 O161 2.055 . S
Zn160 O168 2.046 . S
Zn160 N176 2.036 . S
Zn160 O188 2.053 . S
Zn160 O190 2.066 . S
O161 Zn160 2.055 . S
O161 C164 1.259 . S
C162 O190 1.256 . S
C162 O191 1.244 . S
Zn163 O165 2.046 . S
Zn163 O167 2.055 . S
Zn163 N169 2.036 . S
Zn163 O187 2.066 . S
Zn163 O191 2.053 . S
C164 O161 1.259 . S
C164 O165 1.254 . S
O165 Zn163 2.046 . S
O165 C164 1.254 . S
C166 O187 1.256 . S
C166 O188 1.244 . S
O167 Zn163 2.055 . S
O167 C189 1.259 . S
O168 Zn160 2.046 . S
O168 C189 1.254 . S
N169 Zn163 2.036 . S
N169 C170 1.298 . S
N169 N172 1.398 . S
C170 N169 1.298 . S
C170 N173 1.367 . S
C170 C183 1.481 . S
C171 N172 1.299 . S
C171 N173 1.379 . S
N172 N169 1.398 . S
N172 C171 1.299 . S
N173 C170 1.367 . S
N173 C171 1.379 . S
C174 N176 1.298 . S
C174 N178 1.367 . S
C174 C182 1.481 . S
C175 N177 1.299 . S
C175 N178 1.379 . S
N176 Zn160 2.036 . S
N176 C174 1.298 . S
N176 N177 1.398 . S
N177 C175 1.299 . S
N177 N176 1.398 . S
N178 C174 1.367 . S
N178 C175 1.379 . S
H179 C182 0.980 . S
H180 C182 0.981 . S
H181 C182 0.981 . S
C182 C174 1.481 . S
C182 H179 0.980 . S
C182 H180 0.981 . S
C182 H181 0.981 . S
C183 C170 1.481 . S
C183 H184 0.980 . S
C183 H185 0.981 . S
C183 H186 0.981 . S
H184 C183 0.980 . S
H185 C183 0.981 . S
H186 C183 0.981 . S
O187 Zn163 2.066 . S
O187 C166 1.256 . S
O188 Zn160 2.053 . S
O188 C166 1.244 . S
C189 O167 1.259 . S
C189 O168 1.254 . S
O190 Zn160 2.066 . S
O190 C162 1.256 . S
O191 C162 1.244 . S
O191 Zn163 2.053 . S
Zn192 O193 2.055 . S
Zn192 O200 2.046 1_554 S
Zn192 N208 2.036 . S
Zn192 O220 2.053 1_545 S
Zn192 O222 2.066 1_545 S
O193 Zn192 2.055 . S
O193 C196 1.259 . S
C194 O222 1.256 . S
C194 O223 1.244 . S
Zn195 O197 2.046 1_556 S
Zn195 O199 2.055 . S
Zn195 N201 2.036 1_545 S
Zn195 O219 2.066 1_545 S
Zn195 O223 2.053 1_546 S
C196 O193 1.259 . S
C196 O197 1.254 . S
O197 Zn195 2.046 1_554 S
O197 C196 1.254 . S
C198 O219 1.256 . S
C198 O220 1.244 1_556 S
O199 Zn195 2.055 . S
O199 C221 1.259 . S
O200 Zn192 2.046 1_556 S
O200 C221 1.254 . S
N201 Zn195 2.036 1_565 S
N201 C202 1.298 . S
N201 N204 1.398 . S
C202 N201 1.298 . S
C202 N205 1.367 . S
C202 C215 1.481 1_565 S
C203 N204 1.299 . S
C203 N205 1.379 . S
N204 N201 1.398 . S
N204 C203 1.299 . S
N205 C202 1.367 . S
N205 C203 1.379 . S
C206 N208 1.298 . S
C206 N210 1.367 . S
C206 C214 1.481 . S
C207 N209 1.299 . S
C207 N210 1.379 . S
N208 Zn192 2.036 . S
N208 C206 1.298 . S
N208 N209 1.398 . S
N209 C207 1.299 . S
N209 N208 1.398 . S
N210 C206 1.367 . S
N210 C207 1.379 . S
H211 C214 0.980 . S
H212 C214 0.981 . S
H213 C214 0.981 . S
C214 C206 1.481 . S
C214 H211 0.980 . S
C214 H212 0.981 . S
C214 H213 0.981 . S
C215 C202 1.481 1_545 S
C215 H216 0.980 . S
C215 H217 0.981 . S
C215 H218 0.981 1_545 S
H216 C215 0.980 . S
H217 C215 0.981 . S
H218 C215 0.981 1_565 S
O219 Zn195 2.066 1_565 S
O219 C198 1.256 . S
O220 Zn192 2.053 1_565 S
O220 C198 1.244 1_554 S
C221 O199 1.259 . S
C221 O200 1.254 . S
O222 Zn192 2.066 1_565 S
O222 C194 1.256 . S
O223 C194 1.244 . S
O223 Zn195 2.053 1_564 S
Zn224 O225 2.055 . S
Zn224 O232 2.046 . S
Zn224 N240 2.036 . S
Zn224 O252 2.053 . S
Zn224 O254 2.066 . S
O225 Zn224 2.055 . S
O225 C228 1.259 . S
C226 O254 1.256 . S
C226 O255 1.244 . S
Zn227 O229 2.046 . S
Zn227 O231 2.055 . S
Zn227 N233 2.036 . S
Zn227 O251 2.066 . S
Zn227 O255 2.053 . S
C228 O225 1.259 . S
C228 O229 1.254 . S
O229 Zn227 2.046 . S
O229 C228 1.254 . S
C230 O251 1.256 . S
C230 O252 1.244 . S
O231 Zn227 2.055 . S
O231 C253 1.259 . S
O232 Zn224 2.046 . S
O232 C253 1.254 . S
N233 Zn227 2.036 . S
N233 C234 1.298 . S
N233 N236 1.398 . S
C234 N233 1.298 . S
C234 N237 1.367 . S
C234 C247 1.481 . S
C235 N236 1.299 . S
C235 N237 1.379 . S
N236 N233 1.398 . S
N236 C235 1.299 . S
N237 C234 1.367 . S
N237 C235 1.379 . S
C238 N240 1.298 . S
C238 N242 1.367 . S
C238 C246 1.481 . S
C239 N241 1.299 . S
C239 N242 1.379 . S
N240 Zn224 2.036 . S
N240 C238 1.298 . S
N240 N241 1.398 . S
N241 C239 1.299 . S
N241 N240 1.398 . S
N242 C238 1.367 . S
N242 C239 1.379 . S
H243 C246 0.980 . S
H244 C246 0.981 . S
H245 C246 0.981 . S
C246 C238 1.481 . S
C246 H243 0.980 . S
C246 H244 0.981 . S
C246 H245 0.981 . S
C247 C234 1.481 . S
C247 H248 0.980 . S
C247 H249 0.981 . S
C247 H250 0.981 . S
H248 C247 0.980 . S
H249 C247 0.981 . S
H250 C247 0.981 . S
O251 Zn227 2.066 . S
O251 C230 1.256 . S
O252 Zn224 2.053 . S
O252 C230 1.244 . S
C253 O231 1.259 . S
C253 O232 1.254 . S
O254 Zn224 2.066 . S
O254 C226 1.256 . S
O255 C226 1.244 . S
O255 Zn227 2.053 . S
Zn256 O257 2.055 . S
Zn256 O264 2.046 1_554 S
Zn256 N272 2.036 . S
Zn256 O284 2.053 1_554 S
Zn256 O286 2.066 . S
O257 Zn256 2.055 . S
O257 C260 1.259 . S
C258 O286 1.256 . S
C258 O287 1.244 . S
Zn259 O261 2.046 1_556 S
Zn259 O263 2.055 . S
Zn259 N265 2.036 . S
Zn259 O283 2.066 . S
Zn259 O287 2.053 1_556 S
C260 O257 1.259 . S
C260 O261 1.254 . S
O261 Zn259 2.046 1_554 S
O261 C260 1.254 . S
C262 O283 1.256 . S
C262 O284 1.244 . S
O263 Zn259 2.055 . S
O263 C285 1.259 . S
O264 Zn256 2.046 1_556 S
O264 C285 1.254 . S
N265 Zn259 2.036 . S
N265 C266 1.298 . S
N265 N268 1.398 . S
C266 N265 1.298 . S
C266 N269 1.367 . S
C266 C279 1.481 . S
C267 N268 1.299 . S
C267 N269 1.379 . S
N268 N265 1.398 . S
N268 C267 1.299 . S
N269 C266 1.367 . S
N269 C267 1.379 . S
C270 N272 1.298 . S
C270 N274 1.367 . S
C270 C278 1.481 . S
C271 N273 1.299 . S
C271 N274 1.379 . S
N272 Zn256 2.036 . S
N272 C270 1.298 . S
N272 N273 1.398 . S
N273 C271 1.299 . S
N273 N272 1.398 . S
N274 C270 1.367 . S
N274 C271 1.379 . S
H275 C278 0.980 . S
H276 C278 0.981 . S
H277 C278 0.981 . S
C278 C270 1.481 . S
C278 H275 0.980 . S
C278 H276 0.981 . S
C278 H277 0.981 . S
C279 C266 1.481 . S
C279 H280 0.980 . S
C279 H281 0.981 . S
C279 H282 0.981 . S
H280 C279 0.980 . S
H281 C279 0.981 . S
H282 C279 0.981 . S
O283 Zn259 2.066 . S
O283 C262 1.256 . S
O284 Zn256 2.053 1_556 S
O284 C262 1.244 . S
C285 O263 1.259 . S
C285 O264 1.254 . S
O286 Zn256 2.066 . S
O286 C258 1.256 . S
O287 C258 1.244 . S
O287 Zn259 2.053 1_554 S
Zn288 O289 2.055 . S
Zn288 O296 2.046 . S
Zn288 N304 2.036 . S
Zn288 O316 2.053 . S
Zn288 O318 2.066 . S
O289 Zn288 2.055 . S
O289 C292 1.259 . S
C290 O318 1.256 . S
C290 O319 1.244 . S
Zn291 O293 2.046 . S
Zn291 O295 2.055 . S
Zn291 N297 2.036 . S
Zn291 O315 2.066 . S
Zn291 O319 2.053 . S
C292 O289 1.259 . S
C292 O293 1.254 . S
O293 Zn291 2.046 . S
O293 C292 1.254 . S
C294 O315 1.256 . S
C294 O316 1.244 . S
O295 Zn291 2.055 . S
O295 C317 1.259 . S
O296 Zn288 2.046 . S
O296 C317 1.254 . S
N297 Zn291 2.036 . S
N297 C298 1.298 . S
N297 N300 1.398 . S
C298 N297 1.298 . S
C298 N301 1.367 . S
C298 C311 1.481 . S
C299 N300 1.299 . S
C299 N301 1.379 . S
N300 N297 1.398 . S
N300 C299 1.299 . S
N301 C298 1.367 . S
N301 C299 1.379 . S
C302 N304 1.298 . S
C302 N306 1.367 . S
C302 C310 1.481 . S
C303 N305 1.299 . S
C303 N306 1.379 . S
N304 Zn288 2.036 . S
N304 C302 1.298 . S
N304 N305 1.398 . S
N305 C303 1.299 . S
N305 N304 1.398 . S
N306 C302 1.367 . S
N306 C303 1.379 . S
H307 C310 0.980 . S
H308 C310 0.981 . S
H309 C310 0.981 . S
C310 C302 1.481 . S
C310 H307 0.980 . S
C310 H308 0.981 . S
C310 H309 0.981 . S
C311 C298 1.481 . S
C311 H312 0.980 . S
C311 H313 0.981 . S
C311 H314 0.981 . S
H312 C311 0.980 . S
H313 C311 0.981 . S
H314 C311 0.981 . S
O315 Zn291 2.066 . S
O315 C294 1.256 . S
O316 Zn288 2.053 . S
O316 C294 1.244 . S
C317 O295 1.259 . S
C317 O296 1.254 . S
O318 Zn288 2.066 . S
O318 C290 1.256 . S
O319 C290 1.244 . S
O319 Zn291 2.053 . S
Zn320 O321 2.055 1_455 S
Zn320 O328 2.046 . S
Zn320 N336 2.036 . S
Zn320 O348 2.053 . S
Zn320 O350 2.066 . S
O321 Zn320 2.055 1_655 S
O321 C324 1.259 . S
C322 O350 1.256 1_655 S
C322 O351 1.244 . S
Zn323 O325 2.046 . S
Zn323 O327 2.055 . S
Zn323 N329 2.036 . S
Zn323 O347 2.066 1_655 S
Zn323 O351 2.053 . S
C324 O321 1.259 . S
C324 O325 1.254 . S
O325 Zn323 2.046 . S
O325 C324 1.254 . S
C326 O347 1.256 . S
C326 O348 1.244 . S
O327 Zn323 2.055 . S
O327 C349 1.259 1_655 S
O328 Zn320 2.046 . S
O328 C349 1.254 . S
N329 Zn323 2.036 . S
N329 C330 1.298 . S
N329 N332 1.398 . S
C330 N329 1.298 . S
C330 N333 1.367 . S
C330 C343 1.481 . S
C331 N332 1.299 . S
C331 N333 1.379 . S
N332 N329 1.398 . S
N332 C331 1.299 . S
N333 C330 1.367 . S
N333 C331 1.379 . S
C334 N336 1.298 . S
C334 N338 1.367 . S
C334 C342 1.481 . S
C335 N337 1.299 . S
C335 N338 1.379 . S
N336 Zn320 2.036 . S
N336 C334 1.298 . S
N336 N337 1.398 . S
N337 C335 1.299 . S
N337 N336 1.398 . S
N338 C334 1.367 . S
N338 C335 1.379 . S
H339 C342 0.980 . S
H340 C342 0.981 . S
H341 C342 0.981 . S
C342 C334 1.481 . S
C342 H339 0.980 . S
C342 H340 0.981 . S
C342 H341 0.981 . S
C343 C330 1.481 . S
C343 H344 0.980 . S
C343 H345 0.981 . S
C343 H346 0.981 . S
H344 C343 0.980 . S
H345 C343 0.981 . S
H346 C343 0.981 . S
O347 Zn323 2.066 1_455 S
O347 C326 1.256 . S
O348 Zn320 2.053 . S
O348 C326 1.244 . S
C349 O327 1.259 1_455 S
C349 O328 1.254 . S
O350 Zn320 2.066 . S
O350 C322 1.256 1_455 S
O351 C322 1.244 . S
O351 Zn323 2.053 . S
Zn352 O353 2.055 . S
Zn352 O360 2.046 . S
Zn352 N368 2.036 . S
Zn352 O380 2.053 . S
Zn352 O382 2.066 . S
O353 Zn352 2.055 . S
O353 C356 1.259 . S
C354 O382 1.256 . S
C354 O383 1.244 . S
Zn355 O357 2.046 . S
Zn355 O359 2.055 . S
Zn355 N361 2.036 . S
Zn355 O379 2.066 . S
Zn355 O383 2.053 . S
C356 O353 1.259 . S
C356 O357 1.254 . S
O357 Zn355 2.046 . S
O357 C356 1.254 . S
C358 O379 1.256 . S
C358 O380 1.244 . S
O359 Zn355 2.055 . S
O359 C381 1.259 . S
O360 Zn352 2.046 . S
O360 C381 1.254 . S
N361 Zn355 2.036 . S
N361 C362 1.298 . S
N361 N364 1.398 . S
C362 N361 1.298 . S
C362 N365 1.367 . S
C362 C375 1.481 . S
C363 N364 1.299 . S
C363 N365 1.379 . S
N364 N361 1.398 . S
N364 C363 1.299 . S
N365 C362 1.367 . S
N365 C363 1.379 . S
C366 N368 1.298 . S
C366 N370 1.367 . S
C366 C374 1.481 . S
C367 N369 1.299 . S
C367 N370 1.379 . S
N368 Zn352 2.036 . S
N368 C366 1.298 . S
N368 N369 1.398 . S
N369 C367 1.299 . S
N369 N368 1.398 . S
N370 C366 1.367 . S
N370 C367 1.379 . S
H371 C374 0.980 . S
H372 C374 0.981 . S
H373 C374 0.981 . S
C374 C366 1.481 . S
C374 H371 0.980 . S
C374 H372 0.981 . S
C374 H373 0.981 . S
C375 C362 1.481 . S
C375 H376 0.980 . S
C375 H377 0.981 . S
C375 H378 0.981 . S
H376 C375 0.980 . S
H377 C375 0.981 . S
H378 C375 0.981 . S
O379 Zn355 2.066 . S
O379 C358 1.256 . S
O380 Zn352 2.053 . S
O380 C358 1.244 . S
C381 O359 1.259 . S
C381 O360 1.254 . S
O382 Zn352 2.066 . S
O382 C354 1.256 . S
O383 C354 1.244 . S
O383 Zn355 2.053 . S
Zn384 O385 2.055 . S
Zn384 O392 2.046 . S
Zn384 N400 2.036 . S
Zn384 O412 2.053 . S
Zn384 O414 2.066 . S
O385 Zn384 2.055 . S
O385 C388 1.259 . S
C386 O414 1.256 . S
C386 O415 1.244 . S
Zn387 O389 2.046 . S
Zn387 O391 2.055 . S
Zn387 N393 2.036 . S
Zn387 O411 2.066 . S
Zn387 O415 2.053 . S
C388 O385 1.259 . S
C388 O389 1.254 . S
O389 Zn387 2.046 . S
O389 C388 1.254 . S
C390 O411 1.256 . S
C390 O412 1.244 . S
O391 Zn387 2.055 . S
O391 C413 1.259 . S
O392 Zn384 2.046 . S
O392 C413 1.254 . S
N393 Zn387 2.036 . S
N393 C394 1.298 . S
N393 N396 1.398 . S
C394 N393 1.298 . S
C394 N397 1.367 . S
C394 C407 1.481 . S
C395 N396 1.299 . S
C395 N397 1.379 . S
N396 N393 1.398 . S
N396 C395 1.299 . S
N397 C394 1.367 . S
N397 C395 1.379 . S
C398 N400 1.298 . S
C398 N402 1.367 . S
C398 C406 1.481 . S
C399 N401 1.299 . S
C399 N402 1.379 . S
N400 Zn384 2.036 . S
N400 C398 1.298 . S
N400 N401 1.398 . S
N401 C399 1.299 . S
N401 N400 1.398 . S
N402 C398 1.367 . S
N402 C399 1.379 . S
H403 C406 0.980 . S
H404 C406 0.981 . S
H405 C406 0.981 . S
C406 C398 1.481 . S
C406 H403 0.980 . S
C406 H404 0.981 . S
C406 H405 0.981 . S
C407 C394 1.481 . S
C407 H408 0.980 . S
C407 H409 0.981 . S
C407 H410 0.981 . S
H408 C407 0.980 . S
H409 C407 0.981 . S
H410 C407 0.981 . S
O411 Zn387 2.066 . S
O411 C390 1.256 . S
O412 Zn384 2.053 . S
O412 C390 1.244 . S
C413 O391 1.259 . S
C413 O392 1.254 . S
O414 Zn384 2.066 . S
O414 C386 1.256 . S
O415 C386 1.244 . S
O415 Zn387 2.053 . S
Zn416 O417 2.055 . S
Zn416 O424 2.046 . S
Zn416 N432 2.036 . S
Zn416 O444 2.053 . S
Zn416 O446 2.066 . S
O417 Zn416 2.055 . S
O417 C420 1.259 . S
C418 O446 1.256 . S
C418 O447 1.244 . S
Zn419 O421 2.046 . S
Zn419 O423 2.055 . S
Zn419 N425 2.036 . S
Zn419 O443 2.066 . S
Zn419 O447 2.053 . S
C420 O417 1.259 . S
C420 O421 1.254 . S
O421 Zn419 2.046 . S
O421 C420 1.254 . S
C422 O443 1.256 . S
C422 O444 1.244 . S
O423 Zn419 2.055 . S
O423 C445 1.259 . S
O424 Zn416 2.046 . S
O424 C445 1.254 . S
N425 Zn419 2.036 . S
N425 C426 1.298 . S
N425 N428 1.398 . S
C426 N425 1.298 . S
C426 N429 1.367 . S
C426 C439 1.481 . S
C427 N428 1.299 . S
C427 N429 1.379 . S
N428 N425 1.398 . S
N428 C427 1.299 . S
N429 C426 1.367 . S
N429 C427 1.379 . S
C430 N432 1.298 . S
C430 N434 1.367 . S
C430 C438 1.481 . S
C431 N433 1.299 . S
C431 N434 1.379 . S
N432 Zn416 2.036 . S
N432 C430 1.298 . S
N432 N433 1.398 . S
N433 C431 1.299 . S
N433 N432 1.398 . S
N434 C430 1.367 . S
N434 C431 1.379 . S
H435 C438 0.980 . S
H436 C438 0.981 . S
H437 C438 0.981 . S
C438 C430 1.481 . S
C438 H435 0.980 . S
C438 H436 0.981 . S
C438 H437 0.981 . S
C439 C426 1.481 . S
C439 H440 0.980 . S
C439 H441 0.981 . S
C439 H442 0.981 . S
H440 C439 0.980 . S
H441 C439 0.981 . S
H442 C439 0.981 . S
O443 Zn419 2.066 . S
O443 C422 1.256 . S
O444 Zn416 2.053 . S
O444 C422 1.244 . S
C445 O423 1.259 . S
C445 O424 1.254 . S
O446 Zn416 2.066 . S
O446 C418 1.256 . S
O447 C418 1.244 . S
O447 Zn419 2.053 . S
Zn448 O449 2.055 . S
Zn448 O456 2.046 . S
Zn448 N464 2.036 . S
Zn448 O476 2.053 . S
Zn448 O478 2.066 . S
O449 Zn448 2.055 . S
O449 C452 1.259 . S
C450 O478 1.256 . S
C450 O479 1.244 . S
Zn451 O453 2.046 . S
Zn451 O455 2.055 . S
Zn451 N457 2.036 . S
Zn451 O475 2.066 . S
Zn451 O479 2.053 . S
C452 O449 1.259 . S
C452 O453 1.254 . S
O453 Zn451 2.046 . S
O453 C452 1.254 . S
C454 O475 1.256 . S
C454 O476 1.244 . S
O455 Zn451 2.055 . S
O455 C477 1.259 . S
O456 Zn448 2.046 . S
O456 C477 1.254 . S
N457 Zn451 2.036 . S
N457 C458 1.298 . S
N457 N460 1.398 . S
C458 N457 1.298 . S
C458 N461 1.367 . S
C458 C471 1.481 . S
C459 N460 1.299 . S
C459 N461 1.379 . S
N460 N457 1.398 . S
N460 C459 1.299 . S
N461 C458 1.367 . S
N461 C459 1.379 . S
C462 N464 1.298 . S
C462 N466 1.367 . S
C462 C470 1.481 . S
C463 N465 1.299 . S
C463 N466 1.379 . S
N464 Zn448 2.036 . S
N464 C462 1.298 . S
N464 N465 1.398 . S
N465 C463 1.299 . S
N465 N464 1.398 . S
N466 C462 1.367 . S
N466 C463 1.379 . S
H467 C470 0.980 . S
H468 C470 0.981 . S
H469 C470 0.981 . S
C470 C462 1.481 . S
C470 H467 0.980 . S
C470 H468 0.981 . S
C470 H469 0.981 . S
C471 C458 1.481 . S
C471 H472 0.980 . S
C471 H473 0.981 . S
C471 H474 0.981 . S
H472 C471 0.980 . S
H473 C471 0.981 . S
H474 C471 0.981 . S
O475 Zn451 2.066 . S
O475 C454 1.256 . S
O476 Zn448 2.053 . S
O476 C454 1.244 . S
C477 O455 1.259 . S
C477 O456 1.254 . S
O478 Zn448 2.066 . S
O478 C450 1.256 . S
O479 C450 1.244 . S
O479 Zn451 2.053 . S
Zn480 O481 2.055 1_454 S
Zn480 O488 2.046 1_554 S
Zn480 N496 2.036 . S
Zn480 O508 2.053 . S
Zn480 O510 2.066 1_455 S
O481 Zn480 2.055 1_656 S
O481 C484 1.259 . S
C482 O510 1.256 . S
C482 O511 1.244 . S
Zn483 O485 2.046 . S
Zn483 O487 2.055 1_655 S
Zn483 N489 2.036 . S
Zn483 O507 2.066 1_656 S
Zn483 O511 2.053 1_556 S
C484 O481 1.259 . S
C484 O485 1.254 . S
O485 Zn483 2.046 . S
O485 C484 1.254 . S
C486 O507 1.256 . S
C486 O508 1.244 . S
O487 Zn483 2.055 1_455 S
O487 C509 1.259 . S
O488 Zn480 2.046 1_556 S
O488 C509 1.254 . S
N489 Zn483 2.036 . S
N489 C490 1.298 . S
N489 N492 1.398 . S
C490 N489 1.298 . S
C490 N493 1.367 . S
C490 C503 1.481 . S
C491 N492 1.299 . S
C491 N493 1.379 . S
N492 N489 1.398 . S
N492 C491 1.299 . S
N493 C490 1.367 . S
N493 C491 1.379 . S
C494 N496 1.298 . S
C494 N498 1.367 . S
C494 C502 1.481 . S
C495 N497 1.299 . S
C495 N498 1.379 . S
N496 Zn480 2.036 . S
N496 C494 1.298 . S
N496 N497 1.398 . S
N497 C495 1.299 . S
N497 N496 1.398 . S
N498 C494 1.367 . S
N498 C495 1.379 . S
H499 C502 0.980 . S
H500 C502 0.981 . S
H501 C502 0.981 . S
C502 C494 1.481 . S
C502 H499 0.980 . S
C502 H500 0.981 . S
C502 H501 0.981 . S
C503 C490 1.481 . S
C503 H504 0.994 . S
C503 H505 0.981 . S
C503 H506 0.981 . S
H504 C503 0.994 . S
H505 C503 0.981 . S
H506 C503 0.981 . S
O507 Zn483 2.066 1_454 S
O507 C486 1.256 . S
O508 Zn480 2.053 . S
O508 C486 1.244 . S
C509 O487 1.259 . S
C509 O488 1.254 . S
O510 Zn480 2.066 1_655 S
O510 C482 1.256 . S
O511 C482 1.244 . S
O511 Zn483 2.053 1_554 S
C512 C513 1.387 . S
C512 H516 0.950 . S
C512 C521 1.390 . S
C513 C512 1.387 . S
C513 C515 1.387 . S
H514 C521 0.950 . S
C515 C513 1.387 . S
C515 C517 1.390 . S
C515 H519 0.950 . S
H516 C512 0.950 . S
C517 C515 1.390 . S
C517 C518 1.387 . S
C517 H520 0.950 . S
C518 C517 1.387 . S
C518 C521 1.387 . S
H519 C515 0.950 . S
H520 C517 0.950 . S
C521 C512 1.390 . S
C521 H514 0.950 . S
C521 C518 1.387 . S
C522 C523 1.387 . S
C522 H526 0.950 . S
C522 C531 1.390 . S
C523 C522 1.387 . S
C523 C525 1.387 . S
H524 C531 0.950 . S
C525 C523 1.387 . S
C525 C527 1.390 . S
C525 H529 0.950 . S
H526 C522 0.950 . S
C527 C525 1.390 . S
C527 C528 1.387 . S
C527 H530 0.950 . S
C528 C527 1.387 . S
C528 C531 1.387 . S
H529 C525 0.950 . S
H530 C527 0.950 . S
C531 C522 1.390 . S
C531 H524 0.950 . S
C531 C528 1.387 . S
C532 C533 1.387 . S
C532 H536 0.950 . S
C532 C541 1.390 . S
C533 C532 1.387 . S
C533 C535 1.387 . S
H534 C541 0.950 . S
C535 C533 1.387 . S
C535 C537 1.390 . S
C535 H539 0.950 . S
H536 C532 0.950 . S
C537 C535 1.390 . S
C537 C538 1.387 . S
C537 H540 0.950 . S
C538 C537 1.387 . S
C538 C541 1.387 . S
H539 C535 0.950 . S
H540 C537 0.950 . S
C541 C532 1.390 . S
C541 H534 0.950 . S
C541 C538 1.387 . S
C542 C543 1.387 . S
C542 H546 0.950 . S
C542 C551 1.390 . S
C543 C542 1.387 . S
C543 C545 1.387 . S
H544 C551 0.950 . S
C545 C543 1.387 . S
C545 C547 1.390 . S
C545 H549 0.950 . S
H546 C542 0.950 . S
C547 C545 1.390 . S
C547 C548 1.387 . S
C547 H550 0.950 . S
C548 C547 1.387 . S
C548 C551 1.387 . S
H549 C545 0.950 . S
H550 C547 0.950 . S
C551 C542 1.390 . S
C551 H544 0.950 . S
C551 C548 1.387 . S
C552 C553 1.387 . S
C552 H556 0.950 . S
C552 C561 1.390 . S
C553 C552 1.387 . S
C553 C555 1.387 . S
H554 C561 0.950 . S
C555 C553 1.387 . S
C555 C557 1.390 . S
C555 H559 0.950 . S
H556 C552 0.950 . S
C557 C555 1.390 . S
C557 C558 1.387 . S
C557 H560 0.950 . S
C558 C557 1.387 . S
C558 C561 1.387 . S
H559 C555 0.950 . S
H560 C557 0.950 . S
C561 C552 1.390 . S
C561 H554 0.950 . S
C561 C558 1.387 . S
C562 C563 1.387 . S
C562 H566 0.950 . S
C562 C571 1.390 . S
C563 C562 1.387 . S
C563 C565 1.387 . S
H564 C571 0.950 . S
C565 C563 1.387 . S
C565 C567 1.390 . S
C565 H569 0.950 . S
H566 C562 0.950 . S
C567 C565 1.390 . S
C567 C568 1.387 . S
C567 H570 0.950 1_565 S
C568 C567 1.387 . S
C568 C571 1.387 . S
H569 C565 0.950 . S
H570 C567 0.950 1_545 S
C571 C562 1.390 . S
C571 H564 0.950 . S
C571 C568 1.387 . S
C572 C573 1.387 . S
C572 H576 0.950 . S
C572 C581 1.390 . S
C573 C572 1.387 . S
C573 C575 1.387 . S
H574 C581 0.950 . S
C575 C573 1.387 . S
C575 C577 1.390 . S
C575 H579 0.950 . S
H576 C572 0.950 . S
C577 C575 1.390 . S
C577 C578 1.387 . S
C577 H580 0.950 . S
C578 C577 1.387 . S
C578 C581 1.387 . S
H579 C575 0.950 . S
H580 C577 0.950 . S
C581 C572 1.390 . S
C581 H574 0.950 . S
C581 C578 1.387 . S
C582 C583 1.387 . S
C582 H586 0.950 . S
C582 C591 1.390 . S
C583 C582 1.387 . S
C583 C585 1.387 . S
H584 C591 0.950 . S
C585 C583 1.387 . S
C585 C587 1.390 . S
C585 H589 0.950 . S
H586 C582 0.950 . S
C587 C585 1.390 . S
C587 C588 1.387 . S
C587 H590 0.950 . S
C588 C587 1.387 . S
C588 C591 1.387 . S
H589 C585 0.950 . S
H590 C587 0.950 . S
C591 C582 1.390 . S
C591 H584 0.950 . S
C591 C588 1.387 . S
C592 C593 1.387 . S
C592 H596 0.950 . S
C592 C601 1.390 . S
C593 C592 1.387 . S
C593 C595 1.387 . S
H594 C601 0.950 . S
C595 C593 1.387 . S
C595 C597 1.390 . S
C595 H599 0.950 . S
H596 C592 0.950 . S
C597 C595 1.390 . S
C597 C598 1.387 . S
C597 H600 0.950 . S
C598 C597 1.387 . S
C598 C601 1.387 . S
H599 C595 0.950 . S
H600 C597 0.950 . S
C601 C592 1.390 . S
C601 H594 0.950 . S
C601 C598 1.387 . S
C602 C603 1.387 . S
C602 H606 0.950 . S
C602 C611 1.390 . S
C603 C602 1.387 . S
C603 C605 1.387 . S
H604 C611 0.950 . S
C605 C603 1.387 . S
C605 C607 1.390 . S
C605 H609 0.950 . S
H606 C602 0.950 . S
C607 C605 1.390 . S
C607 C608 1.387 . S
C607 H610 0.950 . S
C608 C607 1.387 . S
C608 C611 1.387 . S
H609 C605 0.950 . S
H610 C607 0.950 . S
C611 C602 1.390 . S
C611 H604 0.950 . S
C611 C608 1.387 . S
C612 C613 1.387 . S
C612 H616 0.950 . S
C612 C621 1.390 . S
C613 C612 1.387 . S
C613 C615 1.387 . S
H614 C621 0.950 . S
C615 C613 1.387 . S
C615 C617 1.390 . S
C615 H619 0.950 . S
H616 C612 0.950 . S
C617 C615 1.390 . S
C617 C618 1.387 . S
C617 H620 0.950 . S
C618 C617 1.387 . S
C618 C621 1.387 . S
H619 C615 0.950 . S
H620 C617 0.950 . S
C621 C612 1.390 . S
C621 H614 0.950 . S
C621 C618 1.387 . S
C622 C623 1.387 . S
C622 H626 0.950 . S
C622 C631 1.390 . S
C623 C622 1.387 . S
C623 C625 1.387 . S
H624 C631 0.950 . S
C625 C623 1.387 . S
C625 C627 1.390 . S
C625 H629 0.950 . S
H626 C622 0.950 . S
C627 C625 1.390 . S
C627 C628 1.387 . S
C627 H630 0.950 . S
C628 C627 1.387 . S
C628 C631 1.387 . S
H629 C625 0.950 . S
H630 C627 0.950 . S
C631 C622 1.390 . S
C631 H624 0.950 . S
C631 C628 1.387 . S
C632 C633 1.387 . S
C632 H636 0.950 . S
C632 C641 1.390 . S
C633 C632 1.387 . S
C633 C635 1.387 . S
H634 C641 0.950 . S
C635 C633 1.387 . S
C635 C637 1.390 . S
C635 H639 0.950 . S
H636 C632 0.950 . S
C637 C635 1.390 . S
C637 C638 1.387 . S
C637 H640 0.950 . S
C638 C637 1.387 . S
C638 C641 1.387 . S
H639 C635 0.950 . S
H640 C637 0.950 . S
C641 C632 1.390 . S
C641 H634 0.950 . S
C641 C638 1.387 . S
C642 C643 1.387 . S
C642 H646 0.950 . S
C642 C651 1.390 . S
C643 C642 1.387 . S
C643 C645 1.387 . S
H644 C651 0.950 . S
C645 C643 1.387 . S
C645 C647 1.390 . S
C645 H649 0.950 . S
H646 C642 0.950 . S
C647 C645 1.390 . S
C647 C648 1.387 . S
C647 H650 0.950 . S
C648 C647 1.387 . S
C648 C651 1.387 . S
H649 C645 0.950 . S
H650 C647 0.950 . S
C651 C642 1.390 . S
C651 H644 0.950 . S
C651 C648 1.387 . S
C652 C653 1.387 . S
C652 H656 0.946 1_556 S
C652 C661 1.390 . S
C653 C652 1.387 . S
C653 C655 1.387 . S
H654 C661 0.950 . S
C655 C653 1.387 . S
C655 C657 1.390 . S
C655 H659 0.950 . S
H656 C652 0.946 1_554 S
C657 C655 1.390 . S
C657 C658 1.387 . S
C657 H660 0.950 . S
C658 C657 1.387 . S
C658 C661 1.387 . S
H659 C655 0.950 . S
H660 C657 0.950 . S
C661 C652 1.390 . S
C661 H654 0.950 . S
C661 C658 1.387 . S
C662 C663 1.387 . S
C662 H666 0.950 . S
C662 C671 1.390 . S
C663 C662 1.387 . S
C663 C665 1.387 . S
H664 C671 0.950 . S
C665 C663 1.387 . S
C665 C667 1.390 . S
C665 H669 0.950 . S
H666 C662 0.950 . S
C667 C665 1.390 . S
C667 C668 1.387 . S
C667 H670 0.950 . S
C668 C667 1.387 . S
C668 C671 1.387 . S
H669 C665 0.950 . S
H670 C667 0.950 . S
C671 C662 1.390 . S
C671 H664 0.950 . S
C671 C668 1.387 . S
C672 C673 1.387 . S
C672 H676 0.950 . S
C672 C681 1.390 . S
C673 C672 1.387 . S
C673 C675 1.387 . S
H674 C681 0.950 . S
C675 C673 1.387 . S
C675 C677 1.390 . S
C675 H679 0.950 . S
H676 C672 0.950 . S
C677 C675 1.390 . S
C677 C678 1.387 . S
C677 H680 0.950 . S
C678 C677 1.387 . S
C678 C681 1.387 . S
H679 C675 0.950 . S
H680 C677 0.950 . S
C681 C672 1.390 . S
C681 H674 0.950 . S
C681 C678 1.387 . S
C682 C683 1.387 . S
C682 H686 0.950 . S
C682 C691 1.390 . S
C683 C682 1.387 . S
C683 C685 1.387 . S
H684 C691 0.950 . S
C685 C683 1.387 . S
C685 C687 1.390 . S
C685 H689 0.950 . S
H686 C682 0.950 . S
C687 C685 1.390 . S
C687 C688 1.387 . S
C687 H690 0.950 . S
C688 C687 1.387 . S
C688 C691 1.387 . S
H689 C685 0.950 . S
H690 C687 0.950 . S
C691 C682 1.390 . S
C691 H684 0.950 . S
C691 C688 1.387 . S
C692 C693 1.387 . S
C692 H696 0.950 . S
C692 C701 1.390 . S
C693 C692 1.387 . S
C693 C695 1.387 . S
H694 C701 0.950 . S
C695 C693 1.387 . S
C695 C697 1.390 . S
C695 H699 0.950 . S
H696 C692 0.950 . S
C697 C695 1.390 . S
C697 C698 1.387 . S
C697 H700 0.950 . S
C698 C697 1.387 . S
C698 C701 1.387 . S
H699 C695 0.950 . S
H700 C697 0.950 . S
C701 C692 1.390 . S
C701 H694 0.950 . S
C701 C698 1.387 . S
C702 C703 1.387 . S
C702 H706 0.950 . S
C702 C711 1.390 . S
C703 C702 1.387 . S
C703 C705 1.387 . S
H704 C711 0.950 . S
C705 C703 1.387 . S
C705 C707 1.390 . S
C705 H709 0.950 . S
H706 C702 0.950 . S
C707 C705 1.390 . S
C707 C708 1.387 . S
C707 H710 0.950 . S
C708 C707 1.387 . S
C708 C711 1.387 . S
H709 C705 0.950 . S
H710 C707 0.950 . S
C711 C702 1.390 . S
C711 H704 0.950 . S
C711 C708 1.387 . S
C712 C713 1.387 . S
C712 H716 0.950 . S
C712 C721 1.390 . S
C713 C712 1.387 . S
C713 C715 1.387 . S
H714 C721 0.950 . S
C715 C713 1.387 . S
C715 C717 1.390 . S
C715 H719 0.950 . S
H716 C712 0.950 . S
C717 C715 1.390 . S
C717 C718 1.387 . S
C717 H720 0.950 . S
C718 C717 1.387 . S
C718 C721 1.387 . S
H719 C715 0.950 . S
H720 C717 0.950 . S
C721 C712 1.390 . S
C721 H714 0.950 . S
C721 C718 1.387 . S
C722 C723 1.387 . S
C722 H726 0.950 . S
C722 C731 1.390 . S
C723 C722 1.387 . S
C723 C725 1.387 . S
H724 C731 0.950 . S
C725 C723 1.387 . S
C725 C727 1.390 . S
C725 H729 0.950 . S
H726 C722 0.950 . S
C727 C725 1.390 . S
C727 C728 1.387 . S
C727 H730 0.950 . S
C728 C727 1.387 . S
C728 C731 1.387 . S
H729 C725 0.950 . S
H730 C727 0.950 . S
C731 C722 1.390 . S
C731 H724 0.950 . S
C731 C728 1.387 . S
C732 C733 1.387 . S
C732 H736 0.950 . S
C732 C741 1.390 . S
C733 C732 1.387 . S
C733 C735 1.387 . S
H734 C741 0.950 . S
C735 C733 1.387 . S
C735 C737 1.390 . S
C735 H739 0.950 . S
H736 C732 0.950 . S
C737 C735 1.390 . S
C737 C738 1.387 . S
C737 H740 0.950 . S
C738 C737 1.387 . S
C738 C741 1.387 . S
H739 C735 0.950 . S
H740 C737 0.950 . S
C741 C732 1.390 . S
C741 H734 0.950 . S
C741 C738 1.387 . S
C742 C743 1.387 . S
C742 H746 0.950 . S
C742 C751 1.390 . S
C743 C742 1.387 . S
C743 C745 1.387 . S
H744 C751 0.950 . S
C745 C743 1.387 . S
C745 C747 1.390 . S
C745 H749 0.950 . S
H746 C742 0.950 . S
C747 C745 1.390 . S
C747 C748 1.387 . S
C747 H750 0.950 . S
C748 C747 1.387 . S
C748 C751 1.387 . S
H749 C745 0.950 . S
H750 C747 0.950 . S
C751 C742 1.390 . S
C751 H744 0.950 . S
C751 C748 1.387 . S
C752 C753 1.387 . S
C752 H756 0.950 . S
C752 C761 1.390 . S
C753 C752 1.387 . S
C753 C755 1.387 . S
H754 C761 0.950 . S
C755 C753 1.387 . S
C755 C757 1.390 . S
C755 H759 0.950 . S
H756 C752 0.950 . S
C757 C755 1.390 . S
C757 C758 1.387 . S
C757 H760 0.950 . S
C758 C757 1.387 . S
C758 C761 1.387 . S
H759 C755 0.950 . S
H760 C757 0.950 . S
C761 C752 1.390 . S
C761 H754 0.950 . S
C761 C758 1.387 . S
C762 C763 1.387 . S
C762 H766 0.950 . S
C762 C771 1.390 . S
C763 C762 1.387 . S
C763 C765 1.387 . S
H764 C771 0.950 . S
C765 C763 1.387 . S
C765 C767 1.390 . S
C765 H769 0.950 . S
H766 C762 0.950 . S
C767 C765 1.390 . S
C767 C768 1.387 . S
C767 H770 0.950 . S
C768 C767 1.387 . S
C768 C771 1.387 . S
H769 C765 0.950 . S
H770 C767 0.950 . S
C771 C762 1.390 . S
C771 H764 0.950 . S
C771 C768 1.387 . S
C772 C773 1.387 . S
C772 H776 0.950 . S
C772 C781 1.390 . S
C773 C772 1.387 . S
C773 C775 1.387 . S
H774 C781 0.950 . S
C775 C773 1.387 . S
C775 C777 1.390 . S
C775 H779 0.950 . S
H776 C772 0.950 . S
C777 C775 1.390 . S
C777 C778 1.387 . S
C777 H780 0.950 . S
C778 C777 1.387 . S
C778 C781 1.387 . S
H779 C775 0.950 . S
H780 C777 0.950 . S
C781 C772 1.390 . S
C781 H774 0.950 . S
C781 C778 1.387 . S
C782 C783 1.387 . S
C782 H786 0.950 . S
C782 C791 1.390 . S
C783 C782 1.387 . S
C783 C785 1.387 . S
H784 C791 0.950 . S
C785 C783 1.387 . S
C785 C787 1.390 . S
C785 H789 0.950 . S
H786 C782 0.950 . S
C787 C785 1.390 . S
C787 C788 1.387 . S
C787 H790 0.950 . S
C788 C787 1.387 . S
C788 C791 1.387 . S
H789 C785 0.950 . S
H790 C787 0.950 . S
C791 C782 1.390 . S
C791 H784 0.950 . S
C791 C788 1.387 . S
C792 C793 1.387 . S
C792 H796 0.950 . S
C792 C801 1.390 . S
C793 C792 1.387 . S
C793 C795 1.387 . S
H794 C801 0.950 . S
C795 C793 1.387 . S
C795 C797 1.390 . S
C795 H799 0.950 . S
H796 C792 0.950 . S
C797 C795 1.390 . S
C797 C798 1.387 . S
C797 H800 0.950 . S
C798 C797 1.387 . S
C798 C801 1.387 . S
H799 C795 0.950 . S
H800 C797 0.950 . S
C801 C792 1.390 . S
C801 H794 0.950 . S
C801 C798 1.387 . S
C802 C803 1.387 . S
C802 H806 0.950 . S
C802 C811 1.390 . S
C803 C802 1.387 . S
C803 C805 1.387 . S
H804 C811 0.950 . S
C805 C803 1.387 . S
C805 C807 1.390 . S
C805 H809 0.950 . S
H806 C802 0.950 . S
C807 C805 1.390 . S
C807 C808 1.387 . S
C807 H810 0.950 . S
C808 C807 1.387 . S
C808 C811 1.387 . S
H809 C805 0.950 . S
H810 C807 0.950 . S
C811 C802 1.390 . S
C811 H804 0.950 . S
C811 C808 1.387 . S
C812 C813 1.387 . S
C812 H816 0.950 . S
C812 C821 1.390 . S
C813 C812 1.387 . S
C813 C815 1.387 . S
H814 C821 0.950 . S
C815 C813 1.387 . S
C815 C817 1.390 . S
C815 H819 0.950 . S
H816 C812 0.950 . S
C817 C815 1.390 . S
C817 C818 1.387 . S
C817 H820 0.950 . S
C818 C817 1.387 . S
C818 C821 1.387 . S
H819 C815 0.950 . S
H820 C817 0.950 . S
C821 C812 1.390 . S
C821 H814 0.950 . S
C821 C818 1.387 . S
C822 C823 1.387 . S
C822 H826 0.950 . S
C822 C831 1.390 . S
C823 C822 1.387 . S
C823 C825 1.387 . S
H824 C831 0.950 . S
C825 C823 1.387 . S
C825 C827 1.390 . S
C825 H829 0.950 . S
H826 C822 0.950 . S
C827 C825 1.390 . S
C827 C828 1.387 . S
C827 H830 0.950 . S
C828 C827 1.387 . S
C828 C831 1.387 . S
H829 C825 0.950 . S
H830 C827 0.950 . S
C831 C822 1.390 . S
C831 H824 0.950 . S
C831 C828 1.387 . S
C832 C833 1.387 . S
C832 H836 0.950 . S
C832 C841 1.390 . S
C833 C832 1.387 . S
C833 C835 1.387 . S
H834 C841 0.950 . S
C835 C833 1.387 . S
C835 C837 1.390 . S
C835 H839 0.950 . S
H836 C832 0.950 . S
C837 C835 1.390 . S
C837 C838 1.387 . S
C837 H840 0.950 . S
C838 C837 1.387 . S
C838 C841 1.387 . S
H839 C835 0.950 . S
H840 C837 0.950 . S
C841 C832 1.390 . S
C841 H834 0.950 . S
C841 C838 1.387 . S
C842 C843 1.387 . S
C842 H846 0.950 . S
C842 C851 1.390 . S
C843 C842 1.387 . S
C843 C845 1.387 . S
H844 C851 0.950 . S
C845 C843 1.387 . S
C845 C847 1.390 . S
C845 H849 0.950 . S
H846 C842 0.950 . S
C847 C845 1.390 . S
C847 C848 1.387 . S
C847 H850 0.950 . S
C848 C847 1.387 . S
C848 C851 1.387 . S
H849 C845 0.950 . S
H850 C847 0.950 . S
C851 C842 1.390 . S
C851 H844 0.950 . S
C851 C848 1.387 . S
C852 C853 1.387 . S
C852 H856 0.950 . S
C852 C861 1.390 . S
C853 C852 1.387 . S
C853 C855 1.387 . S
H854 C861 0.950 . S
C855 C853 1.387 . S
C855 C857 1.390 . S
C855 H859 0.950 . S
H856 C852 0.950 . S
C857 C855 1.390 . S
C857 C858 1.387 . S
C857 H860 0.950 . S
C858 C857 1.387 . S
C858 C861 1.387 . S
H859 C855 0.950 . S
H860 C857 0.950 . S
C861 C852 1.390 . S
C861 H854 0.950 . S
C861 C858 1.387 . S
C862 C863 1.387 . S
C862 H866 0.950 . S
C862 C871 1.390 . S
C863 C862 1.387 . S
C863 C865 1.387 . S
H864 C871 0.950 . S
C865 C863 1.387 . S
C865 C867 1.390 . S
C865 H869 0.950 . S
H866 C862 0.950 . S
C867 C865 1.390 . S
C867 C868 1.387 . S
C867 H870 0.950 . S
C868 C867 1.387 . S
C868 C871 1.387 . S
H869 C865 0.950 . S
H870 C867 0.950 . S
C871 C862 1.390 . S
C871 H864 0.950 . S
C871 C868 1.387 . S
C872 C873 1.387 . S
C872 H876 0.950 . S
C872 C881 1.390 . S
C873 C872 1.387 . S
C873 C875 1.387 . S
H874 C881 0.950 . S
C875 C873 1.387 . S
C875 C877 1.390 . S
C875 H879 0.950 . S
H876 C872 0.950 . S
C877 C875 1.390 . S
C877 C878 1.387 . S
C877 H880 0.950 . S
C878 C877 1.387 . S
C878 C881 1.387 . S
H879 C875 0.950 . S
H880 C877 0.950 . S
C881 C872 1.390 . S
C881 H874 0.950 . S
C881 C878 1.387 . S
C882 C883 1.387 . S
C882 H886 0.950 . S
C882 C891 1.390 . S
C883 C882 1.387 . S
C883 C885 1.387 . S
H884 C891 0.950 . S
C885 C883 1.387 . S
C885 C887 1.390 . S
C885 H889 0.950 . S
H886 C882 0.950 . S
C887 C885 1.390 . S
C887 C888 1.387 . S
C887 H890 0.950 . S
C888 C887 1.387 . S
C888 C891 1.387 . S
H889 C885 0.950 . S
H890 C887 0.950 . S
C891 C882 1.390 . S
C891 H884 0.950 . S
C891 C888 1.387 . S
C892 C893 1.387 . S
C892 H896 0.950 . S
C892 C901 1.390 . S
C893 C892 1.387 . S
C893 C895 1.387 . S
H894 C901 0.950 . S
C895 C893 1.387 . S
C895 C897 1.390 . S
C895 H899 0.950 . S
H896 C892 0.950 . S
C897 C895 1.390 . S
C897 C898 1.387 . S
C897 H900 0.950 . S
C898 C897 1.387 . S
C898 C901 1.387 . S
H899 C895 0.950 . S
H900 C897 0.950 . S
C901 C892 1.390 . S
C901 H894 0.950 . S
C901 C898 1.387 . S
C902 C903 1.387 . S
C902 H906 0.950 . S
C902 C911 1.390 . S
C903 C902 1.387 . S
C903 C905 1.387 . S
H904 C911 0.950 . S
C905 C903 1.387 . S
C905 C907 1.390 . S
C905 H909 0.950 . S
H906 C902 0.950 . S
C907 C905 1.390 . S
C907 C908 1.387 . S
C907 H910 0.950 . S
C908 C907 1.387 . S
C908 C911 1.387 . S
H909 C905 0.950 . S
H910 C907 0.950 . S
C911 C902 1.390 . S
C911 H904 0.950 . S
C911 C908 1.387 . S
C912 C913 1.387 . S
C912 H916 0.950 . S
C912 C921 1.390 . S
C913 C912 1.387 . S
C913 C915 1.387 . S
H914 C921 0.950 . S
C915 C913 1.387 . S
C915 C917 1.390 . S
C915 H919 0.950 . S
H916 C912 0.950 . S
C917 C915 1.390 . S
C917 C918 1.387 . S
C917 H920 0.950 . S
C918 C917 1.387 . S
C918 C921 1.387 . S
H919 C915 0.950 . S
H920 C917 0.950 . S
C921 C912 1.390 . S
C921 H914 0.950 . S
C921 C918 1.387 . S
C922 C923 1.387 . S
C922 H926 0.950 . S
C922 C931 1.390 . S
C923 C922 1.387 . S
C923 C925 1.387 . S
H924 C931 0.950 . S
C925 C923 1.387 . S
C925 C927 1.390 . S
C925 H929 0.950 . S
H926 C922 0.950 . S
C927 C925 1.390 . S
C927 C928 1.387 . S
C927 H930 0.950 . S
C928 C927 1.387 . S
C928 C931 1.387 . S
H929 C925 0.950 . S
H930 C927 0.950 . S
C931 C922 1.390 . S
C931 H924 0.950 . S
C931 C928 1.387 . S
C932 C933 1.387 . S
C932 H936 0.950 . S
C932 C941 1.390 . S
C933 C932 1.387 . S
C933 C935 1.387 . S
H934 C941 0.950 . S
C935 C933 1.387 . S
C935 C937 1.390 . S
C935 H939 0.950 . S
H936 C932 0.950 . S
C937 C935 1.390 . S
C937 C938 1.387 . S
C937 H940 0.950 . S
C938 C937 1.387 . S
C938 C941 1.387 . S
H939 C935 0.950 . S
H940 C937 0.950 . S
C941 C932 1.390 . S
C941 H934 0.950 . S
C941 C938 1.387 . S
C942 C943 1.387 . S
C942 H946 0.950 . S
C942 C951 1.390 . S
C943 C942 1.387 . S
C943 C945 1.387 . S
H944 C951 0.950 . S
C945 C943 1.387 . S
C945 C947 1.390 . S
C945 H949 0.950 . S
H946 C942 0.950 . S
C947 C945 1.390 . S
C947 C948 1.387 . S
C947 H950 0.950 . S
C948 C947 1.387 . S
C948 C951 1.387 . S
H949 C945 0.950 . S
H950 C947 0.950 . S
C951 C942 1.390 . S
C951 H944 0.950 . S
C951 C948 1.387 . S
C952 C953 1.387 . S
C952 H956 0.950 . S
C952 C961 1.390 . S
C953 C952 1.387 . S
C953 C955 1.387 . S
H954 C961 0.950 . S
C955 C953 1.387 . S
C955 C957 1.390 . S
C955 H959 0.950 . S
H956 C952 0.950 . S
C957 C955 1.390 . S
C957 C958 1.387 . S
C957 H960 0.950 . S
C958 C957 1.387 . S
C958 C961 1.387 . S
H959 C955 0.950 . S
H960 C957 0.950 . S
C961 C952 1.390 . S
C961 H954 0.950 . S
C961 C958 1.387 . S
C962 C963 1.387 . S
C962 H966 0.950 . S
C962 C971 1.390 . S
C963 C962 1.387 . S
C963 C965 1.387 . S
H964 C971 0.950 . S
C965 C963 1.387 . S
C965 C967 1.390 . S
C965 H969 0.950 . S
H966 C962 0.950 . S
C967 C965 1.390 . S
C967 C968 1.387 . S
C967 H970 0.950 . S
C968 C967 1.387 . S
C968 C971 1.387 . S
H969 C965 0.950 . S
H970 C967 0.950 . S
C971 C962 1.390 . S
C971 H964 0.950 . S
C971 C968 1.387 . S
C972 C973 1.387 . S
C972 H976 0.950 . S
C972 C981 1.390 . S
C973 C972 1.387 . S
C973 C975 1.387 . S
H974 C981 0.950 . S
C975 C973 1.387 . S
C975 C977 1.390 . S
C975 H979 0.950 . S
H976 C972 0.950 . S
C977 C975 1.390 . S
C977 C978 1.387 . S
C977 H980 0.950 . S
C978 C977 1.387 . S
C978 C981 1.387 . S
H979 C975 0.950 . S
H980 C977 0.950 . S
C981 C972 1.390 . S
C981 H974 0.950 . S
C981 C978 1.387 . S
C982 C983 1.387 . S
C982 H986 0.950 . S
C982 C991 1.390 . S
C983 C982 1.387 . S
C983 C985 1.387 . S
H984 C991 0.950 . S
C985 C983 1.387 . S
C985 C987 1.390 . S
C985 H989 0.950 . S
H986 C982 0.950 . S
C987 C985 1.390 . S
C987 C988 1.387 . S
C987 H990 0.950 . S
C988 C987 1.387 . S
C988 C991 1.387 . S
H989 C985 0.950 . S
H990 C987 0.950 . S
C991 C982 1.390 . S
C991 H984 0.950 . S
C991 C988 1.387 . S
C513 C98 1.456 . S
C518 N18 1.398 . S
C523 C4 1.521 . S
C528 C38 1.539 . S
C533 N77 1.434 . S
C538 C34 1.613 . S
C543 C102 1.745 . S
C548 C66 1.757 . S
C553 C157 1.604 . S
C558 C164 1.552 . S
C563 N178 0.230 . S
C568 N205 0.457 . S
C573 C196 1.806 . S
C578 C226 1.800 . S
C583 N146 0.666 . S
C588 N237 0.771 . S
C593 C317 1.626 . S
C598 C29 1.622 . S
C603 C349 1.704 . S
C608 N50 1.530 . S
C613 C70 1.572 . S
C618 C422 1.579 . S
C623 C285 1.713 . S
C628 N114 1.534 . S
C633 N365 1.536 . S
C638 C132 1.714 . S
C643 C477 1.622 . S
C648 C189 1.625 . S
C653 C221 1.704 . S
C658 N402 1.530 . S
C663 C486 1.572 . S
C668 C230 1.579 . S
C673 N269 0.669 . S
C678 N429 0.773 . S
C683 C292 1.551 . S
C688 C260 1.604 . S
C693 N333 0.457 . S
C698 N306 0.230 . S
C703 N466 1.401 . S
C708 C358 1.455 . S
C713 C386 1.612 . S
C718 N493 1.433 . S
C723 C356 1.628 . S
C728 N13 1.527 . S
C733 C388 1.625 . S
C738 C6 1.614 . S
C743 C413 1.596 . S
C748 N82 1.478 . S
C753 C93 1.889 . S
C758 C381 1.893 . S
C763 C294 1.591 . S
C768 C130 1.601 . S
C773 N301 0.410 . S
C778 N210 0.518 . S
C783 C445 1.839 . S
C788 C198 1.838 . S
C793 N141 0.681 . S
C798 N434 0.757 . S
C803 C162 1.883 . S
C808 C2 1.887 . S
C813 C322 1.694 . S
C818 N397 1.575 . S
C823 C68 1.503 . S
C828 C228 1.498 . S
C833 C258 1.716 . S
C838 N370 1.597 . S
C843 N109 1.597 . S
C848 C134 1.717 . S
C853 C290 1.883 . S
C858 C450 1.886 . S
C863 C194 1.693 . S
C868 N45 1.574 . S
C873 C484 1.502 . S
C878 C420 1.497 . S
C883 N274 0.671 . S
C888 N242 0.754 . S
C893 C262 1.601 . S
C898 C166 1.590 . S
C903 N338 0.510 . S
C908 N173 0.412 . S
C913 C125 1.627 . S
C918 N461 1.530 . S
C923 C61 1.595 . S
C928 N498 1.478 . S
C933 C390 1.537 . S
C938 C452 1.519 . S
C943 C354 1.746 . S
C948 C482 1.759 . S
C953 C324 1.806 . S
C958 C418 1.800 . S
C963 C454 1.617 . S
C968 C36 1.627 . S
C973 C100 1.893 . S
C978 C509 1.888 . S
C983 C253 1.838 . S
C988 C326 1.837 . S
