# Generated by pormake.
# Topology pcb, (4)-cn, num edge types: 1
# Building blocks:
#     Node 0, Type 0, BuildingBlock: QUQFOY_clean_sbu_3, # of connection points: 4
#     Node 1, Type 0, BuildingBlock: QUQFOY_clean_sbu_3, # of connection points: 4
#     Node 2, Type 0, BuildingBlock: QUQFOY_clean_sbu_3, # of connection points: 4
#     Node 3, Type 0, BuildingBlock: QUQFOY_clean_sbu_3, # of connection points: 4
#     Node 4, Type 0, BuildingBlock: QUQFOY_clean_sbu_3, # of connection points: 4
#     Node 5, Type 0, BuildingBlock: QUQFOY_clean_sbu_3, # of connection points: 4
#     Node 6, Type 0, BuildingBlock: QUQFOY_clean_sbu_3, # of connection points: 4
#     Node 7, Type 0, BuildingBlock: QUQFOY_clean_sbu_3, # of connection points: 4
#     Node 8, Type 0, BuildingBlock: QUQFOY_clean_sbu_3, # of connection points: 4
#     Node 9, Type 0, BuildingBlock: QUQFOY_clean_sbu_3, # of connection points: 4
#     Node 10, Type 0, BuildingBlock: QUQFOY_clean_sbu_3, # of connection points: 4
#     Node 11, Type 0, BuildingBlock: QUQFOY_clean_sbu_3, # of connection points: 4
#     Node 12, Type 0, BuildingBlock: QUQFOY_clean_sbu_3, # of connection points: 4
#     Node 13, Type 0, BuildingBlock: QUQFOY_clean_sbu_3, # of connection points: 4
#     Node 14, Type 0, BuildingBlock: QUQFOY_clean_sbu_3, # of connection points: 4
#     Node 15, Type 0, BuildingBlock: QUQFOY_clean_sbu_3, # of connection points: 4
#     Edge 16, Type (0, 0), BuildingBlock: KIFKEQ_clean_linker_1, # of connection points: 2
#     Edge 17, Type (0, 0), BuildingBlock: KIFKEQ_clean_linker_1, # of connection points: 2
#     Edge 18, Type (0, 0), BuildingBlock: KIFKEQ_clean_linker_1, # of connection points: 2
#     Edge 19, Type (0, 0), BuildingBlock: KIFKEQ_clean_linker_1, # of connection points: 2
#     Edge 20, Type (0, 0), BuildingBlock: KIFKEQ_clean_linker_1, # of connection points: 2
#     Edge 21, Type (0, 0), BuildingBlock: KIFKEQ_clean_linker_1, # of connection points: 2
#     Edge 22, Type (0, 0), BuildingBlock: KIFKEQ_clean_linker_1, # of connection points: 2
#     Edge 23, Type (0, 0), BuildingBlock: KIFKEQ_clean_linker_1, # of connection points: 2
#     Edge 24, Type (0, 0), BuildingBlock: KIFKEQ_clean_linker_1, # of connection points: 2
#     Edge 25, Type (0, 0), BuildingBlock: KIFKEQ_clean_linker_1, # of connection points: 2
#     Edge 26, Type (0, 0), BuildingBlock: KIFKEQ_clean_linker_1, # of connection points: 2
#     Edge 27, Type (0, 0), BuildingBlock: KIFKEQ_clean_linker_1, # of connection points: 2
#     Edge 28, Type (0, 0), BuildingBlock: KIFKEQ_clean_linker_1, # of connection points: 2
#     Edge 29, Type (0, 0), BuildingBlock: KIFKEQ_clean_linker_1, # of connection points: 2
#     Edge 30, Type (0, 0), BuildingBlock: KIFKEQ_clean_linker_1, # of connection points: 2
#     Edge 31, Type (0, 0), BuildingBlock: KIFKEQ_clean_linker_1, # of connection points: 2
#     Edge 32, Type (0, 0), BuildingBlock: KIFKEQ_clean_linker_1, # of connection points: 2
#     Edge 33, Type (0, 0), BuildingBlock: KIFKEQ_clean_linker_1, # of connection points: 2
#     Edge 34, Type (0, 0), BuildingBlock: KIFKEQ_clean_linker_1, # of connection points: 2
#     Edge 35, Type (0, 0), BuildingBlock: KIFKEQ_clean_linker_1, # of connection points: 2
#     Edge 36, Type (0, 0), BuildingBlock: KIFKEQ_clean_linker_1, # of connection points: 2
#     Edge 37, Type (0, 0), BuildingBlock: KIFKEQ_clean_linker_1, # of connection points: 2
#     Edge 38, Type (0, 0), BuildingBlock: KIFKEQ_clean_linker_1, # of connection points: 2
#     Edge 39, Type (0, 0), BuildingBlock: KIFKEQ_clean_linker_1, # of connection points: 2
#     Edge 40, Type (0, 0), BuildingBlock: KIFKEQ_clean_linker_1, # of connection points: 2
#     Edge 41, Type (0, 0), BuildingBlock: KIFKEQ_clean_linker_1, # of connection points: 2
#     Edge 42, Type (0, 0), BuildingBlock: KIFKEQ_clean_linker_1, # of connection points: 2
#     Edge 43, Type (0, 0), BuildingBlock: KIFKEQ_clean_linker_1, # of connection points: 2
#     Edge 44, Type (0, 0), BuildingBlock: KIFKEQ_clean_linker_1, # of connection points: 2
#     Edge 45, Type (0, 0), BuildingBlock: KIFKEQ_clean_linker_1, # of connection points: 2
#     Edge 46, Type (0, 0), BuildingBlock: KIFKEQ_clean_linker_1, # of connection points: 2
#     Edge 47, Type (0, 0), BuildingBlock: KIFKEQ_clean_linker_1, # of connection points: 2
# Relax obj value: 0.313
# Max RMSD: 0.170
# Mean RMSD: 0.170
data_MOF--net-pcb--node1-QUQFOY_clean_sbu_3--edge1-KIFKEQ_clean_linker_1
_symmetry_space_group_name_H-M    P1
_symmetry_Int_Tables_number       1
_symmetry_cell_setting            triclinic
loop_
_symmetry_equiv_pos_as_xyz
'x, y, z'
_cell_length_a     41.788777
_cell_length_b     51.255112
_cell_length_c     51.334587
_cell_angle_alpha  90.036626
_cell_angle_beta   90.130069
_cell_angle_gamma 89.960258
loop_
_atom_site_label
_atom_site_type_symbol
_atom_site_fract_x
_atom_site_fract_y
_atom_site_fract_z
_atom_type_partial_charge
C0 C 0.10356 0.08487 0.15065 0.0
O1 O 0.11194 0.06364 0.13987 0.0
Cd2 Cd 0.16525 0.04891 0.13293 0.0
O3 O 0.12448 0.10049 0.15989 0.0
Cd4 Cd 0.18428 0.10047 0.16399 0.0
C5 C 0.19477 0.10131 0.09868 0.0
O6 O 0.19139 0.05508 0.17355 0.0
O7 O 0.23418 0.07382 0.1603 0.0
O8 O 0.18906 0.11611 0.20881 0.0
C9 C 0.22102 0.05332 0.16906 0.0
O10 O 0.1877 0.07712 0.09885 0.0
C11 C 0.20048 0.13817 0.20259 0.0
O12 O 0.19343 0.11479 0.11947 0.0
O13 O 0.2042 0.14274 0.1785 0.0
C14 C 0.88061 0.12994 0.0964 0.0
O15 O 0.87373 0.11961 0.0746 0.0
Cd16 Cd 0.8242 0.12132 0.05197 0.0
O17 O 0.85986 0.14341 0.10875 0.0
Cd18 Cd 0.80245 0.15591 0.10075 0.0
C19 C 0.77907 0.09239 0.09945 0.0
O20 O 0.80812 0.16568 0.05533 0.0
O21 O 0.75945 0.16037 0.067 0.0
O22 O 0.80734 0.19962 0.11991 0.0
C23 C 0.77894 0.16622 0.04902 0.0
O24 O 0.7899 0.09124 0.0763 0.0
C25 C 0.78645 0.19571 0.13742 0.0
O26 O 0.78245 0.113 0.11303 0.0
O27 O 0.7732 0.17344 0.13774 0.0
C28 C 0.89057 0.88387 0.1535 0.0
O29 O 0.88286 0.90544 0.14307 0.0
Cd30 Cd 0.83016 0.9214 0.13563 0.0
O31 O 0.86914 0.8684 0.16213 0.0
Cd32 Cd 0.8092 0.87009 0.16575 0.0
C33 C 0.7995 0.87006 0.10041 0.0
O34 O 0.80377 0.91567 0.17611 0.0
O35 O 0.7603 0.89796 0.16295 0.0
O36 O 0.80831 0.85124 0.20948 0.0
C37 C 0.77419 0.91814 0.17171 0.0
O38 O 0.80675 0.89421 0.10103 0.0
C39 C 0.79059 0.8321 0.2032 0.0
O40 O 0.80089 0.85622 0.12095 0.0
O41 O 0.78195 0.83062 0.17953 0.0
C42 C 0.11444 0.83973 0.10257 0.0
O43 O 0.12054 0.84934 0.08034 0.0
Cd44 Cd 0.16876 0.84671 0.05638 0.0
O45 O 0.13561 0.82658 0.1149 0.0
Cd46 Cd 0.19288 0.81386 0.10557 0.0
C47 C 0.21579 0.87732 0.10175 0.0
O48 O 0.18406 0.80229 0.06079 0.0
O49 O 0.23338 0.80781 0.0702 0.0
O50 O 0.18659 0.77246 0.12908 0.0
C51 C 0.21272 0.80146 0.05323 0.0
O52 O 0.20424 0.87751 0.07876 0.0
C53 C 0.21197 0.77515 0.14251 0.0
O54 O 0.21281 0.8573 0.11621 0.0
O55 O 0.22805 0.79581 0.1388 0.0
C56 C 0.10252 0.88093 0.81858 0.0
O57 O 0.10986 0.90241 0.82937 0.0
Cd58 Cd 0.16223 0.91825 0.83797 0.0
O59 O 0.12422 0.86547 0.8103 0.0
Cd60 Cd 0.18437 0.86784 0.80796 0.0
C61 C 0.19297 0.8671 0.87329 0.0
O62 O 0.18908 0.91344 0.79752 0.0
O63 O 0.23244 0.89662 0.81198 0.0
O64 O 0.18734 0.84915 0.76415 0.0
C65 C 0.21845 0.91639 0.80244 0.0
O66 O 0.18542 0.8912 0.87282 0.0
C67 C 0.20557 0.83043 0.77075 0.0
O68 O 0.19205 0.85346 0.8526 0.0
O69 O 0.21338 0.82904 0.79461 0.0
C70 C 0.10395 0.12948 0.86818 0.0
O71 O 0.11006 0.11947 0.89027 0.0
Cd72 Cd 0.15831 0.12197 0.91455 0.0
O73 O 0.12504 0.14298 0.85627 0.0
Cd74 Cd 0.18209 0.15582 0.86608 0.0
C75 C 0.2059 0.09256 0.86897 0.0
O76 O 0.17365 0.16647 0.91127 0.0
O77 O 0.22289 0.16186 0.90116 0.0
O78 O 0.17498 0.19727 0.84279 0.0
C79 C 0.20249 0.16755 0.91849 0.0
O80 O 0.19438 0.09194 0.89192 0.0
C81 C 0.20074 0.19516 0.82986 0.0
O82 O 0.20251 0.11272 0.85475 0.0
O83 O 0.21733 0.17477 0.83366 0.0
C84 C 0.88025 0.08691 0.81493 0.0
O85 O 0.87224 0.06555 0.8256 0.0
Cd86 Cd 0.81935 0.05016 0.83313 0.0
O87 O 0.85903 0.10257 0.80617 0.0
Cd88 Cd 0.79899 0.10205 0.80304 0.0
C89 C 0.78866 0.10149 0.86846 0.0
O90 O 0.79237 0.05668 0.79298 0.0
O91 O 0.74958 0.07495 0.8069 0.0
O92 O 0.79183 0.11807 0.75855 0.0
C93 C 0.76287 0.05462 0.79784 0.0
O94 O 0.79649 0.07745 0.86783 0.0
C95 C 0.78061 0.14004 0.76538 0.0
O96 O 0.78956 0.11535 0.84791 0.0
O97 O 0.7783 0.14443 0.78962 0.0
C98 C 0.87675 0.84371 0.86697 0.0
O99 O 0.87094 0.85456 0.88869 0.0
Cd100 Cd 0.82341 0.85216 0.91365 0.0
O101 O 0.85557 0.82964 0.85573 0.0
Cd102 Cd 0.79859 0.81736 0.86651 0.0
C103 C 0.77444 0.88062 0.8685 0.0
O104 O 0.80913 0.80728 0.91148 0.0
O105 O 0.7594 0.81164 0.90286 0.0
O106 O 0.80512 0.77576 0.84334 0.0
C107 C 0.78071 0.80604 0.91955 0.0
O108 O 0.78642 0.88172 0.89131 0.0
C109 C 0.77887 0.77761 0.83093 0.0
O110 O 0.77771 0.8602 0.85462 0.0
O111 O 0.76215 0.79785 0.83508 0.0
C112 C 0.6112 0.59912 0.63586 0.0
O113 O 0.61882 0.57701 0.62656 0.0
Cd114 Cd 0.66906 0.55569 0.6285 0.0
O115 O 0.63175 0.61278 0.64833 0.0
Cd116 Cd 0.68992 0.60631 0.6605 0.0
C117 C 0.71234 0.60294 0.59716 0.0
O118 O 0.68534 0.56114 0.67251 0.0
O119 O 0.73349 0.57324 0.66583 0.0
O120 O 0.68294 0.6298 0.70184 0.0
C121 C 0.71462 0.55517 0.67269 0.0
O122 O 0.70239 0.57945 0.59726 0.0
C123 C 0.7074 0.64419 0.69877 0.0
O124 O 0.7085 0.61753 0.61698 0.0
O125 O 0.72315 0.6411 0.6779 0.0
C126 C 0.38504 0.64592 0.5896 0.0
O127 O 0.37672 0.63512 0.56837 0.0
Cd128 Cd 0.32373 0.63034 0.55198 0.0
O129 O 0.36411 0.65614 0.60456 0.0
Cd130 Cd 0.30436 0.66195 0.60216 0.0
C131 C 0.28965 0.59704 0.60265 0.0
O132 O 0.30034 0.67246 0.55653 0.0
O133 O 0.25579 0.66136 0.57374 0.0
O134 O 0.30452 0.7058 0.62121 0.0
C135 C 0.2705 0.6697 0.55384 0.0
O136 O 0.29744 0.59685 0.57866 0.0
C137 C 0.28658 0.69968 0.6402 0.0
O138 O 0.29232 0.61777 0.61611 0.0
O139 O 0.27746 0.67612 0.64148 0.0
C140 C 0.37815 0.37821 0.64962 0.0
O141 O 0.37199 0.40071 0.64055 0.0
Cd142 Cd 0.32129 0.42078 0.63622 0.0
O143 O 0.35583 0.36385 0.65875 0.0
Cd144 Cd 0.2964 0.36952 0.66568 0.0
C145 C 0.28505 0.3721 0.60049 0.0
O146 O 0.29827 0.41467 0.67791 0.0
O147 O 0.25171 0.40208 0.6663 0.0
O148 O 0.29965 0.34618 0.70725 0.0
C149 C 0.26916 0.4204 0.67487 0.0
O150 O 0.29459 0.3957 0.60162 0.0
C151 C 0.27571 0.3316 0.70267 0.0
O152 O 0.28537 0.35771 0.62069 0.0
O153 O 0.26173 0.3346 0.6809 0.0
C154 C 0.5992 0.33118 0.59427 0.0
O155 O 0.60601 0.3431 0.57333 0.0
Cd156 Cd 0.65716 0.34718 0.55362 0.0
O157 O 0.62099 0.31949 0.60726 0.0
Cd158 Cd 0.68022 0.31351 0.60166 0.0
C159 C 0.69672 0.37824 0.60318 0.0
O160 O 0.67971 0.30462 0.55577 0.0
O161 O 0.72584 0.31569 0.57031 0.0
O162 O 0.68583 0.26826 0.61641 0.0
C163 C 0.70914 0.30767 0.55124 0.0
O164 O 0.68674 0.37928 0.57973 0.0
C165 C 0.70032 0.27417 0.63735 0.0
O166 O 0.69493 0.35712 0.6161 0.0
O167 O 0.70524 0.2982 0.64167 0.0
C168 C 0.60498 0.36474 0.31658 0.0
O169 O 0.60541 0.38773 0.32581 0.0
Cd170 Cd 0.65215 0.413 0.33434 0.0
O171 O 0.63072 0.35357 0.30919 0.0
Cd172 Cd 0.68857 0.36581 0.30472 0.0
C173 C 0.69594 0.36834 0.3703 0.0
O174 O 0.68138 0.41131 0.29493 0.0
O175 O 0.72894 0.40146 0.30707 0.0
O176 O 0.69366 0.34759 0.26086 0.0
C177 C 0.7096 0.41894 0.29939 0.0
O178 O 0.68122 0.39013 0.36933 0.0
C179 C 0.71482 0.3309 0.26707 0.0
O180 O 0.70004 0.35473 0.34983 0.0
O181 O 0.72391 0.33066 0.29069 0.0
C182 C 0.60661 0.65727 0.38459 0.0
O183 O 0.61294 0.64641 0.40622 0.0
Cd184 Cd 0.66465 0.63542 0.42216 0.0
O185 O 0.629 0.66434 0.36926 0.0
Cd186 Cd 0.68912 0.66465 0.37172 0.0
C187 C 0.69348 0.59885 0.37107 0.0
O188 O 0.6939 0.67482 0.41727 0.0
O189 O 0.73701 0.65975 0.40064 0.0
O190 O 0.69298 0.70842 0.35319 0.0
C191 C 0.7231 0.66934 0.42038 0.0
O192 O 0.68543 0.59961 0.395 0.0
C193 C 0.71092 0.70166 0.33442 0.0
O194 O 0.69441 0.61962 0.35755 0.0
O195 O 0.7184 0.67771 0.33298 0.0
C196 C 0.38157 0.6122 0.3458 0.0
O197 O 0.37667 0.59041 0.35687 0.0
Cd198 Cd 0.33217 0.56227 0.35249 0.0
O199 O 0.3607 0.62207 0.33043 0.0
Cd200 Cd 0.30525 0.60851 0.316 0.0
C201 C 0.27845 0.60507 0.37858 0.0
O202 O 0.32171 0.5649 0.30712 0.0
O203 O 0.27094 0.56901 0.30687 0.0
O204 O 0.31255 0.63283 0.27525 0.0
C205 C 0.29493 0.55424 0.30357 0.0
O206 O 0.29192 0.58283 0.38023 0.0
C207 C 0.28508 0.64349 0.2759 0.0
O208 O 0.2816 0.61898 0.35821 0.0
O209 O 0.26731 0.6378 0.29508 0.0
C210 C 0.39272 0.30997 0.37166 0.0
O211 O 0.39238 0.31898 0.39469 0.0
Cd212 Cd 0.34513 0.33308 0.41649 0.0
O213 O 0.36666 0.30538 0.35949 0.0
Cd214 Cd 0.30773 0.30618 0.36864 0.0
C215 C 0.31054 0.37188 0.36866 0.0
O216 O 0.30905 0.29736 0.41463 0.0
O217 O 0.26479 0.31383 0.40102 0.0
O218 O 0.29475 0.26217 0.35378 0.0
C219 C 0.2809 0.30471 0.41993 0.0
O220 O 0.3253 0.37 0.39036 0.0
C221 C 0.27973 0.26966 0.33361 0.0
O222 O 0.30195 0.3516 0.35618 0.0
O223 O 0.27753 0.29406 0.32984 0.0
H224 H 0.27459 0.27512 0.28124 0.0
H225 H 0.25456 0.22191 0.34416 0.0
H226 H 0.25502 0.24331 0.24997 0.0
H227 H 0.2322 0.19073 0.31331 0.0
H228 H 0.22505 0.12873 0.25067 0.0
H229 H 0.24374 0.16053 0.28239 0.0
H230 H 0.2126 0.223 0.23144 0.0
H231 H 0.19671 0.19092 0.19898 0.0
C232 C 0.26536 0.25671 0.28835 0.0
C233 C 0.26615 0.25084 0.31499 0.0
C234 C 0.25381 0.23847 0.27046 0.0
C235 C 0.24179 0.21422 0.2789 0.0
C236 C 0.24191 0.20878 0.30582 0.0
C237 C 0.25445 0.22673 0.32361 0.0
C238 C 0.22228 0.14931 0.2464 0.0
C239 C 0.20968 0.15747 0.22243 0.0
C240 C 0.23273 0.16764 0.26467 0.0
C241 C 0.22987 0.19459 0.25969 0.0
C242 C 0.21617 0.20256 0.23586 0.0
C243 C 0.20671 0.1842 0.21728 0.0
H244 H 0.70928 0.33255 0.21404 0.0
H245 H 0.74913 0.28672 0.27688 0.0
H246 H 0.72864 0.30033 0.18259 0.0
H247 H 0.76809 0.25445 0.24542 0.0
H248 H 0.75401 0.18925 0.18288 0.0
H249 H 0.73866 0.22276 0.21429 0.0
H250 H 0.7833 0.28161 0.16651 0.0
H251 H 0.79911 0.248 0.1351 0.0
C252 C 0.72226 0.31567 0.22111 0.0
C253 C 0.72762 0.3121 0.24791 0.0
C254 C 0.73345 0.29734 0.20311 0.0
C255 C 0.74975 0.27493 0.21164 0.0
C256 C 0.75539 0.2715 0.23839 0.0
C257 C 0.74465 0.29 0.25635 0.0
C258 C 0.76065 0.20932 0.1791 0.0
C259 C 0.77773 0.21603 0.15654 0.0
C260 C 0.75201 0.22845 0.19714 0.0
C261 C 0.75985 0.25471 0.19278 0.0
C262 C 0.77686 0.26149 0.17021 0.0
C263 C 0.78599 0.24227 0.15235 0.0
H264 H 0.798 0.83391 0.25607 0.0
H265 H 0.75895 0.78653 0.19399 0.0
H266 H 0.77897 0.80221 0.28803 0.0
H267 H 0.73995 0.75497 0.22594 0.0
H268 H 0.74339 0.69169 0.28949 0.0
H269 H 0.76348 0.72321 0.25792 0.0
H270 H 0.7255 0.78625 0.3044 0.0
H271 H 0.70541 0.75474 0.33608 0.0
C272 C 0.78546 0.81671 0.24926 0.0
C273 C 0.77995 0.81269 0.22254 0.0
C274 C 0.77442 0.79868 0.26754 0.0
C275 C 0.75797 0.77619 0.25943 0.0
C276 C 0.75281 0.77204 0.23271 0.0
C277 C 0.76357 0.79016 0.21445 0.0
C278 C 0.73931 0.71227 0.29298 0.0
C279 C 0.7228 0.72076 0.31524 0.0
C280 C 0.7507 0.73028 0.27485 0.0
C281 C 0.74605 0.75714 0.27875 0.0
C282 C 0.72968 0.76565 0.30107 0.0
C283 C 0.71802 0.74762 0.31909 0.0
H284 H 0.31987 0.66349 0.2355 0.0
H285 H 0.2258 0.66507 0.27027 0.0
H286 H 0.30201 0.69463 0.20248 0.0
H287 H 0.20809 0.69625 0.23739 0.0
H288 H 0.17995 0.73131 0.15808 0.0
H289 H 0.19772 0.69859 0.18958 0.0
H290 H 0.28559 0.74137 0.2013 0.0
H291 H 0.268 0.77395 0.1698 0.0
C292 C 0.29539 0.67043 0.23606 0.0
C293 C 0.27426 0.66187 0.2555 0.0
C294 C 0.28522 0.68834 0.21724 0.0
C295 C 0.25367 0.69788 0.21738 0.0
C296 C 0.23245 0.68904 0.23662 0.0
C297 C 0.24267 0.6713 0.25554 0.0
C298 C 0.20307 0.73369 0.16736 0.0
C299 C 0.22255 0.75522 0.16148 0.0
C300 C 0.21317 0.71502 0.18546 0.0
C301 C 0.24306 0.71741 0.19786 0.0
C302 C 0.26261 0.73884 0.19183 0.0
C303 C 0.25242 0.75759 0.17391 0.0
H304 H 0.29394 0.75267 0.63855 0.0
H305 H 0.25527 0.69043 0.6857 0.0
H306 H 0.27467 0.78465 0.67024 0.0
H307 H 0.23606 0.72235 0.71723 0.0
H308 H 0.23868 0.78568 0.78054 0.0
H309 H 0.25942 0.7544 0.74899 0.0
H310 H 0.22075 0.80078 0.68616 0.0
H311 H 0.19997 0.83221 0.71773 0.0
C312 C 0.28147 0.74583 0.65571 0.0
C313 C 0.2761 0.71907 0.65966 0.0
C314 C 0.27028 0.76412 0.67373 0.0
C315 C 0.25386 0.75594 0.69613 0.0
C316 C 0.24889 0.72917 0.70023 0.0
C317 C 0.25978 0.71092 0.68212 0.0
C318 C 0.23456 0.78921 0.76 0.0
C319 C 0.21763 0.81136 0.75159 0.0
C320 C 0.24635 0.77125 0.74197 0.0
C321 C 0.24169 0.77521 0.71517 0.0
C322 C 0.22493 0.79742 0.70672 0.0
C323 C 0.21286 0.81528 0.72478 0.0
H324 H 0.16635 0.23665 0.81129 0.0
H325 H 0.25914 0.19964 0.80684 0.0
H326 H 0.18434 0.27022 0.78078 0.0
H327 H 0.27703 0.23322 0.77654 0.0
H328 H 0.30628 0.31481 0.74669 0.0
H329 H 0.28772 0.28214 0.77787 0.0
H330 H 0.20117 0.27181 0.73296 0.0
H331 H 0.2197 0.30434 0.7017 0.0
C332 C 0.19055 0.23571 0.80384 0.0
C333 C 0.21133 0.21552 0.81143 0.0
C334 C 0.20078 0.25484 0.78632 0.0
C335 C 0.23209 0.25431 0.77638 0.0
C336 C 0.25288 0.23423 0.78411 0.0
C337 C 0.24255 0.21494 0.80133 0.0
C338 C 0.28328 0.30559 0.7435 0.0
C339 C 0.26447 0.31208 0.72173 0.0
C340 C 0.27274 0.28684 0.76127 0.0
C341 C 0.24303 0.27449 0.75779 0.0
C342 C 0.22405 0.28121 0.73621 0.0
C343 C 0.23476 0.2997 0.71826 0.0
H344 H 0.78363 0.19277 0.76942 0.0
H345 H 0.75356 0.13077 0.7181 0.0
H346 H 0.76558 0.22496 0.73789 0.0
H347 H 0.73278 0.1627 0.68736 0.0
H348 H 0.72184 0.22538 0.62609 0.0
H349 H 0.74309 0.19316 0.65636 0.0
H350 H 0.72227 0.24525 0.72065 0.0
H351 H 0.7038 0.27804 0.68994 0.0
C352 C 0.77277 0.18612 0.75142 0.0
C353 C 0.77 0.15941 0.74608 0.0
C354 C 0.76204 0.20454 0.73339 0.0
C355 C 0.74727 0.19666 0.70995 0.0
C356 C 0.74453 0.16973 0.7048 0.0
C357 C 0.75622 0.15134 0.7225 0.0
C358 C 0.72194 0.22979 0.64674 0.0
C359 C 0.71137 0.25412 0.65576 0.0
C360 C 0.7339 0.21127 0.6642 0.0
C361 C 0.73462 0.2164 0.69118 0.0
C362 C 0.72312 0.24067 0.70008 0.0
C363 C 0.71215 0.25945 0.68253 0.0
H364 H 0.72036 0.7732 0.80775 0.0
H365 H 0.81319 0.73624 0.81219 0.0
H366 H 0.70285 0.74034 0.7764 0.0
H367 H 0.79559 0.70336 0.78074 0.0
H368 H 0.76317 0.67164 0.70035 0.0
H369 H 0.78032 0.70321 0.73308 0.0
H370 H 0.69186 0.69179 0.77485 0.0
H371 H 0.6746 0.66009 0.74206 0.0
C372 C 0.737 0.75802 0.80208 0.0
C373 C 0.76819 0.75733 0.81238 0.0
C374 C 0.72689 0.73914 0.78425 0.0
C375 C 0.74786 0.71933 0.77615 0.0
C376 C 0.77902 0.71856 0.78651 0.0
C377 C 0.78903 0.73729 0.80457 0.0
C378 C 0.74736 0.67585 0.7165 0.0
C379 C 0.71751 0.66341 0.71862 0.0
C380 C 0.75729 0.69379 0.73532 0.0
C381 C 0.73746 0.69988 0.75652 0.0
C382 C 0.70753 0.68756 0.7586 0.0
C383 C 0.69772 0.66937 0.7399 0.0
H384 H 0.16746 0.18579 0.959 0.0
H385 H 0.25387 0.14322 0.94103 0.0
H386 H 0.1723 0.17297 0.00457 0.0
H387 H 0.25855 0.13018 -0.01327 0.0
H388 H 0.19668 0.1536 0.08812 0.0
H389 H 0.20593 0.17444 0.04599 0.0
H390 H 0.22147 0.09889 0.01101 0.0
H391 H 0.2121 0.07799 0.05296 0.0
C392 C 0.18799 0.17433 0.96497 0.0
C393 C 0.21013 0.16534 0.94648 0.0
C394 C 0.19081 0.16703 -0.00893 0.0
C395 C 0.2156 0.15034 -0.00092 0.0
C396 C 0.23905 0.14288 0.98096 0.0
C397 C 0.23649 0.15051 0.95488 0.0
C398 C 0.2025 0.14145 0.07152 0.0
C399 C 0.20334 0.11411 0.07382 0.0
C400 C 0.20777 0.15341 0.04744 0.0
C401 C 0.21446 0.13829 0.02529 0.0
C402 C 0.21675 0.11105 0.02783 0.0
C403 C 0.21107 0.09908 0.05181 0.0
H404 H 0.77412 0.07699 0.91422 0.0
H405 H 0.78225 0.1535 0.87946 0.0
H406 H 0.76341 0.09705 0.95637 0.0
H407 H 0.77153 0.1735 0.92176 0.0
H408 H 0.81015 0.1873 0.008 0.0
H409 H 0.80531 0.17439 0.96247 0.0
H410 H 0.72469 0.12546 0.98177 0.0
H411 H 0.72946 0.13857 0.0275 0.0
C412 C 0.77327 0.09808 0.91549 0.0
C413 C 0.77941 0.11363 0.89353 0.0
C414 C 0.76679 0.10956 0.9396 0.0
C415 C 0.7666 0.13685 0.94233 0.0
C416 C 0.77163 0.15242 0.92021 0.0
C417 C 0.77777 0.14094 0.89602 0.0
C418 C 0.79074 0.17446 0.00236 0.0
C419 C 0.77031 0.16382 0.02125 0.0
C420 C 0.78792 0.1671 0.97629 0.0
C421 C 0.76485 0.14869 0.96865 0.0
C422 C 0.74288 0.1395 -0.01278 0.0
C423 C 0.74542 0.14718 0.01331 0.0
H424 H 0.81708 0.78641 0.95863 0.0
H425 H 0.73164 0.83155 0.94395 0.0
H426 H 0.81537 0.79895 0.00444 0.0
H427 H 0.7301 0.84432 -0.01011 0.0
H428 H 0.7959 0.81799 0.08901 0.0
H429 H 0.78404 0.79795 0.04687 0.0
H430 H 0.76977 0.8743 0.01332 0.0
H431 H 0.78173 0.8944 0.05529 0.0
C432 C 0.79739 0.79838 0.96541 0.0
C433 C 0.77462 0.80813 0.94776 0.0
C434 C 0.79638 0.80553 -0.00838 0.0
C435 C 0.77281 0.82285 0.00061 0.0
C436 C 0.74869 0.83113 0.98336 0.0
C437 C 0.74942 0.82364 0.95715 0.0
C438 C 0.78988 0.8305 0.07272 0.0
C439 C 0.79007 0.85782 0.07543 0.0
C440 C 0.7831 0.819 0.04863 0.0
C441 C 0.7759 0.83456 0.02689 0.0
C442 C 0.77483 0.86181 0.02984 0.0
C443 C 0.78201 0.87332 0.05382 0.0
H444 H 0.26098 0.82853 0.02954 0.0
H445 H 0.17828 0.78058 0.01365 0.0
H446 H 0.26238 0.84182 0.98378 0.0
H447 H 0.17981 0.79367 0.96801 0.0
H448 H 0.20902 0.89119 0.919 0.0
H449 H 0.22158 0.87075 0.96067 0.0
H450 H 0.211 0.7946 0.92572 0.0
H451 H 0.1985 0.81498 0.8839 0.0
C452 C 0.24384 0.8201 0.0161 0.0
C453 C 0.21936 0.80366 0.02511 0.0
C454 C 0.24446 0.8279 -0.01001 0.0
C455 C 0.22096 0.81903 0.97246 0.0
C456 C 0.1983 0.80075 0.98104 0.0
C457 C 0.1974 0.79326 0.00716 0.0
C458 C 0.20965 0.87009 0.92011 0.0
C459 C 0.20246 0.85472 0.89819 0.0
C460 C 0.21719 0.85839 0.94392 0.0
C461 C 0.21738 0.83108 0.94638 0.0
C462 C 0.21098 0.81569 0.92435 0.0
C463 C 0.20382 0.82739 0.90044 0.0
H464 H 0.05293 0.05239 0.1439 0.0
H465 H 0.0766 0.13355 0.15611 0.0
H466 H -0.00227 0.06436 0.13493 0.0
H467 H 0.02091 0.14558 0.14671 0.0
H468 H 0.90765 0.1505 0.14111 0.0
H469 H 0.96061 0.14024 0.15947 0.0
H470 H 0.9786 0.08806 0.0951 0.0
H471 H 0.9266 0.09802 0.07694 0.0
C472 C 0.04625 0.07278 0.14504 0.0
C473 C 0.06926 0.09207 0.15022 0.0
C474 C 0.01462 0.07963 0.13986 0.0
C475 C 0.00524 0.10593 0.1396 0.0
C476 C 0.02756 0.12515 0.14678 0.0
C477 C 0.0594 0.11826 0.15209 0.0
C478 C 0.92301 0.13688 0.13093 0.0
C479 C 0.91278 0.12501 0.10761 0.0
C480 C 0.95326 0.13108 0.14141 0.0
C481 C 0.97344 0.11306 0.1289 0.0
C482 C 0.96331 0.1016 0.10547 0.0
C483 C 0.93348 0.10751 0.09496 0.0
H484 H 0.79342 0.963 0.19476 0.0
H485 H 0.72614 0.93281 0.13836 0.0
H486 H 0.78326 0.00708 0.17938 0.0
H487 H 0.71579 0.97716 0.12292 0.0
H488 H 0.76078 0.08547 0.1502 0.0
H489 H 0.74734 0.0444 0.1715 0.0
H490 H 0.75336 0.00457 0.09751 0.0
H491 H 0.76641 0.04551 0.07615 0.0
C492 C 0.77562 0.96592 0.17966 0.0
C493 C 0.76093 0.94449 0.16752 0.0
C494 C 0.76966 -0.00879 0.1709 0.0
C495 C 0.74905 -0.00444 0.14966 0.0
C496 C 0.73209 0.97433 0.1391 0.0
C497 C 0.73784 0.94897 0.14808 0.0
C498 C 0.75854 0.06807 0.13836 0.0
C499 C 0.7653 0.06869 0.11153 0.0
C500 C 0.75085 0.04454 0.1506 0.0
C501 C 0.7496 0.02121 0.13625 0.0
C502 C 0.75386 0.02222 0.10911 0.0
C503 C 0.76167 0.04569 0.09689 0.0
H504 H 0.91697 0.83475 0.15711 0.0
H505 H 0.94163 0.91633 0.15046 0.0
H506 H 0.97309 0.82298 0.14915 0.0
H507 H -0.00281 0.90462 0.14298 0.0
H508 H 0.06976 0.87365 0.08468 0.0
H509 H 0.0175 0.88309 0.10234 0.0
H510 H 0.03329 0.82742 0.16412 0.0
H511 H 0.08661 0.81766 0.14621 0.0
C512 C 0.93444 0.85014 0.15463 0.0
C513 C 0.9248 0.87644 0.15385 0.0
C514 C 0.96653 0.8434 0.15016 0.0
C515 C 0.9893 0.86289 0.14497 0.0
C516 C 0.98001 0.88918 0.14639 0.0
C517 C 0.94816 0.89587 0.15068 0.0
C518 C 0.06237 0.86331 0.10205 0.0
C519 C 0.08252 0.8449 0.11404 0.0
C520 C 0.03239 0.86892 0.11229 0.0
C521 C 0.02148 0.85626 0.1348 0.0
C522 C 0.04122 0.83751 0.14676 0.0
C523 C 0.07168 0.83201 0.13657 0.0
H524 H 0.20534 0.00886 0.19422 0.0
H525 H 0.26705 0.03885 0.13395 0.0
H526 H 0.21579 0.9646 0.17958 0.0
H527 H 0.27778 -0.00574 0.11922 0.0
H528 H 0.22609 0.92362 0.07668 0.0
H529 H 0.23976 0.96531 0.09631 0.0
H530 H 0.25163 0.92775 0.17101 0.0
H531 H 0.23745 0.88593 0.15145 0.0
C532 C 0.22207 0.00587 0.1784 0.0
C533 C 0.23507 0.02724 0.16503 0.0
C534 C 0.22821 0.98047 0.17005 0.0
C535 C 0.24728 0.97593 0.14799 0.0
C536 C 0.26267 -0.00279 0.13609 0.0
C537 C 0.25675 0.02271 0.14465 0.0
C538 C 0.23224 0.9241 0.09718 0.0
C539 C 0.22998 0.90151 0.11259 0.0
C540 C 0.24042 0.94801 0.10841 0.0
C541 C 0.24648 0.94989 0.1353 0.0
C542 C 0.24668 0.92696 0.15031 0.0
C543 C 0.23856 0.903 0.13907 0.0
H544 H 0.91951 0.88117 0.88002 0.0
H545 H 0.90603 0.81654 0.82698 0.0
H546 H 0.9723 0.88861 0.86249 0.0
H547 H 0.95983 0.82428 0.80908 0.0
H548 H 0.05229 0.91406 0.81513 0.0
H549 H -0.00403 0.90398 0.82117 0.0
H550 H 0.01856 0.82189 0.82568 0.0
H551 H 0.07541 0.83202 0.81895 0.0
C552 C 0.92775 0.86856 0.86448 0.0
C553 C 0.90848 0.84821 0.85494 0.0
C554 C 0.95802 0.873 0.85425 0.0
C555 C 0.97011 0.85722 0.8342 0.0
C556 C 0.95104 0.83676 0.82452 0.0
C557 C 0.92029 0.83242 0.83467 0.0
C558 C 0.04523 0.89379 0.81689 0.0
C559 C 0.06828 0.87385 0.81708 0.0
C560 C 0.01297 0.88803 0.82037 0.0
C561 C 0.00297 0.86221 0.82448 0.0
C562 C 0.02561 0.84197 0.82256 0.0
C563 C 0.05811 0.84776 0.81878 0.0
H564 H 0.26461 0.93281 0.83672 0.0
H565 H 0.19955 0.9601 0.77722 0.0
H566 H 0.27326 0.97782 0.85097 0.0
H567 H 0.20795 0.0048 0.79142 0.0
H568 H 0.2188 0.04665 0.89396 0.0
H569 H 0.23401 0.00536 0.87427 0.0
H570 H 0.24212 0.04299 0.79932 0.0
H571 H 0.22645 0.08442 0.81896 0.0
C572 C 0.25308 0.94847 0.82609 0.0
C573 C 0.23105 0.94301 0.8061 0.0
C574 C 0.25783 0.97421 0.83438 0.0
C575 C 0.24092 -0.00518 0.82259 0.0
C576 C 0.2215 -0.01055 0.80086 0.0
C577 C 0.21654 0.96379 0.79277 0.0
C578 C 0.22443 0.04629 0.87338 0.0
C579 C 0.22073 0.06874 0.85795 0.0
C580 C 0.23349 0.02262 0.86212 0.0
C581 C 0.23901 0.02085 0.83517 0.0
C582 C 0.23766 0.0437 0.82008 0.0
C583 C 0.22869 0.06743 0.83137 0.0
H584 H 0.07638 0.15215 0.82466 0.0
H585 H 0.05925 0.09517 0.88514 0.0
H586 H 0.02328 0.14263 0.8061 0.0
H587 H 0.00714 0.08596 0.86685 0.0
H588 H 0.93091 0.05395 0.81811 0.0
H589 H 0.98654 0.06516 0.82619 0.0
H590 H 0.96338 0.14702 0.82013 0.0
H591 H 0.90724 0.13576 0.81156 0.0
C592 C 0.06144 0.13763 0.83393 0.0
C593 C 0.07213 0.12441 0.85636 0.0
C594 C 0.03109 0.13226 0.82337 0.0
C595 C 0.0113 0.11332 0.83485 0.0
C596 C 0.02207 0.10029 0.85725 0.0
C597 C 0.05196 0.10577 0.86786 0.0
C598 C 0.93768 0.07435 0.81802 0.0
C599 C 0.91457 0.094 0.81471 0.0
C600 C 0.96957 0.08076 0.82267 0.0
C601 C 0.97913 0.10696 0.82433 0.0
C602 C 0.95662 0.12666 0.81896 0.0
C603 C 0.92452 0.12021 0.81412 0.0
H604 H 0.75206 0.88742 0.81873 0.0
H605 H 0.76264 0.92727 0.8925 0.0
H606 H 0.73608 0.92837 0.79827 0.0
H607 H 0.74717 0.96808 0.87198 0.0
H608 H 0.71724 0.03997 0.83319 0.0
H609 H 0.70789 -0.0045 0.84869 0.0
H610 H 0.77034 0.96586 0.78856 0.0
H611 H 0.7794 0.01002 0.77312 0.0
C612 C 0.7504 0.90477 0.83071 0.0
C613 C 0.75929 0.90417 0.85715 0.0
C614 C 0.74125 0.92823 0.81896 0.0
C615 C 0.74067 0.95152 0.83341 0.0
C616 C 0.74707 0.95048 0.8603 0.0
C617 C 0.75629 0.92707 0.87203 0.0
C618 C 0.72793 0.02384 0.8227 0.0
C619 C 0.7494 0.02839 0.80218 0.0
C620 C 0.72279 -0.00159 0.83171 0.0
C621 C 0.73878 0.97721 0.82013 0.0
C622 C 0.75751 0.98168 0.79787 0.0
C623 C 0.76285 0.00702 0.78906 0.0
H624 H 0.7042 0.69453 0.46402 0.0
H625 H 0.76877 0.63463 0.43691 0.0
H626 H 0.71242 0.68029 0.50866 0.0
H627 H 0.77729 0.62036 0.48188 0.0
H628 H 0.7242 0.57771 0.55121 0.0
H629 H 0.73849 0.59721 0.5097 0.0
H630 H 0.74657 0.67264 0.5467 0.0
H631 H 0.73176 0.65321 0.58832 0.0
C632 C 0.72102 0.67886 0.46774 0.0
C633 C 0.73548 0.66545 0.44702 0.0
C634 C 0.72588 0.67075 0.49336 0.0
C635 C 0.74516 0.64893 0.49878 0.0
C636 C 0.76195 0.63702 0.47823 0.0
C637 C 0.75728 0.64531 0.45252 0.0
C638 C 0.72957 0.59837 0.55065 0.0
C639 C 0.72617 0.61397 0.573 0.0
C640 C 0.73811 0.60952 0.52685 0.0
C641 C 0.74342 0.63653 0.52486 0.0
C642 C 0.74224 0.65182 0.54758 0.0
C643 C 0.73376 0.64066 0.57141 0.0
H644 H 0.2905 0.69423 0.51018 0.0
H645 H 0.2212 0.63834 0.53779 0.0
H646 H 0.27968 0.68109 0.46551 0.0
H647 H 0.21029 0.62504 0.49285 0.0
H648 H 0.26293 0.57992 0.42374 0.0
H649 H 0.24817 0.59987 0.46496 0.0
H650 H 0.24327 0.6753 0.4277 0.0
H651 H 0.25831 0.65536 0.38631 0.0
C652 C 0.27212 0.67976 0.50658 0.0
C653 C 0.25702 0.66706 0.5274 0.0
C654 C 0.26576 0.6723 0.48096 0.0
C655 C 0.24442 0.65177 0.47568 0.0
C656 C 0.2271 0.64074 0.49639 0.0
C657 C 0.2332 0.64846 0.52209 0.0
C658 C 0.25794 0.60066 0.42414 0.0
C659 C 0.26251 0.61612 0.40186 0.0
C660 C 0.24916 0.61208 0.44776 0.0
C661 C 0.24491 0.63922 0.44963 0.0
C662 C 0.24674 0.65437 0.42687 0.0
C663 C 0.25533 0.64291 0.40317 0.0
H664 H 0.23538 0.33858 0.43813 0.0
H665 H 0.30678 0.28305 0.46337 0.0
H666 H 0.2287 0.35323 0.48317 0.0
H667 H 0.30012 0.29763 0.50819 0.0
H668 H 0.27611 0.39764 0.55426 0.0
H669 H 0.26695 0.37838 0.51149 0.0
H670 H 0.26333 0.30173 0.54622 0.0
H671 H 0.27265 0.32091 0.58908 0.0
C672 C 0.24903 0.32905 0.45335 0.0
C673 C 0.27185 0.30985 0.44724 0.0
C674 C 0.24535 0.33755 0.47908 0.0
C675 C 0.26409 0.32674 0.49913 0.0
C676 C 0.28517 0.30622 0.4932 0.0
C677 C 0.2891 0.29795 0.46751 0.0
C678 C 0.27291 0.37672 0.55287 0.0
C679 C 0.27554 0.3608 0.57506 0.0
C680 C 0.26737 0.3657 0.52837 0.0
C681 C 0.26455 0.33853 0.52552 0.0
C682 C 0.26568 0.32272 0.54784 0.0
C683 C 0.27096 0.33374 0.57238 0.0
H684 H 0.71603 0.31885 0.3819 0.0
H685 H 0.7013 0.39491 0.41629 0.0
H686 H 0.72929 0.30118 0.42478 0.0
H687 H 0.71461 0.3772 0.45901 0.0
H688 H 0.68744 0.28155 0.509 0.0
H689 H 0.69297 0.29467 0.46362 0.0
H690 H 0.75814 0.35588 0.48664 0.0
H691 H 0.7528 0.34251 0.53223 0.0
C692 C 0.71609 0.33189 0.3985 0.0
C693 C 0.7072 0.35823 0.39574 0.0
C694 C 0.7237 0.32175 0.42303 0.0
C695 C 0.72299 0.33781 0.44519 0.0
C696 C 0.71574 0.36442 0.44222 0.0
C697 C 0.70778 0.3745 0.41778 0.0
C698 C 0.70381 0.29722 0.50425 0.0
C699 C 0.71956 0.31109 0.52406 0.0
C700 C 0.70703 0.30471 0.47827 0.0
C701 C 0.72571 0.32648 0.47166 0.0
C702 C 0.74339 0.33915 0.49127 0.0
C703 C 0.74056 0.33136 0.51729 0.0
H704 H 0.58278 0.64479 0.65314 0.0
H705 H 0.56463 0.57524 0.60769 0.0
H706 H 0.52846 0.66042 0.64291 0.0
H707 H 0.51137 0.59072 0.59778 0.0
H708 H 0.43558 0.63566 0.5581 0.0
H709 H 0.49082 0.62803 0.5706 0.0
H710 H 0.4681 0.64641 0.65051 0.0
H711 H 0.41216 0.65442 0.63793 0.0
C712 C 0.56731 0.63284 0.64111 0.0
C713 C 0.57823 0.60885 0.6311 0.0
C714 C 0.53627 0.64175 0.63534 0.0
C715 C 0.51593 0.62694 0.61925 0.0
C716 C 0.52671 0.60281 0.60981 0.0
C717 C 0.55731 0.59389 0.61565 0.0
C718 C 0.44226 0.63841 0.57832 0.0
C719 C 0.4193 0.64517 0.59711 0.0
C720 C 0.47397 0.63402 0.58546 0.0
C721 C 0.4836 0.63617 0.61159 0.0
C722 C 0.46126 0.64462 0.63022 0.0
C723 C 0.42928 0.6491 0.62303 0.0
H724 H 0.27709 0.58899 0.65433 0.0
H725 H 0.2763 0.55014 0.57954 0.0
H726 H 0.26258 0.5481 0.67553 0.0
H727 H 0.26205 0.50932 0.60082 0.0
H728 H 0.22348 0.44042 0.64214 0.0
H729 H 0.22067 0.48548 0.62666 0.0
H730 H 0.29376 0.50744 0.6821 0.0
H731 H 0.2965 0.4626 0.69752 0.0
C732 C 0.2735 0.57182 0.64236 0.0
C733 C 0.27827 0.57277 0.61525 0.0
C734 C 0.26518 0.54842 0.65454 0.0
C735 C 0.26119 0.52551 0.63986 0.0
C736 C 0.26453 0.52672 0.61264 0.0
C737 C 0.27305 0.55007 0.60047 0.0
C738 C 0.23808 0.45508 0.65164 0.0
C739 C 0.26044 0.44801 0.67087 0.0
C740 C 0.2367 0.4808 0.6426 0.0
C741 C 0.25734 0.49988 0.65289 0.0
C742 C 0.27746 0.49324 0.67383 0.0
C743 C 0.27907 0.46753 0.68265 0.0
H744 H 0.54781 0.3522 0.56948 0.0
H745 H 0.57501 0.31377 0.64121 0.0
H746 H 0.49489 0.36038 0.58698 0.0
H747 H 0.5211 0.32198 0.65865 0.0
H748 H 0.4006 0.32767 0.65404 0.0
H749 H 0.45479 0.31221 0.64319 0.0
H750 H 0.48448 0.39161 0.62967 0.0
H751 H 0.43127 0.40708 0.64052 0.0
C752 C 0.54245 0.34517 0.58888 0.0
C753 C 0.5659 0.33267 0.60409 0.0
C754 C 0.51207 0.34986 0.59885 0.0
C755 C 0.5042 0.34204 0.62419 0.0
C756 C 0.52676 0.32816 0.63902 0.0
C757 C 0.55753 0.32355 0.62905 0.0
C758 C 0.41894 0.34181 0.64932 0.0
C759 C 0.41148 0.36855 0.64768 0.0
C760 C 0.44984 0.33296 0.64317 0.0
C761 C 0.47344 0.35077 0.6353 0.0
C762 C 0.4665 0.37751 0.63539 0.0
C763 C 0.43596 0.38631 0.64157 0.0
H764 H 0.68469 0.51367 0.69426 0.0
H765 H 0.76359 0.53426 0.64417 0.0
H766 H 0.68897 0.46837 0.68027 0.0
H767 H 0.76777 0.48881 0.62999 0.0
H768 H 0.70778 0.38623 0.65514 0.0
H769 H 0.72181 0.42721 0.67662 0.0
H770 H 0.72712 0.46525 0.60174 0.0
H771 H 0.7131 0.42443 0.58022 0.0
C772 C 0.70367 0.50829 0.68094 0.0
C773 C 0.72361 0.52746 0.67014 0.0
C774 C 0.70618 0.48235 0.67295 0.0
C775 C 0.72843 0.47516 0.65377 0.0
C776 C 0.75019 0.49392 0.64461 0.0
C777 C 0.74797 0.51987 0.6529 0.0
C778 C 0.71245 0.40322 0.64322 0.0
C779 C 0.70889 0.40216 0.61597 0.0
C780 C 0.72048 0.42666 0.65555 0.0
C781 C 0.72553 0.44939 0.64087 0.0
C782 C 0.72375 0.44797 0.61356 0.0
C783 C 0.71538 0.42463 0.60125 0.0
H784 H 0.45092 0.29954 0.39309 0.0
H785 H 0.40462 0.31718 0.3199 0.0
H786 H 0.50313 0.30628 0.37296 0.0
H787 H 0.45704 0.32453 0.2999 0.0
H788 H 0.54612 0.38476 0.30687 0.0
H789 H 0.49456 0.36377 0.3143 0.0
H790 H 0.54279 0.29215 0.3348 0.0
H791 H 0.59468 0.31307 0.32662 0.0
C792 C 0.45198 0.30416 0.37252 0.0
C793 C 0.42377 0.30805 0.3581 0.0
C794 C 0.48185 0.30786 0.36097 0.0
C795 C 0.48402 0.31603 0.33494 0.0
C796 C 0.45592 0.31822 0.32002 0.0
C797 C 0.426 0.31394 0.33144 0.0
C798 C 0.54567 0.36432 0.31224 0.0
C799 C 0.57429 0.35054 0.3163 0.0
C800 C 0.51619 0.35227 0.31632 0.0
C801 C 0.51477 0.32636 0.32511 0.0
C802 C 0.54333 0.31213 0.32794 0.0
C803 C 0.57291 0.32405 0.3232 0.0
H804 H 0.75468 0.44056 0.33163 0.0
H805 H 0.67693 0.46023 0.27964 0.0
H806 H 0.75597 0.48566 0.34727 0.0
H807 H 0.67833 0.50519 0.29515 0.0
H808 H 0.70435 0.552 0.39502 0.0
H809 H 0.71489 0.50994 0.37449 0.0
H810 H 0.71129 0.54627 0.29868 0.0
H811 H 0.70077 0.58843 0.31914 0.0
C812 C 0.7385 0.45466 0.32301 0.0
C813 C 0.71554 0.44688 0.30454 0.0
C814 C 0.73906 0.48039 0.33213 0.0
C815 C 0.71702 0.49883 0.32263 0.0
C816 C 0.6957 0.49145 0.30276 0.0
C817 C 0.69486 0.4657 0.29391 0.0
C818 C 0.70602 0.55108 0.37399 0.0
C819 C 0.70145 0.57354 0.35873 0.0
C820 C 0.71238 0.52703 0.36225 0.0
C821 C 0.71399 0.52486 0.33499 0.0
C822 C 0.71006 0.54738 0.31973 0.0
C823 C 0.70406 0.5715 0.33148 0.0
H824 H 0.55672 0.66614 0.41686 0.0
H825 H 0.57994 0.6549 0.33573 0.0
H826 H 0.50003 0.66258 0.40668 0.0
H827 H 0.52283 0.65033 0.32554 0.0
H828 H 0.41265 0.64953 0.31642 0.0
H829 H 0.46618 0.66782 0.32467 0.0
H830 H 0.47267 0.6225 0.39543 0.0
H831 H 0.42004 0.60479 0.3875 0.0
C832 C 0.5496 0.66328 0.39675 0.0
C833 C 0.57267 0.6603 0.37715 0.0
C834 C 0.51714 0.6612 0.39091 0.0
C835 C 0.50699 0.65554 0.36541 0.0
C836 C 0.5299 0.65472 0.34537 0.0
C837 C 0.56258 0.65723 0.3512 0.0
C838 C 0.42545 0.6439 0.3339 0.0
C839 C 0.41221 0.62562 0.35123 0.0
C840 C 0.45608 0.65423 0.33854 0.0
C841 C 0.47358 0.64675 0.36079 0.0
C842 C 0.45971 0.6291 0.37836 0.0
C843 C 0.42954 0.61871 0.37365 0.0
H844 H 0.26772 0.38518 0.33031 0.0
H845 H 0.34008 0.4175 0.38126 0.0
H846 H 0.26025 0.42825 0.31023 0.0
H847 H 0.33292 0.46006 0.36089 0.0
H848 H 0.34285 0.51943 0.2967 0.0
H849 H 0.34365 0.47401 0.31045 0.0
H850 H 0.24316 0.47822 0.32899 0.0
H851 H 0.24225 0.52423 0.31556 0.0
C852 C 0.28194 0.40144 0.33724 0.0
C853 C 0.30459 0.39795 0.3573 0.0
C854 C 0.27756 0.42599 0.32581 0.0
C855 C 0.29623 0.44722 0.33392 0.0
C856 C 0.31847 0.44383 0.35418 0.0
C857 C 0.32243 0.41952 0.3659 0.0
C858 C 0.32069 0.5106 0.30315 0.0
C859 C 0.2926 0.52553 0.30547 0.0
C860 C 0.32123 0.48464 0.31107 0.0
C861 C 0.29362 0.47293 0.32114 0.0
C862 C 0.26475 0.48698 0.32131 0.0
C863 C 0.26424 0.51322 0.31358 0.0
loop_
_geom_bond_atom_site_label_1
_geom_bond_atom_site_label_2
_geom_bond_distance
_geom_bond_site_symmetry_2
_ccdc_geom_bond_type
C0 O1 1.306 . S
C0 O3 1.160 . S
O1 C0 1.306 . S
O1 Cd2 2.228 . S
Cd2 O1 2.228 . S
Cd2 O6 2.273 . S
Cd2 O10 2.277 . S
O3 C0 1.160 . S
O3 Cd4 2.203 . S
Cd4 O3 2.203 . S
Cd4 O6 2.411 . S
Cd4 O7 2.333 . S
Cd4 O8 2.352 . S
Cd4 O12 2.277 . S
Cd4 O13 2.356 . S
C5 O10 1.209 . S
C5 O12 1.226 . S
O6 Cd2 2.273 . S
O6 Cd4 2.411 . S
O6 C9 1.320 . S
O7 Cd4 2.333 . S
O7 C9 1.214 . S
O8 Cd4 2.352 . S
O8 C11 1.258 . S
C9 O6 1.320 . S
C9 O7 1.214 . S
O10 Cd2 2.277 . S
O10 C5 1.209 . S
C11 O8 1.258 . S
C11 O13 1.282 . S
O12 Cd4 2.277 . S
O12 C5 1.226 . S
O13 Cd4 2.356 . S
O13 C11 1.282 . S
C14 O15 1.306 . S
C14 O17 1.160 . S
O15 C14 1.306 . S
O15 Cd16 2.228 . S
Cd16 O15 2.228 . S
Cd16 O20 2.273 . S
Cd16 O24 2.277 . S
O17 C14 1.160 . S
O17 Cd18 2.203 . S
Cd18 O17 2.203 . S
Cd18 O20 2.411 . S
Cd18 O21 2.333 . S
Cd18 O22 2.352 . S
Cd18 O26 2.277 . S
Cd18 O27 2.356 . S
C19 O24 1.209 . S
C19 O26 1.226 . S
O20 Cd16 2.273 . S
O20 Cd18 2.411 . S
O20 C23 1.320 . S
O21 Cd18 2.333 . S
O21 C23 1.214 . S
O22 Cd18 2.352 . S
O22 C25 1.258 . S
C23 O20 1.320 . S
C23 O21 1.214 . S
O24 Cd16 2.277 . S
O24 C19 1.209 . S
C25 O22 1.258 . S
C25 O27 1.282 . S
O26 Cd18 2.277 . S
O26 C19 1.226 . S
O27 Cd18 2.356 . S
O27 C25 1.282 . S
C28 O29 1.306 . S
C28 O31 1.160 . S
O29 C28 1.306 . S
O29 Cd30 2.228 . S
Cd30 O29 2.228 . S
Cd30 O34 2.273 . S
Cd30 O38 2.277 . S
O31 C28 1.160 . S
O31 Cd32 2.203 . S
Cd32 O31 2.203 . S
Cd32 O34 2.411 . S
Cd32 O35 2.333 . S
Cd32 O36 2.352 . S
Cd32 O40 2.277 . S
Cd32 O41 2.356 . S
C33 O38 1.209 . S
C33 O40 1.226 . S
O34 Cd30 2.273 . S
O34 Cd32 2.411 . S
O34 C37 1.320 . S
O35 Cd32 2.333 . S
O35 C37 1.214 . S
O36 Cd32 2.352 . S
O36 C39 1.258 . S
C37 O34 1.320 . S
C37 O35 1.214 . S
O38 Cd30 2.277 . S
O38 C33 1.209 . S
C39 O36 1.258 . S
C39 O41 1.282 . S
O40 Cd32 2.277 . S
O40 C33 1.226 . S
O41 Cd32 2.356 . S
O41 C39 1.282 . S
C42 O43 1.306 . S
C42 O45 1.160 . S
O43 C42 1.306 . S
O43 Cd44 2.228 . S
Cd44 O43 2.228 . S
Cd44 O48 2.273 . S
Cd44 O52 2.277 . S
O45 C42 1.160 . S
O45 Cd46 2.203 . S
Cd46 O45 2.203 . S
Cd46 O48 2.411 . S
Cd46 O49 2.333 . S
Cd46 O50 2.352 . S
Cd46 O54 2.277 . S
Cd46 O55 2.356 . S
C47 O52 1.209 . S
C47 O54 1.226 . S
O48 Cd44 2.273 . S
O48 Cd46 2.411 . S
O48 C51 1.320 . S
O49 Cd46 2.333 . S
O49 C51 1.214 . S
O50 Cd46 2.352 . S
O50 C53 1.258 . S
C51 O48 1.320 . S
C51 O49 1.214 . S
O52 Cd44 2.277 . S
O52 C47 1.209 . S
C53 O50 1.258 . S
C53 O55 1.282 . S
O54 Cd46 2.277 . S
O54 C47 1.226 . S
O55 Cd46 2.356 . S
O55 C53 1.282 . S
C56 O57 1.306 . S
C56 O59 1.160 . S
O57 C56 1.306 . S
O57 Cd58 2.228 . S
Cd58 O57 2.228 . S
Cd58 O62 2.273 . S
Cd58 O66 2.277 . S
O59 C56 1.160 . S
O59 Cd60 2.203 . S
Cd60 O59 2.203 . S
Cd60 O62 2.411 . S
Cd60 O63 2.333 . S
Cd60 O64 2.352 . S
Cd60 O68 2.277 . S
Cd60 O69 2.356 . S
C61 O66 1.209 . S
C61 O68 1.226 . S
O62 Cd58 2.273 . S
O62 Cd60 2.411 . S
O62 C65 1.320 . S
O63 Cd60 2.333 . S
O63 C65 1.214 . S
O64 Cd60 2.352 . S
O64 C67 1.258 . S
C65 O62 1.320 . S
C65 O63 1.214 . S
O66 Cd58 2.277 . S
O66 C61 1.209 . S
C67 O64 1.258 . S
C67 O69 1.282 . S
O68 Cd60 2.277 . S
O68 C61 1.226 . S
O69 Cd60 2.356 . S
O69 C67 1.282 . S
C70 O71 1.306 . S
C70 O73 1.160 . S
O71 C70 1.306 . S
O71 Cd72 2.228 . S
Cd72 O71 2.228 . S
Cd72 O76 2.273 . S
Cd72 O80 2.277 . S
O73 C70 1.160 . S
O73 Cd74 2.203 . S
Cd74 O73 2.203 . S
Cd74 O76 2.411 . S
Cd74 O77 2.333 . S
Cd74 O78 2.352 . S
Cd74 O82 2.277 . S
Cd74 O83 2.356 . S
C75 O80 1.209 . S
C75 O82 1.226 . S
O76 Cd72 2.273 . S
O76 Cd74 2.411 . S
O76 C79 1.320 . S
O77 Cd74 2.333 . S
O77 C79 1.214 . S
O78 Cd74 2.352 . S
O78 C81 1.258 . S
C79 O76 1.320 . S
C79 O77 1.214 . S
O80 Cd72 2.277 . S
O80 C75 1.209 . S
C81 O78 1.258 . S
C81 O83 1.282 . S
O82 Cd74 2.277 . S
O82 C75 1.226 . S
O83 Cd74 2.356 . S
O83 C81 1.282 . S
C84 O85 1.306 . S
C84 O87 1.160 . S
O85 C84 1.306 . S
O85 Cd86 2.228 . S
Cd86 O85 2.228 . S
Cd86 O90 2.273 . S
Cd86 O94 2.277 . S
O87 C84 1.160 . S
O87 Cd88 2.203 . S
Cd88 O87 2.203 . S
Cd88 O90 2.411 . S
Cd88 O91 2.333 . S
Cd88 O92 2.352 . S
Cd88 O96 2.277 . S
Cd88 O97 2.356 . S
C89 O94 1.209 . S
C89 O96 1.226 . S
O90 Cd86 2.273 . S
O90 Cd88 2.411 . S
O90 C93 1.320 . S
O91 Cd88 2.333 . S
O91 C93 1.214 . S
O92 Cd88 2.352 . S
O92 C95 1.258 . S
C93 O90 1.320 . S
C93 O91 1.214 . S
O94 Cd86 2.277 . S
O94 C89 1.209 . S
C95 O92 1.258 . S
C95 O97 1.282 . S
O96 Cd88 2.277 . S
O96 C89 1.226 . S
O97 Cd88 2.356 . S
O97 C95 1.282 . S
C98 O99 1.306 . S
C98 O101 1.160 . S
O99 C98 1.306 . S
O99 Cd100 2.228 . S
Cd100 O99 2.228 . S
Cd100 O104 2.273 . S
Cd100 O108 2.277 . S
O101 C98 1.160 . S
O101 Cd102 2.203 . S
Cd102 O101 2.203 . S
Cd102 O104 2.411 . S
Cd102 O105 2.333 . S
Cd102 O106 2.352 . S
Cd102 O110 2.277 . S
Cd102 O111 2.356 . S
C103 O108 1.209 . S
C103 O110 1.226 . S
O104 Cd100 2.273 . S
O104 Cd102 2.411 . S
O104 C107 1.320 . S
O105 Cd102 2.333 . S
O105 C107 1.214 . S
O106 Cd102 2.352 . S
O106 C109 1.258 . S
C107 O104 1.320 . S
C107 O105 1.214 . S
O108 Cd100 2.277 . S
O108 C103 1.209 . S
C109 O106 1.258 . S
C109 O111 1.282 . S
O110 Cd102 2.277 . S
O110 C103 1.226 . S
O111 Cd102 2.356 . S
O111 C109 1.282 . S
C112 O113 1.306 . S
C112 O115 1.160 . S
O113 C112 1.306 . S
O113 Cd114 2.228 . S
Cd114 O113 2.228 . S
Cd114 O118 2.273 . S
Cd114 O122 2.277 . S
O115 C112 1.160 . S
O115 Cd116 2.203 . S
Cd116 O115 2.203 . S
Cd116 O118 2.411 . S
Cd116 O119 2.333 . S
Cd116 O120 2.352 . S
Cd116 O124 2.277 . S
Cd116 O125 2.356 . S
C117 O122 1.209 . S
C117 O124 1.226 . S
O118 Cd114 2.273 . S
O118 Cd116 2.411 . S
O118 C121 1.320 . S
O119 Cd116 2.333 . S
O119 C121 1.214 . S
O120 Cd116 2.352 . S
O120 C123 1.258 . S
C121 O118 1.320 . S
C121 O119 1.214 . S
O122 Cd114 2.277 . S
O122 C117 1.209 . S
C123 O120 1.258 . S
C123 O125 1.282 . S
O124 Cd116 2.277 . S
O124 C117 1.226 . S
O125 Cd116 2.356 . S
O125 C123 1.282 . S
C126 O127 1.306 . S
C126 O129 1.160 . S
O127 C126 1.306 . S
O127 Cd128 2.228 . S
Cd128 O127 2.228 . S
Cd128 O132 2.273 . S
Cd128 O136 2.277 . S
O129 C126 1.160 . S
O129 Cd130 2.203 . S
Cd130 O129 2.203 . S
Cd130 O132 2.411 . S
Cd130 O133 2.333 . S
Cd130 O134 2.352 . S
Cd130 O138 2.277 . S
Cd130 O139 2.356 . S
C131 O136 1.209 . S
C131 O138 1.226 . S
O132 Cd128 2.273 . S
O132 Cd130 2.411 . S
O132 C135 1.320 . S
O133 Cd130 2.333 . S
O133 C135 1.214 . S
O134 Cd130 2.352 . S
O134 C137 1.258 . S
C135 O132 1.320 . S
C135 O133 1.214 . S
O136 Cd128 2.277 . S
O136 C131 1.209 . S
C137 O134 1.258 . S
C137 O139 1.282 . S
O138 Cd130 2.277 . S
O138 C131 1.226 . S
O139 Cd130 2.356 . S
O139 C137 1.282 . S
C140 O141 1.306 . S
C140 O143 1.160 . S
O141 C140 1.306 . S
O141 Cd142 2.228 . S
Cd142 O141 2.228 . S
Cd142 O146 2.273 . S
Cd142 O150 2.277 . S
O143 C140 1.160 . S
O143 Cd144 2.203 . S
Cd144 O143 2.203 . S
Cd144 O146 2.411 . S
Cd144 O147 2.333 . S
Cd144 O148 2.352 . S
Cd144 O152 2.277 . S
Cd144 O153 2.356 . S
C145 O150 1.209 . S
C145 O152 1.226 . S
O146 Cd142 2.273 . S
O146 Cd144 2.411 . S
O146 C149 1.320 . S
O147 Cd144 2.333 . S
O147 C149 1.214 . S
O148 Cd144 2.352 . S
O148 C151 1.258 . S
C149 O146 1.320 . S
C149 O147 1.214 . S
O150 Cd142 2.277 . S
O150 C145 1.209 . S
C151 O148 1.258 . S
C151 O153 1.282 . S
O152 Cd144 2.277 . S
O152 C145 1.226 . S
O153 Cd144 2.356 . S
O153 C151 1.282 . S
C154 O155 1.306 . S
C154 O157 1.160 . S
O155 C154 1.306 . S
O155 Cd156 2.228 . S
Cd156 O155 2.228 . S
Cd156 O160 2.273 . S
Cd156 O164 2.277 . S
O157 C154 1.160 . S
O157 Cd158 2.203 . S
Cd158 O157 2.203 . S
Cd158 O160 2.411 . S
Cd158 O161 2.333 . S
Cd158 O162 2.352 . S
Cd158 O166 2.277 . S
Cd158 O167 2.356 . S
C159 O164 1.209 . S
C159 O166 1.226 . S
O160 Cd156 2.273 . S
O160 Cd158 2.411 . S
O160 C163 1.320 . S
O161 Cd158 2.333 . S
O161 C163 1.214 . S
O162 Cd158 2.352 . S
O162 C165 1.258 . S
C163 O160 1.320 . S
C163 O161 1.214 . S
O164 Cd156 2.277 . S
O164 C159 1.209 . S
C165 O162 1.258 . S
C165 O167 1.282 . S
O166 Cd158 2.277 . S
O166 C159 1.226 . S
O167 Cd158 2.356 . S
O167 C165 1.282 . S
C168 O169 1.306 . S
C168 O171 1.160 . S
O169 C168 1.306 . S
O169 Cd170 2.228 . S
Cd170 O169 2.228 . S
Cd170 O174 2.273 . S
Cd170 O178 2.277 . S
O171 C168 1.160 . S
O171 Cd172 2.203 . S
Cd172 O171 2.203 . S
Cd172 O174 2.411 . S
Cd172 O175 2.333 . S
Cd172 O176 2.352 . S
Cd172 O180 2.277 . S
Cd172 O181 2.356 . S
C173 O178 1.209 . S
C173 O180 1.226 . S
O174 Cd170 2.273 . S
O174 Cd172 2.411 . S
O174 C177 1.320 . S
O175 Cd172 2.333 . S
O175 C177 1.214 . S
O176 Cd172 2.352 . S
O176 C179 1.258 . S
C177 O174 1.320 . S
C177 O175 1.214 . S
O178 Cd170 2.277 . S
O178 C173 1.209 . S
C179 O176 1.258 . S
C179 O181 1.282 . S
O180 Cd172 2.277 . S
O180 C173 1.226 . S
O181 Cd172 2.356 . S
O181 C179 1.282 . S
C182 O183 1.306 . S
C182 O185 1.160 . S
O183 C182 1.306 . S
O183 Cd184 2.228 . S
Cd184 O183 2.228 . S
Cd184 O188 2.273 . S
Cd184 O192 2.277 . S
O185 C182 1.160 . S
O185 Cd186 2.203 . S
Cd186 O185 2.203 . S
Cd186 O188 2.411 . S
Cd186 O189 2.333 . S
Cd186 O190 2.352 . S
Cd186 O194 2.277 . S
Cd186 O195 2.356 . S
C187 O192 1.209 . S
C187 O194 1.226 . S
O188 Cd184 2.273 . S
O188 Cd186 2.411 . S
O188 C191 1.320 . S
O189 Cd186 2.333 . S
O189 C191 1.214 . S
O190 Cd186 2.352 . S
O190 C193 1.258 . S
C191 O188 1.320 . S
C191 O189 1.214 . S
O192 Cd184 2.277 . S
O192 C187 1.209 . S
C193 O190 1.258 . S
C193 O195 1.282 . S
O194 Cd186 2.277 . S
O194 C187 1.226 . S
O195 Cd186 2.356 . S
O195 C193 1.282 . S
C196 O197 1.306 . S
C196 O199 1.160 . S
O197 C196 1.306 . S
O197 Cd198 2.228 . S
Cd198 O197 2.228 . S
Cd198 O202 2.273 . S
Cd198 O206 2.277 . S
O199 C196 1.160 . S
O199 Cd200 2.203 . S
Cd200 O199 2.203 . S
Cd200 O202 2.411 . S
Cd200 O203 2.333 . S
Cd200 O204 2.352 . S
Cd200 O208 2.277 . S
Cd200 O209 2.356 . S
C201 O206 1.209 . S
C201 O208 1.226 . S
O202 Cd198 2.273 . S
O202 Cd200 2.411 . S
O202 C205 1.320 . S
O203 Cd200 2.333 . S
O203 C205 1.214 . S
O204 Cd200 2.352 . S
O204 C207 1.258 . S
C205 O202 1.320 . S
C205 O203 1.214 . S
O206 Cd198 2.277 . S
O206 C201 1.209 . S
C207 O204 1.258 . S
C207 O209 1.282 . S
O208 Cd200 2.277 . S
O208 C201 1.226 . S
O209 Cd200 2.356 . S
O209 C207 1.282 . S
C210 O211 1.306 . S
C210 O213 1.160 . S
O211 C210 1.306 . S
O211 Cd212 2.228 . S
Cd212 O211 2.228 . S
Cd212 O216 2.273 . S
Cd212 O220 2.277 . S
O213 C210 1.160 . S
O213 Cd214 2.203 . S
Cd214 O213 2.203 . S
Cd214 O216 2.411 . S
Cd214 O217 2.333 . S
Cd214 O218 2.352 . S
Cd214 O222 2.277 . S
Cd214 O223 2.356 . S
C215 O220 1.209 . S
C215 O222 1.226 . S
O216 Cd212 2.273 . S
O216 Cd214 2.411 . S
O216 C219 1.320 . S
O217 Cd214 2.333 . S
O217 C219 1.214 . S
O218 Cd214 2.352 . S
O218 C221 1.258 . S
C219 O216 1.320 . S
C219 O217 1.214 . S
O220 Cd212 2.277 . S
O220 C215 1.209 . S
C221 O218 1.258 . S
C221 O223 1.282 . S
O222 Cd214 2.277 . S
O222 C215 1.226 . S
O223 Cd214 2.356 . S
O223 C221 1.282 . S
H224 C232 0.950 . S
H225 C237 0.950 . S
H226 C234 0.950 . S
H227 C236 0.950 . S
H228 C238 0.950 . S
H229 C240 0.950 . S
H230 C242 0.950 . S
H231 C243 0.950 . S
C232 H224 0.950 . S
C232 C233 1.386 . S
C232 C234 1.391 . S
C233 C232 1.386 . S
C233 C237 1.393 . S
C234 H226 0.950 . S
C234 C232 1.391 . S
C234 C235 1.400 . S
C235 C234 1.400 . S
C235 C236 1.398 . S
C235 C241 1.491 . S
C236 H227 0.950 . S
C236 C235 1.398 . S
C236 C237 1.391 . S
C237 H225 0.950 . S
C237 C233 1.393 . S
C237 C236 1.391 . S
C238 H228 0.950 . S
C238 C239 1.386 . S
C238 C240 1.391 . S
C239 C238 1.386 . S
C239 C243 1.393 . S
C240 H229 0.950 . S
C240 C238 1.391 . S
C240 C241 1.400 . S
C241 C235 1.491 . S
C241 C240 1.400 . S
C241 C242 1.398 . S
C242 H230 0.950 . S
C242 C241 1.398 . S
C242 C243 1.391 . S
C243 H231 0.950 . S
C243 C239 1.393 . S
C243 C242 1.391 . S
H244 C252 0.950 . S
H245 C257 0.950 . S
H246 C254 0.950 . S
H247 C256 0.950 . S
H248 C258 0.950 . S
H249 C260 0.950 . S
H250 C262 0.950 . S
H251 C263 0.950 . S
C252 H244 0.950 . S
C252 C253 1.386 . S
C252 C254 1.391 . S
C253 C252 1.386 . S
C253 C257 1.393 . S
C254 H246 0.950 . S
C254 C252 1.391 . S
C254 C255 1.400 . S
C255 C254 1.400 . S
C255 C256 1.398 . S
C255 C261 1.491 . S
C256 H247 0.950 . S
C256 C255 1.398 . S
C256 C257 1.391 . S
C257 H245 0.950 . S
C257 C253 1.393 . S
C257 C256 1.391 . S
C258 H248 0.950 . S
C258 C259 1.386 . S
C258 C260 1.391 . S
C259 C258 1.386 . S
C259 C263 1.393 . S
C260 H249 0.950 . S
C260 C258 1.391 . S
C260 C261 1.400 . S
C261 C255 1.491 . S
C261 C260 1.400 . S
C261 C262 1.398 . S
C262 H250 0.950 . S
C262 C261 1.398 . S
C262 C263 1.391 . S
C263 H251 0.950 . S
C263 C259 1.393 . S
C263 C262 1.391 . S
H264 C272 0.950 . S
H265 C277 0.950 . S
H266 C274 0.950 . S
H267 C276 0.950 . S
H268 C278 0.950 . S
H269 C280 0.950 . S
H270 C282 0.950 . S
H271 C283 0.950 . S
C272 H264 0.950 . S
C272 C273 1.386 . S
C272 C274 1.391 . S
C273 C272 1.386 . S
C273 C277 1.393 . S
C274 H266 0.950 . S
C274 C272 1.391 . S
C274 C275 1.400 . S
C275 C274 1.400 . S
C275 C276 1.398 . S
C275 C281 1.491 . S
C276 H267 0.950 . S
C276 C275 1.398 . S
C276 C277 1.391 . S
C277 H265 0.950 . S
C277 C273 1.393 . S
C277 C276 1.391 . S
C278 H268 0.950 . S
C278 C279 1.386 . S
C278 C280 1.391 . S
C279 C278 1.386 . S
C279 C283 1.393 . S
C280 H269 0.950 . S
C280 C278 1.391 . S
C280 C281 1.400 . S
C281 C275 1.491 . S
C281 C280 1.400 . S
C281 C282 1.398 . S
C282 H270 0.950 . S
C282 C281 1.398 . S
C282 C283 1.391 . S
C283 H271 0.950 . S
C283 C279 1.393 . S
C283 C282 1.391 . S
H284 C292 0.950 . S
H285 C297 0.950 . S
H286 C294 0.950 . S
H287 C296 0.950 . S
H288 C298 0.950 . S
H289 C300 0.950 . S
H290 C302 0.950 . S
H291 C303 0.950 . S
C292 H284 0.950 . S
C292 C293 1.386 . S
C292 C294 1.391 . S
C293 C292 1.386 . S
C293 C297 1.393 . S
C294 H286 0.950 . S
C294 C292 1.391 . S
C294 C295 1.400 . S
C295 C294 1.400 . S
C295 C296 1.398 . S
C295 C301 1.491 . S
C296 H287 0.950 . S
C296 C295 1.398 . S
C296 C297 1.391 . S
C297 H285 0.950 . S
C297 C293 1.393 . S
C297 C296 1.391 . S
C298 H288 0.950 . S
C298 C299 1.386 . S
C298 C300 1.391 . S
C299 C298 1.386 . S
C299 C303 1.393 . S
C300 H289 0.950 . S
C300 C298 1.391 . S
C300 C301 1.400 . S
C301 C295 1.491 . S
C301 C300 1.400 . S
C301 C302 1.398 . S
C302 H290 0.950 . S
C302 C301 1.398 . S
C302 C303 1.391 . S
C303 H291 0.950 . S
C303 C299 1.393 . S
C303 C302 1.391 . S
H304 C312 0.950 . S
H305 C317 0.950 . S
H306 C314 0.950 . S
H307 C316 0.950 . S
H308 C318 0.950 . S
H309 C320 0.950 . S
H310 C322 0.950 . S
H311 C323 0.950 . S
C312 H304 0.950 . S
C312 C313 1.386 . S
C312 C314 1.391 . S
C313 C312 1.386 . S
C313 C317 1.393 . S
C314 H306 0.950 . S
C314 C312 1.391 . S
C314 C315 1.400 . S
C315 C314 1.400 . S
C315 C316 1.398 . S
C315 C321 1.491 . S
C316 H307 0.950 . S
C316 C315 1.398 . S
C316 C317 1.391 . S
C317 H305 0.950 . S
C317 C313 1.393 . S
C317 C316 1.391 . S
C318 H308 0.950 . S
C318 C319 1.386 . S
C318 C320 1.391 . S
C319 C318 1.386 . S
C319 C323 1.393 . S
C320 H309 0.950 . S
C320 C318 1.391 . S
C320 C321 1.400 . S
C321 C315 1.491 . S
C321 C320 1.400 . S
C321 C322 1.398 . S
C322 H310 0.950 . S
C322 C321 1.398 . S
C322 C323 1.391 . S
C323 H311 0.950 . S
C323 C319 1.393 . S
C323 C322 1.391 . S
H324 C332 0.950 . S
H325 C337 0.950 . S
H326 C334 0.950 . S
H327 C336 0.950 . S
H328 C338 0.950 . S
H329 C340 0.950 . S
H330 C342 0.950 . S
H331 C343 0.950 . S
C332 H324 0.950 . S
C332 C333 1.386 . S
C332 C334 1.391 . S
C333 C332 1.386 . S
C333 C337 1.393 . S
C334 H326 0.950 . S
C334 C332 1.391 . S
C334 C335 1.400 . S
C335 C334 1.400 . S
C335 C336 1.398 . S
C335 C341 1.491 . S
C336 H327 0.950 . S
C336 C335 1.398 . S
C336 C337 1.391 . S
C337 H325 0.950 . S
C337 C333 1.393 . S
C337 C336 1.391 . S
C338 H328 0.950 . S
C338 C339 1.386 . S
C338 C340 1.391 . S
C339 C338 1.386 . S
C339 C343 1.393 . S
C340 H329 0.950 . S
C340 C338 1.391 . S
C340 C341 1.400 . S
C341 C335 1.491 . S
C341 C340 1.400 . S
C341 C342 1.398 . S
C342 H330 0.950 . S
C342 C341 1.398 . S
C342 C343 1.391 . S
C343 H331 0.950 . S
C343 C339 1.393 . S
C343 C342 1.391 . S
H344 C352 0.950 . S
H345 C357 0.950 . S
H346 C354 0.950 . S
H347 C356 0.950 . S
H348 C358 0.950 . S
H349 C360 0.950 . S
H350 C362 0.950 . S
H351 C363 0.950 . S
C352 H344 0.950 . S
C352 C353 1.386 . S
C352 C354 1.391 . S
C353 C352 1.386 . S
C353 C357 1.393 . S
C354 H346 0.950 . S
C354 C352 1.391 . S
C354 C355 1.400 . S
C355 C354 1.400 . S
C355 C356 1.398 . S
C355 C361 1.491 . S
C356 H347 0.950 . S
C356 C355 1.398 . S
C356 C357 1.391 . S
C357 H345 0.950 . S
C357 C353 1.393 . S
C357 C356 1.391 . S
C358 H348 0.950 . S
C358 C359 1.386 . S
C358 C360 1.391 . S
C359 C358 1.386 . S
C359 C363 1.393 . S
C360 H349 0.950 . S
C360 C358 1.391 . S
C360 C361 1.400 . S
C361 C355 1.491 . S
C361 C360 1.400 . S
C361 C362 1.398 . S
C362 H350 0.950 . S
C362 C361 1.398 . S
C362 C363 1.391 . S
C363 H351 0.950 . S
C363 C359 1.393 . S
C363 C362 1.391 . S
H364 C372 0.950 . S
H365 C377 0.950 . S
H366 C374 0.950 . S
H367 C376 0.950 . S
H368 C378 0.950 . S
H369 C380 0.950 . S
H370 C382 0.950 . S
H371 C383 0.950 . S
C372 H364 0.950 . S
C372 C373 1.386 . S
C372 C374 1.391 . S
C373 C372 1.386 . S
C373 C377 1.393 . S
C374 H366 0.950 . S
C374 C372 1.391 . S
C374 C375 1.400 . S
C375 C374 1.400 . S
C375 C376 1.398 . S
C375 C381 1.491 . S
C376 H367 0.950 . S
C376 C375 1.398 . S
C376 C377 1.391 . S
C377 H365 0.950 . S
C377 C373 1.393 . S
C377 C376 1.391 . S
C378 H368 0.950 . S
C378 C379 1.386 . S
C378 C380 1.391 . S
C379 C378 1.386 . S
C379 C383 1.393 . S
C380 H369 0.950 . S
C380 C378 1.391 . S
C380 C381 1.400 . S
C381 C375 1.491 . S
C381 C380 1.400 . S
C381 C382 1.398 . S
C382 H370 0.950 . S
C382 C381 1.398 . S
C382 C383 1.391 . S
C383 H371 0.950 . S
C383 C379 1.393 . S
C383 C382 1.391 . S
H384 C392 0.950 . S
H385 C397 0.950 . S
H386 C394 0.950 . S
H387 C396 0.950 . S
H388 C398 0.950 . S
H389 C400 0.950 . S
H390 C402 0.950 . S
H391 C403 0.950 . S
C392 H384 0.950 . S
C392 C393 1.386 . S
C392 C394 1.391 . S
C393 C392 1.386 . S
C393 C397 1.393 . S
C394 H386 0.950 . S
C394 C392 1.391 . S
C394 C395 1.400 . S
C395 C394 1.400 . S
C395 C396 1.398 . S
C395 C401 1.491 1_556 S
C396 H387 0.950 . S
C396 C395 1.398 . S
C396 C397 1.391 . S
C397 H385 0.950 . S
C397 C393 1.393 . S
C397 C396 1.391 . S
C398 H388 0.950 . S
C398 C399 1.386 . S
C398 C400 1.391 . S
C399 C398 1.386 . S
C399 C403 1.393 . S
C400 H389 0.950 . S
C400 C398 1.391 . S
C400 C401 1.400 . S
C401 C395 1.491 1_554 S
C401 C400 1.400 . S
C401 C402 1.398 . S
C402 H390 0.950 . S
C402 C401 1.398 . S
C402 C403 1.391 . S
C403 H391 0.950 . S
C403 C399 1.393 . S
C403 C402 1.391 . S
H404 C412 0.950 . S
H405 C417 0.950 . S
H406 C414 0.950 . S
H407 C416 0.950 . S
H408 C418 0.950 . S
H409 C420 0.950 . S
H410 C422 0.950 . S
H411 C423 0.950 . S
C412 H404 0.950 . S
C412 C413 1.386 . S
C412 C414 1.391 . S
C413 C412 1.386 . S
C413 C417 1.393 . S
C414 H406 0.950 . S
C414 C412 1.391 . S
C414 C415 1.400 . S
C415 C414 1.400 . S
C415 C416 1.398 . S
C415 C421 1.491 1_556 S
C416 H407 0.950 . S
C416 C415 1.398 . S
C416 C417 1.391 . S
C417 H405 0.950 . S
C417 C413 1.393 . S
C417 C416 1.391 . S
C418 H408 0.950 . S
C418 C419 1.386 . S
C418 C420 1.391 . S
C419 C418 1.386 . S
C419 C423 1.393 . S
C420 H409 0.950 . S
C420 C418 1.391 . S
C420 C421 1.400 . S
C421 C415 1.491 1_554 S
C421 C420 1.400 . S
C421 C422 1.398 . S
C422 H410 0.950 . S
C422 C421 1.398 . S
C422 C423 1.391 . S
C423 H411 0.950 . S
C423 C419 1.393 . S
C423 C422 1.391 . S
H424 C432 0.950 . S
H425 C437 0.950 . S
H426 C434 0.950 . S
H427 C436 0.950 . S
H428 C438 0.950 . S
H429 C440 0.950 . S
H430 C442 0.950 . S
H431 C443 0.950 . S
C432 H424 0.950 . S
C432 C433 1.386 . S
C432 C434 1.391 . S
C433 C432 1.386 . S
C433 C437 1.393 . S
C434 H426 0.950 . S
C434 C432 1.391 . S
C434 C435 1.400 . S
C435 C434 1.400 . S
C435 C436 1.398 . S
C435 C441 1.491 1_556 S
C436 H427 0.950 . S
C436 C435 1.398 . S
C436 C437 1.391 . S
C437 H425 0.950 . S
C437 C433 1.393 . S
C437 C436 1.391 . S
C438 H428 0.950 . S
C438 C439 1.386 . S
C438 C440 1.391 . S
C439 C438 1.386 . S
C439 C443 1.393 . S
C440 H429 0.950 . S
C440 C438 1.391 . S
C440 C441 1.400 . S
C441 C435 1.491 1_554 S
C441 C440 1.400 . S
C441 C442 1.398 . S
C442 H430 0.950 . S
C442 C441 1.398 . S
C442 C443 1.391 . S
C443 H431 0.950 . S
C443 C439 1.393 . S
C443 C442 1.391 . S
H444 C452 0.950 . S
H445 C457 0.950 . S
H446 C454 0.950 . S
H447 C456 0.950 . S
H448 C458 0.950 . S
H449 C460 0.950 . S
H450 C462 0.950 . S
H451 C463 0.950 . S
C452 H444 0.950 . S
C452 C453 1.386 . S
C452 C454 1.391 . S
C453 C452 1.386 . S
C453 C457 1.393 . S
C454 H446 0.950 . S
C454 C452 1.391 . S
C454 C455 1.400 . S
C455 C454 1.400 . S
C455 C456 1.398 . S
C455 C461 1.491 1_554 S
C456 H447 0.950 . S
C456 C455 1.398 . S
C456 C457 1.391 . S
C457 H445 0.950 . S
C457 C453 1.393 . S
C457 C456 1.391 . S
C458 H448 0.950 . S
C458 C459 1.386 . S
C458 C460 1.391 . S
C459 C458 1.386 . S
C459 C463 1.393 . S
C460 H449 0.950 . S
C460 C458 1.391 . S
C460 C461 1.400 . S
C461 C455 1.491 1_556 S
C461 C460 1.400 . S
C461 C462 1.398 . S
C462 H450 0.950 . S
C462 C461 1.398 . S
C462 C463 1.391 . S
C463 H451 0.950 . S
C463 C459 1.393 . S
C463 C462 1.391 . S
H464 C472 0.950 . S
H465 C477 0.950 . S
H466 C474 0.950 . S
H467 C476 0.950 . S
H468 C478 0.950 . S
H469 C480 0.950 . S
H470 C482 0.950 . S
H471 C483 0.950 . S
C472 H464 0.950 . S
C472 C473 1.386 . S
C472 C474 1.391 . S
C473 C472 1.386 . S
C473 C477 1.393 . S
C474 H466 0.950 . S
C474 C472 1.391 . S
C474 C475 1.400 . S
C475 C474 1.400 . S
C475 C476 1.398 . S
C475 C481 1.491 1_455 S
C476 H467 0.950 . S
C476 C475 1.398 . S
C476 C477 1.391 . S
C477 H465 0.950 . S
C477 C473 1.393 . S
C477 C476 1.391 . S
C478 H468 0.950 . S
C478 C479 1.386 . S
C478 C480 1.391 . S
C479 C478 1.386 . S
C479 C483 1.393 . S
C480 H469 0.950 . S
C480 C478 1.391 . S
C480 C481 1.400 . S
C481 C475 1.491 1_655 S
C481 C480 1.400 . S
C481 C482 1.398 . S
C482 H470 0.950 . S
C482 C481 1.398 . S
C482 C483 1.391 . S
C483 H471 0.950 . S
C483 C479 1.393 . S
C483 C482 1.391 . S
H484 C492 0.950 . S
H485 C497 0.950 . S
H486 C494 0.950 . S
H487 C496 0.950 . S
H488 C498 0.950 . S
H489 C500 0.950 . S
H490 C502 0.950 . S
H491 C503 0.950 . S
C492 H484 0.950 . S
C492 C493 1.386 . S
C492 C494 1.391 . S
C493 C492 1.386 . S
C493 C497 1.393 . S
C494 H486 0.950 . S
C494 C492 1.391 . S
C494 C495 1.400 . S
C495 C494 1.400 . S
C495 C496 1.398 . S
C495 C501 1.491 1_565 S
C496 H487 0.950 . S
C496 C495 1.398 . S
C496 C497 1.391 . S
C497 H485 0.950 . S
C497 C493 1.393 . S
C497 C496 1.391 . S
C498 H488 0.950 . S
C498 C499 1.386 . S
C498 C500 1.391 . S
C499 C498 1.386 . S
C499 C503 1.393 . S
C500 H489 0.950 . S
C500 C498 1.391 . S
C500 C501 1.400 . S
C501 C495 1.491 1_545 S
C501 C500 1.400 . S
C501 C502 1.398 . S
C502 H490 0.950 . S
C502 C501 1.398 . S
C502 C503 1.391 . S
C503 H491 0.950 . S
C503 C499 1.393 . S
C503 C502 1.391 . S
H504 C512 0.950 . S
H505 C517 0.950 . S
H506 C514 0.950 . S
H507 C516 0.950 . S
H508 C518 0.950 . S
H509 C520 0.950 . S
H510 C522 0.950 . S
H511 C523 0.950 . S
C512 H504 0.950 . S
C512 C513 1.386 . S
C512 C514 1.391 . S
C513 C512 1.386 . S
C513 C517 1.393 . S
C514 H506 0.950 . S
C514 C512 1.391 . S
C514 C515 1.400 . S
C515 C514 1.400 . S
C515 C516 1.398 . S
C515 C521 1.491 1_655 S
C516 H507 0.950 . S
C516 C515 1.398 . S
C516 C517 1.391 . S
C517 H505 0.950 . S
C517 C513 1.393 . S
C517 C516 1.391 . S
C518 H508 0.950 . S
C518 C519 1.386 . S
C518 C520 1.391 . S
C519 C518 1.386 . S
C519 C523 1.393 . S
C520 H509 0.950 . S
C520 C518 1.391 . S
C520 C521 1.400 . S
C521 C515 1.491 1_455 S
C521 C520 1.400 . S
C521 C522 1.398 . S
C522 H510 0.950 . S
C522 C521 1.398 . S
C522 C523 1.391 . S
C523 H511 0.950 . S
C523 C519 1.393 . S
C523 C522 1.391 . S
H524 C532 0.950 . S
H525 C537 0.950 . S
H526 C534 0.950 . S
H527 C536 0.950 . S
H528 C538 0.950 . S
H529 C540 0.950 . S
H530 C542 0.950 . S
H531 C543 0.950 . S
C532 H524 0.950 . S
C532 C533 1.386 . S
C532 C534 1.391 . S
C533 C532 1.386 . S
C533 C537 1.393 . S
C534 H526 0.950 . S
C534 C532 1.391 . S
C534 C535 1.400 . S
C535 C534 1.400 . S
C535 C536 1.398 . S
C535 C541 1.491 1_545 S
C536 H527 0.950 . S
C536 C535 1.398 . S
C536 C537 1.391 . S
C537 H525 0.950 . S
C537 C533 1.393 . S
C537 C536 1.391 . S
C538 H528 0.950 . S
C538 C539 1.386 . S
C538 C540 1.391 . S
C539 C538 1.386 . S
C539 C543 1.393 . S
C540 H529 0.950 . S
C540 C538 1.391 . S
C540 C541 1.400 . S
C541 C535 1.491 1_565 S
C541 C540 1.400 . S
C541 C542 1.398 . S
C542 H530 0.950 . S
C542 C541 1.398 . S
C542 C543 1.391 . S
C543 H531 0.950 . S
C543 C539 1.393 . S
C543 C542 1.391 . S
H544 C552 0.950 . S
H545 C557 0.950 . S
H546 C554 0.950 . S
H547 C556 0.950 . S
H548 C558 0.950 . S
H549 C560 0.950 . S
H550 C562 0.950 . S
H551 C563 0.950 . S
C552 H544 0.950 . S
C552 C553 1.386 . S
C552 C554 1.391 . S
C553 C552 1.386 . S
C553 C557 1.393 . S
C554 H546 0.950 . S
C554 C552 1.391 . S
C554 C555 1.400 . S
C555 C554 1.400 . S
C555 C556 1.398 . S
C555 C561 1.491 1_655 S
C556 H547 0.950 . S
C556 C555 1.398 . S
C556 C557 1.391 . S
C557 H545 0.950 . S
C557 C553 1.393 . S
C557 C556 1.391 . S
C558 H548 0.950 . S
C558 C559 1.386 . S
C558 C560 1.391 . S
C559 C558 1.386 . S
C559 C563 1.393 . S
C560 H549 0.950 . S
C560 C558 1.391 . S
C560 C561 1.400 . S
C561 C555 1.491 1_455 S
C561 C560 1.400 . S
C561 C562 1.398 . S
C562 H550 0.950 . S
C562 C561 1.398 . S
C562 C563 1.391 . S
C563 H551 0.950 . S
C563 C559 1.393 . S
C563 C562 1.391 . S
H564 C572 0.950 . S
H565 C577 0.950 . S
H566 C574 0.950 . S
H567 C576 0.950 . S
H568 C578 0.950 . S
H569 C580 0.950 . S
H570 C582 0.950 . S
H571 C583 0.950 . S
C572 H564 0.950 . S
C572 C573 1.386 . S
C572 C574 1.391 . S
C573 C572 1.386 . S
C573 C577 1.393 . S
C574 H566 0.950 . S
C574 C572 1.391 . S
C574 C575 1.400 . S
C575 C574 1.400 . S
C575 C576 1.398 . S
C575 C581 1.491 1_565 S
C576 H567 0.950 . S
C576 C575 1.398 . S
C576 C577 1.391 . S
C577 H565 0.950 . S
C577 C573 1.393 . S
C577 C576 1.391 . S
C578 H568 0.950 . S
C578 C579 1.386 . S
C578 C580 1.391 . S
C579 C578 1.386 . S
C579 C583 1.393 . S
C580 H569 0.950 . S
C580 C578 1.391 . S
C580 C581 1.400 . S
C581 C575 1.491 1_545 S
C581 C580 1.400 . S
C581 C582 1.398 . S
C582 H570 0.950 . S
C582 C581 1.398 . S
C582 C583 1.391 . S
C583 H571 0.950 . S
C583 C579 1.393 . S
C583 C582 1.391 . S
H584 C592 0.950 . S
H585 C597 0.950 . S
H586 C594 0.950 . S
H587 C596 0.950 . S
H588 C598 0.950 . S
H589 C600 0.950 . S
H590 C602 0.950 . S
H591 C603 0.950 . S
C592 H584 0.950 . S
C592 C593 1.386 . S
C592 C594 1.391 . S
C593 C592 1.386 . S
C593 C597 1.393 . S
C594 H586 0.950 . S
C594 C592 1.391 . S
C594 C595 1.400 . S
C595 C594 1.400 . S
C595 C596 1.398 . S
C595 C601 1.491 1_455 S
C596 H587 0.950 . S
C596 C595 1.398 . S
C596 C597 1.391 . S
C597 H585 0.950 . S
C597 C593 1.393 . S
C597 C596 1.391 . S
C598 H588 0.950 . S
C598 C599 1.386 . S
C598 C600 1.391 . S
C599 C598 1.386 . S
C599 C603 1.393 . S
C600 H589 0.950 . S
C600 C598 1.391 . S
C600 C601 1.400 . S
C601 C595 1.491 1_655 S
C601 C600 1.400 . S
C601 C602 1.398 . S
C602 H590 0.950 . S
C602 C601 1.398 . S
C602 C603 1.391 . S
C603 H591 0.950 . S
C603 C599 1.393 . S
C603 C602 1.391 . S
H604 C612 0.950 . S
H605 C617 0.950 . S
H606 C614 0.950 . S
H607 C616 0.950 . S
H608 C618 0.950 . S
H609 C620 0.950 . S
H610 C622 0.950 . S
H611 C623 0.950 . S
C612 H604 0.950 . S
C612 C613 1.386 . S
C612 C614 1.391 . S
C613 C612 1.386 . S
C613 C617 1.393 . S
C614 H606 0.950 . S
C614 C612 1.391 . S
C614 C615 1.400 . S
C615 C614 1.400 . S
C615 C616 1.398 . S
C615 C621 1.491 1_565 S
C616 H607 0.950 . S
C616 C615 1.398 . S
C616 C617 1.391 . S
C617 H605 0.950 . S
C617 C613 1.393 . S
C617 C616 1.391 . S
C618 H608 0.950 . S
C618 C619 1.386 . S
C618 C620 1.391 . S
C619 C618 1.386 . S
C619 C623 1.393 . S
C620 H609 0.950 . S
C620 C618 1.391 . S
C620 C621 1.400 . S
C621 C615 1.491 1_545 S
C621 C620 1.400 . S
C621 C622 1.398 . S
C622 H610 0.950 . S
C622 C621 1.398 . S
C622 C623 1.391 . S
C623 H611 0.950 . S
C623 C619 1.393 . S
C623 C622 1.391 . S
H624 C632 0.950 . S
H625 C637 0.950 . S
H626 C634 0.950 . S
H627 C636 0.950 . S
H628 C638 0.950 . S
H629 C640 0.950 . S
H630 C642 0.950 . S
H631 C643 0.950 . S
C632 H624 0.950 . S
C632 C633 1.386 . S
C632 C634 1.391 . S
C633 C632 1.386 . S
C633 C637 1.393 . S
C634 H626 0.950 . S
C634 C632 1.391 . S
C634 C635 1.400 . S
C635 C634 1.400 . S
C635 C636 1.398 . S
C635 C641 1.491 . S
C636 H627 0.950 . S
C636 C635 1.398 . S
C636 C637 1.391 . S
C637 H625 0.950 . S
C637 C633 1.393 . S
C637 C636 1.391 . S
C638 H628 0.950 . S
C638 C639 1.386 . S
C638 C640 1.391 . S
C639 C638 1.386 . S
C639 C643 1.393 . S
C640 H629 0.950 . S
C640 C638 1.391 . S
C640 C641 1.400 . S
C641 C635 1.491 . S
C641 C640 1.400 . S
C641 C642 1.398 . S
C642 H630 0.950 . S
C642 C641 1.398 . S
C642 C643 1.391 . S
C643 H631 0.950 . S
C643 C639 1.393 . S
C643 C642 1.391 . S
H644 C652 0.950 . S
H645 C657 0.950 . S
H646 C654 0.950 . S
H647 C656 0.950 . S
H648 C658 0.950 . S
H649 C660 0.950 . S
H650 C662 0.950 . S
H651 C663 0.950 . S
C652 H644 0.950 . S
C652 C653 1.386 . S
C652 C654 1.391 . S
C653 C652 1.386 . S
C653 C657 1.393 . S
C654 H646 0.950 . S
C654 C652 1.391 . S
C654 C655 1.400 . S
C655 C654 1.400 . S
C655 C656 1.398 . S
C655 C661 1.491 . S
C656 H647 0.950 . S
C656 C655 1.398 . S
C656 C657 1.391 . S
C657 H645 0.950 . S
C657 C653 1.393 . S
C657 C656 1.391 . S
C658 H648 0.950 . S
C658 C659 1.386 . S
C658 C660 1.391 . S
C659 C658 1.386 . S
C659 C663 1.393 . S
C660 H649 0.950 . S
C660 C658 1.391 . S
C660 C661 1.400 . S
C661 C655 1.491 . S
C661 C660 1.400 . S
C661 C662 1.398 . S
C662 H650 0.950 . S
C662 C661 1.398 . S
C662 C663 1.391 . S
C663 H651 0.950 . S
C663 C659 1.393 . S
C663 C662 1.391 . S
H664 C672 0.950 . S
H665 C677 0.950 . S
H666 C674 0.950 . S
H667 C676 0.950 . S
H668 C678 0.950 . S
H669 C680 0.950 . S
H670 C682 0.950 . S
H671 C683 0.950 . S
C672 H664 0.950 . S
C672 C673 1.386 . S
C672 C674 1.391 . S
C673 C672 1.386 . S
C673 C677 1.393 . S
C674 H666 0.950 . S
C674 C672 1.391 . S
C674 C675 1.400 . S
C675 C674 1.400 . S
C675 C676 1.398 . S
C675 C681 1.491 . S
C676 H667 0.950 . S
C676 C675 1.398 . S
C676 C677 1.391 . S
C677 H665 0.950 . S
C677 C673 1.393 . S
C677 C676 1.391 . S
C678 H668 0.950 . S
C678 C679 1.386 . S
C678 C680 1.391 . S
C679 C678 1.386 . S
C679 C683 1.393 . S
C680 H669 0.950 . S
C680 C678 1.391 . S
C680 C681 1.400 . S
C681 C675 1.491 . S
C681 C680 1.400 . S
C681 C682 1.398 . S
C682 H670 0.950 . S
C682 C681 1.398 . S
C682 C683 1.391 . S
C683 H671 0.950 . S
C683 C679 1.393 . S
C683 C682 1.391 . S
H684 C692 0.950 . S
H685 C697 0.950 . S
H686 C694 0.950 . S
H687 C696 0.950 . S
H688 C698 0.950 . S
H689 C700 0.950 . S
H690 C702 0.950 . S
H691 C703 0.950 . S
C692 H684 0.950 . S
C692 C693 1.386 . S
C692 C694 1.391 . S
C693 C692 1.386 . S
C693 C697 1.393 . S
C694 H686 0.950 . S
C694 C692 1.391 . S
C694 C695 1.400 . S
C695 C694 1.400 . S
C695 C696 1.398 . S
C695 C701 1.491 . S
C696 H687 0.950 . S
C696 C695 1.398 . S
C696 C697 1.391 . S
C697 H685 0.950 . S
C697 C693 1.393 . S
C697 C696 1.391 . S
C698 H688 0.950 . S
C698 C699 1.386 . S
C698 C700 1.391 . S
C699 C698 1.386 . S
C699 C703 1.393 . S
C700 H689 0.950 . S
C700 C698 1.391 . S
C700 C701 1.400 . S
C701 C695 1.491 . S
C701 C700 1.400 . S
C701 C702 1.398 . S
C702 H690 0.950 . S
C702 C701 1.398 . S
C702 C703 1.391 . S
C703 H691 0.950 . S
C703 C699 1.393 . S
C703 C702 1.391 . S
H704 C712 0.950 . S
H705 C717 0.950 . S
H706 C714 0.950 . S
H707 C716 0.950 . S
H708 C718 0.950 . S
H709 C720 0.950 . S
H710 C722 0.950 . S
H711 C723 0.950 . S
C712 H704 0.950 . S
C712 C713 1.386 . S
C712 C714 1.391 . S
C713 C712 1.386 . S
C713 C717 1.393 . S
C714 H706 0.950 . S
C714 C712 1.391 . S
C714 C715 1.400 . S
C715 C714 1.400 . S
C715 C716 1.398 . S
C715 C721 1.491 . S
C716 H707 0.950 . S
C716 C715 1.398 . S
C716 C717 1.391 . S
C717 H705 0.950 . S
C717 C713 1.393 . S
C717 C716 1.391 . S
C718 H708 0.950 . S
C718 C719 1.386 . S
C718 C720 1.391 . S
C719 C718 1.386 . S
C719 C723 1.393 . S
C720 H709 0.950 . S
C720 C718 1.391 . S
C720 C721 1.400 . S
C721 C715 1.491 . S
C721 C720 1.400 . S
C721 C722 1.398 . S
C722 H710 0.950 . S
C722 C721 1.398 . S
C722 C723 1.391 . S
C723 H711 0.950 . S
C723 C719 1.393 . S
C723 C722 1.391 . S
H724 C732 0.950 . S
H725 C737 0.950 . S
H726 C734 0.950 . S
H727 C736 0.950 . S
H728 C738 0.950 . S
H729 C740 0.950 . S
H730 C742 0.950 . S
H731 C743 0.950 . S
C732 H724 0.950 . S
C732 C733 1.386 . S
C732 C734 1.391 . S
C733 C732 1.386 . S
C733 C737 1.393 . S
C734 H726 0.950 . S
C734 C732 1.391 . S
C734 C735 1.400 . S
C735 C734 1.400 . S
C735 C736 1.398 . S
C735 C741 1.491 . S
C736 H727 0.950 . S
C736 C735 1.398 . S
C736 C737 1.391 . S
C737 H725 0.950 . S
C737 C733 1.393 . S
C737 C736 1.391 . S
C738 H728 0.950 . S
C738 C739 1.386 . S
C738 C740 1.391 . S
C739 C738 1.386 . S
C739 C743 1.393 . S
C740 H729 0.950 . S
C740 C738 1.391 . S
C740 C741 1.400 . S
C741 C735 1.491 . S
C741 C740 1.400 . S
C741 C742 1.398 . S
C742 H730 0.950 . S
C742 C741 1.398 . S
C742 C743 1.391 . S
C743 H731 0.950 . S
C743 C739 1.393 . S
C743 C742 1.391 . S
H744 C752 0.950 . S
H745 C757 0.950 . S
H746 C754 0.950 . S
H747 C756 0.950 . S
H748 C758 0.950 . S
H749 C760 0.950 . S
H750 C762 0.950 . S
H751 C763 0.950 . S
C752 H744 0.950 . S
C752 C753 1.386 . S
C752 C754 1.391 . S
C753 C752 1.386 . S
C753 C757 1.393 . S
C754 H746 0.950 . S
C754 C752 1.391 . S
C754 C755 1.400 . S
C755 C754 1.400 . S
C755 C756 1.398 . S
C755 C761 1.491 . S
C756 H747 0.950 . S
C756 C755 1.398 . S
C756 C757 1.391 . S
C757 H745 0.950 . S
C757 C753 1.393 . S
C757 C756 1.391 . S
C758 H748 0.950 . S
C758 C759 1.386 . S
C758 C760 1.391 . S
C759 C758 1.386 . S
C759 C763 1.393 . S
C760 H749 0.950 . S
C760 C758 1.391 . S
C760 C761 1.400 . S
C761 C755 1.491 . S
C761 C760 1.400 . S
C761 C762 1.398 . S
C762 H750 0.950 . S
C762 C761 1.398 . S
C762 C763 1.391 . S
C763 H751 0.950 . S
C763 C759 1.393 . S
C763 C762 1.391 . S
H764 C772 0.950 . S
H765 C777 0.950 . S
H766 C774 0.950 . S
H767 C776 0.950 . S
H768 C778 0.950 . S
H769 C780 0.950 . S
H770 C782 0.950 . S
H771 C783 0.950 . S
C772 H764 0.950 . S
C772 C773 1.386 . S
C772 C774 1.391 . S
C773 C772 1.386 . S
C773 C777 1.393 . S
C774 H766 0.950 . S
C774 C772 1.391 . S
C774 C775 1.400 . S
C775 C774 1.400 . S
C775 C776 1.398 . S
C775 C781 1.491 . S
C776 H767 0.950 . S
C776 C775 1.398 . S
C776 C777 1.391 . S
C777 H765 0.950 . S
C777 C773 1.393 . S
C777 C776 1.391 . S
C778 H768 0.950 . S
C778 C779 1.386 . S
C778 C780 1.391 . S
C779 C778 1.386 . S
C779 C783 1.393 . S
C780 H769 0.950 . S
C780 C778 1.391 . S
C780 C781 1.400 . S
C781 C775 1.491 . S
C781 C780 1.400 . S
C781 C782 1.398 . S
C782 H770 0.950 . S
C782 C781 1.398 . S
C782 C783 1.391 . S
C783 H771 0.950 . S
C783 C779 1.393 . S
C783 C782 1.391 . S
H784 C792 0.950 . S
H785 C797 0.950 . S
H786 C794 0.950 . S
H787 C796 0.950 . S
H788 C798 0.950 . S
H789 C800 0.950 . S
H790 C802 0.950 . S
H791 C803 0.950 . S
C792 H784 0.950 . S
C792 C793 1.386 . S
C792 C794 1.391 . S
C793 C792 1.386 . S
C793 C797 1.393 . S
C794 H786 0.950 . S
C794 C792 1.391 . S
C794 C795 1.400 . S
C795 C794 1.400 . S
C795 C796 1.398 . S
C795 C801 1.491 . S
C796 H787 0.950 . S
C796 C795 1.398 . S
C796 C797 1.391 . S
C797 H785 0.950 . S
C797 C793 1.393 . S
C797 C796 1.391 . S
C798 H788 0.950 . S
C798 C799 1.386 . S
C798 C800 1.391 . S
C799 C798 1.386 . S
C799 C803 1.393 . S
C800 H789 0.950 . S
C800 C798 1.391 . S
C800 C801 1.400 . S
C801 C795 1.491 . S
C801 C800 1.400 . S
C801 C802 1.398 . S
C802 H790 0.950 . S
C802 C801 1.398 . S
C802 C803 1.391 . S
C803 H791 0.950 . S
C803 C799 1.393 . S
C803 C802 1.391 . S
H804 C812 0.950 . S
H805 C817 0.950 . S
H806 C814 0.950 . S
H807 C816 0.950 . S
H808 C818 0.950 . S
H809 C820 0.950 . S
H810 C822 0.950 . S
H811 C823 0.950 . S
C812 H804 0.950 . S
C812 C813 1.386 . S
C812 C814 1.391 . S
C813 C812 1.386 . S
C813 C817 1.393 . S
C814 H806 0.950 . S
C814 C812 1.391 . S
C814 C815 1.400 . S
C815 C814 1.400 . S
C815 C816 1.398 . S
C815 C821 1.491 . S
C816 H807 0.950 . S
C816 C815 1.398 . S
C816 C817 1.391 . S
C817 H805 0.950 . S
C817 C813 1.393 . S
C817 C816 1.391 . S
C818 H808 0.950 . S
C818 C819 1.386 . S
C818 C820 1.391 . S
C819 C818 1.386 . S
C819 C823 1.393 . S
C820 H809 0.950 . S
C820 C818 1.391 . S
C820 C821 1.400 . S
C821 C815 1.491 . S
C821 C820 1.400 . S
C821 C822 1.398 . S
C822 H810 0.950 . S
C822 C821 1.398 . S
C822 C823 1.391 . S
C823 H811 0.950 . S
C823 C819 1.393 . S
C823 C822 1.391 . S
H824 C832 0.950 . S
H825 C837 0.950 . S
H826 C834 0.950 . S
H827 C836 0.950 . S
H828 C838 0.950 . S
H829 C840 0.950 . S
H830 C842 0.950 . S
H831 C843 0.950 . S
C832 H824 0.950 . S
C832 C833 1.386 . S
C832 C834 1.391 . S
C833 C832 1.386 . S
C833 C837 1.393 . S
C834 H826 0.950 . S
C834 C832 1.391 . S
C834 C835 1.400 . S
C835 C834 1.400 . S
C835 C836 1.398 . S
C835 C841 1.491 . S
C836 H827 0.950 . S
C836 C835 1.398 . S
C836 C837 1.391 . S
C837 H825 0.950 . S
C837 C833 1.393 . S
C837 C836 1.391 . S
C838 H828 0.950 . S
C838 C839 1.386 . S
C838 C840 1.391 . S
C839 C838 1.386 . S
C839 C843 1.393 . S
C840 H829 0.950 . S
C840 C838 1.391 . S
C840 C841 1.400 . S
C841 C835 1.491 . S
C841 C840 1.400 . S
C841 C842 1.398 . S
C842 H830 0.950 . S
C842 C841 1.398 . S
C842 C843 1.391 . S
C843 H831 0.950 . S
C843 C839 1.393 . S
C843 C842 1.391 . S
H844 C852 0.950 . S
H845 C857 0.950 . S
H846 C854 0.950 . S
H847 C856 0.950 . S
H848 C858 0.950 . S
H849 C860 0.950 . S
H850 C862 0.950 . S
H851 C863 0.950 . S
C852 H844 0.950 . S
C852 C853 1.386 . S
C852 C854 1.391 . S
C853 C852 1.386 . S
C853 C857 1.393 . S
C854 H846 0.950 . S
C854 C852 1.391 . S
C854 C855 1.400 . S
C855 C854 1.400 . S
C855 C856 1.398 . S
C855 C861 1.491 . S
C856 H847 0.950 . S
C856 C855 1.398 . S
C856 C857 1.391 . S
C857 H845 0.950 . S
C857 C853 1.393 . S
C857 C856 1.391 . S
C858 H848 0.950 . S
C858 C859 1.386 . S
C858 C860 1.391 . S
C859 C858 1.386 . S
C859 C863 1.393 . S
C860 H849 0.950 . S
C860 C858 1.391 . S
C860 C861 1.400 . S
C861 C855 1.491 . S
C861 C860 1.400 . S
C861 C862 1.398 . S
C862 H850 0.950 . S
C862 C861 1.398 . S
C862 C863 1.391 . S
C863 H851 0.950 . S
C863 C859 1.393 . S
C863 C862 1.391 . S
C233 C221 1.028 . S
C239 C11 1.035 . S
C253 C179 1.037 . S
C259 C25 1.036 . S
C273 C39 1.035 . S
C279 C193 1.039 . S
C293 C207 1.041 . S
C299 C53 1.026 . S
C313 C137 1.036 . S
C319 C67 1.037 . S
C333 C81 1.040 . S
C339 C151 1.026 . S
C353 C95 1.037 . S
C359 C165 1.027 . S
C373 C109 1.029 . S
C379 C123 1.035 . S
C393 C79 1.444 . S
C399 C5 1.479 . S
C413 C89 1.478 . S
C419 C23 1.458 . S
C433 C107 1.448 . S
C439 C33 1.479 . S
C453 C51 1.457 . S
C459 C61 1.479 . S
C473 C0 1.536 . S
C479 C14 1.517 . S
C493 C37 1.442 . S
C499 C19 1.479 . S
C513 C28 1.521 . S
C519 C42 1.539 . S
C533 C9 1.447 . S
C539 C47 1.480 . S
C553 C98 1.525 . S
C559 C56 1.521 . S
C573 C65 1.451 . S
C579 C75 1.479 . S
C593 C70 1.539 . S
C599 C84 1.523 . S
C613 C103 1.480 . S
C619 C93 1.440 . S
C633 C191 1.445 . S
C639 C117 1.480 . S
C653 C135 1.446 . S
C659 C201 1.480 . S
C673 C219 1.453 . S
C679 C145 1.479 . S
C693 C173 1.479 . S
C699 C163 1.457 . S
C713 C112 1.538 . S
C719 C126 1.524 . S
C733 C131 1.480 . S
C739 C149 1.443 . S
C753 C154 1.517 . S
C759 C140 1.535 . S
C773 C121 1.445 . S
C779 C159 1.479 . S
C793 C210 1.536 . S
C799 C168 1.528 . S
C813 C177 1.450 . S
C819 C187 1.479 . S
C833 C182 1.539 . S
C839 C196 1.521 . S
C853 C215 1.479 . S
C859 C205 1.451 . S
