# Generated by pormake.
# Topology umz, (4)-cn, num edge types: 1
# Building blocks:
#     Node 0, Type 0, BuildingBlock: TATPOV_clean_sbu_0, # of connection points: 4
#     Node 1, Type 0, BuildingBlock: TATPOV_clean_sbu_0, # of connection points: 4
#     Node 2, Type 0, BuildingBlock: TATPOV_clean_sbu_0, # of connection points: 4
#     Node 3, Type 0, BuildingBlock: TATPOV_clean_sbu_0, # of connection points: 4
#     Node 4, Type 0, BuildingBlock: TATPOV_clean_sbu_0, # of connection points: 4
#     Node 5, Type 0, BuildingBlock: TATPOV_clean_sbu_0, # of connection points: 4
#     Node 6, Type 0, BuildingBlock: TATPOV_clean_sbu_0, # of connection points: 4
#     Node 7, Type 0, BuildingBlock: TATPOV_clean_sbu_0, # of connection points: 4
#     Node 8, Type 0, BuildingBlock: TATPOV_clean_sbu_0, # of connection points: 4
#     Node 9, Type 0, BuildingBlock: TATPOV_clean_sbu_0, # of connection points: 4
#     Node 10, Type 0, BuildingBlock: TATPOV_clean_sbu_0, # of connection points: 4
#     Node 11, Type 0, BuildingBlock: TATPOV_clean_sbu_0, # of connection points: 4
#     Node 12, Type 0, BuildingBlock: TATPOV_clean_sbu_0, # of connection points: 4
#     Node 13, Type 0, BuildingBlock: TATPOV_clean_sbu_0, # of connection points: 4
#     Node 14, Type 0, BuildingBlock: TATPOV_clean_sbu_0, # of connection points: 4
#     Node 15, Type 0, BuildingBlock: TATPOV_clean_sbu_0, # of connection points: 4
#     Edge 16, Type (0, 0), BuildingBlock: AJUNOK_clean_linker_0, # of connection points: 2
#     Edge 17, Type (0, 0), BuildingBlock: AJUNOK_clean_linker_0, # of connection points: 2
#     Edge 18, Type (0, 0), BuildingBlock: AJUNOK_clean_linker_0, # of connection points: 2
#     Edge 19, Type (0, 0), BuildingBlock: AJUNOK_clean_linker_0, # of connection points: 2
#     Edge 20, Type (0, 0), BuildingBlock: AJUNOK_clean_linker_0, # of connection points: 2
#     Edge 21, Type (0, 0), BuildingBlock: AJUNOK_clean_linker_0, # of connection points: 2
#     Edge 22, Type (0, 0), BuildingBlock: AJUNOK_clean_linker_0, # of connection points: 2
#     Edge 23, Type (0, 0), BuildingBlock: AJUNOK_clean_linker_0, # of connection points: 2
#     Edge 24, Type (0, 0), BuildingBlock: AJUNOK_clean_linker_0, # of connection points: 2
#     Edge 25, Type (0, 0), BuildingBlock: AJUNOK_clean_linker_0, # of connection points: 2
#     Edge 26, Type (0, 0), BuildingBlock: AJUNOK_clean_linker_0, # of connection points: 2
#     Edge 27, Type (0, 0), BuildingBlock: AJUNOK_clean_linker_0, # of connection points: 2
#     Edge 28, Type (0, 0), BuildingBlock: AJUNOK_clean_linker_0, # of connection points: 2
#     Edge 29, Type (0, 0), BuildingBlock: AJUNOK_clean_linker_0, # of connection points: 2
#     Edge 30, Type (0, 0), BuildingBlock: AJUNOK_clean_linker_0, # of connection points: 2
#     Edge 31, Type (0, 0), BuildingBlock: AJUNOK_clean_linker_0, # of connection points: 2
#     Edge 32, Type (0, 0), BuildingBlock: AJUNOK_clean_linker_0, # of connection points: 2
#     Edge 33, Type (0, 0), BuildingBlock: AJUNOK_clean_linker_0, # of connection points: 2
#     Edge 34, Type (0, 0), BuildingBlock: AJUNOK_clean_linker_0, # of connection points: 2
#     Edge 35, Type (0, 0), BuildingBlock: AJUNOK_clean_linker_0, # of connection points: 2
#     Edge 36, Type (0, 0), BuildingBlock: AJUNOK_clean_linker_0, # of connection points: 2
#     Edge 37, Type (0, 0), BuildingBlock: AJUNOK_clean_linker_0, # of connection points: 2
#     Edge 38, Type (0, 0), BuildingBlock: AJUNOK_clean_linker_0, # of connection points: 2
#     Edge 39, Type (0, 0), BuildingBlock: AJUNOK_clean_linker_0, # of connection points: 2
#     Edge 40, Type (0, 0), BuildingBlock: AJUNOK_clean_linker_0, # of connection points: 2
#     Edge 41, Type (0, 0), BuildingBlock: AJUNOK_clean_linker_0, # of connection points: 2
#     Edge 42, Type (0, 0), BuildingBlock: AJUNOK_clean_linker_0, # of connection points: 2
#     Edge 43, Type (0, 0), BuildingBlock: AJUNOK_clean_linker_0, # of connection points: 2
#     Edge 44, Type (0, 0), BuildingBlock: AJUNOK_clean_linker_0, # of connection points: 2
#     Edge 45, Type (0, 0), BuildingBlock: AJUNOK_clean_linker_0, # of connection points: 2
#     Edge 46, Type (0, 0), BuildingBlock: AJUNOK_clean_linker_0, # of connection points: 2
#     Edge 47, Type (0, 0), BuildingBlock: AJUNOK_clean_linker_0, # of connection points: 2
# Relax obj value: 0.190
# Max RMSD: 0.158
# Mean RMSD: 0.157
data_MOF--net-umz--node1-TATPOV_clean_sbu_0--edge1-AJUNOK_clean_linker_0
_symmetry_space_group_name_H-M    P1
_symmetry_Int_Tables_number       1
_symmetry_cell_setting            triclinic
loop_
_symmetry_equiv_pos_as_xyz
'x, y, z'
_cell_length_a     44.108053
_cell_length_b     44.20058
_cell_length_c     16.019791
_cell_angle_alpha  89.935007
_cell_angle_beta   89.97386
_cell_angle_gamma 89.850654
loop_
_atom_site_label
_atom_site_type_symbol
_atom_site_fract_x
_atom_site_fract_y
_atom_site_fract_z
_atom_type_partial_charge
Zn0 Zn 0.99534 0.59258 0.97062 0.0
Zn1 Zn 0.0269 0.63378 0.01756 0.0
O2 O 0.98744 0.63005 0.0908 0.0
O3 O 0.95683 0.59727 0.03357 0.0
O4 O 0.03875 0.6776 0.02928 0.0
O5 O 0.996 0.59816 0.84767 0.0
O6 O 0.03473 0.6244 0.89154 0.0
C7 C 0.96234 0.61565 0.09178 0.0
C8 C 0.0524 0.57787 0.06843 0.0
O9 O 0.05636 0.60629 0.0755 0.0
O10 O 0.02972 0.56802 0.02761 0.0
C11 C 0.02295 0.69536 0.98423 0.0
O12 O 1.00189 0.68359 0.93628 0.0
C13 C 0.02062 0.61144 0.83222 0.0
Zn14 Zn 0.92238 0.99083 0.49235 0.0
Zn15 Zn 0.87593 0.01964 0.52966 0.0
O16 O 0.87867 0.98104 0.60597 0.0
O17 O 0.91662 0.9537 0.56028 0.0
O18 O 0.83191 0.03253 0.53758 0.0
O19 O 0.91875 0.98931 0.36916 0.0
O20 O 0.88481 0.02338 0.40205 0.0
C21 C 0.89537 0.95747 0.61204 0.0
C22 C 0.93142 0.0493 0.58264 0.0
O23 O 0.90258 0.05096 0.58523 0.0
O24 O 0.94406 0.02696 0.54666 0.0
C25 C 0.81434 0.02021 0.48461 0.0
O26 O 0.82585 1.00041 0.4323 0.0
C27 C 0.90101 0.01023 0.34699 0.0
Zn28 Zn 0.5213 0.92192 0.97391 0.0
Zn29 Zn 0.49699 0.87439 0.0186 0.0
O30 O 0.536 0.88302 0.09023 0.0
O31 O 0.56021 0.92145 0.03642 0.0
O32 O 0.49121 0.82911 0.03388 0.0
O33 O 0.52093 0.91719 0.85093 0.0
O34 O 0.48904 0.88237 0.89186 0.0
C35 C 0.55838 0.90131 0.09202 0.0
C36 C 0.46325 0.92673 0.07201 0.0
O37 O 0.46396 0.89795 0.07683 0.0
O38 O 0.48392 0.9406 0.03198 0.0
C39 C 0.4803 0.81147 0.9788 0.0
O40 O 0.46929 0.82311 0.90968 0.0
C41 C 0.50023 0.89859 0.83378 0.0
Zn42 Zn 0.59113 0.51986 0.4614 0.0
Zn43 Zn 0.63843 0.49472 0.50673 0.0
O44 O 0.63223 0.5346 0.5771 0.0
O45 O 0.59292 0.55827 0.52467 0.0
O46 O 0.68274 0.48393 0.52171 0.0
O47 O 0.59696 0.52004 0.33888 0.0
O48 O 0.63162 0.4877 0.37914 0.0
C49 C 0.61383 0.55703 0.57832 0.0
C50 C 0.58412 0.46258 0.55811 0.0
O51 O 0.61292 0.46297 0.56397 0.0
O52 O 0.57061 0.48333 0.51748 0.0
C53 C 0.70155 0.50047 0.48254 0.0
O54 O 0.69102 0.52324 0.43829 0.0
C55 C 0.6157 0.49947 0.32111 0.0
Zn56 Zn 0.98709 0.9411 0.02065 0.0
Zn57 Zn 1.00373 0.88704 0.97897 0.0
O58 O 0.9629 0.89569 0.91717 0.0
O59 O 0.94792 0.94065 0.95808 0.0
O60 O 0.00996 0.84221 0.96161 0.0
O61 O 0.98814 0.93427 0.14365 0.0
O62 O 0.01055 0.89207 0.10606 0.0
C63 C 0.9437 0.91735 0.914 0.0
C64 C 0.04348 0.93686 0.92053 0.0
O65 O 0.0379 0.9086 0.91826 0.0
O66 O 0.02585 0.95448 0.96026 0.0
C67 C 0.02987 0.82704 0.0012 0.0
O68 O 0.04827 0.84128 0.05213 0.0
C69 C 1.00289 0.91074 0.16282 0.0
Zn70 Zn 0.57035 0.99169 0.50627 0.0
Zn71 Zn 0.62144 0.01397 0.46533 0.0
O72 O 0.61631 0.97358 0.39837 0.0
O73 O 0.57342 0.95376 0.43979 0.0
O74 O 0.66615 0.02258 0.44865 0.0
O75 O 0.57607 0.99166 0.62944 0.0
O76 O 0.61481 0.01967 0.59298 0.0
C77 C 0.59665 0.95249 0.39396 0.0
C78 C 0.56789 0.04901 0.41055 0.0
O79 O 0.59667 0.04657 0.40672 0.0
O80 O 0.55262 0.02935 0.45019 0.0
C81 C 0.68324 0.0359 0.50095 0.0
O82 O 0.67119 0.04744 0.56885 0.0
C83 C 0.5972 0.00945 0.64939 0.0
Zn84 Zn 0.51915 0.56683 0.98175 0.0
Zn85 Zn 0.49788 0.61881 0.94551 0.0
O86 O 0.53919 0.61486 0.88089 0.0
O87 O 0.55756 0.57068 0.91754 0.0
O88 O 0.48753 0.6635 0.93784 0.0
O89 O 0.5186 0.57039 0.10549 0.0
O90 O 0.49102 0.60985 0.07179 0.0
C91 C 0.55986 0.59464 0.87506 0.0
C92 C 0.46243 0.56676 0.88337 0.0
O93 O 0.46557 0.59543 0.88168 0.0
O94 O 0.48153 0.55057 0.92251 0.0
C95 C 0.49937 0.6807 0.99251 0.0
O96 O 0.51781 0.66864 0.04775 0.0
C97 C 0.50075 0.59137 0.1268 0.0
Zn98 Zn 0.94911 0.52163 0.50133 0.0
Zn99 Zn 0.89496 0.50569 0.4676 0.0
O100 O 0.90283 0.54588 0.40212 0.0
O101 O 0.94883 0.55988 0.4353 0.0
O102 O 0.84947 0.50161 0.45588 0.0
O103 O 0.9454 0.52128 0.62523 0.0
O104 O 0.90258 0.49878 0.59458 0.0
C105 C 0.92483 0.56437 0.3942 0.0
C106 C 0.94361 0.4653 0.40438 0.0
O107 O 0.91526 0.47102 0.40467 0.0
O108 O 0.96173 0.48277 0.44243 0.0
C109 C 0.83284 0.48291 0.49514 0.0
O110 O 0.84566 0.46297 0.54476 0.0
C111 C 0.92251 0.50633 0.64832 0.0
Zn112 Zn 0.0234 0.41498 0.00153 0.0
Zn113 Zn 0.99022 0.37389 0.96009 0.0
O114 O 0.02853 0.37622 0.88232 0.0
O115 O 0.061 0.40804 0.93572 0.0
O116 O 0.97684 0.33021 0.95363 0.0
O117 O 0.02388 0.41111 0.12525 0.0
O118 O 0.98489 0.38436 0.08635 0.0
C119 C 0.05401 0.38984 0.87823 0.0
C120 C 0.96563 0.43021 0.90698 0.0
O121 O 0.96064 0.40185 0.90346 0.0
O122 O 0.98915 0.43984 0.94451 0.0
C123 C 0.98967 0.31309 0.00702 0.0
O124 O 0.00963 0.32507 0.05794 0.0
C125 C 0.99947 0.39794 0.14372 0.0
Zn126 Zn 0.08312 0.01368 0.51615 0.0
Zn127 Zn 0.12944 0.98674 0.47207 0.0
O128 O 0.125 0.02662 0.40079 0.0
O129 O 0.08621 0.05166 0.45101 0.0
O130 O 0.17365 0.97549 0.4591 0.0
O131 O 0.08889 0.0144 0.63859 0.0
O132 O 0.12198 0.98026 0.59967 0.0
C133 C 0.10742 0.04967 0.39849 0.0
C134 C 0.07442 0.95602 0.42219 0.0
O135 O 0.1032 0.95555 0.41533 0.0
O136 O 0.06167 0.97736 0.46227 0.0
C137 C 0.19139 0.99169 0.50275 0.0
O138 O 0.17946 0.01321 0.54887 0.0
C139 C 0.10663 0.99303 0.65717 0.0
Zn140 Zn 0.48556 0.08 0.00335 0.0
Zn141 Zn 0.51039 0.12921 0.96405 0.0
O142 O 0.47182 0.12245 0.89073 0.0
O143 O 0.44735 0.08294 0.93766 0.0
O144 O 0.51853 0.17386 0.94584 0.0
O145 O 0.4853 0.0844 0.12634 0.0
O146 O 0.51467 0.12235 0.09232 0.0
C147 C 0.44943 0.10431 0.88559 0.0
C148 C 0.54438 0.0758 0.91112 0.0
O149 O 0.54382 0.10463 0.90934 0.0
O150 O 0.52306 0.06146 0.94684 0.0
C151 C 0.5297 0.19192 -0.00063 0.0
O152 O 0.53904 0.18112 0.07134 0.0
C153 C 0.50375 0.10475 0.14777 0.0
Zn154 Zn 0.42435 0.48247 0.48537 0.0
Zn155 Zn 0.37779 0.50826 0.44064 0.0
O156 O 0.38462 0.46884 0.36908 0.0
O157 O 0.42269 0.44378 0.42315 0.0
O158 O 0.33292 0.51745 0.42971 0.0
O159 O 0.41948 0.48267 0.60831 0.0
O160 O 0.3861 0.51614 0.56721 0.0
C161 C 0.40251 0.44602 0.36762 0.0
C162 C 0.43128 0.53999 0.38689 0.0
O163 O 0.40244 0.54016 0.38175 0.0
O164 O 0.44453 0.51897 0.42723 0.0
C165 C 0.31599 0.5031 0.48045 0.0
O166 O 0.32877 0.48381 0.53211 0.0
C167 C 0.40177 0.5042 0.62543 0.0
Zn168 Zn 0.0185 0.06827 0.98559 0.0
Zn169 Zn 0.99912 0.12065 0.02689 0.0
O170 O 0.03937 0.11347 0.09345 0.0
O171 O 0.05655 0.06941 0.05259 0.0
O172 O 0.99175 0.1654 0.04421 0.0
O173 O 0.01858 0.07438 0.86237 0.0
O174 O 0.99321 0.11492 0.89923 0.0
C175 C 0.05921 0.09245 0.0984 0.0
C176 C 0.96136 0.06902 0.08167 0.0
O177 O 0.96546 0.09753 0.08524 0.0
O178 O 0.98004 0.05256 0.04185 0.0
C179 C 0.97607 0.18207 -0.00419 0.0
O180 O 0.96184 0.16961 0.93262 0.0
C181 C 1.00224 0.09677 0.84264 0.0
Zn182 Zn 0.43811 0.01499 0.47488 0.0
Zn183 Zn 0.38582 0.9946 0.51299 0.0
O184 O 0.39287 0.03513 0.57676 0.0
O185 O 0.43597 0.05444 0.535 0.0
O186 O 0.34069 0.98925 0.52918 0.0
O187 O 0.43353 0.01291 0.3518 0.0
O188 O 0.39268 0.98759 0.38605 0.0
C189 C 0.41263 0.05613 0.58045 0.0
C190 C 0.43708 0.9581 0.57474 0.0
O191 O 0.40832 0.96116 0.57513 0.0
O192 O 0.45343 0.97739 0.53701 0.0
C193 C 0.32264 0.97486 0.48183 0.0
O194 O 0.33371 0.95926 0.41902 0.0
C195 C 0.41167 0.99614 0.3309 0.0
Zn196 Zn 0.49858 0.43758 0.96517 0.0
Zn197 Zn 0.51949 0.38524 0.00244 0.0
O198 O 0.47803 0.38936 0.06577 0.0
O199 O 0.46018 0.43381 0.0295 0.0
O200 O 0.52964 0.34068 0.01439 0.0
O201 O 0.49901 0.4329 0.84177 0.0
O202 O 0.52599 0.39297 0.87539 0.0
C203 C 0.45743 0.40966 0.0709 0.0
C204 C 0.55534 0.43766 0.06261 0.0
O205 O 0.55191 0.40903 0.06491 0.0
O206 O 0.53633 0.45393 0.02341 0.0
C207 C 0.51785 0.32277 0.96142 0.0
O208 O 0.49996 0.33414 0.90378 0.0
C209 C 0.51624 0.41142 0.8203 0.0
Zn210 Zn 0.06556 0.48634 0.47326 0.0
Zn211 Zn 0.12124 0.50041 0.50708 0.0
O212 O 0.11184 0.4599 0.56925 0.0
O213 O 0.0656 0.44689 0.53429 0.0
O214 O 0.16692 0.50357 0.51914 0.0
O215 O 0.06965 0.48789 0.34954 0.0
O216 O 0.11373 0.50781 0.3807 0.0
C217 C 0.08958 0.44157 0.5749 0.0
C218 C 0.07404 0.54208 0.5734 0.0
O219 O 0.10218 0.53539 0.57172 0.0
O220 O 0.05503 0.5253 0.53621 0.0
C221 C 0.18427 0.51786 0.46936 0.0
O222 O 0.17219 0.53334 0.40768 0.0
C223 C 0.09344 0.50146 0.32688 0.0
C224 C 0.00805 0.74727 0.93768 0.0
C225 C 0.02686 0.72875 0.98717 0.0
C226 C 0.00977 0.77885 0.94136 0.0
C227 C 0.03041 0.79345 -0.00533 0.0
H228 H 0.9914 0.73738 0.89626 0.0
H229 H 0.99435 0.79187 0.90276 0.0
S230 S 0.08605 0.75547 0.13423 0.0
N231 N 0.06777 0.72739 0.08896 0.0
N232 N 0.07107 0.7868 0.09594 0.0
C233 C 0.04999 0.77526 0.04305 0.0
C234 C 0.0482 0.74295 0.03931 0.0
C235 C 0.73573 0.04453 0.55655 0.0
C236 C 0.71679 0.03477 0.49108 0.0
C237 C 0.76731 0.04062 0.55302 0.0
C238 C 0.78125 0.02667 0.484 0.0
H239 H 0.72609 0.05452 0.61232 0.0
H240 H 0.78075 0.04774 0.60601 0.0
S241 S 0.74242 1.00029 0.29165 0.0
N242 N 0.71478 0.01289 0.35182 0.0
N243 N 0.7739 0.00548 0.34531 0.0
C244 C 0.76275 0.01806 0.41645 0.0
C245 C 0.73063 0.02213 0.41991 0.0
C246 C 0.47281 0.75889 0.92346 0.0
C247 C 0.48321 0.77802 0.98766 0.0
C248 C 0.47762 0.72749 0.92622 0.0
C249 C 0.49315 0.71383 0.99315 0.0
H250 H 0.46132 0.76824 0.86951 0.0
H251 H 0.46959 0.71395 0.87449 0.0
S252 S 0.52318 0.75336 0.18033 0.0
N253 N 0.50842 0.78059 0.1226 0.0
N254 N 0.51749 0.72181 0.12775 0.0
C255 C 0.5029 0.73256 0.05905 0.0
C256 C 0.49791 0.76453 0.05637 0.0
C257 C 0.75483 0.51595 0.45101 0.0
C258 C 0.73479 0.49467 0.48595 0.0
C259 C 0.78628 0.5116 0.4531 0.0
C260 C 0.79924 0.48577 0.49036 0.0
H261 H 0.74625 0.53644 0.42225 0.0
H262 H 0.80053 0.529 0.42621 0.0
S263 S 0.75683 0.42213 0.58651 0.0
N264 N 0.7302 0.44603 0.55606 0.0
N265 N 0.78937 0.43785 0.56013 0.0
C266 C 0.7795 0.46398 0.52442 0.0
C267 C 0.74732 0.46842 0.52222 0.0
C268 C 0.96907 0.26571 0.94217 0.0
C269 C 0.98382 0.27999 0.00922 0.0
C270 C 0.9657 0.23414 0.93981 0.0
C271 C 0.97689 0.21557 0.00446 0.0
H272 H 0.96085 0.27888 0.88976 0.0
H273 H 0.95502 0.22423 0.8855 0.0
S274 S 0.01396 0.24207 0.19918 0.0
N275 N 0.00732 0.27328 0.14553 0.0
N276 N 1.00099 0.21418 0.14104 0.0
C277 C 0.99041 0.22971 0.07374 0.0
C278 C 0.99387 0.26182 0.07611 0.0
C279 C 0.26925 0.96041 0.4448 0.0
C280 C 0.28926 0.97826 0.49223 0.0
C281 C 0.2377 0.96459 0.44931 0.0
C282 C 0.22483 0.98692 0.50111 0.0
H283 H 0.27798 0.9432 0.40308 0.0
H284 H 0.22336 0.9504 0.41102 0.0
S285 S 0.26719 0.03952 0.6392 0.0
N286 N 0.29372 0.01893 0.59385 0.0
N287 N 0.23476 0.02684 0.60209 0.0
C288 C 0.24457 0.00466 0.5498 0.0
C289 C 0.27665 1.00032 0.54549 0.0
C290 C 0.53876 0.24517 0.04767 0.0
C291 C 0.52903 0.22521 0.98465 0.0
C292 C 0.5358 0.27664 0.03883 0.0
C293 C 0.52286 0.28952 0.96673 0.0
H294 H 0.54816 0.23647 0.10538 0.0
H295 H 0.54303 0.29092 0.08998 0.0
S296 S 0.49626 0.24751 0.77983 0.0
N297 N 0.50775 0.2209 0.84494 0.0
N298 N 0.50213 0.27984 0.82852 0.0
C299 C 0.51404 0.2699 0.9019 0.0
C300 C 0.51715 0.23786 0.91076 0.0
C301 C 0.26839 0.52508 0.41865 0.0
C302 C 0.28251 0.50759 0.48106 0.0
C303 C 0.23676 0.52875 0.41642 0.0
C304 C 0.21786 0.51514 0.47661 0.0
H305 H 0.2818 0.53572 0.37022 0.0
H306 H 0.2271 0.54204 0.36618 0.0
S307 S 0.24356 0.46851 0.65644 0.0
N308 N 0.27507 0.47754 0.60692 0.0
N309 N 0.21589 0.48444 0.60272 0.0
C310 C 0.23174 0.49816 0.54056 0.0
C311 C 0.26394 0.49438 0.54275 0.0
C312 C 0.06731 0.59565 0.75666 0.0
C313 C 0.03644 0.60375 0.75388 0.0
C314 C 0.08026 0.57763 0.69388 0.0
C315 C 0.06273 0.56721 0.62639 0.0
H316 H 0.0808 0.60068 0.81139 0.0
H317 H 0.10338 0.56986 0.70201 0.0
S318 S 0.98324 0.58941 0.58032 0.0
N319 N 0.9905 0.60519 0.67131 0.0
N320 N 0.01465 0.57167 0.55247 0.0
C321 C 0.03292 0.57838 0.61814 0.0
C322 C 0.01984 0.59662 0.6821 0.0
C323 C 0.93731 0.02234 0.13879 0.0
C324 C 0.93772 0.05416 0.1333 0.0
C325 C 0.92176 0.00765 0.20311 0.0
C326 C 0.90585 0.02418 0.26403 0.0
H327 H 0.9511 0.00864 0.09745 0.0
H328 H 0.92452 0.98338 0.20934 0.0
S329 S 0.89264 0.10717 0.26353 0.0
N330 N 0.91551 0.10122 0.18358 0.0
N331 N 0.88607 0.07352 0.30442 0.0
C332 C 0.90242 0.05558 0.25217 0.0
C333 C 0.9185 0.07063 0.18685 0.0
C334 C 0.45194 0.9053 0.75622 0.0
C335 C 0.48376 0.90283 0.75458 0.0
C336 C 0.43633 0.921 0.69322 0.0
C337 C 0.45209 0.93457 0.62658 0.0
H338 H 0.43933 0.89789 0.81055 0.0
H339 H 0.4122 0.92469 0.70077 0.0
S340 S 0.53442 0.92676 0.58313 0.0
N341 N 0.52963 0.90972 0.67378 0.0
N342 N 0.5005 0.93863 0.55409 0.0
C343 C 0.48338 0.92862 0.619 0.0
C344 C 0.49917 0.91286 0.68337 0.0
C345 C 0.5933 0.43653 0.17891 0.0
C346 C 0.57903 0.45257 0.11381 0.0
C347 C 0.60939 0.45179 0.24151 0.0
C348 C 0.61155 0.48355 0.24112 0.0
H349 H 0.58993 0.41239 0.1857 0.0
H350 H 0.61728 0.4389 0.29486 0.0
S351 S 0.58594 0.535 0.07293 0.0
N352 N 0.57407 0.50127 0.04343 0.0
N353 N 0.60373 0.52975 0.16236 0.0
C354 C 0.60089 0.4993 0.17102 0.0
C355 C 0.58471 0.48385 0.10703 0.0
C356 C 0.06846 0.91826 0.30725 0.0
C357 C 0.0554 0.93499 0.37283 0.0
C358 C 0.05038 0.90608 0.24375 0.0
C359 C 0.01879 0.91057 0.24358 0.0
H360 H 0.09286 0.91693 0.30047 0.0
H361 H 0.06158 0.89625 0.18997 0.0
S362 S 0.97304 0.94376 0.41419 0.0
N363 N 0.00849 0.94838 0.44442 0.0
N364 N 0.97476 0.9265 0.32295 0.0
C365 C 0.00525 0.92334 0.31442 0.0
C366 C 0.02355 0.93532 0.37973 0.0
C367 C 0.58318 0.07327 0.79711 0.0
C368 C 0.56688 0.05863 0.86093 0.0
C369 C 0.59714 0.05662 0.73317 0.0
C370 C 0.59498 0.02486 0.7308 0.0
H371 H 0.58288 0.09771 0.79206 0.0
H372 H 0.6067 0.06889 0.68084 0.0
S373 S 0.56302 0.97568 0.89564 0.0
N374 N 0.55578 0.0104 0.92796 0.0
N375 N 0.58119 0.97933 0.80613 0.0
C376 C 0.58242 0.00996 0.79985 0.0
C377 C 0.56855 0.02682 0.86542 0.0
C378 C 0.43589 0.57855 0.27296 0.0
C379 C 0.44972 0.56126 0.3363 0.0
C380 C 0.45324 0.59205 0.2098 0.0
C381 C 0.48494 0.58845 0.20757 0.0
H382 H 0.41142 0.57962 0.26796 0.0
H383 H 0.44145 0.60262 0.15806 0.0
S384 S 0.53258 0.55304 0.37111 0.0
N385 N 0.49745 0.54732 0.40283 0.0
N386 N 0.52983 0.57189 0.28239 0.0
C387 C 0.49922 0.57462 0.27592 0.0
C388 C 0.48165 0.56121 0.3408 0.0
C389 C 0.92653 0.44097 0.79719 0.0
C390 C 0.947 0.45181 0.85752 0.0
C391 C 0.91513 0.4601 0.73459 0.0
C392 C 0.92406 0.49061 0.72977 0.0
H393 H 0.92117 0.4171 0.79399 0.0
H394 H 0.90179 0.4501 0.68505 0.0
S395 S 0.97024 0.53186 0.88543 0.0
N396 N 0.97025 0.49653 0.91878 0.0
N397 N 0.94955 0.53209 0.79958 0.0
C398 C 0.94135 0.50251 0.79549 0.0
C399 C 0.95266 0.48318 0.85977 0.0
C400 C 1.00195 0.41947 0.28684 0.0
C401 C 0.98463 0.40563 0.22398 0.0
C402 C 0.98816 0.4366 0.34963 0.0
C403 C 0.95647 0.44075 0.35184 0.0
H404 H 0.02649 0.41911 0.28387 0.0
H405 H 1.00275 0.44841 0.39306 0.0
S406 S 0.90054 0.40321 0.21361 0.0
N407 N 0.93385 0.39249 0.17687 0.0
N408 N 0.9079 0.42494 0.29482 0.0
C409 C 0.9387 0.42401 0.29553 0.0
C410 C 0.9528 0.40632 0.23166 0.0
C411 C 0.08078 0.93255 0.80317 0.0
C412 C 0.06795 0.94987 0.86802 0.0
C413 C 0.09753 0.94632 0.73917 0.0
C414 C 0.10186 0.97783 0.73797 0.0
H415 H 0.07573 0.90866 0.79766 0.0
H416 H 0.10423 0.93266 0.68612 0.0
S417 S 0.08082 0.03176 0.9044 0.0
N418 N 0.06672 0.99914 0.93614 0.0
N419 N 0.09773 0.02483 0.81461 0.0
C420 C 0.09271 0.99463 0.80767 0.0
C421 C 0.07581 0.9807 0.87304 0.0
C422 C 0.51948 0.07097 0.35694 0.0
C423 C 0.55141 0.07184 0.35962 0.0
C424 C 0.50336 0.08549 0.29326 0.0
C425 C 0.5185 0.10166 0.23028 0.0
H426 H 0.50685 0.05689 0.4 0.0
H427 H 0.47915 0.08164 0.289 0.0
S428 S 0.60095 0.1181 0.2227 0.0
N429 N 0.59692 0.09557 0.30422 0.0
N430 N 0.56653 0.12309 0.18463 0.0
C431 C 0.54989 0.10646 0.23933 0.0
C432 C 0.56641 0.0914 0.30395 0.0
C433 C 0.40894 0.55217 0.70343 0.0
C434 C 0.40663 0.52043 0.70465 0.0
C435 C 0.42493 0.56759 0.76594 0.0
C436 C 0.43896 0.55172 0.83174 0.0
H437 H 0.40112 0.56492 0.64976 0.0
H438 H 0.42837 0.5917 0.75868 0.0
S439 S 0.43186 0.46943 0.87432 0.0
N440 N 0.41423 0.47444 0.78455 0.0
N441 N 0.44374 0.50322 0.90321 0.0
C442 C 0.43326 0.52046 0.83904 0.0
C443 C 0.41718 0.50485 0.77518 0.0
C444 C 0.93712 0.0878 0.69606 0.0
C445 C 0.95039 0.07037 0.63219 0.0
C446 C 0.95495 0.10043 0.75952 0.0
C447 C 0.98653 0.09577 0.76141 0.0
H448 H 0.9127 0.08943 0.70155 0.0
H449 H 0.94351 0.11093 0.81194 0.0
S450 S 0.0329 0.06015 0.59579 0.0
N451 N 0.99759 0.05559 0.56428 0.0
N452 N 0.03083 0.07852 0.68528 0.0
C453 C 1.00032 0.08209 0.69218 0.0
C454 C 0.98228 0.06956 0.62706 0.0
C455 C 0.43057 0.99402 0.18525 0.0
C456 C 0.41386 0.9804 0.24975 0.0
C457 C 0.44395 0.97658 0.12241 0.0
C458 C 0.44142 0.94479 0.12223 0.0
H459 H 0.43567 0.01798 0.18754 0.0
H460 H 0.45847 0.98801 0.07793 0.0
S461 S 0.39358 0.89913 0.26516 0.0
N462 N 0.39042 0.93409 0.30037 0.0
N463 N 0.41583 0.90118 0.18245 0.0
C464 C 0.42143 0.93139 0.17985 0.0
C465 C 0.40751 0.94927 0.24357 0.0
C466 C 0.56318 0.41015 0.73515 0.0
C467 C 0.5315 0.41374 0.73862 0.0
C468 C 0.58018 0.42369 0.67135 0.0
C469 C 0.566 0.44101 0.60864 0.0
H470 H 0.57525 0.39967 0.78655 0.0
H471 H 0.60468 0.4227 0.6755 0.0
S472 S 0.48298 0.44894 0.57673 0.0
N473 N 0.4862 0.43011 0.66536 0.0
N474 N 0.51793 0.45476 0.5437 0.0
C475 C 0.53407 0.4409 0.60514 0.0
C476 C 0.51685 0.42744 0.67066 0.0
C477 C 0.10177 0.54777 0.24246 0.0
C478 C 0.09295 0.51722 0.24567 0.0
C479 C 0.09083 0.56705 0.17967 0.0
C480 C 0.07102 0.55626 0.11765 0.0
H481 H 0.11448 0.55767 0.2934 0.0
H482 H 0.09591 0.59095 0.1841 0.0
S483 S 0.04892 0.47616 0.08521 0.0
N484 N 0.06862 0.47577 0.17284 0.0
N485 N 0.04896 0.5116 0.05286 0.0
C486 C 0.06576 0.52486 0.11373 0.0
C487 C 0.07651 0.5054 0.17833 0.0
C488 C 0.94954 0.60787 0.32199 0.0
C489 C 0.92574 0.58667 0.32464 0.0
C490 C 0.95875 0.62102 0.24647 0.0
C491 C 0.94467 0.61322 0.17066 0.0
H492 H 0.96307 0.61215 0.37715 0.0
H493 H 0.97911 0.63467 0.24673 0.0
S494 S 0.8753 0.56658 0.14796 0.0
N495 N 0.88374 0.56434 0.24819 0.0
N496 N 0.90113 0.58895 0.10622 0.0
C497 C 0.91791 0.59593 0.17466 0.0
C498 C 0.90841 0.58265 0.25177 0.0
C499 C 0.91501 0.91359 0.69407 0.0
C500 C 0.89618 0.93939 0.69044 0.0
C501 C 0.92732 0.90355 0.76996 0.0
C502 C 0.92132 0.91907 0.84483 0.0
H503 H 0.92292 0.90301 0.63706 0.0
H504 H 0.94424 0.88576 0.7681 0.0
S505 S 0.86559 0.98126 0.87283 0.0
N506 N 0.86614 0.97522 0.77114 0.0
N507 N 0.88939 0.95643 0.91356 0.0
C508 C 0.89869 0.9416 0.84376 0.0
C509 C 0.88601 0.95172 0.76649 0.0
C510 C 0.59988 0.92706 0.17077 0.0
C511 C 0.577 0.90482 0.16898 0.0
C512 C 0.60951 0.93992 0.24628 0.0
C513 C 0.59653 0.93103 0.32264 0.0
H514 H 0.60826 0.93682 0.11316 0.0
H515 H 0.62469 0.95912 0.24358 0.0
S516 S 0.54328 0.8672 0.35429 0.0
N517 N 0.54726 0.8695 0.25199 0.0
N518 N 0.56527 0.89379 0.39355 0.0
C519 C 0.57728 0.90568 0.32261 0.0
C520 C 0.56757 0.89247 0.24578 0.0
C521 C 0.61991 0.56406 0.73177 0.0
C522 C 0.61066 0.57603 0.65442 0.0
C523 C 0.606 0.57335 0.80626 0.0
C524 C 0.58251 0.59507 0.80616 0.0
H525 H 0.63531 0.54494 0.73427 0.0
H526 H 0.61153 0.56116 0.86301 0.0
S527 S 0.55758 0.64035 0.62339 0.0
N528 N 0.58233 0.616 0.58476 0.0
N529 N 0.55623 0.6335 0.72469 0.0
C530 C 0.57686 0.61074 0.73125 0.0
C531 C 0.59096 0.60118 0.65527 0.0
C532 C 0.10532 0.42367 0.71629 0.0
C533 C 0.08854 0.41872 0.64293 0.0
C534 C 0.09652 0.41049 0.79223 0.0
C535 C 0.07065 0.39187 0.79744 0.0
H536 H 0.12329 0.44033 0.71734 0.0
H537 H 0.10819 0.41753 0.84842 0.0
S538 S 0.02567 0.36391 0.6176 0.0
N539 N 0.04985 0.38809 0.5761 0.0
N540 N 0.03341 0.36312 0.71842 0.0
C541 C 0.05697 0.38283 0.72206 0.0
C542 C 0.06584 0.39641 0.64482 0.0
C543 C 0.10293 0.06773 0.17052 0.0
C544 C 0.0808 0.09082 0.16966 0.0
C545 C 0.11531 0.05711 0.24573 0.0
C546 C 0.10583 0.06908 0.32279 0.0
H547 H 0.10849 0.05568 0.11365 0.0
H548 H 0.12963 0.03717 0.24362 0.0
S549 S 0.05612 0.13608 0.35258 0.0
N550 N 0.05572 0.1301 0.25085 0.0
N551 N 0.07889 0.11004 0.39208 0.0
C552 C 0.08756 0.09528 0.32158 0.0
C553 C 0.07505 0.10621 0.24491 0.0
C554 C 0.39813 0.06924 0.72646 0.0
C555 C 0.41263 0.07761 0.65166 0.0
C556 C 0.40734 0.0814 0.80315 0.0
C557 C 0.43121 0.10248 0.80762 0.0
H558 H 0.38203 0.05077 0.7273 0.0
H559 H 0.39786 0.07184 0.8597 0.0
S560 S 0.46883 0.13924 0.62675 0.0
N561 N 0.44631 0.11368 0.58466 0.0
N562 N 0.4634 0.13684 0.72853 0.0
C563 C 0.44207 0.11474 0.73213 0.0
C564 C 0.43286 0.10215 0.65407 0.0
C565 C 0.44185 0.39494 0.215 0.0
C566 C 0.43452 0.40898 0.13882 0.0
C567 C 0.42786 0.40406 0.2896 0.0
C568 C 0.40609 0.42752 0.29053 0.0
H569 H 0.46082 0.37938 0.21879 0.0
H570 H 0.43658 0.39495 0.34766 0.0
S571 S 0.372 0.46381 0.10359 0.0
N572 N 0.39889 0.44164 0.06589 0.0
N573 N 0.37254 0.45877 0.20573 0.0
C574 C 0.39505 0.43788 0.21311 0.0
C575 C 0.40938 0.42866 0.13724 0.0
loop_
_geom_bond_atom_site_label_1
_geom_bond_atom_site_label_2
_geom_bond_distance
_geom_bond_site_symmetry_2
_ccdc_geom_bond_type
Zn0 O3 2.031 1_455 S
Zn0 O5 2.049 1_554 S
Zn0 O10 2.067 . S
Zn1 O2 1.962 1_455 S
Zn1 O4 1.991 . S
Zn1 O6 1.996 1_554 S
Zn1 O9 1.943 . S
O2 Zn1 1.962 1_655 S
O2 C7 1.254 . S
O3 Zn0 2.031 1_655 S
O3 C7 1.269 . S
O4 Zn1 1.991 . S
O4 C11 1.269 . S
O5 Zn0 2.049 1_556 S
O5 C13 1.260 . S
O6 Zn1 1.996 1_556 S
O6 C13 1.257 . S
C7 O2 1.254 . S
C7 O3 1.269 . S
C8 O9 1.249 . S
C8 O10 1.270 . S
O9 Zn1 1.943 . S
O9 C8 1.249 . S
O10 Zn0 2.067 . S
O10 C8 1.270 . S
C11 O4 1.269 . S
C11 O12 1.232 1_455 S
O12 C11 1.232 1_655 S
C13 O5 1.260 . S
C13 O6 1.257 . S
Zn14 O17 2.031 1_545 S
Zn14 O19 2.049 . S
Zn14 O24 2.067 . S
Zn15 O16 1.962 1_545 S
Zn15 O18 1.986 . S
Zn15 O20 1.996 . S
Zn15 O23 1.943 . S
O16 Zn15 1.962 1_565 S
O16 C21 1.254 . S
O17 Zn14 2.031 1_565 S
O17 C21 1.269 . S
O18 Zn15 1.986 . S
O18 C25 1.262 . S
O19 Zn14 2.049 . S
O19 C27 1.260 . S
O20 Zn15 1.996 . S
O20 C27 1.257 . S
C21 O16 1.254 . S
C21 O17 1.269 . S
C22 O23 1.249 . S
C22 O24 1.270 . S
O23 Zn15 1.943 . S
O23 C22 1.249 . S
O24 Zn14 2.067 . S
O24 C22 1.270 . S
C25 O18 1.262 . S
C25 O26 1.232 1_545 S
O26 C25 1.232 1_565 S
C27 O19 1.260 . S
C27 O20 1.257 . S
Zn28 O31 2.031 . S
Zn28 O33 2.049 1_554 S
Zn28 O38 2.067 . S
Zn29 O30 1.962 . S
Zn29 O32 1.991 . S
Zn29 O34 1.996 1_554 S
Zn29 O37 1.943 . S
O30 Zn29 1.962 . S
O30 C35 1.254 . S
O31 Zn28 2.031 . S
O31 C35 1.269 . S
O32 Zn29 1.991 . S
O32 C39 1.269 . S
O33 Zn28 2.049 1_556 S
O33 C41 1.260 . S
O34 Zn29 1.996 1_556 S
O34 C41 1.257 . S
C35 O30 1.254 . S
C35 O31 1.269 . S
C36 O37 1.249 . S
C36 O38 1.270 . S
O37 Zn29 1.943 . S
O37 C36 1.249 . S
O38 Zn28 2.067 . S
O38 C36 1.270 . S
C39 O32 1.269 . S
C39 O40 1.232 . S
O40 C39 1.232 . S
C41 O33 1.260 . S
C41 O34 1.257 . S
Zn42 O45 2.031 . S
Zn42 O47 2.049 . S
Zn42 O52 2.067 . S
Zn43 O44 1.962 . S
Zn43 O46 1.986 . S
Zn43 O48 1.996 . S
Zn43 O51 1.943 . S
O44 Zn43 1.962 . S
O44 C49 1.254 . S
O45 Zn42 2.031 . S
O45 C49 1.269 . S
O46 Zn43 1.986 . S
O46 C53 1.262 . S
O47 Zn42 2.049 . S
O47 C55 1.260 . S
O48 Zn43 1.996 . S
O48 C55 1.257 . S
C49 O44 1.254 . S
C49 O45 1.269 . S
C50 O51 1.249 . S
C50 O52 1.270 . S
O51 Zn43 1.943 . S
O51 C50 1.249 . S
O52 Zn42 2.067 . S
O52 C50 1.270 . S
C53 O46 1.262 . S
C53 O54 1.232 . S
O54 C53 1.232 . S
C55 O47 1.260 . S
C55 O48 1.257 . S
Zn56 O59 2.031 1_455 S
Zn56 O61 2.049 1_556 S
Zn56 O66 2.067 . S
Zn57 O58 1.962 1_455 S
Zn57 O60 1.991 . S
Zn57 O62 1.996 1_556 S
Zn57 O65 1.943 . S
O58 Zn57 1.962 1_655 S
O58 C63 1.254 . S
O59 Zn56 2.031 1_655 S
O59 C63 1.269 . S
O60 Zn57 1.991 . S
O60 C67 1.269 . S
O61 Zn56 2.049 1_554 S
O61 C69 1.260 . S
O62 Zn57 1.996 1_554 S
O62 C69 1.257 . S
C63 O58 1.254 . S
C63 O59 1.269 . S
C64 O65 1.249 . S
C64 O66 1.270 . S
O65 Zn57 1.943 . S
O65 C64 1.249 . S
O66 Zn56 2.067 . S
O66 C64 1.270 . S
C67 O60 1.269 . S
C67 O68 1.232 1_455 S
O68 C67 1.232 1_655 S
C69 O61 1.260 . S
C69 O62 1.257 . S
Zn70 O73 2.031 1_545 S
Zn70 O75 2.049 . S
Zn70 O80 2.067 . S
Zn71 O72 1.962 1_545 S
Zn71 O74 1.986 . S
Zn71 O76 1.996 . S
Zn71 O79 1.943 . S
O72 Zn71 1.962 1_565 S
O72 C77 1.254 . S
O73 Zn70 2.031 1_565 S
O73 C77 1.269 . S
O74 Zn71 1.986 . S
O74 C81 1.262 . S
O75 Zn70 2.049 . S
O75 C83 1.260 . S
O76 Zn71 1.996 . S
O76 C83 1.257 . S
C77 O72 1.254 . S
C77 O73 1.269 . S
C78 O79 1.249 . S
C78 O80 1.270 . S
O79 Zn71 1.943 . S
O79 C78 1.249 . S
O80 Zn70 2.067 . S
O80 C78 1.270 . S
C81 O74 1.262 . S
C81 O82 1.232 1_545 S
O82 C81 1.232 1_565 S
C83 O75 1.260 . S
C83 O76 1.257 . S
Zn84 O87 2.031 . S
Zn84 O89 2.049 1_556 S
Zn84 O94 2.067 . S
Zn85 O86 1.962 . S
Zn85 O88 1.991 . S
Zn85 O90 1.996 1_556 S
Zn85 O93 1.943 . S
O86 Zn85 1.962 . S
O86 C91 1.254 . S
O87 Zn84 2.031 . S
O87 C91 1.269 . S
O88 Zn85 1.991 . S
O88 C95 1.269 . S
O89 Zn84 2.049 1_554 S
O89 C97 1.260 . S
O90 Zn85 1.996 1_554 S
O90 C97 1.257 . S
C91 O86 1.254 . S
C91 O87 1.269 . S
C92 O93 1.249 . S
C92 O94 1.270 . S
O93 Zn85 1.943 . S
O93 C92 1.249 . S
O94 Zn84 2.067 . S
O94 C92 1.270 . S
C95 O88 1.269 . S
C95 O96 1.232 . S
O96 C95 1.232 . S
C97 O89 1.260 . S
C97 O90 1.257 . S
Zn98 O101 2.031 . S
Zn98 O103 2.049 . S
Zn98 O108 2.067 . S
Zn99 O100 1.962 . S
Zn99 O102 1.986 . S
Zn99 O104 1.996 . S
Zn99 O107 1.943 . S
O100 Zn99 1.962 . S
O100 C105 1.254 . S
O101 Zn98 2.031 . S
O101 C105 1.269 . S
O102 Zn99 1.986 . S
O102 C109 1.262 . S
O103 Zn98 2.049 . S
O103 C111 1.260 . S
O104 Zn99 1.996 . S
O104 C111 1.257 . S
C105 O100 1.254 . S
C105 O101 1.269 . S
C106 O107 1.249 . S
C106 O108 1.270 . S
O107 Zn99 1.943 . S
O107 C106 1.249 . S
O108 Zn98 2.067 . S
O108 C106 1.270 . S
C109 O102 1.262 . S
C109 O110 1.232 . S
O110 C109 1.232 . S
C111 O103 1.260 . S
C111 O104 1.257 . S
Zn112 O115 2.031 1_655 S
Zn112 O117 2.049 1_556 S
Zn112 O122 2.067 . S
Zn113 O114 1.962 1_655 S
Zn113 O116 1.991 . S
Zn113 O118 1.996 1_556 S
Zn113 O121 1.943 . S
O114 Zn113 1.962 1_455 S
O114 C119 1.254 . S
O115 Zn112 2.031 1_455 S
O115 C119 1.269 . S
O116 Zn113 1.991 . S
O116 C123 1.269 . S
O117 Zn112 2.049 1_554 S
O117 C125 1.260 . S
O118 Zn113 1.996 1_554 S
O118 C125 1.257 . S
C119 O114 1.254 . S
C119 O115 1.269 . S
C120 O121 1.249 . S
C120 O122 1.270 . S
O121 Zn113 1.943 . S
O121 C120 1.249 . S
O122 Zn112 2.067 . S
O122 C120 1.270 . S
C123 O116 1.269 . S
C123 O124 1.232 1_655 S
O124 C123 1.232 1_455 S
C125 O117 1.260 . S
C125 O118 1.257 . S
Zn126 O129 2.031 1_565 S
Zn126 O131 2.049 . S
Zn126 O136 2.067 . S
Zn127 O128 1.962 1_565 S
Zn127 O130 1.986 . S
Zn127 O132 1.996 . S
Zn127 O135 1.943 . S
O128 Zn127 1.962 1_545 S
O128 C133 1.254 . S
O129 Zn126 2.031 1_545 S
O129 C133 1.269 . S
O130 Zn127 1.986 . S
O130 C137 1.262 . S
O131 Zn126 2.049 . S
O131 C139 1.260 . S
O132 Zn127 1.996 . S
O132 C139 1.257 . S
C133 O128 1.254 . S
C133 O129 1.269 . S
C134 O135 1.249 . S
C134 O136 1.270 . S
O135 Zn127 1.943 . S
O135 C134 1.249 . S
O136 Zn126 2.067 . S
O136 C134 1.270 . S
C137 O130 1.262 . S
C137 O138 1.232 1_565 S
O138 C137 1.232 1_545 S
C139 O131 1.260 . S
C139 O132 1.257 . S
Zn140 O143 2.031 . S
Zn140 O145 2.049 1_556 S
Zn140 O150 2.067 . S
Zn141 O142 1.962 . S
Zn141 O144 1.991 . S
Zn141 O146 1.996 1_556 S
Zn141 O149 1.943 . S
O142 Zn141 1.962 . S
O142 C147 1.254 . S
O143 Zn140 2.031 . S
O143 C147 1.269 . S
O144 Zn141 1.991 . S
O144 C151 1.269 . S
O145 Zn140 2.049 1_554 S
O145 C153 1.260 . S
O146 Zn141 1.996 1_554 S
O146 C153 1.257 . S
C147 O142 1.254 . S
C147 O143 1.269 . S
C148 O149 1.249 . S
C148 O150 1.270 . S
O149 Zn141 1.943 . S
O149 C148 1.249 . S
O150 Zn140 2.067 . S
O150 C148 1.270 . S
C151 O144 1.269 . S
C151 O152 1.232 . S
O152 C151 1.232 . S
C153 O145 1.260 . S
C153 O146 1.257 . S
Zn154 O157 2.031 . S
Zn154 O159 2.049 . S
Zn154 O164 2.067 . S
Zn155 O156 1.962 . S
Zn155 O158 1.986 . S
Zn155 O160 1.996 . S
Zn155 O163 1.943 . S
O156 Zn155 1.962 . S
O156 C161 1.254 . S
O157 Zn154 2.031 . S
O157 C161 1.269 . S
O158 Zn155 1.986 . S
O158 C165 1.262 . S
O159 Zn154 2.049 . S
O159 C167 1.260 . S
O160 Zn155 1.996 . S
O160 C167 1.257 . S
C161 O156 1.254 . S
C161 O157 1.269 . S
C162 O163 1.249 . S
C162 O164 1.270 . S
O163 Zn155 1.943 . S
O163 C162 1.249 . S
O164 Zn154 2.067 . S
O164 C162 1.270 . S
C165 O158 1.262 . S
C165 O166 1.232 . S
O166 C165 1.232 . S
C167 O159 1.260 . S
C167 O160 1.257 . S
Zn168 O171 2.031 1_655 S
Zn168 O173 2.049 1_554 S
Zn168 O178 2.067 . S
Zn169 O170 1.962 1_655 S
Zn169 O172 1.991 . S
Zn169 O174 1.996 1_554 S
Zn169 O177 1.943 . S
O170 Zn169 1.962 1_455 S
O170 C175 1.254 . S
O171 Zn168 2.031 1_455 S
O171 C175 1.269 . S
O172 Zn169 1.991 . S
O172 C179 1.269 . S
O173 Zn168 2.049 1_556 S
O173 C181 1.260 . S
O174 Zn169 1.996 1_556 S
O174 C181 1.257 . S
C175 O170 1.254 . S
C175 O171 1.269 . S
C176 O177 1.249 . S
C176 O178 1.270 . S
O177 Zn169 1.943 . S
O177 C176 1.249 . S
O178 Zn168 2.067 . S
O178 C176 1.270 . S
C179 O172 1.269 . S
C179 O180 1.232 1_655 S
O180 C179 1.232 1_455 S
C181 O173 1.260 . S
C181 O174 1.257 . S
Zn182 O185 2.031 1_565 S
Zn182 O187 2.049 . S
Zn182 O192 2.067 . S
Zn183 O184 1.962 1_565 S
Zn183 O186 1.986 . S
Zn183 O188 1.996 . S
Zn183 O191 1.943 . S
O184 Zn183 1.962 1_545 S
O184 C189 1.254 . S
O185 Zn182 2.031 1_545 S
O185 C189 1.269 . S
O186 Zn183 1.986 . S
O186 C193 1.262 . S
O187 Zn182 2.049 . S
O187 C195 1.260 . S
O188 Zn183 1.996 . S
O188 C195 1.257 . S
C189 O184 1.254 . S
C189 O185 1.269 . S
C190 O191 1.249 . S
C190 O192 1.270 . S
O191 Zn183 1.943 . S
O191 C190 1.249 . S
O192 Zn182 2.067 . S
O192 C190 1.270 . S
C193 O186 1.262 . S
C193 O194 1.232 1_565 S
O194 C193 1.232 1_545 S
C195 O187 1.260 . S
C195 O188 1.257 . S
Zn196 O199 2.031 . S
Zn196 O201 2.049 1_554 S
Zn196 O206 2.067 . S
Zn197 O198 1.962 . S
Zn197 O200 1.991 . S
Zn197 O202 1.996 1_554 S
Zn197 O205 1.943 . S
O198 Zn197 1.962 . S
O198 C203 1.254 . S
O199 Zn196 2.031 . S
O199 C203 1.269 . S
O200 Zn197 1.991 . S
O200 C207 1.269 . S
O201 Zn196 2.049 1_556 S
O201 C209 1.260 . S
O202 Zn197 1.996 1_556 S
O202 C209 1.257 . S
C203 O198 1.254 . S
C203 O199 1.269 . S
C204 O205 1.249 . S
C204 O206 1.270 . S
O205 Zn197 1.943 . S
O205 C204 1.249 . S
O206 Zn196 2.067 . S
O206 C204 1.270 . S
C207 O200 1.269 . S
C207 O208 1.232 . S
O208 C207 1.232 . S
C209 O201 1.260 . S
C209 O202 1.257 . S
Zn210 O213 2.031 . S
Zn210 O215 2.049 . S
Zn210 O220 2.067 . S
Zn211 O212 1.962 . S
Zn211 O214 1.986 . S
Zn211 O216 1.996 . S
Zn211 O219 1.943 . S
O212 Zn211 1.962 . S
O212 C217 1.254 . S
O213 Zn210 2.031 . S
O213 C217 1.269 . S
O214 Zn211 1.986 . S
O214 C221 1.262 . S
O215 Zn210 2.049 . S
O215 C223 1.260 . S
O216 Zn211 1.996 . S
O216 C223 1.257 . S
C217 O212 1.254 . S
C217 O213 1.269 . S
C218 O219 1.249 . S
C218 O220 1.270 . S
O219 Zn211 1.943 . S
O219 C218 1.249 . S
O220 Zn210 2.067 . S
O220 C218 1.270 . S
C221 O214 1.262 . S
C221 O222 1.232 . S
O222 C221 1.232 . S
C223 O215 1.260 . S
C223 O216 1.257 . S
C224 C225 1.369 . S
C224 C226 1.419 . S
C224 H228 0.930 . S
C225 C224 1.369 . S
C225 C234 1.429 1_554 S
C226 C224 1.419 . S
C226 C227 1.363 1_554 S
C226 H229 0.929 . S
C227 C226 1.363 1_556 S
C227 C233 1.428 . S
H228 C224 0.930 . S
H229 C226 0.929 . S
S230 N231 1.613 . S
S230 N232 1.610 . S
N231 S230 1.613 . S
N231 C234 1.350 . S
N232 S230 1.610 . S
N232 C233 1.351 . S
C233 C227 1.428 . S
C233 N232 1.351 . S
C233 C234 1.434 . S
C234 C225 1.429 1_556 S
C234 N231 1.350 . S
C234 C233 1.434 . S
C235 C236 1.369 . S
C235 C237 1.419 . S
C235 H239 0.930 . S
C236 C235 1.369 . S
C236 C245 1.418 1_545 S
C237 C235 1.419 . S
C237 C238 1.363 . S
C237 H240 0.929 . S
C238 C237 1.363 . S
C238 C244 1.416 1_545 S
H239 C235 0.930 . S
H240 C237 0.929 . S
S241 N242 1.613 . S
S241 N243 1.610 . S
N242 S241 1.613 . S
N242 C245 1.361 . S
N243 S241 1.610 . S
N243 C244 1.364 . S
C244 C238 1.416 1_565 S
C244 N243 1.364 . S
C244 C245 1.434 . S
C245 C236 1.418 1_565 S
C245 N242 1.361 . S
C245 C244 1.434 . S
C246 C247 1.369 . S
C246 C248 1.419 . S
C246 H250 0.930 . S
C247 C246 1.369 . S
C247 C256 1.429 1_554 S
C248 C246 1.419 . S
C248 C249 1.363 1_554 S
C248 H251 0.929 . S
C249 C248 1.363 1_556 S
C249 C255 1.428 . S
H250 C246 0.930 . S
H251 C248 0.929 . S
S252 N253 1.613 . S
S252 N254 1.610 . S
N253 S252 1.613 . S
N253 C256 1.350 . S
N254 S252 1.610 . S
N254 C255 1.351 . S
C255 C249 1.428 . S
C255 N254 1.351 . S
C255 C256 1.434 . S
C256 C247 1.429 1_556 S
C256 N253 1.350 . S
C256 C255 1.434 . S
C257 C258 1.369 . S
C257 C259 1.419 . S
C257 H261 0.930 . S
C258 C257 1.369 . S
C258 C267 1.429 . S
C259 C257 1.419 . S
C259 C260 1.363 . S
C259 H262 0.929 . S
C260 C259 1.363 . S
C260 C266 1.428 . S
H261 C257 0.930 . S
H262 C259 0.929 . S
S263 N264 1.613 . S
S263 N265 1.610 . S
N264 S263 1.613 . S
N264 C267 1.350 . S
N265 S263 1.610 . S
N265 C266 1.351 . S
C266 C260 1.428 . S
C266 N265 1.351 . S
C266 C267 1.434 . S
C267 C258 1.429 . S
C267 N264 1.350 . S
C267 C266 1.434 . S
C268 C269 1.369 1_554 S
C268 C270 1.419 . S
C268 H272 0.930 . S
C269 C268 1.369 1_556 S
C269 C278 1.429 1_655 S
C270 C268 1.419 . S
C270 C271 1.363 . S
C270 H273 0.929 . S
C271 C270 1.363 . S
C271 C277 1.428 1_654 S
H272 C268 0.930 . S
H273 C270 0.929 . S
S274 N275 1.613 . S
S274 N276 1.610 . S
N275 S274 1.613 . S
N275 C278 1.350 . S
N276 S274 1.610 . S
N276 C277 1.351 . S
C277 C271 1.428 1_456 S
C277 N276 1.351 . S
C277 C278 1.434 . S
C278 C269 1.429 1_455 S
C278 N275 1.350 . S
C278 C277 1.434 . S
C279 C280 1.369 . S
C279 C281 1.419 . S
C279 H283 0.930 . S
C280 C279 1.369 . S
C280 C289 1.429 . S
C281 C279 1.419 . S
C281 C282 1.363 . S
C281 H284 0.929 . S
C282 C281 1.363 . S
C282 C288 1.428 . S
H283 C279 0.930 . S
H284 C281 0.929 . S
S285 N286 1.613 . S
S285 N287 1.610 . S
N286 S285 1.613 . S
N286 C289 1.350 1_545 S
N287 S285 1.610 . S
N287 C288 1.351 1_545 S
C288 C282 1.428 . S
C288 N287 1.351 1_565 S
C288 C289 1.434 . S
C289 C280 1.429 . S
C289 N286 1.350 1_565 S
C289 C288 1.434 . S
C290 C291 1.369 . S
C290 C292 1.419 . S
C290 H294 0.930 . S
C291 C290 1.369 . S
C291 C300 1.429 1_556 S
C292 C290 1.419 . S
C292 C293 1.363 1_556 S
C292 H295 0.929 . S
C293 C292 1.363 1_554 S
C293 C299 1.428 . S
H294 C290 0.930 . S
H295 C292 0.929 . S
S296 N297 1.613 . S
S296 N298 1.610 . S
N297 S296 1.613 . S
N297 C300 1.350 . S
N298 S296 1.610 . S
N298 C299 1.351 . S
C299 C293 1.428 . S
C299 N298 1.351 . S
C299 C300 1.434 . S
C300 C291 1.429 1_554 S
C300 N297 1.350 . S
C300 C299 1.434 . S
C301 C302 1.369 . S
C301 C303 1.419 . S
C301 H305 0.930 . S
C302 C301 1.369 . S
C302 C311 1.429 . S
C303 C301 1.419 . S
C303 C304 1.363 . S
C303 H306 0.929 . S
C304 C303 1.363 . S
C304 C310 1.428 . S
H305 C301 0.930 . S
H306 C303 0.929 . S
S307 N308 1.613 . S
S307 N309 1.610 . S
N308 S307 1.613 . S
N308 C311 1.350 . S
N309 S307 1.610 . S
N309 C310 1.351 . S
C310 C304 1.428 . S
C310 N309 1.351 . S
C310 C311 1.434 . S
C311 C302 1.429 . S
C311 N308 1.350 . S
C311 C310 1.434 . S
C312 C313 1.369 . S
C312 C314 1.419 . S
C312 H316 0.930 . S
C313 C312 1.369 . S
C313 C322 1.429 . S
C314 C312 1.419 . S
C314 C315 1.363 . S
C314 H317 0.929 . S
C315 C314 1.363 . S
C315 C321 1.428 . S
H316 C312 0.930 . S
H317 C314 0.929 . S
S318 N319 1.613 . S
S318 N320 1.610 . S
N319 S318 1.613 . S
N319 C322 1.350 . S
N320 S318 1.610 . S
N320 C321 1.351 . S
C321 C315 1.428 . S
C321 N320 1.351 . S
C321 C322 1.434 . S
C322 C313 1.429 . S
C322 N319 1.350 . S
C322 C321 1.434 . S
C323 C324 1.369 . S
C323 C325 1.419 . S
C323 H327 0.930 . S
C324 C323 1.369 . S
C324 C333 1.429 . S
C325 C323 1.419 . S
C325 C326 1.363 . S
C325 H328 0.929 . S
C326 C325 1.363 . S
C326 C332 1.428 . S
H327 C323 0.930 . S
H328 C325 0.929 . S
S329 N330 1.613 . S
S329 N331 1.610 . S
N330 S329 1.613 . S
N330 C333 1.350 . S
N331 S329 1.610 . S
N331 C332 1.351 . S
C332 C326 1.428 . S
C332 N331 1.351 . S
C332 C333 1.434 . S
C333 C324 1.429 . S
C333 N330 1.350 . S
C333 C332 1.434 . S
C334 C335 1.369 . S
C334 C336 1.419 . S
C334 H338 0.930 . S
C335 C334 1.369 . S
C335 C344 1.429 . S
C336 C334 1.419 . S
C336 C337 1.363 . S
C336 H339 0.929 . S
C337 C336 1.363 . S
C337 C343 1.428 . S
H338 C334 0.930 . S
H339 C336 0.929 . S
S340 N341 1.613 . S
S340 N342 1.610 . S
N341 S340 1.613 . S
N341 C344 1.350 . S
N342 S340 1.610 . S
N342 C343 1.351 . S
C343 C337 1.428 . S
C343 N342 1.351 . S
C343 C344 1.434 . S
C344 C335 1.429 . S
C344 N341 1.350 . S
C344 C343 1.434 . S
C345 C346 1.369 . S
C345 C347 1.419 . S
C345 H349 0.930 . S
C346 C345 1.369 . S
C346 C355 1.429 . S
C347 C345 1.419 . S
C347 C348 1.363 . S
C347 H350 0.929 . S
C348 C347 1.363 . S
C348 C354 1.428 . S
H349 C345 0.930 . S
H350 C347 0.929 . S
S351 N352 1.613 . S
S351 N353 1.610 . S
N352 S351 1.613 . S
N352 C355 1.350 . S
N353 S351 1.610 . S
N353 C354 1.351 . S
C354 C348 1.428 . S
C354 N353 1.351 . S
C354 C355 1.434 . S
C355 C346 1.429 . S
C355 N352 1.350 . S
C355 C354 1.434 . S
C356 C357 1.369 . S
C356 C358 1.419 . S
C356 H360 0.930 . S
C357 C356 1.369 . S
C357 C366 1.429 . S
C358 C356 1.419 . S
C358 C359 1.363 . S
C358 H361 0.929 . S
C359 C358 1.363 . S
C359 C365 1.428 . S
H360 C356 0.930 . S
H361 C358 0.929 . S
S362 N363 1.613 . S
S362 N364 1.610 . S
N363 S362 1.613 . S
N363 C366 1.350 . S
N364 S362 1.610 . S
N364 C365 1.351 . S
C365 C359 1.428 . S
C365 N364 1.351 . S
C365 C366 1.434 . S
C366 C357 1.429 . S
C366 N363 1.350 . S
C366 C365 1.434 . S
C367 C368 1.369 . S
C367 C369 1.419 . S
C367 H371 0.930 . S
C368 C367 1.369 . S
C368 C377 1.429 . S
C369 C367 1.419 . S
C369 C370 1.363 . S
C369 H372 0.929 . S
C370 C369 1.363 . S
C370 C376 1.428 . S
H371 C367 0.930 . S
H372 C369 0.929 . S
S373 N374 1.613 . S
S373 N375 1.610 . S
N374 S373 1.613 . S
N374 C377 1.350 . S
N375 S373 1.610 . S
N375 C376 1.351 . S
C376 C370 1.428 . S
C376 N375 1.351 . S
C376 C377 1.434 . S
C377 C368 1.429 . S
C377 N374 1.350 . S
C377 C376 1.434 . S
C378 C379 1.369 . S
C378 C380 1.419 . S
C378 H382 0.930 . S
C379 C378 1.369 . S
C379 C388 1.429 . S
C380 C378 1.419 . S
C380 C381 1.363 . S
C380 H383 0.929 . S
C381 C380 1.363 . S
C381 C387 1.428 . S
H382 C378 0.930 . S
H383 C380 0.929 . S
S384 N385 1.613 . S
S384 N386 1.610 . S
N385 S384 1.613 . S
N385 C388 1.350 . S
N386 S384 1.610 . S
N386 C387 1.351 . S
C387 C381 1.428 . S
C387 N386 1.351 . S
C387 C388 1.434 . S
C388 C379 1.429 . S
C388 N385 1.350 . S
C388 C387 1.434 . S
C389 C390 1.369 . S
C389 C391 1.419 . S
C389 H393 0.930 . S
C390 C389 1.369 . S
C390 C399 1.429 . S
C391 C389 1.419 . S
C391 C392 1.363 . S
C391 H394 0.929 . S
C392 C391 1.363 . S
C392 C398 1.428 . S
H393 C389 0.930 . S
H394 C391 0.929 . S
S395 N396 1.613 . S
S395 N397 1.610 . S
N396 S395 1.613 . S
N396 C399 1.350 . S
N397 S395 1.610 . S
N397 C398 1.351 . S
C398 C392 1.428 . S
C398 N397 1.351 . S
C398 C399 1.434 . S
C399 C390 1.429 . S
C399 N396 1.350 . S
C399 C398 1.434 . S
C400 C401 1.369 . S
C400 C402 1.419 . S
C400 H404 0.930 . S
C401 C400 1.369 . S
C401 C410 1.429 . S
C402 C400 1.419 . S
C402 C403 1.363 . S
C402 H405 0.929 . S
C403 C402 1.363 . S
C403 C409 1.428 . S
H404 C400 0.930 . S
H405 C402 0.929 . S
S406 N407 1.613 . S
S406 N408 1.610 . S
N407 S406 1.613 . S
N407 C410 1.350 . S
N408 S406 1.610 . S
N408 C409 1.351 . S
C409 C403 1.428 . S
C409 N408 1.351 . S
C409 C410 1.434 . S
C410 C401 1.429 . S
C410 N407 1.350 . S
C410 C409 1.434 . S
C411 C412 1.369 . S
C411 C413 1.419 . S
C411 H415 0.930 . S
C412 C411 1.369 . S
C412 C421 1.429 . S
C413 C411 1.419 . S
C413 C414 1.363 . S
C413 H416 0.929 . S
C414 C413 1.363 . S
C414 C420 1.428 . S
H415 C411 0.930 . S
H416 C413 0.929 . S
S417 N418 1.613 . S
S417 N419 1.610 . S
N418 S417 1.613 . S
N418 C421 1.350 . S
N419 S417 1.610 . S
N419 C420 1.351 . S
C420 C414 1.428 . S
C420 N419 1.351 . S
C420 C421 1.434 . S
C421 C412 1.429 . S
C421 N418 1.350 . S
C421 C420 1.434 . S
C422 C423 1.369 . S
C422 C424 1.419 . S
C422 H426 0.930 . S
C423 C422 1.369 . S
C423 C432 1.429 . S
C424 C422 1.419 . S
C424 C425 1.363 . S
C424 H427 0.929 . S
C425 C424 1.363 . S
C425 C431 1.428 . S
H426 C422 0.930 . S
H427 C424 0.929 . S
S428 N429 1.613 . S
S428 N430 1.610 . S
N429 S428 1.613 . S
N429 C432 1.350 . S
N430 S428 1.610 . S
N430 C431 1.351 . S
C431 C425 1.428 . S
C431 N430 1.351 . S
C431 C432 1.434 . S
C432 C423 1.429 . S
C432 N429 1.350 . S
C432 C431 1.434 . S
C433 C434 1.369 . S
C433 C435 1.419 . S
C433 H437 0.930 . S
C434 C433 1.369 . S
C434 C443 1.429 . S
C435 C433 1.419 . S
C435 C436 1.363 . S
C435 H438 0.929 . S
C436 C435 1.363 . S
C436 C442 1.428 . S
H437 C433 0.930 . S
H438 C435 0.929 . S
S439 N440 1.613 . S
S439 N441 1.610 . S
N440 S439 1.613 . S
N440 C443 1.350 . S
N441 S439 1.610 . S
N441 C442 1.351 . S
C442 C436 1.428 . S
C442 N441 1.351 . S
C442 C443 1.434 . S
C443 C434 1.429 . S
C443 N440 1.350 . S
C443 C442 1.434 . S
C444 C445 1.369 . S
C444 C446 1.419 . S
C444 H448 0.930 . S
C445 C444 1.369 . S
C445 C454 1.429 . S
C446 C444 1.419 . S
C446 C447 1.363 . S
C446 H449 0.929 . S
C447 C446 1.363 . S
C447 C453 1.428 . S
H448 C444 0.930 . S
H449 C446 0.929 . S
S450 N451 1.613 . S
S450 N452 1.610 . S
N451 S450 1.613 . S
N451 C454 1.350 . S
N452 S450 1.610 . S
N452 C453 1.351 . S
C453 C447 1.428 . S
C453 N452 1.351 . S
C453 C454 1.434 . S
C454 C445 1.429 . S
C454 N451 1.350 . S
C454 C453 1.434 . S
C455 C456 1.369 . S
C455 C457 1.419 . S
C455 H459 0.930 . S
C456 C455 1.369 . S
C456 C465 1.429 . S
C457 C455 1.419 . S
C457 C458 1.363 . S
C457 H460 0.929 . S
C458 C457 1.363 . S
C458 C464 1.428 . S
H459 C455 0.930 . S
H460 C457 0.929 . S
S461 N462 1.613 . S
S461 N463 1.610 . S
N462 S461 1.613 . S
N462 C465 1.350 . S
N463 S461 1.610 . S
N463 C464 1.351 . S
C464 C458 1.428 . S
C464 N463 1.351 . S
C464 C465 1.434 . S
C465 C456 1.429 . S
C465 N462 1.350 . S
C465 C464 1.434 . S
C466 C467 1.369 . S
C466 C468 1.419 . S
C466 H470 0.930 . S
C467 C466 1.369 . S
C467 C476 1.429 . S
C468 C466 1.419 . S
C468 C469 1.363 . S
C468 H471 0.929 . S
C469 C468 1.363 . S
C469 C475 1.428 . S
H470 C466 0.930 . S
H471 C468 0.929 . S
S472 N473 1.613 . S
S472 N474 1.610 . S
N473 S472 1.613 . S
N473 C476 1.350 . S
N474 S472 1.610 . S
N474 C475 1.351 . S
C475 C469 1.428 . S
C475 N474 1.351 . S
C475 C476 1.434 . S
C476 C467 1.429 . S
C476 N473 1.350 . S
C476 C475 1.434 . S
C477 C478 1.369 . S
C477 C479 1.419 . S
C477 H481 0.930 . S
C478 C477 1.369 . S
C478 C487 1.429 . S
C479 C477 1.419 . S
C479 C480 1.363 . S
C479 H482 0.929 . S
C480 C479 1.363 . S
C480 C486 1.428 . S
H481 C477 0.930 . S
H482 C479 0.929 . S
S483 N484 1.613 . S
S483 N485 1.610 . S
N484 S483 1.613 . S
N484 C487 1.350 . S
N485 S483 1.610 . S
N485 C486 1.351 . S
C486 C480 1.428 . S
C486 N485 1.351 . S
C486 C487 1.434 . S
C487 C478 1.429 . S
C487 N484 1.350 . S
C487 C486 1.434 . S
C488 C489 1.369 . S
C488 C490 1.419 . S
C488 H492 0.930 . S
C489 C488 1.369 . S
C489 C498 1.429 . S
C490 C488 1.419 . S
C490 C491 1.363 . S
C490 H493 0.929 . S
C491 C490 1.363 . S
C491 C497 1.428 . S
H492 C488 0.930 . S
H493 C490 0.929 . S
S494 N495 1.613 . S
S494 N496 1.610 . S
N495 S494 1.613 . S
N495 C498 1.350 . S
N496 S494 1.610 . S
N496 C497 1.351 . S
C497 C491 1.428 . S
C497 N496 1.351 . S
C497 C498 1.434 . S
C498 C489 1.429 . S
C498 N495 1.350 . S
C498 C497 1.434 . S
C499 C500 1.369 . S
C499 C501 1.419 . S
C499 H503 0.930 . S
C500 C499 1.369 . S
C500 C509 1.429 . S
C501 C499 1.419 . S
C501 C502 1.363 . S
C501 H504 0.929 . S
C502 C501 1.363 . S
C502 C508 1.428 . S
H503 C499 0.930 . S
H504 C501 0.929 . S
S505 N506 1.613 . S
S505 N507 1.610 . S
N506 S505 1.613 . S
N506 C509 1.350 . S
N507 S505 1.610 . S
N507 C508 1.351 . S
C508 C502 1.428 . S
C508 N507 1.351 . S
C508 C509 1.434 . S
C509 C500 1.429 . S
C509 N506 1.350 . S
C509 C508 1.434 . S
C510 C511 1.369 . S
C510 C512 1.419 . S
C510 H514 0.930 . S
C511 C510 1.369 . S
C511 C520 1.429 . S
C512 C510 1.419 . S
C512 C513 1.363 . S
C512 H515 0.929 . S
C513 C512 1.363 . S
C513 C519 1.428 . S
H514 C510 0.930 . S
H515 C512 0.929 . S
S516 N517 1.613 . S
S516 N518 1.610 . S
N517 S516 1.613 . S
N517 C520 1.350 . S
N518 S516 1.610 . S
N518 C519 1.351 . S
C519 C513 1.428 . S
C519 N518 1.351 . S
C519 C520 1.434 . S
C520 C511 1.429 . S
C520 N517 1.350 . S
C520 C519 1.434 . S
C521 C522 1.369 . S
C521 C523 1.419 . S
C521 H525 0.930 . S
C522 C521 1.369 . S
C522 C531 1.429 . S
C523 C521 1.419 . S
C523 C524 1.363 . S
C523 H526 0.929 . S
C524 C523 1.363 . S
C524 C530 1.428 . S
H525 C521 0.930 . S
H526 C523 0.929 . S
S527 N528 1.613 . S
S527 N529 1.610 . S
N528 S527 1.613 . S
N528 C531 1.350 . S
N529 S527 1.610 . S
N529 C530 1.351 . S
C530 C524 1.428 . S
C530 N529 1.351 . S
C530 C531 1.434 . S
C531 C522 1.429 . S
C531 N528 1.350 . S
C531 C530 1.434 . S
C532 C533 1.369 . S
C532 C534 1.419 . S
C532 H536 0.930 . S
C533 C532 1.369 . S
C533 C542 1.429 . S
C534 C532 1.419 . S
C534 C535 1.363 . S
C534 H537 0.929 . S
C535 C534 1.363 . S
C535 C541 1.428 . S
H536 C532 0.930 . S
H537 C534 0.929 . S
S538 N539 1.613 . S
S538 N540 1.610 . S
N539 S538 1.613 . S
N539 C542 1.350 . S
N540 S538 1.610 . S
N540 C541 1.351 . S
C541 C535 1.428 . S
C541 N540 1.351 . S
C541 C542 1.434 . S
C542 C533 1.429 . S
C542 N539 1.350 . S
C542 C541 1.434 . S
C543 C544 1.369 . S
C543 C545 1.419 . S
C543 H547 0.930 . S
C544 C543 1.369 . S
C544 C553 1.429 . S
C545 C543 1.419 . S
C545 C546 1.363 . S
C545 H548 0.929 . S
C546 C545 1.363 . S
C546 C552 1.428 . S
H547 C543 0.930 . S
H548 C545 0.929 . S
S549 N550 1.613 . S
S549 N551 1.610 . S
N550 S549 1.613 . S
N550 C553 1.350 . S
N551 S549 1.610 . S
N551 C552 1.351 . S
C552 C546 1.428 . S
C552 N551 1.351 . S
C552 C553 1.434 . S
C553 C544 1.429 . S
C553 N550 1.350 . S
C553 C552 1.434 . S
C554 C555 1.369 . S
C554 C556 1.419 . S
C554 H558 0.930 . S
C555 C554 1.369 . S
C555 C564 1.429 . S
C556 C554 1.419 . S
C556 C557 1.363 . S
C556 H559 0.929 . S
C557 C556 1.363 . S
C557 C563 1.428 . S
H558 C554 0.930 . S
H559 C556 0.929 . S
S560 N561 1.613 . S
S560 N562 1.610 . S
N561 S560 1.613 . S
N561 C564 1.350 . S
N562 S560 1.610 . S
N562 C563 1.351 . S
C563 C557 1.428 . S
C563 N562 1.351 . S
C563 C564 1.434 . S
C564 C555 1.429 . S
C564 N561 1.350 . S
C564 C563 1.434 . S
C565 C566 1.369 . S
C565 C567 1.419 . S
C565 H569 0.930 . S
C566 C565 1.369 . S
C566 C575 1.429 . S
C567 C565 1.419 . S
C567 C568 1.363 . S
C567 H570 0.929 . S
C568 C567 1.363 . S
C568 C574 1.428 . S
H569 C565 0.930 . S
H570 C567 0.929 . S
S571 N572 1.613 . S
S571 N573 1.610 . S
N572 S571 1.613 . S
N572 C575 1.350 . S
N573 S571 1.610 . S
N573 C574 1.351 . S
C574 C568 1.428 . S
C574 N573 1.351 . S
C574 C575 1.434 . S
C575 C566 1.429 . S
C575 N572 1.350 . S
C575 C574 1.434 . S
C225 C11 1.289 . S
C227 C67 1.291 . S
C236 C81 1.289 . S
C238 C25 1.292 . S
C247 C39 1.289 . S
C249 C95 1.291 . S
C258 C53 1.289 . S
C260 C109 1.292 . S
C269 C123 1.291 . S
C271 C179 1.289 . S
C280 C193 1.289 . S
C282 C137 1.291 . S
C291 C151 1.289 . S
C293 C207 1.290 . S
C302 C165 1.291 . S
C304 C221 1.289 . S
C313 C13 1.247 . S
C315 C218 1.233 . S
C324 C176 1.245 . S
C326 C27 1.240 . S
C335 C41 1.249 . S
C337 C190 1.238 . S
C346 C204 1.231 . S
C348 C55 1.245 . S
C357 C134 1.239 . S
C359 C69 1.248 . S
C368 C148 1.234 . S
C370 C83 1.247 . S
C379 C162 1.230 . S
C381 C97 1.244 . S
C390 C120 1.231 . S
C392 C111 1.241 . S
C401 C125 1.235 . S
C403 C106 1.240 . S
C412 C64 1.232 . S
C414 C139 1.240 . S
C423 C78 1.242 . S
C425 C153 1.246 . S
C434 C167 1.238 . S
C436 C92 1.235 . S
C445 C22 1.232 . S
C447 C181 1.240 . S
C456 C195 1.236 . S
C458 C36 1.237 . S
C467 C209 1.249 . S
C469 C50 1.237 . S
C478 C223 1.249 . S
C480 C8 1.234 . S
C489 C105 1.380 . S
C491 C7 1.383 . S
C500 C21 1.380 . S
C502 C63 1.383 . S
C511 C35 1.388 . S
C513 C77 1.389 . S
C522 C49 1.387 . S
C524 C91 1.382 . S
C533 C217 1.384 . S
C535 C119 1.381 . S
C544 C175 1.387 . S
C546 C133 1.389 . S
C555 C189 1.381 . S
C557 C147 1.381 . S
C566 C203 1.386 . S
C568 C161 1.382 . S
