# Generated by pormake.
# Topology sma, (6)-cn, num edge types: 1
# Building blocks:
#     Node 0, Type 0, BuildingBlock: BETDIP_clean_sbu_0, # of connection points: 6
#     Node 1, Type 0, BuildingBlock: BETDIP_clean_sbu_0, # of connection points: 6
#     Node 2, Type 0, BuildingBlock: BETDIP_clean_sbu_0, # of connection points: 6
#     Edge 3, Type (0, 0), BuildingBlock: FUNLAD_clean_linker_1, # of connection points: 2
#     Edge 4, Type (0, 0), BuildingBlock: FUNLAD_clean_linker_1, # of connection points: 2
#     Edge 5, Type (0, 0), BuildingBlock: FUNLAD_clean_linker_1, # of connection points: 2
#     Edge 6, Type (0, 0), BuildingBlock: FUNLAD_clean_linker_1, # of connection points: 2
#     Edge 7, Type (0, 0), BuildingBlock: FUNLAD_clean_linker_1, # of connection points: 2
#     Edge 8, Type (0, 0), BuildingBlock: FUNLAD_clean_linker_1, # of connection points: 2
#     Edge 9, Type (0, 0), BuildingBlock: FUNLAD_clean_linker_1, # of connection points: 2
#     Edge 10, Type (0, 0), BuildingBlock: FUNLAD_clean_linker_1, # of connection points: 2
#     Edge 11, Type (0, 0), BuildingBlock: FUNLAD_clean_linker_1, # of connection points: 2
# Relax obj value: 0.075
# Max RMSD: 0.175
# Mean RMSD: 0.175
data_MOF--net-sma--node1-BETDIP_clean_sbu_0--edge1-FUNLAD_clean_linker_1
_symmetry_space_group_name_H-M    P1
_symmetry_Int_Tables_number       1
_symmetry_cell_setting            triclinic
loop_
_symmetry_equiv_pos_as_xyz
'x, y, z'
_cell_length_a     40.63758
_cell_length_b     41.200037
_cell_length_c     14.16542
_cell_angle_alpha  90.498645
_cell_angle_beta   89.079543
_cell_angle_gamma 120.46356
loop_
_atom_site_label
_atom_site_type_symbol
_atom_site_fract_x
_atom_site_fract_y
_atom_site_fract_z
_atom_type_partial_charge
Tb0 Tb 0.08539 0.57592 0.09356 0.0
Tb1 Tb 1.02634 0.49052 0.08001 0.0
C2 C 0.12399 0.64279 0.15203 0.0
C3 C 0.16386 0.67131 0.17557 0.0
C4 C 0.18793 0.6618 0.22292 0.0
C5 C 0.22472 0.68991 0.24927 0.0
C6 C 0.23829 0.72811 0.22923 0.0
C7 C 0.21437 0.73726 0.17911 0.0
C8 C 0.1776 0.70919 0.15314 0.0
C9 C 0.07887 0.54591 0.92753 0.0
C10 C 0.11678 0.52119 0.08031 0.0
C11 C 0.98551 0.42026 0.05917 0.0
C12 C 0.94776 0.39067 0.09548 0.0
C13 C 0.92129 0.39971 0.13365 0.0
C14 C 0.88663 0.37152 0.17301 0.0
C15 C 0.87783 0.33378 0.17627 0.0
C16 C 0.90434 0.32486 0.1366 0.0
C17 C 0.93891 0.35305 0.09703 0.0
C18 C 1.03327 0.52327 0.24289 0.0
C19 C 0.9962 0.54623 0.05249 0.0
O20 O 0.10627 0.61341 0.20775 0.0
O21 O 0.11661 0.63385 0.06277 0.0
O22 O 1.05249 0.53707 -0.01318 0.0
O23 O 0.10983 0.57582 0.95541 0.0
O24 O 0.1239 0.55444 0.11241 0.0
O25 O 0.08209 0.49452 0.0539 0.0
O26 O 0.98605 0.44476 -0.00043 0.0
O27 O 1.01207 0.4363 0.12283 0.0
O28 O 0.05958 0.52947 0.186 0.0
O29 O 1.00159 0.49504 0.21401 0.0
O30 O 0.98937 0.51156 0.03709 0.0
O31 O 1.02984 0.57382 0.08282 0.0
H32 H 0.17818 0.63275 0.24057 0.0
H33 H 0.24246 0.68177 0.28673 0.0
H34 H 0.22369 0.76593 0.15917 0.0
H35 H 0.15966 0.71717 0.11604 0.0
H36 H 0.92758 0.4286 0.1339 0.0
H37 H 0.86681 0.37936 0.20215 0.0
H38 H 0.89855 0.2962 0.13481 0.0
H39 H 0.95895 0.34545 0.06811 0.0
Tb40 Tb 0.5718 1.01485 0.4955 0.0
Tb41 Tb 0.54225 0.06683 0.43797 0.0
C42 C 0.58243 0.96806 0.58493 0.0
C43 C 0.56991 0.92719 0.59254 0.0
C44 C 0.54451 0.90489 0.66485 0.0
C45 C 0.53651 0.86791 0.68008 0.0
C46 C 0.55406 0.85225 0.62459 0.0
C47 C 0.57867 0.87422 0.5504 0.0
C48 C 0.58659 0.91116 0.535 0.0
C49 C 0.58158 1.03264 0.31699 0.0
C50 C 0.48574 0.97993 0.42085 0.0
C51 C 0.52982 0.11742 0.37891 0.0
C52 C 0.52875 0.1503 0.41964 0.0
C53 C 0.50161 0.15887 0.38708 0.0
C54 C 0.49951 0.18941 0.42439 0.0
C55 C 0.52465 0.21253 0.495 0.0
C56 C 0.55187 0.20381 0.52811 0.0
C57 C 0.55383 0.17301 0.49085 0.0
C58 C 0.53732 0.05065 0.61886 0.0
C59 C 0.6312 0.09993 0.46583 0.0
O60 O 0.55887 0.97922 0.61346 0.0
O61 O 0.60173 0.98607 0.50918 0.0
O62 O 0.5535 1.0274 0.3673 0.0
O63 O 0.60244 1.02269 0.36243 0.0
O64 O 0.51025 0.97472 0.47052 0.0
O65 O 0.49518 1.01351 0.3869 0.0
O66 O 0.56299 0.11953 0.37287 0.0
O67 O 0.50298 0.08421 0.40728 0.0
O68 O 0.56395 0.05654 0.56345 0.0
O69 O 0.51399 0.05774 0.57639 0.0
O70 O 0.60417 0.1024 0.42121 0.0
O71 O 0.62332 0.06987 0.51685 0.0
H72 H 0.53152 0.91635 0.71148 0.0
H73 H 0.51723 0.85181 0.73734 0.0
H74 H 0.59209 0.86322 0.50399 0.0
H75 H 0.60654 0.92744 0.47905 0.0
H76 H 0.48183 0.14178 0.33259 0.0
H77 H 0.4781 0.19506 0.39747 0.0
H78 H 0.57134 0.22015 0.58362 0.0
H79 H 0.57482 0.16684 0.51811 0.0
Tb80 Tb 0.52495 0.51891 0.77751 0.0
Tb81 Tb 0.60909 0.55695 0.71994 0.0
C82 C 0.46318 0.50113 0.86421 0.0
C83 C 0.43585 0.51412 0.88871 0.0
C84 C 0.43495 0.5272 -0.01977 0.0
C85 C 0.40597 0.53445 0.00798 0.0
C86 C 0.3767 0.52823 0.9457 0.0
C87 C 0.37831 0.51634 0.85302 0.0
C88 C 0.40736 0.50923 0.82517 0.0
C89 C 0.53774 0.51098 0.60079 0.0
C90 C 0.57042 0.60555 0.70768 0.0
C91 C 0.67464 0.57442 0.65856 0.0
C92 C 0.70503 0.56758 0.69236 0.0
C93 C 0.72935 0.56389 0.62736 0.0
C94 C 0.75891 0.55859 0.65858 0.0
C95 C 0.76521 0.55731 0.75556 0.0
C96 C 0.7403 0.56035 0.8207 0.0
C97 C 0.71056 0.56536 0.78939 0.0
C98 C 0.59459 0.56054 0.89931 0.0
C99 C 0.56117 0.46757 0.75812 0.0
O100 O 0.49664 0.5177 0.90474 0.0
O101 O 0.46532 0.4927 0.77588 0.0
O102 O 0.55705 0.54023 0.64939 0.0
O103 O 0.50769 0.48662 0.64731 0.0
O104 O 0.5416 0.57903 0.75878 0.0
O105 O 0.59718 0.59984 0.67023 0.0
O106 O 0.6432 0.54512 0.62841 0.0
O107 O 0.6676 0.59647 0.71131 0.0
O108 O 0.57656 0.53292 0.84578 0.0
O109 O 0.62401 0.58654 0.85524 0.0
O110 O 0.59263 0.49743 0.72586 0.0
O111 O 0.53179 0.4697 0.79318 0.0
H112 H 0.45605 0.5308 0.03149 0.0
H113 H 0.40584 0.54391 0.07951 0.0
H114 H 0.35721 0.51231 0.80151 0.0
H115 H 0.40688 0.49898 0.75424 0.0
H116 H 0.7256 0.56531 0.55225 0.0
H117 H 0.77724 0.55592 0.60657 0.0
H118 H 0.7432 0.55831 0.89585 0.0
H119 H 0.69189 0.56758 0.8412 0.0
H120 H 0.14212 0.48621 0.04214 0.0
C121 C 0.14894 0.51422 0.06448 0.0
H122 H 0.19308 0.57038 0.08575 0.0
H123 H 0.29187 0.48182 0.09792 0.0
H124 H 0.25869 0.45562 0.24635 0.0
H125 H 0.2072 0.46646 0.30182 0.0
H126 H 0.18818 0.50318 0.20851 0.0
C127 C 0.18589 0.54178 0.06866 0.0
C128 C 0.21777 0.5357 0.03714 0.0
C129 C 0.2293 0.51495 0.09339 0.0
C130 C 0.25991 0.50965 0.06259 0.0
C131 C 0.26966 0.48761 0.11883 0.0
C132 C 0.25071 0.47226 0.20409 0.0
C133 C 0.22166 0.47829 0.23524 0.0
C134 C 0.21094 0.49934 0.18085 0.0
H135 H 0.3503 0.5515 0.04323 0.0
C136 C 0.34524 0.5345 -0.01995 0.0
H137 H 0.30399 0.50127 0.87798 0.0
H138 H 0.20325 0.57689 0.91184 0.0
H139 H 0.23725 0.60422 0.76496 0.0
H140 H 0.29108 0.59636 0.71356 0.0
H141 H 0.31123 0.561 0.8086 0.0
C142 C 0.31045 0.51885 0.94027 0.0
C143 C 0.27966 0.52584 -0.02361 0.0
C144 C 0.26832 0.54688 0.9207 0.0
C145 C 0.23748 0.55181 0.95099 0.0
C146 C 0.22669 0.57261 0.89298 0.0
C147 C 0.24591 0.5884 0.80831 0.0
C148 C 0.27618 0.58392 0.7793 0.0
C149 C 0.28739 0.56347 0.83448 0.0
H150 H 0.69397 0.12816 0.48616 0.0
C151 C 0.67156 0.13031 0.45115 0.0
H152 H 0.65866 0.1598 0.35082 0.0
H153 H 0.8324 0.29969 0.41151 0.0
H154 H 0.80874 0.3077 0.56306 0.0
H155 H 0.74476 0.26028 0.62214 0.0
H156 H 0.70412 0.20423 0.53042 0.0
C157 C 0.68093 0.15846 0.38895 0.0
C158 C 0.72108 0.18562 0.35845 0.0
C159 C 0.74445 0.21838 0.41227 0.0
C160 C 0.78113 0.24623 0.37699 0.0
C161 C 0.80404 0.27815 0.43358 0.0
C162 C 0.79087 0.28301 0.52096 0.0
C163 C 0.75485 0.25628 0.5543 0.0
C164 C 0.73181 0.22426 0.50097 0.0
H165 H 0.81841 0.31203 0.22853 0.0
C166 C 0.84047 0.30469 0.21921 0.0
H167 H 0.85393 0.26195 0.24196 0.0
H168 H 0.68405 0.12592 0.23811 0.0
H169 H 0.70713 0.11814 0.08559 0.0
H170 H 0.77013 0.16654 0.02352 0.0
H171 H 0.81048 0.22308 0.11353 0.0
C172 C 0.83274 0.27042 0.24895 0.0
C173 C 0.79422 0.2416 0.28703 0.0
C174 C 0.771 0.20849 0.234 0.0
C175 C 0.73447 0.18062 0.26953 0.0
C176 C 0.71189 0.14807 0.21438 0.0
C177 C 0.72482 0.14318 0.12676 0.0
C178 C 0.7603 0.17043 0.09185 0.0
C179 C 0.78322 0.20273 0.14442 0.0
H180 H 0.52173 0.79587 0.69284 0.0
C181 C 0.546 0.81322 0.64675 0.0
H182 H 0.59403 0.81639 0.57722 0.0
H183 H 0.60551 0.69584 0.82077 0.0
H184 H 0.65822 0.75367 0.88193 0.0
H185 H 0.66713 0.81535 0.83711 0.0
H186 H 0.62314 0.81959 0.73142 0.0
C187 C 0.56804 0.79901 0.61756 0.0
C188 C 0.56091 0.76105 0.64817 0.0
C189 C 0.58717 0.7588 0.70887 0.0
C190 C 0.5824 0.72309 0.73354 0.0
C191 C 0.60836 0.72205 0.79721 0.0
C192 C 0.63863 0.75507 0.83354 0.0
C193 C 0.64362 0.7898 0.80838 0.0
C194 C 0.61822 0.79181 0.74724 0.0
H195 H 0.59712 0.66237 0.64513 0.0
C196 C 0.57282 0.64208 0.6872 0.0
H197 H 0.52218 0.63143 0.75809 0.0
H198 H 0.50574 0.75447 0.52827 0.0
H199 H 0.45272 0.69656 0.46807 0.0
H200 H 0.44426 0.63491 0.51146 0.0
H201 H 0.48889 0.63074 0.6151 0.0
C202 C 0.54735 0.65166 0.71852 0.0
C203 C 0.55174 0.68934 0.69598 0.0
C204 C 0.52498 0.69153 0.637 0.0
C205 C 0.52966 0.72726 0.61264 0.0
C206 C 0.50321 0.72827 0.55067 0.0
C207 C 0.47271 0.69521 0.51517 0.0
C208 C 0.46796 0.66049 0.53956 0.0
C209 C 0.49375 0.6585 0.59936 0.0
H210 H 0.80794 0.53932 0.73426 0.0
C211 C 0.79712 0.55156 0.7855 0.0
H212 H 0.80437 0.5745 0.92301 0.0
H213 H 0.88173 0.49221 0.10814 0.0
H214 H 0.81974 0.46161 0.18644 0.0
H215 H 0.76871 0.47275 0.13404 0.0
H216 H 0.7793 0.51461 0.00319 0.0
C217 C 0.8141 0.5618 0.87053 0.0
C218 C 0.84514 0.55434 0.8991 0.0
C219 C 0.83858 0.5296 -0.02442 0.0
C220 C 0.86793 0.52274 0.00512 0.0
C221 C 0.8604 0.49808 0.08205 0.0
C222 C 0.82496 0.48039 0.12783 0.0
C223 C 0.79625 0.4867 0.09841 0.0
C224 C 0.80278 0.51092 0.02326 0.0
H225 H 0.97245 0.58411 0.04215 0.0
C226 C 0.96652 0.55567 0.02828 0.0
H227 H 0.927 0.50215 -0.02652 0.0
H228 H 0.86957 0.60687 0.75789 0.0
H229 H 0.9308 0.63576 0.67635 0.0
H230 H 0.97988 0.62052 0.72032 0.0
H231 H 0.96837 0.57681 0.84718 0.0
C232 C 0.93356 0.53087 -0.01401 0.0
C233 C 0.904 0.54048 0.95832 0.0
C234 C 0.91062 0.56516 0.88162 0.0
C235 C 0.88153 0.57268 0.85332 0.0
C236 C 0.88987 0.59892 0.77982 0.0
C237 C 0.92504 0.61593 0.73275 0.0
C238 C 0.95274 0.60743 0.75768 0.0
C239 C 0.94579 0.58239 0.83109 0.0
H240 H 0.42822 0.95379 0.36008 0.0
C241 C 0.44821 0.94757 0.39402 0.0
H242 H 0.4584 0.90433 0.43575 0.0
H243 H 0.26892 0.8121 0.41738 0.0
H244 H 0.27283 0.8461 0.56127 0.0
H245 H 0.33509 0.89541 0.62144 0.0
H246 H 0.39388 0.91113 0.53792 0.0
C247 C 0.4383 0.91136 0.40619 0.0
C248 C 0.40063 0.88003 0.37275 0.0
C249 C 0.36646 0.87089 0.42261 0.0
C250 C 0.3305 0.84225 0.38798 0.0
C251 C 0.29695 0.83379 0.43972 0.0
C252 C 0.29878 0.85298 0.52272 0.0
C253 C 0.33384 0.88075 0.55659 0.0
C254 C 0.36737 0.88963 0.50765 0.0
H255 H 0.29598 0.74743 0.2866 0.0
C256 C 0.27736 0.75721 0.26138 0.0
H257 H 0.27187 0.80536 0.24641 0.0
H258 H 0.46053 0.88941 0.26222 0.0
H259 H 0.45685 0.85589 0.11743 0.0
H260 H 0.39461 0.80741 0.05518 0.0
H261 H 0.33569 0.79188 0.13746 0.0
C262 C 0.29033 0.79456 0.26467 0.0
C263 C 0.32858 0.82246 0.30372 0.0
C264 C 0.36286 0.83126 0.25453 0.0
C265 C 0.39886 0.85977 0.28964 0.0
C266 C 0.43252 0.86808 0.23878 0.0
C267 C 0.43081 0.8491 0.1555 0.0
C268 C 0.39576 0.82178 0.12048 0.0
C269 C 0.36212 0.81297 0.16883 0.0
H270 H 0.58716 0.4319 0.75313 0.0
C271 C 0.56002 0.43107 0.75056 0.0
H272 H 0.50255 0.39873 0.70967 0.0
H273 H 0.54776 0.3058 0.42548 0.0
H274 H 0.54318 0.34848 0.31734 0.0
H275 H 0.53296 0.39921 0.3764 0.0
H276 H 0.528 0.40806 0.54424 0.0
C277 C 0.52906 0.39907 0.72179 0.0
C278 C 0.53248 0.36631 0.68699 0.0
C279 C 0.534 0.36047 0.58843 0.0
C280 C 0.53885 0.3304 0.55418 0.0
C281 C 0.54261 0.32704 0.45553 0.0
C282 C 0.54037 0.35161 0.39251 0.0
C283 C 0.53473 0.38025 0.42575 0.0
C284 C 0.53178 0.38491 0.52238 0.0
H285 H 0.49476 0.2448 0.5143 0.0
C286 C 0.52055 0.24458 0.53252 0.0
H287 H 0.57306 0.27489 0.60411 0.0
H288 H 0.52977 0.3687 0.87926 0.0
H289 H 0.53422 0.32603 -0.01157 0.0
H290 H 0.54141 0.27337 0.92987 0.0
H291 H 0.54427 0.26298 0.7619 0.0
C292 C 0.54692 0.27382 0.58386 0.0
C293 C 0.541 0.30521 0.6185 0.0
C294 C 0.53935 0.31108 0.71712 0.0
C295 C 0.53514 0.34155 0.7512 0.0
C296 C 0.53328 0.3463 0.84982 0.0
C297 C 0.53568 0.32195 0.91321 0.0
C298 C 0.53973 0.29229 0.88022 0.0
C299 C 0.54145 0.28672 0.78352 0.0
H300 H 1.04352 0.50776 0.81712 0.0
C301 C 0.07128 0.5324 0.83122 0.0
H302 H 0.12005 0.57967 0.77316 0.0
H303 H 1.01848 0.4587 0.42758 0.0
H304 H 1.04402 0.42048 0.48378 0.0
H305 H 0.08528 0.43979 0.62363 0.0
H306 H 0.10118 0.49749 0.70788 0.0
C307 C 0.09356 0.55348 0.76015 0.0
C308 C 0.07639 0.54627 0.66629 0.0
C309 C 0.068 0.51288 0.61759 0.0
C310 C 1.04479 0.50213 0.53679 0.0
C311 C 1.03636 0.46841 0.48926 0.0
C312 C 1.05076 0.44617 0.52087 0.0
C313 C 0.07392 0.45699 0.59967 0.0
C314 C 0.08261 0.48999 0.64769 0.0
H315 H 0.06904 0.56068 0.35417 0.0
C316 C 1.04038 0.53786 0.33838 0.0
H317 H 0.988 0.49451 0.39448 0.0
H318 H 0.08708 0.61205 0.74566 0.0
H319 H 0.06137 0.65003 0.68921 0.0
H320 H 1.02159 0.63149 0.54679 0.0
H321 H 1.00701 0.57446 0.46063 0.0
C322 C 1.01573 0.51915 0.4083 0.0
C323 C 1.03125 0.52555 0.50384 0.0
C324 C 1.03944 0.5588 0.55269 0.0
C325 C 0.06229 0.56936 0.63419 0.0
C326 C 0.06987 0.60262 0.68286 0.0
C327 C 1.05533 0.62474 0.65115 0.0
C328 C 1.03297 0.61433 0.57092 0.0
C329 C 1.025 0.58173 0.52193 0.0
H330 H 0.60876 0.03963 0.17809 0.0
C331 C 0.58529 0.03972 0.21585 0.0
H332 H 0.53498 0.04251 0.20527 0.0
H333 H 0.626 0.10784 0.79339 0.0
H334 H 0.67062 0.16315 0.88204 0.0
H335 H 0.66507 0.16507 0.05547 0.0
H336 H 0.61499 0.11163 0.14122 0.0
C337 C 0.55942 0.04388 0.16898 0.0
C338 C 0.56078 0.04441 0.06501 0.0
C339 C 0.5901 0.07606 0.01645 0.0
C340 C 0.593 0.07509 0.91674 0.0
C341 C 0.62242 0.10706 0.86934 0.0
C342 C 0.64823 0.13901 0.91934 0.0
C343 C 0.64515 0.14008 0.01698 0.0
C344 C 0.61641 0.10911 0.06536 0.0
H345 H 0.51341 0.04326 0.762 0.0
C346 C 0.53703 0.04514 0.72035 0.0
H347 H 0.5902 0.04747 0.72212 0.0
H348 H 0.5017 0.9788 0.13846 0.0
H349 H 0.4586 0.9227 0.05034 0.0
H350 H 0.46505 0.92032 0.87725 0.0
H351 H 0.51437 0.97432 0.79128 0.0
C352 C 0.56568 0.04408 0.76252 0.0
C353 C 0.56619 0.04273 0.86651 0.0
C354 C 0.5377 1.01062 0.91543 0.0
C355 C 0.53458 1.0117 0.01499 0.0
C356 C 0.50553 0.97948 0.06257 0.0
C357 C 0.48062 0.94704 0.01291 0.0
C358 C 0.48418 0.94574 0.91546 0.0
C359 C 0.5124 0.97703 0.86691 0.0
H360 H 0.52226 0.48259 0.46373 0.0
C361 C 0.54299 0.50807 0.49997 0.0
H362 H 0.59041 0.56318 0.48592 0.0
H363 H 0.58347 0.47983 0.07554 0.0
H364 H 0.60758 0.44592 0.16265 0.0
H365 H 0.61517 0.45296 0.33544 0.0
H366 H 0.59872 0.49401 0.422 0.0
C367 C 0.57053 0.53691 0.45128 0.0
C368 C 0.56975 0.53542 0.34749 0.0
C369 C 0.57978 0.51151 0.29849 0.0
C370 C 0.57567 0.50769 0.19922 0.0
C371 C 0.58604 0.4838 0.15124 0.0
C372 C 0.59993 0.46417 0.20035 0.0
C373 C 0.60418 0.46812 0.29762 0.0
C374 C 0.59441 0.49158 0.3465 0.0
H375 H 0.60772 0.58536 0.04077 0.0
C376 C 0.58904 0.56 0.0011 0.0
H377 H 0.54582 0.50261 0.0076 0.0
H378 H 0.54724 0.58294 0.4223 0.0
H379 H 0.52048 0.61464 0.33616 0.0
H380 H 0.51144 0.60636 0.16386 0.0
H381 H 0.5295 0.56661 0.07688 0.0
C382 C 0.56333 0.52867 0.04596 0.0
C383 C 0.56203 0.5282 0.14996 0.0
C384 C 0.55078 0.5511 0.19945 0.0
C385 C 0.55525 0.55521 0.29851 0.0
C386 C 0.54425 0.57861 0.34673 0.0
C387 C 0.52883 0.59697 0.29819 0.0
C388 C 0.52382 0.59238 0.20121 0.0
C389 C 0.53456 0.5697 0.15205 0.0
loop_
_geom_bond_atom_site_label_1
_geom_bond_atom_site_label_2
_geom_bond_distance
_geom_bond_site_symmetry_2
_ccdc_geom_bond_type
Tb0 C2 2.809 . S
Tb0 O20 2.484 . S
Tb0 O21 2.440 . S
Tb0 O22 2.658 1_455 S
Tb0 O23 2.409 1_554 S
Tb0 O24 2.378 . S
Tb0 O28 2.325 . S
Tb0 O31 2.341 1_455 S
Tb1 C11 2.809 . S
Tb1 O22 2.325 . S
Tb1 O25 2.341 1_655 S
Tb1 O26 2.484 . S
Tb1 O27 2.440 . S
Tb1 O28 2.658 1_655 S
Tb1 O29 2.409 . S
Tb1 O30 2.378 . S
C2 Tb0 2.809 . S
C2 C3 1.514 . S
C2 O20 1.248 . S
C2 O21 1.266 . S
C3 C2 1.514 . S
C3 C4 1.359 . S
C3 C8 1.348 . S
C4 C3 1.359 . S
C4 C5 1.380 . S
C4 H32 0.929 . S
C5 C4 1.380 . S
C5 C6 1.347 . S
C5 H33 0.931 . S
C6 C5 1.347 . S
C6 C7 1.369 . S
C7 C6 1.369 . S
C7 C8 1.408 . S
C7 H34 0.930 . S
C8 C3 1.348 . S
C8 C7 1.408 . S
C8 H35 0.930 . S
C9 O22 1.281 1_456 S
C9 O23 1.254 . S
C10 O24 1.236 . S
C10 O25 1.266 . S
C11 Tb1 2.809 . S
C11 C12 1.514 . S
C11 O26 1.248 . S
C11 O27 1.266 . S
C12 C11 1.514 . S
C12 C13 1.359 . S
C12 C17 1.348 . S
C13 C12 1.359 . S
C13 C14 1.380 . S
C13 H36 0.929 . S
C14 C13 1.380 . S
C14 C15 1.347 . S
C14 H37 0.931 1_554 S
C15 C14 1.347 . S
C15 C16 1.369 . S
C16 C15 1.369 . S
C16 C17 1.408 . S
C16 H38 0.930 . S
C17 C12 1.348 . S
C17 C16 1.408 . S
C17 H39 0.930 . S
C18 O28 1.277 1_655 S
C18 O29 1.256 . S
C19 O30 1.236 . S
C19 O31 1.266 . S
O20 Tb0 2.484 . S
O20 C2 1.248 . S
O21 Tb0 2.440 . S
O21 C2 1.266 . S
O22 Tb0 2.658 1_655 S
O22 Tb1 2.325 . S
O22 C9 1.281 1_654 S
O23 Tb0 2.409 1_556 S
O23 C9 1.254 . S
O24 Tb0 2.378 . S
O24 C10 1.236 . S
O25 Tb1 2.341 1_455 S
O25 C10 1.266 . S
O26 Tb1 2.484 . S
O26 C11 1.248 . S
O27 Tb1 2.440 . S
O27 C11 1.266 . S
O28 Tb0 2.325 . S
O28 Tb1 2.658 1_455 S
O28 C18 1.277 1_455 S
O29 Tb1 2.409 . S
O29 C18 1.256 . S
O30 Tb1 2.378 . S
O30 C19 1.236 . S
O31 Tb0 2.341 1_655 S
O31 C19 1.266 . S
H32 C4 0.929 . S
H33 C5 0.931 . S
H34 C7 0.930 . S
H35 C8 0.930 . S
H36 C13 0.929 . S
H37 C14 0.931 1_556 S
H38 C16 0.930 . S
H39 C17 0.930 . S
Tb40 C42 2.809 . S
Tb40 O60 2.484 . S
Tb40 O61 2.440 . S
Tb40 O62 2.658 1_565 S
Tb40 O63 2.409 . S
Tb40 O64 2.378 . S
Tb40 O68 2.325 . S
Tb40 O71 2.341 1_565 S
Tb41 C51 2.809 . S
Tb41 O62 2.325 . S
Tb41 O65 2.341 1_545 S
Tb41 O66 2.484 . S
Tb41 O67 2.440 . S
Tb41 O68 2.658 1_545 S
Tb41 O69 2.409 . S
Tb41 O70 2.378 . S
C42 Tb40 2.809 . S
C42 C43 1.514 . S
C42 O60 1.248 . S
C42 O61 1.266 . S
C43 C42 1.514 . S
C43 C44 1.359 . S
C43 C48 1.348 . S
C44 C43 1.359 . S
C44 C45 1.380 . S
C44 H72 0.929 . S
C45 C44 1.380 . S
C45 C46 1.347 . S
C45 H73 0.931 . S
C46 C45 1.347 . S
C46 C47 1.369 . S
C47 C46 1.369 . S
C47 C48 1.408 . S
C47 H74 0.930 . S
C48 C43 1.348 . S
C48 C47 1.408 . S
C48 H75 0.930 . S
C49 O62 1.275 1_565 S
C49 O63 1.264 . S
C50 O64 1.236 . S
C50 O65 1.266 . S
C51 Tb41 2.809 . S
C51 C52 1.514 . S
C51 O66 1.248 . S
C51 O67 1.266 . S
C52 C51 1.514 . S
C52 C53 1.359 . S
C52 C57 1.348 . S
C53 C52 1.359 . S
C53 C54 1.380 . S
C53 H76 0.929 . S
C54 C53 1.380 . S
C54 C55 1.347 . S
C54 H77 0.931 . S
C55 C54 1.347 . S
C55 C56 1.369 . S
C56 C55 1.369 . S
C56 C57 1.408 . S
C56 H78 0.930 . S
C57 C52 1.348 . S
C57 C56 1.408 . S
C57 H79 0.930 . S
C58 O68 1.281 1_545 S
C58 O69 1.254 . S
C59 O70 1.236 . S
C59 O71 1.266 . S
O60 Tb40 2.484 . S
O60 C42 1.248 . S
O61 Tb40 2.440 . S
O61 C42 1.266 . S
O62 Tb40 2.658 1_545 S
O62 Tb41 2.325 . S
O62 C49 1.275 1_545 S
O63 Tb40 2.409 . S
O63 C49 1.264 . S
O64 Tb40 2.378 . S
O64 C50 1.236 . S
O65 Tb41 2.341 1_565 S
O65 C50 1.266 . S
O66 Tb41 2.484 . S
O66 C51 1.248 . S
O67 Tb41 2.440 . S
O67 C51 1.266 . S
O68 Tb40 2.325 . S
O68 Tb41 2.658 1_565 S
O68 C58 1.281 1_565 S
O69 Tb41 2.409 . S
O69 C58 1.254 . S
O70 Tb41 2.378 . S
O70 C59 1.236 . S
O71 Tb40 2.341 1_545 S
O71 C59 1.266 . S
H72 C44 0.929 . S
H73 C45 0.931 . S
H74 C47 0.930 . S
H75 C48 0.930 . S
H76 C53 0.929 . S
H77 C54 0.931 . S
H78 C56 0.930 . S
H79 C57 0.930 . S
Tb80 C82 2.809 . S
Tb80 O100 2.484 . S
Tb80 O101 2.440 . S
Tb80 O102 2.658 . S
Tb80 O103 2.409 . S
Tb80 O104 2.378 . S
Tb80 O108 2.325 . S
Tb80 O111 2.341 . S
Tb81 C91 2.809 . S
Tb81 O102 2.325 . S
Tb81 O105 2.341 . S
Tb81 O106 2.484 . S
Tb81 O107 2.440 . S
Tb81 O108 2.658 . S
Tb81 O109 2.409 1_556 S
Tb81 O110 2.378 . S
C82 Tb80 2.809 . S
C82 C83 1.514 . S
C82 O100 1.248 . S
C82 O101 1.266 . S
C83 C82 1.514 . S
C83 C84 1.359 . S
C83 C88 1.348 . S
C84 C83 1.359 . S
C84 C85 1.380 . S
C84 H112 0.929 . S
C85 C84 1.380 . S
C85 C86 1.347 . S
C85 H113 0.931 1_556 S
C86 C85 1.347 . S
C86 C87 1.369 . S
C87 C86 1.369 . S
C87 C88 1.408 . S
C87 H114 0.930 . S
C88 C83 1.348 . S
C88 C87 1.408 . S
C88 H115 0.930 . S
C89 O102 1.281 . S
C89 O103 1.254 . S
C90 O104 1.236 . S
C90 O105 1.266 . S
C91 Tb81 2.809 . S
C91 C92 1.514 . S
C91 O106 1.248 . S
C91 O107 1.266 . S
C92 C91 1.514 . S
C92 C93 1.359 . S
C92 C97 1.348 . S
C93 C92 1.359 . S
C93 C94 1.380 . S
C93 H116 0.929 . S
C94 C93 1.380 . S
C94 C95 1.347 . S
C94 H117 0.931 . S
C95 C94 1.347 . S
C95 C96 1.369 . S
C96 C95 1.369 . S
C96 C97 1.408 . S
C96 H118 0.930 . S
C97 C92 1.348 . S
C97 C96 1.408 . S
C97 H119 0.930 . S
C98 O108 1.281 1_554 S
C98 O109 1.254 . S
C99 O110 1.236 . S
C99 O111 1.266 . S
O100 Tb80 2.484 . S
O100 C82 1.248 . S
O101 Tb80 2.440 . S
O101 C82 1.266 . S
O102 Tb80 2.658 . S
O102 Tb81 2.325 . S
O102 C89 1.281 . S
O103 Tb80 2.409 . S
O103 C89 1.254 . S
O104 Tb80 2.378 . S
O104 C90 1.236 . S
O105 Tb81 2.341 . S
O105 C90 1.266 . S
O106 Tb81 2.484 . S
O106 C91 1.248 . S
O107 Tb81 2.440 . S
O107 C91 1.266 . S
O108 Tb80 2.325 . S
O108 Tb81 2.658 . S
O108 C98 1.281 1_556 S
O109 Tb81 2.409 1_554 S
O109 C98 1.254 . S
O110 Tb81 2.378 . S
O110 C99 1.236 . S
O111 Tb80 2.341 . S
O111 C99 1.266 . S
H112 C84 0.929 . S
H113 C85 0.931 1_554 S
H114 C87 0.930 . S
H115 C88 0.930 . S
H116 C93 0.929 . S
H117 C94 0.931 . S
H118 C96 0.930 . S
H119 C97 0.930 . S
H120 C121 0.951 . S
C121 H120 0.951 . S
C121 C127 1.265 . S
H122 C127 0.950 . S
H123 C131 0.946 1_556 S
H124 C132 0.950 . S
H125 C133 0.951 . S
H126 C134 0.951 . S
C127 C121 1.265 . S
C127 H122 0.950 . S
C127 C128 1.478 . S
C128 C127 1.478 . S
C128 C129 1.397 . S
C128 C145 1.394 . S
C129 C128 1.397 . S
C129 C130 1.438 . S
C129 C134 1.429 . S
C130 C129 1.438 . S
C130 C131 1.428 . S
C130 C143 1.394 1_554 S
C131 H123 0.946 1_554 S
C131 C130 1.428 . S
C131 C132 1.345 . S
C132 H124 0.950 . S
C132 C131 1.345 . S
C132 C133 1.424 . S
C133 H125 0.951 . S
C133 C132 1.424 . S
C133 C134 1.347 . S
C134 H126 0.951 . S
C134 C129 1.429 . S
C134 C133 1.347 . S
H135 C136 0.951 . S
C136 H135 0.951 . S
C136 C142 1.265 . S
H137 C142 0.950 . S
H138 C146 0.949 1_554 S
H139 C147 0.950 . S
H140 C148 0.951 . S
H141 C149 0.951 . S
C142 C136 1.265 . S
C142 H137 0.950 . S
C142 C143 1.478 . S
C143 C130 1.394 1_556 S
C143 C142 1.478 . S
C143 C144 1.397 . S
C144 C143 1.397 . S
C144 C145 1.438 1_556 S
C144 C149 1.429 . S
C145 C128 1.394 . S
C145 C144 1.438 1_554 S
C145 C146 1.428 1_554 S
C146 H138 0.949 1_556 S
C146 C145 1.428 1_556 S
C146 C147 1.345 . S
C147 H139 0.950 . S
C147 C146 1.345 . S
C147 C148 1.424 . S
C148 H140 0.951 . S
C148 C147 1.424 . S
C148 C149 1.347 . S
C149 H141 0.951 . S
C149 C144 1.429 . S
C149 C148 1.347 . S
H150 C151 0.951 . S
C151 H150 0.951 . S
C151 C157 1.265 . S
H152 C157 0.950 . S
H153 C161 0.949 . S
H154 C162 0.950 . S
H155 C163 0.951 . S
H156 C164 0.951 . S
C157 C151 1.265 . S
C157 H152 0.950 . S
C157 C158 1.478 . S
C158 C157 1.478 . S
C158 C159 1.397 . S
C158 C175 1.394 . S
C159 C158 1.397 . S
C159 C160 1.438 . S
C159 C164 1.429 . S
C160 C159 1.438 . S
C160 C161 1.428 . S
C160 C173 1.394 . S
C161 H153 0.949 . S
C161 C160 1.428 . S
C161 C162 1.345 . S
C162 H154 0.950 . S
C162 C161 1.345 . S
C162 C163 1.424 . S
C163 H155 0.951 . S
C163 C162 1.424 . S
C163 C164 1.347 . S
C164 H156 0.951 . S
C164 C159 1.429 . S
C164 C163 1.347 . S
H165 C166 0.951 . S
C166 H165 0.951 . S
C166 C172 1.265 . S
H167 C172 0.950 . S
H168 C176 0.949 . S
H169 C177 0.950 . S
H170 C178 0.951 . S
H171 C179 0.951 . S
C172 C166 1.265 . S
C172 H167 0.950 . S
C172 C173 1.478 . S
C173 C160 1.394 . S
C173 C172 1.478 . S
C173 C174 1.397 . S
C174 C173 1.397 . S
C174 C175 1.438 . S
C174 C179 1.429 . S
C175 C158 1.394 . S
C175 C174 1.438 . S
C175 C176 1.428 . S
C176 H168 0.949 . S
C176 C175 1.428 . S
C176 C177 1.345 . S
C177 H169 0.950 . S
C177 C176 1.345 . S
C177 C178 1.424 . S
C178 H170 0.951 . S
C178 C177 1.424 . S
C178 C179 1.347 . S
C179 H171 0.951 . S
C179 C174 1.429 . S
C179 C178 1.347 . S
H180 C181 0.951 . S
C181 H180 0.951 . S
C181 C187 1.265 . S
H182 C187 0.950 . S
H183 C191 0.949 . S
H184 C192 0.950 . S
H185 C193 0.951 . S
H186 C194 0.951 . S
C187 C181 1.265 . S
C187 H182 0.950 . S
C187 C188 1.478 . S
C188 C187 1.478 . S
C188 C189 1.397 . S
C188 C205 1.394 . S
C189 C188 1.397 . S
C189 C190 1.438 . S
C189 C194 1.429 . S
C190 C189 1.438 . S
C190 C191 1.428 . S
C190 C203 1.394 . S
C191 H183 0.949 . S
C191 C190 1.428 . S
C191 C192 1.345 . S
C192 H184 0.950 . S
C192 C191 1.345 . S
C192 C193 1.424 . S
C193 H185 0.951 . S
C193 C192 1.424 . S
C193 C194 1.347 . S
C194 H186 0.951 . S
C194 C189 1.429 . S
C194 C193 1.347 . S
H195 C196 0.951 . S
C196 H195 0.951 . S
C196 C202 1.265 . S
H197 C202 0.950 . S
H198 C206 0.949 . S
H199 C207 0.950 . S
H200 C208 0.951 . S
H201 C209 0.951 . S
C202 C196 1.265 . S
C202 H197 0.950 . S
C202 C203 1.478 . S
C203 C190 1.394 . S
C203 C202 1.478 . S
C203 C204 1.397 . S
C204 C203 1.397 . S
C204 C205 1.438 . S
C204 C209 1.429 . S
C205 C188 1.394 . S
C205 C204 1.438 . S
C205 C206 1.428 . S
C206 H198 0.949 . S
C206 C205 1.428 . S
C206 C207 1.345 . S
C207 H199 0.950 . S
C207 C206 1.345 . S
C207 C208 1.424 . S
C208 H200 0.951 . S
C208 C207 1.424 . S
C208 C209 1.347 . S
C209 H201 0.951 . S
C209 C204 1.429 . S
C209 C208 1.347 . S
H210 C211 0.951 . S
C211 H210 0.951 . S
C211 C217 1.265 . S
H212 C217 0.950 . S
H213 C221 0.949 . S
H214 C222 0.950 . S
H215 C223 0.951 . S
H216 C224 0.951 . S
C217 C211 1.265 . S
C217 H212 0.950 . S
C217 C218 1.478 . S
C218 C217 1.478 . S
C218 C219 1.397 1_556 S
C218 C235 1.394 . S
C219 C218 1.397 1_554 S
C219 C220 1.438 . S
C219 C224 1.429 . S
C220 C219 1.438 . S
C220 C221 1.428 . S
C220 C233 1.394 . S
C221 H213 0.949 . S
C221 C220 1.428 . S
C221 C222 1.345 . S
C222 H214 0.950 . S
C222 C221 1.345 . S
C222 C223 1.424 . S
C223 H215 0.951 . S
C223 C222 1.424 . S
C223 C224 1.347 . S
C224 H216 0.951 . S
C224 C219 1.429 . S
C224 C223 1.347 . S
H225 C226 0.951 . S
C226 H225 0.951 . S
C226 C232 1.265 . S
H227 C232 0.950 1_556 S
H228 C236 0.949 . S
H229 C237 0.950 . S
H230 C238 0.951 . S
H231 C239 0.951 . S
C232 C226 1.265 . S
C232 H227 0.950 1_554 S
C232 C233 1.478 . S
C233 C220 1.394 . S
C233 C232 1.478 . S
C233 C234 1.397 1_554 S
C234 C233 1.397 1_556 S
C234 C235 1.438 . S
C234 C239 1.429 . S
C235 C218 1.394 . S
C235 C234 1.438 . S
C235 C236 1.428 . S
C236 H228 0.949 . S
C236 C235 1.428 . S
C236 C237 1.345 . S
C237 H229 0.950 . S
C237 C236 1.345 . S
C237 C238 1.424 . S
C238 H230 0.951 . S
C238 C237 1.424 . S
C238 C239 1.347 . S
C239 H231 0.951 . S
C239 C234 1.429 . S
C239 C238 1.347 . S
H240 C241 0.951 . S
C241 H240 0.951 . S
C241 C247 1.265 . S
H242 C247 0.950 . S
H243 C251 0.949 . S
H244 C252 0.950 . S
H245 C253 0.951 . S
H246 C254 0.951 . S
C247 C241 1.265 . S
C247 H242 0.950 . S
C247 C248 1.478 . S
C248 C247 1.478 . S
C248 C249 1.397 . S
C248 C265 1.394 . S
C249 C248 1.397 . S
C249 C250 1.438 . S
C249 C254 1.429 . S
C250 C249 1.438 . S
C250 C251 1.428 . S
C250 C263 1.394 . S
C251 H243 0.949 . S
C251 C250 1.428 . S
C251 C252 1.345 . S
C252 H244 0.950 . S
C252 C251 1.345 . S
C252 C253 1.424 . S
C253 H245 0.951 . S
C253 C252 1.424 . S
C253 C254 1.347 . S
C254 H246 0.951 . S
C254 C249 1.429 . S
C254 C253 1.347 . S
H255 C256 0.951 . S
C256 H255 0.951 . S
C256 C262 1.265 . S
H257 C262 0.950 . S
H258 C266 0.949 . S
H259 C267 0.950 . S
H260 C268 0.951 . S
H261 C269 0.951 . S
C262 C256 1.265 . S
C262 H257 0.950 . S
C262 C263 1.478 . S
C263 C250 1.394 . S
C263 C262 1.478 . S
C263 C264 1.397 . S
C264 C263 1.397 . S
C264 C265 1.438 . S
C264 C269 1.429 . S
C265 C248 1.394 . S
C265 C264 1.438 . S
C265 C266 1.428 . S
C266 H258 0.949 . S
C266 C265 1.428 . S
C266 C267 1.345 . S
C267 H259 0.950 . S
C267 C266 1.345 . S
C267 C268 1.424 . S
C268 H260 0.951 . S
C268 C267 1.424 . S
C268 C269 1.347 . S
C269 H261 0.951 . S
C269 C264 1.429 . S
C269 C268 1.347 . S
H270 C271 0.951 . S
C271 H270 0.951 . S
C271 C277 1.265 . S
H272 C277 0.950 . S
H273 C281 0.949 . S
H274 C282 0.950 . S
H275 C283 0.951 . S
H276 C284 0.951 . S
C277 C271 1.265 . S
C277 H272 0.950 . S
C277 C278 1.478 . S
C278 C277 1.478 . S
C278 C279 1.397 . S
C278 C295 1.394 . S
C279 C278 1.397 . S
C279 C280 1.438 . S
C279 C284 1.429 . S
C280 C279 1.438 . S
C280 C281 1.428 . S
C280 C293 1.394 . S
C281 H273 0.949 . S
C281 C280 1.428 . S
C281 C282 1.345 . S
C282 H274 0.950 . S
C282 C281 1.345 . S
C282 C283 1.424 . S
C283 H275 0.951 . S
C283 C282 1.424 . S
C283 C284 1.347 . S
C284 H276 0.951 . S
C284 C279 1.429 . S
C284 C283 1.347 . S
H285 C286 0.951 . S
C286 H285 0.951 . S
C286 C292 1.265 . S
H287 C292 0.950 . S
H288 C296 0.949 . S
H289 C297 0.950 . S
H290 C298 0.951 . S
H291 C299 0.951 . S
C292 C286 1.265 . S
C292 H287 0.950 . S
C292 C293 1.478 . S
C293 C280 1.394 . S
C293 C292 1.478 . S
C293 C294 1.397 . S
C294 C293 1.397 . S
C294 C295 1.438 . S
C294 C299 1.429 . S
C295 C278 1.394 . S
C295 C294 1.438 . S
C295 C296 1.428 . S
C296 H288 0.949 . S
C296 C295 1.428 . S
C296 C297 1.345 . S
C297 H289 0.950 . S
C297 C296 1.345 . S
C297 C298 1.424 . S
C298 H290 0.951 . S
C298 C297 1.424 . S
C298 C299 1.347 . S
C299 H291 0.951 . S
C299 C294 1.429 . S
C299 C298 1.347 . S
H300 C301 0.951 . S
C301 H300 0.951 . S
C301 C307 1.265 1_655 S
H302 C307 0.950 . S
H303 C311 0.949 . S
H304 C312 0.950 . S
H305 C313 0.951 . S
H306 C314 0.952 . S
C307 C301 1.265 1_455 S
C307 H302 0.950 . S
C307 C308 1.478 . S
C308 C307 1.478 . S
C308 C309 1.405 1_455 S
C308 C325 1.394 . S
C309 C308 1.405 1_655 S
C309 C310 1.444 . S
C309 C314 1.415 . S
C310 C309 1.444 . S
C310 C311 1.428 . S
C310 C323 1.394 . S
C311 H303 0.949 . S
C311 C310 1.428 . S
C311 C312 1.345 . S
C312 H304 0.950 . S
C312 C311 1.345 . S
C312 C313 1.424 . S
C313 H305 0.951 . S
C313 C312 1.424 . S
C313 C314 1.347 . S
C314 H306 0.952 . S
C314 C309 1.415 . S
C314 C313 1.347 . S
H315 C316 0.951 . S
C316 H315 0.951 . S
C316 C322 1.265 1_455 S
H317 C322 0.950 . S
H318 C326 0.949 . S
H319 C327 0.950 . S
H320 C328 0.951 . S
H321 C329 0.956 . S
C322 C316 1.265 1_655 S
C322 H317 0.950 . S
C322 C323 1.478 . S
C323 C310 1.394 . S
C323 C322 1.478 . S
C323 C324 1.397 1_655 S
C324 C323 1.397 1_455 S
C324 C325 1.438 . S
C324 C329 1.429 . S
C325 C308 1.394 . S
C325 C324 1.438 . S
C325 C326 1.428 . S
C326 H318 0.949 . S
C326 C325 1.428 . S
C326 C327 1.345 . S
C327 H319 0.950 . S
C327 C326 1.345 . S
C327 C328 1.424 . S
C328 H320 0.951 . S
C328 C327 1.424 . S
C328 C329 1.347 . S
C329 H321 0.956 . S
C329 C324 1.429 . S
C329 C328 1.347 . S
H330 C331 0.951 . S
C331 H330 0.951 . S
C331 C337 1.265 . S
H332 C337 0.950 . S
H333 C341 0.949 . S
H334 C342 0.950 . S
H335 C343 0.951 . S
H336 C344 0.951 . S
C337 C331 1.265 . S
C337 H332 0.950 . S
C337 C338 1.478 . S
C338 C337 1.478 . S
C338 C339 1.397 . S
C338 C355 1.394 1_545 S
C339 C338 1.397 . S
C339 C340 1.438 1_554 S
C339 C344 1.429 . S
C340 C339 1.438 1_556 S
C340 C341 1.428 . S
C340 C353 1.394 1_545 S
C341 H333 0.949 . S
C341 C340 1.428 . S
C341 C342 1.345 . S
C342 H334 0.950 . S
C342 C341 1.345 . S
C342 C343 1.424 1_556 S
C343 H335 0.951 . S
C343 C342 1.424 1_554 S
C343 C344 1.347 . S
C344 H336 0.951 . S
C344 C339 1.429 . S
C344 C343 1.347 . S
H345 C346 0.951 . S
C346 H345 0.951 . S
C346 C352 1.265 . S
H347 C352 0.950 . S
H348 C356 0.949 . S
H349 C357 0.950 . S
H350 C358 0.951 . S
H351 C359 0.951 . S
C352 C346 1.265 . S
C352 H347 0.950 . S
C352 C353 1.478 . S
C353 C340 1.394 1_565 S
C353 C352 1.478 . S
C353 C354 1.397 . S
C354 C353 1.397 . S
C354 C355 1.438 1_556 S
C354 C359 1.429 . S
C355 C338 1.394 1_565 S
C355 C354 1.438 1_554 S
C355 C356 1.428 . S
C356 H348 0.949 . S
C356 C355 1.428 . S
C356 C357 1.345 . S
C357 H349 0.950 . S
C357 C356 1.345 . S
C357 C358 1.424 1_554 S
C358 H350 0.951 . S
C358 C357 1.424 1_556 S
C358 C359 1.347 . S
C359 H351 0.951 . S
C359 C354 1.429 . S
C359 C358 1.347 . S
H360 C361 0.951 . S
C361 H360 0.951 . S
C361 C367 1.265 . S
H362 C367 0.950 . S
H363 C371 0.949 . S
H364 C372 0.950 . S
H365 C373 0.951 . S
H366 C374 0.951 . S
C367 C361 1.265 . S
C367 H362 0.950 . S
C367 C368 1.478 . S
C368 C367 1.478 . S
C368 C369 1.397 . S
C368 C385 1.394 . S
C369 C368 1.397 . S
C369 C370 1.438 . S
C369 C374 1.429 . S
C370 C369 1.438 . S
C370 C371 1.428 . S
C370 C383 1.394 . S
C371 H363 0.949 . S
C371 C370 1.428 . S
C371 C372 1.345 . S
C372 H364 0.950 . S
C372 C371 1.345 . S
C372 C373 1.424 . S
C373 H365 0.951 . S
C373 C372 1.424 . S
C373 C374 1.347 . S
C374 H366 0.951 . S
C374 C369 1.429 . S
C374 C373 1.347 . S
H375 C376 0.951 . S
C376 H375 0.951 . S
C376 C382 1.265 . S
H377 C382 0.950 . S
H378 C386 0.949 . S
H379 C387 0.950 . S
H380 C388 0.951 . S
H381 C389 0.951 . S
C382 C376 1.265 . S
C382 H377 0.950 . S
C382 C383 1.478 . S
C383 C370 1.394 . S
C383 C382 1.478 . S
C383 C384 1.397 . S
C384 C383 1.397 . S
C384 C385 1.438 . S
C384 C389 1.429 . S
C385 C368 1.394 . S
C385 C384 1.438 . S
C385 C386 1.428 . S
C386 H378 0.949 . S
C386 C385 1.428 . S
C386 C387 1.345 . S
C387 H379 0.950 . S
C387 C386 1.345 . S
C387 C388 1.424 . S
C388 H380 0.951 . S
C388 C387 1.424 . S
C388 C389 1.347 . S
C389 H381 0.951 . S
C389 C384 1.429 . S
C389 C388 1.347 . S
C121 C10 1.849 . S
C136 C86 1.924 . S
C151 C59 2.211 . S
C166 C15 2.168 . S
C181 C46 1.921 . S
C196 C90 1.850 . S
C211 C95 2.182 . S
C226 C19 2.228 . S
C241 C50 1.861 . S
C256 C6 1.920 . S
C271 C99 2.222 . S
C286 C55 2.150 . S
C301 C9 0.538 1_655 S
C316 C18 0.531 1_455 S
C331 C49 0.405 1_545 S
C346 C58 0.412 1_565 S
C361 C89 0.420 . S
C376 C98 0.420 . S
