# Generated by pormake.
# Topology uoc, (4)-cn, num edge types: 1
# Building blocks:
#     Node 0, Type 0, BuildingBlock: ESEHIV_clean_sbu_0, # of connection points: 4
#     Node 1, Type 0, BuildingBlock: ESEHIV_clean_sbu_0, # of connection points: 4
#     Node 2, Type 0, BuildingBlock: ESEHIV_clean_sbu_0, # of connection points: 4
#     Node 3, Type 0, BuildingBlock: ESEHIV_clean_sbu_0, # of connection points: 4
#     Node 4, Type 0, BuildingBlock: ESEHIV_clean_sbu_0, # of connection points: 4
#     Node 5, Type 0, BuildingBlock: ESEHIV_clean_sbu_0, # of connection points: 4
#     Node 6, Type 0, BuildingBlock: ESEHIV_clean_sbu_0, # of connection points: 4
#     Node 7, Type 0, BuildingBlock: ESEHIV_clean_sbu_0, # of connection points: 4
#     Edge 8, Type (0, 0), BuildingBlock: FUNLAD_clean_linker_0, # of connection points: 2
#     Edge 9, Type (0, 0), BuildingBlock: FUNLAD_clean_linker_0, # of connection points: 2
#     Edge 10, Type (0, 0), BuildingBlock: FUNLAD_clean_linker_0, # of connection points: 2
#     Edge 11, Type (0, 0), BuildingBlock: FUNLAD_clean_linker_0, # of connection points: 2
#     Edge 12, Type (0, 0), BuildingBlock: FUNLAD_clean_linker_0, # of connection points: 2
#     Edge 13, Type (0, 0), BuildingBlock: FUNLAD_clean_linker_0, # of connection points: 2
#     Edge 14, Type (0, 0), BuildingBlock: FUNLAD_clean_linker_0, # of connection points: 2
#     Edge 15, Type (0, 0), BuildingBlock: FUNLAD_clean_linker_0, # of connection points: 2
#     Edge 16, Type (0, 0), BuildingBlock: FUNLAD_clean_linker_0, # of connection points: 2
#     Edge 17, Type (0, 0), BuildingBlock: FUNLAD_clean_linker_0, # of connection points: 2
#     Edge 18, Type (0, 0), BuildingBlock: FUNLAD_clean_linker_0, # of connection points: 2
#     Edge 19, Type (0, 0), BuildingBlock: FUNLAD_clean_linker_0, # of connection points: 2
#     Edge 20, Type (0, 0), BuildingBlock: FUNLAD_clean_linker_0, # of connection points: 2
#     Edge 21, Type (0, 0), BuildingBlock: FUNLAD_clean_linker_0, # of connection points: 2
#     Edge 22, Type (0, 0), BuildingBlock: FUNLAD_clean_linker_0, # of connection points: 2
#     Edge 23, Type (0, 0), BuildingBlock: FUNLAD_clean_linker_0, # of connection points: 2
# Relax obj value: 0.051
# Max RMSD: 0.259
# Mean RMSD: 0.259
data_MOF--net-uoc--node1-ESEHIV_clean_sbu_0--edge1-FUNLAD_clean_linker_0
_symmetry_space_group_name_H-M    P1
_symmetry_Int_Tables_number       1
_symmetry_cell_setting            triclinic
loop_
_symmetry_equiv_pos_as_xyz
'x, y, z'
_cell_length_a     37.657338
_cell_length_b     37.604167
_cell_length_c     61.000635
_cell_angle_alpha  90.067245
_cell_angle_beta   90.315769
_cell_angle_gamma 90.886163
loop_
_atom_site_label
_atom_site_type_symbol
_atom_site_fract_x
_atom_site_fract_y
_atom_site_fract_z
_atom_type_partial_charge
Cu0 Cu 0.09591 0.26051 0.14668 0.0
N1 N 0.06244 0.22477 0.15207 0.0
N2 N 0.03598 0.17138 0.15432 0.0
C3 C 0.06452 0.19001 0.14704 0.0
C4 C 0.01521 0.19546 0.16424 0.0
C5 C 0.0316 0.22837 0.16279 0.0
O6 O 0.12814 0.24287 0.12446 0.0
C7 C 0.14131 0.29567 0.1789 0.0
O8 O 0.15282 0.31632 0.16302 0.0
H9 H 0.08694 0.17852 0.13873 0.0
H10 H 0.02196 0.25318 0.16928 0.0
N11 N 0.07165 0.29922 0.13522 0.0
N12 N 0.05249 0.35371 0.12748 0.0
C13 C 0.0722 0.33376 0.14122 0.0
C14 C 0.05066 0.29729 0.11735 0.0
C15 C 0.03887 0.33079 0.1125 0.0
C16 C 0.14299 0.26317 0.11042 0.0
O17 O 0.13981 0.29777 0.11236 0.0
H18 H 0.08754 0.34421 0.15489 0.0
H19 H 0.04494 0.27316 0.10824 0.0
O20 O 0.11851 0.27125 0.1747 0.0
H21 H 0.98994 0.18975 0.17194 0.0
H22 H 0.0217 0.33777 0.09893 0.0
Cu23 Cu 0.76961 0.608 0.40356 0.0
N24 N 0.73128 0.57867 0.39567 0.0
N25 N 0.67651 0.55565 0.39205 0.0
C26 C 0.69648 0.58332 0.39955 0.0
C27 C 0.69975 0.53287 0.38312 0.0
C28 C 0.73341 0.54709 0.38544 0.0
O29 O 0.75776 0.63517 0.42949 0.0
C30 C 0.79298 0.62318 0.36124 0.0
O31 O 0.79503 0.58836 0.36067 0.0
H32 H 0.68618 0.60609 0.40814 0.0
H33 H 0.75786 0.53505 0.38022 0.0
N34 N 0.80725 0.57874 0.41092 0.0
N35 N 0.86093 0.55454 0.41303 0.0
C36 C 0.84154 0.58154 0.40493 0.0
C37 C 0.80487 0.54928 0.4233 0.0
C38 C 0.83788 0.53426 0.42463 0.0
C39 C 0.73683 0.66137 0.42956 0.0
O40 O 0.72277 0.67204 0.41098 0.0
H41 H 0.85184 0.60256 0.39455 0.0
H42 H 0.78067 0.53938 0.43076 0.0
O43 O 0.78252 0.63803 0.37878 0.0
H44 H 0.69299 0.50779 0.37533 0.0
H45 H 0.84443 0.5105 0.43369 0.0
Cu46 Cu 0.42734 0.26002 0.64901 0.0
N47 N 0.46057 0.29471 0.65741 0.0
N48 N 0.48724 0.3471 0.66417 0.0
C49 C 0.45861 0.33028 0.65526 0.0
C50 C 0.50794 0.321 0.67206 0.0
C51 C 0.49144 0.28877 0.66785 0.0
O52 O 0.39548 0.27942 0.62708 0.0
C53 C 0.3916 0.26488 0.68919 0.0
O54 O 0.39456 0.29909 0.6851 0.0
H55 H 0.4362 0.34351 0.64789 0.0
H56 H 0.50103 0.26276 0.67226 0.0
N57 N 0.45174 0.22318 0.63571 0.0
N58 N 0.47656 0.17094 0.62829 0.0
C59 C 0.45809 0.19008 0.64306 0.0
C60 C 0.46651 0.2251 0.61576 0.0
C61 C 0.48177 0.19302 0.61111 0.0
C62 C 0.37381 0.2591 0.61677 0.0
O63 O 0.37099 0.22556 0.62265 0.0
H64 H 0.44946 0.18042 0.65889 0.0
H65 H 0.46582 0.24821 0.60523 0.0
O66 O 0.40284 0.24286 0.67505 0.0
H67 H 0.53328 0.32487 0.68025 0.0
H68 H 0.49494 0.18632 0.59597 0.0
Cu69 Cu 0.76097 0.93042 0.89875 0.0
N70 N 0.79761 0.95938 0.88821 0.0
N71 N 0.8512 0.9846 0.88376 0.0
C72 C 0.83137 0.96133 0.89555 0.0
C73 C 0.82888 0.99775 0.86848 0.0
C74 C 0.79586 0.98217 0.8713 0.0
O75 O 0.77949 0.90167 0.92253 0.0
C76 C 0.76134 0.88731 0.86064 0.0
O77 O 0.796 0.88938 0.86306 0.0
H78 H 0.8413 0.94544 0.90897 0.0
H79 H 0.77222 0.98694 0.86165 0.0
N80 N 0.72532 0.9593 0.90953 0.0
N81 N 0.67268 0.98466 0.91438 0.0
C82 C 0.69174 0.96202 0.90207 0.0
C83 C 0.72772 0.98098 0.92703 0.0
C84 C 0.69528 0.99662 0.9301 0.0
C85 C 0.7595 0.88736 0.93689 0.0
O86 O 0.72489 0.88992 0.93483 0.0
H87 H 0.6813 0.94702 0.88825 0.0
H88 H 0.75136 0.9848 0.93696 0.0
O89 O 0.74163 0.90198 0.87479 0.0
H90 H 0.83579 0.01745 0.85624 0.0
H91 H 0.68891 0.01545 0.94286 0.0
Cu92 Cu 0.597 0.76258 0.65051 0.0
N93 N 0.56866 0.72531 0.66085 0.0
N94 N 0.54433 0.67128 0.66545 0.0
C95 C 0.56817 0.69117 0.65414 0.0
C96 C 0.52933 0.69395 0.67975 0.0
C97 C 0.54437 0.72722 0.67684 0.0
O98 O 0.62536 0.74547 0.62628 0.0
C99 C 0.6461 0.7604 0.68552 0.0
O100 O 0.64871 0.72693 0.67961 0.0
H101 H 0.58535 0.68111 0.64148 0.0
H102 H 0.53808 0.7512 0.68573 0.0
N103 N 0.56748 0.79837 0.64043 0.0
N104 N 0.54213 0.85112 0.63571 0.0
C105 C 0.5657 0.83222 0.64753 0.0
C106 C 0.54421 0.79565 0.6237 0.0
C107 C 0.52857 0.82816 0.62071 0.0
C108 C 0.63812 0.76644 0.61187 0.0
O109 O 0.63394 0.80087 0.61417 0.0
H110 H 0.58203 0.84294 0.6607 0.0
H111 H 0.53932 0.77174 0.61421 0.0
O112 O 0.62597 0.7807 0.67455 0.0
H113 H 0.50862 0.68716 0.69131 0.0
H114 H 0.50867 0.83435 0.60849 0.0
Cu115 Cu 0.26284 0.09927 0.90161 0.0
N116 N 0.2277 0.06522 0.89554 0.0
N117 N 0.17501 0.03876 0.88953 0.0
C118 C 0.19217 0.06884 0.89605 0.0
C119 C 0.20081 0.01544 0.88486 0.0
C120 C 0.23322 0.03183 0.8886 0.0
O121 O 0.24456 0.13244 0.92321 0.0
C122 C 0.30204 0.1421 0.87047 0.0
O123 O 0.32297 0.15107 0.88692 0.0
H124 H 0.17925 0.09329 0.90053 0.0
H125 H 0.2591 0.0204 0.8862 0.0
N126 N 0.30104 0.07582 0.91434 0.0
N127 N 0.35353 0.05099 0.92116 0.0
C128 C 0.33364 0.069 0.90645 0.0
C129 C 0.30029 0.06173 0.93456 0.0
C130 C 0.33251 0.04651 0.93884 0.0
C131 C 0.26535 0.15128 0.93517 0.0
O132 O 0.29967 0.15061 0.93153 0.0
H133 H 0.34241 0.07679 0.89027 0.0
H134 H 0.27781 0.0628 0.94549 0.0
O135 O 0.27558 0.1214 0.87382 0.0
H136 H 0.19658 0.98842 0.87917 0.0
H137 H 0.34004 0.03382 0.95404 0.0
Cu138 Cu 0.92492 0.75982 0.14478 0.0
N139 N 0.95702 0.79464 0.15442 0.0
N140 N 0.9829 0.84741 0.16103 0.0
C141 C 0.95588 0.82992 0.15084 0.0
C142 C 1.00175 0.82206 0.17131 0.0
C143 C 0.98575 0.78954 0.16715 0.0
O144 O 0.89577 0.77898 0.12142 0.0
C145 C 0.89054 0.76109 0.18621 0.0
O146 O 0.90165 0.79436 0.18686 0.0
H147 H 0.93509 0.84253 0.14146 0.0
H148 H 0.99418 0.76394 0.17315 0.0
N149 N 0.9507 0.72225 0.13351 0.0
N150 N 0.97678 0.66961 0.12992 0.0
C151 C 0.95652 0.69036 0.14276 0.0
C152 C 0.96772 0.72178 0.11421 0.0
C153 C 0.98383 0.68938 0.11193 0.0
C154 C 0.87404 0.75925 0.11075 0.0
O155 O 0.8699 0.72582 0.11659 0.0
H156 H 0.94637 0.68278 0.15868 0.0
H157 H 0.9682 0.7435 0.1026 0.0
O158 O 0.89672 0.74239 0.16927 0.0
H159 H 0.02546 0.82664 0.18107 0.0
H160 H 0.99898 0.68086 0.0979 0.0
Cu161 Cu 0.26786 0.42213 0.40201 0.0
N162 N 0.303 0.45648 0.39748 0.0
N163 N 0.35611 0.48362 0.39634 0.0
C164 C 0.33795 0.45358 0.40161 0.0
C165 C 0.33144 0.50621 0.38864 0.0
C166 C 0.29872 0.48935 0.38936 0.0
O167 O 0.28508 0.39017 0.42465 0.0
C168 C 0.23226 0.379 0.3693 0.0
O169 O 0.20949 0.37055 0.38476 0.0
H170 H 0.34963 0.42997 0.40853 0.0
H171 H 0.27355 0.50017 0.38424 0.0
N172 N 0.22805 0.44553 0.41233 0.0
N173 N 0.17439 0.46947 0.41528 0.0
C174 C 0.19644 0.45058 0.40247 0.0
C175 C 0.22606 0.4619 0.43187 0.0
C176 C 0.19301 0.47661 0.43378 0.0
C177 C 0.26467 0.37455 0.43829 0.0
O178 O 0.23011 0.3767 0.43571 0.0
H179 H 0.18993 0.44102 0.38618 0.0
H180 H 0.24721 0.4628 0.44394 0.0
O181 O 0.25867 0.39923 0.37388 0.0
H182 H 0.33667 0.53277 0.38253 0.0
H183 H 0.18326 0.4908 0.44791 0.0
C184 C 0.17401 0.2703 0.07432 0.0
C185 C 0.15948 0.24791 0.09052 0.0
C186 C 0.18632 0.25628 0.05454 0.0
C187 C 0.18453 0.21939 0.05052 0.0
C188 C 0.17057 0.19702 0.06688 0.0
C189 C 0.15835 0.21103 0.08667 0.0
C190 C 0.19515 0.20343 0.02918 0.0
C191 C 0.21787 0.21914 1.01502 0.0
C192 C 0.22865 0.20244 0.99396 0.0
C193 C 0.26235 0.21056 0.98543 0.0
C194 C 0.27391 0.19456 0.96609 0.0
C195 C 0.25175 0.17052 0.95457 0.0
H196 H 0.17941 0.17315 0.9878 0.0
C197 C 0.21742 0.16347 0.9626 0.0
C198 C 0.206 0.17918 0.98212 0.0
H199 H 0.19962 0.14516 0.95409 0.0
H200 H 0.17504 0.29886 0.07664 0.0
H201 H 0.19603 0.27463 0.04224 0.0
H202 H 0.16869 0.16855 0.06426 0.0
H203 H 0.14716 0.19298 0.09871 0.0
H204 H 0.18485 0.17694 0.02547 0.0
H205 H 0.23092 0.24406 1.01949 0.0
H206 H 0.28017 0.22873 0.99405 0.0
H207 H 0.30044 0.20076 0.9603 0.0
C208 C 0.81603 0.62716 0.32294 0.0
C209 C 0.80283 0.64432 0.34162 0.0
C210 C 0.82538 0.64654 0.30427 0.0
C211 C 0.82143 0.68369 0.30369 0.0
C212 C 0.80867 0.70092 0.32248 0.0
C213 C 0.79934 0.68147 0.34122 0.0
C214 C 0.83198 0.7053 0.28423 0.0
C215 C 0.83328 0.69187 0.26369 0.0
C216 C 0.84611 0.71159 0.24392 0.0
C217 C 0.84695 0.69327 0.22382 0.0
C218 C 0.86062 0.70951 0.20499 0.0
C219 C 0.87369 0.74467 0.20574 0.0
H220 H 0.85856 0.7626 0.25945 0.0
C221 C 0.87206 0.76343 0.22565 0.0
C222 C 0.85855 0.74714 0.24453 0.0
H223 H 0.88196 0.79057 0.22681 0.0
H224 H 0.81948 0.59861 0.32274 0.0
H225 H 0.83641 0.63223 0.29058 0.0
H226 H 0.80577 0.72954 0.32263 0.0
H227 H 0.78939 0.69554 0.35537 0.0
H228 H 0.8384 0.73306 0.28721 0.0
H229 H 0.82469 0.66452 0.26102 0.0
H230 H 0.83756 0.66595 0.2227 0.0
H231 H 0.86138 0.69428 0.18992 0.0
C232 C 0.36384 0.30496 0.58751 0.0
C233 C 0.35509 0.27181 0.59685 0.0
C234 C 0.34841 0.31547 0.56765 0.0
C235 C 0.32381 0.29304 0.5567 0.0
C236 C 0.31409 0.26058 0.56648 0.0
C237 C 0.32972 0.24993 0.58623 0.0
C238 C 0.3073 0.30288 0.53532 0.0
C239 C 0.32353 0.32413 0.52051 0.0
C240 C 0.3077 0.33415 0.49893 0.0
C241 C 0.33022 0.34752 0.48249 0.0
C242 C 0.31644 0.35937 0.46249 0.0
C243 C 0.27964 0.35839 0.45847 0.0
H244 H 0.25239 0.32321 0.50704 0.0
C245 C 0.25709 0.34435 0.47472 0.0
C246 C 0.27088 0.33248 0.49473 0.0
H247 H 0.22858 0.34345 0.47226 0.0
H248 H 0.38314 0.32256 0.59532 0.0
H249 H 0.3557 0.34124 0.56104 0.0
H250 H 0.29488 0.24298 0.55858 0.0
H251 H 0.32222 0.22431 0.593 0.0
H252 H 0.28191 0.29042 0.53129 0.0
H253 H 0.35034 0.33379 0.52391 0.0
H254 H 0.35865 0.34928 0.48523 0.0
H255 H 0.33462 0.37013 0.45041 0.0
C256 C 0.76717 0.85584 0.82453 0.0
C257 C 0.74547 0.87088 0.84066 0.0
C258 C 0.75245 0.8426 0.80497 0.0
C259 C 0.71557 0.84398 0.80114 0.0
C260 C 0.69393 0.85868 0.81738 0.0
C261 C 0.70862 0.87182 0.83694 0.0
C262 C 0.69888 0.83218 0.78008 0.0
C263 C 0.71366 0.80885 0.76615 0.0
C264 C 0.69646 0.79739 0.7452 0.0
C265 C 0.70419 0.76378 0.73656 0.0
C266 C 0.68817 0.75192 0.71707 0.0
C267 C 0.66442 0.77366 0.70559 0.0
H268 H 0.66757 0.84605 0.73916 0.0
C269 C 0.65747 0.80775 0.71388 0.0
C270 C 0.67329 0.81951 0.73345 0.0
H271 H 0.63949 0.82529 0.70538 0.0
H272 H 0.79569 0.85493 0.82678 0.0
H273 H 0.77026 0.83238 0.79271 0.0
H274 H 0.66549 0.86029 0.81487 0.0
H275 H 0.6911 0.88334 0.84895 0.0
H276 H 0.67263 0.84223 0.7764 0.0
H277 H 0.73829 0.79608 0.77067 0.0
H278 H 0.72225 0.74636 0.7451 0.0
H279 H 0.69428 0.72559 0.7111 0.0
C280 C 0.19413 0.34999 0.34017 0.0
C281 C 0.22586 0.36765 0.34626 0.0
C282 C 0.18714 0.34149 0.31818 0.0
C283 C 0.21197 0.35014 0.30171 0.0
C284 C 0.24382 0.36743 0.30792 0.0
C285 C 0.25072 0.37602 0.32986 0.0
C286 C 0.2052 0.34334 0.27788 0.0
C287 C 0.18021 0.3204 0.27011 0.0
C288 C 0.17251 0.31423 0.24633 0.0
C289 C 0.15173 0.28436 0.2404 0.0
C290 C 0.14221 0.2781 0.21854 0.0
C291 C 0.15316 0.30163 0.20191 0.0
H292 H 0.199 0.36158 0.23336 0.0
C293 C 0.17428 0.33138 0.2077 0.0
C294 C 0.18373 0.33774 0.22965 0.0
H295 H 0.18293 0.35021 0.19534 0.0
H296 H 0.17423 0.34346 0.35233 0.0
H297 H 0.16182 0.32909 0.31425 0.0
H298 H 0.2634 0.37464 0.29569 0.0
H299 H 0.27543 0.38969 0.33391 0.0
H300 H 0.22233 0.35733 0.26644 0.0
H301 H 0.16497 0.30443 0.28161 0.0
H302 H 0.1425 0.26582 0.25279 0.0
H303 H 0.12592 0.25489 0.21474 0.0
C304 C 0.66608 0.77509 0.57495 0.0
C305 C 0.65484 0.7521 0.5918 0.0
C306 C 0.67977 0.76152 0.55542 0.0
C307 C 0.6824 0.72456 0.55224 0.0
C308 C 0.67221 0.7017 0.56937 0.0
C309 C 0.65843 0.71525 0.58887 0.0
C310 C 0.696 0.70883 0.53154 0.0
C311 C 0.69472 0.7254 0.51193 0.0
C312 C 0.70663 0.70891 0.49103 0.0
C313 C 0.69284 0.72152 0.47109 0.0
C314 C 0.70284 0.70639 0.45112 0.0
C315 C 0.72716 0.67843 0.45061 0.0
H316 H 0.74388 0.67174 0.50533 0.0
C317 C 0.74165 0.66637 0.47051 0.0
C318 C 0.73163 0.68147 0.49047 0.0
H319 H 0.76073 0.64511 0.47073 0.0
H320 H 0.66398 0.80364 0.57672 0.0
H321 H 0.68844 0.78015 0.54298 0.0
H322 H 0.6743 0.67315 0.56752 0.0
H323 H 0.65018 0.69677 0.60153 0.0
H324 H 0.70522 0.68166 0.53238 0.0
H325 H 0.68246 0.75127 0.51076 0.0
H326 H 0.67383 0.74286 0.47097 0.0
H327 H 0.69125 0.71645 0.43612 0.0
C328 C 0.37518 0.21607 0.7157 0.0
C329 C 0.37841 0.25253 0.71083 0.0
C330 C 0.36499 0.20475 0.73667 0.0
C331 C 0.35781 0.22973 0.75325 0.0
C332 C 0.36076 0.26608 0.74826 0.0
C333 C 0.37068 0.27736 0.72732 0.0
C334 C 0.34914 0.21913 0.77618 0.0
C335 C 0.33428 0.18754 0.78167 0.0
C336 C 0.32592 0.17729 0.8047 0.0
C337 C 0.29856 0.15233 0.80854 0.0
C338 C 0.29046 0.14137 0.82987 0.0
C339 C 0.30992 0.15474 0.84791 0.0
H340 H 0.36738 0.20923 0.82045 0.0
C341 C 0.3375 0.17956 0.84409 0.0
C342 C 0.34542 0.19073 0.82274 0.0
H343 H 0.3532 0.19021 0.85757 0.0
H344 H 0.38117 0.19622 0.70344 0.0
H345 H 0.36389 0.1765 0.73996 0.0
H346 H 0.3556 0.28593 0.76069 0.0
H347 H 0.37301 0.30565 0.72422 0.0
H348 H 0.35392 0.2389 0.78889 0.0
H349 H 0.32635 0.16901 0.76882 0.0
H350 H 0.28329 0.14129 0.79498 0.0
H351 H 0.26917 0.12205 0.83217 0.0
C352 C 0.86423 0.8068 0.08255 0.0
C353 C 0.85564 0.77298 0.09099 0.0
C354 C 0.84833 0.81888 0.0632 0.0
C355 C 0.82343 0.79735 0.05183 0.0
C356 C 0.81409 0.76404 0.06064 0.0
C357 C 0.83017 0.75186 0.07989 0.0
C358 C 0.80612 0.80909 0.0311 0.0
C359 C 0.82165 0.83194 1.01692 0.0
C360 C 0.80489 0.84387 0.99603 0.0
C361 C 0.82675 0.858 0.9795 0.0
C362 C 0.81213 0.87118 0.96006 0.0
C363 C 0.77516 0.87086 0.95675 0.0
H364 H 0.74992 0.83337 1.00509 0.0
C365 C 0.75322 0.8564 0.97318 0.0
C366 C 0.76786 0.84313 0.99261 0.0
H367 H 0.72461 0.85598 0.97125 0.0
H368 H 0.88358 0.82387 0.09075 0.0
H369 H 0.85539 0.8452 0.05737 0.0
H370 H 0.79469 0.74708 0.0524 0.0
H371 H 0.82277 0.72575 0.08598 0.0
H372 H 0.78066 0.79687 0.02694 0.0
H373 H 0.84854 0.84142 1.02023 0.0
H374 H 0.85533 0.85912 0.98168 0.0
H375 H 0.82985 0.88225 0.94782 0.0
C376 C 1.00976 0.11548 0.16866 0.0
C377 C 0.0296 0.13358 0.1526 0.0
C378 C 1.00384 0.07878 0.16717 0.0
C379 C 0.01766 0.05931 0.14953 0.0
C380 C 0.03688 0.07749 0.13326 0.0
C381 C 0.04306 0.11419 0.13485 0.0
C382 C 1.01162 0.02031 0.14737 0.0
C383 C 1.00759 0.99869 0.16482 0.0
C384 C 1.00177 0.95962 0.16302 0.0
C385 C 1.01197 0.93797 0.18061 0.0
C386 C 1.00615 0.90121 0.17985 0.0
C387 C 0.98948 0.88527 0.16158 0.0
H388 H 0.97595 0.95963 0.13105 0.0
C389 C 0.97894 0.90695 0.14402 0.0
C390 C 0.98504 0.94374 0.14469 0.0
H391 H 0.96615 0.89545 0.12969 0.0
H392 H 0.99914 0.1296 0.18257 0.0
H393 H 0.98801 0.06591 0.1797 0.0
H394 H 0.04745 0.06321 0.11937 0.0
H395 H 0.05798 0.12745 0.12205 0.0
H396 H 1.01243 1.00899 0.131 0.0
H397 H 1.01038 1.00969 0.18122 0.0
H398 H 0.02455 0.94954 0.19502 0.0
H399 H 0.01409 0.88537 0.19379 0.0
C400 C 0.12317 0.50863 0.421 0.0
C401 C 0.13814 0.47898 0.41073 0.0
C402 C 0.08743 0.51663 0.41782 0.0
C403 C 0.06577 0.49526 0.40411 0.0
C404 C 0.08088 0.46597 0.39356 0.0
C405 C 0.1167 0.458 0.39672 0.0
C406 C 0.02692 0.501 0.40184 0.0
C407 C 1.01127 0.53225 0.40611 0.0
C408 C 0.97212 0.5369 0.40635 0.0
C409 C 0.95846 0.5713 0.40439 0.0
C410 C 0.92199 0.57707 0.40615 0.0
C411 C 0.89835 0.54854 0.41014 0.0
H412 H 0.95774 0.48147 0.41232 0.0
C413 C 0.91198 0.51406 0.41186 0.0
C414 C 0.94839 0.50828 0.41008 0.0
H415 H 0.89453 0.49144 0.41472 0.0
H416 H 0.139 0.52554 0.43173 0.0
H417 H 0.0768 0.53887 0.42677 0.0
H418 H 0.06478 0.44882 0.38309 0.0
H419 H 0.12724 0.43473 0.38876 0.0
H420 H 1.01081 0.47847 0.39637 0.0
H421 H 0.02761 0.55567 0.40949 0.0
H422 H 0.97613 0.59389 0.40177 0.0
H423 H 0.91247 0.60401 0.40499 0.0
C424 C 0.47986 0.40836 0.65008 0.0
C425 C 0.49386 0.38492 0.66574 0.0
C426 C 0.48647 0.44503 0.65166 0.0
C427 C 0.50723 0.45903 0.669 0.0
C428 C 0.52075 0.43561 0.68476 0.0
C429 C 0.51436 0.39903 0.6831 0.0
C430 C 0.51429 0.49783 0.67178 0.0
C431 C 0.51383 0.52145 0.65517 0.0
C432 C 0.52163 0.56008 0.65828 0.0
C433 C 0.53483 0.58003 0.64058 0.0
C434 C 0.54246 0.61638 0.64292 0.0
C435 C 0.53664 0.63374 0.66299 0.0
H436 H 0.50423 0.56344 0.69214 0.0
C437 C 0.5229 0.61386 0.6806 0.0
C438 C 0.5154 0.57753 0.67829 0.0
H439 H 0.51821 0.62627 0.69631 0.0
H440 H 0.46404 0.39834 0.63649 0.0
H441 H 0.47474 0.46224 0.63951 0.0
H442 H 0.53646 0.44564 0.69843 0.0
H443 H 0.52502 0.38185 0.69565 0.0
H444 H 0.522 0.50682 0.68807 0.0
H445 H 0.5095 0.5121 0.63851 0.0
H446 H 0.53949 0.56741 0.6249 0.0
H447 H 0.55244 0.63095 0.62891 0.0
C448 C 0.6154 1.00276 0.93015 0.0
C449 C 0.6357 0.99333 0.91183 0.0
C450 C 0.57951 1.01092 0.92782 0.0
C451 C 0.56298 1.00981 0.90708 0.0
C452 C 0.58339 1.00108 0.8887 0.0
C453 C 0.61929 0.9926 0.89106 0.0
C454 C 0.52482 0.01852 0.90419 0.0
C455 C 0.50051 1.01154 0.9198 0.0
C456 C 0.46226 0.02051 0.91808 0.0
C457 C 0.43812 1.0022 0.93155 0.0
C458 C 0.4024 1.01147 0.93198 0.0
C459 C 0.38985 0.03968 0.91913 0.0
H460 H 0.46758 0.0634 0.8944 0.0
C461 C 0.4138 0.05754 0.90517 0.0
C462 C 0.44968 0.04812 0.90466 0.0
H463 H 0.40516 0.07963 0.89524 0.0
H464 H 0.62713 1.00345 0.94638 0.0
H465 H 0.56496 0.01856 0.94229 0.0
H466 H 0.57143 1.00044 0.87251 0.0
H467 H 0.63433 0.98594 0.8766 0.0
H468 H 0.51651 0.02938 0.88853 0.0
H469 H 0.50873 0.99749 0.93449 0.0
H470 H 0.44699 0.9808 0.94203 0.0
H471 H 0.38469 0.99661 0.9426 0.0
C472 C 0.01832 0.62027 0.12384 0.0
C473 C 0.98796 0.63367 0.1341 0.0
C474 C 0.02821 0.58496 0.1269 0.0
C475 C 1.00782 0.56205 0.14022 0.0
C476 C 0.97835 0.57578 0.1512 0.0
C477 C 0.96841 0.61114 0.14811 0.0
C478 C 0.01634 0.52375 0.14274 0.0
C479 C 0.03183 0.50494 0.12668 0.0
C480 C 0.03766 0.46598 0.12771 0.0
C481 C 0.03916 0.44699 0.10794 0.0
C482 C 0.0441 0.41031 0.10793 0.0
C483 C 0.04822 0.39172 0.12771 0.0
H484 H 0.04225 0.46146 0.16313 0.0
C485 C 0.04772 0.41075 0.14755 0.0
C486 C 0.04233 0.44756 0.14758 0.0
H487 H 0.05088 0.39708 0.16303 0.0
H488 H 0.0346 0.63709 0.11346 0.0
H489 H 0.05192 0.5758 0.11885 0.0
H490 H 0.96236 0.55882 0.16171 0.0
H491 H 0.94484 0.62047 0.15623 0.0
H492 H 1.00687 0.51019 0.15734 0.0
H493 H 0.03802 0.51799 0.11126 0.0
H494 H 0.03605 0.46053 0.09238 0.0
H495 H 0.04504 0.39652 0.09236 0.0
C496 C 0.40781 0.52482 0.39972 0.0
C497 C 0.3939 0.48998 0.39812 0.0
C498 C 0.44447 0.53099 0.40107 0.0
C499 C 0.46811 0.50236 0.40075 0.0
C500 C 0.45417 0.46758 0.39959 0.0
C501 C 0.41757 0.46143 0.39819 0.0
C502 C 0.50733 0.50736 0.40184 0.0
C503 C 0.5245 0.53743 0.39567 0.0
C504 C 0.56389 0.5413 0.39547 0.0
C505 C 0.57924 0.57558 0.39597 0.0
C506 C 0.61612 0.58035 0.3951 0.0
C507 C 0.6385 0.5509 0.3935 0.0
H508 H 0.57578 0.48499 0.39264 0.0
C509 C 0.62312 0.51661 0.39294 0.0
C510 C 0.58632 0.51183 0.39381 0.0
H511 H 0.63948 0.49329 0.39188 0.0
H512 H 0.39036 0.54739 0.40022 0.0
H513 H 0.45395 0.55816 0.40272 0.0
H514 H 0.47171 0.44501 0.39942 0.0
H515 H 0.40794 0.43427 0.39677 0.0
H516 H 0.52246 0.4847 0.40732 0.0
H517 H 0.50944 0.56023 0.39033 0.0
H518 H 0.56263 0.59879 0.39698 0.0
H519 H 0.627 0.60715 0.39525 0.0
C520 C 0.46993 0.11017 0.64384 0.0
C521 C 0.48754 0.13436 0.62988 0.0
C522 C 0.4793 0.07425 0.64421 0.0
C523 C 0.50657 0.0618 0.63064 0.0
C524 C 0.52451 0.08607 0.61705 0.0
C525 C 0.51535 0.12188 0.61678 0.0
C526 C 0.51551 0.02352 0.62898 0.0
C527 C 0.50968 0.9995 0.64499 0.0
C528 C 0.51819 0.96126 0.64231 0.0
C529 C 0.52815 0.94124 0.6607 0.0
C530 C 0.53631 0.9052 0.65856 0.0
C531 C 0.53399 0.88829 0.63802 0.0
H532 H 0.507 0.95849 0.60736 0.0
C533 C 0.5234 0.9082 0.6197 0.0
C534 C 0.51559 0.94423 0.6218 0.0
H535 H 0.52149 0.89604 0.60365 0.0
H536 H 0.44811 0.11864 0.65395 0.0
H537 H 0.46425 0.05621 0.65453 0.0
H538 H 0.54562 0.07725 0.60644 0.0
H539 H 0.53003 0.13971 0.60615 0.0
H540 H 0.52858 0.01509 0.61405 0.0
H541 H 0.4999 1.00817 0.6608 0.0
H542 H 0.52996 0.9536 0.67673 0.0
H543 H 0.54391 0.89045 0.67302 0.0
C544 C 0.90899 1.00479 0.86872 0.0
C545 C 0.88846 0.99311 0.88658 0.0
C546 C 0.94516 1.01273 0.87136 0.0
C547 C 0.96173 1.00907 0.89195 0.0
C548 C 0.94109 0.99807 0.90988 0.0
C549 C 0.90494 0.98993 0.90721 0.0
C550 C 1.00018 0.01722 0.89537 0.0
C551 C 0.02451 0.01389 0.8794 0.0
C552 C 0.0632 0.02072 0.88269 0.0
C553 C 0.08721 1.00349 0.86891 0.0
C554 C 0.12377 1.0093 0.87124 0.0
C555 C 0.13722 0.03293 0.88721 0.0
H556 H 0.05888 0.05917 0.90915 0.0
C557 C 0.11321 0.05072 0.90079 0.0
C558 C 0.07656 0.04465 0.8986 0.0
H559 H 0.12277 0.06904 0.91327 0.0
H560 H 0.89723 1.00743 0.85259 0.0
H561 H 0.95986 0.02214 0.85726 0.0
H562 H 0.95305 0.99542 0.92598 0.0
H563 H 0.88981 0.98157 0.92138 0.0
H564 H 1.00883 0.02406 0.91188 0.0
H565 H 0.01621 1.00367 0.86349 0.0
H566 H 0.07768 0.98526 0.85635 0.0
H567 H 0.14148 0.99564 0.86027 0.0
loop_
_geom_bond_atom_site_label_1
_geom_bond_atom_site_label_2
_geom_bond_distance
_geom_bond_site_symmetry_2
_ccdc_geom_bond_type
Cu0 N1 1.999 . S
Cu0 O6 1.974 . S
Cu0 N11 1.985 . S
Cu0 O20 1.959 . S
N1 Cu0 1.999 . S
N1 C3 1.263 . S
N1 C5 1.389 . S
N2 C3 1.358 . S
N2 C4 1.400 . S
C3 N1 1.263 . S
C3 N2 1.358 . S
C3 H9 0.930 . S
C4 N2 1.400 . S
C4 C5 1.351 . S
C4 H21 0.930 . S
C5 N1 1.389 . S
C5 C4 1.351 . S
C5 H10 0.930 . S
O6 Cu0 1.974 . S
O6 C16 1.282 . S
C7 O8 1.261 . S
C7 O20 1.251 . S
O8 C7 1.261 . S
H9 C3 0.930 . S
H10 C5 0.930 . S
N11 Cu0 1.985 . S
N11 C13 1.335 . S
N11 C14 1.390 . S
N12 C13 1.345 . S
N12 C15 1.336 . S
C13 N11 1.335 . S
C13 N12 1.345 . S
C13 H18 0.930 . S
C14 N11 1.390 . S
C14 C15 1.346 . S
C14 H19 0.930 . S
C15 N12 1.336 . S
C15 C14 1.346 . S
C15 H22 0.929 . S
C16 O6 1.282 . S
C16 O17 1.216 . S
O17 C16 1.216 . S
H18 C13 0.930 . S
H19 C14 0.930 . S
O20 Cu0 1.959 . S
O20 C7 1.251 . S
H21 C4 0.930 . S
H22 C15 0.929 . S
Cu23 N24 1.999 . S
Cu23 O29 1.974 . S
Cu23 N34 1.985 . S
Cu23 O43 1.959 . S
N24 Cu23 1.999 . S
N24 C26 1.263 . S
N24 C28 1.389 . S
N25 C26 1.358 . S
N25 C27 1.400 . S
C26 N24 1.263 . S
C26 N25 1.358 . S
C26 H32 0.930 . S
C27 N25 1.400 . S
C27 C28 1.351 . S
C27 H44 0.930 . S
C28 N24 1.389 . S
C28 C27 1.351 . S
C28 H33 0.930 . S
O29 Cu23 1.974 . S
O29 C39 1.282 . S
C30 O31 1.261 . S
C30 O43 1.251 . S
O31 C30 1.261 . S
H32 C26 0.930 . S
H33 C28 0.930 . S
N34 Cu23 1.985 . S
N34 C36 1.335 . S
N34 C37 1.390 . S
N35 C36 1.345 . S
N35 C38 1.336 . S
C36 N34 1.335 . S
C36 N35 1.345 . S
C36 H41 0.930 . S
C37 N34 1.390 . S
C37 C38 1.346 . S
C37 H42 0.930 . S
C38 N35 1.336 . S
C38 C37 1.346 . S
C38 H45 0.929 . S
C39 O29 1.282 . S
C39 O40 1.216 . S
O40 C39 1.216 . S
H41 C36 0.930 . S
H42 C37 0.930 . S
O43 Cu23 1.959 . S
O43 C30 1.251 . S
H44 C27 0.930 . S
H45 C38 0.929 . S
Cu46 N47 1.999 . S
Cu46 O52 1.974 . S
Cu46 N57 1.985 . S
Cu46 O66 1.959 . S
N47 Cu46 1.999 . S
N47 C49 1.263 . S
N47 C51 1.389 . S
N48 C49 1.358 . S
N48 C50 1.400 . S
C49 N47 1.263 . S
C49 N48 1.358 . S
C49 H55 0.930 . S
C50 N48 1.400 . S
C50 C51 1.351 . S
C50 H67 0.930 . S
C51 N47 1.389 . S
C51 C50 1.351 . S
C51 H56 0.930 . S
O52 Cu46 1.974 . S
O52 C62 1.282 . S
C53 O54 1.261 . S
C53 O66 1.251 . S
O54 C53 1.261 . S
H55 C49 0.930 . S
H56 C51 0.930 . S
N57 Cu46 1.985 . S
N57 C59 1.335 . S
N57 C60 1.390 . S
N58 C59 1.345 . S
N58 C61 1.336 . S
C59 N57 1.335 . S
C59 N58 1.345 . S
C59 H64 0.930 . S
C60 N57 1.390 . S
C60 C61 1.346 . S
C60 H65 0.930 . S
C61 N58 1.336 . S
C61 C60 1.346 . S
C61 H68 0.929 . S
C62 O52 1.282 . S
C62 O63 1.216 . S
O63 C62 1.216 . S
H64 C59 0.930 . S
H65 C60 0.930 . S
O66 Cu46 1.959 . S
O66 C53 1.251 . S
H67 C50 0.930 . S
H68 C61 0.929 . S
Cu69 N70 1.999 . S
Cu69 O75 1.974 . S
Cu69 N80 1.985 . S
Cu69 O89 1.959 . S
N70 Cu69 1.999 . S
N70 C72 1.263 . S
N70 C74 1.389 . S
N71 C72 1.358 . S
N71 C73 1.400 . S
C72 N70 1.263 . S
C72 N71 1.358 . S
C72 H78 0.930 . S
C73 N71 1.400 . S
C73 C74 1.351 . S
C73 H90 0.930 . S
C74 N70 1.389 . S
C74 C73 1.351 . S
C74 H79 0.930 . S
O75 Cu69 1.974 . S
O75 C85 1.282 . S
C76 O77 1.261 . S
C76 O89 1.251 . S
O77 C76 1.261 . S
H78 C72 0.930 . S
H79 C74 0.930 . S
N80 Cu69 1.985 . S
N80 C82 1.335 . S
N80 C83 1.390 . S
N81 C82 1.345 . S
N81 C84 1.336 . S
C82 N80 1.335 . S
C82 N81 1.345 . S
C82 H87 0.930 . S
C83 N80 1.390 . S
C83 C84 1.346 . S
C83 H88 0.930 . S
C84 N81 1.336 . S
C84 C83 1.346 . S
C84 H91 0.929 . S
C85 O75 1.282 . S
C85 O86 1.216 . S
O86 C85 1.216 . S
H87 C82 0.930 . S
H88 C83 0.930 . S
O89 Cu69 1.959 . S
O89 C76 1.251 . S
H90 C73 0.930 . S
H91 C84 0.929 . S
Cu92 N93 1.999 . S
Cu92 O98 1.974 . S
Cu92 N103 1.985 . S
Cu92 O112 1.959 . S
N93 Cu92 1.999 . S
N93 C95 1.263 . S
N93 C97 1.389 . S
N94 C95 1.358 . S
N94 C96 1.400 . S
C95 N93 1.263 . S
C95 N94 1.358 . S
C95 H101 0.930 . S
C96 N94 1.400 . S
C96 C97 1.351 . S
C96 H113 0.930 . S
C97 N93 1.389 . S
C97 C96 1.351 . S
C97 H102 0.930 . S
O98 Cu92 1.974 . S
O98 C108 1.282 . S
C99 O100 1.261 . S
C99 O112 1.251 . S
O100 C99 1.261 . S
H101 C95 0.930 . S
H102 C97 0.930 . S
N103 Cu92 1.985 . S
N103 C105 1.335 . S
N103 C106 1.390 . S
N104 C105 1.345 . S
N104 C107 1.336 . S
C105 N103 1.335 . S
C105 N104 1.345 . S
C105 H110 0.930 . S
C106 N103 1.390 . S
C106 C107 1.346 . S
C106 H111 0.930 . S
C107 N104 1.336 . S
C107 C106 1.346 . S
C107 H114 0.929 . S
C108 O98 1.282 . S
C108 O109 1.216 . S
O109 C108 1.216 . S
H110 C105 0.930 . S
H111 C106 0.930 . S
O112 Cu92 1.959 . S
O112 C99 1.251 . S
H113 C96 0.930 . S
H114 C107 0.929 . S
Cu115 N116 1.999 . S
Cu115 O121 1.974 . S
Cu115 N126 1.985 . S
Cu115 O135 1.959 . S
N116 Cu115 1.999 . S
N116 C118 1.263 . S
N116 C120 1.389 . S
N117 C118 1.358 . S
N117 C119 1.400 . S
C118 N116 1.263 . S
C118 N117 1.358 . S
C118 H124 0.930 . S
C119 N117 1.400 . S
C119 C120 1.351 . S
C119 H136 0.930 . S
C120 N116 1.389 . S
C120 C119 1.351 . S
C120 H125 0.930 . S
O121 Cu115 1.974 . S
O121 C131 1.282 . S
C122 O123 1.261 . S
C122 O135 1.251 . S
O123 C122 1.261 . S
H124 C118 0.930 . S
H125 C120 0.930 . S
N126 Cu115 1.985 . S
N126 C128 1.335 . S
N126 C129 1.390 . S
N127 C128 1.345 . S
N127 C130 1.336 . S
C128 N126 1.335 . S
C128 N127 1.345 . S
C128 H133 0.930 . S
C129 N126 1.390 . S
C129 C130 1.346 . S
C129 H134 0.930 . S
C130 N127 1.336 . S
C130 C129 1.346 . S
C130 H137 0.929 . S
C131 O121 1.282 . S
C131 O132 1.216 . S
O132 C131 1.216 . S
H133 C128 0.930 . S
H134 C129 0.930 . S
O135 Cu115 1.959 . S
O135 C122 1.251 . S
H136 C119 0.930 . S
H137 C130 0.929 . S
Cu138 N139 1.999 . S
Cu138 O144 1.974 . S
Cu138 N149 1.985 . S
Cu138 O158 1.959 . S
N139 Cu138 1.999 . S
N139 C141 1.263 . S
N139 C143 1.389 . S
N140 C141 1.358 . S
N140 C142 1.400 . S
C141 N139 1.263 . S
C141 N140 1.358 . S
C141 H147 0.930 . S
C142 N140 1.400 . S
C142 C143 1.351 . S
C142 H159 0.930 . S
C143 N139 1.389 . S
C143 C142 1.351 . S
C143 H148 0.930 . S
O144 Cu138 1.974 . S
O144 C154 1.282 . S
C145 O146 1.261 . S
C145 O158 1.251 . S
O146 C145 1.261 . S
H147 C141 0.930 . S
H148 C143 0.930 . S
N149 Cu138 1.985 . S
N149 C151 1.335 . S
N149 C152 1.390 . S
N150 C151 1.345 . S
N150 C153 1.336 . S
C151 N149 1.335 . S
C151 N150 1.345 . S
C151 H156 0.930 . S
C152 N149 1.390 . S
C152 C153 1.346 . S
C152 H157 0.930 . S
C153 N150 1.336 . S
C153 C152 1.346 . S
C153 H160 0.929 . S
C154 O144 1.282 . S
C154 O155 1.216 . S
O155 C154 1.216 . S
H156 C151 0.930 . S
H157 C152 0.930 . S
O158 Cu138 1.959 . S
O158 C145 1.251 . S
H159 C142 0.930 . S
H160 C153 0.929 . S
Cu161 N162 1.999 . S
Cu161 O167 1.974 . S
Cu161 N172 1.985 . S
Cu161 O181 1.959 . S
N162 Cu161 1.999 . S
N162 C164 1.263 . S
N162 C166 1.389 . S
N163 C164 1.358 . S
N163 C165 1.400 . S
C164 N162 1.263 . S
C164 N163 1.358 . S
C164 H170 0.930 . S
C165 N163 1.400 . S
C165 C166 1.351 . S
C165 H182 0.930 . S
C166 N162 1.389 . S
C166 C165 1.351 . S
C166 H171 0.930 . S
O167 Cu161 1.974 . S
O167 C177 1.282 . S
C168 O169 1.261 . S
C168 O181 1.251 . S
O169 C168 1.261 . S
H170 C164 0.930 . S
H171 C166 0.930 . S
N172 Cu161 1.985 . S
N172 C174 1.335 . S
N172 C175 1.390 . S
N173 C174 1.345 . S
N173 C176 1.336 . S
C174 N172 1.335 . S
C174 N173 1.345 . S
C174 H179 0.930 . S
C175 N172 1.390 . S
C175 C176 1.346 . S
C175 H180 0.930 . S
C176 N173 1.336 . S
C176 C175 1.346 . S
C176 H183 0.929 . S
C177 O167 1.282 . S
C177 O178 1.216 . S
O178 C177 1.216 . S
H179 C174 0.930 . S
H180 C175 0.930 . S
O181 Cu161 1.959 . S
O181 C168 1.251 . S
H182 C165 0.930 . S
H183 C176 0.929 . S
C184 C185 1.386 . S
C184 C186 1.383 . S
C184 H200 0.951 . S
C185 C184 1.386 . S
C185 C189 1.383 . S
C186 C184 1.383 . S
C186 C187 1.402 . S
C186 H201 0.951 . S
C187 C186 1.402 . S
C187 C188 1.375 . S
C187 C190 1.481 . S
C188 C187 1.375 . S
C188 C189 1.367 . S
C188 H202 0.951 . S
C189 C185 1.383 . S
C189 C188 1.367 . S
C189 H203 0.950 . S
C190 C187 1.481 . S
C190 C191 1.294 1_554 S
C190 H204 0.950 . S
C191 C190 1.294 1_556 S
C191 C192 1.485 . S
C191 H205 0.948 1_556 S
C192 C191 1.485 . S
C192 C193 1.375 . S
C192 C198 1.404 . S
C193 C192 1.375 . S
C193 C194 1.369 . S
C193 H206 0.950 . S
C194 C193 1.369 . S
C194 C195 1.392 . S
C194 H207 0.951 . S
C195 C194 1.392 . S
C195 C197 1.384 . S
H196 C198 0.949 . S
C197 C195 1.384 . S
C197 C198 1.385 . S
C197 H199 0.950 . S
C198 C192 1.404 . S
C198 H196 0.949 . S
C198 C197 1.385 . S
H199 C197 0.950 . S
H200 C184 0.951 . S
H201 C186 0.951 . S
H202 C188 0.951 . S
H203 C189 0.950 . S
H204 C190 0.950 . S
H205 C191 0.948 1_554 S
H206 C193 0.950 . S
H207 C194 0.951 . S
C208 C209 1.386 . S
C208 C210 1.383 . S
C208 H224 0.951 . S
C209 C208 1.386 . S
C209 C213 1.383 . S
C210 C208 1.383 . S
C210 C211 1.402 . S
C210 H225 0.951 . S
C211 C210 1.402 . S
C211 C212 1.375 . S
C211 C214 1.481 . S
C212 C211 1.375 . S
C212 C213 1.367 . S
C212 H226 0.951 . S
C213 C209 1.383 . S
C213 C212 1.367 . S
C213 H227 0.950 . S
C214 C211 1.481 . S
C214 C215 1.297 . S
C214 H228 0.950 . S
C215 C214 1.297 . S
C215 C216 1.479 . S
C215 H229 0.950 . S
C216 C215 1.479 . S
C216 C217 1.375 . S
C216 C222 1.404 . S
C217 C216 1.375 . S
C217 C218 1.369 . S
C217 H230 0.950 . S
C218 C217 1.369 . S
C218 C219 1.392 . S
C218 H231 0.951 . S
C219 C218 1.392 . S
C219 C221 1.384 . S
H220 C222 0.949 . S
C221 C219 1.384 . S
C221 C222 1.385 . S
C221 H223 0.950 . S
C222 C216 1.404 . S
C222 H220 0.949 . S
C222 C221 1.385 . S
H223 C221 0.950 . S
H224 C208 0.951 . S
H225 C210 0.951 . S
H226 C212 0.951 . S
H227 C213 0.950 . S
H228 C214 0.950 . S
H229 C215 0.950 . S
H230 C217 0.950 . S
H231 C218 0.951 . S
C232 C233 1.386 . S
C232 C234 1.383 . S
C232 H248 0.951 . S
C233 C232 1.386 . S
C233 C237 1.383 . S
C234 C232 1.383 . S
C234 C235 1.402 . S
C234 H249 0.951 . S
C235 C234 1.402 . S
C235 C236 1.375 . S
C235 C238 1.481 . S
C236 C235 1.375 . S
C236 C237 1.367 . S
C236 H250 0.951 . S
C237 C233 1.383 . S
C237 C236 1.367 . S
C237 H251 0.950 . S
C238 C235 1.481 . S
C238 C239 1.297 . S
C238 H252 0.950 . S
C239 C238 1.297 . S
C239 C240 1.479 . S
C239 H253 0.950 . S
C240 C239 1.479 . S
C240 C241 1.375 . S
C240 C246 1.404 . S
C241 C240 1.375 . S
C241 C242 1.369 . S
C241 H254 0.950 . S
C242 C241 1.369 . S
C242 C243 1.392 . S
C242 H255 0.951 . S
C243 C242 1.392 . S
C243 C245 1.384 . S
H244 C246 0.949 . S
C245 C243 1.384 . S
C245 C246 1.385 . S
C245 H247 0.950 . S
C246 C240 1.404 . S
C246 H244 0.949 . S
C246 C245 1.385 . S
H247 C245 0.950 . S
H248 C232 0.951 . S
H249 C234 0.951 . S
H250 C236 0.951 . S
H251 C237 0.950 . S
H252 C238 0.950 . S
H253 C239 0.950 . S
H254 C241 0.950 . S
H255 C242 0.951 . S
C256 C257 1.386 . S
C256 C258 1.383 . S
C256 H272 0.951 . S
C257 C256 1.386 . S
C257 C261 1.383 . S
C258 C256 1.383 . S
C258 C259 1.402 . S
C258 H273 0.951 . S
C259 C258 1.402 . S
C259 C260 1.375 . S
C259 C262 1.481 . S
C260 C259 1.375 . S
C260 C261 1.367 . S
C260 H274 0.951 . S
C261 C257 1.383 . S
C261 C260 1.367 . S
C261 H275 0.950 . S
C262 C259 1.481 . S
C262 C263 1.297 . S
C262 H276 0.950 . S
C263 C262 1.297 . S
C263 C264 1.479 . S
C263 H277 0.950 . S
C264 C263 1.479 . S
C264 C265 1.375 . S
C264 C270 1.404 . S
C265 C264 1.375 . S
C265 C266 1.369 . S
C265 H278 0.950 . S
C266 C265 1.369 . S
C266 C267 1.392 . S
C266 H279 0.951 . S
C267 C266 1.392 . S
C267 C269 1.384 . S
H268 C270 0.949 . S
C269 C267 1.384 . S
C269 C270 1.385 . S
C269 H271 0.950 . S
C270 C264 1.404 . S
C270 H268 0.949 . S
C270 C269 1.385 . S
H271 C269 0.950 . S
H272 C256 0.951 . S
H273 C258 0.951 . S
H274 C260 0.951 . S
H275 C261 0.950 . S
H276 C262 0.950 . S
H277 C263 0.950 . S
H278 C265 0.950 . S
H279 C266 0.951 . S
C280 C281 1.386 . S
C280 C282 1.383 . S
C280 H296 0.951 . S
C281 C280 1.386 . S
C281 C285 1.383 . S
C282 C280 1.383 . S
C282 C283 1.402 . S
C282 H297 0.951 . S
C283 C282 1.402 . S
C283 C284 1.375 . S
C283 C286 1.481 . S
C284 C283 1.375 . S
C284 C285 1.367 . S
C284 H298 0.951 . S
C285 C281 1.383 . S
C285 C284 1.367 . S
C285 H299 0.950 . S
C286 C283 1.481 . S
C286 C287 1.297 . S
C286 H300 0.950 . S
C287 C286 1.297 . S
C287 C288 1.479 . S
C287 H301 0.950 . S
C288 C287 1.479 . S
C288 C289 1.375 . S
C288 C294 1.404 . S
C289 C288 1.375 . S
C289 C290 1.369 . S
C289 H302 0.950 . S
C290 C289 1.369 . S
C290 C291 1.392 . S
C290 H303 0.951 . S
C291 C290 1.392 . S
C291 C293 1.384 . S
H292 C294 0.949 . S
C293 C291 1.384 . S
C293 C294 1.385 . S
C293 H295 0.950 . S
C294 C288 1.404 . S
C294 H292 0.949 . S
C294 C293 1.385 . S
H295 C293 0.950 . S
H296 C280 0.951 . S
H297 C282 0.951 . S
H298 C284 0.951 . S
H299 C285 0.950 . S
H300 C286 0.950 . S
H301 C287 0.950 . S
H302 C289 0.950 . S
H303 C290 0.951 . S
C304 C305 1.386 . S
C304 C306 1.383 . S
C304 H320 0.951 . S
C305 C304 1.386 . S
C305 C309 1.383 . S
C306 C304 1.383 . S
C306 C307 1.402 . S
C306 H321 0.951 . S
C307 C306 1.402 . S
C307 C308 1.375 . S
C307 C310 1.481 . S
C308 C307 1.375 . S
C308 C309 1.367 . S
C308 H322 0.951 . S
C309 C305 1.383 . S
C309 C308 1.367 . S
C309 H323 0.950 . S
C310 C307 1.481 . S
C310 C311 1.297 . S
C310 H324 0.950 . S
C311 C310 1.297 . S
C311 C312 1.479 . S
C311 H325 0.950 . S
C312 C311 1.479 . S
C312 C313 1.375 . S
C312 C318 1.404 . S
C313 C312 1.375 . S
C313 C314 1.369 . S
C313 H326 0.950 . S
C314 C313 1.369 . S
C314 C315 1.392 . S
C314 H327 0.951 . S
C315 C314 1.392 . S
C315 C317 1.384 . S
H316 C318 0.949 . S
C317 C315 1.384 . S
C317 C318 1.385 . S
C317 H319 0.950 . S
C318 C312 1.404 . S
C318 H316 0.949 . S
C318 C317 1.385 . S
H319 C317 0.950 . S
H320 C304 0.951 . S
H321 C306 0.951 . S
H322 C308 0.951 . S
H323 C309 0.950 . S
H324 C310 0.950 . S
H325 C311 0.950 . S
H326 C313 0.950 . S
H327 C314 0.951 . S
C328 C329 1.386 . S
C328 C330 1.383 . S
C328 H344 0.951 . S
C329 C328 1.386 . S
C329 C333 1.383 . S
C330 C328 1.383 . S
C330 C331 1.402 . S
C330 H345 0.951 . S
C331 C330 1.402 . S
C331 C332 1.375 . S
C331 C334 1.481 . S
C332 C331 1.375 . S
C332 C333 1.367 . S
C332 H346 0.951 . S
C333 C329 1.383 . S
C333 C332 1.367 . S
C333 H347 0.950 . S
C334 C331 1.481 . S
C334 C335 1.297 . S
C334 H348 0.950 . S
C335 C334 1.297 . S
C335 C336 1.479 . S
C335 H349 0.950 . S
C336 C335 1.479 . S
C336 C337 1.375 . S
C336 C342 1.404 . S
C337 C336 1.375 . S
C337 C338 1.369 . S
C337 H350 0.950 . S
C338 C337 1.369 . S
C338 C339 1.392 . S
C338 H351 0.951 . S
C339 C338 1.392 . S
C339 C341 1.384 . S
H340 C342 0.949 . S
C341 C339 1.384 . S
C341 C342 1.385 . S
C341 H343 0.950 . S
C342 C336 1.404 . S
C342 H340 0.949 . S
C342 C341 1.385 . S
H343 C341 0.950 . S
H344 C328 0.951 . S
H345 C330 0.951 . S
H346 C332 0.951 . S
H347 C333 0.950 . S
H348 C334 0.950 . S
H349 C335 0.950 . S
H350 C337 0.950 . S
H351 C338 0.951 . S
C352 C353 1.386 . S
C352 C354 1.383 . S
C352 H368 0.951 . S
C353 C352 1.386 . S
C353 C357 1.383 . S
C354 C352 1.383 . S
C354 C355 1.402 . S
C354 H369 0.951 . S
C355 C354 1.402 . S
C355 C356 1.375 . S
C355 C358 1.481 . S
C356 C355 1.375 . S
C356 C357 1.367 . S
C356 H370 0.951 . S
C357 C353 1.383 . S
C357 C356 1.367 . S
C357 H371 0.950 . S
C358 C355 1.481 . S
C358 C359 1.297 1_554 S
C358 H372 0.950 . S
C359 C358 1.297 1_556 S
C359 C360 1.479 . S
C359 H373 0.950 . S
C360 C359 1.479 . S
C360 C361 1.375 . S
C360 C366 1.404 . S
C361 C360 1.375 . S
C361 C362 1.369 . S
C361 H374 0.950 . S
C362 C361 1.369 . S
C362 C363 1.392 . S
C362 H375 0.951 . S
C363 C362 1.392 . S
C363 C365 1.384 . S
H364 C366 0.949 . S
C365 C363 1.384 . S
C365 C366 1.385 . S
C365 H367 0.950 . S
C366 C360 1.404 . S
C366 H364 0.949 . S
C366 C365 1.385 . S
H367 C365 0.950 . S
H368 C352 0.951 . S
H369 C354 0.951 . S
H370 C356 0.951 . S
H371 C357 0.950 . S
H372 C358 0.950 . S
H373 C359 0.950 . S
H374 C361 0.950 . S
H375 C362 0.951 . S
C376 C377 1.386 . S
C376 C378 1.383 . S
C376 H392 0.951 . S
C377 C376 1.386 . S
C377 C381 1.383 . S
C378 C376 1.383 . S
C378 C379 1.402 . S
C378 H393 0.951 . S
C379 C378 1.402 . S
C379 C380 1.375 . S
C379 C382 1.481 1_455 S
C380 C379 1.375 . S
C380 C381 1.367 . S
C380 H394 0.951 1_455 S
C381 C377 1.383 . S
C381 C380 1.367 . S
C381 H395 0.950 . S
C382 C379 1.481 1_655 S
C382 C383 1.297 1_545 S
C382 H396 0.950 . S
C383 C382 1.297 1_565 S
C383 C384 1.479 . S
C383 H397 0.950 1_655 S
C384 C383 1.479 . S
C384 C385 1.375 . S
C384 C390 1.404 . S
C385 C384 1.375 . S
C385 C386 1.369 . S
C385 H398 0.950 1_655 S
C386 C385 1.369 . S
C386 C387 1.392 . S
C386 H399 0.951 . S
C387 C386 1.392 . S
C387 C389 1.384 . S
H388 C390 0.949 . S
C389 C387 1.384 . S
C389 C390 1.385 . S
C389 H391 0.950 . S
C390 C384 1.404 . S
C390 H388 0.949 . S
C390 C389 1.385 . S
H391 C389 0.950 . S
H392 C376 0.951 . S
H393 C378 0.951 . S
H394 C380 0.951 1_655 S
H395 C381 0.950 . S
H396 C382 0.950 . S
H397 C383 0.950 1_455 S
H398 C385 0.950 1_455 S
H399 C386 0.951 . S
C400 C401 1.386 . S
C400 C402 1.383 . S
C400 H416 0.951 . S
C401 C400 1.386 . S
C401 C405 1.383 . S
C402 C400 1.383 . S
C402 C403 1.402 . S
C402 H417 0.951 . S
C403 C402 1.402 . S
C403 C404 1.375 . S
C403 C406 1.481 . S
C404 C403 1.375 . S
C404 C405 1.367 . S
C404 H418 0.951 . S
C405 C401 1.383 . S
C405 C404 1.367 . S
C405 H419 0.950 . S
C406 C403 1.481 . S
C406 C407 1.297 . S
C406 H420 0.938 1_455 S
C407 C406 1.297 . S
C407 C408 1.479 1_455 S
C407 H421 0.951 . S
C408 C407 1.479 1_655 S
C408 C409 1.375 . S
C408 C414 1.404 . S
C409 C408 1.375 . S
C409 C410 1.369 . S
C409 H422 0.950 . S
C410 C409 1.369 . S
C410 C411 1.392 . S
C410 H423 0.951 . S
C411 C410 1.392 . S
C411 C413 1.384 . S
H412 C414 0.949 . S
C413 C411 1.384 . S
C413 C414 1.385 . S
C413 H415 0.950 . S
C414 C408 1.404 . S
C414 H412 0.949 . S
C414 C413 1.385 . S
H415 C413 0.950 . S
H416 C400 0.951 . S
H417 C402 0.951 . S
H418 C404 0.951 . S
H419 C405 0.950 . S
H420 C406 0.938 1_655 S
H421 C407 0.951 . S
H422 C409 0.950 . S
H423 C410 0.951 . S
C424 C425 1.386 . S
C424 C426 1.383 . S
C424 H440 0.951 . S
C425 C424 1.386 . S
C425 C429 1.383 . S
C426 C424 1.383 . S
C426 C427 1.402 . S
C426 H441 0.951 . S
C427 C426 1.402 . S
C427 C428 1.375 . S
C427 C430 1.481 . S
C428 C427 1.375 . S
C428 C429 1.367 . S
C428 H442 0.951 . S
C429 C425 1.383 . S
C429 C428 1.367 . S
C429 H443 0.950 . S
C430 C427 1.481 . S
C430 C431 1.297 . S
C430 H444 0.950 . S
C431 C430 1.297 . S
C431 C432 1.479 . S
C431 H445 0.950 . S
C432 C431 1.479 . S
C432 C433 1.375 . S
C432 C438 1.404 . S
C433 C432 1.375 . S
C433 C434 1.369 . S
C433 H446 0.950 . S
C434 C433 1.369 . S
C434 C435 1.392 . S
C434 H447 0.951 . S
C435 C434 1.392 . S
C435 C437 1.384 . S
H436 C438 0.949 . S
C437 C435 1.384 . S
C437 C438 1.385 . S
C437 H439 0.950 . S
C438 C432 1.404 . S
C438 H436 0.949 . S
C438 C437 1.385 . S
H439 C437 0.950 . S
H440 C424 0.951 . S
H441 C426 0.951 . S
H442 C428 0.951 . S
H443 C429 0.950 . S
H444 C430 0.950 . S
H445 C431 0.950 . S
H446 C433 0.950 . S
H447 C434 0.951 . S
C448 C449 1.386 . S
C448 C450 1.383 . S
C448 H464 0.951 . S
C449 C448 1.386 . S
C449 C453 1.383 . S
C450 C448 1.383 . S
C450 C451 1.402 . S
C450 H465 0.951 . S
C451 C450 1.402 . S
C451 C452 1.375 . S
C451 C454 1.481 1_565 S
C452 C451 1.375 . S
C452 C453 1.367 . S
C452 H466 0.951 . S
C453 C449 1.383 . S
C453 C452 1.367 . S
C453 H467 0.950 . S
C454 C451 1.481 1_545 S
C454 C455 1.297 . S
C454 H468 0.950 . S
C455 C454 1.297 . S
C455 C456 1.479 . S
C455 H469 0.950 . S
C456 C455 1.479 . S
C456 C457 1.375 . S
C456 C462 1.404 . S
C457 C456 1.375 . S
C457 C458 1.369 . S
C457 H470 0.950 . S
C458 C457 1.369 . S
C458 C459 1.392 . S
C458 H471 0.951 . S
C459 C458 1.392 . S
C459 C461 1.384 . S
H460 C462 0.949 . S
C461 C459 1.384 . S
C461 C462 1.385 . S
C461 H463 0.950 . S
C462 C456 1.404 . S
C462 H460 0.949 . S
C462 C461 1.385 . S
H463 C461 0.950 . S
H464 C448 0.951 . S
H465 C450 0.951 . S
H466 C452 0.951 . S
H467 C453 0.950 . S
H468 C454 0.950 . S
H469 C455 0.950 . S
H470 C457 0.950 . S
H471 C458 0.951 . S
C472 C473 1.386 . S
C472 C474 1.383 . S
C472 H488 0.951 . S
C473 C472 1.386 . S
C473 C477 1.383 . S
C474 C472 1.383 . S
C474 C475 1.402 . S
C474 H489 0.942 1_655 S
C475 C474 1.402 . S
C475 C476 1.375 . S
C475 C478 1.481 . S
C476 C475 1.375 . S
C476 C477 1.367 . S
C476 H490 0.951 . S
C477 C473 1.383 . S
C477 C476 1.367 . S
C477 H491 0.950 . S
C478 C475 1.481 . S
C478 C479 1.297 1_655 S
C478 H492 0.950 . S
C479 C478 1.297 1_455 S
C479 C480 1.479 . S
C479 H493 0.950 . S
C480 C479 1.479 . S
C480 C481 1.375 . S
C480 C486 1.404 . S
C481 C480 1.375 . S
C481 C482 1.369 . S
C481 H494 0.950 . S
C482 C481 1.369 . S
C482 C483 1.392 . S
C482 H495 0.951 . S
C483 C482 1.392 . S
C483 C485 1.384 . S
H484 C486 0.949 . S
C485 C483 1.384 . S
C485 C486 1.385 . S
C485 H487 0.950 . S
C486 C480 1.404 . S
C486 H484 0.949 . S
C486 C485 1.385 . S
H487 C485 0.950 . S
H488 C472 0.951 . S
H489 C474 0.942 1_455 S
H490 C476 0.951 . S
H491 C477 0.950 . S
H492 C478 0.950 . S
H493 C479 0.950 . S
H494 C481 0.950 . S
H495 C482 0.951 . S
C496 C497 1.386 . S
C496 C498 1.383 . S
C496 H512 0.951 . S
C497 C496 1.386 . S
C497 C501 1.383 . S
C498 C496 1.383 . S
C498 C499 1.402 . S
C498 H513 0.951 . S
C499 C498 1.402 . S
C499 C500 1.375 . S
C499 C502 1.481 . S
C500 C499 1.375 . S
C500 C501 1.367 . S
C500 H514 0.951 . S
C501 C497 1.383 . S
C501 C500 1.367 . S
C501 H515 0.950 . S
C502 C499 1.481 . S
C502 C503 1.297 . S
C502 H516 0.950 . S
C503 C502 1.297 . S
C503 C504 1.479 . S
C503 H517 0.950 . S
C504 C503 1.479 . S
C504 C505 1.375 . S
C504 C510 1.404 . S
C505 C504 1.375 . S
C505 C506 1.369 . S
C505 H518 0.950 . S
C506 C505 1.369 . S
C506 C507 1.392 . S
C506 H519 0.951 . S
C507 C506 1.392 . S
C507 C509 1.384 . S
H508 C510 0.949 . S
C509 C507 1.384 . S
C509 C510 1.385 . S
C509 H511 0.950 . S
C510 C504 1.404 . S
C510 H508 0.949 . S
C510 C509 1.385 . S
H511 C509 0.950 . S
H512 C496 0.951 . S
H513 C498 0.951 . S
H514 C500 0.951 . S
H515 C501 0.950 . S
H516 C502 0.950 . S
H517 C503 0.950 . S
H518 C505 0.950 . S
H519 C506 0.951 . S
C520 C521 1.386 . S
C520 C522 1.383 . S
C520 H536 0.951 . S
C521 C520 1.386 . S
C521 C525 1.383 . S
C522 C520 1.383 . S
C522 C523 1.402 . S
C522 H537 0.951 . S
C523 C522 1.402 . S
C523 C524 1.375 . S
C523 C526 1.481 . S
C524 C523 1.375 . S
C524 C525 1.367 . S
C524 H538 0.951 . S
C525 C521 1.383 . S
C525 C524 1.367 . S
C525 H539 0.950 . S
C526 C523 1.481 . S
C526 C527 1.297 1_545 S
C526 H540 0.950 . S
C527 C526 1.297 1_565 S
C527 C528 1.479 . S
C527 H541 0.950 . S
C528 C527 1.479 . S
C528 C529 1.375 . S
C528 C534 1.404 . S
C529 C528 1.375 . S
C529 C530 1.369 . S
C529 H542 0.950 . S
C530 C529 1.369 . S
C530 C531 1.392 . S
C530 H543 0.951 . S
C531 C530 1.392 . S
C531 C533 1.384 . S
H532 C534 0.949 . S
C533 C531 1.384 . S
C533 C534 1.385 . S
C533 H535 0.950 . S
C534 C528 1.404 . S
C534 H532 0.949 . S
C534 C533 1.385 . S
H535 C533 0.950 . S
H536 C520 0.951 . S
H537 C522 0.951 . S
H538 C524 0.951 . S
H539 C525 0.950 . S
H540 C526 0.950 . S
H541 C527 0.950 . S
H542 C529 0.950 . S
H543 C530 0.951 . S
C544 C545 1.386 . S
C544 C546 1.383 . S
C544 H560 0.951 . S
C545 C544 1.386 . S
C545 C549 1.383 . S
C546 C544 1.383 . S
C546 C547 1.402 . S
C546 H561 0.951 . S
C547 C546 1.402 . S
C547 C548 1.375 . S
C547 C550 1.481 . S
C548 C547 1.375 . S
C548 C549 1.367 . S
C548 H562 0.951 . S
C549 C545 1.383 . S
C549 C548 1.367 . S
C549 H563 0.950 . S
C550 C547 1.481 . S
C550 C551 1.288 1_665 S
C550 H564 0.950 1_655 S
C551 C550 1.288 1_445 S
C551 C552 1.506 . S
C551 H565 0.932 1_455 S
C552 C551 1.506 . S
C552 C553 1.375 . S
C552 C558 1.404 . S
C553 C552 1.375 . S
C553 C554 1.369 . S
C553 H566 0.950 . S
C554 C553 1.369 . S
C554 C555 1.392 . S
C554 H567 0.951 . S
C555 C554 1.392 . S
C555 C557 1.384 . S
H556 C558 0.949 . S
C557 C555 1.384 . S
C557 C558 1.385 . S
C557 H559 0.950 . S
C558 C552 1.404 . S
C558 H556 0.949 . S
C558 C557 1.385 . S
H559 C557 0.950 . S
H560 C544 0.951 . S
H561 C546 0.951 . S
H562 C548 0.951 . S
H563 C549 0.950 . S
H564 C550 0.950 1_455 S
H565 C551 0.932 1_655 S
H566 C553 0.950 . S
H567 C554 0.951 . S
C185 C16 1.877 . S
C195 C131 1.891 . S
C209 C30 1.906 . S
C219 C145 1.887 . S
C233 C62 1.870 . S
C243 C177 1.837 . S
C257 C76 1.923 . S
C267 C99 1.934 . S
C281 C168 1.933 . S
C291 C7 1.909 . S
C305 C108 1.861 . S
C315 C39 1.863 . S
C329 C53 1.938 . S
C339 C122 1.923 . S
C353 C154 1.865 . S
C363 C85 1.832 . S
C377 N2 1.628 . S
C387 N140 1.649 . S
C401 N173 1.810 . S
C411 N35 1.827 . S
C425 N48 1.647 . S
C435 N94 1.600 . S
C449 N81 1.794 . S
C459 N127 1.808 . S
C473 N150 1.815 . S
C483 N12 1.830 . S
C497 N163 1.704 . S
C507 N25 1.688 . S
C521 N58 1.787 . S
C531 N104 1.753 . S
C545 N71 1.674 . S
C555 N117 1.725 . S
