# Generated by pormake.
# Topology lcy-e, (6)-cn, num edge types: 1
# Building blocks:
#     Node 0, Type 0, BuildingBlock: KUMJIN_clean_sbu_0, # of connection points: 6
#     Node 1, Type 0, BuildingBlock: KUMJIN_clean_sbu_0, # of connection points: 6
#     Node 2, Type 0, BuildingBlock: KUMJIN_clean_sbu_0, # of connection points: 6
#     Node 3, Type 0, BuildingBlock: KUMJIN_clean_sbu_0, # of connection points: 6
#     Node 4, Type 0, BuildingBlock: KUMJIN_clean_sbu_0, # of connection points: 6
#     Node 5, Type 0, BuildingBlock: KUMJIN_clean_sbu_0, # of connection points: 6
#     Node 6, Type 0, BuildingBlock: KUMJIN_clean_sbu_0, # of connection points: 6
#     Node 7, Type 0, BuildingBlock: KUMJIN_clean_sbu_0, # of connection points: 6
#     Node 8, Type 0, BuildingBlock: KUMJIN_clean_sbu_0, # of connection points: 6
#     Node 9, Type 0, BuildingBlock: KUMJIN_clean_sbu_0, # of connection points: 6
#     Node 10, Type 0, BuildingBlock: KUMJIN_clean_sbu_0, # of connection points: 6
#     Node 11, Type 0, BuildingBlock: KUMJIN_clean_sbu_0, # of connection points: 6
#     Edge 12, Type (0, 0), BuildingBlock: ZUJKAS_clean_linker_0, # of connection points: 2
#     Edge 13, Type (0, 0), BuildingBlock: ZUJKAS_clean_linker_0, # of connection points: 2
#     Edge 14, Type (0, 0), BuildingBlock: ZUJKAS_clean_linker_0, # of connection points: 2
#     Edge 15, Type (0, 0), BuildingBlock: ZUJKAS_clean_linker_0, # of connection points: 2
#     Edge 16, Type (0, 0), BuildingBlock: ZUJKAS_clean_linker_0, # of connection points: 2
#     Edge 17, Type (0, 0), BuildingBlock: ZUJKAS_clean_linker_0, # of connection points: 2
#     Edge 18, Type (0, 0), BuildingBlock: ZUJKAS_clean_linker_0, # of connection points: 2
#     Edge 19, Type (0, 0), BuildingBlock: ZUJKAS_clean_linker_0, # of connection points: 2
#     Edge 20, Type (0, 0), BuildingBlock: ZUJKAS_clean_linker_0, # of connection points: 2
#     Edge 21, Type (0, 0), BuildingBlock: ZUJKAS_clean_linker_0, # of connection points: 2
#     Edge 22, Type (0, 0), BuildingBlock: ZUJKAS_clean_linker_0, # of connection points: 2
#     Edge 23, Type (0, 0), BuildingBlock: ZUJKAS_clean_linker_0, # of connection points: 2
#     Edge 24, Type (0, 0), BuildingBlock: ZUJKAS_clean_linker_0, # of connection points: 2
#     Edge 25, Type (0, 0), BuildingBlock: ZUJKAS_clean_linker_0, # of connection points: 2
#     Edge 26, Type (0, 0), BuildingBlock: ZUJKAS_clean_linker_0, # of connection points: 2
#     Edge 27, Type (0, 0), BuildingBlock: ZUJKAS_clean_linker_0, # of connection points: 2
#     Edge 28, Type (0, 0), BuildingBlock: ZUJKAS_clean_linker_0, # of connection points: 2
#     Edge 29, Type (0, 0), BuildingBlock: ZUJKAS_clean_linker_0, # of connection points: 2
#     Edge 30, Type (0, 0), BuildingBlock: ZUJKAS_clean_linker_0, # of connection points: 2
#     Edge 31, Type (0, 0), BuildingBlock: ZUJKAS_clean_linker_0, # of connection points: 2
#     Edge 32, Type (0, 0), BuildingBlock: ZUJKAS_clean_linker_0, # of connection points: 2
#     Edge 33, Type (0, 0), BuildingBlock: ZUJKAS_clean_linker_0, # of connection points: 2
#     Edge 34, Type (0, 0), BuildingBlock: ZUJKAS_clean_linker_0, # of connection points: 2
#     Edge 35, Type (0, 0), BuildingBlock: ZUJKAS_clean_linker_0, # of connection points: 2
#     Edge 36, Type (0, 0), BuildingBlock: ZUJKAS_clean_linker_0, # of connection points: 2
#     Edge 37, Type (0, 0), BuildingBlock: ZUJKAS_clean_linker_0, # of connection points: 2
#     Edge 38, Type (0, 0), BuildingBlock: ZUJKAS_clean_linker_0, # of connection points: 2
#     Edge 39, Type (0, 0), BuildingBlock: ZUJKAS_clean_linker_0, # of connection points: 2
#     Edge 40, Type (0, 0), BuildingBlock: ZUJKAS_clean_linker_0, # of connection points: 2
#     Edge 41, Type (0, 0), BuildingBlock: ZUJKAS_clean_linker_0, # of connection points: 2
#     Edge 42, Type (0, 0), BuildingBlock: ZUJKAS_clean_linker_0, # of connection points: 2
#     Edge 43, Type (0, 0), BuildingBlock: ZUJKAS_clean_linker_0, # of connection points: 2
#     Edge 44, Type (0, 0), BuildingBlock: ZUJKAS_clean_linker_0, # of connection points: 2
#     Edge 45, Type (0, 0), BuildingBlock: ZUJKAS_clean_linker_0, # of connection points: 2
#     Edge 46, Type (0, 0), BuildingBlock: ZUJKAS_clean_linker_0, # of connection points: 2
#     Edge 47, Type (0, 0), BuildingBlock: ZUJKAS_clean_linker_0, # of connection points: 2
# Relax obj value: 0.116
# Max RMSD: 0.279
# Mean RMSD: 0.278
data_MOF--net-lcy-e--node1-KUMJIN_clean_sbu_0--edge1-ZUJKAS_clean_linker_0
_symmetry_space_group_name_H-M    P1
_symmetry_Int_Tables_number       1
_symmetry_cell_setting            triclinic
loop_
_symmetry_equiv_pos_as_xyz
'x, y, z'
_cell_length_a     54.199758
_cell_length_b     54.017016
_cell_length_c     54.275827
_cell_angle_alpha  89.67019
_cell_angle_beta   90.070347
_cell_angle_gamma 90.478984
loop_
_atom_site_label
_atom_site_type_symbol
_atom_site_fract_x
_atom_site_fract_y
_atom_site_fract_z
_atom_type_partial_charge
Eu0 Eu 0.15079 0.20997 0.5181 0.0
C1 C 0.06903 0.24593 0.44615 0.0
C2 C 0.07442 0.21748 0.41232 0.0
C3 C 0.03448 0.23629 0.41904 0.0
C4 C 0.08393 0.23016 0.43298 0.0
C5 C 0.04415 0.24929 0.43923 0.0
C6 C 0.04963 0.22055 0.40551 0.0
C7 C 0.04074 0.27984 0.47126 0.0
N8 N 0.07901 0.25852 0.46533 0.0
C9 C 0.06557 0.2762 0.4771 0.0
C10 C 0.02989 0.26613 0.45239 0.0
Eu11 Eu 0.12178 0.25314 0.47298 0.0
N12 N 0.10767 0.22718 0.44036 0.0
C13 C 0.12286 0.21172 0.42761 0.0
C14 C 0.09013 0.20214 0.39902 0.0
C15 C 0.11436 0.19904 0.40688 0.0
H16 H 0.07418 0.28795 0.4907 0.0
H17 H 0.12658 0.18691 0.39693 0.0
H18 H 0.04201 0.21087 0.38977 0.0
H19 H 0.03015 0.29361 0.48096 0.0
H20 H 0.14156 0.20867 0.43324 0.0
H21 H 0.1893 0.27189 0.58769 0.0
H22 H 0.0837 0.19246 0.38277 0.0
H23 H 0.17664 0.15772 0.49769 0.0
H24 H 0.15632 0.25032 0.56458 0.0
H25 H 0.21829 0.13978 0.49313 0.0
H26 H 0.01542 0.2386 0.4135 0.0
H27 H 0.23309 0.26243 0.57932 0.0
H28 H 0.26396 0.23539 0.55799 0.0
H29 H 0.01073 0.26921 0.44765 0.0
H30 H 0.27192 0.199 0.53216 0.0
N31 N 0.1812 0.23005 0.54238 0.0
C32 C 0.17537 0.2462 0.56065 0.0
C33 C 0.21869 0.2531 0.56898 0.0
C34 C 0.22442 0.23471 0.5519 0.0
C35 C 0.19401 0.2584 0.57383 0.0
C36 C 0.20495 0.22318 0.53893 0.0
H37 H 0.2549 0.16275 0.50839 0.0
N38 N 0.18984 0.19076 0.51442 0.0
C39 C 0.21609 0.1576 0.50182 0.0
C40 C 0.20944 0.20273 0.52454 0.0
C41 C 0.19257 0.16772 0.5045 0.0
C42 C 0.23672 0.17068 0.51036 0.0
C43 C 0.23349 0.19322 0.52252 0.0
O44 O 0.13874 0.17268 0.5294 0.0
O45 O 0.11936 0.21677 0.49225 0.0
O46 O 0.09762 0.253 0.50787 0.0
O47 O 0.12266 0.23353 0.53736 0.0
O48 O 0.13363 0.18148 0.4923 0.0
O49 O 0.14353 0.20068 0.55689 0.0
O50 O 0.11739 0.29217 0.46303 0.0
O51 O 0.15174 0.24901 0.50148 0.0
O52 O 0.17568 0.21 0.48511 0.0
O53 O 0.15901 0.23967 0.4584 0.0
O54 O 0.1309 0.28155 0.50129 0.0
O55 O 0.14042 0.26902 0.4406 0.0
C56 C 0.11669 0.19546 0.48326 0.0
C57 C 0.15149 0.15905 0.56884 0.0
C58 C 0.1508 0.12222 0.59599 0.0
C59 C 0.13825 0.13997 0.58128 0.0
C60 C 0.17676 0.12379 0.59729 0.0
C61 C 0.1772 0.16028 0.57129 0.0
C62 C 0.18971 0.14268 0.58522 0.0
C63 C 0.10283 0.24615 0.53092 0.0
C64 C 0.13878 0.17736 0.55286 0.0
C65 C 0.25325 0.20579 0.53379 0.0
C66 C 0.24871 0.22653 0.54847 0.0
C67 C 0.14901 0.27013 0.51167 0.0
C68 C 0.11905 0.30126 0.41999 0.0
C69 C 0.13412 0.31028 0.40057 0.0
C70 C 0.12343 0.32014 0.37882 0.0
C71 C 0.09753 0.32097 0.37708 0.0
C72 C 0.0933 0.30245 0.41748 0.0
C73 C 0.08269 0.31218 0.39621 0.0
C74 C 0.17593 0.22315 0.46461 0.0
C75 C 0.13013 0.29061 0.44271 0.0
H76 H 0.11834 0.13921 0.57972 0.0
H77 H 0.18729 0.11021 0.60749 0.0
H78 H 0.18769 0.17482 0.56232 0.0
H79 H 0.20962 0.14364 0.58664 0.0
H80 H 0.15401 0.30937 0.40229 0.0
H81 H 0.08862 0.32887 0.36102 0.0
H82 H 0.08124 0.29606 0.43202 0.0
H83 H 0.0628 0.31307 0.39459 0.0
Eu84 Eu 0.01571 0.87739 0.73915 0.0
C85 C 0.09435 0.94296 0.75858 0.0
C86 C 0.13331 0.9289 0.74221 0.0
C87 C 0.1223 0.97217 0.73826 0.0
C88 C 0.11049 0.92389 0.7539 0.0
C89 C 0.10042 0.96745 0.75131 0.0
C90 C 0.13873 0.95292 0.73372 0.0
C91 C 0.06379 0.98127 0.77195 0.0
N92 N 0.07321 0.93781 0.7711 0.0
C93 C 0.05863 0.95681 0.77884 0.0
C94 C 0.08456 0.98659 0.75777 0.0
Eu95 Eu 0.06515 0.8954 0.78124 0.0
N96 N 0.10482 0.90086 0.76243 0.0
C97 C 0.12292 0.88327 0.76339 0.0
C98 C 0.15055 0.9099 0.74044 0.0
C99 C 0.14558 0.88717 0.75169 0.0
H100 H 0.04334 0.95368 0.79102 0.0
H101 H 0.15933 0.87276 0.75172 0.0
H102 H 0.15595 0.95697 0.72435 0.0
H103 H 0.05188 0.99607 0.77791 0.0
H104 H 0.11989 0.86597 0.77306 0.0
H105 H 0.94518 0.86316 0.80984 0.0
H106 H 0.16824 0.91301 0.73162 0.0
H107 H 0.02457 0.84194 0.68946 0.0
H108 H 0.97357 0.88722 0.7834 0.0
H109 H 0.01758 0.79854 0.67647 0.0
H110 H 0.12698 0.99077 0.73218 0.0
H111 H 0.94125 0.81784 0.80447 0.0
H112 H 0.95191 0.78005 0.77994 0.0
H113 H 0.08858 1.00559 0.75256 0.0
H114 H 0.97191 0.76226 0.74348 0.0
N115 N 0.98649 0.85591 0.76397 0.0
C116 C 0.97224 0.86752 0.78101 0.0
C117 C 0.95387 0.82834 0.7929 0.0
C118 C 0.96723 0.81682 0.7742 0.0
C119 C 0.95598 0.85392 0.79594 0.0
C120 C 0.98348 0.83135 0.75974 0.0
H121 H 0.99599 0.76916 0.70438 0.0
N122 N 1.00856 0.8365 0.72482 0.0
C123 C 0.01134 0.8046 0.69437 0.0
C124 C 0.99493 0.82129 0.73947 0.0
C125 C 0.01525 0.82909 0.70173 0.0
C126 C 0.99924 0.78806 0.71022 0.0
C127 C 0.99019 0.79651 0.73278 0.0
O128 O 1.00536 0.88671 0.70111 0.0
O129 O 0.04621 0.90497 0.74593 0.0
O130 O 0.0286 0.91258 0.79441 0.0
O131 O 1.00594 0.9131 0.75802 0.0
O132 O 0.04547 0.88836 0.71173 0.0
O133 O 0.97938 0.89246 0.73026 0.0
O134 O 0.07035 0.91469 0.81634 0.0
O135 O 0.02866 0.87544 0.77876 0.0
O136 O 0.04477 0.84769 0.73596 0.0
O137 O 0.07883 0.86394 0.75689 0.0
O138 O 0.05711 0.85665 0.79531 0.0
O139 O 0.08942 0.88063 0.80995 0.0
C140 C 0.05639 0.90498 0.72494 0.0
C141 C 0.96313 0.88228 0.69107 0.0
C142 C 0.93495 0.88533 0.65575 0.0
C143 C 0.95427 0.8953 0.67027 0.0
C144 C 0.92514 0.86195 0.66217 0.0
C145 C 0.9528 0.85914 0.69708 0.0
C146 C 0.93403 0.84902 0.68263 0.0
C147 C 0.00984 0.92065 0.78076 0.0
C148 C 0.98294 0.89293 0.70656 0.0
C149 C 0.97545 0.78146 0.74809 0.0
C150 C 0.96402 0.79159 0.76883 0.0
C151 C 0.0338 0.85577 0.79062 0.0
C152 C 0.11151 0.9111 0.83208 0.0
C153 C 0.13009 0.89631 0.843 0.0
C154 C 0.15331 0.90666 0.84942 0.0
C155 C 0.15731 0.93211 0.8452 0.0
C156 C 0.11636 0.93638 0.82794 0.0
C157 C 0.13902 0.94675 0.83459 0.0
C158 C 0.06821 0.84719 0.74257 0.0
C159 C 0.0877 0.8999 0.82398 0.0
H160 H 0.96204 0.9133 0.66573 0.0
H161 H 0.91066 0.8535 0.65123 0.0
H162 H 0.95913 0.84893 0.71303 0.0
H163 H 0.92626 0.83109 0.68736 0.0
H164 H 0.12668 0.87671 0.84589 0.0
H165 H 0.17462 0.94085 0.85029 0.0
H166 H 0.10272 0.9482 0.8194 0.0
H167 H 0.14249 0.96627 0.83139 0.0
Eu168 Eu 0.39804 0.75875 0.97898 0.0
C169 C 0.32066 0.83406 0.01355 0.0
C170 C 0.32384 0.86493 0.98118 0.0
C171 C 0.28483 0.85858 1.00231 0.0
C172 C 0.33454 0.84618 0.99586 0.0
C173 C 0.29577 0.84053 0.01738 0.0
C174 C 0.29887 0.87081 0.98429 0.0
C175 C 0.29515 0.81317 0.05267 0.0
N176 N 0.33193 0.81715 0.02817 0.0
C177 C 0.31992 0.80768 0.04836 0.0
C178 C 0.28289 0.8294 0.03687 0.0
Eu179 Eu 0.37416 0.80857 0.02013 0.0
N180 N 0.35866 0.84009 0.99336 0.0
C181 C 0.37332 0.85298 0.97716 0.0
C182 C 0.33862 0.87752 0.96408 0.0
C183 C 0.36353 0.87166 0.96223 0.0
H184 H 0.32947 0.79553 0.06103 0.0
H185 H 0.37521 0.88144 0.94921 0.0
H186 H 0.29032 0.88502 0.97308 0.0
H187 H 0.28563 0.80509 0.06831 0.0
H188 H 0.39255 0.84883 0.9751 0.0
H189 H 0.41619 0.68249 0.04329 0.0
H190 H 0.33107 0.89196 0.95244 0.0
H191 H 0.43189 0.77283 0.92911 0.0
H192 H 0.39058 0.71164 0.01985 0.0
H193 H 0.47505 0.76917 0.91473 0.0
H194 H 0.2657 0.86364 1.00483 0.0
H195 H 0.4614 0.68209 0.03721 0.0
H196 H 0.49817 0.69728 0.01328 0.0
H197 H 0.26377 0.83387 0.0404 0.0
H198 H 0.51437 0.72104 0.97792 0.0
N199 N 0.42099 0.72876 1.00135 0.0
C200 C 0.41025 0.71189 0.01695 0.0
C201 C 0.45024 0.69516 0.02699 0.0
C202 C 0.46087 0.71095 1.00939 0.0
C203 C 0.42473 0.69521 0.03034 0.0
C204 C 0.44549 0.72754 0.99648 0.0
H205 H 0.50572 0.74737 0.94057 0.0
N206 N 0.43859 0.75448 0.96319 0.0
C207 C 0.46962 0.76131 0.9323 0.0
C208 C 0.45461 0.74085 0.97668 0.0
C209 C 0.44524 0.76327 0.94043 0.0
C210 C 0.4869 0.7491 0.947 0.0
C211 C 0.47932 0.73802 0.96915 0.0
O212 O 0.38922 0.74959 0.94056 0.0
O213 O 0.36977 0.78805 0.98495 0.0
O214 O 0.34704 0.77574 0.02322 0.0
O215 O 0.36639 0.74374 1.00165 0.0
O216 O 0.38423 0.78607 0.94998 0.0
O217 O 0.38196 0.72275 0.96903 0.0
O218 O 0.37305 0.82233 0.05805 0.0
O219 O 0.40096 0.77685 0.0169 0.0
O220 O 0.42666 0.78923 0.97732 0.0
O221 O 0.4107 0.82058 1.00213 0.0
O222 O 0.38199 0.78141 0.05019 0.0
O223 O 0.39665 0.84049 0.03164 0.0
C224 C 0.36796 0.79676 0.96346 0.0
C225 C 0.39115 0.70741 0.92907 0.0
C226 C 0.38635 0.67996 0.89321 0.0
C227 C 0.37746 0.69931 0.90827 0.0
C228 C 0.40929 0.66941 0.89914 0.0
C229 C 0.41393 0.69645 0.9343 0.0
C230 C 0.42291 0.67764 0.91939 0.0
C231 C 0.34859 0.75243 0.01567 0.0
C232 C 0.38176 0.72716 0.94538 0.0
C233 C 0.49523 0.72313 0.98317 0.0
C234 C 0.486 0.70961 1.0033 0.0
C235 C 0.39799 0.76818 0.03876 0.0
C236 C 0.37885 0.86585 0.06223 0.0
C237 C 0.39526 0.88337 0.07286 0.0
C238 C 0.38676 0.90712 0.07961 0.0
C239 C 0.36178 0.91285 0.07584 0.0
C240 C 0.354 0.87222 0.05906 0.0
C241 C 0.34557 0.8955 0.06577 0.0
C242 C 0.42757 0.81159 0.98697 0.0
C243 C 0.38753 0.84127 0.0538 0.0
H244 H 0.35982 0.70768 0.90413 0.0
H245 H 0.41689 0.65483 0.88789 0.0
H246 H 0.42475 0.70238 0.95001 0.0
H247 H 0.44054 0.66933 0.92359 0.0
H248 H 0.41451 0.87873 0.07545 0.0
H249 H 0.35467 0.93077 0.08101 0.0
H250 H 0.34096 0.85922 0.05143 0.0
H251 H 0.32635 0.90012 0.06315 0.0
Eu252 Eu 0.51941 0.15285 0.226 0.0
C253 C 0.45973 0.06162 0.27022 0.0
C254 C 0.42821 0.05291 0.2399 0.0
C255 C 0.44305 0.01987 0.26645 0.0
C256 C 0.44487 0.06952 0.25123 0.0
C257 C 0.45858 0.03685 0.27854 0.0
C258 C 0.42783 0.02791 0.24718 0.0
C259 C 0.48568 0.04827 0.31202 0.0
N260 N 0.47387 0.07867 0.28189 0.0
C261 C 0.48585 0.07266 0.30324 0.0
C262 C 0.47226 0.03017 0.29939 0.0
Eu263 Eu 0.47401 0.11974 0.26622 0.0
N264 N 0.44572 0.0938 0.24474 0.0
C265 C 0.42917 0.10298 0.22809 0.0
C266 C 0.4119 0.06207 0.22217 0.0
C267 C 0.41226 0.08727 0.21639 0.0
H268 H 0.49601 0.08669 0.31322 0.0
H269 H 0.39947 0.09463 0.20294 0.0
H270 H 0.41538 0.01482 0.23847 0.0
H271 H 0.49575 0.04349 0.32858 0.0
H272 H 0.42908 0.12239 0.22341 0.0
H273 H 0.59501 0.18823 0.28285 0.0
H274 H 0.39863 0.04995 0.21328 0.0
H275 H 0.48887 0.18149 0.18036 0.0
H276 H 0.56827 0.15632 0.26425 0.0
H277 H 0.48382 0.22375 0.16356 0.0
H278 H 0.44207 1.0007 0.2724 0.0
H279 H 0.58942 0.23233 0.27184 0.0
H280 H 0.56796 0.26416 0.24575 0.0
H281 H 0.47189 0.01133 0.30636 0.0
H282 H 0.53801 0.27378 0.21301 0.0
N283 N 0.54674 0.1821 0.2439 0.0
C284 C 0.5654 0.17549 0.25945 0.0
C285 C 0.57746 0.2184 0.26376 0.0
C286 C 0.55942 0.22488 0.24647 0.0
C287 C 0.58071 0.19353 0.26997 0.0
C288 C 0.54427 0.20603 0.2366 0.0
H289 H 0.50682 0.2588 0.18203 0.0
N290 N 0.5141 0.19263 0.2083 0.0
C291 C 0.49614 0.22055 0.17894 0.0
C292 C 0.52758 0.21144 0.21808 0.0
C293 C 0.49909 0.19664 0.18845 0.0
C294 C 0.50912 0.2403 0.18945 0.0
C295 C 0.52532 0.23585 0.20907 0.0
O296 O 0.5295 0.14463 0.1879 0.0
O297 O 0.49363 0.12038 0.23023 0.0
O298 O 0.50926 0.09628 0.26509 0.0
O299 O 0.5386 0.12496 0.25032 0.0
O300 O 0.49281 0.13827 0.19672 0.0
O301 O 0.55698 0.14197 0.21669 0.0
O302 O 0.46005 0.124 0.30372 0.0
O303 O 0.50262 0.14943 0.26355 0.0
O304 O 0.48918 0.17935 0.23575 0.0
O305 O 0.45746 0.15089 0.24213 0.0
O306 O 0.49824 0.13245 0.29766 0.0
O307 O 0.43885 0.13805 0.27307 0.0
C308 C 0.48433 0.11955 0.20896 0.0
C309 C 0.57092 0.15171 0.17634 0.0
C310 C 0.59726 0.14858 0.13983 0.0
C311 C 0.57959 0.13819 0.15603 0.0
C312 C 0.60589 0.1728 0.14429 0.0
C313 C 0.57977 0.17582 0.18032 0.0
C314 C 0.59717 0.18626 0.16434 0.0
C315 C 0.53242 0.10342 0.26043 0.0
C316 C 0.55257 0.14048 0.19309 0.0
C317 C 0.53961 0.25487 0.21956 0.0
C318 C 0.55663 0.2494 0.23823 0.0
C319 C 0.51039 0.14917 0.28566 0.0
C320 C 0.41659 0.12344 0.30747 0.0
C321 C 0.39841 0.13921 0.31692 0.0
C322 C 0.37629 0.12938 0.32674 0.0
C323 C 0.3728 0.10351 0.32698 0.0
C324 C 0.41262 0.09776 0.30789 0.0
C325 C 0.39084 0.08789 0.3176 0.0
C326 C 0.46551 0.17374 0.23735 0.0
C327 C 0.43933 0.13393 0.29672 0.0
H328 H 0.57281 0.11951 0.15307 0.0
H329 H 0.61915 0.18154 0.13204 0.0
H330 H 0.57325 0.18653 0.19575 0.0
H331 H 0.60389 0.20491 0.16748 0.0
H332 H 0.40137 0.15908 0.31632 0.0
H333 H 0.35626 0.09528 0.33477 0.0
H334 H 0.42634 0.08532 0.30077 0.0
H335 H 0.38797 0.06804 0.31794 0.0
Eu336 Eu 0.63381 0.25816 0.54601 0.0
C337 C 0.70957 0.32406 0.50638 0.0
C338 C 0.70889 0.36051 0.53227 0.0
C339 C 0.74785 0.34604 0.51618 0.0
C340 C 0.69639 0.34067 0.52055 0.0
C341 C 0.73545 0.32692 0.50382 0.0
C342 C 0.73458 0.36292 0.53017 0.0
C343 C 0.73492 0.29397 0.47422 0.0
N344 N 0.69716 0.30594 0.49415 0.0
C345 C 0.70936 0.29218 0.47688 0.0
C346 C 0.74811 0.31109 0.48811 0.0
Eu347 Eu 0.65346 0.30399 0.50017 0.0
N348 N 0.67147 0.33785 0.52254 0.0
C349 C 0.65819 0.35506 0.53528 0.0
C350 C 0.6952 0.37769 0.5455 0.0
C351 C 0.66978 0.37492 0.54701 0.0
H352 H 0.69963 0.28003 0.46444 0.0
H353 H 0.65896 0.38827 0.55703 0.0
H354 H 0.74438 0.37801 0.53902 0.0
H355 H 0.74435 0.28252 0.46096 0.0
H356 H 0.63858 0.35428 0.53655 0.0
H357 H 0.60861 0.18422 0.48243 0.0
H358 H 0.70402 0.39338 0.55433 0.0
H359 H 0.60264 0.27678 0.59594 0.0
H360 H 0.63679 0.2127 0.50434 0.0
H361 H 0.56016 0.27426 0.61273 0.0
H362 H 0.76765 0.34837 0.51445 0.0
H363 H 0.56398 0.18414 0.49201 0.0
H364 H 0.52947 0.19946 0.51868 0.0
H365 H 0.76791 0.31272 0.48572 0.0
H366 H 0.51626 0.22392 0.55437 0.0
N367 N 0.60835 0.2292 0.52534 0.0
C368 C 0.61739 0.21288 0.50859 0.0
C369 C 0.57626 0.19677 0.50157 0.0
C370 C 0.56742 0.21239 0.52001 0.0
C371 C 0.60145 0.19668 0.49619 0.0
C372 C 0.58418 0.22855 0.5318 0.0
H373 H 0.52771 0.2514 0.58994 0.0
N374 N 0.59373 0.25661 0.56355 0.0
C375 C 0.5645 0.26544 0.59544 0.0
C376 C 0.57664 0.24256 0.55164 0.0
C377 C 0.58846 0.26682 0.58595 0.0
C378 C 0.54622 0.25256 0.58248 0.0
C379 C 0.55229 0.24045 0.56058 0.0
O380 O 0.64582 0.24999 0.58383 0.0
O381 O 0.66275 0.28696 0.5368 0.0
O382 O 0.66863 0.26547 0.4897 0.0
O383 O 0.66712 0.24307 0.5263 0.0
O384 O 0.6464 0.28902 0.57127 0.0
O385 O 0.64401 0.22059 0.55755 0.0
O386 O 0.65813 0.30477 0.46018 0.0
O387 O 0.63233 0.2684 0.50553 0.0
O388 O 0.60425 0.28752 0.54467 0.0
O389 O 0.62051 0.32017 0.52124 0.0
O390 O 0.61452 0.29654 0.48716 0.0
O391 O 0.64553 0.33808 0.47894 0.0
C392 C 0.66346 0.29813 0.55726 0.0
C393 C 0.63591 0.21015 0.59938 0.0
C394 C 0.6377 0.18554 0.63779 0.0
C395 C 0.64959 0.19991 0.61917 0.0
C396 C 0.61183 0.18257 0.63631 0.0
C397 C 0.61053 0.20538 0.59797 0.0
C398 C 0.59856 0.19204 0.61645 0.0
C399 C 0.67528 0.24624 0.50362 0.0
C400 C 0.6478 0.22628 0.58053 0.0
C401 C 0.53515 0.2255 0.54801 0.0
C402 C 0.54268 0.21155 0.5277 0.0
C403 C 0.61296 0.27351 0.49333 0.0
C404 C 0.65029 0.34079 0.43382 0.0
C405 C 0.63971 0.3646 0.43081 0.0
C406 C 0.63999 0.37656 0.40746 0.0
C407 C 0.65056 0.36422 0.38737 0.0
C408 C 0.66055 0.32912 0.4132 0.0
C409 C 0.66063 0.34075 0.39024 0.0
C410 C 0.60341 0.31039 0.536 0.0
C411 C 0.65123 0.32777 0.45808 0.0
H412 H 0.66935 0.20293 0.61977 0.0
H413 H 0.60154 0.17298 0.65056 0.0
H414 H 0.59984 0.21207 0.58264 0.0
H415 H 0.5788 0.18909 0.61542 0.0
H416 H 0.63169 0.37389 0.44648 0.0
H417 H 0.65081 0.3727 0.36923 0.0
H418 H 0.66874 0.31095 0.41481 0.0
H419 H 0.66862 0.33151 0.37454 0.0
Eu420 Eu 0.9692 0.40677 0.75584 0.0
C421 C 1.00549 0.32789 0.82077 0.0
C422 C 0.97493 0.32548 0.8533 0.0
C423 C 0.99329 0.28781 0.838 0.0
C424 C 0.98898 0.33955 0.83619 0.0
C425 C 1.0084 0.30191 0.82221 0.0
C426 C 0.97664 0.29958 0.85357 0.0
C427 C 0.04371 0.30585 0.79557 0.0
N428 N 0.02024 0.34202 0.80603 0.0
C429 C 0.04039 0.33146 0.79508 0.0
C430 C 0.02725 0.29092 0.80869 0.0
Eu431 Eu 0.01141 0.38549 0.80447 0.0
N432 N 0.98744 0.36465 0.83538 0.0
C433 C 0.97409 0.37672 0.85295 0.0
C434 C 0.95999 0.33784 0.87008 0.0
C435 C 0.95995 0.36359 0.8702 0.0
H436 H 0.05406 0.34272 0.78569 0.0
H437 H 0.94912 0.37339 0.88368 0.0
H438 H 0.96567 0.28854 0.86626 0.0
H439 H 0.05919 0.29771 0.78611 0.0
H440 H 0.97429 0.39648 0.85427 0.0
H441 H 0.03636 0.4276 0.68378 0.0
H442 H 0.949 0.32771 0.88348 0.0
H443 H 0.92082 0.44027 0.77385 0.0
H444 H 0.01289 0.40098 0.71277 0.0
H445 H 0.90545 0.48319 0.7696 0.0
H446 H 0.99504 0.26786 0.83901 0.0
H447 H 0.02738 0.47238 0.68101 0.0
H448 H 1.00087 0.50809 0.69384 0.0
H449 H 0.03005 0.27109 0.80932 0.0
H450 H 0.96515 0.52323 0.71715 0.0
N451 N 0.99159 0.43055 0.72678 0.0
C452 C 0.00889 0.42049 0.7117 0.0
C453 C 0.01713 0.4608 0.69383 0.0
C454 C 0.99829 0.47067 0.70832 0.0
C455 C 0.02219 0.43552 0.69526 0.0
C456 C 0.98561 0.45482 0.72479 0.0
H457 H 0.92917 0.51397 0.74511 0.0
N458 N 0.9532 0.44727 0.75282 0.0
C459 C 0.9225 0.47792 0.7608 0.0
C460 C 0.96568 0.46343 0.73808 0.0
C461 C 0.93119 0.45371 0.76316 0.0
C462 C 0.93599 0.49526 0.747 0.0
C463 C 0.95762 0.488 0.73504 0.0
O464 O 0.93126 0.39532 0.74714 0.0
O465 O 0.97537 0.37879 0.78572 0.0
O466 O 0.0227 0.3674 0.7678 0.0
O467 O 0.9884 0.37255 0.74247 0.0
O468 O 0.9413 0.39553 0.78526 0.0
O469 O 0.95854 0.39546 0.71848 0.0
O470 O 0.05018 0.38079 0.81493 0.0
O471 O 0.00929 0.40537 0.7678 0.0
O472 O 0.9732 0.43756 0.78371 0.0
O473 O 0.98612 0.41615 0.81864 0.0
O474 O 0.02974 0.42206 0.79465 0.0
O475 O 0.0259 0.40177 0.83835 0.0
C476 C 0.95428 0.37841 0.79554 0.0
C477 C 0.9168 0.40221 0.70657 0.0
C478 C 0.87869 0.39776 0.6823 0.0
C479 C 0.89716 0.38734 0.69752 0.0
C480 C 0.88034 0.42301 0.67614 0.0
C481 C 0.91806 0.42727 0.69973 0.0
C482 C 0.89995 0.43755 0.68464 0.0
C483 C 0.00937 0.36161 0.74801 0.0
C484 C 0.93534 0.39188 0.72381 0.0
C485 C 0.97088 0.50419 0.71952 0.0
C486 C 0.99122 0.49557 0.70624 0.0
C487 C 0.02357 0.42367 0.77186 0.0
C488 C 0.0577 0.37993 0.85833 0.0
C489 C 0.06712 0.39432 0.87792 0.0
C490 C 0.07529 0.38292 0.89994 0.0
C491 C 0.07418 0.35695 0.90183 0.0
C492 C 0.05685 0.35407 0.86084 0.0
C493 C 0.06509 0.34271 0.88242 0.0
C494 C 0.97686 0.43604 0.8077 0.0
C495 C 0.04772 0.39213 0.83599 0.0
H496 H 0.89597 0.36796 0.70269 0.0
H497 H 0.86647 0.43148 0.66449 0.0
H498 H 0.933 0.43894 0.70615 0.0
H499 H 0.90105 0.45695 0.6796 0.0
H500 H 0.06758 0.41432 0.87622 0.0
H501 H 0.08064 0.34756 0.91828 0.0
H502 H 0.04973 0.34257 0.84622 0.0
H503 H 0.06438 0.32274 0.88414 0.0
Eu504 Eu 0.89164 0.77283 0.05657 0.0
C505 C 0.80699 0.70654 0.02124 0.0
C506 C 0.80862 0.67397 0.05201 0.0
C507 C 0.76949 0.68428 0.03293 0.0
C508 C 0.82044 0.69255 0.03775 0.0
C509 C 0.7814 0.70224 0.01832 0.0
C510 C 0.78309 0.67012 0.04968 0.0
C511 C 0.7816 0.73188 0.98493 0.0
N512 N 0.81909 0.72345 1.00709 0.0
C513 C 0.80698 0.73521 0.98829 0.0
C514 C 0.76867 0.71557 1.00025 0.0
Eu515 Eu 0.86229 0.72848 0.01359 0.0
N516 N 0.84511 0.69684 0.03968 0.0
C517 C 0.85906 0.68231 0.05498 0.0
C518 C 0.8228 0.6596 0.06803 0.0
C519 C 0.84815 0.66369 0.06937 0.0
H520 H 0.81695 0.74725 0.97572 0.0
H521 H 0.85935 0.65259 0.08164 0.0
H522 H 0.77372 0.65606 0.0606 0.0
H523 H 0.77212 0.74167 0.97032 0.0
H524 H 0.87859 0.68501 0.05683 0.0
H525 H 0.9259 0.84582 0.99486 0.0
H526 H 0.81439 0.64523 0.0793 0.0
H527 H 0.91964 0.75247 0.10781 0.0
H528 H 0.89441 0.82064 0.01623 0.0
H529 H 0.9619 0.7496 0.12499 0.0
H530 H 0.74984 0.68086 0.03107 0.0
H531 H 0.97017 0.83934 1.00369 0.0
H532 H 1.00245 0.81886 0.02989 0.0
H533 H 0.74904 0.7128 0.99746 0.0
H534 H 0.01234 0.7926 0.06571 0.0
N535 N 0.9205 0.7991 0.03619 0.0
C536 C 0.91362 0.8175 0.02031 0.0
C537 C 0.9564 0.82809 0.01306 0.0
C538 C 0.96321 0.81082 0.03107 0.0
C539 C 0.93144 0.83189 1.00812 0.0
C540 C 0.94455 0.7966 0.04266 0.0
H541 H 0.99723 0.76724 0.10177 0.0
N542 N 0.93132 0.77046 0.07485 0.0
C543 C 0.95889 0.75853 0.10736 0.0
C544 C 0.95015 0.78186 0.06275 0.0
C545 C 0.93504 0.76025 0.09767 0.0
C546 C 0.9788 0.76841 0.09413 0.0
C547 C 0.97449 0.78087 0.07187 0.0
O548 O 0.88089 0.78231 0.09424 0.0
O549 O 0.85905 0.7478 0.04965 0.0
O550 O 0.84082 0.76514 1.0097 0.0
O551 O 0.86337 0.79314 0.03383 0.0
O552 O 0.87463 0.74594 0.08435 0.0
O553 O 0.88404 0.81117 0.0669 0.0
O554 O 0.85547 0.71465 0.97627 0.0
O555 O 0.8931 0.75631 0.01805 0.0
O556 O 0.91672 0.73992 0.05686 0.0
O557 O 0.89797 0.71197 0.02975 0.0
O558 O 0.87326 0.75635 0.98493 0.0
O559 O 0.88415 0.69831 0.99825 0.0
C560 C 0.85666 0.73815 0.0708 0.0
C561 C 0.89368 0.82152 0.10831 0.0
C562 C 0.89467 0.84272 0.14814 0.0
C563 C 0.88169 0.82919 0.13001 0.0
C564 C 0.91968 0.8486 0.14406 0.0
C565 C 0.91857 0.82784 0.10467 0.0
C566 C 0.93144 0.84129 0.12246 0.0
C567 C 0.84521 0.78775 0.01848 0.0
C568 C 0.88049 0.80603 0.09013 0.0
C569 C 0.99345 0.79343 0.05922 0.0
C570 C 0.98782 0.80838 0.03881 0.0
C571 C 0.89142 0.76642 0.99673 0.0
C572 C 0.8632 0.67178 0.97074 0.0
C573 C 0.87894 0.65587 0.95755 0.0
C574 C 0.87135 0.63141 0.95197 0.0
C575 C 0.84778 0.62335 0.95954 0.0
C576 C 0.83978 0.66317 0.97786 0.0
C577 C 0.83216 0.63914 0.97229 0.0
C578 C 0.91564 0.71843 0.04553 0.0
C579 C 0.87155 0.69691 0.97789 0.0
H580 H 0.8625 0.82423 0.13298 0.0
H581 H 0.93008 0.85918 0.15748 0.0
H582 H 0.9281 0.82232 0.08813 0.0
H583 H 0.95066 0.84605 0.1195 0.0
H584 H 0.89712 0.66232 0.9521 0.0
H585 H 0.84128 0.60484 0.95529 0.0
H586 H 0.82733 0.67497 0.98778 0.0
H587 H 0.81403 0.63272 0.9779 0.0
Eu588 Eu 0.50281 0.63965 0.30166 0.0
C589 C 0.57431 0.56179 0.26487 0.0
C590 C 0.60692 0.56687 0.29501 0.0
C591 C 0.5996 0.52658 0.27673 0.0
C592 C 0.58744 0.5768 0.28079 0.0
C593 C 0.58048 0.53655 0.26243 0.0
C594 C 0.61275 0.54169 0.29303 0.0
C595 C 0.54966 0.53312 0.23055 0.0
N596 N 0.55586 0.5719 0.25136 0.0
C597 C 0.54438 0.5582 0.23346 0.0
C598 C 0.56757 0.52214 0.24533 0.0
Eu599 Eu 0.54812 0.61489 0.25669 0.0
N600 N 0.5811 0.60101 0.28259 0.0
C601 C 0.59427 0.61638 0.29779 0.0
C602 C 0.62002 0.5825 0.31081 0.0
C603 C 0.61373 0.60739 0.3121 0.0
H604 H 0.53114 0.56664 0.22115 0.0
H605 H 0.62379 0.6197 0.32424 0.0
H606 H 0.62749 0.53376 0.30393 0.0
H607 H 0.54011 0.52236 0.21668 0.0
H608 H 0.58992 0.63559 0.29952 0.0
H609 H 0.42771 0.6714 0.24214 0.0
H610 H 0.63502 0.57557 0.32204 0.0
H611 H 0.52263 0.66768 0.35306 0.0
H612 H 0.45411 0.64071 0.26271 0.0
H613 H 0.52426 0.70981 0.3708 0.0
H614 H 0.60447 0.50724 0.27518 0.0
H615 H 0.43289 0.71595 0.25127 0.0
H616 H 0.45262 0.74887 0.27748 0.0
H617 H 0.57176 0.50272 0.24295 0.0
H618 H 0.47894 0.75942 0.31296 0.0
N619 N 0.47505 0.66759 0.2825 0.0
C620 C 0.45669 0.66004 0.26692 0.0
C621 C 0.44467 0.70255 0.26029 0.0
C622 C 0.4619 0.70991 0.27806 0.0
C623 C 0.4416 0.67742 0.25519 0.0
C624 C 0.47683 0.6917 0.28917 0.0
H625 H 0.50518 0.74482 0.34838 0.0
N626 N 0.50371 0.67911 0.32065 0.0
C627 C 0.51518 0.7067 0.3533 0.0
C628 C 0.4916 0.69766 0.30902 0.0
C629 C 0.51412 0.6829 0.34331 0.0
C630 C 0.5045 0.72643 0.34053 0.0
C631 C 0.49192 0.72193 0.31844 0.0
O632 O 0.4943 0.62831 0.33972 0.0
O633 O 0.52913 0.60904 0.2928 0.0
O634 O 0.51269 0.59097 0.25333 0.0
O635 O 0.48373 0.61114 0.27805 0.0
O636 O 0.53055 0.62278 0.32823 0.0
O637 O 0.4656 0.62743 0.31253 0.0
O638 O 0.55772 0.60897 0.21843 0.0
O639 O 0.51883 0.64381 0.26278 0.0
O640 O 0.53521 0.66611 0.30239 0.0
O641 O 0.56183 0.65247 0.27139 0.0
O642 O 0.5197 0.62536 0.22891 0.0
O643 O 0.58042 0.63463 0.23966 0.0
C644 C 0.53899 0.6061 0.31369 0.0
C645 C 0.45356 0.63507 0.35403 0.0
C646 C 0.42706 0.63129 0.39096 0.0
C647 C 0.44395 0.62079 0.37399 0.0
C648 C 0.42067 0.65633 0.38774 0.0
C649 C 0.44649 0.65985 0.3515 0.0
C650 C 0.43028 0.67037 0.36828 0.0
C651 C 0.48997 0.59383 0.26221 0.0
C652 C 0.47093 0.62441 0.33579 0.0
C653 C 0.47863 0.74056 0.30625 0.0
C654 C 0.46365 0.73456 0.28604 0.0
C655 C 0.50868 0.64216 0.24148 0.0
C656 C 0.59155 0.628 0.19554 0.0
C657 C 0.61409 0.6418 0.19471 0.0
C658 C 0.6268 0.64516 0.17195 0.0
C659 C 0.61692 0.63436 0.15059 0.0
C660 C 0.58254 0.61755 0.17357 0.0
C661 C 0.59511 0.62068 0.15143 0.0
C662 C 0.55548 0.66816 0.28904 0.0
C663 C 0.57667 0.62392 0.21849 0.0
H664 H 0.44924 0.60159 0.37602 0.0
H665 H 0.40833 0.66528 0.40052 0.0
H666 H 0.45348 0.67112 0.33648 0.0
H667 H 0.42509 0.68957 0.36618 0.0
H668 H 0.62145 0.65003 0.21135 0.0
H669 H 0.62627 0.63644 0.13304 0.0
H670 H 0.56552 0.60689 0.17335 0.0
H671 H 0.58783 0.61247 0.13476 0.0
Eu672 Eu 0.21285 0.51184 0.14863 0.0
C673 C 0.26134 0.44778 0.06524 0.0
C674 C 0.23218 0.41451 0.05785 0.0
C675 C 0.26071 0.42711 0.02553 0.0
C676 C 0.24203 0.43305 0.07328 0.0
C677 C 0.27119 0.44473 0.04139 0.0
C678 C 0.24145 0.41181 0.03386 0.0
C679 C 0.30358 0.47369 0.05207 0.0
N680 N 0.27213 0.4633 0.08161 0.0
C681 C 0.29364 0.47539 0.07574 0.0
C682 C 0.29215 0.45847 0.03471 0.0
Eu683 Eu 0.25506 0.46495 0.12181 0.0
N684 N 0.2342 0.43551 0.09686 0.0
C685 C 0.21704 0.41945 0.10639 0.0
C686 C 0.21391 0.39865 0.06726 0.0
C687 C 0.20634 0.40113 0.09166 0.0
H688 H 0.30288 0.48674 0.0893 0.0
H689 H 0.19246 0.38875 0.09923 0.0
H690 H 0.23416 0.39763 0.02176 0.0
H691 H 0.32026 0.48381 0.04737 0.0
H692 H 0.21128 0.42078 0.12532 0.0
H693 H 0.26983 0.58908 0.1809 0.0
H694 H 0.20587 0.38417 0.056 0.0
H695 H 0.16539 0.48352 0.17693 0.0
H696 H 0.25189 0.56066 0.15027 0.0
H697 H 0.14669 0.48118 0.21843 0.0
H698 H 0.26799 0.42449 1.00716 0.0
H699 H 0.25691 0.58626 0.22453 0.0
H700 H 0.22893 0.56707 0.25637 0.0
H701 H 0.30021 0.45672 0.01654 0.0
H702 H 0.19511 0.53808 0.26649 0.0
N703 N 0.23004 0.54088 0.17644 0.0
C704 C 0.24624 0.559 0.16926 0.0
C705 C 0.24911 0.57356 0.21118 0.0
C706 C 0.23112 0.55612 0.21808 0.0
C707 C 0.25641 0.57525 0.18657 0.0
C708 C 0.22169 0.53994 0.2 0.0
H709 H 0.16411 0.50623 0.25239 0.0
N710 N 0.19331 0.50922 0.18754 0.0
C711 C 0.16242 0.49321 0.2151 0.0
C712 C 0.20257 0.52378 0.20568 0.0
C713 C 0.17299 0.49462 0.19163 0.0
C714 C 0.17234 0.50734 0.23424 0.0
C715 C 0.19247 0.52311 0.2296 0.0
O716 O 0.1748 0.52144 0.13901 0.0
O717 O 0.21907 0.48414 0.11882 0.0
O718 O 0.25515 0.49877 0.09591 0.0
O719 O 0.23794 0.52991 0.12044 0.0
O720 O 0.18456 0.48383 0.13419 0.0
O721 O 0.20398 0.54843 0.13372 0.0
O722 O 0.29263 0.45214 0.12923 0.0
O723 O 0.25064 0.49491 0.14963 0.0
O724 O 0.22073 0.48326 0.17791 0.0
O725 O 0.23024 0.44969 0.15316 0.0
O726 O 0.28524 0.4911 0.13362 0.0
O727 O 0.26176 0.42968 0.1408 0.0
C728 C 0.19799 0.47442 0.11712 0.0
C729 C 0.16382 0.56368 0.14179 0.0
C730 C 0.12877 0.59171 0.13576 0.0
C731 C 0.14411 0.57252 0.12716 0.0
C732 C 0.13334 0.60147 0.15934 0.0
C733 C 0.16781 0.57381 0.16519 0.0
C734 C 0.15263 0.59254 0.17388 0.0
C735 C 0.24981 0.52229 0.10064 0.0
C736 C 0.18026 0.5441 0.13253 0.0
C737 C 0.20248 0.53845 0.24794 0.0
C738 C 0.22177 0.55493 0.24219 0.0
C739 C 0.27246 0.50376 0.14896 0.0
C740 C 0.29788 0.40865 0.12889 0.0
C741 C 0.3101 0.39178 0.14465 0.0
C742 C 0.32194 0.37075 0.13482 0.0
C743 C 0.32075 0.3667 0.10925 0.0
C744 C 0.29734 0.40408 0.10351 0.0
C745 C 0.30855 0.38323 0.09379 0.0
C746 C 0.22341 0.45925 0.17461 0.0
C747 C 0.28567 0.43096 0.13865 0.0
H748 H 0.14102 0.5648 0.10902 0.0
H749 H 0.12177 0.61589 0.16672 0.0
H750 H 0.18272 0.56729 0.17672 0.0
H751 H 0.15583 0.60021 0.19199 0.0
H752 H 0.31075 0.39522 0.16429 0.0
H753 H 0.32915 0.35055 0.10114 0.0
H754 H 0.2883 0.41667 0.09112 0.0
H755 H 0.30784 0.3799 0.07415 0.0
Eu756 Eu 0.76835 0.06527 0.89784 0.0
C757 C 0.70025 0.02837 0.81543 0.0
C758 C 0.66922 0.06032 0.81573 0.0
C759 C 0.67945 0.03999 0.77734 0.0
C760 C 0.68692 0.04577 0.82813 0.0
C761 C 0.69621 0.02483 0.78998 0.0
C762 C 0.66596 0.0577 0.79021 0.0
C763 C 0.72344 0.98977 0.79188 0.0
N764 N 0.71606 0.01385 0.82822 0.0
C765 C 0.7266 0.99387 0.8171 0.0
C766 C 0.70849 1.00559 0.77815 0.0
Eu767 Eu 0.72136 0.02208 0.87096 0.0
N768 N 0.69079 0.04806 0.85274 0.0
C769 C 0.67642 0.06369 0.86621 0.0
C770 C 0.65505 0.07679 0.82938 0.0
C771 C 0.65848 0.07826 0.85478 0.0
H772 H 0.73779 0.98117 0.8277 0.0
H773 H 0.64746 0.0908 0.86558 0.0
H774 H 0.65273 0.06897 0.78034 0.0
H775 H 0.73236 0.97429 0.78311 0.0
H776 H 0.67873 0.06551 0.88578 0.0
H777 H 0.84109 1.00374 0.93092 0.0
H778 H 0.64127 0.08825 0.82055 0.0
H779 H 0.74988 0.11733 0.92533 0.0
H780 H 0.81557 0.02492 0.89989 0.0
H781 H 0.74836 0.13521 0.96723 0.0
H782 H 0.67634 0.03776 0.75775 0.0
H783 H 0.83587 0.01314 0.97515 0.0
H784 H 0.81674 0.03998 1.00752 0.0
H785 H 0.70588 1.00227 0.75864 0.0
H786 H 0.79148 0.07623 0.01748 0.0
N787 N 0.79503 0.04526 0.92624 0.0
C788 C 0.81296 0.02921 0.91908 0.0
C789 C 0.82446 0.0224 0.9616 0.0
C790 C 0.80774 0.04065 0.96859 0.0
C791 C 0.82754 0.01714 0.93665 0.0
C792 C 0.79331 0.05209 0.95018 0.0
H793 H 0.76644 0.11234 1.00243 0.0
N794 N 0.76765 0.08438 0.93709 0.0
C795 C 0.75693 0.11745 0.96431 0.0
C796 C 0.77921 0.07244 0.9558 0.0
C797 C 0.75791 0.10737 0.94066 0.0
C798 C 0.76705 0.10442 0.98415 0.0
C799 C 0.77898 0.08195 0.97993 0.0
O800 O 0.77881 0.10311 0.88697 0.0
O801 O 0.74192 0.05775 0.86703 0.0
O802 O 0.75684 0.01767 0.84819 0.0
O803 O 0.78657 0.04079 0.86982 0.0
O804 O 0.74223 0.0933 0.88059 0.0
O805 O 0.80603 0.07436 0.88615 0.0
O806 O 0.70822 0.98372 0.86879 0.0
O807 O 0.75025 0.02712 0.9004 0.0
O808 O 0.73623 0.06631 0.92385 0.0
O809 O 0.70662 0.03995 0.90628 0.0
O810 O 0.74789 0.99285 0.88256 0.0
O811 O 0.68876 1.00952 0.89158 0.0
C812 C 0.73309 0.07903 0.8639 0.0
C813 C 0.82003 0.1151 0.89508 0.0
C814 C 0.84659 0.15219 0.89298 0.0
C815 C 0.82915 0.13598 0.88201 0.0
C816 C 0.85429 0.14726 0.9173 0.0
C817 C 0.82817 0.11075 0.91924 0.0
C818 C 0.84513 0.12677 0.93024 0.0
C819 C 0.77985 0.02556 0.85203 0.0
C820 C 0.80196 0.098 0.88362 0.0
C821 C 0.79172 0.06944 0.99874 0.0
C822 C 0.80609 0.04879 0.99306 0.0
C823 C 0.75928 1.00536 0.89933 0.0
C824 C 0.66497 0.97765 0.87316 0.0
C825 C 0.64775 0.9662 0.88925 0.0
C826 C 0.62486 0.95713 0.88024 0.0
C827 C 0.61986 0.95957 0.85486 0.0
C828 C 0.65915 0.98001 0.84808 0.0
C829 C 0.63679 0.97097 0.83904 0.0
C830 C 0.71424 0.05573 0.9234 0.0
C831 C 0.68887 0.98726 0.88252 0.0
H832 H 0.82297 0.13934 0.8633 0.0
H833 H 0.86723 0.15948 0.92652 0.0
H834 H 0.82142 0.09493 0.92961 0.0
H835 H 0.85122 0.12329 0.94894 0.0
H836 H 0.65207 0.96465 0.90869 0.0
H837 H 0.60291 0.95233 0.84703 0.0
H838 H 0.67194 0.98869 0.8354 0.0
H839 H 0.6326 0.97269 0.8196 0.0
Eu840 Eu 0.76572 0.9632 0.40123 0.0
C841 C 0.84101 1.00389 0.33237 0.0
C842 C 0.87715 0.97851 0.33905 0.0
C843 C 0.87117 0.99856 0.2995 0.0
C844 C 0.85521 0.98935 0.34797 0.0
C845 C 0.8488 1.00824 0.30781 0.0
C846 C 0.88521 0.98356 0.315 0.0
C847 C 0.81253 0.03272 0.30127 0.0
N848 N 0.81975 0.01384 0.341 0.0
C849 C 0.80596 0.02878 0.32584 0.0
C850 C 0.83406 0.02246 0.2922 0.0
Eu851 Eu 0.81252 1.00933 0.38428 0.0
N852 N 0.84733 0.98507 0.37145 0.0
C853 C 0.86013 0.96884 0.38617 0.0
C854 C 0.89041 0.96267 0.35441 0.0
C855 C 0.88165 0.95757 0.37793 0.0
H856 H 0.7906 0.03925 0.33251 0.0
H857 H 0.89145 0.94481 0.38979 0.0
H858 H 0.90212 0.97564 0.30807 0.0
H859 H 0.8014 0.0445 0.28959 0.0
H860 H 0.85397 0.9634 0.40412 0.0
H861 H 0.69067 0.02672 0.42094 0.0
H862 H 0.90717 0.95392 0.34813 0.0
H863 H 0.78187 0.91258 0.43308 0.0
H864 H 0.721 1.00516 0.39498 0.0
H865 H 0.77582 0.89455 0.47477 0.0
H866 H 0.87751 1.00207 0.28087 0.0
H867 H 0.68729 0.01628 0.46528 0.0
H868 H 0.69985 0.98875 0.50059 0.0
H869 H 0.83939 0.02603 0.27326 0.0
H870 H 0.72297 0.95249 0.51526 0.0
N871 N 0.73533 0.98368 0.42449 0.0
C872 C 0.71975 1.0006 0.4143 0.0
C873 C 0.70075 1.00693 0.45399 0.0
C874 C 0.71558 0.98824 0.46389 0.0
C875 C 0.70252 0.01279 0.42895 0.0
C876 C 0.73287 0.97672 0.44841 0.0
H877 H 0.75079 0.91679 0.50554 0.0
N878 N 0.76121 0.94491 0.44074 0.0
C879 C 0.76754 0.9121 0.47002 0.0
C880 C 0.7461 0.95655 0.45678 0.0
C881 C 0.7709 0.92229 0.4465 0.0
C882 C 0.75345 0.92476 0.48736 0.0
C883 C 0.7421 0.94701 0.48069 0.0
O884 O 0.75721 0.925 0.39019 0.0
O885 O 0.79535 0.9732 0.3743 0.0
O886 O 0.77544 0.02006 0.36652 0.0
O887 O 0.75327 0.9831 0.36682 0.0
O888 O 0.79643 0.93774 0.38875 0.0
O889 O 0.72961 0.95305 0.38609 0.0
O890 O 0.81548 0.04905 0.37608 0.0
O891 O 0.77569 1.00394 0.40281 0.0
O892 O 0.79398 0.96386 0.4323 0.0
O893 O 0.82611 0.98994 0.41906 0.0
O894 O 0.80209 0.02327 0.422 0.0
O895 O 0.84371 0.03119 0.39783 0.0
C896 C 0.80616 0.95271 0.3728 0.0
C897 C 0.71542 0.91209 0.39327 0.0
C898 C 0.68713 0.87701 0.38647 0.0
C899 C 0.70605 0.89312 0.37796 0.0
C900 C 0.67829 0.87996 0.41065 0.0
C901 C 0.70601 0.91463 0.41716 0.0
C902 C 0.68769 0.89857 0.4258 0.0
C903 C 0.75699 1.00581 0.35853 0.0
C904 C 0.73448 0.92959 0.38411 0.0
C905 C 0.72602 0.95932 0.49669 0.0
C906 C 0.71284 0.97996 0.48833 0.0
C907 C 0.77922 0.01665 0.42215 0.0
C908 C 0.85653 0.066 0.37447 0.0
C909 C 0.87606 0.07631 0.38841 0.0
C910 C 0.89503 0.09022 0.37688 0.0
C911 C 0.89428 0.09324 0.35111 0.0
C912 C 0.85618 0.06968 0.34887 0.0
C913 C 0.87501 0.08307 0.3373 0.0
C914 C 0.81608 0.97413 0.43505 0.0
C915 C 0.83683 0.05158 0.38704 0.0
H916 H 0.71306 0.89129 0.35938 0.0
H917 H 0.66415 0.8677 0.41797 0.0
H918 H 0.71268 0.92916 0.42909 0.0
H919 H 0.68063 0.90063 0.44432 0.0
H920 H 0.87623 0.07381 0.40824 0.0
H921 H 0.90875 0.1033 0.34151 0.0
H922 H 0.84141 0.0623 0.33772 0.0
H923 H 0.87467 0.08561 0.31751 0.0
Eu924 Eu 0.30333 0.50148 0.65302 0.0
C925 C 0.26111 0.56331 0.56612 0.0
C926 C 0.29274 0.5946 0.55996 0.0
C927 C 0.26815 0.5806 0.52521 0.0
C928 C 0.2798 0.57794 0.57548 0.0
C929 C 0.25458 0.56494 0.541 0.0
C930 C 0.28721 0.59541 0.53469 0.0
C931 C 0.22009 0.53763 0.5495 0.0
N932 N 0.24821 0.54869 0.58193 0.0
C933 C 0.22718 0.53685 0.57427 0.0
C934 C 0.23408 0.55145 0.53269 0.0
Eu935 Eu 0.26151 0.54728 0.62359 0.0
N936 N 0.28479 0.57649 0.59994 0.0
C937 C 0.3014 0.59253 0.61034 0.0
C938 C 0.3105 0.61027 0.57039 0.0
C939 C 0.3146 0.60945 0.59575 0.0
H940 H 0.21623 0.52623 0.58729 0.0
H941 H 0.32804 0.62175 0.60408 0.0
H942 H 0.2972 0.60782 0.52244 0.0
H943 H 0.20381 0.52766 0.54343 0.0
H944 H 0.30504 0.59219 0.62983 0.0
H945 H 0.24834 0.42981 0.69894 0.0
H946 H 0.32081 0.62334 0.55912 0.0
H947 H 0.35242 0.5337 0.67448 0.0
H948 H 0.26314 0.4552 0.66406 0.0
H949 H 0.37528 0.53913 0.71331 0.0
H950 H 0.26361 0.58189 0.5058 0.0
H951 H 0.26697 0.43514 0.74023 0.0
H952 H 0.29899 0.45579 0.76676 0.0
H953 H 0.22846 0.55219 0.51353 0.0
H954 H 0.33378 0.48509 0.77052 0.0
N955 N 0.28863 0.47592 0.68549 0.0
C956 C 0.27101 0.45812 0.68202 0.0
C957 C 0.27329 0.44659 0.725 0.0
C958 C 0.29239 0.46387 0.72815 0.0
C959 C 0.26274 0.44352 0.70175 0.0
C960 C 0.29985 0.47837 0.70773 0.0
H961 H 0.36241 0.51607 0.7507 0.0
N962 N 0.32647 0.508 0.68964 0.0
C963 C 0.35962 0.52658 0.71259 0.0
C964 C 0.31957 0.49466 0.70981 0.0
C965 C 0.34661 0.5234 0.69055 0.0
C966 C 0.3523 0.51355 0.73365 0.0
C967 C 0.33217 0.4972 0.73242 0.0
O968 O 0.33952 0.49038 0.63926 0.0
O969 O 0.29688 0.52709 0.62089 0.0
O970 O 0.25974 0.51076 0.60107 0.0
O971 O 0.27593 0.48162 0.62871 0.0
O972 O 0.33174 0.52774 0.63541 0.0
O973 O 0.31088 0.46276 0.64401 0.0
O974 O 0.2238 0.56122 0.62528 0.0
O975 O 0.26529 0.51832 0.65276 0.0
O976 O 0.29613 0.53079 0.68123 0.0
O977 O 0.28469 0.56368 0.65592 0.0
O978 O 0.23032 0.52344 0.63779 0.0
O979 O 0.25321 0.58194 0.6426 0.0
C980 C 0.31813 0.53624 0.61792 0.0
C981 C 0.35264 0.44996 0.64885 0.0
C982 C 0.3917 0.42753 0.64484 0.0
C983 C 0.3731 0.44264 0.63456 0.0
C984 C 0.38919 0.41966 0.66949 0.0
C985 C 0.35075 0.44182 0.67336 0.0
C986 C 0.36889 0.42672 0.68354 0.0
C987 C 0.26396 0.48743 0.60823 0.0
C988 C 0.33399 0.46691 0.63841 0.0
C989 C 0.3244 0.48331 0.75297 0.0
C990 C 0.30455 0.46667 0.75084 0.0
C991 C 0.2428 0.51101 0.65376 0.0
C992 C 0.2199 0.60489 0.62624 0.0
C993 C 0.20997 0.62317 0.64181 0.0
C994 C 0.2004 0.6454 0.63184 0.0
C995 C 0.20081 0.64871 0.60607 0.0
C996 C 0.22022 0.60897 0.60071 0.0
C997 C 0.21071 0.6307 0.59074 0.0
C998 C 0.29253 0.55462 0.67744 0.0
C999 C 0.22992 0.58164 0.63656 0.0
H1000 H 0.37478 0.44913 0.61569 0.0
H1001 H 0.40287 0.40778 0.6779 0.0
H1002 H 0.33531 0.4472 0.68467 0.0
H1003 H 0.36725 0.42049 0.70246 0.0
H1004 H 0.20996 0.62016 0.66156 0.0
H1005 H 0.19313 0.66513 0.5976 0.0
H1006 H 0.22765 0.59528 0.58841 0.0
H1007 H 0.21086 0.63356 0.57098 0.0
H1008 H 0.14184 0.29759 0.55179 0.0
H1009 H 0.16566 0.33397 0.56419 0.0
H1010 H 0.22032 0.31765 0.50907 0.0
H1011 H 0.19681 0.28022 0.4974 0.0
H1012 H 0.24179 0.3385 0.54873 0.0
H1013 H 0.16176 0.39539 0.52282 0.0
H1014 H 0.15328 0.37334 0.54616 0.0
H1015 H 0.16309 0.36272 0.51632 0.0
C1016 C 0.15947 0.3012 0.54301 0.0
C1017 C 0.16771 0.28583 0.52397 0.0
C1018 C 0.17284 0.32232 0.54974 0.0
C1019 C 0.19429 0.32927 0.5369 0.0
C1020 C 0.20363 0.31294 0.51906 0.0
H1021 H 0.24369 0.48546 0.56083 0.0
H1022 H 0.22876 0.44819 0.53903 0.0
C1023 C 0.1904 0.29135 0.51261 0.0
C1024 C 0.20603 0.35402 0.54159 0.0
H1025 H 0.19225 0.41539 0.54853 0.0
C1026 C 0.23101 0.35532 0.54835 0.0
C1027 C 0.19238 0.37634 0.54028 0.0
C1028 C 0.16624 0.37694 0.53071 0.0
C1029 C 0.24212 0.37787 0.55547 0.0
C1030 C 0.22774 0.39971 0.5566 0.0
C1031 C 0.20326 0.39872 0.54817 0.0
C1032 C 0.23692 0.42277 0.56893 0.0
C1033 C 0.26921 0.37793 0.56191 0.0
C1034 C 0.24574 0.42118 0.59312 0.0
C1035 C 0.25425 0.44216 0.60539 0.0
C1036 C 0.25386 0.4658 0.59418 0.0
C1037 C 0.24432 0.46768 0.5701 0.0
C1038 C 0.23587 0.44634 0.5576 0.0
H1039 H 0.27922 0.3637 0.55123 0.0
H1040 H 0.27792 0.39627 0.55829 0.0
H1041 H 0.27141 0.37332 0.58174 0.0
H1042 H 0.24591 0.40357 0.60277 0.0
H1043 H 0.2611 0.43958 0.62393 0.0
H1044 H 0.8202 0.04983 0.83516 0.0
H1045 H 0.85917 0.03169 0.8223 0.0
H1046 H 0.82653 0.95872 0.82733 0.0
H1047 H 0.78708 0.97705 0.83959 0.0
H1048 H 0.88634 1.00175 0.85101 0.0
H1049 H 0.86432 0.9539 0.76335 0.0
H1050 H 0.84399 0.97636 0.77682 0.0
H1051 H 0.84475 0.94523 0.78868 0.0
C1052 C 0.82109 0.02997 0.83267 0.0
C1053 C 0.80055 0.01486 0.83809 0.0
C1054 C 0.84346 0.01959 0.82557 0.0
C1055 C 0.84592 0.99382 0.82386 0.0
C1056 C 0.82505 0.97868 0.82808 0.0
H1057 H 0.99104 0.92088 0.82797 0.0
H1058 H 0.95149 0.93867 0.84046 0.0
C1059 C 0.80244 0.98915 0.83494 0.0
C1060 C 0.87082 0.98312 0.81951 0.0
H1061 H 0.90392 0.94697 0.78036 0.0
C1062 C 0.89018 0.98976 0.83553 0.0
C1063 C 0.8759 0.96754 0.79933 0.0
C1064 C 0.85623 0.96047 0.78091 0.0
C1065 C 0.91446 0.98161 0.83173 0.0
C1066 C 0.91952 0.96592 0.81162 0.0
C1067 C 0.90007 0.95896 0.79583 0.0
C1068 C 0.94493 0.95743 0.80569 0.0
C1069 C 0.93459 0.99056 0.8488 0.0
C1070 C 0.95476 0.96241 0.78227 0.0
C1071 C 0.97711 0.95207 0.77509 0.0
C1072 C 0.99031 0.93652 0.79116 0.0
C1073 C 0.98144 0.9329 0.81525 0.0
C1074 C 0.95876 0.94306 0.82238 0.0
H1075 H 0.92892 1.00722 0.85921 0.0
H1076 H 0.93887 0.97574 0.86234 0.0
H1077 H 0.95171 0.99505 0.83843 0.0
H1078 H 0.94463 0.9736 0.76914 0.0
H1079 H 0.98349 0.95527 0.75642 0.0
H1080 H 0.33717 0.73973 0.06313 0.0
H1081 H 0.31889 0.7 0.07634 0.0
H1082 H 0.30197 0.68271 1.00064 0.0
H1083 H 0.32153 0.72152 0.98746 0.0
H1084 H 0.27676 0.67547 0.07418 0.0
H1085 H 0.3443 0.62516 0.01754 0.0
H1086 H 0.34611 0.65815 0.02201 0.0
H1087 H 0.32582 0.64531 0.99895 0.0
C1088 C 0.32895 0.72767 0.04946 0.0
C1089 C 0.33076 0.73356 0.02431 0.0
C1090 C 0.31868 0.70488 0.05696 0.0
C1091 C 0.30986 0.68785 0.0394 0.0
C1092 C 0.3095 0.695 0.01448 0.0
H1093 H 0.2227 0.55715 0.07766 0.0
H1094 H 0.23768 0.59668 0.061 0.0
C1095 C 0.32023 0.7174 1.00698 0.0
C1096 C 0.3021 0.66227 0.04684 0.0
H1097 H 0.31096 0.60104 0.03387 0.0
C1098 C 0.28431 0.65922 0.06541 0.0
C1099 C 0.31245 0.64089 0.03599 0.0
C1100 C 0.33342 0.6425 0.01774 0.0
C1101 C 0.27612 0.63555 0.0729 0.0
C1102 C 0.28521 0.61425 0.06082 0.0
C1103 C 0.30352 0.61728 0.04276 0.0
C1104 C 0.27632 0.58872 0.06707 0.0
C1105 C 0.25829 0.63372 0.09421 0.0
C1106 C 0.29305 0.57009 0.07394 0.0
C1107 C 0.28446 0.54701 0.08252 0.0
C1108 C 0.25904 0.54232 0.08449 0.0
C1109 C 0.24241 0.56028 0.07608 0.0
C1110 C 0.25097 0.58307 0.06703 0.0
H1111 H 0.25955 0.65027 0.10622 0.0
H1112 H 0.23916 0.63265 0.08697 0.0
H1113 H 0.26178 0.61701 0.10566 0.0
H1114 H 0.31272 0.57383 0.07393 0.0
H1115 H 0.29762 0.53366 0.08938 0.0
H1116 H 0.57669 0.10135 0.23784 0.0
H1117 H 0.61438 0.08276 0.25294 0.0
H1118 H 0.57478 0.05157 0.31478 0.0
H1119 H 0.53676 0.07125 0.30009 0.0
H1120 H 0.61685 0.07485 0.32919 0.0
H1121 H 0.63887 0.01325 0.25155 0.0
H1122 H 0.63415 0.04436 0.24106 0.0
H1123 H 0.60899 0.0273 0.25492 0.0
C1124 C 0.57578 0.09026 0.2545 0.0
C1125 C 0.55359 0.0878 0.26775 0.0
C1126 C 0.59742 0.07943 0.26301 0.0
C1127 C 0.59745 0.06545 0.28482 0.0
C1128 C 0.57517 0.06217 0.29778 0.0
H1129 H 0.72184 0.97997 0.33376 0.0
H1130 H 0.68398 0.9955 0.31584 0.0
C1131 C 0.55334 0.07318 0.28924 0.0
C1132 C 0.6212 0.05594 0.29467 0.0
H1133 H 0.67258 0.02377 0.27837 0.0
C1134 C 0.62894 0.06344 0.3182 0.0
C1135 C 0.63696 0.04096 0.2804 0.0
C1136 C 0.62919 0.0308 0.2557 0.0
C1137 C 0.65213 0.05675 0.32766 0.0
C1138 C 0.66836 0.04277 0.31288 0.0
C1139 C 0.66042 0.03493 0.28952 0.0
C1140 C 0.69272 0.03412 0.32207 0.0
C1141 C 0.65874 0.06423 0.35362 0.0
C1142 C 0.71092 0.05069 0.33072 0.0
C1143 C 0.73281 0.04177 0.34129 0.0
C1144 C 0.73682 0.01615 0.34321 0.0
C1145 C 0.71929 0.99982 0.33294 0.0
C1146 C 0.69753 1.00868 0.32261 0.0
H1147 H 0.64214 0.06921 0.36445 0.0
H1148 H 0.66851 0.04909 0.36342 0.0
H1149 H 0.67113 0.08067 0.35298 0.0
H1150 H 0.70797 0.07047 0.32982 0.0
H1151 H 0.74599 0.05485 0.34886 0.0
H1152 H 0.68093 0.23326 0.45461 0.0
H1153 H 0.69722 0.19406 0.43879 0.0
H1154 H 0.71607 0.17156 0.51271 0.0
H1155 H 0.69999 0.2103 0.52855 0.0
H1156 H 0.75304 0.16126 0.47791 0.0
H1157 H 0.66125 0.12644 0.44723 0.0
H1158 H 0.67069 0.15616 0.4353 0.0
H1159 H 0.66467 0.15254 0.46763 0.0
C1160 C 0.68885 0.22012 0.46744 0.0
C1161 C 0.68887 0.22493 0.49291 0.0
C1162 C 0.69794 0.19757 0.45839 0.0
C1163 C 0.70741 0.17954 0.47461 0.0
C1164 C 0.70867 0.18498 0.49981 0.0
H1165 H 0.77226 0.03187 0.46928 0.0
H1166 H 0.75295 0.07058 0.48251 0.0
C1167 C 0.69946 0.20726 0.50884 0.0
C1168 C 0.71576 0.15479 0.46579 0.0
H1169 H 0.69527 0.10028 0.44075 0.0
C1170 C 0.74041 0.14796 0.46973 0.0
C1171 C 0.69931 0.13734 0.45515 0.0
C1172 C 0.67244 0.14328 0.45119 0.0
C1173 C 0.74909 0.12438 0.46321 0.0
C1174 C 0.73254 0.1067 0.45304 0.0
C1175 C 0.70794 0.11364 0.44877 0.0
C1176 C 0.74074 0.08129 0.446 0.0
C1177 C 0.77612 0.11887 0.46678 0.0
C1178 C 0.7389 0.07346 0.42142 0.0
C1179 C 0.74955 0.05116 0.41398 0.0
C1180 C 0.76195 0.0359 0.43099 0.0
C1181 C 0.76248 0.043 0.45584 0.0
C1182 C 0.75175 0.06531 0.46332 0.0
H1183 H 0.78734 0.13611 0.46832 0.0
H1184 H 0.77855 0.10811 0.48408 0.0
H1185 H 0.7834 0.10777 0.45129 0.0
H1186 H 0.73041 0.08527 0.40768 0.0
H1187 H 0.74918 0.0466 0.39466 0.0
H1188 H 0.0545 0.39517 0.74429 0.0
H1189 H 0.09355 0.40794 0.72526 0.0
H1190 H 0.07891 0.48379 0.74401 0.0
H1191 H 0.03976 0.47091 0.76339 0.0
H1192 H 0.09981 0.47448 0.69339 0.0
H1193 H 0.15373 0.43208 0.76962 0.0
H1194 H 0.13029 0.41287 0.75578 0.0
H1195 H 0.12152 0.43984 0.77267 0.0
C1196 C 0.05917 0.41464 0.74374 0.0
C1197 C 0.04365 0.43208 0.75491 0.0
C1198 C 0.08175 0.42192 0.73311 0.0
C1199 C 0.08949 0.44682 0.73346 0.0
C1200 C 0.07348 0.46446 0.74355 0.0
H1201 H 0.23501 0.51464 0.70358 0.0
H1202 H 0.19845 0.49754 0.72485 0.0
C1203 C 0.05098 0.45713 0.75444 0.0
C1204 C 0.11459 0.45423 0.72414 0.0
H1205 H 0.17653 0.44835 0.73593 0.0
C1206 C 0.11655 0.46878 0.70271 0.0
C1207 C 0.13656 0.4471 0.73642 0.0
C1208 C 0.13562 0.43226 0.76002 0.0
C1209 C 0.13972 0.47587 0.69297 0.0
C1210 C 0.16177 0.46814 0.70483 0.0
C1211 C 0.1598 0.45411 0.72664 0.0
C1212 C 0.18679 0.47444 0.69447 0.0
C1213 C 0.1404 0.49184 0.67008 0.0
C1214 C 0.1935 0.46593 0.67104 0.0
C1215 C 0.21445 0.47547 0.65907 0.0
C1216 C 0.22962 0.49344 0.67031 0.0
C1217 C 0.22426 0.50023 0.69471 0.0
C1218 C 0.20308 0.49073 0.70673 0.0
H1219 H 0.12249 0.50115 0.66675 0.0
H1220 H 0.15514 0.50619 0.6714 0.0
H1221 H 0.1444 0.48008 0.6539 0.0
H1222 H 0.1816 0.4531 0.66127 0.0
H1223 H 0.21761 0.47035 0.64007 0.0
H1224 H 0.79731 0.9759 0.8899 0.0
H1225 H 0.81152 0.94141 0.91523 0.0
H1226 H 0.76541 0.96577 0.9749 0.0
H1227 H 0.75124 1.00085 0.94932 0.0
H1228 H 0.8333 0.93554 0.96307 0.0
H1229 H 0.73871 0.89519 0.95612 0.0
H1230 H 0.74894 0.92065 0.93689 0.0
H1231 H 0.74138 0.92589 0.9686 0.0
C1232 C 0.79099 0.97453 0.9088 0.0
C1233 C 0.77356 0.99133 0.91781 0.0
C1234 C 0.79897 0.95466 0.92321 0.0
C1235 C 0.78922 0.95066 0.94681 0.0
C1236 C 0.773 0.96834 0.95661 0.0
H1237 H 0.83694 0.83059 0.04282 0.0
H1238 H 0.82175 0.86956 0.0261 0.0
C1239 C 0.76521 0.9886 0.94219 0.0
C1240 C 0.79464 0.92685 0.95977 0.0
H1241 H 0.76893 0.87079 0.9756 0.0
C1242 C 0.81917 0.92151 0.96609 0.0
C1243 C 0.77631 0.90825 0.96314 0.0
C1244 C 0.74985 0.91254 0.95572 0.0
C1245 C 0.82582 0.89823 0.97572 0.0
C1246 C 0.80748 0.87971 0.97925 0.0
C1247 C 0.78295 0.88498 0.97292 0.0
C1248 C 0.81364 0.85501 0.98997 0.0
C1249 C 0.85259 0.89339 0.98157 0.0
C1250 C 0.81311 0.83341 0.97555 0.0
C1251 C 0.8218 0.8108 0.98515 0.0
C1252 C 0.83111 0.80951 1.00933 0.0
C1253 C 0.83012 0.8309 0.02405 0.0
C1254 C 0.8215 0.8533 0.01451 0.0
H1255 H 0.86502 0.90754 0.97317 0.0
H1256 H 0.85528 0.89376 1.00183 0.0
H1257 H 0.85808 0.87481 0.97494 0.0
H1258 H 0.80703 0.83429 0.95656 0.0
H1259 H 0.82254 0.79481 0.97325 0.0
H1260 H 0.45039 0.57686 0.28774 0.0
H1261 H 0.41135 0.56134 0.27123 0.0
H1262 H 0.44154 0.56445 0.19778 0.0
H1263 H 0.48107 0.57944 0.21447 0.0
H1264 H 0.38094 0.58563 0.24135 0.0
H1265 H 0.40757 0.49811 0.19611 0.0
H1266 H 0.42783 0.51417 0.21717 0.0
H1267 H 0.4253 0.5243 0.18561 0.0
C1268 C 0.44897 0.5735 0.26812 0.0
C1269 C 0.46895 0.57906 0.25243 0.0
C1270 C 0.42652 0.56483 0.25867 0.0
C1271 C 0.42331 0.56157 0.23323 0.0
C1272 C 0.44357 0.56625 0.21753 0.0
H1273 H 0.30049 0.54266 0.13618 0.0
H1274 H 0.33526 0.55899 0.15988 0.0
C1275 C 0.46626 0.57471 0.22707 0.0
C1276 C 0.39835 0.55488 0.2233 0.0
H1277 H 0.36747 0.51352 0.18674 0.0
C1278 C 0.37803 0.56969 0.22961 0.0
C1279 C 0.39431 0.53405 0.20802 0.0
C1280 C 0.41485 0.5166 0.20151 0.0
C1281 C 0.35412 0.56456 0.22062 0.0
C1282 C 0.35033 0.54415 0.20496 0.0
C1283 C 0.37045 0.52916 0.19887 0.0
C1284 C 0.32605 0.53889 0.19318 0.0
C1285 C 0.33301 0.58118 0.22741 0.0
C1286 C 0.30849 0.52322 0.2045 0.0
C1287 C 0.28818 0.51414 0.19099 0.0
C1288 C 0.28539 0.52056 0.16602 0.0
C1289 C 0.30192 0.53782 0.15552 0.0
C1290 C 0.32196 0.54696 0.16897 0.0
H1291 H 0.33878 0.59611 0.24024 0.0
H1292 H 0.32523 0.58972 0.21047 0.0
H1293 H 0.31806 0.57004 0.23616 0.0
H1294 H 0.3114 0.51669 0.22317 0.0
H1295 H 0.27616 0.50032 0.19929 0.0
H1296 H 0.54846 0.1345 0.31339 0.0
H1297 H 0.56762 0.15778 0.34693 0.0
H1298 H 0.52904 0.22335 0.3237 0.0
H1299 H 0.50977 0.19988 0.28975 0.0
H1300 H 0.58264 0.22917 0.34384 0.0
H1301 H 0.51747 0.17698 0.40409 0.0
H1302 H 0.53517 0.15859 0.38311 0.0
H1303 H 0.51293 0.18003 0.37124 0.0
C1304 C 0.54489 0.15416 0.31477 0.0
C1305 C 0.52796 0.16549 0.29872 0.0
C1306 C 0.55565 0.16739 0.33412 0.0
C1307 C 0.54946 0.19219 0.33813 0.0
C1308 C 0.53405 0.20419 0.32099 0.0
H1309 H 0.56478 0.26955 0.47952 0.0
H1310 H 0.54851 0.25001 0.44193 0.0
C1311 C 0.52325 0.19088 0.30143 0.0
C1312 C 0.557 0.20434 0.36164 0.0
H1313 H 0.54833 0.20085 0.42408 0.0
C1314 C 0.57505 0.22311 0.36136 0.0
C1315 C 0.54693 0.19661 0.38455 0.0
C1316 C 0.5269 0.17709 0.38593 0.0
C1317 C 0.58376 0.23384 0.38342 0.0
C1318 C 0.57434 0.22541 0.40641 0.0
C1319 C 0.55575 0.20717 0.40657 0.0
C1320 C 0.58364 0.23526 0.43043 0.0
C1321 C 0.60286 0.25426 0.38191 0.0
C1322 C 0.60852 0.23258 0.43712 0.0
C1323 C 0.61769 0.24348 0.45867 0.0
C1324 C 0.60216 0.25698 0.4743 0.0
C1325 C 0.57705 0.2588 0.46813 0.0
C1326 C 0.56781 0.24781 0.44656 0.0
H1327 H 0.60339 0.26293 0.3633 0.0
H1328 H 0.59919 0.26885 0.39573 0.0
H1329 H 0.62134 0.24645 0.38578 0.0
H1330 H 0.62104 0.2226 0.42532 0.0
H1331 H 0.63718 0.24215 0.46253 0.0
H1332 H 0.09803 0.22454 0.57579 0.0
H1333 H 0.08068 0.24224 0.61288 0.0
H1334 H 0.05637 0.30577 0.57123 0.0
H1335 H 0.07484 0.28849 0.53388 0.0
H1336 H 0.08072 0.3193 0.61247 0.0
H1337 H 0.01146 0.24777 0.63734 0.0
H1338 H 0.04143 0.23466 0.63329 0.0
H1339 H 0.026 0.24887 0.60748 0.0
C1340 C 0.08861 0.2421 0.57432 0.0
C1341 C 0.08772 0.25504 0.55175 0.0
C1342 C 0.07852 0.25213 0.59561 0.0
C1343 C 0.06689 0.27519 0.59487 0.0
C1344 C 0.06513 0.28784 0.5722 0.0
H1345 H 0.98309 0.33809 0.71263 0.0
H1346 H 0.99849 0.31671 0.67669 0.0
C1347 C 0.07541 0.27781 0.55077 0.0
C1348 C 0.05831 0.28666 0.61815 0.0
H1349 H 0.02332 0.2757 0.66941 0.0
C1350 C 0.06799 0.30988 0.62484 0.0
C1351 C 0.04167 0.2744 0.63428 0.0
C1352 C 0.02935 0.25017 0.62761 0.0
C1353 C 0.06165 0.32107 0.64726 0.0
C1354 C 0.04572 0.30837 0.66379 0.0
C1355 C 0.03592 0.28523 0.65699 0.0
C1356 C 0.03695 0.31977 0.68705 0.0
C1357 C 0.07155 0.34667 0.65268 0.0
C1358 C 0.05338 0.32795 0.70546 0.0
C1359 C 0.04456 0.34052 0.72621 0.0
C1360 C 0.01917 0.34492 0.72885 0.0
C1361 C 1.0028 0.33534 0.71108 0.0
C1362 C 0.01157 0.32301 0.69046 0.0
H1363 H 0.0785 0.35609 0.63578 0.0
H1364 H 0.05711 0.35839 0.66107 0.0
H1365 H 0.08712 0.34524 0.66588 0.0
H1366 H 0.07302 0.32508 0.70355 0.0
H1367 H 0.05764 0.34764 0.73954 0.0
H1368 H 0.00892 0.88151 0.82544 0.0
H1369 H 0.98763 0.86558 0.86194 0.0
H1370 H 1.00363 0.79096 0.83959 0.0
H1371 H 0.02474 0.80715 0.80256 0.0
H1372 H 0.95565 0.79581 0.85733 0.0
H1373 H 0.02167 0.83802 0.92302 0.0
H1374 H 1.00858 0.86014 0.90207 0.0
H1375 H 0.02792 0.83596 0.89043 0.0
C1376 C 1.00741 0.86173 0.82796 0.0
C1377 C 0.01788 0.84561 0.81069 0.0
C1378 C 0.99558 0.85259 0.84913 0.0
C1379 C 0.99435 0.82702 0.85395 0.0
C1380 C 1.0044 0.81077 0.83647 0.0
H1381 H 0.94203 0.75858 0.99447 0.0
H1382 H 0.96953 0.77292 0.96085 0.0
C1383 C 0.01635 0.82 0.81524 0.0
C1384 C 0.98251 0.81745 0.87716 0.0
H1385 H 0.98381 0.82253 0.94018 0.0
C1386 C 0.96201 0.80148 0.87541 0.0
C1387 C 0.99088 0.82447 0.90096 0.0
C1388 C 0.01362 0.84039 0.90433 0.0
C1389 C 0.94914 0.79326 0.89655 0.0
C1390 C 0.95671 0.80134 0.92023 0.0
C1391 C 0.97781 0.81647 0.92211 0.0
C1392 C 0.94187 0.79539 0.94283 0.0
C1393 C 0.92732 0.77606 0.89331 0.0
C1394 C 0.9177 0.80424 0.94469 0.0
C1395 C 0.90223 0.79628 0.96379 0.0
C1396 C 0.91053 0.77953 0.98187 0.0
C1397 C 0.93527 0.77187 0.98111 0.0
C1398 C 0.95088 0.77988 0.96176 0.0
H1399 H 0.92788 0.76642 0.87529 0.0
H1400 H 0.9266 0.76196 0.90828 0.0
H1401 H 0.91007 0.78696 0.894 0.0
H1402 H 0.91039 0.81653 0.93068 0.0
H1403 H 0.8832 0.80232 0.96377 0.0
H1404 H 0.51479 0.6931 0.23683 0.0
H1405 H 0.49897 0.71827 0.20213 0.0
H1406 H 0.45551 0.65597 0.17747 0.0
H1407 H 0.47111 0.63117 0.21168 0.0
H1408 H 0.48915 0.67663 0.14098 0.0
H1409 H 0.42907 0.74754 0.18379 0.0
H1410 H 0.45903 0.74219 0.19717 0.0
H1411 H 0.43575 0.71851 0.199 0.0
C1412 C 0.50101 0.68525 0.22463 0.0
C1413 C 0.49379 0.66029 0.2273 0.0
C1414 C 0.49219 0.69951 0.20459 0.0
C1415 C 0.47615 0.68897 0.18693 0.0
C1416 C 0.46792 0.66456 0.19062 0.0
H1417 H 0.38183 0.73402 0.07065 0.0
H1418 H 0.40416 0.7158 0.10517 0.0
C1419 C 0.47664 0.65046 0.21042 0.0
C1420 C 0.46913 0.70218 0.16357 0.0
H1421 H 0.43164 0.74745 0.14049 0.0
C1422 C 0.47693 0.69242 0.14088 0.0
C1423 C 0.45295 0.72259 0.16333 0.0
C1424 C 0.4435 0.7334 0.18703 0.0
C1425 C 0.46857 0.70209 0.11814 0.0
C1426 C 0.45192 0.72209 0.1179 0.0
C1427 C 0.44459 0.73226 0.14058 0.0
C1428 C 0.43967 0.73088 0.09467 0.0
C1429 C 0.4764 0.68995 0.0945 0.0
C1430 C 0.45229 0.74473 0.0764 0.0
C1431 C 0.4394 0.75512 0.05621 0.0
C1432 C 0.41374 0.75162 0.05395 0.0
C1433 C 0.40162 0.7367 0.07159 0.0
C1434 C 0.41435 0.72646 0.09155 0.0
H1435 H 0.48872 0.67393 0.09777 0.0
H1436 H 0.45984 0.68348 0.08426 0.0
H1437 H 0.48621 0.70363 0.08265 0.0
H1438 H 0.47183 0.74854 0.0784 0.0
H1439 H 0.44914 0.76713 0.04339 0.0
H1440 H 0.11552 0.31398 0.3294 0.0
H1441 H 0.13614 0.33505 0.29515 0.0
H1442 H 0.1865 0.36999 0.34594 0.0
H1443 H 0.16554 0.34925 0.3806 0.0
H1444 H 0.13949 0.3883 0.29125 0.0
H1445 H 0.23142 0.34338 0.289 0.0
H1446 H 0.20489 0.32904 0.30353 0.0
H1447 H 0.22089 0.35396 0.31854 0.0
C1448 C 0.13107 0.32604 0.33338 0.0
C1449 C 0.13863 0.33011 0.3579 0.0
C1450 C 0.14291 0.338 0.31371 0.0
C1451 C 0.16289 0.35411 0.31789 0.0
C1452 C 0.17129 0.35743 0.3422 0.0
H1453 H 0.21674 0.47206 0.22276 0.0
H1454 H 0.20288 0.44598 0.25692 0.0
C1455 C 0.15932 0.3455 0.36201 0.0
C1456 C 0.17347 0.36872 0.29695 0.0
H1457 H 0.22532 0.37731 0.26181 0.0
C1458 C 0.15825 0.38587 0.28483 0.0
C1459 C 0.1979 0.36546 0.28843 0.0
C1460 C 0.21478 0.34686 0.30036 0.0
C1461 C 0.16686 0.40001 0.26471 0.0
C1462 C 0.19136 0.39697 0.25637 0.0
C1463 C 0.20654 0.37963 0.26824 0.0
C1464 C 0.20147 0.41226 0.23572 0.0
C1465 C 0.14965 0.41807 0.25236 0.0
C1466 C 0.2058 0.40191 0.21243 0.0
C1467 C 0.21348 0.41693 0.19257 0.0
C1468 C 0.21705 0.44258 0.19572 0.0
C1469 C 0.21364 0.45256 0.21939 0.0
C1470 C 0.20583 0.43763 0.23907 0.0
H1471 H 0.13017 0.41508 0.25805 0.0
H1472 H 0.15515 0.43724 0.25738 0.0
H1473 H 0.15087 0.41651 0.23201 0.0
H1474 H 0.20259 0.38233 0.20945 0.0
H1475 H 0.21604 0.40856 0.17468 0.0
H1476 H 0.95997 0.91075 0.61921 0.0
H1477 H 0.94259 0.93028 0.5821 0.0
H1478 H 0.8694 0.90933 0.60572 0.0
H1479 H 0.88647 0.89041 0.64286 0.0
H1480 H 0.91469 0.90745 0.54506 0.0
H1481 H 0.86074 0.98209 0.58822 0.0
H1482 H 0.88448 0.96545 0.6046 0.0
H1483 H 0.85409 0.95219 0.60128 0.0
C1484 C 0.94015 0.91072 0.6167 0.0
C1485 C 0.92465 0.89894 0.63403 0.0
C1486 C 0.93024 0.92175 0.59539 0.0
C1487 C 0.90463 0.92156 0.59118 0.0
C1488 C 0.88915 0.91016 0.60868 0.0
H1489 H 0.79842 0.95508 0.4785 0.0
H1490 H 0.82153 0.94324 0.51524 0.0
C1491 C 0.899 0.89909 0.62983 0.0
C1492 C 0.89395 0.93204 0.56804 0.0
H1493 H 0.8503 0.97215 0.54652 0.0
C1494 C 0.90087 0.92186 0.54533 0.0
C1495 C 0.87588 0.95083 0.56833 0.0
C1496 C 0.86852 0.96346 0.59189 0.0
C1497 C 0.88946 0.92913 0.52312 0.0
C1498 C 0.87087 0.9474 0.52354 0.0
C1499 C 0.86445 0.95807 0.54617 0.0
C1500 C 0.85703 0.95488 0.50092 0.0
C1501 C 0.89665 0.91641 0.49955 0.0
C1502 C 0.86911 0.96581 0.48064 0.0
C1503 C 0.85586 0.97237 0.45937 0.0
C1504 C 0.83024 0.96803 0.45786 0.0
C1505 C 0.81817 0.95781 0.47853 0.0
C1506 C 0.83138 0.9513 0.49975 0.0
H1507 H 0.90707 0.89913 0.50312 0.0
H1508 H 0.88008 0.91181 0.48837 0.0
H1509 H 0.90858 0.92903 0.4885 0.0
H1510 H 0.88879 0.96936 0.48128 0.0
H1511 H 0.86579 0.98064 0.44407 0.0
H1512 H 0.30006 0.5418 0.72559 0.0
H1513 H 0.31403 0.56752 0.75952 0.0
H1514 H 0.31249 0.63187 0.71233 0.0
H1515 H 0.29902 0.60581 0.67753 0.0
H1516 H 0.35981 0.59943 0.75755 0.0
H1517 H 0.27368 0.6506 0.77869 0.0
H1518 H 0.27297 0.62095 0.76343 0.0
H1519 H 0.2834 0.64794 0.74705 0.0
C1520 C 0.30277 0.56138 0.72214 0.0
C1521 C 0.29877 0.57151 0.69846 0.0
C1522 C 0.31065 0.57615 0.74178 0.0
C1523 C 0.31434 0.60168 0.73865 0.0
C1524 C 0.30964 0.61221 0.7153 0.0
H1525 H 0.36399 0.70591 0.85524 0.0
H1526 H 0.34629 0.68895 0.81697 0.0
C1527 C 0.30193 0.59728 0.69539 0.0
C1528 C 0.32425 0.6166 0.75972 0.0
H1529 H 0.30772 0.65728 0.80494 0.0
C1530 C 0.34847 0.61225 0.76776 0.0
C1531 C 0.30959 0.63348 0.77304 0.0
C1532 C 0.2834 0.63862 0.76533 0.0
C1533 C 0.35828 0.62392 0.78881 0.0
C1534 C 0.34327 0.63992 0.80293 0.0
C1535 C 0.31926 0.64494 0.7944 0.0
C1536 C 0.35199 0.65057 0.827 0.0
C1537 C 0.38482 0.61904 0.79559 0.0
C1538 C 0.36019 0.63482 0.84597 0.0
C1539 C 0.37034 0.64445 0.86769 0.0
C1540 C 0.37232 0.67018 0.87138 0.0
C1541 C 0.36275 0.68602 0.85307 0.0
C1542 C 0.35271 0.67631 0.83111 0.0
H1543 H 0.39575 0.6135 0.77924 0.0
H1544 H 0.39368 0.63561 0.80392 0.0
H1545 H 0.38553 0.6036 0.80914 0.0
H1546 H 0.35915 0.61492 0.8438 0.0
H1547 H 0.37706 0.63165 0.88155 0.0
H1548 H 0.64485 0.14587 0.12321 0.0
H1549 H 0.65998 0.12551 0.08614 0.0
H1550 H 0.58658 0.09848 0.07058 0.0
H1551 H 0.57112 0.11932 0.10746 0.0
H1552 H 0.65827 0.0752 0.07141 0.0
H1553 H 0.6064 0.13626 1.00711 0.0
H1554 H 0.61056 0.14361 0.03925 0.0
H1555 H 0.58842 0.12046 0.03026 0.0
C1556 C 0.63186 0.13569 0.11188 0.0
C1557 C 0.60669 0.1345 0.11821 0.0
C1558 C 0.64059 0.12389 0.09077 0.0
C1559 C 0.62439 0.11074 0.07537 0.0
C1560 C 0.59938 0.10883 0.08198 0.0
H1561 H 0.68256 0.02514 0.94914 0.0
H1562 H 0.65796 0.03594 0.98567 0.0
C1563 C 0.59061 0.12057 0.10321 0.0
C1564 C 0.63378 0.09975 0.0521 0.0
H1565 H 0.6316 0.10594 0.98939 0.0
C1566 C 0.65223 0.08167 0.05346 0.0
C1567 C 0.62604 0.1084 0.02868 0.0
C1568 C 0.60691 0.12838 0.02606 0.0
C1569 C 0.66347 0.07239 0.03208 0.0
C1570 C 0.65595 0.08127 1.00869 0.0
C1571 C 0.63715 0.09896 1.00731 0.0
C1572 C 0.6692 0.0745 0.98572 0.0
C1573 C 0.68411 0.05397 0.03467 0.0
C1574 C 0.68299 0.09268 0.9732 0.0
C1575 C 0.69689 0.08657 0.95249 0.0
C1576 C 0.6973 0.06215 0.94374 0.0
C1577 C 0.68263 0.04409 0.95556 0.0
C1578 C 0.66876 0.0502 0.9765 0.0
H1579 H 0.69011 0.05166 0.05413 0.0
H1580 H 0.67779 0.0357 0.02776 0.0
H1581 H 0.70026 0.0599 0.02346 0.0
H1582 H 0.68345 0.11158 0.97979 0.0
H1583 H 0.70737 0.10102 0.94332 0.0
H1584 H 0.68126 0.20073 0.66073 0.0
H1585 H 0.70204 0.18156 0.69589 0.0
H1586 H 0.64482 0.12573 0.69968 0.0
H1587 H 0.62594 0.14254 0.66309 0.0
H1588 H 0.69203 0.17675 0.74007 0.0
H1589 H 0.69903 0.08073 0.70844 0.0
H1590 H 0.68943 0.10515 0.68796 0.0
H1591 H 0.66725 0.0892 0.70736 0.0
C1592 C 0.67346 0.18391 0.66849 0.0
C1593 C 0.65155 0.17357 0.65879 0.0
C1594 C 0.68528 0.17307 0.68894 0.0
C1595 C 0.67541 0.15174 0.70051 0.0
C1596 C 0.65355 0.14154 0.69089 0.0
H1597 H 0.70146 0.11699 0.85562 0.0
H1598 H 0.68828 0.13426 0.81605 0.0
C1599 C 0.64224 0.1518 0.67009 0.0
C1600 C 0.68692 0.14096 0.72337 0.0
H1601 H 0.69934 0.08619 0.75263 0.0
C1602 C 0.69396 0.15693 0.74258 0.0
C1603 C 0.69026 0.11511 0.72685 0.0
C1604 C 0.68636 0.09668 0.70639 0.0
C1605 C 0.70328 0.14789 0.76513 0.0
C1606 C 0.70426 0.12195 0.76945 0.0
C1607 C 0.69808 0.10603 0.74993 0.0
C1608 C 0.71169 0.11088 0.79383 0.0
C1609 C 0.71259 0.1665 0.78366 0.0
C1610 C 0.72813 0.09082 0.79494 0.0
C1611 C 0.73466 0.08008 0.81761 0.0
C1612 C 0.72508 0.08927 0.83976 0.0
C1613 C 0.70901 0.10948 0.83879 0.0
C1614 C 0.7018 0.11965 0.8161 0.0
H1615 H 0.71948 0.18358 0.77436 0.0
H1616 H 0.69718 0.17198 0.79585 0.0
H1617 H 0.72775 0.15889 0.79511 0.0
H1618 H 0.73613 0.08349 0.77826 0.0
H1619 H 0.74746 0.06479 0.81783 0.0
H1620 H 0.15681 0.44578 0.11162 0.0
H1621 H 0.13614 0.43374 0.07323 0.0
H1622 H 0.19158 0.47347 0.0315 0.0
H1623 H 0.21277 0.48449 0.06977 0.0
H1624 H 0.11458 0.46031 0.03891 0.0
H1625 H 0.19153 0.4111 0.9936 0.0
H1626 H 0.19135 0.41857 0.02584 0.0
H1627 H 0.19942 0.44186 1.00332 0.0
C1628 C 0.16479 0.45153 0.09419 0.0
C1629 C 0.1867 0.46559 0.09371 0.0
C1630 C 0.1529 0.44476 0.07222 0.0
C1631 C 0.1624 0.45224 0.0492 0.0
C1632 C 0.18418 0.46664 0.04878 0.0
H1633 H 0.10869 0.42153 0.89893 0.0
H1634 H 0.12826 0.44209 0.93427 0.0
C1635 C 0.19628 0.47307 0.07075 0.0
C1636 C 0.149 0.44561 0.02588 0.0
H1637 H 0.15583 0.41731 0.97001 0.0
C1638 C 0.12368 0.45091 0.02389 0.0
C1639 C 0.16068 0.43352 1.00595 0.0
C1640 C 0.18722 0.42573 1.0072 0.0
C1641 C 0.10986 0.44421 1.0029 0.0
C1642 C 0.12154 0.43171 0.98332 0.0
C1643 C 0.1469 0.42706 0.98493 0.0
C1644 C 0.10762 0.42156 0.96183 0.0
C1645 C 0.08286 0.45066 1.00185 0.0
C1646 C 0.08939 0.4033 0.96548 0.0
C1647 C 0.07827 0.39152 0.94537 0.0
C1648 C 0.08515 0.39763 0.92106 0.0
C1649 C 0.10282 0.41653 0.91738 0.0
C1650 C 0.11409 0.42822 0.93757 0.0
H1651 H 0.07852 0.46636 0.01421 0.0
H1652 H 0.07714 0.45555 0.98279 0.0
H1653 H 0.07176 0.43441 1.00797 0.0
H1654 H 0.08437 0.39746 0.98394 0.0
H1655 H 0.06461 0.37719 0.94887 0.0
H1656 H 0.83956 0.91571 0.36696 0.0
H1657 H 0.85357 0.8972 0.32828 0.0
H1658 H 0.80716 0.94741 0.28744 0.0
H1659 H 0.79447 0.96679 0.32588 0.0
H1660 H 0.83054 0.87221 0.29538 0.0
H1661 H 0.86672 0.95547 0.24744 0.0
H1662 H 0.8579 0.95552 0.27937 0.0
H1663 H 0.83491 0.95906 0.25565 0.0
C1664 C 0.83287 0.92312 0.34963 0.0
C1665 C 0.8164 0.94304 0.34941 0.0
C1666 C 0.84072 0.91244 0.3275 0.0
C1667 C 0.83184 0.92106 0.30463 0.0
C1668 C 0.8151 0.94085 0.30454 0.0
H1669 H 0.85037 0.86639 0.15339 0.0
H1670 H 0.83292 0.88382 0.19128 0.0
C1671 C 0.80772 0.9519 0.32661 0.0
C1672 C 0.83922 0.9086 0.28113 0.0
H1673 H 0.86149 0.91939 0.22295 0.0
C1674 C 0.83743 0.88262 0.27966 0.0
C1675 C 0.84812 0.92195 0.26029 0.0
C1676 C 0.85225 0.94954 0.26076 0.0
C1677 C 0.84426 0.86982 0.2582 0.0
C1678 C 0.85305 0.88325 0.23754 0.0
C1679 C 0.8545 0.90914 0.23875 0.0
C1680 C 0.86225 0.8708 0.21498 0.0
C1681 C 0.84196 0.84199 0.25768 0.0
C1682 C 0.88444 0.85761 0.21573 0.0
C1683 C 0.8945 0.84786 0.19415 0.0
C1684 C 0.88254 0.85097 0.17132 0.0
C1685 C 0.8599 0.8635 0.17071 0.0
C1686 C 0.84998 0.87355 0.19231 0.0
H1687 H 0.83034 0.83476 0.273 0.0
H1688 H 0.83393 0.83578 0.23989 0.0
H1689 H 0.86059 0.83378 0.25941 0.0
H1690 H 0.89437 0.85548 0.23294 0.0
H1691 H 0.9119 0.83819 0.19526 0.0
H1692 H 0.30295 0.52489 0.57076 0.0
H1693 H 0.32162 0.53842 0.53163 0.0
H1694 H 0.37761 0.57866 0.57166 0.0
H1695 H 0.35881 0.56534 0.61073 0.0
H1696 H 0.35769 0.60657 0.53367 0.0
H1697 H 0.38504 0.51449 0.49884 0.0
H1698 H 0.35302 0.51687 0.50691 0.0
H1699 H 0.37619 0.51949 0.53048 0.0
C1700 C 0.31919 0.5367 0.57119 0.0
C1701 C 0.32904 0.54453 0.5939 0.0
C1702 C 0.33005 0.54422 0.54877 0.0
C1703 C 0.35128 0.55947 0.54847 0.0
C1704 C 0.36129 0.56695 0.57121 0.0
H1705 H 0.44923 0.59858 0.4237 0.0
H1706 H 0.43124 0.58025 0.46136 0.0
C1707 C 0.35054 0.55931 0.59358 0.0
C1708 C 0.36272 0.56822 0.52467 0.0
H1709 H 0.38979 0.54847 0.47119 0.0
C1710 C 0.36469 0.59381 0.52006 0.0
C1711 C 0.37227 0.55174 0.50685 0.0
C1712 C 0.37178 0.52411 0.51101 0.0
C1713 C 0.37544 0.60327 0.49823 0.0
C1714 C 0.3844 0.5868 0.48009 0.0
C1715 C 0.38285 0.5612 0.48486 0.0
C1716 C 0.39501 0.59598 0.45604 0.0
C1717 C 0.37746 0.63097 0.49499 0.0
C1718 C 0.38056 0.61014 0.43983 0.0
C1719 C 0.39074 0.62048 0.41831 0.0
C1720 C 0.41577 0.61701 0.41216 0.0
C1721 C 0.42993 0.60168 0.4277 0.0
C1722 C 0.41966 0.59127 0.44936 0.0
H1723 H 0.37606 0.64076 0.51288 0.0
H1724 H 0.39518 0.63628 0.48609 0.0
H1725 H 0.36217 0.63743 0.48303 0.0
H1726 H 0.36136 0.61356 0.44402 0.0
H1727 H 0.379 0.63166 0.40663 0.0
H1728 H 0.19747 0.17916 0.4554 0.0
H1729 H 0.23363 0.1711 0.43021 0.0
H1730 H 0.23643 0.24793 0.40828 0.0
H1731 H 0.20005 0.25621 0.43412 0.0
H1732 H 0.24378 0.21377 0.369 0.0
H1733 H 0.30425 0.1925 0.44844 0.0
H1734 H 0.27583 0.17522 0.44922 0.0
H1735 H 0.27527 0.20841 0.45173 0.0
C1736 C 0.20602 0.19446 0.44563 0.0
C1737 C 0.19645 0.21845 0.44738 0.0
C1738 C 0.22661 0.1898 0.43109 0.0
C1739 C 0.23815 0.20904 0.41792 0.0
C1740 C 0.22798 0.23289 0.4186 0.0
H1741 H 0.38243 0.17028 0.35603 0.0
H1742 H 0.35025 0.1947 0.37594 0.0
C1743 C 0.20721 0.23758 0.43326 0.0
C1744 C 0.26073 0.20375 0.4035 0.0
H1745 H 0.31748 0.17734 0.4091 0.0
C1746 C 0.26009 0.20621 0.37775 0.0
C1747 C 0.28219 0.19431 0.41495 0.0
C1748 C 0.28459 0.19268 0.44263 0.0
C1749 C 0.27974 0.19799 0.36308 0.0
C1750 C 0.30034 0.18669 0.37447 0.0
C1751 C 0.3016 0.18572 0.40029 0.0
C1752 C 0.31983 0.17399 0.36011 0.0
C1753 C 0.27806 0.2012 0.33551 0.0
C1754 C 0.31349 0.15433 0.34446 0.0
C1755 C 0.3318 0.14047 0.33299 0.0
C1756 C 0.35693 0.14575 0.3371 0.0
C1757 C 0.36327 0.16587 0.35227 0.0
C1758 C 0.34489 0.17976 0.36376 0.0
H1759 H 0.26625 0.21719 0.33052 0.0
H1760 H 0.29657 0.204 0.32716 0.0
H1761 H 0.26955 0.18436 0.3274 0.0
H1762 H 0.29434 0.14912 0.34176 0.0
H1763 H 0.32624 0.1253 0.32121 0.0
H1764 H 0.10897 0.09526 0.58285 0.0
H1765 H 0.08992 0.06029 0.605 0.0
H1766 H 0.14484 0.06691 0.66215 0.0
H1767 H 0.16265 0.10264 0.64133 0.0
H1768 H 0.10598 0.01633 0.61569 0.0
H1769 H 0.08648 0.06057 0.70471 0.0
H1770 H 0.09584 0.07831 0.67803 0.0
H1771 H 0.11857 0.06371 0.69748 0.0
C1772 C 0.11663 0.0897 0.60044 0.0
C1773 C 0.13758 0.10193 0.61005 0.0
C1774 C 0.10583 0.06945 0.61303 0.0
C1775 C 0.11561 0.06091 0.6356 0.0
C1776 C 0.13636 0.07327 0.64523 0.0
H1777 H 0.09659 0.91029 0.69499 0.0
H1778 H 0.11057 0.9478 0.67312 0.0
C1779 C 0.14689 0.0936 0.63291 0.0
C1780 C 0.10509 0.03848 0.64853 0.0
H1781 H 0.08773 0.01611 0.70516 0.0
C1782 C 0.10175 0.01643 0.63521 0.0
C1783 C 0.09907 0.03836 0.67399 0.0
C1784 C 0.09992 0.0616 0.68928 0.0
C1785 C 0.09331 0.99437 0.64661 0.0
C1786 C 0.08881 0.9939 0.67237 0.0
C1787 C 0.09153 0.01611 0.68555 0.0
C1788 C 0.08074 0.97088 0.68596 0.0
C1789 C 0.0888 0.97199 0.63067 0.0
C1790 C 0.05987 0.97127 0.70137 0.0
C1791 C 0.05237 0.95003 0.71444 0.0
C1792 C 0.06557 0.92783 0.71251 0.0
C1793 C 0.08623 0.92723 0.69696 0.0
C1794 C 0.09402 0.94863 0.6842 0.0
H1795 H 0.0852 0.97739 0.61122 0.0
H1796 H 0.10546 0.9602 0.63089 0.0
H1797 H 0.07288 0.96083 0.63744 0.0
H1798 H 0.04921 0.98803 0.70319 0.0
H1799 H 0.03604 0.95088 0.72589 0.0
H1800 H 0.15048 0.87024 0.88532 0.0
H1801 H 0.18473 0.84806 0.905 0.0
H1802 H 0.23648 0.88685 0.85817 0.0
H1803 H 0.20251 0.90844 0.83808 0.0
H1804 H 0.24731 0.83723 0.86262 0.0
H1805 H 0.23248 0.87791 0.95516 0.0
H1806 H 0.20631 0.86186 0.9424 0.0
H1807 H 0.21747 0.88974 0.92788 0.0
C1808 C 0.16912 0.87383 0.87903 0.0
C1809 C 0.17367 0.89142 0.86028 0.0
C1810 C 0.18875 0.86134 0.89051 0.0
C1811 C 0.21335 0.86614 0.8835 0.0
C1812 C 0.21778 0.88296 0.86416 0.0
H1813 H 0.36343 0.82579 0.9226 0.0
H1814 H 0.32554 0.84143 0.90363 0.0
C1815 C 0.19826 0.89543 0.85275 0.0
C1816 C 0.23463 0.85392 0.89615 0.0
H1817 H 0.26449 0.84898 0.9515 0.0
C1818 C 0.25107 0.83985 0.88206 0.0
C1819 C 0.23957 0.8571 0.92159 0.0
C1820 C 0.22319 0.87262 0.93768 0.0
C1821 C 0.27223 0.82905 0.89258 0.0
C1822 C 0.27761 0.83288 0.91786 0.0
C1823 C 0.26076 0.84632 0.9321 0.0
C1824 C 0.30082 0.82364 0.92973 0.0
C1825 C 0.2883 0.81322 0.87647 0.0
C1826 C 0.29988 0.80913 0.95133 0.0
C1827 C 0.32163 0.80056 0.96245 0.0
C1828 C 0.34486 0.80664 0.95246 0.0
C1829 C 0.34581 0.82098 0.93081 0.0
C1830 C 0.3241 0.82973 0.91982 0.0
H1831 H 0.27767 0.80533 0.86081 0.0
H1832 H 0.3034 0.82481 0.86864 0.0
H1833 H 0.29661 0.79776 0.8871 0.0
H1834 H 0.28227 0.8042 0.95949 0.0
H1835 H 0.32027 0.7891 0.97884 0.0
H1836 H 0.45926 0.11695 0.16568 0.0
H1837 H 0.44593 0.08003 0.14325 0.0
H1838 H 0.47587 0.03377 0.20084 0.0
H1839 H 0.49085 0.07079 0.22234 0.0
H1840 H 0.4856 0.01371 0.15907 0.0
H1841 H 0.38727 0.03886 0.15512 0.0
H1842 H 0.40519 0.06066 0.13759 0.0
H1843 H 0.40951 0.05832 0.17036 0.0
C1844 C 0.46288 0.09888 0.17361 0.0
C1845 C 0.47528 0.09683 0.19627 0.0
C1846 C 0.45504 0.07772 0.16086 0.0
C1847 C 0.45898 0.05387 0.17063 0.0
C1848 C 0.47216 0.05181 0.19293 0.0
H1849 H 0.41545 0.90397 0.12135 0.0
H1850 H 0.43514 0.93846 0.14355 0.0
C1851 C 0.48049 0.07303 0.20542 0.0
C1852 C 0.45003 0.03118 0.15729 0.0
H1853 H 0.39957 1.00542 0.12901 0.0
C1854 C 0.4667 0.01186 0.15271 0.0
C1855 C 0.42537 0.0285 0.14874 0.0
C1856 C 0.40582 0.04762 0.15345 0.0
C1857 C 0.45967 0.99052 0.13941 0.0
C1858 C 0.43513 0.98808 0.1307 0.0
C1859 C 0.41843 1.00721 0.13552 0.0
C1860 C 0.42618 0.96628 0.11612 0.0
C1861 C 0.47883 0.97118 0.13416 0.0
C1862 C 0.41472 0.97015 0.0932 0.0
C1863 C 0.40333 0.95055 0.08069 0.0
C1864 C 0.40314 0.92646 0.09068 0.0
C1865 C 0.41565 0.92223 0.11301 0.0
C1866 C 0.42691 0.94199 0.1257 0.0
H1867 H 0.49787 0.97875 0.136 0.0
H1868 H 0.47672 0.95572 0.14756 0.0
H1869 H 0.47654 0.96357 0.11532 0.0
H1870 H 0.41387 0.98859 0.0853 0.0
H1871 H 0.39383 0.95441 0.06354 0.0
H1872 H 0.82999 0.40488 0.69161 0.0
H1873 H 0.79444 0.38527 0.6716 0.0
H1874 H 0.84355 0.33969 0.62926 0.0
H1875 H 0.87912 0.35859 0.6503 0.0
H1876 H 0.78175 0.38802 0.62632 0.0
H1877 H 0.79377 0.28828 0.646 0.0
H1878 H 0.81163 0.31182 0.6615 0.0
H1879 H 0.82025 0.30169 0.63115 0.0
C1880 C 0.83313 0.39017 0.67852 0.0
C1881 C 0.85732 0.38304 0.67276 0.0
C1882 C 0.81278 0.37903 0.66693 0.0
C1883 C 0.816 0.36067 0.64894 0.0
C1884 C 0.84026 0.3532 0.6435 0.0
H1885 H 0.71203 0.28781 0.54696 0.0
H1886 H 0.74901 0.30361 0.56811 0.0
C1887 C 0.86067 0.36408 0.65547 0.0
C1888 C 0.79409 0.35112 0.63467 0.0
H1889 H 0.76398 0.29861 0.61535 0.0
C1890 C 0.77788 0.36842 0.62414 0.0
C1891 C 0.7888 0.32555 0.6315 0.0
C1892 C 0.80439 0.30577 0.64334 0.0
C1893 C 0.75689 0.36109 0.61062 0.0
C1894 C 0.7516 0.33555 0.60732 0.0
C1895 C 0.76793 0.31818 0.61761 0.0
C1896 C 0.72904 0.32653 0.59377 0.0
C1897 C 0.74084 0.381 0.59975 0.0
C1898 C 0.70528 0.33391 0.601 0.0
C1899 C 0.68419 0.32521 0.58862 0.0
C1900 C 0.6862 0.30889 0.56866 0.0
C1901 C 0.70988 0.30103 0.56172 0.0
C1902 C 0.73104 0.30986 0.57402 0.0
H1903 H 0.75149 0.39833 0.59621 0.0
H1904 H 0.73238 0.37488 0.58228 0.0
H1905 H 0.72588 0.38536 0.61292 0.0
H1906 H 0.70297 0.34612 0.61655 0.0
H1907 H 0.66619 0.33111 0.59481 0.0
H1908 H 0.9695 0.48382 0.79242 0.0
H1909 H 0.95583 0.51904 0.81673 0.0
H1910 H 0.95389 0.47289 0.88179 0.0
H1911 H 0.96794 0.43777 0.85769 0.0
H1912 H 0.9141 0.52585 0.84114 0.0
H1913 H 0.99093 0.53137 0.90808 0.0
H1914 H 0.99242 0.5125 0.88082 0.0
H1915 H 0.97666 0.50132 0.90794 0.0
C1916 C 0.96617 0.48109 0.8119 0.0
C1917 C 0.96964 0.45771 0.82296 0.0
C1918 C 0.95844 0.50136 0.82584 0.0
C1919 C 0.95411 0.49887 0.85126 0.0
C1920 C 0.95768 0.47559 0.86238 0.0
H1921 H 0.88162 0.58334 0.96357 0.0
H1922 H 0.90353 0.55298 0.93862 0.0
C1923 C 0.96558 0.45535 0.84846 0.0
C1924 C 0.94472 0.52026 0.86582 0.0
H1925 H 0.95447 0.55399 0.91823 0.0
C1926 C 0.92315 0.53217 0.85781 0.0
C1927 C 0.95648 0.5287 0.88761 0.0
C1928 C 0.98054 0.51798 0.89648 0.0
C1929 C 0.91262 0.55157 0.87134 0.0
C1930 C 0.92399 0.55948 0.89345 0.0
C1931 C 0.94575 0.5479 0.9013 0.0
C1932 C 0.91268 0.57873 0.90933 0.0
C1933 C 0.88891 0.56296 0.86235 0.0
C1934 C 0.91113 0.60354 0.90152 0.0
C1935 C 0.89872 0.62105 0.91588 0.0
C1936 C 0.88744 0.61398 0.9382 0.0
C1937 C 0.88988 0.58932 0.94635 0.0
C1938 C 0.90246 0.57195 0.93214 0.0
H1939 H 0.88044 0.55225 0.84705 0.0
H1940 H 0.87538 0.56416 0.87764 0.0
H1941 H 0.89271 0.58205 0.85563 0.0
H1942 H 0.9191 0.60925 0.88408 0.0
H1943 H 0.89707 0.63984 0.90905 0.0
H1944 H 0.80892 0.74931 0.05735 0.0
H1945 H 0.77048 0.73567 0.07744 0.0
H1946 H 0.81267 0.69359 0.13023 0.0
H1947 H 0.85095 0.7077 0.11053 0.0
H1948 H 0.7495 0.6918 0.08416 0.0
H1949 H 0.76906 0.72945 0.17668 0.0
H1950 H 0.78775 0.73719 0.15023 0.0
H1951 H 0.79255 0.7086 0.16674 0.0
C1952 C 0.80994 0.7371 0.07321 0.0
C1953 C 0.833 0.72924 0.08209 0.0
C1954 C 0.78792 0.72935 0.0848 0.0
C1955 C 0.7884 0.71389 0.10582 0.0
C1956 C 0.81153 0.70605 0.11458 0.0
H1957 H 0.67295 0.63528 0.19088 0.0
H1958 H 0.71252 0.65274 0.17621 0.0
C1959 C 0.83349 0.71393 0.10313 0.0
C1960 C 0.76481 0.70544 0.11808 0.0
H1961 H 0.73481 0.70157 0.17371 0.0
C1962 C 0.74641 0.694 0.10372 0.0
C1963 C 0.76033 0.70834 0.14371 0.0
C1964 C 0.77836 0.72179 0.16019 0.0
C1965 C 0.72424 0.68495 0.11414 0.0
C1966 C 0.71979 0.68779 0.13973 0.0
C1967 C 0.73812 0.69922 0.15417 0.0
C1968 C 0.69597 0.67944 0.15146 0.0
C1969 C 0.70595 0.67189 0.09763 0.0
C1970 C 0.67342 0.6894 0.14354 0.0
C1971 C 0.65092 0.67961 0.15207 0.0
C1972 C 0.65025 0.65974 0.16899 0.0
C1973 C 0.6728 0.65086 0.17824 0.0
C1974 C 0.69543 0.66069 0.16963 0.0
H1975 H 0.71474 0.66533 0.0804 0.0
H1976 H 0.69735 0.65578 0.1072 0.0
H1977 H 0.69111 0.68495 0.09243 0.0
H1978 H 0.67318 0.70417 0.12998 0.0
H1979 H 0.63391 0.68672 0.14439 0.0
H1980 H 0.59354 0.39371 0.41867 0.0
H1981 H 0.57467 0.43256 0.40434 0.0
H1982 H 0.64392 0.45496 0.37182 0.0
H1983 H 0.66254 0.41622 0.3856 0.0
H1984 H 0.58325 0.48221 0.41048 0.0
H1985 H 0.59875 0.45843 0.31278 0.0
H1986 H 0.60304 0.43636 0.33745 0.0
H1987 H 0.62686 0.45867 0.33021 0.0
C1988 C 0.6048 0.40715 0.40885 0.0
C1989 C 0.62948 0.40176 0.40309 0.0
C1990 C 0.59397 0.42931 0.4005 0.0
C1991 C 0.60761 0.4465 0.38628 0.0
C1992 C 0.63269 0.44177 0.382 0.0
H1993 H 0.57072 0.60005 0.35202 0.0
H1994 H 0.58634 0.56139 0.36963 0.0
C1995 C 0.64341 0.41967 0.39011 0.0
C1996 C 0.59573 0.46904 0.37534 0.0
H1997 H 0.58699 0.49993 0.32083 0.0
C1998 C 0.58402 0.48604 0.39085 0.0
C1999 C 0.59609 0.47394 0.34962 0.0
C2000 C 0.60662 0.45576 0.33151 0.0
C2001 C 0.57349 0.50803 0.38154 0.0
C2002 C 0.57517 0.51363 0.35599 0.0
C2003 C 0.58609 0.49615 0.34042 0.0
C2004 C 0.56585 0.53739 0.34499 0.0
C2005 C 0.56022 0.52473 0.39924 0.0
C2006 C 0.54985 0.53719 0.3245 0.0
C2007 C 0.54135 0.55942 0.31404 0.0
C2008 C 0.5489 0.5824 0.32361 0.0
C2009 C 0.56475 0.58263 0.34413 0.0
C2010 C 0.57346 0.56046 0.3544 0.0
H2011 H 0.55333 0.51425 0.41554 0.0
H2012 H 0.57324 0.53913 0.40598 0.0
H2013 H 0.54435 0.53401 0.39024 0.0
H2014 H 0.54371 0.51978 0.3167 0.0
H2015 H 0.52874 0.55862 0.29857 0.0
H2016 H 0.36719 0.35106 0.12598 0.0
H2017 H 0.3875 0.31737 0.14797 0.0
H2018 H 0.32861 0.31558 0.20126 0.0
H2019 H 0.30791 0.34949 0.17906 0.0
H2020 H 0.37783 0.31054 0.22182 0.0
H2021 H 0.36089 0.24533 0.14509 0.0
H2022 H 0.3755 0.27374 0.1355 0.0
H2023 H 0.34474 0.27429 0.14787 0.0
C2024 C 0.35852 0.34359 0.14242 0.0
C2025 C 0.3357 0.35273 0.15053 0.0
C2026 C 0.37017 0.32427 0.15496 0.0
C2027 C 0.35931 0.31351 0.17592 0.0
C2028 C 0.33721 0.32345 0.18497 0.0
H2029 H 0.41579 0.16951 0.22718 0.0
H2030 H 0.38744 0.20273 0.21527 0.0
C2031 C 0.32547 0.3429 0.17236 0.0
C2032 C 0.37097 0.29153 0.18772 0.0
H2033 H 0.39067 0.23299 0.17512 0.0
C2034 C 0.38039 0.29347 0.21174 0.0
C2035 C 0.37395 0.26906 0.17478 0.0
C2036 C 0.36303 0.2653 0.14947 0.0
C2037 C 0.39376 0.27399 0.22265 0.0
C2038 C 0.39811 0.25212 0.20905 0.0
C2039 C 0.3876 0.24977 0.18551 0.0
C2040 C 0.41468 0.23211 0.21817 0.0
C2041 C 0.40318 0.2771 0.24862 0.0
C2042 C 0.43944 0.23746 0.22377 0.0
C2043 C 0.45559 0.21858 0.23064 0.0
C2044 C 0.44755 0.19374 0.23175 0.0
C2045 C 0.42264 0.18839 0.22653 0.0
C2046 C 0.40641 0.20738 0.21967 0.0
H2047 H 0.39183 0.29048 0.25904 0.0
H2048 H 0.40325 0.25917 0.25873 0.0
H2049 H 0.42236 0.28444 0.24801 0.0
H2050 H 0.4465 0.25622 0.22223 0.0
H2051 H 0.47455 0.22351 0.23473 0.0
H2052 H 0.96442 0.33085 0.78232 0.0
H2053 H 0.94432 0.29269 0.79681 0.0
H2054 H 0.89535 0.3356 0.84194 0.0
H2055 H 0.91579 0.37389 0.82768 0.0
H2056 H 0.91519 0.29649 0.8674 0.0
H2057 H 0.87757 0.26355 0.77838 0.0
H2058 H 0.91017 0.26964 0.77756 0.0
H2059 H 0.88913 0.29469 0.78256 0.0
C2060 C 0.9494 0.33212 0.79539 0.0
C2061 C 0.94207 0.3553 0.80441 0.0
C2062 C 0.93769 0.31029 0.80342 0.0
C2063 C 0.91808 0.31115 0.82032 0.0
C2064 C 0.9104 0.33438 0.82891 0.0
H2065 H 0.8222 0.18596 0.86356 0.0
H2066 H 0.83886 0.22441 0.84546 0.0
C2067 C 0.92208 0.35625 0.82079 0.0
C2068 C 0.90628 0.28784 0.82976 0.0
H2069 H 0.87667 0.23464 0.8118 0.0
C2070 C 0.90667 0.28305 0.85522 0.0
C2071 C 0.89485 0.27033 0.81399 0.0
C2072 C 0.89264 0.27486 0.78663 0.0
C2073 C 0.89652 0.26113 0.86525 0.0
C2074 C 0.88593 0.24316 0.84939 0.0
C2075 C 0.88498 0.24821 0.82398 0.0
C2076 C 0.87604 0.219 0.85892 0.0
C2077 C 0.89699 0.25759 0.89284 0.0
C2078 C 0.89148 0.20265 0.87178 0.0
C2079 C 0.88204 0.18071 0.88206 0.0
C2080 C 0.85688 0.17436 0.87965 0.0
C2081 C 0.84165 0.19018 0.86575 0.0
C2082 C 0.85114 0.21225 0.85548 0.0
H2083 H 0.89913 0.27551 0.9026 0.0
H2084 H 0.87987 0.24829 0.89945 0.0
H2085 H 0.91292 0.24582 0.89791 0.0
H2086 H 0.91089 0.20699 0.8741 0.0
H2087 H 0.89449 0.16875 0.89212 0.0
H2088 H 0.09352 0.56617 0.10918 0.0
H2089 H 0.05717 0.58314 0.08802 0.0
H2090 H 0.08024 0.65696 0.10781 0.0
H2091 H 0.11653 0.64024 0.12855 0.0
H2092 H 0.01949 0.61071 0.10943 0.0
H2093 H 0.06384 0.66512 0.03477 0.0
H2094 H 0.07997 0.64147 0.0519 0.0
H2095 H 0.07649 0.67196 0.06457 0.0
C2096 C 0.09108 0.58604 0.10858 0.0
C2097 C 0.10796 0.60181 0.12065 0.0
C2098 C 0.07021 0.59573 0.0966 0.0
C2099 C 0.066 0.6214 0.09604 0.0
C2100 C 0.08318 0.63715 0.10754 0.0
H2101 H 0.9367 0.70988 0.09012 0.0
H2102 H 0.97213 0.68409 0.09993 0.0
C2103 C 0.10386 0.62751 0.11963 0.0
C2104 C 0.04295 0.63181 0.08501 0.0
H2105 H 0.02196 0.67567 0.04446 0.0
C2106 C 0.02004 0.62464 0.09496 0.0
C2107 C 0.04346 0.64982 0.06591 0.0
C2108 C 0.06724 0.65739 0.05347 0.0
C2109 C 0.99791 0.63585 0.08728 0.0
C2110 C 0.99861 0.65494 0.06928 0.0
C2111 C 0.02135 0.66121 0.0584 0.0
C2112 C 0.97634 0.66988 0.063 0.0
C2113 C 0.97396 0.62737 0.09879 0.0
C2114 C 0.96683 0.67081 0.03885 0.0
C2115 C 0.94647 0.68584 0.03314 0.0
C2116 C 0.93563 0.7006 0.05138 0.0
C2117 C 0.94498 0.69927 0.07553 0.0
C2118 C 0.96508 0.6842 0.08125 0.0
H2119 H 0.97538 0.60828 0.10636 0.0
H2120 H 0.9693 0.63989 0.11421 0.0
H2121 H 0.95862 0.62789 0.08521 0.0
H2122 H 0.97524 0.66001 0.02442 0.0
H2123 H 0.93972 0.68652 0.01436 0.0
H2124 H 0.63842 0.86478 0.38086 0.0
H2125 H 0.62056 0.8296 0.35887 0.0
H2126 H 0.69291 0.80907 0.33367 0.0
H2127 H 0.71107 0.84417 0.35616 0.0
H2128 H 0.6212 0.81535 0.30911 0.0
H2129 H 0.6677 0.74619 0.36924 0.0
H2130 H 0.66631 0.77858 0.37701 0.0
H2131 H 0.68752 0.76824 0.35394 0.0
C2132 C 0.65059 0.85282 0.37063 0.0
C2133 C 0.67626 0.85715 0.3706 0.0
C2134 C 0.64031 0.83276 0.35792 0.0
C2135 C 0.65537 0.81638 0.3449 0.0
C2136 C 0.68091 0.82119 0.34391 0.0
H2137 H 0.58642 0.69461 0.25806 0.0
H2138 H 0.6129 0.73029 0.26883 0.0
C2139 C 0.69126 0.8414 0.35659 0.0
C2140 C 0.64416 0.79388 0.33338 0.0
H2141 H 0.64089 0.73079 0.33882 0.0
C2142 C 0.62574 0.79682 0.31535 0.0
C2143 C 0.64985 0.76969 0.34172 0.0
C2144 C 0.66877 0.76532 0.36166 0.0
C2145 C 0.61258 0.77637 0.30585 0.0
C2146 C 0.61805 0.75224 0.31445 0.0
C2147 C 0.63684 0.74925 0.33206 0.0
C2148 C 0.60284 0.73021 0.30742 0.0
C2149 C 0.5921 0.78081 0.28754 0.0
C2150 C 0.58888 0.7179 0.32554 0.0
C2151 C 0.5739 0.69766 0.31945 0.0
C2152 C 0.57242 0.68911 0.29507 0.0
C2153 C 0.58699 0.7009 0.27697 0.0
C2154 C 0.60199 0.72137 0.28308 0.0
H2155 H 0.58761 0.80077 0.28569 0.0
H2156 H 0.59779 0.77391 0.26921 0.0
H2157 H 0.57515 0.77053 0.29311 0.0
H2158 H 0.58938 0.72414 0.34448 0.0
H2159 H 0.5637 0.68849 0.33401 0.0
H2160 H 0.59805 0.36143 0.53959 0.0
H2161 H 0.56234 0.3838 0.5555 0.0
H2162 H 0.52187 0.31505 0.56181 0.0
H2163 H 0.55736 0.29274 0.54615 0.0
H2164 H 0.51313 0.38849 0.54133 0.0
H2165 H 0.51885 0.34088 0.63182 0.0
H2166 H 0.54321 0.33938 0.60929 0.0
H2167 H 0.51631 0.31986 0.60645 0.0
C2168 C 0.58164 0.35102 0.54437 0.0
C2169 C 0.58111 0.32503 0.54258 0.0
C2170 C 0.56112 0.3639 0.55343 0.0
C2171 C 0.53959 0.35107 0.56067 0.0
C2172 C 0.53849 0.32535 0.55725 0.0
H2173 H 0.39362 0.40971 0.5974 0.0
H2174 H 0.42953 0.3929 0.57585 0.0
C2175 C 0.55894 0.31256 0.54837 0.0
C2176 C 0.51852 0.36423 0.57243 0.0
H2177 H 0.48287 0.36457 0.62438 0.0
C2178 C 0.50657 0.38335 0.55953 0.0
C2179 C 0.51009 0.35783 0.59636 0.0
C2180 C 0.52291 0.33855 0.61191 0.0
C2181 C 0.48619 0.39581 0.56967 0.0
C2182 C 0.47721 0.38874 0.59324 0.0
C2183 C 0.48949 0.36992 0.60625 0.0
C2184 C 0.45552 0.40079 0.60518 0.0
C2185 C 0.47479 0.41672 0.55522 0.0
C2186 C 0.4579 0.41077 0.62892 0.0
C2187 C 0.43738 0.42014 0.64132 0.0
C2188 C 0.41382 0.4198 0.63037 0.0
C2189 C 0.41151 0.41052 0.60628 0.0
C2190 C 0.4321 0.40095 0.5939 0.0
H2191 H 0.4878 0.42442 0.54128 0.0
H2192 H 0.45827 0.40969 0.54532 0.0
H2193 H 0.46895 0.4319 0.56756 0.0
H2194 H 0.47567 0.41099 0.63809 0.0
H2195 H 0.43993 0.42742 0.65971 0.0
H2196 H 0.17148 0.64021 0.67351 0.0
H2197 H 0.15109 0.67298 0.69681 0.0
H2198 H 0.18361 0.72805 0.64877 0.0
H2199 H 0.20498 0.69573 0.62637 0.0
H2200 H 0.18414 0.744 0.69483 0.0
H2201 H 0.09029 0.70816 0.67354 0.0
H2202 H 0.10931 0.6866 0.68996 0.0
H2203 H 0.11758 0.69602 0.65919 0.0
C2204 C 0.17463 0.65932 0.66816 0.0
C2205 C 0.18962 0.66518 0.64772 0.0
C2206 C 0.16264 0.67806 0.6813 0.0
C2207 C 0.16519 0.70306 0.67419 0.0
C2208 C 0.18103 0.70897 0.65454 0.0
H2209 H 0.06605 0.82488 0.69762 0.0
H2210 H 0.08992 0.78977 0.68297 0.0
C2211 C 0.19311 0.69035 0.64155 0.0
C2212 C 0.15113 0.72319 0.68661 0.0
H2213 H 0.09277 0.74332 0.699 0.0
C2214 C 0.16415 0.74378 0.69583 0.0
C2215 C 0.12499 0.72318 0.68766 0.0
C2216 C 0.10966 0.70245 0.67687 0.0
C2217 C 0.15188 0.76436 0.70572 0.0
C2218 C 0.12577 0.7642 0.70707 0.0
C2219 C 0.11276 0.74346 0.69815 0.0
C2220 C 0.11145 0.78579 0.71637 0.0
C2221 C 0.16705 0.78648 0.71366 0.0
C2222 C 0.11536 0.7954 0.74012 0.0
C2223 C 0.10166 0.81563 0.74851 0.0
C2224 C 0.08344 0.82638 0.73351 0.0
C2225 C 0.0795 0.8167 0.70984 0.0
C2226 C 0.0933 0.79667 0.70138 0.0
H2227 H 0.18574 0.78645 0.70528 0.0
H2228 H 0.15784 0.80407 0.70857 0.0
H2229 H 0.16934 0.78598 0.73398 0.0
H2230 H 0.12877 0.78705 0.75233 0.0
H2231 H 0.1049 0.82244 0.76696 0.0
H2232 H 0.45201 0.84674 0.01455 0.0
H2233 H 0.48742 0.87257 1.00195 0.0
H2234 H 0.48521 0.83968 0.92973 0.0
H2235 H 0.45036 0.81387 0.94235 0.0
H2236 H 0.53121 0.84219 0.94522 0.0
H2237 H 0.4881 0.93369 0.95999 0.0
H2238 H 0.4892 0.91463 0.98714 0.0
H2239 H 0.47064 0.90516 0.9613 0.0
C2240 C 0.4591 0.84511 0.99598 0.0
C2241 C 0.44863 0.82788 0.97959 0.0
C2242 C 0.47929 0.85999 0.98872 0.0
C2243 C 0.48903 0.85835 0.96473 0.0
C2244 C 0.47832 0.84127 0.94838 0.0
H2245 H 0.57446 0.96129 0.87844 0.0
H2246 H 0.54358 0.93755 0.90121 0.0
C2247 C 0.45843 0.8263 0.9557 0.0
C2248 C 0.51043 0.87401 0.95637 0.0
H2249 H 0.52984 0.93388 0.94761 0.0
C2250 C 0.53092 0.86226 0.94586 0.0
C2251 C 0.51012 0.90024 0.95695 0.0
C2252 C 0.48827 0.91423 0.96673 0.0
C2253 C 0.55067 0.87583 0.93546 0.0
C2254 C 0.55047 0.90206 0.93619 0.0
C2255 C 0.53023 0.91382 0.94719 0.0
C2256 C 0.56984 0.91762 0.92371 0.0
C2257 C 0.57095 0.86183 0.92273 0.0
C2258 C 0.59512 0.91506 0.92908 0.0
C2259 C 0.61305 0.92841 0.91564 0.0
C2260 C 0.60608 0.94484 0.89666 0.0
C2261 C 0.58068 0.94835 0.89238 0.0
C2262 C 0.56288 0.9349 0.90562 0.0
H2263 H 0.56525 0.84255 0.91834 0.0
H2264 H 0.57657 0.87123 0.90535 0.0
H2265 H 0.58727 0.8609 0.93505 0.0
H2266 H 0.60107 0.90242 0.94341 0.0
H2267 H 0.63235 0.9252 0.91957 0.0
H2268 H 0.92096 0.07031 0.41591 0.0
H2269 H 0.9572 0.08799 0.43675 0.0
H2270 H 0.95241 0.15329 0.39104 0.0
H2271 H 0.91615 0.13602 0.37044 0.0
H2272 H 0.99915 0.13089 0.39116 0.0
H2273 H 0.96507 0.14587 0.48636 0.0
H2274 H 0.95975 0.11554 0.47379 0.0
H2275 H 0.94452 0.14177 0.46043 0.0
C2276 C 0.92731 0.08865 0.41064 0.0
C2277 C 0.9157 0.10161 0.39131 0.0
C2278 C 0.94805 0.09874 0.42259 0.0
C2279 C 0.95749 0.12204 0.41555 0.0
C2280 C 0.94551 0.13527 0.39678 0.0
H2281 H 0.06936 0.21223 0.48894 0.0
H2282 H 0.03133 0.19435 0.47185 0.0
C2283 C 0.92484 0.12527 0.3849 0.0
C2284 C 0.98087 0.132 0.42625 0.0
H2285 H 1.00756 0.15326 0.47925 0.0
C2286 C 1.001 0.13581 0.41043 0.0
C2287 C 0.98324 0.13851 0.45134 0.0
C2288 C 0.96199 0.13544 0.46903 0.0
C2289 C 0.02338 0.14599 0.41888 0.0
C2290 C 0.026 0.15238 0.4441 0.0
C2291 C 1.00576 0.1485 0.45995 0.0
C2292 C 0.04932 0.16341 0.45432 0.0
C2293 C 0.04364 0.15018 0.4003 0.0
C2294 C 0.07225 0.152 0.45059 0.0
C2295 C 0.09406 0.16276 0.4596 0.0
C2296 C 0.09348 0.18497 0.47291 0.0
C2297 C 0.07049 0.19569 0.47784 0.0
C2298 C 0.0487 0.18525 0.46834 0.0
H2299 H 0.03607 0.15326 0.3815 0.0
H2300 H 0.05522 0.16628 0.40523 0.0
H2301 H 0.05546 0.13353 0.39965 0.0
H2302 H 0.07334 0.13468 0.44075 0.0
H2303 H 0.11145 0.15366 0.45617 0.0
loop_
_geom_bond_atom_site_label_1
_geom_bond_atom_site_label_2
_geom_bond_distance
_geom_bond_site_symmetry_2
_ccdc_geom_bond_type
Eu0 N31 2.657 . S
Eu0 N38 2.609 . S
Eu0 O44 2.558 . S
Eu0 O45 2.612 . S
Eu0 O47 2.339 . S
Eu0 O48 2.563 . S
Eu0 O49 2.419 . S
Eu0 O51 2.380 . S
Eu0 O52 2.432 . S
Eu0 C64 2.848 . S
C1 C4 1.429 . S
C1 C5 1.411 . S
C1 N8 1.377 . S
C2 C4 1.420 . S
C2 C6 1.423 . S
C2 C14 1.392 . S
C3 C5 1.420 . S
C3 C6 1.351 . S
C3 H26 0.931 . S
C4 C1 1.429 . S
C4 C2 1.420 . S
C4 N12 1.362 . S
C5 C1 1.411 . S
C5 C3 1.420 . S
C5 C10 1.395 . S
C6 C2 1.423 . S
C6 C3 1.351 . S
C6 H18 0.930 . S
C7 C9 1.400 . S
C7 C10 1.386 . S
C7 H19 0.930 . S
N8 C1 1.377 . S
N8 C9 1.321 . S
N8 Eu11 2.609 . S
C9 C7 1.400 . S
C9 N8 1.321 . S
C9 H16 0.930 . S
C10 C5 1.395 . S
C10 C7 1.386 . S
C10 H29 0.930 . S
Eu11 N8 2.609 . S
Eu11 N12 2.657 . S
Eu11 O45 2.380 . S
Eu11 O46 2.432 . S
Eu11 O50 2.558 . S
Eu11 O51 2.612 . S
Eu11 O53 2.339 . S
Eu11 O54 2.563 . S
Eu11 O55 2.419 . S
Eu11 C75 2.848 . S
N12 C4 1.362 . S
N12 Eu11 2.657 . S
N12 C13 1.334 . S
C13 N12 1.334 . S
C13 C15 1.413 . S
C13 H20 0.929 . S
C14 C2 1.392 . S
C14 C15 1.367 . S
C14 H22 0.930 . S
C15 C13 1.413 . S
C15 C14 1.367 . S
C15 H17 0.930 . S
H16 C9 0.930 . S
H17 C15 0.930 . S
H18 C6 0.930 . S
H19 C7 0.930 . S
H20 C13 0.929 . S
H21 C35 0.930 . S
H22 C14 0.930 . S
H23 C41 0.930 . S
H24 C32 0.929 . S
H25 C39 0.930 . S
H26 C3 0.931 . S
H27 C33 0.930 . S
H28 C66 0.930 . S
H29 C10 0.930 . S
H30 C65 0.931 . S
N31 Eu0 2.657 . S
N31 C32 1.334 . S
N31 C36 1.362 . S
C32 H24 0.929 . S
C32 N31 1.334 . S
C32 C35 1.413 . S
C33 H27 0.930 . S
C33 C34 1.392 . S
C33 C35 1.367 . S
C34 C33 1.392 . S
C34 C36 1.420 . S
C34 C66 1.423 . S
C35 H21 0.930 . S
C35 C32 1.413 . S
C35 C33 1.367 . S
C36 N31 1.362 . S
C36 C34 1.420 . S
C36 C40 1.429 . S
H37 C42 0.930 . S
N38 Eu0 2.609 . S
N38 C40 1.377 . S
N38 C41 1.321 . S
C39 H25 0.930 . S
C39 C41 1.400 . S
C39 C42 1.386 . S
C40 C36 1.429 . S
C40 N38 1.377 . S
C40 C43 1.411 . S
C41 H23 0.930 . S
C41 N38 1.321 . S
C41 C39 1.400 . S
C42 H37 0.930 . S
C42 C39 1.386 . S
C42 C43 1.395 . S
C43 C40 1.411 . S
C43 C42 1.395 . S
C43 C65 1.420 . S
O44 Eu0 2.558 . S
O44 C64 1.257 . S
O45 Eu0 2.612 . S
O45 Eu11 2.380 . S
O45 C56 1.276 . S
O46 Eu11 2.432 . S
O46 C63 1.264 . S
O47 Eu0 2.339 . S
O47 C63 1.254 . S
O48 Eu0 2.563 . S
O48 C56 1.235 . S
O49 Eu0 2.419 . S
O49 C64 1.249 . S
O50 Eu11 2.558 . S
O50 C75 1.257 . S
O51 Eu0 2.380 . S
O51 Eu11 2.612 . S
O51 C67 1.276 . S
O52 Eu0 2.432 . S
O52 C74 1.264 . S
O53 Eu11 2.339 . S
O53 C74 1.254 . S
O54 Eu11 2.563 . S
O54 C67 1.235 . S
O55 Eu11 2.419 . S
O55 C75 1.249 . S
C56 O45 1.276 . S
C56 O48 1.235 . S
C57 C59 1.393 . S
C57 C61 1.395 . S
C57 C64 1.492 . S
C58 C59 1.392 . S
C58 C60 1.386 . S
C59 C57 1.393 . S
C59 C58 1.392 . S
C59 H76 0.930 . S
C60 C58 1.386 . S
C60 C62 1.395 . S
C60 H77 0.930 . S
C61 C57 1.395 . S
C61 C62 1.379 . S
C61 H78 0.930 . S
C62 C60 1.395 . S
C62 C61 1.379 . S
C62 H79 0.930 . S
C63 O46 1.264 . S
C63 O47 1.254 . S
C64 Eu0 2.848 . S
C64 O44 1.257 . S
C64 O49 1.249 . S
C64 C57 1.492 . S
C65 H30 0.931 . S
C65 C43 1.420 . S
C65 C66 1.351 . S
C66 H28 0.930 . S
C66 C34 1.423 . S
C66 C65 1.351 . S
C67 O51 1.276 . S
C67 O54 1.235 . S
C68 C69 1.393 . S
C68 C72 1.395 . S
C68 C75 1.492 . S
C69 C68 1.393 . S
C69 C70 1.392 . S
C69 H80 0.930 . S
C70 C69 1.392 . S
C70 C71 1.386 . S
C71 C70 1.386 . S
C71 C73 1.395 . S
C71 H81 0.930 . S
C72 C68 1.395 . S
C72 C73 1.379 . S
C72 H82 0.930 . S
C73 C71 1.395 . S
C73 C72 1.379 . S
C73 H83 0.930 . S
C74 O52 1.264 . S
C74 O53 1.254 . S
C75 Eu11 2.848 . S
C75 O50 1.257 . S
C75 O55 1.249 . S
C75 C68 1.492 . S
H76 C59 0.930 . S
H77 C60 0.930 . S
H78 C61 0.930 . S
H79 C62 0.930 . S
H80 C69 0.930 . S
H81 C71 0.930 . S
H82 C72 0.930 . S
H83 C73 0.930 . S
Eu84 N115 2.657 . S
Eu84 N122 2.609 . S
Eu84 O128 2.558 . S
Eu84 O129 2.612 1_655 S
Eu84 O131 2.339 . S
Eu84 O132 2.563 1_655 S
Eu84 O133 2.419 . S
Eu84 O135 2.380 1_655 S
Eu84 O136 2.432 1_655 S
Eu84 C148 2.848 . S
C85 C88 1.429 . S
C85 C89 1.411 . S
C85 N92 1.377 . S
C86 C88 1.420 . S
C86 C90 1.423 . S
C86 C98 1.392 . S
C87 C89 1.420 . S
C87 C90 1.351 . S
C87 H110 0.931 . S
C88 C85 1.429 . S
C88 C86 1.420 . S
C88 N96 1.362 . S
C89 C85 1.411 . S
C89 C87 1.420 . S
C89 C94 1.395 . S
C90 C86 1.423 . S
C90 C87 1.351 . S
C90 H102 0.930 . S
C91 C93 1.400 . S
C91 C94 1.386 . S
C91 H103 0.930 . S
N92 C85 1.377 . S
N92 C93 1.321 . S
N92 Eu95 2.609 . S
C93 C91 1.400 . S
C93 N92 1.321 . S
C93 H100 0.930 . S
C94 C89 1.395 . S
C94 C91 1.386 . S
C94 H113 0.930 . S
Eu95 N92 2.609 . S
Eu95 N96 2.657 . S
Eu95 O129 2.380 . S
Eu95 O130 2.432 . S
Eu95 O134 2.558 . S
Eu95 O135 2.612 . S
Eu95 O137 2.339 . S
Eu95 O138 2.563 . S
Eu95 O139 2.419 . S
Eu95 C159 2.848 . S
N96 C88 1.362 . S
N96 Eu95 2.657 . S
N96 C97 1.334 . S
C97 N96 1.334 . S
C97 C99 1.413 . S
C97 H104 0.929 . S
C98 C86 1.392 . S
C98 C99 1.367 . S
C98 H106 0.930 . S
C99 C97 1.413 . S
C99 C98 1.367 . S
C99 H101 0.930 . S
H100 C93 0.930 . S
H101 C99 0.930 . S
H102 C90 0.930 . S
H103 C91 0.930 . S
H104 C97 0.929 . S
H105 C119 0.930 . S
H106 C98 0.930 . S
H107 C125 0.930 1_455 S
H108 C116 0.929 . S
H109 C123 0.956 . S
H110 C87 0.931 . S
H111 C117 0.930 . S
H112 C150 0.930 . S
H113 C94 0.930 . S
H114 C149 0.931 . S
N115 Eu84 2.657 . S
N115 C116 1.334 . S
N115 C120 1.362 . S
C116 H108 0.929 . S
C116 N115 1.334 . S
C116 C119 1.413 . S
C117 H111 0.930 . S
C117 C118 1.392 . S
C117 C119 1.367 . S
C118 C117 1.392 . S
C118 C120 1.420 . S
C118 C150 1.423 . S
C119 H105 0.930 . S
C119 C116 1.413 . S
C119 C117 1.367 . S
C120 N115 1.362 . S
C120 C118 1.420 . S
C120 C124 1.429 . S
H121 C126 0.930 . S
N122 Eu84 2.609 . S
N122 C124 1.377 . S
N122 C125 1.321 . S
C123 H109 0.956 . S
C123 C125 1.400 . S
C123 C126 1.386 . S
C124 C120 1.429 . S
C124 N122 1.377 . S
C124 C127 1.411 . S
C125 H107 0.930 1_655 S
C125 N122 1.321 . S
C125 C123 1.400 . S
C126 H121 0.930 . S
C126 C123 1.386 . S
C126 C127 1.395 . S
C127 C124 1.411 . S
C127 C126 1.395 . S
C127 C149 1.420 . S
O128 Eu84 2.558 . S
O128 C148 1.257 . S
O129 Eu84 2.612 1_455 S
O129 Eu95 2.380 . S
O129 C140 1.276 . S
O130 Eu95 2.432 . S
O130 C147 1.264 1_455 S
O131 Eu84 2.339 . S
O131 C147 1.254 . S
O132 Eu84 2.563 1_455 S
O132 C140 1.235 . S
O133 Eu84 2.419 . S
O133 C148 1.249 . S
O134 Eu95 2.558 . S
O134 C159 1.257 . S
O135 Eu84 2.380 1_455 S
O135 Eu95 2.612 . S
O135 C151 1.276 . S
O136 Eu84 2.432 1_455 S
O136 C158 1.264 . S
O137 Eu95 2.339 . S
O137 C158 1.254 . S
O138 Eu95 2.563 . S
O138 C151 1.235 . S
O139 Eu95 2.419 . S
O139 C159 1.249 . S
C140 O129 1.276 . S
C140 O132 1.235 . S
C141 C143 1.393 . S
C141 C145 1.395 . S
C141 C148 1.492 . S
C142 C143 1.392 . S
C142 C144 1.386 . S
C143 C141 1.393 . S
C143 C142 1.392 . S
C143 H160 0.930 . S
C144 C142 1.386 . S
C144 C146 1.395 . S
C144 H161 0.930 . S
C145 C141 1.395 . S
C145 C146 1.379 . S
C145 H162 0.930 . S
C146 C144 1.395 . S
C146 C145 1.379 . S
C146 H163 0.930 . S
C147 O130 1.264 1_655 S
C147 O131 1.254 . S
C148 Eu84 2.848 . S
C148 O128 1.257 . S
C148 O133 1.249 . S
C148 C141 1.492 . S
C149 H114 0.931 . S
C149 C127 1.420 . S
C149 C150 1.351 . S
C150 H112 0.930 . S
C150 C118 1.423 . S
C150 C149 1.351 . S
C151 O135 1.276 . S
C151 O138 1.235 . S
C152 C153 1.393 . S
C152 C156 1.395 . S
C152 C159 1.492 . S
C153 C152 1.393 . S
C153 C154 1.392 . S
C153 H164 0.930 . S
C154 C153 1.392 . S
C154 C155 1.386 . S
C155 C154 1.386 . S
C155 C157 1.395 . S
C155 H165 0.930 . S
C156 C152 1.395 . S
C156 C157 1.379 . S
C156 H166 0.930 . S
C157 C155 1.395 . S
C157 C156 1.379 . S
C157 H167 0.930 . S
C158 O136 1.264 . S
C158 O137 1.254 . S
C159 Eu95 2.848 . S
C159 O134 1.257 . S
C159 O139 1.249 . S
C159 C152 1.492 . S
H160 C143 0.930 . S
H161 C144 0.930 . S
H162 C145 0.930 . S
H163 C146 0.930 . S
H164 C153 0.930 . S
H165 C155 0.930 . S
H166 C156 0.930 . S
H167 C157 0.930 . S
Eu168 N199 2.657 . S
Eu168 N206 2.609 . S
Eu168 O212 2.558 . S
Eu168 O213 2.612 . S
Eu168 O215 2.339 . S
Eu168 O216 2.563 . S
Eu168 O217 2.419 . S
Eu168 O219 2.383 1_556 S
Eu168 O220 2.432 . S
Eu168 C232 2.848 . S
C169 C172 1.429 1_554 S
C169 C173 1.411 . S
C169 N176 1.377 . S
C170 C172 1.420 . S
C170 C174 1.423 . S
C170 C182 1.392 . S
C171 C173 1.420 . S
C171 C174 1.351 1_554 S
C171 H194 0.931 . S
C172 C169 1.429 1_556 S
C172 C170 1.420 . S
C172 N180 1.362 . S
C173 C169 1.411 . S
C173 C171 1.420 . S
C173 C178 1.395 . S
C174 C170 1.423 . S
C174 C171 1.351 1_556 S
C174 H186 0.930 . S
C175 C177 1.400 . S
C175 C178 1.386 . S
C175 H187 0.930 . S
N176 C169 1.377 . S
N176 C177 1.321 . S
N176 Eu179 2.609 . S
C177 C175 1.400 . S
C177 N176 1.321 . S
C177 H184 0.930 . S
C178 C173 1.395 . S
C178 C175 1.386 . S
C178 H197 0.930 . S
Eu179 N176 2.609 . S
Eu179 N180 2.657 1_554 S
Eu179 O213 2.380 1_554 S
Eu179 O214 2.432 . S
Eu179 O218 2.558 . S
Eu179 O219 2.612 . S
Eu179 O221 2.339 1_554 S
Eu179 O222 2.563 . S
Eu179 O223 2.419 . S
Eu179 C243 2.848 . S
N180 C172 1.362 . S
N180 Eu179 2.657 1_556 S
N180 C181 1.334 . S
C181 N180 1.334 . S
C181 C183 1.413 . S
C181 H188 0.929 . S
C182 C170 1.392 . S
C182 C183 1.367 . S
C182 H190 0.930 . S
C183 C181 1.413 . S
C183 C182 1.367 . S
C183 H185 0.930 . S
H184 C177 0.930 . S
H185 C183 0.930 . S
H186 C174 0.930 . S
H187 C175 0.930 . S
H188 C181 0.929 . S
H189 C203 0.930 . S
H190 C182 0.930 . S
H191 C209 0.930 . S
H192 C200 0.929 . S
H193 C207 0.930 . S
H194 C171 0.931 . S
H195 C201 0.930 . S
H196 C234 0.930 . S
H197 C178 0.930 . S
H198 C233 0.931 . S
N199 Eu168 2.657 . S
N199 C200 1.334 1_556 S
N199 C204 1.362 . S
C200 H192 0.929 . S
C200 N199 1.334 1_554 S
C200 C203 1.413 . S
C201 H195 0.930 . S
C201 C202 1.392 1_554 S
C201 C203 1.367 . S
C202 C201 1.392 1_556 S
C202 C204 1.420 . S
C202 C234 1.423 . S
C203 H189 0.930 . S
C203 C200 1.413 . S
C203 C201 1.367 . S
C204 N199 1.362 . S
C204 C202 1.420 . S
C204 C208 1.429 . S
H205 C210 0.930 . S
N206 Eu168 2.609 . S
N206 C208 1.377 . S
N206 C209 1.321 . S
C207 H193 0.930 . S
C207 C209 1.400 . S
C207 C210 1.386 . S
C208 C204 1.429 . S
C208 N206 1.377 . S
C208 C211 1.411 . S
C209 H191 0.930 . S
C209 N206 1.321 . S
C209 C207 1.400 . S
C210 H205 0.930 . S
C210 C207 1.386 . S
C210 C211 1.395 . S
C211 C208 1.411 . S
C211 C210 1.395 . S
C211 C233 1.420 . S
O212 Eu168 2.558 . S
O212 C232 1.257 . S
O213 Eu168 2.612 . S
O213 Eu179 2.380 1_556 S
O213 C224 1.276 . S
O214 Eu179 2.432 . S
O214 C231 1.296 . S
O215 Eu168 2.339 . S
O215 C231 1.225 1_556 S
O216 Eu168 2.563 . S
O216 C224 1.235 . S
O217 Eu168 2.419 . S
O217 C232 1.249 . S
O218 Eu179 2.558 . S
O218 C243 1.257 . S
O219 Eu168 2.383 1_554 S
O219 Eu179 2.612 . S
O219 C235 1.273 . S
O220 Eu168 2.432 . S
O220 C242 1.264 . S
O221 Eu179 2.339 1_556 S
O221 C242 1.254 . S
O222 Eu179 2.563 . S
O222 C235 1.235 . S
O223 Eu179 2.419 . S
O223 C243 1.249 . S
C224 O213 1.276 . S
C224 O216 1.235 . S
C225 C227 1.393 . S
C225 C229 1.395 . S
C225 C232 1.492 . S
C226 C227 1.392 . S
C226 C228 1.386 . S
C227 C225 1.393 . S
C227 C226 1.392 . S
C227 H244 0.930 . S
C228 C226 1.386 . S
C228 C230 1.395 . S
C228 H245 0.930 . S
C229 C225 1.395 . S
C229 C230 1.379 . S
C229 H246 0.930 . S
C230 C228 1.395 . S
C230 C229 1.379 . S
C230 H247 0.930 . S
C231 O214 1.296 . S
C231 O215 1.225 1_554 S
C232 Eu168 2.848 . S
C232 O212 1.257 . S
C232 O217 1.249 . S
C232 C225 1.492 . S
C233 H198 0.931 . S
C233 C211 1.420 . S
C233 C234 1.351 . S
C234 H196 0.930 . S
C234 C202 1.423 . S
C234 C233 1.351 . S
C235 O219 1.273 . S
C235 O222 1.235 . S
C236 C237 1.393 . S
C236 C240 1.395 . S
C236 C243 1.492 . S
C237 C236 1.393 . S
C237 C238 1.392 . S
C237 H248 0.930 . S
C238 C237 1.392 . S
C238 C239 1.386 . S
C239 C238 1.386 . S
C239 C241 1.395 . S
C239 H249 0.930 . S
C240 C236 1.395 . S
C240 C241 1.379 . S
C240 H250 0.930 . S
C241 C239 1.395 . S
C241 C240 1.379 . S
C241 H251 0.930 . S
C242 O220 1.264 . S
C242 O221 1.254 . S
C243 Eu179 2.848 . S
C243 O218 1.257 . S
C243 O223 1.249 . S
C243 C236 1.492 . S
H244 C227 0.930 . S
H245 C228 0.930 . S
H246 C229 0.930 . S
H247 C230 0.930 . S
H248 C237 0.930 . S
H249 C239 0.930 . S
H250 C240 0.930 . S
H251 C241 0.930 . S
Eu252 N283 2.657 . S
Eu252 N290 2.609 . S
Eu252 O296 2.558 . S
Eu252 O297 2.612 . S
Eu252 O299 2.339 . S
Eu252 O300 2.563 . S
Eu252 O301 2.419 . S
Eu252 O303 2.380 . S
Eu252 O304 2.432 . S
Eu252 C316 2.848 . S
C253 C256 1.429 . S
C253 C257 1.411 . S
C253 N260 1.377 . S
C254 C256 1.420 . S
C254 C258 1.423 . S
C254 C266 1.392 . S
C255 C257 1.420 . S
C255 C258 1.351 . S
C255 H278 0.931 . S
C256 C253 1.429 . S
C256 C254 1.420 . S
C256 N264 1.362 . S
C257 C253 1.411 . S
C257 C255 1.420 . S
C257 C262 1.395 . S
C258 C254 1.423 . S
C258 C255 1.351 . S
C258 H270 0.930 . S
C259 C261 1.400 . S
C259 C262 1.386 . S
C259 H271 0.930 . S
N260 C253 1.377 . S
N260 C261 1.321 . S
N260 Eu263 2.609 . S
C261 C259 1.400 . S
C261 N260 1.321 . S
C261 H268 0.930 . S
C262 C257 1.395 . S
C262 C259 1.386 . S
C262 H281 0.930 . S
Eu263 N260 2.609 . S
Eu263 N264 2.657 . S
Eu263 O297 2.380 . S
Eu263 O298 2.432 . S
Eu263 O302 2.558 . S
Eu263 O303 2.612 . S
Eu263 O305 2.339 . S
Eu263 O306 2.563 . S
Eu263 O307 2.419 . S
Eu263 C327 2.848 . S
N264 C256 1.362 . S
N264 Eu263 2.657 . S
N264 C265 1.334 . S
C265 N264 1.334 . S
C265 C267 1.413 . S
C265 H272 0.929 . S
C266 C254 1.392 . S
C266 C267 1.367 . S
C266 H274 0.930 . S
C267 C265 1.413 . S
C267 C266 1.367 . S
C267 H269 0.930 . S
H268 C261 0.930 . S
H269 C267 0.930 . S
H270 C258 0.930 . S
H271 C259 0.930 . S
H272 C265 0.929 . S
H273 C287 0.930 . S
H274 C266 0.930 . S
H275 C293 0.930 . S
H276 C284 0.929 . S
H277 C291 0.930 . S
H278 C255 0.931 . S
H279 C285 0.930 . S
H280 C318 0.930 . S
H281 C262 0.930 . S
H282 C317 0.931 . S
N283 Eu252 2.657 . S
N283 C284 1.334 . S
N283 C288 1.362 . S
C284 H276 0.929 . S
C284 N283 1.334 . S
C284 C287 1.413 . S
C285 H279 0.930 . S
C285 C286 1.392 . S
C285 C287 1.367 . S
C286 C285 1.392 . S
C286 C288 1.420 . S
C286 C318 1.423 . S
C287 H273 0.930 . S
C287 C284 1.413 . S
C287 C285 1.367 . S
C288 N283 1.362 . S
C288 C286 1.420 . S
C288 C292 1.429 . S
H289 C294 0.930 . S
N290 Eu252 2.609 . S
N290 C292 1.377 . S
N290 C293 1.321 . S
C291 H277 0.930 . S
C291 C293 1.400 . S
C291 C294 1.386 . S
C292 C288 1.429 . S
C292 N290 1.377 . S
C292 C295 1.411 . S
C293 H275 0.930 . S
C293 N290 1.321 . S
C293 C291 1.400 . S
C294 H289 0.930 . S
C294 C291 1.386 . S
C294 C295 1.395 . S
C295 C292 1.411 . S
C295 C294 1.395 . S
C295 C317 1.420 . S
O296 Eu252 2.558 . S
O296 C316 1.257 . S
O297 Eu252 2.612 . S
O297 Eu263 2.380 . S
O297 C308 1.276 . S
O298 Eu263 2.432 . S
O298 C315 1.264 . S
O299 Eu252 2.339 . S
O299 C315 1.254 . S
O300 Eu252 2.563 . S
O300 C308 1.235 . S
O301 Eu252 2.419 . S
O301 C316 1.249 . S
O302 Eu263 2.558 . S
O302 C327 1.257 . S
O303 Eu252 2.380 . S
O303 Eu263 2.612 . S
O303 C319 1.276 . S
O304 Eu252 2.432 . S
O304 C326 1.264 . S
O305 Eu263 2.339 . S
O305 C326 1.254 . S
O306 Eu263 2.563 . S
O306 C319 1.235 . S
O307 Eu263 2.419 . S
O307 C327 1.249 . S
C308 O297 1.276 . S
C308 O300 1.235 . S
C309 C311 1.393 . S
C309 C313 1.395 . S
C309 C316 1.492 . S
C310 C311 1.392 . S
C310 C312 1.386 . S
C311 C309 1.393 . S
C311 C310 1.392 . S
C311 H328 0.930 . S
C312 C310 1.386 . S
C312 C314 1.395 . S
C312 H329 0.930 . S
C313 C309 1.395 . S
C313 C314 1.379 . S
C313 H330 0.930 . S
C314 C312 1.395 . S
C314 C313 1.379 . S
C314 H331 0.930 . S
C315 O298 1.264 . S
C315 O299 1.254 . S
C316 Eu252 2.848 . S
C316 O296 1.257 . S
C316 O301 1.249 . S
C316 C309 1.492 . S
C317 H282 0.931 . S
C317 C295 1.420 . S
C317 C318 1.351 . S
C318 H280 0.930 . S
C318 C286 1.423 . S
C318 C317 1.351 . S
C319 O303 1.276 . S
C319 O306 1.235 . S
C320 C321 1.393 . S
C320 C324 1.395 . S
C320 C327 1.492 . S
C321 C320 1.393 . S
C321 C322 1.392 . S
C321 H332 0.930 . S
C322 C321 1.392 . S
C322 C323 1.386 . S
C323 C322 1.386 . S
C323 C325 1.395 . S
C323 H333 0.930 . S
C324 C320 1.395 . S
C324 C325 1.379 . S
C324 H334 0.930 . S
C325 C323 1.395 . S
C325 C324 1.379 . S
C325 H335 0.930 . S
C326 O304 1.264 . S
C326 O305 1.254 . S
C327 Eu263 2.848 . S
C327 O302 1.257 . S
C327 O307 1.249 . S
C327 C320 1.492 . S
H328 C311 0.930 . S
H329 C312 0.930 . S
H330 C313 0.930 . S
H331 C314 0.930 . S
H332 C321 0.930 . S
H333 C323 0.930 . S
H334 C324 0.930 . S
H335 C325 0.930 . S
Eu336 N367 2.657 . S
Eu336 N374 2.609 . S
Eu336 O380 2.558 . S
Eu336 O381 2.612 . S
Eu336 O383 2.339 . S
Eu336 O384 2.563 . S
Eu336 O385 2.419 . S
Eu336 O387 2.380 . S
Eu336 O388 2.432 . S
Eu336 C400 2.848 . S
C337 C340 1.429 . S
C337 C341 1.411 . S
C337 N344 1.377 . S
C338 C340 1.420 . S
C338 C342 1.423 . S
C338 C350 1.392 . S
C339 C341 1.420 . S
C339 C342 1.351 . S
C339 H362 0.931 . S
C340 C337 1.429 . S
C340 C338 1.420 . S
C340 N348 1.362 . S
C341 C337 1.411 . S
C341 C339 1.420 . S
C341 C346 1.395 . S
C342 C338 1.423 . S
C342 C339 1.351 . S
C342 H354 0.930 . S
C343 C345 1.400 . S
C343 C346 1.386 . S
C343 H355 0.930 . S
N344 C337 1.377 . S
N344 C345 1.321 . S
N344 Eu347 2.609 . S
C345 C343 1.400 . S
C345 N344 1.321 . S
C345 H352 0.930 . S
C346 C341 1.395 . S
C346 C343 1.386 . S
C346 H365 0.930 . S
Eu347 N344 2.609 . S
Eu347 N348 2.657 . S
Eu347 O381 2.380 . S
Eu347 O382 2.432 . S
Eu347 O386 2.558 . S
Eu347 O387 2.612 . S
Eu347 O389 2.339 . S
Eu347 O390 2.563 . S
Eu347 O391 2.419 . S
Eu347 C411 2.848 . S
N348 C340 1.362 . S
N348 Eu347 2.657 . S
N348 C349 1.334 . S
C349 N348 1.334 . S
C349 C351 1.413 . S
C349 H356 0.929 . S
C350 C338 1.392 . S
C350 C351 1.367 . S
C350 H358 0.930 . S
C351 C349 1.413 . S
C351 C350 1.367 . S
C351 H353 0.930 . S
H352 C345 0.930 . S
H353 C351 0.930 . S
H354 C342 0.930 . S
H355 C343 0.930 . S
H356 C349 0.929 . S
H357 C371 0.930 . S
H358 C350 0.930 . S
H359 C377 0.930 . S
H360 C368 0.929 . S
H361 C375 0.930 . S
H362 C339 0.931 . S
H363 C369 0.930 . S
H364 C402 0.930 . S
H365 C346 0.930 . S
H366 C401 0.931 . S
N367 Eu336 2.657 . S
N367 C368 1.334 . S
N367 C372 1.362 . S
C368 H360 0.929 . S
C368 N367 1.334 . S
C368 C371 1.413 . S
C369 H363 0.930 . S
C369 C370 1.392 . S
C369 C371 1.367 . S
C370 C369 1.392 . S
C370 C372 1.420 . S
C370 C402 1.423 . S
C371 H357 0.930 . S
C371 C368 1.413 . S
C371 C369 1.367 . S
C372 N367 1.362 . S
C372 C370 1.420 . S
C372 C376 1.429 . S
H373 C378 0.930 . S
N374 Eu336 2.609 . S
N374 C376 1.377 . S
N374 C377 1.321 . S
C375 H361 0.930 . S
C375 C377 1.400 . S
C375 C378 1.386 . S
C376 C372 1.429 . S
C376 N374 1.377 . S
C376 C379 1.411 . S
C377 H359 0.930 . S
C377 N374 1.321 . S
C377 C375 1.400 . S
C378 H373 0.930 . S
C378 C375 1.386 . S
C378 C379 1.395 . S
C379 C376 1.411 . S
C379 C378 1.395 . S
C379 C401 1.420 . S
O380 Eu336 2.558 . S
O380 C400 1.257 . S
O381 Eu336 2.612 . S
O381 Eu347 2.380 . S
O381 C392 1.276 . S
O382 Eu347 2.432 . S
O382 C399 1.264 . S
O383 Eu336 2.339 . S
O383 C399 1.254 . S
O384 Eu336 2.563 . S
O384 C392 1.235 . S
O385 Eu336 2.419 . S
O385 C400 1.249 . S
O386 Eu347 2.558 . S
O386 C411 1.257 . S
O387 Eu336 2.380 . S
O387 Eu347 2.612 . S
O387 C403 1.276 . S
O388 Eu336 2.432 . S
O388 C410 1.264 . S
O389 Eu347 2.339 . S
O389 C410 1.254 . S
O390 Eu347 2.563 . S
O390 C403 1.235 . S
O391 Eu347 2.419 . S
O391 C411 1.249 . S
C392 O381 1.276 . S
C392 O384 1.235 . S
C393 C395 1.393 . S
C393 C397 1.395 . S
C393 C400 1.492 . S
C394 C395 1.392 . S
C394 C396 1.386 . S
C395 C393 1.393 . S
C395 C394 1.392 . S
C395 H412 0.930 . S
C396 C394 1.386 . S
C396 C398 1.395 . S
C396 H413 0.930 . S
C397 C393 1.395 . S
C397 C398 1.379 . S
C397 H414 0.930 . S
C398 C396 1.395 . S
C398 C397 1.379 . S
C398 H415 0.930 . S
C399 O382 1.264 . S
C399 O383 1.254 . S
C400 Eu336 2.848 . S
C400 O380 1.257 . S
C400 O385 1.249 . S
C400 C393 1.492 . S
C401 H366 0.931 . S
C401 C379 1.420 . S
C401 C402 1.351 . S
C402 H364 0.930 . S
C402 C370 1.423 . S
C402 C401 1.351 . S
C403 O387 1.276 . S
C403 O390 1.235 . S
C404 C405 1.393 . S
C404 C408 1.395 . S
C404 C411 1.492 . S
C405 C404 1.393 . S
C405 C406 1.392 . S
C405 H416 0.930 . S
C406 C405 1.392 . S
C406 C407 1.386 . S
C407 C406 1.386 . S
C407 C409 1.395 . S
C407 H417 0.930 . S
C408 C404 1.395 . S
C408 C409 1.379 . S
C408 H418 0.930 . S
C409 C407 1.395 . S
C409 C408 1.379 . S
C409 H419 0.930 . S
C410 O388 1.264 . S
C410 O389 1.254 . S
C411 Eu347 2.848 . S
C411 O386 1.257 . S
C411 O391 1.249 . S
C411 C404 1.492 . S
H412 C395 0.930 . S
H413 C396 0.930 . S
H414 C397 0.930 . S
H415 C398 0.930 . S
H416 C405 0.930 . S
H417 C407 0.930 . S
H418 C408 0.930 . S
H419 C409 0.930 . S
Eu420 N451 2.657 . S
Eu420 N458 2.609 . S
Eu420 O464 2.558 . S
Eu420 O465 2.612 . S
Eu420 O467 2.339 . S
Eu420 O468 2.563 . S
Eu420 O469 2.419 . S
Eu420 O471 2.357 1_655 S
Eu420 O472 2.432 . S
Eu420 C484 2.848 . S
C421 C424 1.429 1_455 S
C421 C425 1.411 . S
C421 N428 1.377 . S
C422 C424 1.420 . S
C422 C426 1.423 . S
C422 C434 1.392 . S
C423 C425 1.420 . S
C423 C426 1.351 1_455 S
C423 H446 0.931 . S
C424 C421 1.429 1_655 S
C424 C422 1.420 . S
C424 N432 1.362 . S
C425 C421 1.411 . S
C425 C423 1.420 . S
C425 C430 1.395 . S
C426 C422 1.423 . S
C426 C423 1.351 1_655 S
C426 H438 0.930 . S
C427 C429 1.400 . S
C427 C430 1.386 . S
C427 H439 0.930 . S
N428 C421 1.377 . S
N428 C429 1.321 . S
N428 Eu431 2.609 . S
C429 C427 1.400 . S
C429 N428 1.321 . S
C429 H436 0.930 . S
C430 C425 1.395 . S
C430 C427 1.386 . S
C430 H449 0.930 . S
Eu431 N428 2.609 . S
Eu431 N432 2.657 1_455 S
Eu431 O465 2.380 1_455 S
Eu431 O466 2.432 . S
Eu431 O470 2.558 . S
Eu431 O471 2.618 . S
Eu431 O473 2.339 1_455 S
Eu431 O474 2.563 . S
Eu431 O475 2.419 . S
Eu431 C495 2.848 . S
N432 C424 1.362 . S
N432 Eu431 2.657 1_655 S
N432 C433 1.334 . S
C433 N432 1.334 . S
C433 C435 1.413 . S
C433 H440 0.929 . S
C434 C422 1.392 . S
C434 C435 1.367 . S
C434 H442 0.930 . S
C435 C433 1.413 . S
C435 C434 1.367 . S
C435 H437 0.930 . S
H436 C429 0.930 . S
H437 C435 0.930 . S
H438 C426 0.930 . S
H439 C427 0.930 . S
H440 C433 0.929 . S
H441 C455 0.930 . S
H442 C434 0.930 . S
H443 C461 0.930 . S
H444 C452 0.929 . S
H445 C459 0.930 . S
H446 C423 0.931 . S
H447 C453 0.930 . S
H448 C486 0.930 . S
H449 C430 0.930 . S
H450 C485 0.931 . S
N451 Eu420 2.657 . S
N451 C452 1.334 1_655 S
N451 C456 1.362 . S
C452 H444 0.929 . S
C452 N451 1.334 1_455 S
C452 C455 1.413 . S
C453 H447 0.930 . S
C453 C454 1.392 1_455 S
C453 C455 1.367 . S
C454 C453 1.392 1_655 S
C454 C456 1.420 . S
C454 C486 1.423 . S
C455 H441 0.930 . S
C455 C452 1.413 . S
C455 C453 1.367 . S
C456 N451 1.362 . S
C456 C454 1.420 . S
C456 C460 1.429 . S
H457 C462 0.930 . S
N458 Eu420 2.609 . S
N458 C460 1.377 . S
N458 C461 1.321 . S
C459 H445 0.930 . S
C459 C461 1.400 . S
C459 C462 1.386 . S
C460 C456 1.429 . S
C460 N458 1.377 . S
C460 C463 1.411 . S
C461 H443 0.930 . S
C461 N458 1.321 . S
C461 C459 1.400 . S
C462 H457 0.930 . S
C462 C459 1.386 . S
C462 C463 1.395 . S
C463 C460 1.411 . S
C463 C462 1.395 . S
C463 C485 1.420 . S
O464 Eu420 2.558 . S
O464 C484 1.257 . S
O465 Eu420 2.612 . S
O465 Eu431 2.380 1_655 S
O465 C476 1.276 . S
O466 Eu431 2.432 . S
O466 C483 1.264 . S
O467 Eu420 2.339 . S
O467 C483 1.254 1_655 S
O468 Eu420 2.563 . S
O468 C476 1.235 . S
O469 Eu420 2.419 . S
O469 C484 1.249 . S
O470 Eu431 2.558 . S
O470 C495 1.257 . S
O471 Eu420 2.357 1_455 S
O471 Eu431 2.618 . S
O471 C487 1.300 . S
O472 Eu420 2.432 . S
O472 C494 1.264 . S
O473 Eu431 2.339 1_655 S
O473 C494 1.254 . S
O474 Eu431 2.563 . S
O474 C487 1.235 . S
O475 Eu431 2.419 . S
O475 C495 1.249 . S
C476 O465 1.276 . S
C476 O468 1.235 . S
C477 C479 1.393 . S
C477 C481 1.395 . S
C477 C484 1.492 . S
C478 C479 1.392 . S
C478 C480 1.386 . S
C479 C477 1.393 . S
C479 C478 1.392 . S
C479 H496 0.930 . S
C480 C478 1.386 . S
C480 C482 1.395 . S
C480 H497 0.930 . S
C481 C477 1.395 . S
C481 C482 1.379 . S
C481 H498 0.930 . S
C482 C480 1.395 . S
C482 C481 1.379 . S
C482 H499 0.930 . S
C483 O466 1.264 . S
C483 O467 1.254 1_455 S
C484 Eu420 2.848 . S
C484 O464 1.257 . S
C484 O469 1.249 . S
C484 C477 1.492 . S
C485 H450 0.931 . S
C485 C463 1.420 . S
C485 C486 1.351 . S
C486 H448 0.930 . S
C486 C454 1.423 . S
C486 C485 1.351 . S
C487 O471 1.300 . S
C487 O474 1.235 . S
C488 C489 1.393 . S
C488 C492 1.395 . S
C488 C495 1.492 . S
C489 C488 1.393 . S
C489 C490 1.392 . S
C489 H500 0.930 . S
C490 C489 1.392 . S
C490 C491 1.386 . S
C491 C490 1.386 . S
C491 C493 1.395 . S
C491 H501 0.930 . S
C492 C488 1.395 . S
C492 C493 1.379 . S
C492 H502 0.930 . S
C493 C491 1.395 . S
C493 C492 1.379 . S
C493 H503 0.930 . S
C494 O472 1.264 . S
C494 O473 1.254 . S
C495 Eu431 2.848 . S
C495 O470 1.257 . S
C495 O475 1.249 . S
C495 C488 1.492 . S
H496 C479 0.930 . S
H497 C480 0.930 . S
H498 C481 0.930 . S
H499 C482 0.930 . S
H500 C489 0.930 . S
H501 C491 0.930 . S
H502 C492 0.930 . S
H503 C493 0.930 . S
Eu504 N535 2.657 . S
Eu504 N542 2.609 . S
Eu504 O548 2.558 . S
Eu504 O549 2.612 . S
Eu504 O551 2.339 . S
Eu504 O552 2.563 . S
Eu504 O553 2.419 . S
Eu504 O555 2.380 . S
Eu504 O556 2.432 . S
Eu504 C568 2.848 . S
C505 C508 1.429 1_556 S
C505 C509 1.411 . S
C505 N512 1.377 . S
C506 C508 1.420 . S
C506 C510 1.423 . S
C506 C518 1.392 . S
C507 C509 1.420 1_554 S
C507 C510 1.351 . S
C507 H530 0.931 1_554 S
C508 C505 1.429 1_554 S
C508 C506 1.420 . S
C508 N516 1.362 . S
C509 C505 1.411 . S
C509 C507 1.420 1_556 S
C509 C514 1.395 . S
C510 C506 1.423 . S
C510 C507 1.351 . S
C510 H522 0.930 . S
C511 C513 1.400 . S
C511 C514 1.386 . S
C511 H523 0.930 . S
N512 C505 1.377 . S
N512 C513 1.321 . S
N512 Eu515 2.609 . S
C513 C511 1.400 . S
C513 N512 1.321 . S
C513 H520 0.930 . S
C514 C509 1.395 . S
C514 C511 1.386 . S
C514 H533 0.930 . S
Eu515 N512 2.609 . S
Eu515 N516 2.657 1_556 S
Eu515 O549 2.380 1_556 S
Eu515 O550 2.432 . S
Eu515 O554 2.558 . S
Eu515 O555 2.612 1_556 S
Eu515 O557 2.339 1_556 S
Eu515 O558 2.563 . S
Eu515 O559 2.419 . S
Eu515 C579 2.848 . S
N516 C508 1.362 . S
N516 Eu515 2.657 1_554 S
N516 C517 1.334 . S
C517 N516 1.334 . S
C517 C519 1.413 . S
C517 H524 0.929 . S
C518 C506 1.392 . S
C518 C519 1.367 . S
C518 H526 0.930 . S
C519 C517 1.413 . S
C519 C518 1.367 . S
C519 H521 0.930 . S
H520 C513 0.930 . S
H521 C519 0.930 . S
H522 C510 0.930 . S
H523 C511 0.930 . S
H524 C517 0.929 . S
H525 C539 0.930 . S
H526 C518 0.930 . S
H527 C545 0.930 . S
H528 C536 0.929 . S
H529 C543 0.930 . S
H530 C507 0.931 1_556 S
H531 C537 0.930 . S
H532 C570 0.930 . S
H533 C514 0.930 . S
H534 C569 0.931 . S
N535 Eu504 2.657 . S
N535 C536 1.334 1_554 S
N535 C540 1.362 . S
C536 H528 0.929 . S
C536 N535 1.334 1_556 S
C536 C539 1.413 . S
C537 H531 0.930 . S
C537 C538 1.392 1_556 S
C537 C539 1.367 . S
C538 C537 1.392 1_554 S
C538 C540 1.420 . S
C538 C570 1.423 . S
C539 H525 0.930 . S
C539 C536 1.413 . S
C539 C537 1.367 . S
C540 N535 1.362 . S
C540 C538 1.420 . S
C540 C544 1.429 . S
H541 C546 0.930 . S
N542 Eu504 2.609 . S
N542 C544 1.377 . S
N542 C545 1.321 . S
C543 H529 0.930 . S
C543 C545 1.400 . S
C543 C546 1.386 . S
C544 C540 1.429 . S
C544 N542 1.377 . S
C544 C547 1.411 . S
C545 H527 0.930 . S
C545 N542 1.321 . S
C545 C543 1.400 . S
C546 H541 0.930 . S
C546 C543 1.386 . S
C546 C547 1.395 . S
C547 C544 1.411 . S
C547 C546 1.395 . S
C547 C569 1.420 . S
O548 Eu504 2.558 . S
O548 C568 1.257 . S
O549 Eu504 2.612 . S
O549 Eu515 2.380 1_554 S
O549 C560 1.276 . S
O550 Eu515 2.432 . S
O550 C567 1.264 1_556 S
O551 Eu504 2.339 . S
O551 C567 1.254 . S
O552 Eu504 2.563 . S
O552 C560 1.235 . S
O553 Eu504 2.419 . S
O553 C568 1.249 . S
O554 Eu515 2.558 . S
O554 C579 1.257 . S
O555 Eu504 2.380 . S
O555 Eu515 2.612 1_554 S
O555 C571 1.276 1_554 S
O556 Eu504 2.432 . S
O556 C578 1.264 . S
O557 Eu515 2.339 1_554 S
O557 C578 1.254 . S
O558 Eu515 2.563 . S
O558 C571 1.235 . S
O559 Eu515 2.419 . S
O559 C579 1.249 . S
C560 O549 1.276 . S
C560 O552 1.235 . S
C561 C563 1.393 . S
C561 C565 1.395 . S
C561 C568 1.492 . S
C562 C563 1.392 . S
C562 C564 1.386 . S
C563 C561 1.393 . S
C563 C562 1.392 . S
C563 H580 0.930 . S
C564 C562 1.386 . S
C564 C566 1.395 . S
C564 H581 0.930 . S
C565 C561 1.395 . S
C565 C566 1.379 . S
C565 H582 0.930 . S
C566 C564 1.395 . S
C566 C565 1.379 . S
C566 H583 0.930 . S
C567 O550 1.264 1_554 S
C567 O551 1.254 . S
C568 Eu504 2.848 . S
C568 O548 1.257 . S
C568 O553 1.249 . S
C568 C561 1.492 . S
C569 H534 0.931 . S
C569 C547 1.420 . S
C569 C570 1.351 . S
C570 H532 0.930 . S
C570 C538 1.423 . S
C570 C569 1.351 . S
C571 O555 1.276 1_556 S
C571 O558 1.235 . S
C572 C573 1.393 . S
C572 C576 1.395 . S
C572 C579 1.492 . S
C573 C572 1.393 . S
C573 C574 1.392 . S
C573 H584 0.930 . S
C574 C573 1.392 . S
C574 C575 1.386 . S
C575 C574 1.386 . S
C575 C577 1.395 . S
C575 H585 0.930 . S
C576 C572 1.395 . S
C576 C577 1.379 . S
C576 H586 0.930 . S
C577 C575 1.395 . S
C577 C576 1.379 . S
C577 H587 0.930 . S
C578 O556 1.264 . S
C578 O557 1.254 . S
C579 Eu515 2.848 . S
C579 O554 1.257 . S
C579 O559 1.249 . S
C579 C572 1.492 . S
H580 C563 0.930 . S
H581 C564 0.930 . S
H582 C565 0.930 . S
H583 C566 0.930 . S
H584 C573 0.930 . S
H585 C575 0.930 . S
H586 C576 0.930 . S
H587 C577 0.930 . S
Eu588 N619 2.657 . S
Eu588 N626 2.609 . S
Eu588 O632 2.558 . S
Eu588 O633 2.612 . S
Eu588 O635 2.339 . S
Eu588 O636 2.563 . S
Eu588 O637 2.419 . S
Eu588 O639 2.380 . S
Eu588 O640 2.432 . S
Eu588 C652 2.848 . S
C589 C592 1.429 . S
C589 C593 1.411 . S
C589 N596 1.377 . S
C590 C592 1.420 . S
C590 C594 1.423 . S
C590 C602 1.392 . S
C591 C593 1.420 . S
C591 C594 1.351 . S
C591 H614 0.931 . S
C592 C589 1.429 . S
C592 C590 1.420 . S
C592 N600 1.362 . S
C593 C589 1.411 . S
C593 C591 1.420 . S
C593 C598 1.395 . S
C594 C590 1.423 . S
C594 C591 1.351 . S
C594 H606 0.930 . S
C595 C597 1.400 . S
C595 C598 1.386 . S
C595 H607 0.930 . S
N596 C589 1.377 . S
N596 C597 1.321 . S
N596 Eu599 2.609 . S
C597 C595 1.400 . S
C597 N596 1.321 . S
C597 H604 0.930 . S
C598 C593 1.395 . S
C598 C595 1.386 . S
C598 H617 0.930 . S
Eu599 N596 2.609 . S
Eu599 N600 2.657 . S
Eu599 O633 2.380 . S
Eu599 O634 2.432 . S
Eu599 O638 2.558 . S
Eu599 O639 2.612 . S
Eu599 O641 2.339 . S
Eu599 O642 2.563 . S
Eu599 O643 2.419 . S
Eu599 C663 2.848 . S
N600 C592 1.362 . S
N600 Eu599 2.657 . S
N600 C601 1.334 . S
C601 N600 1.334 . S
C601 C603 1.413 . S
C601 H608 0.929 . S
C602 C590 1.392 . S
C602 C603 1.367 . S
C602 H610 0.930 . S
C603 C601 1.413 . S
C603 C602 1.367 . S
C603 H605 0.930 . S
H604 C597 0.930 . S
H605 C603 0.930 . S
H606 C594 0.930 . S
H607 C595 0.930 . S
H608 C601 0.929 . S
H609 C623 0.930 . S
H610 C602 0.930 . S
H611 C629 0.930 . S
H612 C620 0.929 . S
H613 C627 0.930 . S
H614 C591 0.931 . S
H615 C621 0.930 . S
H616 C654 0.930 . S
H617 C598 0.930 . S
H618 C653 0.931 . S
N619 Eu588 2.657 . S
N619 C620 1.334 . S
N619 C624 1.362 . S
C620 H612 0.929 . S
C620 N619 1.334 . S
C620 C623 1.413 . S
C621 H615 0.930 . S
C621 C622 1.392 . S
C621 C623 1.367 . S
C622 C621 1.392 . S
C622 C624 1.420 . S
C622 C654 1.423 . S
C623 H609 0.930 . S
C623 C620 1.413 . S
C623 C621 1.367 . S
C624 N619 1.362 . S
C624 C622 1.420 . S
C624 C628 1.429 . S
H625 C630 0.930 . S
N626 Eu588 2.609 . S
N626 C628 1.377 . S
N626 C629 1.321 . S
C627 H613 0.930 . S
C627 C629 1.400 . S
C627 C630 1.386 . S
C628 C624 1.429 . S
C628 N626 1.377 . S
C628 C631 1.411 . S
C629 H611 0.930 . S
C629 N626 1.321 . S
C629 C627 1.400 . S
C630 H625 0.930 . S
C630 C627 1.386 . S
C630 C631 1.395 . S
C631 C628 1.411 . S
C631 C630 1.395 . S
C631 C653 1.420 . S
O632 Eu588 2.558 . S
O632 C652 1.257 . S
O633 Eu588 2.612 . S
O633 Eu599 2.380 . S
O633 C644 1.276 . S
O634 Eu599 2.432 . S
O634 C651 1.264 . S
O635 Eu588 2.339 . S
O635 C651 1.254 . S
O636 Eu588 2.563 . S
O636 C644 1.235 . S
O637 Eu588 2.419 . S
O637 C652 1.249 . S
O638 Eu599 2.558 . S
O638 C663 1.257 . S
O639 Eu588 2.380 . S
O639 Eu599 2.612 . S
O639 C655 1.276 . S
O640 Eu588 2.432 . S
O640 C662 1.264 . S
O641 Eu599 2.339 . S
O641 C662 1.254 . S
O642 Eu599 2.563 . S
O642 C655 1.235 . S
O643 Eu599 2.419 . S
O643 C663 1.249 . S
C644 O633 1.276 . S
C644 O636 1.235 . S
C645 C647 1.393 . S
C645 C649 1.395 . S
C645 C652 1.492 . S
C646 C647 1.392 . S
C646 C648 1.386 . S
C647 C645 1.393 . S
C647 C646 1.392 . S
C647 H664 0.930 . S
C648 C646 1.386 . S
C648 C650 1.395 . S
C648 H665 0.930 . S
C649 C645 1.395 . S
C649 C650 1.379 . S
C649 H666 0.930 . S
C650 C648 1.395 . S
C650 C649 1.379 . S
C650 H667 0.930 . S
C651 O634 1.264 . S
C651 O635 1.254 . S
C652 Eu588 2.848 . S
C652 O632 1.257 . S
C652 O637 1.249 . S
C652 C645 1.492 . S
C653 H618 0.931 . S
C653 C631 1.420 . S
C653 C654 1.351 . S
C654 H616 0.930 . S
C654 C622 1.423 . S
C654 C653 1.351 . S
C655 O639 1.276 . S
C655 O642 1.235 . S
C656 C657 1.393 . S
C656 C660 1.395 . S
C656 C663 1.492 . S
C657 C656 1.393 . S
C657 C658 1.392 . S
C657 H668 0.930 . S
C658 C657 1.392 . S
C658 C659 1.386 . S
C659 C658 1.386 . S
C659 C661 1.395 . S
C659 H669 0.930 . S
C660 C656 1.395 . S
C660 C661 1.379 . S
C660 H670 0.930 . S
C661 C659 1.395 . S
C661 C660 1.379 . S
C661 H671 0.930 . S
C662 O640 1.264 . S
C662 O641 1.254 . S
C663 Eu599 2.848 . S
C663 O638 1.257 . S
C663 O643 1.249 . S
C663 C656 1.492 . S
H664 C647 0.930 . S
H665 C648 0.930 . S
H666 C649 0.930 . S
H667 C650 0.930 . S
H668 C657 0.930 . S
H669 C659 0.930 . S
H670 C660 0.930 . S
H671 C661 0.930 . S
Eu672 N703 2.657 . S
Eu672 N710 2.609 . S
Eu672 O716 2.558 . S
Eu672 O717 2.612 . S
Eu672 O719 2.339 . S
Eu672 O720 2.563 . S
Eu672 O721 2.419 . S
Eu672 O723 2.380 . S
Eu672 O724 2.432 . S
Eu672 C736 2.848 . S
C673 C676 1.429 . S
C673 C677 1.411 . S
C673 N680 1.377 . S
C674 C676 1.420 . S
C674 C678 1.423 . S
C674 C686 1.392 . S
C675 C677 1.420 . S
C675 C678 1.351 . S
C675 H698 0.931 . S
C676 C673 1.429 . S
C676 C674 1.420 . S
C676 N684 1.362 . S
C677 C673 1.411 . S
C677 C675 1.420 . S
C677 C682 1.395 . S
C678 C674 1.423 . S
C678 C675 1.351 . S
C678 H690 0.930 . S
C679 C681 1.400 . S
C679 C682 1.386 . S
C679 H691 0.930 . S
N680 C673 1.377 . S
N680 C681 1.321 . S
N680 Eu683 2.609 . S
C681 C679 1.400 . S
C681 N680 1.321 . S
C681 H688 0.930 . S
C682 C677 1.395 . S
C682 C679 1.386 . S
C682 H701 0.930 . S
Eu683 N680 2.609 . S
Eu683 N684 2.657 . S
Eu683 O717 2.380 . S
Eu683 O718 2.432 . S
Eu683 O722 2.558 . S
Eu683 O723 2.612 . S
Eu683 O725 2.339 . S
Eu683 O726 2.563 . S
Eu683 O727 2.419 . S
Eu683 C747 2.848 . S
N684 C676 1.362 . S
N684 Eu683 2.657 . S
N684 C685 1.334 . S
C685 N684 1.334 . S
C685 C687 1.413 . S
C685 H692 0.929 . S
C686 C674 1.392 . S
C686 C687 1.367 . S
C686 H694 0.930 . S
C687 C685 1.413 . S
C687 C686 1.367 . S
C687 H689 0.930 . S
H688 C681 0.930 . S
H689 C687 0.930 . S
H690 C678 0.930 . S
H691 C679 0.930 . S
H692 C685 0.929 . S
H693 C707 0.930 . S
H694 C686 0.930 . S
H695 C713 0.930 . S
H696 C704 0.929 . S
H697 C711 0.930 . S
H698 C675 0.931 . S
H699 C705 0.930 . S
H700 C738 0.930 . S
H701 C682 0.930 . S
H702 C737 0.931 . S
N703 Eu672 2.657 . S
N703 C704 1.334 . S
N703 C708 1.362 . S
C704 H696 0.929 . S
C704 N703 1.334 . S
C704 C707 1.413 . S
C705 H699 0.930 . S
C705 C706 1.392 . S
C705 C707 1.367 . S
C706 C705 1.392 . S
C706 C708 1.420 . S
C706 C738 1.423 . S
C707 H693 0.930 . S
C707 C704 1.413 . S
C707 C705 1.367 . S
C708 N703 1.362 . S
C708 C706 1.420 . S
C708 C712 1.429 . S
H709 C714 0.930 . S
N710 Eu672 2.609 . S
N710 C712 1.377 . S
N710 C713 1.321 . S
C711 H697 0.930 . S
C711 C713 1.400 . S
C711 C714 1.386 . S
C712 C708 1.429 . S
C712 N710 1.377 . S
C712 C715 1.411 . S
C713 H695 0.930 . S
C713 N710 1.321 . S
C713 C711 1.400 . S
C714 H709 0.930 . S
C714 C711 1.386 . S
C714 C715 1.395 . S
C715 C712 1.411 . S
C715 C714 1.395 . S
C715 C737 1.420 . S
O716 Eu672 2.558 . S
O716 C736 1.257 . S
O717 Eu672 2.612 . S
O717 Eu683 2.380 . S
O717 C728 1.276 . S
O718 Eu683 2.432 . S
O718 C735 1.264 . S
O719 Eu672 2.339 . S
O719 C735 1.254 . S
O720 Eu672 2.563 . S
O720 C728 1.235 . S
O721 Eu672 2.419 . S
O721 C736 1.249 . S
O722 Eu683 2.558 . S
O722 C747 1.257 . S
O723 Eu672 2.380 . S
O723 Eu683 2.612 . S
O723 C739 1.276 . S
O724 Eu672 2.432 . S
O724 C746 1.264 . S
O725 Eu683 2.339 . S
O725 C746 1.254 . S
O726 Eu683 2.563 . S
O726 C739 1.235 . S
O727 Eu683 2.419 . S
O727 C747 1.249 . S
C728 O717 1.276 . S
C728 O720 1.235 . S
C729 C731 1.393 . S
C729 C733 1.395 . S
C729 C736 1.492 . S
C730 C731 1.392 . S
C730 C732 1.386 . S
C731 C729 1.393 . S
C731 C730 1.392 . S
C731 H748 0.930 . S
C732 C730 1.386 . S
C732 C734 1.395 . S
C732 H749 0.930 . S
C733 C729 1.395 . S
C733 C734 1.379 . S
C733 H750 0.930 . S
C734 C732 1.395 . S
C734 C733 1.379 . S
C734 H751 0.930 . S
C735 O718 1.264 . S
C735 O719 1.254 . S
C736 Eu672 2.848 . S
C736 O716 1.257 . S
C736 O721 1.249 . S
C736 C729 1.492 . S
C737 H702 0.931 . S
C737 C715 1.420 . S
C737 C738 1.351 . S
C738 H700 0.930 . S
C738 C706 1.423 . S
C738 C737 1.351 . S
C739 O723 1.276 . S
C739 O726 1.235 . S
C740 C741 1.393 . S
C740 C744 1.395 . S
C740 C747 1.492 . S
C741 C740 1.393 . S
C741 C742 1.392 . S
C741 H752 0.930 . S
C742 C741 1.392 . S
C742 C743 1.386 . S
C743 C742 1.386 . S
C743 C745 1.395 . S
C743 H753 0.930 . S
C744 C740 1.395 . S
C744 C745 1.379 . S
C744 H754 0.930 . S
C745 C743 1.395 . S
C745 C744 1.379 . S
C745 H755 0.930 . S
C746 O724 1.264 . S
C746 O725 1.254 . S
C747 Eu683 2.848 . S
C747 O722 1.257 . S
C747 O727 1.249 . S
C747 C740 1.492 . S
H748 C731 0.930 . S
H749 C732 0.930 . S
H750 C733 0.930 . S
H751 C734 0.930 . S
H752 C741 0.930 . S
H753 C743 0.930 . S
H754 C744 0.930 . S
H755 C745 0.930 . S
Eu756 N787 2.657 . S
Eu756 N794 2.609 . S
Eu756 O800 2.558 . S
Eu756 O801 2.612 . S
Eu756 O803 2.339 . S
Eu756 O804 2.563 . S
Eu756 O805 2.419 . S
Eu756 O807 2.380 . S
Eu756 O808 2.432 . S
Eu756 C820 2.848 . S
C757 C760 1.429 1_565 S
C757 C761 1.411 . S
C757 N764 1.377 . S
C758 C760 1.420 . S
C758 C762 1.423 . S
C758 C770 1.392 . S
C759 C761 1.420 1_545 S
C759 C762 1.351 . S
C759 H782 0.922 1_545 S
C760 C757 1.429 1_545 S
C760 C758 1.420 . S
C760 N768 1.362 . S
C761 C757 1.411 . S
C761 C759 1.420 1_565 S
C761 C766 1.395 . S
C762 C758 1.423 . S
C762 C759 1.351 . S
C762 H774 0.930 . S
C763 C765 1.400 . S
C763 C766 1.386 . S
C763 H775 0.930 . S
N764 C757 1.377 . S
N764 C765 1.321 . S
N764 Eu767 2.609 . S
C765 C763 1.400 . S
C765 N764 1.321 . S
C765 H772 0.930 . S
C766 C761 1.395 . S
C766 C763 1.386 . S
C766 H785 0.930 . S
Eu767 N764 2.609 . S
Eu767 N768 2.657 1_565 S
Eu767 O801 2.380 1_565 S
Eu767 O802 2.432 . S
Eu767 O806 2.558 . S
Eu767 O807 2.612 1_565 S
Eu767 O809 2.339 1_565 S
Eu767 O810 2.563 . S
Eu767 O811 2.419 . S
Eu767 C831 2.848 . S
N768 C760 1.362 . S
N768 Eu767 2.657 1_545 S
N768 C769 1.334 . S
C769 N768 1.334 . S
C769 C771 1.413 . S
C769 H776 0.929 . S
C770 C758 1.392 . S
C770 C771 1.367 . S
C770 H778 0.930 . S
C771 C769 1.413 . S
C771 C770 1.367 . S
C771 H773 0.930 . S
H772 C765 0.930 . S
H773 C771 0.930 . S
H774 C762 0.930 . S
H775 C763 0.930 . S
H776 C769 0.929 . S
H777 C791 0.930 . S
H778 C770 0.930 . S
H779 C797 0.930 . S
H780 C788 0.928 1_565 S
H781 C795 0.930 . S
H782 C759 0.922 1_565 S
H783 C789 0.930 . S
H784 C822 0.930 . S
H785 C766 0.930 . S
H786 C821 0.931 . S
N787 Eu756 2.657 . S
N787 C788 1.339 . S
N787 C792 1.362 . S
C788 H780 0.928 1_545 S
C788 N787 1.339 . S
C788 C791 1.410 1_545 S
C789 H783 0.930 . S
C789 C790 1.392 1_565 S
C789 C791 1.367 . S
C790 C789 1.392 1_545 S
C790 C792 1.420 . S
C790 C822 1.423 . S
C791 H777 0.930 . S
C791 C788 1.410 1_565 S
C791 C789 1.367 . S
C792 N787 1.362 . S
C792 C790 1.420 . S
C792 C796 1.429 . S
H793 C798 0.930 . S
N794 Eu756 2.609 . S
N794 C796 1.377 . S
N794 C797 1.321 . S
C795 H781 0.930 . S
C795 C797 1.400 . S
C795 C798 1.386 . S
C796 C792 1.429 . S
C796 N794 1.377 . S
C796 C799 1.411 . S
C797 H779 0.930 . S
C797 N794 1.321 . S
C797 C795 1.400 . S
C798 H793 0.930 . S
C798 C795 1.386 . S
C798 C799 1.395 . S
C799 C796 1.411 . S
C799 C798 1.395 . S
C799 C821 1.420 . S
O800 Eu756 2.558 . S
O800 C820 1.257 . S
O801 Eu756 2.612 . S
O801 Eu767 2.380 1_545 S
O801 C812 1.276 . S
O802 Eu767 2.432 . S
O802 C819 1.264 1_565 S
O803 Eu756 2.339 . S
O803 C819 1.254 . S
O804 Eu756 2.563 . S
O804 C812 1.235 . S
O805 Eu756 2.419 . S
O805 C820 1.249 . S
O806 Eu767 2.558 . S
O806 C831 1.257 . S
O807 Eu756 2.380 . S
O807 Eu767 2.612 1_545 S
O807 C823 1.276 1_545 S
O808 Eu756 2.432 . S
O808 C830 1.264 . S
O809 Eu767 2.339 1_545 S
O809 C830 1.254 . S
O810 Eu767 2.563 . S
O810 C823 1.235 . S
O811 Eu767 2.419 . S
O811 C831 1.249 . S
C812 O801 1.276 . S
C812 O804 1.235 . S
C813 C815 1.393 . S
C813 C817 1.395 . S
C813 C820 1.492 . S
C814 C815 1.392 . S
C814 C816 1.386 . S
C815 C813 1.393 . S
C815 C814 1.392 . S
C815 H832 0.930 . S
C816 C814 1.386 . S
C816 C818 1.395 . S
C816 H833 0.930 . S
C817 C813 1.395 . S
C817 C818 1.379 . S
C817 H834 0.930 . S
C818 C816 1.395 . S
C818 C817 1.379 . S
C818 H835 0.930 . S
C819 O802 1.264 1_545 S
C819 O803 1.254 . S
C820 Eu756 2.848 . S
C820 O800 1.257 . S
C820 O805 1.249 . S
C820 C813 1.492 . S
C821 H786 0.931 . S
C821 C799 1.420 . S
C821 C822 1.351 . S
C822 H784 0.930 . S
C822 C790 1.423 . S
C822 C821 1.351 . S
C823 O807 1.276 1_565 S
C823 O810 1.235 . S
C824 C825 1.393 . S
C824 C828 1.395 . S
C824 C831 1.492 . S
C825 C824 1.393 . S
C825 C826 1.392 . S
C825 H836 0.930 . S
C826 C825 1.392 . S
C826 C827 1.386 . S
C827 C826 1.386 . S
C827 C829 1.395 . S
C827 H837 0.930 . S
C828 C824 1.395 . S
C828 C829 1.379 . S
C828 H838 0.930 . S
C829 C827 1.395 . S
C829 C828 1.379 . S
C829 H839 0.930 . S
C830 O808 1.264 . S
C830 O809 1.254 . S
C831 Eu767 2.848 . S
C831 O806 1.257 . S
C831 O811 1.249 . S
C831 C824 1.492 . S
H832 C815 0.930 . S
H833 C816 0.930 . S
H834 C817 0.930 . S
H835 C818 0.930 . S
H836 C825 0.930 . S
H837 C827 0.930 . S
H838 C828 0.930 . S
H839 C829 0.930 . S
Eu840 N871 2.657 . S
Eu840 N878 2.609 . S
Eu840 O884 2.558 . S
Eu840 O885 2.612 . S
Eu840 O887 2.339 . S
Eu840 O888 2.563 . S
Eu840 O889 2.419 . S
Eu840 O891 2.380 . S
Eu840 O892 2.432 . S
Eu840 C904 2.848 . S
C841 C844 1.429 1_545 S
C841 C845 1.411 . S
C841 N848 1.377 . S
C842 C844 1.420 . S
C842 C846 1.423 . S
C842 C854 1.392 . S
C843 C845 1.427 . S
C843 C846 1.341 1_545 S
C843 H866 0.934 . S
C844 C841 1.429 1_565 S
C844 C842 1.420 . S
C844 N852 1.362 . S
C845 C841 1.411 . S
C845 C843 1.427 . S
C845 C850 1.395 . S
C846 C842 1.423 . S
C846 C843 1.341 1_565 S
C846 H858 0.930 . S
C847 C849 1.400 . S
C847 C850 1.386 . S
C847 H859 0.930 . S
N848 C841 1.377 . S
N848 C849 1.321 . S
N848 Eu851 2.609 . S
C849 C847 1.400 . S
C849 N848 1.321 . S
C849 H856 0.930 . S
C850 C845 1.395 . S
C850 C847 1.386 . S
C850 H869 0.930 . S
Eu851 N848 2.609 . S
Eu851 N852 2.657 1_545 S
Eu851 O885 2.380 1_545 S
Eu851 O886 2.432 . S
Eu851 O890 2.558 . S
Eu851 O891 2.612 1_545 S
Eu851 O893 2.339 1_545 S
Eu851 O894 2.563 . S
Eu851 O895 2.419 . S
Eu851 C915 2.848 . S
N852 C844 1.362 . S
N852 Eu851 2.657 1_565 S
N852 C853 1.334 . S
C853 N852 1.334 . S
C853 C855 1.413 . S
C853 H860 0.929 . S
C854 C842 1.392 . S
C854 C855 1.367 . S
C854 H862 0.930 . S
C855 C853 1.413 . S
C855 C854 1.367 . S
C855 H857 0.930 . S
H856 C849 0.930 . S
H857 C855 0.930 . S
H858 C846 0.930 . S
H859 C847 0.930 . S
H860 C853 0.929 . S
H861 C875 0.930 . S
H862 C854 0.930 . S
H863 C881 0.930 . S
H864 C872 0.929 . S
H865 C879 0.930 . S
H866 C843 0.934 . S
H867 C873 0.930 . S
H868 C906 0.930 . S
H869 C850 0.930 . S
H870 C905 0.931 . S
N871 Eu840 2.657 . S
N871 C872 1.334 1_565 S
N871 C876 1.362 . S
C872 H864 0.929 . S
C872 N871 1.334 1_545 S
C872 C875 1.413 . S
C873 H867 0.930 . S
C873 C874 1.392 1_545 S
C873 C875 1.367 . S
C874 C873 1.392 1_565 S
C874 C876 1.420 . S
C874 C906 1.423 . S
C875 H861 0.930 . S
C875 C872 1.413 . S
C875 C873 1.367 . S
C876 N871 1.362 . S
C876 C874 1.420 . S
C876 C880 1.429 . S
H877 C882 0.930 . S
N878 Eu840 2.609 . S
N878 C880 1.377 . S
N878 C881 1.321 . S
C879 H865 0.930 . S
C879 C881 1.400 . S
C879 C882 1.386 . S
C880 C876 1.429 . S
C880 N878 1.377 . S
C880 C883 1.411 . S
C881 H863 0.930 . S
C881 N878 1.321 . S
C881 C879 1.400 . S
C882 H877 0.930 . S
C882 C879 1.386 . S
C882 C883 1.395 . S
C883 C880 1.411 . S
C883 C882 1.395 . S
C883 C905 1.420 . S
O884 Eu840 2.558 . S
O884 C904 1.257 . S
O885 Eu840 2.612 . S
O885 Eu851 2.380 1_565 S
O885 C896 1.276 . S
O886 Eu851 2.432 . S
O886 C903 1.253 1_545 S
O887 Eu840 2.339 . S
O887 C903 1.265 . S
O888 Eu840 2.563 . S
O888 C896 1.235 . S
O889 Eu840 2.419 . S
O889 C904 1.249 . S
O890 Eu851 2.558 . S
O890 C915 1.257 . S
O891 Eu840 2.380 . S
O891 Eu851 2.612 1_565 S
O891 C907 1.276 1_565 S
O892 Eu840 2.432 . S
O892 C914 1.264 . S
O893 Eu851 2.339 1_565 S
O893 C914 1.254 . S
O894 Eu851 2.563 . S
O894 C907 1.235 . S
O895 Eu851 2.419 . S
O895 C915 1.249 . S
C896 O885 1.276 . S
C896 O888 1.235 . S
C897 C899 1.393 . S
C897 C901 1.395 . S
C897 C904 1.492 . S
C898 C899 1.392 . S
C898 C900 1.386 . S
C899 C897 1.393 . S
C899 C898 1.392 . S
C899 H916 0.930 . S
C900 C898 1.386 . S
C900 C902 1.395 . S
C900 H917 0.930 . S
C901 C897 1.395 . S
C901 C902 1.379 . S
C901 H918 0.930 . S
C902 C900 1.395 . S
C902 C901 1.379 . S
C902 H919 0.930 . S
C903 O886 1.253 1_565 S
C903 O887 1.265 . S
C904 Eu840 2.848 . S
C904 O884 1.257 . S
C904 O889 1.249 . S
C904 C897 1.492 . S
C905 H870 0.931 . S
C905 C883 1.420 . S
C905 C906 1.351 . S
C906 H868 0.930 . S
C906 C874 1.423 . S
C906 C905 1.351 . S
C907 O891 1.276 1_545 S
C907 O894 1.235 . S
C908 C909 1.393 . S
C908 C912 1.395 . S
C908 C915 1.492 . S
C909 C908 1.393 . S
C909 C910 1.392 . S
C909 H920 0.930 . S
C910 C909 1.392 . S
C910 C911 1.386 . S
C911 C910 1.386 . S
C911 C913 1.395 . S
C911 H921 0.930 . S
C912 C908 1.395 . S
C912 C913 1.379 . S
C912 H922 0.930 . S
C913 C911 1.395 . S
C913 C912 1.379 . S
C913 H923 0.930 . S
C914 O892 1.264 . S
C914 O893 1.254 . S
C915 Eu851 2.848 . S
C915 O890 1.257 . S
C915 O895 1.249 . S
C915 C908 1.492 . S
H916 C899 0.930 . S
H917 C900 0.930 . S
H918 C901 0.930 . S
H919 C902 0.930 . S
H920 C909 0.930 . S
H921 C911 0.930 . S
H922 C912 0.930 . S
H923 C913 0.930 . S
Eu924 N955 2.657 . S
Eu924 N962 2.609 . S
Eu924 O968 2.558 . S
Eu924 O969 2.612 . S
Eu924 O971 2.339 . S
Eu924 O972 2.563 . S
Eu924 O973 2.419 . S
Eu924 O975 2.380 . S
Eu924 O976 2.432 . S
Eu924 C988 2.848 . S
C925 C928 1.429 . S
C925 C929 1.411 . S
C925 N932 1.377 . S
C926 C928 1.420 . S
C926 C930 1.423 . S
C926 C938 1.392 . S
C927 C929 1.420 . S
C927 C930 1.351 . S
C927 H950 0.931 . S
C928 C925 1.429 . S
C928 C926 1.420 . S
C928 N936 1.362 . S
C929 C925 1.411 . S
C929 C927 1.420 . S
C929 C934 1.395 . S
C930 C926 1.423 . S
C930 C927 1.351 . S
C930 H942 0.930 . S
C931 C933 1.400 . S
C931 C934 1.386 . S
C931 H943 0.930 . S
N932 C925 1.377 . S
N932 C933 1.321 . S
N932 Eu935 2.609 . S
C933 C931 1.400 . S
C933 N932 1.321 . S
C933 H940 0.930 . S
C934 C929 1.395 . S
C934 C931 1.386 . S
C934 H953 0.930 . S
Eu935 N932 2.609 . S
Eu935 N936 2.657 . S
Eu935 O969 2.380 . S
Eu935 O970 2.432 . S
Eu935 O974 2.558 . S
Eu935 O975 2.612 . S
Eu935 O977 2.339 . S
Eu935 O978 2.563 . S
Eu935 O979 2.419 . S
Eu935 C999 2.848 . S
N936 C928 1.362 . S
N936 Eu935 2.657 . S
N936 C937 1.334 . S
C937 N936 1.334 . S
C937 C939 1.413 . S
C937 H944 0.929 . S
C938 C926 1.392 . S
C938 C939 1.367 . S
C938 H946 0.930 . S
C939 C937 1.413 . S
C939 C938 1.367 . S
C939 H941 0.930 . S
H940 C933 0.930 . S
H941 C939 0.930 . S
H942 C930 0.930 . S
H943 C931 0.930 . S
H944 C937 0.929 . S
H945 C959 0.930 . S
H946 C938 0.930 . S
H947 C965 0.930 . S
H948 C956 0.929 . S
H949 C963 0.930 . S
H950 C927 0.931 . S
H951 C957 0.930 . S
H952 C990 0.930 . S
H953 C934 0.930 . S
H954 C989 0.931 . S
N955 Eu924 2.657 . S
N955 C956 1.334 . S
N955 C960 1.362 . S
C956 H948 0.929 . S
C956 N955 1.334 . S
C956 C959 1.413 . S
C957 H951 0.930 . S
C957 C958 1.392 . S
C957 C959 1.367 . S
C958 C957 1.392 . S
C958 C960 1.420 . S
C958 C990 1.423 . S
C959 H945 0.930 . S
C959 C956 1.413 . S
C959 C957 1.367 . S
C960 N955 1.362 . S
C960 C958 1.420 . S
C960 C964 1.429 . S
H961 C966 0.930 . S
N962 Eu924 2.609 . S
N962 C964 1.377 . S
N962 C965 1.321 . S
C963 H949 0.930 . S
C963 C965 1.400 . S
C963 C966 1.386 . S
C964 C960 1.429 . S
C964 N962 1.377 . S
C964 C967 1.411 . S
C965 H947 0.930 . S
C965 N962 1.321 . S
C965 C963 1.400 . S
C966 H961 0.930 . S
C966 C963 1.386 . S
C966 C967 1.395 . S
C967 C964 1.411 . S
C967 C966 1.395 . S
C967 C989 1.420 . S
O968 Eu924 2.558 . S
O968 C988 1.257 . S
O969 Eu924 2.612 . S
O969 Eu935 2.380 . S
O969 C980 1.276 . S
O970 Eu935 2.432 . S
O970 C987 1.264 . S
O971 Eu924 2.339 . S
O971 C987 1.254 . S
O972 Eu924 2.563 . S
O972 C980 1.235 . S
O973 Eu924 2.419 . S
O973 C988 1.249 . S
O974 Eu935 2.558 . S
O974 C999 1.257 . S
O975 Eu924 2.380 . S
O975 Eu935 2.612 . S
O975 C991 1.276 . S
O976 Eu924 2.432 . S
O976 C998 1.264 . S
O977 Eu935 2.339 . S
O977 C998 1.254 . S
O978 Eu935 2.563 . S
O978 C991 1.235 . S
O979 Eu935 2.419 . S
O979 C999 1.249 . S
C980 O969 1.276 . S
C980 O972 1.235 . S
C981 C983 1.393 . S
C981 C985 1.395 . S
C981 C988 1.492 . S
C982 C983 1.392 . S
C982 C984 1.386 . S
C983 C981 1.393 . S
C983 C982 1.392 . S
C983 H1000 0.930 . S
C984 C982 1.386 . S
C984 C986 1.395 . S
C984 H1001 0.930 . S
C985 C981 1.395 . S
C985 C986 1.379 . S
C985 H1002 0.930 . S
C986 C984 1.395 . S
C986 C985 1.379 . S
C986 H1003 0.930 . S
C987 O970 1.264 . S
C987 O971 1.254 . S
C988 Eu924 2.848 . S
C988 O968 1.257 . S
C988 O973 1.249 . S
C988 C981 1.492 . S
C989 H954 0.931 . S
C989 C967 1.420 . S
C989 C990 1.351 . S
C990 H952 0.930 . S
C990 C958 1.423 . S
C990 C989 1.351 . S
C991 O975 1.276 . S
C991 O978 1.235 . S
C992 C993 1.393 . S
C992 C996 1.395 . S
C992 C999 1.492 . S
C993 C992 1.393 . S
C993 C994 1.392 . S
C993 H1004 0.930 . S
C994 C993 1.392 . S
C994 C995 1.386 . S
C995 C994 1.386 . S
C995 C997 1.395 . S
C995 H1005 0.930 . S
C996 C992 1.395 . S
C996 C997 1.379 . S
C996 H1006 0.930 . S
C997 C995 1.395 . S
C997 C996 1.379 . S
C997 H1007 0.930 . S
C998 O976 1.264 . S
C998 O977 1.254 . S
C999 Eu935 2.848 . S
C999 O974 1.257 . S
C999 O979 1.249 . S
C999 C992 1.492 . S
H1000 C983 0.930 . S
H1001 C984 0.930 . S
H1002 C985 0.930 . S
H1003 C986 0.930 . S
H1004 C993 0.930 . S
H1005 C995 0.930 . S
H1006 C996 0.930 . S
H1007 C997 0.930 . S
H1008 C1016 0.929 . S
H1009 C1018 0.930 . S
H1010 C1020 0.930 . S
H1011 C1023 0.929 . S
H1012 C1026 0.930 . S
H1013 C1028 0.960 . S
H1014 C1028 0.960 . S
H1015 C1028 0.960 . S
C1016 H1008 0.929 . S
C1016 C1017 1.377 . S
C1016 C1018 1.384 . S
C1017 C1016 1.377 . S
C1017 C1023 1.390 . S
C1018 H1009 0.930 . S
C1018 C1016 1.384 . S
C1018 C1019 1.372 . S
C1019 C1018 1.372 . S
C1019 C1020 1.400 . S
C1019 C1024 1.490 . S
C1020 H1010 0.930 . S
C1020 C1019 1.400 . S
C1020 C1023 1.386 . S
H1021 C1037 0.930 . S
H1022 C1038 0.931 . S
C1023 H1011 0.929 . S
C1023 C1017 1.390 . S
C1023 C1020 1.386 . S
C1024 C1019 1.490 . S
C1024 C1026 1.395 . S
C1024 C1027 1.403 . S
H1025 C1031 0.930 . S
C1026 H1012 0.930 . S
C1026 C1024 1.395 . S
C1026 C1029 1.403 . S
C1027 C1024 1.403 . S
C1027 C1028 1.524 . S
C1027 C1031 1.400 . S
C1028 H1013 0.960 . S
C1028 H1014 0.960 . S
C1028 H1015 0.960 . S
C1028 C1027 1.524 . S
C1029 C1026 1.403 . S
C1029 C1030 1.392 . S
C1029 C1033 1.495 . S
C1030 C1029 1.392 . S
C1030 C1031 1.385 . S
C1030 C1032 1.478 . S
C1031 H1025 0.930 . S
C1031 C1027 1.400 . S
C1031 C1030 1.385 . S
C1032 C1030 1.478 . S
C1032 C1034 1.381 . S
C1032 C1038 1.383 . S
C1033 C1029 1.495 . S
C1033 H1039 0.959 . S
C1033 H1040 0.961 . S
C1033 H1041 0.960 . S
C1034 C1032 1.381 . S
C1034 C1035 1.394 . S
C1034 H1042 0.930 . S
C1035 C1034 1.394 . S
C1035 C1036 1.383 . S
C1035 H1043 0.929 . S
C1036 C1035 1.383 . S
C1036 C1037 1.377 . S
C1037 H1021 0.930 . S
C1037 C1036 1.377 . S
C1037 C1038 1.379 . S
C1038 H1022 0.931 . S
C1038 C1032 1.383 . S
C1038 C1037 1.379 . S
H1039 C1033 0.959 . S
H1040 C1033 0.961 . S
H1041 C1033 0.960 . S
H1042 C1034 0.930 . S
H1043 C1035 0.929 . S
H1044 C1052 0.929 . S
H1045 C1054 0.930 . S
H1046 C1056 0.930 . S
H1047 C1059 0.929 . S
H1048 C1062 0.930 . S
H1049 C1064 0.960 . S
H1050 C1064 0.960 . S
H1051 C1064 0.960 . S
C1052 H1044 0.929 . S
C1052 C1053 1.377 1_545 S
C1052 C1054 1.384 . S
C1053 C1052 1.377 1_565 S
C1053 C1059 1.390 . S
C1054 H1045 0.930 . S
C1054 C1052 1.384 . S
C1054 C1055 1.372 1_545 S
C1055 C1054 1.372 1_565 S
C1055 C1056 1.400 . S
C1055 C1060 1.490 . S
C1056 H1046 0.930 . S
C1056 C1055 1.400 . S
C1056 C1059 1.386 . S
H1057 C1073 0.930 . S
H1058 C1074 0.931 . S
C1059 H1047 0.929 . S
C1059 C1053 1.390 . S
C1059 C1056 1.386 . S
C1060 C1055 1.490 . S
C1060 C1062 1.395 . S
C1060 C1063 1.403 . S
H1061 C1067 0.930 . S
C1062 H1048 0.930 . S
C1062 C1060 1.395 . S
C1062 C1065 1.403 . S
C1063 C1060 1.403 . S
C1063 C1064 1.524 . S
C1063 C1067 1.400 . S
C1064 H1049 0.960 . S
C1064 H1050 0.960 . S
C1064 H1051 0.960 . S
C1064 C1063 1.524 . S
C1065 C1062 1.403 . S
C1065 C1066 1.392 . S
C1065 C1069 1.495 . S
C1066 C1065 1.392 . S
C1066 C1067 1.385 . S
C1066 C1068 1.478 . S
C1067 H1061 0.930 . S
C1067 C1063 1.400 . S
C1067 C1066 1.385 . S
C1068 C1066 1.478 . S
C1068 C1070 1.381 . S
C1068 C1074 1.383 . S
C1069 C1065 1.495 . S
C1069 H1075 0.959 . S
C1069 H1076 0.961 . S
C1069 H1077 0.960 . S
C1070 C1068 1.381 . S
C1070 C1071 1.394 . S
C1070 H1078 0.930 . S
C1071 C1070 1.394 . S
C1071 C1072 1.383 . S
C1071 H1079 0.929 . S
C1072 C1071 1.383 . S
C1072 C1073 1.377 . S
C1073 H1057 0.930 . S
C1073 C1072 1.377 . S
C1073 C1074 1.379 . S
C1074 H1058 0.931 . S
C1074 C1068 1.383 . S
C1074 C1073 1.379 . S
H1075 C1069 0.959 . S
H1076 C1069 0.961 . S
H1077 C1069 0.960 . S
H1078 C1070 0.930 . S
H1079 C1071 0.929 . S
H1080 C1088 0.929 . S
H1081 C1090 0.930 . S
H1082 C1092 0.930 . S
H1083 C1095 0.929 . S
H1084 C1098 0.930 . S
H1085 C1100 0.960 . S
H1086 C1100 0.960 . S
H1087 C1100 0.960 . S
C1088 H1080 0.929 . S
C1088 C1089 1.377 . S
C1088 C1090 1.384 . S
C1089 C1088 1.377 . S
C1089 C1095 1.390 1_554 S
C1090 H1081 0.930 . S
C1090 C1088 1.384 . S
C1090 C1091 1.372 . S
C1091 C1090 1.372 . S
C1091 C1092 1.400 . S
C1091 C1096 1.490 . S
C1092 H1082 0.930 . S
C1092 C1091 1.400 . S
C1092 C1095 1.386 1_554 S
H1093 C1109 0.930 . S
H1094 C1110 0.931 . S
C1095 H1083 0.929 . S
C1095 C1089 1.390 1_556 S
C1095 C1092 1.386 1_556 S
C1096 C1091 1.490 . S
C1096 C1098 1.395 . S
C1096 C1099 1.403 . S
H1097 C1103 0.930 . S
C1098 H1084 0.930 . S
C1098 C1096 1.395 . S
C1098 C1101 1.403 . S
C1099 C1096 1.403 . S
C1099 C1100 1.524 1_554 S
C1099 C1103 1.400 . S
C1100 H1085 0.960 . S
C1100 H1086 0.960 . S
C1100 H1087 0.960 . S
C1100 C1099 1.524 1_556 S
C1101 C1098 1.403 . S
C1101 C1102 1.392 . S
C1101 C1105 1.495 . S
C1102 C1101 1.392 . S
C1102 C1103 1.385 . S
C1102 C1104 1.478 . S
C1103 H1097 0.930 . S
C1103 C1099 1.400 . S
C1103 C1102 1.385 . S
C1104 C1102 1.478 . S
C1104 C1106 1.381 . S
C1104 C1110 1.383 . S
C1105 C1101 1.495 . S
C1105 H1111 0.959 . S
C1105 H1112 0.961 . S
C1105 H1113 0.960 . S
C1106 C1104 1.381 . S
C1106 C1107 1.394 . S
C1106 H1114 0.930 . S
C1107 C1106 1.394 . S
C1107 C1108 1.383 . S
C1107 H1115 0.929 . S
C1108 C1107 1.383 . S
C1108 C1109 1.377 . S
C1109 H1093 0.930 . S
C1109 C1108 1.377 . S
C1109 C1110 1.379 . S
C1110 H1094 0.931 . S
C1110 C1104 1.383 . S
C1110 C1109 1.379 . S
H1111 C1105 0.959 . S
H1112 C1105 0.961 . S
H1113 C1105 0.960 . S
H1114 C1106 0.930 . S
H1115 C1107 0.929 . S
H1116 C1124 0.929 . S
H1117 C1126 0.930 . S
H1118 C1128 0.930 . S
H1119 C1131 0.929 . S
H1120 C1134 0.930 . S
H1121 C1136 0.960 1_565 S
H1122 C1136 0.960 . S
H1123 C1136 0.960 . S
C1124 H1116 0.929 . S
C1124 C1125 1.377 . S
C1124 C1126 1.384 . S
C1125 C1124 1.377 . S
C1125 C1131 1.390 . S
C1126 H1117 0.930 . S
C1126 C1124 1.384 . S
C1126 C1127 1.372 . S
C1127 C1126 1.372 . S
C1127 C1128 1.400 . S
C1127 C1132 1.490 . S
C1128 H1118 0.930 . S
C1128 C1127 1.400 . S
C1128 C1131 1.386 . S
H1129 C1145 0.930 . S
H1130 C1146 0.931 . S
C1131 H1119 0.929 . S
C1131 C1125 1.390 . S
C1131 C1128 1.386 . S
C1132 C1127 1.490 . S
C1132 C1134 1.395 . S
C1132 C1135 1.403 . S
H1133 C1139 0.930 . S
C1134 H1120 0.930 . S
C1134 C1132 1.395 . S
C1134 C1137 1.403 . S
C1135 C1132 1.403 . S
C1135 C1136 1.524 . S
C1135 C1139 1.400 . S
C1136 H1121 0.960 1_545 S
C1136 H1122 0.960 . S
C1136 H1123 0.960 . S
C1136 C1135 1.524 . S
C1137 C1134 1.403 . S
C1137 C1138 1.392 . S
C1137 C1141 1.495 . S
C1138 C1137 1.392 . S
C1138 C1139 1.385 . S
C1138 C1140 1.478 . S
C1139 H1133 0.930 . S
C1139 C1135 1.400 . S
C1139 C1138 1.385 . S
C1140 C1138 1.478 . S
C1140 C1142 1.381 . S
C1140 C1146 1.383 . S
C1141 C1137 1.495 . S
C1141 H1147 0.959 . S
C1141 H1148 0.961 . S
C1141 H1149 0.960 . S
C1142 C1140 1.381 . S
C1142 C1143 1.394 . S
C1142 H1150 0.930 . S
C1143 C1142 1.394 . S
C1143 C1144 1.383 . S
C1143 H1151 0.929 . S
C1144 C1143 1.383 . S
C1144 C1145 1.377 . S
C1145 H1129 0.930 . S
C1145 C1144 1.377 . S
C1145 C1146 1.379 . S
C1146 H1130 0.931 . S
C1146 C1140 1.383 . S
C1146 C1145 1.379 . S
H1147 C1141 0.959 . S
H1148 C1141 0.961 . S
H1149 C1141 0.960 . S
H1150 C1142 0.930 . S
H1151 C1143 0.929 . S
H1152 C1160 0.929 . S
H1153 C1162 0.930 . S
H1154 C1164 0.930 . S
H1155 C1167 0.929 . S
H1156 C1170 0.930 . S
H1157 C1172 0.960 . S
H1158 C1172 0.960 . S
H1159 C1172 0.960 . S
C1160 H1152 0.929 . S
C1160 C1161 1.377 . S
C1160 C1162 1.384 . S
C1161 C1160 1.377 . S
C1161 C1167 1.390 . S
C1162 H1153 0.930 . S
C1162 C1160 1.384 . S
C1162 C1163 1.372 . S
C1163 C1162 1.372 . S
C1163 C1164 1.400 . S
C1163 C1168 1.490 . S
C1164 H1154 0.930 . S
C1164 C1163 1.400 . S
C1164 C1167 1.386 . S
H1165 C1181 0.930 . S
H1166 C1182 0.931 . S
C1167 H1155 0.929 . S
C1167 C1161 1.390 . S
C1167 C1164 1.386 . S
C1168 C1163 1.490 . S
C1168 C1170 1.395 . S
C1168 C1171 1.403 . S
H1169 C1175 0.930 . S
C1170 H1156 0.930 . S
C1170 C1168 1.395 . S
C1170 C1173 1.403 . S
C1171 C1168 1.403 . S
C1171 C1172 1.524 . S
C1171 C1175 1.400 . S
C1172 H1157 0.960 . S
C1172 H1158 0.960 . S
C1172 H1159 0.960 . S
C1172 C1171 1.524 . S
C1173 C1170 1.403 . S
C1173 C1174 1.392 . S
C1173 C1177 1.495 . S
C1174 C1173 1.392 . S
C1174 C1175 1.385 . S
C1174 C1176 1.478 . S
C1175 H1169 0.930 . S
C1175 C1171 1.400 . S
C1175 C1174 1.385 . S
C1176 C1174 1.478 . S
C1176 C1178 1.381 . S
C1176 C1182 1.383 . S
C1177 C1173 1.495 . S
C1177 H1183 0.959 . S
C1177 H1184 0.961 . S
C1177 H1185 0.960 . S
C1178 C1176 1.381 . S
C1178 C1179 1.394 . S
C1178 H1186 0.930 . S
C1179 C1178 1.394 . S
C1179 C1180 1.383 . S
C1179 H1187 0.929 . S
C1180 C1179 1.383 . S
C1180 C1181 1.377 . S
C1181 H1165 0.930 . S
C1181 C1180 1.377 . S
C1181 C1182 1.379 . S
C1182 H1166 0.931 . S
C1182 C1176 1.383 . S
C1182 C1181 1.379 . S
H1183 C1177 0.959 . S
H1184 C1177 0.961 . S
H1185 C1177 0.960 . S
H1186 C1178 0.930 . S
H1187 C1179 0.929 . S
H1188 C1196 0.929 . S
H1189 C1198 0.930 . S
H1190 C1200 0.930 . S
H1191 C1203 0.929 . S
H1192 C1206 0.930 . S
H1193 C1208 0.960 . S
H1194 C1208 0.960 . S
H1195 C1208 0.960 . S
C1196 H1188 0.929 . S
C1196 C1197 1.377 . S
C1196 C1198 1.384 . S
C1197 C1196 1.377 . S
C1197 C1203 1.390 . S
C1198 H1189 0.930 . S
C1198 C1196 1.384 . S
C1198 C1199 1.372 . S
C1199 C1198 1.372 . S
C1199 C1200 1.400 . S
C1199 C1204 1.490 . S
C1200 H1190 0.930 . S
C1200 C1199 1.400 . S
C1200 C1203 1.386 . S
H1201 C1217 0.930 . S
H1202 C1218 0.931 . S
C1203 H1191 0.929 . S
C1203 C1197 1.390 . S
C1203 C1200 1.386 . S
C1204 C1199 1.490 . S
C1204 C1206 1.395 . S
C1204 C1207 1.403 . S
H1205 C1211 0.930 . S
C1206 H1192 0.930 . S
C1206 C1204 1.395 . S
C1206 C1209 1.403 . S
C1207 C1204 1.403 . S
C1207 C1208 1.524 . S
C1207 C1211 1.400 . S
C1208 H1193 0.960 . S
C1208 H1194 0.960 . S
C1208 H1195 0.960 . S
C1208 C1207 1.524 . S
C1209 C1206 1.403 . S
C1209 C1210 1.392 . S
C1209 C1213 1.495 . S
C1210 C1209 1.392 . S
C1210 C1211 1.385 . S
C1210 C1212 1.478 . S
C1211 H1205 0.930 . S
C1211 C1207 1.400 . S
C1211 C1210 1.385 . S
C1212 C1210 1.478 . S
C1212 C1214 1.381 . S
C1212 C1218 1.383 . S
C1213 C1209 1.495 . S
C1213 H1219 0.959 . S
C1213 H1220 0.961 . S
C1213 H1221 0.960 . S
C1214 C1212 1.381 . S
C1214 C1215 1.394 . S
C1214 H1222 0.930 . S
C1215 C1214 1.394 . S
C1215 C1216 1.383 . S
C1215 H1223 0.929 . S
C1216 C1215 1.383 . S
C1216 C1217 1.377 . S
C1217 H1201 0.930 . S
C1217 C1216 1.377 . S
C1217 C1218 1.379 . S
C1218 H1202 0.931 . S
C1218 C1212 1.383 . S
C1218 C1217 1.379 . S
H1219 C1213 0.959 . S
H1220 C1213 0.961 . S
H1221 C1213 0.960 . S
H1222 C1214 0.930 . S
H1223 C1215 0.929 . S
H1224 C1232 0.929 . S
H1225 C1234 0.930 . S
H1226 C1236 0.930 . S
H1227 C1239 0.929 . S
H1228 C1242 0.930 . S
H1229 C1244 0.960 . S
H1230 C1244 0.960 . S
H1231 C1244 0.960 . S
C1232 H1224 0.929 . S
C1232 C1233 1.377 . S
C1232 C1234 1.384 . S
C1233 C1232 1.377 . S
C1233 C1239 1.390 . S
C1234 H1225 0.930 . S
C1234 C1232 1.384 . S
C1234 C1235 1.372 . S
C1235 C1234 1.372 . S
C1235 C1236 1.400 . S
C1235 C1240 1.490 . S
C1236 H1226 0.930 . S
C1236 C1235 1.400 . S
C1236 C1239 1.386 . S
H1237 C1253 0.930 . S
H1238 C1254 0.931 1_554 S
C1239 H1227 0.929 . S
C1239 C1233 1.390 . S
C1239 C1236 1.386 . S
C1240 C1235 1.490 . S
C1240 C1242 1.395 . S
C1240 C1243 1.403 . S
H1241 C1247 0.930 . S
C1242 H1228 0.930 . S
C1242 C1240 1.395 . S
C1242 C1245 1.403 . S
C1243 C1240 1.403 . S
C1243 C1244 1.524 . S
C1243 C1247 1.400 . S
C1244 H1229 0.960 . S
C1244 H1230 0.960 . S
C1244 H1231 0.960 . S
C1244 C1243 1.524 . S
C1245 C1242 1.403 . S
C1245 C1246 1.392 . S
C1245 C1249 1.495 . S
C1246 C1245 1.392 . S
C1246 C1247 1.385 . S
C1246 C1248 1.478 . S
C1247 H1241 0.930 . S
C1247 C1243 1.400 . S
C1247 C1246 1.385 . S
C1248 C1246 1.478 . S
C1248 C1250 1.381 . S
C1248 C1254 1.383 . S
C1249 C1245 1.495 . S
C1249 H1255 0.959 . S
C1249 H1256 0.916 1_556 S
C1249 H1257 0.960 . S
C1250 C1248 1.381 . S
C1250 C1251 1.394 . S
C1250 H1258 0.930 . S
C1251 C1250 1.394 . S
C1251 C1252 1.383 . S
C1251 H1259 0.929 . S
C1252 C1251 1.383 . S
C1252 C1253 1.377 1_556 S
C1253 H1237 0.930 . S
C1253 C1252 1.377 1_554 S
C1253 C1254 1.379 1_554 S
C1254 H1238 0.931 1_556 S
C1254 C1248 1.383 . S
C1254 C1253 1.379 1_556 S
H1255 C1249 0.959 . S
H1256 C1249 0.916 1_554 S
H1257 C1249 0.960 . S
H1258 C1250 0.930 . S
H1259 C1251 0.929 . S
H1260 C1268 0.929 . S
H1261 C1270 0.930 . S
H1262 C1272 0.930 . S
H1263 C1275 0.929 . S
H1264 C1278 0.930 . S
H1265 C1280 0.960 . S
H1266 C1280 0.960 . S
H1267 C1280 0.960 . S
C1268 H1260 0.929 . S
C1268 C1269 1.377 . S
C1268 C1270 1.384 . S
C1269 C1268 1.377 . S
C1269 C1275 1.390 . S
C1270 H1261 0.930 . S
C1270 C1268 1.384 . S
C1270 C1271 1.372 . S
C1271 C1270 1.372 . S
C1271 C1272 1.400 . S
C1271 C1276 1.490 . S
C1272 H1262 0.930 . S
C1272 C1271 1.400 . S
C1272 C1275 1.386 . S
H1273 C1289 0.930 . S
H1274 C1290 0.931 . S
C1275 H1263 0.929 . S
C1275 C1269 1.390 . S
C1275 C1272 1.386 . S
C1276 C1271 1.490 . S
C1276 C1278 1.395 . S
C1276 C1279 1.403 . S
H1277 C1283 0.930 . S
C1278 H1264 0.930 . S
C1278 C1276 1.395 . S
C1278 C1281 1.403 . S
C1279 C1276 1.403 . S
C1279 C1280 1.524 . S
C1279 C1283 1.400 . S
C1280 H1265 0.960 . S
C1280 H1266 0.960 . S
C1280 H1267 0.960 . S
C1280 C1279 1.524 . S
C1281 C1278 1.403 . S
C1281 C1282 1.392 . S
C1281 C1285 1.495 . S
C1282 C1281 1.392 . S
C1282 C1283 1.385 . S
C1282 C1284 1.478 . S
C1283 H1277 0.930 . S
C1283 C1279 1.400 . S
C1283 C1282 1.385 . S
C1284 C1282 1.478 . S
C1284 C1286 1.381 . S
C1284 C1290 1.383 . S
C1285 C1281 1.495 . S
C1285 H1291 0.959 . S
C1285 H1292 0.961 . S
C1285 H1293 0.960 . S
C1286 C1284 1.381 . S
C1286 C1287 1.394 . S
C1286 H1294 0.930 . S
C1287 C1286 1.394 . S
C1287 C1288 1.383 . S
C1287 H1295 0.929 . S
C1288 C1287 1.383 . S
C1288 C1289 1.377 . S
C1289 H1273 0.930 . S
C1289 C1288 1.377 . S
C1289 C1290 1.379 . S
C1290 H1274 0.931 . S
C1290 C1284 1.383 . S
C1290 C1289 1.379 . S
H1291 C1285 0.959 . S
H1292 C1285 0.961 . S
H1293 C1285 0.960 . S
H1294 C1286 0.930 . S
H1295 C1287 0.929 . S
H1296 C1304 0.929 . S
H1297 C1306 0.930 . S
H1298 C1308 0.930 . S
H1299 C1311 0.929 . S
H1300 C1314 0.930 . S
H1301 C1316 0.960 . S
H1302 C1316 0.960 . S
H1303 C1316 0.960 . S
C1304 H1296 0.929 . S
C1304 C1305 1.377 . S
C1304 C1306 1.384 . S
C1305 C1304 1.377 . S
C1305 C1311 1.390 . S
C1306 H1297 0.930 . S
C1306 C1304 1.384 . S
C1306 C1307 1.372 . S
C1307 C1306 1.372 . S
C1307 C1308 1.400 . S
C1307 C1312 1.490 . S
C1308 H1298 0.930 . S
C1308 C1307 1.400 . S
C1308 C1311 1.386 . S
H1309 C1325 0.930 . S
H1310 C1326 0.931 . S
C1311 H1299 0.929 . S
C1311 C1305 1.390 . S
C1311 C1308 1.386 . S
C1312 C1307 1.490 . S
C1312 C1314 1.395 . S
C1312 C1315 1.403 . S
H1313 C1319 0.930 . S
C1314 H1300 0.930 . S
C1314 C1312 1.395 . S
C1314 C1317 1.403 . S
C1315 C1312 1.403 . S
C1315 C1316 1.524 . S
C1315 C1319 1.400 . S
C1316 H1301 0.960 . S
C1316 H1302 0.960 . S
C1316 H1303 0.960 . S
C1316 C1315 1.524 . S
C1317 C1314 1.403 . S
C1317 C1318 1.392 . S
C1317 C1321 1.495 . S
C1318 C1317 1.392 . S
C1318 C1319 1.385 . S
C1318 C1320 1.478 . S
C1319 H1313 0.930 . S
C1319 C1315 1.400 . S
C1319 C1318 1.385 . S
C1320 C1318 1.478 . S
C1320 C1322 1.381 . S
C1320 C1326 1.383 . S
C1321 C1317 1.495 . S
C1321 H1327 0.959 . S
C1321 H1328 0.961 . S
C1321 H1329 0.960 . S
C1322 C1320 1.381 . S
C1322 C1323 1.394 . S
C1322 H1330 0.930 . S
C1323 C1322 1.394 . S
C1323 C1324 1.383 . S
C1323 H1331 0.929 . S
C1324 C1323 1.383 . S
C1324 C1325 1.377 . S
C1325 H1309 0.930 . S
C1325 C1324 1.377 . S
C1325 C1326 1.379 . S
C1326 H1310 0.931 . S
C1326 C1320 1.383 . S
C1326 C1325 1.379 . S
H1327 C1321 0.959 . S
H1328 C1321 0.961 . S
H1329 C1321 0.960 . S
H1330 C1322 0.930 . S
H1331 C1323 0.929 . S
H1332 C1340 0.929 . S
H1333 C1342 0.930 . S
H1334 C1344 0.930 . S
H1335 C1347 0.929 . S
H1336 C1350 0.930 . S
H1337 C1352 0.960 1_655 S
H1338 C1352 0.960 . S
H1339 C1352 0.960 . S
C1340 H1332 0.929 . S
C1340 C1341 1.377 . S
C1340 C1342 1.384 . S
C1341 C1340 1.377 . S
C1341 C1347 1.390 . S
C1342 H1333 0.930 . S
C1342 C1340 1.384 . S
C1342 C1343 1.372 . S
C1343 C1342 1.372 . S
C1343 C1344 1.400 . S
C1343 C1348 1.490 . S
C1344 H1334 0.930 . S
C1344 C1343 1.400 . S
C1344 C1347 1.386 . S
H1345 C1361 0.930 . S
H1346 C1362 0.934 . S
C1347 H1335 0.929 . S
C1347 C1341 1.390 . S
C1347 C1344 1.386 . S
C1348 C1343 1.490 . S
C1348 C1350 1.395 . S
C1348 C1351 1.403 . S
H1349 C1355 0.930 . S
C1350 H1336 0.930 . S
C1350 C1348 1.395 . S
C1350 C1353 1.403 . S
C1351 C1348 1.403 . S
C1351 C1352 1.524 . S
C1351 C1355 1.400 . S
C1352 H1337 0.960 1_455 S
C1352 H1338 0.960 . S
C1352 H1339 0.960 . S
C1352 C1351 1.524 . S
C1353 C1350 1.403 . S
C1353 C1354 1.392 . S
C1353 C1357 1.495 . S
C1354 C1353 1.392 . S
C1354 C1355 1.385 . S
C1354 C1356 1.478 . S
C1355 H1349 0.930 . S
C1355 C1351 1.400 . S
C1355 C1354 1.385 . S
C1356 C1354 1.478 . S
C1356 C1358 1.381 . S
C1356 C1362 1.383 . S
C1357 C1353 1.495 . S
C1357 H1363 0.959 . S
C1357 H1364 0.961 . S
C1357 H1365 0.960 . S
C1358 C1356 1.381 . S
C1358 C1359 1.394 . S
C1358 H1366 0.930 . S
C1359 C1358 1.394 . S
C1359 C1360 1.383 . S
C1359 H1367 0.929 . S
C1360 C1359 1.383 . S
C1360 C1361 1.377 1_455 S
C1361 H1345 0.930 . S
C1361 C1360 1.377 1_655 S
C1361 C1362 1.379 1_655 S
C1362 H1346 0.934 . S
C1362 C1356 1.383 . S
C1362 C1361 1.379 1_455 S
H1363 C1357 0.959 . S
H1364 C1357 0.961 . S
H1365 C1357 0.960 . S
H1366 C1358 0.930 . S
H1367 C1359 0.929 . S
H1368 C1376 0.929 . S
H1369 C1378 0.930 . S
H1370 C1380 0.930 . S
H1371 C1383 0.929 . S
H1372 C1386 0.930 . S
H1373 C1388 0.960 . S
H1374 C1388 0.960 . S
H1375 C1388 0.960 . S
C1376 H1368 0.929 . S
C1376 C1377 1.368 1_655 S
C1376 C1378 1.384 . S
C1377 C1376 1.368 1_455 S
C1377 C1383 1.392 . S
C1378 H1369 0.930 . S
C1378 C1376 1.384 . S
C1378 C1379 1.372 . S
C1379 C1378 1.372 . S
C1379 C1380 1.400 . S
C1379 C1384 1.490 . S
C1380 H1370 0.930 . S
C1380 C1379 1.400 . S
C1380 C1383 1.386 1_655 S
H1381 C1397 0.930 . S
H1382 C1398 0.931 . S
C1383 H1371 0.929 . S
C1383 C1377 1.392 . S
C1383 C1380 1.386 1_455 S
C1384 C1379 1.490 . S
C1384 C1386 1.395 . S
C1384 C1387 1.403 . S
H1385 C1391 0.930 . S
C1386 H1372 0.930 . S
C1386 C1384 1.395 . S
C1386 C1389 1.403 . S
C1387 C1384 1.403 . S
C1387 C1388 1.524 1_655 S
C1387 C1391 1.400 . S
C1388 H1373 0.960 . S
C1388 H1374 0.960 . S
C1388 H1375 0.960 . S
C1388 C1387 1.524 1_455 S
C1389 C1386 1.403 . S
C1389 C1390 1.392 . S
C1389 C1393 1.495 . S
C1390 C1389 1.392 . S
C1390 C1391 1.385 . S
C1390 C1392 1.478 . S
C1391 H1385 0.930 . S
C1391 C1387 1.400 . S
C1391 C1390 1.385 . S
C1392 C1390 1.478 . S
C1392 C1394 1.381 . S
C1392 C1398 1.383 . S
C1393 C1389 1.495 . S
C1393 H1399 0.959 . S
C1393 H1400 0.961 . S
C1393 H1401 0.960 . S
C1394 C1392 1.381 . S
C1394 C1395 1.394 . S
C1394 H1402 0.930 . S
C1395 C1394 1.394 . S
C1395 C1396 1.383 . S
C1395 H1403 0.929 . S
C1396 C1395 1.383 . S
C1396 C1397 1.377 . S
C1397 H1381 0.930 . S
C1397 C1396 1.377 . S
C1397 C1398 1.379 . S
C1398 H1382 0.931 . S
C1398 C1392 1.383 . S
C1398 C1397 1.379 . S
H1399 C1393 0.959 . S
H1400 C1393 0.961 . S
H1401 C1393 0.960 . S
H1402 C1394 0.930 . S
H1403 C1395 0.929 . S
H1404 C1412 0.929 . S
H1405 C1414 0.930 . S
H1406 C1416 0.930 . S
H1407 C1419 0.929 . S
H1408 C1422 0.930 . S
H1409 C1424 0.960 . S
H1410 C1424 0.960 . S
H1411 C1424 0.960 . S
C1412 H1404 0.929 . S
C1412 C1413 1.377 . S
C1412 C1414 1.384 . S
C1413 C1412 1.377 . S
C1413 C1419 1.390 . S
C1414 H1405 0.930 . S
C1414 C1412 1.384 . S
C1414 C1415 1.372 . S
C1415 C1414 1.372 . S
C1415 C1416 1.400 . S
C1415 C1420 1.490 . S
C1416 H1406 0.930 . S
C1416 C1415 1.400 . S
C1416 C1419 1.386 . S
H1417 C1433 0.930 . S
H1418 C1434 0.931 . S
C1419 H1407 0.929 . S
C1419 C1413 1.390 . S
C1419 C1416 1.386 . S
C1420 C1415 1.490 . S
C1420 C1422 1.395 . S
C1420 C1423 1.403 . S
H1421 C1427 0.930 . S
C1422 H1408 0.930 . S
C1422 C1420 1.395 . S
C1422 C1425 1.403 . S
C1423 C1420 1.403 . S
C1423 C1424 1.524 . S
C1423 C1427 1.400 . S
C1424 H1409 0.960 . S
C1424 H1410 0.960 . S
C1424 H1411 0.960 . S
C1424 C1423 1.524 . S
C1425 C1422 1.403 . S
C1425 C1426 1.392 . S
C1425 C1429 1.495 . S
C1426 C1425 1.392 . S
C1426 C1427 1.385 . S
C1426 C1428 1.478 . S
C1427 H1421 0.930 . S
C1427 C1423 1.400 . S
C1427 C1426 1.385 . S
C1428 C1426 1.478 . S
C1428 C1430 1.381 . S
C1428 C1434 1.383 . S
C1429 C1425 1.495 . S
C1429 H1435 0.959 . S
C1429 H1436 0.961 . S
C1429 H1437 0.960 . S
C1430 C1428 1.381 . S
C1430 C1431 1.394 . S
C1430 H1438 0.930 . S
C1431 C1430 1.394 . S
C1431 C1432 1.383 . S
C1431 H1439 0.929 . S
C1432 C1431 1.383 . S
C1432 C1433 1.377 . S
C1433 H1417 0.930 . S
C1433 C1432 1.377 . S
C1433 C1434 1.379 . S
C1434 H1418 0.931 . S
C1434 C1428 1.383 . S
C1434 C1433 1.379 . S
H1435 C1429 0.959 . S
H1436 C1429 0.961 . S
H1437 C1429 0.960 . S
H1438 C1430 0.930 . S
H1439 C1431 0.929 . S
H1440 C1448 0.929 . S
H1441 C1450 0.930 . S
H1442 C1452 0.930 . S
H1443 C1455 0.929 . S
H1444 C1458 0.930 . S
H1445 C1460 0.960 . S
H1446 C1460 0.960 . S
H1447 C1460 0.960 . S
C1448 H1440 0.929 . S
C1448 C1449 1.377 . S
C1448 C1450 1.384 . S
C1449 C1448 1.377 . S
C1449 C1455 1.390 . S
C1450 H1441 0.930 . S
C1450 C1448 1.384 . S
C1450 C1451 1.372 . S
C1451 C1450 1.372 . S
C1451 C1452 1.400 . S
C1451 C1456 1.490 . S
C1452 H1442 0.930 . S
C1452 C1451 1.400 . S
C1452 C1455 1.386 . S
H1453 C1469 0.930 . S
H1454 C1470 0.931 . S
C1455 H1443 0.929 . S
C1455 C1449 1.390 . S
C1455 C1452 1.386 . S
C1456 C1451 1.490 . S
C1456 C1458 1.395 . S
C1456 C1459 1.403 . S
H1457 C1463 0.930 . S
C1458 H1444 0.930 . S
C1458 C1456 1.395 . S
C1458 C1461 1.403 . S
C1459 C1456 1.403 . S
C1459 C1460 1.524 . S
C1459 C1463 1.400 . S
C1460 H1445 0.960 . S
C1460 H1446 0.960 . S
C1460 H1447 0.960 . S
C1460 C1459 1.524 . S
C1461 C1458 1.403 . S
C1461 C1462 1.392 . S
C1461 C1465 1.495 . S
C1462 C1461 1.392 . S
C1462 C1463 1.385 . S
C1462 C1464 1.478 . S
C1463 H1457 0.930 . S
C1463 C1459 1.400 . S
C1463 C1462 1.385 . S
C1464 C1462 1.478 . S
C1464 C1466 1.381 . S
C1464 C1470 1.383 . S
C1465 C1461 1.495 . S
C1465 H1471 0.959 . S
C1465 H1472 0.961 . S
C1465 H1473 0.960 . S
C1466 C1464 1.381 . S
C1466 C1467 1.394 . S
C1466 H1474 0.930 . S
C1467 C1466 1.394 . S
C1467 C1468 1.383 . S
C1467 H1475 0.929 . S
C1468 C1467 1.383 . S
C1468 C1469 1.377 . S
C1469 H1453 0.930 . S
C1469 C1468 1.377 . S
C1469 C1470 1.379 . S
C1470 H1454 0.931 . S
C1470 C1464 1.383 . S
C1470 C1469 1.379 . S
H1471 C1465 0.959 . S
H1472 C1465 0.961 . S
H1473 C1465 0.960 . S
H1474 C1466 0.930 . S
H1475 C1467 0.929 . S
H1476 C1484 0.929 . S
H1477 C1486 0.930 . S
H1478 C1488 0.930 . S
H1479 C1491 0.929 . S
H1480 C1494 0.930 . S
H1481 C1496 0.960 . S
H1482 C1496 0.960 . S
H1483 C1496 0.960 . S
C1484 H1476 0.929 . S
C1484 C1485 1.377 . S
C1484 C1486 1.384 . S
C1485 C1484 1.377 . S
C1485 C1491 1.390 . S
C1486 H1477 0.930 . S
C1486 C1484 1.384 . S
C1486 C1487 1.372 . S
C1487 C1486 1.372 . S
C1487 C1488 1.400 . S
C1487 C1492 1.490 . S
C1488 H1478 0.930 . S
C1488 C1487 1.400 . S
C1488 C1491 1.386 . S
H1489 C1505 0.930 . S
H1490 C1506 0.931 . S
C1491 H1479 0.929 . S
C1491 C1485 1.390 . S
C1491 C1488 1.386 . S
C1492 C1487 1.490 . S
C1492 C1494 1.395 . S
C1492 C1495 1.403 . S
H1493 C1499 0.930 . S
C1494 H1480 0.930 . S
C1494 C1492 1.395 . S
C1494 C1497 1.403 . S
C1495 C1492 1.403 . S
C1495 C1496 1.524 . S
C1495 C1499 1.400 . S
C1496 H1481 0.960 . S
C1496 H1482 0.960 . S
C1496 H1483 0.960 . S
C1496 C1495 1.524 . S
C1497 C1494 1.403 . S
C1497 C1498 1.392 . S
C1497 C1501 1.495 . S
C1498 C1497 1.392 . S
C1498 C1499 1.385 . S
C1498 C1500 1.478 . S
C1499 H1493 0.930 . S
C1499 C1495 1.400 . S
C1499 C1498 1.385 . S
C1500 C1498 1.478 . S
C1500 C1502 1.381 . S
C1500 C1506 1.383 . S
C1501 C1497 1.495 . S
C1501 H1507 0.959 . S
C1501 H1508 0.961 . S
C1501 H1509 0.960 . S
C1502 C1500 1.381 . S
C1502 C1503 1.394 . S
C1502 H1510 0.930 . S
C1503 C1502 1.394 . S
C1503 C1504 1.383 . S
C1503 H1511 0.900 1_565 S
C1504 C1503 1.383 . S
C1504 C1505 1.377 . S
C1505 H1489 0.930 . S
C1505 C1504 1.377 . S
C1505 C1506 1.379 . S
C1506 H1490 0.931 . S
C1506 C1500 1.383 . S
C1506 C1505 1.379 . S
H1507 C1501 0.959 . S
H1508 C1501 0.961 . S
H1509 C1501 0.960 . S
H1510 C1502 0.930 . S
H1511 C1503 0.900 1_545 S
H1512 C1520 0.929 . S
H1513 C1522 0.930 . S
H1514 C1524 0.930 . S
H1515 C1527 0.929 . S
H1516 C1530 0.930 . S
H1517 C1532 0.960 . S
H1518 C1532 0.960 . S
H1519 C1532 0.960 . S
C1520 H1512 0.929 . S
C1520 C1521 1.377 . S
C1520 C1522 1.384 . S
C1521 C1520 1.377 . S
C1521 C1527 1.390 . S
C1522 H1513 0.930 . S
C1522 C1520 1.384 . S
C1522 C1523 1.372 . S
C1523 C1522 1.372 . S
C1523 C1524 1.400 . S
C1523 C1528 1.490 . S
C1524 H1514 0.930 . S
C1524 C1523 1.400 . S
C1524 C1527 1.386 . S
H1525 C1541 0.930 . S
H1526 C1542 0.931 . S
C1527 H1515 0.929 . S
C1527 C1521 1.390 . S
C1527 C1524 1.386 . S
C1528 C1523 1.490 . S
C1528 C1530 1.395 . S
C1528 C1531 1.403 . S
H1529 C1535 0.930 . S
C1530 H1516 0.930 . S
C1530 C1528 1.395 . S
C1530 C1533 1.403 . S
C1531 C1528 1.403 . S
C1531 C1532 1.524 . S
C1531 C1535 1.400 . S
C1532 H1517 0.960 . S
C1532 H1518 0.960 . S
C1532 H1519 0.960 . S
C1532 C1531 1.524 . S
C1533 C1530 1.403 . S
C1533 C1534 1.392 . S
C1533 C1537 1.495 . S
C1534 C1533 1.392 . S
C1534 C1535 1.385 . S
C1534 C1536 1.478 . S
C1535 H1529 0.930 . S
C1535 C1531 1.400 . S
C1535 C1534 1.385 . S
C1536 C1534 1.478 . S
C1536 C1538 1.381 . S
C1536 C1542 1.383 . S
C1537 C1533 1.495 . S
C1537 H1543 0.959 . S
C1537 H1544 0.961 . S
C1537 H1545 0.960 . S
C1538 C1536 1.381 . S
C1538 C1539 1.394 . S
C1538 H1546 0.930 . S
C1539 C1538 1.394 . S
C1539 C1540 1.383 . S
C1539 H1547 0.929 . S
C1540 C1539 1.383 . S
C1540 C1541 1.377 . S
C1541 H1525 0.930 . S
C1541 C1540 1.377 . S
C1541 C1542 1.379 . S
C1542 H1526 0.931 . S
C1542 C1536 1.383 . S
C1542 C1541 1.379 . S
H1543 C1537 0.959 . S
H1544 C1537 0.961 . S
H1545 C1537 0.960 . S
H1546 C1538 0.930 . S
H1547 C1539 0.929 . S
H1548 C1556 0.929 . S
H1549 C1558 0.930 . S
H1550 C1560 0.930 . S
H1551 C1563 0.929 . S
H1552 C1566 0.930 . S
H1553 C1568 0.960 . S
H1554 C1568 0.960 . S
H1555 C1568 0.960 . S
C1556 H1548 0.929 . S
C1556 C1557 1.377 . S
C1556 C1558 1.384 . S
C1557 C1556 1.377 . S
C1557 C1563 1.390 . S
C1558 H1549 0.930 . S
C1558 C1556 1.384 . S
C1558 C1559 1.372 . S
C1559 C1558 1.372 . S
C1559 C1560 1.400 . S
C1559 C1564 1.490 . S
C1560 H1550 0.930 . S
C1560 C1559 1.400 . S
C1560 C1563 1.386 . S
H1561 C1577 0.930 . S
H1562 C1578 0.931 . S
C1563 H1551 0.929 . S
C1563 C1557 1.390 . S
C1563 C1560 1.386 . S
C1564 C1559 1.490 . S
C1564 C1566 1.395 . S
C1564 C1567 1.403 . S
H1565 C1571 0.930 1_556 S
C1566 H1552 0.930 . S
C1566 C1564 1.395 . S
C1566 C1569 1.403 . S
C1567 C1564 1.403 . S
C1567 C1568 1.524 . S
C1567 C1571 1.400 . S
C1568 H1553 0.960 . S
C1568 H1554 0.960 . S
C1568 H1555 0.960 . S
C1568 C1567 1.524 . S
C1569 C1566 1.403 . S
C1569 C1570 1.392 . S
C1569 C1573 1.495 . S
C1570 C1569 1.392 . S
C1570 C1571 1.385 . S
C1570 C1572 1.478 1_554 S
C1571 H1565 0.930 1_554 S
C1571 C1567 1.400 . S
C1571 C1570 1.385 . S
C1572 C1570 1.478 1_556 S
C1572 C1574 1.381 . S
C1572 C1578 1.383 . S
C1573 C1569 1.495 . S
C1573 H1579 0.959 . S
C1573 H1580 0.961 . S
C1573 H1581 0.960 . S
C1574 C1572 1.381 . S
C1574 C1575 1.394 . S
C1574 H1582 0.930 . S
C1575 C1574 1.394 . S
C1575 C1576 1.383 . S
C1575 H1583 0.929 . S
C1576 C1575 1.383 . S
C1576 C1577 1.377 . S
C1577 H1561 0.930 . S
C1577 C1576 1.377 . S
C1577 C1578 1.379 . S
C1578 H1562 0.931 . S
C1578 C1572 1.383 . S
C1578 C1577 1.379 . S
H1579 C1573 0.959 . S
H1580 C1573 0.961 . S
H1581 C1573 0.960 . S
H1582 C1574 0.930 . S
H1583 C1575 0.929 . S
H1584 C1592 0.929 . S
H1585 C1594 0.930 . S
H1586 C1596 0.930 . S
H1587 C1599 0.929 . S
H1588 C1602 0.930 . S
H1589 C1604 0.960 . S
H1590 C1604 0.960 . S
H1591 C1604 0.960 . S
C1592 H1584 0.929 . S
C1592 C1593 1.377 . S
C1592 C1594 1.384 . S
C1593 C1592 1.377 . S
C1593 C1599 1.390 . S
C1594 H1585 0.930 . S
C1594 C1592 1.384 . S
C1594 C1595 1.372 . S
C1595 C1594 1.372 . S
C1595 C1596 1.400 . S
C1595 C1600 1.490 . S
C1596 H1586 0.930 . S
C1596 C1595 1.400 . S
C1596 C1599 1.386 . S
H1597 C1613 0.930 . S
H1598 C1614 0.931 . S
C1599 H1587 0.929 . S
C1599 C1593 1.390 . S
C1599 C1596 1.386 . S
C1600 C1595 1.490 . S
C1600 C1602 1.395 . S
C1600 C1603 1.403 . S
H1601 C1607 0.930 . S
C1602 H1588 0.930 . S
C1602 C1600 1.395 . S
C1602 C1605 1.403 . S
C1603 C1600 1.403 . S
C1603 C1604 1.524 . S
C1603 C1607 1.400 . S
C1604 H1589 0.960 . S
C1604 H1590 0.960 . S
C1604 H1591 0.960 . S
C1604 C1603 1.524 . S
C1605 C1602 1.403 . S
C1605 C1606 1.392 . S
C1605 C1609 1.495 . S
C1606 C1605 1.392 . S
C1606 C1607 1.385 . S
C1606 C1608 1.478 . S
C1607 H1601 0.930 . S
C1607 C1603 1.400 . S
C1607 C1606 1.385 . S
C1608 C1606 1.478 . S
C1608 C1610 1.381 . S
C1608 C1614 1.383 . S
C1609 C1605 1.495 . S
C1609 H1615 0.959 . S
C1609 H1616 0.961 . S
C1609 H1617 0.960 . S
C1610 C1608 1.381 . S
C1610 C1611 1.394 . S
C1610 H1618 0.930 . S
C1611 C1610 1.394 . S
C1611 C1612 1.383 . S
C1611 H1619 0.929 . S
C1612 C1611 1.383 . S
C1612 C1613 1.377 . S
C1613 H1597 0.930 . S
C1613 C1612 1.377 . S
C1613 C1614 1.379 . S
C1614 H1598 0.931 . S
C1614 C1608 1.383 . S
C1614 C1613 1.379 . S
H1615 C1609 0.959 . S
H1616 C1609 0.961 . S
H1617 C1609 0.960 . S
H1618 C1610 0.930 . S
H1619 C1611 0.929 . S
H1620 C1628 0.929 . S
H1621 C1630 0.930 . S
H1622 C1632 0.930 . S
H1623 C1635 0.929 . S
H1624 C1638 0.930 1_554 S
H1625 C1640 0.960 . S
H1626 C1640 0.960 . S
H1627 C1640 0.960 . S
C1628 H1620 0.929 . S
C1628 C1629 1.377 . S
C1628 C1630 1.384 . S
C1629 C1628 1.377 . S
C1629 C1635 1.390 . S
C1630 H1621 0.930 . S
C1630 C1628 1.384 . S
C1630 C1631 1.372 . S
C1631 C1630 1.372 . S
C1631 C1632 1.400 . S
C1631 C1636 1.454 1_554 S
C1632 H1622 0.930 . S
C1632 C1631 1.400 . S
C1632 C1635 1.386 . S
H1633 C1649 0.930 . S
H1634 C1650 0.931 . S
C1635 H1623 0.929 . S
C1635 C1629 1.390 . S
C1635 C1632 1.386 . S
C1636 C1631 1.454 1_556 S
C1636 C1638 1.400 . S
C1636 C1639 1.434 . S
H1637 C1643 0.930 . S
C1638 H1624 0.930 1_556 S
C1638 C1636 1.400 . S
C1638 C1641 1.403 . S
C1639 C1636 1.434 . S
C1639 C1640 1.524 . S
C1639 C1643 1.400 . S
C1640 H1625 0.960 . S
C1640 H1626 0.960 . S
C1640 H1627 0.960 . S
C1640 C1639 1.524 . S
C1641 C1638 1.403 . S
C1641 C1642 1.392 . S
C1641 C1645 1.495 . S
C1642 C1641 1.392 . S
C1642 C1643 1.385 . S
C1642 C1644 1.478 . S
C1643 H1637 0.930 . S
C1643 C1639 1.400 . S
C1643 C1642 1.385 . S
C1644 C1642 1.478 . S
C1644 C1646 1.381 . S
C1644 C1650 1.383 . S
C1645 C1641 1.495 . S
C1645 H1651 0.959 . S
C1645 H1652 0.961 . S
C1645 H1653 0.960 . S
C1646 C1644 1.381 . S
C1646 C1647 1.394 . S
C1646 H1654 0.930 . S
C1647 C1646 1.394 . S
C1647 C1648 1.383 . S
C1647 H1655 0.929 . S
C1648 C1647 1.383 . S
C1648 C1649 1.377 . S
C1649 H1633 0.930 . S
C1649 C1648 1.377 . S
C1649 C1650 1.379 . S
C1650 H1634 0.931 . S
C1650 C1644 1.383 . S
C1650 C1649 1.379 . S
H1651 C1645 0.959 . S
H1652 C1645 0.961 . S
H1653 C1645 0.960 . S
H1654 C1646 0.930 . S
H1655 C1647 0.929 . S
H1656 C1664 0.929 . S
H1657 C1666 0.930 . S
H1658 C1668 0.930 . S
H1659 C1671 0.929 . S
H1660 C1674 0.930 . S
H1661 C1676 0.960 . S
H1662 C1676 0.960 . S
H1663 C1676 0.960 . S
C1664 H1656 0.929 . S
C1664 C1665 1.377 . S
C1664 C1666 1.384 . S
C1665 C1664 1.377 . S
C1665 C1671 1.390 . S
C1666 H1657 0.930 . S
C1666 C1664 1.384 . S
C1666 C1667 1.372 . S
C1667 C1666 1.372 . S
C1667 C1668 1.400 . S
C1667 C1672 1.490 . S
C1668 H1658 0.930 . S
C1668 C1667 1.400 . S
C1668 C1671 1.386 . S
H1669 C1685 0.930 . S
H1670 C1686 0.931 . S
C1671 H1659 0.929 . S
C1671 C1665 1.390 . S
C1671 C1668 1.386 . S
C1672 C1667 1.490 . S
C1672 C1674 1.395 . S
C1672 C1675 1.403 . S
H1673 C1679 0.930 . S
C1674 H1660 0.930 . S
C1674 C1672 1.395 . S
C1674 C1677 1.403 . S
C1675 C1672 1.403 . S
C1675 C1676 1.524 . S
C1675 C1679 1.400 . S
C1676 H1661 0.960 . S
C1676 H1662 0.960 . S
C1676 H1663 0.960 . S
C1676 C1675 1.524 . S
C1677 C1674 1.403 . S
C1677 C1678 1.392 . S
C1677 C1681 1.495 . S
C1678 C1677 1.392 . S
C1678 C1679 1.385 . S
C1678 C1680 1.478 . S
C1679 H1673 0.930 . S
C1679 C1675 1.400 . S
C1679 C1678 1.385 . S
C1680 C1678 1.478 . S
C1680 C1682 1.381 . S
C1680 C1686 1.383 . S
C1681 C1677 1.495 . S
C1681 H1687 0.959 . S
C1681 H1688 0.961 . S
C1681 H1689 0.960 . S
C1682 C1680 1.381 . S
C1682 C1683 1.394 . S
C1682 H1690 0.930 . S
C1683 C1682 1.394 . S
C1683 C1684 1.383 . S
C1683 H1691 0.929 . S
C1684 C1683 1.383 . S
C1684 C1685 1.377 . S
C1685 H1669 0.930 . S
C1685 C1684 1.377 . S
C1685 C1686 1.379 . S
C1686 H1670 0.931 . S
C1686 C1680 1.383 . S
C1686 C1685 1.379 . S
H1687 C1681 0.959 . S
H1688 C1681 0.961 . S
H1689 C1681 0.960 . S
H1690 C1682 0.930 . S
H1691 C1683 0.929 . S
H1692 C1700 0.929 . S
H1693 C1702 0.930 . S
H1694 C1704 0.930 . S
H1695 C1707 0.929 . S
H1696 C1710 0.930 . S
H1697 C1712 0.960 . S
H1698 C1712 0.960 . S
H1699 C1712 0.960 . S
C1700 H1692 0.929 . S
C1700 C1701 1.377 . S
C1700 C1702 1.384 . S
C1701 C1700 1.377 . S
C1701 C1707 1.390 . S
C1702 H1693 0.930 . S
C1702 C1700 1.384 . S
C1702 C1703 1.372 . S
C1703 C1702 1.372 . S
C1703 C1704 1.400 . S
C1703 C1708 1.490 . S
C1704 H1694 0.930 . S
C1704 C1703 1.400 . S
C1704 C1707 1.386 . S
H1705 C1721 0.930 . S
H1706 C1722 0.931 . S
C1707 H1695 0.929 . S
C1707 C1701 1.390 . S
C1707 C1704 1.386 . S
C1708 C1703 1.490 . S
C1708 C1710 1.395 . S
C1708 C1711 1.403 . S
H1709 C1715 0.930 . S
C1710 H1696 0.930 . S
C1710 C1708 1.395 . S
C1710 C1713 1.403 . S
C1711 C1708 1.403 . S
C1711 C1712 1.524 . S
C1711 C1715 1.400 . S
C1712 H1697 0.960 . S
C1712 H1698 0.960 . S
C1712 H1699 0.960 . S
C1712 C1711 1.524 . S
C1713 C1710 1.403 . S
C1713 C1714 1.392 . S
C1713 C1717 1.495 . S
C1714 C1713 1.392 . S
C1714 C1715 1.385 . S
C1714 C1716 1.478 . S
C1715 H1709 0.930 . S
C1715 C1711 1.400 . S
C1715 C1714 1.385 . S
C1716 C1714 1.478 . S
C1716 C1718 1.381 . S
C1716 C1722 1.383 . S
C1717 C1713 1.495 . S
C1717 H1723 0.959 . S
C1717 H1724 0.961 . S
C1717 H1725 0.960 . S
C1718 C1716 1.381 . S
C1718 C1719 1.394 . S
C1718 H1726 0.930 . S
C1719 C1718 1.394 . S
C1719 C1720 1.383 . S
C1719 H1727 0.929 . S
C1720 C1719 1.383 . S
C1720 C1721 1.377 . S
C1721 H1705 0.930 . S
C1721 C1720 1.377 . S
C1721 C1722 1.379 . S
C1722 H1706 0.931 . S
C1722 C1716 1.383 . S
C1722 C1721 1.379 . S
H1723 C1717 0.959 . S
H1724 C1717 0.961 . S
H1725 C1717 0.960 . S
H1726 C1718 0.930 . S
H1727 C1719 0.929 . S
H1728 C1736 0.929 . S
H1729 C1738 0.930 . S
H1730 C1740 0.930 . S
H1731 C1743 0.929 . S
H1732 C1746 0.930 . S
H1733 C1748 0.960 . S
H1734 C1748 0.960 . S
H1735 C1748 0.960 . S
C1736 H1728 0.929 . S
C1736 C1737 1.377 . S
C1736 C1738 1.384 . S
C1737 C1736 1.377 . S
C1737 C1743 1.390 . S
C1738 H1729 0.930 . S
C1738 C1736 1.384 . S
C1738 C1739 1.372 . S
C1739 C1738 1.372 . S
C1739 C1740 1.400 . S
C1739 C1744 1.490 . S
C1740 H1730 0.930 . S
C1740 C1739 1.400 . S
C1740 C1743 1.386 . S
H1741 C1757 0.930 . S
H1742 C1758 0.931 . S
C1743 H1731 0.929 . S
C1743 C1737 1.390 . S
C1743 C1740 1.386 . S
C1744 C1739 1.490 . S
C1744 C1746 1.395 . S
C1744 C1747 1.403 . S
H1745 C1751 0.930 . S
C1746 H1732 0.930 . S
C1746 C1744 1.395 . S
C1746 C1749 1.403 . S
C1747 C1744 1.403 . S
C1747 C1748 1.524 . S
C1747 C1751 1.400 . S
C1748 H1733 0.960 . S
C1748 H1734 0.960 . S
C1748 H1735 0.960 . S
C1748 C1747 1.524 . S
C1749 C1746 1.403 . S
C1749 C1750 1.392 . S
C1749 C1753 1.495 . S
C1750 C1749 1.392 . S
C1750 C1751 1.385 . S
C1750 C1752 1.478 . S
C1751 H1745 0.930 . S
C1751 C1747 1.400 . S
C1751 C1750 1.385 . S
C1752 C1750 1.478 . S
C1752 C1754 1.381 . S
C1752 C1758 1.383 . S
C1753 C1749 1.495 . S
C1753 H1759 0.959 . S
C1753 H1760 0.961 . S
C1753 H1761 0.960 . S
C1754 C1752 1.381 . S
C1754 C1755 1.394 . S
C1754 H1762 0.930 . S
C1755 C1754 1.394 . S
C1755 C1756 1.383 . S
C1755 H1763 0.929 . S
C1756 C1755 1.383 . S
C1756 C1757 1.377 . S
C1757 H1741 0.930 . S
C1757 C1756 1.377 . S
C1757 C1758 1.379 . S
C1758 H1742 0.931 . S
C1758 C1752 1.383 . S
C1758 C1757 1.379 . S
H1759 C1753 0.959 . S
H1760 C1753 0.961 . S
H1761 C1753 0.960 . S
H1762 C1754 0.930 . S
H1763 C1755 0.929 . S
H1764 C1772 0.929 . S
H1765 C1774 0.930 . S
H1766 C1776 0.930 . S
H1767 C1779 0.929 . S
H1768 C1782 0.930 . S
H1769 C1784 0.960 . S
H1770 C1784 0.960 . S
H1771 C1784 0.960 . S
C1772 H1764 0.929 . S
C1772 C1773 1.377 . S
C1772 C1774 1.384 . S
C1773 C1772 1.377 . S
C1773 C1779 1.390 . S
C1774 H1765 0.930 . S
C1774 C1772 1.384 . S
C1774 C1775 1.372 . S
C1775 C1774 1.372 . S
C1775 C1776 1.400 . S
C1775 C1780 1.490 . S
C1776 H1766 0.930 . S
C1776 C1775 1.400 . S
C1776 C1779 1.386 . S
H1777 C1793 0.930 . S
H1778 C1794 0.931 . S
C1779 H1767 0.929 . S
C1779 C1773 1.390 . S
C1779 C1776 1.386 . S
C1780 C1775 1.490 . S
C1780 C1782 1.395 . S
C1780 C1783 1.403 . S
H1781 C1787 0.930 . S
C1782 H1768 0.930 . S
C1782 C1780 1.395 . S
C1782 C1785 1.403 . S
C1783 C1780 1.403 . S
C1783 C1784 1.524 . S
C1783 C1787 1.400 . S
C1784 H1769 0.960 . S
C1784 H1770 0.960 . S
C1784 H1771 0.960 . S
C1784 C1783 1.524 . S
C1785 C1782 1.403 . S
C1785 C1786 1.392 1_545 S
C1785 C1789 1.495 1_545 S
C1786 C1785 1.392 1_565 S
C1786 C1787 1.385 1_565 S
C1786 C1788 1.478 . S
C1787 H1781 0.930 . S
C1787 C1783 1.400 . S
C1787 C1786 1.385 1_545 S
C1788 C1786 1.478 . S
C1788 C1790 1.381 . S
C1788 C1794 1.383 . S
C1789 C1785 1.495 1_565 S
C1789 H1795 0.946 1_565 S
C1789 H1796 0.961 . S
C1789 H1797 0.960 . S
C1790 C1788 1.381 . S
C1790 C1791 1.394 . S
C1790 H1798 0.930 . S
C1791 C1790 1.394 . S
C1791 C1792 1.383 . S
C1791 H1799 0.969 . S
C1792 C1791 1.383 . S
C1792 C1793 1.377 . S
C1793 H1777 0.930 . S
C1793 C1792 1.377 . S
C1793 C1794 1.379 . S
C1794 H1778 0.931 . S
C1794 C1788 1.383 . S
C1794 C1793 1.379 . S
H1795 C1789 0.946 1_545 S
H1796 C1789 0.961 . S
H1797 C1789 0.960 . S
H1798 C1790 0.930 . S
H1799 C1791 0.969 . S
H1800 C1808 0.929 . S
H1801 C1810 0.930 . S
H1802 C1812 0.930 . S
H1803 C1815 0.929 . S
H1804 C1818 0.930 . S
H1805 C1820 0.960 . S
H1806 C1820 0.960 . S
H1807 C1820 0.960 . S
C1808 H1800 0.929 . S
C1808 C1809 1.377 . S
C1808 C1810 1.384 . S
C1809 C1808 1.377 . S
C1809 C1815 1.390 . S
C1810 H1801 0.930 . S
C1810 C1808 1.384 . S
C1810 C1811 1.372 . S
C1811 C1810 1.372 . S
C1811 C1812 1.400 . S
C1811 C1816 1.490 . S
C1812 H1802 0.930 . S
C1812 C1811 1.400 . S
C1812 C1815 1.386 . S
H1813 C1829 0.930 . S
H1814 C1830 0.931 . S
C1815 H1803 0.929 . S
C1815 C1809 1.390 . S
C1815 C1812 1.386 . S
C1816 C1811 1.490 . S
C1816 C1818 1.395 . S
C1816 C1819 1.403 . S
H1817 C1823 0.930 . S
C1818 H1804 0.930 . S
C1818 C1816 1.395 . S
C1818 C1821 1.403 . S
C1819 C1816 1.403 . S
C1819 C1820 1.524 . S
C1819 C1823 1.400 . S
C1820 H1805 0.960 . S
C1820 H1806 0.960 . S
C1820 H1807 0.960 . S
C1820 C1819 1.524 . S
C1821 C1818 1.403 . S
C1821 C1822 1.392 . S
C1821 C1825 1.495 . S
C1822 C1821 1.392 . S
C1822 C1823 1.385 . S
C1822 C1824 1.478 . S
C1823 H1817 0.930 . S
C1823 C1819 1.400 . S
C1823 C1822 1.385 . S
C1824 C1822 1.478 . S
C1824 C1826 1.381 . S
C1824 C1830 1.383 . S
C1825 C1821 1.495 . S
C1825 H1831 0.959 . S
C1825 H1832 0.961 . S
C1825 H1833 0.960 . S
C1826 C1824 1.381 . S
C1826 C1827 1.394 . S
C1826 H1834 0.930 . S
C1827 C1826 1.394 . S
C1827 C1828 1.383 . S
C1827 H1835 0.929 . S
C1828 C1827 1.383 . S
C1828 C1829 1.377 . S
C1829 H1813 0.930 . S
C1829 C1828 1.377 . S
C1829 C1830 1.379 . S
C1830 H1814 0.931 . S
C1830 C1824 1.383 . S
C1830 C1829 1.379 . S
H1831 C1825 0.959 . S
H1832 C1825 0.961 . S
H1833 C1825 0.960 . S
H1834 C1826 0.930 . S
H1835 C1827 0.929 . S
H1836 C1844 0.929 . S
H1837 C1846 0.930 . S
H1838 C1848 0.930 . S
H1839 C1851 0.929 . S
H1840 C1854 0.930 . S
H1841 C1856 0.960 . S
H1842 C1856 0.960 . S
H1843 C1856 0.960 . S
C1844 H1836 0.929 . S
C1844 C1845 1.377 . S
C1844 C1846 1.384 . S
C1845 C1844 1.377 . S
C1845 C1851 1.390 . S
C1846 H1837 0.930 . S
C1846 C1844 1.384 . S
C1846 C1847 1.372 . S
C1847 C1846 1.372 . S
C1847 C1848 1.400 . S
C1847 C1852 1.459 1_545 S
C1848 H1838 0.930 . S
C1848 C1847 1.400 . S
C1848 C1851 1.386 . S
H1849 C1865 0.930 . S
H1850 C1866 0.931 . S
C1851 H1839 0.929 . S
C1851 C1845 1.390 . S
C1851 C1848 1.386 . S
C1852 C1847 1.459 1_565 S
C1852 C1854 1.419 . S
C1852 C1855 1.411 . S
H1853 C1859 0.930 . S
C1854 H1840 0.930 . S
C1854 C1852 1.419 . S
C1854 C1857 1.403 . S
C1855 C1852 1.411 . S
C1855 C1856 1.524 1_565 S
C1855 C1859 1.400 . S
C1856 H1841 0.960 . S
C1856 H1842 0.960 . S
C1856 H1843 0.960 . S
C1856 C1855 1.524 1_545 S
C1857 C1854 1.403 . S
C1857 C1858 1.392 . S
C1857 C1861 1.495 . S
C1858 C1857 1.392 . S
C1858 C1859 1.385 . S
C1858 C1860 1.478 . S
C1859 H1853 0.930 . S
C1859 C1855 1.400 . S
C1859 C1858 1.385 . S
C1860 C1858 1.478 . S
C1860 C1862 1.381 . S
C1860 C1866 1.383 . S
C1861 C1857 1.495 . S
C1861 H1867 0.959 . S
C1861 H1868 0.961 . S
C1861 H1869 0.960 . S
C1862 C1860 1.381 . S
C1862 C1863 1.394 . S
C1862 H1870 0.930 . S
C1863 C1862 1.394 . S
C1863 C1864 1.383 . S
C1863 H1871 0.929 . S
C1864 C1863 1.383 . S
C1864 C1865 1.377 . S
C1865 H1849 0.930 . S
C1865 C1864 1.377 . S
C1865 C1866 1.379 . S
C1866 H1850 0.931 . S
C1866 C1860 1.383 . S
C1866 C1865 1.379 . S
H1867 C1861 0.959 . S
H1868 C1861 0.961 . S
H1869 C1861 0.960 . S
H1870 C1862 0.930 . S
H1871 C1863 0.929 . S
H1872 C1880 0.929 . S
H1873 C1882 0.930 . S
H1874 C1884 0.930 . S
H1875 C1887 0.929 . S
H1876 C1890 0.930 . S
H1877 C1892 0.960 . S
H1878 C1892 0.960 . S
H1879 C1892 0.960 . S
C1880 H1872 0.929 . S
C1880 C1881 1.377 . S
C1880 C1882 1.384 . S
C1881 C1880 1.377 . S
C1881 C1887 1.390 . S
C1882 H1873 0.930 . S
C1882 C1880 1.384 . S
C1882 C1883 1.372 . S
C1883 C1882 1.372 . S
C1883 C1884 1.400 . S
C1883 C1888 1.490 . S
C1884 H1874 0.930 . S
C1884 C1883 1.400 . S
C1884 C1887 1.386 . S
H1885 C1901 0.930 . S
H1886 C1902 0.931 . S
C1887 H1875 0.929 . S
C1887 C1881 1.390 . S
C1887 C1884 1.386 . S
C1888 C1883 1.490 . S
C1888 C1890 1.395 . S
C1888 C1891 1.403 . S
H1889 C1895 0.930 . S
C1890 H1876 0.930 . S
C1890 C1888 1.395 . S
C1890 C1893 1.403 . S
C1891 C1888 1.403 . S
C1891 C1892 1.524 . S
C1891 C1895 1.400 . S
C1892 H1877 0.960 . S
C1892 H1878 0.960 . S
C1892 H1879 0.960 . S
C1892 C1891 1.524 . S
C1893 C1890 1.403 . S
C1893 C1894 1.392 . S
C1893 C1897 1.495 . S
C1894 C1893 1.392 . S
C1894 C1895 1.385 . S
C1894 C1896 1.478 . S
C1895 H1889 0.930 . S
C1895 C1891 1.400 . S
C1895 C1894 1.385 . S
C1896 C1894 1.478 . S
C1896 C1898 1.381 . S
C1896 C1902 1.383 . S
C1897 C1893 1.495 . S
C1897 H1903 0.959 . S
C1897 H1904 0.961 . S
C1897 H1905 0.960 . S
C1898 C1896 1.381 . S
C1898 C1899 1.394 . S
C1898 H1906 0.930 . S
C1899 C1898 1.394 . S
C1899 C1900 1.383 . S
C1899 H1907 0.929 . S
C1900 C1899 1.383 . S
C1900 C1901 1.377 . S
C1901 H1885 0.930 . S
C1901 C1900 1.377 . S
C1901 C1902 1.379 . S
C1902 H1886 0.931 . S
C1902 C1896 1.383 . S
C1902 C1901 1.379 . S
H1903 C1897 0.959 . S
H1904 C1897 0.961 . S
H1905 C1897 0.960 . S
H1906 C1898 0.930 . S
H1907 C1899 0.929 . S
H1908 C1916 0.929 . S
H1909 C1918 0.930 . S
H1910 C1920 0.930 . S
H1911 C1923 0.929 . S
H1912 C1926 0.930 . S
H1913 C1928 0.960 . S
H1914 C1928 0.960 . S
H1915 C1928 0.960 . S
C1916 H1908 0.929 . S
C1916 C1917 1.377 . S
C1916 C1918 1.384 . S
C1917 C1916 1.377 . S
C1917 C1923 1.390 . S
C1918 H1909 0.930 . S
C1918 C1916 1.384 . S
C1918 C1919 1.372 . S
C1919 C1918 1.372 . S
C1919 C1920 1.400 . S
C1919 C1924 1.490 . S
C1920 H1910 0.930 . S
C1920 C1919 1.400 . S
C1920 C1923 1.386 . S
H1921 C1937 0.930 . S
H1922 C1938 0.931 . S
C1923 H1911 0.929 . S
C1923 C1917 1.390 . S
C1923 C1920 1.386 . S
C1924 C1919 1.490 . S
C1924 C1926 1.395 . S
C1924 C1927 1.403 . S
H1925 C1931 0.930 . S
C1926 H1912 0.930 . S
C1926 C1924 1.395 . S
C1926 C1929 1.403 . S
C1927 C1924 1.403 . S
C1927 C1928 1.524 . S
C1927 C1931 1.400 . S
C1928 H1913 0.960 . S
C1928 H1914 0.960 . S
C1928 H1915 0.960 . S
C1928 C1927 1.524 . S
C1929 C1926 1.403 . S
C1929 C1930 1.392 . S
C1929 C1933 1.495 . S
C1930 C1929 1.392 . S
C1930 C1931 1.385 . S
C1930 C1932 1.478 . S
C1931 H1925 0.930 . S
C1931 C1927 1.400 . S
C1931 C1930 1.385 . S
C1932 C1930 1.478 . S
C1932 C1934 1.381 . S
C1932 C1938 1.383 . S
C1933 C1929 1.495 . S
C1933 H1939 0.959 . S
C1933 H1940 0.961 . S
C1933 H1941 0.960 . S
C1934 C1932 1.381 . S
C1934 C1935 1.394 . S
C1934 H1942 0.930 . S
C1935 C1934 1.394 . S
C1935 C1936 1.383 . S
C1935 H1943 0.929 . S
C1936 C1935 1.383 . S
C1936 C1937 1.377 . S
C1937 H1921 0.930 . S
C1937 C1936 1.377 . S
C1937 C1938 1.379 . S
C1938 H1922 0.931 . S
C1938 C1932 1.383 . S
C1938 C1937 1.379 . S
H1939 C1933 0.959 . S
H1940 C1933 0.961 . S
H1941 C1933 0.960 . S
H1942 C1934 0.930 . S
H1943 C1935 0.929 . S
H1944 C1952 0.929 . S
H1945 C1954 0.930 . S
H1946 C1956 0.930 . S
H1947 C1959 0.929 . S
H1948 C1962 0.930 . S
H1949 C1964 0.960 . S
H1950 C1964 0.960 . S
H1951 C1964 0.960 . S
C1952 H1944 0.929 . S
C1952 C1953 1.377 . S
C1952 C1954 1.384 . S
C1953 C1952 1.377 . S
C1953 C1959 1.390 . S
C1954 H1945 0.930 . S
C1954 C1952 1.384 . S
C1954 C1955 1.372 . S
C1955 C1954 1.372 . S
C1955 C1956 1.400 . S
C1955 C1960 1.490 . S
C1956 H1946 0.930 . S
C1956 C1955 1.400 . S
C1956 C1959 1.386 . S
H1957 C1973 0.930 . S
H1958 C1974 0.931 . S
C1959 H1947 0.929 . S
C1959 C1953 1.390 . S
C1959 C1956 1.386 . S
C1960 C1955 1.490 . S
C1960 C1962 1.395 . S
C1960 C1963 1.403 . S
H1961 C1967 0.930 . S
C1962 H1948 0.930 . S
C1962 C1960 1.395 . S
C1962 C1965 1.403 . S
C1963 C1960 1.403 . S
C1963 C1964 1.524 . S
C1963 C1967 1.400 . S
C1964 H1949 0.960 . S
C1964 H1950 0.960 . S
C1964 H1951 0.960 . S
C1964 C1963 1.524 . S
C1965 C1962 1.403 . S
C1965 C1966 1.392 . S
C1965 C1969 1.495 . S
C1966 C1965 1.392 . S
C1966 C1967 1.385 . S
C1966 C1968 1.478 . S
C1967 H1961 0.930 . S
C1967 C1963 1.400 . S
C1967 C1966 1.385 . S
C1968 C1966 1.478 . S
C1968 C1970 1.381 . S
C1968 C1974 1.383 . S
C1969 C1965 1.495 . S
C1969 H1975 0.959 . S
C1969 H1976 0.961 . S
C1969 H1977 0.960 . S
C1970 C1968 1.381 . S
C1970 C1971 1.394 . S
C1970 H1978 0.930 . S
C1971 C1970 1.394 . S
C1971 C1972 1.383 . S
C1971 H1979 0.929 . S
C1972 C1971 1.383 . S
C1972 C1973 1.377 . S
C1973 H1957 0.930 . S
C1973 C1972 1.377 . S
C1973 C1974 1.379 . S
C1974 H1958 0.931 . S
C1974 C1968 1.383 . S
C1974 C1973 1.379 . S
H1975 C1969 0.959 . S
H1976 C1969 0.961 . S
H1977 C1969 0.960 . S
H1978 C1970 0.930 . S
H1979 C1971 0.929 . S
H1980 C1988 0.929 . S
H1981 C1990 0.930 . S
H1982 C1992 0.930 . S
H1983 C1995 0.929 . S
H1984 C1998 0.930 . S
H1985 C2000 0.960 . S
H1986 C2000 0.960 . S
H1987 C2000 0.960 . S
C1988 H1980 0.929 . S
C1988 C1989 1.377 . S
C1988 C1990 1.384 . S
C1989 C1988 1.377 . S
C1989 C1995 1.390 . S
C1990 H1981 0.930 . S
C1990 C1988 1.384 . S
C1990 C1991 1.372 . S
C1991 C1990 1.372 . S
C1991 C1992 1.400 . S
C1991 C1996 1.490 . S
C1992 H1982 0.930 . S
C1992 C1991 1.400 . S
C1992 C1995 1.386 . S
H1993 C2009 0.930 . S
H1994 C2010 0.931 . S
C1995 H1983 0.929 . S
C1995 C1989 1.390 . S
C1995 C1992 1.386 . S
C1996 C1991 1.490 . S
C1996 C1998 1.395 . S
C1996 C1999 1.403 . S
H1997 C2003 0.930 . S
C1998 H1984 0.930 . S
C1998 C1996 1.395 . S
C1998 C2001 1.403 . S
C1999 C1996 1.403 . S
C1999 C2000 1.524 . S
C1999 C2003 1.400 . S
C2000 H1985 0.960 . S
C2000 H1986 0.960 . S
C2000 H1987 0.960 . S
C2000 C1999 1.524 . S
C2001 C1998 1.403 . S
C2001 C2002 1.392 . S
C2001 C2005 1.495 . S
C2002 C2001 1.392 . S
C2002 C2003 1.385 . S
C2002 C2004 1.478 . S
C2003 H1997 0.930 . S
C2003 C1999 1.400 . S
C2003 C2002 1.385 . S
C2004 C2002 1.478 . S
C2004 C2006 1.381 . S
C2004 C2010 1.383 . S
C2005 C2001 1.495 . S
C2005 H2011 0.959 . S
C2005 H2012 0.961 . S
C2005 H2013 0.960 . S
C2006 C2004 1.381 . S
C2006 C2007 1.394 . S
C2006 H2014 0.930 . S
C2007 C2006 1.394 . S
C2007 C2008 1.383 . S
C2007 H2015 0.929 . S
C2008 C2007 1.383 . S
C2008 C2009 1.377 . S
C2009 H1993 0.930 . S
C2009 C2008 1.377 . S
C2009 C2010 1.379 . S
C2010 H1994 0.931 . S
C2010 C2004 1.383 . S
C2010 C2009 1.379 . S
H2011 C2005 0.959 . S
H2012 C2005 0.961 . S
H2013 C2005 0.960 . S
H2014 C2006 0.930 . S
H2015 C2007 0.929 . S
H2016 C2024 0.929 . S
H2017 C2026 0.930 . S
H2018 C2028 0.930 . S
H2019 C2031 0.929 . S
H2020 C2034 0.930 . S
H2021 C2036 0.960 . S
H2022 C2036 0.960 . S
H2023 C2036 0.960 . S
C2024 H2016 0.929 . S
C2024 C2025 1.377 . S
C2024 C2026 1.384 . S
C2025 C2024 1.377 . S
C2025 C2031 1.390 . S
C2026 H2017 0.930 . S
C2026 C2024 1.384 . S
C2026 C2027 1.372 . S
C2027 C2026 1.372 . S
C2027 C2028 1.400 . S
C2027 C2032 1.490 . S
C2028 H2018 0.930 . S
C2028 C2027 1.400 . S
C2028 C2031 1.386 . S
H2029 C2045 0.930 . S
H2030 C2046 0.931 . S
C2031 H2019 0.929 . S
C2031 C2025 1.390 . S
C2031 C2028 1.386 . S
C2032 C2027 1.490 . S
C2032 C2034 1.395 . S
C2032 C2035 1.403 . S
H2033 C2039 0.930 . S
C2034 H2020 0.930 . S
C2034 C2032 1.395 . S
C2034 C2037 1.403 . S
C2035 C2032 1.403 . S
C2035 C2036 1.524 . S
C2035 C2039 1.400 . S
C2036 H2021 0.960 . S
C2036 H2022 0.960 . S
C2036 H2023 0.960 . S
C2036 C2035 1.524 . S
C2037 C2034 1.403 . S
C2037 C2038 1.392 . S
C2037 C2041 1.495 . S
C2038 C2037 1.392 . S
C2038 C2039 1.385 . S
C2038 C2040 1.478 . S
C2039 H2033 0.930 . S
C2039 C2035 1.400 . S
C2039 C2038 1.385 . S
C2040 C2038 1.478 . S
C2040 C2042 1.381 . S
C2040 C2046 1.383 . S
C2041 C2037 1.495 . S
C2041 H2047 0.959 . S
C2041 H2048 0.961 . S
C2041 H2049 0.960 . S
C2042 C2040 1.381 . S
C2042 C2043 1.394 . S
C2042 H2050 0.930 . S
C2043 C2042 1.394 . S
C2043 C2044 1.383 . S
C2043 H2051 0.929 . S
C2044 C2043 1.383 . S
C2044 C2045 1.377 . S
C2045 H2029 0.930 . S
C2045 C2044 1.377 . S
C2045 C2046 1.379 . S
C2046 H2030 0.931 . S
C2046 C2040 1.383 . S
C2046 C2045 1.379 . S
H2047 C2041 0.959 . S
H2048 C2041 0.961 . S
H2049 C2041 0.960 . S
H2050 C2042 0.930 . S
H2051 C2043 0.929 . S
H2052 C2060 0.929 . S
H2053 C2062 0.930 . S
H2054 C2064 0.930 . S
H2055 C2067 0.929 . S
H2056 C2070 0.930 . S
H2057 C2072 0.960 . S
H2058 C2072 0.960 . S
H2059 C2072 0.960 . S
C2060 H2052 0.929 . S
C2060 C2061 1.377 . S
C2060 C2062 1.384 . S
C2061 C2060 1.377 . S
C2061 C2067 1.390 . S
C2062 H2053 0.930 . S
C2062 C2060 1.384 . S
C2062 C2063 1.372 . S
C2063 C2062 1.372 . S
C2063 C2064 1.400 . S
C2063 C2068 1.490 . S
C2064 H2054 0.930 . S
C2064 C2063 1.400 . S
C2064 C2067 1.386 . S
H2065 C2081 0.930 . S
H2066 C2082 0.931 . S
C2067 H2055 0.929 . S
C2067 C2061 1.390 . S
C2067 C2064 1.386 . S
C2068 C2063 1.490 . S
C2068 C2070 1.395 . S
C2068 C2071 1.403 . S
H2069 C2075 0.930 . S
C2070 H2056 0.930 . S
C2070 C2068 1.395 . S
C2070 C2073 1.403 . S
C2071 C2068 1.403 . S
C2071 C2072 1.524 . S
C2071 C2075 1.400 . S
C2072 H2057 0.960 . S
C2072 H2058 0.960 . S
C2072 H2059 0.960 . S
C2072 C2071 1.524 . S
C2073 C2070 1.403 . S
C2073 C2074 1.392 . S
C2073 C2077 1.495 . S
C2074 C2073 1.392 . S
C2074 C2075 1.385 . S
C2074 C2076 1.478 . S
C2075 H2069 0.930 . S
C2075 C2071 1.400 . S
C2075 C2074 1.385 . S
C2076 C2074 1.478 . S
C2076 C2078 1.381 . S
C2076 C2082 1.383 . S
C2077 C2073 1.495 . S
C2077 H2083 0.959 . S
C2077 H2084 0.961 . S
C2077 H2085 0.960 . S
C2078 C2076 1.381 . S
C2078 C2079 1.394 . S
C2078 H2086 0.930 . S
C2079 C2078 1.394 . S
C2079 C2080 1.383 . S
C2079 H2087 0.929 . S
C2080 C2079 1.383 . S
C2080 C2081 1.377 . S
C2081 H2065 0.930 . S
C2081 C2080 1.377 . S
C2081 C2082 1.379 . S
C2082 H2066 0.931 . S
C2082 C2076 1.383 . S
C2082 C2081 1.379 . S
H2083 C2077 0.959 . S
H2084 C2077 0.961 . S
H2085 C2077 0.960 . S
H2086 C2078 0.930 . S
H2087 C2079 0.929 . S
H2088 C2096 0.929 . S
H2089 C2098 0.930 . S
H2090 C2100 0.930 . S
H2091 C2103 0.929 . S
H2092 C2106 0.930 . S
H2093 C2108 0.960 . S
H2094 C2108 0.960 . S
H2095 C2108 0.960 . S
C2096 H2088 0.929 . S
C2096 C2097 1.377 . S
C2096 C2098 1.384 . S
C2097 C2096 1.377 . S
C2097 C2103 1.390 . S
C2098 H2089 0.930 . S
C2098 C2096 1.384 . S
C2098 C2099 1.372 . S
C2099 C2098 1.372 . S
C2099 C2100 1.400 . S
C2099 C2104 1.490 . S
C2100 H2090 0.930 . S
C2100 C2099 1.400 . S
C2100 C2103 1.386 . S
H2101 C2117 0.930 . S
H2102 C2118 0.931 . S
C2103 H2091 0.929 . S
C2103 C2097 1.390 . S
C2103 C2100 1.386 . S
C2104 C2099 1.490 . S
C2104 C2106 1.395 . S
C2104 C2107 1.403 . S
H2105 C2111 0.930 . S
C2106 H2092 0.930 . S
C2106 C2104 1.395 . S
C2106 C2109 1.403 . S
C2107 C2104 1.403 . S
C2107 C2108 1.524 . S
C2107 C2111 1.400 . S
C2108 H2093 0.960 . S
C2108 H2094 0.960 . S
C2108 H2095 0.960 . S
C2108 C2107 1.524 . S
C2109 C2106 1.403 . S
C2109 C2110 1.392 . S
C2109 C2113 1.495 1_455 S
C2110 C2109 1.392 . S
C2110 C2111 1.387 . S
C2110 C2112 1.476 1_455 S
C2111 H2105 0.930 . S
C2111 C2107 1.400 . S
C2111 C2110 1.387 . S
C2112 C2110 1.476 1_655 S
C2112 C2114 1.381 . S
C2112 C2118 1.383 . S
C2113 C2109 1.495 1_655 S
C2113 H2119 0.959 . S
C2113 H2120 0.961 . S
C2113 H2121 0.960 . S
C2114 C2112 1.381 . S
C2114 C2115 1.394 . S
C2114 H2122 0.930 . S
C2115 C2114 1.394 . S
C2115 C2116 1.383 . S
C2115 H2123 0.929 . S
C2116 C2115 1.383 . S
C2116 C2117 1.377 . S
C2117 H2101 0.930 . S
C2117 C2116 1.377 . S
C2117 C2118 1.379 . S
C2118 H2102 0.931 . S
C2118 C2112 1.383 . S
C2118 C2117 1.379 . S
H2119 C2113 0.959 . S
H2120 C2113 0.961 . S
H2121 C2113 0.960 . S
H2122 C2114 0.930 . S
H2123 C2115 0.929 . S
H2124 C2132 0.929 . S
H2125 C2134 0.930 . S
H2126 C2136 0.930 . S
H2127 C2139 0.929 . S
H2128 C2142 0.930 . S
H2129 C2144 0.960 . S
H2130 C2144 0.960 . S
H2131 C2144 0.960 . S
C2132 H2124 0.929 . S
C2132 C2133 1.377 . S
C2132 C2134 1.384 . S
C2133 C2132 1.377 . S
C2133 C2139 1.390 . S
C2134 H2125 0.930 . S
C2134 C2132 1.384 . S
C2134 C2135 1.372 . S
C2135 C2134 1.372 . S
C2135 C2136 1.400 . S
C2135 C2140 1.490 . S
C2136 H2126 0.930 . S
C2136 C2135 1.400 . S
C2136 C2139 1.386 . S
H2137 C2153 0.930 . S
H2138 C2154 0.931 . S
C2139 H2127 0.929 . S
C2139 C2133 1.390 . S
C2139 C2136 1.386 . S
C2140 C2135 1.490 . S
C2140 C2142 1.395 . S
C2140 C2143 1.403 . S
H2141 C2147 0.930 . S
C2142 H2128 0.930 . S
C2142 C2140 1.395 . S
C2142 C2145 1.403 . S
C2143 C2140 1.403 . S
C2143 C2144 1.524 . S
C2143 C2147 1.400 . S
C2144 H2129 0.960 . S
C2144 H2130 0.960 . S
C2144 H2131 0.960 . S
C2144 C2143 1.524 . S
C2145 C2142 1.403 . S
C2145 C2146 1.392 . S
C2145 C2149 1.495 . S
C2146 C2145 1.392 . S
C2146 C2147 1.385 . S
C2146 C2148 1.478 . S
C2147 H2141 0.930 . S
C2147 C2143 1.400 . S
C2147 C2146 1.385 . S
C2148 C2146 1.478 . S
C2148 C2150 1.381 . S
C2148 C2154 1.383 . S
C2149 C2145 1.495 . S
C2149 H2155 0.959 . S
C2149 H2156 0.961 . S
C2149 H2157 0.960 . S
C2150 C2148 1.381 . S
C2150 C2151 1.394 . S
C2150 H2158 0.930 . S
C2151 C2150 1.394 . S
C2151 C2152 1.383 . S
C2151 H2159 0.929 . S
C2152 C2151 1.383 . S
C2152 C2153 1.377 . S
C2153 H2137 0.930 . S
C2153 C2152 1.377 . S
C2153 C2154 1.379 . S
C2154 H2138 0.931 . S
C2154 C2148 1.383 . S
C2154 C2153 1.379 . S
H2155 C2149 0.959 . S
H2156 C2149 0.961 . S
H2157 C2149 0.960 . S
H2158 C2150 0.930 . S
H2159 C2151 0.929 . S
H2160 C2168 0.929 . S
H2161 C2170 0.930 . S
H2162 C2172 0.930 . S
H2163 C2175 0.929 . S
H2164 C2178 0.930 . S
H2165 C2180 0.960 . S
H2166 C2180 0.960 . S
H2167 C2180 0.960 . S
C2168 H2160 0.929 . S
C2168 C2169 1.377 . S
C2168 C2170 1.384 . S
C2169 C2168 1.377 . S
C2169 C2175 1.390 . S
C2170 H2161 0.930 . S
C2170 C2168 1.384 . S
C2170 C2171 1.372 . S
C2171 C2170 1.372 . S
C2171 C2172 1.400 . S
C2171 C2176 1.490 . S
C2172 H2162 0.930 . S
C2172 C2171 1.400 . S
C2172 C2175 1.386 . S
H2173 C2189 0.930 . S
H2174 C2190 0.931 . S
C2175 H2163 0.929 . S
C2175 C2169 1.390 . S
C2175 C2172 1.386 . S
C2176 C2171 1.490 . S
C2176 C2178 1.395 . S
C2176 C2179 1.403 . S
H2177 C2183 0.930 . S
C2178 H2164 0.930 . S
C2178 C2176 1.395 . S
C2178 C2181 1.403 . S
C2179 C2176 1.403 . S
C2179 C2180 1.524 . S
C2179 C2183 1.400 . S
C2180 H2165 0.960 . S
C2180 H2166 0.960 . S
C2180 H2167 0.960 . S
C2180 C2179 1.524 . S
C2181 C2178 1.403 . S
C2181 C2182 1.392 . S
C2181 C2185 1.495 . S
C2182 C2181 1.392 . S
C2182 C2183 1.385 . S
C2182 C2184 1.478 . S
C2183 H2177 0.930 . S
C2183 C2179 1.400 . S
C2183 C2182 1.385 . S
C2184 C2182 1.478 . S
C2184 C2186 1.381 . S
C2184 C2190 1.383 . S
C2185 C2181 1.495 . S
C2185 H2191 0.959 . S
C2185 H2192 0.961 . S
C2185 H2193 0.960 . S
C2186 C2184 1.381 . S
C2186 C2187 1.394 . S
C2186 H2194 0.930 . S
C2187 C2186 1.394 . S
C2187 C2188 1.383 . S
C2187 H2195 0.929 . S
C2188 C2187 1.383 . S
C2188 C2189 1.377 . S
C2189 H2173 0.930 . S
C2189 C2188 1.377 . S
C2189 C2190 1.379 . S
C2190 H2174 0.931 . S
C2190 C2184 1.383 . S
C2190 C2189 1.379 . S
H2191 C2185 0.959 . S
H2192 C2185 0.961 . S
H2193 C2185 0.960 . S
H2194 C2186 0.930 . S
H2195 C2187 0.929 . S
H2196 C2204 0.929 . S
H2197 C2206 0.930 . S
H2198 C2208 0.930 . S
H2199 C2211 0.929 . S
H2200 C2214 0.930 . S
H2201 C2216 0.960 . S
H2202 C2216 0.960 . S
H2203 C2216 0.960 . S
C2204 H2196 0.929 . S
C2204 C2205 1.377 . S
C2204 C2206 1.384 . S
C2205 C2204 1.377 . S
C2205 C2211 1.390 . S
C2206 H2197 0.930 . S
C2206 C2204 1.384 . S
C2206 C2207 1.372 . S
C2207 C2206 1.372 . S
C2207 C2208 1.400 . S
C2207 C2212 1.490 . S
C2208 H2198 0.930 . S
C2208 C2207 1.400 . S
C2208 C2211 1.386 . S
H2209 C2225 0.930 . S
H2210 C2226 0.931 . S
C2211 H2199 0.929 . S
C2211 C2205 1.390 . S
C2211 C2208 1.386 . S
C2212 C2207 1.490 . S
C2212 C2214 1.395 . S
C2212 C2215 1.403 . S
H2213 C2219 0.930 . S
C2214 H2200 0.930 . S
C2214 C2212 1.395 . S
C2214 C2217 1.403 . S
C2215 C2212 1.403 . S
C2215 C2216 1.524 . S
C2215 C2219 1.400 . S
C2216 H2201 0.960 . S
C2216 H2202 0.960 . S
C2216 H2203 0.960 . S
C2216 C2215 1.524 . S
C2217 C2214 1.403 . S
C2217 C2218 1.392 . S
C2217 C2221 1.495 . S
C2218 C2217 1.392 . S
C2218 C2219 1.385 . S
C2218 C2220 1.478 . S
C2219 H2213 0.930 . S
C2219 C2215 1.400 . S
C2219 C2218 1.385 . S
C2220 C2218 1.478 . S
C2220 C2222 1.381 . S
C2220 C2226 1.383 . S
C2221 C2217 1.495 . S
C2221 H2227 0.959 . S
C2221 H2228 0.961 . S
C2221 H2229 0.960 . S
C2222 C2220 1.381 . S
C2222 C2223 1.394 . S
C2222 H2230 0.930 . S
C2223 C2222 1.394 . S
C2223 C2224 1.383 . S
C2223 H2231 0.929 . S
C2224 C2223 1.383 . S
C2224 C2225 1.377 . S
C2225 H2209 0.930 . S
C2225 C2224 1.377 . S
C2225 C2226 1.379 . S
C2226 H2210 0.931 . S
C2226 C2220 1.383 . S
C2226 C2225 1.379 . S
H2227 C2221 0.959 . S
H2228 C2221 0.961 . S
H2229 C2221 0.960 . S
H2230 C2222 0.930 . S
H2231 C2223 0.929 . S
H2232 C2240 0.967 . S
H2233 C2242 0.930 . S
H2234 C2244 0.930 . S
H2235 C2247 0.929 . S
H2236 C2250 0.930 . S
H2237 C2252 0.960 . S
H2238 C2252 0.960 . S
H2239 C2252 0.960 . S
C2240 H2232 0.967 . S
C2240 C2241 1.377 . S
C2240 C2242 1.384 . S
C2241 C2240 1.377 . S
C2241 C2247 1.390 . S
C2242 H2233 0.930 . S
C2242 C2240 1.384 . S
C2242 C2243 1.372 . S
C2243 C2242 1.372 . S
C2243 C2244 1.400 . S
C2243 C2248 1.490 . S
C2244 H2234 0.930 . S
C2244 C2243 1.400 . S
C2244 C2247 1.386 . S
H2245 C2261 0.930 . S
H2246 C2262 0.931 . S
C2247 H2235 0.929 . S
C2247 C2241 1.390 . S
C2247 C2244 1.386 . S
C2248 C2243 1.490 . S
C2248 C2250 1.395 . S
C2248 C2251 1.403 . S
H2249 C2255 0.930 . S
C2250 H2236 0.930 . S
C2250 C2248 1.395 . S
C2250 C2253 1.403 . S
C2251 C2248 1.403 . S
C2251 C2252 1.524 . S
C2251 C2255 1.400 . S
C2252 H2237 0.960 . S
C2252 H2238 0.960 . S
C2252 H2239 0.960 . S
C2252 C2251 1.524 . S
C2253 C2250 1.403 . S
C2253 C2254 1.392 . S
C2253 C2257 1.495 . S
C2254 C2253 1.392 . S
C2254 C2255 1.385 . S
C2254 C2256 1.478 . S
C2255 H2249 0.930 . S
C2255 C2251 1.400 . S
C2255 C2254 1.385 . S
C2256 C2254 1.478 . S
C2256 C2258 1.381 . S
C2256 C2262 1.383 . S
C2257 C2253 1.495 . S
C2257 H2263 0.959 . S
C2257 H2264 0.961 . S
C2257 H2265 0.960 . S
C2258 C2256 1.381 . S
C2258 C2259 1.394 . S
C2258 H2266 0.930 . S
C2259 C2258 1.394 . S
C2259 C2260 1.383 . S
C2259 H2267 0.929 . S
C2260 C2259 1.383 . S
C2260 C2261 1.377 . S
C2261 H2245 0.930 . S
C2261 C2260 1.377 . S
C2261 C2262 1.379 . S
C2262 H2246 0.931 . S
C2262 C2256 1.383 . S
C2262 C2261 1.379 . S
H2263 C2257 0.959 . S
H2264 C2257 0.961 . S
H2265 C2257 0.960 . S
H2266 C2258 0.930 . S
H2267 C2259 0.929 . S
H2268 C2276 0.929 . S
H2269 C2278 0.930 . S
H2270 C2280 0.930 . S
H2271 C2283 0.929 . S
H2272 C2286 0.930 . S
H2273 C2288 0.960 . S
H2274 C2288 0.960 . S
H2275 C2288 0.960 . S
C2276 H2268 0.929 . S
C2276 C2277 1.377 . S
C2276 C2278 1.384 . S
C2277 C2276 1.377 . S
C2277 C2283 1.390 . S
C2278 H2269 0.930 . S
C2278 C2276 1.384 . S
C2278 C2279 1.372 . S
C2279 C2278 1.372 . S
C2279 C2280 1.400 . S
C2279 C2284 1.490 . S
C2280 H2270 0.930 . S
C2280 C2279 1.400 . S
C2280 C2283 1.386 . S
H2281 C2297 0.930 . S
H2282 C2298 0.931 . S
C2283 H2271 0.929 . S
C2283 C2277 1.390 . S
C2283 C2280 1.386 . S
C2284 C2279 1.490 . S
C2284 C2286 1.395 . S
C2284 C2287 1.403 . S
H2285 C2291 0.930 . S
C2286 H2272 0.930 . S
C2286 C2284 1.395 . S
C2286 C2289 1.403 1_655 S
C2287 C2284 1.403 . S
C2287 C2288 1.524 . S
C2287 C2291 1.400 . S
C2288 H2273 0.960 . S
C2288 H2274 0.960 . S
C2288 H2275 0.960 . S
C2288 C2287 1.524 . S
C2289 C2286 1.403 1_455 S
C2289 C2290 1.392 . S
C2289 C2293 1.495 . S
C2290 C2289 1.392 . S
C2290 C2291 1.385 1_455 S
C2290 C2292 1.478 . S
C2291 H2285 0.930 . S
C2291 C2287 1.400 . S
C2291 C2290 1.385 1_655 S
C2292 C2290 1.478 . S
C2292 C2294 1.381 . S
C2292 C2298 1.383 . S
C2293 C2289 1.495 . S
C2293 H2299 0.959 . S
C2293 H2300 0.961 . S
C2293 H2301 0.960 . S
C2294 C2292 1.381 . S
C2294 C2295 1.394 . S
C2294 H2302 0.930 . S
C2295 C2294 1.394 . S
C2295 C2296 1.383 . S
C2295 H2303 0.929 . S
C2296 C2295 1.383 . S
C2296 C2297 1.377 . S
C2297 H2281 0.930 . S
C2297 C2296 1.377 . S
C2297 C2298 1.379 . S
C2298 H2282 0.931 . S
C2298 C2292 1.383 . S
C2298 C2297 1.379 . S
H2299 C2293 0.959 . S
H2300 C2293 0.961 . S
H2301 C2293 0.960 . S
H2302 C2294 0.930 . S
H2303 C2295 0.929 . S
C1017 C67 1.480 . S
C1036 C987 1.532 . S
C1053 C819 1.486 1_565 S
C1072 C147 1.493 . S
C1089 C231 1.399 . S
C1108 C735 1.358 . S
C1125 C315 1.447 . S
C1144 C903 1.422 1_545 S
C1161 C399 1.579 . S
C1180 C907 1.531 . S
C1197 C487 1.570 . S
C1216 C991 1.549 . S
C1233 C823 1.496 . S
C1252 C567 1.515 1_556 S
C1269 C651 1.503 . S
C1288 C739 1.497 . S
C1305 C319 1.578 . S
C1324 C403 1.549 . S
C1341 C63 1.468 . S
C1360 C483 1.436 . S
C1377 C151 1.580 . S
C1396 C571 1.550 . S
C1413 C655 1.595 . S
C1432 C235 1.618 . S
C1449 C70 1.633 . S
C1468 C746 1.745 . S
C1485 C142 1.420 . S
C1504 C914 1.606 . S
C1521 C998 1.674 . S
C1540 C226 1.428 . S
C1557 C310 1.501 . S
C1576 C830 1.722 . S
C1593 C394 1.491 . S
C1612 C812 1.662 . S
C1629 C728 1.846 . S
C1648 C490 1.719 . S
C1665 C896 1.801 . S
C1684 C562 1.563 . S
C1701 C980 1.751 . S
C1720 C646 1.502 . S
C1737 C74 1.767 . S
C1756 C322 1.616 . S
C1773 C58 1.611 . S
C1792 C140 1.804 . S
C1809 C154 1.740 . S
C1828 C224 1.868 . S
C1845 C308 1.841 . S
C1864 C238 1.727 . S
C1881 C478 1.469 . S
C1900 C392 1.669 . S
C1917 C494 1.608 . S
C1936 C574 1.466 . S
C1953 C560 1.678 . S
C1972 C658 1.549 . S
C1989 C406 1.586 . S
C2008 C644 1.699 . S
C2025 C742 1.546 . S
C2044 C326 1.687 . S
C2061 C476 1.737 . S
C2080 C814 1.478 . S
C2097 C730 1.493 . S
C2116 C578 1.681 . S
C2133 C898 1.407 . S
C2152 C662 1.614 . S
C2169 C410 1.587 . S
C2188 C982 1.385 . S
C2205 C994 1.460 . S
C2224 C158 1.572 . S
C2241 C242 1.603 . S
C2260 C826 1.469 . S
C2277 C910 1.597 . S
C2296 C56 1.718 . S
