# Generated by pormake.
# Topology gis, (4)-cn, num edge types: 1
# Building blocks:
#     Node 0, Type 0, BuildingBlock: NAHDIM_clean_sbu_0, # of connection points: 4
#     Node 1, Type 0, BuildingBlock: NAHDIM_clean_sbu_0, # of connection points: 4
#     Node 2, Type 0, BuildingBlock: NAHDIM_clean_sbu_0, # of connection points: 4
#     Node 3, Type 0, BuildingBlock: NAHDIM_clean_sbu_0, # of connection points: 4
#     Node 4, Type 0, BuildingBlock: NAHDIM_clean_sbu_0, # of connection points: 4
#     Node 5, Type 0, BuildingBlock: NAHDIM_clean_sbu_0, # of connection points: 4
#     Node 6, Type 0, BuildingBlock: NAHDIM_clean_sbu_0, # of connection points: 4
#     Node 7, Type 0, BuildingBlock: NAHDIM_clean_sbu_0, # of connection points: 4
#     Node 8, Type 0, BuildingBlock: NAHDIM_clean_sbu_0, # of connection points: 4
#     Node 9, Type 0, BuildingBlock: NAHDIM_clean_sbu_0, # of connection points: 4
#     Node 10, Type 0, BuildingBlock: NAHDIM_clean_sbu_0, # of connection points: 4
#     Node 11, Type 0, BuildingBlock: NAHDIM_clean_sbu_0, # of connection points: 4
#     Node 12, Type 0, BuildingBlock: NAHDIM_clean_sbu_0, # of connection points: 4
#     Node 13, Type 0, BuildingBlock: NAHDIM_clean_sbu_0, # of connection points: 4
#     Node 14, Type 0, BuildingBlock: NAHDIM_clean_sbu_0, # of connection points: 4
#     Node 15, Type 0, BuildingBlock: NAHDIM_clean_sbu_0, # of connection points: 4
#     Edge 16, Type (0, 0), BuildingBlock: AJUNOK_clean_linker_0, # of connection points: 2
#     Edge 17, Type (0, 0), BuildingBlock: AJUNOK_clean_linker_0, # of connection points: 2
#     Edge 18, Type (0, 0), BuildingBlock: AJUNOK_clean_linker_0, # of connection points: 2
#     Edge 19, Type (0, 0), BuildingBlock: AJUNOK_clean_linker_0, # of connection points: 2
#     Edge 20, Type (0, 0), BuildingBlock: AJUNOK_clean_linker_0, # of connection points: 2
#     Edge 21, Type (0, 0), BuildingBlock: AJUNOK_clean_linker_0, # of connection points: 2
#     Edge 22, Type (0, 0), BuildingBlock: AJUNOK_clean_linker_0, # of connection points: 2
#     Edge 23, Type (0, 0), BuildingBlock: AJUNOK_clean_linker_0, # of connection points: 2
#     Edge 24, Type (0, 0), BuildingBlock: AJUNOK_clean_linker_0, # of connection points: 2
#     Edge 25, Type (0, 0), BuildingBlock: AJUNOK_clean_linker_0, # of connection points: 2
#     Edge 26, Type (0, 0), BuildingBlock: AJUNOK_clean_linker_0, # of connection points: 2
#     Edge 27, Type (0, 0), BuildingBlock: AJUNOK_clean_linker_0, # of connection points: 2
#     Edge 28, Type (0, 0), BuildingBlock: AJUNOK_clean_linker_0, # of connection points: 2
#     Edge 29, Type (0, 0), BuildingBlock: AJUNOK_clean_linker_0, # of connection points: 2
#     Edge 30, Type (0, 0), BuildingBlock: AJUNOK_clean_linker_0, # of connection points: 2
#     Edge 31, Type (0, 0), BuildingBlock: AJUNOK_clean_linker_0, # of connection points: 2
#     Edge 32, Type (0, 0), BuildingBlock: AJUNOK_clean_linker_0, # of connection points: 2
#     Edge 33, Type (0, 0), BuildingBlock: AJUNOK_clean_linker_0, # of connection points: 2
#     Edge 34, Type (0, 0), BuildingBlock: AJUNOK_clean_linker_0, # of connection points: 2
#     Edge 35, Type (0, 0), BuildingBlock: AJUNOK_clean_linker_0, # of connection points: 2
#     Edge 36, Type (0, 0), BuildingBlock: AJUNOK_clean_linker_0, # of connection points: 2
#     Edge 37, Type (0, 0), BuildingBlock: AJUNOK_clean_linker_0, # of connection points: 2
#     Edge 38, Type (0, 0), BuildingBlock: AJUNOK_clean_linker_0, # of connection points: 2
#     Edge 39, Type (0, 0), BuildingBlock: AJUNOK_clean_linker_0, # of connection points: 2
#     Edge 40, Type (0, 0), BuildingBlock: AJUNOK_clean_linker_0, # of connection points: 2
#     Edge 41, Type (0, 0), BuildingBlock: AJUNOK_clean_linker_0, # of connection points: 2
#     Edge 42, Type (0, 0), BuildingBlock: AJUNOK_clean_linker_0, # of connection points: 2
#     Edge 43, Type (0, 0), BuildingBlock: AJUNOK_clean_linker_0, # of connection points: 2
#     Edge 44, Type (0, 0), BuildingBlock: AJUNOK_clean_linker_0, # of connection points: 2
#     Edge 45, Type (0, 0), BuildingBlock: AJUNOK_clean_linker_0, # of connection points: 2
#     Edge 46, Type (0, 0), BuildingBlock: AJUNOK_clean_linker_0, # of connection points: 2
#     Edge 47, Type (0, 0), BuildingBlock: AJUNOK_clean_linker_0, # of connection points: 2
# Relax obj value: 0.161
# Max RMSD: 0.165
# Mean RMSD: 0.149
data_MOF--net-gis--node1-NAHDIM_clean_sbu_0--edge1-AJUNOK_clean_linker_0
_symmetry_space_group_name_H-M    P1
_symmetry_Int_Tables_number       1
_symmetry_cell_setting            triclinic
loop_
_symmetry_equiv_pos_as_xyz
'x, y, z'
_cell_length_a     36.221716
_cell_length_b     33.71516
_cell_length_c     35.25821
_cell_angle_alpha  91.847631
_cell_angle_beta   91.042571
_cell_angle_gamma 90.009125
loop_
_atom_site_label
_atom_site_type_symbol
_atom_site_fract_x
_atom_site_fract_y
_atom_site_fract_z
_atom_type_partial_charge
C0 C 0.21555 0.55009 0.17942 0.0
O1 O 0.23143 0.54053 0.14719 0.0
O2 O 0.1749 0.53883 0.0879 0.0
Zn3 Zn 0.15764 0.57649 0.12944 0.0
O4 O 0.16882 0.63352 0.11849 0.0
C5 C 0.08316 0.5557 0.10736 0.0
O6 O 0.09964 0.5445 0.07592 0.0
O7 O 0.18327 0.56476 0.17864 0.0
C8 C 0.14833 0.65433 0.09729 0.0
O9 O 0.11936 0.6377 0.08042 0.0
C10 C 0.18726 0.54997 0.0565 0.0
O11 O 0.19106 0.58807 0.05094 0.0
O12 O 0.10255 0.57024 0.13484 0.0
C13 C 0.69576 0.95811 0.29916 0.0
O14 O 0.69556 0.98774 0.32428 0.0
O15 O 0.66395 0.95536 0.39319 0.0
Zn16 Zn 0.64585 0.91927 0.3504 0.0
O17 O 0.65241 0.86181 0.36255 0.0
C18 C 0.57295 0.94331 0.36904 0.0
O19 O 0.59021 0.9506 0.40158 0.0
O20 O 0.67564 0.92793 0.3042 0.0
C21 C 0.63335 0.84382 0.38651 0.0
O22 O 0.60849 0.86375 0.40596 0.0
C23 C 0.68167 0.94448 0.42245 0.0
O24 O 0.69167 0.90719 0.42478 0.0
O25 O 0.59138 0.92961 0.34118 0.0
C26 C 0.32686 0.45932 0.57713 0.0
O27 O 0.32832 0.47877 0.61001 0.0
O28 O 0.31712 0.40696 0.66524 0.0
Zn29 Zn 0.35206 0.39546 0.62257 0.0
O30 O 0.40396 0.41315 0.63505 0.0
C31 C 0.33411 0.31136 0.62566 0.0
O32 O 0.30826 0.32357 0.64893 0.0
O33 O 0.33514 0.42272 0.57585 0.0
C34 C 0.42351 0.39393 0.65841 0.0
O35 O 0.40803 0.365 0.67653 0.0
C36 C 0.32385 0.4314 0.69267 0.0
O37 O 0.35523 0.45094 0.6937 0.0
O38 O 0.35481 0.33682 0.61094 0.0
C39 C 0.80853 0.02731 0.92785 0.0
O40 O 0.80448 0.00997 0.89413 0.0
O41 O 0.79823 0.07739 0.83997 0.0
Zn42 Zn 0.83388 0.09028 0.88298 0.0
O43 O 0.88466 0.07097 0.87045 0.0
C44 C 0.81853 0.17397 0.87325 0.0
O45 O 0.79383 0.1602 0.84845 0.0
O46 O 0.81932 0.06317 0.93017 0.0
C47 C 0.90442 0.08898 0.84713 0.0
O48 O 0.89054 0.11981 0.83002 0.0
C49 C 0.80529 0.05279 0.81302 0.0
O50 O 0.83701 0.03392 0.81321 0.0
O51 O 0.83755 0.14956 0.89215 0.0
C52 C 0.21807 0.43838 0.81483 0.0
O53 O 0.22997 0.44166 0.8502 0.0
O54 O 0.16758 0.45127 0.89801 0.0
Zn55 Zn 0.15189 0.41772 0.85222 0.0
O56 O 0.15751 0.35968 0.86202 0.0
C57 C 0.07866 0.4515 0.86026 0.0
O58 O 0.09513 0.47213 0.8879 0.0
O59 O 0.18442 0.42935 0.80821 0.0
C60 C 0.13446 0.34126 0.88169 0.0
O61 O 0.10724 0.3612 0.89739 0.0
C62 C 0.18161 0.43802 0.92836 0.0
O63 O 0.18781 0.3998 0.93069 0.0
O64 O 0.09775 0.42755 0.84005 0.0
C65 C 0.80455 0.9456 0.18007 0.0
O66 O 0.81679 0.97605 0.16165 0.0
O67 O 0.83529 0.93353 0.08403 0.0
Zn68 Zn 0.84752 0.89773 0.12667 0.0
O69 O 0.83855 0.84064 0.11168 0.0
C70 C 0.92129 0.93103 0.12951 0.0
O71 O 0.90539 0.95974 0.11095 0.0
O72 O 0.81511 0.91084 0.17048 0.0
C73 C 0.85944 0.82233 0.08848 0.0
O74 O 0.88574 0.84216 0.07226 0.0
C75 C 0.81226 0.92547 0.05733 0.0
O76 O 0.79503 0.89115 0.05641 0.0
O77 O 0.90149 0.90271 0.14068 0.0
C78 C 0.31792 0.53956 0.43416 0.0
O79 O 0.32246 0.51833 0.40267 0.0
O80 O 0.30024 0.58335 0.3418 0.0
Zn81 Zn 0.33554 0.59985 0.384 0.0
O82 O 0.38671 0.58051 0.37316 0.0
C83 C 0.31381 0.68149 0.37347 0.0
O84 O 0.28534 0.6649 0.35566 0.0
O85 O 0.32075 0.57703 0.43309 0.0
C86 C 0.40597 0.59668 0.34818 0.0
O87 O 0.39114 0.62508 0.32831 0.0
C88 C 0.30768 0.55776 0.31584 0.0
O89 O 0.33982 0.53974 0.31658 0.0
O90 O 0.33793 0.65941 0.38872 0.0
C91 C 0.71158 0.04756 0.67766 0.0
O92 O 0.72832 0.04422 0.64497 0.0
O93 O 0.67128 0.03893 0.58594 0.0
Zn94 Zn 0.6514 0.07125 0.62977 0.0
O95 O 0.65936 0.12966 0.62242 0.0
C96 C 0.58152 0.03081 0.61774 0.0
O97 O 0.60227 0.00418 0.60045 0.0
O98 O 0.67762 0.05688 0.67798 0.0
C99 C 0.66089 0.15233 0.6519 0.0
O100 O 0.65672 0.13685 0.68526 0.0
C101 C 0.67216 0.05258 0.55286 0.0
O102 O 0.66107 0.08916 0.54774 0.0
O103 O 0.59673 0.06137 0.63328 0.0
C104 C 0.78365 0.45424 0.80302 0.0
O105 O 0.77021 0.46127 0.83694 0.0
O106 O 0.82923 0.45726 0.89212 0.0
Zn107 Zn 0.84392 0.42293 0.84692 0.0
O108 O 0.83141 0.3656 0.85473 0.0
C109 C 0.91778 0.45579 0.85418 0.0
O110 O 0.90066 0.4838 0.87375 0.0
O111 O 0.81571 0.43923 0.80032 0.0
C112 C 0.8524 0.34299 0.87358 0.0
O113 O 0.88282 0.35776 0.88922 0.0
C114 C 0.81801 0.44394 0.92319 0.0
O115 O 0.81522 0.40545 0.92694 0.0
O116 O 0.89898 0.4273 0.83929 0.0
C117 C 0.28597 0.04401 0.66761 0.0
O118 O 0.27113 0.05503 0.63532 0.0
O119 O 0.32936 0.02989 0.57835 0.0
Zn120 Zn 0.34829 0.05931 0.62526 0.0
O121 O 0.33856 0.11779 0.62238 0.0
C122 C 0.42071 0.02521 0.61228 0.0
O123 O 0.40234 0.00194 0.58805 0.0
O124 O 0.32088 0.04147 0.67032 0.0
C125 C 0.36109 0.14151 0.60775 0.0
O126 O 0.39141 0.12722 0.59269 0.0
C127 C 0.31975 0.04684 0.54808 0.0
O128 O 0.32167 0.08567 0.54686 0.0
O129 O 0.4031 0.05094 0.63193 0.0
C130 C 0.70502 0.57377 0.31461 0.0
O131 O 0.72044 0.58836 0.34606 0.0
O132 O 0.64799 0.56633 0.40433 0.0
Zn133 Zn 0.63946 0.59342 0.35503 0.0
O134 O 0.65135 0.65117 0.36308 0.0
C135 C 0.56348 0.56497 0.35157 0.0
O136 O 0.57635 0.536 0.37204 0.0
O137 O 0.67005 0.5714 0.31244 0.0
C138 C 0.63261 0.67141 0.38687 0.0
O139 O 0.60737 0.65332 0.40631 0.0
C140 C 0.65752 0.53044 0.40821 0.0
O141 O 0.66366 0.50802 0.3778 0.0
O142 O 0.58563 0.59122 0.34054 0.0
C143 C 0.17667 0.9718 0.04835 0.0
O144 O 0.18097 0.98847 0.08231 0.0
O145 O 0.18612 0.92151 0.13558 0.0
Zn146 Zn 0.1513 0.90762 0.09203 0.0
O147 O 0.09962 0.92462 0.10415 0.0
C148 C 0.17307 0.82509 0.09787 0.0
O149 O 0.19927 0.84024 0.12015 0.0
O150 O 0.16545 0.93609 0.04539 0.0
C151 C 0.07997 0.90595 0.12712 0.0
O152 O 0.09435 0.87543 0.14431 0.0
C153 C 0.17826 0.94665 0.16182 0.0
O154 O 0.14647 0.9653 0.1603 0.0
O155 O 0.15037 0.84836 0.08202 0.0
C156 C 0.78833 0.55989 0.17544 0.0
O157 O 0.76989 0.5585 0.14298 0.0
O158 O 0.83003 0.53949 0.08391 0.0
Zn159 Zn 0.84863 0.57603 0.12646 0.0
O160 O 0.84102 0.63342 0.11424 0.0
C161 C 0.92241 0.55259 0.10677 0.0
O162 O 0.90537 0.54047 0.0753 0.0
O163 O 0.82293 0.56593 0.1752 0.0
C164 C 0.86004 0.64998 0.08924 0.0
O165 O 0.88378 0.62849 0.06979 0.0
C166 C 0.81307 0.5515 0.05458 0.0
O167 O 0.8039 0.58908 0.05292 0.0
O168 O 0.90351 0.56796 0.13348 0.0
C169 C 0.19641 0.05542 0.80211 0.0
O170 O 0.20994 0.04933 0.83623 0.0
O171 O 0.14879 0.0585 0.88928 0.0
Zn172 Zn 0.13696 0.09133 0.84417 0.0
O173 O 0.14915 0.14868 0.85521 0.0
C174 C 0.06239 0.0603 0.84319 0.0
O175 O 0.07808 0.03002 0.85957 0.0
O176 O 0.16517 0.07221 0.79878 0.0
C177 C 0.12924 0.16882 0.87802 0.0
O178 O 0.10225 0.15092 0.8951 0.0
C179 C 0.17152 0.06916 0.91552 0.0
O180 O 0.18902 0.10309 0.91322 0.0
O181 O 0.08249 0.0888 0.83303 0.0
C182 C 0.65451 0.45848 0.55636 0.0
O183 O 0.64502 0.47886 0.58705 0.0
O184 O 0.6883 0.42365 0.64778 0.0
Zn185 Zn 0.65153 0.39949 0.61028 0.0
O186 O 0.59898 0.41188 0.62453 0.0
C187 C 0.67037 0.32381 0.63946 0.0
O188 O 0.68071 0.34683 0.66845 0.0
O189 O 0.6599 0.42141 0.55882 0.0
C190 C 0.58349 0.39663 0.65264 0.0
O191 O 0.60286 0.37335 0.67457 0.0
C192 C 0.68069 0.44725 0.67533 0.0
O193 O 0.6465 0.45938 0.67947 0.0
O194 O 0.6576 0.33977 0.60974 0.0
C195 C 0.27744 0.9546 0.29292 0.0
O196 O 0.26313 0.95639 0.32688 0.0
O197 O 0.3222 0.96415 0.38152 0.0
Zn198 Zn 0.33885 0.93012 0.33699 0.0
O199 O 0.32695 0.87272 0.34483 0.0
C200 C 0.41238 0.94684 0.3625 0.0
O201 O 0.39438 0.95252 0.39417 0.0
O202 O 0.31126 0.9452 0.2897 0.0
C203 C 0.3454 0.85051 0.36654 0.0
O204 O 0.37408 0.86531 0.38543 0.0
C205 C 0.30543 0.95064 0.40969 0.0
O206 O 0.29519 0.91327 0.40878 0.0
O207 O 0.39432 0.93656 0.33245 0.0
C208 C 0.19016 0.75645 0.11651 0.0
C209 C 0.16802 0.78138 0.09433 0.0
C210 C 0.18417 0.71542 0.11642 0.0
C211 C 0.15577 0.69744 0.09415 0.0
H212 H 0.21185 0.76873 0.1349 0.0
H213 H 0.20154 0.69785 0.13474 0.0
S214 S 0.09199 0.74887 0.02828 0.0
N215 N 0.11797 0.78467 0.04749 0.0
N216 N 0.10674 0.70755 0.04732 0.0
C217 C 0.13425 0.72177 0.07071 0.0
C218 C 0.14037 0.76367 0.0708 0.0
C219 C 0.4737 0.93254 0.33293 0.0
C220 C 0.45327 0.94953 0.36289 0.0
C221 C 0.51245 0.93167 0.33455 0.0
C222 C 0.53223 0.94782 0.36616 0.0
H223 H 0.45969 0.91871 0.30853 0.0
H224 H 0.52689 0.91723 0.31129 0.0
S225 S 0.49187 -0.00011 0.45018 0.0
N226 N 0.45588 0.98582 0.42372 0.0
N227 N 0.52837 0.98425 0.42674 0.0
C228 C 0.51213 0.96646 0.39554 0.0
C229 C 0.47277 0.96729 0.39391 0.0
C230 C 0.31773 0.24045 0.63566 0.0
C231 C 0.3405 0.26828 0.61855 0.0
C232 C 0.32422 0.19965 0.6313 0.0
C233 C 0.35384 0.18484 0.60976 0.0
H234 H 0.29491 0.25016 0.65306 0.0
H235 H 0.30612 0.17962 0.64561 0.0
S236 S 0.42058 0.245 0.55724 0.0
N237 N 0.39314 0.27797 0.57777 0.0
N238 N 0.40529 0.20128 0.5697 0.0
C239 C 0.37637 0.21224 0.59172 0.0
C240 C 0.36971 0.2539 0.59606 0.0
C241 C 0.00572 0.09723 0.82354 0.0
C242 C 0.02159 0.06392 0.8406 0.0
C243 C 0.96764 0.10415 0.82444 0.0
C244 C 0.94381 0.07818 0.84258 0.0
H245 H 0.02291 0.11889 0.81025 0.0
H246 H 0.95709 0.1309 0.81193 0.0
S247 S 0.97067 0.98427 0.88796 0.0
N248 N 0.00994 0.00288 0.87348 0.0
N249 N 0.93838 0.01596 0.87522 0.0
C250 C 0.95899 0.0437 0.85812 0.0
C251 C -0.00216 0.03655 0.85709 0.0
C252 C 0.10743 0.27688 0.90112 0.0
C253 C 0.13615 0.29738 0.88387 0.0
C254 C 0.10622 0.23534 0.90029 0.0
C255 C 0.13363 0.21252 0.8821 0.0
H256 H 0.08501 0.29295 0.91451 0.0
H257 H 0.08288 0.22112 0.91303 0.0
S258 S 0.21713 0.25155 0.83634 0.0
N259 N 0.19446 0.29154 0.85078 0.0
N260 N 0.19209 0.21352 0.84918 0.0
C261 C 0.16347 0.23256 0.86628 0.0
C262 C 0.16475 0.27493 0.86718 0.0
C263 C 0.97858 0.89555 0.15007 0.0
C264 C 0.96217 0.9284 0.13274 0.0
C265 C 0.01682 0.88943 0.14943 0.0
C266 C 0.04029 0.91582 0.1313 0.0
H267 H 0.96172 0.87356 0.1633 0.0
H268 H 0.02781 0.86299 0.16213 0.0
S269 S 0.0119 0.00895 0.08539 0.0
N270 N 0.97291 0.98956 0.0997 0.0
N271 N 0.04471 0.97801 0.09845 0.0
C272 C 0.02453 0.94989 0.11553 0.0
C273 C 0.98553 0.9562 0.11628 0.0
C274 C 0.35145 0.74183 0.39091 0.0
C275 C 0.31963 0.72509 0.37331 0.0
C276 C 0.35913 0.78243 0.38914 0.0
C277 C 0.33539 0.80806 0.3696 0.0
H278 H 0.37107 0.72337 0.40575 0.0
H279 H 0.38431 0.79357 0.40267 0.0
S280 S 0.24706 0.77982 0.32064 0.0
N281 N 0.2632 0.73785 0.33714 0.0
N282 N 0.27763 0.81409 0.33378 0.0
C283 C 0.30292 0.79198 0.35269 0.0
C284 C 0.29504 0.75057 0.35456 0.0
C285 C 0.51943 0.05261 0.64021 0.0
C286 C 0.54071 0.02671 0.61742 0.0
C287 C 0.4808 0.05117 0.63899 0.0
C288 C 0.46168 0.02386 0.61478 0.0
H289 H 0.53267 0.0746 0.65897 0.0
H290 H 0.46587 0.07221 0.65678 0.0
S291 S 0.50437 0.94865 0.54989 0.0
N292 N 0.53974 0.97216 0.57044 0.0
N293 N 0.46716 0.96948 0.56807 0.0
C294 C 0.4826 0.99718 0.59234 0.0
C295 C 0.52205 -0.00142 0.59369 0.0
C296 C 0.80499 0.2436 0.85493 0.0
C297 C 0.82628 0.21725 0.87642 0.0
C298 C 0.81322 0.28418 0.8549 0.0
C299 C 0.8432 0.30024 0.87625 0.0
H300 H 0.78204 0.23281 0.83738 0.0
H301 H 0.79625 0.30292 0.83731 0.0
S302 S 0.90639 0.2445 0.93931 0.0
N303 N 0.87778 0.21054 0.92114 0.0
N304 N 0.89324 0.28678 0.92101 0.0
C305 C 0.86416 0.27446 0.89874 0.0
C306 C 0.85569 0.23304 0.89887 0.0
C307 C 0.60993 0.73779 0.41002 0.0
C308 C 0.63613 0.71527 0.38966 0.0
C309 C 0.6101 0.77934 0.40996 0.0
C310 C 0.63647 0.80013 0.38955 0.0
H311 H 0.5883 0.72329 0.42524 0.0
H312 H 0.58859 0.79514 0.42512 0.0
S313 S 0.71396 0.75535 0.3354 0.0
N314 N 0.69125 0.71702 0.35127 0.0
N315 N 0.69162 0.79504 0.35118 0.0
C316 C 0.664 0.77805 0.37061 0.0
C317 C 0.66381 0.73569 0.37066 0.0
C318 C 0.83311 0.71601 0.10734 0.0
C319 C 0.85762 0.69356 0.0848 0.0
C320 C 0.83285 0.7575 0.10701 0.0
C321 C 0.85715 0.77843 0.08419 0.0
H322 H 0.81458 0.70157 0.12633 0.0
H323 H 0.81418 0.77322 0.12585 0.0
S324 S 0.9239 0.73368 0.01651 0.0
N325 N 0.9047 0.69533 0.03643 0.0
N326 N 0.90424 0.77336 0.0359 0.0
C327 C 0.8805 0.75636 0.05999 0.0
C328 C 0.88073 0.71396 0.06027 0.0
C329 C 0.66009 0.25534 0.61126 0.0
C330 C 0.67064 0.27997 0.64262 0.0
C331 C 0.65787 0.21402 0.61422 0.0
C332 C 0.66574 0.19573 0.64875 0.0
H333 H 0.65298 0.26803 0.58426 0.0
H334 H 0.64902 0.19642 0.58946 0.0
S335 S 0.69723 0.24626 0.73873 0.0
N336 N 0.69104 0.28251 0.70892 0.0
N337 N 0.68656 0.2051 0.7144 0.0
C338 C 0.67726 0.21982 0.68007 0.0
C339 C 0.67981 0.26184 0.67701 0.0
C340 C 0.01786 0.48146 0.87756 0.0
C341 C 0.03786 0.45383 0.85531 0.0
C342 C 0.97921 0.4825 0.87612 0.0
C343 C 0.95876 0.45582 0.85251 0.0
H344 H 0.03207 0.50216 0.8969 0.0
H345 H 0.96532 0.50387 0.89448 0.0
S346 S -0.00234 0.37922 0.78654 0.0
N347 N 0.03419 0.40031 0.80735 0.0
N348 N 0.96152 0.4022 0.80475 0.0
C349 C 0.97835 0.42875 0.8292 0.0
C350 C 0.01785 0.4278 0.83054 0.0
C351 C 0.49848 0.54766 0.36695 0.0
C352 C 0.52311 0.57023 0.34604 0.0
C353 C 0.46052 0.5555 0.36628 0.0
C354 C 0.44555 0.58613 0.34454 0.0
H355 H 0.50863 0.52467 0.38518 0.0
H356 H 0.44297 0.53805 0.38389 0.0
S357 S 0.49766 0.65074 0.28098 0.0
N358 N 0.52942 0.6222 0.30021 0.0
N359 N 0.4581 0.63688 0.2989 0.0
C360 C 0.4696 0.60747 0.32179 0.0
C361 C 0.50834 0.59955 0.32257 0.0
C362 C 0.52454 0.37493 0.68145 0.0
C363 C 0.54306 0.40077 0.65767 0.0
C364 C 0.48591 0.37434 0.68289 0.0
C365 C 0.46417 0.39967 0.66071 0.0
H366 H 0.53983 0.35372 0.69799 0.0
H367 H 0.47308 0.35273 0.70052 0.0
S368 S 0.49936 0.47713 0.59797 0.0
N369 N 0.53688 0.45535 0.6145 0.0
N370 N 0.46433 0.4544 0.61727 0.0
C371 C 0.48242 0.42749 0.63867 0.0
C372 C 0.52181 0.42798 0.63711 0.0
C373 C 0.02193 0.53734 0.07827 0.0
C374 C 0.04234 0.55322 0.10953 0.0
C375 C 0.98334 0.53643 0.07819 0.0
C376 C 0.96334 0.5514 0.10935 0.0
H377 H 0.03578 0.52593 0.05324 0.0
H378 H 0.96914 0.52444 0.05306 0.0
S379 S 0.00348 0.59429 0.19932 0.0
N380 N 0.03962 0.58285 0.17332 0.0
N381 N 0.96697 0.58116 0.17316 0.0
C382 C 0.98334 0.56644 0.14132 0.0
C383 C 0.02281 0.56735 0.1414 0.0
C384 C 0.19001 0.5338 0.98706 0.0
C385 C 0.19124 0.52079 0.02455 0.0
C386 C 0.1882 0.50672 0.95616 0.0
C387 C 0.18799 0.46552 0.96146 0.0
H388 H 0.1888 0.56517 0.98143 0.0
H389 H 0.18603 0.51829 0.9279 0.0
S390 S 0.19509 0.41606 0.05388 0.0
N391 N 0.19522 0.46395 0.06525 0.0
N392 N 0.19214 0.41298 0.0071 0.0
C393 C 0.19136 0.45204 -0.00128 0.0
C394 C 0.19287 0.47968 0.03027 0.0
C395 C 0.72983 0.92055 0.24895 0.0
C396 C 0.72244 0.95703 0.26778 0.0
C397 C 0.75645 0.91741 0.2209 0.0
C398 C 0.77666 0.95068 0.21003 0.0
H399 H 0.71544 0.89379 0.25636 0.0
H400 H 0.76107 0.88848 0.20756 0.0
S401 S 0.76712 0.05349 0.24949 0.0
N402 N 0.737 0.02749 0.27304 0.0
N403 N 0.78697 0.02163 0.21972 0.0
C404 C 0.76918 0.98759 0.22804 0.0
C405 C 0.74215 0.99074 0.25705 0.0
C406 C 0.32122 0.45896 0.50643 0.0
C407 C 0.3197 0.48026 0.54138 0.0
C408 C 0.31889 0.47828 0.47196 0.0
C409 C 0.315 0.51973 0.4709 0.0
H410 H 0.32542 0.42715 0.50553 0.0
H411 H 0.3215 0.46052 0.44598 0.0
S412 S 0.30482 0.58882 0.55427 0.0
N413 N 0.3105 0.54482 0.57272 0.0
N414 N 0.30614 0.58115 0.50785 0.0
C415 C 0.31131 0.54123 0.50556 0.0
C416 C 0.31366 0.52148 0.54077 0.0
C417 C 0.76919 0.02965 0.71316 0.0
C418 C 0.73317 0.04524 0.71362 0.0
C419 C 0.7918 0.03086 0.74583 0.0
C420 C 0.77943 0.04813 0.78016 0.0
H421 H 0.78039 0.0171 0.68714 0.0
H422 H 0.81963 0.01935 0.7437 0.0
S423 S 0.6864 0.09064 0.79729 0.0
N424 N 0.68537 0.07642 0.75206 0.0
N425 N 0.72796 0.07895 0.81331 0.0
C426 C 0.74299 0.06253 0.78143 0.0
C427 C 0.71983 0.06098 0.74823 0.0
C428 C 0.81464 0.45725 -0.00689 0.0
C429 C 0.81195 0.47141 0.95609 0.0
C430 C 0.81341 0.48325 0.02484 0.0
C431 C 0.80893 0.52439 0.02083 0.0
H432 H 0.81928 0.42601 -0.0023 0.0
H433 H 0.817 0.47106 0.05272 0.0
S434 S 0.79636 0.57593 0.92997 0.0
N435 N 0.80164 0.52878 0.91717 0.0
N436 N 0.79892 0.57767 0.97679 0.0
C437 C 0.80409 0.53868 0.98399 0.0
C438 C 0.80578 0.51221 0.95163 0.0
C439 C 0.20388 0.05538 0.73187 0.0
C440 C 0.21867 0.04694 0.7679 0.0
C441 C 0.22542 0.05238 0.6994 0.0
C442 C 0.26272 0.04094 0.70155 0.0
H443 H 0.17569 0.06564 0.7287 0.0
H444 H 0.21293 0.06062 0.67263 0.0
S445 S 0.31351 0.01041 0.78827 0.0
N446 N 0.27204 0.02277 0.80325 0.0
N447 N 0.31258 0.01724 0.74211 0.0
C448 C 0.27733 0.03011 0.73702 0.0
C449 C 0.2553 0.03308 0.77018 0.0
C450 C 0.66636 0.47279 0.45067 0.0
C451 C 0.65877 0.51338 0.44656 0.0
C452 C 0.66554 0.45547 0.48628 0.0
C453 C 0.65708 0.47802 0.51931 0.0
H454 H 0.67247 0.45395 0.42611 0.0
H455 H 0.67109 0.424 0.48776 0.0
S456 S 0.63675 0.58609 0.52442 0.0
N457 N 0.64378 0.57605 0.47903 0.0
N458 N 0.64221 0.54358 0.54572 0.0
C459 C 0.65024 0.51885 0.51576 0.0
C460 C 0.65109 0.53651 0.47951 0.0
C461 C 0.2644 0.94016 0.22405 0.0
C462 C 0.25327 0.9575 0.25881 0.0
C463 C 0.24024 0.93775 0.19263 0.0
C464 C 0.2041 0.95298 0.19453 0.0
H465 H 0.29151 0.9269 0.22142 0.0
H466 H 0.24982 0.92308 0.16685 0.0
S467 S 0.16276 0.00503 0.27791 0.0
N468 N 0.20466 0.9928 0.29255 0.0
N469 N 0.15929 0.98858 0.23339 0.0
C470 C 0.19323 0.97218 0.22856 0.0
C471 C 0.21778 0.97433 0.26071 0.0
C472 C 0.67267 0.03866 0.48294 0.0
C473 C 0.68046 0.02598 0.51982 0.0
C474 C 0.67507 0.01253 0.45147 0.0
C475 C 0.68549 0.97262 0.4555 0.0
H476 H 0.66313 0.06859 0.47832 0.0
H477 H 0.66735 0.02349 0.42388 0.0
S478 S 0.71388 0.92599 0.54544 0.0
N479 N 0.70284 0.97193 0.55823 0.0
N480 N 0.70734 0.92277 0.49899 0.0
C481 C 0.69577 0.9602 0.49192 0.0
C482 C 0.69322 0.98686 0.52409 0.0
C483 C 0.26089 0.4208 0.71842 0.0
C484 C 0.29674 0.4365 0.72349 0.0
C485 C 0.23521 0.42292 0.74763 0.0
C486 C 0.24443 0.44044 0.78329 0.0
H487 H 0.25261 0.40622 0.69179 0.0
H488 H 0.20831 0.40957 0.74249 0.0
S489 S 0.33374 0.4884 0.81058 0.0
N490 N 0.33945 0.47213 0.76642 0.0
N491 N 0.29126 0.47582 0.82142 0.0
C492 C 0.27978 0.45734 0.78845 0.0
C493 C 0.30589 0.45548 0.75854 0.0
C494 C 0.79301 0.96408 0.95918 0.0
C495 C 0.80533 0.00369 0.96242 0.0
C496 C 0.7939 0.93941 0.9904 0.0
C497 C 0.80746 0.95328 0.02601 0.0
H498 H 0.78351 0.95156 0.93205 0.0
H499 H 0.78522 0.90881 0.98616 0.0
S500 S 0.8391 0.05577 0.05086 0.0
N501 N 0.82853 0.05658 0.00517 0.0
N502 N 0.8304 0.01012 0.06367 0.0
C503 C 0.81818 0.99333 0.03017 0.0
C504 C 0.81702 0.01857 -0.00155 0.0
C505 C 0.27287 0.53284 0.21589 0.0
C506 C 0.23668 0.54806 0.21575 0.0
C507 C 0.29509 0.53455 0.24883 0.0
C508 C 0.28211 0.55181 0.2829 0.0
H509 H 0.28463 0.52043 0.1901 0.0
H510 H 0.32314 0.52359 0.24708 0.0
S511 S 0.18802 0.59191 0.29899 0.0
N512 N 0.18779 0.57789 0.25371 0.0
N513 N 0.22966 0.58128 0.31546 0.0
C514 C 0.24539 0.56539 0.28371 0.0
C515 C 0.22265 0.56345 0.25022 0.0
C516 C 0.31418 0.03959 0.47756 0.0
C517 C 0.31076 0.02278 0.5133 0.0
C518 C 0.31063 0.01631 0.44411 0.0
C519 C 0.30312 0.97539 0.44505 0.0
H520 H 0.32128 0.07063 0.47532 0.0
H521 H 0.31499 0.03035 0.41735 0.0
S522 S 0.28694 0.91807 0.53142 0.0
N523 N 0.29606 0.96355 0.54766 0.0
N524 N 0.28908 0.91978 0.48478 0.0
C525 C 0.29732 0.9587 0.48054 0.0
C526 C 0.30128 0.98239 0.51467 0.0
C527 C 0.72966 0.55551 0.21139 0.0
C528 C 0.76839 0.55874 0.21185 0.0
C529 C 0.70959 0.55868 0.24492 0.0
C530 C 0.72738 0.56537 0.2804 0.0
H531 H 0.71444 0.55163 0.18479 0.0
H532 H 0.67976 0.55723 0.24272 0.0
S533 S 0.82868 0.57137 0.29782 0.0
N534 N 0.82407 0.5655 0.25133 0.0
N535 N 0.78632 0.57158 0.3143 0.0
C536 C 0.76622 0.56663 0.28154 0.0
C537 C 0.78673 0.56329 0.24733 0.0
C538 C 0.16398 0.98145 0.97945 0.0
C539 C 0.17967 0.99575 0.01403 0.0
C540 C 0.16236 0.00512 0.94761 0.0
C541 C 0.17666 0.04396 0.94887 0.0
H542 H 0.15164 0.95218 0.97716 0.0
H543 H 0.14913 0.99298 0.92199 0.0
S544 S 0.22385 0.0942 0.03155 0.0
N545 N 0.21212 0.05031 0.04695 0.0
N546 N 0.20926 0.09478 0.98694 0.0
C547 C 0.19398 0.05804 0.98274 0.0
C548 C 0.19541 0.03396 0.01534 0.0
C549 C 0.69763 0.46851 0.74199 0.0
C550 C 0.70877 0.45519 0.70577 0.0
C551 C 0.72254 0.46999 0.77288 0.0
C552 C 0.75963 0.45833 0.76878 0.0
H553 H 0.66904 0.47609 0.74708 0.0
H554 H 0.71213 0.47885 0.80048 0.0
S555 S 0.80407 0.42728 0.67844 0.0
N556 N 0.76039 0.43459 0.66655 0.0
N557 N 0.80721 0.43745 0.72449 0.0
C558 C 0.77174 0.44765 0.73211 0.0
C559 C 0.74632 0.44603 0.70067 0.0
loop_
_geom_bond_atom_site_label_1
_geom_bond_atom_site_label_2
_geom_bond_distance
_geom_bond_site_symmetry_2
_ccdc_geom_bond_type
C0 O1 1.160 . S
C0 O7 1.185 . S
O1 C0 1.160 . S
O2 Zn3 1.899 . S
O2 C10 1.284 . S
Zn3 O2 1.899 . S
Zn3 O4 2.032 . S
Zn3 O7 2.086 . S
Zn3 O12 1.977 . S
O4 Zn3 2.032 . S
O4 C8 1.278 . S
C5 O6 1.203 . S
C5 O12 1.267 . S
O6 C5 1.203 . S
O7 C0 1.185 . S
O7 Zn3 2.086 . S
C8 O4 1.278 . S
C8 O9 1.211 . S
O9 C8 1.211 . S
C10 O2 1.284 . S
C10 O11 1.273 . S
O11 C10 1.273 . S
O12 Zn3 1.977 . S
O12 C5 1.267 . S
C13 O14 1.160 . S
C13 O20 1.185 . S
O14 C13 1.160 . S
O15 Zn16 1.899 . S
O15 C23 1.284 . S
Zn16 O15 1.899 . S
Zn16 O17 2.032 . S
Zn16 O20 2.086 . S
Zn16 O25 1.977 . S
O17 Zn16 2.032 . S
O17 C21 1.278 . S
C18 O19 1.203 . S
C18 O25 1.267 . S
O19 C18 1.203 . S
O20 C13 1.185 . S
O20 Zn16 2.086 . S
C21 O17 1.278 . S
C21 O22 1.211 . S
O22 C21 1.211 . S
C23 O15 1.284 . S
C23 O24 1.273 . S
O24 C23 1.273 . S
O25 Zn16 1.977 . S
O25 C18 1.267 . S
C26 O27 1.160 . S
C26 O33 1.185 . S
O27 C26 1.160 . S
O28 Zn29 1.899 . S
O28 C36 1.284 . S
Zn29 O28 1.899 . S
Zn29 O30 2.032 . S
Zn29 O33 2.086 . S
Zn29 O38 1.977 . S
O30 Zn29 2.032 . S
O30 C34 1.278 . S
C31 O32 1.203 . S
C31 O38 1.267 . S
O32 C31 1.203 . S
O33 C26 1.185 . S
O33 Zn29 2.086 . S
C34 O30 1.278 . S
C34 O35 1.211 . S
O35 C34 1.211 . S
C36 O28 1.284 . S
C36 O37 1.273 . S
O37 C36 1.273 . S
O38 Zn29 1.977 . S
O38 C31 1.267 . S
C39 O40 1.160 . S
C39 O46 1.185 . S
O40 C39 1.160 . S
O41 Zn42 1.899 . S
O41 C49 1.284 . S
Zn42 O41 1.899 . S
Zn42 O43 2.032 . S
Zn42 O46 2.086 . S
Zn42 O51 1.977 . S
O43 Zn42 2.032 . S
O43 C47 1.278 . S
C44 O45 1.203 . S
C44 O51 1.267 . S
O45 C44 1.203 . S
O46 C39 1.185 . S
O46 Zn42 2.086 . S
C47 O43 1.278 . S
C47 O48 1.211 . S
O48 C47 1.211 . S
C49 O41 1.284 . S
C49 O50 1.273 . S
O50 C49 1.273 . S
O51 Zn42 1.977 . S
O51 C44 1.267 . S
C52 O53 1.160 . S
C52 O59 1.185 . S
O53 C52 1.160 . S
O54 Zn55 1.899 . S
O54 C62 1.284 . S
Zn55 O54 1.899 . S
Zn55 O56 2.032 . S
Zn55 O59 2.086 . S
Zn55 O64 1.977 . S
O56 Zn55 2.032 . S
O56 C60 1.278 . S
C57 O58 1.203 . S
C57 O64 1.267 . S
O58 C57 1.203 . S
O59 C52 1.185 . S
O59 Zn55 2.086 . S
C60 O56 1.278 . S
C60 O61 1.211 . S
O61 C60 1.211 . S
C62 O54 1.284 . S
C62 O63 1.273 . S
O63 C62 1.273 . S
O64 Zn55 1.977 . S
O64 C57 1.267 . S
C65 O66 1.160 . S
C65 O72 1.185 . S
O66 C65 1.160 . S
O67 Zn68 1.899 . S
O67 C75 1.284 . S
Zn68 O67 1.899 . S
Zn68 O69 2.032 . S
Zn68 O72 2.086 . S
Zn68 O77 1.977 . S
O69 Zn68 2.032 . S
O69 C73 1.278 . S
C70 O71 1.203 . S
C70 O77 1.267 . S
O71 C70 1.203 . S
O72 C65 1.185 . S
O72 Zn68 2.086 . S
C73 O69 1.278 . S
C73 O74 1.211 . S
O74 C73 1.211 . S
C75 O67 1.284 . S
C75 O76 1.273 . S
O76 C75 1.273 . S
O77 Zn68 1.977 . S
O77 C70 1.267 . S
C78 O79 1.160 . S
C78 O85 1.185 . S
O79 C78 1.160 . S
O80 Zn81 1.899 . S
O80 C88 1.284 . S
Zn81 O80 1.899 . S
Zn81 O82 2.032 . S
Zn81 O85 2.086 . S
Zn81 O90 1.977 . S
O82 Zn81 2.032 . S
O82 C86 1.278 . S
C83 O84 1.203 . S
C83 O90 1.267 . S
O84 C83 1.203 . S
O85 C78 1.185 . S
O85 Zn81 2.086 . S
C86 O82 1.278 . S
C86 O87 1.211 . S
O87 C86 1.211 . S
C88 O80 1.284 . S
C88 O89 1.273 . S
O89 C88 1.273 . S
O90 Zn81 1.977 . S
O90 C83 1.267 . S
C91 O92 1.160 . S
C91 O98 1.185 . S
O92 C91 1.160 . S
O93 Zn94 1.899 . S
O93 C101 1.284 . S
Zn94 O93 1.899 . S
Zn94 O95 2.032 . S
Zn94 O98 2.086 . S
Zn94 O103 1.977 . S
O95 Zn94 2.032 . S
O95 C99 1.278 . S
C96 O97 1.203 . S
C96 O103 1.267 . S
O97 C96 1.203 . S
O98 C91 1.185 . S
O98 Zn94 2.086 . S
C99 O95 1.278 . S
C99 O100 1.211 . S
O100 C99 1.211 . S
C101 O93 1.284 . S
C101 O102 1.273 . S
O102 C101 1.273 . S
O103 Zn94 1.977 . S
O103 C96 1.267 . S
C104 O105 1.160 . S
C104 O111 1.185 . S
O105 C104 1.160 . S
O106 Zn107 1.899 . S
O106 C114 1.284 . S
Zn107 O106 1.899 . S
Zn107 O108 2.032 . S
Zn107 O111 2.086 . S
Zn107 O116 1.977 . S
O108 Zn107 2.032 . S
O108 C112 1.278 . S
C109 O110 1.203 . S
C109 O116 1.267 . S
O110 C109 1.203 . S
O111 C104 1.185 . S
O111 Zn107 2.086 . S
C112 O108 1.278 . S
C112 O113 1.211 . S
O113 C112 1.211 . S
C114 O106 1.284 . S
C114 O115 1.273 . S
O115 C114 1.273 . S
O116 Zn107 1.977 . S
O116 C109 1.267 . S
C117 O118 1.160 . S
C117 O124 1.185 . S
O118 C117 1.160 . S
O119 Zn120 1.899 . S
O119 C127 1.284 . S
Zn120 O119 1.899 . S
Zn120 O121 2.032 . S
Zn120 O124 2.086 . S
Zn120 O129 1.977 . S
O121 Zn120 2.032 . S
O121 C125 1.278 . S
C122 O123 1.203 . S
C122 O129 1.267 . S
O123 C122 1.203 . S
O124 C117 1.185 . S
O124 Zn120 2.086 . S
C125 O121 1.278 . S
C125 O126 1.211 . S
O126 C125 1.211 . S
C127 O119 1.284 . S
C127 O128 1.273 . S
O128 C127 1.273 . S
O129 Zn120 1.977 . S
O129 C122 1.267 . S
C130 O131 1.160 . S
C130 O137 1.185 . S
O131 C130 1.160 . S
O132 Zn133 1.899 . S
O132 C140 1.284 . S
Zn133 O132 1.899 . S
Zn133 O134 2.032 . S
Zn133 O137 2.086 . S
Zn133 O142 1.977 . S
O134 Zn133 2.032 . S
O134 C138 1.278 . S
C135 O136 1.203 . S
C135 O142 1.267 . S
O136 C135 1.203 . S
O137 C130 1.185 . S
O137 Zn133 2.086 . S
C138 O134 1.278 . S
C138 O139 1.211 . S
O139 C138 1.211 . S
C140 O132 1.284 . S
C140 O141 1.273 . S
O141 C140 1.273 . S
O142 Zn133 1.977 . S
O142 C135 1.267 . S
C143 O144 1.160 . S
C143 O150 1.185 . S
O144 C143 1.160 . S
O145 Zn146 1.899 . S
O145 C153 1.284 . S
Zn146 O145 1.899 . S
Zn146 O147 2.032 . S
Zn146 O150 2.086 . S
Zn146 O155 1.977 . S
O147 Zn146 2.032 . S
O147 C151 1.278 . S
C148 O149 1.203 . S
C148 O155 1.267 . S
O149 C148 1.203 . S
O150 C143 1.185 . S
O150 Zn146 2.086 . S
C151 O147 1.278 . S
C151 O152 1.211 . S
O152 C151 1.211 . S
C153 O145 1.284 . S
C153 O154 1.273 . S
O154 C153 1.273 . S
O155 Zn146 1.977 . S
O155 C148 1.267 . S
C156 O157 1.160 . S
C156 O163 1.185 . S
O157 C156 1.160 . S
O158 Zn159 1.899 . S
O158 C166 1.284 . S
Zn159 O158 1.899 . S
Zn159 O160 2.032 . S
Zn159 O163 2.086 . S
Zn159 O168 1.977 . S
O160 Zn159 2.032 . S
O160 C164 1.278 . S
C161 O162 1.203 . S
C161 O168 1.267 . S
O162 C161 1.203 . S
O163 C156 1.185 . S
O163 Zn159 2.086 . S
C164 O160 1.278 . S
C164 O165 1.211 . S
O165 C164 1.211 . S
C166 O158 1.284 . S
C166 O167 1.273 . S
O167 C166 1.273 . S
O168 Zn159 1.977 . S
O168 C161 1.267 . S
C169 O170 1.160 . S
C169 O176 1.185 . S
O170 C169 1.160 . S
O171 Zn172 1.899 . S
O171 C179 1.284 . S
Zn172 O171 1.899 . S
Zn172 O173 2.032 . S
Zn172 O176 2.086 . S
Zn172 O181 1.977 . S
O173 Zn172 2.032 . S
O173 C177 1.278 . S
C174 O175 1.203 . S
C174 O181 1.267 . S
O175 C174 1.203 . S
O176 C169 1.185 . S
O176 Zn172 2.086 . S
C177 O173 1.278 . S
C177 O178 1.211 . S
O178 C177 1.211 . S
C179 O171 1.284 . S
C179 O180 1.273 . S
O180 C179 1.273 . S
O181 Zn172 1.977 . S
O181 C174 1.267 . S
C182 O183 1.160 . S
C182 O189 1.185 . S
O183 C182 1.160 . S
O184 Zn185 1.899 . S
O184 C192 1.284 . S
Zn185 O184 1.899 . S
Zn185 O186 2.032 . S
Zn185 O189 2.086 . S
Zn185 O194 1.977 . S
O186 Zn185 2.032 . S
O186 C190 1.278 . S
C187 O188 1.203 . S
C187 O194 1.267 . S
O188 C187 1.203 . S
O189 C182 1.185 . S
O189 Zn185 2.086 . S
C190 O186 1.278 . S
C190 O191 1.211 . S
O191 C190 1.211 . S
C192 O184 1.284 . S
C192 O193 1.273 . S
O193 C192 1.273 . S
O194 Zn185 1.977 . S
O194 C187 1.267 . S
C195 O196 1.160 . S
C195 O202 1.185 . S
O196 C195 1.160 . S
O197 Zn198 1.899 . S
O197 C205 1.284 . S
Zn198 O197 1.899 . S
Zn198 O199 2.032 . S
Zn198 O202 2.086 . S
Zn198 O207 1.977 . S
O199 Zn198 2.032 . S
O199 C203 1.278 . S
C200 O201 1.203 . S
C200 O207 1.267 . S
O201 C200 1.203 . S
O202 C195 1.185 . S
O202 Zn198 2.086 . S
C203 O199 1.278 . S
C203 O204 1.211 . S
O204 C203 1.211 . S
C205 O197 1.284 . S
C205 O206 1.273 . S
O206 C205 1.273 . S
O207 Zn198 1.977 . S
O207 C200 1.267 . S
C208 C209 1.369 . S
C208 C210 1.419 . S
C208 H212 0.930 . S
C209 C208 1.369 . S
C209 C218 1.429 . S
C210 C208 1.419 . S
C210 C211 1.363 . S
C210 H213 0.929 . S
C211 C210 1.363 . S
C211 C217 1.428 . S
H212 C208 0.930 . S
H213 C210 0.929 . S
S214 N215 1.613 . S
S214 N216 1.610 . S
N215 S214 1.613 . S
N215 C218 1.350 . S
N216 S214 1.610 . S
N216 C217 1.351 . S
C217 C211 1.428 . S
C217 N216 1.351 . S
C217 C218 1.434 . S
C218 C209 1.429 . S
C218 N215 1.350 . S
C218 C217 1.434 . S
C219 C220 1.369 . S
C219 C221 1.419 . S
C219 H223 0.930 . S
C220 C219 1.369 . S
C220 C229 1.429 . S
C221 C219 1.419 . S
C221 C222 1.363 . S
C221 H224 0.929 . S
C222 C221 1.363 . S
C222 C228 1.428 . S
H223 C219 0.930 . S
H224 C221 0.929 . S
S225 N226 1.613 1_545 S
S225 N227 1.610 1_545 S
N226 S225 1.613 1_565 S
N226 C229 1.350 . S
N227 S225 1.610 1_565 S
N227 C228 1.351 . S
C228 C222 1.428 . S
C228 N227 1.351 . S
C228 C229 1.434 . S
C229 C220 1.429 . S
C229 N226 1.350 . S
C229 C228 1.434 . S
C230 C231 1.369 . S
C230 C232 1.419 . S
C230 H234 0.930 . S
C231 C230 1.369 . S
C231 C240 1.429 . S
C232 C230 1.419 . S
C232 C233 1.363 . S
C232 H235 0.929 . S
C233 C232 1.363 . S
C233 C239 1.428 . S
H234 C230 0.930 . S
H235 C232 0.929 . S
S236 N237 1.613 . S
S236 N238 1.610 . S
N237 S236 1.613 . S
N237 C240 1.350 . S
N238 S236 1.610 . S
N238 C239 1.351 . S
C239 C233 1.428 . S
C239 N238 1.351 . S
C239 C240 1.434 . S
C240 C231 1.429 . S
C240 N237 1.350 . S
C240 C239 1.434 . S
C241 C242 1.369 . S
C241 C243 1.419 1_455 S
C241 H245 0.930 . S
C242 C241 1.369 . S
C242 C251 1.429 . S
C243 C241 1.419 1_655 S
C243 C244 1.363 . S
C243 H246 0.929 . S
C244 C243 1.363 . S
C244 C250 1.428 . S
H245 C241 0.930 . S
H246 C243 0.929 . S
S247 N248 1.613 1_665 S
S247 N249 1.610 1_565 S
N248 S247 1.613 1_445 S
N248 C251 1.350 . S
N249 S247 1.610 1_545 S
N249 C250 1.351 . S
C250 C244 1.428 . S
C250 N249 1.351 . S
C250 C251 1.434 1_655 S
C251 C242 1.429 . S
C251 N248 1.350 . S
C251 C250 1.434 1_455 S
C252 C253 1.369 . S
C252 C254 1.419 . S
C252 H256 0.930 . S
C253 C252 1.369 . S
C253 C262 1.429 . S
C254 C252 1.419 . S
C254 C255 1.363 . S
C254 H257 0.929 . S
C255 C254 1.363 . S
C255 C261 1.428 . S
H256 C252 0.930 . S
H257 C254 0.929 . S
S258 N259 1.613 . S
S258 N260 1.610 . S
N259 S258 1.613 . S
N259 C262 1.350 . S
N260 S258 1.610 . S
N260 C261 1.351 . S
C261 C255 1.428 . S
C261 N260 1.351 . S
C261 C262 1.434 . S
C262 C253 1.429 . S
C262 N259 1.350 . S
C262 C261 1.434 . S
C263 C264 1.369 . S
C263 C265 1.419 1_655 S
C263 H267 0.930 . S
C264 C263 1.369 . S
C264 C273 1.429 . S
C265 C263 1.419 1_455 S
C265 C266 1.363 . S
C265 H268 0.929 . S
C266 C265 1.363 . S
C266 C272 1.428 . S
H267 C263 0.930 . S
H268 C265 0.929 . S
S269 N270 1.613 1_455 S
S269 N271 1.610 . S
N270 S269 1.613 1_655 S
N270 C273 1.350 . S
N271 S269 1.610 . S
N271 C272 1.351 . S
C272 C266 1.428 . S
C272 N271 1.351 . S
C272 C273 1.434 1_455 S
C273 C264 1.429 . S
C273 N270 1.350 . S
C273 C272 1.434 1_655 S
C274 C275 1.369 . S
C274 C276 1.419 . S
C274 H278 0.930 . S
C275 C274 1.369 . S
C275 C284 1.429 . S
C276 C274 1.419 . S
C276 C277 1.363 . S
C276 H279 0.929 . S
C277 C276 1.363 . S
C277 C283 1.428 . S
H278 C274 0.930 . S
H279 C276 0.929 . S
S280 N281 1.613 . S
S280 N282 1.610 . S
N281 S280 1.613 . S
N281 C284 1.350 . S
N282 S280 1.610 . S
N282 C283 1.351 . S
C283 C277 1.428 . S
C283 N282 1.351 . S
C283 C284 1.434 . S
C284 C275 1.429 . S
C284 N281 1.350 . S
C284 C283 1.434 . S
C285 C286 1.369 . S
C285 C287 1.419 . S
C285 H289 0.930 . S
C286 C285 1.369 . S
C286 C295 1.429 . S
C287 C285 1.419 . S
C287 C288 1.363 . S
C287 H290 0.929 . S
C288 C287 1.363 . S
C288 C294 1.428 . S
H289 C285 0.930 . S
H290 C287 0.929 . S
S291 N292 1.613 1_565 S
S291 N293 1.597 1_565 S
N292 S291 1.613 1_545 S
N292 C295 1.350 . S
N293 S291 1.597 1_545 S
N293 C294 1.372 . S
C294 C288 1.428 . S
C294 N293 1.372 . S
C294 C295 1.434 . S
C295 C286 1.429 . S
C295 N292 1.350 . S
C295 C294 1.434 . S
C296 C297 1.369 . S
C296 C298 1.419 . S
C296 H300 0.930 . S
C297 C296 1.369 . S
C297 C306 1.429 . S
C298 C296 1.419 . S
C298 C299 1.363 . S
C298 H301 0.929 . S
C299 C298 1.363 . S
C299 C305 1.428 . S
H300 C296 0.930 . S
H301 C298 0.929 . S
S302 N303 1.613 . S
S302 N304 1.610 . S
N303 S302 1.613 . S
N303 C306 1.350 . S
N304 S302 1.610 . S
N304 C305 1.351 . S
C305 C299 1.428 . S
C305 N304 1.351 . S
C305 C306 1.434 . S
C306 C297 1.429 . S
C306 N303 1.350 . S
C306 C305 1.434 . S
C307 C308 1.369 . S
C307 C309 1.419 . S
C307 H311 0.930 . S
C308 C307 1.369 . S
C308 C317 1.429 . S
C309 C307 1.419 . S
C309 C310 1.363 . S
C309 H312 0.929 . S
C310 C309 1.363 . S
C310 C316 1.428 . S
H311 C307 0.930 . S
H312 C309 0.929 . S
S313 N314 1.613 . S
S313 N315 1.610 . S
N314 S313 1.613 . S
N314 C317 1.350 . S
N315 S313 1.610 . S
N315 C316 1.351 . S
C316 C310 1.428 . S
C316 N315 1.351 . S
C316 C317 1.434 . S
C317 C308 1.429 . S
C317 N314 1.350 . S
C317 C316 1.434 . S
C318 C319 1.369 . S
C318 C320 1.419 . S
C318 H322 0.930 . S
C319 C318 1.369 . S
C319 C328 1.429 . S
C320 C318 1.419 . S
C320 C321 1.363 . S
C320 H323 0.929 . S
C321 C320 1.363 . S
C321 C327 1.428 . S
H322 C318 0.930 . S
H323 C320 0.929 . S
S324 N325 1.613 . S
S324 N326 1.610 . S
N325 S324 1.613 . S
N325 C328 1.350 . S
N326 S324 1.610 . S
N326 C327 1.351 . S
C327 C321 1.428 . S
C327 N326 1.351 . S
C327 C328 1.434 . S
C328 C319 1.429 . S
C328 N325 1.350 . S
C328 C327 1.434 . S
C329 C330 1.369 . S
C329 C331 1.419 . S
C329 H333 0.930 . S
C330 C329 1.369 . S
C330 C339 1.429 . S
C331 C329 1.419 . S
C331 C332 1.363 . S
C331 H334 0.929 . S
C332 C331 1.363 . S
C332 C338 1.428 . S
H333 C329 0.930 . S
H334 C331 0.929 . S
S335 N336 1.613 . S
S335 N337 1.610 . S
N336 S335 1.613 . S
N336 C339 1.350 . S
N337 S335 1.610 . S
N337 C338 1.351 . S
C338 C332 1.428 . S
C338 N337 1.351 . S
C338 C339 1.434 . S
C339 C330 1.429 . S
C339 N336 1.350 . S
C339 C338 1.434 . S
C340 C341 1.369 . S
C340 C342 1.419 1_455 S
C340 H344 0.930 . S
C341 C340 1.369 . S
C341 C350 1.429 . S
C342 C340 1.419 1_655 S
C342 C343 1.363 . S
C342 H345 0.929 . S
C343 C342 1.363 . S
C343 C349 1.428 . S
H344 C340 0.930 . S
H345 C342 0.929 . S
S346 N347 1.613 . S
S346 N348 1.610 1_455 S
N347 S346 1.613 . S
N347 C350 1.350 . S
N348 S346 1.610 1_655 S
N348 C349 1.351 . S
C349 C343 1.428 . S
C349 N348 1.351 . S
C349 C350 1.434 1_655 S
C350 C341 1.429 . S
C350 N347 1.350 . S
C350 C349 1.434 1_455 S
C351 C352 1.369 . S
C351 C353 1.419 . S
C351 H355 0.930 . S
C352 C351 1.369 . S
C352 C361 1.429 . S
C353 C351 1.419 . S
C353 C354 1.363 . S
C353 H356 0.929 . S
C354 C353 1.363 . S
C354 C360 1.428 . S
H355 C351 0.930 . S
H356 C353 0.929 . S
S357 N358 1.613 . S
S357 N359 1.610 . S
N358 S357 1.613 . S
N358 C361 1.350 . S
N359 S357 1.610 . S
N359 C360 1.351 . S
C360 C354 1.428 . S
C360 N359 1.351 . S
C360 C361 1.434 . S
C361 C352 1.429 . S
C361 N358 1.350 . S
C361 C360 1.434 . S
C362 C363 1.369 . S
C362 C364 1.419 . S
C362 H366 0.930 . S
C363 C362 1.369 . S
C363 C372 1.429 . S
C364 C362 1.419 . S
C364 C365 1.363 . S
C364 H367 0.929 . S
C365 C364 1.363 . S
C365 C371 1.428 . S
H366 C362 0.930 . S
H367 C364 0.929 . S
S368 N369 1.613 . S
S368 N370 1.610 . S
N369 S368 1.613 . S
N369 C372 1.350 . S
N370 S368 1.610 . S
N370 C371 1.351 . S
C371 C365 1.428 . S
C371 N370 1.351 . S
C371 C372 1.434 . S
C372 C363 1.429 . S
C372 N369 1.350 . S
C372 C371 1.434 . S
C373 C374 1.369 . S
C373 C375 1.419 1_455 S
C373 H377 0.930 . S
C374 C373 1.369 . S
C374 C383 1.429 . S
C375 C373 1.419 1_655 S
C375 C376 1.363 . S
C375 H378 0.929 . S
C376 C375 1.363 . S
C376 C382 1.428 . S
H377 C373 0.930 . S
H378 C375 0.929 . S
S379 N380 1.613 . S
S379 N381 1.610 1_455 S
N380 S379 1.613 . S
N380 C383 1.350 . S
N381 S379 1.610 1_655 S
N381 C382 1.351 . S
C382 C376 1.428 . S
C382 N381 1.351 . S
C382 C383 1.434 1_655 S
C383 C374 1.429 . S
C383 N380 1.350 . S
C383 C382 1.434 1_455 S
C384 C385 1.369 . S
C384 C386 1.419 1_554 S
C384 H388 0.930 . S
C385 C384 1.369 . S
C385 C394 1.429 . S
C386 C384 1.419 1_556 S
C386 C387 1.363 . S
C386 H389 0.929 . S
C387 C386 1.363 . S
C387 C393 1.428 . S
H388 C384 0.930 . S
H389 C386 0.929 . S
S390 N391 1.613 . S
S390 N392 1.610 1_554 S
N391 S390 1.613 . S
N391 C394 1.350 . S
N392 S390 1.610 1_556 S
N392 C393 1.351 . S
C393 C387 1.428 . S
C393 N392 1.351 . S
C393 C394 1.434 1_556 S
C394 C385 1.429 . S
C394 N391 1.350 . S
C394 C393 1.434 1_554 S
C395 C396 1.369 . S
C395 C397 1.419 . S
C395 H399 0.930 . S
C396 C395 1.369 . S
C396 C405 1.429 . S
C397 C395 1.419 . S
C397 C398 1.363 . S
C397 H400 0.929 . S
C398 C397 1.363 . S
C398 C404 1.428 . S
H399 C395 0.930 . S
H400 C397 0.929 . S
S401 N402 1.613 . S
S401 N403 1.610 . S
N402 S401 1.613 . S
N402 C405 1.350 1_545 S
N403 S401 1.610 . S
N403 C404 1.351 1_545 S
C404 C398 1.428 . S
C404 N403 1.351 1_565 S
C404 C405 1.434 . S
C405 C396 1.429 . S
C405 N402 1.350 1_565 S
C405 C404 1.434 . S
C406 C407 1.369 . S
C406 C408 1.419 . S
C406 H410 0.930 . S
C407 C406 1.369 . S
C407 C416 1.429 . S
C408 C406 1.419 . S
C408 C409 1.363 . S
C408 H411 0.929 . S
C409 C408 1.363 . S
C409 C415 1.428 . S
H410 C406 0.930 . S
H411 C408 0.929 . S
S412 N413 1.613 . S
S412 N414 1.610 . S
N413 S412 1.613 . S
N413 C416 1.350 . S
N414 S412 1.610 . S
N414 C415 1.351 . S
C415 C409 1.428 . S
C415 N414 1.351 . S
C415 C416 1.434 . S
C416 C407 1.429 . S
C416 N413 1.350 . S
C416 C415 1.434 . S
C417 C418 1.369 . S
C417 C419 1.419 . S
C417 H421 0.930 . S
C418 C417 1.369 . S
C418 C427 1.429 . S
C419 C417 1.419 . S
C419 C420 1.363 . S
C419 H422 0.929 . S
C420 C419 1.363 . S
C420 C426 1.428 . S
H421 C417 0.930 . S
H422 C419 0.929 . S
S423 N424 1.613 . S
S423 N425 1.610 . S
N424 S423 1.613 . S
N424 C427 1.350 . S
N425 S423 1.610 . S
N425 C426 1.351 . S
C426 C420 1.428 . S
C426 N425 1.351 . S
C426 C427 1.434 . S
C427 C418 1.429 . S
C427 N424 1.350 . S
C427 C426 1.434 . S
C428 C429 1.369 . S
C428 C430 1.419 1_556 S
C428 H432 0.930 . S
C429 C428 1.369 . S
C429 C438 1.429 . S
C430 C428 1.419 1_554 S
C430 C431 1.363 . S
C430 H433 0.929 . S
C431 C430 1.363 . S
C431 C437 1.428 1_554 S
H432 C428 0.930 . S
H433 C430 0.929 . S
S434 N435 1.613 . S
S434 N436 1.610 . S
N435 S434 1.613 . S
N435 C438 1.350 . S
N436 S434 1.610 . S
N436 C437 1.351 . S
C437 C431 1.428 1_556 S
C437 N436 1.351 . S
C437 C438 1.434 . S
C438 C429 1.429 . S
C438 N435 1.350 . S
C438 C437 1.434 . S
C439 C440 1.369 . S
C439 C441 1.419 . S
C439 H443 0.930 . S
C440 C439 1.369 . S
C440 C449 1.429 . S
C441 C439 1.419 . S
C441 C442 1.363 . S
C441 H444 0.929 . S
C442 C441 1.363 . S
C442 C448 1.428 . S
H443 C439 0.930 . S
H444 C441 0.929 . S
S445 N446 1.613 . S
S445 N447 1.610 . S
N446 S445 1.613 . S
N446 C449 1.350 . S
N447 S445 1.610 . S
N447 C448 1.351 . S
C448 C442 1.428 . S
C448 N447 1.351 . S
C448 C449 1.434 . S
C449 C440 1.429 . S
C449 N446 1.350 . S
C449 C448 1.434 . S
C450 C451 1.369 . S
C450 C452 1.419 . S
C450 H454 0.930 . S
C451 C450 1.369 . S
C451 C460 1.429 . S
C452 C450 1.419 . S
C452 C453 1.363 . S
C452 H455 0.929 . S
C453 C452 1.363 . S
C453 C459 1.428 . S
H454 C450 0.930 . S
H455 C452 0.929 . S
S456 N457 1.613 . S
S456 N458 1.610 . S
N457 S456 1.613 . S
N457 C460 1.350 . S
N458 S456 1.610 . S
N458 C459 1.351 . S
C459 C453 1.428 . S
C459 N458 1.351 . S
C459 C460 1.434 . S
C460 C451 1.429 . S
C460 N457 1.350 . S
C460 C459 1.434 . S
C461 C462 1.369 . S
C461 C463 1.419 . S
C461 H465 0.930 . S
C462 C461 1.369 . S
C462 C471 1.429 . S
C463 C461 1.419 . S
C463 C464 1.363 . S
C463 H466 0.929 . S
C464 C463 1.363 . S
C464 C470 1.428 . S
H465 C461 0.930 . S
H466 C463 0.929 . S
S467 N468 1.613 . S
S467 N469 1.610 . S
N468 S467 1.613 . S
N468 C471 1.350 . S
N469 S467 1.610 . S
N469 C470 1.351 . S
C470 C464 1.428 . S
C470 N469 1.351 . S
C470 C471 1.434 . S
C471 C462 1.429 . S
C471 N468 1.350 . S
C471 C470 1.434 . S
C472 C473 1.369 . S
C472 C474 1.419 1_545 S
C472 H476 0.930 . S
C473 C472 1.369 . S
C473 C482 1.429 1_545 S
C474 C472 1.419 1_565 S
C474 C475 1.363 . S
C474 H477 0.929 . S
C475 C474 1.363 . S
C475 C481 1.428 . S
H476 C472 0.930 . S
H477 C474 0.929 . S
S478 N479 1.613 . S
S478 N480 1.610 . S
N479 S478 1.613 . S
N479 C482 1.350 . S
N480 S478 1.610 . S
N480 C481 1.351 . S
C481 C475 1.428 . S
C481 N480 1.351 . S
C481 C482 1.434 . S
C482 C473 1.429 1_565 S
C482 N479 1.350 . S
C482 C481 1.434 . S
C483 C484 1.369 . S
C483 C485 1.419 . S
C483 H487 0.930 . S
C484 C483 1.369 . S
C484 C493 1.429 . S
C485 C483 1.419 . S
C485 C486 1.363 . S
C485 H488 0.929 . S
C486 C485 1.363 . S
C486 C492 1.428 . S
H487 C483 0.930 . S
H488 C485 0.929 . S
S489 N490 1.613 . S
S489 N491 1.610 . S
N490 S489 1.613 . S
N490 C493 1.350 . S
N491 S489 1.610 . S
N491 C492 1.351 . S
C492 C486 1.428 . S
C492 N491 1.351 . S
C492 C493 1.434 . S
C493 C484 1.429 . S
C493 N490 1.350 . S
C493 C492 1.434 . S
C494 C495 1.369 1_565 S
C494 C496 1.419 1_556 S
C494 H498 0.930 . S
C495 C494 1.369 1_545 S
C495 C504 1.429 1_556 S
C496 C494 1.419 1_554 S
C496 C497 1.363 . S
C496 H499 0.929 . S
C497 C496 1.363 . S
C497 C503 1.429 1_565 S
H498 C494 0.930 . S
H499 C496 0.929 . S
S500 N501 1.613 1_554 S
S500 N502 1.610 . S
N501 S500 1.613 1_556 S
N501 C504 1.350 1_556 S
N502 S500 1.610 . S
N502 C503 1.351 . S
C503 C497 1.429 1_545 S
C503 N502 1.351 . S
C503 C504 1.434 . S
C504 C495 1.429 1_554 S
C504 N501 1.350 1_554 S
C504 C503 1.434 . S
C505 C506 1.369 . S
C505 C507 1.419 . S
C505 H509 0.930 . S
C506 C505 1.369 . S
C506 C515 1.429 . S
C507 C505 1.419 . S
C507 C508 1.363 . S
C507 H510 0.929 . S
C508 C507 1.363 . S
C508 C514 1.428 . S
H509 C505 0.930 . S
H510 C507 0.929 . S
S511 N512 1.613 . S
S511 N513 1.610 . S
N512 S511 1.613 . S
N512 C515 1.350 . S
N513 S511 1.610 . S
N513 C514 1.351 . S
C514 C508 1.428 . S
C514 N513 1.351 . S
C514 C515 1.434 . S
C515 C506 1.429 . S
C515 N512 1.350 . S
C515 C514 1.434 . S
C516 C517 1.369 . S
C516 C518 1.419 . S
C516 H520 0.930 . S
C517 C516 1.369 . S
C517 C526 1.429 1_545 S
C518 C516 1.419 . S
C518 C519 1.363 1_545 S
C518 H521 0.929 . S
C519 C518 1.363 1_565 S
C519 C525 1.428 . S
H520 C516 0.930 . S
H521 C518 0.929 . S
S522 N523 1.613 . S
S522 N524 1.610 . S
N523 S522 1.613 . S
N523 C526 1.350 . S
N524 S522 1.610 . S
N524 C525 1.351 . S
C525 C519 1.428 . S
C525 N524 1.351 . S
C525 C526 1.434 . S
C526 C517 1.429 1_565 S
C526 N523 1.350 . S
C526 C525 1.434 . S
C527 C528 1.369 . S
C527 C529 1.419 . S
C527 H531 0.930 . S
C528 C527 1.369 . S
C528 C537 1.429 . S
C529 C527 1.419 . S
C529 C530 1.363 . S
C529 H532 0.929 . S
C530 C529 1.363 . S
C530 C536 1.428 . S
H531 C527 0.930 . S
H532 C529 0.929 . S
S533 N534 1.613 . S
S533 N535 1.610 . S
N534 S533 1.613 . S
N534 C537 1.350 . S
N535 S533 1.610 . S
N535 C536 1.351 . S
C536 C530 1.428 . S
C536 N535 1.351 . S
C536 C537 1.434 . S
C537 C528 1.429 . S
C537 N534 1.350 . S
C537 C536 1.434 . S
C538 C539 1.369 1_556 S
C538 C540 1.419 . S
C538 H542 0.930 . S
C539 C538 1.369 1_554 S
C539 C548 1.429 1_565 S
C540 C538 1.419 . S
C540 C541 1.363 1_565 S
C540 H543 0.929 . S
C541 C540 1.363 1_545 S
C541 C547 1.428 . S
H542 C538 0.930 . S
H543 C540 0.929 . S
S544 N545 1.613 . S
S544 N546 1.610 . S
N545 S544 1.613 . S
N545 C548 1.350 . S
N546 S544 1.610 . S
N546 C547 1.351 1_554 S
C547 C541 1.428 . S
C547 N546 1.351 1_556 S
C547 C548 1.434 1_556 S
C548 C539 1.429 1_545 S
C548 N545 1.350 . S
C548 C547 1.434 1_554 S
C549 C550 1.369 . S
C549 C551 1.419 . S
C549 H553 0.930 . S
C550 C549 1.369 . S
C550 C559 1.429 . S
C551 C549 1.419 . S
C551 C552 1.363 . S
C551 H554 0.929 . S
C552 C551 1.363 . S
C552 C558 1.428 . S
H553 C549 0.930 . S
H554 C551 0.929 . S
S555 N556 1.613 . S
S555 N557 1.610 . S
N556 S555 1.613 . S
N556 C559 1.350 . S
N557 S555 1.610 . S
N557 C558 1.351 . S
C558 C552 1.428 . S
C558 N557 1.351 . S
C558 C559 1.434 . S
C559 C550 1.429 . S
C559 N556 1.350 . S
C559 C558 1.434 . S
C209 C148 1.431 . S
C211 C8 1.418 . S
C220 C200 1.387 . S
C222 C18 1.399 . S
C231 C31 1.399 . S
C233 C125 1.383 . S
C242 C174 1.389 . S
C244 C47 1.393 . S
C253 C60 1.445 . S
C255 C177 1.459 . S
C264 C70 1.384 . S
C266 C151 1.385 . S
C275 C83 1.375 . S
C277 C203 1.376 . S
C286 C96 1.369 . S
C288 C122 1.369 . S
C297 C44 1.434 . S
C299 C112 1.429 . S
C308 C138 1.446 . S
C310 C21 1.441 . S
C319 C164 1.444 . S
C321 C73 1.452 . S
C330 C187 1.452 . S
C332 C99 1.442 . S
C341 C57 1.449 . S
C343 C109 1.444 . S
C352 C135 1.377 . S
C354 C86 1.382 . S
C363 C190 1.457 . S
C365 C34 1.456 . S
C374 C5 1.405 . S
C376 C161 1.401 . S
C385 C10 1.259 . S
C387 C62 1.256 . S
C396 C13 1.272 . S
C398 C65 1.266 . S
C407 C26 1.244 . S
C409 C78 1.248 . S
C418 C91 1.252 . S
C420 C49 1.250 . S
C429 C114 1.232 . S
C431 C166 1.230 . S
C440 C169 1.199 . S
C442 C117 1.210 . S
C451 C140 1.354 . S
C453 C182 1.361 . S
C462 C195 1.253 . S
C464 C153 1.253 . S
C473 C101 1.222 . S
C475 C23 1.226 . S
C484 C36 1.333 . S
C486 C52 1.320 . S
C495 C39 1.292 . S
C497 C75 1.292 . S
C506 C0 1.223 . S
C508 C88 1.222 . S
C517 C127 1.215 . S
C519 C205 1.204 . S
C528 C156 1.294 . S
C530 C130 1.287 . S
C539 C143 1.272 . S
C541 C179 1.272 . S
C550 C192 1.283 . S
C552 C104 1.275 . S
