# Generated by pormake.
# Topology mer, (4)-cn, num edge types: 1
# Building blocks:
#     Node 0, Type 0, BuildingBlock: AZAVOO_clean_sbu_0, # of connection points: 4
#     Node 1, Type 0, BuildingBlock: AZAVOO_clean_sbu_0, # of connection points: 4
#     Node 2, Type 0, BuildingBlock: AZAVOO_clean_sbu_0, # of connection points: 4
#     Node 3, Type 0, BuildingBlock: AZAVOO_clean_sbu_0, # of connection points: 4
#     Node 4, Type 0, BuildingBlock: AZAVOO_clean_sbu_0, # of connection points: 4
#     Node 5, Type 0, BuildingBlock: AZAVOO_clean_sbu_0, # of connection points: 4
#     Node 6, Type 0, BuildingBlock: AZAVOO_clean_sbu_0, # of connection points: 4
#     Node 7, Type 0, BuildingBlock: AZAVOO_clean_sbu_0, # of connection points: 4
#     Node 8, Type 0, BuildingBlock: AZAVOO_clean_sbu_0, # of connection points: 4
#     Node 9, Type 0, BuildingBlock: AZAVOO_clean_sbu_0, # of connection points: 4
#     Node 10, Type 0, BuildingBlock: AZAVOO_clean_sbu_0, # of connection points: 4
#     Node 11, Type 0, BuildingBlock: AZAVOO_clean_sbu_0, # of connection points: 4
#     Node 12, Type 0, BuildingBlock: AZAVOO_clean_sbu_0, # of connection points: 4
#     Node 13, Type 0, BuildingBlock: AZAVOO_clean_sbu_0, # of connection points: 4
#     Node 14, Type 0, BuildingBlock: AZAVOO_clean_sbu_0, # of connection points: 4
#     Node 15, Type 0, BuildingBlock: AZAVOO_clean_sbu_0, # of connection points: 4
#     Node 16, Type 0, BuildingBlock: AZAVOO_clean_sbu_0, # of connection points: 4
#     Node 17, Type 0, BuildingBlock: AZAVOO_clean_sbu_0, # of connection points: 4
#     Node 18, Type 0, BuildingBlock: AZAVOO_clean_sbu_0, # of connection points: 4
#     Node 19, Type 0, BuildingBlock: AZAVOO_clean_sbu_0, # of connection points: 4
#     Node 20, Type 0, BuildingBlock: AZAVOO_clean_sbu_0, # of connection points: 4
#     Node 21, Type 0, BuildingBlock: AZAVOO_clean_sbu_0, # of connection points: 4
#     Node 22, Type 0, BuildingBlock: AZAVOO_clean_sbu_0, # of connection points: 4
#     Node 23, Type 0, BuildingBlock: AZAVOO_clean_sbu_0, # of connection points: 4
#     Node 24, Type 0, BuildingBlock: AZAVOO_clean_sbu_0, # of connection points: 4
#     Node 25, Type 0, BuildingBlock: AZAVOO_clean_sbu_0, # of connection points: 4
#     Node 26, Type 0, BuildingBlock: AZAVOO_clean_sbu_0, # of connection points: 4
#     Node 27, Type 0, BuildingBlock: AZAVOO_clean_sbu_0, # of connection points: 4
#     Node 28, Type 0, BuildingBlock: AZAVOO_clean_sbu_0, # of connection points: 4
#     Node 29, Type 0, BuildingBlock: AZAVOO_clean_sbu_0, # of connection points: 4
#     Node 30, Type 0, BuildingBlock: AZAVOO_clean_sbu_0, # of connection points: 4
#     Node 31, Type 0, BuildingBlock: AZAVOO_clean_sbu_0, # of connection points: 4
#     Edge 32, Type (0, 0), BuildingBlock: XIVTED_clean_linker_0, # of connection points: 2
#     Edge 33, Type (0, 0), BuildingBlock: XIVTED_clean_linker_0, # of connection points: 2
#     Edge 34, Type (0, 0), BuildingBlock: XIVTED_clean_linker_0, # of connection points: 2
#     Edge 35, Type (0, 0), BuildingBlock: XIVTED_clean_linker_0, # of connection points: 2
#     Edge 36, Type (0, 0), BuildingBlock: XIVTED_clean_linker_0, # of connection points: 2
#     Edge 37, Type (0, 0), BuildingBlock: XIVTED_clean_linker_0, # of connection points: 2
#     Edge 38, Type (0, 0), BuildingBlock: XIVTED_clean_linker_0, # of connection points: 2
#     Edge 39, Type (0, 0), BuildingBlock: XIVTED_clean_linker_0, # of connection points: 2
#     Edge 40, Type (0, 0), BuildingBlock: XIVTED_clean_linker_0, # of connection points: 2
#     Edge 41, Type (0, 0), BuildingBlock: XIVTED_clean_linker_0, # of connection points: 2
#     Edge 42, Type (0, 0), BuildingBlock: XIVTED_clean_linker_0, # of connection points: 2
#     Edge 43, Type (0, 0), BuildingBlock: XIVTED_clean_linker_0, # of connection points: 2
#     Edge 44, Type (0, 0), BuildingBlock: XIVTED_clean_linker_0, # of connection points: 2
#     Edge 45, Type (0, 0), BuildingBlock: XIVTED_clean_linker_0, # of connection points: 2
#     Edge 46, Type (0, 0), BuildingBlock: XIVTED_clean_linker_0, # of connection points: 2
#     Edge 47, Type (0, 0), BuildingBlock: XIVTED_clean_linker_0, # of connection points: 2
#     Edge 48, Type (0, 0), BuildingBlock: XIVTED_clean_linker_0, # of connection points: 2
#     Edge 49, Type (0, 0), BuildingBlock: XIVTED_clean_linker_0, # of connection points: 2
#     Edge 50, Type (0, 0), BuildingBlock: XIVTED_clean_linker_0, # of connection points: 2
#     Edge 51, Type (0, 0), BuildingBlock: XIVTED_clean_linker_0, # of connection points: 2
#     Edge 52, Type (0, 0), BuildingBlock: XIVTED_clean_linker_0, # of connection points: 2
#     Edge 53, Type (0, 0), BuildingBlock: XIVTED_clean_linker_0, # of connection points: 2
#     Edge 54, Type (0, 0), BuildingBlock: XIVTED_clean_linker_0, # of connection points: 2
#     Edge 55, Type (0, 0), BuildingBlock: XIVTED_clean_linker_0, # of connection points: 2
#     Edge 56, Type (0, 0), BuildingBlock: XIVTED_clean_linker_0, # of connection points: 2
#     Edge 57, Type (0, 0), BuildingBlock: XIVTED_clean_linker_0, # of connection points: 2
#     Edge 58, Type (0, 0), BuildingBlock: XIVTED_clean_linker_0, # of connection points: 2
#     Edge 59, Type (0, 0), BuildingBlock: XIVTED_clean_linker_0, # of connection points: 2
#     Edge 60, Type (0, 0), BuildingBlock: XIVTED_clean_linker_0, # of connection points: 2
#     Edge 61, Type (0, 0), BuildingBlock: XIVTED_clean_linker_0, # of connection points: 2
#     Edge 62, Type (0, 0), BuildingBlock: XIVTED_clean_linker_0, # of connection points: 2
#     Edge 63, Type (0, 0), BuildingBlock: XIVTED_clean_linker_0, # of connection points: 2
#     Edge 64, Type (0, 0), BuildingBlock: XIVTED_clean_linker_0, # of connection points: 2
#     Edge 65, Type (0, 0), BuildingBlock: XIVTED_clean_linker_0, # of connection points: 2
#     Edge 66, Type (0, 0), BuildingBlock: XIVTED_clean_linker_0, # of connection points: 2
#     Edge 67, Type (0, 0), BuildingBlock: XIVTED_clean_linker_0, # of connection points: 2
#     Edge 68, Type (0, 0), BuildingBlock: XIVTED_clean_linker_0, # of connection points: 2
#     Edge 69, Type (0, 0), BuildingBlock: XIVTED_clean_linker_0, # of connection points: 2
#     Edge 70, Type (0, 0), BuildingBlock: XIVTED_clean_linker_0, # of connection points: 2
#     Edge 71, Type (0, 0), BuildingBlock: XIVTED_clean_linker_0, # of connection points: 2
#     Edge 72, Type (0, 0), BuildingBlock: XIVTED_clean_linker_0, # of connection points: 2
#     Edge 73, Type (0, 0), BuildingBlock: XIVTED_clean_linker_0, # of connection points: 2
#     Edge 74, Type (0, 0), BuildingBlock: XIVTED_clean_linker_0, # of connection points: 2
#     Edge 75, Type (0, 0), BuildingBlock: XIVTED_clean_linker_0, # of connection points: 2
#     Edge 76, Type (0, 0), BuildingBlock: XIVTED_clean_linker_0, # of connection points: 2
#     Edge 77, Type (0, 0), BuildingBlock: XIVTED_clean_linker_0, # of connection points: 2
#     Edge 78, Type (0, 0), BuildingBlock: XIVTED_clean_linker_0, # of connection points: 2
#     Edge 79, Type (0, 0), BuildingBlock: XIVTED_clean_linker_0, # of connection points: 2
#     Edge 80, Type (0, 0), BuildingBlock: XIVTED_clean_linker_0, # of connection points: 2
#     Edge 81, Type (0, 0), BuildingBlock: XIVTED_clean_linker_0, # of connection points: 2
#     Edge 82, Type (0, 0), BuildingBlock: XIVTED_clean_linker_0, # of connection points: 2
#     Edge 83, Type (0, 0), BuildingBlock: XIVTED_clean_linker_0, # of connection points: 2
#     Edge 84, Type (0, 0), BuildingBlock: XIVTED_clean_linker_0, # of connection points: 2
#     Edge 85, Type (0, 0), BuildingBlock: XIVTED_clean_linker_0, # of connection points: 2
#     Edge 86, Type (0, 0), BuildingBlock: XIVTED_clean_linker_0, # of connection points: 2
#     Edge 87, Type (0, 0), BuildingBlock: XIVTED_clean_linker_0, # of connection points: 2
#     Edge 88, Type (0, 0), BuildingBlock: XIVTED_clean_linker_0, # of connection points: 2
#     Edge 89, Type (0, 0), BuildingBlock: XIVTED_clean_linker_0, # of connection points: 2
#     Edge 90, Type (0, 0), BuildingBlock: XIVTED_clean_linker_0, # of connection points: 2
#     Edge 91, Type (0, 0), BuildingBlock: XIVTED_clean_linker_0, # of connection points: 2
#     Edge 92, Type (0, 0), BuildingBlock: XIVTED_clean_linker_0, # of connection points: 2
#     Edge 93, Type (0, 0), BuildingBlock: XIVTED_clean_linker_0, # of connection points: 2
#     Edge 94, Type (0, 0), BuildingBlock: XIVTED_clean_linker_0, # of connection points: 2
#     Edge 95, Type (0, 0), BuildingBlock: XIVTED_clean_linker_0, # of connection points: 2
# Relax obj value: 0.175
# Max RMSD: 0.167
# Mean RMSD: 0.163
data_MOF--net-mer--node1-AZAVOO_clean_sbu_0--edge1-XIVTED_clean_linker_0
_symmetry_space_group_name_H-M    P1
_symmetry_Int_Tables_number       1
_symmetry_cell_setting            triclinic
loop_
_symmetry_equiv_pos_as_xyz
'x, y, z'
_cell_length_a     71.954962
_cell_length_b     72.470792
_cell_length_c     41.950303
_cell_angle_alpha  89.809618
_cell_angle_beta   89.903447
_cell_angle_gamma 90.058285
loop_
_atom_site_label
_atom_site_type_symbol
_atom_site_fract_x
_atom_site_fract_y
_atom_site_fract_z
_atom_type_partial_charge
Mg0 Mg 0.08467 0.22705 0.28194 0.0
O1 O 0.09402 0.22641 0.33467 0.0
O2 O 0.12497 0.22396 0.33424 0.0
Mg3 Mg 0.13568 0.22371 0.28321 0.0
C4 C 0.10957 0.22511 0.34922 0.0
C5 C 0.04391 0.23922 0.27435 0.0
O6 O 0.05067 0.24117 0.24541 0.0
O7 O 0.0943 0.25752 0.27657 0.0
O8 O 0.12512 0.25306 0.27717 0.0
O9 O 0.08513 0.19567 0.28063 0.0
O10 O 0.10865 0.21366 0.26771 0.0
C11 C 0.11101 0.26366 0.27526 0.0
C12 C 0.10226 0.19731 0.27163 0.0
O13 O 0.05486 0.23437 0.29662 0.0
Mg14 Mg 0.70474 0.07719 0.36099 0.0
O15 O 0.73239 0.09294 0.351 0.0
O16 O 0.75421 0.0792 0.38063 0.0
Mg17 Mg 0.74145 0.05528 0.40846 0.0
C18 C 0.7492 0.09163 0.3608 0.0
C19 C 0.67222 0.09281 0.32306 0.0
O20 O 0.66453 0.08527 0.34839 0.0
O21 O 0.71387 0.05272 0.33021 0.0
O22 O 0.73559 0.0401 0.36163 0.0
O23 O 0.69927 0.09553 0.40267 0.0
O24 O 0.71446 0.06913 0.40566 0.0
C25 C 0.72593 0.04023 0.33609 0.0
C26 C 0.70858 0.08379 0.41961 0.0
O27 O 0.68978 0.09165 0.31972 0.0
Mg28 Mg 0.87948 0.72434 0.28604 0.0
O29 O 0.87068 0.7244 0.3392 0.0
O30 O 0.83963 0.72561 0.3395 0.0
Mg31 Mg 0.82838 0.72587 0.28894 0.0
C32 C 0.85516 0.725 0.35411 0.0
C33 C 0.92084 0.71814 0.27542 0.0
O34 O 0.91384 0.72052 0.24679 0.0
O35 O 0.87079 0.69363 0.28059 0.0
O36 O 0.83981 0.6969 0.28211 0.0
O37 O 0.87808 0.75565 0.28482 0.0
O38 O 0.85491 0.73707 0.27287 0.0
C39 C 0.85431 0.68689 0.27967 0.0
C40 C 0.86089 0.75359 0.27656 0.0
O41 O 0.90978 0.71796 0.29912 0.0
Mg42 Mg 0.25999 0.87763 0.36277 0.0
O43 O 0.23199 0.86257 0.35294 0.0
O44 O 0.21033 0.87701 0.38188 0.0
Mg45 Mg 0.22355 0.9008 0.40904 0.0
C46 C 0.21516 0.86434 0.36248 0.0
C47 C 0.29206 0.85998 0.32604 0.0
O48 O 0.2999 0.8666 0.35186 0.0
O49 O 0.25172 0.90213 0.33112 0.0
O50 O 0.23006 0.91545 0.36177 0.0
O51 O 0.26465 0.8594 0.40507 0.0
O52 O 0.25019 0.88623 0.40704 0.0
C53 C 0.23989 0.91493 0.3364 0.0
C54 C 0.25553 0.87149 0.4215 0.0
O55 O 0.27469 0.86247 0.32206 0.0
Mg56 Mg 0.08017 0.72687 0.69703 0.0
O57 O 0.08884 0.72537 0.64382 0.0
O58 O 0.11984 0.72802 0.64306 0.0
Mg59 Mg 0.13112 0.73156 0.69323 0.0
C60 C 0.10433 0.72602 0.62875 0.0
C61 C 0.03932 0.71511 0.70814 0.0
O62 O 0.04587 0.71569 0.73733 0.0
O63 O 0.09082 0.69703 0.70589 0.0
O64 O 0.12146 0.70237 0.70398 0.0
O65 O 0.07876 0.75799 0.69392 0.0
O66 O 0.10391 0.7422 0.70662 0.0
C67 C 0.1077 0.69146 0.70766 0.0
C68 C 0.09636 0.7578 0.70008 0.0
O69 O 0.05043 0.71791 0.68501 0.0
Mg70 Mg 0.26471 0.07751 0.61896 0.0
O71 O 0.23672 0.09248 0.62881 0.0
O72 O 0.21527 0.07849 0.59884 0.0
Mg73 Mg 0.22869 0.05514 0.57073 0.0
C74 C 0.21997 0.09087 0.61887 0.0
C75 C 0.29663 0.09355 0.65804 0.0
O76 O 0.30481 0.08662 0.63274 0.0
O77 O 0.25604 0.05259 0.64951 0.0
O78 O 0.23506 0.0397 0.61718 0.0
O79 O 0.26985 0.09632 0.57735 0.0
O80 O 0.25533 0.06958 0.57409 0.0
C81 C 0.24447 0.03974 0.64298 0.0
C82 C 0.26086 0.08445 0.56027 0.0
O83 O 0.27907 0.09192 0.66073 0.0
Mg84 Mg 0.88373 0.22794 0.69486 0.0
O85 O 0.87544 0.22999 0.64152 0.0
O86 O 0.84442 0.22762 0.64038 0.0
Mg87 Mg 0.83277 0.22374 0.69032 0.0
C88 C 0.86004 0.2296 0.62628 0.0
C89 C 0.92483 0.23684 0.7071 0.0
O90 O 0.91816 0.23367 0.73579 0.0
O91 O 0.87326 0.25776 0.70423 0.0
O92 O 0.84258 0.25274 0.70184 0.0
O93 O 0.88493 0.19686 0.69125 0.0
O94 O 0.8598 0.21271 0.7038 0.0
C95 C 0.85643 0.26346 0.70594 0.0
C96 C 0.86729 0.19711 0.69713 0.0
O97 O 0.91366 0.23675 0.68363 0.0
Mg98 Mg 0.70073 0.87789 0.61962 0.0
O99 O 0.72893 0.86328 0.62945 0.0
O100 O 0.75029 0.87786 0.59986 0.0
Mg101 Mg 0.73659 0.90124 0.57201 0.0
C102 C 0.74569 0.86523 0.61966 0.0
C103 C 0.66889 0.86131 0.65865 0.0
O104 O 0.66062 0.8687 0.6338 0.0
O105 O 0.70882 0.9027 0.65052 0.0
O106 O 0.72978 0.91622 0.61862 0.0
O107 O 0.69604 0.85934 0.57781 0.0
O108 O 0.71017 0.88633 0.5749 0.0
C109 C 0.72021 0.91579 0.6443 0.0
C110 C 0.70491 0.87147 0.56089 0.0
O111 O 0.68646 0.86288 0.6611 0.0
Mg112 Mg 0.86206 0.73892 0.665 0.0
O113 O 0.8577 0.73526 0.61063 0.0
O114 O 0.82696 0.73386 0.60318 0.0
Mg115 Mg 0.81181 0.7356 0.6506 0.0
C116 C 0.84355 0.73375 0.59236 0.0
C117 C 0.90103 0.7258 0.68465 0.0
O118 O 0.89076 0.72226 0.70988 0.0
O119 O 0.85558 0.70825 0.67347 0.0
O120 O 0.82495 0.70788 0.66403 0.0
O121 O 0.85871 0.76978 0.65962 0.0
O122 O 0.83565 0.75065 0.66973 0.0
C123 C 0.84009 0.69972 0.6713 0.0
C124 C 0.84105 0.76719 0.6637 0.0
O125 O 0.89328 0.73286 0.66025 0.0
Mg126 Mg 0.22472 0.87059 0.72609 0.0
O127 O 0.22912 0.86496 0.67246 0.0
O128 O 0.22917 0.83442 0.66481 0.0
Mg129 Mg 0.2254 0.82045 0.71303 0.0
C130 C 0.23032 0.85091 0.65419 0.0
C131 C 0.24288 0.91186 0.73044 0.0
O132 O 0.25467 0.9055 0.75165 0.0
O133 O 0.25521 0.86279 0.73597 0.0
O134 O 0.25356 0.83235 0.72736 0.0
O135 O 0.19387 0.86982 0.71934 0.0
O136 O 0.21101 0.84526 0.72987 0.0
C137 C 0.26272 0.84684 0.73449 0.0
C138 C 0.19508 0.85211 0.72237 0.0
O139 O 0.23112 0.90104 0.71778 0.0
Mg140 Mg 0.1024 0.21613 0.66092 0.0
O141 O 0.10679 0.21903 0.6063 0.0
O142 O 0.13755 0.22016 0.59879 0.0
Mg143 Mg 0.15265 0.21922 0.64623 0.0
C144 C 0.12098 0.22015 0.58795 0.0
C145 C 0.06325 0.22712 0.682 0.0
O146 O 0.07342 0.22876 0.70784 0.0
O147 O 0.10886 0.24689 0.66789 0.0
O148 O 0.13948 0.24714 0.65824 0.0
O149 O 0.10559 0.18526 0.65697 0.0
O150 O 0.12879 0.20437 0.66603 0.0
C151 C 0.12435 0.2554 0.66519 0.0
C152 C 0.12327 0.18779 0.66071 0.0
O153 O 0.07116 0.22209 0.65632 0.0
Mg154 Mg 0.73881 0.08464 0.7254 0.0
O155 O 0.73404 0.08944 0.67156 0.0
O156 O 0.734 0.11987 0.66236 0.0
Mg157 Mg 0.73819 0.13458 0.70961 0.0
C158 C 0.73273 0.10325 0.65261 0.0
C159 C 0.7196 0.04357 0.72957 0.0
O160 O 0.7061 0.0505 0.74691 0.0
O161 O 0.70842 0.09269 0.73588 0.0
O162 O 0.71018 0.12298 0.72567 0.0
O163 O 0.76962 0.08525 0.7178 0.0
O164 O 0.7526 0.10998 0.7274 0.0
C165 C 0.70098 0.10867 0.73392 0.0
C166 C 0.76847 0.103 0.71994 0.0
O167 O 0.73248 0.05402 0.71918 0.0
Mg168 Mg 0.86593 0.21796 0.31555 0.0
O169 O 0.86175 0.22149 0.36994 0.0
O170 O 0.83107 0.2229 0.37808 0.0
Mg171 Mg 0.81574 0.22115 0.3309 0.0
C172 C 0.84772 0.22303 0.38851 0.0
C173 C 0.90524 0.23102 0.29621 0.0
O174 O 0.89524 0.23505 0.27094 0.0
O175 O 0.8595 0.2487 0.30766 0.0
O176 O 0.82891 0.24895 0.31772 0.0
O177 O 0.86268 0.18714 0.32074 0.0
O178 O 0.83947 0.20615 0.3112 0.0
C179 C 0.84402 0.25718 0.31032 0.0
C180 C 0.84499 0.18962 0.31707 0.0
O181 O 0.89718 0.22382 0.32023 0.0
Mg182 Mg 0.73415 0.87102 0.2559 0.0
O183 O 0.72982 0.86532 0.30951 0.0
O184 O 0.7298 0.83478 0.31721 0.0
Mg185 Mg 0.73314 0.8209 0.26897 0.0
C186 C 0.7287 0.85122 0.32783 0.0
C187 C 0.73941 0.91308 0.25417 0.0
O188 O 0.75485 0.90693 0.24128 0.0
O189 O 0.7037 0.86333 0.24569 0.0
O190 O 0.70497 0.83284 0.25457 0.0
O191 O 0.76524 0.86911 0.2626 0.0
O192 O 0.74707 0.84564 0.25054 0.0
C193 C 0.696 0.84744 0.24722 0.0
C194 C 0.76339 0.85162 0.25736 0.0
O195 O 0.72716 0.90149 0.26311 0.0
Mg196 Mg 0.0993 0.73739 0.3178 0.0
O197 O 0.1033 0.73379 0.37224 0.0
O198 O 0.13397 0.7324 0.38043 0.0
Mg199 Mg 0.14946 0.73421 0.33334 0.0
C200 C 0.11729 0.73225 0.39084 0.0
C201 C 0.05965 0.72813 0.29621 0.0
O202 O 0.06943 0.72784 0.26973 0.0
O203 O 0.10579 0.70666 0.30999 0.0
O204 O 0.13634 0.70651 0.32013 0.0
O205 O 0.10267 0.76825 0.3227 0.0
O206 O 0.12577 0.74912 0.31337 0.0
C207 C 0.1213 0.69822 0.31271 0.0
C208 C 0.12034 0.76567 0.31898 0.0
O209 O 0.068 0.73157 0.32224 0.0
Mg210 Mg 0.23256 0.08385 0.25461 0.0
O211 O 0.23606 0.08929 0.30837 0.0
O212 O 0.23531 0.11976 0.31643 0.0
Mg213 Mg 0.23219 0.1339 0.26821 0.0
C214 C 0.23667 0.10326 0.32688 0.0
C215 C 0.22818 0.04182 0.2518 0.0
O216 O 0.21306 0.04791 0.23777 0.0
O217 O 0.26299 0.09233 0.24561 0.0
O218 O 0.26081 0.12271 0.25469 0.0
O219 O 0.20132 0.08507 0.26015 0.0
O220 O 0.21918 0.10898 0.24897 0.0
C221 C 0.27026 0.1084 0.24755 0.0
C222 C 0.20288 0.10262 0.255 0.0
O223 O 0.24001 0.05347 0.26186 0.0
Mg224 Mg 0.58033 0.72436 0.78097 0.0
O225 O 0.59074 0.72328 0.83303 0.0
O226 O 0.62158 0.71984 0.83087 0.0
Mg227 Mg 0.63119 0.71942 0.77914 0.0
C228 C 0.6065 0.72146 0.84671 0.0
C229 C 0.5403 0.73958 0.77686 0.0
O230 O 0.54695 0.7433 0.74837 0.0
O231 O 0.59079 0.75455 0.77554 0.0
O232 O 0.62145 0.74914 0.7742 0.0
O233 O 0.57982 0.69296 0.77918 0.0
O234 O 0.60357 0.71036 0.76504 0.0
C235 C 0.60765 0.76019 0.77332 0.0
C236 C 0.59675 0.69417 0.76896 0.0
O237 O 0.55109 0.73249 0.79752 0.0
Mg238 Mg 0.20329 0.57581 0.86229 0.0
O239 O 0.23075 0.5919 0.85261 0.0
O240 O 0.25276 0.57829 0.882 0.0
Mg241 Mg 0.24024 0.55404 0.90934 0.0
C242 C 0.24758 0.59075 0.86237 0.0
C243 C 0.1709 0.59249 0.82532 0.0
O244 O 0.16325 0.58582 0.85139 0.0
O245 O 0.21271 0.55169 0.83106 0.0
O246 O 0.23462 0.53912 0.86214 0.0
O247 O 0.19761 0.59386 0.90418 0.0
O248 O 0.21307 0.56759 0.90682 0.0
C249 C 0.22495 0.53932 0.83662 0.0
C250 C 0.20704 0.58213 0.92095 0.0
O251 O 0.18832 0.59039 0.82124 0.0
Mg252 Mg 0.38416 0.22868 0.78427 0.0
O253 O 0.37404 0.22928 0.8366 0.0
O254 O 0.34311 0.23188 0.83508 0.0
Mg255 Mg 0.33316 0.23226 0.78365 0.0
C256 C 0.35831 0.23064 0.8506 0.0
C257 C 0.42522 0.21779 0.77787 0.0
O258 O 0.41911 0.21743 0.74837 0.0
O259 O 0.37447 0.19825 0.77872 0.0
O260 O 0.34368 0.20289 0.77812 0.0
O261 O 0.38384 0.26007 0.78275 0.0
O262 O 0.36045 0.24218 0.76905 0.0
C263 C 0.35775 0.19221 0.77679 0.0
C264 C 0.36684 0.2585 0.7731 0.0
O265 O 0.41371 0.22119 0.80013 0.0
Mg266 Mg 0.76204 0.37813 0.86456 0.0
O267 O 0.73461 0.3621 0.85488 0.0
O268 O 0.71239 0.37598 0.88339 0.0
Mg269 Mg 0.72471 0.40045 0.90996 0.0
C270 C 0.7177 0.36337 0.86427 0.0
C271 C 0.79474 0.36117 0.82848 0.0
O272 O 0.80229 0.36805 0.85434 0.0
O273 O 0.75294 0.40197 0.83212 0.0
O274 O 0.73065 0.41473 0.86214 0.0
O275 O 0.76719 0.36045 0.90739 0.0
O276 O 0.75184 0.38679 0.9085 0.0
C277 C 0.74055 0.41429 0.83685 0.0
C278 C 0.75761 0.37237 0.9234 0.0
O279 O 0.77732 0.36316 0.82429 0.0
Mg280 Mg 0.58426 0.22936 0.20177 0.0
O281 O 0.59386 0.23029 0.14919 0.0
O282 O 0.6248 0.23297 0.14972 0.0
Mg283 Mg 0.63527 0.233 0.20087 0.0
C284 C 0.60944 0.23176 0.13469 0.0
C285 C 0.5432 0.21799 0.20878 0.0
O286 O 0.54954 0.21671 0.23806 0.0
O287 O 0.59397 0.19889 0.20659 0.0
O288 O 0.62477 0.20354 0.2062 0.0
O289 O 0.58466 0.26073 0.20372 0.0
O290 O 0.60815 0.24275 0.2165 0.0
C291 C 0.61071 0.19284 0.20781 0.0
C292 C 0.60173 0.2591 0.21293 0.0
O293 O 0.55453 0.22209 0.18654 0.0
Mg294 Mg 0.76147 0.57782 0.1121 0.0
O295 O 0.73441 0.59445 0.12336 0.0
O296 O 0.71161 0.57978 0.09739 0.0
Mg297 Mg 0.72288 0.55533 0.06964 0.0
C298 C 0.71727 0.59275 0.11551 0.0
C299 C 0.78206 0.5894 0.17882 0.0
O300 O 0.77372 0.57533 0.19252 0.0
O301 O 0.75265 0.55429 0.14564 0.0
O302 O 0.73013 0.54103 0.11686 0.0
O303 O 0.76675 0.59473 0.06836 0.0
O304 O 0.74972 0.56937 0.06919 0.0
C305 C 0.74042 0.5417 0.14161 0.0
C306 C 0.75608 0.58327 0.05349 0.0
O307 O 0.77882 0.5931 0.14968 0.0
Mg308 Mg 0.38238 0.72529 0.19641 0.0
O309 O 0.37347 0.7273 0.14338 0.0
O310 O 0.34251 0.72432 0.14306 0.0
Mg311 Mg 0.33146 0.72002 0.19333 0.0
C312 C 0.35795 0.72666 0.12856 0.0
C313 C 0.42321 0.73762 0.20686 0.0
O314 O 0.41685 0.73679 0.23621 0.0
O315 O 0.37136 0.75491 0.20612 0.0
O316 O 0.34079 0.74921 0.20463 0.0
O317 O 0.38411 0.6942 0.19255 0.0
O318 O 0.35884 0.70955 0.20606 0.0
C319 C 0.35443 0.76025 0.20833 0.0
C320 C 0.36653 0.69411 0.19903 0.0
O321 O 0.41199 0.73475 0.184 0.0
Mg322 Mg 0.20441 0.37887 0.11848 0.0
O323 O 0.23232 0.36368 0.12846 0.0
O324 O 0.25393 0.37791 0.09884 0.0
Mg325 Mg 0.24078 0.40161 0.07115 0.0
C326 C 0.24912 0.36536 0.11864 0.0
C327 C 0.17206 0.36298 0.15673 0.0
O328 O 0.16428 0.37046 0.1315 0.0
O329 O 0.21306 0.40343 0.14938 0.0
O330 O 0.2347 0.41653 0.11823 0.0
O331 O 0.19939 0.36037 0.07693 0.0
O332 O 0.21411 0.38707 0.07378 0.0
C333 C 0.22498 0.41612 0.14374 0.0
C334 C 0.20858 0.37223 0.05995 0.0
O335 O 0.18963 0.36422 0.15983 0.0
Mg336 Mg 0.36567 0.2392 0.16267 0.0
O337 O 0.36161 0.23653 0.10806 0.0
O338 O 0.33094 0.23498 0.10001 0.0
Mg339 Mg 0.31557 0.2354 0.14731 0.0
C340 C 0.34758 0.2353 0.08946 0.0
C341 C 0.40483 0.22673 0.18242 0.0
O342 O 0.39452 0.22276 0.20741 0.0
O343 O 0.35965 0.2083 0.1694 0.0
O344 O 0.3291 0.20762 0.15939 0.0
O345 O 0.36198 0.27003 0.15888 0.0
O346 O 0.33906 0.25049 0.16761 0.0
C347 C 0.34432 0.19956 0.1665 0.0
C348 C 0.34433 0.26718 0.16245 0.0
O349 O 0.39703 0.23378 0.15807 0.0
Mg350 Mg 0.7307 0.37376 0.22844 0.0
O351 O 0.73338 0.36765 0.17476 0.0
O352 O 0.73178 0.33712 0.16782 0.0
Mg353 Mg 0.72903 0.32358 0.21664 0.0
C354 C 0.73341 0.35346 0.15673 0.0
C355 C 0.72735 0.4159 0.23037 0.0
O356 O 0.71237 0.41025 0.24546 0.0
O357 O 0.76109 0.3648 0.23615 0.0
O358 O 0.7581 0.33438 0.22811 0.0
O359 O 0.69939 0.3731 0.22413 0.0
O360 O 0.71683 0.34897 0.23548 0.0
C361 C 0.76797 0.34857 0.23425 0.0
C362 C 0.70062 0.35558 0.2297 0.0
O363 O 0.73871 0.40392 0.21989 0.0
Mg364 Mg 0.60095 0.71905 0.15939 0.0
O365 O 0.60458 0.72107 0.10452 0.0
O366 O 0.63518 0.72286 0.09565 0.0
Mg367 Mg 0.6509 0.72325 0.1425 0.0
C368 C 0.61848 0.72217 0.08552 0.0
C369 C 0.56168 0.73111 0.17979 0.0
O370 O 0.57203 0.73517 0.2046 0.0
O371 O 0.60668 0.75004 0.16478 0.0
O372 O 0.63716 0.75096 0.1541 0.0
O373 O 0.60496 0.68824 0.15689 0.0
O374 O 0.62775 0.70808 0.16411 0.0
C375 C 0.6219 0.75892 0.1613 0.0
C376 C 0.62262 0.6913 0.1598 0.0
O377 O 0.56949 0.72414 0.1554 0.0
Mg378 Mg 0.23687 0.58364 0.22703 0.0
O379 O 0.2323 0.58797 0.17299 0.0
O380 O 0.23357 0.61832 0.16304 0.0
Mg381 Mg 0.23841 0.6334 0.20973 0.0
C382 C 0.23159 0.60168 0.15372 0.0
C383 C 0.23967 0.54149 0.23255 0.0
O384 O 0.25531 0.5472 0.24531 0.0
O385 O 0.20696 0.59328 0.23703 0.0
O386 O 0.20974 0.62336 0.22564 0.0
O387 O 0.26779 0.58289 0.21933 0.0
O388 O 0.25173 0.60833 0.22809 0.0
C389 C 0.20007 0.60945 0.23431 0.0
C390 C 0.26732 0.60069 0.2209 0.0
O391 O 0.22802 0.55343 0.22287 0.0
Mg392 Mg 0.36252 0.71867 0.81752 0.0
O393 O 0.3584 0.72175 0.87198 0.0
O394 O 0.32773 0.72266 0.88043 0.0
Mg395 Mg 0.31233 0.72109 0.8333 0.0
C396 C 0.34441 0.72293 0.89071 0.0
C397 C 0.40174 0.73328 0.79957 0.0
O398 O 0.39175 0.73858 0.775 0.0
O399 O 0.35563 0.74937 0.8102 0.0
O400 O 0.32508 0.74913 0.82046 0.0
O401 O 0.3597 0.68781 0.82217 0.0
O402 O 0.33621 0.70654 0.81306 0.0
C403 C 0.34004 0.75763 0.81308 0.0
C404 C 0.34197 0.69007 0.81865 0.0
O405 O 0.3937 0.72482 0.82237 0.0
Mg406 Mg 0.23604 0.37112 0.75393 0.0
O407 O 0.23283 0.36606 0.8079 0.0
O408 O 0.23388 0.33567 0.81697 0.0
Mg409 Mg 0.2369 0.32119 0.76915 0.0
C410 C 0.23243 0.35223 0.82689 0.0
C411 C 0.24019 0.41326 0.75125 0.0
O412 O 0.2557 0.40743 0.73814 0.0
O413 O 0.20566 0.3623 0.74569 0.0
O414 O 0.20812 0.332 0.75572 0.0
O415 O 0.2673 0.3702 0.75902 0.0
O416 O 0.24961 0.34608 0.74882 0.0
C417 C 0.19853 0.34618 0.74826 0.0
C418 C 0.26587 0.35261 0.75443 0.0
O419 O 0.22828 0.40143 0.76053 0.0
Mg420 Mg 0.60275 0.23572 0.82268 0.0
O421 O 0.60703 0.23377 0.87742 0.0
O422 O 0.6378 0.23326 0.88496 0.0
Mg423 Mg 0.653 0.23357 0.83753 0.0
C424 C 0.62121 0.23322 0.89581 0.0
C425 C 0.56382 0.22324 0.80262 0.0
O426 O 0.57422 0.2201 0.77743 0.0
O427 O 0.60956 0.20492 0.81715 0.0
O428 O 0.64016 0.20531 0.82679 0.0
O429 O 0.60551 0.26663 0.82528 0.0
O430 O 0.62901 0.24778 0.81707 0.0
C431 C 0.62516 0.19669 0.82023 0.0
C432 C 0.62324 0.26432 0.82179 0.0
O433 O 0.57153 0.22966 0.82751 0.0
Mg434 Mg 0.72647 0.5816 0.74936 0.0
O435 O 0.72906 0.58646 0.80332 0.0
O436 O 0.72431 0.61639 0.81357 0.0
Mg437 Mg 0.72249 0.63117 0.76566 0.0
C438 C 0.72736 0.59988 0.82277 0.0
C439 C 0.72465 0.53927 0.74641 0.0
O440 O 0.70911 0.54427 0.73243 0.0
O441 O 0.75639 0.59199 0.74262 0.0
O442 O 0.75226 0.62185 0.75449 0.0
O443 O 0.69507 0.58104 0.75361 0.0
O444 O 0.71175 0.60597 0.74386 0.0
C445 C 0.76269 0.60831 0.74681 0.0
C446 C 0.69575 0.59869 0.74895 0.0
O447 O 0.73569 0.55171 0.75624 0.0
H448 H 0.20177 0.13784 0.2338 0.0
H449 H 0.0993 0.16157 0.29537 0.0
H450 H 0.1676 0.09651 0.27957 0.0
H451 H 0.13417 0.19709 0.23808 0.0
H452 H 0.12294 0.13701 0.29056 0.0
H453 H 0.17629 0.15942 0.23656 0.0
C454 C 0.18887 0.1333 0.24462 0.0
C455 C 0.1869 0.11537 0.25673 0.0
C456 C 0.12526 0.15018 0.27895 0.0
C457 C 0.15724 0.14023 0.25981 0.0
C458 C 0.11179 0.16413 0.28162 0.0
C459 C 0.11493 0.18146 0.2675 0.0
C460 C 0.14179 0.15373 0.26199 0.0
C461 C 0.13129 0.18409 0.2499 0.0
C462 C 0.1742 0.14565 0.24604 0.0
C463 C 0.16969 0.11025 0.27001 0.0
N464 N 0.14404 0.17048 0.24782 0.0
N465 N 0.15547 0.12269 0.27139 0.0
H466 H 0.74406 0.12397 0.32706 0.0
H467 H 0.85115 0.15453 0.33965 0.0
H468 H 0.78675 0.09075 0.3711 0.0
H469 H 0.80777 0.19 0.30386 0.0
H470 H 0.8281 0.13003 0.34752 0.0
H471 H 0.76759 0.14732 0.31423 0.0
C472 C 0.75837 0.12149 0.33381 0.0
C473 C 0.76335 0.10537 0.35038 0.0
C474 C 0.82363 0.14318 0.33793 0.0
C475 C 0.79037 0.13211 0.33587 0.0
C476 C 0.8368 0.15717 0.33341 0.0
C477 C 0.83138 0.17442 0.32139 0.0
C478 C 0.80488 0.14642 0.33021 0.0
C479 C 0.81256 0.17702 0.31361 0.0
C480 C 0.7718 0.13487 0.32658 0.0
C481 C 0.78216 0.10298 0.35852 0.0
N482 N 0.80002 0.16321 0.31819 0.0
N483 N 0.79492 0.11619 0.35129 0.0
H484 H 0.82775 0.75279 0.24667 0.0
H485 H 0.79849 0.85723 0.28261 0.0
H486 H 0.86434 0.78987 0.29688 0.0
H487 H 0.76397 0.81608 0.23781 0.0
H488 H 0.82361 0.83421 0.28675 0.0
H489 H 0.80518 0.77722 0.24158 0.0
C490 C 0.83103 0.76613 0.25681 0.0
C491 C 0.84787 0.76919 0.27263 0.0
C492 C 0.8105 0.83032 0.27606 0.0
C493 C 0.82183 0.79761 0.26672 0.0
C494 C 0.7962 0.84342 0.27367 0.0
C495 C 0.77904 0.83851 0.26014 0.0
C496 C 0.80754 0.81234 0.26461 0.0
C497 C 0.77681 0.82047 0.24885 0.0
C498 C 0.81808 0.78017 0.2538 0.0
C499 C 0.85145 0.78693 0.28462 0.0
N500 N 0.79083 0.80814 0.25137 0.0
N501 N 0.83844 0.80053 0.28159 0.0
H502 H 0.15742 0.76498 0.30485 0.0
H503 H 0.17756 0.86611 0.37228 0.0
H504 H 0.11466 0.80083 0.34161 0.0
H505 H 0.21977 0.83163 0.32998 0.0
H506 H 0.15429 0.84283 0.35965 0.0
H507 H 0.18024 0.78945 0.31268 0.0
C508 C 0.15281 0.77799 0.31469 0.0
C509 C 0.13409 0.78076 0.32292 0.0
C510 C 0.16861 0.84037 0.35295 0.0
C511 C 0.16025 0.809 0.33173 0.0
C512 C 0.18197 0.85369 0.36016 0.0
C513 C 0.20077 0.85084 0.35237 0.0
C514 C 0.17399 0.82395 0.33794 0.0
C515 C 0.2055 0.83447 0.33649 0.0
C516 C 0.16587 0.79201 0.319 0.0
C517 C 0.12894 0.79804 0.33504 0.0
N518 N 0.19223 0.8216 0.33001 0.0
N519 N 0.14196 0.81147 0.33923 0.0
H520 H 0.09095 0.79206 0.72617 0.0
H521 H 0.19583 0.82012 0.68876 0.0
H522 H 0.12828 0.76112 0.66645 0.0
H523 H 0.15828 0.85711 0.73674 0.0
H524 H 0.1702 0.79928 0.67837 0.0
H525 H 0.11387 0.81737 0.72759 0.0
C526 C 0.10383 0.79076 0.71297 0.0
C527 C 0.10804 0.77437 0.69684 0.0
C528 C 0.16743 0.81194 0.69116 0.0
C529 C 0.13414 0.80289 0.69845 0.0
C530 C 0.18219 0.82375 0.69747 0.0
C531 C 0.17926 0.84007 0.71442 0.0
C532 C 0.14953 0.81633 0.70219 0.0
C533 C 0.16108 0.84449 0.72384 0.0
C534 C 0.11691 0.8051 0.71389 0.0
C535 C 0.12481 0.77325 0.68007 0.0
N536 N 0.14687 0.83253 0.718 0.0
N537 N 0.13729 0.78721 0.68155 0.0
H538 H 0.22449 0.12293 0.65322 0.0
H539 H 0.11732 0.15264 0.63848 0.0
H540 H 0.18247 0.08957 0.60782 0.0
H541 H 0.16035 0.1883 0.67482 0.0
H542 H 0.14052 0.12827 0.63124 0.0
H543 H 0.20067 0.1459 0.6658 0.0
C544 C 0.21026 0.12033 0.64613 0.0
C545 C 0.20557 0.1043 0.62923 0.0
C546 C 0.14487 0.14143 0.64083 0.0
C547 C 0.17819 0.13061 0.64346 0.0
C548 C 0.13162 0.15534 0.64499 0.0
C549 C 0.13691 0.17262 0.65695 0.0
C550 C 0.16355 0.14478 0.64885 0.0
C551 C 0.15566 0.1753 0.6651 0.0
C552 C 0.19666 0.1335 0.65322 0.0
C553 C 0.18684 0.10175 0.62067 0.0
N554 N 0.16828 0.16157 0.66085 0.0
N555 N 0.1739 0.11477 0.62776 0.0
H556 H 0.76783 0.13475 0.68525 0.0
H557 H 0.87275 0.16255 0.72229 0.0
H558 H 0.80524 0.09794 0.73413 0.0
H559 H 0.83522 0.19423 0.66394 0.0
H560 H 0.84984 0.13724 0.72345 0.0
H561 H 0.79351 0.15555 0.67442 0.0
C562 C 0.78145 0.13115 0.69403 0.0
C563 C 0.78433 0.1149 0.71141 0.0
C564 C 0.84675 0.14968 0.71011 0.0
C565 C 0.81409 0.13859 0.69871 0.0
C566 C 0.85982 0.16403 0.70934 0.0
C567 C 0.85556 0.18061 0.6937 0.0
C568 C 0.82947 0.15207 0.695 0.0
C569 C 0.83873 0.18194 0.67722 0.0
C570 C 0.79623 0.14293 0.68749 0.0
C571 C 0.80248 0.11049 0.72091 0.0
N572 N 0.82625 0.16796 0.67854 0.0
N573 N 0.81671 0.12243 0.71485 0.0
H574 H 0.80411 0.76649 0.67869 0.0
H575 H 0.78322 0.86716 0.60889 0.0
H576 H 0.84657 0.80227 0.64011 0.0
H577 H 0.7415 0.83276 0.65337 0.0
H578 H 0.80669 0.84408 0.62167 0.0
H579 H 0.78122 0.79086 0.67077 0.0
C580 C 0.80863 0.77947 0.66844 0.0
C581 C 0.82729 0.78225 0.65972 0.0
C582 C 0.79243 0.8416 0.62882 0.0
C583 C 0.80104 0.81038 0.65078 0.0
C584 C 0.77896 0.85481 0.62153 0.0
C585 C 0.76025 0.85191 0.62989 0.0
C586 C 0.78723 0.82525 0.64447 0.0
C587 C 0.75571 0.83563 0.64641 0.0
C588 C 0.79554 0.79344 0.66407 0.0
C589 C 0.83234 0.79949 0.64706 0.0
N590 N 0.76907 0.82287 0.65295 0.0
N591 N 0.81928 0.81286 0.64281 0.0
H592 H 0.62587 0.69289 0.72895 0.0
H593 H 0.66117 0.59167 0.7759 0.0
H594 H 0.595 0.65887 0.79501 0.0
H595 H 0.69265 0.63309 0.72501 0.0
H596 H 0.63479 0.61344 0.77886 0.0
H597 H 0.64804 0.66823 0.72185 0.0
C598 C 0.62374 0.68012 0.74199 0.0
C599 C 0.60873 0.67802 0.76296 0.0
C600 C 0.6475 0.61762 0.767 0.0
C601 C 0.63443 0.6495 0.75523 0.0
C602 C 0.66249 0.60524 0.76525 0.0
C603 C 0.67917 0.61067 0.75044 0.0
C604 C 0.64927 0.63532 0.75344 0.0
C605 C 0.68019 0.62836 0.73702 0.0
C606 C 0.63646 0.66598 0.73794 0.0
C607 C 0.60649 0.66103 0.77872 0.0
N608 N 0.66552 0.63995 0.73887 0.0
N609 N 0.61939 0.64739 0.77483 0.0
H610 H 0.24199 0.62305 0.82876 0.0
H611 H 0.34867 0.65502 0.84097 0.0
H612 H 0.28513 0.59042 0.8728 0.0
H613 H 0.30473 0.68997 0.80565 0.0
H614 H 0.32597 0.63021 0.84891 0.0
H615 H 0.26519 0.64672 0.81593 0.0
C616 C 0.25633 0.62077 0.83552 0.0
C617 C 0.26153 0.60472 0.85208 0.0
C618 C 0.32129 0.64331 0.8394 0.0
C619 C 0.28818 0.63182 0.83755 0.0
C620 C 0.33427 0.65748 0.83484 0.0
C621 C 0.32858 0.67468 0.82294 0.0
C622 C 0.30249 0.64632 0.83184 0.0
C623 C 0.30972 0.67704 0.8153 0.0
C624 C 0.26957 0.63433 0.82828 0.0
C625 C 0.28037 0.60259 0.86022 0.0
N626 N 0.29737 0.66306 0.81992 0.0
N627 N 0.29295 0.61597 0.85298 0.0
H628 H 0.3693 0.29406 0.79741 0.0
H629 H 0.26731 0.31737 0.73383 0.0
H630 H 0.33566 0.25896 0.73783 0.0
H631 H 0.30105 0.35906 0.7789 0.0
H632 H 0.29296 0.296 0.73696 0.0
H633 H 0.3456 0.31855 0.79198 0.0
C634 C 0.35707 0.29158 0.78301 0.0
C635 C 0.35427 0.27438 0.76845 0.0
C636 C 0.29493 0.3098 0.74618 0.0
C637 C 0.32736 0.30202 0.76227 0.0
C638 C 0.28016 0.32204 0.74456 0.0
C639 C 0.28196 0.34 0.75636 0.0
C640 C 0.31181 0.31539 0.75987 0.0
C641 C 0.2991 0.34528 0.76957 0.0
C642 C 0.34358 0.30549 0.77999 0.0
C643 C 0.33826 0.27186 0.75001 0.0
N644 N 0.31341 0.33296 0.77117 0.0
N645 N 0.32546 0.28542 0.74763 0.0
H646 H 0.61652 0.29952 0.84296 0.0
H647 H 0.72341 0.33092 0.83151 0.0
H648 H 0.66048 0.2643 0.80861 0.0
H649 H 0.68008 0.36394 0.87399 0.0
H650 H 0.70019 0.30734 0.8187 0.0
H651 H 0.63927 0.32428 0.85043 0.0
C652 C 0.63094 0.297 0.83692 0.0
C653 C 0.63662 0.27974 0.82547 0.0
C654 C 0.69578 0.3198 0.83071 0.0
C655 C 0.66276 0.30802 0.83389 0.0
C656 C 0.70903 0.3333 0.83794 0.0
C657 C 0.70377 0.34943 0.85406 0.0
C658 C 0.6771 0.32246 0.83954 0.0
C659 C 0.68488 0.3517 0.86177 0.0
C660 C 0.64394 0.31113 0.84122 0.0
C661 C 0.65549 0.27729 0.81794 0.0
N662 N 0.67229 0.33838 0.85455 0.0
N663 N 0.66787 0.29124 0.82234 0.0
H664 H 0.63291 0.25931 0.24821 0.0
H665 H 0.6657 0.36187 0.20413 0.0
H666 H 0.59921 0.2949 0.18936 0.0
H667 H 0.69864 0.32072 0.25253 0.0
H668 H 0.63977 0.33958 0.2016 0.0
H669 H 0.65544 0.28379 0.25393 0.0
C670 C 0.63024 0.27236 0.23642 0.0
C671 C 0.61428 0.27498 0.2179 0.0
C672 C 0.65271 0.33555 0.21278 0.0
C673 C 0.64033 0.30337 0.22423 0.0
C674 C 0.66745 0.34823 0.21427 0.0
C675 C 0.68441 0.34307 0.22828 0.0
C676 C 0.655 0.31777 0.2257 0.0
C677 C 0.68596 0.32527 0.2411 0.0
C678 C 0.64317 0.28642 0.23971 0.0
C679 C 0.61142 0.29234 0.20374 0.0
N680 N 0.67152 0.31335 0.23947 0.0
N681 N 0.62446 0.30591 0.20694 0.0
H682 H 0.67947 0.59014 0.1116 0.0
H683 H 0.66007 0.69312 0.17082 0.0
H684 H 0.72293 0.62676 0.1436 0.0
H685 H 0.61708 0.65545 0.14087 0.0
H686 H 0.68314 0.66885 0.16308 0.0
H687 H 0.6565 0.61349 0.12471 0.0
C688 C 0.68423 0.60308 0.12155 0.0
C689 C 0.70327 0.60649 0.12625 0.0
C690 C 0.66867 0.66586 0.15825 0.0
C691 C 0.67677 0.63351 0.14127 0.0
C692 C 0.65546 0.67976 0.16251 0.0
C693 C 0.63659 0.67641 0.15613 0.0
C694 C 0.66302 0.64842 0.1475 0.0
C695 C 0.63146 0.6587 0.14596 0.0
C696 C 0.67103 0.61644 0.12905 0.0
C697 C 0.70845 0.62351 0.13951 0.0
N698 N 0.6446 0.64542 0.14183 0.0
N699 N 0.69528 0.63643 0.14634 0.0
H700 H 0.26772 0.63111 0.18304 0.0
H701 H 0.37183 0.65973 0.22514 0.0
H702 H 0.30379 0.59565 0.2375 0.0
H703 H 0.33501 0.69082 0.16458 0.0
H704 H 0.34905 0.63428 0.22578 0.0
H705 H 0.29373 0.65152 0.17217 0.0
C706 C 0.28114 0.62771 0.19294 0.0
C707 C 0.28353 0.612 0.21191 0.0
C708 C 0.3461 0.6466 0.21204 0.0
C709 C 0.31365 0.63527 0.1994 0.0
C710 C 0.35911 0.66103 0.21157 0.0
C711 C 0.35501 0.67748 0.19538 0.0
C712 C 0.32906 0.64878 0.19606 0.0
C713 C 0.33842 0.6786 0.17816 0.0
C714 C 0.2961 0.63927 0.18646 0.0
C715 C 0.30142 0.6078 0.22299 0.0
N716 N 0.32601 0.66455 0.17917 0.0
N717 N 0.31582 0.61956 0.217 0.0
H718 H 0.28673 0.36742 0.10938 0.0
H719 H 0.30716 0.26595 0.17594 0.0
H720 H 0.2445 0.33248 0.15108 0.0
H721 H 0.34985 0.30262 0.14076 0.0
H722 H 0.28418 0.2903 0.16818 0.0
H723 H 0.31005 0.34425 0.12223 0.0
C724 C 0.28232 0.35491 0.12141 0.0
C725 C 0.26351 0.35191 0.12896 0.0
C726 C 0.29857 0.29306 0.16221 0.0
C727 C 0.29035 0.32512 0.14364 0.0
C728 C 0.31172 0.27911 0.16648 0.0
C729 C 0.33047 0.28216 0.15866 0.0
C730 C 0.30414 0.31024 0.14991 0.0
C731 C 0.33555 0.29962 0.147 0.0
C732 C 0.29572 0.34166 0.12876 0.0
C733 C 0.25879 0.33543 0.14476 0.0
N734 N 0.32246 0.31296 0.14282 0.0
N735 N 0.27209 0.32261 0.15136 0.0
H736 H 0.93099 0.22271 0.34269 0.0
H737 H 0.01751 0.25141 0.23266 0.0
H738 H 0.92611 0.24617 0.24837 0.0
H739 H 0.02387 0.23007 0.32819 0.0
H740 H -0.0161 0.25103 0.23964 0.0
H741 H 0.96482 0.22653 0.33943 0.0
C742 C 0.93699 0.22875 0.32139 0.0
C743 C 0.92566 0.23404 0.2957 0.0
C744 C -0.0074 0.24653 0.25922 0.0
C745 C 0.96436 0.23842 0.2918 0.0
C746 C 0.01185 0.24677 0.25524 0.0
C747 C 0.02358 0.24068 0.27981 0.0
C748 C -0.01512 0.24005 0.28793 0.0
C749 C 0.01537 0.23488 0.30858 0.0
C750 C 0.95632 0.23093 0.31954 0.0
C751 C 0.93424 0.24181 0.26873 0.0
N752 N -0.00348 0.23457 0.31177 0.0
N753 N 0.95302 0.24368 0.26746 0.0
H754 H 0.69849 0.02221 0.30338 0.0
H755 H 0.7657 0.94013 0.24973 0.0
H756 H 0.75744 0.02134 0.32171 0.0
H757 H 0.70762 0.93164 0.27131 0.0
H758 H 0.76217 0.97279 0.26255 0.0
H759 H 0.7012 -0.0081 0.27756 0.0
C760 C 0.71205 0.01587 0.30118 0.0
C761 C 0.72777 0.02419 0.31476 0.0
C762 C 0.75017 0.96379 0.26421 0.0
C763 C 0.73092 -0.01026 0.28551 0.0
C764 C 0.75215 0.94515 0.25687 0.0
C765 C 0.73697 0.93308 0.25979 0.0
C766 C 0.73285 0.97052 0.27417 0.0
C767 C 0.71973 0.94043 0.26907 0.0
C768 C 0.71355 -0.00146 0.28678 0.0
C769 C 0.74498 0.01531 0.31168 0.0
N770 N 0.71814 0.95869 0.27603 0.0
N771 N 0.7461 -0.00145 0.29747 0.0
H772 H 0.03431 0.72831 0.34575 0.0
H773 H 0.94723 0.71538 0.22903 0.0
H774 H 0.03836 0.72114 0.24387 0.0
H775 H 0.94121 0.71937 0.33115 0.0
H776 H 0.98081 0.71654 0.23505 0.0
H777 H 0.00048 0.72431 0.34198 0.0
C778 C 0.02813 0.72584 0.32264 0.0
C779 C 0.03924 0.72513 0.29507 0.0
C780 C 0.97222 0.71707 0.25624 0.0
C781 C 0.00057 0.72057 0.2906 0.0
C782 C 0.95297 0.71639 0.25281 0.0
C783 C 0.94131 0.71733 0.27962 0.0
C784 C 0.98006 0.71882 0.28673 0.0
C785 C 0.94965 0.71858 0.30982 0.0
C786 C 0.00882 0.72355 0.32051 0.0
C787 C 0.03043 0.72186 0.26579 0.0
N788 N 0.96852 0.71941 0.31256 0.0
N789 N 0.0117 0.71977 0.26435 0.0
H790 H 0.26806 0.93271 0.30484 0.0
H791 H 0.20223 0.01463 0.24523 0.0
H792 H 0.20876 0.93375 0.3197 0.0
H793 H 0.25955 0.02338 0.27148 0.0
H794 H 0.20554 -0.01803 0.25858 0.0
H795 H 0.26597 0.96296 0.27823 0.0
C796 C 0.25456 0.93907 0.30168 0.0
C797 C 0.23855 0.93083 0.31451 0.0
C798 C 0.21743 -0.00898 0.26113 0.0
C799 C 0.2361 0.96517 0.28437 0.0
C800 C 0.21558 0.00966 0.25349 0.0
C801 C 0.23059 0.02181 0.25759 0.0
C802 C 0.23446 -0.01563 0.27258 0.0
C803 C 0.24757 0.01453 0.2683 0.0
C804 C 0.25342 0.95636 0.28684 0.0
C805 C 0.22143 0.93972 0.31024 0.0
N806 N 0.24904 -0.00374 0.27553 0.0
N807 N 0.22065 0.95643 0.29561 0.0
H808 H 0.01252 0.70593 0.75156 0.0
H809 H 0.92723 0.73214 0.63777 0.0
H810 H 0.01968 0.7213 0.65282 0.0
H811 H 0.92125 0.71147 0.73386 0.0
H812 H 0.96092 0.72743 0.64164 0.0
H813 H 0.97893 0.70679 0.74436 0.0
C814 C 0.00703 0.70934 0.72825 0.0
C815 C 0.01898 0.71363 0.70281 0.0
C816 C 0.9522 0.72383 0.66179 0.0
C817 C 0.98033 0.71485 0.69442 0.0
C818 C 0.93296 0.72653 0.6596 0.0
C819 C 0.92136 0.72229 0.68559 0.0
C820 C 0.95989 0.7169 0.6902 0.0
C821 C 0.92959 0.71503 0.71324 0.0
C822 C -0.0122 0.70985 0.72414 0.0
C823 C 0.01101 0.71789 0.67312 0.0
N824 N 0.94829 0.71266 0.71485 0.0
N825 N -0.00782 0.71855 0.6698 0.0
H826 H 0.21647 0.92976 0.69586 0.0
H827 H 0.26988 0.02618 0.68634 0.0
H828 H 0.26812 0.93926 0.74544 0.0
H829 H 0.2157 0.0155 0.64641 0.0
H830 H 0.26896 -0.0043 0.71222 0.0
H831 H 0.21568 0.96202 0.68058 0.0
C832 C 0.2277 0.93864 0.70357 0.0
C833 C 0.24247 0.9317 0.72178 0.0
C834 C 0.25718 0.00019 0.69815 0.0
C835 C 0.24165 0.969 0.7042 0.0
C836 C 0.25765 0.01762 0.68356 0.0
C837 C 0.24294 0.02329 0.66384 0.0
C838 C 0.24191 -0.01154 0.69292 0.0
C839 C 0.22748 0.01161 0.66098 0.0
C840 C 0.22719 0.95717 0.69492 0.0
C841 C 0.2565 0.94401 0.73127 0.0
N842 N 0.22746 -0.00524 0.67505 0.0
N843 N 0.25584 0.96208 0.72214 0.0
H844 H 0.03725 0.22488 0.63382 0.0
H845 H 0.95157 0.24111 0.75249 0.0
H846 H 0.04276 0.2368 0.73411 0.0
H847 H 0.94464 0.23543 0.65084 0.0
H848 H -0.01485 0.24032 0.74532 0.0
H849 H 0.00351 0.22923 0.63859 0.0
C850 C 0.03141 0.22848 0.65677 0.0
C851 C 0.04289 0.23039 0.68363 0.0
C852 C 0.97634 0.23938 0.72448 0.0
C853 C 0.00433 0.23535 0.68925 0.0
C854 C 0.95711 0.23985 0.72858 0.0
C855 C 0.94522 0.23828 0.70225 0.0
C856 C -0.01612 0.23716 0.69382 0.0
C857 C 0.95327 0.23671 0.67182 0.0
C858 C 0.01215 0.23098 0.65947 0.0
C859 C 0.03453 0.23511 0.71274 0.0
N860 N 0.9721 0.23603 0.66845 0.0
N861 N 0.01582 0.23733 0.71478 0.0
H862 H 0.74831 0.02475 0.70275 0.0
H863 H 0.69378 0.92918 0.68587 0.0
H864 H 0.69284 0.01679 0.7398 0.0
H865 H 0.74899 0.93985 0.64991 0.0
H866 H 0.69411 0.95953 0.71188 0.0
H867 H 0.74954 -0.00763 0.68867 0.0
C868 C 0.73634 0.01618 0.70798 0.0
C869 C 0.72036 0.0236 0.72221 0.0
C870 C 0.70623 0.95507 0.69866 0.0
C871 C 0.72168 -0.01383 0.70594 0.0
C872 C 0.70611 0.93771 0.68403 0.0
C873 C 0.7213 0.93209 0.66538 0.0
C874 C 0.72168 0.96675 0.69464 0.0
C875 C 0.73686 0.94372 0.66366 0.0
C876 C 0.73708 -0.00241 0.69999 0.0
C877 C 0.7054 0.01167 0.72869 0.0
N878 N 0.73657 0.9605 0.67781 0.0
N879 N 0.70635 -0.00646 0.72024 0.0
H880 H 0.51415 0.75584 0.73892 0.0
H881 H 0.42748 0.72195 0.84406 0.0
H882 H 0.52027 0.72748 0.82892 0.0
H883 H 0.42265 0.75125 0.75472 0.0
H884 H 0.46133 0.72547 0.84115 0.0
H885 H 0.48058 0.75612 0.74663 0.0
C886 C 0.50846 0.7498 0.76048 0.0
C887 C 0.52009 0.74152 0.78321 0.0
C888 C 0.45284 0.73122 0.8223 0.0
C889 C 0.48145 0.74165 0.79211 0.0
C890 C 0.4335 0.72922 0.82396 0.0
C891 C 0.42217 0.73621 0.7995 0.0
C892 C 0.46092 0.74026 0.796 0.0
C893 C 0.43078 0.74554 0.77406 0.0
C894 C 0.48923 0.74994 0.76486 0.0
C895 C 0.51185 0.73399 0.81073 0.0
N896 N 0.44958 0.7472 0.77291 0.0
N897 N 0.49303 0.73409 0.81429 0.0
H898 H 0.26596 0.4408 0.74666 0.0
H899 H 0.19775 0.52133 0.80331 0.0
H900 H 0.20816 0.43118 0.76903 0.0
H901 H 0.25669 0.52095 0.82177 0.0
H902 H 0.20085 0.49137 0.77642 0.0
H903 H 0.26196 0.47329 0.7603 0.0
C904 C 0.25236 0.44554 0.75412 0.0
C905 C 0.23741 0.4332 0.75706 0.0
C906 C 0.21311 0.49805 0.78591 0.0
C907 C 0.23275 0.47043 0.77237 0.0
C908 C 0.21139 0.51518 0.80093 0.0
C909 C 0.22699 0.52351 0.81485 0.0
C910 C 0.23059 0.48949 0.78436 0.0
C911 C 0.24432 0.51489 0.8115 0.0
C912 C 0.25012 0.46409 0.76192 0.0
C913 C 0.2201 0.44018 0.76676 0.0
N914 N 0.24565 0.49832 0.79668 0.0
N915 N 0.21824 0.45836 0.77417 0.0
H916 H 0.44405 0.22388 0.83408 0.0
H917 H 0.54388 0.20968 0.75264 0.0
H918 H 0.45258 0.20817 0.73599 0.0
H919 H 0.53716 0.23018 0.84846 0.0
H920 H 0.51032 0.20647 0.74836 0.0
H921 H 0.47785 0.22363 0.84198 0.0
C922 C 0.45299 0.2202 0.8143 0.0
C923 C 0.44543 0.21612 0.78426 0.0
C924 C 0.51613 0.21161 0.77041 0.0
C925 C 0.48409 0.21589 0.79313 0.0
C926 C 0.53536 0.21344 0.77291 0.0
C927 C 0.54342 0.22031 0.80092 0.0
C928 C 0.5047 0.21669 0.79609 0.0
C929 C 0.53157 0.22487 0.82637 0.0
C930 C 0.47228 0.22013 0.81881 0.0
C931 C 0.45772 0.2115 0.75952 0.0
N932 N 0.51279 0.22306 0.82331 0.0
N933 N 0.47636 0.21158 0.76448 0.0
H934 H 0.70843 0.43063 0.81819 0.0
H935 H 0.75701 0.52319 0.76734 0.0
H936 H 0.76784 0.43351 0.8056 0.0
H937 H 0.70062 0.51034 0.74027 0.0
H938 H 0.76164 0.49072 0.78199 0.0
H939 H 0.70527 0.45988 0.78957 0.0
C940 C 0.72078 0.43729 0.80879 0.0
C941 C 0.73841 0.42972 0.81418 0.0
C942 C 0.74835 0.495 0.77242 0.0
C943 C 0.73498 0.46343 0.78235 0.0
C944 C 0.74567 0.51353 0.76423 0.0
C945 C 0.72834 0.51952 0.75285 0.0
C946 C 0.73352 0.4825 0.76974 0.0
C947 C 0.71417 0.50638 0.7491 0.0
C948 C 0.71899 0.45398 0.7925 0.0
C949 C 0.75399 0.43889 0.80168 0.0
N950 N 0.71699 0.48856 0.75795 0.0
N951 N 0.75196 0.45551 0.78686 0.0
H952 H 0.43121 0.23465 0.13653 0.0
H953 H 0.51613 0.2069 0.25028 0.0
H954 H 0.42505 0.212 0.23125 0.0
H955 H 0.52393 0.22639 0.15385 0.0
H956 H 0.48263 0.2075 0.24225 0.0
H957 H 0.465 0.23076 0.14095 0.0
C958 C 0.43693 0.22878 0.15816 0.0
C959 C 0.42524 0.22374 0.18361 0.0
C960 C 0.49162 0.21155 0.22271 0.0
C961 C 0.46387 0.21927 0.18884 0.0
C962 C 0.51081 0.21119 0.22729 0.0
C963 C 0.52292 0.21668 0.20276 0.0
C964 C 0.48432 0.21757 0.19343 0.0
C965 C 0.51513 0.22204 0.17344 0.0
C966 C 0.45622 0.22656 0.16067 0.0
C967 C 0.43345 0.21618 0.21104 0.0
N968 N 0.49633 0.22249 0.16966 0.0
N969 N 0.45219 0.21426 0.21295 0.0
H970 H 0.76873 0.52373 0.17222 0.0
H971 H 0.7022 0.4437 0.23789 0.0
H972 H 0.70918 0.52377 0.16089 0.0
H973 H 0.75876 0.43354 0.20834 0.0
H974 H 0.70601 0.47618 0.2236 0.0
H975 H 0.76645 0.49379 0.19986 0.0
C976 C 0.75516 0.51769 0.17637 0.0
C977 C 0.73911 0.52612 0.16422 0.0
C978 C 0.71763 0.46686 0.22053 0.0
C979 C 0.73644 0.49213 0.19554 0.0
C980 C 0.7155 0.44832 0.2287 0.0
C981 C 0.73013 0.43582 0.22396 0.0
C982 C 0.73459 0.47306 0.2079 0.0
C983 C 0.74706 0.44266 0.21205 0.0
C984 C 0.7539 0.50057 0.1918 0.0
C985 C 0.72188 0.51764 0.16979 0.0
N986 N 0.74882 0.46084 0.20432 0.0
N987 N 0.721 0.50108 0.18496 0.0
H988 H 0.45006 0.74729 0.24961 0.0
H989 H 0.53534 0.72374 0.13381 0.0
H990 H 0.44266 0.73203 0.15109 0.0
H991 H 0.54135 0.74488 0.22931 0.0
H992 H 0.50153 0.72732 0.13858 0.0
H993 H 0.48362 0.74736 0.24154 0.0
C994 C 0.45548 0.7441 0.22616 0.0
C995 C 0.44348 0.73958 0.20104 0.0
C996 C 0.51028 0.73127 0.15839 0.0
C997 C 0.4821 0.73942 0.19165 0.0
C998 C 0.52959 0.72921 0.15569 0.0
C999 C 0.54125 0.73392 0.18125 0.0
C1000 C 0.50257 0.73802 0.18689 0.0
C1001 C 0.53298 0.74098 0.209 0.0
C1002 C 0.4747 0.74412 0.22156 0.0
C1003 C 0.45137 0.73561 0.17115 0.0
N1004 N 0.51422 0.74271 0.21111 0.0
N1005 N 0.47018 0.73547 0.16736 0.0
H1006 H 0.19742 0.43375 0.17691 0.0
H1007 H 0.26505 0.51371 0.2379 0.0
H1008 H 0.25647 0.43475 0.15916 0.0
H1009 H 0.20765 0.52383 0.21376 0.0
H1010 H 0.26103 0.48138 0.22323 0.0
H1011 H 0.20021 0.46348 0.20475 0.0
C1012 C 0.21101 0.43999 0.1796 0.0
C1013 C 0.22675 0.4319 0.16566 0.0
C1014 C 0.24927 0.49065 0.22147 0.0
C1015 C 0.22999 0.46561 0.19731 0.0
C1016 C 0.25152 0.50911 0.22989 0.0
C1017 C 0.23671 0.52156 0.22671 0.0
C1018 C 0.23203 0.4845 0.21014 0.0
C1019 C 0.21948 0.51474 0.21627 0.0
C1020 C 0.21255 0.45698 0.19518 0.0
C1021 C 0.244 0.44063 0.16944 0.0
N1022 N 0.21762 0.49664 0.20822 0.0
N1023 N 0.24516 0.45702 0.18485 0.0
H1024 H 0.08019 0.2247 0.39189 0.0
H1025 H 0.1481 0.2235 0.54289 0.0
H1026 H 0.14018 0.22498 0.38743 0.0
H1027 H 0.08844 0.21976 0.55274 0.0
H1028 H 0.14463 0.22517 0.48562 0.0
H1029 H 0.08212 0.22391 0.45038 0.0
C1030 C 0.09374 0.22463 0.40311 0.0
C1031 C 0.11005 0.22487 0.38459 0.0
C1032 C 0.13223 0.22398 0.50016 0.0
C1033 C 0.11231 0.22399 0.45131 0.0
C1034 C 0.1342 0.22303 0.53306 0.0
C1035 C 0.11853 0.22143 0.55288 0.0
C1036 C 0.11445 0.22333 0.48653 0.0
C1037 C 0.10091 0.22096 0.53843 0.0
C1038 C 0.09481 0.22415 0.43648 0.0
C1039 C 0.1272 0.22475 0.4005 0.0
N1040 N 0.09933 0.22188 0.50606 0.0
N1041 N 0.12784 0.22432 0.43277 0.0
H1042 H 0.73356 0.07042 0.61999 0.0
H1043 H 0.70331 0.11557 0.45365 0.0
H1044 H 0.72454 0.12886 0.60664 0.0
H1045 H 0.7231 0.0596 0.46296 0.0
H1046 H 0.70948 0.12037 0.51036 0.0
H1047 H 0.72814 0.06578 0.56303 0.0
C1048 C 0.73044 0.08227 0.60514 0.0
C1049 C 0.72952 0.10006 0.61819 0.0
C1050 C 0.71254 0.10707 0.49995 0.0
C1051 C 0.72326 0.09482 0.553 0.0
C1052 C 0.709 0.10432 0.46759 0.0
C1053 C 0.71275 0.08718 0.45355 0.0
C1054 C 0.71971 0.09252 0.51844 0.0
C1055 C 0.72012 0.07308 0.47275 0.0
C1056 C 0.7274 0.07962 0.5726 0.0
C1057 C 0.72545 0.1149 0.5977 0.0
N1058 N 0.72328 0.07604 0.50423 0.0
N1059 N 0.72241 0.11193 0.56619 0.0
H1060 H 0.88455 0.72817 0.39629 0.0
H1061 H 0.81671 0.72784 0.54783 0.0
H1062 H 0.82483 0.72238 0.3928 0.0
H1063 H 0.87609 0.73486 0.55698 0.0
H1064 H 0.82034 0.72485 0.49076 0.0
H1065 H 0.88265 0.72964 0.45478 0.0
C1066 C 0.87108 0.72713 0.40773 0.0
C1067 C 0.85482 0.72524 0.38948 0.0
C1068 C 0.83265 0.72703 0.50509 0.0
C1069 C 0.85259 0.72691 0.45616 0.0
C1070 C 0.83058 0.72877 0.53788 0.0
C1071 C 0.84611 0.7317 0.55743 0.0
C1072 C 0.8504 0.72825 0.49131 0.0
C1073 C 0.86371 0.73265 0.54286 0.0
C1074 C 0.87002 0.728 0.44108 0.0
C1075 C 0.83776 0.72397 0.40565 0.0
N1076 N 0.86539 0.73099 0.5106 0.0
N1077 N 0.83713 0.72485 0.43788 0.0
H1078 H 0.23791 0.8247 0.60914 0.0
H1079 H 0.24097 0.89618 0.46373 0.0
H1080 H 0.22979 0.88338 0.62016 0.0
H1081 H 0.25969 0.83977 0.45656 0.0
H1082 H 0.23415 0.89114 0.5201 0.0
H1083 H 0.24336 0.82945 0.55233 0.0
C1084 C 0.23723 0.8386 0.59965 0.0
C1085 C 0.23341 0.85368 0.61958 0.0
C1086 C 0.23972 0.87985 0.5062 0.0
C1087 C 0.23963 0.85917 0.55435 0.0
C1088 C 0.24353 0.88268 0.47395 0.0
C1089 C 0.25087 0.86835 0.45539 0.0
C1090 C 0.24318 0.86253 0.52 0.0
C1091 C 0.25407 0.85121 0.47 0.0
C1092 C 0.24039 0.84128 0.56717 0.0
C1093 C 0.23274 0.87135 0.60581 0.0
N1094 N 0.25018 0.84877 0.50146 0.0
N1095 N 0.2358 0.8736 0.57404 0.0
H1096 H 0.14355 0.72479 0.43573 0.0
H1097 H 0.07513 0.72912 0.58622 0.0
H1098 H 0.08462 0.73447 0.42558 0.0
H1099 H 0.13446 0.72059 0.59072 0.0
H1100 H 0.07725 0.72947 0.52767 0.0
H1101 H 0.13943 0.7217 0.49274 0.0
C1102 C 0.12968 0.7263 0.44546 0.0
C1103 C 0.11442 0.73003 0.42567 0.0
C1104 C 0.08974 0.72743 0.5416 0.0
C1105 C 0.10958 0.72647 0.49167 0.0
C1106 C 0.08854 0.72718 0.57497 0.0
C1107 C 0.10466 0.72497 0.59348 0.0
C1108 C 0.10716 0.72538 0.5268 0.0
C1109 C 0.12166 0.72253 0.57761 0.0
C1110 C 0.12732 0.72448 0.4782 0.0
C1111 C 0.09679 0.73165 0.43991 0.0
N1112 N 0.12244 0.72286 0.54536 0.0
N1113 N 0.09484 0.72994 0.47213 0.0
H1114 H 0.23609 0.07062 0.36032 0.0
H1115 H 0.26517 0.11656 0.52615 0.0
H1116 H 0.24368 0.1293 0.37254 0.0
H1117 H 0.24702 0.06005 0.51699 0.0
H1118 H 0.25867 0.12138 0.46942 0.0
H1119 H 0.24138 0.06627 0.41737 0.0
C1120 C 0.23884 0.0826 0.37496 0.0
C1121 C 0.23944 0.10035 0.36153 0.0
C1122 C 0.25603 0.10795 0.4799 0.0
C1123 C 0.24559 0.09546 0.4269 0.0
C1124 C 0.25977 0.1052 0.51225 0.0
C1125 C 0.25657 0.0879 0.52633 0.0
C1126 C 0.24923 0.09325 0.46149 0.0
C1127 C 0.24956 0.07365 0.5072 0.0
C1128 C 0.24182 0.08011 0.40757 0.0
C1129 C 0.24304 0.11536 0.38179 0.0
N1130 N 0.24621 0.07662 0.47576 0.0
N1131 N 0.24605 0.11256 0.4134 0.0
H1132 H 0.82143 0.23089 0.43321 0.0
H1133 H 0.88932 0.22579 0.58396 0.0
H1134 H 0.88028 0.22058 0.42335 0.0
H1135 H 0.83027 0.23613 0.58804 0.0
H1136 H 0.88739 0.22541 0.52541 0.0
H1137 H 0.82546 0.2342 0.49014 0.0
C1138 C 0.83526 0.22929 0.44299 0.0
C1139 C 0.85052 0.22532 0.42331 0.0
C1140 C 0.87493 0.22786 0.53924 0.0
C1141 C 0.85527 0.22914 0.48922 0.0
C1142 C 0.87602 0.22815 0.57262 0.0
C1143 C 0.8599 0.23083 0.59101 0.0
C1144 C 0.85762 0.23036 0.52433 0.0
C1145 C 0.84305 0.23379 0.57502 0.0
C1146 C 0.83757 0.23124 0.47568 0.0
C1147 C 0.86811 0.22359 0.4376 0.0
N1148 N 0.84237 0.2334 0.54277 0.0
N1149 N 0.87 0.22542 0.46978 0.0
H1150 H 0.719 0.89622 0.51801 0.0
H1151 H 0.72127 0.82488 0.37313 0.0
H1152 H 0.70071 0.83966 0.52632 0.0
H1153 H 0.72946 0.88359 0.36172 0.0
H1154 H 0.71614 0.82951 0.43004 0.0
H1155 H 0.72545 0.89122 0.4616 0.0
C1156 C 0.71646 0.8827 0.50803 0.0
C1157 C 0.70935 0.86831 0.52694 0.0
C1158 C 0.71906 0.84137 0.41508 0.0
C1159 C 0.71661 0.86254 0.46222 0.0
C1160 C 0.72204 0.83876 0.38255 0.0
C1161 C 0.72578 0.85389 0.36249 0.0
C1162 C 0.71993 0.85923 0.42781 0.0
C1163 C 0.72656 0.87153 0.37618 0.0
C1164 C 0.72006 0.87989 0.47575 0.0
C1165 C 0.70616 0.85114 0.5126 0.0
N1166 N 0.72368 0.8737 0.40798 0.0
N1167 N 0.70983 0.84872 0.48108 0.0
H1168 H 0.58539 0.7215 0.05192 0.0
H1169 H 0.63774 0.7195 0.88332 0.0
H1170 H 0.64495 0.72325 0.03898 0.0
H1171 H 0.57799 0.72337 0.89087 0.0
H1172 H 0.63993 0.71978 0.94094 0.0
H1173 H 0.58169 0.72133 -0.00634 0.0
C1174 C 0.59766 0.72188 0.03694 0.0
C1175 C 0.61551 0.72237 0.0505 0.0
C1176 C 0.62629 0.72059 0.93014 0.0
C1177 C 0.61136 0.72211 0.98404 0.0
C1178 C 0.62502 0.7204 0.89706 0.0
C1179 C 0.60764 0.72143 0.88204 0.0
C1180 C 0.61009 0.72178 0.94869 0.0
C1181 C 0.59169 0.72257 0.90138 0.0
C1182 C 0.59553 0.72178 0.00372 0.0
C1183 C 0.63089 0.72285 0.02985 0.0
N1184 N 0.59329 0.7227 0.93376 0.0
N1185 N 0.62844 0.72267 -0.00216 0.0
H1186 H 0.20175 0.61383 0.95509 0.0
H1187 H 0.23171 0.56869 0.12151 0.0
H1188 H 0.22158 0.55787 0.96418 0.0
H1189 H 0.2238 0.62724 0.10754 0.0
H1190 H 0.22613 0.56395 0.06458 0.0
H1191 H 0.20795 0.61859 0.01179 0.0
C1192 C 0.20746 0.60257 0.96899 0.0
C1193 C 0.21121 0.58546 0.9549 0.0
C1194 C 0.22567 0.57783 0.07403 0.0
C1195 C 0.2182 0.59073 0.01977 0.0
C1196 C 0.22879 0.58054 0.10654 0.0
C1197 C 0.22824 0.59839 0.11939 0.0
C1198 C 0.2218 0.59305 0.05429 0.0
C1199 C 0.22443 0.61323 0.09876 0.0
C1200 C 0.21102 0.60529 0.00133 0.0
C1201 C 0.2186 0.57133 0.97403 0.0
N1202 N 0.2213 0.61021 0.0673 0.0
N1203 N 0.22178 0.57426 0.00552 0.0
H1204 H 0.38047 0.2355 0.0551 0.0
H1205 H 0.3272 0.23084 0.88781 0.0
H1206 H 0.32088 0.23271 0.04368 0.0
H1207 H 0.38711 0.23097 0.89418 0.0
H1208 H 0.3253 0.23166 0.94543 0.0
H1209 H 0.38387 0.23399 -0.00316 0.0
C1210 C 0.36813 0.23456 0.04046 0.0
C1211 C 0.35035 0.23427 0.05444 0.0
C1212 C 0.33891 0.2315 0.93438 0.0
C1213 C 0.35416 0.23254 0.98796 0.0
C1214 C 0.34002 0.23104 0.9013 0.0
C1215 C 0.35736 0.23086 0.88594 0.0
C1216 C 0.35525 0.23183 0.95262 0.0
C1217 C 0.37344 0.23108 0.90497 0.0
C1218 C 0.37009 0.23369 0.00723 0.0
C1219 C 0.33487 0.23301 0.03421 0.0
N1220 N 0.372 0.23159 0.93736 0.0
N1221 N 0.33716 0.23222 0.00218 0.0
H1222 H 0.73977 0.32676 0.11196 0.0
H1223 H 0.74252 0.39712 0.96496 0.0
H1224 H 0.73287 0.38566 0.122 0.0
H1225 H 0.76217 0.34097 0.95918 0.0
H1226 H 0.73567 0.3924 0.02141 0.0
H1227 H 0.7448 0.33104 0.05489 0.0
C1228 C 0.73923 0.3406 0.10219 0.0
C1229 C 0.73592 0.35589 0.12191 0.0
C1230 C 0.74145 0.3811 0.00779 0.0
C1231 C 0.74167 0.36084 0.05644 0.0
C1232 C 0.74528 0.38374 0.97551 0.0
C1233 C 0.75291 0.36939 0.95732 0.0
C1234 C 0.74515 0.36394 0.022 0.0
C1235 C 0.75633 0.35241 0.97234 0.0
C1236 C 0.74217 0.34302 0.06958 0.0
C1237 C 0.73543 0.37348 0.1078 0.0
N1238 N 0.7524 0.35014 0.00383 0.0
N1239 N 0.73826 0.37546 0.07592 0.0
H1240 H 0.58019 0.23061 0.09201 0.0
H1241 H 0.64833 0.23191 0.94099 0.0
H1242 H 0.64011 0.23327 0.09648 0.0
H1243 H 0.5886 0.23324 0.93103 0.0
H1244 H 0.6448 0.23142 -0.00167 0.0
H1245 H 0.58223 0.23075 0.03353 0.0
C1246 C 0.59375 0.23123 0.0808 0.0
C1247 C 0.61 0.23193 0.09932 0.0
C1248 C 0.6324 0.23182 0.98375 0.0
C1249 C 0.61239 0.23205 0.03259 0.0
C1250 C 0.6344 0.23209 0.95081 0.0
C1251 C 0.61873 0.23266 0.93094 0.0
C1252 C 0.61458 0.23211 -0.00264 0.0
C1253 C 0.60108 0.23283 0.94538 0.0
C1254 C 0.59488 0.23131 0.04743 0.0
C1255 C 0.62717 0.23272 0.08341 0.0
N1256 N 0.59946 0.23257 0.97778 0.0
N1257 N 0.62787 0.23274 0.05113 0.0
H1258 H 0.77949 0.59256 0.00539 0.0
H1259 H 0.70736 0.61382 0.87245 0.0
H1260 H 0.72197 0.58039 0.02541 0.0
H1261 H 0.75391 0.57859 0.8506 0.0
H1262 H 0.71361 0.60936 0.9297 0.0
H1263 H 0.77177 0.59569 0.94852 0.0
C1264 C 0.76523 0.59071 -0.00224 0.0
C1265 C 0.75133 0.58611 0.0198 0.0
C1266 C 0.72232 0.60257 0.91223 0.0
C1267 C 0.74246 0.59002 0.95557 0.0
C1268 C 0.71882 0.60511 0.87978 0.0
C1269 C 0.73011 0.59646 0.85702 0.0
C1270 C 0.73758 0.59189 0.92169 0.0
C1271 C 0.74482 0.58534 0.86754 0.0
C1272 C 0.7609 0.59237 0.96549 0.0
C1273 C 0.73306 0.58375 0.00893 0.0
N1274 N 0.74835 0.5836 0.89922 0.0
N1275 N 0.72907 0.58595 0.97746 0.0
H1276 H 0.31812 0.72944 0.93609 0.0
H1277 H 0.38704 0.72451 0.08552 0.0
H1278 H 0.37718 0.72087 0.92499 0.0
H1279 H 0.3276 0.73206 0.0911 0.0
H1280 H 0.38474 0.7248 0.02701 0.0
H1281 H 0.32233 0.73195 -0.00687 0.0
C1282 C 0.33204 0.72806 0.94561 0.0
C1283 C 0.34731 0.72481 0.92556 0.0
C1284 C 0.37226 0.72648 0.04117 0.0
C1285 C 0.35226 0.7277 -0.00844 0.0
C1286 C 0.37357 0.72637 0.07452 0.0
C1287 C 0.35747 0.72812 0.09332 0.0
C1288 C 0.35477 0.72843 0.02668 0.0
C1289 C 0.34038 0.73048 0.07776 0.0
C1290 C 0.33444 0.72954 0.97836 0.0
C1291 C 0.365 0.72333 0.93953 0.0
N1292 N 0.33951 0.7305 0.04551 0.0
N1293 N 0.367 0.7247 0.97176 0.0
H1294 H 0.23313 0.38511 0.85929 0.0
H1295 H 0.20421 0.34012 0.02649 0.0
H1296 H 0.22572 0.3265 0.8735 0.0
H1297 H 0.2229 0.39645 0.01628 0.0
H1298 H 0.21075 0.33509 0.96993 0.0
H1299 H 0.22812 0.38983 0.91634 0.0
C1300 C 0.23048 0.37323 0.87436 0.0
C1301 C 0.22984 0.35538 0.8615 0.0
C1302 C 0.21351 0.34852 0.98012 0.0
C1303 C 0.22401 0.36071 0.92683 0.0
C1304 C 0.20975 0.35141 0.01238 0.0
C1305 C 0.21305 0.36872 0.02612 0.0
C1306 C 0.22044 0.36311 0.96139 0.0
C1307 C 0.22025 0.38285 0.00672 0.0
C1308 C 0.22766 0.37594 0.90695 0.0
C1309 C 0.22638 0.34052 0.88229 0.0
N1310 N 0.22361 0.37976 0.97532 0.0
N1311 N 0.22352 0.34353 0.91386 0.0
H1312 H 0.13497 0.35484 0.15274 0.0
H1313 H 0.13862 0.28473 0.29949 0.0
H1314 H 0.18294 0.34634 0.21264 0.0
H1315 H 0.09343 0.28635 0.23225 0.0
H1316 H 0.15154 0.31261 0.27539 0.0
H1317 H 0.11687 0.33466 0.1878 0.0
C1318 C 0.14168 0.34889 0.17345 0.0
C1319 C 0.16061 0.35213 0.17951 0.0
C1320 C 0.1386 0.30714 0.26623 0.0
C1321 C 0.13985 0.32904 0.21986 0.0
C1322 C 0.13112 0.29132 0.28019 0.0
C1323 C 0.11501 0.28318 0.26767 0.0
C1324 C 0.13006 0.3148 0.23922 0.0
C1325 C 0.10584 0.29224 0.24267 0.0
C1326 C 0.13129 0.33737 0.19346 0.0
C1327 C 0.16846 0.34411 0.20682 0.0
N1328 N 0.1137 0.30741 0.2288 0.0
N1329 N 0.15809 0.33284 0.22582 0.0
H1330 H 0.63836 0.17216 0.18277 0.0
H1331 H 0.6351 0.10068 0.32757 0.0
H1332 H 0.59325 0.16964 0.25034 0.0
H1333 H 0.68293 0.10987 0.26734 0.0
H1334 H 0.61689 0.12107 0.29323 0.0
H1335 H 0.65138 0.1441 0.20592 0.0
C1336 C 0.6309 0.16534 0.20194 0.0
C1337 C 0.61478 0.17328 0.21483 0.0
C1338 C 0.6313 0.11846 0.28732 0.0
C1339 C 0.62995 0.14145 0.2422 0.0
C1340 C 0.64175 0.10682 0.30693 0.0
C1341 C 0.66069 0.10371 0.30058 0.0
C1342 C 0.6398 0.12705 0.26105 0.0
C1343 C 0.66846 0.11199 0.27337 0.0
C1344 C 0.63844 0.14942 0.21536 0.0
C1345 C 0.60567 0.16392 0.23965 0.0
N1346 N 0.65803 0.12337 0.25478 0.0
N1347 N 0.61358 0.14866 0.25299 0.0
H1348 H 0.78738 0.59154 0.24363 0.0
H1349 H 0.86743 0.66807 0.22819 0.0
H1350 H 0.80849 0.61257 0.15425 0.0
H1351 H 0.83211 0.66246 0.31067 0.0
H1352 H 0.85259 0.64069 0.20498 0.0
H1353 H 0.80967 0.61125 0.2719 0.0
C1354 C 0.79677 0.60018 0.22995 0.0
C1355 C 0.79587 0.6006 0.19653 0.0
C1356 C 0.84848 0.64515 0.22858 0.0
C1357 C 0.8216 0.62285 0.22867 0.0
C1358 C 0.85716 0.66057 0.24202 0.0
C1359 C 0.85099 0.66743 0.27138 0.0
C1360 C 0.83368 0.63654 0.24481 0.0
C1361 C 0.83727 0.65751 0.288 0.0
C1362 C 0.80949 0.61138 0.24609 0.0
C1363 C 0.80848 0.61199 0.18004 0.0
N1364 N 0.82892 0.64268 0.27435 0.0
N1365 N 0.82077 0.62267 0.19625 0.0
H1366 H 0.37231 0.78301 0.25094 0.0
H1367 H 0.28092 0.84465 0.2694 0.0
H1368 H 0.32496 0.78032 0.18827 0.0
H1369 H 0.3285 0.84953 0.33132 0.0
H1370 H 0.29878 0.82401 0.23514 0.0
H1371 H 0.35889 0.81067 0.27578 0.0
C1372 C 0.35941 0.78857 0.24178 0.0
C1373 C 0.34963 0.77929 0.21778 0.0
C1374 C 0.3054 0.82972 0.25607 0.0
C1375 C 0.33403 0.81054 0.24635 0.0
C1376 C 0.29516 0.8415 0.27568 0.0
C1377 C 0.30312 0.84869 0.30349 0.0
C1378 C 0.32372 0.82493 0.2644 0.0
C1379 C 0.32172 0.8442 0.31026 0.0
C1380 C 0.35164 0.80423 0.25615 0.0
C1381 C 0.33284 0.78695 0.20701 0.0
N1382 N 0.33131 0.83247 0.29107 0.0
N1383 N 0.32548 0.80193 0.2216 0.0
H1384 H 0.18155 0.60751 0.76794 0.0
H1385 H 0.09 0.66882 0.75098 0.0
H1386 H 0.13435 0.60248 0.83104 0.0
H1387 H 0.13656 0.67103 0.68624 0.0
H1388 H 0.10351 0.64111 0.77571 0.0
H1389 H 0.16327 0.62776 0.73349 0.0
C1390 C 0.1673 0.61054 0.77444 0.0
C1391 C 0.15957 0.60345 0.80264 0.0
C1392 C 0.11055 0.64745 0.75563 0.0
C1393 C 0.13851 0.62675 0.76334 0.0
C1394 C 0.10273 0.66313 0.74133 0.0
C1395 C 0.11229 0.6723 0.7168 0.0
C1396 C 0.12801 0.64101 0.74524 0.0
C1397 C 0.12885 0.66448 0.7054 0.0
C1398 C 0.15682 0.62209 0.75471 0.0
C1399 C 0.14096 0.60775 0.80967 0.0
N1400 N 0.1363 0.64949 0.71996 0.0
N1401 N 0.13114 0.61928 0.79038 0.0
H1402 H 0.28492 0.10871 0.71453 0.0
H1403 H 0.37649 0.16924 0.73582 0.0
H1404 H 0.3335 0.10284 0.65492 0.0
H1405 H 0.32907 0.17148 0.79861 0.0
H1406 H 0.36347 0.14134 0.71132 0.0
H1407 H 0.30277 0.12856 0.75014 0.0
C1408 C 0.29938 0.11147 0.70905 0.0
C1409 C 0.30763 0.10427 0.68146 0.0
C1410 C 0.35614 0.14769 0.73099 0.0
C1411 C 0.32821 0.12712 0.7221 0.0
C1412 C 0.3637 0.16347 0.74521 0.0
C1413 C 0.35374 0.17274 0.76903 0.0
C1414 C 0.33852 0.14126 0.74068 0.0
C1415 C 0.33709 0.16484 0.78004 0.0
C1416 C 0.30961 0.12278 0.72945 0.0
C1417 C 0.32649 0.10821 0.67577 0.0
N1418 N 0.32987 0.14977 0.76547 0.0
N1419 N 0.33607 0.11954 0.69566 0.0
H1420 H 0.82853 0.28485 0.68355 0.0
H1421 H 0.83143 0.3517 0.83419 0.0
H1422 H 0.87336 0.28484 0.75158 0.0
H1423 H 0.78432 0.34573 0.77149 0.0
H1424 H 0.84953 0.33166 0.79915 0.0
H1425 H 0.81544 0.31201 0.70928 0.0
C1426 C 0.83588 0.2909 0.70349 0.0
C1427 C 0.85197 0.28253 0.71563 0.0
C1428 C 0.83529 0.33488 0.7929 0.0
C1429 C 0.83673 0.31336 0.74589 0.0
C1430 C 0.82491 0.34632 0.81291 0.0
C1431 C 0.80622 0.35026 0.80598 0.0
C1432 C 0.82697 0.32734 0.76566 0.0
C1433 C 0.79861 0.34295 0.77797 0.0
C1434 C 0.82831 0.30633 0.71834 0.0
C1435 C 0.86096 0.29093 0.74143 0.0
N1436 N 0.80896 0.33177 0.75898 0.0
N1437 N 0.85302 0.30572 0.75613 0.0
H1438 H 0.68092 0.84475 0.71386 0.0
H1439 H 0.5889 0.78446 0.73442 0.0
H1440 H 0.63196 0.85227 0.65596 0.0
H1441 H 0.63722 0.77973 0.79448 0.0
H1442 H 0.60204 0.81278 0.71117 0.0
H1443 H 0.66326 0.82404 0.7486 0.0
C1444 C 0.66642 0.84217 0.70859 0.0
C1445 C 0.658 0.85009 0.6817 0.0
C1446 C 0.60957 0.80577 0.72996 0.0
C1447 C 0.63764 0.82625 0.72134 0.0
C1448 C 0.60195 0.78973 0.74347 0.0
C1449 C 0.61209 0.77967 0.76612 0.0
C1450 C 0.62742 0.81167 0.73925 0.0
C1451 C 0.62906 0.78698 0.77676 0.0
C1452 C 0.65629 0.83036 0.72848 0.0
C1453 C 0.63909 0.84635 0.67625 0.0
N1454 N 0.6363 0.80234 0.76293 0.0
N1455 N 0.62962 0.83454 0.69563 0.0
H1456 H 0.8511 0.6832 0.72659 0.0
H1457 H 0.78175 0.59995 0.69255 0.0
H1458 H 0.82484 0.67221 0.63641 0.0
H1459 H 0.78706 0.62791 0.78255 0.0
H1460 H 0.80914 0.61678 0.67285 0.0
H1461 H 0.83927 0.65356 0.74689 0.0
C1462 C 0.84354 0.67416 0.71068 0.0
C1463 C 0.83873 0.68009 0.67997 0.0
C1464 C 0.8047 0.61868 0.69731 0.0
C1465 C 0.82522 0.64647 0.70283 0.0
C1466 C 0.7892 0.60899 0.70861 0.0
C1467 C 0.78213 0.61277 0.73903 0.0
C1468 C 0.81316 0.63201 0.71678 0.0
C1469 C 0.79207 0.62479 0.75882 0.0
C1470 C 0.83671 0.65735 0.72229 0.0
C1471 C 0.82868 0.66808 0.66034 0.0
N1472 N 0.80695 0.63422 0.7472 0.0
N1473 N 0.82204 0.65192 0.67223 0.0
H1474 H 0.35253 0.77562 0.75987 0.0
H1475 H 0.27853 0.85485 0.7917 0.0
H1476 H 0.32273 0.78402 0.84779 0.0
H1477 H 0.29017 0.83091 0.70001 0.0
H1478 H 0.30582 0.83894 0.81358 0.0
H1479 H 0.34074 0.80541 0.74026 0.0
C1480 C 0.34415 0.7841 0.7755 0.0
C1481 C 0.33834 0.77737 0.80525 0.0
C1482 C 0.30282 0.83778 0.78838 0.0
C1483 C 0.32488 0.81117 0.78317 0.0
C1484 C 0.28738 0.84699 0.77586 0.0
C1485 C 0.28214 0.844 0.74415 0.0
C1486 C 0.31297 0.82564 0.76891 0.0
C1487 C 0.29381 0.83343 0.72466 0.0
C1488 C 0.33735 0.801 0.76428 0.0
C1489 C 0.32732 0.78872 0.82454 0.0
N1490 N 0.30853 0.82435 0.73746 0.0
N1491 N 0.32072 0.80496 0.81301 0.0
H1492 H 0.14114 0.28222 0.63039 0.0
H1493 H 0.17168 0.32913 0.78285 0.0
H1494 H 0.11167 0.27294 0.71844 0.0
H1495 H 0.18238 0.3538 0.69112 0.0
H1496 H 0.14505 0.31284 0.7604 0.0
H1497 H 0.15164 0.31207 0.65032 0.0
C1498 C 0.13641 0.2868 0.65358 0.0
C1499 C 0.1257 0.27514 0.67297 0.0
C1500 C 0.15274 0.32233 0.74534 0.0
C1501 C 0.13822 0.3089 0.69651 0.0
C1502 C 0.16788 0.3317 0.75825 0.0
C1503 C 0.1792 0.3427 0.7387 0.0
C1504 C 0.14939 0.32344 0.71241 0.0
C1505 C 0.17391 0.34545 0.70693 0.0
C1506 C 0.14239 0.30384 0.665 0.0
C1507 C 0.11994 0.2816 0.70284 0.0
N1508 N 0.1597 0.33541 0.69446 0.0
N1509 N 0.12674 0.29785 0.71413 0.0
H1510 H 0.68431 0.09675 0.78894 0.0
H1511 H 0.64315 0.17076 0.85509 0.0
H1512 H 0.6745 0.1287 0.70384 0.0
H1513 H 0.61223 0.17819 0.76818 0.0
H1514 H 0.65447 0.14125 0.83547 0.0
H1515 H 0.65746 0.11176 0.81412 0.0
C1516 C 0.67606 0.10639 0.77517 0.0
C1517 C 0.68174 0.11182 0.74458 0.0
C1518 C 0.64456 0.14882 0.82113 0.0
C1519 C 0.65164 0.12943 0.77334 0.0
C1520 C 0.63817 0.16576 0.83233 0.0
C1521 C 0.62686 0.17689 0.8131 0.0
C1522 C 0.64004 0.14325 0.79002 0.0
C1523 C 0.62092 0.16993 0.7837 0.0
C1524 C 0.66093 0.11517 0.78968 0.0
C1525 C 0.67067 0.1244 0.72772 0.0
N1526 N 0.62808 0.1538 0.77257 0.0
N1527 N 0.65633 0.13303 0.74251 0.0
H1528 H 0.79401 0.33226 0.19727 0.0
H1529 H 0.82906 0.28404 0.34693 0.0
H1530 H 0.78538 0.35537 0.29052 0.0
H1531 H 0.85478 0.27472 0.25563 0.0
H1532 H 0.81813 0.31404 0.32819 0.0
H1533 H 0.8212 0.31577 0.21725 0.0
C1534 C 0.79838 0.33445 0.22168 0.0
C1535 C 0.7875 0.34508 0.24238 0.0
C1536 C 0.82666 0.30577 0.31246 0.0
C1537 C 0.81797 0.32557 0.26588 0.0
C1538 C 0.83291 0.28865 0.32321 0.0
C1539 C 0.84267 0.27695 0.30265 0.0
C1540 C 0.82958 0.31088 0.2805 0.0
C1541 C 0.84726 0.28343 0.27214 0.0
C1542 C 0.81385 0.32495 0.23318 0.0
C1543 C 0.79351 0.34733 0.27385 0.0
N1544 N 0.84021 0.29977 0.26162 0.0
N1545 N 0.80804 0.33718 0.28495 0.0
H1546 H 0.60734 0.77624 0.21334 0.0
H1547 H 0.68113 0.85675 0.18981 0.0
H1548 H 0.6397 0.78601 0.1284 0.0
H1549 H 0.66799 0.83059 0.2794 0.0
H1550 H 0.65439 0.84112 0.16554 0.0
H1551 H 0.61806 0.80597 0.23453 0.0
C1552 C 0.61605 0.78501 0.19861 0.0
C1553 C 0.62292 0.77865 0.16936 0.0
C1554 C 0.65693 0.83942 0.19083 0.0
C1555 C 0.63515 0.81242 0.19327 0.0
C1556 C 0.67205 0.84846 0.20472 0.0
C1557 C 0.67675 0.84475 0.23649 0.0
C1558 C 0.64653 0.82675 0.20901 0.0
C1559 C 0.66479 0.83366 0.25473 0.0
C1560 C 0.62224 0.80189 0.21076 0.0
C1561 C 0.63432 0.7904 0.15128 0.0
N1562 N 0.65039 0.82477 0.24061 0.0
N1563 N 0.64031 0.80662 0.16372 0.0
H1564 H 0.10992 0.68117 0.25822 0.0
H1565 H 0.18319 0.6012 0.29087 0.0
H1566 H 0.13743 0.67118 0.34776 0.0
H1567 H 0.17376 0.62726 0.1999 0.0
H1568 H 0.1556 0.61697 0.31205 0.0
H1569 H 0.12232 0.65181 0.23814 0.0
C1570 C 0.11788 0.67239 0.27408 0.0
C1571 C 0.12289 0.67857 0.30448 0.0
C1572 C 0.1592 0.61868 0.28713 0.0
C1573 C 0.13711 0.6453 0.28183 0.0
C1574 C 0.17482 0.60958 0.27502 0.0
C1575 C 0.18074 0.61316 0.24378 0.0
C1576 C 0.14951 0.63123 0.26768 0.0
C1577 C 0.16964 0.62433 0.22424 0.0
C1578 C 0.12505 0.65575 0.26258 0.0
C1579 C 0.13344 0.66688 0.32403 0.0
N1580 N 0.15469 0.63321 0.23663 0.0
N1581 N 0.14044 0.65091 0.31223 0.0
H1582 H 0.2862 0.10029 0.19047 0.0
H1583 H 0.35799 0.18197 0.21912 0.0
H1584 H 0.29736 0.12539 0.28137 0.0
H1585 H 0.32722 0.17265 0.13262 0.0
H1586 H 0.34731 0.15188 0.2393 0.0
H1587 H 0.31289 0.11692 0.16775 0.0
C1588 C 0.29485 0.10856 0.20599 0.0
C1589 C 0.28959 0.11166 0.23768 0.0
C1590 C 0.34347 0.15616 0.21545 0.0
C1591 C 0.31975 0.13082 0.21197 0.0
C1592 C 0.34964 0.17324 0.20389 0.0
C1593 C 0.34323 0.17978 0.17442 0.0
C1594 C 0.33105 0.14561 0.19715 0.0
C1595 C 0.33226 0.1681 0.15566 0.0
C1596 C 0.30994 0.11818 0.19298 0.0
C1597 C 0.301 0.12277 0.25674 0.0
N1598 N 0.3263 0.15167 0.16751 0.0
N1599 N 0.31538 0.13222 0.24346 0.0
loop_
_geom_bond_atom_site_label_1
_geom_bond_atom_site_label_2
_geom_bond_distance
_geom_bond_site_symmetry_2
_ccdc_geom_bond_type
Mg0 O1 2.028 . S
Mg0 O7 1.986 . S
Mg0 O9 2.114 . S
Mg0 O10 2.251 . S
Mg0 O13 2.010 . S
O1 Mg0 2.028 . S
O1 C4 1.250 . S
O2 Mg3 2.028 . S
O2 C4 1.248 . S
Mg3 O2 2.028 . S
Mg3 O8 2.032 . S
Mg3 O10 2.079 . S
C4 O1 1.250 . S
C4 O2 1.248 . S
C5 O6 1.264 . S
C5 O13 1.249 . S
O6 C5 1.264 . S
O7 Mg0 1.986 . S
O7 C11 1.246 . S
O8 Mg3 2.032 . S
O8 C11 1.259 . S
O9 Mg0 2.114 . S
O9 C12 1.252 . S
O10 Mg0 2.251 . S
O10 Mg3 2.079 . S
O10 C12 1.273 . S
C11 O7 1.246 . S
C11 O8 1.259 . S
C12 O9 1.252 . S
C12 O10 1.273 . S
O13 Mg0 2.010 . S
O13 C5 1.249 . S
Mg14 O15 2.028 . S
Mg14 O21 1.986 . S
Mg14 O23 2.114 . S
Mg14 O24 2.251 . S
Mg14 O27 2.010 . S
O15 Mg14 2.028 . S
O15 C18 1.250 . S
O16 Mg17 2.028 . S
O16 C18 1.248 . S
Mg17 O16 2.028 . S
Mg17 O22 2.032 . S
Mg17 O24 2.079 . S
C18 O15 1.250 . S
C18 O16 1.248 . S
C19 O20 1.264 . S
C19 O27 1.249 . S
O20 C19 1.264 . S
O21 Mg14 1.986 . S
O21 C25 1.246 . S
O22 Mg17 2.032 . S
O22 C25 1.259 . S
O23 Mg14 2.114 . S
O23 C26 1.252 . S
O24 Mg14 2.251 . S
O24 Mg17 2.079 . S
O24 C26 1.273 . S
C25 O21 1.246 . S
C25 O22 1.259 . S
C26 O23 1.252 . S
C26 O24 1.273 . S
O27 Mg14 2.010 . S
O27 C19 1.249 . S
Mg28 O29 2.028 . S
Mg28 O35 1.986 . S
Mg28 O37 2.114 . S
Mg28 O38 2.251 . S
Mg28 O41 2.010 . S
O29 Mg28 2.028 . S
O29 C32 1.250 . S
O30 Mg31 2.028 . S
O30 C32 1.248 . S
Mg31 O30 2.028 . S
Mg31 O36 2.032 . S
Mg31 O38 2.079 . S
C32 O29 1.250 . S
C32 O30 1.248 . S
C33 O34 1.264 . S
C33 O41 1.249 . S
O34 C33 1.264 . S
O35 Mg28 1.986 . S
O35 C39 1.246 . S
O36 Mg31 2.032 . S
O36 C39 1.259 . S
O37 Mg28 2.114 . S
O37 C40 1.252 . S
O38 Mg28 2.251 . S
O38 Mg31 2.079 . S
O38 C40 1.273 . S
C39 O35 1.246 . S
C39 O36 1.259 . S
C40 O37 1.252 . S
C40 O38 1.273 . S
O41 Mg28 2.010 . S
O41 C33 1.249 . S
Mg42 O43 2.028 . S
Mg42 O49 1.986 . S
Mg42 O51 2.114 . S
Mg42 O52 2.251 . S
Mg42 O55 2.010 . S
O43 Mg42 2.028 . S
O43 C46 1.250 . S
O44 Mg45 2.028 . S
O44 C46 1.248 . S
Mg45 O44 2.028 . S
Mg45 O50 2.032 . S
Mg45 O52 2.079 . S
C46 O43 1.250 . S
C46 O44 1.248 . S
C47 O48 1.264 . S
C47 O55 1.249 . S
O48 C47 1.264 . S
O49 Mg42 1.986 . S
O49 C53 1.246 . S
O50 Mg45 2.032 . S
O50 C53 1.259 . S
O51 Mg42 2.114 . S
O51 C54 1.252 . S
O52 Mg42 2.251 . S
O52 Mg45 2.079 . S
O52 C54 1.273 . S
C53 O49 1.246 . S
C53 O50 1.259 . S
C54 O51 1.252 . S
C54 O52 1.273 . S
O55 Mg42 2.010 . S
O55 C47 1.249 . S
Mg56 O57 2.028 . S
Mg56 O63 1.986 . S
Mg56 O65 2.114 . S
Mg56 O66 2.251 . S
Mg56 O69 2.010 . S
O57 Mg56 2.028 . S
O57 C60 1.250 . S
O58 Mg59 2.028 . S
O58 C60 1.248 . S
Mg59 O58 2.028 . S
Mg59 O64 2.032 . S
Mg59 O66 2.079 . S
C60 O57 1.250 . S
C60 O58 1.248 . S
C61 O62 1.264 . S
C61 O69 1.249 . S
O62 C61 1.264 . S
O63 Mg56 1.986 . S
O63 C67 1.246 . S
O64 Mg59 2.032 . S
O64 C67 1.259 . S
O65 Mg56 2.114 . S
O65 C68 1.252 . S
O66 Mg56 2.251 . S
O66 Mg59 2.079 . S
O66 C68 1.273 . S
C67 O63 1.246 . S
C67 O64 1.259 . S
C68 O65 1.252 . S
C68 O66 1.273 . S
O69 Mg56 2.010 . S
O69 C61 1.249 . S
Mg70 O71 2.028 . S
Mg70 O77 1.986 . S
Mg70 O79 2.114 . S
Mg70 O80 2.251 . S
Mg70 O83 2.010 . S
O71 Mg70 2.028 . S
O71 C74 1.250 . S
O72 Mg73 2.028 . S
O72 C74 1.248 . S
Mg73 O72 2.028 . S
Mg73 O78 2.032 . S
Mg73 O80 2.079 . S
C74 O71 1.250 . S
C74 O72 1.248 . S
C75 O76 1.264 . S
C75 O83 1.249 . S
O76 C75 1.264 . S
O77 Mg70 1.986 . S
O77 C81 1.246 . S
O78 Mg73 2.032 . S
O78 C81 1.259 . S
O79 Mg70 2.114 . S
O79 C82 1.252 . S
O80 Mg70 2.251 . S
O80 Mg73 2.079 . S
O80 C82 1.273 . S
C81 O77 1.246 . S
C81 O78 1.259 . S
C82 O79 1.252 . S
C82 O80 1.273 . S
O83 Mg70 2.010 . S
O83 C75 1.249 . S
Mg84 O85 2.028 . S
Mg84 O91 1.986 . S
Mg84 O93 2.114 . S
Mg84 O94 2.251 . S
Mg84 O97 2.010 . S
O85 Mg84 2.028 . S
O85 C88 1.250 . S
O86 Mg87 2.028 . S
O86 C88 1.248 . S
Mg87 O86 2.028 . S
Mg87 O92 2.032 . S
Mg87 O94 2.079 . S
C88 O85 1.250 . S
C88 O86 1.248 . S
C89 O90 1.264 . S
C89 O97 1.249 . S
O90 C89 1.264 . S
O91 Mg84 1.986 . S
O91 C95 1.246 . S
O92 Mg87 2.032 . S
O92 C95 1.259 . S
O93 Mg84 2.114 . S
O93 C96 1.252 . S
O94 Mg84 2.251 . S
O94 Mg87 2.079 . S
O94 C96 1.273 . S
C95 O91 1.246 . S
C95 O92 1.259 . S
C96 O93 1.252 . S
C96 O94 1.273 . S
O97 Mg84 2.010 . S
O97 C89 1.249 . S
Mg98 O99 2.028 . S
Mg98 O105 1.986 . S
Mg98 O107 2.114 . S
Mg98 O108 2.251 . S
Mg98 O111 2.010 . S
O99 Mg98 2.028 . S
O99 C102 1.250 . S
O100 Mg101 2.028 . S
O100 C102 1.248 . S
Mg101 O100 2.028 . S
Mg101 O106 2.032 . S
Mg101 O108 2.079 . S
C102 O99 1.250 . S
C102 O100 1.248 . S
C103 O104 1.264 . S
C103 O111 1.249 . S
O104 C103 1.264 . S
O105 Mg98 1.986 . S
O105 C109 1.246 . S
O106 Mg101 2.032 . S
O106 C109 1.259 . S
O107 Mg98 2.114 . S
O107 C110 1.252 . S
O108 Mg98 2.251 . S
O108 Mg101 2.079 . S
O108 C110 1.273 . S
C109 O105 1.246 . S
C109 O106 1.259 . S
C110 O107 1.252 . S
C110 O108 1.273 . S
O111 Mg98 2.010 . S
O111 C103 1.249 . S
Mg112 O113 2.028 . S
Mg112 O119 1.986 . S
Mg112 O121 2.114 . S
Mg112 O122 2.251 . S
Mg112 O125 2.010 . S
O113 Mg112 2.028 . S
O113 C116 1.250 . S
O114 Mg115 2.028 . S
O114 C116 1.248 . S
Mg115 O114 2.028 . S
Mg115 O120 2.032 . S
Mg115 O122 2.079 . S
C116 O113 1.250 . S
C116 O114 1.248 . S
C117 O118 1.264 . S
C117 O125 1.249 . S
O118 C117 1.264 . S
O119 Mg112 1.986 . S
O119 C123 1.246 . S
O120 Mg115 2.032 . S
O120 C123 1.259 . S
O121 Mg112 2.114 . S
O121 C124 1.252 . S
O122 Mg112 2.251 . S
O122 Mg115 2.079 . S
O122 C124 1.273 . S
C123 O119 1.246 . S
C123 O120 1.259 . S
C124 O121 1.252 . S
C124 O122 1.273 . S
O125 Mg112 2.010 . S
O125 C117 1.249 . S
Mg126 O127 2.028 . S
Mg126 O133 1.986 . S
Mg126 O135 2.114 . S
Mg126 O136 2.251 . S
Mg126 O139 2.010 . S
O127 Mg126 2.028 . S
O127 C130 1.250 . S
O128 Mg129 2.028 . S
O128 C130 1.248 . S
Mg129 O128 2.028 . S
Mg129 O134 2.032 . S
Mg129 O136 2.079 . S
C130 O127 1.250 . S
C130 O128 1.248 . S
C131 O132 1.264 . S
C131 O139 1.249 . S
O132 C131 1.264 . S
O133 Mg126 1.986 . S
O133 C137 1.246 . S
O134 Mg129 2.032 . S
O134 C137 1.259 . S
O135 Mg126 2.114 . S
O135 C138 1.252 . S
O136 Mg126 2.251 . S
O136 Mg129 2.079 . S
O136 C138 1.273 . S
C137 O133 1.246 . S
C137 O134 1.259 . S
C138 O135 1.252 . S
C138 O136 1.273 . S
O139 Mg126 2.010 . S
O139 C131 1.249 . S
Mg140 O141 2.028 . S
Mg140 O147 1.986 . S
Mg140 O149 2.114 . S
Mg140 O150 2.251 . S
Mg140 O153 2.010 . S
O141 Mg140 2.028 . S
O141 C144 1.250 . S
O142 Mg143 2.028 . S
O142 C144 1.248 . S
Mg143 O142 2.028 . S
Mg143 O148 2.032 . S
Mg143 O150 2.079 . S
C144 O141 1.250 . S
C144 O142 1.248 . S
C145 O146 1.264 . S
C145 O153 1.249 . S
O146 C145 1.264 . S
O147 Mg140 1.986 . S
O147 C151 1.246 . S
O148 Mg143 2.032 . S
O148 C151 1.259 . S
O149 Mg140 2.114 . S
O149 C152 1.252 . S
O150 Mg140 2.251 . S
O150 Mg143 2.079 . S
O150 C152 1.273 . S
C151 O147 1.246 . S
C151 O148 1.259 . S
C152 O149 1.252 . S
C152 O150 1.273 . S
O153 Mg140 2.010 . S
O153 C145 1.249 . S
Mg154 O155 2.028 . S
Mg154 O161 1.986 . S
Mg154 O163 2.114 . S
Mg154 O164 2.251 . S
Mg154 O167 2.010 . S
O155 Mg154 2.028 . S
O155 C158 1.250 . S
O156 Mg157 2.028 . S
O156 C158 1.248 . S
Mg157 O156 2.028 . S
Mg157 O162 2.032 . S
Mg157 O164 2.079 . S
C158 O155 1.250 . S
C158 O156 1.248 . S
C159 O160 1.264 . S
C159 O167 1.249 . S
O160 C159 1.264 . S
O161 Mg154 1.986 . S
O161 C165 1.246 . S
O162 Mg157 2.032 . S
O162 C165 1.259 . S
O163 Mg154 2.114 . S
O163 C166 1.252 . S
O164 Mg154 2.251 . S
O164 Mg157 2.079 . S
O164 C166 1.273 . S
C165 O161 1.246 . S
C165 O162 1.259 . S
C166 O163 1.252 . S
C166 O164 1.273 . S
O167 Mg154 2.010 . S
O167 C159 1.249 . S
Mg168 O169 2.028 . S
Mg168 O175 1.986 . S
Mg168 O177 2.114 . S
Mg168 O178 2.251 . S
Mg168 O181 2.010 . S
O169 Mg168 2.028 . S
O169 C172 1.250 . S
O170 Mg171 2.028 . S
O170 C172 1.248 . S
Mg171 O170 2.028 . S
Mg171 O176 2.032 . S
Mg171 O178 2.079 . S
C172 O169 1.250 . S
C172 O170 1.248 . S
C173 O174 1.264 . S
C173 O181 1.249 . S
O174 C173 1.264 . S
O175 Mg168 1.986 . S
O175 C179 1.246 . S
O176 Mg171 2.032 . S
O176 C179 1.259 . S
O177 Mg168 2.114 . S
O177 C180 1.252 . S
O178 Mg168 2.251 . S
O178 Mg171 2.079 . S
O178 C180 1.273 . S
C179 O175 1.246 . S
C179 O176 1.259 . S
C180 O177 1.252 . S
C180 O178 1.273 . S
O181 Mg168 2.010 . S
O181 C173 1.249 . S
Mg182 O183 2.028 . S
Mg182 O189 1.986 . S
Mg182 O191 2.114 . S
Mg182 O192 2.251 . S
Mg182 O195 2.010 . S
O183 Mg182 2.028 . S
O183 C186 1.250 . S
O184 Mg185 2.028 . S
O184 C186 1.248 . S
Mg185 O184 2.028 . S
Mg185 O190 2.032 . S
Mg185 O192 2.079 . S
C186 O183 1.250 . S
C186 O184 1.248 . S
C187 O188 1.264 . S
C187 O195 1.249 . S
O188 C187 1.264 . S
O189 Mg182 1.986 . S
O189 C193 1.246 . S
O190 Mg185 2.032 . S
O190 C193 1.259 . S
O191 Mg182 2.114 . S
O191 C194 1.252 . S
O192 Mg182 2.251 . S
O192 Mg185 2.079 . S
O192 C194 1.273 . S
C193 O189 1.246 . S
C193 O190 1.259 . S
C194 O191 1.252 . S
C194 O192 1.273 . S
O195 Mg182 2.010 . S
O195 C187 1.249 . S
Mg196 O197 2.028 . S
Mg196 O203 1.986 . S
Mg196 O205 2.114 . S
Mg196 O206 2.251 . S
Mg196 O209 2.010 . S
O197 Mg196 2.028 . S
O197 C200 1.250 . S
O198 Mg199 2.028 . S
O198 C200 1.248 . S
Mg199 O198 2.028 . S
Mg199 O204 2.032 . S
Mg199 O206 2.079 . S
C200 O197 1.250 . S
C200 O198 1.248 . S
C201 O202 1.264 . S
C201 O209 1.249 . S
O202 C201 1.264 . S
O203 Mg196 1.986 . S
O203 C207 1.246 . S
O204 Mg199 2.032 . S
O204 C207 1.259 . S
O205 Mg196 2.114 . S
O205 C208 1.252 . S
O206 Mg196 2.251 . S
O206 Mg199 2.079 . S
O206 C208 1.273 . S
C207 O203 1.246 . S
C207 O204 1.259 . S
C208 O205 1.252 . S
C208 O206 1.273 . S
O209 Mg196 2.010 . S
O209 C201 1.249 . S
Mg210 O211 2.028 . S
Mg210 O217 1.986 . S
Mg210 O219 2.114 . S
Mg210 O220 2.251 . S
Mg210 O223 2.010 . S
O211 Mg210 2.028 . S
O211 C214 1.250 . S
O212 Mg213 2.028 . S
O212 C214 1.248 . S
Mg213 O212 2.028 . S
Mg213 O218 2.032 . S
Mg213 O220 2.079 . S
C214 O211 1.250 . S
C214 O212 1.248 . S
C215 O216 1.264 . S
C215 O223 1.249 . S
O216 C215 1.264 . S
O217 Mg210 1.986 . S
O217 C221 1.246 . S
O218 Mg213 2.032 . S
O218 C221 1.259 . S
O219 Mg210 2.114 . S
O219 C222 1.252 . S
O220 Mg210 2.251 . S
O220 Mg213 2.079 . S
O220 C222 1.273 . S
C221 O217 1.246 . S
C221 O218 1.259 . S
C222 O219 1.252 . S
C222 O220 1.273 . S
O223 Mg210 2.010 . S
O223 C215 1.249 . S
Mg224 O225 2.028 . S
Mg224 O231 1.986 . S
Mg224 O233 2.114 . S
Mg224 O234 2.251 . S
Mg224 O237 2.010 . S
O225 Mg224 2.028 . S
O225 C228 1.250 . S
O226 Mg227 2.028 . S
O226 C228 1.248 . S
Mg227 O226 2.028 . S
Mg227 O232 2.032 . S
Mg227 O234 2.079 . S
C228 O225 1.250 . S
C228 O226 1.248 . S
C229 O230 1.264 . S
C229 O237 1.249 . S
O230 C229 1.264 . S
O231 Mg224 1.986 . S
O231 C235 1.246 . S
O232 Mg227 2.032 . S
O232 C235 1.259 . S
O233 Mg224 2.114 . S
O233 C236 1.252 . S
O234 Mg224 2.251 . S
O234 Mg227 2.079 . S
O234 C236 1.273 . S
C235 O231 1.246 . S
C235 O232 1.259 . S
C236 O233 1.252 . S
C236 O234 1.273 . S
O237 Mg224 2.010 . S
O237 C229 1.249 . S
Mg238 O239 2.028 . S
Mg238 O245 1.986 . S
Mg238 O247 2.114 . S
Mg238 O248 2.251 . S
Mg238 O251 2.010 . S
O239 Mg238 2.028 . S
O239 C242 1.250 . S
O240 Mg241 2.028 . S
O240 C242 1.248 . S
Mg241 O240 2.028 . S
Mg241 O246 2.032 . S
Mg241 O248 2.079 . S
C242 O239 1.250 . S
C242 O240 1.248 . S
C243 O244 1.264 . S
C243 O251 1.249 . S
O244 C243 1.264 . S
O245 Mg238 1.986 . S
O245 C249 1.246 . S
O246 Mg241 2.032 . S
O246 C249 1.259 . S
O247 Mg238 2.114 . S
O247 C250 1.252 . S
O248 Mg238 2.251 . S
O248 Mg241 2.079 . S
O248 C250 1.273 . S
C249 O245 1.246 . S
C249 O246 1.259 . S
C250 O247 1.252 . S
C250 O248 1.273 . S
O251 Mg238 2.010 . S
O251 C243 1.249 . S
Mg252 O253 2.028 . S
Mg252 O259 1.986 . S
Mg252 O261 2.114 . S
Mg252 O262 2.251 . S
Mg252 O265 2.010 . S
O253 Mg252 2.028 . S
O253 C256 1.250 . S
O254 Mg255 2.028 . S
O254 C256 1.248 . S
Mg255 O254 2.028 . S
Mg255 O260 2.032 . S
Mg255 O262 2.079 . S
C256 O253 1.250 . S
C256 O254 1.248 . S
C257 O258 1.264 . S
C257 O265 1.249 . S
O258 C257 1.264 . S
O259 Mg252 1.986 . S
O259 C263 1.246 . S
O260 Mg255 2.032 . S
O260 C263 1.259 . S
O261 Mg252 2.114 . S
O261 C264 1.252 . S
O262 Mg252 2.251 . S
O262 Mg255 2.079 . S
O262 C264 1.273 . S
C263 O259 1.246 . S
C263 O260 1.259 . S
C264 O261 1.252 . S
C264 O262 1.273 . S
O265 Mg252 2.010 . S
O265 C257 1.249 . S
Mg266 O267 2.028 . S
Mg266 O273 1.986 . S
Mg266 O275 2.114 . S
Mg266 O276 2.251 . S
Mg266 O279 2.010 . S
O267 Mg266 2.028 . S
O267 C270 1.250 . S
O268 Mg269 2.028 . S
O268 C270 1.248 . S
Mg269 O268 2.028 . S
Mg269 O274 2.032 . S
Mg269 O276 2.079 . S
C270 O267 1.250 . S
C270 O268 1.248 . S
C271 O272 1.264 . S
C271 O279 1.249 . S
O272 C271 1.264 . S
O273 Mg266 1.986 . S
O273 C277 1.246 . S
O274 Mg269 2.032 . S
O274 C277 1.259 . S
O275 Mg266 2.114 . S
O275 C278 1.252 . S
O276 Mg266 2.251 . S
O276 Mg269 2.079 . S
O276 C278 1.273 . S
C277 O273 1.246 . S
C277 O274 1.259 . S
C278 O275 1.252 . S
C278 O276 1.273 . S
O279 Mg266 2.010 . S
O279 C271 1.249 . S
Mg280 O281 2.028 . S
Mg280 O287 1.986 . S
Mg280 O289 2.114 . S
Mg280 O290 2.251 . S
Mg280 O293 2.010 . S
O281 Mg280 2.028 . S
O281 C284 1.250 . S
O282 Mg283 2.028 . S
O282 C284 1.248 . S
Mg283 O282 2.028 . S
Mg283 O288 2.032 . S
Mg283 O290 2.079 . S
C284 O281 1.250 . S
C284 O282 1.248 . S
C285 O286 1.264 . S
C285 O293 1.249 . S
O286 C285 1.264 . S
O287 Mg280 1.986 . S
O287 C291 1.246 . S
O288 Mg283 2.032 . S
O288 C291 1.259 . S
O289 Mg280 2.114 . S
O289 C292 1.252 . S
O290 Mg280 2.251 . S
O290 Mg283 2.079 . S
O290 C292 1.273 . S
C291 O287 1.246 . S
C291 O288 1.259 . S
C292 O289 1.252 . S
C292 O290 1.273 . S
O293 Mg280 2.010 . S
O293 C285 1.249 . S
Mg294 O295 2.028 . S
Mg294 O301 1.986 . S
Mg294 O303 2.114 . S
Mg294 O304 2.251 . S
Mg294 O307 2.010 . S
O295 Mg294 2.028 . S
O295 C298 1.250 . S
O296 Mg297 2.028 . S
O296 C298 1.248 . S
Mg297 O296 2.028 . S
Mg297 O302 2.032 . S
Mg297 O304 2.079 . S
C298 O295 1.250 . S
C298 O296 1.248 . S
C299 O300 1.264 . S
C299 O307 1.249 . S
O300 C299 1.264 . S
O301 Mg294 1.986 . S
O301 C305 1.246 . S
O302 Mg297 2.032 . S
O302 C305 1.259 . S
O303 Mg294 2.114 . S
O303 C306 1.252 . S
O304 Mg294 2.251 . S
O304 Mg297 2.079 . S
O304 C306 1.273 . S
C305 O301 1.246 . S
C305 O302 1.259 . S
C306 O303 1.252 . S
C306 O304 1.273 . S
O307 Mg294 2.010 . S
O307 C299 1.249 . S
Mg308 O309 2.028 . S
Mg308 O315 1.986 . S
Mg308 O317 2.114 . S
Mg308 O318 2.251 . S
Mg308 O321 2.010 . S
O309 Mg308 2.028 . S
O309 C312 1.250 . S
O310 Mg311 2.028 . S
O310 C312 1.248 . S
Mg311 O310 2.028 . S
Mg311 O316 2.032 . S
Mg311 O318 2.079 . S
C312 O309 1.250 . S
C312 O310 1.248 . S
C313 O314 1.264 . S
C313 O321 1.249 . S
O314 C313 1.264 . S
O315 Mg308 1.986 . S
O315 C319 1.246 . S
O316 Mg311 2.032 . S
O316 C319 1.259 . S
O317 Mg308 2.114 . S
O317 C320 1.252 . S
O318 Mg308 2.251 . S
O318 Mg311 2.079 . S
O318 C320 1.273 . S
C319 O315 1.246 . S
C319 O316 1.259 . S
C320 O317 1.252 . S
C320 O318 1.273 . S
O321 Mg308 2.010 . S
O321 C313 1.249 . S
Mg322 O323 2.028 . S
Mg322 O329 1.986 . S
Mg322 O331 2.114 . S
Mg322 O332 2.251 . S
Mg322 O335 2.010 . S
O323 Mg322 2.028 . S
O323 C326 1.250 . S
O324 Mg325 2.028 . S
O324 C326 1.248 . S
Mg325 O324 2.028 . S
Mg325 O330 2.032 . S
Mg325 O332 2.079 . S
C326 O323 1.250 . S
C326 O324 1.248 . S
C327 O328 1.264 . S
C327 O335 1.249 . S
O328 C327 1.264 . S
O329 Mg322 1.986 . S
O329 C333 1.246 . S
O330 Mg325 2.032 . S
O330 C333 1.259 . S
O331 Mg322 2.114 . S
O331 C334 1.252 . S
O332 Mg322 2.251 . S
O332 Mg325 2.079 . S
O332 C334 1.273 . S
C333 O329 1.246 . S
C333 O330 1.259 . S
C334 O331 1.252 . S
C334 O332 1.273 . S
O335 Mg322 2.010 . S
O335 C327 1.249 . S
Mg336 O337 2.028 . S
Mg336 O343 1.986 . S
Mg336 O345 2.114 . S
Mg336 O346 2.251 . S
Mg336 O349 2.010 . S
O337 Mg336 2.028 . S
O337 C340 1.250 . S
O338 Mg339 2.028 . S
O338 C340 1.248 . S
Mg339 O338 2.028 . S
Mg339 O344 2.032 . S
Mg339 O346 2.079 . S
C340 O337 1.250 . S
C340 O338 1.248 . S
C341 O342 1.264 . S
C341 O349 1.249 . S
O342 C341 1.264 . S
O343 Mg336 1.986 . S
O343 C347 1.246 . S
O344 Mg339 2.032 . S
O344 C347 1.259 . S
O345 Mg336 2.114 . S
O345 C348 1.252 . S
O346 Mg336 2.251 . S
O346 Mg339 2.079 . S
O346 C348 1.273 . S
C347 O343 1.246 . S
C347 O344 1.259 . S
C348 O345 1.252 . S
C348 O346 1.273 . S
O349 Mg336 2.010 . S
O349 C341 1.249 . S
Mg350 O351 2.028 . S
Mg350 O357 1.986 . S
Mg350 O359 2.114 . S
Mg350 O360 2.251 . S
Mg350 O363 2.010 . S
O351 Mg350 2.028 . S
O351 C354 1.250 . S
O352 Mg353 2.028 . S
O352 C354 1.248 . S
Mg353 O352 2.028 . S
Mg353 O358 2.032 . S
Mg353 O360 2.079 . S
C354 O351 1.250 . S
C354 O352 1.248 . S
C355 O356 1.264 . S
C355 O363 1.249 . S
O356 C355 1.264 . S
O357 Mg350 1.986 . S
O357 C361 1.246 . S
O358 Mg353 2.032 . S
O358 C361 1.259 . S
O359 Mg350 2.114 . S
O359 C362 1.252 . S
O360 Mg350 2.251 . S
O360 Mg353 2.079 . S
O360 C362 1.273 . S
C361 O357 1.246 . S
C361 O358 1.259 . S
C362 O359 1.252 . S
C362 O360 1.273 . S
O363 Mg350 2.010 . S
O363 C355 1.249 . S
Mg364 O365 2.028 . S
Mg364 O371 1.986 . S
Mg364 O373 2.114 . S
Mg364 O374 2.251 . S
Mg364 O377 2.010 . S
O365 Mg364 2.028 . S
O365 C368 1.250 . S
O366 Mg367 2.028 . S
O366 C368 1.248 . S
Mg367 O366 2.028 . S
Mg367 O372 2.032 . S
Mg367 O374 2.079 . S
C368 O365 1.250 . S
C368 O366 1.248 . S
C369 O370 1.264 . S
C369 O377 1.249 . S
O370 C369 1.264 . S
O371 Mg364 1.986 . S
O371 C375 1.246 . S
O372 Mg367 2.032 . S
O372 C375 1.259 . S
O373 Mg364 2.114 . S
O373 C376 1.252 . S
O374 Mg364 2.251 . S
O374 Mg367 2.079 . S
O374 C376 1.273 . S
C375 O371 1.246 . S
C375 O372 1.259 . S
C376 O373 1.252 . S
C376 O374 1.273 . S
O377 Mg364 2.010 . S
O377 C369 1.249 . S
Mg378 O379 2.028 . S
Mg378 O385 1.986 . S
Mg378 O387 2.114 . S
Mg378 O388 2.251 . S
Mg378 O391 2.010 . S
O379 Mg378 2.028 . S
O379 C382 1.250 . S
O380 Mg381 2.028 . S
O380 C382 1.248 . S
Mg381 O380 2.028 . S
Mg381 O386 2.032 . S
Mg381 O388 2.079 . S
C382 O379 1.250 . S
C382 O380 1.248 . S
C383 O384 1.264 . S
C383 O391 1.249 . S
O384 C383 1.264 . S
O385 Mg378 1.986 . S
O385 C389 1.246 . S
O386 Mg381 2.032 . S
O386 C389 1.259 . S
O387 Mg378 2.114 . S
O387 C390 1.252 . S
O388 Mg378 2.251 . S
O388 Mg381 2.079 . S
O388 C390 1.273 . S
C389 O385 1.246 . S
C389 O386 1.259 . S
C390 O387 1.252 . S
C390 O388 1.273 . S
O391 Mg378 2.010 . S
O391 C383 1.249 . S
Mg392 O393 2.028 . S
Mg392 O399 1.986 . S
Mg392 O401 2.114 . S
Mg392 O402 2.251 . S
Mg392 O405 2.010 . S
O393 Mg392 2.028 . S
O393 C396 1.250 . S
O394 Mg395 2.028 . S
O394 C396 1.248 . S
Mg395 O394 2.028 . S
Mg395 O400 2.032 . S
Mg395 O402 2.079 . S
C396 O393 1.250 . S
C396 O394 1.248 . S
C397 O398 1.264 . S
C397 O405 1.249 . S
O398 C397 1.264 . S
O399 Mg392 1.986 . S
O399 C403 1.246 . S
O400 Mg395 2.032 . S
O400 C403 1.259 . S
O401 Mg392 2.114 . S
O401 C404 1.252 . S
O402 Mg392 2.251 . S
O402 Mg395 2.079 . S
O402 C404 1.273 . S
C403 O399 1.246 . S
C403 O400 1.259 . S
C404 O401 1.252 . S
C404 O402 1.273 . S
O405 Mg392 2.010 . S
O405 C397 1.249 . S
Mg406 O407 2.028 . S
Mg406 O413 1.986 . S
Mg406 O415 2.114 . S
Mg406 O416 2.251 . S
Mg406 O419 2.010 . S
O407 Mg406 2.028 . S
O407 C410 1.250 . S
O408 Mg409 2.028 . S
O408 C410 1.248 . S
Mg409 O408 2.028 . S
Mg409 O414 2.032 . S
Mg409 O416 2.079 . S
C410 O407 1.250 . S
C410 O408 1.248 . S
C411 O412 1.264 . S
C411 O419 1.249 . S
O412 C411 1.264 . S
O413 Mg406 1.986 . S
O413 C417 1.246 . S
O414 Mg409 2.032 . S
O414 C417 1.259 . S
O415 Mg406 2.114 . S
O415 C418 1.252 . S
O416 Mg406 2.251 . S
O416 Mg409 2.079 . S
O416 C418 1.273 . S
C417 O413 1.246 . S
C417 O414 1.259 . S
C418 O415 1.252 . S
C418 O416 1.273 . S
O419 Mg406 2.010 . S
O419 C411 1.249 . S
Mg420 O421 2.028 . S
Mg420 O427 1.986 . S
Mg420 O429 2.114 . S
Mg420 O430 2.251 . S
Mg420 O433 2.010 . S
O421 Mg420 2.028 . S
O421 C424 1.250 . S
O422 Mg423 2.028 . S
O422 C424 1.248 . S
Mg423 O422 2.028 . S
Mg423 O428 2.032 . S
Mg423 O430 2.079 . S
C424 O421 1.250 . S
C424 O422 1.248 . S
C425 O426 1.264 . S
C425 O433 1.249 . S
O426 C425 1.264 . S
O427 Mg420 1.986 . S
O427 C431 1.246 . S
O428 Mg423 2.032 . S
O428 C431 1.259 . S
O429 Mg420 2.114 . S
O429 C432 1.252 . S
O430 Mg420 2.251 . S
O430 Mg423 2.079 . S
O430 C432 1.273 . S
C431 O427 1.246 . S
C431 O428 1.259 . S
C432 O429 1.252 . S
C432 O430 1.273 . S
O433 Mg420 2.010 . S
O433 C425 1.249 . S
Mg434 O435 2.028 . S
Mg434 O441 1.986 . S
Mg434 O443 2.114 . S
Mg434 O444 2.251 . S
Mg434 O447 2.010 . S
O435 Mg434 2.028 . S
O435 C438 1.250 . S
O436 Mg437 2.028 . S
O436 C438 1.248 . S
Mg437 O436 2.028 . S
Mg437 O442 2.032 . S
Mg437 O444 2.079 . S
C438 O435 1.250 . S
C438 O436 1.248 . S
C439 O440 1.264 . S
C439 O447 1.249 . S
O440 C439 1.264 . S
O441 Mg434 1.986 . S
O441 C445 1.246 . S
O442 Mg437 2.032 . S
O442 C445 1.259 . S
O443 Mg434 2.114 . S
O443 C446 1.252 . S
O444 Mg434 2.251 . S
O444 Mg437 2.079 . S
O444 C446 1.273 . S
C445 O441 1.246 . S
C445 O442 1.259 . S
C446 O443 1.252 . S
C446 O444 1.273 . S
O447 Mg434 2.010 . S
O447 C439 1.249 . S
H448 C454 0.930 . S
H449 C458 0.930 . S
H450 C463 0.929 . S
H451 C461 0.929 . S
H452 C456 0.929 . S
H453 C462 0.929 . S
C454 H448 0.930 . S
C454 C455 1.367 . S
C454 C462 1.378 . S
C455 C454 1.367 . S
C455 C463 1.433 . S
C456 H452 0.929 . S
C456 C458 1.378 . S
C456 C460 1.350 . S
C457 C460 1.463 . S
C457 C462 1.350 . S
C457 N465 1.427 . S
C458 H449 0.930 . S
C458 C456 1.378 . S
C458 C459 1.367 . S
C459 C458 1.367 . S
C459 C461 1.433 . S
C460 C456 1.350 . S
C460 C457 1.463 . S
C460 N464 1.427 . S
C461 H451 0.929 . S
C461 C459 1.433 . S
C461 N464 1.384 . S
C462 H453 0.929 . S
C462 C454 1.378 . S
C462 C457 1.350 . S
C463 H450 0.929 . S
C463 C455 1.433 . S
C463 N465 1.384 . S
N464 C460 1.427 . S
N464 C461 1.384 . S
N465 C457 1.427 . S
N465 C463 1.384 . S
H466 C472 0.930 . S
H467 C476 0.930 . S
H468 C481 0.929 . S
H469 C479 0.929 . S
H470 C474 0.929 . S
H471 C480 0.929 . S
C472 H466 0.930 . S
C472 C473 1.367 . S
C472 C480 1.378 . S
C473 C472 1.367 . S
C473 C481 1.433 . S
C474 H470 0.929 . S
C474 C476 1.378 . S
C474 C478 1.350 . S
C475 C478 1.463 . S
C475 C480 1.350 . S
C475 N483 1.427 . S
C476 H467 0.930 . S
C476 C474 1.378 . S
C476 C477 1.367 . S
C477 C476 1.367 . S
C477 C479 1.433 . S
C478 C474 1.350 . S
C478 C475 1.463 . S
C478 N482 1.427 . S
C479 H469 0.929 . S
C479 C477 1.433 . S
C479 N482 1.384 . S
C480 H471 0.929 . S
C480 C472 1.378 . S
C480 C475 1.350 . S
C481 H468 0.929 . S
C481 C473 1.433 . S
C481 N483 1.384 . S
N482 C478 1.427 . S
N482 C479 1.384 . S
N483 C475 1.427 . S
N483 C481 1.384 . S
H484 C490 0.930 . S
H485 C494 0.930 . S
H486 C499 0.929 . S
H487 C497 0.929 . S
H488 C492 0.929 . S
H489 C498 0.929 . S
C490 H484 0.930 . S
C490 C491 1.367 . S
C490 C498 1.378 . S
C491 C490 1.367 . S
C491 C499 1.433 . S
C492 H488 0.929 . S
C492 C494 1.378 . S
C492 C496 1.350 . S
C493 C496 1.463 . S
C493 C498 1.350 . S
C493 N501 1.427 . S
C494 H485 0.930 . S
C494 C492 1.378 . S
C494 C495 1.367 . S
C495 C494 1.367 . S
C495 C497 1.433 . S
C496 C492 1.350 . S
C496 C493 1.463 . S
C496 N500 1.427 . S
C497 H487 0.929 . S
C497 C495 1.433 . S
C497 N500 1.384 . S
C498 H489 0.929 . S
C498 C490 1.378 . S
C498 C493 1.350 . S
C499 H486 0.929 . S
C499 C491 1.433 . S
C499 N501 1.384 . S
N500 C496 1.427 . S
N500 C497 1.384 . S
N501 C493 1.427 . S
N501 C499 1.384 . S
H502 C508 0.930 . S
H503 C512 0.930 . S
H504 C517 0.929 . S
H505 C515 0.929 . S
H506 C510 0.929 . S
H507 C516 0.929 . S
C508 H502 0.930 . S
C508 C509 1.367 . S
C508 C516 1.378 . S
C509 C508 1.367 . S
C509 C517 1.433 . S
C510 H506 0.929 . S
C510 C512 1.378 . S
C510 C514 1.350 . S
C511 C514 1.463 . S
C511 C516 1.350 . S
C511 N519 1.427 . S
C512 H503 0.930 . S
C512 C510 1.378 . S
C512 C513 1.367 . S
C513 C512 1.367 . S
C513 C515 1.433 . S
C514 C510 1.350 . S
C514 C511 1.463 . S
C514 N518 1.427 . S
C515 H505 0.929 . S
C515 C513 1.433 . S
C515 N518 1.384 . S
C516 H507 0.929 . S
C516 C508 1.378 . S
C516 C511 1.350 . S
C517 H504 0.929 . S
C517 C509 1.433 . S
C517 N519 1.384 . S
N518 C514 1.427 . S
N518 C515 1.384 . S
N519 C511 1.427 . S
N519 C517 1.384 . S
H520 C526 0.930 . S
H521 C530 0.930 . S
H522 C535 0.929 . S
H523 C533 0.929 . S
H524 C528 0.929 . S
H525 C534 0.929 . S
C526 H520 0.930 . S
C526 C527 1.367 . S
C526 C534 1.378 . S
C527 C526 1.367 . S
C527 C535 1.433 . S
C528 H524 0.929 . S
C528 C530 1.378 . S
C528 C532 1.350 . S
C529 C532 1.463 . S
C529 C534 1.350 . S
C529 N537 1.427 . S
C530 H521 0.930 . S
C530 C528 1.378 . S
C530 C531 1.367 . S
C531 C530 1.367 . S
C531 C533 1.433 . S
C532 C528 1.350 . S
C532 C529 1.463 . S
C532 N536 1.427 . S
C533 H523 0.929 . S
C533 C531 1.433 . S
C533 N536 1.384 . S
C534 H525 0.929 . S
C534 C526 1.378 . S
C534 C529 1.350 . S
C535 H522 0.929 . S
C535 C527 1.433 . S
C535 N537 1.384 . S
N536 C532 1.427 . S
N536 C533 1.384 . S
N537 C529 1.427 . S
N537 C535 1.384 . S
H538 C544 0.930 . S
H539 C548 0.930 . S
H540 C553 0.929 . S
H541 C551 0.929 . S
H542 C546 0.929 . S
H543 C552 0.929 . S
C544 H538 0.930 . S
C544 C545 1.367 . S
C544 C552 1.378 . S
C545 C544 1.367 . S
C545 C553 1.433 . S
C546 H542 0.929 . S
C546 C548 1.378 . S
C546 C550 1.350 . S
C547 C550 1.463 . S
C547 C552 1.350 . S
C547 N555 1.427 . S
C548 H539 0.930 . S
C548 C546 1.378 . S
C548 C549 1.367 . S
C549 C548 1.367 . S
C549 C551 1.433 . S
C550 C546 1.350 . S
C550 C547 1.463 . S
C550 N554 1.427 . S
C551 H541 0.929 . S
C551 C549 1.433 . S
C551 N554 1.384 . S
C552 H543 0.929 . S
C552 C544 1.378 . S
C552 C547 1.350 . S
C553 H540 0.929 . S
C553 C545 1.433 . S
C553 N555 1.384 . S
N554 C550 1.427 . S
N554 C551 1.384 . S
N555 C547 1.427 . S
N555 C553 1.384 . S
H556 C562 0.930 . S
H557 C566 0.930 . S
H558 C571 0.929 . S
H559 C569 0.929 . S
H560 C564 0.929 . S
H561 C570 0.929 . S
C562 H556 0.930 . S
C562 C563 1.367 . S
C562 C570 1.378 . S
C563 C562 1.367 . S
C563 C571 1.433 . S
C564 H560 0.929 . S
C564 C566 1.378 . S
C564 C568 1.350 . S
C565 C568 1.463 . S
C565 C570 1.350 . S
C565 N573 1.427 . S
C566 H557 0.930 . S
C566 C564 1.378 . S
C566 C567 1.367 . S
C567 C566 1.367 . S
C567 C569 1.433 . S
C568 C564 1.350 . S
C568 C565 1.463 . S
C568 N572 1.427 . S
C569 H559 0.929 . S
C569 C567 1.433 . S
C569 N572 1.384 . S
C570 H561 0.929 . S
C570 C562 1.378 . S
C570 C565 1.350 . S
C571 H558 0.929 . S
C571 C563 1.433 . S
C571 N573 1.384 . S
N572 C568 1.427 . S
N572 C569 1.384 . S
N573 C565 1.427 . S
N573 C571 1.384 . S
H574 C580 0.930 . S
H575 C584 0.930 . S
H576 C589 0.929 . S
H577 C587 0.929 . S
H578 C582 0.929 . S
H579 C588 0.929 . S
C580 H574 0.930 . S
C580 C581 1.367 . S
C580 C588 1.378 . S
C581 C580 1.367 . S
C581 C589 1.433 . S
C582 H578 0.929 . S
C582 C584 1.378 . S
C582 C586 1.350 . S
C583 C586 1.463 . S
C583 C588 1.350 . S
C583 N591 1.427 . S
C584 H575 0.930 . S
C584 C582 1.378 . S
C584 C585 1.367 . S
C585 C584 1.367 . S
C585 C587 1.433 . S
C586 C582 1.350 . S
C586 C583 1.463 . S
C586 N590 1.427 . S
C587 H577 0.929 . S
C587 C585 1.433 . S
C587 N590 1.384 . S
C588 H579 0.929 . S
C588 C580 1.378 . S
C588 C583 1.350 . S
C589 H576 0.929 . S
C589 C581 1.433 . S
C589 N591 1.384 . S
N590 C586 1.427 . S
N590 C587 1.384 . S
N591 C583 1.427 . S
N591 C589 1.384 . S
H592 C598 0.930 . S
H593 C602 0.930 . S
H594 C607 0.929 . S
H595 C605 0.929 . S
H596 C600 0.929 . S
H597 C606 0.929 . S
C598 H592 0.930 . S
C598 C599 1.367 . S
C598 C606 1.378 . S
C599 C598 1.367 . S
C599 C607 1.433 . S
C600 H596 0.929 . S
C600 C602 1.378 . S
C600 C604 1.350 . S
C601 C604 1.463 . S
C601 C606 1.350 . S
C601 N609 1.427 . S
C602 H593 0.930 . S
C602 C600 1.378 . S
C602 C603 1.367 . S
C603 C602 1.367 . S
C603 C605 1.433 . S
C604 C600 1.350 . S
C604 C601 1.463 . S
C604 N608 1.427 . S
C605 H595 0.929 . S
C605 C603 1.433 . S
C605 N608 1.384 . S
C606 H597 0.929 . S
C606 C598 1.378 . S
C606 C601 1.350 . S
C607 H594 0.929 . S
C607 C599 1.433 . S
C607 N609 1.384 . S
N608 C604 1.427 . S
N608 C605 1.384 . S
N609 C601 1.427 . S
N609 C607 1.384 . S
H610 C616 0.930 . S
H611 C620 0.930 . S
H612 C625 0.929 . S
H613 C623 0.929 . S
H614 C618 0.929 . S
H615 C624 0.929 . S
C616 H610 0.930 . S
C616 C617 1.367 . S
C616 C624 1.378 . S
C617 C616 1.367 . S
C617 C625 1.433 . S
C618 H614 0.929 . S
C618 C620 1.378 . S
C618 C622 1.350 . S
C619 C622 1.463 . S
C619 C624 1.350 . S
C619 N627 1.427 . S
C620 H611 0.930 . S
C620 C618 1.378 . S
C620 C621 1.367 . S
C621 C620 1.367 . S
C621 C623 1.433 . S
C622 C618 1.350 . S
C622 C619 1.463 . S
C622 N626 1.427 . S
C623 H613 0.929 . S
C623 C621 1.433 . S
C623 N626 1.384 . S
C624 H615 0.929 . S
C624 C616 1.378 . S
C624 C619 1.350 . S
C625 H612 0.929 . S
C625 C617 1.433 . S
C625 N627 1.384 . S
N626 C622 1.427 . S
N626 C623 1.384 . S
N627 C619 1.427 . S
N627 C625 1.384 . S
H628 C634 0.930 . S
H629 C638 0.930 . S
H630 C643 0.929 . S
H631 C641 0.929 . S
H632 C636 0.929 . S
H633 C642 0.929 . S
C634 H628 0.930 . S
C634 C635 1.367 . S
C634 C642 1.378 . S
C635 C634 1.367 . S
C635 C643 1.433 . S
C636 H632 0.929 . S
C636 C638 1.378 . S
C636 C640 1.350 . S
C637 C640 1.463 . S
C637 C642 1.350 . S
C637 N645 1.427 . S
C638 H629 0.930 . S
C638 C636 1.378 . S
C638 C639 1.367 . S
C639 C638 1.367 . S
C639 C641 1.433 . S
C640 C636 1.350 . S
C640 C637 1.463 . S
C640 N644 1.427 . S
C641 H631 0.929 . S
C641 C639 1.433 . S
C641 N644 1.384 . S
C642 H633 0.929 . S
C642 C634 1.378 . S
C642 C637 1.350 . S
C643 H630 0.929 . S
C643 C635 1.433 . S
C643 N645 1.384 . S
N644 C640 1.427 . S
N644 C641 1.384 . S
N645 C637 1.427 . S
N645 C643 1.384 . S
H646 C652 0.930 . S
H647 C656 0.930 . S
H648 C661 0.929 . S
H649 C659 0.929 . S
H650 C654 0.929 . S
H651 C660 0.929 . S
C652 H646 0.930 . S
C652 C653 1.367 . S
C652 C660 1.378 . S
C653 C652 1.367 . S
C653 C661 1.433 . S
C654 H650 0.929 . S
C654 C656 1.378 . S
C654 C658 1.350 . S
C655 C658 1.463 . S
C655 C660 1.350 . S
C655 N663 1.427 . S
C656 H647 0.930 . S
C656 C654 1.378 . S
C656 C657 1.367 . S
C657 C656 1.367 . S
C657 C659 1.433 . S
C658 C654 1.350 . S
C658 C655 1.463 . S
C658 N662 1.427 . S
C659 H649 0.929 . S
C659 C657 1.433 . S
C659 N662 1.384 . S
C660 H651 0.929 . S
C660 C652 1.378 . S
C660 C655 1.350 . S
C661 H648 0.929 . S
C661 C653 1.433 . S
C661 N663 1.384 . S
N662 C658 1.427 . S
N662 C659 1.384 . S
N663 C655 1.427 . S
N663 C661 1.384 . S
H664 C670 0.930 . S
H665 C674 0.930 . S
H666 C679 0.929 . S
H667 C677 0.929 . S
H668 C672 0.929 . S
H669 C678 0.929 . S
C670 H664 0.930 . S
C670 C671 1.367 . S
C670 C678 1.378 . S
C671 C670 1.367 . S
C671 C679 1.433 . S
C672 H668 0.929 . S
C672 C674 1.378 . S
C672 C676 1.350 . S
C673 C676 1.463 . S
C673 C678 1.350 . S
C673 N681 1.427 . S
C674 H665 0.930 . S
C674 C672 1.378 . S
C674 C675 1.367 . S
C675 C674 1.367 . S
C675 C677 1.433 . S
C676 C672 1.350 . S
C676 C673 1.463 . S
C676 N680 1.427 . S
C677 H667 0.929 . S
C677 C675 1.433 . S
C677 N680 1.384 . S
C678 H669 0.929 . S
C678 C670 1.378 . S
C678 C673 1.350 . S
C679 H666 0.929 . S
C679 C671 1.433 . S
C679 N681 1.384 . S
N680 C676 1.427 . S
N680 C677 1.384 . S
N681 C673 1.427 . S
N681 C679 1.384 . S
H682 C688 0.930 . S
H683 C692 0.930 . S
H684 C697 0.929 . S
H685 C695 0.929 . S
H686 C690 0.929 . S
H687 C696 0.929 . S
C688 H682 0.930 . S
C688 C689 1.367 . S
C688 C696 1.378 . S
C689 C688 1.367 . S
C689 C697 1.433 . S
C690 H686 0.929 . S
C690 C692 1.378 . S
C690 C694 1.350 . S
C691 C694 1.463 . S
C691 C696 1.350 . S
C691 N699 1.427 . S
C692 H683 0.930 . S
C692 C690 1.378 . S
C692 C693 1.367 . S
C693 C692 1.367 . S
C693 C695 1.433 . S
C694 C690 1.350 . S
C694 C691 1.463 . S
C694 N698 1.427 . S
C695 H685 0.929 . S
C695 C693 1.433 . S
C695 N698 1.384 . S
C696 H687 0.929 . S
C696 C688 1.378 . S
C696 C691 1.350 . S
C697 H684 0.929 . S
C697 C689 1.433 . S
C697 N699 1.384 . S
N698 C694 1.427 . S
N698 C695 1.384 . S
N699 C691 1.427 . S
N699 C697 1.384 . S
H700 C706 0.930 . S
H701 C710 0.930 . S
H702 C715 0.929 . S
H703 C713 0.929 . S
H704 C708 0.929 . S
H705 C714 0.929 . S
C706 H700 0.930 . S
C706 C707 1.367 . S
C706 C714 1.378 . S
C707 C706 1.367 . S
C707 C715 1.433 . S
C708 H704 0.929 . S
C708 C710 1.378 . S
C708 C712 1.350 . S
C709 C712 1.463 . S
C709 C714 1.350 . S
C709 N717 1.427 . S
C710 H701 0.930 . S
C710 C708 1.378 . S
C710 C711 1.367 . S
C711 C710 1.367 . S
C711 C713 1.433 . S
C712 C708 1.350 . S
C712 C709 1.463 . S
C712 N716 1.427 . S
C713 H703 0.929 . S
C713 C711 1.433 . S
C713 N716 1.384 . S
C714 H705 0.929 . S
C714 C706 1.378 . S
C714 C709 1.350 . S
C715 H702 0.929 . S
C715 C707 1.433 . S
C715 N717 1.384 . S
N716 C712 1.427 . S
N716 C713 1.384 . S
N717 C709 1.427 . S
N717 C715 1.384 . S
H718 C724 0.930 . S
H719 C728 0.930 . S
H720 C733 0.929 . S
H721 C731 0.929 . S
H722 C726 0.929 . S
H723 C732 0.929 . S
C724 H718 0.930 . S
C724 C725 1.367 . S
C724 C732 1.378 . S
C725 C724 1.367 . S
C725 C733 1.433 . S
C726 H722 0.929 . S
C726 C728 1.378 . S
C726 C730 1.350 . S
C727 C730 1.463 . S
C727 C732 1.350 . S
C727 N735 1.427 . S
C728 H719 0.930 . S
C728 C726 1.378 . S
C728 C729 1.367 . S
C729 C728 1.367 . S
C729 C731 1.433 . S
C730 C726 1.350 . S
C730 C727 1.463 . S
C730 N734 1.427 . S
C731 H721 0.929 . S
C731 C729 1.433 . S
C731 N734 1.384 . S
C732 H723 0.929 . S
C732 C724 1.378 . S
C732 C727 1.350 . S
C733 H720 0.929 . S
C733 C725 1.433 . S
C733 N735 1.384 . S
N734 C730 1.427 . S
N734 C731 1.384 . S
N735 C727 1.427 . S
N735 C733 1.384 . S
H736 C742 0.930 . S
H737 C746 0.930 . S
H738 C751 0.929 . S
H739 C749 0.929 . S
H740 C744 0.929 . S
H741 C750 0.929 . S
C742 H736 0.930 . S
C742 C743 1.367 . S
C742 C750 1.378 . S
C743 C742 1.367 . S
C743 C751 1.433 . S
C744 H740 0.929 . S
C744 C746 1.378 . S
C744 C748 1.350 . S
C745 C748 1.463 1_655 S
C745 C750 1.350 . S
C745 N753 1.427 . S
C746 H737 0.930 . S
C746 C744 1.378 . S
C746 C747 1.367 . S
C747 C746 1.367 . S
C747 C749 1.433 . S
C748 C744 1.350 . S
C748 C745 1.463 1_455 S
C748 N752 1.427 . S
C749 H739 0.929 . S
C749 C747 1.433 . S
C749 N752 1.384 . S
C750 H741 0.929 . S
C750 C742 1.378 . S
C750 C745 1.350 . S
C751 H738 0.929 . S
C751 C743 1.433 . S
C751 N753 1.384 . S
N752 C748 1.427 . S
N752 C749 1.384 . S
N753 C745 1.427 . S
N753 C751 1.384 . S
H754 C760 0.930 . S
H755 C764 0.930 . S
H756 C769 0.929 . S
H757 C767 0.929 . S
H758 C762 0.929 . S
H759 C768 0.929 . S
C760 H754 0.930 . S
C760 C761 1.367 . S
C760 C768 1.378 . S
C761 C760 1.367 . S
C761 C769 1.433 . S
C762 H758 0.929 . S
C762 C764 1.378 . S
C762 C766 1.350 . S
C763 C766 1.463 1_545 S
C763 C768 1.350 . S
C763 N771 1.427 . S
C764 H755 0.930 . S
C764 C762 1.378 . S
C764 C765 1.367 . S
C765 C764 1.367 . S
C765 C767 1.433 . S
C766 C762 1.350 . S
C766 C763 1.463 1_565 S
C766 N770 1.427 . S
C767 H757 0.929 . S
C767 C765 1.433 . S
C767 N770 1.384 . S
C768 H759 0.929 . S
C768 C760 1.378 . S
C768 C763 1.350 . S
C769 H756 0.929 . S
C769 C761 1.433 . S
C769 N771 1.384 . S
N770 C766 1.427 . S
N770 C767 1.384 . S
N771 C763 1.427 . S
N771 C769 1.384 . S
H772 C778 0.930 . S
H773 C782 0.930 . S
H774 C787 0.929 . S
H775 C785 0.929 . S
H776 C780 0.929 . S
H777 C786 0.929 . S
C778 H772 0.930 . S
C778 C779 1.367 . S
C778 C786 1.378 . S
C779 C778 1.367 . S
C779 C787 1.433 . S
C780 H776 0.929 . S
C780 C782 1.378 . S
C780 C784 1.350 . S
C781 C784 1.463 1_455 S
C781 C786 1.350 . S
C781 N789 1.427 . S
C782 H773 0.930 . S
C782 C780 1.378 . S
C782 C783 1.367 . S
C783 C782 1.367 . S
C783 C785 1.433 . S
C784 C780 1.350 . S
C784 C781 1.463 1_655 S
C784 N788 1.427 . S
C785 H775 0.929 . S
C785 C783 1.433 . S
C785 N788 1.384 . S
C786 H777 0.929 . S
C786 C778 1.378 . S
C786 C781 1.350 . S
C787 H774 0.929 . S
C787 C779 1.433 . S
C787 N789 1.384 . S
N788 C784 1.427 . S
N788 C785 1.384 . S
N789 C781 1.427 . S
N789 C787 1.384 . S
H790 C796 0.930 . S
H791 C800 0.930 . S
H792 C805 0.929 . S
H793 C803 0.929 . S
H794 C798 0.929 . S
H795 C804 0.929 . S
C796 H790 0.930 . S
C796 C797 1.367 . S
C796 C804 1.378 . S
C797 C796 1.367 . S
C797 C805 1.433 . S
C798 H794 0.929 . S
C798 C800 1.378 . S
C798 C802 1.350 . S
C799 C802 1.463 1_565 S
C799 C804 1.350 . S
C799 N807 1.427 . S
C800 H791 0.930 . S
C800 C798 1.378 . S
C800 C801 1.367 . S
C801 C800 1.367 . S
C801 C803 1.433 . S
C802 C798 1.350 . S
C802 C799 1.463 1_545 S
C802 N806 1.427 . S
C803 H793 0.929 . S
C803 C801 1.433 . S
C803 N806 1.384 . S
C804 H795 0.929 . S
C804 C796 1.378 . S
C804 C799 1.350 . S
C805 H792 0.929 . S
C805 C797 1.433 . S
C805 N807 1.384 . S
N806 C802 1.427 . S
N806 C803 1.384 . S
N807 C799 1.427 . S
N807 C805 1.384 . S
H808 C814 0.930 . S
H809 C818 0.930 . S
H810 C823 0.929 . S
H811 C821 0.929 . S
H812 C816 0.929 . S
H813 C822 0.929 . S
C814 H808 0.930 . S
C814 C815 1.367 . S
C814 C822 1.378 . S
C815 C814 1.367 . S
C815 C823 1.433 . S
C816 H812 0.929 . S
C816 C818 1.378 . S
C816 C820 1.350 . S
C817 C820 1.463 1_455 S
C817 C822 1.350 . S
C817 N825 1.427 . S
C818 H809 0.930 . S
C818 C816 1.378 . S
C818 C819 1.367 . S
C819 C818 1.367 . S
C819 C821 1.433 . S
C820 C816 1.350 . S
C820 C817 1.463 1_655 S
C820 N824 1.427 . S
C821 H811 0.929 . S
C821 C819 1.433 . S
C821 N824 1.384 . S
C822 H813 0.929 . S
C822 C814 1.378 . S
C822 C817 1.350 . S
C823 H810 0.929 . S
C823 C815 1.433 . S
C823 N825 1.384 . S
N824 C820 1.427 . S
N824 C821 1.384 . S
N825 C817 1.427 . S
N825 C823 1.384 . S
H826 C832 0.930 . S
H827 C836 0.930 . S
H828 C841 0.929 . S
H829 C839 0.929 . S
H830 C834 0.929 . S
H831 C840 0.929 . S
C832 H826 0.930 . S
C832 C833 1.367 . S
C832 C840 1.378 . S
C833 C832 1.367 . S
C833 C841 1.433 . S
C834 H830 0.929 . S
C834 C836 1.378 . S
C834 C838 1.350 . S
C835 C838 1.463 1_565 S
C835 C840 1.350 . S
C835 N843 1.427 . S
C836 H827 0.930 . S
C836 C834 1.378 . S
C836 C837 1.367 . S
C837 C836 1.367 . S
C837 C839 1.433 . S
C838 C834 1.350 . S
C838 C835 1.463 1_545 S
C838 N842 1.427 . S
C839 H829 0.929 . S
C839 C837 1.433 . S
C839 N842 1.384 . S
C840 H831 0.929 . S
C840 C832 1.378 . S
C840 C835 1.350 . S
C841 H828 0.929 . S
C841 C833 1.433 . S
C841 N843 1.384 . S
N842 C838 1.427 . S
N842 C839 1.384 . S
N843 C835 1.427 . S
N843 C841 1.384 . S
H844 C850 0.930 . S
H845 C854 0.930 . S
H846 C859 0.929 . S
H847 C857 0.929 . S
H848 C852 0.929 . S
H849 C858 0.929 . S
C850 H844 0.930 . S
C850 C851 1.367 . S
C850 C858 1.378 . S
C851 C850 1.367 . S
C851 C859 1.433 . S
C852 H848 0.929 . S
C852 C854 1.378 . S
C852 C856 1.350 . S
C853 C856 1.463 1_455 S
C853 C858 1.350 . S
C853 N861 1.427 . S
C854 H845 0.930 . S
C854 C852 1.378 . S
C854 C855 1.367 . S
C855 C854 1.367 . S
C855 C857 1.433 . S
C856 C852 1.350 . S
C856 C853 1.463 1_655 S
C856 N860 1.427 . S
C857 H847 0.929 . S
C857 C855 1.433 . S
C857 N860 1.384 . S
C858 H849 0.929 . S
C858 C850 1.378 . S
C858 C853 1.350 . S
C859 H846 0.929 . S
C859 C851 1.433 . S
C859 N861 1.384 . S
N860 C856 1.427 . S
N860 C857 1.384 . S
N861 C853 1.427 . S
N861 C859 1.384 . S
H862 C868 0.930 . S
H863 C872 0.930 . S
H864 C877 0.929 . S
H865 C875 0.929 . S
H866 C870 0.929 . S
H867 C876 0.929 . S
C868 H862 0.930 . S
C868 C869 1.367 . S
C868 C876 1.378 . S
C869 C868 1.367 . S
C869 C877 1.433 . S
C870 H866 0.929 . S
C870 C872 1.378 . S
C870 C874 1.350 . S
C871 C874 1.463 1_545 S
C871 C876 1.350 . S
C871 N879 1.427 . S
C872 H863 0.930 . S
C872 C870 1.378 . S
C872 C873 1.367 . S
C873 C872 1.367 . S
C873 C875 1.433 . S
C874 C870 1.350 . S
C874 C871 1.463 1_565 S
C874 N878 1.427 . S
C875 H865 0.929 . S
C875 C873 1.433 . S
C875 N878 1.384 . S
C876 H867 0.929 . S
C876 C868 1.378 . S
C876 C871 1.350 . S
C877 H864 0.929 . S
C877 C869 1.433 . S
C877 N879 1.384 . S
N878 C874 1.427 . S
N878 C875 1.384 . S
N879 C871 1.427 . S
N879 C877 1.384 . S
H880 C886 0.930 . S
H881 C890 0.930 . S
H882 C895 0.929 . S
H883 C893 0.929 . S
H884 C888 0.929 . S
H885 C894 0.929 . S
C886 H880 0.930 . S
C886 C887 1.367 . S
C886 C894 1.378 . S
C887 C886 1.367 . S
C887 C895 1.433 . S
C888 H884 0.929 . S
C888 C890 1.378 . S
C888 C892 1.350 . S
C889 C892 1.463 . S
C889 C894 1.350 . S
C889 N897 1.427 . S
C890 H881 0.930 . S
C890 C888 1.378 . S
C890 C891 1.367 . S
C891 C890 1.367 . S
C891 C893 1.433 . S
C892 C888 1.350 . S
C892 C889 1.463 . S
C892 N896 1.427 . S
C893 H883 0.929 . S
C893 C891 1.433 . S
C893 N896 1.384 . S
C894 H885 0.929 . S
C894 C886 1.378 . S
C894 C889 1.350 . S
C895 H882 0.929 . S
C895 C887 1.433 . S
C895 N897 1.384 . S
N896 C892 1.427 . S
N896 C893 1.384 . S
N897 C889 1.427 . S
N897 C895 1.384 . S
H898 C904 0.930 . S
H899 C908 0.930 . S
H900 C913 0.929 . S
H901 C911 0.929 . S
H902 C906 0.929 . S
H903 C912 0.929 . S
C904 H898 0.930 . S
C904 C905 1.367 . S
C904 C912 1.378 . S
C905 C904 1.367 . S
C905 C913 1.433 . S
C906 H902 0.929 . S
C906 C908 1.378 . S
C906 C910 1.350 . S
C907 C910 1.463 . S
C907 C912 1.350 . S
C907 N915 1.427 . S
C908 H899 0.930 . S
C908 C906 1.378 . S
C908 C909 1.367 . S
C909 C908 1.367 . S
C909 C911 1.433 . S
C910 C906 1.350 . S
C910 C907 1.463 . S
C910 N914 1.427 . S
C911 H901 0.929 . S
C911 C909 1.433 . S
C911 N914 1.384 . S
C912 H903 0.929 . S
C912 C904 1.378 . S
C912 C907 1.350 . S
C913 H900 0.929 . S
C913 C905 1.433 . S
C913 N915 1.384 . S
N914 C910 1.427 . S
N914 C911 1.384 . S
N915 C907 1.427 . S
N915 C913 1.384 . S
H916 C922 0.930 . S
H917 C926 0.930 . S
H918 C931 0.929 . S
H919 C929 0.929 . S
H920 C924 0.929 . S
H921 C930 0.929 . S
C922 H916 0.930 . S
C922 C923 1.367 . S
C922 C930 1.378 . S
C923 C922 1.367 . S
C923 C931 1.433 . S
C924 H920 0.929 . S
C924 C926 1.378 . S
C924 C928 1.350 . S
C925 C928 1.463 . S
C925 C930 1.350 . S
C925 N933 1.427 . S
C926 H917 0.930 . S
C926 C924 1.378 . S
C926 C927 1.367 . S
C927 C926 1.367 . S
C927 C929 1.433 . S
C928 C924 1.350 . S
C928 C925 1.463 . S
C928 N932 1.427 . S
C929 H919 0.929 . S
C929 C927 1.433 . S
C929 N932 1.384 . S
C930 H921 0.929 . S
C930 C922 1.378 . S
C930 C925 1.350 . S
C931 H918 0.929 . S
C931 C923 1.433 . S
C931 N933 1.384 . S
N932 C928 1.427 . S
N932 C929 1.384 . S
N933 C925 1.427 . S
N933 C931 1.384 . S
H934 C940 0.930 . S
H935 C944 0.930 . S
H936 C949 0.929 . S
H937 C947 0.929 . S
H938 C942 0.929 . S
H939 C948 0.929 . S
C940 H934 0.930 . S
C940 C941 1.367 . S
C940 C948 1.378 . S
C941 C940 1.367 . S
C941 C949 1.433 . S
C942 H938 0.929 . S
C942 C944 1.378 . S
C942 C946 1.350 . S
C943 C946 1.463 . S
C943 C948 1.350 . S
C943 N951 1.427 . S
C944 H935 0.930 . S
C944 C942 1.378 . S
C944 C945 1.367 . S
C945 C944 1.367 . S
C945 C947 1.433 . S
C946 C942 1.350 . S
C946 C943 1.463 . S
C946 N950 1.427 . S
C947 H937 0.929 . S
C947 C945 1.433 . S
C947 N950 1.384 . S
C948 H939 0.929 . S
C948 C940 1.378 . S
C948 C943 1.350 . S
C949 H936 0.929 . S
C949 C941 1.433 . S
C949 N951 1.384 . S
N950 C946 1.427 . S
N950 C947 1.384 . S
N951 C943 1.427 . S
N951 C949 1.384 . S
H952 C958 0.930 . S
H953 C962 0.930 . S
H954 C967 0.929 . S
H955 C965 0.929 . S
H956 C960 0.929 . S
H957 C966 0.929 . S
C958 H952 0.930 . S
C958 C959 1.367 . S
C958 C966 1.378 . S
C959 C958 1.367 . S
C959 C967 1.433 . S
C960 H956 0.929 . S
C960 C962 1.378 . S
C960 C964 1.350 . S
C961 C964 1.463 . S
C961 C966 1.350 . S
C961 N969 1.427 . S
C962 H953 0.930 . S
C962 C960 1.378 . S
C962 C963 1.367 . S
C963 C962 1.367 . S
C963 C965 1.433 . S
C964 C960 1.350 . S
C964 C961 1.463 . S
C964 N968 1.427 . S
C965 H955 0.929 . S
C965 C963 1.433 . S
C965 N968 1.384 . S
C966 H957 0.929 . S
C966 C958 1.378 . S
C966 C961 1.350 . S
C967 H954 0.929 . S
C967 C959 1.433 . S
C967 N969 1.384 . S
N968 C964 1.427 . S
N968 C965 1.384 . S
N969 C961 1.427 . S
N969 C967 1.384 . S
H970 C976 0.930 . S
H971 C980 0.930 . S
H972 C985 0.929 . S
H973 C983 0.929 . S
H974 C978 0.929 . S
H975 C984 0.929 . S
C976 H970 0.930 . S
C976 C977 1.367 . S
C976 C984 1.378 . S
C977 C976 1.367 . S
C977 C985 1.433 . S
C978 H974 0.929 . S
C978 C980 1.378 . S
C978 C982 1.350 . S
C979 C982 1.463 . S
C979 C984 1.350 . S
C979 N987 1.427 . S
C980 H971 0.930 . S
C980 C978 1.378 . S
C980 C981 1.367 . S
C981 C980 1.367 . S
C981 C983 1.433 . S
C982 C978 1.350 . S
C982 C979 1.463 . S
C982 N986 1.427 . S
C983 H973 0.929 . S
C983 C981 1.433 . S
C983 N986 1.384 . S
C984 H975 0.929 . S
C984 C976 1.378 . S
C984 C979 1.350 . S
C985 H972 0.929 . S
C985 C977 1.433 . S
C985 N987 1.384 . S
N986 C982 1.427 . S
N986 C983 1.384 . S
N987 C979 1.427 . S
N987 C985 1.384 . S
H988 C994 0.930 . S
H989 C998 0.930 . S
H990 C1003 0.929 . S
H991 C1001 0.929 . S
H992 C996 0.929 . S
H993 C1002 0.929 . S
C994 H988 0.930 . S
C994 C995 1.367 . S
C994 C1002 1.378 . S
C995 C994 1.367 . S
C995 C1003 1.433 . S
C996 H992 0.929 . S
C996 C998 1.378 . S
C996 C1000 1.350 . S
C997 C1000 1.463 . S
C997 C1002 1.350 . S
C997 N1005 1.427 . S
C998 H989 0.930 . S
C998 C996 1.378 . S
C998 C999 1.367 . S
C999 C998 1.367 . S
C999 C1001 1.433 . S
C1000 C996 1.350 . S
C1000 C997 1.463 . S
C1000 N1004 1.427 . S
C1001 H991 0.929 . S
C1001 C999 1.433 . S
C1001 N1004 1.384 . S
C1002 H993 0.929 . S
C1002 C994 1.378 . S
C1002 C997 1.350 . S
C1003 H990 0.929 . S
C1003 C995 1.433 . S
C1003 N1005 1.384 . S
N1004 C1000 1.427 . S
N1004 C1001 1.384 . S
N1005 C997 1.427 . S
N1005 C1003 1.384 . S
H1006 C1012 0.930 . S
H1007 C1016 0.930 . S
H1008 C1021 0.929 . S
H1009 C1019 0.929 . S
H1010 C1014 0.929 . S
H1011 C1020 0.929 . S
C1012 H1006 0.930 . S
C1012 C1013 1.367 . S
C1012 C1020 1.378 . S
C1013 C1012 1.367 . S
C1013 C1021 1.433 . S
C1014 H1010 0.929 . S
C1014 C1016 1.378 . S
C1014 C1018 1.350 . S
C1015 C1018 1.463 . S
C1015 C1020 1.350 . S
C1015 N1023 1.427 . S
C1016 H1007 0.930 . S
C1016 C1014 1.378 . S
C1016 C1017 1.367 . S
C1017 C1016 1.367 . S
C1017 C1019 1.433 . S
C1018 C1014 1.350 . S
C1018 C1015 1.463 . S
C1018 N1022 1.427 . S
C1019 H1009 0.929 . S
C1019 C1017 1.433 . S
C1019 N1022 1.384 . S
C1020 H1011 0.929 . S
C1020 C1012 1.378 . S
C1020 C1015 1.350 . S
C1021 H1008 0.929 . S
C1021 C1013 1.433 . S
C1021 N1023 1.384 . S
N1022 C1018 1.427 . S
N1022 C1019 1.384 . S
N1023 C1015 1.427 . S
N1023 C1021 1.384 . S
H1024 C1030 0.930 . S
H1025 C1034 0.930 . S
H1026 C1039 0.929 . S
H1027 C1037 0.929 . S
H1028 C1032 0.929 . S
H1029 C1038 0.929 . S
C1030 H1024 0.930 . S
C1030 C1031 1.367 . S
C1030 C1038 1.378 . S
C1031 C1030 1.367 . S
C1031 C1039 1.433 . S
C1032 H1028 0.929 . S
C1032 C1034 1.378 . S
C1032 C1036 1.350 . S
C1033 C1036 1.463 . S
C1033 C1038 1.350 . S
C1033 N1041 1.427 . S
C1034 H1025 0.930 . S
C1034 C1032 1.378 . S
C1034 C1035 1.367 . S
C1035 C1034 1.367 . S
C1035 C1037 1.433 . S
C1036 C1032 1.350 . S
C1036 C1033 1.463 . S
C1036 N1040 1.427 . S
C1037 H1027 0.929 . S
C1037 C1035 1.433 . S
C1037 N1040 1.384 . S
C1038 H1029 0.929 . S
C1038 C1030 1.378 . S
C1038 C1033 1.350 . S
C1039 H1026 0.929 . S
C1039 C1031 1.433 . S
C1039 N1041 1.384 . S
N1040 C1036 1.427 . S
N1040 C1037 1.384 . S
N1041 C1033 1.427 . S
N1041 C1039 1.384 . S
H1042 C1048 0.930 . S
H1043 C1052 0.930 . S
H1044 C1057 0.929 . S
H1045 C1055 0.929 . S
H1046 C1050 0.929 . S
H1047 C1056 0.929 . S
C1048 H1042 0.930 . S
C1048 C1049 1.367 . S
C1048 C1056 1.378 . S
C1049 C1048 1.367 . S
C1049 C1057 1.433 . S
C1050 H1046 0.929 . S
C1050 C1052 1.378 . S
C1050 C1054 1.350 . S
C1051 C1054 1.463 . S
C1051 C1056 1.350 . S
C1051 N1059 1.427 . S
C1052 H1043 0.930 . S
C1052 C1050 1.378 . S
C1052 C1053 1.367 . S
C1053 C1052 1.367 . S
C1053 C1055 1.433 . S
C1054 C1050 1.350 . S
C1054 C1051 1.463 . S
C1054 N1058 1.427 . S
C1055 H1045 0.929 . S
C1055 C1053 1.433 . S
C1055 N1058 1.384 . S
C1056 H1047 0.929 . S
C1056 C1048 1.378 . S
C1056 C1051 1.350 . S
C1057 H1044 0.929 . S
C1057 C1049 1.433 . S
C1057 N1059 1.384 . S
N1058 C1054 1.427 . S
N1058 C1055 1.384 . S
N1059 C1051 1.427 . S
N1059 C1057 1.384 . S
H1060 C1066 0.930 . S
H1061 C1070 0.930 . S
H1062 C1075 0.929 . S
H1063 C1073 0.929 . S
H1064 C1068 0.929 . S
H1065 C1074 0.929 . S
C1066 H1060 0.930 . S
C1066 C1067 1.367 . S
C1066 C1074 1.378 . S
C1067 C1066 1.367 . S
C1067 C1075 1.433 . S
C1068 H1064 0.929 . S
C1068 C1070 1.378 . S
C1068 C1072 1.350 . S
C1069 C1072 1.463 . S
C1069 C1074 1.350 . S
C1069 N1077 1.427 . S
C1070 H1061 0.930 . S
C1070 C1068 1.378 . S
C1070 C1071 1.367 . S
C1071 C1070 1.367 . S
C1071 C1073 1.433 . S
C1072 C1068 1.350 . S
C1072 C1069 1.463 . S
C1072 N1076 1.427 . S
C1073 H1063 0.929 . S
C1073 C1071 1.433 . S
C1073 N1076 1.384 . S
C1074 H1065 0.929 . S
C1074 C1066 1.378 . S
C1074 C1069 1.350 . S
C1075 H1062 0.929 . S
C1075 C1067 1.433 . S
C1075 N1077 1.384 . S
N1076 C1072 1.427 . S
N1076 C1073 1.384 . S
N1077 C1069 1.427 . S
N1077 C1075 1.384 . S
H1078 C1084 0.930 . S
H1079 C1088 0.930 . S
H1080 C1093 0.929 . S
H1081 C1091 0.929 . S
H1082 C1086 0.929 . S
H1083 C1092 0.929 . S
C1084 H1078 0.930 . S
C1084 C1085 1.367 . S
C1084 C1092 1.378 . S
C1085 C1084 1.367 . S
C1085 C1093 1.433 . S
C1086 H1082 0.929 . S
C1086 C1088 1.378 . S
C1086 C1090 1.350 . S
C1087 C1090 1.463 . S
C1087 C1092 1.350 . S
C1087 N1095 1.427 . S
C1088 H1079 0.930 . S
C1088 C1086 1.378 . S
C1088 C1089 1.367 . S
C1089 C1088 1.367 . S
C1089 C1091 1.433 . S
C1090 C1086 1.350 . S
C1090 C1087 1.463 . S
C1090 N1094 1.427 . S
C1091 H1081 0.929 . S
C1091 C1089 1.433 . S
C1091 N1094 1.384 . S
C1092 H1083 0.929 . S
C1092 C1084 1.378 . S
C1092 C1087 1.350 . S
C1093 H1080 0.929 . S
C1093 C1085 1.433 . S
C1093 N1095 1.384 . S
N1094 C1090 1.427 . S
N1094 C1091 1.384 . S
N1095 C1087 1.427 . S
N1095 C1093 1.384 . S
H1096 C1102 0.930 . S
H1097 C1106 0.930 . S
H1098 C1111 0.929 . S
H1099 C1109 0.929 . S
H1100 C1104 0.929 . S
H1101 C1110 0.929 . S
C1102 H1096 0.930 . S
C1102 C1103 1.367 . S
C1102 C1110 1.378 . S
C1103 C1102 1.367 . S
C1103 C1111 1.433 . S
C1104 H1100 0.929 . S
C1104 C1106 1.378 . S
C1104 C1108 1.350 . S
C1105 C1108 1.463 . S
C1105 C1110 1.350 . S
C1105 N1113 1.427 . S
C1106 H1097 0.930 . S
C1106 C1104 1.378 . S
C1106 C1107 1.367 . S
C1107 C1106 1.367 . S
C1107 C1109 1.433 . S
C1108 C1104 1.350 . S
C1108 C1105 1.463 . S
C1108 N1112 1.427 . S
C1109 H1099 0.929 . S
C1109 C1107 1.433 . S
C1109 N1112 1.384 . S
C1110 H1101 0.929 . S
C1110 C1102 1.378 . S
C1110 C1105 1.350 . S
C1111 H1098 0.929 . S
C1111 C1103 1.433 . S
C1111 N1113 1.384 . S
N1112 C1108 1.427 . S
N1112 C1109 1.384 . S
N1113 C1105 1.427 . S
N1113 C1111 1.384 . S
H1114 C1120 0.930 . S
H1115 C1124 0.930 . S
H1116 C1129 0.929 . S
H1117 C1127 0.929 . S
H1118 C1122 0.929 . S
H1119 C1128 0.929 . S
C1120 H1114 0.930 . S
C1120 C1121 1.367 . S
C1120 C1128 1.378 . S
C1121 C1120 1.367 . S
C1121 C1129 1.433 . S
C1122 H1118 0.929 . S
C1122 C1124 1.378 . S
C1122 C1126 1.350 . S
C1123 C1126 1.463 . S
C1123 C1128 1.350 . S
C1123 N1131 1.427 . S
C1124 H1115 0.930 . S
C1124 C1122 1.378 . S
C1124 C1125 1.367 . S
C1125 C1124 1.367 . S
C1125 C1127 1.433 . S
C1126 C1122 1.350 . S
C1126 C1123 1.463 . S
C1126 N1130 1.427 . S
C1127 H1117 0.929 . S
C1127 C1125 1.433 . S
C1127 N1130 1.384 . S
C1128 H1119 0.929 . S
C1128 C1120 1.378 . S
C1128 C1123 1.350 . S
C1129 H1116 0.929 . S
C1129 C1121 1.433 . S
C1129 N1131 1.384 . S
N1130 C1126 1.427 . S
N1130 C1127 1.384 . S
N1131 C1123 1.427 . S
N1131 C1129 1.384 . S
H1132 C1138 0.930 . S
H1133 C1142 0.930 . S
H1134 C1147 0.929 . S
H1135 C1145 0.929 . S
H1136 C1140 0.929 . S
H1137 C1146 0.929 . S
C1138 H1132 0.930 . S
C1138 C1139 1.367 . S
C1138 C1146 1.378 . S
C1139 C1138 1.367 . S
C1139 C1147 1.433 . S
C1140 H1136 0.929 . S
C1140 C1142 1.378 . S
C1140 C1144 1.350 . S
C1141 C1144 1.463 . S
C1141 C1146 1.350 . S
C1141 N1149 1.427 . S
C1142 H1133 0.930 . S
C1142 C1140 1.378 . S
C1142 C1143 1.367 . S
C1143 C1142 1.367 . S
C1143 C1145 1.433 . S
C1144 C1140 1.350 . S
C1144 C1141 1.463 . S
C1144 N1148 1.427 . S
C1145 H1135 0.929 . S
C1145 C1143 1.433 . S
C1145 N1148 1.384 . S
C1146 H1137 0.929 . S
C1146 C1138 1.378 . S
C1146 C1141 1.350 . S
C1147 H1134 0.929 . S
C1147 C1139 1.433 . S
C1147 N1149 1.384 . S
N1148 C1144 1.427 . S
N1148 C1145 1.384 . S
N1149 C1141 1.427 . S
N1149 C1147 1.384 . S
H1150 C1156 0.930 . S
H1151 C1160 0.930 . S
H1152 C1165 0.929 . S
H1153 C1163 0.929 . S
H1154 C1158 0.929 . S
H1155 C1164 0.929 . S
C1156 H1150 0.930 . S
C1156 C1157 1.367 . S
C1156 C1164 1.378 . S
C1157 C1156 1.367 . S
C1157 C1165 1.433 . S
C1158 H1154 0.929 . S
C1158 C1160 1.378 . S
C1158 C1162 1.350 . S
C1159 C1162 1.463 . S
C1159 C1164 1.350 . S
C1159 N1167 1.427 . S
C1160 H1151 0.930 . S
C1160 C1158 1.378 . S
C1160 C1161 1.367 . S
C1161 C1160 1.367 . S
C1161 C1163 1.433 . S
C1162 C1158 1.350 . S
C1162 C1159 1.463 . S
C1162 N1166 1.427 . S
C1163 H1153 0.929 . S
C1163 C1161 1.433 . S
C1163 N1166 1.384 . S
C1164 H1155 0.929 . S
C1164 C1156 1.378 . S
C1164 C1159 1.350 . S
C1165 H1152 0.929 . S
C1165 C1157 1.433 . S
C1165 N1167 1.384 . S
N1166 C1162 1.427 . S
N1166 C1163 1.384 . S
N1167 C1159 1.427 . S
N1167 C1165 1.384 . S
H1168 C1174 0.930 . S
H1169 C1178 0.930 . S
H1170 C1183 0.929 . S
H1171 C1181 0.929 . S
H1172 C1176 0.929 . S
H1173 C1182 0.929 . S
C1174 H1168 0.930 . S
C1174 C1175 1.367 . S
C1174 C1182 1.378 . S
C1175 C1174 1.367 . S
C1175 C1183 1.433 . S
C1176 H1172 0.929 . S
C1176 C1178 1.378 . S
C1176 C1180 1.350 . S
C1177 C1180 1.463 1_554 S
C1177 C1182 1.350 . S
C1177 N1185 1.427 . S
C1178 H1169 0.930 . S
C1178 C1176 1.378 . S
C1178 C1179 1.367 . S
C1179 C1178 1.367 . S
C1179 C1181 1.433 . S
C1180 C1176 1.350 . S
C1180 C1177 1.463 1_556 S
C1180 N1184 1.427 . S
C1181 H1171 0.929 . S
C1181 C1179 1.433 . S
C1181 N1184 1.384 . S
C1182 H1173 0.929 . S
C1182 C1174 1.378 . S
C1182 C1177 1.350 . S
C1183 H1170 0.929 . S
C1183 C1175 1.433 . S
C1183 N1185 1.384 . S
N1184 C1180 1.427 . S
N1184 C1181 1.384 . S
N1185 C1177 1.427 . S
N1185 C1183 1.384 . S
H1186 C1192 0.930 . S
H1187 C1196 0.930 . S
H1188 C1201 0.929 . S
H1189 C1199 0.929 . S
H1190 C1194 0.929 . S
H1191 C1200 0.929 1_554 S
C1192 H1186 0.930 . S
C1192 C1193 1.367 . S
C1192 C1200 1.378 . S
C1193 C1192 1.367 . S
C1193 C1201 1.433 . S
C1194 H1190 0.929 . S
C1194 C1196 1.378 . S
C1194 C1198 1.350 . S
C1195 C1198 1.463 . S
C1195 C1200 1.350 1_554 S
C1195 N1203 1.427 1_554 S
C1196 H1187 0.930 . S
C1196 C1194 1.378 . S
C1196 C1197 1.367 . S
C1197 C1196 1.367 . S
C1197 C1199 1.433 . S
C1198 C1194 1.350 . S
C1198 C1195 1.463 . S
C1198 N1202 1.427 . S
C1199 H1189 0.929 . S
C1199 C1197 1.433 . S
C1199 N1202 1.384 . S
C1200 H1191 0.929 1_556 S
C1200 C1192 1.378 . S
C1200 C1195 1.350 1_556 S
C1201 H1188 0.929 . S
C1201 C1193 1.433 . S
C1201 N1203 1.384 . S
N1202 C1198 1.427 . S
N1202 C1199 1.384 . S
N1203 C1195 1.427 1_556 S
N1203 C1201 1.384 . S
H1204 C1210 0.930 . S
H1205 C1214 0.930 . S
H1206 C1219 0.929 . S
H1207 C1217 0.929 . S
H1208 C1212 0.929 . S
H1209 C1218 0.929 . S
C1210 H1204 0.930 . S
C1210 C1211 1.367 . S
C1210 C1218 1.378 . S
C1211 C1210 1.367 . S
C1211 C1219 1.433 . S
C1212 H1208 0.929 . S
C1212 C1214 1.378 . S
C1212 C1216 1.350 . S
C1213 C1216 1.463 1_554 S
C1213 C1218 1.350 . S
C1213 N1221 1.427 . S
C1214 H1205 0.930 . S
C1214 C1212 1.378 . S
C1214 C1215 1.367 . S
C1215 C1214 1.367 . S
C1215 C1217 1.433 . S
C1216 C1212 1.350 . S
C1216 C1213 1.463 1_556 S
C1216 N1220 1.427 . S
C1217 H1207 0.929 . S
C1217 C1215 1.433 . S
C1217 N1220 1.384 . S
C1218 H1209 0.929 . S
C1218 C1210 1.378 . S
C1218 C1213 1.350 . S
C1219 H1206 0.929 . S
C1219 C1211 1.433 . S
C1219 N1221 1.384 . S
N1220 C1216 1.427 . S
N1220 C1217 1.384 . S
N1221 C1213 1.427 . S
N1221 C1219 1.384 . S
H1222 C1228 0.930 . S
H1223 C1232 0.930 . S
H1224 C1237 0.929 . S
H1225 C1235 0.929 . S
H1226 C1230 0.929 1_554 S
H1227 C1236 0.929 . S
C1228 H1222 0.930 . S
C1228 C1229 1.367 . S
C1228 C1236 1.378 . S
C1229 C1228 1.367 . S
C1229 C1237 1.433 . S
C1230 H1226 0.929 1_556 S
C1230 C1232 1.378 . S
C1230 C1234 1.350 1_556 S
C1231 C1234 1.463 . S
C1231 C1236 1.350 . S
C1231 N1239 1.427 . S
C1232 H1223 0.930 . S
C1232 C1230 1.378 . S
C1232 C1233 1.367 . S
C1233 C1232 1.367 . S
C1233 C1235 1.433 . S
C1234 C1230 1.350 1_554 S
C1234 C1231 1.463 . S
C1234 N1238 1.427 1_554 S
C1235 H1225 0.929 . S
C1235 C1233 1.433 . S
C1235 N1238 1.384 . S
C1236 H1227 0.929 . S
C1236 C1228 1.378 . S
C1236 C1231 1.350 . S
C1237 H1224 0.929 . S
C1237 C1229 1.433 . S
C1237 N1239 1.384 . S
N1238 C1234 1.427 1_556 S
N1238 C1235 1.384 . S
N1239 C1231 1.427 . S
N1239 C1237 1.384 . S
H1240 C1246 0.930 . S
H1241 C1250 0.930 . S
H1242 C1255 0.929 . S
H1243 C1253 0.929 . S
H1244 C1248 0.929 . S
H1245 C1254 0.929 . S
C1246 H1240 0.930 . S
C1246 C1247 1.367 . S
C1246 C1254 1.378 . S
C1247 C1246 1.367 . S
C1247 C1255 1.433 . S
C1248 H1244 0.929 . S
C1248 C1250 1.378 . S
C1248 C1252 1.350 . S
C1249 C1252 1.463 1_554 S
C1249 C1254 1.350 . S
C1249 N1257 1.427 . S
C1250 H1241 0.930 . S
C1250 C1248 1.378 . S
C1250 C1251 1.367 . S
C1251 C1250 1.367 . S
C1251 C1253 1.433 . S
C1252 C1248 1.350 . S
C1252 C1249 1.463 1_556 S
C1252 N1256 1.427 . S
C1253 H1243 0.929 . S
C1253 C1251 1.433 . S
C1253 N1256 1.384 . S
C1254 H1245 0.929 . S
C1254 C1246 1.378 . S
C1254 C1249 1.350 . S
C1255 H1242 0.929 . S
C1255 C1247 1.433 . S
C1255 N1257 1.384 . S
N1256 C1252 1.427 . S
N1256 C1253 1.384 . S
N1257 C1249 1.427 . S
N1257 C1255 1.384 . S
H1258 C1264 0.930 . S
H1259 C1268 0.930 . S
H1260 C1273 0.929 . S
H1261 C1271 0.929 . S
H1262 C1266 0.929 . S
H1263 C1272 0.929 1_556 S
C1264 H1258 0.930 . S
C1264 C1265 1.367 . S
C1264 C1272 1.378 . S
C1265 C1264 1.367 . S
C1265 C1273 1.433 . S
C1266 H1262 0.929 . S
C1266 C1268 1.378 . S
C1266 C1270 1.350 . S
C1267 C1270 1.463 . S
C1267 C1272 1.350 1_556 S
C1267 N1275 1.427 1_556 S
C1268 H1259 0.930 . S
C1268 C1266 1.378 . S
C1268 C1269 1.367 . S
C1269 C1268 1.367 . S
C1269 C1271 1.433 . S
C1270 C1266 1.350 . S
C1270 C1267 1.463 . S
C1270 N1274 1.427 . S
C1271 H1261 0.929 . S
C1271 C1269 1.433 . S
C1271 N1274 1.384 . S
C1272 H1263 0.929 1_554 S
C1272 C1264 1.378 . S
C1272 C1267 1.350 1_554 S
C1273 H1260 0.929 . S
C1273 C1265 1.433 . S
C1273 N1275 1.384 . S
N1274 C1270 1.427 . S
N1274 C1271 1.384 . S
N1275 C1267 1.427 1_554 S
N1275 C1273 1.384 . S
H1276 C1282 0.930 . S
H1277 C1286 0.930 . S
H1278 C1291 0.929 . S
H1279 C1289 0.929 . S
H1280 C1284 0.929 . S
H1281 C1290 0.929 . S
C1282 H1276 0.930 . S
C1282 C1283 1.367 . S
C1282 C1290 1.378 . S
C1283 C1282 1.367 . S
C1283 C1291 1.433 . S
C1284 H1280 0.929 . S
C1284 C1286 1.378 . S
C1284 C1288 1.350 . S
C1285 C1288 1.463 1_556 S
C1285 C1290 1.350 . S
C1285 N1293 1.427 . S
C1286 H1277 0.930 . S
C1286 C1284 1.378 . S
C1286 C1287 1.367 . S
C1287 C1286 1.367 . S
C1287 C1289 1.433 . S
C1288 C1284 1.350 . S
C1288 C1285 1.463 1_554 S
C1288 N1292 1.427 . S
C1289 H1279 0.929 . S
C1289 C1287 1.433 . S
C1289 N1292 1.384 . S
C1290 H1281 0.929 . S
C1290 C1282 1.378 . S
C1290 C1285 1.350 . S
C1291 H1278 0.929 . S
C1291 C1283 1.433 . S
C1291 N1293 1.384 . S
N1292 C1288 1.427 . S
N1292 C1289 1.384 . S
N1293 C1285 1.427 . S
N1293 C1291 1.384 . S
H1294 C1300 0.930 . S
H1295 C1304 0.930 . S
H1296 C1309 0.929 . S
H1297 C1307 0.929 . S
H1298 C1302 0.920 1_556 S
H1299 C1308 0.929 . S
C1300 H1294 0.930 . S
C1300 C1301 1.367 . S
C1300 C1308 1.378 . S
C1301 C1300 1.367 . S
C1301 C1309 1.433 . S
C1302 H1298 0.920 1_554 S
C1302 C1304 1.378 . S
C1302 C1306 1.350 1_554 S
C1303 C1306 1.463 . S
C1303 C1308 1.350 . S
C1303 N1311 1.427 . S
C1304 H1295 0.930 . S
C1304 C1302 1.378 . S
C1304 C1305 1.367 . S
C1305 C1304 1.367 . S
C1305 C1307 1.433 . S
C1306 C1302 1.350 1_556 S
C1306 C1303 1.463 . S
C1306 N1310 1.427 1_556 S
C1307 H1297 0.929 . S
C1307 C1305 1.433 . S
C1307 N1310 1.384 . S
C1308 H1299 0.929 . S
C1308 C1300 1.378 . S
C1308 C1303 1.350 . S
C1309 H1296 0.929 . S
C1309 C1301 1.433 . S
C1309 N1311 1.384 . S
N1310 C1306 1.427 1_554 S
N1310 C1307 1.384 . S
N1311 C1303 1.427 . S
N1311 C1309 1.384 . S
H1312 C1318 0.930 . S
H1313 C1322 0.930 . S
H1314 C1327 0.929 . S
H1315 C1325 0.929 . S
H1316 C1320 0.929 . S
H1317 C1326 0.929 . S
C1318 H1312 0.930 . S
C1318 C1319 1.367 . S
C1318 C1326 1.378 . S
C1319 C1318 1.367 . S
C1319 C1327 1.433 . S
C1320 H1316 0.929 . S
C1320 C1322 1.378 . S
C1320 C1324 1.350 . S
C1321 C1324 1.463 . S
C1321 C1326 1.350 . S
C1321 N1329 1.427 . S
C1322 H1313 0.930 . S
C1322 C1320 1.378 . S
C1322 C1323 1.367 . S
C1323 C1322 1.367 . S
C1323 C1325 1.433 . S
C1324 C1320 1.350 . S
C1324 C1321 1.463 . S
C1324 N1328 1.427 . S
C1325 H1315 0.929 . S
C1325 C1323 1.433 . S
C1325 N1328 1.384 . S
C1326 H1317 0.929 . S
C1326 C1318 1.378 . S
C1326 C1321 1.350 . S
C1327 H1314 0.929 . S
C1327 C1319 1.433 . S
C1327 N1329 1.384 . S
N1328 C1324 1.427 . S
N1328 C1325 1.384 . S
N1329 C1321 1.427 . S
N1329 C1327 1.384 . S
H1330 C1336 0.930 . S
H1331 C1340 0.930 . S
H1332 C1345 0.929 . S
H1333 C1343 0.929 . S
H1334 C1338 0.929 . S
H1335 C1344 0.929 . S
C1336 H1330 0.930 . S
C1336 C1337 1.367 . S
C1336 C1344 1.378 . S
C1337 C1336 1.367 . S
C1337 C1345 1.433 . S
C1338 H1334 0.929 . S
C1338 C1340 1.378 . S
C1338 C1342 1.350 . S
C1339 C1342 1.463 . S
C1339 C1344 1.350 . S
C1339 N1347 1.427 . S
C1340 H1331 0.930 . S
C1340 C1338 1.378 . S
C1340 C1341 1.367 . S
C1341 C1340 1.367 . S
C1341 C1343 1.433 . S
C1342 C1338 1.350 . S
C1342 C1339 1.463 . S
C1342 N1346 1.427 . S
C1343 H1333 0.929 . S
C1343 C1341 1.433 . S
C1343 N1346 1.384 . S
C1344 H1335 0.929 . S
C1344 C1336 1.378 . S
C1344 C1339 1.350 . S
C1345 H1332 0.929 . S
C1345 C1337 1.433 . S
C1345 N1347 1.384 . S
N1346 C1342 1.427 . S
N1346 C1343 1.384 . S
N1347 C1339 1.427 . S
N1347 C1345 1.384 . S
H1348 C1354 0.930 . S
H1349 C1358 0.930 . S
H1350 C1363 0.929 . S
H1351 C1361 0.929 . S
H1352 C1356 0.929 . S
H1353 C1362 0.929 . S
C1354 H1348 0.930 . S
C1354 C1355 1.367 . S
C1354 C1362 1.378 . S
C1355 C1354 1.367 . S
C1355 C1363 1.433 . S
C1356 H1352 0.929 . S
C1356 C1358 1.378 . S
C1356 C1360 1.350 . S
C1357 C1360 1.463 . S
C1357 C1362 1.350 . S
C1357 N1365 1.427 . S
C1358 H1349 0.930 . S
C1358 C1356 1.378 . S
C1358 C1359 1.367 . S
C1359 C1358 1.367 . S
C1359 C1361 1.433 . S
C1360 C1356 1.350 . S
C1360 C1357 1.463 . S
C1360 N1364 1.427 . S
C1361 H1351 0.929 . S
C1361 C1359 1.433 . S
C1361 N1364 1.384 . S
C1362 H1353 0.929 . S
C1362 C1354 1.378 . S
C1362 C1357 1.350 . S
C1363 H1350 0.929 . S
C1363 C1355 1.433 . S
C1363 N1365 1.384 . S
N1364 C1360 1.427 . S
N1364 C1361 1.384 . S
N1365 C1357 1.427 . S
N1365 C1363 1.384 . S
H1366 C1372 0.930 . S
H1367 C1376 0.930 . S
H1368 C1381 0.929 . S
H1369 C1379 0.929 . S
H1370 C1374 0.929 . S
H1371 C1380 0.929 . S
C1372 H1366 0.930 . S
C1372 C1373 1.367 . S
C1372 C1380 1.378 . S
C1373 C1372 1.367 . S
C1373 C1381 1.433 . S
C1374 H1370 0.929 . S
C1374 C1376 1.378 . S
C1374 C1378 1.350 . S
C1375 C1378 1.463 . S
C1375 C1380 1.350 . S
C1375 N1383 1.427 . S
C1376 H1367 0.930 . S
C1376 C1374 1.378 . S
C1376 C1377 1.367 . S
C1377 C1376 1.367 . S
C1377 C1379 1.433 . S
C1378 C1374 1.350 . S
C1378 C1375 1.463 . S
C1378 N1382 1.427 . S
C1379 H1369 0.929 . S
C1379 C1377 1.433 . S
C1379 N1382 1.384 . S
C1380 H1371 0.929 . S
C1380 C1372 1.378 . S
C1380 C1375 1.350 . S
C1381 H1368 0.929 . S
C1381 C1373 1.433 . S
C1381 N1383 1.384 . S
N1382 C1378 1.427 . S
N1382 C1379 1.384 . S
N1383 C1375 1.427 . S
N1383 C1381 1.384 . S
H1384 C1390 0.930 . S
H1385 C1394 0.930 . S
H1386 C1399 0.929 . S
H1387 C1397 0.929 . S
H1388 C1392 0.929 . S
H1389 C1398 0.929 . S
C1390 H1384 0.930 . S
C1390 C1391 1.367 . S
C1390 C1398 1.378 . S
C1391 C1390 1.367 . S
C1391 C1399 1.433 . S
C1392 H1388 0.929 . S
C1392 C1394 1.378 . S
C1392 C1396 1.350 . S
C1393 C1396 1.463 . S
C1393 C1398 1.350 . S
C1393 N1401 1.427 . S
C1394 H1385 0.930 . S
C1394 C1392 1.378 . S
C1394 C1395 1.367 . S
C1395 C1394 1.367 . S
C1395 C1397 1.433 . S
C1396 C1392 1.350 . S
C1396 C1393 1.463 . S
C1396 N1400 1.427 . S
C1397 H1387 0.929 . S
C1397 C1395 1.433 . S
C1397 N1400 1.384 . S
C1398 H1389 0.929 . S
C1398 C1390 1.378 . S
C1398 C1393 1.350 . S
C1399 H1386 0.929 . S
C1399 C1391 1.433 . S
C1399 N1401 1.384 . S
N1400 C1396 1.427 . S
N1400 C1397 1.384 . S
N1401 C1393 1.427 . S
N1401 C1399 1.384 . S
H1402 C1408 0.930 . S
H1403 C1412 0.930 . S
H1404 C1417 0.929 . S
H1405 C1415 0.929 . S
H1406 C1410 0.929 . S
H1407 C1416 0.929 . S
C1408 H1402 0.930 . S
C1408 C1409 1.367 . S
C1408 C1416 1.378 . S
C1409 C1408 1.367 . S
C1409 C1417 1.433 . S
C1410 H1406 0.929 . S
C1410 C1412 1.378 . S
C1410 C1414 1.350 . S
C1411 C1414 1.463 . S
C1411 C1416 1.350 . S
C1411 N1419 1.427 . S
C1412 H1403 0.930 . S
C1412 C1410 1.378 . S
C1412 C1413 1.367 . S
C1413 C1412 1.367 . S
C1413 C1415 1.433 . S
C1414 C1410 1.350 . S
C1414 C1411 1.463 . S
C1414 N1418 1.427 . S
C1415 H1405 0.929 . S
C1415 C1413 1.433 . S
C1415 N1418 1.384 . S
C1416 H1407 0.929 . S
C1416 C1408 1.378 . S
C1416 C1411 1.350 . S
C1417 H1404 0.929 . S
C1417 C1409 1.433 . S
C1417 N1419 1.384 . S
N1418 C1414 1.427 . S
N1418 C1415 1.384 . S
N1419 C1411 1.427 . S
N1419 C1417 1.384 . S
H1420 C1426 0.930 . S
H1421 C1430 0.930 . S
H1422 C1435 0.929 . S
H1423 C1433 0.929 . S
H1424 C1428 0.929 . S
H1425 C1434 0.929 . S
C1426 H1420 0.930 . S
C1426 C1427 1.367 . S
C1426 C1434 1.378 . S
C1427 C1426 1.367 . S
C1427 C1435 1.433 . S
C1428 H1424 0.929 . S
C1428 C1430 1.378 . S
C1428 C1432 1.350 . S
C1429 C1432 1.463 . S
C1429 C1434 1.350 . S
C1429 N1437 1.427 . S
C1430 H1421 0.930 . S
C1430 C1428 1.378 . S
C1430 C1431 1.367 . S
C1431 C1430 1.367 . S
C1431 C1433 1.433 . S
C1432 C1428 1.350 . S
C1432 C1429 1.463 . S
C1432 N1436 1.427 . S
C1433 H1423 0.929 . S
C1433 C1431 1.433 . S
C1433 N1436 1.384 . S
C1434 H1425 0.929 . S
C1434 C1426 1.378 . S
C1434 C1429 1.350 . S
C1435 H1422 0.929 . S
C1435 C1427 1.433 . S
C1435 N1437 1.384 . S
N1436 C1432 1.427 . S
N1436 C1433 1.384 . S
N1437 C1429 1.427 . S
N1437 C1435 1.384 . S
H1438 C1444 0.930 . S
H1439 C1448 0.930 . S
H1440 C1453 0.929 . S
H1441 C1451 0.929 . S
H1442 C1446 0.929 . S
H1443 C1452 0.929 . S
C1444 H1438 0.930 . S
C1444 C1445 1.367 . S
C1444 C1452 1.378 . S
C1445 C1444 1.367 . S
C1445 C1453 1.433 . S
C1446 H1442 0.929 . S
C1446 C1448 1.378 . S
C1446 C1450 1.350 . S
C1447 C1450 1.463 . S
C1447 C1452 1.350 . S
C1447 N1455 1.427 . S
C1448 H1439 0.930 . S
C1448 C1446 1.378 . S
C1448 C1449 1.367 . S
C1449 C1448 1.367 . S
C1449 C1451 1.433 . S
C1450 C1446 1.350 . S
C1450 C1447 1.463 . S
C1450 N1454 1.427 . S
C1451 H1441 0.929 . S
C1451 C1449 1.433 . S
C1451 N1454 1.384 . S
C1452 H1443 0.929 . S
C1452 C1444 1.378 . S
C1452 C1447 1.350 . S
C1453 H1440 0.929 . S
C1453 C1445 1.433 . S
C1453 N1455 1.384 . S
N1454 C1450 1.427 . S
N1454 C1451 1.384 . S
N1455 C1447 1.427 . S
N1455 C1453 1.384 . S
H1456 C1462 0.930 . S
H1457 C1466 0.930 . S
H1458 C1471 0.929 . S
H1459 C1469 0.929 . S
H1460 C1464 0.929 . S
H1461 C1470 0.929 . S
C1462 H1456 0.930 . S
C1462 C1463 1.367 . S
C1462 C1470 1.378 . S
C1463 C1462 1.367 . S
C1463 C1471 1.433 . S
C1464 H1460 0.929 . S
C1464 C1466 1.378 . S
C1464 C1468 1.350 . S
C1465 C1468 1.463 . S
C1465 C1470 1.350 . S
C1465 N1473 1.427 . S
C1466 H1457 0.930 . S
C1466 C1464 1.378 . S
C1466 C1467 1.367 . S
C1467 C1466 1.367 . S
C1467 C1469 1.433 . S
C1468 C1464 1.350 . S
C1468 C1465 1.463 . S
C1468 N1472 1.427 . S
C1469 H1459 0.929 . S
C1469 C1467 1.433 . S
C1469 N1472 1.384 . S
C1470 H1461 0.929 . S
C1470 C1462 1.378 . S
C1470 C1465 1.350 . S
C1471 H1458 0.929 . S
C1471 C1463 1.433 . S
C1471 N1473 1.384 . S
N1472 C1468 1.427 . S
N1472 C1469 1.384 . S
N1473 C1465 1.427 . S
N1473 C1471 1.384 . S
H1474 C1480 0.930 . S
H1475 C1484 0.930 . S
H1476 C1489 0.929 . S
H1477 C1487 0.929 . S
H1478 C1482 0.929 . S
H1479 C1488 0.929 . S
C1480 H1474 0.930 . S
C1480 C1481 1.367 . S
C1480 C1488 1.378 . S
C1481 C1480 1.367 . S
C1481 C1489 1.433 . S
C1482 H1478 0.929 . S
C1482 C1484 1.378 . S
C1482 C1486 1.350 . S
C1483 C1486 1.463 . S
C1483 C1488 1.350 . S
C1483 N1491 1.427 . S
C1484 H1475 0.930 . S
C1484 C1482 1.378 . S
C1484 C1485 1.367 . S
C1485 C1484 1.367 . S
C1485 C1487 1.433 . S
C1486 C1482 1.350 . S
C1486 C1483 1.463 . S
C1486 N1490 1.427 . S
C1487 H1477 0.929 . S
C1487 C1485 1.433 . S
C1487 N1490 1.384 . S
C1488 H1479 0.929 . S
C1488 C1480 1.378 . S
C1488 C1483 1.350 . S
C1489 H1476 0.929 . S
C1489 C1481 1.433 . S
C1489 N1491 1.384 . S
N1490 C1486 1.427 . S
N1490 C1487 1.384 . S
N1491 C1483 1.427 . S
N1491 C1489 1.384 . S
H1492 C1498 0.930 . S
H1493 C1502 0.930 . S
H1494 C1507 0.929 . S
H1495 C1505 0.929 . S
H1496 C1500 0.929 . S
H1497 C1506 0.929 . S
C1498 H1492 0.930 . S
C1498 C1499 1.367 . S
C1498 C1506 1.378 . S
C1499 C1498 1.367 . S
C1499 C1507 1.433 . S
C1500 H1496 0.929 . S
C1500 C1502 1.378 . S
C1500 C1504 1.350 . S
C1501 C1504 1.463 . S
C1501 C1506 1.350 . S
C1501 N1509 1.427 . S
C1502 H1493 0.930 . S
C1502 C1500 1.378 . S
C1502 C1503 1.367 . S
C1503 C1502 1.367 . S
C1503 C1505 1.433 . S
C1504 C1500 1.350 . S
C1504 C1501 1.463 . S
C1504 N1508 1.427 . S
C1505 H1495 0.929 . S
C1505 C1503 1.433 . S
C1505 N1508 1.384 . S
C1506 H1497 0.929 . S
C1506 C1498 1.378 . S
C1506 C1501 1.350 . S
C1507 H1494 0.929 . S
C1507 C1499 1.433 . S
C1507 N1509 1.384 . S
N1508 C1504 1.427 . S
N1508 C1505 1.384 . S
N1509 C1501 1.427 . S
N1509 C1507 1.384 . S
H1510 C1516 0.930 . S
H1511 C1520 0.930 . S
H1512 C1525 0.929 . S
H1513 C1523 0.929 . S
H1514 C1518 0.929 . S
H1515 C1524 0.929 . S
C1516 H1510 0.930 . S
C1516 C1517 1.367 . S
C1516 C1524 1.378 . S
C1517 C1516 1.367 . S
C1517 C1525 1.433 . S
C1518 H1514 0.929 . S
C1518 C1520 1.378 . S
C1518 C1522 1.350 . S
C1519 C1522 1.463 . S
C1519 C1524 1.350 . S
C1519 N1527 1.427 . S
C1520 H1511 0.930 . S
C1520 C1518 1.378 . S
C1520 C1521 1.367 . S
C1521 C1520 1.367 . S
C1521 C1523 1.433 . S
C1522 C1518 1.350 . S
C1522 C1519 1.463 . S
C1522 N1526 1.427 . S
C1523 H1513 0.929 . S
C1523 C1521 1.433 . S
C1523 N1526 1.384 . S
C1524 H1515 0.929 . S
C1524 C1516 1.378 . S
C1524 C1519 1.350 . S
C1525 H1512 0.929 . S
C1525 C1517 1.433 . S
C1525 N1527 1.384 . S
N1526 C1522 1.427 . S
N1526 C1523 1.384 . S
N1527 C1519 1.427 . S
N1527 C1525 1.384 . S
H1528 C1534 0.930 . S
H1529 C1538 0.930 . S
H1530 C1543 0.929 . S
H1531 C1541 0.929 . S
H1532 C1536 0.929 . S
H1533 C1542 0.929 . S
C1534 H1528 0.930 . S
C1534 C1535 1.367 . S
C1534 C1542 1.378 . S
C1535 C1534 1.367 . S
C1535 C1543 1.433 . S
C1536 H1532 0.929 . S
C1536 C1538 1.378 . S
C1536 C1540 1.350 . S
C1537 C1540 1.463 . S
C1537 C1542 1.350 . S
C1537 N1545 1.427 . S
C1538 H1529 0.930 . S
C1538 C1536 1.378 . S
C1538 C1539 1.367 . S
C1539 C1538 1.367 . S
C1539 C1541 1.433 . S
C1540 C1536 1.350 . S
C1540 C1537 1.463 . S
C1540 N1544 1.427 . S
C1541 H1531 0.929 . S
C1541 C1539 1.433 . S
C1541 N1544 1.384 . S
C1542 H1533 0.929 . S
C1542 C1534 1.378 . S
C1542 C1537 1.350 . S
C1543 H1530 0.929 . S
C1543 C1535 1.433 . S
C1543 N1545 1.384 . S
N1544 C1540 1.427 . S
N1544 C1541 1.384 . S
N1545 C1537 1.427 . S
N1545 C1543 1.384 . S
H1546 C1552 0.930 . S
H1547 C1556 0.930 . S
H1548 C1561 0.929 . S
H1549 C1559 0.929 . S
H1550 C1554 0.929 . S
H1551 C1560 0.929 . S
C1552 H1546 0.930 . S
C1552 C1553 1.367 . S
C1552 C1560 1.378 . S
C1553 C1552 1.367 . S
C1553 C1561 1.433 . S
C1554 H1550 0.929 . S
C1554 C1556 1.378 . S
C1554 C1558 1.350 . S
C1555 C1558 1.463 . S
C1555 C1560 1.350 . S
C1555 N1563 1.427 . S
C1556 H1547 0.930 . S
C1556 C1554 1.378 . S
C1556 C1557 1.367 . S
C1557 C1556 1.367 . S
C1557 C1559 1.433 . S
C1558 C1554 1.350 . S
C1558 C1555 1.463 . S
C1558 N1562 1.427 . S
C1559 H1549 0.929 . S
C1559 C1557 1.433 . S
C1559 N1562 1.384 . S
C1560 H1551 0.929 . S
C1560 C1552 1.378 . S
C1560 C1555 1.350 . S
C1561 H1548 0.929 . S
C1561 C1553 1.433 . S
C1561 N1563 1.384 . S
N1562 C1558 1.427 . S
N1562 C1559 1.384 . S
N1563 C1555 1.427 . S
N1563 C1561 1.384 . S
H1564 C1570 0.930 . S
H1565 C1574 0.930 . S
H1566 C1579 0.929 . S
H1567 C1577 0.929 . S
H1568 C1572 0.929 . S
H1569 C1578 0.929 . S
C1570 H1564 0.930 . S
C1570 C1571 1.367 . S
C1570 C1578 1.378 . S
C1571 C1570 1.367 . S
C1571 C1579 1.433 . S
C1572 H1568 0.929 . S
C1572 C1574 1.378 . S
C1572 C1576 1.350 . S
C1573 C1576 1.463 . S
C1573 C1578 1.350 . S
C1573 N1581 1.427 . S
C1574 H1565 0.930 . S
C1574 C1572 1.378 . S
C1574 C1575 1.367 . S
C1575 C1574 1.367 . S
C1575 C1577 1.433 . S
C1576 C1572 1.350 . S
C1576 C1573 1.463 . S
C1576 N1580 1.427 . S
C1577 H1567 0.929 . S
C1577 C1575 1.433 . S
C1577 N1580 1.384 . S
C1578 H1569 0.929 . S
C1578 C1570 1.378 . S
C1578 C1573 1.350 . S
C1579 H1566 0.929 . S
C1579 C1571 1.433 . S
C1579 N1581 1.384 . S
N1580 C1576 1.427 . S
N1580 C1577 1.384 . S
N1581 C1573 1.427 . S
N1581 C1579 1.384 . S
H1582 C1588 0.930 . S
H1583 C1592 0.930 . S
H1584 C1597 0.929 . S
H1585 C1595 0.929 . S
H1586 C1590 0.929 . S
H1587 C1596 0.929 . S
C1588 H1582 0.930 . S
C1588 C1589 1.367 . S
C1588 C1596 1.378 . S
C1589 C1588 1.367 . S
C1589 C1597 1.433 . S
C1590 H1586 0.929 . S
C1590 C1592 1.378 . S
C1590 C1594 1.350 . S
C1591 C1594 1.463 . S
C1591 C1596 1.350 . S
C1591 N1599 1.427 . S
C1592 H1583 0.930 . S
C1592 C1590 1.378 . S
C1592 C1593 1.367 . S
C1593 C1592 1.367 . S
C1593 C1595 1.433 . S
C1594 C1590 1.350 . S
C1594 C1591 1.463 . S
C1594 N1598 1.427 . S
C1595 H1585 0.929 . S
C1595 C1593 1.433 . S
C1595 N1598 1.384 . S
C1596 H1587 0.929 . S
C1596 C1588 1.378 . S
C1596 C1591 1.350 . S
C1597 H1584 0.929 . S
C1597 C1589 1.433 . S
C1597 N1599 1.384 . S
N1598 C1594 1.427 . S
N1598 C1595 1.384 . S
N1599 C1591 1.427 . S
N1599 C1597 1.384 . S
C455 C222 1.216 . S
C459 C12 1.225 . S
C473 C18 1.329 . S
C477 C180 1.342 . S
C491 C40 1.219 . S
C495 C194 1.222 . S
C509 C208 1.339 . S
C513 C46 1.326 . S
C527 C68 1.227 . S
C531 C138 1.212 . S
C545 C74 1.327 . S
C549 C152 1.345 . S
C563 C166 1.214 . S
C567 C96 1.225 . S
C581 C124 1.339 . S
C585 C102 1.324 . S
C599 C236 1.222 . S
C603 C446 1.218 . S
C617 C242 1.326 . S
C621 C404 1.346 . S
C635 C264 1.226 . S
C639 C418 1.215 . S
C653 C432 1.346 . S
C657 C270 1.317 . S
C671 C292 1.222 . S
C675 C362 1.218 . S
C689 C298 1.327 . S
C693 C376 1.340 . S
C707 C390 1.213 . S
C711 C320 1.227 . S
C725 C326 1.315 . S
C729 C348 1.345 . S
C743 C173 1.032 . S
C747 C5 1.025 . S
C761 C25 1.065 . S
C765 C187 1.013 . S
C779 C201 1.023 . S
C783 C33 1.034 . S
C797 C53 1.065 . S
C801 C215 1.013 . S
C815 C61 1.015 . S
C819 C117 1.043 . S
C833 C131 1.030 . S
C837 C81 1.073 . S
C851 C145 1.017 . S
C855 C89 1.041 . S
C869 C159 1.031 . S
C873 C109 1.074 . S
C887 C229 1.015 . S
C891 C397 1.042 . S
C905 C411 1.031 . S
C909 C249 1.074 . S
C923 C257 1.026 . S
C927 C425 1.032 . S
C941 C277 1.070 . S
C945 C439 1.036 . S
C959 C341 1.026 . S
C963 C285 1.031 . S
C977 C305 1.058 . S
C981 C355 1.008 . S
C995 C313 1.016 . S
C999 C369 1.042 . S
C1013 C333 1.060 . S
C1017 C383 1.009 . S
C1031 C4 1.463 . S
C1035 C144 1.456 . S
C1049 C158 1.414 . S
C1053 C26 1.443 . S
C1067 C32 1.464 . S
C1071 C116 1.456 . S
C1085 C130 1.402 . S
C1089 C54 1.443 . S
C1103 C200 1.459 . S
C1107 C60 1.460 . S
C1121 C214 1.414 . S
C1125 C82 1.441 . S
C1139 C172 1.457 . S
C1143 C88 1.462 . S
C1157 C110 1.441 . S
C1161 C186 1.404 . S
C1175 C368 1.463 . S
C1179 C228 1.456 . S
C1193 C250 1.443 . S
C1197 C382 1.414 . S
C1211 C340 1.467 . S
C1215 C256 1.452 . S
C1229 C354 1.402 . S
C1233 C278 1.443 . S
C1247 C284 1.464 . S
C1251 C424 1.455 . S
C1265 C306 1.444 . S
C1269 C438 1.405 . S
C1283 C396 1.456 . S
C1287 C312 1.464 . S
C1301 C410 1.414 . S
C1305 C334 1.441 . S
C1319 C327 1.132 . S
C1323 C11 1.248 . S
C1337 C291 1.254 . S
C1341 C19 1.145 . S
C1355 C299 1.135 . S
C1359 C39 1.251 . S
C1373 C319 1.263 . S
C1377 C47 1.158 . S
C1391 C243 1.162 . S
C1395 C67 1.265 . S
C1409 C75 1.152 . S
C1413 C263 1.260 . S
C1427 C95 1.249 . S
C1431 C271 1.135 . S
C1445 C103 1.161 . S
C1449 C235 1.264 . S
C1463 C123 1.308 . S
C1467 C445 1.301 . S
C1481 C403 1.310 . S
C1485 C137 1.300 . S
C1499 C151 1.310 . S
C1503 C417 1.283 . S
C1517 C165 1.285 . S
C1521 C431 1.315 . S
C1535 C361 1.283 . S
C1539 C179 1.309 . S
C1553 C375 1.306 . S
C1557 C193 1.302 . S
C1571 C207 1.315 . S
C1575 C389 1.285 . S
C1589 C221 1.300 . S
C1593 C347 1.309 . S
