# Generated by pormake.
# Topology snk, (6)-cn, num edge types: 1
# Building blocks:
#     Node 0, Type 0, BuildingBlock: UKALOJ_clean_sbu_0, # of connection points: 6
#     Node 1, Type 0, BuildingBlock: UKALOJ_clean_sbu_0, # of connection points: 6
#     Node 2, Type 0, BuildingBlock: UKALOJ_clean_sbu_0, # of connection points: 6
#     Node 3, Type 0, BuildingBlock: UKALOJ_clean_sbu_0, # of connection points: 6
#     Node 4, Type 0, BuildingBlock: UKALOJ_clean_sbu_0, # of connection points: 6
#     Node 5, Type 0, BuildingBlock: UKALOJ_clean_sbu_0, # of connection points: 6
#     Node 6, Type 0, BuildingBlock: UKALOJ_clean_sbu_0, # of connection points: 6
#     Node 7, Type 0, BuildingBlock: UKALOJ_clean_sbu_0, # of connection points: 6
#     Edge 8, Type (0, 0), BuildingBlock: XUDNAN_clean_linker_2, # of connection points: 2
#     Edge 9, Type (0, 0), BuildingBlock: XUDNAN_clean_linker_2, # of connection points: 2
#     Edge 10, Type (0, 0), BuildingBlock: XUDNAN_clean_linker_2, # of connection points: 2
#     Edge 11, Type (0, 0), BuildingBlock: XUDNAN_clean_linker_2, # of connection points: 2
#     Edge 12, Type (0, 0), BuildingBlock: XUDNAN_clean_linker_2, # of connection points: 2
#     Edge 13, Type (0, 0), BuildingBlock: XUDNAN_clean_linker_2, # of connection points: 2
#     Edge 14, Type (0, 0), BuildingBlock: XUDNAN_clean_linker_2, # of connection points: 2
#     Edge 15, Type (0, 0), BuildingBlock: XUDNAN_clean_linker_2, # of connection points: 2
#     Edge 16, Type (0, 0), BuildingBlock: XUDNAN_clean_linker_2, # of connection points: 2
#     Edge 17, Type (0, 0), BuildingBlock: XUDNAN_clean_linker_2, # of connection points: 2
#     Edge 18, Type (0, 0), BuildingBlock: XUDNAN_clean_linker_2, # of connection points: 2
#     Edge 19, Type (0, 0), BuildingBlock: XUDNAN_clean_linker_2, # of connection points: 2
#     Edge 20, Type (0, 0), BuildingBlock: XUDNAN_clean_linker_2, # of connection points: 2
#     Edge 21, Type (0, 0), BuildingBlock: XUDNAN_clean_linker_2, # of connection points: 2
#     Edge 22, Type (0, 0), BuildingBlock: XUDNAN_clean_linker_2, # of connection points: 2
#     Edge 23, Type (0, 0), BuildingBlock: XUDNAN_clean_linker_2, # of connection points: 2
#     Edge 24, Type (0, 0), BuildingBlock: XUDNAN_clean_linker_2, # of connection points: 2
#     Edge 25, Type (0, 0), BuildingBlock: XUDNAN_clean_linker_2, # of connection points: 2
#     Edge 26, Type (0, 0), BuildingBlock: XUDNAN_clean_linker_2, # of connection points: 2
#     Edge 27, Type (0, 0), BuildingBlock: XUDNAN_clean_linker_2, # of connection points: 2
#     Edge 28, Type (0, 0), BuildingBlock: XUDNAN_clean_linker_2, # of connection points: 2
#     Edge 29, Type (0, 0), BuildingBlock: XUDNAN_clean_linker_2, # of connection points: 2
#     Edge 30, Type (0, 0), BuildingBlock: XUDNAN_clean_linker_2, # of connection points: 2
#     Edge 31, Type (0, 0), BuildingBlock: XUDNAN_clean_linker_2, # of connection points: 2
# Relax obj value: 0.135
# Max RMSD: 0.103
# Mean RMSD: 0.094
data_MOF--net-snk--node1-UKALOJ_clean_sbu_0--edge1-XUDNAN_clean_linker_2
_symmetry_space_group_name_H-M    P1
_symmetry_Int_Tables_number       1
_symmetry_cell_setting            triclinic
loop_
_symmetry_equiv_pos_as_xyz
'x, y, z'
_cell_length_a     47.808175
_cell_length_b     48.100328
_cell_length_c     15.266098
_cell_angle_alpha  82.610854
_cell_angle_beta   81.800623
_cell_angle_gamma 92.847385
loop_
_atom_site_label
_atom_site_type_symbol
_atom_site_fract_x
_atom_site_fract_y
_atom_site_fract_z
_atom_type_partial_charge
Zn0 Zn 0.04237 1.00374 0.51361 0.0
O1 O 0.04186 1.00652 0.645 0.0
C2 C 0.98081 0.97059 0.5589 0.0
Zn3 Zn 1.00661 0.03227 0.51716 0.0
C4 C 1.02499 1.01966 0.69348 0.0
O5 O 1.00659 0.03387 0.65857 0.0
C6 C 1.02523 1.01412 0.33803 0.0
O7 O 0.04125 0.06818 0.48309 0.0
O8 O 0.07626 0.04062 0.47853 0.0
N9 N 0.97496 0.0603 0.51373 0.0
C10 C 0.97241 0.08427 0.45938 0.0
C11 C 0.93403 0.07605 0.55103 0.0
N12 N 0.95104 0.05531 0.57049 0.0
N13 N 0.94686 0.09467 0.48159 0.0
C14 C 0.07328 0.94981 0.57441 0.0
C15 C 0.1129 0.95597 0.48856 0.0
N16 N 0.07304 0.97448 0.52056 0.0
N17 N 0.09775 0.97818 0.46739 0.0
N18 N 0.09797 0.93769 0.55519 0.0
H19 H 0.03657 0.95489 0.6708 0.0
H20 H 0.0595 0.92854 0.70766 0.0
H21 H 0.03687 0.92201 0.62733 0.0
C22 C 0.05024 0.9384 0.64957 0.0
C23 C 0.99431 0.09643 0.38179 0.0
H24 H 1.00836 0.08039 0.35921 0.0
H25 H 1.00771 0.11313 0.40266 0.0
H26 H 0.98408 0.1058 0.32519 0.0
O27 O 1.00743 0.029 0.37744 0.0
O28 O 0.04264 1.00136 0.3812 0.0
C29 C 0.0682 0.06579 0.47044 0.0
O30 O 1.00768 0.96811 0.54669 0.0
O31 O 0.97287 0.99572 0.55141 0.0
Zn32 Zn 0.2374 0.73247 0.82167 0.0
O33 O 0.19967 0.75577 0.80866 0.0
C34 C 0.25764 0.75023 0.62543 0.0
Zn35 Zn 0.26551 0.77117 0.79197 0.0
C36 C 0.20428 0.78238 0.78722 0.0
O37 O 0.22946 0.79314 0.77889 0.0
C38 C 0.29998 0.72272 0.82142 0.0
O39 O 0.25972 0.77447 0.92765 0.0
O40 O 0.23284 0.73529 0.96252 0.0
N41 N 0.28925 0.8076 0.76385 0.0
C42 C 0.3129 0.81544 0.79476 0.0
C43 C 0.30477 0.84893 0.69755 0.0
N44 N 0.28417 0.82831 0.70328 0.0
N45 N 0.32327 0.84094 0.75293 0.0
C46 C 0.20646 0.67848 0.79299 0.0
C47 C 0.22214 0.65015 0.89 0.0
N48 N 0.21604 0.69391 0.85111 0.0
N49 N 0.2249 0.6761 0.91327 0.0
N50 N 0.21089 0.65107 0.81388 0.0
H51 H 0.18902 0.71224 0.71493 0.0
H52 H 0.17565 0.67706 0.70448 0.0
H53 H 0.21033 0.68958 0.65052 0.0
C54 C 0.19472 0.69031 0.71111 0.0
C55 C 0.325 0.79919 0.8699 0.0
H56 H 0.30981 0.78282 0.90977 0.0
H57 H 0.33189 0.81359 0.91523 0.0
H58 H 0.34385 0.78891 0.84185 0.0
O59 O 0.30223 0.74921 0.80238 0.0
O60 O 0.27547 0.71015 0.83257 0.0
C61 C 0.24526 0.75639 -0.01344 0.0
O62 O 0.24255 0.73073 0.67811 0.0
O63 O 0.27066 0.76896 0.65804 0.0
Zn64 Zn 0.54783 0.04762 0.93114 0.0
O65 O 0.52352 0.08378 0.95053 0.0
C66 C 0.53468 0.02967 0.12711 0.0
Zn67 Zn 0.50924 1.0197 0.96675 0.0
C68 C 0.49674 0.07998 0.9728 0.0
O69 O 0.48529 0.05521 0.98096 0.0
C70 C 0.55958 0.98655 0.9277 0.0
O71 O 0.50528 0.02376 0.82422 0.0
O72 O 0.54329 0.05264 0.7998 0.0
N73 N 0.47349 0.99497 0.00253 0.0
C74 C 0.46588 0.9706 0.97586 0.0
C75 C 0.43318 0.97869 0.07828 0.0
N76 N 0.4533 1.00002 0.06642 0.0
N77 N 0.44104 0.95974 0.02358 0.0
C78 C 0.59488 0.09121 0.94147 0.0
C79 C 0.63057 0.07404 0.87355 0.0
N80 N 0.58499 0.0709 0.89936 0.0
N81 N 0.60715 0.06069 0.85507 0.0
N82 N 0.6234 0.0932 0.92818 0.0
H83 H 0.56412 0.12157 0.95661 0.0
H84 H 0.5896 0.12263 0.03198 0.0
H85 H 0.56169 0.09483 0.05061 0.0
C86 C 0.57672 0.10842 -0.00079 0.0
C87 C 0.48165 0.95825 0.89923 0.0
H88 H 0.49724 0.97361 0.85615 0.0
H89 H 0.46663 0.95027 0.85765 0.0
H90 H 0.49306 0.94029 0.92589 0.0
O91 O 0.53314 0.98353 0.95503 0.0
O92 O 0.57142 1.01126 0.91182 0.0
C93 C 0.52367 0.03995 0.76984 0.0
O94 O 0.55291 0.04293 0.06561 0.0
O95 O 0.51334 1.01678 0.10597 0.0
Zn96 Zn 0.2869 0.25637 0.2614 0.0
O97 O 0.28293 0.2579 0.1223 0.0
C98 C 0.31609 0.31849 0.21978 0.0
Zn99 Zn 0.25448 0.28857 0.26556 0.0
C100 C 0.26686 0.27461 0.0853 0.0
O101 O 0.25175 0.28996 0.13182 0.0
C102 C 0.27425 0.27291 0.44086 0.0
O103 O 0.22009 0.25354 0.29899 0.0
O104 O 0.25026 0.22102 0.29774 0.0
N105 N 0.22401 0.31768 0.28333 0.0
C106 C 0.22206 0.34484 0.24964 0.0
C107 C 0.1865 0.33344 0.35115 0.0
N108 N 0.20175 0.31076 0.34607 0.0
N109 N 0.19875 0.35537 0.29184 0.0
C110 C 0.3405 0.22474 0.19307 0.0
C111 C 0.33321 0.18568 0.27868 0.0
N112 N 0.31637 0.22616 0.2503 0.0
N113 N 0.31203 0.20184 0.30338 0.0
N114 N 0.35153 0.19948 0.20961 0.0
H115 H 0.33555 0.26119 0.09921 0.0
H116 H 0.36177 0.23818 0.0589 0.0
H117 H 0.36884 0.2606 0.14017 0.0
C118 C 0.35217 0.24742 0.11815 0.0
C119 C 0.24203 0.36017 0.17212 0.0
H120 H 0.25228 0.34519 0.13043 0.0
H121 H 0.25877 0.3722 0.19744 0.0
H122 H 0.23066 0.37511 0.13073 0.0
O123 O 0.25792 0.28729 0.39784 0.0
O124 O 0.28991 0.25615 0.40172 0.0
C125 C 0.22424 0.22724 0.30892 0.0
O126 O 0.32241 0.29268 0.22625 0.0
O127 O 0.28959 0.32266 0.233 0.0
Zn128 Zn 0.77131 0.26862 0.28 0.0
O129 O 0.74046 0.29983 0.26262 0.0
C130 C 0.79263 0.27863 0.08435 0.0
Zn131 Zn 0.80593 0.30132 0.24484 0.0
C132 C 0.74955 0.32541 0.23784 0.0
O133 O 0.77606 0.33163 0.22709 0.0
C134 C 0.8288 0.24548 0.28484 0.0
O135 O 0.80371 0.30706 0.3786 0.0
O136 O 0.76958 0.27389 0.41833 0.0
N137 N 0.83739 0.33141 0.20689 0.0
C138 C 0.86183 0.33578 0.23833 0.0
C139 C 0.86011 0.36872 0.13199 0.0
N140 N 0.83646 0.35163 0.13994 0.0
N141 N 0.87661 0.35879 0.19173 0.0
C142 C 0.72164 0.22707 0.27267 0.0
C143 C 0.72669 0.19502 0.37838 0.0
N144 N 0.74143 0.23695 0.31688 0.0
N145 N 0.74423 0.21728 0.38356 0.0
N146 N 0.71253 0.20051 0.30867 0.0
H147 H 0.7089 0.26599 0.20843 0.0
H148 H 0.68902 0.23505 0.18995 0.0
H149 H 0.72467 0.24352 0.13337 0.0
C150 C 0.71037 0.24385 0.19694 0.0
C151 C 0.87041 0.31923 0.31955 0.0
H152 H 0.85414 0.3029 0.35367 0.0
H153 H 0.87504 0.33362 0.36776 0.0
H154 H 0.89013 0.30897 0.29945 0.0
O155 O 0.83609 0.27129 0.26042 0.0
O156 O 0.80257 0.23769 0.29745 0.0
C157 C 0.78683 0.29187 0.43976 0.0
O158 O 0.77379 0.26319 0.13909 0.0
O159 O 0.80837 0.29596 0.1138 0.0
Zn160 Zn 0.78921 0.75162 0.7581 0.0
O161 O 0.78373 0.75411 0.61972 0.0
C162 C 0.82276 0.81229 0.71291 0.0
Zn163 Zn 0.76015 0.78691 0.76036 0.0
C164 C 0.76909 0.7721 0.58169 0.0
O165 O 0.7558 0.789 0.62703 0.0
C166 C 0.78003 0.76897 0.93605 0.0
O167 O 0.72369 0.75269 0.79825 0.0
O168 O 0.75194 0.71824 0.79501 0.0
N169 N 0.7341 0.81957 0.77966 0.0
C170 C 0.70657 0.82458 0.77776 0.0
C171 C 0.72645 0.86072 0.81654 0.0
N172 N 0.74622 0.84215 0.80376 0.0
N173 N 0.70118 0.85038 0.80108 0.0
C174 C 0.84267 0.72218 0.68 0.0
C175 C 0.83918 0.68248 0.76176 0.0
N176 N 0.81868 0.72135 0.73979 0.0
N177 N 0.8166 0.69657 0.79028 0.0
N178 N 0.85606 0.69817 0.69288 0.0
H179 H 0.83458 0.75831 0.58862 0.0
H180 H 0.86207 0.73735 0.54491 0.0
H181 H 0.86827 0.75988 0.62618 0.0
C182 C 0.85221 0.74573 0.60553 0.0
C183 C 0.68577 0.80477 0.74859 0.0
H184 H 0.69691 0.79152 0.70228 0.0
H185 H 0.66988 0.81649 0.71536 0.0
H186 H 0.67463 0.79078 0.80806 0.0
O187 O 0.76523 0.78497 0.89195 0.0
O188 O 0.79351 0.75042 0.89828 0.0
C189 C 0.72648 0.72595 0.80778 0.0
O190 O 0.82538 0.78569 0.72361 0.0
O191 O 0.79741 0.81998 0.72288 0.0
Zn192 Zn 0.53882 0.50471 0.01936 0.0
O193 O 0.53803 0.5056 0.15266 0.0
C194 C 0.47657 0.47523 0.06466 0.0
Zn195 Zn 0.50626 0.53655 0.02083 0.0
C196 C 0.52281 0.52072 0.19915 0.0
O197 O 0.50699 0.53757 0.16165 0.0
C198 C 0.5222 0.51758 0.84254 0.0
O199 O 0.54053 0.57138 -0.01373 0.0
O200 O 0.57394 0.54193 0.98459 0.0
N201 N 0.47447 0.56422 0.02265 0.0
C202 C 0.4691 0.5871 0.96781 0.0
C203 C 0.43296 0.5773 0.06833 0.0
N204 N 0.45198 0.55837 0.08511 0.0
N205 N 0.44302 0.59566 -0.00503 0.0
C206 C 0.59274 0.47214 0.05711 0.0
C207 C 0.58382 0.43353 0.00887 0.0
N208 N 0.56836 0.47446 0.02213 0.0
N209 N 0.563 0.45042 -0.00788 0.0
N210 N 0.6029 0.44652 0.04974 0.0
H211 H 0.58985 0.50932 0.12329 0.0
H212 H 0.62293 0.50655 0.05533 0.0
H213 H 0.6143 0.4847 0.16193 0.0
C214 C 0.6055 0.49437 0.10268 0.0
C215 C 0.48878 0.59993 0.88566 0.0
H216 H 0.49997 0.61919 0.90005 0.0
H217 H 0.47669 0.60586 0.82998 0.0
H218 H 0.50502 0.5855 0.86528 0.0
O219 O 0.50591 0.53389 0.88135 0.0
O220 O 0.53864 0.50344 0.88603 0.0
C221 C 0.56716 0.56766 0.97481 0.0
O222 O 0.50252 0.4689 0.05313 0.0
O223 O 0.47258 0.50149 0.05537 0.0
Zn224 Zn 0.04074 0.54977 0.40182 0.0
O225 O 0.03317 0.55083 0.26903 0.0
C226 C 0.09525 0.52495 0.35761 0.0
Zn227 Zn 0.07425 0.58394 0.36435 0.0
C228 C 0.04846 0.56752 0.20749 0.0
O229 O 0.06674 0.58458 0.22839 0.0
C230 C 0.066 0.56374 0.55961 0.0
O231 O 0.04524 0.61626 0.38539 0.0
O232 O 1.01227 0.58165 0.42298 0.0
N233 N 0.10837 0.61137 0.31643 0.0
C234 C 0.12604 0.62185 0.36652 0.0
C235 C 0.15152 0.61094 0.25193 0.0
N236 N 0.12422 0.60551 0.24347 0.0
N237 N 0.15331 0.62073 0.32972 0.0
C238 C 1.00394 0.49473 0.42777 0.0
C239 C 0.97269 0.49993 0.53794 0.0
N240 N 1.0089 0.52057 0.4487 0.0
N241 N 0.98964 0.52379 0.51757 0.0
N242 N 0.98184 0.48118 0.48403 0.0
H243 H 1.00362 0.47377 0.31149 0.0
H244 H 0.03255 0.4666 0.37173 0.0
H245 H 0.03265 0.49971 0.30182 0.0
C246 C 1.01915 0.48335 0.34833 0.0
C247 C 0.11668 0.63372 0.45135 0.0
H248 H 0.09392 0.63796 0.45718 0.0
H249 H 0.12965 0.65347 0.45188 0.0
H250 H 0.1201 0.61907 0.51033 0.0
O251 O 0.08132 0.58225 0.50369 0.0
O252 O 0.04812 0.54811 0.53192 0.0
C253 C 1.01938 0.60782 0.41349 0.0
O254 O 0.06921 0.51778 0.38312 0.0
O255 O 0.10315 0.55097 0.3456 0.0
H256 H 0.12962 0.07252 0.43291 0.0
H257 H 0.0555 0.12114 0.45295 0.0
H258 H 0.08628 0.1648 0.41539 0.0
H259 H 0.17516 0.12144 0.52761 0.0
H260 H 0.20709 0.11709 0.45368 0.0
H261 H 0.17965 0.08894 0.48182 0.0
H262 H 0.1775 0.08788 0.31435 0.0
H263 H 0.20493 0.11603 0.28572 0.0
H264 H 0.17153 0.11965 0.24504 0.0
H265 H 0.1252 0.20491 0.3748 0.0
H266 H 0.1679 0.23717 0.33594 0.0
H267 H 0.22024 0.16597 0.33914 0.0
C268 C 0.11975 0.09231 0.4295 0.0
C269 C 0.08924 0.09245 0.44666 0.0
C270 C 0.07817 0.11947 0.44067 0.0
C271 C 0.09576 0.1448 0.41911 0.0
C272 C 0.12528 0.14392 0.40276 0.0
C273 C 0.13735 0.11835 0.40765 0.0
C274 C 0.16998 0.12393 0.38668 0.0
C275 C 0.18379 0.11213 0.46724 0.0
C276 C 0.18168 0.1111 0.30298 0.0
C277 C 0.17426 0.1564 0.36939 0.0
C278 C 0.14792 0.16725 0.37927 0.0
C279 C 0.14579 0.19638 0.3671 0.0
C280 C 0.17061 0.21482 0.34463 0.0
C281 C 0.19839 0.20505 0.33348 0.0
C282 C 0.19984 0.17489 0.34651 0.0
H283 H 0.14972 0.92938 0.60174 0.0
H284 H 0.06825 0.88668 0.59644 0.0
H285 H 0.08506 0.84217 0.66398 0.0
H286 H 0.19153 0.87339 0.54199 0.0
H287 H 0.21744 0.87996 0.61317 0.0
H288 H 0.19823 0.90835 0.56843 0.0
H289 H 0.18142 0.91925 0.72877 0.0
H290 H 0.20053 0.8908 0.77392 0.0
H291 H 0.16316 0.89179 0.81173 0.0
H292 H 0.11249 0.80119 0.72782 0.0
H293 H 0.14762 0.76875 0.7787 0.0
H294 H 0.21033 0.83929 0.74196 0.0
C295 C 0.13541 0.91067 0.6154 0.0
C296 C 0.10745 0.91168 0.59589 0.0
C297 C 0.08941 0.88667 0.6137 0.0
C298 C 0.09889 0.86121 0.65135 0.0
C299 C 0.12655 0.861 0.67075 0.0
C300 C 0.1445 0.88518 0.65325 0.0
C301 C 0.17342 0.87946 0.67803 0.0
C302 C 0.19651 0.88565 0.59549 0.0
C303 C 0.18001 0.89633 0.75255 0.0
C304 C 0.16911 0.84828 0.71142 0.0
C305 C 0.142 0.83784 0.70704 0.0
C306 C 0.13372 0.80926 0.73205 0.0
C307 C 0.15376 0.79096 0.76117 0.0
C308 C 0.18176 0.80132 0.76506 0.0
C309 C 0.18913 0.83049 0.74063 0.0
H310 H 0.32089 0.89253 0.80143 0.0
H311 H 0.37655 0.82592 0.75555 0.0
H312 H 0.41106 0.84729 0.83786 0.0
H313 H 0.37897 0.9488 0.7753 0.0
H314 H 0.35967 0.96684 0.85859 0.0
H315 H 0.34079 0.9467 0.79136 0.0
H316 H 0.31288 0.91871 0.93689 0.0
H317 H 0.33271 0.93783 0.00442 0.0
H318 H 0.33195 0.90001 0.01696 0.0
H319 H 0.43565 0.87189 0.94093 0.0
H320 H 0.45749 0.90726 0.0192 0.0
H321 H 0.38784 0.95993 -0.01282 0.0
C322 C 0.34083 0.88317 0.80614 0.0
C323 C 0.34615 0.85748 0.77462 0.0
C324 C 0.37225 0.84544 0.78142 0.0
C325 C 0.39171 0.85724 0.82842 0.0
C326 C 0.38482 0.8814 0.8654 0.0
C327 C 0.36068 0.89496 0.85156 0.0
C328 C 0.35889 0.92123 0.89604 0.0
C329 C 0.35965 0.94744 0.82616 0.0
C330 C 0.33254 0.91931 0.96783 0.0
C331 C 0.3857 0.9201 0.93764 0.0
C332 C 0.39992 0.89655 0.92095 0.0
C333 C 0.42507 0.8907 0.95307 0.0
C334 C 0.43717 0.91065 -0.00228 0.0
C335 C 0.42441 0.9362 0.0068 0.0
C336 C 0.39771 0.94036 0.98096 0.0
H337 H 0.43972 0.07682 0.03375 0.0
H338 H 0.51339 0.13618 0.96514 0.0
H339 H 0.4839 0.17405 0.01277 0.0
H340 H 0.38786 0.12453 0.96403 0.0
H341 H 0.36081 0.10989 0.05517 0.0
H342 H 0.38748 0.08813 0.01098 0.0
H343 H 0.40093 0.07548 0.16908 0.0
H344 H 0.37438 0.09725 0.21374 0.0
H345 H 0.41068 0.10325 0.23007 0.0
H346 H 0.44603 0.20511 0.07635 0.0
H347 H 0.40388 0.22601 0.14818 0.0
H348 H 0.3554 0.14614 0.17305 0.0
C349 C 0.4497 0.09784 0.02751 0.0
C350 C 0.47897 0.10346 -0.00493 0.0
C351 C 0.49105 0.13128 -0.01073 0.0
C352 C 0.47443 0.15295 0.01627 0.0
C353 C 0.44571 0.14654 0.04891 0.0
C354 C 0.43349 0.11961 0.05429 0.0
C355 C 0.40246 0.11779 0.09448 0.0
C356 C 0.38354 0.10961 0.02713 0.0
C357 C 0.3968 0.09723 0.18203 0.0
C358 C 0.39907 0.14785 0.11172 0.0
C359 C 0.42417 0.16421 0.0847 0.0
C360 C 0.42621 0.19253 0.09637 0.0
C361 C 0.40204 0.20435 0.13648 0.0
C362 C 0.37607 0.18795 0.1642 0.0
C363 C 0.37484 0.1593 0.1517 0.0
H364 H 0.91967 0.9647 0.59402 0.0
H365 H 0.99304 0.91509 0.5743 0.0
H366 H 0.96176 0.87176 0.61137 0.0
H367 H 0.8766 0.91808 0.77947 0.0
H368 H 0.84356 0.92226 0.73692 0.0
H369 H 0.87139 0.95005 0.70979 0.0
H370 H 0.87005 0.94923 0.54169 0.0
H371 H 0.84221 0.92146 0.56835 0.0
H372 H 0.87433 0.91671 0.49591 0.0
H373 H 0.92227 0.83215 0.65354 0.0
H374 H 0.8789 0.80066 0.69183 0.0
H375 H 0.82809 0.87291 0.68185 0.0
C376 C 0.92926 0.94475 0.59752 0.0
C377 C 0.95967 0.94416 0.58137 0.0
C378 C 0.97044 0.91703 0.58681 0.0
C379 C 0.95257 0.89191 0.60784 0.0
C380 C 0.92312 0.89323 0.62357 0.0
C381 C 0.91139 0.91898 0.61831 0.0
C382 C 0.87878 0.91397 0.6375 0.0
C383 C 0.86687 0.92687 0.72087 0.0
C384 C 0.86556 0.92607 0.55601 0.0
C385 C 0.8741 0.88159 0.65439 0.0
C386 C 0.90019 0.87024 0.64609 0.0
C387 C 0.90184 0.84105 0.65941 0.0
C388 C 0.8767 0.82306 0.68113 0.0
C389 C 0.84923 0.83346 0.6896 0.0
C390 C 0.84831 0.86361 0.67589 0.0
H391 H 0.89163 0.10026 0.46307 0.0
H392 H 0.97384 0.14626 0.41917 0.0
H393 H 0.95282 0.18849 0.35525 0.0
H394 H 0.86524 0.13361 0.26588 0.0
H395 H 0.82971 0.1348 0.32297 0.0
H396 H 0.8515 0.10739 0.3595 0.0
H397 H 0.84403 0.12135 0.51907 0.0
H398 H 0.82219 0.14875 0.48306 0.0
H399 H 0.85263 0.15714 0.53457 0.0
H400 H 0.9229 0.22611 0.2993 0.0
H401 H 0.88594 0.25742 0.26209 0.0
H402 H 0.82184 0.18839 0.34861 0.0
C403 C 0.90523 0.11917 0.43912 0.0
C404 C 0.93472 0.11948 0.44284 0.0
C405 C 0.95162 0.14487 0.41287 0.0
C406 C 0.93973 0.16916 0.37744 0.0
C407 C 0.91075 0.16797 0.37355 0.0
C408 C 0.89362 0.14372 0.40419 0.0
C409 C 0.86283 0.14857 0.39634 0.0
C410 C 0.85167 0.12999 0.33235 0.0
C411 C 0.84434 0.14366 0.48876 0.0
C412 C 0.86532 0.1794 0.35698 0.0
C413 C 0.89322 0.19005 0.34388 0.0
C414 C 0.901 0.21799 0.30923 0.0
C415 C 0.87974 0.23565 0.28825 0.0
C416 C 0.85085 0.2255 0.30231 0.0
C417 C 0.84367 0.19684 0.33662 0.0
H418 H 0.71972 0.19572 0.13213 0.0
H419 H 0.67753 0.15637 0.392 0.0
H420 H 0.65628 0.11877 0.32009 0.0
H421 H 0.6607 0.18788 0.0237 0.0
H422 H 0.68115 0.18269 0.91905 0.0
H423 H 0.69655 0.20312 -0.0071 0.0
H424 H 0.73819 0.17067 -0.00739 0.0
H425 H 0.72261 0.14973 0.91994 0.0
H426 H 0.73099 0.13333 0.02512 0.0
H427 H 0.63793 0.08781 0.22 0.0
H428 H 0.61705 0.0694 0.0982 0.0
H429 H 0.66637 0.13315 0.904 0.0
C430 C 0.70539 0.17975 0.17403 0.0
C431 C 0.69928 0.17943 0.26729 0.0
C432 C 0.68196 0.15703 0.32017 0.0
C433 C 0.67013 0.1356 0.28007 0.0
C434 C 0.67605 0.13708 0.18739 0.0
C435 C 0.69292 0.15884 0.135 0.0
C436 C 0.69329 0.15762 0.03646 0.0
C437 C 0.68224 0.1844 -0.00961 0.0
C438 C 0.72304 0.15252 -0.0091 0.0
C439 C 0.67298 0.13226 0.04143 0.0
C440 C 0.66419 0.12013 0.1291 0.0
C441 C 0.64466 0.09706 0.15129 0.0
C442 C 0.63289 0.08688 0.08228 0.0
C443 C 0.63997 0.10043 -0.00664 0.0
C444 C 0.66093 0.12266 0.97189 0.0
H445 H 0.69677 0.90642 0.76978 0.0
H446 H 0.64745 0.82773 0.86788 0.0
H447 H 0.60509 0.85388 0.90501 0.0
H448 H 0.66691 0.94336 0.9406 0.0
H449 H 0.66759 0.97649 0.86989 0.0
H450 H 0.6931 0.95153 0.84195 0.0
H451 H 0.67762 0.9521 0.68588 0.0
H452 H 0.65225 0.97732 0.71299 0.0
H453 H 0.64079 0.94482 0.67771 0.0
H454 H 0.56858 0.88948 0.94054 0.0
H455 H 0.54139 0.93066 0.96832 0.0
H456 H 0.6154 0.98607 0.85195 0.0
C457 C 0.67691 0.89464 0.79748 0.0
C458 C 0.67537 0.86489 0.81331 0.0
C459 C 0.64907 0.85034 0.8515 0.0
C460 C 0.62492 0.86512 0.87396 0.0
C461 C 0.62739 0.89447 0.85847 0.0
C462 C 0.65276 0.90904 0.8207 0.0
C463 C 0.65038 0.94054 0.81491 0.0
C464 C 0.6707 0.95374 0.87014 0.0
C465 C 0.65556 0.95452 0.71705 0.0
C466 C 0.61976 0.94154 0.85629 0.0
C467 C 0.60677 0.91478 0.88061 0.0
C468 C 0.57857 0.91048 0.92122 0.0
C469 C 0.56327 0.93406 0.93681 0.0
C470 C 0.57616 0.96172 0.91234 0.0
C471 C 0.60486 0.9653 0.87167 0.0
H472 H 0.62896 0.57303 0.93851 0.0
H473 H 0.55588 0.62321 0.95343 0.0
H474 H 0.58738 0.66624 0.91471 0.0
H475 H 0.67526 0.62196 0.031 0.0
H476 H 0.7071 0.61681 0.95789 0.0
H477 H 0.67923 0.58909 -0.0129 0.0
H478 H 0.67716 0.58729 0.81995 0.0
H479 H 0.70501 0.615 0.79027 0.0
H480 H 0.67174 0.61891 0.74897 0.0
H481 H 0.62693 0.70581 0.87349 0.0
H482 H 0.67028 0.73735 0.83363 0.0
H483 H 0.72104 0.66504 0.84097 0.0
C484 C 0.61948 0.59303 0.93377 0.0
C485 C 0.58901 0.59374 0.95016 0.0
C486 C 0.5785 0.62103 0.94222 0.0
C487 C 0.5965 0.64606 0.91985 0.0
C488 C 0.62593 0.64465 0.90437 0.0
C489 C 0.63752 0.61882 0.91087 0.0
C490 C 0.67019 0.62387 0.89011 0.0
C491 C 0.68375 0.61223 0.97136 0.0
C492 C 0.68171 0.61046 0.80742 0.0
C493 C 0.675 0.65631 0.87116 0.0
C494 C 0.64892 0.66766 0.88009 0.0
C495 C 0.64734 0.69689 0.86649 0.0
C496 C 0.67249 0.71493 0.84352 0.0
C497 C 0.69999 0.70459 0.83319 0.0
C498 C 0.70084 0.67436 0.84766 0.0
H499 H 0.69193 0.32031 0.22767 0.0
H500 H 0.76357 0.38171 0.19782 0.0
H501 H 0.73356 0.41927 0.1513 0.0
H502 H 0.66284 0.35031 0.03796 0.0
H503 H 0.62637 0.34325 0.08908 0.0
H504 H 0.65295 0.32101 0.12507 0.0
H505 H 0.63834 0.33038 0.28807 0.0
H506 H 0.61162 0.35257 0.25263 0.0
H507 H 0.63803 0.36607 0.31243 0.0
H508 H 0.69694 0.45003 0.09767 0.0
H509 H 0.65549 0.47194 0.04699 0.0
H510 H 0.60647 0.39185 0.11629 0.0
C511 C 0.70118 0.3417 0.21257 0.0
C512 C 0.73021 0.34791 0.21681 0.0
C513 C 0.74147 0.37624 0.19535 0.0
C514 C 0.72457 0.39783 0.16873 0.0
C515 C 0.69625 0.39099 0.16394 0.0
C516 C 0.68452 0.36368 0.18577 0.0
C517 C 0.65359 0.36211 0.17265 0.0
C518 C 0.64866 0.34304 0.10198 0.0
C519 C 0.63426 0.35219 0.26176 0.0
C520 C 0.64997 0.3927 0.13932 0.0
C521 C 0.67486 0.40898 0.13489 0.0
C522 C 0.67712 0.43762 0.10278 0.0
C523 C 0.65328 0.45003 0.07511 0.0
C524 C 0.62728 0.43398 0.08067 0.0
C525 C 0.62588 0.40483 0.11258 0.0
H526 H 0.92897 0.47694 0.44942 0.0
H527 H 1.00249 0.4302 0.48321 0.0
H528 H 0.98317 0.39235 0.40849 0.0
H529 H 0.87616 0.41388 0.47113 0.0
H530 H 0.85787 0.43202 0.38787 0.0
H531 H 0.87497 0.45155 0.46086 0.0
H532 H 0.90288 0.48248 0.32101 0.0
H533 H 0.88718 0.46212 0.24748 0.0
H534 H 0.92518 0.46615 0.23967 0.0
H535 H 0.95978 0.36436 0.30838 0.0
H536 H 0.92863 0.34285 0.21478 0.0
H537 H 0.87151 0.40912 0.24499 0.0
C538 C 0.94006 0.45795 0.44541 0.0
C539 C 0.96692 0.45603 0.47158 0.0
C540 C 0.98169 0.43155 0.46336 0.0
C541 C 0.97101 0.41022 0.42063 0.0
C542 C 0.94545 0.41385 0.38834 0.0
C543 C 0.92972 0.43668 0.40269 0.0
C544 C 0.90414 0.43686 0.3552 0.0
C545 C 0.87666 0.43335 0.42279 0.0
C546 C 0.90493 0.46348 0.28682 0.0
C547 C 0.90849 0.41115 0.30942 0.0
C548 C 0.93235 0.3981 0.32935 0.0
C549 C 0.94081 0.37414 0.29331 0.0
C550 C 0.92338 0.36234 0.23957 0.0
C551 C 0.89808 0.37465 0.22314 0.0
C552 C 0.89112 0.39981 0.25571 0.0
H553 H 0.86763 0.64738 0.6417 0.0
H554 H 0.90533 0.73094 0.64468 0.0
H555 H 0.95036 0.71812 0.56431 0.0
H556 H 0.92946 0.61128 0.68297 0.0
H557 H 0.92366 0.58496 0.61221 0.0
H558 H 0.89401 0.60133 0.66566 0.0
H559 H 0.87853 0.61624 0.51152 0.0
H560 H 0.90825 0.60002 0.4576 0.0
H561 H 0.90331 0.63653 0.42367 0.0
H562 H 0.9921 0.69556 0.48536 0.0
H563 H 0.02725 0.66454 0.42238 0.0
H564 H 0.96269 0.59531 0.47426 0.0
C565 C 0.88536 0.66297 0.62486 0.0
C566 C 0.88258 0.69051 0.64671 0.0
C567 C 0.90644 0.71017 0.62511 0.0
C568 C 0.93226 0.70296 0.58021 0.0
C569 C 0.93413 0.67582 0.558 0.0
C570 C 0.91135 0.65606 0.5802 0.0
C571 C 0.91922 0.62804 0.55164 0.0
C572 C 0.91642 0.60505 0.63297 0.0
C573 C 0.90126 0.61973 0.48196 0.0
C574 C 0.94998 0.63507 0.5105 0.0
C575 C 0.95819 0.66276 0.5143 0.0
C576 C 0.98583 0.67386 0.4818 0.0
C577 C 1.00567 0.65609 0.44578 0.0
C578 C 0.99785 0.62747 0.44272 0.0
C579 C 0.96946 0.6171 0.47484 0.0
H580 H 0.37764 0.32266 0.1733 0.0
H581 H 0.30626 0.37403 0.21792 0.0
H582 H 0.33841 0.4165 0.18367 0.0
H583 H 0.42729 0.36712 0.27049 0.0
H584 H 0.45789 0.36317 0.19039 0.0
H585 H 0.42965 0.33578 0.21728 0.0
H586 H 0.42464 0.33858 0.05039 0.0
H587 H 0.45286 0.36597 0.02302 0.0
H588 H 0.41882 0.37183 -0.01112 0.0
H589 H 0.37781 0.45504 0.14357 0.0
H590 H 0.42106 0.48628 0.10362 0.0
H591 H 0.4712 0.41388 0.08387 0.0
C592 C 0.36869 0.34282 0.17595 0.0
C593 C 0.33842 0.34409 0.19835 0.0
C594 C 0.3286 0.37149 0.20052 0.0
C595 C 0.34701 0.39618 0.18118 0.0
C596 C 0.37619 0.39425 0.15925 0.0
C597 C 0.38721 0.3683 0.15665 0.0
C598 C 0.41983 0.37295 0.13131 0.0
C599 C 0.43455 0.35891 0.20686 0.0
C600 C 0.42962 0.36165 0.04316 0.0
C601 C 0.4252 0.40534 0.12012 0.0
C602 C 0.39939 0.41689 0.13673 0.0
C603 C 0.39804 0.44603 0.13068 0.0
C604 C 0.42318 0.46386 0.10748 0.0
C605 C 0.4505 0.45344 0.08973 0.0
C606 C 0.45116 0.42324 0.09665 0.0
H607 H 0.38687 0.59273 0.986 0.0
H608 H 0.46281 0.6489 0.9196 0.0
H609 H 0.43481 0.68662 0.859 0.0
H610 H 0.35279 0.61854 0.79474 0.0
H611 H 0.31784 0.61512 0.85922 0.0
H612 H 0.34427 0.59196 0.89091 0.0
H613 H 0.33735 0.60677 0.04946 0.0
H614 H 0.31094 0.62997 0.01825 0.0
H615 H 0.34122 0.64349 0.06169 0.0
H616 H 0.3979 0.71897 0.81258 0.0
H617 H 0.35531 0.74357 0.78527 0.0
H618 H 0.30279 0.66668 0.88548 0.0
C619 C 0.39765 0.61289 0.9577 0.0
C620 C 0.42726 0.61756 0.9552 0.0
C621 C 0.44049 0.64437 0.91901 0.0
C622 C 0.42463 0.66605 0.88531 0.0
C623 C 0.39551 0.66066 0.8887 0.0
C624 C 0.38213 0.63472 0.92402 0.0
C625 C 0.3504 0.63469 0.92339 0.0
C626 C 0.34077 0.61384 0.86349 0.0
C627 C 0.33402 0.62836 0.01887 0.0
C628 C 0.34791 0.6648 0.88318 0.0
C629 C 0.3742 0.67938 0.86327 0.0
C630 C 0.37725 0.7077 0.82761 0.0
C631 C 0.35285 0.72152 0.81254 0.0
C632 C 0.3256 0.70714 0.83327 0.0
C633 C 0.32327 0.67827 0.86835 0.0
H634 H 0.18192 0.60451 0.78756 0.0
H635 H 0.25658 0.65976 0.68888 0.0
H636 H 0.25993 0.64277 0.54303 0.0
H637 H 0.20696 0.54732 0.61222 0.0
H638 H 0.16994 0.53941 0.60837 0.0
H639 H 0.18155 0.54494 0.7126 0.0
H640 H 0.1457 0.58239 0.73023 0.0
H641 H 0.13446 0.5781 0.62626 0.0
H642 H 0.14728 0.61247 0.64507 0.0
H643 H 0.24148 0.63947 0.40544 0.0
H644 H 0.20724 0.64388 0.29777 0.0
H645 H 0.14953 0.58249 0.47433 0.0
C646 C 0.20007 0.61109 0.73684 0.0
C647 C 0.21876 0.63337 0.74743 0.0
C648 C 0.24215 0.64252 0.68063 0.0
C649 C 0.24428 0.63285 0.59787 0.0
C650 C 0.22366 0.61293 0.58496 0.0
C651 C 0.20297 0.60064 0.65457 0.0
C652 C 0.18072 0.58342 0.61966 0.0
C653 C 0.18508 0.55191 0.63934 0.0
C654 C 0.15029 0.5896 0.65735 0.0
C655 C 0.18834 0.59355 0.52073 0.0
C656 C 0.214 0.60934 0.50116 0.0
C657 C 0.22187 0.62649 0.41904 0.0
C658 C 0.20235 0.62912 0.35852 0.0
C659 C 0.17562 0.61437 0.38072 0.0
C660 C 0.16975 0.59455 0.4584 0.0
H661 H 0.14433 0.36955 0.31762 0.0
H662 H 0.23104 0.40532 0.26091 0.0
H663 H 0.21405 0.45277 0.26473 0.0
H664 H 0.11217 0.42664 0.19319 0.0
H665 H 0.08088 0.42428 0.27579 0.0
H666 H 0.09989 0.39345 0.25997 0.0
H667 H 0.10476 0.38611 0.42811 0.0
H668 H 0.08594 0.41701 0.44416 0.0
H669 H 0.12068 0.41419 0.47607 0.0
H670 H 0.18723 0.49673 0.28283 0.0
H671 H 0.15318 0.53274 0.31239 0.0
H672 H 0.08415 0.46795 0.36395 0.0
C673 C 0.15972 0.38742 0.30438 0.0
C674 C 0.18906 0.38356 0.28562 0.0
C675 C 0.2085 0.40754 0.27098 0.0
C676 C 0.199 0.43468 0.27439 0.0
C677 C 0.16995 0.43764 0.29344 0.0
C678 C 0.1506 0.4146 0.30809 0.0
C679 C 0.12063 0.42324 0.33153 0.0
C680 C 0.10232 0.4165 0.26089 0.0
C681 C 0.10723 0.40931 0.42555 0.0
C682 C 0.12613 0.45469 0.32865 0.0
C683 C 0.15469 0.46266 0.30613 0.0
C684 C 0.16482 0.49067 0.30016 0.0
C685 C 0.14529 0.51101 0.31721 0.0
C686 C 0.11589 0.5033 0.34051 0.0
C687 C 0.1064 0.47466 0.3463 0.0
H688 H 0.99738 0.04725 0.82824 0.0
H689 H 0.05691 0.98342 0.77758 0.0
H690 H 0.0607 0.9747 0.93532 0.0
H691 H 0.03328 0.07495 -0.00489 0.0
H692 H 1.00138 0.08115 0.06622 0.0
H693 H 1.00157 0.08237 0.94767 0.0
H694 H 0.95928 0.04489 0.97745 0.0
H695 H 0.95902 0.04352 0.09613 0.0
H696 H 0.96209 1.01183 0.04503 0.0
H697 H 0.0596 0.97205 0.09248 0.0
H698 H 0.05521 0.97734 0.25052 0.0
H699 H 0.99756 0.04353 0.21093 0.0
C700 C 1.01108 0.03145 0.85079 0.0
C701 C 0.02667 1.01599 0.79 0.0
C702 C 0.0446 0.99559 0.82201 0.0
C703 C 0.04694 0.99031 0.91199 0.0
C704 C 0.03144 1.00568 0.96993 0.0
C705 C 1.01401 0.02597 0.94167 0.0
C706 C 1.00078 0.03988 0.02011 0.0
C707 C 1.0098 0.07146 0.00644 0.0
C708 C 0.96836 0.03471 0.03558 0.0
C709 C 1.01381 0.02418 0.0956 0.0
C710 C 0.0312 1.00446 0.06409 0.0
C711 C 0.04607 0.98739 0.11856 0.0
C712 C 0.04345 0.99066 0.20837 0.0
C713 C 0.02614 1.01094 0.24312 0.0
C714 C 1.01087 0.02781 0.18613 0.0
H715 H 0.24294 0.71183 0.51395 0.0
H716 H 0.27024 0.7993 0.51667 0.0
H717 H 0.26644 0.80991 0.35833 0.0
H718 H 0.28216 0.70867 0.28788 0.0
H719 H 0.25502 0.68453 0.26429 0.0
H720 H 0.26113 0.68563 0.37783 0.0
H721 H 0.20689 0.69272 0.41387 0.0
H722 H 0.20238 0.69541 0.29786 0.0
H723 H 0.19317 0.72372 0.36058 0.0
H724 H 0.26009 0.81227 0.20326 0.0
H725 H 0.25569 0.80518 0.04955 0.0
H726 H 0.2335 0.71623 0.13715 0.0
C727 C 0.24808 0.73314 0.48097 0.0
C728 C 0.25685 0.75468 0.52818 0.0
C729 C 0.26369 0.7823 0.48233 0.0
C730 C 0.26139 0.7887 0.39222 0.0
C731 C 0.25247 0.76726 0.34786 0.0
C732 C 0.24636 0.73996 0.3895 0.0
C733 C 0.23884 0.7209 0.323 0.0
C734 C 0.26055 0.69858 0.31255 0.0
C735 C 0.20852 0.70738 0.35053 0.0
C736 C 0.2413 0.74198 0.23848 0.0
C737 C 0.24912 0.76857 0.25535 0.0
C738 C 0.25392 0.79159 0.18881 0.0
C739 C 0.25138 0.78731 0.10164 0.0
C740 C 0.24418 0.76019 0.08136 0.0
C741 C 0.23858 0.73726 0.15102 0.0
H742 H 0.4957 1.00753 0.66485 0.0
H743 H 0.55379 0.08098 0.65238 0.0
H744 H 0.56278 0.0846 0.48987 0.0
H745 H 0.53385 0.97748 0.48841 0.0
H746 H 0.50364 0.96641 0.43986 0.0
H747 H 0.49979 0.96945 0.55732 0.0
H748 H 0.46004 1.00349 0.54021 0.0
H749 H 0.46342 1.00019 0.42294 0.0
H750 H 0.46664 0.03444 0.45799 0.0
H751 H 0.57071 0.07788 0.33482 0.0
H752 H 0.57005 0.0669 0.18354 0.0
H753 H 0.50394 1.00042 0.28367 0.0
C754 C 0.50979 0.02467 0.62753 0.0
C755 C 0.52431 0.04372 0.67183 0.0
C756 C 0.54268 0.06584 0.62059 0.0
C757 C 0.54802 0.06814 0.52791 0.0
C758 C 0.53448 0.0485 0.48651 0.0
C759 C 0.51516 0.02764 0.53349 0.0
C760 C 0.50357 1.00972 0.46975 0.0
C761 C 0.51064 0.97894 0.49008 0.0
C762 C 0.47151 1.01211 0.47291 0.0
C763 C 0.5199 0.02364 0.38065 0.0
C764 C 0.53785 0.04567 0.39317 0.0
C765 C 0.55634 0.06106 0.32347 0.0
C766 C 0.55591 0.05446 0.2375 0.0
C767 C 0.53675 0.03298 0.22106 0.0
C768 C 0.51868 1.0171 0.294 0.0
H769 H 0.28619 0.23916 0.96369 0.0
H770 H 0.24858 0.31888 -0.0133 0.0
H771 H 0.25013 0.3274 0.8245 0.0
H772 H 0.3326 0.26159 0.75207 0.0
H773 H 0.32695 0.22907 0.70814 0.0
H774 H 0.32456 0.22913 0.82704 0.0
H775 H 0.27395 0.20487 0.85075 0.0
H776 H 0.27624 0.2046 0.73207 0.0
H777 H 0.24741 0.22066 0.79151 0.0
H778 H 0.25488 0.32811 0.6653 0.0
H779 H 0.25864 0.31931 0.51039 0.0
H780 H 0.29172 0.23816 0.58126 0.0
C781 C 0.27838 0.25839 0.9342 0.0
C782 C 0.26727 0.27836 -0.01216 0.0
C783 C 0.25703 0.30319 0.94723 0.0
C784 C 0.258 0.30836 0.85497 0.0
C785 C 0.26907 0.28843 0.80404 0.0
C786 C 0.27881 0.26379 0.84144 0.0
C787 C 0.28816 0.24545 0.77 0.0
C788 C 0.31996 0.24106 0.76397 0.0
C789 C 0.27037 0.21723 0.78712 0.0
C790 C 0.28179 0.26369 0.68719 0.0
C791 C 0.27117 0.28848 0.70938 0.0
C792 C 0.26309 0.30878 0.64675 0.0
C793 C 0.26524 0.30345 0.55881 0.0
C794 C 0.2752 0.27788 0.53376 0.0
C795 C 0.28415 0.25789 0.59852 0.0
H796 H 0.75578 0.25747 0.97776 0.0
H797 H 0.83917 0.29918 0.96936 0.0
H798 H 0.84536 0.30672 0.80654 0.0
H799 H 0.77648 0.22276 0.77432 0.0
H800 H 0.74275 0.22692 0.73622 0.0
H801 H 0.74482 0.22287 0.85411 0.0
H802 H 0.72024 0.26918 0.86658 0.0
H803 H 0.71849 0.2737 0.74854 0.0
H804 H 0.73544 0.30103 0.79706 0.0
H805 H 0.84111 0.31585 0.65048 0.0
H806 H 0.83053 0.31824 0.49797 0.0
H807 H 0.75176 0.26738 0.59508 0.0
C808 C 0.77552 0.2676 0.94134 0.0
C809 C 0.79679 0.27809 -0.01328 0.0
C810 C 0.82233 0.29132 0.93662 0.0
C811 C 0.82615 0.29575 0.84378 0.0
C812 C 0.80448 0.28641 0.80113 0.0
C813 C 0.77996 0.27196 0.84718 0.0
C814 C 0.76034 0.2644 0.78223 0.0
C815 C 0.75584 0.23233 0.78701 0.0
C816 C 0.73194 0.27789 0.79968 0.0
C817 C 0.77759 0.27754 0.69354 0.0
C818 C 0.80277 0.29035 0.70725 0.0
C819 C 0.82176 0.30541 0.63814 0.0
C820 C 0.8154 0.30678 0.55154 0.0
C821 C 0.79046 0.29274 0.53402 0.0
C822 C 0.7711 0.27813 0.60632 0.0
H823 H 0.7844 0.73422 0.46398 0.0
H824 H 0.75552 0.81803 0.47858 0.0
H825 H 0.75912 0.82628 0.31541 0.0
H826 H 0.83382 0.75121 0.25763 0.0
H827 H 0.82512 0.7193 0.21409 0.0
H828 H 0.82161 0.7196 0.33311 0.0
H829 H 0.76904 0.70108 0.35067 0.0
H830 H 0.77246 0.70047 0.23189 0.0
H831 H 0.74536 0.71984 0.28634 0.0
H832 H 0.76627 0.82671 0.15554 0.0
H833 H 0.77059 0.81751 0.00092 0.0
H834 H 0.79253 0.73224 0.081 0.0
C835 C 0.77882 0.75425 0.43252 0.0
C836 C 0.76972 0.77552 0.48401 0.0
C837 C 0.76239 0.80138 0.44076 0.0
C838 C 0.76458 0.80638 0.34797 0.0
C839 C 0.77384 0.78523 0.29919 0.0
C840 C 0.78041 0.75949 0.33925 0.0
C841 C 0.78827 0.74007 0.2697 0.0
C842 C 0.81904 0.73208 0.26859 0.0
C843 C 0.76754 0.71381 0.2856 0.0
C844 C 0.78488 0.75902 0.18467 0.0
C845 C 0.77698 0.78506 0.20429 0.0
C846 C 0.77224 0.80638 0.13908 0.0
C847 C 0.77471 0.80082 0.05128 0.0
C848 C 0.78156 0.77399 0.0288 0.0
C849 C 0.78737 0.75292 0.09618 0.0
H850 H 0.50186 0.55205 0.7089 0.0
H851 H 0.5416 0.47361 0.76501 0.0
H852 H 0.54354 0.46604 0.6091 0.0
H853 H 0.45966 0.52801 0.5449 0.0
H854 H 0.46484 0.56114 0.47258 0.0
H855 H 0.46459 0.56026 0.59111 0.0
H856 H 0.51397 0.58726 0.56096 0.0
H857 H 0.51444 0.58815 0.44243 0.0
H858 H 0.5429 0.57339 0.49458 0.0
H859 H 0.54428 0.46726 0.4516 0.0
H860 H 0.54301 0.4766 0.29162 0.0
H861 H 0.50246 0.55426 0.32701 0.0
C862 C 0.51063 0.53319 0.68815 0.0
C863 C 0.52168 0.51348 0.74895 0.0
C864 C 0.53324 0.48914 0.71958 0.0
C865 C 0.53433 0.48452 0.63117 0.0
C866 C 0.52377 0.5044 0.57268 0.0
C867 C 0.51206 0.52822 0.59905 0.0
C868 C 0.50339 0.54651 0.51983 0.0
C869 C 0.4712 0.54912 0.53291 0.0
C870 C 0.51965 0.57555 0.5035 0.0
C871 C 0.51255 0.52927 0.44531 0.0
C872 C 0.52411 0.50507 0.4785 0.0
C873 C 0.53511 0.48599 0.42445 0.0
C874 C 0.53439 0.49166 0.33332 0.0
C875 C 0.52268 0.51625 0.29653 0.0
C876 C 0.51139 0.53527 0.35341 0.0
H877 H 0.08108 0.60258 0.66961 0.0
H878 H 0.05315 0.51522 0.66966 0.0
H879 H 0.04547 0.50785 0.83314 0.0
H880 H 0.11752 0.58904 0.87318 0.0
H881 H 0.10676 0.62107 0.91311 0.0
H882 H 0.11268 0.61926 0.79487 0.0
H883 H 0.062 0.63486 0.78505 0.0
H884 H 0.05582 0.63589 0.90376 0.0
H885 H 0.03217 0.61461 0.85353 0.0
H886 H 0.03436 0.51057 -0.00783 0.0
H887 H 0.02927 0.52075 0.14672 0.0
H888 H 0.06757 0.60516 0.05403 0.0
C889 C 0.07416 0.58178 0.70435 0.0
C890 C 0.06751 0.55952 0.65665 0.0
C891 C 0.05813 0.53266 0.7045 0.0
C892 C 0.05365 0.52821 0.79757 0.0
C893 C 0.05902 0.55069 0.84273 0.0
C894 C 0.06983 0.57676 0.79862 0.0
C895 C 0.07316 0.59714 0.86569 0.0
C896 C 0.1044 0.60721 0.86137 0.0
C897 C 0.05468 0.6221 0.8511 0.0
C898 C 0.06219 0.57837 0.95329 0.0
C899 C 0.05378 0.55184 0.93751 0.0
C900 C 0.04138 0.53109 0.0059 0.0
C901 C 0.03835 0.53719 0.09362 0.0
C902 C 0.04817 0.56367 0.11285 0.0
C903 C 0.06002 0.58466 0.04142 0.0
loop_
_geom_bond_atom_site_label_1
_geom_bond_atom_site_label_2
_geom_bond_distance
_geom_bond_site_symmetry_2
_ccdc_geom_bond_type
Zn0 O1 2.055 . S
Zn0 O8 2.046 1_565 S
Zn0 N16 2.036 . S
Zn0 O28 2.053 . S
Zn0 O30 2.066 1_455 S
O1 Zn0 2.055 . S
O1 C4 1.259 1_565 S
C2 O30 1.256 . S
C2 O31 1.244 . S
Zn3 O5 2.046 . S
Zn3 O7 2.055 1_655 S
Zn3 N9 2.036 . S
Zn3 O27 2.066 . S
Zn3 O31 2.053 1_545 S
C4 O1 1.259 1_545 S
C4 O5 1.254 1_455 S
O5 Zn3 2.046 . S
O5 C4 1.254 1_655 S
C6 O27 1.256 1_455 S
C6 O28 1.244 1_545 S
O7 Zn3 2.055 1_455 S
O7 C29 1.259 . S
O8 Zn0 2.046 1_545 S
O8 C29 1.254 . S
N9 Zn3 2.036 . S
N9 C10 1.298 . S
N9 N12 1.398 . S
C10 N9 1.298 . S
C10 N13 1.367 . S
C10 C23 1.481 . S
C11 N12 1.299 . S
C11 N13 1.379 . S
N12 N9 1.398 . S
N12 C11 1.299 . S
N13 C10 1.367 . S
N13 C11 1.379 . S
C14 N16 1.298 . S
C14 N18 1.367 . S
C14 C22 1.481 . S
C15 N17 1.299 . S
C15 N18 1.379 . S
N16 Zn0 2.036 . S
N16 C14 1.298 . S
N16 N17 1.398 . S
N17 C15 1.299 . S
N17 N16 1.398 . S
N18 C14 1.367 . S
N18 C15 1.379 . S
H19 C22 0.980 . S
H20 C22 0.981 . S
H21 C22 0.981 . S
C22 C14 1.481 . S
C22 H19 0.980 . S
C22 H20 0.981 . S
C22 H21 0.981 . S
C23 C10 1.481 . S
C23 H24 0.980 . S
C23 H25 0.981 . S
C23 H26 0.981 . S
H24 C23 0.980 . S
H25 C23 0.981 . S
H26 C23 0.981 . S
O27 Zn3 2.066 . S
O27 C6 1.256 1_655 S
O28 Zn0 2.053 . S
O28 C6 1.244 1_565 S
C29 O7 1.259 . S
C29 O8 1.254 . S
O30 Zn0 2.066 1_655 S
O30 C2 1.256 . S
O31 C2 1.244 . S
O31 Zn3 2.053 1_565 S
Zn32 O33 2.055 . S
Zn32 O40 2.046 . S
Zn32 N48 2.036 . S
Zn32 O60 2.053 . S
Zn32 O62 2.066 . S
O33 Zn32 2.055 . S
O33 C36 1.259 . S
C34 O62 1.256 . S
C34 O63 1.244 . S
Zn35 O37 2.046 . S
Zn35 O39 2.055 . S
Zn35 N41 2.036 . S
Zn35 O59 2.066 . S
Zn35 O63 2.053 . S
C36 O33 1.259 . S
C36 O37 1.254 . S
O37 Zn35 2.046 . S
O37 C36 1.254 . S
C38 O59 1.256 . S
C38 O60 1.244 . S
O39 Zn35 2.055 . S
O39 C61 1.259 . S
O40 Zn32 2.046 . S
O40 C61 1.254 . S
N41 Zn35 2.036 . S
N41 C42 1.298 . S
N41 N44 1.398 . S
C42 N41 1.298 . S
C42 N45 1.367 . S
C42 C55 1.481 . S
C43 N44 1.299 . S
C43 N45 1.379 . S
N44 N41 1.398 . S
N44 C43 1.299 . S
N45 C42 1.367 . S
N45 C43 1.379 . S
C46 N48 1.298 . S
C46 N50 1.367 . S
C46 C54 1.481 . S
C47 N49 1.299 . S
C47 N50 1.379 . S
N48 Zn32 2.036 . S
N48 C46 1.298 . S
N48 N49 1.398 . S
N49 C47 1.299 . S
N49 N48 1.398 . S
N50 C46 1.367 . S
N50 C47 1.379 . S
H51 C54 0.980 . S
H52 C54 0.981 . S
H53 C54 0.981 . S
C54 C46 1.481 . S
C54 H51 0.980 . S
C54 H52 0.981 . S
C54 H53 0.981 . S
C55 C42 1.481 . S
C55 H56 0.980 . S
C55 H57 0.981 . S
C55 H58 0.981 . S
H56 C55 0.980 . S
H57 C55 0.981 . S
H58 C55 0.981 . S
O59 Zn35 2.066 . S
O59 C38 1.256 . S
O60 Zn32 2.053 . S
O60 C38 1.244 . S
C61 O39 1.259 . S
C61 O40 1.254 . S
O62 Zn32 2.066 . S
O62 C34 1.256 . S
O63 C34 1.244 . S
O63 Zn35 2.053 . S
Zn64 O65 2.055 1_556 S
Zn64 O72 2.046 . S
Zn64 N80 2.036 . S
Zn64 O92 2.053 1_545 S
Zn64 O94 2.066 1_556 S
O65 Zn64 2.055 1_554 S
O65 C68 1.259 . S
C66 O94 1.256 . S
C66 O95 1.244 1_545 S
Zn67 O69 2.046 1_566 S
Zn67 O71 2.055 . S
Zn67 N73 2.036 1_556 S
Zn67 O91 2.066 . S
Zn67 O95 2.053 1_556 S
C68 O65 1.259 . S
C68 O69 1.254 . S
O69 Zn67 2.046 1_544 S
O69 C68 1.254 . S
C70 O91 1.256 . S
C70 O92 1.244 . S
O71 Zn67 2.055 . S
O71 C93 1.259 1_565 S
O72 Zn64 2.046 . S
O72 C93 1.254 . S
N73 Zn67 2.036 1_554 S
N73 C74 1.298 1_554 S
N73 N76 1.398 . S
C74 N73 1.298 1_556 S
C74 N77 1.367 . S
C74 C87 1.481 . S
C75 N76 1.299 . S
C75 N77 1.379 1_554 S
N76 N73 1.398 . S
N76 C75 1.299 . S
N77 C74 1.367 . S
N77 C75 1.379 1_556 S
C78 N80 1.298 1_554 S
C78 N82 1.367 . S
C78 C86 1.481 . S
C79 N81 1.299 . S
C79 N82 1.379 1_556 S
N80 Zn64 2.036 . S
N80 C78 1.298 1_556 S
N80 N81 1.398 . S
N81 C79 1.299 . S
N81 N80 1.398 . S
N82 C78 1.367 . S
N82 C79 1.379 1_554 S
H83 C86 0.980 . S
H84 C86 0.981 . S
H85 C86 0.981 . S
C86 C78 1.481 . S
C86 H83 0.980 . S
C86 H84 0.981 . S
C86 H85 0.981 . S
C87 C74 1.481 . S
C87 H88 0.980 . S
C87 H89 0.981 . S
C87 H90 0.981 . S
H88 C87 0.980 . S
H89 C87 0.981 . S
H90 C87 0.981 . S
O91 Zn67 2.066 . S
O91 C70 1.256 . S
O92 Zn64 2.053 1_565 S
O92 C70 1.244 . S
C93 O71 1.259 1_545 S
C93 O72 1.254 . S
O94 Zn64 2.066 1_554 S
O94 C66 1.256 . S
O95 C66 1.244 1_565 S
O95 Zn67 2.053 1_554 S
Zn96 O97 2.055 . S
Zn96 O104 2.046 . S
Zn96 N112 2.036 . S
Zn96 O124 2.053 . S
Zn96 O126 2.066 . S
O97 Zn96 2.055 . S
O97 C100 1.259 . S
C98 O126 1.256 . S
C98 O127 1.244 . S
Zn99 O101 2.046 . S
Zn99 O103 2.055 . S
Zn99 N105 2.036 . S
Zn99 O123 2.066 . S
Zn99 O127 2.053 . S
C100 O97 1.259 . S
C100 O101 1.254 . S
O101 Zn99 2.046 . S
O101 C100 1.254 . S
C102 O123 1.256 . S
C102 O124 1.244 . S
O103 Zn99 2.055 . S
O103 C125 1.259 . S
O104 Zn96 2.046 . S
O104 C125 1.254 . S
N105 Zn99 2.036 . S
N105 C106 1.298 . S
N105 N108 1.398 . S
C106 N105 1.298 . S
C106 N109 1.367 . S
C106 C119 1.481 . S
C107 N108 1.299 . S
C107 N109 1.379 . S
N108 N105 1.398 . S
N108 C107 1.299 . S
N109 C106 1.367 . S
N109 C107 1.379 . S
C110 N112 1.298 . S
C110 N114 1.367 . S
C110 C118 1.481 . S
C111 N113 1.299 . S
C111 N114 1.379 . S
N112 Zn96 2.036 . S
N112 C110 1.298 . S
N112 N113 1.398 . S
N113 C111 1.299 . S
N113 N112 1.398 . S
N114 C110 1.367 . S
N114 C111 1.379 . S
H115 C118 0.980 . S
H116 C118 0.981 . S
H117 C118 0.981 . S
C118 C110 1.481 . S
C118 H115 0.980 . S
C118 H116 0.981 . S
C118 H117 0.981 . S
C119 C106 1.481 . S
C119 H120 0.980 . S
C119 H121 0.981 . S
C119 H122 0.981 . S
H120 C119 0.980 . S
H121 C119 0.981 . S
H122 C119 0.981 . S
O123 Zn99 2.066 . S
O123 C102 1.256 . S
O124 Zn96 2.053 . S
O124 C102 1.244 . S
C125 O103 1.259 . S
C125 O104 1.254 . S
O126 Zn96 2.066 . S
O126 C98 1.256 . S
O127 C98 1.244 . S
O127 Zn99 2.053 . S
Zn128 O129 2.055 . S
Zn128 O136 2.046 . S
Zn128 N144 2.036 . S
Zn128 O156 2.053 . S
Zn128 O158 2.066 . S
O129 Zn128 2.055 . S
O129 C132 1.259 . S
C130 O158 1.256 . S
C130 O159 1.244 . S
Zn131 O133 2.046 . S
Zn131 O135 2.055 . S
Zn131 N137 2.036 . S
Zn131 O155 2.066 . S
Zn131 O159 2.053 . S
C132 O129 1.259 . S
C132 O133 1.254 . S
O133 Zn131 2.046 . S
O133 C132 1.254 . S
C134 O155 1.256 . S
C134 O156 1.244 . S
O135 Zn131 2.055 . S
O135 C157 1.259 . S
O136 Zn128 2.046 . S
O136 C157 1.254 . S
N137 Zn131 2.036 . S
N137 C138 1.298 . S
N137 N140 1.398 . S
C138 N137 1.298 . S
C138 N141 1.367 . S
C138 C151 1.481 . S
C139 N140 1.299 . S
C139 N141 1.379 . S
N140 N137 1.398 . S
N140 C139 1.299 . S
N141 C138 1.367 . S
N141 C139 1.379 . S
C142 N144 1.298 . S
C142 N146 1.367 . S
C142 C150 1.481 . S
C143 N145 1.299 . S
C143 N146 1.379 . S
N144 Zn128 2.036 . S
N144 C142 1.298 . S
N144 N145 1.398 . S
N145 C143 1.299 . S
N145 N144 1.398 . S
N146 C142 1.367 . S
N146 C143 1.379 . S
H147 C150 0.980 . S
H148 C150 0.981 . S
H149 C150 0.981 . S
C150 C142 1.481 . S
C150 H147 0.980 . S
C150 H148 0.981 . S
C150 H149 0.981 . S
C151 C138 1.481 . S
C151 H152 0.980 . S
C151 H153 0.981 . S
C151 H154 0.981 . S
H152 C151 0.980 . S
H153 C151 0.981 . S
H154 C151 0.981 . S
O155 Zn131 2.066 . S
O155 C134 1.256 . S
O156 Zn128 2.053 . S
O156 C134 1.244 . S
C157 O135 1.259 . S
C157 O136 1.254 . S
O158 Zn128 2.066 . S
O158 C130 1.256 . S
O159 C130 1.244 . S
O159 Zn131 2.053 . S
Zn160 O161 2.055 . S
Zn160 O168 2.046 . S
Zn160 N176 2.036 . S
Zn160 O188 2.053 . S
Zn160 O190 2.066 . S
O161 Zn160 2.055 . S
O161 C164 1.259 . S
C162 O190 1.256 . S
C162 O191 1.244 . S
Zn163 O165 2.046 . S
Zn163 O167 2.055 . S
Zn163 N169 2.036 . S
Zn163 O187 2.066 . S
Zn163 O191 2.053 . S
C164 O161 1.259 . S
C164 O165 1.254 . S
O165 Zn163 2.046 . S
O165 C164 1.254 . S
C166 O187 1.256 . S
C166 O188 1.244 . S
O167 Zn163 2.055 . S
O167 C189 1.259 . S
O168 Zn160 2.046 . S
O168 C189 1.254 . S
N169 Zn163 2.036 . S
N169 C170 1.298 . S
N169 N172 1.398 . S
C170 N169 1.298 . S
C170 N173 1.367 . S
C170 C183 1.481 . S
C171 N172 1.299 . S
C171 N173 1.379 . S
N172 N169 1.398 . S
N172 C171 1.299 . S
N173 C170 1.367 . S
N173 C171 1.379 . S
C174 N176 1.298 . S
C174 N178 1.367 . S
C174 C182 1.481 . S
C175 N177 1.299 . S
C175 N178 1.379 . S
N176 Zn160 2.036 . S
N176 C174 1.298 . S
N176 N177 1.398 . S
N177 C175 1.299 . S
N177 N176 1.398 . S
N178 C174 1.367 . S
N178 C175 1.379 . S
H179 C182 0.980 . S
H180 C182 0.981 . S
H181 C182 0.981 . S
C182 C174 1.481 . S
C182 H179 0.980 . S
C182 H180 0.981 . S
C182 H181 0.981 . S
C183 C170 1.481 . S
C183 H184 0.980 . S
C183 H185 0.981 . S
C183 H186 0.981 . S
H184 C183 0.980 . S
H185 C183 0.981 . S
H186 C183 0.981 . S
O187 Zn163 2.066 . S
O187 C166 1.256 . S
O188 Zn160 2.053 . S
O188 C166 1.244 . S
C189 O167 1.259 . S
C189 O168 1.254 . S
O190 Zn160 2.066 . S
O190 C162 1.256 . S
O191 C162 1.244 . S
O191 Zn163 2.053 . S
Zn192 O193 2.055 . S
Zn192 O200 2.046 . S
Zn192 N208 2.036 . S
Zn192 O220 2.053 1_554 S
Zn192 O222 2.066 . S
O193 Zn192 2.055 . S
O193 C196 1.259 . S
C194 O222 1.256 . S
C194 O223 1.244 . S
Zn195 O197 2.046 . S
Zn195 O199 2.055 1_554 S
Zn195 N201 2.036 . S
Zn195 O219 2.066 1_554 S
Zn195 O223 2.053 . S
C196 O193 1.259 . S
C196 O197 1.254 . S
O197 Zn195 2.046 . S
O197 C196 1.254 . S
C198 O219 1.256 . S
C198 O220 1.244 . S
O199 Zn195 2.055 1_556 S
O199 C221 1.259 . S
O200 Zn192 2.046 . S
O200 C221 1.254 1_554 S
N201 Zn195 2.036 . S
N201 C202 1.298 1_554 S
N201 N204 1.398 . S
C202 N201 1.298 1_556 S
C202 N205 1.367 . S
C202 C215 1.481 . S
C203 N204 1.299 . S
C203 N205 1.379 1_554 S
N204 N201 1.398 . S
N204 C203 1.299 . S
N205 C202 1.367 . S
N205 C203 1.379 1_556 S
C206 N208 1.298 . S
C206 N210 1.367 . S
C206 C214 1.481 . S
C207 N209 1.299 . S
C207 N210 1.379 1_556 S
N208 Zn192 2.036 . S
N208 C206 1.298 . S
N208 N209 1.398 1_554 S
N209 C207 1.299 . S
N209 N208 1.398 1_556 S
N210 C206 1.367 . S
N210 C207 1.379 1_554 S
H211 C214 0.980 . S
H212 C214 0.981 . S
H213 C214 0.981 . S
C214 C206 1.481 . S
C214 H211 0.980 . S
C214 H212 0.981 . S
C214 H213 0.981 . S
C215 C202 1.481 . S
C215 H216 0.980 . S
C215 H217 0.981 . S
C215 H218 0.981 . S
H216 C215 0.980 . S
H217 C215 0.981 . S
H218 C215 0.981 . S
O219 Zn195 2.066 1_556 S
O219 C198 1.256 . S
O220 Zn192 2.053 1_556 S
O220 C198 1.244 . S
C221 O199 1.259 . S
C221 O200 1.254 1_556 S
O222 Zn192 2.066 . S
O222 C194 1.256 . S
O223 C194 1.244 . S
O223 Zn195 2.053 . S
Zn224 O225 2.055 . S
Zn224 O232 2.046 . S
Zn224 N240 2.036 . S
Zn224 O252 2.053 . S
Zn224 O254 2.066 1_655 S
O225 Zn224 2.055 . S
O225 C228 1.259 1_655 S
C226 O254 1.256 . S
C226 O255 1.244 . S
Zn227 O229 2.046 . S
Zn227 O231 2.055 1_455 S
Zn227 N233 2.036 . S
Zn227 O251 2.066 . S
Zn227 O255 2.053 . S
C228 O225 1.259 1_455 S
C228 O229 1.254 . S
O229 Zn227 2.046 . S
O229 C228 1.254 . S
C230 O251 1.256 . S
C230 O252 1.244 1_455 S
O231 Zn227 2.055 1_655 S
O231 C253 1.259 . S
O232 Zn224 2.046 . S
O232 C253 1.254 . S
N233 Zn227 2.036 . S
N233 C234 1.298 . S
N233 N236 1.398 . S
C234 N233 1.298 . S
C234 N237 1.367 . S
C234 C247 1.481 . S
C235 N236 1.299 . S
C235 N237 1.379 . S
N236 N233 1.398 . S
N236 C235 1.299 . S
N237 C234 1.367 . S
N237 C235 1.379 . S
C238 N240 1.298 . S
C238 N242 1.367 . S
C238 C246 1.481 . S
C239 N241 1.299 . S
C239 N242 1.379 . S
N240 Zn224 2.036 . S
N240 C238 1.298 . S
N240 N241 1.398 . S
N241 C239 1.299 . S
N241 N240 1.398 . S
N242 C238 1.367 . S
N242 C239 1.379 . S
H243 C246 0.980 . S
H244 C246 0.981 . S
H245 C246 0.981 . S
C246 C238 1.481 . S
C246 H243 0.980 . S
C246 H244 0.981 . S
C246 H245 0.981 . S
C247 C234 1.481 . S
C247 H248 0.980 . S
C247 H249 0.981 . S
C247 H250 0.981 . S
H248 C247 0.980 . S
H249 C247 0.981 . S
H250 C247 0.981 . S
O251 Zn227 2.066 . S
O251 C230 1.256 . S
O252 Zn224 2.053 . S
O252 C230 1.244 1_655 S
C253 O231 1.259 . S
C253 O232 1.254 . S
O254 Zn224 2.066 1_455 S
O254 C226 1.256 . S
O255 C226 1.244 . S
O255 Zn227 2.053 . S
H256 C268 0.930 . S
H257 C270 0.930 . S
H258 C271 0.930 . S
H259 C275 0.959 . S
H260 C275 0.959 . S
H261 C275 0.961 . S
H262 C276 0.960 . S
H263 C276 0.961 . S
H264 C276 0.959 . S
H265 C279 0.929 . S
H266 C280 0.931 . S
H267 C282 0.930 . S
C268 H256 0.930 . S
C268 C269 1.399 . S
C268 C273 1.399 . S
C269 C268 1.399 . S
C269 C270 1.376 . S
C270 H257 0.930 . S
C270 C269 1.376 . S
C270 C271 1.388 . S
C271 H258 0.930 . S
C271 C270 1.388 . S
C271 C272 1.390 . S
C272 C271 1.390 . S
C272 C273 1.394 . S
C272 C278 1.465 . S
C273 C268 1.399 . S
C273 C272 1.394 . S
C273 C274 1.516 . S
C274 C273 1.516 . S
C274 C275 1.502 . S
C274 C276 1.561 . S
C274 C277 1.526 . S
C275 H259 0.959 . S
C275 H260 0.959 . S
C275 H261 0.961 . S
C275 C274 1.502 . S
C276 H262 0.960 . S
C276 H263 0.961 . S
C276 H264 0.959 . S
C276 C274 1.561 . S
C277 C274 1.526 . S
C277 C278 1.396 . S
C277 C282 1.390 . S
C278 C272 1.465 . S
C278 C277 1.396 . S
C278 C279 1.399 . S
C279 H265 0.929 . S
C279 C278 1.399 . S
C279 C280 1.385 . S
C280 H266 0.931 . S
C280 C279 1.385 . S
C280 C281 1.389 . S
C281 C280 1.389 . S
C281 C282 1.387 . S
C282 H267 0.930 . S
C282 C277 1.390 . S
C282 C281 1.387 . S
H283 C295 0.930 . S
H284 C297 0.930 . S
H285 C298 0.930 . S
H286 C302 0.959 . S
H287 C302 0.959 . S
H288 C302 0.961 . S
H289 C303 0.960 . S
H290 C303 0.961 . S
H291 C303 0.959 . S
H292 C306 0.929 . S
H293 C307 0.931 . S
H294 C309 0.930 . S
C295 H283 0.930 . S
C295 C296 1.399 . S
C295 C300 1.399 . S
C296 C295 1.399 . S
C296 C297 1.376 . S
C297 H284 0.930 . S
C297 C296 1.376 . S
C297 C298 1.388 . S
C298 H285 0.930 . S
C298 C297 1.388 . S
C298 C299 1.390 . S
C299 C298 1.390 . S
C299 C300 1.394 . S
C299 C305 1.465 . S
C300 C295 1.399 . S
C300 C299 1.394 . S
C300 C301 1.516 . S
C301 C300 1.516 . S
C301 C302 1.502 . S
C301 C303 1.561 . S
C301 C304 1.526 . S
C302 H286 0.959 . S
C302 H287 0.959 . S
C302 H288 0.961 . S
C302 C301 1.502 . S
C303 H289 0.960 . S
C303 H290 0.961 . S
C303 H291 0.959 . S
C303 C301 1.561 . S
C304 C301 1.526 . S
C304 C305 1.396 . S
C304 C309 1.390 . S
C305 C299 1.465 . S
C305 C304 1.396 . S
C305 C306 1.399 . S
C306 H292 0.929 . S
C306 C305 1.399 . S
C306 C307 1.385 . S
C307 H293 0.931 . S
C307 C306 1.385 . S
C307 C308 1.389 . S
C308 C307 1.389 . S
C308 C309 1.387 . S
C309 H294 0.930 . S
C309 C304 1.390 . S
C309 C308 1.387 . S
H310 C322 0.930 . S
H311 C324 0.930 . S
H312 C325 0.930 . S
H313 C329 0.959 . S
H314 C329 0.959 . S
H315 C329 0.961 . S
H316 C330 0.960 . S
H317 C330 0.961 . S
H318 C330 0.959 . S
H319 C333 0.929 . S
H320 C334 0.931 . S
H321 C336 0.930 . S
C322 H310 0.930 . S
C322 C323 1.399 . S
C322 C327 1.399 . S
C323 C322 1.399 . S
C323 C324 1.376 . S
C324 H311 0.930 . S
C324 C323 1.376 . S
C324 C325 1.388 . S
C325 H312 0.930 . S
C325 C324 1.388 . S
C325 C326 1.390 . S
C326 C325 1.390 . S
C326 C327 1.394 . S
C326 C332 1.465 . S
C327 C322 1.399 . S
C327 C326 1.394 . S
C327 C328 1.516 . S
C328 C327 1.516 . S
C328 C329 1.502 1_556 S
C328 C330 1.561 1_556 S
C328 C331 1.526 . S
C329 H313 0.959 . S
C329 H314 0.959 . S
C329 H315 0.961 . S
C329 C328 1.502 1_554 S
C330 H316 0.960 . S
C330 H317 0.961 . S
C330 H318 0.959 . S
C330 C328 1.561 1_554 S
C331 C328 1.526 . S
C331 C332 1.396 . S
C331 C336 1.390 1_556 S
C332 C326 1.465 . S
C332 C331 1.396 . S
C332 C333 1.399 . S
C333 H319 0.929 . S
C333 C332 1.399 . S
C333 C334 1.385 . S
C334 H320 0.931 . S
C334 C333 1.385 . S
C334 C335 1.389 . S
C335 C334 1.389 . S
C335 C336 1.387 1_556 S
C336 H321 0.930 . S
C336 C331 1.390 1_554 S
C336 C335 1.387 1_554 S
H337 C349 0.930 1_556 S
H338 C351 0.930 . S
H339 C352 0.930 . S
H340 C356 0.959 . S
H341 C356 0.959 . S
H342 C356 0.961 . S
H343 C357 0.960 1_556 S
H344 C357 0.961 1_556 S
H345 C357 0.959 . S
H346 C360 0.929 . S
H347 C361 0.931 . S
H348 C363 0.930 . S
C349 H337 0.930 1_554 S
C349 C350 1.399 . S
C349 C354 1.399 . S
C350 C349 1.399 . S
C350 C351 1.376 . S
C351 H338 0.930 . S
C351 C350 1.376 . S
C351 C352 1.388 . S
C352 H339 0.930 . S
C352 C351 1.388 . S
C352 C353 1.390 . S
C353 C352 1.390 . S
C353 C354 1.394 . S
C353 C359 1.465 . S
C354 C349 1.399 . S
C354 C353 1.394 . S
C354 C355 1.516 . S
C355 C354 1.516 . S
C355 C356 1.502 1_554 S
C355 C357 1.561 . S
C355 C358 1.526 . S
C356 H340 0.959 . S
C356 H341 0.959 . S
C356 H342 0.961 . S
C356 C355 1.502 1_556 S
C357 H343 0.960 1_554 S
C357 H344 0.961 1_554 S
C357 H345 0.959 . S
C357 C355 1.561 . S
C358 C355 1.526 . S
C358 C359 1.396 . S
C358 C363 1.390 . S
C359 C353 1.465 . S
C359 C358 1.396 . S
C359 C360 1.399 . S
C360 H346 0.929 . S
C360 C359 1.399 . S
C360 C361 1.385 . S
C361 H347 0.931 . S
C361 C360 1.385 . S
C361 C362 1.389 . S
C362 C361 1.389 . S
C362 C363 1.387 . S
C363 H348 0.930 . S
C363 C358 1.390 . S
C363 C362 1.387 . S
H364 C376 0.930 . S
H365 C378 0.930 . S
H366 C379 0.930 . S
H367 C383 0.959 . S
H368 C383 0.959 . S
H369 C383 0.961 . S
H370 C384 0.960 . S
H371 C384 0.961 . S
H372 C384 0.959 . S
H373 C387 0.929 . S
H374 C388 0.931 . S
H375 C390 0.930 . S
C376 H364 0.930 . S
C376 C377 1.399 . S
C376 C381 1.399 . S
C377 C376 1.399 . S
C377 C378 1.376 . S
C378 H365 0.930 . S
C378 C377 1.376 . S
C378 C379 1.388 . S
C379 H366 0.930 . S
C379 C378 1.388 . S
C379 C380 1.390 . S
C380 C379 1.390 . S
C380 C381 1.394 . S
C380 C386 1.465 . S
C381 C376 1.399 . S
C381 C380 1.394 . S
C381 C382 1.516 . S
C382 C381 1.516 . S
C382 C383 1.502 . S
C382 C384 1.561 . S
C382 C385 1.526 . S
C383 H367 0.959 . S
C383 H368 0.959 . S
C383 H369 0.961 . S
C383 C382 1.502 . S
C384 H370 0.960 . S
C384 H371 0.961 . S
C384 H372 0.959 . S
C384 C382 1.561 . S
C385 C382 1.526 . S
C385 C386 1.396 . S
C385 C390 1.390 . S
C386 C380 1.465 . S
C386 C385 1.396 . S
C386 C387 1.399 . S
C387 H373 0.929 . S
C387 C386 1.399 . S
C387 C388 1.385 . S
C388 H374 0.931 . S
C388 C387 1.385 . S
C388 C389 1.389 . S
C389 C388 1.389 . S
C389 C390 1.387 . S
C390 H375 0.930 . S
C390 C385 1.390 . S
C390 C389 1.387 . S
H391 C403 0.930 . S
H392 C405 0.930 . S
H393 C406 0.930 . S
H394 C410 0.959 . S
H395 C410 0.959 . S
H396 C410 0.961 . S
H397 C411 0.960 . S
H398 C411 0.961 . S
H399 C411 0.959 . S
H400 C414 0.929 . S
H401 C415 0.931 . S
H402 C417 0.930 . S
C403 H391 0.930 . S
C403 C404 1.399 . S
C403 C408 1.399 . S
C404 C403 1.399 . S
C404 C405 1.376 . S
C405 H392 0.930 . S
C405 C404 1.376 . S
C405 C406 1.388 . S
C406 H393 0.930 . S
C406 C405 1.388 . S
C406 C407 1.390 . S
C407 C406 1.390 . S
C407 C408 1.394 . S
C407 C413 1.465 . S
C408 C403 1.399 . S
C408 C407 1.394 . S
C408 C409 1.516 . S
C409 C408 1.516 . S
C409 C410 1.502 . S
C409 C411 1.561 . S
C409 C412 1.526 . S
C410 H394 0.959 . S
C410 H395 0.959 . S
C410 H396 0.961 . S
C410 C409 1.502 . S
C411 H397 0.960 . S
C411 H398 0.961 . S
C411 H399 0.959 . S
C411 C409 1.561 . S
C412 C409 1.526 . S
C412 C413 1.396 . S
C412 C417 1.390 . S
C413 C407 1.465 . S
C413 C412 1.396 . S
C413 C414 1.399 . S
C414 H400 0.929 . S
C414 C413 1.399 . S
C414 C415 1.385 . S
C415 H401 0.931 . S
C415 C414 1.385 . S
C415 C416 1.389 . S
C416 C415 1.389 . S
C416 C417 1.387 . S
C417 H402 0.930 . S
C417 C412 1.390 . S
C417 C416 1.387 . S
H418 C430 0.930 . S
H419 C432 0.930 . S
H420 C433 0.930 . S
H421 C437 0.959 1_554 S
H422 C437 0.959 . S
H423 C437 0.961 . S
H424 C438 0.960 . S
H425 C438 0.961 . S
H426 C438 0.959 . S
H427 C441 0.929 . S
H428 C442 0.931 . S
H429 C444 0.930 1_556 S
C430 H418 0.930 . S
C430 C431 1.399 . S
C430 C435 1.399 . S
C431 C430 1.399 . S
C431 C432 1.376 . S
C432 H419 0.930 . S
C432 C431 1.376 . S
C432 C433 1.388 . S
C433 H420 0.930 . S
C433 C432 1.388 . S
C433 C434 1.390 . S
C434 C433 1.390 . S
C434 C435 1.394 . S
C434 C440 1.465 . S
C435 C430 1.399 . S
C435 C434 1.394 . S
C435 C436 1.516 . S
C436 C435 1.516 . S
C436 C437 1.502 1_554 S
C436 C438 1.561 1_554 S
C436 C439 1.526 . S
C437 H421 0.959 1_556 S
C437 H422 0.959 . S
C437 H423 0.961 . S
C437 C436 1.502 1_556 S
C438 H424 0.960 . S
C438 H425 0.961 . S
C438 H426 0.959 . S
C438 C436 1.561 1_556 S
C439 C436 1.526 . S
C439 C440 1.396 . S
C439 C444 1.390 . S
C440 C434 1.465 . S
C440 C439 1.396 . S
C440 C441 1.399 . S
C441 H427 0.929 . S
C441 C440 1.399 . S
C441 C442 1.385 . S
C442 H428 0.931 . S
C442 C441 1.385 . S
C442 C443 1.389 . S
C443 C442 1.389 . S
C443 C444 1.387 . S
C444 H429 0.930 1_554 S
C444 C439 1.390 . S
C444 C443 1.387 . S
H445 C457 0.930 . S
H446 C459 0.930 . S
H447 C460 0.930 1_554 S
H448 C464 0.959 . S
H449 C464 0.959 . S
H450 C464 0.961 . S
H451 C465 0.960 . S
H452 C465 0.961 . S
H453 C465 0.959 . S
H454 C468 0.929 . S
H455 C469 0.931 . S
H456 C471 0.930 . S
C457 H445 0.930 . S
C457 C458 1.399 . S
C457 C462 1.399 . S
C458 C457 1.399 . S
C458 C459 1.376 . S
C459 H446 0.930 . S
C459 C458 1.376 . S
C459 C460 1.388 . S
C460 H447 0.930 1_556 S
C460 C459 1.388 . S
C460 C461 1.390 . S
C461 C460 1.390 . S
C461 C462 1.394 . S
C461 C467 1.465 . S
C462 C457 1.399 . S
C462 C461 1.394 . S
C462 C463 1.516 . S
C463 C462 1.516 . S
C463 C464 1.502 . S
C463 C465 1.561 . S
C463 C466 1.526 . S
C464 H448 0.959 . S
C464 H449 0.959 . S
C464 H450 0.961 . S
C464 C463 1.502 . S
C465 H451 0.960 . S
C465 H452 0.961 . S
C465 H453 0.959 . S
C465 C463 1.561 . S
C466 C463 1.526 . S
C466 C467 1.396 . S
C466 C471 1.390 . S
C467 C461 1.465 . S
C467 C466 1.396 . S
C467 C468 1.399 1_556 S
C468 H454 0.929 . S
C468 C467 1.399 1_554 S
C468 C469 1.385 . S
C469 H455 0.931 . S
C469 C468 1.385 . S
C469 C470 1.389 1_554 S
C470 C469 1.389 1_556 S
C470 C471 1.387 . S
C471 H456 0.930 . S
C471 C466 1.390 . S
C471 C470 1.387 . S
H472 C484 0.930 1_554 S
H473 C486 0.930 . S
H474 C487 0.930 . S
H475 C491 0.959 . S
H476 C491 0.959 . S
H477 C491 0.961 . S
H478 C492 0.960 . S
H479 C492 0.961 . S
H480 C492 0.959 . S
H481 C495 0.929 . S
H482 C496 0.931 . S
H483 C498 0.930 . S
C484 H472 0.930 1_556 S
C484 C485 1.399 . S
C484 C489 1.399 . S
C485 C484 1.399 . S
C485 C486 1.376 . S
C486 H473 0.930 . S
C486 C485 1.376 . S
C486 C487 1.388 . S
C487 H474 0.930 . S
C487 C486 1.388 . S
C487 C488 1.390 . S
C488 C487 1.390 . S
C488 C489 1.394 . S
C488 C494 1.465 . S
C489 C484 1.399 . S
C489 C488 1.394 . S
C489 C490 1.516 . S
C490 C489 1.516 . S
C490 C491 1.502 1_556 S
C490 C492 1.561 . S
C490 C493 1.526 . S
C491 H475 0.959 . S
C491 H476 0.959 . S
C491 H477 0.961 . S
C491 C490 1.502 1_554 S
C492 H478 0.960 . S
C492 H479 0.961 . S
C492 H480 0.959 . S
C492 C490 1.561 . S
C493 C490 1.526 . S
C493 C494 1.396 . S
C493 C498 1.390 . S
C494 C488 1.465 . S
C494 C493 1.396 . S
C494 C495 1.399 . S
C495 H481 0.929 . S
C495 C494 1.399 . S
C495 C496 1.385 . S
C496 H482 0.931 . S
C496 C495 1.385 . S
C496 C497 1.389 . S
C497 C496 1.389 . S
C497 C498 1.387 . S
C498 H483 0.930 . S
C498 C493 1.390 . S
C498 C497 1.387 . S
H499 C511 0.930 . S
H500 C513 0.930 . S
H501 C514 0.930 . S
H502 C518 0.959 . S
H503 C518 0.959 . S
H504 C518 0.961 . S
H505 C519 0.960 . S
H506 C519 0.961 . S
H507 C519 0.959 . S
H508 C522 0.929 1_556 S
H509 C523 0.931 1_556 S
H510 C525 0.930 . S
C511 H499 0.930 . S
C511 C512 1.399 . S
C511 C516 1.399 . S
C512 C511 1.399 . S
C512 C513 1.376 . S
C513 H500 0.930 . S
C513 C512 1.376 . S
C513 C514 1.388 . S
C514 H501 0.930 . S
C514 C513 1.388 . S
C514 C515 1.390 . S
C515 C514 1.390 . S
C515 C516 1.394 . S
C515 C521 1.465 . S
C516 C511 1.399 . S
C516 C515 1.394 . S
C516 C517 1.516 . S
C517 C516 1.516 . S
C517 C518 1.502 . S
C517 C519 1.561 . S
C517 C520 1.526 . S
C518 H502 0.959 . S
C518 H503 0.959 . S
C518 H504 0.961 . S
C518 C517 1.502 . S
C519 H505 0.960 . S
C519 H506 0.961 . S
C519 H507 0.959 . S
C519 C517 1.561 . S
C520 C517 1.526 . S
C520 C521 1.396 . S
C520 C525 1.390 . S
C521 C515 1.465 . S
C521 C520 1.396 . S
C521 C522 1.399 . S
C522 H508 0.929 1_554 S
C522 C521 1.399 . S
C522 C523 1.385 . S
C523 H509 0.931 1_554 S
C523 C522 1.385 . S
C523 C524 1.389 . S
C524 C523 1.389 . S
C524 C525 1.387 . S
C525 H510 0.930 . S
C525 C520 1.390 . S
C525 C524 1.387 . S
H526 C538 0.930 . S
H527 C540 0.930 . S
H528 C541 0.930 . S
H529 C545 0.959 . S
H530 C545 0.959 . S
H531 C545 0.961 . S
H532 C546 0.960 . S
H533 C546 0.961 . S
H534 C546 0.959 . S
H535 C549 0.929 . S
H536 C550 0.931 . S
H537 C552 0.930 . S
C538 H526 0.930 . S
C538 C539 1.399 . S
C538 C543 1.399 . S
C539 C538 1.399 . S
C539 C540 1.376 . S
C540 H527 0.930 . S
C540 C539 1.376 . S
C540 C541 1.388 . S
C541 H528 0.930 . S
C541 C540 1.388 . S
C541 C542 1.390 . S
C542 C541 1.390 . S
C542 C543 1.394 . S
C542 C548 1.465 . S
C543 C538 1.399 . S
C543 C542 1.394 . S
C543 C544 1.516 . S
C544 C543 1.516 . S
C544 C545 1.502 . S
C544 C546 1.561 . S
C544 C547 1.526 . S
C545 H529 0.959 . S
C545 H530 0.959 . S
C545 H531 0.961 . S
C545 C544 1.502 . S
C546 H532 0.960 . S
C546 H533 0.961 . S
C546 H534 0.959 . S
C546 C544 1.561 . S
C547 C544 1.526 . S
C547 C548 1.396 . S
C547 C552 1.390 . S
C548 C542 1.465 . S
C548 C547 1.396 . S
C548 C549 1.399 . S
C549 H535 0.929 . S
C549 C548 1.399 . S
C549 C550 1.385 . S
C550 H536 0.931 . S
C550 C549 1.385 . S
C550 C551 1.389 . S
C551 C550 1.389 . S
C551 C552 1.387 . S
C552 H537 0.930 . S
C552 C547 1.390 . S
C552 C551 1.387 . S
H553 C565 0.930 . S
H554 C567 0.930 . S
H555 C568 0.930 . S
H556 C572 0.959 . S
H557 C572 0.959 . S
H558 C572 0.961 . S
H559 C573 0.960 . S
H560 C573 0.961 . S
H561 C573 0.959 . S
H562 C576 0.929 . S
H563 C577 0.931 . S
H564 C579 0.930 . S
C565 H553 0.930 . S
C565 C566 1.399 . S
C565 C570 1.399 . S
C566 C565 1.399 . S
C566 C567 1.376 . S
C567 H554 0.930 . S
C567 C566 1.376 . S
C567 C568 1.388 . S
C568 H555 0.930 . S
C568 C567 1.388 . S
C568 C569 1.390 . S
C569 C568 1.390 . S
C569 C570 1.394 . S
C569 C575 1.465 . S
C570 C565 1.399 . S
C570 C569 1.394 . S
C570 C571 1.516 . S
C571 C570 1.516 . S
C571 C572 1.502 . S
C571 C573 1.561 . S
C571 C574 1.526 . S
C572 H556 0.959 . S
C572 H557 0.959 . S
C572 H558 0.961 . S
C572 C571 1.502 . S
C573 H559 0.960 . S
C573 H560 0.961 . S
C573 H561 0.959 . S
C573 C571 1.561 . S
C574 C571 1.526 . S
C574 C575 1.396 . S
C574 C579 1.390 . S
C575 C569 1.465 . S
C575 C574 1.396 . S
C575 C576 1.399 . S
C576 H562 0.929 . S
C576 C575 1.399 . S
C576 C577 1.385 . S
C577 H563 0.931 . S
C577 C576 1.385 . S
C577 C578 1.389 . S
C578 C577 1.389 . S
C578 C579 1.387 . S
C579 H564 0.930 . S
C579 C574 1.390 . S
C579 C578 1.387 . S
H580 C592 0.930 . S
H581 C594 0.930 . S
H582 C595 0.930 . S
H583 C599 0.959 1_554 S
H584 C599 0.959 . S
H585 C599 0.961 . S
H586 C600 0.960 . S
H587 C600 0.961 . S
H588 C600 0.959 . S
H589 C603 0.929 . S
H590 C604 0.931 . S
H591 C606 0.930 1_556 S
C592 H580 0.930 . S
C592 C593 1.399 . S
C592 C597 1.399 . S
C593 C592 1.399 . S
C593 C594 1.376 . S
C594 H581 0.930 . S
C594 C593 1.376 . S
C594 C595 1.388 . S
C595 H582 0.930 . S
C595 C594 1.388 . S
C595 C596 1.390 . S
C596 C595 1.390 . S
C596 C597 1.394 . S
C596 C602 1.465 . S
C597 C592 1.399 . S
C597 C596 1.394 . S
C597 C598 1.516 . S
C598 C597 1.516 . S
C598 C599 1.502 1_554 S
C598 C600 1.561 1_554 S
C598 C601 1.526 . S
C599 H583 0.959 1_556 S
C599 H584 0.959 . S
C599 H585 0.961 . S
C599 C598 1.502 1_556 S
C600 H586 0.960 . S
C600 H587 0.961 . S
C600 H588 0.959 . S
C600 C598 1.561 1_556 S
C601 C598 1.526 . S
C601 C602 1.396 . S
C601 C606 1.390 . S
C602 C596 1.465 . S
C602 C601 1.396 . S
C602 C603 1.399 . S
C603 H589 0.929 . S
C603 C602 1.399 . S
C603 C604 1.385 . S
C604 H590 0.931 . S
C604 C603 1.385 . S
C604 C605 1.389 . S
C605 C604 1.389 . S
C605 C606 1.387 . S
C606 H591 0.930 1_554 S
C606 C601 1.390 . S
C606 C605 1.387 . S
H607 C619 0.930 . S
H608 C621 0.935 . S
H609 C622 0.930 . S
H610 C626 0.959 . S
H611 C626 0.959 . S
H612 C626 0.961 . S
H613 C627 0.960 . S
H614 C627 0.961 . S
H615 C627 0.959 . S
H616 C630 0.929 1_554 S
H617 C631 0.931 . S
H618 C633 0.930 . S
C619 H607 0.930 . S
C619 C620 1.399 . S
C619 C624 1.399 . S
C620 C619 1.399 . S
C620 C621 1.372 1_556 S
C621 H608 0.935 . S
C621 C620 1.372 1_554 S
C621 C622 1.388 . S
C622 H609 0.930 . S
C622 C621 1.388 . S
C622 C623 1.390 1_554 S
C623 C622 1.390 1_556 S
C623 C624 1.394 . S
C623 C629 1.465 . S
C624 C619 1.399 . S
C624 C623 1.394 . S
C624 C625 1.516 . S
C625 C624 1.516 . S
C625 C626 1.502 . S
C625 C627 1.561 . S
C625 C628 1.526 . S
C626 H610 0.959 . S
C626 H611 0.959 . S
C626 H612 0.961 . S
C626 C625 1.502 . S
C627 H613 0.960 . S
C627 H614 0.961 . S
C627 H615 0.959 . S
C627 C625 1.561 . S
C628 C625 1.526 . S
C628 C629 1.396 . S
C628 C633 1.390 . S
C629 C623 1.465 . S
C629 C628 1.396 . S
C629 C630 1.399 . S
C630 H616 0.929 1_556 S
C630 C629 1.399 . S
C630 C631 1.385 . S
C631 H617 0.931 . S
C631 C630 1.385 . S
C631 C632 1.389 . S
C632 C631 1.389 . S
C632 C633 1.387 . S
C633 H618 0.930 . S
C633 C628 1.390 . S
C633 C632 1.387 . S
H634 C646 0.930 . S
H635 C648 0.930 . S
H636 C649 0.930 . S
H637 C653 0.959 . S
H638 C653 0.959 . S
H639 C653 0.961 . S
H640 C654 0.960 . S
H641 C654 0.961 . S
H642 C654 0.959 . S
H643 C657 0.929 . S
H644 C658 0.931 . S
H645 C660 0.930 . S
C646 H634 0.930 . S
C646 C647 1.399 . S
C646 C651 1.399 . S
C647 C646 1.399 . S
C647 C648 1.376 . S
C648 H635 0.930 . S
C648 C647 1.376 . S
C648 C649 1.388 . S
C649 H636 0.930 . S
C649 C648 1.388 . S
C649 C650 1.390 . S
C650 C649 1.390 . S
C650 C651 1.394 . S
C650 C656 1.465 . S
C651 C646 1.399 . S
C651 C650 1.394 . S
C651 C652 1.516 . S
C652 C651 1.516 . S
C652 C653 1.502 . S
C652 C654 1.561 . S
C652 C655 1.526 . S
C653 H637 0.959 . S
C653 H638 0.959 . S
C653 H639 0.961 . S
C653 C652 1.502 . S
C654 H640 0.960 . S
C654 H641 0.961 . S
C654 H642 0.959 . S
C654 C652 1.561 . S
C655 C652 1.526 . S
C655 C656 1.396 . S
C655 C660 1.390 . S
C656 C650 1.465 . S
C656 C655 1.396 . S
C656 C657 1.399 . S
C657 H643 0.929 . S
C657 C656 1.399 . S
C657 C658 1.385 . S
C658 H644 0.931 . S
C658 C657 1.385 . S
C658 C659 1.389 . S
C659 C658 1.389 . S
C659 C660 1.387 . S
C660 H645 0.930 . S
C660 C655 1.390 . S
C660 C659 1.387 . S
H661 C673 0.930 . S
H662 C675 0.930 . S
H663 C676 0.930 . S
H664 C680 0.959 . S
H665 C680 0.959 . S
H666 C680 0.961 . S
H667 C681 0.960 . S
H668 C681 0.961 . S
H669 C681 0.959 . S
H670 C684 0.929 . S
H671 C685 0.931 . S
H672 C687 0.930 . S
C673 H661 0.930 . S
C673 C674 1.399 . S
C673 C678 1.399 . S
C674 C673 1.399 . S
C674 C675 1.376 . S
C675 H662 0.930 . S
C675 C674 1.376 . S
C675 C676 1.388 . S
C676 H663 0.930 . S
C676 C675 1.388 . S
C676 C677 1.390 . S
C677 C676 1.390 . S
C677 C678 1.394 . S
C677 C683 1.465 . S
C678 C673 1.399 . S
C678 C677 1.394 . S
C678 C679 1.516 . S
C679 C678 1.516 . S
C679 C680 1.502 . S
C679 C681 1.561 . S
C679 C682 1.526 . S
C680 H664 0.959 . S
C680 H665 0.959 . S
C680 H666 0.961 . S
C680 C679 1.502 . S
C681 H667 0.960 . S
C681 H668 0.961 . S
C681 H669 0.959 . S
C681 C679 1.561 . S
C682 C679 1.526 . S
C682 C683 1.396 . S
C682 C687 1.390 . S
C683 C677 1.465 . S
C683 C682 1.396 . S
C683 C684 1.399 . S
C684 H670 0.929 . S
C684 C683 1.399 . S
C684 C685 1.385 . S
C685 H671 0.931 . S
C685 C684 1.385 . S
C685 C686 1.389 . S
C686 C685 1.389 . S
C686 C687 1.387 . S
C687 H672 0.930 . S
C687 C682 1.390 . S
C687 C686 1.387 . S
H688 C700 0.930 . S
H689 C702 0.930 . S
H690 C703 0.930 . S
H691 C707 0.959 . S
H692 C707 0.959 1_554 S
H693 C707 0.961 . S
H694 C708 0.960 1_556 S
H695 C708 0.961 . S
H696 C708 0.959 . S
H697 C711 0.929 . S
H698 C712 0.931 . S
H699 C714 0.930 . S
C700 H688 0.930 . S
C700 C701 1.399 1_455 S
C700 C705 1.399 . S
C701 C700 1.399 1_655 S
C701 C702 1.376 1_545 S
C702 H689 0.930 . S
C702 C701 1.376 1_565 S
C702 C703 1.388 . S
C703 H690 0.930 . S
C703 C702 1.388 . S
C703 C704 1.390 . S
C704 C703 1.390 . S
C704 C705 1.394 1_665 S
C704 C710 1.465 1_556 S
C705 C700 1.399 . S
C705 C704 1.394 1_445 S
C705 C706 1.516 1_556 S
C706 C705 1.516 1_554 S
C706 C707 1.502 1_554 S
C706 C708 1.561 1_455 S
C706 C709 1.526 . S
C707 H691 0.959 . S
C707 H692 0.959 1_556 S
C707 H693 0.961 . S
C707 C706 1.502 1_556 S
C708 H694 0.960 1_554 S
C708 H695 0.961 . S
C708 H696 0.959 . S
C708 C706 1.561 1_655 S
C709 C706 1.526 . S
C709 C710 1.396 1_445 S
C709 C714 1.390 . S
C710 C704 1.465 1_554 S
C710 C709 1.396 1_665 S
C710 C711 1.399 . S
C711 H697 0.929 . S
C711 C710 1.399 . S
C711 C712 1.385 . S
C712 H698 0.931 . S
C712 C711 1.385 . S
C712 C713 1.389 1_665 S
C713 C712 1.389 1_445 S
C713 C714 1.387 . S
C714 H699 0.930 . S
C714 C709 1.390 . S
C714 C713 1.387 . S
H715 C727 0.930 . S
H716 C729 0.930 . S
H717 C730 0.930 . S
H718 C734 0.959 . S
H719 C734 0.959 . S
H720 C734 0.961 . S
H721 C735 0.960 . S
H722 C735 0.961 . S
H723 C735 0.959 . S
H724 C738 0.929 . S
H725 C739 0.931 . S
H726 C741 0.930 . S
C727 H715 0.930 . S
C727 C728 1.399 . S
C727 C732 1.399 . S
C728 C727 1.399 . S
C728 C729 1.376 . S
C729 H716 0.930 . S
C729 C728 1.376 . S
C729 C730 1.388 . S
C730 H717 0.930 . S
C730 C729 1.388 . S
C730 C731 1.390 . S
C731 C730 1.390 . S
C731 C732 1.394 . S
C731 C737 1.465 . S
C732 C727 1.399 . S
C732 C731 1.394 . S
C732 C733 1.516 . S
C733 C732 1.516 . S
C733 C734 1.502 . S
C733 C735 1.561 . S
C733 C736 1.526 . S
C734 H718 0.959 . S
C734 H719 0.959 . S
C734 H720 0.961 . S
C734 C733 1.502 . S
C735 H721 0.960 . S
C735 H722 0.961 . S
C735 H723 0.959 . S
C735 C733 1.561 . S
C736 C733 1.526 . S
C736 C737 1.396 . S
C736 C741 1.390 . S
C737 C731 1.465 . S
C737 C736 1.396 . S
C737 C738 1.399 . S
C738 H724 0.929 . S
C738 C737 1.399 . S
C738 C739 1.385 . S
C739 H725 0.931 . S
C739 C738 1.385 . S
C739 C740 1.389 . S
C740 C739 1.389 . S
C740 C741 1.387 . S
C741 H726 0.930 . S
C741 C736 1.390 . S
C741 C740 1.387 . S
H742 C754 0.930 . S
H743 C756 0.930 . S
H744 C757 0.930 . S
H745 C761 0.959 . S
H746 C761 0.959 . S
H747 C761 0.961 . S
H748 C762 0.960 . S
H749 C762 0.961 . S
H750 C762 0.959 . S
H751 C765 0.929 . S
H752 C766 0.931 . S
H753 C768 0.930 . S
C754 H742 0.930 . S
C754 C755 1.399 1_565 S
C754 C759 1.399 . S
C755 C754 1.399 1_545 S
C755 C756 1.376 . S
C756 H743 0.930 . S
C756 C755 1.376 . S
C756 C757 1.388 . S
C757 H744 0.930 . S
C757 C756 1.388 . S
C757 C758 1.390 . S
C758 C757 1.390 . S
C758 C759 1.394 1_545 S
C758 C764 1.465 . S
C759 C754 1.399 . S
C759 C758 1.394 1_565 S
C759 C760 1.516 . S
C760 C759 1.516 . S
C760 C761 1.502 . S
C760 C762 1.561 . S
C760 C763 1.526 . S
C761 H745 0.959 . S
C761 H746 0.959 . S
C761 H747 0.961 . S
C761 C760 1.502 . S
C762 H748 0.960 . S
C762 H749 0.961 . S
C762 H750 0.959 . S
C762 C760 1.561 . S
C763 C760 1.526 . S
C763 C764 1.396 1_565 S
C763 C768 1.390 . S
C764 C758 1.465 . S
C764 C763 1.396 1_545 S
C764 C765 1.399 . S
C765 H751 0.929 . S
C765 C764 1.399 . S
C765 C766 1.385 . S
C766 H752 0.931 . S
C766 C765 1.385 . S
C766 C767 1.389 . S
C767 C766 1.389 . S
C767 C768 1.387 1_545 S
C768 H753 0.930 . S
C768 C763 1.390 . S
C768 C767 1.387 1_565 S
H769 C781 0.930 . S
H770 C783 0.930 . S
H771 C784 0.930 . S
H772 C788 0.959 . S
H773 C788 0.959 . S
H774 C788 0.961 . S
H775 C789 0.960 . S
H776 C789 0.961 . S
H777 C789 0.959 . S
H778 C792 0.929 . S
H779 C793 0.931 . S
H780 C795 0.930 . S
C781 H769 0.930 . S
C781 C782 1.399 . S
C781 C786 1.399 . S
C782 C781 1.399 . S
C782 C783 1.376 . S
C783 H770 0.930 . S
C783 C782 1.376 . S
C783 C784 1.388 . S
C784 H771 0.930 . S
C784 C783 1.388 . S
C784 C785 1.390 . S
C785 C784 1.390 . S
C785 C786 1.394 . S
C785 C791 1.465 . S
C786 C781 1.399 . S
C786 C785 1.394 . S
C786 C787 1.516 . S
C787 C786 1.516 . S
C787 C788 1.502 . S
C787 C789 1.561 . S
C787 C790 1.526 . S
C788 H772 0.959 . S
C788 H773 0.959 . S
C788 H774 0.961 . S
C788 C787 1.502 . S
C789 H775 0.960 . S
C789 H776 0.961 . S
C789 H777 0.959 . S
C789 C787 1.561 . S
C790 C787 1.526 . S
C790 C791 1.396 . S
C790 C795 1.390 . S
C791 C785 1.465 . S
C791 C790 1.396 . S
C791 C792 1.399 . S
C792 H778 0.929 . S
C792 C791 1.399 . S
C792 C793 1.385 . S
C793 H779 0.931 . S
C793 C792 1.385 . S
C793 C794 1.389 . S
C794 C793 1.389 . S
C794 C795 1.387 . S
C795 H780 0.930 . S
C795 C790 1.390 . S
C795 C794 1.387 . S
H796 C808 0.930 . S
H797 C810 0.930 1_554 S
H798 C811 0.930 . S
H799 C815 0.959 . S
H800 C815 0.959 . S
H801 C815 0.961 . S
H802 C816 0.960 . S
H803 C816 0.961 . S
H804 C816 0.959 . S
H805 C819 0.929 . S
H806 C820 0.931 . S
H807 C822 0.930 . S
C808 H796 0.930 . S
C808 C809 1.399 1_556 S
C808 C813 1.399 . S
C809 C808 1.399 1_554 S
C809 C810 1.376 1_554 S
C810 H797 0.930 1_556 S
C810 C809 1.376 1_556 S
C810 C811 1.388 . S
C811 H798 0.930 . S
C811 C810 1.388 . S
C811 C812 1.390 . S
C812 C811 1.390 . S
C812 C813 1.394 . S
C812 C818 1.465 . S
C813 C808 1.399 . S
C813 C812 1.394 . S
C813 C814 1.516 . S
C814 C813 1.516 . S
C814 C815 1.502 . S
C814 C816 1.561 . S
C814 C817 1.526 . S
C815 H799 0.959 . S
C815 H800 0.959 . S
C815 H801 0.961 . S
C815 C814 1.502 . S
C816 H802 0.960 . S
C816 H803 0.961 . S
C816 H804 0.959 . S
C816 C814 1.561 . S
C817 C814 1.526 . S
C817 C818 1.396 . S
C817 C822 1.390 . S
C818 C812 1.465 . S
C818 C817 1.396 . S
C818 C819 1.399 . S
C819 H805 0.929 . S
C819 C818 1.399 . S
C819 C820 1.385 . S
C820 H806 0.931 . S
C820 C819 1.385 . S
C820 C821 1.389 . S
C821 C820 1.389 . S
C821 C822 1.387 . S
C822 H807 0.930 . S
C822 C817 1.390 . S
C822 C821 1.387 . S
H823 C835 0.930 . S
H824 C837 0.930 . S
H825 C838 0.930 . S
H826 C842 0.959 . S
H827 C842 0.959 . S
H828 C842 0.961 . S
H829 C843 0.960 . S
H830 C843 0.961 . S
H831 C843 0.959 . S
H832 C846 0.929 . S
H833 C847 0.931 1_556 S
H834 C849 0.930 . S
C835 H823 0.930 . S
C835 C836 1.399 . S
C835 C840 1.399 . S
C836 C835 1.399 . S
C836 C837 1.376 . S
C837 H824 0.930 . S
C837 C836 1.376 . S
C837 C838 1.388 . S
C838 H825 0.930 . S
C838 C837 1.388 . S
C838 C839 1.390 . S
C839 C838 1.390 . S
C839 C840 1.394 . S
C839 C845 1.465 . S
C840 C835 1.399 . S
C840 C839 1.394 . S
C840 C841 1.516 . S
C841 C840 1.516 . S
C841 C842 1.502 . S
C841 C843 1.561 . S
C841 C844 1.526 . S
C842 H826 0.959 . S
C842 H827 0.959 . S
C842 H828 0.961 . S
C842 C841 1.502 . S
C843 H829 0.960 . S
C843 H830 0.961 . S
C843 H831 0.959 . S
C843 C841 1.561 . S
C844 C841 1.526 . S
C844 C845 1.396 . S
C844 C849 1.390 . S
C845 C839 1.465 . S
C845 C844 1.396 . S
C845 C846 1.399 . S
C846 H832 0.929 . S
C846 C845 1.399 . S
C846 C847 1.385 . S
C847 H833 0.931 1_554 S
C847 C846 1.385 . S
C847 C848 1.389 . S
C848 C847 1.389 . S
C848 C849 1.387 . S
C849 H834 0.930 . S
C849 C844 1.390 . S
C849 C848 1.387 . S
H850 C862 0.930 . S
H851 C864 0.930 . S
H852 C865 0.930 . S
H853 C869 0.959 . S
H854 C869 0.959 . S
H855 C869 0.961 . S
H856 C870 0.960 . S
H857 C870 0.961 . S
H858 C870 0.959 . S
H859 C873 0.929 . S
H860 C874 0.931 . S
H861 C876 0.930 . S
C862 H850 0.930 . S
C862 C863 1.399 . S
C862 C867 1.399 . S
C863 C862 1.399 . S
C863 C864 1.376 . S
C864 H851 0.930 . S
C864 C863 1.376 . S
C864 C865 1.388 . S
C865 H852 0.930 . S
C865 C864 1.388 . S
C865 C866 1.390 . S
C866 C865 1.390 . S
C866 C867 1.394 . S
C866 C872 1.465 . S
C867 C862 1.399 . S
C867 C866 1.394 . S
C867 C868 1.516 . S
C868 C867 1.516 . S
C868 C869 1.502 . S
C868 C870 1.561 . S
C868 C871 1.526 . S
C869 H853 0.959 . S
C869 H854 0.959 . S
C869 H855 0.961 . S
C869 C868 1.502 . S
C870 H856 0.960 . S
C870 H857 0.961 . S
C870 H858 0.959 . S
C870 C868 1.561 . S
C871 C868 1.526 . S
C871 C872 1.396 . S
C871 C876 1.390 . S
C872 C866 1.465 . S
C872 C871 1.396 . S
C872 C873 1.399 . S
C873 H859 0.929 . S
C873 C872 1.399 . S
C873 C874 1.385 . S
C874 H860 0.931 . S
C874 C873 1.385 . S
C874 C875 1.389 . S
C875 C874 1.389 . S
C875 C876 1.387 . S
C876 H861 0.930 . S
C876 C871 1.390 . S
C876 C875 1.387 . S
H877 C889 0.930 . S
H878 C891 0.930 . S
H879 C892 0.930 . S
H880 C896 0.959 . S
H881 C896 0.959 . S
H882 C896 0.961 . S
H883 C897 0.960 . S
H884 C897 0.961 1_454 S
H885 C897 0.959 . S
H886 C900 0.929 . S
H887 C901 0.931 . S
H888 C903 0.930 . S
C889 H877 0.930 . S
C889 C890 1.399 . S
C889 C894 1.399 . S
C890 C889 1.399 . S
C890 C891 1.376 1_455 S
C891 H878 0.930 . S
C891 C890 1.376 1_655 S
C891 C892 1.388 . S
C892 H879 0.930 . S
C892 C891 1.388 . S
C892 C893 1.403 . S
C893 C892 1.403 . S
C893 C894 1.383 1_655 S
C893 C899 1.460 1_656 S
C894 C889 1.399 . S
C894 C893 1.383 1_455 S
C894 C895 1.516 . S
C895 C894 1.516 . S
C895 C896 1.502 . S
C895 C897 1.561 1_455 S
C895 C898 1.526 1_556 S
C896 H880 0.959 . S
C896 H881 0.959 . S
C896 H882 0.961 . S
C896 C895 1.502 . S
C897 H883 0.960 . S
C897 H884 0.961 1_656 S
C897 H885 0.959 . S
C897 C895 1.561 1_655 S
C898 C895 1.526 1_554 S
C898 C899 1.396 . S
C898 C903 1.390 . S
C899 C893 1.460 1_454 S
C899 C898 1.396 . S
C899 C900 1.399 1_455 S
C900 H886 0.929 . S
C900 C899 1.399 1_655 S
C900 C901 1.385 . S
C901 H887 0.931 . S
C901 C900 1.385 . S
C901 C902 1.389 1_655 S
C902 C901 1.389 1_455 S
C902 C903 1.387 . S
C903 H888 0.930 . S
C903 C898 1.390 . S
C903 C902 1.387 . S
C269 C29 2.696 . S
C281 C125 2.703 . S
C296 N18 1.486 . S
C308 C36 1.534 . S
C323 N45 0.703 . S
C335 N77 0.680 . S
C350 C68 1.534 . S
C362 N114 1.476 . S
C377 C2 3.041 . S
C389 C162 3.053 . S
C404 N13 1.414 . S
C416 C134 1.490 . S
C431 N146 0.231 . S
C443 N82 0.348 . S
C458 N173 1.475 . S
C470 C70 1.486 . S
C485 C221 2.705 . S
C497 C189 2.693 . S
C512 C132 1.534 . S
C524 N210 1.452 . S
C539 N242 0.693 . S
C551 N141 0.711 . S
C566 N178 1.514 . S
C578 C253 1.526 . S
C593 C98 3.043 . S
C605 C194 3.051 . S
C620 N205 1.417 . S
C632 C38 1.490 . S
C647 N50 0.395 . S
C659 N237 0.270 . S
C674 N109 1.416 . S
C686 C226 1.489 . S
C701 C4 1.367 1_655 S
C713 C6 1.348 . S
C728 C34 1.375 . S
C740 C61 1.366 1_554 S
C755 C93 1.366 . S
C767 C66 1.375 . S
C782 C100 1.361 1_556 S
C794 C102 1.341 . S
C809 C130 1.374 . S
C821 C157 1.366 . S
C836 C164 1.353 . S
C848 C166 1.344 1_554 S
C863 C198 1.364 . S
C875 C196 1.348 . S
C890 C230 1.394 . S
C902 C228 1.365 . S
