# Generated by pormake.
# Topology wgj, (5)-cn, num edge types: 1
# Building blocks:
#     Node 0, Type 0, BuildingBlock: XOMCOT_clean_sbu_1, # of connection points: 5
#     Node 1, Type 0, BuildingBlock: XOMCOT_clean_sbu_1, # of connection points: 5
#     Node 2, Type 0, BuildingBlock: XOMCOT_clean_sbu_1, # of connection points: 5
#     Node 3, Type 0, BuildingBlock: XOMCOT_clean_sbu_1, # of connection points: 5
#     Node 4, Type 0, BuildingBlock: XOMCOT_clean_sbu_1, # of connection points: 5
#     Node 5, Type 0, BuildingBlock: XOMCOT_clean_sbu_1, # of connection points: 5
#     Node 6, Type 0, BuildingBlock: XOMCOT_clean_sbu_1, # of connection points: 5
#     Node 7, Type 0, BuildingBlock: XOMCOT_clean_sbu_1, # of connection points: 5
#     Node 8, Type 0, BuildingBlock: XOMCOT_clean_sbu_1, # of connection points: 5
#     Node 9, Type 0, BuildingBlock: XOMCOT_clean_sbu_1, # of connection points: 5
#     Node 10, Type 0, BuildingBlock: XOMCOT_clean_sbu_1, # of connection points: 5
#     Node 11, Type 0, BuildingBlock: XOMCOT_clean_sbu_1, # of connection points: 5
#     Node 12, Type 0, BuildingBlock: XOMCOT_clean_sbu_1, # of connection points: 5
#     Node 13, Type 0, BuildingBlock: XOMCOT_clean_sbu_1, # of connection points: 5
#     Node 14, Type 0, BuildingBlock: XOMCOT_clean_sbu_1, # of connection points: 5
#     Node 15, Type 0, BuildingBlock: XOMCOT_clean_sbu_1, # of connection points: 5
#     Node 16, Type 0, BuildingBlock: XOMCOT_clean_sbu_1, # of connection points: 5
#     Node 17, Type 0, BuildingBlock: XOMCOT_clean_sbu_1, # of connection points: 5
#     Node 18, Type 0, BuildingBlock: XOMCOT_clean_sbu_1, # of connection points: 5
#     Node 19, Type 0, BuildingBlock: XOMCOT_clean_sbu_1, # of connection points: 5
#     Node 20, Type 0, BuildingBlock: XOMCOT_clean_sbu_1, # of connection points: 5
#     Node 21, Type 0, BuildingBlock: XOMCOT_clean_sbu_1, # of connection points: 5
#     Node 22, Type 0, BuildingBlock: XOMCOT_clean_sbu_1, # of connection points: 5
#     Node 23, Type 0, BuildingBlock: XOMCOT_clean_sbu_1, # of connection points: 5
#     Node 24, Type 0, BuildingBlock: XOMCOT_clean_sbu_1, # of connection points: 5
#     Node 25, Type 0, BuildingBlock: XOMCOT_clean_sbu_1, # of connection points: 5
#     Node 26, Type 0, BuildingBlock: XOMCOT_clean_sbu_1, # of connection points: 5
#     Node 27, Type 0, BuildingBlock: XOMCOT_clean_sbu_1, # of connection points: 5
#     Node 28, Type 0, BuildingBlock: XOMCOT_clean_sbu_1, # of connection points: 5
#     Node 29, Type 0, BuildingBlock: XOMCOT_clean_sbu_1, # of connection points: 5
#     Node 30, Type 0, BuildingBlock: XOMCOT_clean_sbu_1, # of connection points: 5
#     Node 31, Type 0, BuildingBlock: XOMCOT_clean_sbu_1, # of connection points: 5
#     Edge 32, Type (0, 0), BuildingBlock: TEMPAE_clean_linker_10, # of connection points: 2
#     Edge 33, Type (0, 0), BuildingBlock: TEMPAE_clean_linker_10, # of connection points: 2
#     Edge 34, Type (0, 0), BuildingBlock: TEMPAE_clean_linker_10, # of connection points: 2
#     Edge 35, Type (0, 0), BuildingBlock: TEMPAE_clean_linker_10, # of connection points: 2
#     Edge 36, Type (0, 0), BuildingBlock: TEMPAE_clean_linker_10, # of connection points: 2
#     Edge 37, Type (0, 0), BuildingBlock: TEMPAE_clean_linker_10, # of connection points: 2
#     Edge 38, Type (0, 0), BuildingBlock: TEMPAE_clean_linker_10, # of connection points: 2
#     Edge 39, Type (0, 0), BuildingBlock: TEMPAE_clean_linker_10, # of connection points: 2
#     Edge 40, Type (0, 0), BuildingBlock: TEMPAE_clean_linker_10, # of connection points: 2
#     Edge 41, Type (0, 0), BuildingBlock: TEMPAE_clean_linker_10, # of connection points: 2
#     Edge 42, Type (0, 0), BuildingBlock: TEMPAE_clean_linker_10, # of connection points: 2
#     Edge 43, Type (0, 0), BuildingBlock: TEMPAE_clean_linker_10, # of connection points: 2
#     Edge 44, Type (0, 0), BuildingBlock: TEMPAE_clean_linker_10, # of connection points: 2
#     Edge 45, Type (0, 0), BuildingBlock: TEMPAE_clean_linker_10, # of connection points: 2
#     Edge 46, Type (0, 0), BuildingBlock: TEMPAE_clean_linker_10, # of connection points: 2
#     Edge 47, Type (0, 0), BuildingBlock: TEMPAE_clean_linker_10, # of connection points: 2
#     Edge 48, Type (0, 0), BuildingBlock: TEMPAE_clean_linker_10, # of connection points: 2
#     Edge 49, Type (0, 0), BuildingBlock: TEMPAE_clean_linker_10, # of connection points: 2
#     Edge 50, Type (0, 0), BuildingBlock: TEMPAE_clean_linker_10, # of connection points: 2
#     Edge 51, Type (0, 0), BuildingBlock: TEMPAE_clean_linker_10, # of connection points: 2
#     Edge 52, Type (0, 0), BuildingBlock: TEMPAE_clean_linker_10, # of connection points: 2
#     Edge 53, Type (0, 0), BuildingBlock: TEMPAE_clean_linker_10, # of connection points: 2
#     Edge 54, Type (0, 0), BuildingBlock: TEMPAE_clean_linker_10, # of connection points: 2
#     Edge 55, Type (0, 0), BuildingBlock: TEMPAE_clean_linker_10, # of connection points: 2
#     Edge 56, Type (0, 0), BuildingBlock: TEMPAE_clean_linker_10, # of connection points: 2
#     Edge 57, Type (0, 0), BuildingBlock: TEMPAE_clean_linker_10, # of connection points: 2
#     Edge 58, Type (0, 0), BuildingBlock: TEMPAE_clean_linker_10, # of connection points: 2
#     Edge 59, Type (0, 0), BuildingBlock: TEMPAE_clean_linker_10, # of connection points: 2
#     Edge 60, Type (0, 0), BuildingBlock: TEMPAE_clean_linker_10, # of connection points: 2
#     Edge 61, Type (0, 0), BuildingBlock: TEMPAE_clean_linker_10, # of connection points: 2
#     Edge 62, Type (0, 0), BuildingBlock: TEMPAE_clean_linker_10, # of connection points: 2
#     Edge 63, Type (0, 0), BuildingBlock: TEMPAE_clean_linker_10, # of connection points: 2
#     Edge 64, Type (0, 0), BuildingBlock: TEMPAE_clean_linker_10, # of connection points: 2
#     Edge 65, Type (0, 0), BuildingBlock: TEMPAE_clean_linker_10, # of connection points: 2
#     Edge 66, Type (0, 0), BuildingBlock: TEMPAE_clean_linker_10, # of connection points: 2
#     Edge 67, Type (0, 0), BuildingBlock: TEMPAE_clean_linker_10, # of connection points: 2
#     Edge 68, Type (0, 0), BuildingBlock: TEMPAE_clean_linker_10, # of connection points: 2
#     Edge 69, Type (0, 0), BuildingBlock: TEMPAE_clean_linker_10, # of connection points: 2
#     Edge 70, Type (0, 0), BuildingBlock: TEMPAE_clean_linker_10, # of connection points: 2
#     Edge 71, Type (0, 0), BuildingBlock: TEMPAE_clean_linker_10, # of connection points: 2
#     Edge 72, Type (0, 0), BuildingBlock: TEMPAE_clean_linker_10, # of connection points: 2
#     Edge 73, Type (0, 0), BuildingBlock: TEMPAE_clean_linker_10, # of connection points: 2
#     Edge 74, Type (0, 0), BuildingBlock: TEMPAE_clean_linker_10, # of connection points: 2
#     Edge 75, Type (0, 0), BuildingBlock: TEMPAE_clean_linker_10, # of connection points: 2
#     Edge 76, Type (0, 0), BuildingBlock: TEMPAE_clean_linker_10, # of connection points: 2
#     Edge 77, Type (0, 0), BuildingBlock: TEMPAE_clean_linker_10, # of connection points: 2
#     Edge 78, Type (0, 0), BuildingBlock: TEMPAE_clean_linker_10, # of connection points: 2
#     Edge 79, Type (0, 0), BuildingBlock: TEMPAE_clean_linker_10, # of connection points: 2
#     Edge 80, Type (0, 0), BuildingBlock: TEMPAE_clean_linker_10, # of connection points: 2
#     Edge 81, Type (0, 0), BuildingBlock: TEMPAE_clean_linker_10, # of connection points: 2
#     Edge 82, Type (0, 0), BuildingBlock: TEMPAE_clean_linker_10, # of connection points: 2
#     Edge 83, Type (0, 0), BuildingBlock: TEMPAE_clean_linker_10, # of connection points: 2
#     Edge 84, Type (0, 0), BuildingBlock: TEMPAE_clean_linker_10, # of connection points: 2
#     Edge 85, Type (0, 0), BuildingBlock: TEMPAE_clean_linker_10, # of connection points: 2
#     Edge 86, Type (0, 0), BuildingBlock: TEMPAE_clean_linker_10, # of connection points: 2
#     Edge 87, Type (0, 0), BuildingBlock: TEMPAE_clean_linker_10, # of connection points: 2
#     Edge 88, Type (0, 0), BuildingBlock: TEMPAE_clean_linker_10, # of connection points: 2
#     Edge 89, Type (0, 0), BuildingBlock: TEMPAE_clean_linker_10, # of connection points: 2
#     Edge 90, Type (0, 0), BuildingBlock: TEMPAE_clean_linker_10, # of connection points: 2
#     Edge 91, Type (0, 0), BuildingBlock: TEMPAE_clean_linker_10, # of connection points: 2
#     Edge 92, Type (0, 0), BuildingBlock: TEMPAE_clean_linker_10, # of connection points: 2
#     Edge 93, Type (0, 0), BuildingBlock: TEMPAE_clean_linker_10, # of connection points: 2
#     Edge 94, Type (0, 0), BuildingBlock: TEMPAE_clean_linker_10, # of connection points: 2
#     Edge 95, Type (0, 0), BuildingBlock: TEMPAE_clean_linker_10, # of connection points: 2
#     Edge 96, Type (0, 0), BuildingBlock: TEMPAE_clean_linker_10, # of connection points: 2
#     Edge 97, Type (0, 0), BuildingBlock: TEMPAE_clean_linker_10, # of connection points: 2
#     Edge 98, Type (0, 0), BuildingBlock: TEMPAE_clean_linker_10, # of connection points: 2
#     Edge 99, Type (0, 0), BuildingBlock: TEMPAE_clean_linker_10, # of connection points: 2
#     Edge 100, Type (0, 0), BuildingBlock: TEMPAE_clean_linker_10, # of connection points: 2
#     Edge 101, Type (0, 0), BuildingBlock: TEMPAE_clean_linker_10, # of connection points: 2
#     Edge 102, Type (0, 0), BuildingBlock: TEMPAE_clean_linker_10, # of connection points: 2
#     Edge 103, Type (0, 0), BuildingBlock: TEMPAE_clean_linker_10, # of connection points: 2
#     Edge 104, Type (0, 0), BuildingBlock: TEMPAE_clean_linker_10, # of connection points: 2
#     Edge 105, Type (0, 0), BuildingBlock: TEMPAE_clean_linker_10, # of connection points: 2
#     Edge 106, Type (0, 0), BuildingBlock: TEMPAE_clean_linker_10, # of connection points: 2
#     Edge 107, Type (0, 0), BuildingBlock: TEMPAE_clean_linker_10, # of connection points: 2
#     Edge 108, Type (0, 0), BuildingBlock: TEMPAE_clean_linker_10, # of connection points: 2
#     Edge 109, Type (0, 0), BuildingBlock: TEMPAE_clean_linker_10, # of connection points: 2
#     Edge 110, Type (0, 0), BuildingBlock: TEMPAE_clean_linker_10, # of connection points: 2
#     Edge 111, Type (0, 0), BuildingBlock: TEMPAE_clean_linker_10, # of connection points: 2
# Relax obj value: 0.252
# Max RMSD: 0.141
# Mean RMSD: 0.141
data_MOF--net-wgj--node1-XOMCOT_clean_sbu_1--edge1-TEMPAE_clean_linker_10
_symmetry_space_group_name_H-M    P1
_symmetry_Int_Tables_number       1
_symmetry_cell_setting            triclinic
loop_
_symmetry_equiv_pos_as_xyz
'x, y, z'
_cell_length_a     68.597546
_cell_length_b     68.596229
_cell_length_c     31.175304
_cell_angle_alpha  89.965252
_cell_angle_beta   90.001673
_cell_angle_gamma 89.980651
loop_
_atom_site_label
_atom_site_type_symbol
_atom_site_fract_x
_atom_site_fract_y
_atom_site_fract_z
_atom_type_partial_charge
C0 C 0.18323 0.18559 0.26685 0.0
C1 C 0.19555 0.19943 0.25034 0.0
N2 N 0.2079 0.20494 0.28158 0.0
N3 N 0.18779 0.18235 0.3083 0.0
C4 C 0.20306 0.19423 0.31632 0.0
H5 H 0.17095 0.17923 0.25031 0.0
Co6 Co 0.17193 0.16816 0.34478 0.0
C7 C 0.19605 0.16059 0.42528 0.0
O8 O 0.18004 0.1617 0.44824 0.0
N9 N 0.15483 0.15351 0.37978 0.0
C10 C 0.14096 0.12739 0.40912 0.0
C11 C 0.15827 0.13566 0.39628 0.0
C12 C 0.13519 0.15552 0.38218 0.0
N13 N 0.12628 0.13977 0.39962 0.0
O14 O 0.17672 0.14487 0.30963 0.0
H15 H 0.17232 0.1285 0.39623 0.0
H16 H 0.12742 0.16743 0.36738 0.0
O17 O 0.19506 0.16286 0.38423 0.0
C18 C 0.16189 0.14252 0.28504 0.0
O19 O 0.14701 0.15435 0.2902 0.0
N20 N 0.16542 0.19176 0.37295 0.0
C21 C 0.15573 0.2311 0.3869 0.0
C22 C 0.17124 0.22225 0.40915 0.0
C23 C 0.17603 0.20265 0.40134 0.0
C24 C 0.15005 0.20002 0.35199 0.0
C25 C 0.14491 0.21947 0.35856 0.0
H26 H 0.18909 0.19701 0.41586 0.0
H27 H 0.14258 0.19182 0.32737 0.0
H28 H 0.20952 0.19612 0.3477 0.0
H29 H 0.19494 0.20558 0.21838 0.0
H30 H 0.13937 0.11291 0.42236 0.0
H31 H 0.18012 0.23056 0.43127 0.0
H32 H 0.13324 0.22559 0.33944 0.0
C33 C 0.07934 0.93261 0.51636 0.0
C34 C 0.06611 0.94521 0.49847 0.0
N35 N 0.06123 0.95853 0.52826 0.0
N36 N 0.08284 0.93794 0.55725 0.0
C37 C 0.07174 0.95398 0.5635 0.0
H38 H 0.08509 0.91965 0.50127 0.0
Co39 Co 0.09629 0.92205 0.59509 0.0
C40 C 0.10011 0.94556 0.67663 0.0
O41 O 0.09601 0.92943 0.69755 0.0
N42 N 0.11028 0.90495 0.63168 0.0
C43 C 0.13554 0.89179 0.66603 0.0
C44 C 0.12714 0.90891 0.65221 0.0
C45 C 0.109 0.88523 0.63295 0.0
N46 N 0.12423 0.87678 0.65339 0.0
O47 O 0.1202 0.92678 0.56213 0.0
H48 H 0.13367 0.92322 0.65437 0.0
H49 H 0.09818 0.87705 0.61548 0.0
O50 O 0.10106 0.94503 0.6353 0.0
C51 C 0.12276 0.91201 0.53746 0.0
O52 O 0.11076 0.89721 0.54162 0.0
N53 N 0.07201 0.91553 0.62092 0.0
C54 C 0.03274 0.9049 0.63156 0.0
C55 C 0.04025 0.92165 0.65145 0.0
C56 C 0.05981 0.92695 0.64502 0.0
C57 C 0.06485 0.89913 0.60189 0.0
C58 C 0.04548 0.89341 0.6072 0.0
H59 H 0.06437 0.94098 0.65668 0.0
H60 H 0.07384 0.89117 0.5795 0.0
H61 H 0.07022 0.96126 0.59408 0.0
H62 H 0.05985 0.94411 0.46668 0.0
H63 H 0.14942 0.89056 0.68226 0.0
H64 H 0.03079 0.9313 0.66938 0.0
H65 H 0.04033 0.88048 0.59082 0.0
C66 C 0.32666 0.83395 0.76667 0.0
C67 C 0.31288 0.82144 0.75043 0.0
N68 N 0.30292 0.8138 0.78354 0.0
N69 N 0.32525 0.83436 0.80985 0.0
C70 C 0.31054 0.82198 0.81913 0.0
H71 H 0.33765 0.84143 0.74811 0.0
Co72 Co 0.34275 0.84679 0.84622 0.0
C73 C 0.32031 0.85182 0.92976 0.0
O74 O 0.33645 0.84777 0.95071 0.0
N75 N 0.36123 0.85965 0.88129 0.0
C76 C 0.37658 0.88356 0.91603 0.0
C77 C 0.3587 0.87634 0.90362 0.0
C78 C 0.38085 0.85738 0.87967 0.0
N79 N 0.39051 0.87172 0.9004 0.0
O80 O 0.33849 0.87117 0.81456 0.0
H81 H 0.34485 0.88364 0.90786 0.0
H82 H 0.38806 0.84629 0.86087 0.0
O83 O 0.3207 0.85228 0.88841 0.0
C84 C 0.35291 0.87324 0.78872 0.0
O85 O 0.36701 0.8603 0.79056 0.0
N86 N 0.34886 0.82213 0.87089 0.0
C87 C 0.3597 0.78292 0.88354 0.0
C88 C 0.34433 0.79134 0.90698 0.0
C89 C 0.33888 0.81079 0.89961 0.0
C90 C 0.36382 0.81416 0.84807 0.0
C91 C 0.36951 0.7948 0.85388 0.0
H92 H 0.3259 0.81596 0.91518 0.0
H93 H 0.37074 0.82265 0.82313 0.0
H94 H 0.30589 0.81849 0.85136 0.0
H95 H 0.31116 0.81734 0.71711 0.0
H96 H 0.3792 0.89729 0.93214 0.0
H97 H 0.33612 0.78287 0.93005 0.0
H98 H 0.38093 0.78901 0.8336 0.0
C99 C 0.43312 0.081 1.01687 0.0
C100 C 0.446 0.06819 0.99855 0.0
N101 N 0.45169 0.0554 0.02881 0.0
N102 N 0.43059 0.07632 0.0585 0.0
C103 C 0.44197 0.06049 0.06482 0.0
H104 H 0.42687 0.09361 1.0013 0.0
Co105 Co 0.41739 0.09246 0.09625 0.0
C106 C 0.41312 0.06923 0.17822 0.0
O107 O 0.41703 0.08543 0.19899 0.0
N108 N 0.40365 0.10979 0.13264 0.0
C109 C 0.37843 0.12334 0.1663 0.0
C110 C 0.38663 0.10609 0.15275 0.0
C111 C 0.40525 0.12949 0.13385 0.0
N112 N 0.39002 0.13818 0.15385 0.0
O113 O 0.39337 0.08789 0.06353 0.0
H114 H 0.37986 0.09189 0.15477 0.0
H115 H 0.41631 0.13746 0.1166 0.0
O116 O 0.41246 0.06962 0.13685 0.0
C117 C 0.39075 0.10268 0.03892 0.0
O118 O 0.40276 0.11748 0.04296 0.0
N119 N 0.44175 0.09881 0.1219 0.0
C120 C 0.48095 0.10961 0.13476 0.0
C121 C 0.47299 0.09313 0.15517 0.0
C122 C 0.45357 0.08769 0.14749 0.0
C123 C 0.44924 0.11485 0.10206 0.0
C124 C 0.46859 0.12056 0.10812 0.0
H125 H 0.44881 0.07388 0.15999 0.0
H126 H 0.4405 0.12257 0.07873 0.0
H127 H 0.44418 0.05367 0.09574 0.0
H128 H 0.45138 0.06873 0.96593 0.0
H129 H 0.36449 0.12477 0.18218 0.0
H130 H 0.48182 0.08401 0.1758 0.0
H131 H 0.474 0.13288 0.08999 0.0
C132 C 0.18733 0.83231 0.27224 0.0
C133 C 0.20091 0.81959 0.2886 0.0
N134 N 0.21124 0.8123 0.25566 0.0
N135 N 0.18925 0.8332 0.2292 0.0
C136 C 0.20403 0.82088 0.22008 0.0
H137 H 0.17619 0.83968 0.29057 0.0
Co138 Co 0.17235 0.84638 0.19271 0.0
C139 C 0.19528 0.85156 0.11009 0.0
O140 O 0.17911 0.84799 0.08888 0.0
N141 N 0.15452 0.86006 0.15747 0.0
C142 C 0.14046 0.88522 0.12464 0.0
C143 C 0.15789 0.87715 0.13736 0.0
C144 C 0.13483 0.85828 0.15713 0.0
N145 N 0.12583 0.87348 0.13765 0.0
O146 O 0.17693 0.87038 0.22558 0.0
H147 H 0.17201 0.88405 0.13477 0.0
H148 H 0.12714 0.84707 0.17457 0.0
O149 O 0.19481 0.85172 0.15146 0.0
C150 C 0.1623 0.87262 0.2508 0.0
O151 O 0.14791 0.86006 0.24777 0.0
N152 N 0.16587 0.82209 0.16681 0.0
C153 C 0.15456 0.78311 0.15304 0.0
C154 C 0.17041 0.79132 0.13074 0.0
C155 C 0.17606 0.81066 0.13865 0.0
C156 C 0.15041 0.81436 0.18839 0.0
C157 C 0.14449 0.79511 0.18197 0.0
H158 H 0.18934 0.81565 0.12406 0.0
H159 H 0.1433 0.82289 0.21297 0.0
H160 H 0.20908 0.81778 0.18796 0.0
H161 H 0.20231 0.81516 0.3218 0.0
H162 H 0.13878 0.89917 0.10888 0.0
H163 H 0.17882 0.78274 0.10825 0.0
H164 H 0.13267 0.78948 0.20136 0.0
C165 C 0.43288 0.93325 0.52451 0.0
C166 C 0.4455 0.94612 0.54346 0.0
N167 N 0.45116 0.95915 0.51368 0.0
N168 N 0.43047 0.93815 0.48296 0.0
C169 C 0.44165 0.95416 0.47735 0.0
H170 H 0.42672 0.92048 0.53958 0.0
Co171 Co 0.4176 0.92208 0.44454 0.0
C172 C 0.41424 0.9454 0.36262 0.0
O173 O 0.41875 0.92929 0.34209 0.0
N174 N 0.40415 0.90482 0.40741 0.0
C175 C 0.3793 0.89142 0.37215 0.0
C176 C 0.38741 0.90862 0.38624 0.0
C177 C 0.40565 0.88511 0.40624 0.0
N178 N 0.39065 0.87652 0.38527 0.0
O179 O 0.39336 0.92663 0.47635 0.0
H180 H 0.38074 0.92287 0.38382 0.0
H181 H 0.4164 0.87704 0.42416 0.0
O182 O 0.41296 0.94495 0.40392 0.0
C183 C 0.39055 0.91187 0.5009 0.0
O184 O 0.40246 0.89697 0.49707 0.0
N185 N 0.44219 0.91578 0.41985 0.0
C186 C 0.48158 0.90534 0.41013 0.0
C187 C 0.47405 0.92204 0.39 0.0
C188 C 0.45444 0.92725 0.39598 0.0
C189 C 0.44936 0.89945 0.43923 0.0
C190 C 0.4688 0.89384 0.4344 0.0
H191 H 0.44984 0.94123 0.38406 0.0
H192 H 0.4403 0.89144 0.46139 0.0
H193 H 0.44387 0.96119 0.44668 0.0
H194 H 0.45076 0.94543 0.57617 0.0
H195 H 0.36555 0.89007 0.35543 0.0
H196 H 0.48354 0.93171 0.37214 0.0
H197 H 0.47395 0.88094 0.45097 0.0
C198 C 0.33 0.18319 0.77055 0.0
C199 C 0.31727 0.19657 0.78733 0.0
N200 N 0.30565 0.20291 0.75547 0.0
N201 N 0.32641 0.18101 0.7283 0.0
C202 C 0.31134 0.19313 0.72003 0.0
H203 H 0.34186 0.17637 0.78772 0.0
Co204 Co 0.3429 0.1675 0.69185 0.0
C205 C 0.31934 0.16018 0.61013 0.0
O206 O 0.33543 0.16133 0.58744 0.0
N207 N 0.36062 0.1536 0.65694 0.0
C208 C 0.37566 0.12838 0.62624 0.0
C209 C 0.35792 0.13594 0.63868 0.0
C210 C 0.38021 0.15613 0.65628 0.0
N211 N 0.38968 0.14101 0.63791 0.0
O212 O 0.33821 0.14373 0.72548 0.0
H213 H 0.34411 0.12834 0.63751 0.0
H214 H 0.38759 0.168 0.67222 0.0
O215 O 0.32019 0.16234 0.65121 0.0
C216 C 0.35289 0.14134 0.75049 0.0
O217 O 0.36756 0.15354 0.74669 0.0
N218 N 0.34936 0.19148 0.6652 0.0
C219 C 0.3598 0.23062 0.65082 0.0
C220 C 0.34489 0.22166 0.6268 0.0
C221 C 0.33967 0.20219 0.63492 0.0
C222 C 0.36403 0.19986 0.68817 0.0
C223 C 0.36948 0.21922 0.68158 0.0
H224 H 0.32713 0.19645 0.61857 0.0
H225 H 0.37082 0.19173 0.71386 0.0
H226 H 0.30561 0.19582 0.68823 0.0
H227 H 0.31709 0.20185 0.82005 0.0
H228 H 0.3782 0.11399 0.61315 0.0
H229 H 0.33689 0.22975 0.60274 0.0
H230 H 0.38057 0.22539 0.70218 0.0
C231 C 0.08065 0.08197 0.01989 0.0
C232 C 0.06773 0.06915 0.03806 0.0
N233 N 0.06243 0.05614 1.00795 0.0
N234 N 0.08354 0.0771 0.97848 0.0
C235 C 0.07241 0.0611 0.97223 0.0
H236 H 0.08653 0.0948 0.03523 0.0
Co237 Co 0.09623 0.09349 0.94035 0.0
C238 C 0.09966 0.0702 0.85822 0.0
O239 O 0.09487 0.0862 0.83753 0.0
N240 N 0.1094 0.11111 0.90346 0.0
C241 C 0.13332 0.12531 0.86627 0.0
C242 C 0.12568 0.1078 0.88011 0.0
C243 C 0.10783 0.13081 0.90416 0.0
N244 N 0.12216 0.13977 0.88197 0.0
O245 O 0.12058 0.08917 0.97201 0.0
H246 H 0.13246 0.09368 0.8761 0.0
H247 H 0.09736 0.13866 0.92334 0.0
O248 O 0.10111 0.07077 0.89948 0.0
C249 C 0.12303 0.10384 0.997 0.0
O250 O 0.11062 0.11836 0.99396 0.0
N251 N 0.07156 0.09961 0.91583 0.0
C252 C 0.0322 0.11009 0.90571 0.0
C253 C 0.03979 0.09346 0.88541 0.0
C254 C 0.05939 0.08823 0.89158 0.0
C255 C 0.06429 0.1158 0.93554 0.0
C256 C 0.04489 0.12145 0.93047 0.0
H257 H 0.06404 0.07431 0.87942 0.0
H258 H 0.07326 0.12368 0.95807 0.0
H259 H 0.07042 0.05415 0.9414 0.0
H260 H 0.06191 0.06991 0.0703 0.0
H261 H 0.1469 0.12733 0.84914 0.0
H262 H 0.03037 0.08388 0.86719 0.0
H263 H 0.03969 0.13427 0.94722 0.0
C264 C 0.83063 0.83216 0.77379 0.0
C265 C 0.81766 0.81953 0.79236 0.0
N266 N 0.80529 0.81324 0.76183 0.0
N267 N 0.82646 0.83399 0.73173 0.0
C268 C 0.81078 0.82242 0.72542 0.0
H269 H 0.84296 0.83878 0.78964 0.0
Co270 Co 0.84269 0.84688 0.69357 0.0
C271 C 0.81935 0.85051 0.61153 0.0
O272 O 0.83548 0.84631 0.59073 0.0
N273 N 0.86005 0.86033 0.6567 0.0
C274 C 0.87366 0.88518 0.6218 0.0
C275 C 0.85638 0.87712 0.63558 0.0
C276 C 0.87975 0.85876 0.65583 0.0
N277 N 0.88848 0.87375 0.63509 0.0
O278 O 0.83813 0.87115 0.72544 0.0
H279 H 0.84217 0.88385 0.633 0.0
H280 H 0.8877 0.84793 0.67382 0.0
O281 O 0.81986 0.85156 0.65285 0.0
C282 C 0.85289 0.8739 0.75002 0.0
O283 O 0.86765 0.8618 0.74652 0.0
N284 N 0.84908 0.82232 0.66878 0.0
C285 C 0.86014 0.7832 0.6573 0.0
C286 C 0.84354 0.79076 0.63682 0.0
C287 C 0.83802 0.81024 0.64366 0.0
C288 C 0.86526 0.81509 0.68865 0.0
C289 C 0.87117 0.79578 0.68302 0.0
H290 H 0.82414 0.81483 0.63118 0.0
H291 H 0.87299 0.82405 0.71149 0.0
H292 H 0.80432 0.81977 0.69432 0.0
H293 H 0.81779 0.81476 0.82547 0.0
H294 H 0.87512 0.89895 0.60519 0.0
H295 H 0.83421 0.7814 0.61783 0.0
H296 H 0.88395 0.79059 0.6999 0.0
C297 C 0.93276 0.07895 0.5219 0.0
C298 C 0.94519 0.0652 0.5386 0.0
N299 N 0.95157 0.05396 0.50617 0.0
N300 N 0.93113 0.07627 0.47918 0.0
C301 C 0.94272 0.06084 0.47058 0.0
H302 H 0.92608 0.09071 0.53963 0.0
Co303 Co 0.91799 0.09308 0.44251 0.0
C304 C 0.91359 0.07031 0.3597 0.0
O305 O 0.91764 0.0865 0.33895 0.0
N306 N 0.90427 0.11089 0.40708 0.0
C307 C 0.87889 0.12467 0.37439 0.0
C308 C 0.8873 0.10731 0.38665 0.0
C309 C 0.90566 0.13062 0.40722 0.0
N310 N 0.89032 0.13942 0.38787 0.0
O311 O 0.89396 0.08832 0.47507 0.0
H312 H 0.88065 0.09309 0.3837 0.0
H313 H 0.91661 0.1385 0.42499 0.0
O314 O 0.91288 0.07067 0.40104 0.0
C315 C 0.89166 0.10282 0.50057 0.0
O316 O 0.9041 0.11733 0.49767 0.0
N317 N 0.94235 0.09965 0.41701 0.0
C318 C 0.98159 0.11037 0.40605 0.0
C319 C 0.9738 0.0942 0.38442 0.0
C320 C 0.95425 0.08886 0.39089 0.0
C321 C 0.94973 0.11555 0.43763 0.0
C322 C 0.96911 0.12128 0.43228 0.0
H323 H 0.94948 0.07525 0.37739 0.0
H324 H 0.94088 0.12311 0.46093 0.0
H325 H 0.94513 0.05508 0.43875 0.0
H326 H 0.95008 0.06427 0.57157 0.0
H327 H 0.86491 0.12623 0.35871 0.0
H328 H 0.98304 0.08499 0.36486 0.0
H329 H 0.97444 0.1338 0.44989 0.0
C330 C 0.68428 0.18171 0.2722 0.0
C331 C 0.69733 0.19441 0.29028 0.0
N332 N 0.70975 0.20032 0.25951 0.0
N333 N 0.68845 0.17954 0.23021 0.0
C334 C 0.70423 0.19092 0.22345 0.0
H335 H 0.67179 0.17545 0.28818 0.0
Co336 Co 0.6717 0.1672 0.19242 0.0
C337 C 0.69457 0.16315 0.10968 0.0
O338 O 0.67846 0.16766 0.08911 0.0
N339 N 0.6537 0.1544 0.15598 0.0
C340 C 0.63875 0.13078 0.11942 0.0
C341 C 0.65651 0.13793 0.13301 0.0
C342 C 0.63407 0.15659 0.15678 0.0
N343 N 0.62467 0.14246 0.13492 0.0
O344 O 0.67585 0.14273 0.22376 0.0
H345 H 0.67041 0.13071 0.12908 0.0
H346 H 0.6266 0.16738 0.17588 0.0
O347 O 0.69417 0.16209 0.151 0.0
C348 C 0.66124 0.14026 0.24894 0.0
O349 O 0.64674 0.15272 0.24622 0.0
N350 N 0.66579 0.19198 0.16819 0.0
C351 C 0.65523 0.23131 0.15618 0.0
C352 C 0.67138 0.22321 0.13477 0.0
C353 C 0.6767 0.20372 0.142 0.0
C354 C 0.65018 0.19967 0.18929 0.0
C355 C 0.6446 0.21908 0.18367 0.0
H356 H 0.69025 0.19879 0.12849 0.0
H357 H 0.64268 0.19098 0.21304 0.0
H358 H 0.7106 0.19347 0.19221 0.0
H359 H 0.69711 0.19966 0.32302 0.0
H360 H 0.6363 0.11719 0.10264 0.0
H361 H 0.68028 0.23197 0.11355 0.0
H362 H 0.63258 0.22462 0.20259 0.0
C363 C 0.58307 0.93805 0.02334 0.0
C364 C 0.57022 0.95162 0.03906 0.0
N365 N 0.56222 0.96106 1.00558 0.0
N366 N 0.58338 0.93907 0.98011 0.0
C367 C 0.57048 0.95326 0.97022 0.0
H368 H 0.59104 0.92758 0.04238 0.0
Co369 Co 0.5969 0.92209 0.94443 0.0
C370 C 0.60486 0.94547 0.86234 0.0
O371 O 0.60436 0.92935 0.83963 0.0
N372 N 0.61085 0.90412 0.91023 0.0
C373 C 0.63636 0.88897 0.8811 0.0
C374 C 0.62874 0.90674 0.89307 0.0
C375 C 0.60819 0.88454 0.90928 0.0
N376 N 0.62351 0.87497 0.89188 0.0
O377 O 0.62065 0.92683 0.97816 0.0
H378 H 0.63642 0.9205 0.89237 0.0
H379 H 0.59598 0.87727 0.9242 0.0
O380 O 0.60221 0.94458 0.90327 0.0
C381 C 0.62283 0.91216 1.00334 0.0
O382 O 0.61033 0.89774 0.99994 0.0
N383 N 0.57302 0.91547 0.91764 0.0
C384 C 0.53421 0.90437 0.90197 0.0
C385 C 0.54329 0.91894 0.87718 0.0
C386 C 0.56265 0.92444 0.88576 0.0
C387 C 0.56451 0.90116 0.94145 0.0
C388 C 0.5453 0.89537 0.9342 0.0
H389 H 0.56859 0.93658 0.8683 0.0
H390 H 0.57245 0.89481 0.96797 0.0
H391 H 0.56684 0.95751 0.93778 0.0
H392 H 0.5663 0.9537 0.07239 0.0
H393 H 0.6509 0.88643 0.86883 0.0
H394 H 0.53538 0.92641 0.852 0.0
H395 H 0.53898 0.88452 0.95525 0.0
C396 C 0.82766 0.18105 0.76326 0.0
C397 C 0.81379 0.193 0.74542 0.0
N398 N 0.80234 0.19968 0.77718 0.0
N399 N 0.82484 0.18002 0.80604 0.0
C400 C 0.80921 0.19149 0.81353 0.0
H401 H 0.83958 0.17428 0.74622 0.0
Co402 Co 0.84162 0.16753 0.8438 0.0
C403 C 0.81875 0.16385 0.92653 0.0
O404 O 0.83486 0.16844 0.94699 0.0
N405 N 0.85939 0.15445 0.88037 0.0
C406 C 0.87329 0.12983 0.91553 0.0
C407 C 0.85592 0.13774 0.90194 0.0
C408 C 0.87909 0.15614 0.88078 0.0
N409 N 0.88798 0.14127 0.90166 0.0
O410 O 0.83727 0.14312 0.81248 0.0
H411 H 0.84177 0.13094 0.90496 0.0
H412 H 0.8869 0.16694 0.86242 0.0
O413 O 0.81913 0.16262 0.88524 0.0
C414 C 0.85195 0.14064 0.7875 0.0
O415 O 0.86642 0.15312 0.79033 0.0
N416 N 0.84779 0.19226 0.86801 0.0
C417 C 0.85825 0.23164 0.8776 0.0
C418 C 0.84199 0.22395 0.89911 0.0
C419 C 0.83678 0.20433 0.89329 0.0
C420 C 0.86372 0.19958 0.84737 0.0
C421 C 0.86933 0.21902 0.85204 0.0
H422 H 0.82312 0.19959 0.90666 0.0
H423 H 0.87146 0.19057 0.82463 0.0
H424 H 0.80329 0.19429 0.84507 0.0
H425 H 0.8129 0.19738 0.7121 0.0
H426 H 0.87489 0.11616 0.93244 0.0
H427 H 0.83266 0.23331 0.91812 0.0
H428 H 0.8819 0.22429 0.8345 0.0
C429 C 0.58371 0.07502 0.51669 0.0
C430 C 0.57085 0.06134 0.50146 0.0
N431 N 0.56252 0.05247 0.5353 0.0
N432 N 0.58367 0.07463 0.55997 0.0
C433 C 0.5706 0.06069 0.57036 0.0
H434 H 0.59185 0.08518 0.49721 0.0
Co435 Co 0.59672 0.09213 0.59527 0.0
C436 C 0.60468 0.06924 0.67832 0.0
O437 O 0.60399 0.08539 0.70087 0.0
N438 N 0.6101 0.11063 0.62911 0.0
C439 C 0.63469 0.12667 0.65976 0.0
C440 C 0.62772 0.1086 0.64797 0.0
C441 C 0.60703 0.13015 0.62861 0.0
N442 N 0.62174 0.14021 0.64704 0.0
O443 O 0.62072 0.08748 0.56243 0.0
H444 H 0.63569 0.09502 0.65011 0.0
H445 H 0.59504 0.13702 0.61194 0.0
O446 O 0.60213 0.07002 0.63736 0.0
C447 C 0.62277 0.10193 0.53658 0.0
O448 O 0.61 0.11617 0.53897 0.0
N449 N 0.57259 0.09862 0.62112 0.0
C450 C 0.53363 0.10949 0.63576 0.0
C451 C 0.54294 0.0956 0.66202 0.0
C452 C 0.56238 0.09021 0.65395 0.0
C453 C 0.56385 0.11229 0.59589 0.0
C454 C 0.54456 0.11792 0.60254 0.0
H455 H 0.56854 0.07859 0.67272 0.0
H456 H 0.57172 0.11823 0.56882 0.0
H457 H 0.56665 0.05699 0.60295 0.0
H458 H 0.56711 0.05886 0.46817 0.0
H459 H 0.64892 0.12974 0.67321 0.0
H460 H 0.53518 0.0886 0.68805 0.0
H461 H 0.53807 0.12821 0.58041 0.0
C462 C 0.68177 0.82971 0.26902 0.0
C463 C 0.69425 0.81651 0.25073 0.0
N464 N 0.70734 0.81107 0.28058 0.0
N465 N 0.68694 0.83266 0.31022 0.0
C466 C 0.70277 0.82125 0.31627 0.0
H467 H 0.66898 0.83583 0.25389 0.0
Co468 Co 0.67108 0.84601 0.34828 0.0
C469 C 0.69472 0.84975 0.42977 0.0
O470 O 0.67865 0.84561 0.45085 0.0
N471 N 0.654 0.85989 0.38505 0.0
C472 C 0.64071 0.885 0.41964 0.0
C473 C 0.65789 0.87671 0.40581 0.0
C474 C 0.63429 0.85853 0.38619 0.0
N475 N 0.62576 0.87366 0.40677 0.0
O476 O 0.67581 0.87001 0.31558 0.0
H477 H 0.67217 0.88329 0.40812 0.0
H478 H 0.62619 0.84774 0.36851 0.0
O479 O 0.6941 0.8507 0.38844 0.0
C480 C 0.66105 0.87277 0.29101 0.0
O481 O 0.64614 0.86089 0.2951 0.0
N482 N 0.66456 0.82168 0.37391 0.0
C483 C 0.65361 0.78252 0.38526 0.0
C484 C 0.67039 0.79 0.40515 0.0
C485 C 0.67585 0.80949 0.39836 0.0
C486 C 0.64819 0.81454 0.35472 0.0
C487 C 0.64231 0.79523 0.36039 0.0
H488 H 0.68987 0.81402 0.41016 0.0
H489 H 0.64033 0.82351 0.3321 0.0
H490 H 0.70989 0.81928 0.34693 0.0
H491 H 0.69325 0.81067 0.21855 0.0
H492 H 0.63942 0.89883 0.43601 0.0
H493 H 0.67992 0.78054 0.42344 0.0
H494 H 0.62937 0.79012 0.34398 0.0
C495 C 0.93275 0.93709 1.01515 0.0
C496 C 0.94528 0.95073 0.99838 0.0
N497 N 0.95197 0.96175 0.03085 0.0
N498 N 0.93138 0.93963 0.05796 0.0
C499 C 0.94321 0.95487 0.06653 0.0
H500 H 0.92583 0.92549 0.99737 0.0
Co501 Co 0.9182 0.92292 0.09481 0.0
C502 C 0.91393 0.94582 0.17747 0.0
O503 O 0.91792 0.92963 0.19825 0.0
N504 N 0.90446 0.90526 0.13049 0.0
C505 C 0.87927 0.89163 0.16412 0.0
C506 C 0.88755 0.90892 0.15111 0.0
C507 C 0.9059 0.88554 0.13088 0.0
N508 N 0.89069 0.87681 0.15086 0.0
O509 O 0.89416 0.92768 0.0622 0.0
H510 H 0.8809 0.92316 0.15386 0.0
H511 H 0.91683 0.8776 0.11317 0.0
O512 O 0.91319 0.94543 0.13613 0.0
C513 C 0.89186 0.91306 0.03698 0.0
O514 O 0.90432 0.89858 0.04016 0.0
N515 N 0.94255 0.91628 0.1203 0.0
C516 C 0.98163 0.90504 0.13168 0.0
C517 C 0.97399 0.92132 0.15321 0.0
C518 C 0.95451 0.92691 0.14656 0.0
C519 C 0.9498 0.90031 0.09969 0.0
C520 C 0.96907 0.89431 0.10528 0.0
H521 H 0.94985 0.94055 0.16012 0.0
H522 H 0.9409 0.89285 0.07631 0.0
H523 H 0.94586 0.96049 0.09839 0.0
H524 H 0.95002 0.95172 0.96532 0.0
H525 H 0.86539 0.89016 0.18025 0.0
H526 H 0.9833 0.9304 0.1729 0.0
H527 H 0.97427 0.8817 0.08776 0.0
C528 C 0.69309 0.6772 0.76462 0.0
C529 C 0.70705 0.68987 0.7497 0.0
N530 N 0.71375 0.70028 0.78314 0.0
N531 N 0.69112 0.67947 0.80743 0.0
C532 C 0.704 0.6936 0.81774 0.0
H533 H 0.6844 0.66766 0.74485 0.0
Co534 Co 0.67255 0.66798 0.84319 0.0
C535 C 0.70669 0.65143 0.89397 0.0
O536 O 0.70796 0.63663 0.86741 0.0
N537 N 0.65355 0.65653 0.87842 0.0
C538 C 0.63745 0.6378 0.92466 0.0
C539 C 0.65558 0.64452 0.91239 0.0
C540 C 0.63412 0.657 0.87092 0.0
N541 N 0.62397 0.64551 0.89817 0.0
O542 O 0.67685 0.64285 0.81463 0.0
H543 H 0.66933 0.64018 0.92633 0.0
H544 H 0.62756 0.66528 0.84514 0.0
O545 O 0.69328 0.6642 0.88802 0.0
C546 C 0.66323 0.64126 0.7866 0.0
O547 O 0.65041 0.65544 0.78402 0.0
N548 N 0.66625 0.69263 0.86522 0.0
C549 C 0.65518 0.7312 0.88196 0.0
C550 C 0.66555 0.72024 0.91271 0.0
C551 C 0.67088 0.70083 0.90381 0.0
C552 C 0.65586 0.70288 0.83562 0.0
C553 C 0.65033 0.72211 0.84311 0.0
H554 H 0.6788 0.69256 0.92761 0.0
H555 H 0.65226 0.69612 0.8053 0.0
H556 H 0.70574 0.69932 0.84985 0.0
H557 H 0.71117 0.692 0.71651 0.0
H558 H 0.63455 0.62726 0.94973 0.0
H559 H 0.66943 0.72655 0.94337 0.0
H560 H 0.64269 0.72991 0.818 0.0
C561 C 0.58253 0.43406 1.01599 0.0
C562 C 0.56993 0.4471 0.99748 0.0
N563 N 0.56395 0.45964 0.02793 0.0
N564 N 0.58458 0.43834 0.05796 0.0
C565 C 0.57321 0.45418 0.06425 0.0
H566 H 0.58883 0.42152 1.00028 0.0
Co567 Co 0.59692 0.4217 0.09614 0.0
C568 C 0.60092 0.44486 0.17843 0.0
O569 O 0.59625 0.42886 0.19924 0.0
N570 N 0.60972 0.40385 0.13299 0.0
C571 C 0.63344 0.38912 0.16979 0.0
C572 C 0.62619 0.40679 0.15593 0.0
C573 C 0.60764 0.3842 0.13251 0.0
N574 N 0.62184 0.37493 0.15449 0.0
O575 O 0.62141 0.42564 0.0647 0.0
H576 H 0.63334 0.42074 0.15961 0.0
H577 H 0.59689 0.37662 0.11353 0.0
O578 O 0.60207 0.44432 0.13712 0.0
C579 C 0.62381 0.41089 0.03993 0.0
O580 O 0.61125 0.3965 0.04292 0.0
N581 N 0.57214 0.41593 0.1205 0.0
C582 C 0.53288 0.40527 0.13308 0.0
C583 C 0.54091 0.42163 0.15379 0.0
C584 C 0.56036 0.42699 0.14627 0.0
C585 C 0.5645 0.40014 0.09997 0.0
C586 C 0.54514 0.3945 0.10591 0.0
H587 H 0.56524 0.44066 0.15925 0.0
H588 H 0.5732 0.39251 0.07646 0.0
H589 H 0.57061 0.46069 0.09533 0.0
H590 H 0.56485 0.44683 0.9646 0.0
H591 H 0.64706 0.38678 0.18656 0.0
H592 H 0.53212 0.43065 0.1747 0.0
H593 H 0.53964 0.38231 0.08748 0.0
C594 C 0.82659 0.33198 0.26387 0.0
C595 C 0.81316 0.31907 0.24775 0.0
N596 N 0.8031 0.31157 0.28089 0.0
N597 N 0.82485 0.33278 0.30695 0.0
C598 C 0.81036 0.32017 0.31637 0.0
H599 H 0.83746 0.33963 0.24531 0.0
Co600 Co 0.84136 0.34657 0.34306 0.0
C601 C 0.81797 0.35417 0.42466 0.0
O602 O 0.83422 0.35366 0.44691 0.0
N603 N 0.85882 0.36089 0.3778 0.0
C604 C 0.87327 0.38738 0.40387 0.0
C605 C 0.85578 0.37922 0.39193 0.0
C606 C 0.87834 0.35834 0.38131 0.0
N607 N 0.88763 0.37433 0.39671 0.0
O608 O 0.83651 0.37017 0.30877 0.0
H609 H 0.84197 0.38679 0.39019 0.0
H610 H 0.88574 0.34556 0.3695 0.0
O611 O 0.81865 0.35167 0.38367 0.0
C612 C 0.85137 0.3725 0.28424 0.0
O613 O 0.866 0.36029 0.28869 0.0
N614 N 0.8481 0.32278 0.37021 0.0
C615 C 0.85841 0.28358 0.3828 0.0
C616 C 0.84344 0.29223 0.40706 0.0
C617 C 0.83836 0.31185 0.40004 0.0
C618 C 0.86307 0.31471 0.34762 0.0
C619 C 0.8686 0.29535 0.35369 0.0
H620 H 0.82572 0.31749 0.41631 0.0
H621 H 0.87011 0.32311 0.32269 0.0
H622 H 0.80552 0.31695 0.34861 0.0
H623 H 0.81161 0.31475 0.21453 0.0
H624 H 0.87525 0.40237 0.41361 0.0
H625 H 0.83493 0.28362 0.42937 0.0
H626 H 0.88037 0.28947 0.33449 0.0
C627 C 0.93504 0.5791 0.51396 0.0
C628 C 0.94832 0.56601 0.49798 0.0
N629 N 0.95541 0.55554 0.53098 0.0
N630 N 0.93357 0.57675 0.55681 0.0
C631 C 0.94617 0.56224 0.56625 0.0
H632 H 0.92761 0.59019 0.49558 0.0
Co633 Co 0.91935 0.59299 0.59271 0.0
C634 C 0.91173 0.56909 0.67392 0.0
O635 O 0.91237 0.58515 0.69679 0.0
N636 N 0.90469 0.61028 0.62717 0.0
C637 C 0.87856 0.62411 0.65653 0.0
C638 C 0.88686 0.60681 0.64374 0.0
C639 C 0.90664 0.62992 0.62939 0.0
N640 N 0.89088 0.63881 0.64689 0.0
O641 O 0.89598 0.58793 0.55785 0.0
H642 H 0.87976 0.59273 0.6439 0.0
H643 H 0.91855 0.63769 0.61457 0.0
O644 O 0.91422 0.57007 0.63294 0.0
C645 C 0.89357 0.60266 0.53296 0.0
O646 O 0.90556 0.61746 0.53739 0.0
N647 N 0.94291 0.59987 0.62062 0.0
C648 C 0.98184 0.61068 0.636 0.0
C649 C 0.97301 0.59548 0.65934 0.0
C650 C 0.95361 0.59013 0.65085 0.0
C651 C 0.95114 0.6149 0.5985 0.0
C652 C 0.9704 0.62056 0.60566 0.0
H653 H 0.94797 0.57739 0.66667 0.0
H654 H 0.94302 0.62179 0.57292 0.0
H655 H 0.94893 0.55702 0.59843 0.0
H656 H 0.95315 0.56497 0.465 0.0
H657 H 0.86411 0.62564 0.66996 0.0
H658 H 0.98117 0.58733 0.68306 0.0
H659 H 0.97651 0.63194 0.5857 0.0
C660 C 0.68194 0.328 0.76764 0.0
C661 C 0.69424 0.31399 0.78351 0.0
N662 N 0.70643 0.30858 0.75188 0.0
N663 N 0.68637 0.33148 0.7262 0.0
C664 C 0.70149 0.3195 0.7175 0.0
H665 H 0.66982 0.33442 0.78466 0.0
Co666 Co 0.67065 0.3463 0.69067 0.0
C667 C 0.6947 0.35421 0.61007 0.0
O668 O 0.6786 0.354 0.58727 0.0
N669 N 0.65369 0.36156 0.65668 0.0
C670 C 0.63999 0.38824 0.62941 0.0
C671 C 0.65728 0.37959 0.64126 0.0
C672 C 0.63403 0.3598 0.65457 0.0
N673 N 0.62524 0.3759 0.63841 0.0
O674 O 0.67609 0.36922 0.72657 0.0
H675 H 0.67141 0.38657 0.64149 0.0
H676 H 0.62617 0.3478 0.66879 0.0
O677 O 0.69373 0.35138 0.65094 0.0
C678 C 0.6614 0.37166 0.75152 0.0
O679 O 0.64633 0.36008 0.74635 0.0
N680 N 0.66345 0.3231 0.6618 0.0
C681 C 0.65216 0.28439 0.64517 0.0
C682 C 0.66756 0.29317 0.62233 0.0
C683 C 0.6732 0.31242 0.6316 0.0
C684 C 0.64825 0.31494 0.68344 0.0
C685 C 0.64237 0.29579 0.67571 0.0
H686 H 0.68613 0.31795 0.61634 0.0
H687 H 0.64142 0.32297 0.70922 0.0
H688 H 0.70784 0.31778 0.68594 0.0
H689 H 0.69379 0.30771 0.81537 0.0
H690 H 0.63847 0.40292 0.61721 0.0
H691 H 0.67567 0.28508 0.59847 0.0
H692 H 0.6309 0.28974 0.69547 0.0
C693 C 0.93528 0.43176 1.01706 0.0
C694 C 0.94877 0.44414 0.03463 0.0
N695 N 0.95447 0.45677 1.00407 0.0
N696 N 0.93239 0.43656 0.97561 0.0
C697 C 0.9442 0.45201 0.96863 0.0
H698 H 0.9288 0.41936 0.03298 0.0
Co699 Co 0.91825 0.421 0.93838 0.0
C700 C 0.91198 0.44533 0.85775 0.0
O701 O 0.91341 0.42933 0.83483 0.0
N702 N 0.9036 0.4042 0.90258 0.0
C703 C 0.87749 0.39089 0.87194 0.0
C704 C 0.88601 0.40803 0.88514 0.0
C705 C 0.90519 0.38453 0.90028 0.0
N706 N 0.88945 0.37596 0.88206 0.0
O707 O 0.89475 0.42606 0.97269 0.0
H708 H 0.87915 0.42223 0.88482 0.0
H709 H 0.91673 0.37646 0.9157 0.0
O710 O 0.91361 0.44428 0.89894 0.0
C711 C 0.89201 0.4112 0.99702 0.0
O712 O 0.9037 0.39618 0.99215 0.0
N713 N 0.94197 0.41415 0.91106 0.0
C714 C 0.98111 0.40351 0.89874 0.0
C715 C 0.97305 0.41953 0.87687 0.0
C716 C 0.9535 0.42481 0.88392 0.0
C717 C 0.94953 0.39828 0.93147 0.0
C718 C 0.96885 0.39257 0.92543 0.0
H719 H 0.94842 0.43827 0.87015 0.0
H720 H 0.94087 0.39074 0.95522 0.0
H721 H 0.94624 0.45877 0.93759 0.0
H722 H 0.95449 0.44346 0.06697 0.0
H723 H 0.86311 0.38959 0.85802 0.0
H724 H 0.9821 0.42868 0.85673 0.0
H725 H 0.97435 0.38011 0.94302 0.0
C726 C 0.82653 0.68167 0.27003 0.0
C727 C 0.81251 0.69374 0.28687 0.0
N728 N 0.80169 0.70067 0.25429 0.0
N729 N 0.82444 0.68082 0.22703 0.0
C730 C 0.80907 0.69249 0.21843 0.0
H731 H 0.83811 0.67477 0.28796 0.0
Co732 Co 0.84189 0.66859 0.19027 0.0
C733 C 0.82002 0.66442 0.10623 0.0
O734 O 0.83642 0.66903 0.08694 0.0
N735 N 0.86036 0.65582 0.15476 0.0
C736 C 0.87532 0.63201 0.1188 0.0
C737 C 0.85758 0.63927 0.13204 0.0
C738 C 0.88001 0.65791 0.15586 0.0
N739 N 0.88942 0.64365 0.13431 0.0
O740 O 0.83772 0.64405 0.22147 0.0
H741 H 0.84367 0.63211 0.12796 0.0
H742 H 0.88747 0.66876 0.17479 0.0
O743 O 0.81987 0.66337 0.14757 0.0
C744 C 0.85225 0.64199 0.24709 0.0
O745 O 0.86625 0.65503 0.24524 0.0
N746 N 0.84797 0.69341 0.16631 0.0
C747 C 0.85846 0.73277 0.15633 0.0
C748 C 0.84255 0.7249 0.13386 0.0
C749 C 0.83733 0.70528 0.13981 0.0
C750 C 0.86351 0.70091 0.18801 0.0
C751 C 0.86915 0.72033 0.18312 0.0
H752 H 0.82397 0.70036 0.12537 0.0
H753 H 0.87094 0.69204 0.21152 0.0
H754 H 0.80375 0.69549 0.18646 0.0
H755 H 0.81117 0.69806 0.32014 0.0
H756 H 0.87775 0.61837 0.10216 0.0
H757 H 0.8335 0.7341 0.11383 0.0
H758 H 0.88148 0.72569 0.20134 0.0
C759 C 0.58321 0.57598 0.52493 0.0
C760 C 0.5708 0.56219 0.54154 0.0
N761 N 0.56355 0.55175 0.50874 0.0
N762 N 0.58394 0.57409 0.48188 0.0
C763 C 0.57184 0.55911 0.47299 0.0
H764 H 0.59047 0.58724 0.5431 0.0
Co765 Co 0.59676 0.5912 0.44536 0.0
C766 C 0.60152 0.56886 0.36197 0.0
O767 O 0.59766 0.58518 0.34153 0.0
N768 N 0.61012 0.60927 0.41013 0.0
C769 C 0.63495 0.62359 0.3767 0.0
C770 C 0.62711 0.60607 0.38949 0.0
C771 C 0.6082 0.62894 0.41008 0.0
N772 N 0.6232 0.6381 0.39022 0.0
O773 O 0.62095 0.58654 0.47744 0.0
H774 H 0.63409 0.592 0.3865 0.0
H775 H 0.59704 0.63651 0.42792 0.0
O776 O 0.60197 0.569 0.40334 0.0
C777 C 0.62334 0.60102 0.50299 0.0
O778 O 0.61089 0.61553 0.50042 0.0
N779 N 0.57226 0.59765 0.42031 0.0
C780 C 0.53306 0.6086 0.40791 0.0
C781 C 0.54125 0.59284 0.38536 0.0
C782 C 0.5607 0.58736 0.3926 0.0
C783 C 0.56454 0.61303 0.44217 0.0
C784 C 0.54518 0.61879 0.4364 0.0
H785 H 0.56569 0.5741 0.37787 0.0
H786 H 0.57317 0.6202 0.46649 0.0
H787 H 0.56866 0.55404 0.44092 0.0
H788 H 0.56653 0.56072 0.57483 0.0
H789 H 0.64877 0.62539 0.3605 0.0
H790 H 0.53259 0.58434 0.36318 0.0
H791 H 0.53958 0.63056 0.45595 0.0
C792 C 0.32719 0.33412 0.2729 0.0
C793 C 0.31312 0.32228 0.29034 0.0
N794 N 0.302 0.31544 0.25818 0.0
N795 N 0.32483 0.3349 0.22996 0.0
C796 C 0.30925 0.32345 0.222 0.0
H797 H 0.33899 0.34089 0.29035 0.0
Co798 Co 0.34212 0.34681 0.19237 0.0
C799 C 0.31948 0.35035 0.10903 0.0
O800 O 0.33547 0.34522 0.08869 0.0
N801 N 0.36042 0.35924 0.15595 0.0
C802 C 0.37537 0.38249 0.11818 0.0
C803 C 0.35762 0.37537 0.13177 0.0
C804 C 0.38008 0.35726 0.15746 0.0
N805 N 0.38947 0.37118 0.13487 0.0
O806 O 0.33809 0.3715 0.22281 0.0
H807 H 0.34369 0.38241 0.12695 0.0
H808 H 0.38755 0.34678 0.1774 0.0
O809 O 0.31993 0.35192 0.15025 0.0
C810 C 0.35259 0.37374 0.24839 0.0
O811 O 0.36675 0.36087 0.24662 0.0
N812 N 0.34798 0.3218 0.16905 0.0
C813 C 0.35835 0.28237 0.15966 0.0
C814 C 0.34225 0.29015 0.13768 0.0
C815 C 0.33708 0.3098 0.14338 0.0
C816 C 0.36366 0.31436 0.19039 0.0
C817 C 0.36924 0.2949 0.18578 0.0
H818 H 0.32358 0.31464 0.12944 0.0
H819 H 0.37126 0.32331 0.21344 0.0
H820 H 0.30369 0.32044 0.19024 0.0
H821 H 0.31194 0.31802 0.32369 0.0
H822 H 0.37779 0.39586 0.10049 0.0
H823 H 0.33303 0.28087 0.11824 0.0
H824 H 0.38169 0.28959 0.20369 0.0
C825 C 0.43243 0.57672 0.02146 0.0
C826 C 0.44523 0.56315 0.03748 0.0
N827 N 0.45294 0.55336 1.00422 0.0
N828 N 0.43188 0.57533 0.97829 0.0
C829 C 0.44456 0.5609 0.96874 0.0
H830 H 0.42469 0.58746 0.0402 0.0
Co831 Co 0.4184 0.59221 0.94227 0.0
C832 C 0.4109 0.56875 0.86033 0.0
O833 O 0.41224 0.58479 0.8375 0.0
N834 N 0.4045 0.6101 0.90765 0.0
C835 C 0.37953 0.62506 0.87571 0.0
C836 C 0.38697 0.60736 0.88879 0.0
C837 C 0.40701 0.6297 0.90685 0.0
N838 N 0.39208 0.6391 0.8876 0.0
O839 O 0.39464 0.58764 0.97613 0.0
H840 H 0.3794 0.59354 0.88739 0.0
H841 H 0.41875 0.63716 0.92308 0.0
O842 O 0.41299 0.56964 0.90143 0.0
C843 C 0.39249 0.60232 1.00126 0.0
O844 O 0.40494 0.61677 0.99761 0.0
N845 N 0.44233 0.59866 0.91527 0.0
C846 C 0.48102 0.60985 0.89885 0.0
C847 C 0.47232 0.59445 0.87603 0.0
C848 C 0.45298 0.58898 0.88488 0.0
C849 C 0.4506 0.61364 0.93746 0.0
C850 C 0.46972 0.61957 0.92958 0.0
H851 H 0.44732 0.57626 0.86907 0.0
H852 H 0.44256 0.62044 0.96325 0.0
H853 H 0.44799 0.55631 0.93644 0.0
H854 H 0.44935 0.56135 0.07077 0.0
H855 H 0.36526 0.62757 0.86189 0.0
H856 H 0.48052 0.58636 0.8523 0.0
H857 H 0.47585 0.63111 0.94906 0.0
C858 C 0.18477 0.68329 0.7737 0.0
C859 C 0.19772 0.69604 0.79192 0.0
N860 N 0.21033 0.70183 0.76142 0.0
N861 N 0.18917 0.68094 0.73188 0.0
C862 C 0.20502 0.69227 0.72539 0.0
H863 H 0.17217 0.67712 0.78945 0.0
Co864 Co 0.17252 0.66847 0.69397 0.0
C865 C 0.19551 0.66483 0.6113 0.0
O866 O 0.17943 0.6696 0.59088 0.0
N867 N 0.1546 0.65551 0.65743 0.0
C868 C 0.13997 0.63163 0.62099 0.0
C869 C 0.15764 0.63916 0.63418 0.0
C870 C 0.13492 0.65725 0.65869 0.0
N871 N 0.1257 0.64292 0.63701 0.0
O872 O 0.17675 0.64402 0.72543 0.0
H873 H 0.17167 0.63224 0.62986 0.0
H874 H 0.12729 0.66784 0.67799 0.0
O875 O 0.19507 0.66347 0.65259 0.0
C876 C 0.16216 0.6416 0.75069 0.0
O877 O 0.14768 0.65408 0.74798 0.0
N878 N 0.1665 0.69324 0.66969 0.0
C879 C 0.15629 0.73269 0.65972 0.0
C880 C 0.17265 0.72492 0.63874 0.0
C881 C 0.17776 0.70527 0.64483 0.0
C882 C 0.15054 0.70068 0.69002 0.0
C883 C 0.14504 0.72014 0.68508 0.0
H884 H 0.19151 0.70048 0.63205 0.0
H885 H 0.14274 0.69177 0.71284 0.0
H886 H 0.21162 0.69466 0.69432 0.0
H887 H 0.1973 0.7014 0.82456 0.0
H888 H 0.13775 0.61801 0.60413 0.0
H889 H 0.18214 0.73422 0.61999 0.0
H890 H 0.1324 0.72547 0.70231 0.0
C891 C 0.07902 0.43038 0.51901 0.0
C892 C 0.0667 0.44346 0.5382 0.0
N893 N 0.06322 0.45802 0.51029 0.0
N894 N 0.0834 0.43661 0.47915 0.0
C895 C 0.07376 0.4537 0.4749 0.0
H896 H 0.08351 0.41657 0.53244 0.0
Co897 Co 0.09638 0.42068 0.44051 0.0
C898 C 0.09888 0.44472 0.35945 0.0
O899 O 0.09317 0.42906 0.33869 0.0
N900 N 0.10999 0.40334 0.40329 0.0
C901 C 0.13373 0.38975 0.36426 0.0
C902 C 0.12535 0.40708 0.37732 0.0
C903 C 0.10984 0.38361 0.40633 0.0
N904 N 0.12404 0.37504 0.38311 0.0
O905 O 0.12053 0.42501 0.47274 0.0
H906 H 0.13116 0.42143 0.37092 0.0
H907 H 0.10062 0.37552 0.42791 0.0
O908 O 0.10127 0.44372 0.40047 0.0
C909 C 0.12274 0.41054 0.49841 0.0
O910 O 0.11023 0.39611 0.49567 0.0
N911 N 0.07178 0.41472 0.41501 0.0
C912 C 0.03235 0.40446 0.40292 0.0
C913 C 0.03957 0.42255 0.38878 0.0
C914 C 0.05921 0.42746 0.39547 0.0
C915 C 0.06486 0.39724 0.42919 0.0
C916 C 0.04557 0.39157 0.42229 0.0
H917 H 0.06366 0.4421 0.38773 0.0
H918 H 0.07381 0.38818 0.44936 0.0
H919 H 0.07325 0.46206 0.4455 0.0
H920 H 0.06006 0.44189 0.56951 0.0
H921 H 0.14688 0.38817 0.34537 0.0
H922 H 0.02994 0.43338 0.37505 0.0
H923 H 0.04096 0.37745 0.43396 0.0
C924 C 0.33115 0.68328 0.26582 0.0
C925 C 0.31816 0.69596 0.24742 0.0
N926 N 0.30524 0.70141 0.2776 0.0
N927 N 0.32648 0.68067 0.30743 0.0
C928 C 0.31043 0.69175 0.3136 0.0
H929 H 0.34394 0.67733 0.25039 0.0
Co930 Co 0.34299 0.66815 0.3456 0.0
C931 C 0.31979 0.66471 0.42798 0.0
O932 O 0.33582 0.66955 0.44846 0.0
N933 N 0.36076 0.65512 0.38249 0.0
C934 C 0.37509 0.63135 0.4199 0.0
C935 C 0.35754 0.63886 0.40598 0.0
C936 C 0.38045 0.65679 0.38178 0.0
N937 N 0.38949 0.64255 0.40412 0.0
O938 O 0.33882 0.64372 0.31408 0.0
H939 H 0.34346 0.63202 0.41008 0.0
H940 H 0.38824 0.66729 0.36252 0.0
O941 O 0.32031 0.6632 0.38672 0.0
C942 C 0.35348 0.64131 0.28902 0.0
O943 O 0.36797 0.65375 0.29204 0.0
N944 N 0.34897 0.6929 0.36989 0.0
C945 C 0.3592 0.73233 0.37976 0.0
C946 C 0.34265 0.72466 0.40019 0.0
C947 C 0.33754 0.70502 0.39414 0.0
C948 C 0.3651 0.70025 0.35007 0.0
C949 C 0.37062 0.7197 0.35498 0.0
H950 H 0.32366 0.7003 0.40641 0.0
H951 H 0.37304 0.69129 0.32758 0.0
H952 H 0.30357 0.69388 0.34449 0.0
H953 H 0.31872 0.70148 0.21491 0.0
H954 H 0.37718 0.61781 0.43719 0.0
H955 H 0.33303 0.73403 0.41844 0.0
H956 H 0.38339 0.72496 0.33814 0.0
C957 C 0.08394 0.57599 1.01451 0.0
C958 C 0.07182 0.562 0.99774 0.0
N959 N 0.06432 0.55168 0.03049 0.0
N960 N 0.08426 0.57437 0.05765 0.0
C961 C 0.07219 0.55934 0.06641 0.0
H962 H 0.09127 0.58721 0.99632 0.0
Co963 Co 0.09655 0.59183 0.09432 0.0
C964 C 0.10115 0.56955 0.17811 0.0
O965 O 0.09701 0.58581 0.19845 0.0
N966 N 0.10929 0.6103 0.12971 0.0
C967 C 0.13293 0.62556 0.16555 0.0
C968 C 0.12588 0.60772 0.15239 0.0
C969 C 0.10694 0.62993 0.12854 0.0
N970 N 0.12109 0.63952 0.15003 0.0
O971 O 0.12104 0.58764 0.06298 0.0
H972 H 0.1332 0.59388 0.15652 0.0
H973 H 0.09594 0.63722 0.10964 0.0
O974 O 0.10187 0.56976 0.13675 0.0
C975 C 0.12318 0.60213 0.03731 0.0
O976 O 0.11028 0.61627 0.03926 0.0
N977 N 0.0718 0.5979 0.11855 0.0
C978 C 0.03269 0.60903 0.13125 0.0
C979 C 0.04089 0.59333 0.15406 0.0
C980 C 0.0603 0.58775 0.14666 0.0
C981 C 0.06401 0.61308 0.09612 0.0
C982 C 0.0447 0.61893 0.10202 0.0
H983 H 0.06534 0.57459 0.16177 0.0
H984 H 0.07259 0.62009 0.07147 0.0
H985 H 0.06873 0.55443 0.09848 0.0
H986 H 0.06792 0.56031 0.9643 0.0
H987 H 0.14654 0.62816 0.18217 0.0
H988 H 0.03228 0.58502 0.17669 0.0
H989 H 0.03906 0.63059 0.08217 0.0
C990 C 0.18818 0.33404 0.763 0.0
C991 C 0.20197 0.32169 0.74618 0.0
N992 N 0.21226 0.31413 0.7789 0.0
N993 N 0.18992 0.33444 0.80612 0.0
C994 C 0.20481 0.32217 0.81482 0.0
H995 H 0.17703 0.3415 0.74487 0.0
Co996 Co 0.17277 0.34714 0.84278 0.0
C997 C 0.19521 0.35194 0.9261 0.0
O998 O 0.17893 0.34815 0.94669 0.0
N999 N 0.15463 0.36037 0.87811 0.0
C1000 C 0.14013 0.38533 0.91073 0.0
C1001 C 0.15772 0.37742 0.89857 0.0
C1002 C 0.13495 0.35845 0.87775 0.0
N1003 N 0.12569 0.37353 0.89703 0.0
O1004 O 0.17729 0.37139 0.81091 0.0
H1005 H 0.17176 0.38444 0.90167 0.0
H1006 H 0.12746 0.34726 0.85983 0.0
O1007 O 0.19499 0.35235 0.88473 0.0
C1008 C 0.16275 0.37383 0.78555 0.0
O1009 O 0.1483 0.36131 0.78798 0.0
N1010 N 0.16644 0.3226 0.86768 0.0
C1011 C 0.15569 0.28336 0.87974 0.0
C1012 C 0.17134 0.29159 0.90257 0.0
C1013 C 0.17671 0.31108 0.89553 0.0
C1014 C 0.15114 0.31485 0.8456 0.0
C1015 C 0.14549 0.29546 0.85118 0.0
H1016 H 0.18989 0.31612 0.91049 0.0
H1017 H 0.14398 0.32348 0.82125 0.0
H1018 H 0.20977 0.31872 0.84685 0.0
H1019 H 0.20354 0.31768 0.71277 0.0
H1020 H 0.13821 0.39924 0.9265 0.0
H1021 H 0.17982 0.28293 0.92481 0.0
H1022 H 0.13379 0.28982 0.83146 0.0
C1023 C 0.43329 0.4333 0.51639 0.0
C1024 C 0.44665 0.44596 0.49926 0.0
N1025 N 0.45255 0.45812 0.53053 0.0
N1026 N 0.43069 0.43746 0.55827 0.0
C1027 C 0.44253 0.45281 0.56594 0.0
H1028 H 0.42679 0.42109 0.49985 0.0
Co1029 Co 0.41716 0.42125 0.59522 0.0
C1030 C 0.41036 0.44515 0.67652 0.0
O1031 O 0.41189 0.42917 0.69949 0.0
N1032 N 0.40321 0.40374 0.63069 0.0
C1033 C 0.37808 0.38896 0.66245 0.0
C1034 C 0.38573 0.40664 0.64966 0.0
C1035 C 0.40553 0.38412 0.63133 0.0
N1036 N 0.39048 0.37481 0.65031 0.0
O1037 O 0.39341 0.42595 0.56163 0.0
H1038 H 0.37828 0.42052 0.6511 0.0
H1039 H 0.41715 0.37656 0.61493 0.0
O1040 O 0.41213 0.44415 0.63537 0.0
C1041 C 0.39096 0.41126 0.53668 0.0
O1042 O 0.40298 0.39646 0.5408 0.0
N1043 N 0.44117 0.41482 0.6218 0.0
C1044 C 0.48053 0.40502 0.63369 0.0
C1045 C 0.47196 0.42029 0.65712 0.0
C1046 C 0.45229 0.42517 0.65026 0.0
C1047 C 0.44923 0.39965 0.59986 0.0
C1048 C 0.4687 0.39439 0.60556 0.0
H1049 H 0.44678 0.43812 0.66546 0.0
H1050 H 0.44081 0.39234 0.57538 0.0
H1051 H 0.44486 0.45903 0.59741 0.0
H1052 H 0.45224 0.44572 0.46679 0.0
H1053 H 0.36376 0.38657 0.67607 0.0
H1054 H 0.48068 0.42917 0.67847 0.0
H1055 H 0.47462 0.38251 0.58675 0.0
C1056 C 0.14305 0.12297 0.04812 0.0
C1057 C 0.13713 0.10454 0.03344 0.0
C1058 C 0.15107 0.12559 0.08916 0.0
C1059 C 0.15366 0.10931 0.11658 0.0
C1060 C 0.14971 0.09036 0.1002 0.0
C1061 C 0.1413 0.08819 0.05892 0.0
C1062 C 0.15488 0.14611 0.10461 0.0
C1063 C 0.15298 0.07249 0.12738 0.0
C1064 C 0.17772 0.12478 0.22241 0.0
C1065 C 0.16123 0.12908 0.24735 0.0
C1066 C 0.17574 0.11652 0.18093 0.0
C1067 C 0.15687 0.11282 0.16381 0.0
C1068 C 0.14041 0.11567 0.19055 0.0
C1069 C 0.14283 0.12353 0.23178 0.0
C1070 C 0.19379 0.11299 0.15449 0.0
C1071 C 0.11996 0.11214 0.17429 0.0
H1072 H 0.14005 0.13569 0.02851 0.0
H1073 H 0.13674 0.07389 0.04807 0.0
H1074 H 0.14414 0.14996 0.12986 0.0
H1075 H 0.1696 0.14721 0.11904 0.0
H1076 H 0.15373 0.15701 0.07835 0.0
H1077 H 0.15444 0.05919 0.10729 0.0
H1078 H 0.16625 0.07409 0.14747 0.0
H1079 H 0.14037 0.07041 0.14915 0.0
H1080 H 0.192 0.12902 0.23397 0.0
H1081 H 0.12999 0.12655 0.25098 0.0
H1082 H 0.19624 0.1256 0.13288 0.0
H1083 H 0.19215 0.09979 0.13425 0.0
H1084 H 0.20689 0.1113 0.17511 0.0
H1085 H 0.11656 0.12272 0.1484 0.0
H1086 H 0.10884 0.11372 0.19996 0.0
H1087 H 0.11871 0.09731 0.16046 0.0
C1088 C 0.14255 0.89299 0.48564 0.0
C1089 C 0.13663 0.91138 0.50055 0.0
C1090 C 0.1506 0.89046 0.4446 0.0
C1091 C 0.15324 0.90681 0.41741 0.0
C1092 C 0.14924 0.92571 0.43398 0.0
C1093 C 0.14079 0.92779 0.47525 0.0
C1094 C 0.15446 0.86997 0.42895 0.0
C1095 C 0.15257 0.94366 0.40707 0.0
C1096 C 0.17786 0.8911 0.31252 0.0
C1097 C 0.1615 0.88667 0.2873 0.0
C1098 C 0.17567 0.89961 0.3537 0.0
C1099 C 0.15671 0.90339 0.37024 0.0
C1100 C 0.1404 0.90051 0.34308 0.0
C1101 C 0.14303 0.8924 0.30213 0.0
C1102 C 0.19357 0.9032 0.38058 0.0
C1103 C 0.11986 0.90414 0.35871 0.0
H1104 H 0.1396 0.88021 0.50511 0.0
H1105 H 0.13625 0.94207 0.4863 0.0
H1106 H 0.14389 0.86624 0.40327 0.0
H1107 H 0.16928 0.86887 0.41501 0.0
H1108 H 0.15311 0.85899 0.45499 0.0
H1109 H 0.1541 0.95688 0.42738 0.0
H1110 H 0.1658 0.94207 0.38687 0.0
H1111 H 0.13993 0.94588 0.38541 0.0
H1112 H 0.19219 0.8867 0.30154 0.0
H1113 H 0.13031 0.88921 0.28271 0.0
H1114 H 0.19592 0.89064 0.4024 0.0
H1115 H 0.19181 0.91646 0.40061 0.0
H1116 H 0.20677 0.90484 0.36026 0.0
H1117 H 0.11624 0.89352 0.38438 0.0
H1118 H 0.10891 0.90266 0.33265 0.0
H1119 H 0.11859 0.91894 0.37263 0.0
C1120 C 0.372 0.89278 0.73667 0.0
C1121 C 0.35359 0.8874 0.7524 0.0
C1122 C 0.37436 0.90083 0.69557 0.0
C1123 C 0.35784 0.90402 0.66921 0.0
C1124 C 0.33898 0.90062 0.68671 0.0
C1125 C 0.33706 0.89215 0.728 0.0
C1126 C 0.3948 0.90404 0.6789 0.0
C1127 C 0.32088 0.90455 0.66072 0.0
C1128 C 0.3732 0.92804 0.56341 0.0
C1129 C 0.37682 0.91153 0.53804 0.0
C1130 C 0.36508 0.92616 0.60504 0.0
C1131 C 0.36087 0.90734 0.62188 0.0
C1132 C 0.36292 0.89093 0.59466 0.0
C1133 C 0.37064 0.89327 0.55326 0.0
C1134 C 0.36237 0.94418 0.632 0.0
C1135 C 0.35881 0.87053 0.6106 0.0
H1136 H 0.38486 0.88933 0.75545 0.0
H1137 H 0.32277 0.888 0.73968 0.0
H1138 H 0.39795 0.89334 0.6531 0.0
H1139 H 0.39622 0.91881 0.66485 0.0
H1140 H 0.40599 0.90235 0.70441 0.0
H1141 H 0.30794 0.90651 0.6817 0.0
H1142 H 0.32269 0.91774 0.64045 0.0
H1143 H 0.31803 0.89201 0.63917 0.0
H1144 H 0.37796 0.94222 0.55214 0.0
H1145 H 0.3732 0.88044 0.53374 0.0
H1146 H 0.37526 0.94616 0.65302 0.0
H1147 H 0.34932 0.94286 0.65284 0.0
H1148 H 0.36088 0.95741 0.61169 0.0
H1149 H 0.36956 0.86659 0.63576 0.0
H1150 H 0.35968 0.85952 0.58455 0.0
H1151 H 0.34411 0.86975 0.62526 0.0
C1152 C 0.37187 0.12195 0.80316 0.0
C1153 C 0.35349 0.12755 0.78755 0.0
C1154 C 0.37423 0.11398 0.84433 0.0
C1155 C 0.35773 0.11107 0.87092 0.0
C1156 C 0.33888 0.11474 0.85364 0.0
C1157 C 0.33696 0.12313 0.81226 0.0
C1158 C 0.39466 0.1105 0.86076 0.0
C1159 C 0.3208 0.11111 0.87989 0.0
C1160 C 0.37307 0.08678 0.97647 0.0
C1161 C 0.37699 0.10323 1.00182 0.0
C1162 C 0.36485 0.08881 0.93496 0.0
C1163 C 0.36085 0.10769 0.91821 0.0
C1164 C 0.36322 0.12406 0.94543 0.0
C1165 C 0.37104 0.12158 0.98671 0.0
C1166 C 0.36179 0.07084 0.90802 0.0
C1167 C 0.35936 0.14452 0.92957 0.0
H1168 H 0.38473 0.1251 0.78413 0.0
H1169 H 0.32269 0.12741 0.80066 0.0
H1170 H 0.39801 0.12113 0.88657 0.0
H1171 H 0.39593 0.09569 0.87474 0.0
H1172 H 0.40581 0.11206 0.83514 0.0
H1173 H 0.30776 0.10933 0.8591 0.0
H1174 H 0.32247 0.09791 0.90018 0.0
H1175 H 0.3182 0.12371 0.90142 0.0
H1176 H 0.37764 0.07254 0.98767 0.0
H1177 H 0.37381 0.13437 1.00622 0.0
H1178 H 0.37457 0.06869 0.88673 0.0
H1179 H 0.34867 0.07235 0.88744 0.0
H1180 H 0.36021 0.05762 0.92832 0.0
H1181 H 0.3701 0.14832 0.90427 0.0
H1182 H 0.36045 0.15551 0.95563 0.0
H1183 H 0.34463 0.14553 0.91511 0.0
C1184 C 0.87178 0.89393 0.80162 0.0
C1185 C 0.85343 0.88789 0.7867 0.0
C1186 C 0.87426 0.90195 0.84269 0.0
C1187 C 0.8579 0.90446 0.8699 0.0
C1188 C 0.83902 0.90038 0.85328 0.0
C1189 C 0.83699 0.89195 0.81199 0.0
C1190 C 0.89472 0.90589 0.85839 0.0
C1191 C 0.82105 0.90359 0.88018 0.0
C1192 C 0.87223 0.89393 0.98514 0.0
C1193 C 0.87788 0.91236 1.00029 0.0
C1194 C 0.86421 0.89141 0.94408 0.0
C1195 C 0.8613 0.90779 0.91712 0.0
C1196 C 0.865 0.92671 0.93397 0.0
C1197 C 0.87345 0.92879 0.97525 0.0
C1198 C 0.86068 0.87091 0.92813 0.0
C1199 C 0.86137 0.94469 0.90734 0.0
H1200 H 0.88457 0.89104 0.78216 0.0
H1201 H 0.82274 0.88731 0.80096 0.0
H1202 H 0.89574 0.92069 0.87245 0.0
H1203 H 0.89853 0.89529 0.88397 0.0
H1204 H 0.90571 0.90465 0.83234 0.0
H1205 H 0.80784 0.90513 0.85984 0.0
H1206 H 0.81887 0.89089 0.90169 0.0
H1207 H 0.82259 0.91678 0.90052 0.0
H1208 H 0.8754 0.88115 1.00442 0.0
H1209 H 0.87779 0.9431 0.98646 0.0
H1210 H 0.87129 0.86743 0.90235 0.0
H1211 H 0.84587 0.86961 0.91424 0.0
H1212 H 0.86225 0.85987 0.95399 0.0
H1213 H 0.87399 0.94723 0.88583 0.0
H1214 H 0.85955 0.95779 0.92788 0.0
H1215 H 0.8482 0.94293 0.88702 0.0
C1216 C 0.83623 0.12267 0.72536 0.0
C1217 C 0.85259 0.1266 0.75099 0.0
C1218 C 0.8384 0.11441 0.68395 0.0
C1219 C 0.85734 0.11039 0.66759 0.0
C1220 C 0.8736 0.11272 0.69515 0.0
C1221 C 0.87098 0.12058 0.73633 0.0
C1222 C 0.82053 0.11139 0.65663 0.0
C1223 C 0.89412 0.10881 0.67973 0.0
C1224 C 0.87313 0.08675 0.56165 0.0
C1225 C 0.87767 0.10334 0.53723 0.0
C1226 C 0.8646 0.08857 0.6029 0.0
C1227 C 0.86091 0.10738 0.62033 0.0
C1228 C 0.86393 0.12395 0.59399 0.0
C1229 C 0.87205 0.12168 0.55295 0.0
C1230 C 0.86086 0.07042 0.62887 0.0
C1231 C 0.8604 0.14434 0.61059 0.0
H1232 H 0.82196 0.12732 0.7362 0.0
H1233 H 0.8837 0.12342 0.75605 0.0
H1234 H 0.81847 0.1242 0.63537 0.0
H1235 H 0.82212 0.0983 0.63602 0.0
H1236 H 0.80724 0.1098 0.67667 0.0
H1237 H 0.90499 0.10979 0.70606 0.0
H1238 H 0.89514 0.09413 0.66509 0.0
H1239 H 0.89807 0.11961 0.65466 0.0
H1240 H 0.87744 0.07251 0.54998 0.0
H1241 H 0.8753 0.13459 0.53414 0.0
H1242 H 0.84763 0.07207 0.64904 0.0
H1243 H 0.87341 0.06772 0.65051 0.0
H1244 H 0.8591 0.05745 0.60788 0.0
H1245 H 0.84555 0.14559 0.62428 0.0
H1246 H 0.86208 0.15556 0.58514 0.0
H1247 H 0.87094 0.1476 0.63666 0.0
C1248 C 0.64238 0.12033 0.30074 0.0
C1249 C 0.66073 0.12626 0.28558 0.0
C1250 C 0.63996 0.11244 0.34198 0.0
C1251 C 0.65636 0.11 0.3691 0.0
C1252 C 0.67522 0.11396 0.35226 0.0
C1253 C 0.6772 0.12224 0.31079 0.0
C1254 C 0.61951 0.10861 0.35792 0.0
C1255 C 0.69322 0.11086 0.37912 0.0
C1256 C 0.64225 0.12093 0.48427 0.0
C1257 C 0.63672 0.10254 0.49987 0.0
C1258 C 0.65017 0.12333 0.44306 0.0
C1259 C 0.65305 0.10685 0.41641 0.0
C1260 C 0.64944 0.08798 0.43368 0.0
C1261 C 0.64113 0.08603 0.47512 0.0
C1262 C 0.65361 0.14377 0.42665 0.0
C1263 C 0.65301 0.06992 0.40734 0.0
H1264 H 0.62957 0.12323 0.28136 0.0
H1265 H 0.69144 0.12682 0.29957 0.0
H1266 H 0.61851 0.0939 0.37248 0.0
H1267 H 0.61575 0.11938 0.38317 0.0
H1268 H 0.6085 0.1097 0.3319 0.0
H1269 H 0.70643 0.10935 0.35877 0.0
H1270 H 0.69536 0.12357 0.40056 0.0
H1271 H 0.69175 0.09768 0.39955 0.0
H1272 H 0.63905 0.13377 0.50331 0.0
H1273 H 0.63684 0.07176 0.48668 0.0
H1274 H 0.64289 0.14715 0.40101 0.0
H1275 H 0.66836 0.14504 0.41246 0.0
H1276 H 0.65213 0.1549 0.45234 0.0
H1277 H 0.64039 0.06739 0.38582 0.0
H1278 H 0.65477 0.05685 0.42806 0.0
H1279 H 0.6662 0.07158 0.38702 0.0
C1280 C 0.64227 0.8926 0.23875 0.0
C1281 C 0.66059 0.8866 0.254 0.0
C1282 C 0.63991 0.90061 0.19761 0.0
C1283 C 0.65636 0.90316 0.17069 0.0
C1284 C 0.67519 0.89908 0.18759 0.0
C1285 C 0.6771 0.89066 0.22895 0.0
C1286 C 0.6195 0.90455 0.18159 0.0
C1287 C 0.69324 0.9023 0.16097 0.0
C1288 C 0.64232 0.89289 0.05522 0.0
C1289 C 0.63672 0.91136 0.04017 0.0
C1290 C 0.65026 0.89026 0.09634 0.0
C1291 C 0.65311 0.90658 0.12345 0.0
C1292 C 0.64946 0.92554 0.10672 0.0
C1293 C 0.64111 0.92773 0.06537 0.0
C1294 C 0.65375 0.86973 0.11216 0.0
C1295 C 0.65303 0.94346 0.13354 0.0
H1296 H 0.62942 0.88973 0.25802 0.0
H1297 H 0.69132 0.88607 0.24025 0.0
H1298 H 0.6185 0.91936 0.16756 0.0
H1299 H 0.6158 0.89397 0.1559 0.0
H1300 H 0.60842 0.90326 0.20744 0.0
H1301 H 0.7064 0.9038 0.1815 0.0
H1302 H 0.69548 0.88964 0.13944 0.0
H1303 H 0.69178 0.91552 0.14067 0.0
H1304 H 0.63917 0.88015 0.03581 0.0
H1305 H 0.6368 0.94206 0.05421 0.0
H1306 H 0.64304 0.86618 0.1377 0.0
H1307 H 0.66851 0.8684 0.12632 0.0
H1308 H 0.65229 0.85875 0.08616 0.0
H1309 H 0.6404 0.94589 0.1551 0.0
H1310 H 0.65481 0.95663 0.11317 0.0
H1311 H 0.66621 0.94167 0.15384 0.0
C1312 C 0.64126 0.58488 0.5648 0.0
C1313 C 0.63733 0.6014 0.53964 0.0
C1314 C 0.64963 0.58677 0.60619 0.0
C1315 C 0.6538 0.60559 0.62299 0.0
C1316 C 0.6514 0.62203 0.59594 0.0
C1317 C 0.6434 0.61969 0.5548 0.0
C1318 C 0.65266 0.56873 0.63296 0.0
C1319 C 0.65546 0.64244 0.61182 0.0
C1320 C 0.6438 0.62049 0.73796 0.0
C1321 C 0.66233 0.62612 0.75245 0.0
C1322 C 0.64105 0.61208 0.69734 0.0
C1323 C 0.65731 0.60888 0.67018 0.0
C1324 C 0.67632 0.61245 0.68662 0.0
C1325 C 0.67863 0.62122 0.72748 0.0
C1326 C 0.62047 0.60865 0.68184 0.0
C1327 C 0.69416 0.60853 0.65976 0.0
H1328 H 0.63655 0.57069 0.5536 0.0
H1329 H 0.64056 0.63253 0.53545 0.0
H1330 H 0.6658 0.57013 0.65352 0.0
H1331 H 0.63989 0.56657 0.65425 0.0
H1332 H 0.65418 0.55555 0.61252 0.0
H1333 H 0.65424 0.6535 0.5859 0.0
H1334 H 0.64492 0.64624 0.63751 0.0
H1335 H 0.67029 0.64334 0.6258 0.0
H1336 H 0.63113 0.6242 0.75713 0.0
H1337 H 0.693 0.62565 0.73815 0.0
H1338 H 0.61906 0.59391 0.66766 0.0
H1339 H 0.61686 0.6194 0.65641 0.0
H1340 H 0.60959 0.61012 0.70805 0.0
H1341 H 0.69224 0.5952 0.64006 0.0
H1342 H 0.70736 0.60685 0.68007 0.0
H1343 H 0.69662 0.62096 0.63763 0.0
C1344 C 0.67765 0.38921 0.81392 0.0
C1345 C 0.66101 0.38503 0.78936 0.0
C1346 C 0.67593 0.39751 0.85542 0.0
C1347 C 0.65717 0.40136 0.87297 0.0
C1348 C 0.64056 0.3986 0.84663 0.0
C1349 C 0.64273 0.39071 0.80536 0.0
C1350 C 0.69412 0.40094 0.88142 0.0
C1351 C 0.62021 0.40229 0.86335 0.0
C1352 C 0.64372 0.39155 0.98898 0.0
C1353 C 0.63791 0.41004 1.0035 0.0
C1354 C 0.65162 0.38879 0.94786 0.0
C1355 C 0.6542 0.40499 0.92022 0.0
C1356 C 0.6504 0.424 0.93645 0.0
C1357 C 0.6421 0.42632 0.9778 0.0
C1358 C 0.65528 0.36821 0.93258 0.0
C1359 C 0.65368 0.4418 0.90904 0.0
H1360 H 0.69185 0.38488 0.80202 0.0
H1361 H 0.62978 0.38779 0.78646 0.0
H1362 H 0.69265 0.41415 0.90173 0.0
H1363 H 0.69665 0.38831 0.90292 0.0
H1364 H 0.70712 0.40259 0.86045 0.0
H1365 H 0.60895 0.40069 0.83798 0.0
H1366 H 0.61689 0.3918 0.88948 0.0
H1367 H 0.6191 0.41716 0.87698 0.0
H1368 H 0.6407 0.37889 1.00876 0.0
H1369 H 0.63761 0.44066 0.98852 0.0
H1370 H 0.66994 0.367 0.91788 0.0
H1371 H 0.64441 0.36436 0.9076 0.0
H1372 H 0.65419 0.35739 0.95901 0.0
H1373 H 0.66687 0.44007 0.88875 0.0
H1374 H 0.65528 0.45512 0.92897 0.0
H1375 H 0.641 0.44391 0.88744 0.0
C1376 C 0.87393 0.42704 0.05917 0.0
C1377 C 0.87824 0.41058 0.03414 0.0
C1378 C 0.86533 0.42502 0.10032 0.0
C1379 C 0.86131 0.40614 0.11705 0.0
C1380 C 0.86415 0.38974 0.09015 0.0
C1381 C 0.87234 0.3922 0.04922 0.0
C1382 C 0.8618 0.44302 0.1269 0.0
C1383 C 0.86029 0.36927 0.10599 0.0
C1384 C 0.87087 0.39207 0.23286 0.0
C1385 C 0.85234 0.38632 0.24726 0.0
C1386 C 0.87372 0.40005 0.19184 0.0
C1387 C 0.85757 0.40281 0.16416 0.0
C1388 C 0.83853 0.399 0.1802 0.0
C1389 C 0.83612 0.3906 0.22146 0.0
C1390 C 0.89434 0.4037 0.17677 0.0
C1391 C 0.82078 0.40247 0.15275 0.0
H1392 H 0.87842 0.44131 0.04798 0.0
H1393 H 0.87536 0.37939 0.02995 0.0
H1394 H 0.84847 0.44144 0.14676 0.0
H1395 H 0.87431 0.44531 0.14887 0.0
H1396 H 0.86034 0.45619 0.10639 0.0
H1397 H 0.86187 0.35823 0.08018 0.0
H1398 H 0.87071 0.36565 0.13207 0.0
H1399 H 0.84538 0.36815 0.11946 0.0
H1400 H 0.88349 0.38902 0.25272 0.0
H1401 H 0.82173 0.3862 0.23211 0.0
H1402 H 0.89565 0.41848 0.16268 0.0
H1403 H 0.89815 0.39304 0.15134 0.0
H1404 H 0.90514 0.40231 0.20315 0.0
H1405 H 0.8226 0.41569 0.1326 0.0
H1406 H 0.80744 0.4041 0.17265 0.0
H1407 H 0.81861 0.38985 0.13104 0.0
C1408 C 0.87192 0.6217 0.29663 0.0
C1409 C 0.85333 0.62758 0.28287 0.0
C1410 C 0.87498 0.61358 0.33746 0.0
C1411 C 0.85899 0.61087 0.36562 0.0
C1412 C 0.83987 0.61477 0.35013 0.0
C1413 C 0.83725 0.62327 0.30904 0.0
C1414 C 0.89567 0.60984 0.35193 0.0
C1415 C 0.82228 0.61139 0.37812 0.0
C1416 C 0.87546 0.58681 0.47087 0.0
C1417 C 0.87987 0.6033 0.4957 0.0
C1418 C 0.86688 0.58878 0.42967 0.0
C1419 C 0.86298 0.60765 0.41269 0.0
C1420 C 0.86599 0.6241 0.43934 0.0
C1421 C 0.87417 0.62169 0.4803 0.0
C1422 C 0.86323 0.57074 0.40332 0.0
C1423 C 0.86226 0.64455 0.42324 0.0
H1424 H 0.88443 0.62487 0.27652 0.0
H1425 H 0.82283 0.62784 0.29894 0.0
H1426 H 0.89974 0.62062 0.37691 0.0
H1427 H 0.89697 0.59513 0.36639 0.0
H1428 H 0.90628 0.61099 0.32513 0.0
H1429 H 0.80879 0.60997 0.35865 0.0
H1430 H 0.82412 0.59808 0.39796 0.0
H1431 H 0.8204 0.62394 0.40015 0.0
H1432 H 0.87982 0.57253 0.48227 0.0
H1433 H 0.8773 0.63452 0.49939 0.0
H1434 H 0.87567 0.56836 0.38121 0.0
H1435 H 0.84984 0.57233 0.38361 0.0
H1436 H 0.86178 0.55761 0.42398 0.0
H1437 H 0.8726 0.64799 0.39691 0.0
H1438 H 0.86404 0.65567 0.44885 0.0
H1439 H 0.84731 0.64578 0.41003 0.0
C1440 C 0.37181 0.39255 0.48318 0.0
C1441 C 0.37739 0.41085 0.49922 0.0
C1442 C 0.364 0.39038 0.44182 0.0
C1443 C 0.36125 0.40699 0.41547 0.0
C1444 C 0.36494 0.42576 0.4331 0.0
C1445 C 0.37316 0.42749 0.47468 0.0
C1446 C 0.36048 0.37002 0.425 0.0
C1447 C 0.3615 0.44396 0.40708 0.0
C1448 C 0.37162 0.39374 0.29961 0.0
C1449 C 0.35322 0.38791 0.28464 0.0
C1450 C 0.37417 0.40159 0.34084 0.0
C1451 C 0.35784 0.40406 0.36813 0.0
C1452 C 0.33892 0.40023 0.35145 0.0
C1453 C 0.33681 0.39201 0.30999 0.0
C1454 C 0.39466 0.40528 0.35661 0.0
C1455 C 0.32099 0.40338 0.37851 0.0
H1456 H 0.37481 0.37961 0.50206 0.0
H1457 H 0.37744 0.44169 0.48659 0.0
H1458 H 0.34569 0.36887 0.41094 0.0
H1459 H 0.37113 0.36675 0.39916 0.0
H1460 H 0.36199 0.35876 0.45041 0.0
H1461 H 0.35977 0.45694 0.42803 0.0
H1462 H 0.37416 0.44652 0.3857 0.0
H1463 H 0.34834 0.44245 0.38663 0.0
H1464 H 0.38438 0.39075 0.28012 0.0
H1465 H 0.32254 0.38747 0.29893 0.0
H1466 H 0.39846 0.39438 0.38159 0.0
H1467 H 0.39575 0.41991 0.37146 0.0
H1468 H 0.40561 0.40428 0.33043 0.0
H1469 H 0.31885 0.39065 0.39996 0.0
H1470 H 0.30774 0.40496 0.3583 0.0
H1471 H 0.32256 0.41653 0.39893 0.0
C1472 C 0.37434 0.58665 0.06347 0.0
C1473 C 0.37874 0.60307 0.0384 0.0
C1474 C 0.36602 0.58873 0.10488 0.0
C1475 C 0.36239 0.60764 0.12183 0.0
C1476 C 0.36531 0.62404 0.09492 0.0
C1477 C 0.37323 0.62152 0.05375 0.0
C1478 C 0.36243 0.57074 0.13151 0.0
C1479 C 0.36184 0.64453 0.11097 0.0
C1480 C 0.3378 0.62322 0.2269 0.0
C1481 C 0.35416 0.6273 0.2524 0.0
C1482 C 0.33996 0.6149 0.18552 0.0
C1483 C 0.3589 0.61093 0.16906 0.0
C1484 C 0.37518 0.61346 0.19645 0.0
C1485 C 0.37258 0.6214 0.23758 0.0
C1486 C 0.32207 0.61172 0.15836 0.0
C1487 C 0.3957 0.60963 0.18092 0.0
H1488 H 0.37859 0.57233 0.05212 0.0
H1489 H 0.37639 0.63431 0.03448 0.0
H1490 H 0.37499 0.56833 0.15329 0.0
H1491 H 0.34918 0.57244 0.15159 0.0
H1492 H 0.36079 0.5576 0.11103 0.0
H1493 H 0.3634 0.65559 0.08514 0.0
H1494 H 0.34705 0.64586 0.12495 0.0
H1495 H 0.37249 0.64796 0.1367 0.0
H1496 H 0.32351 0.62779 0.23782 0.0
H1497 H 0.38531 0.62434 0.25718 0.0
H1498 H 0.32362 0.59846 0.13828 0.0
H1499 H 0.32005 0.62435 0.13657 0.0
H1500 H 0.30877 0.61033 0.17846 0.0
H1501 H 0.39678 0.5949 0.16653 0.0
H1502 H 0.40661 0.61078 0.20714 0.0
H1503 H 0.39953 0.62036 0.15563 0.0
C1504 C 0.14304 0.62133 0.98603 0.0
C1505 C 0.13735 0.60288 1.00102 0.0
C1506 C 0.15103 0.62393 0.94494 0.0
C1507 C 0.15383 0.6076 0.91779 0.0
C1508 C 0.15008 0.58866 0.93448 0.0
C1509 C 0.1417 0.5865 0.9758 0.0
C1510 C 0.15461 0.64445 0.92917 0.0
C1511 C 0.15356 0.57074 0.9076 0.0
C1512 C 0.14321 0.62169 0.80239 0.0
C1513 C 0.16158 0.62753 0.78725 0.0
C1514 C 0.14074 0.61369 0.84352 0.0
C1515 C 0.15714 0.61102 0.87055 0.0
C1516 C 0.17602 0.61494 0.85374 0.0
C1517 C 0.17804 0.62334 0.81238 0.0
C1518 C 0.12028 0.60993 0.85943 0.0
C1519 C 0.19402 0.61161 0.88049 0.0
H1520 H 0.13986 0.63407 1.00541 0.0
H1521 H 0.13728 0.57218 0.98686 0.0
H1522 H 0.16936 0.6457 0.91493 0.0
H1523 H 0.14389 0.64808 0.9037 0.0
H1524 H 0.15324 0.65542 0.95521 0.0
H1525 H 0.15519 0.55753 0.92792 0.0
H1526 H 0.14095 0.56844 0.88592 0.0
H1527 H 0.16678 0.57244 0.88742 0.0
H1528 H 0.13041 0.62472 0.78307 0.0
H1529 H 0.1923 0.62786 0.8012 0.0
H1530 H 0.11662 0.62057 0.88502 0.0
H1531 H 0.11917 0.59514 0.87355 0.0
H1532 H 0.10925 0.61126 0.83349 0.0
H1533 H 0.19624 0.62422 0.90219 0.0
H1534 H 0.20721 0.61011 0.86008 0.0
H1535 H 0.19247 0.59835 0.90064 0.0
C1536 C 0.14397 0.39427 0.7347 0.0
C1537 C 0.16228 0.38785 0.74901 0.0
C1538 C 0.14132 0.40197 0.69336 0.0
C1539 C 0.15748 0.40366 0.66526 0.0
C1540 C 0.1764 0.39925 0.68123 0.0
C1541 C 0.17859 0.39121 0.72285 0.0
C1542 C 0.12083 0.40633 0.67838 0.0
C1543 C 0.19417 0.40157 0.65328 0.0
C1544 C 0.14195 0.39167 0.55154 0.0
C1545 C 0.13676 0.41 0.53502 0.0
C1546 C 0.15014 0.38958 0.59256 0.0
C1547 C 0.15372 0.40631 0.61799 0.0
C1548 C 0.15047 0.42504 0.59971 0.0
C1549 C 0.14183 0.42669 0.55854 0.0
C1550 C 0.15316 0.36926 0.61011 0.0
C1551 C 0.15481 0.44333 0.62469 0.0
H1552 H 0.1313 0.39184 0.75484 0.0
H1553 H 0.19279 0.3862 0.73342 0.0
H1554 H 0.12014 0.42089 0.66302 0.0
H1555 H 0.1164 0.3954 0.65401 0.0
H1556 H 0.11012 0.40594 0.7051 0.0
H1557 H 0.20765 0.40286 0.67285 0.0
H1558 H 0.19569 0.38861 0.63231 0.0
H1559 H 0.19285 0.41461 0.63236 0.0
H1560 H 0.13831 0.37867 0.53342 0.0
H1561 H 0.13787 0.44093 0.54621 0.0
H1562 H 0.14269 0.36657 0.63662 0.0
H1563 H 0.16805 0.36771 0.62345 0.0
H1564 H 0.151 0.35784 0.58529 0.0
H1565 H 0.14242 0.44661 0.64635 0.0
H1566 H 0.15688 0.45603 0.60301 0.0
H1567 H 0.16806 0.44151 0.64474 0.0
C1568 C 0.13242 0.25958 0.38724 0.0
C1569 C 0.15161 0.25252 0.39032 0.0
C1570 C 0.12841 0.27969 0.38634 0.0
C1571 C 0.1439 0.29326 0.38949 0.0
C1572 C 0.16325 0.28631 0.3939 0.0
C1573 C 0.16689 0.26609 0.39393 0.0
C1574 C 0.10756 0.2864 0.38129 0.0
C1575 C 0.18018 0.30025 0.398 0.0
C1576 C 0.13508 0.34485 0.34729 0.0
C1577 C 0.12968 0.35477 0.38471 0.0
C1578 C 0.13987 0.32487 0.34836 0.0
C1579 C 0.13974 0.31469 0.38801 0.0
C1580 C 0.1349 0.32488 0.42609 0.0
C1581 C 0.12973 0.34469 0.42389 0.0
C1582 C 0.14459 0.31454 0.30691 0.0
C1583 C 0.13506 0.31481 0.46917 0.0
H1584 H 0.12043 0.24935 0.3852 0.0
H1585 H 0.18181 0.26096 0.39562 0.0
H1586 H 0.10324 0.29547 0.40914 0.0
H1587 H 0.10619 0.29563 0.3522 0.0
H1588 H 0.0972 0.27402 0.37856 0.0
H1589 H 0.19424 0.29256 0.40324 0.0
H1590 H 0.18142 0.30921 0.36851 0.0
H1591 H 0.17766 0.3104 0.42515 0.0
H1592 H 0.13502 0.35264 0.31705 0.0
H1593 H 0.12593 0.35244 0.453 0.0
H1594 H 0.13388 0.30269 0.30131 0.0
H1595 H 0.1592 0.30767 0.30895 0.0
H1596 H 0.14436 0.32456 0.2789 0.0
H1597 H 0.12384 0.30317 0.46978 0.0
H1598 H 0.13214 0.32506 0.496 0.0
H1599 H 0.14939 0.30773 0.47465 0.0
C1600 C 0.92311 0.86331 0.63968 0.0
C1601 C 0.90919 0.87812 0.63376 0.0
C1602 C 0.94321 0.86746 0.64035 0.0
C1603 C 0.94971 0.88688 0.63446 0.0
C1604 C 0.93582 0.90187 0.62802 0.0
C1605 C 0.91581 0.89735 0.62794 0.0
C1606 C 0.95751 0.85103 0.64735 0.0
C1607 C 0.94209 0.92275 0.62127 0.0
C1608 C 1.00088 0.90128 0.67125 0.0
C1609 C 0.01147 0.90028 0.63282 0.0
C1610 C 0.98083 0.89683 0.67238 0.0
C1611 C 0.97105 0.89147 0.63407 0.0
C1612 C 0.98164 0.89065 0.59513 0.0
C1613 C 1.00166 0.895 0.59501 0.0
C1614 C 0.97011 0.89775 0.71462 0.0
C1615 C 0.9718 0.88531 0.55343 0.0
H1616 H 0.91833 0.84838 0.64362 0.0
H1617 H 0.90539 0.90904 0.624 0.0
H1618 H 0.96729 0.8497 0.61916 0.0
H1619 H 0.96682 0.85423 0.67559 0.0
H1620 H 0.95013 0.83681 0.65257 0.0
H1621 H 0.92952 0.93271 0.61626 0.0
H1622 H 0.9505 0.92791 0.64945 0.0
H1623 H 0.95185 0.92376 0.59297 0.0
H1624 H 0.00835 0.90528 0.70059 0.0
H1625 H 0.00963 0.89456 0.56499 0.0
H1626 H 0.96354 0.88335 0.72195 0.0
H1627 H 0.95801 0.90844 0.71252 0.0
H1628 H 0.97981 0.90199 0.74158 0.0
H1629 H 0.96513 0.87062 0.55605 0.0
H1630 H 0.98209 0.88531 0.52592 0.0
H1631 H 0.95986 0.89576 0.54653 0.0
C1632 C 0.38142 0.66906 0.8507 0.0
C1633 C 0.38826 0.65977 0.88776 0.0
C1634 C 0.37708 0.68912 0.85069 0.0
C1635 C 0.37903 0.70003 0.88911 0.0
C1636 C 0.3857 0.69057 0.92682 0.0
C1637 C 0.39049 0.67063 0.92551 0.0
C1638 C 0.37053 0.69867 0.80951 0.0
C1639 C 0.38743 0.70143 0.96874 0.0
C1640 C 0.38411 0.7553 0.88181 0.0
C1641 C 0.3648 0.7617 0.88767 0.0
C1642 C 0.3889 0.73536 0.88213 0.0
C1643 C 0.37418 0.72131 0.88972 0.0
C1644 C 0.3548 0.72762 0.8971 0.0
C1645 C 0.35031 0.74764 0.89547 0.0
C1646 C 0.4097 0.72931 0.87345 0.0
C1647 C 0.33871 0.71318 0.90616 0.0
H1648 H 0.3797 0.66061 0.82159 0.0
H1649 H 0.39544 0.66333 0.95437 0.0
H1650 H 0.35566 0.70475 0.81349 0.0
H1651 H 0.38035 0.71101 0.80155 0.0
H1652 H 0.3704 0.68833 0.78211 0.0
H1653 H 0.39236 0.69186 0.99539 0.0
H1654 H 0.39792 0.71364 0.96539 0.0
H1655 H 0.37313 0.70787 0.97747 0.0
H1656 H 0.39557 0.7659 0.87667 0.0
H1657 H 0.33528 0.75217 0.89931 0.0
H1658 H 0.41022 0.7196 0.84502 0.0
H1659 H 0.41552 0.72093 0.90104 0.0
H1660 H 0.41941 0.742 0.86755 0.0
H1661 H 0.33643 0.70369 0.87781 0.0
H1662 H 0.32468 0.72046 0.91401 0.0
H1663 H 0.34287 0.70359 0.93335 0.0
C1664 C 0.5085 0.13411 0.13571 0.0
C1665 C 0.50221 0.11462 0.13837 0.0
C1666 C 0.52843 0.13894 0.1354 0.0
C1667 C 0.5426 0.12402 0.13911 0.0
C1668 C 0.53643 0.1044 0.14329 0.0
C1669 C 0.51641 0.09993 0.14232 0.0
C1670 C 0.53433 0.16001 0.13023 0.0
C1671 C 0.55102 0.08806 0.14824 0.0
C1672 C 0.5943 0.13292 0.09812 0.0
C1673 C 0.60407 0.1383 0.13572 0.0
C1674 C 0.57425 0.12853 0.09863 0.0
C1675 C 0.56386 0.12892 0.13798 0.0
C1676 C 0.57381 0.13407 0.17618 0.0
C1677 C 0.59372 0.13895 0.17447 0.0
C1678 C 0.56415 0.1236 0.05701 0.0
C1679 C 0.56352 0.13412 0.21898 0.0
H1680 H 0.49782 0.14571 0.13357 0.0
H1681 H 0.51197 0.08479 0.1436 0.0
H1682 H 0.54308 0.16477 0.15823 0.0
H1683 H 0.54365 0.16167 0.10136 0.0
H1684 H 0.52156 0.16987 0.12701 0.0
H1685 H 0.54388 0.07376 0.15406 0.0
H1686 H 0.56004 0.08689 0.11884 0.0
H1687 H 0.56103 0.0912 0.17533 0.0
H1688 H 0.60235 0.13243 0.06824 0.0
H1689 H 0.60138 0.14278 0.20368 0.0
H1690 H 0.55173 0.13369 0.05172 0.0
H1691 H 0.5581 0.10862 0.05858 0.0
H1692 H 0.57413 0.12454 0.02902 0.0
H1693 H 0.55131 0.14472 0.21849 0.0
H1694 H 0.57346 0.13793 0.24584 0.0
H1695 H 0.55715 0.11953 0.22532 0.0
C1696 C 0.12356 0.67082 0.1112 0.0
C1697 C 0.12501 0.66018 0.1495 0.0
C1698 C 0.12846 0.69074 0.10967 0.0
C1699 C 0.1345 0.7004 0.14761 0.0
C1700 C 0.13566 0.68973 0.18653 0.0
C1701 C 0.13119 0.66971 0.18683 0.0
C1702 C 0.12754 0.70134 0.06728 0.0
C1703 C 0.14155 0.6995 0.22792 0.0
C1704 C 0.16377 0.7477 0.14232 0.0
C1705 C 0.1493 0.76194 0.14868 0.0
C1706 C 0.1591 0.72772 0.14078 0.0
C1707 C 0.13954 0.72164 0.14671 0.0
C1708 C 0.12485 0.73588 0.15273 0.0
C1709 C 0.12984 0.75577 0.15307 0.0
C1710 C 0.1752 0.71307 0.13347 0.0
C1711 C 0.10385 0.73009 0.15978 0.0
H1712 H 0.11913 0.66338 0.08215 0.0
H1713 H 0.13229 0.66146 0.21638 0.0
H1714 H 0.11715 0.71369 0.06939 0.0
H1715 H 0.14205 0.70756 0.05949 0.0
H1716 H 0.12295 0.69166 0.04058 0.0
H1717 H 0.14112 0.68934 0.25566 0.0
H1718 H 0.15653 0.70543 0.22501 0.0
H1719 H 0.1317 0.71197 0.23462 0.0
H1720 H 0.17889 0.75206 0.13963 0.0
H1721 H 0.11841 0.76651 0.15711 0.0
H1722 H 0.1714 0.70336 0.10626 0.0
H1723 H 0.17691 0.70373 0.16228 0.0
H1724 H 0.18941 0.72017 0.12656 0.0
H1725 H 0.09847 0.72152 0.13204 0.0
H1726 H 0.09416 0.7429 0.16428 0.0
H1727 H 0.10273 0.72061 0.18854 0.0
C1728 C 0.5135 0.90172 0.37069 0.0
C1729 C 0.50286 0.90076 0.40908 0.0
C1730 C 0.53355 0.89726 0.3697 0.0
C1731 C 0.54329 0.89193 0.40811 0.0
C1732 C 0.53265 0.89117 0.447 0.0
C1733 C 0.51263 0.89552 0.44698 0.0
C1734 C 0.5443 0.8981 0.3275 0.0
C1735 C 0.54246 0.88587 0.48878 0.0
C1736 C 0.59105 0.86346 0.40268 0.0
C1737 C 0.60508 0.87818 0.40833 0.0
C1738 C 0.57098 0.86774 0.40207 0.0
C1739 C 0.5646 0.88721 0.40779 0.0
C1740 C 0.57859 0.90212 0.41405 0.0
C1741 C 0.59858 0.89746 0.41404 0.0
C1742 C 0.55658 0.8514 0.39525 0.0
C1743 C 0.57245 0.92305 0.42064 0.0
H1744 H 0.50605 0.90568 0.34128 0.0
H1745 H 0.50463 0.8951 0.47695 0.0
H1746 H 0.55646 0.90871 0.32958 0.0
H1747 H 0.55078 0.88365 0.32025 0.0
H1748 H 0.53464 0.90239 0.30048 0.0
H1749 H 0.53216 0.88602 0.51629 0.0
H1750 H 0.54902 0.87113 0.48639 0.0
H1751 H 0.55447 0.89625 0.49555 0.0
H1752 H 0.59573 0.84849 0.39888 0.0
H1753 H 0.60908 0.90908 0.41782 0.0
H1754 H 0.54729 0.85461 0.36697 0.0
H1755 H 0.54678 0.85019 0.42344 0.0
H1756 H 0.56387 0.83712 0.3902 0.0
H1757 H 0.5641 0.92824 0.39238 0.0
H1758 H 0.58509 0.93291 0.42565 0.0
H1759 H 0.56267 0.92414 0.44888 0.0
C1760 C 0.38907 0.34352 0.61138 0.0
C1761 C 0.38641 0.35419 0.6493 0.0
C1762 C 0.3844 0.32357 0.60931 0.0
C1763 C 0.37738 0.31389 0.64641 0.0
C1764 C 0.37486 0.32461 0.68493 0.0
C1765 C 0.37912 0.34469 0.68569 0.0
C1766 C 0.38676 0.31291 0.56728 0.0
C1767 C 0.36788 0.31482 0.72549 0.0
C1768 C 0.34982 0.26566 0.63761 0.0
C1769 C 0.36451 0.25191 0.64633 0.0
C1770 C 0.35387 0.28579 0.63646 0.0
C1771 C 0.373 0.2925 0.64518 0.0
C1772 C 0.38794 0.27876 0.65344 0.0
C1773 C 0.38359 0.25872 0.65329 0.0
C1774 C 0.33758 0.2999 0.6266 0.0
C1775 C 0.40849 0.28523 0.66343 0.0
H1776 H 0.39435 0.35096 0.583 0.0
H1777 H 0.37707 0.35298 0.71492 0.0
H1778 H 0.39753 0.30097 0.57088 0.0
H1779 H 0.37271 0.30615 0.55783 0.0
H1780 H 0.39167 0.3227 0.54101 0.0
H1781 H 0.36707 0.3251 0.75296 0.0
H1782 H 0.35323 0.3084 0.72031 0.0
H1783 H 0.37786 0.3027 0.73408 0.0
H1784 H 0.33496 0.26079 0.6328 0.0
H1785 H 0.39523 0.24837 0.65908 0.0
H1786 H 0.34193 0.30978 0.60008 0.0
H1787 H 0.33461 0.30911 0.65507 0.0
H1788 H 0.32388 0.29233 0.61743 0.0
H1789 H 0.41444 0.29386 0.63635 0.0
H1790 H 0.41841 0.27274 0.66967 0.0
H1791 H 0.40844 0.29484 0.69207 0.0
C1792 C 0.92256 0.1518 0.89671 0.0
C1793 C 0.9087 0.13696 0.9027 0.0
C1794 C 0.94267 0.14769 0.89607 0.0
C1795 C 0.94923 0.12828 0.90197 0.0
C1796 C 0.93538 0.11326 0.90834 0.0
C1797 C 0.91537 0.11774 0.90844 0.0
C1798 C 0.95693 0.16415 0.88917 0.0
C1799 C 0.94171 0.09238 0.91503 0.0
C1800 C 1.00045 0.11384 0.86568 0.0
C1801 C 0.01094 0.11475 0.90426 0.0
C1802 C 0.98042 0.11837 0.86433 0.0
C1803 C 0.97057 0.12373 0.90255 0.0
C1804 C 0.98107 0.12447 0.94162 0.0
C1805 C 1.00106 0.12003 0.94197 0.0
C1806 C 0.9698 0.1175 0.82197 0.0
C1807 C 0.97114 0.12982 0.98322 0.0
H1808 H 0.91772 0.16671 0.89276 0.0
H1809 H 0.90498 0.10602 0.91236 0.0
H1810 H 0.96666 0.1655 0.91743 0.0
H1811 H 0.9663 0.16098 0.86101 0.0
H1812 H 0.94952 0.17835 0.88389 0.0
H1813 H 0.92915 0.08238 0.9198 0.0
H1814 H 0.95022 0.08728 0.88693 0.0
H1815 H 0.95139 0.09136 0.94346 0.0
H1816 H 0.00798 0.10986 0.8364 0.0
H1817 H 0.00894 0.12039 0.9721 0.0
H1818 H 0.96323 0.13191 0.81465 0.0
H1819 H 0.9577 0.10681 0.82387 0.0
H1820 H 0.97956 0.1133 0.79508 0.0
H1821 H 0.96443 0.14449 0.9805 0.0
H1822 H 0.98138 0.12985 1.01082 0.0
H1823 H 0.95922 0.11934 0.99005 0.0
C1824 C 0.87002 0.75172 0.69233 0.0
C1825 C 0.86509 0.76202 0.65491 0.0
C1826 C 0.87453 0.73173 0.69112 0.0
C1827 C 0.8743 0.72169 0.65144 0.0
C1828 C 0.86943 0.73201 0.61346 0.0
C1829 C 0.86476 0.75199 0.61569 0.0
C1830 C 0.8793 0.7213 0.73248 0.0
C1831 C 0.86916 0.72192 0.57046 0.0
C1832 C 0.90191 0.67338 0.64493 0.0
C1833 C 0.88682 0.65961 0.64876 0.0
C1834 C 0.89805 0.69356 0.64518 0.0
C1835 C 0.87864 0.7003 0.64998 0.0
C1836 C 0.86337 0.68657 0.65428 0.0
C1837 C 0.8676 0.66651 0.65335 0.0
C1838 C 0.91477 0.7077 0.64033 0.0
C1839 C 0.84249 0.69308 0.6599 0.0
H1840 H 0.86998 0.75924 0.7229 0.0
H1841 H 0.86107 0.75986 0.58663 0.0
H1842 H 0.86862 0.70942 0.73806 0.0
H1843 H 0.89392 0.71447 0.73029 0.0
H1844 H 0.87909 0.73123 0.7606 0.0
H1845 H 0.86559 0.73207 0.54381 0.0
H1846 H 0.88358 0.7152 0.56401 0.0
H1847 H 0.85826 0.70998 0.57073 0.0
H1848 H 0.91683 0.66845 0.64194 0.0
H1849 H 0.85566 0.65629 0.65569 0.0
H1850 H 0.91583 0.71704 0.66927 0.0
H1851 H 0.91211 0.71747 0.61257 0.0
H1852 H 0.92895 0.70017 0.63558 0.0
H1853 H 0.84119 0.70246 0.68874 0.0
H1854 H 0.83228 0.6806 0.66334 0.0
H1855 H 0.83787 0.70195 0.63192 0.0
C1856 C 0.01309 0.11478 0.36531 0.0
C1857 C 1.00286 0.11498 0.4043 0.0
C1858 C 0.03315 0.11915 0.36373 0.0
C1859 C 0.04333 0.12358 0.40211 0.0
C1860 C 0.03309 0.12364 0.44156 0.0
C1861 C 0.01305 0.11941 0.44215 0.0
C1862 C 0.04346 0.11906 0.32097 0.0
C1863 C 0.04337 0.12797 0.48332 0.0
C1864 C 0.09848 0.11657 0.40506 0.0
C1865 C 0.10547 0.13579 0.4012 0.0
C1866 C 0.0784 0.11243 0.40541 0.0
C1867 C 0.06475 0.1278 0.40129 0.0
C1868 C 0.07159 0.14721 0.39731 0.0
C1869 C 0.09177 0.15097 0.39763 0.0
C1870 C 0.07177 0.09154 0.41018 0.0
C1871 C 0.05755 0.16403 0.3927 0.0
H1872 H 1.00532 0.11146 0.33593 0.0
H1873 H 1.00538 0.11923 0.47254 0.0
H1874 H 0.05026 0.13349 0.31504 0.0
H1875 H 0.05536 0.1081 0.32125 0.0
H1876 H 0.03344 0.11568 0.29399 0.0
H1877 H 0.03331 0.12759 0.51123 0.0
H1878 H 0.05517 0.11717 0.48871 0.0
H1879 H 0.05029 0.14257 0.48187 0.0
H1880 H 0.10865 0.10457 0.40723 0.0
H1881 H 0.09677 0.16588 0.39525 0.0
H1882 H 0.06303 0.08718 0.38184 0.0
H1883 H 0.06224 0.09009 0.43875 0.0
H1884 H 0.08419 0.08126 0.41358 0.0
H1885 H 0.04791 0.16163 0.3646 0.0
H1886 H 0.06515 0.17821 0.38863 0.0
H1887 H 0.04806 0.16493 0.42144 0.0
C1888 C 0.63191 0.34476 0.19154 0.0
C1889 C 0.62614 0.35435 0.15395 0.0
C1890 C 0.63645 0.32474 0.19127 0.0
C1891 C 0.63578 0.31419 0.15217 0.0
C1892 C 0.63026 0.32396 0.11397 0.0
C1893 C 0.62526 0.34384 0.11544 0.0
C1894 C 0.6418 0.31485 0.2329 0.0
C1895 C 0.6299 0.31348 0.0714 0.0
C1896 C 0.66483 0.26674 0.14756 0.0
C1897 C 0.65019 0.25256 0.15248 0.0
C1898 C 0.66032 0.28676 0.14641 0.0
C1899 C 0.64073 0.29294 0.15133 0.0
C1900 C 0.62587 0.27877 0.15601 0.0
C1901 C 0.63072 0.25885 0.15592 0.0
C1902 C 0.67658 0.30134 0.14046 0.0
C1903 C 0.60483 0.28468 0.16194 0.0
H1904 H 0.63257 0.35293 0.22124 0.0
H1905 H 0.62115 0.35135 0.08622 0.0
H1906 H 0.63177 0.30245 0.23895 0.0
H1907 H 0.65676 0.3088 0.23078 0.0
H1908 H 0.64112 0.32496 0.26068 0.0
H1909 H 0.62586 0.32329 0.04447 0.0
H1910 H 0.64445 0.30709 0.06467 0.0
H1911 H 0.61932 0.30126 0.07257 0.0
H1912 H 0.67995 0.26229 0.14563 0.0
H1913 H 0.61917 0.24817 0.15881 0.0
H1914 H 0.67796 0.31053 0.16955 0.0
H1915 H 0.67321 0.3112 0.11321 0.0
H1916 H 0.69085 0.29419 0.13431 0.0
H1917 H 0.60342 0.29414 0.19064 0.0
H1918 H 0.59503 0.27191 0.16588 0.0
H1919 H 0.59981 0.29329 0.13393 0.0
C1920 C 0.42073 0.88301 0.93552 0.0
C1921 C 0.41117 0.87575 0.89916 0.0
C1922 C 0.44074 0.88753 0.93451 0.0
C1923 C 0.45138 0.88524 0.89583 0.0
C1924 C 0.44169 0.87815 0.85882 0.0
C1925 C 0.42178 0.87329 0.86108 0.0
C1926 C 0.45052 0.89464 0.97495 0.0
C1927 C 0.4523 0.87594 0.81669 0.0
C1928 C 0.49914 0.91365 0.88723 0.0
C1929 C 0.51309 0.89924 0.89657 0.0
C1930 C 0.4791 0.90922 0.8857 0.0
C1931 C 0.47269 0.88996 0.8944 0.0
C1932 C 0.48668 0.87529 0.903 0.0
C1933 C 0.50662 0.88004 0.90349 0.0
C1934 C 0.46473 0.92525 0.87567 0.0
C1935 C 0.48055 0.85462 0.91286 0.0
H1936 H 0.41253 0.8849 0.96493 0.0
H1937 H 0.41434 0.86805 0.83269 0.0
H1938 H 0.46281 0.88483 0.98339 0.0
H1939 H 0.45672 0.90938 0.9697 0.0
H1940 H 0.44031 0.89529 1.00256 0.0
H1941 H 0.44257 0.87074 0.79061 0.0
H1942 H 0.45871 0.89012 0.80698 0.0
H1943 H 0.46451 0.86546 0.82026 0.0
H1944 H 0.5038 0.92858 0.88239 0.0
H1945 H 0.51718 0.86864 0.90984 0.0
H1946 H 0.45538 0.92804 0.90405 0.0
H1947 H 0.45499 0.92074 0.84904 0.0
H1948 H 0.47207 0.93909 0.86661 0.0
H1949 H 0.47111 0.85445 0.94177 0.0
H1950 H 0.49321 0.84486 0.9186 0.0
H1951 H 0.47185 0.84863 0.88595 0.0
C1952 C 0.86573 0.34861 0.87649 0.0
C1953 C 0.88507 0.35523 0.88046 0.0
C1954 C 0.86122 0.3286 0.87633 0.0
C1955 C 0.87632 0.31468 0.88074 0.0
C1956 C 0.89585 0.32116 0.88475 0.0
C1957 C 0.89998 0.34127 0.88425 0.0
C1958 C 0.84022 0.32236 0.87153 0.0
C1959 C 0.9124 0.30682 0.88964 0.0
C1960 C 0.86263 0.26331 0.91762 0.0
C1961 C 0.86284 0.25292 0.87887 0.0
C1962 C 0.86713 0.28335 0.91882 0.0
C1963 C 0.87172 0.29334 0.88026 0.0
C1964 C 0.87174 0.28295 0.84102 0.0
C1965 C 0.86738 0.26293 0.84083 0.0
C1966 C 0.8671 0.29382 0.96138 0.0
C1967 C 0.87623 0.29302 0.79908 0.0
H1968 H 0.85394 0.35903 0.87414 0.0
H1969 H 0.91498 0.346 0.88669 0.0
H1970 H 0.83864 0.31274 0.84315 0.0
H1971 H 0.83564 0.31381 0.90001 0.0
H1972 H 0.83018 0.33496 0.8678 0.0
H1973 H 0.92672 0.31417 0.89361 0.0
H1974 H 0.9098 0.29733 0.91791 0.0
H1975 H 0.91314 0.29722 0.86107 0.0
H1976 H 0.85922 0.25568 0.94715 0.0
H1977 H 0.86723 0.25512 0.81061 0.0
H1978 H 0.85639 0.30593 0.9607 0.0
H1979 H 0.88164 0.30035 0.96739 0.0
H1980 H 0.86343 0.28397 0.9885 0.0
H1981 H 0.86567 0.30502 0.79357 0.0
H1982 H 0.87562 0.28289 0.77132 0.0
H1983 H 0.89097 0.29965 0.80036 0.0
C1984 C 0.41964 0.12891 0.60311 0.0
C1985 C 0.41036 0.13713 0.6388 0.0
C1986 C 0.43969 0.12454 0.6039 0.0
C1987 C 0.45063 0.12795 0.64177 0.0
C1988 C 0.4412 0.13598 0.67816 0.0
C1989 C 0.42125 0.1407 0.67605 0.0
C1990 C 0.44921 0.11643 0.56405 0.0
C1991 C 0.45213 0.13937 0.71952 0.0
C1992 C 0.49873 0.10022 0.6523 0.0
C1993 C 0.51247 0.11451 0.64088 0.0
C1994 C 0.47865 0.1045 0.65386 0.0
C1995 C 0.47199 0.12344 0.64296 0.0
C1996 C 0.48576 0.138 0.63213 0.0
C1997 C 0.50575 0.13344 0.63176 0.0
C1998 C 0.46451 0.08862 0.66637 0.0
C1999 C 0.47936 0.15831 0.61983 0.0
H2000 H 0.41119 0.12615 0.57438 0.0
H2001 H 0.414 0.14668 0.70396 0.0
H2002 H 0.46135 0.12608 0.55389 0.0
H2003 H 0.45555 0.10189 0.57094 0.0
H2004 H 0.43877 0.11499 0.53698 0.0
H2005 H 0.44255 0.14515 0.7453 0.0
H2006 H 0.45876 0.12551 0.73072 0.0
H2007 H 0.4642 0.14984 0.71416 0.0
H2008 H 0.50357 0.08548 0.65886 0.0
H2009 H 0.51614 0.14477 0.62382 0.0
H2010 H 0.455 0.08503 0.63872 0.0
H2011 H 0.45492 0.09374 0.69273 0.0
H2012 H 0.47206 0.07511 0.67689 0.0
H2013 H 0.46963 0.15763 0.59141 0.0
H2014 H 0.49187 0.16799 0.61219 0.0
H2015 H 0.47087 0.16497 0.64631 0.0
C2016 C 0.64337 0.75134 0.34961 0.0
C2017 C 0.64878 0.7613 0.38712 0.0
C2018 C 0.63893 0.73134 0.35027 0.0
C2019 C 0.63978 0.72093 0.38946 0.0
C2020 C 0.64518 0.73088 0.42751 0.0
C2021 C 0.64973 0.75091 0.42585 0.0
C2022 C 0.63354 0.7213 0.30883 0.0
C2023 C 0.64616 0.72037 0.47 0.0
C2024 C 0.61227 0.67259 0.39556 0.0
C2025 C 0.62726 0.65889 0.38952 0.0
C2026 C 0.61614 0.69275 0.39622 0.0
C2027 C 0.63547 0.69953 0.39026 0.0
C2028 C 0.65065 0.68585 0.38393 0.0
C2029 C 0.6464 0.66579 0.38386 0.0
C2030 C 0.59952 0.70683 0.40315 0.0
C2031 C 0.67144 0.69241 0.37714 0.0
H2032 H 0.64296 0.75914 0.31938 0.0
H2033 H 0.6538 0.7585 0.45498 0.0
H2034 H 0.64415 0.7095 0.30191 0.0
H2035 H 0.61897 0.71443 0.31182 0.0
H2036 H 0.63329 0.73151 0.28116 0.0
H2037 H 0.65019 0.73024 0.49679 0.0
H2038 H 0.63184 0.71361 0.47731 0.0
H2039 H 0.65703 0.70842 0.46829 0.0
H2040 H 0.59741 0.66759 0.39948 0.0
H2041 H 0.65825 0.65555 0.37992 0.0
H2042 H 0.59797 0.71648 0.37478 0.0
H2043 H 0.60266 0.71631 0.43115 0.0
H2044 H 0.58544 0.69926 0.4087 0.0
H2045 H 0.67232 0.70203 0.34859 0.0
H2046 H 0.68159 0.67996 0.3725 0.0
H2047 H 0.67645 0.70104 0.40512 0.0
C2048 C 0.01301 0.90035 0.1728 0.0
C2049 C 1.00283 0.9001 0.13374 0.0
C2050 C 0.033 0.89565 0.17466 0.0
C2051 C 0.04315 0.89077 0.1365 0.0
C2052 C 0.03296 0.89061 0.09699 0.0
C2053 C 0.013 0.89523 0.09612 0.0
C2054 C 0.04327 0.89589 0.21747 0.0
C2055 C 0.04321 0.88578 0.05546 0.0
C2056 C 0.09836 0.89701 0.13252 0.0
C2057 C 0.10509 0.87774 0.13695 0.0
C2058 C 0.07833 0.90142 0.13257 0.0
C2059 C 0.06451 0.88627 0.13754 0.0
C2060 C 0.07112 0.86681 0.14228 0.0
C2061 C 0.09126 0.86278 0.14174 0.0
C2062 C 0.07196 0.92236 0.12718 0.0
C2063 C 0.05689 0.85021 0.14771 0.0
H2064 H 1.00526 0.90399 0.20202 0.0
H2065 H 1.00539 0.89536 0.06565 0.0
H2066 H 0.04985 0.88141 0.22395 0.0
H2067 H 0.05533 0.90666 0.21685 0.0
H2068 H 0.03327 0.89962 0.24427 0.0
H2069 H 0.03316 0.88603 0.02751 0.0
H2070 H 0.05512 0.89639 0.04962 0.0
H2071 H 0.04996 0.87112 0.05758 0.0
H2072 H 0.10871 0.90882 0.12959 0.0
H2073 H 0.09614 0.84783 0.14474 0.0
H2074 H 0.06318 0.92699 0.15526 0.0
H2075 H 0.06253 0.92377 0.09843 0.0
H2076 H 0.0845 0.93248 0.12367 0.0
H2077 H 0.04728 0.853 0.17568 0.0
H2078 H 0.06433 0.83599 0.15244 0.0
H2079 H 0.04739 0.84916 0.11901 0.0
C2080 C 0.66264 0.76521 0.90855 0.0
C2081 C 0.64965 0.75208 0.88913 0.0
C2082 C 0.65822 0.78524 0.9115 0.0
C2083 C 0.64046 0.79241 0.89432 0.0
C2084 C 0.62706 0.77915 0.87586 0.0
C2085 C 0.63173 0.75922 0.87383 0.0
C2086 C 0.67281 0.79882 0.93193 0.0
C2087 C 0.608 0.78609 0.85703 0.0
C2088 C 0.62097 0.84252 0.92634 0.0
C2089 C 0.62719 0.85421 0.89201 0.0
C2090 C 0.62543 0.82248 0.92791 0.0
C2091 C 0.63614 0.81382 0.89401 0.0
C2092 C 0.6423 0.82555 0.8591 0.0
C2093 C 0.6379 0.84559 0.85873 0.0
C2094 C 0.61886 0.81063 0.96605 0.0
C2095 C 0.65345 0.81691 0.82194 0.0
H2096 H 0.67657 0.75995 0.92016 0.0
H2097 H 0.62137 0.74921 0.8596 0.0
H2098 H 0.67867 0.80897 0.90739 0.0
H2099 H 0.66563 0.8078 0.95696 0.0
H2100 H 0.68521 0.79084 0.9467 0.0
H2101 H 0.59894 0.77388 0.84478 0.0
H2102 H 0.59949 0.79416 0.88152 0.0
H2103 H 0.61089 0.79633 0.83021 0.0
H2104 H 0.61304 0.84915 0.95259 0.0
H2105 H 0.64268 0.85456 0.83212 0.0
H2106 H 0.63164 0.80373 0.98173 0.0
H2107 H 0.60908 0.7987 0.95538 0.0
H2108 H 0.61102 0.8196 0.99018 0.0
H2109 H 0.66715 0.81014 0.83361 0.0
H2110 H 0.65716 0.82797 0.79721 0.0
H2111 H 0.64469 0.80522 0.80666 0.0
C2112 C 0.42045 0.37497 0.17431 0.0
C2113 C 0.41005 0.37549 0.1356 0.0
C2114 C 0.4403 0.38006 0.17591 0.0
C2115 C 0.45016 0.38531 0.13765 0.0
C2116 C 0.43973 0.38559 0.09835 0.0
C2117 C 0.41974 0.38096 0.09794 0.0
C2118 C 0.45065 0.38011 0.21865 0.0
C2119 C 0.44973 0.39064 0.05667 0.0
C2120 C 0.49739 0.4147 0.14142 0.0
C2121 C 0.51168 0.40011 0.13711 0.0
C2122 C 0.47741 0.41006 0.14272 0.0
C2123 C 0.47138 0.3904 0.13861 0.0
C2124 C 0.48565 0.37559 0.13464 0.0
C2125 C 0.50554 0.38058 0.13455 0.0
C2126 C 0.46271 0.42628 0.14788 0.0
C2127 C 0.47991 0.35447 0.1296 0.0
H2128 H 0.41286 0.37109 0.20358 0.0
H2129 H 0.41167 0.38134 0.06807 0.0
H2130 H 0.46296 0.36963 0.21809 0.0
H2131 H 0.45688 0.39476 0.22493 0.0
H2132 H 0.44078 0.37619 0.24557 0.0
H2133 H 0.43972 0.38966 0.02874 0.0
H2134 H 0.45567 0.40566 0.05824 0.0
H2135 H 0.46222 0.38066 0.05127 0.0
H2136 H 0.50173 0.42986 0.14271 0.0
H2137 H 0.5163 0.36908 0.13216 0.0
H2138 H 0.45279 0.42304 0.17508 0.0
H2139 H 0.45359 0.42739 0.11859 0.0
H2140 H 0.46975 0.44063 0.15362 0.0
H2141 H 0.47121 0.34966 0.15766 0.0
H2142 H 0.49275 0.34471 0.12638 0.0
H2143 H 0.47057 0.35273 0.10078 0.0
C2144 C 0.90049 0.17414 0.39085 0.0
C2145 C 0.88568 0.16007 0.38788 0.0
C2146 C 0.89613 0.19421 0.3917 0.0
C2147 C 0.87647 0.20049 0.38944 0.0
C2148 C 0.86145 0.18639 0.38664 0.0
C2149 C 0.86621 0.16644 0.38596 0.0
C2150 C 0.91261 0.20872 0.39455 0.0
C2151 C 0.84029 0.19239 0.38413 0.0
C2152 C 0.86343 0.25234 0.42456 0.0
C2153 C 0.86266 0.2622 0.38513 0.0
C2154 C 0.86794 0.23229 0.42655 0.0
C2155 C 0.87164 0.22179 0.3882 0.0
C2156 C 0.87059 0.23163 0.34834 0.0
C2157 C 0.8661 0.25161 0.3473 0.0
C2158 C 0.86889 0.22236 0.46971 0.0
C2159 C 0.8742 0.22103 0.30663 0.0
H2160 H 0.91556 0.16947 0.39198 0.0
H2161 H 0.85456 0.15583 0.38453 0.0
H2162 H 0.91275 0.21805 0.36546 0.0
H2163 H 0.91042 0.21847 0.42254 0.0
H2164 H 0.92706 0.20152 0.39764 0.0
H2165 H 0.8303 0.17966 0.38284 0.0
H2166 H 0.8364 0.20142 0.41237 0.0
H2167 H 0.83785 0.20147 0.35516 0.0
H2168 H 0.86087 0.26037 0.45394 0.0
H2169 H 0.8651 0.25894 0.31658 0.0
H2170 H 0.88366 0.2162 0.47483 0.0
H2171 H 0.85844 0.21002 0.47073 0.0
H2172 H 0.8655 0.23248 0.4965 0.0
H2173 H 0.889 0.2145 0.30675 0.0
H2174 H 0.87291 0.23079 0.27832 0.0
H2175 H 0.86361 0.20892 0.30302 0.0
C2176 C 0.00973 0.63471 0.63545 0.0
C2177 C 1.00309 0.61545 0.64064 0.0
C2178 C 0.02973 0.63921 0.63549 0.0
C2179 C 0.04362 0.6242 0.6419 0.0
C2180 C 0.03707 0.60485 0.64868 0.0
C2181 C 0.01696 0.60068 0.64757 0.0
C2182 C 0.03602 0.66001 0.62771 0.0
C2183 C 0.05133 0.58845 0.65638 0.0
C2184 C 0.09556 0.63193 0.60107 0.0
C2185 C 0.10515 0.6384 0.63808 0.0
C2186 C 0.07554 0.62736 0.60178 0.0
C2187 C 0.06497 0.62878 0.64077 0.0
C2188 C 0.07474 0.63495 0.67845 0.0
C2189 C 0.09463 0.6399 0.67652 0.0
C2190 C 0.06566 0.62126 0.56067 0.0
C2191 C 0.06423 0.63617 0.72091 0.0
H2192 H 0.99926 0.64635 0.63093 0.0
H2193 H 0.01219 0.58571 0.65096 0.0
H2194 H 0.04476 0.66536 0.65522 0.0
H2195 H 0.04547 0.66072 0.59886 0.0
H2196 H 0.02344 0.66998 0.62296 0.0
H2197 H 0.0439 0.57445 0.6637 0.0
H2198 H 0.0606 0.58637 0.6276 0.0
H2199 H 0.06115 0.59216 0.68345 0.0
H2200 H 0.1037 0.63078 0.5714 0.0
H2201 H 0.10212 0.64454 0.70537 0.0
H2202 H 0.05349 0.63139 0.55334 0.0
H2203 H 0.05928 0.6065 0.56437 0.0
H2204 H 0.07585 0.6211 0.53299 0.0
H2205 H 0.05221 0.64695 0.71883 0.0
H2206 H 0.07409 0.64047 0.74754 0.0
H2207 H 0.05758 0.62187 0.72878 0.0
C2208 C 0.66172 0.24924 0.6318 0.0
C2209 C 0.64715 0.26318 0.64003 0.0
C2210 C 0.65741 0.22917 0.6306 0.0
C2211 C 0.63816 0.22269 0.63882 0.0
C2212 C 0.62332 0.23663 0.64635 0.0
C2213 C 0.62792 0.25661 0.64621 0.0
C2214 C 0.67361 0.21485 0.62148 0.0
C2215 C 0.60265 0.23041 0.65587 0.0
C2216 C 0.62235 0.17129 0.60702 0.0
C2217 C 0.62507 0.16096 0.64539 0.0
C2218 C 0.6268 0.19128 0.6042 0.0
C2219 C 0.63362 0.20134 0.64098 0.0
C2220 C 0.63604 0.19098 0.68003 0.0
C2221 C 0.63203 0.17087 0.68153 0.0
C2222 C 0.62458 0.20155 0.56164 0.0
C2223 C 0.64279 0.20116 0.72029 0.0
H2224 H 0.67668 0.2539 0.62758 0.0
H2225 H 0.61638 0.26711 0.65157 0.0
H2226 H 0.67652 0.20593 0.65046 0.0
H2227 H 0.66922 0.20471 0.59549 0.0
H2228 H 0.68736 0.22223 0.61194 0.0
H2229 H 0.59277 0.24304 0.6609 0.0
H2230 H 0.59686 0.22147 0.62913 0.0
H2231 H 0.6024 0.22118 0.68511 0.0
H2232 H 0.61732 0.16353 0.57885 0.0
H2233 H 0.63413 0.16284 0.71112 0.0
H2234 H 0.63874 0.20798 0.55185 0.0
H2235 H 0.61402 0.21372 0.56462 0.0
H2236 H 0.6195 0.19158 0.53589 0.0
H2237 H 0.65757 0.20732 0.71534 0.0
H2238 H 0.64324 0.1912 0.74839 0.0
H2239 H 0.6329 0.21351 0.72775 0.0
C2240 C 0.09122 0.36264 0.89187 0.0
C2241 C 0.10493 0.37769 0.89676 0.0
C2242 C 0.07106 0.36656 0.89053 0.0
C2243 C 0.06431 0.38601 0.89446 0.0
C2244 C 0.07803 0.40127 0.89939 0.0
C2245 C 0.09807 0.39695 0.90031 0.0
C2246 C 0.05696 0.34985 0.88525 0.0
C2247 C 0.07152 0.4222 0.90389 0.0
C2248 C 0.01272 0.39929 0.85808 0.0
C2249 C 1.00244 0.39908 0.897 0.0
C2250 C 0.03279 0.39489 0.85663 0.0
C2251 C 0.04291 0.39037 0.89506 0.0
C2252 C 0.03263 0.39034 0.93445 0.0
C2253 C 0.01261 0.39467 0.93492 0.0
C2254 C 0.04318 0.39502 0.81395 0.0
C2255 C 0.04283 0.38589 0.97627 0.0
H2256 H 0.09621 0.34771 0.8895 0.0
H2257 H 0.10836 0.40882 0.90326 0.0
H2258 H 0.04737 0.34886 0.91383 0.0
H2259 H 0.04743 0.35246 0.85707 0.0
H2260 H 0.06451 0.33565 0.88099 0.0
H2261 H 0.08399 0.43242 0.9071 0.0
H2262 H 0.06275 0.42657 0.87557 0.0
H2263 H 0.06203 0.42376 0.93251 0.0
H2264 H 1.00499 0.40261 0.82864 0.0
H2265 H 1.00493 0.39487 0.96529 0.0
H2266 H 0.04982 0.38053 0.80786 0.0
H2267 H 0.0552 0.40583 0.81451 0.0
H2268 H 0.03324 0.39862 0.78695 0.0
H2269 H 0.04967 0.37125 0.97478 0.0
H2270 H 0.03273 0.38629 1.00411 0.0
H2271 H 0.05467 0.39661 0.98181 0.0
C2272 C 0.86679 0.84968 0.15585 0.0
C2273 C 0.88616 0.85614 0.15174 0.0
C2274 C 0.86213 0.82971 0.15577 0.0
C2275 C 0.87713 0.81568 0.15118 0.0
C2276 C 0.89669 0.82203 0.14686 0.0
C2277 C 0.90097 0.84211 0.14734 0.0
C2278 C 0.84109 0.82362 0.16066 0.0
C2279 C 0.91314 0.80759 0.14191 0.0
C2280 C 0.8677 0.76421 0.19234 0.0
C2281 C 0.86314 0.75404 0.15454 0.0
C2282 C 0.87229 0.78418 0.19164 0.0
C2283 C 0.87239 0.79438 0.15214 0.0
C2284 C 0.86772 0.78425 0.11383 0.0
C2285 C 0.86307 0.76425 0.11551 0.0
C2286 C 0.87692 0.79439 0.23331 0.0
C2287 C 0.86773 0.79455 0.07103 0.0
H2288 H 0.85512 0.86021 0.15849 0.0
H2289 H 0.91598 0.84681 0.14462 0.0
H2290 H 0.83649 0.81489 0.13247 0.0
H2291 H 0.83943 0.81421 0.18939 0.0
H2292 H 0.83112 0.83629 0.16387 0.0
H2293 H 0.92748 0.81484 0.13762 0.0
H2294 H 0.91391 0.79806 0.17063 0.0
H2295 H 0.9104 0.79803 0.11384 0.0
H2296 H 0.86742 0.75658 0.22279 0.0
H2297 H 0.85967 0.75651 0.08614 0.0
H2298 H 0.86642 0.80645 0.2387 0.0
H2299 H 0.89168 0.80095 0.23171 0.0
H2300 H 0.87634 0.78437 0.26129 0.0
H2301 H 0.85715 0.80678 0.07152 0.0
H2302 H 0.8639 0.78462 0.04417 0.0
H2303 H 0.88233 0.80089 0.06474 0.0
C2304 C 0.50553 0.63311 0.40848 0.0
C2305 C 0.51183 0.61369 0.40418 0.0
C2306 C 0.48559 0.63797 0.40831 0.0
C2307 C 0.47145 0.62316 0.40261 0.0
C2308 C 0.47765 0.60362 0.39699 0.0
C2309 C 0.49767 0.5991 0.39831 0.0
C2310 C 0.47967 0.65895 0.41497 0.0
C2311 C 0.4631 0.58742 0.39005 0.0
C2312 C 0.41937 0.63189 0.4416 0.0
C2313 C 0.41004 0.63801 0.40395 0.0
C2314 C 0.43937 0.62722 0.44174 0.0
C2315 C 0.45018 0.62813 0.403 0.0
C2316 C 0.44067 0.63399 0.36472 0.0
C2317 C 0.42081 0.63908 0.36578 0.0
C2318 C 0.44897 0.6215 0.48346 0.0
C2319 C 0.45143 0.63465 0.3225 0.0
H2320 H 0.51619 0.64462 0.41218 0.0
H2321 H 0.50214 0.58401 0.39573 0.0
H2322 H 0.47124 0.66423 0.38691 0.0
H2323 H 0.47002 0.66011 0.44343 0.0
H2324 H 0.49241 0.6687 0.41971 0.0
H2325 H 0.47028 0.57317 0.38388 0.0
H2326 H 0.45363 0.58592 0.41869 0.0
H2327 H 0.45351 0.59095 0.36246 0.0
H2328 H 0.41103 0.63109 0.47106 0.0
H2329 H 0.41351 0.64345 0.33648 0.0
H2330 H 0.46129 0.63149 0.49037 0.0
H2331 H 0.45508 0.60657 0.48089 0.0
H2332 H 0.43865 0.6219 0.51092 0.0
H2333 H 0.46364 0.64521 0.32442 0.0
H2334 H 0.4418 0.63891 0.29541 0.0
H2335 H 0.45786 0.62016 0.31545 0.0
C2336 C 0.40047 0.17284 0.15078 0.0
C2337 C 0.38561 0.15888 0.15524 0.0
C2338 C 0.3963 0.19295 0.15047 0.0
C2339 C 0.37679 0.1994 0.15512 0.0
C2340 C 0.36173 0.18545 0.15994 0.0
C2341 C 0.36629 0.16545 0.15976 0.0
C2342 C 0.4128 0.20731 0.14523 0.0
C2343 C 0.34074 0.19166 0.16524 0.0
C2344 C 0.36772 0.25099 0.19588 0.0
C2345 C 0.36301 0.26109 0.15806 0.0
C2346 C 0.37224 0.23101 0.19532 0.0
C2347 C 0.37214 0.22073 0.15594 0.0
C2348 C 0.36735 0.2308 0.11761 0.0
C2349 C 0.36275 0.25081 0.11915 0.0
C2350 C 0.37699 0.22085 0.23703 0.0
C2351 C 0.36716 0.22043 0.07492 0.0
H2352 H 0.41546 0.16808 0.14779 0.0
H2353 H 0.35457 0.155 0.16249 0.0
H2354 H 0.41003 0.21683 0.1171 0.0
H2355 H 0.41367 0.21687 0.17384 0.0
H2356 H 0.4271 0.19998 0.14084 0.0
H2357 H 0.33074 0.17904 0.16891 0.0
H2358 H 0.33926 0.20116 0.19384 0.0
H2359 H 0.33604 0.20032 0.13701 0.0
H2360 H 0.3676 0.25869 0.22623 0.0
H2361 H 0.35923 0.25851 0.08977 0.0
H2362 H 0.39172 0.21422 0.23524 0.0
H2363 H 0.36646 0.20884 0.24273 0.0
H2364 H 0.37655 0.23092 0.2649 0.0
H2365 H 0.38171 0.21398 0.06849 0.0
H2366 H 0.36332 0.23033 0.04801 0.0
H2367 H 0.35652 0.20827 0.0757 0.0
C2368 C 0.59358 0.64005 0.85695 0.0
C2369 C 0.60344 0.64074 0.8964 0.0
C2370 C 0.57378 0.63476 0.85463 0.0
C2371 C 0.56344 0.63023 0.89271 0.0
C2372 C 0.5733 0.63101 0.93265 0.0
C2373 C 0.59317 0.63612 0.93396 0.0
C2374 C 0.56395 0.63388 0.81135 0.0
C2375 C 0.56283 0.62653 0.9741 0.0
C2376 C 0.50804 0.63466 0.89499 0.0
C2377 C 0.50205 0.61508 0.89322 0.0
C2378 C 0.52788 0.63978 0.8941 0.0
C2379 C 0.54225 0.62501 0.89103 0.0
C2380 C 0.53633 0.60526 0.88782 0.0
C2381 C 0.51635 0.60054 0.88905 0.0
C2382 C 0.53349 0.66101 0.89759 0.0
C2383 C 0.55113 0.58906 0.88426 0.0
H2384 H 0.60148 0.64324 0.8277 0.0
H2385 H 0.60065 0.63675 0.96453 0.0
H2386 H 0.55795 0.61907 0.80586 0.0
H2387 H 0.55151 0.64422 0.81042 0.0
H2388 H 0.57408 0.63748 0.7847 0.0
H2389 H 0.57255 0.62777 1.00247 0.0
H2390 H 0.55039 0.63669 0.97829 0.0
H2391 H 0.55677 0.61155 0.97307 0.0
H2392 H 0.49715 0.64605 0.89756 0.0
H2393 H 0.51197 0.58536 0.88824 0.0
H2394 H 0.54277 0.66527 0.87 0.0
H2395 H 0.54219 0.66336 0.92714 0.0
H2396 H 0.52058 0.67078 0.89854 0.0
H2397 H 0.56113 0.59187 0.85698 0.0
H2398 H 0.54418 0.57458 0.87964 0.0
H2399 H 0.56014 0.58853 0.91378 0.0
C2400 C 0.11413 0.84203 0.65029 0.0
C2401 C 0.12884 0.85612 0.65511 0.0
C2402 C 0.11848 0.82196 0.65008 0.0
C2403 C 0.13802 0.81568 0.65528 0.0
C2404 C 0.15291 0.82976 0.66059 0.0
C2405 C 0.14818 0.84972 0.66026 0.0
C2406 C 0.10214 0.80747 0.6443 0.0
C2407 C 0.17392 0.82373 0.66654 0.0
C2408 C 0.14685 0.76401 0.69593 0.0
C2409 C 0.15176 0.75399 0.65816 0.0
C2410 C 0.14244 0.78402 0.69542 0.0
C2411 C 0.14281 0.79439 0.65614 0.0
C2412 C 0.14784 0.7844 0.61787 0.0
C2413 C 0.15236 0.76436 0.61937 0.0
C2414 C 0.13744 0.79409 0.73706 0.0
C2415 C 0.1483 0.79486 0.57528 0.0
H2416 H 0.09912 0.84664 0.64689 0.0
H2417 H 0.15979 0.86029 0.66336 0.0
H2418 H 0.10516 0.79801 0.61622 0.0
H2419 H 0.10118 0.79785 0.67285 0.0
H2420 H 0.0878 0.81468 0.63953 0.0
H2421 H 0.18379 0.83643 0.67066 0.0
H2422 H 0.17529 0.81416 0.6951 0.0
H2423 H 0.17889 0.81518 0.6384 0.0
H2424 H 0.14672 0.75622 0.72619 0.0
H2425 H 0.15605 0.75672 0.59005 0.0
H2426 H 0.12266 0.80059 0.735 0.0
H2427 H 0.14784 0.80618 0.74301 0.0
H2428 H 0.13786 0.78399 0.76491 0.0
H2429 H 0.13377 0.80121 0.56832 0.0
H2430 H 0.15244 0.78504 0.54845 0.0
H2431 H 0.15885 0.8071 0.57657 0.0
C2432 C 0.92181 0.3659 0.37672 0.0
C2433 C 0.90851 0.37803 0.39837 0.0
C2434 C 0.94195 0.36988 0.37666 0.0
C2435 C 0.9491 0.38658 0.39816 0.0
C2436 C 0.93587 0.39888 0.4201 0.0
C2437 C 0.91587 0.39436 0.42034 0.0
C2438 C 0.95559 0.35618 0.3535 0.0
C2439 C 0.94284 0.41694 0.4432 0.0
C2440 C 1.00221 0.38855 0.43358 0.0
C2441 C 0.011 0.39965 0.40089 0.0
C2442 C 0.98227 0.3839 0.43256 0.0
C2443 C 0.97048 0.39094 0.39869 0.0
C2444 C 0.97909 0.40235 0.36583 0.0
C2445 C 0.99922 0.4064 0.36709 0.0
C2446 C 0.97379 0.37149 0.468 0.0
C2447 C 0.96698 0.41042 0.3295 0.0
H2448 H 0.91662 0.35335 0.35918 0.0
H2449 H 0.90603 0.40374 0.43789 0.0
H2450 H 0.96344 0.36412 0.32777 0.0
H2451 H 0.96673 0.35052 0.37612 0.0
H2452 H 0.94781 0.34361 0.33895 0.0
H2453 H 0.93064 0.4254 0.45742 0.0
H2454 H 0.95309 0.41283 0.4692 0.0
H2455 H 0.95091 0.42651 0.42065 0.0
H2456 H 0.01082 0.38367 0.46065 0.0
H2457 H 1.00572 0.4148 0.34138 0.0
H2458 H 0.9663 0.35861 0.45417 0.0
H2459 H 0.96272 0.37995 0.48605 0.0
H2460 H 0.98508 0.36634 0.4909 0.0
H2461 H 0.96002 0.39833 0.31153 0.0
H2462 H 0.97577 0.41927 0.30676 0.0
H2463 H 0.95509 0.41967 0.34251 0.0
C2464 C 0.36891 0.76355 0.34344 0.0
C2465 C 0.36374 0.75362 0.38118 0.0
C2466 C 0.3733 0.78356 0.34381 0.0
C2467 C 0.37262 0.79402 0.38293 0.0
C2468 C 0.36735 0.78412 0.42117 0.0
C2469 C 0.36287 0.76408 0.4198 0.0
C2470 C 0.37855 0.79354 0.30219 0.0
C2471 C 0.36657 0.79469 0.46358 0.0
C2472 C 0.40097 0.84184 0.38908 0.0
C2473 C 0.38621 0.85583 0.38359 0.0
C2474 C 0.39675 0.82175 0.38939 0.0
C2475 C 0.37729 0.81534 0.38361 0.0
C2476 C 0.36234 0.82932 0.37761 0.0
C2477 C 0.36694 0.84931 0.37786 0.0
C2478 C 0.41314 0.80736 0.3959 0.0
C2479 C 0.34142 0.82315 0.37103 0.0
H2480 H 0.36926 0.75569 0.3133 0.0
H2481 H 0.35897 0.75652 0.4491 0.0
H2482 H 0.36813 0.80556 0.29566 0.0
H2483 H 0.39327 0.80013 0.30469 0.0
H2484 H 0.37842 0.78336 0.2745 0.0
H2485 H 0.36234 0.78492 0.49044 0.0
H2486 H 0.38102 0.80115 0.47086 0.0
H2487 H 0.35595 0.80686 0.4618 0.0
H2488 H 0.41592 0.84655 0.39295 0.0
H2489 H 0.35528 0.8598 0.37426 0.0
H2490 H 0.41434 0.79767 0.36754 0.0
H2491 H 0.41 0.79796 0.42404 0.0
H2492 H 0.4274 0.81466 0.40101 0.0
H2493 H 0.34031 0.8135 0.34258 0.0
H2494 H 0.3315 0.83579 0.36636 0.0
H2495 H 0.3363 0.81466 0.39914 0.0
C2496 C 1.00549 0.63387 0.13085 0.0
C2497 C 0.01156 0.6144 0.13554 0.0
C2498 C 0.98563 0.63898 0.13123 0.0
C2499 C 0.97133 0.62438 0.13759 0.0
C2500 C 0.97731 0.60481 0.14382 0.0
C2501 C 0.99727 0.60003 0.14226 0.0
C2502 C 0.97994 0.65999 0.12391 0.0
C2503 C 0.96259 0.58882 0.15149 0.0
C2504 C 0.92069 0.64087 0.17311 0.0
C2505 C 0.91002 0.63946 0.13485 0.0
C2506 C 0.94055 0.63576 0.17464 0.0
C2507 C 0.95013 0.62955 0.13674 0.0
C2508 C 0.93944 0.6284 0.09787 0.0
C2509 C 0.91946 0.63309 0.09757 0.0
C2510 C 0.95119 0.6367 0.21697 0.0
C2511 C 0.94913 0.6223 0.05652 0.0
H2512 H 0.01629 0.64523 0.12655 0.0
H2513 H 1.00157 0.58489 0.14524 0.0
H2514 H 0.97044 0.66109 0.09519 0.0
H2515 H 0.97143 0.66549 0.15162 0.0
H2516 H 0.99279 0.6696 0.11918 0.0
H2517 H 0.96962 0.57459 0.15861 0.0
H2518 H 0.95292 0.59276 0.17868 0.0
H2519 H 0.95322 0.58708 0.12275 0.0
H2520 H 0.9133 0.64543 0.20214 0.0
H2521 H 0.91119 0.63202 0.06805 0.0
H2522 H 0.96357 0.64703 0.2147 0.0
H2523 H 0.95736 0.62217 0.22486 0.0
H2524 H 0.94154 0.64137 0.24368 0.0
H2525 H 0.96163 0.63207 0.04955 0.0
H2526 H 0.93894 0.62268 0.02885 0.0
H2527 H 0.95501 0.60731 0.05969 0.0
C2528 C 0.16541 0.24801 0.88894 0.0
C2529 C 0.15073 0.2621 0.88322 0.0
C2530 C 0.16102 0.22796 0.88998 0.0
C2531 C 0.14152 0.22168 0.88425 0.0
C2532 C 0.12663 0.23575 0.87869 0.0
C2533 C 0.13136 0.25571 0.87878 0.0
C2534 C 0.17732 0.21349 0.89678 0.0
C2535 C 0.10568 0.22973 0.87194 0.0
C2536 C 0.13293 0.16968 0.8448 0.0
C2537 C 0.12682 0.16028 0.88235 0.0
C2538 C 0.1376 0.18967 0.84484 0.0
C2539 C 0.13667 0.20039 0.88369 0.0
C2540 C 0.13085 0.19081 0.92189 0.0
C2541 C 0.12577 0.17095 0.92063 0.0
C2542 C 0.1433 0.19937 0.80322 0.0
C2543 C 0.13017 0.20148 0.9642 0.0
H2544 H 0.18048 0.25257 0.89163 0.0
H2545 H 0.11978 0.26632 0.87517 0.0
H2546 H 0.17386 0.20384 0.92433 0.0
H2547 H 0.17884 0.20407 0.86808 0.0
H2548 H 0.19153 0.22073 0.90294 0.0
H2549 H 0.09585 0.24243 0.86726 0.0
H2550 H 0.10458 0.22012 0.8434 0.0
H2551 H 0.10044 0.22123 0.89993 0.0
H2552 H 0.13372 0.1614 0.81525 0.0
H2553 H 0.1214 0.1636 0.94986 0.0
H2554 H 0.15817 0.20557 0.80591 0.0
H2555 H 0.13322 0.21164 0.79632 0.0
H2556 H 0.143 0.18909 0.7757 0.0
H2557 H 0.14463 0.208 0.97123 0.0
H2558 H 0.12603 0.19177 0.99123 0.0
H2559 H 0.11952 0.21362 0.96244 0.0
C2560 C 0.59768 0.39948 0.63696 0.0
C2561 C 0.60448 0.38012 0.63763 0.0
C2562 C 0.57763 0.4038 0.63725 0.0
C2563 C 0.56385 0.38846 0.63868 0.0
C2564 C 0.57052 0.36891 0.63956 0.0
C2565 C 0.59068 0.36499 0.63878 0.0
C2566 C 0.57118 0.42485 0.63592 0.0
C2567 C 0.55635 0.3521 0.64113 0.0
C2568 C 0.51186 0.40011 0.67485 0.0
C2569 C 0.50193 0.40107 0.63557 0.0
C2570 C 0.53197 0.39592 0.67644 0.0
C2571 C 0.54247 0.39286 0.63781 0.0
C2572 C 0.53254 0.39412 0.59808 0.0
C2573 C 0.51246 0.39816 0.59747 0.0
C2574 C 0.54197 0.3946 0.71947 0.0
C2575 C 0.54315 0.39128 0.5561 0.0
H2576 H 0.60799 0.4114 0.63682 0.0
H2577 H 0.59558 0.34999 0.63876 0.0
H2578 H 0.56192 0.42742 0.60729 0.0
H2579 H 0.56221 0.42825 0.66455 0.0
H2580 H 0.5837 0.43512 0.63487 0.0
H2581 H 0.56383 0.33777 0.64324 0.0
H2582 H 0.54653 0.35368 0.66921 0.0
H2583 H 0.54706 0.3522 0.612 0.0
H2584 H 0.50382 0.40228 0.7044 0.0
H2585 H 0.505 0.39926 0.56691 0.0
H2586 H 0.55402 0.40536 0.72117 0.0
H2587 H 0.54853 0.37993 0.72352 0.0
H2588 H 0.53179 0.39732 0.74653 0.0
H2589 H 0.5551 0.4021 0.55318 0.0
H2590 H 0.53335 0.39284 0.52794 0.0
H2591 H 0.5499 0.37659 0.55517 0.0
C2592 C 0.23919 0.22014 0.301 0.0
C2593 C 0.22121 0.22108 0.2799 0.0
C2594 C 0.25247 0.23567 0.29843 0.0
C2595 C 0.24739 0.25261 0.27487 0.0
C2596 C 0.22901 0.25379 0.2545 0.0
C2597 C 0.2162 0.23795 0.25703 0.0
C2598 C 0.27205 0.23382 0.32017 0.0
C2599 C 0.2229 0.27176 0.22987 0.0
C2600 C 0.27502 0.2995 0.29653 0.0
C2601 C 0.28774 0.3002 0.26141 0.0
C2602 C 0.26171 0.28413 0.30129 0.0
C2603 C 0.26144 0.26895 0.27055 0.0
C2604 C 0.27431 0.26957 0.23506 0.0
C2605 C 0.2872 0.28529 0.23075 0.0
C2606 C 0.24793 0.28415 0.33907 0.0
C2607 C 0.2746 0.25352 0.20192 0.0
H2608 H 0.243 0.20706 0.31863 0.0
H2609 H 0.2021 0.23883 0.24149 0.0
H2610 H 0.28384 0.23473 0.29587 0.0
H2611 H 0.27423 0.24605 0.34293 0.0
H2612 H 0.27357 0.21986 0.33794 0.0
H2613 H 0.20778 0.27061 0.21732 0.0
H2614 H 0.22385 0.2848 0.25079 0.0
H2615 H 0.23293 0.27415 0.20246 0.0
H2616 H 0.27546 0.3111 0.3201 0.0
H2617 H 0.29731 0.28565 0.20404 0.0
H2618 H 0.2502 0.27085 0.35872 0.0
H2619 H 0.23262 0.28386 0.32759 0.0
H2620 H 0.24993 0.29714 0.35989 0.0
H2621 H 0.27752 0.2393 0.21766 0.0
H2622 H 0.28585 0.25598 0.17683 0.0
H2623 H 0.26015 0.25243 0.18614 0.0
C2624 C 0.02835 0.96736 0.50365 0.0
C2625 C 0.04554 0.97235 0.52532 0.0
C2626 C 0.01277 0.98049 0.50069 0.0
C2627 C 0.01455 0.9992 0.51935 0.0
C2628 C 0.0319 1.00435 0.54129 0.0
C2629 C 0.04715 0.99075 0.54439 0.0
C2630 C 0.99437 0.9743 0.47784 0.0
C2631 C 0.03439 0.02427 0.56111 0.0
C2632 C 0.98108 0.03872 0.47635 0.0
C2633 C 0.96687 0.03969 0.50855 0.0
C2634 C 0.99684 0.02577 0.47972 0.0
C2635 C 0.9982 0.01331 0.51584 0.0
C2636 C 0.98371 0.01405 0.54814 0.0
C2637 C 0.9683 0.02737 0.54426 0.0
C2638 C 0.01215 0.02558 0.44491 0.0
C2639 C 0.98446 1.00074 0.58671 0.0
H2640 H 0.02696 0.95297 0.48966 0.0
H2641 H 0.06047 0.99456 0.56103 0.0
H2642 H 0.98172 0.97547 0.49989 0.0
H2643 H 0.9915 0.98414 0.45031 0.0
H2644 H 0.99522 0.95909 0.46577 0.0
H2645 H 0.04885 0.02604 0.57667 0.0
H2646 H 0.03273 0.03568 0.53613 0.0
H2647 H 0.02288 0.02681 0.58546 0.0
H2648 H 0.98016 0.0485 0.44913 0.0
H2649 H 0.95723 0.02812 0.569 0.0
H2650 H 0.01287 0.01093 0.42995 0.0
H2651 H 0.0267 0.02863 0.45895 0.0
H2652 H 0.00917 0.03652 0.41943 0.0
H2653 H 0.98445 0.98529 0.57613 0.0
H2654 H 0.97194 1.00304 0.60874 0.0
H2655 H 0.99817 1.00318 0.60479 0.0
C2656 C 0.2901 0.78279 0.81149 0.0
C2657 C 0.28931 0.79792 0.78132 0.0
C2658 C 0.27775 0.76658 0.80808 0.0
C2659 C 0.26407 0.76569 0.7741 0.0
C2660 C 0.26309 0.78105 0.74381 0.0
C2661 C 0.27587 0.79692 0.7476 0.0
C2662 C 0.27941 0.75035 0.84064 0.0
C2663 C 0.24847 0.78079 0.70759 0.0
C2664 C 0.24178 0.71701 0.74275 0.0
C2665 C 0.22401 0.71762 0.76481 0.0
C2666 C 0.25514 0.73246 0.74586 0.0
C2667 C 0.25036 0.749 0.77099 0.0
C2668 C 0.23233 0.74974 0.79292 0.0
C2669 C 0.21944 0.73399 0.78976 0.0
C2670 C 0.27435 0.73108 0.72245 0.0
C2671 C 0.22655 0.76728 0.81933 0.0
H2672 H 0.30077 0.78341 0.83709 0.0
H2673 H 0.27528 0.80867 0.72441 0.0
H2674 H 0.2655 0.74886 0.85848 0.0
H2675 H 0.28213 0.73629 0.82414 0.0
H2676 H 0.29135 0.75293 0.86407 0.0
H2677 H 0.24962 0.79389 0.68676 0.0
H2678 H 0.25065 0.76762 0.68753 0.0
H2679 H 0.23346 0.78005 0.72077 0.0
H2680 H 0.24528 0.70431 0.72358 0.0
H2681 H 0.20552 0.73466 0.8061 0.0
H2682 H 0.28657 0.73253 0.74556 0.0
H2683 H 0.27567 0.74323 0.69913 0.0
H2684 H 0.27597 0.71707 0.70495 0.0
H2685 H 0.23737 0.76974 0.8452 0.0
H2686 H 0.21191 0.76558 0.83414 0.0
H2687 H 0.22644 0.78052 0.79887 0.0
C2688 C 0.54574 0.9885 0.04093 0.0
C2689 C 0.54649 0.97486 1.00758 0.0
C2690 C 0.53006 1.0015 0.04461 0.0
C2691 C 0.51461 1.00057 1.01456 0.0
C2692 C 0.51526 0.98675 0.98085 0.0
C2693 C 0.53131 0.97415 0.97755 0.0
C2694 C 0.53006 0.01628 0.08051 0.0
C2695 C 0.49895 0.98516 0.94852 0.0
C2696 C 0.46644 0.02367 0.04703 0.0
C2697 C 0.46723 0.04144 0.02498 0.0
C2698 C 0.48163 0.01002 0.04341 0.0
C2699 C 0.49808 0.01449 1.01773 0.0
C2700 C 0.49899 0.03249 0.9957 0.0
C2701 C 0.48351 0.04569 0.99942 0.0
C2702 C 0.48008 0.99086 0.06699 0.0
C2703 C 0.51645 0.03795 0.96869 0.0
H2704 H 0.55756 0.98907 0.06395 0.0
H2705 H 0.53176 0.96336 0.95219 0.0
H2706 H 0.52942 0.03124 0.06702 0.0
H2707 H 0.51695 0.01433 0.10086 0.0
H2708 H 0.54322 0.01509 0.10113 0.0
H2709 H 0.50137 0.97316 0.92521 0.0
H2710 H 0.4849 0.98262 0.96525 0.0
H2711 H 0.49753 0.99905 0.93055 0.0
H2712 H 0.45381 0.02039 0.06662 0.0
H2713 H 0.48433 0.05959 0.98303 0.0
H2714 H 0.49226 0.98944 0.09019 0.0
H2715 H 0.48135 0.97859 0.04398 0.0
H2716 H 0.46609 0.98943 0.08466 0.0
H2717 H 0.52978 0.03804 0.98884 0.0
H2718 H 0.51482 0.05251 0.95349 0.0
H2719 H 0.5187 0.02695 0.94309 0.0
C2720 C 0.29578 0.73357 0.2496 0.0
C2721 C 0.29131 0.717 0.27405 0.0
C2722 C 0.28266 0.74914 0.24641 0.0
C2723 C 0.2645 0.74802 0.26777 0.0
C2724 C 0.25983 0.73126 0.29232 0.0
C2725 C 0.27341 0.716 0.29551 0.0
C2726 C 0.28835 0.76691 0.22064 0.0
C2727 C 0.24049 0.72947 0.31509 0.0
C2728 C 0.23821 0.79542 0.29197 0.0
C2729 C 0.22498 0.79653 0.25786 0.0
C2730 C 0.25118 0.7797 0.29561 0.0
C2731 C 0.25059 0.76456 0.26478 0.0
C2732 C 0.23711 0.76553 0.23042 0.0
C2733 C 0.22458 0.78163 0.22716 0.0
C2734 C 0.26559 0.77936 0.33223 0.0
C2735 C 0.23585 0.74952 0.19731 0.0
H2736 H 0.30979 0.73453 0.23372 0.0
H2737 H 0.26999 0.70315 0.31428 0.0
H2738 H 0.27763 0.76941 0.19456 0.0
H2739 H 0.28817 0.78002 0.24147 0.0
H2740 H 0.30308 0.7655 0.20616 0.0
H2741 H 0.23894 0.7153 0.33204 0.0
H2742 H 0.23887 0.74141 0.3388 0.0
H2743 H 0.2284 0.73095 0.29167 0.0
H2744 H 0.2385 0.80701 0.31556 0.0
H2745 H 0.21408 0.78233 0.20123 0.0
H2746 H 0.28068 0.7789 0.31945 0.0
H2747 H 0.26347 0.76603 0.35182 0.0
H2748 H 0.26415 0.79229 0.35343 0.0
H2749 H 0.24987 0.74834 0.17979 0.0
H2750 H 0.224 0.75211 0.17366 0.0
H2751 H 0.23324 0.7353 0.21329 0.0
C2752 C 0.466 0.99084 0.49554 0.0
C2753 C 0.46662 0.97317 0.51802 0.0
C2754 C 0.48126 1.00441 0.49906 0.0
C2755 C 0.49759 0.99998 0.52515 0.0
C2756 C 0.49826 0.98214 0.54787 0.0
C2757 C 0.48273 0.96901 0.54416 0.0
C2758 C 0.47997 0.02339 0.47472 0.0
C2759 C 0.51556 0.97675 0.57542 0.0
C2760 C 0.54566 0.02496 0.50111 0.0
C2761 C 0.54656 0.03894 0.53377 0.0
C2762 C 0.52978 0.0122 0.49791 0.0
C2763 C 0.5143 0.01368 0.52778 0.0
C2764 C 0.51509 0.02784 0.56076 0.0
C2765 C 0.53132 0.04022 0.56356 0.0
C2766 C 0.52961 0.99706 0.46274 0.0
C2767 C 0.49875 0.03001 0.59287 0.0
H2768 H 0.4535 0.99408 0.47552 0.0
H2769 H 0.48344 0.95519 0.5609 0.0
H2770 H 0.48146 0.03584 0.49719 0.0
H2771 H 0.49213 0.02441 0.45138 0.0
H2772 H 0.46598 0.0249 0.45707 0.0
H2773 H 0.51366 0.96241 0.5915 0.0
H2774 H 0.52893 0.97616 0.55542 0.0
H2775 H 0.51795 0.98803 0.60034 0.0
H2776 H 0.55752 0.02395 0.47827 0.0
H2777 H 0.53186 0.05127 0.58837 0.0
H2778 H 0.51654 0.999 0.44224 0.0
H2779 H 0.52877 0.98225 0.47694 0.0
H2780 H 0.5428 0.99787 0.44211 0.0
H2781 H 0.48476 0.03259 0.57591 0.0
H2782 H 0.5013 0.04221 0.6156 0.0
H2783 H 0.49711 0.01633 0.61153 0.0
C2784 C 0.27471 0.21851 0.73457 0.0
C2785 C 0.29218 0.21891 0.75778 0.0
C2786 C 0.26132 0.23394 0.73754 0.0
C2787 C 0.26577 0.25025 0.76365 0.0
C2788 C 0.28359 0.25086 0.78641 0.0
C2789 C 0.29651 0.23512 0.78342 0.0
C2790 C 0.24232 0.23269 0.71325 0.0
C2791 C 0.28906 0.26818 0.81381 0.0
C2792 C 0.23968 0.29808 0.74251 0.0
C2793 C 0.22611 0.29849 0.77603 0.0
C2794 C 0.25272 0.28246 0.73808 0.0
C2795 C 0.25182 0.26672 0.76742 0.0
C2796 C 0.238 0.267 0.80116 0.0
C2797 C 0.22542 0.28302 0.80531 0.0
C2798 C 0.26753 0.28287 0.70225 0.0
C2799 C 0.23639 0.25035 0.83266 0.0
H2800 H 0.2714 0.20593 0.71487 0.0
H2801 H 0.31021 0.23559 0.80067 0.0
H2802 H 0.22992 0.23341 0.73604 0.0
H2803 H 0.2409 0.24528 0.69113 0.0
H2804 H 0.24112 0.21903 0.6943 0.0
H2805 H 0.30371 0.26655 0.82859 0.0
H2806 H 0.28894 0.28167 0.79415 0.0
H2807 H 0.27818 0.27014 0.83978 0.0
H2808 H 0.24016 0.31012 0.72001 0.0
H2809 H 0.21465 0.28321 0.83074 0.0
H2810 H 0.26564 0.26995 0.68128 0.0
H2811 H 0.28248 0.28213 0.71577 0.0
H2812 H 0.26632 0.29622 0.68225 0.0
H2813 H 0.23398 0.23646 0.81521 0.0
H2814 H 0.22428 0.25245 0.85589 0.0
H2815 H 0.25021 0.24883 0.8508 0.0
C2816 C 0.02979 0.0473 0.03399 0.0
C2817 C 0.0467 0.04239 1.01116 0.0
C2818 C 0.01414 0.03428 0.03707 0.0
C2819 C 0.01555 0.01576 1.01735 0.0
C2820 C 0.03261 0.01068 0.9943 0.0
C2821 C 0.04794 0.02419 0.99109 0.0
C2822 C 0.99603 0.0404 0.06114 0.0
C2823 C 0.03473 0.99096 0.97334 0.0
C2824 C 0.98199 0.97625 0.05994 0.0
C2825 C 0.96746 0.9758 0.02837 0.0
C2826 C 0.9979 0.98899 0.05643 0.0
C2827 C 0.99908 1.00179 0.02087 0.0
C2828 C 0.98428 1.00157 0.98921 0.0
C2829 C 0.96873 0.98842 0.99317 0.0
C2830 C 0.01354 0.98861 0.0905 0.0
C2831 C 0.98483 0.01528 0.95131 0.0
H2832 H 0.02867 0.06154 0.04876 0.0
H2833 H 0.06105 0.02044 0.97353 0.0
H2834 H 0.98316 0.03963 0.03964 0.0
H2835 H 0.99332 0.03027 0.08825 0.0
H2836 H 0.99716 0.05545 0.07402 0.0
H2837 H 0.04903 0.9892 0.9571 0.0
H2838 H 0.03315 0.9793 0.99778 0.0
H2839 H 0.02298 0.98882 0.94934 0.0
H2840 H 0.98118 0.96622 0.08675 0.0
H2841 H 0.95742 0.98806 0.96891 0.0
H2842 H 0.01455 1.00306 0.10627 0.0
H2843 H 0.02792 0.98559 0.07561 0.0
H2844 H 0.0107 0.9774 0.11548 0.0
H2845 H 0.98508 0.03061 0.96267 0.0
H2846 H 0.97209 0.01335 0.92972 0.0
H2847 H 0.99834 0.01288 0.93249 0.0
C2848 C 0.742 0.71693 0.75117 0.0
C2849 C 0.72678 0.71667 0.78112 0.0
C2850 C 0.75445 0.73306 0.74777 0.0
C2851 C 0.75146 0.74939 0.77471 0.0
C2852 C 0.73603 0.74927 0.80488 0.0
C2853 C 0.72393 0.73284 0.80788 0.0
C2854 C 0.77091 0.73255 0.7156 0.0
C2855 C 0.73229 0.76648 0.83391 0.0
C2856 C 0.79478 0.78236 0.79484 0.0
C2857 C 0.79136 0.79765 0.7659 0.0
C2858 C 0.7818 0.76668 0.79829 0.0
C2859 C 0.76492 0.76631 0.77228 0.0
C2860 C 0.76123 0.78179 0.74329 0.0
C2861 C 0.77458 0.79726 0.7403 0.0
C2862 C 0.78636 0.75033 0.8292 0.0
C2863 C 0.74328 0.78193 0.71528 0.0
H2864 H 0.74427 0.70437 0.7307 0.0
H2865 H 0.71195 0.73281 0.83052 0.0
H2866 H 0.76963 0.74502 0.6931 0.0
H2867 H 0.78509 0.73404 0.73241 0.0
H2868 H 0.7711 0.71882 0.69671 0.0
H2869 H 0.7193 0.7643 0.85468 0.0
H2870 H 0.74516 0.76905 0.8547 0.0
H2871 H 0.73008 0.77985 0.81444 0.0
H2872 H 0.80791 0.78237 0.81409 0.0
H2873 H 0.77185 0.80912 0.71813 0.0
H2874 H 0.78804 0.73644 0.81136 0.0
H2875 H 0.77414 0.74837 0.85209 0.0
H2876 H 0.79992 0.75304 0.84775 0.0
H2877 H 0.74341 0.76908 0.6937 0.0
H2878 H 0.74226 0.79533 0.69536 0.0
H2879 H 0.73 0.78083 0.73544 0.0
C2880 C 0.74125 0.21531 0.2408 0.0
C2881 C 0.72348 0.21605 0.26281 0.0
C2882 C 0.75469 0.23068 0.2439 0.0
C2883 C 0.74998 0.24728 0.26889 0.0
C2884 C 0.73193 0.24816 0.29072 0.0
C2885 C 0.71897 0.23246 0.28765 0.0
C2886 C 0.77393 0.22914 0.22065 0.0
C2887 C 0.7262 0.26578 0.31691 0.0
C2888 C 0.78992 0.28083 0.30929 0.0
C2889 C 0.78937 0.29582 0.2788 0.0
C2890 C 0.7774 0.26474 0.30606 0.0
C2891 C 0.76379 0.26388 0.27196 0.0
C2892 C 0.76301 0.27914 0.24141 0.0
C2893 C 0.77597 0.29485 0.24499 0.0
C2894 C 0.77885 0.2486 0.33886 0.0
C2895 C 0.74841 0.27892 0.20513 0.0
H2896 H 0.74469 0.20256 0.22172 0.0
H2897 H 0.70505 0.2332 0.30396 0.0
H2898 H 0.77536 0.24123 0.1972 0.0
H2899 H 0.78613 0.23058 0.24383 0.0
H2900 H 0.77551 0.21509 0.2033 0.0
H2901 H 0.71154 0.2642 0.33161 0.0
H2902 H 0.73699 0.26823 0.34285 0.0
H2903 H 0.72622 0.27898 0.29633 0.0
H2904 H 0.80054 0.28145 0.33499 0.0
H2905 H 0.77555 0.30653 0.2216 0.0
H2906 H 0.78166 0.23449 0.32258 0.0
H2907 H 0.76483 0.24715 0.35631 0.0
H2908 H 0.79064 0.25122 0.3626 0.0
H2909 H 0.75053 0.26572 0.18513 0.0
H2910 H 0.74965 0.29199 0.18424 0.0
H2911 H 0.73339 0.27828 0.21824 0.0
C2912 C 0.73804 0.29397 0.73273 0.0
C2913 C 0.71995 0.29261 0.75325 0.0
C2914 C 0.75164 0.27871 0.73561 0.0
C2915 C 0.74676 0.26162 0.75883 0.0
C2916 C 0.72825 0.26 0.77849 0.0
C2917 C 0.71513 0.27559 0.77573 0.0
C2918 C 0.77134 0.28104 0.71467 0.0
C2919 C 0.72234 0.24185 0.80269 0.0
C2920 C 0.7755 0.21533 0.73777 0.0
C2921 C 0.78789 0.21474 0.77346 0.0
C2922 C 0.76197 0.23048 0.73259 0.0
C2923 C 0.76113 0.24556 0.76351 0.0
C2924 C 0.77369 0.24507 0.79955 0.0
C2925 C 0.78681 0.22955 0.80428 0.0
C2926 C 0.74853 0.23031 0.69422 0.0
C2927 C 0.77339 0.26104 0.83288 0.0
H2928 H 0.7417 0.30718 0.71545 0.0
H2929 H 0.70097 0.27442 0.79087 0.0
H2930 H 0.78294 0.28039 0.73945 0.0
H2931 H 0.77402 0.26889 0.69196 0.0
H2932 H 0.77267 0.29505 0.69701 0.0
H2933 H 0.70708 0.2426 0.81451 0.0
H2934 H 0.72384 0.22886 0.78174 0.0
H2935 H 0.73215 0.23966 0.83057 0.0
H2936 H 0.77635 0.2038 0.71409 0.0
H2937 H 0.79666 0.22927 0.83145 0.0
H2938 H 0.75069 0.24371 0.67488 0.0
H2939 H 0.73312 0.23025 0.70506 0.0
H2940 H 0.75098 0.21743 0.6733 0.0
H2941 H 0.77609 0.27536 0.8174 0.0
H2942 H 0.78451 0.25875 0.85832 0.0
H2943 H 0.75881 0.26178 0.84817 0.0
C2944 C 0.73921 0.79625 0.29712 0.0
C2945 C 0.72098 0.79524 0.27704 0.0
C2946 C 0.75263 0.78087 0.29342 0.0
C2947 C 0.74747 0.764 0.26977 0.0
C2948 C 0.72894 0.76282 0.25004 0.0
C2949 C 0.71598 0.77851 0.25369 0.0
C2950 C 0.77236 0.78272 0.31446 0.0
C2951 C 0.72275 0.74494 0.22528 0.0
C2952 C 0.78704 0.73082 0.22604 0.0
C2953 C 0.78749 0.71602 0.25703 0.0
C2954 C 0.77424 0.74666 0.23005 0.0
C2955 C 0.7614 0.74753 0.26557 0.0
C2956 C 0.76159 0.73245 0.2966 0.0
C2957 C 0.77477 0.71695 0.29212 0.0
C2958 C 0.77462 0.76258 0.19658 0.0
C2959 C 0.74787 0.73269 0.33448 0.0
H2960 H 0.74304 0.80922 0.31505 0.0
H2961 H 0.70173 0.77755 0.23891 0.0
H2962 H 0.77449 0.77074 0.33791 0.0
H2963 H 0.78401 0.78135 0.28995 0.0
H2964 H 0.77416 0.79686 0.33136 0.0
H2965 H 0.7077 0.74623 0.21246 0.0
H2966 H 0.73286 0.74242 0.19807 0.0
H2967 H 0.7235 0.73189 0.24627 0.0
H2968 H 0.79713 0.73028 0.19933 0.0
H2969 H 0.77511 0.70545 0.31594 0.0
H2970 H 0.77774 0.77682 0.21202 0.0
H2971 H 0.76013 0.7638 0.18099 0.0
H2972 H 0.78576 0.75989 0.1714 0.0
H2973 H 0.75031 0.74601 0.3539 0.0
H2974 H 0.74975 0.71974 0.35549 0.0
H2975 H 0.73254 0.73312 0.3231 0.0
C2976 C 0.54895 0.4912 0.04633 0.0
C2977 C 0.54834 0.47351 0.02401 0.0
C2978 C 0.53367 0.50475 0.0427 0.0
C2979 C 0.5173 0.50024 1.01681 0.0
C2980 C 0.51657 0.4823 0.99455 0.0
C2981 C 0.53216 0.46922 0.99821 0.0
C2982 C 0.53504 0.52387 0.06648 0.0
C2983 C 0.4992 0.47678 0.96736 0.0
C2984 C 0.46948 0.52598 0.03973 0.0
C2985 C 0.46871 0.53962 1.00634 0.0
C2986 C 0.48521 0.51303 0.04348 0.0
C2987 C 0.5007 0.51407 1.01355 0.0
C2988 C 0.50004 0.52792 0.97988 0.0
C2989 C 0.48393 0.54043 0.97644 0.0
C2990 C 0.4852 0.49819 0.0793 0.0
C2991 C 0.51642 0.52965 0.94774 0.0
H2992 H 0.56151 0.4945 0.06612 0.0
H2993 H 0.53149 0.45537 0.98163 0.0
H2994 H 0.53373 0.53619 0.04357 0.0
H2995 H 0.52282 0.52515 0.08958 0.0
H2996 H 0.54899 0.52535 0.08429 0.0
H2997 H 0.50093 0.46224 0.95215 0.0
H2998 H 0.48582 0.47661 0.98737 0.0
H2999 H 0.49695 0.48779 0.94175 0.0
H3000 H 0.45763 0.52537 0.06268 0.0
H3001 H 0.48346 0.55123 0.95107 0.0
H3002 H 0.49824 0.50021 0.09985 0.0
H3003 H 0.48599 0.48326 0.06575 0.0
H3004 H 0.47197 0.49926 0.09974 0.0
H3005 H 0.53043 0.53221 0.96465 0.0
H3006 H 0.51402 0.54172 0.92452 0.0
H3007 H 0.51793 0.51582 0.92963 0.0
C3008 C 0.05107 0.49129 0.49644 0.0
C3009 C 0.04844 0.47277 0.51443 0.0
C3010 C 0.03648 0.50559 0.49982 0.0
C3011 C 0.01878 0.50106 0.52103 0.0
C3012 C 0.01606 0.48235 0.53913 0.0
C3013 C 0.03096 0.46848 0.53577 0.0
C3014 C 0.03994 0.52548 0.48054 0.0
C3015 C 0.99727 0.47683 0.56129 0.0
C3016 C 0.98509 0.5409 0.56178 0.0
C3017 C 0.97113 0.54171 0.52901 0.0
C3018 C 1.00098 0.52806 0.55916 0.0
C3019 C 1.00274 0.51558 0.52319 0.0
C3020 C 0.98863 0.51632 0.49008 0.0
C3021 C 0.97306 0.52947 0.4933 0.0
C3022 C 0.01586 0.52784 0.59485 0.0
C3023 C 0.98984 0.50304 0.45154 0.0
H3024 H 0.06461 0.49459 0.48009 0.0
H3025 H 0.02871 0.45404 0.54892 0.0
H3026 H 0.02905 0.52835 0.45499 0.0
H3027 H 0.03801 0.5369 0.50538 0.0
H3028 H 0.05477 0.52689 0.46656 0.0
H3029 H 0.99761 0.46173 0.57418 0.0
H3030 H 0.9943 0.48702 0.58813 0.0
H3031 H 0.98492 0.47805 0.53844 0.0
H3032 H 0.98379 0.55061 0.58903 0.0
H3033 H 0.9622 0.53005 0.46811 0.0
H3034 H 0.03068 0.53018 0.58157 0.0
H3035 H 0.01585 0.51338 0.61079 0.0
H3036 H 0.01294 0.53921 0.61941 0.0
H3037 H 1.00399 0.50508 0.43491 0.0
H3038 H 0.97788 0.50573 0.42823 0.0
H3039 H 0.98914 0.4876 0.46204 0.0
C3040 C 0.98669 0.46599 0.03209 0.0
C3041 C 0.97025 0.47049 1.00724 0.0
C3042 C 1.00223 0.4791 0.03577 0.0
C3043 C 1.00122 0.49728 1.01446 0.0
C3044 C 0.98468 0.50192 0.98919 0.0
C3045 C 0.96943 0.48836 0.98558 0.0
C3046 C 0.01978 0.47346 0.0623 0.0
C3047 C 0.98301 0.52127 0.96637 0.0
C3048 C 0.03368 0.5376 0.05743 0.0
C3049 C 0.04894 0.53754 0.02756 0.0
C3050 C 0.01788 0.52477 0.05319 0.0
C3051 C 0.01755 0.51137 1.01865 0.0
C3052 C 0.03308 0.51108 0.98875 0.0
C3053 C 0.04852 0.52431 0.99338 0.0
C3054 C 1.00146 0.52569 0.08539 0.0
C3055 C 0.03343 0.49675 0.95199 0.0
H3056 H 0.98752 0.452 0.04813 0.0
H3057 H 0.95668 0.49183 0.96651 0.0
H3058 H 0.03313 0.47395 0.04222 0.0
H3059 H 0.02182 0.48402 0.08884 0.0
H3060 H 0.0184 0.45861 0.07623 0.0
H3061 H 0.96918 0.52262 0.94805 0.0
H3062 H 0.98378 0.53333 0.99002 0.0
H3063 H 0.9954 0.52316 0.94389 0.0
H3064 H 0.03385 0.54809 0.08341 0.0
H3065 H 0.06038 0.52427 0.97045 0.0
H3066 H 1.00018 0.51154 0.1024 0.0
H3067 H 0.98742 0.52829 0.06864 0.0
H3068 H 1.00365 0.53739 0.10954 0.0
H3069 H 0.03295 0.48162 0.96457 0.0
H3070 H 0.04663 0.49838 0.93167 0.0
H3071 H 0.02035 0.49878 0.93154 0.0
C3072 C 0.48495 0.46714 0.50349 0.0
C3073 C 0.46846 0.47167 0.52808 0.0
C3074 C 0.50068 0.48008 0.50066 0.0
C3075 C 0.49975 0.49812 0.5225 0.0
C3076 C 0.48314 0.50279 0.54749 0.0
C3077 C 0.46773 0.48938 0.55032 0.0
C3078 C 0.51831 0.47439 0.47447 0.0
C3079 C 0.48157 0.52201 0.5708 0.0
C3080 C 0.54722 0.52453 0.54524 0.0
C3081 C 0.54796 0.53785 0.51125 0.0
C3082 C 0.53161 0.51146 0.54929 0.0
C3083 C 0.51623 0.51206 0.51903 0.0
C3084 C 0.51686 0.52561 0.48477 0.0
C3085 C 0.53284 0.53823 0.48106 0.0
C3086 C 0.53163 0.49695 0.58576 0.0
C3087 C 0.50059 0.52688 0.45225 0.0
H3088 H 0.48568 0.45326 0.48702 0.0
H3089 H 0.45493 0.49284 0.56922 0.0
H3090 H 0.52058 0.48506 0.44818 0.0
H3091 H 0.53156 0.47468 0.49488 0.0
H3092 H 0.51687 0.45962 0.46022 0.0
H3093 H 0.46767 0.52338 0.58886 0.0
H3094 H 0.49387 0.52364 0.5936 0.0
H3095 H 0.48256 0.5342 0.54749 0.0
H3096 H 0.55898 0.52427 0.56844 0.0
H3097 H 0.53327 0.54881 0.45525 0.0
H3098 H 0.53109 0.48189 0.57284 0.0
H3099 H 0.51847 0.49899 0.60591 0.0
H3100 H 0.54475 0.49836 0.60644 0.0
H3101 H 0.4993 0.51287 0.43472 0.0
H3102 H 0.50295 0.53875 0.42855 0.0
H3103 H 0.48649 0.52944 0.46877 0.0
C3104 C 0.21611 0.14675 0.48542 0.0
C3105 C 0.21503 0.15878 0.44896 0.0
C3106 C 0.23282 0.1463 0.51191 0.0
C3107 C 0.24885 0.15872 0.50301 0.0
C3108 C 0.24788 0.1709 0.46604 0.0
C3109 C 0.23116 0.17058 0.43922 0.0
C3110 C 0.23322 0.13255 0.54971 0.0
C3111 C 0.26428 0.18474 0.45554 0.0
C3112 C 0.28417 0.17005 0.59639 0.0
C3113 C 0.30043 0.1585 0.58615 0.0
C3114 C 0.26746 0.17048 0.56953 0.0
C3115 C 0.26664 0.15868 0.532 0.0
C3116 C 0.28281 0.14651 0.52256 0.0
C3117 C 0.2995 0.14685 0.54912 0.0
C3118 C 0.25091 0.18404 0.58065 0.0
C3119 C 0.28256 0.13314 0.48412 0.0
H3120 H 0.20371 0.13765 0.49342 0.0
H3121 H 0.23036 0.18023 0.41173 0.0
H3122 H 0.24637 0.12315 0.54807 0.0
H3123 H 0.23411 0.14096 0.58 0.0
H3124 H 0.22011 0.12307 0.55103 0.0
H3125 H 0.26129 0.19346 0.42622 0.0
H3126 H 0.26665 0.19485 0.48283 0.0
H3127 H 0.27803 0.17652 0.45077 0.0
H3128 H 0.28485 0.17941 0.62435 0.0
H3129 H 0.31199 0.13794 0.54075 0.0
H3130 H 0.23726 0.17562 0.58513 0.0
H3131 H 0.24839 0.19437 0.55379 0.0
H3132 H 0.25382 0.19253 0.61031 0.0
H3133 H 0.26954 0.12357 0.48534 0.0
H3134 H 0.2958 0.12385 0.48233 0.0
H3135 H 0.28155 0.14185 0.45423 0.0
C3136 C 0.08864 0.04946 0.79642 0.0
C3137 C 0.10041 0.05148 0.83314 0.0
C3138 C 0.08911 0.03254 0.77072 0.0
C3139 C 0.10212 0.01714 0.78079 0.0
C3140 C 0.11421 0.01911 0.81767 0.0
C3141 C 0.11301 0.03606 0.84371 0.0
C3142 C 0.07536 0.03105 0.73302 0.0
C3143 C 0.1286 1.00336 0.82937 0.0
C3144 C 0.08972 0.96585 0.73969 0.0
C3145 C 0.10072 0.96429 0.70173 0.0
C3146 C 0.09008 0.98279 0.76536 0.0
C3147 C 0.10219 0.9987 0.75391 0.0
C3148 C 0.11352 0.9972 0.71575 0.0
C3149 C 0.11243 0.98019 0.68984 0.0
C3150 C 0.07715 0.98374 0.80453 0.0
C3151 C 0.12696 0.01351 0.70251 0.0
H3152 H 0.07869 0.06113 0.78798 0.0
H3153 H 0.12229 0.03746 0.87168 0.0
H3154 H 0.08375 0.02915 0.70289 0.0
H3155 H 0.0659 0.01804 0.73671 0.0
H3156 H 0.06593 0.04413 0.72969 0.0
H3157 H 0.13776 0.00745 0.85734 0.0
H3158 H 0.12074 0.98967 0.83709 0.0
H3159 H 0.13826 1.00025 0.80164 0.0
H3160 H 0.08045 0.9538 0.74918 0.0
H3161 H 0.12111 0.97916 0.66088 0.0
H3162 H 0.06708 0.99635 0.80189 0.0
H3163 H 0.08612 0.986 0.83369 0.0
H3164 H 0.06837 0.97028 0.80887 0.0
H3165 H 0.11837 0.02686 0.69565 0.0
H3166 H 0.13564 0.00977 0.67358 0.0
H3167 H 0.13708 0.01704 0.72917 0.0
C3168 C 0.21569 0.84132 0.04708 0.0
C3169 C 0.21404 0.85223 0.08513 0.0
C3170 C 0.23272 0.8417 0.02168 0.0
C3171 C 0.24861 0.85378 0.03346 0.0
C3172 C 0.247 0.86502 0.07169 0.0
C3173 C 0.22993 0.86388 0.09737 0.0
C3174 C 0.23379 0.82884 0.98244 0.0
C3175 C 0.26327 0.87845 0.08524 0.0
C3176 C 0.29958 0.84061 0.99143 0.0
C3177 C 0.30158 0.85244 0.9548 0.0
C3178 C 0.28257 0.84089 1.0169 0.0
C3179 C 0.2671 0.85382 1.00675 0.0
C3180 C 0.2691 0.866 0.96999 0.0
C3181 C 0.28611 0.86493 0.94412 0.0
C3182 C 0.28105 0.82704 0.05441 0.0
C3183 C 0.25331 0.88035 0.95827 0.0
H3184 H 0.20365 0.8321 0.03735 0.0
H3185 H 0.22882 0.87248 0.12642 0.0
H3186 H 0.23605 0.83787 0.95335 0.0
H3187 H 0.24644 0.81883 0.98509 0.0
H3188 H 0.22038 0.82 0.97798 0.0
H3189 H 0.25944 0.88708 0.11419 0.0
H3190 H 0.2766 0.86986 0.0922 0.0
H3191 H 0.26686 0.88863 0.05871 0.0
H3192 H 0.31131 0.83074 0.99991 0.0
H3193 H 0.28752 0.87425 0.9162 0.0
H3194 H 0.26805 0.81756 0.05053 0.0
H3195 H 0.2791 0.83533 0.08463 0.0
H3196 H 0.29414 0.81762 0.05768 0.0
H3197 H 0.23969 0.87244 0.95026 0.0
H3198 H 0.25744 0.88961 0.93047 0.0
H3199 H 0.25007 0.88991 0.98609 0.0
C3200 C 0.40108 0.97959 0.34783 0.0
C3201 C 0.41348 0.96403 0.33719 0.0
C3202 C 0.39979 0.99642 0.32139 0.0
C3203 C 0.41161 0.99811 0.28401 0.0
C3204 C 0.42443 0.98258 0.27387 0.0
C3205 C 0.42499 0.96579 0.3 0.0
C3206 C 0.38562 0.01233 0.33322 0.0
C3207 C 0.43788 0.98378 0.2356 0.0
C3208 C 0.4008 0.03469 0.19253 0.0
C3209 C 0.41269 0.05057 0.2036 0.0
C3210 C 0.39983 0.01781 0.21889 0.0
C3211 C 0.41145 0.01641 0.25664 0.0
C3212 C 0.42376 0.03229 0.26721 0.0
C3213 C 0.42401 0.04911 0.24114 0.0
C3214 C 0.38618 1.00152 0.2066 0.0
C3215 C 0.437 0.03143 0.30588 0.0
H3216 H 0.392 0.97838 0.37615 0.0
H3217 H 0.43478 0.954 0.2915 0.0
H3218 H 0.39363 0.026 0.34021 0.0
H3219 H 0.37575 0.01536 0.30578 0.0
H3220 H 0.37667 0.00845 0.36167 0.0
H3221 H 0.4472 0.97061 0.23228 0.0
H3222 H 0.42928 0.98558 0.20576 0.0
H3223 H 0.44747 0.99674 0.23857 0.0
H3224 H 0.39188 0.03566 0.16392 0.0
H3225 H 0.43342 0.06115 0.24997 0.0
H3226 H 0.37622 0.99822 0.23371 0.0
H3227 H 0.39461 0.98808 0.19986 0.0
H3228 H 0.37731 1.00517 0.17787 0.0
H3229 H 0.42826 0.0294 0.33546 0.0
H3230 H 0.44594 0.04484 0.30949 0.0
H3231 H 0.44695 0.01873 0.30319 0.0
C3232 C 0.79902 0.8397 0.54887 0.0
C3233 C 0.80063 0.85101 0.58637 0.0
C3234 C 0.7821 0.83996 0.52313 0.0
C3235 C 0.76626 0.85229 0.534 0.0
C3236 C 0.76781 0.86391 0.5717 0.0
C3237 C 0.78479 0.86292 0.59772 0.0
C3238 C 0.78108 0.82672 0.4845 0.0
C3239 C 0.75158 0.87758 0.5843 0.0
C3240 C 0.72903 0.86275 0.44365 0.0
C3241 C 0.71349 0.8504 0.45469 0.0
C3242 C 0.74599 0.86397 0.46966 0.0
C3243 C 0.74784 0.85215 0.50702 0.0
C3244 C 0.73232 0.83937 0.51754 0.0
C3245 C 0.71539 0.83888 0.49184 0.0
C3246 C 0.76187 0.87812 0.45745 0.0
C3247 C 0.73368 0.8259 0.55577 0.0
H3248 H 0.81102 0.83028 0.53981 0.0
H3249 H 0.78587 0.87183 0.62631 0.0
H3250 H 0.76839 0.81678 0.48748 0.0
H3251 H 0.77892 0.83546 0.45495 0.0
H3252 H 0.79447 0.81778 0.48062 0.0
H3253 H 0.75535 0.88646 0.61291 0.0
H3254 H 0.74815 0.88752 0.55723 0.0
H3255 H 0.73817 0.86915 0.59141 0.0
H3256 H 0.7277 0.87184 0.41535 0.0
H3257 H 0.70361 0.82914 0.50065 0.0
H3258 H 0.77551 0.87008 0.45022 0.0
H3259 H 0.76501 0.88799 0.48479 0.0
H3260 H 0.75789 0.88706 0.42905 0.0
H3261 H 0.74664 0.81632 0.55255 0.0
H3262 H 0.72053 0.81658 0.55934 0.0
H3263 H 0.73558 0.8345 0.58558 0.0
C3264 C 0.92481 0.04975 0.29776 0.0
C3265 C 0.91303 0.05163 0.33448 0.0
C3266 C 0.92452 0.03282 0.27203 0.0
C3267 C 0.91164 0.0173 0.28203 0.0
C3268 C 0.89952 0.01916 0.31889 0.0
C3269 C 0.90058 0.03609 0.34501 0.0
C3270 C 0.93831 0.03145 0.23439 0.0
C3271 C 0.88523 1.0033 0.33049 0.0
C3272 C 0.9015 0.9804 0.1909 0.0
C3273 C 0.91324 0.9645 0.20276 0.0
C3274 C 0.90036 0.99738 0.21686 0.0
C3275 C 0.91168 0.99889 0.25502 0.0
C3276 C 0.92383 0.98299 0.26643 0.0
C3277 C 0.92422 0.96606 0.24074 0.0
C3278 C 0.88686 0.01367 0.20367 0.0
C3279 C 0.93676 0.98395 0.30559 0.0
H3280 H 0.93464 0.06152 0.28939 0.0
H3281 H 0.89129 0.0374 0.37298 0.0
H3282 H 0.94782 0.01846 0.23801 0.0
H3283 H 0.92996 0.02959 0.20421 0.0
H3284 H 0.94769 0.04457 0.23125 0.0
H3285 H 0.87603 0.00731 0.35844 0.0
H3286 H 0.87561 1.00016 0.30271 0.0
H3287 H 0.89318 0.98966 0.33816 0.0
H3288 H 0.89284 0.97938 0.16192 0.0
H3289 H 0.93351 0.95401 0.2502 0.0
H3290 H 0.8954 0.02704 0.19685 0.0
H3291 H 0.87673 0.01715 0.23034 0.0
H3292 H 0.87819 0.00993 0.17473 0.0
H3293 H 0.94675 0.99662 0.30305 0.0
H3294 H 0.94563 0.97054 0.30981 0.0
H3295 H 0.92778 0.98611 0.33478 0.0
C3296 C 0.78464 0.15054 0.94131 0.0
C3297 C 0.80013 0.163 0.95198 0.0
C3298 C 0.76776 0.14926 0.96757 0.0
C3299 C 0.76594 0.16115 1.00478 0.0
C3300 C 0.78143 0.17402 1.01499 0.0
C3301 C 0.79828 0.17456 0.98905 0.0
C3302 C 0.75192 0.13501 0.95571 0.0
C3303 C 0.78009 0.18756 0.05306 0.0
C3304 C 0.7148 0.17366 0.04659 0.0
C3305 C 0.71323 0.16247 0.08431 0.0
C3306 C 0.73169 0.17332 0.02078 0.0
C3307 C 0.74755 0.16105 0.03182 0.0
C3308 C 0.74604 0.14954 0.06972 0.0
C3309 C 0.72908 0.1506 0.09579 0.0
C3310 C 0.73266 0.18645 0.98192 0.0
C3311 C 0.7623 0.13593 0.08251 0.0
H3312 H 0.78592 0.14142 0.91306 0.0
H3313 H 0.81002 0.1844 0.99757 0.0
H3314 H 0.7488 0.12525 0.98327 0.0
H3315 H 0.73827 0.14299 0.94826 0.0
H3316 H 0.75593 0.12595 0.92752 0.0
H3317 H 0.79324 0.19688 0.0565 0.0
H3318 H 0.76714 0.19714 0.04972 0.0
H3319 H 0.77819 0.17903 0.08298 0.0
H3320 H 0.7028 0.18306 0.03742 0.0
H3321 H 0.72805 0.14179 0.12457 0.0
H3322 H 0.73484 0.17762 0.95252 0.0
H3323 H 0.74533 0.19643 0.98471 0.0
H3324 H 0.71925 0.19534 0.9779 0.0
H3325 H 0.76575 0.12594 0.05557 0.0
H3326 H 0.75855 0.12711 0.11123 0.0
H3327 H 0.77569 0.14441 0.0895 0.0
C3328 C 0.61803 0.04927 0.7393 0.0
C3329 C 0.6063 0.05031 0.70238 0.0
C3330 C 0.61844 0.03249 0.76564 0.0
C3331 C 0.60628 0.01634 0.7561 0.0
C3332 C 0.59437 0.01729 0.71874 0.0
C3333 C 0.59473 0.03408 0.69208 0.0
C3334 C 0.63191 0.03212 0.80392 0.0
C3335 C 0.58079 1.00077 0.70755 0.0
C3336 C 0.61835 0.96563 0.80186 0.0
C3337 C 0.60643 0.96444 0.83847 0.0
C3338 C 0.61871 0.98242 0.77557 0.0
C3339 C 0.60631 0.99844 0.78483 0.0
C3340 C 0.59423 0.99734 0.82189 0.0
C3341 C 0.59464 0.98055 0.84851 0.0
C3342 C 0.63237 0.98295 0.73764 0.0
C3343 C 0.5804 0.01371 0.83276 0.0
H3344 H 0.62697 0.06172 0.74771 0.0
H3345 H 0.58532 0.03482 0.6642 0.0
H3346 H 0.62328 0.03099 0.83389 0.0
H3347 H 0.64151 0.01912 0.80237 0.0
H3348 H 0.64118 0.04537 0.80582 0.0
H3349 H 0.57214 1.00382 0.67818 0.0
H3350 H 0.58923 0.98717 0.70251 0.0
H3351 H 0.57062 0.99808 0.7346 0.0
H3352 H 0.62747 0.95328 0.79363 0.0
H3353 H 0.58508 0.97968 0.87614 0.0
H3354 H 0.64179 0.99608 0.73941 0.0
H3355 H 0.62388 0.98398 0.70745 0.0
H3356 H 0.64183 0.96982 0.73598 0.0
H3357 H 0.58865 0.02741 0.83795 0.0
H3358 H 0.57166 0.01057 0.86195 0.0
H3359 H 0.57031 0.01628 0.80549 0.0
C3360 C 0.73353 0.6375 0.94049 0.0
C3361 C 0.72127 0.65326 0.93 0.0
C3362 C 0.74814 0.63904 0.97231 0.0
C3363 C 0.75097 0.65687 0.99448 0.0
C3364 C 0.73835 0.67274 0.98482 0.0
C3365 C 0.72368 0.67073 0.95303 0.0
C3366 C 0.76098 0.62163 0.98126 0.0
C3367 C 0.74078 0.69211 1.00702 0.0
C3368 C 0.78367 0.65697 0.09586 0.0
C3369 C 0.80187 0.6625 0.07905 0.0
C3370 C 0.76694 0.65528 0.06913 0.0
C3371 C 0.76826 0.65936 0.02443 0.0
C3372 C 0.78655 0.66519 1.00763 0.0
C3373 C 0.80293 0.66659 0.03479 0.0
C3374 C 0.74788 0.6489 0.08865 0.0
C3375 C 0.78891 0.66986 0.96055 0.0
H3376 H 0.73187 0.62385 0.92339 0.0
H3377 H 0.71446 0.68308 0.94536 0.0
H3378 H 0.77613 0.62485 0.971 0.0
H3379 H 0.76137 0.61854 1.01618 0.0
H3380 H 0.75594 0.60834 0.96421 0.0
H3381 H 0.72892 0.7025 0.9988 0.0
H3382 H 0.74108 0.69007 0.04231 0.0
H3383 H 0.75493 0.6987 0.99761 0.0
H3384 H 0.78249 0.65382 0.12983 0.0
H3385 H 0.81673 0.67101 0.02095 0.0
H3386 H 0.74307 0.63503 0.07374 0.0
H3387 H 0.73642 0.65992 0.08201 0.0
H3388 H 0.74897 0.64676 0.12389 0.0
H3389 H 0.78566 0.65673 0.94105 0.0
H3390 H 0.80387 0.67491 0.95262 0.0
H3391 H 0.7784 0.68135 0.95092 0.0
C3392 C 0.58961 0.46571 0.23974 0.0
C3393 C 0.60165 0.46358 0.20348 0.0
C3394 C 0.59011 0.48258 0.26558 0.0
C3395 C 0.60342 0.49779 0.25615 0.0
C3396 C 0.61577 0.49571 0.2197 0.0
C3397 C 0.61453 0.47882 0.19348 0.0
C3398 C 0.5761 0.48421 0.30277 0.0
C3399 C 0.63049 0.51125 0.20872 0.0
C3400 C 0.59151 0.54912 0.29774 0.0
C3401 C 0.6022 0.55032 0.33621 0.0
C3402 C 0.59184 0.5323 0.27172 0.0
C3403 C 0.60361 0.51614 0.28332 0.0
C3404 C 0.61465 0.5173 0.32193 0.0
C3405 C 0.61358 0.53419 0.34819 0.0
C3406 C 0.57921 0.53171 0.23205 0.0
C3407 C 0.62773 0.50071 0.33535 0.0
H3408 H 0.57946 0.45415 0.24772 0.0
H3409 H 0.62402 0.47731 0.16588 0.0
H3410 H 0.58428 0.48581 0.33325 0.0
H3411 H 0.56692 0.49743 0.29898 0.0
H3412 H 0.56638 0.47131 0.30548 0.0
H3413 H 0.63974 0.50711 0.18094 0.0
H3414 H 0.62291 0.52511 0.20105 0.0
H3415 H 0.64002 0.51408 0.23679 0.0
H3416 H 0.58249 0.56135 0.28818 0.0
H3417 H 0.622 0.53494 0.37755 0.0
H3418 H 0.56888 0.5193 0.23415 0.0
H3419 H 0.58835 0.52934 0.2032 0.0
H3420 H 0.57072 0.54535 0.22757 0.0
H3421 H 0.61887 0.48751 0.34184 0.0
H3422 H 0.63631 0.50423 0.36455 0.0
H3423 H 0.63794 0.49706 0.30893 0.0
C3424 C 0.7149 0.3678 0.54984 0.0
C3425 C 0.71369 0.35576 0.58627 0.0
C3426 C 0.73164 0.36812 0.52342 0.0
C3427 C 0.74758 0.35559 0.53236 0.0
C3428 C 0.74649 0.3434 0.5693 0.0
C3429 C 0.72973 0.34383 0.59604 0.0
C3430 C 0.73217 0.38189 0.48563 0.0
C3431 C 0.76279 0.32945 0.57988 0.0
C3432 C 0.78286 0.34418 0.43891 0.0
C3433 C 0.79914 0.3557 0.44906 0.0
C3434 C 0.76618 0.34375 0.46588 0.0
C3435 C 0.7654 0.35553 0.50344 0.0
C3436 C 0.78161 0.36763 0.51287 0.0
C3437 C 0.79826 0.36731 0.48619 0.0
C3438 C 0.74958 0.33026 0.45476 0.0
C3439 C 0.78143 0.38097 0.55138 0.0
H3440 H 0.7026 0.37703 0.54183 0.0
H3441 H 0.72885 0.33419 0.62353 0.0
H3442 H 0.74535 0.39122 0.48739 0.0
H3443 H 0.73308 0.37347 0.45533 0.0
H3444 H 0.71909 0.39143 0.4842 0.0
H3445 H 0.75972 0.32076 0.60919 0.0
H3446 H 0.76513 0.31932 0.5526 0.0
H3447 H 0.77659 0.33758 0.5847 0.0
H3448 H 0.78347 0.33487 0.41087 0.0
H3449 H 0.81075 0.37622 0.4945 0.0
H3450 H 0.736 0.33876 0.44996 0.0
H3451 H 0.74692 0.32004 0.48175 0.0
H3452 H 0.75252 0.32166 0.42527 0.0
H3453 H 0.76849 0.39067 0.55009 0.0
H3454 H 0.79474 0.39013 0.55332 0.0
H3455 H 0.78028 0.37224 0.58122 0.0
C3456 C 0.92152 0.48067 0.84482 0.0
C3457 C 0.91022 0.46433 0.83405 0.0
C3458 C 0.92188 0.49749 0.81824 0.0
C3459 C 0.91025 0.49833 0.78044 0.0
C3460 C 0.89832 0.48206 0.77046 0.0
C3461 C 0.89873 0.46528 0.79676 0.0
C3462 C 0.93521 0.51414 0.82993 0.0
C3463 C 0.88512 0.4823 0.73171 0.0
C3464 C 0.89797 0.54884 0.73391 0.0
C3465 C 0.91012 0.55009 0.69768 0.0
C3466 C 0.89762 0.53209 0.76034 0.0
C3467 C 0.91026 0.5162 0.75164 0.0
C3468 C 0.92258 0.51737 0.71497 0.0
C3469 C 0.92217 0.53411 0.68818 0.0
C3470 C 0.8837 0.53148 0.79782 0.0
C3471 C 0.93666 0.50114 0.7047 0.0
H3472 H 0.93076 0.47999 0.87299 0.0
H3473 H 0.88999 0.45273 0.78797 0.0
H3474 H 0.94566 0.51683 0.80339 0.0
H3475 H 0.92663 0.5277 0.83432 0.0
H3476 H 0.94356 0.51124 0.8598 0.0
H3477 H 0.87595 0.46899 0.72955 0.0
H3478 H 0.87542 0.49524 0.73285 0.0
H3479 H 0.89396 0.48346 0.70204 0.0
H3480 H 0.88868 0.56112 0.74174 0.0
H3481 H 0.93191 0.53505 0.66088 0.0
H3482 H 0.89199 0.53057 0.82829 0.0
H3483 H 0.87442 0.51826 0.7958 0.0
H3484 H 0.87411 0.54452 0.79908 0.0
H3485 H 0.94656 0.49871 0.73236 0.0
H3486 H 0.9456 0.50434 0.67582 0.0
H3487 H 0.9286 0.48735 0.69927 0.0
C3488 C 0.29861 0.33934 0.04741 0.0
C3489 C 0.30084 0.35134 0.08368 0.0
C3490 C 0.28171 0.33997 0.02161 0.0
C3491 C 0.26659 0.35339 0.03108 0.0
C3492 C 0.2688 0.36573 0.06748 0.0
C3493 C 0.2857 0.36435 0.09367 0.0
C3494 C 0.27994 0.32596 0.98447 0.0
C3495 C 0.25337 0.38057 0.0785 0.0
C3496 C 0.23 0.36376 0.93943 0.0
C3497 C 0.21382 0.35251 0.95166 0.0
C3498 C 0.24698 0.3647 0.96546 0.0
C3499 C 0.24818 0.35367 1.00409 0.0
C3500 C 0.23198 0.34203 1.01594 0.0
C3501 C 0.21507 0.34183 0.99014 0.0
C3502 C 0.26362 0.37766 0.95178 0.0
C3503 C 0.23259 0.32941 0.05563 0.0
H3504 H 0.31008 0.32908 0.03945 0.0
H3505 H 0.28728 0.37381 0.12129 0.0
H3506 H 0.26671 0.31683 0.98846 0.0
H3507 H 0.27828 0.33413 0.954 0.0
H3508 H 0.2928 0.31619 0.98165 0.0
H3509 H 0.25766 0.38987 0.10609 0.0
H3510 H 0.25049 0.39005 0.05035 0.0
H3511 H 0.23951 0.37308 0.0865 0.0
H3512 H 0.22923 0.37217 0.91005 0.0
H3513 H 0.20281 0.33291 0.9999 0.0
H3514 H 0.27674 0.3687 0.94521 0.0
H3515 H 0.2674 0.38787 0.97811 0.0
H3516 H 0.26008 0.38624 0.92257 0.0
H3517 H 0.24495 0.31902 0.05346 0.0
H3518 H 0.21892 0.32099 0.06026 0.0
H3519 H 0.23505 0.33856 0.08444 0.0
C3520 C 0.39704 0.54878 0.80005 0.0
C3521 C 0.40905 0.54981 0.83654 0.0
C3522 C 0.39652 0.53205 0.77364 0.0
C3523 C 0.40887 0.51595 0.7826 0.0
C3524 C 0.42105 0.5169 0.81953 0.0
C3525 C 0.42078 0.53363 0.84631 0.0
C3526 C 0.38275 0.53167 0.73588 0.0
C3527 C 0.43484 0.50045 0.83007 0.0
C3528 C 0.39696 0.46519 0.73717 0.0
C3529 C 0.40862 0.46415 0.70015 0.0
C3530 C 0.39659 0.48197 0.76344 0.0
C3531 C 0.40875 0.49812 0.75375 0.0
C3532 C 0.42055 0.49718 0.71623 0.0
C3533 C 0.42014 0.48038 0.68964 0.0
C3534 C 0.3832 0.48234 0.80186 0.0
C3535 C 0.43413 0.51368 0.70487 0.0
H3536 H 0.388 0.56122 0.79202 0.0
H3537 H 0.43042 0.53439 0.87381 0.0
H3538 H 0.39115 0.53071 0.70557 0.0
H3539 H 0.3733 0.51857 0.73763 0.0
H3540 H 0.37333 0.54483 0.73452 0.0
H3541 H 0.44369 0.50349 0.85915 0.0
H3542 H 0.42655 0.48677 0.83528 0.0
H3543 H 0.44483 0.4979 0.80263 0.0
H3544 H 0.38807 0.45272 0.74576 0.0
H3545 H 0.42951 0.47962 0.6617 0.0
H3546 H 0.37371 0.49542 0.80058 0.0
H3547 H 0.39191 0.48331 0.83175 0.0
H3548 H 0.37383 0.46916 0.8037 0.0
H3549 H 0.42574 0.52735 0.70037 0.0
H3550 H 0.44257 0.51071 0.67515 0.0
H3551 H 0.44451 0.51619 0.73163 0.0
C3552 C 0.29934 0.67536 0.49064 0.0
C3553 C 0.30111 0.66393 0.45333 0.0
C3554 C 0.28246 0.67491 0.51652 0.0
C3555 C 0.26682 0.66229 0.506 0.0
C3556 C 0.26853 0.65054 0.46852 0.0
C3557 C 0.28547 0.65171 0.44236 0.0
C3558 C 0.28127 0.68829 0.5549 0.0
C3559 C 0.25252 0.63656 0.45628 0.0
C3560 C 0.22984 0.65185 0.59694 0.0
C3561 C 0.21415 0.66401 0.58582 0.0
C3562 C 0.24675 0.65064 0.57073 0.0
C3563 C 0.24841 0.66229 0.53306 0.0
C3564 C 0.23271 0.67484 0.52238 0.0
C3565 C 0.21585 0.67532 0.5483 0.0
C3566 C 0.26283 0.63674 0.58316 0.0
C3567 C 0.23383 0.68811 0.48378 0.0
H3568 H 0.31117 0.68503 0.49944 0.0
H3569 H 0.28665 0.6427 0.41393 0.0
H3570 H 0.26844 0.69804 0.55176 0.0
H3571 H 0.27925 0.67964 0.58462 0.0
H3572 H 0.29454 0.69742 0.55859 0.0
H3573 H 0.25642 0.6276 0.42788 0.0
H3574 H 0.24926 0.6267 0.4836 0.0
H3575 H 0.23897 0.64475 0.449 0.0
H3576 H 0.2287 0.64293 0.62553 0.0
H3577 H 0.20398 0.68494 0.53939 0.0
H3578 H 0.27634 0.64499 0.59035 0.0
H3579 H 0.26613 0.62684 0.55597 0.0
H3580 H 0.25895 0.62782 0.61167 0.0
H3581 H 0.24662 0.69793 0.48677 0.0
H3582 H 0.22053 0.69718 0.47994 0.0
H3583 H 0.23591 0.67939 0.4542 0.0
C3584 C 0.11386 0.47805 0.34371 0.0
C3585 C 0.09996 0.46357 0.33487 0.0
C3586 C 0.1154 0.49501 0.31773 0.0
C3587 C 0.10236 0.49797 0.28276 0.0
C3588 C 0.08805 0.48354 0.27455 0.0
C3589 C 0.08724 0.46656 0.30007 0.0
C3590 C 0.13117 0.50968 0.32737 0.0
C3591 C 0.07331 0.48613 0.23901 0.0
C3592 C 0.09208 0.55006 0.24354 0.0
C3593 C 0.10188 0.55096 0.20387 0.0
C3594 C 0.09223 0.53312 0.26924 0.0
C3595 C 0.10289 0.51647 0.25602 0.0
C3596 C 0.11307 0.51731 0.21623 0.0
C3597 C 0.11221 0.53437 0.19041 0.0
C3598 C 0.08055 0.53294 0.31031 0.0
C3599 C 0.12496 0.50017 0.20099 0.0
H3600 H 0.12389 0.47587 0.37014 0.0
H3601 H 0.07632 0.4556 0.293 0.0
H3602 H 0.1402 0.51214 0.29833 0.0
H3603 H 0.12453 0.52388 0.3361 0.0
H3604 H 0.14079 0.50489 0.35402 0.0
H3605 H 0.06288 0.47378 0.23712 0.0
H3606 H 0.06495 0.49979 0.2441 0.0
H3607 H 0.08086 0.48749 0.2077 0.0
H3608 H 0.08384 0.56261 0.25433 0.0
H3609 H 0.11992 0.53484 0.16009 0.0
H3610 H 0.09021 0.52982 0.338 0.0
H3611 H 0.06948 0.52116 0.30904 0.0
H3612 H 0.07298 0.547 0.31619 0.0
H3613 H 0.13549 0.49575 0.22623 0.0
H3614 H 0.13311 0.50346 0.17107 0.0
H3615 H 0.11527 0.48752 0.19499 0.0
loop_
_geom_bond_atom_site_label_1
_geom_bond_atom_site_label_2
_geom_bond_distance
_geom_bond_site_symmetry_2
_ccdc_geom_bond_type
C0 C1 1.351 . S
C0 N3 1.368 . S
C0 H5 0.931 . S
C1 C0 1.351 . S
C1 N2 1.373 . S
C1 H29 0.930 . S
N2 C1 1.373 . S
N2 C4 1.340 . S
N3 C0 1.368 . S
N3 C4 1.321 . S
N3 Co6 2.135 . S
C4 N2 1.340 . S
C4 N3 1.321 . S
C4 H28 0.930 . S
H5 C0 0.931 . S
Co6 N3 2.135 . S
Co6 N9 2.121 . S
Co6 O14 2.055 . S
Co6 O17 2.039 . S
Co6 N20 2.140 . S
C7 O8 1.227 . S
C7 O17 1.265 . S
O8 C7 1.227 . S
N9 Co6 2.121 . S
N9 C11 1.375 . S
N9 C12 1.313 . S
C10 C11 1.338 . S
C10 N13 1.377 . S
C10 H30 0.930 . S
C11 N9 1.375 . S
C11 C10 1.338 . S
C11 H15 0.931 . S
C12 N9 1.313 . S
C12 N13 1.344 . S
C12 H16 0.930 . S
N13 C10 1.377 . S
N13 C12 1.344 . S
O14 Co6 2.055 . S
O14 C18 1.253 . S
H15 C11 0.931 . S
H16 C12 0.930 . S
O17 Co6 2.039 . S
O17 C7 1.265 . S
C18 O14 1.253 . S
C18 O19 1.227 . S
O19 C18 1.227 . S
N20 Co6 2.140 . S
N20 C23 1.346 . S
N20 C24 1.345 . S
C21 C22 1.387 . S
C21 C25 1.391 . S
C22 C21 1.387 . S
C22 C23 1.369 . S
C22 H31 0.929 . S
C23 N20 1.346 . S
C23 C22 1.369 . S
C23 H26 0.928 . S
C24 N20 1.345 . S
C24 C25 1.371 . S
C24 H27 0.931 . S
C25 C21 1.391 . S
C25 C24 1.371 . S
C25 H32 0.930 . S
H26 C23 0.928 . S
H27 C24 0.931 . S
H28 C4 0.930 . S
H29 C1 0.930 . S
H30 C10 0.930 . S
H31 C22 0.929 . S
H32 C25 0.930 . S
C33 C34 1.351 . S
C33 N36 1.368 . S
C33 H38 0.931 . S
C34 C33 1.351 . S
C34 N35 1.373 . S
C34 H62 0.930 . S
N35 C34 1.373 . S
N35 C37 1.340 . S
N36 C33 1.368 . S
N36 C37 1.321 . S
N36 Co39 2.135 . S
C37 N35 1.340 . S
C37 N36 1.321 . S
C37 H61 0.930 . S
H38 C33 0.931 . S
Co39 N36 2.135 . S
Co39 N42 2.121 . S
Co39 O47 2.055 . S
Co39 O50 2.039 . S
Co39 N53 2.140 . S
C40 O41 1.227 . S
C40 O50 1.265 . S
O41 C40 1.227 . S
N42 Co39 2.121 . S
N42 C44 1.375 . S
N42 C45 1.313 . S
C43 C44 1.338 . S
C43 N46 1.377 . S
C43 H63 0.930 . S
C44 N42 1.375 . S
C44 C43 1.338 . S
C44 H48 0.931 . S
C45 N42 1.313 . S
C45 N46 1.344 . S
C45 H49 0.930 . S
N46 C43 1.377 . S
N46 C45 1.344 . S
O47 Co39 2.055 . S
O47 C51 1.253 . S
H48 C44 0.931 . S
H49 C45 0.930 . S
O50 Co39 2.039 . S
O50 C40 1.265 . S
C51 O47 1.253 . S
C51 O52 1.227 . S
O52 C51 1.227 . S
N53 Co39 2.140 . S
N53 C56 1.346 . S
N53 C57 1.345 . S
C54 C55 1.387 . S
C54 C58 1.391 . S
C55 C54 1.387 . S
C55 C56 1.369 . S
C55 H64 0.929 . S
C56 N53 1.346 . S
C56 C55 1.369 . S
C56 H59 0.928 . S
C57 N53 1.345 . S
C57 C58 1.371 . S
C57 H60 0.931 . S
C58 C54 1.391 . S
C58 C57 1.371 . S
C58 H65 0.930 . S
H59 C56 0.928 . S
H60 C57 0.931 . S
H61 C37 0.930 . S
H62 C34 0.930 . S
H63 C43 0.930 . S
H64 C55 0.929 . S
H65 C58 0.930 . S
C66 C67 1.351 . S
C66 N69 1.368 . S
C66 H71 0.931 . S
C67 C66 1.351 . S
C67 N68 1.373 . S
C67 H95 0.930 . S
N68 C67 1.373 . S
N68 C70 1.340 . S
N69 C66 1.368 . S
N69 C70 1.321 . S
N69 Co72 2.135 . S
C70 N68 1.340 . S
C70 N69 1.321 . S
C70 H94 0.930 . S
H71 C66 0.931 . S
Co72 N69 2.135 . S
Co72 N75 2.121 . S
Co72 O80 2.055 . S
Co72 O83 2.039 . S
Co72 N86 2.140 . S
C73 O74 1.227 . S
C73 O83 1.265 . S
O74 C73 1.227 . S
N75 Co72 2.121 . S
N75 C77 1.375 . S
N75 C78 1.313 . S
C76 C77 1.338 . S
C76 N79 1.377 . S
C76 H96 0.930 . S
C77 N75 1.375 . S
C77 C76 1.338 . S
C77 H81 0.931 . S
C78 N75 1.313 . S
C78 N79 1.344 . S
C78 H82 0.930 . S
N79 C76 1.377 . S
N79 C78 1.344 . S
O80 Co72 2.055 . S
O80 C84 1.253 . S
H81 C77 0.931 . S
H82 C78 0.930 . S
O83 Co72 2.039 . S
O83 C73 1.265 . S
C84 O80 1.253 . S
C84 O85 1.227 . S
O85 C84 1.227 . S
N86 Co72 2.140 . S
N86 C89 1.346 . S
N86 C90 1.345 . S
C87 C88 1.387 . S
C87 C91 1.391 . S
C88 C87 1.387 . S
C88 C89 1.369 . S
C88 H97 0.929 . S
C89 N86 1.346 . S
C89 C88 1.369 . S
C89 H92 0.928 . S
C90 N86 1.345 . S
C90 C91 1.371 . S
C90 H93 0.931 . S
C91 C87 1.391 . S
C91 C90 1.371 . S
C91 H98 0.930 . S
H92 C89 0.928 . S
H93 C90 0.931 . S
H94 C70 0.930 . S
H95 C67 0.930 . S
H96 C76 0.930 . S
H97 C88 0.929 . S
H98 C91 0.930 . S
C99 C100 1.350 1_554 S
C99 N102 1.371 . S
C99 H104 0.929 1_554 S
C100 C99 1.350 1_556 S
C100 N101 1.373 1_556 S
C100 H128 0.930 . S
N101 C100 1.373 1_554 S
N101 C103 1.340 . S
N102 C99 1.371 . S
N102 C103 1.321 . S
N102 Co105 2.135 . S
C103 N101 1.340 . S
C103 N102 1.321 . S
C103 H127 0.930 . S
H104 C99 0.929 1_556 S
Co105 N102 2.135 . S
Co105 N108 2.121 . S
Co105 O113 2.055 . S
Co105 O116 2.039 . S
Co105 N119 2.140 . S
C106 O107 1.227 . S
C106 O116 1.265 . S
O107 C106 1.227 . S
N108 Co105 2.121 . S
N108 C110 1.375 . S
N108 C111 1.313 . S
C109 C110 1.338 . S
C109 N112 1.377 . S
C109 H129 0.930 . S
C110 N108 1.375 . S
C110 C109 1.338 . S
C110 H114 0.931 . S
C111 N108 1.313 . S
C111 N112 1.344 . S
C111 H115 0.930 . S
N112 C109 1.377 . S
N112 C111 1.344 . S
O113 Co105 2.055 . S
O113 C117 1.253 . S
H114 C110 0.931 . S
H115 C111 0.930 . S
O116 Co105 2.039 . S
O116 C106 1.265 . S
C117 O113 1.253 . S
C117 O118 1.227 . S
O118 C117 1.227 . S
N119 Co105 2.140 . S
N119 C122 1.346 . S
N119 C123 1.345 . S
C120 C121 1.387 . S
C120 C124 1.391 . S
C121 C120 1.387 . S
C121 C122 1.369 . S
C121 H130 0.929 . S
C122 N119 1.346 . S
C122 C121 1.369 . S
C122 H125 0.928 . S
C123 N119 1.345 . S
C123 C124 1.371 . S
C123 H126 0.931 . S
C124 C120 1.391 . S
C124 C123 1.371 . S
C124 H131 0.930 . S
H125 C122 0.928 . S
H126 C123 0.931 . S
H127 C103 0.930 . S
H128 C100 0.930 . S
H129 C109 0.930 . S
H130 C121 0.929 . S
H131 C124 0.930 . S
C132 C133 1.351 . S
C132 N135 1.368 . S
C132 H137 0.931 . S
C133 C132 1.351 . S
C133 N134 1.373 . S
C133 H161 0.930 . S
N134 C133 1.373 . S
N134 C136 1.340 . S
N135 C132 1.368 . S
N135 C136 1.321 . S
N135 Co138 2.135 . S
C136 N134 1.340 . S
C136 N135 1.321 . S
C136 H160 0.930 . S
H137 C132 0.931 . S
Co138 N135 2.135 . S
Co138 N141 2.121 . S
Co138 O146 2.055 . S
Co138 O149 2.039 . S
Co138 N152 2.140 . S
C139 O140 1.227 . S
C139 O149 1.265 . S
O140 C139 1.227 . S
N141 Co138 2.121 . S
N141 C143 1.375 . S
N141 C144 1.313 . S
C142 C143 1.338 . S
C142 N145 1.377 . S
C142 H162 0.930 . S
C143 N141 1.375 . S
C143 C142 1.338 . S
C143 H147 0.931 . S
C144 N141 1.313 . S
C144 N145 1.344 . S
C144 H148 0.930 . S
N145 C142 1.377 . S
N145 C144 1.344 . S
O146 Co138 2.055 . S
O146 C150 1.253 . S
H147 C143 0.931 . S
H148 C144 0.930 . S
O149 Co138 2.039 . S
O149 C139 1.265 . S
C150 O146 1.253 . S
C150 O151 1.227 . S
O151 C150 1.227 . S
N152 Co138 2.140 . S
N152 C155 1.346 . S
N152 C156 1.345 . S
C153 C154 1.387 . S
C153 C157 1.391 . S
C154 C153 1.387 . S
C154 C155 1.369 . S
C154 H163 0.929 . S
C155 N152 1.346 . S
C155 C154 1.369 . S
C155 H158 0.928 . S
C156 N152 1.345 . S
C156 C157 1.371 . S
C156 H159 0.931 . S
C157 C153 1.391 . S
C157 C156 1.371 . S
C157 H164 0.930 . S
H158 C155 0.928 . S
H159 C156 0.931 . S
H160 C136 0.930 . S
H161 C133 0.930 . S
H162 C142 0.930 . S
H163 C154 0.929 . S
H164 C157 0.930 . S
C165 C166 1.351 . S
C165 N168 1.368 . S
C165 H170 0.931 . S
C166 C165 1.351 . S
C166 N167 1.373 . S
C166 H194 0.930 . S
N167 C166 1.373 . S
N167 C169 1.340 . S
N168 C165 1.368 . S
N168 C169 1.321 . S
N168 Co171 2.135 . S
C169 N167 1.340 . S
C169 N168 1.321 . S
C169 H193 0.930 . S
H170 C165 0.931 . S
Co171 N168 2.135 . S
Co171 N174 2.121 . S
Co171 O179 2.055 . S
Co171 O182 2.039 . S
Co171 N185 2.140 . S
C172 O173 1.227 . S
C172 O182 1.265 . S
O173 C172 1.227 . S
N174 Co171 2.121 . S
N174 C176 1.375 . S
N174 C177 1.313 . S
C175 C176 1.338 . S
C175 N178 1.377 . S
C175 H195 0.930 . S
C176 N174 1.375 . S
C176 C175 1.338 . S
C176 H180 0.931 . S
C177 N174 1.313 . S
C177 N178 1.344 . S
C177 H181 0.930 . S
N178 C175 1.377 . S
N178 C177 1.344 . S
O179 Co171 2.055 . S
O179 C183 1.253 . S
H180 C176 0.931 . S
H181 C177 0.930 . S
O182 Co171 2.039 . S
O182 C172 1.265 . S
C183 O179 1.253 . S
C183 O184 1.227 . S
O184 C183 1.227 . S
N185 Co171 2.140 . S
N185 C188 1.346 . S
N185 C189 1.345 . S
C186 C187 1.387 . S
C186 C190 1.391 . S
C187 C186 1.387 . S
C187 C188 1.369 . S
C187 H196 0.929 . S
C188 N185 1.346 . S
C188 C187 1.369 . S
C188 H191 0.928 . S
C189 N185 1.345 . S
C189 C190 1.371 . S
C189 H192 0.931 . S
C190 C186 1.391 . S
C190 C189 1.371 . S
C190 H197 0.930 . S
H191 C188 0.928 . S
H192 C189 0.931 . S
H193 C169 0.930 . S
H194 C166 0.930 . S
H195 C175 0.930 . S
H196 C187 0.929 . S
H197 C190 0.930 . S
C198 C199 1.351 . S
C198 N201 1.368 . S
C198 H203 0.931 . S
C199 C198 1.351 . S
C199 N200 1.373 . S
C199 H227 0.930 . S
N200 C199 1.373 . S
N200 C202 1.340 . S
N201 C198 1.368 . S
N201 C202 1.321 . S
N201 Co204 2.135 . S
C202 N200 1.340 . S
C202 N201 1.321 . S
C202 H226 0.930 . S
H203 C198 0.931 . S
Co204 N201 2.135 . S
Co204 N207 2.121 . S
Co204 O212 2.055 . S
Co204 O215 2.039 . S
Co204 N218 2.140 . S
C205 O206 1.227 . S
C205 O215 1.265 . S
O206 C205 1.227 . S
N207 Co204 2.121 . S
N207 C209 1.375 . S
N207 C210 1.313 . S
C208 C209 1.338 . S
C208 N211 1.377 . S
C208 H228 0.930 . S
C209 N207 1.375 . S
C209 C208 1.338 . S
C209 H213 0.931 . S
C210 N207 1.313 . S
C210 N211 1.344 . S
C210 H214 0.930 . S
N211 C208 1.377 . S
N211 C210 1.344 . S
O212 Co204 2.055 . S
O212 C216 1.253 . S
H213 C209 0.931 . S
H214 C210 0.930 . S
O215 Co204 2.039 . S
O215 C205 1.265 . S
C216 O212 1.253 . S
C216 O217 1.227 . S
O217 C216 1.227 . S
N218 Co204 2.140 . S
N218 C221 1.346 . S
N218 C222 1.345 . S
C219 C220 1.387 . S
C219 C223 1.391 . S
C220 C219 1.387 . S
C220 C221 1.369 . S
C220 H229 0.929 . S
C221 N218 1.346 . S
C221 C220 1.369 . S
C221 H224 0.928 . S
C222 N218 1.345 . S
C222 C223 1.371 . S
C222 H225 0.931 . S
C223 C219 1.391 . S
C223 C222 1.371 . S
C223 H230 0.930 . S
H224 C221 0.928 . S
H225 C222 0.931 . S
H226 C202 0.930 . S
H227 C199 0.930 . S
H228 C208 0.930 . S
H229 C220 0.929 . S
H230 C223 0.930 . S
C231 C232 1.350 1_556 S
C231 N234 1.371 . S
C231 H236 0.929 1_556 S
C232 C231 1.350 1_554 S
C232 N233 1.373 1_554 S
C232 H260 0.930 . S
N233 C232 1.373 1_556 S
N233 C235 1.340 . S
N234 C231 1.371 . S
N234 C235 1.321 . S
N234 Co237 2.135 . S
C235 N233 1.340 . S
C235 N234 1.321 . S
C235 H259 0.930 . S
H236 C231 0.929 1_554 S
Co237 N234 2.135 . S
Co237 N240 2.121 . S
Co237 O245 2.055 . S
Co237 O248 2.039 . S
Co237 N251 2.140 . S
C238 O239 1.227 . S
C238 O248 1.265 . S
O239 C238 1.227 . S
N240 Co237 2.121 . S
N240 C242 1.375 . S
N240 C243 1.313 . S
C241 C242 1.338 . S
C241 N244 1.377 . S
C241 H261 0.930 . S
C242 N240 1.375 . S
C242 C241 1.338 . S
C242 H246 0.931 . S
C243 N240 1.313 . S
C243 N244 1.344 . S
C243 H247 0.930 . S
N244 C241 1.377 . S
N244 C243 1.344 . S
O245 Co237 2.055 . S
O245 C249 1.253 . S
H246 C242 0.931 . S
H247 C243 0.930 . S
O248 Co237 2.039 . S
O248 C238 1.265 . S
C249 O245 1.253 . S
C249 O250 1.227 . S
O250 C249 1.227 . S
N251 Co237 2.140 . S
N251 C254 1.346 . S
N251 C255 1.345 . S
C252 C253 1.387 . S
C252 C256 1.391 . S
C253 C252 1.387 . S
C253 C254 1.369 . S
C253 H262 0.929 . S
C254 N251 1.346 . S
C254 C253 1.369 . S
C254 H257 0.928 . S
C255 N251 1.345 . S
C255 C256 1.371 . S
C255 H258 0.931 . S
C256 C252 1.391 . S
C256 C255 1.371 . S
C256 H263 0.930 . S
H257 C254 0.928 . S
H258 C255 0.931 . S
H259 C235 0.930 . S
H260 C232 0.930 . S
H261 C241 0.930 . S
H262 C253 0.929 . S
H263 C256 0.930 . S
C264 C265 1.351 . S
C264 N267 1.368 . S
C264 H269 0.931 . S
C265 C264 1.351 . S
C265 N266 1.373 . S
C265 H293 0.930 . S
N266 C265 1.373 . S
N266 C268 1.340 . S
N267 C264 1.368 . S
N267 C268 1.321 . S
N267 Co270 2.135 . S
C268 N266 1.340 . S
C268 N267 1.321 . S
C268 H292 0.930 . S
H269 C264 0.931 . S
Co270 N267 2.135 . S
Co270 N273 2.121 . S
Co270 O278 2.055 . S
Co270 O281 2.039 . S
Co270 N284 2.140 . S
C271 O272 1.227 . S
C271 O281 1.265 . S
O272 C271 1.227 . S
N273 Co270 2.121 . S
N273 C275 1.375 . S
N273 C276 1.313 . S
C274 C275 1.338 . S
C274 N277 1.377 . S
C274 H294 0.930 . S
C275 N273 1.375 . S
C275 C274 1.338 . S
C275 H279 0.931 . S
C276 N273 1.313 . S
C276 N277 1.344 . S
C276 H280 0.930 . S
N277 C274 1.377 . S
N277 C276 1.344 . S
O278 Co270 2.055 . S
O278 C282 1.253 . S
H279 C275 0.931 . S
H280 C276 0.930 . S
O281 Co270 2.039 . S
O281 C271 1.265 . S
C282 O278 1.253 . S
C282 O283 1.227 . S
O283 C282 1.227 . S
N284 Co270 2.140 . S
N284 C287 1.346 . S
N284 C288 1.345 . S
C285 C286 1.387 . S
C285 C289 1.391 . S
C286 C285 1.387 . S
C286 C287 1.369 . S
C286 H295 0.929 . S
C287 N284 1.346 . S
C287 C286 1.369 . S
C287 H290 0.928 . S
C288 N284 1.345 . S
C288 C289 1.371 . S
C288 H291 0.931 . S
C289 C285 1.391 . S
C289 C288 1.371 . S
C289 H296 0.930 . S
H290 C287 0.928 . S
H291 C288 0.931 . S
H292 C268 0.930 . S
H293 C265 0.930 . S
H294 C274 0.930 . S
H295 C286 0.929 . S
H296 C289 0.930 . S
C297 C298 1.351 . S
C297 N300 1.368 . S
C297 H302 0.931 . S
C298 C297 1.351 . S
C298 N299 1.373 . S
C298 H326 0.930 . S
N299 C298 1.373 . S
N299 C301 1.340 . S
N300 C297 1.368 . S
N300 C301 1.321 . S
N300 Co303 2.135 . S
C301 N299 1.340 . S
C301 N300 1.321 . S
C301 H325 0.930 . S
H302 C297 0.931 . S
Co303 N300 2.135 . S
Co303 N306 2.121 . S
Co303 O311 2.055 . S
Co303 O314 2.039 . S
Co303 N317 2.140 . S
C304 O305 1.227 . S
C304 O314 1.265 . S
O305 C304 1.227 . S
N306 Co303 2.121 . S
N306 C308 1.375 . S
N306 C309 1.313 . S
C307 C308 1.338 . S
C307 N310 1.377 . S
C307 H327 0.930 . S
C308 N306 1.375 . S
C308 C307 1.338 . S
C308 H312 0.931 . S
C309 N306 1.313 . S
C309 N310 1.344 . S
C309 H313 0.930 . S
N310 C307 1.377 . S
N310 C309 1.344 . S
O311 Co303 2.055 . S
O311 C315 1.253 . S
H312 C308 0.931 . S
H313 C309 0.930 . S
O314 Co303 2.039 . S
O314 C304 1.265 . S
C315 O311 1.253 . S
C315 O316 1.227 . S
O316 C315 1.227 . S
N317 Co303 2.140 . S
N317 C320 1.346 . S
N317 C321 1.345 . S
C318 C319 1.387 . S
C318 C322 1.391 . S
C319 C318 1.387 . S
C319 C320 1.369 . S
C319 H328 0.929 . S
C320 N317 1.346 . S
C320 C319 1.369 . S
C320 H323 0.928 . S
C321 N317 1.345 . S
C321 C322 1.371 . S
C321 H324 0.931 . S
C322 C318 1.391 . S
C322 C321 1.371 . S
C322 H329 0.930 . S
H323 C320 0.928 . S
H324 C321 0.931 . S
H325 C301 0.930 . S
H326 C298 0.930 . S
H327 C307 0.930 . S
H328 C319 0.929 . S
H329 C322 0.930 . S
C330 C331 1.351 . S
C330 N333 1.368 . S
C330 H335 0.931 . S
C331 C330 1.351 . S
C331 N332 1.373 . S
C331 H359 0.930 . S
N332 C331 1.373 . S
N332 C334 1.340 . S
N333 C330 1.368 . S
N333 C334 1.321 . S
N333 Co336 2.135 . S
C334 N332 1.340 . S
C334 N333 1.321 . S
C334 H358 0.930 . S
H335 C330 0.931 . S
Co336 N333 2.135 . S
Co336 N339 2.121 . S
Co336 O344 2.055 . S
Co336 O347 2.039 . S
Co336 N350 2.140 . S
C337 O338 1.227 . S
C337 O347 1.265 . S
O338 C337 1.227 . S
N339 Co336 2.121 . S
N339 C341 1.375 . S
N339 C342 1.313 . S
C340 C341 1.338 . S
C340 N343 1.377 . S
C340 H360 0.930 . S
C341 N339 1.375 . S
C341 C340 1.338 . S
C341 H345 0.931 . S
C342 N339 1.313 . S
C342 N343 1.344 . S
C342 H346 0.930 . S
N343 C340 1.377 . S
N343 C342 1.344 . S
O344 Co336 2.055 . S
O344 C348 1.253 . S
H345 C341 0.931 . S
H346 C342 0.930 . S
O347 Co336 2.039 . S
O347 C337 1.265 . S
C348 O344 1.253 . S
C348 O349 1.227 . S
O349 C348 1.227 . S
N350 Co336 2.140 . S
N350 C353 1.346 . S
N350 C354 1.345 . S
C351 C352 1.387 . S
C351 C355 1.391 . S
C352 C351 1.387 . S
C352 C353 1.369 . S
C352 H361 0.929 . S
C353 N350 1.346 . S
C353 C352 1.369 . S
C353 H356 0.928 . S
C354 N350 1.345 . S
C354 C355 1.371 . S
C354 H357 0.931 . S
C355 C351 1.391 . S
C355 C354 1.371 . S
C355 H362 0.930 . S
H356 C353 0.928 . S
H357 C354 0.931 . S
H358 C334 0.930 . S
H359 C331 0.930 . S
H360 C340 0.930 . S
H361 C352 0.929 . S
H362 C355 0.930 . S
C363 C364 1.350 1_556 S
C363 N366 1.371 . S
C363 H368 0.929 1_556 S
C364 C363 1.350 1_554 S
C364 N365 1.373 1_554 S
C364 H392 0.930 . S
N365 C364 1.373 1_556 S
N365 C367 1.340 . S
N366 C363 1.371 . S
N366 C367 1.321 . S
N366 Co369 2.135 . S
C367 N365 1.340 . S
C367 N366 1.321 . S
C367 H391 0.930 . S
H368 C363 0.929 1_554 S
Co369 N366 2.135 . S
Co369 N372 2.121 . S
Co369 O377 2.055 . S
Co369 O380 2.039 . S
Co369 N383 2.140 . S
C370 O371 1.227 . S
C370 O380 1.265 . S
O371 C370 1.227 . S
N372 Co369 2.121 . S
N372 C374 1.375 . S
N372 C375 1.313 . S
C373 C374 1.338 . S
C373 N376 1.377 . S
C373 H393 0.930 . S
C374 N372 1.375 . S
C374 C373 1.338 . S
C374 H378 0.931 . S
C375 N372 1.313 . S
C375 N376 1.344 . S
C375 H379 0.930 . S
N376 C373 1.377 . S
N376 C375 1.344 . S
O377 Co369 2.055 . S
O377 C381 1.253 . S
H378 C374 0.931 . S
H379 C375 0.930 . S
O380 Co369 2.039 . S
O380 C370 1.265 . S
C381 O377 1.253 . S
C381 O382 1.227 . S
O382 C381 1.227 . S
N383 Co369 2.140 . S
N383 C386 1.346 . S
N383 C387 1.345 . S
C384 C385 1.387 . S
C384 C388 1.391 . S
C385 C384 1.387 . S
C385 C386 1.369 . S
C385 H394 0.929 . S
C386 N383 1.346 . S
C386 C385 1.369 . S
C386 H389 0.928 . S
C387 N383 1.345 . S
C387 C388 1.371 . S
C387 H390 0.931 . S
C388 C384 1.391 . S
C388 C387 1.371 . S
C388 H395 0.930 . S
H389 C386 0.928 . S
H390 C387 0.931 . S
H391 C367 0.930 . S
H392 C364 0.930 . S
H393 C373 0.930 . S
H394 C385 0.929 . S
H395 C388 0.930 . S
C396 C397 1.351 . S
C396 N399 1.368 . S
C396 H401 0.931 . S
C397 C396 1.351 . S
C397 N398 1.373 . S
C397 H425 0.930 . S
N398 C397 1.373 . S
N398 C400 1.340 . S
N399 C396 1.368 . S
N399 C400 1.321 . S
N399 Co402 2.135 . S
C400 N398 1.340 . S
C400 N399 1.321 . S
C400 H424 0.930 . S
H401 C396 0.931 . S
Co402 N399 2.135 . S
Co402 N405 2.121 . S
Co402 O410 2.055 . S
Co402 O413 2.039 . S
Co402 N416 2.140 . S
C403 O404 1.227 . S
C403 O413 1.265 . S
O404 C403 1.227 . S
N405 Co402 2.121 . S
N405 C407 1.375 . S
N405 C408 1.313 . S
C406 C407 1.338 . S
C406 N409 1.377 . S
C406 H426 0.930 . S
C407 N405 1.375 . S
C407 C406 1.338 . S
C407 H411 0.931 . S
C408 N405 1.313 . S
C408 N409 1.344 . S
C408 H412 0.930 . S
N409 C406 1.377 . S
N409 C408 1.344 . S
O410 Co402 2.055 . S
O410 C414 1.253 . S
H411 C407 0.931 . S
H412 C408 0.930 . S
O413 Co402 2.039 . S
O413 C403 1.265 . S
C414 O410 1.253 . S
C414 O415 1.227 . S
O415 C414 1.227 . S
N416 Co402 2.140 . S
N416 C419 1.346 . S
N416 C420 1.345 . S
C417 C418 1.387 . S
C417 C421 1.391 . S
C418 C417 1.387 . S
C418 C419 1.369 . S
C418 H427 0.929 . S
C419 N416 1.346 . S
C419 C418 1.369 . S
C419 H422 0.928 . S
C420 N416 1.345 . S
C420 C421 1.371 . S
C420 H423 0.931 . S
C421 C417 1.391 . S
C421 C420 1.371 . S
C421 H428 0.930 . S
H422 C419 0.928 . S
H423 C420 0.931 . S
H424 C400 0.930 . S
H425 C397 0.930 . S
H426 C406 0.930 . S
H427 C418 0.929 . S
H428 C421 0.930 . S
C429 C430 1.351 . S
C429 N432 1.368 . S
C429 H434 0.931 . S
C430 C429 1.351 . S
C430 N431 1.373 . S
C430 H458 0.930 . S
N431 C430 1.373 . S
N431 C433 1.340 . S
N432 C429 1.368 . S
N432 C433 1.321 . S
N432 Co435 2.135 . S
C433 N431 1.340 . S
C433 N432 1.321 . S
C433 H457 0.930 . S
H434 C429 0.931 . S
Co435 N432 2.135 . S
Co435 N438 2.121 . S
Co435 O443 2.055 . S
Co435 O446 2.039 . S
Co435 N449 2.140 . S
C436 O437 1.227 . S
C436 O446 1.265 . S
O437 C436 1.227 . S
N438 Co435 2.121 . S
N438 C440 1.375 . S
N438 C441 1.313 . S
C439 C440 1.338 . S
C439 N442 1.377 . S
C439 H459 0.930 . S
C440 N438 1.375 . S
C440 C439 1.338 . S
C440 H444 0.931 . S
C441 N438 1.313 . S
C441 N442 1.344 . S
C441 H445 0.930 . S
N442 C439 1.377 . S
N442 C441 1.344 . S
O443 Co435 2.055 . S
O443 C447 1.253 . S
H444 C440 0.931 . S
H445 C441 0.930 . S
O446 Co435 2.039 . S
O446 C436 1.265 . S
C447 O443 1.253 . S
C447 O448 1.227 . S
O448 C447 1.227 . S
N449 Co435 2.140 . S
N449 C452 1.346 . S
N449 C453 1.345 . S
C450 C451 1.387 . S
C450 C454 1.391 . S
C451 C450 1.387 . S
C451 C452 1.369 . S
C451 H460 0.929 . S
C452 N449 1.346 . S
C452 C451 1.369 . S
C452 H455 0.928 . S
C453 N449 1.345 . S
C453 C454 1.371 . S
C453 H456 0.931 . S
C454 C450 1.391 . S
C454 C453 1.371 . S
C454 H461 0.930 . S
H455 C452 0.928 . S
H456 C453 0.931 . S
H457 C433 0.930 . S
H458 C430 0.930 . S
H459 C439 0.930 . S
H460 C451 0.929 . S
H461 C454 0.930 . S
C462 C463 1.351 . S
C462 N465 1.368 . S
C462 H467 0.931 . S
C463 C462 1.351 . S
C463 N464 1.373 . S
C463 H491 0.930 . S
N464 C463 1.373 . S
N464 C466 1.340 . S
N465 C462 1.368 . S
N465 C466 1.321 . S
N465 Co468 2.135 . S
C466 N464 1.340 . S
C466 N465 1.321 . S
C466 H490 0.930 . S
H467 C462 0.931 . S
Co468 N465 2.135 . S
Co468 N471 2.121 . S
Co468 O476 2.055 . S
Co468 O479 2.039 . S
Co468 N482 2.140 . S
C469 O470 1.227 . S
C469 O479 1.265 . S
O470 C469 1.227 . S
N471 Co468 2.121 . S
N471 C473 1.375 . S
N471 C474 1.313 . S
C472 C473 1.338 . S
C472 N475 1.377 . S
C472 H492 0.930 . S
C473 N471 1.375 . S
C473 C472 1.338 . S
C473 H477 0.931 . S
C474 N471 1.313 . S
C474 N475 1.344 . S
C474 H478 0.930 . S
N475 C472 1.377 . S
N475 C474 1.344 . S
O476 Co468 2.055 . S
O476 C480 1.253 . S
H477 C473 0.931 . S
H478 C474 0.930 . S
O479 Co468 2.039 . S
O479 C469 1.265 . S
C480 O476 1.253 . S
C480 O481 1.227 . S
O481 C480 1.227 . S
N482 Co468 2.140 . S
N482 C485 1.346 . S
N482 C486 1.345 . S
C483 C484 1.387 . S
C483 C487 1.391 . S
C484 C483 1.387 . S
C484 C485 1.369 . S
C484 H493 0.929 . S
C485 N482 1.346 . S
C485 C484 1.369 . S
C485 H488 0.928 . S
C486 N482 1.345 . S
C486 C487 1.371 . S
C486 H489 0.931 . S
C487 C483 1.391 . S
C487 C486 1.371 . S
C487 H494 0.930 . S
H488 C485 0.928 . S
H489 C486 0.931 . S
H490 C466 0.930 . S
H491 C463 0.930 . S
H492 C472 0.930 . S
H493 C484 0.929 . S
H494 C487 0.930 . S
C495 C496 1.350 1_554 S
C495 N498 1.371 . S
C495 H500 0.929 1_554 S
C496 C495 1.350 1_556 S
C496 N497 1.373 1_556 S
C496 H524 0.930 . S
N497 C496 1.373 1_554 S
N497 C499 1.340 . S
N498 C495 1.371 . S
N498 C499 1.321 . S
N498 Co501 2.135 . S
C499 N497 1.340 . S
C499 N498 1.321 . S
C499 H523 0.930 . S
H500 C495 0.929 1_556 S
Co501 N498 2.135 . S
Co501 N504 2.121 . S
Co501 O509 2.055 . S
Co501 O512 2.039 . S
Co501 N515 2.140 . S
C502 O503 1.227 . S
C502 O512 1.265 . S
O503 C502 1.227 . S
N504 Co501 2.121 . S
N504 C506 1.375 . S
N504 C507 1.313 . S
C505 C506 1.338 . S
C505 N508 1.377 . S
C505 H525 0.930 . S
C506 N504 1.375 . S
C506 C505 1.338 . S
C506 H510 0.931 . S
C507 N504 1.313 . S
C507 N508 1.344 . S
C507 H511 0.930 . S
N508 C505 1.377 . S
N508 C507 1.344 . S
O509 Co501 2.055 . S
O509 C513 1.253 . S
H510 C506 0.931 . S
H511 C507 0.930 . S
O512 Co501 2.039 . S
O512 C502 1.265 . S
C513 O509 1.253 . S
C513 O514 1.227 . S
O514 C513 1.227 . S
N515 Co501 2.140 . S
N515 C518 1.346 . S
N515 C519 1.345 . S
C516 C517 1.387 . S
C516 C520 1.391 . S
C517 C516 1.387 . S
C517 C518 1.369 . S
C517 H526 0.929 . S
C518 N515 1.346 . S
C518 C517 1.369 . S
C518 H521 0.928 . S
C519 N515 1.345 . S
C519 C520 1.371 . S
C519 H522 0.931 . S
C520 C516 1.391 . S
C520 C519 1.371 . S
C520 H527 0.930 . S
H521 C518 0.928 . S
H522 C519 0.931 . S
H523 C499 0.930 . S
H524 C496 0.930 . S
H525 C505 0.930 . S
H526 C517 0.929 . S
H527 C520 0.930 . S
C528 C529 1.351 . S
C528 N531 1.368 . S
C528 H533 0.931 . S
C529 C528 1.351 . S
C529 N530 1.373 . S
C529 H557 0.930 . S
N530 C529 1.373 . S
N530 C532 1.340 . S
N531 C528 1.368 . S
N531 C532 1.321 . S
N531 Co534 2.135 . S
C532 N530 1.340 . S
C532 N531 1.321 . S
C532 H556 0.930 . S
H533 C528 0.931 . S
Co534 N531 2.135 . S
Co534 N537 2.121 . S
Co534 O542 2.055 . S
Co534 O545 2.039 . S
Co534 N548 2.140 . S
C535 O536 1.227 . S
C535 O545 1.265 . S
O536 C535 1.227 . S
N537 Co534 2.121 . S
N537 C539 1.375 . S
N537 C540 1.313 . S
C538 C539 1.338 . S
C538 N541 1.377 . S
C538 H558 0.930 . S
C539 N537 1.375 . S
C539 C538 1.338 . S
C539 H543 0.931 . S
C540 N537 1.313 . S
C540 N541 1.344 . S
C540 H544 0.930 . S
N541 C538 1.377 . S
N541 C540 1.344 . S
O542 Co534 2.055 . S
O542 C546 1.253 . S
H543 C539 0.931 . S
H544 C540 0.930 . S
O545 Co534 2.039 . S
O545 C535 1.265 . S
C546 O542 1.253 . S
C546 O547 1.227 . S
O547 C546 1.227 . S
N548 Co534 2.140 . S
N548 C551 1.346 . S
N548 C552 1.345 . S
C549 C550 1.387 . S
C549 C553 1.391 . S
C550 C549 1.387 . S
C550 C551 1.369 . S
C550 H559 0.929 . S
C551 N548 1.346 . S
C551 C550 1.369 . S
C551 H554 0.928 . S
C552 N548 1.345 . S
C552 C553 1.371 . S
C552 H555 0.931 . S
C553 C549 1.391 . S
C553 C552 1.371 . S
C553 H560 0.930 . S
H554 C551 0.928 . S
H555 C552 0.931 . S
H556 C532 0.930 . S
H557 C529 0.930 . S
H558 C538 0.930 . S
H559 C550 0.929 . S
H560 C553 0.930 . S
C561 C562 1.350 1_554 S
C561 N564 1.371 . S
C561 H566 0.929 1_554 S
C562 C561 1.350 1_556 S
C562 N563 1.373 1_556 S
C562 H590 0.930 . S
N563 C562 1.373 1_554 S
N563 C565 1.340 . S
N564 C561 1.371 . S
N564 C565 1.321 . S
N564 Co567 2.135 . S
C565 N563 1.340 . S
C565 N564 1.321 . S
C565 H589 0.930 . S
H566 C561 0.929 1_556 S
Co567 N564 2.135 . S
Co567 N570 2.121 . S
Co567 O575 2.055 . S
Co567 O578 2.039 . S
Co567 N581 2.140 . S
C568 O569 1.227 . S
C568 O578 1.265 . S
O569 C568 1.227 . S
N570 Co567 2.121 . S
N570 C572 1.375 . S
N570 C573 1.313 . S
C571 C572 1.338 . S
C571 N574 1.377 . S
C571 H591 0.930 . S
C572 N570 1.375 . S
C572 C571 1.338 . S
C572 H576 0.931 . S
C573 N570 1.313 . S
C573 N574 1.344 . S
C573 H577 0.930 . S
N574 C571 1.377 . S
N574 C573 1.344 . S
O575 Co567 2.055 . S
O575 C579 1.253 . S
H576 C572 0.931 . S
H577 C573 0.930 . S
O578 Co567 2.039 . S
O578 C568 1.265 . S
C579 O575 1.253 . S
C579 O580 1.227 . S
O580 C579 1.227 . S
N581 Co567 2.140 . S
N581 C584 1.346 . S
N581 C585 1.345 . S
C582 C583 1.387 . S
C582 C586 1.391 . S
C583 C582 1.387 . S
C583 C584 1.369 . S
C583 H592 0.929 . S
C584 N581 1.346 . S
C584 C583 1.369 . S
C584 H587 0.928 . S
C585 N581 1.345 . S
C585 C586 1.371 . S
C585 H588 0.931 . S
C586 C582 1.391 . S
C586 C585 1.371 . S
C586 H593 0.930 . S
H587 C584 0.928 . S
H588 C585 0.931 . S
H589 C565 0.930 . S
H590 C562 0.930 . S
H591 C571 0.930 . S
H592 C583 0.929 . S
H593 C586 0.930 . S
C594 C595 1.351 . S
C594 N597 1.368 . S
C594 H599 0.931 . S
C595 C594 1.351 . S
C595 N596 1.373 . S
C595 H623 0.930 . S
N596 C595 1.373 . S
N596 C598 1.340 . S
N597 C594 1.368 . S
N597 C598 1.321 . S
N597 Co600 2.135 . S
C598 N596 1.340 . S
C598 N597 1.321 . S
C598 H622 0.930 . S
H599 C594 0.931 . S
Co600 N597 2.135 . S
Co600 N603 2.121 . S
Co600 O608 2.055 . S
Co600 O611 2.039 . S
Co600 N614 2.140 . S
C601 O602 1.227 . S
C601 O611 1.265 . S
O602 C601 1.227 . S
N603 Co600 2.121 . S
N603 C605 1.375 . S
N603 C606 1.313 . S
C604 C605 1.338 . S
C604 N607 1.377 . S
C604 H624 0.930 . S
C605 N603 1.375 . S
C605 C604 1.338 . S
C605 H609 0.931 . S
C606 N603 1.313 . S
C606 N607 1.344 . S
C606 H610 0.930 . S
N607 C604 1.377 . S
N607 C606 1.344 . S
O608 Co600 2.055 . S
O608 C612 1.253 . S
H609 C605 0.931 . S
H610 C606 0.930 . S
O611 Co600 2.039 . S
O611 C601 1.265 . S
C612 O608 1.253 . S
C612 O613 1.227 . S
O613 C612 1.227 . S
N614 Co600 2.140 . S
N614 C617 1.346 . S
N614 C618 1.345 . S
C615 C616 1.387 . S
C615 C619 1.391 . S
C616 C615 1.387 . S
C616 C617 1.369 . S
C616 H625 0.929 . S
C617 N614 1.346 . S
C617 C616 1.369 . S
C617 H620 0.928 . S
C618 N614 1.345 . S
C618 C619 1.371 . S
C618 H621 0.931 . S
C619 C615 1.391 . S
C619 C618 1.371 . S
C619 H626 0.930 . S
H620 C617 0.928 . S
H621 C618 0.931 . S
H622 C598 0.930 . S
H623 C595 0.930 . S
H624 C604 0.930 . S
H625 C616 0.929 . S
H626 C619 0.930 . S
C627 C628 1.351 . S
C627 N630 1.368 . S
C627 H632 0.931 . S
C628 C627 1.351 . S
C628 N629 1.373 . S
C628 H656 0.930 . S
N629 C628 1.373 . S
N629 C631 1.340 . S
N630 C627 1.368 . S
N630 C631 1.321 . S
N630 Co633 2.135 . S
C631 N629 1.340 . S
C631 N630 1.321 . S
C631 H655 0.930 . S
H632 C627 0.931 . S
Co633 N630 2.135 . S
Co633 N636 2.121 . S
Co633 O641 2.055 . S
Co633 O644 2.039 . S
Co633 N647 2.140 . S
C634 O635 1.227 . S
C634 O644 1.265 . S
O635 C634 1.227 . S
N636 Co633 2.121 . S
N636 C638 1.375 . S
N636 C639 1.313 . S
C637 C638 1.338 . S
C637 N640 1.377 . S
C637 H657 0.930 . S
C638 N636 1.375 . S
C638 C637 1.338 . S
C638 H642 0.931 . S
C639 N636 1.313 . S
C639 N640 1.344 . S
C639 H643 0.930 . S
N640 C637 1.377 . S
N640 C639 1.344 . S
O641 Co633 2.055 . S
O641 C645 1.253 . S
H642 C638 0.931 . S
H643 C639 0.930 . S
O644 Co633 2.039 . S
O644 C634 1.265 . S
C645 O641 1.253 . S
C645 O646 1.227 . S
O646 C645 1.227 . S
N647 Co633 2.140 . S
N647 C650 1.346 . S
N647 C651 1.345 . S
C648 C649 1.387 . S
C648 C652 1.391 . S
C649 C648 1.387 . S
C649 C650 1.369 . S
C649 H658 0.929 . S
C650 N647 1.346 . S
C650 C649 1.369 . S
C650 H653 0.928 . S
C651 N647 1.345 . S
C651 C652 1.371 . S
C651 H654 0.931 . S
C652 C648 1.391 . S
C652 C651 1.371 . S
C652 H659 0.930 . S
H653 C650 0.928 . S
H654 C651 0.931 . S
H655 C631 0.930 . S
H656 C628 0.930 . S
H657 C637 0.930 . S
H658 C649 0.929 . S
H659 C652 0.930 . S
C660 C661 1.351 . S
C660 N663 1.368 . S
C660 H665 0.931 . S
C661 C660 1.351 . S
C661 N662 1.373 . S
C661 H689 0.930 . S
N662 C661 1.373 . S
N662 C664 1.340 . S
N663 C660 1.368 . S
N663 C664 1.321 . S
N663 Co666 2.135 . S
C664 N662 1.340 . S
C664 N663 1.321 . S
C664 H688 0.930 . S
H665 C660 0.931 . S
Co666 N663 2.135 . S
Co666 N669 2.121 . S
Co666 O674 2.055 . S
Co666 O677 2.039 . S
Co666 N680 2.140 . S
C667 O668 1.227 . S
C667 O677 1.265 . S
O668 C667 1.227 . S
N669 Co666 2.121 . S
N669 C671 1.375 . S
N669 C672 1.313 . S
C670 C671 1.338 . S
C670 N673 1.377 . S
C670 H690 0.930 . S
C671 N669 1.375 . S
C671 C670 1.338 . S
C671 H675 0.931 . S
C672 N669 1.313 . S
C672 N673 1.344 . S
C672 H676 0.930 . S
N673 C670 1.377 . S
N673 C672 1.344 . S
O674 Co666 2.055 . S
O674 C678 1.253 . S
H675 C671 0.931 . S
H676 C672 0.930 . S
O677 Co666 2.039 . S
O677 C667 1.265 . S
C678 O674 1.253 . S
C678 O679 1.227 . S
O679 C678 1.227 . S
N680 Co666 2.140 . S
N680 C683 1.346 . S
N680 C684 1.345 . S
C681 C682 1.387 . S
C681 C685 1.391 . S
C682 C681 1.387 . S
C682 C683 1.369 . S
C682 H691 0.929 . S
C683 N680 1.346 . S
C683 C682 1.369 . S
C683 H686 0.928 . S
C684 N680 1.345 . S
C684 C685 1.371 . S
C684 H687 0.931 . S
C685 C681 1.391 . S
C685 C684 1.371 . S
C685 H692 0.930 . S
H686 C683 0.928 . S
H687 C684 0.931 . S
H688 C664 0.930 . S
H689 C661 0.930 . S
H690 C670 0.930 . S
H691 C682 0.929 . S
H692 C685 0.930 . S
C693 C694 1.350 1_556 S
C693 N696 1.371 . S
C693 H698 0.929 1_556 S
C694 C693 1.350 1_554 S
C694 N695 1.373 1_554 S
C694 H722 0.930 . S
N695 C694 1.373 1_556 S
N695 C697 1.340 . S
N696 C693 1.371 . S
N696 C697 1.321 . S
N696 Co699 2.135 . S
C697 N695 1.340 . S
C697 N696 1.321 . S
C697 H721 0.930 . S
H698 C693 0.929 1_554 S
Co699 N696 2.135 . S
Co699 N702 2.121 . S
Co699 O707 2.055 . S
Co699 O710 2.039 . S
Co699 N713 2.140 . S
C700 O701 1.227 . S
C700 O710 1.265 . S
O701 C700 1.227 . S
N702 Co699 2.121 . S
N702 C704 1.375 . S
N702 C705 1.313 . S
C703 C704 1.338 . S
C703 N706 1.377 . S
C703 H723 0.930 . S
C704 N702 1.375 . S
C704 C703 1.338 . S
C704 H708 0.931 . S
C705 N702 1.313 . S
C705 N706 1.344 . S
C705 H709 0.930 . S
N706 C703 1.377 . S
N706 C705 1.344 . S
O707 Co699 2.055 . S
O707 C711 1.253 . S
H708 C704 0.931 . S
H709 C705 0.930 . S
O710 Co699 2.039 . S
O710 C700 1.265 . S
C711 O707 1.253 . S
C711 O712 1.227 . S
O712 C711 1.227 . S
N713 Co699 2.140 . S
N713 C716 1.346 . S
N713 C717 1.345 . S
C714 C715 1.387 . S
C714 C718 1.391 . S
C715 C714 1.387 . S
C715 C716 1.369 . S
C715 H724 0.929 . S
C716 N713 1.346 . S
C716 C715 1.369 . S
C716 H719 0.928 . S
C717 N713 1.345 . S
C717 C718 1.371 . S
C717 H720 0.931 . S
C718 C714 1.391 . S
C718 C717 1.371 . S
C718 H725 0.930 . S
H719 C716 0.928 . S
H720 C717 0.931 . S
H721 C697 0.930 . S
H722 C694 0.930 . S
H723 C703 0.930 . S
H724 C715 0.929 . S
H725 C718 0.930 . S
C726 C727 1.351 . S
C726 N729 1.368 . S
C726 H731 0.931 . S
C727 C726 1.351 . S
C727 N728 1.373 . S
C727 H755 0.930 . S
N728 C727 1.373 . S
N728 C730 1.340 . S
N729 C726 1.368 . S
N729 C730 1.321 . S
N729 Co732 2.135 . S
C730 N728 1.340 . S
C730 N729 1.321 . S
C730 H754 0.930 . S
H731 C726 0.931 . S
Co732 N729 2.135 . S
Co732 N735 2.121 . S
Co732 O740 2.055 . S
Co732 O743 2.039 . S
Co732 N746 2.140 . S
C733 O734 1.227 . S
C733 O743 1.265 . S
O734 C733 1.227 . S
N735 Co732 2.121 . S
N735 C737 1.375 . S
N735 C738 1.313 . S
C736 C737 1.338 . S
C736 N739 1.377 . S
C736 H756 0.930 . S
C737 N735 1.375 . S
C737 C736 1.338 . S
C737 H741 0.931 . S
C738 N735 1.313 . S
C738 N739 1.344 . S
C738 H742 0.930 . S
N739 C736 1.377 . S
N739 C738 1.344 . S
O740 Co732 2.055 . S
O740 C744 1.253 . S
H741 C737 0.931 . S
H742 C738 0.930 . S
O743 Co732 2.039 . S
O743 C733 1.265 . S
C744 O740 1.253 . S
C744 O745 1.227 . S
O745 C744 1.227 . S
N746 Co732 2.140 . S
N746 C749 1.346 . S
N746 C750 1.345 . S
C747 C748 1.387 . S
C747 C751 1.391 . S
C748 C747 1.387 . S
C748 C749 1.369 . S
C748 H757 0.929 . S
C749 N746 1.346 . S
C749 C748 1.369 . S
C749 H752 0.928 . S
C750 N746 1.345 . S
C750 C751 1.371 . S
C750 H753 0.931 . S
C751 C747 1.391 . S
C751 C750 1.371 . S
C751 H758 0.930 . S
H752 C749 0.928 . S
H753 C750 0.931 . S
H754 C730 0.930 . S
H755 C727 0.930 . S
H756 C736 0.930 . S
H757 C748 0.929 . S
H758 C751 0.930 . S
C759 C760 1.351 . S
C759 N762 1.368 . S
C759 H764 0.931 . S
C760 C759 1.351 . S
C760 N761 1.373 . S
C760 H788 0.930 . S
N761 C760 1.373 . S
N761 C763 1.340 . S
N762 C759 1.368 . S
N762 C763 1.321 . S
N762 Co765 2.135 . S
C763 N761 1.340 . S
C763 N762 1.321 . S
C763 H787 0.930 . S
H764 C759 0.931 . S
Co765 N762 2.135 . S
Co765 N768 2.121 . S
Co765 O773 2.055 . S
Co765 O776 2.039 . S
Co765 N779 2.140 . S
C766 O767 1.227 . S
C766 O776 1.265 . S
O767 C766 1.227 . S
N768 Co765 2.121 . S
N768 C770 1.375 . S
N768 C771 1.313 . S
C769 C770 1.338 . S
C769 N772 1.377 . S
C769 H789 0.930 . S
C770 N768 1.375 . S
C770 C769 1.338 . S
C770 H774 0.931 . S
C771 N768 1.313 . S
C771 N772 1.344 . S
C771 H775 0.930 . S
N772 C769 1.377 . S
N772 C771 1.344 . S
O773 Co765 2.055 . S
O773 C777 1.253 . S
H774 C770 0.931 . S
H775 C771 0.930 . S
O776 Co765 2.039 . S
O776 C766 1.265 . S
C777 O773 1.253 . S
C777 O778 1.227 . S
O778 C777 1.227 . S
N779 Co765 2.140 . S
N779 C782 1.346 . S
N779 C783 1.345 . S
C780 C781 1.387 . S
C780 C784 1.391 . S
C781 C780 1.387 . S
C781 C782 1.369 . S
C781 H790 0.929 . S
C782 N779 1.346 . S
C782 C781 1.369 . S
C782 H785 0.928 . S
C783 N779 1.345 . S
C783 C784 1.371 . S
C783 H786 0.931 . S
C784 C780 1.391 . S
C784 C783 1.371 . S
C784 H791 0.930 . S
H785 C782 0.928 . S
H786 C783 0.931 . S
H787 C763 0.930 . S
H788 C760 0.930 . S
H789 C769 0.930 . S
H790 C781 0.929 . S
H791 C784 0.930 . S
C792 C793 1.351 . S
C792 N795 1.368 . S
C792 H797 0.931 . S
C793 C792 1.351 . S
C793 N794 1.373 . S
C793 H821 0.930 . S
N794 C793 1.373 . S
N794 C796 1.340 . S
N795 C792 1.368 . S
N795 C796 1.321 . S
N795 Co798 2.135 . S
C796 N794 1.340 . S
C796 N795 1.321 . S
C796 H820 0.930 . S
H797 C792 0.931 . S
Co798 N795 2.135 . S
Co798 N801 2.121 . S
Co798 O806 2.055 . S
Co798 O809 2.039 . S
Co798 N812 2.140 . S
C799 O800 1.227 . S
C799 O809 1.265 . S
O800 C799 1.227 . S
N801 Co798 2.121 . S
N801 C803 1.375 . S
N801 C804 1.313 . S
C802 C803 1.338 . S
C802 N805 1.377 . S
C802 H822 0.930 . S
C803 N801 1.375 . S
C803 C802 1.338 . S
C803 H807 0.931 . S
C804 N801 1.313 . S
C804 N805 1.344 . S
C804 H808 0.930 . S
N805 C802 1.377 . S
N805 C804 1.344 . S
O806 Co798 2.055 . S
O806 C810 1.253 . S
H807 C803 0.931 . S
H808 C804 0.930 . S
O809 Co798 2.039 . S
O809 C799 1.265 . S
C810 O806 1.253 . S
C810 O811 1.227 . S
O811 C810 1.227 . S
N812 Co798 2.140 . S
N812 C815 1.346 . S
N812 C816 1.345 . S
C813 C814 1.387 . S
C813 C817 1.391 . S
C814 C813 1.387 . S
C814 C815 1.369 . S
C814 H823 0.929 . S
C815 N812 1.346 . S
C815 C814 1.369 . S
C815 H818 0.928 . S
C816 N812 1.345 . S
C816 C817 1.371 . S
C816 H819 0.931 . S
C817 C813 1.391 . S
C817 C816 1.371 . S
C817 H824 0.930 . S
H818 C815 0.928 . S
H819 C816 0.931 . S
H820 C796 0.930 . S
H821 C793 0.930 . S
H822 C802 0.930 . S
H823 C814 0.929 . S
H824 C817 0.930 . S
C825 C826 1.350 1_556 S
C825 N828 1.371 . S
C825 H830 0.929 1_556 S
C826 C825 1.350 1_554 S
C826 N827 1.373 1_554 S
C826 H854 0.930 . S
N827 C826 1.373 1_556 S
N827 C829 1.340 . S
N828 C825 1.371 . S
N828 C829 1.321 . S
N828 Co831 2.135 . S
C829 N827 1.340 . S
C829 N828 1.321 . S
C829 H853 0.930 . S
H830 C825 0.929 1_554 S
Co831 N828 2.135 . S
Co831 N834 2.121 . S
Co831 O839 2.055 . S
Co831 O842 2.039 . S
Co831 N845 2.140 . S
C832 O833 1.227 . S
C832 O842 1.265 . S
O833 C832 1.227 . S
N834 Co831 2.121 . S
N834 C836 1.375 . S
N834 C837 1.313 . S
C835 C836 1.338 . S
C835 N838 1.377 . S
C835 H855 0.930 . S
C836 N834 1.375 . S
C836 C835 1.338 . S
C836 H840 0.931 . S
C837 N834 1.313 . S
C837 N838 1.344 . S
C837 H841 0.930 . S
N838 C835 1.377 . S
N838 C837 1.344 . S
O839 Co831 2.055 . S
O839 C843 1.253 . S
H840 C836 0.931 . S
H841 C837 0.930 . S
O842 Co831 2.039 . S
O842 C832 1.265 . S
C843 O839 1.253 . S
C843 O844 1.227 . S
O844 C843 1.227 . S
N845 Co831 2.140 . S
N845 C848 1.346 . S
N845 C849 1.345 . S
C846 C847 1.387 . S
C846 C850 1.391 . S
C847 C846 1.387 . S
C847 C848 1.369 . S
C847 H856 0.929 . S
C848 N845 1.346 . S
C848 C847 1.369 . S
C848 H851 0.928 . S
C849 N845 1.345 . S
C849 C850 1.371 . S
C849 H852 0.931 . S
C850 C846 1.391 . S
C850 C849 1.371 . S
C850 H857 0.930 . S
H851 C848 0.928 . S
H852 C849 0.931 . S
H853 C829 0.930 . S
H854 C826 0.930 . S
H855 C835 0.930 . S
H856 C847 0.929 . S
H857 C850 0.930 . S
C858 C859 1.351 . S
C858 N861 1.368 . S
C858 H863 0.931 . S
C859 C858 1.351 . S
C859 N860 1.373 . S
C859 H887 0.930 . S
N860 C859 1.373 . S
N860 C862 1.340 . S
N861 C858 1.368 . S
N861 C862 1.321 . S
N861 Co864 2.135 . S
C862 N860 1.340 . S
C862 N861 1.321 . S
C862 H886 0.930 . S
H863 C858 0.931 . S
Co864 N861 2.135 . S
Co864 N867 2.121 . S
Co864 O872 2.055 . S
Co864 O875 2.039 . S
Co864 N878 2.140 . S
C865 O866 1.227 . S
C865 O875 1.265 . S
O866 C865 1.227 . S
N867 Co864 2.121 . S
N867 C869 1.375 . S
N867 C870 1.313 . S
C868 C869 1.338 . S
C868 N871 1.377 . S
C868 H888 0.930 . S
C869 N867 1.375 . S
C869 C868 1.338 . S
C869 H873 0.931 . S
C870 N867 1.313 . S
C870 N871 1.344 . S
C870 H874 0.930 . S
N871 C868 1.377 . S
N871 C870 1.344 . S
O872 Co864 2.055 . S
O872 C876 1.253 . S
H873 C869 0.931 . S
H874 C870 0.930 . S
O875 Co864 2.039 . S
O875 C865 1.265 . S
C876 O872 1.253 . S
C876 O877 1.227 . S
O877 C876 1.227 . S
N878 Co864 2.140 . S
N878 C881 1.346 . S
N878 C882 1.345 . S
C879 C880 1.387 . S
C879 C883 1.391 . S
C880 C879 1.387 . S
C880 C881 1.369 . S
C880 H889 0.929 . S
C881 N878 1.346 . S
C881 C880 1.369 . S
C881 H884 0.928 . S
C882 N878 1.345 . S
C882 C883 1.371 . S
C882 H885 0.931 . S
C883 C879 1.391 . S
C883 C882 1.371 . S
C883 H890 0.930 . S
H884 C881 0.928 . S
H885 C882 0.931 . S
H886 C862 0.930 . S
H887 C859 0.930 . S
H888 C868 0.930 . S
H889 C880 0.929 . S
H890 C883 0.930 . S
C891 C892 1.351 . S
C891 N894 1.368 . S
C891 H896 0.931 . S
C892 C891 1.351 . S
C892 N893 1.373 . S
C892 H920 0.930 . S
N893 C892 1.373 . S
N893 C895 1.340 . S
N894 C891 1.368 . S
N894 C895 1.321 . S
N894 Co897 2.135 . S
C895 N893 1.340 . S
C895 N894 1.321 . S
C895 H919 0.930 . S
H896 C891 0.931 . S
Co897 N894 2.135 . S
Co897 N900 2.121 . S
Co897 O905 2.055 . S
Co897 O908 2.039 . S
Co897 N911 2.140 . S
C898 O899 1.227 . S
C898 O908 1.265 . S
O899 C898 1.227 . S
N900 Co897 2.121 . S
N900 C902 1.375 . S
N900 C903 1.313 . S
C901 C902 1.338 . S
C901 N904 1.377 . S
C901 H921 0.930 . S
C902 N900 1.375 . S
C902 C901 1.338 . S
C902 H906 0.931 . S
C903 N900 1.313 . S
C903 N904 1.344 . S
C903 H907 0.930 . S
N904 C901 1.377 . S
N904 C903 1.344 . S
O905 Co897 2.055 . S
O905 C909 1.253 . S
H906 C902 0.931 . S
H907 C903 0.930 . S
O908 Co897 2.039 . S
O908 C898 1.265 . S
C909 O905 1.253 . S
C909 O910 1.227 . S
O910 C909 1.227 . S
N911 Co897 2.140 . S
N911 C914 1.346 . S
N911 C915 1.345 . S
C912 C913 1.387 . S
C912 C916 1.391 . S
C913 C912 1.387 . S
C913 C914 1.369 . S
C913 H922 0.929 . S
C914 N911 1.346 . S
C914 C913 1.369 . S
C914 H917 0.928 . S
C915 N911 1.345 . S
C915 C916 1.371 . S
C915 H918 0.931 . S
C916 C912 1.391 . S
C916 C915 1.371 . S
C916 H923 0.930 . S
H917 C914 0.928 . S
H918 C915 0.931 . S
H919 C895 0.930 . S
H920 C892 0.930 . S
H921 C901 0.930 . S
H922 C913 0.929 . S
H923 C916 0.930 . S
C924 C925 1.351 . S
C924 N927 1.368 . S
C924 H929 0.931 . S
C925 C924 1.351 . S
C925 N926 1.373 . S
C925 H953 0.930 . S
N926 C925 1.373 . S
N926 C928 1.340 . S
N927 C924 1.368 . S
N927 C928 1.321 . S
N927 Co930 2.135 . S
C928 N926 1.340 . S
C928 N927 1.321 . S
C928 H952 0.930 . S
H929 C924 0.931 . S
Co930 N927 2.135 . S
Co930 N933 2.121 . S
Co930 O938 2.055 . S
Co930 O941 2.039 . S
Co930 N944 2.140 . S
C931 O932 1.227 . S
C931 O941 1.265 . S
O932 C931 1.227 . S
N933 Co930 2.121 . S
N933 C935 1.375 . S
N933 C936 1.313 . S
C934 C935 1.338 . S
C934 N937 1.377 . S
C934 H954 0.930 . S
C935 N933 1.375 . S
C935 C934 1.338 . S
C935 H939 0.931 . S
C936 N933 1.313 . S
C936 N937 1.344 . S
C936 H940 0.930 . S
N937 C934 1.377 . S
N937 C936 1.344 . S
O938 Co930 2.055 . S
O938 C942 1.253 . S
H939 C935 0.931 . S
H940 C936 0.930 . S
O941 Co930 2.039 . S
O941 C931 1.265 . S
C942 O938 1.253 . S
C942 O943 1.227 . S
O943 C942 1.227 . S
N944 Co930 2.140 . S
N944 C947 1.346 . S
N944 C948 1.345 . S
C945 C946 1.387 . S
C945 C949 1.391 . S
C946 C945 1.387 . S
C946 C947 1.369 . S
C946 H955 0.929 . S
C947 N944 1.346 . S
C947 C946 1.369 . S
C947 H950 0.928 . S
C948 N944 1.345 . S
C948 C949 1.371 . S
C948 H951 0.931 . S
C949 C945 1.391 . S
C949 C948 1.371 . S
C949 H956 0.930 . S
H950 C947 0.928 . S
H951 C948 0.931 . S
H952 C928 0.930 . S
H953 C925 0.930 . S
H954 C934 0.930 . S
H955 C946 0.929 . S
H956 C949 0.930 . S
C957 C958 1.350 1_554 S
C957 N960 1.371 . S
C957 H962 0.929 1_554 S
C958 C957 1.350 1_556 S
C958 N959 1.373 1_556 S
C958 H986 0.930 . S
N959 C958 1.373 1_554 S
N959 C961 1.340 . S
N960 C957 1.371 . S
N960 C961 1.321 . S
N960 Co963 2.135 . S
C961 N959 1.340 . S
C961 N960 1.321 . S
C961 H985 0.930 . S
H962 C957 0.929 1_556 S
Co963 N960 2.135 . S
Co963 N966 2.121 . S
Co963 O971 2.055 . S
Co963 O974 2.039 . S
Co963 N977 2.140 . S
C964 O965 1.227 . S
C964 O974 1.265 . S
O965 C964 1.227 . S
N966 Co963 2.121 . S
N966 C968 1.375 . S
N966 C969 1.313 . S
C967 C968 1.338 . S
C967 N970 1.377 . S
C967 H987 0.930 . S
C968 N966 1.375 . S
C968 C967 1.338 . S
C968 H972 0.931 . S
C969 N966 1.313 . S
C969 N970 1.344 . S
C969 H973 0.930 . S
N970 C967 1.377 . S
N970 C969 1.344 . S
O971 Co963 2.055 . S
O971 C975 1.253 . S
H972 C968 0.931 . S
H973 C969 0.930 . S
O974 Co963 2.039 . S
O974 C964 1.265 . S
C975 O971 1.253 . S
C975 O976 1.227 . S
O976 C975 1.227 . S
N977 Co963 2.140 . S
N977 C980 1.346 . S
N977 C981 1.345 . S
C978 C979 1.387 . S
C978 C982 1.391 . S
C979 C978 1.387 . S
C979 C980 1.369 . S
C979 H988 0.929 . S
C980 N977 1.346 . S
C980 C979 1.369 . S
C980 H983 0.928 . S
C981 N977 1.345 . S
C981 C982 1.371 . S
C981 H984 0.931 . S
C982 C978 1.391 . S
C982 C981 1.371 . S
C982 H989 0.930 . S
H983 C980 0.928 . S
H984 C981 0.931 . S
H985 C961 0.930 . S
H986 C958 0.930 . S
H987 C967 0.930 . S
H988 C979 0.929 . S
H989 C982 0.930 . S
C990 C991 1.351 . S
C990 N993 1.368 . S
C990 H995 0.931 . S
C991 C990 1.351 . S
C991 N992 1.373 . S
C991 H1019 0.930 . S
N992 C991 1.373 . S
N992 C994 1.340 . S
N993 C990 1.368 . S
N993 C994 1.321 . S
N993 Co996 2.135 . S
C994 N992 1.340 . S
C994 N993 1.321 . S
C994 H1018 0.930 . S
H995 C990 0.931 . S
Co996 N993 2.135 . S
Co996 N999 2.121 . S
Co996 O1004 2.055 . S
Co996 O1007 2.039 . S
Co996 N1010 2.140 . S
C997 O998 1.227 . S
C997 O1007 1.265 . S
O998 C997 1.227 . S
N999 Co996 2.121 . S
N999 C1001 1.375 . S
N999 C1002 1.313 . S
C1000 C1001 1.338 . S
C1000 N1003 1.377 . S
C1000 H1020 0.930 . S
C1001 N999 1.375 . S
C1001 C1000 1.338 . S
C1001 H1005 0.931 . S
C1002 N999 1.313 . S
C1002 N1003 1.344 . S
C1002 H1006 0.930 . S
N1003 C1000 1.377 . S
N1003 C1002 1.344 . S
O1004 Co996 2.055 . S
O1004 C1008 1.253 . S
H1005 C1001 0.931 . S
H1006 C1002 0.930 . S
O1007 Co996 2.039 . S
O1007 C997 1.265 . S
C1008 O1004 1.253 . S
C1008 O1009 1.227 . S
O1009 C1008 1.227 . S
N1010 Co996 2.140 . S
N1010 C1013 1.346 . S
N1010 C1014 1.345 . S
C1011 C1012 1.387 . S
C1011 C1015 1.391 . S
C1012 C1011 1.387 . S
C1012 C1013 1.369 . S
C1012 H1021 0.929 . S
C1013 N1010 1.346 . S
C1013 C1012 1.369 . S
C1013 H1016 0.928 . S
C1014 N1010 1.345 . S
C1014 C1015 1.371 . S
C1014 H1017 0.931 . S
C1015 C1011 1.391 . S
C1015 C1014 1.371 . S
C1015 H1022 0.930 . S
H1016 C1013 0.928 . S
H1017 C1014 0.931 . S
H1018 C994 0.930 . S
H1019 C991 0.930 . S
H1020 C1000 0.930 . S
H1021 C1012 0.929 . S
H1022 C1015 0.930 . S
C1023 C1024 1.351 . S
C1023 N1026 1.368 . S
C1023 H1028 0.931 . S
C1024 C1023 1.351 . S
C1024 N1025 1.373 . S
C1024 H1052 0.930 . S
N1025 C1024 1.373 . S
N1025 C1027 1.340 . S
N1026 C1023 1.368 . S
N1026 C1027 1.321 . S
N1026 Co1029 2.135 . S
C1027 N1025 1.340 . S
C1027 N1026 1.321 . S
C1027 H1051 0.930 . S
H1028 C1023 0.931 . S
Co1029 N1026 2.135 . S
Co1029 N1032 2.121 . S
Co1029 O1037 2.055 . S
Co1029 O1040 2.039 . S
Co1029 N1043 2.140 . S
C1030 O1031 1.227 . S
C1030 O1040 1.265 . S
O1031 C1030 1.227 . S
N1032 Co1029 2.121 . S
N1032 C1034 1.375 . S
N1032 C1035 1.313 . S
C1033 C1034 1.338 . S
C1033 N1036 1.377 . S
C1033 H1053 0.930 . S
C1034 N1032 1.375 . S
C1034 C1033 1.338 . S
C1034 H1038 0.931 . S
C1035 N1032 1.313 . S
C1035 N1036 1.344 . S
C1035 H1039 0.930 . S
N1036 C1033 1.377 . S
N1036 C1035 1.344 . S
O1037 Co1029 2.055 . S
O1037 C1041 1.253 . S
H1038 C1034 0.931 . S
H1039 C1035 0.930 . S
O1040 Co1029 2.039 . S
O1040 C1030 1.265 . S
C1041 O1037 1.253 . S
C1041 O1042 1.227 . S
O1042 C1041 1.227 . S
N1043 Co1029 2.140 . S
N1043 C1046 1.346 . S
N1043 C1047 1.345 . S
C1044 C1045 1.387 . S
C1044 C1048 1.391 . S
C1045 C1044 1.387 . S
C1045 C1046 1.369 . S
C1045 H1054 0.929 . S
C1046 N1043 1.346 . S
C1046 C1045 1.369 . S
C1046 H1049 0.928 . S
C1047 N1043 1.345 . S
C1047 C1048 1.371 . S
C1047 H1050 0.931 . S
C1048 C1044 1.391 . S
C1048 C1047 1.371 . S
C1048 H1055 0.930 . S
H1049 C1046 0.928 . S
H1050 C1047 0.931 . S
H1051 C1027 0.930 . S
H1052 C1024 0.930 . S
H1053 C1033 0.930 . S
H1054 C1045 0.929 . S
H1055 C1048 0.930 . S
C1056 C1057 1.391 . S
C1056 C1058 1.394 . S
C1056 H1072 0.931 . S
C1057 C1056 1.391 . S
C1057 C1061 1.376 . S
C1058 C1056 1.394 . S
C1058 C1059 1.369 . S
C1058 C1062 1.531 . S
C1059 C1058 1.369 . S
C1059 C1060 1.410 . S
C1059 C1067 1.503 . S
C1060 C1059 1.410 . S
C1060 C1061 1.392 . S
C1060 C1063 1.511 . S
C1061 C1057 1.376 . S
C1061 C1060 1.392 . S
C1061 H1073 0.929 . S
C1062 C1058 1.531 . S
C1062 H1074 0.960 . S
C1062 H1075 0.962 . S
C1062 H1076 0.960 . S
C1063 C1060 1.511 . S
C1063 H1077 0.961 . S
C1063 H1078 0.961 . S
C1063 H1079 0.961 . S
C1064 C1065 1.370 . S
C1064 C1066 1.363 . S
C1064 H1080 0.931 . S
C1065 C1064 1.370 . S
C1065 C1069 1.408 . S
C1066 C1064 1.363 . S
C1066 C1067 1.370 . S
C1066 C1070 1.524 . S
C1067 C1059 1.503 . S
C1067 C1066 1.370 . S
C1067 C1068 1.403 . S
C1068 C1067 1.403 . S
C1068 C1069 1.404 . S
C1068 C1071 1.539 . S
C1069 C1065 1.408 . S
C1069 C1068 1.404 . S
C1069 H1081 0.930 . S
C1070 C1066 1.524 . S
C1070 H1082 0.956 . S
C1070 H1083 0.961 . S
C1070 H1084 0.961 . S
C1071 C1068 1.539 . S
C1071 H1085 0.958 . S
C1071 H1086 0.961 . S
C1071 H1087 0.960 . S
H1072 C1056 0.931 . S
H1073 C1061 0.929 . S
H1074 C1062 0.960 . S
H1075 C1062 0.962 . S
H1076 C1062 0.960 . S
H1077 C1063 0.961 . S
H1078 C1063 0.961 . S
H1079 C1063 0.961 . S
H1080 C1064 0.931 . S
H1081 C1069 0.930 . S
H1082 C1070 0.956 . S
H1083 C1070 0.961 . S
H1084 C1070 0.961 . S
H1085 C1071 0.958 . S
H1086 C1071 0.961 . S
H1087 C1071 0.960 . S
C1088 C1089 1.391 . S
C1088 C1090 1.394 . S
C1088 H1104 0.931 . S
C1089 C1088 1.391 . S
C1089 C1093 1.376 . S
C1090 C1088 1.394 . S
C1090 C1091 1.369 . S
C1090 C1094 1.531 . S
C1091 C1090 1.369 . S
C1091 C1092 1.410 . S
C1091 C1099 1.503 . S
C1092 C1091 1.410 . S
C1092 C1093 1.392 . S
C1092 C1095 1.511 . S
C1093 C1089 1.376 . S
C1093 C1092 1.392 . S
C1093 H1105 0.929 . S
C1094 C1090 1.531 . S
C1094 H1106 0.960 . S
C1094 H1107 0.962 . S
C1094 H1108 0.960 . S
C1095 C1092 1.511 . S
C1095 H1109 0.961 . S
C1095 H1110 0.961 . S
C1095 H1111 0.961 . S
C1096 C1097 1.370 . S
C1096 C1098 1.363 . S
C1096 H1112 0.931 . S
C1097 C1096 1.370 . S
C1097 C1101 1.408 . S
C1098 C1096 1.363 . S
C1098 C1099 1.370 . S
C1098 C1102 1.524 . S
C1099 C1091 1.503 . S
C1099 C1098 1.370 . S
C1099 C1100 1.403 . S
C1100 C1099 1.403 . S
C1100 C1101 1.404 . S
C1100 C1103 1.539 . S
C1101 C1097 1.408 . S
C1101 C1100 1.404 . S
C1101 H1113 0.930 . S
C1102 C1098 1.524 . S
C1102 H1114 0.956 . S
C1102 H1115 0.961 . S
C1102 H1116 0.961 . S
C1103 C1100 1.539 . S
C1103 H1117 0.958 . S
C1103 H1118 0.961 . S
C1103 H1119 0.960 . S
H1104 C1088 0.931 . S
H1105 C1093 0.929 . S
H1106 C1094 0.960 . S
H1107 C1094 0.962 . S
H1108 C1094 0.960 . S
H1109 C1095 0.961 . S
H1110 C1095 0.961 . S
H1111 C1095 0.961 . S
H1112 C1096 0.931 . S
H1113 C1101 0.930 . S
H1114 C1102 0.956 . S
H1115 C1102 0.961 . S
H1116 C1102 0.961 . S
H1117 C1103 0.958 . S
H1118 C1103 0.961 . S
H1119 C1103 0.960 . S
C1120 C1121 1.391 . S
C1120 C1122 1.394 . S
C1120 H1136 0.931 . S
C1121 C1120 1.391 . S
C1121 C1125 1.376 . S
C1122 C1120 1.394 . S
C1122 C1123 1.369 . S
C1122 C1126 1.531 . S
C1123 C1122 1.369 . S
C1123 C1124 1.410 . S
C1123 C1131 1.503 . S
C1124 C1123 1.410 . S
C1124 C1125 1.392 . S
C1124 C1127 1.511 . S
C1125 C1121 1.376 . S
C1125 C1124 1.392 . S
C1125 H1137 0.929 . S
C1126 C1122 1.531 . S
C1126 H1138 0.960 . S
C1126 H1139 0.962 . S
C1126 H1140 0.960 . S
C1127 C1124 1.511 . S
C1127 H1141 0.961 . S
C1127 H1142 0.961 . S
C1127 H1143 0.961 . S
C1128 C1129 1.370 . S
C1128 C1130 1.363 . S
C1128 H1144 0.931 . S
C1129 C1128 1.370 . S
C1129 C1133 1.408 . S
C1130 C1128 1.363 . S
C1130 C1131 1.370 . S
C1130 C1134 1.524 . S
C1131 C1123 1.503 . S
C1131 C1130 1.370 . S
C1131 C1132 1.403 . S
C1132 C1131 1.403 . S
C1132 C1133 1.404 . S
C1132 C1135 1.539 . S
C1133 C1129 1.408 . S
C1133 C1132 1.404 . S
C1133 H1145 0.930 . S
C1134 C1130 1.524 . S
C1134 H1146 0.956 . S
C1134 H1147 0.961 . S
C1134 H1148 0.961 . S
C1135 C1132 1.539 . S
C1135 H1149 0.958 . S
C1135 H1150 0.961 . S
C1135 H1151 0.960 . S
H1136 C1120 0.931 . S
H1137 C1125 0.929 . S
H1138 C1126 0.960 . S
H1139 C1126 0.962 . S
H1140 C1126 0.960 . S
H1141 C1127 0.961 . S
H1142 C1127 0.961 . S
H1143 C1127 0.961 . S
H1144 C1128 0.931 . S
H1145 C1133 0.930 . S
H1146 C1134 0.956 . S
H1147 C1134 0.961 . S
H1148 C1134 0.961 . S
H1149 C1135 0.958 . S
H1150 C1135 0.961 . S
H1151 C1135 0.960 . S
C1152 C1153 1.391 . S
C1152 C1154 1.394 . S
C1152 H1168 0.931 . S
C1153 C1152 1.391 . S
C1153 C1157 1.376 . S
C1154 C1152 1.394 . S
C1154 C1155 1.369 . S
C1154 C1158 1.531 . S
C1155 C1154 1.369 . S
C1155 C1156 1.410 . S
C1155 C1163 1.503 . S
C1156 C1155 1.410 . S
C1156 C1157 1.392 . S
C1156 C1159 1.511 . S
C1157 C1153 1.376 . S
C1157 C1156 1.392 . S
C1157 H1169 0.929 . S
C1158 C1154 1.531 . S
C1158 H1170 0.960 . S
C1158 H1171 0.962 . S
C1158 H1172 0.960 . S
C1159 C1156 1.511 . S
C1159 H1173 0.961 . S
C1159 H1174 0.961 . S
C1159 H1175 0.961 . S
C1160 C1161 1.370 . S
C1160 C1162 1.363 . S
C1160 H1176 0.931 . S
C1161 C1160 1.370 . S
C1161 C1165 1.408 . S
C1162 C1160 1.363 . S
C1162 C1163 1.370 . S
C1162 C1166 1.524 . S
C1163 C1155 1.503 . S
C1163 C1162 1.370 . S
C1163 C1164 1.403 . S
C1164 C1163 1.403 . S
C1164 C1165 1.404 . S
C1164 C1167 1.539 . S
C1165 C1161 1.408 . S
C1165 C1164 1.404 . S
C1165 H1177 0.930 . S
C1166 C1162 1.524 . S
C1166 H1178 0.956 . S
C1166 H1179 0.961 . S
C1166 H1180 0.961 . S
C1167 C1164 1.539 . S
C1167 H1181 0.958 . S
C1167 H1182 0.961 . S
C1167 H1183 0.960 . S
H1168 C1152 0.931 . S
H1169 C1157 0.929 . S
H1170 C1158 0.960 . S
H1171 C1158 0.962 . S
H1172 C1158 0.960 . S
H1173 C1159 0.961 . S
H1174 C1159 0.961 . S
H1175 C1159 0.961 . S
H1176 C1160 0.931 . S
H1177 C1165 0.930 . S
H1178 C1166 0.956 . S
H1179 C1166 0.961 . S
H1180 C1166 0.961 . S
H1181 C1167 0.958 . S
H1182 C1167 0.961 . S
H1183 C1167 0.960 . S
C1184 C1185 1.391 . S
C1184 C1186 1.394 . S
C1184 H1200 0.931 . S
C1185 C1184 1.391 . S
C1185 C1189 1.376 . S
C1186 C1184 1.394 . S
C1186 C1187 1.369 . S
C1186 C1190 1.531 . S
C1187 C1186 1.369 . S
C1187 C1188 1.410 . S
C1187 C1195 1.503 . S
C1188 C1187 1.410 . S
C1188 C1189 1.392 . S
C1188 C1191 1.511 . S
C1189 C1185 1.376 . S
C1189 C1188 1.392 . S
C1189 H1201 0.929 . S
C1190 C1186 1.531 . S
C1190 H1202 0.960 . S
C1190 H1203 0.962 . S
C1190 H1204 0.960 . S
C1191 C1188 1.511 . S
C1191 H1205 0.961 . S
C1191 H1206 0.961 . S
C1191 H1207 0.961 . S
C1192 C1193 1.370 . S
C1192 C1194 1.363 . S
C1192 H1208 0.931 . S
C1193 C1192 1.370 . S
C1193 C1197 1.408 . S
C1194 C1192 1.363 . S
C1194 C1195 1.370 . S
C1194 C1198 1.524 . S
C1195 C1187 1.503 . S
C1195 C1194 1.370 . S
C1195 C1196 1.403 . S
C1196 C1195 1.403 . S
C1196 C1197 1.404 . S
C1196 C1199 1.539 . S
C1197 C1193 1.408 . S
C1197 C1196 1.404 . S
C1197 H1209 0.930 . S
C1198 C1194 1.524 . S
C1198 H1210 0.956 . S
C1198 H1211 0.961 . S
C1198 H1212 0.961 . S
C1199 C1196 1.539 . S
C1199 H1213 0.958 . S
C1199 H1214 0.961 . S
C1199 H1215 0.960 . S
H1200 C1184 0.931 . S
H1201 C1189 0.929 . S
H1202 C1190 0.960 . S
H1203 C1190 0.962 . S
H1204 C1190 0.960 . S
H1205 C1191 0.961 . S
H1206 C1191 0.961 . S
H1207 C1191 0.961 . S
H1208 C1192 0.931 . S
H1209 C1197 0.930 . S
H1210 C1198 0.956 . S
H1211 C1198 0.961 . S
H1212 C1198 0.961 . S
H1213 C1199 0.958 . S
H1214 C1199 0.961 . S
H1215 C1199 0.960 . S
C1216 C1217 1.391 . S
C1216 C1218 1.394 . S
C1216 H1232 0.931 . S
C1217 C1216 1.391 . S
C1217 C1221 1.376 . S
C1218 C1216 1.394 . S
C1218 C1219 1.369 . S
C1218 C1222 1.531 . S
C1219 C1218 1.369 . S
C1219 C1220 1.410 . S
C1219 C1227 1.503 . S
C1220 C1219 1.410 . S
C1220 C1221 1.392 . S
C1220 C1223 1.511 . S
C1221 C1217 1.376 . S
C1221 C1220 1.392 . S
C1221 H1233 0.929 . S
C1222 C1218 1.531 . S
C1222 H1234 0.960 . S
C1222 H1235 0.962 . S
C1222 H1236 0.960 . S
C1223 C1220 1.511 . S
C1223 H1237 0.961 . S
C1223 H1238 0.961 . S
C1223 H1239 0.961 . S
C1224 C1225 1.370 . S
C1224 C1226 1.363 . S
C1224 H1240 0.931 . S
C1225 C1224 1.370 . S
C1225 C1229 1.408 . S
C1226 C1224 1.363 . S
C1226 C1227 1.370 . S
C1226 C1230 1.524 . S
C1227 C1219 1.503 . S
C1227 C1226 1.370 . S
C1227 C1228 1.403 . S
C1228 C1227 1.403 . S
C1228 C1229 1.404 . S
C1228 C1231 1.539 . S
C1229 C1225 1.408 . S
C1229 C1228 1.404 . S
C1229 H1241 0.930 . S
C1230 C1226 1.524 . S
C1230 H1242 0.956 . S
C1230 H1243 0.961 . S
C1230 H1244 0.961 . S
C1231 C1228 1.539 . S
C1231 H1245 0.958 . S
C1231 H1246 0.961 . S
C1231 H1247 0.960 . S
H1232 C1216 0.931 . S
H1233 C1221 0.929 . S
H1234 C1222 0.960 . S
H1235 C1222 0.962 . S
H1236 C1222 0.960 . S
H1237 C1223 0.961 . S
H1238 C1223 0.961 . S
H1239 C1223 0.961 . S
H1240 C1224 0.931 . S
H1241 C1229 0.930 . S
H1242 C1230 0.956 . S
H1243 C1230 0.961 . S
H1244 C1230 0.961 . S
H1245 C1231 0.958 . S
H1246 C1231 0.961 . S
H1247 C1231 0.960 . S
C1248 C1249 1.391 . S
C1248 C1250 1.394 . S
C1248 H1264 0.931 . S
C1249 C1248 1.391 . S
C1249 C1253 1.376 . S
C1250 C1248 1.394 . S
C1250 C1251 1.369 . S
C1250 C1254 1.531 . S
C1251 C1250 1.369 . S
C1251 C1252 1.410 . S
C1251 C1259 1.503 . S
C1252 C1251 1.410 . S
C1252 C1253 1.392 . S
C1252 C1255 1.511 . S
C1253 C1249 1.376 . S
C1253 C1252 1.392 . S
C1253 H1265 0.929 . S
C1254 C1250 1.531 . S
C1254 H1266 0.960 . S
C1254 H1267 0.962 . S
C1254 H1268 0.960 . S
C1255 C1252 1.511 . S
C1255 H1269 0.961 . S
C1255 H1270 0.961 . S
C1255 H1271 0.961 . S
C1256 C1257 1.370 . S
C1256 C1258 1.363 . S
C1256 H1272 0.931 . S
C1257 C1256 1.370 . S
C1257 C1261 1.408 . S
C1258 C1256 1.363 . S
C1258 C1259 1.370 . S
C1258 C1262 1.524 . S
C1259 C1251 1.503 . S
C1259 C1258 1.370 . S
C1259 C1260 1.403 . S
C1260 C1259 1.403 . S
C1260 C1261 1.404 . S
C1260 C1263 1.539 . S
C1261 C1257 1.408 . S
C1261 C1260 1.404 . S
C1261 H1273 0.930 . S
C1262 C1258 1.524 . S
C1262 H1274 0.956 . S
C1262 H1275 0.961 . S
C1262 H1276 0.961 . S
C1263 C1260 1.539 . S
C1263 H1277 0.958 . S
C1263 H1278 0.961 . S
C1263 H1279 0.960 . S
H1264 C1248 0.931 . S
H1265 C1253 0.929 . S
H1266 C1254 0.960 . S
H1267 C1254 0.962 . S
H1268 C1254 0.960 . S
H1269 C1255 0.961 . S
H1270 C1255 0.961 . S
H1271 C1255 0.961 . S
H1272 C1256 0.931 . S
H1273 C1261 0.930 . S
H1274 C1262 0.956 . S
H1275 C1262 0.961 . S
H1276 C1262 0.961 . S
H1277 C1263 0.958 . S
H1278 C1263 0.961 . S
H1279 C1263 0.960 . S
C1280 C1281 1.391 . S
C1280 C1282 1.394 . S
C1280 H1296 0.931 . S
C1281 C1280 1.391 . S
C1281 C1285 1.376 . S
C1282 C1280 1.394 . S
C1282 C1283 1.369 . S
C1282 C1286 1.531 . S
C1283 C1282 1.369 . S
C1283 C1284 1.410 . S
C1283 C1291 1.503 . S
C1284 C1283 1.410 . S
C1284 C1285 1.392 . S
C1284 C1287 1.511 . S
C1285 C1281 1.376 . S
C1285 C1284 1.392 . S
C1285 H1297 0.929 . S
C1286 C1282 1.531 . S
C1286 H1298 0.960 . S
C1286 H1299 0.962 . S
C1286 H1300 0.960 . S
C1287 C1284 1.511 . S
C1287 H1301 0.961 . S
C1287 H1302 0.961 . S
C1287 H1303 0.961 . S
C1288 C1289 1.370 . S
C1288 C1290 1.363 . S
C1288 H1304 0.931 . S
C1289 C1288 1.370 . S
C1289 C1293 1.408 . S
C1290 C1288 1.363 . S
C1290 C1291 1.370 . S
C1290 C1294 1.524 . S
C1291 C1283 1.503 . S
C1291 C1290 1.370 . S
C1291 C1292 1.403 . S
C1292 C1291 1.403 . S
C1292 C1293 1.404 . S
C1292 C1295 1.539 . S
C1293 C1289 1.408 . S
C1293 C1292 1.404 . S
C1293 H1305 0.930 . S
C1294 C1290 1.524 . S
C1294 H1306 0.956 . S
C1294 H1307 0.961 . S
C1294 H1308 0.961 . S
C1295 C1292 1.539 . S
C1295 H1309 0.958 . S
C1295 H1310 0.961 . S
C1295 H1311 0.960 . S
H1296 C1280 0.931 . S
H1297 C1285 0.929 . S
H1298 C1286 0.960 . S
H1299 C1286 0.962 . S
H1300 C1286 0.960 . S
H1301 C1287 0.961 . S
H1302 C1287 0.961 . S
H1303 C1287 0.961 . S
H1304 C1288 0.931 . S
H1305 C1293 0.930 . S
H1306 C1294 0.956 . S
H1307 C1294 0.961 . S
H1308 C1294 0.961 . S
H1309 C1295 0.958 . S
H1310 C1295 0.961 . S
H1311 C1295 0.960 . S
C1312 C1313 1.391 . S
C1312 C1314 1.394 . S
C1312 H1328 0.931 . S
C1313 C1312 1.391 . S
C1313 C1317 1.376 . S
C1314 C1312 1.394 . S
C1314 C1315 1.369 . S
C1314 C1318 1.531 . S
C1315 C1314 1.369 . S
C1315 C1316 1.410 . S
C1315 C1323 1.503 . S
C1316 C1315 1.410 . S
C1316 C1317 1.392 . S
C1316 C1319 1.511 . S
C1317 C1313 1.376 . S
C1317 C1316 1.392 . S
C1317 H1329 0.929 . S
C1318 C1314 1.531 . S
C1318 H1330 0.960 . S
C1318 H1331 0.962 . S
C1318 H1332 0.960 . S
C1319 C1316 1.511 . S
C1319 H1333 0.961 . S
C1319 H1334 0.961 . S
C1319 H1335 0.961 . S
C1320 C1321 1.370 . S
C1320 C1322 1.363 . S
C1320 H1336 0.931 . S
C1321 C1320 1.370 . S
C1321 C1325 1.408 . S
C1322 C1320 1.363 . S
C1322 C1323 1.370 . S
C1322 C1326 1.524 . S
C1323 C1315 1.503 . S
C1323 C1322 1.370 . S
C1323 C1324 1.403 . S
C1324 C1323 1.403 . S
C1324 C1325 1.404 . S
C1324 C1327 1.539 . S
C1325 C1321 1.408 . S
C1325 C1324 1.404 . S
C1325 H1337 0.930 . S
C1326 C1322 1.524 . S
C1326 H1338 0.956 . S
C1326 H1339 0.961 . S
C1326 H1340 0.961 . S
C1327 C1324 1.539 . S
C1327 H1341 0.958 . S
C1327 H1342 0.961 . S
C1327 H1343 0.960 . S
H1328 C1312 0.931 . S
H1329 C1317 0.929 . S
H1330 C1318 0.960 . S
H1331 C1318 0.962 . S
H1332 C1318 0.960 . S
H1333 C1319 0.961 . S
H1334 C1319 0.961 . S
H1335 C1319 0.961 . S
H1336 C1320 0.931 . S
H1337 C1325 0.930 . S
H1338 C1326 0.956 . S
H1339 C1326 0.961 . S
H1340 C1326 0.961 . S
H1341 C1327 0.958 . S
H1342 C1327 0.961 . S
H1343 C1327 0.960 . S
C1344 C1345 1.391 . S
C1344 C1346 1.394 . S
C1344 H1360 0.931 . S
C1345 C1344 1.391 . S
C1345 C1349 1.376 . S
C1346 C1344 1.394 . S
C1346 C1347 1.369 . S
C1346 C1350 1.531 . S
C1347 C1346 1.369 . S
C1347 C1348 1.410 . S
C1347 C1355 1.503 . S
C1348 C1347 1.410 . S
C1348 C1349 1.392 . S
C1348 C1351 1.511 . S
C1349 C1345 1.376 . S
C1349 C1348 1.392 . S
C1349 H1361 0.929 . S
C1350 C1346 1.531 . S
C1350 H1362 0.960 . S
C1350 H1363 0.962 . S
C1350 H1364 0.960 . S
C1351 C1348 1.511 . S
C1351 H1365 0.961 . S
C1351 H1366 0.961 . S
C1351 H1367 0.961 . S
C1352 C1353 1.370 . S
C1352 C1354 1.363 . S
C1352 H1368 0.931 . S
C1353 C1352 1.370 . S
C1353 C1357 1.408 . S
C1354 C1352 1.363 . S
C1354 C1355 1.370 . S
C1354 C1358 1.524 . S
C1355 C1347 1.503 . S
C1355 C1354 1.370 . S
C1355 C1356 1.403 . S
C1356 C1355 1.403 . S
C1356 C1357 1.404 . S
C1356 C1359 1.539 . S
C1357 C1353 1.408 . S
C1357 C1356 1.404 . S
C1357 H1369 0.930 . S
C1358 C1354 1.524 . S
C1358 H1370 0.956 . S
C1358 H1371 0.961 . S
C1358 H1372 0.961 . S
C1359 C1356 1.539 . S
C1359 H1373 0.958 . S
C1359 H1374 0.961 . S
C1359 H1375 0.960 . S
H1360 C1344 0.931 . S
H1361 C1349 0.929 . S
H1362 C1350 0.960 . S
H1363 C1350 0.962 . S
H1364 C1350 0.960 . S
H1365 C1351 0.961 . S
H1366 C1351 0.961 . S
H1367 C1351 0.961 . S
H1368 C1352 0.931 . S
H1369 C1357 0.930 . S
H1370 C1358 0.956 . S
H1371 C1358 0.961 . S
H1372 C1358 0.961 . S
H1373 C1359 0.958 . S
H1374 C1359 0.961 . S
H1375 C1359 0.960 . S
C1376 C1377 1.391 . S
C1376 C1378 1.394 . S
C1376 H1392 0.931 . S
C1377 C1376 1.391 . S
C1377 C1381 1.376 . S
C1378 C1376 1.394 . S
C1378 C1379 1.369 . S
C1378 C1382 1.531 . S
C1379 C1378 1.369 . S
C1379 C1380 1.410 . S
C1379 C1387 1.503 . S
C1380 C1379 1.410 . S
C1380 C1381 1.392 . S
C1380 C1383 1.511 . S
C1381 C1377 1.376 . S
C1381 C1380 1.392 . S
C1381 H1393 0.929 . S
C1382 C1378 1.531 . S
C1382 H1394 0.960 . S
C1382 H1395 0.962 . S
C1382 H1396 0.960 . S
C1383 C1380 1.511 . S
C1383 H1397 0.961 . S
C1383 H1398 0.961 . S
C1383 H1399 0.961 . S
C1384 C1385 1.370 . S
C1384 C1386 1.363 . S
C1384 H1400 0.931 . S
C1385 C1384 1.370 . S
C1385 C1389 1.408 . S
C1386 C1384 1.363 . S
C1386 C1387 1.370 . S
C1386 C1390 1.524 . S
C1387 C1379 1.503 . S
C1387 C1386 1.370 . S
C1387 C1388 1.403 . S
C1388 C1387 1.403 . S
C1388 C1389 1.404 . S
C1388 C1391 1.539 . S
C1389 C1385 1.408 . S
C1389 C1388 1.404 . S
C1389 H1401 0.930 . S
C1390 C1386 1.524 . S
C1390 H1402 0.956 . S
C1390 H1403 0.961 . S
C1390 H1404 0.961 . S
C1391 C1388 1.539 . S
C1391 H1405 0.958 . S
C1391 H1406 0.961 . S
C1391 H1407 0.960 . S
H1392 C1376 0.931 . S
H1393 C1381 0.929 . S
H1394 C1382 0.960 . S
H1395 C1382 0.962 . S
H1396 C1382 0.960 . S
H1397 C1383 0.961 . S
H1398 C1383 0.961 . S
H1399 C1383 0.961 . S
H1400 C1384 0.931 . S
H1401 C1389 0.930 . S
H1402 C1390 0.956 . S
H1403 C1390 0.961 . S
H1404 C1390 0.961 . S
H1405 C1391 0.958 . S
H1406 C1391 0.961 . S
H1407 C1391 0.960 . S
C1408 C1409 1.391 . S
C1408 C1410 1.394 . S
C1408 H1424 0.931 . S
C1409 C1408 1.391 . S
C1409 C1413 1.376 . S
C1410 C1408 1.394 . S
C1410 C1411 1.369 . S
C1410 C1414 1.531 . S
C1411 C1410 1.369 . S
C1411 C1412 1.410 . S
C1411 C1419 1.503 . S
C1412 C1411 1.410 . S
C1412 C1413 1.392 . S
C1412 C1415 1.511 . S
C1413 C1409 1.376 . S
C1413 C1412 1.392 . S
C1413 H1425 0.929 . S
C1414 C1410 1.531 . S
C1414 H1426 0.960 . S
C1414 H1427 0.962 . S
C1414 H1428 0.960 . S
C1415 C1412 1.511 . S
C1415 H1429 0.961 . S
C1415 H1430 0.961 . S
C1415 H1431 0.961 . S
C1416 C1417 1.370 . S
C1416 C1418 1.363 . S
C1416 H1432 0.931 . S
C1417 C1416 1.370 . S
C1417 C1421 1.408 . S
C1418 C1416 1.363 . S
C1418 C1419 1.370 . S
C1418 C1422 1.524 . S
C1419 C1411 1.503 . S
C1419 C1418 1.370 . S
C1419 C1420 1.403 . S
C1420 C1419 1.403 . S
C1420 C1421 1.404 . S
C1420 C1423 1.539 . S
C1421 C1417 1.408 . S
C1421 C1420 1.404 . S
C1421 H1433 0.930 . S
C1422 C1418 1.524 . S
C1422 H1434 0.956 . S
C1422 H1435 0.961 . S
C1422 H1436 0.961 . S
C1423 C1420 1.539 . S
C1423 H1437 0.958 . S
C1423 H1438 0.961 . S
C1423 H1439 0.960 . S
H1424 C1408 0.931 . S
H1425 C1413 0.929 . S
H1426 C1414 0.960 . S
H1427 C1414 0.962 . S
H1428 C1414 0.960 . S
H1429 C1415 0.961 . S
H1430 C1415 0.961 . S
H1431 C1415 0.961 . S
H1432 C1416 0.931 . S
H1433 C1421 0.930 . S
H1434 C1422 0.956 . S
H1435 C1422 0.961 . S
H1436 C1422 0.961 . S
H1437 C1423 0.958 . S
H1438 C1423 0.961 . S
H1439 C1423 0.960 . S
C1440 C1441 1.391 . S
C1440 C1442 1.394 . S
C1440 H1456 0.931 . S
C1441 C1440 1.391 . S
C1441 C1445 1.376 . S
C1442 C1440 1.394 . S
C1442 C1443 1.369 . S
C1442 C1446 1.531 . S
C1443 C1442 1.369 . S
C1443 C1444 1.410 . S
C1443 C1451 1.503 . S
C1444 C1443 1.410 . S
C1444 C1445 1.392 . S
C1444 C1447 1.511 . S
C1445 C1441 1.376 . S
C1445 C1444 1.392 . S
C1445 H1457 0.929 . S
C1446 C1442 1.531 . S
C1446 H1458 0.960 . S
C1446 H1459 0.962 . S
C1446 H1460 0.960 . S
C1447 C1444 1.511 . S
C1447 H1461 0.961 . S
C1447 H1462 0.961 . S
C1447 H1463 0.961 . S
C1448 C1449 1.370 . S
C1448 C1450 1.363 . S
C1448 H1464 0.931 . S
C1449 C1448 1.370 . S
C1449 C1453 1.408 . S
C1450 C1448 1.363 . S
C1450 C1451 1.370 . S
C1450 C1454 1.524 . S
C1451 C1443 1.503 . S
C1451 C1450 1.370 . S
C1451 C1452 1.403 . S
C1452 C1451 1.403 . S
C1452 C1453 1.404 . S
C1452 C1455 1.539 . S
C1453 C1449 1.408 . S
C1453 C1452 1.404 . S
C1453 H1465 0.930 . S
C1454 C1450 1.524 . S
C1454 H1466 0.956 . S
C1454 H1467 0.961 . S
C1454 H1468 0.961 . S
C1455 C1452 1.539 . S
C1455 H1469 0.958 . S
C1455 H1470 0.961 . S
C1455 H1471 0.960 . S
H1456 C1440 0.931 . S
H1457 C1445 0.929 . S
H1458 C1446 0.960 . S
H1459 C1446 0.962 . S
H1460 C1446 0.960 . S
H1461 C1447 0.961 . S
H1462 C1447 0.961 . S
H1463 C1447 0.961 . S
H1464 C1448 0.931 . S
H1465 C1453 0.930 . S
H1466 C1454 0.956 . S
H1467 C1454 0.961 . S
H1468 C1454 0.961 . S
H1469 C1455 0.958 . S
H1470 C1455 0.961 . S
H1471 C1455 0.960 . S
C1472 C1473 1.391 . S
C1472 C1474 1.394 . S
C1472 H1488 0.931 . S
C1473 C1472 1.391 . S
C1473 C1477 1.376 . S
C1474 C1472 1.394 . S
C1474 C1475 1.369 . S
C1474 C1478 1.531 . S
C1475 C1474 1.369 . S
C1475 C1476 1.410 . S
C1475 C1483 1.503 . S
C1476 C1475 1.410 . S
C1476 C1477 1.392 . S
C1476 C1479 1.511 . S
C1477 C1473 1.376 . S
C1477 C1476 1.392 . S
C1477 H1489 0.929 . S
C1478 C1474 1.531 . S
C1478 H1490 0.960 . S
C1478 H1491 0.962 . S
C1478 H1492 0.960 . S
C1479 C1476 1.511 . S
C1479 H1493 0.961 . S
C1479 H1494 0.961 . S
C1479 H1495 0.961 . S
C1480 C1481 1.370 . S
C1480 C1482 1.363 . S
C1480 H1496 0.931 . S
C1481 C1480 1.370 . S
C1481 C1485 1.408 . S
C1482 C1480 1.363 . S
C1482 C1483 1.370 . S
C1482 C1486 1.524 . S
C1483 C1475 1.503 . S
C1483 C1482 1.370 . S
C1483 C1484 1.403 . S
C1484 C1483 1.403 . S
C1484 C1485 1.404 . S
C1484 C1487 1.539 . S
C1485 C1481 1.408 . S
C1485 C1484 1.404 . S
C1485 H1497 0.930 . S
C1486 C1482 1.524 . S
C1486 H1498 0.956 . S
C1486 H1499 0.961 . S
C1486 H1500 0.961 . S
C1487 C1484 1.539 . S
C1487 H1501 0.958 . S
C1487 H1502 0.961 . S
C1487 H1503 0.960 . S
H1488 C1472 0.931 . S
H1489 C1477 0.929 . S
H1490 C1478 0.960 . S
H1491 C1478 0.962 . S
H1492 C1478 0.960 . S
H1493 C1479 0.961 . S
H1494 C1479 0.961 . S
H1495 C1479 0.961 . S
H1496 C1480 0.931 . S
H1497 C1485 0.930 . S
H1498 C1486 0.956 . S
H1499 C1486 0.961 . S
H1500 C1486 0.961 . S
H1501 C1487 0.958 . S
H1502 C1487 0.961 . S
H1503 C1487 0.960 . S
C1504 C1505 1.391 . S
C1504 C1506 1.394 . S
C1504 H1520 0.931 . S
C1505 C1504 1.391 . S
C1505 C1509 1.376 . S
C1506 C1504 1.394 . S
C1506 C1507 1.369 . S
C1506 C1510 1.531 . S
C1507 C1506 1.369 . S
C1507 C1508 1.410 . S
C1507 C1515 1.503 . S
C1508 C1507 1.410 . S
C1508 C1509 1.392 . S
C1508 C1511 1.511 . S
C1509 C1505 1.376 . S
C1509 C1508 1.392 . S
C1509 H1521 0.929 . S
C1510 C1506 1.531 . S
C1510 H1522 0.960 . S
C1510 H1523 0.962 . S
C1510 H1524 0.960 . S
C1511 C1508 1.511 . S
C1511 H1525 0.961 . S
C1511 H1526 0.961 . S
C1511 H1527 0.961 . S
C1512 C1513 1.370 . S
C1512 C1514 1.363 . S
C1512 H1528 0.931 . S
C1513 C1512 1.370 . S
C1513 C1517 1.408 . S
C1514 C1512 1.363 . S
C1514 C1515 1.370 . S
C1514 C1518 1.524 . S
C1515 C1507 1.503 . S
C1515 C1514 1.370 . S
C1515 C1516 1.403 . S
C1516 C1515 1.403 . S
C1516 C1517 1.404 . S
C1516 C1519 1.539 . S
C1517 C1513 1.408 . S
C1517 C1516 1.404 . S
C1517 H1529 0.930 . S
C1518 C1514 1.524 . S
C1518 H1530 0.956 . S
C1518 H1531 0.961 . S
C1518 H1532 0.961 . S
C1519 C1516 1.539 . S
C1519 H1533 0.958 . S
C1519 H1534 0.961 . S
C1519 H1535 0.960 . S
H1520 C1504 0.931 . S
H1521 C1509 0.929 . S
H1522 C1510 0.960 . S
H1523 C1510 0.962 . S
H1524 C1510 0.960 . S
H1525 C1511 0.961 . S
H1526 C1511 0.961 . S
H1527 C1511 0.961 . S
H1528 C1512 0.931 . S
H1529 C1517 0.930 . S
H1530 C1518 0.956 . S
H1531 C1518 0.961 . S
H1532 C1518 0.961 . S
H1533 C1519 0.958 . S
H1534 C1519 0.961 . S
H1535 C1519 0.960 . S
C1536 C1537 1.391 . S
C1536 C1538 1.394 . S
C1536 H1552 0.931 . S
C1537 C1536 1.391 . S
C1537 C1541 1.376 . S
C1538 C1536 1.394 . S
C1538 C1539 1.369 . S
C1538 C1542 1.531 . S
C1539 C1538 1.369 . S
C1539 C1540 1.410 . S
C1539 C1547 1.503 . S
C1540 C1539 1.410 . S
C1540 C1541 1.392 . S
C1540 C1543 1.511 . S
C1541 C1537 1.376 . S
C1541 C1540 1.392 . S
C1541 H1553 0.929 . S
C1542 C1538 1.531 . S
C1542 H1554 0.960 . S
C1542 H1555 0.962 . S
C1542 H1556 0.960 . S
C1543 C1540 1.511 . S
C1543 H1557 0.961 . S
C1543 H1558 0.961 . S
C1543 H1559 0.961 . S
C1544 C1545 1.370 . S
C1544 C1546 1.363 . S
C1544 H1560 0.931 . S
C1545 C1544 1.370 . S
C1545 C1549 1.408 . S
C1546 C1544 1.363 . S
C1546 C1547 1.370 . S
C1546 C1550 1.524 . S
C1547 C1539 1.503 . S
C1547 C1546 1.370 . S
C1547 C1548 1.403 . S
C1548 C1547 1.403 . S
C1548 C1549 1.404 . S
C1548 C1551 1.539 . S
C1549 C1545 1.408 . S
C1549 C1548 1.404 . S
C1549 H1561 0.930 . S
C1550 C1546 1.524 . S
C1550 H1562 0.956 . S
C1550 H1563 0.961 . S
C1550 H1564 0.961 . S
C1551 C1548 1.539 . S
C1551 H1565 0.958 . S
C1551 H1566 0.961 . S
C1551 H1567 0.960 . S
H1552 C1536 0.931 . S
H1553 C1541 0.929 . S
H1554 C1542 0.960 . S
H1555 C1542 0.962 . S
H1556 C1542 0.960 . S
H1557 C1543 0.961 . S
H1558 C1543 0.961 . S
H1559 C1543 0.961 . S
H1560 C1544 0.931 . S
H1561 C1549 0.930 . S
H1562 C1550 0.956 . S
H1563 C1550 0.961 . S
H1564 C1550 0.961 . S
H1565 C1551 0.958 . S
H1566 C1551 0.961 . S
H1567 C1551 0.960 . S
C1568 C1569 1.391 . S
C1568 C1570 1.394 . S
C1568 H1584 0.931 . S
C1569 C1568 1.391 . S
C1569 C1573 1.376 . S
C1570 C1568 1.394 . S
C1570 C1571 1.369 . S
C1570 C1574 1.531 . S
C1571 C1570 1.369 . S
C1571 C1572 1.410 . S
C1571 C1579 1.503 . S
C1572 C1571 1.410 . S
C1572 C1573 1.392 . S
C1572 C1575 1.511 . S
C1573 C1569 1.376 . S
C1573 C1572 1.392 . S
C1573 H1585 0.929 . S
C1574 C1570 1.531 . S
C1574 H1586 0.960 . S
C1574 H1587 0.962 . S
C1574 H1588 0.960 . S
C1575 C1572 1.511 . S
C1575 H1589 0.961 . S
C1575 H1590 0.961 . S
C1575 H1591 0.961 . S
C1576 C1577 1.370 . S
C1576 C1578 1.363 . S
C1576 H1592 0.931 . S
C1577 C1576 1.370 . S
C1577 C1581 1.408 . S
C1578 C1576 1.363 . S
C1578 C1579 1.370 . S
C1578 C1582 1.524 . S
C1579 C1571 1.503 . S
C1579 C1578 1.370 . S
C1579 C1580 1.403 . S
C1580 C1579 1.403 . S
C1580 C1581 1.404 . S
C1580 C1583 1.539 . S
C1581 C1577 1.408 . S
C1581 C1580 1.404 . S
C1581 H1593 0.930 . S
C1582 C1578 1.524 . S
C1582 H1594 0.956 . S
C1582 H1595 0.961 . S
C1582 H1596 0.961 . S
C1583 C1580 1.539 . S
C1583 H1597 0.958 . S
C1583 H1598 0.961 . S
C1583 H1599 0.960 . S
H1584 C1568 0.931 . S
H1585 C1573 0.929 . S
H1586 C1574 0.960 . S
H1587 C1574 0.962 . S
H1588 C1574 0.960 . S
H1589 C1575 0.961 . S
H1590 C1575 0.961 . S
H1591 C1575 0.961 . S
H1592 C1576 0.931 . S
H1593 C1581 0.930 . S
H1594 C1582 0.956 . S
H1595 C1582 0.961 . S
H1596 C1582 0.961 . S
H1597 C1583 0.958 . S
H1598 C1583 0.961 . S
H1599 C1583 0.960 . S
C1600 C1601 1.391 . S
C1600 C1602 1.394 . S
C1600 H1616 0.931 . S
C1601 C1600 1.391 . S
C1601 C1605 1.376 . S
C1602 C1600 1.394 . S
C1602 C1603 1.369 . S
C1602 C1606 1.531 . S
C1603 C1602 1.369 . S
C1603 C1604 1.410 . S
C1603 C1611 1.503 . S
C1604 C1603 1.410 . S
C1604 C1605 1.392 . S
C1604 C1607 1.511 . S
C1605 C1601 1.376 . S
C1605 C1604 1.392 . S
C1605 H1617 0.929 . S
C1606 C1602 1.531 . S
C1606 H1618 0.960 . S
C1606 H1619 0.962 . S
C1606 H1620 0.960 . S
C1607 C1604 1.511 . S
C1607 H1621 0.961 . S
C1607 H1622 0.961 . S
C1607 H1623 0.961 . S
C1608 C1609 1.370 . S
C1608 C1610 1.363 . S
C1608 H1624 0.931 . S
C1609 C1608 1.370 . S
C1609 C1613 1.408 . S
C1610 C1608 1.363 . S
C1610 C1611 1.370 . S
C1610 C1614 1.524 . S
C1611 C1603 1.503 . S
C1611 C1610 1.370 . S
C1611 C1612 1.403 . S
C1612 C1611 1.403 . S
C1612 C1613 1.404 . S
C1612 C1615 1.539 . S
C1613 C1609 1.408 . S
C1613 C1612 1.404 . S
C1613 H1625 0.930 . S
C1614 C1610 1.524 . S
C1614 H1626 0.956 . S
C1614 H1627 0.961 . S
C1614 H1628 0.961 . S
C1615 C1612 1.539 . S
C1615 H1629 0.958 . S
C1615 H1630 0.961 . S
C1615 H1631 0.960 . S
H1616 C1600 0.931 . S
H1617 C1605 0.929 . S
H1618 C1606 0.960 . S
H1619 C1606 0.962 . S
H1620 C1606 0.960 . S
H1621 C1607 0.961 . S
H1622 C1607 0.961 . S
H1623 C1607 0.961 . S
H1624 C1608 0.931 . S
H1625 C1613 0.930 . S
H1626 C1614 0.956 . S
H1627 C1614 0.961 . S
H1628 C1614 0.961 . S
H1629 C1615 0.958 . S
H1630 C1615 0.961 . S
H1631 C1615 0.960 . S
C1632 C1633 1.391 . S
C1632 C1634 1.394 . S
C1632 H1648 0.931 . S
C1633 C1632 1.391 . S
C1633 C1637 1.376 . S
C1634 C1632 1.394 . S
C1634 C1635 1.369 . S
C1634 C1638 1.531 . S
C1635 C1634 1.369 . S
C1635 C1636 1.410 . S
C1635 C1643 1.503 . S
C1636 C1635 1.410 . S
C1636 C1637 1.392 . S
C1636 C1639 1.511 . S
C1637 C1633 1.376 . S
C1637 C1636 1.392 . S
C1637 H1649 0.929 . S
C1638 C1634 1.531 . S
C1638 H1650 0.960 . S
C1638 H1651 0.962 . S
C1638 H1652 0.960 . S
C1639 C1636 1.511 . S
C1639 H1653 0.961 . S
C1639 H1654 0.961 . S
C1639 H1655 0.961 . S
C1640 C1641 1.370 . S
C1640 C1642 1.363 . S
C1640 H1656 0.931 . S
C1641 C1640 1.370 . S
C1641 C1645 1.408 . S
C1642 C1640 1.363 . S
C1642 C1643 1.370 . S
C1642 C1646 1.524 . S
C1643 C1635 1.503 . S
C1643 C1642 1.370 . S
C1643 C1644 1.403 . S
C1644 C1643 1.403 . S
C1644 C1645 1.404 . S
C1644 C1647 1.539 . S
C1645 C1641 1.408 . S
C1645 C1644 1.404 . S
C1645 H1657 0.930 . S
C1646 C1642 1.524 . S
C1646 H1658 0.956 . S
C1646 H1659 0.961 . S
C1646 H1660 0.961 . S
C1647 C1644 1.539 . S
C1647 H1661 0.958 . S
C1647 H1662 0.961 . S
C1647 H1663 0.960 . S
H1648 C1632 0.931 . S
H1649 C1637 0.929 . S
H1650 C1638 0.960 . S
H1651 C1638 0.962 . S
H1652 C1638 0.960 . S
H1653 C1639 0.961 . S
H1654 C1639 0.961 . S
H1655 C1639 0.961 . S
H1656 C1640 0.931 . S
H1657 C1645 0.930 . S
H1658 C1646 0.956 . S
H1659 C1646 0.961 . S
H1660 C1646 0.961 . S
H1661 C1647 0.958 . S
H1662 C1647 0.961 . S
H1663 C1647 0.960 . S
C1664 C1665 1.391 . S
C1664 C1666 1.394 . S
C1664 H1680 0.931 . S
C1665 C1664 1.391 . S
C1665 C1669 1.376 . S
C1666 C1664 1.394 . S
C1666 C1667 1.369 . S
C1666 C1670 1.531 . S
C1667 C1666 1.369 . S
C1667 C1668 1.410 . S
C1667 C1675 1.503 . S
C1668 C1667 1.410 . S
C1668 C1669 1.392 . S
C1668 C1671 1.511 . S
C1669 C1665 1.376 . S
C1669 C1668 1.392 . S
C1669 H1681 0.929 . S
C1670 C1666 1.531 . S
C1670 H1682 0.960 . S
C1670 H1683 0.962 . S
C1670 H1684 0.960 . S
C1671 C1668 1.511 . S
C1671 H1685 0.961 . S
C1671 H1686 0.961 . S
C1671 H1687 0.961 . S
C1672 C1673 1.370 . S
C1672 C1674 1.363 . S
C1672 H1688 0.931 . S
C1673 C1672 1.370 . S
C1673 C1677 1.408 . S
C1674 C1672 1.363 . S
C1674 C1675 1.370 . S
C1674 C1678 1.524 . S
C1675 C1667 1.503 . S
C1675 C1674 1.370 . S
C1675 C1676 1.403 . S
C1676 C1675 1.403 . S
C1676 C1677 1.404 . S
C1676 C1679 1.539 . S
C1677 C1673 1.408 . S
C1677 C1676 1.404 . S
C1677 H1689 0.930 . S
C1678 C1674 1.524 . S
C1678 H1690 0.956 . S
C1678 H1691 0.961 . S
C1678 H1692 0.961 . S
C1679 C1676 1.539 . S
C1679 H1693 0.958 . S
C1679 H1694 0.961 . S
C1679 H1695 0.960 . S
H1680 C1664 0.931 . S
H1681 C1669 0.929 . S
H1682 C1670 0.960 . S
H1683 C1670 0.962 . S
H1684 C1670 0.960 . S
H1685 C1671 0.961 . S
H1686 C1671 0.961 . S
H1687 C1671 0.961 . S
H1688 C1672 0.931 . S
H1689 C1677 0.930 . S
H1690 C1678 0.956 . S
H1691 C1678 0.961 . S
H1692 C1678 0.961 . S
H1693 C1679 0.958 . S
H1694 C1679 0.961 . S
H1695 C1679 0.960 . S
C1696 C1697 1.391 . S
C1696 C1698 1.394 . S
C1696 H1712 0.931 . S
C1697 C1696 1.391 . S
C1697 C1701 1.376 . S
C1698 C1696 1.394 . S
C1698 C1699 1.369 . S
C1698 C1702 1.531 . S
C1699 C1698 1.369 . S
C1699 C1700 1.410 . S
C1699 C1707 1.503 . S
C1700 C1699 1.410 . S
C1700 C1701 1.392 . S
C1700 C1703 1.511 . S
C1701 C1697 1.376 . S
C1701 C1700 1.392 . S
C1701 H1713 0.929 . S
C1702 C1698 1.531 . S
C1702 H1714 0.960 . S
C1702 H1715 0.962 . S
C1702 H1716 0.960 . S
C1703 C1700 1.511 . S
C1703 H1717 0.961 . S
C1703 H1718 0.961 . S
C1703 H1719 0.961 . S
C1704 C1705 1.370 . S
C1704 C1706 1.363 . S
C1704 H1720 0.931 . S
C1705 C1704 1.370 . S
C1705 C1709 1.408 . S
C1706 C1704 1.363 . S
C1706 C1707 1.370 . S
C1706 C1710 1.524 . S
C1707 C1699 1.503 . S
C1707 C1706 1.370 . S
C1707 C1708 1.403 . S
C1708 C1707 1.403 . S
C1708 C1709 1.404 . S
C1708 C1711 1.539 . S
C1709 C1705 1.408 . S
C1709 C1708 1.404 . S
C1709 H1721 0.930 . S
C1710 C1706 1.524 . S
C1710 H1722 0.956 . S
C1710 H1723 0.961 . S
C1710 H1724 0.961 . S
C1711 C1708 1.539 . S
C1711 H1725 0.958 . S
C1711 H1726 0.961 . S
C1711 H1727 0.960 . S
H1712 C1696 0.931 . S
H1713 C1701 0.929 . S
H1714 C1702 0.960 . S
H1715 C1702 0.962 . S
H1716 C1702 0.960 . S
H1717 C1703 0.961 . S
H1718 C1703 0.961 . S
H1719 C1703 0.961 . S
H1720 C1704 0.931 . S
H1721 C1709 0.930 . S
H1722 C1710 0.956 . S
H1723 C1710 0.961 . S
H1724 C1710 0.961 . S
H1725 C1711 0.958 . S
H1726 C1711 0.961 . S
H1727 C1711 0.960 . S
C1728 C1729 1.391 . S
C1728 C1730 1.394 . S
C1728 H1744 0.931 . S
C1729 C1728 1.391 . S
C1729 C1733 1.376 . S
C1730 C1728 1.394 . S
C1730 C1731 1.369 . S
C1730 C1734 1.531 . S
C1731 C1730 1.369 . S
C1731 C1732 1.410 . S
C1731 C1739 1.503 . S
C1732 C1731 1.410 . S
C1732 C1733 1.392 . S
C1732 C1735 1.511 . S
C1733 C1729 1.376 . S
C1733 C1732 1.392 . S
C1733 H1745 0.929 . S
C1734 C1730 1.531 . S
C1734 H1746 0.960 . S
C1734 H1747 0.962 . S
C1734 H1748 0.960 . S
C1735 C1732 1.511 . S
C1735 H1749 0.961 . S
C1735 H1750 0.961 . S
C1735 H1751 0.961 . S
C1736 C1737 1.370 . S
C1736 C1738 1.363 . S
C1736 H1752 0.931 . S
C1737 C1736 1.370 . S
C1737 C1741 1.408 . S
C1738 C1736 1.363 . S
C1738 C1739 1.370 . S
C1738 C1742 1.524 . S
C1739 C1731 1.503 . S
C1739 C1738 1.370 . S
C1739 C1740 1.403 . S
C1740 C1739 1.403 . S
C1740 C1741 1.404 . S
C1740 C1743 1.539 . S
C1741 C1737 1.408 . S
C1741 C1740 1.404 . S
C1741 H1753 0.930 . S
C1742 C1738 1.524 . S
C1742 H1754 0.956 . S
C1742 H1755 0.961 . S
C1742 H1756 0.961 . S
C1743 C1740 1.539 . S
C1743 H1757 0.958 . S
C1743 H1758 0.961 . S
C1743 H1759 0.960 . S
H1744 C1728 0.931 . S
H1745 C1733 0.929 . S
H1746 C1734 0.960 . S
H1747 C1734 0.962 . S
H1748 C1734 0.960 . S
H1749 C1735 0.961 . S
H1750 C1735 0.961 . S
H1751 C1735 0.961 . S
H1752 C1736 0.931 . S
H1753 C1741 0.930 . S
H1754 C1742 0.956 . S
H1755 C1742 0.961 . S
H1756 C1742 0.961 . S
H1757 C1743 0.958 . S
H1758 C1743 0.961 . S
H1759 C1743 0.960 . S
C1760 C1761 1.391 . S
C1760 C1762 1.394 . S
C1760 H1776 0.931 . S
C1761 C1760 1.391 . S
C1761 C1765 1.376 . S
C1762 C1760 1.394 . S
C1762 C1763 1.369 . S
C1762 C1766 1.531 . S
C1763 C1762 1.369 . S
C1763 C1764 1.410 . S
C1763 C1771 1.503 . S
C1764 C1763 1.410 . S
C1764 C1765 1.392 . S
C1764 C1767 1.511 . S
C1765 C1761 1.376 . S
C1765 C1764 1.392 . S
C1765 H1777 0.929 . S
C1766 C1762 1.531 . S
C1766 H1778 0.960 . S
C1766 H1779 0.962 . S
C1766 H1780 0.960 . S
C1767 C1764 1.511 . S
C1767 H1781 0.961 . S
C1767 H1782 0.961 . S
C1767 H1783 0.961 . S
C1768 C1769 1.370 . S
C1768 C1770 1.363 . S
C1768 H1784 0.931 . S
C1769 C1768 1.370 . S
C1769 C1773 1.408 . S
C1770 C1768 1.363 . S
C1770 C1771 1.370 . S
C1770 C1774 1.524 . S
C1771 C1763 1.503 . S
C1771 C1770 1.370 . S
C1771 C1772 1.403 . S
C1772 C1771 1.403 . S
C1772 C1773 1.404 . S
C1772 C1775 1.539 . S
C1773 C1769 1.408 . S
C1773 C1772 1.404 . S
C1773 H1785 0.930 . S
C1774 C1770 1.524 . S
C1774 H1786 0.956 . S
C1774 H1787 0.961 . S
C1774 H1788 0.961 . S
C1775 C1772 1.539 . S
C1775 H1789 0.958 . S
C1775 H1790 0.961 . S
C1775 H1791 0.960 . S
H1776 C1760 0.931 . S
H1777 C1765 0.929 . S
H1778 C1766 0.960 . S
H1779 C1766 0.962 . S
H1780 C1766 0.960 . S
H1781 C1767 0.961 . S
H1782 C1767 0.961 . S
H1783 C1767 0.961 . S
H1784 C1768 0.931 . S
H1785 C1773 0.930 . S
H1786 C1774 0.956 . S
H1787 C1774 0.961 . S
H1788 C1774 0.961 . S
H1789 C1775 0.958 . S
H1790 C1775 0.961 . S
H1791 C1775 0.960 . S
C1792 C1793 1.391 . S
C1792 C1794 1.394 . S
C1792 H1808 0.931 . S
C1793 C1792 1.391 . S
C1793 C1797 1.376 . S
C1794 C1792 1.394 . S
C1794 C1795 1.369 . S
C1794 C1798 1.531 . S
C1795 C1794 1.369 . S
C1795 C1796 1.410 . S
C1795 C1803 1.503 . S
C1796 C1795 1.410 . S
C1796 C1797 1.392 . S
C1796 C1799 1.511 . S
C1797 C1793 1.376 . S
C1797 C1796 1.392 . S
C1797 H1809 0.929 . S
C1798 C1794 1.531 . S
C1798 H1810 0.960 . S
C1798 H1811 0.962 . S
C1798 H1812 0.960 . S
C1799 C1796 1.511 . S
C1799 H1813 0.961 . S
C1799 H1814 0.961 . S
C1799 H1815 0.961 . S
C1800 C1801 1.370 . S
C1800 C1802 1.363 . S
C1800 H1816 0.931 . S
C1801 C1800 1.370 . S
C1801 C1805 1.408 . S
C1802 C1800 1.363 . S
C1802 C1803 1.370 . S
C1802 C1806 1.524 . S
C1803 C1795 1.503 . S
C1803 C1802 1.370 . S
C1803 C1804 1.403 . S
C1804 C1803 1.403 . S
C1804 C1805 1.404 . S
C1804 C1807 1.539 . S
C1805 C1801 1.408 . S
C1805 C1804 1.404 . S
C1805 H1817 0.930 . S
C1806 C1802 1.524 . S
C1806 H1818 0.956 . S
C1806 H1819 0.961 . S
C1806 H1820 0.961 . S
C1807 C1804 1.539 . S
C1807 H1821 0.958 . S
C1807 H1822 0.961 . S
C1807 H1823 0.960 . S
H1808 C1792 0.931 . S
H1809 C1797 0.929 . S
H1810 C1798 0.960 . S
H1811 C1798 0.962 . S
H1812 C1798 0.960 . S
H1813 C1799 0.961 . S
H1814 C1799 0.961 . S
H1815 C1799 0.961 . S
H1816 C1800 0.931 . S
H1817 C1805 0.930 . S
H1818 C1806 0.956 . S
H1819 C1806 0.961 . S
H1820 C1806 0.961 . S
H1821 C1807 0.958 . S
H1822 C1807 0.961 . S
H1823 C1807 0.960 . S
C1824 C1825 1.391 . S
C1824 C1826 1.394 . S
C1824 H1840 0.931 . S
C1825 C1824 1.391 . S
C1825 C1829 1.376 . S
C1826 C1824 1.394 . S
C1826 C1827 1.369 . S
C1826 C1830 1.531 . S
C1827 C1826 1.369 . S
C1827 C1828 1.410 . S
C1827 C1835 1.503 . S
C1828 C1827 1.410 . S
C1828 C1829 1.392 . S
C1828 C1831 1.511 . S
C1829 C1825 1.376 . S
C1829 C1828 1.392 . S
C1829 H1841 0.929 . S
C1830 C1826 1.531 . S
C1830 H1842 0.960 . S
C1830 H1843 0.962 . S
C1830 H1844 0.960 . S
C1831 C1828 1.511 . S
C1831 H1845 0.961 . S
C1831 H1846 0.961 . S
C1831 H1847 0.961 . S
C1832 C1833 1.370 . S
C1832 C1834 1.363 . S
C1832 H1848 0.931 . S
C1833 C1832 1.370 . S
C1833 C1837 1.408 . S
C1834 C1832 1.363 . S
C1834 C1835 1.370 . S
C1834 C1838 1.524 . S
C1835 C1827 1.503 . S
C1835 C1834 1.370 . S
C1835 C1836 1.403 . S
C1836 C1835 1.403 . S
C1836 C1837 1.404 . S
C1836 C1839 1.539 . S
C1837 C1833 1.408 . S
C1837 C1836 1.404 . S
C1837 H1849 0.930 . S
C1838 C1834 1.524 . S
C1838 H1850 0.956 . S
C1838 H1851 0.961 . S
C1838 H1852 0.961 . S
C1839 C1836 1.539 . S
C1839 H1853 0.958 . S
C1839 H1854 0.961 . S
C1839 H1855 0.960 . S
H1840 C1824 0.931 . S
H1841 C1829 0.929 . S
H1842 C1830 0.960 . S
H1843 C1830 0.962 . S
H1844 C1830 0.960 . S
H1845 C1831 0.961 . S
H1846 C1831 0.961 . S
H1847 C1831 0.961 . S
H1848 C1832 0.931 . S
H1849 C1837 0.930 . S
H1850 C1838 0.956 . S
H1851 C1838 0.961 . S
H1852 C1838 0.961 . S
H1853 C1839 0.958 . S
H1854 C1839 0.961 . S
H1855 C1839 0.960 . S
C1856 C1857 1.391 . S
C1856 C1858 1.394 . S
C1856 H1872 0.931 . S
C1857 C1856 1.391 . S
C1857 C1861 1.376 . S
C1858 C1856 1.394 . S
C1858 C1859 1.369 . S
C1858 C1862 1.531 . S
C1859 C1858 1.369 . S
C1859 C1860 1.410 . S
C1859 C1867 1.503 . S
C1860 C1859 1.410 . S
C1860 C1861 1.392 . S
C1860 C1863 1.511 . S
C1861 C1857 1.376 . S
C1861 C1860 1.392 . S
C1861 H1873 0.929 . S
C1862 C1858 1.531 . S
C1862 H1874 0.960 . S
C1862 H1875 0.962 . S
C1862 H1876 0.960 . S
C1863 C1860 1.511 . S
C1863 H1877 0.961 . S
C1863 H1878 0.961 . S
C1863 H1879 0.961 . S
C1864 C1865 1.370 . S
C1864 C1866 1.363 . S
C1864 H1880 0.931 . S
C1865 C1864 1.370 . S
C1865 C1869 1.408 . S
C1866 C1864 1.363 . S
C1866 C1867 1.370 . S
C1866 C1870 1.524 . S
C1867 C1859 1.503 . S
C1867 C1866 1.370 . S
C1867 C1868 1.403 . S
C1868 C1867 1.403 . S
C1868 C1869 1.404 . S
C1868 C1871 1.539 . S
C1869 C1865 1.408 . S
C1869 C1868 1.404 . S
C1869 H1881 0.930 . S
C1870 C1866 1.524 . S
C1870 H1882 0.956 . S
C1870 H1883 0.961 . S
C1870 H1884 0.961 . S
C1871 C1868 1.539 . S
C1871 H1885 0.958 . S
C1871 H1886 0.961 . S
C1871 H1887 0.960 . S
H1872 C1856 0.931 . S
H1873 C1861 0.929 . S
H1874 C1862 0.960 . S
H1875 C1862 0.962 . S
H1876 C1862 0.960 . S
H1877 C1863 0.961 . S
H1878 C1863 0.961 . S
H1879 C1863 0.961 . S
H1880 C1864 0.931 . S
H1881 C1869 0.930 . S
H1882 C1870 0.956 . S
H1883 C1870 0.961 . S
H1884 C1870 0.961 . S
H1885 C1871 0.958 . S
H1886 C1871 0.961 . S
H1887 C1871 0.960 . S
C1888 C1889 1.391 . S
C1888 C1890 1.394 . S
C1888 H1904 0.931 . S
C1889 C1888 1.391 . S
C1889 C1893 1.376 . S
C1890 C1888 1.394 . S
C1890 C1891 1.369 . S
C1890 C1894 1.531 . S
C1891 C1890 1.369 . S
C1891 C1892 1.410 . S
C1891 C1899 1.503 . S
C1892 C1891 1.410 . S
C1892 C1893 1.392 . S
C1892 C1895 1.511 . S
C1893 C1889 1.376 . S
C1893 C1892 1.392 . S
C1893 H1905 0.929 . S
C1894 C1890 1.531 . S
C1894 H1906 0.960 . S
C1894 H1907 0.962 . S
C1894 H1908 0.960 . S
C1895 C1892 1.511 . S
C1895 H1909 0.961 . S
C1895 H1910 0.961 . S
C1895 H1911 0.961 . S
C1896 C1897 1.370 . S
C1896 C1898 1.363 . S
C1896 H1912 0.931 . S
C1897 C1896 1.370 . S
C1897 C1901 1.408 . S
C1898 C1896 1.363 . S
C1898 C1899 1.370 . S
C1898 C1902 1.524 . S
C1899 C1891 1.503 . S
C1899 C1898 1.370 . S
C1899 C1900 1.403 . S
C1900 C1899 1.403 . S
C1900 C1901 1.404 . S
C1900 C1903 1.539 . S
C1901 C1897 1.408 . S
C1901 C1900 1.404 . S
C1901 H1913 0.930 . S
C1902 C1898 1.524 . S
C1902 H1914 0.956 . S
C1902 H1915 0.961 . S
C1902 H1916 0.961 . S
C1903 C1900 1.539 . S
C1903 H1917 0.958 . S
C1903 H1918 0.961 . S
C1903 H1919 0.960 . S
H1904 C1888 0.931 . S
H1905 C1893 0.929 . S
H1906 C1894 0.960 . S
H1907 C1894 0.962 . S
H1908 C1894 0.960 . S
H1909 C1895 0.961 . S
H1910 C1895 0.961 . S
H1911 C1895 0.961 . S
H1912 C1896 0.931 . S
H1913 C1901 0.930 . S
H1914 C1902 0.956 . S
H1915 C1902 0.961 . S
H1916 C1902 0.961 . S
H1917 C1903 0.958 . S
H1918 C1903 0.961 . S
H1919 C1903 0.960 . S
C1920 C1921 1.391 . S
C1920 C1922 1.394 . S
C1920 H1936 0.931 . S
C1921 C1920 1.391 . S
C1921 C1925 1.376 . S
C1922 C1920 1.394 . S
C1922 C1923 1.369 . S
C1922 C1926 1.531 . S
C1923 C1922 1.369 . S
C1923 C1924 1.410 . S
C1923 C1931 1.503 . S
C1924 C1923 1.410 . S
C1924 C1925 1.392 . S
C1924 C1927 1.511 . S
C1925 C1921 1.376 . S
C1925 C1924 1.392 . S
C1925 H1937 0.929 . S
C1926 C1922 1.531 . S
C1926 H1938 0.960 . S
C1926 H1939 0.962 . S
C1926 H1940 0.960 . S
C1927 C1924 1.511 . S
C1927 H1941 0.961 . S
C1927 H1942 0.961 . S
C1927 H1943 0.961 . S
C1928 C1929 1.370 . S
C1928 C1930 1.363 . S
C1928 H1944 0.931 . S
C1929 C1928 1.370 . S
C1929 C1933 1.408 . S
C1930 C1928 1.363 . S
C1930 C1931 1.370 . S
C1930 C1934 1.524 . S
C1931 C1923 1.503 . S
C1931 C1930 1.370 . S
C1931 C1932 1.403 . S
C1932 C1931 1.403 . S
C1932 C1933 1.404 . S
C1932 C1935 1.539 . S
C1933 C1929 1.408 . S
C1933 C1932 1.404 . S
C1933 H1945 0.930 . S
C1934 C1930 1.524 . S
C1934 H1946 0.956 . S
C1934 H1947 0.961 . S
C1934 H1948 0.961 . S
C1935 C1932 1.539 . S
C1935 H1949 0.958 . S
C1935 H1950 0.961 . S
C1935 H1951 0.960 . S
H1936 C1920 0.931 . S
H1937 C1925 0.929 . S
H1938 C1926 0.960 . S
H1939 C1926 0.962 . S
H1940 C1926 0.960 . S
H1941 C1927 0.961 . S
H1942 C1927 0.961 . S
H1943 C1927 0.961 . S
H1944 C1928 0.931 . S
H1945 C1933 0.930 . S
H1946 C1934 0.956 . S
H1947 C1934 0.961 . S
H1948 C1934 0.961 . S
H1949 C1935 0.958 . S
H1950 C1935 0.961 . S
H1951 C1935 0.960 . S
C1952 C1953 1.391 . S
C1952 C1954 1.394 . S
C1952 H1968 0.931 . S
C1953 C1952 1.391 . S
C1953 C1957 1.376 . S
C1954 C1952 1.394 . S
C1954 C1955 1.369 . S
C1954 C1958 1.531 . S
C1955 C1954 1.369 . S
C1955 C1956 1.410 . S
C1955 C1963 1.503 . S
C1956 C1955 1.410 . S
C1956 C1957 1.392 . S
C1956 C1959 1.511 . S
C1957 C1953 1.376 . S
C1957 C1956 1.392 . S
C1957 H1969 0.929 . S
C1958 C1954 1.531 . S
C1958 H1970 0.960 . S
C1958 H1971 0.962 . S
C1958 H1972 0.960 . S
C1959 C1956 1.511 . S
C1959 H1973 0.961 . S
C1959 H1974 0.961 . S
C1959 H1975 0.961 . S
C1960 C1961 1.370 . S
C1960 C1962 1.363 . S
C1960 H1976 0.931 . S
C1961 C1960 1.370 . S
C1961 C1965 1.408 . S
C1962 C1960 1.363 . S
C1962 C1963 1.370 . S
C1962 C1966 1.524 . S
C1963 C1955 1.503 . S
C1963 C1962 1.370 . S
C1963 C1964 1.403 . S
C1964 C1963 1.403 . S
C1964 C1965 1.404 . S
C1964 C1967 1.539 . S
C1965 C1961 1.408 . S
C1965 C1964 1.404 . S
C1965 H1977 0.930 . S
C1966 C1962 1.524 . S
C1966 H1978 0.956 . S
C1966 H1979 0.961 . S
C1966 H1980 0.961 . S
C1967 C1964 1.539 . S
C1967 H1981 0.958 . S
C1967 H1982 0.961 . S
C1967 H1983 0.960 . S
H1968 C1952 0.931 . S
H1969 C1957 0.929 . S
H1970 C1958 0.960 . S
H1971 C1958 0.962 . S
H1972 C1958 0.960 . S
H1973 C1959 0.961 . S
H1974 C1959 0.961 . S
H1975 C1959 0.961 . S
H1976 C1960 0.931 . S
H1977 C1965 0.930 . S
H1978 C1966 0.956 . S
H1979 C1966 0.961 . S
H1980 C1966 0.961 . S
H1981 C1967 0.958 . S
H1982 C1967 0.961 . S
H1983 C1967 0.960 . S
C1984 C1985 1.391 . S
C1984 C1986 1.394 . S
C1984 H2000 0.931 . S
C1985 C1984 1.391 . S
C1985 C1989 1.376 . S
C1986 C1984 1.394 . S
C1986 C1987 1.369 . S
C1986 C1990 1.531 . S
C1987 C1986 1.369 . S
C1987 C1988 1.410 . S
C1987 C1995 1.503 . S
C1988 C1987 1.410 . S
C1988 C1989 1.392 . S
C1988 C1991 1.511 . S
C1989 C1985 1.376 . S
C1989 C1988 1.392 . S
C1989 H2001 0.929 . S
C1990 C1986 1.531 . S
C1990 H2002 0.960 . S
C1990 H2003 0.962 . S
C1990 H2004 0.960 . S
C1991 C1988 1.511 . S
C1991 H2005 0.961 . S
C1991 H2006 0.961 . S
C1991 H2007 0.961 . S
C1992 C1993 1.370 . S
C1992 C1994 1.363 . S
C1992 H2008 0.931 . S
C1993 C1992 1.370 . S
C1993 C1997 1.408 . S
C1994 C1992 1.363 . S
C1994 C1995 1.370 . S
C1994 C1998 1.524 . S
C1995 C1987 1.503 . S
C1995 C1994 1.370 . S
C1995 C1996 1.403 . S
C1996 C1995 1.403 . S
C1996 C1997 1.404 . S
C1996 C1999 1.539 . S
C1997 C1993 1.408 . S
C1997 C1996 1.404 . S
C1997 H2009 0.930 . S
C1998 C1994 1.524 . S
C1998 H2010 0.956 . S
C1998 H2011 0.961 . S
C1998 H2012 0.961 . S
C1999 C1996 1.539 . S
C1999 H2013 0.958 . S
C1999 H2014 0.961 . S
C1999 H2015 0.960 . S
H2000 C1984 0.931 . S
H2001 C1989 0.929 . S
H2002 C1990 0.960 . S
H2003 C1990 0.962 . S
H2004 C1990 0.960 . S
H2005 C1991 0.961 . S
H2006 C1991 0.961 . S
H2007 C1991 0.961 . S
H2008 C1992 0.931 . S
H2009 C1997 0.930 . S
H2010 C1998 0.956 . S
H2011 C1998 0.961 . S
H2012 C1998 0.961 . S
H2013 C1999 0.958 . S
H2014 C1999 0.961 . S
H2015 C1999 0.960 . S
C2016 C2017 1.391 . S
C2016 C2018 1.394 . S
C2016 H2032 0.931 . S
C2017 C2016 1.391 . S
C2017 C2021 1.376 . S
C2018 C2016 1.394 . S
C2018 C2019 1.369 . S
C2018 C2022 1.531 . S
C2019 C2018 1.369 . S
C2019 C2020 1.410 . S
C2019 C2027 1.503 . S
C2020 C2019 1.410 . S
C2020 C2021 1.392 . S
C2020 C2023 1.511 . S
C2021 C2017 1.376 . S
C2021 C2020 1.392 . S
C2021 H2033 0.929 . S
C2022 C2018 1.531 . S
C2022 H2034 0.960 . S
C2022 H2035 0.962 . S
C2022 H2036 0.960 . S
C2023 C2020 1.511 . S
C2023 H2037 0.961 . S
C2023 H2038 0.961 . S
C2023 H2039 0.961 . S
C2024 C2025 1.370 . S
C2024 C2026 1.363 . S
C2024 H2040 0.931 . S
C2025 C2024 1.370 . S
C2025 C2029 1.408 . S
C2026 C2024 1.363 . S
C2026 C2027 1.370 . S
C2026 C2030 1.524 . S
C2027 C2019 1.503 . S
C2027 C2026 1.370 . S
C2027 C2028 1.403 . S
C2028 C2027 1.403 . S
C2028 C2029 1.404 . S
C2028 C2031 1.539 . S
C2029 C2025 1.408 . S
C2029 C2028 1.404 . S
C2029 H2041 0.930 . S
C2030 C2026 1.524 . S
C2030 H2042 0.956 . S
C2030 H2043 0.961 . S
C2030 H2044 0.961 . S
C2031 C2028 1.539 . S
C2031 H2045 0.958 . S
C2031 H2046 0.961 . S
C2031 H2047 0.960 . S
H2032 C2016 0.931 . S
H2033 C2021 0.929 . S
H2034 C2022 0.960 . S
H2035 C2022 0.962 . S
H2036 C2022 0.960 . S
H2037 C2023 0.961 . S
H2038 C2023 0.961 . S
H2039 C2023 0.961 . S
H2040 C2024 0.931 . S
H2041 C2029 0.930 . S
H2042 C2030 0.956 . S
H2043 C2030 0.961 . S
H2044 C2030 0.961 . S
H2045 C2031 0.958 . S
H2046 C2031 0.961 . S
H2047 C2031 0.960 . S
C2048 C2049 1.391 . S
C2048 C2050 1.394 . S
C2048 H2064 0.931 . S
C2049 C2048 1.391 . S
C2049 C2053 1.376 . S
C2050 C2048 1.394 . S
C2050 C2051 1.369 . S
C2050 C2054 1.531 . S
C2051 C2050 1.369 . S
C2051 C2052 1.410 . S
C2051 C2059 1.503 . S
C2052 C2051 1.410 . S
C2052 C2053 1.392 . S
C2052 C2055 1.511 . S
C2053 C2049 1.376 . S
C2053 C2052 1.392 . S
C2053 H2065 0.929 . S
C2054 C2050 1.531 . S
C2054 H2066 0.960 . S
C2054 H2067 0.962 . S
C2054 H2068 0.960 . S
C2055 C2052 1.511 . S
C2055 H2069 0.961 . S
C2055 H2070 0.961 . S
C2055 H2071 0.961 . S
C2056 C2057 1.370 . S
C2056 C2058 1.363 . S
C2056 H2072 0.931 . S
C2057 C2056 1.370 . S
C2057 C2061 1.408 . S
C2058 C2056 1.363 . S
C2058 C2059 1.370 . S
C2058 C2062 1.524 . S
C2059 C2051 1.503 . S
C2059 C2058 1.370 . S
C2059 C2060 1.403 . S
C2060 C2059 1.403 . S
C2060 C2061 1.404 . S
C2060 C2063 1.539 . S
C2061 C2057 1.408 . S
C2061 C2060 1.404 . S
C2061 H2073 0.930 . S
C2062 C2058 1.524 . S
C2062 H2074 0.956 . S
C2062 H2075 0.961 . S
C2062 H2076 0.961 . S
C2063 C2060 1.539 . S
C2063 H2077 0.958 . S
C2063 H2078 0.961 . S
C2063 H2079 0.960 . S
H2064 C2048 0.931 . S
H2065 C2053 0.929 . S
H2066 C2054 0.960 . S
H2067 C2054 0.962 . S
H2068 C2054 0.960 . S
H2069 C2055 0.961 . S
H2070 C2055 0.961 . S
H2071 C2055 0.961 . S
H2072 C2056 0.931 . S
H2073 C2061 0.930 . S
H2074 C2062 0.956 . S
H2075 C2062 0.961 . S
H2076 C2062 0.961 . S
H2077 C2063 0.958 . S
H2078 C2063 0.961 . S
H2079 C2063 0.960 . S
C2080 C2081 1.391 . S
C2080 C2082 1.394 . S
C2080 H2096 0.931 . S
C2081 C2080 1.391 . S
C2081 C2085 1.376 . S
C2082 C2080 1.394 . S
C2082 C2083 1.369 . S
C2082 C2086 1.531 . S
C2083 C2082 1.369 . S
C2083 C2084 1.410 . S
C2083 C2091 1.503 . S
C2084 C2083 1.410 . S
C2084 C2085 1.392 . S
C2084 C2087 1.511 . S
C2085 C2081 1.376 . S
C2085 C2084 1.392 . S
C2085 H2097 0.929 . S
C2086 C2082 1.531 . S
C2086 H2098 0.960 . S
C2086 H2099 0.962 . S
C2086 H2100 0.960 . S
C2087 C2084 1.511 . S
C2087 H2101 0.961 . S
C2087 H2102 0.961 . S
C2087 H2103 0.961 . S
C2088 C2089 1.370 . S
C2088 C2090 1.363 . S
C2088 H2104 0.931 . S
C2089 C2088 1.370 . S
C2089 C2093 1.408 . S
C2090 C2088 1.363 . S
C2090 C2091 1.370 . S
C2090 C2094 1.524 . S
C2091 C2083 1.503 . S
C2091 C2090 1.370 . S
C2091 C2092 1.403 . S
C2092 C2091 1.403 . S
C2092 C2093 1.404 . S
C2092 C2095 1.539 . S
C2093 C2089 1.408 . S
C2093 C2092 1.404 . S
C2093 H2105 0.930 . S
C2094 C2090 1.524 . S
C2094 H2106 0.956 . S
C2094 H2107 0.961 . S
C2094 H2108 0.961 . S
C2095 C2092 1.539 . S
C2095 H2109 0.958 . S
C2095 H2110 0.961 . S
C2095 H2111 0.960 . S
H2096 C2080 0.931 . S
H2097 C2085 0.929 . S
H2098 C2086 0.960 . S
H2099 C2086 0.962 . S
H2100 C2086 0.960 . S
H2101 C2087 0.961 . S
H2102 C2087 0.961 . S
H2103 C2087 0.961 . S
H2104 C2088 0.931 . S
H2105 C2093 0.930 . S
H2106 C2094 0.956 . S
H2107 C2094 0.961 . S
H2108 C2094 0.961 . S
H2109 C2095 0.958 . S
H2110 C2095 0.961 . S
H2111 C2095 0.960 . S
C2112 C2113 1.391 . S
C2112 C2114 1.394 . S
C2112 H2128 0.931 . S
C2113 C2112 1.391 . S
C2113 C2117 1.376 . S
C2114 C2112 1.394 . S
C2114 C2115 1.369 . S
C2114 C2118 1.531 . S
C2115 C2114 1.369 . S
C2115 C2116 1.410 . S
C2115 C2123 1.503 . S
C2116 C2115 1.410 . S
C2116 C2117 1.392 . S
C2116 C2119 1.511 . S
C2117 C2113 1.376 . S
C2117 C2116 1.392 . S
C2117 H2129 0.929 . S
C2118 C2114 1.531 . S
C2118 H2130 0.960 . S
C2118 H2131 0.962 . S
C2118 H2132 0.960 . S
C2119 C2116 1.511 . S
C2119 H2133 0.961 . S
C2119 H2134 0.961 . S
C2119 H2135 0.961 . S
C2120 C2121 1.370 . S
C2120 C2122 1.363 . S
C2120 H2136 0.931 . S
C2121 C2120 1.370 . S
C2121 C2125 1.408 . S
C2122 C2120 1.363 . S
C2122 C2123 1.370 . S
C2122 C2126 1.524 . S
C2123 C2115 1.503 . S
C2123 C2122 1.370 . S
C2123 C2124 1.403 . S
C2124 C2123 1.403 . S
C2124 C2125 1.404 . S
C2124 C2127 1.539 . S
C2125 C2121 1.408 . S
C2125 C2124 1.404 . S
C2125 H2137 0.930 . S
C2126 C2122 1.524 . S
C2126 H2138 0.956 . S
C2126 H2139 0.961 . S
C2126 H2140 0.961 . S
C2127 C2124 1.539 . S
C2127 H2141 0.958 . S
C2127 H2142 0.961 . S
C2127 H2143 0.960 . S
H2128 C2112 0.931 . S
H2129 C2117 0.929 . S
H2130 C2118 0.960 . S
H2131 C2118 0.962 . S
H2132 C2118 0.960 . S
H2133 C2119 0.961 . S
H2134 C2119 0.961 . S
H2135 C2119 0.961 . S
H2136 C2120 0.931 . S
H2137 C2125 0.930 . S
H2138 C2126 0.956 . S
H2139 C2126 0.961 . S
H2140 C2126 0.961 . S
H2141 C2127 0.958 . S
H2142 C2127 0.961 . S
H2143 C2127 0.960 . S
C2144 C2145 1.391 . S
C2144 C2146 1.394 . S
C2144 H2160 0.931 . S
C2145 C2144 1.391 . S
C2145 C2149 1.376 . S
C2146 C2144 1.394 . S
C2146 C2147 1.369 . S
C2146 C2150 1.531 . S
C2147 C2146 1.369 . S
C2147 C2148 1.410 . S
C2147 C2155 1.503 . S
C2148 C2147 1.410 . S
C2148 C2149 1.392 . S
C2148 C2151 1.511 . S
C2149 C2145 1.376 . S
C2149 C2148 1.392 . S
C2149 H2161 0.929 . S
C2150 C2146 1.531 . S
C2150 H2162 0.960 . S
C2150 H2163 0.962 . S
C2150 H2164 0.960 . S
C2151 C2148 1.511 . S
C2151 H2165 0.961 . S
C2151 H2166 0.961 . S
C2151 H2167 0.961 . S
C2152 C2153 1.370 . S
C2152 C2154 1.363 . S
C2152 H2168 0.931 . S
C2153 C2152 1.370 . S
C2153 C2157 1.408 . S
C2154 C2152 1.363 . S
C2154 C2155 1.370 . S
C2154 C2158 1.524 . S
C2155 C2147 1.503 . S
C2155 C2154 1.370 . S
C2155 C2156 1.403 . S
C2156 C2155 1.403 . S
C2156 C2157 1.404 . S
C2156 C2159 1.539 . S
C2157 C2153 1.408 . S
C2157 C2156 1.404 . S
C2157 H2169 0.930 . S
C2158 C2154 1.524 . S
C2158 H2170 0.956 . S
C2158 H2171 0.961 . S
C2158 H2172 0.961 . S
C2159 C2156 1.539 . S
C2159 H2173 0.958 . S
C2159 H2174 0.961 . S
C2159 H2175 0.960 . S
H2160 C2144 0.931 . S
H2161 C2149 0.929 . S
H2162 C2150 0.960 . S
H2163 C2150 0.962 . S
H2164 C2150 0.960 . S
H2165 C2151 0.961 . S
H2166 C2151 0.961 . S
H2167 C2151 0.961 . S
H2168 C2152 0.931 . S
H2169 C2157 0.930 . S
H2170 C2158 0.956 . S
H2171 C2158 0.961 . S
H2172 C2158 0.961 . S
H2173 C2159 0.958 . S
H2174 C2159 0.961 . S
H2175 C2159 0.960 . S
C2176 C2177 1.391 . S
C2176 C2178 1.394 . S
C2176 H2192 0.943 . S
C2177 C2176 1.391 . S
C2177 C2181 1.376 . S
C2178 C2176 1.394 . S
C2178 C2179 1.369 . S
C2178 C2182 1.531 . S
C2179 C2178 1.369 . S
C2179 C2180 1.410 . S
C2179 C2187 1.503 . S
C2180 C2179 1.410 . S
C2180 C2181 1.392 . S
C2180 C2183 1.511 . S
C2181 C2177 1.376 . S
C2181 C2180 1.392 . S
C2181 H2193 0.929 . S
C2182 C2178 1.531 . S
C2182 H2194 0.960 . S
C2182 H2195 0.962 . S
C2182 H2196 0.960 . S
C2183 C2180 1.511 . S
C2183 H2197 0.961 . S
C2183 H2198 0.961 . S
C2183 H2199 0.961 . S
C2184 C2185 1.370 . S
C2184 C2186 1.363 . S
C2184 H2200 0.931 . S
C2185 C2184 1.370 . S
C2185 C2189 1.408 . S
C2186 C2184 1.363 . S
C2186 C2187 1.370 . S
C2186 C2190 1.524 . S
C2187 C2179 1.503 . S
C2187 C2186 1.370 . S
C2187 C2188 1.403 . S
C2188 C2187 1.403 . S
C2188 C2189 1.404 . S
C2188 C2191 1.539 . S
C2189 C2185 1.408 . S
C2189 C2188 1.404 . S
C2189 H2201 0.930 . S
C2190 C2186 1.524 . S
C2190 H2202 0.956 . S
C2190 H2203 0.961 . S
C2190 H2204 0.961 . S
C2191 C2188 1.539 . S
C2191 H2205 0.958 . S
C2191 H2206 0.961 . S
C2191 H2207 0.960 . S
H2192 C2176 0.943 . S
H2193 C2181 0.929 . S
H2194 C2182 0.960 . S
H2195 C2182 0.962 . S
H2196 C2182 0.960 . S
H2197 C2183 0.961 . S
H2198 C2183 0.961 . S
H2199 C2183 0.961 . S
H2200 C2184 0.931 . S
H2201 C2189 0.930 . S
H2202 C2190 0.956 . S
H2203 C2190 0.961 . S
H2204 C2190 0.961 . S
H2205 C2191 0.958 . S
H2206 C2191 0.961 . S
H2207 C2191 0.960 . S
C2208 C2209 1.391 . S
C2208 C2210 1.394 . S
C2208 H2224 0.931 . S
C2209 C2208 1.391 . S
C2209 C2213 1.376 . S
C2210 C2208 1.394 . S
C2210 C2211 1.369 . S
C2210 C2214 1.531 . S
C2211 C2210 1.369 . S
C2211 C2212 1.410 . S
C2211 C2219 1.503 . S
C2212 C2211 1.410 . S
C2212 C2213 1.392 . S
C2212 C2215 1.511 . S
C2213 C2209 1.376 . S
C2213 C2212 1.392 . S
C2213 H2225 0.929 . S
C2214 C2210 1.531 . S
C2214 H2226 0.960 . S
C2214 H2227 0.962 . S
C2214 H2228 0.960 . S
C2215 C2212 1.511 . S
C2215 H2229 0.961 . S
C2215 H2230 0.961 . S
C2215 H2231 0.961 . S
C2216 C2217 1.370 . S
C2216 C2218 1.363 . S
C2216 H2232 0.931 . S
C2217 C2216 1.370 . S
C2217 C2221 1.408 . S
C2218 C2216 1.363 . S
C2218 C2219 1.370 . S
C2218 C2222 1.524 . S
C2219 C2211 1.503 . S
C2219 C2218 1.370 . S
C2219 C2220 1.403 . S
C2220 C2219 1.403 . S
C2220 C2221 1.404 . S
C2220 C2223 1.539 . S
C2221 C2217 1.408 . S
C2221 C2220 1.404 . S
C2221 H2233 0.930 . S
C2222 C2218 1.524 . S
C2222 H2234 0.956 . S
C2222 H2235 0.961 . S
C2222 H2236 0.961 . S
C2223 C2220 1.539 . S
C2223 H2237 0.958 . S
C2223 H2238 0.961 . S
C2223 H2239 0.960 . S
H2224 C2208 0.931 . S
H2225 C2213 0.929 . S
H2226 C2214 0.960 . S
H2227 C2214 0.962 . S
H2228 C2214 0.960 . S
H2229 C2215 0.961 . S
H2230 C2215 0.961 . S
H2231 C2215 0.961 . S
H2232 C2216 0.931 . S
H2233 C2221 0.930 . S
H2234 C2222 0.956 . S
H2235 C2222 0.961 . S
H2236 C2222 0.961 . S
H2237 C2223 0.958 . S
H2238 C2223 0.961 . S
H2239 C2223 0.960 . S
C2240 C2241 1.391 . S
C2240 C2242 1.394 . S
C2240 H2256 0.931 . S
C2241 C2240 1.391 . S
C2241 C2245 1.376 . S
C2242 C2240 1.394 . S
C2242 C2243 1.369 . S
C2242 C2246 1.531 . S
C2243 C2242 1.369 . S
C2243 C2244 1.410 . S
C2243 C2251 1.503 . S
C2244 C2243 1.410 . S
C2244 C2245 1.392 . S
C2244 C2247 1.511 . S
C2245 C2241 1.376 . S
C2245 C2244 1.392 . S
C2245 H2257 0.929 . S
C2246 C2242 1.531 . S
C2246 H2258 0.960 . S
C2246 H2259 0.962 . S
C2246 H2260 0.960 . S
C2247 C2244 1.511 . S
C2247 H2261 0.961 . S
C2247 H2262 0.961 . S
C2247 H2263 0.961 . S
C2248 C2249 1.370 . S
C2248 C2250 1.363 . S
C2248 H2264 0.931 . S
C2249 C2248 1.370 . S
C2249 C2253 1.408 . S
C2250 C2248 1.363 . S
C2250 C2251 1.370 . S
C2250 C2254 1.524 . S
C2251 C2243 1.503 . S
C2251 C2250 1.370 . S
C2251 C2252 1.403 . S
C2252 C2251 1.403 . S
C2252 C2253 1.404 . S
C2252 C2255 1.539 . S
C2253 C2249 1.408 . S
C2253 C2252 1.404 . S
C2253 H2265 0.930 . S
C2254 C2250 1.524 . S
C2254 H2266 0.956 . S
C2254 H2267 0.961 . S
C2254 H2268 0.961 . S
C2255 C2252 1.539 . S
C2255 H2269 0.958 . S
C2255 H2270 0.961 . S
C2255 H2271 0.960 . S
H2256 C2240 0.931 . S
H2257 C2245 0.929 . S
H2258 C2246 0.960 . S
H2259 C2246 0.962 . S
H2260 C2246 0.960 . S
H2261 C2247 0.961 . S
H2262 C2247 0.961 . S
H2263 C2247 0.961 . S
H2264 C2248 0.931 . S
H2265 C2253 0.930 . S
H2266 C2254 0.956 . S
H2267 C2254 0.961 . S
H2268 C2254 0.961 . S
H2269 C2255 0.958 . S
H2270 C2255 0.961 . S
H2271 C2255 0.960 . S
C2272 C2273 1.391 . S
C2272 C2274 1.394 . S
C2272 H2288 0.931 . S
C2273 C2272 1.391 . S
C2273 C2277 1.376 . S
C2274 C2272 1.394 . S
C2274 C2275 1.369 . S
C2274 C2278 1.531 . S
C2275 C2274 1.369 . S
C2275 C2276 1.410 . S
C2275 C2283 1.503 . S
C2276 C2275 1.410 . S
C2276 C2277 1.392 . S
C2276 C2279 1.511 . S
C2277 C2273 1.376 . S
C2277 C2276 1.392 . S
C2277 H2289 0.929 . S
C2278 C2274 1.531 . S
C2278 H2290 0.960 . S
C2278 H2291 0.962 . S
C2278 H2292 0.960 . S
C2279 C2276 1.511 . S
C2279 H2293 0.961 . S
C2279 H2294 0.961 . S
C2279 H2295 0.961 . S
C2280 C2281 1.370 . S
C2280 C2282 1.363 . S
C2280 H2296 0.931 . S
C2281 C2280 1.370 . S
C2281 C2285 1.408 . S
C2282 C2280 1.363 . S
C2282 C2283 1.370 . S
C2282 C2286 1.524 . S
C2283 C2275 1.503 . S
C2283 C2282 1.370 . S
C2283 C2284 1.403 . S
C2284 C2283 1.403 . S
C2284 C2285 1.404 . S
C2284 C2287 1.539 . S
C2285 C2281 1.408 . S
C2285 C2284 1.404 . S
C2285 H2297 0.930 . S
C2286 C2282 1.524 . S
C2286 H2298 0.956 . S
C2286 H2299 0.961 . S
C2286 H2300 0.961 . S
C2287 C2284 1.539 . S
C2287 H2301 0.958 . S
C2287 H2302 0.961 . S
C2287 H2303 0.960 . S
H2288 C2272 0.931 . S
H2289 C2277 0.929 . S
H2290 C2278 0.960 . S
H2291 C2278 0.962 . S
H2292 C2278 0.960 . S
H2293 C2279 0.961 . S
H2294 C2279 0.961 . S
H2295 C2279 0.961 . S
H2296 C2280 0.931 . S
H2297 C2285 0.930 . S
H2298 C2286 0.956 . S
H2299 C2286 0.961 . S
H2300 C2286 0.961 . S
H2301 C2287 0.958 . S
H2302 C2287 0.961 . S
H2303 C2287 0.960 . S
C2304 C2305 1.391 . S
C2304 C2306 1.394 . S
C2304 H2320 0.931 . S
C2305 C2304 1.391 . S
C2305 C2309 1.376 . S
C2306 C2304 1.394 . S
C2306 C2307 1.369 . S
C2306 C2310 1.531 . S
C2307 C2306 1.369 . S
C2307 C2308 1.410 . S
C2307 C2315 1.503 . S
C2308 C2307 1.410 . S
C2308 C2309 1.392 . S
C2308 C2311 1.511 . S
C2309 C2305 1.376 . S
C2309 C2308 1.392 . S
C2309 H2321 0.929 . S
C2310 C2306 1.531 . S
C2310 H2322 0.960 . S
C2310 H2323 0.962 . S
C2310 H2324 0.960 . S
C2311 C2308 1.511 . S
C2311 H2325 0.961 . S
C2311 H2326 0.961 . S
C2311 H2327 0.961 . S
C2312 C2313 1.370 . S
C2312 C2314 1.363 . S
C2312 H2328 0.931 . S
C2313 C2312 1.370 . S
C2313 C2317 1.408 . S
C2314 C2312 1.363 . S
C2314 C2315 1.370 . S
C2314 C2318 1.524 . S
C2315 C2307 1.503 . S
C2315 C2314 1.370 . S
C2315 C2316 1.403 . S
C2316 C2315 1.403 . S
C2316 C2317 1.404 . S
C2316 C2319 1.539 . S
C2317 C2313 1.408 . S
C2317 C2316 1.404 . S
C2317 H2329 0.930 . S
C2318 C2314 1.524 . S
C2318 H2330 0.956 . S
C2318 H2331 0.961 . S
C2318 H2332 0.961 . S
C2319 C2316 1.539 . S
C2319 H2333 0.958 . S
C2319 H2334 0.961 . S
C2319 H2335 0.960 . S
H2320 C2304 0.931 . S
H2321 C2309 0.929 . S
H2322 C2310 0.960 . S
H2323 C2310 0.962 . S
H2324 C2310 0.960 . S
H2325 C2311 0.961 . S
H2326 C2311 0.961 . S
H2327 C2311 0.961 . S
H2328 C2312 0.931 . S
H2329 C2317 0.930 . S
H2330 C2318 0.956 . S
H2331 C2318 0.961 . S
H2332 C2318 0.961 . S
H2333 C2319 0.958 . S
H2334 C2319 0.961 . S
H2335 C2319 0.960 . S
C2336 C2337 1.391 . S
C2336 C2338 1.394 . S
C2336 H2352 0.931 . S
C2337 C2336 1.391 . S
C2337 C2341 1.376 . S
C2338 C2336 1.394 . S
C2338 C2339 1.369 . S
C2338 C2342 1.531 . S
C2339 C2338 1.369 . S
C2339 C2340 1.410 . S
C2339 C2347 1.503 . S
C2340 C2339 1.410 . S
C2340 C2341 1.392 . S
C2340 C2343 1.511 . S
C2341 C2337 1.376 . S
C2341 C2340 1.392 . S
C2341 H2353 0.929 . S
C2342 C2338 1.531 . S
C2342 H2354 0.960 . S
C2342 H2355 0.962 . S
C2342 H2356 0.960 . S
C2343 C2340 1.511 . S
C2343 H2357 0.961 . S
C2343 H2358 0.961 . S
C2343 H2359 0.961 . S
C2344 C2345 1.370 . S
C2344 C2346 1.363 . S
C2344 H2360 0.931 . S
C2345 C2344 1.370 . S
C2345 C2349 1.408 . S
C2346 C2344 1.363 . S
C2346 C2347 1.370 . S
C2346 C2350 1.524 . S
C2347 C2339 1.503 . S
C2347 C2346 1.370 . S
C2347 C2348 1.403 . S
C2348 C2347 1.403 . S
C2348 C2349 1.404 . S
C2348 C2351 1.539 . S
C2349 C2345 1.408 . S
C2349 C2348 1.404 . S
C2349 H2361 0.930 . S
C2350 C2346 1.524 . S
C2350 H2362 0.956 . S
C2350 H2363 0.961 . S
C2350 H2364 0.961 . S
C2351 C2348 1.539 . S
C2351 H2365 0.958 . S
C2351 H2366 0.961 . S
C2351 H2367 0.960 . S
H2352 C2336 0.931 . S
H2353 C2341 0.929 . S
H2354 C2342 0.960 . S
H2355 C2342 0.962 . S
H2356 C2342 0.960 . S
H2357 C2343 0.961 . S
H2358 C2343 0.961 . S
H2359 C2343 0.961 . S
H2360 C2344 0.931 . S
H2361 C2349 0.930 . S
H2362 C2350 0.956 . S
H2363 C2350 0.961 . S
H2364 C2350 0.961 . S
H2365 C2351 0.958 . S
H2366 C2351 0.961 . S
H2367 C2351 0.960 . S
C2368 C2369 1.391 . S
C2368 C2370 1.394 . S
C2368 H2384 0.931 . S
C2369 C2368 1.391 . S
C2369 C2373 1.376 . S
C2370 C2368 1.394 . S
C2370 C2371 1.369 . S
C2370 C2374 1.531 . S
C2371 C2370 1.369 . S
C2371 C2372 1.410 . S
C2371 C2379 1.503 . S
C2372 C2371 1.410 . S
C2372 C2373 1.392 . S
C2372 C2375 1.511 . S
C2373 C2369 1.376 . S
C2373 C2372 1.392 . S
C2373 H2385 0.929 . S
C2374 C2370 1.531 . S
C2374 H2386 0.960 . S
C2374 H2387 0.962 . S
C2374 H2388 0.960 . S
C2375 C2372 1.511 . S
C2375 H2389 0.961 . S
C2375 H2390 0.961 . S
C2375 H2391 0.961 . S
C2376 C2377 1.370 . S
C2376 C2378 1.363 . S
C2376 H2392 0.931 . S
C2377 C2376 1.370 . S
C2377 C2381 1.408 . S
C2378 C2376 1.363 . S
C2378 C2379 1.370 . S
C2378 C2382 1.524 . S
C2379 C2371 1.503 . S
C2379 C2378 1.370 . S
C2379 C2380 1.403 . S
C2380 C2379 1.403 . S
C2380 C2381 1.404 . S
C2380 C2383 1.539 . S
C2381 C2377 1.408 . S
C2381 C2380 1.404 . S
C2381 H2393 0.930 . S
C2382 C2378 1.524 . S
C2382 H2394 0.956 . S
C2382 H2395 0.961 . S
C2382 H2396 0.961 . S
C2383 C2380 1.539 . S
C2383 H2397 0.958 . S
C2383 H2398 0.961 . S
C2383 H2399 0.960 . S
H2384 C2368 0.931 . S
H2385 C2373 0.929 . S
H2386 C2374 0.960 . S
H2387 C2374 0.962 . S
H2388 C2374 0.960 . S
H2389 C2375 0.961 . S
H2390 C2375 0.961 . S
H2391 C2375 0.961 . S
H2392 C2376 0.931 . S
H2393 C2381 0.930 . S
H2394 C2382 0.956 . S
H2395 C2382 0.961 . S
H2396 C2382 0.961 . S
H2397 C2383 0.958 . S
H2398 C2383 0.961 . S
H2399 C2383 0.960 . S
C2400 C2401 1.391 . S
C2400 C2402 1.394 . S
C2400 H2416 0.931 . S
C2401 C2400 1.391 . S
C2401 C2405 1.376 . S
C2402 C2400 1.394 . S
C2402 C2403 1.369 . S
C2402 C2406 1.531 . S
C2403 C2402 1.369 . S
C2403 C2404 1.410 . S
C2403 C2411 1.503 . S
C2404 C2403 1.410 . S
C2404 C2405 1.392 . S
C2404 C2407 1.511 . S
C2405 C2401 1.376 . S
C2405 C2404 1.392 . S
C2405 H2417 0.929 . S
C2406 C2402 1.531 . S
C2406 H2418 0.960 . S
C2406 H2419 0.962 . S
C2406 H2420 0.960 . S
C2407 C2404 1.511 . S
C2407 H2421 0.961 . S
C2407 H2422 0.961 . S
C2407 H2423 0.961 . S
C2408 C2409 1.370 . S
C2408 C2410 1.363 . S
C2408 H2424 0.931 . S
C2409 C2408 1.370 . S
C2409 C2413 1.408 . S
C2410 C2408 1.363 . S
C2410 C2411 1.370 . S
C2410 C2414 1.524 . S
C2411 C2403 1.503 . S
C2411 C2410 1.370 . S
C2411 C2412 1.403 . S
C2412 C2411 1.403 . S
C2412 C2413 1.404 . S
C2412 C2415 1.539 . S
C2413 C2409 1.408 . S
C2413 C2412 1.404 . S
C2413 H2425 0.930 . S
C2414 C2410 1.524 . S
C2414 H2426 0.956 . S
C2414 H2427 0.961 . S
C2414 H2428 0.961 . S
C2415 C2412 1.539 . S
C2415 H2429 0.958 . S
C2415 H2430 0.961 . S
C2415 H2431 0.960 . S
H2416 C2400 0.931 . S
H2417 C2405 0.929 . S
H2418 C2406 0.960 . S
H2419 C2406 0.962 . S
H2420 C2406 0.960 . S
H2421 C2407 0.961 . S
H2422 C2407 0.961 . S
H2423 C2407 0.961 . S
H2424 C2408 0.931 . S
H2425 C2413 0.930 . S
H2426 C2414 0.956 . S
H2427 C2414 0.961 . S
H2428 C2414 0.961 . S
H2429 C2415 0.958 . S
H2430 C2415 0.961 . S
H2431 C2415 0.960 . S
C2432 C2433 1.391 . S
C2432 C2434 1.394 . S
C2432 H2448 0.931 . S
C2433 C2432 1.391 . S
C2433 C2437 1.376 . S
C2434 C2432 1.394 . S
C2434 C2435 1.369 . S
C2434 C2438 1.531 . S
C2435 C2434 1.369 . S
C2435 C2436 1.410 . S
C2435 C2443 1.503 . S
C2436 C2435 1.410 . S
C2436 C2437 1.392 . S
C2436 C2439 1.511 . S
C2437 C2433 1.376 . S
C2437 C2436 1.392 . S
C2437 H2449 0.929 . S
C2438 C2434 1.531 . S
C2438 H2450 0.960 . S
C2438 H2451 0.962 . S
C2438 H2452 0.960 . S
C2439 C2436 1.511 . S
C2439 H2453 0.961 . S
C2439 H2454 0.961 . S
C2439 H2455 0.961 . S
C2440 C2441 1.370 . S
C2440 C2442 1.363 . S
C2440 H2456 0.931 . S
C2441 C2440 1.370 . S
C2441 C2445 1.408 . S
C2442 C2440 1.363 . S
C2442 C2443 1.370 . S
C2442 C2446 1.524 . S
C2443 C2435 1.503 . S
C2443 C2442 1.370 . S
C2443 C2444 1.403 . S
C2444 C2443 1.403 . S
C2444 C2445 1.404 . S
C2444 C2447 1.539 . S
C2445 C2441 1.408 . S
C2445 C2444 1.404 . S
C2445 H2457 0.930 . S
C2446 C2442 1.524 . S
C2446 H2458 0.956 . S
C2446 H2459 0.961 . S
C2446 H2460 0.961 . S
C2447 C2444 1.539 . S
C2447 H2461 0.958 . S
C2447 H2462 0.961 . S
C2447 H2463 0.960 . S
H2448 C2432 0.931 . S
H2449 C2437 0.929 . S
H2450 C2438 0.960 . S
H2451 C2438 0.962 . S
H2452 C2438 0.960 . S
H2453 C2439 0.961 . S
H2454 C2439 0.961 . S
H2455 C2439 0.961 . S
H2456 C2440 0.931 . S
H2457 C2445 0.930 . S
H2458 C2446 0.956 . S
H2459 C2446 0.961 . S
H2460 C2446 0.961 . S
H2461 C2447 0.958 . S
H2462 C2447 0.961 . S
H2463 C2447 0.960 . S
C2464 C2465 1.391 . S
C2464 C2466 1.394 . S
C2464 H2480 0.931 . S
C2465 C2464 1.391 . S
C2465 C2469 1.376 . S
C2466 C2464 1.394 . S
C2466 C2467 1.369 . S
C2466 C2470 1.531 . S
C2467 C2466 1.369 . S
C2467 C2468 1.410 . S
C2467 C2475 1.503 . S
C2468 C2467 1.410 . S
C2468 C2469 1.392 . S
C2468 C2471 1.511 . S
C2469 C2465 1.376 . S
C2469 C2468 1.392 . S
C2469 H2481 0.929 . S
C2470 C2466 1.531 . S
C2470 H2482 0.960 . S
C2470 H2483 0.962 . S
C2470 H2484 0.960 . S
C2471 C2468 1.511 . S
C2471 H2485 0.961 . S
C2471 H2486 0.961 . S
C2471 H2487 0.961 . S
C2472 C2473 1.370 . S
C2472 C2474 1.363 . S
C2472 H2488 0.931 . S
C2473 C2472 1.370 . S
C2473 C2477 1.408 . S
C2474 C2472 1.363 . S
C2474 C2475 1.370 . S
C2474 C2478 1.524 . S
C2475 C2467 1.503 . S
C2475 C2474 1.370 . S
C2475 C2476 1.403 . S
C2476 C2475 1.403 . S
C2476 C2477 1.404 . S
C2476 C2479 1.539 . S
C2477 C2473 1.408 . S
C2477 C2476 1.404 . S
C2477 H2489 0.930 . S
C2478 C2474 1.524 . S
C2478 H2490 0.956 . S
C2478 H2491 0.961 . S
C2478 H2492 0.961 . S
C2479 C2476 1.539 . S
C2479 H2493 0.958 . S
C2479 H2494 0.961 . S
C2479 H2495 0.960 . S
H2480 C2464 0.931 . S
H2481 C2469 0.929 . S
H2482 C2470 0.960 . S
H2483 C2470 0.962 . S
H2484 C2470 0.960 . S
H2485 C2471 0.961 . S
H2486 C2471 0.961 . S
H2487 C2471 0.961 . S
H2488 C2472 0.931 . S
H2489 C2477 0.930 . S
H2490 C2478 0.956 . S
H2491 C2478 0.961 . S
H2492 C2478 0.961 . S
H2493 C2479 0.958 . S
H2494 C2479 0.961 . S
H2495 C2479 0.960 . S
C2496 C2497 1.391 . S
C2496 C2498 1.394 . S
C2496 H2512 0.949 . S
C2497 C2496 1.391 . S
C2497 C2501 1.376 . S
C2498 C2496 1.394 . S
C2498 C2499 1.369 . S
C2498 C2502 1.531 . S
C2499 C2498 1.369 . S
C2499 C2500 1.410 . S
C2499 C2507 1.503 . S
C2500 C2499 1.410 . S
C2500 C2501 1.392 . S
C2500 C2503 1.511 . S
C2501 C2497 1.376 . S
C2501 C2500 1.392 . S
C2501 H2513 0.929 . S
C2502 C2498 1.531 . S
C2502 H2514 0.960 . S
C2502 H2515 0.962 . S
C2502 H2516 0.960 . S
C2503 C2500 1.511 . S
C2503 H2517 0.961 . S
C2503 H2518 0.961 . S
C2503 H2519 0.961 . S
C2504 C2505 1.370 . S
C2504 C2506 1.363 . S
C2504 H2520 0.931 . S
C2505 C2504 1.370 . S
C2505 C2509 1.408 . S
C2506 C2504 1.363 . S
C2506 C2507 1.370 . S
C2506 C2510 1.524 . S
C2507 C2499 1.503 . S
C2507 C2506 1.370 . S
C2507 C2508 1.403 . S
C2508 C2507 1.403 . S
C2508 C2509 1.404 . S
C2508 C2511 1.539 . S
C2509 C2505 1.408 . S
C2509 C2508 1.404 . S
C2509 H2521 0.930 . S
C2510 C2506 1.524 . S
C2510 H2522 0.956 . S
C2510 H2523 0.961 . S
C2510 H2524 0.961 . S
C2511 C2508 1.539 . S
C2511 H2525 0.958 . S
C2511 H2526 0.961 . S
C2511 H2527 0.960 . S
H2512 C2496 0.949 . S
H2513 C2501 0.929 . S
H2514 C2502 0.960 . S
H2515 C2502 0.962 . S
H2516 C2502 0.960 . S
H2517 C2503 0.961 . S
H2518 C2503 0.961 . S
H2519 C2503 0.961 . S
H2520 C2504 0.931 . S
H2521 C2509 0.930 . S
H2522 C2510 0.956 . S
H2523 C2510 0.961 . S
H2524 C2510 0.961 . S
H2525 C2511 0.958 . S
H2526 C2511 0.961 . S
H2527 C2511 0.960 . S
C2528 C2529 1.391 . S
C2528 C2530 1.394 . S
C2528 H2544 0.931 . S
C2529 C2528 1.391 . S
C2529 C2533 1.376 . S
C2530 C2528 1.394 . S
C2530 C2531 1.369 . S
C2530 C2534 1.531 . S
C2531 C2530 1.369 . S
C2531 C2532 1.410 . S
C2531 C2539 1.503 . S
C2532 C2531 1.410 . S
C2532 C2533 1.392 . S
C2532 C2535 1.511 . S
C2533 C2529 1.376 . S
C2533 C2532 1.392 . S
C2533 H2545 0.929 . S
C2534 C2530 1.531 . S
C2534 H2546 0.960 . S
C2534 H2547 0.962 . S
C2534 H2548 0.960 . S
C2535 C2532 1.511 . S
C2535 H2549 0.961 . S
C2535 H2550 0.961 . S
C2535 H2551 0.961 . S
C2536 C2537 1.370 . S
C2536 C2538 1.363 . S
C2536 H2552 0.931 . S
C2537 C2536 1.370 . S
C2537 C2541 1.408 . S
C2538 C2536 1.363 . S
C2538 C2539 1.370 . S
C2538 C2542 1.524 . S
C2539 C2531 1.503 . S
C2539 C2538 1.370 . S
C2539 C2540 1.403 . S
C2540 C2539 1.403 . S
C2540 C2541 1.404 . S
C2540 C2543 1.539 . S
C2541 C2537 1.408 . S
C2541 C2540 1.404 . S
C2541 H2553 0.930 . S
C2542 C2538 1.524 . S
C2542 H2554 0.956 . S
C2542 H2555 0.961 . S
C2542 H2556 0.961 . S
C2543 C2540 1.539 . S
C2543 H2557 0.958 . S
C2543 H2558 0.961 . S
C2543 H2559 0.960 . S
H2544 C2528 0.931 . S
H2545 C2533 0.929 . S
H2546 C2534 0.960 . S
H2547 C2534 0.962 . S
H2548 C2534 0.960 . S
H2549 C2535 0.961 . S
H2550 C2535 0.961 . S
H2551 C2535 0.961 . S
H2552 C2536 0.931 . S
H2553 C2541 0.930 . S
H2554 C2542 0.956 . S
H2555 C2542 0.961 . S
H2556 C2542 0.961 . S
H2557 C2543 0.958 . S
H2558 C2543 0.961 . S
H2559 C2543 0.960 . S
C2560 C2561 1.391 . S
C2560 C2562 1.394 . S
C2560 H2576 0.931 . S
C2561 C2560 1.391 . S
C2561 C2565 1.376 . S
C2562 C2560 1.394 . S
C2562 C2563 1.369 . S
C2562 C2566 1.531 . S
C2563 C2562 1.369 . S
C2563 C2564 1.410 . S
C2563 C2571 1.503 . S
C2564 C2563 1.410 . S
C2564 C2565 1.392 . S
C2564 C2567 1.511 . S
C2565 C2561 1.376 . S
C2565 C2564 1.392 . S
C2565 H2577 0.929 . S
C2566 C2562 1.531 . S
C2566 H2578 0.960 . S
C2566 H2579 0.962 . S
C2566 H2580 0.960 . S
C2567 C2564 1.511 . S
C2567 H2581 0.961 . S
C2567 H2582 0.961 . S
C2567 H2583 0.961 . S
C2568 C2569 1.370 . S
C2568 C2570 1.363 . S
C2568 H2584 0.931 . S
C2569 C2568 1.370 . S
C2569 C2573 1.408 . S
C2570 C2568 1.363 . S
C2570 C2571 1.370 . S
C2570 C2574 1.524 . S
C2571 C2563 1.503 . S
C2571 C2570 1.370 . S
C2571 C2572 1.403 . S
C2572 C2571 1.403 . S
C2572 C2573 1.404 . S
C2572 C2575 1.539 . S
C2573 C2569 1.408 . S
C2573 C2572 1.404 . S
C2573 H2585 0.930 . S
C2574 C2570 1.524 . S
C2574 H2586 0.956 . S
C2574 H2587 0.961 . S
C2574 H2588 0.961 . S
C2575 C2572 1.539 . S
C2575 H2589 0.958 . S
C2575 H2590 0.961 . S
C2575 H2591 0.960 . S
H2576 C2560 0.931 . S
H2577 C2565 0.929 . S
H2578 C2566 0.960 . S
H2579 C2566 0.962 . S
H2580 C2566 0.960 . S
H2581 C2567 0.961 . S
H2582 C2567 0.961 . S
H2583 C2567 0.961 . S
H2584 C2568 0.931 . S
H2585 C2573 0.930 . S
H2586 C2574 0.956 . S
H2587 C2574 0.961 . S
H2588 C2574 0.961 . S
H2589 C2575 0.958 . S
H2590 C2575 0.961 . S
H2591 C2575 0.960 . S
C2592 C2593 1.391 . S
C2592 C2594 1.394 . S
C2592 H2608 0.931 . S
C2593 C2592 1.391 . S
C2593 C2597 1.376 . S
C2594 C2592 1.394 . S
C2594 C2595 1.369 . S
C2594 C2598 1.531 . S
C2595 C2594 1.369 . S
C2595 C2596 1.410 . S
C2595 C2603 1.503 . S
C2596 C2595 1.410 . S
C2596 C2597 1.392 . S
C2596 C2599 1.511 . S
C2597 C2593 1.376 . S
C2597 C2596 1.392 . S
C2597 H2609 0.929 . S
C2598 C2594 1.531 . S
C2598 H2610 0.960 . S
C2598 H2611 0.962 . S
C2598 H2612 0.960 . S
C2599 C2596 1.511 . S
C2599 H2613 0.961 . S
C2599 H2614 0.961 . S
C2599 H2615 0.961 . S
C2600 C2601 1.370 . S
C2600 C2602 1.363 . S
C2600 H2616 0.931 . S
C2601 C2600 1.370 . S
C2601 C2605 1.408 . S
C2602 C2600 1.363 . S
C2602 C2603 1.370 . S
C2602 C2606 1.524 . S
C2603 C2595 1.503 . S
C2603 C2602 1.370 . S
C2603 C2604 1.403 . S
C2604 C2603 1.403 . S
C2604 C2605 1.404 . S
C2604 C2607 1.539 . S
C2605 C2601 1.408 . S
C2605 C2604 1.404 . S
C2605 H2617 0.930 . S
C2606 C2602 1.524 . S
C2606 H2618 0.956 . S
C2606 H2619 0.961 . S
C2606 H2620 0.961 . S
C2607 C2604 1.539 . S
C2607 H2621 0.958 . S
C2607 H2622 0.961 . S
C2607 H2623 0.960 . S
H2608 C2592 0.931 . S
H2609 C2597 0.929 . S
H2610 C2598 0.960 . S
H2611 C2598 0.962 . S
H2612 C2598 0.960 . S
H2613 C2599 0.961 . S
H2614 C2599 0.961 . S
H2615 C2599 0.961 . S
H2616 C2600 0.931 . S
H2617 C2605 0.930 . S
H2618 C2606 0.956 . S
H2619 C2606 0.961 . S
H2620 C2606 0.961 . S
H2621 C2607 0.958 . S
H2622 C2607 0.961 . S
H2623 C2607 0.960 . S
C2624 C2625 1.391 . S
C2624 C2626 1.394 . S
C2624 H2640 0.931 . S
C2625 C2624 1.391 . S
C2625 C2629 1.376 . S
C2626 C2624 1.394 . S
C2626 C2627 1.369 . S
C2626 C2630 1.531 1_455 S
C2627 C2626 1.369 . S
C2627 C2628 1.410 1_565 S
C2627 C2635 1.503 1_465 S
C2628 C2627 1.410 1_545 S
C2628 C2629 1.392 1_545 S
C2628 C2631 1.511 . S
C2629 C2625 1.376 . S
C2629 C2628 1.392 1_565 S
C2629 H2641 0.929 . S
C2630 C2626 1.531 1_655 S
C2630 H2642 0.960 . S
C2630 H2643 0.962 . S
C2630 H2644 0.960 . S
C2631 C2628 1.511 . S
C2631 H2645 0.961 . S
C2631 H2646 0.961 . S
C2631 H2647 0.961 . S
C2632 C2633 1.370 . S
C2632 C2634 1.363 . S
C2632 H2648 0.931 . S
C2633 C2632 1.370 . S
C2633 C2637 1.408 . S
C2634 C2632 1.363 . S
C2634 C2635 1.370 . S
C2634 C2638 1.524 1_545 S
C2635 C2627 1.503 1_645 S
C2635 C2634 1.370 . S
C2635 C2636 1.403 . S
C2636 C2635 1.403 . S
C2636 C2637 1.404 . S
C2636 C2639 1.539 . S
C2637 C2633 1.408 . S
C2637 C2636 1.404 . S
C2637 H2649 0.930 . S
C2638 C2634 1.524 1_565 S
C2638 H2650 0.956 . S
C2638 H2651 0.961 1_655 S
C2638 H2652 0.961 . S
C2639 C2636 1.539 . S
C2639 H2653 0.958 . S
C2639 H2654 0.961 . S
C2639 H2655 0.960 1_655 S
H2640 C2624 0.931 . S
H2641 C2629 0.929 . S
H2642 C2630 0.960 . S
H2643 C2630 0.962 . S
H2644 C2630 0.960 . S
H2645 C2631 0.961 . S
H2646 C2631 0.961 . S
H2647 C2631 0.961 . S
H2648 C2632 0.931 . S
H2649 C2637 0.930 . S
H2650 C2638 0.956 . S
H2651 C2638 0.961 1_455 S
H2652 C2638 0.961 . S
H2653 C2639 0.958 . S
H2654 C2639 0.961 . S
H2655 C2639 0.960 1_455 S
C2656 C2657 1.391 . S
C2656 C2658 1.394 . S
C2656 H2672 0.931 . S
C2657 C2656 1.391 . S
C2657 C2661 1.376 . S
C2658 C2656 1.394 . S
C2658 C2659 1.369 . S
C2658 C2662 1.531 . S
C2659 C2658 1.369 . S
C2659 C2660 1.410 . S
C2659 C2667 1.503 . S
C2660 C2659 1.410 . S
C2660 C2661 1.392 . S
C2660 C2663 1.511 . S
C2661 C2657 1.376 . S
C2661 C2660 1.392 . S
C2661 H2673 0.929 . S
C2662 C2658 1.531 . S
C2662 H2674 0.960 . S
C2662 H2675 0.962 . S
C2662 H2676 0.960 . S
C2663 C2660 1.511 . S
C2663 H2677 0.961 . S
C2663 H2678 0.961 . S
C2663 H2679 0.961 . S
C2664 C2665 1.370 . S
C2664 C2666 1.363 . S
C2664 H2680 0.931 . S
C2665 C2664 1.370 . S
C2665 C2669 1.408 . S
C2666 C2664 1.363 . S
C2666 C2667 1.370 . S
C2666 C2670 1.524 . S
C2667 C2659 1.503 . S
C2667 C2666 1.370 . S
C2667 C2668 1.403 . S
C2668 C2667 1.403 . S
C2668 C2669 1.404 . S
C2668 C2671 1.539 . S
C2669 C2665 1.408 . S
C2669 C2668 1.404 . S
C2669 H2681 0.930 . S
C2670 C2666 1.524 . S
C2670 H2682 0.956 . S
C2670 H2683 0.961 . S
C2670 H2684 0.961 . S
C2671 C2668 1.539 . S
C2671 H2685 0.958 . S
C2671 H2686 0.961 . S
C2671 H2687 0.960 . S
H2672 C2656 0.931 . S
H2673 C2661 0.929 . S
H2674 C2662 0.960 . S
H2675 C2662 0.962 . S
H2676 C2662 0.960 . S
H2677 C2663 0.961 . S
H2678 C2663 0.961 . S
H2679 C2663 0.961 . S
H2680 C2664 0.931 . S
H2681 C2669 0.930 . S
H2682 C2670 0.956 . S
H2683 C2670 0.961 . S
H2684 C2670 0.961 . S
H2685 C2671 0.958 . S
H2686 C2671 0.961 . S
H2687 C2671 0.960 . S
C2688 C2689 1.391 1_554 S
C2688 C2690 1.394 . S
C2688 H2704 0.931 . S
C2689 C2688 1.391 1_556 S
C2689 C2693 1.376 . S
C2690 C2688 1.394 . S
C2690 C2691 1.359 1_554 S
C2690 C2694 1.531 . S
C2691 C2690 1.359 1_556 S
C2691 C2692 1.421 1_565 S
C2691 C2699 1.501 1_566 S
C2692 C2691 1.421 1_545 S
C2692 C2693 1.381 1_545 S
C2692 C2695 1.524 . S
C2693 C2689 1.376 . S
C2693 C2692 1.381 1_565 S
C2693 H2705 0.929 . S
C2694 C2690 1.531 . S
C2694 H2706 0.960 . S
C2694 H2707 0.962 . S
C2694 H2708 0.960 . S
C2695 C2692 1.524 . S
C2695 H2709 0.961 . S
C2695 H2710 0.961 . S
C2695 H2711 0.961 . S
C2696 C2697 1.370 . S
C2696 C2698 1.363 1_544 S
C2696 H2712 0.954 1_554 S
C2697 C2696 1.370 . S
C2697 C2701 1.408 . S
C2698 C2696 1.363 1_566 S
C2698 C2699 1.370 1_566 S
C2698 C2702 1.524 . S
C2699 C2691 1.501 1_544 S
C2699 C2698 1.370 1_544 S
C2699 C2700 1.403 . S
C2700 C2699 1.403 . S
C2700 C2701 1.404 . S
C2700 C2703 1.539 . S
C2701 C2697 1.408 . S
C2701 C2700 1.404 . S
C2701 H2713 0.930 . S
C2702 C2698 1.524 . S
C2702 H2714 0.956 . S
C2702 H2715 0.961 . S
C2702 H2716 0.961 . S
C2703 C2700 1.539 . S
C2703 H2717 0.958 . S
C2703 H2718 0.961 . S
C2703 H2719 0.960 . S
H2704 C2688 0.931 . S
H2705 C2693 0.929 . S
H2706 C2694 0.960 . S
H2707 C2694 0.962 . S
H2708 C2694 0.960 . S
H2709 C2695 0.961 . S
H2710 C2695 0.961 . S
H2711 C2695 0.961 . S
H2712 C2696 0.954 1_556 S
H2713 C2701 0.930 . S
H2714 C2702 0.956 . S
H2715 C2702 0.961 . S
H2716 C2702 0.961 . S
H2717 C2703 0.958 . S
H2718 C2703 0.961 . S
H2719 C2703 0.960 . S
C2720 C2721 1.391 . S
C2720 C2722 1.394 . S
C2720 H2736 0.931 . S
C2721 C2720 1.391 . S
C2721 C2725 1.376 . S
C2722 C2720 1.394 . S
C2722 C2723 1.369 . S
C2722 C2726 1.531 . S
C2723 C2722 1.369 . S
C2723 C2724 1.410 . S
C2723 C2731 1.503 . S
C2724 C2723 1.410 . S
C2724 C2725 1.392 . S
C2724 C2727 1.511 . S
C2725 C2721 1.376 . S
C2725 C2724 1.392 . S
C2725 H2737 0.929 . S
C2726 C2722 1.531 . S
C2726 H2738 0.960 . S
C2726 H2739 0.962 . S
C2726 H2740 0.960 . S
C2727 C2724 1.511 . S
C2727 H2741 0.961 . S
C2727 H2742 0.961 . S
C2727 H2743 0.961 . S
C2728 C2729 1.370 . S
C2728 C2730 1.363 . S
C2728 H2744 0.931 . S
C2729 C2728 1.370 . S
C2729 C2733 1.408 . S
C2730 C2728 1.363 . S
C2730 C2731 1.370 . S
C2730 C2734 1.524 . S
C2731 C2723 1.503 . S
C2731 C2730 1.370 . S
C2731 C2732 1.403 . S
C2732 C2731 1.403 . S
C2732 C2733 1.404 . S
C2732 C2735 1.539 . S
C2733 C2729 1.408 . S
C2733 C2732 1.404 . S
C2733 H2745 0.930 . S
C2734 C2730 1.524 . S
C2734 H2746 0.956 . S
C2734 H2747 0.961 . S
C2734 H2748 0.961 . S
C2735 C2732 1.539 . S
C2735 H2749 0.958 . S
C2735 H2750 0.961 . S
C2735 H2751 0.960 . S
H2736 C2720 0.931 . S
H2737 C2725 0.929 . S
H2738 C2726 0.960 . S
H2739 C2726 0.962 . S
H2740 C2726 0.960 . S
H2741 C2727 0.961 . S
H2742 C2727 0.961 . S
H2743 C2727 0.961 . S
H2744 C2728 0.931 . S
H2745 C2733 0.930 . S
H2746 C2734 0.956 . S
H2747 C2734 0.961 . S
H2748 C2734 0.961 . S
H2749 C2735 0.958 . S
H2750 C2735 0.961 . S
H2751 C2735 0.960 . S
C2752 C2753 1.391 . S
C2752 C2754 1.394 1_565 S
C2752 H2768 0.931 1_565 S
C2753 C2752 1.391 . S
C2753 C2757 1.376 . S
C2754 C2752 1.394 1_545 S
C2754 C2755 1.369 1_545 S
C2754 C2758 1.531 . S
C2755 C2754 1.369 1_565 S
C2755 C2756 1.410 . S
C2755 C2763 1.503 1_565 S
C2756 C2755 1.410 . S
C2756 C2757 1.392 . S
C2756 C2759 1.511 . S
C2757 C2753 1.376 . S
C2757 C2756 1.392 . S
C2757 H2769 0.929 . S
C2758 C2754 1.531 . S
C2758 H2770 0.960 . S
C2758 H2771 0.962 . S
C2758 H2772 0.960 . S
C2759 C2756 1.511 . S
C2759 H2773 0.961 . S
C2759 H2774 0.961 . S
C2759 H2775 0.961 . S
C2760 C2761 1.370 . S
C2760 C2762 1.363 . S
C2760 H2776 0.931 . S
C2761 C2760 1.370 . S
C2761 C2765 1.408 . S
C2762 C2760 1.363 . S
C2762 C2763 1.370 . S
C2762 C2766 1.524 1_545 S
C2763 C2755 1.503 1_545 S
C2763 C2762 1.370 . S
C2763 C2764 1.403 . S
C2764 C2763 1.403 . S
C2764 C2765 1.404 . S
C2764 C2767 1.539 . S
C2765 C2761 1.408 . S
C2765 C2764 1.404 . S
C2765 H2777 0.930 . S
C2766 C2762 1.524 1_565 S
C2766 H2778 0.956 1_565 S
C2766 H2779 0.961 . S
C2766 H2780 0.961 . S
C2767 C2764 1.539 . S
C2767 H2781 0.958 . S
C2767 H2782 0.961 . S
C2767 H2783 0.960 . S
H2768 C2752 0.931 1_545 S
H2769 C2757 0.929 . S
H2770 C2758 0.960 . S
H2771 C2758 0.962 . S
H2772 C2758 0.960 . S
H2773 C2759 0.961 . S
H2774 C2759 0.961 . S
H2775 C2759 0.961 . S
H2776 C2760 0.931 . S
H2777 C2765 0.930 . S
H2778 C2766 0.956 1_545 S
H2779 C2766 0.961 . S
H2780 C2766 0.961 . S
H2781 C2767 0.958 . S
H2782 C2767 0.961 . S
H2783 C2767 0.960 . S
C2784 C2785 1.391 . S
C2784 C2786 1.394 . S
C2784 H2800 0.931 . S
C2785 C2784 1.391 . S
C2785 C2789 1.376 . S
C2786 C2784 1.394 . S
C2786 C2787 1.369 . S
C2786 C2790 1.531 . S
C2787 C2786 1.369 . S
C2787 C2788 1.410 . S
C2787 C2795 1.503 . S
C2788 C2787 1.410 . S
C2788 C2789 1.392 . S
C2788 C2791 1.511 . S
C2789 C2785 1.376 . S
C2789 C2788 1.392 . S
C2789 H2801 0.929 . S
C2790 C2786 1.531 . S
C2790 H2802 0.960 . S
C2790 H2803 0.962 . S
C2790 H2804 0.960 . S
C2791 C2788 1.511 . S
C2791 H2805 0.961 . S
C2791 H2806 0.961 . S
C2791 H2807 0.961 . S
C2792 C2793 1.370 . S
C2792 C2794 1.363 . S
C2792 H2808 0.931 . S
C2793 C2792 1.370 . S
C2793 C2797 1.408 . S
C2794 C2792 1.363 . S
C2794 C2795 1.370 . S
C2794 C2798 1.524 . S
C2795 C2787 1.503 . S
C2795 C2794 1.370 . S
C2795 C2796 1.403 . S
C2796 C2795 1.403 . S
C2796 C2797 1.404 . S
C2796 C2799 1.539 . S
C2797 C2793 1.408 . S
C2797 C2796 1.404 . S
C2797 H2809 0.930 . S
C2798 C2794 1.524 . S
C2798 H2810 0.956 . S
C2798 H2811 0.961 . S
C2798 H2812 0.961 . S
C2799 C2796 1.539 . S
C2799 H2813 0.958 . S
C2799 H2814 0.961 . S
C2799 H2815 0.960 . S
H2800 C2784 0.931 . S
H2801 C2789 0.929 . S
H2802 C2790 0.960 . S
H2803 C2790 0.962 . S
H2804 C2790 0.960 . S
H2805 C2791 0.961 . S
H2806 C2791 0.961 . S
H2807 C2791 0.961 . S
H2808 C2792 0.931 . S
H2809 C2797 0.930 . S
H2810 C2798 0.956 . S
H2811 C2798 0.961 . S
H2812 C2798 0.961 . S
H2813 C2799 0.958 . S
H2814 C2799 0.961 . S
H2815 C2799 0.960 . S
C2816 C2817 1.391 . S
C2816 C2818 1.394 . S
C2816 H2832 0.931 . S
C2817 C2816 1.391 . S
C2817 C2821 1.376 . S
C2818 C2816 1.394 . S
C2818 C2819 1.369 . S
C2818 C2822 1.531 1_455 S
C2819 C2818 1.369 . S
C2819 C2820 1.410 1_545 S
C2819 C2827 1.503 1_445 S
C2820 C2819 1.410 1_565 S
C2820 C2821 1.392 1_565 S
C2820 C2823 1.511 . S
C2821 C2817 1.376 . S
C2821 C2820 1.392 1_545 S
C2821 H2833 0.929 1_545 S
C2822 C2818 1.531 1_655 S
C2822 H2834 0.960 . S
C2822 H2835 0.962 1_556 S
C2822 H2836 0.960 . S
C2823 C2820 1.511 . S
C2823 H2837 0.961 1_556 S
C2823 H2838 0.961 1_556 S
C2823 H2839 0.961 . S
C2824 C2825 1.370 . S
C2824 C2826 1.363 . S
C2824 H2840 0.931 . S
C2825 C2824 1.370 . S
C2825 C2829 1.408 1_554 S
C2826 C2824 1.363 . S
C2826 C2827 1.370 1_554 S
C2826 C2830 1.524 1_565 S
C2827 C2819 1.503 1_665 S
C2827 C2826 1.370 1_556 S
C2827 C2828 1.403 . S
C2828 C2827 1.403 . S
C2828 C2829 1.404 . S
C2828 C2831 1.539 . S
C2829 C2825 1.408 1_556 S
C2829 C2828 1.404 . S
C2829 H2841 0.930 . S
C2830 C2826 1.524 1_545 S
C2830 H2842 0.956 . S
C2830 H2843 0.961 1_645 S
C2830 H2844 0.956 1_545 S
C2831 C2828 1.539 . S
C2831 H2845 0.958 . S
C2831 H2846 0.961 . S
C2831 H2847 0.960 . S
H2832 C2816 0.931 . S
H2833 C2821 0.929 1_565 S
H2834 C2822 0.960 . S
H2835 C2822 0.962 1_554 S
H2836 C2822 0.960 . S
H2837 C2823 0.961 1_554 S
H2838 C2823 0.961 1_554 S
H2839 C2823 0.961 . S
H2840 C2824 0.931 . S
H2841 C2829 0.930 . S
H2842 C2830 0.956 . S
H2843 C2830 0.961 1_465 S
H2844 C2830 0.956 1_565 S
H2845 C2831 0.958 . S
H2846 C2831 0.961 . S
H2847 C2831 0.960 . S
C2848 C2849 1.391 . S
C2848 C2850 1.394 . S
C2848 H2864 0.931 . S
C2849 C2848 1.391 . S
C2849 C2853 1.376 . S
C2850 C2848 1.394 . S
C2850 C2851 1.369 . S
C2850 C2854 1.531 . S
C2851 C2850 1.369 . S
C2851 C2852 1.410 . S
C2851 C2859 1.503 . S
C2852 C2851 1.410 . S
C2852 C2853 1.392 . S
C2852 C2855 1.511 . S
C2853 C2849 1.376 . S
C2853 C2852 1.392 . S
C2853 H2865 0.929 . S
C2854 C2850 1.531 . S
C2854 H2866 0.960 . S
C2854 H2867 0.962 . S
C2854 H2868 0.960 . S
C2855 C2852 1.511 . S
C2855 H2869 0.961 . S
C2855 H2870 0.961 . S
C2855 H2871 0.961 . S
C2856 C2857 1.370 . S
C2856 C2858 1.363 . S
C2856 H2872 0.931 . S
C2857 C2856 1.370 . S
C2857 C2861 1.408 . S
C2858 C2856 1.363 . S
C2858 C2859 1.370 . S
C2858 C2862 1.524 . S
C2859 C2851 1.503 . S
C2859 C2858 1.370 . S
C2859 C2860 1.403 . S
C2860 C2859 1.403 . S
C2860 C2861 1.404 . S
C2860 C2863 1.539 . S
C2861 C2857 1.408 . S
C2861 C2860 1.404 . S
C2861 H2873 0.930 . S
C2862 C2858 1.524 . S
C2862 H2874 0.956 . S
C2862 H2875 0.961 . S
C2862 H2876 0.961 . S
C2863 C2860 1.539 . S
C2863 H2877 0.958 . S
C2863 H2878 0.961 . S
C2863 H2879 0.960 . S
H2864 C2848 0.931 . S
H2865 C2853 0.929 . S
H2866 C2854 0.960 . S
H2867 C2854 0.962 . S
H2868 C2854 0.960 . S
H2869 C2855 0.961 . S
H2870 C2855 0.961 . S
H2871 C2855 0.961 . S
H2872 C2856 0.931 . S
H2873 C2861 0.930 . S
H2874 C2862 0.956 . S
H2875 C2862 0.961 . S
H2876 C2862 0.961 . S
H2877 C2863 0.958 . S
H2878 C2863 0.961 . S
H2879 C2863 0.960 . S
C2880 C2881 1.391 . S
C2880 C2882 1.394 . S
C2880 H2896 0.931 . S
C2881 C2880 1.391 . S
C2881 C2885 1.376 . S
C2882 C2880 1.394 . S
C2882 C2883 1.369 . S
C2882 C2886 1.531 . S
C2883 C2882 1.369 . S
C2883 C2884 1.410 . S
C2883 C2891 1.503 . S
C2884 C2883 1.410 . S
C2884 C2885 1.392 . S
C2884 C2887 1.511 . S
C2885 C2881 1.376 . S
C2885 C2884 1.392 . S
C2885 H2897 0.929 . S
C2886 C2882 1.531 . S
C2886 H2898 0.960 . S
C2886 H2899 0.962 . S
C2886 H2900 0.960 . S
C2887 C2884 1.511 . S
C2887 H2901 0.961 . S
C2887 H2902 0.961 . S
C2887 H2903 0.961 . S
C2888 C2889 1.370 . S
C2888 C2890 1.363 . S
C2888 H2904 0.931 . S
C2889 C2888 1.370 . S
C2889 C2893 1.408 . S
C2890 C2888 1.363 . S
C2890 C2891 1.370 . S
C2890 C2894 1.524 . S
C2891 C2883 1.503 . S
C2891 C2890 1.370 . S
C2891 C2892 1.403 . S
C2892 C2891 1.403 . S
C2892 C2893 1.404 . S
C2892 C2895 1.539 . S
C2893 C2889 1.408 . S
C2893 C2892 1.404 . S
C2893 H2905 0.930 . S
C2894 C2890 1.524 . S
C2894 H2906 0.956 . S
C2894 H2907 0.961 . S
C2894 H2908 0.961 . S
C2895 C2892 1.539 . S
C2895 H2909 0.958 . S
C2895 H2910 0.961 . S
C2895 H2911 0.960 . S
H2896 C2880 0.931 . S
H2897 C2885 0.929 . S
H2898 C2886 0.960 . S
H2899 C2886 0.962 . S
H2900 C2886 0.960 . S
H2901 C2887 0.961 . S
H2902 C2887 0.961 . S
H2903 C2887 0.961 . S
H2904 C2888 0.931 . S
H2905 C2893 0.930 . S
H2906 C2894 0.956 . S
H2907 C2894 0.961 . S
H2908 C2894 0.961 . S
H2909 C2895 0.958 . S
H2910 C2895 0.961 . S
H2911 C2895 0.960 . S
C2912 C2913 1.391 . S
C2912 C2914 1.394 . S
C2912 H2928 0.931 . S
C2913 C2912 1.391 . S
C2913 C2917 1.376 . S
C2914 C2912 1.394 . S
C2914 C2915 1.369 . S
C2914 C2918 1.531 . S
C2915 C2914 1.369 . S
C2915 C2916 1.410 . S
C2915 C2923 1.503 . S
C2916 C2915 1.410 . S
C2916 C2917 1.392 . S
C2916 C2919 1.511 . S
C2917 C2913 1.376 . S
C2917 C2916 1.392 . S
C2917 H2929 0.929 . S
C2918 C2914 1.531 . S
C2918 H2930 0.960 . S
C2918 H2931 0.962 . S
C2918 H2932 0.960 . S
C2919 C2916 1.511 . S
C2919 H2933 0.961 . S
C2919 H2934 0.961 . S
C2919 H2935 0.961 . S
C2920 C2921 1.370 . S
C2920 C2922 1.363 . S
C2920 H2936 0.931 . S
C2921 C2920 1.370 . S
C2921 C2925 1.408 . S
C2922 C2920 1.363 . S
C2922 C2923 1.370 . S
C2922 C2926 1.524 . S
C2923 C2915 1.503 . S
C2923 C2922 1.370 . S
C2923 C2924 1.403 . S
C2924 C2923 1.403 . S
C2924 C2925 1.404 . S
C2924 C2927 1.539 . S
C2925 C2921 1.408 . S
C2925 C2924 1.404 . S
C2925 H2937 0.930 . S
C2926 C2922 1.524 . S
C2926 H2938 0.956 . S
C2926 H2939 0.961 . S
C2926 H2940 0.961 . S
C2927 C2924 1.539 . S
C2927 H2941 0.958 . S
C2927 H2942 0.961 . S
C2927 H2943 0.960 . S
H2928 C2912 0.931 . S
H2929 C2917 0.929 . S
H2930 C2918 0.960 . S
H2931 C2918 0.962 . S
H2932 C2918 0.960 . S
H2933 C2919 0.961 . S
H2934 C2919 0.961 . S
H2935 C2919 0.961 . S
H2936 C2920 0.931 . S
H2937 C2925 0.930 . S
H2938 C2926 0.956 . S
H2939 C2926 0.961 . S
H2940 C2926 0.961 . S
H2941 C2927 0.958 . S
H2942 C2927 0.961 . S
H2943 C2927 0.960 . S
C2944 C2945 1.391 . S
C2944 C2946 1.394 . S
C2944 H2960 0.931 . S
C2945 C2944 1.391 . S
C2945 C2949 1.376 . S
C2946 C2944 1.394 . S
C2946 C2947 1.369 . S
C2946 C2950 1.531 . S
C2947 C2946 1.369 . S
C2947 C2948 1.410 . S
C2947 C2955 1.503 . S
C2948 C2947 1.410 . S
C2948 C2949 1.392 . S
C2948 C2951 1.511 . S
C2949 C2945 1.376 . S
C2949 C2948 1.392 . S
C2949 H2961 0.929 . S
C2950 C2946 1.531 . S
C2950 H2962 0.960 . S
C2950 H2963 0.962 . S
C2950 H2964 0.960 . S
C2951 C2948 1.511 . S
C2951 H2965 0.961 . S
C2951 H2966 0.961 . S
C2951 H2967 0.961 . S
C2952 C2953 1.370 . S
C2952 C2954 1.363 . S
C2952 H2968 0.931 . S
C2953 C2952 1.370 . S
C2953 C2957 1.408 . S
C2954 C2952 1.363 . S
C2954 C2955 1.370 . S
C2954 C2958 1.524 . S
C2955 C2947 1.503 . S
C2955 C2954 1.370 . S
C2955 C2956 1.403 . S
C2956 C2955 1.403 . S
C2956 C2957 1.404 . S
C2956 C2959 1.539 . S
C2957 C2953 1.408 . S
C2957 C2956 1.404 . S
C2957 H2969 0.930 . S
C2958 C2954 1.524 . S
C2958 H2970 0.956 . S
C2958 H2971 0.961 . S
C2958 H2972 0.961 . S
C2959 C2956 1.539 . S
C2959 H2973 0.958 . S
C2959 H2974 0.961 . S
C2959 H2975 0.960 . S
H2960 C2944 0.931 . S
H2961 C2949 0.929 . S
H2962 C2950 0.960 . S
H2963 C2950 0.962 . S
H2964 C2950 0.960 . S
H2965 C2951 0.961 . S
H2966 C2951 0.961 . S
H2967 C2951 0.961 . S
H2968 C2952 0.931 . S
H2969 C2957 0.930 . S
H2970 C2958 0.956 . S
H2971 C2958 0.961 . S
H2972 C2958 0.961 . S
H2973 C2959 0.958 . S
H2974 C2959 0.961 . S
H2975 C2959 0.960 . S
C2976 C2977 1.391 . S
C2976 C2978 1.394 1_554 S
C2976 H2992 0.931 . S
C2977 C2976 1.391 . S
C2977 C2981 1.376 . S
C2978 C2976 1.394 1_556 S
C2978 C2979 1.369 . S
C2978 C2982 1.531 . S
C2979 C2978 1.369 . S
C2979 C2980 1.410 1_556 S
C2979 C2987 1.503 . S
C2980 C2979 1.410 1_554 S
C2980 C2981 1.392 . S
C2980 C2983 1.511 . S
C2981 C2977 1.376 . S
C2981 C2980 1.392 . S
C2981 H2993 0.929 . S
C2982 C2978 1.531 . S
C2982 H2994 0.960 . S
C2982 H2995 0.962 1_556 S
C2982 H2996 0.960 . S
C2983 C2980 1.511 . S
C2983 H2997 0.961 . S
C2983 H2998 0.961 . S
C2983 H2999 0.961 1_554 S
C2984 C2985 1.370 1_554 S
C2984 C2986 1.363 . S
C2984 H3000 0.931 . S
C2985 C2984 1.370 1_556 S
C2985 C2989 1.408 . S
C2986 C2984 1.363 . S
C2986 C2987 1.370 1_554 S
C2986 C2990 1.524 . S
C2987 C2979 1.503 . S
C2987 C2986 1.370 1_556 S
C2987 C2988 1.403 . S
C2988 C2987 1.403 . S
C2988 C2989 1.404 . S
C2988 C2991 1.539 . S
C2989 C2985 1.408 . S
C2989 C2988 1.404 . S
C2989 H3001 0.930 . S
C2990 C2986 1.524 . S
C2990 H3002 0.956 . S
C2990 H3003 0.961 . S
C2990 H3004 0.961 . S
C2991 C2988 1.539 . S
C2991 H3005 0.958 . S
C2991 H3006 0.961 . S
C2991 H3007 0.960 . S
H2992 C2976 0.931 . S
H2993 C2981 0.929 . S
H2994 C2982 0.960 . S
H2995 C2982 0.962 1_554 S
H2996 C2982 0.960 . S
H2997 C2983 0.961 . S
H2998 C2983 0.961 . S
H2999 C2983 0.961 1_556 S
H3000 C2984 0.931 . S
H3001 C2989 0.930 . S
H3002 C2990 0.956 . S
H3003 C2990 0.961 . S
H3004 C2990 0.961 . S
H3005 C2991 0.958 . S
H3006 C2991 0.961 . S
H3007 C2991 0.960 . S
C3008 C3009 1.391 . S
C3008 C3010 1.394 . S
C3008 H3024 0.931 . S
C3009 C3008 1.391 . S
C3009 C3013 1.376 . S
C3010 C3008 1.394 . S
C3010 C3011 1.369 . S
C3010 C3014 1.531 . S
C3011 C3010 1.369 . S
C3011 C3012 1.410 . S
C3011 C3019 1.503 1_455 S
C3012 C3011 1.410 . S
C3012 C3013 1.392 . S
C3012 C3015 1.511 1_455 S
C3013 C3009 1.376 . S
C3013 C3012 1.392 . S
C3013 H3025 0.929 . S
C3014 C3010 1.531 . S
C3014 H3026 0.960 . S
C3014 H3027 0.962 . S
C3014 H3028 0.960 . S
C3015 C3012 1.511 1_655 S
C3015 H3029 0.961 . S
C3015 H3030 0.961 . S
C3015 H3031 0.961 . S
C3016 C3017 1.370 . S
C3016 C3018 1.363 . S
C3016 H3032 0.931 . S
C3017 C3016 1.370 . S
C3017 C3021 1.408 . S
C3018 C3016 1.363 . S
C3018 C3019 1.370 . S
C3018 C3022 1.486 1_655 S
C3019 C3011 1.503 1_655 S
C3019 C3018 1.370 . S
C3019 C3020 1.403 . S
C3020 C3019 1.403 . S
C3020 C3021 1.404 . S
C3020 C3023 1.539 . S
C3021 C3017 1.408 . S
C3021 C3020 1.404 . S
C3021 H3033 0.930 . S
C3022 C3018 1.486 1_455 S
C3022 H3034 1.008 . S
C3022 H3035 0.973 . S
C3022 H3036 0.939 1_455 S
C3023 C3020 1.539 . S
C3023 H3037 0.958 . S
C3023 H3038 0.961 . S
C3023 H3039 0.960 . S
H3024 C3008 0.931 . S
H3025 C3013 0.929 . S
H3026 C3014 0.960 . S
H3027 C3014 0.962 . S
H3028 C3014 0.960 . S
H3029 C3015 0.961 . S
H3030 C3015 0.961 . S
H3031 C3015 0.961 . S
H3032 C3016 0.931 . S
H3033 C3021 0.930 . S
H3034 C3022 1.008 . S
H3035 C3022 0.973 . S
H3036 C3022 0.939 1_655 S
H3037 C3023 0.958 . S
H3038 C3023 0.961 . S
H3039 C3023 0.960 . S
C3040 C3041 1.391 1_554 S
C3040 C3042 1.394 . S
C3040 H3056 0.931 . S
C3041 C3040 1.391 1_556 S
C3041 C3045 1.376 . S
C3042 C3040 1.394 . S
C3042 C3043 1.369 1_554 S
C3042 C3046 1.516 1_655 S
C3043 C3042 1.369 1_556 S
C3043 C3044 1.410 . S
C3043 C3051 1.500 1_656 S
C3044 C3043 1.410 . S
C3044 C3045 1.392 . S
C3044 C3047 1.511 . S
C3045 C3041 1.376 . S
C3045 C3044 1.392 . S
C3045 H3057 0.929 . S
C3046 C3042 1.516 1_455 S
C3046 H3058 0.985 . S
C3046 H3059 0.956 1_455 S
C3046 H3060 0.957 1_455 S
C3047 C3044 1.511 . S
C3047 H3061 0.961 . S
C3047 H3062 0.961 . S
C3047 H3063 0.961 . S
C3048 C3049 1.370 . S
C3048 C3050 1.363 . S
C3048 H3064 0.931 . S
C3049 C3048 1.370 . S
C3049 C3053 1.408 1_554 S
C3050 C3048 1.363 . S
C3050 C3051 1.381 . S
C3050 C3054 1.524 1_455 S
C3051 C3043 1.500 1_454 S
C3051 C3050 1.381 . S
C3051 C3052 1.396 1_554 S
C3052 C3051 1.396 1_556 S
C3052 C3053 1.404 . S
C3052 C3055 1.539 . S
C3053 C3049 1.408 1_556 S
C3053 C3052 1.404 . S
C3053 H3065 0.930 . S
C3054 C3050 1.524 1_655 S
C3054 H3066 0.956 . S
C3054 H3067 0.961 . S
C3054 H3068 0.961 . S
C3055 C3052 1.539 . S
C3055 H3069 0.958 . S
C3055 H3070 0.961 . S
C3055 H3071 0.960 . S
H3056 C3040 0.931 . S
H3057 C3045 0.929 . S
H3058 C3046 0.985 . S
H3059 C3046 0.956 1_655 S
H3060 C3046 0.957 1_655 S
H3061 C3047 0.961 . S
H3062 C3047 0.961 . S
H3063 C3047 0.961 . S
H3064 C3048 0.931 . S
H3065 C3053 0.930 . S
H3066 C3054 0.956 . S
H3067 C3054 0.961 . S
H3068 C3054 0.961 . S
H3069 C3055 0.958 . S
H3070 C3055 0.961 . S
H3071 C3055 0.960 . S
C3072 C3073 1.391 . S
C3072 C3074 1.394 . S
C3072 H3088 0.931 . S
C3073 C3072 1.391 . S
C3073 C3077 1.376 . S
C3074 C3072 1.394 . S
C3074 C3075 1.369 . S
C3074 C3078 1.531 . S
C3075 C3074 1.369 . S
C3075 C3076 1.410 . S
C3075 C3083 1.503 . S
C3076 C3075 1.410 . S
C3076 C3077 1.392 . S
C3076 C3079 1.511 . S
C3077 C3073 1.376 . S
C3077 C3076 1.392 . S
C3077 H3089 0.929 . S
C3078 C3074 1.531 . S
C3078 H3090 0.960 . S
C3078 H3091 0.962 . S
C3078 H3092 0.960 . S
C3079 C3076 1.511 . S
C3079 H3093 0.961 . S
C3079 H3094 0.961 . S
C3079 H3095 0.961 . S
C3080 C3081 1.370 . S
C3080 C3082 1.363 . S
C3080 H3096 0.931 . S
C3081 C3080 1.370 . S
C3081 C3085 1.408 . S
C3082 C3080 1.363 . S
C3082 C3083 1.370 . S
C3082 C3086 1.524 . S
C3083 C3075 1.503 . S
C3083 C3082 1.370 . S
C3083 C3084 1.403 . S
C3084 C3083 1.403 . S
C3084 C3085 1.404 . S
C3084 C3087 1.539 . S
C3085 C3081 1.408 . S
C3085 C3084 1.404 . S
C3085 H3097 0.930 . S
C3086 C3082 1.524 . S
C3086 H3098 0.956 . S
C3086 H3099 0.961 . S
C3086 H3100 0.961 . S
C3087 C3084 1.539 . S
C3087 H3101 0.958 . S
C3087 H3102 0.961 . S
C3087 H3103 0.960 . S
H3088 C3072 0.931 . S
H3089 C3077 0.929 . S
H3090 C3078 0.960 . S
H3091 C3078 0.962 . S
H3092 C3078 0.960 . S
H3093 C3079 0.961 . S
H3094 C3079 0.961 . S
H3095 C3079 0.961 . S
H3096 C3080 0.931 . S
H3097 C3085 0.930 . S
H3098 C3086 0.956 . S
H3099 C3086 0.961 . S
H3100 C3086 0.961 . S
H3101 C3087 0.958 . S
H3102 C3087 0.961 . S
H3103 C3087 0.960 . S
C3104 C3105 1.391 . S
C3104 C3106 1.394 . S
C3104 H3120 0.931 . S
C3105 C3104 1.391 . S
C3105 C3109 1.376 . S
C3106 C3104 1.394 . S
C3106 C3107 1.369 . S
C3106 C3110 1.531 . S
C3107 C3106 1.369 . S
C3107 C3108 1.410 . S
C3107 C3115 1.503 . S
C3108 C3107 1.410 . S
C3108 C3109 1.392 . S
C3108 C3111 1.511 . S
C3109 C3105 1.376 . S
C3109 C3108 1.392 . S
C3109 H3121 0.929 . S
C3110 C3106 1.531 . S
C3110 H3122 0.960 . S
C3110 H3123 0.962 . S
C3110 H3124 0.960 . S
C3111 C3108 1.511 . S
C3111 H3125 0.961 . S
C3111 H3126 0.961 . S
C3111 H3127 0.961 . S
C3112 C3113 1.370 . S
C3112 C3114 1.363 . S
C3112 H3128 0.931 . S
C3113 C3112 1.370 . S
C3113 C3117 1.408 . S
C3114 C3112 1.363 . S
C3114 C3115 1.370 . S
C3114 C3118 1.524 . S
C3115 C3107 1.503 . S
C3115 C3114 1.370 . S
C3115 C3116 1.403 . S
C3116 C3115 1.403 . S
C3116 C3117 1.404 . S
C3116 C3119 1.539 . S
C3117 C3113 1.408 . S
C3117 C3116 1.404 . S
C3117 H3129 0.930 . S
C3118 C3114 1.524 . S
C3118 H3130 0.956 . S
C3118 H3131 0.961 . S
C3118 H3132 0.961 . S
C3119 C3116 1.539 . S
C3119 H3133 0.958 . S
C3119 H3134 0.961 . S
C3119 H3135 0.960 . S
H3120 C3104 0.931 . S
H3121 C3109 0.929 . S
H3122 C3110 0.960 . S
H3123 C3110 0.962 . S
H3124 C3110 0.960 . S
H3125 C3111 0.961 . S
H3126 C3111 0.961 . S
H3127 C3111 0.961 . S
H3128 C3112 0.931 . S
H3129 C3117 0.930 . S
H3130 C3118 0.956 . S
H3131 C3118 0.961 . S
H3132 C3118 0.961 . S
H3133 C3119 0.958 . S
H3134 C3119 0.961 . S
H3135 C3119 0.960 . S
C3136 C3137 1.391 . S
C3136 C3138 1.394 . S
C3136 H3152 0.931 . S
C3137 C3136 1.391 . S
C3137 C3141 1.376 . S
C3138 C3136 1.394 . S
C3138 C3139 1.369 . S
C3138 C3142 1.531 . S
C3139 C3138 1.369 . S
C3139 C3140 1.410 . S
C3139 C3147 1.503 1_545 S
C3140 C3139 1.410 . S
C3140 C3141 1.392 . S
C3140 C3143 1.511 . S
C3141 C3137 1.376 . S
C3141 C3140 1.392 . S
C3141 H3153 0.929 . S
C3142 C3138 1.531 . S
C3142 H3154 0.960 . S
C3142 H3155 0.962 . S
C3142 H3156 0.960 . S
C3143 C3140 1.511 . S
C3143 H3157 0.961 . S
C3143 H3158 0.961 1_545 S
C3143 H3159 0.961 . S
C3144 C3145 1.370 . S
C3144 C3146 1.363 . S
C3144 H3160 0.931 . S
C3145 C3144 1.370 . S
C3145 C3149 1.408 . S
C3146 C3144 1.363 . S
C3146 C3147 1.370 . S
C3146 C3150 1.524 . S
C3147 C3139 1.503 1_565 S
C3147 C3146 1.370 . S
C3147 C3148 1.403 . S
C3148 C3147 1.403 . S
C3148 C3149 1.404 . S
C3148 C3151 1.539 1_565 S
C3149 C3145 1.408 . S
C3149 C3148 1.404 . S
C3149 H3161 0.930 . S
C3150 C3146 1.524 . S
C3150 H3162 0.956 . S
C3150 H3163 0.961 . S
C3150 H3164 0.961 . S
C3151 C3148 1.539 1_545 S
C3151 H3165 0.958 . S
C3151 H3166 0.961 . S
C3151 H3167 0.960 . S
H3152 C3136 0.931 . S
H3153 C3141 0.929 . S
H3154 C3142 0.960 . S
H3155 C3142 0.962 . S
H3156 C3142 0.960 . S
H3157 C3143 0.961 . S
H3158 C3143 0.961 1_565 S
H3159 C3143 0.961 . S
H3160 C3144 0.931 . S
H3161 C3149 0.930 . S
H3162 C3150 0.956 . S
H3163 C3150 0.961 . S
H3164 C3150 0.961 . S
H3165 C3151 0.958 . S
H3166 C3151 0.961 . S
H3167 C3151 0.960 . S
C3168 C3169 1.391 . S
C3168 C3170 1.394 . S
C3168 H3184 0.931 . S
C3169 C3168 1.391 . S
C3169 C3173 1.376 . S
C3170 C3168 1.394 . S
C3170 C3171 1.369 . S
C3170 C3174 1.531 1_554 S
C3171 C3170 1.369 . S
C3171 C3172 1.410 . S
C3171 C3179 1.503 1_554 S
C3172 C3171 1.410 . S
C3172 C3173 1.392 . S
C3172 C3175 1.511 . S
C3173 C3169 1.376 . S
C3173 C3172 1.392 . S
C3173 H3185 0.929 . S
C3174 C3170 1.531 1_556 S
C3174 H3186 0.960 . S
C3174 H3187 0.962 . S
C3174 H3188 0.960 . S
C3175 C3172 1.511 . S
C3175 H3189 0.961 . S
C3175 H3190 0.961 . S
C3175 H3191 0.961 . S
C3176 C3177 1.370 . S
C3176 C3178 1.363 . S
C3176 H3192 0.931 . S
C3177 C3176 1.370 . S
C3177 C3181 1.408 . S
C3178 C3176 1.363 . S
C3178 C3179 1.370 . S
C3178 C3182 1.524 1_556 S
C3179 C3171 1.503 1_556 S
C3179 C3178 1.370 . S
C3179 C3180 1.403 . S
C3180 C3179 1.403 . S
C3180 C3181 1.404 . S
C3180 C3183 1.539 . S
C3181 C3177 1.408 . S
C3181 C3180 1.404 . S
C3181 H3193 0.930 . S
C3182 C3178 1.524 1_554 S
C3182 H3194 0.956 . S
C3182 H3195 0.961 . S
C3182 H3196 0.961 . S
C3183 C3180 1.539 . S
C3183 H3197 0.958 . S
C3183 H3198 0.961 . S
C3183 H3199 0.960 . S
H3184 C3168 0.931 . S
H3185 C3173 0.929 . S
H3186 C3174 0.960 . S
H3187 C3174 0.962 . S
H3188 C3174 0.960 . S
H3189 C3175 0.961 . S
H3190 C3175 0.961 . S
H3191 C3175 0.961 . S
H3192 C3176 0.931 . S
H3193 C3181 0.930 . S
H3194 C3182 0.956 . S
H3195 C3182 0.961 . S
H3196 C3182 0.961 . S
H3197 C3183 0.958 . S
H3198 C3183 0.961 . S
H3199 C3183 0.960 . S
C3200 C3201 1.391 . S
C3200 C3202 1.394 . S
C3200 H3216 0.931 . S
C3201 C3200 1.391 . S
C3201 C3205 1.376 . S
C3202 C3200 1.394 . S
C3202 C3203 1.369 . S
C3202 C3206 1.531 1_565 S
C3203 C3202 1.369 . S
C3203 C3204 1.410 . S
C3203 C3211 1.503 1_565 S
C3204 C3203 1.410 . S
C3204 C3205 1.392 . S
C3204 C3207 1.511 . S
C3205 C3201 1.376 . S
C3205 C3204 1.392 . S
C3205 H3217 0.929 . S
C3206 C3202 1.531 1_545 S
C3206 H3218 0.960 . S
C3206 H3219 0.962 . S
C3206 H3220 0.960 . S
C3207 C3204 1.511 . S
C3207 H3221 0.961 . S
C3207 H3222 0.961 . S
C3207 H3223 0.961 . S
C3208 C3209 1.370 . S
C3208 C3210 1.363 . S
C3208 H3224 0.931 . S
C3209 C3208 1.370 . S
C3209 C3213 1.408 . S
C3210 C3208 1.363 . S
C3210 C3211 1.370 . S
C3210 C3214 1.524 1_545 S
C3211 C3203 1.503 1_545 S
C3211 C3210 1.370 . S
C3211 C3212 1.403 . S
C3212 C3211 1.403 . S
C3212 C3213 1.404 . S
C3212 C3215 1.539 . S
C3213 C3209 1.408 . S
C3213 C3212 1.404 . S
C3213 H3225 0.930 . S
C3214 C3210 1.524 1_565 S
C3214 H3226 0.956 . S
C3214 H3227 0.961 . S
C3214 H3228 0.961 . S
C3215 C3212 1.539 . S
C3215 H3229 0.958 . S
C3215 H3230 0.961 . S
C3215 H3231 0.960 . S
H3216 C3200 0.931 . S
H3217 C3205 0.929 . S
H3218 C3206 0.960 . S
H3219 C3206 0.962 . S
H3220 C3206 0.960 . S
H3221 C3207 0.961 . S
H3222 C3207 0.961 . S
H3223 C3207 0.961 . S
H3224 C3208 0.931 . S
H3225 C3213 0.930 . S
H3226 C3214 0.956 . S
H3227 C3214 0.961 . S
H3228 C3214 0.961 . S
H3229 C3215 0.958 . S
H3230 C3215 0.961 . S
H3231 C3215 0.960 . S
C3232 C3233 1.391 . S
C3232 C3234 1.394 . S
C3232 H3248 0.931 . S
C3233 C3232 1.391 . S
C3233 C3237 1.376 . S
C3234 C3232 1.394 . S
C3234 C3235 1.369 . S
C3234 C3238 1.531 . S
C3235 C3234 1.369 . S
C3235 C3236 1.410 . S
C3235 C3243 1.503 . S
C3236 C3235 1.410 . S
C3236 C3237 1.392 . S
C3236 C3239 1.511 . S
C3237 C3233 1.376 . S
C3237 C3236 1.392 . S
C3237 H3249 0.929 . S
C3238 C3234 1.531 . S
C3238 H3250 0.960 . S
C3238 H3251 0.962 . S
C3238 H3252 0.960 . S
C3239 C3236 1.511 . S
C3239 H3253 0.961 . S
C3239 H3254 0.961 . S
C3239 H3255 0.961 . S
C3240 C3241 1.370 . S
C3240 C3242 1.363 . S
C3240 H3256 0.931 . S
C3241 C3240 1.370 . S
C3241 C3245 1.408 . S
C3242 C3240 1.363 . S
C3242 C3243 1.370 . S
C3242 C3246 1.524 . S
C3243 C3235 1.503 . S
C3243 C3242 1.370 . S
C3243 C3244 1.403 . S
C3244 C3243 1.403 . S
C3244 C3245 1.404 . S
C3244 C3247 1.539 . S
C3245 C3241 1.408 . S
C3245 C3244 1.404 . S
C3245 H3257 0.930 . S
C3246 C3242 1.524 . S
C3246 H3258 0.956 . S
C3246 H3259 0.961 . S
C3246 H3260 0.961 . S
C3247 C3244 1.539 . S
C3247 H3261 0.958 . S
C3247 H3262 0.961 . S
C3247 H3263 0.960 . S
H3248 C3232 0.931 . S
H3249 C3237 0.929 . S
H3250 C3238 0.960 . S
H3251 C3238 0.962 . S
H3252 C3238 0.960 . S
H3253 C3239 0.961 . S
H3254 C3239 0.961 . S
H3255 C3239 0.961 . S
H3256 C3240 0.931 . S
H3257 C3245 0.930 . S
H3258 C3246 0.956 . S
H3259 C3246 0.961 . S
H3260 C3246 0.961 . S
H3261 C3247 0.958 . S
H3262 C3247 0.961 . S
H3263 C3247 0.960 . S
C3264 C3265 1.391 . S
C3264 C3266 1.394 . S
C3264 H3280 0.931 . S
C3265 C3264 1.391 . S
C3265 C3269 1.376 . S
C3266 C3264 1.394 . S
C3266 C3267 1.369 . S
C3266 C3270 1.531 . S
C3267 C3266 1.369 . S
C3267 C3268 1.410 . S
C3267 C3275 1.503 1_545 S
C3268 C3267 1.410 . S
C3268 C3269 1.392 . S
C3268 C3271 1.511 . S
C3269 C3265 1.376 . S
C3269 C3268 1.392 . S
C3269 H3281 0.929 . S
C3270 C3266 1.531 . S
C3270 H3282 0.960 1_545 S
C3270 H3283 0.962 . S
C3270 H3284 0.960 . S
C3271 C3268 1.511 . S
C3271 H3285 0.961 . S
C3271 H3286 0.946 1_545 S
C3271 H3287 0.961 1_545 S
C3272 C3273 1.370 . S
C3272 C3274 1.363 . S
C3272 H3288 0.931 . S
C3273 C3272 1.370 . S
C3273 C3277 1.408 . S
C3274 C3272 1.363 . S
C3274 C3275 1.370 . S
C3274 C3278 1.524 1_565 S
C3275 C3267 1.503 1_565 S
C3275 C3274 1.370 . S
C3275 C3276 1.403 . S
C3276 C3275 1.403 . S
C3276 C3277 1.404 . S
C3276 C3279 1.539 . S
C3277 C3273 1.408 . S
C3277 C3276 1.404 . S
C3277 H3289 0.930 . S
C3278 C3274 1.524 1_545 S
C3278 H3290 0.956 . S
C3278 H3291 0.961 . S
C3278 H3292 0.961 . S
C3279 C3276 1.539 . S
C3279 H3293 0.958 . S
C3279 H3294 0.961 . S
C3279 H3295 0.960 . S
H3280 C3264 0.931 . S
H3281 C3269 0.929 . S
H3282 C3270 0.960 1_565 S
H3283 C3270 0.962 . S
H3284 C3270 0.960 . S
H3285 C3271 0.961 . S
H3286 C3271 0.946 1_565 S
H3287 C3271 0.961 1_565 S
H3288 C3272 0.931 . S
H3289 C3277 0.930 . S
H3290 C3278 0.956 . S
H3291 C3278 0.961 . S
H3292 C3278 0.961 . S
H3293 C3279 0.958 . S
H3294 C3279 0.961 . S
H3295 C3279 0.960 . S
C3296 C3297 1.391 . S
C3296 C3298 1.394 . S
C3296 H3312 0.931 . S
C3297 C3296 1.391 . S
C3297 C3301 1.376 . S
C3298 C3296 1.394 . S
C3298 C3299 1.369 . S
C3298 C3302 1.531 . S
C3299 C3298 1.369 . S
C3299 C3300 1.410 . S
C3299 C3307 1.503 1_556 S
C3300 C3299 1.410 . S
C3300 C3301 1.392 . S
C3300 C3303 1.511 1_556 S
C3301 C3297 1.376 . S
C3301 C3300 1.392 . S
C3301 H3313 0.929 . S
C3302 C3298 1.531 . S
C3302 H3314 0.960 1_556 S
C3302 H3315 0.962 . S
C3302 H3316 0.960 . S
C3303 C3300 1.511 1_554 S
C3303 H3317 0.961 1_554 S
C3303 H3318 0.961 . S
C3303 H3319 0.961 . S
C3304 C3305 1.370 . S
C3304 C3306 1.363 . S
C3304 H3320 0.931 . S
C3305 C3304 1.370 . S
C3305 C3309 1.408 . S
C3306 C3304 1.363 . S
C3306 C3307 1.370 . S
C3306 C3310 1.524 1_554 S
C3307 C3299 1.503 1_554 S
C3307 C3306 1.370 . S
C3307 C3308 1.403 . S
C3308 C3307 1.403 . S
C3308 C3309 1.404 . S
C3308 C3311 1.539 . S
C3309 C3305 1.408 . S
C3309 C3308 1.404 . S
C3309 H3321 0.930 . S
C3310 C3306 1.524 1_556 S
C3310 H3322 0.956 . S
C3310 H3323 0.961 . S
C3310 H3324 0.961 . S
C3311 C3308 1.539 . S
C3311 H3325 0.958 . S
C3311 H3326 0.961 . S
C3311 H3327 0.960 . S
H3312 C3296 0.931 . S
H3313 C3301 0.929 . S
H3314 C3302 0.960 1_554 S
H3315 C3302 0.962 . S
H3316 C3302 0.960 . S
H3317 C3303 0.961 1_556 S
H3318 C3303 0.961 . S
H3319 C3303 0.961 . S
H3320 C3304 0.931 . S
H3321 C3309 0.930 . S
H3322 C3310 0.956 . S
H3323 C3310 0.961 . S
H3324 C3310 0.961 . S
H3325 C3311 0.958 . S
H3326 C3311 0.961 . S
H3327 C3311 0.960 . S
C3328 C3329 1.391 . S
C3328 C3330 1.394 . S
C3328 H3344 0.931 . S
C3329 C3328 1.391 . S
C3329 C3333 1.376 . S
C3330 C3328 1.394 . S
C3330 C3331 1.369 . S
C3330 C3334 1.531 . S
C3331 C3330 1.369 . S
C3331 C3332 1.410 . S
C3331 C3339 1.503 1_545 S
C3332 C3331 1.410 . S
C3332 C3333 1.392 . S
C3332 C3335 1.511 . S
C3333 C3329 1.376 . S
C3333 C3332 1.392 . S
C3333 H3345 0.929 . S
C3334 C3330 1.531 . S
C3334 H3346 0.960 . S
C3334 H3347 0.962 . S
C3334 H3348 0.960 . S
C3335 C3332 1.511 . S
C3335 H3349 0.961 . S
C3335 H3350 0.961 1_545 S
C3335 H3351 0.961 . S
C3336 C3337 1.370 . S
C3336 C3338 1.363 . S
C3336 H3352 0.931 . S
C3337 C3336 1.370 . S
C3337 C3341 1.408 . S
C3338 C3336 1.363 . S
C3338 C3339 1.370 . S
C3338 C3342 1.524 . S
C3339 C3331 1.503 1_565 S
C3339 C3338 1.370 . S
C3339 C3340 1.403 . S
C3340 C3339 1.403 . S
C3340 C3341 1.404 . S
C3340 C3343 1.539 1_565 S
C3341 C3337 1.408 . S
C3341 C3340 1.404 . S
C3341 H3353 0.930 . S
C3342 C3338 1.524 . S
C3342 H3354 0.956 . S
C3342 H3355 0.961 . S
C3342 H3356 0.961 . S
C3343 C3340 1.539 1_545 S
C3343 H3357 0.958 . S
C3343 H3358 0.961 . S
C3343 H3359 0.960 . S
H3344 C3328 0.931 . S
H3345 C3333 0.929 . S
H3346 C3334 0.960 . S
H3347 C3334 0.962 . S
H3348 C3334 0.960 . S
H3349 C3335 0.961 . S
H3350 C3335 0.961 1_565 S
H3351 C3335 0.961 . S
H3352 C3336 0.931 . S
H3353 C3341 0.930 . S
H3354 C3342 0.956 . S
H3355 C3342 0.961 . S
H3356 C3342 0.961 . S
H3357 C3343 0.958 . S
H3358 C3343 0.961 . S
H3359 C3343 0.960 . S
C3360 C3361 1.391 . S
C3360 C3362 1.394 . S
C3360 H3376 0.931 . S
C3361 C3360 1.391 . S
C3361 C3365 1.376 . S
C3362 C3360 1.394 . S
C3362 C3363 1.369 . S
C3362 C3366 1.531 . S
C3363 C3362 1.369 . S
C3363 C3364 1.410 . S
C3363 C3371 1.503 1_556 S
C3364 C3363 1.410 . S
C3364 C3365 1.392 . S
C3364 C3367 1.511 1_556 S
C3365 C3361 1.376 . S
C3365 C3364 1.392 . S
C3365 H3377 0.929 . S
C3366 C3362 1.531 . S
C3366 H3378 0.960 . S
C3366 H3379 0.962 . S
C3366 H3380 0.960 . S
C3367 C3364 1.511 1_554 S
C3367 H3381 0.961 . S
C3367 H3382 0.961 . S
C3367 H3383 0.961 1_554 S
C3368 C3369 1.370 . S
C3368 C3370 1.363 . S
C3368 H3384 0.931 . S
C3369 C3368 1.370 . S
C3369 C3373 1.408 . S
C3370 C3368 1.363 . S
C3370 C3371 1.370 . S
C3370 C3374 1.524 . S
C3371 C3363 1.503 1_554 S
C3371 C3370 1.370 . S
C3371 C3372 1.399 1_554 S
C3372 C3371 1.399 1_556 S
C3372 C3373 1.394 1_556 S
C3372 C3375 1.552 . S
C3373 C3369 1.408 . S
C3373 C3372 1.394 1_554 S
C3373 H3385 0.930 . S
C3374 C3370 1.524 . S
C3374 H3386 0.956 . S
C3374 H3387 0.961 . S
C3374 H3388 0.961 . S
C3375 C3372 1.552 . S
C3375 H3389 0.958 . S
C3375 H3390 0.961 . S
C3375 H3391 0.960 . S
H3376 C3360 0.931 . S
H3377 C3365 0.929 . S
H3378 C3366 0.960 . S
H3379 C3366 0.962 . S
H3380 C3366 0.960 . S
H3381 C3367 0.961 . S
H3382 C3367 0.961 . S
H3383 C3367 0.961 1_556 S
H3384 C3368 0.931 . S
H3385 C3373 0.930 . S
H3386 C3374 0.956 . S
H3387 C3374 0.961 . S
H3388 C3374 0.961 . S
H3389 C3375 0.958 . S
H3390 C3375 0.961 . S
H3391 C3375 0.960 . S
C3392 C3393 1.391 . S
C3392 C3394 1.394 . S
C3392 H3408 0.931 . S
C3393 C3392 1.391 . S
C3393 C3397 1.376 . S
C3394 C3392 1.394 . S
C3394 C3395 1.369 . S
C3394 C3398 1.531 . S
C3395 C3394 1.369 . S
C3395 C3396 1.410 . S
C3395 C3403 1.503 . S
C3396 C3395 1.410 . S
C3396 C3397 1.392 . S
C3396 C3399 1.511 . S
C3397 C3393 1.376 . S
C3397 C3396 1.392 . S
C3397 H3409 0.929 . S
C3398 C3394 1.531 . S
C3398 H3410 0.960 . S
C3398 H3411 0.962 . S
C3398 H3412 0.960 . S
C3399 C3396 1.511 . S
C3399 H3413 0.961 . S
C3399 H3414 0.961 . S
C3399 H3415 0.961 . S
C3400 C3401 1.370 . S
C3400 C3402 1.363 . S
C3400 H3416 0.931 . S
C3401 C3400 1.370 . S
C3401 C3405 1.408 . S
C3402 C3400 1.363 . S
C3402 C3403 1.370 . S
C3402 C3406 1.524 . S
C3403 C3395 1.503 . S
C3403 C3402 1.370 . S
C3403 C3404 1.403 . S
C3404 C3403 1.403 . S
C3404 C3405 1.404 . S
C3404 C3407 1.539 . S
C3405 C3401 1.408 . S
C3405 C3404 1.404 . S
C3405 H3417 0.930 . S
C3406 C3402 1.524 . S
C3406 H3418 0.956 . S
C3406 H3419 0.961 . S
C3406 H3420 0.961 . S
C3407 C3404 1.539 . S
C3407 H3421 0.958 . S
C3407 H3422 0.961 . S
C3407 H3423 0.960 . S
H3408 C3392 0.931 . S
H3409 C3397 0.929 . S
H3410 C3398 0.960 . S
H3411 C3398 0.962 . S
H3412 C3398 0.960 . S
H3413 C3399 0.961 . S
H3414 C3399 0.961 . S
H3415 C3399 0.961 . S
H3416 C3400 0.931 . S
H3417 C3405 0.930 . S
H3418 C3406 0.956 . S
H3419 C3406 0.961 . S
H3420 C3406 0.961 . S
H3421 C3407 0.958 . S
H3422 C3407 0.961 . S
H3423 C3407 0.960 . S
C3424 C3425 1.391 . S
C3424 C3426 1.394 . S
C3424 H3440 0.931 . S
C3425 C3424 1.391 . S
C3425 C3429 1.376 . S
C3426 C3424 1.394 . S
C3426 C3427 1.369 . S
C3426 C3430 1.531 . S
C3427 C3426 1.369 . S
C3427 C3428 1.410 . S
C3427 C3435 1.503 . S
C3428 C3427 1.410 . S
C3428 C3429 1.392 . S
C3428 C3431 1.511 . S
C3429 C3425 1.376 . S
C3429 C3428 1.392 . S
C3429 H3441 0.929 . S
C3430 C3426 1.531 . S
C3430 H3442 0.960 . S
C3430 H3443 0.962 . S
C3430 H3444 0.960 . S
C3431 C3428 1.511 . S
C3431 H3445 0.961 . S
C3431 H3446 0.961 . S
C3431 H3447 0.961 . S
C3432 C3433 1.370 . S
C3432 C3434 1.363 . S
C3432 H3448 0.931 . S
C3433 C3432 1.370 . S
C3433 C3437 1.408 . S
C3434 C3432 1.363 . S
C3434 C3435 1.370 . S
C3434 C3438 1.524 . S
C3435 C3427 1.503 . S
C3435 C3434 1.370 . S
C3435 C3436 1.403 . S
C3436 C3435 1.403 . S
C3436 C3437 1.404 . S
C3436 C3439 1.539 . S
C3437 C3433 1.408 . S
C3437 C3436 1.404 . S
C3437 H3449 0.930 . S
C3438 C3434 1.524 . S
C3438 H3450 0.956 . S
C3438 H3451 0.961 . S
C3438 H3452 0.961 . S
C3439 C3436 1.539 . S
C3439 H3453 0.958 . S
C3439 H3454 0.961 . S
C3439 H3455 0.960 . S
H3440 C3424 0.931 . S
H3441 C3429 0.929 . S
H3442 C3430 0.960 . S
H3443 C3430 0.962 . S
H3444 C3430 0.960 . S
H3445 C3431 0.961 . S
H3446 C3431 0.961 . S
H3447 C3431 0.961 . S
H3448 C3432 0.931 . S
H3449 C3437 0.930 . S
H3450 C3438 0.956 . S
H3451 C3438 0.961 . S
H3452 C3438 0.961 . S
H3453 C3439 0.958 . S
H3454 C3439 0.961 . S
H3455 C3439 0.960 . S
C3456 C3457 1.391 . S
C3456 C3458 1.394 . S
C3456 H3472 0.931 . S
C3457 C3456 1.391 . S
C3457 C3461 1.376 . S
C3458 C3456 1.394 . S
C3458 C3459 1.369 . S
C3458 C3462 1.531 . S
C3459 C3458 1.369 . S
C3459 C3460 1.410 . S
C3459 C3467 1.503 . S
C3460 C3459 1.410 . S
C3460 C3461 1.392 . S
C3460 C3463 1.511 . S
C3461 C3457 1.376 . S
C3461 C3460 1.392 . S
C3461 H3473 0.929 . S
C3462 C3458 1.531 . S
C3462 H3474 0.960 . S
C3462 H3475 0.962 . S
C3462 H3476 0.960 . S
C3463 C3460 1.511 . S
C3463 H3477 0.961 . S
C3463 H3478 0.961 . S
C3463 H3479 0.961 . S
C3464 C3465 1.370 . S
C3464 C3466 1.363 . S
C3464 H3480 0.931 . S
C3465 C3464 1.370 . S
C3465 C3469 1.408 . S
C3466 C3464 1.363 . S
C3466 C3467 1.370 . S
C3466 C3470 1.524 . S
C3467 C3459 1.503 . S
C3467 C3466 1.370 . S
C3467 C3468 1.403 . S
C3468 C3467 1.403 . S
C3468 C3469 1.404 . S
C3468 C3471 1.539 . S
C3469 C3465 1.408 . S
C3469 C3468 1.404 . S
C3469 H3481 0.930 . S
C3470 C3466 1.524 . S
C3470 H3482 0.956 . S
C3470 H3483 0.961 . S
C3470 H3484 0.961 . S
C3471 C3468 1.539 . S
C3471 H3485 0.958 . S
C3471 H3486 0.961 . S
C3471 H3487 0.960 . S
H3472 C3456 0.931 . S
H3473 C3461 0.929 . S
H3474 C3462 0.960 . S
H3475 C3462 0.962 . S
H3476 C3462 0.960 . S
H3477 C3463 0.961 . S
H3478 C3463 0.961 . S
H3479 C3463 0.961 . S
H3480 C3464 0.931 . S
H3481 C3469 0.930 . S
H3482 C3470 0.956 . S
H3483 C3470 0.961 . S
H3484 C3470 0.961 . S
H3485 C3471 0.958 . S
H3486 C3471 0.961 . S
H3487 C3471 0.960 . S
C3488 C3489 1.391 . S
C3488 C3490 1.394 . S
C3488 H3504 0.931 . S
C3489 C3488 1.391 . S
C3489 C3493 1.376 . S
C3490 C3488 1.394 . S
C3490 C3491 1.369 . S
C3490 C3494 1.531 1_554 S
C3491 C3490 1.369 . S
C3491 C3492 1.410 . S
C3491 C3499 1.503 1_554 S
C3492 C3491 1.410 . S
C3492 C3493 1.392 . S
C3492 C3495 1.511 . S
C3493 C3489 1.376 . S
C3493 C3492 1.392 . S
C3493 H3505 0.929 . S
C3494 C3490 1.531 1_556 S
C3494 H3506 0.960 . S
C3494 H3507 0.962 . S
C3494 H3508 0.960 . S
C3495 C3492 1.511 . S
C3495 H3509 0.961 . S
C3495 H3510 0.961 . S
C3495 H3511 0.961 . S
C3496 C3497 1.370 . S
C3496 C3498 1.363 . S
C3496 H3512 0.931 . S
C3497 C3496 1.370 . S
C3497 C3501 1.408 . S
C3498 C3496 1.363 . S
C3498 C3499 1.370 . S
C3498 C3502 1.524 . S
C3499 C3491 1.503 1_556 S
C3499 C3498 1.370 . S
C3499 C3500 1.403 . S
C3500 C3499 1.403 . S
C3500 C3501 1.404 . S
C3500 C3503 1.539 1_556 S
C3501 C3497 1.408 . S
C3501 C3500 1.404 . S
C3501 H3513 0.930 . S
C3502 C3498 1.524 . S
C3502 H3514 0.956 . S
C3502 H3515 0.961 . S
C3502 H3516 0.961 . S
C3503 C3500 1.539 1_554 S
C3503 H3517 0.958 1_554 S
C3503 H3518 0.961 . S
C3503 H3519 0.960 . S
H3504 C3488 0.931 . S
H3505 C3493 0.929 . S
H3506 C3494 0.960 . S
H3507 C3494 0.962 . S
H3508 C3494 0.960 . S
H3509 C3495 0.961 . S
H3510 C3495 0.961 . S
H3511 C3495 0.961 . S
H3512 C3496 0.931 . S
H3513 C3501 0.930 . S
H3514 C3502 0.956 . S
H3515 C3502 0.961 . S
H3516 C3502 0.961 . S
H3517 C3503 0.958 1_556 S
H3518 C3503 0.961 . S
H3519 C3503 0.960 . S
C3520 C3521 1.391 . S
C3520 C3522 1.394 . S
C3520 H3536 0.931 . S
C3521 C3520 1.391 . S
C3521 C3525 1.376 . S
C3522 C3520 1.394 . S
C3522 C3523 1.369 . S
C3522 C3526 1.531 . S
C3523 C3522 1.369 . S
C3523 C3524 1.410 . S
C3523 C3531 1.503 . S
C3524 C3523 1.410 . S
C3524 C3525 1.392 . S
C3524 C3527 1.511 . S
C3525 C3521 1.376 . S
C3525 C3524 1.392 . S
C3525 H3537 0.929 . S
C3526 C3522 1.531 . S
C3526 H3538 0.960 . S
C3526 H3539 0.962 . S
C3526 H3540 0.960 . S
C3527 C3524 1.511 . S
C3527 H3541 0.961 . S
C3527 H3542 0.961 . S
C3527 H3543 0.961 . S
C3528 C3529 1.370 . S
C3528 C3530 1.363 . S
C3528 H3544 0.931 . S
C3529 C3528 1.370 . S
C3529 C3533 1.408 . S
C3530 C3528 1.363 . S
C3530 C3531 1.370 . S
C3530 C3534 1.524 . S
C3531 C3523 1.503 . S
C3531 C3530 1.370 . S
C3531 C3532 1.403 . S
C3532 C3531 1.403 . S
C3532 C3533 1.404 . S
C3532 C3535 1.539 . S
C3533 C3529 1.408 . S
C3533 C3532 1.404 . S
C3533 H3545 0.930 . S
C3534 C3530 1.524 . S
C3534 H3546 0.956 . S
C3534 H3547 0.961 . S
C3534 H3548 0.961 . S
C3535 C3532 1.539 . S
C3535 H3549 0.958 . S
C3535 H3550 0.961 . S
C3535 H3551 0.960 . S
H3536 C3520 0.931 . S
H3537 C3525 0.929 . S
H3538 C3526 0.960 . S
H3539 C3526 0.962 . S
H3540 C3526 0.960 . S
H3541 C3527 0.961 . S
H3542 C3527 0.961 . S
H3543 C3527 0.961 . S
H3544 C3528 0.931 . S
H3545 C3533 0.930 . S
H3546 C3534 0.956 . S
H3547 C3534 0.961 . S
H3548 C3534 0.961 . S
H3549 C3535 0.958 . S
H3550 C3535 0.961 . S
H3551 C3535 0.960 . S
C3552 C3553 1.391 . S
C3552 C3554 1.394 . S
C3552 H3568 0.931 . S
C3553 C3552 1.391 . S
C3553 C3557 1.376 . S
C3554 C3552 1.394 . S
C3554 C3555 1.369 . S
C3554 C3558 1.531 . S
C3555 C3554 1.369 . S
C3555 C3556 1.410 . S
C3555 C3563 1.503 . S
C3556 C3555 1.410 . S
C3556 C3557 1.392 . S
C3556 C3559 1.511 . S
C3557 C3553 1.376 . S
C3557 C3556 1.392 . S
C3557 H3569 0.929 . S
C3558 C3554 1.531 . S
C3558 H3570 0.960 . S
C3558 H3571 0.962 . S
C3558 H3572 0.960 . S
C3559 C3556 1.511 . S
C3559 H3573 0.961 . S
C3559 H3574 0.961 . S
C3559 H3575 0.961 . S
C3560 C3561 1.370 . S
C3560 C3562 1.363 . S
C3560 H3576 0.931 . S
C3561 C3560 1.370 . S
C3561 C3565 1.408 . S
C3562 C3560 1.363 . S
C3562 C3563 1.370 . S
C3562 C3566 1.524 . S
C3563 C3555 1.503 . S
C3563 C3562 1.370 . S
C3563 C3564 1.403 . S
C3564 C3563 1.403 . S
C3564 C3565 1.404 . S
C3564 C3567 1.539 . S
C3565 C3561 1.408 . S
C3565 C3564 1.404 . S
C3565 H3577 0.930 . S
C3566 C3562 1.524 . S
C3566 H3578 0.956 . S
C3566 H3579 0.961 . S
C3566 H3580 0.961 . S
C3567 C3564 1.539 . S
C3567 H3581 0.958 . S
C3567 H3582 0.961 . S
C3567 H3583 0.960 . S
H3568 C3552 0.931 . S
H3569 C3557 0.929 . S
H3570 C3558 0.960 . S
H3571 C3558 0.962 . S
H3572 C3558 0.960 . S
H3573 C3559 0.961 . S
H3574 C3559 0.961 . S
H3575 C3559 0.961 . S
H3576 C3560 0.931 . S
H3577 C3565 0.930 . S
H3578 C3566 0.956 . S
H3579 C3566 0.961 . S
H3580 C3566 0.961 . S
H3581 C3567 0.958 . S
H3582 C3567 0.961 . S
H3583 C3567 0.960 . S
C3584 C3585 1.391 . S
C3584 C3586 1.394 . S
C3584 H3600 0.931 . S
C3585 C3584 1.391 . S
C3585 C3589 1.376 . S
C3586 C3584 1.394 . S
C3586 C3587 1.369 . S
C3586 C3590 1.531 . S
C3587 C3586 1.369 . S
C3587 C3588 1.410 . S
C3587 C3595 1.503 . S
C3588 C3587 1.410 . S
C3588 C3589 1.392 . S
C3588 C3591 1.511 . S
C3589 C3585 1.376 . S
C3589 C3588 1.392 . S
C3589 H3601 0.929 . S
C3590 C3586 1.531 . S
C3590 H3602 0.960 . S
C3590 H3603 0.962 . S
C3590 H3604 0.960 . S
C3591 C3588 1.511 . S
C3591 H3605 0.961 . S
C3591 H3606 0.961 . S
C3591 H3607 0.961 . S
C3592 C3593 1.370 . S
C3592 C3594 1.363 . S
C3592 H3608 0.931 . S
C3593 C3592 1.370 . S
C3593 C3597 1.408 . S
C3594 C3592 1.363 . S
C3594 C3595 1.370 . S
C3594 C3598 1.524 . S
C3595 C3587 1.503 . S
C3595 C3594 1.370 . S
C3595 C3596 1.403 . S
C3596 C3595 1.403 . S
C3596 C3597 1.404 . S
C3596 C3599 1.539 . S
C3597 C3593 1.408 . S
C3597 C3596 1.404 . S
C3597 H3609 0.930 . S
C3598 C3594 1.524 . S
C3598 H3610 0.956 . S
C3598 H3611 0.961 . S
C3598 H3612 0.961 . S
C3599 C3596 1.539 . S
C3599 H3613 0.958 . S
C3599 H3614 0.961 . S
C3599 H3615 0.960 . S
H3600 C3584 0.931 . S
H3601 C3589 0.929 . S
H3602 C3590 0.960 . S
H3603 C3590 0.962 . S
H3604 C3590 0.960 . S
H3605 C3591 0.961 . S
H3606 C3591 0.961 . S
H3607 C3591 0.961 . S
H3608 C3592 0.931 . S
H3609 C3597 0.930 . S
H3610 C3598 0.956 . S
H3611 C3598 0.961 . S
H3612 C3598 0.961 . S
H3613 C3599 0.958 . S
H3614 C3599 0.961 . S
H3615 C3599 0.960 . S
C1057 C249 1.657 1_554 S
C1065 C18 1.670 . S
C1089 C51 1.657 . S
C1097 C150 1.670 . S
C1121 C84 1.675 . S
C1129 C183 1.674 . S
C1153 C216 1.658 . S
C1161 C117 1.671 1_556 S
C1185 C282 1.682 . S
C1193 C513 1.679 1_556 S
C1217 C414 1.672 . S
C1225 C315 1.671 . S
C1249 C348 1.682 . S
C1257 C447 1.679 . S
C1281 C480 1.672 . S
C1289 C381 1.679 1_554 S
C1313 C777 1.682 . S
C1321 C546 1.678 . S
C1345 C678 1.672 . S
C1353 C579 1.677 1_556 S
C1377 C711 1.682 1_554 S
C1385 C612 1.679 . S
C1409 C744 1.659 . S
C1417 C645 1.669 . S
C1441 C1041 1.659 . S
C1449 C810 1.673 . S
C1473 C843 1.664 1_554 S
C1481 C942 1.669 . S
C1505 C975 1.663 1_556 S
C1513 C876 1.675 . S
C1537 C1008 1.682 . S
C1545 C909 1.677 . S
C1569 C21 1.370 . S
C1577 N904 1.367 . S
C1601 N277 1.339 . S
C1609 C54 1.368 1_655 S
C1633 N838 1.371 . S
C1641 C87 1.361 . S
C1665 C120 1.360 . S
C1673 N343 1.369 . S
C1697 N970 1.336 . S
C1705 C153 1.375 . S
C1729 C186 1.347 . S
C1737 N475 1.367 . S
C1761 N1036 1.354 . S
C1769 C219 1.375 . S
C1793 N409 1.350 . S
C1801 C252 1.364 1_655 S
C1825 C285 1.348 . S
C1833 N640 1.370 . S
C1857 C318 1.381 1_455 S
C1865 N13 1.356 . S
C1889 N574 1.335 . S
C1897 C351 1.375 . S
C1921 N79 1.342 . S
C1929 C384 1.376 . S
C1953 N706 1.341 . S
C1961 C417 1.369 . S
C1985 N211 1.337 . S
C1993 C450 1.376 . S
C2017 C483 1.348 . S
C2025 N772 1.366 . S
C2049 C516 1.373 1_455 S
C2057 N145 1.352 . S
C2081 C549 1.360 . S
C2089 N376 1.354 . S
C2113 N805 1.335 . S
C2121 C582 1.374 . S
C2145 N310 1.358 . S
C2153 C615 1.362 . S
C2177 C648 1.370 1_455 S
C2185 N871 1.366 . S
C2209 C681 1.356 . S
C2217 N442 1.356 . S
C2241 N1003 1.349 . S
C2249 C714 1.364 1_455 S
C2273 N508 1.370 . S
C2281 C747 1.371 . S
C2305 C780 1.371 . S
C2313 N937 1.366 . S
C2337 N112 1.362 . S
C2345 C813 1.372 . S
C2369 N541 1.379 . S
C2377 C846 1.362 . S
C2401 N46 1.379 . S
C2409 C879 1.364 . S
C2433 N607 1.380 . S
C2441 C912 1.363 1_655 S
C2465 C945 1.348 . S
C2473 N178 1.365 . S
C2497 C978 1.357 1_655 S
C2505 N739 1.358 . S
C2529 C1011 1.375 . S
C2537 N244 1.361 . S
C2561 N673 1.340 . S
C2569 C1044 1.370 . S
C2593 N2 0.721 . S
C2601 N794 0.762 . S
C2625 N35 0.800 . S
C2633 N299 0.722 . S
C2657 N68 0.783 . S
C2665 N860 0.736 . S
C2689 N365 0.790 . S
C2697 N101 0.726 . S
C2721 N926 0.762 . S
C2729 N134 0.737 . S
C2753 N167 0.742 . S
C2761 N431 0.754 . S
C2785 N200 0.698 . S
C2793 N992 0.770 . S
C2817 N233 0.784 . S
C2825 N497 0.728 . S
C2849 N530 0.680 . S
C2857 N266 0.774 . S
C2881 N332 0.714 . S
C2889 N596 0.764 . S
C2913 N662 0.709 . S
C2921 N398 0.766 . S
C2945 N464 0.793 . S
C2953 N728 0.731 . S
C2977 N563 0.709 . S
C2985 N827 0.766 . S
C3009 N893 0.770 . S
C3017 N629 0.742 . S
C3041 N695 0.722 . S
C3049 N959 0.754 . S
C3073 N1025 0.726 . S
C3081 N761 0.752 . S
C3105 C7 1.783 . S
C3113 C205 1.776 . S
C3137 C238 1.778 . S
C3145 C40 1.767 . S
C3169 C139 1.782 . S
C3177 C73 1.770 . S
C3201 C172 1.739 . S
C3209 C106 1.761 . S
C3233 C271 1.737 . S
C3241 C469 1.758 . S
C3265 C304 1.753 . S
C3273 C502 1.771 . S
C3297 C403 1.774 . S
C3305 C337 1.762 . S
C3329 C436 1.766 . S
C3337 C370 1.759 . S
C3361 C535 1.743 . S
C3369 C733 1.764 . S
C3393 C568 1.782 . S
C3401 C766 1.770 . S
C3425 C667 1.774 . S
C3433 C601 1.775 . S
C3457 C700 1.755 . S
C3465 C634 1.758 . S
C3489 C799 1.737 . S
C3497 C997 1.760 . S
C3521 C832 1.758 . S
C3529 C1030 1.757 . S
C3553 C931 1.737 . S
C3561 C865 1.762 . S
C3585 C898 1.786 . S
C3593 C964 1.770 . S
