# Generated by pormake.
# Topology wgt, (5)-cn, num edge types: 1
# Building blocks:
#     Node 0, Type 0, BuildingBlock: BEQFEK_clean_sbu_0, # of connection points: 5
#     Node 1, Type 0, BuildingBlock: BEQFEK_clean_sbu_0, # of connection points: 5
#     Node 2, Type 0, BuildingBlock: BEQFEK_clean_sbu_0, # of connection points: 5
#     Node 3, Type 0, BuildingBlock: BEQFEK_clean_sbu_0, # of connection points: 5
#     Node 4, Type 0, BuildingBlock: BEQFEK_clean_sbu_0, # of connection points: 5
#     Node 5, Type 0, BuildingBlock: BEQFEK_clean_sbu_0, # of connection points: 5
#     Node 6, Type 0, BuildingBlock: BEQFEK_clean_sbu_0, # of connection points: 5
#     Node 7, Type 0, BuildingBlock: BEQFEK_clean_sbu_0, # of connection points: 5
#     Node 8, Type 0, BuildingBlock: BEQFEK_clean_sbu_0, # of connection points: 5
#     Node 9, Type 0, BuildingBlock: BEQFEK_clean_sbu_0, # of connection points: 5
#     Node 10, Type 0, BuildingBlock: BEQFEK_clean_sbu_0, # of connection points: 5
#     Node 11, Type 0, BuildingBlock: BEQFEK_clean_sbu_0, # of connection points: 5
#     Node 12, Type 0, BuildingBlock: BEQFEK_clean_sbu_0, # of connection points: 5
#     Node 13, Type 0, BuildingBlock: BEQFEK_clean_sbu_0, # of connection points: 5
#     Node 14, Type 0, BuildingBlock: BEQFEK_clean_sbu_0, # of connection points: 5
#     Node 15, Type 0, BuildingBlock: BEQFEK_clean_sbu_0, # of connection points: 5
#     Edge 16, Type (0, 0), BuildingBlock: XIVTED_clean_linker_0, # of connection points: 2
#     Edge 17, Type (0, 0), BuildingBlock: XIVTED_clean_linker_0, # of connection points: 2
#     Edge 18, Type (0, 0), BuildingBlock: XIVTED_clean_linker_0, # of connection points: 2
#     Edge 19, Type (0, 0), BuildingBlock: XIVTED_clean_linker_0, # of connection points: 2
#     Edge 20, Type (0, 0), BuildingBlock: XIVTED_clean_linker_0, # of connection points: 2
#     Edge 21, Type (0, 0), BuildingBlock: XIVTED_clean_linker_0, # of connection points: 2
#     Edge 22, Type (0, 0), BuildingBlock: XIVTED_clean_linker_0, # of connection points: 2
#     Edge 23, Type (0, 0), BuildingBlock: XIVTED_clean_linker_0, # of connection points: 2
#     Edge 24, Type (0, 0), BuildingBlock: XIVTED_clean_linker_0, # of connection points: 2
#     Edge 25, Type (0, 0), BuildingBlock: XIVTED_clean_linker_0, # of connection points: 2
#     Edge 26, Type (0, 0), BuildingBlock: XIVTED_clean_linker_0, # of connection points: 2
#     Edge 27, Type (0, 0), BuildingBlock: XIVTED_clean_linker_0, # of connection points: 2
#     Edge 28, Type (0, 0), BuildingBlock: XIVTED_clean_linker_0, # of connection points: 2
#     Edge 29, Type (0, 0), BuildingBlock: XIVTED_clean_linker_0, # of connection points: 2
#     Edge 30, Type (0, 0), BuildingBlock: XIVTED_clean_linker_0, # of connection points: 2
#     Edge 31, Type (0, 0), BuildingBlock: XIVTED_clean_linker_0, # of connection points: 2
#     Edge 32, Type (0, 0), BuildingBlock: XIVTED_clean_linker_0, # of connection points: 2
#     Edge 33, Type (0, 0), BuildingBlock: XIVTED_clean_linker_0, # of connection points: 2
#     Edge 34, Type (0, 0), BuildingBlock: XIVTED_clean_linker_0, # of connection points: 2
#     Edge 35, Type (0, 0), BuildingBlock: XIVTED_clean_linker_0, # of connection points: 2
#     Edge 36, Type (0, 0), BuildingBlock: XIVTED_clean_linker_0, # of connection points: 2
#     Edge 37, Type (0, 0), BuildingBlock: XIVTED_clean_linker_0, # of connection points: 2
#     Edge 38, Type (0, 0), BuildingBlock: XIVTED_clean_linker_0, # of connection points: 2
#     Edge 39, Type (0, 0), BuildingBlock: XIVTED_clean_linker_0, # of connection points: 2
#     Edge 40, Type (0, 0), BuildingBlock: XIVTED_clean_linker_0, # of connection points: 2
#     Edge 41, Type (0, 0), BuildingBlock: XIVTED_clean_linker_0, # of connection points: 2
#     Edge 42, Type (0, 0), BuildingBlock: XIVTED_clean_linker_0, # of connection points: 2
#     Edge 43, Type (0, 0), BuildingBlock: XIVTED_clean_linker_0, # of connection points: 2
#     Edge 44, Type (0, 0), BuildingBlock: XIVTED_clean_linker_0, # of connection points: 2
#     Edge 45, Type (0, 0), BuildingBlock: XIVTED_clean_linker_0, # of connection points: 2
#     Edge 46, Type (0, 0), BuildingBlock: XIVTED_clean_linker_0, # of connection points: 2
#     Edge 47, Type (0, 0), BuildingBlock: XIVTED_clean_linker_0, # of connection points: 2
#     Edge 48, Type (0, 0), BuildingBlock: XIVTED_clean_linker_0, # of connection points: 2
#     Edge 49, Type (0, 0), BuildingBlock: XIVTED_clean_linker_0, # of connection points: 2
#     Edge 50, Type (0, 0), BuildingBlock: XIVTED_clean_linker_0, # of connection points: 2
#     Edge 51, Type (0, 0), BuildingBlock: XIVTED_clean_linker_0, # of connection points: 2
#     Edge 52, Type (0, 0), BuildingBlock: XIVTED_clean_linker_0, # of connection points: 2
#     Edge 53, Type (0, 0), BuildingBlock: XIVTED_clean_linker_0, # of connection points: 2
#     Edge 54, Type (0, 0), BuildingBlock: XIVTED_clean_linker_0, # of connection points: 2
#     Edge 55, Type (0, 0), BuildingBlock: XIVTED_clean_linker_0, # of connection points: 2
# Relax obj value: 0.129
# Max RMSD: 0.183
# Mean RMSD: 0.183
data_MOF--net-wgt--node1-BEQFEK_clean_sbu_0--edge1-XIVTED_clean_linker_0
_symmetry_space_group_name_H-M    P1
_symmetry_Int_Tables_number       1
_symmetry_cell_setting            triclinic
loop_
_symmetry_equiv_pos_as_xyz
'x, y, z'
_cell_length_a     29.22413
_cell_length_b     29.251578
_cell_length_c     76.841479
_cell_angle_alpha  89.978354
_cell_angle_beta   90.055533
_cell_angle_gamma 89.951481
loop_
_atom_site_label
_atom_site_type_symbol
_atom_site_fract_x
_atom_site_fract_y
_atom_site_fract_z
_atom_type_partial_charge
Co0 Co 0.19568 0.3316 0.02616 0.0
Co1 Co 0.19618 0.32512 0.98532 0.0
C2 C 0.14759 0.25566 0.00648 0.0
O3 O 0.15971 0.27591 0.02044 0.0
O4 O 0.16082 0.26984 0.99164 0.0
C5 C 0.18783 0.3086 0.0629 0.0
O6 O 0.15404 0.28173 0.05818 0.0
C7 C 0.20257 0.29455 0.94885 0.0
C8 C 0.21933 0.35935 0.93548 0.0
C9 C 0.21092 0.3134 0.93257 0.0
N10 N 0.20622 0.32789 0.96081 0.0
N11 N 0.2165 0.36643 0.95274 0.0
C12 C 0.18692 0.2471 0.953 0.0
H13 H 0.15117 0.24873 0.95776 0.0
H14 H 0.20837 0.23278 0.96361 0.0
H15 H 0.18791 0.22419 0.94154 0.0
C16 C 0.29502 0.33857 0.02021 0.0
N17 N 0.252 0.33402 0.01423 0.0
N18 N 0.25296 0.32831 0.99728 0.0
C19 C 0.29696 0.32724 0.99198 0.0
C20 C 0.32528 0.33396 0.00636 0.0
C21 C 0.30639 0.34976 0.03873 0.0
H22 H 0.28175 0.37537 0.04377 0.0
H23 H 0.30341 0.31836 0.04676 0.0
H24 H 0.34148 0.3638 0.04 0.0
O25 O 0.15655 0.38369 0.02 0.0
O26 O 0.15551 0.37775 0.99117 0.0
H27 H 0.30992 0.34755 0.96575 0.0
H28 H 0.34661 0.30207 0.9734 0.0
C29 C 0.31135 0.31606 0.97378 0.0
H30 H 0.28767 0.29055 0.96807 0.0
H31 H 0.22084 0.39776 0.95902 0.0
O32 O 0.20822 0.33253 0.0515 0.0
C33 C 0.14221 0.39696 0.00518 0.0
Co34 Co 0.67399 0.6933 0.27466 0.0
Co35 Co 0.67858 0.69078 0.23367 0.0
C36 C 0.74856 0.6432 0.25519 0.0
O37 O 0.72938 0.65678 0.26914 0.0
O38 O 0.73323 0.65489 0.24032 0.0
C39 C 0.70283 0.6928 0.31083 0.0
O40 O 0.73474 0.66419 0.30572 0.0
C41 C 0.70808 0.70001 0.19674 0.0
C42 C 0.64089 0.69805 0.18355 0.0
C43 C 0.68749 0.7003 0.18042 0.0
N44 N 0.675 0.69773 0.20892 0.0
N45 N 0.63499 0.69703 0.2009 0.0
C46 C 0.75831 0.69941 0.20059 0.0
H47 H 0.76512 0.68944 0.2142 0.0
H48 H 0.77245 0.73419 0.19861 0.0
H49 H 0.77622 0.67572 0.19159 0.0
C50 C 0.66564 0.79171 0.26759 0.0
N51 N 0.67107 0.74849 0.26202 0.0
N52 N 0.67588 0.74838 0.24502 0.0
C53 C 0.67538 0.79196 0.23925 0.0
C54 C 0.66875 0.82105 0.2534 0.0
C55 C 0.65429 0.80397 0.28601 0.0
H56 H 0.62932 0.77908 0.29131 0.0
H57 H 0.68584 0.80224 0.29404 0.0
H58 H 0.6393 0.83872 0.28697 0.0
O59 O 0.62139 0.65427 0.26923 0.0
O60 O 0.62552 0.65168 0.24037 0.0
H61 H 0.65263 0.79959 0.21299 0.0
H62 H 0.69478 0.84143 0.21958 0.0
C63 C 0.68419 0.80518 0.22074 0.0
H64 H 0.71158 0.78331 0.21529 0.0
H65 H 0.60359 0.69461 0.20729 0.0
O66 O 0.67382 0.70766 0.29987 0.0
C67 C 0.60692 0.63952 0.25465 0.0
Co68 Co 0.31245 0.16398 0.52645 0.0
Co69 Co 0.32171 0.16292 0.48557 0.0
C70 C 0.36716 0.23468 0.50744 0.0
O71 O 0.35127 0.21743 0.52138 0.0
O72 O 0.35717 0.21794 0.49261 0.0
C73 C 0.29219 0.20287 0.55967 0.0
O74 O 0.29732 0.24136 0.55108 0.0
C75 C 0.30883 0.19417 0.44935 0.0
C76 C 0.33185 0.13346 0.43467 0.0
C77 C 0.31617 0.17784 0.43261 0.0
N78 N 0.31959 0.16084 0.46073 0.0
N79 N 0.333 0.12457 0.45184 0.0
C80 C 0.29527 0.24156 0.45456 0.0
H81 H 0.25837 0.24672 0.45182 0.0
H82 H 0.31479 0.26705 0.44685 0.0
H83 H 0.30106 0.24709 0.46866 0.0
C84 C 0.21392 0.16165 0.51689 0.0
N85 N 0.25856 0.1629 0.51253 0.0
N86 N 0.26235 0.16038 0.4955 0.0
C87 C 0.2203 0.15571 0.4885 0.0
C88 C 0.18802 0.15665 0.50179 0.0
C89 C 0.19685 0.16881 0.53505 0.0
H90 H 0.2135 0.19947 0.54063 0.0
H91 H 0.15937 0.17418 0.53557 0.0
H92 H 0.20632 0.13891 0.54319 0.0
O93 O 0.35154 0.10937 0.52213 0.0
O94 O 0.35818 0.11013 0.49333 0.0
H95 H 0.23832 0.12397 0.46428 0.0
H96 H 0.17762 0.13075 0.46753 0.0
C97 C 0.21155 0.14687 0.4696 0.0
H98 H 0.21263 0.17968 0.46239 0.0
H99 H 0.34398 0.09406 0.45752 0.0
O100 O 0.29677 0.16515 0.55163 0.0
C101 C 0.36787 0.09286 0.50809 0.0
Co102 Co 0.82035 0.80548 0.77349 0.0
Co103 Co 0.83114 0.80629 0.7329 0.0
C104 C 0.75406 0.85547 0.75129 0.0
O105 O 0.76638 0.84204 0.76634 0.0
O106 O 0.77589 0.84328 0.73773 0.0
C107 C 0.77976 0.79151 0.80706 0.0
O108 O 0.7412 0.79574 0.7984 0.0
C109 C 0.79931 0.79213 0.69749 0.0
C110 C 0.86301 0.79658 0.68213 0.0
C111 C 0.81608 0.79078 0.68062 0.0
N112 N 0.83457 0.79876 0.7084 0.0
N113 N 0.8726 0.80141 0.69917 0.0
C114 C 0.75112 0.78491 0.70344 0.0
H115 H 0.75085 0.77015 0.71676 0.0
H116 H 0.7325 0.76193 0.69439 0.0
H117 H 0.73322 0.81835 0.70387 0.0
C118 C 0.82245 0.70481 0.76674 0.0
N119 N 0.82411 0.74868 0.76135 0.0
N120 N 0.83065 0.74939 0.74443 0.0
C121 C 0.83479 0.70624 0.73855 0.0
C122 C 0.82936 0.67629 0.75245 0.0
C123 C 0.81053 0.691 0.78494 0.0
H124 H 0.77941 0.70966 0.78909 0.0
H125 H 0.80375 0.65388 0.78609 0.0
H126 H 0.83887 0.7007 0.79381 0.0
O127 O 0.87488 0.84505 0.76903 0.0
O128 O 0.88333 0.84326 0.74031 0.0
H129 H 0.87304 0.71786 0.71521 0.0
H130 H 0.85937 0.65874 0.71903 0.0
C131 C 0.8464 0.69426 0.72013 0.0
H132 H 0.81543 0.69811 0.7119 0.0
H133 H 0.90501 0.80681 0.7045 0.0
O134 O 0.81751 0.79443 0.79893 0.0
C135 C 0.89578 0.85736 0.75523 0.0
Co136 Co 0.82064 0.31292 0.52616 0.0
Co137 Co 0.81518 0.32045 0.48548 0.0
C138 C 0.86794 0.2455 0.50273 0.0
O139 O 0.85687 0.25925 0.51791 0.0
O140 O 0.8532 0.26563 0.48913 0.0
C141 C 0.81139 0.27347 0.56079 0.0
O142 O 0.81982 0.23374 0.5535 0.0
C143 C 0.80327 0.29726 0.44853 0.0
C144 C 0.78478 0.36432 0.43727 0.0
C145 C 0.79209 0.31888 0.43301 0.0
N146 N 0.80286 0.32859 0.46132 0.0
N147 N 0.79187 0.3686 0.4545 0.0
C148 C 0.81038 0.24721 0.45153 0.0
H149 H 0.79793 0.2375 0.46465 0.0
H150 H 0.79219 0.22661 0.44156 0.0
H151 H 0.84749 0.23947 0.4508 0.0
C152 C 0.71999 0.32061 0.52197 0.0
N153 N 0.76252 0.31781 0.5153 0.0
N154 N 0.75994 0.31802 0.49824 0.0
C155 C 0.71557 0.31904 0.49344 0.0
C156 C 0.68857 0.32119 0.50834 0.0
C157 C 0.71021 0.32607 0.54098 0.0
H158 H 0.73551 0.34966 0.54688 0.0
H159 H 0.71337 0.29236 0.5475 0.0
H160 H 0.67543 0.34001 0.54326 0.0
O161 O 0.85803 0.36743 0.52154 0.0
O162 O 0.85356 0.37301 0.49278 0.0
H163 H 0.70151 0.3481 0.46848 0.0
H164 H 0.66394 0.30152 0.47431 0.0
C165 C 0.69958 0.31433 0.47501 0.0
H166 H 0.72194 0.29007 0.46794 0.0
H167 H 0.78895 0.39879 0.46165 0.0
O168 O 0.81169 0.30949 0.55156 0.0
C169 C 0.86875 0.38715 0.50736 0.0
Co170 Co 0.67275 0.30229 0.77259 0.0
Co171 Co 0.66187 0.30678 0.73202 0.0
C172 C 0.73859 0.35487 0.75131 0.0
O173 O 0.72661 0.33973 0.76617 0.0
O174 O 0.71684 0.3438 0.73756 0.0
C175 C 0.69397 0.31035 0.80945 0.0
O176 O 0.71288 0.34965 0.80539 0.0
C177 C 0.68945 0.29067 0.69584 0.0
C178 C 0.62758 0.31269 0.68155 0.0
C179 C 0.67186 0.2969 0.67923 0.0
N180 N 0.65695 0.30218 0.70741 0.0
N181 N 0.61991 0.31486 0.69878 0.0
C182 C 0.73735 0.2778 0.70069 0.0
H183 H 0.74338 0.28303 0.7148 0.0
H184 H 0.7431 0.24119 0.69766 0.0
H185 H 0.76211 0.29818 0.69297 0.0
C186 C 0.67092 0.20282 0.76453 0.0
N187 N 0.66949 0.24699 0.75955 0.0
N188 N 0.66245 0.24888 0.74268 0.0
C189 C 0.65729 0.20616 0.73645 0.0
C190 C 0.66281 0.17531 0.75007 0.0
C191 C 0.68315 0.18761 0.78256 0.0
H192 H 0.70947 0.21065 0.78812 0.0
H193 H 0.69665 0.15217 0.78265 0.0
H194 H 0.65222 0.18929 0.7909 0.0
O195 O 0.61795 0.34219 0.76885 0.0
O196 O 0.60967 0.34255 0.74012 0.0
H197 H 0.62731 0.16145 0.71715 0.0
H198 H 0.67481 0.19568 0.70976 0.0
C199 C 0.64386 0.19548 0.71809 0.0
H200 H 0.61975 0.22174 0.71316 0.0
H201 H 0.58986 0.32633 0.70466 0.0
O202 O 0.67532 0.28645 0.79761 0.0
C203 C 0.59701 0.3554 0.75516 0.0
Co204 Co 0.69654 0.17126 0.02495 0.0
Co205 Co 0.69616 0.17782 0.98405 0.0
C206 C 0.64827 0.24748 0.00527 0.0
O207 O 0.66047 0.22692 0.01917 0.0
O208 O 0.66139 0.23356 0.99037 0.0
C209 C 0.6886 0.19384 0.06173 0.0
O210 O 0.65367 0.2194 0.05711 0.0
C211 C 0.69889 0.20565 0.94704 0.0
C212 C 0.72382 0.14212 0.93467 0.0
C213 C 0.71023 0.18648 0.93107 0.0
N214 N 0.70599 0.17409 0.9595 0.0
N215 N 0.72091 0.13626 0.952 0.0
C216 C 0.67754 0.25128 0.95042 0.0
H217 H 0.70014 0.27144 0.95913 0.0
H218 H 0.67083 0.27063 0.93829 0.0
H219 H 0.64454 0.24609 0.95724 0.0
C220 C 0.79556 0.1634 0.01872 0.0
N221 N 0.75249 0.16842 0.01283 0.0
N222 N 0.7532 0.1744 0.9959 0.0
C223 C 0.79715 0.17534 0.99052 0.0
C224 C 0.82563 0.16811 0.00482 0.0
C225 C 0.80709 0.15153 0.03717 0.0
H226 H 0.78203 0.12638 0.04222 0.0
H227 H 0.80501 0.18281 0.0453 0.0
H228 H 0.8419 0.13664 0.03827 0.0
O229 O 0.65726 0.11927 0.01903 0.0
O230 O 0.65518 0.12561 0.99021 0.0
H231 H 0.81217 0.15523 0.96442 0.0
H232 H 0.84602 0.2026 0.97213 0.0
C233 C 0.81147 0.18692 0.97234 0.0
H234 H 0.78674 0.21111 0.96642 0.0
H235 H 0.72879 0.10628 0.95874 0.0
O236 O 0.70971 0.17076 0.05026 0.0
C237 C 0.6423 0.1063 0.00427 0.0
Co238 Co 0.82342 0.19096 0.27682 0.0
Co239 Co 0.82093 0.19293 0.23595 0.0
C240 C 0.74984 0.14323 0.2557 0.0
O241 O 0.76894 0.15479 0.26994 0.0
O242 O 0.76523 0.15706 0.24112 0.0
C243 C 0.78331 0.21525 0.30899 0.0
O244 O 0.74805 0.22375 0.29887 0.0
C245 C 0.79384 0.20027 0.19908 0.0
C246 C 0.85994 0.2168 0.18661 0.0
C247 C 0.8142 0.20869 0.18307 0.0
N248 N 0.82612 0.2036 0.2115 0.0
N249 N 0.86546 0.21374 0.20397 0.0
C250 C 0.74593 0.18477 0.20256 0.0
H251 H 0.73087 0.20581 0.21312 0.0
H252 H 0.72392 0.18638 0.19085 0.0
H253 H 0.74697 0.14883 0.20711 0.0
C254 C 0.8325 0.2906 0.27136 0.0
N255 N 0.82701 0.24783 0.26527 0.0
N256 N 0.82257 0.24921 0.24826 0.0
C257 C 0.82302 0.29322 0.24302 0.0
C258 C 0.82968 0.32108 0.25751 0.0
C259 C 0.84386 0.30156 0.2899 0.0
H260 H 0.81173 0.30483 0.29747 0.0
H261 H 0.86309 0.33417 0.29086 0.0
H262 H 0.86476 0.27376 0.29567 0.0
O263 O 0.87679 0.15308 0.27144 0.0
O264 O 0.87355 0.15293 0.24254 0.0
H265 H 0.84616 0.30675 0.21717 0.0
H266 H 0.80003 0.3434 0.22424 0.0
C267 C 0.81382 0.30809 0.22471 0.0
H268 H 0.78877 0.28475 0.21853 0.0
H269 H 0.89627 0.21777 0.21067 0.0
O270 O 0.82008 0.20031 0.30225 0.0
C271 C 0.89179 0.13964 0.25677 0.0
Co272 Co 0.68355 0.80177 0.52567 0.0
Co273 Co 0.6889 0.81428 0.48511 0.0
C274 C 0.63701 0.73705 0.50106 0.0
O275 O 0.64812 0.74914 0.51641 0.0
O276 O 0.65131 0.75894 0.48784 0.0
C277 C 0.67074 0.80576 0.56321 0.0
O278 O 0.63495 0.83165 0.56 0.0
C279 C 0.70621 0.79453 0.44802 0.0
C280 C 0.70015 0.8635 0.43651 0.0
C281 C 0.7068 0.81794 0.4323 0.0
N282 N 0.69965 0.82496 0.46092 0.0
N283 N 0.69657 0.86615 0.45394 0.0
C284 C 0.70857 0.74383 0.45061 0.0
H285 H 0.70217 0.73445 0.46433 0.0
H286 H 0.74321 0.73138 0.44717 0.0
H287 H 0.68352 0.72656 0.44196 0.0
C288 C 0.78353 0.81303 0.52176 0.0
N289 N 0.74134 0.8093 0.51487 0.0
N290 N 0.74424 0.81168 0.49783 0.0
C291 C 0.78863 0.81542 0.49326 0.0
C292 C 0.81519 0.81664 0.50833 0.0
C293 C 0.79259 0.81676 0.5409 0.0
H294 H 0.76597 0.83836 0.54708 0.0
H295 H 0.79104 0.7822 0.54682 0.0
H296 H 0.82658 0.83208 0.54357 0.0
O297 O 0.64518 0.85672 0.52235 0.0
O298 O 0.64986 0.86512 0.49364 0.0
H299 H 0.79803 0.84869 0.46876 0.0
H300 H 0.84198 0.80708 0.47387 0.0
C301 C 0.80497 0.81493 0.47481 0.0
H302 H 0.78598 0.78864 0.46742 0.0
H303 H 0.69046 0.89594 0.46105 0.0
O304 O 0.69405 0.79 0.55063 0.0
C305 C 0.63434 0.87767 0.5084 0.0
Co306 Co 0.16741 0.18524 0.77613 0.0
Co307 Co 0.16976 0.18359 0.73521 0.0
C308 C 0.24059 0.13487 0.75568 0.0
O309 O 0.22197 0.14805 0.76983 0.0
O310 O 0.225 0.14744 0.74094 0.0
C311 C 0.19397 0.17975 0.81269 0.0
O312 O 0.22069 0.14573 0.80808 0.0
C313 C 0.19615 0.18839 0.69813 0.0
C314 C 0.1312 0.2108 0.68607 0.0
C315 C 0.17615 0.19959 0.68229 0.0
N316 N 0.16431 0.19255 0.71067 0.0
N317 N 0.12556 0.20577 0.70335 0.0
C318 C 0.2454 0.17771 0.70159 0.0
H319 H 0.25606 0.19271 0.71422 0.0
H320 H 0.2677 0.19117 0.6911 0.0
H321 H 0.24974 0.14008 0.70238 0.0
C322 C 0.16066 0.28414 0.76949 0.0
N323 N 0.16452 0.24086 0.76377 0.0
N324 N 0.16888 0.24097 0.74677 0.0
C325 C 0.16986 0.28468 0.74114 0.0
C326 C 0.16443 0.31367 0.75538 0.0
C327 C 0.15049 0.2964 0.78801 0.0
H328 H 0.12528 0.27197 0.79345 0.0
H329 H 0.18239 0.29396 0.7958 0.0
H330 H 0.13629 0.33146 0.78912 0.0
O331 O 0.11391 0.14702 0.7712 0.0
O332 O 0.11703 0.14451 0.74233 0.0
H333 H 0.14716 0.29773 0.71518 0.0
H334 H 0.19459 0.33294 0.72199 0.0
C335 C 0.17955 0.29819 0.72272 0.0
H336 H 0.2037 0.2736 0.71673 0.0
H337 H 0.09537 0.21191 0.7102 0.0
O338 O 0.16912 0.19925 0.80132 0.0
C339 C 0.09888 0.13236 0.7567 0.0
Co340 Co 0.81094 0.66163 0.02311 0.0
Co341 Co 0.81113 0.66719 0.98223 0.0
C342 C 0.86173 0.73554 0.00318 0.0
O343 O 0.84873 0.71597 0.01717 0.0
O344 O 0.84848 0.7214 0.98831 0.0
C345 C 0.81711 0.68695 0.05971 0.0
O346 O 0.84932 0.71551 0.05486 0.0
C347 C 0.8038 0.6962 0.94549 0.0
C348 C 0.77917 0.63248 0.93319 0.0
C349 C 0.79054 0.67748 0.92966 0.0
N350 N 0.80051 0.66361 0.95777 0.0
N351 N 0.786 0.62559 0.9503 0.0
C352 C 0.81543 0.74502 0.94925 0.0
H353 H 0.80201 0.75492 0.96221 0.0
H354 H 0.80102 0.7682 0.93921 0.0
H355 H 0.85319 0.74886 0.94946 0.0
C356 C 0.71148 0.65911 0.01704 0.0
N357 N 0.7547 0.66109 0.0111 0.0
N358 N 0.75414 0.66671 0.99415 0.0
C359 C 0.71027 0.67038 0.9888 0.0
C360 C 0.68158 0.66544 0.00316 0.0
C361 C 0.69943 0.64916 0.0356 0.0
H362 H 0.72249 0.62226 0.04078 0.0
H363 H 0.70427 0.68054 0.0435 0.0
H364 H 0.66355 0.63729 0.03688 0.0
O365 O 0.8482 0.60812 0.01722 0.0
O366 O 0.84992 0.61328 0.98838 0.0
H367 H 0.69578 0.65149 0.96252 0.0
H368 H 0.66228 0.69915 0.97029 0.0
C369 C 0.69654 0.68285 0.97063 0.0
H370 H 0.72176 0.70688 0.96499 0.0
H371 H 0.78005 0.59509 0.95698 0.0
O372 O 0.79826 0.66133 0.04845 0.0
C373 C 0.86233 0.59397 0.00251 0.0
Co374 Co 0.32453 0.32097 0.27737 0.0
Co375 Co 0.3271 0.31724 0.23635 0.0
C376 C 0.2547 0.36965 0.25552 0.0
O377 O 0.26972 0.35784 0.27046 0.0
O378 O 0.27356 0.35542 0.24162 0.0
C379 C 0.29036 0.31136 0.31292 0.0
O380 O 0.24993 0.32169 0.30655 0.0
C381 C 0.29944 0.30426 0.19941 0.0
C382 C 0.36727 0.30351 0.18674 0.0
C383 C 0.32079 0.30191 0.18328 0.0
N384 N 0.33198 0.3071 0.2118 0.0
N385 N 0.37238 0.30613 0.2041 0.0
C386 C 0.24907 0.30627 0.20286 0.0
H387 H 0.24183 0.31644 0.21641 0.0
H388 H 0.23404 0.2719 0.2008 0.0
H389 H 0.2323 0.33041 0.1937 0.0
C390 C 0.33127 0.22063 0.27228 0.0
N391 N 0.32786 0.26343 0.26593 0.0
N392 N 0.32647 0.26161 0.24885 0.0
C393 C 0.32721 0.21753 0.24376 0.0
C394 C 0.33064 0.18987 0.25846 0.0
C395 C 0.33841 0.20996 0.29115 0.0
H396 H 0.36327 0.2344 0.29682 0.0
H397 H 0.30546 0.21378 0.29817 0.0
H398 H 0.35169 0.1748 0.29309 0.0
O399 O 0.37835 0.35872 0.27172 0.0
O400 O 0.38062 0.35516 0.24287 0.0
H401 H 0.35374 0.20753 0.21813 0.0
H402 H 0.31051 0.16634 0.22432 0.0
C403 C 0.32113 0.20261 0.22527 0.0
H404 H 0.29454 0.2239 0.21896 0.0
H405 H 0.40351 0.30862 0.21069 0.0
O406 O 0.32491 0.31063 0.30289 0.0
C407 C 0.39639 0.36995 0.25726 0.0
Co408 Co 0.31189 0.84181 0.02381 0.0
Co409 Co 0.30978 0.83797 0.98297 0.0
C410 C 0.36165 0.76878 0.00316 0.0
O411 O 0.34942 0.78773 0.01736 0.0
O412 O 0.34759 0.78361 0.9885 0.0
C413 C 0.3076 0.8081 0.0593 0.0
O414 O 0.32314 0.7695 0.05286 0.0
C415 C 0.30032 0.80958 0.94631 0.0
C416 C 0.27794 0.87426 0.93407 0.0
C417 C 0.2878 0.8289 0.9305 0.0
N418 N 0.29814 0.84216 0.95862 0.0
N419 N 0.28488 0.88073 0.9512 0.0
C420 C 0.31033 0.76037 0.95006 0.0
H421 H 0.29768 0.75114 0.9632 0.0
H422 H 0.29411 0.73773 0.94025 0.0
H423 H 0.34791 0.75494 0.94978 0.0
C424 C 0.21183 0.84421 0.01856 0.0
N425 N 0.25481 0.8426 0.01232 0.0
N426 N 0.25346 0.83808 0.99532 0.0
C427 C 0.20937 0.83492 0.99022 0.0
C428 C 0.18131 0.83901 0.0048 0.0
C429 C 0.20059 0.85259 0.0373 0.0
H430 H 0.22398 0.87884 0.0427 0.0
H431 H 0.20559 0.82048 0.04477 0.0
H432 H 0.16481 0.86452 0.03894 0.0
O433 O 0.34876 0.8955 0.01776 0.0
O434 O 0.34873 0.89167 0.98891 0.0
H435 H 0.19469 0.85541 0.96412 0.0
H436 H 0.1603 0.80816 0.97168 0.0
C437 C 0.19488 0.82368 0.97203 0.0
H438 H 0.21941 0.79931 0.96615 0.0
H439 H 0.28012 0.9114 0.9579 0.0
O440 O 0.30166 0.84218 0.04928 0.0
C441 C 0.36196 0.91034 0.00303 0.0
Co442 Co 0.17483 0.81581 0.27437 0.0
Co443 Co 0.17232 0.82256 0.23357 0.0
C444 C 0.2457 0.86833 0.25499 0.0
O445 O 0.2294 0.85276 0.26917 0.0
O446 O 0.22767 0.85838 0.24035 0.0
C447 C 0.19801 0.81771 0.31115 0.0
O448 O 0.22712 0.85012 0.30701 0.0
C449 C 0.20137 0.8105 0.19702 0.0
C450 C 0.13786 0.82979 0.1832 0.0
C451 C 0.18295 0.817 0.18052 0.0
N452 N 0.16856 0.81919 0.20884 0.0
N453 N 0.13062 0.83023 0.20046 0.0
C454 C 0.24994 0.79956 0.20156 0.0
H455 H 0.25669 0.80615 0.21553 0.0
H456 H 0.25651 0.76284 0.19897 0.0
H457 H 0.27364 0.81994 0.19337 0.0
C458 C 0.17291 0.71728 0.26594 0.0
N459 N 0.17328 0.76143 0.26102 0.0
N460 N 0.16999 0.76384 0.24398 0.0
C461 C 0.16554 0.72121 0.23752 0.0
C462 C 0.16736 0.69006 0.25124 0.0
C463 C 0.18163 0.70182 0.28424 0.0
H464 H 0.20775 0.72405 0.29038 0.0
H465 H 0.19406 0.66603 0.28471 0.0
H466 H 0.14949 0.70465 0.29185 0.0
O467 O 0.12102 0.85559 0.26979 0.0
O468 O 0.11979 0.85958 0.24097 0.0
H469 H 0.1331 0.73695 0.2132 0.0
H470 H 0.14115 0.67668 0.21702 0.0
C471 C 0.15662 0.711 0.21874 0.0
H472 H 0.18935 0.71248 0.21146 0.0
H473 H 0.10004 0.83932 0.20656 0.0
O474 O 0.17326 0.79985 0.29938 0.0
C475 C 0.10363 0.87076 0.25572 0.0
Co476 Co 0.19359 0.67098 0.52452 0.0
Co477 Co 0.18069 0.67 0.48388 0.0
C478 C 0.13842 0.74265 0.50637 0.0
O479 O 0.15552 0.72564 0.52019 0.0
O480 O 0.14664 0.72528 0.49149 0.0
C481 C 0.18784 0.68398 0.5616 0.0
O482 O 0.14576 0.69714 0.55821 0.0
C483 C 0.18831 0.69993 0.44728 0.0
C484 C 0.16795 0.63682 0.43351 0.0
C485 C 0.18073 0.68186 0.43079 0.0
N486 N 0.18038 0.66693 0.4591 0.0
N487 N 0.1685 0.62928 0.45076 0.0
C488 C 0.20005 0.74821 0.4519 0.0
H489 H 0.19291 0.75511 0.4658 0.0
H490 H 0.23709 0.7539 0.44965 0.0
H491 H 0.18057 0.77242 0.44358 0.0
C492 C 0.29085 0.66706 0.51373 0.0
N493 N 0.24592 0.66912 0.5099 0.0
N494 N 0.24067 0.66669 0.49293 0.0
C495 C 0.28197 0.66126 0.48543 0.0
C496 C 0.31533 0.66148 0.49835 0.0
C497 C 0.30967 0.67356 0.5317 0.0
H498 H 0.29001 0.70053 0.53855 0.0
H499 H 0.3462 0.6837 0.53145 0.0
H500 H 0.30604 0.64119 0.5391 0.0
O501 O 0.15298 0.61712 0.5208 0.0
O502 O 0.14474 0.61784 0.49207 0.0
H503 H 0.26185 0.629 0.46157 0.0
H504 H 0.32268 0.63669 0.46381 0.0
C505 C 0.2888 0.65237 0.46642 0.0
H506 H 0.28618 0.68508 0.45919 0.0
H507 H 0.15996 0.5986 0.45688 0.0
O508 O 0.21343 0.67109 0.54918 0.0
C509 C 0.13571 0.60076 0.50689 0.0
Co510 Co 0.32789 0.68468 0.7764 0.0
Co511 Co 0.3239 0.68349 0.73551 0.0
C512 C 0.25364 0.63514 0.75601 0.0
O513 O 0.27361 0.64743 0.77 0.0
O514 O 0.26799 0.64844 0.74121 0.0
C515 C 0.28782 0.71036 0.80839 0.0
O516 O 0.25216 0.71713 0.79828 0.0
C517 C 0.29906 0.68398 0.69817 0.0
C518 C 0.36184 0.7125 0.68639 0.0
C519 C 0.31851 0.69652 0.68237 0.0
N520 N 0.32935 0.69281 0.71093 0.0
N521 N 0.36681 0.70973 0.70378 0.0
C522 C 0.25451 0.66003 0.7011 0.0
H523 H 0.26094 0.62829 0.70859 0.0
H524 H 0.2317 0.68223 0.70896 0.0
H525 H 0.23734 0.65062 0.68876 0.0
C526 C 0.33515 0.78399 0.76988 0.0
N527 N 0.33067 0.74069 0.76422 0.0
N528 N 0.32542 0.7408 0.74724 0.0
C529 C 0.32414 0.7845 0.74161 0.0
C530 C 0.33063 0.81351 0.75578 0.0
C531 C 0.34681 0.79645 0.78825 0.0
H532 H 0.36853 0.76953 0.79419 0.0
H533 H 0.31485 0.79945 0.79594 0.0
H534 H 0.36527 0.82955 0.78881 0.0
O535 O 0.38135 0.64676 0.77137 0.0
O536 O 0.37627 0.64342 0.74254 0.0
H537 H 0.34491 0.79991 0.71562 0.0
H538 H 0.29583 0.83194 0.72291 0.0
C539 C 0.31286 0.79805 0.72331 0.0
H540 H 0.28992 0.77239 0.71728 0.0
H541 H 0.39584 0.71933 0.71079 0.0
O542 O 0.32485 0.6959 0.80172 0.0
C543 C 0.39529 0.63152 0.7568 0.0
H544 H 0.25077 0.23336 0.92181 0.0
H545 H 0.14528 0.25156 0.82587 0.0
H546 H 0.16636 0.34495 0.90404 0.0
H547 H 0.24379 0.14843 0.84063 0.0
H548 H 0.1488 0.28278 0.85517 0.0
H549 H 0.24524 0.19849 0.89284 0.0
C550 C 0.23056 0.25011 0.91185 0.0
C551 C 0.20812 0.29148 0.91533 0.0
C552 C 0.16965 0.25329 0.85204 0.0
C553 C 0.2024 0.25255 0.88221 0.0
C554 C 0.1676 0.23533 0.83528 0.0
C555 C 0.19445 0.19738 0.83073 0.0
C556 C 0.19866 0.23318 0.86444 0.0
C557 C 0.22257 0.17779 0.84355 0.0
C558 C 0.22773 0.23047 0.89531 0.0
C559 C 0.18383 0.3128 0.90187 0.0
N560 N 0.22401 0.19597 0.85984 0.0
N561 N 0.18142 0.29298 0.88593 0.0
H562 H 0.76418 0.74564 0.16855 0.0
H563 H 0.74843 0.63492 0.07349 0.0
H564 H 0.65877 0.65153 0.15245 0.0
H565 H 0.84756 0.73809 0.08737 0.0
H566 H 0.71849 0.63733 0.10303 0.0
H567 H 0.79834 0.74031 0.13958 0.0
C568 C 0.74864 0.72328 0.15904 0.0
C569 C 0.70908 0.69826 0.16303 0.0
C570 C 0.74686 0.65941 0.09965 0.0
C571 C 0.74732 0.69284 0.12973 0.0
C572 C 0.76408 0.65799 0.08276 0.0
C573 C 0.80049 0.68651 0.07789 0.0
C574 C 0.76613 0.68951 0.11185 0.0
C575 C 0.81938 0.71559 0.09054 0.0
C576 C 0.76789 0.72063 0.14243 0.0
C577 C 0.68936 0.67131 0.14993 0.0
N578 N 0.8019 0.71643 0.10694 0.0
N579 N 0.70875 0.6692 0.13391 0.0
H580 H 0.36675 0.27696 0.32873 0.0
H581 H 0.24872 0.23694 0.42141 0.0
H582 H 0.22573 0.31194 0.33894 0.0
H583 H 0.3746 0.17268 0.40529 0.0
H584 H 0.24328 0.27394 0.39283 0.0
H585 H 0.37376 0.24823 0.35837 0.0
C586 C 0.33728 0.27891 0.33723 0.0
C587 C 0.29547 0.2967 0.33128 0.0
C588 C 0.27223 0.25199 0.39563 0.0
C589 C 0.30336 0.26366 0.36534 0.0
C590 C 0.27561 0.23127 0.412 0.0
C591 C 0.31251 0.2022 0.41579 0.0
C592 C 0.30616 0.24374 0.38307 0.0
C593 C 0.34559 0.19485 0.40289 0.0
C594 C 0.34129 0.26231 0.35416 0.0
C595 C 0.25854 0.29831 0.34295 0.0
N596 N 0.34172 0.21557 0.38714 0.0
N597 N 0.26331 0.2819 0.35944 0.0
H598 H 0.63504 0.84016 0.59358 0.0
H599 H 0.84276 0.7463 0.65131 0.0
H600 H 0.74304 0.75365 0.5739 0.0
H601 H 0.73279 0.82824 0.67201 0.0
H602 H 0.80364 0.7446 0.6232 0.0
H603 H 0.66676 0.83168 0.6229 0.0
C604 C 0.66516 0.81911 0.59543 0.0
C605 C 0.68667 0.79798 0.58123 0.0
C606 C 0.78772 0.76248 0.63395 0.0
C607 C 0.72321 0.78831 0.61468 0.0
C608 C 0.81009 0.76348 0.64997 0.0
C609 C 0.79065 0.7868 0.66407 0.0
C610 C 0.74587 0.78559 0.63192 0.0
C611 C 0.7484 0.80875 0.66164 0.0
C612 C 0.68328 0.81432 0.61217 0.0
C613 C 0.72552 0.77095 0.58441 0.0
N614 N 0.72753 0.80783 0.64583 0.0
N615 N 0.74269 0.76718 0.60076 0.0
H616 H 0.84758 0.25453 0.41789 0.0
H617 H 0.71537 0.25995 0.32664 0.0
H618 H 0.73043 0.3403 0.40773 0.0
H619 H 0.8475 0.19661 0.33398 0.0
H620 H 0.71533 0.2821 0.3573 0.0
H621 H 0.84295 0.22531 0.38815 0.0
C622 C 0.82036 0.26658 0.4095 0.0
C623 C 0.78883 0.29929 0.41534 0.0
C624 C 0.74425 0.26323 0.35221 0.0
C625 C 0.78396 0.26684 0.3812 0.0
C626 C 0.74425 0.25043 0.33472 0.0
C627 C 0.7816 0.22657 0.32771 0.0
C628 C 0.78175 0.25185 0.3628 0.0
C629 C 0.81808 0.21518 0.3388 0.0
C630 C 0.81803 0.25026 0.39246 0.0
C631 C 0.75529 0.31496 0.40372 0.0
N632 N 0.81727 0.22798 0.35579 0.0
N633 N 0.75365 0.29852 0.3872 0.0
H634 H 0.80797 0.2049 0.5853 0.0
H635 H 0.66722 0.35692 0.65249 0.0
H636 H 0.78049 0.34877 0.57807 0.0
H637 H 0.72943 0.22909 0.66749 0.0
H638 H 0.70506 0.35167 0.62428 0.0
H639 H 0.7771 0.21047 0.61493 0.0
C640 C 0.7958 0.23766 0.58996 0.0
C641 C 0.79659 0.27635 0.57915 0.0
C642 C 0.71083 0.32491 0.63377 0.0
C643 C 0.76096 0.28278 0.61282 0.0
C644 C 0.68905 0.3278 0.64983 0.0
C645 C 0.69573 0.29369 0.66237 0.0
C646 C 0.7389 0.28716 0.63008 0.0
C647 C 0.72428 0.25663 0.6583 0.0
C648 C 0.77826 0.2408 0.60685 0.0
C649 C 0.78046 0.31796 0.58588 0.0
N650 N 0.74467 0.25414 0.64241 0.0
N651 N 0.76299 0.31994 0.6022 0.0
H652 H 0.73832 0.27148 0.92032 0.0
H653 H 0.66037 0.22935 0.82167 0.0
H654 H 0.67735 0.14648 0.90177 0.0
H655 H 0.7305 0.35151 0.83847 0.0
H656 H 0.66384 0.20014 0.8513 0.0
H657 H 0.73336 0.30312 0.89082 0.0
C658 C 0.72323 0.25101 0.91007 0.0
C659 C 0.70719 0.20675 0.9135 0.0
C660 C 0.67848 0.23335 0.84854 0.0
C661 C 0.70244 0.24211 0.87974 0.0
C662 C 0.67647 0.25013 0.83159 0.0
C663 C 0.69524 0.29298 0.82754 0.0
C664 C 0.69936 0.25954 0.86164 0.0
C665 C 0.71562 0.31829 0.84099 0.0
C666 C 0.72081 0.26888 0.89322 0.0
C667 C 0.68971 0.18092 0.89967 0.0
N668 N 0.71716 0.30118 0.85746 0.0
N669 N 0.6876 0.19904 0.88342 0.0
H670 H 0.73516 0.24892 0.17137 0.0
H671 H 0.7616 0.14707 0.07515 0.0
H672 H 0.84808 0.16469 0.15481 0.0
H673 H 0.65405 0.24079 0.08975 0.0
H674 H 0.79115 0.15013 0.10477 0.0
H675 H 0.70248 0.24377 0.14203 0.0
C676 C 0.75267 0.22881 0.16159 0.0
C677 C 0.79374 0.20628 0.16554 0.0
C678 C 0.76104 0.17 0.10153 0.0
C679 C 0.75733 0.20105 0.13195 0.0
C680 C 0.74405 0.16821 0.0846 0.0
C681 C 0.70532 0.19385 0.07991 0.0
C682 C 0.73919 0.19758 0.11396 0.0
C683 C 0.68403 0.22052 0.09277 0.0
C684 C 0.73427 0.2262 0.14483 0.0
C685 C 0.8161 0.1822 0.15228 0.0
N686 N 0.7013 0.22175 0.10921 0.0
N687 N 0.79751 0.18003 0.1361 0.0
H688 H 0.64553 0.75683 0.32492 0.0
H689 H 0.76206 0.74997 0.41918 0.0
H690 H 0.75876 0.66822 0.33796 0.0
H691 H 0.65493 0.84408 0.4047 0.0
H692 H 0.76008 0.71778 0.38986 0.0
H693 H 0.6469 0.78716 0.35445 0.0
C694 C 0.6706 0.74358 0.33401 0.0
C695 C 0.70215 0.70994 0.32893 0.0
C696 C 0.73685 0.74533 0.39311 0.0
C697 C 0.70397 0.74473 0.36282 0.0
C698 C 0.73761 0.76336 0.40993 0.0
C699 C 0.70779 0.79895 0.4145 0.0
C700 C 0.70613 0.76316 0.38078 0.0
C701 C 0.67834 0.81648 0.40171 0.0
C702 C 0.67143 0.76104 0.35088 0.0
C703 C 0.73385 0.69417 0.34129 0.0
N704 N 0.67807 0.79825 0.38547 0.0
N705 N 0.73397 0.71173 0.35767 0.0
H706 H 0.26095 0.27567 0.57853 0.0
H707 H 0.23454 0.1371 0.66761 0.0
H708 H 0.29103 0.13159 0.58286 0.0
H709 H 0.16357 0.26341 0.65702 0.0
H710 H 0.26572 0.13851 0.63799 0.0
H711 H 0.23521 0.27567 0.60878 0.0
C712 C 0.26237 0.24407 0.58586 0.0
C713 C 0.27802 0.20351 0.57814 0.0
C714 C 0.24353 0.16601 0.6422 0.0
C715 C 0.24879 0.20339 0.61279 0.0
C716 C 0.22611 0.16546 0.65913 0.0
C717 C 0.19697 0.20053 0.66479 0.0
C718 C 0.23193 0.20208 0.63095 0.0
C719 C 0.18604 0.2358 0.65314 0.0
C720 C 0.24751 0.24408 0.60311 0.0
C721 C 0.27901 0.16357 0.58828 0.0
N722 N 0.20371 0.23582 0.6368 0.0
N723 N 0.26467 0.16452 0.60511 0.0
H724 H 0.85176 0.7363 0.91454 0.0
H725 H 0.70708 0.76305 0.82669 0.0
H726 H 0.72373 0.66713 0.90537 0.0
H727 H 0.85156 0.79251 0.82996 0.0
H728 H 0.70821 0.73919 0.8572 0.0
H729 H 0.8477 0.76866 0.88513 0.0
C730 C 0.82244 0.72857 0.90643 0.0
C731 C 0.78774 0.69948 0.9124 0.0
C732 C 0.7396 0.75105 0.85124 0.0
C733 C 0.78316 0.73574 0.87881 0.0
C734 C 0.73897 0.76484 0.83385 0.0
C735 C 0.77936 0.77955 0.82575 0.0
C736 C 0.7808 0.75246 0.86064 0.0
C737 C 0.8197 0.7811 0.83567 0.0
C738 C 0.82035 0.74667 0.88963 0.0
C739 C 0.75114 0.68949 0.90122 0.0
N740 N 0.81941 0.76771 0.85261 0.0
N741 N 0.74971 0.70771 0.88497 0.0
H742 H 0.35168 0.3483 0.15509 0.0
H743 H 0.15507 0.25979 0.09078 0.0
H744 H 0.24379 0.25723 0.17127 0.0
H745 H 0.25868 0.35801 0.07649 0.0
H746 H 0.18615 0.25835 0.12038 0.0
H747 H 0.31797 0.35128 0.12606 0.0
C748 C 0.32076 0.32902 0.15254 0.0
C749 C 0.30002 0.30321 0.16572 0.0
C750 C 0.20193 0.28031 0.11076 0.0
C751 C 0.26118 0.30629 0.13247 0.0
C752 C 0.18418 0.2812 0.09387 0.0
C753 C 0.20437 0.30894 0.0811 0.0
C754 C 0.24021 0.30726 0.11488 0.0
C755 C 0.24203 0.33597 0.08586 0.0
C756 C 0.3014 0.33087 0.13598 0.0
C757 C 0.26009 0.27876 0.16169 0.0
N758 N 0.25878 0.33431 0.10232 0.0
N759 N 0.24196 0.28086 0.1454 0.0
H760 H 0.35313 0.69585 0.83337 0.0
H761 H 0.22412 0.84435 0.90538 0.0
H762 H 0.21889 0.75431 0.82574 0.0
H763 H 0.34627 0.76625 0.91593 0.0
H764 H 0.22188 0.81209 0.87603 0.0
H765 H 0.35141 0.72123 0.86365 0.0
C766 C 0.32319 0.71383 0.83808 0.0
C767 C 0.28615 0.72312 0.82698 0.0
C768 C 0.2489 0.80159 0.88482 0.0
C769 C 0.2841 0.75251 0.8616 0.0
C770 C 0.25024 0.82007 0.90154 0.0
C771 C 0.28501 0.80737 0.91315 0.0
C772 C 0.28307 0.77075 0.87958 0.0
C773 C 0.3182 0.77605 0.90753 0.0
C774 C 0.32221 0.72825 0.85538 0.0
C775 C 0.24822 0.74642 0.83381 0.0
N776 N 0.31655 0.75896 0.8911 0.0
N777 N 0.24831 0.76058 0.85065 0.0
H778 H 0.2651 0.8794 0.07557 0.0
H779 H 0.24701 0.75568 0.16822 0.0
H780 H 0.31851 0.74399 0.08513 0.0
H781 H 0.16991 0.87559 0.15367 0.0
H782 H 0.28179 0.75489 0.13919 0.0
H783 H 0.23854 0.88268 0.10557 0.0
C784 C 0.27151 0.8504 0.084 0.0
C785 C 0.29387 0.81123 0.07778 0.0
C786 C 0.25748 0.78151 0.14243 0.0
C787 C 0.26334 0.81477 0.11223 0.0
C788 C 0.23799 0.78225 0.15904 0.0
C789 C 0.20595 0.81609 0.16341 0.0
C790 C 0.24493 0.81499 0.1302 0.0
C791 C 0.19442 0.84884 0.15082 0.0
C792 C 0.25618 0.85226 0.10114 0.0
C793 C 0.30121 0.77477 0.08935 0.0
N794 N 0.21396 0.84755 0.13483 0.0
N795 N 0.28588 0.77737 0.10604 0.0
H796 H 0.12575 0.66503 0.4031 0.0
H797 H 0.24803 0.8445 0.33968 0.0
H798 H 0.23951 0.74918 0.41902 0.0
H799 H 0.14068 0.75203 0.32383 0.0
H800 H 0.24304 0.81373 0.36927 0.0
H801 H 0.1286 0.69995 0.37435 0.0
C802 C 0.15121 0.6911 0.40058 0.0
C803 C 0.18194 0.70469 0.4136 0.0
C804 C 0.22055 0.80031 0.3593 0.0
C805 C 0.18562 0.74481 0.38059 0.0
C806 C 0.22333 0.81788 0.34242 0.0
C807 C 0.1948 0.80076 0.32924 0.0
C808 C 0.18896 0.76546 0.36301 0.0
C809 C 0.16344 0.76626 0.33354 0.0
C810 C 0.15277 0.7111 0.38415 0.0
C811 C 0.21424 0.73859 0.40959 0.0
N812 N 0.16144 0.74976 0.35002 0.0
N813 N 0.21529 0.75746 0.39341 0.0
H814 H 0.36156 0.66957 0.65275 0.0
H815 H 0.14337 0.71054 0.59136 0.0
H816 H 0.23185 0.71926 0.67162 0.0
H817 H 0.27352 0.66031 0.57288 0.0
H818 H 0.17462 0.71337 0.62088 0.0
H819 H 0.32966 0.66598 0.62334 0.0
C820 C 0.32623 0.67945 0.65069 0.0
C821 C 0.29892 0.69361 0.66466 0.0
C822 C 0.19631 0.70168 0.61036 0.0
C823 C 0.26222 0.69007 0.63106 0.0
C824 C 0.17848 0.70002 0.5935 0.0
C825 C 0.20584 0.68516 0.57961 0.0
C826 C 0.24186 0.68841 0.61337 0.0
C827 C 0.25112 0.672 0.58317 0.0
C828 C 0.308 0.67736 0.63392 0.0
C829 C 0.25357 0.70663 0.66128 0.0
N830 N 0.26767 0.67397 0.59968 0.0
N831 N 0.23658 0.70447 0.64482 0.0
H832 H 0.10026 0.44027 0.03241 0.0
H833 H 0.9077 0.5597 0.97402 0.0
H834 H 0.09651 0.42902 0.97637 0.0
H835 H 0.90282 0.55078 0.03011 0.0
H836 H 0.9774 0.51336 0.97426 0.0
H837 H 0.03037 0.4855 0.03142 0.0
C838 C 0.08513 0.44778 0.01985 0.0
C839 C 0.10431 0.43055 0.00445 0.0
C840 C 0.9608 0.52127 0.98648 0.0
C841 C 0.02358 0.48193 0.00327 0.0
C842 C 0.92079 0.54745 0.98636 0.0
C843 C 0.89939 0.55944 0.00208 0.0
C844 C 0.97966 0.50722 0.00243 0.0
C845 C 0.9181 0.54262 0.01766 0.0
C846 C 0.0449 0.47333 0.01932 0.0
C847 C 0.08297 0.4415 0.98858 0.0
N848 N 0.95732 0.51776 0.01744 0.0
N849 N 0.04361 0.46632 0.98841 0.0
H850 H 0.43539 0.41357 0.28511 0.0
H851 H 0.57177 0.5938 0.22646 0.0
H852 H 0.43769 0.40924 0.22892 0.0
H853 H 0.56364 0.60052 0.28254 0.0
H854 H 0.52275 0.52623 0.22697 0.0
H855 H 0.48511 0.48037 0.28433 0.0
C856 C 0.44679 0.42625 0.2726 0.0
C857 C 0.43208 0.40579 0.25705 0.0
C858 C 0.5315 0.54267 0.23915 0.0
C859 C 0.48856 0.48288 0.25607 0.0
C860 C 0.55925 0.58148 0.23887 0.0
C861 C 0.57203 0.60289 0.25449 0.0
C862 C 0.51651 0.52506 0.25516 0.0
C863 C 0.55481 0.5852 0.27016 0.0
C864 C 0.47495 0.46467 0.27217 0.0
C865 C 0.44804 0.42388 0.24124 0.0
N866 N 0.52818 0.54721 0.2701 0.0
N867 N 0.47519 0.46157 0.24116 0.0
H868 H 0.60012 0.92737 0.4812 0.0
H869 H 0.40675 0.05325 0.53707 0.0
H870 H 0.58573 0.90853 0.53669 0.0
H871 H 0.41136 0.05143 0.48088 0.0
H872 H 0.47332 0.00235 0.53771 0.0
H873 H 0.5339 0.9778 0.48148 0.0
C874 C 0.58339 0.9342 0.4935 0.0
C875 C 0.59849 0.91341 0.50894 0.0
C876 C 0.45947 0.0129 0.52526 0.0
C877 C 0.52196 0.97088 0.50929 0.0
C878 C 0.42129 0.04172 0.52488 0.0
C879 C 0.40347 0.05688 0.5089 0.0
C880 C 0.48005 -0.00057 0.50957 0.0
C881 C 0.42391 0.0409 0.49352 0.0
C882 C 0.54528 0.9628 0.49362 0.0
C883 C 0.5753 0.92373 0.52447 0.0
N884 N 0.46122 0.01338 0.49426 0.0
N885 N 0.53803 0.9516 0.52424 0.0
H886 H 0.05357 0.09555 0.78464 0.0
H887 H 0.94831 0.89064 0.72869 0.0
H888 H 0.06666 0.08362 0.72883 0.0
H889 H 0.92175 0.90856 0.78356 0.0
H890 H 0.99577 0.95894 0.72909 0.0
H891 H 0.00635 0.02671 0.78481 0.0
C892 C 0.04605 0.07887 0.77239 0.0
C893 C 0.06433 0.0954 0.7567 0.0
C894 C 0.97979 0.94785 0.74107 0.0
C895 C 0.01095 0.01607 0.75688 0.0
C896 C 0.9529 0.90857 0.7409 0.0
C897 C 0.93072 0.89388 0.75611 0.0
C898 C 0.98466 0.97278 0.75656 0.0
C899 C 0.93815 0.91857 0.77152 0.0
C900 C 0.01931 0.03937 0.77253 0.0
C901 C 0.05341 0.07223 0.74125 0.0
N902 N 0.96427 0.95701 0.77133 0.0
N903 N 0.02773 0.03359 0.74176 0.0
H904 H 0.90592 0.43244 0.4796 0.0
H905 H 0.09401 0.56502 0.53598 0.0
H906 H 0.91369 0.42288 0.53564 0.0
H907 H 0.09458 0.55645 0.47985 0.0
H908 H 0.02692 0.51488 0.53654 0.0
H909 H 0.97216 0.48285 0.47988 0.0
C910 C 0.92116 0.44135 0.492 0.0
C911 C 0.90429 0.42311 0.50761 0.0
C912 C 0.04202 0.5238 0.52413 0.0
C913 C 0.98077 0.48043 0.508 0.0
C914 C 0.08051 0.55213 0.52381 0.0
C915 C 0.09989 0.56517 0.50785 0.0
C916 C 0.02278 0.50867 0.50839 0.0
C917 C 0.08074 0.54759 0.49248 0.0
C918 C 0.95928 0.4699 0.49214 0.0
C919 C 0.92558 0.436 0.52327 0.0
N920 N 0.04314 0.52056 0.49314 0.0
N921 N 0.96289 0.46369 0.52306 0.0
H922 H 0.54162 0.38689 0.72915 0.0
H923 H 0.44292 0.59612 0.78449 0.0
H924 H 0.57346 0.40786 0.78347 0.0
H925 H 0.42445 0.58061 0.72902 0.0
H926 H 0.4895 0.52678 0.78474 0.0
H927 H 0.49431 0.45533 0.72958 0.0
C928 C 0.53819 0.40553 0.74126 0.0
C929 C 0.56185 0.39167 0.75628 0.0
C930 C 0.4755 0.53875 0.77251 0.0
C931 C 0.5081 0.47077 0.75676 0.0
C932 C 0.44912 0.57853 0.77232 0.0
C933 C 0.42952 0.59422 0.75671 0.0
C934 C 0.48217 0.51432 0.757 0.0
C935 C 0.43878 0.5699 0.74136 0.0
C936 C 0.51139 0.44488 0.74145 0.0
C937 C 0.55585 0.4172 0.77159 0.0
N938 N 0.46414 0.53102 0.74193 0.0
N939 N 0.52981 0.45576 0.7714 0.0
H940 H 0.60177 0.06234 0.03165 0.0
H941 H 0.40542 0.94591 0.97435 0.0
H942 H 0.59479 0.07545 0.97571 0.0
H943 H 0.40423 0.95221 0.03052 0.0
H944 H 0.47515 0.99208 0.97422 0.0
H945 H 0.5317 0.01748 0.03105 0.0
C946 C 0.58589 0.05533 0.01919 0.0
C947 C 0.60423 0.07296 0.00371 0.0
C948 C 0.45935 0.98364 0.98655 0.0
C949 C 0.52328 0.02201 0.00298 0.0
C950 C 0.41933 0.95755 0.98664 0.0
C951 C 0.39896 0.94486 0.00248 0.0
C952 C 0.47926 0.9969 0.0024 0.0
C953 C 0.41869 0.96092 0.01799 0.0
C954 C 0.54556 0.02999 0.01889 0.0
C955 C 0.58192 0.06264 0.98798 0.0
N956 N 0.4579 0.98571 0.01755 0.0
N957 N 0.54248 0.03801 0.98803 0.0
H958 H 0.06832 0.91367 0.28452 0.0
H959 H 0.92804 0.0967 0.22822 0.0
H960 H 0.05905 0.91106 0.22841 0.0
H961 H 0.93477 0.09861 0.28438 0.0
H962 H 0.97765 0.02961 0.22808 0.0
H963 H 0.01835 0.98067 0.28484 0.0
C964 C 0.05531 0.92674 0.27228 0.0
C965 C 0.06811 0.90675 0.25641 0.0
C966 C 0.96846 0.04485 0.24043 0.0
C967 C 0.01154 0.98389 0.25668 0.0
C968 C 0.94037 0.0834 0.24052 0.0
C969 C 0.92701 0.1033 0.25634 0.0
C970 C 0.98331 0.02596 0.25628 0.0
C971 C 0.94406 0.08442 0.27186 0.0
C972 C 0.02706 0.96523 0.27247 0.0
C973 C 0.05029 0.92536 0.24097 0.0
N974 N 0.97111 0.04667 0.27144 0.0
N975 N 0.02317 0.96301 0.24149 0.0
H976 H 0.60568 0.29414 0.97858 0.0
H977 H 0.37758 0.2896 0.03038 0.0
H978 H 0.60165 0.27522 0.0343 0.0
H979 H 0.38828 0.37268 0.98417 0.0
H980 H 0.46062 0.28451 0.03159 0.0
H981 H 0.52852 0.32649 0.97973 0.0
C982 C 0.58922 0.29783 0.99111 0.0
C983 C 0.60981 0.28052 0.0063 0.0
C984 C 0.44494 0.30443 0.0213 0.0
C985 C 0.52134 0.31675 0.0076 0.0
C986 C 0.39746 0.30744 0.02062 0.0
C987 C 0.37595 0.33185 0.00722 0.0
C988 C 0.47135 0.3249 0.0082 0.0
C989 C 0.40353 0.35303 0.99461 0.0
C990 C 0.54507 0.31624 0.99173 0.0
C991 C 0.58693 0.28704 0.02218 0.0
N992 N 0.44991 0.34857 0.99526 0.0
N993 N 0.54351 0.30351 0.02235 0.0
H994 H 0.62653 0.88175 0.23107 0.0
H995 H 0.71697 0.09763 0.28414 0.0
H996 H 0.71249 0.87564 0.27669 0.0
H997 H 0.70779 0.10028 0.22804 0.0
H998 H 0.68483 0.02079 0.284 0.0
H999 H 0.63116 0.96588 0.23199 0.0
C1000 C 0.64614 0.89804 0.24129 0.0
C1001 C 0.66923 0.87171 0.25382 0.0
C1002 C 0.68894 0.03872 0.27176 0.0
C1003 C 0.67277 0.96708 0.25537 0.0
C1004 C 0.70703 0.08274 0.2718 0.0
C1005 C 0.7166 0.10499 0.25602 0.0
C1006 C 0.67988 0.01699 0.25587 0.0
C1007 C 0.70208 0.08403 0.24049 0.0
C1008 C 0.64832 0.94583 0.24189 0.0
C1009 C 0.69344 0.89449 0.26697 0.0
N1010 N 0.68523 0.04069 0.24076 0.0
N1011 N 0.69445 0.94079 0.26743 0.0
H1012 H 0.91182 0.22031 0.47279 0.0
H1013 H 0.12564 0.10855 0.52129 0.0
H1014 H 0.91235 0.19639 0.52827 0.0
H1015 H 0.13546 0.20305 0.47835 0.0
H1016 H 0.0418 0.11572 0.52024 0.0
H1017 H 0.9875 0.18561 0.47089 0.0
C1018 C 0.92712 0.20661 0.48452 0.0
C1019 C 0.90606 0.21242 0.50081 0.0
C1020 C 0.06249 0.13421 0.51091 0.0
C1021 C 0.99273 0.17265 0.4986 0.0
C1022 C 0.11015 0.1305 0.51158 0.0
C1023 C 0.13748 0.15598 0.50011 0.0
C1024 C 0.04223 0.16255 0.49836 0.0
C1025 C 0.11574 0.18272 0.48741 0.0
C1026 C 0.97049 0.18706 0.4834 0.0
C1027 C 0.92762 0.19342 0.51549 0.0
N1028 N 0.0694 0.18545 0.48692 0.0
N1029 N 0.97023 0.17499 0.51409 0.0
H1030 H 0.76644 0.40126 0.72227 0.0
H1031 H 0.86986 0.6135 0.77428 0.0
H1032 H 0.78419 0.39792 0.77808 0.0
H1033 H 0.78373 0.62405 0.72884 0.0
H1034 H 0.86136 0.52976 0.77329 0.0
H1035 H 0.79985 0.47758 0.72175 0.0
C1036 C 0.77844 0.41594 0.73438 0.0
C1037 C 0.77129 0.39351 0.75032 0.0
C1038 C 0.84492 0.5506 0.76345 0.0
C1039 C 0.80943 0.481 0.74972 0.0
C1040 C 0.84935 0.59821 0.76408 0.0
C1041 C 0.82711 0.62569 0.7517 0.0
C1042 C 0.81901 0.53058 0.7501 0.0
C1043 C 0.80186 0.60419 0.73852 0.0
C1044 C 0.79724 0.45967 0.73406 0.0
C1045 C 0.78828 0.41421 0.76553 0.0
N1046 N 0.79852 0.55796 0.73806 0.0
N1047 N 0.8059 0.45723 0.76491 0.0
H1048 H 0.62673 0.36903 0.48839 0.0
H1049 H 0.41077 0.26348 0.53697 0.0
H1050 H 0.63502 0.2726 0.53079 0.0
H1051 H 0.41256 0.27945 0.48107 0.0
H1052 H 0.48717 0.29673 0.53837 0.0
H1053 H 0.54284 0.36208 0.48897 0.0
C1054 C 0.61096 0.34671 0.49789 0.0
C1055 C 0.6379 0.321 0.50946 0.0
C1056 C 0.47025 0.29391 0.52586 0.0
C1057 C 0.54257 0.31475 0.51068 0.0
C1058 C 0.4265 0.2752 0.52501 0.0
C1059 C 0.4056 0.26749 0.5088 0.0
C1060 C 0.49295 0.3057 0.51046 0.0
C1061 C 0.42771 0.28395 0.49381 0.0
C1062 C 0.56326 0.34316 0.49829 0.0
C1063 C 0.61568 0.29352 0.52178 0.0
N1064 N 0.47064 0.30169 0.49496 0.0
N1065 N 0.56933 0.29112 0.52207 0.0
H1066 H 0.6238 0.11376 0.77264 0.0
H1067 H 0.72601 0.89916 0.72163 0.0
H1068 H 0.70274 0.12168 0.72533 0.0
H1069 H 0.70689 0.89947 0.77737 0.0
H1070 H 0.69092 0.97469 0.72015 0.0
H1071 H 0.6313 0.03007 0.77194 0.0
C1072 C 0.64241 0.0979 0.76206 0.0
C1073 C 0.66314 0.12469 0.74912 0.0
C1074 C 0.6936 0.95775 0.73265 0.0
C1075 C 0.6703 0.02946 0.74793 0.0
C1076 C 0.71337 0.91446 0.73353 0.0
C1077 C 0.72063 0.89337 0.74973 0.0
C1078 C 0.68065 0.97999 0.74804 0.0
C1079 C 0.7028 0.91477 0.76463 0.0
C1080 C 0.64629 0.05028 0.76161 0.0
C1081 C 0.68585 0.10241 0.73547 0.0
N1082 N 0.68433 0.95737 0.76348 0.0
N1083 N 0.68895 0.05613 0.73527 0.0
H1084 H 0.10145 0.22643 0.03542 0.0
H1085 H 0.88777 0.1298 0.98218 0.0
H1086 H 0.10499 0.21009 0.97959 0.0
H1087 H 0.87894 0.21043 0.02906 0.0
H1088 H 0.97168 0.13666 0.9833 0.0
H1089 H 0.02496 0.19341 0.03574 0.0
C1090 C 0.08682 0.21483 0.02326 0.0
C1091 C 0.10931 0.22247 0.00737 0.0
C1092 C 0.95116 0.15217 0.99344 0.0
C1093 C 0.0215 0.18484 0.00772 0.0
C1094 C 0.90343 0.14866 0.99274 0.0
C1095 C 0.87634 0.16959 0.00555 0.0
C1096 C 0.97172 0.17601 0.00723 0.0
C1097 C 0.89839 0.19298 0.0191 0.0
C1098 C 0.04293 0.19626 0.02346 0.0
C1099 C 0.08861 0.20587 0.99209 0.0
N1100 N 0.94471 0.19551 0.01959 0.0
N1101 N 0.04542 0.18858 0.99259 0.0
H1102 H 0.78787 0.37521 0.28156 0.0
H1103 H 0.79268 0.59893 0.22841 0.0
H1104 H 0.8713 0.3823 0.23535 0.0
H1105 H 0.77927 0.59913 0.28439 0.0
H1106 H 0.82563 0.52212 0.23003 0.0
H1107 H 0.78559 0.45823 0.28252 0.0
C1108 C 0.80645 0.39422 0.27177 0.0
C1109 C 0.82989 0.37172 0.25837 0.0
C1110 C 0.81658 0.53958 0.24197 0.0
C1111 C 0.82607 0.46714 0.25906 0.0
C1112 C 0.79786 0.58351 0.24108 0.0
C1113 C 0.78188 0.60509 0.25626 0.0
C1114 C 0.81861 0.51709 0.25808 0.0
C1115 C 0.79006 0.58355 0.2723 0.0
C1116 C 0.80503 0.44173 0.2723 0.0
C1117 C 0.85212 0.39833 0.24573 0.0
N1118 N 0.80669 0.54025 0.27275 0.0
N1119 N 0.84906 0.44476 0.2462 0.0
H1120 H 0.09379 0.78969 0.48039 0.0
H1121 H 0.86896 0.76594 0.52992 0.0
H1122 H 0.0939 0.76873 0.53604 0.0
H1123 H 0.87653 0.86985 0.49016 0.0
H1124 H 0.95221 0.76526 0.53161 0.0
H1125 H 0.01631 0.82122 0.48253 0.0
C1126 C 0.0782 0.79299 0.49311 0.0
C1127 C 0.1 0.77541 0.508 0.0
C1128 C 0.93565 0.78872 0.52268 0.0
C1129 C 0.01133 0.81027 0.51038 0.0
C1130 C 0.88811 0.78917 0.52172 0.0
C1131 C 0.86576 0.81791 0.50985 0.0
C1132 C 0.96121 0.81615 0.51131 0.0
C1133 C 0.8925 0.84645 0.49923 0.0
C1134 C 0.03396 0.81092 0.4943 0.0
C1135 C 0.07823 0.78103 0.52415 0.0
N1136 N 0.939 0.84424 0.49996 0.0
N1137 N 0.03454 0.79668 0.52485 0.0
H1138 H 0.12453 0.37558 0.73297 0.0
H1139 H 0.2243 0.58943 0.78499 0.0
H1140 H 0.20968 0.36709 0.77876 0.0
H1141 H 0.20818 0.59224 0.72911 0.0
H1142 H 0.19108 0.51309 0.78545 0.0
H1143 H 0.13215 0.45942 0.7337 0.0
C1144 C 0.14457 0.39129 0.74321 0.0
C1145 C 0.16652 0.36433 0.75584 0.0
C1146 C 0.19404 0.53087 0.77314 0.0
C1147 C 0.1737 0.45958 0.75711 0.0
C1148 C 0.21272 0.57464 0.77284 0.0
C1149 C 0.2205 0.59685 0.7569 0.0
C1150 C 0.1826 0.50927 0.75744 0.0
C1151 C 0.20393 0.576 0.74165 0.0
C1152 C 0.1485 0.43897 0.74369 0.0
C1153 C 0.19141 0.38645 0.76897 0.0
N1154 N 0.18648 0.53291 0.74224 0.0
N1155 N 0.19423 0.4327 0.76928 0.0
H1156 H 0.63254 0.71363 0.02706 0.0
H1157 H 0.40358 0.72501 0.97571 0.0
H1158 H 0.616 0.63129 0.98092 0.0
H1159 H 0.40888 0.73842 0.03166 0.0
H1160 H 0.47949 0.68943 0.97637 0.0
H1161 H 0.55004 0.72455 0.0282 0.0
C1162 C 0.61146 0.69717 0.01731 0.0
C1163 C 0.63118 0.67117 0.00396 0.0
C1164 C 0.46343 0.69923 0.9885 0.0
C1165 C 0.53654 0.68491 0.00485 0.0
C1166 C 0.42004 0.71944 0.98817 0.0
C1167 C 0.40014 0.73575 0.00363 0.0
C1168 C 0.48715 0.69605 0.00435 0.0
C1169 C 0.42306 0.72721 0.01938 0.0
C1170 C 0.56431 0.70355 0.01794 0.0
C1171 C 0.60217 0.652 0.99134 0.0
N1172 N 0.46576 0.70897 0.01928 0.0
N1173 N 0.55623 0.65975 0.99194 0.0
H1174 H 0.28247 0.13628 0.28093 0.0
H1175 H 0.28713 0.91459 0.22804 0.0
H1176 H 0.3768 0.1282 0.23788 0.0
H1177 H 0.27853 0.91076 0.28415 0.0
H1178 H 0.32072 0.99117 0.23001 0.0
H1179 H 0.2783 0.05307 0.28147 0.0
C1180 C 0.30293 0.11699 0.27176 0.0
C1181 C 0.33001 0.13922 0.25934 0.0
C1182 C 0.31256 0.97288 0.24186 0.0
C1183 C 0.32408 0.04395 0.25949 0.0
C1184 C 0.29347 0.92915 0.24078 0.0
C1185 C 0.27884 0.90657 0.25594 0.0
C1186 C 0.31609 0.99423 0.25816 0.0
C1187 C 0.28836 0.92708 0.27208 0.0
C1188 C 0.30044 0.06948 0.27206 0.0
C1189 C 0.35481 0.11237 0.24746 0.0
N1190 N 0.30514 0.97027 0.27274 0.0
N1191 N 0.3506 0.06602 0.2476 0.0
H1192 H 0.90419 0.7816 0.9764 0.0
H1193 H 0.13227 0.78967 0.02841 0.0
H1194 H 0.90838 0.76348 0.03217 0.0
H1195 H 0.11563 0.8756 0.9832 0.0
H1196 H 0.04973 0.77859 0.02938 0.0
H1197 H 0.97987 0.81742 0.97773 0.0
C1198 C 0.92036 0.78615 0.98897 0.0
C1199 C 0.90018 0.76851 0.00416 0.0
C1200 C 0.06401 0.8004 0.01937 0.0
C1201 C 0.98697 0.80847 0.00564 0.0
C1202 C 0.11117 0.80688 0.01885 0.0
C1203 C 0.13087 0.83379 0.00576 0.0
C1204 C 0.03625 0.81992 0.00643 0.0
C1205 C 0.10183 0.85408 0.99338 0.0
C1206 C 0.96361 0.80651 0.98969 0.0
C1207 C 0.92275 0.77576 0.02007 0.0
N1208 N 0.05592 0.8462 0.99385 0.0
N1209 N 0.96535 0.79417 0.02034 0.0
H1210 H 0.12237 0.63051 0.27289 0.0
H1211 H 0.22229 0.40958 0.22577 0.0
H1212 H 0.21025 0.63425 0.22783 0.0
H1213 H 0.21264 0.41821 0.28179 0.0
H1214 H 0.18824 0.48545 0.22354 0.0
H1215 H 0.1293 0.54676 0.27335 0.0
C1216 C 0.14276 0.61373 0.26301 0.0
C1217 C 0.16635 0.63941 0.25044 0.0
C1218 C 0.19267 0.47018 0.23628 0.0
C1219 C 0.17258 0.5441 0.25049 0.0
C1220 C 0.2119 0.42675 0.23762 0.0
C1221 C 0.22159 0.40788 0.25405 0.0
C1222 C 0.18235 0.49466 0.25143 0.0
C1223 C 0.20657 0.4317 0.26887 0.0
C1224 C 0.14632 0.5661 0.26323 0.0
C1225 C 0.19117 0.6159 0.23766 0.0
N1226 N 0.1883 0.47431 0.26723 0.0
N1227 N 0.19375 0.56957 0.23804 0.0
H1228 H 0.59335 0.68531 0.52589 0.0
H1229 H 0.3678 0.70531 0.47424 0.0
H1230 H 0.59246 0.71527 0.47084 0.0
H1231 H 0.37717 0.61206 0.51759 0.0
H1232 H 0.45107 0.70619 0.47233 0.0
H1233 H 0.51673 0.65268 0.52305 0.0
C1234 C 0.57769 0.68387 0.51312 0.0
C1235 C 0.59891 0.7043 0.49868 0.0
C1236 C 0.43496 0.68488 0.48209 0.0
C1237 C 0.51102 0.668 0.49548 0.0
C1238 C 0.38739 0.68434 0.48316 0.0
C1239 C 0.36562 0.6589 0.49619 0.0
C1240 C 0.46101 0.66074 0.49441 0.0
C1241 C 0.39276 0.63299 0.50761 0.0
C1242 C 0.53387 0.66531 0.51153 0.0
C1243 C 0.5771 0.70087 0.48242 0.0
N1244 N 0.43917 0.63524 0.50669 0.0
N1245 N 0.53382 0.68433 0.48136 0.0
H1246 H 0.27326 0.09077 0.78458 0.0
H1247 H 0.36815 0.87467 0.73255 0.0
H1248 H 0.28259 0.09022 0.72847 0.0
H1249 H 0.28889 0.86798 0.77983 0.0
H1250 H 0.36036 0.95844 0.73292 0.0
H1251 H 0.30705 0.01459 0.78517 0.0
C1252 C 0.2835 0.0753 0.77239 0.0
C1253 C 0.27379 0.09655 0.75641 0.0
C1254 C 0.34538 0.93841 0.74331 0.0
C1255 C 0.31236 0.00919 0.75708 0.0
C1256 C 0.34939 0.89073 0.74304 0.0
C1257 C 0.32904 0.86423 0.75617 0.0
C1258 C 0.32175 0.95955 0.75701 0.0
C1259 C 0.30595 0.88689 0.76964 0.0
C1260 C 0.30253 0.03163 0.77276 0.0
C1261 C 0.28861 0.07482 0.74108 0.0
N1262 N 0.30297 0.93316 0.76971 0.0
N1263 N 0.30646 0.03187 0.74176 0.0
loop_
_geom_bond_atom_site_label_1
_geom_bond_atom_site_label_2
_geom_bond_distance
_geom_bond_site_symmetry_2
_ccdc_geom_bond_type
Co0 O3 1.970 . S
Co0 N17 1.989 . S
Co0 O25 1.967 . S
Co0 O32 1.920 . S
Co1 O4 1.966 . S
Co1 N10 2.022 . S
Co1 N18 1.993 . S
Co1 O26 1.941 . S
C2 O3 1.258 . S
C2 O4 1.263 1_554 S
O3 Co0 1.970 . S
O3 C2 1.258 . S
O4 Co1 1.966 . S
O4 C2 1.263 1_556 S
C5 O6 1.235 . S
C5 O32 1.289 . S
O6 C5 1.235 . S
C7 C9 1.400 . S
C7 N10 1.351 . S
C7 C12 1.501 . S
C8 C9 1.387 . S
C8 N11 1.341 . S
C9 C7 1.400 . S
C9 C8 1.387 . S
N10 Co1 2.022 . S
N10 C7 1.351 . S
N10 N11 1.365 . S
N11 C8 1.341 . S
N11 N10 1.365 . S
N11 H31 0.862 . S
C12 C7 1.501 . S
C12 H13 0.961 . S
C12 H14 0.961 . S
C12 H15 0.960 . S
H13 C12 0.961 . S
H14 C12 0.961 . S
H15 C12 0.960 . S
C16 N17 1.342 . S
C16 C20 1.401 . S
C16 C21 1.499 . S
N17 Co0 1.989 . S
N17 C16 1.342 . S
N17 N18 1.388 1_554 S
N18 Co1 1.993 . S
N18 N17 1.388 1_556 S
N18 C19 1.346 . S
C19 N18 1.346 . S
C19 C20 1.396 1_556 S
C19 C29 1.510 . S
C20 C16 1.401 . S
C20 C19 1.396 1_554 S
C21 C16 1.499 . S
C21 H22 0.959 . S
C21 H23 0.960 . S
C21 H24 0.961 . S
H22 C21 0.959 . S
H23 C21 0.960 . S
H24 C21 0.961 . S
O25 Co0 1.967 . S
O25 C33 1.258 . S
O26 Co1 1.941 . S
O26 C33 1.266 1_556 S
H27 C29 0.959 . S
H28 C29 0.961 . S
C29 C19 1.510 . S
C29 H27 0.959 . S
C29 H28 0.961 . S
C29 H30 0.960 . S
H30 C29 0.960 . S
H31 N11 0.862 . S
O32 Co0 1.920 . S
O32 C5 1.289 . S
C33 O25 1.258 . S
C33 O26 1.266 1_554 S
Co34 O37 1.970 . S
Co34 N51 1.989 . S
Co34 O59 1.967 . S
Co34 O66 1.920 . S
Co35 O38 1.966 . S
Co35 N44 2.022 . S
Co35 N52 1.993 . S
Co35 O60 1.941 . S
C36 O37 1.258 . S
C36 O38 1.263 . S
O37 Co34 1.970 . S
O37 C36 1.258 . S
O38 Co35 1.966 . S
O38 C36 1.263 . S
C39 O40 1.235 . S
C39 O66 1.289 . S
O40 C39 1.235 . S
C41 C43 1.400 . S
C41 N44 1.351 . S
C41 C46 1.501 . S
C42 C43 1.387 . S
C42 N45 1.341 . S
C43 C41 1.400 . S
C43 C42 1.387 . S
N44 Co35 2.022 . S
N44 C41 1.351 . S
N44 N45 1.365 . S
N45 C42 1.341 . S
N45 N44 1.365 . S
N45 H65 0.862 . S
C46 C41 1.501 . S
C46 H47 0.961 . S
C46 H48 0.961 . S
C46 H49 0.960 . S
H47 C46 0.961 . S
H48 C46 0.961 . S
H49 C46 0.960 . S
C50 N51 1.342 . S
C50 C54 1.401 . S
C50 C55 1.499 . S
N51 Co34 1.989 . S
N51 C50 1.342 . S
N51 N52 1.388 . S
N52 Co35 1.993 . S
N52 N51 1.388 . S
N52 C53 1.346 . S
C53 N52 1.346 . S
C53 C54 1.396 . S
C53 C63 1.510 . S
C54 C50 1.401 . S
C54 C53 1.396 . S
C55 C50 1.499 . S
C55 H56 0.959 . S
C55 H57 0.960 . S
C55 H58 0.961 . S
H56 C55 0.959 . S
H57 C55 0.960 . S
H58 C55 0.961 . S
O59 Co34 1.967 . S
O59 C67 1.258 . S
O60 Co35 1.941 . S
O60 C67 1.266 . S
H61 C63 0.959 . S
H62 C63 0.961 . S
C63 C53 1.510 . S
C63 H61 0.959 . S
C63 H62 0.961 . S
C63 H64 0.960 . S
H64 C63 0.960 . S
H65 N45 0.862 . S
O66 Co34 1.920 . S
O66 C39 1.289 . S
C67 O59 1.258 . S
C67 O60 1.266 . S
Co68 O71 1.970 . S
Co68 N85 1.989 . S
Co68 O93 1.967 . S
Co68 O100 1.920 . S
Co69 O72 1.966 . S
Co69 N78 2.022 . S
Co69 N86 1.993 . S
Co69 O94 1.941 . S
C70 O71 1.258 . S
C70 O72 1.263 . S
O71 Co68 1.970 . S
O71 C70 1.258 . S
O72 Co69 1.966 . S
O72 C70 1.263 . S
C73 O74 1.235 . S
C73 O100 1.289 . S
O74 C73 1.235 . S
C75 C77 1.400 . S
C75 N78 1.351 . S
C75 C80 1.501 . S
C76 C77 1.387 . S
C76 N79 1.341 . S
C77 C75 1.400 . S
C77 C76 1.387 . S
N78 Co69 2.022 . S
N78 C75 1.351 . S
N78 N79 1.365 . S
N79 C76 1.341 . S
N79 N78 1.365 . S
N79 H99 0.862 . S
C80 C75 1.501 . S
C80 H81 0.961 . S
C80 H82 0.961 . S
C80 H83 0.960 . S
H81 C80 0.961 . S
H82 C80 0.961 . S
H83 C80 0.960 . S
C84 N85 1.342 . S
C84 C88 1.401 . S
C84 C89 1.499 . S
N85 Co68 1.989 . S
N85 C84 1.342 . S
N85 N86 1.388 . S
N86 Co69 1.993 . S
N86 N85 1.388 . S
N86 C87 1.346 . S
C87 N86 1.346 . S
C87 C88 1.396 . S
C87 C97 1.510 . S
C88 C84 1.401 . S
C88 C87 1.396 . S
C89 C84 1.499 . S
C89 H90 0.959 . S
C89 H91 0.960 . S
C89 H92 0.961 . S
H90 C89 0.959 . S
H91 C89 0.960 . S
H92 C89 0.961 . S
O93 Co68 1.967 . S
O93 C101 1.258 . S
O94 Co69 1.941 . S
O94 C101 1.266 . S
H95 C97 0.959 . S
H96 C97 0.961 . S
C97 C87 1.510 . S
C97 H95 0.959 . S
C97 H96 0.961 . S
C97 H98 0.960 . S
H98 C97 0.960 . S
H99 N79 0.862 . S
O100 Co68 1.920 . S
O100 C73 1.289 . S
C101 O93 1.258 . S
C101 O94 1.266 . S
Co102 O105 1.970 . S
Co102 N119 1.989 . S
Co102 O127 1.967 . S
Co102 O134 1.920 . S
Co103 O106 1.966 . S
Co103 N112 2.022 . S
Co103 N120 1.993 . S
Co103 O128 1.941 . S
C104 O105 1.258 . S
C104 O106 1.263 . S
O105 Co102 1.970 . S
O105 C104 1.258 . S
O106 Co103 1.966 . S
O106 C104 1.263 . S
C107 O108 1.235 . S
C107 O134 1.289 . S
O108 C107 1.235 . S
C109 C111 1.400 . S
C109 N112 1.351 . S
C109 C114 1.501 . S
C110 C111 1.387 . S
C110 N113 1.341 . S
C111 C109 1.400 . S
C111 C110 1.387 . S
N112 Co103 2.022 . S
N112 C109 1.351 . S
N112 N113 1.365 . S
N113 C110 1.341 . S
N113 N112 1.365 . S
N113 H133 0.862 . S
C114 C109 1.501 . S
C114 H115 0.961 . S
C114 H116 0.961 . S
C114 H117 0.960 . S
H115 C114 0.961 . S
H116 C114 0.961 . S
H117 C114 0.960 . S
C118 N119 1.342 . S
C118 C122 1.401 . S
C118 C123 1.499 . S
N119 Co102 1.989 . S
N119 C118 1.342 . S
N119 N120 1.388 . S
N120 Co103 1.993 . S
N120 N119 1.388 . S
N120 C121 1.346 . S
C121 N120 1.346 . S
C121 C122 1.396 . S
C121 C131 1.510 . S
C122 C118 1.401 . S
C122 C121 1.396 . S
C123 C118 1.499 . S
C123 H124 0.959 . S
C123 H125 0.960 . S
C123 H126 0.961 . S
H124 C123 0.959 . S
H125 C123 0.960 . S
H126 C123 0.961 . S
O127 Co102 1.967 . S
O127 C135 1.258 . S
O128 Co103 1.941 . S
O128 C135 1.266 . S
H129 C131 0.959 . S
H130 C131 0.961 . S
C131 C121 1.510 . S
C131 H129 0.959 . S
C131 H130 0.961 . S
C131 H132 0.960 . S
H132 C131 0.960 . S
H133 N113 0.862 . S
O134 Co102 1.920 . S
O134 C107 1.289 . S
C135 O127 1.258 . S
C135 O128 1.266 . S
Co136 O139 1.970 . S
Co136 N153 1.989 . S
Co136 O161 1.967 . S
Co136 O168 1.920 . S
Co137 O140 1.966 . S
Co137 N146 2.022 . S
Co137 N154 1.993 . S
Co137 O162 1.941 . S
C138 O139 1.258 . S
C138 O140 1.263 . S
O139 Co136 1.970 . S
O139 C138 1.258 . S
O140 Co137 1.966 . S
O140 C138 1.263 . S
C141 O142 1.235 . S
C141 O168 1.289 . S
O142 C141 1.235 . S
C143 C145 1.400 . S
C143 N146 1.351 . S
C143 C148 1.501 . S
C144 C145 1.387 . S
C144 N147 1.341 . S
C145 C143 1.400 . S
C145 C144 1.387 . S
N146 Co137 2.022 . S
N146 C143 1.351 . S
N146 N147 1.365 . S
N147 C144 1.341 . S
N147 N146 1.365 . S
N147 H167 0.862 . S
C148 C143 1.501 . S
C148 H149 0.961 . S
C148 H150 0.961 . S
C148 H151 0.960 . S
H149 C148 0.961 . S
H150 C148 0.961 . S
H151 C148 0.960 . S
C152 N153 1.342 . S
C152 C156 1.401 . S
C152 C157 1.499 . S
N153 Co136 1.989 . S
N153 C152 1.342 . S
N153 N154 1.388 . S
N154 Co137 1.993 . S
N154 N153 1.388 . S
N154 C155 1.346 . S
C155 N154 1.346 . S
C155 C156 1.396 . S
C155 C165 1.510 . S
C156 C152 1.401 . S
C156 C155 1.396 . S
C157 C152 1.499 . S
C157 H158 0.959 . S
C157 H159 0.960 . S
C157 H160 0.961 . S
H158 C157 0.959 . S
H159 C157 0.960 . S
H160 C157 0.961 . S
O161 Co136 1.967 . S
O161 C169 1.258 . S
O162 Co137 1.941 . S
O162 C169 1.266 . S
H163 C165 0.959 . S
H164 C165 0.961 . S
C165 C155 1.510 . S
C165 H163 0.959 . S
C165 H164 0.961 . S
C165 H166 0.960 . S
H166 C165 0.960 . S
H167 N147 0.862 . S
O168 Co136 1.920 . S
O168 C141 1.289 . S
C169 O161 1.258 . S
C169 O162 1.266 . S
Co170 O173 1.970 . S
Co170 N187 1.989 . S
Co170 O195 1.967 . S
Co170 O202 1.920 . S
Co171 O174 1.966 . S
Co171 N180 2.022 . S
Co171 N188 1.993 . S
Co171 O196 1.941 . S
C172 O173 1.258 . S
C172 O174 1.263 . S
O173 Co170 1.970 . S
O173 C172 1.258 . S
O174 Co171 1.966 . S
O174 C172 1.263 . S
C175 O176 1.235 . S
C175 O202 1.289 . S
O176 C175 1.235 . S
C177 C179 1.400 . S
C177 N180 1.351 . S
C177 C182 1.501 . S
C178 C179 1.387 . S
C178 N181 1.341 . S
C179 C177 1.400 . S
C179 C178 1.387 . S
N180 Co171 2.022 . S
N180 C177 1.351 . S
N180 N181 1.365 . S
N181 C178 1.341 . S
N181 N180 1.365 . S
N181 H201 0.862 . S
C182 C177 1.501 . S
C182 H183 0.961 . S
C182 H184 0.961 . S
C182 H185 0.960 . S
H183 C182 0.961 . S
H184 C182 0.961 . S
H185 C182 0.960 . S
C186 N187 1.342 . S
C186 C190 1.401 . S
C186 C191 1.499 . S
N187 Co170 1.989 . S
N187 C186 1.342 . S
N187 N188 1.388 . S
N188 Co171 1.993 . S
N188 N187 1.388 . S
N188 C189 1.346 . S
C189 N188 1.346 . S
C189 C190 1.396 . S
C189 C199 1.510 . S
C190 C186 1.401 . S
C190 C189 1.396 . S
C191 C186 1.499 . S
C191 H192 0.959 . S
C191 H193 0.960 . S
C191 H194 0.961 . S
H192 C191 0.959 . S
H193 C191 0.960 . S
H194 C191 0.961 . S
O195 Co170 1.967 . S
O195 C203 1.258 . S
O196 Co171 1.941 . S
O196 C203 1.266 . S
H197 C199 0.959 . S
H198 C199 0.961 . S
C199 C189 1.510 . S
C199 H197 0.959 . S
C199 H198 0.961 . S
C199 H200 0.960 . S
H200 C199 0.960 . S
H201 N181 0.862 . S
O202 Co170 1.920 . S
O202 C175 1.289 . S
C203 O195 1.258 . S
C203 O196 1.266 . S
Co204 O207 1.970 . S
Co204 N221 1.989 . S
Co204 O229 1.967 . S
Co204 O236 1.920 . S
Co205 O208 1.966 . S
Co205 N214 2.022 . S
Co205 N222 1.993 . S
Co205 O230 1.941 . S
C206 O207 1.258 . S
C206 O208 1.263 1_554 S
O207 Co204 1.970 . S
O207 C206 1.258 . S
O208 Co205 1.966 . S
O208 C206 1.263 1_556 S
C209 O210 1.235 . S
C209 O236 1.289 . S
O210 C209 1.235 . S
C211 C213 1.400 . S
C211 N214 1.351 . S
C211 C216 1.501 . S
C212 C213 1.387 . S
C212 N215 1.341 . S
C213 C211 1.400 . S
C213 C212 1.387 . S
N214 Co205 2.022 . S
N214 C211 1.351 . S
N214 N215 1.365 . S
N215 C212 1.341 . S
N215 N214 1.365 . S
N215 H235 0.862 . S
C216 C211 1.501 . S
C216 H217 0.961 . S
C216 H218 0.961 . S
C216 H219 0.960 . S
H217 C216 0.961 . S
H218 C216 0.961 . S
H219 C216 0.960 . S
C220 N221 1.342 . S
C220 C224 1.401 . S
C220 C225 1.499 . S
N221 Co204 1.989 . S
N221 C220 1.342 . S
N221 N222 1.388 1_554 S
N222 Co205 1.993 . S
N222 N221 1.388 1_556 S
N222 C223 1.346 . S
C223 N222 1.346 . S
C223 C224 1.396 1_556 S
C223 C233 1.510 . S
C224 C220 1.401 . S
C224 C223 1.396 1_554 S
C225 C220 1.499 . S
C225 H226 0.959 . S
C225 H227 0.960 . S
C225 H228 0.961 . S
H226 C225 0.959 . S
H227 C225 0.960 . S
H228 C225 0.961 . S
O229 Co204 1.967 . S
O229 C237 1.258 . S
O230 Co205 1.941 . S
O230 C237 1.266 1_556 S
H231 C233 0.959 . S
H232 C233 0.961 . S
C233 C223 1.510 . S
C233 H231 0.959 . S
C233 H232 0.961 . S
C233 H234 0.960 . S
H234 C233 0.960 . S
H235 N215 0.862 . S
O236 Co204 1.920 . S
O236 C209 1.289 . S
C237 O229 1.258 . S
C237 O230 1.266 1_554 S
Co238 O241 1.970 . S
Co238 N255 1.989 . S
Co238 O263 1.967 . S
Co238 O270 1.920 . S
Co239 O242 1.966 . S
Co239 N248 2.022 . S
Co239 N256 1.993 . S
Co239 O264 1.941 . S
C240 O241 1.258 . S
C240 O242 1.263 . S
O241 Co238 1.970 . S
O241 C240 1.258 . S
O242 Co239 1.966 . S
O242 C240 1.263 . S
C243 O244 1.235 . S
C243 O270 1.289 . S
O244 C243 1.235 . S
C245 C247 1.400 . S
C245 N248 1.351 . S
C245 C250 1.501 . S
C246 C247 1.387 . S
C246 N249 1.341 . S
C247 C245 1.400 . S
C247 C246 1.387 . S
N248 Co239 2.022 . S
N248 C245 1.351 . S
N248 N249 1.365 . S
N249 C246 1.341 . S
N249 N248 1.365 . S
N249 H269 0.862 . S
C250 C245 1.501 . S
C250 H251 0.961 . S
C250 H252 0.961 . S
C250 H253 0.960 . S
H251 C250 0.961 . S
H252 C250 0.961 . S
H253 C250 0.960 . S
C254 N255 1.342 . S
C254 C258 1.401 . S
C254 C259 1.499 . S
N255 Co238 1.989 . S
N255 C254 1.342 . S
N255 N256 1.388 . S
N256 Co239 1.993 . S
N256 N255 1.388 . S
N256 C257 1.346 . S
C257 N256 1.346 . S
C257 C258 1.396 . S
C257 C267 1.510 . S
C258 C254 1.401 . S
C258 C257 1.396 . S
C259 C254 1.499 . S
C259 H260 0.959 . S
C259 H261 0.960 . S
C259 H262 0.961 . S
H260 C259 0.959 . S
H261 C259 0.960 . S
H262 C259 0.961 . S
O263 Co238 1.967 . S
O263 C271 1.258 . S
O264 Co239 1.941 . S
O264 C271 1.266 . S
H265 C267 0.959 . S
H266 C267 0.961 . S
C267 C257 1.510 . S
C267 H265 0.959 . S
C267 H266 0.961 . S
C267 H268 0.960 . S
H268 C267 0.960 . S
H269 N249 0.862 . S
O270 Co238 1.920 . S
O270 C243 1.289 . S
C271 O263 1.258 . S
C271 O264 1.266 . S
Co272 O275 1.970 . S
Co272 N289 1.989 . S
Co272 O297 1.967 . S
Co272 O304 1.920 . S
Co273 O276 1.966 . S
Co273 N282 2.022 . S
Co273 N290 1.993 . S
Co273 O298 1.941 . S
C274 O275 1.258 . S
C274 O276 1.263 . S
O275 Co272 1.970 . S
O275 C274 1.258 . S
O276 Co273 1.966 . S
O276 C274 1.263 . S
C277 O278 1.235 . S
C277 O304 1.289 . S
O278 C277 1.235 . S
C279 C281 1.400 . S
C279 N282 1.351 . S
C279 C284 1.501 . S
C280 C281 1.387 . S
C280 N283 1.341 . S
C281 C279 1.400 . S
C281 C280 1.387 . S
N282 Co273 2.022 . S
N282 C279 1.351 . S
N282 N283 1.365 . S
N283 C280 1.341 . S
N283 N282 1.365 . S
N283 H303 0.862 . S
C284 C279 1.501 . S
C284 H285 0.961 . S
C284 H286 0.961 . S
C284 H287 0.960 . S
H285 C284 0.961 . S
H286 C284 0.961 . S
H287 C284 0.960 . S
C288 N289 1.342 . S
C288 C292 1.401 . S
C288 C293 1.499 . S
N289 Co272 1.989 . S
N289 C288 1.342 . S
N289 N290 1.388 . S
N290 Co273 1.993 . S
N290 N289 1.388 . S
N290 C291 1.346 . S
C291 N290 1.346 . S
C291 C292 1.396 . S
C291 C301 1.510 . S
C292 C288 1.401 . S
C292 C291 1.396 . S
C293 C288 1.499 . S
C293 H294 0.959 . S
C293 H295 0.960 . S
C293 H296 0.961 . S
H294 C293 0.959 . S
H295 C293 0.960 . S
H296 C293 0.961 . S
O297 Co272 1.967 . S
O297 C305 1.258 . S
O298 Co273 1.941 . S
O298 C305 1.266 . S
H299 C301 0.959 . S
H300 C301 0.961 . S
C301 C291 1.510 . S
C301 H299 0.959 . S
C301 H300 0.961 . S
C301 H302 0.960 . S
H302 C301 0.960 . S
H303 N283 0.862 . S
O304 Co272 1.920 . S
O304 C277 1.289 . S
C305 O297 1.258 . S
C305 O298 1.266 . S
Co306 O309 1.970 . S
Co306 N323 1.989 . S
Co306 O331 1.967 . S
Co306 O338 1.920 . S
Co307 O310 1.966 . S
Co307 N316 2.022 . S
Co307 N324 1.993 . S
Co307 O332 1.941 . S
C308 O309 1.258 . S
C308 O310 1.263 . S
O309 Co306 1.970 . S
O309 C308 1.258 . S
O310 Co307 1.966 . S
O310 C308 1.263 . S
C311 O312 1.235 . S
C311 O338 1.289 . S
O312 C311 1.235 . S
C313 C315 1.400 . S
C313 N316 1.351 . S
C313 C318 1.501 . S
C314 C315 1.387 . S
C314 N317 1.341 . S
C315 C313 1.400 . S
C315 C314 1.387 . S
N316 Co307 2.022 . S
N316 C313 1.351 . S
N316 N317 1.365 . S
N317 C314 1.341 . S
N317 N316 1.365 . S
N317 H337 0.862 . S
C318 C313 1.501 . S
C318 H319 0.961 . S
C318 H320 0.961 . S
C318 H321 0.960 . S
H319 C318 0.961 . S
H320 C318 0.961 . S
H321 C318 0.960 . S
C322 N323 1.342 . S
C322 C326 1.401 . S
C322 C327 1.499 . S
N323 Co306 1.989 . S
N323 C322 1.342 . S
N323 N324 1.388 . S
N324 Co307 1.993 . S
N324 N323 1.388 . S
N324 C325 1.346 . S
C325 N324 1.346 . S
C325 C326 1.396 . S
C325 C335 1.510 . S
C326 C322 1.401 . S
C326 C325 1.396 . S
C327 C322 1.499 . S
C327 H328 0.959 . S
C327 H329 0.960 . S
C327 H330 0.961 . S
H328 C327 0.959 . S
H329 C327 0.960 . S
H330 C327 0.961 . S
O331 Co306 1.967 . S
O331 C339 1.258 . S
O332 Co307 1.941 . S
O332 C339 1.266 . S
H333 C335 0.959 . S
H334 C335 0.961 . S
C335 C325 1.510 . S
C335 H333 0.959 . S
C335 H334 0.961 . S
C335 H336 0.960 . S
H336 C335 0.960 . S
H337 N317 0.862 . S
O338 Co306 1.920 . S
O338 C311 1.289 . S
C339 O331 1.258 . S
C339 O332 1.266 . S
Co340 O343 1.970 . S
Co340 N357 1.989 . S
Co340 O365 1.967 . S
Co340 O372 1.920 . S
Co341 O344 1.966 . S
Co341 N350 2.022 . S
Co341 N358 1.993 . S
Co341 O366 1.941 . S
C342 O343 1.258 . S
C342 O344 1.263 1_554 S
O343 Co340 1.970 . S
O343 C342 1.258 . S
O344 Co341 1.966 . S
O344 C342 1.263 1_556 S
C345 O346 1.235 . S
C345 O372 1.289 . S
O346 C345 1.235 . S
C347 C349 1.400 . S
C347 N350 1.351 . S
C347 C352 1.501 . S
C348 C349 1.387 . S
C348 N351 1.341 . S
C349 C347 1.400 . S
C349 C348 1.387 . S
N350 Co341 2.022 . S
N350 C347 1.351 . S
N350 N351 1.365 . S
N351 C348 1.341 . S
N351 N350 1.365 . S
N351 H371 0.862 . S
C352 C347 1.501 . S
C352 H353 0.961 . S
C352 H354 0.961 . S
C352 H355 0.960 . S
H353 C352 0.961 . S
H354 C352 0.961 . S
H355 C352 0.960 . S
C356 N357 1.342 . S
C356 C360 1.401 . S
C356 C361 1.499 . S
N357 Co340 1.989 . S
N357 C356 1.342 . S
N357 N358 1.388 1_554 S
N358 Co341 1.993 . S
N358 N357 1.388 1_556 S
N358 C359 1.346 . S
C359 N358 1.346 . S
C359 C360 1.396 1_556 S
C359 C369 1.510 . S
C360 C356 1.401 . S
C360 C359 1.396 1_554 S
C361 C356 1.499 . S
C361 H362 0.959 . S
C361 H363 0.960 . S
C361 H364 0.961 . S
H362 C361 0.959 . S
H363 C361 0.960 . S
H364 C361 0.961 . S
O365 Co340 1.967 . S
O365 C373 1.258 . S
O366 Co341 1.941 . S
O366 C373 1.266 1_556 S
H367 C369 0.959 . S
H368 C369 0.961 . S
C369 C359 1.510 . S
C369 H367 0.959 . S
C369 H368 0.961 . S
C369 H370 0.960 . S
H370 C369 0.960 . S
H371 N351 0.862 . S
O372 Co340 1.920 . S
O372 C345 1.289 . S
C373 O365 1.258 . S
C373 O366 1.266 1_554 S
Co374 O377 1.970 . S
Co374 N391 1.989 . S
Co374 O399 1.967 . S
Co374 O406 1.920 . S
Co375 O378 1.966 . S
Co375 N384 2.022 . S
Co375 N392 1.993 . S
Co375 O400 1.941 . S
C376 O377 1.258 . S
C376 O378 1.263 . S
O377 Co374 1.970 . S
O377 C376 1.258 . S
O378 Co375 1.966 . S
O378 C376 1.263 . S
C379 O380 1.235 . S
C379 O406 1.289 . S
O380 C379 1.235 . S
C381 C383 1.400 . S
C381 N384 1.351 . S
C381 C386 1.501 . S
C382 C383 1.387 . S
C382 N385 1.341 . S
C383 C381 1.400 . S
C383 C382 1.387 . S
N384 Co375 2.022 . S
N384 C381 1.351 . S
N384 N385 1.365 . S
N385 C382 1.341 . S
N385 N384 1.365 . S
N385 H405 0.862 . S
C386 C381 1.501 . S
C386 H387 0.961 . S
C386 H388 0.961 . S
C386 H389 0.960 . S
H387 C386 0.961 . S
H388 C386 0.961 . S
H389 C386 0.960 . S
C390 N391 1.342 . S
C390 C394 1.401 . S
C390 C395 1.499 . S
N391 Co374 1.989 . S
N391 C390 1.342 . S
N391 N392 1.388 . S
N392 Co375 1.993 . S
N392 N391 1.388 . S
N392 C393 1.346 . S
C393 N392 1.346 . S
C393 C394 1.396 . S
C393 C403 1.510 . S
C394 C390 1.401 . S
C394 C393 1.396 . S
C395 C390 1.499 . S
C395 H396 0.959 . S
C395 H397 0.960 . S
C395 H398 0.961 . S
H396 C395 0.959 . S
H397 C395 0.960 . S
H398 C395 0.961 . S
O399 Co374 1.967 . S
O399 C407 1.258 . S
O400 Co375 1.941 . S
O400 C407 1.266 . S
H401 C403 0.959 . S
H402 C403 0.961 . S
C403 C393 1.510 . S
C403 H401 0.959 . S
C403 H402 0.961 . S
C403 H404 0.960 . S
H404 C403 0.960 . S
H405 N385 0.862 . S
O406 Co374 1.920 . S
O406 C379 1.289 . S
C407 O399 1.258 . S
C407 O400 1.266 . S
Co408 O411 1.970 . S
Co408 N425 1.989 . S
Co408 O433 1.967 . S
Co408 O440 1.920 . S
Co409 O412 1.966 . S
Co409 N418 2.022 . S
Co409 N426 1.993 . S
Co409 O434 1.941 . S
C410 O411 1.258 . S
C410 O412 1.263 1_554 S
O411 Co408 1.970 . S
O411 C410 1.258 . S
O412 Co409 1.966 . S
O412 C410 1.263 1_556 S
C413 O414 1.235 . S
C413 O440 1.289 . S
O414 C413 1.235 . S
C415 C417 1.400 . S
C415 N418 1.351 . S
C415 C420 1.501 . S
C416 C417 1.387 . S
C416 N419 1.341 . S
C417 C415 1.400 . S
C417 C416 1.387 . S
N418 Co409 2.022 . S
N418 C415 1.351 . S
N418 N419 1.365 . S
N419 C416 1.341 . S
N419 N418 1.365 . S
N419 H439 0.862 . S
C420 C415 1.501 . S
C420 H421 0.961 . S
C420 H422 0.961 . S
C420 H423 0.960 . S
H421 C420 0.961 . S
H422 C420 0.961 . S
H423 C420 0.960 . S
C424 N425 1.342 . S
C424 C428 1.401 . S
C424 C429 1.499 . S
N425 Co408 1.989 . S
N425 C424 1.342 . S
N425 N426 1.388 1_554 S
N426 Co409 1.993 . S
N426 N425 1.388 1_556 S
N426 C427 1.346 . S
C427 N426 1.346 . S
C427 C428 1.396 1_556 S
C427 C437 1.510 . S
C428 C424 1.401 . S
C428 C427 1.396 1_554 S
C429 C424 1.499 . S
C429 H430 0.959 . S
C429 H431 0.960 . S
C429 H432 0.961 . S
H430 C429 0.959 . S
H431 C429 0.960 . S
H432 C429 0.961 . S
O433 Co408 1.967 . S
O433 C441 1.258 . S
O434 Co409 1.941 . S
O434 C441 1.266 1_556 S
H435 C437 0.959 . S
H436 C437 0.961 . S
C437 C427 1.510 . S
C437 H435 0.959 . S
C437 H436 0.961 . S
C437 H438 0.960 . S
H438 C437 0.960 . S
H439 N419 0.862 . S
O440 Co408 1.920 . S
O440 C413 1.289 . S
C441 O433 1.258 . S
C441 O434 1.266 1_554 S
Co442 O445 1.970 . S
Co442 N459 1.989 . S
Co442 O467 1.967 . S
Co442 O474 1.920 . S
Co443 O446 1.966 . S
Co443 N452 2.022 . S
Co443 N460 1.993 . S
Co443 O468 1.941 . S
C444 O445 1.258 . S
C444 O446 1.263 . S
O445 Co442 1.970 . S
O445 C444 1.258 . S
O446 Co443 1.966 . S
O446 C444 1.263 . S
C447 O448 1.235 . S
C447 O474 1.289 . S
O448 C447 1.235 . S
C449 C451 1.400 . S
C449 N452 1.351 . S
C449 C454 1.501 . S
C450 C451 1.387 . S
C450 N453 1.341 . S
C451 C449 1.400 . S
C451 C450 1.387 . S
N452 Co443 2.022 . S
N452 C449 1.351 . S
N452 N453 1.365 . S
N453 C450 1.341 . S
N453 N452 1.365 . S
N453 H473 0.862 . S
C454 C449 1.501 . S
C454 H455 0.961 . S
C454 H456 0.961 . S
C454 H457 0.960 . S
H455 C454 0.961 . S
H456 C454 0.961 . S
H457 C454 0.960 . S
C458 N459 1.342 . S
C458 C462 1.401 . S
C458 C463 1.499 . S
N459 Co442 1.989 . S
N459 C458 1.342 . S
N459 N460 1.388 . S
N460 Co443 1.993 . S
N460 N459 1.388 . S
N460 C461 1.346 . S
C461 N460 1.346 . S
C461 C462 1.396 . S
C461 C471 1.510 . S
C462 C458 1.401 . S
C462 C461 1.396 . S
C463 C458 1.499 . S
C463 H464 0.959 . S
C463 H465 0.960 . S
C463 H466 0.961 . S
H464 C463 0.959 . S
H465 C463 0.960 . S
H466 C463 0.961 . S
O467 Co442 1.967 . S
O467 C475 1.258 . S
O468 Co443 1.941 . S
O468 C475 1.266 . S
H469 C471 0.959 . S
H470 C471 0.961 . S
C471 C461 1.510 . S
C471 H469 0.959 . S
C471 H470 0.961 . S
C471 H472 0.960 . S
H472 C471 0.960 . S
H473 N453 0.862 . S
O474 Co442 1.920 . S
O474 C447 1.289 . S
C475 O467 1.258 . S
C475 O468 1.266 . S
Co476 O479 1.970 . S
Co476 N493 1.989 . S
Co476 O501 1.967 . S
Co476 O508 1.920 . S
Co477 O480 1.966 . S
Co477 N486 2.022 . S
Co477 N494 1.993 . S
Co477 O502 1.941 . S
C478 O479 1.258 . S
C478 O480 1.263 . S
O479 Co476 1.970 . S
O479 C478 1.258 . S
O480 Co477 1.966 . S
O480 C478 1.263 . S
C481 O482 1.235 . S
C481 O508 1.289 . S
O482 C481 1.235 . S
C483 C485 1.400 . S
C483 N486 1.351 . S
C483 C488 1.501 . S
C484 C485 1.387 . S
C484 N487 1.341 . S
C485 C483 1.400 . S
C485 C484 1.387 . S
N486 Co477 2.022 . S
N486 C483 1.351 . S
N486 N487 1.365 . S
N487 C484 1.341 . S
N487 N486 1.365 . S
N487 H507 0.862 . S
C488 C483 1.501 . S
C488 H489 0.961 . S
C488 H490 0.961 . S
C488 H491 0.960 . S
H489 C488 0.961 . S
H490 C488 0.961 . S
H491 C488 0.960 . S
C492 N493 1.342 . S
C492 C496 1.401 . S
C492 C497 1.499 . S
N493 Co476 1.989 . S
N493 C492 1.342 . S
N493 N494 1.388 . S
N494 Co477 1.993 . S
N494 N493 1.388 . S
N494 C495 1.346 . S
C495 N494 1.346 . S
C495 C496 1.396 . S
C495 C505 1.510 . S
C496 C492 1.401 . S
C496 C495 1.396 . S
C497 C492 1.499 . S
C497 H498 0.959 . S
C497 H499 0.960 . S
C497 H500 0.961 . S
H498 C497 0.959 . S
H499 C497 0.960 . S
H500 C497 0.961 . S
O501 Co476 1.967 . S
O501 C509 1.258 . S
O502 Co477 1.941 . S
O502 C509 1.266 . S
H503 C505 0.959 . S
H504 C505 0.961 . S
C505 C495 1.510 . S
C505 H503 0.959 . S
C505 H504 0.961 . S
C505 H506 0.960 . S
H506 C505 0.960 . S
H507 N487 0.862 . S
O508 Co476 1.920 . S
O508 C481 1.289 . S
C509 O501 1.258 . S
C509 O502 1.266 . S
Co510 O513 1.970 . S
Co510 N527 1.989 . S
Co510 O535 1.967 . S
Co510 O542 1.920 . S
Co511 O514 1.966 . S
Co511 N520 2.022 . S
Co511 N528 1.993 . S
Co511 O536 1.941 . S
C512 O513 1.258 . S
C512 O514 1.263 . S
O513 Co510 1.970 . S
O513 C512 1.258 . S
O514 Co511 1.966 . S
O514 C512 1.263 . S
C515 O516 1.235 . S
C515 O542 1.289 . S
O516 C515 1.235 . S
C517 C519 1.400 . S
C517 N520 1.351 . S
C517 C522 1.501 . S
C518 C519 1.387 . S
C518 N521 1.341 . S
C519 C517 1.400 . S
C519 C518 1.387 . S
N520 Co511 2.022 . S
N520 C517 1.351 . S
N520 N521 1.365 . S
N521 C518 1.341 . S
N521 N520 1.365 . S
N521 H541 0.862 . S
C522 C517 1.501 . S
C522 H523 0.961 . S
C522 H524 0.961 . S
C522 H525 0.960 . S
H523 C522 0.961 . S
H524 C522 0.961 . S
H525 C522 0.960 . S
C526 N527 1.342 . S
C526 C530 1.401 . S
C526 C531 1.499 . S
N527 Co510 1.989 . S
N527 C526 1.342 . S
N527 N528 1.388 . S
N528 Co511 1.993 . S
N528 N527 1.388 . S
N528 C529 1.346 . S
C529 N528 1.346 . S
C529 C530 1.396 . S
C529 C539 1.510 . S
C530 C526 1.401 . S
C530 C529 1.396 . S
C531 C526 1.499 . S
C531 H532 0.959 . S
C531 H533 0.960 . S
C531 H534 0.961 . S
H532 C531 0.959 . S
H533 C531 0.960 . S
H534 C531 0.961 . S
O535 Co510 1.967 . S
O535 C543 1.258 . S
O536 Co511 1.941 . S
O536 C543 1.266 . S
H537 C539 0.959 . S
H538 C539 0.961 . S
C539 C529 1.510 . S
C539 H537 0.959 . S
C539 H538 0.961 . S
C539 H540 0.960 . S
H540 C539 0.960 . S
H541 N521 0.862 . S
O542 Co510 1.920 . S
O542 C515 1.289 . S
C543 O535 1.258 . S
C543 O536 1.266 . S
H544 C550 0.930 . S
H545 C554 0.930 . S
H546 C559 0.929 . S
H547 C557 0.929 . S
H548 C552 0.929 . S
H549 C558 0.929 . S
C550 H544 0.930 . S
C550 C551 1.367 . S
C550 C558 1.378 . S
C551 C550 1.367 . S
C551 C559 1.433 . S
C552 H548 0.929 . S
C552 C554 1.378 . S
C552 C556 1.350 . S
C553 C556 1.463 . S
C553 C558 1.350 . S
C553 N561 1.427 . S
C554 H545 0.930 . S
C554 C552 1.378 . S
C554 C555 1.367 . S
C555 C554 1.367 . S
C555 C557 1.433 . S
C556 C552 1.350 . S
C556 C553 1.463 . S
C556 N560 1.427 . S
C557 H547 0.929 . S
C557 C555 1.433 . S
C557 N560 1.384 . S
C558 H549 0.929 . S
C558 C550 1.378 . S
C558 C553 1.350 . S
C559 H546 0.929 . S
C559 C551 1.433 . S
C559 N561 1.384 . S
N560 C556 1.427 . S
N560 C557 1.384 . S
N561 C553 1.427 . S
N561 C559 1.384 . S
H562 C568 0.930 . S
H563 C572 0.930 . S
H564 C577 0.929 . S
H565 C575 0.929 . S
H566 C570 0.929 . S
H567 C576 0.929 . S
C568 H562 0.930 . S
C568 C569 1.367 . S
C568 C576 1.378 . S
C569 C568 1.367 . S
C569 C577 1.433 . S
C570 H566 0.929 . S
C570 C572 1.378 . S
C570 C574 1.350 . S
C571 C574 1.463 . S
C571 C576 1.350 . S
C571 N579 1.427 . S
C572 H563 0.930 . S
C572 C570 1.378 . S
C572 C573 1.367 . S
C573 C572 1.367 . S
C573 C575 1.433 . S
C574 C570 1.350 . S
C574 C571 1.463 . S
C574 N578 1.427 . S
C575 H565 0.929 . S
C575 C573 1.433 . S
C575 N578 1.384 . S
C576 H567 0.929 . S
C576 C568 1.378 . S
C576 C571 1.350 . S
C577 H564 0.929 . S
C577 C569 1.433 . S
C577 N579 1.384 . S
N578 C574 1.427 . S
N578 C575 1.384 . S
N579 C571 1.427 . S
N579 C577 1.384 . S
H580 C586 0.930 . S
H581 C590 0.930 . S
H582 C595 0.929 . S
H583 C593 0.929 . S
H584 C588 0.929 . S
H585 C594 0.929 . S
C586 H580 0.930 . S
C586 C587 1.367 . S
C586 C594 1.378 . S
C587 C586 1.367 . S
C587 C595 1.433 . S
C588 H584 0.929 . S
C588 C590 1.378 . S
C588 C592 1.350 . S
C589 C592 1.463 . S
C589 C594 1.350 . S
C589 N597 1.427 . S
C590 H581 0.930 . S
C590 C588 1.378 . S
C590 C591 1.367 . S
C591 C590 1.367 . S
C591 C593 1.433 . S
C592 C588 1.350 . S
C592 C589 1.463 . S
C592 N596 1.427 . S
C593 H583 0.929 . S
C593 C591 1.433 . S
C593 N596 1.384 . S
C594 H585 0.929 . S
C594 C586 1.378 . S
C594 C589 1.350 . S
C595 H582 0.929 . S
C595 C587 1.433 . S
C595 N597 1.384 . S
N596 C592 1.427 . S
N596 C593 1.384 . S
N597 C589 1.427 . S
N597 C595 1.384 . S
H598 C604 0.930 . S
H599 C608 0.930 . S
H600 C613 0.929 . S
H601 C611 0.929 . S
H602 C606 0.929 . S
H603 C612 0.929 . S
C604 H598 0.930 . S
C604 C605 1.367 . S
C604 C612 1.378 . S
C605 C604 1.367 . S
C605 C613 1.433 . S
C606 H602 0.929 . S
C606 C608 1.378 . S
C606 C610 1.350 . S
C607 C610 1.463 . S
C607 C612 1.350 . S
C607 N615 1.427 . S
C608 H599 0.930 . S
C608 C606 1.378 . S
C608 C609 1.367 . S
C609 C608 1.367 . S
C609 C611 1.433 . S
C610 C606 1.350 . S
C610 C607 1.463 . S
C610 N614 1.427 . S
C611 H601 0.929 . S
C611 C609 1.433 . S
C611 N614 1.384 . S
C612 H603 0.929 . S
C612 C604 1.378 . S
C612 C607 1.350 . S
C613 H600 0.929 . S
C613 C605 1.433 . S
C613 N615 1.384 . S
N614 C610 1.427 . S
N614 C611 1.384 . S
N615 C607 1.427 . S
N615 C613 1.384 . S
H616 C622 0.930 . S
H617 C626 0.930 . S
H618 C631 0.929 . S
H619 C629 0.929 . S
H620 C624 0.929 . S
H621 C630 0.929 . S
C622 H616 0.930 . S
C622 C623 1.367 . S
C622 C630 1.378 . S
C623 C622 1.367 . S
C623 C631 1.433 . S
C624 H620 0.929 . S
C624 C626 1.378 . S
C624 C628 1.350 . S
C625 C628 1.463 . S
C625 C630 1.350 . S
C625 N633 1.427 . S
C626 H617 0.930 . S
C626 C624 1.378 . S
C626 C627 1.367 . S
C627 C626 1.367 . S
C627 C629 1.433 . S
C628 C624 1.350 . S
C628 C625 1.463 . S
C628 N632 1.427 . S
C629 H619 0.929 . S
C629 C627 1.433 . S
C629 N632 1.384 . S
C630 H621 0.929 . S
C630 C622 1.378 . S
C630 C625 1.350 . S
C631 H618 0.929 . S
C631 C623 1.433 . S
C631 N633 1.384 . S
N632 C628 1.427 . S
N632 C629 1.384 . S
N633 C625 1.427 . S
N633 C631 1.384 . S
H634 C640 0.930 . S
H635 C644 0.930 . S
H636 C649 0.929 . S
H637 C647 0.929 . S
H638 C642 0.929 . S
H639 C648 0.929 . S
C640 H634 0.930 . S
C640 C641 1.367 . S
C640 C648 1.378 . S
C641 C640 1.367 . S
C641 C649 1.433 . S
C642 H638 0.929 . S
C642 C644 1.378 . S
C642 C646 1.350 . S
C643 C646 1.463 . S
C643 C648 1.350 . S
C643 N651 1.427 . S
C644 H635 0.930 . S
C644 C642 1.378 . S
C644 C645 1.367 . S
C645 C644 1.367 . S
C645 C647 1.433 . S
C646 C642 1.350 . S
C646 C643 1.463 . S
C646 N650 1.427 . S
C647 H637 0.929 . S
C647 C645 1.433 . S
C647 N650 1.384 . S
C648 H639 0.929 . S
C648 C640 1.378 . S
C648 C643 1.350 . S
C649 H636 0.929 . S
C649 C641 1.433 . S
C649 N651 1.384 . S
N650 C646 1.427 . S
N650 C647 1.384 . S
N651 C643 1.427 . S
N651 C649 1.384 . S
H652 C658 0.930 . S
H653 C662 0.930 . S
H654 C667 0.929 . S
H655 C665 0.929 . S
H656 C660 0.929 . S
H657 C666 0.929 . S
C658 H652 0.930 . S
C658 C659 1.367 . S
C658 C666 1.378 . S
C659 C658 1.367 . S
C659 C667 1.433 . S
C660 H656 0.929 . S
C660 C662 1.378 . S
C660 C664 1.350 . S
C661 C664 1.463 . S
C661 C666 1.350 . S
C661 N669 1.427 . S
C662 H653 0.930 . S
C662 C660 1.378 . S
C662 C663 1.367 . S
C663 C662 1.367 . S
C663 C665 1.433 . S
C664 C660 1.350 . S
C664 C661 1.463 . S
C664 N668 1.427 . S
C665 H655 0.929 . S
C665 C663 1.433 . S
C665 N668 1.384 . S
C666 H657 0.929 . S
C666 C658 1.378 . S
C666 C661 1.350 . S
C667 H654 0.929 . S
C667 C659 1.433 . S
C667 N669 1.384 . S
N668 C664 1.427 . S
N668 C665 1.384 . S
N669 C661 1.427 . S
N669 C667 1.384 . S
H670 C676 0.930 . S
H671 C680 0.930 . S
H672 C685 0.929 . S
H673 C683 0.929 . S
H674 C678 0.929 . S
H675 C684 0.929 . S
C676 H670 0.930 . S
C676 C677 1.367 . S
C676 C684 1.378 . S
C677 C676 1.367 . S
C677 C685 1.433 . S
C678 H674 0.929 . S
C678 C680 1.378 . S
C678 C682 1.350 . S
C679 C682 1.463 . S
C679 C684 1.350 . S
C679 N687 1.427 . S
C680 H671 0.930 . S
C680 C678 1.378 . S
C680 C681 1.367 . S
C681 C680 1.367 . S
C681 C683 1.433 . S
C682 C678 1.350 . S
C682 C679 1.463 . S
C682 N686 1.427 . S
C683 H673 0.929 . S
C683 C681 1.433 . S
C683 N686 1.384 . S
C684 H675 0.929 . S
C684 C676 1.378 . S
C684 C679 1.350 . S
C685 H672 0.929 . S
C685 C677 1.433 . S
C685 N687 1.384 . S
N686 C682 1.427 . S
N686 C683 1.384 . S
N687 C679 1.427 . S
N687 C685 1.384 . S
H688 C694 0.930 . S
H689 C698 0.930 . S
H690 C703 0.929 . S
H691 C701 0.929 . S
H692 C696 0.929 . S
H693 C702 0.929 . S
C694 H688 0.930 . S
C694 C695 1.367 . S
C694 C702 1.378 . S
C695 C694 1.367 . S
C695 C703 1.433 . S
C696 H692 0.929 . S
C696 C698 1.378 . S
C696 C700 1.350 . S
C697 C700 1.463 . S
C697 C702 1.350 . S
C697 N705 1.427 . S
C698 H689 0.930 . S
C698 C696 1.378 . S
C698 C699 1.367 . S
C699 C698 1.367 . S
C699 C701 1.433 . S
C700 C696 1.350 . S
C700 C697 1.463 . S
C700 N704 1.427 . S
C701 H691 0.929 . S
C701 C699 1.433 . S
C701 N704 1.384 . S
C702 H693 0.929 . S
C702 C694 1.378 . S
C702 C697 1.350 . S
C703 H690 0.929 . S
C703 C695 1.433 . S
C703 N705 1.384 . S
N704 C700 1.427 . S
N704 C701 1.384 . S
N705 C697 1.427 . S
N705 C703 1.384 . S
H706 C712 0.930 . S
H707 C716 0.930 . S
H708 C721 0.929 . S
H709 C719 0.929 . S
H710 C714 0.929 . S
H711 C720 0.929 . S
C712 H706 0.930 . S
C712 C713 1.367 . S
C712 C720 1.378 . S
C713 C712 1.367 . S
C713 C721 1.433 . S
C714 H710 0.929 . S
C714 C716 1.378 . S
C714 C718 1.350 . S
C715 C718 1.463 . S
C715 C720 1.350 . S
C715 N723 1.427 . S
C716 H707 0.930 . S
C716 C714 1.378 . S
C716 C717 1.367 . S
C717 C716 1.367 . S
C717 C719 1.433 . S
C718 C714 1.350 . S
C718 C715 1.463 . S
C718 N722 1.427 . S
C719 H709 0.929 . S
C719 C717 1.433 . S
C719 N722 1.384 . S
C720 H711 0.929 . S
C720 C712 1.378 . S
C720 C715 1.350 . S
C721 H708 0.929 . S
C721 C713 1.433 . S
C721 N723 1.384 . S
N722 C718 1.427 . S
N722 C719 1.384 . S
N723 C715 1.427 . S
N723 C721 1.384 . S
H724 C730 0.930 . S
H725 C734 0.930 . S
H726 C739 0.929 . S
H727 C737 0.929 . S
H728 C732 0.929 . S
H729 C738 0.929 . S
C730 H724 0.930 . S
C730 C731 1.367 . S
C730 C738 1.378 . S
C731 C730 1.367 . S
C731 C739 1.433 . S
C732 H728 0.929 . S
C732 C734 1.378 . S
C732 C736 1.350 . S
C733 C736 1.463 . S
C733 C738 1.350 . S
C733 N741 1.427 . S
C734 H725 0.930 . S
C734 C732 1.378 . S
C734 C735 1.367 . S
C735 C734 1.367 . S
C735 C737 1.433 . S
C736 C732 1.350 . S
C736 C733 1.463 . S
C736 N740 1.427 . S
C737 H727 0.929 . S
C737 C735 1.433 . S
C737 N740 1.384 . S
C738 H729 0.929 . S
C738 C730 1.378 . S
C738 C733 1.350 . S
C739 H726 0.929 . S
C739 C731 1.433 . S
C739 N741 1.384 . S
N740 C736 1.427 . S
N740 C737 1.384 . S
N741 C733 1.427 . S
N741 C739 1.384 . S
H742 C748 0.930 . S
H743 C752 0.930 . S
H744 C757 0.929 . S
H745 C755 0.929 . S
H746 C750 0.929 . S
H747 C756 0.929 . S
C748 H742 0.930 . S
C748 C749 1.367 . S
C748 C756 1.378 . S
C749 C748 1.367 . S
C749 C757 1.433 . S
C750 H746 0.929 . S
C750 C752 1.378 . S
C750 C754 1.350 . S
C751 C754 1.463 . S
C751 C756 1.350 . S
C751 N759 1.427 . S
C752 H743 0.930 . S
C752 C750 1.378 . S
C752 C753 1.367 . S
C753 C752 1.367 . S
C753 C755 1.433 . S
C754 C750 1.350 . S
C754 C751 1.463 . S
C754 N758 1.427 . S
C755 H745 0.929 . S
C755 C753 1.433 . S
C755 N758 1.384 . S
C756 H747 0.929 . S
C756 C748 1.378 . S
C756 C751 1.350 . S
C757 H744 0.929 . S
C757 C749 1.433 . S
C757 N759 1.384 . S
N758 C754 1.427 . S
N758 C755 1.384 . S
N759 C751 1.427 . S
N759 C757 1.384 . S
H760 C766 0.930 . S
H761 C770 0.930 . S
H762 C775 0.929 . S
H763 C773 0.929 . S
H764 C768 0.929 . S
H765 C774 0.929 . S
C766 H760 0.930 . S
C766 C767 1.367 . S
C766 C774 1.378 . S
C767 C766 1.367 . S
C767 C775 1.433 . S
C768 H764 0.929 . S
C768 C770 1.378 . S
C768 C772 1.350 . S
C769 C772 1.463 . S
C769 C774 1.350 . S
C769 N777 1.427 . S
C770 H761 0.930 . S
C770 C768 1.378 . S
C770 C771 1.367 . S
C771 C770 1.367 . S
C771 C773 1.433 . S
C772 C768 1.350 . S
C772 C769 1.463 . S
C772 N776 1.427 . S
C773 H763 0.929 . S
C773 C771 1.433 . S
C773 N776 1.384 . S
C774 H765 0.929 . S
C774 C766 1.378 . S
C774 C769 1.350 . S
C775 H762 0.929 . S
C775 C767 1.433 . S
C775 N777 1.384 . S
N776 C772 1.427 . S
N776 C773 1.384 . S
N777 C769 1.427 . S
N777 C775 1.384 . S
H778 C784 0.930 . S
H779 C788 0.930 . S
H780 C793 0.929 . S
H781 C791 0.929 . S
H782 C786 0.929 . S
H783 C792 0.929 . S
C784 H778 0.930 . S
C784 C785 1.367 . S
C784 C792 1.378 . S
C785 C784 1.367 . S
C785 C793 1.433 . S
C786 H782 0.929 . S
C786 C788 1.378 . S
C786 C790 1.350 . S
C787 C790 1.463 . S
C787 C792 1.350 . S
C787 N795 1.427 . S
C788 H779 0.930 . S
C788 C786 1.378 . S
C788 C789 1.367 . S
C789 C788 1.367 . S
C789 C791 1.433 . S
C790 C786 1.350 . S
C790 C787 1.463 . S
C790 N794 1.427 . S
C791 H781 0.929 . S
C791 C789 1.433 . S
C791 N794 1.384 . S
C792 H783 0.929 . S
C792 C784 1.378 . S
C792 C787 1.350 . S
C793 H780 0.929 . S
C793 C785 1.433 . S
C793 N795 1.384 . S
N794 C790 1.427 . S
N794 C791 1.384 . S
N795 C787 1.427 . S
N795 C793 1.384 . S
H796 C802 0.930 . S
H797 C806 0.930 . S
H798 C811 0.929 . S
H799 C809 0.929 . S
H800 C804 0.929 . S
H801 C810 0.929 . S
C802 H796 0.930 . S
C802 C803 1.367 . S
C802 C810 1.378 . S
C803 C802 1.367 . S
C803 C811 1.433 . S
C804 H800 0.929 . S
C804 C806 1.378 . S
C804 C808 1.350 . S
C805 C808 1.463 . S
C805 C810 1.350 . S
C805 N813 1.427 . S
C806 H797 0.930 . S
C806 C804 1.378 . S
C806 C807 1.367 . S
C807 C806 1.367 . S
C807 C809 1.433 . S
C808 C804 1.350 . S
C808 C805 1.463 . S
C808 N812 1.427 . S
C809 H799 0.929 . S
C809 C807 1.433 . S
C809 N812 1.384 . S
C810 H801 0.929 . S
C810 C802 1.378 . S
C810 C805 1.350 . S
C811 H798 0.929 . S
C811 C803 1.433 . S
C811 N813 1.384 . S
N812 C808 1.427 . S
N812 C809 1.384 . S
N813 C805 1.427 . S
N813 C811 1.384 . S
H814 C820 0.930 . S
H815 C824 0.930 . S
H816 C829 0.929 . S
H817 C827 0.929 . S
H818 C822 0.929 . S
H819 C828 0.929 . S
C820 H814 0.930 . S
C820 C821 1.367 . S
C820 C828 1.378 . S
C821 C820 1.367 . S
C821 C829 1.433 . S
C822 H818 0.929 . S
C822 C824 1.378 . S
C822 C826 1.350 . S
C823 C826 1.463 . S
C823 C828 1.350 . S
C823 N831 1.427 . S
C824 H815 0.930 . S
C824 C822 1.378 . S
C824 C825 1.367 . S
C825 C824 1.367 . S
C825 C827 1.433 . S
C826 C822 1.350 . S
C826 C823 1.463 . S
C826 N830 1.427 . S
C827 H817 0.929 . S
C827 C825 1.433 . S
C827 N830 1.384 . S
C828 H819 0.929 . S
C828 C820 1.378 . S
C828 C823 1.350 . S
C829 H816 0.929 . S
C829 C821 1.433 . S
C829 N831 1.384 . S
N830 C826 1.427 . S
N830 C827 1.384 . S
N831 C823 1.427 . S
N831 C829 1.384 . S
H832 C838 0.930 . S
H833 C842 0.930 . S
H834 C847 0.929 . S
H835 C845 0.929 . S
H836 C840 0.929 1_455 S
H837 C846 0.929 1_655 S
C838 H832 0.930 . S
C838 C839 1.367 . S
C838 C846 1.378 . S
C839 C838 1.367 . S
C839 C847 1.433 1_554 S
C840 H836 0.929 1_655 S
C840 C842 1.378 . S
C840 C844 1.350 1_556 S
C841 C844 1.463 1_455 S
C841 C846 1.350 . S
C841 N849 1.427 1_554 S
C842 H833 0.930 . S
C842 C840 1.378 . S
C842 C843 1.367 1_556 S
C843 C842 1.367 1_554 S
C843 C845 1.433 . S
C844 C840 1.350 1_554 S
C844 C841 1.463 1_655 S
C844 N848 1.427 . S
C845 H835 0.929 . S
C845 C843 1.433 . S
C845 N848 1.384 . S
C846 H837 0.929 1_455 S
C846 C838 1.378 . S
C846 C841 1.350 . S
C847 H834 0.929 . S
C847 C839 1.433 1_556 S
C847 N849 1.384 . S
N848 C844 1.427 . S
N848 C845 1.384 . S
N849 C841 1.427 1_556 S
N849 C847 1.384 . S
H850 C856 0.930 . S
H851 C860 0.930 . S
H852 C865 0.929 . S
H853 C863 0.929 . S
H854 C858 0.929 . S
H855 C864 0.929 . S
C856 H850 0.930 . S
C856 C857 1.367 . S
C856 C864 1.378 . S
C857 C856 1.367 . S
C857 C865 1.433 . S
C858 H854 0.929 . S
C858 C860 1.378 . S
C858 C862 1.350 . S
C859 C862 1.463 . S
C859 C864 1.350 . S
C859 N867 1.427 . S
C860 H851 0.930 . S
C860 C858 1.378 . S
C860 C861 1.367 . S
C861 C860 1.367 . S
C861 C863 1.433 . S
C862 C858 1.350 . S
C862 C859 1.463 . S
C862 N866 1.427 . S
C863 H853 0.929 . S
C863 C861 1.433 . S
C863 N866 1.384 . S
C864 H855 0.929 . S
C864 C856 1.378 . S
C864 C859 1.350 . S
C865 H852 0.929 . S
C865 C857 1.433 . S
C865 N867 1.384 . S
N866 C862 1.427 . S
N866 C863 1.384 . S
N867 C859 1.427 . S
N867 C865 1.384 . S
H868 C874 0.930 . S
H869 C878 0.930 . S
H870 C883 0.929 . S
H871 C881 0.929 . S
H872 C876 0.929 1_565 S
H873 C882 0.929 1_545 S
C874 H868 0.930 . S
C874 C875 1.367 . S
C874 C882 1.378 . S
C875 C874 1.367 . S
C875 C883 1.433 . S
C876 H872 0.929 1_545 S
C876 C878 1.378 . S
C876 C880 1.350 . S
C877 C880 1.463 1_565 S
C877 C882 1.350 . S
C877 N885 1.427 . S
C878 H869 0.930 . S
C878 C876 1.378 . S
C878 C879 1.367 . S
C879 C878 1.367 . S
C879 C881 1.433 . S
C880 C876 1.350 . S
C880 C877 1.463 1_545 S
C880 N884 1.427 . S
C881 H871 0.929 . S
C881 C879 1.433 . S
C881 N884 1.384 . S
C882 H873 0.929 1_565 S
C882 C874 1.378 . S
C882 C877 1.350 . S
C883 H870 0.929 . S
C883 C875 1.433 . S
C883 N885 1.384 . S
N884 C880 1.427 . S
N884 C881 1.384 . S
N885 C877 1.427 . S
N885 C883 1.384 . S
H886 C892 0.930 . S
H887 C896 0.930 . S
H888 C901 0.929 . S
H889 C899 0.929 . S
H890 C894 0.929 . S
H891 C900 0.929 . S
C892 H886 0.930 . S
C892 C893 1.367 . S
C892 C900 1.378 . S
C893 C892 1.367 . S
C893 C901 1.433 . S
C894 H890 0.929 . S
C894 C896 1.378 . S
C894 C898 1.350 . S
C895 C898 1.463 1_445 S
C895 C900 1.350 . S
C895 N903 1.427 . S
C896 H887 0.930 . S
C896 C894 1.378 . S
C896 C897 1.367 . S
C897 C896 1.367 . S
C897 C899 1.433 . S
C898 C894 1.350 . S
C898 C895 1.463 1_665 S
C898 N902 1.427 . S
C899 H889 0.929 . S
C899 C897 1.433 . S
C899 N902 1.384 . S
C900 H891 0.929 . S
C900 C892 1.378 . S
C900 C895 1.350 . S
C901 H888 0.929 . S
C901 C893 1.433 . S
C901 N903 1.384 . S
N902 C898 1.427 . S
N902 C899 1.384 . S
N903 C895 1.427 . S
N903 C901 1.384 . S
H904 C910 0.930 . S
H905 C914 0.930 . S
H906 C919 0.929 . S
H907 C917 0.929 . S
H908 C912 0.929 1_655 S
H909 C918 0.929 1_455 S
C910 H904 0.930 . S
C910 C911 1.367 . S
C910 C918 1.378 . S
C911 C910 1.367 . S
C911 C919 1.433 . S
C912 H908 0.929 1_455 S
C912 C914 1.378 . S
C912 C916 1.350 . S
C913 C916 1.463 1_655 S
C913 C918 1.350 . S
C913 N921 1.427 . S
C914 H905 0.930 . S
C914 C912 1.378 . S
C914 C915 1.367 . S
C915 C914 1.367 . S
C915 C917 1.433 . S
C916 C912 1.350 . S
C916 C913 1.463 1_455 S
C916 N920 1.427 . S
C917 H907 0.929 . S
C917 C915 1.433 . S
C917 N920 1.384 . S
C918 H909 0.929 1_655 S
C918 C910 1.378 . S
C918 C913 1.350 . S
C919 H906 0.929 . S
C919 C911 1.433 . S
C919 N921 1.384 . S
N920 C916 1.427 . S
N920 C917 1.384 . S
N921 C913 1.427 . S
N921 C919 1.384 . S
H922 C928 0.930 . S
H923 C932 0.930 . S
H924 C937 0.929 . S
H925 C935 0.929 . S
H926 C930 0.929 . S
H927 C936 0.929 . S
C928 H922 0.930 . S
C928 C929 1.367 . S
C928 C936 1.378 . S
C929 C928 1.367 . S
C929 C937 1.433 . S
C930 H926 0.929 . S
C930 C932 1.378 . S
C930 C934 1.350 . S
C931 C934 1.463 . S
C931 C936 1.350 . S
C931 N939 1.427 . S
C932 H923 0.930 . S
C932 C930 1.378 . S
C932 C933 1.367 . S
C933 C932 1.367 . S
C933 C935 1.433 . S
C934 C930 1.350 . S
C934 C931 1.463 . S
C934 N938 1.427 . S
C935 H925 0.929 . S
C935 C933 1.433 . S
C935 N938 1.384 . S
C936 H927 0.929 . S
C936 C928 1.378 . S
C936 C931 1.350 . S
C937 H924 0.929 . S
C937 C929 1.433 . S
C937 N939 1.384 . S
N938 C934 1.427 . S
N938 C935 1.384 . S
N939 C931 1.427 . S
N939 C937 1.384 . S
H940 C946 0.930 . S
H941 C950 0.930 . S
H942 C955 0.929 . S
H943 C953 0.929 . S
H944 C948 0.929 . S
H945 C954 0.929 . S
C946 H940 0.930 . S
C946 C947 1.367 . S
C946 C954 1.378 . S
C947 C946 1.367 . S
C947 C955 1.433 1_554 S
C948 H944 0.929 . S
C948 C950 1.378 . S
C948 C952 1.350 1_556 S
C949 C952 1.463 1_545 S
C949 C954 1.350 . S
C949 N957 1.427 1_554 S
C950 H941 0.930 . S
C950 C948 1.378 . S
C950 C951 1.367 1_556 S
C951 C950 1.367 1_554 S
C951 C953 1.433 . S
C952 C948 1.350 1_554 S
C952 C949 1.463 1_565 S
C952 N956 1.427 . S
C953 H943 0.929 . S
C953 C951 1.433 . S
C953 N956 1.384 . S
C954 H945 0.929 . S
C954 C946 1.378 . S
C954 C949 1.350 . S
C955 H942 0.929 . S
C955 C947 1.433 1_556 S
C955 N957 1.384 . S
N956 C952 1.427 . S
N956 C953 1.384 . S
N957 C949 1.427 1_556 S
N957 C955 1.384 . S
H958 C964 0.930 . S
H959 C968 0.930 . S
H960 C973 0.929 . S
H961 C971 0.929 . S
H962 C966 0.929 1_565 S
H963 C972 0.929 1_545 S
C964 H958 0.930 . S
C964 C965 1.367 . S
C964 C972 1.378 . S
C965 C964 1.367 . S
C965 C973 1.433 . S
C966 H962 0.929 1_545 S
C966 C968 1.378 . S
C966 C970 1.350 . S
C967 C970 1.463 1_465 S
C967 C972 1.350 . S
C967 N975 1.427 . S
C968 H959 0.930 . S
C968 C966 1.378 . S
C968 C969 1.367 . S
C969 C968 1.367 . S
C969 C971 1.433 . S
C970 C966 1.350 . S
C970 C967 1.463 1_645 S
C970 N974 1.427 . S
C971 H961 0.929 . S
C971 C969 1.433 . S
C971 N974 1.384 . S
C972 H963 0.929 1_565 S
C972 C964 1.378 . S
C972 C967 1.350 . S
C973 H960 0.929 . S
C973 C965 1.433 . S
C973 N975 1.384 . S
N974 C970 1.427 . S
N974 C971 1.384 . S
N975 C967 1.427 . S
N975 C973 1.384 . S
H976 C982 0.930 . S
H977 C986 0.930 . S
H978 C991 0.929 . S
H979 C989 0.929 . S
H980 C984 0.929 . S
H981 C990 0.929 . S
C982 H976 0.930 . S
C982 C983 1.367 1_556 S
C982 C990 1.378 . S
C983 C982 1.367 1_554 S
C983 C991 1.433 . S
C984 H980 0.929 . S
C984 C986 1.378 . S
C984 C988 1.350 . S
C985 C988 1.463 . S
C985 C990 1.350 1_554 S
C985 N993 1.427 . S
C986 H977 0.930 . S
C986 C984 1.378 . S
C986 C987 1.367 . S
C987 C986 1.367 . S
C987 C989 1.433 1_554 S
C988 C984 1.350 . S
C988 C985 1.463 . S
C988 N992 1.427 1_554 S
C989 H979 0.929 . S
C989 C987 1.433 1_556 S
C989 N992 1.384 . S
C990 H981 0.929 . S
C990 C982 1.378 . S
C990 C985 1.350 1_556 S
C991 H978 0.929 . S
C991 C983 1.433 . S
C991 N993 1.384 . S
N992 C988 1.427 1_556 S
N992 C989 1.384 . S
N993 C985 1.427 . S
N993 C991 1.384 . S
H994 C1000 0.930 . S
H995 C1004 0.930 1_545 S
H996 C1009 0.929 . S
H997 C1007 0.929 . S
H998 C1002 0.929 . S
H999 C1008 0.929 . S
C1000 H994 0.930 . S
C1000 C1001 1.367 . S
C1000 C1008 1.378 . S
C1001 C1000 1.367 . S
C1001 C1009 1.433 . S
C1002 H998 0.929 . S
C1002 C1004 1.378 . S
C1002 C1006 1.350 . S
C1003 C1006 1.463 . S
C1003 C1008 1.350 . S
C1003 N1011 1.427 . S
C1004 H995 0.930 1_565 S
C1004 C1002 1.378 . S
C1004 C1005 1.367 1_565 S
C1005 C1004 1.367 1_545 S
C1005 C1007 1.433 . S
C1006 C1002 1.350 . S
C1006 C1003 1.463 . S
C1006 N1010 1.427 . S
C1007 H997 0.929 . S
C1007 C1005 1.433 . S
C1007 N1010 1.384 1_545 S
C1008 H999 0.929 . S
C1008 C1000 1.378 . S
C1008 C1003 1.350 . S
C1009 H996 0.929 . S
C1009 C1001 1.433 . S
C1009 N1011 1.384 . S
N1010 C1006 1.427 . S
N1010 C1007 1.384 1_565 S
N1011 C1003 1.427 . S
N1011 C1009 1.384 . S
H1012 C1018 0.930 . S
H1013 C1022 0.930 . S
H1014 C1027 0.929 1_655 S
H1015 C1025 0.929 . S
H1016 C1020 0.929 . S
H1017 C1026 0.929 . S
C1018 H1012 0.930 . S
C1018 C1019 1.367 . S
C1018 C1026 1.378 1_655 S
C1019 C1018 1.367 . S
C1019 C1027 1.433 1_655 S
C1020 H1016 0.929 . S
C1020 C1022 1.378 . S
C1020 C1024 1.350 . S
C1021 C1024 1.463 . S
C1021 C1026 1.350 . S
C1021 N1029 1.427 . S
C1022 H1013 0.930 . S
C1022 C1020 1.378 . S
C1022 C1023 1.367 . S
C1023 C1022 1.367 . S
C1023 C1025 1.433 . S
C1024 C1020 1.350 . S
C1024 C1021 1.463 . S
C1024 N1028 1.427 . S
C1025 H1015 0.929 . S
C1025 C1023 1.433 . S
C1025 N1028 1.384 . S
C1026 H1017 0.929 . S
C1026 C1018 1.378 1_455 S
C1026 C1021 1.350 . S
C1027 H1014 0.929 1_455 S
C1027 C1019 1.433 1_455 S
C1027 N1029 1.384 . S
N1028 C1024 1.427 . S
N1028 C1025 1.384 . S
N1029 C1021 1.427 . S
N1029 C1027 1.384 . S
H1030 C1036 0.930 . S
H1031 C1040 0.930 . S
H1032 C1045 0.929 . S
H1033 C1043 0.929 . S
H1034 C1038 0.929 . S
H1035 C1044 0.929 . S
C1036 H1030 0.930 . S
C1036 C1037 1.367 . S
C1036 C1044 1.378 . S
C1037 C1036 1.367 . S
C1037 C1045 1.433 . S
C1038 H1034 0.929 . S
C1038 C1040 1.378 . S
C1038 C1042 1.350 . S
C1039 C1042 1.463 . S
C1039 C1044 1.350 . S
C1039 N1047 1.427 . S
C1040 H1031 0.930 . S
C1040 C1038 1.378 . S
C1040 C1041 1.367 . S
C1041 C1040 1.367 . S
C1041 C1043 1.433 . S
C1042 C1038 1.350 . S
C1042 C1039 1.463 . S
C1042 N1046 1.427 . S
C1043 H1033 0.929 . S
C1043 C1041 1.433 . S
C1043 N1046 1.384 . S
C1044 H1035 0.929 . S
C1044 C1036 1.378 . S
C1044 C1039 1.350 . S
C1045 H1032 0.929 . S
C1045 C1037 1.433 . S
C1045 N1047 1.384 . S
N1046 C1042 1.427 . S
N1046 C1043 1.384 . S
N1047 C1039 1.427 . S
N1047 C1045 1.384 . S
H1048 C1054 0.930 . S
H1049 C1058 0.930 . S
H1050 C1063 0.929 . S
H1051 C1061 0.929 . S
H1052 C1056 0.929 . S
H1053 C1062 0.929 . S
C1054 H1048 0.930 . S
C1054 C1055 1.367 . S
C1054 C1062 1.378 . S
C1055 C1054 1.367 . S
C1055 C1063 1.433 . S
C1056 H1052 0.929 . S
C1056 C1058 1.378 . S
C1056 C1060 1.350 . S
C1057 C1060 1.463 . S
C1057 C1062 1.350 . S
C1057 N1065 1.427 . S
C1058 H1049 0.930 . S
C1058 C1056 1.378 . S
C1058 C1059 1.367 . S
C1059 C1058 1.367 . S
C1059 C1061 1.433 . S
C1060 C1056 1.350 . S
C1060 C1057 1.463 . S
C1060 N1064 1.427 . S
C1061 H1051 0.929 . S
C1061 C1059 1.433 . S
C1061 N1064 1.384 . S
C1062 H1053 0.929 . S
C1062 C1054 1.378 . S
C1062 C1057 1.350 . S
C1063 H1050 0.929 . S
C1063 C1055 1.433 . S
C1063 N1065 1.384 . S
N1064 C1060 1.427 . S
N1064 C1061 1.384 . S
N1065 C1057 1.427 . S
N1065 C1063 1.384 . S
H1066 C1072 0.930 . S
H1067 C1076 0.930 . S
H1068 C1081 0.929 . S
H1069 C1079 0.929 1_565 S
H1070 C1074 0.929 . S
H1071 C1080 0.929 . S
C1072 H1066 0.930 . S
C1072 C1073 1.367 . S
C1072 C1080 1.378 . S
C1073 C1072 1.367 . S
C1073 C1081 1.433 . S
C1074 H1070 0.929 . S
C1074 C1076 1.378 1_545 S
C1074 C1078 1.350 . S
C1075 C1078 1.463 . S
C1075 C1080 1.350 . S
C1075 N1083 1.427 . S
C1076 H1067 0.930 . S
C1076 C1074 1.378 1_565 S
C1076 C1077 1.367 . S
C1077 C1076 1.367 . S
C1077 C1079 1.433 1_565 S
C1078 C1074 1.350 . S
C1078 C1075 1.463 . S
C1078 N1082 1.427 . S
C1079 H1069 0.929 1_545 S
C1079 C1077 1.433 1_545 S
C1079 N1082 1.384 . S
C1080 H1071 0.929 . S
C1080 C1072 1.378 . S
C1080 C1075 1.350 . S
C1081 H1068 0.929 . S
C1081 C1073 1.433 . S
C1081 N1083 1.384 . S
N1082 C1078 1.427 . S
N1082 C1079 1.384 . S
N1083 C1075 1.427 . S
N1083 C1081 1.384 . S
H1084 C1090 0.938 . S
H1085 C1094 0.930 . S
H1086 C1099 0.912 1_456 S
H1087 C1097 0.929 . S
H1088 C1092 0.929 . S
H1089 C1098 0.929 . S
C1090 H1084 0.938 . S
C1090 C1091 1.374 . S
C1090 C1098 1.363 1_455 S
C1091 C1090 1.374 . S
C1091 C1099 1.431 1_455 S
C1092 H1088 0.929 . S
C1092 C1094 1.378 . S
C1092 C1096 1.350 1_556 S
C1093 C1096 1.463 . S
C1093 C1098 1.350 . S
C1093 N1101 1.423 1_554 S
C1094 H1085 0.930 . S
C1094 C1092 1.378 . S
C1094 C1095 1.367 1_556 S
C1095 C1094 1.367 1_554 S
C1095 C1097 1.433 . S
C1096 C1092 1.350 1_554 S
C1096 C1093 1.463 . S
C1096 N1100 1.427 . S
C1097 H1087 0.929 . S
C1097 C1095 1.433 . S
C1097 N1100 1.384 . S
C1098 H1089 0.929 . S
C1098 C1090 1.363 1_655 S
C1098 C1093 1.350 . S
C1099 H1086 0.912 1_654 S
C1099 C1091 1.431 1_655 S
C1099 N1101 1.404 1_554 S
N1100 C1096 1.427 . S
N1100 C1097 1.384 . S
N1101 C1093 1.423 1_556 S
N1101 C1099 1.404 1_556 S
H1102 C1108 0.930 . S
H1103 C1112 0.930 . S
H1104 C1117 0.929 . S
H1105 C1115 0.929 . S
H1106 C1110 0.929 . S
H1107 C1116 0.929 . S
C1108 H1102 0.930 . S
C1108 C1109 1.367 . S
C1108 C1116 1.378 . S
C1109 C1108 1.367 . S
C1109 C1117 1.433 . S
C1110 H1106 0.929 . S
C1110 C1112 1.378 . S
C1110 C1114 1.350 . S
C1111 C1114 1.463 . S
C1111 C1116 1.350 . S
C1111 N1119 1.427 . S
C1112 H1103 0.930 . S
C1112 C1110 1.378 . S
C1112 C1113 1.367 . S
C1113 C1112 1.367 . S
C1113 C1115 1.433 . S
C1114 C1110 1.350 . S
C1114 C1111 1.463 . S
C1114 N1118 1.427 . S
C1115 H1105 0.929 . S
C1115 C1113 1.433 . S
C1115 N1118 1.384 . S
C1116 H1107 0.929 . S
C1116 C1108 1.378 . S
C1116 C1111 1.350 . S
C1117 H1104 0.929 . S
C1117 C1109 1.433 . S
C1117 N1119 1.384 . S
N1118 C1114 1.427 . S
N1118 C1115 1.384 . S
N1119 C1111 1.427 . S
N1119 C1117 1.384 . S
H1120 C1126 0.935 . S
H1121 C1130 0.930 . S
H1122 C1135 0.922 1_455 S
H1123 C1133 0.929 . S
H1124 C1128 0.929 . S
H1125 C1134 0.929 . S
C1126 H1120 0.935 . S
C1126 C1127 1.371 . S
C1126 C1134 1.369 1_455 S
C1127 C1126 1.371 . S
C1127 C1135 1.427 1_455 S
C1128 H1124 0.929 . S
C1128 C1130 1.378 . S
C1128 C1132 1.350 . S
C1129 C1132 1.463 . S
C1129 C1134 1.350 . S
C1129 N1137 1.427 . S
C1130 H1121 0.930 . S
C1130 C1128 1.378 . S
C1130 C1131 1.367 . S
C1131 C1130 1.367 . S
C1131 C1133 1.433 . S
C1132 C1128 1.350 . S
C1132 C1129 1.463 . S
C1132 N1136 1.427 . S
C1133 H1123 0.929 . S
C1133 C1131 1.433 . S
C1133 N1136 1.384 . S
C1134 H1125 0.929 . S
C1134 C1126 1.369 1_655 S
C1134 C1129 1.350 . S
C1135 H1122 0.922 1_655 S
C1135 C1127 1.427 1_655 S
C1135 N1137 1.398 . S
N1136 C1132 1.427 . S
N1136 C1133 1.384 . S
N1137 C1129 1.427 . S
N1137 C1135 1.398 . S
H1138 C1144 0.930 . S
H1139 C1148 0.930 . S
H1140 C1153 0.929 . S
H1141 C1151 0.929 . S
H1142 C1146 0.929 . S
H1143 C1152 0.929 . S
C1144 H1138 0.930 . S
C1144 C1145 1.367 . S
C1144 C1152 1.378 . S
C1145 C1144 1.367 . S
C1145 C1153 1.433 . S
C1146 H1142 0.929 . S
C1146 C1148 1.378 . S
C1146 C1150 1.350 . S
C1147 C1150 1.463 . S
C1147 C1152 1.350 . S
C1147 N1155 1.427 . S
C1148 H1139 0.930 . S
C1148 C1146 1.378 . S
C1148 C1149 1.367 . S
C1149 C1148 1.367 . S
C1149 C1151 1.433 . S
C1150 C1146 1.350 . S
C1150 C1147 1.463 . S
C1150 N1154 1.427 . S
C1151 H1141 0.929 . S
C1151 C1149 1.433 . S
C1151 N1154 1.384 . S
C1152 H1143 0.929 . S
C1152 C1144 1.378 . S
C1152 C1147 1.350 . S
C1153 H1140 0.929 . S
C1153 C1145 1.433 . S
C1153 N1155 1.384 . S
N1154 C1150 1.427 . S
N1154 C1151 1.384 . S
N1155 C1147 1.427 . S
N1155 C1153 1.384 . S
H1156 C1162 0.930 . S
H1157 C1166 0.930 . S
H1158 C1171 0.927 1_556 S
H1159 C1169 0.929 . S
H1160 C1164 0.929 . S
H1161 C1170 0.929 . S
C1162 H1156 0.930 . S
C1162 C1163 1.367 . S
C1162 C1170 1.378 . S
C1163 C1162 1.367 . S
C1163 C1171 1.433 . S
C1164 H1160 0.929 . S
C1164 C1166 1.378 . S
C1164 C1168 1.350 . S
C1165 C1168 1.463 . S
C1165 C1170 1.350 . S
C1165 N1173 1.427 . S
C1166 H1157 0.930 . S
C1166 C1164 1.378 . S
C1166 C1167 1.367 . S
C1167 C1166 1.367 . S
C1167 C1169 1.433 . S
C1168 C1164 1.350 . S
C1168 C1165 1.463 . S
C1168 N1172 1.427 . S
C1169 H1159 0.929 . S
C1169 C1167 1.433 . S
C1169 N1172 1.384 . S
C1170 H1161 0.929 . S
C1170 C1162 1.378 . S
C1170 C1165 1.350 . S
C1171 H1158 0.927 1_554 S
C1171 C1163 1.433 . S
C1171 N1173 1.384 . S
N1172 C1168 1.427 . S
N1172 C1169 1.384 . S
N1173 C1165 1.427 . S
N1173 C1171 1.384 . S
H1174 C1180 0.930 . S
H1175 C1184 0.930 . S
H1176 C1189 0.929 . S
H1177 C1187 0.929 1_565 S
H1178 C1182 0.929 . S
H1179 C1188 0.929 . S
C1180 H1174 0.930 . S
C1180 C1181 1.367 . S
C1180 C1188 1.378 . S
C1181 C1180 1.367 . S
C1181 C1189 1.433 . S
C1182 H1178 0.929 . S
C1182 C1184 1.378 1_545 S
C1182 C1186 1.350 . S
C1183 C1186 1.463 . S
C1183 C1188 1.350 . S
C1183 N1191 1.427 . S
C1184 H1175 0.930 . S
C1184 C1182 1.378 1_565 S
C1184 C1185 1.367 . S
C1185 C1184 1.367 . S
C1185 C1187 1.433 1_565 S
C1186 C1182 1.350 . S
C1186 C1183 1.463 . S
C1186 N1190 1.427 . S
C1187 H1177 0.929 1_545 S
C1187 C1185 1.433 1_545 S
C1187 N1190 1.384 . S
C1188 H1179 0.929 . S
C1188 C1180 1.378 . S
C1188 C1183 1.350 . S
C1189 H1176 0.929 . S
C1189 C1181 1.433 . S
C1189 N1191 1.384 . S
N1190 C1186 1.427 . S
N1190 C1187 1.384 . S
N1191 C1183 1.427 . S
N1191 C1189 1.384 . S
H1192 C1198 0.930 1_656 S
H1193 C1202 0.930 . S
H1194 C1207 0.929 . S
H1195 C1205 0.953 . S
H1196 C1200 0.929 . S
H1197 C1206 0.929 1_556 S
C1198 H1192 0.930 1_454 S
C1198 C1199 1.367 1_455 S
C1198 C1206 1.378 . S
C1199 C1198 1.367 1_655 S
C1199 C1207 1.433 . S
C1200 H1196 0.929 . S
C1200 C1202 1.378 . S
C1200 C1204 1.350 . S
C1201 C1204 1.463 . S
C1201 C1206 1.350 . S
C1201 N1209 1.427 . S
C1202 H1193 0.930 . S
C1202 C1200 1.378 . S
C1202 C1203 1.367 . S
C1203 C1202 1.367 . S
C1203 C1205 1.414 1_554 S
C1204 C1200 1.350 . S
C1204 C1201 1.463 . S
C1204 N1208 1.426 1_554 S
C1205 H1195 0.953 . S
C1205 C1203 1.414 1_556 S
C1205 N1208 1.382 . S
C1206 H1197 0.929 1_554 S
C1206 C1198 1.378 . S
C1206 C1201 1.350 . S
C1207 H1194 0.929 . S
C1207 C1199 1.433 . S
C1207 N1209 1.384 1_655 S
N1208 C1204 1.426 1_556 S
N1208 C1205 1.382 . S
N1209 C1201 1.427 . S
N1209 C1207 1.384 1_455 S
H1210 C1216 0.930 . S
H1211 C1220 0.930 . S
H1212 C1225 0.929 . S
H1213 C1223 0.929 . S
H1214 C1218 0.929 . S
H1215 C1224 0.929 . S
C1216 H1210 0.930 . S
C1216 C1217 1.367 . S
C1216 C1224 1.378 . S
C1217 C1216 1.367 . S
C1217 C1225 1.433 . S
C1218 H1214 0.929 . S
C1218 C1220 1.378 . S
C1218 C1222 1.350 . S
C1219 C1222 1.463 . S
C1219 C1224 1.350 . S
C1219 N1227 1.427 . S
C1220 H1211 0.930 . S
C1220 C1218 1.378 . S
C1220 C1221 1.367 . S
C1221 C1220 1.367 . S
C1221 C1223 1.433 . S
C1222 C1218 1.350 . S
C1222 C1219 1.463 . S
C1222 N1226 1.427 . S
C1223 H1213 0.929 . S
C1223 C1221 1.433 . S
C1223 N1226 1.384 . S
C1224 H1215 0.929 . S
C1224 C1216 1.378 . S
C1224 C1219 1.350 . S
C1225 H1212 0.929 . S
C1225 C1217 1.433 . S
C1225 N1227 1.384 . S
N1226 C1222 1.427 . S
N1226 C1223 1.384 . S
N1227 C1219 1.427 . S
N1227 C1225 1.384 . S
H1228 C1234 0.930 . S
H1229 C1238 0.930 . S
H1230 C1243 0.929 . S
H1231 C1241 0.929 . S
H1232 C1236 0.929 . S
H1233 C1242 0.929 . S
C1234 H1228 0.930 . S
C1234 C1235 1.367 . S
C1234 C1242 1.378 . S
C1235 C1234 1.367 . S
C1235 C1243 1.433 . S
C1236 H1232 0.929 . S
C1236 C1238 1.378 . S
C1236 C1240 1.350 . S
C1237 C1240 1.463 . S
C1237 C1242 1.350 . S
C1237 N1245 1.427 . S
C1238 H1229 0.930 . S
C1238 C1236 1.378 . S
C1238 C1239 1.367 . S
C1239 C1238 1.367 . S
C1239 C1241 1.433 . S
C1240 C1236 1.350 . S
C1240 C1237 1.463 . S
C1240 N1244 1.427 . S
C1241 H1231 0.929 . S
C1241 C1239 1.433 . S
C1241 N1244 1.384 . S
C1242 H1233 0.929 . S
C1242 C1234 1.378 . S
C1242 C1237 1.350 . S
C1243 H1230 0.929 . S
C1243 C1235 1.433 . S
C1243 N1245 1.384 . S
N1244 C1240 1.427 . S
N1244 C1241 1.384 . S
N1245 C1237 1.427 . S
N1245 C1243 1.384 . S
H1246 C1252 0.930 1_545 S
H1247 C1256 0.930 . S
H1248 C1261 0.940 . S
H1249 C1259 0.929 . S
H1250 C1254 0.929 . S
H1251 C1260 0.929 . S
C1252 H1246 0.930 1_565 S
C1252 C1253 1.367 1_565 S
C1252 C1260 1.378 . S
C1253 C1252 1.367 1_545 S
C1253 C1261 1.443 . S
C1254 H1250 0.929 . S
C1254 C1256 1.378 . S
C1254 C1258 1.350 . S
C1255 C1258 1.463 . S
C1255 C1260 1.350 . S
C1255 N1263 1.427 . S
C1256 H1247 0.930 . S
C1256 C1254 1.378 . S
C1256 C1257 1.367 . S
C1257 C1256 1.367 . S
C1257 C1259 1.433 . S
C1258 C1254 1.350 . S
C1258 C1255 1.463 . S
C1258 N1262 1.427 . S
C1259 H1249 0.929 . S
C1259 C1257 1.433 . S
C1259 N1262 1.384 . S
C1260 H1251 0.929 . S
C1260 C1252 1.378 . S
C1260 C1255 1.350 . S
C1261 H1248 0.940 . S
C1261 C1253 1.443 . S
C1261 N1263 1.362 1_545 S
N1262 C1258 1.427 . S
N1262 C1259 1.384 . S
N1263 C1255 1.427 . S
N1263 C1261 1.362 1_565 S
C551 C9 1.606 . S
C555 C311 1.680 . S
C569 C43 1.611 . S
C573 C345 1.678 . S
C587 C379 1.678 . S
C591 C77 1.612 . S
C605 C277 1.682 . S
C609 C111 1.602 . S
C623 C145 1.617 . S
C627 C243 1.677 . S
C641 C141 1.682 . S
C645 C179 1.604 . S
C659 C213 1.612 . S
C663 C175 1.678 . S
C677 C247 1.610 . S
C681 C209 1.678 . S
C695 C39 1.678 . S
C699 C281 1.610 . S
C713 C73 1.679 . S
C717 C315 1.614 . S
C731 C349 1.616 . S
C735 C107 1.678 . S
C749 C383 1.602 . S
C753 C5 1.683 . S
C767 C515 1.682 . S
C771 C417 1.603 . S
C785 C413 1.677 . S
C789 C451 1.617 . S
C803 C485 1.613 . S
C807 C447 1.679 . S
C821 C519 1.605 . S
C825 C481 1.682 . S
C839 C33 1.298 . S
C843 C373 1.297 . S
C857 C407 1.305 . S
C861 C67 1.305 . S
C875 C305 1.305 . S
C879 C101 1.305 . S
C893 C339 1.300 . S
C897 C135 1.299 . S
C911 C169 1.295 . S
C915 C509 1.295 . S
C929 C203 1.299 . S
C933 C543 1.300 . S
C947 C237 1.295 . S
C951 C441 1.294 . S
C965 C475 1.296 . S
C969 C271 1.296 . S
C983 C206 0.961 . S
C987 C20 0.980 . S
C1001 C54 0.983 . S
C1005 C240 0.959 . S
C1019 C138 0.952 . S
C1023 C88 0.978 . S
C1037 C172 0.952 . S
C1041 C122 0.978 . S
C1055 C156 0.983 . S
C1059 C70 0.960 . S
C1073 C190 0.979 . S
C1077 C104 0.956 . S
C1091 C2 0.951 . S
C1095 C224 0.980 . S
C1109 C258 0.985 . S
C1113 C36 0.971 . S
C1127 C478 0.964 . S
C1131 C292 0.981 . S
C1145 C326 0.982 . S
C1149 C512 0.958 . S
C1163 C360 0.984 . S
C1167 C410 0.971 . S
C1181 C394 0.979 . S
C1185 C444 0.958 . S
C1199 C342 0.970 . S
C1203 C428 0.984 . S
C1217 C462 0.978 . S
C1221 C376 0.950 . S
C1235 C274 0.969 . S
C1239 C496 0.985 . S
C1253 C308 0.957 . S
C1257 C530 0.982 . S
