# Generated by pormake.
# Topology snp, (6)-cn, num edge types: 1
# Building blocks:
#     Node 0, Type 0, BuildingBlock: PAMTOO_clean_sbu_0, # of connection points: 6
#     Node 1, Type 0, BuildingBlock: PAMTOO_clean_sbu_0, # of connection points: 6
#     Node 2, Type 0, BuildingBlock: PAMTOO_clean_sbu_0, # of connection points: 6
#     Node 3, Type 0, BuildingBlock: PAMTOO_clean_sbu_0, # of connection points: 6
#     Edge 4, Type (0, 0), BuildingBlock: MIFKUJ_clean_linker_0, # of connection points: 2
#     Edge 5, Type (0, 0), BuildingBlock: MIFKUJ_clean_linker_0, # of connection points: 2
#     Edge 6, Type (0, 0), BuildingBlock: MIFKUJ_clean_linker_0, # of connection points: 2
#     Edge 7, Type (0, 0), BuildingBlock: MIFKUJ_clean_linker_0, # of connection points: 2
#     Edge 8, Type (0, 0), BuildingBlock: MIFKUJ_clean_linker_0, # of connection points: 2
#     Edge 9, Type (0, 0), BuildingBlock: MIFKUJ_clean_linker_0, # of connection points: 2
#     Edge 10, Type (0, 0), BuildingBlock: MIFKUJ_clean_linker_0, # of connection points: 2
#     Edge 11, Type (0, 0), BuildingBlock: MIFKUJ_clean_linker_0, # of connection points: 2
#     Edge 12, Type (0, 0), BuildingBlock: MIFKUJ_clean_linker_0, # of connection points: 2
#     Edge 13, Type (0, 0), BuildingBlock: MIFKUJ_clean_linker_0, # of connection points: 2
#     Edge 14, Type (0, 0), BuildingBlock: MIFKUJ_clean_linker_0, # of connection points: 2
#     Edge 15, Type (0, 0), BuildingBlock: MIFKUJ_clean_linker_0, # of connection points: 2
# Relax obj value: 0.594
# Max RMSD: 0.190
# Mean RMSD: 0.190
data_MOF--net-snp--node1-PAMTOO_clean_sbu_0--edge1-MIFKUJ_clean_linker_0
_symmetry_space_group_name_H-M    P1
_symmetry_Int_Tables_number       1
_symmetry_cell_setting            triclinic
loop_
_symmetry_equiv_pos_as_xyz
'x, y, z'
_cell_length_a     32.382746
_cell_length_b     32.58865
_cell_length_c     36.949259
_cell_angle_alpha  94.200461
_cell_angle_beta   94.668881
_cell_angle_gamma 92.665426
loop_
_atom_site_label
_atom_site_type_symbol
_atom_site_fract_x
_atom_site_fract_y
_atom_site_fract_z
_atom_type_partial_charge
Dy0 Dy 0.21042 0.97475 0.10808 0.0
Dy1 Dy 0.23797 0.06888 0.13718 0.0
C2 C 0.3035 1.00914 1.10459 0.0
O3 O 0.21507 0.97045 0.16856 0.0
O4 O 0.24194 0.03496 0.19041 0.0
O5 O 0.21241 0.90991 0.11494 0.0
O6 O 0.1774 0.93052 1.06794 0.0
O7 O 0.18016 0.05968 0.16372 0.0
O8 O 0.15461 0.99755 0.13469 0.0
O9 O 0.19746 0.07578 1.08528 0.0
O10 O 0.20225 1.01149 1.0575 0.0
O11 O 0.23049 0.13446 0.13846 0.0
O12 O 0.28763 0.11067 0.16174 0.0
C13 C 0.22848 0.99682 0.19615 0.0
O14 O 0.28017 0.97721 0.11138 0.0
O15 O 0.28775 0.0453 1.10367 0.0
C16 C 0.20826 0.86566 1.06223 0.0
C17 C 0.24363 0.80059 1.02323 0.0
C18 C 0.24665 0.84101 1.01208 0.0
C19 C 0.22931 0.87333 1.03155 0.0
C20 C 0.20562 0.82564 1.0737 0.0
C21 C 0.22321 0.79339 1.05446 0.0
C22 C 0.19103 0.89897 1.08422 0.0
C23 C 0.15275 0.02841 0.15969 0.0
C24 C 0.1924 0.05034 1.0557 0.0
C25 C 0.27031 0.1771 0.18407 0.0
C26 C 0.28068 0.24339 0.23766 0.0
C27 C 0.27525 0.20267 0.24756 0.0
C28 C 0.27003 0.16972 0.22092 0.0
C29 C 0.27513 0.2176 0.17407 0.0
C30 C 0.28017 0.25055 0.20064 0.0
C31 C 0.26708 0.14334 0.15543 0.0
H32 H 0.26147 0.84757 0.98776 0.0
H33 H 0.2322 0.90417 1.02257 0.0
H34 H 0.19005 0.81935 1.09774 0.0
H35 H 0.22071 0.76281 1.06401 0.0
H36 H 0.27474 0.19633 0.27589 0.0
H37 H 0.26607 0.1386 0.22906 0.0
H38 H 0.27546 0.22371 0.14565 0.0
H39 H 0.28443 0.28152 0.19227 0.0
Dy40 Dy 0.06684 0.21341 0.61604 0.0
Dy41 Dy 0.97125 0.21817 0.6345 0.0
C42 C 0.02391 0.29941 0.62316 0.0
O43 O 0.07087 0.212 0.67799 0.0
O44 O 1.00261 0.21053 0.69129 0.0
O45 O 0.12831 0.23878 0.63327 0.0
O46 O 0.11833 0.19527 0.58571 0.0
O47 O 0.98097 0.15101 0.63182 0.0
O48 O 0.05222 0.1534 0.63766 0.0
O49 O 0.96874 0.20431 0.57272 0.0
O50 O 0.03391 0.18341 0.5635 0.0
O51 O 0.91626 0.20498 0.66189 0.0
O52 O 0.91338 0.24329 0.61637 0.0
C53 C 0.04261 0.20836 0.70173 0.0
O54 O 0.04606 0.27586 0.603 0.0
O55 O 0.99891 0.28272 0.6447 0.0
C56 C 0.16854 0.25013 0.58553 0.0
C57 C 0.21441 0.30911 0.55121 0.0
C58 C 0.23458 0.28354 0.57534 0.0
C59 C 0.21174 0.2543 0.59242 0.0
C60 C 0.14816 0.27611 0.56218 0.0
C61 C 0.17089 0.30528 0.54509 0.0
C62 C 0.14449 0.22143 0.60527 0.0
C63 C 1.01614 0.13497 0.64177 0.0
C64 C 0.99495 0.18723 0.55122 0.0
C65 C 0.86817 0.25717 0.66147 0.0
C66 C 0.81741 0.30876 0.70061 0.0
C67 C 0.86039 0.30909 0.71046 0.0
C68 C 0.8856 0.28354 0.69096 0.0
C69 C 0.82587 0.25819 0.65038 0.0
C70 C 0.80064 0.28384 0.66975 0.0
C71 C 0.89351 0.2283 0.64208 0.0
H72 H 0.26802 0.28591 0.58072 0.0
H73 H 0.22777 0.23501 0.61106 0.0
H74 H 0.11467 0.27372 0.55709 0.0
H75 H 0.15441 0.32389 0.52616 0.0
H76 H 0.87424 0.32741 0.7344 0.0
H77 H 0.9184 0.28343 0.69955 0.0
H78 H 0.81215 0.23839 0.62725 0.0
H79 H 0.76778 0.28318 0.6613 0.0
Dy80 Dy 0.83928 0.97077 1.1022 0.0
Dy81 Dy 0.83125 0.06629 1.08465 0.0
C82 C 0.7509 1.00782 1.08796 0.0
O83 O 0.84377 0.97038 1.04144 0.0
O84 O 0.86089 0.03813 1.03483 0.0
O85 O 0.81854 0.90846 1.08386 0.0
O86 O 0.865 0.92013 0.12954 0.0
O87 O 0.89208 0.06583 0.11551 0.0
O88 O 0.90373 0.99843 1.10121 0.0
O89 O 0.83395 0.06768 0.14739 0.0
O90 O 0.84715 1.00091 0.15957 0.0
O91 O 0.84835 0.12198 1.05999 0.0
O92 O 0.79693 0.1206 1.09431 0.0
C93 C 0.85889 0.99895 1.02203 0.0
O94 O 0.77331 0.98567 0.10947 0.0
O95 O 0.76931 0.03361 1.06802 0.0
C96 C 0.81771 0.86303 0.12967 0.0
C97 C 0.7731 0.80571 0.16672 0.0
C98 C 0.76826 0.84824 0.17334 0.0
C99 C 0.79033 0.87667 0.15487 0.0
C100 C 0.82204 0.82076 0.12233 0.0
C101 C 0.79992 0.79223 0.14075 0.0
C102 C 0.84057 0.89259 0.10988 0.0
C103 C 0.91599 0.03476 0.1174 0.0
C104 C 0.84316 0.03979 0.17098 0.0
C105 C 0.79442 0.16785 1.04907 0.0
C106 C 0.75312 0.22189 1.00417 0.0
C107 C 0.77028 0.18632 0.9889 0.0
C108 C 0.79066 0.15945 1.01116 0.0
C109 C 0.7762 0.20247 1.06446 0.0
C110 C 0.75568 0.22926 1.04224 0.0
C111 C 0.81829 0.14214 1.07325 0.0
H112 H 0.74854 0.85968 0.19373 0.0
H113 H 0.78641 0.9093 0.16053 0.0
H114 H 0.84271 0.80985 1.10252 0.0
H115 H 0.80416 0.7597 0.13503 0.0
H116 H 0.76952 0.18009 0.95965 0.0
H117 H 0.80435 0.13277 0.99872 0.0
H118 H 0.77862 0.20926 1.09373 0.0
H119 H 0.7425 0.25615 1.05482 0.0
Dy120 Dy 0.10153 0.82825 0.62001 0.0
Dy121 Dy 1.00383 0.83032 0.58746 0.0
C122 C 0.04692 0.74371 0.59983 0.0
O123 O 0.10466 0.83531 0.55941 0.0
O124 O 0.03835 0.85095 0.54004 0.0
O125 O 0.16164 0.80795 0.60878 0.0
O126 O 0.15455 0.84487 0.65889 0.0
O127 O 0.02057 0.89224 0.61535 0.0
O128 O 0.08914 0.89217 0.60751 0.0
O129 O 1.00086 0.84082 0.6489 0.0
O130 O 0.06912 0.84131 0.67248 0.0
O131 O 0.95372 0.85044 0.55187 0.0
O132 O 0.94123 0.80741 0.59231 0.0
C133 C 0.078 0.84846 0.53432 0.0
O134 O 0.0771 0.76336 0.62082 0.0
O135 O 0.01967 0.76355 0.58036 0.0
C136 C 0.20459 0.79401 0.66064 0.0
C137 C 0.25106 0.73998 0.7019 0.0
C138 C 0.22795 0.7252 0.66935 0.0
C139 C 0.20483 0.75192 0.64896 0.0
C140 C 0.22883 0.80907 0.69232 0.0
C141 C 0.25162 0.78237 0.71284 0.0
C142 C 0.17919 0.8225 0.64039 0.0
C143 C 0.05768 0.91061 0.6199 0.0
C144 C 0.0292 0.84547 0.67709 0.0
C145 C 0.89725 0.80087 0.53843 0.0
C146 C 0.84007 0.75341 0.48889 0.0
C147 C 0.87928 0.76624 0.47854 0.0
C148 C 0.90769 0.78957 0.50313 0.0
C149 C 0.8587 0.78732 0.5492 0.0
C150 C 0.83037 0.76371 0.52471 0.0
C151 C 0.92604 0.82622 0.5647 0.0
H152 H 0.2269 0.69284 0.66009 0.0
H153 H 0.18657 0.73937 0.62445 0.0
H154 H 0.22923 0.84138 0.70177 0.0
H155 H 0.26804 0.79482 0.73826 0.0
H156 H 0.88757 0.75961 0.45099 0.0
H157 H 0.93746 0.79933 0.49433 0.0
H158 H 0.85035 0.79537 0.57654 0.0
H159 H 0.80067 0.75402 0.53366 0.0
H160 H 0.92953 0.09673 0.17148 0.0
H161 H 0.95799 0.08909 0.23257 0.0
H162 H 1.00352 0.97134 0.19686 0.0
H163 H 0.97041 0.97687 0.13647 0.0
H164 H 0.97911 0.95899 0.25715 0.0
H165 H 0.06034 0.0948 0.22639 0.0
H166 H 0.06028 0.16957 0.21912 0.0
H167 H 0.99363 0.18723 0.31436 0.0
H168 H 0.99387 0.11247 0.32237 0.0
H169 H 0.09883 0.9633 0.17071 0.0
H170 H 0.07075 0.94777 0.22733 0.0
H171 H 0.1354 0.05777 0.28111 0.0
H172 H 0.15993 0.07469 0.22443 0.0
H173 H 0.08158 0.06274 0.31654 0.0
H174 H 0.10741 0.92429 0.2892 0.0
H175 H 0.11397 0.85626 0.31299 0.0
H176 H 0.98681 0.85472 0.33791 0.0
H177 H 0.97954 0.92296 0.31446 0.0
C178 C 0.94642 0.06947 0.17635 0.0
C179 C 0.94693 0.03687 0.14911 0.0
C180 C 0.96304 0.06525 0.21175 0.0
C181 C 0.98277 0.0294 0.22028 0.0
C182 C 0.98717 0.99886 0.19189 0.0
C183 C 0.96911 1.00233 0.15684 0.0
C184 C 1.00076 0.02327 0.25773 0.0
C185 C 1.00256 0.98244 0.26811 0.0
C186 C 0.02668 0.05387 0.27933 0.0
C187 C 0.02624 0.0983 0.27448 0.0
C188 C 0.04563 0.11474 0.24569 0.0
C189 C 0.04562 0.15701 0.24149 0.0
C190 C 0.02671 0.18308 0.26618 0.0
C191 C 1.00801 0.16693 0.29522 0.0
C192 C 1.008 0.12466 0.29956 0.0
C193 C 0.10579 0.98482 0.19441 0.0
C194 C 0.12987 0.02135 0.19216 0.0
C195 C 0.0906 0.97541 0.22747 0.0
C196 C 0.09908 1.00234 0.25939 0.0
C197 C 0.12629 0.03692 0.25735 0.0
C198 C 0.13995 0.04708 0.22426 0.0
C199 C 0.0726 1.00079 0.29128 0.0
C200 C 0.05964 0.04018 0.30169 0.0
C201 C 0.03904 0.97113 0.28742 0.0
C202 C 0.043 0.92907 0.29987 0.0
C203 C 0.08089 0.9097 0.29985 0.0
C204 C 0.08472 0.87095 0.31327 0.0
C205 C 0.05089 0.85118 0.32708 0.0
C206 C 1.01303 0.87 0.32715 0.0
C207 C 1.009 0.90867 0.31356 0.0
H208 H 0.054 0.82128 0.33765 0.0
H209 H 0.0267 0.21581 0.2629 0.0
H210 H 0.12661 0.91716 0.66766 0.0
H211 H 0.128 0.93997 0.73108 0.0
H212 H 1.008 0.99141 0.71051 0.0
H213 H 1.00516 0.96422 0.64798 0.0
H214 H 1.00736 0.96509 0.77635 0.0
H215 H 0.13946 0.95068 0.80365 0.0
H216 H 0.2134 0.93648 0.80301 0.0
H217 H 0.2361 0.04802 0.75116 0.0
H218 H 0.16241 0.06282 0.75119 0.0
H219 H 0.95825 0.12244 0.69067 0.0
H220 H 0.97311 0.09708 0.75055 0.0
H221 H 0.09288 0.06122 0.71831 0.0
H222 H 0.07732 0.08508 0.65961 0.0
H223 H 0.10955 0.08171 0.7877 0.0
H224 H 0.94214 0.98885 0.76593 0.0
H225 H 0.8761 1.00052 0.79237 0.0
H226 H 0.93364 0.10183 0.86213 0.0
H227 H 1.00068 0.08999 0.83698 0.0
C228 C 0.10091 0.93404 0.67669 0.0
C229 C 0.06553 0.93854 0.65295 0.0
C230 C 0.10167 0.94717 0.71348 0.0
C231 C 0.06807 0.96726 0.72697 0.0
C232 C 0.03417 0.97475 0.70206 0.0
C233 C 0.03286 0.96038 0.66568 0.0
C234 C 0.06905 0.98486 0.76546 0.0
C235 C 0.02996 0.99042 0.77846 0.0
C236 C 0.1003 0.01579 0.77772 0.0
C237 C 0.14509 1.00792 0.77767 0.0
C238 C 0.16027 0.97247 0.79254 0.0
C239 C 0.20212 0.96408 0.79189 0.0
C240 C 0.22941 0.99125 0.7769 0.0
C241 C 0.21488 0.02694 0.76266 0.0
C242 C 0.17296 0.03533 0.76298 0.0
C243 C 0.987 0.10745 0.69616 0.0
C244 C 1.0168 0.10586 0.67043 0.0
C245 C 0.99597 0.09381 0.73093 0.0
C246 C 0.03504 0.07879 0.74077 0.0
C247 C 0.06314 0.07439 0.71348 0.0
C248 C 0.05384 0.08701 0.67889 0.0
C249 C 0.04499 0.06273 0.77737 0.0
C250 C 0.08717 0.05589 0.78565 0.0
C251 C 1.0176 0.03064 0.78572 0.0
C252 C 0.97669 0.03862 0.79942 0.0
C253 C 0.94105 1.01344 0.78711 0.0
C254 C 0.90332 0.0201 0.80187 0.0
C255 C 0.90067 0.05196 0.82887 0.0
C256 C 0.93574 0.07728 0.84111 0.0
C257 C 0.97359 0.07069 0.82652 0.0
H258 H 0.87144 0.057 0.84032 0.0
H259 H 0.26184 0.98476 0.7765 0.0
H260 H 0.69515 0.0595 1.05797 0.0
H261 H 0.61961 0.05666 1.05932 0.0
H262 H 0.62534 0.94683 0.11738 0.0
H263 H 0.70111 0.94963 0.11644 0.0
H264 H 0.5597 0.94176 1.06171 0.0
H265 H 0.61244 0.03519 0.16333 0.0
H266 H 0.65385 0.09533 0.19358 0.0
H267 H 0.58619 0.17558 0.12619 0.0
H268 H 0.54475 0.1158 1.09515 0.0
H269 H 0.35269 0.94402 0.1178 0.0
H270 H 0.42763 0.94095 0.11371 0.0
H271 H 0.43152 0.06243 1.07453 0.0
H272 H 0.35713 0.06616 1.07978 0.0
H273 H 0.49327 0.0598 0.12144 0.0
H274 H 0.44099 0.96832 1.01885 0.0
H275 H 0.39973 0.9091 0.98677 0.0
H276 H 0.46596 0.82642 1.05266 0.0
H277 H 0.50725 0.88523 1.08551 0.0
C278 C 0.68044 0.03453 1.07086 0.0
C279 C 0.70451 1.00484 1.08716 0.0
C280 C 0.6371 0.03304 1.07172 0.0
C281 C 0.6165 1.00167 1.08866 0.0
C282 C 0.64031 0.97135 1.10412 0.0
C283 C 0.68376 0.9731 1.10366 0.0
C284 C 0.5704 1.00128 1.09108 0.0
C285 C 0.54519 0.96734 1.07516 0.0
C286 C 0.5511 0.03496 0.10789 0.0
C287 C 0.57578 0.07097 0.12667 0.0
C288 C 0.60661 0.06562 0.15476 0.0
C289 C 0.63005 0.09965 0.17208 0.0
C290 C 0.62273 0.13924 0.16175 0.0
C291 C 0.59186 0.14489 0.13413 0.0
C292 C 0.56837 0.11095 0.11668 0.0
C293 C 0.3694 0.96992 0.10795 0.0
C294 C 0.34855 1.00529 1.09906 0.0
C295 C 0.41245 0.9681 1.10548 0.0
C296 C 0.43578 1.00131 1.09342 0.0
C297 C 0.41473 0.03634 1.08404 0.0
C298 C 0.3719 0.03836 1.08689 0.0
C299 C 0.48209 1.0004 1.09166 0.0
C300 C 0.50751 0.03413 0.10785 0.0
C301 C 0.50147 0.96667 1.07476 0.0
C302 C 0.47691 0.93123 1.0549 0.0
C303 C 0.44656 0.93753 1.02668 0.0
C304 C 0.42319 0.90404 1.00833 0.0
C305 C 0.43013 0.86403 1.01775 0.0
C306 C 0.46056 0.85743 1.04545 0.0
C307 C 0.48398 0.89083 1.06392 0.0
H308 H 0.41198 0.83814 1.00353 0.0
H309 H 0.64091 0.16555 0.1752 0.0
H310 H 0.96614 0.35538 0.64015 0.0
H311 H 0.96981 0.43006 0.63424 0.0
H312 H 0.09132 0.42188 0.59556 0.0
H313 H 0.08733 0.34704 0.60017 0.0
H314 H 0.07702 0.48911 0.65752 0.0
H315 H 0.03027 0.43461 0.5348 0.0
H316 H 0.98384 0.39176 0.48935 0.0
H317 H 0.87932 0.45664 0.52305 0.0
H318 H 0.92512 0.49948 0.56911 0.0
H319 H 0.1104 0.69197 0.60754 0.0
H320 H 0.10658 0.61721 0.60909 0.0
H321 H 0.97294 0.61626 0.59406 0.0
H322 H 0.97706 0.69115 0.58982 0.0
H323 H 0.99256 0.55199 0.56021 0.0
H324 H 0.03629 0.60751 0.68177 0.0
H325 H 0.07993 0.64929 0.73001 0.0
H326 H 0.18594 0.58234 0.70356 0.0
H327 H 0.14308 0.54053 0.65477 0.0
C328 C 0.99368 0.36944 0.63042 0.0
C329 C 0.02643 0.34506 0.62064 0.0
C330 C 0.99569 0.41217 0.62698 0.0
C331 C 0.03084 0.43171 0.61445 0.0
C332 C 0.06389 0.4076 0.6053 0.0
C333 C 0.06149 0.36474 0.60788 0.0
C334 C 0.03302 0.47722 0.61079 0.0
C335 C 0.05895 0.50291 0.63602 0.0
C336 C 1.00855 0.49543 0.58344 0.0
C337 C 0.98103 0.46988 0.55569 0.0
C338 C 0.99732 0.43944 0.53278 0.0
C339 C 0.97115 0.41523 0.50685 0.0
C340 C 0.92863 0.42138 0.5034 0.0
C341 C 0.91225 0.45186 0.5258 0.0
C342 C 0.9383 0.47613 0.55181 0.0
C343 C 0.08016 0.67582 0.60431 0.0
C344 C 0.04401 0.69771 0.59874 0.0
C345 C 0.07793 0.63286 0.60562 0.0
C346 C 0.03937 0.61048 0.60298 0.0
C347 C 1.0032 0.63231 0.59647 0.0
C348 C 1.00551 0.67529 0.59406 0.0
C349 C 0.03687 0.56464 0.60703 0.0
C350 C 1.01072 0.53864 0.5819 0.0
C351 C 0.06075 0.54618 0.63494 0.0
C352 C 0.08652 0.57112 0.66441 0.0
C353 C 0.06896 0.60185 0.68611 0.0
C354 C 0.09355 0.62552 0.71356 0.0
C355 C 0.13567 0.61846 0.7198 0.0
C356 C 0.1533 0.58773 0.69865 0.0
C357 C 0.12887 0.56403 0.67112 0.0
H358 H 0.15468 0.63672 0.74104 0.0
H359 H 0.90841 0.40261 0.4833 0.0
H360 H 0.19835 0.38734 0.53266 0.0
H361 H 0.22468 0.42039 0.4811 0.0
H362 H 0.31042 0.32408 0.46775 0.0
H363 H 0.28444 0.29111 0.51863 0.0
H364 H 0.33806 0.39612 0.43927 0.0
H365 H 0.20733 0.30353 0.43284 0.0
H366 H 0.13708 0.2904 0.4524 0.0
H367 H 0.10316 0.40999 0.42247 0.0
H368 H 0.17337 0.42378 0.40291 0.0
H369 H 0.33044 0.24776 0.30095 0.0
H370 H 0.33252 0.30015 0.3515 0.0
H371 H 0.24701 0.37075 0.28891 0.0
H372 H 0.2439 0.3174 0.23833 0.0
H373 H 0.21795 0.35491 0.34992 0.0
H374 H 0.34331 0.41644 0.32314 0.0
H375 H 0.41393 0.42208 0.30305 0.0
H376 H 0.4604 0.35891 0.39462 0.0
H377 H 0.39004 0.35222 0.415 0.0
C378 C 0.22381 0.37406 0.51944 0.0
C379 C 0.23844 0.33594 0.52891 0.0
C380 C 0.23909 0.39322 0.49026 0.0
C381 C 0.26874 0.37411 0.47009 0.0
C382 C 0.28745 0.33936 0.48288 0.0
C383 C 0.27236 0.32033 0.51202 0.0
C384 C 0.27227 0.38204 0.43155 0.0
C385 C 0.31188 0.38807 0.41941 0.0
C386 C 0.23772 0.37319 0.40568 0.0
C387 C 0.19542 0.36473 0.41666 0.0
C388 C 0.18478 0.32693 0.43041 0.0
C389 C 0.14506 0.31941 0.44152 0.0
C390 C 0.11569 0.34937 0.43871 0.0
C391 C 0.12596 0.38685 0.42466 0.0
C392 C 0.16568 0.39453 0.41355 0.0
C393 C 0.31254 0.27472 0.29775 0.0
C394 C 0.28646 0.27816 0.26601 0.0
C395 C 0.31436 0.30514 0.32642 0.0
C396 C 0.29035 0.3398 0.32388 0.0
C397 C 0.26614 0.34452 0.29131 0.0
C398 C 0.26433 0.314 0.26251 0.0
C399 C 0.28445 0.36556 0.35761 0.0
C400 C 0.24416 0.36582 0.36892 0.0
C401 C 0.31849 0.37995 0.3825 0.0
C402 C 0.36122 0.38401 0.3707 0.0
C403 C 0.36853 0.4036 0.33896 0.0
C404 C 0.40856 0.40698 0.32751 0.0
C405 C 0.44164 0.39092 0.34758 0.0
C406 C 0.43476 0.37146 0.37916 0.0
C407 C 0.39479 0.36799 0.39075 0.0
H408 H 0.4726 0.39354 0.33864 0.0
H409 H 0.08497 0.34352 0.44738 0.0
H410 H 0.74428 0.27776 0.72119 0.0
H411 H 0.71081 0.30034 0.77465 0.0
H412 H 0.79459 0.40827 0.79169 0.0
H413 H 0.82879 0.38532 0.73765 0.0
H414 H 0.80604 0.36271 0.84449 0.0
H415 H 0.68586 0.41693 0.79347 0.0
H416 H 0.62528 0.42429 0.75002 0.0
H417 H 0.57075 0.3095 0.77797 0.0
H418 H 0.63122 0.301 0.82114 0.0
H419 H 0.76499 0.30579 1.01387 0.0
H420 H 0.75235 0.3548 0.96788 0.0
H421 H 0.69311 0.25716 0.89376 0.0
H422 H 0.70408 0.2083 0.9401 0.0
H423 H 0.66344 0.3336 0.87909 0.0
H424 H 0.79755 0.26924 0.90056 0.0
H425 H 0.86031 0.255 0.93915 0.0
H426 H 0.88861 0.3849 0.9616 0.0
H427 H 0.82571 0.3998 0.92335 0.0
C428 C 0.75443 0.30734 0.73513 0.0
C429 C 0.78984 0.32927 0.72566 0.0
C430 C 0.73491 0.32051 0.7658 0.0
C431 C 0.75022 0.35601 0.7875 0.0
C432 C 0.78232 0.38069 0.77547 0.0
C433 C 0.80208 0.36736 0.74479 0.0
C434 C 0.74086 0.35989 0.82621 0.0
C435 C 0.77464 0.35833 0.85231 0.0
C436 C 0.70003 0.35359 0.83658 0.0
C437 C 0.6632 0.35842 0.81075 0.0
C438 C 0.66106 0.39313 0.79028 0.0
C439 C 0.6267 0.39751 0.76567 0.0
C440 C 0.59416 0.36741 0.76127 0.0
C441 C 0.59592 0.33286 0.78149 0.0
C442 C 0.6302 0.32831 0.80614 0.0
C443 C 0.74761 0.29505 0.9884 0.0
C444 C 0.73648 0.25292 0.98022 0.0
C445 C 0.74043 0.32318 0.96212 0.0
C446 C 0.72259 0.30943 0.92721 0.0
C447 C 0.70709 0.26841 0.92051 0.0
C448 C 0.71398 0.24035 0.94681 0.0
C449 C 0.72866 0.33393 0.89573 0.0
C450 C 0.69446 0.34062 0.87143 0.0
C451 C 0.76916 0.34445 0.88652 0.0
C452 C 0.80677 0.33561 0.90961 0.0
C453 C 0.81706 0.29471 0.91395 0.0
C454 C 0.85263 0.28653 0.93571 0.0
C455 C 0.87835 0.31903 0.95293 0.0
C456 C 0.86859 0.35977 0.94834 0.0
C457 C 0.83298 0.36811 0.92665 0.0
H458 H 0.90592 0.31264 0.96973 0.0
H459 H 0.5676 0.37085 0.74219 0.0
H460 H 0.75703 0.76665 0.48084 0.0
H461 H 0.70986 0.74808 0.42683 0.0
H462 H 0.80474 0.67854 0.37911 0.0
H463 H 0.85107 0.69489 0.43386 0.0
H464 H 0.73216 0.78144 0.37069 0.0
H465 H 0.77261 0.61965 0.30602 0.0
H466 H 0.77611 0.54854 0.32408 0.0
H467 H 0.69307 0.57459 0.40666 0.0
H468 H 0.68847 0.64572 0.38878 0.0
H469 H 0.809 0.74161 0.19803 0.0
H470 H 0.78547 0.70707 0.24931 0.0
H471 H 0.67077 0.76917 0.24031 0.0
H472 H 0.69411 0.80391 0.18851 0.0
H473 H 0.72006 0.66284 0.27769 0.0
H474 H 0.66523 0.81988 0.32006 0.0
H475 H 0.67088 0.89215 0.30407 0.0
H476 H 0.79345 0.8745 0.27128 0.0
H477 H 0.78853 0.80232 0.28734 0.0
C478 C 0.7672 0.74569 0.45967 0.0
C479 C 0.8083 0.73322 0.46119 0.0
C480 C 0.7401 0.7351 0.42871 0.0
C481 C 0.75376 0.7123 0.39865 0.0
C482 C 0.7931 0.69584 0.40193 0.0
C483 C 0.82001 0.70595 0.43305 0.0
C484 C 0.7329 0.71525 0.36175 0.0
C485 C 0.72763 0.75512 0.35074 0.0
C486 C 0.72787 0.68119 0.33539 0.0
C487 C 0.7302 0.63818 0.34601 0.0
C488 C 0.75475 0.61019 0.32781 0.0
C489 C 0.75703 0.56986 0.3381 0.0
C490 C 0.73484 0.55706 0.36651 0.0
C491 C 0.7103 0.58457 0.3847 0.0
C492 C 0.70791 0.62493 0.37453 0.0
C493 C 0.77797 0.74655 0.20578 0.0
C494 C 0.75385 0.77633 0.18993 0.0
C495 C 0.76443 0.72654 0.23507 0.0
C496 C 0.72675 0.7362 0.24898 0.0
C497 C 0.70015 0.76165 0.23011 0.0
C498 C 0.71373 0.7818 0.20083 0.0
C499 C 0.7214 0.72879 0.28731 0.0
C500 C 0.72207 0.68849 0.29829 0.0
C501 C 0.72302 0.76239 0.31395 0.0
C502 C 0.72625 0.80574 0.30443 0.0
C503 C 0.69333 0.83152 0.30944 0.0
C504 C 0.69642 0.87241 0.30038 0.0
C505 C 0.73244 0.88785 0.28654 0.0
C506 C 0.76552 0.86248 0.28187 0.0
C507 C 0.76258 0.8216 0.29092 0.0
H508 H 0.73477 0.9195 0.27954 0.0
H509 H 0.73666 0.52583 0.37443 0.0
H510 H 0.21979 0.66382 0.71624 0.0
H511 H 0.23373 0.63217 0.77327 0.0
H512 H 0.33649 0.72033 0.80328 0.0
H513 H 0.32417 0.75068 0.74543 0.0
H514 H 0.34235 0.65518 0.8448 0.0
H515 H 0.23855 0.75074 0.80632 0.0
H516 H 0.17799 0.77205 0.7687 0.0
H517 H 0.10392 0.67046 0.80099 0.0
H518 H 0.16455 0.64774 0.8378 0.0
H519 H 0.3147 0.7988 0.98763 0.0
H520 H 0.32919 0.74896 0.93853 0.0
H521 H 0.22231 0.6729 0.95923 0.0
H522 H 0.2064 0.72358 1.00711 0.0
H523 H 0.21343 0.70119 0.89525 0.0
H524 H 0.31877 0.63074 0.95598 0.0
H525 H 0.38152 0.62181 0.99644 0.0
H526 H 0.45536 0.68964 0.92744 0.0
H527 H 0.39303 0.69957 0.88682 0.0
C528 C 0.24684 0.67504 0.73393 0.0
C529 C 0.2695 0.71124 0.72731 0.0
C530 C 0.25481 0.65678 0.76664 0.0
C531 C 0.28483 0.67522 0.79316 0.0
C532 C 0.3125 0.70617 0.78353 0.0
C533 C 0.30498 0.72399 0.75062 0.0
C534 C 0.27964 0.67213 0.83231 0.0
C535 C 0.31409 0.66464 0.85608 0.0
C536 C 0.24246 0.68401 0.84691 0.0
C537 C 0.20625 0.69701 0.8241 0.0
C538 C 0.20949 0.73262 0.80495 0.0
C539 C 0.17517 0.74496 0.78379 0.0
C540 C 0.13717 0.72249 0.78229 0.0
C541 C 0.13342 0.6877 0.80203 0.0
C542 C 0.16782 0.6749 0.82282 0.0
C543 C 0.29476 0.77104 0.98224 0.0
C544 C 0.2587 0.76581 1.00053 0.0
C545 C 0.30359 0.74206 0.95462 0.0
C546 C 0.27675 0.70715 0.94509 0.0
C547 C 0.2435 0.69955 0.9662 0.0
C548 C 0.23442 0.7287 0.99359 0.0
C549 C 0.27675 0.68603 0.90821 0.0
C550 C 0.24117 0.68937 0.88457 0.0
C551 C 0.31326 0.67182 0.89405 0.0
C552 C 0.35107 0.66589 0.91829 0.0
C553 C 0.34833 0.64398 0.94951 0.0
C554 C 0.38387 0.6387 0.97248 0.0
C555 C 0.4224 0.65514 0.96451 0.0
C556 C 0.4255 0.67685 0.93354 0.0
C557 C 0.39006 0.68222 0.91047 0.0
H558 H 0.44987 0.65103 0.98234 0.0
H559 H 0.1106 0.73212 0.76596 0.0
H560 H 0.84707 0.92312 0.98306 0.0
H561 H 0.87622 0.89803 0.92715 0.0
H562 H 0.9383 0.01675 0.92118 0.0
H563 H 0.90885 0.04228 0.97756 0.0
H564 H 0.99087 0.9564 0.90637 0.0
H565 H 0.85416 0.849 0.84081 0.0
H566 H 0.77766 0.84447 0.83739 0.0
H567 H 0.77658 0.97575 0.85842 0.0
H568 H 0.85296 0.98109 0.86159 0.0
H569 H 0.06761 0.84056 0.74763 0.0
H570 H 0.0424 0.86213 0.806 0.0
H571 H 0.93459 0.90925 0.75022 0.0
H572 H 0.95805 0.88422 0.69237 0.0
H573 H 0.90573 0.88628 0.80057 0.0
H574 H 0.03666 0.99757 0.85355 0.0
H575 H 0.11159 1.01099 0.86876 0.0
H576 H 0.12475 0.88296 0.88487 0.0
H577 H 0.04949 0.86918 0.86973 0.0
C578 C 0.86659 0.94434 0.96991 0.0
C579 C 0.87506 0.98517 0.9855 0.0
C580 C 0.88336 0.92975 0.93745 0.0
C581 C 0.90972 0.95511 0.91895 0.0
C582 C 0.91825 0.99602 0.93435 0.0
C583 C 0.90103 1.01085 0.96676 0.0
C584 C 0.92893 0.93857 0.88447 0.0
C585 C 0.97218 0.94146 0.88295 0.0
C586 C 0.90531 0.91825 0.85369 0.0
C587 C 0.85934 0.91537 0.85173 0.0
C588 C 0.83759 0.8769 0.84459 0.0
C589 C 0.79423 0.87419 0.84272 0.0
C590 C 0.77227 0.90979 0.84778 0.0
C591 C 0.79362 0.94818 0.85463 0.0
C592 C 0.83695 0.95106 0.85651 0.0
C593 C 0.0384 0.85543 0.74779 0.0
C594 C 1.015 0.8598 0.71443 0.0
C595 C 0.02402 0.86899 0.78196 0.0
C596 C 0.98617 0.88899 0.78463 0.0
C597 C 0.96335 0.89359 0.75082 0.0
C598 C 0.97713 0.87924 0.71695 0.0
C599 C 0.96881 0.90469 0.82103 0.0
C600 C 0.92519 0.90161 0.82327 0.0
C601 C 0.9924 0.92502 0.85259 0.0
C602 C 0.03814 0.93152 0.85647 0.0
C603 C 0.05591 0.97191 0.85826 0.0
C604 C 0.0983 0.97981 0.86782 0.0
C605 C 0.12325 0.94766 0.87689 0.0
C606 C 0.10562 0.9077 0.8769 0.0
C607 C 0.06309 0.89983 0.86762 0.0
H608 H 0.15608 0.95384 0.88441 0.0
H609 H 0.73872 0.90762 0.84634 0.0
H610 H 0.20002 0.92094 0.21412 0.0
H611 H 0.17801 0.89954 0.27121 0.0
H612 H 0.21461 0.01972 0.32329 0.0
H613 H 0.23633 0.04204 0.26489 0.0
H614 H 0.14411 0.99569 0.3492 0.0
H615 H 0.18187 0.8233 0.32699 0.0
H616 H 0.23346 0.7814 0.2982 0.0
H617 H 0.32088 0.88564 0.30945 0.0
H618 H 0.26999 0.92808 0.3387 0.0
H619 H 0.03514 0.88014 0.47466 0.0
H620 H 0.06267 0.90641 0.4203 0.0
H621 H 0.18595 0.87808 0.46028 0.0
H622 H 0.15853 0.85104 0.514 0.0
H623 H 0.18175 0.86061 0.39211 0.0
H624 H 0.14896 0.98255 0.46078 0.0
H625 H 0.10412 0.0273 0.49526 0.0
H626 H 0.01906 0.02949 0.40007 0.0
H627 H 0.06298 0.98392 0.36539 0.0
C628 C 0.20428 0.94312 0.23758 0.0
C629 C 0.22079 0.9835 0.23406 0.0
C630 C 0.19149 0.93052 0.27081 0.0
C631 C 0.19475 0.95736 0.30271 0.0
C632 C 0.2116 0.99778 0.29964 0.0
C633 C 0.2246 1.01056 0.26604 0.0
C634 C 0.18001 0.94281 0.3384 0.0
C635 C 0.15256 0.96613 0.35838 0.0
C636 C 0.19087 0.90446 0.35182 0.0
C637 C 0.22188 0.87901 0.33467 0.0
C638 C 0.21212 0.83729 0.32342 0.0
C639 C 0.24124 0.81343 0.307 0.0
C640 C 0.28037 0.83089 0.30187 0.0
C641 C 0.2905 0.8722 0.3133 0.0
C642 C 0.26151 0.89619 0.32976 0.0
C643 C 0.06813 0.87923 0.47195 0.0
C644 C 0.09424 0.86307 0.49942 0.0
C645 C 0.08411 0.89481 0.44067 0.0
C646 C 0.12701 0.89533 0.43559 0.0
C647 C 0.15288 0.8785 0.46274 0.0
C648 C 0.13695 0.86288 0.49388 0.0
C649 C 0.14501 0.91285 0.40234 0.0
C650 C 0.17318 0.89011 0.38287 0.0
C651 C 0.13544 0.95199 0.38992 0.0
C652 C 0.10919 0.97977 0.41046 0.0
C653 C 0.12061 0.99246 0.44725 0.0
C654 C 0.09533 0.01789 0.46687 0.0
C655 C 0.0587 0.0311 0.44991 0.0
C656 C 0.04739 0.01913 0.41321 0.0
C657 C 0.07251 0.99355 0.39353 0.0
H658 H 0.0391 0.05053 0.46527 0.0
H659 H 0.30286 0.81237 0.28913 0.0
H660 H 0.99536 0.18328 0.7569 0.0
H661 H 0.01828 0.15658 0.81461 0.0
H662 H 0.14575 0.18276 0.79423 0.0
H663 H 0.12259 0.20557 0.73488 0.0
H664 H 0.15516 0.12621 0.82791 0.0
H665 H 0.07403 0.23699 0.86591 0.0
H666 H 1.01342 0.27982 0.8695 0.0
H667 H 0.9419 0.17784 0.90416 0.0
H668 H 1.002 0.13434 0.90052 0.0
H669 H 0.18121 1.01042 0.98562 0.0
H670 H 0.155 0.03757 0.92837 0.0
H671 H 0.13891 0.15479 0.98576 0.0
H672 H 0.16471 0.12772 1.04295 0.0
H673 H 0.07628 0.14276 0.93688 0.0
H674 H 0.17508 0.04406 0.84743 0.0
H675 H 0.24338 1.01301 0.85335 0.0
H676 H 0.2901 0.11243 0.93045 0.0
H677 H 0.222 0.14351 0.92548 0.0
C678 C 0.02835 0.18374 0.76468 0.0
C679 C 0.05671 0.19704 0.74032 0.0
C680 C 0.04183 0.16862 0.79859 0.0
C681 C 0.08448 0.16776 0.81094 0.0
C682 C 0.11272 0.18209 0.78672 0.0
C683 C 0.09925 0.19591 0.75231 0.0
C684 C 0.09975 0.1512 0.84788 0.0
C685 C 0.13704 0.12994 0.85119 0.0
C686 C 0.07854 0.15626 0.88034 0.0
C687 C 0.04233 0.18225 0.88241 0.0
C688 C 0.04528 0.22364 0.87405 0.0
C689 C 1.01104 0.24805 0.87615 0.0
C690 C 0.97378 0.23152 0.88692 0.0
C691 C 0.97073 0.19058 0.89573 0.0
C692 C 1.00488 0.16604 0.89367 0.0
C693 C 0.17214 0.04201 0.98626 0.0
C694 C 0.17562 0.06653 1.01969 0.0
C695 C 0.15716 0.05782 0.95307 0.0
C696 C 0.14493 0.09892 0.95165 0.0
C697 C 0.14775 0.12313 0.98516 0.0
C698 C 0.16289 0.10743 1.01827 0.0
C699 C 0.12993 0.11678 0.91566 0.0
C700 C 0.0933 0.1386 0.91291 0.0
C701 C 0.15232 0.11364 0.88416 0.0
C702 C 0.19362 0.09602 0.88591 0.0
C703 C 0.2001 0.05938 0.86526 0.0
C704 C 0.23865 0.04173 0.86859 0.0
C705 C 0.27107 0.06088 0.89198 0.0
C706 C 0.265 0.09765 0.91227 0.0
C707 C 0.22641 0.11519 0.90934 0.0
H708 H 0.30086 0.04713 0.89449 0.0
H709 H 0.94731 0.25047 0.88855 0.0
H710 H 0.88623 0.99815 0.2232 0.0
H711 H 0.91308 0.02215 0.28465 0.0
H712 H 0.85118 0.13564 0.27432 0.0
H713 H 0.82844 0.1132 0.2108 0.0
H714 H 0.90924 0.15928 0.31361 0.0
H715 H 0.82635 0.03808 0.33336 0.0
H716 H 0.80204 0.96481 0.32511 0.0
H717 H 0.9242 0.92906 0.35933 0.0
H718 H 0.94945 1.00205 0.36703 0.0
H719 H 0.92363 0.20594 0.51012 0.0
H720 H 0.89856 0.18135 0.4474 0.0
H721 H 1.00527 0.10853 0.43947 0.0
H722 H 0.0311 0.1336 0.50213 0.0
H723 H 0.92546 0.06422 0.41186 0.0
H724 H 1.0042 0.18887 0.39601 0.0
H725 H 0.02408 0.26298 0.40691 0.0
H726 H 0.9011 0.29272 0.3687 0.0
H727 H 0.88029 0.21873 0.35809 0.0
C728 C 0.87763 0.02806 0.23398 0.0
C729 C 0.85449 0.05328 0.21126 0.0
C730 C 0.89283 0.04189 0.27006 0.0
C731 C 0.88363 0.08075 0.28635 0.0
C732 C 0.85956 0.10561 0.26371 0.0
C733 C 0.84586 0.09245 0.22697 0.0
C734 C 0.89986 0.09591 0.3259 0.0
C735 C 0.91158 0.13811 0.33487 0.0
C736 C 0.90487 0.06939 0.35502 0.0
C737 C 0.88981 0.02551 0.35056 0.0
C738 C 0.84805 0.01456 0.33896 0.0
C739 C 0.83414 0.97309 0.33431 0.0
C740 C 0.8616 0.94231 0.34156 0.0
C741 C 0.90302 0.95294 0.35358 0.0
C742 C 0.91715 0.99434 0.35811 0.0
C743 C 0.94202 0.1847 0.49524 0.0
C744 C 0.97972 0.17208 0.51198 0.0
C745 C 0.9275 0.17055 0.45899 0.0
C746 C 0.94958 0.14252 0.43801 0.0
C747 C 0.98709 0.12964 0.45469 0.0
C748 C 1.00207 0.14438 0.49074 0.0
C749 C 0.93372 0.12706 0.39895 0.0
C750 C 0.92232 0.08501 0.3903 0.0
C751 C 0.9281 0.15376 0.37042 0.0
C752 C 0.94053 0.19824 0.37671 0.0
C753 C 0.98124 0.21121 0.39035 0.0
C754 C 0.99273 0.25319 0.39635 0.0
C755 C 0.96383 0.28254 0.38863 0.0
C756 C 0.92343 0.26995 0.37474 0.0
C757 C 0.91179 0.22799 0.36868 0.0
H758 H 0.97277 0.31503 0.39331 0.0
H759 H 0.85076 0.91023 0.33795 0.0
loop_
_geom_bond_atom_site_label_1
_geom_bond_atom_site_label_2
_geom_bond_distance
_geom_bond_site_symmetry_2
_ccdc_geom_bond_type
Dy0 O3 2.307 . S
Dy0 O5 2.395 1_554 S
Dy0 O6 2.379 1_554 S
Dy0 O8 2.339 . S
Dy0 O10 2.298 1_564 S
Dy0 O14 2.275 1_565 S
Dy0 C22 2.738 1_554 S
Dy1 O4 2.298 . S
Dy1 O7 2.275 . S
Dy1 O9 2.307 . S
Dy1 O11 2.395 . S
Dy1 O12 2.379 . S
Dy1 O15 2.339 . S
Dy1 C31 2.738 . S
C2 O14 1.254 . S
C2 O15 1.257 . S
O3 Dy0 2.307 . S
O3 C13 1.266 . S
O4 Dy1 2.298 . S
O4 C13 1.236 1_545 S
O5 Dy0 2.395 1_556 S
O5 C22 1.255 . S
O6 Dy0 2.379 1_556 S
O6 C22 1.249 . S
O7 Dy1 2.275 . S
O7 C23 1.254 . S
O8 Dy0 2.339 . S
O8 C23 1.257 1_565 S
O9 Dy1 2.307 . S
O9 C24 1.266 1_554 S
O10 Dy0 2.298 1_546 S
O10 C24 1.236 . S
O11 Dy1 2.395 . S
O11 C31 1.255 . S
O12 Dy1 2.379 . S
O12 C31 1.249 . S
C13 O3 1.266 . S
C13 O4 1.236 1_565 S
O14 Dy0 2.275 1_545 S
O14 C2 1.254 . S
O15 Dy1 2.339 . S
O15 C2 1.257 . S
C16 C19 1.344 . S
C16 C20 1.328 . S
C16 C22 1.516 . S
C17 C18 1.304 . S
C17 C21 1.323 . S
C18 C17 1.304 . S
C18 C19 1.371 . S
C18 H32 0.930 . S
C19 C16 1.344 . S
C19 C18 1.371 . S
C19 H33 0.931 . S
C20 C16 1.328 . S
C20 C21 1.433 . S
C20 H34 0.931 . S
C21 C17 1.323 . S
C21 C20 1.433 . S
C21 H35 0.933 . S
C22 Dy0 2.738 1_556 S
C22 O5 1.255 . S
C22 O6 1.249 . S
C22 C16 1.516 . S
C23 O7 1.254 . S
C23 O8 1.257 1_545 S
C24 O9 1.266 1_556 S
C24 O10 1.236 . S
C25 C28 1.344 . S
C25 C29 1.328 . S
C25 C31 1.516 . S
C26 C27 1.304 . S
C26 C30 1.323 . S
C27 C26 1.304 . S
C27 C28 1.371 . S
C27 H36 0.930 . S
C28 C25 1.344 . S
C28 C27 1.371 . S
C28 H37 0.931 . S
C29 C25 1.328 . S
C29 C30 1.433 . S
C29 H38 0.931 . S
C30 C26 1.323 . S
C30 C29 1.433 . S
C30 H39 0.933 . S
C31 Dy1 2.738 . S
C31 O11 1.255 . S
C31 O12 1.249 . S
C31 C25 1.516 . S
H32 C18 0.930 . S
H33 C19 0.931 . S
H34 C20 0.931 . S
H35 C21 0.933 . S
H36 C27 0.930 . S
H37 C28 0.931 . S
H38 C29 0.931 . S
H39 C30 0.933 . S
Dy40 O43 2.307 . S
Dy40 O45 2.395 . S
Dy40 O46 2.379 . S
Dy40 O48 2.339 . S
Dy40 O50 2.298 . S
Dy40 O54 2.275 . S
Dy40 C62 2.738 . S
Dy41 O44 2.298 1_655 S
Dy41 O47 2.275 1_655 S
Dy41 O49 2.307 . S
Dy41 O51 2.395 . S
Dy41 O52 2.379 . S
Dy41 O55 2.339 . S
Dy41 C71 2.738 . S
C42 O54 1.254 . S
C42 O55 1.257 1_455 S
O43 Dy40 2.307 . S
O43 C53 1.266 . S
O44 Dy41 2.298 1_455 S
O44 C53 1.236 . S
O45 Dy40 2.395 . S
O45 C62 1.255 . S
O46 Dy40 2.379 . S
O46 C62 1.249 . S
O47 Dy41 2.275 1_455 S
O47 C63 1.254 . S
O48 Dy40 2.339 . S
O48 C63 1.257 . S
O49 Dy41 2.307 . S
O49 C64 1.266 . S
O50 Dy40 2.298 . S
O50 C64 1.236 1_455 S
O51 Dy41 2.395 . S
O51 C71 1.255 . S
O52 Dy41 2.379 . S
O52 C71 1.249 . S
C53 O43 1.266 . S
C53 O44 1.236 . S
O54 Dy40 2.275 . S
O54 C42 1.254 . S
O55 Dy41 2.339 . S
O55 C42 1.257 1_655 S
C56 C59 1.344 . S
C56 C60 1.328 . S
C56 C62 1.516 . S
C57 C58 1.304 . S
C57 C61 1.323 . S
C58 C57 1.304 . S
C58 C59 1.371 . S
C58 H72 0.930 . S
C59 C56 1.344 . S
C59 C58 1.371 . S
C59 H73 0.931 . S
C60 C56 1.328 . S
C60 C61 1.433 . S
C60 H74 0.931 . S
C61 C57 1.323 . S
C61 C60 1.433 . S
C61 H75 0.933 . S
C62 Dy40 2.738 . S
C62 O45 1.255 . S
C62 O46 1.249 . S
C62 C56 1.516 . S
C63 O47 1.254 . S
C63 O48 1.257 . S
C64 O49 1.266 . S
C64 O50 1.236 1_655 S
C65 C68 1.344 . S
C65 C69 1.328 . S
C65 C71 1.516 . S
C66 C67 1.304 . S
C66 C70 1.323 . S
C67 C66 1.304 . S
C67 C68 1.371 . S
C67 H76 0.930 . S
C68 C65 1.344 . S
C68 C67 1.371 . S
C68 H77 0.931 . S
C69 C65 1.328 . S
C69 C70 1.433 . S
C69 H78 0.931 . S
C70 C66 1.323 . S
C70 C69 1.433 . S
C70 H79 0.933 . S
C71 Dy41 2.738 . S
C71 O51 1.255 . S
C71 O52 1.249 . S
C71 C65 1.516 . S
H72 C58 0.930 . S
H73 C59 0.931 . S
H74 C60 0.931 . S
H75 C61 0.933 . S
H76 C67 0.930 . S
H77 C68 0.931 . S
H78 C69 0.931 . S
H79 C70 0.933 . S
Dy80 O83 2.307 1_554 S
Dy80 O85 2.395 . S
Dy80 O86 2.379 . S
Dy80 O88 2.339 . S
Dy80 O90 2.298 1_565 S
Dy80 O94 2.275 . S
Dy80 C102 2.738 . S
Dy81 O84 2.298 1_545 S
Dy81 O87 2.275 1_556 S
Dy81 O89 2.307 1_556 S
Dy81 O91 2.395 . S
Dy81 O92 2.379 . S
Dy81 O95 2.339 . S
Dy81 C111 2.738 . S
C82 O94 1.254 1_545 S
C82 O95 1.257 1_554 S
O83 Dy80 2.307 1_556 S
O83 C93 1.266 . S
O84 Dy81 2.298 1_565 S
O84 C93 1.236 . S
O85 Dy80 2.395 . S
O85 C102 1.255 . S
O86 Dy80 2.379 . S
O86 C102 1.249 . S
O87 Dy81 2.275 1_554 S
O87 C103 1.254 1_545 S
O88 Dy80 2.339 . S
O88 C103 1.257 . S
O89 Dy81 2.307 1_554 S
O89 C104 1.266 . S
O90 Dy80 2.298 1_545 S
O90 C104 1.236 . S
O91 Dy81 2.395 . S
O91 C111 1.255 . S
O92 Dy81 2.379 . S
O92 C111 1.249 . S
C93 O83 1.266 . S
C93 O84 1.236 . S
O94 Dy80 2.275 . S
O94 C82 1.254 1_565 S
O95 Dy81 2.339 . S
O95 C82 1.257 1_556 S
C96 C99 1.344 . S
C96 C100 1.328 . S
C96 C102 1.516 . S
C97 C98 1.304 . S
C97 C101 1.323 . S
C98 C97 1.304 . S
C98 C99 1.371 . S
C98 H112 0.930 . S
C99 C96 1.344 . S
C99 C98 1.371 . S
C99 H113 0.931 . S
C100 C96 1.328 . S
C100 C101 1.433 . S
C100 H114 0.931 . S
C101 C97 1.323 . S
C101 C100 1.433 . S
C101 H115 0.933 . S
C102 Dy80 2.738 . S
C102 O85 1.255 . S
C102 O86 1.249 . S
C102 C96 1.516 . S
C103 O87 1.254 1_565 S
C103 O88 1.257 . S
C104 O89 1.266 . S
C104 O90 1.236 . S
C105 C108 1.344 . S
C105 C109 1.328 . S
C105 C111 1.516 . S
C106 C107 1.304 . S
C106 C110 1.323 . S
C107 C106 1.304 . S
C107 C108 1.371 . S
C107 H116 0.930 . S
C108 C105 1.344 . S
C108 C107 1.371 . S
C108 H117 0.931 . S
C109 C105 1.328 . S
C109 C110 1.433 . S
C109 H118 0.931 . S
C110 C106 1.323 . S
C110 C109 1.433 . S
C110 H119 0.933 . S
C111 Dy81 2.738 . S
C111 O91 1.255 . S
C111 O92 1.249 . S
C111 C105 1.516 . S
H112 C98 0.930 . S
H113 C99 0.931 . S
H114 C100 0.931 . S
H115 C101 0.933 . S
H116 C107 0.930 . S
H117 C108 0.931 . S
H118 C109 0.931 . S
H119 C110 0.933 . S
Dy120 O123 2.307 . S
Dy120 O125 2.395 . S
Dy120 O126 2.379 . S
Dy120 O128 2.339 . S
Dy120 O130 2.298 1_455 S
Dy120 O134 2.275 . S
Dy120 C142 2.738 . S
Dy121 O124 2.298 1_655 S
Dy121 O127 2.275 . S
Dy121 O129 2.307 . S
Dy121 O131 2.395 . S
Dy121 O132 2.379 . S
Dy121 O135 2.339 . S
Dy121 C151 2.738 . S
C122 O134 1.254 1_655 S
C122 O135 1.257 . S
O123 Dy120 2.307 . S
O123 C133 1.266 . S
O124 Dy121 2.298 1_455 S
O124 C133 1.236 . S
O125 Dy120 2.395 . S
O125 C142 1.255 . S
O126 Dy120 2.379 . S
O126 C142 1.249 . S
O127 Dy121 2.275 . S
O127 C143 1.254 1_655 S
O128 Dy120 2.339 . S
O128 C143 1.257 . S
O129 Dy121 2.307 . S
O129 C144 1.266 . S
O130 Dy120 2.298 1_655 S
O130 C144 1.236 . S
O131 Dy121 2.395 . S
O131 C151 1.255 . S
O132 Dy121 2.379 . S
O132 C151 1.249 . S
C133 O123 1.266 . S
C133 O124 1.236 . S
O134 Dy120 2.275 . S
O134 C122 1.254 1_455 S
O135 Dy121 2.339 . S
O135 C122 1.257 . S
C136 C139 1.344 . S
C136 C140 1.328 . S
C136 C142 1.516 . S
C137 C138 1.304 . S
C137 C141 1.323 . S
C138 C137 1.304 . S
C138 C139 1.371 . S
C138 H152 0.930 . S
C139 C136 1.344 . S
C139 C138 1.371 . S
C139 H153 0.931 . S
C140 C136 1.328 . S
C140 C141 1.433 . S
C140 H154 0.931 . S
C141 C137 1.323 . S
C141 C140 1.433 . S
C141 H155 0.933 . S
C142 Dy120 2.738 . S
C142 O125 1.255 . S
C142 O126 1.249 . S
C142 C136 1.516 . S
C143 O127 1.254 1_455 S
C143 O128 1.257 . S
C144 O129 1.266 . S
C144 O130 1.236 . S
C145 C148 1.344 . S
C145 C149 1.328 . S
C145 C151 1.516 . S
C146 C147 1.304 . S
C146 C150 1.323 . S
C147 C146 1.304 . S
C147 C148 1.371 . S
C147 H156 0.930 . S
C148 C145 1.344 . S
C148 C147 1.371 . S
C148 H157 0.931 . S
C149 C145 1.328 . S
C149 C150 1.433 . S
C149 H158 0.931 . S
C150 C146 1.323 . S
C150 C149 1.433 . S
C150 H159 0.933 . S
C151 Dy121 2.738 . S
C151 O131 1.255 . S
C151 O132 1.249 . S
C151 C145 1.516 . S
H152 C138 0.930 . S
H153 C139 0.931 . S
H154 C140 0.931 . S
H155 C141 0.933 . S
H156 C147 0.930 . S
H157 C148 0.931 . S
H158 C149 0.931 . S
H159 C150 0.933 . S
H160 C178 0.951 . S
H161 C180 0.951 . S
H162 C182 0.950 . S
H163 C183 0.950 . S
H164 C185 0.950 . S
H165 C188 0.950 . S
H166 C189 0.950 . S
H167 C191 0.950 . S
H168 C192 0.950 . S
H169 C193 0.951 . S
H170 C195 0.951 . S
H171 C197 0.950 . S
H172 C198 0.950 . S
H173 C200 0.950 . S
H174 C203 0.950 . S
H175 C204 0.950 . S
H176 C206 0.950 . S
H177 C207 0.950 1_556 S
C178 H160 0.951 . S
C178 C179 1.362 1_545 S
C178 C180 1.388 . S
C179 C178 1.362 1_565 S
C179 C183 1.388 1_554 S
C180 H161 0.951 . S
C180 C178 1.388 . S
C180 C181 1.366 . S
C181 C180 1.366 . S
C181 C182 1.414 1_544 S
C181 C184 1.499 . S
C182 H162 0.950 . S
C182 C181 1.414 1_566 S
C182 C183 1.374 . S
C183 H163 0.950 . S
C183 C179 1.388 1_556 S
C183 C182 1.374 . S
C184 C181 1.499 . S
C184 C185 1.373 1_545 S
C184 C186 1.389 . S
C185 H164 0.950 . S
C185 C184 1.373 1_565 S
C185 C201 1.377 1_655 S
C186 C184 1.389 . S
C186 C187 1.524 . S
C186 C200 1.377 1_655 S
C187 C186 1.524 . S
C187 C188 1.397 1_554 S
C187 C192 1.363 . S
C188 H165 0.950 . S
C188 C187 1.397 1_556 S
C188 C189 1.334 . S
C189 H166 0.950 . S
C189 C188 1.334 . S
C189 C190 1.287 1_556 S
C190 C189 1.287 1_554 S
C190 C191 1.524 . S
C190 H209 0.913 1_554 S
C191 H167 0.950 . S
C191 C190 1.524 . S
C191 C192 1.415 . S
C192 H168 0.950 . S
C192 C187 1.363 . S
C192 C191 1.415 . S
C193 H169 0.951 . S
C193 C194 1.366 1_565 S
C193 C195 1.388 . S
C194 C193 1.366 1_545 S
C194 C198 1.385 . S
C195 H170 0.951 . S
C195 C193 1.388 . S
C195 C196 1.366 1_565 S
C196 C195 1.366 1_545 S
C196 C197 1.414 . S
C196 C199 1.499 . S
C197 H171 0.950 . S
C197 C196 1.414 . S
C197 C198 1.374 . S
C198 H172 0.950 . S
C198 C194 1.385 . S
C198 C197 1.374 . S
C199 C196 1.499 . S
C199 C200 1.373 . S
C199 C201 1.389 1_545 S
C200 H173 0.950 . S
C200 C186 1.377 1_455 S
C200 C199 1.373 . S
C201 C185 1.377 1_455 S
C201 C199 1.389 1_565 S
C201 C202 1.524 . S
C202 C201 1.524 . S
C202 C203 1.397 . S
C202 C207 1.363 . S
C203 H174 0.950 . S
C203 C202 1.397 . S
C203 C204 1.334 . S
C204 H175 0.950 . S
C204 C203 1.334 . S
C204 C205 1.287 . S
C205 C204 1.287 . S
C205 C206 1.524 . S
C205 H208 0.999 . S
C206 H176 0.950 . S
C206 C205 1.524 . S
C206 C207 1.415 . S
C207 H177 0.950 1_554 S
C207 C202 1.363 . S
C207 C206 1.415 . S
H208 C205 0.999 . S
H209 C190 0.913 1_556 S
H210 C228 0.950 . S
H211 C230 0.951 . S
H212 C232 0.950 . S
H213 C233 0.950 . S
H214 C235 0.950 . S
H215 C238 0.950 . S
H216 C239 0.950 . S
H217 C241 0.950 . S
H218 C242 0.938 1_545 S
H219 C243 0.951 . S
H220 C245 0.951 . S
H221 C247 0.950 . S
H222 C248 0.950 . S
H223 C250 0.950 . S
H224 C253 0.950 . S
H225 C254 0.950 . S
H226 C256 0.950 . S
H227 C257 0.950 . S
C228 H210 0.950 . S
C228 C229 1.365 . S
C228 C230 1.388 1_655 S
C229 C228 1.365 . S
C229 C233 1.386 1_655 S
C230 H211 0.951 . S
C230 C228 1.388 1_455 S
C230 C231 1.366 . S
C231 C230 1.366 . S
C231 C232 1.414 . S
C231 C234 1.499 . S
C232 H212 0.950 . S
C232 C231 1.414 . S
C232 C233 1.374 . S
C233 H213 0.950 . S
C233 C229 1.386 1_455 S
C233 C232 1.374 . S
C234 C231 1.499 . S
C234 C235 1.373 1_455 S
C234 C236 1.389 . S
C235 H214 0.950 . S
C235 C234 1.373 1_655 S
C235 C251 1.377 1_565 S
C236 C234 1.389 . S
C236 C237 1.524 . S
C236 C250 1.377 1_565 S
C237 C236 1.524 . S
C237 C238 1.397 . S
C237 C242 1.363 . S
C238 H215 0.950 . S
C238 C237 1.397 . S
C238 C239 1.334 . S
C239 H216 0.950 . S
C239 C238 1.334 . S
C239 C240 1.287 . S
C240 C239 1.287 . S
C240 C241 1.524 . S
C240 H259 0.913 . S
C241 H217 0.950 . S
C241 C240 1.524 . S
C241 C242 1.415 . S
C242 H218 0.938 1_565 S
C242 C237 1.363 . S
C242 C241 1.415 . S
C243 H219 0.951 . S
C243 C244 1.366 . S
C243 C245 1.388 . S
C244 C243 1.366 . S
C244 C248 1.385 . S
C245 H220 0.951 . S
C245 C243 1.388 . S
C245 C246 1.366 . S
C246 C245 1.366 . S
C246 C247 1.414 . S
C246 C249 1.499 . S
C247 H221 0.950 . S
C247 C246 1.414 . S
C247 C248 1.374 . S
C248 H222 0.950 . S
C248 C244 1.385 . S
C248 C247 1.374 . S
C249 C246 1.499 . S
C249 C250 1.373 . S
C249 C251 1.389 1_455 S
C250 H223 0.950 . S
C250 C236 1.377 1_545 S
C250 C249 1.373 . S
C251 C235 1.377 1_545 S
C251 C249 1.389 1_655 S
C251 C252 1.524 . S
C252 C251 1.524 . S
C252 C253 1.397 . S
C252 C257 1.363 . S
C253 H224 0.950 . S
C253 C252 1.397 . S
C253 C254 1.334 . S
C254 H225 0.950 . S
C254 C253 1.334 . S
C254 C255 1.287 . S
C255 C254 1.287 . S
C255 C256 1.524 . S
C255 H258 0.999 . S
C256 H226 0.950 . S
C256 C255 1.524 . S
C256 C257 1.415 . S
C257 H227 0.950 . S
C257 C252 1.363 . S
C257 C256 1.415 . S
H258 C255 0.999 . S
H259 C240 0.913 . S
H260 C278 0.951 1_556 S
H261 C280 0.951 1_556 S
H262 C282 0.950 . S
H263 C283 0.950 . S
H264 C285 0.950 . S
H265 C288 0.950 . S
H266 C289 0.950 . S
H267 C291 0.950 . S
H268 C292 0.950 . S
H269 C293 0.951 . S
H270 C295 0.951 . S
H271 C297 0.950 . S
H272 C298 0.950 . S
H273 C300 0.950 . S
H274 C303 0.950 . S
H275 C304 0.950 . S
H276 C306 0.950 . S
H277 C307 0.950 . S
C278 H260 0.951 1_554 S
C278 C279 1.366 1_545 S
C278 C280 1.388 . S
C279 C278 1.366 1_565 S
C279 C283 1.385 . S
C280 H261 0.951 1_554 S
C280 C278 1.388 . S
C280 C281 1.366 . S
C281 C280 1.366 . S
C281 C282 1.414 1_545 S
C281 C284 1.499 . S
C282 H262 0.950 . S
C282 C281 1.414 1_565 S
C282 C283 1.374 . S
C283 H263 0.950 . S
C283 C279 1.385 . S
C283 C282 1.374 . S
C284 C281 1.499 . S
C284 C285 1.373 1_545 S
C284 C286 1.389 . S
C285 H264 0.950 . S
C285 C284 1.373 1_565 S
C285 C301 1.377 . S
C286 C284 1.389 . S
C286 C287 1.524 . S
C286 C300 1.377 . S
C287 C286 1.524 . S
C287 C288 1.397 . S
C287 C292 1.363 . S
C288 H265 0.950 . S
C288 C287 1.397 . S
C288 C289 1.334 . S
C289 H266 0.950 . S
C289 C288 1.334 . S
C289 C290 1.287 . S
C290 C289 1.287 . S
C290 C291 1.524 . S
C290 H309 0.913 . S
C291 H267 0.950 . S
C291 C290 1.524 . S
C291 C292 1.415 . S
C292 H268 0.950 . S
C292 C287 1.363 . S
C292 C291 1.415 . S
C293 H269 0.951 . S
C293 C294 1.366 1_565 S
C293 C295 1.388 . S
C294 C293 1.366 1_545 S
C294 C298 1.385 . S
C295 H270 0.951 . S
C295 C293 1.388 . S
C295 C296 1.366 1_565 S
C296 C295 1.366 1_545 S
C296 C297 1.414 . S
C296 C299 1.499 . S
C297 H271 0.950 . S
C297 C296 1.414 . S
C297 C298 1.374 . S
C298 H272 0.950 . S
C298 C294 1.385 . S
C298 C297 1.374 . S
C299 C296 1.499 . S
C299 C300 1.373 . S
C299 C301 1.389 1_545 S
C300 H273 0.950 . S
C300 C286 1.377 . S
C300 C299 1.373 . S
C301 C285 1.377 . S
C301 C299 1.389 1_565 S
C301 C302 1.524 1_554 S
C302 C301 1.524 1_556 S
C302 C303 1.397 . S
C302 C307 1.363 1_556 S
C303 H274 0.950 . S
C303 C302 1.397 . S
C303 C304 1.334 . S
C304 H275 0.950 . S
C304 C303 1.334 . S
C304 C305 1.287 . S
C305 C304 1.287 . S
C305 C306 1.524 . S
C305 H308 0.999 . S
C306 H276 0.950 . S
C306 C305 1.524 . S
C306 C307 1.415 1_556 S
C307 H277 0.950 . S
C307 C302 1.363 1_554 S
C307 C306 1.415 1_554 S
H308 C305 0.999 . S
H309 C290 0.913 . S
H310 C328 0.951 . S
H311 C330 0.951 . S
H312 C332 0.950 . S
H313 C333 0.950 . S
H314 C335 0.950 . S
H315 C338 0.950 . S
H316 C339 0.950 . S
H317 C341 0.950 . S
H318 C342 0.950 . S
H319 C343 0.951 . S
H320 C345 0.951 . S
H321 C347 0.950 . S
H322 C348 0.950 . S
H323 C350 0.950 1_655 S
H324 C353 0.950 . S
H325 C354 0.950 . S
H326 C356 0.950 . S
H327 C357 0.950 . S
C328 H310 0.951 . S
C328 C329 1.366 1_655 S
C328 C330 1.388 . S
C329 C328 1.366 1_455 S
C329 C333 1.385 . S
C330 H311 0.951 . S
C330 C328 1.388 . S
C330 C331 1.366 1_655 S
C331 C330 1.366 1_455 S
C331 C332 1.414 . S
C331 C334 1.499 . S
C332 H312 0.950 . S
C332 C331 1.414 . S
C332 C333 1.374 . S
C333 H313 0.950 . S
C333 C329 1.385 . S
C333 C332 1.374 . S
C334 C331 1.499 . S
C334 C335 1.373 . S
C334 C336 1.389 . S
C335 H314 0.950 . S
C335 C334 1.373 . S
C335 C351 1.377 . S
C336 C334 1.389 . S
C336 C337 1.524 . S
C336 C350 1.377 . S
C337 C336 1.524 . S
C337 C338 1.397 . S
C337 C342 1.363 1_455 S
C338 H315 0.950 . S
C338 C337 1.397 . S
C338 C339 1.334 . S
C339 H316 0.950 . S
C339 C338 1.334 . S
C339 C340 1.287 . S
C340 C339 1.287 . S
C340 C341 1.524 1_455 S
C340 H359 0.913 . S
C341 H317 0.950 . S
C341 C340 1.524 1_655 S
C341 C342 1.415 . S
C342 H318 0.950 . S
C342 C337 1.363 1_655 S
C342 C341 1.415 . S
C343 H319 0.951 . S
C343 C344 1.379 . S
C343 C345 1.388 . S
C344 C343 1.379 . S
C344 C348 1.373 1_455 S
C345 H320 0.951 . S
C345 C343 1.388 . S
C345 C346 1.366 . S
C346 C345 1.366 . S
C346 C347 1.414 1_455 S
C346 C349 1.499 . S
C347 H321 0.950 . S
C347 C346 1.414 1_655 S
C347 C348 1.374 . S
C348 H322 0.950 . S
C348 C344 1.373 1_655 S
C348 C347 1.374 . S
C349 C346 1.499 . S
C349 C350 1.373 . S
C349 C351 1.389 . S
C350 H323 0.950 1_455 S
C350 C336 1.377 . S
C350 C349 1.373 . S
C351 C335 1.377 . S
C351 C349 1.389 . S
C351 C352 1.524 . S
C352 C351 1.524 . S
C352 C353 1.397 1_455 S
C352 C357 1.363 . S
C353 H324 0.950 . S
C353 C352 1.397 1_655 S
C353 C354 1.334 . S
C354 H325 0.950 . S
C354 C353 1.334 . S
C354 C355 1.287 1_655 S
C355 C354 1.287 1_455 S
C355 C356 1.524 . S
C355 H358 0.999 . S
C356 H326 0.950 . S
C356 C355 1.524 . S
C356 C357 1.415 . S
C357 H327 0.950 . S
C357 C352 1.363 . S
C357 C356 1.415 . S
H358 C355 0.999 . S
H359 C340 0.913 . S
H360 C378 0.951 . S
H361 C380 0.951 . S
H362 C382 0.950 . S
H363 C383 0.950 . S
H364 C385 0.950 . S
H365 C388 0.950 . S
H366 C389 0.950 . S
H367 C391 0.950 . S
H368 C392 0.950 . S
H369 C393 0.951 . S
H370 C395 0.951 . S
H371 C397 0.950 . S
H372 C398 0.950 . S
H373 C400 0.950 . S
H374 C403 0.950 . S
H375 C404 0.950 . S
H376 C406 0.950 . S
H377 C407 0.950 . S
C378 H360 0.951 . S
C378 C379 1.366 . S
C378 C380 1.388 . S
C379 C378 1.366 . S
C379 C383 1.385 . S
C380 H361 0.951 . S
C380 C378 1.388 . S
C380 C381 1.366 . S
C381 C380 1.366 . S
C381 C382 1.414 . S
C381 C384 1.499 . S
C382 H362 0.950 . S
C382 C381 1.414 . S
C382 C383 1.374 . S
C383 H363 0.950 . S
C383 C379 1.385 . S
C383 C382 1.374 . S
C384 C381 1.499 . S
C384 C385 1.373 . S
C384 C386 1.389 . S
C385 H364 0.950 . S
C385 C384 1.373 . S
C385 C401 1.377 . S
C386 C384 1.389 . S
C386 C387 1.524 . S
C386 C400 1.377 . S
C387 C386 1.524 . S
C387 C388 1.397 . S
C387 C392 1.363 . S
C388 H365 0.950 . S
C388 C387 1.397 . S
C388 C389 1.334 . S
C389 H366 0.950 . S
C389 C388 1.334 . S
C389 C390 1.287 . S
C390 C389 1.287 . S
C390 C391 1.524 . S
C390 H409 0.913 . S
C391 H367 0.950 . S
C391 C390 1.524 . S
C391 C392 1.415 . S
C392 H368 0.950 . S
C392 C387 1.363 . S
C392 C391 1.415 . S
C393 H369 0.951 . S
C393 C394 1.366 . S
C393 C395 1.388 . S
C394 C393 1.366 . S
C394 C398 1.385 . S
C395 H370 0.951 . S
C395 C393 1.388 . S
C395 C396 1.366 . S
C396 C395 1.366 . S
C396 C397 1.414 . S
C396 C399 1.499 . S
C397 H371 0.950 . S
C397 C396 1.414 . S
C397 C398 1.374 . S
C398 H372 0.950 . S
C398 C394 1.385 . S
C398 C397 1.374 . S
C399 C396 1.499 . S
C399 C400 1.373 . S
C399 C401 1.389 . S
C400 H373 0.950 . S
C400 C386 1.377 . S
C400 C399 1.373 . S
C401 C385 1.377 . S
C401 C399 1.389 . S
C401 C402 1.524 . S
C402 C401 1.524 . S
C402 C403 1.397 . S
C402 C407 1.363 . S
C403 H374 0.950 . S
C403 C402 1.397 . S
C403 C404 1.334 . S
C404 H375 0.950 . S
C404 C403 1.334 . S
C404 C405 1.287 . S
C405 C404 1.287 . S
C405 C406 1.524 . S
C405 H408 0.999 . S
C406 H376 0.950 . S
C406 C405 1.524 . S
C406 C407 1.415 . S
C407 H377 0.950 . S
C407 C402 1.363 . S
C407 C406 1.415 . S
H408 C405 0.999 . S
H409 C390 0.913 . S
H410 C428 0.951 . S
H411 C430 0.951 . S
H412 C432 0.950 . S
H413 C433 0.950 . S
H414 C435 0.950 . S
H415 C438 0.950 . S
H416 C439 0.950 . S
H417 C441 0.950 . S
H418 C442 0.950 . S
H419 C443 0.951 . S
H420 C445 0.951 . S
H421 C447 0.950 . S
H422 C448 0.950 . S
H423 C450 0.950 . S
H424 C453 0.950 . S
H425 C454 0.950 . S
H426 C456 0.950 . S
H427 C457 0.950 . S
C428 H410 0.951 . S
C428 C429 1.366 . S
C428 C430 1.388 . S
C429 C428 1.366 . S
C429 C433 1.385 . S
C430 H411 0.951 . S
C430 C428 1.388 . S
C430 C431 1.366 . S
C431 C430 1.366 . S
C431 C432 1.414 . S
C431 C434 1.499 . S
C432 H412 0.950 . S
C432 C431 1.414 . S
C432 C433 1.374 . S
C433 H413 0.950 . S
C433 C429 1.385 . S
C433 C432 1.374 . S
C434 C431 1.499 . S
C434 C435 1.373 . S
C434 C436 1.389 . S
C435 H414 0.950 . S
C435 C434 1.373 . S
C435 C451 1.377 . S
C436 C434 1.389 . S
C436 C437 1.524 . S
C436 C450 1.377 . S
C437 C436 1.524 . S
C437 C438 1.397 . S
C437 C442 1.363 . S
C438 H415 0.950 . S
C438 C437 1.397 . S
C438 C439 1.334 . S
C439 H416 0.950 . S
C439 C438 1.334 . S
C439 C440 1.287 . S
C440 C439 1.287 . S
C440 C441 1.524 . S
C440 H459 0.913 . S
C441 H417 0.950 . S
C441 C440 1.524 . S
C441 C442 1.415 . S
C442 H418 0.950 . S
C442 C437 1.363 . S
C442 C441 1.415 . S
C443 H419 0.951 . S
C443 C444 1.366 . S
C443 C445 1.388 . S
C444 C443 1.366 . S
C444 C448 1.385 . S
C445 H420 0.951 . S
C445 C443 1.388 . S
C445 C446 1.366 . S
C446 C445 1.366 . S
C446 C447 1.414 . S
C446 C449 1.499 . S
C447 H421 0.950 . S
C447 C446 1.414 . S
C447 C448 1.374 . S
C448 H422 0.950 . S
C448 C444 1.385 . S
C448 C447 1.374 . S
C449 C446 1.499 . S
C449 C450 1.373 . S
C449 C451 1.389 . S
C450 H423 0.950 . S
C450 C436 1.377 . S
C450 C449 1.373 . S
C451 C435 1.377 . S
C451 C449 1.389 . S
C451 C452 1.524 . S
C452 C451 1.524 . S
C452 C453 1.397 . S
C452 C457 1.363 . S
C453 H424 0.950 . S
C453 C452 1.397 . S
C453 C454 1.334 . S
C454 H425 0.950 . S
C454 C453 1.334 . S
C454 C455 1.287 . S
C455 C454 1.287 . S
C455 C456 1.524 . S
C455 H458 0.999 . S
C456 H426 0.950 . S
C456 C455 1.524 . S
C456 C457 1.415 . S
C457 H427 0.950 . S
C457 C452 1.363 . S
C457 C456 1.415 . S
H458 C455 0.999 . S
H459 C440 0.913 . S
H460 C478 0.951 . S
H461 C480 0.951 . S
H462 C482 0.950 . S
H463 C483 0.950 . S
H464 C485 0.950 . S
H465 C488 0.950 . S
H466 C489 0.950 . S
H467 C491 0.950 . S
H468 C492 0.950 . S
H469 C493 0.951 . S
H470 C495 0.951 . S
H471 C497 0.950 . S
H472 C498 0.950 . S
H473 C500 0.950 . S
H474 C503 0.950 . S
H475 C504 0.950 . S
H476 C506 0.950 . S
H477 C507 0.950 . S
C478 H460 0.951 . S
C478 C479 1.366 . S
C478 C480 1.388 . S
C479 C478 1.366 . S
C479 C483 1.385 . S
C480 H461 0.951 . S
C480 C478 1.388 . S
C480 C481 1.366 . S
C481 C480 1.366 . S
C481 C482 1.414 . S
C481 C484 1.499 . S
C482 H462 0.950 . S
C482 C481 1.414 . S
C482 C483 1.374 . S
C483 H463 0.950 . S
C483 C479 1.385 . S
C483 C482 1.374 . S
C484 C481 1.499 . S
C484 C485 1.373 . S
C484 C486 1.389 . S
C485 H464 0.950 . S
C485 C484 1.373 . S
C485 C501 1.377 . S
C486 C484 1.389 . S
C486 C487 1.524 . S
C486 C500 1.377 . S
C487 C486 1.524 . S
C487 C488 1.397 . S
C487 C492 1.363 . S
C488 H465 0.950 . S
C488 C487 1.397 . S
C488 C489 1.334 . S
C489 H466 0.950 . S
C489 C488 1.334 . S
C489 C490 1.287 . S
C490 C489 1.287 . S
C490 C491 1.524 . S
C490 H509 0.913 . S
C491 H467 0.950 . S
C491 C490 1.524 . S
C491 C492 1.415 . S
C492 H468 0.950 . S
C492 C487 1.363 . S
C492 C491 1.415 . S
C493 H469 0.951 . S
C493 C494 1.366 . S
C493 C495 1.388 . S
C494 C493 1.366 . S
C494 C498 1.385 . S
C495 H470 0.951 . S
C495 C493 1.388 . S
C495 C496 1.366 . S
C496 C495 1.366 . S
C496 C497 1.414 . S
C496 C499 1.499 . S
C497 H471 0.950 . S
C497 C496 1.414 . S
C497 C498 1.374 . S
C498 H472 0.950 . S
C498 C494 1.385 . S
C498 C497 1.374 . S
C499 C496 1.499 . S
C499 C500 1.373 . S
C499 C501 1.389 . S
C500 H473 0.950 . S
C500 C486 1.377 . S
C500 C499 1.373 . S
C501 C485 1.377 . S
C501 C499 1.389 . S
C501 C502 1.524 . S
C502 C501 1.524 . S
C502 C503 1.397 . S
C502 C507 1.363 . S
C503 H474 0.950 . S
C503 C502 1.397 . S
C503 C504 1.334 . S
C504 H475 0.950 . S
C504 C503 1.334 . S
C504 C505 1.287 . S
C505 C504 1.287 . S
C505 C506 1.524 . S
C505 H508 0.999 1_565 S
C506 H476 0.950 . S
C506 C505 1.524 . S
C506 C507 1.415 . S
C507 H477 0.950 . S
C507 C502 1.363 . S
C507 C506 1.415 . S
H508 C505 0.999 1_545 S
H509 C490 0.913 . S
H510 C528 0.951 . S
H511 C530 0.951 . S
H512 C532 0.950 . S
H513 C533 0.950 . S
H514 C535 0.950 . S
H515 C538 0.950 . S
H516 C539 0.950 . S
H517 C541 0.950 . S
H518 C542 0.950 . S
H519 C543 0.951 . S
H520 C545 0.951 . S
H521 C547 0.950 . S
H522 C548 0.950 . S
H523 C550 0.950 . S
H524 C553 0.950 . S
H525 C554 0.950 . S
H526 C556 0.950 . S
H527 C557 0.950 . S
C528 H510 0.951 . S
C528 C529 1.366 . S
C528 C530 1.388 . S
C529 C528 1.366 . S
C529 C533 1.385 . S
C530 H511 0.951 . S
C530 C528 1.388 . S
C530 C531 1.366 . S
C531 C530 1.366 . S
C531 C532 1.414 . S
C531 C534 1.499 . S
C532 H512 0.950 . S
C532 C531 1.414 . S
C532 C533 1.374 . S
C533 H513 0.950 . S
C533 C529 1.385 . S
C533 C532 1.374 . S
C534 C531 1.499 . S
C534 C535 1.373 . S
C534 C536 1.389 . S
C535 H514 0.950 . S
C535 C534 1.373 . S
C535 C551 1.377 . S
C536 C534 1.389 . S
C536 C537 1.524 . S
C536 C550 1.377 . S
C537 C536 1.524 . S
C537 C538 1.397 . S
C537 C542 1.363 . S
C538 H515 0.950 . S
C538 C537 1.397 . S
C538 C539 1.334 . S
C539 H516 0.950 . S
C539 C538 1.334 . S
C539 C540 1.287 . S
C540 C539 1.287 . S
C540 C541 1.524 . S
C540 H559 0.913 . S
C541 H517 0.950 . S
C541 C540 1.524 . S
C541 C542 1.415 . S
C542 H518 0.950 . S
C542 C537 1.363 . S
C542 C541 1.415 . S
C543 H519 0.951 . S
C543 C544 1.366 . S
C543 C545 1.388 . S
C544 C543 1.366 . S
C544 C548 1.385 . S
C545 H520 0.951 . S
C545 C543 1.388 . S
C545 C546 1.366 . S
C546 C545 1.366 . S
C546 C547 1.414 . S
C546 C549 1.499 . S
C547 H521 0.950 . S
C547 C546 1.414 . S
C547 C548 1.374 . S
C548 H522 0.950 . S
C548 C544 1.385 . S
C548 C547 1.374 . S
C549 C546 1.499 . S
C549 C550 1.373 . S
C549 C551 1.389 . S
C550 H523 0.950 . S
C550 C536 1.377 . S
C550 C549 1.373 . S
C551 C535 1.377 . S
C551 C549 1.389 . S
C551 C552 1.524 . S
C552 C551 1.524 . S
C552 C553 1.397 . S
C552 C557 1.363 . S
C553 H524 0.950 . S
C553 C552 1.397 . S
C553 C554 1.334 . S
C554 H525 0.950 . S
C554 C553 1.334 . S
C554 C555 1.287 . S
C555 C554 1.287 . S
C555 C556 1.524 . S
C555 H558 0.999 . S
C556 H526 0.950 . S
C556 C555 1.524 . S
C556 C557 1.415 . S
C557 H527 0.950 . S
C557 C552 1.363 . S
C557 C556 1.415 . S
H558 C555 0.999 . S
H559 C540 0.913 . S
H560 C578 0.951 . S
H561 C580 0.951 . S
H562 C582 0.950 . S
H563 C583 0.950 . S
H564 C585 0.950 . S
H565 C588 0.950 . S
H566 C589 0.950 . S
H567 C591 0.950 . S
H568 C592 0.950 . S
H569 C593 0.951 . S
H570 C595 0.951 . S
H571 C597 0.950 . S
H572 C598 0.950 . S
H573 C600 0.950 . S
H574 C603 0.950 . S
H575 C604 0.950 . S
H576 C606 0.950 . S
H577 C607 0.950 . S
C578 H560 0.951 . S
C578 C579 1.366 . S
C578 C580 1.388 . S
C579 C578 1.366 . S
C579 C583 1.385 . S
C580 H561 0.951 . S
C580 C578 1.388 . S
C580 C581 1.366 . S
C581 C580 1.366 . S
C581 C582 1.414 . S
C581 C584 1.499 . S
C582 H562 0.950 . S
C582 C581 1.414 . S
C582 C583 1.374 . S
C583 H563 0.950 . S
C583 C579 1.385 . S
C583 C582 1.374 . S
C584 C581 1.499 . S
C584 C585 1.373 . S
C584 C586 1.389 . S
C585 H564 0.950 . S
C585 C584 1.373 . S
C585 C601 1.377 . S
C586 C584 1.389 . S
C586 C587 1.524 . S
C586 C600 1.377 . S
C587 C586 1.524 . S
C587 C588 1.397 . S
C587 C592 1.363 . S
C588 H565 0.950 . S
C588 C587 1.397 . S
C588 C589 1.334 . S
C589 H566 0.950 . S
C589 C588 1.334 . S
C589 C590 1.287 . S
C590 C589 1.287 . S
C590 C591 1.524 . S
C590 H609 0.913 . S
C591 H567 0.950 . S
C591 C590 1.524 . S
C591 C592 1.415 . S
C592 H568 0.950 . S
C592 C587 1.363 . S
C592 C591 1.415 . S
C593 H569 0.951 . S
C593 C594 1.366 . S
C593 C595 1.388 . S
C594 C593 1.366 . S
C594 C598 1.385 . S
C595 H570 0.951 . S
C595 C593 1.388 . S
C595 C596 1.366 . S
C596 C595 1.366 . S
C596 C597 1.414 . S
C596 C599 1.499 . S
C597 H571 0.950 . S
C597 C596 1.414 . S
C597 C598 1.374 . S
C598 H572 0.950 . S
C598 C594 1.385 . S
C598 C597 1.374 . S
C599 C596 1.499 . S
C599 C600 1.373 . S
C599 C601 1.389 . S
C600 H573 0.950 . S
C600 C586 1.377 . S
C600 C599 1.373 . S
C601 C585 1.377 . S
C601 C599 1.389 . S
C601 C602 1.524 . S
C602 C601 1.524 . S
C602 C603 1.397 . S
C602 C607 1.363 . S
C603 H574 0.950 . S
C603 C602 1.397 . S
C603 C604 1.334 . S
C604 H575 0.950 . S
C604 C603 1.334 . S
C604 C605 1.287 . S
C605 C604 1.287 . S
C605 C606 1.524 . S
C605 H608 0.999 1_565 S
C606 H576 0.950 . S
C606 C605 1.524 . S
C606 C607 1.415 . S
C607 H577 0.950 . S
C607 C602 1.363 . S
C607 C606 1.415 . S
H608 C605 0.999 1_545 S
H609 C590 0.913 . S
H610 C628 0.951 . S
H611 C630 0.951 . S
H612 C632 0.950 . S
H613 C633 0.950 . S
H614 C635 0.950 . S
H615 C638 0.950 . S
H616 C639 0.950 . S
H617 C641 0.950 . S
H618 C642 0.950 . S
H619 C643 0.951 . S
H620 C645 0.951 . S
H621 C647 0.950 . S
H622 C648 0.950 . S
H623 C650 0.950 . S
H624 C653 0.950 . S
H625 C654 0.950 . S
H626 C656 0.950 1_655 S
H627 C657 0.950 . S
C628 H610 0.951 . S
C628 C629 1.366 . S
C628 C630 1.388 . S
C629 C628 1.366 . S
C629 C633 1.385 . S
C630 H611 0.951 . S
C630 C628 1.388 . S
C630 C631 1.366 . S
C631 C630 1.366 . S
C631 C632 1.414 . S
C631 C634 1.499 . S
C632 H612 0.950 . S
C632 C631 1.414 . S
C632 C633 1.374 . S
C633 H613 0.950 . S
C633 C629 1.385 . S
C633 C632 1.374 . S
C634 C631 1.499 . S
C634 C635 1.373 . S
C634 C636 1.389 . S
C635 H614 0.950 . S
C635 C634 1.373 . S
C635 C651 1.377 . S
C636 C634 1.389 . S
C636 C637 1.524 . S
C636 C650 1.377 . S
C637 C636 1.524 . S
C637 C638 1.397 . S
C637 C642 1.363 . S
C638 H615 0.950 . S
C638 C637 1.397 . S
C638 C639 1.334 . S
C639 H616 0.950 . S
C639 C638 1.334 . S
C639 C640 1.287 . S
C640 C639 1.287 . S
C640 C641 1.524 . S
C640 H659 0.913 . S
C641 H617 0.950 . S
C641 C640 1.524 . S
C641 C642 1.415 . S
C642 H618 0.950 . S
C642 C637 1.363 . S
C642 C641 1.415 . S
C643 H619 0.951 . S
C643 C644 1.366 . S
C643 C645 1.388 . S
C644 C643 1.366 . S
C644 C648 1.385 . S
C645 H620 0.951 . S
C645 C643 1.388 . S
C645 C646 1.366 . S
C646 C645 1.366 . S
C646 C647 1.414 . S
C646 C649 1.499 . S
C647 H621 0.950 . S
C647 C646 1.414 . S
C647 C648 1.374 . S
C648 H622 0.950 . S
C648 C644 1.385 . S
C648 C647 1.374 . S
C649 C646 1.499 . S
C649 C650 1.373 . S
C649 C651 1.389 . S
C650 H623 0.950 . S
C650 C636 1.377 . S
C650 C649 1.373 . S
C651 C635 1.377 . S
C651 C649 1.389 . S
C651 C652 1.524 . S
C652 C651 1.524 . S
C652 C653 1.397 . S
C652 C657 1.363 . S
C653 H624 0.950 . S
C653 C652 1.397 . S
C653 C654 1.334 . S
C654 H625 0.950 . S
C654 C653 1.334 . S
C654 C655 1.287 . S
C655 C654 1.287 . S
C655 C656 1.524 . S
C655 H658 0.999 . S
C656 H626 0.950 1_455 S
C656 C655 1.524 . S
C656 C657 1.415 . S
C657 H627 0.950 . S
C657 C652 1.363 . S
C657 C656 1.415 . S
H658 C655 0.999 . S
H659 C640 0.913 . S
H660 C678 0.951 . S
H661 C680 0.951 . S
H662 C682 0.950 . S
H663 C683 0.950 . S
H664 C685 0.950 . S
H665 C688 0.950 . S
H666 C689 0.950 . S
H667 C691 0.950 . S
H668 C692 0.950 . S
H669 C693 0.951 . S
H670 C695 0.951 . S
H671 C697 0.950 . S
H672 C698 0.950 . S
H673 C700 0.950 . S
H674 C703 0.950 . S
H675 C704 0.950 1_565 S
H676 C706 0.950 . S
H677 C707 0.950 . S
C678 H660 0.951 . S
C678 C679 1.366 . S
C678 C680 1.388 . S
C679 C678 1.366 . S
C679 C683 1.385 . S
C680 H661 0.951 . S
C680 C678 1.388 . S
C680 C681 1.366 . S
C681 C680 1.366 . S
C681 C682 1.414 . S
C681 C684 1.499 . S
C682 H662 0.950 . S
C682 C681 1.414 . S
C682 C683 1.374 . S
C683 H663 0.950 . S
C683 C679 1.385 . S
C683 C682 1.374 . S
C684 C681 1.499 . S
C684 C685 1.373 . S
C684 C686 1.389 . S
C685 H664 0.950 . S
C685 C684 1.373 . S
C685 C701 1.377 . S
C686 C684 1.389 . S
C686 C687 1.524 . S
C686 C700 1.377 . S
C687 C686 1.524 . S
C687 C688 1.397 . S
C687 C692 1.363 . S
C688 H665 0.950 . S
C688 C687 1.397 . S
C688 C689 1.334 . S
C689 H666 0.950 . S
C689 C688 1.334 . S
C689 C690 1.287 . S
C690 C689 1.287 . S
C690 C691 1.524 . S
C690 H709 0.913 . S
C691 H667 0.950 . S
C691 C690 1.524 . S
C691 C692 1.415 . S
C692 H668 0.950 . S
C692 C687 1.363 . S
C692 C691 1.415 . S
C693 H669 0.951 . S
C693 C694 1.366 . S
C693 C695 1.388 . S
C694 C693 1.366 . S
C694 C698 1.385 . S
C695 H670 0.951 . S
C695 C693 1.388 . S
C695 C696 1.366 . S
C696 C695 1.366 . S
C696 C697 1.414 . S
C696 C699 1.499 . S
C697 H671 0.950 . S
C697 C696 1.414 . S
C697 C698 1.374 . S
C698 H672 0.950 . S
C698 C694 1.385 . S
C698 C697 1.374 . S
C699 C696 1.499 . S
C699 C700 1.373 . S
C699 C701 1.389 . S
C700 H673 0.950 . S
C700 C686 1.377 . S
C700 C699 1.373 . S
C701 C685 1.377 . S
C701 C699 1.389 . S
C701 C702 1.524 . S
C702 C701 1.524 . S
C702 C703 1.397 . S
C702 C707 1.363 . S
C703 H674 0.950 . S
C703 C702 1.397 . S
C703 C704 1.334 . S
C704 H675 0.950 1_545 S
C704 C703 1.334 . S
C704 C705 1.287 . S
C705 C704 1.287 . S
C705 C706 1.524 . S
C705 H708 0.999 1_545 S
C706 H676 0.950 . S
C706 C705 1.524 . S
C706 C707 1.415 . S
C707 H677 0.950 . S
C707 C702 1.363 . S
C707 C706 1.415 . S
H708 C705 0.999 1_565 S
H709 C690 0.913 . S
H710 C728 0.951 . S
H711 C730 0.951 . S
H712 C732 0.950 . S
H713 C733 0.950 . S
H714 C735 0.950 . S
H715 C738 0.950 . S
H716 C739 0.955 . S
H717 C741 0.953 . S
H718 C742 0.950 . S
H719 C743 0.951 . S
H720 C745 0.951 . S
H721 C747 0.950 . S
H722 C748 0.950 . S
H723 C750 0.950 . S
H724 C753 0.950 . S
H725 C754 0.950 . S
H726 C756 0.950 . S
H727 C757 0.950 . S
C728 H710 0.951 . S
C728 C729 1.366 . S
C728 C730 1.388 . S
C729 C728 1.366 . S
C729 C733 1.385 . S
C730 H711 0.951 . S
C730 C728 1.388 . S
C730 C731 1.366 . S
C731 C730 1.366 . S
C731 C732 1.414 . S
C731 C734 1.499 . S
C732 H712 0.950 . S
C732 C731 1.414 . S
C732 C733 1.374 . S
C733 H713 0.950 . S
C733 C729 1.385 . S
C733 C732 1.374 . S
C734 C731 1.499 . S
C734 C735 1.373 . S
C734 C736 1.389 . S
C735 H714 0.950 . S
C735 C734 1.373 . S
C735 C751 1.377 . S
C736 C734 1.389 . S
C736 C737 1.524 . S
C736 C750 1.377 . S
C737 C736 1.524 . S
C737 C738 1.397 . S
C737 C742 1.363 . S
C738 H715 0.950 . S
C738 C737 1.397 . S
C738 C739 1.326 1_545 S
C739 H716 0.955 . S
C739 C738 1.326 1_565 S
C739 C740 1.290 . S
C740 C739 1.290 . S
C740 C741 1.524 1_565 S
C740 H759 0.913 . S
C741 H717 0.953 . S
C741 C740 1.524 1_545 S
C741 C742 1.415 . S
C742 H718 0.950 . S
C742 C737 1.363 . S
C742 C741 1.415 . S
C743 H719 0.951 . S
C743 C744 1.366 . S
C743 C745 1.388 . S
C744 C743 1.366 . S
C744 C748 1.385 . S
C745 H720 0.951 . S
C745 C743 1.388 . S
C745 C746 1.366 . S
C746 C745 1.366 . S
C746 C747 1.414 . S
C746 C749 1.499 . S
C747 H721 0.950 . S
C747 C746 1.414 . S
C747 C748 1.374 . S
C748 H722 0.950 . S
C748 C744 1.385 . S
C748 C747 1.374 . S
C749 C746 1.499 . S
C749 C750 1.373 . S
C749 C751 1.389 . S
C750 H723 0.950 . S
C750 C736 1.377 . S
C750 C749 1.373 . S
C751 C735 1.377 . S
C751 C749 1.389 . S
C751 C752 1.524 . S
C752 C751 1.524 . S
C752 C753 1.397 . S
C752 C757 1.363 . S
C753 H724 0.950 . S
C753 C752 1.397 . S
C753 C754 1.334 . S
C754 H725 0.950 . S
C754 C753 1.334 . S
C754 C755 1.287 . S
C755 C754 1.287 . S
C755 C756 1.524 . S
C755 H758 0.999 . S
C756 H726 0.950 . S
C756 C755 1.524 . S
C756 C757 1.415 . S
C757 H727 0.950 . S
C757 C752 1.363 . S
C757 C756 1.415 . S
H758 C755 0.999 . S
H759 C740 0.913 . S
C179 C103 0.561 . S
C194 C23 0.598 . S
C229 C143 0.591 1_655 S
C244 C63 0.559 . S
C279 C82 0.530 1_565 S
C294 C2 0.514 . S
C329 C42 0.528 . S
C344 C122 0.509 1_455 S
C379 C57 1.143 . S
C394 C26 1.165 . S
C429 C66 0.954 . S
C444 C106 0.956 . S
C479 C146 1.165 . S
C494 C97 1.142 . S
C529 C137 1.356 . S
C544 C17 1.355 . S
C579 C93 4.482 . S
C594 C144 4.435 . S
C629 C13 4.845 . S
C644 C133 4.845 . S
C679 C53 4.482 . S
C694 C24 4.434 . S
C729 C104 4.126 . S
C744 C64 4.125 . S
