# Generated by pormake.
# Topology irl, (4)-cn, num edge types: 1
# Building blocks:
#     Node 0, Type 0, BuildingBlock: ESEHIV_clean_sbu_0, # of connection points: 4
#     Node 1, Type 0, BuildingBlock: ESEHIV_clean_sbu_0, # of connection points: 4
#     Node 2, Type 0, BuildingBlock: ESEHIV_clean_sbu_0, # of connection points: 4
#     Node 3, Type 0, BuildingBlock: ESEHIV_clean_sbu_0, # of connection points: 4
#     Node 4, Type 0, BuildingBlock: ESEHIV_clean_sbu_0, # of connection points: 4
#     Node 5, Type 0, BuildingBlock: ESEHIV_clean_sbu_0, # of connection points: 4
#     Node 6, Type 0, BuildingBlock: ESEHIV_clean_sbu_0, # of connection points: 4
#     Node 7, Type 0, BuildingBlock: ESEHIV_clean_sbu_0, # of connection points: 4
#     Edge 8, Type (0, 0), BuildingBlock: XUDNAN_clean_linker_2, # of connection points: 2
#     Edge 9, Type (0, 0), BuildingBlock: XUDNAN_clean_linker_2, # of connection points: 2
#     Edge 10, Type (0, 0), BuildingBlock: XUDNAN_clean_linker_2, # of connection points: 2
#     Edge 11, Type (0, 0), BuildingBlock: XUDNAN_clean_linker_2, # of connection points: 2
#     Edge 12, Type (0, 0), BuildingBlock: XUDNAN_clean_linker_2, # of connection points: 2
#     Edge 13, Type (0, 0), BuildingBlock: XUDNAN_clean_linker_2, # of connection points: 2
#     Edge 14, Type (0, 0), BuildingBlock: XUDNAN_clean_linker_2, # of connection points: 2
#     Edge 15, Type (0, 0), BuildingBlock: XUDNAN_clean_linker_2, # of connection points: 2
#     Edge 16, Type (0, 0), BuildingBlock: XUDNAN_clean_linker_2, # of connection points: 2
#     Edge 17, Type (0, 0), BuildingBlock: XUDNAN_clean_linker_2, # of connection points: 2
#     Edge 18, Type (0, 0), BuildingBlock: XUDNAN_clean_linker_2, # of connection points: 2
#     Edge 19, Type (0, 0), BuildingBlock: XUDNAN_clean_linker_2, # of connection points: 2
#     Edge 20, Type (0, 0), BuildingBlock: XUDNAN_clean_linker_2, # of connection points: 2
#     Edge 21, Type (0, 0), BuildingBlock: XUDNAN_clean_linker_2, # of connection points: 2
#     Edge 22, Type (0, 0), BuildingBlock: XUDNAN_clean_linker_2, # of connection points: 2
#     Edge 23, Type (0, 0), BuildingBlock: XUDNAN_clean_linker_2, # of connection points: 2
# Relax obj value: 0.080
# Max RMSD: 0.129
# Mean RMSD: 0.129
data_MOF--net-irl--node1-ESEHIV_clean_sbu_0--edge1-XUDNAN_clean_linker_2
_symmetry_space_group_name_H-M    P1
_symmetry_Int_Tables_number       1
_symmetry_cell_setting            triclinic
loop_
_symmetry_equiv_pos_as_xyz
'x, y, z'
_cell_length_a     10.600217
_cell_length_b     67.543234
_cell_length_c     29.378841
_cell_angle_alpha  90.384792
_cell_angle_beta   89.903528
_cell_angle_gamma 89.780542
loop_
_atom_site_label
_atom_site_type_symbol
_atom_site_fract_x
_atom_site_fract_y
_atom_site_fract_z
_atom_type_partial_charge
Cu0 Cu 0.15091 0.14809 0.02078 0.0
N1 N 0.05348 0.12489 0.02519 0.0
N2 N 0.0116 0.09258 0.03104 0.0
C3 C 0.09905 0.10687 0.03625 0.0
C4 C 0.90661 0.10186 0.01647 0.0
C5 C 0.93222 0.12185 0.01336 0.0
O6 O 0.23645 0.15136 0.07872 0.0
C7 C 0.21061 0.1385 0.93242 0.0
O8 O 0.09369 0.1323 0.935 0.0
H9 H 0.19604 0.10416 0.04598 0.0
H10 H 0.86829 0.13319 1.00158 0.0
N11 N 0.05586 0.17134 1.01279 0.0
N12 N 0.01154 0.20382 0.01675 0.0
C13 C 0.08757 0.189 0.03096 0.0
C14 C 0.95668 0.17508 0.98558 0.0
C15 C 0.92885 0.19509 0.98808 0.0
C16 C 0.1582 0.15432 0.111 0.0
O17 O 0.03698 0.15379 0.10171 0.0
H18 H 0.16875 0.19101 0.05275 0.0
H19 H 0.91047 0.16421 0.96427 0.0
O20 O 0.26146 0.14597 0.9678 0.0
H21 H 0.81846 0.09465 1.00817 0.0
H22 H 0.85454 0.2026 0.96972 0.0
Cu23 Cu 0.88255 0.89672 0.0141 0.0
N24 N 0.00049 0.91714 1.00973 0.0
N25 N 0.06817 0.94844 0.0133 0.0
C26 C -0.00356 0.93442 0.03306 0.0
C27 C 0.11944 0.9397 0.97623 0.0
C28 C 0.07783 0.92038 0.97418 0.0
O29 O 0.79099 0.9006 0.07176 0.0
C30 C 0.79974 0.88734 0.92416 0.0
O31 O 0.87862 0.87247 0.92849 0.0
H32 H 0.93286 0.93724 0.06127 0.0
H33 H 0.09385 0.90997 0.94661 0.0
N34 N 0.95751 0.87145 0.01566 0.0
N35 N 0.96715 0.83827 0.01716 0.0
C36 C 0.89304 0.85453 0.02165 0.0
C37 C 0.07759 0.86586 1.00785 0.0
C38 C 0.08387 0.8454 1.00879 0.0
C39 C 0.84499 0.89415 0.1076 0.0
O40 O 0.95544 0.88543 0.10379 0.0
H41 H 0.79263 0.8543 0.02816 0.0
H42 H 0.15414 0.87589 1.00049 0.0
O43 O 0.78057 0.89893 0.95815 0.0
H44 H 0.17695 0.9471 0.95109 0.0
H45 H 0.16702 0.83652 1.00196 0.0
Cu46 Cu 0.92312 0.90692 0.515 0.0
N47 N 0.03314 0.92855 0.51568 0.0
N48 N 0.10529 0.9596 0.52115 0.0
C49 C 0.00216 0.94795 0.51771 0.0
C50 C 0.20453 0.947 0.52101 0.0
C51 C 0.15982 0.92791 0.51762 0.0
O52 O 0.81526 0.91033 0.46148 0.0
C53 C 0.77507 0.89438 0.59405 0.0
O54 O 0.75479 0.87744 0.57321 0.0
H55 H 0.90588 0.95335 0.51832 0.0
H56 H 0.21567 0.91448 0.51755 0.0
N57 N 0.01841 0.88352 0.50596 0.0
N58 N 0.0851 0.85196 0.50601 0.0
C59 C 0.02122 0.86626 0.52909 0.0
C60 C 0.08527 0.88001 0.46773 0.0
C61 C 0.1258 0.86063 0.46753 0.0
C62 C 0.7792 0.89555 0.43772 0.0
O63 O 0.79476 0.87763 0.45393 0.0
H64 H 0.9728 0.86384 0.56094 0.0
H65 H 0.09792 0.8906 0.44066 0.0
O66 O 0.83631 0.90795 0.57391 0.0
H67 H 0.30264 0.95125 0.52349 0.0
H68 H 0.17838 0.85332 0.44058 0.0
Cu69 Cu 0.11273 0.16242 0.52628 0.0
N70 N 0.03855 0.13737 0.51798 0.0
N71 N 0.02012 0.10423 0.51807 0.0
C72 C 0.09538 0.11994 0.52699 0.0
C73 C 0.9118 0.11224 0.50221 0.0
C74 C 0.92365 0.13261 0.50205 0.0
O75 O 0.20135 0.16814 0.47012 0.0
C76 C 0.1692 0.15307 0.6137 0.0
O77 O 0.05026 0.14782 0.61075 0.0
H78 H 0.19094 0.11897 0.53961 0.0
H79 H 0.85333 0.14318 0.49106 0.0
N80 N -0.00708 0.18236 0.53865 0.0
N81 N 0.90733 0.21224 0.55239 0.0
C82 C 0.01113 0.20217 0.53834 0.0
C83 C 0.8738 0.17986 0.55324 0.0
C84 C 0.82084 0.19818 0.5616 0.0
C85 C 0.13164 0.17305 0.43681 0.0
O86 O 0.0099 0.1752 0.44387 0.0
H87 H 0.10007 0.20898 0.52956 0.0
H88 H 0.82944 0.16568 0.55862 0.0
O89 O 0.22219 0.16068 0.57912 0.0
H90 H 0.82891 0.10408 0.49191 0.0
H91 H 0.72603 0.20089 0.57393 0.0
Cu92 Cu 0.64896 0.64381 0.02697 0.0
N93 N 0.70997 0.61774 0.02982 0.0
N94 N 0.67142 0.58508 0.02607 0.0
C95 C 0.65142 0.60302 1.00716 0.0
C96 C 0.75062 0.58862 0.06116 0.0
C97 C 0.77346 0.60879 0.06362 0.0
O98 O 0.55366 0.64872 0.0831 0.0
C99 C 0.53364 0.65947 0.94458 0.0
O100 O 0.54549 0.6774 0.96148 0.0
H101 H 0.58391 0.6058 0.98039 0.0
H102 H 0.81998 0.61651 0.09121 0.0
N103 N 0.77347 0.66332 0.02484 0.0
N104 N 0.84467 0.69449 0.02259 0.0
C105 C 0.74808 0.68248 0.03376 0.0
C106 C 0.89175 0.663 1.00812 0.0
C107 C 0.93632 0.68226 1.00693 0.0
C108 C 0.49747 0.6348 0.10391 0.0
O109 O 0.47869 0.61795 0.08249 0.0
H110 H 0.65727 0.68757 0.04613 0.0
H111 H 0.93933 0.6499 0.99532 0.0
O112 O 0.55808 0.64451 0.96926 0.0
H113 H 0.77858 0.57781 0.08629 0.0
H114 H 0.02564 0.68698 0.99286 0.0
Cu115 Cu 0.31883 0.39595 1.01287 0.0
N116 N 0.25993 0.42208 0.01619 0.0
N117 N 0.26179 0.45525 0.0163 0.0
C118 C 0.33131 0.4385 1.0124 0.0
C119 C 0.14218 0.44904 0.02302 0.0
C120 C 0.14143 0.42862 0.02309 0.0
O121 O 0.4241 0.3921 0.06672 0.0
C122 C 0.39157 0.37738 0.92903 0.0
O123 O 0.3462 0.36133 0.94783 0.0
H124 H 0.43197 0.43812 1.00618 0.0
H125 H 0.06032 0.41922 0.02805 0.0
N126 N 0.18697 0.37751 0.01563 0.0
N127 N 0.09586 0.34784 0.02355 0.0
C128 C 0.19524 0.3594 0.0345 0.0
C129 C 0.07793 0.3775 0.99225 0.0
C130 C 0.02143 0.35924 0.99712 0.0
C131 C 0.36663 0.39392 0.10482 0.0
O132 O 0.24501 0.39776 0.10446 0.0
H133 H 0.27761 0.35433 0.05283 0.0
H134 H 0.0456 0.38948 0.97095 0.0
O135 O 0.40071 0.39313 0.95303 0.0
H136 H 0.06095 0.45857 0.02807 0.0
H137 H 0.93471 0.35451 0.98106 0.0
Cu138 Cu 0.6334 0.40419 0.51616 0.0
N139 N 0.66855 0.43147 0.51906 0.0
N140 N 0.62384 0.46392 0.52514 0.0
C141 C 0.57733 0.44532 0.5233 0.0
C142 C 0.75024 0.46164 0.52154 0.0
C143 C 0.77757 0.4416 0.51791 0.0
O144 O 0.57037 0.39862 0.45455 0.0
C145 C 0.56164 0.40484 0.60594 0.0
O146 O 0.66488 0.41553 0.60676 0.0
H147 H 0.47812 0.44167 0.5247 0.0
H148 H 0.87017 0.43494 0.51495 0.0
N149 N 0.76868 0.38664 0.52568 0.0
N150 N 0.85209 0.35673 0.53985 0.0
C151 C 0.74803 0.36828 0.54157 0.0
C152 C 0.89136 0.38684 0.51356 0.0
C153 C 0.94297 0.36833 0.52211 0.0
C154 C 0.65212 0.40163 0.42336 0.0
O155 O 0.76301 0.4085 0.43532 0.0
H156 H 0.65576 0.36315 0.55191 0.0
H157 H 0.9388 0.39921 0.49793 0.0
O158 O 0.52139 0.3985 0.56752 0.0
H159 H 0.81842 0.47352 0.52235 0.0
H160 H 0.03896 0.36369 0.51513 0.0
Cu161 Cu 0.35437 0.65513 0.52198 0.0
N162 N 0.27349 0.63067 0.52692 0.0
N163 N 0.25634 0.59764 0.53165 0.0
C164 C 0.33547 0.6132 0.52804 0.0
C165 C 0.13953 0.60579 0.53283 0.0
C166 C 0.15044 0.62614 0.52989 0.0
O167 O 0.45576 0.65189 0.46675 0.0
C168 C 0.38394 0.6629 0.61458 0.0
O169 O 0.26335 0.66703 0.61051 0.0
H170 H 0.43726 0.61205 0.5269 0.0
H171 H 0.07423 0.63683 0.52989 0.0
N172 N 0.24237 0.67657 0.51445 0.0
N173 N 0.16974 0.70778 0.51412 0.0
C174 C 0.25714 0.69516 0.53081 0.0
C175 C 0.14218 0.67752 0.48643 0.0
C176 C 0.09743 0.69675 0.48606 0.0
C177 C 0.45499 0.66369 0.43301 0.0
O178 O 0.4073 0.68154 0.43809 0.0
H179 H 0.33402 0.69955 0.55284 0.0
H180 H 0.10745 0.66526 0.46624 0.0
O181 O 0.44701 0.65808 0.57909 0.0
H182 H 0.05193 0.5977 0.53517 0.0
H183 H 0.01901 0.70227 0.46622 0.0
H184 H 0.01742 0.97893 0.95678 0.0
H185 H 0.1187 0.96468 0.09538 0.0
H186 H 0.12098 1.00051 0.11512 0.0
H187 H 0.19663 1.02408 0.94597 0.0
H188 H 0.0763 0.03671 0.9139 0.0
H189 H 0.09 1.01015 0.91047 0.0
H190 H 0.85598 1.00672 0.93467 0.0
H191 H 0.84158 0.03327 0.93819 0.0
H192 H 0.80261 1.0183 0.98676 0.0
H193 H 0.12055 0.03819 0.11819 0.0
H194 H 0.09368 0.07439 0.10684 0.0
H195 H 0.97124 0.06371 0.96849 0.0
C196 C 0.04124 0.98346 0.99111 0.0
C197 C 0.07001 0.96921 0.02456 0.0
C198 C 0.09746 0.9755 0.06944 0.0
C199 C 0.09917 0.99576 0.08079 0.0
C200 C 0.07047 1.00949 0.047 0.0
C201 C 0.04006 1.00358 1.00324 0.0
C202 C 0.00561 1.02119 0.97393 0.0
C203 C 0.09764 1.02314 0.93369 0.0
C204 C 0.86828 1.01978 0.95743 0.0
C205 C 0.02199 0.03797 1.00789 0.0
C206 C 0.06153 0.03096 0.04966 0.0
C207 C 0.08822 0.04379 0.0858 0.0
C208 C 0.07313 0.06426 0.07914 0.0
C209 C 0.0291 0.07163 0.03711 0.0
C210 C 0.00315 0.05831 1.00114 0.0
H211 H 0.94231 0.987 0.48619 0.0
H212 H 0.27825 0.98053 0.56895 0.0
H213 H 0.28998 1.01679 0.57798 0.0
H214 H 0.04363 0.03061 0.4273 0.0
H215 H 0.88937 0.04192 0.42612 0.0
H216 H 0.90441 1.01535 0.42722 0.0
H217 H 0.76373 1.01417 0.49932 0.0
H218 H 0.74828 0.04074 0.49843 0.0
H219 H 0.80664 0.02862 0.54869 0.0
H220 H 0.2653 0.05362 0.57872 0.0
H221 H 0.21134 0.08867 0.56897 0.0
H222 H 0.89533 0.07193 0.48293 0.0
C223 C 0.01755 0.99323 0.50653 0.0
C224 C 0.10958 0.98087 0.52681 0.0
C225 C 0.20764 0.98965 0.55264 0.0
C226 C 0.21463 1.01025 0.55821 0.0
C227 C 0.12317 1.022 0.53759 0.0
C228 C 0.02669 1.01387 0.5121 0.0
C229 C 0.9428 0.02998 0.49252 0.0
C230 C 0.94526 0.02943 0.44018 0.0
C231 C 0.80734 0.02827 0.51085 0.0
C232 C 0.00747 0.04839 0.51097 0.0
C233 C 0.11073 0.04339 0.5371 0.0
C234 C 0.18512 0.05773 0.55803 0.0
C235 C 0.15388 0.07773 0.55192 0.0
C236 C 0.0495 0.08342 0.52466 0.0
C237 C 0.97532 0.06835 0.50415 0.0
H238 H 0.73686 0.54657 0.04387 0.0
H239 H 0.43232 0.58337 0.99259 0.0
H240 H 0.30053 0.55402 0.98244 0.0
H241 H 0.67859 0.50406 0.96898 0.0
H242 H 0.71367 0.48602 1.01213 0.0
H243 H 0.78886 0.50989 0.01371 0.0
H244 H 0.70659 0.51556 0.09582 0.0
H245 H 0.63103 0.49172 0.09447 0.0
H246 H 0.53993 0.51366 0.10726 0.0
H247 H 0.19558 0.52128 0.98089 0.0
H248 H 0.12658 0.48659 0.98603 0.0
H249 H 0.49428 0.47 0.03855 0.0
C250 C 0.6428 0.54841 0.03024 0.0
C251 C 0.59674 0.56743 0.01838 0.0
C252 C 0.47241 0.56911 1.00082 0.0
C253 C 0.39567 0.55245 0.99526 0.0
C254 C 0.44365 0.53404 1.00731 0.0
C255 C 0.56435 0.53182 0.02426 0.0
C256 C 0.59089 0.51022 0.03526 0.0
C257 C 0.69944 0.50207 1.00575 0.0
C258 C 0.61873 0.50765 0.08624 0.0
C259 C 0.46576 0.50081 0.02225 0.0
C260 C 0.38247 0.5149 1.00627 0.0
C261 C 0.26006 0.51008 0.99321 0.0
C262 C 0.22137 0.49032 0.99655 0.0
C263 C 0.30455 0.47549 1.01273 0.0
C264 C 0.42882 0.4809 0.02553 0.0
H265 H 0.69282 0.50145 0.50015 0.0
H266 H 0.39152 0.46805 0.56357 0.0
H267 H 0.26571 0.49854 0.57148 0.0
H268 H 0.65842 0.5454 0.57116 0.0
H269 H 0.69163 0.56232 0.52553 0.0
H270 H 0.75921 0.53781 0.52469 0.0
H271 H 0.66189 0.53145 0.44515 0.0
H272 H 0.59382 0.55593 0.44579 0.0
H273 H 0.49442 0.53464 0.43723 0.0
H274 H 0.1703 0.53261 0.57225 0.0
H275 H 0.11409 0.56792 0.56694 0.0
H276 H 0.47582 0.57971 0.50315 0.0
C277 C 0.60092 0.50054 0.51604 0.0
C278 C 0.55228 0.48213 0.53083 0.0
C279 C 0.43067 0.48174 0.5511 0.0
C280 C 0.35842 0.49907 0.55606 0.0
C281 C 0.40857 0.51686 0.54078 0.0
C282 C 0.52714 0.51778 0.52131 0.0
C283 C 0.55816 0.53887 0.5076 0.0
C284 C 0.6737 0.54655 0.53381 0.0
C285 C 0.57822 0.5403 0.45587 0.0
C286 C 0.43845 0.5496 0.52237 0.0
C287 C 0.35351 0.53659 0.54141 0.0
C288 C 0.2361 0.54293 0.55735 0.0
C289 C 0.2046 0.56308 0.55388 0.0
C290 C 0.28988 0.57683 0.53457 0.0
C291 C 0.40852 0.56981 0.51861 0.0
H292 H 0.02173 0.17463 0.17318 0.0
H293 H 0.38206 0.14511 0.15447 0.0
H294 H 0.43075 0.15074 0.23633 0.0
H295 H 0.12727 0.21165 0.25855 0.0
H296 H 0.97943 0.21023 0.28874 0.0
H297 H 0.98393 0.20627 0.22802 0.0
H298 H 0.87595 0.17218 0.23827 0.0
H299 H 0.87135 0.176 0.29878 0.0
H300 H 0.94653 0.15418 0.27554 0.0
H301 H 0.42346 0.15588 0.32321 0.0
H302 H 0.36208 0.1599 0.40426 0.0
H303 H 0.00827 0.18655 0.36247 0.0
C304 C 0.11204 0.16962 0.18601 0.0
C305 C 0.19801 0.15935 0.15775 0.0
C306 C 0.31526 0.1531 0.1757 0.0
C307 C 0.34349 0.15626 0.22205 0.0
C308 C 0.25434 0.166 0.24938 0.0
C309 C 0.14162 0.17278 0.2316 0.0
C310 C 0.05663 0.18145 0.26791 0.0
C311 C 0.03565 0.20372 0.26035 0.0
C312 C 0.93028 0.17028 0.27025 0.0
C313 C 0.13631 0.17777 0.3095 0.0
C314 C 0.25089 0.16912 0.29842 0.0
C315 C 0.33502 0.16298 0.33209 0.0
C316 C 0.29952 0.16535 0.37803 0.0
C317 C 0.18048 0.17358 0.38965 0.0
C318 C 0.10024 0.18033 0.35478 0.0
H319 H 0.81485 0.86868 0.36949 0.0
H320 H 0.68267 0.92854 0.39492 0.0
H321 H 0.65686 0.93344 0.31178 0.0
H322 H 0.00493 0.88089 0.27829 0.0
H323 H 0.97898 0.85824 0.24697 0.0
H324 H 0.9651 0.85848 0.30795 0.0
H325 H 0.73804 0.84463 0.30173 0.0
H326 H 0.75122 0.84433 0.24056 0.0
H327 H 0.62289 0.85746 0.26767 0.0
H328 H 0.66085 0.93223 0.22401 0.0
H329 H 0.71477 0.92624 0.14266 0.0
H330 H 0.85927 0.86819 0.17719 0.0
C331 C 0.77656 0.88263 0.35777 0.0
C332 C 0.7481 0.89809 0.3888 0.0
C333 C 0.70329 0.91639 0.3718 0.0
C334 C 0.68813 0.91927 0.32463 0.0
C335 C 0.71959 0.90379 0.29486 0.0
C336 C 0.76374 0.88586 0.311 0.0
C337 C 0.80589 0.87238 0.27251 0.0
C338 C 0.94705 0.86721 0.27669 0.0
C339 C 0.72462 0.85359 0.27051 0.0
C340 C 0.78093 0.88557 0.23206 0.0
C341 C 0.7284 0.90347 0.24527 0.0
C342 C 0.70109 0.91818 0.21342 0.0
C343 C 0.73125 0.91464 0.16727 0.0
C344 C 0.79059 0.89674 0.15375 0.0
C345 C 0.81329 0.88198 0.18658 0.0
H346 H 0.76107 0.86568 0.65923 0.0
H347 H 0.72356 0.92897 0.63972 0.0
H348 H 0.69373 0.93363 0.7227 0.0
H349 H 0.54164 0.86081 0.75758 0.0
H350 H 0.64262 0.84304 0.78516 0.0
H351 H 0.63911 0.84438 0.72391 0.0
H352 H 0.88135 0.84942 0.72249 0.0
H353 H 0.88553 0.84807 0.78355 0.0
H354 H 0.94942 0.86938 0.75514 0.0
H355 H 0.68715 0.9316 0.80917 0.0
H356 H 0.72363 0.9234 0.89021 0.0
H357 H 0.77603 0.86172 0.85267 0.0
C358 C 0.74252 0.88045 0.67227 0.0
C359 C 0.74224 0.89693 0.64292 0.0
C360 C 0.72271 0.91611 0.66154 0.0
C361 C 0.70524 0.91888 0.70863 0.0
C362 C 0.70862 0.90235 0.73684 0.0
C363 C 0.72744 0.8835 0.71928 0.0
C364 C 0.74248 0.86849 0.75702 0.0
C365 C 0.63503 0.85329 0.75584 0.0
C366 C 0.87239 0.85825 0.75438 0.0
C367 C 0.73218 0.88186 0.79852 0.0
C368 C 0.70993 0.90128 0.78636 0.0
C369 C 0.70317 0.91639 0.81904 0.0
C370 C 0.7233 0.9116 0.86508 0.0
C371 C 0.75205 0.89192 0.87786 0.0
C372 C 0.75327 0.87688 0.84407 0.0
H373 H 0.15952 0.11437 0.8618 0.0
H374 H 0.38911 0.16463 0.90027 0.0
H375 H 0.44133 0.17012 0.81898 0.0
H376 H 0.34487 0.09838 0.75675 0.0
H377 H 0.2001 0.09238 0.72776 0.0
H378 H 0.21176 0.08927 0.78851 0.0
H379 H 0.01422 0.11154 0.79954 0.0
H380 H 0.00275 0.11492 0.73924 0.0
H381 H 0.01387 0.1362 0.77637 0.0
H382 H 0.42967 0.17411 0.7326 0.0
H383 H 0.35463 0.17615 0.65267 0.0
H384 H 0.12761 0.12381 0.67333 0.0
C385 C 0.22508 0.12604 0.85328 0.0
C386 C 0.27089 0.13901 0.88712 0.0
C387 C 0.35471 0.15433 0.8748 0.0
C388 C 0.38448 0.15756 0.82869 0.0
C389 C 0.33107 0.14514 0.79572 0.0
C390 C 0.25454 0.12947 0.80779 0.0
C391 C 0.19254 0.12006 0.7668 0.0
C392 C 0.24025 0.09876 0.75953 0.0
C393 C 0.0474 0.12075 0.77075 0.0
C394 C 0.23979 0.13356 0.72987 0.0
C395 C 0.32227 0.14765 0.74663 0.0
C396 C 0.36759 0.16286 0.71902 0.0
C397 C 0.32474 0.16392 0.67371 0.0
C398 C 0.23562 0.15011 0.65716 0.0
C399 C 0.19637 0.13448 0.68521 0.0
H400 H 0.49587 0.66791 0.16025 0.0
H401 H 0.46612 0.60381 0.16164 0.0
H402 H 0.46602 0.60436 0.24539 0.0
H403 H 0.69759 0.67318 0.25704 0.0
H404 H 0.62018 0.695 0.27928 0.0
H405 H 0.61807 0.68992 0.219 0.0
H406 H 0.37386 0.69145 0.21891 0.0
H407 H 0.37536 0.69686 0.27902 0.0
H408 H 0.28644 0.6761 0.25768 0.0
H409 H 0.48215 0.61141 0.3288 0.0
H410 H 0.47732 0.62488 0.40692 0.0
H411 H 0.4828 0.68461 0.35315 0.0
C412 C 0.48796 0.65402 0.17821 0.0
C413 C 0.48112 0.63581 0.15416 0.0
C414 C 0.47064 0.61797 0.17905 0.0
C415 C 0.47161 0.6181 0.22676 0.0
C416 C 0.48129 0.6362 0.24939 0.0
C417 C 0.48642 0.65389 0.22609 0.0
C418 C 0.49116 0.67131 0.25904 0.0
C419 C 0.61408 0.68304 0.25323 0.0
C420 C 0.37476 0.68472 0.25332 0.0
C421 C 0.48855 0.6606 0.30436 0.0
C422 C 0.48499 0.64034 0.29787 0.0
C423 C 0.48394 0.62727 0.33435 0.0
C424 C 0.4822 0.63508 0.3787 0.0
C425 C 0.47957 0.65583 0.38639 0.0
C426 C 0.48493 0.6687 0.34852 0.0
H427 H 0.42408 0.39991 0.37677 0.0
H428 H 0.82913 0.39426 0.35875 0.0
H429 H 0.8001 0.38987 0.27626 0.0
H430 H 0.33349 0.36427 0.2869 0.0
H431 H 0.20047 0.37891 0.26876 0.0
H432 H 0.25154 0.37995 0.3272 0.0
H433 H 0.27373 0.41804 0.32156 0.0
H434 H 0.22325 0.41709 0.26312 0.0
H435 H 0.37174 0.4284 0.2776 0.0
H436 H 0.72978 0.38787 0.19478 0.0
H437 H 0.62091 0.38869 0.12032 0.0
H438 H 0.26244 0.39617 0.1902 0.0
C439 C 0.50618 0.39738 0.35551 0.0
C440 C 0.62883 0.39736 0.37439 0.0
C441 C 0.73414 0.39438 0.3452 0.0
C442 C 0.71878 0.39181 0.29819 0.0
C443 C 0.5973 0.39228 0.28044 0.0
C444 C 0.49262 0.39496 0.3081 0.0
C445 C 0.37321 0.39594 0.27976 0.0
C446 C 0.28445 0.37874 0.29135 0.0
C447 C 0.30661 0.41606 0.28588 0.0
C448 C 0.42757 0.39364 0.23211 0.0
C449 C 0.55691 0.39139 0.23326 0.0
C450 C 0.62825 0.38949 0.19343 0.0
C451 C 0.56571 0.38998 0.15126 0.0
C452 C 0.4332 0.39247 0.14921 0.0
C453 C 0.36384 0.39419 0.1904 0.0
H454 H 0.49798 0.40698 0.87685 0.0
H455 H 0.32615 0.34886 0.86706 0.0
H456 H 0.33781 0.35041 0.78341 0.0
H457 H 0.34742 0.42831 0.7794 0.0
H458 H 0.48462 0.44184 0.76123 0.0
H459 H 0.46241 0.43637 0.82063 0.0
H460 H 0.68109 0.41913 0.82323 0.0
H461 H 0.70467 0.42481 0.76404 0.0
H462 H 0.71652 0.39957 0.78311 0.0
H463 H 0.36172 0.35872 0.69969 0.0
H464 H 0.42145 0.37151 0.62373 0.0
H465 H 0.58374 0.42345 0.68815 0.0
C466 C 0.46361 0.39452 0.85715 0.0
C467 C 0.41097 0.37782 0.87881 0.0
C468 C 0.36737 0.36182 0.85154 0.0
C469 C 0.37274 0.36259 0.80383 0.0
C470 C 0.42298 0.37939 0.78356 0.0
C471 C 0.46954 0.39494 0.80935 0.0
C472 C 0.52282 0.41097 0.7791 0.0
C473 C 0.44994 0.43053 0.78548 0.0
C474 C 0.66469 0.41378 0.78789 0.0
C475 C 0.49894 0.40202 0.73241 0.0
C476 C 0.43976 0.38391 0.73559 0.0
C477 C 0.40832 0.37289 0.69682 0.0
C478 C 0.44155 0.38032 0.65377 0.0
C479 C 0.50684 0.39847 0.64997 0.0
C480 C 0.53367 0.40952 0.68991 0.0
H481 H 0.40766 0.68309 0.88302 0.0
H482 H 0.63267 0.6295 0.89329 0.0
H483 H 0.63261 0.62609 0.80965 0.0
H484 H 0.21071 0.66466 0.79087 0.0
H485 H 0.19776 0.68845 0.76382 0.0
H486 H 0.21982 0.68704 0.82447 0.0
H487 H 0.41715 0.70936 0.8177 0.0
H488 H 0.39681 0.71056 0.7569 0.0
H489 H 0.5442 0.70201 0.78029 0.0
H490 H 0.61862 0.62948 0.72432 0.0
H491 H 0.55792 0.63596 0.64438 0.0
H492 H 0.32618 0.68539 0.68945 0.0
C493 C 0.45616 0.67059 0.86759 0.0
C494 C 0.52039 0.6566 0.89471 0.0
C495 C 0.58202 0.64035 0.87328 0.0
C496 C 0.58361 0.63837 0.82573 0.0
C497 C 0.52119 0.65256 0.79989 0.0
C498 C 0.45589 0.66808 0.82006 0.0
C499 C 0.3899 0.68055 0.78447 0.0
C500 C 0.24602 0.68014 0.79132 0.0
C501 C 0.44005 0.70189 0.78488 0.0
C502 C 0.42876 0.66966 0.74129 0.0
C503 C 0.5068 0.65381 0.75086 0.0
C504 C 0.55683 0.64178 0.71642 0.0
C505 C 0.52289 0.64566 0.6711 0.0
C506 C 0.43771 0.66116 0.66083 0.0
C507 C 0.39164 0.67344 0.6964 0.0
H508 H 0.97818 0.31995 0.97112 0.0
H509 H 0.18549 0.32817 0.09697 0.0
H510 H 0.17631 0.29217 0.11087 0.0
H511 H 0.77214 0.28006 1.01174 0.0
H512 H 0.77627 0.26705 0.95799 0.0
H513 H 0.79155 0.29361 0.95956 0.0
H514 H 0.00242 0.2909 0.9152 0.0
H515 H 0.98801 0.26436 0.91358 0.0
H516 H 0.12756 0.27558 0.93723 0.0
H517 H 0.15243 0.25513 0.10947 0.0
H518 H 0.11924 0.21978 0.09245 0.0
H519 H 0.93055 0.23544 0.9666 0.0
C520 C 0.01935 0.31427 1.00208 0.0
C521 C 0.08227 0.32697 0.03308 0.0
C522 C 0.13756 0.31877 0.07262 0.0
C523 C 0.13219 0.29834 0.08092 0.0
C524 C 0.07098 0.28623 0.04939 0.0
C525 C 0.0153 0.29388 1.0108 0.0
C526 C 0.9606 0.27751 0.98128 0.0
C527 C 0.81658 0.27969 0.97743 0.0
C528 C 0.02345 0.27707 0.93403 0.0
C529 C -0.00382 0.25944 1.00889 0.0
C530 C 0.05875 0.26483 0.04826 0.0
C531 C 0.10342 0.25075 0.07875 0.0
C532 C 0.08486 0.23064 0.06856 0.0
C533 C 0.02296 0.22465 0.02797 0.0
C534 C 0.97694 0.23939 0.99812 0.0
H535 H 0.04208 0.72027 0.03168 0.0
H536 H 0.6382 0.71739 1.00845 0.0
H537 H 0.6277 0.75368 1.00555 0.0
H538 H 0.03471 0.76415 0.10338 0.0
H539 H 0.17822 0.77435 0.08055 0.0
H540 H 0.15566 0.74792 0.08108 0.0
H541 H 0.19519 0.74641 0.99412 0.0
H542 H 0.21785 0.77283 0.99334 0.0
H543 H 0.10125 0.7616 0.9569 0.0
H544 H 0.6587 0.78996 1.00362 0.0
H545 H 0.72886 0.82447 1.00367 0.0
H546 H 0.11337 0.80507 0.02975 0.0
C547 C 0.95171 0.72731 0.02588 0.0
C548 C 0.84073 0.71588 0.02085 0.0
C549 C 0.72412 0.7257 0.01344 0.0
C550 C 0.71721 0.74637 1.01137 0.0
C551 C 0.82768 0.75717 0.01677 0.0
C552 C 0.94286 0.74808 0.02394 0.0
C553 C 0.04673 0.76341 0.02886 0.0
C554 C 0.10739 0.76239 0.07629 0.0
C555 C 0.14612 0.76091 0.99104 0.0
C556 C 0.9716 0.78245 0.02305 0.0
C557 C 0.84554 0.7784 0.0161 0.0
C558 C 0.7571 0.79336 1.00941 0.0
C559 C 0.79816 0.81304 1.00988 0.0
C560 C 0.9269 0.81778 0.01724 0.0
C561 C 0.01452 0.80212 0.02385 0.0
H562 H 0.07149 0.82082 0.4475 0.0
H563 H 0.12394 0.83615 0.58958 0.0
H564 H 0.1522 0.80056 0.60781 0.0
H565 H 0.89198 0.77632 0.4674 0.0
H566 H 0.96007 0.7632 0.41966 0.0
H567 H 0.9459 0.78977 0.41831 0.0
H568 H 0.18578 0.79265 0.40275 0.0
H569 H 0.20076 0.76609 0.40411 0.0
H570 H 0.29594 0.78121 0.44127 0.0
H571 H 0.18703 0.76304 0.60897 0.0
H572 H 0.20467 0.7269 0.59441 0.0
H573 H 0.11571 0.73631 0.45236 0.0
C574 C 0.08949 0.81668 0.48242 0.0
C575 C 0.09693 0.83124 0.51715 0.0
C576 C 0.11785 0.82521 0.56258 0.0
C577 C 0.13449 0.80506 0.57312 0.0
C578 C 0.12777 0.79109 0.53792 0.0
C579 C 0.10398 0.79667 0.49357 0.0
C580 C 0.09774 0.77882 0.46209 0.0
C581 C 0.96608 0.77692 0.44061 0.0
C582 C 0.20123 0.77975 0.4254 0.0
C583 C 0.12288 0.76227 0.49546 0.0
C584 C 0.14139 0.76963 0.53898 0.0
C585 C 0.17132 0.75715 0.57511 0.0
C586 C 0.1817 0.73668 0.56655 0.0
C587 C 0.16029 0.72883 0.52243 0.0
C588 C 0.13034 0.74187 0.48658 0.0
H589 H -0.0056 0.32758 0.49931 0.0
H590 H 0.72158 0.33875 0.60672 0.0
H591 H 0.71403 0.30305 0.62326 0.0
H592 H 0.85636 0.28323 0.45829 0.0
H593 H 0.00315 0.27067 0.4463 0.0
H594 H -0.00451 0.2973 0.4447 0.0
H595 H 0.17707 0.29949 0.50335 0.0
H596 H 0.18576 0.27285 0.50494 0.0
H597 H 0.16279 0.28678 0.55686 0.0
H598 H 0.72521 0.26631 0.62558 0.0
H599 H 0.7578 0.23049 0.61478 0.0
H600 H 0.02363 0.2421 0.50576 0.0
C601 C 0.9352 0.32252 0.52689 0.0
C602 C 0.85838 0.33601 0.55175 0.0
C603 C 0.78025 0.32872 0.587 0.0
C604 C 0.77577 0.30846 0.59678 0.0
C605 C 0.85026 0.29553 0.57112 0.0
C606 C 0.92913 0.3022 0.53704 0.0
C607 C -0.00488 0.2849 0.51347 0.0
C608 C 0.96042 0.28398 0.46268 0.0
C609 C 0.13872 0.28608 0.52006 0.0
C610 C 0.93963 0.26753 0.53926 0.0
C611 C 0.85666 0.27409 0.57244 0.0
C612 C 0.79039 0.26098 0.59984 0.0
C613 C 0.80886 0.24061 0.59318 0.0
C614 C 0.89288 0.23337 0.5593 0.0
C615 C 0.95987 0.24712 0.53226 0.0
loop_
_geom_bond_atom_site_label_1
_geom_bond_atom_site_label_2
_geom_bond_distance
_geom_bond_site_symmetry_2
_ccdc_geom_bond_type
Cu0 N1 1.999 . S
Cu0 O6 1.974 . S
Cu0 N11 1.985 . S
Cu0 O20 1.959 1_554 S
N1 Cu0 1.999 . S
N1 C3 1.263 . S
N1 C5 1.389 1_554 S
N2 C3 1.358 . S
N2 C4 1.400 1_554 S
C3 N1 1.263 . S
C3 N2 1.358 . S
C3 H9 0.930 1_455 S
C4 N2 1.400 1_556 S
C4 C5 1.351 . S
C4 H21 0.930 . S
C5 N1 1.389 1_556 S
C5 C4 1.351 . S
C5 H10 0.930 . S
O6 Cu0 1.974 . S
O6 C16 1.282 . S
C7 O8 1.261 1_455 S
C7 O20 1.251 . S
O8 C7 1.261 1_655 S
H9 C3 0.930 1_655 S
H10 C5 0.930 . S
N11 Cu0 1.985 . S
N11 C13 1.335 1_554 S
N11 C14 1.390 . S
N12 C13 1.345 . S
N12 C15 1.336 1_556 S
C13 N11 1.335 1_556 S
C13 N12 1.345 . S
C13 H18 0.930 . S
C14 N11 1.390 . S
C14 C15 1.346 . S
C14 H19 0.930 . S
C15 N12 1.336 1_554 S
C15 C14 1.346 . S
C15 H22 0.929 . S
C16 O6 1.282 . S
C16 O17 1.216 1_455 S
O17 C16 1.216 1_655 S
H18 C13 0.930 . S
H19 C14 0.930 . S
O20 Cu0 1.959 1_556 S
O20 C7 1.251 . S
H21 C4 0.930 . S
H22 C15 0.929 . S
Cu23 N24 1.999 . S
Cu23 O29 1.974 . S
Cu23 N34 1.985 . S
Cu23 O43 1.959 1_554 S
N24 Cu23 1.999 . S
N24 C26 1.263 . S
N24 C28 1.389 1_554 S
N25 C26 1.358 . S
N25 C27 1.400 1_554 S
C26 N24 1.263 . S
C26 N25 1.358 . S
C26 H32 0.930 1_655 S
C27 N25 1.400 1_556 S
C27 C28 1.351 . S
C27 H44 0.930 . S
C28 N24 1.389 1_556 S
C28 C27 1.351 . S
C28 H33 0.930 . S
O29 Cu23 1.974 . S
O29 C39 1.282 . S
C30 O31 1.261 1_655 S
C30 O43 1.251 . S
O31 C30 1.261 1_455 S
H32 C26 0.930 1_455 S
H33 C28 0.930 . S
N34 Cu23 1.985 . S
N34 C36 1.335 1_554 S
N34 C37 1.390 . S
N35 C36 1.345 . S
N35 C38 1.336 1_556 S
C36 N34 1.335 1_556 S
C36 N35 1.345 . S
C36 H41 0.930 . S
C37 N34 1.390 . S
C37 C38 1.346 . S
C37 H42 0.930 . S
C38 N35 1.336 1_554 S
C38 C37 1.346 . S
C38 H45 0.929 . S
C39 O29 1.282 . S
C39 O40 1.216 1_655 S
O40 C39 1.216 1_455 S
H41 C36 0.930 . S
H42 C37 0.930 . S
O43 Cu23 1.959 1_556 S
O43 C30 1.251 . S
H44 C27 0.930 . S
H45 C38 0.929 . S
Cu46 N47 1.999 . S
Cu46 O52 1.974 . S
Cu46 N57 1.985 . S
Cu46 O66 1.959 . S
N47 Cu46 1.999 . S
N47 C49 1.263 . S
N47 C51 1.389 . S
N48 C49 1.358 . S
N48 C50 1.400 . S
C49 N47 1.263 . S
C49 N48 1.358 . S
C49 H55 0.930 1_455 S
C50 N48 1.400 . S
C50 C51 1.351 . S
C50 H67 0.930 . S
C51 N47 1.389 . S
C51 C50 1.351 . S
C51 H56 0.930 . S
O52 Cu46 1.974 . S
O52 C62 1.282 . S
C53 O54 1.261 1_455 S
C53 O66 1.251 . S
O54 C53 1.261 1_655 S
H55 C49 0.930 1_655 S
H56 C51 0.930 . S
N57 Cu46 1.985 . S
N57 C59 1.335 . S
N57 C60 1.390 . S
N58 C59 1.345 . S
N58 C61 1.336 . S
C59 N57 1.335 . S
C59 N58 1.345 . S
C59 H64 0.930 . S
C60 N57 1.390 . S
C60 C61 1.346 . S
C60 H65 0.930 . S
C61 N58 1.336 . S
C61 C60 1.346 . S
C61 H68 0.929 . S
C62 O52 1.282 . S
C62 O63 1.216 1_455 S
O63 C62 1.216 1_655 S
H64 C59 0.930 . S
H65 C60 0.930 . S
O66 Cu46 1.959 . S
O66 C53 1.251 . S
H67 C50 0.930 . S
H68 C61 0.929 . S
Cu69 N70 1.999 . S
Cu69 O75 1.974 . S
Cu69 N80 1.985 . S
Cu69 O89 1.959 . S
N70 Cu69 1.999 . S
N70 C72 1.263 . S
N70 C74 1.389 . S
N71 C72 1.358 . S
N71 C73 1.400 . S
C72 N70 1.263 . S
C72 N71 1.358 . S
C72 H78 0.930 1_655 S
C73 N71 1.400 . S
C73 C74 1.351 . S
C73 H90 0.930 . S
C74 N70 1.389 . S
C74 C73 1.351 . S
C74 H79 0.930 . S
O75 Cu69 1.974 . S
O75 C85 1.282 . S
C76 O77 1.261 1_655 S
C76 O89 1.251 . S
O77 C76 1.261 1_455 S
H78 C72 0.930 1_455 S
H79 C74 0.930 . S
N80 Cu69 1.985 . S
N80 C82 1.335 . S
N80 C83 1.390 . S
N81 C82 1.345 . S
N81 C84 1.336 . S
C82 N80 1.335 . S
C82 N81 1.345 . S
C82 H87 0.930 . S
C83 N80 1.390 . S
C83 C84 1.346 . S
C83 H88 0.930 . S
C84 N81 1.336 . S
C84 C83 1.346 . S
C84 H91 0.929 . S
C85 O75 1.282 . S
C85 O86 1.216 1_655 S
O86 C85 1.216 1_455 S
H87 C82 0.930 . S
H88 C83 0.930 . S
O89 Cu69 1.959 . S
O89 C76 1.251 . S
H90 C73 0.930 . S
H91 C84 0.929 . S
Cu92 N93 1.999 . S
Cu92 O98 1.974 . S
Cu92 N103 1.985 . S
Cu92 O112 1.959 1_554 S
N93 Cu92 1.999 . S
N93 C95 1.263 . S
N93 C97 1.389 1_554 S
N94 C95 1.358 . S
N94 C96 1.400 1_554 S
C95 N93 1.263 . S
C95 N94 1.358 . S
C95 H101 0.930 . S
C96 N94 1.400 1_556 S
C96 C97 1.351 . S
C96 H113 0.930 . S
C97 N93 1.389 1_556 S
C97 C96 1.351 . S
C97 H102 0.930 . S
O98 Cu92 1.974 . S
O98 C108 1.282 . S
C99 O100 1.261 . S
C99 O112 1.251 . S
O100 C99 1.261 . S
H101 C95 0.930 . S
H102 C97 0.930 . S
N103 Cu92 1.985 . S
N103 C105 1.335 1_554 S
N103 C106 1.390 . S
N104 C105 1.345 . S
N104 C107 1.336 1_556 S
C105 N103 1.335 1_556 S
C105 N104 1.345 . S
C105 H110 0.930 . S
C106 N103 1.390 . S
C106 C107 1.346 . S
C106 H111 0.930 . S
C107 N104 1.336 1_554 S
C107 C106 1.346 . S
C107 H114 0.929 . S
C108 O98 1.282 . S
C108 O109 1.216 . S
O109 C108 1.216 . S
H110 C105 0.930 . S
H111 C106 0.930 . S
O112 Cu92 1.959 1_556 S
O112 C99 1.251 . S
H113 C96 0.930 . S
H114 C107 0.929 . S
Cu115 N116 1.999 . S
Cu115 O121 1.974 . S
Cu115 N126 1.985 . S
Cu115 O135 1.959 1_554 S
N116 Cu115 1.999 . S
N116 C118 1.263 . S
N116 C120 1.389 1_554 S
N117 C118 1.358 . S
N117 C119 1.400 1_554 S
C118 N116 1.263 . S
C118 N117 1.358 . S
C118 H124 0.930 . S
C119 N117 1.400 1_556 S
C119 C120 1.351 . S
C119 H136 0.930 . S
C120 N116 1.389 1_556 S
C120 C119 1.351 . S
C120 H125 0.930 . S
O121 Cu115 1.974 . S
O121 C131 1.282 . S
C122 O123 1.261 . S
C122 O135 1.251 . S
O123 C122 1.261 . S
H124 C118 0.930 . S
H125 C120 0.930 . S
N126 Cu115 1.985 . S
N126 C128 1.335 1_554 S
N126 C129 1.390 . S
N127 C128 1.345 . S
N127 C130 1.336 1_556 S
C128 N126 1.335 1_556 S
C128 N127 1.345 . S
C128 H133 0.930 . S
C129 N126 1.390 . S
C129 C130 1.346 . S
C129 H134 0.930 . S
C130 N127 1.336 1_554 S
C130 C129 1.346 . S
C130 H137 0.929 . S
C131 O121 1.282 . S
C131 O132 1.216 . S
O132 C131 1.216 . S
H133 C128 0.930 . S
H134 C129 0.930 . S
O135 Cu115 1.959 1_556 S
O135 C122 1.251 . S
H136 C119 0.930 . S
H137 C130 0.929 . S
Cu138 N139 1.999 . S
Cu138 O144 1.974 . S
Cu138 N149 1.985 . S
Cu138 O158 1.959 . S
N139 Cu138 1.999 . S
N139 C141 1.263 . S
N139 C143 1.389 . S
N140 C141 1.358 . S
N140 C142 1.400 . S
C141 N139 1.263 . S
C141 N140 1.358 . S
C141 H147 0.930 . S
C142 N140 1.400 . S
C142 C143 1.351 . S
C142 H159 0.930 . S
C143 N139 1.389 . S
C143 C142 1.351 . S
C143 H148 0.930 . S
O144 Cu138 1.974 . S
O144 C154 1.282 . S
C145 O146 1.261 . S
C145 O158 1.251 . S
O146 C145 1.261 . S
H147 C141 0.930 . S
H148 C143 0.930 . S
N149 Cu138 1.985 . S
N149 C151 1.335 . S
N149 C152 1.390 . S
N150 C151 1.345 . S
N150 C153 1.336 . S
C151 N149 1.335 . S
C151 N150 1.345 . S
C151 H156 0.930 . S
C152 N149 1.390 . S
C152 C153 1.346 . S
C152 H157 0.930 . S
C153 N150 1.336 . S
C153 C152 1.346 . S
C153 H160 0.929 . S
C154 O144 1.282 . S
C154 O155 1.216 . S
O155 C154 1.216 . S
H156 C151 0.930 . S
H157 C152 0.930 . S
O158 Cu138 1.959 . S
O158 C145 1.251 . S
H159 C142 0.930 . S
H160 C153 0.929 . S
Cu161 N162 1.999 . S
Cu161 O167 1.974 . S
Cu161 N172 1.985 . S
Cu161 O181 1.959 . S
N162 Cu161 1.999 . S
N162 C164 1.263 . S
N162 C166 1.389 . S
N163 C164 1.358 . S
N163 C165 1.400 . S
C164 N162 1.263 . S
C164 N163 1.358 . S
C164 H170 0.930 . S
C165 N163 1.400 . S
C165 C166 1.351 . S
C165 H182 0.930 . S
C166 N162 1.389 . S
C166 C165 1.351 . S
C166 H171 0.930 . S
O167 Cu161 1.974 . S
O167 C177 1.282 . S
C168 O169 1.261 . S
C168 O181 1.251 . S
O169 C168 1.261 . S
H170 C164 0.930 . S
H171 C166 0.930 . S
N172 Cu161 1.985 . S
N172 C174 1.335 . S
N172 C175 1.390 . S
N173 C174 1.345 . S
N173 C176 1.336 . S
C174 N172 1.335 . S
C174 N173 1.345 . S
C174 H179 0.930 . S
C175 N172 1.390 . S
C175 C176 1.346 . S
C175 H180 0.930 . S
C176 N173 1.336 . S
C176 C175 1.346 . S
C176 H183 0.929 . S
C177 O167 1.282 . S
C177 O178 1.216 . S
O178 C177 1.216 . S
H179 C174 0.930 . S
H180 C175 0.930 . S
O181 Cu161 1.959 . S
O181 C168 1.251 . S
H182 C165 0.930 . S
H183 C176 0.929 . S
H184 C196 0.930 . S
H185 C198 0.930 . S
H186 C199 0.930 . S
H187 C203 0.964 . S
H188 C203 0.959 1_545 S
H189 C203 0.961 . S
H190 C204 0.922 1_565 S
H191 C204 0.995 . S
H192 C204 0.967 . S
H193 C207 0.929 . S
H194 C208 0.931 . S
H195 C210 0.930 . S
C196 H184 0.930 . S
C196 C197 1.399 1_456 S
C196 C201 1.399 1_556 S
C197 C196 1.399 1_654 S
C197 C198 1.376 . S
C198 H185 0.930 . S
C198 C197 1.376 . S
C198 C199 1.388 . S
C199 H186 0.930 . S
C199 C198 1.388 . S
C199 C200 1.390 . S
C200 C199 1.390 . S
C200 C201 1.394 1_655 S
C200 C206 1.465 1_565 S
C201 C196 1.399 1_554 S
C201 C200 1.394 1_455 S
C201 C202 1.531 1_554 S
C202 C201 1.531 1_556 S
C202 C203 1.503 . S
C202 C204 1.559 1_465 S
C202 C205 1.510 1_566 S
C203 H187 0.964 . S
C203 H188 0.959 1_565 S
C203 H189 0.961 . S
C203 C202 1.503 . S
C204 H190 0.922 1_545 S
C204 H191 0.995 . S
C204 H192 0.967 . S
C204 C202 1.559 1_645 S
C205 C202 1.510 1_544 S
C205 C206 1.396 1_455 S
C205 C210 1.390 1_554 S
C206 C200 1.465 1_545 S
C206 C205 1.396 1_655 S
C206 C207 1.399 . S
C207 H193 0.929 . S
C207 C206 1.399 . S
C207 C208 1.385 . S
C208 H194 0.931 . S
C208 C207 1.385 . S
C208 C209 1.389 1_655 S
C209 C208 1.389 1_455 S
C209 C210 1.387 1_554 S
C210 H195 0.930 . S
C210 C205 1.390 1_556 S
C210 C209 1.387 1_556 S
H211 C223 0.930 . S
H212 C225 0.930 . S
H213 C226 0.930 . S
H214 C230 0.969 . S
H215 C230 1.001 . S
H216 C230 0.915 1_565 S
H217 C231 0.960 . S
H218 C231 0.961 1_545 S
H219 C231 0.959 . S
H220 C234 0.929 . S
H221 C235 0.931 1_455 S
H222 C237 0.930 . S
C223 H211 0.930 . S
C223 C224 1.399 1_655 S
C223 C228 1.399 . S
C224 C223 1.399 1_455 S
C224 C225 1.376 . S
C225 H212 0.930 . S
C225 C224 1.376 . S
C225 C226 1.388 . S
C226 H213 0.930 . S
C226 C225 1.388 . S
C226 C227 1.390 . S
C227 C226 1.390 . S
C227 C228 1.394 1_455 S
C227 C233 1.465 1_465 S
C228 C223 1.399 . S
C228 C227 1.394 1_655 S
C228 C229 1.535 . S
C229 C228 1.535 . S
C229 C230 1.499 1_665 S
C229 C231 1.563 . S
C229 C232 1.507 1_565 S
C230 H214 0.969 . S
C230 H215 1.001 . S
C230 H216 0.915 1_545 S
C230 C229 1.499 1_445 S
C231 H217 0.960 . S
C231 H218 0.961 1_565 S
C231 H219 0.959 . S
C231 C229 1.563 . S
C232 C229 1.507 1_545 S
C232 C233 1.396 . S
C232 C237 1.390 . S
C233 C227 1.465 1_645 S
C233 C232 1.396 . S
C233 C234 1.399 1_655 S
C234 H220 0.929 . S
C234 C233 1.399 1_455 S
C234 C235 1.385 1_455 S
C235 H221 0.931 1_655 S
C235 C234 1.385 1_655 S
C235 C236 1.389 . S
C236 C235 1.389 . S
C236 C237 1.387 . S
C237 H222 0.930 . S
C237 C232 1.390 . S
C237 C236 1.387 . S
H238 C250 0.930 . S
H239 C252 0.930 . S
H240 C253 0.930 . S
H241 C257 0.959 . S
H242 C257 0.959 . S
H243 C257 0.961 . S
H244 C258 0.960 . S
H245 C258 0.961 . S
H246 C258 0.959 . S
H247 C261 0.929 . S
H248 C262 0.931 . S
H249 C264 0.930 . S
C250 H238 0.930 . S
C250 C251 1.399 . S
C250 C255 1.399 . S
C251 C250 1.399 . S
C251 C252 1.376 1_554 S
C252 H239 0.930 . S
C252 C251 1.376 1_556 S
C252 C253 1.388 . S
C253 H240 0.930 . S
C253 C252 1.388 . S
C253 C254 1.390 1_556 S
C254 C253 1.390 1_554 S
C254 C255 1.394 . S
C254 C260 1.465 . S
C255 C250 1.399 . S
C255 C254 1.394 . S
C255 C256 1.516 . S
C256 C255 1.516 . S
C256 C257 1.502 . S
C256 C258 1.561 . S
C256 C259 1.526 . S
C257 H241 0.959 . S
C257 H242 0.959 . S
C257 H243 0.961 . S
C257 C256 1.502 . S
C258 H244 0.960 . S
C258 H245 0.961 . S
C258 H246 0.959 . S
C258 C256 1.561 . S
C259 C256 1.526 . S
C259 C260 1.396 . S
C259 C264 1.390 . S
C260 C254 1.465 . S
C260 C259 1.396 . S
C260 C261 1.399 1_554 S
C261 H247 0.929 . S
C261 C260 1.399 1_556 S
C261 C262 1.385 . S
C262 H248 0.931 . S
C262 C261 1.385 . S
C262 C263 1.389 1_556 S
C263 C262 1.389 1_554 S
C263 C264 1.387 . S
C264 H249 0.930 . S
C264 C259 1.390 . S
C264 C263 1.387 . S
H265 C277 0.930 . S
H266 C279 0.930 . S
H267 C280 0.930 . S
H268 C284 0.959 . S
H269 C284 0.959 . S
H270 C284 0.961 . S
H271 C285 0.960 . S
H272 C285 0.961 . S
H273 C285 0.959 . S
H274 C288 0.929 . S
H275 C289 0.931 . S
H276 C291 0.930 . S
C277 H265 0.930 . S
C277 C278 1.399 . S
C277 C282 1.399 . S
C278 C277 1.399 . S
C278 C279 1.376 . S
C279 H266 0.930 . S
C279 C278 1.376 . S
C279 C280 1.388 . S
C280 H267 0.930 . S
C280 C279 1.388 . S
C280 C281 1.390 . S
C281 C280 1.390 . S
C281 C282 1.394 . S
C281 C287 1.465 . S
C282 C277 1.399 . S
C282 C281 1.394 . S
C282 C283 1.516 . S
C283 C282 1.516 . S
C283 C284 1.502 . S
C283 C285 1.561 . S
C283 C286 1.526 . S
C284 H268 0.959 . S
C284 H269 0.959 . S
C284 H270 0.961 . S
C284 C283 1.502 . S
C285 H271 0.960 . S
C285 H272 0.961 . S
C285 H273 0.959 . S
C285 C283 1.561 . S
C286 C283 1.526 . S
C286 C287 1.396 . S
C286 C291 1.390 . S
C287 C281 1.465 . S
C287 C286 1.396 . S
C287 C288 1.399 . S
C288 H274 0.929 . S
C288 C287 1.399 . S
C288 C289 1.385 . S
C289 H275 0.931 . S
C289 C288 1.385 . S
C289 C290 1.389 . S
C290 C289 1.389 . S
C290 C291 1.387 . S
C291 H276 0.930 . S
C291 C286 1.390 . S
C291 C290 1.387 . S
H292 C304 0.930 . S
H293 C306 0.930 . S
H294 C307 0.930 . S
H295 C311 0.959 . S
H296 C311 0.959 . S
H297 C311 0.961 . S
H298 C312 0.960 . S
H299 C312 0.961 . S
H300 C312 0.959 . S
H301 C315 0.929 . S
H302 C316 0.931 . S
H303 C318 0.930 . S
C304 H292 0.930 . S
C304 C305 1.399 . S
C304 C309 1.399 . S
C305 C304 1.399 . S
C305 C306 1.376 1_455 S
C306 H293 0.930 . S
C306 C305 1.376 1_655 S
C306 C307 1.388 . S
C307 H294 0.930 . S
C307 C306 1.388 . S
C307 C308 1.390 . S
C308 C307 1.390 . S
C308 C309 1.394 1_655 S
C308 C314 1.465 . S
C309 C304 1.399 . S
C309 C308 1.394 1_455 S
C309 C310 1.516 . S
C310 C309 1.516 . S
C310 C311 1.502 . S
C310 C312 1.561 1_455 S
C310 C313 1.526 . S
C311 H295 0.959 . S
C311 H296 0.959 . S
C311 H297 0.961 . S
C311 C310 1.502 . S
C312 H298 0.960 . S
C312 H299 0.961 . S
C312 H300 0.959 . S
C312 C310 1.561 1_655 S
C313 C310 1.526 . S
C313 C314 1.396 1_455 S
C313 C318 1.390 . S
C314 C308 1.465 . S
C314 C313 1.396 1_655 S
C314 C315 1.399 . S
C315 H301 0.929 . S
C315 C314 1.399 . S
C315 C316 1.385 . S
C316 H302 0.931 . S
C316 C315 1.385 . S
C316 C317 1.389 . S
C317 C316 1.389 . S
C317 C318 1.387 1_655 S
C318 H303 0.930 . S
C318 C313 1.390 . S
C318 C317 1.387 1_455 S
H319 C331 0.930 . S
H320 C333 0.930 . S
H321 C334 0.930 . S
H322 C338 0.959 1_455 S
H323 C338 0.959 . S
H324 C338 0.961 . S
H325 C339 0.960 . S
H326 C339 0.961 . S
H327 C339 0.959 . S
H328 C342 0.929 . S
H329 C343 0.931 . S
H330 C345 0.930 . S
C331 H319 0.930 . S
C331 C332 1.399 1_655 S
C331 C336 1.399 . S
C332 C331 1.399 1_455 S
C332 C333 1.376 . S
C333 H320 0.930 . S
C333 C332 1.376 . S
C333 C334 1.388 . S
C334 H321 0.930 . S
C334 C333 1.388 . S
C334 C335 1.390 . S
C335 C334 1.390 . S
C335 C336 1.394 1_455 S
C335 C341 1.465 . S
C336 C331 1.399 . S
C336 C335 1.394 1_655 S
C336 C337 1.516 . S
C337 C336 1.516 . S
C337 C338 1.502 . S
C337 C339 1.561 . S
C337 C340 1.526 . S
C338 H322 0.959 1_655 S
C338 H323 0.959 . S
C338 H324 0.961 . S
C338 C337 1.502 . S
C339 H325 0.960 . S
C339 H326 0.961 . S
C339 H327 0.959 . S
C339 C337 1.561 . S
C340 C337 1.526 . S
C340 C341 1.396 1_655 S
C340 C345 1.390 . S
C341 C335 1.465 . S
C341 C340 1.396 1_455 S
C341 C342 1.399 . S
C342 H328 0.929 . S
C342 C341 1.399 . S
C342 C343 1.385 . S
C343 H329 0.931 . S
C343 C342 1.385 . S
C343 C344 1.389 1_455 S
C344 C343 1.389 1_655 S
C344 C345 1.387 . S
C345 H330 0.930 . S
C345 C340 1.390 . S
C345 C344 1.387 . S
H346 C358 0.930 . S
H347 C360 0.930 . S
H348 C361 0.930 . S
H349 C365 0.959 . S
H350 C365 0.959 . S
H351 C365 0.961 . S
H352 C366 0.960 . S
H353 C366 0.961 . S
H354 C366 0.959 1_455 S
H355 C369 0.929 . S
H356 C370 0.931 . S
H357 C372 0.930 . S
C358 H346 0.930 . S
C358 C359 1.399 1_655 S
C358 C363 1.399 . S
C359 C358 1.399 1_455 S
C359 C360 1.376 . S
C360 H347 0.930 . S
C360 C359 1.376 . S
C360 C361 1.388 . S
C361 H348 0.930 . S
C361 C360 1.388 . S
C361 C362 1.390 . S
C362 C361 1.390 . S
C362 C363 1.394 1_455 S
C362 C368 1.465 . S
C363 C358 1.399 . S
C363 C362 1.394 1_655 S
C363 C364 1.516 . S
C364 C363 1.516 . S
C364 C365 1.502 . S
C364 C366 1.561 . S
C364 C367 1.526 . S
C365 H349 0.959 . S
C365 H350 0.959 . S
C365 H351 0.961 . S
C365 C364 1.502 . S
C366 H352 0.960 . S
C366 H353 0.961 . S
C366 H354 0.959 1_655 S
C366 C364 1.561 . S
C367 C364 1.526 . S
C367 C368 1.396 1_655 S
C367 C372 1.390 . S
C368 C362 1.465 . S
C368 C367 1.396 1_455 S
C368 C369 1.399 . S
C369 H355 0.929 . S
C369 C368 1.399 . S
C369 C370 1.385 . S
C370 H356 0.931 . S
C370 C369 1.385 . S
C370 C371 1.389 1_455 S
C371 C370 1.389 1_655 S
C371 C372 1.387 . S
C372 H357 0.930 . S
C372 C367 1.390 . S
C372 C371 1.387 . S
H373 C385 0.930 . S
H374 C387 0.930 . S
H375 C388 0.930 . S
H376 C392 0.959 . S
H377 C392 0.959 . S
H378 C392 0.961 . S
H379 C393 0.960 . S
H380 C393 0.961 . S
H381 C393 0.959 . S
H382 C396 0.929 . S
H383 C397 0.931 . S
H384 C399 0.930 . S
C385 H373 0.930 . S
C385 C386 1.399 . S
C385 C390 1.399 . S
C386 C385 1.399 . S
C386 C387 1.376 1_455 S
C387 H374 0.930 . S
C387 C386 1.376 1_655 S
C387 C388 1.388 . S
C388 H375 0.930 . S
C388 C387 1.388 . S
C388 C389 1.390 . S
C389 C388 1.390 . S
C389 C390 1.394 1_655 S
C389 C395 1.465 . S
C390 C385 1.399 . S
C390 C389 1.394 1_455 S
C390 C391 1.516 . S
C391 C390 1.516 . S
C391 C392 1.502 . S
C391 C393 1.561 1_455 S
C391 C394 1.526 . S
C392 H376 0.959 . S
C392 H377 0.959 . S
C392 H378 0.961 . S
C392 C391 1.502 . S
C393 H379 0.960 . S
C393 H380 0.961 . S
C393 H381 0.959 . S
C393 C391 1.561 1_655 S
C394 C391 1.526 . S
C394 C395 1.396 1_455 S
C394 C399 1.390 . S
C395 C389 1.465 . S
C395 C394 1.396 1_655 S
C395 C396 1.399 . S
C396 H382 0.929 . S
C396 C395 1.399 . S
C396 C397 1.385 . S
C397 H383 0.931 . S
C397 C396 1.385 . S
C397 C398 1.389 . S
C398 C397 1.389 . S
C398 C399 1.387 1_655 S
C399 H384 0.930 . S
C399 C394 1.390 . S
C399 C398 1.387 1_455 S
H400 C412 0.930 . S
H401 C414 0.930 . S
H402 C415 0.930 . S
H403 C419 0.959 . S
H404 C419 0.959 . S
H405 C419 0.961 . S
H406 C420 0.960 . S
H407 C420 0.961 . S
H408 C420 0.959 . S
H409 C423 0.929 . S
H410 C424 0.931 . S
H411 C426 0.930 . S
C412 H400 0.930 . S
C412 C413 1.399 . S
C412 C417 1.399 . S
C413 C412 1.399 . S
C413 C414 1.376 . S
C414 H401 0.930 . S
C414 C413 1.376 . S
C414 C415 1.388 . S
C415 H402 0.930 . S
C415 C414 1.388 . S
C415 C416 1.390 . S
C416 C415 1.390 . S
C416 C417 1.394 . S
C416 C422 1.465 . S
C417 C412 1.399 . S
C417 C416 1.394 . S
C417 C418 1.516 . S
C418 C417 1.516 . S
C418 C419 1.502 . S
C418 C420 1.561 . S
C418 C421 1.526 . S
C419 H403 0.959 . S
C419 H404 0.959 . S
C419 H405 0.961 . S
C419 C418 1.502 . S
C420 H406 0.960 . S
C420 H407 0.961 . S
C420 H408 0.959 . S
C420 C418 1.561 . S
C421 C418 1.526 . S
C421 C422 1.396 . S
C421 C426 1.390 . S
C422 C416 1.465 . S
C422 C421 1.396 . S
C422 C423 1.399 . S
C423 H409 0.929 . S
C423 C422 1.399 . S
C423 C424 1.385 . S
C424 H410 0.931 . S
C424 C423 1.385 . S
C424 C425 1.389 . S
C425 C424 1.389 . S
C425 C426 1.387 . S
C426 H411 0.930 . S
C426 C421 1.390 . S
C426 C425 1.387 . S
H427 C439 0.930 . S
H428 C441 0.930 . S
H429 C442 0.930 . S
H430 C446 0.959 . S
H431 C446 0.959 . S
H432 C446 0.961 . S
H433 C447 0.960 . S
H434 C447 0.961 . S
H435 C447 0.959 . S
H436 C450 0.929 . S
H437 C451 0.931 . S
H438 C453 0.930 . S
C439 H427 0.930 . S
C439 C440 1.399 . S
C439 C444 1.399 . S
C440 C439 1.399 . S
C440 C441 1.376 . S
C441 H428 0.930 . S
C441 C440 1.376 . S
C441 C442 1.388 . S
C442 H429 0.930 . S
C442 C441 1.388 . S
C442 C443 1.390 . S
C443 C442 1.390 . S
C443 C444 1.394 . S
C443 C449 1.465 . S
C444 C439 1.399 . S
C444 C443 1.394 . S
C444 C445 1.516 . S
C445 C444 1.516 . S
C445 C446 1.502 . S
C445 C447 1.561 . S
C445 C448 1.526 . S
C446 H430 0.959 . S
C446 H431 0.959 . S
C446 H432 0.961 . S
C446 C445 1.502 . S
C447 H433 0.960 . S
C447 H434 0.961 . S
C447 H435 0.959 . S
C447 C445 1.561 . S
C448 C445 1.526 . S
C448 C449 1.396 . S
C448 C453 1.390 . S
C449 C443 1.465 . S
C449 C448 1.396 . S
C449 C450 1.399 . S
C450 H436 0.929 . S
C450 C449 1.399 . S
C450 C451 1.385 . S
C451 H437 0.931 . S
C451 C450 1.385 . S
C451 C452 1.389 . S
C452 C451 1.389 . S
C452 C453 1.387 . S
C453 H438 0.930 . S
C453 C448 1.390 . S
C453 C452 1.387 . S
H454 C466 0.930 . S
H455 C468 0.930 . S
H456 C469 0.930 . S
H457 C473 0.959 . S
H458 C473 0.959 . S
H459 C473 0.961 . S
H460 C474 0.960 . S
H461 C474 0.961 . S
H462 C474 0.959 . S
H463 C477 0.929 . S
H464 C478 0.931 . S
H465 C480 0.930 . S
C466 H454 0.930 . S
C466 C467 1.399 . S
C466 C471 1.399 . S
C467 C466 1.399 . S
C467 C468 1.376 . S
C468 H455 0.930 . S
C468 C467 1.376 . S
C468 C469 1.388 . S
C469 H456 0.930 . S
C469 C468 1.388 . S
C469 C470 1.390 . S
C470 C469 1.390 . S
C470 C471 1.394 . S
C470 C476 1.465 . S
C471 C466 1.399 . S
C471 C470 1.394 . S
C471 C472 1.516 . S
C472 C471 1.516 . S
C472 C473 1.502 . S
C472 C474 1.561 . S
C472 C475 1.526 . S
C473 H457 0.959 . S
C473 H458 0.959 . S
C473 H459 0.961 . S
C473 C472 1.502 . S
C474 H460 0.960 . S
C474 H461 0.961 . S
C474 H462 0.959 . S
C474 C472 1.561 . S
C475 C472 1.526 . S
C475 C476 1.396 . S
C475 C480 1.390 . S
C476 C470 1.465 . S
C476 C475 1.396 . S
C476 C477 1.399 . S
C477 H463 0.929 . S
C477 C476 1.399 . S
C477 C478 1.385 . S
C478 H464 0.931 . S
C478 C477 1.385 . S
C478 C479 1.389 . S
C479 C478 1.389 . S
C479 C480 1.387 . S
C480 H465 0.930 . S
C480 C475 1.390 . S
C480 C479 1.387 . S
H481 C493 0.930 . S
H482 C495 0.930 . S
H483 C496 0.930 . S
H484 C500 0.959 . S
H485 C500 0.959 . S
H486 C500 0.961 . S
H487 C501 0.960 . S
H488 C501 0.961 . S
H489 C501 0.959 . S
H490 C504 0.929 . S
H491 C505 0.931 . S
H492 C507 0.930 . S
C493 H481 0.930 . S
C493 C494 1.399 . S
C493 C498 1.399 . S
C494 C493 1.399 . S
C494 C495 1.376 . S
C495 H482 0.930 . S
C495 C494 1.376 . S
C495 C496 1.388 . S
C496 H483 0.930 . S
C496 C495 1.388 . S
C496 C497 1.390 . S
C497 C496 1.390 . S
C497 C498 1.394 . S
C497 C503 1.465 . S
C498 C493 1.399 . S
C498 C497 1.394 . S
C498 C499 1.516 . S
C499 C498 1.516 . S
C499 C500 1.502 . S
C499 C501 1.561 . S
C499 C502 1.526 . S
C500 H484 0.959 . S
C500 H485 0.959 . S
C500 H486 0.961 . S
C500 C499 1.502 . S
C501 H487 0.960 . S
C501 H488 0.961 . S
C501 H489 0.959 . S
C501 C499 1.561 . S
C502 C499 1.526 . S
C502 C503 1.396 . S
C502 C507 1.390 . S
C503 C497 1.465 . S
C503 C502 1.396 . S
C503 C504 1.399 . S
C504 H490 0.929 . S
C504 C503 1.399 . S
C504 C505 1.385 . S
C505 H491 0.931 . S
C505 C504 1.385 . S
C505 C506 1.389 . S
C506 C505 1.389 . S
C506 C507 1.387 . S
C507 H492 0.930 . S
C507 C502 1.390 . S
C507 C506 1.387 . S
H508 C520 0.930 . S
H509 C522 0.930 . S
H510 C523 0.930 . S
H511 C527 0.961 . S
H512 C527 0.959 . S
H513 C527 0.961 . S
H514 C528 0.960 . S
H515 C528 0.961 . S
H516 C528 0.959 . S
H517 C531 0.929 . S
H518 C532 0.931 . S
H519 C534 0.930 . S
C520 H508 0.930 . S
C520 C521 1.399 . S
C520 C525 1.399 . S
C521 C520 1.399 . S
C521 C522 1.376 1_556 S
C522 H509 0.930 . S
C522 C521 1.376 1_554 S
C522 C523 1.388 . S
C523 H510 0.930 . S
C523 C522 1.388 . S
C523 C524 1.398 . S
C524 C523 1.398 . S
C524 C525 1.384 1_554 S
C524 C530 1.465 . S
C525 C520 1.399 . S
C525 C524 1.384 1_556 S
C525 C526 1.516 . S
C526 C525 1.516 . S
C526 C527 1.502 . S
C526 C528 1.561 . S
C526 C529 1.526 . S
C527 H511 0.961 . S
C527 H512 0.959 . S
C527 H513 0.961 . S
C527 C526 1.502 . S
C528 H514 0.960 . S
C528 H515 0.961 . S
C528 H516 0.959 . S
C528 C526 1.561 . S
C529 C526 1.526 . S
C529 C530 1.396 1_556 S
C529 C534 1.390 . S
C530 C524 1.465 . S
C530 C529 1.396 1_554 S
C530 C531 1.399 . S
C531 H517 0.929 . S
C531 C530 1.399 . S
C531 C532 1.385 . S
C532 H518 0.931 . S
C532 C531 1.385 . S
C532 C533 1.389 1_554 S
C533 C532 1.389 1_556 S
C533 C534 1.387 . S
C534 H519 0.930 . S
C534 C529 1.390 . S
C534 C533 1.387 . S
H535 C547 0.930 . S
H536 C549 0.930 . S
H537 C550 0.930 . S
H538 C554 0.959 1_556 S
H539 C554 0.959 . S
H540 C554 0.961 . S
H541 C555 0.960 . S
H542 C555 0.961 . S
H543 C555 0.959 . S
H544 C558 0.929 . S
H545 C559 0.931 . S
H546 C561 0.930 . S
C547 H535 0.930 . S
C547 C548 1.399 1_554 S
C547 C552 1.399 . S
C548 C547 1.399 1_556 S
C548 C549 1.376 . S
C549 H536 0.930 . S
C549 C548 1.376 . S
C549 C550 1.388 . S
C550 H537 0.930 . S
C550 C549 1.388 . S
C550 C551 1.390 . S
C551 C550 1.390 . S
C551 C552 1.394 1_556 S
C551 C557 1.465 . S
C552 C547 1.399 . S
C552 C551 1.394 1_554 S
C552 C553 1.516 . S
C553 C552 1.516 . S
C553 C554 1.502 . S
C553 C555 1.561 . S
C553 C556 1.526 . S
C554 H538 0.959 1_554 S
C554 H539 0.959 . S
C554 H540 0.961 . S
C554 C553 1.502 . S
C555 H541 0.960 . S
C555 H542 0.961 . S
C555 H543 0.959 . S
C555 C553 1.561 . S
C556 C553 1.526 . S
C556 C557 1.396 1_554 S
C556 C561 1.390 . S
C557 C551 1.465 . S
C557 C556 1.396 1_556 S
C557 C558 1.399 . S
C558 H544 0.929 . S
C558 C557 1.399 . S
C558 C559 1.385 . S
C559 H545 0.931 . S
C559 C558 1.385 . S
C559 C560 1.389 . S
C560 C559 1.389 . S
C560 C561 1.387 1_556 S
C561 H546 0.930 . S
C561 C556 1.390 . S
C561 C560 1.387 1_554 S
H562 C574 0.930 . S
H563 C576 0.930 . S
H564 C577 0.930 . S
H565 C581 0.959 . S
H566 C581 0.959 . S
H567 C581 0.961 1_655 S
H568 C582 0.960 . S
H569 C582 0.961 . S
H570 C582 0.959 . S
H571 C585 0.929 . S
H572 C586 0.931 . S
H573 C588 0.930 . S
C574 H562 0.930 . S
C574 C575 1.399 . S
C574 C579 1.399 . S
C575 C574 1.399 . S
C575 C576 1.376 . S
C576 H563 0.930 . S
C576 C575 1.376 . S
C576 C577 1.388 . S
C577 H564 0.930 . S
C577 C576 1.388 . S
C577 C578 1.390 . S
C578 C577 1.390 . S
C578 C579 1.394 . S
C578 C584 1.465 . S
C579 C574 1.399 . S
C579 C578 1.394 . S
C579 C580 1.516 . S
C580 C579 1.516 . S
C580 C581 1.502 . S
C580 C582 1.561 . S
C580 C583 1.526 . S
C581 H565 0.959 . S
C581 H566 0.959 . S
C581 H567 0.961 1_455 S
C581 C580 1.502 . S
C582 H568 0.960 . S
C582 H569 0.961 . S
C582 H570 0.959 . S
C582 C580 1.561 . S
C583 C580 1.526 . S
C583 C584 1.396 . S
C583 C588 1.390 . S
C584 C578 1.465 . S
C584 C583 1.396 . S
C584 C585 1.399 . S
C585 H571 0.929 . S
C585 C584 1.399 . S
C585 C586 1.385 . S
C586 H572 0.931 . S
C586 C585 1.385 . S
C586 C587 1.389 . S
C587 C586 1.389 . S
C587 C588 1.387 . S
C588 H573 0.930 . S
C588 C583 1.390 . S
C588 C587 1.387 . S
H589 C601 0.930 . S
H590 C603 0.930 . S
H591 C604 0.930 . S
H592 C608 0.959 . S
H593 C608 0.959 1_455 S
H594 C608 0.961 1_455 S
H595 C609 0.960 . S
H596 C609 0.961 1_455 S
H597 C609 0.959 . S
H598 C612 0.929 . S
H599 C613 0.931 . S
H600 C615 0.930 . S
C601 H589 0.930 . S
C601 C602 1.399 . S
C601 C606 1.399 . S
C602 C601 1.399 . S
C602 C603 1.376 . S
C603 H590 0.930 . S
C603 C602 1.376 . S
C603 C604 1.388 . S
C604 H591 0.930 . S
C604 C603 1.388 . S
C604 C605 1.390 . S
C605 C604 1.390 . S
C605 C606 1.394 . S
C605 C611 1.465 . S
C606 C601 1.399 . S
C606 C605 1.394 . S
C606 C607 1.516 . S
C607 C606 1.516 . S
C607 C608 1.502 . S
C607 C609 1.561 . S
C607 C610 1.526 . S
C608 H592 0.959 . S
C608 H593 0.959 1_655 S
C608 H594 0.961 1_655 S
C608 C607 1.502 . S
C609 H595 0.960 . S
C609 H596 0.961 1_655 S
C609 H597 0.959 . S
C609 C607 1.561 . S
C610 C607 1.526 . S
C610 C611 1.396 . S
C610 C615 1.390 . S
C611 C605 1.465 . S
C611 C610 1.396 . S
C611 C612 1.399 . S
C612 H598 0.929 . S
C612 C611 1.399 . S
C612 C613 1.385 . S
C613 H599 0.931 . S
C613 C612 1.385 . S
C613 C614 1.389 . S
C614 C613 1.389 . S
C614 C615 1.387 . S
C615 H600 0.930 . S
C615 C610 1.390 . S
C615 C614 1.387 . S
C197 N25 1.460 . S
C209 N2 1.499 . S
C224 N48 1.436 . S
C236 N71 1.431 . S
C251 N94 1.460 . S
C263 N117 1.420 . S
C278 N140 1.454 . S
C290 N163 1.420 . S
C305 C16 1.495 . S
C317 C85 1.515 . S
C332 C62 1.510 . S
C344 C39 1.507 . S
C359 C53 1.505 . S
C371 C30 1.487 . S
C386 C7 1.505 . S
C398 C76 1.517 . S
C413 C108 1.491 . S
C425 C177 1.515 . S
C440 C154 1.491 . S
C452 C131 1.515 . S
C467 C122 1.505 . S
C479 C145 1.517 . S
C494 C99 1.489 . S
C506 C168 1.486 . S
C521 N127 1.456 . S
C533 N12 1.456 . S
C548 N104 1.498 . S
C560 N35 1.499 . S
C575 N58 1.502 . S
C587 N173 1.503 . S
C602 N150 1.493 . S
C614 N81 1.492 . S
