# Generated by pormake.
# Topology ume, (4)-cn, num edge types: 1
# Building blocks:
#     Node 0, Type 0, BuildingBlock: KUFVIS_clean_sbu_0, # of connection points: 4
#     Node 1, Type 0, BuildingBlock: KUFVIS_clean_sbu_0, # of connection points: 4
#     Node 2, Type 0, BuildingBlock: KUFVIS_clean_sbu_0, # of connection points: 4
#     Node 3, Type 0, BuildingBlock: KUFVIS_clean_sbu_0, # of connection points: 4
#     Node 4, Type 0, BuildingBlock: KUFVIS_clean_sbu_0, # of connection points: 4
#     Node 5, Type 0, BuildingBlock: KUFVIS_clean_sbu_0, # of connection points: 4
#     Node 6, Type 0, BuildingBlock: KUFVIS_clean_sbu_0, # of connection points: 4
#     Node 7, Type 0, BuildingBlock: KUFVIS_clean_sbu_0, # of connection points: 4
#     Node 8, Type 0, BuildingBlock: KUFVIS_clean_sbu_0, # of connection points: 4
#     Node 9, Type 0, BuildingBlock: KUFVIS_clean_sbu_0, # of connection points: 4
#     Node 10, Type 0, BuildingBlock: KUFVIS_clean_sbu_0, # of connection points: 4
#     Node 11, Type 0, BuildingBlock: KUFVIS_clean_sbu_0, # of connection points: 4
#     Node 12, Type 0, BuildingBlock: KUFVIS_clean_sbu_0, # of connection points: 4
#     Node 13, Type 0, BuildingBlock: KUFVIS_clean_sbu_0, # of connection points: 4
#     Node 14, Type 0, BuildingBlock: KUFVIS_clean_sbu_0, # of connection points: 4
#     Node 15, Type 0, BuildingBlock: KUFVIS_clean_sbu_0, # of connection points: 4
#     Edge 16, Type (0, 0), BuildingBlock: AJUNOK_clean_linker_0, # of connection points: 2
#     Edge 17, Type (0, 0), BuildingBlock: AJUNOK_clean_linker_0, # of connection points: 2
#     Edge 18, Type (0, 0), BuildingBlock: AJUNOK_clean_linker_0, # of connection points: 2
#     Edge 19, Type (0, 0), BuildingBlock: AJUNOK_clean_linker_0, # of connection points: 2
#     Edge 20, Type (0, 0), BuildingBlock: AJUNOK_clean_linker_0, # of connection points: 2
#     Edge 21, Type (0, 0), BuildingBlock: AJUNOK_clean_linker_0, # of connection points: 2
#     Edge 22, Type (0, 0), BuildingBlock: AJUNOK_clean_linker_0, # of connection points: 2
#     Edge 23, Type (0, 0), BuildingBlock: AJUNOK_clean_linker_0, # of connection points: 2
#     Edge 24, Type (0, 0), BuildingBlock: AJUNOK_clean_linker_0, # of connection points: 2
#     Edge 25, Type (0, 0), BuildingBlock: AJUNOK_clean_linker_0, # of connection points: 2
#     Edge 26, Type (0, 0), BuildingBlock: AJUNOK_clean_linker_0, # of connection points: 2
#     Edge 27, Type (0, 0), BuildingBlock: AJUNOK_clean_linker_0, # of connection points: 2
#     Edge 28, Type (0, 0), BuildingBlock: AJUNOK_clean_linker_0, # of connection points: 2
#     Edge 29, Type (0, 0), BuildingBlock: AJUNOK_clean_linker_0, # of connection points: 2
#     Edge 30, Type (0, 0), BuildingBlock: AJUNOK_clean_linker_0, # of connection points: 2
#     Edge 31, Type (0, 0), BuildingBlock: AJUNOK_clean_linker_0, # of connection points: 2
#     Edge 32, Type (0, 0), BuildingBlock: AJUNOK_clean_linker_0, # of connection points: 2
#     Edge 33, Type (0, 0), BuildingBlock: AJUNOK_clean_linker_0, # of connection points: 2
#     Edge 34, Type (0, 0), BuildingBlock: AJUNOK_clean_linker_0, # of connection points: 2
#     Edge 35, Type (0, 0), BuildingBlock: AJUNOK_clean_linker_0, # of connection points: 2
#     Edge 36, Type (0, 0), BuildingBlock: AJUNOK_clean_linker_0, # of connection points: 2
#     Edge 37, Type (0, 0), BuildingBlock: AJUNOK_clean_linker_0, # of connection points: 2
#     Edge 38, Type (0, 0), BuildingBlock: AJUNOK_clean_linker_0, # of connection points: 2
#     Edge 39, Type (0, 0), BuildingBlock: AJUNOK_clean_linker_0, # of connection points: 2
#     Edge 40, Type (0, 0), BuildingBlock: AJUNOK_clean_linker_0, # of connection points: 2
#     Edge 41, Type (0, 0), BuildingBlock: AJUNOK_clean_linker_0, # of connection points: 2
#     Edge 42, Type (0, 0), BuildingBlock: AJUNOK_clean_linker_0, # of connection points: 2
#     Edge 43, Type (0, 0), BuildingBlock: AJUNOK_clean_linker_0, # of connection points: 2
#     Edge 44, Type (0, 0), BuildingBlock: AJUNOK_clean_linker_0, # of connection points: 2
#     Edge 45, Type (0, 0), BuildingBlock: AJUNOK_clean_linker_0, # of connection points: 2
#     Edge 46, Type (0, 0), BuildingBlock: AJUNOK_clean_linker_0, # of connection points: 2
#     Edge 47, Type (0, 0), BuildingBlock: AJUNOK_clean_linker_0, # of connection points: 2
# Relax obj value: 0.108
# Max RMSD: 0.166
# Mean RMSD: 0.166
data_MOF--net-ume--node1-KUFVIS_clean_sbu_0--edge1-AJUNOK_clean_linker_0
_symmetry_space_group_name_H-M    P1
_symmetry_Int_Tables_number       1
_symmetry_cell_setting            triclinic
loop_
_symmetry_equiv_pos_as_xyz
'x, y, z'
_cell_length_a     19.439623
_cell_length_b     19.493411
_cell_length_c     83.522279
_cell_angle_alpha  90.023012
_cell_angle_beta   89.700692
_cell_angle_gamma 90.008945
loop_
_atom_site_label
_atom_site_type_symbol
_atom_site_fract_x
_atom_site_fract_y
_atom_site_fract_z
_atom_type_partial_charge
Mn0 Mn 0.26863 0.09396 0.3309 0.0
Mn1 Mn 0.27251 0.92827 0.34287 0.0
C2 C 0.37115 0.03829 0.3335 0.0
C3 C 0.25996 0.16563 0.30845 0.0
C4 C 0.25891 0.04845 0.36609 0.0
O5 O 0.17003 0.06506 0.32879 0.0
O6 O 0.17939 0.95477 0.33603 0.0
C7 C 0.24819 0.8742 0.31021 0.0
N8 N 0.28744 0.87638 0.32367 0.0
C9 C 0.3741 0.80508 0.31142 0.0
C10 C 0.33434 0.80171 0.29749 0.0
C11 C 0.27117 0.83654 0.29688 0.0
C12 C 0.34896 0.84419 0.32424 0.0
H13 H 0.20002 0.90156 0.30956 0.0
C14 C 0.14472 0.00572 0.33091 0.0
O15 O 0.24731 0.18959 0.32273 0.0
O16 O 0.27604 0.10178 0.30739 0.0
N17 N 0.35898 0.89188 0.34966 0.0
C18 C 0.38491 0.89097 0.36478 0.0
C19 C 0.44597 0.85491 0.36788 0.0
C20 C 0.47794 0.81731 0.35557 0.0
C21 C 0.44711 0.81423 0.34045 0.0
C22 C 0.38599 0.85095 0.33815 0.0
H23 H 0.35827 0.91633 0.37443 0.0
O24 O 0.36962 0.10456 0.33269 0.0
O25 O 0.313 0.00679 0.33215 0.0
O26 O 0.25876 0.09713 0.35566 0.0
O27 O 0.26202 0.98414 0.36265 0.0
C28 C 0.4737 0.77492 0.32768 0.0
C29 C 0.4376 0.77102 0.3131 0.0
H30 H 0.35179 0.77254 0.2872 0.0
H31 H 0.24037 0.83454 0.28613 0.0
H32 H 0.46785 0.85544 0.37977 0.0
H33 H 0.52509 0.78967 0.35798 0.0
H34 H 0.52148 0.74696 0.329 0.0
H35 H 0.45849 0.7406 0.30336 0.0
Mn36 Mn 0.87746 0.75619 0.56708 0.0
Mn37 Mn 0.0277 0.77135 0.58736 0.0
C38 C 0.93165 0.86064 0.56826 0.0
C39 C 0.82273 0.73137 0.54268 0.0
C40 C 0.88882 0.77543 0.60389 0.0
O41 O 0.90456 0.65752 0.57015 0.0
O42 O 0.00085 0.67461 0.58441 0.0
C43 C 0.11248 0.7121 0.56123 0.0
N44 N 0.1009 0.76284 0.57213 0.0
C45 C 0.20677 0.81917 0.56501 0.0
C46 C 0.22014 0.76727 0.55378 0.0
C47 C 0.17245 0.71382 0.55179 0.0
C48 C 0.14535 0.81551 0.5738 0.0
H49 H 0.07624 0.67065 0.55977 0.0
C50 C 0.95612 0.63607 0.5779 0.0
O51 O 0.78901 0.729 0.55618 0.0
O52 O 0.88735 0.74617 0.54351 0.0
N53 N 0.06485 0.86042 0.59169 0.0
C54 C 0.04458 0.90644 0.60304 0.0
C55 C 0.08681 0.9628 0.6066 0.0
C56 C 0.15 0.97097 0.59865 0.0
C57 C 0.17091 0.92203 0.58734 0.0
C58 C 0.12691 0.86656 0.58439 0.0
H59 H -0.00303 0.89973 0.60944 0.0
O60 O 0.86727 0.85611 0.56453 0.0
O61 O 0.96461 0.80326 0.57061 0.0
O62 O 0.85145 0.76317 0.5915 0.0
O63 O 0.95434 0.78172 0.60343 0.0
C64 C 0.23392 0.92588 0.57896 0.0
C65 C 0.25161 0.87474 0.56771 0.0
H66 H 0.26659 0.76818 0.54656 0.0
H67 H 0.18215 0.67378 0.54309 0.0
H68 H 0.07133 -0.00073 0.61564 0.0
H69 H 0.18228 0.01465 0.60142 0.0
H70 H 0.26882 0.96831 0.58097 0.0
H71 H 0.29966 0.87881 0.56115 0.0
Mn72 Mn 0.22331 0.37644 0.83095 0.0
Mn73 Mn 0.22385 0.53405 0.84746 0.0
C74 C 0.11961 0.43013 0.83577 0.0
C75 C 0.23221 0.31634 0.8068 0.0
C76 C 0.24923 0.40236 0.86615 0.0
O77 O 0.32251 0.40766 0.82916 0.0
O78 O 0.30962 0.519 0.83531 0.0
C79 C 0.21644 0.61233 0.81716 0.0
N80 N 0.19145 0.59895 0.8321 0.0
C81 C 0.09979 0.68053 0.82875 0.0
C82 C 0.12528 0.6961 0.81344 0.0
C83 C 0.18366 0.66157 0.80759 0.0
C84 C 0.13436 0.63063 0.83768 0.0
H85 H 0.26062 0.58511 0.81252 0.0
C86 C 0.3448 0.46905 0.82977 0.0
O87 O 0.24529 0.28601 0.82032 0.0
O88 O 0.21517 0.38023 0.80738 0.0
N89 N 0.14427 0.55857 0.85977 0.0
C90 C 0.12802 0.53981 0.87507 0.0
C91 C 0.07151 0.57039 0.88282 0.0
C92 C 0.03352 0.62148 0.87498 0.0
C93 C 0.05339 0.64263 0.85959 0.0
C94 C 0.11058 0.61068 0.85252 0.0
H95 H 0.1579 0.50199 0.88135 0.0
O96 O 0.12191 0.36484 0.83291 0.0
O97 O 0.1782 0.46176 0.83536 0.0
O98 O 0.23419 0.35926 0.85512 0.0
O99 O 0.25421 0.46737 0.86397 0.0
C100 C 0.01829 0.69363 0.85091 0.0
C101 C 0.04111 0.71212 0.83544 0.0
H102 H 0.10014 0.73407 0.80603 0.0
H103 H 0.20319 0.67272 0.79571 0.0
H104 H 0.05743 0.55472 0.89483 0.0
H105 H -0.01044 0.64448 0.88093 0.0
H106 H 0.97338 0.71856 0.85597 0.0
H107 H 0.01327 0.75086 0.82881 0.0
Mn108 Mn 0.60183 0.71286 0.07483 0.0
Mn109 Mn 0.4525 0.70965 0.09539 0.0
C110 C 0.55363 0.60794 0.08135 0.0
C111 C 0.64959 0.72506 0.04899 0.0
C112 C 0.59142 0.74124 0.11056 0.0
O113 O 0.56714 0.8114 0.07434 0.0
O114 O 0.45882 0.79587 0.083 0.0
C115 C 0.36098 0.69801 0.06732 0.0
N116 N 0.38231 0.67403 0.08178 0.0
C117 C 0.30384 0.57876 0.08045 0.0
C118 C 0.28054 0.60276 0.06561 0.0
C119 C 0.3095 0.66247 0.05898 0.0
C120 C 0.35603 0.61572 0.08806 0.0
H121 H 0.38355 0.74361 0.06215 0.0
C122 C 0.50622 0.83319 0.07691 0.0
O123 O 0.68585 0.73825 0.06168 0.0
O124 O 0.58709 0.70492 0.05137 0.0
N125 N 0.43689 0.62988 0.10826 0.0
C126 C 0.46264 0.61566 0.12306 0.0
C127 C 0.43706 0.5593 0.1317 0.0
C128 C 0.38386 0.51931 0.12527 0.0
C129 C 0.35632 0.53637 0.1103 0.0
C130 C 0.3835 0.59353 0.10232 0.0
H131 H 0.50216 0.64717 0.12829 0.0
O132 O 0.61669 0.61107 0.0763 0.0
O133 O 0.52062 0.66562 0.08169 0.0
O134 O 0.63005 0.72559 0.09856 0.0
O135 O 0.52543 0.74341 0.11001 0.0
C136 C 0.30315 0.49881 0.10298 0.0
C137 C 0.27755 0.51947 0.08795 0.0
H138 H 0.24067 0.57563 0.05917 0.0
H139 H 0.29219 0.68102 0.04747 0.0
H140 H 0.45812 0.54688 0.14332 0.0
H141 H 0.36474 0.47554 0.13189 0.0
H142 H 0.28192 0.4537 0.10875 0.0
H143 H 0.23722 0.48974 0.08234 0.0
Mn144 Mn 0.24616 0.38003 0.96985 0.0
Mn145 Mn 0.24683 0.53899 0.95341 0.0
C146 C 0.34859 0.43569 0.96602 0.0
C147 C 0.23385 0.31815 0.99365 0.0
C148 C 0.23735 0.40773 0.93373 0.0
O149 O 0.14562 0.40659 0.97024 0.0
O150 O 0.15478 0.51494 0.96156 0.0
C151 C 0.22496 0.60945 0.98443 0.0
N152 N 0.26257 0.60099 0.97076 0.0
C153 C 0.34707 0.68264 0.97962 0.0
C154 C 0.30896 0.69264 0.99373 0.0
C155 C 0.24776 0.65568 0.99616 0.0
C156 C 0.3225 0.63487 0.96851 0.0
H157 H 0.17822 0.58069 0.98643 0.0
C158 C 0.11986 0.46492 0.96711 0.0
O159 O 0.22492 0.28831 0.97987 0.0
O160 O 0.24853 0.38271 0.9935 0.0
N161 N 0.33104 0.57367 0.94467 0.0
C162 C 0.35332 0.56845 0.92919 0.0
C163 C 0.41062 0.60671 0.92409 0.0
C164 C 0.44304 0.6518 0.93479 0.0
C165 C 0.41584 0.66044 0.95024 0.0
C166 C 0.35782 0.62175 0.95451 0.0
H167 H 0.32737 0.53543 0.9208 0.0
O168 O 0.34799 0.37072 0.96917 0.0
O169 O 0.28977 0.46704 0.96611 0.0
O170 O 0.24139 0.36434 0.9453 0.0
O171 O 0.23556 0.47323 0.9355 0.0
C172 C 0.44203 0.70821 0.9613 0.0
C173 C 0.40803 0.71876 0.97606 0.0
H174 H 0.32611 0.72867 1.00274 0.0
H175 H 0.21825 0.66281 1.00706 0.0
H176 H 0.42975 0.60143 0.91196 0.0
H177 H 0.48749 0.68091 0.93086 0.0
H178 H 0.48748 0.73807 0.95846 0.0
H179 H 0.42805 0.75618 0.98439 0.0
Mn180 Mn 0.60942 0.73292 0.21387 0.0
Mn181 Mn 0.45832 0.74933 0.19414 0.0
C182 C 0.55485 0.83725 0.21373 0.0
C183 C 0.66726 0.70707 0.23775 0.0
C184 C 0.59613 0.75341 0.17728 0.0
O185 O 0.58022 0.63519 0.21125 0.0
O186 O 0.48436 0.65216 0.19685 0.0
C187 C 0.37004 0.68624 0.21915 0.0
N188 N 0.38375 0.73903 0.20894 0.0
C189 C 0.27457 0.79176 0.21473 0.0
C190 C 0.25908 0.73779 0.22524 0.0
C191 C 0.30734 0.68515 0.22758 0.0
C192 C 0.33849 0.79074 0.20692 0.0
H193 H 0.4064 0.64504 0.22078 0.0
C194 C 0.52812 0.61359 0.20372 0.0
O195 O 0.69904 0.70468 0.22401 0.0
O196 O 0.60276 0.72293 0.23746 0.0
N197 N 0.42218 0.83896 0.19033 0.0
C198 C 0.4439 0.88599 0.17939 0.0
C199 C 0.40127 0.94166 0.17557 0.0
C200 C 0.33716 0.94913 0.18316 0.0
C201 C 0.31489 0.8991 0.19403 0.0
C202 C 0.35882 0.84373 0.19706 0.0
H203 H 0.49219 0.8795 0.1732 0.0
O204 O 0.6203 0.8323 0.21636 0.0
O205 O 0.5214 0.78006 0.21121 0.0
O206 O 0.63374 0.73939 0.18946 0.0
O207 O 0.531 0.76082 0.178 0.0
C208 C 0.24986 0.90081 0.20156 0.0
C209 C 0.22975 0.84725 0.21193 0.0
H210 H 0.21058 0.73656 0.23168 0.0
H211 H 0.29592 0.64344 0.23572 0.0
H212 H 0.41661 0.97722 0.16633 0.0
H213 H 0.30448 -0.00781 0.18016 0.0
H214 H 0.21485 0.94303 0.19943 0.0
H215 H 0.17993 0.84944 0.21778 0.0
Mn216 Mn 0.21815 0.10313 0.46906 0.0
Mn217 Mn 0.21298 0.93573 0.45864 0.0
C218 C 0.11449 0.05375 0.46337 0.0
C219 C 0.22282 0.17754 0.49096 0.0
C220 C 0.24175 0.04996 0.43463 0.0
O221 O 0.31508 0.07125 0.47354 0.0
O222 O 0.30442 0.96115 0.46663 0.0
C223 C 0.22269 0.8934 0.49263 0.0
N224 N 0.189 0.89141 0.47836 0.0
C225 C 0.09534 0.82777 0.49009 0.0
C226 C 0.12935 0.8286 0.50486 0.0
C227 C 0.19324 0.86173 0.50613 0.0
C228 C 0.1266 0.86142 0.47714 0.0
H229 H 0.27128 0.91966 0.49377 0.0
C230 C 0.33948 0.01134 0.47186 0.0
O231 O 0.24274 0.1983 0.47686 0.0
O232 O 0.20101 0.11536 0.49216 0.0
N233 N 0.12954 0.89754 0.45061 0.0
C234 C 0.11461 0.88507 0.43496 0.0
C235 C 0.05673 0.84526 0.43108 0.0
C236 C 0.01609 0.81689 0.44334 0.0
C237 C 0.03664 0.82447 0.4593 0.0
C238 C 0.09595 0.86306 0.46233 0.0
H239 H 0.14684 0.90557 0.42552 0.0
O240 O 0.11924 0.11972 0.46456 0.0
O241 O 0.1691 0.01845 0.46687 0.0
O242 O 0.23897 0.10045 0.44462 0.0
O243 O 0.23354 0.98619 0.4384 0.0
C244 C 0.0033 0.79153 0.47219 0.0
C245 C 0.03214 0.79405 0.48764 0.0
H246 H 0.10706 0.80376 0.51526 0.0
H247 H 0.21964 0.86299 0.51751 0.0
H248 H 0.04341 0.83664 0.41867 0.0
H249 H 0.97122 0.78668 0.44032 0.0
H250 H 0.95651 0.76263 0.47025 0.0
H251 H 0.00654 0.768 0.49745 0.0
Mn252 Mn 0.86983 0.72912 0.70583 0.0
Mn253 Mn 0.02289 0.73259 0.68704 0.0
C254 C 0.92272 0.62477 0.70006 0.0
C255 C 0.81568 0.73734 0.73099 0.0
C256 C 0.88594 0.76324 0.67075 0.0
O257 O 0.90196 0.82828 0.70747 0.0
O258 O 0.01286 0.81483 0.70066 0.0
C259 C 0.11251 0.71681 0.71533 0.0
N260 N 0.09344 0.69625 0.70042 0.0
C261 C 0.17892 0.60706 0.70018 0.0
C262 C 0.20021 0.62789 0.71545 0.0
C263 C 0.1666 0.6828 0.72309 0.0
C264 C 0.12449 0.6427 0.6931 0.0
H265 H 0.08632 0.75857 0.72129 0.0
C266 C 0.96372 0.85008 0.70663 0.0
O267 O 0.78222 0.75096 0.71792 0.0
O268 O 0.87929 0.71946 0.72939 0.0
N269 N 0.04246 0.65692 0.67315 0.0
C270 C 0.01542 0.64282 0.65847 0.0
C271 C 0.04352 0.58952 0.64919 0.0
C272 C 0.09986 0.55196 0.65494 0.0
C273 C 0.12841 0.56887 0.66982 0.0
C274 C 0.09886 0.62322 0.67844 0.0
H275 H 0.97294 0.67201 0.6538 0.0
O276 O 0.85792 0.62778 0.70374 0.0
O277 O 0.95428 0.68357 0.69995 0.0
O278 O 0.8457 0.743 0.682 0.0
O279 O 0.95139 0.76847 0.67228 0.0
C280 C 0.18413 0.53309 0.67658 0.0
C281 C 0.20903 0.55184 0.6918 0.0
H282 H 0.24189 0.60176 0.72147 0.0
H283 H 0.18229 0.69878 0.73493 0.0
H284 H 0.022 0.57762 0.6376 0.0
H285 H 0.12083 0.51034 0.64784 0.0
H286 H 0.20756 0.49045 0.67027 0.0
H287 H 0.25124 0.52332 0.69698 0.0
Mn288 Mn 0.75766 0.61045 0.81936 0.0
Mn289 Mn 0.76247 0.45129 0.83563 0.0
C290 C 0.86157 0.55882 0.8236 0.0
C291 C 0.74574 0.67059 0.79517 0.0
C292 C 0.74771 0.5814 0.85565 0.0
O293 O 0.65838 0.5805 0.81856 0.0
O294 O 0.66969 0.47358 0.82791 0.0
C295 C 0.74249 0.38403 0.80419 0.0
N296 N 0.77963 0.39148 0.81787 0.0
C297 C 0.86687 0.31413 0.80815 0.0
C298 C 0.82929 0.30525 0.79402 0.0
C299 C 0.76693 0.34055 0.79201 0.0
C300 C 0.84064 0.35927 0.81971 0.0
H301 H 0.69494 0.41166 0.8025 0.0
C302 C 0.63378 0.52209 0.82209 0.0
O303 O 0.73422 0.701 0.80881 0.0
O304 O 0.76307 0.60686 0.7957 0.0
N305 N 0.84733 0.41749 0.84398 0.0
C306 C 0.86867 0.42054 0.85949 0.0
C307 C 0.92644 0.38256 0.86428 0.0
C308 C 0.96043 0.34008 0.85319 0.0
C309 C 0.93421 0.3335 0.83765 0.0
C310 C 0.87546 0.37146 0.83374 0.0
H311 H 0.84149 0.4515 0.86817 0.0
O312 O 0.85896 0.62371 0.82045 0.0
O313 O 0.804 0.52528 0.82324 0.0
O314 O 0.74917 0.62525 0.84406 0.0
O315 O 0.74991 0.51584 0.85381 0.0
C316 C 0.96209 0.28837 0.82614 0.0
C317 C 0.92899 0.27949 0.81129 0.0
H318 H 0.84771 0.27137 0.78465 0.0
H319 H 0.73783 0.33431 0.78109 0.0
H320 H 0.94473 0.38613 0.87646 0.0
H321 H 0.0053 0.31129 0.85686 0.0
H322 H 0.00826 0.25934 0.8287 0.0
H323 H 0.9507 0.24444 0.80256 0.0
Mn324 Mn 0.35759 0.24666 0.08208 0.0
Mn325 Mn 0.50706 0.23488 0.10174 0.0
C326 C 0.41393 0.34848 0.08862 0.0
C327 C 0.30564 0.24174 0.05691 0.0
C328 C 0.36604 0.20976 0.11691 0.0
O329 O 0.38522 0.14576 0.08048 0.0
O330 O 0.49609 0.155 0.08744 0.0
C331 C 0.60162 0.2511 0.07411 0.0
N332 N 0.58135 0.26994 0.08911 0.0
C333 C 0.6707 0.35501 0.09062 0.0
C334 C 0.69349 0.33556 0.07532 0.0
C335 C 0.65848 0.28367 0.06699 0.0
C336 C 0.61349 0.32097 0.09705 0.0
H337 H 0.57418 0.21196 0.0676 0.0
C338 C 0.44609 0.12172 0.08137 0.0
O339 O 0.27053 0.22896 0.06987 0.0
O340 O 0.37002 0.2566 0.05862 0.0
N341 N 0.52762 0.30759 0.11634 0.0
C342 C 0.49936 0.32018 0.13104 0.0
C343 C 0.52819 0.37074 0.14093 0.0
C344 C 0.587 0.40656 0.13583 0.0
C345 C 0.61699 0.39089 0.12096 0.0
C346 C 0.58626 0.33951 0.11168 0.0
H347 H 0.45552 0.29172 0.13529 0.0
O348 O 0.34991 0.34841 0.08435 0.0
O349 O 0.44307 0.2884 0.08865 0.0
O350 O 0.32917 0.23355 0.10557 0.0
O351 O 0.43127 0.20032 0.11577 0.0
C352 C 0.67555 0.42483 0.11488 0.0
C353 C 0.70203 0.40732 0.09966 0.0
H354 H 0.73734 0.36057 0.06979 0.0
H355 H 0.67519 0.26895 0.05509 0.0
H356 H 0.50536 0.38177 0.15249 0.0
H357 H 0.60885 0.44564 0.14348 0.0
H358 H 0.70021 0.46499 0.12173 0.0
H359 H 0.74648 0.43446 0.09502 0.0
Mn360 Mn 0.7349 0.86513 0.31936 0.0
Mn361 Mn 0.72261 0.03411 0.32843 0.0
C362 C 0.6297 0.916 0.32022 0.0
C363 C 0.75263 0.78741 0.29834 0.0
C364 C 0.7289 0.92256 0.35397 0.0
O365 O 0.83378 0.89549 0.31861 0.0
O366 O 0.81827 0.00633 0.32456 0.0
C367 C 0.76025 0.0714 0.29512 0.0
N368 N 0.71612 0.07651 0.3078 0.0
C369 C 0.63578 0.14188 0.29213 0.0
C370 C 0.68103 0.13843 0.27903 0.0
C371 C 0.74339 0.10272 0.28052 0.0
C372 C 0.65478 0.1084 0.30627 0.0
H373 H 0.8075 0.04274 0.29604 0.0
C374 C 0.85643 0.9556 0.32098 0.0
O375 O 0.76126 0.76813 0.31313 0.0
O376 O 0.73594 0.85048 0.296 0.0
N377 N 0.63494 0.07495 0.33261 0.0
C378 C 0.60819 0.08991 0.34732 0.0
C379 C 0.54937 0.13143 0.34857 0.0
C380 C 0.52072 0.16018 0.33473 0.0
C381 C 0.55335 0.15008 0.31992 0.0
C382 C 0.61251 0.10904 0.31954 0.0
H383 H 0.63233 0.07093 0.35802 0.0
O384 O 0.63422 0.84992 0.31978 0.0
O385 O 0.68637 0.95069 0.3189 0.0
O386 O 0.73617 0.87089 0.34437 0.0
O387 O 0.72401 0.98566 0.3494 0.0
C388 C 0.53241 0.18314 0.30576 0.0
C389 C 0.57311 0.17815 0.29179 0.0
H390 H 0.66848 0.16307 0.26779 0.0
H391 H 0.7783 0.09915 0.27041 0.0
H392 H 0.52671 0.14185 0.36019 0.0
H393 H 0.4759 0.19292 0.33573 0.0
H394 H 0.48625 0.21419 0.30563 0.0
H395 H 0.55695 0.20442 0.28101 0.0
Mn396 Mn 0.10344 0.23063 0.57933 0.0
Mn397 Mn 0.95979 0.22059 0.60261 0.0
C398 C 0.05123 0.12467 0.58158 0.0
C399 C 0.15193 0.25017 0.55392 0.0
C400 C 0.1047 0.2312 0.61588 0.0
O401 O 0.0734 0.32896 0.58095 0.0
O402 O 0.97521 0.31479 0.5948 0.0
C403 C 0.85412 0.2532 0.57837 0.0
N404 N 0.87681 0.21345 0.59065 0.0
C405 C 0.76947 0.15227 0.59194 0.0
C406 C 0.74464 0.1928 0.57935 0.0
C407 C 0.78729 0.24324 0.57248 0.0
C408 C 0.83622 0.16493 0.59736 0.0
H409 H 0.88672 0.29239 0.57321 0.0
C410 C 0.01845 0.35182 0.58722 0.0
O411 O 0.18823 0.25745 0.56685 0.0
O412 O 0.08812 0.23323 0.55585 0.0
N413 N 0.93372 0.1347 0.61183 0.0
C414 C 0.96827 0.0953 0.62254 0.0
C415 C 0.93432 0.04038 0.63007 0.0
C416 C 0.8648 0.02734 0.62667 0.0
C417 C 0.83006 0.0689 0.61567 0.0
C418 C 0.86613 0.12377 0.60886 0.0
H419 H 0.02091 0.1065 0.62547 0.0
O420 O 0.11604 0.13153 0.57834 0.0
O421 O 0.01709 0.18158 0.58465 0.0
O422 O 0.13853 0.23206 0.60273 0.0
O423 O 0.03948 0.22797 0.6167 0.0
C424 C 0.76164 0.05705 0.6109 0.0
C425 C 0.73146 0.09853 0.599 0.0
H426 H 0.6933 0.18499 0.57471 0.0
H427 H 0.7686 0.27447 0.56272 0.0
H428 H 0.96145 0.00857 0.63857 0.0
H429 H 0.83861 0.98516 0.63253 0.0
H430 H 0.73235 0.01508 0.61602 0.0
H431 H 0.67946 0.08776 0.59513 0.0
Mn432 Mn 0.75025 0.87549 0.45736 0.0
Mn433 Mn 0.747 0.04109 0.44598 0.0
C434 C 0.85222 0.93169 0.4523 0.0
C435 C 0.74658 0.80454 0.48006 0.0
C436 C 0.72008 0.92162 0.42318 0.0
O437 O 0.65162 0.90436 0.46142 0.0
O438 O 0.66126 0.0175 0.4574 0.0
C439 C 0.75322 0.09771 0.47884 0.0
N440 N 0.77946 0.09388 0.46371 0.0
C441 C 0.87403 0.1676 0.47064 0.0
C442 C 0.84775 0.17276 0.48626 0.0
C443 C 0.78719 0.13747 0.49038 0.0
C444 C 0.83859 0.12623 0.45973 0.0
H445 H 0.70703 0.0702 0.48211 0.0
C446 C 0.6277 0.96501 0.46212 0.0
O447 O 0.73057 0.78024 0.46604 0.0
O448 O 0.76448 0.86807 0.48071 0.0
N449 N 0.82621 0.07455 0.43478 0.0
C450 C 0.83781 0.07311 0.41867 0.0
C451 C 0.89185 0.112 0.4121 0.0
C452 C 0.93344 0.15204 0.42215 0.0
C453 C 0.91844 0.15542 0.43856 0.0
C454 C 0.86219 0.11765 0.44429 0.0
H455 H 0.80543 0.04332 0.41083 0.0
O456 O 0.85119 0.86546 0.45352 0.0
O457 O 0.79422 0.96235 0.45488 0.0
O458 O 0.7331 0.87223 0.43293 0.0
O459 O 0.71761 0.98526 0.42727 0.0
C460 C 0.95533 0.19695 0.44933 0.0
C461 C 0.93368 0.20227 0.46543 0.0
H462 H 0.87354 0.20377 0.49517 0.0
H463 H 0.76674 0.14092 0.50243 0.0
H464 H 0.90183 0.11059 0.39935 0.0
H465 H 0.97575 0.1811 0.41708 0.0
H466 H -0.00016 0.22573 0.44531 0.0
H467 H 0.96232 0.23447 0.4736 0.0
Mn468 Mn 0.1085 0.26281 0.71778 0.0
Mn469 Mn 0.95761 0.26389 0.69782 0.0
C470 C 0.05652 0.36631 0.71207 0.0
C471 C 0.16 0.25099 0.74292 0.0
C472 C 0.09727 0.2444 0.68158 0.0
O473 O 0.07878 0.16291 0.71799 0.0
O474 O 0.97261 0.17375 0.70794 0.0
C475 C 0.87145 0.25611 0.72709 0.0
N476 N 0.88783 0.28785 0.71305 0.0
C477 C 0.80491 0.37711 0.718 0.0
C478 C 0.7867 0.34506 0.73244 0.0
C479 C 0.82036 0.28446 0.73704 0.0
C480 C 0.85716 0.3472 0.70875 0.0
H481 H 0.8977 0.20989 0.73073 0.0
C482 C 0.02032 0.13827 0.7143 0.0
O483 O 0.19496 0.2399 0.72985 0.0
O484 O 0.09616 0.26801 0.74132 0.0
N485 N 0.93231 0.34643 0.68697 0.0
C486 C 0.94953 0.36532 0.67174 0.0
C487 C 0.91688 0.42192 0.66468 0.0
C488 C 0.86521 0.45726 0.67312 0.0
C489 C 0.84559 0.43453 0.68841 0.0
C490 C 0.87925 0.37706 0.6947 0.0
H491 H 0.98775 0.33726 0.665 0.0
O492 O 0.11993 0.36477 0.71673 0.0
O493 O 0.02465 0.3079 0.71173 0.0
O494 O 0.13541 0.25368 0.6939 0.0
O495 O 0.03114 0.24324 0.68191 0.0
C496 C 0.79278 0.46553 0.69748 0.0
C497 C 0.77316 0.43742 0.71239 0.0
H498 H 0.74704 0.36654 0.7401 0.0
H499 H 0.807 0.25971 0.74823 0.0
H500 H 0.93153 0.4382 0.65277 0.0
H501 H 0.84049 0.50122 0.66769 0.0
H502 H 0.76661 0.51071 0.69306 0.0
H503 H 0.73267 0.46183 0.71929 0.0
Mn504 Mn 0.71208 0.61411 0.95888 0.0
Mn505 Mn 0.7101 0.4574 0.94187 0.0
C506 C 0.60722 0.56425 0.95338 0.0
C507 C 0.71862 0.67095 0.98372 0.0
C508 C 0.74232 0.58897 0.92357 0.0
O509 O 0.80984 0.57981 0.9611 0.0
O510 O 0.79515 0.46946 0.95433 0.0
C511 C 0.69763 0.3776 0.97189 0.0
N512 N 0.67436 0.39265 0.95695 0.0
C513 C 0.58079 0.31265 0.95966 0.0
C514 C 0.60423 0.29562 0.97501 0.0
C515 C 0.66274 0.32848 0.98117 0.0
C516 C 0.61734 0.36241 0.95104 0.0
H517 H 0.74218 0.40325 0.97672 0.0
C518 C 0.83096 0.5181 0.96019 0.0
O519 O 0.7349 0.7026 0.97051 0.0
O520 O 0.69987 0.60786 0.98244 0.0
N521 N 0.63135 0.43546 0.92921 0.0
C522 C 0.61707 0.45569 0.91395 0.0
C523 C 0.56093 0.42663 0.90588 0.0
C524 C 0.5212 0.37562 0.91337 0.0
C525 C 0.53888 0.35313 0.92876 0.0
C526 C 0.59581 0.38358 0.93615 0.0
H527 H 0.64822 0.49355 0.90794 0.0
O528 O 0.61151 0.62929 0.9564 0.0
O529 O 0.66475 0.53066 0.9539 0.0
O530 O 0.72762 0.63236 0.93467 0.0
O531 O 0.74415 0.52376 0.92565 0.0
C532 C 0.50177 0.30231 0.93713 0.0
C533 C 0.52234 0.28255 0.95264 0.0
H534 H 0.57751 0.2577 0.98219 0.0
H535 H 0.68083 0.31604 0.99305 0.0
H536 H 0.54845 0.44339 0.89388 0.0
H537 H 0.47759 0.35375 0.90717 0.0
H538 H 0.45699 0.27856 0.93181 0.0
H539 H 0.49298 0.24396 0.95903 0.0
Mn540 Mn 0.37693 0.21015 0.21915 0.0
Mn541 Mn 0.51675 0.19843 0.19444 0.0
C542 C 0.43034 0.10485 0.21665 0.0
C543 C 0.33078 0.23222 0.24477 0.0
C544 C 0.37076 0.19599 0.18236 0.0
O545 O 0.40344 0.30901 0.21632 0.0
O546 O 0.492 0.2937 0.19939 0.0
C547 C 0.61592 0.25223 0.21815 0.0
N548 N 0.59889 0.20525 0.20677 0.0
C549 C 0.71051 0.15251 0.20819 0.0
C550 C 0.7296 0.20069 0.21983 0.0
C551 C 0.68192 0.2505 0.2249 0.0
C552 C 0.64402 0.15672 0.20194 0.0
H553 H 0.57942 0.29072 0.22199 0.0
C554 C 0.45122 0.33146 0.2074 0.0
O555 O 0.29307 0.23686 0.232 0.0
O556 O 0.3949 0.21699 0.24255 0.0
N557 N 0.55253 0.11244 0.18729 0.0
C558 C 0.52535 0.06895 0.17628 0.0
C559 C 0.56602 0.01579 0.16996 0.0
C560 C 0.63452 0.00824 0.17491 0.0
C561 C 0.66239 0.05532 0.18578 0.0
C562 C 0.61994 0.10843 0.19127 0.0
H563 H 0.47378 0.07639 0.17202 0.0
O564 O 0.36699 0.11094 0.22124 0.0
O565 O 0.46306 0.16213 0.21319 0.0
O566 O 0.33975 0.20646 0.19575 0.0
O567 O 0.43578 0.19057 0.18084 0.0
C568 C 0.73036 0.05134 0.19149 0.0
C569 C 0.75425 0.09961 0.20278 0.0
H570 H 0.78041 0.19945 0.22509 0.0
H571 H 0.69609 0.28757 0.23396 0.0
H572 H 0.54505 0.98151 0.16105 0.0
H573 H 0.66543 0.96667 0.17015 0.0
H574 H 0.76436 0.01073 0.18748 0.0
H575 H 0.80616 0.09522 0.20732 0.0
C576 C 0.97459 0.91459 0.32622 0.0
C577 C 0.93082 0.96726 0.32114 0.0
C578 C 0.04387 0.92755 0.32913 0.0
C579 C 0.07196 -0.0064 0.32696 0.0
H580 H 0.95465 0.86375 0.3287 0.0
H581 H 0.07508 0.88549 0.33345 0.0
S582 S 0.97992 0.14666 0.31149 0.0
N583 N 0.92082 0.08606 0.31248 0.0
N584 N 0.05161 0.11057 0.31778 0.0
C585 C 0.02934 0.04583 0.32097 0.0
C586 C 0.95861 0.0326 0.31809 0.0
C587 C 0.00175 0.52593 0.56804 0.0
C588 C 0.96579 0.5628 0.57979 0.0
C589 C 0.01968 0.45744 0.57063 0.0
C590 C 0.0015 0.42429 0.58499 0.0
H591 H 0.01732 0.55059 0.55697 0.0
H592 H 0.04737 0.43018 0.5613 0.0
S593 S 0.90856 0.50072 0.6195 0.0
N594 N 0.91401 0.56342 0.60626 0.0
N595 N 0.94635 0.4338 0.61113 0.0
C596 C 0.96504 0.46096 0.59676 0.0
C597 C 0.94757 0.53071 0.59416 0.0
C598 C 0.53401 0.44234 0.82196 0.0
C599 C 0.55916 0.50994 0.82078 0.0
C600 C 0.46394 0.42924 0.82394 0.0
C601 C 0.41638 0.48329 0.82485 0.0
H602 H 0.56895 0.39904 0.82207 0.0
H603 H 0.44763 0.37656 0.82559 0.0
S604 S 0.45425 0.66878 0.81933 0.0
N605 N 0.53009 0.63095 0.81844 0.0
N606 N 0.39796 0.60646 0.82204 0.0
C607 C 0.44009 0.5508 0.82228 0.0
C608 C 0.5116 0.5641 0.82023 0.0
C609 C 0.40721 0.00058 0.07794 0.0
C610 C 0.45959 0.04983 0.07661 0.0
C611 C 0.42215 0.93046 0.07688 0.0
C612 C 0.49005 0.90688 0.07439 0.0
H613 H 0.35505 0.0159 0.08085 0.0
H614 H 0.38044 0.89455 0.07886 0.0
S615 S 0.64303 0.01634 0.06667 0.0
N616 N 0.57995 0.07106 0.07014 0.0
N617 N 0.60813 0.9394 0.06813 0.0
C618 C 0.54167 0.95598 0.07149 0.0
C619 C 0.52643 0.0274 0.07263 0.0
C620 C 0.01936 0.54315 0.96884 0.0
C621 C 0.04507 0.47564 0.96868 0.0
C622 C 0.94933 0.55629 0.96706 0.0
C623 C 0.90225 0.50241 0.965 0.0
H624 H 0.05392 0.58662 0.96964 0.0
H625 H 0.93277 0.60929 0.96646 0.0
S626 S 0.94171 0.31591 0.96677 0.0
N627 N 0.01714 0.35398 0.9685 0.0
N628 N 0.88487 0.37844 0.96531 0.0
C629 C 0.92644 0.43439 0.96625 0.0
C630 C -0.00197 0.42104 0.96809 0.0
C631 C 0.46832 0.43776 0.19202 0.0
C632 C 0.46494 0.40451 0.2069 0.0
C633 C 0.49002 0.50583 0.19098 0.0
C634 C 0.51115 0.54112 0.20474 0.0
H635 H 0.45433 0.41082 0.18115 0.0
H636 H 0.49097 0.53078 0.17939 0.0
S637 S 0.51186 0.47587 0.24642 0.0
N638 N 0.48341 0.41093 0.23559 0.0
N639 N 0.52633 0.53899 0.23364 0.0
C640 C 0.50824 0.50821 0.21967 0.0
C641 C 0.48444 0.43962 0.22076 0.0
C642 C 0.4592 0.0552 0.47055 0.0
C643 C 0.41407 0.00049 0.47355 0.0
C644 C 0.52901 0.04335 0.46773 0.0
C645 C 0.55638 0.97633 0.46782 0.0
H646 H 0.43991 0.10702 0.46923 0.0
H647 H 0.56085 0.08705 0.46465 0.0
S648 S 0.46189 0.81758 0.4789 0.0
N649 N 0.40298 0.87853 0.47925 0.0
N650 N 0.5346 0.85603 0.47395 0.0
C651 C 0.51295 0.92202 0.47244 0.0
C652 C 0.44169 0.93418 0.47531 0.0
C653 C 0.93948 0.03909 0.71506 0.0
C654 C 0.00755 0.06372 0.71583 0.0
C655 C 0.92554 0.96928 0.71305 0.0
C656 C 0.97915 0.92129 0.71166 0.0
H657 H 0.89641 0.07437 0.71526 0.0
H658 H 0.87243 0.95355 0.71171 0.0
S659 S 0.16604 0.95769 0.71574 0.0
N660 N 0.12882 0.03356 0.7171 0.0
N661 N 0.10283 0.90209 0.71345 0.0
C662 C 0.04729 0.94447 0.71377 0.0
C663 C 0.06144 0.01571 0.71586 0.0
C664 C 0.54233 0.95557 0.33924 0.0
C665 C 0.56396 0.94694 0.32337 0.0
C666 C 0.47962 0.98705 0.3426 0.0
C667 C 0.43503 0.00379 0.33015 0.0
H668 H 0.57532 0.94064 0.34904 0.0
H669 H 0.46599 -0.00166 0.35491 0.0
S670 S 0.46593 0.98439 0.28664 0.0
N671 N 0.53671 0.95512 0.29512 0.0
N672 N 0.41464 0.00804 0.30148 0.0
C673 C 0.45474 -0.00783 0.31424 0.0
C674 C 0.52015 0.96395 0.31081 0.0
C675 C 0.92362 0.97916 0.57806 0.0
C676 C 0.9618 0.92858 0.57012 0.0
C677 C 0.95093 0.04444 0.58022 0.0
C678 C 0.01859 0.05977 0.57622 0.0
H679 H 0.87202 0.96869 0.5824 0.0
H680 H 0.91838 0.08381 0.58422 0.0
S681 S 0.121 0.95852 0.54676 0.0
N682 N 0.05604 0.90783 0.55161 0.0
N683 N 0.11161 0.02836 0.55778 0.0
C684 C 0.05289 0.01305 0.56593 0.0
C685 C 0.0233 0.94767 0.56261 0.0
C686 C 0.01579 0.49236 0.84504 0.0
C687 C 0.05565 0.4659 0.83256 0.0
C688 C 0.95446 0.52672 0.8419 0.0
C689 C 0.9273 0.52674 0.82646 0.0
H690 H 0.03112 0.48511 0.85729 0.0
H691 H 0.92603 0.54959 0.85172 0.0
S692 S 0.00765 0.45661 0.78975 0.0
N693 N 0.06366 0.44063 0.80409 0.0
N694 N 0.94242 0.49635 0.79849 0.0
C695 C 0.96492 0.49786 0.81386 0.0
C696 C 0.03004 0.46797 0.81689 0.0
C697 C 0.52223 0.50575 0.09756 0.0
C698 C 0.51956 0.54152 0.08307 0.0
C699 C 0.48505 0.4448 0.09954 0.0
C700 C 0.453 0.41268 0.08661 0.0
H701 H 0.54963 0.52707 0.10765 0.0
H702 H 0.47854 0.42492 0.11142 0.0
S703 S 0.43453 0.485 0.0458 0.0
N704 N 0.47991 0.54295 0.05559 0.0
N705 N 0.41977 0.42229 0.05867 0.0
C706 C 0.45223 0.44712 0.07183 0.0
C707 C 0.4847 0.51221 0.07014 0.0
C708 C 0.44184 0.468 0.94763 0.0
C709 C 0.41337 0.46977 0.96301 0.0
C710 C 0.50309 0.50247 0.94434 0.0
C711 C 0.5419 0.53066 0.95668 0.0
H712 H 0.41464 0.4432 0.93797 0.0
H713 H 0.5193 0.50812 0.93207 0.0
S714 S 0.4896 0.54684 0.99924 0.0
N715 N 0.42551 0.50512 0.9907 0.0
N716 N 0.54683 0.56092 0.98492 0.0
C717 C 0.51461 0.53129 0.97228 0.0
C718 C 0.44941 0.50135 0.97541 0.0
C719 C 0.56211 0.96379 0.21371 0.0
C720 C 0.52225 0.90445 0.21595 0.0
C721 C 0.53334 0.02856 0.21604 0.0
C722 C 0.46286 0.03655 0.21808 0.0
H723 H 0.61631 0.96025 0.21076 0.0
H724 H 0.56604 0.07239 0.21696 0.0
S725 S 0.35649 0.90313 0.23787 0.0
N726 N 0.42445 0.86124 0.23103 0.0
N727 N 0.36505 0.9828 0.23149 0.0
C728 C 0.42626 0.97859 0.22362 0.0
C729 C 0.45752 0.91248 0.22312 0.0
C730 C 0.93906 0.98049 0.47001 0.0
C731 C 0.91722 0.96693 0.45434 0.0
C732 C 0.00418 0.0077 0.47282 0.0
C733 C 0.04809 0.02325 0.46 0.0
H734 H 0.9062 0.96833 0.48014 0.0
H735 H 0.02032 0.01661 0.48505 0.0
S736 S 0.01392 -0.00067 0.41684 0.0
N737 N 0.94509 0.96784 0.42596 0.0
N738 N 0.06398 0.02903 0.4312 0.0
C739 C 0.02547 0.01332 0.44429 0.0
C740 C 0.96089 0.98171 0.44145 0.0
C741 C 0.02853 0.46351 0.69423 0.0
C742 C 0.0228 0.4319 0.7092 0.0
C743 C -0.00731 0.52415 0.69106 0.0
C744 C 0.95898 0.56008 0.70325 0.0
H745 H 0.0571 0.43888 0.68466 0.0
H746 H 0.98877 0.54103 0.67888 0.0
S747 S 0.93202 0.49939 0.7449 0.0
N748 N 0.9783 0.43833 0.73634 0.0
N749 N 0.92048 0.5586 0.73102 0.0
C750 C 0.95489 0.52979 0.71851 0.0
C751 C 0.98608 0.46496 0.72141 0.0
C752 C 0.1993 0.08634 0.39125 0.0
C753 C 0.25977 0.06576 0.38332 0.0
C754 C 0.19565 0.08698 0.40809 0.0
C755 C 0.25163 0.06517 0.41744 0.0
H756 H 0.15361 0.09842 0.38443 0.0
H757 H 0.14764 0.10118 0.41377 0.0
S758 S 0.42499 0.0189 0.40242 0.0
N759 N 0.38016 0.03481 0.38608 0.0
N760 N 0.37147 0.0307 0.41761 0.0
C761 C 0.31356 0.04912 0.40965 0.0
C762 C 0.318 0.05066 0.39259 0.0
C763 C 0.87921 0.83835 0.6295 0.0
C764 C 0.85832 0.78206 0.62017 0.0
C765 C 0.8804 0.83507 0.64626 0.0
C766 C 0.85908 0.77574 0.65442 0.0
H767 H 0.90114 0.88293 0.62377 0.0
H768 H 0.90365 0.87707 0.6528 0.0
S769 S 0.78548 0.61966 0.63585 0.0
N770 N 0.8057 0.66912 0.62044 0.0
N771 N 0.80607 0.66342 0.65208 0.0
C772 C 0.82964 0.72242 0.64538 0.0
C773 C 0.82949 0.72547 0.62819 0.0
C774 C 0.3097 0.39292 0.89217 0.0
C775 C 0.25098 0.37955 0.88297 0.0
C776 C 0.30611 0.39401 0.90894 0.0
C777 C 0.24342 0.3834 0.91707 0.0
H778 H 0.3575 0.40743 0.88635 0.0
H779 H 0.35156 0.40871 0.91552 0.0
S780 S 0.07572 0.34348 0.89849 0.0
N781 N 0.12936 0.35095 0.88317 0.0
N782 N 0.12229 0.35568 0.91475 0.0
C783 C 0.18534 0.36581 0.90808 0.0
C784 C 0.18928 0.36316 0.89098 0.0
C785 C 0.60724 0.81284 0.13487 0.0
C786 C 0.62147 0.75151 0.12666 0.0
C787 C 0.60986 0.81603 0.15165 0.0
C788 C 0.62551 0.75772 0.16089 0.0
H789 H 0.588 0.85693 0.12839 0.0
H790 H 0.59284 0.86261 0.15749 0.0
S791 S 0.67391 0.58694 0.14507 0.0
N792 N 0.659 0.6332 0.12888 0.0
N793 N 0.66214 0.63886 0.16048 0.0
C794 C 0.64631 0.69805 0.15277 0.0
C795 C 0.64452 0.695 0.13562 0.0
C796 C 0.81013 0.59222 0.88139 0.0
C797 C 0.75037 0.60561 0.87246 0.0
C798 C 0.80953 0.59464 0.89819 0.0
C799 C 0.74943 0.61173 0.90672 0.0
H800 H 0.85645 0.57483 0.87539 0.0
H801 H 0.85498 0.57808 0.90458 0.0
S802 S 0.58043 0.65508 0.88903 0.0
N803 N 0.63043 0.63967 0.87336 0.0
N804 N 0.62961 0.64596 0.90497 0.0
C805 C 0.69078 0.6304 0.89791 0.0
C806 C 0.69113 0.62687 0.88076 0.0
C807 C 0.34264 0.13372 0.15767 0.0
C808 C 0.33314 0.19285 0.16709 0.0
C809 C 0.34507 0.13756 0.14091 0.0
C810 C 0.33561 0.20034 0.133 0.0
H811 H 0.35697 0.08594 0.1633 0.0
H812 H 0.36087 0.09257 0.13421 0.0
S813 S 0.29543 0.36727 0.15207 0.0
N814 N 0.30483 0.31391 0.16726 0.0
N815 N 0.30564 0.32074 0.13568 0.0
C816 C 0.31621 0.25776 0.14218 0.0
C817 C 0.31555 0.25408 0.1593 0.0
C818 C 0.66947 0.94563 0.37997 0.0
C819 C 0.72115 0.91017 0.37147 0.0
C820 C 0.66632 0.94471 0.39673 0.0
C821 C 0.7142 0.90743 0.40577 0.0
H822 H 0.63198 0.97608 0.37366 0.0
H823 H 0.62769 0.97578 0.40269 0.0
S824 S 0.85724 0.80212 0.38943 0.0
N825 N 0.81915 0.83348 0.37337 0.0
N826 N 0.81316 0.83122 0.40498 0.0
C827 C 0.7637 0.86816 0.39746 0.0
C828 C 0.76712 0.86951 0.38028 0.0
C829 C 0.13176 0.30164 0.65635 0.0
C830 C 0.12916 0.2413 0.66555 0.0
C831 C 0.13645 0.29873 0.63958 0.0
C832 C 0.1392 0.23542 0.63151 0.0
H833 H 0.12283 0.35096 0.66199 0.0
H834 H 0.12951 0.34575 0.63285 0.0
S835 S 0.14692 0.06372 0.65038 0.0
N836 N 0.13868 0.11727 0.66563 0.0
N837 N 0.15025 0.11196 0.63413 0.0
C838 C 0.14544 0.17547 0.64073 0.0
C839 C 0.13937 0.17831 0.65778 0.0
C840 C 0.32708 0.23904 0.29007 0.0
C841 C 0.26403 0.20755 0.29379 0.0
C842 C 0.34602 0.25241 0.27411 0.0
C843 C 0.30217 0.23552 0.2613 0.0
H844 H 0.36481 0.2471 0.29938 0.0
H845 H 0.39731 0.27178 0.27173 0.0
S846 S 0.12784 0.15973 0.26502 0.0
N847 N 0.15548 0.16508 0.28365 0.0
N848 N 0.18967 0.19229 0.25369 0.0
C849 C 0.23626 0.21013 0.26503 0.0
C850 C 0.2176 0.19547 0.28127 0.0
C851 C 0.71121 0.78671 0.50832 0.0
C852 C 0.74908 0.76368 0.49494 0.0
C853 C 0.73025 0.76869 0.524 0.0
C854 C 0.78914 0.72873 0.52679 0.0
H855 H 0.67004 0.82354 0.50673 0.0
H856 H 0.703 0.79204 0.53395 0.0
S857 S 0.89984 0.64788 0.49579 0.0
N858 N 0.84255 0.69185 0.48545 0.0
N859 N 0.88006 0.65982 0.51485 0.0
C860 C 0.82378 0.70066 0.51347 0.0
C861 C 0.80332 0.71771 0.49753 0.0
C862 C 0.15139 0.22627 0.77212 0.0
C863 C 0.19084 0.25034 0.75909 0.0
C864 C 0.17032 0.24052 0.78798 0.0
C865 C 0.22863 0.28042 0.79131 0.0
H866 H 0.10323 0.19984 0.77002 0.0
H867 H 0.13571 0.22564 0.79758 0.0
S868 S 0.35158 0.35169 0.76164 0.0
N869 N 0.29384 0.31119 0.75067 0.0
N870 N 0.32787 0.34031 0.78048 0.0
C871 C 0.27071 0.30119 0.77847 0.0
C872 C 0.25231 0.28537 0.76233 0.0
C873 C 0.75609 0.6821 1.01215 0.0
C874 C 0.71349 0.70444 0.99958 0.0
C875 C 0.73887 0.69498 0.02829 0.0
C876 C 0.6772 0.72855 0.03239 0.0
H877 H 0.80067 0.65062 1.00951 0.0
H878 H 0.77095 0.67346 0.03759 0.0
S879 S 0.55051 0.80095 1.00398 0.0
N880 N 0.60982 0.76584 0.99235 0.0
N881 N 0.57624 0.78821 0.02256 0.0
C882 C 0.63627 0.75426 0.01991 0.0
C883 C 0.65466 0.74258 1.00353 0.0
C884 C 0.31084 0.21946 0.02756 0.0
C885 C 0.27427 0.24523 0.04086 0.0
C886 C 0.29169 0.23636 1.01185 0.0
C887 C 0.23646 0.28103 1.00899 0.0
H888 H 0.35695 0.18924 0.02934 0.0
H889 H 0.32416 0.21958 1.00202 0.0
S890 S 0.12152 0.35852 0.03955 0.0
N891 N 0.17691 0.31284 0.05004 0.0
N892 N 0.14285 0.34715 0.02055 0.0
C893 C 0.1971 0.30377 0.02211 0.0
C894 C 0.21547 0.28512 0.03807 0.0
C895 C 0.78812 0.75691 0.27076 0.0
C896 C 0.74946 0.74041 0.28454 0.0
C897 C 0.76582 0.73772 0.2554 0.0
C898 C 0.70305 0.7031 0.25335 0.0
H899 H 0.83212 0.79078 0.27172 0.0
H900 H 0.79381 0.75688 0.24508 0.0
S901 S 0.58849 0.63906 0.2857 0.0
N902 N 0.65076 0.67943 0.29524 0.0
N903 N 0.60774 0.6447 0.26646 0.0
C904 C 0.66785 0.68019 0.26712 0.0
C905 C 0.6914 0.69849 0.28273 0.0
C906 C 0.15747 0.25457 0.50878 0.0
C907 C 0.21977 0.22118 0.50532 0.0
C908 C 0.13863 0.26995 0.52463 0.0
C909 C 0.18166 0.25287 0.53755 0.0
H910 H 0.12001 0.26246 0.49939 0.0
H911 H 0.08776 0.29069 0.52686 0.0
S912 S 0.35381 0.17215 0.53451 0.0
N913 N 0.32697 0.17684 0.5158 0.0
N914 N 0.29258 0.20733 0.54558 0.0
C915 C 0.24698 0.22563 0.53408 0.0
C916 C 0.26571 0.2092 0.51794 0.0
C917 C 0.81978 0.76576 0.76008 0.0
C918 C 0.78372 0.73695 0.74712 0.0
C919 C 0.80119 0.75117 0.77602 0.0
C920 C 0.74695 0.70588 0.77952 0.0
H921 H 0.86533 0.79646 0.75787 0.0
H922 H 0.8335 0.77022 0.78558 0.0
S923 S 0.63393 0.62022 0.75001 0.0
N924 N 0.68809 0.66536 0.73892 0.0
N925 N 0.65496 0.63558 0.76882 0.0
C926 C 0.70807 0.68004 0.7667 0.0
C927 C 0.72593 0.69624 0.7505 0.0
loop_
_geom_bond_atom_site_label_1
_geom_bond_atom_site_label_2
_geom_bond_distance
_geom_bond_site_symmetry_2
_ccdc_geom_bond_type
Mn0 O5 2.095 . S
Mn0 O15 2.162 . S
Mn0 O16 2.297 . S
Mn0 O24 2.385 . S
Mn0 O25 2.209 . S
Mn0 O26 2.094 . S
Mn1 O6 2.121 . S
Mn1 N8 2.257 1_545 S
Mn1 N17 2.282 1_545 S
Mn1 O25 2.215 . S
Mn1 O27 2.117 . S
C2 O24 1.234 . S
C2 O25 1.283 . S
C3 O15 1.281 . S
C3 O16 1.236 . S
C4 O26 1.240 . S
C4 O27 1.264 . S
O5 Mn0 2.095 . S
O5 C14 1.250 . S
O6 Mn1 2.121 . S
O6 C14 1.258 . S
C7 N8 1.326 . S
C7 C11 1.460 . S
C7 H13 0.929 . S
N8 Mn1 2.257 1_565 S
N8 C7 1.326 . S
N8 C12 1.362 . S
C9 C10 1.258 . S
C9 C12 1.431 . S
C9 C29 1.449 . S
C10 C9 1.258 . S
C10 C11 1.477 . S
C10 H30 0.931 . S
C11 C7 1.460 . S
C11 C10 1.477 . S
C11 H31 0.930 . S
C12 N8 1.362 . S
C12 C9 1.431 . S
C12 C22 1.476 . S
H13 C7 0.929 . S
C14 O5 1.250 . S
C14 O6 1.258 . S
O15 Mn0 2.162 . S
O15 C3 1.281 . S
O16 Mn0 2.297 . S
O16 C3 1.236 . S
N17 Mn1 2.282 1_565 S
N17 C18 1.328 1_565 S
N17 C22 1.318 . S
C18 N17 1.328 1_545 S
C18 C19 1.457 . S
C18 H23 0.929 . S
C19 C18 1.457 . S
C19 C20 1.291 1_545 S
C19 H32 0.931 . S
C20 C19 1.291 1_565 S
C20 C21 1.373 . S
C20 H33 0.929 . S
C21 C20 1.373 . S
C21 C22 1.396 . S
C21 C28 1.403 . S
C22 C12 1.476 . S
C22 N17 1.318 . S
C22 C21 1.396 . S
H23 C18 0.929 . S
O24 Mn0 2.385 . S
O24 C2 1.234 . S
O25 Mn0 2.209 . S
O25 Mn1 2.215 . S
O25 C2 1.283 . S
O26 Mn0 2.094 . S
O26 C4 1.240 . S
O27 Mn1 2.117 . S
O27 C4 1.264 . S
C28 C21 1.403 . S
C28 C29 1.399 . S
C28 H34 0.929 . S
C29 C9 1.449 . S
C29 C28 1.399 . S
C29 H35 0.930 . S
H30 C10 0.931 . S
H31 C11 0.930 . S
H32 C19 0.931 . S
H33 C20 0.929 . S
H34 C28 0.929 . S
H35 C29 0.930 . S
Mn36 O41 2.095 . S
Mn36 O51 2.162 . S
Mn36 O52 2.297 . S
Mn36 O60 2.385 . S
Mn36 O61 2.209 . S
Mn36 O62 2.094 . S
Mn37 O42 2.121 . S
Mn37 N44 2.257 1_655 S
Mn37 N53 2.282 1_655 S
Mn37 O61 2.215 . S
Mn37 O63 2.117 . S
C38 O60 1.234 . S
C38 O61 1.283 . S
C39 O51 1.281 . S
C39 O52 1.236 . S
C40 O62 1.240 . S
C40 O63 1.264 . S
O41 Mn36 2.095 . S
O41 C50 1.250 . S
O42 Mn37 2.121 . S
O42 C50 1.258 . S
C43 N44 1.326 . S
C43 C47 1.460 . S
C43 H49 0.929 . S
N44 Mn37 2.257 1_455 S
N44 C43 1.326 . S
N44 C48 1.362 . S
C45 C46 1.258 . S
C45 C48 1.431 . S
C45 C65 1.449 . S
C46 C45 1.258 . S
C46 C47 1.477 . S
C46 H66 0.931 . S
C47 C43 1.460 . S
C47 C46 1.477 . S
C47 H67 0.930 . S
C48 N44 1.362 . S
C48 C45 1.431 . S
C48 C58 1.476 . S
H49 C43 0.929 . S
C50 O41 1.250 . S
C50 O42 1.258 . S
O51 Mn36 2.162 . S
O51 C39 1.281 . S
O52 Mn36 2.297 . S
O52 C39 1.236 . S
N53 Mn37 2.282 1_455 S
N53 C54 1.328 1_455 S
N53 C58 1.318 . S
C54 N53 1.328 1_655 S
C54 C55 1.457 . S
C54 H59 0.929 . S
C55 C54 1.457 . S
C55 C56 1.291 1_655 S
C55 H68 0.931 . S
C56 C55 1.291 1_455 S
C56 C57 1.373 . S
C56 H69 0.929 1_565 S
C57 C56 1.373 . S
C57 C58 1.396 . S
C57 C64 1.403 . S
C58 C48 1.476 . S
C58 N53 1.318 . S
C58 C57 1.396 . S
H59 C54 0.929 . S
O60 Mn36 2.385 . S
O60 C38 1.234 . S
O61 Mn36 2.209 . S
O61 Mn37 2.215 . S
O61 C38 1.283 . S
O62 Mn36 2.094 . S
O62 C40 1.240 . S
O63 Mn37 2.117 . S
O63 C40 1.264 . S
C64 C57 1.403 . S
C64 C65 1.399 . S
C64 H70 0.929 1_565 S
C65 C45 1.449 . S
C65 C64 1.399 . S
C65 H71 0.930 . S
H66 C46 0.931 . S
H67 C47 0.930 . S
H68 C55 0.931 . S
H69 C56 0.929 1_545 S
H70 C64 0.929 1_545 S
H71 C65 0.930 . S
Mn72 O77 2.095 . S
Mn72 O87 2.162 . S
Mn72 O88 2.297 . S
Mn72 O96 2.385 . S
Mn72 O97 2.209 . S
Mn72 O98 2.094 . S
Mn73 O78 2.121 . S
Mn73 N80 2.257 . S
Mn73 N89 2.282 . S
Mn73 O97 2.215 . S
Mn73 O99 2.117 . S
C74 O96 1.234 . S
C74 O97 1.283 . S
C75 O87 1.281 . S
C75 O88 1.236 . S
C76 O98 1.240 . S
C76 O99 1.264 . S
O77 Mn72 2.095 . S
O77 C86 1.250 . S
O78 Mn73 2.121 . S
O78 C86 1.258 . S
C79 N80 1.326 . S
C79 C83 1.460 . S
C79 H85 0.929 . S
N80 Mn73 2.257 . S
N80 C79 1.326 . S
N80 C84 1.362 . S
C81 C82 1.258 . S
C81 C84 1.431 . S
C81 C101 1.449 . S
C82 C81 1.258 . S
C82 C83 1.477 . S
C82 H102 0.931 . S
C83 C79 1.460 . S
C83 C82 1.477 . S
C83 H103 0.930 . S
C84 N80 1.362 . S
C84 C81 1.431 . S
C84 C94 1.476 . S
H85 C79 0.929 . S
C86 O77 1.250 . S
C86 O78 1.258 . S
O87 Mn72 2.162 . S
O87 C75 1.281 . S
O88 Mn72 2.297 . S
O88 C75 1.236 . S
N89 Mn73 2.282 . S
N89 C90 1.328 . S
N89 C94 1.318 . S
C90 N89 1.328 . S
C90 C91 1.457 . S
C90 H95 0.929 . S
C91 C90 1.457 . S
C91 C92 1.291 . S
C91 H104 0.931 . S
C92 C91 1.291 . S
C92 C93 1.373 . S
C92 H105 0.929 1_455 S
C93 C92 1.373 . S
C93 C94 1.396 . S
C93 C100 1.403 . S
C94 C84 1.476 . S
C94 N89 1.318 . S
C94 C93 1.396 . S
H95 C90 0.929 . S
O96 Mn72 2.385 . S
O96 C74 1.234 . S
O97 Mn72 2.209 . S
O97 Mn73 2.215 . S
O97 C74 1.283 . S
O98 Mn72 2.094 . S
O98 C76 1.240 . S
O99 Mn73 2.117 . S
O99 C76 1.264 . S
C100 C93 1.403 . S
C100 C101 1.399 . S
C100 H106 0.929 1_455 S
C101 C81 1.449 . S
C101 C100 1.399 . S
C101 H107 0.930 . S
H102 C82 0.931 . S
H103 C83 0.930 . S
H104 C91 0.931 . S
H105 C92 0.929 1_655 S
H106 C100 0.929 1_655 S
H107 C101 0.930 . S
Mn108 O113 2.095 . S
Mn108 O123 2.162 . S
Mn108 O124 2.297 . S
Mn108 O132 2.385 . S
Mn108 O133 2.209 . S
Mn108 O134 2.094 . S
Mn109 O114 2.121 . S
Mn109 N116 2.257 . S
Mn109 N125 2.282 . S
Mn109 O133 2.215 . S
Mn109 O135 2.117 . S
C110 O132 1.234 . S
C110 O133 1.283 . S
C111 O123 1.281 . S
C111 O124 1.236 . S
C112 O134 1.240 . S
C112 O135 1.264 . S
O113 Mn108 2.095 . S
O113 C122 1.250 . S
O114 Mn109 2.121 . S
O114 C122 1.258 . S
C115 N116 1.326 . S
C115 C119 1.460 . S
C115 H121 0.929 . S
N116 Mn109 2.257 . S
N116 C115 1.326 . S
N116 C120 1.362 . S
C117 C118 1.258 . S
C117 C120 1.431 . S
C117 C137 1.449 . S
C118 C117 1.258 . S
C118 C119 1.477 . S
C118 H138 0.931 . S
C119 C115 1.460 . S
C119 C118 1.477 . S
C119 H139 0.930 . S
C120 N116 1.362 . S
C120 C117 1.431 . S
C120 C130 1.476 . S
H121 C115 0.929 . S
C122 O113 1.250 . S
C122 O114 1.258 . S
O123 Mn108 2.162 . S
O123 C111 1.281 . S
O124 Mn108 2.297 . S
O124 C111 1.236 . S
N125 Mn109 2.282 . S
N125 C126 1.328 . S
N125 C130 1.318 . S
C126 N125 1.328 . S
C126 C127 1.457 . S
C126 H131 0.929 . S
C127 C126 1.457 . S
C127 C128 1.291 . S
C127 H140 0.931 . S
C128 C127 1.291 . S
C128 C129 1.373 . S
C128 H141 0.929 . S
C129 C128 1.373 . S
C129 C130 1.396 . S
C129 C136 1.403 . S
C130 C120 1.476 . S
C130 N125 1.318 . S
C130 C129 1.396 . S
H131 C126 0.929 . S
O132 Mn108 2.385 . S
O132 C110 1.234 . S
O133 Mn108 2.209 . S
O133 Mn109 2.215 . S
O133 C110 1.283 . S
O134 Mn108 2.094 . S
O134 C112 1.240 . S
O135 Mn109 2.117 . S
O135 C112 1.264 . S
C136 C129 1.403 . S
C136 C137 1.399 . S
C136 H142 0.929 . S
C137 C117 1.449 . S
C137 C136 1.399 . S
C137 H143 0.930 . S
H138 C118 0.931 . S
H139 C119 0.930 . S
H140 C127 0.931 . S
H141 C128 0.929 . S
H142 C136 0.929 . S
H143 C137 0.930 . S
Mn144 O149 2.095 . S
Mn144 O159 2.162 . S
Mn144 O160 2.297 . S
Mn144 O168 2.385 . S
Mn144 O169 2.209 . S
Mn144 O170 2.094 . S
Mn145 O150 2.121 . S
Mn145 N152 2.257 . S
Mn145 N161 2.282 . S
Mn145 O169 2.215 . S
Mn145 O171 2.117 . S
C146 O168 1.234 . S
C146 O169 1.283 . S
C147 O159 1.281 . S
C147 O160 1.236 . S
C148 O170 1.240 . S
C148 O171 1.264 . S
O149 Mn144 2.095 . S
O149 C158 1.250 . S
O150 Mn145 2.121 . S
O150 C158 1.258 . S
C151 N152 1.326 . S
C151 C155 1.460 . S
C151 H157 0.929 . S
N152 Mn145 2.257 . S
N152 C151 1.326 . S
N152 C156 1.362 . S
C153 C154 1.258 . S
C153 C156 1.431 . S
C153 C173 1.449 . S
C154 C153 1.258 . S
C154 C155 1.477 . S
C154 H174 0.931 . S
C155 C151 1.460 . S
C155 C154 1.477 . S
C155 H175 0.930 . S
C156 N152 1.362 . S
C156 C153 1.431 . S
C156 C166 1.476 . S
H157 C151 0.929 . S
C158 O149 1.250 . S
C158 O150 1.258 . S
O159 Mn144 2.162 . S
O159 C147 1.281 . S
O160 Mn144 2.297 . S
O160 C147 1.236 . S
N161 Mn145 2.282 . S
N161 C162 1.328 . S
N161 C166 1.318 . S
C162 N161 1.328 . S
C162 C163 1.457 . S
C162 H167 0.929 . S
C163 C162 1.457 . S
C163 C164 1.291 . S
C163 H176 0.931 . S
C164 C163 1.291 . S
C164 C165 1.373 . S
C164 H177 0.929 . S
C165 C164 1.373 . S
C165 C166 1.396 . S
C165 C172 1.403 . S
C166 C156 1.476 . S
C166 N161 1.318 . S
C166 C165 1.396 . S
H167 C162 0.929 . S
O168 Mn144 2.385 . S
O168 C146 1.234 . S
O169 Mn144 2.209 . S
O169 Mn145 2.215 . S
O169 C146 1.283 . S
O170 Mn144 2.094 . S
O170 C148 1.240 . S
O171 Mn145 2.117 . S
O171 C148 1.264 . S
C172 C165 1.403 . S
C172 C173 1.399 . S
C172 H178 0.929 . S
C173 C153 1.449 . S
C173 C172 1.399 . S
C173 H179 0.930 . S
H174 C154 0.931 . S
H175 C155 0.930 . S
H176 C163 0.931 . S
H177 C164 0.929 . S
H178 C172 0.929 . S
H179 C173 0.930 . S
Mn180 O185 2.095 . S
Mn180 O195 2.162 . S
Mn180 O196 2.297 . S
Mn180 O204 2.385 . S
Mn180 O205 2.209 . S
Mn180 O206 2.094 . S
Mn181 O186 2.121 . S
Mn181 N188 2.257 . S
Mn181 N197 2.282 . S
Mn181 O205 2.215 . S
Mn181 O207 2.117 . S
C182 O204 1.234 . S
C182 O205 1.283 . S
C183 O195 1.281 . S
C183 O196 1.236 . S
C184 O206 1.240 . S
C184 O207 1.264 . S
O185 Mn180 2.095 . S
O185 C194 1.250 . S
O186 Mn181 2.121 . S
O186 C194 1.258 . S
C187 N188 1.326 . S
C187 C191 1.460 . S
C187 H193 0.929 . S
N188 Mn181 2.257 . S
N188 C187 1.326 . S
N188 C192 1.362 . S
C189 C190 1.258 . S
C189 C192 1.431 . S
C189 C209 1.449 . S
C190 C189 1.258 . S
C190 C191 1.477 . S
C190 H210 0.931 . S
C191 C187 1.460 . S
C191 C190 1.477 . S
C191 H211 0.930 . S
C192 N188 1.362 . S
C192 C189 1.431 . S
C192 C202 1.476 . S
H193 C187 0.929 . S
C194 O185 1.250 . S
C194 O186 1.258 . S
O195 Mn180 2.162 . S
O195 C183 1.281 . S
O196 Mn180 2.297 . S
O196 C183 1.236 . S
N197 Mn181 2.282 . S
N197 C198 1.328 . S
N197 C202 1.318 . S
C198 N197 1.328 . S
C198 C199 1.457 . S
C198 H203 0.929 . S
C199 C198 1.457 . S
C199 C200 1.291 . S
C199 H212 0.931 . S
C200 C199 1.291 . S
C200 C201 1.373 . S
C200 H213 0.929 1_565 S
C201 C200 1.373 . S
C201 C202 1.396 . S
C201 C208 1.403 . S
C202 C192 1.476 . S
C202 N197 1.318 . S
C202 C201 1.396 . S
H203 C198 0.929 . S
O204 Mn180 2.385 . S
O204 C182 1.234 . S
O205 Mn180 2.209 . S
O205 Mn181 2.215 . S
O205 C182 1.283 . S
O206 Mn180 2.094 . S
O206 C184 1.240 . S
O207 Mn181 2.117 . S
O207 C184 1.264 . S
C208 C201 1.403 . S
C208 C209 1.399 . S
C208 H214 0.929 1_565 S
C209 C189 1.449 . S
C209 C208 1.399 . S
C209 H215 0.930 . S
H210 C190 0.931 . S
H211 C191 0.930 . S
H212 C199 0.931 . S
H213 C200 0.929 1_545 S
H214 C208 0.929 1_545 S
H215 C209 0.930 . S
Mn216 O221 2.095 . S
Mn216 O231 2.162 . S
Mn216 O232 2.297 . S
Mn216 O240 2.385 . S
Mn216 O241 2.209 . S
Mn216 O242 2.094 . S
Mn217 O222 2.121 . S
Mn217 N224 2.257 1_545 S
Mn217 N233 2.282 1_545 S
Mn217 O241 2.215 . S
Mn217 O243 2.117 . S
C218 O240 1.234 . S
C218 O241 1.283 . S
C219 O231 1.281 . S
C219 O232 1.236 . S
C220 O242 1.240 . S
C220 O243 1.264 . S
O221 Mn216 2.095 . S
O221 C230 1.250 . S
O222 Mn217 2.121 . S
O222 C230 1.258 . S
C223 N224 1.326 . S
C223 C227 1.460 . S
C223 H229 0.929 . S
N224 Mn217 2.257 1_565 S
N224 C223 1.326 . S
N224 C228 1.362 . S
C225 C226 1.258 . S
C225 C228 1.431 . S
C225 C245 1.449 . S
C226 C225 1.258 . S
C226 C227 1.477 . S
C226 H246 0.931 . S
C227 C223 1.460 . S
C227 C226 1.477 . S
C227 H247 0.930 . S
C228 N224 1.362 . S
C228 C225 1.431 . S
C228 C238 1.476 . S
H229 C223 0.929 . S
C230 O221 1.250 . S
C230 O222 1.258 . S
O231 Mn216 2.162 . S
O231 C219 1.281 . S
O232 Mn216 2.297 . S
O232 C219 1.236 . S
N233 Mn217 2.282 1_565 S
N233 C234 1.328 1_565 S
N233 C238 1.318 . S
C234 N233 1.328 1_545 S
C234 C235 1.457 . S
C234 H239 0.929 . S
C235 C234 1.457 . S
C235 C236 1.291 1_545 S
C235 H248 0.931 . S
C236 C235 1.291 1_565 S
C236 C237 1.373 . S
C236 H249 0.929 1_455 S
C237 C236 1.373 . S
C237 C238 1.396 . S
C237 C244 1.403 . S
C238 C228 1.476 . S
C238 N233 1.318 . S
C238 C237 1.396 . S
H239 C234 0.929 . S
O240 Mn216 2.385 . S
O240 C218 1.234 . S
O241 Mn216 2.209 . S
O241 Mn217 2.215 . S
O241 C218 1.283 . S
O242 Mn216 2.094 . S
O242 C220 1.240 . S
O243 Mn217 2.117 . S
O243 C220 1.264 . S
C244 C237 1.403 . S
C244 C245 1.399 . S
C244 H250 0.929 1_455 S
C245 C225 1.449 . S
C245 C244 1.399 . S
C245 H251 0.930 . S
H246 C226 0.931 . S
H247 C227 0.930 . S
H248 C235 0.931 . S
H249 C236 0.929 1_655 S
H250 C244 0.929 1_655 S
H251 C245 0.930 . S
Mn252 O257 2.095 . S
Mn252 O267 2.162 . S
Mn252 O268 2.297 . S
Mn252 O276 2.385 . S
Mn252 O277 2.209 . S
Mn252 O278 2.094 . S
Mn253 O258 2.121 . S
Mn253 N260 2.257 1_655 S
Mn253 N269 2.282 1_655 S
Mn253 O277 2.215 . S
Mn253 O279 2.117 . S
C254 O276 1.234 . S
C254 O277 1.283 . S
C255 O267 1.281 . S
C255 O268 1.236 . S
C256 O278 1.240 . S
C256 O279 1.264 . S
O257 Mn252 2.095 . S
O257 C266 1.250 . S
O258 Mn253 2.121 . S
O258 C266 1.258 . S
C259 N260 1.326 . S
C259 C263 1.460 . S
C259 H265 0.929 . S
N260 Mn253 2.257 1_455 S
N260 C259 1.326 . S
N260 C264 1.362 . S
C261 C262 1.258 . S
C261 C264 1.431 . S
C261 C281 1.449 . S
C262 C261 1.258 . S
C262 C263 1.477 . S
C262 H282 0.931 . S
C263 C259 1.460 . S
C263 C262 1.477 . S
C263 H283 0.930 . S
C264 N260 1.362 . S
C264 C261 1.431 . S
C264 C274 1.476 . S
H265 C259 0.929 . S
C266 O257 1.250 . S
C266 O258 1.258 . S
O267 Mn252 2.162 . S
O267 C255 1.281 . S
O268 Mn252 2.297 . S
O268 C255 1.236 . S
N269 Mn253 2.282 1_455 S
N269 C270 1.328 1_455 S
N269 C274 1.318 . S
C270 N269 1.328 1_655 S
C270 C271 1.457 . S
C270 H275 0.929 . S
C271 C270 1.457 . S
C271 C272 1.291 1_655 S
C271 H284 0.931 . S
C272 C271 1.291 1_455 S
C272 C273 1.373 . S
C272 H285 0.929 . S
C273 C272 1.373 . S
C273 C274 1.396 . S
C273 C280 1.403 . S
C274 C264 1.476 . S
C274 N269 1.318 . S
C274 C273 1.396 . S
H275 C270 0.929 . S
O276 Mn252 2.385 . S
O276 C254 1.234 . S
O277 Mn252 2.209 . S
O277 Mn253 2.215 . S
O277 C254 1.283 . S
O278 Mn252 2.094 . S
O278 C256 1.240 . S
O279 Mn253 2.117 . S
O279 C256 1.264 . S
C280 C273 1.403 . S
C280 C281 1.399 . S
C280 H286 0.929 . S
C281 C261 1.449 . S
C281 C280 1.399 . S
C281 H287 0.930 . S
H282 C262 0.931 . S
H283 C263 0.930 . S
H284 C271 0.931 . S
H285 C272 0.929 . S
H286 C280 0.929 . S
H287 C281 0.930 . S
Mn288 O293 2.095 . S
Mn288 O303 2.162 . S
Mn288 O304 2.297 . S
Mn288 O312 2.385 . S
Mn288 O313 2.209 . S
Mn288 O314 2.094 . S
Mn289 O294 2.121 . S
Mn289 N296 2.257 . S
Mn289 N305 2.282 . S
Mn289 O313 2.215 . S
Mn289 O315 2.117 . S
C290 O312 1.234 . S
C290 O313 1.283 . S
C291 O303 1.281 . S
C291 O304 1.236 . S
C292 O314 1.240 . S
C292 O315 1.264 . S
O293 Mn288 2.095 . S
O293 C302 1.250 . S
O294 Mn289 2.121 . S
O294 C302 1.258 . S
C295 N296 1.326 . S
C295 C299 1.460 . S
C295 H301 0.929 . S
N296 Mn289 2.257 . S
N296 C295 1.326 . S
N296 C300 1.362 . S
C297 C298 1.258 . S
C297 C300 1.431 . S
C297 C317 1.449 . S
C298 C297 1.258 . S
C298 C299 1.477 . S
C298 H318 0.931 . S
C299 C295 1.460 . S
C299 C298 1.477 . S
C299 H319 0.930 . S
C300 N296 1.362 . S
C300 C297 1.431 . S
C300 C310 1.476 . S
H301 C295 0.929 . S
C302 O293 1.250 . S
C302 O294 1.258 . S
O303 Mn288 2.162 . S
O303 C291 1.281 . S
O304 Mn288 2.297 . S
O304 C291 1.236 . S
N305 Mn289 2.282 . S
N305 C306 1.328 . S
N305 C310 1.318 . S
C306 N305 1.328 . S
C306 C307 1.457 . S
C306 H311 0.929 . S
C307 C306 1.457 . S
C307 C308 1.291 . S
C307 H320 0.931 . S
C308 C307 1.291 . S
C308 C309 1.373 . S
C308 H321 0.929 1_655 S
C309 C308 1.373 . S
C309 C310 1.396 . S
C309 C316 1.403 . S
C310 C300 1.476 . S
C310 N305 1.318 . S
C310 C309 1.396 . S
H311 C306 0.929 . S
O312 Mn288 2.385 . S
O312 C290 1.234 . S
O313 Mn288 2.209 . S
O313 Mn289 2.215 . S
O313 C290 1.283 . S
O314 Mn288 2.094 . S
O314 C292 1.240 . S
O315 Mn289 2.117 . S
O315 C292 1.264 . S
C316 C309 1.403 . S
C316 C317 1.399 . S
C316 H322 0.929 1_655 S
C317 C297 1.449 . S
C317 C316 1.399 . S
C317 H323 0.930 . S
H318 C298 0.931 . S
H319 C299 0.930 . S
H320 C307 0.931 . S
H321 C308 0.929 1_455 S
H322 C316 0.929 1_455 S
H323 C317 0.930 . S
Mn324 O329 2.095 . S
Mn324 O339 2.162 . S
Mn324 O340 2.297 . S
Mn324 O348 2.385 . S
Mn324 O349 2.209 . S
Mn324 O350 2.094 . S
Mn325 O330 2.121 . S
Mn325 N332 2.257 . S
Mn325 N341 2.282 . S
Mn325 O349 2.215 . S
Mn325 O351 2.117 . S
C326 O348 1.234 . S
C326 O349 1.283 . S
C327 O339 1.281 . S
C327 O340 1.236 . S
C328 O350 1.240 . S
C328 O351 1.264 . S
O329 Mn324 2.095 . S
O329 C338 1.250 . S
O330 Mn325 2.121 . S
O330 C338 1.258 . S
C331 N332 1.326 . S
C331 C335 1.460 . S
C331 H337 0.929 . S
N332 Mn325 2.257 . S
N332 C331 1.326 . S
N332 C336 1.362 . S
C333 C334 1.258 . S
C333 C336 1.431 . S
C333 C353 1.449 . S
C334 C333 1.258 . S
C334 C335 1.477 . S
C334 H354 0.931 . S
C335 C331 1.460 . S
C335 C334 1.477 . S
C335 H355 0.930 . S
C336 N332 1.362 . S
C336 C333 1.431 . S
C336 C346 1.476 . S
H337 C331 0.929 . S
C338 O329 1.250 . S
C338 O330 1.258 . S
O339 Mn324 2.162 . S
O339 C327 1.281 . S
O340 Mn324 2.297 . S
O340 C327 1.236 . S
N341 Mn325 2.282 . S
N341 C342 1.328 . S
N341 C346 1.318 . S
C342 N341 1.328 . S
C342 C343 1.457 . S
C342 H347 0.929 . S
C343 C342 1.457 . S
C343 C344 1.291 . S
C343 H356 0.931 . S
C344 C343 1.291 . S
C344 C345 1.373 . S
C344 H357 0.929 . S
C345 C344 1.373 . S
C345 C346 1.396 . S
C345 C352 1.403 . S
C346 C336 1.476 . S
C346 N341 1.318 . S
C346 C345 1.396 . S
H347 C342 0.929 . S
O348 Mn324 2.385 . S
O348 C326 1.234 . S
O349 Mn324 2.209 . S
O349 Mn325 2.215 . S
O349 C326 1.283 . S
O350 Mn324 2.094 . S
O350 C328 1.240 . S
O351 Mn325 2.117 . S
O351 C328 1.264 . S
C352 C345 1.403 . S
C352 C353 1.399 . S
C352 H358 0.929 . S
C353 C333 1.449 . S
C353 C352 1.399 . S
C353 H359 0.930 . S
H354 C334 0.931 . S
H355 C335 0.930 . S
H356 C343 0.931 . S
H357 C344 0.929 . S
H358 C352 0.929 . S
H359 C353 0.930 . S
Mn360 O365 2.095 . S
Mn360 O375 2.162 . S
Mn360 O376 2.297 . S
Mn360 O384 2.385 . S
Mn360 O385 2.209 . S
Mn360 O386 2.094 . S
Mn361 O366 2.121 . S
Mn361 N368 2.257 1_565 S
Mn361 N377 2.282 1_565 S
Mn361 O385 2.215 . S
Mn361 O387 2.117 . S
C362 O384 1.234 . S
C362 O385 1.283 . S
C363 O375 1.281 . S
C363 O376 1.236 . S
C364 O386 1.240 . S
C364 O387 1.264 . S
O365 Mn360 2.095 . S
O365 C374 1.250 . S
O366 Mn361 2.121 . S
O366 C374 1.258 . S
C367 N368 1.326 . S
C367 C371 1.460 . S
C367 H373 0.929 . S
N368 Mn361 2.257 1_545 S
N368 C367 1.326 . S
N368 C372 1.362 . S
C369 C370 1.258 . S
C369 C372 1.431 . S
C369 C389 1.449 . S
C370 C369 1.258 . S
C370 C371 1.477 . S
C370 H390 0.931 . S
C371 C367 1.460 . S
C371 C370 1.477 . S
C371 H391 0.930 . S
C372 N368 1.362 . S
C372 C369 1.431 . S
C372 C382 1.476 . S
H373 C367 0.929 . S
C374 O365 1.250 . S
C374 O366 1.258 . S
O375 Mn360 2.162 . S
O375 C363 1.281 . S
O376 Mn360 2.297 . S
O376 C363 1.236 . S
N377 Mn361 2.282 1_545 S
N377 C378 1.328 1_545 S
N377 C382 1.318 . S
C378 N377 1.328 1_565 S
C378 C379 1.457 . S
C378 H383 0.929 . S
C379 C378 1.457 . S
C379 C380 1.291 1_565 S
C379 H392 0.931 . S
C380 C379 1.291 1_545 S
C380 C381 1.373 . S
C380 H393 0.929 . S
C381 C380 1.373 . S
C381 C382 1.396 . S
C381 C388 1.403 . S
C382 C372 1.476 . S
C382 N377 1.318 . S
C382 C381 1.396 . S
H383 C378 0.929 . S
O384 Mn360 2.385 . S
O384 C362 1.234 . S
O385 Mn360 2.209 . S
O385 Mn361 2.215 . S
O385 C362 1.283 . S
O386 Mn360 2.094 . S
O386 C364 1.240 . S
O387 Mn361 2.117 . S
O387 C364 1.264 . S
C388 C381 1.403 . S
C388 C389 1.399 . S
C388 H394 0.929 . S
C389 C369 1.449 . S
C389 C388 1.399 . S
C389 H395 0.930 . S
H390 C370 0.931 . S
H391 C371 0.930 . S
H392 C379 0.931 . S
H393 C380 0.929 . S
H394 C388 0.929 . S
H395 C389 0.930 . S
Mn396 O401 2.095 . S
Mn396 O411 2.162 . S
Mn396 O412 2.297 . S
Mn396 O420 2.385 . S
Mn396 O421 2.209 . S
Mn396 O422 2.094 . S
Mn397 O402 2.121 . S
Mn397 N404 2.257 1_455 S
Mn397 N413 2.282 1_455 S
Mn397 O421 2.215 . S
Mn397 O423 2.117 . S
C398 O420 1.234 . S
C398 O421 1.283 . S
C399 O411 1.281 . S
C399 O412 1.236 . S
C400 O422 1.240 . S
C400 O423 1.264 . S
O401 Mn396 2.095 . S
O401 C410 1.250 . S
O402 Mn397 2.121 . S
O402 C410 1.258 . S
C403 N404 1.326 . S
C403 C407 1.460 . S
C403 H409 0.929 . S
N404 Mn397 2.257 1_655 S
N404 C403 1.326 . S
N404 C408 1.362 . S
C405 C406 1.258 . S
C405 C408 1.431 . S
C405 C425 1.449 . S
C406 C405 1.258 . S
C406 C407 1.477 . S
C406 H426 0.931 . S
C407 C403 1.460 . S
C407 C406 1.477 . S
C407 H427 0.930 . S
C408 N404 1.362 . S
C408 C405 1.431 . S
C408 C418 1.476 . S
H409 C403 0.929 . S
C410 O401 1.250 . S
C410 O402 1.258 . S
O411 Mn396 2.162 . S
O411 C399 1.281 . S
O412 Mn396 2.297 . S
O412 C399 1.236 . S
N413 Mn397 2.282 1_655 S
N413 C414 1.328 1_655 S
N413 C418 1.318 . S
C414 N413 1.328 1_455 S
C414 C415 1.457 . S
C414 H419 0.929 . S
C415 C414 1.457 . S
C415 C416 1.291 1_455 S
C415 H428 0.931 . S
C416 C415 1.291 1_655 S
C416 C417 1.373 . S
C416 H429 0.929 1_545 S
C417 C416 1.373 . S
C417 C418 1.396 . S
C417 C424 1.403 . S
C418 C408 1.476 . S
C418 N413 1.318 . S
C418 C417 1.396 . S
H419 C414 0.929 . S
O420 Mn396 2.385 . S
O420 C398 1.234 . S
O421 Mn396 2.209 . S
O421 Mn397 2.215 . S
O421 C398 1.283 . S
O422 Mn396 2.094 . S
O422 C400 1.240 . S
O423 Mn397 2.117 . S
O423 C400 1.264 . S
C424 C417 1.403 . S
C424 C425 1.399 . S
C424 H430 0.929 1_545 S
C425 C405 1.449 . S
C425 C424 1.399 . S
C425 H431 0.930 . S
H426 C406 0.931 . S
H427 C407 0.930 . S
H428 C415 0.931 . S
H429 C416 0.929 1_565 S
H430 C424 0.929 1_565 S
H431 C425 0.930 . S
Mn432 O437 2.095 . S
Mn432 O447 2.162 . S
Mn432 O448 2.297 . S
Mn432 O456 2.385 . S
Mn432 O457 2.209 . S
Mn432 O458 2.094 . S
Mn433 O438 2.121 . S
Mn433 N440 2.257 1_565 S
Mn433 N449 2.282 1_565 S
Mn433 O457 2.215 . S
Mn433 O459 2.117 . S
C434 O456 1.234 . S
C434 O457 1.283 . S
C435 O447 1.281 . S
C435 O448 1.236 . S
C436 O458 1.240 . S
C436 O459 1.264 . S
O437 Mn432 2.095 . S
O437 C446 1.250 . S
O438 Mn433 2.121 . S
O438 C446 1.258 . S
C439 N440 1.326 . S
C439 C443 1.460 . S
C439 H445 0.929 . S
N440 Mn433 2.257 1_545 S
N440 C439 1.326 . S
N440 C444 1.362 . S
C441 C442 1.258 . S
C441 C444 1.431 . S
C441 C461 1.449 . S
C442 C441 1.258 . S
C442 C443 1.477 . S
C442 H462 0.931 . S
C443 C439 1.460 . S
C443 C442 1.477 . S
C443 H463 0.930 . S
C444 N440 1.362 . S
C444 C441 1.431 . S
C444 C454 1.476 . S
H445 C439 0.929 . S
C446 O437 1.250 . S
C446 O438 1.258 . S
O447 Mn432 2.162 . S
O447 C435 1.281 . S
O448 Mn432 2.297 . S
O448 C435 1.236 . S
N449 Mn433 2.282 1_545 S
N449 C450 1.328 1_545 S
N449 C454 1.318 . S
C450 N449 1.328 1_565 S
C450 C451 1.457 . S
C450 H455 0.929 . S
C451 C450 1.457 . S
C451 C452 1.291 1_565 S
C451 H464 0.931 . S
C452 C451 1.291 1_545 S
C452 C453 1.373 . S
C452 H465 0.929 1_655 S
C453 C452 1.373 . S
C453 C454 1.396 . S
C453 C460 1.403 . S
C454 C444 1.476 . S
C454 N449 1.318 . S
C454 C453 1.396 . S
H455 C450 0.929 . S
O456 Mn432 2.385 . S
O456 C434 1.234 . S
O457 Mn432 2.209 . S
O457 Mn433 2.215 . S
O457 C434 1.283 . S
O458 Mn432 2.094 . S
O458 C436 1.240 . S
O459 Mn433 2.117 . S
O459 C436 1.264 . S
C460 C453 1.403 . S
C460 C461 1.399 . S
C460 H466 0.929 1_655 S
C461 C441 1.449 . S
C461 C460 1.399 . S
C461 H467 0.930 . S
H462 C442 0.931 . S
H463 C443 0.930 . S
H464 C451 0.931 . S
H465 C452 0.929 1_455 S
H466 C460 0.929 1_455 S
H467 C461 0.930 . S
Mn468 O473 2.095 . S
Mn468 O483 2.162 . S
Mn468 O484 2.297 . S
Mn468 O492 2.385 . S
Mn468 O493 2.209 . S
Mn468 O494 2.094 . S
Mn469 O474 2.121 . S
Mn469 N476 2.257 1_455 S
Mn469 N485 2.282 1_455 S
Mn469 O493 2.215 . S
Mn469 O495 2.117 . S
C470 O492 1.234 . S
C470 O493 1.283 . S
C471 O483 1.281 . S
C471 O484 1.236 . S
C472 O494 1.240 . S
C472 O495 1.264 . S
O473 Mn468 2.095 . S
O473 C482 1.250 . S
O474 Mn469 2.121 . S
O474 C482 1.258 . S
C475 N476 1.326 . S
C475 C479 1.460 . S
C475 H481 0.929 . S
N476 Mn469 2.257 1_655 S
N476 C475 1.326 . S
N476 C480 1.362 . S
C477 C478 1.258 . S
C477 C480 1.431 . S
C477 C497 1.449 . S
C478 C477 1.258 . S
C478 C479 1.477 . S
C478 H498 0.931 . S
C479 C475 1.460 . S
C479 C478 1.477 . S
C479 H499 0.930 . S
C480 N476 1.362 . S
C480 C477 1.431 . S
C480 C490 1.476 . S
H481 C475 0.929 . S
C482 O473 1.250 . S
C482 O474 1.258 . S
O483 Mn468 2.162 . S
O483 C471 1.281 . S
O484 Mn468 2.297 . S
O484 C471 1.236 . S
N485 Mn469 2.282 1_655 S
N485 C486 1.328 1_655 S
N485 C490 1.318 . S
C486 N485 1.328 1_455 S
C486 C487 1.457 . S
C486 H491 0.929 . S
C487 C486 1.457 . S
C487 C488 1.291 1_455 S
C487 H500 0.931 . S
C488 C487 1.291 1_655 S
C488 C489 1.373 . S
C488 H501 0.929 . S
C489 C488 1.373 . S
C489 C490 1.396 . S
C489 C496 1.403 . S
C490 C480 1.476 . S
C490 N485 1.318 . S
C490 C489 1.396 . S
H491 C486 0.929 . S
O492 Mn468 2.385 . S
O492 C470 1.234 . S
O493 Mn468 2.209 . S
O493 Mn469 2.215 . S
O493 C470 1.283 . S
O494 Mn468 2.094 . S
O494 C472 1.240 . S
O495 Mn469 2.117 . S
O495 C472 1.264 . S
C496 C489 1.403 . S
C496 C497 1.399 . S
C496 H502 0.929 . S
C497 C477 1.449 . S
C497 C496 1.399 . S
C497 H503 0.930 . S
H498 C478 0.931 . S
H499 C479 0.930 . S
H500 C487 0.931 . S
H501 C488 0.929 . S
H502 C496 0.929 . S
H503 C497 0.930 . S
Mn504 O509 2.095 . S
Mn504 O519 2.162 . S
Mn504 O520 2.297 . S
Mn504 O528 2.385 . S
Mn504 O529 2.209 . S
Mn504 O530 2.094 . S
Mn505 O510 2.121 . S
Mn505 N512 2.257 . S
Mn505 N521 2.282 . S
Mn505 O529 2.215 . S
Mn505 O531 2.117 . S
C506 O528 1.234 . S
C506 O529 1.283 . S
C507 O519 1.281 . S
C507 O520 1.236 . S
C508 O530 1.240 . S
C508 O531 1.264 . S
O509 Mn504 2.095 . S
O509 C518 1.250 . S
O510 Mn505 2.121 . S
O510 C518 1.258 . S
C511 N512 1.326 . S
C511 C515 1.460 . S
C511 H517 0.929 . S
N512 Mn505 2.257 . S
N512 C511 1.326 . S
N512 C516 1.362 . S
C513 C514 1.258 . S
C513 C516 1.431 . S
C513 C533 1.449 . S
C514 C513 1.258 . S
C514 C515 1.477 . S
C514 H534 0.931 . S
C515 C511 1.460 . S
C515 C514 1.477 . S
C515 H535 0.930 . S
C516 N512 1.362 . S
C516 C513 1.431 . S
C516 C526 1.476 . S
H517 C511 0.929 . S
C518 O509 1.250 . S
C518 O510 1.258 . S
O519 Mn504 2.162 . S
O519 C507 1.281 . S
O520 Mn504 2.297 . S
O520 C507 1.236 . S
N521 Mn505 2.282 . S
N521 C522 1.328 . S
N521 C526 1.318 . S
C522 N521 1.328 . S
C522 C523 1.457 . S
C522 H527 0.929 . S
C523 C522 1.457 . S
C523 C524 1.291 . S
C523 H536 0.931 . S
C524 C523 1.291 . S
C524 C525 1.373 . S
C524 H537 0.929 . S
C525 C524 1.373 . S
C525 C526 1.396 . S
C525 C532 1.403 . S
C526 C516 1.476 . S
C526 N521 1.318 . S
C526 C525 1.396 . S
H527 C522 0.929 . S
O528 Mn504 2.385 . S
O528 C506 1.234 . S
O529 Mn504 2.209 . S
O529 Mn505 2.215 . S
O529 C506 1.283 . S
O530 Mn504 2.094 . S
O530 C508 1.240 . S
O531 Mn505 2.117 . S
O531 C508 1.264 . S
C532 C525 1.403 . S
C532 C533 1.399 . S
C532 H538 0.929 . S
C533 C513 1.449 . S
C533 C532 1.399 . S
C533 H539 0.930 . S
H534 C514 0.931 . S
H535 C515 0.930 . S
H536 C523 0.931 . S
H537 C524 0.929 . S
H538 C532 0.929 . S
H539 C533 0.930 . S
Mn540 O545 2.095 . S
Mn540 O555 2.162 . S
Mn540 O556 2.297 . S
Mn540 O564 2.385 . S
Mn540 O565 2.209 . S
Mn540 O566 2.094 . S
Mn541 O546 2.121 . S
Mn541 N548 2.257 . S
Mn541 N557 2.282 . S
Mn541 O565 2.215 . S
Mn541 O567 2.117 . S
C542 O564 1.234 . S
C542 O565 1.283 . S
C543 O555 1.281 . S
C543 O556 1.236 . S
C544 O566 1.240 . S
C544 O567 1.264 . S
O545 Mn540 2.095 . S
O545 C554 1.250 . S
O546 Mn541 2.121 . S
O546 C554 1.258 . S
C547 N548 1.326 . S
C547 C551 1.460 . S
C547 H553 0.929 . S
N548 Mn541 2.257 . S
N548 C547 1.326 . S
N548 C552 1.362 . S
C549 C550 1.258 . S
C549 C552 1.431 . S
C549 C569 1.449 . S
C550 C549 1.258 . S
C550 C551 1.477 . S
C550 H570 0.931 . S
C551 C547 1.460 . S
C551 C550 1.477 . S
C551 H571 0.930 . S
C552 N548 1.362 . S
C552 C549 1.431 . S
C552 C562 1.476 . S
H553 C547 0.929 . S
C554 O545 1.250 . S
C554 O546 1.258 . S
O555 Mn540 2.162 . S
O555 C543 1.281 . S
O556 Mn540 2.297 . S
O556 C543 1.236 . S
N557 Mn541 2.282 . S
N557 C558 1.328 . S
N557 C562 1.318 . S
C558 N557 1.328 . S
C558 C559 1.457 . S
C558 H563 0.929 . S
C559 C558 1.457 . S
C559 C560 1.291 . S
C559 H572 0.931 . S
C560 C559 1.291 . S
C560 C561 1.373 . S
C560 H573 0.929 1_545 S
C561 C560 1.373 . S
C561 C562 1.396 . S
C561 C568 1.403 . S
C562 C552 1.476 . S
C562 N557 1.318 . S
C562 C561 1.396 . S
H563 C558 0.929 . S
O564 Mn540 2.385 . S
O564 C542 1.234 . S
O565 Mn540 2.209 . S
O565 Mn541 2.215 . S
O565 C542 1.283 . S
O566 Mn540 2.094 . S
O566 C544 1.240 . S
O567 Mn541 2.117 . S
O567 C544 1.264 . S
C568 C561 1.403 . S
C568 C569 1.399 . S
C568 H574 0.929 1_545 S
C569 C549 1.449 . S
C569 C568 1.399 . S
C569 H575 0.930 . S
H570 C550 0.931 . S
H571 C551 0.930 . S
H572 C559 0.931 . S
H573 C560 0.929 1_565 S
H574 C568 0.929 1_565 S
H575 C569 0.930 . S
C576 C577 1.369 . S
C576 C578 1.419 1_655 S
C576 H580 0.930 . S
C577 C576 1.369 . S
C577 C586 1.429 1_565 S
C578 C576 1.419 1_455 S
C578 C579 1.363 1_565 S
C578 H581 0.929 . S
C579 C578 1.363 1_545 S
C579 C585 1.428 . S
H580 C576 0.930 . S
H581 C578 0.929 . S
S582 N583 1.613 . S
S582 N584 1.610 1_655 S
N583 S582 1.613 . S
N583 C586 1.350 . S
N584 S582 1.610 1_455 S
N584 C585 1.351 . S
C585 C579 1.428 . S
C585 N584 1.351 . S
C585 C586 1.434 1_455 S
C586 C577 1.429 1_545 S
C586 N583 1.350 . S
C586 C585 1.434 1_655 S
C587 C588 1.369 1_455 S
C587 C589 1.419 . S
C587 H591 0.930 . S
C588 C587 1.369 1_655 S
C588 C597 1.429 . S
C589 C587 1.419 . S
C589 C590 1.363 . S
C589 H592 0.929 . S
C590 C589 1.363 . S
C590 C596 1.428 1_455 S
H591 C587 0.930 . S
H592 C589 0.929 . S
S593 N594 1.613 . S
S593 N595 1.610 . S
N594 S593 1.613 . S
N594 C597 1.350 . S
N595 S593 1.610 . S
N595 C596 1.351 . S
C596 C590 1.428 1_655 S
C596 N595 1.351 . S
C596 C597 1.434 . S
C597 C588 1.429 . S
C597 N594 1.350 . S
C597 C596 1.434 . S
C598 C599 1.369 . S
C598 C600 1.419 . S
C598 H602 0.930 . S
C599 C598 1.369 . S
C599 C608 1.429 . S
C600 C598 1.419 . S
C600 C601 1.363 . S
C600 H603 0.929 . S
C601 C600 1.363 . S
C601 C607 1.428 . S
H602 C598 0.930 . S
H603 C600 0.929 . S
S604 N605 1.613 . S
S604 N606 1.610 . S
N605 S604 1.613 . S
N605 C608 1.350 . S
N606 S604 1.610 . S
N606 C607 1.351 . S
C607 C601 1.428 . S
C607 N606 1.351 . S
C607 C608 1.434 . S
C608 C599 1.429 . S
C608 N605 1.350 . S
C608 C607 1.434 . S
C609 C610 1.369 . S
C609 C611 1.419 1_545 S
C609 H613 0.930 . S
C610 C609 1.369 . S
C610 C619 1.429 . S
C611 C609 1.419 1_565 S
C611 C612 1.363 . S
C611 H614 0.929 . S
C612 C611 1.363 . S
C612 C618 1.436 . S
H613 C609 0.930 . S
H614 C611 0.929 . S
S615 N616 1.613 . S
S615 N617 1.610 . S
N616 S615 1.613 . S
N616 C619 1.350 . S
N617 S615 1.610 . S
N617 C618 1.350 1_545 S
C618 C612 1.436 . S
C618 N617 1.350 1_565 S
C618 C619 1.426 1_565 S
C619 C610 1.429 . S
C619 N616 1.350 . S
C619 C618 1.426 1_545 S
C620 C621 1.369 . S
C620 C622 1.418 . S
C620 H624 0.930 . S
C621 C620 1.369 . S
C621 C630 1.429 1_455 S
C622 C620 1.418 . S
C622 C623 1.364 1_455 S
C622 H625 0.929 . S
C623 C622 1.364 1_655 S
C623 C629 1.428 . S
H624 C620 0.930 . S
H625 C622 0.929 . S
S626 N627 1.613 . S
S626 N628 1.610 . S
N627 S626 1.613 . S
N627 C630 1.350 . S
N628 S626 1.610 . S
N628 C629 1.351 . S
C629 C623 1.428 . S
C629 N628 1.351 . S
C629 C630 1.434 . S
C630 C621 1.429 1_655 S
C630 N627 1.350 . S
C630 C629 1.434 . S
C631 C632 1.369 . S
C631 C633 1.419 . S
C631 H635 0.930 . S
C632 C631 1.369 . S
C632 C641 1.429 . S
C633 C631 1.419 . S
C633 C634 1.363 . S
C633 H636 0.929 . S
C634 C633 1.363 . S
C634 C640 1.428 . S
H635 C631 0.930 . S
H636 C633 0.929 . S
S637 N638 1.613 . S
S637 N639 1.610 . S
N638 S637 1.613 . S
N638 C641 1.350 . S
N639 S637 1.610 . S
N639 C640 1.351 . S
C640 C634 1.428 . S
C640 N639 1.351 . S
C640 C641 1.434 . S
C641 C632 1.429 . S
C641 N638 1.350 . S
C641 C640 1.434 . S
C642 C643 1.369 . S
C642 C644 1.419 . S
C642 H646 0.930 . S
C643 C642 1.369 . S
C643 C652 1.429 1_545 S
C644 C642 1.419 . S
C644 C645 1.363 1_545 S
C644 H647 0.929 . S
C645 C644 1.363 1_565 S
C645 C651 1.428 . S
H646 C642 0.930 . S
H647 C644 0.929 . S
S648 N649 1.613 . S
S648 N650 1.610 . S
N649 S648 1.613 . S
N649 C652 1.350 . S
N650 S648 1.610 . S
N650 C651 1.351 . S
C651 C645 1.428 . S
C651 N650 1.351 . S
C651 C652 1.434 . S
C652 C643 1.429 1_565 S
C652 N649 1.350 . S
C652 C651 1.434 . S
C653 C654 1.369 1_655 S
C653 C655 1.419 1_545 S
C653 H657 0.930 . S
C654 C653 1.369 1_455 S
C654 C663 1.429 . S
C655 C653 1.419 1_565 S
C655 C656 1.363 . S
C655 H658 0.929 . S
C656 C655 1.363 . S
C656 C662 1.428 1_655 S
H657 C653 0.930 . S
H658 C655 0.929 . S
S659 N660 1.613 1_565 S
S659 N661 1.610 . S
N660 S659 1.613 1_545 S
N660 C663 1.350 . S
N661 S659 1.610 . S
N661 C662 1.351 . S
C662 C656 1.428 1_455 S
C662 N661 1.351 . S
C662 C663 1.434 1_565 S
C663 C654 1.429 . S
C663 N660 1.350 . S
C663 C662 1.434 1_545 S
C664 C665 1.369 1_545 S
C664 C666 1.419 . S
C664 H668 0.930 . S
C665 C664 1.369 1_565 S
C665 C674 1.429 . S
C666 C664 1.419 . S
C666 C667 1.363 . S
C666 H669 0.929 . S
C667 C666 1.363 . S
C667 C673 1.428 1_545 S
H668 C664 0.930 . S
H669 C666 0.929 . S
S670 N671 1.613 . S
S670 N672 1.610 . S
N671 S670 1.613 . S
N671 C674 1.350 . S
N672 S670 1.610 . S
N672 C673 1.351 . S
C673 C667 1.428 1_565 S
C673 N672 1.351 . S
C673 C674 1.434 . S
C674 C665 1.429 . S
C674 N671 1.350 . S
C674 C673 1.434 . S
C675 C676 1.369 . S
C675 C677 1.419 1_665 S
C675 H679 0.930 . S
C676 C675 1.369 . S
C676 C685 1.429 . S
C677 C675 1.419 1_445 S
C677 C678 1.363 . S
C677 H680 0.929 . S
C678 C677 1.363 . S
C678 C684 1.428 . S
H679 C675 0.930 . S
H680 C677 0.929 . S
S681 N682 1.613 1_455 S
S681 N683 1.610 1_565 S
N682 S681 1.613 1_655 S
N682 C685 1.350 . S
N683 S681 1.610 1_545 S
N683 C684 1.351 . S
C684 C678 1.428 . S
C684 N683 1.351 . S
C684 C685 1.434 1_445 S
C685 C676 1.429 . S
C685 N682 1.350 . S
C685 C684 1.434 1_665 S
C686 C687 1.369 . S
C686 C688 1.419 1_455 S
C686 H690 0.930 . S
C687 C686 1.369 . S
C687 C696 1.429 . S
C688 C686 1.419 1_655 S
C688 C689 1.363 . S
C688 H691 0.929 . S
C689 C688 1.363 . S
C689 C695 1.428 . S
H690 C686 0.930 . S
H691 C688 0.929 . S
S692 N693 1.613 1_655 S
S692 N694 1.610 . S
N693 S692 1.613 1_455 S
N693 C696 1.350 . S
N694 S692 1.610 . S
N694 C695 1.351 . S
C695 C689 1.428 . S
C695 N694 1.351 . S
C695 C696 1.434 1_655 S
C696 C687 1.429 . S
C696 N693 1.350 . S
C696 C695 1.434 1_455 S
C697 C698 1.369 . S
C697 C699 1.419 . S
C697 H701 0.930 . S
C698 C697 1.369 . S
C698 C707 1.429 . S
C699 C697 1.419 . S
C699 C700 1.363 . S
C699 H702 0.929 . S
C700 C699 1.363 . S
C700 C706 1.428 . S
H701 C697 0.930 . S
H702 C699 0.929 . S
S703 N704 1.613 . S
S703 N705 1.610 . S
N704 S703 1.613 . S
N704 C707 1.350 . S
N705 S703 1.610 . S
N705 C706 1.351 . S
C706 C700 1.428 . S
C706 N705 1.351 . S
C706 C707 1.434 . S
C707 C698 1.429 . S
C707 N704 1.350 . S
C707 C706 1.434 . S
C708 C709 1.369 . S
C708 C710 1.419 . S
C708 H712 0.930 . S
C709 C708 1.369 . S
C709 C718 1.429 . S
C710 C708 1.419 . S
C710 C711 1.363 . S
C710 H713 0.929 . S
C711 C710 1.363 . S
C711 C717 1.428 . S
H712 C708 0.930 . S
H713 C710 0.929 . S
S714 N715 1.613 . S
S714 N716 1.610 . S
N715 S714 1.613 . S
N715 C718 1.350 . S
N716 S714 1.610 . S
N716 C717 1.351 . S
C717 C711 1.428 . S
C717 N716 1.351 . S
C717 C718 1.434 . S
C718 C709 1.429 . S
C718 N715 1.350 . S
C718 C717 1.434 . S
C719 C720 1.369 . S
C719 C721 1.419 1_565 S
C719 H723 0.930 . S
C720 C719 1.369 . S
C720 C729 1.429 . S
C721 C719 1.419 1_545 S
C721 C722 1.363 . S
C721 H724 0.929 . S
C722 C721 1.363 . S
C722 C728 1.428 . S
H723 C719 0.930 . S
H724 C721 0.929 . S
S725 N726 1.613 . S
S725 N727 1.610 . S
N726 S725 1.613 . S
N726 C729 1.350 . S
N727 S725 1.610 . S
N727 C728 1.351 1_565 S
C728 C722 1.428 . S
C728 N727 1.351 1_545 S
C728 C729 1.434 1_545 S
C729 C720 1.429 . S
C729 N726 1.350 . S
C729 C728 1.434 1_565 S
C730 C731 1.369 . S
C730 C732 1.419 1_665 S
C730 H734 0.930 . S
C731 C730 1.369 . S
C731 C740 1.429 . S
C732 C730 1.419 1_445 S
C732 C733 1.363 . S
C732 H735 0.929 . S
C733 C732 1.363 . S
C733 C739 1.428 . S
H734 C730 0.930 . S
H735 C732 0.929 . S
S736 N737 1.613 1_455 S
S736 N738 1.610 1_565 S
N737 S736 1.613 1_655 S
N737 C740 1.350 . S
N738 S736 1.610 1_545 S
N738 C739 1.351 . S
C739 C733 1.428 . S
C739 N738 1.351 . S
C739 C740 1.434 1_445 S
C740 C731 1.429 . S
C740 N737 1.350 . S
C740 C739 1.434 1_665 S
C741 C742 1.369 . S
C741 C743 1.419 1_455 S
C741 H745 0.930 . S
C742 C741 1.369 . S
C742 C751 1.429 . S
C743 C741 1.419 1_655 S
C743 C744 1.363 . S
C743 H746 0.929 . S
C744 C743 1.363 . S
C744 C750 1.428 . S
H745 C741 0.930 . S
H746 C743 0.929 . S
S747 N748 1.613 1_655 S
S747 N749 1.610 . S
N748 S747 1.613 1_455 S
N748 C751 1.350 . S
N749 S747 1.610 . S
N749 C750 1.351 . S
C750 C744 1.428 . S
C750 N749 1.351 . S
C750 C751 1.434 1_655 S
C751 C742 1.429 . S
C751 N748 1.350 . S
C751 C750 1.434 1_455 S
C752 C753 1.369 . S
C752 C754 1.419 . S
C752 H756 0.930 . S
C753 C752 1.369 . S
C753 C762 1.429 . S
C754 C752 1.419 . S
C754 C755 1.363 . S
C754 H757 0.929 . S
C755 C754 1.363 . S
C755 C761 1.428 . S
H756 C752 0.930 . S
H757 C754 0.929 . S
S758 N759 1.613 . S
S758 N760 1.610 . S
N759 S758 1.613 . S
N759 C762 1.350 . S
N760 S758 1.610 . S
N760 C761 1.351 . S
C761 C755 1.428 . S
C761 N760 1.351 . S
C761 C762 1.434 . S
C762 C753 1.429 . S
C762 N759 1.350 . S
C762 C761 1.434 . S
C763 C764 1.369 . S
C763 C765 1.419 . S
C763 H767 0.930 . S
C764 C763 1.369 . S
C764 C773 1.429 . S
C765 C763 1.419 . S
C765 C766 1.363 . S
C765 H768 0.929 . S
C766 C765 1.363 . S
C766 C772 1.428 . S
H767 C763 0.930 . S
H768 C765 0.929 . S
S769 N770 1.613 . S
S769 N771 1.610 . S
N770 S769 1.613 . S
N770 C773 1.350 . S
N771 S769 1.610 . S
N771 C772 1.351 . S
C772 C766 1.428 . S
C772 N771 1.351 . S
C772 C773 1.434 . S
C773 C764 1.429 . S
C773 N770 1.350 . S
C773 C772 1.434 . S
C774 C775 1.369 . S
C774 C776 1.419 . S
C774 H778 0.930 . S
C775 C774 1.369 . S
C775 C784 1.429 . S
C776 C774 1.419 . S
C776 C777 1.363 . S
C776 H779 0.929 . S
C777 C776 1.363 . S
C777 C783 1.428 . S
H778 C774 0.930 . S
H779 C776 0.929 . S
S780 N781 1.613 . S
S780 N782 1.610 . S
N781 S780 1.613 . S
N781 C784 1.350 . S
N782 S780 1.610 . S
N782 C783 1.351 . S
C783 C777 1.428 . S
C783 N782 1.351 . S
C783 C784 1.434 . S
C784 C775 1.429 . S
C784 N781 1.350 . S
C784 C783 1.434 . S
C785 C786 1.369 . S
C785 C787 1.419 . S
C785 H789 0.930 . S
C786 C785 1.369 . S
C786 C795 1.429 . S
C787 C785 1.419 . S
C787 C788 1.363 . S
C787 H790 0.929 . S
C788 C787 1.363 . S
C788 C794 1.428 . S
H789 C785 0.930 . S
H790 C787 0.929 . S
S791 N792 1.613 . S
S791 N793 1.610 . S
N792 S791 1.613 . S
N792 C795 1.350 . S
N793 S791 1.610 . S
N793 C794 1.351 . S
C794 C788 1.428 . S
C794 N793 1.351 . S
C794 C795 1.434 . S
C795 C786 1.429 . S
C795 N792 1.350 . S
C795 C794 1.434 . S
C796 C797 1.369 . S
C796 C798 1.419 . S
C796 H800 0.930 . S
C797 C796 1.369 . S
C797 C806 1.429 . S
C798 C796 1.419 . S
C798 C799 1.363 . S
C798 H801 0.929 . S
C799 C798 1.363 . S
C799 C805 1.428 . S
H800 C796 0.930 . S
H801 C798 0.929 . S
S802 N803 1.613 . S
S802 N804 1.610 . S
N803 S802 1.613 . S
N803 C806 1.350 . S
N804 S802 1.610 . S
N804 C805 1.351 . S
C805 C799 1.428 . S
C805 N804 1.351 . S
C805 C806 1.434 . S
C806 C797 1.429 . S
C806 N803 1.350 . S
C806 C805 1.434 . S
C807 C808 1.369 . S
C807 C809 1.419 . S
C807 H811 0.930 . S
C808 C807 1.369 . S
C808 C817 1.429 . S
C809 C807 1.419 . S
C809 C810 1.363 . S
C809 H812 0.929 . S
C810 C809 1.363 . S
C810 C816 1.428 . S
H811 C807 0.930 . S
H812 C809 0.929 . S
S813 N814 1.613 . S
S813 N815 1.610 . S
N814 S813 1.613 . S
N814 C817 1.350 . S
N815 S813 1.610 . S
N815 C816 1.351 . S
C816 C810 1.428 . S
C816 N815 1.351 . S
C816 C817 1.434 . S
C817 C808 1.429 . S
C817 N814 1.350 . S
C817 C816 1.434 . S
C818 C819 1.369 . S
C818 C820 1.419 . S
C818 H822 0.930 . S
C819 C818 1.369 . S
C819 C828 1.429 . S
C820 C818 1.419 . S
C820 C821 1.363 . S
C820 H823 0.929 . S
C821 C820 1.363 . S
C821 C827 1.428 . S
H822 C818 0.930 . S
H823 C820 0.929 . S
S824 N825 1.613 . S
S824 N826 1.610 . S
N825 S824 1.613 . S
N825 C828 1.350 . S
N826 S824 1.610 . S
N826 C827 1.351 . S
C827 C821 1.428 . S
C827 N826 1.351 . S
C827 C828 1.434 . S
C828 C819 1.429 . S
C828 N825 1.350 . S
C828 C827 1.434 . S
C829 C830 1.369 . S
C829 C831 1.419 . S
C829 H833 0.930 . S
C830 C829 1.369 . S
C830 C839 1.429 . S
C831 C829 1.419 . S
C831 C832 1.363 . S
C831 H834 0.929 . S
C832 C831 1.363 . S
C832 C838 1.428 . S
H833 C829 0.930 . S
H834 C831 0.929 . S
S835 N836 1.613 . S
S835 N837 1.610 . S
N836 S835 1.613 . S
N836 C839 1.350 . S
N837 S835 1.610 . S
N837 C838 1.351 . S
C838 C832 1.428 . S
C838 N837 1.351 . S
C838 C839 1.434 . S
C839 C830 1.429 . S
C839 N836 1.350 . S
C839 C838 1.434 . S
C840 C841 1.369 . S
C840 C842 1.419 . S
C840 H844 0.930 . S
C841 C840 1.369 . S
C841 C850 1.429 . S
C842 C840 1.419 . S
C842 C843 1.363 . S
C842 H845 0.929 . S
C843 C842 1.363 . S
C843 C849 1.428 . S
H844 C840 0.930 . S
H845 C842 0.929 . S
S846 N847 1.613 . S
S846 N848 1.610 . S
N847 S846 1.613 . S
N847 C850 1.350 . S
N848 S846 1.610 . S
N848 C849 1.351 . S
C849 C843 1.428 . S
C849 N848 1.351 . S
C849 C850 1.434 . S
C850 C841 1.429 . S
C850 N847 1.350 . S
C850 C849 1.434 . S
C851 C852 1.369 . S
C851 C853 1.419 . S
C851 H855 0.930 . S
C852 C851 1.369 . S
C852 C861 1.429 . S
C853 C851 1.419 . S
C853 C854 1.363 . S
C853 H856 0.929 . S
C854 C853 1.363 . S
C854 C860 1.428 . S
H855 C851 0.930 . S
H856 C853 0.929 . S
S857 N858 1.613 . S
S857 N859 1.610 . S
N858 S857 1.613 . S
N858 C861 1.350 . S
N859 S857 1.610 . S
N859 C860 1.351 . S
C860 C854 1.428 . S
C860 N859 1.351 . S
C860 C861 1.434 . S
C861 C852 1.429 . S
C861 N858 1.350 . S
C861 C860 1.434 . S
C862 C863 1.369 . S
C862 C864 1.419 . S
C862 H866 0.930 . S
C863 C862 1.369 . S
C863 C872 1.429 . S
C864 C862 1.419 . S
C864 C865 1.363 . S
C864 H867 0.929 . S
C865 C864 1.363 . S
C865 C871 1.428 . S
H866 C862 0.930 . S
H867 C864 0.929 . S
S868 N869 1.613 . S
S868 N870 1.610 . S
N869 S868 1.613 . S
N869 C872 1.350 . S
N870 S868 1.610 . S
N870 C871 1.351 . S
C871 C865 1.428 . S
C871 N870 1.351 . S
C871 C872 1.434 . S
C872 C863 1.429 . S
C872 N869 1.350 . S
C872 C871 1.434 . S
C873 C874 1.369 . S
C873 C875 1.419 1_556 S
C873 H877 0.930 . S
C874 C873 1.369 . S
C874 C883 1.429 . S
C875 C873 1.419 1_554 S
C875 C876 1.363 . S
C875 H878 0.929 . S
C876 C875 1.363 . S
C876 C882 1.428 . S
H877 C873 0.930 . S
H878 C875 0.929 . S
S879 N880 1.578 1_554 S
S879 N881 1.645 . S
N880 S879 1.578 1_556 S
N880 C883 1.350 . S
N881 S879 1.645 . S
N881 C882 1.351 . S
C882 C876 1.428 . S
C882 N881 1.351 . S
C882 C883 1.434 1_554 S
C883 C874 1.429 . S
C883 N880 1.350 . S
C883 C882 1.434 1_556 S
C884 C885 1.369 . S
C884 C886 1.419 1_554 S
C884 H888 0.930 . S
C885 C884 1.369 . S
C885 C894 1.429 . S
C886 C884 1.419 1_556 S
C886 C887 1.363 . S
C886 H889 0.929 . S
C887 C886 1.363 . S
C887 C893 1.428 . S
H888 C884 0.930 . S
H889 C886 0.929 . S
S890 N891 1.613 . S
S890 N892 1.610 1_554 S
N891 S890 1.613 . S
N891 C894 1.350 . S
N892 S890 1.610 1_556 S
N892 C893 1.351 . S
C893 C887 1.428 . S
C893 N892 1.351 . S
C893 C894 1.434 1_556 S
C894 C885 1.429 . S
C894 N891 1.350 . S
C894 C893 1.434 1_554 S
C895 C896 1.369 . S
C895 C897 1.419 . S
C895 H899 0.930 . S
C896 C895 1.369 . S
C896 C905 1.429 . S
C897 C895 1.419 . S
C897 C898 1.363 . S
C897 H900 0.929 . S
C898 C897 1.363 . S
C898 C904 1.428 . S
H899 C895 0.930 . S
H900 C897 0.929 . S
S901 N902 1.613 . S
S901 N903 1.610 . S
N902 S901 1.613 . S
N902 C905 1.350 . S
N903 S901 1.610 . S
N903 C904 1.351 . S
C904 C898 1.428 . S
C904 N903 1.351 . S
C904 C905 1.434 . S
C905 C896 1.429 . S
C905 N902 1.350 . S
C905 C904 1.434 . S
C906 C907 1.369 . S
C906 C908 1.419 . S
C906 H910 0.930 . S
C907 C906 1.369 . S
C907 C916 1.429 . S
C908 C906 1.419 . S
C908 C909 1.363 . S
C908 H911 0.929 . S
C909 C908 1.363 . S
C909 C915 1.428 . S
H910 C906 0.930 . S
H911 C908 0.929 . S
S912 N913 1.613 . S
S912 N914 1.610 . S
N913 S912 1.613 . S
N913 C916 1.350 . S
N914 S912 1.610 . S
N914 C915 1.351 . S
C915 C909 1.428 . S
C915 N914 1.351 . S
C915 C916 1.434 . S
C916 C907 1.429 . S
C916 N913 1.350 . S
C916 C915 1.434 . S
C917 C918 1.369 . S
C917 C919 1.419 . S
C917 H921 0.930 . S
C918 C917 1.369 . S
C918 C927 1.429 . S
C919 C917 1.419 . S
C919 C920 1.363 . S
C919 H922 0.929 . S
C920 C919 1.363 . S
C920 C926 1.428 . S
H921 C917 0.930 . S
H922 C919 0.929 . S
S923 N924 1.613 . S
S923 N925 1.610 . S
N924 S923 1.613 . S
N924 C927 1.350 . S
N925 S923 1.610 . S
N925 C926 1.351 . S
C926 C920 1.428 . S
C926 N925 1.351 . S
C926 C927 1.434 . S
C927 C918 1.429 . S
C927 N924 1.350 . S
C927 C926 1.434 . S
C577 C374 1.436 . S
C579 C14 1.438 . S
C588 C50 1.430 . S
C590 C410 1.430 . S
C599 C302 1.429 . S
C601 C86 1.430 . S
C610 C338 1.436 . S
C612 C122 1.438 . S
C621 C158 1.434 . S
C623 C518 1.430 . S
C632 C554 1.435 . S
C634 C194 1.430 . S
C643 C230 1.433 . S
C645 C446 1.437 . S
C654 C482 1.431 . S
C656 C266 1.429 . S
C665 C362 1.521 . S
C667 C2 1.525 . S
C676 C38 1.522 . S
C678 C398 1.523 . S
C687 C74 1.523 . S
C689 C290 1.524 . S
C698 C110 1.523 . S
C700 C326 1.522 . S
C709 C146 1.523 . S
C711 C506 1.523 . S
C720 C182 1.525 . S
C722 C542 1.521 . S
C731 C434 1.521 . S
C733 C218 1.523 . S
C742 C470 1.524 . S
C744 C254 1.523 . S
C753 C4 1.352 . S
C755 C220 1.354 . S
C764 C40 1.360 . S
C766 C256 1.358 . S
C775 C76 1.352 . S
C777 C148 1.354 . S
C786 C112 1.356 . S
C788 C184 1.358 . S
C797 C292 1.362 . S
C799 C508 1.361 . S
C808 C544 1.359 . S
C810 C328 1.357 . S
C819 C364 1.362 . S
C821 C436 1.360 . S
C830 C472 1.355 . S
C832 C400 1.354 . S
C841 C3 1.407 . S
C843 C543 1.412 . S
C852 C435 1.415 . S
C854 C39 1.409 . S
C863 C471 1.412 . S
C865 C75 1.408 . S
C874 C507 1.412 . S
C876 C111 1.408 . S
C885 C327 1.407 . S
C887 C147 1.414 . S
C896 C363 1.416 . S
C898 C183 1.409 . S
C907 C219 1.407 . S
C909 C399 1.414 . S
C918 C255 1.409 . S
C920 C291 1.415 . S
