# Generated by pormake.
# Topology wfj, (8)-cn, num edge types: 1
# Building blocks:
#     Node 0, Type 0, BuildingBlock: TAGTUT_clean_sbu_3, # of connection points: 8
#     Node 1, Type 0, BuildingBlock: TAGTUT_clean_sbu_3, # of connection points: 8
#     Node 2, Type 0, BuildingBlock: TAGTUT_clean_sbu_3, # of connection points: 8
#     Node 3, Type 0, BuildingBlock: TAGTUT_clean_sbu_3, # of connection points: 8
#     Node 4, Type 0, BuildingBlock: TAGTUT_clean_sbu_3, # of connection points: 8
#     Node 5, Type 0, BuildingBlock: TAGTUT_clean_sbu_3, # of connection points: 8
#     Node 6, Type 0, BuildingBlock: TAGTUT_clean_sbu_3, # of connection points: 8
#     Node 7, Type 0, BuildingBlock: TAGTUT_clean_sbu_3, # of connection points: 8
#     Node 8, Type 0, BuildingBlock: TAGTUT_clean_sbu_3, # of connection points: 8
#     Node 9, Type 0, BuildingBlock: TAGTUT_clean_sbu_3, # of connection points: 8
#     Node 10, Type 0, BuildingBlock: TAGTUT_clean_sbu_3, # of connection points: 8
#     Node 11, Type 0, BuildingBlock: TAGTUT_clean_sbu_3, # of connection points: 8
#     Node 12, Type 0, BuildingBlock: TAGTUT_clean_sbu_3, # of connection points: 8
#     Node 13, Type 0, BuildingBlock: TAGTUT_clean_sbu_3, # of connection points: 8
#     Node 14, Type 0, BuildingBlock: TAGTUT_clean_sbu_3, # of connection points: 8
#     Node 15, Type 0, BuildingBlock: TAGTUT_clean_sbu_3, # of connection points: 8
#     Edge 16, Type (0, 0), BuildingBlock: KIFKEQ_clean_linker_1, # of connection points: 2
#     Edge 17, Type (0, 0), BuildingBlock: KIFKEQ_clean_linker_1, # of connection points: 2
#     Edge 18, Type (0, 0), BuildingBlock: KIFKEQ_clean_linker_1, # of connection points: 2
#     Edge 19, Type (0, 0), BuildingBlock: KIFKEQ_clean_linker_1, # of connection points: 2
#     Edge 20, Type (0, 0), BuildingBlock: KIFKEQ_clean_linker_1, # of connection points: 2
#     Edge 21, Type (0, 0), BuildingBlock: KIFKEQ_clean_linker_1, # of connection points: 2
#     Edge 22, Type (0, 0), BuildingBlock: KIFKEQ_clean_linker_1, # of connection points: 2
#     Edge 23, Type (0, 0), BuildingBlock: KIFKEQ_clean_linker_1, # of connection points: 2
#     Edge 24, Type (0, 0), BuildingBlock: KIFKEQ_clean_linker_1, # of connection points: 2
#     Edge 25, Type (0, 0), BuildingBlock: KIFKEQ_clean_linker_1, # of connection points: 2
#     Edge 26, Type (0, 0), BuildingBlock: KIFKEQ_clean_linker_1, # of connection points: 2
#     Edge 27, Type (0, 0), BuildingBlock: KIFKEQ_clean_linker_1, # of connection points: 2
#     Edge 28, Type (0, 0), BuildingBlock: KIFKEQ_clean_linker_1, # of connection points: 2
#     Edge 29, Type (0, 0), BuildingBlock: KIFKEQ_clean_linker_1, # of connection points: 2
#     Edge 30, Type (0, 0), BuildingBlock: KIFKEQ_clean_linker_1, # of connection points: 2
#     Edge 31, Type (0, 0), BuildingBlock: KIFKEQ_clean_linker_1, # of connection points: 2
#     Edge 32, Type (0, 0), BuildingBlock: KIFKEQ_clean_linker_1, # of connection points: 2
#     Edge 33, Type (0, 0), BuildingBlock: KIFKEQ_clean_linker_1, # of connection points: 2
#     Edge 34, Type (0, 0), BuildingBlock: KIFKEQ_clean_linker_1, # of connection points: 2
#     Edge 35, Type (0, 0), BuildingBlock: KIFKEQ_clean_linker_1, # of connection points: 2
#     Edge 36, Type (0, 0), BuildingBlock: KIFKEQ_clean_linker_1, # of connection points: 2
#     Edge 37, Type (0, 0), BuildingBlock: KIFKEQ_clean_linker_1, # of connection points: 2
#     Edge 38, Type (0, 0), BuildingBlock: KIFKEQ_clean_linker_1, # of connection points: 2
#     Edge 39, Type (0, 0), BuildingBlock: KIFKEQ_clean_linker_1, # of connection points: 2
#     Edge 40, Type (0, 0), BuildingBlock: KIFKEQ_clean_linker_1, # of connection points: 2
#     Edge 41, Type (0, 0), BuildingBlock: KIFKEQ_clean_linker_1, # of connection points: 2
#     Edge 42, Type (0, 0), BuildingBlock: KIFKEQ_clean_linker_1, # of connection points: 2
#     Edge 43, Type (0, 0), BuildingBlock: KIFKEQ_clean_linker_1, # of connection points: 2
#     Edge 44, Type (0, 0), BuildingBlock: KIFKEQ_clean_linker_1, # of connection points: 2
#     Edge 45, Type (0, 0), BuildingBlock: KIFKEQ_clean_linker_1, # of connection points: 2
#     Edge 46, Type (0, 0), BuildingBlock: KIFKEQ_clean_linker_1, # of connection points: 2
#     Edge 47, Type (0, 0), BuildingBlock: KIFKEQ_clean_linker_1, # of connection points: 2
#     Edge 48, Type (0, 0), BuildingBlock: KIFKEQ_clean_linker_1, # of connection points: 2
#     Edge 49, Type (0, 0), BuildingBlock: KIFKEQ_clean_linker_1, # of connection points: 2
#     Edge 50, Type (0, 0), BuildingBlock: KIFKEQ_clean_linker_1, # of connection points: 2
#     Edge 51, Type (0, 0), BuildingBlock: KIFKEQ_clean_linker_1, # of connection points: 2
#     Edge 52, Type (0, 0), BuildingBlock: KIFKEQ_clean_linker_1, # of connection points: 2
#     Edge 53, Type (0, 0), BuildingBlock: KIFKEQ_clean_linker_1, # of connection points: 2
#     Edge 54, Type (0, 0), BuildingBlock: KIFKEQ_clean_linker_1, # of connection points: 2
#     Edge 55, Type (0, 0), BuildingBlock: KIFKEQ_clean_linker_1, # of connection points: 2
#     Edge 56, Type (0, 0), BuildingBlock: KIFKEQ_clean_linker_1, # of connection points: 2
#     Edge 57, Type (0, 0), BuildingBlock: KIFKEQ_clean_linker_1, # of connection points: 2
#     Edge 58, Type (0, 0), BuildingBlock: KIFKEQ_clean_linker_1, # of connection points: 2
#     Edge 59, Type (0, 0), BuildingBlock: KIFKEQ_clean_linker_1, # of connection points: 2
#     Edge 60, Type (0, 0), BuildingBlock: KIFKEQ_clean_linker_1, # of connection points: 2
#     Edge 61, Type (0, 0), BuildingBlock: KIFKEQ_clean_linker_1, # of connection points: 2
#     Edge 62, Type (0, 0), BuildingBlock: KIFKEQ_clean_linker_1, # of connection points: 2
#     Edge 63, Type (0, 0), BuildingBlock: KIFKEQ_clean_linker_1, # of connection points: 2
#     Edge 64, Type (0, 0), BuildingBlock: KIFKEQ_clean_linker_1, # of connection points: 2
#     Edge 65, Type (0, 0), BuildingBlock: KIFKEQ_clean_linker_1, # of connection points: 2
#     Edge 66, Type (0, 0), BuildingBlock: KIFKEQ_clean_linker_1, # of connection points: 2
#     Edge 67, Type (0, 0), BuildingBlock: KIFKEQ_clean_linker_1, # of connection points: 2
#     Edge 68, Type (0, 0), BuildingBlock: KIFKEQ_clean_linker_1, # of connection points: 2
#     Edge 69, Type (0, 0), BuildingBlock: KIFKEQ_clean_linker_1, # of connection points: 2
#     Edge 70, Type (0, 0), BuildingBlock: KIFKEQ_clean_linker_1, # of connection points: 2
#     Edge 71, Type (0, 0), BuildingBlock: KIFKEQ_clean_linker_1, # of connection points: 2
#     Edge 72, Type (0, 0), BuildingBlock: KIFKEQ_clean_linker_1, # of connection points: 2
#     Edge 73, Type (0, 0), BuildingBlock: KIFKEQ_clean_linker_1, # of connection points: 2
#     Edge 74, Type (0, 0), BuildingBlock: KIFKEQ_clean_linker_1, # of connection points: 2
#     Edge 75, Type (0, 0), BuildingBlock: KIFKEQ_clean_linker_1, # of connection points: 2
#     Edge 76, Type (0, 0), BuildingBlock: KIFKEQ_clean_linker_1, # of connection points: 2
#     Edge 77, Type (0, 0), BuildingBlock: KIFKEQ_clean_linker_1, # of connection points: 2
#     Edge 78, Type (0, 0), BuildingBlock: KIFKEQ_clean_linker_1, # of connection points: 2
#     Edge 79, Type (0, 0), BuildingBlock: KIFKEQ_clean_linker_1, # of connection points: 2
# Relax obj value: 0.275
# Max RMSD: 0.263
# Mean RMSD: 0.259
data_MOF--net-wfj--node1-TAGTUT_clean_sbu_3--edge1-KIFKEQ_clean_linker_1
_symmetry_space_group_name_H-M    P1
_symmetry_Int_Tables_number       1
_symmetry_cell_setting            triclinic
loop_
_symmetry_equiv_pos_as_xyz
'x, y, z'
_cell_length_a     64.152336
_cell_length_b     64.610429
_cell_length_c     16.065399
_cell_angle_alpha  89.593312
_cell_angle_beta   90.029231
_cell_angle_gamma 89.887437
loop_
_atom_site_label
_atom_site_type_symbol
_atom_site_fract_x
_atom_site_fract_y
_atom_site_fract_z
_atom_type_partial_charge
C0 C 0.16295 0.33014 0.32433 0.0
C1 C 0.22643 0.30113 0.47152 0.0
C2 C 0.19316 0.286 0.64824 0.0
Mg3 Mg 0.12973 0.35667 0.42747 0.0
Mg4 Mg 0.14194 0.38381 0.59201 0.0
O5 O 0.14329 0.35837 0.53941 0.0
Mg6 Mg 0.16969 0.34263 0.51917 0.0
O7 O 0.19438 0.32311 0.49074 0.0
Mg8 Mg 0.17629 0.29464 0.46065 0.0
Mg9 Mg 0.21156 0.32374 0.59307 0.0
C10 C 0.1708 0.35849 0.71574 0.0
O11 O 0.19161 0.37115 0.5194 0.0
O12 O 0.09909 0.36866 0.49071 0.0
O13 O 0.21442 0.35648 0.60881 0.0
O14 O 0.14056 0.39082 0.39022 0.0
O15 O 0.10859 0.38514 0.60726 0.0
O16 O 0.15372 0.40546 0.50439 0.0
O17 O 0.15141 0.31423 0.52457 0.0
O18 O 0.12071 0.32275 0.46919 0.0
C19 C 0.13261 0.30985 0.50759 0.0
C20 C 0.09451 0.37791 0.55901 0.0
O21 O 0.17438 0.34386 0.66334 0.0
O22 O 0.20863 0.31023 0.46205 0.0
O23 O 0.16077 0.37504 0.6965 0.0
O24 O 0.18585 0.27774 0.58255 0.0
O25 O 0.23696 0.30643 0.53507 0.0
O26 O 0.1898 0.30508 0.6596 0.0
O27 O 0.16176 0.34399 0.38058 0.0
O28 O 0.16796 0.31143 0.34117 0.0
C29 C 0.15022 0.4057 0.42638 0.0
C30 C 0.20705 0.37228 0.57024 0.0
C31 C 0.37706 0.43342 0.79835 0.0
C32 C 0.34293 0.3699 0.74593 0.0
C33 C 0.39832 0.3371 0.85604 0.0
Mg34 Mg 0.42 0.45013 0.78636 0.0
Mg35 Mg 0.46015 0.42855 0.70083 0.0
O36 O 0.43943 0.42586 0.78108 0.0
Mg37 Mg 0.41743 0.40395 0.76619 0.0
O38 O 0.39348 0.38478 0.75894 0.0
Mg39 Mg 0.38064 0.38703 0.87241 0.0
Mg40 Mg 0.3889 0.36155 0.694 0.0
C41 C 0.46449 0.38179 0.75814 0.0
O42 O 0.42 0.40195 0.62295 0.0
O43 O 0.44784 0.47015 0.81364 0.0
O44 O 0.40576 0.37156 0.58341 0.0
O45 O 0.42452 0.45959 0.64576 0.0
O46 O 0.47508 0.45676 0.74432 0.0
O47 O 0.4453 0.43612 0.58782 0.0
O48 O 0.41218 0.40379 0.90584 0.0
O49 O 0.41668 0.43801 0.92373 0.0
C50 C 0.41348 0.41964 0.95327 0.0
C51 C 0.46676 0.47094 0.78899 0.0
O52 O 0.44516 0.38041 0.78024 0.0
O53 O 0.34932 0.37548 0.8181 0.0
O54 O 0.47208 0.39774 0.7208 0.0
O55 O 0.39237 0.35288 0.89844 0.0
O56 O 0.35548 0.36412 0.68863 0.0
O57 O 0.39886 0.33741 0.77644 0.0
O58 O 0.39336 0.42937 0.75646 0.0
O59 O 0.3689 0.41974 0.84554 0.0
C60 C 0.4336 0.45198 0.58167 0.0
C61 C 0.4154 0.38851 0.56722 0.0
C62 C 0.31634 0.61836 0.97816 0.0
C63 C 0.38604 0.58394 0.9443 0.0
C64 C 0.41398 0.64109 0.04611 0.0
Mg65 Mg 0.30068 0.66299 0.97285 0.0
Mg66 Mg 0.32442 0.7027 0.89027 0.0
O67 O 0.32643 0.68033 0.9627 0.0
Mg68 Mg 0.34748 0.6576 0.94653 0.0
O69 O 0.36612 0.63279 0.94023 0.0
Mg70 Mg 0.36379 0.62175 0.05663 0.0
Mg71 Mg 0.39122 0.62948 0.88364 0.0
C72 C 0.37219 0.70313 0.93948 0.0
O73 O 0.35029 0.65991 0.80272 0.0
O74 O 0.2833 0.69158 0.00907 0.0
O75 O 0.38092 0.64456 0.76938 0.0
O76 O 0.28959 0.67106 0.83478 0.0
O77 O 0.29828 0.71903 0.94681 0.0
O78 O 0.31426 0.69059 0.77661 0.0
O79 O 0.34724 0.65298 0.08541 0.0
O80 O 0.31308 0.65763 0.1085 0.0
C81 C 0.33174 0.65432 0.13506 0.0
C82 C 0.28399 0.7109 -0.00778 0.0
O83 O 0.37259 0.68376 0.96017 0.0
O84 O 0.37715 0.59078 0.01011 0.0
O85 O 0.35635 0.71191 0.90523 0.0
O86 O 0.39813 0.6341 0.08682 0.0
O87 O 0.39252 0.596 0.88626 0.0
O88 O 0.41398 0.64207 0.96661 0.0
O89 O 0.32014 0.63511 0.93828 0.0
O90 O 0.33042 0.61003 0.02429 0.0
C91 C 0.29699 0.68105 0.77186 0.0
C92 C 0.36415 0.65433 0.7492 0.0
C93 C 0.09221 0.58968 0.06596 0.0
C94 C 0.06856 0.52408 0.19945 0.0
C95 C 0.04807 0.55668 0.39832 0.0
Mg96 Mg 0.11699 0.62401 0.17482 0.0
Mg97 Mg 0.14364 0.61274 0.34384 0.0
O98 O 0.11929 0.60925 0.28379 0.0
Mg99 Mg 0.10461 0.58256 0.26116 0.0
O100 O 0.08654 0.5577 0.23258 0.0
Mg101 Mg 0.0576 0.57329 0.20066 0.0
Mg102 Mg 0.08858 0.5383 0.32808 0.0
C103 C 0.11942 0.58088 0.45911 0.0
O104 O 0.13382 0.56062 0.25828 0.0
O105 O 0.12657 0.65471 0.24309 0.0
O106 O 0.12153 0.53728 0.35066 0.0
O107 O 0.15264 0.61635 0.14231 0.0
O108 O 0.14152 0.64553 0.3642 0.0
O109 O 0.1681 0.60581 0.25996 0.0
O110 O 0.0748 0.59973 0.26376 0.0
O111 O 0.08211 0.63092 0.21275 0.0
C112 C 0.06928 0.61816 0.24634 0.0
C113 C 0.13438 0.65938 0.31439 0.0
O114 O 0.1052 0.57696 0.40462 0.0
O115 O 0.07585 0.54265 0.19743 0.0
O116 O 0.13552 0.592 0.44338 0.0
O117 O 0.04326 0.56359 0.32592 0.0
O118 O 0.07489 0.51268 0.25937 0.0
O119 O 0.06619 0.54956 0.41554 0.0
O120 O 0.10609 0.59155 0.12285 0.0
O121 O 0.07379 0.58317 0.08165 0.0
C122 C 0.16874 0.60946 0.18192 0.0
C123 C 0.13628 0.54461 0.30577 0.0
C124 C 0.88202 0.6882 0.49716 0.0
C125 C 0.91834 0.62182 0.42894 0.0
C126 C 0.86387 0.59103 0.5576 0.0
Mg127 Mg 0.83742 0.70244 0.52637 0.0
Mg128 Mg 0.79372 0.67993 0.47591 0.0
O129 O 0.82043 0.67642 0.51527 0.0
Mg130 Mg 0.84264 0.65613 0.48241 0.0
O131 O 0.86802 0.63923 0.45908 0.0
Mg132 Mg 0.88301 0.64052 0.56872 0.0
Mg133 Mg 0.87084 0.61561 0.39529 0.0
C134 C 0.79653 0.6307 0.48033 0.0
O135 O 0.83623 0.65592 0.34013 0.0
O136 O 0.81026 0.71816 0.59444 0.0
O137 O 0.85062 0.62586 0.29581 0.0
O138 O 0.82507 0.71573 0.40098 0.0
O139 O 0.7817 0.69876 0.57585 0.0
O140 O 0.79727 0.69716 0.3638 0.0
O141 O 0.85169 0.65426 0.62186 0.0
O142 O 0.84726 0.688 0.64821 0.0
C143 C 0.85103 0.66949 0.67286 0.0
C144 C 0.79127 0.71374 0.61087 0.0
O145 O 0.81659 0.62947 0.49038 0.0
O146 O 0.91367 0.62901 0.50116 0.0
O147 O 0.78666 0.6478 0.47074 0.0
O148 O 0.87169 0.60625 0.59833 0.0
O149 O 0.90425 0.61622 0.37729 0.0
O150 O 0.86157 0.59177 0.47874 0.0
O151 O 0.86387 0.68407 0.4698 0.0
O152 O 0.89268 0.67452 0.53673 0.0
C153 C 0.8102 0.71175 0.35019 0.0
C154 C 0.83978 0.64233 0.28338 0.0
C155 C 0.5615 0.63196 0.23804 0.0
C156 C 0.62988 0.66585 0.20161 0.0
C157 C 0.65773 0.60891 0.31732 0.0
Mg158 Mg 0.54534 0.58801 0.24948 0.0
Mg159 Mg 0.56799 0.54654 0.17975 0.0
O160 O 0.57064 0.56951 0.24657 0.0
Mg161 Mg 0.5923 0.59167 0.22393 0.0
O162 O 0.61067 0.61641 0.21159 0.0
Mg163 Mg 0.6078 0.62936 0.3243 0.0
Mg164 Mg 0.63533 0.61954 0.15249 0.0
C165 C 0.61613 0.54541 0.22783 0.0
O166 O 0.5948 0.58823 0.08015 0.0
O167 O 0.52563 0.56005 0.28808 0.0
O168 O 0.62526 0.60327 0.04222 0.0
O169 O 0.53653 0.58142 0.11051 0.0
O170 O 0.54064 0.5318 0.23366 0.0
O171 O 0.55993 0.5588 0.06278 0.0
O172 O 0.59156 0.59816 0.36182 0.0
O173 O 0.55727 0.59368 0.38498 0.0
C174 C 0.57592 0.59714 0.41126 0.0
C175 C 0.5259 0.54057 0.27423 0.0
O176 O 0.61768 0.56516 0.2395 0.0
O177 O 0.62157 0.65996 0.2705 0.0
O178 O 0.59939 0.53658 0.20262 0.0
O179 O 0.64206 0.61663 0.35702 0.0
O180 O 0.63578 0.65297 0.14612 0.0
O181 O 0.65786 0.60754 0.23801 0.0
O182 O 0.56596 0.6142 0.20987 0.0
O183 O 0.57429 0.6415 0.28557 0.0
C184 C 0.54471 0.57113 0.05072 0.0
C185 C 0.60847 0.59338 0.02494 0.0
C186 C 0.6402 0.31373 0.06073 0.0
C187 C 0.60117 0.37942 0.01398 0.0
C188 C 0.65746 0.41022 0.12428 0.0
Mg189 Mg 0.68495 0.29843 0.07479 0.0
Mg190 Mg 0.72147 0.33005 0.95697 0.0
O191 O 0.70282 0.32649 0.053 0.0
Mg192 Mg 0.67771 0.34624 0.03499 0.0
O193 O 0.65124 0.36224 0.02318 0.0
Mg194 Mg 0.63939 0.36008 0.1376 0.0
Mg195 Mg 0.64747 0.38679 0.96466 0.0
C196 C 0.71709 0.37727 -0.00384 0.0
O197 O 0.6799 0.34813 0.89131 0.0
O198 O 0.71793 0.31057 0.07475 0.0
O199 O 0.66421 0.37824 0.85449 0.0
O200 O 0.68962 0.28825 0.9364 0.0
O201 O 0.74622 0.30973 0.00154 0.0
O202 O 0.70565 0.31347 0.86332 0.0
O203 O 0.67222 0.34613 0.17383 0.0
O204 O 0.67942 0.31274 0.20442 0.0
C205 C 0.6745 0.33125 0.2262 0.0
C206 C 0.73463 0.30083 0.05506 0.0
O207 O 0.70033 0.3745 0.03866 0.0
O208 O 0.60726 0.37121 0.083 0.0
O209 O 0.72552 0.36295 0.95301 0.0
O210 O 0.65032 0.39471 0.16633 0.0
O211 O 0.61408 0.38643 0.96006 0.0
O212 O 0.65884 0.40974 0.04522 0.0
O213 O 0.65815 0.31838 0.03281 0.0
O214 O 0.62949 0.32659 0.10334 0.0
C215 C 0.69587 0.29629 0.86733 0.0
C216 C 0.67451 0.36184 0.83673 0.0
C217 C 0.92816 0.41377 0.97002 0.0
C218 C 0.95206 0.47835 0.81973 0.0
C219 C 0.96643 0.44619 0.63483 0.0
Mg220 Mg 0.90239 0.37957 0.86845 0.0
Mg221 Mg 0.8719 0.39134 0.71067 0.0
O222 O 0.89814 0.39347 0.75776 0.0
Mg223 Mg 0.91284 0.42039 0.77655 0.0
O224 O 0.93142 0.44556 0.80273 0.0
Mg225 Mg 0.96111 0.42889 0.82686 0.0
Mg226 Mg 0.92793 0.46353 0.70313 0.0
C227 C 0.89476 0.42034 0.58019 0.0
O228 O 0.88352 0.44136 0.78838 0.0
O229 O 0.89081 0.34873 0.80742 0.0
O230 O 0.89445 0.46545 0.69647 0.0
O231 O 0.86841 0.38895 0.91341 0.0
O232 O 0.87101 0.35812 0.69834 0.0
O233 O 0.85188 0.40292 0.80379 0.0
O234 O 0.94211 0.40352 0.76373 0.0
O235 O 0.93609 0.37227 0.81767 0.0
C236 C 0.94774 0.38493 0.77706 0.0
C237 C 0.87993 0.34416 0.74286 0.0
O238 O 0.90933 0.42543 0.63172 0.0
O239 O 0.94408 0.46015 0.82878 0.0
O240 O 0.87887 0.40958 0.60209 0.0
O241 O 0.97498 0.43991 0.70232 0.0
O242 O 0.94477 0.48922 0.75996 0.0
O243 O 0.94687 0.44445 0.62537 0.0
O244 O 0.91402 0.41172 0.91461 0.0
O245 O 0.94655 0.41969 0.95096 0.0
C246 C 0.85294 0.3989 0.88139 0.0
C247 C 0.88033 0.45755 0.74306 0.0
C248 C 0.66326 0.83639 0.93619 0.0
C249 C 0.72074 0.7913 0.06705 0.0
C250 C 0.68953 0.79645 0.27525 0.0
Mg251 Mg 0.62807 0.86512 0.01236 0.0
Mg252 Mg 0.63291 0.89219 0.18553 0.0
O253 O 0.63702 0.86703 0.13224 0.0
Mg254 Mg 0.66339 0.85043 0.12799 0.0
O255 O 0.68794 0.83081 0.111 0.0
Mg256 Mg 0.67104 0.80419 0.09187 0.0
Mg257 Mg 0.70973 0.82823 0.18659 0.0
C258 C 0.65778 0.86617 0.32299 0.0
O259 O 0.68718 0.87772 0.13399 0.0
O260 O 0.59594 0.87729 0.05337 0.0
O261 O 0.71511 0.86092 0.18955 0.0
O262 O 0.64069 0.89888 0.98549 0.0
O263 O 0.59916 0.89268 0.17748 0.0
O264 O 0.64767 0.91445 0.1062 0.0
O265 O 0.64252 0.82244 0.1275 0.0
O266 O 0.61677 0.83143 0.04171 0.0
C267 C 0.6256 0.81824 0.09018 0.0
C268 C 0.58792 0.88575 0.1179 0.0
O269 O 0.66408 0.85219 0.27188 0.0
O270 O 0.70118 0.78887 0.05592 0.0
O271 O 0.64751 0.88234 0.3002 0.0
O272 O 0.67576 0.78989 0.22476 0.0
O273 O 0.72811 0.80581 0.11279 0.0
O274 O 0.6909 0.81582 0.28305 0.0
O275 O 0.66054 0.85106 0.98795 0.0
O276 O 0.6674 0.81792 0.96058 0.0
C277 C 0.64795 0.91423 0.02682 0.0
C278 C 0.70567 0.87744 0.16557 0.0
C279 C 0.88739 0.93663 0.36026 0.0
C280 C 0.84144 0.87761 0.32315 0.0
C281 C 0.89577 0.83851 0.41547 0.0
Mg282 Mg 0.93352 0.94672 0.35018 0.0
Mg283 Mg 0.9652 0.9099 0.23043 0.0
O284 O 0.9479 0.91704 0.3281 0.0
Mg285 Mg 0.92072 0.9005 0.32003 0.0
O286 O 0.89289 0.8871 0.31776 0.0
Mg287 Mg 0.88361 0.88997 0.43574 0.0
Mg288 Mg 0.88482 0.86391 0.25892 0.0
C289 C 0.95653 0.86519 0.28531 0.0
O290 O 0.92128 0.89801 0.17551 0.0
O291 O 0.96479 0.93105 0.34164 0.0
O292 O 0.90024 0.87116 0.14404 0.0
O293 O 0.93821 0.9558 0.20924 0.0
O294 O 0.99336 0.92564 0.27388 0.0
O295 O 0.9521 0.92947 0.13662 0.0
O296 O 0.91778 0.90128 0.46018 0.0
O297 O 0.92887 0.9337 0.48412 0.0
C298 C 0.92244 0.91593 0.5103 0.0
C299 C 0.98295 0.9376 0.32097 0.0
O300 O 0.94064 0.8708 0.32813 0.0
O301 O 0.84958 0.88269 0.39311 0.0
O302 O 0.96364 0.87653 0.22625 0.0
O303 O 0.89151 0.85439 0.46042 0.0
O304 O 0.85217 0.87025 0.26321 0.0
O305 O 0.89488 0.83913 0.3362 0.0
O306 O 0.90341 0.93045 0.31986 0.0
O307 O 0.87698 0.92415 0.40635 0.0
C308 C 0.94405 0.94756 0.14035 0.0
C309 C 0.9129 0.88558 0.12296 0.0
C310 C 0.81241 0.12064 0.52781 0.0
C311 C 0.8835 0.08976 0.48166 0.0
C312 C 0.90976 0.14686 0.58394 0.0
Mg313 Mg 0.79404 0.16338 0.51674 0.0
Mg314 Mg 0.8146 0.20372 0.42746 0.0
O315 O 0.81836 0.18278 0.50572 0.0
Mg316 Mg 0.84101 0.16147 0.48986 0.0
O317 O 0.86117 0.13788 0.48402 0.0
Mg318 Mg 0.86015 0.12604 0.59962 0.0
Mg319 Mg 0.88587 0.13578 0.42517 0.0
C320 C 0.86211 0.20877 0.4791 0.0
O321 O 0.84345 0.16408 0.34474 0.0
O322 O 0.77426 0.19063 0.54965 0.0
O323 O 0.87497 0.15039 0.31278 0.0
O324 O 0.78211 0.16947 0.37892 0.0
O325 O 0.78659 0.21812 0.47888 0.0
O326 O 0.80628 0.1886 0.31632 0.0
O327 O 0.84168 0.1566 0.62948 0.0
O328 O 0.80728 0.15987 0.65188 0.0
C329 C 0.82604 0.15738 0.67899 0.0
C330 C 0.77307 0.20956 0.52686 0.0
O331 O 0.86412 0.18957 0.50114 0.0
O332 O 0.87494 0.09549 0.55002 0.0
O333 O 0.8456 0.21603 0.44403 0.0
O334 O 0.89441 0.13934 0.62624 0.0
O335 O 0.88847 0.10266 0.42426 0.0
O336 O 0.90894 0.14849 0.50477 0.0
O337 O 0.81535 0.13698 0.48414 0.0
O338 O 0.82715 0.11309 0.57259 0.0
C339 C 0.78918 0.17871 0.31376 0.0
C340 C 0.8578 0.15924 0.29202 0.0
C341 C 0.58775 0.09877 0.65221 0.0
C342 C 0.54712 0.03637 0.71183 0.0
C343 C 0.55322 0.05217 0.97501 0.0
Mg344 Mg 0.61508 0.13107 0.75895 0.0
Mg345 Mg 0.64433 0.11756 0.92278 0.0
O346 O 0.61921 0.11526 0.86626 0.0
Mg347 Mg 0.60371 0.08935 0.84111 0.0
O348 O 0.58466 0.06633 0.80542 0.0
Mg349 Mg 0.55737 0.08165 0.80203 0.0
Mg350 Mg 0.58349 0.03897 0.83715 0.0
C351 C 0.61916 0.08639 0.04013 0.0
O352 O 0.63226 0.06612 0.82641 0.0
O353 O 0.62631 0.16059 0.82701 0.0
O354 O 0.61648 0.03469 0.83508 0.0
O355 O 0.65004 0.12315 0.71965 0.0
O356 O 0.64331 0.1507 0.94303 0.0
O357 O 0.66695 0.10977 0.82991 0.0
O358 O 0.57459 0.10781 0.86266 0.0
O359 O 0.58035 0.13831 0.80338 0.0
C360 C 0.56854 0.126 0.84501 0.0
C361 C 0.63562 0.16481 0.89558 0.0
O362 O 0.60556 0.08211 0.98353 0.0
O363 O 0.54269 0.05495 0.73199 0.0
O364 O 0.63549 0.09737 0.02584 0.0
O365 O 0.5469 0.06715 0.92851 0.0
O366 O 0.56289 0.02675 0.74221 0.0
O367 O 0.56831 0.04048 0.9536 0.0
O368 O 0.6032 0.0998 0.70288 0.0
O369 O 0.56951 0.09373 0.67758 0.0
C370 C 0.66633 0.11479 0.75284 0.0
C371 C 0.63276 0.04608 0.82893 0.0
C372 C 0.37355 0.19203 0.02924 0.0
C373 C 0.41465 0.12659 0.98606 0.0
C374 C 0.35661 0.09583 0.09382 0.0
Mg375 Mg 0.32819 0.20658 0.05401 0.0
Mg376 Mg 0.29171 0.17603 0.92671 0.0
O377 O 0.31183 0.17839 0.01965 0.0
Mg378 Mg 0.33644 0.15892 0.00212 0.0
O379 O 0.36341 0.14322 0.99123 0.0
Mg380 Mg 0.37508 0.1452 0.10645 0.0
Mg381 Mg 0.36843 0.11902 0.93351 0.0
C382 C 0.29748 0.12877 0.94715 0.0
O383 O 0.33402 0.15778 0.85872 0.0
O384 O 0.29685 0.18995 0.05247 0.0
O385 O 0.35086 0.12812 0.82572 0.0
O386 O 0.32054 0.2205 0.92475 0.0
O387 O 0.2657 0.18769 0.00196 0.0
O388 O 0.30256 0.19921 0.84101 0.0
O389 O 0.34199 0.15798 0.14235 0.0
O390 O 0.33499 0.19084 0.17727 0.0
C391 C 0.33985 0.17221 0.19674 0.0
C392 C 0.27755 0.19539 0.05729 0.0
O393 O 0.31264 0.13071 -0.00037 0.0
O394 O 0.40774 0.13433 0.05438 0.0
O395 O 0.29158 0.14363 0.89978 0.0
O396 O 0.36413 0.11091 0.13606 0.0
O397 O 0.40224 0.11991 0.92983 0.0
O398 O 0.35597 0.09616 0.01453 0.0
O399 O 0.35543 0.18747 0.00245 0.0
O400 O 0.38438 0.17897 0.07142 0.0
C401 C 0.31223 0.21617 0.85438 0.0
C402 C 0.33958 0.14384 0.80617 0.0
C403 C 0.07533 0.09245 0.8937 0.0
C404 C 0.02582 0.03474 0.77394 0.0
C405 C 0.04042 0.06152 0.54098 0.0
Mg406 Mg 0.10652 0.12413 0.80256 0.0
Mg407 Mg 0.13421 0.11328 0.63314 0.0
O408 O 0.10928 0.11055 0.69095 0.0
Mg409 Mg 0.09088 0.0858 0.70554 0.0
O410 O 0.06938 0.06376 0.73105 0.0
Mg411 Mg 0.04382 0.08184 0.73587 0.0
Mg412 Mg 0.06629 0.04016 0.6681 0.0
C413 C 0.10724 0.08631 0.50741 0.0
O414 O 0.11638 0.0592 0.72218 0.0
O415 O 0.1196 0.15446 0.74422 0.0
O416 O 0.09784 0.03053 0.68814 0.0
O417 O 0.14092 0.11239 0.83694 0.0
O418 O 0.13478 0.14675 0.62257 0.0
O419 O 0.15691 0.10205 0.72026 0.0
O420 O 0.06385 0.10817 0.6899 0.0
O421 O 0.07293 0.13539 0.76516 0.0
C422 C 0.0597 0.12594 0.71935 0.0
C423 C 0.12823 0.16 0.67549 0.0
O424 O 0.09331 0.08151 0.56213 0.0
O425 O 0.02545 0.05434 0.7839 0.0
O426 O 0.12401 0.09622 0.52507 0.0
O427 O 0.03288 0.0723 0.60087 0.0
O428 O 0.03988 0.02564 0.7308 0.0
O429 O 0.05711 0.05108 0.54995 0.0
O430 O 0.09073 0.09303 0.84313 0.0
O431 O 0.05659 0.08904 0.8687 0.0
C432 C 0.15673 0.10443 0.79916 0.0
C433 C 0.11472 0.0394 0.71158 0.0
C434 C 0.14192 0.80616 0.51894 0.0
C435 C 0.0962 0.86745 0.49324 0.0
C436 C 0.15067 0.9026 0.59813 0.0
Mg437 Mg 0.18783 0.79506 0.54001 0.0
Mg438 Mg 0.22185 0.83129 0.42953 0.0
O439 O 0.20292 0.82496 0.52232 0.0
Mg440 Mg 0.17603 0.84217 0.50477 0.0
O441 O 0.148 0.85532 0.49426 0.0
Mg442 Mg 0.13697 0.85106 0.60912 0.0
Mg443 Mg 0.14098 0.87925 0.43657 0.0
C444 C 0.21197 0.87745 0.47539 0.0
O445 O 0.17809 0.84519 0.36085 0.0
O446 O 0.2192 0.81072 0.5442 0.0
O447 O 0.15783 0.87247 0.32402 0.0
O448 O 0.19455 0.7867 0.40117 0.0
O449 O 0.24813 0.81316 0.47557 0.0
O450 O 0.20849 0.81386 0.33225 0.0
O451 O 0.17066 0.84014 0.64324 0.0
O452 O 0.18046 0.8074 0.67185 0.0
C453 C 0.17412 0.82536 0.69494 0.0
C454 C 0.23694 0.80276 0.52605 0.0
O455 O 0.19517 0.87262 0.5143 0.0
O456 O 0.10384 0.85982 0.56067 0.0
O457 O 0.22237 0.86446 0.43219 0.0
O458 O 0.14534 0.88645 0.64089 0.0
O459 O 0.10773 0.87552 0.43676 0.0
O460 O 0.15086 0.90251 0.51876 0.0
O461 O 0.15962 0.81289 0.49608 0.0
O462 O 0.13001 0.81696 0.566 0.0
C463 C 0.20053 0.79574 0.33369 0.0
C464 C 0.17045 0.85774 0.30603 0.0
C465 C 0.41734 0.91048 0.38298 0.0
C466 C 0.46218 0.96902 0.26589 0.0
C467 C 0.45708 0.94193 0.04769 0.0
Mg468 Mg 0.38869 0.87639 0.29827 0.0
Mg469 Mg 0.36095 0.88397 0.12611 0.0
O470 O 0.38569 0.88817 0.18242 0.0
Mg471 Mg 0.40227 0.91418 0.192 0.0
O472 O 0.42237 0.93777 0.21259 0.0
Mg473 Mg 0.44868 0.92026 0.22707 0.0
Mg474 Mg 0.42481 0.9612 0.14488 0.0
C475 C 0.38603 0.91155 -0.00492 0.0
O476 O 0.37538 0.9388 0.19894 0.0
O477 O 0.37715 0.84459 0.24808 0.0
O478 O 0.39183 0.96755 0.14995 0.0
O479 O 0.35481 0.88856 0.32955 0.0
O480 O 0.36198 0.85067 0.12446 0.0
O481 O 0.33864 0.89611 0.20958 0.0
O482 O 0.42977 0.89315 0.18424 0.0
O483 O 0.42241 0.86585 0.26351 0.0
C484 C 0.43473 0.87568 0.21474 0.0
C485 C 0.36916 0.83816 0.17967 0.0
O486 O 0.39995 0.91737 0.04791 0.0
O487 O 0.46479 0.94941 0.27079 0.0
O488 O 0.37009 0.90067 0.0156 0.0
O489 O 0.46123 0.92631 0.09384 0.0
O490 O 0.44752 0.97736 0.22262 0.0
O491 O 0.43809 0.94701 0.03847 0.0
O492 O 0.40244 0.90847 0.33102 0.0
O493 O 0.43589 0.9147 0.35897 0.0
C494 C 0.33912 0.89585 0.28895 0.0
C495 C 0.37549 0.95798 0.17555 0.0
H496 H 0.1162 0.27879 0.41089 0.0
H497 H 0.13559 0.2937 0.6603 0.0
H498 H 0.11361 0.24203 0.45146 0.0
H499 H 0.13337 0.2575 0.70057 0.0
H500 H 0.11379 0.19257 0.76734 0.0
H501 H 0.11056 0.22862 0.72495 0.0
H502 H 0.13899 0.21446 0.48848 0.0
H503 H 0.14187 0.17815 0.53011 0.0
C504 C 0.11919 0.27428 0.47486 0.0
C505 C 0.12573 0.28901 0.53294 0.0
C506 C 0.11808 0.25326 0.49785 0.0
C507 C 0.12338 0.24679 0.57929 0.0
C508 C 0.12889 0.26186 0.63783 0.0
C509 C 0.13012 0.28264 0.61482 0.0
C510 C 0.11951 0.19708 0.70648 0.0
C511 C 0.12825 0.18237 0.65253 0.0
C512 C 0.11759 0.21781 0.68204 0.0
C513 C 0.12439 0.22446 0.60304 0.0
C514 C 0.13325 0.20981 0.54917 0.0
C515 C 0.13518 0.18903 0.57362 0.0
H516 H 0.46722 0.37072 0.92095 0.0
H517 H 0.49843 0.36465 0.68472 0.0
H518 H 0.50059 0.36707 -0.00703 0.0
H519 H 0.53167 0.36046 0.75643 0.0
H520 H 0.58233 0.39819 0.8815 0.0
H521 H 0.54826 0.39095 0.82358 0.0
H522 H 0.53518 0.34924 0.02796 0.0
H523 H 0.5697 0.35648 0.08685 0.0
C524 C 0.481 0.36722 0.8846 0.0
C525 C 0.48029 0.36823 0.79711 0.0
C526 C 0.50019 0.36541 0.92595 0.0
C527 C 0.51882 0.36432 0.88013 0.0
C528 C 0.51761 0.36195 0.79328 0.0
C529 C 0.49852 0.36392 0.75213 0.0
C530 C 0.57222 0.38761 0.91492 0.0
C531 C 0.57891 0.37785 0.98872 0.0
C532 C 0.55273 0.38323 0.88097 0.0
C533 C 0.53926 0.36899 0.91973 0.0
C534 C 0.54534 0.36007 -0.0039 0.0
C535 C 0.56503 0.36438 0.03013 0.0
H536 H 0.35382 0.81879 0.04232 0.0
H537 H 0.39113 0.80754 0.2623 0.0
H538 H 0.3633 0.78498 0.98977 0.0
H539 H 0.40065 0.77336 0.2088 0.0
H540 H 0.39251 0.73518 0.86568 0.0
H541 H 0.39555 0.76849 0.93468 0.0
H542 H 0.38448 0.7388 0.17202 0.0
H543 H 0.38204 0.7054 0.10288 0.0
C544 C 0.36388 0.80905 0.08008 0.0
C545 C 0.37175 0.81605 0.1565 0.0
C546 C 0.36959 0.78973 0.04922 0.0
C547 C 0.3833 0.77675 0.09383 0.0
C548 C 0.3903 0.78314 0.17247 0.0
C549 C 0.38466 0.80265 0.20336 0.0
C550 C 0.39217 0.73557 0.9331 0.0
C551 C 0.38668 0.71778 0.97867 0.0
C552 C 0.39341 0.75472 0.97256 0.0
C553 C 0.38925 0.75635 0.05823 0.0
C554 C 0.38744 0.73809 0.10573 0.0
C555 C 0.38638 0.71885 0.06611 0.0
H556 H 0.95414 0.62646 0.52261 0.0
H557 H 0.93298 0.61787 0.27009 0.0
H558 H 0.99015 0.62788 0.47338 0.0
H559 H 0.96855 0.62032 0.22054 0.0
H560 H 0.03581 0.6023 0.16566 0.0
H561 H 0.99976 0.60302 0.21121 0.0
H562 H 0.01597 0.64693 0.40251 0.0
H563 H 0.05258 0.64486 0.35944 0.0
C564 C 0.95714 0.62491 0.45661 0.0
C565 C 0.94056 0.6218 0.40069 0.0
C566 C 0.97784 0.62597 0.42804 0.0
C567 C 0.98254 0.62425 0.34253 0.0
C568 C 0.96585 0.62129 0.28689 0.0
C569 C 0.94528 0.61993 0.3155 0.0
C570 C 0.03163 0.61223 0.217 0.0
C571 C 0.04703 0.62348 0.25904 0.0
C572 C 0.01082 0.61282 0.24298 0.0
C573 C 0.00467 0.62491 0.31146 0.0
C574 C 0.02002 0.63708 0.35072 0.0
C575 C 0.04097 0.63628 0.32501 0.0
H576 H 0.91052 0.70836 0.59748 0.0
H577 H 0.86817 0.718 0.39144 0.0
H578 H 0.91818 0.7458 0.59796 0.0
H579 H 0.8757 0.7549 0.39296 0.0
H580 H 0.87792 0.8205 0.55335 0.0
H581 H 0.87853 0.78331 0.5876 0.0
H582 H 0.92395 0.7732 0.39453 0.0
H583 H 0.92335 0.81008 0.35997 0.0
C584 C 0.90301 0.71836 0.55206 0.0
C585 C 0.88866 0.7102 0.4946 0.0
C586 C 0.90725 0.73972 0.55296 0.0
C587 C 0.89728 0.75307 0.49615 0.0
C588 C 0.88339 0.74486 0.43783 0.0
C589 C 0.87913 0.72373 0.43703 0.0
C590 C 0.8887 0.81048 0.52086 0.0
C591 C 0.90046 0.81811 0.45363 0.0
C592 C 0.88903 0.78925 0.54039 0.0
C593 C 0.90138 0.77556 0.49377 0.0
C594 C 0.9145 0.78352 0.43177 0.0
C595 C 0.91406 0.80459 0.41192 0.0
H596 H 0.53098 0.64691 0.34404 0.0
H597 H 0.54387 0.63331 0.08684 0.0
H598 H 0.49403 0.65319 0.30831 0.0
H599 H 0.50761 0.63959 0.05119 0.0
H600 H 0.42763 0.62848 0.20195 0.0
H601 H 0.4633 0.63086 0.25675 0.0
H602 H 0.48119 0.66727 0.04237 0.0
H603 H 0.44596 0.66478 0.98762 0.0
C604 C 0.52606 0.64592 0.27969 0.0
C605 C 0.54037 0.64001 0.2179 0.0
C606 C 0.50489 0.64923 0.25934 0.0
C607 C 0.49781 0.64703 0.17668 0.0
C608 C 0.51244 0.64182 0.11511 0.0
C609 C 0.5333 0.63823 0.13552 0.0
C610 C 0.43905 0.63745 0.16766 0.0
C611 C 0.43392 0.64615 0.08962 0.0
C612 C 0.45951 0.63882 0.19914 0.0
C613 C 0.47525 0.64895 0.15326 0.0
C614 C 0.46962 0.65899 0.07861 0.0
C615 C 0.44932 0.6576 0.04728 0.0
H616 H 0.65466 0.28147 0.15173 0.0
H617 H 0.61305 0.29716 0.95039 0.0
H618 H 0.65321 0.24519 0.11333 0.0
H619 H 0.61027 0.26053 0.91432 0.0
H620 H 0.63274 0.20003 0.8008 0.0
H621 H 0.63107 0.23568 0.84867 0.0
H622 H 0.63539 0.21415 0.10369 0.0
H623 H 0.63825 0.1787 0.05517 0.0
C624 C 0.64458 0.27695 0.10099 0.0
C625 C 0.6339 0.29197 0.05415 0.0
C626 C 0.64367 0.25612 0.07887 0.0
C627 C 0.63183 0.2498 0.00976 0.0
C628 C 0.61996 0.26482 0.96659 0.0
C629 C 0.62115 0.28574 0.98817 0.0
C630 C 0.6335 0.20298 0.86703 0.0
C631 C 0.63579 0.18656 0.92411 0.0
C632 C 0.63226 0.22342 0.89472 0.0
C633 C 0.63286 0.22794 0.98036 0.0
C634 C 0.63517 0.21142 0.03729 0.0
C635 C 0.63681 0.19103 0.00948 0.0
H636 H 0.9802 0.36391 0.8535 0.0
H637 H 0.96162 0.39368 0.62389 0.0
H638 H 0.01598 0.36051 0.79915 0.0
H639 H 0.99684 0.39032 0.57001 0.0
H640 H 0.05926 0.36682 0.47285 0.0
H641 H 0.02357 0.36477 0.52537 0.0
H642 H 0.04423 0.38679 0.76456 0.0
H643 H 0.07984 0.38888 0.71259 0.0
C644 C 0.98364 0.36919 0.79088 0.0
C645 C 0.96821 0.37895 0.7427 0.0
C646 C 1.00409 0.36748 0.76006 0.0
C647 C 0.00923 0.37521 0.68026 0.0
C648 C 0.99342 0.38401 0.63114 0.0
C649 C 0.97324 0.38596 0.66216 0.0
C650 C 0.05621 0.37136 0.53646 0.0
C651 C 0.07248 0.37819 0.58806 0.0
C652 C 0.03576 0.3701 0.56667 0.0
C653 C 0.03112 0.37542 0.64945 0.0
C654 C 0.04735 0.38224 0.70101 0.0
C655 C 0.06774 0.38371 0.67064 0.0
H656 H 0.62957 0.6986 0.30886 0.0
H657 H 0.62911 0.68371 0.04735 0.0
H658 H 0.62576 0.73516 0.27434 0.0
H659 H 0.62399 0.72 0.01255 0.0
H660 H 0.63741 0.78945 0.97872 0.0
H661 H 0.63883 0.75232 0.00386 0.0
H662 H 0.60264 0.76032 0.22871 0.0
H663 H 0.60276 0.79771 0.20556 0.0
C664 C 0.62868 0.70316 0.24394 0.0
C665 C 0.62983 0.68825 0.18094 0.0
C666 C 0.62615 0.72414 0.22395 0.0
C667 C 0.62421 0.73072 0.14042 0.0
C668 C 0.62567 0.71574 0.07748 0.0
C669 C 0.62864 0.69483 0.09746 0.0
C670 C 0.6292 0.78312 0.03196 0.0
C671 C 0.61968 0.79631 0.08953 0.0
C672 C 0.63006 0.76178 0.04683 0.0
C673 C 0.62115 0.75313 0.11929 0.0
C674 C 0.61022 0.76635 0.1735 0.0
C675 C 0.60979 0.78775 0.15938 0.0
H676 H 0.96228 0.85796 0.45138 0.0
H677 H 0.98687 0.84249 0.20949 0.0
H678 H 0.99689 0.85419 0.51149 0.0
H679 H 0.02142 0.83822 0.27023 0.0
H680 H 0.06682 0.84639 0.58601 0.0
H681 H 0.03155 0.83672 0.54249 0.0
H682 H 0.04012 0.87051 0.3123 0.0
H683 H 0.07497 0.88016 0.35493 0.0
C684 C 0.97477 0.85248 0.41179 0.0
C685 C 0.97202 0.8513 0.32494 0.0
C686 C 0.99472 0.8505 0.4464 0.0
C687 C 0.01197 0.84689 0.3947 0.0
C688 C 0.00846 0.84177 0.31094 0.0
C689 C 0.98859 0.84387 0.27633 0.0
C690 C 0.06107 0.85194 0.52651 0.0
C691 C 0.07383 0.86403 0.4739 0.0
C692 C 0.04095 0.84623 0.50142 0.0
C693 C 0.03332 0.8523 0.42293 0.0
C694 C 0.04581 0.86496 0.37194 0.0
C695 C 0.06573 0.87077 0.39706 0.0
H696 H 0.87682 0.21139 0.63757 0.0
H697 H 0.87701 0.24296 0.40021 0.0
H698 H 0.8842 0.24407 0.70743 0.0
H699 H 0.88497 0.27545 0.46931 0.0
H700 H 0.85708 0.32877 0.61424 0.0
H701 H 0.85956 0.29496 0.55085 0.0
H702 H 0.90501 0.27617 0.73484 0.0
H703 H 0.90247 0.31037 0.79954 0.0
C704 C 0.87968 0.22506 0.59986 0.0
C705 C 0.8762 0.22466 0.5134 0.0
C706 C 0.88367 0.24388 0.64007 0.0
C707 C 0.88441 0.2625 0.59418 0.0
C708 C 0.88381 0.26149 0.50673 0.0
C709 C 0.87965 0.2428 0.46684 0.0
C710 C 0.86755 0.31749 0.64193 0.0
C711 C 0.87963 0.32245 0.71204 0.0
C712 C 0.86917 0.2981 0.60474 0.0
C713 C 0.88292 0.28298 0.63631 0.0
C714 C 0.89441 0.28752 0.70853 0.0
C715 C 0.89285 0.30709 0.74584 0.0
H716 H 0.53765 0.14589 0.75335 0.0
H717 H 0.5499 0.11626 0.98978 0.0
H718 H 0.50026 0.1474 0.78822 0.0
H719 H 0.51306 0.11767 0.02437 0.0
H720 H 0.44683 0.13727 0.09092 0.0
H721 H 0.48383 0.14059 0.0576 0.0
H722 H 0.47149 0.12148 0.80554 0.0
H723 H 0.43451 0.11819 0.83851 0.0
C724 C 0.53246 0.14026 0.81349 0.0
C725 C 0.54675 0.13115 0.86909 0.0
C726 C 0.51104 0.14083 0.83313 0.0
C727 C 0.50356 0.13258 0.90918 0.0
C728 C 0.51813 0.12438 0.96583 0.0
C729 C 0.53931 0.12358 0.94588 0.0
C730 C 0.45197 0.13365 0.02849 0.0
C731 C 0.43754 0.12728 0.96782 0.0
C732 C 0.47324 0.1356 0.00926 0.0
C733 C 0.48072 0.13145 0.92858 0.0
C734 C 0.4663 0.12513 0.8679 0.0
C735 C 0.44507 0.12298 0.88729 0.0
H736 H 0.41696 0.30296 0.7907 0.0
H737 H 0.38764 0.32509 0.01548 0.0
H738 H 0.41484 0.26762 0.84323 0.0
H739 H 0.38583 0.28939 0.06828 0.0
H740 H 0.39977 0.21602 0.12534 0.0
H741 H 0.41063 0.25202 0.0963 0.0
H742 H 0.37549 0.2513 0.86733 0.0
H743 H 0.36445 0.21601 0.89635 0.0
C744 C 0.41058 0.3004 0.85234 0.0
C745 C 0.40206 0.31687 0.89809 0.0
C746 C 0.40945 0.28013 0.88239 0.0
C747 C 0.4 0.27584 0.95925 0.0
C748 C 0.39328 0.29237 0.00892 0.0
C749 C 0.3943 0.31278 0.97854 0.0
C750 C 0.39451 0.22361 0.06878 0.0
C751 C 0.38122 0.21326 0.01319 0.0
C752 C 0.40062 0.24414 0.05249 0.0
C753 C 0.39396 0.25427 0.9794 0.0
C754 C 0.38096 0.24376 0.92376 0.0
C755 C 0.37456 0.2236 0.94068 0.0
H756 H 0.92496 0.13242 0.73493 0.0
H757 H 0.94197 0.16937 0.52042 0.0
H758 H 0.96178 0.13124 0.77751 0.0
H759 H 0.9784 0.16779 0.5622 0.0
H760 H 0.03449 0.14679 0.83074 0.0
H761 H 0.99735 0.15586 0.81199 0.0
H762 H 0.99938 0.13157 0.56274 0.0
H763 H 0.03586 0.12209 0.58196 0.0
C764 C 0.93635 0.14086 0.69841 0.0
C765 C 0.93045 0.15075 0.62354 0.0
C766 C 0.95745 0.14013 0.72273 0.0
C767 C 0.97297 0.14919 0.67245 0.0
C768 C 0.96682 0.1605 0.6017 0.0
C769 C 0.94587 0.1614 0.57791 0.0
C770 C 0.02701 0.14371 0.77169 0.0
C771 C 0.03814 0.1339 0.7075 0.0
C772 C 0.00576 0.14872 0.76128 0.0
C773 C 0.99551 0.1445 0.68576 0.0
C774 C 0.00688 0.13519 0.62131 0.0
C775 C 0.02778 0.12976 0.63234 0.0
H776 H 0.14475 0.67417 0.46832 0.0
H777 H 0.12216 0.69415 0.22721 0.0
H778 H 0.14282 0.70964 0.51797 0.0
H779 H 0.12012 0.72968 0.27753 0.0
H780 H 0.14946 0.79125 0.36664 0.0
H781 H 0.14553 0.75608 0.31731 0.0
H782 H 0.11796 0.73837 0.55246 0.0
H783 H 0.12207 0.77412 0.60252 0.0
C784 C 0.13938 0.6861 0.4257 0.0
C785 C 0.1338 0.68123 0.34325 0.0
C786 C 0.13803 0.70642 0.45472 0.0
C787 C 0.1312 0.72249 0.40201 0.0
C788 C 0.12554 0.71766 0.31969 0.0
C789 C 0.12675 0.69729 0.29075 0.0
C790 C 0.14226 0.77993 0.40761 0.0
C791 C 0.13613 0.78539 0.48862 0.0
C792 C 0.13991 0.75977 0.37903 0.0
C793 C 0.1315 0.74437 0.43088 0.0
C794 C 0.12465 0.74991 0.51125 0.0
C795 C 0.12679 0.77035 0.53972 0.0
H796 H 0.56383 0.9015 0.24437 0.0
H797 H 0.56023 0.86544 0.0191 0.0
H798 H 0.52691 0.89489 0.27037 0.0
H799 H 0.5239 0.85818 0.04688 0.0
H800 H 0.45421 0.87313 0.06857 0.0
H801 H 0.49146 0.87506 0.04531 0.0
H802 H 0.50218 0.86807 0.30983 0.0
H803 H 0.46433 0.86683 0.33284 0.0
C804 C 0.55518 0.89229 0.20016 0.0
C805 C 0.56502 0.88418 0.12925 0.0
C806 C 0.5341 0.88821 0.2158 0.0
C807 C 0.52245 0.87581 0.1612 0.0
C808 C 0.53228 0.86796 0.0899 0.0
C809 C 0.55319 0.8722 0.07384 0.0
C810 C 0.46458 0.87119 0.12139 0.0
C811 C 0.4565 0.86949 0.20224 0.0
C812 C 0.48597 0.87241 0.10821 0.0
C813 C 0.49988 0.87191 0.17575 0.0
C814 C 0.49184 0.86881 0.25658 0.0
C815 C 0.47025 0.86761 0.26976 0.0
H816 H 0.17599 0.36664 0.25792 0.0
H817 H 0.15077 0.30696 0.19323 0.0
H818 H 0.18288 0.37385 0.11161 0.0
H819 H 0.15643 0.31454 0.04648 0.0
H820 H 0.18343 0.32302 0.79739 0.0
H821 H 0.18329 0.31723 0.94713 0.0
H822 H 0.16746 0.3816 0.98477 0.0
H823 H 0.16907 0.38763 0.83671 0.0
C824 C 0.17133 0.35535 0.21197 0.0
C825 C 0.1628 0.33629 0.23639 0.0
C826 C 0.17538 0.3594 0.12816 0.0
C827 C 0.17056 0.34461 0.06721 0.0
C828 C 0.16101 0.32598 0.09184 0.0
C829 C 0.15737 0.32178 0.17566 0.0
C830 C 0.18058 0.33604 0.83766 0.0
C831 C 0.17576 0.35563 0.80478 0.0
C832 C 0.18015 0.33268 0.9236 0.0
C833 C 0.17467 0.34881 0.97792 0.0
C834 C 0.17169 0.36878 0.94517 0.0
C835 C 0.17246 0.37218 0.85974 0.0
H836 H 0.40707 0.42542 0.49452 0.0
H837 H 0.42861 0.36367 0.44124 0.0
H838 H 0.40707 0.43381 0.34657 0.0
H839 H 0.42899 0.37202 0.29249 0.0
H840 H 0.42512 0.44662 0.07557 0.0
H841 H 0.42789 0.43953 0.22452 0.0
H842 H 0.40359 0.37798 0.18567 0.0
H843 H 0.40144 0.38482 0.03706 0.0
C844 C 0.41257 0.4139 0.45109 0.0
C845 C 0.41836 0.39409 0.47912 0.0
C846 C 0.41239 0.41862 0.36621 0.0
C847 C 0.41795 0.40357 0.30751 0.0
C848 C 0.4243 0.38388 0.33598 0.0
C849 C 0.42431 0.37913 0.42099 0.0
C850 C 0.42022 0.43164 0.09898 0.0
C851 C 0.41313 0.41627 0.04439 0.0
C852 C 0.42181 0.42757 0.18436 0.0
C853 C 0.4162 0.40809 0.21696 0.0
C854 C 0.40856 0.39296 0.16249 0.0
C855 C 0.40711 0.39697 0.07726 0.0
H856 H 0.36723 0.66698 0.2093 0.0
H857 H 0.30613 0.64241 0.26334 0.0
H858 H 0.3747 0.66913 0.35654 0.0
H859 H 0.31409 0.64314 0.41206 0.0
H860 H 0.32665 0.66227 0.67531 0.0
H861 H 0.31862 0.6637 0.52785 0.0
H862 H 0.38314 0.64996 0.47212 0.0
H863 H 0.39133 0.65059 0.61928 0.0
C864 C 0.35551 0.66163 0.253 0.0
C865 C 0.33614 0.65437 0.22503 0.0
C866 C 0.35985 0.66278 0.33772 0.0
C867 C 0.34512 0.65617 0.39691 0.0
C868 C 0.32572 0.64873 0.36866 0.0
C869 C 0.32118 0.64808 0.28348 0.0
C870 C 0.33924 0.66052 0.63153 0.0
C871 C 0.35969 0.657 0.65935 0.0
C872 C 0.33456 0.66074 0.54665 0.0
C873 C 0.35017 0.6569 0.48735 0.0
C874 C 0.3707 0.65344 0.51535 0.0
C875 C 0.37542 0.65366 0.60013 0.0
H876 H 0.14897 0.57853 0.5794 0.0
H877 H 0.0828 0.57145 0.53869 0.0
H878 H 0.14324 0.58056 0.72742 0.0
H879 H 0.0771 0.57165 0.68856 0.0
H880 H 0.06966 0.60382 0.93496 0.0
H881 H 0.07663 0.59769 0.78826 0.0
H882 H 0.13444 0.56704 0.85473 0.0
H883 H 0.12799 0.5746 0.00057 0.0
C884 C 0.13321 0.57667 0.60242 0.0
C885 C 0.11626 0.57527 0.54723 0.0
C886 C 0.12992 0.5777 0.68778 0.0
C887 C 0.10962 0.57685 0.72021 0.0
C888 C 0.09288 0.57313 0.66548 0.0
C889 C 0.09616 0.57252 0.57956 0.0
C890 C 0.08411 0.59631 0.91746 0.0
C891 C 0.09845 0.58995 0.97835 0.0
C892 C 0.08792 0.59234 0.83372 0.0
C893 C 0.10589 0.58143 0.80942 0.0
C894 C 0.12053 0.57564 0.87071 0.0
C895 C 0.11695 0.58009 0.95432 0.0
H896 H 0.83926 0.68009 0.20807 0.0
H897 H 0.82988 0.61502 0.16189 0.0
H898 H 0.84158 0.68655 0.05933 0.0
H899 H 0.83106 0.62153 0.01242 0.0
H900 H 0.86307 0.63514 0.76372 0.0
H901 H 0.85692 0.62882 0.91213 0.0
H902 H 0.82591 0.68814 0.93027 0.0
H903 H 0.83311 0.69488 0.78575 0.0
C904 C 0.83682 0.66731 0.16585 0.0
C905 C 0.83457 0.64706 0.19623 0.0
C906 C 0.83825 0.67095 0.08033 0.0
C907 C 0.83698 0.65445 0.02359 0.0
C908 C 0.83282 0.63447 0.05426 0.0
C909 C 0.83177 0.63079 0.13978 0.0
C910 C 0.85524 0.64688 0.80011 0.0
C911 C 0.84895 0.6656 0.76318 0.0
C912 C 0.85143 0.64319 0.88479 0.0
C913 C 0.84087 0.658 0.93343 0.0
C914 C 0.83448 0.67658 0.89575 0.0
C915 C 0.83866 0.68042 0.81227 0.0
H916 H 0.55294 0.61373 0.53815 0.0
H917 H 0.60848 0.57838 0.48619 0.0
H918 H 0.56086 0.61212 0.68676 0.0
H919 H 0.61555 0.57506 0.63363 0.0
H920 H 0.63565 0.58955 0.89549 0.0
H921 H 0.62762 0.59118 0.74805 0.0
H922 H 0.56173 0.59312 0.80606 0.0
H923 H 0.57027 0.594 0.95311 0.0
C924 C 0.56673 0.60546 0.55893 0.0
C925 C 0.58026 0.59645 0.50113 0.0
C926 C 0.57121 0.60428 0.64415 0.0
C927 C 0.58895 0.59345 0.67324 0.0
C928 C 0.60212 0.58407 0.61449 0.0
C929 C 0.59801 0.58585 0.52963 0.0
C930 C 0.61945 0.59006 0.87643 0.0
C931 C 0.60348 0.59077 0.93595 0.0
C932 C 0.61476 0.59086 0.79158 0.0
C933 C 0.59392 0.59207 0.76395 0.0
C934 C 0.57797 0.5924 0.82403 0.0
C935 C 0.58276 0.59214 0.90881 0.0
H936 H 0.67503 0.32438 0.76306 0.0
H937 H 0.67844 0.38976 0.71023 0.0
H938 H 0.67654 0.31692 0.61562 0.0
H939 H 0.67737 0.38271 0.56217 0.0
H940 H 0.69195 0.36428 0.29943 0.0
H941 H 0.69427 0.37135 0.44723 0.0
H942 H 0.65687 0.31694 0.49879 0.0
H943 H 0.65646 0.30902 0.35078 0.0
C944 C 0.67681 0.3371 0.71973 0.0
C945 C 0.67761 0.35751 0.74804 0.0
C946 C 0.6769 0.33293 0.63485 0.0
C947 C 0.67701 0.34918 0.57619 0.0
C948 C 0.67781 0.3697 0.60492 0.0
C949 C 0.67828 0.3738 0.68994 0.0
C950 C 0.68421 0.35393 0.34284 0.0
C951 C 0.674 0.33616 0.31468 0.0
C952 C 0.68541 0.35801 0.42761 0.0
C953 C 0.67579 0.34475 0.48574 0.0
C954 C 0.66501 0.32723 0.45656 0.0
C955 C 0.66448 0.32277 0.3718 0.0
H956 H 0.86965 0.40643 0.45587 0.0
H957 H 0.92587 0.44171 0.4968 0.0
H958 H 0.8773 0.40482 0.30944 0.0
H959 H 0.93322 0.44072 0.34808 0.0
H960 H 0.95404 0.4112 0.10462 0.0
H961 H 0.94482 0.41553 0.25044 0.0
H962 H 0.87993 0.42178 0.18132 0.0
H963 H 0.88908 0.41656 0.03624 0.0
C964 C 0.88349 0.41429 0.4337 0.0
C965 C 0.89746 0.42378 0.48932 0.0
C966 C 0.88783 0.4134 0.34893 0.0
C967 C 0.90609 0.42228 0.31678 0.0
C968 C 0.91932 0.43314 0.37117 0.0
C969 C 0.91505 0.43386 0.45658 0.0
C970 C 0.93777 0.41318 0.12083 0.0
C971 C 0.92229 0.41339 0.05892 0.0
C972 C 0.93251 0.416 0.20432 0.0
C973 C 0.91166 0.41932 0.22778 0.0
C974 C 0.89613 0.41908 0.16585 0.0
C975 C 0.90136 0.41599 0.0825 0.0
H976 H 0.66042 0.87433 0.86184 0.0
H977 H 0.66509 0.80898 0.80769 0.0
H978 H 0.66129 0.88222 0.7138 0.0
H979 H 0.66548 0.81693 0.65921 0.0
H980 H 0.68548 0.84034 0.40287 0.0
H981 H 0.68763 0.83333 0.55223 0.0
H982 H 0.63853 0.87787 0.5953 0.0
H983 H 0.63646 0.88491 0.44742 0.0
C984 C 0.66141 0.86163 0.81837 0.0
C985 C 0.66257 0.84103 0.84642 0.0
C986 C 0.66193 0.86617 0.73357 0.0
C987 C 0.6635 0.85018 0.67511 0.0
C988 C 0.6646 0.82957 0.70303 0.0
C989 C 0.66416 0.82503 0.78796 0.0
C990 C 0.67515 0.84854 0.44425 0.0
C991 C 0.66067 0.86295 0.41314 0.0
C992 C 0.67637 0.84456 0.52966 0.0
C993 C 0.66316 0.85499 0.58519 0.0
C994 C 0.6491 0.86978 0.55416 0.0
C995 C 0.64791 0.87377 0.46919 0.0
H996 H 0.94789 0.89871 0.03962 0.0
H997 H 0.88376 0.88064 0.00412 0.0
H998 H 0.9507 0.90659 0.89017 0.0
H999 H 0.88656 0.88828 0.85638 0.0
H1000 H 0.90612 0.88192 0.58705 0.0
H1001 H 0.90534 0.87413 0.73503 0.0
H1002 H 0.93505 0.93258 0.78691 0.0
H1003 H 0.93609 0.94043 0.63783 0.0
C1004 C 0.9344 0.89672 0.00014 0.0
C1005 C 0.91558 0.88938 0.03329 0.0
C1006 C 0.936 0.90112 0.91496 0.0
C1007 C 0.9188 0.89813 0.86214 0.0
C1008 C 0.90012 0.89052 0.8955 0.0
C1009 C 0.89854 0.88613 0.98006 0.0
C1010 C 0.91244 0.89319 0.62972 0.0
C1011 C 0.92107 0.91185 0.60061 0.0
C1012 C 0.91196 0.88871 0.71454 0.0
C1013 C 0.92013 0.90276 0.77219 0.0
C1014 C 0.92883 0.92141 0.74348 0.0
C1015 C 0.92922 0.92597 0.65834 0.0
H1016 H 0.83619 0.18931 0.20489 0.0
H1017 H 0.8697 0.13178 0.17638 0.0
H1018 H 0.82809 0.18926 0.05501 0.0
H1019 H 0.86152 0.13158 0.02921 0.0
H1020 H 0.86285 0.14912 0.75685 0.0
H1021 H 0.87064 0.15143 0.90427 0.0
H1022 H 0.80656 0.16771 0.95462 0.0
H1023 H 0.79869 0.16572 0.80581 0.0
C1024 C 0.8416 0.17663 0.16688 0.0
C1025 C 0.85343 0.16054 0.20212 0.0
C1026 C 0.837 0.17657 0.08153 0.0
C1027 C 0.84408 0.16035 0.03081 0.0
C1028 C 0.85605 0.14442 0.0664 0.0
C1029 C 0.86075 0.14457 0.15082 0.0
C1030 C 0.85034 0.15309 0.7991 0.0
C1031 C 0.83011 0.15713 0.76951 0.0
C1032 C 0.85483 0.15441 0.88366 0.0
C1033 C 0.83921 0.15978 0.94082 0.0
C1034 C 0.81894 0.16377 0.91167 0.0
C1035 C 0.8144 0.16237 0.8267 0.0
H1036 H 0.62207 0.1122 0.56398 0.0
H1037 H 0.56247 0.0821 0.53428 0.0
H1038 H 0.6293 0.10689 0.41639 0.0
H1039 H 0.57014 0.07559 0.38992 0.0
H1040 H 0.64624 0.08027 0.16914 0.0
H1041 H 0.63842 0.08265 0.31709 0.0
H1042 H 0.57284 0.0888 0.25849 0.0
H1043 H 0.58069 0.0851 0.11163 0.0
C1044 C 0.6105 0.10455 0.526 0.0
C1045 C 0.59163 0.09782 0.56111 0.0
C1046 C 0.61474 0.10117 0.44146 0.0
C1047 C 0.6004 0.09059 0.3904 0.0
C1048 C 0.58147 0.08411 0.42589 0.0
C1049 C 0.57706 0.08787 0.50947 0.0
C1050 C 0.6301 0.08149 0.18838 0.0
C1051 C 0.61409 0.08243 0.12872 0.0
C1052 C 0.62561 0.08327 0.27324 0.0
C1053 C 0.60501 0.08646 0.3006 0.0
C1054 C 0.5889 0.0862 0.24079 0.0
C1055 C 0.59337 0.08398 0.15606 0.0
H1056 H 0.34543 0.1158 0.68323 0.0
H1057 H 0.32289 0.17788 0.72778 0.0
H1058 H 0.34452 0.12213 0.5353 0.0
H1059 H 0.32063 0.18382 0.57811 0.0
H1060 H 0.34966 0.19727 0.32543 0.0
H1061 H 0.34602 0.1896 0.4731 0.0
H1062 H 0.32521 0.12773 0.41399 0.0
H1063 H 0.32998 0.13515 0.26651 0.0
C1064 C 0.33978 0.1307 0.66143 0.0
C1065 C 0.33464 0.14654 0.71736 0.0
C1066 C 0.33907 0.13424 0.57622 0.0
C1067 C 0.33284 0.15359 0.54492 0.0
C1068 C 0.32605 0.16891 0.6006 0.0
C1069 C 0.32705 0.16544 0.68628 0.0
C1070 C 0.3446 0.18195 0.34439 0.0
C1071 C 0.34026 0.16673 0.28515 0.0
C1072 C 0.34217 0.17766 0.42874 0.0
C1073 C 0.33499 0.15817 0.45521 0.0
C1074 C 0.33094 0.14284 0.39566 0.0
C1075 C 0.33377 0.14702 0.31131 0.0
H1076 H 0.11015 0.07732 0.96662 0.0
H1077 H 0.05074 0.10537 0.02296 0.0
H1078 H 0.11722 0.07291 0.11339 0.0
H1079 H 0.05846 0.1026 0.17152 0.0
H1080 H 0.06928 0.08125 0.43404 0.0
H1081 H 0.06129 0.08138 0.28606 0.0
H1082 H 0.12691 0.08904 0.23157 0.0
H1083 H 0.13481 0.08675 0.37845 0.0
C1084 C 0.09879 0.08305 0.01082 0.0
C1085 C 0.07996 0.09188 0.98352 0.0
C1086 C 0.10288 0.08059 0.09542 0.0
C1087 C 0.08853 0.08748 0.15536 0.0
C1088 C 0.06976 0.09667 0.12771 0.0
C1089 C 0.0654 0.09856 0.04258 0.0
C1090 C 0.08201 0.08192 0.3901 0.0
C1091 C 0.10267 0.08337 0.41807 0.0
C1092 C 0.07742 0.08263 0.30504 0.0
C1093 C 0.09338 0.08534 0.24589 0.0
C1094 C 0.11412 0.08646 0.27428 0.0
C1095 C 0.1187 0.08528 0.35904 0.0
H1096 H 0.17644 0.82047 0.23423 0.0
H1097 H 0.16933 0.8853 0.17687 0.0
H1098 H 0.17895 0.81262 0.08738 0.0
H1099 H 0.16918 0.87747 0.02933 0.0
H1100 H 0.18625 0.86081 0.76752 0.0
H1101 H 0.18754 0.86855 0.91472 0.0
H1102 H 0.15998 0.80882 0.9698 0.0
H1103 H 0.16059 0.80056 0.82199 0.0
C1104 C 0.17617 0.83311 0.19003 0.0
C1105 C 0.1738 0.85353 0.21709 0.0
C1106 C 0.1768 0.82858 0.1054 0.0
C1107 C 0.17427 0.84436 0.04548 0.0
C1108 C 0.17175 0.86489 0.07293 0.0
C1109 C 0.17169 0.86942 0.15773 0.0
C1110 C 0.18044 0.84939 0.81142 0.0
C1111 C 0.17326 0.83013 0.78396 0.0
C1112 C 0.18104 0.85386 0.89601 0.0
C1113 C 0.17382 0.8394 0.95512 0.0
C1114 C 0.16619 0.82021 0.92687 0.0
C1115 C 0.16626 0.81549 0.84213 0.0
H1116 H 0.37929 0.91555 0.45406 0.0
H1117 H 0.4444 0.90645 0.51367 0.0
H1118 H 0.37133 0.91926 0.60054 0.0
H1119 H 0.43627 0.90905 0.66151 0.0
H1120 H 0.41888 0.93104 0.91718 0.0
H1121 H 0.4261 0.93224 0.76837 0.0
H1122 H 0.36854 0.89958 0.72141 0.0
H1123 H 0.36082 0.89951 0.86805 0.0
C1124 C 0.39187 0.91393 0.4987 0.0
C1125 C 0.41247 0.91057 0.47249 0.0
C1126 C 0.3873 0.91607 0.58288 0.0
C1127 C 0.40315 0.91446 0.64304 0.0
C1128 C 0.42374 0.91079 0.6168 0.0
C1129 C 0.42838 0.90902 0.53223 0.0
C1130 C 0.40757 0.92458 0.87495 0.0
C1131 C 0.38935 0.91515 0.90503 0.0
C1132 C 0.41183 0.925 0.78962 0.0
C1133 C 0.39802 0.91579 0.73285 0.0
C1134 C 0.37943 0.90708 0.76287 0.0
C1135 C 0.37507 0.90694 0.84759 0.0
H1136 H 0.20993 0.29158 0.32107 0.0
H1137 H 0.25851 0.27344 0.49298 0.0
H1138 H 0.22237 0.26627 0.22159 0.0
H1139 H 0.27058 0.24735 0.39453 0.0
H1140 H 0.30071 0.219 0.16363 0.0
H1141 H 0.28814 0.2439 0.26532 0.0
H1142 H 0.22467 0.23087 0.19207 0.0
H1143 H 0.23736 0.20668 0.08825 0.0
C1144 C 0.22311 0.28192 0.33811 0.0
C1145 C 0.23328 0.28454 0.41473 0.0
C1146 C 0.23021 0.2673 0.2811 0.0
C1147 C 0.24754 0.25469 0.29958 0.0
C1148 C 0.25744 0.25702 0.37732 0.0
C1149 C 0.25044 0.27186 0.43411 0.0
C1150 C 0.28409 0.22159 0.16884 0.0
C1151 C 0.27005 0.21101 0.11731 0.0
C1152 C 0.27684 0.23572 0.22786 0.0
C1153 C 0.25534 0.23946 0.23736 0.0
C1154 C 0.24134 0.22874 0.18579 0.0
C1155 C 0.2486 0.21478 0.12629 0.0
H1156 H 0.50283 0.54671 0.41322 0.0
H1157 H 0.50816 0.50722 0.19883 0.0
H1158 H 0.47349 0.52657 0.46292 0.0
H1159 H 0.4777 0.48771 0.24496 0.0
H1160 H 0.45112 0.44026 0.43478 0.0
H1161 H 0.46933 0.46326 0.342 0.0
H1162 H 0.43931 0.51576 0.45743 0.0
H1163 H 0.422 0.49248 0.55492 0.0
C1164 C 0.49746 0.53382 0.37615 0.0
C1165 C 0.50799 0.52822 0.30325 0.0
C1166 C 0.48034 0.52243 0.40377 0.0
C1167 C 0.47295 0.50542 0.35803 0.0
C1168 C 0.48308 0.5004 0.28294 0.0
C1169 C 0.50059 0.51152 0.25646 0.0
C1170 C 0.44779 0.45667 0.43886 0.0
C1171 C 0.43585 0.46458 0.50487 0.0
C1172 C 0.45831 0.47001 0.38496 0.0
C1173 C 0.45672 0.49156 0.39473 0.0
C1174 C 0.44178 0.49927 0.45098 0.0
C1175 C 0.43151 0.48588 0.50608 0.0
H1176 H 0.30847 0.69554 0.61948 0.0
H1177 H 0.25425 0.68406 0.77162 0.0
H1178 H 0.28992 0.72189 0.54358 0.0
H1179 H 0.23489 0.70989 0.69172 0.0
H1180 H 0.22512 0.78051 0.6617 0.0
H1181 H 0.23503 0.74533 0.69894 0.0
H1182 H 0.26694 0.73932 0.46283 0.0
H1183 H 0.25831 0.77517 0.42957 0.0
C1184 C 0.29213 0.69779 0.63363 0.0
C1185 C 0.28309 0.68801 0.70325 0.0
C1186 C 0.28134 0.71317 0.58988 0.0
C1187 C 0.261 0.71889 0.61339 0.0
C1188 C 0.25084 0.70666 0.67412 0.0
C1189 C 0.26181 0.6914 0.71887 0.0
C1190 C 0.23422 0.77157 0.61789 0.0
C1191 C 0.24142 0.78071 0.54392 0.0
C1192 C 0.23969 0.75119 0.63853 0.0
C1193 C 0.25208 0.7392 0.58452 0.0
C1194 C 0.25798 0.74807 0.50756 0.0
C1195 C 0.25301 0.76866 0.48815 0.0
H1196 H 0.03993 0.49339 0.22499 0.0
H1197 H 0.05854 0.54058 0.04885 0.0
H1198 H 0.01188 0.48299 0.13223 0.0
H1199 H 0.03138 0.52946 0.95334 0.0
H1200 H 0.96827 0.51729 0.83221 0.0
H1201 H 0.99595 0.52882 0.9249 0.0
H1202 H 0.00484 0.46574 0.01022 0.0
H1203 H 0.97637 0.45468 0.92215 0.0
C1204 C 0.03811 0.5014 0.16595 0.0
C1205 C 0.05138 0.51778 0.14407 0.0
C1206 C 0.02213 0.49534 0.11221 0.0
C1207 C 0.01934 0.50521 0.03441 0.0
C1208 C 0.03271 0.52166 0.01297 0.0
C1209 C 0.0484 0.52798 0.06752 0.0
C1210 C 0.97625 0.50593 0.87063 0.0
C1211 C 0.97013 0.48508 0.86982 0.0
C1212 C 0.99222 0.51249 0.92362 0.0
C1213 C 1.00267 0.49828 0.97601 0.0
C1214 C 0.99688 0.4773 0.97278 0.0
C1215 C 0.98068 0.47085 0.92117 0.0
H1216 H 0.79479 0.75441 0.65239 0.0
H1217 H 0.76689 0.69678 0.73047 0.0
H1218 H 0.78055 0.77144 0.77507 0.0
H1219 H 0.75405 0.71312 0.85615 0.0
H1220 H 0.71047 0.75408 0.00395 0.0
H1221 H 0.72859 0.73496 0.89881 0.0
H1222 H 0.78118 0.77649 0.91919 0.0
H1223 H 0.76195 0.7968 0.02217 0.0
C1224 C 0.78558 0.74544 0.69608 0.0
C1225 C 0.78141 0.72447 0.68113 0.0
C1226 C 0.77774 0.75506 0.76723 0.0
C1227 C 0.76605 0.74375 0.82611 0.0
C1228 C 0.76244 0.72257 0.81155 0.0
C1229 C 0.76974 0.71315 0.73931 0.0
C1230 C 0.726 0.75911 0.98683 0.0
C1231 C 0.73455 0.77731 0.0198 0.0
C1232 C 0.73659 0.74791 0.92669 0.0
C1233 C 0.75633 0.75425 0.89886 0.0
C1234 C 0.76574 0.77147 0.93727 0.0
C1235 C 0.7549 0.78295 -0.00279 0.0
H1236 H 0.75233 0.27051 0.96017 0.0
H1237 H 0.72271 0.28113 0.19686 0.0
H1238 H 0.7587 0.23456 -0.00085 0.0
H1239 H 0.73053 0.24583 0.23961 0.0
H1240 H 0.7469 0.18469 0.32324 0.0
H1241 H 0.72813 0.21062 0.24189 0.0
H1242 H 0.78124 0.21615 0.07725 0.0
H1243 H 0.79889 0.18941 0.15487 0.0
C1244 C 0.74731 0.26512 0.02094 0.0
C1245 C 0.73741 0.27867 0.07625 0.0
C1246 C 0.75103 0.24447 0.0437 0.0
C1247 C 0.74557 0.23702 0.12354 0.0
C1248 C 0.73479 0.25055 0.17718 0.0
C1249 C 0.73052 0.271 0.15328 0.0
C1250 C 0.75403 0.19059 0.26678 0.0
C1251 C 0.77469 0.18535 0.24668 0.0
C1252 C 0.74346 0.20596 0.2211 0.0
C1253 C 0.75345 0.2165 0.15502 0.0
C1254 C 0.77284 0.20884 0.12782 0.0
C1255 C 0.78315 0.1933 0.17253 0.0
H1256 H 0.00539 1.00099 0.71326 0.0
H1257 H 0.00846 0.04196 0.92378 0.0
H1258 H 0.97703 0.98194 0.78014 0.0
H1259 H 0.98147 0.02234 -0.00652 0.0
H1260 H 0.93392 0.98873 0.1198 0.0
H1261 H 0.94765 0.01148 0.01146 0.0
H1262 H 0.97325 0.9583 0.88472 0.0
H1263 H 0.95864 0.93592 0.98864 0.0
C1264 C 1.00012 0.0057 0.77434 0.0
C1265 C 0.00923 0.02266 0.81416 0.0
C1266 C 0.98384 0.99488 0.81271 0.0
C1267 C 0.97683 1.00047 0.89272 0.0
C1268 C 0.98588 0.01776 0.93125 0.0
C1269 C 1.00168 0.02885 0.89197 0.0
C1270 C 0.94178 0.9819 0.06698 0.0
C1271 C 0.94574 0.96054 0.06443 0.0
C1272 C 0.94991 0.99496 0.00527 0.0
C1273 C 0.96246 0.98688 0.94111 0.0
C1274 C 0.96389 0.9653 0.93299 0.0
C1275 C 0.95548 0.95231 -0.00648 0.0
H1276 H 0.45344 0.00592 0.34054 0.0
H1277 H 0.50208 0.96038 0.30844 0.0
H1278 H 0.4742 0.02271 0.44801 0.0
H1279 H 0.52326 0.97764 0.41201 0.0
H1280 H 0.54332 0.99527 0.67272 0.0
H1281 H 0.52331 0.98053 0.55833 0.0
H1282 H 0.50409 0.042 0.48197 0.0
H1283 H 0.52316 0.05651 0.59782 0.0
C1284 C 0.46883 0.99992 0.35467 0.0
C1285 C 0.4761 0.98181 0.31685 0.0
C1286 C 0.48074 0.00948 0.41631 0.0
C1287 C 0.50026 0.00126 0.43995 0.0
C1288 C 0.50805 0.98399 0.39745 0.0
C1289 C 0.49602 0.97426 0.33727 0.0
C1290 C 0.53469 0.00555 0.63171 0.0
C1291 C 0.53467 0.02698 0.64477 0.0
C1292 C 0.52338 0.99718 0.56565 0.0
C1293 C 0.51214 0.01012 0.51053 0.0
C1294 C 0.51223 0.03155 0.5238 0.0
C1295 C 0.52324 0.03985 0.59035 0.0
H1296 H 0.14617 0.52339 0.16694 0.0
H1297 H 0.1632 0.5313 0.42399 0.0
H1298 H 0.15678 0.4871 0.17459 0.0
H1299 H 0.17362 0.49529 0.43272 0.0
H1300 H 0.13084 0.42475 0.29377 0.0
H1301 H 0.13729 0.45988 0.24272 0.0
H1302 H 0.1913 0.46408 0.40258 0.0
H1303 H 0.18432 0.42936 0.45539 0.0
C1304 C 0.15355 0.51776 0.22346 0.0
C1305 C 0.15378 0.53014 0.29505 0.0
C1306 C 0.15912 0.49678 0.22854 0.0
C1307 C 0.16538 0.48798 0.30503 0.0
C1308 C 0.16883 0.50133 0.37264 0.0
C1309 C 0.16313 0.5222 0.36755 0.0
C1310 C 0.14441 0.43299 0.31608 0.0
C1311 C 0.1568 0.42448 0.37971 0.0
C1312 C 0.14822 0.45315 0.28661 0.0
C1313 C 0.16466 0.46508 0.31956 0.0
C1314 C 0.17823 0.45562 0.37717 0.0
C1315 C 0.17425 0.43567 0.40729 0.0
H1316 H 0.31595 0.3966 0.82158 0.0
H1317 H 0.32097 0.35482 0.61377 0.0
H1318 H 0.28256 0.40898 0.769 0.0
H1319 H 0.28723 0.3665 0.56303 0.0
H1320 H 0.23261 0.38929 0.45457 0.0
H1321 H 0.26857 0.39405 0.49885 0.0
H1322 H 0.24775 0.39915 0.75377 0.0
H1323 H 0.21204 0.39545 0.70799 0.0
C1324 C 0.3097 0.38968 0.76566 0.0
C1325 C 0.32107 0.37452 0.72231 0.0
C1326 C 0.29061 0.39697 0.73498 0.0
C1327 C 0.28228 0.38913 0.66065 0.0
C1328 C 0.29342 0.37352 0.6188 0.0
C1329 C 0.3126 0.36643 0.64886 0.0
C1330 C 0.23561 0.3931 0.51906 0.0
C1331 C 0.21979 0.3909 0.57861 0.0
C1332 C 0.25633 0.39511 0.54503 0.0
C1333 C 0.26118 0.39548 0.63057 0.0
C1334 C 0.24479 0.39833 0.68755 0.0
C1335 C 0.22412 0.39664 0.66101 0.0
H1336 H 0.40954 0.56146 0.83437 0.0
H1337 H 0.36071 0.55553 0.01809 0.0
H1338 H 0.40526 0.52508 0.7985 0.0
H1339 H 0.35557 0.51977 0.9793 0.0
H1340 H 0.36588 0.45038 0.94624 0.0
H1341 H 0.36878 0.48649 0.98463 0.0
H1342 H 0.38267 0.50258 0.72873 0.0
H1343 H 0.38079 0.4661 0.69161 0.0
C1344 C 0.39797 0.55236 0.86732 0.0
C1345 C 0.38558 0.56137 0.92936 0.0
C1346 C 0.39528 0.53158 0.84598 0.0
C1347 C 0.37983 0.51945 0.88507 0.0
C1348 C 0.3678 0.52843 0.94845 0.0
C1349 C 0.37077 0.54903 0.97082 0.0
C1350 C 0.36892 0.4617 0.89771 0.0
C1351 C 0.37302 0.45545 0.8158 0.0
C1352 C 0.37073 0.48248 0.91979 0.0
C1353 C 0.37629 0.49755 0.86013 0.0
C1354 C 0.37896 0.49139 0.77692 0.0
C1355 C 0.37749 0.47054 0.75517 0.0
H1356 H 0.17895 0.61424 0.0147 0.0
H1357 H 0.20564 0.59896 0.25441 0.0
H1358 H 0.21372 0.61206 0.95205 0.0
H1359 H 0.23984 0.59785 0.19402 0.0
H1360 H 0.30051 0.58749 0.07859 0.0
H1361 H 0.26421 0.58139 0.11418 0.0
H1362 H 0.2454 0.6295 0.94128 0.0
H1363 H 0.28151 0.63424 0.90082 0.0
C1364 C 0.19213 0.61035 0.05396 0.0
C1365 C 0.18933 0.60684 0.13975 0.0
C1366 C 0.21216 0.60922 0.01822 0.0
C1367 C 0.22988 0.60472 0.06754 0.0
C1368 C 0.2268 0.60083 0.15287 0.0
C1369 C 0.20696 0.60171 0.18805 0.0
C1370 C 0.28862 0.59647 0.04679 0.0
C1371 C 0.29414 0.61189 0.98875 0.0
C1372 C 0.26769 0.59316 0.06801 0.0
C1373 C 0.25165 0.60544 0.03305 0.0
C1374 C 0.25709 0.61973 0.97025 0.0
C1375 C 0.27799 0.6227 0.94774 0.0
H1376 H 0.84536 0.46215 0.6482 0.0
H1377 H 0.87702 0.48559 0.86391 0.0
H1378 H 0.83163 0.49656 0.6185 0.0
H1379 H 0.86553 0.52026 0.83022 0.0
H1380 H 0.85756 0.5837 0.7258 0.0
H1381 H 0.84966 0.55052 0.79308 0.0
H1382 H 0.85026 0.52109 0.55175 0.0
H1383 H 0.85676 0.55383 0.48622 0.0
C1384 C 0.84845 0.47448 0.69183 0.0
C1385 C 0.86252 0.47133 0.75742 0.0
C1386 C 0.84119 0.49444 0.67345 0.0
C1387 C 0.84869 0.51165 0.71816 0.0
C1388 C 0.85964 0.50774 0.79267 0.0
C1389 C 0.86611 0.48763 0.81289 0.0
C1390 C 0.85568 0.57009 0.68755 0.0
C1391 C 0.85802 0.57145 0.60068 0.0
C1392 C 0.85115 0.551 0.72602 0.0
C1393 C 0.84924 0.53277 0.67857 0.0
C1394 C 0.85094 0.53453 0.59141 0.0
C1395 C 0.85506 0.55349 0.5533 0.0
H1396 H 0.67343 0.62444 0.46349 0.0
H1397 H 0.68679 0.58053 0.26951 0.0
H1398 H 0.70895 0.62059 0.51578 0.0
H1399 H 0.72204 0.57608 0.32311 0.0
H1400 H 0.77257 0.61488 0.60362 0.0
H1401 H 0.7373 0.60246 0.57739 0.0
H1402 H 0.75224 0.59653 0.3164 0.0
H1403 H 0.78745 0.60834 0.34399 0.0
C1404 C 0.68372 0.61343 0.43373 0.0
C1405 C 0.67732 0.60306 0.36159 0.0
C1406 C 0.70418 0.61113 0.46383 0.0
C1407 C 0.7187 0.59822 0.42306 0.0
C1408 C 0.71161 0.58654 0.35511 0.0
C1409 C 0.69129 0.58902 0.32459 0.0
C1410 C 0.76871 0.6095 0.54177 0.0
C1411 C 0.78289 0.61242 0.47601 0.0
C1412 C 0.74825 0.60294 0.52614 0.0
C1413 C 0.74151 0.59914 0.44422 0.0
C1414 C 0.75662 0.59928 0.38043 0.0
C1415 C 0.77709 0.60576 0.39633 0.0
H1416 H 0.61326 0.51568 0.34312 0.0
H1417 H 0.65586 0.54173 0.16402 0.0
H1418 H 0.63174 0.48332 0.34083 0.0
H1419 H 0.67603 0.50958 0.16623 0.0
H1420 H 0.67237 0.44511 0.04978 0.0
H1421 H 0.67103 0.47974 0.10083 0.0
H1422 H 0.6536 0.45653 0.3446 0.0
H1423 H 0.65314 0.42142 0.28974 0.0
C1424 C 0.62742 0.51474 0.30653 0.0
C1425 C 0.63289 0.53099 0.25244 0.0
C1426 C 0.63821 0.49601 0.30514 0.0
C1427 C 0.65504 0.4931 0.25019 0.0
C1428 C 0.66251 0.51067 0.20615 0.0
C1429 C 0.65128 0.52937 0.2061 0.0
C1430 C 0.6684 0.44723 0.1147 0.0
C1431 C 0.66199 0.43042 0.1646 0.0
C1432 C 0.66794 0.4674 0.14486 0.0
C1433 C 0.66147 0.47149 0.22681 0.0
C1434 C 0.65769 0.45433 0.27996 0.0
C1435 C 0.65766 0.43405 0.2489 0.0
H1436 H 0.73653 0.388 0.1384 0.0
H1437 H 0.72943 0.4051 0.88037 0.0
H1438 H 0.77195 0.40185 0.13774 0.0
H1439 H 0.76449 0.41897 0.8789 0.0
H1440 H 0.82919 0.43334 0.8624 0.0
H1441 H 0.79436 0.43907 0.91822 0.0
H1442 H 0.80048 0.3836 0.06824 0.0
H1443 H 0.83561 0.37829 0.01395 0.0
C1444 C 0.74202 0.39604 0.0832 0.0
C1445 C 0.73037 0.39541 0.00921 0.0
C1446 C 0.76247 0.40361 0.08232 0.0
C1447 C 0.77133 0.41093 0.00766 0.0
C1448 C 0.75831 0.41343 0.93765 0.0
C1449 C 0.73802 0.40566 0.93843 0.0
C1450 C 0.82331 0.42274 0.90938 0.0
C1451 C 0.83486 0.40509 0.93255 0.0
C1452 C 0.80335 0.42603 0.94132 0.0
C1453 C 0.79438 0.41157 -0.00377 0.0
C1454 C 0.80688 0.39514 0.02631 0.0
C1455 C 0.82702 0.39198 -0.00505 0.0
H1456 H 0.6374 0.92829 0.87122 0.0
H1457 H 0.67605 0.94261 0.08292 0.0
H1458 H 0.64489 0.96207 0.81125 0.0
H1459 H 0.68457 0.97608 0.02119 0.0
H1460 H 0.65542 0.04141 0.96838 0.0
H1461 H 0.66718 0.0072 0.00858 0.0
H1462 H 0.6648 0.98817 0.75122 0.0
H1463 H 0.6518 0.02237 0.7127 0.0
C1464 C 0.64803 0.93844 0.90373 0.0
C1465 C 0.65573 0.93295 0.98262 0.0
C1466 C 0.65254 0.95787 0.86899 0.0
C1467 C 0.66519 0.9722 0.91162 0.0
C1468 C 0.67434 0.96584 0.98729 0.0
C1469 C 0.6695 0.94657 0.02268 0.0
C1470 C 0.65877 0.03036 0.91967 0.0
C1471 C 0.65233 0.03445 0.83774 0.0
C1472 C 0.66526 0.01043 0.94285 0.0
C1473 C 0.66599 0.9944 0.88373 0.0
C1474 C 0.66351 0.99979 0.79918 0.0
C1475 C 0.65666 0.01965 0.77646 0.0
H1476 H 0.83053 0.90027 0.18956 0.0
H1477 H 0.80533 0.87306 0.41357 0.0
H1478 H 0.79637 0.91361 0.15213 0.0
H1479 H 0.77051 0.88488 0.37334 0.0
H1480 H 0.70955 0.90141 0.30195 0.0
H1481 H 0.74476 0.90957 0.34773 0.0
H1482 H 0.76676 0.90047 0.09601 0.0
H1483 H 0.73161 0.8936 0.05132 0.0
C1484 C 0.81748 0.8969 0.23021 0.0
C1485 C 0.82034 0.88512 0.30316 0.0
C1486 C 0.79787 0.9046 0.20889 0.0
C1487 C 0.78041 0.90016 0.25864 0.0
C1488 C 0.78351 0.88897 0.33367 0.0
C1489 C 0.80338 0.88181 0.35633 0.0
C1490 C 0.72173 0.90283 0.2555 0.0
C1491 C 0.71811 0.89623 0.17373 0.0
C1492 C 0.74208 0.90681 0.2822 0.0
C1493 C 0.7589 0.90439 0.22691 0.0
C1494 C 0.75445 0.90215 0.14145 0.0
C1495 C 0.73406 0.89852 0.11495 0.0
H1496 H 0.90387 0.96792 0.26659 0.0
H1497 H 0.86377 0.95663 0.47759 0.0
H1498 H 0.90443 0.00449 0.29827 0.0
H1499 H 0.86276 0.99359 0.50557 0.0
H1500 H 0.88306 0.05717 0.59233 0.0
H1501 H 0.88316 0.02033 0.56009 0.0
H1502 H 0.88625 0.03518 0.29739 0.0
H1503 H 0.88736 0.07167 0.32999 0.0
C1504 C 0.89501 0.97329 0.31936 0.0
C1505 C 0.88429 0.95922 0.37069 0.0
C1506 C 0.89506 0.99439 0.33706 0.0
C1507 C 0.88385 0.00215 0.40537 0.0
C1508 C 0.87208 0.9882 0.4539 0.0
C1509 C 0.87237 0.96698 0.437 0.0
C1510 C 0.88405 0.05249 0.52784 0.0
C1511 C 0.88536 0.06736 0.46388 0.0
C1512 C 0.88385 0.03136 0.50914 0.0
C1513 C 0.88456 0.02463 0.42592 0.0
C1514 C 0.88606 0.0396 0.36225 0.0
C1515 C 0.88666 0.06064 0.38101 0.0
H1516 H 0.79762 0.10143 0.66817 0.0
H1517 H 0.77732 0.12734 0.43341 0.0
H1518 H 0.76168 0.09802 0.71219 0.0
H1519 H 0.74104 0.12309 0.47576 0.0
H1520 H 0.68121 0.13891 0.62463 0.0
H1521 H 0.71584 0.13756 0.56188 0.0
H1522 H 0.72968 0.0823 0.70526 0.0
H1523 H 0.69562 0.08454 0.77098 0.0
C1524 C 0.78545 0.1058 0.62468 0.0
C1525 C 0.79047 0.11469 0.54715 0.0
C1526 C 0.76464 0.10382 0.64998 0.0
C1527 C 0.74812 0.11036 0.59805 0.0
C1528 C 0.75317 0.11826 0.51856 0.0
C1529 C 0.77404 0.12049 0.49371 0.0
C1530 C 0.69158 0.12632 0.64161 0.0
C1531 C 0.68573 0.11196 0.70336 0.0
C1532 C 0.71151 0.12546 0.60543 0.0
C1533 C 0.72597 0.10998 0.62903 0.0
C1534 C 0.71943 0.09487 0.68702 0.0
C1535 C 0.69974 0.09599 0.72427 0.0
H1536 H 0.32339 0.07244 0.05044 0.0
H1537 H 0.37347 0.07591 0.22898 0.0
H1538 H 0.31645 0.03683 0.09282 0.0
H1539 H 0.36719 0.03999 0.26943 0.0
H1540 H 0.36194 0.97524 0.31817 0.0
H1541 H 0.34816 0.0105 0.32147 0.0
H1542 H 0.33683 0.00762 0.05653 0.0
H1543 H 0.35032 0.9726 0.05454 0.0
C1544 C 0.33261 0.06567 0.10025 0.0
C1545 C 0.34924 0.07673 0.13542 0.0
C1546 C 0.32866 0.04525 0.1244 0.0
C1547 C 0.34154 0.03528 0.1831 0.0
C1548 C 0.35683 0.04711 0.22431 0.0
C1549 C 0.36056 0.06772 0.20096 0.0
C1550 C 0.35512 0.98171 0.26198 0.0
C1551 C 0.35716 0.97128 0.18604 0.0
C1552 C 0.34764 0.00209 0.26344 0.0
C1553 C 0.34201 0.01221 0.18889 0.0
C1554 C 0.34101 1.00048 0.11539 0.0
C1555 C 0.34856 0.98019 0.11407 0.0
H1556 H 0.18584 0.07511 0.76174 0.0
H1557 H 0.1725 0.12328 0.93846 0.0
H1558 H 0.22108 0.07189 0.81677 0.0
H1559 H 0.20809 0.12084 0.99137 0.0
H1560 H 0.2727 0.11766 0.07701 0.0
H1561 H 0.23706 0.10518 0.05823 0.0
H1562 H 0.25102 0.09167 0.80109 0.0
H1563 H 0.28641 0.10361 0.82132 0.0
C1564 C 0.19036 0.08484 0.81336 0.0
C1565 C 0.17639 0.09963 0.84504 0.0
C1566 C 0.21069 0.0831 0.84466 0.0
C1567 C 0.21785 0.09639 0.90762 0.0
C1568 C 0.20332 0.11016 0.94343 0.0
C1569 C 0.18281 0.11166 0.91289 0.0
C1570 C 0.26849 0.11071 0.01818 0.0
C1571 C 0.28245 0.11148 0.95079 0.0
C1572 C 0.24783 0.10407 0.00658 0.0
C1573 C 0.24073 0.09796 0.92734 0.0
C1574 C 0.25562 0.09617 0.86319 0.0
C1575 C 0.27617 0.1028 0.87491 0.0
H1576 H 0.16494 0.9375 0.52235 0.0
H1577 H 0.14728 0.91391 0.76435 0.0
H1578 H 0.16495 0.972 0.57396 0.0
H1579 H 0.1491 0.94896 0.81979 0.0
H1580 H 0.1128 0.01054 0.83097 0.0
H1581 H 0.12946 0.97726 0.82386 0.0
H1582 H 0.17199 0.00135 0.63762 0.0
H1583 H 0.15339 0.03435 0.63987 0.0
C1584 C 0.16151 0.93961 0.58777 0.0
C1585 C 0.15526 0.92284 0.63827 0.0
C1586 C 0.16188 0.95973 0.61831 0.0
C1587 C 0.15646 0.96392 0.70137 0.0
C1588 C 0.15251 0.94677 0.75453 0.0
C1589 C 0.15168 0.92649 0.72312 0.0
C1590 C 0.12627 0.00892 0.79079 0.0
C1591 C 0.13153 0.02486 0.73479 0.0
C1592 C 0.13596 0.98961 0.78637 0.0
C1593 C 0.15156 0.98583 0.7267 0.0
C1594 C 0.15922 0.00305 0.68094 0.0
C1595 C 0.14898 0.0223 0.68363 0.0
H1596 H 0.23869 0.88332 0.60048 0.0
H1597 H 0.21204 0.91359 0.38601 0.0
H1598 H 0.27218 0.89818 0.56924 0.0
H1599 H 0.24505 0.93091 0.35948 0.0
H1600 H 0.30172 0.90581 0.22088 0.0
H1601 H 0.26986 0.91403 0.28963 0.0
H1602 H 0.30183 0.91373 0.52734 0.0
H1603 H 0.33409 0.90402 0.45667 0.0
C1604 C 0.23962 0.89462 0.55039 0.0
C1605 C 0.22313 0.89663 0.49351 0.0
C1606 C 0.25908 0.90311 0.53161 0.0
C1607 C 0.26192 0.91449 0.45736 0.0
C1608 C 0.24389 0.92088 0.41353 0.0
C1609 C 0.22468 0.9115 0.43006 0.0
C1610 C 0.30215 0.90766 0.28783 0.0
C1611 C 0.32042 0.90361 0.33335 0.0
C1612 C 0.28368 0.91283 0.32789 0.0
C1613 C 0.28278 0.91446 0.41522 0.0
C1614 C 0.30156 0.9121 0.46038 0.0
C1615 C 0.32014 0.90653 0.41995 0.0
H1616 H 0.22378 0.30686 0.73149 0.0
H1617 H 0.20929 0.2473 0.62508 0.0
H1618 H 0.2596 0.29636 0.7499 0.0
H1619 H 0.24465 0.23591 0.6517 0.0
H1620 H 0.30522 0.21448 0.68631 0.0
H1621 H 0.27938 0.23649 0.61853 0.0
H1622 H 0.28064 0.27735 0.83097 0.0
H1623 H 0.30753 0.25661 0.89343 0.0
C1624 C 0.22812 0.29131 0.71351 0.0
C1625 C 0.21367 0.278 0.67558 0.0
C1626 C 0.24881 0.28527 0.72411 0.0
C1627 C 0.25538 0.26535 0.70118 0.0
C1628 C 0.24059 0.25168 0.66708 0.0
C1629 C 0.22007 0.258 0.65371 0.0
C1630 C 0.30082 0.22888 0.71575 0.0
C1631 C 0.30752 0.23333 0.79684 0.0
C1632 C 0.28564 0.24126 0.67799 0.0
C1633 C 0.2767 0.25781 0.72207 0.0
C1634 C 0.28656 0.26445 0.79547 0.0
C1635 C 0.30223 0.25249 0.83167 0.0
H1636 H 0.49714 0.48932 0.69476 0.0
H1637 H 0.46093 0.49643 0.91935 0.0
H1638 H 0.51332 0.52304 0.71863 0.0
H1639 H 0.47738 0.52933 0.94508 0.0
H1640 H 0.50481 0.58325 0.01108 0.0
H1641 H 0.48322 0.56463 0.91191 0.0
H1642 H 0.53829 0.53504 0.81286 0.0
H1643 H 0.5596 0.55397 0.90845 0.0
C1644 C 0.49289 0.49798 0.74972 0.0
C1645 C 0.47816 0.49014 0.80623 0.0
C1646 C 0.50189 0.51739 0.76279 0.0
C1647 C 0.49651 0.52911 0.83322 0.0
C1648 C 0.48151 0.5212 0.88872 0.0
C1649 C 0.47239 0.50205 0.87512 0.0
C1650 C 0.51237 0.57364 0.96504 0.0
C1651 C 0.53374 0.5692 0.97041 0.0
C1652 C 0.49999 0.56281 0.90861 0.0
C1653 C 0.50894 0.54736 0.85841 0.0
C1654 C 0.53072 0.54637 0.85196 0.0
C1655 C 0.54304 0.55727 0.90755 0.0
H1656 H 0.18724 0.756 0.30417 0.0
H1657 H 0.21639 0.80882 0.18534 0.0
H1658 H 0.20013 0.73397 0.19281 0.0
H1659 H 0.22992 0.78697 0.07818 0.0
H1660 H 0.26445 0.74393 0.91825 0.0
H1661 H 0.2342 0.76279 0.97224 0.0
H1662 H 0.23548 0.72428 0.19399 0.0
H1663 H 0.26465 0.70527 0.13862 0.0
C1664 C 0.19584 0.76302 0.25333 0.0
C1665 C 0.20164 0.78392 0.25568 0.0
C1666 C 0.20329 0.75042 0.18964 0.0
C1667 C 0.21697 0.75855 0.12916 0.0
C1668 C 0.21975 0.78003 0.12426 0.0
C1669 C 0.21211 0.79261 0.18692 0.0
C1670 C 0.25814 0.73969 0.97853 0.0
C1671 C 0.26699 0.72351 0.02523 0.0
C1672 C 0.24072 0.75024 0.00898 0.0
C1673 C 0.23221 0.74494 0.08714 0.0
C1674 C 0.24105 0.72845 0.13252 0.0
C1675 C 0.25812 0.71781 0.10168 0.0
H1676 H 0.05076 0.54654 0.56363 0.0
H1677 H 0.00681 0.55344 0.36118 0.0
H1678 H 0.02736 0.52214 0.63161 0.0
H1679 H 0.98415 0.52834 0.42619 0.0
H1680 H 0.94732 0.47929 0.56052 0.0
H1681 H 0.96307 0.51235 0.52642 0.0
H1682 H 0.02385 0.48722 0.58629 0.0
H1683 H 0.00791 0.45443 0.62493 0.0
C1684 C 0.03579 0.54343 0.53513 0.0
C1685 C 0.03104 0.55107 0.45532 0.0
C1686 C 0.02253 0.52922 0.57338 0.0
C1687 C 1.00455 0.52243 0.53177 0.0
C1688 C 0.9981 0.5329 0.45925 0.0
C1689 C 0.01116 0.5474 0.42184 0.0
C1690 C 0.9641 0.4807 0.56534 0.0
C1691 C 0.97644 0.46424 0.59562 0.0
C1692 C 0.97308 0.49976 0.54648 0.0
C1693 C 0.99463 0.50263 0.55571 0.0
C1694 C 0.00708 0.4858 0.58166 0.0
C1695 C 0.99805 0.46685 0.60192 0.0
H1696 H 0.69722 0.75586 0.2345 0.0
H1697 H 0.72793 0.81168 0.31585 0.0
H1698 H 0.73081 0.73889 0.22292 0.0
H1699 H 0.76128 0.79602 0.29306 0.0
H1700 H 0.81362 0.75291 0.37319 0.0
H1701 H 0.78539 0.77578 0.34186 0.0
H1702 H 0.76146 0.73191 0.16277 0.0
H1703 H 0.789 0.70785 0.20275 0.0
C1704 C 0.71115 0.76458 0.24899 0.0
C1705 C 0.70974 0.7852 0.27533 0.0
C1706 C 0.73061 0.75502 0.24033 0.0
C1707 C 0.74925 0.76598 0.2557 0.0
C1708 C 0.74764 0.78663 0.28217 0.0
C1709 C 0.72826 0.7958 0.29471 0.0
C1710 C 0.80288 0.74844 0.32443 0.0
C1711 C 0.8029 0.72822 0.29352 0.0
C1712 C 0.78629 0.76167 0.30641 0.0
C1713 C 0.76997 0.75527 0.25356 0.0
C1714 C 0.77277 0.73682 0.20851 0.0
C1715 C 0.78897 0.72323 0.22929 0.0
H1716 H 0.75189 0.20277 0.66904 0.0
H1717 H 0.7527 0.24161 0.44911 0.0
H1718 H 0.72266 0.22182 0.72279 0.0
H1719 H 0.72232 0.26046 0.50132 0.0
H1720 H 0.71089 0.30757 0.71562 0.0
H1721 H 0.72058 0.28482 0.60598 0.0
H1722 H 0.68846 0.2344 0.72933 0.0
H1723 H 0.67902 0.25757 0.8427 0.0
C1724 C 0.74551 0.21527 0.63149 0.0
C1725 C 0.75493 0.22122 0.55633 0.0
C1726 C 0.72836 0.22597 0.6615 0.0
C1727 C 0.72003 0.24281 0.61666 0.0
C1728 C 0.72857 0.2478 0.53819 0.0
C1729 C 0.74608 0.23723 0.5087 0.0
C1730 C 0.70513 0.29184 0.71864 0.0
C1731 C 0.69497 0.28416 0.78996 0.0
C1732 C 0.71058 0.27869 0.65446 0.0
C1733 C 0.70618 0.25749 0.66066 0.0
C1734 C 0.69285 0.25055 0.72474 0.0
C1735 C 0.68743 0.26379 0.78971 0.0
H1736 H 0.95775 0.97153 0.34636 0.0
H1737 H 0.02213 0.95364 0.31742 0.0
H1738 H 0.96788 0.00698 0.36741 0.0
H1739 H 0.03261 0.98917 0.34357 0.0
H1740 H 0.99883 0.05427 0.54827 0.0
H1741 H 0.98237 0.0263 0.47368 0.0
H1742 H 0.03468 0.02396 0.30435 0.0
H1743 H 0.05178 0.05071 0.38363 0.0
C1744 C 0.9741 0.97502 0.34488 0.0
C1745 C 0.98911 0.95953 0.33129 0.0
C1746 C 0.97995 0.99556 0.357 0.0
C1747 C 1.00108 0.00114 0.3578 0.0
C1748 C 0.01612 0.9857 0.34179 0.0
C1749 C 0.01017 0.9652 0.32786 0.0
C1750 C 0.00634 0.04857 0.49252 0.0
C1751 C 0.02678 0.05457 0.47274 0.0
C1752 C 0.99694 0.03229 0.44973 0.0
C1753 C 0.00762 0.02218 0.38492 0.0
C1754 C 0.0264 0.03077 0.35614 0.0
C1755 C 0.036 0.04663 0.40025 0.0
H1756 H 0.49335 0.94448 0.13855 0.0
H1757 H 0.45435 0.97907 0.96784 0.0
H1758 H 0.51376 0.97498 0.1644 0.0
H1759 H 0.47604 0.00914 0.98622 0.0
H1760 H 0.51242 0.06248 0.00856 0.0
H1761 H 0.48729 0.03681 0.05442 0.0
H1762 H 0.53814 0.99634 0.1277 0.0
H1763 H 0.56257 0.02279 0.09162 0.0
C1764 C 0.48936 0.95855 0.10509 0.0
C1765 C 0.47191 0.95941 0.05226 0.0
C1766 C 0.50119 0.97625 0.11993 0.0
C1767 C 0.49658 0.9951 0.07918 0.0
C1768 C 0.47974 0.99549 0.02263 0.0
C1769 C 0.46748 0.97799 0.01015 0.0
C1770 C 0.5181 0.04853 0.03885 0.0
C1771 C 0.53948 0.04396 0.0411 0.0
C1772 C 0.50368 0.03344 0.06296 0.0
C1773 C 0.51054 0.01352 0.08725 0.0
C1774 C 0.53184 0.01093 0.10609 0.0
C1775 C 0.54611 0.0263 0.08526 0.0
loop_
_geom_bond_atom_site_label_1
_geom_bond_atom_site_label_2
_geom_bond_distance
_geom_bond_site_symmetry_2
_ccdc_geom_bond_type
C0 O27 1.312 . S
C0 O28 1.208 . S
C1 O22 1.331 . S
C1 O25 1.244 . S
C2 O24 1.264 . S
C2 O26 1.273 . S
Mg3 O5 1.936 . S
Mg3 O12 2.081 . S
Mg3 O14 2.023 . S
Mg3 O18 2.031 . S
Mg3 O27 2.291 . S
Mg4 O5 1.963 . S
Mg4 O15 1.942 . S
Mg4 O16 1.955 . S
Mg4 O23 1.986 . S
O5 Mg3 1.936 . S
O5 Mg4 1.963 . S
O5 Mg6 1.915 . S
Mg6 O5 1.915 . S
Mg6 O7 1.915 . S
Mg6 O11 2.013 . S
Mg6 O17 2.114 . S
Mg6 O21 2.013 . S
Mg6 O27 2.114 . S
O7 Mg6 1.915 . S
O7 Mg8 1.936 . S
O7 Mg9 1.963 . S
Mg8 O7 1.936 . S
Mg8 O17 2.291 . S
Mg8 O22 2.081 . S
Mg8 O24 2.023 . S
Mg8 O28 2.031 . S
Mg9 O7 1.963 . S
Mg9 O13 1.986 . S
Mg9 O25 1.942 . S
Mg9 O26 1.955 . S
C10 O21 1.191 . S
C10 O23 1.307 . S
O11 Mg6 2.013 . S
O11 C30 1.191 . S
O12 Mg3 2.081 . S
O12 C20 1.331 . S
O13 Mg9 1.986 . S
O13 C30 1.307 . S
O14 Mg3 2.023 . S
O14 C29 1.264 . S
O15 Mg4 1.942 . S
O15 C20 1.244 . S
O16 Mg4 1.955 . S
O16 C29 1.273 . S
O17 Mg6 2.114 . S
O17 Mg8 2.291 . S
O17 C19 1.312 . S
O18 Mg3 2.031 . S
O18 C19 1.208 . S
C19 O17 1.312 . S
C19 O18 1.208 . S
C20 O12 1.331 . S
C20 O15 1.244 . S
O21 Mg6 2.013 . S
O21 C10 1.191 . S
O22 C1 1.331 . S
O22 Mg8 2.081 . S
O23 Mg4 1.986 . S
O23 C10 1.307 . S
O24 C2 1.264 . S
O24 Mg8 2.023 . S
O25 C1 1.244 . S
O25 Mg9 1.942 . S
O26 C2 1.273 . S
O26 Mg9 1.955 . S
O27 C0 1.312 . S
O27 Mg3 2.291 . S
O27 Mg6 2.114 . S
O28 C0 1.208 . S
O28 Mg8 2.031 . S
C29 O14 1.264 . S
C29 O16 1.273 . S
C30 O11 1.191 . S
C30 O13 1.307 . S
C31 O58 1.312 . S
C31 O59 1.208 . S
C32 O53 1.331 . S
C32 O56 1.244 . S
C33 O55 1.264 . S
C33 O57 1.273 . S
Mg34 O36 1.936 . S
Mg34 O43 2.081 . S
Mg34 O45 2.023 . S
Mg34 O49 2.031 . S
Mg34 O58 2.291 . S
Mg35 O36 1.963 . S
Mg35 O46 1.942 . S
Mg35 O47 1.955 . S
Mg35 O54 1.986 . S
O36 Mg34 1.936 . S
O36 Mg35 1.963 . S
O36 Mg37 1.915 . S
Mg37 O36 1.915 . S
Mg37 O38 1.915 . S
Mg37 O42 2.013 . S
Mg37 O48 2.114 . S
Mg37 O52 2.013 . S
Mg37 O58 2.114 . S
O38 Mg37 1.915 . S
O38 Mg39 1.936 . S
O38 Mg40 1.963 . S
Mg39 O38 1.936 . S
Mg39 O48 2.291 . S
Mg39 O53 2.081 . S
Mg39 O55 2.023 . S
Mg39 O59 2.031 . S
Mg40 O38 1.963 . S
Mg40 O44 1.986 . S
Mg40 O56 1.942 . S
Mg40 O57 1.955 . S
C41 O52 1.191 . S
C41 O54 1.307 . S
O42 Mg37 2.013 . S
O42 C61 1.191 . S
O43 Mg34 2.081 . S
O43 C51 1.331 . S
O44 Mg40 1.986 . S
O44 C61 1.307 . S
O45 Mg34 2.023 . S
O45 C60 1.264 . S
O46 Mg35 1.942 . S
O46 C51 1.244 . S
O47 Mg35 1.955 . S
O47 C60 1.273 . S
O48 Mg37 2.114 . S
O48 Mg39 2.291 . S
O48 C50 1.312 . S
O49 Mg34 2.031 . S
O49 C50 1.208 . S
C50 O48 1.312 . S
C50 O49 1.208 . S
C51 O43 1.331 . S
C51 O46 1.244 . S
O52 Mg37 2.013 . S
O52 C41 1.191 . S
O53 C32 1.331 . S
O53 Mg39 2.081 . S
O54 Mg35 1.986 . S
O54 C41 1.307 . S
O55 C33 1.264 . S
O55 Mg39 2.023 . S
O56 C32 1.244 . S
O56 Mg40 1.942 . S
O57 C33 1.273 . S
O57 Mg40 1.955 . S
O58 C31 1.312 . S
O58 Mg34 2.291 . S
O58 Mg37 2.114 . S
O59 C31 1.208 . S
O59 Mg39 2.031 . S
C60 O45 1.264 . S
C60 O47 1.273 . S
C61 O42 1.191 . S
C61 O44 1.307 . S
C62 O89 1.312 . S
C62 O90 1.208 . S
C63 O84 1.331 1_556 S
C63 O87 1.244 . S
C64 O86 1.264 . S
C64 O88 1.273 . S
Mg65 O67 1.936 . S
Mg65 O74 2.081 . S
Mg65 O76 2.013 1_554 S
Mg65 O80 2.031 . S
Mg65 O89 2.291 . S
Mg66 O67 1.963 1_556 S
Mg66 O77 1.942 1_556 S
Mg66 O78 1.955 . S
Mg66 O85 1.986 . S
O67 Mg65 1.936 . S
O67 Mg66 1.963 1_554 S
O67 Mg68 1.915 . S
Mg68 O67 1.915 . S
Mg68 O69 1.915 . S
Mg68 O73 2.013 1_554 S
Mg68 O79 2.114 . S
Mg68 O83 2.013 . S
Mg68 O89 2.114 . S
O69 Mg68 1.915 . S
O69 Mg70 1.935 . S
O69 Mg71 1.964 1_554 S
Mg70 O69 1.935 . S
Mg70 O79 2.291 . S
Mg70 O84 2.081 . S
Mg70 O86 2.023 . S
Mg70 O90 2.031 . S
Mg71 O69 1.964 1_556 S
Mg71 O75 1.986 . S
Mg71 O87 1.942 . S
Mg71 O88 1.955 1_556 S
C72 O83 1.191 . S
C72 O85 1.307 1_554 S
O73 Mg68 2.013 1_556 S
O73 C92 1.191 . S
O74 Mg65 2.081 . S
O74 C82 1.331 . S
O75 Mg71 1.986 . S
O75 C92 1.307 . S
O76 Mg65 2.013 1_556 S
O76 C91 1.275 . S
O77 Mg66 1.942 1_554 S
O77 C82 1.244 . S
O78 Mg66 1.955 . S
O78 C91 1.273 . S
O79 Mg68 2.114 . S
O79 Mg70 2.291 . S
O79 C81 1.312 . S
O80 Mg65 2.031 . S
O80 C81 1.208 . S
C81 O79 1.312 . S
C81 O80 1.208 . S
C82 O74 1.331 . S
C82 O77 1.244 . S
O83 Mg68 2.013 . S
O83 C72 1.191 . S
O84 C63 1.331 1_554 S
O84 Mg70 2.081 . S
O85 Mg66 1.986 . S
O85 C72 1.307 1_556 S
O86 C64 1.264 . S
O86 Mg70 2.023 . S
O87 C63 1.244 . S
O87 Mg71 1.942 . S
O88 C64 1.273 . S
O88 Mg71 1.955 1_554 S
O89 C62 1.312 . S
O89 Mg65 2.291 . S
O89 Mg68 2.114 . S
O90 C62 1.208 . S
O90 Mg70 2.031 . S
C91 O76 1.275 . S
C91 O78 1.273 . S
C92 O73 1.191 . S
C92 O75 1.307 . S
C93 O120 1.312 . S
C93 O121 1.208 . S
C94 O115 1.331 . S
C94 O118 1.244 . S
C95 O117 1.264 . S
C95 O119 1.273 . S
Mg96 O98 1.936 . S
Mg96 O105 2.081 . S
Mg96 O107 2.023 . S
Mg96 O111 2.031 . S
Mg96 O120 2.291 . S
Mg97 O98 1.963 . S
Mg97 O108 1.942 . S
Mg97 O109 1.955 . S
Mg97 O116 1.986 . S
O98 Mg96 1.936 . S
O98 Mg97 1.963 . S
O98 Mg99 1.915 . S
Mg99 O98 1.915 . S
Mg99 O100 1.915 . S
Mg99 O104 2.013 . S
Mg99 O110 2.114 . S
Mg99 O114 2.013 . S
Mg99 O120 2.114 . S
O100 Mg99 1.915 . S
O100 Mg101 1.936 . S
O100 Mg102 1.963 . S
Mg101 O100 1.936 . S
Mg101 O110 2.291 . S
Mg101 O115 2.081 . S
Mg101 O117 2.023 . S
Mg101 O121 2.031 . S
Mg102 O100 1.963 . S
Mg102 O106 1.986 . S
Mg102 O118 1.942 . S
Mg102 O119 1.955 . S
C103 O114 1.191 . S
C103 O116 1.307 . S
O104 Mg99 2.013 . S
O104 C123 1.191 . S
O105 Mg96 2.081 . S
O105 C113 1.331 . S
O106 Mg102 1.986 . S
O106 C123 1.307 . S
O107 Mg96 2.023 . S
O107 C122 1.264 . S
O108 Mg97 1.942 . S
O108 C113 1.244 . S
O109 Mg97 1.955 . S
O109 C122 1.273 . S
O110 Mg99 2.114 . S
O110 Mg101 2.291 . S
O110 C112 1.312 . S
O111 Mg96 2.031 . S
O111 C112 1.208 . S
C112 O110 1.312 . S
C112 O111 1.208 . S
C113 O105 1.331 . S
C113 O108 1.244 . S
O114 Mg99 2.013 . S
O114 C103 1.191 . S
O115 C94 1.331 . S
O115 Mg101 2.081 . S
O116 Mg97 1.986 . S
O116 C103 1.307 . S
O117 C95 1.264 . S
O117 Mg101 2.023 . S
O118 C94 1.244 . S
O118 Mg102 1.942 . S
O119 C95 1.273 . S
O119 Mg102 1.955 . S
O120 C93 1.312 . S
O120 Mg96 2.291 . S
O120 Mg99 2.114 . S
O121 C93 1.208 . S
O121 Mg101 2.031 . S
C122 O107 1.264 . S
C122 O109 1.273 . S
C123 O104 1.191 . S
C123 O106 1.307 . S
C124 O151 1.312 . S
C124 O152 1.208 . S
C125 O146 1.331 . S
C125 O149 1.244 . S
C126 O148 1.264 . S
C126 O150 1.273 . S
Mg127 O129 1.936 . S
Mg127 O136 2.081 . S
Mg127 O138 2.023 . S
Mg127 O142 2.031 . S
Mg127 O151 2.291 . S
Mg128 O129 1.963 . S
Mg128 O139 1.942 . S
Mg128 O140 1.955 . S
Mg128 O147 1.986 . S
O129 Mg127 1.936 . S
O129 Mg128 1.963 . S
O129 Mg130 1.915 . S
Mg130 O129 1.915 . S
Mg130 O131 1.915 . S
Mg130 O135 2.013 . S
Mg130 O141 2.114 . S
Mg130 O145 2.013 . S
Mg130 O151 2.114 . S
O131 Mg130 1.915 . S
O131 Mg132 1.936 . S
O131 Mg133 1.963 . S
Mg132 O131 1.936 . S
Mg132 O141 2.291 . S
Mg132 O146 2.081 . S
Mg132 O148 2.023 . S
Mg132 O152 2.031 . S
Mg133 O131 1.963 . S
Mg133 O137 1.986 . S
Mg133 O149 1.942 . S
Mg133 O150 1.955 . S
C134 O145 1.191 . S
C134 O147 1.307 . S
O135 Mg130 2.013 . S
O135 C154 1.191 . S
O136 Mg127 2.081 . S
O136 C144 1.331 . S
O137 Mg133 1.986 . S
O137 C154 1.307 . S
O138 Mg127 2.023 . S
O138 C153 1.264 . S
O139 Mg128 1.942 . S
O139 C144 1.244 . S
O140 Mg128 1.955 . S
O140 C153 1.273 . S
O141 Mg130 2.114 . S
O141 Mg132 2.291 . S
O141 C143 1.312 . S
O142 Mg127 2.031 . S
O142 C143 1.208 . S
C143 O141 1.312 . S
C143 O142 1.208 . S
C144 O136 1.331 . S
C144 O139 1.244 . S
O145 Mg130 2.013 . S
O145 C134 1.191 . S
O146 C125 1.331 . S
O146 Mg132 2.081 . S
O147 Mg128 1.986 . S
O147 C134 1.307 . S
O148 C126 1.264 . S
O148 Mg132 2.023 . S
O149 C125 1.244 . S
O149 Mg133 1.942 . S
O150 C126 1.273 . S
O150 Mg133 1.955 . S
O151 C124 1.312 . S
O151 Mg127 2.291 . S
O151 Mg130 2.114 . S
O152 C124 1.208 . S
O152 Mg132 2.031 . S
C153 O138 1.264 . S
C153 O140 1.273 . S
C154 O135 1.191 . S
C154 O137 1.307 . S
C155 O182 1.312 . S
C155 O183 1.208 . S
C156 O177 1.331 . S
C156 O180 1.244 . S
C157 O179 1.264 . S
C157 O181 1.273 . S
Mg158 O160 1.936 . S
Mg158 O167 2.081 . S
Mg158 O169 2.023 . S
Mg158 O173 2.031 . S
Mg158 O182 2.291 . S
Mg159 O160 1.963 . S
Mg159 O170 1.942 . S
Mg159 O171 1.955 . S
Mg159 O178 1.986 . S
O160 Mg158 1.936 . S
O160 Mg159 1.963 . S
O160 Mg161 1.915 . S
Mg161 O160 1.915 . S
Mg161 O162 1.915 . S
Mg161 O166 2.013 . S
Mg161 O172 2.114 . S
Mg161 O176 2.013 . S
Mg161 O182 2.114 . S
O162 Mg161 1.915 . S
O162 Mg163 1.936 . S
O162 Mg164 1.963 . S
Mg163 O162 1.936 . S
Mg163 O172 2.291 . S
Mg163 O177 2.081 . S
Mg163 O179 2.023 . S
Mg163 O183 2.031 . S
Mg164 O162 1.963 . S
Mg164 O168 1.986 . S
Mg164 O180 1.942 . S
Mg164 O181 1.955 . S
C165 O176 1.191 . S
C165 O178 1.307 . S
O166 Mg161 2.013 . S
O166 C185 1.191 . S
O167 Mg158 2.081 . S
O167 C175 1.331 . S
O168 Mg164 1.986 . S
O168 C185 1.307 . S
O169 Mg158 2.023 . S
O169 C184 1.264 . S
O170 Mg159 1.942 . S
O170 C175 1.244 . S
O171 Mg159 1.955 . S
O171 C184 1.273 . S
O172 Mg161 2.114 . S
O172 Mg163 2.291 . S
O172 C174 1.312 . S
O173 Mg158 2.031 . S
O173 C174 1.208 . S
C174 O172 1.312 . S
C174 O173 1.208 . S
C175 O167 1.331 . S
C175 O170 1.244 . S
O176 Mg161 2.013 . S
O176 C165 1.191 . S
O177 C156 1.331 . S
O177 Mg163 2.081 . S
O178 Mg159 1.986 . S
O178 C165 1.307 . S
O179 C157 1.264 . S
O179 Mg163 2.023 . S
O180 C156 1.244 . S
O180 Mg164 1.942 . S
O181 C157 1.273 . S
O181 Mg164 1.955 . S
O182 C155 1.312 . S
O182 Mg158 2.291 . S
O182 Mg161 2.114 . S
O183 C155 1.208 . S
O183 Mg163 2.031 . S
C184 O169 1.264 . S
C184 O171 1.273 . S
C185 O166 1.191 . S
C185 O168 1.307 . S
C186 O213 1.312 . S
C186 O214 1.208 . S
C187 O208 1.331 . S
C187 O211 1.244 . S
C188 O210 1.264 . S
C188 O212 1.273 . S
Mg189 O191 1.936 . S
Mg189 O198 2.081 . S
Mg189 O200 2.023 1_554 S
Mg189 O204 2.031 . S
Mg189 O213 2.291 . S
Mg190 O191 1.963 1_556 S
Mg190 O201 1.942 1_556 S
Mg190 O202 1.955 . S
Mg190 O209 1.986 . S
O191 Mg189 1.936 . S
O191 Mg190 1.963 1_554 S
O191 Mg192 1.915 . S
Mg192 O191 1.915 . S
Mg192 O193 1.915 1_554 S
Mg192 O197 2.013 1_554 S
Mg192 O203 2.114 . S
Mg192 O207 2.013 . S
Mg192 O213 2.114 . S
O193 Mg192 1.915 1_556 S
O193 Mg194 1.936 1_556 S
O193 Mg195 1.963 . S
Mg194 O193 1.936 1_554 S
Mg194 O203 2.291 . S
Mg194 O208 2.081 1_554 S
Mg194 O210 2.023 . S
Mg194 O214 2.031 . S
Mg195 O193 1.963 . S
Mg195 O199 1.986 . S
Mg195 O211 1.942 . S
Mg195 O212 1.955 1_556 S
C196 O207 1.191 . S
C196 O209 1.307 1_554 S
O197 Mg192 2.013 1_556 S
O197 C216 1.191 . S
O198 Mg189 2.081 . S
O198 C206 1.331 . S
O199 Mg195 1.986 . S
O199 C216 1.307 . S
O200 Mg189 2.023 1_556 S
O200 C215 1.264 . S
O201 Mg190 1.942 1_554 S
O201 C206 1.244 . S
O202 Mg190 1.955 . S
O202 C215 1.273 . S
O203 Mg192 2.114 . S
O203 Mg194 2.291 . S
O203 C205 1.312 . S
O204 Mg189 2.031 . S
O204 C205 1.208 . S
C205 O203 1.312 . S
C205 O204 1.208 . S
C206 O198 1.331 . S
C206 O201 1.244 . S
O207 Mg192 2.013 . S
O207 C196 1.191 . S
O208 C187 1.331 . S
O208 Mg194 2.081 1_556 S
O209 Mg190 1.986 . S
O209 C196 1.307 1_556 S
O210 C188 1.264 . S
O210 Mg194 2.023 . S
O211 C187 1.244 . S
O211 Mg195 1.942 . S
O212 C188 1.273 . S
O212 Mg195 1.955 1_554 S
O213 C186 1.312 . S
O213 Mg189 2.291 . S
O213 Mg192 2.114 . S
O214 C186 1.208 . S
O214 Mg194 2.031 . S
C215 O200 1.264 . S
C215 O202 1.273 . S
C216 O197 1.191 . S
C216 O199 1.307 . S
C217 O244 1.312 . S
C217 O245 1.208 . S
C218 O239 1.331 . S
C218 O242 1.244 . S
C219 O241 1.264 . S
C219 O243 1.273 . S
Mg220 O222 1.936 . S
Mg220 O229 2.081 . S
Mg220 O231 2.023 . S
Mg220 O235 2.031 . S
Mg220 O244 2.291 . S
Mg221 O222 1.963 . S
Mg221 O232 1.942 . S
Mg221 O233 1.955 . S
Mg221 O240 1.986 . S
O222 Mg220 1.936 . S
O222 Mg221 1.963 . S
O222 Mg223 1.915 . S
Mg223 O222 1.915 . S
Mg223 O224 1.915 . S
Mg223 O228 2.013 . S
Mg223 O234 2.114 . S
Mg223 O238 2.013 . S
Mg223 O244 2.114 . S
O224 Mg223 1.915 . S
O224 Mg225 1.936 . S
O224 Mg226 1.963 . S
Mg225 O224 1.936 . S
Mg225 O234 2.291 . S
Mg225 O239 2.081 . S
Mg225 O241 2.023 . S
Mg225 O245 2.031 . S
Mg226 O224 1.963 . S
Mg226 O230 1.986 . S
Mg226 O242 1.942 . S
Mg226 O243 1.955 . S
C227 O238 1.191 . S
C227 O240 1.307 . S
O228 Mg223 2.013 . S
O228 C247 1.191 . S
O229 Mg220 2.081 . S
O229 C237 1.331 . S
O230 Mg226 1.986 . S
O230 C247 1.307 . S
O231 Mg220 2.023 . S
O231 C246 1.264 . S
O232 Mg221 1.942 . S
O232 C237 1.244 . S
O233 Mg221 1.955 . S
O233 C246 1.273 . S
O234 Mg223 2.114 . S
O234 Mg225 2.291 . S
O234 C236 1.312 . S
O235 Mg220 2.031 . S
O235 C236 1.208 . S
C236 O234 1.312 . S
C236 O235 1.208 . S
C237 O229 1.331 . S
C237 O232 1.244 . S
O238 Mg223 2.013 . S
O238 C227 1.191 . S
O239 C218 1.331 . S
O239 Mg225 2.081 . S
O240 Mg221 1.986 . S
O240 C227 1.307 . S
O241 C219 1.264 . S
O241 Mg225 2.023 . S
O242 C218 1.244 . S
O242 Mg226 1.942 . S
O243 C219 1.273 . S
O243 Mg226 1.955 . S
O244 C217 1.312 . S
O244 Mg220 2.291 . S
O244 Mg223 2.114 . S
O245 C217 1.208 . S
O245 Mg225 2.031 . S
C246 O231 1.264 . S
C246 O233 1.273 . S
C247 O228 1.191 . S
C247 O230 1.307 . S
C248 O275 1.312 . S
C248 O276 1.208 . S
C249 O270 1.331 . S
C249 O273 1.244 . S
C250 O272 1.264 . S
C250 O274 1.273 . S
Mg251 O253 1.936 1_556 S
Mg251 O260 2.081 1_556 S
Mg251 O262 2.023 . S
Mg251 O266 2.031 . S
Mg251 O275 2.291 . S
Mg252 O253 1.963 . S
Mg252 O263 1.942 . S
Mg252 O264 1.955 . S
Mg252 O271 1.986 . S
O253 Mg251 1.936 1_554 S
O253 Mg252 1.963 . S
O253 Mg254 1.915 . S
Mg254 O253 1.915 . S
Mg254 O255 1.915 . S
Mg254 O259 2.013 . S
Mg254 O265 2.114 . S
Mg254 O269 2.013 . S
Mg254 O275 2.114 1_554 S
O255 Mg254 1.915 . S
O255 Mg256 1.936 1_554 S
O255 Mg257 1.963 . S
Mg256 O255 1.936 1_556 S
Mg256 O265 2.291 1_556 S
Mg256 O270 2.081 . S
Mg256 O272 2.023 1_556 S
Mg256 O276 2.031 . S
Mg257 O255 1.963 . S
Mg257 O261 1.986 . S
Mg257 O273 1.942 1_554 S
Mg257 O274 1.955 . S
C258 O269 1.191 . S
C258 O271 1.307 . S
O259 Mg254 2.013 . S
O259 C278 1.191 . S
O260 Mg251 2.081 1_554 S
O260 C268 1.331 . S
O261 Mg257 1.986 . S
O261 C278 1.307 . S
O262 Mg251 2.023 . S
O262 C277 1.264 . S
O263 Mg252 1.942 . S
O263 C268 1.244 . S
O264 Mg252 1.955 . S
O264 C277 1.273 1_554 S
O265 Mg254 2.114 . S
O265 Mg256 2.291 1_554 S
O265 C267 1.312 . S
O266 Mg251 2.031 . S
O266 C267 1.208 1_556 S
C267 O265 1.312 . S
C267 O266 1.208 1_554 S
C268 O260 1.331 . S
C268 O263 1.244 . S
O269 Mg254 2.013 . S
O269 C258 1.191 . S
O270 C249 1.331 . S
O270 Mg256 2.081 . S
O271 Mg252 1.986 . S
O271 C258 1.307 . S
O272 C250 1.264 . S
O272 Mg256 2.023 1_554 S
O273 C249 1.244 . S
O273 Mg257 1.942 1_556 S
O274 C250 1.273 . S
O274 Mg257 1.955 . S
O275 C248 1.312 . S
O275 Mg251 2.291 . S
O275 Mg254 2.114 1_556 S
O276 C248 1.208 . S
O276 Mg256 2.031 . S
C277 O262 1.264 . S
C277 O264 1.273 1_556 S
C278 O259 1.191 . S
C278 O261 1.307 . S
C279 O306 1.312 . S
C279 O307 1.208 . S
C280 O301 1.331 . S
C280 O304 1.244 . S
C281 O303 1.264 . S
C281 O305 1.273 . S
Mg282 O284 1.936 . S
Mg282 O291 2.081 . S
Mg282 O293 2.023 . S
Mg282 O297 2.031 . S
Mg282 O306 2.291 . S
Mg283 O284 1.963 . S
Mg283 O294 1.942 . S
Mg283 O295 1.955 . S
Mg283 O302 1.986 . S
O284 Mg282 1.936 . S
O284 Mg283 1.963 . S
O284 Mg285 1.915 . S
Mg285 O284 1.915 . S
Mg285 O286 1.915 . S
Mg285 O290 2.013 . S
Mg285 O296 2.114 . S
Mg285 O300 2.013 . S
Mg285 O306 2.114 . S
O286 Mg285 1.915 . S
O286 Mg287 1.936 . S
O286 Mg288 1.963 . S
Mg287 O286 1.936 . S
Mg287 O296 2.291 . S
Mg287 O301 2.081 . S
Mg287 O303 2.023 . S
Mg287 O307 2.031 . S
Mg288 O286 1.963 . S
Mg288 O292 1.986 . S
Mg288 O304 1.942 . S
Mg288 O305 1.955 . S
C289 O300 1.191 . S
C289 O302 1.307 . S
O290 Mg285 2.013 . S
O290 C309 1.191 . S
O291 Mg282 2.081 . S
O291 C299 1.331 . S
O292 Mg288 1.986 . S
O292 C309 1.307 . S
O293 Mg282 2.023 . S
O293 C308 1.264 . S
O294 Mg283 1.942 . S
O294 C299 1.244 . S
O295 Mg283 1.955 . S
O295 C308 1.273 . S
O296 Mg285 2.114 . S
O296 Mg287 2.291 . S
O296 C298 1.312 . S
O297 Mg282 2.031 . S
O297 C298 1.208 . S
C298 O296 1.312 . S
C298 O297 1.208 . S
C299 O291 1.331 . S
C299 O294 1.244 . S
O300 Mg285 2.013 . S
O300 C289 1.191 . S
O301 C280 1.331 . S
O301 Mg287 2.081 . S
O302 Mg283 1.986 . S
O302 C289 1.307 . S
O303 C281 1.264 . S
O303 Mg287 2.023 . S
O304 C280 1.244 . S
O304 Mg288 1.942 . S
O305 C281 1.273 . S
O305 Mg288 1.955 . S
O306 C279 1.312 . S
O306 Mg282 2.291 . S
O306 Mg285 2.114 . S
O307 C279 1.208 . S
O307 Mg287 2.031 . S
C308 O293 1.264 . S
C308 O295 1.273 . S
C309 O290 1.191 . S
C309 O292 1.307 . S
C310 O337 1.312 . S
C310 O338 1.208 . S
C311 O332 1.331 . S
C311 O335 1.244 . S
C312 O334 1.264 . S
C312 O336 1.273 . S
Mg313 O315 1.936 . S
Mg313 O322 2.081 . S
Mg313 O324 2.023 . S
Mg313 O328 2.031 . S
Mg313 O337 2.291 . S
Mg314 O315 1.963 . S
Mg314 O325 1.942 . S
Mg314 O326 1.955 . S
Mg314 O333 1.986 . S
O315 Mg313 1.936 . S
O315 Mg314 1.963 . S
O315 Mg316 1.915 . S
Mg316 O315 1.915 . S
Mg316 O317 1.915 . S
Mg316 O321 2.013 . S
Mg316 O327 2.114 . S
Mg316 O331 2.013 . S
Mg316 O337 2.114 . S
O317 Mg316 1.915 . S
O317 Mg318 1.936 . S
O317 Mg319 1.963 . S
Mg318 O317 1.936 . S
Mg318 O327 2.291 . S
Mg318 O332 2.081 . S
Mg318 O334 2.023 . S
Mg318 O338 2.031 . S
Mg319 O317 1.963 . S
Mg319 O323 1.986 . S
Mg319 O335 1.942 . S
Mg319 O336 1.955 . S
C320 O331 1.191 . S
C320 O333 1.307 . S
O321 Mg316 2.013 . S
O321 C340 1.191 . S
O322 Mg313 2.081 . S
O322 C330 1.331 . S
O323 Mg319 1.986 . S
O323 C340 1.307 . S
O324 Mg313 2.023 . S
O324 C339 1.264 . S
O325 Mg314 1.942 . S
O325 C330 1.244 . S
O326 Mg314 1.955 . S
O326 C339 1.273 . S
O327 Mg316 2.114 . S
O327 Mg318 2.291 . S
O327 C329 1.312 . S
O328 Mg313 2.031 . S
O328 C329 1.208 . S
C329 O327 1.312 . S
C329 O328 1.208 . S
C330 O322 1.331 . S
C330 O325 1.244 . S
O331 Mg316 2.013 . S
O331 C320 1.191 . S
O332 C311 1.331 . S
O332 Mg318 2.081 . S
O333 Mg314 1.986 . S
O333 C320 1.307 . S
O334 C312 1.264 . S
O334 Mg318 2.023 . S
O335 C311 1.244 . S
O335 Mg319 1.942 . S
O336 C312 1.273 . S
O336 Mg319 1.955 . S
O337 C310 1.312 . S
O337 Mg313 2.291 . S
O337 Mg316 2.114 . S
O338 C310 1.208 . S
O338 Mg318 2.031 . S
C339 O324 1.264 . S
C339 O326 1.273 . S
C340 O321 1.191 . S
C340 O323 1.307 . S
C341 O368 1.312 . S
C341 O369 1.208 . S
C342 O363 1.331 . S
C342 O366 1.244 . S
C343 O365 1.264 . S
C343 O367 1.273 . S
Mg344 O346 1.936 . S
Mg344 O353 2.081 . S
Mg344 O355 2.023 . S
Mg344 O359 2.031 . S
Mg344 O368 2.291 . S
Mg345 O346 1.963 . S
Mg345 O356 1.942 . S
Mg345 O357 1.955 . S
Mg345 O364 1.986 . S
O346 Mg344 1.936 . S
O346 Mg345 1.963 . S
O346 Mg347 1.915 . S
Mg347 O346 1.915 . S
Mg347 O348 1.915 . S
Mg347 O352 2.013 . S
Mg347 O358 2.114 . S
Mg347 O362 2.013 . S
Mg347 O368 2.114 . S
O348 Mg347 1.915 . S
O348 Mg349 1.936 . S
O348 Mg350 1.963 . S
Mg349 O348 1.936 . S
Mg349 O358 2.291 . S
Mg349 O363 2.081 . S
Mg349 O365 2.023 . S
Mg349 O369 2.031 . S
Mg350 O348 1.963 . S
Mg350 O354 1.986 . S
Mg350 O366 1.942 . S
Mg350 O367 1.955 . S
C351 O362 1.191 . S
C351 O364 1.307 . S
O352 Mg347 2.013 . S
O352 C371 1.191 . S
O353 Mg344 2.081 . S
O353 C361 1.331 . S
O354 Mg350 1.986 . S
O354 C371 1.307 . S
O355 Mg344 2.023 . S
O355 C370 1.264 . S
O356 Mg345 1.942 . S
O356 C361 1.244 . S
O357 Mg345 1.955 . S
O357 C370 1.273 . S
O358 Mg347 2.114 . S
O358 Mg349 2.291 . S
O358 C360 1.312 . S
O359 Mg344 2.031 . S
O359 C360 1.208 . S
C360 O358 1.312 . S
C360 O359 1.208 . S
C361 O353 1.331 . S
C361 O356 1.244 . S
O362 Mg347 2.013 . S
O362 C351 1.191 . S
O363 C342 1.331 . S
O363 Mg349 2.081 . S
O364 Mg345 1.986 . S
O364 C351 1.307 . S
O365 C343 1.264 . S
O365 Mg349 2.023 . S
O366 C342 1.244 . S
O366 Mg350 1.942 . S
O367 C343 1.273 . S
O367 Mg350 1.955 . S
O368 C341 1.312 . S
O368 Mg344 2.291 . S
O368 Mg347 2.114 . S
O369 C341 1.208 . S
O369 Mg349 2.031 . S
C370 O355 1.264 . S
C370 O357 1.273 . S
C371 O352 1.191 . S
C371 O354 1.307 . S
C372 O399 1.312 . S
C372 O400 1.208 . S
C373 O394 1.331 . S
C373 O397 1.244 . S
C374 O396 1.264 . S
C374 O398 1.273 . S
Mg375 O377 1.936 . S
Mg375 O384 2.081 . S
Mg375 O386 2.023 1_554 S
Mg375 O390 2.031 . S
Mg375 O399 2.291 . S
Mg376 O377 1.963 1_556 S
Mg376 O387 1.942 1_556 S
Mg376 O388 1.955 . S
Mg376 O395 1.986 . S
O377 Mg375 1.936 . S
O377 Mg376 1.963 1_554 S
O377 Mg378 1.915 1_554 S
Mg378 O377 1.915 1_556 S
Mg378 O379 1.915 . S
Mg378 O383 2.013 . S
Mg378 O389 2.114 1_556 S
Mg378 O393 2.013 1_556 S
Mg378 O399 2.114 1_556 S
O379 Mg378 1.915 . S
O379 Mg380 1.936 1_556 S
O379 Mg381 1.963 . S
Mg380 O379 1.936 1_554 S
Mg380 O389 2.291 . S
Mg380 O394 2.081 1_554 S
Mg380 O396 2.023 . S
Mg380 O400 2.031 . S
Mg381 O379 1.963 . S
Mg381 O385 1.986 . S
Mg381 O397 1.942 . S
Mg381 O398 1.955 1_556 S
C382 O393 1.191 . S
C382 O395 1.307 1_554 S
O383 Mg378 2.013 . S
O383 C402 1.191 . S
O384 Mg375 2.081 . S
O384 C392 1.331 . S
O385 Mg381 1.986 . S
O385 C402 1.307 . S
O386 Mg375 2.023 1_556 S
O386 C401 1.264 . S
O387 Mg376 1.942 1_554 S
O387 C392 1.244 . S
O388 Mg376 1.955 . S
O388 C401 1.273 . S
O389 Mg378 2.114 1_554 S
O389 Mg380 2.291 . S
O389 C391 1.312 . S
O390 Mg375 2.031 . S
O390 C391 1.208 . S
C391 O389 1.312 . S
C391 O390 1.208 . S
C392 O384 1.331 . S
C392 O387 1.244 . S
O393 Mg378 2.013 1_554 S
O393 C382 1.191 . S
O394 C373 1.331 . S
O394 Mg380 2.081 1_556 S
O395 Mg376 1.986 . S
O395 C382 1.307 1_556 S
O396 C374 1.264 . S
O396 Mg380 2.023 . S
O397 C373 1.244 . S
O397 Mg381 1.942 . S
O398 C374 1.273 . S
O398 Mg381 1.955 1_554 S
O399 C372 1.312 . S
O399 Mg375 2.291 . S
O399 Mg378 2.114 1_554 S
O400 C372 1.208 . S
O400 Mg380 2.031 . S
C401 O386 1.264 . S
C401 O388 1.273 . S
C402 O383 1.191 . S
C402 O385 1.307 . S
C403 O430 1.312 . S
C403 O431 1.208 . S
C404 O425 1.331 . S
C404 O428 1.244 . S
C405 O427 1.264 . S
C405 O429 1.273 . S
Mg406 O408 1.936 . S
Mg406 O415 2.081 . S
Mg406 O417 2.023 . S
Mg406 O421 2.031 . S
Mg406 O430 2.291 . S
Mg407 O408 1.963 . S
Mg407 O418 1.942 . S
Mg407 O419 1.955 . S
Mg407 O426 1.986 . S
O408 Mg406 1.936 . S
O408 Mg407 1.963 . S
O408 Mg409 1.915 . S
Mg409 O408 1.915 . S
Mg409 O410 1.915 . S
Mg409 O414 2.013 . S
Mg409 O420 2.114 . S
Mg409 O424 2.013 . S
Mg409 O430 2.114 . S
O410 Mg409 1.915 . S
O410 Mg411 1.936 . S
O410 Mg412 1.963 . S
Mg411 O410 1.936 . S
Mg411 O420 2.291 . S
Mg411 O425 2.081 . S
Mg411 O427 2.023 . S
Mg411 O431 2.031 . S
Mg412 O410 1.963 . S
Mg412 O416 1.986 . S
Mg412 O428 1.942 . S
Mg412 O429 1.955 . S
C413 O424 1.191 . S
C413 O426 1.307 . S
O414 Mg409 2.013 . S
O414 C433 1.191 . S
O415 Mg406 2.081 . S
O415 C423 1.331 . S
O416 Mg412 1.986 . S
O416 C433 1.307 . S
O417 Mg406 2.023 . S
O417 C432 1.264 . S
O418 Mg407 1.942 . S
O418 C423 1.244 . S
O419 Mg407 1.955 . S
O419 C432 1.273 . S
O420 Mg409 2.114 . S
O420 Mg411 2.291 . S
O420 C422 1.312 . S
O421 Mg406 2.031 . S
O421 C422 1.208 . S
C422 O420 1.312 . S
C422 O421 1.208 . S
C423 O415 1.331 . S
C423 O418 1.244 . S
O424 Mg409 2.013 . S
O424 C413 1.191 . S
O425 C404 1.331 . S
O425 Mg411 2.081 . S
O426 Mg407 1.986 . S
O426 C413 1.307 . S
O427 C405 1.264 . S
O427 Mg411 2.023 . S
O428 C404 1.244 . S
O428 Mg412 1.942 . S
O429 C405 1.273 . S
O429 Mg412 1.955 . S
O430 C403 1.312 . S
O430 Mg406 2.291 . S
O430 Mg409 2.114 . S
O431 C403 1.208 . S
O431 Mg411 2.031 . S
C432 O417 1.264 . S
C432 O419 1.273 . S
C433 O414 1.191 . S
C433 O416 1.307 . S
C434 O461 1.312 . S
C434 O462 1.208 . S
C435 O456 1.331 . S
C435 O459 1.244 . S
C436 O458 1.264 . S
C436 O460 1.273 . S
Mg437 O439 1.936 . S
Mg437 O446 2.081 . S
Mg437 O448 2.023 . S
Mg437 O452 2.031 . S
Mg437 O461 2.291 . S
Mg438 O439 1.963 . S
Mg438 O449 1.942 . S
Mg438 O450 1.955 . S
Mg438 O457 1.986 . S
O439 Mg437 1.936 . S
O439 Mg438 1.963 . S
O439 Mg440 1.915 . S
Mg440 O439 1.915 . S
Mg440 O441 1.915 . S
Mg440 O445 2.013 . S
Mg440 O451 2.114 . S
Mg440 O455 2.013 . S
Mg440 O461 2.114 . S
O441 Mg440 1.915 . S
O441 Mg442 1.936 . S
O441 Mg443 1.963 . S
Mg442 O441 1.936 . S
Mg442 O451 2.291 . S
Mg442 O456 2.081 . S
Mg442 O458 2.023 . S
Mg442 O462 2.031 . S
Mg443 O441 1.963 . S
Mg443 O447 1.986 . S
Mg443 O459 1.942 . S
Mg443 O460 1.955 . S
C444 O455 1.191 . S
C444 O457 1.307 . S
O445 Mg440 2.013 . S
O445 C464 1.191 . S
O446 Mg437 2.081 . S
O446 C454 1.331 . S
O447 Mg443 1.986 . S
O447 C464 1.307 . S
O448 Mg437 2.023 . S
O448 C463 1.264 . S
O449 Mg438 1.942 . S
O449 C454 1.244 . S
O450 Mg438 1.955 . S
O450 C463 1.273 . S
O451 Mg440 2.114 . S
O451 Mg442 2.291 . S
O451 C453 1.312 . S
O452 Mg437 2.031 . S
O452 C453 1.208 . S
C453 O451 1.312 . S
C453 O452 1.208 . S
C454 O446 1.331 . S
C454 O449 1.244 . S
O455 Mg440 2.013 . S
O455 C444 1.191 . S
O456 C435 1.331 . S
O456 Mg442 2.081 . S
O457 Mg438 1.986 . S
O457 C444 1.307 . S
O458 C436 1.264 . S
O458 Mg442 2.023 . S
O459 C435 1.244 . S
O459 Mg443 1.942 . S
O460 C436 1.273 . S
O460 Mg443 1.955 . S
O461 C434 1.312 . S
O461 Mg437 2.291 . S
O461 Mg440 2.114 . S
O462 C434 1.208 . S
O462 Mg442 2.031 . S
C463 O448 1.264 . S
C463 O450 1.273 . S
C464 O445 1.191 . S
C464 O447 1.307 . S
C465 O492 1.312 . S
C465 O493 1.208 . S
C466 O487 1.331 . S
C466 O490 1.244 . S
C467 O489 1.264 . S
C467 O491 1.273 . S
Mg468 O470 1.936 . S
Mg468 O477 2.081 . S
Mg468 O479 2.023 . S
Mg468 O483 2.031 . S
Mg468 O492 2.291 . S
Mg469 O470 1.963 . S
Mg469 O480 1.942 . S
Mg469 O481 1.955 . S
Mg469 O488 1.986 . S
O470 Mg468 1.936 . S
O470 Mg469 1.963 . S
O470 Mg471 1.915 . S
Mg471 O470 1.915 . S
Mg471 O472 1.915 . S
Mg471 O476 2.013 . S
Mg471 O482 2.114 . S
Mg471 O486 2.013 . S
Mg471 O492 2.114 . S
O472 Mg471 1.915 . S
O472 Mg473 1.936 . S
O472 Mg474 1.963 . S
Mg473 O472 1.936 . S
Mg473 O482 2.291 . S
Mg473 O487 2.081 . S
Mg473 O489 2.023 . S
Mg473 O493 2.031 . S
Mg474 O472 1.963 . S
Mg474 O478 1.986 . S
Mg474 O490 1.942 . S
Mg474 O491 1.955 . S
C475 O486 1.191 . S
C475 O488 1.307 . S
O476 Mg471 2.013 . S
O476 C495 1.191 . S
O477 Mg468 2.081 . S
O477 C485 1.331 . S
O478 Mg474 1.986 . S
O478 C495 1.307 . S
O479 Mg468 2.023 . S
O479 C494 1.264 . S
O480 Mg469 1.942 . S
O480 C485 1.244 . S
O481 Mg469 1.955 . S
O481 C494 1.273 . S
O482 Mg471 2.114 . S
O482 Mg473 2.291 . S
O482 C484 1.312 . S
O483 Mg468 2.031 . S
O483 C484 1.208 . S
C484 O482 1.312 . S
C484 O483 1.208 . S
C485 O477 1.331 . S
C485 O480 1.244 . S
O486 Mg471 2.013 . S
O486 C475 1.191 . S
O487 C466 1.331 . S
O487 Mg473 2.081 . S
O488 Mg469 1.986 . S
O488 C475 1.307 . S
O489 C467 1.264 . S
O489 Mg473 2.023 . S
O490 C466 1.244 . S
O490 Mg474 1.942 . S
O491 C467 1.273 . S
O491 Mg474 1.955 . S
O492 C465 1.312 . S
O492 Mg468 2.291 . S
O492 Mg471 2.114 . S
O493 C465 1.208 . S
O493 Mg473 2.031 . S
C494 O479 1.264 . S
C494 O481 1.273 . S
C495 O476 1.191 . S
C495 O478 1.307 . S
H496 C504 0.950 . S
H497 C509 0.950 . S
H498 C506 0.950 . S
H499 C508 0.950 . S
H500 C510 0.950 . S
H501 C512 0.950 . S
H502 C514 0.950 . S
H503 C515 0.950 . S
C504 H496 0.950 . S
C504 C505 1.386 . S
C504 C506 1.391 . S
C505 C504 1.386 . S
C505 C509 1.393 . S
C506 H498 0.950 . S
C506 C504 1.391 . S
C506 C507 1.400 . S
C507 C506 1.400 . S
C507 C508 1.398 . S
C507 C513 1.491 . S
C508 H499 0.950 . S
C508 C507 1.398 . S
C508 C509 1.391 . S
C509 H497 0.950 . S
C509 C505 1.393 . S
C509 C508 1.391 . S
C510 H500 0.950 . S
C510 C511 1.386 . S
C510 C512 1.391 . S
C511 C510 1.386 . S
C511 C515 1.393 . S
C512 H501 0.950 . S
C512 C510 1.391 . S
C512 C513 1.400 . S
C513 C507 1.491 . S
C513 C512 1.400 . S
C513 C514 1.398 . S
C514 H502 0.950 . S
C514 C513 1.398 . S
C514 C515 1.391 . S
C515 H503 0.950 . S
C515 C511 1.393 . S
C515 C514 1.391 . S
H516 C524 0.950 . S
H517 C529 0.950 . S
H518 C526 0.950 . S
H519 C528 0.950 . S
H520 C530 0.950 . S
H521 C532 0.950 . S
H522 C534 0.950 . S
H523 C535 0.950 . S
C524 H516 0.950 . S
C524 C525 1.386 . S
C524 C526 1.391 . S
C525 C524 1.386 . S
C525 C529 1.393 . S
C526 H518 0.950 . S
C526 C524 1.391 . S
C526 C527 1.400 . S
C527 C526 1.400 . S
C527 C528 1.398 . S
C527 C533 1.491 . S
C528 H519 0.950 . S
C528 C527 1.398 . S
C528 C529 1.391 . S
C529 H517 0.950 . S
C529 C525 1.393 . S
C529 C528 1.391 . S
C530 H520 0.950 . S
C530 C531 1.386 . S
C530 C532 1.391 . S
C531 C530 1.386 . S
C531 C535 1.393 . S
C532 H521 0.950 . S
C532 C530 1.391 . S
C532 C533 1.400 . S
C533 C527 1.491 . S
C533 C532 1.400 . S
C533 C534 1.398 . S
C534 H522 0.950 . S
C534 C533 1.398 . S
C534 C535 1.391 . S
C535 H523 0.950 . S
C535 C531 1.393 . S
C535 C534 1.391 . S
H536 C544 0.950 . S
H537 C549 0.950 . S
H538 C546 0.950 . S
H539 C548 0.950 . S
H540 C550 0.950 . S
H541 C552 0.950 . S
H542 C554 0.950 . S
H543 C555 0.950 . S
C544 H536 0.950 . S
C544 C545 1.386 . S
C544 C546 1.391 . S
C545 C544 1.386 . S
C545 C549 1.393 . S
C546 H538 0.950 . S
C546 C544 1.391 . S
C546 C547 1.400 . S
C547 C546 1.400 . S
C547 C548 1.398 . S
C547 C553 1.491 . S
C548 H539 0.950 . S
C548 C547 1.398 . S
C548 C549 1.391 . S
C549 H537 0.950 . S
C549 C545 1.393 . S
C549 C548 1.391 . S
C550 H540 0.950 . S
C550 C551 1.386 . S
C550 C552 1.391 . S
C551 C550 1.386 . S
C551 C555 1.393 . S
C552 H541 0.950 . S
C552 C550 1.391 . S
C552 C553 1.400 . S
C553 C547 1.491 . S
C553 C552 1.400 . S
C553 C554 1.398 . S
C554 H542 0.950 . S
C554 C553 1.398 . S
C554 C555 1.391 . S
C555 H543 0.950 . S
C555 C551 1.393 . S
C555 C554 1.391 . S
H556 C564 0.950 . S
H557 C569 0.950 . S
H558 C566 0.950 . S
H559 C568 0.950 . S
H560 C570 0.950 . S
H561 C572 0.950 . S
H562 C574 0.950 . S
H563 C575 0.950 . S
C564 H556 0.950 . S
C564 C565 1.386 . S
C564 C566 1.391 . S
C565 C564 1.386 . S
C565 C569 1.393 . S
C566 H558 0.950 . S
C566 C564 1.391 . S
C566 C567 1.400 . S
C567 C566 1.400 . S
C567 C568 1.398 . S
C567 C573 1.491 . S
C568 H559 0.950 . S
C568 C567 1.398 . S
C568 C569 1.391 . S
C569 H557 0.950 . S
C569 C565 1.393 . S
C569 C568 1.391 . S
C570 H560 0.950 . S
C570 C571 1.386 . S
C570 C572 1.391 1_455 S
C571 C570 1.386 . S
C571 C575 1.393 . S
C572 H561 0.950 . S
C572 C570 1.391 1_655 S
C572 C573 1.400 . S
C573 C567 1.491 . S
C573 C572 1.400 . S
C573 C574 1.398 . S
C574 H562 0.950 . S
C574 C573 1.398 . S
C574 C575 1.391 1_655 S
C575 H563 0.950 . S
C575 C571 1.393 . S
C575 C574 1.391 1_455 S
H576 C584 0.950 . S
H577 C589 0.950 . S
H578 C586 0.950 . S
H579 C588 0.950 . S
H580 C590 0.950 . S
H581 C592 0.950 . S
H582 C594 0.950 . S
H583 C595 0.950 . S
C584 H576 0.950 . S
C584 C585 1.386 . S
C584 C586 1.391 . S
C585 C584 1.386 . S
C585 C589 1.393 . S
C586 H578 0.950 . S
C586 C584 1.391 . S
C586 C587 1.400 . S
C587 C586 1.400 . S
C587 C588 1.398 . S
C587 C593 1.491 . S
C588 H579 0.950 . S
C588 C587 1.398 . S
C588 C589 1.391 . S
C589 H577 0.950 . S
C589 C585 1.393 . S
C589 C588 1.391 . S
C590 H580 0.950 . S
C590 C591 1.386 . S
C590 C592 1.391 . S
C591 C590 1.386 . S
C591 C595 1.393 . S
C592 H581 0.950 . S
C592 C590 1.391 . S
C592 C593 1.400 . S
C593 C587 1.491 . S
C593 C592 1.400 . S
C593 C594 1.398 . S
C594 H582 0.950 . S
C594 C593 1.398 . S
C594 C595 1.391 . S
C595 H583 0.950 . S
C595 C591 1.393 . S
C595 C594 1.391 . S
H596 C604 0.950 . S
H597 C609 0.950 . S
H598 C606 0.950 . S
H599 C608 0.950 . S
H600 C610 0.950 . S
H601 C612 0.950 . S
H602 C614 0.950 . S
H603 C615 0.950 . S
C604 H596 0.950 . S
C604 C605 1.386 . S
C604 C606 1.391 . S
C605 C604 1.386 . S
C605 C609 1.393 . S
C606 H598 0.950 . S
C606 C604 1.391 . S
C606 C607 1.400 . S
C607 C606 1.400 . S
C607 C608 1.398 . S
C607 C613 1.491 . S
C608 H599 0.950 . S
C608 C607 1.398 . S
C608 C609 1.391 . S
C609 H597 0.950 . S
C609 C605 1.393 . S
C609 C608 1.391 . S
C610 H600 0.950 . S
C610 C611 1.386 . S
C610 C612 1.391 . S
C611 C610 1.386 . S
C611 C615 1.393 . S
C612 H601 0.950 . S
C612 C610 1.391 . S
C612 C613 1.400 . S
C613 C607 1.491 . S
C613 C612 1.400 . S
C613 C614 1.398 . S
C614 H602 0.950 . S
C614 C613 1.398 . S
C614 C615 1.391 . S
C615 H603 0.950 . S
C615 C611 1.393 . S
C615 C614 1.391 . S
H616 C624 0.950 . S
H617 C629 0.950 . S
H618 C626 0.950 . S
H619 C628 0.950 . S
H620 C630 0.950 . S
H621 C632 0.950 . S
H622 C634 0.950 1_554 S
H623 C635 0.950 1_554 S
C624 H616 0.950 . S
C624 C625 1.386 1_554 S
C624 C626 1.391 . S
C625 C624 1.386 1_556 S
C625 C629 1.393 . S
C626 H618 0.950 . S
C626 C624 1.391 . S
C626 C627 1.400 1_554 S
C627 C626 1.400 1_556 S
C627 C628 1.398 . S
C627 C633 1.491 . S
C628 H619 0.950 . S
C628 C627 1.398 . S
C628 C629 1.391 . S
C629 H617 0.950 . S
C629 C625 1.393 . S
C629 C628 1.391 . S
C630 H620 0.950 . S
C630 C631 1.386 . S
C630 C632 1.391 . S
C631 C630 1.386 . S
C631 C635 1.393 . S
C632 H621 0.950 . S
C632 C630 1.391 . S
C632 C633 1.400 . S
C633 C627 1.491 . S
C633 C632 1.400 . S
C633 C634 1.398 . S
C634 H622 0.950 1_556 S
C634 C633 1.398 . S
C634 C635 1.391 . S
C635 H623 0.950 1_556 S
C635 C631 1.393 . S
C635 C634 1.391 . S
H636 C644 0.950 . S
H637 C649 0.950 . S
H638 C646 0.950 . S
H639 C648 0.950 . S
H640 C650 0.950 . S
H641 C652 0.950 . S
H642 C654 0.950 . S
H643 C655 0.950 . S
C644 H636 0.950 . S
C644 C645 1.386 . S
C644 C646 1.391 1_655 S
C645 C644 1.386 . S
C645 C649 1.393 . S
C646 H638 0.950 . S
C646 C644 1.391 1_455 S
C646 C647 1.400 . S
C647 C646 1.400 . S
C647 C648 1.398 . S
C647 C653 1.491 . S
C648 H639 0.950 . S
C648 C647 1.398 . S
C648 C649 1.391 1_455 S
C649 H637 0.950 . S
C649 C645 1.393 . S
C649 C648 1.391 1_655 S
C650 H640 0.950 . S
C650 C651 1.386 . S
C650 C652 1.391 . S
C651 C650 1.386 . S
C651 C655 1.393 . S
C652 H641 0.950 . S
C652 C650 1.391 . S
C652 C653 1.400 . S
C653 C647 1.491 . S
C653 C652 1.400 . S
C653 C654 1.398 . S
C654 H642 0.950 . S
C654 C653 1.398 . S
C654 C655 1.391 . S
C655 H643 0.950 . S
C655 C651 1.393 . S
C655 C654 1.391 . S
H656 C664 0.950 . S
H657 C669 0.950 . S
H658 C666 0.950 . S
H659 C668 0.950 . S
H660 C670 0.950 . S
H661 C672 0.950 . S
H662 C674 0.950 . S
H663 C675 0.950 . S
C664 H656 0.950 . S
C664 C665 1.386 . S
C664 C666 1.391 . S
C665 C664 1.386 . S
C665 C669 1.393 . S
C666 H658 0.950 . S
C666 C664 1.391 . S
C666 C667 1.400 . S
C667 C666 1.400 . S
C667 C668 1.398 . S
C667 C673 1.491 . S
C668 H659 0.950 . S
C668 C667 1.398 . S
C668 C669 1.391 . S
C669 H657 0.950 . S
C669 C665 1.393 . S
C669 C668 1.391 . S
C670 H660 0.950 . S
C670 C671 1.386 . S
C670 C672 1.391 . S
C671 C670 1.386 . S
C671 C675 1.393 . S
C672 H661 0.950 . S
C672 C670 1.391 . S
C672 C673 1.400 . S
C673 C667 1.491 . S
C673 C672 1.400 . S
C673 C674 1.398 . S
C674 H662 0.950 . S
C674 C673 1.398 . S
C674 C675 1.391 . S
C675 H663 0.950 . S
C675 C671 1.393 . S
C675 C674 1.391 . S
H676 C684 0.950 . S
H677 C689 0.950 . S
H678 C686 0.950 . S
H679 C688 0.950 . S
H680 C690 0.950 . S
H681 C692 0.950 . S
H682 C694 0.950 . S
H683 C695 0.950 . S
C684 H676 0.950 . S
C684 C685 1.386 . S
C684 C686 1.391 1_655 S
C685 C684 1.386 . S
C685 C689 1.393 . S
C686 H678 0.950 . S
C686 C684 1.391 1_455 S
C686 C687 1.400 . S
C687 C686 1.400 . S
C687 C688 1.398 . S
C687 C693 1.491 . S
C688 H679 0.950 . S
C688 C687 1.398 . S
C688 C689 1.391 1_455 S
C689 H677 0.950 . S
C689 C685 1.393 . S
C689 C688 1.391 1_655 S
C690 H680 0.950 . S
C690 C691 1.386 . S
C690 C692 1.391 . S
C691 C690 1.386 . S
C691 C695 1.393 . S
C692 H681 0.950 . S
C692 C690 1.391 . S
C692 C693 1.400 . S
C693 C687 1.491 . S
C693 C692 1.400 . S
C693 C694 1.398 . S
C694 H682 0.950 . S
C694 C693 1.398 . S
C694 C695 1.391 . S
C695 H683 0.950 . S
C695 C691 1.393 . S
C695 C694 1.391 . S
H696 C704 0.950 . S
H697 C709 0.950 . S
H698 C706 0.950 . S
H699 C708 0.950 . S
H700 C710 0.950 . S
H701 C712 0.950 . S
H702 C714 0.950 . S
H703 C715 0.950 . S
C704 H696 0.950 . S
C704 C705 1.386 . S
C704 C706 1.391 . S
C705 C704 1.386 . S
C705 C709 1.393 . S
C706 H698 0.950 . S
C706 C704 1.391 . S
C706 C707 1.400 . S
C707 C706 1.400 . S
C707 C708 1.398 . S
C707 C713 1.491 . S
C708 H699 0.950 . S
C708 C707 1.398 . S
C708 C709 1.391 . S
C709 H697 0.950 . S
C709 C705 1.393 . S
C709 C708 1.391 . S
C710 H700 0.950 . S
C710 C711 1.386 . S
C710 C712 1.391 . S
C711 C710 1.386 . S
C711 C715 1.393 . S
C712 H701 0.950 . S
C712 C710 1.391 . S
C712 C713 1.400 . S
C713 C707 1.491 . S
C713 C712 1.400 . S
C713 C714 1.398 . S
C714 H702 0.950 . S
C714 C713 1.398 . S
C714 C715 1.391 . S
C715 H703 0.950 . S
C715 C711 1.393 . S
C715 C714 1.391 . S
H716 C724 0.950 . S
H717 C729 0.950 . S
H718 C726 0.950 . S
H719 C728 0.950 . S
H720 C730 0.950 . S
H721 C732 0.950 . S
H722 C734 0.950 . S
H723 C735 0.950 . S
C724 H716 0.950 . S
C724 C725 1.386 . S
C724 C726 1.391 . S
C725 C724 1.386 . S
C725 C729 1.393 . S
C726 H718 0.950 . S
C726 C724 1.391 . S
C726 C727 1.400 . S
C727 C726 1.400 . S
C727 C728 1.398 . S
C727 C733 1.491 . S
C728 H719 0.950 . S
C728 C727 1.398 . S
C728 C729 1.391 . S
C729 H717 0.950 . S
C729 C725 1.393 . S
C729 C728 1.391 . S
C730 H720 0.950 . S
C730 C731 1.386 . S
C730 C732 1.391 . S
C731 C730 1.386 . S
C731 C735 1.393 . S
C732 H721 0.950 . S
C732 C730 1.391 . S
C732 C733 1.400 . S
C733 C727 1.491 . S
C733 C732 1.400 . S
C733 C734 1.398 . S
C734 H722 0.950 . S
C734 C733 1.398 . S
C734 C735 1.391 . S
C735 H723 0.950 . S
C735 C731 1.393 . S
C735 C734 1.391 . S
H736 C744 0.950 . S
H737 C749 0.950 1_554 S
H738 C746 0.950 . S
H739 C748 0.950 1_554 S
H740 C750 0.950 . S
H741 C752 0.950 . S
H742 C754 0.950 . S
H743 C755 0.950 . S
C744 H736 0.950 . S
C744 C745 1.386 . S
C744 C746 1.391 . S
C745 C744 1.386 . S
C745 C749 1.393 . S
C746 H738 0.950 . S
C746 C744 1.391 . S
C746 C747 1.400 . S
C747 C746 1.400 . S
C747 C748 1.398 . S
C747 C753 1.491 . S
C748 H739 0.950 1_556 S
C748 C747 1.398 . S
C748 C749 1.391 . S
C749 H737 0.950 1_556 S
C749 C745 1.393 . S
C749 C748 1.391 . S
C750 H740 0.950 . S
C750 C751 1.386 1_554 S
C750 C752 1.391 . S
C751 C750 1.386 1_556 S
C751 C755 1.393 . S
C752 H741 0.950 . S
C752 C750 1.391 . S
C752 C753 1.400 1_554 S
C753 C747 1.491 . S
C753 C752 1.400 1_556 S
C753 C754 1.398 . S
C754 H742 0.950 . S
C754 C753 1.398 . S
C754 C755 1.391 . S
C755 H743 0.950 . S
C755 C751 1.393 . S
C755 C754 1.391 . S
H756 C764 0.950 . S
H757 C769 0.950 . S
H758 C766 0.950 . S
H759 C768 0.950 . S
H760 C770 0.950 . S
H761 C772 0.950 . S
H762 C774 0.950 . S
H763 C775 0.950 . S
C764 H756 0.950 . S
C764 C765 1.386 . S
C764 C766 1.391 . S
C765 C764 1.386 . S
C765 C769 1.393 . S
C766 H758 0.950 . S
C766 C764 1.391 . S
C766 C767 1.400 . S
C767 C766 1.400 . S
C767 C768 1.398 . S
C767 C773 1.491 . S
C768 H759 0.950 . S
C768 C767 1.398 . S
C768 C769 1.391 . S
C769 H757 0.950 . S
C769 C765 1.393 . S
C769 C768 1.391 . S
C770 H760 0.950 . S
C770 C771 1.386 . S
C770 C772 1.391 1_455 S
C771 C770 1.386 . S
C771 C775 1.393 . S
C772 H761 0.950 . S
C772 C770 1.391 1_655 S
C772 C773 1.400 . S
C773 C767 1.491 . S
C773 C772 1.400 . S
C773 C774 1.398 . S
C774 H762 0.950 . S
C774 C773 1.398 . S
C774 C775 1.391 1_655 S
C775 H763 0.950 . S
C775 C771 1.393 . S
C775 C774 1.391 1_455 S
H776 C784 0.950 . S
H777 C789 0.950 . S
H778 C786 0.950 . S
H779 C788 0.950 . S
H780 C790 0.950 . S
H781 C792 0.950 . S
H782 C794 0.950 . S
H783 C795 0.950 . S
C784 H776 0.950 . S
C784 C785 1.386 . S
C784 C786 1.391 . S
C785 C784 1.386 . S
C785 C789 1.393 . S
C786 H778 0.950 . S
C786 C784 1.391 . S
C786 C787 1.400 . S
C787 C786 1.400 . S
C787 C788 1.398 . S
C787 C793 1.491 . S
C788 H779 0.950 . S
C788 C787 1.398 . S
C788 C789 1.391 . S
C789 H777 0.950 . S
C789 C785 1.393 . S
C789 C788 1.391 . S
C790 H780 0.950 . S
C790 C791 1.386 . S
C790 C792 1.391 . S
C791 C790 1.386 . S
C791 C795 1.393 . S
C792 H781 0.950 . S
C792 C790 1.391 . S
C792 C793 1.400 . S
C793 C787 1.491 . S
C793 C792 1.400 . S
C793 C794 1.398 . S
C794 H782 0.950 . S
C794 C793 1.398 . S
C794 C795 1.391 . S
C795 H783 0.950 . S
C795 C791 1.393 . S
C795 C794 1.391 . S
H796 C804 0.950 . S
H797 C809 0.950 . S
H798 C806 0.950 . S
H799 C808 0.950 . S
H800 C810 0.950 . S
H801 C812 0.950 . S
H802 C814 0.950 . S
H803 C815 0.950 . S
C804 H796 0.950 . S
C804 C805 1.386 . S
C804 C806 1.391 . S
C805 C804 1.386 . S
C805 C809 1.393 . S
C806 H798 0.950 . S
C806 C804 1.391 . S
C806 C807 1.400 . S
C807 C806 1.400 . S
C807 C808 1.398 . S
C807 C813 1.491 . S
C808 H799 0.950 . S
C808 C807 1.398 . S
C808 C809 1.391 . S
C809 H797 0.950 . S
C809 C805 1.393 . S
C809 C808 1.391 . S
C810 H800 0.950 . S
C810 C811 1.386 . S
C810 C812 1.391 . S
C811 C810 1.386 . S
C811 C815 1.393 . S
C812 H801 0.950 . S
C812 C810 1.391 . S
C812 C813 1.400 . S
C813 C807 1.491 . S
C813 C812 1.400 . S
C813 C814 1.398 . S
C814 H802 0.950 . S
C814 C813 1.398 . S
C814 C815 1.391 . S
C815 H803 0.950 . S
C815 C811 1.393 . S
C815 C814 1.391 . S
H816 C824 0.950 . S
H817 C829 0.950 . S
H818 C826 0.950 . S
H819 C828 0.950 . S
H820 C830 0.950 . S
H821 C832 0.950 . S
H822 C834 0.950 . S
H823 C835 0.950 . S
C824 H816 0.950 . S
C824 C825 1.386 . S
C824 C826 1.391 . S
C825 C824 1.386 . S
C825 C829 1.393 . S
C826 H818 0.950 . S
C826 C824 1.391 . S
C826 C827 1.400 . S
C827 C826 1.400 . S
C827 C828 1.398 . S
C827 C833 1.491 1_554 S
C828 H819 0.950 . S
C828 C827 1.398 . S
C828 C829 1.391 . S
C829 H817 0.950 . S
C829 C825 1.393 . S
C829 C828 1.391 . S
C830 H820 0.950 . S
C830 C831 1.386 . S
C830 C832 1.391 . S
C831 C830 1.386 . S
C831 C835 1.393 . S
C832 H821 0.950 . S
C832 C830 1.391 . S
C832 C833 1.400 . S
C833 C827 1.491 1_556 S
C833 C832 1.400 . S
C833 C834 1.398 . S
C834 H822 0.950 . S
C834 C833 1.398 . S
C834 C835 1.391 . S
C835 H823 0.950 . S
C835 C831 1.393 . S
C835 C834 1.391 . S
H836 C844 0.950 . S
H837 C849 0.950 . S
H838 C846 0.950 . S
H839 C848 0.950 . S
H840 C850 0.950 . S
H841 C852 0.950 . S
H842 C854 0.950 . S
H843 C855 0.950 . S
C844 H836 0.950 . S
C844 C845 1.386 . S
C844 C846 1.391 . S
C845 C844 1.386 . S
C845 C849 1.393 . S
C846 H838 0.950 . S
C846 C844 1.391 . S
C846 C847 1.400 . S
C847 C846 1.400 . S
C847 C848 1.398 . S
C847 C853 1.491 . S
C848 H839 0.950 . S
C848 C847 1.398 . S
C848 C849 1.391 . S
C849 H837 0.950 . S
C849 C845 1.393 . S
C849 C848 1.391 . S
C850 H840 0.950 . S
C850 C851 1.386 . S
C850 C852 1.391 . S
C851 C850 1.386 . S
C851 C855 1.393 . S
C852 H841 0.950 . S
C852 C850 1.391 . S
C852 C853 1.400 . S
C853 C847 1.491 . S
C853 C852 1.400 . S
C853 C854 1.398 . S
C854 H842 0.950 . S
C854 C853 1.398 . S
C854 C855 1.391 . S
C855 H843 0.950 . S
C855 C851 1.393 . S
C855 C854 1.391 . S
H856 C864 0.950 . S
H857 C869 0.950 . S
H858 C866 0.950 . S
H859 C868 0.950 . S
H860 C870 0.950 . S
H861 C872 0.950 . S
H862 C874 0.950 . S
H863 C875 0.950 . S
C864 H856 0.950 . S
C864 C865 1.386 . S
C864 C866 1.391 . S
C865 C864 1.386 . S
C865 C869 1.393 . S
C866 H858 0.950 . S
C866 C864 1.391 . S
C866 C867 1.400 . S
C867 C866 1.400 . S
C867 C868 1.398 . S
C867 C873 1.491 . S
C868 H859 0.950 . S
C868 C867 1.398 . S
C868 C869 1.391 . S
C869 H857 0.950 . S
C869 C865 1.393 . S
C869 C868 1.391 . S
C870 H860 0.950 . S
C870 C871 1.386 . S
C870 C872 1.391 . S
C871 C870 1.386 . S
C871 C875 1.393 . S
C872 H861 0.950 . S
C872 C870 1.391 . S
C872 C873 1.400 . S
C873 C867 1.491 . S
C873 C872 1.400 . S
C873 C874 1.398 . S
C874 H862 0.950 . S
C874 C873 1.398 . S
C874 C875 1.391 . S
C875 H863 0.950 . S
C875 C871 1.393 . S
C875 C874 1.391 . S
H876 C884 0.950 . S
H877 C889 0.950 . S
H878 C886 0.950 . S
H879 C888 0.950 . S
H880 C890 0.950 . S
H881 C892 0.950 . S
H882 C894 0.950 . S
H883 C895 0.950 1_554 S
C884 H876 0.950 . S
C884 C885 1.386 . S
C884 C886 1.391 . S
C885 C884 1.386 . S
C885 C889 1.393 . S
C886 H878 0.950 . S
C886 C884 1.391 . S
C886 C887 1.400 . S
C887 C886 1.400 . S
C887 C888 1.398 . S
C887 C893 1.491 . S
C888 H879 0.950 . S
C888 C887 1.398 . S
C888 C889 1.391 . S
C889 H877 0.950 . S
C889 C885 1.393 . S
C889 C888 1.391 . S
C890 H880 0.950 . S
C890 C891 1.386 1_556 S
C890 C892 1.391 . S
C891 C890 1.386 1_554 S
C891 C895 1.393 1_554 S
C892 H881 0.950 . S
C892 C890 1.391 . S
C892 C893 1.400 . S
C893 C887 1.491 . S
C893 C892 1.400 . S
C893 C894 1.398 . S
C894 H882 0.950 . S
C894 C893 1.398 . S
C894 C895 1.391 . S
C895 H883 0.950 1_556 S
C895 C891 1.393 1_556 S
C895 C894 1.391 . S
H896 C904 0.950 . S
H897 C909 0.950 . S
H898 C906 0.950 . S
H899 C908 0.950 . S
H900 C910 0.950 . S
H901 C912 0.950 . S
H902 C914 0.950 . S
H903 C915 0.950 . S
C904 H896 0.950 . S
C904 C905 1.386 . S
C904 C906 1.391 . S
C905 C904 1.386 . S
C905 C909 1.393 . S
C906 H898 0.950 . S
C906 C904 1.391 . S
C906 C907 1.400 . S
C907 C906 1.400 . S
C907 C908 1.398 . S
C907 C913 1.491 1_554 S
C908 H899 0.950 . S
C908 C907 1.398 . S
C908 C909 1.391 . S
C909 H897 0.950 . S
C909 C905 1.393 . S
C909 C908 1.391 . S
C910 H900 0.950 . S
C910 C911 1.386 . S
C910 C912 1.391 . S
C911 C910 1.386 . S
C911 C915 1.393 . S
C912 H901 0.950 . S
C912 C910 1.391 . S
C912 C913 1.400 . S
C913 C907 1.491 1_556 S
C913 C912 1.400 . S
C913 C914 1.398 . S
C914 H902 0.950 . S
C914 C913 1.398 . S
C914 C915 1.391 . S
C915 H903 0.950 . S
C915 C911 1.393 . S
C915 C914 1.391 . S
H916 C924 0.950 . S
H917 C929 0.950 . S
H918 C926 0.950 . S
H919 C928 0.950 . S
H920 C930 0.950 . S
H921 C932 0.950 . S
H922 C934 0.950 . S
H923 C935 0.950 . S
C924 H916 0.950 . S
C924 C925 1.386 . S
C924 C926 1.391 . S
C925 C924 1.386 . S
C925 C929 1.393 . S
C926 H918 0.950 . S
C926 C924 1.391 . S
C926 C927 1.400 . S
C927 C926 1.400 . S
C927 C928 1.398 . S
C927 C933 1.491 . S
C928 H919 0.950 . S
C928 C927 1.398 . S
C928 C929 1.391 . S
C929 H917 0.950 . S
C929 C925 1.393 . S
C929 C928 1.391 . S
C930 H920 0.950 . S
C930 C931 1.386 . S
C930 C932 1.391 . S
C931 C930 1.386 . S
C931 C935 1.393 . S
C932 H921 0.950 . S
C932 C930 1.391 . S
C932 C933 1.400 . S
C933 C927 1.491 . S
C933 C932 1.400 . S
C933 C934 1.398 . S
C934 H922 0.950 . S
C934 C933 1.398 . S
C934 C935 1.391 . S
C935 H923 0.950 . S
C935 C931 1.393 . S
C935 C934 1.391 . S
H936 C944 0.950 . S
H937 C949 0.950 . S
H938 C946 0.950 . S
H939 C948 0.950 . S
H940 C950 0.950 . S
H941 C952 0.950 . S
H942 C954 0.950 . S
H943 C955 0.950 . S
C944 H936 0.950 . S
C944 C945 1.386 . S
C944 C946 1.391 . S
C945 C944 1.386 . S
C945 C949 1.393 . S
C946 H938 0.950 . S
C946 C944 1.391 . S
C946 C947 1.400 . S
C947 C946 1.400 . S
C947 C948 1.398 . S
C947 C953 1.491 . S
C948 H939 0.950 . S
C948 C947 1.398 . S
C948 C949 1.391 . S
C949 H937 0.950 . S
C949 C945 1.393 . S
C949 C948 1.391 . S
C950 H940 0.950 . S
C950 C951 1.386 . S
C950 C952 1.391 . S
C951 C950 1.386 . S
C951 C955 1.393 . S
C952 H941 0.950 . S
C952 C950 1.391 . S
C952 C953 1.400 . S
C953 C947 1.491 . S
C953 C952 1.400 . S
C953 C954 1.398 . S
C954 H942 0.950 . S
C954 C953 1.398 . S
C954 C955 1.391 . S
C955 H943 0.950 . S
C955 C951 1.393 . S
C955 C954 1.391 . S
H956 C964 0.950 . S
H957 C969 0.950 . S
H958 C966 0.950 . S
H959 C968 0.950 . S
H960 C970 0.950 . S
H961 C972 0.950 . S
H962 C974 0.950 . S
H963 C975 0.950 . S
C964 H956 0.950 . S
C964 C965 1.386 . S
C964 C966 1.391 . S
C965 C964 1.386 . S
C965 C969 1.393 . S
C966 H958 0.950 . S
C966 C964 1.391 . S
C966 C967 1.400 . S
C967 C966 1.400 . S
C967 C968 1.398 . S
C967 C973 1.491 . S
C968 H959 0.950 . S
C968 C967 1.398 . S
C968 C969 1.391 . S
C969 H957 0.950 . S
C969 C965 1.393 . S
C969 C968 1.391 . S
C970 H960 0.950 . S
C970 C971 1.386 . S
C970 C972 1.391 . S
C971 C970 1.386 . S
C971 C975 1.393 . S
C972 H961 0.950 . S
C972 C970 1.391 . S
C972 C973 1.400 . S
C973 C967 1.491 . S
C973 C972 1.400 . S
C973 C974 1.398 . S
C974 H962 0.950 . S
C974 C973 1.398 . S
C974 C975 1.391 . S
C975 H963 0.950 . S
C975 C971 1.393 . S
C975 C974 1.391 . S
H976 C984 0.950 . S
H977 C989 0.950 . S
H978 C986 0.950 . S
H979 C988 0.950 . S
H980 C990 0.950 . S
H981 C992 0.950 . S
H982 C994 0.950 . S
H983 C995 0.950 . S
C984 H976 0.950 . S
C984 C985 1.386 . S
C984 C986 1.391 . S
C985 C984 1.386 . S
C985 C989 1.393 . S
C986 H978 0.950 . S
C986 C984 1.391 . S
C986 C987 1.400 . S
C987 C986 1.400 . S
C987 C988 1.398 . S
C987 C993 1.491 . S
C988 H979 0.950 . S
C988 C987 1.398 . S
C988 C989 1.391 . S
C989 H977 0.950 . S
C989 C985 1.393 . S
C989 C988 1.391 . S
C990 H980 0.950 . S
C990 C991 1.386 . S
C990 C992 1.391 . S
C991 C990 1.386 . S
C991 C995 1.393 . S
C992 H981 0.950 . S
C992 C990 1.391 . S
C992 C993 1.400 . S
C993 C987 1.491 . S
C993 C992 1.400 . S
C993 C994 1.398 . S
C994 H982 0.950 . S
C994 C993 1.398 . S
C994 C995 1.391 . S
C995 H983 0.950 . S
C995 C991 1.393 . S
C995 C994 1.391 . S
H996 C1004 0.950 . S
H997 C1009 0.950 . S
H998 C1006 0.950 . S
H999 C1008 0.950 . S
H1000 C1010 0.950 . S
H1001 C1012 0.950 . S
H1002 C1014 0.950 . S
H1003 C1015 0.950 . S
C1004 H996 0.950 . S
C1004 C1005 1.386 . S
C1004 C1006 1.391 . S
C1005 C1004 1.386 . S
C1005 C1009 1.393 . S
C1006 H998 0.950 . S
C1006 C1004 1.391 . S
C1006 C1007 1.400 . S
C1007 C1006 1.400 . S
C1007 C1008 1.398 . S
C1007 C1013 1.491 . S
C1008 H999 0.950 . S
C1008 C1007 1.398 . S
C1008 C1009 1.391 . S
C1009 H997 0.950 . S
C1009 C1005 1.393 . S
C1009 C1008 1.391 . S
C1010 H1000 0.950 . S
C1010 C1011 1.386 . S
C1010 C1012 1.391 . S
C1011 C1010 1.386 . S
C1011 C1015 1.393 . S
C1012 H1001 0.950 . S
C1012 C1010 1.391 . S
C1012 C1013 1.400 . S
C1013 C1007 1.491 . S
C1013 C1012 1.400 . S
C1013 C1014 1.398 . S
C1014 H1002 0.950 . S
C1014 C1013 1.398 . S
C1014 C1015 1.391 . S
C1015 H1003 0.950 . S
C1015 C1011 1.393 . S
C1015 C1014 1.391 . S
H1016 C1024 0.950 . S
H1017 C1029 0.950 . S
H1018 C1026 0.950 . S
H1019 C1028 0.950 . S
H1020 C1030 0.950 . S
H1021 C1032 0.950 . S
H1022 C1034 0.950 . S
H1023 C1035 0.950 . S
C1024 H1016 0.950 . S
C1024 C1025 1.386 . S
C1024 C1026 1.391 . S
C1025 C1024 1.386 . S
C1025 C1029 1.393 . S
C1026 H1018 0.950 . S
C1026 C1024 1.391 . S
C1026 C1027 1.400 . S
C1027 C1026 1.400 . S
C1027 C1028 1.398 . S
C1027 C1033 1.491 1_554 S
C1028 H1019 0.950 . S
C1028 C1027 1.398 . S
C1028 C1029 1.391 . S
C1029 H1017 0.950 . S
C1029 C1025 1.393 . S
C1029 C1028 1.391 . S
C1030 H1020 0.950 . S
C1030 C1031 1.386 . S
C1030 C1032 1.391 . S
C1031 C1030 1.386 . S
C1031 C1035 1.393 . S
C1032 H1021 0.950 . S
C1032 C1030 1.391 . S
C1032 C1033 1.400 . S
C1033 C1027 1.491 1_556 S
C1033 C1032 1.400 . S
C1033 C1034 1.398 . S
C1034 H1022 0.950 . S
C1034 C1033 1.398 . S
C1034 C1035 1.391 . S
C1035 H1023 0.950 . S
C1035 C1031 1.393 . S
C1035 C1034 1.391 . S
H1036 C1044 0.950 . S
H1037 C1049 0.950 . S
H1038 C1046 0.950 . S
H1039 C1048 0.950 . S
H1040 C1050 0.950 . S
H1041 C1052 0.950 . S
H1042 C1054 0.950 . S
H1043 C1055 0.950 . S
C1044 H1036 0.950 . S
C1044 C1045 1.386 . S
C1044 C1046 1.391 . S
C1045 C1044 1.386 . S
C1045 C1049 1.393 . S
C1046 H1038 0.950 . S
C1046 C1044 1.391 . S
C1046 C1047 1.400 . S
C1047 C1046 1.400 . S
C1047 C1048 1.398 . S
C1047 C1053 1.491 . S
C1048 H1039 0.950 . S
C1048 C1047 1.398 . S
C1048 C1049 1.391 . S
C1049 H1037 0.950 . S
C1049 C1045 1.393 . S
C1049 C1048 1.391 . S
C1050 H1040 0.950 . S
C1050 C1051 1.386 . S
C1050 C1052 1.391 . S
C1051 C1050 1.386 . S
C1051 C1055 1.393 . S
C1052 H1041 0.950 . S
C1052 C1050 1.391 . S
C1052 C1053 1.400 . S
C1053 C1047 1.491 . S
C1053 C1052 1.400 . S
C1053 C1054 1.398 . S
C1054 H1042 0.950 . S
C1054 C1053 1.398 . S
C1054 C1055 1.391 . S
C1055 H1043 0.950 . S
C1055 C1051 1.393 . S
C1055 C1054 1.391 . S
H1056 C1064 0.950 . S
H1057 C1069 0.950 . S
H1058 C1066 0.950 . S
H1059 C1068 0.950 . S
H1060 C1070 0.950 . S
H1061 C1072 0.950 . S
H1062 C1074 0.950 . S
H1063 C1075 0.950 . S
C1064 H1056 0.950 . S
C1064 C1065 1.386 . S
C1064 C1066 1.391 . S
C1065 C1064 1.386 . S
C1065 C1069 1.393 . S
C1066 H1058 0.950 . S
C1066 C1064 1.391 . S
C1066 C1067 1.400 . S
C1067 C1066 1.400 . S
C1067 C1068 1.398 . S
C1067 C1073 1.491 . S
C1068 H1059 0.950 . S
C1068 C1067 1.398 . S
C1068 C1069 1.391 . S
C1069 H1057 0.950 . S
C1069 C1065 1.393 . S
C1069 C1068 1.391 . S
C1070 H1060 0.950 . S
C1070 C1071 1.386 . S
C1070 C1072 1.391 . S
C1071 C1070 1.386 . S
C1071 C1075 1.393 . S
C1072 H1061 0.950 . S
C1072 C1070 1.391 . S
C1072 C1073 1.400 . S
C1073 C1067 1.491 . S
C1073 C1072 1.400 . S
C1073 C1074 1.398 . S
C1074 H1062 0.950 . S
C1074 C1073 1.398 . S
C1074 C1075 1.391 . S
C1075 H1063 0.950 . S
C1075 C1071 1.393 . S
C1075 C1074 1.391 . S
H1076 C1084 0.950 . S
H1077 C1089 0.950 . S
H1078 C1086 0.950 . S
H1079 C1088 0.950 . S
H1080 C1090 0.950 . S
H1081 C1092 0.950 . S
H1082 C1094 0.950 . S
H1083 C1095 0.950 . S
C1084 H1076 0.950 . S
C1084 C1085 1.386 . S
C1084 C1086 1.391 . S
C1085 C1084 1.386 . S
C1085 C1089 1.393 . S
C1086 H1078 0.950 . S
C1086 C1084 1.391 . S
C1086 C1087 1.400 . S
C1087 C1086 1.400 . S
C1087 C1088 1.398 . S
C1087 C1093 1.491 . S
C1088 H1079 0.950 . S
C1088 C1087 1.398 . S
C1088 C1089 1.391 . S
C1089 H1077 0.950 . S
C1089 C1085 1.393 . S
C1089 C1088 1.391 . S
C1090 H1080 0.950 . S
C1090 C1091 1.386 . S
C1090 C1092 1.391 . S
C1091 C1090 1.386 . S
C1091 C1095 1.393 . S
C1092 H1081 0.950 . S
C1092 C1090 1.391 . S
C1092 C1093 1.400 . S
C1093 C1087 1.491 . S
C1093 C1092 1.400 . S
C1093 C1094 1.398 . S
C1094 H1082 0.950 . S
C1094 C1093 1.398 . S
C1094 C1095 1.391 . S
C1095 H1083 0.950 . S
C1095 C1091 1.393 . S
C1095 C1094 1.391 . S
H1096 C1104 0.950 . S
H1097 C1109 0.950 . S
H1098 C1106 0.950 . S
H1099 C1108 0.950 . S
H1100 C1110 0.950 . S
H1101 C1112 0.950 . S
H1102 C1114 0.950 . S
H1103 C1115 0.950 . S
C1104 H1096 0.950 . S
C1104 C1105 1.386 . S
C1104 C1106 1.391 . S
C1105 C1104 1.386 . S
C1105 C1109 1.393 . S
C1106 H1098 0.950 . S
C1106 C1104 1.391 . S
C1106 C1107 1.400 . S
C1107 C1106 1.400 . S
C1107 C1108 1.398 . S
C1107 C1113 1.491 1_554 S
C1108 H1099 0.950 . S
C1108 C1107 1.398 . S
C1108 C1109 1.391 . S
C1109 H1097 0.950 . S
C1109 C1105 1.393 . S
C1109 C1108 1.391 . S
C1110 H1100 0.950 . S
C1110 C1111 1.386 . S
C1110 C1112 1.391 . S
C1111 C1110 1.386 . S
C1111 C1115 1.393 . S
C1112 H1101 0.950 . S
C1112 C1110 1.391 . S
C1112 C1113 1.400 . S
C1113 C1107 1.491 1_556 S
C1113 C1112 1.400 . S
C1113 C1114 1.398 . S
C1114 H1102 0.950 . S
C1114 C1113 1.398 . S
C1114 C1115 1.391 . S
C1115 H1103 0.950 . S
C1115 C1111 1.393 . S
C1115 C1114 1.391 . S
H1116 C1124 0.950 . S
H1117 C1129 0.950 . S
H1118 C1126 0.950 . S
H1119 C1128 0.950 . S
H1120 C1130 0.950 . S
H1121 C1132 0.950 . S
H1122 C1134 0.950 . S
H1123 C1135 0.950 . S
C1124 H1116 0.950 . S
C1124 C1125 1.386 . S
C1124 C1126 1.391 . S
C1125 C1124 1.386 . S
C1125 C1129 1.393 . S
C1126 H1118 0.950 . S
C1126 C1124 1.391 . S
C1126 C1127 1.400 . S
C1127 C1126 1.400 . S
C1127 C1128 1.398 . S
C1127 C1133 1.491 . S
C1128 H1119 0.950 . S
C1128 C1127 1.398 . S
C1128 C1129 1.391 . S
C1129 H1117 0.950 . S
C1129 C1125 1.393 . S
C1129 C1128 1.391 . S
C1130 H1120 0.950 . S
C1130 C1131 1.386 . S
C1130 C1132 1.391 . S
C1131 C1130 1.386 . S
C1131 C1135 1.393 . S
C1132 H1121 0.950 . S
C1132 C1130 1.391 . S
C1132 C1133 1.400 . S
C1133 C1127 1.491 . S
C1133 C1132 1.400 . S
C1133 C1134 1.398 . S
C1134 H1122 0.950 . S
C1134 C1133 1.398 . S
C1134 C1135 1.391 . S
C1135 H1123 0.950 . S
C1135 C1131 1.393 . S
C1135 C1134 1.391 . S
H1136 C1144 0.950 . S
H1137 C1149 0.950 . S
H1138 C1146 0.950 . S
H1139 C1148 0.950 . S
H1140 C1150 0.950 . S
H1141 C1152 0.950 . S
H1142 C1154 0.950 . S
H1143 C1155 0.950 . S
C1144 H1136 0.950 . S
C1144 C1145 1.386 . S
C1144 C1146 1.391 . S
C1145 C1144 1.386 . S
C1145 C1149 1.393 . S
C1146 H1138 0.950 . S
C1146 C1144 1.391 . S
C1146 C1147 1.400 . S
C1147 C1146 1.400 . S
C1147 C1148 1.398 . S
C1147 C1153 1.491 . S
C1148 H1139 0.950 . S
C1148 C1147 1.398 . S
C1148 C1149 1.391 . S
C1149 H1137 0.950 . S
C1149 C1145 1.393 . S
C1149 C1148 1.391 . S
C1150 H1140 0.950 . S
C1150 C1151 1.386 . S
C1150 C1152 1.391 . S
C1151 C1150 1.386 . S
C1151 C1155 1.393 . S
C1152 H1141 0.950 . S
C1152 C1150 1.391 . S
C1152 C1153 1.400 . S
C1153 C1147 1.491 . S
C1153 C1152 1.400 . S
C1153 C1154 1.398 . S
C1154 H1142 0.950 . S
C1154 C1153 1.398 . S
C1154 C1155 1.391 . S
C1155 H1143 0.950 . S
C1155 C1151 1.393 . S
C1155 C1154 1.391 . S
H1156 C1164 0.950 . S
H1157 C1169 0.950 . S
H1158 C1166 0.950 . S
H1159 C1168 0.950 . S
H1160 C1170 0.950 . S
H1161 C1172 0.950 . S
H1162 C1174 0.950 . S
H1163 C1175 0.950 . S
C1164 H1156 0.950 . S
C1164 C1165 1.386 . S
C1164 C1166 1.391 . S
C1165 C1164 1.386 . S
C1165 C1169 1.393 . S
C1166 H1158 0.950 . S
C1166 C1164 1.391 . S
C1166 C1167 1.400 . S
C1167 C1166 1.400 . S
C1167 C1168 1.398 . S
C1167 C1173 1.491 . S
C1168 H1159 0.950 . S
C1168 C1167 1.398 . S
C1168 C1169 1.391 . S
C1169 H1157 0.950 . S
C1169 C1165 1.393 . S
C1169 C1168 1.391 . S
C1170 H1160 0.950 . S
C1170 C1171 1.386 . S
C1170 C1172 1.391 . S
C1171 C1170 1.386 . S
C1171 C1175 1.393 . S
C1172 H1161 0.950 . S
C1172 C1170 1.391 . S
C1172 C1173 1.400 . S
C1173 C1167 1.491 . S
C1173 C1172 1.400 . S
C1173 C1174 1.398 . S
C1174 H1162 0.950 . S
C1174 C1173 1.398 . S
C1174 C1175 1.391 . S
C1175 H1163 0.950 . S
C1175 C1171 1.393 . S
C1175 C1174 1.391 . S
H1176 C1184 0.950 . S
H1177 C1189 0.950 . S
H1178 C1186 0.950 . S
H1179 C1188 0.950 . S
H1180 C1190 0.950 . S
H1181 C1192 0.950 . S
H1182 C1194 0.950 . S
H1183 C1195 0.950 . S
C1184 H1176 0.950 . S
C1184 C1185 1.386 . S
C1184 C1186 1.391 . S
C1185 C1184 1.386 . S
C1185 C1189 1.393 . S
C1186 H1178 0.950 . S
C1186 C1184 1.391 . S
C1186 C1187 1.400 . S
C1187 C1186 1.400 . S
C1187 C1188 1.398 . S
C1187 C1193 1.491 . S
C1188 H1179 0.950 . S
C1188 C1187 1.398 . S
C1188 C1189 1.391 . S
C1189 H1177 0.950 . S
C1189 C1185 1.393 . S
C1189 C1188 1.391 . S
C1190 H1180 0.950 . S
C1190 C1191 1.386 . S
C1190 C1192 1.391 . S
C1191 C1190 1.386 . S
C1191 C1195 1.393 . S
C1192 H1181 0.950 . S
C1192 C1190 1.391 . S
C1192 C1193 1.400 . S
C1193 C1187 1.491 . S
C1193 C1192 1.400 . S
C1193 C1194 1.398 . S
C1194 H1182 0.950 . S
C1194 C1193 1.398 . S
C1194 C1195 1.391 . S
C1195 H1183 0.950 . S
C1195 C1191 1.393 . S
C1195 C1194 1.391 . S
H1196 C1204 0.950 . S
H1197 C1209 0.950 . S
H1198 C1206 0.950 . S
H1199 C1208 0.945 1_655 S
H1200 C1210 0.950 . S
H1201 C1212 0.950 1_554 S
H1202 C1214 0.918 1_455 S
H1203 C1215 0.950 . S
C1204 H1196 0.950 . S
C1204 C1205 1.386 . S
C1204 C1206 1.391 . S
C1205 C1204 1.386 . S
C1205 C1209 1.393 . S
C1206 H1198 0.950 . S
C1206 C1204 1.391 . S
C1206 C1207 1.400 . S
C1207 C1206 1.400 . S
C1207 C1208 1.398 . S
C1207 C1213 1.491 1_454 S
C1208 H1199 0.945 1_455 S
C1208 C1207 1.398 . S
C1208 C1209 1.391 . S
C1209 H1197 0.950 . S
C1209 C1205 1.393 . S
C1209 C1208 1.391 . S
C1210 H1200 0.950 . S
C1210 C1211 1.386 . S
C1210 C1212 1.391 . S
C1211 C1210 1.386 . S
C1211 C1215 1.393 . S
C1212 H1201 0.950 1_556 S
C1212 C1210 1.391 . S
C1212 C1213 1.400 . S
C1213 C1207 1.491 1_656 S
C1213 C1212 1.400 . S
C1213 C1214 1.398 . S
C1214 H1202 0.918 1_655 S
C1214 C1213 1.398 . S
C1214 C1215 1.391 . S
C1215 H1203 0.950 . S
C1215 C1211 1.393 . S
C1215 C1214 1.391 . S
H1216 C1224 0.950 . S
H1217 C1229 0.950 . S
H1218 C1226 0.950 . S
H1219 C1228 0.950 . S
H1220 C1230 0.950 . S
H1221 C1232 0.950 . S
H1222 C1234 0.950 . S
H1223 C1235 0.950 . S
C1224 H1216 0.950 . S
C1224 C1225 1.386 . S
C1224 C1226 1.391 . S
C1225 C1224 1.386 . S
C1225 C1229 1.393 . S
C1226 H1218 0.950 . S
C1226 C1224 1.391 . S
C1226 C1227 1.400 . S
C1227 C1226 1.400 . S
C1227 C1228 1.398 . S
C1227 C1233 1.491 . S
C1228 H1219 0.950 . S
C1228 C1227 1.398 . S
C1228 C1229 1.391 . S
C1229 H1217 0.950 . S
C1229 C1225 1.393 . S
C1229 C1228 1.391 . S
C1230 H1220 0.950 . S
C1230 C1231 1.386 . S
C1230 C1232 1.391 . S
C1231 C1230 1.386 . S
C1231 C1235 1.393 . S
C1232 H1221 0.950 . S
C1232 C1230 1.391 . S
C1232 C1233 1.400 . S
C1233 C1227 1.491 . S
C1233 C1232 1.400 . S
C1233 C1234 1.398 . S
C1234 H1222 0.950 . S
C1234 C1233 1.398 . S
C1234 C1235 1.391 . S
C1235 H1223 0.950 . S
C1235 C1231 1.393 . S
C1235 C1234 1.391 . S
H1236 C1244 0.950 . S
H1237 C1249 0.950 . S
H1238 C1246 0.950 . S
H1239 C1248 0.950 . S
H1240 C1250 0.950 . S
H1241 C1252 0.950 . S
H1242 C1254 0.950 . S
H1243 C1255 0.950 . S
C1244 H1236 0.950 . S
C1244 C1245 1.386 . S
C1244 C1246 1.391 . S
C1245 C1244 1.386 . S
C1245 C1249 1.393 . S
C1246 H1238 0.950 . S
C1246 C1244 1.391 . S
C1246 C1247 1.400 . S
C1247 C1246 1.400 . S
C1247 C1248 1.398 . S
C1247 C1253 1.491 . S
C1248 H1239 0.950 . S
C1248 C1247 1.398 . S
C1248 C1249 1.391 . S
C1249 H1237 0.950 . S
C1249 C1245 1.393 . S
C1249 C1248 1.391 . S
C1250 H1240 0.950 . S
C1250 C1251 1.386 . S
C1250 C1252 1.391 . S
C1251 C1250 1.386 . S
C1251 C1255 1.393 . S
C1252 H1241 0.950 . S
C1252 C1250 1.391 . S
C1252 C1253 1.400 . S
C1253 C1247 1.491 . S
C1253 C1252 1.400 . S
C1253 C1254 1.398 . S
C1254 H1242 0.950 . S
C1254 C1253 1.398 . S
C1254 C1255 1.391 . S
C1255 H1243 0.950 . S
C1255 C1251 1.393 . S
C1255 C1254 1.391 . S
H1256 C1264 0.950 . S
H1257 C1269 0.950 1_554 S
H1258 C1266 0.954 1_655 S
H1259 C1268 0.950 . S
H1260 C1270 0.950 1_545 S
H1261 C1272 0.950 . S
H1262 C1274 0.950 1_556 S
H1263 C1275 0.950 . S
C1264 H1256 0.950 . S
C1264 C1265 1.386 1_565 S
C1264 C1266 1.391 . S
C1265 C1264 1.386 1_545 S
C1265 C1269 1.393 . S
C1266 H1258 0.954 1_455 S
C1266 C1264 1.391 . S
C1266 C1267 1.400 1_556 S
C1267 C1266 1.400 1_554 S
C1267 C1268 1.398 1_565 S
C1267 C1273 1.491 1_455 S
C1268 H1259 0.950 . S
C1268 C1267 1.398 1_545 S
C1268 C1269 1.391 1_554 S
C1269 H1257 0.950 1_556 S
C1269 C1265 1.393 . S
C1269 C1268 1.391 1_556 S
C1270 H1260 0.950 1_565 S
C1270 C1271 1.386 . S
C1270 C1272 1.391 1_565 S
C1271 C1270 1.386 . S
C1271 C1275 1.393 . S
C1272 H1261 0.950 . S
C1272 C1270 1.391 1_545 S
C1272 C1273 1.400 1_545 S
C1273 C1267 1.491 1_655 S
C1273 C1272 1.400 1_565 S
C1273 C1274 1.398 . S
C1274 H1262 0.950 1_554 S
C1274 C1273 1.398 . S
C1274 C1275 1.391 . S
C1275 H1263 0.950 . S
C1275 C1271 1.393 . S
C1275 C1274 1.391 . S
H1276 C1284 0.950 . S
H1277 C1289 0.950 . S
H1278 C1286 0.950 . S
H1279 C1288 0.950 . S
H1280 C1290 0.950 . S
H1281 C1292 0.950 . S
H1282 C1294 0.950 . S
H1283 C1295 0.950 . S
C1284 H1276 0.950 . S
C1284 C1285 1.386 . S
C1284 C1286 1.391 . S
C1285 C1284 1.386 . S
C1285 C1289 1.393 1_565 S
C1286 H1278 0.950 . S
C1286 C1284 1.391 . S
C1286 C1287 1.430 . S
C1287 C1286 1.430 . S
C1287 C1288 1.377 1_565 S
C1287 C1293 1.484 1_565 S
C1288 H1279 0.950 . S
C1288 C1287 1.377 1_545 S
C1288 C1289 1.391 . S
C1289 H1277 0.950 . S
C1289 C1285 1.393 1_545 S
C1289 C1288 1.391 . S
C1290 H1280 0.950 . S
C1290 C1291 1.386 . S
C1290 C1292 1.391 . S
C1291 C1290 1.386 . S
C1291 C1295 1.393 1_545 S
C1292 H1281 0.950 . S
C1292 C1290 1.391 . S
C1292 C1293 1.400 . S
C1293 C1287 1.484 1_545 S
C1293 C1292 1.400 . S
C1293 C1294 1.398 1_545 S
C1294 H1282 0.950 . S
C1294 C1293 1.398 1_565 S
C1294 C1295 1.391 . S
C1295 H1283 0.950 . S
C1295 C1291 1.393 1_565 S
C1295 C1294 1.391 . S
H1296 C1304 0.950 . S
H1297 C1309 0.950 . S
H1298 C1306 0.950 . S
H1299 C1308 0.950 . S
H1300 C1310 0.950 . S
H1301 C1312 0.950 . S
H1302 C1314 0.950 . S
H1303 C1315 0.950 . S
C1304 H1296 0.950 . S
C1304 C1305 1.386 . S
C1304 C1306 1.391 . S
C1305 C1304 1.386 . S
C1305 C1309 1.393 . S
C1306 H1298 0.950 . S
C1306 C1304 1.391 . S
C1306 C1307 1.400 . S
C1307 C1306 1.400 . S
C1307 C1308 1.398 . S
C1307 C1313 1.491 . S
C1308 H1299 0.950 . S
C1308 C1307 1.398 . S
C1308 C1309 1.391 . S
C1309 H1297 0.950 . S
C1309 C1305 1.393 . S
C1309 C1308 1.391 . S
C1310 H1300 0.950 . S
C1310 C1311 1.386 . S
C1310 C1312 1.391 . S
C1311 C1310 1.386 . S
C1311 C1315 1.393 . S
C1312 H1301 0.950 . S
C1312 C1310 1.391 . S
C1312 C1313 1.400 . S
C1313 C1307 1.491 . S
C1313 C1312 1.400 . S
C1313 C1314 1.398 . S
C1314 H1302 0.950 . S
C1314 C1313 1.398 . S
C1314 C1315 1.391 . S
C1315 H1303 0.950 . S
C1315 C1311 1.393 . S
C1315 C1314 1.391 . S
H1316 C1324 0.950 . S
H1317 C1329 0.950 . S
H1318 C1326 0.950 . S
H1319 C1328 0.950 . S
H1320 C1330 0.950 . S
H1321 C1332 0.950 . S
H1322 C1334 0.950 . S
H1323 C1335 0.950 . S
C1324 H1316 0.950 . S
C1324 C1325 1.386 . S
C1324 C1326 1.391 . S
C1325 C1324 1.386 . S
C1325 C1329 1.393 . S
C1326 H1318 0.950 . S
C1326 C1324 1.391 . S
C1326 C1327 1.400 . S
C1327 C1326 1.400 . S
C1327 C1328 1.398 . S
C1327 C1333 1.491 . S
C1328 H1319 0.950 . S
C1328 C1327 1.398 . S
C1328 C1329 1.391 . S
C1329 H1317 0.950 . S
C1329 C1325 1.393 . S
C1329 C1328 1.391 . S
C1330 H1320 0.950 . S
C1330 C1331 1.386 . S
C1330 C1332 1.391 . S
C1331 C1330 1.386 . S
C1331 C1335 1.393 . S
C1332 H1321 0.950 . S
C1332 C1330 1.391 . S
C1332 C1333 1.400 . S
C1333 C1327 1.491 . S
C1333 C1332 1.400 . S
C1333 C1334 1.398 . S
C1334 H1322 0.950 . S
C1334 C1333 1.398 . S
C1334 C1335 1.391 . S
C1335 H1323 0.950 . S
C1335 C1331 1.393 . S
C1335 C1334 1.391 . S
H1336 C1344 0.950 . S
H1337 C1349 0.950 . S
H1338 C1346 0.950 . S
H1339 C1348 0.950 . S
H1340 C1350 0.950 . S
H1341 C1352 0.950 . S
H1342 C1354 0.950 . S
H1343 C1355 0.950 . S
C1344 H1336 0.950 . S
C1344 C1345 1.386 . S
C1344 C1346 1.391 . S
C1345 C1344 1.386 . S
C1345 C1349 1.393 . S
C1346 H1338 0.950 . S
C1346 C1344 1.391 . S
C1346 C1347 1.400 . S
C1347 C1346 1.400 . S
C1347 C1348 1.398 . S
C1347 C1353 1.491 . S
C1348 H1339 0.950 . S
C1348 C1347 1.398 . S
C1348 C1349 1.391 . S
C1349 H1337 0.950 . S
C1349 C1345 1.393 . S
C1349 C1348 1.391 . S
C1350 H1340 0.950 . S
C1350 C1351 1.386 . S
C1350 C1352 1.391 . S
C1351 C1350 1.386 . S
C1351 C1355 1.393 . S
C1352 H1341 0.950 . S
C1352 C1350 1.391 . S
C1352 C1353 1.400 . S
C1353 C1347 1.491 . S
C1353 C1352 1.400 . S
C1353 C1354 1.398 . S
C1354 H1342 0.950 . S
C1354 C1353 1.398 . S
C1354 C1355 1.391 . S
C1355 H1343 0.950 . S
C1355 C1351 1.393 . S
C1355 C1354 1.391 . S
H1356 C1364 0.950 . S
H1357 C1369 0.950 . S
H1358 C1366 0.950 . S
H1359 C1368 0.950 . S
H1360 C1370 0.950 . S
H1361 C1372 0.950 . S
H1362 C1374 0.950 1_556 S
H1363 C1375 0.950 . S
C1364 H1356 0.950 . S
C1364 C1365 1.386 . S
C1364 C1366 1.391 . S
C1365 C1364 1.386 . S
C1365 C1369 1.393 . S
C1366 H1358 0.950 . S
C1366 C1364 1.391 . S
C1366 C1367 1.400 . S
C1367 C1366 1.400 . S
C1367 C1368 1.398 . S
C1367 C1373 1.491 . S
C1368 H1359 0.950 . S
C1368 C1367 1.398 . S
C1368 C1369 1.391 . S
C1369 H1357 0.950 . S
C1369 C1365 1.393 . S
C1369 C1368 1.391 . S
C1370 H1360 0.950 . S
C1370 C1371 1.386 . S
C1370 C1372 1.391 . S
C1371 C1370 1.386 . S
C1371 C1375 1.393 1_554 S
C1372 H1361 0.950 . S
C1372 C1370 1.391 . S
C1372 C1373 1.400 . S
C1373 C1367 1.491 . S
C1373 C1372 1.400 . S
C1373 C1374 1.398 . S
C1374 H1362 0.950 1_554 S
C1374 C1373 1.398 . S
C1374 C1375 1.391 1_554 S
C1375 H1363 0.950 . S
C1375 C1371 1.393 1_556 S
C1375 C1374 1.391 1_556 S
H1376 C1384 0.950 . S
H1377 C1389 0.950 . S
H1378 C1386 0.950 . S
H1379 C1388 0.950 . S
H1380 C1390 0.950 . S
H1381 C1392 0.950 . S
H1382 C1394 0.950 . S
H1383 C1395 0.950 . S
C1384 H1376 0.950 . S
C1384 C1385 1.386 . S
C1384 C1386 1.391 . S
C1385 C1384 1.386 . S
C1385 C1389 1.393 . S
C1386 H1378 0.950 . S
C1386 C1384 1.391 . S
C1386 C1387 1.400 . S
C1387 C1386 1.400 . S
C1387 C1388 1.398 . S
C1387 C1393 1.491 . S
C1388 H1379 0.950 . S
C1388 C1387 1.398 . S
C1388 C1389 1.391 . S
C1389 H1377 0.950 . S
C1389 C1385 1.393 . S
C1389 C1388 1.391 . S
C1390 H1380 0.950 . S
C1390 C1391 1.386 . S
C1390 C1392 1.391 . S
C1391 C1390 1.386 . S
C1391 C1395 1.393 . S
C1392 H1381 0.950 . S
C1392 C1390 1.391 . S
C1392 C1393 1.400 . S
C1393 C1387 1.491 . S
C1393 C1392 1.400 . S
C1393 C1394 1.398 . S
C1394 H1382 0.950 . S
C1394 C1393 1.398 . S
C1394 C1395 1.391 . S
C1395 H1383 0.950 . S
C1395 C1391 1.393 . S
C1395 C1394 1.391 . S
H1396 C1404 0.950 . S
H1397 C1409 0.950 . S
H1398 C1406 0.950 . S
H1399 C1408 0.950 . S
H1400 C1410 0.950 . S
H1401 C1412 0.950 . S
H1402 C1414 0.950 . S
H1403 C1415 0.950 . S
C1404 H1396 0.950 . S
C1404 C1405 1.386 . S
C1404 C1406 1.391 . S
C1405 C1404 1.386 . S
C1405 C1409 1.393 . S
C1406 H1398 0.950 . S
C1406 C1404 1.391 . S
C1406 C1407 1.400 . S
C1407 C1406 1.400 . S
C1407 C1408 1.398 . S
C1407 C1413 1.491 . S
C1408 H1399 0.950 . S
C1408 C1407 1.398 . S
C1408 C1409 1.391 . S
C1409 H1397 0.950 . S
C1409 C1405 1.393 . S
C1409 C1408 1.391 . S
C1410 H1400 0.950 . S
C1410 C1411 1.386 . S
C1410 C1412 1.391 . S
C1411 C1410 1.386 . S
C1411 C1415 1.393 . S
C1412 H1401 0.950 . S
C1412 C1410 1.391 . S
C1412 C1413 1.400 . S
C1413 C1407 1.491 . S
C1413 C1412 1.400 . S
C1413 C1414 1.398 . S
C1414 H1402 0.950 . S
C1414 C1413 1.398 . S
C1414 C1415 1.391 . S
C1415 H1403 0.950 . S
C1415 C1411 1.393 . S
C1415 C1414 1.391 . S
H1416 C1424 0.950 . S
H1417 C1429 0.950 . S
H1418 C1426 0.950 . S
H1419 C1428 0.950 . S
H1420 C1430 0.950 . S
H1421 C1432 0.950 . S
H1422 C1434 0.950 . S
H1423 C1435 0.950 . S
C1424 H1416 0.950 . S
C1424 C1425 1.386 . S
C1424 C1426 1.391 . S
C1425 C1424 1.386 . S
C1425 C1429 1.393 . S
C1426 H1418 0.950 . S
C1426 C1424 1.391 . S
C1426 C1427 1.400 . S
C1427 C1426 1.400 . S
C1427 C1428 1.398 . S
C1427 C1433 1.491 . S
C1428 H1419 0.950 . S
C1428 C1427 1.398 . S
C1428 C1429 1.391 . S
C1429 H1417 0.950 . S
C1429 C1425 1.393 . S
C1429 C1428 1.391 . S
C1430 H1420 0.950 . S
C1430 C1431 1.386 . S
C1430 C1432 1.391 . S
C1431 C1430 1.386 . S
C1431 C1435 1.393 . S
C1432 H1421 0.950 . S
C1432 C1430 1.391 . S
C1432 C1433 1.400 . S
C1433 C1427 1.491 . S
C1433 C1432 1.400 . S
C1433 C1434 1.398 . S
C1434 H1422 0.950 . S
C1434 C1433 1.398 . S
C1434 C1435 1.391 . S
C1435 H1423 0.950 . S
C1435 C1431 1.393 . S
C1435 C1434 1.391 . S
H1436 C1444 0.950 . S
H1437 C1449 0.950 . S
H1438 C1446 0.950 . S
H1439 C1448 0.950 . S
H1440 C1450 0.950 . S
H1441 C1452 0.950 . S
H1442 C1454 0.950 . S
H1443 C1455 0.950 . S
C1444 H1436 0.950 . S
C1444 C1445 1.386 1_554 S
C1444 C1446 1.391 1_554 S
C1445 C1444 1.386 1_556 S
C1445 C1449 1.393 . S
C1446 H1438 0.950 . S
C1446 C1444 1.391 1_556 S
C1446 C1447 1.400 . S
C1447 C1446 1.400 . S
C1447 C1448 1.398 . S
C1447 C1453 1.491 . S
C1448 H1439 0.950 . S
C1448 C1447 1.398 . S
C1448 C1449 1.391 . S
C1449 H1437 0.950 . S
C1449 C1445 1.393 . S
C1449 C1448 1.391 . S
C1450 H1440 0.950 . S
C1450 C1451 1.386 . S
C1450 C1452 1.391 . S
C1451 C1450 1.386 . S
C1451 C1455 1.393 . S
C1452 H1441 0.950 . S
C1452 C1450 1.391 . S
C1452 C1453 1.400 . S
C1453 C1447 1.491 . S
C1453 C1452 1.400 . S
C1453 C1454 1.398 . S
C1454 H1442 0.950 . S
C1454 C1453 1.398 . S
C1454 C1455 1.391 . S
C1455 H1443 0.950 . S
C1455 C1451 1.393 . S
C1455 C1454 1.391 . S
H1456 C1464 0.950 . S
H1457 C1469 0.949 1_554 S
H1458 C1466 0.950 . S
H1459 C1468 0.950 . S
H1460 C1470 0.950 . S
H1461 C1472 0.950 . S
H1462 C1474 0.950 . S
H1463 C1475 0.950 . S
C1464 H1456 0.950 . S
C1464 C1465 1.386 . S
C1464 C1466 1.391 . S
C1465 C1464 1.386 . S
C1465 C1469 1.393 . S
C1466 H1458 0.950 . S
C1466 C1464 1.391 . S
C1466 C1467 1.400 . S
C1467 C1466 1.400 . S
C1467 C1468 1.398 . S
C1467 C1473 1.491 . S
C1468 H1459 0.950 . S
C1468 C1467 1.398 . S
C1468 C1469 1.391 . S
C1469 H1457 0.949 1_556 S
C1469 C1465 1.393 . S
C1469 C1468 1.391 . S
C1470 H1460 0.950 . S
C1470 C1471 1.386 . S
C1470 C1472 1.391 1_545 S
C1471 C1470 1.386 . S
C1471 C1475 1.393 . S
C1472 H1461 0.950 . S
C1472 C1470 1.391 1_565 S
C1472 C1473 1.400 . S
C1473 C1467 1.491 . S
C1473 C1472 1.400 . S
C1473 C1474 1.398 . S
C1474 H1462 0.950 . S
C1474 C1473 1.398 . S
C1474 C1475 1.391 1_565 S
C1475 H1463 0.950 . S
C1475 C1471 1.393 . S
C1475 C1474 1.391 1_545 S
H1476 C1484 0.950 . S
H1477 C1489 0.950 . S
H1478 C1486 0.950 1_556 S
H1479 C1488 0.950 . S
H1480 C1490 0.950 . S
H1481 C1492 0.950 . S
H1482 C1494 0.950 1_556 S
H1483 C1495 0.950 . S
C1484 H1476 0.950 . S
C1484 C1485 1.386 . S
C1484 C1486 1.391 . S
C1485 C1484 1.386 . S
C1485 C1489 1.393 . S
C1486 H1478 0.950 1_554 S
C1486 C1484 1.391 . S
C1486 C1487 1.400 . S
C1487 C1486 1.400 . S
C1487 C1488 1.398 . S
C1487 C1493 1.491 . S
C1488 H1479 0.950 . S
C1488 C1487 1.398 . S
C1488 C1489 1.391 . S
C1489 H1477 0.950 . S
C1489 C1485 1.393 . S
C1489 C1488 1.391 . S
C1490 H1480 0.950 . S
C1490 C1491 1.386 . S
C1490 C1492 1.391 . S
C1491 C1490 1.386 . S
C1491 C1495 1.393 1_554 S
C1492 H1481 0.950 . S
C1492 C1490 1.391 . S
C1492 C1493 1.400 . S
C1493 C1487 1.491 . S
C1493 C1492 1.400 . S
C1493 C1494 1.398 . S
C1494 H1482 0.950 1_554 S
C1494 C1493 1.398 . S
C1494 C1495 1.391 1_554 S
C1495 H1483 0.950 . S
C1495 C1491 1.393 1_556 S
C1495 C1494 1.391 1_556 S
H1496 C1504 0.950 . S
H1497 C1509 0.950 . S
H1498 C1506 0.950 . S
H1499 C1508 0.950 . S
H1500 C1510 0.950 . S
H1501 C1512 0.950 . S
H1502 C1514 0.950 . S
H1503 C1515 0.950 . S
C1504 H1496 0.950 . S
C1504 C1505 1.386 . S
C1504 C1506 1.391 1_565 S
C1505 C1504 1.386 . S
C1505 C1509 1.393 . S
C1506 H1498 0.950 . S
C1506 C1504 1.391 1_545 S
C1506 C1507 1.400 . S
C1507 C1506 1.400 . S
C1507 C1508 1.398 . S
C1507 C1513 1.491 . S
C1508 H1499 0.950 . S
C1508 C1507 1.398 . S
C1508 C1509 1.391 1_545 S
C1509 H1497 0.950 . S
C1509 C1505 1.393 . S
C1509 C1508 1.391 1_565 S
C1510 H1500 0.950 . S
C1510 C1511 1.386 . S
C1510 C1512 1.391 . S
C1511 C1510 1.386 . S
C1511 C1515 1.393 . S
C1512 H1501 0.950 . S
C1512 C1510 1.391 . S
C1512 C1513 1.400 . S
C1513 C1507 1.491 . S
C1513 C1512 1.400 . S
C1513 C1514 1.398 . S
C1514 H1502 0.950 . S
C1514 C1513 1.398 . S
C1514 C1515 1.391 . S
C1515 H1503 0.950 . S
C1515 C1511 1.393 . S
C1515 C1514 1.391 . S
H1516 C1524 0.950 . S
H1517 C1529 0.950 . S
H1518 C1526 0.950 . S
H1519 C1528 0.950 . S
H1520 C1530 0.950 . S
H1521 C1532 0.950 . S
H1522 C1534 0.950 . S
H1523 C1535 0.950 . S
C1524 H1516 0.950 . S
C1524 C1525 1.386 . S
C1524 C1526 1.391 . S
C1525 C1524 1.386 . S
C1525 C1529 1.393 . S
C1526 H1518 0.950 . S
C1526 C1524 1.391 . S
C1526 C1527 1.400 . S
C1527 C1526 1.400 . S
C1527 C1528 1.398 . S
C1527 C1533 1.491 . S
C1528 H1519 0.950 . S
C1528 C1527 1.398 . S
C1528 C1529 1.391 . S
C1529 H1517 0.950 . S
C1529 C1525 1.393 . S
C1529 C1528 1.391 . S
C1530 H1520 0.950 . S
C1530 C1531 1.386 . S
C1530 C1532 1.391 . S
C1531 C1530 1.386 . S
C1531 C1535 1.393 . S
C1532 H1521 0.950 . S
C1532 C1530 1.391 . S
C1532 C1533 1.400 . S
C1533 C1527 1.491 . S
C1533 C1532 1.400 . S
C1533 C1534 1.398 . S
C1534 H1522 0.950 . S
C1534 C1533 1.398 . S
C1534 C1535 1.391 . S
C1535 H1523 0.950 . S
C1535 C1531 1.393 . S
C1535 C1534 1.391 . S
H1536 C1544 0.950 . S
H1537 C1549 0.950 . S
H1538 C1546 0.950 . S
H1539 C1548 0.950 . S
H1540 C1550 0.950 . S
H1541 C1552 0.950 . S
H1542 C1554 0.950 . S
H1543 C1555 0.950 . S
C1544 H1536 0.950 . S
C1544 C1545 1.386 . S
C1544 C1546 1.391 . S
C1545 C1544 1.386 . S
C1545 C1549 1.393 . S
C1546 H1538 0.950 . S
C1546 C1544 1.391 . S
C1546 C1547 1.400 . S
C1547 C1546 1.400 . S
C1547 C1548 1.398 . S
C1547 C1553 1.491 . S
C1548 H1539 0.950 . S
C1548 C1547 1.398 . S
C1548 C1549 1.391 . S
C1549 H1537 0.950 . S
C1549 C1545 1.393 . S
C1549 C1548 1.391 . S
C1550 H1540 0.950 . S
C1550 C1551 1.386 . S
C1550 C1552 1.391 1_565 S
C1551 C1550 1.386 . S
C1551 C1555 1.393 . S
C1552 H1541 0.950 . S
C1552 C1550 1.391 1_545 S
C1552 C1553 1.400 . S
C1553 C1547 1.491 . S
C1553 C1552 1.400 . S
C1553 C1554 1.398 . S
C1554 H1542 0.950 . S
C1554 C1553 1.398 . S
C1554 C1555 1.391 1_545 S
C1555 H1543 0.950 . S
C1555 C1551 1.393 . S
C1555 C1554 1.391 1_565 S
H1556 C1564 0.950 . S
H1557 C1569 0.950 . S
H1558 C1566 0.950 . S
H1559 C1568 0.950 1_554 S
H1560 C1570 0.950 . S
H1561 C1572 0.950 . S
H1562 C1574 0.950 . S
H1563 C1575 0.950 . S
C1564 H1556 0.950 . S
C1564 C1565 1.386 . S
C1564 C1566 1.391 . S
C1565 C1564 1.386 . S
C1565 C1569 1.393 . S
C1566 H1558 0.950 . S
C1566 C1564 1.391 . S
C1566 C1567 1.400 . S
C1567 C1566 1.400 . S
C1567 C1568 1.398 . S
C1567 C1573 1.491 . S
C1568 H1559 0.950 1_556 S
C1568 C1567 1.398 . S
C1568 C1569 1.391 . S
C1569 H1557 0.950 . S
C1569 C1565 1.393 . S
C1569 C1568 1.391 . S
C1570 H1560 0.950 . S
C1570 C1571 1.386 1_554 S
C1570 C1572 1.391 . S
C1571 C1570 1.386 1_556 S
C1571 C1575 1.393 . S
C1572 H1561 0.950 . S
C1572 C1570 1.391 . S
C1572 C1573 1.400 1_554 S
C1573 C1567 1.491 . S
C1573 C1572 1.400 1_556 S
C1573 C1574 1.398 . S
C1574 H1562 0.950 . S
C1574 C1573 1.398 . S
C1574 C1575 1.391 . S
C1575 H1563 0.950 . S
C1575 C1571 1.393 . S
C1575 C1574 1.391 . S
H1576 C1584 0.950 . S
H1577 C1589 0.950 . S
H1578 C1586 0.950 . S
H1579 C1588 0.950 . S
H1580 C1590 0.950 . S
H1581 C1592 0.950 . S
H1582 C1594 0.950 . S
H1583 C1595 0.950 . S
C1584 H1576 0.950 . S
C1584 C1585 1.386 . S
C1584 C1586 1.391 . S
C1585 C1584 1.386 . S
C1585 C1589 1.393 . S
C1586 H1578 0.950 . S
C1586 C1584 1.391 . S
C1586 C1587 1.400 . S
C1587 C1586 1.400 . S
C1587 C1588 1.398 . S
C1587 C1593 1.491 . S
C1588 H1579 0.950 . S
C1588 C1587 1.398 . S
C1588 C1589 1.391 . S
C1589 H1577 0.950 . S
C1589 C1585 1.393 . S
C1589 C1588 1.391 . S
C1590 H1580 0.950 . S
C1590 C1591 1.386 . S
C1590 C1592 1.391 1_545 S
C1591 C1590 1.386 . S
C1591 C1595 1.393 . S
C1592 H1581 0.950 . S
C1592 C1590 1.391 1_565 S
C1592 C1593 1.400 . S
C1593 C1587 1.491 . S
C1593 C1592 1.400 . S
C1593 C1594 1.398 . S
C1594 H1582 0.950 . S
C1594 C1593 1.398 . S
C1594 C1595 1.391 1_565 S
C1595 H1583 0.950 . S
C1595 C1591 1.393 . S
C1595 C1594 1.391 1_545 S
H1596 C1604 0.950 . S
H1597 C1609 0.950 . S
H1598 C1606 0.950 . S
H1599 C1608 0.950 . S
H1600 C1610 0.950 . S
H1601 C1612 0.950 . S
H1602 C1614 0.950 . S
H1603 C1615 0.950 . S
C1604 H1596 0.950 . S
C1604 C1605 1.386 . S
C1604 C1606 1.391 . S
C1605 C1604 1.386 . S
C1605 C1609 1.393 . S
C1606 H1598 0.950 . S
C1606 C1604 1.391 . S
C1606 C1607 1.400 . S
C1607 C1606 1.400 . S
C1607 C1608 1.398 . S
C1607 C1613 1.491 . S
C1608 H1599 0.950 . S
C1608 C1607 1.398 . S
C1608 C1609 1.391 . S
C1609 H1597 0.950 . S
C1609 C1605 1.393 . S
C1609 C1608 1.391 . S
C1610 H1600 0.950 . S
C1610 C1611 1.386 . S
C1610 C1612 1.391 . S
C1611 C1610 1.386 . S
C1611 C1615 1.393 . S
C1612 H1601 0.950 . S
C1612 C1610 1.391 . S
C1612 C1613 1.400 . S
C1613 C1607 1.491 . S
C1613 C1612 1.400 . S
C1613 C1614 1.398 . S
C1614 H1602 0.950 . S
C1614 C1613 1.398 . S
C1614 C1615 1.391 . S
C1615 H1603 0.950 . S
C1615 C1611 1.393 . S
C1615 C1614 1.391 . S
H1616 C1624 0.950 . S
H1617 C1629 0.950 . S
H1618 C1626 0.950 . S
H1619 C1628 0.950 . S
H1620 C1630 0.950 . S
H1621 C1632 0.950 . S
H1622 C1634 0.950 . S
H1623 C1635 0.950 . S
C1624 H1616 0.950 . S
C1624 C1625 1.386 . S
C1624 C1626 1.391 . S
C1625 C1624 1.386 . S
C1625 C1629 1.393 . S
C1626 H1618 0.950 . S
C1626 C1624 1.391 . S
C1626 C1627 1.400 . S
C1627 C1626 1.400 . S
C1627 C1628 1.398 . S
C1627 C1633 1.491 . S
C1628 H1619 0.950 . S
C1628 C1627 1.398 . S
C1628 C1629 1.391 . S
C1629 H1617 0.950 . S
C1629 C1625 1.393 . S
C1629 C1628 1.391 . S
C1630 H1620 0.950 . S
C1630 C1631 1.386 . S
C1630 C1632 1.391 . S
C1631 C1630 1.386 . S
C1631 C1635 1.393 . S
C1632 H1621 0.950 . S
C1632 C1630 1.391 . S
C1632 C1633 1.400 . S
C1633 C1627 1.491 . S
C1633 C1632 1.400 . S
C1633 C1634 1.398 . S
C1634 H1622 0.950 . S
C1634 C1633 1.398 . S
C1634 C1635 1.391 . S
C1635 H1623 0.950 . S
C1635 C1631 1.393 . S
C1635 C1634 1.391 . S
H1636 C1644 0.950 . S
H1637 C1649 0.953 . S
H1638 C1646 0.950 . S
H1639 C1648 0.950 . S
H1640 C1650 0.950 . S
H1641 C1652 0.950 . S
H1642 C1654 0.950 1_556 S
H1643 C1655 0.950 . S
C1644 H1636 0.950 . S
C1644 C1645 1.386 . S
C1644 C1646 1.391 . S
C1645 C1644 1.386 . S
C1645 C1649 1.386 1_556 S
C1646 H1638 0.950 . S
C1646 C1644 1.391 . S
C1646 C1647 1.400 1_556 S
C1647 C1646 1.400 1_554 S
C1647 C1648 1.398 . S
C1647 C1653 1.491 . S
C1648 H1639 0.950 . S
C1648 C1647 1.398 . S
C1648 C1649 1.394 . S
C1649 H1637 0.953 . S
C1649 C1645 1.386 1_554 S
C1649 C1648 1.394 . S
C1650 H1640 0.950 . S
C1650 C1651 1.386 . S
C1650 C1652 1.391 . S
C1651 C1650 1.386 . S
C1651 C1655 1.393 . S
C1652 H1641 0.950 . S
C1652 C1650 1.391 . S
C1652 C1653 1.400 . S
C1653 C1647 1.491 . S
C1653 C1652 1.400 . S
C1653 C1654 1.398 . S
C1654 H1642 0.950 1_554 S
C1654 C1653 1.398 . S
C1654 C1655 1.391 . S
C1655 H1643 0.950 . S
C1655 C1651 1.393 . S
C1655 C1654 1.391 . S
H1656 C1664 0.950 . S
H1657 C1669 0.950 . S
H1658 C1666 0.950 . S
H1659 C1668 0.950 . S
H1660 C1670 0.950 . S
H1661 C1672 0.950 . S
H1662 C1674 0.950 . S
H1663 C1675 0.950 . S
C1664 H1656 0.950 . S
C1664 C1665 1.386 . S
C1664 C1666 1.391 . S
C1665 C1664 1.386 . S
C1665 C1669 1.393 . S
C1666 H1658 0.950 . S
C1666 C1664 1.391 . S
C1666 C1667 1.400 . S
C1667 C1666 1.400 . S
C1667 C1668 1.398 . S
C1667 C1673 1.491 . S
C1668 H1659 0.950 . S
C1668 C1667 1.398 . S
C1668 C1669 1.391 . S
C1669 H1657 0.950 . S
C1669 C1665 1.393 . S
C1669 C1668 1.391 . S
C1670 H1660 0.950 . S
C1670 C1671 1.386 . S
C1670 C1672 1.391 . S
C1671 C1670 1.386 . S
C1671 C1675 1.393 . S
C1672 H1661 0.950 . S
C1672 C1670 1.391 . S
C1672 C1673 1.400 . S
C1673 C1667 1.491 . S
C1673 C1672 1.400 . S
C1673 C1674 1.398 . S
C1674 H1662 0.950 . S
C1674 C1673 1.398 . S
C1674 C1675 1.391 . S
C1675 H1663 0.950 . S
C1675 C1671 1.393 . S
C1675 C1674 1.391 . S
H1676 C1684 0.950 . S
H1677 C1689 0.950 . S
H1678 C1686 0.950 . S
H1679 C1688 0.950 . S
H1680 C1690 0.950 . S
H1681 C1692 0.950 . S
H1682 C1694 0.950 . S
H1683 C1695 0.950 . S
C1684 H1676 0.950 . S
C1684 C1685 1.386 . S
C1684 C1686 1.391 . S
C1685 C1684 1.386 . S
C1685 C1689 1.393 1_455 S
C1686 H1678 0.950 . S
C1686 C1684 1.391 . S
C1686 C1687 1.400 . S
C1687 C1686 1.400 . S
C1687 C1688 1.398 1_455 S
C1687 C1693 1.491 1_455 S
C1688 H1679 0.950 . S
C1688 C1687 1.398 1_655 S
C1688 C1689 1.391 . S
C1689 H1677 0.950 . S
C1689 C1685 1.393 1_655 S
C1689 C1688 1.391 . S
C1690 H1680 0.950 . S
C1690 C1691 1.386 . S
C1690 C1692 1.391 . S
C1691 C1690 1.386 . S
C1691 C1695 1.393 1_655 S
C1692 H1681 0.950 . S
C1692 C1690 1.391 . S
C1692 C1693 1.400 . S
C1693 C1687 1.491 1_655 S
C1693 C1692 1.400 . S
C1693 C1694 1.398 1_655 S
C1694 H1682 0.950 . S
C1694 C1693 1.398 1_455 S
C1694 C1695 1.391 . S
C1695 H1683 0.950 . S
C1695 C1691 1.393 1_455 S
C1695 C1694 1.391 . S
H1696 C1704 0.950 . S
H1697 C1709 0.950 . S
H1698 C1706 0.950 . S
H1699 C1708 0.950 . S
H1700 C1710 0.950 . S
H1701 C1712 0.950 . S
H1702 C1714 0.950 . S
H1703 C1715 0.950 . S
C1704 H1696 0.950 . S
C1704 C1705 1.386 . S
C1704 C1706 1.391 . S
C1705 C1704 1.386 . S
C1705 C1709 1.393 . S
C1706 H1698 0.950 . S
C1706 C1704 1.391 . S
C1706 C1707 1.400 . S
C1707 C1706 1.400 . S
C1707 C1708 1.398 . S
C1707 C1713 1.491 . S
C1708 H1699 0.950 . S
C1708 C1707 1.398 . S
C1708 C1709 1.391 . S
C1709 H1697 0.950 . S
C1709 C1705 1.393 . S
C1709 C1708 1.391 . S
C1710 H1700 0.950 . S
C1710 C1711 1.386 . S
C1710 C1712 1.391 . S
C1711 C1710 1.386 . S
C1711 C1715 1.393 . S
C1712 H1701 0.950 . S
C1712 C1710 1.391 . S
C1712 C1713 1.400 . S
C1713 C1707 1.491 . S
C1713 C1712 1.400 . S
C1713 C1714 1.398 . S
C1714 H1702 0.950 . S
C1714 C1713 1.398 . S
C1714 C1715 1.391 . S
C1715 H1703 0.950 . S
C1715 C1711 1.393 . S
C1715 C1714 1.391 . S
H1716 C1724 0.950 . S
H1717 C1729 0.950 . S
H1718 C1726 0.950 . S
H1719 C1728 0.950 . S
H1720 C1730 0.950 . S
H1721 C1732 0.950 . S
H1722 C1734 0.950 . S
H1723 C1735 0.950 . S
C1724 H1716 0.950 . S
C1724 C1725 1.386 . S
C1724 C1726 1.391 . S
C1725 C1724 1.386 . S
C1725 C1729 1.393 . S
C1726 H1718 0.950 . S
C1726 C1724 1.391 . S
C1726 C1727 1.400 . S
C1727 C1726 1.400 . S
C1727 C1728 1.398 . S
C1727 C1733 1.491 . S
C1728 H1719 0.950 . S
C1728 C1727 1.398 . S
C1728 C1729 1.391 . S
C1729 H1717 0.950 . S
C1729 C1725 1.393 . S
C1729 C1728 1.391 . S
C1730 H1720 0.950 . S
C1730 C1731 1.386 . S
C1730 C1732 1.391 . S
C1731 C1730 1.386 . S
C1731 C1735 1.393 . S
C1732 H1721 0.950 . S
C1732 C1730 1.391 . S
C1732 C1733 1.400 . S
C1733 C1727 1.491 . S
C1733 C1732 1.400 . S
C1733 C1734 1.398 . S
C1734 H1722 0.950 . S
C1734 C1733 1.398 . S
C1734 C1735 1.391 . S
C1735 H1723 0.950 . S
C1735 C1731 1.393 . S
C1735 C1734 1.391 . S
H1736 C1744 0.950 . S
H1737 C1749 0.950 . S
H1738 C1746 0.945 . S
H1739 C1748 0.950 . S
H1740 C1750 0.950 . S
H1741 C1752 0.950 . S
H1742 C1754 0.950 . S
H1743 C1755 0.950 . S
C1744 H1736 0.950 . S
C1744 C1745 1.386 . S
C1744 C1746 1.391 . S
C1745 C1744 1.386 . S
C1745 C1749 1.393 1_655 S
C1746 H1738 0.945 . S
C1746 C1744 1.391 . S
C1746 C1747 1.376 1_655 S
C1747 C1746 1.376 1_455 S
C1747 C1748 1.416 . S
C1747 C1753 1.497 1_565 S
C1748 H1739 0.950 . S
C1748 C1747 1.416 . S
C1748 C1749 1.391 . S
C1749 H1737 0.950 . S
C1749 C1745 1.393 1_455 S
C1749 C1748 1.391 . S
C1750 H1740 0.950 . S
C1750 C1751 1.386 . S
C1750 C1752 1.391 . S
C1751 C1750 1.386 . S
C1751 C1755 1.393 1_455 S
C1752 H1741 0.950 . S
C1752 C1750 1.391 . S
C1752 C1753 1.400 . S
C1753 C1747 1.497 1_545 S
C1753 C1752 1.400 . S
C1753 C1754 1.398 1_455 S
C1754 H1742 0.950 . S
C1754 C1753 1.398 1_655 S
C1754 C1755 1.391 . S
C1755 H1743 0.950 . S
C1755 C1751 1.393 1_655 S
C1755 C1754 1.391 . S
H1756 C1764 0.950 . S
H1757 C1769 0.950 . S
H1758 C1766 0.950 1_545 S
H1759 C1768 0.950 1_556 S
H1760 C1770 0.950 . S
H1761 C1772 0.950 1_565 S
H1762 C1774 0.950 . S
H1763 C1775 0.950 1_554 S
C1764 H1756 0.950 . S
C1764 C1765 1.386 . S
C1764 C1766 1.391 . S
C1765 C1764 1.386 . S
C1765 C1769 1.393 . S
C1766 H1758 0.950 1_565 S
C1766 C1764 1.391 . S
C1766 C1767 1.400 . S
C1767 C1766 1.400 . S
C1767 C1768 1.398 . S
C1767 C1773 1.491 1_564 S
C1768 H1759 0.950 1_554 S
C1768 C1767 1.398 . S
C1768 C1769 1.391 . S
C1769 H1757 0.950 . S
C1769 C1765 1.393 . S
C1769 C1768 1.391 . S
C1770 H1760 0.950 . S
C1770 C1771 1.386 . S
C1770 C1772 1.391 . S
C1771 C1770 1.386 . S
C1771 C1775 1.393 . S
C1772 H1761 0.950 1_545 S
C1772 C1770 1.391 . S
C1772 C1773 1.400 . S
C1773 C1767 1.491 1_546 S
C1773 C1772 1.400 . S
C1773 C1774 1.398 1_556 S
C1774 H1762 0.950 . S
C1774 C1773 1.398 1_554 S
C1774 C1775 1.391 1_554 S
C1775 H1763 0.950 1_556 S
C1775 C1771 1.393 . S
C1775 C1774 1.391 1_556 S
C505 C19 1.738 . S
C511 C423 1.713 . S
C525 C41 1.580 . S
C531 C187 1.698 . S
C545 C485 1.768 . S
C551 C72 1.641 . S
C565 C125 1.751 . S
C571 C112 1.799 . S
C585 C124 1.931 . S
C591 C281 1.881 . S
C605 C155 1.997 . S
C611 C64 1.956 . S
C625 C186 1.802 1_556 S
C631 C361 1.758 . S
C645 C236 1.737 . S
C651 C20 1.689 . S
C665 C156 1.696 . S
C671 C267 1.739 . S
C685 C289 1.589 . S
C691 C435 1.713 . S
C705 C320 1.636 . S
C711 C237 1.751 . S
C725 C360 1.797 . S
C731 C373 1.770 . S
C745 C33 1.882 . S
C751 C372 1.924 1_556 S
C765 C312 1.938 . S
C771 C422 1.993 . S
C785 C113 1.757 . S
C791 C434 1.802 . S
C805 C268 1.685 . S
C811 C484 1.733 . S
C825 C0 1.446 . S
C831 C10 1.461 . S
C845 C61 1.480 . S
C851 C50 1.469 1_554 S
C865 C81 1.461 . S
C871 C92 1.470 . S
C885 C103 1.463 . S
C891 C93 1.449 . S
C905 C154 1.469 . S
C911 C143 1.459 . S
C925 C174 1.457 . S
C931 C185 1.467 1_556 S
C945 C216 1.466 . S
C951 C205 1.452 . S
C965 C227 1.467 . S
C971 C217 1.451 1_554 S
C985 C248 1.462 . S
C991 C258 1.472 . S
C1005 C309 1.465 1_556 S
C1011 C298 1.449 . S
C1025 C340 1.471 . S
C1031 C329 1.456 . S
C1045 C341 1.470 . S
C1051 C351 1.479 1_554 S
C1065 C402 1.479 . S
C1071 C391 1.468 . S
C1085 C403 1.470 1_554 S
C1091 C413 1.480 . S
C1105 C464 1.466 . S
C1111 C453 1.454 . S
C1125 C465 1.454 . S
C1131 C475 1.470 1_556 S
C1145 C1 0.691 . S
C1151 C392 0.690 . S
C1165 C175 0.653 . S
C1171 C60 0.658 . S
C1185 C91 0.720 . S
C1191 C454 0.714 . S
C1205 C94 0.671 . S
C1211 C218 0.671 . S
C1225 C144 0.709 . S
C1231 C249 0.709 . S
C1245 C206 0.730 . S
C1251 C339 0.736 . S
C1265 C404 0.741 . S
C1271 C308 0.749 . S
C1285 C466 0.636 . S
C1291 C342 0.636 . S
C1305 C123 1.734 . S
C1311 C29 1.936 . S
C1325 C32 1.770 . S
C1331 C30 1.563 . S
C1345 C63 1.807 . S
C1351 C31 1.749 . S
C1365 C122 1.970 . S
C1371 C62 1.923 . S
C1385 C247 1.764 . S
C1391 C126 1.947 . S
C1405 C157 2.015 . S
C1411 C134 1.820 . S
C1425 C165 1.778 . S
C1431 C188 1.993 . S
C1445 C196 1.716 1_556 S
C1451 C246 1.933 . S
C1465 C277 1.923 . S
C1471 C371 1.750 . S
C1485 C280 1.763 . S
C1491 C278 1.580 . S
C1505 C279 1.750 . S
C1511 C311 1.801 . S
C1525 C310 1.916 . S
C1531 C370 1.979 . S
C1545 C374 1.941 . S
C1551 C495 1.760 . S
C1565 C432 2.004 . S
C1571 C382 1.836 1_556 S
C1585 C436 1.987 . S
C1591 C433 1.804 . S
C1605 C444 1.711 . S
C1611 C494 1.930 . S
C1625 C2 0.763 . S
C1631 C401 0.764 . S
C1645 C51 0.633 . S
C1651 C184 0.643 . S
C1665 C463 0.703 . S
C1671 C82 0.686 . S
C1685 C95 0.741 . S
C1691 C219 0.741 . S
C1705 C250 0.679 . S
C1711 C153 0.679 . S
C1725 C330 0.660 . S
C1731 C215 0.679 . S
C1745 C299 0.683 . S
C1751 C405 0.694 . S
C1765 C467 0.725 . S
C1771 C343 0.725 . S
