# Generated by pormake.
# Topology lcy-e, (6)-cn, num edge types: 1
# Building blocks:
#     Node 0, Type 0, BuildingBlock: BETGAK_clean_sbu_0, # of connection points: 6
#     Node 1, Type 0, BuildingBlock: BETGAK_clean_sbu_0, # of connection points: 6
#     Node 2, Type 0, BuildingBlock: BETGAK_clean_sbu_0, # of connection points: 6
#     Node 3, Type 0, BuildingBlock: BETGAK_clean_sbu_0, # of connection points: 6
#     Node 4, Type 0, BuildingBlock: BETGAK_clean_sbu_0, # of connection points: 6
#     Node 5, Type 0, BuildingBlock: BETGAK_clean_sbu_0, # of connection points: 6
#     Node 6, Type 0, BuildingBlock: BETGAK_clean_sbu_0, # of connection points: 6
#     Node 7, Type 0, BuildingBlock: BETGAK_clean_sbu_0, # of connection points: 6
#     Node 8, Type 0, BuildingBlock: BETGAK_clean_sbu_0, # of connection points: 6
#     Node 9, Type 0, BuildingBlock: BETGAK_clean_sbu_0, # of connection points: 6
#     Node 10, Type 0, BuildingBlock: BETGAK_clean_sbu_0, # of connection points: 6
#     Node 11, Type 0, BuildingBlock: BETGAK_clean_sbu_0, # of connection points: 6
#     Edge 12, Type (0, 0), BuildingBlock: XIVTED_clean_linker_0, # of connection points: 2
#     Edge 13, Type (0, 0), BuildingBlock: XIVTED_clean_linker_0, # of connection points: 2
#     Edge 14, Type (0, 0), BuildingBlock: XIVTED_clean_linker_0, # of connection points: 2
#     Edge 15, Type (0, 0), BuildingBlock: XIVTED_clean_linker_0, # of connection points: 2
#     Edge 16, Type (0, 0), BuildingBlock: XIVTED_clean_linker_0, # of connection points: 2
#     Edge 17, Type (0, 0), BuildingBlock: XIVTED_clean_linker_0, # of connection points: 2
#     Edge 18, Type (0, 0), BuildingBlock: XIVTED_clean_linker_0, # of connection points: 2
#     Edge 19, Type (0, 0), BuildingBlock: XIVTED_clean_linker_0, # of connection points: 2
#     Edge 20, Type (0, 0), BuildingBlock: XIVTED_clean_linker_0, # of connection points: 2
#     Edge 21, Type (0, 0), BuildingBlock: XIVTED_clean_linker_0, # of connection points: 2
#     Edge 22, Type (0, 0), BuildingBlock: XIVTED_clean_linker_0, # of connection points: 2
#     Edge 23, Type (0, 0), BuildingBlock: XIVTED_clean_linker_0, # of connection points: 2
#     Edge 24, Type (0, 0), BuildingBlock: XIVTED_clean_linker_0, # of connection points: 2
#     Edge 25, Type (0, 0), BuildingBlock: XIVTED_clean_linker_0, # of connection points: 2
#     Edge 26, Type (0, 0), BuildingBlock: XIVTED_clean_linker_0, # of connection points: 2
#     Edge 27, Type (0, 0), BuildingBlock: XIVTED_clean_linker_0, # of connection points: 2
#     Edge 28, Type (0, 0), BuildingBlock: XIVTED_clean_linker_0, # of connection points: 2
#     Edge 29, Type (0, 0), BuildingBlock: XIVTED_clean_linker_0, # of connection points: 2
#     Edge 30, Type (0, 0), BuildingBlock: XIVTED_clean_linker_0, # of connection points: 2
#     Edge 31, Type (0, 0), BuildingBlock: XIVTED_clean_linker_0, # of connection points: 2
#     Edge 32, Type (0, 0), BuildingBlock: XIVTED_clean_linker_0, # of connection points: 2
#     Edge 33, Type (0, 0), BuildingBlock: XIVTED_clean_linker_0, # of connection points: 2
#     Edge 34, Type (0, 0), BuildingBlock: XIVTED_clean_linker_0, # of connection points: 2
#     Edge 35, Type (0, 0), BuildingBlock: XIVTED_clean_linker_0, # of connection points: 2
#     Edge 36, Type (0, 0), BuildingBlock: XIVTED_clean_linker_0, # of connection points: 2
#     Edge 37, Type (0, 0), BuildingBlock: XIVTED_clean_linker_0, # of connection points: 2
#     Edge 38, Type (0, 0), BuildingBlock: XIVTED_clean_linker_0, # of connection points: 2
#     Edge 39, Type (0, 0), BuildingBlock: XIVTED_clean_linker_0, # of connection points: 2
#     Edge 40, Type (0, 0), BuildingBlock: XIVTED_clean_linker_0, # of connection points: 2
#     Edge 41, Type (0, 0), BuildingBlock: XIVTED_clean_linker_0, # of connection points: 2
#     Edge 42, Type (0, 0), BuildingBlock: XIVTED_clean_linker_0, # of connection points: 2
#     Edge 43, Type (0, 0), BuildingBlock: XIVTED_clean_linker_0, # of connection points: 2
#     Edge 44, Type (0, 0), BuildingBlock: XIVTED_clean_linker_0, # of connection points: 2
#     Edge 45, Type (0, 0), BuildingBlock: XIVTED_clean_linker_0, # of connection points: 2
#     Edge 46, Type (0, 0), BuildingBlock: XIVTED_clean_linker_0, # of connection points: 2
#     Edge 47, Type (0, 0), BuildingBlock: XIVTED_clean_linker_0, # of connection points: 2
# Relax obj value: 0.200
# Max RMSD: 0.311
# Mean RMSD: 0.287
data_MOF--net-lcy-e--node1-BETGAK_clean_sbu_0--edge1-XIVTED_clean_linker_0
_symmetry_space_group_name_H-M    P1
_symmetry_Int_Tables_number       1
_symmetry_cell_setting            triclinic
loop_
_symmetry_equiv_pos_as_xyz
'x, y, z'
_cell_length_a     45.305848
_cell_length_b     41.902916
_cell_length_c     45.36119
_cell_angle_alpha  89.599376
_cell_angle_beta   90.967094
_cell_angle_gamma 88.338358
loop_
_atom_site_label
_atom_site_type_symbol
_atom_site_fract_x
_atom_site_fract_y
_atom_site_fract_z
_atom_type_partial_charge
La0 La 0.14193 0.27332 0.48336 0.0
La1 La 0.1644 0.22223 0.52447 0.0
C2 C 0.13587 0.31902 0.44705 0.0
C3 C 0.14957 0.32787 0.41895 0.0
C4 C 0.15172 0.30636 0.39534 0.0
C5 C 0.16488 0.31547 0.36898 0.0
C6 C 0.17645 0.34605 0.36593 0.0
C7 C 0.17438 0.36738 0.38967 0.0
C8 C 0.16101 0.3584 0.41584 0.0
C9 C 0.1086 0.22341 0.48507 0.0
C10 C 0.19762 0.2278 0.466 0.0
C11 C 0.17186 0.17442 0.55817 0.0
C12 C 0.15558 0.15287 0.57719 0.0
C13 C 0.17173 0.13239 0.59632 0.0
C14 C 0.15744 0.10969 0.61306 0.0
C15 C 0.12658 0.10704 0.6111 0.0
C16 C 0.11032 0.12807 0.59218 0.0
C17 C 0.12474 0.15087 0.57533 0.0
C18 C 0.19349 0.27668 0.5263 0.0
C19 C 0.11322 0.26835 0.54522 0.0
O20 O 0.11932 0.29396 0.44689 0.0
O21 O 0.15303 0.31968 0.47046 0.0
O22 O 0.09887 0.2526 0.48228 0.0
O23 O 0.13666 0.22227 0.48539 0.0
O24 O 0.1817 0.25436 0.46063 0.0
O25 O 0.19232 0.20925 0.48862 0.0
O26 O 0.17438 0.20391 0.56691 0.0
O27 O 0.16627 0.17257 0.52986 0.0
O28 O 0.20576 0.24874 0.53098 0.0
O29 O 0.16637 0.27302 0.52317 0.0
O30 O 0.12354 0.23851 0.54511 0.0
O31 O 0.12079 0.28886 0.52434 0.0
H32 H 0.14332 0.28251 0.39721 0.0
H33 H 0.16635 0.29847 0.35115 0.0
H34 H 0.18274 0.39126 0.38785 0.0
H35 H 0.1596 0.37535 0.43373 0.0
H36 H 0.19559 0.13345 0.5978 0.0
H37 H 0.17077 0.09357 0.62689 0.0
H38 H 0.08651 0.12687 0.59035 0.0
H39 H 0.11194 0.16653 0.56056 0.0
La40 La 0.99729 0.87135 0.73778 0.0
La41 La 0.05087 0.87753 0.77898 0.0
C42 C 0.95214 0.88219 0.70567 0.0
C43 C 0.94558 0.89262 0.67491 0.0
C44 C 0.95493 0.87429 0.65076 0.0
C45 C 0.94659 0.88328 0.62198 0.0
C46 C 0.92879 0.91085 0.61665 0.0
C47 C 0.92024 0.9297 0.64077 0.0
C48 C 0.92846 0.9206 0.66958 0.0
C49 C 0.04095 0.83055 0.72865 0.0
C50 C 0.04757 0.92174 0.72371 0.0
C51 C 0.09761 0.8648 0.80787 0.0
C52 C 0.12519 0.85678 0.82485 0.0
C53 C 0.14216 0.88097 0.83715 0.0
C54 C 0.16838 0.87346 0.85285 0.0
C55 C 0.17823 0.84147 0.85702 0.0
C56 C 0.16119 0.81727 0.84451 0.0
C57 C 0.13507 0.82484 0.82857 0.0
C58 C 1.00382 0.91545 0.78998 0.0
C59 C 0.99982 0.82987 0.79555 0.0
O60 O 0.96469 0.85386 0.70944 0.0
O61 O 0.96328 0.90341 0.72345 0.0
O62 O 1.01344 0.82477 0.72362 0.0
O63 O 0.04359 0.85943 0.73564 0.0
O64 O 1.02019 0.91231 0.71896 0.0
O65 O 0.06535 0.90785 0.74364 0.0
O66 O 0.0843 0.893 0.80829 0.0
O67 O 0.08436 0.84392 0.79132 0.0
O68 O 0.03066 0.92196 0.79784 0.0
O69 O 1.00474 0.88755 0.7808 0.0
O70 O 0.02821 0.83652 0.79763 0.0
O71 O 0.98194 0.84521 0.77633 0.0
H72 H 0.9683 0.85266 0.65403 0.0
H73 H 0.95388 0.86845 0.60389 0.0
H74 H 0.90626 0.95088 0.63751 0.0
H75 H 0.92087 0.9351 0.68779 0.0
H76 H 0.13533 0.90582 0.83442 0.0
H77 H 0.18106 0.8929 0.86151 0.0
H78 H 0.16768 0.79237 0.84746 0.0
H79 H 0.12245 0.80561 0.81936 0.0
La80 La 0.39216 0.77752 0.03112 0.0
La81 La 0.40377 0.73447 0.97879 0.0
C82 C 0.39004 0.80269 0.08157 0.0
C83 C 0.40399 0.83033 0.09596 0.0
C84 C 0.38597 0.85366 0.10924 0.0
C85 C 0.39827 0.88012 0.12284 0.0
C86 C 0.42906 0.88388 0.12381 0.0
C87 C 0.44721 0.86051 0.11039 0.0
C88 C 0.43482 0.83401 0.09661 0.0
C89 C 0.36012 0.79183 0.98299 0.0
C90 C 0.44057 0.79853 0.98722 0.0
C91 C 0.41057 0.71341 0.92714 0.0
C92 C 0.39953 0.69346 0.90279 0.0
C93 C 0.4198 0.68269 0.88183 0.0
C94 C 0.4104 0.66618 0.85688 0.0
C95 C 0.38034 0.65975 0.8522 0.0
C96 C 0.36 0.67018 0.8736 0.0
C97 C 0.3695 0.68697 0.89864 0.0
C98 C 0.43264 0.71921 0.02846 0.0
C99 C 0.35789 0.71152 0.02238 0.0
O100 O 0.37087 0.80925 0.06035 0.0
O101 O 0.40726 0.77828 0.07513 0.0
O102 O 0.36937 0.81246 1.00199 0.0
O103 O 0.36752 0.76432 0.9923 0.0
O104 O 0.42949 0.80299 1.01371 0.0
O105 O 0.43196 0.775 0.97007 0.0
O106 O 0.42168 0.69917 0.95078 0.0
O107 O 0.39558 0.73967 0.93329 0.0
O108 O 0.42329 0.69845 1.0096 0.0
O109 O 0.42727 0.74673 1.01806 0.0
O110 O 0.3652 0.71137 0.99432 0.0
O111 O 0.36783 0.73343 0.04103 0.0
H112 H 0.36219 0.85147 0.109 0.0
H113 H 0.38351 0.89784 0.13241 0.0
H114 H 0.471 0.86239 0.11094 0.0
H115 H 0.4494 0.81643 0.08655 0.0
H116 H 0.44302 0.68778 0.88438 0.0
H117 H 0.42676 0.6593 0.84082 0.0
H118 H 0.33675 0.66541 0.87103 0.0
H119 H 0.35341 0.69519 0.91448 0.0
La120 La 0.5546 0.12648 0.24563 0.0
La121 La 0.50284 0.11918 0.2863 0.0
C122 C 0.60242 0.12891 0.21799 0.0
C123 C 0.61215 0.11805 0.18841 0.0
C124 C 0.61503 0.14022 0.16534 0.0
C125 C 0.62445 0.13032 0.13751 0.0
C126 C 0.63155 0.09796 0.13201 0.0
C127 C 0.62848 0.07574 0.15509 0.0
C128 C 0.61895 0.08564 0.18291 0.0
C129 C 0.50591 0.15942 0.23084 0.0
C130 C 0.50927 0.07448 0.22927 0.0
C131 C 0.45156 0.11748 0.30729 0.0
C132 C 0.42912 0.13458 0.32513 0.0
C133 C 0.41555 0.11775 0.34775 0.0
C134 C 0.39183 0.1314 0.36296 0.0
C135 C 0.38098 0.16244 0.35602 0.0
C136 C 0.395 0.17961 0.33367 0.0
C137 C 0.41881 0.16582 0.31834 0.0
C138 C 0.55167 0.08684 0.30215 0.0
C139 C 0.54939 0.16645 0.30528 0.0
O140 O 0.58287 0.15253 0.21865 0.0
O141 O 0.59669 0.10672 0.23731 0.0
O142 O 0.52367 0.14606 0.21226 0.0
O143 O 0.51627 0.15516 0.25648 0.0
O144 O 0.53601 0.085 0.22447 0.0
O145 O 0.49266 0.08589 0.25076 0.0
O146 O 0.47524 0.10584 0.32094 0.0
O147 O 0.45733 0.12889 0.28111 0.0
O148 O 0.53261 0.09856 0.3205 0.0
O149 O 0.54171 0.09134 0.27632 0.0
O150 O 0.52063 0.16214 0.3044 0.0
O151 O 0.56742 0.15183 0.28646 0.0
H152 H 0.61001 0.16534 0.1688 0.0
H153 H 0.62606 0.14813 0.12025 0.0
H154 H 0.63411 0.05072 0.15194 0.0
H155 H 0.61716 0.06783 0.20015 0.0
H156 H 0.42275 0.09347 0.35311 0.0
H157 H 0.38139 0.11706 0.37953 0.0
H158 H 0.38752 0.20366 0.3279 0.0
H159 H 0.4287 0.17936 0.30086 0.0
La160 La 0.64436 0.2455 0.56253 0.0
La161 La 0.65813 0.29996 0.5207 0.0
C162 C 0.64627 0.19784 0.5971 0.0
C163 C 0.65926 0.18851 0.62629 0.0
C164 C 0.64072 0.17772 0.64855 0.0
C165 C 0.65251 0.16642 0.67553 0.0
C166 C 0.68321 0.16538 0.68086 0.0
C167 C 0.70172 0.177 0.65881 0.0
C168 C 0.6899 0.18849 0.63187 0.0
C169 C 0.60714 0.29426 0.56344 0.0
C170 C 0.69458 0.29536 0.57916 0.0
C171 C 0.65862 0.35011 0.48943 0.0
C172 C 0.64147 0.37416 0.4718 0.0
C173 C 0.65049 0.40586 0.47275 0.0
C174 C 0.63658 0.42938 0.45502 0.0
C175 C 0.61316 0.4218 0.43581 0.0
C176 C 0.60361 0.39001 0.43543 0.0
C177 C 0.61766 0.36636 0.45327 0.0
C178 C 0.69246 0.24747 0.51742 0.0
C179 C 0.61153 0.2499 0.50135 0.0
O180 O 0.62508 0.21974 0.59691 0.0
O181 O 0.66441 0.20162 0.57525 0.0
O182 O 0.59986 0.26489 0.56711 0.0
O183 O 0.63481 0.29607 0.56135 0.0
O184 O 0.68227 0.26767 0.5848 0.0
O185 O 0.68656 0.31337 0.5564 0.0
O186 O 0.66248 0.32127 0.47887 0.0
O187 O 0.6546 0.34998 0.51792 0.0
O188 O 0.70155 0.27589 0.51164 0.0
O189 O 0.66547 0.24979 0.52193 0.0
O190 O 0.61767 0.28064 0.50158 0.0
O191 O 0.62319 0.22984 0.52153 0.0
H192 H 0.61705 0.17734 0.64479 0.0
H193 H 0.6376 0.15734 0.69179 0.0
H194 H 0.72543 0.17693 0.66227 0.0
H195 H 0.70484 0.19681 0.61528 0.0
H196 H 0.66892 0.41235 0.4868 0.0
H197 H 0.64498 0.45329 0.45564 0.0
H198 H 0.58543 0.38333 0.4212 0.0
H199 H 0.61022 0.34205 0.45227 0.0
La200 La 0.99918 0.38617 0.74571 0.0
La201 La 0.04138 0.37113 0.79534 0.0
C202 C 0.9706 0.39419 0.6981 0.0
C203 C 0.94111 0.38391 0.68831 0.0
C204 C 0.91903 0.40682 0.68085 0.0
C205 C 0.8908 0.39743 0.67237 0.0
C206 C 0.8841 0.36486 0.67088 0.0
C207 C 0.90628 0.34195 0.67845 0.0
C208 C 0.9344 0.35135 0.68717 0.0
C209 C 0.98665 0.41496 0.79581 0.0
C210 C 0.98271 0.33073 0.78799 0.0
C211 C 0.06466 0.36309 0.84573 0.0
C212 C 0.08039 0.38098 0.86879 0.0
C213 C 0.11058 0.37443 0.87402 0.0
C214 C 0.125 0.38748 0.89832 0.0
C215 C 0.10946 0.40711 0.91813 0.0
C216 C 0.0796 0.415 0.91209 0.0
C217 C 0.06516 0.402 0.88768 0.0
C218 C 0.05379 0.34223 0.74529 0.0
C219 C 0.05965 0.42288 0.75292 0.0
O220 O 0.9711 0.41554 0.71901 0.0
O221 O 0.99067 0.37152 0.70245 0.0
O222 O 0.96734 0.40381 0.77753 0.0
O223 O 1.01204 0.41068 0.78531 0.0
O224 O 0.97711 0.34424 0.76201 0.0
O225 O 1.00544 0.33898 0.80464 0.0
O226 O 0.07862 0.35753 0.82116 0.0
O227 O 0.03662 0.37034 0.84115 0.0
O228 O 0.0736 0.35016 0.76455 0.0
O229 O 0.02867 0.34762 0.75572 0.0
O230 O 0.05949 0.41556 0.78119 0.0
O231 O 0.03978 0.41129 0.73436 0.0
H232 H 0.92357 0.43205 0.68178 0.0
H233 H 0.87416 0.41578 0.6672 0.0
H234 H 0.90212 0.31668 0.67716 0.0
H235 H 0.95086 0.333 0.69297 0.0
H236 H 0.12284 0.35827 0.8599 0.0
H237 H 0.14816 0.38142 0.90209 0.0
H238 H 0.06699 0.42988 0.92703 0.0
H239 H 0.04183 0.40747 0.88433 0.0
La240 La 0.90409 0.76722 0.05385 0.0
La241 La 0.88533 0.71114 1.01744 0.0
C242 C 0.90881 0.81467 0.08728 0.0
C243 C 0.8954 0.82632 0.11478 0.0
C244 C 0.91407 0.83345 0.13861 0.0
C245 C 0.90247 0.84514 0.16483 0.0
C246 C 0.87184 0.8504 0.16777 0.0
C247 C 0.853 0.84245 0.14412 0.0
C248 C 0.86467 0.83044 0.11786 0.0
C249 C 0.94239 0.71929 0.05257 0.0
C250 C 0.8563 0.7191 0.07795 0.0
C251 C 0.88167 0.66017 0.98839 0.0
C252 C 0.89589 0.63916 0.96658 0.0
C253 C 0.87792 0.61867 0.95057 0.0
C254 C 0.89024 0.59649 0.93123 0.0
C255 C 0.92097 0.59434 0.92718 0.0
C256 C 0.93907 0.61521 0.94312 0.0
C257 C 0.9266 0.6375 0.9627 0.0
C258 C 0.84891 0.76231 1.01599 0.0
C259 C 0.92856 0.76076 0.9906 0.0
O260 O 0.92518 0.78857 0.08986 0.0
O261 O 0.89235 0.81493 0.06327 0.0
O262 O 0.94922 0.74902 0.05255 0.0
O263 O 0.91473 0.71679 0.05447 0.0
O264 O 0.86721 0.74808 0.07895 0.0
O265 O 0.86369 0.69851 0.05741 0.0
O266 O 0.87074 0.68777 0.97915 0.0
O267 O 0.89427 0.66189 1.01448 0.0
O268 O 0.84046 0.73329 1.01223 0.0
O269 O 0.87649 0.76146 1.01675 0.0
O270 O 0.92152 0.73038 0.99221 0.0
O271 O 0.92011 0.78172 1.01081 0.0
H272 H 0.93779 0.83012 0.1369 0.0
H273 H 0.91762 0.85023 0.1828 0.0
H274 H 0.82934 0.8463 0.1456 0.0
H275 H 0.84969 0.82475 0.09997 0.0
H276 H 0.85422 0.61933 0.95352 0.0
H277 H 0.87559 0.58045 0.91998 0.0
H278 H 0.96277 0.6144 0.94042 0.0
H279 H 0.94088 0.65309 0.97499 0.0
La280 La 0.5504 0.62468 0.23552 0.0
La281 La 0.51022 0.63596 0.28705 0.0
C282 C 0.57965 0.63089 0.18922 0.0
C283 C 0.60897 0.64191 0.18143 0.0
C284 C 0.6213 0.63209 0.15479 0.0
C285 C 0.64964 0.64119 0.14738 0.0
C286 C 0.6661 0.66039 0.1665 0.0
C287 C 0.65352 0.67052 0.1931 0.0
C288 C 0.62523 0.66113 0.2006 0.0
C289 C 0.56174 0.58704 0.28083 0.0
C290 C 0.56369 0.68031 0.28309 0.0
C291 C 0.48176 0.62678 0.33311 0.0
C292 C 0.46627 0.62004 0.36082 0.0
C293 C 0.43821 0.63358 0.36634 0.0
C294 C 0.42293 0.62488 0.39166 0.0
C295 C 0.43542 0.60241 0.41185 0.0
C296 C 0.46381 0.58957 0.40654 0.0
C297 C 0.47901 0.59824 0.38136 0.0
C298 C 0.49705 0.66878 0.23753 0.0
C299 C 0.49602 0.58133 0.24126 0.0
O300 O 0.57948 0.60456 0.20487 0.0
O301 O 0.56079 0.65261 0.19877 0.0
O302 O 0.56623 0.57926 0.25368 0.0
O303 O 0.55398 0.61628 0.28212 0.0
O304 O 0.56947 0.66703 0.25714 0.0
O305 O 0.54251 0.67012 0.30009 0.0
O306 O 0.47196 0.64647 0.31235 0.0
O307 O 0.50752 0.61337 0.32793 0.0
O308 O 0.49183 0.67952 0.26384 0.0
O309 O 0.50648 0.64067 0.24041 0.0
O310 O 0.49521 0.59068 0.269 0.0
O311 O 0.51293 0.59591 0.22206 0.0
H312 H 0.60907 0.61715 0.1398 0.0
H313 H 0.65862 0.63333 0.12659 0.0
H314 H 0.66581 0.68507 0.20836 0.0
H315 H 0.61619 0.66853 0.22145 0.0
H316 H 0.42781 0.65034 0.35083 0.0
H317 H 0.40101 0.63509 0.39498 0.0
H318 H 0.47435 0.57271 0.42186 0.0
H319 H 0.50065 0.58739 0.3778 0.0
La320 La 0.23584 0.51526 0.15573 0.0
La321 La 0.27367 0.4583 0.13753 0.0
C322 C 0.20317 0.56493 0.15677 0.0
C323 C 0.17503 0.57525 0.14239 0.0
C324 C 0.15216 0.55382 0.13747 0.0
C325 C 0.12563 0.56427 0.12379 0.0
C326 C 0.12171 0.59619 0.11443 0.0
C327 C 0.1448 0.61742 0.11918 0.0
C328 C 0.17114 0.60705 0.13307 0.0
C329 C 0.23451 0.46623 0.19122 0.0
C330 C 0.21395 0.46833 0.10463 0.0
C331 C 0.30296 0.40652 0.13314 0.0
C332 C 0.32606 0.38526 0.14616 0.0
C333 C 0.33881 0.36202 0.12801 0.0
C334 C 0.35931 0.33964 0.13948 0.0
C335 C 0.36777 0.34009 0.16945 0.0
C336 C 0.35513 0.36377 0.18767 0.0
C337 C 0.33438 0.38625 0.17608 0.0
C338 C 0.27786 0.51128 0.10546 0.0
C339 C 0.29849 0.50588 0.18498 0.0
O340 O 0.202 0.54171 0.17612 0.0
O341 O 0.22574 0.56144 0.13935 0.0
O342 O 0.23317 0.49566 0.19967 0.0
O343 O 0.23474 0.46464 0.16336 0.0
O344 O 0.21145 0.49666 0.1173 0.0
O345 O 0.23508 0.44748 0.11199 0.0
O346 O 0.31109 0.43351 0.1216 0.0
O347 O 0.27801 0.40939 0.14716 0.0
O348 O 0.28044 0.48283 0.09453 0.0
O349 O 0.27511 0.5085 0.1326 0.0
O350 O 0.2977 0.47577 0.17629 0.0
O351 O 0.278 0.52741 0.17621 0.0
H352 H 0.1548 0.52902 0.14416 0.0
H353 H 0.10835 0.54733 0.12019 0.0
H354 H 0.14233 0.64225 0.11254 0.0
H355 H 0.18853 0.62391 0.13657 0.0
H356 H 0.33241 0.36073 0.10492 0.0
H357 H 0.36793 0.32143 0.12487 0.0
H358 H 0.36129 0.36495 0.2108 0.0
H359 H 0.32463 0.40406 0.19045 0.0
La360 La 0.74275 0.9789 0.88964 0.0
La361 La 0.78226 0.03197 0.90727 0.0
C362 C 0.71057 0.93058 0.88828 0.0
C363 C 0.6829 0.91969 0.90118 0.0
C364 C 0.66169 0.9412 0.91256 0.0
C365 C 0.6349 0.93007 0.92321 0.0
C366 C 0.62891 0.89727 0.92253 0.0
C367 C 0.65073 0.87589 0.91193 0.0
C368 C 0.67737 0.887 0.90138 0.0
C369 C 0.73972 0.02813 0.85376 0.0
C370 C 0.72469 0.02704 0.94227 0.0
C371 C 0.81421 0.08023 0.90943 0.0
C372 C 0.83182 0.10087 0.89029 0.0
C373 C 0.86263 0.10085 0.89402 0.0
C374 C 0.87934 0.12337 0.87941 0.0
C375 C 0.86558 0.14669 0.86094 0.0
C376 C 0.83487 0.14577 0.85615 0.0
C377 C 0.81815 0.12313 0.87068 0.0
C378 C 0.78793 0.97801 0.93862 0.0
C379 C 0.80313 0.98517 0.8577 0.0
O380 O 0.70826 0.95429 0.86939 0.0
O381 O 0.73302 0.93353 0.90643 0.0
O382 O 0.73738 0.99873 0.84573 0.0
O383 O 0.74187 0.02979 0.88165 0.0
O384 O 0.72025 0.99959 0.9286 0.0
O385 O 0.74646 0.04555 0.93521 0.0
O386 O 0.82423 0.05104 0.91451 0.0
O387 O 0.78548 0.08166 0.90573 0.0
O388 O 0.79139 1.00608 0.94982 0.0
O389 O 0.78362 0.9815 0.91161 0.0
O390 O 0.80152 0.01533 0.86602 0.0
O391 O 0.78407 0.96428 0.86782 0.0
H392 H 0.6656 0.96658 0.91274 0.0
H393 H 0.61857 0.94719 0.93111 0.0
H394 H 0.64715 0.85045 0.91164 0.0
H395 H 0.69357 0.87 0.89295 0.0
H396 H 0.87375 0.08408 0.90905 0.0
H397 H 0.90302 0.12299 0.88316 0.0
H398 H 0.82349 0.16349 0.84229 0.0
H399 H 0.79441 0.12392 0.86737 0.0
La400 La 0.76385 0.97875 0.40626 0.0
La401 La 0.81372 0.02275 0.39024 0.0
C402 C 0.7173 0.94696 0.4043 0.0
C403 C 0.70591 0.91765 0.39035 0.0
C404 C 0.69881 0.89156 0.4082 0.0
C405 C 0.68562 0.86475 0.39604 0.0
C406 C 0.67887 0.86338 0.36566 0.0
C407 C 0.68673 0.88918 0.34763 0.0
C408 C 0.70005 0.91601 0.35982 0.0
C409 C 0.81168 0.97018 0.43858 0.0
C410 C 0.80556 0.96257 0.35128 0.0
C411 C 0.86033 0.05414 0.38591 0.0
C412 C 0.88478 0.07063 0.40069 0.0
C413 C 0.90481 0.08648 0.38296 0.0
C414 C 0.93035 0.09925 0.39523 0.0
C415 C 0.93654 0.09648 0.42564 0.0
C416 C 0.9159 0.08139 0.44361 0.0
C417 C 0.89027 0.06844 0.4312 0.0
C418 C 0.7619 0.03264 0.36249 0.0
C419 C 0.77398 0.04012 0.44425 0.0
O420 O 0.73792 0.94308 0.4247 0.0
O421 O 0.72207 0.97148 0.38712 0.0
O422 O 0.78529 0.96434 0.44732 0.0
O423 O 0.81121 0.97679 0.41125 0.0
O424 O 0.78134 0.95614 0.366 0.0
O425 O 0.82259 0.98633 0.35838 0.0
O426 O 0.83378 0.06742 0.38571 0.0
O427 O 0.85989 0.02311 0.38909 0.0
O428 O 0.78706 0.03759 0.35027 0.0
O429 O 0.76697 0.02493 0.38867 0.0
O430 O 0.80111 0.03998 0.43377 0.0
O431 O 0.75386 0.02037 0.43382 0.0
H432 H 0.70297 0.89212 0.43178 0.0
H433 H 0.68047 0.84517 0.4106 0.0
H434 H 0.68168 0.88919 0.32422 0.0
H435 H 0.70511 0.93572 0.34537 0.0
H436 H 0.90105 0.08836 0.35935 0.0
H437 H 0.94533 0.11127 0.38079 0.0
H438 H 0.91996 0.0788 0.46711 0.0
H439 H 0.87512 0.05623 0.44527 0.0
La440 La 0.31128 0.48969 0.64379 0.0
La441 La 0.2671 0.54164 0.62701 0.0
C442 C 0.34341 0.44082 0.65392 0.0
C443 C 0.37471 0.43385 0.64772 0.0
C444 C 0.39011 0.40872 0.66227 0.0
C445 C 0.41892 0.40016 0.65403 0.0
C446 C 0.43249 0.4164 0.63087 0.0
C447 C 0.41733 0.44229 0.6171 0.0
C448 C 0.38881 0.45109 0.62561 0.0
C449 C 0.3232 0.54704 0.66542 0.0
C450 C 0.32392 0.53381 0.59035 0.0
C451 C 0.23457 0.59118 0.62247 0.0
C452 C 0.21954 0.61538 0.64061 0.0
C453 C 0.21782 0.64693 0.63019 0.0
C454 C 0.20275 0.67053 0.64601 0.0
C455 C 0.18902 0.66302 0.67263 0.0
C456 C 0.19141 0.63142 0.68344 0.0
C457 C 0.20664 0.60777 0.66759 0.0
C458 C 0.26397 0.48793 0.59569 0.0
C459 C 0.25141 0.49653 0.67902 0.0
O460 O 0.33789 0.46261 0.67385 0.0
O461 O 0.32657 0.4447 0.63034 0.0
O462 O 0.34244 0.52668 0.65538 0.0
O463 O 0.29824 0.53487 0.6628 0.0
O464 O 0.32625 0.50411 0.60026 0.0
O465 O 0.30555 0.55467 0.60236 0.0
O466 O 0.22441 0.56216 0.62272 0.0
O467 O 0.26349 0.59144 0.62303 0.0
O468 O 0.25718 0.51606 0.58524 0.0
O469 O 0.26964 0.49108 0.62246 0.0
O470 O 0.2475 0.52541 0.66752 0.0
O471 O 0.27359 0.47713 0.67115 0.0
H472 H 0.37959 0.39518 0.67938 0.0
H473 H 0.43008 0.37998 0.66487 0.0
H474 H 0.42738 0.45537 0.59939 0.0
H475 H 0.3774 0.47076 0.61424 0.0
H476 H 0.22771 0.65324 0.60944 0.0
H477 H 0.20098 0.69444 0.6368 0.0
H478 H 0.1813 0.62494 0.70402 0.0
H479 H 0.208 0.58357 0.67618 0.0
H480 H 0.16657 0.33548 0.52181 0.0
H481 H 0.27475 0.42877 0.6191 0.0
H482 H 0.24938 0.28926 0.54753 0.0
H483 H 0.23592 0.47607 0.54253 0.0
H484 H 0.26173 0.37726 0.59852 0.0
H485 H 0.18695 0.38713 0.53397 0.0
C486 C 0.18931 0.3362 0.52932 0.0
C487 C 0.20656 0.30798 0.53282 0.0
C488 C 0.25654 0.39887 0.586 0.0
C489 C 0.22942 0.3671 0.5484 0.0
C490 C 0.26414 0.42833 0.59759 0.0
C491 C 0.25715 0.4568 0.58215 0.0
C492 C 0.24072 0.39782 0.55927 0.0
C493 C 0.24205 0.4547 0.55499 0.0
C494 C 0.20081 0.36574 0.53646 0.0
C495 C 0.23543 0.31042 0.54414 0.0
N496 N 0.23388 0.4257 0.54461 0.0
N497 N 0.24584 0.33946 0.55199 0.0
H498 H 0.83993 0.02076 0.8244 0.0
H499 H 0.97019 0.888 0.83089 0.0
H500 H 0.82955 0.92539 0.85832 0.0
H501 H 0.97488 0.97254 0.77698 0.0
H502 H 0.91998 0.90395 0.84465 0.0
H503 H 0.8897 1.00542 0.80847 0.0
C504 C 0.84791 0.9964 0.82802 0.0
C505 C 0.83044 0.97428 0.84266 0.0
C506 C 0.93194 0.91924 0.82998 0.0
C507 C 0.88783 0.95686 0.82519 0.0
C508 C 0.96067 0.91024 0.82233 0.0
C509 C 0.97664 0.92909 0.80297 0.0
C510 C 0.91893 0.94746 0.81821 0.0
C511 C 0.96341 0.95767 0.79239 0.0
C512 C 0.87642 0.98774 0.81906 0.0
C513 C 0.84204 0.94314 0.84687 0.0
N514 N 0.93524 0.966 0.80011 0.0
N515 N 0.87009 0.93549 0.83851 0.0
H516 H 0.33474 0.66295 0.99015 0.0
H517 H 0.28346 0.56811 0.13244 0.0
H518 H 0.34151 0.6984 0.07913 0.0
H519 H 0.29037 0.5241 0.04704 0.0
H520 H 0.29834 0.61822 0.11146 0.0
H521 H 0.31209 0.61494 1.00889 0.0
C522 C 0.33116 0.66089 1.01363 0.0
C523 C 0.34031 0.68475 0.03317 0.0
C524 C 0.29649 0.59778 0.09714 0.0
C525 C 0.31442 0.62959 0.05464 0.0
C526 C 0.28781 0.56902 0.10909 0.0
C527 C 0.2855 0.5418 0.09143 0.0
C528 C 0.30312 0.5996 0.06717 0.0
C529 C 0.29183 0.54454 0.06139 0.0
C530 C 0.31832 0.63333 0.02426 0.0
C531 C 0.33492 0.68068 0.06326 0.0
N532 N 0.30048 0.57301 0.05015 0.0
N533 N 0.32249 0.65354 0.07307 0.0
H534 H 0.57966 0.09607 0.35466 0.0
H535 H 0.74138 0.03926 0.30459 0.0
H536 H 0.59384 0.05604 0.26861 0.0
H537 H 0.71371 0.04536 0.39493 0.0
H538 H 0.6898 0.05176 0.28847 0.0
H539 H 0.63116 0.08369 0.36773 0.0
C540 C 0.59365 0.08462 0.33848 0.0
C541 C 0.58259 0.0776 0.31031 0.0
C542 C 0.69522 0.05029 0.31179 0.0
C543 C 0.64191 0.06345 0.32508 0.0
C544 C 0.72458 0.04336 0.32094 0.0
C545 C 0.73182 0.04119 0.35111 0.0
C546 C 0.67332 0.0556 0.33306 0.0
C547 C 0.70921 0.04658 0.37144 0.0
C548 C 0.62313 0.07763 0.34592 0.0
C549 C 0.60178 0.06271 0.29026 0.0
N550 N 0.6812 0.05362 0.36208 0.0
N551 N 0.63063 0.05628 0.29793 0.0
H552 H 0.75054 0.23524 0.50187 0.0
H553 H 0.71974 0.05179 0.46843 0.0
H554 H 0.66845 0.18917 0.5183 0.0
H555 H 0.80622 0.09156 0.46119 0.0
H556 H 0.70193 0.10158 0.4902 0.0
H557 H 0.7728 0.18279 0.48916 0.0
C558 C 0.73735 0.21415 0.5031 0.0
C559 C 0.70766 0.21658 0.51127 0.0
C560 C 0.72493 0.09934 0.4842 0.0
C561 C 0.73269 0.15687 0.49682 0.0
C562 C 0.73514 0.07075 0.47189 0.0
C563 C 0.76446 0.06745 0.46274 0.0
C564 C 0.74404 0.12505 0.48715 0.0
C565 C 0.78337 0.09301 0.46779 0.0
C566 C 0.75 0.18427 0.49592 0.0
C567 C 0.69146 0.18854 0.5124 0.0
N568 N 0.77275 0.12088 0.47928 0.0
N569 N 0.7041 0.16004 0.50516 0.0
H570 H 0.09313 0.46736 0.78042 0.0
H571 H 0.22998 0.43662 0.67718 0.0
H572 H 0.08685 0.41233 0.70068 0.0
H573 H 0.21559 0.52877 0.71711 0.0
H574 H 0.18195 0.42027 0.69531 0.0
H575 H 0.14187 0.48508 0.76521 0.0
C576 C 0.10179 0.45949 0.75949 0.0
C577 C 0.08587 0.43864 0.7416 0.0
C578 C 0.18961 0.44388 0.70045 0.0
C579 C 0.14181 0.45749 0.72493 0.0
C580 C 0.21715 0.45301 0.69059 0.0
C581 C 0.22675 0.48399 0.69589 0.0
C582 C 0.17193 0.46566 0.7162 0.0
C583 C 0.20894 0.50462 0.71272 0.0
C584 C 0.12958 0.4694 0.75098 0.0
C585 C 0.0982 0.42876 0.71489 0.0
N586 N 0.18232 0.49508 0.72236 0.0
N587 N 0.12568 0.43788 0.70756 0.0
H588 H 0.79816 0.96281 0.99764 0.0
H589 H 0.82247 0.77585 0.96285 0.0
H590 H 0.79142 0.92087 0.91133 0.0
H591 H 0.83808 0.81528 0.04879 0.0
H592 H 0.80438 0.82847 0.94541 0.0
H593 H 0.80817 0.90895 1.0186 0.0
C594 C 0.7986 0.94235 0.98318 0.0
C595 C 0.79369 0.94634 0.95274 0.0
C596 C 0.81148 0.82567 0.96822 0.0
C597 C 0.80487 0.88493 0.97636 0.0
C598 C 0.82144 0.79553 0.9782 0.0
C599 C 0.83191 0.79147 1.00721 0.0
C600 C 0.8121 0.85197 0.98741 0.0
C601 C 0.83069 0.81778 0.02612 0.0
C602 C 0.80423 0.91165 0.9951 0.0
C603 C 0.79465 0.91903 0.93496 0.0
N604 N 0.8212 0.84702 1.0159 0.0
N605 N 0.80008 0.88968 0.94698 0.0
H606 H 0.46635 0.53736 0.27287 0.0
H607 H 0.32361 0.56312 0.17591 0.0
H608 H 0.46927 0.58158 0.1868 0.0
H609 H 0.33797 0.47256 0.22057 0.0
H610 H 0.3746 0.57662 0.18773 0.0
H611 H 0.41767 0.51676 0.26014 0.0
C612 C 0.45704 0.5421 0.25106 0.0
C613 C 0.47163 0.56152 0.23096 0.0
C614 C 0.36642 0.55393 0.19513 0.0
C615 C 0.41585 0.53923 0.21693 0.0
C616 C 0.33724 0.54643 0.18888 0.0
C617 C 0.32659 0.51676 0.19749 0.0
C618 C 0.38479 0.53191 0.21064 0.0
C619 C 0.34542 0.49574 0.2137 0.0
C620 C 0.42928 0.53052 0.24394 0.0
C621 C 0.45867 0.56694 0.20302 0.0
N622 N 0.3737 0.5038 0.21995 0.0
N623 N 0.4311 0.55653 0.19707 0.0
H624 H 0.60219 0.15539 0.33422 0.0
H625 H 0.57301 0.28028 0.4627 0.0
H626 H 0.52289 0.21483 0.33587 0.0
H627 H 0.62189 0.19144 0.47691 0.0
H628 H 0.55907 0.26229 0.41314 0.0
H629 H 0.61613 0.17554 0.38305 0.0
C630 C 0.5881 0.17325 0.34452 0.0
C631 C 0.56133 0.18344 0.33107 0.0
C632 C 0.57257 0.24665 0.42728 0.0
C633 C 0.57699 0.20634 0.38675 0.0
C634 C 0.58034 0.25677 0.45557 0.0
C635 C 0.59832 0.23716 0.47403 0.0
C636 C 0.58354 0.2171 0.41714 0.0
C637 C 0.60759 0.2071 0.46358 0.0
C638 C 0.59586 0.1844 0.3725 0.0
C639 C 0.5437 0.20633 0.34555 0.0
N640 N 0.60041 0.19815 0.43567 0.0
N641 N 0.55183 0.21704 0.37262 0.0
H642 H 0.09568 0.32963 0.5602 0.0
H643 H 0.07647 0.2841 0.72966 0.0
H644 H 0.09706 0.23232 0.59233 0.0
H645 H 0.04588 0.37436 0.69287 0.0
H646 H 0.08715 0.2654 0.67959 0.0
H647 H 0.07882 0.34746 0.60867 0.0
C648 C 0.09196 0.31198 0.57719 0.0
C649 C 0.09799 0.27945 0.57214 0.0
C650 C 0.07781 0.28923 0.6825 0.0
C651 C 0.07943 0.29973 0.62778 0.0
C652 C 0.07184 0.29987 0.71102 0.0
C653 C 0.05985 0.3306 0.71532 0.0
C654 C 0.07225 0.30978 0.65823 0.0
C655 C 0.05454 0.35031 0.69057 0.0
C656 C 0.0825 0.32218 0.60491 0.0
C657 C 0.09293 0.25768 0.59515 0.0
N658 N 0.0609 0.33966 0.6631 0.0
N659 N 0.08434 0.26823 0.62199 0.0
H660 H 0.02756 0.78541 0.83124 0.0
H661 H 0.91821 0.81723 0.96164 0.0
H662 H 0.94426 0.83646 0.81767 0.0
H663 H 0.96795 0.7281 0.95676 0.0
H664 H 0.934 0.83062 0.91167 0.0
H665 H 1.01085 0.76764 0.87958 0.0
C666 C 1.00553 0.7923 0.83818 0.0
C667 C 0.98732 0.81258 0.82057 0.0
C668 C 0.94156 0.80825 0.9217 0.0
C669 C 0.9687 0.79344 0.87599 0.0
C670 C 0.93299 0.80086 0.95028 0.0
C671 C 0.94198 0.77163 0.96321 0.0
C672 C 0.95967 0.78652 0.90637 0.0
C673 C 0.96063 0.7509 0.94743 0.0
C674 C 0.99613 0.78235 0.86577 0.0
C675 C 0.959 0.82086 0.83057 0.0
N676 N 0.96902 0.75881 0.9198 0.0
N677 N 0.95077 0.81181 0.85797 0.0
H678 H 0.50385 0.72638 0.20872 0.0
H679 H 0.41949 0.66703 0.06192 0.0
H680 H 0.46013 0.63688 0.20173 0.0
H681 H 0.46585 0.75527 0.06589 0.0
H682 H 0.43247 0.65689 0.1139 0.0
H683 H 0.48745 0.73966 0.1578 0.0
C684 C 0.49029 0.70986 0.19669 0.0
C685 C 0.48327 0.6805 0.2094 0.0
C686 C 0.43989 0.67849 0.10348 0.0
C687 C 0.46497 0.69506 0.15108 0.0
C688 C 0.43262 0.68416 0.07371 0.0
C689 C 0.44158 0.71206 0.05958 0.0
C690 C 0.45646 0.70077 0.11935 0.0
C691 C 0.45836 0.73354 0.07602 0.0
C692 C 0.4812 0.71724 0.16753 0.0
C693 C 0.46618 0.65965 0.19263 0.0
N694 N 0.46523 0.7275 0.10497 0.0
N695 N 0.45773 0.66722 0.16446 0.0
H696 H 0.22778 0.37772 0.35965 0.0
H697 H 0.20353 0.41082 0.18676 0.0
H698 H 0.15691 0.33727 0.30888 0.0
H699 H 0.26203 0.46224 0.2439 0.0
H700 H 0.19351 0.37424 0.22805 0.0
H701 H 0.24766 0.39951 0.3144 0.0
C702 C 0.21647 0.37332 0.33891 0.0
C703 C 0.19037 0.35614 0.33809 0.0
C704 C 0.20901 0.39315 0.2313 0.0
C705 C 0.21303 0.38105 0.28602 0.0
C706 C 0.21489 0.41374 0.20773 0.0
C707 C 0.2334 0.43953 0.21224 0.0
C708 C 0.22207 0.39845 0.25917 0.0
C709 C 0.2474 0.44272 0.23975 0.0
C710 C 0.22789 0.38564 0.31303 0.0
C711 C 0.17704 0.35048 0.31049 0.0
N712 N 0.24128 0.42262 0.26221 0.0
N713 N 0.18829 0.36329 0.28554 0.0
H714 H 0.90828 0.86996 0.57473 0.0
H715 H 0.85311 1.00844 0.46257 0.0
H716 H 0.92346 0.96984 0.58945 0.0
H717 H 0.827 0.91072 0.45742 0.0
H718 H 0.8875 0.99363 0.50331 0.0
H719 H 0.88661 0.88344 0.52652 0.0
C720 C 0.90749 0.89471 0.56766 0.0
C721 C 0.91764 0.9188 0.58631 0.0
C722 C 0.87479 0.97527 0.49279 0.0
C723 C 0.8924 0.93451 0.53101 0.0
C724 C 0.85557 0.98367 0.46929 0.0
C725 C 0.8378 0.96061 0.45644 0.0
C726 C 0.87596 0.94361 0.50341 0.0
C727 C 0.84076 0.92903 0.46658 0.0
C728 C 0.89492 0.90242 0.54014 0.0
C729 C 0.91554 0.95053 0.576 0.0
N730 N 0.8593 0.92148 0.48957 0.0
N731 N 0.90302 0.95748 0.54913 0.0
H732 H 0.28579 0.58398 0.69903 0.0
H733 H 0.40943 0.61151 0.82245 0.0
H734 H 0.37791 0.55856 0.68833 0.0
H735 H 0.32896 0.66935 0.81887 0.0
H736 H 0.39548 0.58753 0.7757 0.0
H737 H 0.29871 0.61249 0.74452 0.0
C738 C 0.30875 0.5848 0.70601 0.0
C739 C 0.3308 0.56873 0.68994 0.0
C740 C 0.3809 0.60556 0.78508 0.0
C741 C 0.34558 0.60054 0.74217 0.0
C742 C 0.38888 0.61941 0.81185 0.0
C743 C 0.37063 0.64301 0.82471 0.0
C744 C 0.3542 0.61487 0.77093 0.0
C745 C 0.34375 0.6512 0.81008 0.0
C746 C 0.31608 0.60094 0.732 0.0
C747 C 0.36017 0.57049 0.70002 0.0
N748 N 0.33635 0.63717 0.78402 0.0
N749 N 0.36662 0.5857 0.72561 0.0
H750 H 0.66883 0.1299 0.09582 0.0
H751 H 0.68484 0.99232 0.97446 0.0
H752 H 0.62111 0.0424 0.10119 0.0
H753 H 0.72313 0.08527 0.96853 0.0
H754 H 0.66002 1.00941 0.0199 0.0
H755 H 0.68803 0.11312 0.04853 0.0
C756 C 0.66206 0.10727 0.08697 0.0
C757 C 0.64308 0.08772 0.10269 0.0
C758 C 0.67371 0.02604 1.00843 0.0
C759 C 0.6657 0.06784 0.04817 0.0
C760 C 0.68777 0.01635 0.98242 0.0
C761 C 0.70633 0.03725 0.96765 0.0
C762 C 0.67832 0.05679 0.01968 0.0
C763 C 0.70934 0.06809 0.97914 0.0
C764 C 0.67325 0.09755 0.0599 0.0
C765 C 0.63589 0.0582 0.09013 0.0
N766 N 0.69571 0.07674 1.00438 0.0
N767 N 0.64722 0.04914 0.06368 0.0
H768 H 0.73173 0.12512 0.68657 0.0
H769 H 0.71232 0.08776 0.85905 0.0
H770 H 0.66345 0.17067 0.73801 0.0
H771 H 0.76126 0.02807 0.79901 0.0
H772 H 0.70151 0.12589 0.81817 0.0
H773 H 0.75002 0.09706 0.73078 0.0
C774 C 0.72082 0.12965 0.70725 0.0
C775 C 0.69589 0.15027 0.70841 0.0
C776 C 0.71499 0.10466 0.81415 0.0
C777 C 0.71665 0.1177 0.7594 0.0
C778 C 0.72137 0.08313 0.83749 0.0
C779 C 0.73756 0.05476 0.83223 0.0
C780 C 0.72533 0.0978 0.78569 0.0
C781 C 0.74851 0.04961 0.80389 0.0
C782 C 0.73117 0.11339 0.73252 0.0
C783 C 0.68248 0.15468 0.73593 0.0
N784 N 0.74213 0.07077 0.78174 0.0
N785 N 0.69293 0.13844 0.7603 0.0
H786 H 0.17466 0.50736 0.07286 0.0
H787 H 0.14528 0.37066 0.95443 0.0
H788 H 0.20845 0.41007 0.0795 0.0
H789 H 0.10548 0.46523 0.94629 0.0
H790 H 0.16794 0.38567 1.00095 0.0
H791 H 0.14733 0.49307 0.02779 0.0
C792 C 0.17604 0.48298 0.06511 0.0
C793 C 0.19408 0.45996 0.07986 0.0
C794 C 0.15428 0.40327 0.9891 0.0
C795 C 0.16328 0.44364 0.0284 0.0
C796 C 0.14155 0.39477 0.9623 0.0
C797 C 0.12371 0.41683 0.94623 0.0
C798 C 0.14925 0.43414 1.00015 0.0
C799 C 0.11904 0.44746 0.95802 0.0
C800 C 0.16058 0.4749 0.03933 0.0
C801 C 0.1951 0.42875 0.0688 0.0
N802 N 0.13184 0.4553 0.98426 0.0
N803 N 0.18013 0.42164 0.04373 0.0
H804 H 0.85817 0.96355 0.32368 0.0
H805 H 0.82106 0.8371 0.19824 0.0
H806 H 0.77425 0.91718 0.3203 0.0
H807 H 0.8957 0.89886 0.19911 0.0
H808 H 0.80369 0.86259 0.24376 0.0
H809 H 0.87295 0.93543 0.27992 0.0
C810 C 0.84272 0.94736 0.31376 0.0
C811 C 0.81471 0.94304 0.32569 0.0
C812 C 0.82388 0.8704 0.23391 0.0
C813 C 0.83179 0.91041 0.27477 0.0
C814 C 0.83375 0.856 0.20789 0.0
C815 C 0.86014 0.86554 0.19496 0.0
C816 C 0.84057 0.8944 0.247 0.0
C817 C 0.87569 0.89006 0.20853 0.0
C818 C 0.85126 0.93125 0.28856 0.0
C819 C 0.79601 0.9213 0.31182 0.0
N820 N 0.86573 0.90346 0.2337 0.0
N821 N 0.80485 0.90582 0.28692 0.0
H822 H 0.32563 0.59354 0.56602 0.0
H823 H 0.43242 0.5419 0.4349 0.0
H824 H 0.3618 0.49779 0.55626 0.0
H825 H 0.40065 0.63867 0.44869 0.0
H826 H 0.40634 0.5251 0.47876 0.0
H827 H 0.35263 0.61017 0.52287 0.0
C828 C 0.33932 0.57596 0.55487 0.0
C829 C 0.34136 0.54413 0.56483 0.0
C830 C 0.40509 0.55001 0.47224 0.0
C831 C 0.37239 0.56316 0.51507 0.0
C832 C 0.42011 0.55969 0.44724 0.0
C833 C 0.41891 0.59184 0.43812 0.0
C834 C 0.38864 0.57258 0.48832 0.0
C835 C 0.40202 0.61362 0.45469 0.0
C836 C 0.35475 0.58553 0.53015 0.0
C837 C 0.35954 0.52254 0.5494 0.0
N838 N 0.38762 0.6036 0.47898 0.0
N839 N 0.37428 0.53244 0.52524 0.0
H840 H 0.23899 0.18089 0.4777 0.0
H841 H 0.33483 0.20073 0.33368 0.0
H842 H 0.21676 0.2549 0.41366 0.0
H843 H 0.36676 0.15532 0.41427 0.0
H844 H 0.29008 0.21868 0.35938 0.0
H845 H 0.28338 0.16776 0.45095 0.0
C846 C 0.24325 0.19437 0.45784 0.0
C847 C 0.22384 0.21914 0.44801 0.0
C848 C 0.30703 0.20494 0.37137 0.0
C849 C 0.27549 0.20396 0.41699 0.0
C850 C 0.3327 0.19479 0.35679 0.0
C851 C 0.35466 0.17604 0.37164 0.0
C852 C 0.30314 0.19603 0.40092 0.0
C853 C 0.3503 0.16893 0.40155 0.0
C854 C 0.2689 0.1869 0.44263 0.0
C855 C 0.23102 0.23564 0.42209 0.0
N856 N 0.32508 0.17866 0.41501 0.0
N857 N 0.25626 0.22767 0.40737 0.0
H858 H 0.08062 0.06946 0.59359 0.0
H859 H 0.09807 0.95416 0.73379 0.0
H860 H 0.13924 0.08642 0.66751 0.0
H861 H 0.02243 0.9516 0.67471 0.0
H862 H 0.11549 1.00019 0.70692 0.0
H863 H 0.06008 0.02474 0.62082 0.0
C864 C 0.08894 0.06409 0.61564 0.0
C865 C 0.11193 0.08163 0.62814 0.0
C866 C 0.09506 0.98962 0.6998 0.0
C867 C 0.08893 0.03011 0.65908 0.0
C868 C 0.08516 0.96313 0.71504 0.0
C869 C 0.05874 0.94888 0.70649 0.0
C870 C 0.07863 1.00195 0.67558 0.0
C871 C 0.04292 0.96184 0.68209 0.0
C872 C 0.07733 0.03842 0.63107 0.0
C873 C 0.12203 0.07322 0.65667 0.0
N874 N 0.05317 0.9876 0.66739 0.0
N875 N 0.11065 0.04799 0.67102 0.0
H876 H 0.19912 0.87199 0.90622 0.0
H877 H 0.33591 0.75211 0.94146 0.0
H878 H 0.22017 0.79264 0.84931 0.0
H879 H 0.32622 0.84652 0.97792 0.0
H880 H 0.29242 0.76353 0.90936 0.0
H881 H 0.24394 0.85997 0.93482 0.0
C882 C 0.21325 0.8522 0.89943 0.0
C883 C 0.2057 0.83361 0.87492 0.0
C884 C 0.29996 0.78176 0.92428 0.0
C885 C 0.25733 0.81912 0.90847 0.0
C886 C 0.32481 0.7753 0.94254 0.0
C887 C 0.33493 0.79853 0.96221 0.0
C888 C 0.28475 0.81141 0.92621 0.0
C889 C 0.31946 0.828 0.96293 0.0
C890 C 0.23889 0.84521 0.916 0.0
C891 C 0.22476 0.80757 0.8681 0.0
N892 N 0.29513 0.83346 0.94544 0.0
N893 N 0.24963 0.80108 0.88478 0.0
H894 H 0.53499 0.04364 0.18219 0.0
H895 H 0.41082 0.91169 0.17512 0.0
H896 H 0.45777 0.04341 0.23673 0.0
H897 H 0.47673 0.91987 0.10805 0.0
H898 H 0.4302 0.95844 0.19926 0.0
H899 H 0.51624 0.99723 0.15575 0.0
C900 C 0.5141 0.03397 0.18855 0.0
C901 C 0.49801 0.04747 0.21182 0.0
C902 C 0.44044 0.95014 0.17922 0.0
C903 C 0.47662 0.9943 0.18185 0.0
C904 C 0.42926 0.92342 0.16527 0.0
C905 C 0.44186 0.91184 0.13922 0.0
C906 C 0.46467 0.96557 0.1673 0.0
C907 C 0.46636 0.92773 0.12815 0.0
C908 C 0.50343 1.00749 0.17345 0.0
C909 C 0.47105 0.03392 0.21903 0.0
N910 N 0.47694 0.95381 0.14222 0.0
N911 N 0.46135 1.00811 0.20424 0.0
H912 H 0.85178 0.31415 0.6903 0.0
H913 H 0.71726 0.35465 0.57916 0.0
H914 H 0.8487 0.39237 0.62767 0.0
H915 H 0.72854 0.26209 0.62106 0.0
H916 H 0.76163 0.37191 0.60407 0.0
H917 H 0.80377 0.29733 0.67124 0.0
C918 C 0.84111 0.32779 0.67256 0.0
C919 C 0.85444 0.3548 0.66061 0.0
C920 C 0.75442 0.34786 0.608 0.0
C921 C 0.7993 0.33597 0.63922 0.0
C922 C 0.72895 0.33792 0.59381 0.0
C923 C 0.71929 0.30665 0.5977 0.0
C924 C 0.7706 0.32651 0.62638 0.0
C925 C 0.73526 0.28635 0.61734 0.0
C926 C 0.81365 0.31823 0.66185 0.0
C927 C 0.83923 0.37179 0.63802 0.0
N928 N 0.76036 0.29657 0.63084 0.0
N929 N 0.81257 0.36209 0.62812 0.0
H930 H 0.0234 0.44609 0.83445 0.0
H931 H 0.89825 0.5753 0.87402 0.0
H932 H 0.93225 0.44071 0.80633 0.0
H933 H 0.97249 0.55744 0.9334 0.0
H934 H 0.91538 0.53116 0.84361 0.0
H935 H 1.0095 0.49096 0.86686 0.0
C936 C 1.00051 0.4542 0.83525 0.0
C937 C 0.97894 0.43981 0.8176 0.0
C938 C 0.92796 0.53688 0.8633 0.0
C939 C 0.96315 0.49118 0.85384 0.0
C940 C 0.91815 0.56208 0.88078 0.0
C941 C 0.93354 0.56983 0.90678 0.0
C942 C 0.95366 0.51929 0.87144 0.0
C943 C 0.95985 0.5524 0.91361 0.0
C944 C 0.99263 0.47974 0.85366 0.0
C945 C 0.94961 0.45113 0.81946 0.0
N946 N 0.96906 0.52783 0.8961 0.0
N947 N 0.94267 0.47629 0.83695 0.0
H948 H 0.83816 0.65926 0.09032 0.0
H949 H 0.69133 0.71906 0.17087 0.0
H950 H 0.82008 0.75827 0.1109 0.0
H951 H 0.70991 0.62192 0.14451 0.0
H952 H 0.7407 0.73346 0.15484 0.0
H953 H 0.79409 0.64475 0.11643 0.0
C954 C 0.82509 0.67796 0.10069 0.0
C955 C 0.83266 0.71008 0.09816 0.0
C956 C 0.73401 0.70897 0.15278 0.0
C957 C 0.7817 0.69359 0.1279 0.0
C958 C 0.70592 0.70072 0.162 0.0
C959 C 0.69643 0.66932 0.15869 0.0
C960 C 0.75274 0.68557 0.14036 0.0
C961 C 0.71611 0.64653 0.14694 0.0
C962 C 0.79982 0.66964 0.11557 0.0
C963 C 0.81502 0.73321 0.1123 0.0
N964 N 0.74323 0.65514 0.13811 0.0
N965 N 0.79008 0.72455 0.12628 0.0
H966 H 0.60215 0.48606 0.4458 0.0
H967 H 0.56188 0.52302 0.27635 0.0
H968 H 0.59513 0.41456 0.37818 0.0
H969 H 0.56814 0.59753 0.34103 0.0
H970 H 0.57005 0.4832 0.315 0.0
H971 H 0.58622 0.52702 0.40964 0.0
C972 C 0.59716 0.47887 0.42342 0.0
C973 C 0.60028 0.44663 0.41509 0.0
C974 C 0.56953 0.50818 0.32098 0.0
C975 C 0.58174 0.49359 0.3736 0.0
C976 C 0.5649 0.53102 0.29883 0.0
C977 C 0.56455 0.56367 0.30544 0.0
C978 C 0.57421 0.51784 0.3502 0.0
C979 C 0.56826 0.57257 0.33502 0.0
C980 C 0.58792 0.50232 0.40283 0.0
C981 C 0.59287 0.43888 0.38588 0.0
N982 N 0.57321 0.54975 0.35635 0.0
N983 N 0.5842 0.46214 0.36627 0.0
H984 H 0.36765 0.30851 0.22315 0.0
H985 H 0.49122 0.18075 0.17567 0.0
H986 H 0.41676 0.31479 0.14264 0.0
H987 H 0.47073 0.19559 0.26717 0.0
H988 H 0.45793 0.22552 0.16216 0.0
H989 H 0.40067 0.26406 0.2394 0.0
C990 C 0.38549 0.30086 0.20902 0.0
C991 C 0.38912 0.31525 0.18126 0.0
C992 C 0.46063 0.21897 0.18521 0.0
C993 C 0.42637 0.264 0.19945 0.0
C994 C 0.47949 0.19329 0.19291 0.0
C995 C 0.48376 0.18456 0.22257 0.0
C996 C 0.44565 0.23591 0.20729 0.0
C997 C 0.46797 0.20161 0.24402 0.0
C998 C 0.40417 0.27536 0.21825 0.0
C999 C 0.41252 0.30401 0.16385 0.0
N1000 N 0.44952 0.22654 0.23597 0.0
N1001 N 0.43 0.27895 0.17309 0.0
H1002 H 0.98722 0.29951 0.84088 0.0
H1003 H 0.86035 0.17543 0.80604 0.0
H1004 H 0.93685 0.3013 0.75915 0.0
H1005 H 0.90987 0.17908 0.88805 0.0
H1006 H 0.88794 0.22078 0.78772 0.0
H1007 H 0.95892 0.25484 0.85771 0.0
C1008 C 0.97013 0.29058 0.82641 0.0
C1009 C 0.9645 0.30425 0.79847 0.0
C1010 C 0.89278 0.21153 0.80967 0.0
C1011 C 0.93179 0.25262 0.81779 0.0
C1012 C 0.877 0.1857 0.82019 0.0
C1013 C 0.88287 0.17321 0.84861 0.0
C1014 C 0.91454 0.22502 0.82773 0.0
C1015 C 0.9049 0.18737 0.86582 0.0
C1016 C 0.95393 0.26494 0.83609 0.0
C1017 C 0.94196 0.29153 0.78086 0.0
N1018 N 0.91983 0.21243 0.85513 0.0
N1019 N 0.92644 0.26635 0.79079 0.0
H1020 H 0.11497 0.63416 0.06551 0.0
H1021 H 0.94031 0.66159 0.08211 0.0
H1022 H 0.06464 0.58446 0.13035 0.0
H1023 H 0.99617 0.71915 0.02871 0.0
H1024 H 0.98304 0.62532 0.09309 0.0
H1025 H 0.06925 0.65778 0.04502 0.0
C1026 C 0.09423 0.62814 0.07538 0.0
C1027 C 0.09367 0.60775 0.09998 0.0
C1028 C 0.98573 0.6456 0.07856 0.0
C1029 C 0.041 0.63476 0.0766 0.0
C1030 C 0.96136 0.66607 0.07215 0.0
C1031 C 0.96499 0.69343 0.05477 0.0
C1032 C 1.01357 0.6526 0.06718 0.0
C1033 C 0.99263 0.69845 0.0425 0.0
C1034 C 0.06808 0.64153 0.0636 0.0
C1035 C 0.06606 0.60016 0.11141 0.0
N1036 N 1.01586 0.67842 0.04909 0.0
N1037 N 0.04081 0.614 0.09987 0.0
H1038 H 0.63397 0.83071 0.39081 0.0
H1039 H 0.60809 0.71231 0.25505 0.0
H1040 H 0.68592 0.83326 0.31197 0.0
H1041 H 0.56061 0.70955 0.3367 0.0
H1042 H 0.6369 0.75638 0.27464 0.0
H1043 H 0.60719 0.78614 0.37065 0.0
C1044 C 0.64002 0.82175 0.36935 0.0
C1045 C 0.66253 0.83583 0.35325 0.0
C1046 C 0.6202 0.74603 0.28823 0.0
C1047 C 0.63124 0.78464 0.32957 0.0
C1048 C 0.60375 0.72078 0.27707 0.0
C1049 C 0.58184 0.70696 0.29419 0.0
C1050 C 0.61466 0.75763 0.3167 0.0
C1051 C 0.57716 0.71928 0.32254 0.0
C1052 C 0.62448 0.79632 0.3577 0.0
C1053 C 0.66864 0.82345 0.32515 0.0
N1054 N 0.59334 0.74378 0.3328 0.0
N1055 N 0.65312 0.7986 0.31423 0.0
H1056 H 0.55621 0.30557 0.53343 0.0
H1057 H 0.48347 0.40128 0.66213 0.0
H1058 H 0.60957 0.34131 0.60468 0.0
H1059 H 0.4468 0.40492 0.57377 0.0
H1060 H 0.52966 0.37843 0.6426 0.0
H1061 H 0.51562 0.34168 0.5478 0.0
C1062 C 0.55952 0.32175 0.55166 0.0
C1063 C 0.58612 0.32093 0.56777 0.0
C1064 C 0.51163 0.38472 0.62749 0.0
C1065 C 0.53963 0.36111 0.58516 0.0
C1066 C 0.48527 0.39749 0.63863 0.0
C1067 C 0.46134 0.40489 0.61952 0.0
C1068 C 0.51374 0.37868 0.59716 0.0
C1069 C 0.4648 0.39971 0.58922 0.0
C1070 C 0.5364 0.34222 0.55993 0.0
C1071 C 0.58939 0.34177 0.59154 0.0
N1072 N 0.49034 0.38651 0.57903 0.0
N1073 N 0.5661 0.36066 0.59996 0.0
H1074 H 0.20032 0.72654 0.68128 0.0
H1075 H 0.03494 0.7668 0.72807 0.0
H1076 H 0.13509 0.65576 0.69762 0.0
H1077 H 0.10093 0.83873 0.72406 0.0
H1078 H 0.07294 0.72574 0.72026 0.0
H1079 H 0.16618 0.76776 0.69996 0.0
C1080 C 0.17893 0.71961 0.68904 0.0
C1081 C 0.17047 0.68763 0.68761 0.0
C1082 C 0.07933 0.75042 0.72127 0.0
C1083 C 0.13137 0.73466 0.70902 0.0
C1084 C 0.05758 0.77391 0.72564 0.0
C1085 C 0.06483 0.80616 0.72633 0.0
C1086 C 0.10864 0.75917 0.71709 0.0
C1087 C 0.09451 0.81406 0.72346 0.0
C1088 C 0.15953 0.74314 0.69981 0.0
C1089 C 0.1427 0.67999 0.69843 0.0
N1090 N 0.11538 0.79068 0.71857 0.0
N1091 N 0.12409 0.70335 0.70834 0.0
H1092 H 0.4696 0.84662 1.01647 0.0
H1093 H 0.59603 0.85221 0.89521 0.0
H1094 H 0.4698 0.79328 0.93534 0.0
H1095 H 0.59494 0.91495 0.97022 0.0
H1096 H 0.54932 0.83095 0.9105 0.0
H1097 H 0.51447 0.87313 1.00058 0.0
C1098 C 0.47883 0.84068 0.99526 0.0
C1099 C 0.46585 0.81753 0.97731 0.0
C1100 C 0.55913 0.84942 0.92369 0.0
C1101 C 0.51729 0.84747 0.95921 0.0
C1102 C 0.58603 0.86144 0.91504 0.0
C1103 C 0.59971 0.8852 0.93159 0.0
C1104 C 0.54553 0.86105 0.94923 0.0
C1105 C 0.58518 0.8967 0.95674 0.0
C1106 C 0.50449 0.85576 0.98625 0.0
C1107 C 0.47888 0.81082 0.95007 0.0
N1108 N 0.55896 0.88438 0.96491 0.0
N1109 N 0.50384 0.8255 0.94204 0.0
H1110 H 0.99227 0.09269 0.4026 0.0
H1111 H 0.05836 0.21786 0.51497 0.0
H1112 H 0.94479 0.12956 0.47726 0.0
H1113 H 0.11163 0.16964 0.45036 0.0
H1114 H 1.01815 0.18197 0.50421 0.0
H1115 H 0.03701 0.11753 0.42129 0.0
C1116 C 0.99123 0.10595 0.42298 0.0
C1117 C 0.9645 0.10931 0.43817 0.0
C1118 C 0.03875 0.17868 0.49271 0.0
C1119 C 1.01596 0.13768 0.45987 0.0
C1120 C 0.06179 0.19905 0.499 0.0
C1121 C 0.08834 0.1965 0.48365 0.0
C1122 C 0.04191 0.15597 0.47028 0.0
C1123 C 0.09161 0.17205 0.46293 0.0
C1124 C 1.0169 0.11992 0.43376 0.0
C1125 C 0.96479 0.12622 0.4648 0.0
N1126 N 0.06842 0.15303 0.45645 0.0
N1127 N 0.98996 0.14002 0.47458 0.0
loop_
_geom_bond_atom_site_label_1
_geom_bond_atom_site_label_2
_geom_bond_distance
_geom_bond_site_symmetry_2
_ccdc_geom_bond_type
La0 C2 2.928 . S
La0 O20 2.521 . S
La0 O21 2.628 . S
La0 O22 2.554 . S
La0 O23 2.757 . S
La0 O24 2.470 . S
La0 O29 2.482 . S
La0 O31 2.503 . S
La1 C11 2.928 . S
La1 O23 2.482 . S
La1 O25 2.503 . S
La1 O26 2.521 . S
La1 O27 2.628 . S
La1 O28 2.554 . S
La1 O29 2.757 . S
La1 O30 2.470 . S
C2 La0 2.928 . S
C2 C3 1.503 . S
C2 O20 1.261 . S
C2 O21 1.243 . S
C3 C2 1.503 . S
C3 C4 1.394 . S
C3 C8 1.373 . S
C4 C3 1.394 . S
C4 C5 1.380 . S
C4 H32 0.930 . S
C5 C4 1.380 . S
C5 C6 1.376 . S
C5 H33 0.930 . S
C6 C5 1.376 . S
C6 C7 1.370 . S
C7 C6 1.370 . S
C7 C8 1.396 . S
C7 H34 0.929 . S
C8 C3 1.373 . S
C8 C7 1.396 . S
C8 H35 0.929 . S
C9 O22 1.240 . S
C9 O23 1.289 . S
C10 O24 1.258 . S
C10 O25 1.256 . S
C11 La1 2.928 . S
C11 C12 1.503 . S
C11 O26 1.261 . S
C11 O27 1.243 . S
C12 C11 1.503 . S
C12 C13 1.394 . S
C12 C17 1.373 . S
C13 C12 1.394 . S
C13 C14 1.380 . S
C13 H36 0.930 . S
C14 C13 1.380 . S
C14 C15 1.376 . S
C14 H37 0.930 . S
C15 C14 1.376 . S
C15 C16 1.370 . S
C16 C15 1.370 . S
C16 C17 1.396 . S
C16 H38 0.929 . S
C17 C12 1.373 . S
C17 C16 1.396 . S
C17 H39 0.929 . S
C18 O28 1.240 . S
C18 O29 1.289 . S
C19 O30 1.258 . S
C19 O31 1.256 . S
O20 La0 2.521 . S
O20 C2 1.261 . S
O21 La0 2.628 . S
O21 C2 1.243 . S
O22 La0 2.554 . S
O22 C9 1.240 . S
O23 La0 2.757 . S
O23 La1 2.482 . S
O23 C9 1.289 . S
O24 La0 2.470 . S
O24 C10 1.258 . S
O25 La1 2.503 . S
O25 C10 1.256 . S
O26 La1 2.521 . S
O26 C11 1.261 . S
O27 La1 2.628 . S
O27 C11 1.243 . S
O28 La1 2.554 . S
O28 C18 1.240 . S
O29 La0 2.482 . S
O29 La1 2.757 . S
O29 C18 1.289 . S
O30 La1 2.470 . S
O30 C19 1.258 . S
O31 La0 2.503 . S
O31 C19 1.256 . S
H32 C4 0.930 . S
H33 C5 0.930 . S
H34 C7 0.929 . S
H35 C8 0.929 . S
H36 C13 0.930 . S
H37 C14 0.930 . S
H38 C16 0.929 . S
H39 C17 0.929 . S
La40 C42 2.928 . S
La40 O60 2.521 . S
La40 O61 2.628 . S
La40 O62 2.554 1_655 S
La40 O63 2.757 1_655 S
La40 O64 2.470 1_655 S
La40 O69 2.482 . S
La40 O71 2.503 . S
La41 C51 2.928 . S
La41 O63 2.482 . S
La41 O65 2.503 . S
La41 O66 2.521 . S
La41 O67 2.628 . S
La41 O68 2.535 1_455 S
La41 O69 2.757 1_455 S
La41 O70 2.470 . S
C42 La40 2.928 . S
C42 C43 1.503 . S
C42 O60 1.261 . S
C42 O61 1.243 . S
C43 C42 1.503 . S
C43 C44 1.394 . S
C43 C48 1.373 . S
C44 C43 1.394 . S
C44 C45 1.380 . S
C44 H72 0.930 . S
C45 C44 1.380 . S
C45 C46 1.376 . S
C45 H73 0.930 . S
C46 C45 1.376 . S
C46 C47 1.370 . S
C47 C46 1.370 . S
C47 C48 1.396 . S
C47 H74 0.929 . S
C48 C43 1.373 . S
C48 C47 1.396 . S
C48 H75 0.929 . S
C49 O62 1.240 . S
C49 O63 1.289 . S
C50 O64 1.258 . S
C50 O65 1.256 . S
C51 La41 2.928 . S
C51 C52 1.503 . S
C51 O66 1.261 . S
C51 O67 1.243 . S
C52 C51 1.503 . S
C52 C53 1.394 . S
C52 C57 1.373 . S
C53 C52 1.394 . S
C53 C54 1.380 . S
C53 H76 0.930 . S
C54 C53 1.380 . S
C54 C55 1.376 . S
C54 H77 0.930 . S
C55 C54 1.376 . S
C55 C56 1.370 . S
C56 C55 1.370 . S
C56 C57 1.396 . S
C56 H78 0.929 . S
C57 C52 1.373 . S
C57 C56 1.396 . S
C57 H79 0.929 . S
C58 O68 1.258 . S
C58 O69 1.289 . S
C59 O70 1.258 1_655 S
C59 O71 1.256 . S
O60 La40 2.521 . S
O60 C42 1.261 . S
O61 La40 2.628 . S
O61 C42 1.243 . S
O62 La40 2.554 1_455 S
O62 C49 1.240 . S
O63 La40 2.757 1_455 S
O63 La41 2.482 . S
O63 C49 1.289 . S
O64 La40 2.470 1_455 S
O64 C50 1.258 . S
O65 La41 2.503 . S
O65 C50 1.256 . S
O66 La41 2.521 . S
O66 C51 1.261 . S
O67 La41 2.628 . S
O67 C51 1.243 . S
O68 La41 2.535 1_655 S
O68 C58 1.258 . S
O69 La40 2.482 . S
O69 La41 2.757 1_655 S
O69 C58 1.289 . S
O70 La41 2.470 . S
O70 C59 1.258 1_455 S
O71 La40 2.503 . S
O71 C59 1.256 . S
H72 C44 0.930 . S
H73 C45 0.930 . S
H74 C47 0.929 . S
H75 C48 0.929 . S
H76 C53 0.930 . S
H77 C54 0.930 . S
H78 C56 0.929 . S
H79 C57 0.929 . S
La80 C82 2.928 . S
La80 O100 2.521 . S
La80 O101 2.628 . S
La80 O102 2.554 1_554 S
La80 O103 2.757 1_554 S
La80 O104 2.470 1_554 S
La80 O109 2.482 . S
La80 O111 2.503 . S
La81 C91 2.928 . S
La81 O103 2.482 . S
La81 O105 2.503 . S
La81 O106 2.521 . S
La81 O107 2.628 . S
La81 O108 2.554 . S
La81 O109 2.757 1_556 S
La81 O110 2.470 . S
C82 La80 2.928 . S
C82 C83 1.503 . S
C82 O100 1.261 . S
C82 O101 1.243 . S
C83 C82 1.503 . S
C83 C84 1.394 . S
C83 C88 1.373 . S
C84 C83 1.394 . S
C84 C85 1.380 . S
C84 H112 0.930 . S
C85 C84 1.380 . S
C85 C86 1.376 . S
C85 H113 0.930 . S
C86 C85 1.376 . S
C86 C87 1.370 . S
C87 C86 1.370 . S
C87 C88 1.396 . S
C87 H114 0.929 . S
C88 C83 1.373 . S
C88 C87 1.396 . S
C88 H115 0.929 . S
C89 O102 1.240 . S
C89 O103 1.289 . S
C90 O104 1.258 . S
C90 O105 1.256 . S
C91 La81 2.928 . S
C91 C92 1.503 . S
C91 O106 1.261 . S
C91 O107 1.243 . S
C92 C91 1.503 . S
C92 C93 1.394 . S
C92 C97 1.373 . S
C93 C92 1.394 . S
C93 C94 1.380 . S
C93 H116 0.930 . S
C94 C93 1.380 . S
C94 C95 1.376 . S
C94 H117 0.930 . S
C95 C94 1.376 . S
C95 C96 1.370 . S
C96 C95 1.370 . S
C96 C97 1.396 . S
C96 H118 0.929 . S
C97 C92 1.373 . S
C97 C96 1.396 . S
C97 H119 0.929 . S
C98 O108 1.240 1_554 S
C98 O109 1.289 . S
C99 O110 1.258 1_554 S
C99 O111 1.256 . S
O100 La80 2.521 . S
O100 C82 1.261 . S
O101 La80 2.628 . S
O101 C82 1.243 . S
O102 La80 2.554 1_556 S
O102 C89 1.240 . S
O103 La80 2.757 1_556 S
O103 La81 2.482 . S
O103 C89 1.289 . S
O104 La80 2.470 1_556 S
O104 C90 1.258 . S
O105 La81 2.503 . S
O105 C90 1.256 . S
O106 La81 2.521 . S
O106 C91 1.261 . S
O107 La81 2.628 . S
O107 C91 1.243 . S
O108 La81 2.554 . S
O108 C98 1.240 1_556 S
O109 La80 2.482 . S
O109 La81 2.757 1_554 S
O109 C98 1.289 . S
O110 La81 2.470 . S
O110 C99 1.258 1_556 S
O111 La80 2.503 . S
O111 C99 1.256 . S
H112 C84 0.930 . S
H113 C85 0.930 . S
H114 C87 0.929 . S
H115 C88 0.929 . S
H116 C93 0.930 . S
H117 C94 0.930 . S
H118 C96 0.929 . S
H119 C97 0.929 . S
La120 C122 2.928 . S
La120 O140 2.521 . S
La120 O141 2.628 . S
La120 O142 2.554 . S
La120 O143 2.757 . S
La120 O144 2.470 . S
La120 O149 2.482 . S
La120 O151 2.503 . S
La121 C131 2.928 . S
La121 O143 2.482 . S
La121 O145 2.503 . S
La121 O146 2.521 . S
La121 O147 2.628 . S
La121 O148 2.554 . S
La121 O149 2.757 . S
La121 O150 2.470 . S
C122 La120 2.928 . S
C122 C123 1.503 . S
C122 O140 1.261 . S
C122 O141 1.243 . S
C123 C122 1.503 . S
C123 C124 1.394 . S
C123 C128 1.373 . S
C124 C123 1.394 . S
C124 C125 1.380 . S
C124 H152 0.930 . S
C125 C124 1.380 . S
C125 C126 1.376 . S
C125 H153 0.930 . S
C126 C125 1.376 . S
C126 C127 1.370 . S
C127 C126 1.370 . S
C127 C128 1.396 . S
C127 H154 0.929 . S
C128 C123 1.373 . S
C128 C127 1.396 . S
C128 H155 0.929 . S
C129 O142 1.240 . S
C129 O143 1.289 . S
C130 O144 1.258 . S
C130 O145 1.256 . S
C131 La121 2.928 . S
C131 C132 1.503 . S
C131 O146 1.261 . S
C131 O147 1.243 . S
C132 C131 1.503 . S
C132 C133 1.394 . S
C132 C137 1.373 . S
C133 C132 1.394 . S
C133 C134 1.380 . S
C133 H156 0.930 . S
C134 C133 1.380 . S
C134 C135 1.376 . S
C134 H157 0.930 . S
C135 C134 1.376 . S
C135 C136 1.370 . S
C136 C135 1.370 . S
C136 C137 1.396 . S
C136 H158 0.929 . S
C137 C132 1.373 . S
C137 C136 1.396 . S
C137 H159 0.929 . S
C138 O148 1.240 . S
C138 O149 1.289 . S
C139 O150 1.258 . S
C139 O151 1.256 . S
O140 La120 2.521 . S
O140 C122 1.261 . S
O141 La120 2.628 . S
O141 C122 1.243 . S
O142 La120 2.554 . S
O142 C129 1.240 . S
O143 La120 2.757 . S
O143 La121 2.482 . S
O143 C129 1.289 . S
O144 La120 2.470 . S
O144 C130 1.258 . S
O145 La121 2.503 . S
O145 C130 1.256 . S
O146 La121 2.521 . S
O146 C131 1.261 . S
O147 La121 2.628 . S
O147 C131 1.243 . S
O148 La121 2.554 . S
O148 C138 1.240 . S
O149 La120 2.482 . S
O149 La121 2.757 . S
O149 C138 1.289 . S
O150 La121 2.470 . S
O150 C139 1.258 . S
O151 La120 2.503 . S
O151 C139 1.256 . S
H152 C124 0.930 . S
H153 C125 0.930 . S
H154 C127 0.929 . S
H155 C128 0.929 . S
H156 C133 0.930 . S
H157 C134 0.930 . S
H158 C136 0.929 . S
H159 C137 0.929 . S
La160 C162 2.928 . S
La160 O180 2.521 . S
La160 O181 2.628 . S
La160 O182 2.554 . S
La160 O183 2.757 . S
La160 O184 2.470 . S
La160 O189 2.482 . S
La160 O191 2.503 . S
La161 C171 2.928 . S
La161 O183 2.482 . S
La161 O185 2.503 . S
La161 O186 2.521 . S
La161 O187 2.628 . S
La161 O188 2.554 . S
La161 O189 2.757 . S
La161 O190 2.470 . S
C162 La160 2.928 . S
C162 C163 1.503 . S
C162 O180 1.261 . S
C162 O181 1.243 . S
C163 C162 1.503 . S
C163 C164 1.394 . S
C163 C168 1.373 . S
C164 C163 1.394 . S
C164 C165 1.380 . S
C164 H192 0.930 . S
C165 C164 1.380 . S
C165 C166 1.376 . S
C165 H193 0.930 . S
C166 C165 1.376 . S
C166 C167 1.370 . S
C167 C166 1.370 . S
C167 C168 1.396 . S
C167 H194 0.929 . S
C168 C163 1.373 . S
C168 C167 1.396 . S
C168 H195 0.929 . S
C169 O182 1.240 . S
C169 O183 1.289 . S
C170 O184 1.258 . S
C170 O185 1.256 . S
C171 La161 2.928 . S
C171 C172 1.503 . S
C171 O186 1.261 . S
C171 O187 1.243 . S
C172 C171 1.503 . S
C172 C173 1.394 . S
C172 C177 1.373 . S
C173 C172 1.394 . S
C173 C174 1.380 . S
C173 H196 0.930 . S
C174 C173 1.380 . S
C174 C175 1.376 . S
C174 H197 0.930 . S
C175 C174 1.376 . S
C175 C176 1.370 . S
C176 C175 1.370 . S
C176 C177 1.396 . S
C176 H198 0.929 . S
C177 C172 1.373 . S
C177 C176 1.396 . S
C177 H199 0.929 . S
C178 O188 1.240 . S
C178 O189 1.289 . S
C179 O190 1.258 . S
C179 O191 1.256 . S
O180 La160 2.521 . S
O180 C162 1.261 . S
O181 La160 2.628 . S
O181 C162 1.243 . S
O182 La160 2.554 . S
O182 C169 1.240 . S
O183 La160 2.757 . S
O183 La161 2.482 . S
O183 C169 1.289 . S
O184 La160 2.470 . S
O184 C170 1.258 . S
O185 La161 2.503 . S
O185 C170 1.256 . S
O186 La161 2.521 . S
O186 C171 1.261 . S
O187 La161 2.628 . S
O187 C171 1.243 . S
O188 La161 2.554 . S
O188 C178 1.240 . S
O189 La160 2.482 . S
O189 La161 2.757 . S
O189 C178 1.289 . S
O190 La161 2.470 . S
O190 C179 1.258 . S
O191 La160 2.503 . S
O191 C179 1.256 . S
H192 C164 0.930 . S
H193 C165 0.930 . S
H194 C167 0.929 . S
H195 C168 0.929 . S
H196 C173 0.930 . S
H197 C174 0.930 . S
H198 C176 0.929 . S
H199 C177 0.929 . S
La200 C202 2.928 . S
La200 O220 2.521 . S
La200 O221 2.628 . S
La200 O222 2.554 . S
La200 O223 2.757 . S
La200 O224 2.470 . S
La200 O229 2.482 1_655 S
La200 O231 2.503 1_655 S
La201 C211 2.928 . S
La201 O223 2.482 1_455 S
La201 O225 2.503 1_455 S
La201 O226 2.521 . S
La201 O227 2.628 . S
La201 O228 2.554 . S
La201 O229 2.757 . S
La201 O230 2.470 . S
C202 La200 2.928 . S
C202 C203 1.503 . S
C202 O220 1.261 . S
C202 O221 1.243 . S
C203 C202 1.503 . S
C203 C204 1.394 . S
C203 C208 1.373 . S
C204 C203 1.394 . S
C204 C205 1.380 . S
C204 H232 0.930 . S
C205 C204 1.380 . S
C205 C206 1.376 . S
C205 H233 0.930 . S
C206 C205 1.376 . S
C206 C207 1.370 . S
C207 C206 1.370 . S
C207 C208 1.396 . S
C207 H234 0.929 . S
C208 C203 1.373 . S
C208 C207 1.396 . S
C208 H235 0.929 . S
C209 O222 1.240 . S
C209 O223 1.289 . S
C210 O224 1.258 . S
C210 O225 1.256 . S
C211 La201 2.928 . S
C211 C212 1.503 . S
C211 O226 1.261 . S
C211 O227 1.243 . S
C212 C211 1.503 . S
C212 C213 1.394 . S
C212 C217 1.373 . S
C213 C212 1.394 . S
C213 C214 1.380 . S
C213 H236 0.930 . S
C214 C213 1.380 . S
C214 C215 1.376 . S
C214 H237 0.930 . S
C215 C214 1.376 . S
C215 C216 1.370 . S
C216 C215 1.370 . S
C216 C217 1.396 . S
C216 H238 0.929 . S
C217 C212 1.373 . S
C217 C216 1.396 . S
C217 H239 0.929 . S
C218 O228 1.240 . S
C218 O229 1.289 . S
C219 O230 1.258 . S
C219 O231 1.256 . S
O220 La200 2.521 . S
O220 C202 1.261 . S
O221 La200 2.628 . S
O221 C202 1.243 . S
O222 La200 2.554 . S
O222 C209 1.240 . S
O223 La200 2.757 . S
O223 La201 2.482 1_655 S
O223 C209 1.289 . S
O224 La200 2.470 . S
O224 C210 1.258 . S
O225 La201 2.503 1_655 S
O225 C210 1.256 . S
O226 La201 2.521 . S
O226 C211 1.261 . S
O227 La201 2.628 . S
O227 C211 1.243 . S
O228 La201 2.554 . S
O228 C218 1.240 . S
O229 La200 2.482 1_455 S
O229 La201 2.757 . S
O229 C218 1.289 . S
O230 La201 2.470 . S
O230 C219 1.258 . S
O231 La200 2.503 1_455 S
O231 C219 1.256 . S
H232 C204 0.930 . S
H233 C205 0.930 . S
H234 C207 0.929 . S
H235 C208 0.929 . S
H236 C213 0.930 . S
H237 C214 0.930 . S
H238 C216 0.929 . S
H239 C217 0.929 . S
La240 C242 2.928 . S
La240 O260 2.521 . S
La240 O261 2.628 . S
La240 O262 2.554 . S
La240 O263 2.757 . S
La240 O264 2.470 . S
La240 O269 2.482 . S
La240 O271 2.503 1_554 S
La241 C251 2.928 . S
La241 O263 2.482 1_556 S
La241 O265 2.503 1_556 S
La241 O266 2.521 . S
La241 O267 2.628 . S
La241 O268 2.554 . S
La241 O269 2.757 1_556 S
La241 O270 2.470 . S
C242 La240 2.928 . S
C242 C243 1.503 . S
C242 O260 1.261 . S
C242 O261 1.243 . S
C243 C242 1.503 . S
C243 C244 1.394 . S
C243 C248 1.373 . S
C244 C243 1.394 . S
C244 C245 1.380 . S
C244 H272 0.930 . S
C245 C244 1.380 . S
C245 C246 1.376 . S
C245 H273 0.930 . S
C246 C245 1.376 . S
C246 C247 1.370 . S
C247 C246 1.370 . S
C247 C248 1.396 . S
C247 H274 0.929 . S
C248 C243 1.373 . S
C248 C247 1.396 . S
C248 H275 0.929 . S
C249 O262 1.240 . S
C249 O263 1.289 . S
C250 O264 1.258 . S
C250 O265 1.256 . S
C251 La241 2.928 . S
C251 C252 1.503 . S
C251 O266 1.261 . S
C251 O267 1.243 . S
C252 C251 1.503 . S
C252 C253 1.394 . S
C252 C257 1.373 . S
C253 C252 1.394 . S
C253 C254 1.380 . S
C253 H276 0.930 . S
C254 C253 1.380 . S
C254 C255 1.376 . S
C254 H277 0.930 . S
C255 C254 1.376 . S
C255 C256 1.370 . S
C256 C255 1.370 . S
C256 C257 1.396 . S
C256 H278 0.929 . S
C257 C252 1.373 . S
C257 C256 1.396 . S
C257 H279 0.929 . S
C258 O268 1.240 . S
C258 O269 1.289 1_556 S
C259 O270 1.258 . S
C259 O271 1.256 . S
O260 La240 2.521 . S
O260 C242 1.261 . S
O261 La240 2.628 . S
O261 C242 1.243 . S
O262 La240 2.554 . S
O262 C249 1.240 . S
O263 La240 2.757 . S
O263 La241 2.482 1_554 S
O263 C249 1.289 . S
O264 La240 2.470 . S
O264 C250 1.258 . S
O265 La241 2.503 1_554 S
O265 C250 1.256 . S
O266 La241 2.521 . S
O266 C251 1.261 . S
O267 La241 2.628 . S
O267 C251 1.243 . S
O268 La241 2.554 . S
O268 C258 1.240 . S
O269 La240 2.482 . S
O269 La241 2.757 1_554 S
O269 C258 1.289 1_554 S
O270 La241 2.470 . S
O270 C259 1.258 . S
O271 La240 2.503 1_556 S
O271 C259 1.256 . S
H272 C244 0.930 . S
H273 C245 0.930 . S
H274 C247 0.929 . S
H275 C248 0.929 . S
H276 C253 0.930 . S
H277 C254 0.930 . S
H278 C256 0.929 . S
H279 C257 0.929 . S
La280 C282 2.928 . S
La280 O300 2.521 . S
La280 O301 2.628 . S
La280 O302 2.554 . S
La280 O303 2.757 . S
La280 O304 2.470 . S
La280 O309 2.482 . S
La280 O311 2.503 . S
La281 C291 2.928 . S
La281 O303 2.482 . S
La281 O305 2.503 . S
La281 O306 2.521 . S
La281 O307 2.628 . S
La281 O308 2.554 . S
La281 O309 2.757 . S
La281 O310 2.470 . S
C282 La280 2.928 . S
C282 C283 1.503 . S
C282 O300 1.261 . S
C282 O301 1.243 . S
C283 C282 1.503 . S
C283 C284 1.394 . S
C283 C288 1.373 . S
C284 C283 1.394 . S
C284 C285 1.380 . S
C284 H312 0.930 . S
C285 C284 1.380 . S
C285 C286 1.376 . S
C285 H313 0.930 . S
C286 C285 1.376 . S
C286 C287 1.370 . S
C287 C286 1.370 . S
C287 C288 1.396 . S
C287 H314 0.929 . S
C288 C283 1.373 . S
C288 C287 1.396 . S
C288 H315 0.929 . S
C289 O302 1.240 . S
C289 O303 1.289 . S
C290 O304 1.258 . S
C290 O305 1.256 . S
C291 La281 2.928 . S
C291 C292 1.503 . S
C291 O306 1.261 . S
C291 O307 1.243 . S
C292 C291 1.503 . S
C292 C293 1.394 . S
C292 C297 1.373 . S
C293 C292 1.394 . S
C293 C294 1.380 . S
C293 H316 0.930 . S
C294 C293 1.380 . S
C294 C295 1.376 . S
C294 H317 0.930 . S
C295 C294 1.376 . S
C295 C296 1.370 . S
C296 C295 1.370 . S
C296 C297 1.396 . S
C296 H318 0.929 . S
C297 C292 1.373 . S
C297 C296 1.396 . S
C297 H319 0.929 . S
C298 O308 1.240 . S
C298 O309 1.289 . S
C299 O310 1.258 . S
C299 O311 1.256 . S
O300 La280 2.521 . S
O300 C282 1.261 . S
O301 La280 2.628 . S
O301 C282 1.243 . S
O302 La280 2.554 . S
O302 C289 1.240 . S
O303 La280 2.757 . S
O303 La281 2.482 . S
O303 C289 1.289 . S
O304 La280 2.470 . S
O304 C290 1.258 . S
O305 La281 2.503 . S
O305 C290 1.256 . S
O306 La281 2.521 . S
O306 C291 1.261 . S
O307 La281 2.628 . S
O307 C291 1.243 . S
O308 La281 2.554 . S
O308 C298 1.240 . S
O309 La280 2.482 . S
O309 La281 2.757 . S
O309 C298 1.289 . S
O310 La281 2.470 . S
O310 C299 1.258 . S
O311 La280 2.503 . S
O311 C299 1.256 . S
H312 C284 0.930 . S
H313 C285 0.930 . S
H314 C287 0.929 . S
H315 C288 0.929 . S
H316 C293 0.930 . S
H317 C294 0.930 . S
H318 C296 0.929 . S
H319 C297 0.929 . S
La320 C322 2.928 . S
La320 O340 2.521 . S
La320 O341 2.628 . S
La320 O342 2.554 . S
La320 O343 2.757 . S
La320 O344 2.470 . S
La320 O349 2.482 . S
La320 O351 2.503 . S
La321 C331 2.928 . S
La321 O343 2.482 . S
La321 O345 2.503 . S
La321 O346 2.521 . S
La321 O347 2.628 . S
La321 O348 2.554 . S
La321 O349 2.757 . S
La321 O350 2.470 . S
C322 La320 2.928 . S
C322 C323 1.503 . S
C322 O340 1.261 . S
C322 O341 1.243 . S
C323 C322 1.503 . S
C323 C324 1.394 . S
C323 C328 1.373 . S
C324 C323 1.394 . S
C324 C325 1.380 . S
C324 H352 0.930 . S
C325 C324 1.380 . S
C325 C326 1.376 . S
C325 H353 0.930 . S
C326 C325 1.376 . S
C326 C327 1.370 . S
C327 C326 1.370 . S
C327 C328 1.396 . S
C327 H354 0.929 . S
C328 C323 1.373 . S
C328 C327 1.396 . S
C328 H355 0.929 . S
C329 O342 1.240 . S
C329 O343 1.289 . S
C330 O344 1.258 . S
C330 O345 1.256 . S
C331 La321 2.928 . S
C331 C332 1.503 . S
C331 O346 1.261 . S
C331 O347 1.243 . S
C332 C331 1.503 . S
C332 C333 1.394 . S
C332 C337 1.373 . S
C333 C332 1.394 . S
C333 C334 1.380 . S
C333 H356 0.930 . S
C334 C333 1.380 . S
C334 C335 1.376 . S
C334 H357 0.930 . S
C335 C334 1.376 . S
C335 C336 1.370 . S
C336 C335 1.370 . S
C336 C337 1.396 . S
C336 H358 0.929 . S
C337 C332 1.373 . S
C337 C336 1.396 . S
C337 H359 0.929 . S
C338 O348 1.240 . S
C338 O349 1.289 . S
C339 O350 1.258 . S
C339 O351 1.256 . S
O340 La320 2.521 . S
O340 C322 1.261 . S
O341 La320 2.628 . S
O341 C322 1.243 . S
O342 La320 2.554 . S
O342 C329 1.240 . S
O343 La320 2.757 . S
O343 La321 2.482 . S
O343 C329 1.289 . S
O344 La320 2.470 . S
O344 C330 1.258 . S
O345 La321 2.503 . S
O345 C330 1.256 . S
O346 La321 2.521 . S
O346 C331 1.261 . S
O347 La321 2.628 . S
O347 C331 1.243 . S
O348 La321 2.554 . S
O348 C338 1.240 . S
O349 La320 2.482 . S
O349 La321 2.757 . S
O349 C338 1.289 . S
O350 La321 2.470 . S
O350 C339 1.258 . S
O351 La320 2.503 . S
O351 C339 1.256 . S
H352 C324 0.930 . S
H353 C325 0.930 . S
H354 C327 0.929 . S
H355 C328 0.929 . S
H356 C333 0.930 . S
H357 C334 0.930 . S
H358 C336 0.929 . S
H359 C337 0.929 . S
La360 C362 2.928 . S
La360 O380 2.521 . S
La360 O381 2.628 . S
La360 O382 2.554 1_565 S
La360 O383 2.757 1_565 S
La360 O384 2.470 1_565 S
La360 O389 2.482 . S
La360 O391 2.503 . S
La361 C371 2.928 . S
La361 O383 2.482 . S
La361 O385 2.503 . S
La361 O386 2.521 . S
La361 O387 2.628 . S
La361 O388 2.554 1_545 S
La361 O389 2.757 1_545 S
La361 O390 2.470 1_545 S
C362 La360 2.928 . S
C362 C363 1.503 . S
C362 O380 1.261 . S
C362 O381 1.243 . S
C363 C362 1.503 . S
C363 C364 1.394 . S
C363 C368 1.373 . S
C364 C363 1.394 . S
C364 C365 1.380 . S
C364 H392 0.930 . S
C365 C364 1.380 . S
C365 C366 1.376 . S
C365 H393 0.930 . S
C366 C365 1.376 . S
C366 C367 1.370 . S
C367 C366 1.370 . S
C367 C368 1.396 . S
C367 H394 0.929 . S
C368 C363 1.373 . S
C368 C367 1.396 . S
C368 H395 0.929 . S
C369 O382 1.240 . S
C369 O383 1.289 . S
C370 O384 1.258 . S
C370 O385 1.256 . S
C371 La361 2.928 . S
C371 C372 1.503 . S
C371 O386 1.261 . S
C371 O387 1.243 . S
C372 C371 1.503 . S
C372 C373 1.394 . S
C372 C377 1.373 . S
C373 C372 1.394 . S
C373 C374 1.380 . S
C373 H396 0.930 . S
C374 C373 1.380 . S
C374 C375 1.376 . S
C374 H397 0.930 . S
C375 C374 1.376 . S
C375 C376 1.370 . S
C376 C375 1.370 . S
C376 C377 1.396 . S
C376 H398 0.929 . S
C377 C372 1.373 . S
C377 C376 1.396 . S
C377 H399 0.929 . S
C378 O388 1.240 . S
C378 O389 1.289 . S
C379 O390 1.258 . S
C379 O391 1.256 . S
O380 La360 2.521 . S
O380 C362 1.261 . S
O381 La360 2.628 . S
O381 C362 1.243 . S
O382 La360 2.554 1_545 S
O382 C369 1.240 . S
O383 La360 2.757 1_545 S
O383 La361 2.482 . S
O383 C369 1.289 . S
O384 La360 2.470 1_545 S
O384 C370 1.258 . S
O385 La361 2.503 . S
O385 C370 1.256 . S
O386 La361 2.521 . S
O386 C371 1.261 . S
O387 La361 2.628 . S
O387 C371 1.243 . S
O388 La361 2.554 1_565 S
O388 C378 1.240 . S
O389 La360 2.482 . S
O389 La361 2.757 1_565 S
O389 C378 1.289 . S
O390 La361 2.470 1_565 S
O390 C379 1.258 . S
O391 La360 2.503 . S
O391 C379 1.256 . S
H392 C364 0.930 . S
H393 C365 0.930 . S
H394 C367 0.929 . S
H395 C368 0.929 . S
H396 C373 0.930 . S
H397 C374 0.930 . S
H398 C376 0.929 . S
H399 C377 0.929 . S
La400 C402 2.928 . S
La400 O420 2.521 . S
La400 O421 2.628 . S
La400 O422 2.554 . S
La400 O423 2.757 . S
La400 O424 2.470 . S
La400 O429 2.482 1_565 S
La400 O431 2.503 1_565 S
La401 C411 2.928 . S
La401 O423 2.482 1_545 S
La401 O425 2.503 1_545 S
La401 O426 2.521 . S
La401 O427 2.628 . S
La401 O428 2.554 . S
La401 O429 2.757 . S
La401 O430 2.470 . S
C402 La400 2.928 . S
C402 C403 1.503 . S
C402 O420 1.261 . S
C402 O421 1.243 . S
C403 C402 1.503 . S
C403 C404 1.394 . S
C403 C408 1.373 . S
C404 C403 1.394 . S
C404 C405 1.380 . S
C404 H432 0.930 . S
C405 C404 1.380 . S
C405 C406 1.376 . S
C405 H433 0.930 . S
C406 C405 1.376 . S
C406 C407 1.370 . S
C407 C406 1.370 . S
C407 C408 1.396 . S
C407 H434 0.929 . S
C408 C403 1.373 . S
C408 C407 1.396 . S
C408 H435 0.929 . S
C409 O422 1.240 . S
C409 O423 1.289 . S
C410 O424 1.258 . S
C410 O425 1.256 . S
C411 La401 2.928 . S
C411 C412 1.503 . S
C411 O426 1.261 . S
C411 O427 1.243 . S
C412 C411 1.503 . S
C412 C413 1.394 . S
C412 C417 1.373 . S
C413 C412 1.394 . S
C413 C414 1.380 . S
C413 H436 0.930 . S
C414 C413 1.380 . S
C414 C415 1.376 . S
C414 H437 0.930 . S
C415 C414 1.376 . S
C415 C416 1.370 . S
C416 C415 1.370 . S
C416 C417 1.396 . S
C416 H438 0.929 . S
C417 C412 1.373 . S
C417 C416 1.396 . S
C417 H439 0.929 . S
C418 O428 1.240 . S
C418 O429 1.289 . S
C419 O430 1.258 . S
C419 O431 1.256 . S
O420 La400 2.521 . S
O420 C402 1.261 . S
O421 La400 2.628 . S
O421 C402 1.243 . S
O422 La400 2.554 . S
O422 C409 1.240 . S
O423 La400 2.757 . S
O423 La401 2.482 1_565 S
O423 C409 1.289 . S
O424 La400 2.470 . S
O424 C410 1.258 . S
O425 La401 2.503 1_565 S
O425 C410 1.256 . S
O426 La401 2.521 . S
O426 C411 1.261 . S
O427 La401 2.628 . S
O427 C411 1.243 . S
O428 La401 2.554 . S
O428 C418 1.240 . S
O429 La400 2.482 1_545 S
O429 La401 2.757 . S
O429 C418 1.289 . S
O430 La401 2.470 . S
O430 C419 1.258 . S
O431 La400 2.503 1_545 S
O431 C419 1.256 . S
H432 C404 0.930 . S
H433 C405 0.930 . S
H434 C407 0.929 . S
H435 C408 0.929 . S
H436 C413 0.930 . S
H437 C414 0.930 . S
H438 C416 0.929 . S
H439 C417 0.929 . S
La440 C442 2.928 . S
La440 O460 2.521 . S
La440 O461 2.628 . S
La440 O462 2.554 . S
La440 O463 2.757 . S
La440 O464 2.470 . S
La440 O469 2.482 . S
La440 O471 2.503 . S
La441 C451 2.928 . S
La441 O463 2.482 . S
La441 O465 2.503 . S
La441 O466 2.521 . S
La441 O467 2.628 . S
La441 O468 2.554 . S
La441 O469 2.757 . S
La441 O470 2.470 . S
C442 La440 2.928 . S
C442 C443 1.503 . S
C442 O460 1.261 . S
C442 O461 1.243 . S
C443 C442 1.503 . S
C443 C444 1.394 . S
C443 C448 1.373 . S
C444 C443 1.394 . S
C444 C445 1.380 . S
C444 H472 0.930 . S
C445 C444 1.380 . S
C445 C446 1.376 . S
C445 H473 0.930 . S
C446 C445 1.376 . S
C446 C447 1.370 . S
C447 C446 1.370 . S
C447 C448 1.396 . S
C447 H474 0.929 . S
C448 C443 1.373 . S
C448 C447 1.396 . S
C448 H475 0.929 . S
C449 O462 1.240 . S
C449 O463 1.289 . S
C450 O464 1.258 . S
C450 O465 1.256 . S
C451 La441 2.928 . S
C451 C452 1.503 . S
C451 O466 1.261 . S
C451 O467 1.243 . S
C452 C451 1.503 . S
C452 C453 1.394 . S
C452 C457 1.373 . S
C453 C452 1.394 . S
C453 C454 1.380 . S
C453 H476 0.930 . S
C454 C453 1.380 . S
C454 C455 1.376 . S
C454 H477 0.930 . S
C455 C454 1.376 . S
C455 C456 1.370 . S
C456 C455 1.370 . S
C456 C457 1.396 . S
C456 H478 0.929 . S
C457 C452 1.373 . S
C457 C456 1.396 . S
C457 H479 0.929 . S
C458 O468 1.240 . S
C458 O469 1.289 . S
C459 O470 1.258 . S
C459 O471 1.256 . S
O460 La440 2.521 . S
O460 C442 1.261 . S
O461 La440 2.628 . S
O461 C442 1.243 . S
O462 La440 2.554 . S
O462 C449 1.240 . S
O463 La440 2.757 . S
O463 La441 2.482 . S
O463 C449 1.289 . S
O464 La440 2.470 . S
O464 C450 1.258 . S
O465 La441 2.503 . S
O465 C450 1.256 . S
O466 La441 2.521 . S
O466 C451 1.261 . S
O467 La441 2.628 . S
O467 C451 1.243 . S
O468 La441 2.554 . S
O468 C458 1.240 . S
O469 La440 2.482 . S
O469 La441 2.757 . S
O469 C458 1.289 . S
O470 La441 2.470 . S
O470 C459 1.258 . S
O471 La440 2.503 . S
O471 C459 1.256 . S
H472 C444 0.930 . S
H473 C445 0.930 . S
H474 C447 0.929 . S
H475 C448 0.929 . S
H476 C453 0.930 . S
H477 C454 0.930 . S
H478 C456 0.929 . S
H479 C457 0.929 . S
H480 C486 0.930 . S
H481 C490 0.930 . S
H482 C495 0.929 . S
H483 C493 0.929 . S
H484 C488 0.929 . S
H485 C494 0.929 . S
C486 H480 0.930 . S
C486 C487 1.367 . S
C486 C494 1.378 . S
C487 C486 1.367 . S
C487 C495 1.433 . S
C488 H484 0.929 . S
C488 C490 1.378 . S
C488 C492 1.350 . S
C489 C492 1.463 . S
C489 C494 1.350 . S
C489 N497 1.427 . S
C490 H481 0.930 . S
C490 C488 1.378 . S
C490 C491 1.367 . S
C491 C490 1.367 . S
C491 C493 1.433 . S
C492 C488 1.350 . S
C492 C489 1.463 . S
C492 N496 1.427 . S
C493 H483 0.929 . S
C493 C491 1.433 . S
C493 N496 1.384 . S
C494 H485 0.929 . S
C494 C486 1.378 . S
C494 C489 1.350 . S
C495 H482 0.929 . S
C495 C487 1.433 . S
C495 N497 1.384 . S
N496 C492 1.427 . S
N496 C493 1.384 . S
N497 C489 1.427 . S
N497 C495 1.384 . S
H498 C504 0.930 1_545 S
H499 C508 0.930 . S
H500 C513 0.929 . S
H501 C511 0.929 . S
H502 C506 0.929 . S
H503 C512 0.929 . S
C504 H498 0.930 1_565 S
C504 C505 1.367 . S
C504 C512 1.378 . S
C505 C504 1.367 . S
C505 C513 1.433 . S
C506 H502 0.929 . S
C506 C508 1.378 . S
C506 C510 1.350 . S
C507 C510 1.463 . S
C507 C512 1.350 . S
C507 N515 1.427 . S
C508 H499 0.930 . S
C508 C506 1.378 . S
C508 C509 1.367 . S
C509 C508 1.367 . S
C509 C511 1.433 . S
C510 C506 1.350 . S
C510 C507 1.463 . S
C510 N514 1.427 . S
C511 H501 0.929 . S
C511 C509 1.433 . S
C511 N514 1.384 . S
C512 H503 0.929 . S
C512 C504 1.378 . S
C512 C507 1.350 . S
C513 H500 0.929 . S
C513 C505 1.433 . S
C513 N515 1.384 . S
N514 C510 1.427 . S
N514 C511 1.384 . S
N515 C507 1.427 . S
N515 C513 1.384 . S
H516 C522 0.930 1_556 S
H517 C526 0.930 . S
H518 C531 0.929 . S
H519 C529 0.929 . S
H520 C524 0.929 . S
H521 C530 0.929 . S
C522 H516 0.930 1_554 S
C522 C523 1.367 . S
C522 C530 1.378 . S
C523 C522 1.367 . S
C523 C531 1.433 . S
C524 H520 0.929 . S
C524 C526 1.378 . S
C524 C528 1.350 . S
C525 C528 1.463 . S
C525 C530 1.350 . S
C525 N533 1.427 . S
C526 H517 0.930 . S
C526 C524 1.378 . S
C526 C527 1.367 . S
C527 C526 1.367 . S
C527 C529 1.433 . S
C528 C524 1.350 . S
C528 C525 1.463 . S
C528 N532 1.427 . S
C529 H519 0.929 . S
C529 C527 1.433 . S
C529 N532 1.384 . S
C530 H521 0.929 . S
C530 C522 1.378 . S
C530 C525 1.350 . S
C531 H518 0.929 . S
C531 C523 1.433 . S
C531 N533 1.384 . S
N532 C528 1.427 . S
N532 C529 1.384 . S
N533 C525 1.427 . S
N533 C531 1.384 . S
H534 C540 0.930 . S
H535 C544 0.930 . S
H536 C549 0.929 . S
H537 C547 0.929 . S
H538 C542 0.929 . S
H539 C548 0.929 . S
C540 H534 0.930 . S
C540 C541 1.367 . S
C540 C548 1.378 . S
C541 C540 1.367 . S
C541 C549 1.433 . S
C542 H538 0.929 . S
C542 C544 1.378 . S
C542 C546 1.350 . S
C543 C546 1.463 . S
C543 C548 1.350 . S
C543 N551 1.427 . S
C544 H535 0.930 . S
C544 C542 1.378 . S
C544 C545 1.367 . S
C545 C544 1.367 . S
C545 C547 1.433 . S
C546 C542 1.350 . S
C546 C543 1.463 . S
C546 N550 1.427 . S
C547 H537 0.929 . S
C547 C545 1.433 . S
C547 N550 1.384 . S
C548 H539 0.929 . S
C548 C540 1.378 . S
C548 C543 1.350 . S
C549 H536 0.929 . S
C549 C541 1.433 . S
C549 N551 1.384 . S
N550 C546 1.427 . S
N550 C547 1.384 . S
N551 C543 1.427 . S
N551 C549 1.384 . S
H552 C558 0.930 . S
H553 C562 0.930 . S
H554 C567 0.929 . S
H555 C565 0.929 . S
H556 C560 0.929 . S
H557 C566 0.929 . S
C558 H552 0.930 . S
C558 C559 1.367 . S
C558 C566 1.378 . S
C559 C558 1.367 . S
C559 C567 1.433 . S
C560 H556 0.929 . S
C560 C562 1.378 . S
C560 C564 1.350 . S
C561 C564 1.463 . S
C561 C566 1.350 . S
C561 N569 1.427 . S
C562 H553 0.930 . S
C562 C560 1.378 . S
C562 C563 1.367 . S
C563 C562 1.367 . S
C563 C565 1.433 . S
C564 C560 1.350 . S
C564 C561 1.463 . S
C564 N568 1.427 . S
C565 H555 0.929 . S
C565 C563 1.433 . S
C565 N568 1.384 . S
C566 H557 0.929 . S
C566 C558 1.378 . S
C566 C561 1.350 . S
C567 H554 0.929 . S
C567 C559 1.433 . S
C567 N569 1.384 . S
N568 C564 1.427 . S
N568 C565 1.384 . S
N569 C561 1.427 . S
N569 C567 1.384 . S
H570 C576 0.930 . S
H571 C580 0.930 . S
H572 C585 0.929 . S
H573 C583 0.929 . S
H574 C578 0.929 . S
H575 C584 0.929 . S
C576 H570 0.930 . S
C576 C577 1.367 . S
C576 C584 1.378 . S
C577 C576 1.367 . S
C577 C585 1.433 . S
C578 H574 0.929 . S
C578 C580 1.378 . S
C578 C582 1.350 . S
C579 C582 1.463 . S
C579 C584 1.350 . S
C579 N587 1.427 . S
C580 H571 0.930 . S
C580 C578 1.378 . S
C580 C581 1.367 . S
C581 C580 1.367 . S
C581 C583 1.433 . S
C582 C578 1.350 . S
C582 C579 1.463 . S
C582 N586 1.427 . S
C583 H573 0.929 . S
C583 C581 1.433 . S
C583 N586 1.384 . S
C584 H575 0.929 . S
C584 C576 1.378 . S
C584 C579 1.350 . S
C585 H572 0.929 . S
C585 C577 1.433 . S
C585 N587 1.384 . S
N586 C582 1.427 . S
N586 C583 1.384 . S
N587 C579 1.427 . S
N587 C585 1.384 . S
H588 C594 0.930 . S
H589 C598 0.930 . S
H590 C603 0.929 . S
H591 C601 0.929 1_554 S
H592 C596 0.929 . S
H593 C602 0.929 . S
C594 H588 0.930 . S
C594 C595 1.367 . S
C594 C602 1.378 . S
C595 C594 1.367 . S
C595 C603 1.433 . S
C596 H592 0.929 . S
C596 C598 1.378 . S
C596 C600 1.350 . S
C597 C600 1.463 . S
C597 C602 1.350 . S
C597 N605 1.427 . S
C598 H589 0.930 . S
C598 C596 1.378 . S
C598 C599 1.367 . S
C599 C598 1.367 . S
C599 C601 1.433 . S
C600 C596 1.350 . S
C600 C597 1.463 . S
C600 N604 1.427 . S
C601 H591 0.929 1_556 S
C601 C599 1.433 . S
C601 N604 1.384 . S
C602 H593 0.929 . S
C602 C594 1.378 . S
C602 C597 1.350 . S
C603 H590 0.929 . S
C603 C595 1.433 . S
C603 N605 1.384 . S
N604 C600 1.427 . S
N604 C601 1.384 . S
N605 C597 1.427 . S
N605 C603 1.384 . S
H606 C612 0.930 . S
H607 C616 0.930 . S
H608 C621 0.929 . S
H609 C619 0.929 . S
H610 C614 0.929 . S
H611 C620 0.929 . S
C612 H606 0.930 . S
C612 C613 1.367 . S
C612 C620 1.378 . S
C613 C612 1.367 . S
C613 C621 1.433 . S
C614 H610 0.929 . S
C614 C616 1.378 . S
C614 C618 1.350 . S
C615 C618 1.463 . S
C615 C620 1.350 . S
C615 N623 1.427 . S
C616 H607 0.930 . S
C616 C614 1.378 . S
C616 C617 1.367 . S
C617 C616 1.367 . S
C617 C619 1.433 . S
C618 C614 1.350 . S
C618 C615 1.463 . S
C618 N622 1.427 . S
C619 H609 0.929 . S
C619 C617 1.433 . S
C619 N622 1.384 . S
C620 H611 0.929 . S
C620 C612 1.378 . S
C620 C615 1.350 . S
C621 H608 0.929 . S
C621 C613 1.433 . S
C621 N623 1.384 . S
N622 C618 1.427 . S
N622 C619 1.384 . S
N623 C615 1.427 . S
N623 C621 1.384 . S
H624 C630 0.930 . S
H625 C634 0.930 . S
H626 C639 0.929 . S
H627 C637 0.929 . S
H628 C632 0.929 . S
H629 C638 0.929 . S
C630 H624 0.930 . S
C630 C631 1.367 . S
C630 C638 1.378 . S
C631 C630 1.367 . S
C631 C639 1.433 . S
C632 H628 0.929 . S
C632 C634 1.378 . S
C632 C636 1.350 . S
C633 C636 1.463 . S
C633 C638 1.350 . S
C633 N641 1.427 . S
C634 H625 0.930 . S
C634 C632 1.378 . S
C634 C635 1.367 . S
C635 C634 1.367 . S
C635 C637 1.433 . S
C636 C632 1.350 . S
C636 C633 1.463 . S
C636 N640 1.427 . S
C637 H627 0.929 . S
C637 C635 1.433 . S
C637 N640 1.384 . S
C638 H629 0.929 . S
C638 C630 1.378 . S
C638 C633 1.350 . S
C639 H626 0.929 . S
C639 C631 1.433 . S
C639 N641 1.384 . S
N640 C636 1.427 . S
N640 C637 1.384 . S
N641 C633 1.427 . S
N641 C639 1.384 . S
H642 C648 0.930 . S
H643 C652 0.930 . S
H644 C657 0.929 . S
H645 C655 0.929 . S
H646 C650 0.929 . S
H647 C656 0.929 . S
C648 H642 0.930 . S
C648 C649 1.367 . S
C648 C656 1.378 . S
C649 C648 1.367 . S
C649 C657 1.433 . S
C650 H646 0.929 . S
C650 C652 1.378 . S
C650 C654 1.350 . S
C651 C654 1.463 . S
C651 C656 1.350 . S
C651 N659 1.427 . S
C652 H643 0.930 . S
C652 C650 1.378 . S
C652 C653 1.367 . S
C653 C652 1.367 . S
C653 C655 1.433 . S
C654 C650 1.350 . S
C654 C651 1.463 . S
C654 N658 1.427 . S
C655 H645 0.929 . S
C655 C653 1.433 . S
C655 N658 1.384 . S
C656 H647 0.929 . S
C656 C648 1.378 . S
C656 C651 1.350 . S
C657 H644 0.929 . S
C657 C649 1.433 . S
C657 N659 1.384 . S
N658 C654 1.427 . S
N658 C655 1.384 . S
N659 C651 1.427 . S
N659 C657 1.384 . S
H660 C666 0.930 1_455 S
H661 C670 0.930 . S
H662 C675 0.929 . S
H663 C673 0.929 . S
H664 C668 0.929 . S
H665 C674 0.929 . S
C666 H660 0.930 1_655 S
C666 C667 1.367 . S
C666 C674 1.378 . S
C667 C666 1.367 . S
C667 C675 1.433 . S
C668 H664 0.929 . S
C668 C670 1.378 . S
C668 C672 1.350 . S
C669 C672 1.463 . S
C669 C674 1.350 . S
C669 N677 1.427 . S
C670 H661 0.930 . S
C670 C668 1.378 . S
C670 C671 1.367 . S
C671 C670 1.367 . S
C671 C673 1.433 . S
C672 C668 1.350 . S
C672 C669 1.463 . S
C672 N676 1.427 . S
C673 H663 0.929 . S
C673 C671 1.433 . S
C673 N676 1.384 . S
C674 H665 0.929 . S
C674 C666 1.378 . S
C674 C669 1.350 . S
C675 H662 0.929 . S
C675 C667 1.433 . S
C675 N677 1.384 . S
N676 C672 1.427 . S
N676 C673 1.384 . S
N677 C669 1.427 . S
N677 C675 1.384 . S
H678 C684 0.930 . S
H679 C688 0.930 . S
H680 C693 0.929 . S
H681 C691 0.929 . S
H682 C686 0.929 . S
H683 C692 0.929 . S
C684 H678 0.930 . S
C684 C685 1.367 . S
C684 C692 1.378 . S
C685 C684 1.367 . S
C685 C693 1.433 . S
C686 H682 0.929 . S
C686 C688 1.378 . S
C686 C690 1.350 . S
C687 C690 1.463 . S
C687 C692 1.350 . S
C687 N695 1.427 . S
C688 H679 0.930 . S
C688 C686 1.378 . S
C688 C689 1.367 . S
C689 C688 1.367 . S
C689 C691 1.433 . S
C690 C686 1.350 . S
C690 C687 1.463 . S
C690 N694 1.427 . S
C691 H681 0.929 . S
C691 C689 1.433 . S
C691 N694 1.384 . S
C692 H683 0.929 . S
C692 C684 1.378 . S
C692 C687 1.350 . S
C693 H680 0.929 . S
C693 C685 1.433 . S
C693 N695 1.384 . S
N694 C690 1.427 . S
N694 C691 1.384 . S
N695 C687 1.427 . S
N695 C693 1.384 . S
H696 C702 0.930 . S
H697 C706 0.930 . S
H698 C711 0.929 . S
H699 C709 0.929 . S
H700 C704 0.929 . S
H701 C710 0.929 . S
C702 H696 0.930 . S
C702 C703 1.367 . S
C702 C710 1.378 . S
C703 C702 1.367 . S
C703 C711 1.433 . S
C704 H700 0.929 . S
C704 C706 1.378 . S
C704 C708 1.350 . S
C705 C708 1.463 . S
C705 C710 1.350 . S
C705 N713 1.427 . S
C706 H697 0.930 . S
C706 C704 1.378 . S
C706 C707 1.367 . S
C707 C706 1.367 . S
C707 C709 1.433 . S
C708 C704 1.350 . S
C708 C705 1.463 . S
C708 N712 1.427 . S
C709 H699 0.929 . S
C709 C707 1.433 . S
C709 N712 1.384 . S
C710 H701 0.929 . S
C710 C702 1.378 . S
C710 C705 1.350 . S
C711 H698 0.929 . S
C711 C703 1.433 . S
C711 N713 1.384 . S
N712 C708 1.427 . S
N712 C709 1.384 . S
N713 C705 1.427 . S
N713 C711 1.384 . S
H714 C720 0.930 . S
H715 C724 0.930 . S
H716 C729 0.929 . S
H717 C727 0.929 . S
H718 C722 0.929 . S
H719 C728 0.929 . S
C720 H714 0.930 . S
C720 C721 1.367 . S
C720 C728 1.378 . S
C721 C720 1.367 . S
C721 C729 1.433 . S
C722 H718 0.929 . S
C722 C724 1.378 . S
C722 C726 1.350 . S
C723 C726 1.463 . S
C723 C728 1.350 . S
C723 N731 1.427 . S
C724 H715 0.930 . S
C724 C722 1.378 . S
C724 C725 1.367 . S
C725 C724 1.367 . S
C725 C727 1.433 . S
C726 C722 1.350 . S
C726 C723 1.463 . S
C726 N730 1.427 . S
C727 H717 0.929 . S
C727 C725 1.433 . S
C727 N730 1.384 . S
C728 H719 0.929 . S
C728 C720 1.378 . S
C728 C723 1.350 . S
C729 H716 0.929 . S
C729 C721 1.433 . S
C729 N731 1.384 . S
N730 C726 1.427 . S
N730 C727 1.384 . S
N731 C723 1.427 . S
N731 C729 1.384 . S
H732 C738 0.930 . S
H733 C742 0.930 . S
H734 C747 0.929 . S
H735 C745 0.929 . S
H736 C740 0.929 . S
H737 C746 0.929 . S
C738 H732 0.930 . S
C738 C739 1.367 . S
C738 C746 1.378 . S
C739 C738 1.367 . S
C739 C747 1.433 . S
C740 H736 0.929 . S
C740 C742 1.378 . S
C740 C744 1.350 . S
C741 C744 1.463 . S
C741 C746 1.350 . S
C741 N749 1.427 . S
C742 H733 0.930 . S
C742 C740 1.378 . S
C742 C743 1.367 . S
C743 C742 1.367 . S
C743 C745 1.433 . S
C744 C740 1.350 . S
C744 C741 1.463 . S
C744 N748 1.427 . S
C745 H735 0.929 . S
C745 C743 1.433 . S
C745 N748 1.384 . S
C746 H737 0.929 . S
C746 C738 1.378 . S
C746 C741 1.350 . S
C747 H734 0.929 . S
C747 C739 1.433 . S
C747 N749 1.384 . S
N748 C744 1.427 . S
N748 C745 1.384 . S
N749 C741 1.427 . S
N749 C747 1.384 . S
H750 C756 0.930 . S
H751 C760 0.930 1_565 S
H752 C765 0.929 . S
H753 C763 0.929 . S
H754 C758 0.933 . S
H755 C764 0.929 1_556 S
C756 H750 0.930 . S
C756 C757 1.367 . S
C756 C764 1.378 . S
C757 C756 1.367 . S
C757 C765 1.433 . S
C758 H754 0.933 . S
C758 C760 1.378 . S
C758 C762 1.350 . S
C759 C762 1.463 1_554 S
C759 C764 1.350 . S
C759 N767 1.427 . S
C760 H751 0.930 1_545 S
C760 C758 1.378 . S
C760 C761 1.367 . S
C761 C760 1.367 . S
C761 C763 1.433 . S
C762 C758 1.350 . S
C762 C759 1.463 1_556 S
C762 N766 1.427 . S
C763 H753 0.929 . S
C763 C761 1.433 . S
C763 N766 1.384 . S
C764 H755 0.929 1_554 S
C764 C756 1.378 . S
C764 C759 1.350 . S
C765 H752 0.929 . S
C765 C757 1.433 . S
C765 N767 1.384 . S
N766 C762 1.427 . S
N766 C763 1.384 . S
N767 C759 1.427 . S
N767 C765 1.384 . S
H768 C774 0.930 . S
H769 C778 0.930 . S
H770 C783 0.929 . S
H771 C781 0.929 . S
H772 C776 0.929 . S
H773 C782 0.929 . S
C774 H768 0.930 . S
C774 C775 1.367 . S
C774 C782 1.378 . S
C775 C774 1.367 . S
C775 C783 1.433 . S
C776 H772 0.929 . S
C776 C778 1.378 . S
C776 C780 1.350 . S
C777 C780 1.463 . S
C777 C782 1.350 . S
C777 N785 1.427 . S
C778 H769 0.930 . S
C778 C776 1.378 . S
C778 C779 1.367 . S
C779 C778 1.367 . S
C779 C781 1.433 . S
C780 C776 1.350 . S
C780 C777 1.463 . S
C780 N784 1.427 . S
C781 H771 0.929 . S
C781 C779 1.433 . S
C781 N784 1.384 . S
C782 H773 0.929 . S
C782 C774 1.378 . S
C782 C777 1.350 . S
C783 H770 0.929 . S
C783 C775 1.433 . S
C783 N785 1.384 . S
N784 C780 1.427 . S
N784 C781 1.384 . S
N785 C777 1.427 . S
N785 C783 1.384 . S
H786 C792 0.930 . S
H787 C796 0.930 . S
H788 C801 0.929 . S
H789 C799 0.929 . S
H790 C794 0.929 . S
H791 C800 0.929 . S
C792 H786 0.930 . S
C792 C793 1.367 . S
C792 C800 1.378 1_554 S
C793 C792 1.367 . S
C793 C801 1.433 . S
C794 H790 0.929 . S
C794 C796 1.378 . S
C794 C798 1.350 . S
C795 C798 1.463 . S
C795 C800 1.350 . S
C795 N803 1.427 1_556 S
C796 H787 0.930 . S
C796 C794 1.378 . S
C796 C797 1.367 . S
C797 C796 1.367 . S
C797 C799 1.433 . S
C798 C794 1.350 . S
C798 C795 1.463 . S
C798 N802 1.427 . S
C799 H789 0.929 . S
C799 C797 1.433 . S
C799 N802 1.384 . S
C800 H791 0.929 . S
C800 C792 1.378 1_556 S
C800 C795 1.350 . S
C801 H788 0.929 . S
C801 C793 1.433 . S
C801 N803 1.384 . S
N802 C798 1.427 . S
N802 C799 1.384 . S
N803 C795 1.427 1_554 S
N803 C801 1.384 . S
H804 C810 0.930 . S
H805 C814 0.930 . S
H806 C819 0.929 . S
H807 C817 0.929 . S
H808 C812 0.929 . S
H809 C818 0.929 . S
C810 H804 0.930 . S
C810 C811 1.367 . S
C810 C818 1.378 . S
C811 C810 1.367 . S
C811 C819 1.433 . S
C812 H808 0.929 . S
C812 C814 1.378 . S
C812 C816 1.350 . S
C813 C816 1.463 . S
C813 C818 1.350 . S
C813 N821 1.427 . S
C814 H805 0.930 . S
C814 C812 1.378 . S
C814 C815 1.367 . S
C815 C814 1.367 . S
C815 C817 1.433 . S
C816 C812 1.350 . S
C816 C813 1.463 . S
C816 N820 1.427 . S
C817 H807 0.929 . S
C817 C815 1.433 . S
C817 N820 1.384 . S
C818 H809 0.929 . S
C818 C810 1.378 . S
C818 C813 1.350 . S
C819 H806 0.929 . S
C819 C811 1.433 . S
C819 N821 1.384 . S
N820 C816 1.427 . S
N820 C817 1.384 . S
N821 C813 1.427 . S
N821 C819 1.384 . S
H822 C828 0.930 . S
H823 C832 0.930 . S
H824 C837 0.929 . S
H825 C835 0.929 . S
H826 C830 0.929 . S
H827 C836 0.929 . S
C828 H822 0.930 . S
C828 C829 1.367 . S
C828 C836 1.378 . S
C829 C828 1.367 . S
C829 C837 1.433 . S
C830 H826 0.929 . S
C830 C832 1.378 . S
C830 C834 1.350 . S
C831 C834 1.463 . S
C831 C836 1.350 . S
C831 N839 1.427 . S
C832 H823 0.930 . S
C832 C830 1.378 . S
C832 C833 1.367 . S
C833 C832 1.367 . S
C833 C835 1.433 . S
C834 C830 1.350 . S
C834 C831 1.463 . S
C834 N838 1.427 . S
C835 H825 0.929 . S
C835 C833 1.433 . S
C835 N838 1.384 . S
C836 H827 0.929 . S
C836 C828 1.378 . S
C836 C831 1.350 . S
C837 H824 0.929 . S
C837 C829 1.433 . S
C837 N839 1.384 . S
N838 C834 1.427 . S
N838 C835 1.384 . S
N839 C831 1.427 . S
N839 C837 1.384 . S
H840 C846 0.930 . S
H841 C850 0.930 . S
H842 C855 0.929 . S
H843 C853 0.929 . S
H844 C848 0.929 . S
H845 C854 0.929 . S
C846 H840 0.930 . S
C846 C847 1.367 . S
C846 C854 1.378 . S
C847 C846 1.367 . S
C847 C855 1.433 . S
C848 H844 0.929 . S
C848 C850 1.378 . S
C848 C852 1.350 . S
C849 C852 1.463 . S
C849 C854 1.350 . S
C849 N857 1.427 . S
C850 H841 0.930 . S
C850 C848 1.378 . S
C850 C851 1.367 . S
C851 C850 1.367 . S
C851 C853 1.433 . S
C852 C848 1.350 . S
C852 C849 1.463 . S
C852 N856 1.427 . S
C853 H843 0.929 . S
C853 C851 1.433 . S
C853 N856 1.384 . S
C854 H845 0.929 . S
C854 C846 1.378 . S
C854 C849 1.350 . S
C855 H842 0.929 . S
C855 C847 1.433 . S
C855 N857 1.384 . S
N856 C852 1.427 . S
N856 C853 1.384 . S
N857 C849 1.427 . S
N857 C855 1.384 . S
H858 C864 0.930 . S
H859 C868 0.930 . S
H860 C873 0.929 . S
H861 C871 0.929 . S
H862 C866 0.929 . S
H863 C872 0.929 . S
C864 H858 0.930 . S
C864 C865 1.367 . S
C864 C872 1.378 . S
C865 C864 1.367 . S
C865 C873 1.433 . S
C866 H862 0.929 . S
C866 C868 1.378 1_545 S
C866 C870 1.350 . S
C867 C870 1.463 . S
C867 C872 1.350 . S
C867 N875 1.427 . S
C868 H859 0.930 . S
C868 C866 1.378 1_565 S
C868 C869 1.367 . S
C869 C868 1.367 . S
C869 C871 1.433 . S
C870 C866 1.350 . S
C870 C867 1.463 . S
C870 N874 1.427 1_545 S
C871 H861 0.929 . S
C871 C869 1.433 . S
C871 N874 1.384 . S
C872 H863 0.929 . S
C872 C864 1.378 . S
C872 C867 1.350 . S
C873 H860 0.929 . S
C873 C865 1.433 . S
C873 N875 1.384 . S
N874 C870 1.427 1_565 S
N874 C871 1.384 . S
N875 C867 1.427 . S
N875 C873 1.384 . S
H876 C882 0.930 . S
H877 C886 0.930 . S
H878 C891 0.929 . S
H879 C889 0.929 . S
H880 C884 0.929 . S
H881 C890 0.929 . S
C882 H876 0.930 . S
C882 C883 1.367 . S
C882 C890 1.378 . S
C883 C882 1.367 . S
C883 C891 1.433 . S
C884 H880 0.929 . S
C884 C886 1.378 . S
C884 C888 1.350 . S
C885 C888 1.463 . S
C885 C890 1.350 . S
C885 N893 1.427 . S
C886 H877 0.930 . S
C886 C884 1.378 . S
C886 C887 1.367 . S
C887 C886 1.367 . S
C887 C889 1.433 . S
C888 C884 1.350 . S
C888 C885 1.463 . S
C888 N892 1.427 . S
C889 H879 0.929 . S
C889 C887 1.433 . S
C889 N892 1.384 . S
C890 H881 0.929 . S
C890 C882 1.378 . S
C890 C885 1.350 . S
C891 H878 0.929 . S
C891 C883 1.433 . S
C891 N893 1.384 . S
N892 C888 1.427 . S
N892 C889 1.384 . S
N893 C885 1.427 . S
N893 C891 1.384 . S
H894 C900 0.930 . S
H895 C904 0.930 . S
H896 C909 0.929 . S
H897 C907 0.929 . S
H898 C902 0.929 . S
H899 C908 0.929 . S
C900 H894 0.930 . S
C900 C901 1.367 . S
C900 C908 1.378 . S
C901 C900 1.367 . S
C901 C909 1.433 . S
C902 H898 0.929 . S
C902 C904 1.378 . S
C902 C906 1.350 . S
C903 C906 1.463 1_545 S
C903 C908 1.350 . S
C903 N911 1.427 . S
C904 H895 0.930 . S
C904 C902 1.378 . S
C904 C905 1.367 . S
C905 C904 1.367 . S
C905 C907 1.433 . S
C906 C902 1.350 . S
C906 C903 1.463 1_565 S
C906 N910 1.427 . S
C907 H897 0.929 . S
C907 C905 1.433 . S
C907 N910 1.384 . S
C908 H899 0.929 . S
C908 C900 1.378 . S
C908 C903 1.350 . S
C909 H896 0.929 . S
C909 C901 1.433 . S
C909 N911 1.384 . S
N910 C906 1.427 . S
N910 C907 1.384 . S
N911 C903 1.427 . S
N911 C909 1.384 . S
H912 C918 0.930 . S
H913 C922 0.930 . S
H914 C927 0.929 . S
H915 C925 0.929 . S
H916 C920 0.929 . S
H917 C926 0.929 . S
C918 H912 0.930 . S
C918 C919 1.367 . S
C918 C926 1.378 . S
C919 C918 1.367 . S
C919 C927 1.433 . S
C920 H916 0.929 . S
C920 C922 1.378 . S
C920 C924 1.350 . S
C921 C924 1.463 . S
C921 C926 1.350 . S
C921 N929 1.427 . S
C922 H913 0.930 . S
C922 C920 1.378 . S
C922 C923 1.367 . S
C923 C922 1.367 . S
C923 C925 1.433 . S
C924 C920 1.350 . S
C924 C921 1.463 . S
C924 N928 1.427 . S
C925 H915 0.929 . S
C925 C923 1.433 . S
C925 N928 1.384 . S
C926 H917 0.929 . S
C926 C918 1.378 . S
C926 C921 1.350 . S
C927 H914 0.929 . S
C927 C919 1.433 . S
C927 N929 1.384 . S
N928 C924 1.427 . S
N928 C925 1.384 . S
N929 C921 1.427 . S
N929 C927 1.384 . S
H930 C936 0.930 . S
H931 C940 0.930 . S
H932 C945 0.929 . S
H933 C943 0.929 . S
H934 C938 0.929 . S
H935 C944 0.929 . S
C936 H930 0.930 . S
C936 C937 1.367 . S
C936 C944 1.378 . S
C937 C936 1.367 . S
C937 C945 1.433 . S
C938 H934 0.929 . S
C938 C940 1.378 . S
C938 C942 1.350 . S
C939 C942 1.463 . S
C939 C944 1.350 . S
C939 N947 1.427 . S
C940 H931 0.930 . S
C940 C938 1.378 . S
C940 C941 1.367 . S
C941 C940 1.367 . S
C941 C943 1.433 . S
C942 C938 1.350 . S
C942 C939 1.463 . S
C942 N946 1.427 . S
C943 H933 0.929 . S
C943 C941 1.433 . S
C943 N946 1.384 . S
C944 H935 0.929 . S
C944 C936 1.378 . S
C944 C939 1.350 . S
C945 H932 0.929 . S
C945 C937 1.433 . S
C945 N947 1.384 . S
N946 C942 1.427 . S
N946 C943 1.384 . S
N947 C939 1.427 . S
N947 C945 1.384 . S
H948 C954 0.930 . S
H949 C958 0.930 . S
H950 C963 0.929 . S
H951 C961 0.929 . S
H952 C956 0.929 . S
H953 C962 0.929 . S
C954 H948 0.930 . S
C954 C955 1.367 . S
C954 C962 1.378 . S
C955 C954 1.367 . S
C955 C963 1.433 . S
C956 H952 0.929 . S
C956 C958 1.378 . S
C956 C960 1.350 . S
C957 C960 1.463 . S
C957 C962 1.350 . S
C957 N965 1.427 . S
C958 H949 0.930 . S
C958 C956 1.378 . S
C958 C959 1.367 . S
C959 C958 1.367 . S
C959 C961 1.433 . S
C960 C956 1.350 . S
C960 C957 1.463 . S
C960 N964 1.427 . S
C961 H951 0.929 . S
C961 C959 1.433 . S
C961 N964 1.384 . S
C962 H953 0.929 . S
C962 C954 1.378 . S
C962 C957 1.350 . S
C963 H950 0.929 . S
C963 C955 1.433 . S
C963 N965 1.384 . S
N964 C960 1.427 . S
N964 C961 1.384 . S
N965 C957 1.427 . S
N965 C963 1.384 . S
H966 C972 0.930 . S
H967 C976 0.930 . S
H968 C981 0.929 . S
H969 C979 0.929 . S
H970 C974 0.929 . S
H971 C980 0.929 . S
C972 H966 0.930 . S
C972 C973 1.367 . S
C972 C980 1.378 . S
C973 C972 1.367 . S
C973 C981 1.433 . S
C974 H970 0.929 . S
C974 C976 1.378 . S
C974 C978 1.350 . S
C975 C978 1.463 . S
C975 C980 1.350 . S
C975 N983 1.427 . S
C976 H967 0.930 . S
C976 C974 1.378 . S
C976 C977 1.367 . S
C977 C976 1.367 . S
C977 C979 1.433 . S
C978 C974 1.350 . S
C978 C975 1.463 . S
C978 N982 1.427 . S
C979 H969 0.929 . S
C979 C977 1.433 . S
C979 N982 1.384 . S
C980 H971 0.929 . S
C980 C972 1.378 . S
C980 C975 1.350 . S
C981 H968 0.929 . S
C981 C973 1.433 . S
C981 N983 1.384 . S
N982 C978 1.427 . S
N982 C979 1.384 . S
N983 C975 1.427 . S
N983 C981 1.384 . S
H984 C990 0.930 . S
H985 C994 0.930 . S
H986 C999 0.929 . S
H987 C997 0.929 . S
H988 C992 0.929 . S
H989 C998 0.929 . S
C990 H984 0.930 . S
C990 C991 1.367 . S
C990 C998 1.378 . S
C991 C990 1.367 . S
C991 C999 1.433 . S
C992 H988 0.929 . S
C992 C994 1.378 . S
C992 C996 1.350 . S
C993 C996 1.463 . S
C993 C998 1.350 . S
C993 N1001 1.427 . S
C994 H985 0.930 . S
C994 C992 1.378 . S
C994 C995 1.367 . S
C995 C994 1.367 . S
C995 C997 1.433 . S
C996 C992 1.350 . S
C996 C993 1.463 . S
C996 N1000 1.427 . S
C997 H987 0.929 . S
C997 C995 1.433 . S
C997 N1000 1.384 . S
C998 H989 0.929 . S
C998 C990 1.378 . S
C998 C993 1.350 . S
C999 H986 0.929 . S
C999 C991 1.433 . S
C999 N1001 1.384 . S
N1000 C996 1.427 . S
N1000 C997 1.384 . S
N1001 C993 1.427 . S
N1001 C999 1.384 . S
H1002 C1008 0.930 . S
H1003 C1012 0.930 . S
H1004 C1017 0.929 . S
H1005 C1015 0.929 . S
H1006 C1010 0.929 . S
H1007 C1016 0.929 . S
C1008 H1002 0.930 . S
C1008 C1009 1.367 . S
C1008 C1016 1.378 . S
C1009 C1008 1.367 . S
C1009 C1017 1.433 . S
C1010 H1006 0.929 . S
C1010 C1012 1.378 . S
C1010 C1014 1.350 . S
C1011 C1014 1.463 . S
C1011 C1016 1.350 . S
C1011 N1019 1.427 . S
C1012 H1003 0.930 . S
C1012 C1010 1.378 . S
C1012 C1013 1.367 . S
C1013 C1012 1.367 . S
C1013 C1015 1.433 . S
C1014 C1010 1.350 . S
C1014 C1011 1.463 . S
C1014 N1018 1.427 . S
C1015 H1005 0.929 . S
C1015 C1013 1.433 . S
C1015 N1018 1.384 . S
C1016 H1007 0.929 . S
C1016 C1008 1.378 . S
C1016 C1011 1.350 . S
C1017 H1004 0.929 . S
C1017 C1009 1.433 . S
C1017 N1019 1.384 . S
N1018 C1014 1.427 . S
N1018 C1015 1.384 . S
N1019 C1011 1.427 . S
N1019 C1017 1.384 . S
H1020 C1026 0.930 . S
H1021 C1030 0.930 . S
H1022 C1035 0.929 . S
H1023 C1033 0.904 1_556 S
H1024 C1028 0.929 . S
H1025 C1034 0.929 . S
C1026 H1020 0.930 . S
C1026 C1027 1.367 . S
C1026 C1034 1.378 . S
C1027 C1026 1.367 . S
C1027 C1035 1.433 . S
C1028 H1024 0.929 . S
C1028 C1030 1.378 . S
C1028 C1032 1.350 . S
C1029 C1032 1.463 1_455 S
C1029 C1034 1.350 . S
C1029 N1037 1.427 . S
C1030 H1021 0.930 . S
C1030 C1028 1.378 . S
C1030 C1031 1.367 . S
C1031 C1030 1.367 . S
C1031 C1033 1.433 . S
C1032 C1028 1.350 . S
C1032 C1029 1.463 1_655 S
C1032 N1036 1.427 . S
C1033 H1023 0.904 1_554 S
C1033 C1031 1.433 . S
C1033 N1036 1.384 . S
C1034 H1025 0.929 . S
C1034 C1026 1.378 . S
C1034 C1029 1.350 . S
C1035 H1022 0.929 . S
C1035 C1027 1.433 . S
C1035 N1037 1.384 . S
N1036 C1032 1.427 . S
N1036 C1033 1.384 . S
N1037 C1029 1.427 . S
N1037 C1035 1.384 . S
H1038 C1044 0.930 . S
H1039 C1048 0.930 . S
H1040 C1053 0.929 . S
H1041 C1051 0.929 . S
H1042 C1046 0.929 . S
H1043 C1052 0.929 . S
C1044 H1038 0.930 . S
C1044 C1045 1.367 . S
C1044 C1052 1.378 . S
C1045 C1044 1.367 . S
C1045 C1053 1.433 . S
C1046 H1042 0.929 . S
C1046 C1048 1.378 . S
C1046 C1050 1.350 . S
C1047 C1050 1.463 . S
C1047 C1052 1.350 . S
C1047 N1055 1.427 . S
C1048 H1039 0.930 . S
C1048 C1046 1.378 . S
C1048 C1049 1.367 . S
C1049 C1048 1.367 . S
C1049 C1051 1.433 . S
C1050 C1046 1.350 . S
C1050 C1047 1.463 . S
C1050 N1054 1.427 . S
C1051 H1041 0.929 . S
C1051 C1049 1.433 . S
C1051 N1054 1.384 . S
C1052 H1043 0.929 . S
C1052 C1044 1.378 . S
C1052 C1047 1.350 . S
C1053 H1040 0.929 . S
C1053 C1045 1.433 . S
C1053 N1055 1.384 . S
N1054 C1050 1.427 . S
N1054 C1051 1.384 . S
N1055 C1047 1.427 . S
N1055 C1053 1.384 . S
H1056 C1062 0.930 . S
H1057 C1066 0.930 . S
H1058 C1071 0.929 . S
H1059 C1069 0.929 . S
H1060 C1064 0.929 . S
H1061 C1070 0.929 . S
C1062 H1056 0.930 . S
C1062 C1063 1.367 . S
C1062 C1070 1.378 . S
C1063 C1062 1.367 . S
C1063 C1071 1.433 . S
C1064 H1060 0.929 . S
C1064 C1066 1.378 . S
C1064 C1068 1.350 . S
C1065 C1068 1.463 . S
C1065 C1070 1.350 . S
C1065 N1073 1.427 . S
C1066 H1057 0.930 . S
C1066 C1064 1.378 . S
C1066 C1067 1.367 . S
C1067 C1066 1.367 . S
C1067 C1069 1.433 . S
C1068 C1064 1.350 . S
C1068 C1065 1.463 . S
C1068 N1072 1.427 . S
C1069 H1059 0.929 . S
C1069 C1067 1.433 . S
C1069 N1072 1.384 . S
C1070 H1061 0.929 . S
C1070 C1062 1.378 . S
C1070 C1065 1.350 . S
C1071 H1058 0.929 . S
C1071 C1063 1.433 . S
C1071 N1073 1.384 . S
N1072 C1068 1.427 . S
N1072 C1069 1.384 . S
N1073 C1065 1.427 . S
N1073 C1071 1.384 . S
H1074 C1080 0.930 . S
H1075 C1084 0.930 . S
H1076 C1089 0.929 . S
H1077 C1087 0.929 . S
H1078 C1082 0.929 . S
H1079 C1088 0.929 . S
C1080 H1074 0.930 . S
C1080 C1081 1.367 . S
C1080 C1088 1.378 . S
C1081 C1080 1.367 . S
C1081 C1089 1.433 . S
C1082 H1078 0.929 . S
C1082 C1084 1.378 . S
C1082 C1086 1.350 . S
C1083 C1086 1.463 . S
C1083 C1088 1.350 . S
C1083 N1091 1.427 . S
C1084 H1075 0.930 . S
C1084 C1082 1.378 . S
C1084 C1085 1.367 . S
C1085 C1084 1.367 . S
C1085 C1087 1.433 . S
C1086 C1082 1.350 . S
C1086 C1083 1.463 . S
C1086 N1090 1.427 . S
C1087 H1077 0.929 . S
C1087 C1085 1.433 . S
C1087 N1090 1.384 . S
C1088 H1079 0.929 . S
C1088 C1080 1.378 . S
C1088 C1083 1.350 . S
C1089 H1076 0.929 . S
C1089 C1081 1.433 . S
C1089 N1091 1.384 . S
N1090 C1086 1.427 . S
N1090 C1087 1.384 . S
N1091 C1083 1.427 . S
N1091 C1089 1.384 . S
H1092 C1098 0.930 . S
H1093 C1102 0.930 . S
H1094 C1107 0.929 . S
H1095 C1105 0.929 . S
H1096 C1100 0.929 . S
H1097 C1106 0.929 . S
C1098 H1092 0.930 . S
C1098 C1099 1.367 . S
C1098 C1106 1.378 . S
C1099 C1098 1.367 . S
C1099 C1107 1.433 . S
C1100 H1096 0.929 . S
C1100 C1102 1.378 . S
C1100 C1104 1.350 . S
C1101 C1104 1.463 . S
C1101 C1106 1.350 . S
C1101 N1109 1.427 . S
C1102 H1093 0.930 . S
C1102 C1100 1.378 . S
C1102 C1103 1.367 . S
C1103 C1102 1.367 . S
C1103 C1105 1.433 . S
C1104 C1100 1.350 . S
C1104 C1101 1.463 . S
C1104 N1108 1.427 . S
C1105 H1095 0.929 . S
C1105 C1103 1.433 . S
C1105 N1108 1.384 . S
C1106 H1097 0.929 . S
C1106 C1098 1.378 . S
C1106 C1101 1.350 . S
C1107 H1094 0.929 . S
C1107 C1099 1.433 . S
C1107 N1109 1.384 . S
N1108 C1104 1.427 . S
N1108 C1105 1.384 . S
N1109 C1101 1.427 . S
N1109 C1107 1.384 . S
H1110 C1116 0.930 . S
H1111 C1120 0.930 . S
H1112 C1125 0.929 . S
H1113 C1123 0.929 . S
H1114 C1118 0.929 . S
H1115 C1124 0.929 . S
C1116 H1110 0.930 . S
C1116 C1117 1.367 . S
C1116 C1124 1.378 . S
C1117 C1116 1.367 . S
C1117 C1125 1.433 . S
C1118 H1114 0.929 . S
C1118 C1120 1.378 1_655 S
C1118 C1122 1.350 . S
C1119 C1122 1.463 . S
C1119 C1124 1.350 . S
C1119 N1127 1.427 . S
C1120 H1111 0.930 . S
C1120 C1118 1.378 1_455 S
C1120 C1121 1.367 . S
C1121 C1120 1.367 . S
C1121 C1123 1.433 . S
C1122 C1118 1.350 . S
C1122 C1119 1.463 . S
C1122 N1126 1.427 1_655 S
C1123 H1113 0.929 . S
C1123 C1121 1.433 . S
C1123 N1126 1.384 . S
C1124 H1115 0.929 . S
C1124 C1116 1.378 . S
C1124 C1119 1.350 . S
C1125 H1112 0.929 . S
C1125 C1117 1.433 . S
C1125 N1127 1.384 . S
N1126 C1122 1.427 1_455 S
N1126 C1123 1.384 . S
N1127 C1119 1.427 . S
N1127 C1125 1.384 . S
C487 C18 1.063 . S
C491 C458 1.059 . S
C505 C379 1.654 . S
C509 C58 1.746 . S
C523 C99 1.252 . S
C527 C338 1.334 . S
C541 C138 2.038 . S
C545 C418 2.034 . S
C559 C178 1.667 . S
C563 C419 1.586 . S
C577 C219 1.438 . S
C581 C459 1.456 . S
C595 C378 1.820 . S
C599 C258 1.814 . S
C613 C299 1.662 . S
C617 C339 1.713 . S
C631 C139 1.710 . S
C635 C179 1.768 . S
C649 C19 1.548 . S
C653 C218 1.643 . S
C667 C59 1.602 . S
C671 C259 1.593 . S
C685 C298 1.891 . S
C689 C98 1.891 . S
C703 C6 1.594 . S
C707 C329 1.475 . S
C721 C46 1.815 . S
C725 C409 1.724 . S
C739 C449 1.928 . S
C743 C95 1.962 . S
C757 C126 1.552 . S
C761 C370 1.519 . S
C775 C166 1.231 . S
C779 C369 1.182 . S
C793 C330 1.939 . S
C797 C215 1.849 . S
C811 C410 1.343 . S
C815 C246 1.360 . S
C829 C450 2.649 . S
C833 C295 2.554 . S
C847 C10 2.736 . S
C851 C135 2.630 . S
C865 C15 1.973 . S
C869 C50 2.044 . S
C883 C55 2.273 . S
C887 C89 2.237 . S
C901 C130 1.678 . S
C905 C86 1.717 . S
C919 C206 1.458 . S
C923 C170 1.431 . S
C937 C209 1.297 . S
C941 C255 1.346 . S
C955 C250 1.457 . S
C959 C286 1.485 . S
C973 C175 0.851 . S
C977 C289 0.836 . S
C991 C335 0.802 . S
C995 C129 0.788 . S
C1009 C210 1.660 . S
C1013 C375 1.618 . S
C1027 C326 1.371 . S
C1031 C249 1.298 . S
C1045 C406 1.809 . S
C1049 C290 1.786 . S
C1063 C169 1.244 . S
C1067 C446 1.327 . S
C1081 C455 1.677 . S
C1085 C49 1.622 . S
C1099 C90 1.500 . S
C1103 C366 1.527 . S
C1117 C415 1.752 . S
C1121 C9 1.714 . S
