# Generated by pormake.
# Topology unf, (4)-cn, num edge types: 1
# Building blocks:
#     Node 0, Type 0, BuildingBlock: NAHDIM_clean_sbu_0, # of connection points: 4
#     Node 1, Type 0, BuildingBlock: NAHDIM_clean_sbu_0, # of connection points: 4
#     Node 2, Type 0, BuildingBlock: NAHDIM_clean_sbu_0, # of connection points: 4
#     Node 3, Type 0, BuildingBlock: NAHDIM_clean_sbu_0, # of connection points: 4
#     Node 4, Type 0, BuildingBlock: NAHDIM_clean_sbu_0, # of connection points: 4
#     Node 5, Type 0, BuildingBlock: NAHDIM_clean_sbu_0, # of connection points: 4
#     Node 6, Type 0, BuildingBlock: NAHDIM_clean_sbu_0, # of connection points: 4
#     Node 7, Type 0, BuildingBlock: NAHDIM_clean_sbu_0, # of connection points: 4
#     Node 8, Type 0, BuildingBlock: NAHDIM_clean_sbu_0, # of connection points: 4
#     Node 9, Type 0, BuildingBlock: NAHDIM_clean_sbu_0, # of connection points: 4
#     Node 10, Type 0, BuildingBlock: NAHDIM_clean_sbu_0, # of connection points: 4
#     Node 11, Type 0, BuildingBlock: NAHDIM_clean_sbu_0, # of connection points: 4
#     Edge 12, Type (0, 0), BuildingBlock: TEMPAE_clean_linker_10, # of connection points: 2
#     Edge 13, Type (0, 0), BuildingBlock: TEMPAE_clean_linker_10, # of connection points: 2
#     Edge 14, Type (0, 0), BuildingBlock: TEMPAE_clean_linker_10, # of connection points: 2
#     Edge 15, Type (0, 0), BuildingBlock: TEMPAE_clean_linker_10, # of connection points: 2
#     Edge 16, Type (0, 0), BuildingBlock: TEMPAE_clean_linker_10, # of connection points: 2
#     Edge 17, Type (0, 0), BuildingBlock: TEMPAE_clean_linker_10, # of connection points: 2
#     Edge 18, Type (0, 0), BuildingBlock: TEMPAE_clean_linker_10, # of connection points: 2
#     Edge 19, Type (0, 0), BuildingBlock: TEMPAE_clean_linker_10, # of connection points: 2
#     Edge 20, Type (0, 0), BuildingBlock: TEMPAE_clean_linker_10, # of connection points: 2
#     Edge 21, Type (0, 0), BuildingBlock: TEMPAE_clean_linker_10, # of connection points: 2
#     Edge 22, Type (0, 0), BuildingBlock: TEMPAE_clean_linker_10, # of connection points: 2
#     Edge 23, Type (0, 0), BuildingBlock: TEMPAE_clean_linker_10, # of connection points: 2
#     Edge 24, Type (0, 0), BuildingBlock: TEMPAE_clean_linker_10, # of connection points: 2
#     Edge 25, Type (0, 0), BuildingBlock: TEMPAE_clean_linker_10, # of connection points: 2
#     Edge 26, Type (0, 0), BuildingBlock: TEMPAE_clean_linker_10, # of connection points: 2
#     Edge 27, Type (0, 0), BuildingBlock: TEMPAE_clean_linker_10, # of connection points: 2
#     Edge 28, Type (0, 0), BuildingBlock: TEMPAE_clean_linker_10, # of connection points: 2
#     Edge 29, Type (0, 0), BuildingBlock: TEMPAE_clean_linker_10, # of connection points: 2
#     Edge 30, Type (0, 0), BuildingBlock: TEMPAE_clean_linker_10, # of connection points: 2
#     Edge 31, Type (0, 0), BuildingBlock: TEMPAE_clean_linker_10, # of connection points: 2
#     Edge 32, Type (0, 0), BuildingBlock: TEMPAE_clean_linker_10, # of connection points: 2
#     Edge 33, Type (0, 0), BuildingBlock: TEMPAE_clean_linker_10, # of connection points: 2
#     Edge 34, Type (0, 0), BuildingBlock: TEMPAE_clean_linker_10, # of connection points: 2
#     Edge 35, Type (0, 0), BuildingBlock: TEMPAE_clean_linker_10, # of connection points: 2
# Relax obj value: 0.235
# Max RMSD: 0.178
# Mean RMSD: 0.178
data_MOF--net-unf--node1-NAHDIM_clean_sbu_0--edge1-TEMPAE_clean_linker_10
_symmetry_space_group_name_H-M    P1
_symmetry_Int_Tables_number       1
_symmetry_cell_setting            triclinic
loop_
_symmetry_equiv_pos_as_xyz
'x, y, z'
_cell_length_a     37.461053
_cell_length_b     37.468672
_cell_length_c     38.224272
_cell_angle_alpha  90.021728
_cell_angle_beta   89.911804
_cell_angle_gamma 119.98534
loop_
_atom_site_label
_atom_site_type_symbol
_atom_site_fract_x
_atom_site_fract_y
_atom_site_fract_z
_atom_type_partial_charge
C0 C 0.11365 0.3474 0.13826 0.0
O1 O 0.13274 0.36745 0.10975 0.0
O2 O 0.02524 0.35197 0.08355 0.0
Zn3 Zn 0.04661 0.31297 0.09063 0.0
O4 O 0.08685 0.32235 0.05231 0.0
C5 C 0.96335 0.24534 0.09378 0.0
O6 O 0.95703 0.27224 0.11067 0.0
O7 O 0.07517 0.32181 0.13697 0.0
C8 C 0.07962 0.32518 0.02027 0.0
O9 O 0.04417 0.32172 0.01133 0.0
C10 C 0.04954 0.3893 0.0753 0.0
O11 O 0.0893 0.40278 0.0736 0.0
O12 O -0.00017 0.25537 0.08481 0.0
C13 C 0.62495 0.73024 0.14444 0.0
O14 O 0.61382 0.69109 0.14735 0.0
O15 O 0.58285 0.66072 0.06921 0.0
Zn16 Zn 0.63236 0.71768 0.07011 0.0
O17 O 0.62909 0.75078 0.03031 0.0
C18 C 0.67978 0.68203 0.04669 0.0
O19 O 0.64269 0.65233 0.03844 0.0
O20 O 0.63473 0.74731 0.11456 0.0
C21 C 0.62657 0.7401 0.99843 0.0
O22 O 0.62505 0.70523 0.99059 0.0
C23 C 0.5491 0.65244 0.0547 0.0
O24 O 0.54429 0.68276 0.04306 0.0
O25 O 0.68367 0.71376 0.06234 0.0
C26 C 0.29047 0.92914 0.14744 0.0
O27 O 0.29572 0.96568 0.13996 0.0
O28 O 0.36713 0.95353 0.06033 0.0
Zn29 Zn 0.30775 0.92812 0.07371 0.0
O30 O 0.27293 0.87912 0.0432 0.0
C31 C 0.28885 0.97963 0.033 0.0
O32 O 0.29281 0.95755 0.00825 0.0
O33 O 0.29616 0.90881 0.12365 0.0
C34 C 0.28326 0.87155 0.01361 0.0
O35 O 0.31997 0.89686 0.00078 0.0
C36 C 0.38871 0.93608 0.05973 0.0
O37 O 0.37261 0.8979 0.07079 0.0
O38 O 0.29253 0.97183 0.06471 0.0
C39 C 0.60875 0.88566 0.35383 0.0
O40 O 0.57251 0.87441 0.36766 0.0
O41 O 0.58908 0.94178 0.42305 0.0
Zn42 Zn 0.63817 0.93413 0.41693 0.0
O43 O 0.63541 0.89505 0.45412 0.0
C44 C 0.68715 0.00327 0.45669 0.0
O45 O 0.65434 0.98246 0.47643 0.0
O46 O 0.64104 0.91219 0.36959 0.0
C47 C 0.64858 0.87011 0.44937 0.0
O48 O 0.66471 0.86953 0.41899 0.0
C49 C 0.55721 0.91465 0.439 0.0
O50 O 0.55468 0.87942 0.44722 0.0
O51 O 0.68848 0.98852 0.42709 0.0
C52 C 0.12916 0.78793 0.36441 0.0
O53 O 0.14655 0.78946 0.39462 0.0
O54 O 0.04564 0.69685 0.42283 0.0
Zn55 Zn 0.05794 0.75336 0.40801 0.0
O56 O 0.08984 0.79244 0.44657 0.0
C57 C 0.97124 0.72007 0.39729 0.0
O58 O 0.97347 0.68832 0.38545 0.0
O59 O 0.09025 0.77239 0.36316 0.0
C60 C 0.07466 0.78593 0.47723 0.0
O61 O 0.03806 0.75374 0.48288 0.0
C62 C 0.06993 0.69159 0.44251 0.0
O63 O 0.10594 0.72338 0.45046 0.0
O64 O 0.00428 0.75266 0.40552 0.0
C65 C 0.26923 0.37304 0.36012 0.0
O66 O 0.27435 0.40031 0.38412 0.0
O67 O 0.35516 0.38088 0.42523 0.0
Zn68 Zn 0.29518 0.34294 0.41665 0.0
O69 O 0.26254 0.35707 0.44948 0.0
C70 C 0.31274 0.27809 0.42252 0.0
O71 O 0.34446 0.30389 0.40348 0.0
O72 O 0.27794 0.34521 0.36751 0.0
C73 C 0.26832 0.35983 0.48234 0.0
O74 O 0.29704 0.35352 0.49561 0.0
C75 C 0.37182 0.41847 0.43404 0.0
O76 O 0.34959 0.43665 0.43471 0.0
O77 O 0.28471 0.28673 0.42932 0.0
C78 C 0.87815 0.5707 0.86255 0.0
O79 O 0.86076 0.55365 0.89253 0.0
O80 O 0.94734 0.56632 0.93144 0.0
Zn81 Zn 0.9457 0.61329 0.90799 0.0
O82 O 0.91481 0.632 0.93876 0.0
C83 C 0.0331 0.6522 0.89827 0.0
O84 O 0.02448 0.6139 0.89405 0.0
O85 O 0.91646 0.59683 0.86199 0.0
C86 C 0.90454 0.65737 0.92727 0.0
O87 O 0.91523 0.67181 0.89532 0.0
C88 C 0.95337 0.56898 0.96428 0.0
O89 O 0.95602 0.60077 0.98114 0.0
O90 O 0.00379 0.65958 0.90284 0.0
C91 C 0.41599 0.29518 0.85532 0.0
O92 O 0.4315 0.29786 0.88666 0.0
O93 O 0.39925 0.36556 0.91905 0.0
Zn94 Zn 0.36225 0.31183 0.89511 0.0
O95 O 0.3512 0.26542 0.92788 0.0
C96 C 0.30652 0.34156 0.8783 0.0
O97 O 0.34075 0.37674 0.87341 0.0
O98 O 0.38681 0.30292 0.85166 0.0
C99 C 0.31649 0.24221 0.94226 0.0
O100 O 0.28588 0.24916 0.93683 0.0
C101 C 0.38501 0.37192 0.94712 0.0
O102 O 0.34885 0.34317 0.95856 0.0
O103 O 0.30869 0.3095 0.88503 0.0
C104 C 0.72438 0.12806 0.82777 0.0
O105 O 0.72019 0.13968 0.85921 0.0
O106 O 0.64902 0.04488 0.88895 0.0
Zn107 Zn 0.70099 0.05413 0.86509 0.0
O108 O 0.7471 0.08029 0.89973 0.0
C109 C 0.65842 0.96777 0.84877 0.0
O110 O 0.62688 0.97366 0.84508 0.0
O111 O 0.71603 0.09107 0.82314 0.0
C112 C 0.74721 0.06059 0.92676 0.0
O113 O 0.71733 0.02241 0.93119 0.0
C114 C 0.64988 0.06293 0.91738 0.0
O115 O 0.68542 0.09181 0.92964 0.0
O116 O 0.69395 -0.00127 0.85398 0.0
C117 C 0.41931 0.1086 0.67138 0.0
O118 O 0.43938 0.12108 0.64159 0.0
O119 O 0.40205 0.02374 0.60561 0.0
Zn120 Zn 0.36444 0.04017 0.62892 0.0
O121 O 0.35406 0.07369 0.59362 0.0
C122 C 0.27733 0.99003 0.6399 0.0
O123 O 0.27969 0.02601 0.64357 0.0
O124 O 0.38718 0.07319 0.67284 0.0
C125 C 0.34849 0.10359 0.60103 0.0
O126 O 0.34985 0.1147 0.63382 0.0
C127 C 0.3879 0.00555 0.57654 0.0
O128 O 0.35194 -0.00052 0.56591 0.0
O129 O 0.3104 0.9887 0.63682 0.0
C130 C 0.8881 0.32307 0.63576 0.0
O131 O 0.87031 0.32339 0.60625 0.0
O132 O 0.96673 0.39717 0.56546 0.0
Zn133 Zn 0.95463 0.34457 0.58904 0.0
O134 O 0.91742 0.29738 0.55803 0.0
C135 C 0.04171 0.3758 0.601 0.0
O136 O 0.04249 0.41043 0.6084 0.0
O137 O 0.92626 0.33446 0.63549 0.0
C138 C 0.91478 0.26265 0.56322 0.0
O139 O 0.93716 0.25928 0.58803 0.0
C140 C 0.96767 0.42829 0.57956 0.0
O141 O 0.95853 0.42708 0.6129 0.0
O142 O 0.00757 0.34405 0.59352 0.0
C143 C 0.71379 0.5781 0.65903 0.0
O144 O 0.70903 0.55774 0.6298 0.0
O145 O 0.63808 0.57457 0.59334 0.0
Zn146 Zn 0.68889 0.62198 0.61443 0.0
O147 O 0.73533 0.64071 0.58006 0.0
C148 C 0.6433 0.66493 0.61633 0.0
O149 O 0.61138 0.62741 0.61638 0.0
O150 O 0.70542 0.60704 0.65939 0.0
C151 C 0.7338 0.6574 0.55155 0.0
O152 O 0.70188 0.6621 0.54541 0.0
C153 C 0.63924 0.55672 0.56544 0.0
O154 O 0.67503 0.56564 0.55198 0.0
O155 O 0.67921 0.66974 0.61943 0.0
C156 C 0.10272 0.33212 0.95773 0.0
C157 C 0.11069 0.33123 0.99349 0.0
C158 C 0.13163 0.33603 0.93231 0.0
C159 C 0.16911 0.33891 0.94305 0.0
C160 C 0.17768 0.33908 0.97914 0.0
C161 C 0.14843 0.3353 0.00386 0.0
C162 C 0.12167 0.33607 0.89408 0.0
C163 C 0.21741 0.34223 0.99172 0.0
C164 C 0.23144 0.30325 0.89202 0.0
C165 C 0.26736 0.34088 0.8853 0.0
C166 C 0.19718 0.30213 0.90789 0.0
C167 C 0.19895 0.33956 0.91711 0.0
C168 C 0.23325 0.37755 0.9068 0.0
C169 C 0.26716 0.37778 0.89093 0.0
C170 C 0.16099 0.26093 0.9181 0.0
C171 C 0.236 0.4181 0.91568 0.0
H172 H 0.07369 0.32918 0.94954 0.0
H173 H 0.155 0.33495 0.03142 0.0
H174 H 0.14766 0.36235 0.8804 0.0
H175 H 0.11723 0.30743 0.88154 0.0
H176 H 0.09329 0.33797 0.89016 0.0
H177 H 0.2198 0.34318 0.02071 0.0
H178 H 0.21958 0.31541 0.98216 0.0
H179 H 0.24423 0.37041 0.98101 0.0
H180 H 0.23109 0.27456 0.88717 0.0
H181 H 0.29462 0.40701 0.88545 0.0
H182 H 0.13146 0.25991 0.91254 0.0
H183 H 0.16214 0.25619 0.94665 0.0
H184 H 0.16127 0.23505 0.90414 0.0
H185 H 0.206 0.41661 0.91141 0.0
H186 H 0.26001 0.44384 0.89991 0.0
H187 H 0.24398 0.42509 0.94375 0.0
C188 C 0.62993 0.80535 0.97952 0.0
C189 C 0.62712 0.76775 0.97056 0.0
C190 C 0.63281 0.83317 0.95374 0.0
C191 C 0.6327 0.82314 0.918 0.0
C192 C 0.62872 0.78477 0.90864 0.0
C193 C 0.62607 0.7575 0.9351 0.0
C194 C 0.63695 0.8738 0.96487 0.0
C195 C 0.62823 0.773 0.87081 0.0
C196 C 0.61134 0.8932 0.86206 0.0
C197 C 0.65148 0.92613 0.85683 0.0
C198 C 0.60452 0.85715 0.87909 0.0
C199 C 0.63867 0.85414 0.89101 0.0
C200 C 0.67913 0.88526 0.8822 0.0
C201 C 0.68506 0.92089 0.8651 0.0
C202 C 0.56087 0.82427 0.88742 0.0
C203 C 0.7164 0.88304 0.89407 0.0
H204 H 0.63057 0.81347 0.00682 0.0
H205 H 0.62377 0.72842 0.92796 0.0
H206 H 0.66678 0.89962 0.9555 0.0
H207 H 0.61209 0.87762 0.95293 0.0
H208 H 0.63545 0.87636 0.99373 0.0
H209 H 0.62072 0.74047 0.86786 0.0
H210 H 0.60543 0.77751 0.85584 0.0
H211 H 0.65888 0.79326 0.85888 0.0
H212 H 0.58516 0.8967 0.8553 0.0
H213 H 0.7162 0.9459 0.8606 0.0
H214 H 0.55395 0.82734 0.91514 0.0
H215 H 0.55683 0.79305 0.8841 0.0
H216 H 0.53816 0.82699 0.87064 0.0
H217 H 0.72094 0.88949 0.92256 0.0
H218 H 0.74488 0.90583 0.88025 0.0
H219 H 0.7119 0.85179 0.88975 0.0
C220 C 0.25793 0.83464 0.95643 0.0
C221 C 0.25229 0.83683 0.9925 0.0
C222 C 0.22648 0.8042 0.93572 0.0
C223 C 0.18879 0.77536 0.95161 0.0
C224 C 0.18381 0.77625 0.98826 0.0
C225 C 0.21556 0.80702 0.00822 0.0
C226 C 0.23288 0.80409 0.89674 0.0
C227 C 0.14423 0.7457 0.0063 0.0
C228 C 0.0852 0.72629 0.90715 0.0
C229 C 0.07601 0.68525 0.90443 0.0
C230 C 0.12347 0.75688 0.9198 0.0
C231 C 0.15308 0.74604 0.93016 0.0
C232 C 0.14531 0.70542 0.92467 0.0
C233 C 0.1068 0.67544 0.91173 0.0
C234 C 0.13085 0.80004 0.92474 0.0
C235 C 0.17623 0.69275 0.93516 0.0
H236 H 0.2863 0.85759 0.94413 0.0
H237 H 0.21118 0.80824 0.03614 0.0
H238 H 0.22311 0.77249 0.88741 0.0
H239 H 0.21356 0.81448 0.88307 0.0
H240 H 0.26555 0.82481 0.88914 0.0
H241 H 0.14635 0.74898 0.03523 0.0
H242 H 0.11864 0.7502 0.9972 0.0
H243 H 0.13615 0.71374 -0.0005 0.0
H244 H 0.06174 0.7342 0.90103 0.0
H245 H 0.10004 0.64383 0.90945 0.0
H246 H 0.16183 0.82309 0.91495 0.0
H247 H 0.12974 0.80601 0.95305 0.0
H248 H 0.10738 0.80477 0.91107 0.0
H249 H 0.2078 0.7163 0.92702 0.0
H250 H 0.16882 0.6626 0.92363 0.0
H251 H 0.17628 0.69009 0.96407 0.0
C252 C 0.60263 0.69157 0.5856 0.0
C253 C 0.63906 0.69949 0.60256 0.0
C254 C 0.60162 0.72154 0.56435 0.0
C255 C 0.63774 0.76037 0.56039 0.0
C256 C 0.67326 0.7699 0.58024 0.0
C257 C 0.67354 0.73926 0.60106 0.0
C258 C 0.56306 0.71027 0.54372 0.0
C259 C 0.71215 0.81125 0.57722 0.0
C260 C 0.65646 0.81184 0.4717 0.0
C261 C 0.64567 0.8421 0.47786 0.0
C262 C 0.65379 0.78499 0.49839 0.0
C263 C 0.64021 0.78866 0.53212 0.0
C264 C 0.62934 0.81917 0.53858 0.0
C265 C 0.63208 0.84549 0.51131 0.0
C266 C 0.66548 0.75263 0.49046 0.0
C267 C 0.61504 0.82411 0.57428 0.0
H268 H 0.57575 0.661 0.58678 0.0
H269 H 0.70164 0.74577 0.61446 0.0
H270 H 0.5557 0.73548 0.54467 0.0
H271 H 0.56815 0.70562 0.51588 0.0
H272 H 0.53606 0.68151 0.55353 0.0
H273 H 0.73456 0.81601 0.59823 0.0
H274 H 0.72701 0.81333 0.55158 0.0
H275 H 0.705 0.83661 0.57832 0.0
H276 H 0.66687 0.80896 0.44593 0.0
H277 H 0.62375 0.86889 0.51628 0.0
H278 H 0.63906 0.72149 0.49605 0.0
H279 H 0.69131 0.75711 0.50757 0.0
H280 H 0.67495 0.75355 0.46277 0.0
H281 H 0.58728 0.79498 0.58225 0.0
H282 H 0.60758 0.84932 0.57495 0.0
H283 H 0.63931 0.83076 0.59397 0.0
C284 C 0.08413 0.80447 0.54088 0.0
C285 C 0.09869 0.81346 0.50631 0.0
C286 C 0.1076 0.82984 0.56869 0.0
C287 C 0.14638 0.86491 0.56162 0.0
C288 C 0.16086 0.87444 0.52672 0.0
C289 C 0.13688 0.84858 0.49954 0.0
C290 C 0.09131 0.81878 0.60559 0.0
C291 C 0.20206 0.91171 0.51806 0.0
C292 C 0.20466 0.95833 0.61906 0.0
C293 C 0.23805 0.95365 0.62924 0.0
C294 C 0.17208 0.92764 0.59955 0.0
C295 C 0.17295 0.89149 0.59037 0.0
C296 C 0.20408 0.88463 0.60409 0.0
C297 C 0.23633 0.91586 0.62339 0.0
C298 C 0.13916 0.93589 0.58575 0.0
C299 C 0.20576 0.84618 0.59536 0.0
H300 H 0.05462 0.77734 0.54629 0.0
H301 H 0.14828 0.85582 0.47291 0.0
H302 H 0.11173 0.81139 0.62119 0.0
H303 H 0.09136 0.84539 0.61839 0.0
H304 H 0.05952 0.79191 0.60645 0.0
H305 H 0.2083 0.91528 0.48948 0.0
H306 H 0.2032 0.94007 0.52803 0.0
H307 H 0.22714 0.90915 0.53108 0.0
H308 H 0.20548 0.98725 0.62381 0.0
H309 H 0.2617 0.91174 0.63172 0.0
H310 H 0.10833 0.90778 0.58717 0.0
H311 H 0.14556 0.9451 0.55783 0.0
H312 H 0.13826 0.96106 0.60039 0.0
H313 H 0.17475 0.81841 0.59739 0.0
H314 H 0.22723 0.84223 0.6128 0.0
H315 H 0.21648 0.84817 0.56797 0.0
C316 C 0.07884 0.33793 0.58684 0.0
C317 C 0.08041 0.37518 0.59503 0.0
C318 C 0.11365 0.33744 0.57411 0.0
C319 C 0.15094 0.37511 0.56957 0.0
C320 C 0.15374 0.41243 0.58081 0.0
C321 C 0.11833 0.41204 0.59343 0.0
C322 C 0.10947 0.29691 0.56272 0.0
C323 C 0.19316 0.45313 0.57687 0.0
C324 C 0.24342 0.36588 0.54181 0.0
C325 C 0.24111 0.36762 0.50526 0.0
C326 C 0.21531 0.37001 0.56343 0.0
C327 C 0.18427 0.37582 0.54801 0.0
C328 C 0.18292 0.37925 0.51122 0.0
C329 C 0.21136 0.37517 0.49033 0.0
C330 C 0.21788 0.36658 0.60257 0.0
C331 C 0.15035 0.38561 0.49373 0.0
H332 H 0.04979 0.30922 0.58856 0.0
H333 H 0.11991 0.44093 0.60007 0.0
H334 H 0.1099 0.29573 0.53371 0.0
H335 H 0.13573 0.29393 0.57244 0.0
H336 H 0.08032 0.27011 0.57218 0.0
H337 H 0.19259 0.47783 0.59253 0.0
H338 H 0.22013 0.45041 0.58495 0.0
H339 H 0.19756 0.46254 0.54896 0.0
H340 H 0.26649 0.36028 0.55353 0.0
H341 H 0.20961 0.37697 0.46214 0.0
H342 H 0.19148 0.33704 0.61173 0.0
H343 H 0.21583 0.39177 0.61599 0.0
H344 H 0.24688 0.36765 0.61063 0.0
H345 H 0.11941 0.35861 0.49879 0.0
H346 H 0.15491 0.38975 0.46497 0.0
H347 H 0.15055 0.41309 0.50478 0.0
C348 C 0.71073 0.64567 0.01542 0.0
C349 C 0.71625 0.68013 0.03435 0.0
C350 C 0.74429 0.64455 0.00046 0.0
C351 C 0.78446 0.67863 0.00469 0.0
C352 C 0.79053 0.71295 0.02481 0.0
C353 C 0.75627 0.71335 0.03938 0.0
C354 C 0.73653 0.60734 0.97918 0.0
C355 C 0.83302 0.74964 0.0301 0.0
C356 C 0.86907 0.65466 0.98348 0.0
C357 C 0.87765 0.66737 0.94845 0.0
C358 C 0.8404 0.66025 0.00284 0.0
C359 C 0.81959 0.6786 0.98666 0.0
C360 C 0.8295 0.69319 0.95183 0.0
C361 C 0.85857 0.68755 0.93318 0.0
C362 C 0.83099 0.64474 0.04006 0.0
C363 C 0.80781 0.71278 0.93363 0.0
H364 H 0.67997 0.61978 0.01149 0.0
H365 H 0.76078 0.74006 0.05403 0.0
H366 H 0.7462 0.61665 0.95166 0.0
H367 H 0.75517 0.59418 0.98948 0.0
H368 H 0.70357 0.58286 0.97935 0.0
H369 H 0.83288 0.77243 0.04862 0.0
H370 H 0.8543 0.73951 0.04016 0.0
H371 H 0.84555 0.76517 0.00466 0.0
H372 H 0.88403 0.63942 0.99557 0.0
H373 H 0.86513 0.69757 0.90616 0.0
H374 H 0.79954 0.61748 0.04144 0.0
H375 H 0.83155 0.66865 0.05754 0.0
H376 H 0.85319 0.63574 0.0501 0.0
H377 H 0.77484 0.68943 0.92988 0.0
H378 H 0.82154 0.72565 0.90765 0.0
H379 H 0.80898 0.73783 0.94994 0.0
C380 C 0.34291 0.1989 0.96849 0.0
C381 C 0.30976 0.2054 0.96199 0.0
C382 C 0.33657 0.16218 0.98373 0.0
C383 C 0.29608 0.13115 0.9926 0.0
C384 C 0.26272 0.13827 0.98768 0.0
C385 C 0.26997 0.17541 0.97245 0.0
C386 C 0.37302 0.15584 0.98878 0.0
C387 C 0.21915 0.1059 0.99691 0.0
C388 C 0.28076 0.02356 0.98843 0.0
C389 C 0.28519 0.01595 0.02361 0.0
C390 C 0.28238 0.06023 0.97824 0.0
C391 C 0.28857 0.09004 0.00386 0.0
C392 C 0.29093 0.08171 0.03963 0.0
C393 C 0.28919 0.04466 0.04913 0.0
C394 C 0.27948 0.06787 0.93981 0.0
C395 C 0.2973 0.11272 0.06767 0.0
H396 H 0.37381 0.22208 0.96079 0.0
H397 H 0.2442 0.18026 0.96765 0.0
H398 H 0.37368 0.1459 0.01598 0.0
H399 H 0.37012 0.13103 0.9711 0.0
H400 H 0.4028 0.18422 0.9832 0.0
H401 H 0.19745 0.11792 0.99524 0.0
H402 H 0.20851 0.07944 0.97871 0.0
H403 H 0.21784 0.09403 0.02374 0.0
H404 H 0.27728 0.00137 0.96858 0.0
H405 H 0.29248 0.03892 0.07639 0.0
H406 H 0.30942 0.09366 0.93059 0.0
H407 H 0.25587 0.07703 0.93553 0.0
H408 H 0.27155 0.04033 0.92353 0.0
H409 H 0.32872 0.13984 0.06523 0.0
H410 H 0.29378 0.09971 0.0944 0.0
H411 H 0.27509 0.12388 0.06443 0.0
C412 C 0.93563 0.18115 0.05802 0.0
C413 C 0.92833 0.20799 0.07847 0.0
C414 C 0.90453 0.15116 0.03691 0.0
C415 C 0.8653 0.14802 0.0363 0.0
C416 C 0.85667 0.17236 0.05933 0.0
C417 C 0.88834 0.20207 0.08024 0.0
C418 C 0.91479 0.12539 0.01307 0.0
C419 C 0.81507 0.16961 0.05967 0.0
C420 C 0.80962 0.12284 0.94945 0.0
C421 C 0.77857 0.08178 0.95426 0.0
C422 C 0.83821 0.1444 0.97588 0.0
C423 C 0.83579 0.12442 0.00796 0.0
C424 C 0.80509 0.08273 0.01282 0.0
C425 C 0.77675 0.06185 0.98586 0.0
C426 C 0.87067 0.18885 0.96961 0.0
C427 C 0.80175 0.06049 0.04666 0.0
H428 H 0.96632 0.1851 0.05688 0.0
H429 H 0.8823 0.22235 0.09625 0.0
H430 H 0.88956 0.09281 0.01304 0.0
H431 H 0.91833 0.13708 0.98588 0.0
H432 H 0.9439 0.12649 0.02081 0.0
H433 H 0.81138 0.18583 0.08252 0.0
H434 H 0.81144 0.18381 0.03545 0.0
H435 H 0.78993 0.137 0.06012 0.0
H436 H 0.81132 0.13845 0.92511 0.0
H437 H 0.75282 0.0301 0.98977 0.0
H438 H 0.90186 0.19284 0.97304 0.0
H439 H 0.86725 0.20893 0.98907 0.0
H440 H 0.86869 0.1996 0.94298 0.0
H441 H 0.83168 0.06271 0.053 0.0
H442 H 0.77761 0.02743 0.04555 0.0
H443 H 0.7943 0.0753 0.0684 0.0
C444 C 0.34452 0.1642 0.57905 0.0
C445 C 0.34048 0.12552 0.57279 0.0
C446 C 0.33814 0.18585 0.55219 0.0
C447 C 0.32686 0.16805 0.51844 0.0
C448 C 0.32193 0.12865 0.51212 0.0
C449 C 0.32912 0.10795 0.53934 0.0
C450 C 0.3441 0.22806 0.5598 0.0
C451 C 0.30934 0.10852 0.4766 0.0
C452 C 0.27971 0.2162 0.46135 0.0
C453 C 0.31411 0.24485 0.44215 0.0
C454 C 0.28279 0.18922 0.48495 0.0
C455 C 0.3213 0.19142 0.48969 0.0
C456 C 0.3555 0.21862 0.46893 0.0
C457 C 0.35139 0.24482 0.44518 0.0
C458 C 0.24544 0.15999 0.50616 0.0
C459 C 0.39714 0.22201 0.4734 0.0
H460 H 0.35342 0.17794 0.60482 0.0
H461 H 0.32562 0.07787 0.53444 0.0
H462 H 0.36857 0.25129 0.54259 0.0
H463 H 0.31533 0.22855 0.55406 0.0
H464 H 0.35281 0.23744 0.58746 0.0
H465 H 0.30517 0.07701 0.47641 0.0
H466 H 0.28007 0.10662 0.4683 0.0
H467 H 0.33306 0.12749 0.45688 0.0
H468 H 0.25072 0.21587 0.45891 0.0
H469 H 0.37813 0.26689 0.43045 0.0
H470 H 0.24994 0.17027 0.53383 0.0
H471 H 0.2413 0.12853 0.50575 0.0
H472 H 0.21681 0.15846 0.49634 0.0
H473 H 0.40969 0.23502 0.49957 0.0
H474 H 0.4196 0.24207 0.45322 0.0
H475 H 0.39428 0.19111 0.47209 0.0
C476 C 0.85771 0.22855 0.51963 0.0
C477 C 0.88488 0.22594 0.54333 0.0
C478 C 0.82707 0.19329 0.50271 0.0
C479 C 0.82363 0.15459 0.50961 0.0
C480 C 0.85194 0.15199 0.53246 0.0
C481 C 0.88222 0.18771 0.54909 0.0
C482 C 0.79737 0.19721 0.47852 0.0
C483 C 0.84931 0.11125 0.54035 0.0
C484 C 0.7186 0.05892 0.50144 0.0
C485 C 0.72193 0.0426 0.46938 0.0
C486 C 0.75137 0.09556 0.51458 0.0
C487 C 0.78847 0.11639 0.49522 0.0
C488 C 0.792 0.10037 0.46267 0.0
C489 C 0.75861 0.06361 0.45008 0.0
C490 C 0.74638 0.11176 0.54937 0.0
C491 C 0.83118 0.12182 0.44139 0.0
H492 H 0.85965 0.258 0.51495 0.0
H493 H 0.90326 0.18547 0.56718 0.0
H494 H 0.79577 0.18234 0.45302 0.0
H495 H 0.76598 0.18105 0.49006 0.0
H496 H 0.80622 0.22986 0.47376 0.0
H497 H 0.87558 0.11494 0.5565 0.0
H498 H 0.82025 0.091 0.55463 0.0
H499 H 0.84862 0.09529 0.5157 0.0
H500 H 0.69033 0.04297 0.51649 0.0
H501 H 0.76139 0.05116 0.42529 0.0
H502 H 0.75188 0.14356 0.54624 0.0
H503 H 0.76958 0.11321 0.56819 0.0
H504 H 0.71521 0.09227 0.56081 0.0
H505 H 0.83904 0.15398 0.43572 0.0
H506 H 0.82865 0.10586 0.41624 0.0
H507 H 0.85713 0.12338 0.4566 0.0
C508 C 0.89556 0.67594 0.40787 0.0
C509 C 0.93132 0.71478 0.40934 0.0
C510 C 0.86007 0.66798 0.42656 0.0
C511 C 0.8605 0.69963 0.44711 0.0
C512 C 0.89509 0.73986 0.44599 0.0
C513 C 0.93009 0.747 0.42701 0.0
C514 C 0.8235 0.6248 0.4267 0.0
C515 C 0.89665 0.77453 0.46734 0.0
C516 C 0.76217 0.68218 0.49148 0.0
C517 C 0.76638 0.66912 0.52486 0.0
C518 C 0.79249 0.69221 0.4657 0.0
C519 C 0.82781 0.68929 0.47366 0.0
C520 C 0.83234 0.67649 0.50741 0.0
C521 C 0.80154 0.66647 0.53254 0.0
C522 C 0.78662 0.70558 0.42994 0.0
C523 C 0.86976 0.67327 0.51701 0.0
H524 H 0.89605 0.65097 0.39396 0.0
H525 H 0.9574 0.77729 0.42792 0.0
H526 H 0.82231 0.60975 0.45202 0.0
H527 H 0.7943 0.62537 0.42407 0.0
H528 H 0.82529 0.60569 0.40529 0.0
H529 H 0.92274 0.80502 0.45945 0.0
H530 H 0.86751 0.77522 0.46475 0.0
H531 H 0.90038 0.76952 0.49539 0.0
H532 H 0.735 0.6842 0.48533 0.0
H533 H 0.80505 0.6565 0.55829 0.0
H534 H 0.78582 0.68384 0.40982 0.0
H535 H 0.81302 0.73642 0.42352 0.0
H536 H 0.75772 0.70693 0.42814 0.0
H537 H 0.87217 0.65096 0.49947 0.0
H538 H 0.8687 0.66317 0.5445 0.0
H539 H 0.89815 0.70355 0.5134 0.0
C540 C 0.23565 0.40008 0.31999 0.0
C541 C 0.24979 0.37235 0.3263 0.0
C542 C 0.21428 0.39778 0.28922 0.0
C543 C 0.20704 0.36711 0.26414 0.0
C544 C 0.22214 0.33972 0.2699 0.0
C545 C 0.24332 0.34264 0.30095 0.0
C546 C 0.19865 0.42754 0.28391 0.0
C547 C 0.21521 0.3068 0.24357 0.0
C548 C 0.11721 0.33226 0.20152 0.0
C549 C 0.13717 0.35345 0.17088 0.0
C550 C 0.13956 0.3368 0.23221 0.0
C551 C 0.18287 0.36306 0.23217 0.0
C552 C 0.20314 0.38491 0.20148 0.0
C553 C 0.18003 0.37988 0.1712 0.0
C554 C 0.11691 0.31317 0.26458 0.0
C555 C 0.24929 0.41318 0.2005 0.0
H556 H 0.24053 0.42315 0.33944 0.0
H557 H 0.25423 0.32117 0.30559 0.0
H558 H 0.21036 0.44427 0.2588 0.0
H559 H 0.1645 0.41033 0.28235 0.0
H560 H 0.20807 0.45046 0.3054 0.0
H561 H 0.23018 0.28886 0.25145 0.0
H562 H 0.18168 0.28522 0.24043 0.0
H563 H 0.22744 0.32095 0.21763 0.0
H564 H 0.0841 0.31187 0.20149 0.0
H565 H 0.19572 0.3964 0.14764 0.0
H566 H 0.12314 0.33477 0.28662 0.0
H567 H 0.12819 0.29204 0.27247 0.0
H568 H 0.08307 0.29475 0.26049 0.0
H569 H 0.25879 0.43719 0.221 0.0
H570 H 0.26022 0.42858 0.17472 0.0
H571 H 0.26501 0.39539 0.2062 0.0
C572 C 0.61538 0.73627 0.20865 0.0
C573 C 0.62428 0.75399 0.17519 0.0
C574 C 0.6135 0.7582 0.23773 0.0
C575 C 0.62042 0.79869 0.23316 0.0
C576 C 0.62967 0.81684 0.1995 0.0
C577 C 0.63162 0.79434 0.17096 0.0
C578 C 0.60386 0.73797 0.27331 0.0
C579 C 0.63706 0.85987 0.19357 0.0
C580 C 0.57701 0.83984 0.30195 0.0
C581 C 0.61208 0.86505 0.32197 0.0
C582 C 0.57938 0.81843 0.27272 0.0
C583 C 0.61766 0.82197 0.26355 0.0
C584 C 0.65324 0.84763 0.28348 0.0
C585 C 0.65008 0.86905 0.31233 0.0
C586 C 0.54087 0.79177 0.2518 0.0
C587 C 0.69453 0.85194 0.27465 0.0
H588 H 0.60974 0.70517 0.21216 0.0
H589 H 0.63845 0.80829 0.14519 0.0
H590 H 0.62886 0.75716 0.29196 0.0
H591 H 0.57503 0.73553 0.28366 0.0
H592 H 0.60015 0.70665 0.27258 0.0
H593 H 0.64415 0.86961 0.16579 0.0
H594 H 0.60941 0.86149 0.20153 0.0
H595 H 0.66306 0.88218 0.21001 0.0
H596 H 0.54758 0.8367 0.30918 0.0
H597 H 0.67729 0.88826 0.3278 0.0
H598 H 0.53376 0.75926 0.25248 0.0
H599 H 0.54584 0.80164 0.22401 0.0
H600 H 0.51374 0.79313 0.26186 0.0
H601 H 0.69244 0.82137 0.27599 0.0
H602 H 0.71929 0.87334 0.29263 0.0
H603 H 0.70344 0.86341 0.24748 0.0
C604 C 0.26231 0.86847 0.18784 0.0
C605 C 0.27267 0.90946 0.18154 0.0
C606 C 0.24107 0.84784 0.2183 0.0
C607 C 0.23004 0.86874 0.24307 0.0
C608 C 0.24189 0.91059 0.23758 0.0
C609 C 0.26307 0.93046 0.20687 0.0
C610 C 0.22908 0.80324 0.22331 0.0
C611 C 0.2309 0.93397 0.26355 0.0
C612 C 0.13655 0.8067 0.30093 0.0
C613 C 0.15485 0.80658 0.33287 0.0
C614 C 0.1607 0.82631 0.27137 0.0
C615 C 0.2042 0.84627 0.27381 0.0
C616 C 0.22286 0.84557 0.30576 0.0
C617 C 0.19795 0.82571 0.33492 0.0
C618 C 0.13968 0.82628 0.23767 0.0
C619 C 0.26913 0.86642 0.3093 0.0
H620 H 0.26969 0.852 0.16848 0.0
H621 H 0.27108 0.96215 0.2023 0.0
H622 H 0.23934 0.79877 0.24933 0.0
H623 H 0.19503 0.78367 0.22251 0.0
H624 H 0.24247 0.79232 0.20286 0.0
H625 H 0.24457 0.96701 0.25649 0.0
H626 H 0.19691 0.91999 0.26486 0.0
H627 H 0.24162 0.93184 0.2901 0.0
H628 H 0.10329 0.79193 0.29909 0.0
H629 H 0.21237 0.82572 0.35948 0.0
H630 H 0.14939 0.81303 0.21622 0.0
H631 H 0.14904 0.85839 0.23014 0.0
H632 H 0.10555 0.80837 0.23984 0.0
H633 H 0.28192 0.85443 0.28929 0.0
H634 H 0.27875 0.86176 0.33559 0.0
H635 H 0.28301 0.89999 0.30462 0.0
C636 C 0.87044 0.58645 0.80043 0.0
C637 C 0.85254 0.5641 0.83115 0.0
C638 C 0.84597 0.58455 0.77199 0.0
C639 C 0.80259 0.55958 0.77429 0.0
C640 C 0.78446 0.53536 0.80451 0.0
C641 C 0.80968 0.53795 0.83263 0.0
C642 C 0.86645 0.61078 0.74012 0.0
C643 C 0.73833 0.50812 0.80777 0.0
C644 C 0.74232 0.59559 0.71963 0.0
C645 C 0.73279 0.57047 0.68993 0.0
C646 C 0.764 0.59149 0.74772 0.0
C647 C 0.77627 0.5614 0.74615 0.0
C648 C 0.76531 0.53481 0.71692 0.0
C649 C 0.74375 0.53972 0.68908 0.0
C650 C 0.77509 0.6204 0.77852 0.0
C651 C 0.77756 0.50213 0.71452 0.0
H652 H 0.90355 0.60661 0.79899 0.0
H653 H 0.7956 0.5204 0.85621 0.0
H654 H 0.85596 0.59168 0.71609 0.0
H655 H 0.85746 0.63475 0.73764 0.0
H656 H 0.9006 0.62626 0.74145 0.0
H657 H 0.72943 0.48811 0.83133 0.0
H658 H 0.72371 0.52753 0.80943 0.0
H659 H 0.72566 0.48832 0.78427 0.0
H660 H 0.73386 0.61933 0.72057 0.0
H661 H 0.73631 0.52003 0.6663 0.0
H662 H 0.80909 0.64005 0.78026 0.0
H663 H 0.76435 0.60261 0.80324 0.0
H664 H 0.76147 0.64072 0.7765 0.0
H665 H 0.81159 0.51699 0.71255 0.0
H666 H 0.76369 0.48172 0.69148 0.0
H667 H 0.76804 0.48292 0.73853 0.0
C668 C 0.45542 0.26277 0.8316 0.0
C669 C 0.4269 0.27616 0.8263 0.0
C670 C 0.46101 0.2387 0.80643 0.0
C671 C 0.43743 0.22771 0.77535 0.0
C672 C 0.41055 0.24331 0.76889 0.0
C673 C 0.4057 0.26745 0.79441 0.0
C674 C 0.49036 0.22308 0.81403 0.0
C675 C 0.38499 0.23244 0.73595 0.0
C676 C 0.45915 0.17964 0.69664 0.0
C677 C 0.42875 0.13808 0.7005 0.0
C678 C 0.46383 0.20909 0.7217 0.0
C679 C 0.4374 0.19662 0.75117 0.0
C680 C 0.4083 0.15439 0.75619 0.0
C681 C 0.4044 0.12563 0.73084 0.0
C682 C 0.49552 0.25378 0.71569 0.0
C683 C 0.37968 0.13979 0.78741 0.0
H684 H 0.47219 0.26962 0.85606 0.0
H685 H 0.38382 0.27789 0.78997 0.0
H686 H 0.47252 0.18957 0.81968 0.0
H687 H 0.51009 0.22735 0.79094 0.0
H688 H 0.51046 0.23892 0.83684 0.0
H689 H 0.36829 0.24986 0.73354 0.0
H690 H 0.40479 0.23876 0.71253 0.0
H691 H 0.36203 0.19901 0.73595 0.0
H692 H 0.47824 0.18953 0.67335 0.0
H693 H 0.38102 0.09356 0.73417 0.0
H694 H 0.51354 0.26769 0.73986 0.0
H695 H 0.47972 0.2712 0.70888 0.0
H696 H 0.51714 0.2577 0.69415 0.0
H697 H 0.39754 0.1512 0.812 0.0
H698 H 0.36084 0.10566 0.78873 0.0
H699 H 0.35856 0.15249 0.78601 0.0
C700 C 0.75345 0.19985 0.8047 0.0
C701 C 0.74305 0.15872 0.79925 0.0
C702 C 0.7749 0.23006 0.77913 0.0
C703 C 0.78637 0.21886 0.7475 0.0
C704 C 0.77465 0.17715 0.74133 0.0
C705 C 0.75303 0.14757 0.76723 0.0
C706 C 0.78648 0.27416 0.78645 0.0
C707 C 0.78631 0.16397 0.70787 0.0
C708 C 0.81987 0.28589 0.6662 0.0
C709 C 0.86273 0.30231 0.667 0.0
C710 C 0.79464 0.26031 0.69321 0.0
C711 C 0.81272 0.25084 0.72156 0.0
C712 C 0.85613 0.26929 0.72354 0.0
C713 C 0.88062 0.29492 0.69629 0.0
C714 C 0.74851 0.24165 0.69043 0.0
C715 C 0.8766 0.26004 0.75342 0.0
H716 H 0.74567 0.20871 0.8293 0.0
H717 H 0.74503 0.11586 0.76274 0.0
H718 H 0.82043 0.29335 0.78905 0.0
H719 H 0.77713 0.28684 0.76433 0.0
H720 H 0.77201 0.27715 0.81083 0.0
H721 H 0.7732 0.13007 0.70645 0.0
H722 H 0.77542 0.17393 0.6849 0.0
H723 H 0.82036 0.17905 0.70588 0.0
H724 H 0.80578 0.29167 0.64378 0.0
H725 H 0.91372 0.30763 0.69724 0.0
H726 H 0.73551 0.245 0.7155 0.0
H727 H 0.73414 0.20819 0.68496 0.0
H728 H 0.7397 0.25603 0.66923 0.0
H729 H 0.86548 0.26499 0.77886 0.0
H730 H 0.91072 0.27945 0.75258 0.0
H731 H 0.86834 0.22719 0.75234 0.0
C732 C 0.05967 0.45647 0.05326 0.0
C733 C 0.03288 0.41575 0.06377 0.0
C734 C 0.04442 0.48068 0.03904 0.0
C735 C 0.00135 0.46373 0.03526 0.0
C736 C 0.97406 0.42317 0.04695 0.0
C737 C 0.99016 0.39963 0.06111 0.0
C738 C 0.07447 0.52395 0.027 0.0
C739 C 0.92794 0.40418 0.04344 0.0
C740 C 0.96508 0.54037 0.01928 0.0
C741 C 0.96163 0.5392 0.98271 0.0
C742 C 0.9766 0.51489 0.03694 0.0
C743 C 0.98518 0.48792 0.01748 0.0
C744 C 0.98046 0.48565 0.98067 0.0
C745 C 0.96856 0.51122 0.96372 0.0
C746 C 0.98086 0.51777 0.07626 0.0
C747 C 0.98945 0.45729 0.95904 0.0
H748 H 0.09269 0.4692 0.05537 0.0
H749 H 0.96922 0.36819 0.06923 0.0
H750 H 0.07185 0.52626 0.99827 0.0
H751 H 0.06701 0.54622 0.03937 0.0
H752 H 0.10689 0.5332 0.03332 0.0
H753 H 0.91089 0.37338 0.05605 0.0
H754 H 0.9177 0.42458 0.05533 0.0
H755 H 0.91946 0.40079 0.01535 0.0
H756 H 0.95948 0.56174 0.03414 0.0
H757 H 0.96599 0.51018 0.93545 0.0
H758 H 0.01366 0.53031 0.08353 0.0
H759 H 0.96312 0.4867 0.08818 0.0
H760 H 0.96998 0.53791 0.08772 0.0
H761 H 0.02252 0.46668 0.96146 0.0
H762 H 0.98226 0.45766 0.9309 0.0
H763 H 0.9713 0.42522 0.96887 0.0
C764 C 0.48671 0.60039 0.02227 0.0
C765 C 0.51933 0.60928 0.04517 0.0
C766 C 0.46237 0.56063 0.00853 0.0
C767 C 0.47081 0.52908 0.01807 0.0
C768 C 0.50212 0.53729 0.04273 0.0
C769 C 0.52603 0.57731 0.05597 0.0
C770 C 0.42908 0.55296 0.9824 0.0
C771 C 0.51176 0.50433 0.05378 0.0
C772 C 0.39154 0.41819 0.99683 0.0
C773 C 0.40757 0.41172 0.96578 0.0
C774 C 0.41187 0.45617 0.0143 0.0
C775 C 0.44901 0.48843 0.00032 0.0
C776 C 0.46549 0.48202 0.96912 0.0
C777 C 0.4446 0.44371 0.95226 0.0
C778 C 0.39352 0.46184 0.0476 0.0
C779 C 0.50507 0.51577 0.9534 0.0
H780 H 0.48124 0.62486 0.01384 0.0
H781 H 0.55101 0.58383 0.07384 0.0
H782 H 0.43776 0.54667 0.9563 0.0
H783 H 0.39958 0.52541 0.98999 0.0
H784 H 0.42405 0.57967 0.98004 0.0
H785 H 0.53434 0.51463 0.07558 0.0
H786 H 0.48323 0.47611 0.06208 0.0
H787 H 0.52468 0.49581 0.03125 0.0
H788 H 0.36292 0.39362 0.00747 0.0
H789 H 0.45714 0.43898 0.92827 0.0
H790 H 0.38669 0.48724 0.04429 0.0
H791 H 0.41602 0.4707 0.06931 0.0
H792 H 0.36467 0.43349 0.05527 0.0
H793 H 0.50181 0.54296 0.9473 0.0
H794 H 0.51379 0.50578 0.92906 0.0
H795 H 0.53058 0.52587 0.97252 0.0
C796 C 0.44289 0.99511 0.02554 0.0
C797 C 0.42952 0.9572 0.04239 0.0
C798 C 0.47952 0.01398 0.00612 0.0
C799 C 0.50365 0.99471 0.00375 0.0
C800 C 0.49116 0.95718 0.02166 0.0
C801 C 0.45408 0.93874 0.04068 0.0
C802 C 0.4917 0.05388 0.98723 0.0
C803 C 0.51646 0.93604 0.02003 0.0
C804 C 0.57367 0.0188 0.92492 0.0
C805 C 0.6121 0.0476 0.93876 0.0
C806 C 0.53808 0.00155 0.94577 0.0
C807 C 0.54109 0.0131 0.98138 0.0
C808 C 0.57969 0.04246 0.99543 0.0
C809 C 0.61472 0.05956 0.97388 0.0
C810 C 0.4973 0.97071 0.92976 0.0
C811 C 0.58408 0.05529 0.03336 0.0
H812 H 0.42414 0.00966 0.02667 0.0
H813 H 0.44403 0.90954 0.05371 0.0
H814 H 0.52331 0.07779 0.99484 0.0
H815 H 0.49201 0.0492 0.95858 0.0
H816 H 0.47032 0.06566 0.99282 0.0
H817 H 0.5038 0.90836 0.0371 0.0
H818 H 0.51744 0.92649 0.99273 0.0
H819 H 0.54869 0.95769 0.02802 0.0
H820 H 0.57143 0.00942 0.8978 0.0
H821 H 0.64436 0.08157 0.98486 0.0
H822 H 0.47476 0.9815 0.93284 0.0
H823 H 0.48454 0.94076 0.94359 0.0
H824 H 0.5001 0.96559 0.9015 0.0
H825 H 0.56389 0.06834 0.03922 0.0
H826 H 0.6163 0.07856 0.04021 0.0
H827 H 0.57401 0.02797 0.05046 0.0
C828 C 0.53294 0.96511 0.44877 0.0
C829 C 0.52737 0.92554 0.45378 0.0
C830 C 0.50867 0.97789 0.46685 0.0
C831 C 0.47817 0.95046 0.49049 0.0
C832 C 0.47105 0.90985 0.49439 0.0
C833 C 0.49569 0.89784 0.47592 0.0
C834 C 0.51685 0.02132 0.46177 0.0
C835 C 0.43861 0.87966 0.51923 0.0
C836 C 0.44879 0.99626 0.5662 0.0
C837 C 0.41122 0.99163 0.55466 0.0
C838 C 0.47092 0.98301 0.5455 0.0
C839 C 0.45512 0.96485 0.51247 0.0
C840 C 0.41731 0.96024 0.50061 0.0
C841 C 0.39578 0.97362 0.52188 0.0
C842 C 0.51116 0.98832 0.55902 0.0
C843 C 0.39961 0.94117 0.46548 0.0
H844 H 0.55725 0.98667 0.43162 0.0
H845 H 0.49107 0.86717 0.47988 0.0
H846 H 0.48779 0.02102 0.45553 0.0
H847 H 0.52899 0.03899 0.48639 0.0
H848 H 0.53948 0.03775 0.44051 0.0
H849 H 0.43509 0.84846 0.51753 0.0
H850 H 0.44701 0.89095 0.54649 0.0
H851 H 0.40838 0.87715 0.51367 0.0
H852 H 0.46089 0.01013 0.59148 0.0
H853 H 0.36679 0.97 0.5127 0.0
H854 H 0.53648 0.0075 0.54056 0.0
H855 H 0.50933 0.95788 0.56074 0.0
H856 H 0.5192 0.00306 0.58523 0.0
H857 H 0.42183 0.95895 0.44439 0.0
H858 H 0.36998 0.94011 0.46 0.0
H859 H 0.3944 0.90932 0.46442 0.0
C860 C 0.98005 0.50015 0.57262 0.0
C861 C 0.98141 0.46624 0.55868 0.0
C862 C 0.99411 0.53654 0.55314 0.0
C863 C 0.01016 0.53909 0.51907 0.0
C864 C 0.01146 0.50492 0.50483 0.0
C865 C -0.00306 0.46889 0.52474 0.0
C866 C 0.992 0.57234 0.56904 0.0
C867 C 0.02857 0.50656 0.46867 0.0
C868 C 0.01433 0.61989 0.45673 0.0
C869 C 0.0555 0.65145 0.46004 0.0
C870 C -0.00081 0.5831 0.47572 0.0
C871 C 0.02592 0.57761 0.49835 0.0
C872 C 0.06773 0.6089 0.50119 0.0
C873 C 0.082 0.6455 0.48205 0.0
C874 C 0.9544 0.55041 0.47205 0.0
C875 C 0.09723 0.60393 0.52482 0.0
H876 H 0.96804 0.49831 0.59878 0.0
H877 H -0.00173 0.4429 0.51376 0.0
H878 H 0.02343 0.59955 0.57089 0.0
H879 H 0.97364 0.58108 0.55202 0.0
H880 H 0.97799 0.56515 0.59558 0.0
H881 H 0.0272 0.4772 0.46136 0.0
H882 H 0.0111 0.51344 0.449 0.0
H883 H 0.06113 0.53177 0.46731 0.0
H884 H 0.99357 0.62427 0.43989 0.0
H885 H 0.11383 0.66971 0.48475 0.0
H886 H 0.93876 0.54464 0.4978 0.0
H887 H 0.95186 0.52096 0.46339 0.0
H888 H 0.93779 0.55927 0.45303 0.0
H889 H 0.08636 0.6001 0.55231 0.0
H890 H 0.12901 0.63076 0.52344 0.0
H891 H 0.09821 0.57575 0.5176 0.0
C892 C 0.43161 0.41521 0.45881 0.0
C893 C 0.41384 0.43895 0.44886 0.0
C894 C 0.46926 0.43295 0.47661 0.0
C895 C 0.49004 0.4756 0.48406 0.0
C896 C 0.47322 0.50012 0.47275 0.0
C897 C 0.43503 0.48139 0.45553 0.0
C898 C 0.48593 0.40571 0.4887 0.0
C899 C 0.49502 0.54591 0.47968 0.0
C900 C 0.56258 0.5162 0.56154 0.0
C901 C 0.60109 0.53221 0.54521 0.0
C902 C 0.52611 0.49682 0.54197 0.0
C903 C 0.52836 0.49418 0.50515 0.0
C904 C 0.56711 0.50962 0.48859 0.0
C905 C 0.60306 0.52812 0.50889 0.0
C906 C 0.48523 0.47988 0.56061 0.0
C907 C 0.57067 0.50784 0.44934 0.0
H908 H 0.41533 0.38231 0.45392 0.0
H909 H 0.42152 0.49987 0.44775 0.0
H910 H 0.51793 0.41792 0.47916 0.0
H911 H 0.48696 0.40561 0.51772 0.0
H912 H 0.46686 0.37342 0.4795 0.0
H913 H 0.47944 0.56105 0.46686 0.0
H914 H 0.49616 0.55157 0.50825 0.0
H915 H 0.52731 0.56068 0.47017 0.0
H916 H 0.56098 0.51927 0.58962 0.0
H917 H 0.6328 0.54089 0.4961 0.0
H918 H 0.46494 0.44695 0.55376 0.0
H919 H 0.46941 0.4967 0.55202 0.0
H920 H 0.48877 0.48254 0.5895 0.0
H921 H 0.55219 0.47559 0.44005 0.0
H922 H 0.60307 0.52037 0.44062 0.0
H923 H 0.55804 0.52578 0.43659 0.0
loop_
_geom_bond_atom_site_label_1
_geom_bond_atom_site_label_2
_geom_bond_distance
_geom_bond_site_symmetry_2
_ccdc_geom_bond_type
C0 O1 1.160 . S
C0 O7 1.185 . S
O1 C0 1.160 . S
O2 Zn3 1.899 . S
O2 C10 1.284 . S
Zn3 O2 1.899 . S
Zn3 O4 2.032 . S
Zn3 O7 2.086 . S
Zn3 O12 1.977 1_455 S
O4 Zn3 2.032 . S
O4 C8 1.278 . S
C5 O6 1.203 . S
C5 O12 1.267 . S
O6 C5 1.203 . S
O7 C0 1.185 . S
O7 Zn3 2.086 . S
C8 O4 1.278 . S
C8 O9 1.211 . S
O9 C8 1.211 . S
C10 O2 1.284 . S
C10 O11 1.273 . S
O11 C10 1.273 . S
O12 Zn3 1.977 1_655 S
O12 C5 1.267 . S
C13 O14 1.160 . S
C13 O20 1.185 . S
O14 C13 1.160 . S
O15 Zn16 1.899 . S
O15 C23 1.284 . S
Zn16 O15 1.899 . S
Zn16 O17 2.032 . S
Zn16 O20 2.086 . S
Zn16 O25 1.977 . S
O17 Zn16 2.032 . S
O17 C21 1.278 . S
C18 O19 1.203 . S
C18 O25 1.267 . S
O19 C18 1.203 . S
O20 C13 1.185 . S
O20 Zn16 2.086 . S
C21 O17 1.278 . S
C21 O22 1.211 . S
O22 C21 1.211 . S
C23 O15 1.284 . S
C23 O24 1.273 . S
O24 C23 1.273 . S
O25 Zn16 1.977 . S
O25 C18 1.267 . S
C26 O27 1.160 . S
C26 O33 1.185 . S
O27 C26 1.160 . S
O28 Zn29 1.899 . S
O28 C36 1.284 . S
Zn29 O28 1.899 . S
Zn29 O30 2.032 . S
Zn29 O33 2.086 . S
Zn29 O38 1.977 1_565 S
O30 Zn29 2.032 . S
O30 C34 1.278 . S
C31 O32 1.203 . S
C31 O38 1.267 . S
O32 C31 1.203 . S
O33 C26 1.185 . S
O33 Zn29 2.086 . S
C34 O30 1.278 . S
C34 O35 1.211 . S
O35 C34 1.211 . S
C36 O28 1.284 . S
C36 O37 1.273 . S
O37 C36 1.273 . S
O38 Zn29 1.977 1_545 S
O38 C31 1.267 . S
C39 O40 1.160 . S
C39 O46 1.185 . S
O40 C39 1.160 . S
O41 Zn42 1.899 . S
O41 C49 1.284 . S
Zn42 O41 1.899 . S
Zn42 O43 2.032 . S
Zn42 O46 2.086 . S
Zn42 O51 1.977 1_565 S
O43 Zn42 2.032 . S
O43 C47 1.278 . S
C44 O45 1.203 . S
C44 O51 1.267 . S
O45 C44 1.203 . S
O46 C39 1.185 . S
O46 Zn42 2.086 . S
C47 O43 1.278 . S
C47 O48 1.211 . S
O48 C47 1.211 . S
C49 O41 1.284 . S
C49 O50 1.273 . S
O50 C49 1.273 . S
O51 Zn42 1.977 1_545 S
O51 C44 1.267 . S
C52 O53 1.160 . S
C52 O59 1.185 . S
O53 C52 1.160 . S
O54 Zn55 1.899 . S
O54 C62 1.284 . S
Zn55 O54 1.899 . S
Zn55 O56 2.032 . S
Zn55 O59 2.086 . S
Zn55 O64 1.977 1_455 S
O56 Zn55 2.032 . S
O56 C60 1.278 . S
C57 O58 1.203 . S
C57 O64 1.267 . S
O58 C57 1.203 . S
O59 C52 1.185 . S
O59 Zn55 2.086 . S
C60 O56 1.278 . S
C60 O61 1.211 . S
O61 C60 1.211 . S
C62 O54 1.284 . S
C62 O63 1.273 . S
O63 C62 1.273 . S
O64 Zn55 1.977 1_655 S
O64 C57 1.267 . S
C65 O66 1.160 . S
C65 O72 1.185 . S
O66 C65 1.160 . S
O67 Zn68 1.899 . S
O67 C75 1.284 . S
Zn68 O67 1.899 . S
Zn68 O69 2.032 . S
Zn68 O72 2.086 . S
Zn68 O77 1.977 . S
O69 Zn68 2.032 . S
O69 C73 1.278 . S
C70 O71 1.203 . S
C70 O77 1.267 . S
O71 C70 1.203 . S
O72 C65 1.185 . S
O72 Zn68 2.086 . S
C73 O69 1.278 . S
C73 O74 1.211 . S
O74 C73 1.211 . S
C75 O67 1.284 . S
C75 O76 1.273 . S
O76 C75 1.273 . S
O77 Zn68 1.977 . S
O77 C70 1.267 . S
C78 O79 1.160 . S
C78 O85 1.185 . S
O79 C78 1.160 . S
O80 Zn81 1.899 . S
O80 C88 1.284 . S
Zn81 O80 1.899 . S
Zn81 O82 2.032 . S
Zn81 O85 2.086 . S
Zn81 O90 1.977 1_655 S
O82 Zn81 2.032 . S
O82 C86 1.278 . S
C83 O84 1.203 . S
C83 O90 1.267 . S
O84 C83 1.203 . S
O85 C78 1.185 . S
O85 Zn81 2.086 . S
C86 O82 1.278 . S
C86 O87 1.211 . S
O87 C86 1.211 . S
C88 O80 1.284 . S
C88 O89 1.273 . S
O89 C88 1.273 . S
O90 Zn81 1.977 1_455 S
O90 C83 1.267 . S
C91 O92 1.160 . S
C91 O98 1.185 . S
O92 C91 1.160 . S
O93 Zn94 1.899 . S
O93 C101 1.284 . S
Zn94 O93 1.899 . S
Zn94 O95 2.032 . S
Zn94 O98 2.086 . S
Zn94 O103 1.977 . S
O95 Zn94 2.032 . S
O95 C99 1.278 . S
C96 O97 1.203 . S
C96 O103 1.267 . S
O97 C96 1.203 . S
O98 C91 1.185 . S
O98 Zn94 2.086 . S
C99 O95 1.278 . S
C99 O100 1.211 . S
O100 C99 1.211 . S
C101 O93 1.284 . S
C101 O102 1.273 . S
O102 C101 1.273 . S
O103 Zn94 1.977 . S
O103 C96 1.267 . S
C104 O105 1.160 . S
C104 O111 1.185 . S
O105 C104 1.160 . S
O106 Zn107 1.899 . S
O106 C114 1.284 . S
Zn107 O106 1.899 . S
Zn107 O108 2.032 . S
Zn107 O111 2.086 . S
Zn107 O116 1.977 1_545 S
O108 Zn107 2.032 . S
O108 C112 1.278 . S
C109 O110 1.203 . S
C109 O116 1.267 . S
O110 C109 1.203 . S
O111 C104 1.185 . S
O111 Zn107 2.086 . S
C112 O108 1.278 . S
C112 O113 1.211 . S
O113 C112 1.211 . S
C114 O106 1.284 . S
C114 O115 1.273 . S
O115 C114 1.273 . S
O116 Zn107 1.977 1_565 S
O116 C109 1.267 . S
C117 O118 1.160 . S
C117 O124 1.185 . S
O118 C117 1.160 . S
O119 Zn120 1.899 . S
O119 C127 1.284 . S
Zn120 O119 1.899 . S
Zn120 O121 2.032 . S
Zn120 O124 2.086 . S
Zn120 O129 1.977 1_545 S
O121 Zn120 2.032 . S
O121 C125 1.278 . S
C122 O123 1.203 . S
C122 O129 1.267 . S
O123 C122 1.203 . S
O124 C117 1.185 . S
O124 Zn120 2.086 . S
C125 O121 1.278 . S
C125 O126 1.211 . S
O126 C125 1.211 . S
C127 O119 1.284 . S
C127 O128 1.273 . S
O128 C127 1.273 . S
O129 Zn120 1.977 1_565 S
O129 C122 1.267 . S
C130 O131 1.160 . S
C130 O137 1.185 . S
O131 C130 1.160 . S
O132 Zn133 1.899 . S
O132 C140 1.284 . S
Zn133 O132 1.899 . S
Zn133 O134 2.032 . S
Zn133 O137 2.086 . S
Zn133 O142 1.977 1_655 S
O134 Zn133 2.032 . S
O134 C138 1.278 . S
C135 O136 1.203 . S
C135 O142 1.267 . S
O136 C135 1.203 . S
O137 C130 1.185 . S
O137 Zn133 2.086 . S
C138 O134 1.278 . S
C138 O139 1.211 . S
O139 C138 1.211 . S
C140 O132 1.284 . S
C140 O141 1.273 . S
O141 C140 1.273 . S
O142 Zn133 1.977 1_455 S
O142 C135 1.267 . S
C143 O144 1.160 . S
C143 O150 1.185 . S
O144 C143 1.160 . S
O145 Zn146 1.899 . S
O145 C153 1.284 . S
Zn146 O145 1.899 . S
Zn146 O147 2.032 . S
Zn146 O150 2.086 . S
Zn146 O155 1.977 . S
O147 Zn146 2.032 . S
O147 C151 1.278 . S
C148 O149 1.203 . S
C148 O155 1.267 . S
O149 C148 1.203 . S
O150 C143 1.185 . S
O150 Zn146 2.086 . S
C151 O147 1.278 . S
C151 O152 1.211 . S
O152 C151 1.211 . S
C153 O145 1.284 . S
C153 O154 1.273 . S
O154 C153 1.273 . S
O155 Zn146 1.977 . S
O155 C148 1.267 . S
C156 C157 1.391 . S
C156 C158 1.394 1_554 S
C156 H172 0.931 . S
C157 C156 1.391 . S
C157 C161 1.376 . S
C158 C156 1.394 1_556 S
C158 C159 1.369 1_556 S
C158 C162 1.531 . S
C159 C158 1.369 1_554 S
C159 C160 1.410 . S
C159 C167 1.503 1_554 S
C160 C159 1.410 . S
C160 C161 1.392 . S
C160 C163 1.511 . S
C161 C157 1.376 . S
C161 C160 1.392 . S
C161 H173 0.929 . S
C162 C158 1.531 . S
C162 H174 0.960 . S
C162 H175 0.962 . S
C162 H176 0.960 . S
C163 C160 1.511 . S
C163 H177 0.961 . S
C163 H178 0.961 . S
C163 H179 0.961 . S
C164 C165 1.370 . S
C164 C166 1.363 . S
C164 H180 0.931 . S
C165 C164 1.370 . S
C165 C169 1.408 . S
C166 C164 1.363 . S
C166 C167 1.370 . S
C166 C170 1.524 . S
C167 C159 1.503 1_556 S
C167 C166 1.370 . S
C167 C168 1.403 . S
C168 C167 1.403 . S
C168 C169 1.404 . S
C168 C171 1.539 1_556 S
C169 C165 1.408 . S
C169 C168 1.404 . S
C169 H181 0.930 . S
C170 C166 1.524 . S
C170 H182 0.956 . S
C170 H183 0.961 . S
C170 H184 0.961 . S
C171 C168 1.539 1_554 S
C171 H185 0.958 . S
C171 H186 0.961 . S
C171 H187 0.960 . S
H172 C156 0.931 . S
H173 C161 0.929 . S
H174 C162 0.960 . S
H175 C162 0.962 . S
H176 C162 0.960 . S
H177 C163 0.961 . S
H178 C163 0.961 . S
H179 C163 0.961 . S
H180 C164 0.931 . S
H181 C169 0.930 . S
H182 C170 0.956 . S
H183 C170 0.961 . S
H184 C170 0.961 . S
H185 C171 0.958 . S
H186 C171 0.961 . S
H187 C171 0.960 . S
C188 C189 1.391 . S
C188 C190 1.394 . S
C188 H204 0.931 . S
C189 C188 1.391 . S
C189 C193 1.376 . S
C190 C188 1.394 . S
C190 C191 1.369 . S
C190 C194 1.531 . S
C191 C190 1.369 . S
C191 C192 1.410 1_554 S
C191 C199 1.503 1_554 S
C192 C191 1.410 1_556 S
C192 C193 1.392 1_556 S
C192 C195 1.511 . S
C193 C189 1.376 . S
C193 C192 1.392 1_554 S
C193 H205 0.929 1_554 S
C194 C190 1.531 . S
C194 H206 0.960 . S
C194 H207 0.962 . S
C194 H208 0.960 . S
C195 C192 1.511 . S
C195 H209 0.961 . S
C195 H210 0.961 . S
C195 H211 0.961 . S
C196 C197 1.370 . S
C196 C198 1.363 . S
C196 H212 0.931 . S
C197 C196 1.370 . S
C197 C201 1.408 . S
C198 C196 1.363 . S
C198 C199 1.370 . S
C198 C202 1.524 . S
C199 C191 1.503 1_556 S
C199 C198 1.370 . S
C199 C200 1.403 . S
C200 C199 1.403 . S
C200 C201 1.404 . S
C200 C203 1.539 1_556 S
C201 C197 1.408 . S
C201 C200 1.404 . S
C201 H213 0.930 . S
C202 C198 1.524 . S
C202 H214 0.956 . S
C202 H215 0.961 . S
C202 H216 0.961 . S
C203 C200 1.539 1_554 S
C203 H217 0.958 . S
C203 H218 0.969 . S
C203 H219 0.960 . S
H204 C188 0.931 . S
H205 C193 0.929 1_556 S
H206 C194 0.960 . S
H207 C194 0.962 . S
H208 C194 0.960 . S
H209 C195 0.961 . S
H210 C195 0.961 . S
H211 C195 0.961 . S
H212 C196 0.931 . S
H213 C201 0.930 . S
H214 C202 0.956 . S
H215 C202 0.961 . S
H216 C202 0.961 . S
H217 C203 0.958 . S
H218 C203 0.969 . S
H219 C203 0.960 . S
C220 C221 1.416 . S
C220 C222 1.382 1_554 S
C220 H236 0.919 1_554 S
C221 C220 1.416 . S
C221 C225 1.376 . S
C222 C220 1.382 1_556 S
C222 C223 1.360 1_556 S
C222 C226 1.531 . S
C223 C222 1.360 1_554 S
C223 C224 1.428 . S
C223 C231 1.494 1_554 S
C224 C223 1.428 . S
C224 C225 1.392 . S
C224 C227 1.511 . S
C225 C221 1.376 . S
C225 C224 1.392 . S
C225 H237 0.929 . S
C226 C222 1.531 . S
C226 H238 0.960 . S
C226 H239 0.962 . S
C226 H240 0.960 . S
C227 C224 1.511 . S
C227 H241 0.961 . S
C227 H242 0.961 . S
C227 H243 0.961 . S
C228 C229 1.370 . S
C228 C230 1.363 . S
C228 H244 0.931 . S
C229 C228 1.370 . S
C229 C233 1.408 . S
C230 C228 1.363 . S
C230 C231 1.370 . S
C230 C234 1.524 . S
C231 C223 1.494 1_556 S
C231 C230 1.370 . S
C231 C232 1.403 . S
C232 C231 1.403 . S
C232 C233 1.404 . S
C232 C235 1.539 . S
C233 C229 1.408 . S
C233 C232 1.404 . S
C233 H245 0.930 . S
C234 C230 1.524 . S
C234 H246 0.956 . S
C234 H247 0.961 . S
C234 H248 0.961 . S
C235 C232 1.539 . S
C235 H249 0.958 . S
C235 H250 0.961 1_556 S
C235 H251 0.960 1_556 S
H236 C220 0.919 1_556 S
H237 C225 0.929 . S
H238 C226 0.960 . S
H239 C226 0.962 . S
H240 C226 0.960 . S
H241 C227 0.961 . S
H242 C227 0.961 . S
H243 C227 0.961 . S
H244 C228 0.931 . S
H245 C233 0.930 . S
H246 C234 0.956 . S
H247 C234 0.961 . S
H248 C234 0.961 . S
H249 C235 0.958 . S
H250 C235 0.961 1_554 S
H251 C235 0.960 1_554 S
C252 C253 1.391 . S
C252 C254 1.394 . S
C252 H268 0.931 . S
C253 C252 1.391 . S
C253 C257 1.376 . S
C254 C252 1.394 . S
C254 C255 1.369 . S
C254 C258 1.531 . S
C255 C254 1.369 . S
C255 C256 1.410 . S
C255 C263 1.503 . S
C256 C255 1.410 . S
C256 C257 1.392 . S
C256 C259 1.511 . S
C257 C253 1.376 . S
C257 C256 1.392 . S
C257 H269 0.929 . S
C258 C254 1.531 . S
C258 H270 0.960 . S
C258 H271 0.962 . S
C258 H272 0.960 . S
C259 C256 1.511 . S
C259 H273 0.961 . S
C259 H274 0.961 . S
C259 H275 0.961 . S
C260 C261 1.370 . S
C260 C262 1.363 . S
C260 H276 0.931 . S
C261 C260 1.370 . S
C261 C265 1.408 . S
C262 C260 1.363 . S
C262 C263 1.370 . S
C262 C266 1.524 . S
C263 C255 1.503 . S
C263 C262 1.370 . S
C263 C264 1.403 . S
C264 C263 1.403 . S
C264 C265 1.404 . S
C264 C267 1.539 . S
C265 C261 1.408 . S
C265 C264 1.404 . S
C265 H277 0.930 . S
C266 C262 1.524 . S
C266 H278 0.956 . S
C266 H279 0.961 . S
C266 H280 0.961 . S
C267 C264 1.539 . S
C267 H281 0.958 . S
C267 H282 0.961 . S
C267 H283 0.960 . S
H268 C252 0.931 . S
H269 C257 0.929 . S
H270 C258 0.960 . S
H271 C258 0.962 . S
H272 C258 0.960 . S
H273 C259 0.961 . S
H274 C259 0.961 . S
H275 C259 0.961 . S
H276 C260 0.931 . S
H277 C265 0.930 . S
H278 C266 0.956 . S
H279 C266 0.961 . S
H280 C266 0.961 . S
H281 C267 0.958 . S
H282 C267 0.961 . S
H283 C267 0.960 . S
C284 C285 1.391 . S
C284 C286 1.394 . S
C284 H300 0.931 . S
C285 C284 1.391 . S
C285 C289 1.376 . S
C286 C284 1.394 . S
C286 C287 1.369 . S
C286 C290 1.531 . S
C287 C286 1.369 . S
C287 C288 1.410 . S
C287 C295 1.503 . S
C288 C287 1.410 . S
C288 C289 1.392 . S
C288 C291 1.511 . S
C289 C285 1.376 . S
C289 C288 1.392 . S
C289 H301 0.929 . S
C290 C286 1.531 . S
C290 H302 0.960 . S
C290 H303 0.962 . S
C290 H304 0.960 . S
C291 C288 1.511 . S
C291 H305 0.961 . S
C291 H306 0.961 . S
C291 H307 0.961 . S
C292 C293 1.370 . S
C292 C294 1.363 . S
C292 H308 0.931 . S
C293 C292 1.370 . S
C293 C297 1.408 . S
C294 C292 1.363 . S
C294 C295 1.370 . S
C294 C298 1.524 . S
C295 C287 1.503 . S
C295 C294 1.370 . S
C295 C296 1.403 . S
C296 C295 1.403 . S
C296 C297 1.404 . S
C296 C299 1.539 . S
C297 C293 1.408 . S
C297 C296 1.404 . S
C297 H309 0.930 . S
C298 C294 1.524 . S
C298 H310 0.956 . S
C298 H311 0.961 . S
C298 H312 0.961 . S
C299 C296 1.539 . S
C299 H313 0.958 . S
C299 H314 0.961 . S
C299 H315 0.960 . S
H300 C284 0.931 . S
H301 C289 0.929 . S
H302 C290 0.960 . S
H303 C290 0.962 . S
H304 C290 0.960 . S
H305 C291 0.961 . S
H306 C291 0.961 . S
H307 C291 0.961 . S
H308 C292 0.931 . S
H309 C297 0.930 . S
H310 C298 0.956 . S
H311 C298 0.961 . S
H312 C298 0.961 . S
H313 C299 0.958 . S
H314 C299 0.961 . S
H315 C299 0.960 . S
C316 C317 1.391 . S
C316 C318 1.394 . S
C316 H332 0.931 . S
C317 C316 1.391 . S
C317 C321 1.376 . S
C318 C316 1.394 . S
C318 C319 1.369 . S
C318 C322 1.531 . S
C319 C318 1.369 . S
C319 C320 1.410 . S
C319 C327 1.503 . S
C320 C319 1.410 . S
C320 C321 1.392 . S
C320 C323 1.511 . S
C321 C317 1.376 . S
C321 C320 1.392 . S
C321 H333 0.929 . S
C322 C318 1.531 . S
C322 H334 0.960 . S
C322 H335 0.962 . S
C322 H336 0.960 . S
C323 C320 1.511 . S
C323 H337 0.961 . S
C323 H338 0.961 . S
C323 H339 0.961 . S
C324 C325 1.370 . S
C324 C326 1.363 . S
C324 H340 0.931 . S
C325 C324 1.370 . S
C325 C329 1.408 . S
C326 C324 1.363 . S
C326 C327 1.370 . S
C326 C330 1.524 . S
C327 C319 1.503 . S
C327 C326 1.370 . S
C327 C328 1.403 . S
C328 C327 1.403 . S
C328 C329 1.404 . S
C328 C331 1.539 . S
C329 C325 1.408 . S
C329 C328 1.404 . S
C329 H341 0.930 . S
C330 C326 1.524 . S
C330 H342 0.956 . S
C330 H343 0.961 . S
C330 H344 0.961 . S
C331 C328 1.539 . S
C331 H345 0.958 . S
C331 H346 0.961 . S
C331 H347 0.960 . S
H332 C316 0.931 . S
H333 C321 0.929 . S
H334 C322 0.960 . S
H335 C322 0.962 . S
H336 C322 0.960 . S
H337 C323 0.961 . S
H338 C323 0.961 . S
H339 C323 0.961 . S
H340 C324 0.931 . S
H341 C329 0.930 . S
H342 C330 0.956 . S
H343 C330 0.961 . S
H344 C330 0.961 . S
H345 C331 0.958 . S
H346 C331 0.961 . S
H347 C331 0.960 . S
C348 C349 1.391 . S
C348 C350 1.394 . S
C348 H364 0.931 . S
C349 C348 1.391 . S
C349 C353 1.376 . S
C350 C348 1.394 . S
C350 C351 1.369 . S
C350 C354 1.531 1_554 S
C351 C350 1.369 . S
C351 C352 1.410 . S
C351 C359 1.492 1_554 S
C352 C351 1.410 . S
C352 C353 1.392 . S
C352 C355 1.511 . S
C353 C349 1.376 . S
C353 C352 1.392 . S
C353 H365 0.929 . S
C354 C350 1.531 1_556 S
C354 H366 0.960 . S
C354 H367 0.962 . S
C354 H368 0.960 . S
C355 C352 1.511 . S
C355 H369 0.961 . S
C355 H370 0.961 . S
C355 H371 0.961 . S
C356 C357 1.370 . S
C356 C358 1.373 . S
C356 H372 0.931 . S
C357 C356 1.370 . S
C357 C361 1.408 . S
C358 C356 1.373 . S
C358 C359 1.370 . S
C358 C362 1.514 1_556 S
C359 C351 1.492 1_556 S
C359 C358 1.370 . S
C359 C360 1.415 . S
C360 C359 1.415 . S
C360 C361 1.404 . S
C360 C363 1.539 . S
C361 C357 1.408 . S
C361 C360 1.404 . S
C361 H373 0.930 . S
C362 C358 1.514 1_554 S
C362 H374 0.956 . S
C362 H375 0.961 . S
C362 H376 0.961 . S
C363 C360 1.539 . S
C363 H377 0.958 . S
C363 H378 0.961 . S
C363 H379 0.960 1_556 S
H364 C348 0.931 . S
H365 C353 0.929 . S
H366 C354 0.960 . S
H367 C354 0.962 . S
H368 C354 0.960 . S
H369 C355 0.961 . S
H370 C355 0.961 . S
H371 C355 0.961 . S
H372 C356 0.931 . S
H373 C361 0.930 . S
H374 C362 0.956 . S
H375 C362 0.961 . S
H376 C362 0.961 . S
H377 C363 0.958 . S
H378 C363 0.961 . S
H379 C363 0.960 1_554 S
C380 C381 1.391 . S
C380 C382 1.394 . S
C380 H396 0.931 . S
C381 C380 1.391 . S
C381 C385 1.376 . S
C382 C380 1.394 . S
C382 C383 1.369 1_556 S
C382 C386 1.531 1_556 S
C383 C382 1.369 1_554 S
C383 C384 1.410 1_554 S
C383 C391 1.503 . S
C384 C383 1.410 1_556 S
C384 C385 1.392 . S
C384 C387 1.511 1_556 S
C385 C381 1.376 . S
C385 C384 1.392 . S
C385 H397 0.929 . S
C386 C382 1.531 1_554 S
C386 H398 0.960 . S
C386 H399 0.962 1_554 S
C386 H400 0.960 . S
C387 C384 1.511 1_554 S
C387 H401 0.961 1_554 S
C387 H402 0.961 . S
C387 H403 0.961 . S
C388 C389 1.370 . S
C388 C390 1.363 . S
C388 H404 0.931 . S
C389 C388 1.370 . S
C389 C393 1.408 . S
C390 C388 1.363 . S
C390 C391 1.370 . S
C390 C394 1.524 1_554 S
C391 C383 1.503 . S
C391 C390 1.370 . S
C391 C392 1.403 . S
C392 C391 1.403 . S
C392 C393 1.404 . S
C392 C395 1.539 . S
C393 C389 1.408 . S
C393 C392 1.404 . S
C393 H405 0.930 . S
C394 C390 1.524 1_556 S
C394 H406 0.956 . S
C394 H407 0.961 . S
C394 H408 0.961 . S
C395 C392 1.539 . S
C395 H409 0.958 . S
C395 H410 0.961 . S
C395 H411 0.960 . S
H396 C380 0.931 . S
H397 C385 0.929 . S
H398 C386 0.960 . S
H399 C386 0.962 1_556 S
H400 C386 0.960 . S
H401 C387 0.961 1_556 S
H402 C387 0.961 . S
H403 C387 0.961 . S
H404 C388 0.931 . S
H405 C393 0.930 . S
H406 C394 0.956 . S
H407 C394 0.961 . S
H408 C394 0.961 . S
H409 C395 0.958 . S
H410 C395 0.961 . S
H411 C395 0.960 . S
C412 C413 1.391 . S
C412 C414 1.394 . S
C412 H428 0.931 . S
C413 C412 1.391 . S
C413 C417 1.376 . S
C414 C412 1.394 . S
C414 C415 1.369 . S
C414 C418 1.531 . S
C415 C414 1.369 . S
C415 C416 1.410 . S
C415 C423 1.503 . S
C416 C415 1.410 . S
C416 C417 1.392 . S
C416 C419 1.511 . S
C417 C413 1.376 . S
C417 C416 1.392 . S
C417 H429 0.929 . S
C418 C414 1.531 . S
C418 H430 0.960 . S
C418 H431 0.962 1_554 S
C418 H432 0.960 . S
C419 C416 1.511 . S
C419 H433 0.961 . S
C419 H434 0.961 . S
C419 H435 0.961 . S
C420 C421 1.370 . S
C420 C422 1.363 . S
C420 H436 0.931 . S
C421 C420 1.370 . S
C421 C425 1.408 1_556 S
C422 C420 1.363 . S
C422 C423 1.370 1_556 S
C422 C426 1.524 . S
C423 C415 1.503 . S
C423 C422 1.370 1_554 S
C423 C424 1.403 . S
C424 C423 1.403 . S
C424 C425 1.404 . S
C424 C427 1.539 . S
C425 C421 1.408 1_554 S
C425 C424 1.404 . S
C425 H437 0.930 . S
C426 C422 1.524 . S
C426 H438 0.956 . S
C426 H439 0.961 . S
C426 H440 0.961 . S
C427 C424 1.539 . S
C427 H441 0.958 . S
C427 H442 0.961 . S
C427 H443 0.960 . S
H428 C412 0.931 . S
H429 C417 0.929 . S
H430 C418 0.960 . S
H431 C418 0.962 1_556 S
H432 C418 0.960 . S
H433 C419 0.961 . S
H434 C419 0.961 . S
H435 C419 0.961 . S
H436 C420 0.931 . S
H437 C425 0.930 . S
H438 C426 0.956 . S
H439 C426 0.961 . S
H440 C426 0.961 . S
H441 C427 0.958 . S
H442 C427 0.961 . S
H443 C427 0.960 . S
C444 C445 1.391 . S
C444 C446 1.394 . S
C444 H460 0.931 . S
C445 C444 1.391 . S
C445 C449 1.376 . S
C446 C444 1.394 . S
C446 C447 1.369 . S
C446 C450 1.531 . S
C447 C446 1.369 . S
C447 C448 1.410 . S
C447 C455 1.503 . S
C448 C447 1.410 . S
C448 C449 1.392 . S
C448 C451 1.511 . S
C449 C445 1.376 . S
C449 C448 1.392 . S
C449 H461 0.929 . S
C450 C446 1.531 . S
C450 H462 0.960 . S
C450 H463 0.962 . S
C450 H464 0.960 . S
C451 C448 1.511 . S
C451 H465 0.961 . S
C451 H466 0.961 . S
C451 H467 0.961 . S
C452 C453 1.370 . S
C452 C454 1.363 . S
C452 H468 0.931 . S
C453 C452 1.370 . S
C453 C457 1.408 . S
C454 C452 1.363 . S
C454 C455 1.370 . S
C454 C458 1.524 . S
C455 C447 1.503 . S
C455 C454 1.370 . S
C455 C456 1.403 . S
C456 C455 1.403 . S
C456 C457 1.404 . S
C456 C459 1.539 . S
C457 C453 1.408 . S
C457 C456 1.404 . S
C457 H469 0.930 . S
C458 C454 1.524 . S
C458 H470 0.956 . S
C458 H471 0.961 . S
C458 H472 0.961 . S
C459 C456 1.539 . S
C459 H473 0.958 . S
C459 H474 0.961 . S
C459 H475 0.960 . S
H460 C444 0.931 . S
H461 C449 0.929 . S
H462 C450 0.960 . S
H463 C450 0.962 . S
H464 C450 0.960 . S
H465 C451 0.961 . S
H466 C451 0.961 . S
H467 C451 0.961 . S
H468 C452 0.931 . S
H469 C457 0.930 . S
H470 C458 0.956 . S
H471 C458 0.961 . S
H472 C458 0.961 . S
H473 C459 0.958 . S
H474 C459 0.961 . S
H475 C459 0.960 . S
C476 C477 1.391 . S
C476 C478 1.394 . S
C476 H492 0.931 . S
C477 C476 1.391 . S
C477 C481 1.376 . S
C478 C476 1.394 . S
C478 C479 1.369 . S
C478 C482 1.531 . S
C479 C478 1.369 . S
C479 C480 1.410 . S
C479 C487 1.503 . S
C480 C479 1.410 . S
C480 C481 1.392 . S
C480 C483 1.511 . S
C481 C477 1.376 . S
C481 C480 1.392 . S
C481 H493 0.929 . S
C482 C478 1.531 . S
C482 H494 0.960 . S
C482 H495 0.962 . S
C482 H496 0.960 . S
C483 C480 1.511 . S
C483 H497 0.961 . S
C483 H498 0.961 . S
C483 H499 0.961 . S
C484 C485 1.370 . S
C484 C486 1.363 . S
C484 H500 0.931 . S
C485 C484 1.370 . S
C485 C489 1.408 . S
C486 C484 1.363 . S
C486 C487 1.370 . S
C486 C490 1.524 . S
C487 C479 1.503 . S
C487 C486 1.370 . S
C487 C488 1.403 . S
C488 C487 1.403 . S
C488 C489 1.404 . S
C488 C491 1.539 . S
C489 C485 1.408 . S
C489 C488 1.404 . S
C489 H501 0.930 . S
C490 C486 1.524 . S
C490 H502 0.956 . S
C490 H503 0.961 . S
C490 H504 0.961 . S
C491 C488 1.539 . S
C491 H505 0.958 . S
C491 H506 0.961 . S
C491 H507 0.960 . S
H492 C476 0.931 . S
H493 C481 0.929 . S
H494 C482 0.960 . S
H495 C482 0.962 . S
H496 C482 0.960 . S
H497 C483 0.961 . S
H498 C483 0.961 . S
H499 C483 0.961 . S
H500 C484 0.931 . S
H501 C489 0.930 . S
H502 C490 0.956 . S
H503 C490 0.961 . S
H504 C490 0.961 . S
H505 C491 0.958 . S
H506 C491 0.961 . S
H507 C491 0.960 . S
C508 C509 1.391 . S
C508 C510 1.394 . S
C508 H524 0.931 . S
C509 C508 1.391 . S
C509 C513 1.376 . S
C510 C508 1.394 . S
C510 C511 1.369 . S
C510 C514 1.531 . S
C511 C510 1.369 . S
C511 C512 1.410 . S
C511 C519 1.503 . S
C512 C511 1.410 . S
C512 C513 1.392 . S
C512 C515 1.511 . S
C513 C509 1.376 . S
C513 C512 1.392 . S
C513 H525 0.929 . S
C514 C510 1.531 . S
C514 H526 0.960 . S
C514 H527 0.962 . S
C514 H528 0.960 . S
C515 C512 1.511 . S
C515 H529 0.961 . S
C515 H530 0.961 . S
C515 H531 0.961 . S
C516 C517 1.370 . S
C516 C518 1.363 . S
C516 H532 0.931 . S
C517 C516 1.370 . S
C517 C521 1.408 . S
C518 C516 1.363 . S
C518 C519 1.370 . S
C518 C522 1.524 . S
C519 C511 1.503 . S
C519 C518 1.370 . S
C519 C520 1.403 . S
C520 C519 1.403 . S
C520 C521 1.404 . S
C520 C523 1.539 . S
C521 C517 1.408 . S
C521 C520 1.404 . S
C521 H533 0.930 . S
C522 C518 1.524 . S
C522 H534 0.956 . S
C522 H535 0.961 . S
C522 H536 0.961 . S
C523 C520 1.539 . S
C523 H537 0.958 . S
C523 H538 0.961 . S
C523 H539 0.960 . S
H524 C508 0.931 . S
H525 C513 0.929 . S
H526 C514 0.960 . S
H527 C514 0.962 . S
H528 C514 0.960 . S
H529 C515 0.961 . S
H530 C515 0.961 . S
H531 C515 0.961 . S
H532 C516 0.931 . S
H533 C521 0.930 . S
H534 C522 0.956 . S
H535 C522 0.961 . S
H536 C522 0.961 . S
H537 C523 0.958 . S
H538 C523 0.961 . S
H539 C523 0.960 . S
C540 C541 1.391 . S
C540 C542 1.394 . S
C540 H556 0.931 . S
C541 C540 1.391 . S
C541 C545 1.376 . S
C542 C540 1.394 . S
C542 C543 1.369 . S
C542 C546 1.531 . S
C543 C542 1.369 . S
C543 C544 1.410 . S
C543 C551 1.503 . S
C544 C543 1.410 . S
C544 C545 1.392 . S
C544 C547 1.511 . S
C545 C541 1.376 . S
C545 C544 1.392 . S
C545 H557 0.929 . S
C546 C542 1.531 . S
C546 H558 0.960 . S
C546 H559 0.962 . S
C546 H560 0.960 . S
C547 C544 1.511 . S
C547 H561 0.961 . S
C547 H562 0.961 . S
C547 H563 0.961 . S
C548 C549 1.370 . S
C548 C550 1.363 . S
C548 H564 0.931 . S
C549 C548 1.370 . S
C549 C553 1.408 . S
C550 C548 1.363 . S
C550 C551 1.370 . S
C550 C554 1.524 . S
C551 C543 1.503 . S
C551 C550 1.370 . S
C551 C552 1.403 . S
C552 C551 1.403 . S
C552 C553 1.404 . S
C552 C555 1.539 . S
C553 C549 1.408 . S
C553 C552 1.404 . S
C553 H565 0.930 . S
C554 C550 1.524 . S
C554 H566 0.956 . S
C554 H567 0.961 . S
C554 H568 0.961 . S
C555 C552 1.539 . S
C555 H569 0.958 . S
C555 H570 0.961 . S
C555 H571 0.960 . S
H556 C540 0.931 . S
H557 C545 0.929 . S
H558 C546 0.960 . S
H559 C546 0.962 . S
H560 C546 0.960 . S
H561 C547 0.961 . S
H562 C547 0.961 . S
H563 C547 0.961 . S
H564 C548 0.931 . S
H565 C553 0.930 . S
H566 C554 0.956 . S
H567 C554 0.961 . S
H568 C554 0.961 . S
H569 C555 0.958 . S
H570 C555 0.961 . S
H571 C555 0.960 . S
C572 C573 1.391 . S
C572 C574 1.394 . S
C572 H588 0.931 . S
C573 C572 1.391 . S
C573 C577 1.376 . S
C574 C572 1.394 . S
C574 C575 1.369 . S
C574 C578 1.531 . S
C575 C574 1.369 . S
C575 C576 1.410 . S
C575 C583 1.503 . S
C576 C575 1.410 . S
C576 C577 1.392 . S
C576 C579 1.511 . S
C577 C573 1.376 . S
C577 C576 1.392 . S
C577 H589 0.929 . S
C578 C574 1.531 . S
C578 H590 0.960 . S
C578 H591 0.962 . S
C578 H592 0.960 . S
C579 C576 1.511 . S
C579 H593 0.961 . S
C579 H594 0.961 . S
C579 H595 0.961 . S
C580 C581 1.370 . S
C580 C582 1.363 . S
C580 H596 0.931 . S
C581 C580 1.370 . S
C581 C585 1.408 . S
C582 C580 1.363 . S
C582 C583 1.370 . S
C582 C586 1.524 . S
C583 C575 1.503 . S
C583 C582 1.370 . S
C583 C584 1.403 . S
C584 C583 1.403 . S
C584 C585 1.404 . S
C584 C587 1.539 . S
C585 C581 1.408 . S
C585 C584 1.404 . S
C585 H597 0.930 . S
C586 C582 1.524 . S
C586 H598 0.956 . S
C586 H599 0.961 . S
C586 H600 0.961 . S
C587 C584 1.539 . S
C587 H601 0.958 . S
C587 H602 0.961 . S
C587 H603 0.960 . S
H588 C572 0.931 . S
H589 C577 0.929 . S
H590 C578 0.960 . S
H591 C578 0.962 . S
H592 C578 0.960 . S
H593 C579 0.961 . S
H594 C579 0.961 . S
H595 C579 0.961 . S
H596 C580 0.931 . S
H597 C585 0.930 . S
H598 C586 0.956 . S
H599 C586 0.961 . S
H600 C586 0.961 . S
H601 C587 0.958 . S
H602 C587 0.961 . S
H603 C587 0.960 . S
C604 C605 1.391 . S
C604 C606 1.394 . S
C604 H620 0.931 . S
C605 C604 1.391 . S
C605 C609 1.376 . S
C606 C604 1.394 . S
C606 C607 1.369 . S
C606 C610 1.531 . S
C607 C606 1.369 . S
C607 C608 1.410 . S
C607 C615 1.503 . S
C608 C607 1.410 . S
C608 C609 1.392 . S
C608 C611 1.511 . S
C609 C605 1.376 . S
C609 C608 1.392 . S
C609 H621 0.929 . S
C610 C606 1.531 . S
C610 H622 0.960 . S
C610 H623 0.962 . S
C610 H624 0.960 . S
C611 C608 1.511 . S
C611 H625 0.961 . S
C611 H626 0.961 . S
C611 H627 0.961 . S
C612 C613 1.370 . S
C612 C614 1.363 . S
C612 H628 0.931 . S
C613 C612 1.370 . S
C613 C617 1.408 . S
C614 C612 1.363 . S
C614 C615 1.370 . S
C614 C618 1.524 . S
C615 C607 1.503 . S
C615 C614 1.370 . S
C615 C616 1.403 . S
C616 C615 1.403 . S
C616 C617 1.404 . S
C616 C619 1.539 . S
C617 C613 1.408 . S
C617 C616 1.404 . S
C617 H629 0.930 . S
C618 C614 1.524 . S
C618 H630 0.956 . S
C618 H631 0.961 . S
C618 H632 0.961 . S
C619 C616 1.539 . S
C619 H633 0.958 . S
C619 H634 0.961 . S
C619 H635 0.960 . S
H620 C604 0.931 . S
H621 C609 0.929 . S
H622 C610 0.960 . S
H623 C610 0.962 . S
H624 C610 0.960 . S
H625 C611 0.961 . S
H626 C611 0.961 . S
H627 C611 0.961 . S
H628 C612 0.931 . S
H629 C617 0.930 . S
H630 C618 0.956 . S
H631 C618 0.961 . S
H632 C618 0.961 . S
H633 C619 0.958 . S
H634 C619 0.961 . S
H635 C619 0.960 . S
C636 C637 1.391 . S
C636 C638 1.394 . S
C636 H652 0.931 . S
C637 C636 1.391 . S
C637 C641 1.376 . S
C638 C636 1.394 . S
C638 C639 1.369 . S
C638 C642 1.531 . S
C639 C638 1.369 . S
C639 C640 1.410 . S
C639 C647 1.503 . S
C640 C639 1.410 . S
C640 C641 1.392 . S
C640 C643 1.511 . S
C641 C637 1.376 . S
C641 C640 1.392 . S
C641 H653 0.929 . S
C642 C638 1.531 . S
C642 H654 0.960 . S
C642 H655 0.962 . S
C642 H656 0.960 . S
C643 C640 1.511 . S
C643 H657 0.961 . S
C643 H658 0.961 . S
C643 H659 0.961 . S
C644 C645 1.370 . S
C644 C646 1.363 . S
C644 H660 0.931 . S
C645 C644 1.370 . S
C645 C649 1.408 . S
C646 C644 1.363 . S
C646 C647 1.370 . S
C646 C650 1.524 . S
C647 C639 1.503 . S
C647 C646 1.370 . S
C647 C648 1.403 . S
C648 C647 1.403 . S
C648 C649 1.404 . S
C648 C651 1.539 . S
C649 C645 1.408 . S
C649 C648 1.404 . S
C649 H661 0.930 . S
C650 C646 1.524 . S
C650 H662 0.956 . S
C650 H663 0.961 . S
C650 H664 0.961 . S
C651 C648 1.539 . S
C651 H665 0.958 . S
C651 H666 0.961 . S
C651 H667 0.960 . S
H652 C636 0.931 . S
H653 C641 0.929 . S
H654 C642 0.960 . S
H655 C642 0.962 . S
H656 C642 0.960 . S
H657 C643 0.961 . S
H658 C643 0.961 . S
H659 C643 0.961 . S
H660 C644 0.931 . S
H661 C649 0.930 . S
H662 C650 0.956 . S
H663 C650 0.961 . S
H664 C650 0.961 . S
H665 C651 0.958 . S
H666 C651 0.961 . S
H667 C651 0.960 . S
C668 C669 1.391 . S
C668 C670 1.394 . S
C668 H684 0.931 . S
C669 C668 1.391 . S
C669 C673 1.376 . S
C670 C668 1.394 . S
C670 C671 1.369 . S
C670 C674 1.531 . S
C671 C670 1.369 . S
C671 C672 1.410 . S
C671 C679 1.503 . S
C672 C671 1.410 . S
C672 C673 1.392 . S
C672 C675 1.511 . S
C673 C669 1.376 . S
C673 C672 1.392 . S
C673 H685 0.929 . S
C674 C670 1.531 . S
C674 H686 0.960 . S
C674 H687 0.962 . S
C674 H688 0.960 . S
C675 C672 1.511 . S
C675 H689 0.961 . S
C675 H690 0.961 . S
C675 H691 0.961 . S
C676 C677 1.370 . S
C676 C678 1.363 . S
C676 H692 0.931 . S
C677 C676 1.370 . S
C677 C681 1.408 . S
C678 C676 1.363 . S
C678 C679 1.370 . S
C678 C682 1.524 . S
C679 C671 1.503 . S
C679 C678 1.370 . S
C679 C680 1.403 . S
C680 C679 1.403 . S
C680 C681 1.404 . S
C680 C683 1.539 . S
C681 C677 1.408 . S
C681 C680 1.404 . S
C681 H693 0.930 . S
C682 C678 1.524 . S
C682 H694 0.956 . S
C682 H695 0.961 . S
C682 H696 0.961 . S
C683 C680 1.539 . S
C683 H697 0.958 . S
C683 H698 0.961 . S
C683 H699 0.960 . S
H684 C668 0.931 . S
H685 C673 0.929 . S
H686 C674 0.960 . S
H687 C674 0.962 . S
H688 C674 0.960 . S
H689 C675 0.961 . S
H690 C675 0.961 . S
H691 C675 0.961 . S
H692 C676 0.931 . S
H693 C681 0.930 . S
H694 C682 0.956 . S
H695 C682 0.961 . S
H696 C682 0.961 . S
H697 C683 0.958 . S
H698 C683 0.961 . S
H699 C683 0.960 . S
C700 C701 1.391 . S
C700 C702 1.394 . S
C700 H716 0.931 . S
C701 C700 1.391 . S
C701 C705 1.376 . S
C702 C700 1.394 . S
C702 C703 1.369 . S
C702 C706 1.531 . S
C703 C702 1.369 . S
C703 C704 1.410 . S
C703 C711 1.503 . S
C704 C703 1.410 . S
C704 C705 1.392 . S
C704 C707 1.511 . S
C705 C701 1.376 . S
C705 C704 1.392 . S
C705 H717 0.929 . S
C706 C702 1.531 . S
C706 H718 0.960 . S
C706 H719 0.962 . S
C706 H720 0.960 . S
C707 C704 1.511 . S
C707 H721 0.961 . S
C707 H722 0.961 . S
C707 H723 0.961 . S
C708 C709 1.370 . S
C708 C710 1.363 . S
C708 H724 0.931 . S
C709 C708 1.370 . S
C709 C713 1.408 . S
C710 C708 1.363 . S
C710 C711 1.370 . S
C710 C714 1.524 . S
C711 C703 1.503 . S
C711 C710 1.370 . S
C711 C712 1.403 . S
C712 C711 1.403 . S
C712 C713 1.404 . S
C712 C715 1.539 . S
C713 C709 1.408 . S
C713 C712 1.404 . S
C713 H725 0.930 . S
C714 C710 1.524 . S
C714 H726 0.956 . S
C714 H727 0.961 . S
C714 H728 0.961 . S
C715 C712 1.539 . S
C715 H729 0.958 . S
C715 H730 0.961 . S
C715 H731 0.960 . S
H716 C700 0.931 . S
H717 C705 0.929 . S
H718 C706 0.960 . S
H719 C706 0.962 . S
H720 C706 0.960 . S
H721 C707 0.961 . S
H722 C707 0.961 . S
H723 C707 0.961 . S
H724 C708 0.931 . S
H725 C713 0.930 . S
H726 C714 0.956 . S
H727 C714 0.961 . S
H728 C714 0.961 . S
H729 C715 0.958 . S
H730 C715 0.961 . S
H731 C715 0.960 . S
C732 C733 1.391 . S
C732 C734 1.394 . S
C732 H748 0.931 . S
C733 C732 1.391 . S
C733 C737 1.376 . S
C734 C732 1.394 . S
C734 C735 1.369 . S
C734 C738 1.531 . S
C735 C734 1.369 . S
C735 C736 1.410 1_554 S
C735 C743 1.483 1_454 S
C736 C735 1.410 1_556 S
C736 C737 1.392 1_556 S
C736 C739 1.511 1_455 S
C737 C733 1.376 . S
C737 C736 1.392 1_554 S
C737 H749 0.929 . S
C738 C734 1.531 . S
C738 H750 0.960 . S
C738 H751 0.962 . S
C738 H752 0.960 . S
C739 C736 1.511 1_655 S
C739 H753 0.961 . S
C739 H754 0.961 . S
C739 H755 0.961 1_655 S
C740 C741 1.370 . S
C740 C742 1.363 . S
C740 H756 0.931 . S
C741 C740 1.370 . S
C741 C745 1.408 1_655 S
C742 C740 1.363 . S
C742 C743 1.398 . S
C742 C746 1.524 1_556 S
C743 C735 1.483 1_656 S
C743 C742 1.398 . S
C743 C744 1.395 1_655 S
C744 C743 1.395 1_455 S
C744 C745 1.404 . S
C744 C747 1.539 . S
C745 C741 1.408 1_455 S
C745 C744 1.404 . S
C745 H757 0.930 . S
C746 C742 1.524 1_554 S
C746 H758 0.956 . S
C746 H759 0.961 . S
C746 H760 0.961 . S
C747 C744 1.539 . S
C747 H761 0.958 . S
C747 H762 0.961 . S
C747 H763 0.960 . S
H748 C732 0.931 . S
H749 C737 0.929 . S
H750 C738 0.960 . S
H751 C738 0.962 . S
H752 C738 0.960 . S
H753 C739 0.961 . S
H754 C739 0.961 . S
H755 C739 0.961 1_455 S
H756 C740 0.931 . S
H757 C745 0.930 . S
H758 C746 0.956 . S
H759 C746 0.961 . S
H760 C746 0.961 . S
H761 C747 0.958 . S
H762 C747 0.961 . S
H763 C747 0.960 . S
C764 C765 1.391 . S
C764 C766 1.394 . S
C764 H780 0.931 . S
C765 C764 1.391 . S
C765 C769 1.376 . S
C766 C764 1.394 . S
C766 C767 1.369 . S
C766 C770 1.531 . S
C767 C766 1.369 . S
C767 C768 1.410 . S
C767 C775 1.503 1_554 S
C768 C767 1.410 . S
C768 C769 1.392 . S
C768 C771 1.511 1_554 S
C769 C765 1.376 . S
C769 C768 1.392 . S
C769 H781 0.929 . S
C770 C766 1.531 . S
C770 H782 0.960 1_554 S
C770 H783 0.962 . S
C770 H784 0.960 . S
C771 C768 1.511 1_556 S
C771 H785 0.961 1_556 S
C771 H786 0.961 . S
C771 H787 0.961 . S
C772 C773 1.370 . S
C772 C774 1.363 1_556 S
C772 H788 0.929 1_556 S
C773 C772 1.370 . S
C773 C777 1.408 . S
C774 C772 1.363 1_554 S
C774 C775 1.370 1_554 S
C774 C778 1.524 . S
C775 C767 1.503 1_556 S
C775 C774 1.370 1_556 S
C775 C776 1.403 . S
C776 C775 1.403 . S
C776 C777 1.404 . S
C776 C779 1.539 . S
C777 C773 1.408 . S
C777 C776 1.404 . S
C777 H789 0.930 . S
C778 C774 1.524 . S
C778 H790 0.956 . S
C778 H791 0.961 . S
C778 H792 0.961 . S
C779 C776 1.539 . S
C779 H793 0.958 . S
C779 H794 0.961 . S
C779 H795 0.960 . S
H780 C764 0.931 . S
H781 C769 0.929 . S
H782 C770 0.960 1_556 S
H783 C770 0.962 . S
H784 C770 0.960 . S
H785 C771 0.961 1_554 S
H786 C771 0.961 . S
H787 C771 0.961 . S
H788 C772 0.929 1_554 S
H789 C777 0.930 . S
H790 C778 0.956 . S
H791 C778 0.961 . S
H792 C778 0.961 . S
H793 C779 0.958 . S
H794 C779 0.961 . S
H795 C779 0.960 . S
C796 C797 1.391 1_545 S
C796 C798 1.394 . S
C796 H812 0.931 . S
C797 C796 1.391 1_565 S
C797 C801 1.376 . S
C798 C796 1.394 . S
C798 C799 1.369 1_545 S
C798 C802 1.531 . S
C799 C798 1.369 1_565 S
C799 C800 1.410 . S
C799 C807 1.503 1_564 S
C800 C799 1.410 . S
C800 C801 1.392 . S
C800 C803 1.511 . S
C801 C797 1.376 . S
C801 C800 1.392 . S
C801 H813 0.929 . S
C802 C798 1.531 . S
C802 H814 0.960 . S
C802 H815 0.962 1_554 S
C802 H816 0.960 . S
C803 C800 1.511 . S
C803 H817 0.961 . S
C803 H818 0.961 . S
C803 H819 0.961 . S
C804 C805 1.370 . S
C804 C806 1.363 . S
C804 H820 0.931 . S
C805 C804 1.370 . S
C805 C809 1.408 . S
C806 C804 1.363 . S
C806 C807 1.370 . S
C806 C810 1.524 1_545 S
C807 C799 1.503 1_546 S
C807 C806 1.370 . S
C807 C808 1.403 1_556 S
C808 C807 1.403 1_554 S
C808 C809 1.404 1_554 S
C808 C811 1.539 . S
C809 C805 1.408 . S
C809 C808 1.404 1_556 S
C809 H821 0.939 . S
C810 C806 1.524 1_565 S
C810 H822 0.956 . S
C810 H823 0.961 . S
C810 H824 0.961 . S
C811 C808 1.539 . S
C811 H825 0.958 . S
C811 H826 0.961 . S
C811 H827 0.960 . S
H812 C796 0.931 . S
H813 C801 0.929 . S
H814 C802 0.960 . S
H815 C802 0.962 1_556 S
H816 C802 0.960 . S
H817 C803 0.961 . S
H818 C803 0.961 . S
H819 C803 0.961 . S
H820 C804 0.931 . S
H821 C809 0.939 . S
H822 C810 0.956 . S
H823 C810 0.961 . S
H824 C810 0.961 . S
H825 C811 0.958 . S
H826 C811 0.961 . S
H827 C811 0.960 . S
C828 C829 1.391 1_545 S
C828 C830 1.394 . S
C828 H844 0.931 . S
C829 C828 1.391 1_565 S
C829 C833 1.376 . S
C830 C828 1.394 . S
C830 C831 1.369 1_545 S
C830 C834 1.531 . S
C831 C830 1.369 1_565 S
C831 C832 1.410 . S
C831 C839 1.503 1_565 S
C832 C831 1.410 . S
C832 C833 1.392 . S
C832 C835 1.511 . S
C833 C829 1.376 . S
C833 C832 1.392 . S
C833 H845 0.929 . S
C834 C830 1.531 . S
C834 H846 0.960 . S
C834 H847 0.962 . S
C834 H848 0.960 . S
C835 C832 1.511 . S
C835 H849 0.961 . S
C835 H850 0.961 . S
C835 H851 0.961 . S
C836 C837 1.370 . S
C836 C838 1.363 . S
C836 H852 0.931 . S
C837 C836 1.370 . S
C837 C841 1.408 . S
C838 C836 1.363 . S
C838 C839 1.370 . S
C838 C842 1.524 . S
C839 C831 1.503 1_545 S
C839 C838 1.370 . S
C839 C840 1.403 1_545 S
C840 C839 1.403 1_565 S
C840 C841 1.404 1_565 S
C840 C843 1.539 . S
C841 C837 1.408 . S
C841 C840 1.404 1_545 S
C841 H853 0.930 . S
C842 C838 1.524 . S
C842 H854 0.956 . S
C842 H855 0.961 . S
C842 H856 0.961 . S
C843 C840 1.539 . S
C843 H857 0.958 . S
C843 H858 0.961 . S
C843 H859 0.960 . S
H844 C828 0.931 . S
H845 C833 0.929 . S
H846 C834 0.960 . S
H847 C834 0.962 . S
H848 C834 0.960 . S
H849 C835 0.961 . S
H850 C835 0.961 . S
H851 C835 0.961 . S
H852 C836 0.931 . S
H853 C841 0.930 . S
H854 C842 0.956 . S
H855 C842 0.961 . S
H856 C842 0.961 . S
H857 C843 0.958 . S
H858 C843 0.961 . S
H859 C843 0.960 . S
C860 C861 1.391 . S
C860 C862 1.394 . S
C860 H876 0.931 . S
C861 C860 1.391 . S
C861 C865 1.376 1_655 S
C862 C860 1.394 . S
C862 C863 1.369 . S
C862 C866 1.531 . S
C863 C862 1.369 . S
C863 C864 1.410 1_655 S
C863 C871 1.503 1_655 S
C864 C863 1.410 1_455 S
C864 C865 1.392 . S
C864 C867 1.511 . S
C865 C861 1.376 1_455 S
C865 C864 1.392 . S
C865 H877 0.929 . S
C866 C862 1.531 . S
C866 H878 0.960 . S
C866 H879 0.962 . S
C866 H880 0.960 . S
C867 C864 1.511 . S
C867 H881 0.961 . S
C867 H882 0.961 . S
C867 H883 0.961 . S
C868 C869 1.370 . S
C868 C870 1.363 . S
C868 H884 0.931 . S
C869 C868 1.370 . S
C869 C873 1.408 . S
C870 C868 1.363 . S
C870 C871 1.370 . S
C870 C874 1.524 . S
C871 C863 1.503 1_455 S
C871 C870 1.370 . S
C871 C872 1.403 . S
C872 C871 1.403 . S
C872 C873 1.404 . S
C872 C875 1.539 . S
C873 C869 1.408 . S
C873 C872 1.404 . S
C873 H885 0.930 . S
C874 C870 1.524 . S
C874 H886 0.956 1_455 S
C874 H887 0.961 . S
C874 H888 0.961 . S
C875 C872 1.539 . S
C875 H889 0.958 1_455 S
C875 H890 0.961 . S
C875 H891 0.960 . S
H876 C860 0.931 . S
H877 C865 0.929 . S
H878 C866 0.960 . S
H879 C866 0.962 . S
H880 C866 0.960 . S
H881 C867 0.961 . S
H882 C867 0.961 . S
H883 C867 0.961 . S
H884 C868 0.931 . S
H885 C873 0.930 . S
H886 C874 0.956 1_655 S
H887 C874 0.961 . S
H888 C874 0.961 . S
H889 C875 0.958 1_655 S
H890 C875 0.961 . S
H891 C875 0.960 . S
C892 C893 1.391 . S
C892 C894 1.394 . S
C892 H908 0.931 . S
C893 C892 1.391 . S
C893 C897 1.376 . S
C894 C892 1.394 . S
C894 C895 1.369 . S
C894 C898 1.531 . S
C895 C894 1.369 . S
C895 C896 1.410 . S
C895 C903 1.503 . S
C896 C895 1.410 . S
C896 C897 1.392 . S
C896 C899 1.511 . S
C897 C893 1.376 . S
C897 C896 1.392 . S
C897 H909 0.929 . S
C898 C894 1.531 . S
C898 H910 0.960 . S
C898 H911 0.962 . S
C898 H912 0.960 . S
C899 C896 1.511 . S
C899 H913 0.961 . S
C899 H914 0.961 . S
C899 H915 0.961 . S
C900 C901 1.370 . S
C900 C902 1.363 . S
C900 H916 0.931 . S
C901 C900 1.370 . S
C901 C905 1.408 . S
C902 C900 1.363 . S
C902 C903 1.370 . S
C902 C906 1.524 . S
C903 C895 1.503 . S
C903 C902 1.370 . S
C903 C904 1.403 . S
C904 C903 1.403 . S
C904 C905 1.404 . S
C904 C907 1.539 . S
C905 C901 1.408 . S
C905 C904 1.404 . S
C905 H917 0.930 . S
C906 C902 1.524 . S
C906 H918 0.956 . S
C906 H919 0.961 . S
C906 H920 0.961 . S
C907 C904 1.539 . S
C907 H921 0.958 . S
C907 H922 0.961 . S
C907 H923 0.960 . S
H908 C892 0.931 . S
H909 C897 0.929 . S
H910 C898 0.960 . S
H911 C898 0.962 . S
H912 C898 0.960 . S
H913 C899 0.961 . S
H914 C899 0.961 . S
H915 C899 0.961 . S
H916 C900 0.931 . S
H917 C905 0.930 . S
H918 C906 0.956 . S
H919 C906 0.961 . S
H920 C906 0.961 . S
H921 C907 0.958 . S
H922 C907 0.961 . S
H923 C907 0.960 . S
C157 C8 0.731 . S
C165 C96 0.659 . S
C189 C21 0.652 . S
C197 C109 0.696 . S
C221 C34 0.739 . S
C229 C83 0.664 . S
C253 C148 0.641 . S
C261 C47 0.705 . S
C285 C60 0.695 . S
C293 C122 0.698 . S
C317 C135 0.615 . S
C325 C73 0.705 . S
C349 C18 0.712 . S
C357 C86 0.663 . S
C381 C99 0.662 . S
C389 C31 0.718 . S
C413 C5 0.755 . S
C421 C112 0.676 . S
C445 C125 0.713 . S
C453 C70 0.660 . S
C477 C138 0.660 . S
C485 C44 0.718 . S
C509 C57 0.615 . S
C517 C151 0.702 . S
C541 C65 1.711 . S
C549 C0 1.717 . S
C573 C13 1.743 . S
C581 C39 1.725 . S
C605 C26 1.699 . S
C613 C52 1.723 . S
C637 C78 1.717 . S
C645 C143 1.718 . S
C669 C91 1.722 . S
C677 C117 1.734 . S
C701 C104 1.701 . S
C709 C130 1.732 . S
C733 C10 1.494 . S
C741 C88 1.517 . S
C765 C23 1.479 . S
C773 C101 1.522 . S
C797 C36 1.533 . S
C805 C114 1.499 . S
C829 C49 1.532 . S
C837 C127 1.501 . S
C861 C140 1.535 . S
C869 C62 1.499 . S
C893 C75 1.532 . S
C901 C153 1.501 . S
