# Generated by pormake.
# Topology qtz-e, (6)-cn, num edge types: 1
# Building blocks:
#     Node 0, Type 0, BuildingBlock: PAMTUU_clean_sbu_0, # of connection points: 6
#     Node 1, Type 0, BuildingBlock: PAMTUU_clean_sbu_0, # of connection points: 6
#     Node 2, Type 0, BuildingBlock: PAMTUU_clean_sbu_0, # of connection points: 6
#     Node 3, Type 0, BuildingBlock: PAMTUU_clean_sbu_0, # of connection points: 6
#     Node 4, Type 0, BuildingBlock: PAMTUU_clean_sbu_0, # of connection points: 6
#     Node 5, Type 0, BuildingBlock: PAMTUU_clean_sbu_0, # of connection points: 6
#     Edge 6, Type (0, 0), BuildingBlock: KIFKEQ_clean_linker_1, # of connection points: 2
#     Edge 7, Type (0, 0), BuildingBlock: KIFKEQ_clean_linker_1, # of connection points: 2
#     Edge 8, Type (0, 0), BuildingBlock: KIFKEQ_clean_linker_1, # of connection points: 2
#     Edge 9, Type (0, 0), BuildingBlock: KIFKEQ_clean_linker_1, # of connection points: 2
#     Edge 10, Type (0, 0), BuildingBlock: KIFKEQ_clean_linker_1, # of connection points: 2
#     Edge 11, Type (0, 0), BuildingBlock: KIFKEQ_clean_linker_1, # of connection points: 2
#     Edge 12, Type (0, 0), BuildingBlock: KIFKEQ_clean_linker_1, # of connection points: 2
#     Edge 13, Type (0, 0), BuildingBlock: KIFKEQ_clean_linker_1, # of connection points: 2
#     Edge 14, Type (0, 0), BuildingBlock: KIFKEQ_clean_linker_1, # of connection points: 2
#     Edge 15, Type (0, 0), BuildingBlock: KIFKEQ_clean_linker_1, # of connection points: 2
#     Edge 16, Type (0, 0), BuildingBlock: KIFKEQ_clean_linker_1, # of connection points: 2
#     Edge 17, Type (0, 0), BuildingBlock: KIFKEQ_clean_linker_1, # of connection points: 2
#     Edge 18, Type (0, 0), BuildingBlock: KIFKEQ_clean_linker_1, # of connection points: 2
#     Edge 19, Type (0, 0), BuildingBlock: KIFKEQ_clean_linker_1, # of connection points: 2
#     Edge 20, Type (0, 0), BuildingBlock: KIFKEQ_clean_linker_1, # of connection points: 2
#     Edge 21, Type (0, 0), BuildingBlock: KIFKEQ_clean_linker_1, # of connection points: 2
#     Edge 22, Type (0, 0), BuildingBlock: KIFKEQ_clean_linker_1, # of connection points: 2
#     Edge 23, Type (0, 0), BuildingBlock: KIFKEQ_clean_linker_1, # of connection points: 2
# Relax obj value: 0.192
# Max RMSD: 0.210
# Mean RMSD: 0.210
data_MOF--net-qtz-e--node1-PAMTUU_clean_sbu_0--edge1-KIFKEQ_clean_linker_1
_symmetry_space_group_name_H-M    P1
_symmetry_Int_Tables_number       1
_symmetry_cell_setting            triclinic
loop_
_symmetry_equiv_pos_as_xyz
'x, y, z'
_cell_length_a     27.394768
_cell_length_b     27.386662
_cell_length_c     51.332111
_cell_angle_alpha  89.970326
_cell_angle_beta   90.042116
_cell_angle_gamma 120.04939
loop_
_atom_site_label
_atom_site_type_symbol
_atom_site_fract_x
_atom_site_fract_y
_atom_site_fract_z
_atom_type_partial_charge
Tb0 Tb 0.22827 0.34087 0.10759 0.0
Tb1 Tb 0.27812 0.46807 0.08107 0.0
C2 C 0.35417 0.43131 0.11011 0.0
C3 C 0.15207 0.23038 0.15627 0.0
C4 C 0.09371 0.20046 0.20455 0.0
C5 C 0.12091 0.17175 0.19522 0.0
C6 C 0.14973 0.18658 0.17135 0.0
C7 C 0.12494 0.25908 0.16538 0.0
C8 C 0.0959 0.24414 0.18914 0.0
C9 C 0.18563 0.24846 0.13198 0.0
O10 O 0.24528 0.39915 0.13971 0.0
O11 O 0.24847 0.47581 0.11924 0.0
O12 O 0.19082 0.41602 0.06988 0.0
O13 O 0.16229 0.36286 0.10658 0.0
O14 O 0.3491 0.54151 0.06773 0.0
O15 O 0.26654 0.53358 0.06688 0.0
O16 O 0.28965 0.41808 0.05145 0.0
O17 O 0.23138 0.32656 0.06583 0.0
O18 O 0.31946 0.37853 0.10369 0.0
O19 O 0.3392 0.46965 0.10826 0.0
C20 C 0.24459 0.44687 0.14036 0.0
O21 O 0.16186 0.25729 0.11185 0.0
O22 O 0.23778 0.28873 0.13476 0.0
C23 C 0.15254 0.38923 0.08776 0.0
C24 C 0.33103 0.58636 0.03357 0.0
C25 C 0.3639 0.62851 0.98269 0.0
C26 C 0.32182 0.57196 0.98678 0.0
C27 C 0.30566 0.55098 1.01206 0.0
C28 C 0.37186 0.64291 0.02962 0.0
C29 C 0.38826 0.66385 1.00443 0.0
C30 C 0.3194 0.56406 0.06016 0.0
C31 C 0.26245 0.36315 0.04766 0.0
H32 H 0.12111 0.13859 0.20662 0.0
H33 H 0.17099 0.1644 0.16487 0.0
H34 H 0.12662 0.29346 0.1542 0.0
H35 H 0.07496 0.26679 0.19534 0.0
H36 H 0.30178 0.54379 0.97048 0.0
H37 H 0.27429 0.50697 0.01484 0.0
H38 H 0.39233 0.67052 0.04608 0.0
H39 H 0.42147 0.70725 1.00208 0.0
Tb40 Tb 0.75428 0.09807 0.47768 0.0
Tb41 Tb 0.69923 0.16768 0.50748 0.0
C42 C 0.625 0.05621 0.4766 0.0
C43 C 0.8342 0.06958 0.42822 0.0
C44 C 0.89225 0.09888 0.37985 0.0
C45 C 0.86748 0.04337 0.38963 0.0
C46 C 0.83885 0.02897 0.41353 0.0
C47 C 0.85872 0.12498 0.41865 0.0
C48 C 0.88762 0.13953 0.39483 0.0
C49 C 0.80123 0.05331 0.45268 0.0
O50 O 0.73504 0.14066 0.44674 0.0
O51 O 0.72158 0.20621 0.46934 0.0
O52 O 0.78798 0.20397 0.51641 0.0
O53 O 0.81545 0.18741 0.4777 0.0
O54 O 0.6292 0.17227 0.52047 0.0
O55 O 0.71368 0.24095 0.52722 0.0
O56 O 0.68263 0.09794 0.5328 0.0
O57 O 0.75286 0.08032 0.51972 0.0
O58 O 0.66327 0.04083 0.47901 0.0
O59 O 0.63564 0.10754 0.48152 0.0
C60 C 0.72854 0.18524 0.44754 0.0
O61 O 0.82422 0.08679 0.47262 0.0
O62 O 0.74822 0.03839 0.45018 0.0
C63 C 0.82402 0.22157 0.49715 0.0
C64 C 0.64433 0.22302 0.55891 0.0
C65 C 0.60483 0.21888 0.60975 0.0
C66 C 0.64791 0.20633 0.60513 0.0
C67 C 0.66728 0.20794 0.57977 0.0
C68 C 0.60233 0.23674 0.56358 0.0
C69 C 0.58262 0.23461 0.58879 0.0
C70 C 0.66019 0.22049 0.53197 0.0
C71 C 0.71454 0.07549 0.53677 0.0
H72 H 0.8691 0.01057 0.37857 0.0
H73 H 0.81962 0.98582 0.42038 0.0
H74 H 0.85521 0.15698 0.42952 0.0
H75 H 0.90661 0.18282 0.38827 0.0
H76 H 0.66543 0.19383 0.62098 0.0
H77 H 0.69928 0.19646 0.57639 0.0
H78 H 0.584 0.24808 0.54762 0.0
H79 H 0.54987 0.24516 0.59192 0.0
Tb80 Tb 0.64353 0.88241 0.77587 0.0
Tb81 Tb 0.51607 0.81367 0.7495 0.0
C82 C 0.55733 0.92319 0.78132 0.0
C83 C 0.75504 0.91166 0.82365 0.0
C84 C 0.78602 0.88214 0.87141 0.0
C85 C 0.81668 0.93758 0.86154 0.0
C86 C 0.80133 0.9521 0.83794 0.0
C87 C 0.72437 0.85629 0.83329 0.0
C88 C 0.7398 0.84165 0.85681 0.0
C89 C 0.73697 0.92799 0.79959 0.0
O90 O 0.58559 0.83997 0.80811 0.0
O91 O 0.505 0.77306 0.78705 0.0
O92 O 0.56366 0.77428 0.73706 0.0
O93 O 0.61654 0.79332 0.7737 0.0
O94 O 0.4458 0.81701 0.73571 0.0
O95 O 0.44811 0.73937 0.73442 0.0
O96 O 0.56851 0.88107 0.72262 0.0
O97 O 0.65724 0.89851 0.73383 0.0
O98 O 0.6093 0.9394 0.77408 0.0
O99 O 0.51702 0.87078 0.77874 0.0
C100 C 0.53527 0.79428 0.80829 0.0
O101 O 0.72541 0.89458 0.77955 0.0
O102 O 0.69884 0.94262 0.80281 0.0
C103 C 0.58889 0.75939 0.75436 0.0
C104 C 0.39943 0.75611 0.70093 0.0
C105 C 0.35813 0.74543 0.64978 0.0
C106 C 0.41505 0.76186 0.65422 0.0
C107 C 0.4356 0.76734 0.67964 0.0
C108 C 0.34272 0.7392 0.69665 0.0
C109 C 0.32221 0.73399 0.67132 0.0
C110 C 0.42064 0.7649 0.7277 0.0
C111 C 0.62228 0.90204 0.71727 0.0
H112 H 0.85189 0.97023 0.87232 0.0
H113 H 0.82516 0.99521 0.83103 0.0
H114 H 0.68815 0.8244 0.82271 0.0
H115 H 0.71554 0.79841 0.86345 0.0
H116 H 0.44369 0.77049 0.63808 0.0
H117 H 0.47973 0.7809 0.68269 0.0
H118 H 0.31448 0.73103 0.71293 0.0
H119 H 0.27848 0.72236 0.66867 0.0
Tb120 Tb 0.88108 0.64172 0.14484 0.0
Tb121 Tb 0.79661 0.52171 0.17647 0.0
C122 C 0.90797 0.54415 0.14798 0.0
C123 C 0.91924 0.74778 0.09327 0.0
C124 C 0.89067 0.77817 0.0451 0.0
C125 C 0.94702 0.80519 0.0539 0.0
C126 C 0.96108 0.79013 0.07772 0.0
C127 C 0.86301 0.7207 0.08465 0.0
C128 C 0.84886 0.73585 0.06095 0.0
C129 C 0.93442 0.73018 0.11781 0.0
O130 O 0.83621 0.57707 0.11526 0.0
O131 O 0.75926 0.50924 0.13807 0.0
O132 O 0.77266 0.58482 0.18312 0.0
O133 O 0.795 0.62521 0.14362 0.0
O134 O 0.77731 0.44122 0.18882 0.0
O135 O 0.7216 0.47325 0.19765 0.0
O136 O 0.86379 0.57068 0.20377 0.0
O137 O 0.90152 0.66061 0.18648 0.0
O138 O 0.9296 0.59913 0.14985 0.0
O139 O 0.85456 0.5087 0.15285 0.0
C140 C 0.78577 0.53155 0.1161 0.0
O141 O 0.90445 0.72649 0.13829 0.0
O142 O 0.94161 0.68671 0.11593 0.0
C143 C 0.75939 0.60491 0.16298 0.0
C144 C 0.73026 0.41475 0.2287 0.0
C145 C 0.7291 0.37268 0.27875 0.0
C146 C 0.68181 0.34482 0.26236 0.0
C147 C 0.68251 0.36569 0.23745 0.0
C148 C 0.77673 0.44389 0.24533 0.0
C149 C 0.77622 0.42293 0.27017 0.0
C150 C 0.73289 0.43298 0.20167 0.0
C151 C 0.89506 0.62579 0.20579 0.0
H152 H 0.98059 0.83728 0.04217 0.0
H153 H 0.0048 0.81115 0.08384 0.0
H154 H 0.82997 0.68755 0.09623 0.0
H155 H 0.80495 0.71456 0.05516 0.0
H156 H 0.64514 0.30579 0.26843 0.0
H157 H 0.64641 0.34268 0.22477 0.0
H158 H 0.81396 0.48193 0.23885 0.0
H159 H 0.81291 0.44559 0.28254 0.0
Tb160 Tb 0.10152 0.75488 0.44168 0.0
Tb161 Tb 0.16784 0.6927 0.41588 0.0
C162 C 0.05642 0.62718 0.44701 0.0
C163 C 0.07541 0.83939 0.48968 0.0
C164 C 0.10518 0.89906 0.53768 0.0
C165 C 0.04958 0.8739 0.52799 0.0
C166 C 0.03496 0.84447 0.50429 0.0
C167 C 0.13094 0.86441 0.49914 0.0
C168 C 0.14571 0.8941 0.52277 0.0
C169 C 0.05866 0.80507 0.46558 0.0
O170 O 0.14216 0.73707 0.47389 0.0
O171 O 0.21024 0.72567 0.45285 0.0
O172 O 0.20752 0.7785 0.40195 0.0
O173 O 0.19114 0.81593 0.43804 0.0
O174 O 0.16135 0.61724 0.40288 0.0
O175 O 0.24132 0.69522 0.40225 0.0
O176 O 0.10656 0.68416 0.38664 0.0
O177 O 0.08145 0.74936 0.40005 0.0
O178 O 0.04204 0.66422 0.43968 0.0
O179 O 0.10837 0.63781 0.44482 0.0
C180 C 0.18859 0.73394 0.4741 0.0
O181 O 0.0922 0.82631 0.44554 0.0
O182 O 0.04267 0.75194 0.46882 0.0
C183 C 0.22398 0.82 0.41856 0.0
C184 C 0.2227 0.62907 0.36886 0.0
C185 C 0.22849 0.59468 0.31796 0.0
C186 C 0.21906 0.64004 0.32211 0.0
C187 C 0.21589 0.65696 0.34744 0.0
C188 C 0.23364 0.58494 0.36479 0.0
C189 C 0.23652 0.56784 0.33953 0.0
C190 C 0.21389 0.64219 0.39546 0.0
C191 C 0.08283 0.71502 0.38237 0.0
H192 H 0.01686 0.87576 0.539 0.0
H193 H 0.99171 0.82486 0.49755 0.0
H194 H 0.16284 0.86058 0.48834 0.0
H195 H 0.18906 0.91336 0.52926 0.0
H196 H 0.21231 0.66116 0.30583 0.0
H197 H 0.20686 0.69083 0.35034 0.0
H198 H 0.23872 0.56288 0.38117 0.0
H199 H 0.24457 0.53325 0.33687 0.0
Tb200 Tb 0.34052 0.23288 0.81201 0.0
Tb201 Tb 0.46389 0.27615 0.84223 0.0
C202 C 0.43681 0.35806 0.81089 0.0
C203 C 0.23395 0.16087 0.76104 0.0
C204 C 0.20526 0.10255 0.7127 0.0
C205 C 0.17633 0.12974 0.72176 0.0
C206 C 0.19053 0.15852 0.74565 0.0
C207 C 0.26296 0.13387 0.75219 0.0
C208 C 0.24865 0.10487 0.72839 0.0
C209 C 0.25095 0.19392 0.78551 0.0
O210 O 0.40199 0.24774 0.78168 0.0
O211 O 0.47455 0.24721 0.80447 0.0
O212 O 0.40423 0.18961 0.85202 0.0
O213 O 0.35917 0.1646 0.81345 0.0
O214 O 0.53858 0.34268 0.85738 0.0
O215 O 0.52259 0.257 0.85871 0.0
O216 O 0.41339 0.29143 0.86995 0.0
O217 O 0.32291 0.2374 0.85338 0.0
O218 O 0.3824 0.32463 0.81476 0.0
O219 O 0.4731 0.34111 0.81538 0.0
C220 C 0.44848 0.24474 0.78257 0.0
O221 O 0.25648 0.16878 0.80601 0.0
O222 O 0.29294 0.24541 0.78337 0.0
C223 C 0.38252 0.15322 0.83302 0.0
C224 C 0.57554 0.31864 0.89285 0.0
C225 C 0.61446 0.34897 0.9443 0.0
C226 C 0.55648 0.31434 0.9392 0.0
C227 C 0.53715 0.29933 0.91362 0.0
C228 C 0.6333 0.35179 0.89786 0.0
C229 C 0.65267 0.36686 0.92334 0.0
C230 C 0.55604 0.30916 0.86581 0.0
C231 C 0.35825 0.26694 0.87229 0.0
H232 H 0.14339 0.12988 0.71015 0.0
H233 H 0.16808 0.17964 0.75194 0.0
H234 H 0.29702 0.13552 0.76362 0.0
H235 H 0.27148 0.08398 0.7224 0.0
H236 H 0.52605 0.29941 0.95493 0.0
H237 H 0.49231 0.2738 0.90996 0.0
H238 H 0.66336 0.3675 0.88196 0.0
H239 H 0.69745 0.39435 0.9265 0.0
H240 H 0.17391 0.48584 0.30128 0.0
H241 H 0.28164 0.65667 0.27459 0.0
H242 H 0.17506 0.45052 0.25791 0.0
H243 H 0.28377 0.62133 0.23112 0.0
H244 H 0.23323 0.53896 0.1505 0.0
H245 H 0.22652 0.57498 0.19301 0.0
H246 H 0.24097 0.44146 0.23054 0.0
H247 H 0.24613 0.40466 0.1883 0.0
C248 C 0.19819 0.51579 0.28613 0.0
C249 C 0.22814 0.57393 0.29132 0.0
C250 C 0.19892 0.49559 0.2613 0.0
C251 C 0.22994 0.53307 0.24112 0.0
C252 C 0.25901 0.59139 0.24618 0.0
C253 C 0.25796 0.61164 0.27105 0.0
C254 C 0.2349 0.51727 0.16784 0.0
C255 C 0.2403 0.46898 0.16599 0.0
C256 C 0.23132 0.53809 0.19219 0.0
C257 C 0.23314 0.51106 0.21516 0.0
C258 C 0.23849 0.46276 0.21324 0.0
C259 C 0.24183 0.44186 0.18897 0.0
H260 H 0.41373 0.24904 0.7333 0.0
H261 H 0.53454 0.22227 0.776 0.0
H262 H 0.45163 0.23746 0.69257 0.0
H263 H 0.57172 0.20937 0.73501 0.0
H264 H 0.66386 0.26349 0.65471 0.0
H265 H 0.6256 0.2653 0.6975 0.0
H266 H 0.45642 0.16629 0.667 0.0
H267 H 0.49479 0.16568 0.62427 0.0
C268 C 0.44822 0.24041 0.73402 0.0
C269 C 0.47145 0.23711 0.7579 0.0
C270 C 0.46965 0.23329 0.71064 0.0
C271 C 0.51456 0.22231 0.71057 0.0
C272 C 0.53753 0.21845 0.73445 0.0
C273 C 0.51616 0.22578 0.75791 0.0
C274 C 0.61854 0.24156 0.65735 0.0
C275 C 0.58219 0.21515 0.63622 0.0
C276 C 0.59662 0.24243 0.68181 0.0
C277 C 0.53799 0.21654 0.68551 0.0
C278 C 0.50178 0.18777 0.6646 0.0
C279 C 0.52367 0.18729 0.64018 0.0
H280 H 0.3934 0.73253 0.96284 0.0
H281 H 0.38158 0.57387 0.94223 0.0
H282 H 0.43512 0.771 0.92048 0.0
H283 H 0.42194 0.61217 0.89958 0.0
H284 H 0.44272 0.69047 0.81673 0.0
H285 H 0.39884 0.64863 0.85844 0.0
H286 H 0.52758 0.79547 0.89855 0.0
H287 H 0.57156 0.8375 0.85697 0.0
C288 C 0.39966 0.70584 0.94931 0.0
C289 C 0.3845 0.65023 0.95604 0.0
C290 C 0.42348 0.72789 0.92505 0.0
C291 C 0.43214 0.69467 0.90689 0.0
C292 C 0.41538 0.63855 0.9132 0.0
C293 C 0.39201 0.61659 0.93758 0.0
C294 C 0.46177 0.71378 0.83444 0.0
C295 C 0.51045 0.76745 0.83354 0.0
C296 C 0.43676 0.68968 0.8583 0.0
C297 C 0.4596 0.71906 0.88164 0.0
C298 C 0.5087 0.77229 0.88078 0.0
C299 C 0.53407 0.79612 0.85698 0.0
H300 H 0.7627 0.1707 0.3995 0.0
H301 H 0.69763 0.26462 0.43997 0.0
H302 H 0.76381 0.21773 0.35888 0.0
H303 H 0.69921 0.31162 0.39945 0.0
H304 H 0.64661 0.3287 0.31583 0.0
H305 H 0.64734 0.28362 0.35683 0.0
H306 H 0.81528 0.31565 0.33986 0.0
H307 H 0.81421 0.3599 0.2987 0.0
C308 C 0.7486 0.20126 0.39974 0.0
C309 C 0.72981 0.21372 0.42292 0.0
C310 C 0.74962 0.22843 0.37654 0.0
C311 C 0.73144 0.26815 0.37607 0.0
C312 C 0.71286 0.28072 0.39923 0.0
C313 C 0.71228 0.25397 0.42244 0.0
C314 C 0.6836 0.32602 0.32089 0.0
C315 C 0.73036 0.34781 0.30415 0.0
C316 C 0.68419 0.30063 0.34438 0.0
C317 C 0.73135 0.29612 0.35144 0.0
C318 C 0.77822 0.31816 0.33476 0.0
C319 C 0.77782 0.34398 0.31138 0.0
H320 H 0.25565 0.66645 0.63023 0.0
H321 H 0.41099 0.81621 0.60851 0.0
H322 H 0.21656 0.66486 0.58738 0.0
H323 H 0.37208 0.8135 0.56535 0.0
H324 H 0.29391 0.74897 0.48276 0.0
H325 H 0.33718 0.75102 0.52474 0.0
H326 H 0.18853 0.72903 0.56438 0.0
H327 H 0.14518 0.72693 0.52265 0.0
C328 C 0.28148 0.69905 0.61635 0.0
C329 C 0.33627 0.74179 0.62293 0.0
C330 C 0.2591 0.69802 0.59181 0.0
C331 C 0.29116 0.73934 0.57319 0.0
C332 C 0.34661 0.78095 0.57933 0.0
C333 C 0.3689 0.78232 0.60401 0.0
C334 C 0.27049 0.74462 0.50044 0.0
C335 C 0.21597 0.73744 0.49938 0.0
C336 C 0.2954 0.74607 0.52443 0.0
C337 C 0.26596 0.73971 0.54773 0.0
C338 C 0.21181 0.73323 0.54667 0.0
C339 C 0.18718 0.73241 0.52276 0.0
H340 H 0.67518 0.45175 0.10823 0.0
H341 H 0.83411 0.54908 0.06803 0.0
H342 H 0.63098 0.40356 0.06754 0.0
H343 H 0.78973 0.50119 0.02749 0.0
H344 H 0.70922 0.36011 0.96775 0.0
H345 H 0.74877 0.40312 1.0098 0.0
H346 H 0.60633 0.42649 0.02361 0.0
H347 H 0.56706 0.38437 0.98131 0.0
C348 C 0.70067 0.46286 0.09074 0.0
C349 C 0.75826 0.50392 0.09138 0.0
C350 C 0.67525 0.43547 0.06746 0.0
C351 C 0.70709 0.44828 0.04445 0.0
C352 C 0.76443 0.48984 0.04504 0.0
C353 C 0.7897 0.51756 0.06822 0.0
C354 C 0.68633 0.37446 0.97972 0.0
C355 C 0.63524 0.36926 0.97107 0.0
C356 C 0.70898 0.39906 1.00378 0.0
C357 C 0.68088 0.41865 0.0198 0.0
C358 C 0.6287 0.41144 1.0117 0.0
C359 C 0.60615 0.38712 0.98752 0.0
H360 H 0.40487 0.50465 0.14958 0.0
H361 H 0.42967 0.39883 0.09519 0.0
H362 H 0.50224 0.54524 0.16447 0.0
H363 H 0.52814 0.44064 0.1098 0.0
H364 H 0.71107 0.59655 0.11551 0.0
H365 H 0.61107 0.54729 0.105 0.0
H366 H 0.57012 0.51402 0.1866 0.0
H367 H 0.67094 0.56235 0.19735 0.0
C368 C 0.43113 0.48964 0.14106 0.0
C369 C 0.41014 0.44889 0.12117 0.0
C370 C 0.48664 0.51269 0.14966 0.0
C371 C 0.52255 0.4963 0.13814 0.0
C372 C 0.5011 0.45409 0.11885 0.0
C373 C 0.44494 0.42998 0.11063 0.0
C374 C 0.681 0.57952 0.13135 0.0
C375 C 0.69906 0.58365 0.15736 0.0
C376 C 0.62371 0.5506 0.12522 0.0
C377 C 0.58314 0.52621 0.14495 0.0
C378 C 0.60081 0.53225 0.17105 0.0
C379 C 0.65834 0.56022 0.17719 0.0
H380 H 0.94871 0.55389 0.43091 0.0
H381 H 0.073 0.57751 0.4888 0.0
H382 H 0.88924 0.45577 0.44549 0.0
H383 H 0.01332 0.48044 0.50371 0.0
H384 H 0.86009 0.30803 0.53262 0.0
H385 H 0.9107 0.40973 0.52325 0.0
H386 H 0.91587 0.37459 0.4417 0.0
H387 H 0.86724 0.27405 0.45087 0.0
C388 C 0.96238 0.53858 0.44722 0.0
C389 C 0.01529 0.57282 0.45869 0.0
C390 C 0.92871 0.48258 0.45544 0.0
C391 C 0.94703 0.46072 0.47563 0.0
C392 C -0.00183 0.49635 0.48823 0.0
C393 C 0.03227 0.55171 0.47964 0.0
C394 C 0.87279 0.32217 0.51278 0.0
C395 C 0.86011 0.28294 0.49259 0.0
C396 C 0.90127 0.38017 0.50742 0.0
C397 C 0.91616 0.39968 0.4817 0.0
C398 C 0.90395 0.36054 0.46162 0.0
C399 C 0.87678 0.30294 0.46701 0.0
H400 H 0.43183 0.11504 0.86792 0.0
H401 H 0.38623 0.10653 0.78667 0.0
H402 H 0.48178 0.06386 0.85783 0.0
H403 H 0.43718 0.05733 0.77678 0.0
H404 H 0.58744 0.02959 0.76488 0.0
H405 H 0.54597 0.0864 0.77958 0.0
H406 H 0.45089 0.96163 0.83829 0.0
H407 H 0.49106 0.90452 0.82324 0.0
C408 C 0.43179 0.10168 0.84805 0.0
C409 C 0.4047 0.11459 0.82818 0.0
C410 C 0.46072 0.0729 0.84228 0.0
C411 C 0.4641 0.05777 0.81647 0.0
C412 C 0.436 0.06947 0.79676 0.0
C413 C 0.40613 0.09698 0.80257 0.0
C414 C 0.55875 0.01522 0.7813 0.0
C415 C 0.54221 0.96289 0.79294 0.0
C416 C 0.53477 0.04731 0.78957 0.0
C417 C 0.49506 0.02802 0.80995 0.0
C418 C 0.48151 0.97745 0.82263 0.0
C419 C 0.50438 0.94486 0.814 0.0
H420 H 0.50131 0.66761 0.73049 0.0
H421 H 0.63825 0.71524 0.78496 0.0
H422 H 0.46387 0.56845 0.74191 0.0
H423 H 0.60062 0.61676 0.7965 0.0
H424 H 0.54538 0.43266 0.7976 0.0
H425 H 0.58364 0.5267 0.77982 0.0
H426 H 0.41785 0.50887 0.78117 0.0
H427 H 0.37869 0.41321 0.79871 0.0
C428 C 0.52415 0.6569 0.74445 0.0
C429 C 0.57281 0.69935 0.75683 0.0
C430 C 0.50224 0.60017 0.75123 0.0
C431 C 0.52892 0.58481 0.77029 0.0
C432 C 0.5792 0.62707 0.78161 0.0
C433 C 0.60083 0.68361 0.77498 0.0
C434 C 0.51673 0.44842 0.79414 0.0
C435 C 0.45886 0.41537 0.79986 0.0
C436 C 0.53888 0.50257 0.78394 0.0
C437 C 0.50393 0.52542 0.77921 0.0
C438 C 0.4458 0.49217 0.78439 0.0
C439 C 0.42344 0.43761 0.79464 0.0
H440 H 0.06709 0.34362 0.12318 0.0
H441 H 0.13847 0.46963 0.06244 0.0
H442 H 0.00733 0.38109 0.13669 0.0
H443 H 0.07764 0.50658 0.07579 0.0
H444 H 0.01838 0.60079 0.13131 0.0
H445 H 0.07282 0.55961 0.11381 0.0
H446 H 0.92892 0.39268 0.12386 0.0
H447 H 0.87529 0.43318 0.14176 0.0
C448 C 0.06907 0.37845 0.11228 0.0
C449 C 0.10779 0.40372 0.0918 0.0
C450 C 0.03477 0.4 0.12005 0.0
C451 C 0.03825 0.4473 0.10752 0.0
C452 C 0.07477 0.47074 0.08613 0.0
C453 C 0.10904 0.44903 0.07827 0.0
C454 C -0.00145 0.55533 0.1299 0.0
C455 C 0.94258 0.52041 0.13811 0.0
C456 C 0.0295 0.53175 0.11962 0.0
C457 C 0.0051 0.47283 0.11739 0.0
C458 C 0.94918 0.43813 0.12557 0.0
C459 C 0.9184 0.46155 0.13581 0.0
H460 H 0.31204 0.80974 0.40035 0.0
H461 H 0.2734 0.92212 0.4429 0.0
H462 H 0.40983 0.86444 0.41387 0.0
H463 H 0.37224 0.97969 0.4549 0.0
H464 H 0.5282 0.02916 0.50123 0.0
H465 H 0.43276 0.97445 0.48433 0.0
H466 H 0.49845 0.94423 0.41323 0.0
H467 H 0.59384 0.99606 0.43136 0.0
C468 C 0.32484 0.84733 0.41187 0.0
C469 C 0.28484 0.86127 0.42082 0.0
C470 C 0.38121 0.8789 0.41966 0.0
C471 C 0.39915 0.92593 0.4361 0.0
C472 C 0.35982 0.94252 0.44311 0.0
C473 C 0.30322 0.91013 0.43586 0.0
C474 C 0.52178 0.0096 0.48223 0.0
C475 C 0.5678 0.01594 0.46766 0.0
C476 C 0.46722 0.97913 0.47226 0.0
C477 C 0.45752 0.95578 0.44705 0.0
C478 C 0.50391 0.96108 0.43275 0.0
C479 C 0.55857 0.99055 0.44309 0.0
H480 H 0.26565 0.27839 0.88212 0.0
H481 H 0.40158 0.26977 0.92023 0.0
H482 H 0.23584 0.29684 0.92448 0.0
H483 H 0.37083 0.28624 0.96234 0.0
H484 H 0.25957 0.26396 0.03555 0.0
H485 H 0.27645 0.23462 0.99283 0.0
H486 H 0.2935 0.38589 0.95821 0.0
H487 H 0.2785 0.41611 1.00083 0.0
C488 C 0.28851 0.27948 0.89954 0.0
C489 C 0.33612 0.2729 0.89782 0.0
C490 C 0.27161 0.2902 0.92373 0.0
C491 C 0.30095 0.29277 0.9467 0.0
C492 C 0.34717 0.28407 0.94502 0.0
C493 C 0.36493 0.27495 0.92087 0.0
C494 C 0.26641 0.29065 0.01878 0.0
C495 C 0.26799 0.34249 0.02163 0.0
C496 C 0.27616 0.27393 0.99437 0.0
C497 C 0.28604 0.30789 0.97219 0.0
C498 C 0.28553 0.35865 0.97489 0.0
C499 C 0.27729 0.37606 0.99935 0.0
H500 H 0.89424 0.17256 0.34271 0.0
H501 H 0.95833 0.05981 0.35826 0.0
H502 H 0.9429 0.19725 0.30091 0.0
H503 H 0.00587 0.08371 0.31617 0.0
H504 H 0.03151 0.0954 0.22697 0.0
H505 H 0.98392 0.0714 0.26906 0.0
H506 H 0.03941 0.24708 0.2827 0.0
H507 H 0.08808 0.27145 0.2409 0.0
C508 C 0.91904 0.15332 0.33741 0.0
C509 C 0.92216 0.1141 0.35411 0.0
C510 C 0.94687 0.16743 0.31332 0.0
C511 C 0.9783 0.14244 0.30509 0.0
C512 C 0.98138 0.10318 0.32169 0.0
C513 C 0.95392 0.08937 0.34587 0.0
C514 C 0.03425 0.12913 0.23901 0.0
C515 C 0.06388 0.18548 0.23031 0.0
C516 C 0.00677 0.11527 0.26319 0.0
C517 C 0.00772 0.15726 0.27932 0.0
C518 C 0.03707 0.21353 0.27064 0.0
C519 C 0.06492 0.22747 0.24656 0.0
H520 H 0.71314 0.91599 0.68787 0.0
H521 H 0.57699 0.9523 0.68825 0.0
H522 H 0.73831 0.95423 0.64349 0.0
H523 H 0.60319 0.99244 0.64505 0.0
H524 H 0.61443 0.00616 0.55947 0.0
H525 H 0.59618 0.96347 0.60234 0.0
H526 H 0.77522 0.03357 0.61439 0.0
H527 H 0.793 0.07411 0.5703 0.0
C528 C 0.68917 0.9329 0.67866 0.0
C529 C 0.6426 0.9304 0.69153 0.0
C530 C 0.7036 0.95493 0.6532 0.0
C531 C 0.67212 0.97548 0.64016 0.0
C532 C 0.62735 0.97524 0.65377 0.0
C533 C 0.61253 0.9526 0.67883 0.0
C534 C 0.64993 0.01185 0.57111 0.0
C535 C 0.70515 0.04375 0.56153 0.0
C536 C 0.63957 0.98789 0.59596 0.0
C537 C 0.68422 0.99622 0.61246 0.0
C538 C 0.73961 0.02611 0.6024 0.0
C539 C 0.74993 0.04936 0.5771 0.0
H540 H 0.89207 0.91984 0.89183 0.0
H541 H 0.71554 0.80965 0.90915 0.0
H542 H 0.9172 0.89541 0.93346 0.0
H543 H 0.74089 0.7846 0.95053 0.0
H544 H 0.81099 0.70827 1.00948 0.0
H545 H 0.78589 0.73335 0.96806 0.0
H546 H 0.91143 0.9079 0.98061 0.0
H547 H 0.936 0.88315 0.0223 0.0
C548 C 0.8585 0.89074 0.90453 0.0
C549 C 0.80165 0.86681 0.89691 0.0
C550 C 0.873 0.87664 0.92845 0.0
C551 C 0.83114 0.83794 0.94542 0.0
C552 C 0.77434 0.81389 0.93782 0.0
C553 C 0.75981 0.82822 0.91397 0.0
C554 C 0.83288 0.75217 1.00366 0.0
C555 C 0.87557 0.79359 0.01949 0.0
C556 C 0.81849 0.76653 0.97979 0.0
C557 C 0.84657 0.82269 0.97091 0.0
C558 C 0.88942 0.8641 0.98662 0.0
C559 C 0.9036 0.84981 1.01058 0.0
H560 H 0.11684 0.69375 0.336 0.0
H561 H 0.99089 0.72552 0.36945 0.0
H562 H 0.07308 0.68108 0.29313 0.0
H563 H 0.94587 0.71085 0.32645 0.0
H564 H 0.85088 0.58653 0.25368 0.0
H565 H 0.89731 0.61596 0.29609 0.0
H566 H 0.04901 0.74294 0.25861 0.0
H567 H 0.00168 0.71457 0.21593 0.0
C568 C 0.07987 0.69821 0.33419 0.0
C569 C 0.05725 0.71048 0.35621 0.0
C570 C 0.05507 0.69132 0.30957 0.0
C571 C 0.00616 0.69511 0.3064 0.0
C572 C 0.98365 0.70783 0.32833 0.0
C573 C 0.00943 0.71629 0.3529 0.0
C574 C 0.89392 0.6213 0.25448 0.0
C575 C 0.92266 0.64821 0.23143 0.0
C576 C 0.92036 0.63829 0.2788 0.0
C577 C 0.97675 0.68174 0.28069 0.0
C578 C 0.00545 0.70934 0.25771 0.0
C579 C 0.97836 0.69331 0.23333 0.0
H580 H 0.1006 0.0403 0.6899 0.0
H581 H 0.27672 0.09631 0.67679 0.0
H582 H 0.07721 0.99242 0.64788 0.0
H583 H 0.25295 0.04737 0.63504 0.0
H584 H 0.1792 0.90209 0.57494 0.0
H585 H 0.20364 0.95124 0.61664 0.0
H586 H 0.08977 0.01355 0.60087 0.0
H587 H 0.06607 0.96547 0.55891 0.0
C588 C 0.13449 0.04288 0.67805 0.0
C589 C 0.19068 0.07247 0.68696 0.0
C590 C 0.12097 0.01522 0.6539 0.0
C591 C 0.16314 0.01594 0.63799 0.0
C592 C 0.21924 0.04521 0.6469 0.0
C593 C 0.23285 0.07322 0.67096 0.0
C594 C 0.15984 0.92686 0.5801 0.0
C595 C 0.12054 0.92957 0.56331 0.0
C596 C 0.17382 0.95499 0.60414 0.0
C597 C 0.14864 0.98635 0.61222 0.0
C598 C 0.10938 0.98912 0.5955 0.0
C599 C 0.09569 0.96134 0.57138 0.0
loop_
_geom_bond_atom_site_label_1
_geom_bond_atom_site_label_2
_geom_bond_distance
_geom_bond_site_symmetry_2
_ccdc_geom_bond_type
Tb0 C9 2.764 . S
Tb0 O10 2.325 . S
Tb0 O13 2.303 . S
Tb0 O17 2.322 . S
Tb0 O18 2.349 . S
Tb0 O21 2.415 . S
Tb0 O22 2.399 . S
Tb1 O11 2.322 . S
Tb1 O12 2.349 . S
Tb1 O14 2.415 . S
Tb1 O15 2.399 . S
Tb1 O16 2.325 . S
Tb1 O19 2.303 . S
Tb1 C30 2.764 . S
C2 O18 1.261 . S
C2 O19 1.257 . S
C3 C6 1.358 . S
C3 C7 1.332 . S
C3 C9 1.504 . S
C4 C5 1.373 . S
C4 C8 1.308 . S
C5 C4 1.373 . S
C5 C6 1.429 . S
C5 H32 0.932 . S
C6 C3 1.358 . S
C6 C5 1.429 . S
C6 H33 0.930 . S
C7 C3 1.332 . S
C7 C8 1.394 . S
C7 H34 0.932 . S
C8 C4 1.308 . S
C8 C7 1.394 . S
C8 H35 0.929 . S
C9 Tb0 2.764 . S
C9 C3 1.504 . S
C9 O21 1.239 . S
C9 O22 1.263 . S
O10 Tb0 2.325 . S
O10 C20 1.236 . S
O11 Tb1 2.322 . S
O11 C20 1.257 . S
O12 Tb1 2.349 . S
O12 C23 1.261 . S
O13 Tb0 2.303 . S
O13 C23 1.257 . S
O14 Tb1 2.415 . S
O14 C30 1.239 . S
O15 Tb1 2.399 . S
O15 C30 1.263 . S
O16 Tb1 2.325 . S
O16 C31 1.236 . S
O17 Tb0 2.322 . S
O17 C31 1.257 . S
O18 Tb0 2.349 . S
O18 C2 1.261 . S
O19 Tb1 2.303 . S
O19 C2 1.257 . S
C20 O10 1.236 . S
C20 O11 1.257 . S
O21 Tb0 2.415 . S
O21 C9 1.239 . S
O22 Tb0 2.399 . S
O22 C9 1.263 . S
C23 O12 1.261 . S
C23 O13 1.257 . S
C24 C27 1.358 . S
C24 C28 1.332 . S
C24 C30 1.504 1_556 S
C25 C26 1.373 . S
C25 C29 1.308 . S
C26 C25 1.373 . S
C26 C27 1.429 . S
C26 H36 0.932 . S
C27 C24 1.358 . S
C27 C26 1.429 . S
C27 H37 0.930 . S
C28 C24 1.332 . S
C28 C29 1.394 . S
C28 H38 0.932 . S
C29 C25 1.308 . S
C29 C28 1.394 . S
C29 H39 0.929 . S
C30 Tb1 2.764 . S
C30 O14 1.239 . S
C30 O15 1.263 . S
C30 C24 1.504 1_554 S
C31 O16 1.236 . S
C31 O17 1.257 . S
H32 C5 0.932 . S
H33 C6 0.930 . S
H34 C7 0.932 . S
H35 C8 0.929 . S
H36 C26 0.932 . S
H37 C27 0.930 . S
H38 C28 0.932 . S
H39 C29 0.929 . S
Tb40 C49 2.764 . S
Tb40 O50 2.325 . S
Tb40 O53 2.303 . S
Tb40 O57 2.322 . S
Tb40 O58 2.349 . S
Tb40 O61 2.415 . S
Tb40 O62 2.399 . S
Tb41 O51 2.322 . S
Tb41 O52 2.349 . S
Tb41 O54 2.415 . S
Tb41 O55 2.399 . S
Tb41 O56 2.325 . S
Tb41 O59 2.303 . S
Tb41 C70 2.764 . S
C42 O58 1.261 . S
C42 O59 1.257 . S
C43 C46 1.358 . S
C43 C47 1.332 . S
C43 C49 1.504 . S
C44 C45 1.373 . S
C44 C48 1.308 . S
C45 C44 1.373 . S
C45 C46 1.429 . S
C45 H72 0.932 . S
C46 C43 1.358 . S
C46 C45 1.429 . S
C46 H73 0.930 . S
C47 C43 1.332 . S
C47 C48 1.394 . S
C47 H74 0.932 . S
C48 C44 1.308 . S
C48 C47 1.394 . S
C48 H75 0.929 . S
C49 Tb40 2.764 . S
C49 C43 1.504 . S
C49 O61 1.239 . S
C49 O62 1.263 . S
O50 Tb40 2.325 . S
O50 C60 1.236 . S
O51 Tb41 2.322 . S
O51 C60 1.257 . S
O52 Tb41 2.349 . S
O52 C63 1.261 . S
O53 Tb40 2.303 . S
O53 C63 1.257 . S
O54 Tb41 2.415 . S
O54 C70 1.239 . S
O55 Tb41 2.399 . S
O55 C70 1.263 . S
O56 Tb41 2.325 . S
O56 C71 1.236 . S
O57 Tb40 2.322 . S
O57 C71 1.257 . S
O58 Tb40 2.349 . S
O58 C42 1.261 . S
O59 Tb41 2.303 . S
O59 C42 1.257 . S
C60 O50 1.236 . S
C60 O51 1.257 . S
O61 Tb40 2.415 . S
O61 C49 1.239 . S
O62 Tb40 2.399 . S
O62 C49 1.263 . S
C63 O52 1.261 . S
C63 O53 1.257 . S
C64 C67 1.358 . S
C64 C68 1.332 . S
C64 C70 1.504 . S
C65 C66 1.373 . S
C65 C69 1.308 . S
C66 C65 1.373 . S
C66 C67 1.429 . S
C66 H76 0.932 . S
C67 C64 1.358 . S
C67 C66 1.429 . S
C67 H77 0.930 . S
C68 C64 1.332 . S
C68 C69 1.394 . S
C68 H78 0.932 . S
C69 C65 1.308 . S
C69 C68 1.394 . S
C69 H79 0.929 . S
C70 Tb41 2.764 . S
C70 O54 1.239 . S
C70 O55 1.263 . S
C70 C64 1.504 . S
C71 O56 1.236 . S
C71 O57 1.257 . S
H72 C45 0.932 . S
H73 C46 0.930 . S
H74 C47 0.932 . S
H75 C48 0.929 . S
H76 C66 0.932 . S
H77 C67 0.930 . S
H78 C68 0.932 . S
H79 C69 0.929 . S
Tb80 C89 2.764 . S
Tb80 O90 2.325 . S
Tb80 O93 2.303 . S
Tb80 O97 2.322 . S
Tb80 O98 2.349 . S
Tb80 O101 2.415 . S
Tb80 O102 2.399 . S
Tb81 O91 2.322 . S
Tb81 O92 2.349 . S
Tb81 O94 2.415 . S
Tb81 O95 2.399 . S
Tb81 O96 2.325 . S
Tb81 O99 2.303 . S
Tb81 C110 2.764 . S
C82 O98 1.261 . S
C82 O99 1.257 . S
C83 C86 1.358 . S
C83 C87 1.332 . S
C83 C89 1.504 . S
C84 C85 1.373 . S
C84 C88 1.308 . S
C85 C84 1.373 . S
C85 C86 1.429 . S
C85 H112 0.932 . S
C86 C83 1.358 . S
C86 C85 1.429 . S
C86 H113 0.930 . S
C87 C83 1.332 . S
C87 C88 1.394 . S
C87 H114 0.932 . S
C88 C84 1.308 . S
C88 C87 1.394 . S
C88 H115 0.929 . S
C89 Tb80 2.764 . S
C89 C83 1.504 . S
C89 O101 1.239 . S
C89 O102 1.263 . S
O90 Tb80 2.325 . S
O90 C100 1.236 . S
O91 Tb81 2.322 . S
O91 C100 1.257 . S
O92 Tb81 2.349 . S
O92 C103 1.261 . S
O93 Tb80 2.303 . S
O93 C103 1.257 . S
O94 Tb81 2.415 . S
O94 C110 1.239 . S
O95 Tb81 2.399 . S
O95 C110 1.263 . S
O96 Tb81 2.325 . S
O96 C111 1.236 . S
O97 Tb80 2.322 . S
O97 C111 1.257 . S
O98 Tb80 2.349 . S
O98 C82 1.261 . S
O99 Tb81 2.303 . S
O99 C82 1.257 . S
C100 O90 1.236 . S
C100 O91 1.257 . S
O101 Tb80 2.415 . S
O101 C89 1.239 . S
O102 Tb80 2.399 . S
O102 C89 1.263 . S
C103 O92 1.261 . S
C103 O93 1.257 . S
C104 C107 1.358 . S
C104 C108 1.332 . S
C104 C110 1.504 . S
C105 C106 1.373 . S
C105 C109 1.308 . S
C106 C105 1.373 . S
C106 C107 1.429 . S
C106 H116 0.932 . S
C107 C104 1.358 . S
C107 C106 1.429 . S
C107 H117 0.930 . S
C108 C104 1.332 . S
C108 C109 1.394 . S
C108 H118 0.932 . S
C109 C105 1.308 . S
C109 C108 1.394 . S
C109 H119 0.929 . S
C110 Tb81 2.764 . S
C110 O94 1.239 . S
C110 O95 1.263 . S
C110 C104 1.504 . S
C111 O96 1.236 . S
C111 O97 1.257 . S
H112 C85 0.932 . S
H113 C86 0.930 . S
H114 C87 0.932 . S
H115 C88 0.929 . S
H116 C106 0.932 . S
H117 C107 0.930 . S
H118 C108 0.932 . S
H119 C109 0.929 . S
Tb120 C129 2.764 . S
Tb120 O130 2.325 . S
Tb120 O133 2.303 . S
Tb120 O137 2.322 . S
Tb120 O138 2.349 . S
Tb120 O141 2.415 . S
Tb120 O142 2.399 . S
Tb121 O131 2.322 . S
Tb121 O132 2.349 . S
Tb121 O134 2.415 . S
Tb121 O135 2.399 . S
Tb121 O136 2.325 . S
Tb121 O139 2.303 . S
Tb121 C150 2.764 . S
C122 O138 1.261 . S
C122 O139 1.257 . S
C123 C126 1.358 . S
C123 C127 1.332 . S
C123 C129 1.504 . S
C124 C125 1.373 . S
C124 C128 1.308 . S
C125 C124 1.373 . S
C125 C126 1.429 . S
C125 H152 0.932 . S
C126 C123 1.358 . S
C126 C125 1.429 . S
C126 H153 0.930 . S
C127 C123 1.332 . S
C127 C128 1.394 . S
C127 H154 0.932 . S
C128 C124 1.308 . S
C128 C127 1.394 . S
C128 H155 0.929 . S
C129 Tb120 2.764 . S
C129 C123 1.504 . S
C129 O141 1.239 . S
C129 O142 1.263 . S
O130 Tb120 2.325 . S
O130 C140 1.236 . S
O131 Tb121 2.322 . S
O131 C140 1.257 . S
O132 Tb121 2.349 . S
O132 C143 1.261 . S
O133 Tb120 2.303 . S
O133 C143 1.257 . S
O134 Tb121 2.415 . S
O134 C150 1.239 . S
O135 Tb121 2.399 . S
O135 C150 1.263 . S
O136 Tb121 2.325 . S
O136 C151 1.236 . S
O137 Tb120 2.322 . S
O137 C151 1.257 . S
O138 Tb120 2.349 . S
O138 C122 1.261 . S
O139 Tb121 2.303 . S
O139 C122 1.257 . S
C140 O130 1.236 . S
C140 O131 1.257 . S
O141 Tb120 2.415 . S
O141 C129 1.239 . S
O142 Tb120 2.399 . S
O142 C129 1.263 . S
C143 O132 1.261 . S
C143 O133 1.257 . S
C144 C147 1.358 . S
C144 C148 1.332 . S
C144 C150 1.504 . S
C145 C146 1.373 . S
C145 C149 1.308 . S
C146 C145 1.373 . S
C146 C147 1.429 . S
C146 H156 0.932 . S
C147 C144 1.358 . S
C147 C146 1.429 . S
C147 H157 0.930 . S
C148 C144 1.332 . S
C148 C149 1.394 . S
C148 H158 0.932 . S
C149 C145 1.308 . S
C149 C148 1.394 . S
C149 H159 0.929 . S
C150 Tb121 2.764 . S
C150 O134 1.239 . S
C150 O135 1.263 . S
C150 C144 1.504 . S
C151 O136 1.236 . S
C151 O137 1.257 . S
H152 C125 0.932 . S
H153 C126 0.930 . S
H154 C127 0.932 . S
H155 C128 0.929 . S
H156 C146 0.932 . S
H157 C147 0.930 . S
H158 C148 0.932 . S
H159 C149 0.929 . S
Tb160 C169 2.764 . S
Tb160 O170 2.325 . S
Tb160 O173 2.303 . S
Tb160 O177 2.322 . S
Tb160 O178 2.349 . S
Tb160 O181 2.415 . S
Tb160 O182 2.399 . S
Tb161 O171 2.322 . S
Tb161 O172 2.349 . S
Tb161 O174 2.415 . S
Tb161 O175 2.399 . S
Tb161 O176 2.325 . S
Tb161 O179 2.303 . S
Tb161 C190 2.764 . S
C162 O178 1.261 . S
C162 O179 1.257 . S
C163 C166 1.358 . S
C163 C167 1.332 . S
C163 C169 1.504 . S
C164 C165 1.373 . S
C164 C168 1.308 . S
C165 C164 1.373 . S
C165 C166 1.429 . S
C165 H192 0.932 . S
C166 C163 1.358 . S
C166 C165 1.429 . S
C166 H193 0.930 . S
C167 C163 1.332 . S
C167 C168 1.394 . S
C167 H194 0.932 . S
C168 C164 1.308 . S
C168 C167 1.394 . S
C168 H195 0.929 . S
C169 Tb160 2.764 . S
C169 C163 1.504 . S
C169 O181 1.239 . S
C169 O182 1.263 . S
O170 Tb160 2.325 . S
O170 C180 1.236 . S
O171 Tb161 2.322 . S
O171 C180 1.257 . S
O172 Tb161 2.349 . S
O172 C183 1.261 . S
O173 Tb160 2.303 . S
O173 C183 1.257 . S
O174 Tb161 2.415 . S
O174 C190 1.239 . S
O175 Tb161 2.399 . S
O175 C190 1.263 . S
O176 Tb161 2.325 . S
O176 C191 1.236 . S
O177 Tb160 2.322 . S
O177 C191 1.257 . S
O178 Tb160 2.349 . S
O178 C162 1.261 . S
O179 Tb161 2.303 . S
O179 C162 1.257 . S
C180 O170 1.236 . S
C180 O171 1.257 . S
O181 Tb160 2.415 . S
O181 C169 1.239 . S
O182 Tb160 2.399 . S
O182 C169 1.263 . S
C183 O172 1.261 . S
C183 O173 1.257 . S
C184 C187 1.358 . S
C184 C188 1.332 . S
C184 C190 1.504 . S
C185 C186 1.373 . S
C185 C189 1.308 . S
C186 C185 1.373 . S
C186 C187 1.429 . S
C186 H196 0.932 . S
C187 C184 1.358 . S
C187 C186 1.429 . S
C187 H197 0.930 . S
C188 C184 1.332 . S
C188 C189 1.394 . S
C188 H198 0.932 . S
C189 C185 1.308 . S
C189 C188 1.394 . S
C189 H199 0.929 . S
C190 Tb161 2.764 . S
C190 O174 1.239 . S
C190 O175 1.263 . S
C190 C184 1.504 . S
C191 O176 1.236 . S
C191 O177 1.257 . S
H192 C165 0.932 . S
H193 C166 0.930 . S
H194 C167 0.932 . S
H195 C168 0.929 . S
H196 C186 0.932 . S
H197 C187 0.930 . S
H198 C188 0.932 . S
H199 C189 0.929 . S
Tb200 C209 2.764 . S
Tb200 O210 2.325 . S
Tb200 O213 2.303 . S
Tb200 O217 2.322 . S
Tb200 O218 2.349 . S
Tb200 O221 2.415 . S
Tb200 O222 2.399 . S
Tb201 O211 2.322 . S
Tb201 O212 2.349 . S
Tb201 O214 2.415 . S
Tb201 O215 2.399 . S
Tb201 O216 2.325 . S
Tb201 O219 2.303 . S
Tb201 C230 2.764 . S
C202 O218 1.261 . S
C202 O219 1.257 . S
C203 C206 1.358 . S
C203 C207 1.332 . S
C203 C209 1.504 . S
C204 C205 1.373 . S
C204 C208 1.308 . S
C205 C204 1.373 . S
C205 C206 1.429 . S
C205 H232 0.932 . S
C206 C203 1.358 . S
C206 C205 1.429 . S
C206 H233 0.930 . S
C207 C203 1.332 . S
C207 C208 1.394 . S
C207 H234 0.932 . S
C208 C204 1.308 . S
C208 C207 1.394 . S
C208 H235 0.929 . S
C209 Tb200 2.764 . S
C209 C203 1.504 . S
C209 O221 1.239 . S
C209 O222 1.263 . S
O210 Tb200 2.325 . S
O210 C220 1.236 . S
O211 Tb201 2.322 . S
O211 C220 1.257 . S
O212 Tb201 2.349 . S
O212 C223 1.261 . S
O213 Tb200 2.303 . S
O213 C223 1.257 . S
O214 Tb201 2.415 . S
O214 C230 1.239 . S
O215 Tb201 2.399 . S
O215 C230 1.263 . S
O216 Tb201 2.325 . S
O216 C231 1.236 . S
O217 Tb200 2.322 . S
O217 C231 1.257 . S
O218 Tb200 2.349 . S
O218 C202 1.261 . S
O219 Tb201 2.303 . S
O219 C202 1.257 . S
C220 O210 1.236 . S
C220 O211 1.257 . S
O221 Tb200 2.415 . S
O221 C209 1.239 . S
O222 Tb200 2.399 . S
O222 C209 1.263 . S
C223 O212 1.261 . S
C223 O213 1.257 . S
C224 C227 1.358 . S
C224 C228 1.332 . S
C224 C230 1.504 . S
C225 C226 1.373 . S
C225 C229 1.308 . S
C226 C225 1.373 . S
C226 C227 1.429 . S
C226 H236 0.932 . S
C227 C224 1.358 . S
C227 C226 1.429 . S
C227 H237 0.930 . S
C228 C224 1.332 . S
C228 C229 1.394 . S
C228 H238 0.932 . S
C229 C225 1.308 . S
C229 C228 1.394 . S
C229 H239 0.929 . S
C230 Tb201 2.764 . S
C230 O214 1.239 . S
C230 O215 1.263 . S
C230 C224 1.504 . S
C231 O216 1.236 . S
C231 O217 1.257 . S
H232 C205 0.932 . S
H233 C206 0.930 . S
H234 C207 0.932 . S
H235 C208 0.929 . S
H236 C226 0.932 . S
H237 C227 0.930 . S
H238 C228 0.932 . S
H239 C229 0.929 . S
H240 C248 0.950 . S
H241 C253 0.950 . S
H242 C250 0.950 . S
H243 C252 0.950 . S
H244 C254 0.950 . S
H245 C256 0.950 . S
H246 C258 0.950 . S
H247 C259 0.950 . S
C248 H240 0.950 . S
C248 C249 1.386 . S
C248 C250 1.391 . S
C249 C248 1.386 . S
C249 C253 1.393 . S
C250 H242 0.950 . S
C250 C248 1.391 . S
C250 C251 1.400 . S
C251 C250 1.400 . S
C251 C252 1.398 . S
C251 C257 1.491 . S
C252 H243 0.950 . S
C252 C251 1.398 . S
C252 C253 1.391 . S
C253 H241 0.950 . S
C253 C249 1.393 . S
C253 C252 1.391 . S
C254 H244 0.950 . S
C254 C255 1.386 . S
C254 C256 1.391 . S
C255 C254 1.386 . S
C255 C259 1.393 . S
C256 H245 0.950 . S
C256 C254 1.391 . S
C256 C257 1.400 . S
C257 C251 1.491 . S
C257 C256 1.400 . S
C257 C258 1.398 . S
C258 H246 0.950 . S
C258 C257 1.398 . S
C258 C259 1.391 . S
C259 H247 0.950 . S
C259 C255 1.393 . S
C259 C258 1.391 . S
H260 C268 0.950 . S
H261 C273 0.950 . S
H262 C270 0.950 . S
H263 C272 0.950 . S
H264 C274 0.950 . S
H265 C276 0.950 . S
H266 C278 0.950 . S
H267 C279 0.950 . S
C268 H260 0.950 . S
C268 C269 1.386 . S
C268 C270 1.391 . S
C269 C268 1.386 . S
C269 C273 1.393 . S
C270 H262 0.950 . S
C270 C268 1.391 . S
C270 C271 1.400 . S
C271 C270 1.400 . S
C271 C272 1.398 . S
C271 C277 1.491 . S
C272 H263 0.950 . S
C272 C271 1.398 . S
C272 C273 1.391 . S
C273 H261 0.950 . S
C273 C269 1.393 . S
C273 C272 1.391 . S
C274 H264 0.950 . S
C274 C275 1.386 . S
C274 C276 1.391 . S
C275 C274 1.386 . S
C275 C279 1.393 . S
C276 H265 0.950 . S
C276 C274 1.391 . S
C276 C277 1.400 . S
C277 C271 1.491 . S
C277 C276 1.400 . S
C277 C278 1.398 . S
C278 H266 0.950 . S
C278 C277 1.398 . S
C278 C279 1.391 . S
C279 H267 0.950 . S
C279 C275 1.393 . S
C279 C278 1.391 . S
H280 C288 0.950 . S
H281 C293 0.950 . S
H282 C290 0.950 . S
H283 C292 0.950 . S
H284 C294 0.950 . S
H285 C296 0.950 . S
H286 C298 0.950 . S
H287 C299 0.950 . S
C288 H280 0.950 . S
C288 C289 1.386 . S
C288 C290 1.391 . S
C289 C288 1.386 . S
C289 C293 1.393 . S
C290 H282 0.950 . S
C290 C288 1.391 . S
C290 C291 1.400 . S
C291 C290 1.400 . S
C291 C292 1.398 . S
C291 C297 1.491 . S
C292 H283 0.950 . S
C292 C291 1.398 . S
C292 C293 1.391 . S
C293 H281 0.950 . S
C293 C289 1.393 . S
C293 C292 1.391 . S
C294 H284 0.950 . S
C294 C295 1.386 . S
C294 C296 1.391 . S
C295 C294 1.386 . S
C295 C299 1.393 . S
C296 H285 0.950 . S
C296 C294 1.391 . S
C296 C297 1.400 . S
C297 C291 1.491 . S
C297 C296 1.400 . S
C297 C298 1.398 . S
C298 H286 0.950 . S
C298 C297 1.398 . S
C298 C299 1.391 . S
C299 H287 0.950 . S
C299 C295 1.393 . S
C299 C298 1.391 . S
H300 C308 0.950 . S
H301 C313 0.950 . S
H302 C310 0.950 . S
H303 C312 0.950 . S
H304 C314 0.950 . S
H305 C316 0.950 . S
H306 C318 0.950 . S
H307 C319 0.950 . S
C308 H300 0.950 . S
C308 C309 1.386 . S
C308 C310 1.391 . S
C309 C308 1.386 . S
C309 C313 1.393 . S
C310 H302 0.950 . S
C310 C308 1.391 . S
C310 C311 1.400 . S
C311 C310 1.400 . S
C311 C312 1.398 . S
C311 C317 1.491 . S
C312 H303 0.950 . S
C312 C311 1.398 . S
C312 C313 1.391 . S
C313 H301 0.950 . S
C313 C309 1.393 . S
C313 C312 1.391 . S
C314 H304 0.950 . S
C314 C315 1.386 . S
C314 C316 1.391 . S
C315 C314 1.386 . S
C315 C319 1.393 . S
C316 H305 0.950 . S
C316 C314 1.391 . S
C316 C317 1.400 . S
C317 C311 1.491 . S
C317 C316 1.400 . S
C317 C318 1.398 . S
C318 H306 0.950 . S
C318 C317 1.398 . S
C318 C319 1.391 . S
C319 H307 0.950 . S
C319 C315 1.393 . S
C319 C318 1.391 . S
H320 C328 0.950 . S
H321 C333 0.950 . S
H322 C330 0.950 . S
H323 C332 0.950 . S
H324 C334 0.950 . S
H325 C336 0.950 . S
H326 C338 0.950 . S
H327 C339 0.950 . S
C328 H320 0.950 . S
C328 C329 1.386 . S
C328 C330 1.391 . S
C329 C328 1.386 . S
C329 C333 1.393 . S
C330 H322 0.950 . S
C330 C328 1.391 . S
C330 C331 1.400 . S
C331 C330 1.400 . S
C331 C332 1.398 . S
C331 C337 1.491 . S
C332 H323 0.950 . S
C332 C331 1.398 . S
C332 C333 1.391 . S
C333 H321 0.950 . S
C333 C329 1.393 . S
C333 C332 1.391 . S
C334 H324 0.950 . S
C334 C335 1.386 . S
C334 C336 1.391 . S
C335 C334 1.386 . S
C335 C339 1.393 . S
C336 H325 0.950 . S
C336 C334 1.391 . S
C336 C337 1.400 . S
C337 C331 1.491 . S
C337 C336 1.400 . S
C337 C338 1.398 . S
C338 H326 0.950 . S
C338 C337 1.398 . S
C338 C339 1.391 . S
C339 H327 0.950 . S
C339 C335 1.393 . S
C339 C338 1.391 . S
H340 C348 0.950 . S
H341 C353 0.950 . S
H342 C350 0.950 . S
H343 C352 0.950 . S
H344 C354 0.950 . S
H345 C356 0.950 1_554 S
H346 C358 0.964 . S
H347 C359 0.950 . S
C348 H340 0.950 . S
C348 C349 1.386 . S
C348 C350 1.391 . S
C349 C348 1.386 . S
C349 C353 1.393 . S
C350 H342 0.950 . S
C350 C348 1.391 . S
C350 C351 1.400 . S
C351 C350 1.400 . S
C351 C352 1.398 . S
C351 C357 1.491 . S
C352 H343 0.950 . S
C352 C351 1.398 . S
C352 C353 1.391 . S
C353 H341 0.950 . S
C353 C349 1.393 . S
C353 C352 1.391 . S
C354 H344 0.950 . S
C354 C355 1.386 . S
C354 C356 1.391 . S
C355 C354 1.386 . S
C355 C359 1.393 . S
C356 H345 0.950 1_556 S
C356 C354 1.391 . S
C356 C357 1.400 1_556 S
C357 C351 1.491 . S
C357 C356 1.400 1_554 S
C357 C358 1.411 . S
C358 H346 0.964 . S
C358 C357 1.411 . S
C358 C359 1.365 1_554 S
C359 H347 0.950 . S
C359 C355 1.393 . S
C359 C358 1.365 1_556 S
H360 C368 0.950 . S
H361 C373 0.950 . S
H362 C370 0.950 . S
H363 C372 0.950 . S
H364 C374 0.950 . S
H365 C376 0.950 . S
H366 C378 0.950 . S
H367 C379 0.950 . S
C368 H360 0.950 . S
C368 C369 1.386 . S
C368 C370 1.391 . S
C369 C368 1.386 . S
C369 C373 1.393 . S
C370 H362 0.950 . S
C370 C368 1.391 . S
C370 C371 1.400 . S
C371 C370 1.400 . S
C371 C372 1.398 . S
C371 C377 1.491 . S
C372 H363 0.950 . S
C372 C371 1.398 . S
C372 C373 1.391 . S
C373 H361 0.950 . S
C373 C369 1.393 . S
C373 C372 1.391 . S
C374 H364 0.950 . S
C374 C375 1.386 . S
C374 C376 1.391 . S
C375 C374 1.386 . S
C375 C379 1.393 . S
C376 H365 0.950 . S
C376 C374 1.391 . S
C376 C377 1.400 . S
C377 C371 1.491 . S
C377 C376 1.400 . S
C377 C378 1.398 . S
C378 H366 0.950 . S
C378 C377 1.398 . S
C378 C379 1.391 . S
C379 H367 0.950 . S
C379 C375 1.393 . S
C379 C378 1.391 . S
H380 C388 0.950 . S
H381 C393 0.950 1_455 S
H382 C390 0.950 . S
H383 C392 0.950 . S
H384 C394 0.950 . S
H385 C396 0.950 . S
H386 C398 0.950 . S
H387 C399 0.950 . S
C388 H380 0.950 . S
C388 C389 1.386 . S
C388 C390 1.391 . S
C389 C388 1.386 . S
C389 C393 1.393 . S
C390 H382 0.950 . S
C390 C388 1.391 . S
C390 C391 1.400 . S
C391 C390 1.400 . S
C391 C392 1.398 . S
C391 C397 1.491 . S
C392 H383 0.950 . S
C392 C391 1.398 . S
C392 C393 1.391 . S
C393 H381 0.950 1_655 S
C393 C389 1.393 . S
C393 C392 1.391 . S
C394 H384 0.950 . S
C394 C395 1.386 . S
C394 C396 1.391 . S
C395 C394 1.386 . S
C395 C399 1.393 . S
C396 H385 0.950 . S
C396 C394 1.391 . S
C396 C397 1.400 . S
C397 C391 1.491 . S
C397 C396 1.400 . S
C397 C398 1.398 . S
C398 H386 0.950 . S
C398 C397 1.398 . S
C398 C399 1.391 . S
C399 H387 0.950 . S
C399 C395 1.393 . S
C399 C398 1.391 . S
H400 C408 0.950 . S
H401 C413 0.950 . S
H402 C410 0.950 . S
H403 C412 0.950 . S
H404 C414 0.950 . S
H405 C416 0.950 . S
H406 C418 0.950 . S
H407 C419 0.950 . S
C408 H400 0.950 . S
C408 C409 1.386 . S
C408 C410 1.391 . S
C409 C408 1.386 . S
C409 C413 1.393 . S
C410 H402 0.950 . S
C410 C408 1.391 . S
C410 C411 1.400 . S
C411 C410 1.400 . S
C411 C412 1.398 . S
C411 C417 1.491 . S
C412 H403 0.950 . S
C412 C411 1.398 . S
C412 C413 1.391 . S
C413 H401 0.950 . S
C413 C409 1.393 . S
C413 C412 1.391 . S
C414 H404 0.950 . S
C414 C415 1.386 1_565 S
C414 C416 1.391 1_565 S
C415 C414 1.386 1_545 S
C415 C419 1.393 . S
C416 H405 0.950 . S
C416 C414 1.391 1_545 S
C416 C417 1.400 . S
C417 C411 1.491 . S
C417 C416 1.400 . S
C417 C418 1.398 . S
C418 H406 0.950 . S
C418 C417 1.398 . S
C418 C419 1.391 . S
C419 H407 0.950 . S
C419 C415 1.393 . S
C419 C418 1.391 . S
H420 C428 0.950 . S
H421 C433 0.950 . S
H422 C430 0.950 . S
H423 C432 0.950 . S
H424 C434 0.950 . S
H425 C436 0.950 . S
H426 C438 0.950 . S
H427 C439 0.950 . S
C428 H420 0.950 . S
C428 C429 1.386 . S
C428 C430 1.391 . S
C429 C428 1.386 . S
C429 C433 1.393 . S
C430 H422 0.950 . S
C430 C428 1.391 . S
C430 C431 1.400 . S
C431 C430 1.400 . S
C431 C432 1.398 . S
C431 C437 1.491 . S
C432 H423 0.950 . S
C432 C431 1.398 . S
C432 C433 1.391 . S
C433 H421 0.950 . S
C433 C429 1.393 . S
C433 C432 1.391 . S
C434 H424 0.950 . S
C434 C435 1.386 . S
C434 C436 1.391 . S
C435 C434 1.386 . S
C435 C439 1.393 . S
C436 H425 0.950 . S
C436 C434 1.391 . S
C436 C437 1.400 . S
C437 C431 1.491 . S
C437 C436 1.400 . S
C437 C438 1.398 . S
C438 H426 0.950 . S
C438 C437 1.398 . S
C438 C439 1.391 . S
C439 H427 0.950 . S
C439 C435 1.393 . S
C439 C438 1.391 . S
H440 C448 0.950 . S
H441 C453 0.950 . S
H442 C450 0.950 . S
H443 C452 0.950 . S
H444 C454 0.950 . S
H445 C456 0.950 . S
H446 C458 0.947 1_655 S
H447 C459 0.950 . S
C448 H440 0.950 . S
C448 C449 1.386 . S
C448 C450 1.391 . S
C449 C448 1.386 . S
C449 C453 1.393 . S
C450 H442 0.950 . S
C450 C448 1.391 . S
C450 C451 1.400 . S
C451 C450 1.400 . S
C451 C452 1.398 . S
C451 C457 1.491 . S
C452 H443 0.950 . S
C452 C451 1.398 . S
C452 C453 1.391 . S
C453 H441 0.950 . S
C453 C449 1.393 . S
C453 C452 1.391 . S
C454 H444 0.950 . S
C454 C455 1.386 . S
C454 C456 1.391 . S
C455 C454 1.386 . S
C455 C459 1.393 1_455 S
C456 H445 0.950 . S
C456 C454 1.391 . S
C456 C457 1.400 . S
C457 C451 1.491 . S
C457 C456 1.400 . S
C457 C458 1.420 . S
C458 H446 0.947 1_455 S
C458 C457 1.420 . S
C458 C459 1.372 1_455 S
C459 H447 0.950 . S
C459 C455 1.393 1_655 S
C459 C458 1.372 1_655 S
H460 C468 0.950 . S
H461 C473 0.950 . S
H462 C470 0.950 . S
H463 C472 0.950 . S
H464 C474 0.950 . S
H465 C476 0.950 . S
H466 C478 0.950 . S
H467 C479 0.950 . S
C468 H460 0.950 . S
C468 C469 1.386 . S
C468 C470 1.391 . S
C469 C468 1.386 . S
C469 C473 1.393 . S
C470 H462 0.950 . S
C470 C468 1.391 . S
C470 C471 1.400 . S
C471 C470 1.400 . S
C471 C472 1.398 . S
C471 C477 1.491 . S
C472 H463 0.950 . S
C472 C471 1.398 . S
C472 C473 1.391 . S
C473 H461 0.950 . S
C473 C469 1.393 . S
C473 C472 1.391 . S
C474 H464 0.950 . S
C474 C475 1.386 . S
C474 C476 1.391 . S
C475 C474 1.386 . S
C475 C479 1.393 . S
C476 H465 0.950 . S
C476 C474 1.391 . S
C476 C477 1.400 . S
C477 C471 1.491 . S
C477 C476 1.400 . S
C477 C478 1.398 . S
C478 H466 0.950 . S
C478 C477 1.398 . S
C478 C479 1.391 . S
C479 H467 0.950 . S
C479 C475 1.393 . S
C479 C478 1.391 . S
H480 C488 0.950 . S
H481 C493 0.950 . S
H482 C490 0.950 . S
H483 C492 0.950 . S
H484 C494 0.950 . S
H485 C496 0.950 . S
H486 C498 0.950 . S
H487 C499 0.950 . S
C488 H480 0.950 . S
C488 C489 1.386 . S
C488 C490 1.391 . S
C489 C488 1.386 . S
C489 C493 1.393 . S
C490 H482 0.950 . S
C490 C488 1.391 . S
C490 C491 1.400 . S
C491 C490 1.400 . S
C491 C492 1.398 . S
C491 C497 1.491 . S
C492 H483 0.950 . S
C492 C491 1.398 . S
C492 C493 1.391 . S
C493 H481 0.950 . S
C493 C489 1.393 . S
C493 C492 1.391 . S
C494 H484 0.950 . S
C494 C495 1.386 . S
C494 C496 1.391 1_554 S
C495 C494 1.386 . S
C495 C499 1.393 1_554 S
C496 H485 0.950 . S
C496 C494 1.391 1_556 S
C496 C497 1.400 . S
C497 C491 1.491 . S
C497 C496 1.400 . S
C497 C498 1.398 . S
C498 H486 0.950 . S
C498 C497 1.398 . S
C498 C499 1.391 . S
C499 H487 0.950 . S
C499 C495 1.393 1_556 S
C499 C498 1.391 . S
H500 C508 0.950 . S
H501 C513 0.950 . S
H502 C510 0.950 . S
H503 C512 0.950 . S
H504 C514 0.950 . S
H505 C516 0.950 . S
H506 C518 0.945 1_655 S
H507 C519 0.950 . S
C508 H500 0.950 . S
C508 C509 1.386 . S
C508 C510 1.391 . S
C509 C508 1.386 . S
C509 C513 1.393 . S
C510 H502 0.950 . S
C510 C508 1.391 . S
C510 C511 1.400 . S
C511 C510 1.400 . S
C511 C512 1.398 . S
C511 C517 1.491 1_655 S
C512 H503 0.950 . S
C512 C511 1.398 . S
C512 C513 1.391 . S
C513 H501 0.950 . S
C513 C509 1.393 . S
C513 C512 1.391 . S
C514 H504 0.950 . S
C514 C515 1.386 . S
C514 C516 1.391 . S
C515 C514 1.386 . S
C515 C519 1.393 . S
C516 H505 0.950 . S
C516 C514 1.391 . S
C516 C517 1.400 . S
C517 C511 1.491 1_455 S
C517 C516 1.400 . S
C517 C518 1.398 . S
C518 H506 0.945 1_455 S
C518 C517 1.398 . S
C518 C519 1.391 . S
C519 H507 0.950 . S
C519 C515 1.393 . S
C519 C518 1.391 . S
H520 C528 0.950 . S
H521 C533 0.950 . S
H522 C530 0.950 1_545 S
H523 C532 0.950 . S
H524 C534 0.950 1_565 S
H525 C536 0.950 . S
H526 C538 0.950 . S
H527 C539 0.950 . S
C528 H520 0.950 . S
C528 C529 1.386 . S
C528 C530 1.391 . S
C529 C528 1.386 . S
C529 C533 1.393 . S
C530 H522 0.950 1_565 S
C530 C528 1.391 . S
C530 C531 1.400 . S
C531 C530 1.400 . S
C531 C532 1.398 . S
C531 C537 1.491 1_565 S
C532 H523 0.950 . S
C532 C531 1.398 . S
C532 C533 1.391 . S
C533 H521 0.950 . S
C533 C529 1.393 . S
C533 C532 1.391 . S
C534 H524 0.950 1_545 S
C534 C535 1.386 . S
C534 C536 1.391 1_545 S
C535 C534 1.386 . S
C535 C539 1.393 . S
C536 H525 0.950 . S
C536 C534 1.391 1_565 S
C536 C537 1.400 1_565 S
C537 C531 1.491 1_545 S
C537 C536 1.400 1_545 S
C537 C538 1.398 . S
C538 H526 0.950 . S
C538 C537 1.398 . S
C538 C539 1.391 . S
C539 H527 0.950 . S
C539 C535 1.393 . S
C539 C538 1.391 . S
H540 C548 0.950 . S
H541 C553 0.950 . S
H542 C550 0.950 . S
H543 C552 0.950 . S
H544 C554 0.950 . S
H545 C556 0.950 . S
H546 C558 0.950 . S
H547 C559 0.950 1_554 S
C548 H540 0.950 . S
C548 C549 1.386 . S
C548 C550 1.391 . S
C549 C548 1.386 . S
C549 C553 1.393 . S
C550 H542 0.950 . S
C550 C548 1.391 . S
C550 C551 1.400 . S
C551 C550 1.400 . S
C551 C552 1.398 . S
C551 C557 1.491 . S
C552 H543 0.950 . S
C552 C551 1.398 . S
C552 C553 1.391 . S
C553 H541 0.950 . S
C553 C549 1.393 . S
C553 C552 1.391 . S
C554 H544 0.950 . S
C554 C555 1.386 1_556 S
C554 C556 1.391 . S
C555 C554 1.386 1_554 S
C555 C559 1.393 1_554 S
C556 H545 0.950 . S
C556 C554 1.391 . S
C556 C557 1.400 . S
C557 C551 1.491 . S
C557 C556 1.400 . S
C557 C558 1.398 . S
C558 H546 0.950 . S
C558 C557 1.398 . S
C558 C559 1.391 . S
C559 H547 0.950 1_556 S
C559 C555 1.393 1_556 S
C559 C558 1.391 . S
H560 C568 0.950 . S
H561 C573 0.950 . S
H562 C570 0.950 . S
H563 C572 0.950 . S
H564 C574 0.950 . S
H565 C576 0.950 . S
H566 C578 0.950 . S
H567 C579 0.950 1_455 S
C568 H560 0.950 . S
C568 C569 1.386 . S
C568 C570 1.391 . S
C569 C568 1.386 . S
C569 C573 1.393 1_455 S
C570 H562 0.950 . S
C570 C568 1.391 . S
C570 C571 1.400 . S
C571 C570 1.400 . S
C571 C572 1.398 1_455 S
C571 C577 1.491 1_455 S
C572 H563 0.950 . S
C572 C571 1.398 1_655 S
C572 C573 1.391 . S
C573 H561 0.950 . S
C573 C569 1.393 1_655 S
C573 C572 1.391 . S
C574 H564 0.950 . S
C574 C575 1.386 . S
C574 C576 1.391 . S
C575 C574 1.386 . S
C575 C579 1.393 . S
C576 H565 0.950 . S
C576 C574 1.391 . S
C576 C577 1.400 . S
C577 C571 1.491 1_655 S
C577 C576 1.400 . S
C577 C578 1.398 1_655 S
C578 H566 0.950 . S
C578 C577 1.398 1_455 S
C578 C579 1.391 1_455 S
C579 H567 0.950 1_655 S
C579 C575 1.393 . S
C579 C578 1.391 1_655 S
H580 C588 0.950 . S
H581 C593 0.950 . S
H582 C590 0.950 1_565 S
H583 C592 0.950 . S
H584 C594 0.950 . S
H585 C596 0.950 . S
H586 C598 0.950 . S
H587 C599 0.950 . S
C588 H580 0.950 . S
C588 C589 1.386 . S
C588 C590 1.391 . S
C589 C588 1.386 . S
C589 C593 1.393 . S
C590 H582 0.950 1_545 S
C590 C588 1.391 . S
C590 C591 1.400 . S
C591 C590 1.400 . S
C591 C592 1.398 . S
C591 C597 1.491 1_545 S
C592 H583 0.950 . S
C592 C591 1.398 . S
C592 C593 1.391 . S
C593 H581 0.950 . S
C593 C589 1.393 . S
C593 C592 1.391 . S
C594 H584 0.950 . S
C594 C595 1.386 . S
C594 C596 1.391 . S
C595 C594 1.386 . S
C595 C599 1.393 . S
C596 H585 0.950 . S
C596 C594 1.391 . S
C596 C597 1.400 . S
C597 C591 1.491 1_565 S
C597 C596 1.400 . S
C597 C598 1.398 . S
C598 H586 0.950 . S
C598 C597 1.398 . S
C598 C599 1.391 . S
C599 H587 0.950 . S
C599 C595 1.393 . S
C599 C598 1.391 . S
C249 C185 1.348 . S
C255 C20 1.353 . S
C269 C220 1.354 . S
C275 C65 1.349 . S
C289 C25 1.350 . S
C295 C100 1.356 . S
C309 C60 1.367 . S
C315 C145 1.364 . S
C329 C105 1.356 . S
C335 C180 1.361 . S
C349 C140 1.355 . S
C355 C225 1.353 . S
C369 C2 1.659 . S
C375 C143 1.583 . S
C389 C162 1.648 1_655 S
C395 C63 1.547 . S
C409 C223 1.581 . S
C415 C82 1.661 1_545 S
C429 C103 1.554 . S
C435 C202 1.656 . S
C449 C23 1.573 . S
C455 C122 1.644 1_455 S
C469 C183 1.582 . S
C475 C42 1.656 1_565 S
C489 C231 1.576 . S
C495 C31 1.567 . S
C509 C44 0.765 . S
C515 C4 0.766 . S
C529 C111 1.569 . S
C535 C71 1.565 . S
C549 C84 0.763 . S
C555 C124 0.778 . S
C569 C191 1.568 . S
C575 C151 1.577 . S
C589 C204 0.775 . S
C595 C164 0.766 . S
