# Generated by pormake.
# Topology rob, (6)-cn, num edge types: 1
# Building blocks:
#     Node 0, Type 0, BuildingBlock: KUMBOL_clean_sbu_1, # of connection points: 6
#     Node 1, Type 0, BuildingBlock: KUMBOL_clean_sbu_1, # of connection points: 6
#     Node 2, Type 0, BuildingBlock: KUMBOL_clean_sbu_1, # of connection points: 6
#     Node 3, Type 0, BuildingBlock: KUMBOL_clean_sbu_1, # of connection points: 6
#     Edge 4, Type (0, 0), BuildingBlock: XIVTED_clean_linker_0, # of connection points: 2
#     Edge 5, Type (0, 0), BuildingBlock: XIVTED_clean_linker_0, # of connection points: 2
#     Edge 6, Type (0, 0), BuildingBlock: XIVTED_clean_linker_0, # of connection points: 2
#     Edge 7, Type (0, 0), BuildingBlock: XIVTED_clean_linker_0, # of connection points: 2
#     Edge 8, Type (0, 0), BuildingBlock: XIVTED_clean_linker_0, # of connection points: 2
#     Edge 9, Type (0, 0), BuildingBlock: XIVTED_clean_linker_0, # of connection points: 2
#     Edge 10, Type (0, 0), BuildingBlock: XIVTED_clean_linker_0, # of connection points: 2
#     Edge 11, Type (0, 0), BuildingBlock: XIVTED_clean_linker_0, # of connection points: 2
#     Edge 12, Type (0, 0), BuildingBlock: XIVTED_clean_linker_0, # of connection points: 2
#     Edge 13, Type (0, 0), BuildingBlock: XIVTED_clean_linker_0, # of connection points: 2
#     Edge 14, Type (0, 0), BuildingBlock: XIVTED_clean_linker_0, # of connection points: 2
#     Edge 15, Type (0, 0), BuildingBlock: XIVTED_clean_linker_0, # of connection points: 2
# Relax obj value: 0.020
# Max RMSD: 0.113
# Mean RMSD: 0.113
data_MOF--net-rob--node1-KUMBOL_clean_sbu_1--edge1-XIVTED_clean_linker_0
_symmetry_space_group_name_H-M    P1
_symmetry_Int_Tables_number       1
_symmetry_cell_setting            triclinic
loop_
_symmetry_equiv_pos_as_xyz
'x, y, z'
_cell_length_a     18.876248
_cell_length_b     23.456522
_cell_length_c     34.446379
_cell_angle_alpha  109.79158
_cell_angle_beta   89.932941
_cell_angle_gamma 89.908685
loop_
_atom_site_label
_atom_site_type_symbol
_atom_site_fract_x
_atom_site_fract_y
_atom_site_fract_z
_atom_type_partial_charge
C0 C 0.09867 0.41782 0.0522 0.0
C1 C 0.98175 0.37773 0.0286 0.0
C2 C 0.0528 0.36863 0.03784 0.0
C3 C 0.9572 0.43662 0.03465 0.0
C4 C 0.07422 0.4769 0.05776 0.0
C5 C 0.00325 0.48596 0.04929 0.0
N6 N 0.16699 0.40796 0.06077 0.0
C7 C 0.21343 0.45496 0.07503 0.0
C8 C 0.12178 0.52525 0.07182 0.0
C9 C 0.19171 0.51419 0.08046 0.0
Gd10 Gd 0.31062 0.19592 0.95976 0.0
Gd11 Gd 0.19494 0.30786 0.05415 0.0
N12 N 0.07796 0.3119 0.03219 0.0
C13 C 0.9373 0.32736 0.01371 0.0
C14 C 0.03393 0.26306 0.01938 0.0
C15 C 0.96348 0.26983 1.00925 0.0
H16 H 0.05206 0.21897 0.01763 0.0
H17 H 0.92907 0.23074 0.99865 0.0
H18 H 0.44946 0.29266 0.987 0.0
H19 H 0.26649 0.44714 0.08365 0.0
H20 H 0.57092 0.2932 0.01229 0.0
H21 H 0.88251 0.3325 1.00611 0.0
H22 H 0.90271 0.44451 0.02797 0.0
H23 H 0.24798 0.05582 0.94362 0.0
H24 H 0.1049 0.57127 0.07641 0.0
H25 H 0.2286 0.55139 0.09193 0.0
H26 H 0.60794 0.08984 0.00976 0.0
H27 H 0.9838 0.53094 0.05315 0.0
H28 H 0.4158 0.94959 0.96771 0.0
H29 H 0.29196 0.95845 0.94696 0.0
N30 N 0.3445 0.10252 0.96468 0.0
C31 C 0.41277 0.09878 0.97625 0.0
C32 C 0.30123 0.05308 0.95418 0.0
C33 C 0.39634 0.99277 0.96707 0.0
C34 C 0.32633 0.99763 0.95547 0.0
C35 C 0.44053 0.0436 0.97758 0.0
H36 H 0.53399 0.99844 0.98943 0.0
N37 N 0.42698 0.20326 0.9853 0.0
C38 C 0.45496 0.15054 0.9871 0.0
C39 C 0.56706 0.2003 0.00979 0.0
C40 C 0.52573 0.14785 0.99957 0.0
C41 C 0.46859 0.25325 0.9927 0.0
C42 C 0.53852 0.25305 1.00597 0.0
O43 O 0.1704 0.31087 0.99026 0.0
O44 O 0.20145 0.2181 0.94199 0.0
O45 O 0.36494 0.21289 0.90876 0.0
O46 O 0.32473 0.12367 0.90129 0.0
O47 O 0.18124 0.20641 0.03648 0.0
O48 O 0.20129 0.1624 0.9662 0.0
O49 O 0.32144 0.19031 0.0241 0.0
O50 O 0.30817 0.28878 0.06621 0.0
O51 O 0.15383 0.27664 0.10278 0.0
O52 O 0.17507 0.37169 0.11529 0.0
O53 O 0.31799 0.29749 0.97338 0.0
O54 O 0.30259 0.34084 0.04381 0.0
C55 C 0.1679 0.27048 0.95275 0.0
C56 C 0.17212 0.16252 1.00094 0.0
C57 C 0.32957 0.15141 0.84146 0.0
C58 C 0.35466 0.154 0.77235 0.0
C59 C 0.2392 0.12144 0.78831 0.0
C60 C 0.2611 0.13005 0.82857 0.0
C61 C 0.28557 0.1331 0.76031 0.0
C62 C 0.37607 0.16351 0.81327 0.0
C63 C 0.3546 0.15804 0.88334 0.0
C64 C 0.55355 0.09281 1.00058 0.0
C65 C 0.51134 0.04075 0.98915 0.0
H66 H 0.62158 0.2001 0.01956 0.0
C67 C 0.33225 0.23382 0.05943 0.0
C68 C 0.32583 0.3429 1.0083 0.0
C69 C 0.18199 0.337 0.17182 0.0
C70 C 0.15837 0.34004 0.24232 0.0
C71 C 0.27475 0.36686 0.22346 0.0
C72 C 0.25161 0.35628 0.18314 0.0
C73 C 0.22841 0.35928 0.253 0.0
C74 C 0.13577 0.32844 0.20139 0.0
C75 C 0.15481 0.33072 0.13051 0.0
H76 H 0.18622 0.10521 0.77867 0.0
H77 H 0.22481 0.11934 0.84946 0.0
H78 H 0.26718 0.12612 0.72926 0.0
H79 H 0.42947 0.17871 0.82292 0.0
H80 H 0.32853 0.38178 0.232 0.0
H81 H 0.28746 0.36436 0.16103 0.0
H82 H 0.24746 0.36804 0.28413 0.0
H83 H 0.08153 0.31471 0.19286 0.0
C84 C 0.6126 0.92692 0.06699 0.0
C85 C 0.49166 0.89346 0.04909 0.0
C86 C 0.56332 0.88038 0.0542 0.0
C87 C 0.47004 0.9539 0.05806 0.0
C88 C 0.59124 0.98759 0.07544 0.0
C89 C 0.51957 1.00086 0.0716 0.0
N90 N 0.68129 0.91292 0.07148 0.0
C91 C 0.73137 0.95718 0.08407 0.0
C92 C 0.64254 0.0332 0.08782 0.0
C93 C 0.71296 0.01786 0.09202 0.0
Gd94 Gd 0.80337 0.69608 0.95939 0.0
Gd95 Gd 0.70501 0.8111 0.06199 0.0
N96 N 0.58565 0.82234 0.04642 0.0
C97 C 0.44367 0.8454 0.03555 0.0
C98 C 0.53857 0.77562 0.0345 0.0
C99 C 0.46726 0.78626 0.02829 0.0
H100 H 0.55505 0.73023 0.03046 0.0
H101 H 0.43029 0.74888 0.01854 0.0
H102 H 0.94873 0.78648 0.98077 0.0
H103 H 0.78507 0.94597 0.08932 0.0
H104 H 0.0733 0.78045 0.99861 0.0
H105 H 0.38824 0.85353 0.03111 0.0
H106 H 0.41511 0.96484 0.05466 0.0
H107 H 0.73656 0.5577 0.94061 0.0
H108 H 0.62825 0.08032 0.09445 0.0
H109 H 0.75284 0.05287 0.1021 0.0
H110 H 0.10542 0.57277 0.98699 0.0
H111 H 0.50206 0.04727 0.07846 0.0
H112 H 0.905 0.44041 0.94965 0.0
H113 H 0.77898 0.45595 0.93633 0.0
N114 N 0.83669 0.59943 0.95817 0.0
C115 C 0.9061 0.59213 0.966 0.0
C116 C 0.79109 0.55163 0.94775 0.0
C117 C 0.88642 0.48532 0.95235 0.0
C118 C 0.81517 0.49391 0.94487 0.0
C119 C 0.93292 0.53467 0.96301 0.0
H120 H 0.02701 0.48444 0.96778 0.0
N121 N 0.92365 0.69692 0.97783 0.0
C122 C 0.95073 0.64224 0.97624 0.0
C123 C 0.06702 0.68657 0.99346 0.0
C124 C 0.02314 0.63575 0.98408 0.0
C125 C 0.96747 0.74539 0.98416 0.0
C126 C 0.03916 0.74147 0.99309 0.0
O127 O 0.67651 0.82345 1.001 0.0
O128 O 0.69131 0.72707 0.95472 0.0
O129 O 0.84824 0.71468 0.90662 0.0
O130 O 0.79432 0.63015 0.89753 0.0
O131 O 0.68438 0.71009 0.04418 0.0
O132 O 0.69454 0.66824 0.97291 0.0
O133 O 0.82343 0.68185 0.02064 0.0
O134 O 0.81718 0.77945 0.06395 0.0
O135 O 0.65331 0.79143 0.11298 0.0
O136 O 0.72691 0.86582 0.12521 0.0
O137 O 0.8184 0.79731 0.97479 0.0
O138 O 0.81262 0.83726 0.04579 0.0
C139 C 0.66865 0.78309 0.96381 0.0
C140 C 0.67094 0.66709 1.0087 0.0
C141 C 0.88957 0.6291 0.85216 0.0
C142 C 0.96013 0.61407 0.7897 0.0
C143 C 0.98257 0.55285 0.83302 0.0
C144 C 0.92813 0.58262 0.85958 0.0
C145 C 0.99828 0.56809 0.79819 0.0
C146 C 0.90603 0.64486 0.8172 0.0
C147 C 0.8324 0.66151 0.88053 0.0
C148 C 0.04991 0.57862 0.98124 0.0
C149 C 0.00516 0.52818 0.97022 0.0
H150 H 0.12286 0.68345 0.99974 0.0
C151 C 0.83469 0.72292 0.05694 0.0
C152 C 0.83079 0.84112 0.00991 0.0
C153 C 0.63421 0.87755 0.1735 0.0
C154 C 0.56792 0.89645 0.23798 0.0
C155 C 0.58094 0.97606 0.20799 0.0
C156 C 0.62026 0.93734 0.17554 0.0
C157 C 0.55473 0.95592 0.23889 0.0
C158 C 0.6075 0.85713 0.20476 0.0
C159 C 0.68127 0.83828 0.14095 0.0
H160 H 0.01199 0.51713 0.83911 0.0
H161 H 0.9158 0.56862 0.88552 0.0
H162 H 0.04089 0.54428 0.77811 0.0
H163 H 0.87614 0.68045 0.81116 0.0
H164 H 0.57174 0.02219 0.20938 0.0
H165 H 0.64105 0.95489 0.15265 0.0
H166 H 0.52373 0.98689 0.26346 0.0
H167 H 0.61943 0.81149 0.20386 0.0
C168 C 0.0901 0.58997 0.46 0.0
C169 C 0.97307 0.63566 0.47043 0.0
C170 C 0.04704 0.64056 0.46633 0.0
C171 C 0.94335 0.57971 0.46804 0.0
C172 C 0.06041 0.53381 0.45776 0.0
C173 C 0.98682 0.52886 0.46137 0.0
N174 N 0.16118 0.59583 0.45634 0.0
C175 C 0.2055 0.54763 0.45035 0.0
C176 C 0.10565 0.48421 0.45188 0.0
C177 C 0.17852 0.49122 0.4483 0.0
Gd178 Gd 0.30031 0.80376 0.55948 0.0
Gd179 Gd 0.20028 0.68997 0.45549 0.0
N180 N 0.07717 0.69401 0.46768 0.0
C181 C 0.93083 0.68678 0.47576 0.0
C182 C 0.03538 0.7426 0.47002 0.0
C183 C 0.9621 0.74028 0.47514 0.0
H184 H 0.0572 0.78253 0.46627 0.0
H185 H 0.92954 0.77935 0.4775 0.0
H186 H 0.44471 0.71147 0.53719 0.0
H187 H 0.26143 0.55224 0.44595 0.0
H188 H 0.57012 0.7172 0.52086 0.0
H189 H 0.87387 0.68489 0.47908 0.0
H190 H 0.88665 0.57513 0.47092 0.0
H191 H 0.23465 0.94271 0.57863 0.0
H192 H 0.08483 0.4403 0.44991 0.0
H193 H 0.2138 0.45299 0.44338 0.0
H194 H 0.60489 0.92558 0.53509 0.0
H195 H 0.96299 0.4859 0.4592 0.0
H196 H 0.40511 0.05942 0.57192 0.0
H197 H 0.27826 0.04451 0.58394 0.0
N198 N 0.3351 0.90065 0.56234 0.0
C199 C 0.40506 0.90773 0.55573 0.0
C200 C 0.28964 0.94867 0.57235 0.0
C201 C 0.38606 0.01463 0.56909 0.0
C202 C 0.31436 0.00637 0.57578 0.0
C203 C 0.43237 0.96501 0.55886 0.0
H204 H 0.52676 0.01433 0.55368 0.0
N205 N 0.42137 0.80243 0.54253 0.0
C206 C 0.44933 0.85723 0.54533 0.0
C207 C 0.56532 0.81186 0.5279 0.0
C208 C 0.52197 0.86321 0.53778 0.0
C209 C 0.46445 0.75316 0.53529 0.0
C210 C 0.53652 0.75674 0.52705 0.0
O211 O 0.17444 0.67631 0.51627 0.0
O212 O 0.1873 0.77311 0.56119 0.0
O213 O 0.34464 0.78644 0.61301 0.0
O214 O 0.28382 0.86766 0.6213 0.0
O215 O 0.18423 0.79174 0.47229 0.0
O216 O 0.1926 0.83087 0.54371 0.0
O217 O 0.32485 0.81809 0.49868 0.0
O218 O 0.31283 0.72131 0.45426 0.0
O219 O 0.1632 0.70143 0.39756 0.0
O220 O 0.21865 0.61944 0.3972 0.0
O221 O 0.31494 0.7025 0.54337 0.0
O222 O 0.30755 0.66326 0.47224 0.0
C223 C 0.16626 0.71703 0.55318 0.0
C224 C 0.17264 0.83499 0.50808 0.0
C225 C 0.3762 0.87419 0.66938 0.0
C226 C 0.44472 0.89113 0.73289 0.0
C227 C 0.45247 0.96229 0.69546 0.0
C228 C 0.40446 0.92782 0.66621 0.0
C229 C 0.47233 0.94436 0.72858 0.0
C230 C 0.39683 0.85587 0.70276 0.0
C231 C 0.32361 0.83828 0.63897 0.0
C232 C 0.54928 0.92019 0.54086 0.0
C233 C 0.50472 0.97091 0.55164 0.0
H234 H 0.62134 0.81459 0.52185 0.0
C235 C 0.33235 0.77754 0.46168 0.0
C236 C 0.32566 0.65865 0.50796 0.0
C237 C 0.18444 0.62115 0.33008 0.0
C238 C 0.13181 0.61202 0.26308 0.0
C239 C 0.22709 0.54436 0.26736 0.0
C240 C 0.22994 0.57255 0.30997 0.0
C241 C 0.17857 0.56377 0.24408 0.0
C242 C 0.13565 0.64123 0.30637 0.0
C243 C 0.18755 0.64811 0.37571 0.0
H244 H 0.4744 0.00322 0.69249 0.0
H245 H 0.38914 0.94358 0.64138 0.0
H246 H 0.51024 0.97185 0.75055 0.0
H247 H 0.37455 0.81494 0.70565 0.0
H248 H 0.26265 0.50717 0.25229 0.0
H249 H 0.26803 0.55611 0.32722 0.0
H250 H 0.17822 0.5412 0.21094 0.0
H251 H 0.09966 0.67807 0.32161 0.0
C252 C 0.61576 0.07686 0.46379 0.0
C253 C 0.49691 0.11091 0.48804 0.0
C254 C 0.56634 0.1235 0.47821 0.0
C255 C 0.4775 0.05093 0.48256 0.0
C256 C 0.5965 0.0167 0.45863 0.0
C257 C 0.52706 0.00401 0.46776 0.0
N258 N 0.68172 0.09003 0.45338 0.0
C259 C 0.7312 0.04556 0.43827 0.0
C260 C 0.64727 0.97087 0.44367 0.0
C261 C 0.71497 0.98543 0.43355 0.0
Gd262 Gd 0.80848 0.30878 0.55532 0.0
Gd263 Gd 0.70101 0.1911 0.45924 0.0
N264 N 0.58627 0.18108 0.48239 0.0
C265 C 0.44873 0.15891 0.50247 0.0
C266 C 0.53875 0.22758 0.4949 0.0
C267 C 0.46973 0.21744 0.5058 0.0
H268 H 0.55338 0.2723 0.496 0.0
H269 H 0.43241 0.25464 0.51614 0.0
H270 H 0.95076 0.21673 0.54677 0.0
H271 H 0.7825 0.05617 0.4287 0.0
H272 H 0.07746 0.21639 0.53131 0.0
H273 H 0.39497 0.15112 0.51051 0.0
H274 H 0.42417 0.04028 0.48952 0.0
H275 H 0.74671 0.44403 0.55814 0.0
H276 H 0.63448 0.92411 0.43936 0.0
H277 H 0.75428 0.9502 0.42144 0.0
H278 H 0.11977 0.41439 0.52526 0.0
H279 H 0.51121 0.95797 0.46355 0.0
H280 H 0.92341 0.55096 0.54631 0.0
H281 H 0.79476 0.54058 0.55568 0.0
N282 N 0.84648 0.39931 0.54782 0.0
C283 C 0.91731 0.40377 0.54229 0.0
C284 C 0.80247 0.44738 0.55245 0.0
C285 C 0.90237 0.50804 0.54635 0.0
C286 C 0.82969 0.50235 0.55161 0.0
C287 C 0.9471 0.45836 0.5413 0.0
H288 H 0.0442 0.50345 0.53499 0.0
N289 N 0.93021 0.30171 0.53964 0.0
C290 C 0.96007 0.35332 0.53729 0.0
C291 C 0.07572 0.30601 0.52737 0.0
C292 C 0.03366 0.3567 0.53102 0.0
C293 C 0.97207 0.25413 0.53941 0.0
C294 C 0.04486 0.25476 0.53207 0.0
O295 O 0.67917 0.18605 0.52309 0.0
O296 O 0.69829 0.28276 0.56771 0.0
O297 O 0.85316 0.30214 0.61303 0.0
O298 O 0.8012 0.38478 0.61162 0.0
O299 O 0.68377 0.29151 0.47409 0.0
O300 O 0.69877 0.3374 0.54434 0.0
O301 O 0.82597 0.31555 0.49148 0.0
O302 O 0.8126 0.21692 0.4487 0.0
O303 O 0.64934 0.21856 0.41192 0.0
O304 O 0.69544 0.12921 0.39586 0.0
O305 O 0.82224 0.20737 0.54167 0.0
O306 O 0.81145 0.16527 0.47081 0.0
C307 C 0.67271 0.22807 0.55966 0.0
C308 C 0.67108 0.33552 0.50894 0.0
C309 C 0.84665 0.38966 0.67806 0.0
C310 C 0.88698 0.39208 0.7463 0.0
C311 C 0.83617 0.48224 0.73712 0.0
C312 C 0.82693 0.45094 0.69529 0.0
C313 C 0.86534 0.45314 0.76244 0.0
C314 C 0.87725 0.36039 0.70367 0.0
C315 C 0.83406 0.35772 0.63353 0.0
C316 C 0.06335 0.41095 0.52985 0.0
C317 C 0.02031 0.46174 0.5354 0.0
H318 H 0.13237 0.30678 0.52245 0.0
C319 C 0.83659 0.27212 0.45589 0.0
C320 C 0.83457 0.16347 0.50638 0.0
C321 C 0.59248 0.14002 0.35936 0.0
C322 C 0.51031 0.13395 0.30306 0.0
C323 C 0.48629 0.07851 0.34989 0.0
C324 C 0.54927 0.09968 0.37071 0.0
C325 C 0.46648 0.0959 0.31659 0.0
C326 C 0.57303 0.15677 0.32524 0.0
C327 C 0.65684 0.16569 0.38335 0.0
H328 H 0.82071 0.52941 0.75004 0.0
H329 H 0.80395 0.47495 0.67645 0.0
H330 H 0.8718 0.47917 0.7947 0.0
H331 H 0.89236 0.31315 0.69059 0.0
H332 H 0.45298 0.04807 0.3594 0.0
H333 H 0.56402 0.0842 0.39551 0.0
H334 H 0.41699 0.0789 0.30119 0.0
H335 H 0.60736 0.18655 0.31564 0.0
H336 H 0.62373 0.63937 0.07526 0.0
H337 H 0.36514 0.37552 0.94231 0.0
H338 H 0.6032 0.58546 0.94284 0.0
H339 H 0.39387 0.42428 0.07389 0.0
H340 H 0.44915 0.45456 0.94209 0.0
H341 H 0.53712 0.56247 0.07549 0.0
C342 C 0.60122 0.61123 0.04619 0.0
C343 C 0.62099 0.61877 1.00894 0.0
C344 C 0.43669 0.44823 0.97105 0.0
C345 C 0.52146 0.53074 1.00904 0.0
C346 C 0.38863 0.40322 0.97121 0.0
C347 C 0.37203 0.39363 1.00823 0.0
C348 C 0.46853 0.48379 1.00816 0.0
C349 C 0.40419 0.43069 0.04473 0.0
C350 C 0.55168 0.56734 0.04636 0.0
C351 C 0.59001 0.58096 0.97225 0.0
N352 N 0.45101 0.47404 0.04375 0.0
N353 N 0.5417 0.53862 0.97323 0.0
H354 H 0.36248 0.62527 0.57399 0.0
H355 H 0.61658 0.35675 0.44166 0.0
H356 H 0.39422 0.57681 0.44254 0.0
H357 H 0.60824 0.42136 0.57487 0.0
H358 H 0.529 0.43285 0.44112 0.0
H359 H 0.44569 0.54572 0.57449 0.0
C360 C 0.38659 0.59766 0.54519 0.0
C361 C 0.37141 0.6077 0.50816 0.0
C362 C 0.54642 0.43048 0.47047 0.0
C363 C 0.46667 0.51683 0.50857 0.0
C364 C 0.59646 0.38703 0.47083 0.0
C365 C 0.61995 0.38283 0.5084 0.0
C366 C 0.51939 0.46989 0.50793 0.0
C367 C 0.59196 0.42325 0.5452 0.0
C368 C 0.43418 0.55237 0.54553 0.0
C369 C 0.40404 0.57049 0.47177 0.0
N370 N 0.54301 0.46511 0.54404 0.0
N371 N 0.45025 0.52676 0.47292 0.0
H372 H 0.10787 0.07878 0.9344 0.0
H373 H 0.9083 0.91664 0.07356 0.0
H374 H 0.12743 0.13294 0.06687 0.0
H375 H 0.86407 0.87642 0.94406 0.0
H376 H 0.99211 0.99383 0.07074 0.0
H377 H 0.0234 1.0004 0.93605 0.0
C378 C 0.09483 0.07389 0.96374 0.0
C379 C 0.1246 0.11245 1.00055 0.0
C380 C 0.96378 0.96846 0.04296 0.0
C381 C 0.02794 0.02357 1.00269 0.0
C382 C 0.91536 0.92468 0.04464 0.0
C383 C 0.87837 0.89061 1.00912 0.0
C384 C 0.97591 0.97796 1.00539 0.0
C385 C 0.8913 0.90188 0.97223 0.0
C386 C 0.04635 0.02946 0.96469 0.0
C387 C 0.10551 0.10446 0.03774 0.0
N388 N 0.93919 0.94458 0.97128 0.0
N389 N 0.05841 0.06098 0.03784 0.0
H390 H 0.91034 0.08916 0.44122 0.0
H391 H 0.10073 0.91225 0.57399 0.0
H392 H 0.87049 0.12601 0.57089 0.0
H393 H 0.13752 0.87325 0.44378 0.0
H394 H 0.01858 0.99241 0.57383 0.0
H395 H 0.99413 0.01026 0.44168 0.0
C396 C 0.91866 0.08021 0.46974 0.0
C397 C 0.88299 0.11386 0.50604 0.0
C398 C 0.04475 0.96647 0.54531 0.0
C399 C 0.97987 0.02425 0.50692 0.0
C400 C 0.09201 0.92086 0.5454 0.0
C401 C 0.12606 0.88597 0.5088 0.0
C402 C 0.03127 0.97728 0.50835 0.0
C403 C 0.1122 0.8989 0.47265 0.0
C404 C 0.96694 0.03541 0.47003 0.0
C405 C 0.89686 0.10105 0.54222 0.0
N406 N 0.06568 0.94344 0.47332 0.0
N407 N 0.94431 0.05724 0.54175 0.0
H408 H 0.4496 0.05852 0.23201 0.0
H409 H 0.39329 0.31268 0.12901 0.0
H410 H 0.52519 0.2418 0.28798 0.0
H411 H 0.3547 0.12234 0.06623 0.0
H412 H 0.4424 0.2887 0.18744 0.0
H413 H 0.41493 0.08197 0.17124 0.0
C414 C 0.45893 0.10386 0.23166 0.0
C415 C 0.49063 0.14818 0.26542 0.0
C416 C 0.42358 0.25218 0.16078 0.0
C417 C 0.45008 0.1756 0.19542 0.0
C418 C 0.39501 0.26587 0.12757 0.0
C419 C 0.36829 0.21962 0.09315 0.0
C420 C 0.42546 0.19172 0.15951 0.0
C421 C 0.37399 0.15956 0.0923 0.0
C422 C 0.43937 0.1171 0.19668 0.0
C423 C 0.50176 0.20591 0.26262 0.0
N424 N 0.40129 0.14744 0.12516 0.0
N425 N 0.48097 0.21811 0.22839 0.0
H426 H 0.5664 0.96027 0.32109 0.0
H427 H 0.35774 0.70522 0.38188 0.0
H428 H 0.50693 0.78748 0.23276 0.0
H429 H 0.39414 0.8862 0.46668 0.0
H430 H 0.41967 0.73188 0.32818 0.0
H431 H 0.51173 0.93113 0.37583 0.0
C432 C 0.54167 0.91619 0.31315 0.0
C433 C 0.54042 0.87663 0.27201 0.0
C434 C 0.41437 0.76572 0.35856 0.0
C435 C 0.47844 0.84247 0.33498 0.0
C436 C 0.37904 0.75053 0.38937 0.0
C437 C 0.37087 0.79341 0.4291 0.0
C438 C 0.44203 0.82428 0.36738 0.0
C439 C 0.39933 0.85149 0.43669 0.0
C440 C 0.51073 0.89946 0.34454 0.0
C441 C 0.5094 0.8194 0.26393 0.0
N442 N 0.43356 0.86515 0.40615 0.0
N443 N 0.47936 0.8042 0.29505 0.0
H444 H 0.6066 0.89248 0.96968 0.0
H445 H 0.4795 0.77731 0.73318 0.0
H446 H 0.63667 0.71009 0.88522 0.0
H447 H 0.46237 0.96311 0.81392 0.0
H448 H 0.52651 0.75005 0.79075 0.0
H449 H 0.54413 0.91757 0.91517 0.0
C450 C 0.59982 0.8576 0.93986 0.0
C451 C 0.62735 0.79906 0.93214 0.0
C452 C 0.51214 0.79677 0.79596 0.0
C453 C 0.55594 0.82764 0.86948 0.0
C454 C 0.48478 0.81227 0.7631 0.0
C455 C 0.46745 0.8727 0.76848 0.0
C456 C 0.52216 0.84191 0.83469 0.0
C457 C 0.47618 0.91611 0.80805 0.0
C458 C 0.56417 0.87201 0.9087 0.0
C459 C 0.61668 0.75585 0.89276 0.0
N460 N 0.50314 0.89996 0.83948 0.0
N461 N 0.58219 0.77105 0.86301 0.0
H462 H 0.61047 0.12058 0.55669 0.0
H463 H 0.4456 0.24961 0.78388 0.0
H464 H 0.63388 0.30687 0.63574 0.0
H465 H 0.37648 0.08351 0.69159 0.0
H466 H 0.5251 0.26738 0.73285 0.0
H467 H 0.53437 0.10283 0.60894 0.0
C468 C 0.5992 0.15792 0.58471 0.0
C469 C 0.62776 0.21569 0.59132 0.0
C470 C 0.49249 0.22707 0.72382 0.0
C471 C 0.54159 0.19483 0.65152 0.0
C472 C 0.44748 0.21669 0.75299 0.0
C473 C 0.40422 0.16503 0.74202 0.0
C474 C 0.49494 0.18515 0.68349 0.0
C475 C 0.40829 0.12427 0.70135 0.0
C476 C 0.55588 0.14754 0.61453 0.0
C477 C 0.61268 0.2617 0.62899 0.0
N478 N 0.45295 0.13508 0.67366 0.0
N479 N 0.5707 0.25028 0.65764 0.0
H480 H 0.85897 0.60963 0.06069 0.0
H481 H 0.09268 0.72738 0.26726 0.0
H482 H 0.89962 0.79887 0.12638 0.0
H483 H 0.0525 0.53892 0.19897 0.0
H484 H 0.0157 0.75549 0.21921 0.0
H485 H 0.92244 0.58407 0.11454 0.0
C486 C 0.88186 0.64577 0.08618 0.0
C487 C 0.87425 0.70648 0.08885 0.0
C488 C 0.02352 0.708 0.21491 0.0
C489 C 0.94925 0.67721 0.14991 0.0
C490 C 0.06707 0.69195 0.24253 0.0
C491 C 0.07979 0.63068 0.237 0.0
C492 C 0.99221 0.66247 0.18159 0.0
C493 C 0.04548 0.58673 0.20409 0.0
C494 C 0.91838 0.6311 0.11683 0.0
C495 C 0.90432 0.75141 0.12296 0.0
N496 N 0.00378 0.60345 0.17763 0.0
N497 N 0.94097 0.73587 0.15193 0.0
H498 H 0.87536 0.19155 0.38083 0.0
H499 H 0.13497 0.418 0.32109 0.0
H500 H 0.90086 0.37875 0.45743 0.0
H501 H 0.06925 0.24516 0.23543 0.0
H502 H 0.05449 0.40358 0.3729 0.0
H503 H 0.95126 0.20932 0.32892 0.0
C504 C 0.89702 0.23647 0.38694 0.0
C505 C 0.88215 0.28354 0.42405 0.0
C506 C 0.05781 0.36881 0.34283 0.0
C507 C 0.96984 0.30413 0.36428 0.0
C508 C 0.10385 0.37688 0.31328 0.0
C509 C 0.10897 0.33255 0.27391 0.0
C510 C 0.01744 0.31558 0.33324 0.0
C511 C 0.06668 0.2806 0.26529 0.0
C512 C 0.94039 0.24657 0.35711 0.0
C513 C 0.91171 0.34079 0.42978 0.0
N514 N 0.02316 0.27337 0.29477 0.0
N515 N 0.95443 0.3494 0.40034 0.0
H516 H 0.99546 0.30752 0.72899 0.0
H517 H 0.09232 0.37424 0.96139 0.0
H518 H 0.85723 0.41098 0.82801 0.0
H519 H 0.14013 0.19838 0.87261 0.0
H520 H 0.01772 0.39543 0.91022 0.0
H521 H 0.05955 0.27153 0.77824 0.0
C522 C 0.97777 0.3221 0.76076 0.0
C523 C 0.92131 0.36341 0.77425 0.0
C524 C 0.04428 0.35211 0.9022 0.0
C525 C 0.99592 0.32367 0.83075 0.0
C526 C 0.08674 0.33966 0.93143 0.0
C527 C 0.12224 0.2839 0.9217 0.0
C528 C 0.03856 0.30947 0.86241 0.0
C529 C 0.11424 0.24198 0.88155 0.0
C530 C 0.01473 0.30173 0.78885 0.0
C531 C 0.90168 0.38093 0.81612 0.0
N532 N 0.07381 0.2558 0.85318 0.0
N533 N 0.93956 0.36181 0.84287 0.0
H534 H 0.1159 0.60553 0.55044 0.0
H535 H 0.9756 0.72747 0.78436 0.0
H536 H 0.12727 0.79247 0.62995 0.0
H537 H 0.98759 0.53783 0.71095 0.0
H538 H 0.01738 0.75296 0.72498 0.0
H539 H 0.05647 0.5808 0.60603 0.0
C540 C 0.1055 0.64145 0.57938 0.0
C541 C 0.12696 0.70118 0.58548 0.0
C542 C 0.01051 0.70575 0.72176 0.0
C543 C 0.05898 0.67304 0.64923 0.0
C544 C 0.98615 0.69121 0.7556 0.0
C545 C 0.97875 0.63043 0.75278 0.0
C546 C 0.02738 0.65922 0.68467 0.0
C547 C 0.99378 0.58529 0.71473 0.0
C548 C 0.07165 0.62724 0.61112 0.0
C549 C 0.11207 0.74575 0.62377 0.0
N550 N 0.01766 0.60057 0.68227 0.0
N551 N 0.07929 0.73075 0.65412 0.0
loop_
_geom_bond_atom_site_label_1
_geom_bond_atom_site_label_2
_geom_bond_distance
_geom_bond_site_symmetry_2
_ccdc_geom_bond_type
C0 C2 1.422 . S
C0 C4 1.415 . S
C0 N6 1.369 . S
C1 C2 1.421 1_655 S
C1 C3 1.419 1_554 S
C1 C13 1.422 1_554 S
C2 C0 1.422 . S
C2 C1 1.421 1_455 S
C2 N12 1.359 . S
C3 C1 1.419 1_556 S
C3 C5 1.329 1_556 S
C3 H22 0.929 . S
C4 C0 1.415 . S
C4 C5 1.437 1_455 S
C4 C8 1.413 . S
C5 C3 1.329 1_554 S
C5 C4 1.437 1_655 S
C5 H27 0.929 . S
N6 C0 1.369 . S
N6 C7 1.338 . S
N6 Gd11 2.622 . S
C7 N6 1.338 . S
C7 C9 1.378 . S
C7 H19 0.929 . S
C8 C4 1.413 . S
C8 C9 1.348 . S
C8 H24 0.931 . S
C9 C7 1.378 . S
C9 C8 1.348 . S
C9 H25 0.930 . S
Gd10 N30 2.622 . S
Gd10 N37 2.570 . S
Gd10 O44 2.353 . S
Gd10 O45 2.468 . S
Gd10 O46 2.427 . S
Gd10 O48 2.388 . S
Gd10 O49 2.386 1_556 S
Gd10 O53 2.307 . S
Gd10 C63 2.805 . S
Gd11 N6 2.622 . S
Gd11 N12 2.570 . S
Gd11 O43 2.386 1_554 S
Gd11 O47 2.307 . S
Gd11 O50 2.353 . S
Gd11 O51 2.468 . S
Gd11 O52 2.427 . S
Gd11 O54 2.388 . S
Gd11 C75 2.805 . S
N12 C2 1.359 . S
N12 Gd11 2.570 . S
N12 C14 1.343 . S
C13 C1 1.422 1_556 S
C13 C15 1.323 . S
C13 H21 0.931 . S
C14 N12 1.343 . S
C14 C15 1.388 1_454 S
C14 H16 0.931 . S
C15 C13 1.323 . S
C15 C14 1.388 1_656 S
C15 H17 0.930 . S
H16 C14 0.931 . S
H17 C15 0.930 . S
H18 C41 0.931 . S
H19 C7 0.929 . S
H20 C42 0.929 . S
H21 C13 0.931 . S
H22 C3 0.929 . S
H23 C32 0.929 . S
H24 C8 0.931 . S
H25 C9 0.930 . S
H26 C64 0.931 . S
H27 C5 0.929 . S
H28 C33 0.931 . S
H29 C34 0.930 . S
N30 Gd10 2.622 . S
N30 C31 1.369 . S
N30 C32 1.338 . S
C31 N30 1.369 . S
C31 C35 1.415 . S
C31 C38 1.422 . S
C32 H23 0.929 . S
C32 N30 1.338 . S
C32 C34 1.378 1_545 S
C33 H28 0.931 . S
C33 C34 1.348 . S
C33 C35 1.413 1_565 S
C34 H29 0.930 . S
C34 C32 1.378 1_565 S
C34 C33 1.348 . S
C35 C31 1.415 . S
C35 C33 1.413 1_545 S
C35 C65 1.437 . S
H36 C65 0.929 1_565 S
N37 Gd10 2.570 . S
N37 C38 1.359 . S
N37 C41 1.343 . S
C38 C31 1.422 . S
C38 N37 1.359 . S
C38 C40 1.421 . S
C39 C40 1.422 1_554 S
C39 C42 1.326 . S
C39 H66 0.931 . S
C40 C38 1.421 . S
C40 C39 1.422 1_556 S
C40 C64 1.416 1_556 S
C41 H18 0.931 . S
C41 N37 1.343 . S
C41 C42 1.386 1_556 S
C42 H20 0.929 . S
C42 C39 1.326 . S
C42 C41 1.386 1_554 S
O43 Gd11 2.386 1_556 S
O43 C55 1.265 . S
O44 Gd10 2.353 . S
O44 C55 1.242 . S
O45 Gd10 2.468 . S
O45 C63 1.263 . S
O46 Gd10 2.427 . S
O46 C63 1.252 . S
O47 Gd11 2.307 . S
O47 C56 1.261 1_554 S
O48 Gd10 2.388 . S
O48 C56 1.252 . S
O49 Gd10 2.386 1_554 S
O49 C67 1.265 . S
O50 Gd11 2.353 . S
O50 C67 1.242 . S
O51 Gd11 2.468 . S
O51 C75 1.263 . S
O52 Gd11 2.427 . S
O52 C75 1.252 . S
O53 Gd10 2.307 . S
O53 C68 1.261 1_556 S
O54 Gd11 2.388 . S
O54 C68 1.252 . S
C55 O43 1.265 . S
C55 O44 1.242 . S
C56 O47 1.261 1_556 S
C56 O48 1.252 . S
C57 C60 1.394 . S
C57 C62 1.370 . S
C57 C63 1.500 . S
C58 C61 1.383 . S
C58 C62 1.395 . S
C59 C60 1.396 . S
C59 C61 1.365 . S
C59 H76 0.929 . S
C60 C57 1.394 . S
C60 C59 1.396 . S
C60 H77 0.930 . S
C61 C58 1.383 . S
C61 C59 1.365 . S
C61 H78 0.931 . S
C62 C57 1.370 . S
C62 C58 1.395 . S
C62 H79 0.930 . S
C63 Gd10 2.805 . S
C63 O45 1.263 . S
C63 O46 1.252 . S
C63 C57 1.500 . S
C64 H26 0.931 . S
C64 C40 1.416 1_554 S
C64 C65 1.329 1_554 S
C65 C35 1.437 . S
C65 H36 0.929 1_545 S
C65 C64 1.329 1_556 S
H66 C39 0.931 . S
C67 O49 1.265 . S
C67 O50 1.242 . S
C68 O53 1.261 1_554 S
C68 O54 1.252 . S
C69 C72 1.394 . S
C69 C74 1.370 . S
C69 C75 1.500 . S
C70 C73 1.383 . S
C70 C74 1.395 . S
C71 C72 1.396 . S
C71 C73 1.365 . S
C71 H80 0.929 . S
C72 C69 1.394 . S
C72 C71 1.396 . S
C72 H81 0.930 . S
C73 C70 1.383 . S
C73 C71 1.365 . S
C73 H82 0.931 . S
C74 C69 1.370 . S
C74 C70 1.395 . S
C74 H83 0.930 . S
C75 Gd11 2.805 . S
C75 O51 1.263 . S
C75 O52 1.252 . S
C75 C69 1.500 . S
H76 C59 0.929 . S
H77 C60 0.930 . S
H78 C61 0.931 . S
H79 C62 0.930 . S
H80 C71 0.929 . S
H81 C72 0.930 . S
H82 C73 0.931 . S
H83 C74 0.930 . S
C84 C86 1.422 . S
C84 C88 1.415 . S
C84 N90 1.369 . S
C85 C86 1.421 . S
C85 C87 1.419 1_554 S
C85 C97 1.422 1_554 S
C86 C84 1.422 . S
C86 C85 1.421 . S
C86 N96 1.359 . S
C87 C85 1.419 1_556 S
C87 C89 1.329 1_556 S
C87 H106 0.929 . S
C88 C84 1.415 . S
C88 C89 1.437 . S
C88 C92 1.413 1_565 S
C89 C87 1.329 1_554 S
C89 C88 1.437 . S
C89 H111 0.929 1_565 S
N90 C84 1.369 . S
N90 C91 1.338 . S
N90 Gd95 2.622 . S
C91 N90 1.338 . S
C91 C93 1.378 1_565 S
C91 H103 0.929 . S
C92 C88 1.413 1_545 S
C92 C93 1.348 . S
C92 H108 0.931 . S
C93 C91 1.378 1_545 S
C93 C92 1.348 . S
C93 H109 0.930 . S
Gd94 N114 2.622 . S
Gd94 N121 2.570 . S
Gd94 O128 2.353 . S
Gd94 O129 2.468 . S
Gd94 O130 2.427 . S
Gd94 O132 2.388 . S
Gd94 O133 2.386 1_556 S
Gd94 O137 2.307 . S
Gd94 C147 2.805 . S
Gd95 N90 2.622 . S
Gd95 N96 2.570 . S
Gd95 O127 2.386 1_554 S
Gd95 O131 2.307 . S
Gd95 O134 2.353 . S
Gd95 O135 2.468 . S
Gd95 O136 2.427 . S
Gd95 O138 2.388 . S
Gd95 C159 2.805 . S
N96 C86 1.359 . S
N96 Gd95 2.570 . S
N96 C98 1.343 . S
C97 C85 1.422 1_556 S
C97 C99 1.323 . S
C97 H105 0.931 . S
C98 N96 1.343 . S
C98 C99 1.388 1_554 S
C98 H100 0.931 . S
C99 C97 1.323 . S
C99 C98 1.388 1_556 S
C99 H101 0.930 . S
H100 C98 0.931 . S
H101 C99 0.930 . S
H102 C125 0.931 . S
H103 C91 0.929 . S
H104 C126 0.929 . S
H105 C97 0.931 . S
H106 C87 0.929 . S
H107 C116 0.929 . S
H108 C92 0.931 . S
H109 C93 0.930 . S
H110 C148 0.931 . S
H111 C89 0.929 1_545 S
H112 C117 0.931 . S
H113 C118 0.930 . S
N114 Gd94 2.622 . S
N114 C115 1.369 . S
N114 C116 1.338 . S
C115 N114 1.369 . S
C115 C119 1.415 . S
C115 C122 1.422 . S
C116 H107 0.929 . S
C116 N114 1.338 . S
C116 C118 1.378 . S
C117 H112 0.931 . S
C117 C118 1.348 . S
C117 C119 1.413 . S
C118 H113 0.930 . S
C118 C116 1.378 . S
C118 C117 1.348 . S
C119 C115 1.415 . S
C119 C117 1.413 . S
C119 C149 1.437 1_655 S
H120 C149 0.929 . S
N121 Gd94 2.570 . S
N121 C122 1.359 . S
N121 C125 1.343 . S
C122 C115 1.422 . S
C122 N121 1.359 . S
C122 C124 1.421 1_655 S
C123 C124 1.422 1_554 S
C123 C126 1.326 . S
C123 H150 0.931 . S
C124 C122 1.421 1_455 S
C124 C123 1.422 1_556 S
C124 C148 1.416 1_556 S
C125 H102 0.931 . S
C125 N121 1.343 . S
C125 C126 1.386 1_656 S
C126 H104 0.929 . S
C126 C123 1.326 . S
C126 C125 1.386 1_454 S
O127 Gd95 2.386 1_556 S
O127 C139 1.265 . S
O128 Gd94 2.353 . S
O128 C139 1.242 . S
O129 Gd94 2.468 . S
O129 C147 1.263 . S
O130 Gd94 2.427 . S
O130 C147 1.252 . S
O131 Gd95 2.307 . S
O131 C140 1.261 1_554 S
O132 Gd94 2.388 . S
O132 C140 1.252 . S
O133 Gd94 2.386 1_554 S
O133 C151 1.265 . S
O134 Gd95 2.353 . S
O134 C151 1.242 . S
O135 Gd95 2.468 . S
O135 C159 1.263 . S
O136 Gd95 2.427 . S
O136 C159 1.252 . S
O137 Gd94 2.307 . S
O137 C152 1.261 1_556 S
O138 Gd95 2.388 . S
O138 C152 1.252 . S
C139 O127 1.265 . S
C139 O128 1.242 . S
C140 O131 1.261 1_556 S
C140 O132 1.252 . S
C141 C144 1.394 . S
C141 C146 1.370 . S
C141 C147 1.500 . S
C142 C145 1.383 . S
C142 C146 1.395 . S
C143 C144 1.396 . S
C143 C145 1.365 . S
C143 H160 0.929 . S
C144 C141 1.394 . S
C144 C143 1.396 . S
C144 H161 0.930 . S
C145 C142 1.383 . S
C145 C143 1.365 . S
C145 H162 0.931 . S
C146 C141 1.370 . S
C146 C142 1.395 . S
C146 H163 0.930 . S
C147 Gd94 2.805 . S
C147 O129 1.263 . S
C147 O130 1.252 . S
C147 C141 1.500 . S
C148 H110 0.931 . S
C148 C124 1.416 1_554 S
C148 C149 1.329 1_554 S
C149 C119 1.437 1_455 S
C149 H120 0.929 . S
C149 C148 1.329 1_556 S
H150 C123 0.931 . S
C151 O133 1.265 . S
C151 O134 1.242 . S
C152 O137 1.261 1_554 S
C152 O138 1.252 . S
C153 C156 1.394 . S
C153 C158 1.370 . S
C153 C159 1.500 . S
C154 C157 1.383 . S
C154 C158 1.395 . S
C155 C156 1.396 . S
C155 C157 1.365 . S
C155 H164 0.929 . S
C156 C153 1.394 . S
C156 C155 1.396 . S
C156 H165 0.930 . S
C157 C154 1.383 . S
C157 C155 1.365 . S
C157 H166 0.931 . S
C158 C153 1.370 . S
C158 C154 1.395 . S
C158 H167 0.930 . S
C159 Gd95 2.805 . S
C159 O135 1.263 . S
C159 O136 1.252 . S
C159 C153 1.500 . S
H160 C143 0.929 . S
H161 C144 0.930 . S
H162 C145 0.931 . S
H163 C146 0.930 . S
H164 C155 0.929 . S
H165 C156 0.930 . S
H166 C157 0.931 . S
H167 C158 0.930 . S
C168 C170 1.422 . S
C168 C172 1.415 . S
C168 N174 1.369 . S
C169 C170 1.421 1_655 S
C169 C171 1.417 . S
C169 C181 1.422 . S
C170 C168 1.422 . S
C170 C169 1.421 1_455 S
C170 N180 1.359 . S
C171 C169 1.417 . S
C171 C173 1.329 . S
C171 H190 0.930 . S
C172 C168 1.415 . S
C172 C173 1.437 1_455 S
C172 C176 1.413 . S
C173 C171 1.329 . S
C173 C172 1.437 1_655 S
C173 H195 0.929 . S
N174 C168 1.369 . S
N174 C175 1.338 . S
N174 Gd179 2.622 . S
C175 N174 1.338 . S
C175 C177 1.378 . S
C175 H187 0.929 . S
C176 C172 1.413 . S
C176 C177 1.348 . S
C176 H192 0.931 . S
C177 C175 1.378 . S
C177 C176 1.348 . S
C177 H193 0.930 . S
Gd178 N198 2.622 . S
Gd178 N205 2.570 . S
Gd178 O212 2.353 . S
Gd178 O213 2.468 . S
Gd178 O214 2.427 . S
Gd178 O216 2.388 . S
Gd178 O217 2.386 . S
Gd178 O221 2.307 . S
Gd178 C231 2.805 . S
Gd179 N174 2.622 . S
Gd179 N180 2.570 . S
Gd179 O211 2.386 . S
Gd179 O215 2.307 . S
Gd179 O218 2.353 . S
Gd179 O219 2.468 . S
Gd179 O220 2.427 . S
Gd179 O222 2.388 . S
Gd179 C243 2.805 . S
N180 C170 1.359 . S
N180 Gd179 2.570 . S
N180 C182 1.343 . S
C181 C169 1.422 . S
C181 C183 1.321 . S
C181 H189 0.931 . S
C182 N180 1.343 . S
C182 C183 1.390 1_455 S
C182 H184 0.931 . S
C183 C181 1.321 . S
C183 C182 1.390 1_655 S
C183 H185 0.930 . S
H184 C182 0.931 . S
H185 C183 0.930 . S
H186 C209 0.931 . S
H187 C175 0.929 . S
H188 C210 0.930 . S
H189 C181 0.931 . S
H190 C171 0.930 . S
H191 C200 0.929 . S
H192 C176 0.931 . S
H193 C177 0.930 . S
H194 C232 0.930 . S
H195 C173 0.929 . S
H196 C201 0.931 . S
H197 C202 0.930 . S
N198 Gd178 2.622 . S
N198 C199 1.369 . S
N198 C200 1.338 . S
C199 N198 1.369 . S
C199 C203 1.415 . S
C199 C206 1.422 . S
C200 H191 0.929 . S
C200 N198 1.338 . S
C200 C202 1.378 1_565 S
C201 H196 0.931 . S
C201 C202 1.348 . S
C201 C203 1.413 1_545 S
C202 H197 0.930 . S
C202 C200 1.378 1_545 S
C202 C201 1.348 . S
C203 C199 1.415 . S
C203 C201 1.413 1_565 S
C203 C233 1.437 . S
H204 C233 0.929 1_545 S
N205 Gd178 2.570 . S
N205 C206 1.359 . S
N205 C209 1.343 . S
C206 C199 1.422 . S
C206 N205 1.359 . S
C206 C208 1.421 . S
C207 C208 1.422 . S
C207 C210 1.321 . S
C207 H234 0.931 . S
C208 C206 1.421 . S
C208 C207 1.422 . S
C208 C232 1.417 . S
C209 H186 0.931 . S
C209 N205 1.343 . S
C209 C210 1.390 . S
C210 H188 0.930 . S
C210 C207 1.321 . S
C210 C209 1.390 . S
O211 Gd179 2.386 . S
O211 C223 1.265 . S
O212 Gd178 2.353 . S
O212 C223 1.242 . S
O213 Gd178 2.468 . S
O213 C231 1.263 . S
O214 Gd178 2.427 . S
O214 C231 1.252 . S
O215 Gd179 2.307 . S
O215 C224 1.261 . S
O216 Gd178 2.388 . S
O216 C224 1.252 . S
O217 Gd178 2.386 . S
O217 C235 1.265 . S
O218 Gd179 2.353 . S
O218 C235 1.242 . S
O219 Gd179 2.468 . S
O219 C243 1.263 . S
O220 Gd179 2.427 . S
O220 C243 1.252 . S
O221 Gd178 2.307 . S
O221 C236 1.261 . S
O222 Gd179 2.388 . S
O222 C236 1.252 . S
C223 O211 1.265 . S
C223 O212 1.242 . S
C224 O215 1.261 . S
C224 O216 1.252 . S
C225 C228 1.394 . S
C225 C230 1.370 . S
C225 C231 1.500 . S
C226 C229 1.383 . S
C226 C230 1.395 . S
C227 C228 1.396 . S
C227 C229 1.365 . S
C227 H244 0.929 . S
C228 C225 1.394 . S
C228 C227 1.396 . S
C228 H245 0.930 . S
C229 C226 1.383 . S
C229 C227 1.365 . S
C229 H246 0.931 . S
C230 C225 1.370 . S
C230 C226 1.395 . S
C230 H247 0.930 . S
C231 Gd178 2.805 . S
C231 O213 1.263 . S
C231 O214 1.252 . S
C231 C225 1.500 . S
C232 H194 0.930 . S
C232 C208 1.417 . S
C232 C233 1.329 . S
C233 C203 1.437 . S
C233 H204 0.929 1_565 S
C233 C232 1.329 . S
H234 C207 0.931 . S
C235 O217 1.265 . S
C235 O218 1.242 . S
C236 O221 1.261 . S
C236 O222 1.252 . S
C237 C240 1.394 . S
C237 C242 1.370 . S
C237 C243 1.500 . S
C238 C241 1.383 . S
C238 C242 1.395 . S
C239 C240 1.396 . S
C239 C241 1.365 . S
C239 H248 0.929 . S
C240 C237 1.394 . S
C240 C239 1.396 . S
C240 H249 0.930 . S
C241 C238 1.383 . S
C241 C239 1.365 . S
C241 H250 0.931 . S
C242 C237 1.370 . S
C242 C238 1.395 . S
C242 H251 0.930 . S
C243 Gd179 2.805 . S
C243 O219 1.263 . S
C243 O220 1.252 . S
C243 C237 1.500 . S
H244 C227 0.929 . S
H245 C228 0.930 . S
H246 C229 0.931 . S
H247 C230 0.930 . S
H248 C239 0.929 . S
H249 C240 0.930 . S
H250 C241 0.931 . S
H251 C242 0.930 . S
C252 C254 1.422 . S
C252 C256 1.415 . S
C252 N258 1.369 . S
C253 C254 1.421 . S
C253 C255 1.417 . S
C253 C265 1.422 . S
C254 C252 1.422 . S
C254 C253 1.421 . S
C254 N264 1.359 . S
C255 C253 1.417 . S
C255 C257 1.329 . S
C255 H274 0.930 . S
C256 C252 1.415 . S
C256 C257 1.437 . S
C256 C260 1.413 1_545 S
C257 C255 1.329 . S
C257 C256 1.437 . S
C257 H279 0.929 1_545 S
N258 C252 1.369 . S
N258 C259 1.338 . S
N258 Gd263 2.622 . S
C259 N258 1.338 . S
C259 C261 1.378 1_545 S
C259 H271 0.929 . S
C260 C256 1.413 1_565 S
C260 C261 1.348 . S
C260 H276 0.931 . S
C261 C259 1.378 1_565 S
C261 C260 1.348 . S
C261 H277 0.930 . S
Gd262 N282 2.622 . S
Gd262 N289 2.570 . S
Gd262 O296 2.353 . S
Gd262 O297 2.468 . S
Gd262 O298 2.427 . S
Gd262 O300 2.388 . S
Gd262 O301 2.386 . S
Gd262 O305 2.307 . S
Gd262 C315 2.805 . S
Gd263 N258 2.622 . S
Gd263 N264 2.570 . S
Gd263 O295 2.386 . S
Gd263 O299 2.307 . S
Gd263 O302 2.353 . S
Gd263 O303 2.468 . S
Gd263 O304 2.427 . S
Gd263 O306 2.388 . S
Gd263 C327 2.805 . S
N264 C254 1.359 . S
N264 Gd263 2.570 . S
N264 C266 1.343 . S
C265 C253 1.422 . S
C265 C267 1.321 . S
C265 H273 0.931 . S
C266 N264 1.343 . S
C266 C267 1.390 . S
C266 H268 0.931 . S
C267 C265 1.321 . S
C267 C266 1.390 . S
C267 H269 0.930 . S
H268 C266 0.931 . S
H269 C267 0.930 . S
H270 C293 0.931 . S
H271 C259 0.929 . S
H272 C294 0.930 . S
H273 C265 0.931 . S
H274 C255 0.930 . S
H275 C284 0.929 . S
H276 C260 0.931 . S
H277 C261 0.930 . S
H278 C316 0.930 . S
H279 C257 0.929 1_565 S
H280 C285 0.931 . S
H281 C286 0.930 . S
N282 Gd262 2.622 . S
N282 C283 1.369 . S
N282 C284 1.338 . S
C283 N282 1.369 . S
C283 C287 1.415 . S
C283 C290 1.422 . S
C284 H275 0.929 . S
C284 N282 1.338 . S
C284 C286 1.378 . S
C285 H280 0.931 . S
C285 C286 1.348 . S
C285 C287 1.413 . S
C286 H281 0.930 . S
C286 C284 1.378 . S
C286 C285 1.348 . S
C287 C283 1.415 . S
C287 C285 1.413 . S
C287 C317 1.437 1_655 S
H288 C317 0.929 . S
N289 Gd262 2.570 . S
N289 C290 1.359 . S
N289 C293 1.343 . S
C290 C283 1.422 . S
C290 N289 1.359 . S
C290 C292 1.421 1_655 S
C291 C292 1.422 . S
C291 C294 1.321 . S
C291 H318 0.931 . S
C292 C290 1.421 1_455 S
C292 C291 1.422 . S
C292 C316 1.417 . S
C293 H270 0.931 . S
C293 N289 1.343 . S
C293 C294 1.390 1_655 S
C294 H272 0.930 . S
C294 C291 1.321 . S
C294 C293 1.390 1_455 S
O295 Gd263 2.386 . S
O295 C307 1.265 . S
O296 Gd262 2.353 . S
O296 C307 1.242 . S
O297 Gd262 2.468 . S
O297 C315 1.263 . S
O298 Gd262 2.427 . S
O298 C315 1.252 . S
O299 Gd263 2.307 . S
O299 C308 1.261 . S
O300 Gd262 2.388 . S
O300 C308 1.252 . S
O301 Gd262 2.386 . S
O301 C319 1.265 . S
O302 Gd263 2.353 . S
O302 C319 1.242 . S
O303 Gd263 2.468 . S
O303 C327 1.263 . S
O304 Gd263 2.427 . S
O304 C327 1.252 . S
O305 Gd262 2.307 . S
O305 C320 1.261 . S
O306 Gd263 2.388 . S
O306 C320 1.252 . S
C307 O295 1.265 . S
C307 O296 1.242 . S
C308 O299 1.261 . S
C308 O300 1.252 . S
C309 C312 1.394 . S
C309 C314 1.370 . S
C309 C315 1.500 . S
C310 C313 1.383 . S
C310 C314 1.395 . S
C311 C312 1.396 . S
C311 C313 1.365 . S
C311 H328 0.929 . S
C312 C309 1.394 . S
C312 C311 1.396 . S
C312 H329 0.930 . S
C313 C310 1.383 . S
C313 C311 1.365 . S
C313 H330 0.931 . S
C314 C309 1.370 . S
C314 C310 1.395 . S
C314 H331 0.930 . S
C315 Gd262 2.805 . S
C315 O297 1.263 . S
C315 O298 1.252 . S
C315 C309 1.500 . S
C316 H278 0.930 . S
C316 C292 1.417 . S
C316 C317 1.329 . S
C317 C287 1.437 1_455 S
C317 H288 0.929 . S
C317 C316 1.329 . S
H318 C291 0.931 . S
C319 O301 1.265 . S
C319 O302 1.242 . S
C320 O305 1.261 . S
C320 O306 1.252 . S
C321 C324 1.394 . S
C321 C326 1.370 . S
C321 C327 1.500 . S
C322 C325 1.383 . S
C322 C326 1.395 . S
C323 C324 1.396 . S
C323 C325 1.365 . S
C323 H332 0.929 . S
C324 C321 1.394 . S
C324 C323 1.396 . S
C324 H333 0.930 . S
C325 C322 1.383 . S
C325 C323 1.365 . S
C325 H334 0.931 . S
C326 C321 1.370 . S
C326 C322 1.395 . S
C326 H335 0.930 . S
C327 Gd263 2.805 . S
C327 O303 1.263 . S
C327 O304 1.252 . S
C327 C321 1.500 . S
H328 C311 0.929 . S
H329 C312 0.930 . S
H330 C313 0.931 . S
H331 C314 0.930 . S
H332 C323 0.929 . S
H333 C324 0.930 . S
H334 C325 0.931 . S
H335 C326 0.930 . S
H336 C342 0.930 . S
H337 C346 0.930 . S
H338 C351 0.929 . S
H339 C349 0.929 . S
H340 C344 0.929 . S
H341 C350 0.929 . S
C342 H336 0.930 . S
C342 C343 1.350 1_554 S
C342 C350 1.378 . S
C343 C342 1.350 1_556 S
C343 C351 1.446 . S
C344 H340 0.929 . S
C344 C346 1.378 . S
C344 C348 1.364 . S
C345 C348 1.473 1_554 S
C345 C350 1.370 . S
C345 N353 1.401 1_554 S
C346 H337 0.930 . S
C346 C344 1.378 . S
C346 C347 1.343 1_556 S
C347 C346 1.343 1_554 S
C347 C349 1.451 . S
C348 C344 1.364 . S
C348 C345 1.473 1_556 S
C348 N352 1.408 1_556 S
C349 H339 0.929 . S
C349 C347 1.451 . S
C349 N352 1.384 . S
C350 H341 0.929 . S
C350 C342 1.378 . S
C350 C345 1.370 . S
C351 H338 0.929 . S
C351 C343 1.446 . S
C351 N353 1.384 . S
N352 C348 1.408 1_554 S
N352 C349 1.384 . S
N353 C345 1.401 1_556 S
N353 C351 1.384 . S
H354 C360 0.930 . S
H355 C364 0.930 . S
H356 C369 0.929 . S
H357 C367 0.929 . S
H358 C362 0.929 . S
H359 C368 0.929 . S
C360 H354 0.930 . S
C360 C361 1.367 . S
C360 C368 1.378 . S
C361 C360 1.367 . S
C361 C369 1.433 . S
C362 H358 0.929 . S
C362 C364 1.378 . S
C362 C366 1.350 . S
C363 C366 1.463 . S
C363 C368 1.350 . S
C363 N371 1.427 . S
C364 H355 0.930 . S
C364 C362 1.378 . S
C364 C365 1.367 . S
C365 C364 1.367 . S
C365 C367 1.433 . S
C366 C362 1.350 . S
C366 C363 1.463 . S
C366 N370 1.427 . S
C367 H357 0.929 . S
C367 C365 1.433 . S
C367 N370 1.384 . S
C368 H359 0.929 . S
C368 C360 1.378 . S
C368 C363 1.350 . S
C369 H356 0.929 . S
C369 C361 1.433 . S
C369 N371 1.384 . S
N370 C366 1.427 . S
N370 C367 1.384 . S
N371 C363 1.427 . S
N371 C369 1.384 . S
H372 C378 0.930 . S
H373 C382 0.930 . S
H374 C387 0.929 . S
H375 C385 0.929 . S
H376 C380 0.929 1_545 S
H377 C386 0.929 1_565 S
C378 H372 0.930 . S
C378 C379 1.367 . S
C378 C386 1.378 . S
C379 C378 1.367 . S
C379 C387 1.433 1_556 S
C380 H376 0.929 1_565 S
C380 C382 1.378 . S
C380 C384 1.350 . S
C381 C384 1.455 1_446 S
C381 C386 1.363 . S
C381 N389 1.422 1_556 S
C382 H373 0.930 . S
C382 C380 1.378 . S
C382 C383 1.367 . S
C383 C382 1.367 . S
C383 C385 1.433 1_554 S
C384 C380 1.350 . S
C384 C381 1.455 1_664 S
C384 N388 1.427 1_554 S
C385 H375 0.929 . S
C385 C383 1.433 1_556 S
C385 N388 1.384 . S
C386 H377 0.929 1_545 S
C386 C378 1.378 . S
C386 C381 1.363 . S
C387 H374 0.929 . S
C387 C379 1.433 1_554 S
C387 N389 1.384 . S
N388 C384 1.427 1_556 S
N388 C385 1.384 . S
N389 C381 1.422 1_554 S
N389 C387 1.384 . S
H390 C396 0.930 . S
H391 C400 0.930 . S
H392 C405 0.929 . S
H393 C403 0.929 . S
H394 C398 0.929 1_655 S
H395 C404 0.929 1_455 S
C396 H390 0.930 . S
C396 C397 1.367 . S
C396 C404 1.378 . S
C397 C396 1.367 . S
C397 C405 1.433 . S
C398 H394 0.929 1_455 S
C398 C400 1.378 . S
C398 C402 1.350 . S
C399 C402 1.463 1_645 S
C399 C404 1.350 . S
C399 N407 1.427 . S
C400 H391 0.930 . S
C400 C398 1.378 . S
C400 C401 1.367 . S
C401 C400 1.367 . S
C401 C403 1.433 . S
C402 C398 1.350 . S
C402 C399 1.463 1_465 S
C402 N406 1.427 . S
C403 H393 0.929 . S
C403 C401 1.433 . S
C403 N406 1.384 . S
C404 H395 0.929 1_655 S
C404 C396 1.378 . S
C404 C399 1.350 . S
C405 H392 0.929 . S
C405 C397 1.433 . S
C405 N407 1.384 . S
N406 C402 1.427 . S
N406 C403 1.384 . S
N407 C399 1.427 . S
N407 C405 1.384 . S
H408 C414 0.930 . S
H409 C418 0.930 . S
H410 C423 0.929 . S
H411 C421 0.929 . S
H412 C416 0.929 . S
H413 C422 0.929 . S
C414 H408 0.930 . S
C414 C415 1.367 . S
C414 C422 1.378 . S
C415 C414 1.367 . S
C415 C423 1.433 . S
C416 H412 0.929 . S
C416 C418 1.378 . S
C416 C420 1.350 . S
C417 C420 1.463 . S
C417 C422 1.350 . S
C417 N425 1.427 . S
C418 H409 0.930 . S
C418 C416 1.378 . S
C418 C419 1.367 . S
C419 C418 1.367 . S
C419 C421 1.433 . S
C420 C416 1.350 . S
C420 C417 1.463 . S
C420 N424 1.427 . S
C421 H411 0.929 . S
C421 C419 1.433 . S
C421 N424 1.384 . S
C422 H413 0.929 . S
C422 C414 1.378 . S
C422 C417 1.350 . S
C423 H410 0.929 . S
C423 C415 1.433 . S
C423 N425 1.384 . S
N424 C420 1.427 . S
N424 C421 1.384 . S
N425 C417 1.427 . S
N425 C423 1.384 . S
H426 C432 0.930 . S
H427 C436 0.930 . S
H428 C441 0.929 . S
H429 C439 0.929 . S
H430 C434 0.929 . S
H431 C440 0.929 . S
C432 H426 0.930 . S
C432 C433 1.367 . S
C432 C440 1.378 . S
C433 C432 1.367 . S
C433 C441 1.433 . S
C434 H430 0.929 . S
C434 C436 1.378 . S
C434 C438 1.350 . S
C435 C438 1.463 . S
C435 C440 1.350 . S
C435 N443 1.427 . S
C436 H427 0.930 . S
C436 C434 1.378 . S
C436 C437 1.367 . S
C437 C436 1.367 . S
C437 C439 1.433 . S
C438 C434 1.350 . S
C438 C435 1.463 . S
C438 N442 1.427 . S
C439 H429 0.929 . S
C439 C437 1.433 . S
C439 N442 1.384 . S
C440 H431 0.929 . S
C440 C432 1.378 . S
C440 C435 1.350 . S
C441 H428 0.929 . S
C441 C433 1.433 . S
C441 N443 1.384 . S
N442 C438 1.427 . S
N442 C439 1.384 . S
N443 C435 1.427 . S
N443 C441 1.384 . S
H444 C450 0.930 . S
H445 C454 0.930 . S
H446 C459 0.929 . S
H447 C457 0.929 . S
H448 C452 0.929 . S
H449 C458 0.929 . S
C450 H444 0.930 . S
C450 C451 1.367 . S
C450 C458 1.378 . S
C451 C450 1.367 . S
C451 C459 1.433 . S
C452 H448 0.929 . S
C452 C454 1.378 . S
C452 C456 1.350 . S
C453 C456 1.463 . S
C453 C458 1.350 . S
C453 N461 1.427 . S
C454 H445 0.930 . S
C454 C452 1.378 . S
C454 C455 1.367 . S
C455 C454 1.367 . S
C455 C457 1.433 . S
C456 C452 1.350 . S
C456 C453 1.463 . S
C456 N460 1.427 . S
C457 H447 0.929 . S
C457 C455 1.433 . S
C457 N460 1.384 . S
C458 H449 0.929 . S
C458 C450 1.378 . S
C458 C453 1.350 . S
C459 H446 0.929 . S
C459 C451 1.433 . S
C459 N461 1.384 . S
N460 C456 1.427 . S
N460 C457 1.384 . S
N461 C453 1.427 . S
N461 C459 1.384 . S
H462 C468 0.930 . S
H463 C472 0.930 . S
H464 C477 0.929 . S
H465 C475 0.929 . S
H466 C470 0.929 . S
H467 C476 0.929 . S
C468 H462 0.930 . S
C468 C469 1.367 . S
C468 C476 1.378 . S
C469 C468 1.367 . S
C469 C477 1.433 . S
C470 H466 0.929 . S
C470 C472 1.378 . S
C470 C474 1.350 . S
C471 C474 1.463 . S
C471 C476 1.350 . S
C471 N479 1.427 . S
C472 H463 0.930 . S
C472 C470 1.378 . S
C472 C473 1.367 . S
C473 C472 1.367 . S
C473 C475 1.433 . S
C474 C470 1.350 . S
C474 C471 1.463 . S
C474 N478 1.427 . S
C475 H465 0.929 . S
C475 C473 1.433 . S
C475 N478 1.384 . S
C476 H467 0.929 . S
C476 C468 1.378 . S
C476 C471 1.350 . S
C477 H464 0.929 . S
C477 C469 1.433 . S
C477 N479 1.384 . S
N478 C474 1.427 . S
N478 C475 1.384 . S
N479 C471 1.427 . S
N479 C477 1.384 . S
H480 C486 0.930 . S
H481 C490 0.930 . S
H482 C495 0.929 . S
H483 C493 0.929 . S
H484 C488 0.929 . S
H485 C494 0.929 . S
C486 H480 0.930 . S
C486 C487 1.367 . S
C486 C494 1.378 . S
C487 C486 1.367 . S
C487 C495 1.433 . S
C488 H484 0.929 . S
C488 C490 1.378 . S
C488 C492 1.350 1_455 S
C489 C492 1.463 . S
C489 C494 1.350 . S
C489 N497 1.427 . S
C490 H481 0.930 . S
C490 C488 1.378 . S
C490 C491 1.367 . S
C491 C490 1.367 . S
C491 C493 1.433 1_455 S
C492 C488 1.350 1_655 S
C492 C489 1.463 . S
C492 N496 1.427 . S
C493 H483 0.929 . S
C493 C491 1.433 1_655 S
C493 N496 1.384 . S
C494 H485 0.929 . S
C494 C486 1.378 . S
C494 C489 1.350 . S
C495 H482 0.929 . S
C495 C487 1.433 . S
C495 N497 1.384 . S
N496 C492 1.427 . S
N496 C493 1.384 . S
N497 C489 1.427 . S
N497 C495 1.384 . S
H498 C504 0.930 . S
H499 C508 0.930 . S
H500 C513 0.929 . S
H501 C511 0.929 . S
H502 C506 0.929 . S
H503 C512 0.929 . S
C504 H498 0.930 . S
C504 C505 1.367 . S
C504 C512 1.378 . S
C505 C504 1.367 . S
C505 C513 1.433 . S
C506 H502 0.929 . S
C506 C508 1.378 . S
C506 C510 1.350 . S
C507 C510 1.463 . S
C507 C512 1.350 . S
C507 N515 1.427 . S
C508 H499 0.930 . S
C508 C506 1.378 . S
C508 C509 1.378 . S
C509 C508 1.378 . S
C509 C511 1.427 1_655 S
C510 C506 1.350 . S
C510 C507 1.463 . S
C510 N514 1.427 1_655 S
C511 H501 0.929 . S
C511 C509 1.427 1_455 S
C511 N514 1.384 . S
C512 H503 0.929 . S
C512 C504 1.378 . S
C512 C507 1.350 . S
C513 H500 0.929 . S
C513 C505 1.433 . S
C513 N515 1.384 . S
N514 C510 1.427 1_455 S
N514 C511 1.384 . S
N515 C507 1.427 . S
N515 C513 1.384 . S
H516 C522 0.930 . S
H517 C526 0.930 . S
H518 C531 0.929 . S
H519 C529 0.929 . S
H520 C524 0.929 1_655 S
H521 C530 0.929 . S
C522 H516 0.930 . S
C522 C523 1.367 . S
C522 C530 1.378 . S
C523 C522 1.367 . S
C523 C531 1.433 1_455 S
C524 H520 0.929 1_455 S
C524 C526 1.378 . S
C524 C528 1.350 . S
C525 C528 1.463 . S
C525 C530 1.350 . S
C525 N533 1.427 1_455 S
C526 H517 0.930 . S
C526 C524 1.378 . S
C526 C527 1.367 . S
C527 C526 1.367 . S
C527 C529 1.433 . S
C528 C524 1.350 . S
C528 C525 1.463 . S
C528 N532 1.427 . S
C529 H519 0.929 . S
C529 C527 1.433 . S
C529 N532 1.384 . S
C530 H521 0.929 . S
C530 C522 1.378 . S
C530 C525 1.350 . S
C531 H518 0.929 . S
C531 C523 1.433 1_655 S
C531 N533 1.384 . S
N532 C528 1.427 . S
N532 C529 1.384 . S
N533 C525 1.427 1_655 S
N533 C531 1.384 . S
H534 C540 0.930 . S
H535 C544 0.930 . S
H536 C549 0.929 . S
H537 C547 0.929 . S
H538 C542 0.929 . S
H539 C548 0.929 . S
C540 H534 0.930 . S
C540 C541 1.367 . S
C540 C548 1.378 . S
C541 C540 1.367 . S
C541 C549 1.433 . S
C542 H538 0.929 . S
C542 C544 1.378 . S
C542 C546 1.350 . S
C543 C546 1.463 . S
C543 C548 1.350 . S
C543 N551 1.427 . S
C544 H535 0.930 . S
C544 C542 1.378 . S
C544 C545 1.379 . S
C545 C544 1.379 . S
C545 C547 1.427 1_455 S
C546 C542 1.350 . S
C546 C543 1.463 . S
C546 N550 1.427 1_455 S
C547 H537 0.929 . S
C547 C545 1.427 1_655 S
C547 N550 1.384 . S
C548 H539 0.929 . S
C548 C540 1.378 . S
C548 C543 1.350 . S
C549 H536 0.929 . S
C549 C541 1.433 . S
C549 N551 1.384 . S
N550 C546 1.427 1_655 S
N550 C547 1.384 . S
N551 C543 1.427 . S
N551 C549 1.384 . S
C343 C140 1.523 . S
C347 C68 1.526 . S
C361 C236 1.516 . S
C365 C308 1.516 . S
C379 C56 1.511 . S
C383 C152 1.511 . S
C397 C320 1.507 . S
C401 C224 1.507 . S
C415 C322 1.224 . S
C419 C67 1.311 . S
C433 C154 1.225 . S
C437 C235 1.309 . S
C451 C139 1.316 . S
C455 C226 1.243 . S
C469 C307 1.310 . S
C473 C58 1.244 . S
C487 C151 1.310 . S
C491 C238 1.236 . S
C505 C319 1.317 . S
C509 C70 1.222 1_655 S
C523 C310 1.237 1_455 S
C527 C55 1.319 . S
C541 C223 1.315 . S
C545 C142 1.239 1_455 S
