# Generated by pormake.
# Topology neb, (4)-cn, num edge types: 1
# Building blocks:
#     Node 0, Type 0, BuildingBlock: UXUYUI_clean_sbu_0, # of connection points: 4
#     Node 1, Type 0, BuildingBlock: UXUYUI_clean_sbu_0, # of connection points: 4
#     Node 2, Type 0, BuildingBlock: UXUYUI_clean_sbu_0, # of connection points: 4
#     Node 3, Type 0, BuildingBlock: UXUYUI_clean_sbu_0, # of connection points: 4
#     Node 4, Type 0, BuildingBlock: UXUYUI_clean_sbu_0, # of connection points: 4
#     Node 5, Type 0, BuildingBlock: UXUYUI_clean_sbu_0, # of connection points: 4
#     Node 6, Type 0, BuildingBlock: UXUYUI_clean_sbu_0, # of connection points: 4
#     Node 7, Type 0, BuildingBlock: UXUYUI_clean_sbu_0, # of connection points: 4
#     Node 8, Type 0, BuildingBlock: UXUYUI_clean_sbu_0, # of connection points: 4
#     Node 9, Type 0, BuildingBlock: UXUYUI_clean_sbu_0, # of connection points: 4
#     Node 10, Type 0, BuildingBlock: UXUYUI_clean_sbu_0, # of connection points: 4
#     Node 11, Type 0, BuildingBlock: UXUYUI_clean_sbu_0, # of connection points: 4
#     Node 12, Type 0, BuildingBlock: UXUYUI_clean_sbu_0, # of connection points: 4
#     Node 13, Type 0, BuildingBlock: UXUYUI_clean_sbu_0, # of connection points: 4
#     Node 14, Type 0, BuildingBlock: UXUYUI_clean_sbu_0, # of connection points: 4
#     Node 15, Type 0, BuildingBlock: UXUYUI_clean_sbu_0, # of connection points: 4
#     Edge 16, Type (0, 0), BuildingBlock: CIFDUS_clean_linker_0, # of connection points: 2
#     Edge 17, Type (0, 0), BuildingBlock: CIFDUS_clean_linker_0, # of connection points: 2
#     Edge 18, Type (0, 0), BuildingBlock: CIFDUS_clean_linker_0, # of connection points: 2
#     Edge 19, Type (0, 0), BuildingBlock: CIFDUS_clean_linker_0, # of connection points: 2
#     Edge 20, Type (0, 0), BuildingBlock: CIFDUS_clean_linker_0, # of connection points: 2
#     Edge 21, Type (0, 0), BuildingBlock: CIFDUS_clean_linker_0, # of connection points: 2
#     Edge 22, Type (0, 0), BuildingBlock: CIFDUS_clean_linker_0, # of connection points: 2
#     Edge 23, Type (0, 0), BuildingBlock: CIFDUS_clean_linker_0, # of connection points: 2
#     Edge 24, Type (0, 0), BuildingBlock: CIFDUS_clean_linker_0, # of connection points: 2
#     Edge 25, Type (0, 0), BuildingBlock: CIFDUS_clean_linker_0, # of connection points: 2
#     Edge 26, Type (0, 0), BuildingBlock: CIFDUS_clean_linker_0, # of connection points: 2
#     Edge 27, Type (0, 0), BuildingBlock: CIFDUS_clean_linker_0, # of connection points: 2
#     Edge 28, Type (0, 0), BuildingBlock: CIFDUS_clean_linker_0, # of connection points: 2
#     Edge 29, Type (0, 0), BuildingBlock: CIFDUS_clean_linker_0, # of connection points: 2
#     Edge 30, Type (0, 0), BuildingBlock: CIFDUS_clean_linker_0, # of connection points: 2
#     Edge 31, Type (0, 0), BuildingBlock: CIFDUS_clean_linker_0, # of connection points: 2
#     Edge 32, Type (0, 0), BuildingBlock: CIFDUS_clean_linker_0, # of connection points: 2
#     Edge 33, Type (0, 0), BuildingBlock: CIFDUS_clean_linker_0, # of connection points: 2
#     Edge 34, Type (0, 0), BuildingBlock: CIFDUS_clean_linker_0, # of connection points: 2
#     Edge 35, Type (0, 0), BuildingBlock: CIFDUS_clean_linker_0, # of connection points: 2
#     Edge 36, Type (0, 0), BuildingBlock: CIFDUS_clean_linker_0, # of connection points: 2
#     Edge 37, Type (0, 0), BuildingBlock: CIFDUS_clean_linker_0, # of connection points: 2
#     Edge 38, Type (0, 0), BuildingBlock: CIFDUS_clean_linker_0, # of connection points: 2
#     Edge 39, Type (0, 0), BuildingBlock: CIFDUS_clean_linker_0, # of connection points: 2
#     Edge 40, Type (0, 0), BuildingBlock: CIFDUS_clean_linker_0, # of connection points: 2
#     Edge 41, Type (0, 0), BuildingBlock: CIFDUS_clean_linker_0, # of connection points: 2
#     Edge 42, Type (0, 0), BuildingBlock: CIFDUS_clean_linker_0, # of connection points: 2
#     Edge 43, Type (0, 0), BuildingBlock: CIFDUS_clean_linker_0, # of connection points: 2
#     Edge 44, Type (0, 0), BuildingBlock: CIFDUS_clean_linker_0, # of connection points: 2
#     Edge 45, Type (0, 0), BuildingBlock: CIFDUS_clean_linker_0, # of connection points: 2
#     Edge 46, Type (0, 0), BuildingBlock: CIFDUS_clean_linker_0, # of connection points: 2
#     Edge 47, Type (0, 0), BuildingBlock: CIFDUS_clean_linker_0, # of connection points: 2
# Relax obj value: 0.156
# Max RMSD: 0.184
# Mean RMSD: 0.183
data_MOF--net-neb--node1-UXUYUI_clean_sbu_0--edge1-CIFDUS_clean_linker_0
_symmetry_space_group_name_H-M    P1
_symmetry_Int_Tables_number       1
_symmetry_cell_setting            triclinic
loop_
_symmetry_equiv_pos_as_xyz
'x, y, z'
_cell_length_a     61.64037
_cell_length_b     29.201281
_cell_length_c     98.957525
_cell_angle_alpha  90.021473
_cell_angle_beta   90.041637
_cell_angle_gamma 89.980761
loop_
_atom_site_label
_atom_site_type_symbol
_atom_site_fract_x
_atom_site_fract_y
_atom_site_fract_z
_atom_type_partial_charge
Li0 Li 0.10573 0.10916 0.45334 0.0
Li1 Li 0.14398 0.14018 0.45352 0.0
Li2 Li 0.11853 0.16254 0.43626 0.0
Li3 Li 0.13272 0.08612 0.4358 0.0
C4 C 0.10845 0.21674 0.45644 0.0
N5 N 0.09327 0.30574 0.45599 0.0
C6 C 0.12297 0.25337 0.45728 0.0
C7 C 0.0862 0.22533 0.45557 0.0
C8 C 0.11498 0.29814 0.45698 0.0
C9 C 0.07884 0.27058 0.4553 0.0
C10 C 0.15057 0.0456 0.4586 0.0
C11 C 0.18815 0.02362 0.45658 0.0
N12 N 0.18416 0.98596 0.46427 0.0
C13 C 0.14683 0.0067 0.46647 0.0
C14 C 0.17138 0.05418 0.4536 0.0
C15 C 0.16403 0.97696 0.46924 0.0
C16 C 0.07075 0.05094 0.45973 0.0
N17 N 0.08249 0.08731 0.46419 0.0
C18 C 0.06097 0.09203 0.48422 0.0
C19 C 0.07803 0.10789 0.47618 0.0
C20 C 0.04825 0.05482 0.47982 0.0
C21 C 0.05339 0.03431 0.46736 0.0
H22 H 0.07473 0.03519 0.45016 0.0
H23 H 0.08778 0.13656 0.47952 0.0
C24 C 0.18001 0.1949 0.46014 0.0
N25 N 0.16702 0.16085 0.46483 0.0
C26 C 0.19639 0.21302 0.46832 0.0
C27 C 0.18606 0.15983 0.48588 0.0
C28 C 0.16975 0.14302 0.4774 0.0
C29 C 0.19955 0.1957 0.48144 0.0
H30 H 0.17732 0.20865 0.45013 0.0
H31 H 0.15915 0.11596 0.48087 0.0
C32 C 0.08329 0.10642 0.42643 0.0
N33 N 0.04494 0.10894 0.41193 0.0
C34 C 0.08286 0.09232 0.41292 0.0
C35 C 0.06414 0.12138 0.43259 0.0
C36 C 0.06334 0.09401 0.40576 0.0
C37 C 0.04494 0.12248 0.42508 0.0
C38 C 0.15705 0.14848 0.42109 0.0
C39 C 0.14331 0.14148 0.41005 0.0
C40 C 0.17878 0.15988 0.41891 0.0
C41 C 0.15152 0.14607 0.39698 0.0
C42 C 0.1864 0.16412 0.40568 0.0
N43 N 0.17273 0.15719 0.39508 0.0
C44 C 0.12774 0.24621 0.42393 0.0
C45 C 0.09319 0.2182 0.4175 0.0
C46 C 0.12566 0.28324 0.41511 0.0
N47 N 0.11174 0.2143 0.42489 0.0
C48 C 0.09058 0.25431 0.40839 0.0
C49 C 0.10705 0.28709 0.40703 0.0
H50 H 0.1424 0.2423 0.42984 0.0
H51 H 0.08052 0.19315 0.4184 0.0
C52 C 0.12396 0.00815 0.42083 0.0
N53 N 0.14052 0.03628 0.4244 0.0
C54 C 0.12729 0.97308 0.4115 0.0
C55 C 0.16503 0.99497 0.41017 0.0
C56 C 0.16087 0.03018 0.41941 0.0
C57 C 0.14803 0.96609 0.40595 0.0
H58 H 0.10796 0.01373 0.42498 0.0
H59 H 0.17379 0.05302 0.42244 0.0
O60 O 0.11601 0.1727 0.45638 0.0
O61 O 0.13386 0.07486 0.45576 0.0
O62 O 0.10222 0.10447 0.43365 0.0
O63 O 0.14943 0.14396 0.434 0.0
H64 H 0.14024 0.24731 0.45799 0.0
H65 H 0.07473 0.1974 0.45509 0.0
H66 H 0.12605 0.32683 0.45751 0.0
H67 H 0.06166 0.27774 0.45455 0.0
H68 H 0.20432 0.02981 0.45277 0.0
H69 H 0.13079 0.99958 0.47039 0.0
H70 H 0.17458 0.08406 0.44746 0.0
H71 H 0.16138 0.9467 0.47532 0.0
H72 H 0.05796 0.10849 0.49384 0.0
H73 H 0.04392 0.00611 0.4634 0.0
H74 H 0.20608 0.24107 0.4645 0.0
H75 H 0.18807 0.14482 0.4958 0.0
H76 H 0.09742 0.08014 0.408 0.0
H77 H 0.06407 0.13225 0.44301 0.0
H78 H 0.0628 0.08335 0.39529 0.0
H79 H 0.03004 0.13415 0.42972 0.0
H80 H 0.12647 0.13278 0.41157 0.0
H81 H 0.18964 0.16527 0.42737 0.0
H82 H 0.14104 0.14081 0.38834 0.0
H83 H 0.20319 0.1729 0.40384 0.0
H84 H 0.1388 0.3077 0.41428 0.0
H85 H 0.0759 0.25644 0.4024 0.0
H86 H 0.11352 0.95257 0.40843 0.0
H87 H 0.18135 0.9906 0.40635 0.0
Li88 Li 0.13497 0.16066 0.81787 0.0
Li89 Li 0.11991 0.08329 0.81471 0.0
Li90 Li 0.1462 0.11571 0.79852 0.0
Li91 Li 0.10889 0.14496 0.79976 0.0
C92 C 0.16489 0.10485 0.82808 0.0
N93 N 0.1933 0.11496 0.84948 0.0
C94 C 0.16182 0.07978 0.83996 0.0
C95 C 0.18253 0.1347 0.82704 0.0
C96 C 0.17634 0.08546 0.85068 0.0
C97 C 0.19667 0.13945 0.83798 0.0
C98 C 0.08502 0.16019 0.82123 0.0
C99 C 0.04594 0.1573 0.82091 0.0
N100 N 0.04525 0.20317 0.82327 0.0
C101 C 0.08395 0.20724 0.82372 0.0
C102 C 0.0659 0.1349 0.81988 0.0
C103 C 0.06367 0.22836 0.8247 0.0
C104 C 0.14826 0.24656 0.82934 0.0
N105 N 0.14205 0.20271 0.83183 0.0
C106 C 0.14028 0.21743 0.85553 0.0
C107 C 0.13818 0.18775 0.84459 0.0
C108 C 0.14576 0.26354 0.85332 0.0
C109 C 0.15022 0.27779 0.84001 0.0
H110 H 0.15077 0.25775 0.81904 0.0
H111 H 0.13274 0.153 0.84623 0.0
C112 C 0.12157 0.98918 0.82166 0.0
N113 N 0.11265 0.03027 0.8249 0.0
C114 C 0.11982 0.95218 0.8305 0.0
C115 C 0.09994 0.00055 0.84596 0.0
C116 C 0.1016 0.03632 0.83664 0.0
C117 C 0.1096 0.95794 0.84311 0.0
H118 H 0.13098 0.98563 0.81252 0.0
H119 H 0.09525 0.06979 0.83916 0.0
C120 C 0.14824 0.20015 0.78886 0.0
N121 N 0.17291 0.2363 0.76816 0.0
C122 C 0.13949 0.20422 0.77588 0.0
C123 C 0.16945 0.21477 0.79135 0.0
C124 C 0.15224 0.22254 0.76555 0.0
C125 C 0.18168 0.23284 0.78074 0.0
C126 C 0.11215 0.03968 0.79138 0.0
C127 C 0.12649 0.00956 0.78499 0.0
C128 C 0.09132 0.0248 0.7948 0.0
C129 C 0.11974 0.96488 0.78218 0.0
C130 C 0.08521 0.97984 0.79185 0.0
N131 N 0.09942 0.95106 0.78565 0.0
C132 C 0.18768 0.08027 0.79259 0.0
C133 C 0.16713 0.10059 0.77327 0.0
C134 C 0.20416 0.0624 0.78448 0.0
N135 N 0.16959 0.09864 0.78691 0.0
C136 C 0.18329 0.0834 0.76476 0.0
C137 C 0.20201 0.06329 0.77033 0.0
H138 H 0.18901 0.07792 0.80345 0.0
H139 H 0.15232 0.11414 0.769 0.0
C140 C 0.084 0.21806 0.78961 0.0
N141 N 0.08539 0.17161 0.7899 0.0
C142 C 0.06703 0.23957 0.78273 0.0
C143 C 0.05322 0.16503 0.77653 0.0
C144 C 0.07049 0.14497 0.78352 0.0
C145 C 0.0513 0.21301 0.77606 0.0
H146 H 0.09614 0.23841 0.79474 0.0
H147 H 0.07196 0.10815 0.78388 0.0
O148 O 0.15068 0.10031 0.81755 0.0
O149 O 0.10469 0.13914 0.81983 0.0
O150 O 0.13611 0.18186 0.79908 0.0
O151 O 0.11847 0.08352 0.79422 0.0
H152 H 0.14832 0.05639 0.84093 0.0
H153 H 0.18517 0.15419 0.8179 0.0
H154 H 0.17411 0.06645 0.85995 0.0
H155 H 0.21032 0.16263 0.83734 0.0
H156 H 0.031 0.13822 0.81982 0.0
H157 H 0.09861 0.22733 0.82472 0.0
H158 H 0.06649 0.09844 0.81796 0.0
H159 H 0.06257 0.2648 0.82655 0.0
H160 H 0.13705 0.20456 0.86559 0.0
H161 H 0.15418 0.3131 0.83778 0.0
H162 H 0.12716 0.91991 0.82766 0.0
H163 H 0.09225 0.0072 0.85559 0.0
H164 H 0.12314 0.19285 0.77377 0.0
H165 H 0.17639 0.21213 0.80136 0.0
H166 H 0.14574 0.22567 0.75543 0.0
H167 H 0.19816 0.24414 0.7825 0.0
H168 H 0.14268 0.02043 0.78229 0.0
H169 H 0.08009 0.04753 0.79985 0.0
H170 H 0.13068 0.94116 0.77727 0.0
H171 H 0.06918 0.96778 0.79451 0.0
H172 H 0.21803 0.04645 0.78927 0.0
H173 H 0.18096 0.08525 0.75393 0.0
H174 H 0.0664 0.27662 0.78251 0.0
H175 H 0.04135 0.14314 0.77169 0.0
Li176 Li 0.89465 0.88068 0.54694 0.0
Li177 Li 0.86828 0.91233 0.56403 0.0
Li178 Li 0.88002 0.8333 0.56529 0.0
Li179 Li 0.85503 0.85587 0.54823 0.0
C180 C 0.91154 0.88056 0.57699 0.0
N181 N 0.93794 0.85943 0.59865 0.0
C182 C 0.9043 0.88817 0.59018 0.0
C183 C 0.93222 0.86245 0.57479 0.0
C184 C 0.91789 0.87718 0.601 0.0
C185 C 0.94533 0.85195 0.58589 0.0
C186 C 0.86306 0.96292 0.54208 0.0
C187 C 0.83813 0.02657 0.54266 0.0
N188 N 0.85458 0.05537 0.53927 0.0
C189 C 0.87968 0.99309 0.53849 0.0
C190 C 0.84207 0.97971 0.54407 0.0
C191 C 0.87509 0.03972 0.53716 0.0
C192 C 0.92081 0.8814 0.52311 0.0
N193 N 0.91883 0.89695 0.53601 0.0
C194 C 0.95104 0.94185 0.53374 0.0
C195 C 0.93352 0.92643 0.54142 0.0
C196 C 0.95356 0.92647 0.52039 0.0
C197 C 0.93828 0.89551 0.51511 0.0
H198 H 0.90874 0.85834 0.51903 0.0
H199 H 0.93139 0.93859 0.55166 0.0
C200 C 0.84821 0.9686 0.58426 0.0
N201 N 0.86406 0.96574 0.57475 0.0
C202 C 0.84807 0.00494 0.59349 0.0
C203 C 0.88028 0.03489 0.58275 0.0
C204 C 0.8798 0.99811 0.57377 0.0
C205 C 0.86459 0.03807 0.593 0.0
H206 H 0.83634 0.94156 0.58515 0.0
H207 H 0.89259 0.99422 0.56638 0.0
C208 C 0.89056 0.775 0.54546 0.0
N209 N 0.90823 0.68799 0.54514 0.0
C210 C 0.8784 0.7376 0.54996 0.0
C211 C 0.9117 0.76811 0.54077 0.0
C212 C 0.88763 0.69391 0.54974 0.0
C213 C 0.92034 0.72386 0.54068 0.0
C214 C 0.82924 0.84601 0.56907 0.0
C215 C 0.82346 0.80065 0.57181 0.0
C216 C 0.81302 0.87875 0.56706 0.0
C217 C 0.80152 0.78878 0.57239 0.0
C218 C 0.79127 0.86552 0.5677 0.0
N219 N 0.78602 0.82117 0.57032 0.0
C220 C 0.87453 0.78376 0.58932 0.0
C221 C 0.90604 0.76122 0.57737 0.0
C222 C 0.87854 0.75108 0.59928 0.0
N223 N 0.88786 0.78747 0.57844 0.0
C224 C 0.91064 0.72784 0.58708 0.0
C225 C 0.89665 0.72212 0.59816 0.0
H226 H 0.86068 0.80621 0.59026 0.0
H227 H 0.917 0.7661 0.56899 0.0
C228 C 0.82211 0.86651 0.5281 0.0
N229 N 0.8309 0.837 0.53722 0.0
C230 C 0.80465 0.85287 0.52 0.0
C231 C 0.80558 0.7788 0.53081 0.0
C232 C 0.82314 0.79368 0.53855 0.0
C233 C 0.79608 0.8084 0.5213 0.0
H234 H 0.82877 0.90053 0.52702 0.0
H235 H 0.83044 0.77058 0.54572 0.0
O236 O 0.89826 0.88994 0.56629 0.0
O237 O 0.86733 0.91723 0.54366 0.0
O238 O 0.8818 0.81806 0.5455 0.0
O239 O 0.85065 0.85825 0.56831 0.0
H240 H 0.88826 0.90192 0.59203 0.0
H241 H 0.93796 0.85606 0.56463 0.0
H242 H 0.91247 0.88263 0.61127 0.0
H243 H 0.96133 0.83767 0.58436 0.0
H244 H 0.82197 0.04003 0.54423 0.0
H245 H 0.89598 0.98074 0.53682 0.0
H246 H 0.82896 0.95683 0.54668 0.0
H247 H 0.88783 0.06348 0.53447 0.0
H248 H 0.96255 0.96543 0.53822 0.0
H249 H 0.93955 0.88319 0.50482 0.0
H250 H 0.83588 0.0057 0.60136 0.0
H251 H 0.89321 0.05984 0.58193 0.0
H252 H 0.86222 0.74233 0.5539 0.0
H253 H 0.92142 0.79662 0.53733 0.0
H254 H 0.87846 0.66473 0.5533 0.0
H255 H 0.93669 0.71806 0.53711 0.0
H256 H 0.83575 0.77465 0.57323 0.0
H257 H 0.81716 0.914 0.56502 0.0
H258 H 0.79683 0.75375 0.5744 0.0
H259 H 0.77856 0.89051 0.56611 0.0
H260 H 0.8673 0.74789 0.60763 0.0
H261 H 0.92503 0.70692 0.58598 0.0
H262 H 0.79817 0.87673 0.51266 0.0
H263 H 0.79941 0.74452 0.53239 0.0
Li264 Li 0.88436 0.90665 0.18242 0.0
Li265 Li 0.86045 0.89168 0.20085 0.0
Li266 Li 0.89811 0.85664 0.20049 0.0
Li267 Li 0.86813 0.83196 0.1848 0.0
C268 C 0.90209 0.9614 0.2012 0.0
N269 N 0.92737 0.0396 0.2003 0.0
C270 C 0.8928 0.00359 0.19782 0.0
C271 C 0.9243 0.95905 0.20402 0.0
C272 C 0.90584 0.0427 0.19744 0.0
C273 C 0.93678 0.99895 0.20355 0.0
C274 C 0.8341 0.91292 0.18144 0.0
C275 C 0.79532 0.91346 0.18474 0.0
N276 N 0.79508 0.95944 0.18258 0.0
C277 C 0.83345 0.9602 0.17922 0.0
C278 C 0.81487 0.88931 0.18418 0.0
C279 C 0.81356 0.98308 0.17984 0.0
C280 C 0.87795 0.94875 0.15763 0.0
N281 N 0.89218 0.94858 0.16813 0.0
C282 C 0.91363 0.00624 0.15729 0.0
C283 C 0.91029 0.97525 0.16787 0.0
C284 C 0.89843 0.009 0.14672 0.0
C285 C 0.88073 0.97871 0.14683 0.0
H286 H 0.86423 0.92574 0.15769 0.0
H287 H 0.92209 0.97293 0.17589 0.0
C288 C 0.82505 0.88937 0.21967 0.0
N289 N 0.83837 0.91714 0.21239 0.0
C290 C 0.80771 0.9079 0.22699 0.0
C291 C 0.81839 0.9832 0.21943 0.0
C292 C 0.83559 0.96332 0.21241 0.0
C293 C 0.80401 0.95538 0.22671 0.0
H294 H 0.82759 0.85277 0.21956 0.0
H295 H 0.84632 0.98474 0.20662 0.0
C296 C 0.91266 0.85293 0.17048 0.0
N297 N 0.94001 0.87082 0.14906 0.0
C298 C 0.9057 0.8449 0.15725 0.0
C299 C 0.93353 0.86978 0.17285 0.0
C300 C 0.91977 0.85426 0.14655 0.0
C301 C 0.94712 0.87865 0.16187 0.0
C302 C 0.8628 0.78297 0.20653 0.0
C303 C 0.87771 0.74924 0.21029 0.0
C304 C 0.84124 0.77082 0.20398 0.0
C305 C 0.87086 0.70377 0.21129 0.0
C306 C 0.83503 0.72497 0.20508 0.0
N307 N 0.84984 0.69267 0.20867 0.0
C308 C 0.92718 0.85146 0.22299 0.0
C309 C 0.93433 0.80042 0.20493 0.0
C310 C 0.94494 0.83437 0.23023 0.0
N311 N 0.92239 0.83458 0.21054 0.0
C312 C 0.95196 0.78178 0.21189 0.0
C313 C 0.95764 0.79885 0.22472 0.0
H314 H 0.91732 0.87851 0.22725 0.0
H315 H 0.92993 0.78715 0.1951 0.0
C316 C 0.84125 0.78638 0.16582 0.0
N317 N 0.85854 0.78138 0.17422 0.0
C318 C 0.83624 0.7523 0.15641 0.0
C319 C 0.86665 0.70816 0.16468 0.0
C320 C 0.87109 0.74312 0.17391 0.0
C321 C 0.84929 0.71292 0.15556 0.0
H322 H 0.8319 0.81767 0.166 0.0
H323 H 0.88512 0.74069 0.18044 0.0
O324 O 0.88953 0.9228 0.20194 0.0
O325 O 0.85349 0.89002 0.18119 0.0
O326 O 0.89891 0.84531 0.18106 0.0
O327 O 0.86929 0.82756 0.20523 0.0
H328 H 0.87585 0.00609 0.19521 0.0
H329 H 0.93192 0.92679 0.20644 0.0
H330 H 0.89886 0.07547 0.19477 0.0
H331 H 0.95398 0.99754 0.20571 0.0
H332 H 0.78035 0.89565 0.18694 0.0
H333 H 0.84817 0.97922 0.17729 0.0
H334 H 0.81505 0.85282 0.18599 0.0
H335 H 0.81285 0.01968 0.17823 0.0
H336 H 0.92764 0.02856 0.15759 0.0
H337 H 0.86902 0.97828 0.13867 0.0
H338 H 0.79694 0.88523 0.23246 0.0
H339 H 0.81629 0.02001 0.21909 0.0
H340 H 0.88953 0.83206 0.15529 0.0
H341 H 0.93906 0.87644 0.18305 0.0
H342 H 0.91459 0.84848 0.13624 0.0
H343 H 0.96328 0.89194 0.16353 0.0
H344 H 0.89441 0.758 0.21238 0.0
H345 H 0.8295 0.79642 0.20103 0.0
H346 H 0.88225 0.6773 0.21415 0.0
H347 H 0.81844 0.71506 0.20304 0.0
H348 H 0.94876 0.84928 0.23996 0.0
H349 H 0.9608 0.75378 0.2073 0.0
H350 H 0.82264 0.75729 0.14963 0.0
H351 H 0.87739 0.67885 0.16423 0.0
Li352 Li 0.14346 0.64338 0.95416 0.0
Li353 Li 0.10461 0.60928 0.95283 0.0
Li354 Li 0.13283 0.59118 0.93608 0.0
Li355 Li 0.11763 0.66503 0.93635 0.0
C356 C 0.14403 0.53723 0.95566 0.0
N357 N 0.16522 0.45407 0.95387 0.0
C358 C 0.13214 0.49661 0.95479 0.0
C359 C 0.16669 0.53559 0.95566 0.0
C360 C 0.14315 0.4549 0.95386 0.0
C361 C 0.1771 0.49319 0.95476 0.0
C362 C 0.10312 0.71432 0.95602 0.0
C363 C 0.06967 0.7565 0.95375 0.0
N364 N 0.08104 0.7964 0.95415 0.0
C365 C 0.11446 0.75571 0.95645 0.0
C366 C 0.08054 0.71463 0.95467 0.0
C367 C 0.103 0.79686 0.95547 0.0
C368 C 0.17469 0.70661 0.96298 0.0
N369 N 0.16579 0.66515 0.96579 0.0
C370 C 0.18914 0.65616 0.9849 0.0
C371 C 0.17257 0.63991 0.97652 0.0
C372 C 0.19861 0.69919 0.98235 0.0
C373 C 0.19106 0.7245 0.9712 0.0
H374 H 0.16902 0.72584 0.95433 0.0
H375 H 0.16519 0.60701 0.97853 0.0
C376 C 0.07203 0.54515 0.95792 0.0
N377 N 0.08076 0.5848 0.96261 0.0
C378 C 0.05445 0.52508 0.96454 0.0
C379 C 0.05496 0.58739 0.98062 0.0
C380 C 0.07271 0.60603 0.97375 0.0
C381 C 0.04556 0.54625 0.97604 0.0
H382 H 0.07872 0.52917 0.94899 0.0
H383 H 0.07997 0.63763 0.97724 0.0
C384 C 0.16545 0.64358 0.92615 0.0
N385 N 0.19966 0.63062 0.90857 0.0
C386 C 0.16184 0.64339 0.91221 0.0
C387 C 0.18648 0.63781 0.93116 0.0
C388 C 0.17935 0.63656 0.90348 0.0
C389 C 0.20356 0.63118 0.9221 0.0
C390 C 0.08703 0.61322 0.92344 0.0
C391 C 0.09329 0.61635 0.9099 0.0
C392 C 0.06507 0.61606 0.92686 0.0
C393 C 0.07745 0.62305 0.89999 0.0
C394 C 0.04972 0.62269 0.91665 0.0
N395 N 0.05618 0.62608 0.90354 0.0
C396 C 0.12458 0.5184 0.9188 0.0
C397 C 0.16234 0.52961 0.92162 0.0
C398 C 0.12824 0.48299 0.90967 0.0
N399 N 0.14146 0.54159 0.92439 0.0
C400 C 0.16679 0.49401 0.91255 0.0
C401 C 0.14957 0.47035 0.90636 0.0
H402 H 0.10812 0.52751 0.92138 0.0
H403 H 0.17557 0.54738 0.92644 0.0
C404 C 0.12744 0.74146 0.92076 0.0
N405 N 0.11025 0.71611 0.92497 0.0
C406 C 0.12462 0.77633 0.91131 0.0
C407 C 0.08622 0.76009 0.91107 0.0
C408 C 0.08976 0.72588 0.92071 0.0
C409 C 0.10389 0.78514 0.90597 0.0
H410 H 0.14349 0.73405 0.92457 0.0
H411 H 0.07618 0.70655 0.92452 0.0
O412 O 0.13357 0.57849 0.95619 0.0
O413 O 0.11407 0.67365 0.95655 0.0
O414 O 0.14855 0.65048 0.93485 0.0
O415 O 0.10226 0.60633 0.93328 0.0
H416 H 0.11461 0.49729 0.95471 0.0
H417 H 0.17615 0.56674 0.95614 0.0
H418 H 0.13416 0.4232 0.95312 0.0
H419 H 0.19463 0.49142 0.95468 0.0
H420 H 0.05222 0.75726 0.95263 0.0
H421 H 0.13194 0.75604 0.95741 0.0
H422 H 0.07155 0.68287 0.95414 0.0
H423 H 0.11158 0.82917 0.95573 0.0
H424 H 0.19458 0.63491 0.9932 0.0
H425 H 0.1975 0.75808 0.9689 0.0
H426 H 0.04805 0.49306 0.96073 0.0
H427 H 0.04851 0.6054 0.9893 0.0
H428 H 0.1457 0.64844 0.90819 0.0
H429 H 0.18955 0.63811 0.94193 0.0
H430 H 0.17679 0.63607 0.89267 0.0
H431 H 0.21991 0.62639 0.92582 0.0
H432 H 0.11019 0.61368 0.90709 0.0
H433 H 0.05994 0.61361 0.93729 0.0
H434 H 0.08207 0.62578 0.88948 0.0
H435 H 0.03268 0.62523 0.91914 0.0
H436 H 0.11441 0.46625 0.90507 0.0
H437 H 0.1835 0.48492 0.91049 0.0
H438 H 0.13866 0.79575 0.90809 0.0
H439 H 0.06992 0.76564 0.90734 0.0
Li440 Li 0.13263 0.65389 0.31788 0.0
Li441 Li 0.11721 0.57654 0.31479 0.0
Li442 Li 0.14387 0.60797 0.29866 0.0
Li443 Li 0.10649 0.63793 0.29951 0.0
C444 C 0.16248 0.59628 0.32818 0.0
N445 N 0.19157 0.60346 0.34931 0.0
C446 C 0.1594 0.57065 0.33995 0.0
C447 C 0.18044 0.62522 0.3271 0.0
C448 C 0.17428 0.57484 0.35053 0.0
C449 C 0.19494 0.62848 0.33791 0.0
C450 C 0.08226 0.65169 0.32188 0.0
C451 C 0.04324 0.64672 0.32104 0.0
N452 N 0.04184 0.68979 0.32621 0.0
C453 C 0.08046 0.69577 0.32727 0.0
C454 C 0.06354 0.62678 0.31883 0.0
C455 C 0.05987 0.71446 0.32936 0.0
C456 C 0.14435 0.74107 0.32897 0.0
N457 N 0.13978 0.69651 0.33172 0.0
C458 C 0.14002 0.71151 0.35544 0.0
C459 C 0.13762 0.6814 0.34463 0.0
C460 C 0.14383 0.75827 0.35301 0.0
C461 C 0.14639 0.77276 0.33952 0.0
H462 H 0.14549 0.75234 0.31859 0.0
H463 H 0.1333 0.64612 0.34651 0.0
C464 C 0.11874 0.48322 0.32291 0.0
N465 N 0.1089 0.52429 0.32502 0.0
C466 C 0.11525 0.4469 0.33183 0.0
C467 C 0.09175 0.49594 0.34498 0.0
C468 C 0.09542 0.53107 0.3357 0.0
C469 C 0.102 0.45345 0.3432 0.0
H470 H 0.13011 0.47929 0.31469 0.0
H471 H 0.08831 0.56442 0.33738 0.0
C472 C 0.14587 0.69243 0.28863 0.0
N473 N 0.17019 0.72818 0.26772 0.0
C474 C 0.13658 0.69825 0.27585 0.0
C475 C 0.16742 0.70521 0.29082 0.0
C476 C 0.14918 0.71631 0.2654 0.0
C477 C 0.17948 0.72308 0.2801 0.0
C478 C 0.11009 0.53198 0.29164 0.0
C479 C 0.12547 0.50026 0.28715 0.0
C480 C 0.08851 0.51847 0.29329 0.0
C481 C 0.11901 0.45527 0.28452 0.0
C482 C 0.0827 0.47316 0.29057 0.0
N483 N 0.09795 0.44275 0.28629 0.0
C484 C 0.18483 0.56934 0.29284 0.0
C485 C 0.16523 0.5933 0.27351 0.0
C486 C 0.20114 0.55071 0.28473 0.0
N487 N 0.16728 0.58993 0.28715 0.0
C488 C 0.18127 0.57554 0.265 0.0
C489 C 0.19943 0.55321 0.27058 0.0
H490 H 0.18581 0.56584 0.30369 0.0
H491 H 0.15083 0.60859 0.2692 0.0
C492 C 0.07603 0.70628 0.29234 0.0
N493 N 0.08303 0.66332 0.28931 0.0
C494 C 0.05848 0.72538 0.28541 0.0
C495 C 0.05646 0.6568 0.27178 0.0
C496 C 0.07377 0.6386 0.27919 0.0
C497 C 0.04849 0.70052 0.27499 0.0
H498 H 0.08405 0.72567 0.3002 0.0
H499 H 0.07983 0.60476 0.27686 0.0
O500 O 0.14797 0.59304 0.31776 0.0
O501 O 0.10227 0.63301 0.31959 0.0
O502 O 0.13389 0.6744 0.29895 0.0
O503 O 0.1161 0.5761 0.29434 0.0
H504 H 0.1456 0.54803 0.34095 0.0
H505 H 0.18308 0.64512 0.31803 0.0
H506 H 0.17205 0.55539 0.35973 0.0
H507 H 0.20885 0.65092 0.33725 0.0
H508 H 0.02861 0.62795 0.31865 0.0
H509 H 0.09479 0.7155 0.3297 0.0
H510 H 0.06468 0.59252 0.31474 0.0
H511 H 0.05821 0.74864 0.33346 0.0
H512 H 0.13833 0.69829 0.36561 0.0
H513 H 0.14897 0.80847 0.33707 0.0
H514 H 0.12374 0.41486 0.33026 0.0
H515 H 0.08145 0.50225 0.35365 0.0
H516 H 0.11991 0.68856 0.274 0.0
H517 H 0.17477 0.70126 0.30068 0.0
H518 H 0.14226 0.72078 0.25544 0.0
H519 H 0.19623 0.73291 0.28163 0.0
H520 H 0.14224 0.51012 0.28581 0.0
H521 H 0.0764 0.5427 0.29667 0.0
H522 H 0.13075 0.43028 0.28111 0.0
H523 H 0.06608 0.46216 0.29187 0.0
H524 H 0.21452 0.53304 0.28954 0.0
H525 H 0.17928 0.57878 0.25418 0.0
H526 H 0.05295 0.75945 0.28804 0.0
H527 H 0.04914 0.63666 0.2638 0.0
Li528 Li 0.89171 0.39336 0.04833 0.0
Li529 Li 0.86654 0.40905 0.066 0.0
Li530 Li 0.87977 0.33191 0.06275 0.0
Li531 Li 0.85273 0.36566 0.04648 0.0
C532 C 0.91705 0.40248 0.06938 0.0
N533 N 0.95882 0.43623 0.07141 0.0
C534 C 0.92057 0.44812 0.07306 0.0
C535 C 0.9348 0.37396 0.06683 0.0
C536 C 0.94181 0.46453 0.07402 0.0
C537 C 0.95578 0.39168 0.06788 0.0
C538 C 0.85335 0.47055 0.04751 0.0
C539 C 0.82077 0.51519 0.04443 0.0
N540 N 0.83148 0.55309 0.04883 0.0
C541 C 0.86403 0.50997 0.052 0.0
C542 C 0.83153 0.47314 0.0437 0.0
C543 C 0.85269 0.55135 0.0526 0.0
C544 C 0.92619 0.38992 0.02899 0.0
N545 N 0.91561 0.41703 0.03803 0.0
C546 C 0.93987 0.47904 0.03347 0.0
C547 C 0.92186 0.4611 0.04015 0.0
C548 C 0.9513 0.45172 0.02425 0.0
C549 C 0.94412 0.40677 0.02189 0.0
H550 H 0.9208 0.35515 0.02735 0.0
H551 H 0.91309 0.48222 0.04721 0.0
C552 C 0.87185 0.44634 0.09167 0.0
N553 N 0.85876 0.44965 0.08064 0.0
C554 C 0.86851 0.47428 0.10289 0.0
C555 C 0.83745 0.50726 0.09164 0.0
C556 C 0.84135 0.47836 0.08061 0.0
C557 C 0.85131 0.50578 0.10291 0.0
H558 H 0.88507 0.42204 0.09173 0.0
H559 H 0.83043 0.47891 0.0721 0.0
C560 C 0.88581 0.28749 0.04 0.0
N561 N 0.89595 0.19644 0.03575 0.0
C562 C 0.86996 0.25711 0.03535 0.0
C563 C 0.90687 0.27166 0.04235 0.0
C564 C 0.87539 0.21118 0.03329 0.0
C565 C 0.91167 0.22548 0.04018 0.0
C566 C 0.83511 0.3582 0.07589 0.0
C567 C 0.84078 0.34625 0.0891 0.0
C568 C 0.81506 0.37876 0.07332 0.0
C569 C 0.82627 0.35547 0.09959 0.0
C570 C 0.80099 0.38736 0.08409 0.0
N571 N 0.80685 0.37567 0.09689 0.0
C572 C 0.90143 0.27486 0.08187 0.0
C573 C 0.87083 0.24256 0.07091 0.0
C574 C 0.9027 0.23739 0.09063 0.0
N575 N 0.88549 0.27693 0.07238 0.0
C576 C 0.87151 0.20454 0.07942 0.0
C577 C 0.88722 0.2022 0.0897 0.0
H578 H 0.91242 0.30336 0.08313 0.0
H579 H 0.85795 0.24575 0.06355 0.0
C580 C 0.82749 0.36734 0.02229 0.0
N581 N 0.82907 0.34985 0.03497 0.0
C582 C 0.81091 0.3528 0.01362 0.0
C583 C 0.79805 0.30236 0.03123 0.0
C584 C 0.81472 0.3182 0.03958 0.0
C585 C 0.796 0.31943 0.018 0.0
H586 H 0.83924 0.39227 0.01886 0.0
H587 H 0.81662 0.30425 0.04964 0.0
O588 O 0.89636 0.38591 0.06819 0.0
O589 O 0.86423 0.4298 0.04665 0.0
O590 O 0.8807 0.33242 0.04232 0.0
O591 O 0.84934 0.3507 0.06555 0.0
H592 H 0.90707 0.47095 0.07488 0.0
H593 H 0.93241 0.33856 0.06402 0.0
H594 H 0.94475 0.49986 0.07675 0.0
H595 H 0.96965 0.37002 0.06586 0.0
H596 H 0.80389 0.51765 0.04153 0.0
H597 H 0.88075 0.50855 0.05522 0.0
H598 H 0.82293 0.44302 0.04031 0.0
H599 H 0.86072 0.58205 0.05613 0.0
H600 H 0.94472 0.51407 0.03543 0.0
H601 H 0.95255 0.38466 0.01483 0.0
H602 H 0.87964 0.47196 0.11133 0.0
H603 H 0.82369 0.53031 0.09136 0.0
H604 H 0.85361 0.26875 0.03341 0.0
H605 H 0.91937 0.29473 0.04586 0.0
H606 H 0.86325 0.18725 0.02976 0.0
H607 H 0.92788 0.21273 0.04203 0.0
H608 H 0.85631 0.33051 0.09123 0.0
H609 H 0.81055 0.3885 0.06315 0.0
H610 H 0.83046 0.34668 0.10989 0.0
H611 H 0.78546 0.4035 0.08228 0.0
H612 H 0.91485 0.2373 0.09854 0.0
H613 H 0.85936 0.17802 0.07828 0.0
H614 H 0.80986 0.36747 0.0036 0.0
H615 H 0.78731 0.27599 0.03501 0.0
Li616 Li 0.8728 0.3391 0.68467 0.0
Li617 Li 0.89687 0.35838 0.70248 0.0
Li618 Li 0.85814 0.38678 0.70297 0.0
Li619 Li 0.88606 0.41669 0.68674 0.0
C620 C 0.85756 0.28274 0.70381 0.0
N621 N 0.834 0.20219 0.70339 0.0
C622 C 0.86736 0.24183 0.69969 0.0
C623 C 0.83577 0.28259 0.70772 0.0
C624 C 0.85517 0.2015 0.69954 0.0
C625 C 0.82414 0.24154 0.70744 0.0
C626 C 0.92327 0.34298 0.68319 0.0
C627 C 0.96191 0.35171 0.68611 0.0
N628 N 0.96433 0.30551 0.68521 0.0
C629 C 0.92616 0.29559 0.68225 0.0
C630 C 0.94129 0.37131 0.6851 0.0
C631 C 0.94704 0.27732 0.68331 0.0
C632 C 0.87995 0.29188 0.66053 0.0
N633 N 0.86549 0.29491 0.67085 0.0
C634 C 0.84321 0.23739 0.66058 0.0
C635 C 0.847 0.2694 0.67084 0.0
C636 C 0.85841 0.23218 0.6501 0.0
C637 C 0.87676 0.26067 0.65006 0.0
H638 H 0.89405 0.31382 0.6604 0.0
H639 H 0.83521 0.2736 0.6788 0.0
C640 C 0.93507 0.36448 0.71918 0.0
N641 N 0.91996 0.33585 0.71377 0.0
C642 C 0.95259 0.34678 0.72653 0.0
C643 C 0.93841 0.27069 0.72284 0.0
C644 C 0.92116 0.28984 0.71568 0.0
C645 C 0.95456 0.29918 0.72826 0.0
H646 H 0.93377 0.40095 0.71758 0.0
H647 H 0.90893 0.26784 0.71141 0.0
C648 C 0.84358 0.38961 0.67223 0.0
N649 N 0.81955 0.3711 0.64931 0.0
C650 C 0.85216 0.39894 0.65945 0.0
C651 C 0.82278 0.37099 0.67337 0.0
C652 C 0.83975 0.38929 0.64798 0.0
C653 C 0.81088 0.36187 0.66165 0.0
C654 C 0.89023 0.46616 0.70871 0.0
C655 C 0.87394 0.49601 0.71308 0.0
C656 C 0.91088 0.48331 0.70582 0.0
C657 C 0.87856 0.54265 0.71437 0.0
C658 C 0.91484 0.53017 0.70722 0.0
N659 N 0.89873 0.55863 0.71143 0.0
C660 C 0.83461 0.39663 0.72733 0.0
C661 C 0.81747 0.42793 0.70799 0.0
C662 C 0.81777 0.41222 0.7356 0.0
N663 N 0.83414 0.40472 0.71382 0.0
C664 C 0.80026 0.44395 0.71585 0.0
C665 C 0.80029 0.43647 0.72989 0.0
H666 H 0.84827 0.37866 0.73171 0.0
H667 H 0.81771 0.43463 0.69724 0.0
C668 C 0.90973 0.47155 0.66786 0.0
N669 N 0.89263 0.47018 0.67652 0.0
C670 C 0.91272 0.5094 0.65941 0.0
C671 C 0.88053 0.54366 0.66904 0.0
C672 C 0.87814 0.50517 0.67724 0.0
C673 C 0.89786 0.54594 0.65984 0.0
H674 H 0.92065 0.44271 0.6672 0.0
H675 H 0.86433 0.50251 0.68393 0.0
O676 O 0.86928 0.32255 0.70424 0.0
O677 O 0.90287 0.36139 0.68261 0.0
O678 O 0.85572 0.39763 0.68355 0.0
O679 O 0.88592 0.42048 0.70715 0.0
H680 H 0.88403 0.24127 0.69633 0.0
H681 H 0.82786 0.31377 0.71092 0.0
H682 H 0.86251 0.16972 0.69627 0.0
H683 H 0.80726 0.24098 0.71043 0.0
H684 H 0.97598 0.37321 0.68768 0.0
H685 H 0.9124 0.27306 0.68093 0.0
H686 H 0.93938 0.40798 0.686 0.0
H687 H 0.94948 0.24069 0.68269 0.0
H688 H 0.82876 0.21637 0.66101 0.0
H689 H 0.88858 0.25903 0.64198 0.0
H690 H 0.96474 0.36994 0.7305 0.0
H691 H 0.93911 0.23388 0.72411 0.0
H692 H 0.86831 0.41298 0.65841 0.0
H693 H 0.81605 0.36297 0.68318 0.0
H694 H 0.8462 0.39611 0.63802 0.0
H695 H 0.79481 0.34721 0.66237 0.0
H696 H 0.85788 0.48345 0.71538 0.0
H697 H 0.92362 0.46083 0.70231 0.0
H698 H 0.86609 0.56616 0.71769 0.0
H699 H 0.9307 0.54394 0.70491 0.0
H700 H 0.81871 0.40625 0.74638 0.0
H701 H 0.78705 0.46196 0.71096 0.0
H702 H 0.92632 0.50978 0.6525 0.0
H703 H 0.86843 0.5705 0.66952 0.0
Li704 Li 0.60369 0.1113 0.95184 0.0
Li705 Li 0.64028 0.14558 0.95153 0.0
Li706 Li 0.61353 0.16526 0.93407 0.0
Li707 Li 0.62901 0.09087 0.93463 0.0
C708 C 0.61009 0.19377 0.96662 0.0
N709 N 0.60719 0.2267 0.99273 0.0
C710 C 0.61302 0.16421 0.97758 0.0
C711 C 0.60571 0.24004 0.96893 0.0
C712 C 0.61149 0.18152 0.9907 0.0
C713 C 0.60429 0.25604 0.98221 0.0
C714 C 0.64694 0.04525 0.95369 0.0
C715 C 0.68364 0.01859 0.95045 0.0
N716 N 0.67643 0.9746 0.9507 0.0
C717 C 0.6399 0.99974 0.95386 0.0
C718 C 0.66899 0.05476 0.9519 0.0
C719 C 0.65506 0.96452 0.95235 0.0
C720 C 0.57858 0.04502 0.96566 0.0
N721 N 0.58011 0.0905 0.96292 0.0
C722 C 0.547 0.10498 0.9748 0.0
C723 C 0.56482 0.12053 0.96738 0.0
C724 C 0.54499 0.05812 0.97776 0.0
C725 C 0.56116 0.02803 0.97317 0.0
H726 H 0.59071 0.0218 0.96184 0.0
H727 H 0.56629 0.15655 0.96505 0.0
C728 C 0.67398 0.20763 0.95805 0.0
N729 N 0.66293 0.1703 0.9625 0.0
C730 C 0.69007 0.22757 0.9661 0.0
C731 C 0.68298 0.17038 0.98319 0.0
C732 C 0.6672 0.15132 0.97476 0.0
C733 C 0.69461 0.20915 0.97892 0.0
H734 H 0.6701 0.22223 0.9483 0.0
H735 H 0.6582 0.12153 0.97803 0.0
C736 C 0.57636 0.11271 0.93001 0.0
N737 N 0.5325 0.12608 0.92569 0.0
C738 C 0.56434 0.08056 0.9227 0.0
C739 C 0.56605 0.15174 0.9351 0.0
C740 C 0.54219 0.08792 0.92062 0.0
C741 C 0.54388 0.15785 0.93282 0.0
C742 C 0.65071 0.15658 0.91871 0.0
C743 C 0.63793 0.13999 0.9081 0.0
C744 C 0.66958 0.18117 0.91583 0.0
C745 C 0.64427 0.14829 0.89478 0.0
C746 C 0.67538 0.18877 0.90237 0.0
N747 N 0.66271 0.17231 0.89221 0.0
C748 C 0.61253 0.25621 0.92474 0.0
C749 C 0.59393 0.20374 0.91059 0.0
C750 C 0.60959 0.29121 0.91529 0.0
N751 N 0.60498 0.21339 0.92215 0.0
C752 C 0.59056 0.23769 0.9009 0.0
C753 C 0.59883 0.28189 0.90306 0.0
H754 H 0.62154 0.26269 0.93393 0.0
H755 H 0.5886 0.16917 0.90857 0.0
C756 C 0.62253 0.0097 0.92023 0.0
N757 N 0.63783 0.04171 0.92312 0.0
C758 C 0.62661 0.97597 0.91058 0.0
C759 C 0.6624 0.00795 0.9073 0.0
C760 C 0.65772 0.04077 0.91717 0.0
C761 C 0.64657 0.97549 0.90375 0.0
H762 H 0.60691 0.01124 0.92517 0.0
H763 H 0.66967 0.06645 0.91973 0.0
O764 O 0.61173 0.17784 0.95366 0.0
O765 O 0.63231 0.08041 0.95467 0.0
O766 O 0.59803 0.10554 0.93219 0.0
O767 O 0.64474 0.1494 0.93185 0.0
H768 H 0.61649 0.12831 0.97598 0.0
H769 H 0.60345 0.26335 0.96053 0.0
H770 H 0.61374 0.15905 0.99928 0.0
H771 H 0.60091 0.2918 0.98415 0.0
H772 H 0.70072 0.02552 0.94902 0.0
H773 H 0.62292 0.99154 0.95496 0.0
H774 H 0.67472 0.08969 0.9514 0.0
H775 H 0.64981 0.92918 0.95242 0.0
H776 H 0.53497 0.12938 0.97825 0.0
H777 H 0.56009 0.99158 0.97508 0.0
H778 H 0.69851 0.25768 0.96248 0.0
H779 H 0.68615 0.1548 0.99293 0.0
H780 H 0.57205 0.05019 0.91866 0.0
H781 H 0.57502 0.17713 0.94075 0.0
H782 H 0.5327 0.06327 0.91499 0.0
H783 H 0.53571 0.18787 0.93672 0.0
H784 H 0.62325 0.12091 0.91012 0.0
H785 H 0.67964 0.19429 0.92393 0.0
H786 H 0.63453 0.13566 0.88648 0.0
H787 H 0.68995 0.20777 0.9 0.0
H788 H 0.6161 0.32491 0.91739 0.0
H789 H 0.58251 0.22881 0.89153 0.0
H790 H 0.61392 0.95174 0.90807 0.0
H791 H 0.67807 0.00836 0.90237 0.0
Li792 Li 0.63861 0.16642 0.31459 0.0
Li793 Li 0.62316 0.09216 0.31489 0.0
Li794 Li 0.64821 0.10974 0.29724 0.0
Li795 Li 0.61093 0.1428 0.29725 0.0
C796 C 0.67584 0.116 0.31865 0.0
N797 N 0.71977 0.1315 0.32193 0.0
C798 C 0.68841 0.08589 0.32635 0.0
C799 C 0.68567 0.15389 0.31255 0.0
C800 C 0.71057 0.09436 0.32791 0.0
C801 C 0.70787 0.16116 0.31435 0.0
C802 C 0.59284 0.14018 0.32649 0.0
C803 C 0.55738 0.11263 0.33274 0.0
N804 N 0.56325 0.11433 0.34598 0.0
C805 C 0.59847 0.14213 0.34016 0.0
C806 C 0.5721 0.12568 0.32273 0.0
C807 C 0.5833 0.12871 0.34986 0.0
C808 C 0.64261 0.2592 0.32227 0.0
N809 N 0.64726 0.21547 0.32594 0.0
C810 C 0.65946 0.24034 0.34766 0.0
C811 C 0.65576 0.20551 0.33828 0.0
C812 C 0.65409 0.28574 0.34436 0.0
C813 C 0.64594 0.29512 0.33137 0.0
H814 H 0.63556 0.26593 0.31245 0.0
H815 H 0.65881 0.17025 0.34103 0.0
C816 C 0.59753 0.01939 0.32773 0.0
N817 N 0.6154 0.04669 0.32816 0.0
C818 C 0.59366 0.98747 0.33799 0.0
C819 C 0.62583 0.01444 0.3494 0.0
C820 C 0.62925 0.04513 0.33885 0.0
C821 C 0.60805 0.98436 0.34899 0.0
H822 H 0.58613 0.02238 0.31953 0.0
H823 H 0.64285 0.06838 0.3393 0.0
C824 C 0.64084 0.18989 0.28148 0.0
N825 N 0.64286 0.21929 0.25498 0.0
C826 C 0.6361 0.15962 0.27093 0.0
C827 C 0.64657 0.23509 0.27856 0.0
C828 C 0.63722 0.17515 0.2576 0.0
C829 C 0.64752 0.2493 0.26509 0.0
C830 C 0.60685 0.03962 0.29455 0.0
C831 C 0.61604 0.99592 0.29537 0.0
C832 C 0.5844 0.04401 0.29292 0.0
C833 C 0.60264 0.95743 0.29457 0.0
C834 C 0.57156 0.00468 0.2921 0.0
N835 N 0.58087 0.96256 0.29295 0.0
C836 C 0.67677 0.04115 0.28898 0.0
C837 C 0.68459 0.11243 0.2787 0.0
C838 C 0.69429 0.02063 0.28241 0.0
N839 N 0.67203 0.08602 0.28688 0.0
C840 C 0.70235 0.09332 0.27193 0.0
C841 C 0.7074 0.04672 0.27372 0.0
H842 H 0.66717 0.02145 0.29598 0.0
H843 H 0.68118 0.14851 0.27761 0.0
C844 C 0.57924 0.20763 0.29101 0.0
N845 N 0.58802 0.16773 0.28651 0.0
C846 C 0.56286 0.22932 0.28364 0.0
C847 C 0.5647 0.16827 0.26718 0.0
C848 C 0.58132 0.14813 0.27475 0.0
C849 C 0.55532 0.20948 0.27161 0.0
H850 H 0.58509 0.2227 0.30031 0.0
H851 H 0.58888 0.11688 0.27125 0.0
O852 O 0.65417 0.10746 0.31687 0.0
O853 O 0.60766 0.15181 0.31682 0.0
O854 O 0.63955 0.17573 0.29462 0.0
O855 O 0.61977 0.07776 0.29504 0.0
H856 H 0.68113 0.05613 0.33103 0.0
H857 H 0.67635 0.17748 0.30646 0.0
H858 H 0.72048 0.07133 0.33385 0.0
H859 H 0.71567 0.19035 0.30969 0.0
H860 H 0.54131 0.10106 0.32998 0.0
H861 H 0.61448 0.15323 0.34322 0.0
H862 H 0.56746 0.12431 0.31219 0.0
H863 H 0.58749 0.12961 0.36048 0.0
H864 H 0.66544 0.23151 0.35762 0.0
H865 H 0.64171 0.32968 0.32841 0.0
H866 H 0.5797 0.96518 0.33719 0.0
H867 H 0.63698 0.01469 0.35786 0.0
H868 H 0.63165 0.1245 0.273 0.0
H869 H 0.65022 0.25894 0.28663 0.0
H870 H 0.6336 0.15211 0.24934 0.0
H871 H 0.65194 0.2842 0.26268 0.0
H872 H 0.63329 0.99161 0.29669 0.0
H873 H 0.57687 0.07731 0.29251 0.0
H874 H 0.60957 0.92345 0.29523 0.0
H875 H 0.55418 0.00767 0.29088 0.0
H876 H 0.69746 0.98462 0.28411 0.0
H877 H 0.71229 0.11508 0.26561 0.0
H878 H 0.55597 0.26099 0.2874 0.0
H879 H 0.55947 0.15225 0.25786 0.0
Li880 Li 0.35675 0.86061 0.04893 0.0
Li881 Li 0.38045 0.83833 0.06683 0.0
Li882 Li 0.36647 0.91573 0.06599 0.0
Li883 Li 0.39545 0.89019 0.04978 0.0
C884 C 0.32964 0.84102 0.06822 0.0
N885 N 0.28831 0.80463 0.06685 0.0
C886 C 0.32627 0.79441 0.07068 0.0
C887 C 0.31197 0.86913 0.06512 0.0
C888 C 0.30525 0.77668 0.06994 0.0
C889 C 0.29121 0.85007 0.06444 0.0
C890 C 0.3957 0.78584 0.0464 0.0
C891 C 0.42856 0.74355 0.04197 0.0
N892 N 0.41789 0.70381 0.04465 0.0
C893 C 0.38504 0.74457 0.04907 0.0
C894 C 0.41762 0.78538 0.0428 0.0
C895 C 0.39656 0.70347 0.04816 0.0
C896 C 0.32468 0.871 0.02826 0.0
N897 N 0.3343 0.84064 0.0368 0.0
C898 C 0.31125 0.78046 0.02887 0.0
C899 C 0.32813 0.79595 0.03707 0.0
C900 C 0.30087 0.81105 0.02005 0.0
C901 C 0.3079 0.8568 0.0197 0.0
H902 H 0.32997 0.90628 0.02813 0.0
H903 H 0.33612 0.77233 0.0438 0.0
C904 C 0.37416 0.79151 0.09091 0.0
N905 N 0.38755 0.79201 0.08001 0.0
C906 C 0.37746 0.7604 0.10138 0.0
C907 C 0.40892 0.73163 0.08958 0.0
C908 C 0.40505 0.76363 0.07934 0.0
C909 C 0.39484 0.72937 0.10073 0.0
H910 H 0.36092 0.8157 0.09155 0.0
H911 H 0.41619 0.766 0.07096 0.0
C912 C 0.36315 0.96978 0.04492 0.0
N913 N 0.35422 0.06242 0.04375 0.0
C914 C 0.37989 0.00121 0.04277 0.0
C915 C 0.34185 0.98542 0.04637 0.0
C916 C 0.37505 0.04792 0.04222 0.0
C917 C 0.33767 0.0324 0.04579 0.0
C918 C 0.4083 0.88678 0.08091 0.0
C919 C 0.39961 0.89677 0.09361 0.0
C920 C 0.4284 0.86481 0.07997 0.0
C921 C 0.4112 0.88452 0.1052 0.0
C922 C 0.43948 0.85313 0.0918 0.0
N923 N 0.43072 0.86312 0.10406 0.0
C924 C 0.34039 0.96252 0.08524 0.0
C925 C 0.37183 0.00225 0.07801 0.0
C926 C 0.33602 0.99643 0.09483 0.0
N927 N 0.35813 0.9659 0.07715 0.0
C928 C 0.36802 0.03702 0.08739 0.0
C929 C 0.35012 0.03398 0.09614 0.0
H930 H 0.33012 0.93265 0.08465 0.0
H931 H 0.38621 0.00328 0.07177 0.0
C932 C 0.41917 0.9095 0.02596 0.0
N933 N 0.42001 0.90989 0.03969 0.0
C934 C 0.43679 0.92531 0.01838 0.0
C935 C 0.45584 0.94112 0.03923 0.0
C936 C 0.43777 0.9256 0.04639 0.0
C937 C 0.45547 0.94123 0.02504 0.0
H938 H 0.40473 0.89717 0.02091 0.0
H939 H 0.43781 0.92662 0.0573 0.0
O940 O 0.35015 0.85893 0.06868 0.0
O941 O 0.38467 0.82644 0.04704 0.0
O942 O 0.36762 0.92398 0.04573 0.0
O943 O 0.3969 0.89729 0.06946 0.0
H944 H 0.33976 0.77193 0.07289 0.0
H945 H 0.31427 0.90519 0.06313 0.0
H946 H 0.30243 0.74064 0.07174 0.0
H947 H 0.27741 0.87139 0.06198 0.0
H948 H 0.44553 0.74269 0.03921 0.0
H949 H 0.36821 0.74427 0.05209 0.0
H950 H 0.42614 0.81693 0.04067 0.0
H951 H 0.38856 0.67131 0.05029 0.0
H952 H 0.30651 0.74478 0.02931 0.0
H953 H 0.30026 0.88145 0.01304 0.0
H954 H 0.36658 0.76098 0.10997 0.0
H955 H 0.42261 0.70861 0.08868 0.0
H956 H 0.39648 0.98977 0.04165 0.0
H957 H 0.32871 0.96158 0.04802 0.0
H958 H 0.38785 0.07265 0.04063 0.0
H959 H 0.32128 0.045 0.04697 0.0
H960 H 0.38398 0.91331 0.09453 0.0
H961 H 0.43516 0.85601 0.07022 0.0
H962 H 0.40463 0.89186 0.1151 0.0
H963 H 0.45497 0.83584 0.09122 0.0
H964 H 0.32202 0.99279 0.10135 0.0
H965 H 0.37956 0.06483 0.08823 0.0
H966 H 0.43592 0.9247 0.00745 0.0
H967 H 0.4698 0.95377 0.04474 0.0
Li968 Li 0.38332 0.91421 0.68577 0.0
Li969 Li 0.35852 0.89203 0.70445 0.0
Li970 Li 0.3972 0.86522 0.7039 0.0
Li971 Li 0.37121 0.83757 0.68795 0.0
C972 C 0.38092 0.97403 0.70837 0.0
N973 N 0.36998 0.06342 0.71449 0.0
C974 C 0.36392 0.99565 0.70151 0.0
C975 C 0.39235 0.99786 0.71833 0.0
C976 C 0.35864 0.04085 0.70476 0.0
C977 C 0.38658 0.04306 0.72128 0.0
C978 C 0.33534 0.87256 0.6788 0.0
C979 C 0.30358 0.82453 0.68006 0.0
N980 N 0.30072 0.82916 0.6665 0.0
C981 C 0.33203 0.87706 0.66489 0.0
C982 C 0.32097 0.84622 0.68646 0.0
C983 C 0.31446 0.85477 0.65886 0.0
C984 C 0.3856 0.94463 0.65963 0.0
N985 N 0.38976 0.95917 0.6724 0.0
C986 C 0.3984 0.03415 0.66431 0.0
C987 C 0.3968 0.00253 0.67489 0.0
C988 C 0.3928 0.02072 0.65111 0.0
C989 C 0.38693 0.97494 0.6488 0.0
H990 H 0.38073 0.90955 0.65793 0.0
H991 H 0.40063 0.01304 0.68509 0.0
C992 C 0.33755 0.9103 0.72938 0.0
N993 N 0.33572 0.91387 0.71573 0.0
C994 C 0.32182 0.92973 0.73779 0.0
C995 C 0.30253 0.95557 0.71793 0.0
C996 C 0.31863 0.93577 0.70992 0.0
C997 C 0.30407 0.95305 0.73207 0.0
H998 H 0.35145 0.89305 0.73371 0.0
H999 H 0.31778 0.93892 0.69905 0.0
C1000 C 0.42185 0.86998 0.68084 0.0
N1001 N 0.46392 0.89352 0.67417 0.0
C1002 C 0.43339 0.84405 0.67139 0.0
C1003 C 0.43172 0.90795 0.68689 0.0
C1004 C 0.45464 0.85648 0.66816 0.0
C1005 C 0.45299 0.91927 0.68337 0.0
C1006 C 0.36596 0.78596 0.71093 0.0
C1007 C 0.38115 0.75188 0.70797 0.0
C1008 C 0.34626 0.77418 0.71698 0.0
C1009 C 0.37627 0.70632 0.71101 0.0
C1010 C 0.342 0.72823 0.71988 0.0
N1011 N 0.35696 0.69554 0.71685 0.0
C1012 C 0.42489 0.86975 0.7269 0.0
C1013 C 0.43488 0.81498 0.71036 0.0
C1014 C 0.44225 0.85641 0.73513 0.0
N1015 N 0.42154 0.84885 0.7148 0.0
C1016 C 0.45235 0.8005 0.71826 0.0
C1017 C 0.45616 0.82103 0.73088 0.0
H1018 H 0.41392 0.89637 0.73023 0.0
H1019 H 0.43186 0.79892 0.70069 0.0
C1020 C 0.37302 0.79142 0.66396 0.0
N1021 N 0.36388 0.78714 0.67637 0.0
C1022 C 0.36952 0.75838 0.65405 0.0
C1023 C 0.34695 0.71682 0.66976 0.0
C1024 C 0.35067 0.75119 0.67936 0.0
C1025 C 0.35663 0.71992 0.65691 0.0
H1026 H 0.38295 0.82095 0.66171 0.0
H1027 H 0.34294 0.74907 0.68912 0.0
O1028 O 0.38618 0.92951 0.70556 0.0
O1029 O 0.35282 0.89286 0.68487 0.0
O1030 O 0.40104 0.85791 0.68407 0.0
O1031 O 0.37039 0.83073 0.70807 0.0
H1032 H 0.35497 0.97788 0.69372 0.0
H1033 H 0.40552 0.98157 0.72375 0.0
H1034 H 0.34554 0.05799 0.69953 0.0
H1035 H 0.39529 0.06192 0.72897 0.0
H1036 H 0.29242 0.80381 0.68586 0.0
H1037 H 0.34288 0.89745 0.65879 0.0
H1038 H 0.3234 0.84202 0.69722 0.0
H1039 H 0.31175 0.85781 0.64809 0.0
H1040 H 0.40309 0.0691 0.66651 0.0
H1041 H 0.38301 0.96287 0.63874 0.0
H1042 H 0.32355 0.92664 0.74864 0.0
H1043 H 0.28936 0.97384 0.71308 0.0
H1044 H 0.42599 0.81454 0.66663 0.0
H1045 H 0.42314 0.9285 0.69422 0.0
H1046 H 0.46376 0.83668 0.66087 0.0
H1047 H 0.46082 0.94853 0.68798 0.0
H1048 H 0.39639 0.76045 0.70321 0.0
H1049 H 0.33439 0.80027 0.7194 0.0
H1050 H 0.38781 0.67953 0.7087 0.0
H1051 H 0.3268 0.71856 0.72453 0.0
H1052 H 0.44447 0.87289 0.74484 0.0
H1053 H 0.46282 0.77361 0.71448 0.0
H1054 H 0.37677 0.76324 0.64419 0.0
H1055 H 0.33688 0.68788 0.67246 0.0
Li1056 Li 0.60619 0.61342 0.45244 0.0
Li1057 Li 0.64334 0.63833 0.45195 0.0
Li1058 Li 0.61735 0.66974 0.43609 0.0
Li1059 Li 0.62909 0.59163 0.43373 0.0
C1060 C 0.61691 0.68523 0.46966 0.0
N1061 N 0.61637 0.7033 0.49707 0.0
C1062 C 0.62099 0.65017 0.47894 0.0
C1063 C 0.61257 0.72946 0.47432 0.0
C1064 C 0.62065 0.66 0.49276 0.0
C1065 C 0.61236 0.73791 0.48822 0.0
C1066 C 0.64934 0.54379 0.45421 0.0
C1067 C 0.68604 0.52099 0.44907 0.0
N1068 N 0.68328 0.48249 0.45661 0.0
C1069 C 0.64687 0.50403 0.4619 0.0
C1070 C 0.66908 0.5524 0.44773 0.0
C1071 C 0.66423 0.47345 0.463 0.0
C1072 C 0.57972 0.54455 0.46232 0.0
N1073 N 0.58287 0.59051 0.46312 0.0
C1074 C 0.5521 0.59849 0.47764 0.0
C1075 C 0.56951 0.61768 0.47057 0.0
C1076 C 0.54833 0.55106 0.4769 0.0
C1077 C 0.56248 0.52401 0.46915 0.0
H1078 H 0.59053 0.5239 0.45623 0.0
H1079 H 0.57216 0.65426 0.47087 0.0
C1080 C 0.67776 0.69532 0.45914 0.0
N1081 N 0.6681 0.65504 0.46246 0.0
C1082 C 0.69552 0.71129 0.46655 0.0
C1083 C 0.69316 0.64381 0.48061 0.0
C1084 C 0.6753 0.62936 0.47301 0.0
C1085 C 0.70346 0.68537 0.47744 0.0
H1086 H 0.67154 0.71519 0.45077 0.0
H1087 H 0.66708 0.59789 0.47563 0.0
C1088 C 0.57768 0.6274 0.43145 0.0
N1089 N 0.53456 0.65155 0.42862 0.0
C1090 C 0.56418 0.60268 0.42275 0.0
C1091 C 0.56925 0.66446 0.4387 0.0
C1092 C 0.54243 0.61542 0.42145 0.0
C1093 C 0.54741 0.6761 0.43713 0.0
C1094 C 0.6527 0.65739 0.4193 0.0
C1095 C 0.63846 0.64738 0.4087 0.0
C1096 C 0.67251 0.67866 0.41655 0.0
C1097 C 0.64432 0.65878 0.39549 0.0
C1098 C 0.67778 0.68952 0.4032 0.0
N1099 N 0.66369 0.67945 0.39304 0.0
C1100 C 0.62417 0.76017 0.42851 0.0
C1101 C 0.59834 0.7224 0.41468 0.0
C1102 C 0.62461 0.79749 0.41971 0.0
N1103 N 0.6115 0.7233 0.42572 0.0
C1104 C 0.59808 0.75923 0.40568 0.0
C1105 C 0.61182 0.79678 0.40796 0.0
H1106 H 0.63485 0.75942 0.4372 0.0
H1107 H 0.58903 0.69206 0.41237 0.0
C1108 C 0.61675 0.51737 0.41813 0.0
N1109 N 0.63417 0.54422 0.42091 0.0
C1110 C 0.6178 0.48479 0.40785 0.0
C1111 C 0.65506 0.50669 0.40382 0.0
C1112 C 0.65326 0.53907 0.41418 0.0
C1113 C 0.637 0.47968 0.40037 0.0
H1114 H 0.60185 0.52206 0.42372 0.0
H1115 H 0.66686 0.561 0.41656 0.0
O1116 O 0.61728 0.67677 0.45607 0.0
O1117 O 0.6324 0.57383 0.45307 0.0
O1118 O 0.59896 0.6149 0.43287 0.0
O1119 O 0.64719 0.64751 0.43237 0.0
H1120 H 0.62436 0.61571 0.47556 0.0
H1121 H 0.60941 0.75697 0.46726 0.0
H1122 H 0.62378 0.6332 0.50005 0.0
H1123 H 0.60903 0.772 0.49197 0.0
H1124 H 0.7014 0.52724 0.44413 0.0
H1125 H 0.63169 0.49689 0.46697 0.0
H1126 H 0.67138 0.58302 0.44178 0.0
H1127 H 0.66254 0.44254 0.46892 0.0
H1128 H 0.54143 0.62064 0.48337 0.0
H1129 H 0.56031 0.4873 0.46841 0.0
H1130 H 0.70309 0.74333 0.4637 0.0
H1131 H 0.6986 0.62312 0.48904 0.0
H1132 H 0.57045 0.57395 0.41705 0.0
H1133 H 0.57939 0.68415 0.44544 0.0
H1134 H 0.53181 0.59658 0.41476 0.0
H1135 H 0.54067 0.70466 0.44269 0.0
H1136 H 0.62299 0.63122 0.41064 0.0
H1137 H 0.68365 0.68683 0.42466 0.0
H1138 H 0.63344 0.6513 0.3872 0.0
H1139 H 0.69305 0.70602 0.40092 0.0
H1140 H 0.63538 0.82591 0.42182 0.0
H1141 H 0.58828 0.75708 0.39662 0.0
H1142 H 0.60363 0.4641 0.40569 0.0
H1143 H 0.67012 0.50398 0.39826 0.0
Li1144 Li 0.62345 0.58838 0.81418 0.0
Li1145 Li 0.63661 0.66613 0.81504 0.0
Li1146 Li 0.61048 0.64395 0.79779 0.0
Li1147 Li 0.64723 0.61682 0.79661 0.0
C1148 C 0.60015 0.65079 0.83077 0.0
N1149 N 0.58807 0.66455 0.85735 0.0
C1150 C 0.61295 0.6336 0.84127 0.0
C1151 C 0.58119 0.67494 0.83379 0.0
C1152 C 0.60658 0.64092 0.85464 0.0
C1153 C 0.57536 0.68154 0.84729 0.0
C1154 C 0.67543 0.61795 0.81809 0.0
C1155 C 0.70666 0.66685 0.81537 0.0
N1156 N 0.719 0.63569 0.8221 0.0
C1157 C 0.68841 0.58646 0.82499 0.0
C1158 C 0.6846 0.65854 0.81325 0.0
C1159 C 0.7104 0.59604 0.82691 0.0
C1160 C 0.6344 0.50684 0.82665 0.0
N1161 N 0.61753 0.53631 0.82516 0.0
C1162 C 0.5973 0.49704 0.84219 0.0
C1163 C 0.59888 0.53125 0.83235 0.0
C1164 C 0.61505 0.46782 0.84455 0.0
C1165 C 0.63349 0.47213 0.8363 0.0
H1166 H 0.64893 0.51152 0.8207 0.0
H1167 H 0.58568 0.55519 0.83096 0.0
C1168 C 0.63669 0.75612 0.82596 0.0
N1169 N 0.64422 0.71277 0.82775 0.0
C1170 C 0.63884 0.78854 0.8363 0.0
C1171 C 0.65694 0.73134 0.8499 0.0
C1172 C 0.65464 0.70029 0.83929 0.0
C1173 C 0.64854 0.77576 0.84859 0.0
H1174 H 0.62815 0.76487 0.81676 0.0
H1175 H 0.66019 0.66547 0.84059 0.0
C1176 C 0.60301 0.55187 0.79189 0.0
N1177 N 0.56794 0.49548 0.78682 0.0
C1178 C 0.60466 0.51676 0.78235 0.0
C1179 C 0.58351 0.55834 0.79885 0.0
C1180 C 0.58675 0.4886 0.77993 0.0
C1181 C 0.56598 0.52946 0.79615 0.0
C1182 C 0.6381 0.69713 0.78242 0.0
C1183 C 0.63493 0.66672 0.77169 0.0
C1184 C 0.64207 0.74336 0.77976 0.0
C1185 C 0.63576 0.68314 0.75844 0.0
C1186 C 0.64278 0.75845 0.76637 0.0
N1187 N 0.63963 0.72828 0.75608 0.0
C1188 C 0.57408 0.70003 0.79229 0.0
C1189 C 0.58142 0.64475 0.77538 0.0
C1190 C 0.55626 0.71637 0.78497 0.0
N1191 N 0.58615 0.66471 0.78744 0.0
C1192 C 0.5638 0.65998 0.76773 0.0
C1193 C 0.55087 0.6962 0.7725 0.0
H1194 H 0.57831 0.71553 0.80187 0.0
H1195 H 0.5914 0.61709 0.77163 0.0
C1196 C 0.6713 0.55277 0.78197 0.0
N1197 N 0.67038 0.59806 0.78506 0.0
C1198 C 0.68798 0.53576 0.77386 0.0
C1199 C 0.70259 0.61236 0.77229 0.0
C1200 C 0.68552 0.62794 0.78038 0.0
C1201 C 0.70403 0.56561 0.76894 0.0
H1202 H 0.65905 0.52979 0.78587 0.0
H1203 H 0.68446 0.66382 0.78301 0.0
O1204 O 0.60623 0.64482 0.81758 0.0
O1205 O 0.65389 0.60878 0.81608 0.0
O1206 O 0.62047 0.57967 0.79429 0.0
O1207 O 0.6373 0.68212 0.79551 0.0
H1208 H 0.62771 0.61492 0.83914 0.0
H1209 H 0.5711 0.68852 0.82578 0.0
H1210 H 0.61637 0.62787 0.86286 0.0
H1211 H 0.56073 0.7002 0.84977 0.0
H1212 H 0.71396 0.69808 0.81165 0.0
H1213 H 0.68157 0.55493 0.82885 0.0
H1214 H 0.67485 0.68342 0.80791 0.0
H1215 H 0.72064 0.57194 0.83224 0.0
H1216 H 0.58281 0.49509 0.84834 0.0
H1217 H 0.64734 0.44969 0.83754 0.0
H1218 H 0.63199 0.82239 0.83497 0.0
H1219 H 0.66463 0.7203 0.85919 0.0
H1220 H 0.61962 0.51138 0.77685 0.0
H1221 H 0.58182 0.58542 0.80621 0.0
H1222 H 0.5878 0.4613 0.77257 0.0
H1223 H 0.55079 0.5341 0.80145 0.0
H1224 H 0.63188 0.63082 0.77353 0.0
H1225 H 0.64455 0.76732 0.78797 0.0
H1226 H 0.63333 0.65998 0.75004 0.0
H1227 H 0.64582 0.79415 0.76416 0.0
H1228 H 0.54667 0.74409 0.78911 0.0
H1229 H 0.56053 0.6439 0.75808 0.0
H1230 H 0.68816 0.49964 0.77139 0.0
H1231 H 0.7147 0.63659 0.76889 0.0
Li1232 Li 0.3947 0.39462 0.54853 0.0
Li1233 Li 0.36868 0.4182 0.56574 0.0
Li1234 Li 0.38369 0.33742 0.56524 0.0
Li1235 Li 0.3568 0.36235 0.5483 0.0
C1236 C 0.41996 0.40879 0.57031 0.0
N1237 N 0.46276 0.43454 0.57365 0.0
C1238 C 0.42524 0.45467 0.57262 0.0
C1239 C 0.43642 0.3759 0.56994 0.0
C1240 C 0.44698 0.46705 0.57421 0.0
C1241 C 0.45797 0.38961 0.5716 0.0
C1242 C 0.35246 0.46234 0.54303 0.0
C1243 C 0.3161 0.49285 0.54256 0.0
N1244 N 0.32391 0.53296 0.53756 0.0
C1245 C 0.3601 0.50369 0.53775 0.0
C1246 C 0.33027 0.45673 0.54535 0.0
C1247 C 0.34543 0.53905 0.53511 0.0
C1248 C 0.43077 0.3923 0.53009 0.0
N1249 N 0.4181 0.4189 0.53815 0.0
C1250 C 0.43912 0.48516 0.53271 0.0
C1251 C 0.42182 0.46455 0.53945 0.0
C1252 C 0.45275 0.45857 0.52447 0.0
C1253 C 0.44829 0.41153 0.52313 0.0
H1254 H 0.42738 0.35617 0.52912 0.0
H1255 H 0.41144 0.48491 0.54589 0.0
C1256 C 0.35331 0.45893 0.58996 0.0
N1257 N 0.36186 0.46749 0.57755 0.0
C1258 C 0.35214 0.49382 0.59962 0.0
C1259 C 0.36818 0.54567 0.58342 0.0
C1260 C 0.36887 0.50998 0.57407 0.0
C1261 C 0.36025 0.53749 0.5965 0.0
H1262 H 0.34846 0.4245 0.5926 0.0
H1263 H 0.37622 0.51551 0.56429 0.0
C1264 C 0.39262 0.28767 0.54226 0.0
N1265 N 0.40781 0.20062 0.53669 0.0
C1266 C 0.37864 0.25448 0.53698 0.0
C1267 C 0.41439 0.27673 0.54453 0.0
C1268 C 0.38661 0.21063 0.53427 0.0
C1269 C 0.42174 0.2325 0.5417 0.0
C1270 C 0.33389 0.34554 0.5733 0.0
C1271 C 0.33069 0.30017 0.57733 0.0
C1272 C 0.31709 0.37729 0.57482 0.0
C1273 C 0.31054 0.28703 0.58248 0.0
C1274 C 0.29718 0.36284 0.58002 0.0
N1275 N 0.29433 0.31837 0.58369 0.0
C1276 C 0.40144 0.29998 0.58885 0.0
C1277 C 0.38688 0.24421 0.57401 0.0
C1278 C 0.40581 0.26649 0.59856 0.0
N1279 N 0.39202 0.28841 0.5769 0.0
C1280 C 0.39108 0.20959 0.58338 0.0
C1281 C 0.40032 0.22061 0.59597 0.0
H1282 H 0.40489 0.33552 0.59104 0.0
H1283 H 0.37876 0.23591 0.56467 0.0
C1284 C 0.32962 0.36182 0.52505 0.0
N1285 N 0.3334 0.34106 0.53713 0.0
C1286 C 0.31332 0.34556 0.51646 0.0
C1287 C 0.30515 0.28676 0.53284 0.0
C1288 C 0.32163 0.30403 0.54108 0.0
C1289 C 0.30085 0.30743 0.52031 0.0
H1290 H 0.33942 0.39076 0.52203 0.0
H1291 H 0.32545 0.28694 0.55044 0.0
O1292 O 0.39879 0.39608 0.5685 0.0
O1293 O 0.36664 0.42749 0.54579 0.0
O1294 O 0.38506 0.33073 0.545 0.0
O1295 O 0.3536 0.35902 0.56833 0.0
H1296 H 0.41272 0.48055 0.57303 0.0
H1297 H 0.4326 0.34014 0.56847 0.0
H1298 H 0.45131 0.5025 0.57588 0.0
H1299 H 0.47087 0.36452 0.57128 0.0
H1300 H 0.29888 0.48896 0.54433 0.0
H1301 H 0.3772 0.50853 0.53576 0.0
H1302 H 0.32401 0.4247 0.54915 0.0
H1303 H 0.35115 0.57132 0.5311 0.0
H1304 H 0.4417 0.52163 0.53388 0.0
H1305 H 0.45844 0.38965 0.51696 0.0
H1306 H 0.34618 0.48601 0.60965 0.0
H1307 H 0.37454 0.57891 0.58062 0.0
H1308 H 0.36181 0.26241 0.53502 0.0
H1309 H 0.42551 0.30209 0.54842 0.0
H1310 H 0.37594 0.18457 0.53025 0.0
H1311 H 0.43853 0.22354 0.54348 0.0
H1312 H 0.34355 0.27522 0.57635 0.0
H1313 H 0.31945 0.41285 0.57217 0.0
H1314 H 0.30779 0.25193 0.58551 0.0
H1315 H 0.28403 0.38704 0.58121 0.0
H1316 H 0.41259 0.27677 0.60819 0.0
H1317 H 0.38674 0.17468 0.58088 0.0
H1318 H 0.3105 0.36269 0.50691 0.0
H1319 H 0.29629 0.25669 0.53609 0.0
Li1320 Li 0.38381 0.41613 0.18811 0.0
Li1321 Li 0.35639 0.38481 0.20445 0.0
Li1322 Li 0.39514 0.35547 0.20318 0.0
Li1323 Li 0.37024 0.33875 0.18549 0.0
C1324 C 0.38972 0.46213 0.21097 0.0
N1325 N 0.40015 0.55279 0.21566 0.0
C1326 C 0.3736 0.4933 0.21473 0.0
C1327 C 0.41118 0.47696 0.20975 0.0
C1328 C 0.37919 0.53901 0.21702 0.0
C1329 C 0.41612 0.52296 0.21212 0.0
C1330 C 0.3402 0.38992 0.17428 0.0
C1331 C 0.30704 0.36053 0.1647 0.0
N1332 N 0.31419 0.37216 0.15216 0.0
C1333 C 0.34721 0.40172 0.16131 0.0
C1334 C 0.31995 0.36923 0.17602 0.0
C1335 C 0.33383 0.3924 0.15025 0.0
C1336 C 0.40482 0.47109 0.16814 0.0
N1337 N 0.38957 0.47017 0.17806 0.0
C1338 C 0.37488 0.54142 0.17057 0.0
C1339 C 0.37494 0.50461 0.17952 0.0
C1340 C 0.38974 0.54238 0.15981 0.0
C1341 C 0.4053 0.50731 0.1589 0.0
H1342 H 0.41571 0.4424 0.16687 0.0
H1343 H 0.36247 0.50213 0.18716 0.0
C1344 C 0.33367 0.39571 0.2292 0.0
N1345 N 0.33289 0.40338 0.21566 0.0
C1346 C 0.31766 0.41389 0.23767 0.0
C1347 C 0.3002 0.44672 0.21805 0.0
C1348 C 0.31657 0.42813 0.20999 0.0
C1349 C 0.30075 0.44023 0.23212 0.0
H1350 H 0.34702 0.37641 0.23345 0.0
H1351 H 0.31666 0.43475 0.19925 0.0
C1352 C 0.42134 0.34725 0.18237 0.0
N1353 N 0.46406 0.31898 0.18082 0.0
C1354 C 0.42628 0.30208 0.17883 0.0
C1355 C 0.43814 0.37811 0.185 0.0
C1356 C 0.44798 0.28843 0.17812 0.0
C1357 C 0.45962 0.36315 0.1842 0.0
C1358 C 0.35547 0.2808 0.20459 0.0
C1359 C 0.36529 0.23945 0.20094 0.0
C1360 C 0.33349 0.28141 0.20808 0.0
C1361 C 0.35292 0.19937 0.20078 0.0
C1362 C 0.32169 0.24058 0.20781 0.0
N1363 N 0.33156 0.20076 0.20419 0.0
C1364 C 0.42854 0.35637 0.22346 0.0
C1365 C 0.4241 0.28653 0.21164 0.0
C1366 C 0.44528 0.33735 0.23123 0.0
N1367 N 0.41838 0.33083 0.21386 0.0
C1368 C 0.44086 0.26638 0.219 0.0
C1369 C 0.45166 0.29163 0.22906 0.0
H1370 H 0.42351 0.39134 0.22519 0.0
H1371 H 0.41573 0.26678 0.20405 0.0
C1372 C 0.37615 0.29842 0.16036 0.0
N1373 N 0.36267 0.29662 0.17121 0.0
C1374 C 0.37275 0.27012 0.14922 0.0
C1375 C 0.34099 0.23951 0.16026 0.0
C1376 C 0.34499 0.26867 0.17121 0.0
C1377 C 0.35509 0.23982 0.1491 0.0
H1378 H 0.38962 0.32207 0.16031 0.0
H1379 H 0.33383 0.26921 0.1796 0.0
O1380 O 0.38453 0.41734 0.20851 0.0
O1381 O 0.35333 0.39752 0.18518 0.0
O1382 O 0.40018 0.36112 0.1833 0.0
O1383 O 0.36734 0.32034 0.20499 0.0
H1384 H 0.35691 0.48249 0.21575 0.0
H1385 H 0.4239 0.45324 0.20702 0.0
H1386 H 0.36685 0.56355 0.21985 0.0
H1387 H 0.43265 0.53494 0.21116 0.0
H1388 H 0.29138 0.34429 0.16587 0.0
H1389 H 0.36292 0.41741 0.1598 0.0
H1390 H 0.31442 0.35937 0.18598 0.0
H1391 H 0.33908 0.40112 0.14015 0.0
H1392 H 0.36271 0.5679 0.17172 0.0
H1393 H 0.41681 0.50634 0.15064 0.0
H1394 H 0.31862 0.40777 0.24844 0.0
H1395 H 0.2877 0.4674 0.21337 0.0
H1396 H 0.4135 0.27755 0.17688 0.0
H1397 H 0.43463 0.41324 0.18764 0.0
H1398 H 0.45202 0.2535 0.1755 0.0
H1399 H 0.47278 0.38665 0.18627 0.0
H1400 H 0.38218 0.23835 0.19806 0.0
H1401 H 0.3256 0.31302 0.21092 0.0
H1402 H 0.36028 0.16719 0.1979 0.0
H1403 H 0.30466 0.24057 0.21046 0.0
H1404 H 0.45283 0.35804 0.23899 0.0
H1405 H 0.44536 0.23138 0.21673 0.0
H1406 H 0.38412 0.27146 0.14089 0.0
H1407 H 0.32691 0.21735 0.16046 0.0
H1408 H 0.26045 0.27727 0.52708 0.0
H1409 H 0.30323 0.29451 0.49298 0.0
H1410 H 0.27586 0.2615 0.47801 0.0
H1411 H 0.24011 0.22609 0.47467 0.0
H1412 H 0.19698 0.21067 0.50874 0.0
H1413 H 0.2244 0.24327 0.52367 0.0
C1414 C 0.26383 0.27357 0.51639 0.0
C1415 C 0.28389 0.28838 0.51118 0.0
C1416 C 0.24804 0.25442 0.50783 0.0
C1417 C 0.28785 0.28394 0.49724 0.0
C1418 C 0.27226 0.26476 0.48868 0.0
C1419 C 0.23657 0.23027 0.48533 0.0
C1420 C 0.21645 0.2156 0.49052 0.0
C1421 C 0.2523 0.2498 0.49387 0.0
C1422 C 0.21241 0.22074 0.50444 0.0
C1423 C 0.22803 0.23979 0.513 0.0
H1424 H 0.96736 0.01421 0.51743 0.0
H1425 H 0.98078 0.87607 0.50448 0.0
H1426 H 0.01133 0.90337 0.49091 0.0
H1427 H 0.03458 0.96629 0.48311 0.0
H1428 H 0.01989 0.10502 0.49522 0.0
H1429 H 0.98989 0.07747 0.50901 0.0
C1430 C 0.97707 0.99009 0.51169 0.0
C1431 C 0.97189 0.94318 0.512 0.0
C1432 C 0.99449 0.00606 0.50385 0.0
C1433 C 0.98436 0.91238 0.50434 0.0
C1434 C 0.00188 0.92795 0.49663 0.0
C1435 C 0.02469 0.99068 0.4886 0.0
C1436 C 0.02971 0.03776 0.48812 0.0
C1437 C 0.0071 0.97473 0.49632 0.0
C1438 C 0.01681 0.06854 0.49556 0.0
C1439 C 0.99947 0.05286 0.50338 0.0
H1440 H 0.26021 0.95431 0.72861 0.0
H1441 H 0.31088 0.00328 0.75502 0.0
H1442 H 0.28395 0.04217 0.76902 0.0
H1443 H 0.24607 0.06332 0.77357 0.0
H1444 H 0.19538 0.01293 0.74735 0.0
H1445 H 0.22234 0.97498 0.73324 0.0
C1446 C 0.26539 0.97375 0.73738 0.0
C1447 C 0.28756 0.97577 0.74075 0.0
C1448 C 0.24983 0.99626 0.74534 0.0
C1449 C 0.29392 0.00058 0.75228 0.0
C1450 C 0.27853 0.02314 0.76024 0.0
C1451 C 0.24087 0.04376 0.76483 0.0
C1452 C 0.21866 0.0413 0.76154 0.0
C1453 C 0.25644 0.02125 0.75686 0.0
C1454 C 0.21234 0.01628 0.75003 0.0
C1455 C 0.22775 0.99413 0.742 0.0
H1456 H 0.03395 0.18791 0.75182 0.0
H1457 H 0.02763 0.28825 0.78361 0.0
H1458 H 0.99781 0.32479 0.77144 0.0
H1459 H 0.97281 0.32716 0.752 0.0
H1460 H 0.97877 0.22563 0.72054 0.0
H1461 H 0.00913 0.19025 0.73246 0.0
C1462 C 0.02593 0.21749 0.75617 0.0
C1463 C 0.03308 0.23519 0.76863 0.0
C1464 C 0.00863 0.23808 0.74919 0.0
C1465 C 0.0227 0.27415 0.77396 0.0
C1466 C 0.00554 0.29496 0.76705 0.0
C1467 C 0.98089 0.29753 0.74771 0.0
C1468 C 0.97347 0.27895 0.73543 0.0
C1469 C 0.99833 0.27718 0.75466 0.0
C1470 C 0.98397 0.24024 0.73007 0.0
C1471 C 0.0014 0.22009 0.73685 0.0
H1472 H 0.78927 0.72342 0.51051 0.0
H1473 H 0.76071 0.85824 0.51299 0.0
H1474 H 0.73007 0.83256 0.49934 0.0
H1475 H 0.71078 0.77123 0.48718 0.0
H1476 H 0.73859 0.63576 0.48564 0.0
H1477 H 0.76979 0.66201 0.49878 0.0
C1478 C 0.77625 0.74717 0.50824 0.0
C1479 C 0.77743 0.7928 0.51283 0.0
C1480 C 0.75841 0.73195 0.50062 0.0
C1481 C 0.76052 0.82314 0.50946 0.0
C1482 C 0.74285 0.80839 0.50173 0.0
C1483 C 0.72376 0.74757 0.48965 0.0
C1484 C 0.72238 0.70161 0.48543 0.0
C1485 C 0.74159 0.76284 0.49729 0.0
C1486 C 0.73916 0.67118 0.48888 0.0
C1487 C 0.75705 0.68623 0.49633 0.0
H1488 H 0.72145 0.06164 0.24794 0.0
H1489 H 0.73613 0.98395 0.28391 0.0
H1490 H 0.76669 0.94776 0.27247 0.0
H1491 H 0.7897 0.93878 0.2523 0.0
H1492 H 0.77568 0.01827 0.21662 0.0
H1493 H 0.74471 0.05361 0.22796 0.0
C1494 C 0.73145 0.03717 0.25334 0.0
C1495 C 0.72635 0.02549 0.26677 0.0
C1496 C 0.74921 0.01682 0.24675 0.0
C1497 C 0.73938 0.99312 0.27351 0.0
C1498 C 0.75698 0.97255 0.267 0.0
C1499 C 0.77976 0.96362 0.247 0.0
C1500 C 0.785 0.97596 0.23366 0.0
C1501 C 0.76203 0.98406 0.25361 0.0
C1502 C 0.77212 0.00858 0.22695 0.0
C1503 C 0.75436 0.02868 0.23341 0.0
H1504 H 0.96218 0.7874 0.2521 0.0
H1505 H 0.99614 0.76683 0.21439 0.0
H1506 H 0.02653 0.7329 0.22649 0.0
H1507 H 0.0439 0.70961 0.24784 0.0
H1508 H 0.01132 0.73567 0.28558 0.0
H1509 H 0.98023 0.76785 0.27344 0.0
C1510 C 0.97631 0.77622 0.24649 0.0
C1511 C 0.97658 0.77952 0.23227 0.0
C1512 C 0.99409 0.75776 0.25354 0.0
C1513 C 0.99506 0.76392 0.22527 0.0
C1514 C 0.01262 0.74478 0.2322 0.0
C1515 C 0.02993 0.72223 0.25336 0.0
C1516 C 0.02979 0.72014 0.26755 0.0
C1517 C 0.0123 0.74141 0.24633 0.0
C1518 C 0.01177 0.73712 0.27464 0.0
C1519 C 0.994 0.75539 0.26771 0.0
H1520 H 0.26595 0.76011 0.02733 0.0
H1521 H 0.29558 0.82603 0.99302 0.0
H1522 H 0.26672 0.79711 0.97831 0.0
H1523 H 0.23375 0.75122 0.97514 0.0
H1524 H 0.20302 0.68895 0.0098 0.0
H1525 H 0.23196 0.71728 0.02433 0.0
C1526 C 0.26609 0.76801 0.01662 0.0
C1527 C 0.28291 0.79496 0.01125 0.0
C1528 C 0.24938 0.75155 0.00827 0.0
C1529 C 0.28273 0.80557 0.9974 0.0
C1530 C 0.2663 0.78886 0.98899 0.0
C1531 C 0.23312 0.74432 0.9859 0.0
C1532 C 0.21615 0.71754 0.99127 0.0
C1533 C 0.24958 0.76166 0.9943 0.0
C1534 C 0.21602 0.7085 0.00525 0.0
C1535 C 0.2325 0.72507 0.01363 0.0
H1536 H 0.03749 0.54403 0.00321 0.0
H1537 H 0.01067 0.5019 0.96484 0.0
H1538 H 0.97993 0.46693 0.97636 0.0
H1539 H 0.96004 0.44969 0.99733 0.0
H1540 H 0.98576 0.49571 0.03551 0.0
H1541 H 0.0173 0.52845 0.02406 0.0
C1542 C 0.02483 0.52773 0.99732 0.0
C1543 C 0.02658 0.52558 0.98314 0.0
C1544 C 0.0069 0.50841 0.00399 0.0
C1545 C 0.01008 0.50347 0.97577 0.0
C1546 C 0.99235 0.48367 0.98234 0.0
C1547 C 0.97266 0.46661 0.00312 0.0
C1548 C 0.97064 0.47026 0.01722 0.0
C1549 C 0.99058 0.48595 0.99644 0.0
C1550 C 0.98693 0.49277 0.02462 0.0
C1551 C 0.00496 0.51139 0.01809 0.0
H1552 H 0.25709 0.44626 0.22799 0.0
H1553 H 0.30751 0.48473 0.25605 0.0
H1554 H 0.28083 0.52352 0.27026 0.0
H1555 H 0.24333 0.54787 0.27449 0.0
H1556 H 0.19272 0.5073 0.24676 0.0
H1557 H 0.21944 0.46943 0.23247 0.0
C1558 C 0.26226 0.46331 0.23719 0.0
C1559 C 0.28428 0.46248 0.24095 0.0
C1560 C 0.24683 0.4857 0.2453 0.0
C1561 C 0.29064 0.48426 0.25299 0.0
C1562 C 0.27541 0.50677 0.26108 0.0
C1563 C 0.23805 0.5304 0.2654 0.0
C1564 C 0.21595 0.53083 0.26174 0.0
C1565 C 0.25346 0.50778 0.25733 0.0
C1566 C 0.20961 0.50851 0.24975 0.0
C1567 C 0.22487 0.48637 0.24161 0.0
H1568 H 0.73508 0.23893 0.97212 0.0
H1569 H 0.69116 0.22744 0.00587 0.0
H1570 H 0.71827 0.26164 0.02079 0.0
H1571 H 0.75442 0.29462 0.0243 0.0
H1572 H 0.79901 0.30303 0.99075 0.0
H1573 H 0.77147 0.27159 0.97569 0.0
C1574 C 0.7314 0.24426 0.98273 0.0
C1575 C 0.71114 0.23054 0.98787 0.0
C1576 C 0.74713 0.26372 0.99128 0.0
C1577 C 0.70672 0.23716 0.00168 0.0
C1578 C 0.72217 0.25694 0.01021 0.0
C1579 C 0.75825 0.28923 0.01372 0.0
C1580 C 0.77887 0.30138 0.00874 0.0
C1581 C 0.74247 0.27014 0.00514 0.0
C1582 C 0.78324 0.29485 0.9949 0.0
C1583 C 0.76753 0.27644 0.98627 0.0
H1584 H 0.72607 0.48499 0.77166 0.0
H1585 H 0.7228 0.60665 0.74695 0.0
H1586 H 0.75244 0.578 0.73297 0.0
H1587 H 0.77916 0.51834 0.72766 0.0
H1588 H 0.78111 0.3949 0.75163 0.0
H1589 H 0.75208 0.42439 0.76595 0.0
C1590 C 0.73163 0.50508 0.76312 0.0
C1591 C 0.72213 0.548 0.7604 0.0
C1592 C 0.7485 0.48812 0.75499 0.0
C1593 C 0.72995 0.57384 0.74944 0.0
C1594 C 0.74682 0.55733 0.74136 0.0
C1595 C 0.77309 0.49756 0.73591 0.0
C1596 C 0.78239 0.45438 0.73852 0.0
C1597 C 0.75618 0.51448 0.74402 0.0
C1598 C 0.77452 0.42849 0.74946 0.0
C1599 C 0.75781 0.44521 0.75762 0.0
H1600 H 0.54491 0.9972 0.99855 0.0
H1601 H 0.50233 0.07975 0.97398 0.0
H1602 H 0.47086 0.05032 0.98624 0.0
H1603 H 0.4554 0.00108 0.00399 0.0
H1604 H 0.49808 0.9198 0.02885 0.0
H1605 H 0.52952 0.94853 0.01641 0.0
C1606 C 0.52872 0.00851 0.99584 0.0
C1607 C 0.52596 0.04056 0.98537 0.0
C1608 C 0.51072 0.99164 0.00298 0.0
C1609 C 0.50491 0.05544 0.98209 0.0
C1610 C 0.4869 0.03844 0.98904 0.0
C1611 C 0.47159 0.98944 0.0066 0.0
C1612 C 0.47442 0.95827 0.01729 0.0
C1613 C 0.4896 0.00651 0.9995 0.0
C1614 C 0.4955 0.944 0.02071 0.0
C1615 C 0.51347 0.96031 0.01358 0.0
H1616 H 0.48903 0.33105 0.23858 0.0
H1617 H 0.45387 0.20311 0.23818 0.0
H1618 H 0.48304 0.16636 0.25071 0.0
H1619 H 0.51853 0.17021 0.262 0.0
H1620 H 0.55274 0.29878 0.2637 0.0
H1621 H 0.5238 0.33574 0.25072 0.0
C1622 C 0.48756 0.29529 0.24137 0.0
C1623 C 0.46925 0.26997 0.23725 0.0
C1624 C 0.50426 0.27439 0.24886 0.0
C1625 C 0.46791 0.22341 0.24088 0.0
C1626 C 0.48454 0.20231 0.24816 0.0
C1627 C 0.51965 0.20626 0.25945 0.0
C1628 C 0.53775 0.23171 0.26372 0.0
C1629 C 0.50283 0.22738 0.25216 0.0
C1630 C 0.5389 0.27856 0.26056 0.0
C1631 C 0.52239 0.29965 0.25311 0.0
H1632 H 0.46877 0.73324 0.73571 0.0
H1633 H 0.4845 0.87321 0.74566 0.0
H1634 H 0.51481 0.84708 0.75962 0.0
H1635 H 0.53752 0.78447 0.76848 0.0
H1636 H 0.52141 0.64457 0.75856 0.0
H1637 H 0.49092 0.6708 0.74489 0.0
C1638 C 0.47892 0.75808 0.74085 0.0
C1639 C 0.4744 0.80514 0.73958 0.0
C1640 C 0.49637 0.74285 0.74881 0.0
C1641 C 0.48748 0.83678 0.74654 0.0
C1642 C 0.5049 0.82187 0.75447 0.0
C1643 C 0.5272 0.75967 0.76345 0.0
C1644 C 0.5319 0.71258 0.76451 0.0
C1645 C 0.50955 0.77498 0.75565 0.0
C1646 C 0.51846 0.68103 0.75776 0.0
C1647 C 0.50091 0.69598 0.74999 0.0
H1648 H 0.46682 0.44252 0.49876 0.0
H1649 H 0.48094 0.52274 0.53434 0.0
H1650 H 0.51129 0.55912 0.52272 0.0
H1651 H 0.53418 0.56763 0.50252 0.0
H1652 H 0.52036 0.48664 0.46708 0.0
H1653 H 0.48985 0.45056 0.47865 0.0
C1654 C 0.47666 0.46761 0.50403 0.0
C1655 C 0.47151 0.47991 0.5174 0.0
C1656 C 0.49422 0.48822 0.49732 0.0
C1657 C 0.48429 0.51306 0.52398 0.0
C1658 C 0.50175 0.53374 0.51737 0.0
C1659 C 0.52438 0.54234 0.49731 0.0
C1660 C 0.52958 0.52981 0.48397 0.0
C1661 C 0.50685 0.52167 0.50403 0.0
C1662 C 0.51688 0.49652 0.47741 0.0
C1663 C 0.49937 0.47601 0.48399 0.0
H1664 H 0.16781 0.8371 0.35592 0.0
H1665 H 0.11875 0.75571 0.37582 0.0
H1666 H 0.11749 0.81008 0.39433 0.0
H1667 H 0.12904 0.88185 0.4046 0.0
H1668 H 0.17491 0.96835 0.38374 0.0
H1669 H 0.17879 0.91066 0.36606 0.0
C1670 C 0.15671 0.83133 0.36424 0.0
C1671 C 0.14359 0.79178 0.36442 0.0
C1672 C 0.15549 0.86368 0.37477 0.0
C1673 C 0.12953 0.78493 0.37546 0.0
C1674 C 0.12859 0.81635 0.38605 0.0
C1675 C 0.13973 0.88854 0.39613 0.0
C1676 C 0.15153 0.92977 0.39555 0.0
C1677 C 0.14134 0.85599 0.38575 0.0
C1678 C 0.16578 0.93683 0.38463 0.0
C1679 C 0.16787 0.90398 0.37441 0.0
H1680 H 0.09676 0.27838 0.38052 0.0
H1681 H 0.11383 0.37843 0.41076 0.0
H1682 H 0.11259 0.43921 0.39375 0.0
H1683 H 0.10801 0.46329 0.37013 0.0
H1684 H 0.09276 0.36282 0.33964 0.0
H1685 H 0.09184 0.30266 0.35688 0.0
C1686 C 0.09995 0.31361 0.38338 0.0
C1687 C 0.10529 0.32408 0.39685 0.0
C1688 C 0.0996 0.34813 0.37351 0.0
C1689 C 0.10977 0.36965 0.40043 0.0
C1690 C 0.10902 0.40434 0.39072 0.0
C1691 C 0.1042 0.4283 0.36731 0.0
C1692 C 0.1003 0.41743 0.35368 0.0
C1693 C 0.10414 0.39391 0.37722 0.0
C1694 C 0.09584 0.37186 0.35009 0.0
C1695 C 0.0953 0.33755 0.35993 0.0
H1696 H 0.17257 0.33704 0.85795 0.0
H1697 H 0.11699 0.26589 0.87426 0.0
H1698 H 0.11473 0.32084 0.89262 0.0
H1699 H 0.12727 0.39064 0.90359 0.0
H1700 H 0.18081 0.46633 0.88659 0.0
H1701 H 0.18525 0.40782 0.86912 0.0
C1702 C 0.1599 0.33365 0.86548 0.0
C1703 C 0.1451 0.29695 0.8647 0.0
C1704 C 0.15832 0.36618 0.87594 0.0
C1705 C 0.12895 0.29299 0.87469 0.0
C1706 C 0.12749 0.3247 0.88517 0.0
C1707 C 0.13983 0.39465 0.89602 0.0
C1708 C 0.15353 0.43315 0.89636 0.0
C1709 C 0.14192 0.36162 0.88582 0.0
C1710 C 0.17011 0.43692 0.88666 0.0
C1711 C 0.17255 0.40364 0.87658 0.0
H1712 H 0.13127 0.8014 0.885 0.0
H1713 H 0.06986 0.84459 0.90166 0.0
H1714 H 0.06545 0.89936 0.88319 0.0
H1715 H 0.0795 0.93624 0.8626 0.0
H1716 H 0.1428 0.89745 0.84764 0.0
H1717 H 0.14579 0.83965 0.86512 0.0
C1718 C 0.11705 0.82322 0.88477 0.0
C1719 C 0.10103 0.81892 0.89482 0.0
C1720 C 0.11483 0.85531 0.87433 0.0
C1721 C 0.08241 0.84671 0.89403 0.0
C1722 C 0.07991 0.87828 0.8835 0.0
C1723 C 0.09405 0.91548 0.86319 0.0
C1724 C 0.11076 0.92129 0.85361 0.0
C1725 C 0.0961 0.88307 0.87363 0.0
C1726 C 0.12932 0.8933 0.85453 0.0
C1727 C 0.13123 0.86042 0.86467 0.0
H1728 H 0.88949 0.17824 0.63896 0.0
H1729 H 0.8208 0.20623 0.63724 0.0
H1730 H 0.81648 0.14828 0.61958 0.0
H1731 H 0.83248 0.09046 0.60426 0.0
H1732 H 0.90138 0.06452 0.60602 0.0
H1733 H 0.90538 0.12175 0.62375 0.0
C1734 C 0.87358 0.17219 0.63462 0.0
C1735 C 0.85553 0.19683 0.6394 0.0
C1736 C 0.87127 0.13936 0.62438 0.0
C1737 C 0.83497 0.18753 0.63386 0.0
C1738 C 0.8325 0.15458 0.62369 0.0
C1739 C 0.84834 0.09729 0.60857 0.0
C1740 C 0.86662 0.07351 0.60371 0.0
C1741 C 0.85056 0.13032 0.61884 0.0
C1742 C 0.88709 0.08291 0.60936 0.0
C1743 C 0.88939 0.11541 0.61958 0.0
H1744 H 0.9078 0.54271 0.63304 0.0
H1745 H 0.89134 0.6369 0.66505 0.0
H1746 H 0.89053 0.70008 0.6489 0.0
H1747 H 0.89277 0.72792 0.62552 0.0
H1748 H 0.90883 0.63358 0.59348 0.0
H1749 H 0.91216 0.57142 0.60987 0.0
C1750 C 0.90444 0.57719 0.63654 0.0
C1751 C 0.89952 0.58495 0.65024 0.0
C1752 C 0.90393 0.61337 0.62718 0.0
C1753 C 0.89488 0.62982 0.65454 0.0
C1754 C 0.89448 0.66601 0.64531 0.0
C1755 C 0.89699 0.69374 0.62213 0.0
C1756 C 0.9004 0.68538 0.60828 0.0
C1757 C 0.89862 0.65804 0.63158 0.0
C1758 C 0.90628 0.64108 0.60409 0.0
C1759 C 0.90804 0.60542 0.61344 0.0
H1760 H 0.84193 0.59678 0.10192 0.0
H1761 H 0.85464 0.48668 0.1299 0.0
H1762 H 0.85398 0.54064 0.14876 0.0
H1763 H 0.85182 0.61975 0.15717 0.0
H1764 H 0.83979 0.72988 0.12907 0.0
H1765 H 0.83755 0.67516 0.1105 0.0
C1766 C 0.84415 0.58445 0.11217 0.0
C1767 C 0.8485 0.5378 0.11447 0.0
C1768 C 0.84387 0.61571 0.12297 0.0
C1769 C 0.85161 0.52252 0.12781 0.0
C1770 C 0.85116 0.55333 0.13862 0.0
C1771 C 0.84866 0.63175 0.14698 0.0
C1772 C 0.84603 0.6789 0.14455 0.0
C1773 C 0.84772 0.60013 0.13629 0.0
C1774 C 0.84162 0.69378 0.1313 0.0
C1775 C 0.84051 0.66252 0.12063 0.0
H1776 H 0.86597 0.05814 0.1352 0.0
H1777 H 0.93538 0.03921 0.13389 0.0
H1778 H 0.93816 0.09735 0.11617 0.0
H1779 H 0.92066 0.15323 0.10084 0.0
H1780 H 0.8511 0.16994 0.10224 0.0
H1781 H 0.84859 0.11194 0.11982 0.0
C1782 C 0.88171 0.06609 0.13092 0.0
C1783 C 0.9004 0.04402 0.13585 0.0
C1784 C 0.88316 0.09897 0.12065 0.0
C1785 C 0.92072 0.05588 0.1304 0.0
C1786 C 0.92231 0.08894 0.1202 0.0
C1787 C 0.90498 0.14415 0.10502 0.0
C1788 C 0.88609 0.16565 0.10013 0.0
C1789 C 0.90362 0.11073 0.11524 0.0
C1790 C 0.86586 0.15335 0.10561 0.0
C1791 C 0.86441 0.12042 0.11575 0.0
H1792 H 0.6606 0.86556 0.8494 0.0
H1793 H 0.63578 0.75604 0.87419 0.0
H1794 H 0.63385 0.8075 0.8936 0.0
H1795 H 0.63801 0.88428 0.90336 0.0
H1796 H 0.66311 0.994 0.87878 0.0
H1797 H 0.66639 0.94188 0.85953 0.0
C1798 C 0.65481 0.8531 0.85907 0.0
C1799 C 0.64836 0.80714 0.86037 0.0
C1800 C 0.65384 0.88286 0.87023 0.0
C1801 C 0.64106 0.79119 0.87298 0.0
C1802 C 0.63985 0.82062 0.88406 0.0
C1803 C 0.64424 0.89668 0.89379 0.0
C1804 C 0.65024 0.94289 0.89247 0.0
C1805 C 0.64604 0.86659 0.88278 0.0
C1806 C 0.65857 0.95844 0.88007 0.0
C1807 C 0.6603 0.92875 0.86904 0.0
H1808 H 0.6309 0.33878 0.89477 0.0
H1809 H 0.5643 0.3026 0.88669 0.0
H1810 H 0.56334 0.35677 0.86784 0.0
H1811 H 0.58181 0.41325 0.85332 0.0
H1812 H 0.64829 0.44968 0.8619 0.0
H1813 H 0.64888 0.3965 0.88084 0.0
C1814 C 0.61605 0.34327 0.88903 0.0
C1815 C 0.59768 0.31685 0.89218 0.0
C1816 C 0.61565 0.3742 0.87819 0.0
C1817 C 0.57872 0.32235 0.88443 0.0
C1818 C 0.57815 0.35336 0.87367 0.0
C1819 C 0.59636 0.40978 0.8594 0.0
C1820 C 0.61503 0.43514 0.85607 0.0
C1821 C 0.59658 0.37926 0.87039 0.0
C1822 C 0.63382 0.42991 0.86401 0.0
C1823 C 0.63414 0.39977 0.87494 0.0
H1824 H 0.62392 0.3506 0.34987 0.0
H1825 H 0.68684 0.30202 0.36247 0.0
H1826 H 0.68746 0.35854 0.38074 0.0
H1827 H 0.66936 0.41993 0.39366 0.0
H1828 H 0.60631 0.46759 0.3809 0.0
H1829 H 0.60654 0.41338 0.36216 0.0
C1830 C 0.63794 0.35289 0.35646 0.0
C1831 C 0.65534 0.32227 0.35478 0.0
C1832 C 0.63808 0.38507 0.367 0.0
C1833 C 0.67318 0.32504 0.36361 0.0
C1834 C 0.67355 0.35738 0.37404 0.0
C1835 C 0.65579 0.41871 0.38669 0.0
C1836 C 0.63777 0.4475 0.38875 0.0
C1837 C 0.65598 0.38728 0.37592 0.0
C1838 C 0.62021 0.44526 0.37969 0.0
C1839 C 0.62037 0.41446 0.36892 0.0
H1840 H 0.58003 0.84281 0.39437 0.0
H1841 H 0.64954 0.8304 0.3979 0.0
H1842 H 0.65443 0.8866 0.37992 0.0
H1843 H 0.63911 0.93728 0.36282 0.0
H1844 H 0.56962 0.95359 0.35988 0.0
H1845 H 0.56459 0.8968 0.3777 0.0
C1846 C 0.59621 0.85257 0.3912 0.0
C1847 C 0.61439 0.83272 0.3975 0.0
C1848 C 0.59892 0.88512 0.38086 0.0
C1849 C 0.6353 0.84574 0.39335 0.0
C1850 C 0.6381 0.8776 0.383 0.0
C1851 C 0.62283 0.92917 0.36619 0.0
C1852 C 0.6048 0.94996 0.35995 0.0
C1853 C 0.62005 0.8974 0.37667 0.0
C1854 C 0.58384 0.93778 0.3643 0.0
C1855 C 0.58093 0.90553 0.37459 0.0
H1856 H 0.34384 0.14965 0.14989 0.0
H1857 H 0.35938 0.2589 0.12219 0.0
H1858 H 0.35809 0.20534 0.10326 0.0
H1859 H 0.35461 0.12667 0.09473 0.0
H1860 H 0.33945 0.01731 0.12246 0.0
H1861 H 0.33793 0.07187 0.14113 0.0
C1862 C 0.34655 0.16191 0.13969 0.0
C1863 C 0.35192 0.20814 0.1375 0.0
C1864 C 0.34586 0.13088 0.12884 0.0
C1865 C 0.3556 0.22332 0.1242 0.0
C1866 C 0.35479 0.19276 0.11336 0.0
C1867 C 0.35092 0.11483 0.10485 0.0
C1868 C 0.34723 0.06795 0.10718 0.0
C1869 C 0.35035 0.1463 0.11559 0.0
C1870 C 0.34213 0.05325 0.12034 0.0
C1871 C 0.34143 0.08439 0.13106 0.0
H1872 H 0.42191 0.58986 0.14685 0.0
H1873 H 0.3524 0.57209 0.14809 0.0
H1874 H 0.34802 0.62779 0.13001 0.0
H1875 H 0.36369 0.68051 0.11361 0.0
H1876 H 0.43303 0.70013 0.11223 0.0
H1877 H 0.43772 0.6438 0.13029 0.0
C1878 C 0.40583 0.59815 0.14312 0.0
C1879 C 0.38751 0.57718 0.14894 0.0
C1880 C 0.40338 0.6302 0.13261 0.0
C1881 C 0.36676 0.58841 0.14402 0.0
C1882 C 0.36423 0.62 0.13359 0.0
C1883 C 0.37984 0.67296 0.11735 0.0
C1884 C 0.39795 0.69475 0.11159 0.0
C1885 C 0.38239 0.64111 0.12783 0.0
C1886 C 0.41879 0.68358 0.11637 0.0
C1887 C 0.42149 0.65158 0.12677 0.0
H1888 H 0.3865 0.68823 0.63899 0.0
H1889 H 0.32003 0.669 0.65148 0.0
H1890 H 0.31533 0.61013 0.63415 0.0
H1891 H 0.32998 0.56527 0.61497 0.0
H1892 H 0.39591 0.58848 0.60207 0.0
H1893 H 0.40069 0.64564 0.61977 0.0
C1894 C 0.37084 0.67178 0.63784 0.0
C1895 C 0.35364 0.68341 0.64654 0.0
C1896 C 0.36809 0.63887 0.62767 0.0
C1897 C 0.33368 0.66052 0.64507 0.0
C1898 C 0.33091 0.62705 0.63508 0.0
C1899 C 0.34536 0.58291 0.61607 0.0
C1900 C 0.3625 0.57294 0.60715 0.0
C1901 C 0.34799 0.61608 0.62627 0.0
C1902 C 0.38235 0.5961 0.60865 0.0
C1903 C 0.38515 0.62856 0.61883 0.0
H1904 H 0.3724 0.15175 0.60211 0.0
H1905 H 0.43386 0.20998 0.614 0.0
H1906 H 0.43698 0.15369 0.63219 0.0
H1907 H 0.42205 0.08784 0.64481 0.0
H1908 H 0.36081 0.02977 0.6324 0.0
H1909 H 0.35811 0.08538 0.61413 0.0
C1910 C 0.38669 0.15174 0.6085 0.0
C1911 C 0.40289 0.18506 0.60663 0.0
C1912 C 0.38845 0.11916 0.61885 0.0
C1913 C 0.42102 0.18505 0.61528 0.0
C1914 C 0.42287 0.15274 0.62565 0.0
C1915 C 0.40811 0.08752 0.63811 0.0
C1916 C 0.39172 0.05455 0.63993 0.0
C1917 C 0.40662 0.11975 0.62759 0.0
C1918 C 0.37382 0.05431 0.6311 0.0
C1919 C 0.37219 0.08627 0.62069 0.0
loop_
_geom_bond_atom_site_label_1
_geom_bond_atom_site_label_2
_geom_bond_distance
_geom_bond_site_symmetry_2
_ccdc_geom_bond_type
Li0 N17 1.990 . S
Li0 O60 1.956 . S
Li0 O61 1.970 . S
Li0 O62 1.961 . S
Li1 N25 1.990 . S
Li1 O60 1.970 . S
Li1 O61 1.956 . S
Li1 O63 1.961 . S
Li2 N47 1.990 . S
Li2 O60 1.961 . S
Li2 O62 1.956 . S
Li2 O63 1.970 . S
Li3 N53 1.990 . S
Li3 O61 1.961 . S
Li3 O62 1.970 . S
Li3 O63 1.956 . S
C4 C6 1.348 . S
C4 C7 1.356 . S
C4 O60 1.325 . S
N5 C8 1.314 . S
N5 C9 1.279 . S
C6 C4 1.348 . S
C6 C8 1.353 . S
C6 H64 0.929 . S
C7 C4 1.356 . S
C7 C9 1.358 . S
C7 H65 0.930 . S
C8 N5 1.314 . S
C8 C6 1.353 . S
C8 H66 0.930 . S
C9 N5 1.279 . S
C9 C7 1.358 . S
C9 H67 0.930 . S
C10 C13 1.348 . S
C10 C14 1.356 . S
C10 O61 1.325 . S
C11 N12 1.279 . S
C11 C14 1.358 1_565 S
C11 H68 0.930 . S
N12 C11 1.279 . S
N12 C15 1.314 . S
C13 C10 1.348 . S
C13 C15 1.353 1_545 S
C13 H69 0.929 . S
C14 C10 1.356 . S
C14 C11 1.358 1_545 S
C14 H70 0.930 . S
C15 N12 1.314 . S
C15 C13 1.353 1_565 S
C15 H71 0.930 . S
C16 N17 1.314 . S
C16 C21 1.353 . S
C16 H22 0.930 . S
N17 Li0 1.990 . S
N17 C16 1.314 . S
N17 C19 1.279 . S
C18 C19 1.358 . S
C18 C20 1.356 . S
C18 H72 0.930 . S
C19 N17 1.279 . S
C19 C18 1.358 . S
C19 H23 0.930 . S
C20 C18 1.356 . S
C20 C21 1.348 . S
C21 C16 1.353 . S
C21 C20 1.348 . S
C21 H73 0.929 . S
H22 C16 0.930 . S
H23 C19 0.930 . S
C24 N25 1.314 . S
C24 C26 1.353 . S
C24 H30 0.930 . S
N25 Li1 1.990 . S
N25 C24 1.314 . S
N25 C28 1.279 . S
C26 C24 1.353 . S
C26 C29 1.348 . S
C26 H74 0.929 . S
C27 C28 1.358 . S
C27 C29 1.356 . S
C27 H75 0.930 . S
C28 N25 1.279 . S
C28 C27 1.358 . S
C28 H31 0.930 . S
C29 C26 1.348 . S
C29 C27 1.356 . S
H30 C24 0.930 . S
H31 C28 0.930 . S
C32 C34 1.348 . S
C32 C35 1.356 . S
C32 O62 1.325 . S
N33 C36 1.314 . S
N33 C37 1.279 . S
C34 C32 1.348 . S
C34 C36 1.353 . S
C34 H76 0.929 . S
C35 C32 1.356 . S
C35 C37 1.358 . S
C35 H77 0.930 . S
C36 N33 1.314 . S
C36 C34 1.353 . S
C36 H78 0.930 . S
C37 N33 1.279 . S
C37 C35 1.358 . S
C37 H79 0.930 . S
C38 C39 1.348 . S
C38 C40 1.356 . S
C38 O63 1.325 . S
C39 C38 1.348 . S
C39 C41 1.353 . S
C39 H80 0.929 . S
C40 C38 1.356 . S
C40 C42 1.358 . S
C40 H81 0.930 . S
C41 C39 1.353 . S
C41 N43 1.314 . S
C41 H82 0.930 . S
C42 C40 1.358 . S
C42 N43 1.279 . S
C42 H83 0.930 . S
N43 C41 1.314 . S
N43 C42 1.279 . S
C44 C46 1.353 . S
C44 N47 1.314 . S
C44 H50 0.930 . S
C45 N47 1.279 . S
C45 C48 1.358 . S
C45 H51 0.930 . S
C46 C44 1.353 . S
C46 C49 1.348 . S
C46 H84 0.929 . S
N47 Li2 1.990 . S
N47 C44 1.314 . S
N47 C45 1.279 . S
C48 C45 1.358 . S
C48 C49 1.356 . S
C48 H85 0.930 . S
C49 C46 1.348 . S
C49 C48 1.356 . S
H50 C44 0.930 . S
H51 C45 0.930 . S
C52 N53 1.314 1_565 S
C52 C54 1.353 . S
C52 H58 0.930 . S
N53 Li3 1.990 . S
N53 C52 1.314 1_545 S
N53 C56 1.279 . S
C54 C52 1.353 . S
C54 C57 1.348 . S
C54 H86 0.929 . S
C55 C56 1.358 1_565 S
C55 C57 1.356 . S
C55 H87 0.930 . S
C56 N53 1.279 . S
C56 C55 1.358 1_545 S
C56 H59 0.930 . S
C57 C54 1.348 . S
C57 C55 1.356 . S
H58 C52 0.930 . S
H59 C56 0.930 . S
O60 Li0 1.956 . S
O60 Li1 1.970 . S
O60 Li2 1.961 . S
O60 C4 1.325 . S
O61 Li0 1.970 . S
O61 Li1 1.956 . S
O61 Li3 1.961 . S
O61 C10 1.325 . S
O62 Li0 1.961 . S
O62 Li2 1.956 . S
O62 Li3 1.970 . S
O62 C32 1.325 . S
O63 Li1 1.961 . S
O63 Li2 1.970 . S
O63 Li3 1.956 . S
O63 C38 1.325 . S
H64 C6 0.929 . S
H65 C7 0.930 . S
H66 C8 0.930 . S
H67 C9 0.930 . S
H68 C11 0.930 . S
H69 C13 0.929 . S
H70 C14 0.930 . S
H71 C15 0.930 . S
H72 C18 0.930 . S
H73 C21 0.929 . S
H74 C26 0.929 . S
H75 C27 0.930 . S
H76 C34 0.929 . S
H77 C35 0.930 . S
H78 C36 0.930 . S
H79 C37 0.930 . S
H80 C39 0.929 . S
H81 C40 0.930 . S
H82 C41 0.930 . S
H83 C42 0.930 . S
H84 C46 0.929 . S
H85 C48 0.930 . S
H86 C54 0.929 . S
H87 C55 0.930 . S
Li88 N105 1.990 . S
Li88 O148 1.956 . S
Li88 O149 1.970 . S
Li88 O150 1.961 . S
Li89 N113 1.990 . S
Li89 O148 1.970 . S
Li89 O149 1.956 . S
Li89 O151 1.961 . S
Li90 N135 1.990 . S
Li90 O148 1.961 . S
Li90 O150 1.956 . S
Li90 O151 1.970 . S
Li91 N141 1.990 . S
Li91 O149 1.961 . S
Li91 O150 1.970 . S
Li91 O151 1.956 . S
C92 C94 1.348 . S
C92 C95 1.356 . S
C92 O148 1.325 . S
N93 C96 1.314 . S
N93 C97 1.279 . S
C94 C92 1.348 . S
C94 C96 1.353 . S
C94 H152 0.929 . S
C95 C92 1.356 . S
C95 C97 1.358 . S
C95 H153 0.930 . S
C96 N93 1.314 . S
C96 C94 1.353 . S
C96 H154 0.930 . S
C97 N93 1.279 . S
C97 C95 1.358 . S
C97 H155 0.930 . S
C98 C101 1.348 . S
C98 C102 1.356 . S
C98 O149 1.325 . S
C99 N100 1.279 . S
C99 C102 1.358 . S
C99 H156 0.930 . S
N100 C99 1.279 . S
N100 C103 1.314 . S
C101 C98 1.348 . S
C101 C103 1.353 . S
C101 H157 0.929 . S
C102 C98 1.356 . S
C102 C99 1.358 . S
C102 H158 0.930 . S
C103 N100 1.314 . S
C103 C101 1.353 . S
C103 H159 0.930 . S
C104 N105 1.314 . S
C104 C109 1.353 . S
C104 H110 0.930 . S
N105 Li88 1.990 . S
N105 C104 1.314 . S
N105 C107 1.279 . S
C106 C107 1.358 . S
C106 C108 1.356 . S
C106 H160 0.930 . S
C107 N105 1.279 . S
C107 C106 1.358 . S
C107 H111 0.930 . S
C108 C106 1.356 . S
C108 C109 1.348 . S
C109 C104 1.353 . S
C109 C108 1.348 . S
C109 H161 0.929 . S
H110 C104 0.930 . S
H111 C107 0.930 . S
C112 N113 1.314 1_565 S
C112 C114 1.353 . S
C112 H118 0.930 . S
N113 Li89 1.990 . S
N113 C112 1.314 1_545 S
N113 C116 1.279 . S
C114 C112 1.353 . S
C114 C117 1.348 . S
C114 H162 0.929 . S
C115 C116 1.358 1_565 S
C115 C117 1.356 . S
C115 H163 0.930 . S
C116 N113 1.279 . S
C116 C115 1.358 1_545 S
C116 H119 0.930 . S
C117 C114 1.348 . S
C117 C115 1.356 . S
H118 C112 0.930 . S
H119 C116 0.930 . S
C120 C122 1.348 . S
C120 C123 1.356 . S
C120 O150 1.325 . S
N121 C124 1.314 . S
N121 C125 1.279 . S
C122 C120 1.348 . S
C122 C124 1.353 . S
C122 H164 0.929 . S
C123 C120 1.356 . S
C123 C125 1.358 . S
C123 H165 0.930 . S
C124 N121 1.314 . S
C124 C122 1.353 . S
C124 H166 0.930 . S
C125 N121 1.279 . S
C125 C123 1.358 . S
C125 H167 0.930 . S
C126 C127 1.348 . S
C126 C128 1.356 . S
C126 O151 1.325 . S
C127 C126 1.348 . S
C127 C129 1.353 1_545 S
C127 H168 0.929 . S
C128 C126 1.356 . S
C128 C130 1.358 1_545 S
C128 H169 0.930 . S
C129 C127 1.353 1_565 S
C129 N131 1.314 . S
C129 H170 0.930 . S
C130 C128 1.358 1_565 S
C130 N131 1.279 . S
C130 H171 0.930 . S
N131 C129 1.314 . S
N131 C130 1.279 . S
C132 C134 1.353 . S
C132 N135 1.314 . S
C132 H138 0.930 . S
C133 N135 1.279 . S
C133 C136 1.358 . S
C133 H139 0.930 . S
C134 C132 1.353 . S
C134 C137 1.348 . S
C134 H172 0.929 . S
N135 Li90 1.990 . S
N135 C132 1.314 . S
N135 C133 1.279 . S
C136 C133 1.358 . S
C136 C137 1.356 . S
C136 H173 0.930 . S
C137 C134 1.348 . S
C137 C136 1.356 . S
H138 C132 0.930 . S
H139 C133 0.930 . S
C140 N141 1.314 . S
C140 C142 1.353 . S
C140 H146 0.930 . S
N141 Li91 1.990 . S
N141 C140 1.314 . S
N141 C144 1.279 . S
C142 C140 1.353 . S
C142 C145 1.348 . S
C142 H174 0.929 . S
C143 C144 1.358 . S
C143 C145 1.356 . S
C143 H175 0.930 . S
C144 N141 1.279 . S
C144 C143 1.358 . S
C144 H147 0.930 . S
C145 C142 1.348 . S
C145 C143 1.356 . S
H146 C140 0.930 . S
H147 C144 0.930 . S
O148 Li88 1.956 . S
O148 Li89 1.970 . S
O148 Li90 1.961 . S
O148 C92 1.325 . S
O149 Li88 1.970 . S
O149 Li89 1.956 . S
O149 Li91 1.961 . S
O149 C98 1.325 . S
O150 Li88 1.961 . S
O150 Li90 1.956 . S
O150 Li91 1.970 . S
O150 C120 1.325 . S
O151 Li89 1.961 . S
O151 Li90 1.970 . S
O151 Li91 1.956 . S
O151 C126 1.325 . S
H152 C94 0.929 . S
H153 C95 0.930 . S
H154 C96 0.930 . S
H155 C97 0.930 . S
H156 C99 0.930 . S
H157 C101 0.929 . S
H158 C102 0.930 . S
H159 C103 0.930 . S
H160 C106 0.930 . S
H161 C109 0.929 . S
H162 C114 0.929 . S
H163 C115 0.930 . S
H164 C122 0.929 . S
H165 C123 0.930 . S
H166 C124 0.930 . S
H167 C125 0.930 . S
H168 C127 0.929 . S
H169 C128 0.930 . S
H170 C129 0.930 . S
H171 C130 0.930 . S
H172 C134 0.929 . S
H173 C136 0.930 . S
H174 C142 0.929 . S
H175 C143 0.930 . S
Li176 N193 1.990 . S
Li176 O236 1.956 . S
Li176 O237 1.970 . S
Li176 O238 1.961 . S
Li177 N201 1.990 . S
Li177 O236 1.970 . S
Li177 O237 1.956 . S
Li177 O239 1.961 . S
Li178 N223 1.990 . S
Li178 O236 1.961 . S
Li178 O238 1.956 . S
Li178 O239 1.970 . S
Li179 N229 1.990 . S
Li179 O237 1.961 . S
Li179 O238 1.970 . S
Li179 O239 1.956 . S
C180 C182 1.348 . S
C180 C183 1.356 . S
C180 O236 1.325 . S
N181 C184 1.314 . S
N181 C185 1.279 . S
C182 C180 1.348 . S
C182 C184 1.353 . S
C182 H240 0.929 . S
C183 C180 1.356 . S
C183 C185 1.358 . S
C183 H241 0.930 . S
C184 N181 1.314 . S
C184 C182 1.353 . S
C184 H242 0.930 . S
C185 N181 1.279 . S
C185 C183 1.358 . S
C185 H243 0.930 . S
C186 C189 1.348 . S
C186 C190 1.356 . S
C186 O237 1.325 . S
C187 N188 1.279 . S
C187 C190 1.358 1_545 S
C187 H244 0.930 . S
N188 C187 1.279 . S
N188 C191 1.314 . S
C189 C186 1.348 . S
C189 C191 1.353 1_565 S
C189 H245 0.929 . S
C190 C186 1.356 . S
C190 C187 1.358 1_565 S
C190 H246 0.930 . S
C191 N188 1.314 . S
C191 C189 1.353 1_545 S
C191 H247 0.930 . S
C192 N193 1.314 . S
C192 C197 1.353 . S
C192 H198 0.930 . S
N193 Li176 1.990 . S
N193 C192 1.314 . S
N193 C195 1.279 . S
C194 C195 1.358 . S
C194 C196 1.356 . S
C194 H248 0.930 . S
C195 N193 1.279 . S
C195 C194 1.358 . S
C195 H199 0.930 . S
C196 C194 1.356 . S
C196 C197 1.348 . S
C197 C192 1.353 . S
C197 C196 1.348 . S
C197 H249 0.929 . S
H198 C192 0.930 . S
H199 C195 0.930 . S
C200 N201 1.314 . S
C200 C202 1.353 1_565 S
C200 H206 0.930 . S
N201 Li177 1.990 . S
N201 C200 1.314 . S
N201 C204 1.279 1_565 S
C202 C200 1.353 1_545 S
C202 C205 1.348 . S
C202 H250 0.931 . S
C203 C204 1.358 . S
C203 C205 1.356 . S
C203 H251 0.930 . S
C204 N201 1.279 1_545 S
C204 C203 1.358 . S
C204 H207 0.930 . S
C205 C202 1.348 . S
C205 C203 1.356 . S
H206 C200 0.930 . S
H207 C204 0.930 . S
C208 C210 1.348 . S
C208 C211 1.356 . S
C208 O238 1.325 . S
N209 C212 1.314 . S
N209 C213 1.279 . S
C210 C208 1.348 . S
C210 C212 1.353 . S
C210 H252 0.929 . S
C211 C208 1.356 . S
C211 C213 1.358 . S
C211 H253 0.930 . S
C212 N209 1.314 . S
C212 C210 1.353 . S
C212 H254 0.930 . S
C213 N209 1.279 . S
C213 C211 1.358 . S
C213 H255 0.930 . S
C214 C215 1.348 . S
C214 C216 1.356 . S
C214 O239 1.325 . S
C215 C214 1.348 . S
C215 C217 1.353 . S
C215 H256 0.929 . S
C216 C214 1.356 . S
C216 C218 1.358 . S
C216 H257 0.930 . S
C217 C215 1.353 . S
C217 N219 1.314 . S
C217 H258 0.930 . S
C218 C216 1.358 . S
C218 N219 1.279 . S
C218 H259 0.930 . S
N219 C217 1.314 . S
N219 C218 1.279 . S
C220 C222 1.353 . S
C220 N223 1.314 . S
C220 H226 0.930 . S
C221 N223 1.279 . S
C221 C224 1.358 . S
C221 H227 0.930 . S
C222 C220 1.353 . S
C222 C225 1.348 . S
C222 H260 0.929 . S
N223 Li178 1.990 . S
N223 C220 1.314 . S
N223 C221 1.279 . S
C224 C221 1.358 . S
C224 C225 1.356 . S
C224 H261 0.930 . S
C225 C222 1.348 . S
C225 C224 1.356 . S
H226 C220 0.930 . S
H227 C221 0.930 . S
C228 N229 1.314 . S
C228 C230 1.353 . S
C228 H234 0.930 . S
N229 Li179 1.990 . S
N229 C228 1.314 . S
N229 C232 1.279 . S
C230 C228 1.353 . S
C230 C233 1.348 . S
C230 H262 0.929 . S
C231 C232 1.358 . S
C231 C233 1.356 . S
C231 H263 0.930 . S
C232 N229 1.279 . S
C232 C231 1.358 . S
C232 H235 0.930 . S
C233 C230 1.348 . S
C233 C231 1.356 . S
H234 C228 0.930 . S
H235 C232 0.930 . S
O236 Li176 1.956 . S
O236 Li177 1.970 . S
O236 Li178 1.961 . S
O236 C180 1.325 . S
O237 Li176 1.970 . S
O237 Li177 1.956 . S
O237 Li179 1.961 . S
O237 C186 1.325 . S
O238 Li176 1.961 . S
O238 Li178 1.956 . S
O238 Li179 1.970 . S
O238 C208 1.325 . S
O239 Li177 1.961 . S
O239 Li178 1.970 . S
O239 Li179 1.956 . S
O239 C214 1.325 . S
H240 C182 0.929 . S
H241 C183 0.930 . S
H242 C184 0.930 . S
H243 C185 0.930 . S
H244 C187 0.930 . S
H245 C189 0.929 . S
H246 C190 0.930 . S
H247 C191 0.930 . S
H248 C194 0.930 . S
H249 C197 0.929 . S
H250 C202 0.931 . S
H251 C203 0.930 . S
H252 C210 0.929 . S
H253 C211 0.930 . S
H254 C212 0.930 . S
H255 C213 0.930 . S
H256 C215 0.929 . S
H257 C216 0.930 . S
H258 C217 0.930 . S
H259 C218 0.930 . S
H260 C222 0.929 . S
H261 C224 0.930 . S
H262 C230 0.929 . S
H263 C231 0.930 . S
Li264 N281 1.990 . S
Li264 O324 1.956 . S
Li264 O325 1.970 . S
Li264 O326 1.961 . S
Li265 N289 1.990 . S
Li265 O324 1.970 . S
Li265 O325 1.956 . S
Li265 O327 1.961 . S
Li266 N311 1.990 . S
Li266 O324 1.961 . S
Li266 O326 1.956 . S
Li266 O327 1.970 . S
Li267 N317 1.990 . S
Li267 O325 1.961 . S
Li267 O326 1.970 . S
Li267 O327 1.956 . S
C268 C270 1.348 . S
C268 C271 1.356 . S
C268 O324 1.325 . S
N269 C272 1.314 . S
N269 C273 1.279 . S
C270 C268 1.348 . S
C270 C272 1.353 1_565 S
C270 H328 0.929 . S
C271 C268 1.356 . S
C271 C273 1.358 1_565 S
C271 H329 0.930 . S
C272 N269 1.314 . S
C272 C270 1.353 1_545 S
C272 H330 0.930 . S
C273 N269 1.279 . S
C273 C271 1.358 1_545 S
C273 H331 0.930 . S
C274 C277 1.348 . S
C274 C278 1.356 . S
C274 O325 1.325 . S
C275 N276 1.279 . S
C275 C278 1.358 . S
C275 H332 0.930 . S
N276 C275 1.279 . S
N276 C279 1.314 . S
C277 C274 1.348 . S
C277 C279 1.353 . S
C277 H333 0.929 . S
C278 C274 1.356 . S
C278 C275 1.358 . S
C278 H334 0.930 . S
C279 N276 1.314 . S
C279 C277 1.353 . S
C279 H335 0.930 . S
C280 N281 1.314 . S
C280 C285 1.353 1_565 S
C280 H286 0.930 . S
N281 Li264 1.990 . S
N281 C280 1.314 . S
N281 C283 1.279 1_565 S
C282 C283 1.358 . S
C282 C284 1.356 . S
C282 H336 0.930 . S
C283 N281 1.279 1_545 S
C283 C282 1.358 . S
C283 H287 0.930 . S
C284 C282 1.356 . S
C284 C285 1.348 . S
C285 C280 1.353 1_545 S
C285 C284 1.348 . S
C285 H337 0.931 . S
H286 C280 0.930 . S
H287 C283 0.930 . S
C288 N289 1.314 . S
C288 C290 1.353 . S
C288 H294 0.930 . S
N289 Li265 1.990 . S
N289 C288 1.314 . S
N289 C292 1.279 . S
C290 C288 1.353 . S
C290 C293 1.348 . S
C290 H338 0.929 . S
C291 C292 1.358 . S
C291 C293 1.356 . S
C291 H339 0.930 . S
C292 N289 1.279 . S
C292 C291 1.358 . S
C292 H295 0.930 . S
C293 C290 1.348 . S
C293 C291 1.356 . S
H294 C288 0.930 . S
H295 C292 0.930 . S
C296 C298 1.348 . S
C296 C299 1.356 . S
C296 O326 1.325 . S
N297 C300 1.314 . S
N297 C301 1.279 . S
C298 C296 1.348 . S
C298 C300 1.353 . S
C298 H340 0.929 . S
C299 C296 1.356 . S
C299 C301 1.358 . S
C299 H341 0.930 . S
C300 N297 1.314 . S
C300 C298 1.353 . S
C300 H342 0.930 . S
C301 N297 1.279 . S
C301 C299 1.358 . S
C301 H343 0.930 . S
C302 C303 1.348 . S
C302 C304 1.356 . S
C302 O327 1.325 . S
C303 C302 1.348 . S
C303 C305 1.353 . S
C303 H344 0.929 . S
C304 C302 1.356 . S
C304 C306 1.358 . S
C304 H345 0.930 . S
C305 C303 1.353 . S
C305 N307 1.314 . S
C305 H346 0.930 . S
C306 C304 1.358 . S
C306 N307 1.279 . S
C306 H347 0.930 . S
N307 C305 1.314 . S
N307 C306 1.279 . S
C308 C310 1.353 . S
C308 N311 1.314 . S
C308 H314 0.930 . S
C309 N311 1.279 . S
C309 C312 1.358 . S
C309 H315 0.930 . S
C310 C308 1.353 . S
C310 C313 1.348 . S
C310 H348 0.929 . S
N311 Li266 1.990 . S
N311 C308 1.314 . S
N311 C309 1.279 . S
C312 C309 1.358 . S
C312 C313 1.356 . S
C312 H349 0.930 . S
C313 C310 1.348 . S
C313 C312 1.356 . S
H314 C308 0.930 . S
H315 C309 0.930 . S
C316 N317 1.314 . S
C316 C318 1.353 . S
C316 H322 0.930 . S
N317 Li267 1.990 . S
N317 C316 1.314 . S
N317 C320 1.279 . S
C318 C316 1.353 . S
C318 C321 1.348 . S
C318 H350 0.929 . S
C319 C320 1.358 . S
C319 C321 1.356 . S
C319 H351 0.930 . S
C320 N317 1.279 . S
C320 C319 1.358 . S
C320 H323 0.930 . S
C321 C318 1.348 . S
C321 C319 1.356 . S
H322 C316 0.930 . S
H323 C320 0.930 . S
O324 Li264 1.956 . S
O324 Li265 1.970 . S
O324 Li266 1.961 . S
O324 C268 1.325 . S
O325 Li264 1.970 . S
O325 Li265 1.956 . S
O325 Li267 1.961 . S
O325 C274 1.325 . S
O326 Li264 1.961 . S
O326 Li266 1.956 . S
O326 Li267 1.970 . S
O326 C296 1.325 . S
O327 Li265 1.961 . S
O327 Li266 1.970 . S
O327 Li267 1.956 . S
O327 C302 1.325 . S
H328 C270 0.929 . S
H329 C271 0.930 . S
H330 C272 0.930 . S
H331 C273 0.930 . S
H332 C275 0.930 . S
H333 C277 0.929 . S
H334 C278 0.930 . S
H335 C279 0.930 . S
H336 C282 0.930 . S
H337 C285 0.931 . S
H338 C290 0.929 . S
H339 C291 0.930 . S
H340 C298 0.929 . S
H341 C299 0.930 . S
H342 C300 0.930 . S
H343 C301 0.930 . S
H344 C303 0.929 . S
H345 C304 0.930 . S
H346 C305 0.930 . S
H347 C306 0.930 . S
H348 C310 0.929 . S
H349 C312 0.930 . S
H350 C318 0.929 . S
H351 C319 0.930 . S
Li352 N369 1.990 . S
Li352 O412 1.956 . S
Li352 O413 1.970 . S
Li352 O414 1.961 . S
Li353 N377 1.990 . S
Li353 O412 1.970 . S
Li353 O413 1.956 . S
Li353 O415 1.961 . S
Li354 N399 1.990 . S
Li354 O412 1.961 . S
Li354 O414 1.956 . S
Li354 O415 1.970 . S
Li355 N405 1.990 . S
Li355 O413 1.961 . S
Li355 O414 1.970 . S
Li355 O415 1.956 . S
C356 C358 1.348 . S
C356 C359 1.356 . S
C356 O412 1.325 . S
N357 C360 1.314 . S
N357 C361 1.279 . S
C358 C356 1.348 . S
C358 C360 1.353 . S
C358 H416 0.929 . S
C359 C356 1.356 . S
C359 C361 1.358 . S
C359 H417 0.930 . S
C360 N357 1.314 . S
C360 C358 1.353 . S
C360 H418 0.930 . S
C361 N357 1.279 . S
C361 C359 1.358 . S
C361 H419 0.930 . S
C362 C365 1.348 . S
C362 C366 1.356 . S
C362 O413 1.325 . S
C363 N364 1.279 . S
C363 C366 1.358 . S
C363 H420 0.930 . S
N364 C363 1.279 . S
N364 C367 1.314 . S
C365 C362 1.348 . S
C365 C367 1.353 . S
C365 H421 0.929 . S
C366 C362 1.356 . S
C366 C363 1.358 . S
C366 H422 0.930 . S
C367 N364 1.314 . S
C367 C365 1.353 . S
C367 H423 0.930 . S
C368 N369 1.314 . S
C368 C373 1.353 . S
C368 H374 0.930 . S
N369 Li352 1.990 . S
N369 C368 1.314 . S
N369 C371 1.279 . S
C370 C371 1.358 . S
C370 C372 1.356 . S
C370 H424 0.930 . S
C371 N369 1.279 . S
C371 C370 1.358 . S
C371 H375 0.930 . S
C372 C370 1.356 . S
C372 C373 1.348 . S
C373 C368 1.353 . S
C373 C372 1.348 . S
C373 H425 0.929 . S
H374 C368 0.930 . S
H375 C371 0.930 . S
C376 N377 1.314 . S
C376 C378 1.353 . S
C376 H382 0.930 . S
N377 Li353 1.990 . S
N377 C376 1.314 . S
N377 C380 1.279 . S
C378 C376 1.353 . S
C378 C381 1.348 . S
C378 H426 0.929 . S
C379 C380 1.358 . S
C379 C381 1.356 . S
C379 H427 0.930 . S
C380 N377 1.279 . S
C380 C379 1.358 . S
C380 H383 0.930 . S
C381 C378 1.348 . S
C381 C379 1.356 . S
H382 C376 0.930 . S
H383 C380 0.930 . S
C384 C386 1.348 . S
C384 C387 1.356 . S
C384 O414 1.325 . S
N385 C388 1.314 . S
N385 C389 1.279 . S
C386 C384 1.348 . S
C386 C388 1.353 . S
C386 H428 0.929 . S
C387 C384 1.356 . S
C387 C389 1.358 . S
C387 H429 0.930 . S
C388 N385 1.314 . S
C388 C386 1.353 . S
C388 H430 0.930 . S
C389 N385 1.279 . S
C389 C387 1.358 . S
C389 H431 0.930 . S
C390 C391 1.348 . S
C390 C392 1.356 . S
C390 O415 1.325 . S
C391 C390 1.348 . S
C391 C393 1.353 . S
C391 H432 0.929 . S
C392 C390 1.356 . S
C392 C394 1.358 . S
C392 H433 0.930 . S
C393 C391 1.353 . S
C393 N395 1.314 . S
C393 H434 0.930 . S
C394 C392 1.358 . S
C394 N395 1.279 . S
C394 H435 0.930 . S
N395 C393 1.314 . S
N395 C394 1.279 . S
C396 C398 1.353 . S
C396 N399 1.314 . S
C396 H402 0.930 . S
C397 N399 1.279 . S
C397 C400 1.358 . S
C397 H403 0.930 . S
C398 C396 1.353 . S
C398 C401 1.348 . S
C398 H436 0.929 . S
N399 Li354 1.990 . S
N399 C396 1.314 . S
N399 C397 1.279 . S
C400 C397 1.358 . S
C400 C401 1.356 . S
C400 H437 0.930 . S
C401 C398 1.348 . S
C401 C400 1.356 . S
H402 C396 0.930 . S
H403 C397 0.930 . S
C404 N405 1.314 . S
C404 C406 1.353 . S
C404 H410 0.930 . S
N405 Li355 1.990 . S
N405 C404 1.314 . S
N405 C408 1.279 . S
C406 C404 1.353 . S
C406 C409 1.348 . S
C406 H438 0.929 . S
C407 C408 1.358 . S
C407 C409 1.356 . S
C407 H439 0.930 . S
C408 N405 1.279 . S
C408 C407 1.358 . S
C408 H411 0.930 . S
C409 C406 1.348 . S
C409 C407 1.356 . S
H410 C404 0.930 . S
H411 C408 0.930 . S
O412 Li352 1.956 . S
O412 Li353 1.970 . S
O412 Li354 1.961 . S
O412 C356 1.325 . S
O413 Li352 1.970 . S
O413 Li353 1.956 . S
O413 Li355 1.961 . S
O413 C362 1.325 . S
O414 Li352 1.961 . S
O414 Li354 1.956 . S
O414 Li355 1.970 . S
O414 C384 1.325 . S
O415 Li353 1.961 . S
O415 Li354 1.970 . S
O415 Li355 1.956 . S
O415 C390 1.325 . S
H416 C358 0.929 . S
H417 C359 0.930 . S
H418 C360 0.930 . S
H419 C361 0.930 . S
H420 C363 0.930 . S
H421 C365 0.929 . S
H422 C366 0.930 . S
H423 C367 0.930 . S
H424 C370 0.930 . S
H425 C373 0.929 . S
H426 C378 0.929 . S
H427 C379 0.930 . S
H428 C386 0.929 . S
H429 C387 0.930 . S
H430 C388 0.930 . S
H431 C389 0.930 . S
H432 C391 0.929 . S
H433 C392 0.930 . S
H434 C393 0.930 . S
H435 C394 0.930 . S
H436 C398 0.929 . S
H437 C400 0.930 . S
H438 C406 0.929 . S
H439 C407 0.930 . S
Li440 N457 1.990 . S
Li440 O500 1.956 . S
Li440 O501 1.970 . S
Li440 O502 1.961 . S
Li441 N465 1.990 . S
Li441 O500 1.970 . S
Li441 O501 1.956 . S
Li441 O503 1.961 . S
Li442 N487 1.990 . S
Li442 O500 1.961 . S
Li442 O502 1.956 . S
Li442 O503 1.970 . S
Li443 N493 1.990 . S
Li443 O501 1.961 . S
Li443 O502 1.970 . S
Li443 O503 1.956 . S
C444 C446 1.348 . S
C444 C447 1.356 . S
C444 O500 1.325 . S
N445 C448 1.314 . S
N445 C449 1.279 . S
C446 C444 1.348 . S
C446 C448 1.353 . S
C446 H504 0.929 . S
C447 C444 1.356 . S
C447 C449 1.358 . S
C447 H505 0.930 . S
C448 N445 1.314 . S
C448 C446 1.353 . S
C448 H506 0.930 . S
C449 N445 1.279 . S
C449 C447 1.358 . S
C449 H507 0.930 . S
C450 C453 1.348 . S
C450 C454 1.356 . S
C450 O501 1.325 . S
C451 N452 1.279 . S
C451 C454 1.358 . S
C451 H508 0.930 . S
N452 C451 1.279 . S
N452 C455 1.314 . S
C453 C450 1.348 . S
C453 C455 1.353 . S
C453 H509 0.929 . S
C454 C450 1.356 . S
C454 C451 1.358 . S
C454 H510 0.930 . S
C455 N452 1.314 . S
C455 C453 1.353 . S
C455 H511 0.930 . S
C456 N457 1.314 . S
C456 C461 1.353 . S
C456 H462 0.930 . S
N457 Li440 1.990 . S
N457 C456 1.314 . S
N457 C459 1.279 . S
C458 C459 1.358 . S
C458 C460 1.356 . S
C458 H512 0.930 . S
C459 N457 1.279 . S
C459 C458 1.358 . S
C459 H463 0.930 . S
C460 C458 1.356 . S
C460 C461 1.348 . S
C461 C456 1.353 . S
C461 C460 1.348 . S
C461 H513 0.929 . S
H462 C456 0.930 . S
H463 C459 0.930 . S
C464 N465 1.314 . S
C464 C466 1.353 . S
C464 H470 0.930 . S
N465 Li441 1.990 . S
N465 C464 1.314 . S
N465 C468 1.279 . S
C466 C464 1.353 . S
C466 C469 1.348 . S
C466 H514 0.929 . S
C467 C468 1.358 . S
C467 C469 1.356 . S
C467 H515 0.930 . S
C468 N465 1.279 . S
C468 C467 1.358 . S
C468 H471 0.930 . S
C469 C466 1.348 . S
C469 C467 1.356 . S
H470 C464 0.930 . S
H471 C468 0.930 . S
C472 C474 1.348 . S
C472 C475 1.356 . S
C472 O502 1.325 . S
N473 C476 1.314 . S
N473 C477 1.279 . S
C474 C472 1.348 . S
C474 C476 1.353 . S
C474 H516 0.929 . S
C475 C472 1.356 . S
C475 C477 1.358 . S
C475 H517 0.930 . S
C476 N473 1.314 . S
C476 C474 1.353 . S
C476 H518 0.930 . S
C477 N473 1.279 . S
C477 C475 1.358 . S
C477 H519 0.930 . S
C478 C479 1.348 . S
C478 C480 1.356 . S
C478 O503 1.325 . S
C479 C478 1.348 . S
C479 C481 1.353 . S
C479 H520 0.929 . S
C480 C478 1.356 . S
C480 C482 1.358 . S
C480 H521 0.930 . S
C481 C479 1.353 . S
C481 N483 1.314 . S
C481 H522 0.930 . S
C482 C480 1.358 . S
C482 N483 1.279 . S
C482 H523 0.930 . S
N483 C481 1.314 . S
N483 C482 1.279 . S
C484 C486 1.353 . S
C484 N487 1.314 . S
C484 H490 0.930 . S
C485 N487 1.279 . S
C485 C488 1.358 . S
C485 H491 0.930 . S
C486 C484 1.353 . S
C486 C489 1.348 . S
C486 H524 0.929 . S
N487 Li442 1.990 . S
N487 C484 1.314 . S
N487 C485 1.279 . S
C488 C485 1.358 . S
C488 C489 1.356 . S
C488 H525 0.930 . S
C489 C486 1.348 . S
C489 C488 1.356 . S
H490 C484 0.930 . S
H491 C485 0.930 . S
C492 N493 1.314 . S
C492 C494 1.353 . S
C492 H498 0.930 . S
N493 Li443 1.990 . S
N493 C492 1.314 . S
N493 C496 1.279 . S
C494 C492 1.353 . S
C494 C497 1.348 . S
C494 H526 0.929 . S
C495 C496 1.358 . S
C495 C497 1.356 . S
C495 H527 0.930 . S
C496 N493 1.279 . S
C496 C495 1.358 . S
C496 H499 0.930 . S
C497 C494 1.348 . S
C497 C495 1.356 . S
H498 C492 0.930 . S
H499 C496 0.930 . S
O500 Li440 1.956 . S
O500 Li441 1.970 . S
O500 Li442 1.961 . S
O500 C444 1.325 . S
O501 Li440 1.970 . S
O501 Li441 1.956 . S
O501 Li443 1.961 . S
O501 C450 1.325 . S
O502 Li440 1.961 . S
O502 Li442 1.956 . S
O502 Li443 1.970 . S
O502 C472 1.325 . S
O503 Li441 1.961 . S
O503 Li442 1.970 . S
O503 Li443 1.956 . S
O503 C478 1.325 . S
H504 C446 0.929 . S
H505 C447 0.930 . S
H506 C448 0.930 . S
H507 C449 0.930 . S
H508 C451 0.930 . S
H509 C453 0.929 . S
H510 C454 0.930 . S
H511 C455 0.930 . S
H512 C458 0.930 . S
H513 C461 0.929 . S
H514 C466 0.929 . S
H515 C467 0.930 . S
H516 C474 0.929 . S
H517 C475 0.930 . S
H518 C476 0.930 . S
H519 C477 0.930 . S
H520 C479 0.929 . S
H521 C480 0.930 . S
H522 C481 0.930 . S
H523 C482 0.930 . S
H524 C486 0.929 . S
H525 C488 0.930 . S
H526 C494 0.929 . S
H527 C495 0.930 . S
Li528 N545 1.990 . S
Li528 O588 1.956 . S
Li528 O589 1.970 . S
Li528 O590 1.961 . S
Li529 N553 1.990 . S
Li529 O588 1.970 . S
Li529 O589 1.956 . S
Li529 O591 1.961 . S
Li530 N575 1.990 . S
Li530 O588 1.961 . S
Li530 O590 1.956 . S
Li530 O591 1.970 . S
Li531 N581 1.990 . S
Li531 O589 1.961 . S
Li531 O590 1.970 . S
Li531 O591 1.956 . S
C532 C534 1.348 . S
C532 C535 1.356 . S
C532 O588 1.325 . S
N533 C536 1.314 . S
N533 C537 1.279 . S
C534 C532 1.348 . S
C534 C536 1.353 . S
C534 H592 0.929 . S
C535 C532 1.356 . S
C535 C537 1.358 . S
C535 H593 0.930 . S
C536 N533 1.314 . S
C536 C534 1.353 . S
C536 H594 0.930 . S
C537 N533 1.279 . S
C537 C535 1.358 . S
C537 H595 0.930 . S
C538 C541 1.348 . S
C538 C542 1.356 . S
C538 O589 1.325 . S
C539 N540 1.279 . S
C539 C542 1.358 . S
C539 H596 0.930 . S
N540 C539 1.279 . S
N540 C543 1.314 . S
C541 C538 1.348 . S
C541 C543 1.353 . S
C541 H597 0.929 . S
C542 C538 1.356 . S
C542 C539 1.358 . S
C542 H598 0.930 . S
C543 N540 1.314 . S
C543 C541 1.353 . S
C543 H599 0.930 . S
C544 N545 1.314 . S
C544 C549 1.353 . S
C544 H550 0.930 . S
N545 Li528 1.990 . S
N545 C544 1.314 . S
N545 C547 1.279 . S
C546 C547 1.358 . S
C546 C548 1.356 . S
C546 H600 0.930 . S
C547 N545 1.279 . S
C547 C546 1.358 . S
C547 H551 0.930 . S
C548 C546 1.356 . S
C548 C549 1.348 . S
C549 C544 1.353 . S
C549 C548 1.348 . S
C549 H601 0.929 . S
H550 C544 0.930 . S
H551 C547 0.930 . S
C552 N553 1.314 . S
C552 C554 1.353 . S
C552 H558 0.930 . S
N553 Li529 1.990 . S
N553 C552 1.314 . S
N553 C556 1.279 . S
C554 C552 1.353 . S
C554 C557 1.348 . S
C554 H602 0.929 . S
C555 C556 1.358 . S
C555 C557 1.356 . S
C555 H603 0.930 . S
C556 N553 1.279 . S
C556 C555 1.358 . S
C556 H559 0.930 . S
C557 C554 1.348 . S
C557 C555 1.356 . S
H558 C552 0.930 . S
H559 C556 0.930 . S
C560 C562 1.348 . S
C560 C563 1.356 . S
C560 O590 1.325 . S
N561 C564 1.314 . S
N561 C565 1.279 . S
C562 C560 1.348 . S
C562 C564 1.353 . S
C562 H604 0.929 . S
C563 C560 1.356 . S
C563 C565 1.358 . S
C563 H605 0.930 . S
C564 N561 1.314 . S
C564 C562 1.353 . S
C564 H606 0.930 . S
C565 N561 1.279 . S
C565 C563 1.358 . S
C565 H607 0.930 . S
C566 C567 1.348 . S
C566 C568 1.356 . S
C566 O591 1.325 . S
C567 C566 1.348 . S
C567 C569 1.353 . S
C567 H608 0.929 . S
C568 C566 1.356 . S
C568 C570 1.358 . S
C568 H609 0.930 . S
C569 C567 1.353 . S
C569 N571 1.314 . S
C569 H610 0.930 . S
C570 C568 1.358 . S
C570 N571 1.279 . S
C570 H611 0.930 . S
N571 C569 1.314 . S
N571 C570 1.279 . S
C572 C574 1.353 . S
C572 N575 1.314 . S
C572 H578 0.930 . S
C573 N575 1.279 . S
C573 C576 1.358 . S
C573 H579 0.930 . S
C574 C572 1.353 . S
C574 C577 1.348 . S
C574 H612 0.929 . S
N575 Li530 1.990 . S
N575 C572 1.314 . S
N575 C573 1.279 . S
C576 C573 1.358 . S
C576 C577 1.356 . S
C576 H613 0.930 . S
C577 C574 1.348 . S
C577 C576 1.356 . S
H578 C572 0.930 . S
H579 C573 0.930 . S
C580 N581 1.314 . S
C580 C582 1.353 . S
C580 H586 0.930 . S
N581 Li531 1.990 . S
N581 C580 1.314 . S
N581 C584 1.279 . S
C582 C580 1.353 . S
C582 C585 1.348 . S
C582 H614 0.929 . S
C583 C584 1.358 . S
C583 C585 1.356 . S
C583 H615 0.930 . S
C584 N581 1.279 . S
C584 C583 1.358 . S
C584 H587 0.930 . S
C585 C582 1.348 . S
C585 C583 1.356 . S
H586 C580 0.930 . S
H587 C584 0.930 . S
O588 Li528 1.956 . S
O588 Li529 1.970 . S
O588 Li530 1.961 . S
O588 C532 1.325 . S
O589 Li528 1.970 . S
O589 Li529 1.956 . S
O589 Li531 1.961 . S
O589 C538 1.325 . S
O590 Li528 1.961 . S
O590 Li530 1.956 . S
O590 Li531 1.970 . S
O590 C560 1.325 . S
O591 Li529 1.961 . S
O591 Li530 1.970 . S
O591 Li531 1.956 . S
O591 C566 1.325 . S
H592 C534 0.929 . S
H593 C535 0.930 . S
H594 C536 0.930 . S
H595 C537 0.930 . S
H596 C539 0.930 . S
H597 C541 0.929 . S
H598 C542 0.930 . S
H599 C543 0.930 . S
H600 C546 0.930 . S
H601 C549 0.929 . S
H602 C554 0.929 . S
H603 C555 0.930 . S
H604 C562 0.929 . S
H605 C563 0.930 . S
H606 C564 0.930 . S
H607 C565 0.930 . S
H608 C567 0.929 . S
H609 C568 0.930 . S
H610 C569 0.930 . S
H611 C570 0.930 . S
H612 C574 0.929 . S
H613 C576 0.930 . S
H614 C582 0.929 . S
H615 C583 0.930 . S
Li616 N633 1.990 . S
Li616 O676 1.956 . S
Li616 O677 1.970 . S
Li616 O678 1.961 . S
Li617 N641 1.990 . S
Li617 O676 1.970 . S
Li617 O677 1.956 . S
Li617 O679 1.961 . S
Li618 N663 1.990 . S
Li618 O676 1.961 . S
Li618 O678 1.956 . S
Li618 O679 1.970 . S
Li619 N669 1.990 . S
Li619 O677 1.961 . S
Li619 O678 1.970 . S
Li619 O679 1.956 . S
C620 C622 1.348 . S
C620 C623 1.356 . S
C620 O676 1.325 . S
N621 C624 1.314 . S
N621 C625 1.279 . S
C622 C620 1.348 . S
C622 C624 1.353 . S
C622 H680 0.929 . S
C623 C620 1.356 . S
C623 C625 1.358 . S
C623 H681 0.930 . S
C624 N621 1.314 . S
C624 C622 1.353 . S
C624 H682 0.930 . S
C625 N621 1.279 . S
C625 C623 1.358 . S
C625 H683 0.930 . S
C626 C629 1.348 . S
C626 C630 1.356 . S
C626 O677 1.325 . S
C627 N628 1.279 . S
C627 C630 1.358 . S
C627 H684 0.930 . S
N628 C627 1.279 . S
N628 C631 1.314 . S
C629 C626 1.348 . S
C629 C631 1.353 . S
C629 H685 0.929 . S
C630 C626 1.356 . S
C630 C627 1.358 . S
C630 H686 0.930 . S
C631 N628 1.314 . S
C631 C629 1.353 . S
C631 H687 0.930 . S
C632 N633 1.314 . S
C632 C637 1.353 . S
C632 H638 0.930 . S
N633 Li616 1.990 . S
N633 C632 1.314 . S
N633 C635 1.279 . S
C634 C635 1.358 . S
C634 C636 1.356 . S
C634 H688 0.930 . S
C635 N633 1.279 . S
C635 C634 1.358 . S
C635 H639 0.930 . S
C636 C634 1.356 . S
C636 C637 1.348 . S
C637 C632 1.353 . S
C637 C636 1.348 . S
C637 H689 0.929 . S
H638 C632 0.930 . S
H639 C635 0.930 . S
C640 N641 1.314 . S
C640 C642 1.353 . S
C640 H646 0.930 . S
N641 Li617 1.990 . S
N641 C640 1.314 . S
N641 C644 1.279 . S
C642 C640 1.353 . S
C642 C645 1.348 . S
C642 H690 0.929 . S
C643 C644 1.358 . S
C643 C645 1.356 . S
C643 H691 0.930 . S
C644 N641 1.279 . S
C644 C643 1.358 . S
C644 H647 0.930 . S
C645 C642 1.348 . S
C645 C643 1.356 . S
H646 C640 0.930 . S
H647 C644 0.930 . S
C648 C650 1.348 . S
C648 C651 1.356 . S
C648 O678 1.325 . S
N649 C652 1.314 . S
N649 C653 1.279 . S
C650 C648 1.348 . S
C650 C652 1.353 . S
C650 H692 0.929 . S
C651 C648 1.356 . S
C651 C653 1.358 . S
C651 H693 0.930 . S
C652 N649 1.314 . S
C652 C650 1.353 . S
C652 H694 0.930 . S
C653 N649 1.279 . S
C653 C651 1.358 . S
C653 H695 0.930 . S
C654 C655 1.348 . S
C654 C656 1.356 . S
C654 O679 1.325 . S
C655 C654 1.348 . S
C655 C657 1.353 . S
C655 H696 0.929 . S
C656 C654 1.356 . S
C656 C658 1.358 . S
C656 H697 0.930 . S
C657 C655 1.353 . S
C657 N659 1.314 . S
C657 H698 0.930 . S
C658 C656 1.358 . S
C658 N659 1.279 . S
C658 H699 0.930 . S
N659 C657 1.314 . S
N659 C658 1.279 . S
C660 C662 1.353 . S
C660 N663 1.314 . S
C660 H666 0.930 . S
C661 N663 1.279 . S
C661 C664 1.358 . S
C661 H667 0.930 . S
C662 C660 1.353 . S
C662 C665 1.348 . S
C662 H700 0.929 . S
N663 Li618 1.990 . S
N663 C660 1.314 . S
N663 C661 1.279 . S
C664 C661 1.358 . S
C664 C665 1.356 . S
C664 H701 0.930 . S
C665 C662 1.348 . S
C665 C664 1.356 . S
H666 C660 0.930 . S
H667 C661 0.930 . S
C668 N669 1.314 . S
C668 C670 1.353 . S
C668 H674 0.930 . S
N669 Li619 1.990 . S
N669 C668 1.314 . S
N669 C672 1.279 . S
C670 C668 1.353 . S
C670 C673 1.348 . S
C670 H702 0.929 . S
C671 C672 1.358 . S
C671 C673 1.356 . S
C671 H703 0.930 . S
C672 N669 1.279 . S
C672 C671 1.358 . S
C672 H675 0.930 . S
C673 C670 1.348 . S
C673 C671 1.356 . S
H674 C668 0.930 . S
H675 C672 0.930 . S
O676 Li616 1.956 . S
O676 Li617 1.970 . S
O676 Li618 1.961 . S
O676 C620 1.325 . S
O677 Li616 1.970 . S
O677 Li617 1.956 . S
O677 Li619 1.961 . S
O677 C626 1.325 . S
O678 Li616 1.961 . S
O678 Li618 1.956 . S
O678 Li619 1.970 . S
O678 C648 1.325 . S
O679 Li617 1.961 . S
O679 Li618 1.970 . S
O679 Li619 1.956 . S
O679 C654 1.325 . S
H680 C622 0.929 . S
H681 C623 0.930 . S
H682 C624 0.930 . S
H683 C625 0.930 . S
H684 C627 0.930 . S
H685 C629 0.929 . S
H686 C630 0.930 . S
H687 C631 0.930 . S
H688 C634 0.930 . S
H689 C637 0.929 . S
H690 C642 0.929 . S
H691 C643 0.930 . S
H692 C650 0.929 . S
H693 C651 0.930 . S
H694 C652 0.930 . S
H695 C653 0.930 . S
H696 C655 0.929 . S
H697 C656 0.930 . S
H698 C657 0.930 . S
H699 C658 0.930 . S
H700 C662 0.929 . S
H701 C664 0.930 . S
H702 C670 0.929 . S
H703 C671 0.930 . S
Li704 N721 1.990 . S
Li704 O764 1.956 . S
Li704 O765 1.970 . S
Li704 O766 1.961 . S
Li705 N729 1.990 . S
Li705 O764 1.970 . S
Li705 O765 1.956 . S
Li705 O767 1.961 . S
Li706 N751 1.990 . S
Li706 O764 1.961 . S
Li706 O766 1.956 . S
Li706 O767 1.970 . S
Li707 N757 1.990 . S
Li707 O765 1.961 . S
Li707 O766 1.970 . S
Li707 O767 1.956 . S
C708 C710 1.348 . S
C708 C711 1.356 . S
C708 O764 1.325 . S
N709 C712 1.314 . S
N709 C713 1.279 . S
C710 C708 1.348 . S
C710 C712 1.353 . S
C710 H768 0.929 . S
C711 C708 1.356 . S
C711 C713 1.358 . S
C711 H769 0.930 . S
C712 N709 1.314 . S
C712 C710 1.353 . S
C712 H770 0.930 . S
C713 N709 1.279 . S
C713 C711 1.358 . S
C713 H771 0.930 . S
C714 C717 1.348 . S
C714 C718 1.356 . S
C714 O765 1.325 . S
C715 N716 1.279 . S
C715 C718 1.358 1_565 S
C715 H772 0.930 . S
N716 C715 1.279 . S
N716 C719 1.314 . S
C717 C714 1.348 . S
C717 C719 1.353 1_545 S
C717 H773 0.929 . S
C718 C714 1.356 . S
C718 C715 1.358 1_545 S
C718 H774 0.930 . S
C719 N716 1.314 . S
C719 C717 1.353 1_565 S
C719 H775 0.930 . S
C720 N721 1.314 . S
C720 C725 1.353 . S
C720 H726 0.930 . S
N721 Li704 1.990 . S
N721 C720 1.314 . S
N721 C723 1.279 . S
C722 C723 1.358 . S
C722 C724 1.356 . S
C722 H776 0.930 . S
C723 N721 1.279 . S
C723 C722 1.358 . S
C723 H727 0.930 . S
C724 C722 1.356 . S
C724 C725 1.348 . S
C725 C720 1.353 . S
C725 C724 1.348 . S
C725 H777 0.929 . S
H726 C720 0.930 . S
H727 C723 0.930 . S
C728 N729 1.314 . S
C728 C730 1.353 . S
C728 H734 0.930 . S
N729 Li705 1.990 . S
N729 C728 1.314 . S
N729 C732 1.279 . S
C730 C728 1.353 . S
C730 C733 1.348 . S
C730 H778 0.929 . S
C731 C732 1.358 . S
C731 C733 1.356 . S
C731 H779 0.930 . S
C732 N729 1.279 . S
C732 C731 1.358 . S
C732 H735 0.930 . S
C733 C730 1.348 . S
C733 C731 1.356 . S
H734 C728 0.930 . S
H735 C732 0.930 . S
C736 C738 1.348 . S
C736 C739 1.356 . S
C736 O766 1.325 . S
N737 C740 1.314 . S
N737 C741 1.279 . S
C738 C736 1.348 . S
C738 C740 1.353 . S
C738 H780 0.929 . S
C739 C736 1.356 . S
C739 C741 1.358 . S
C739 H781 0.930 . S
C740 N737 1.314 . S
C740 C738 1.353 . S
C740 H782 0.930 . S
C741 N737 1.279 . S
C741 C739 1.358 . S
C741 H783 0.930 . S
C742 C743 1.348 . S
C742 C744 1.356 . S
C742 O767 1.325 . S
C743 C742 1.348 . S
C743 C745 1.353 . S
C743 H784 0.929 . S
C744 C742 1.356 . S
C744 C746 1.358 . S
C744 H785 0.930 . S
C745 C743 1.353 . S
C745 N747 1.314 . S
C745 H786 0.930 . S
C746 C744 1.358 . S
C746 N747 1.279 . S
C746 H787 0.930 . S
N747 C745 1.314 . S
N747 C746 1.279 . S
C748 C750 1.353 . S
C748 N751 1.314 . S
C748 H754 0.930 . S
C749 N751 1.279 . S
C749 C752 1.358 . S
C749 H755 0.930 . S
C750 C748 1.353 . S
C750 C753 1.348 . S
C750 H788 0.929 . S
N751 Li706 1.990 . S
N751 C748 1.314 . S
N751 C749 1.279 . S
C752 C749 1.358 . S
C752 C753 1.356 . S
C752 H789 0.930 . S
C753 C750 1.348 . S
C753 C752 1.356 . S
H754 C748 0.930 . S
H755 C749 0.930 . S
C756 N757 1.314 1_565 S
C756 C758 1.353 . S
C756 H762 0.930 . S
N757 Li707 1.990 . S
N757 C756 1.314 1_545 S
N757 C760 1.279 . S
C758 C756 1.353 . S
C758 C761 1.348 . S
C758 H790 0.929 . S
C759 C760 1.358 1_565 S
C759 C761 1.356 . S
C759 H791 0.930 . S
C760 N757 1.279 . S
C760 C759 1.358 1_545 S
C760 H763 0.930 . S
C761 C758 1.348 . S
C761 C759 1.356 . S
H762 C756 0.930 . S
H763 C760 0.930 . S
O764 Li704 1.956 . S
O764 Li705 1.970 . S
O764 Li706 1.961 . S
O764 C708 1.325 . S
O765 Li704 1.970 . S
O765 Li705 1.956 . S
O765 Li707 1.961 . S
O765 C714 1.325 . S
O766 Li704 1.961 . S
O766 Li706 1.956 . S
O766 Li707 1.970 . S
O766 C736 1.325 . S
O767 Li705 1.961 . S
O767 Li706 1.970 . S
O767 Li707 1.956 . S
O767 C742 1.325 . S
H768 C710 0.929 . S
H769 C711 0.930 . S
H770 C712 0.930 . S
H771 C713 0.930 . S
H772 C715 0.930 . S
H773 C717 0.929 . S
H774 C718 0.930 . S
H775 C719 0.930 . S
H776 C722 0.930 . S
H777 C725 0.929 . S
H778 C730 0.929 . S
H779 C731 0.930 . S
H780 C738 0.929 . S
H781 C739 0.930 . S
H782 C740 0.930 . S
H783 C741 0.930 . S
H784 C743 0.929 . S
H785 C744 0.930 . S
H786 C745 0.930 . S
H787 C746 0.930 . S
H788 C750 0.929 . S
H789 C752 0.930 . S
H790 C758 0.929 . S
H791 C759 0.930 . S
Li792 N809 1.990 . S
Li792 O852 1.956 . S
Li792 O853 1.970 . S
Li792 O854 1.961 . S
Li793 N817 1.990 . S
Li793 O852 1.970 . S
Li793 O853 1.956 . S
Li793 O855 1.961 . S
Li794 N839 1.990 . S
Li794 O852 1.961 . S
Li794 O854 1.956 . S
Li794 O855 1.970 . S
Li795 N845 1.990 . S
Li795 O853 1.961 . S
Li795 O854 1.970 . S
Li795 O855 1.956 . S
C796 C798 1.348 . S
C796 C799 1.356 . S
C796 O852 1.325 . S
N797 C800 1.314 . S
N797 C801 1.279 . S
C798 C796 1.348 . S
C798 C800 1.353 . S
C798 H856 0.929 . S
C799 C796 1.356 . S
C799 C801 1.358 . S
C799 H857 0.930 . S
C800 N797 1.314 . S
C800 C798 1.353 . S
C800 H858 0.930 . S
C801 N797 1.279 . S
C801 C799 1.358 . S
C801 H859 0.930 . S
C802 C805 1.348 . S
C802 C806 1.356 . S
C802 O853 1.325 . S
C803 N804 1.279 . S
C803 C806 1.358 . S
C803 H860 0.930 . S
N804 C803 1.279 . S
N804 C807 1.314 . S
C805 C802 1.348 . S
C805 C807 1.353 . S
C805 H861 0.929 . S
C806 C802 1.356 . S
C806 C803 1.358 . S
C806 H862 0.930 . S
C807 N804 1.314 . S
C807 C805 1.353 . S
C807 H863 0.930 . S
C808 N809 1.314 . S
C808 C813 1.353 . S
C808 H814 0.930 . S
N809 Li792 1.990 . S
N809 C808 1.314 . S
N809 C811 1.279 . S
C810 C811 1.358 . S
C810 C812 1.356 . S
C810 H864 0.930 . S
C811 N809 1.279 . S
C811 C810 1.358 . S
C811 H815 0.930 . S
C812 C810 1.356 . S
C812 C813 1.348 . S
C813 C808 1.353 . S
C813 C812 1.348 . S
C813 H865 0.929 . S
H814 C808 0.930 . S
H815 C811 0.930 . S
C816 N817 1.314 1_565 S
C816 C818 1.353 . S
C816 H822 0.930 . S
N817 Li793 1.990 . S
N817 C816 1.314 1_545 S
N817 C820 1.279 . S
C818 C816 1.353 . S
C818 C821 1.348 . S
C818 H866 0.929 . S
C819 C820 1.358 1_565 S
C819 C821 1.356 . S
C819 H867 0.930 . S
C820 N817 1.279 . S
C820 C819 1.358 1_545 S
C820 H823 0.930 . S
C821 C818 1.348 . S
C821 C819 1.356 . S
H822 C816 0.930 . S
H823 C820 0.930 . S
C824 C826 1.348 . S
C824 C827 1.356 . S
C824 O854 1.325 . S
N825 C828 1.314 . S
N825 C829 1.279 . S
C826 C824 1.348 . S
C826 C828 1.353 . S
C826 H868 0.929 . S
C827 C824 1.356 . S
C827 C829 1.358 . S
C827 H869 0.930 . S
C828 N825 1.314 . S
C828 C826 1.353 . S
C828 H870 0.930 . S
C829 N825 1.279 . S
C829 C827 1.358 . S
C829 H871 0.930 . S
C830 C831 1.348 . S
C830 C832 1.356 . S
C830 O855 1.325 . S
C831 C830 1.348 . S
C831 C833 1.353 1_545 S
C831 H872 0.929 . S
C832 C830 1.356 . S
C832 C834 1.358 1_545 S
C832 H873 0.930 . S
C833 C831 1.353 1_565 S
C833 N835 1.314 . S
C833 H874 0.930 . S
C834 C832 1.358 1_565 S
C834 N835 1.279 . S
C834 H875 0.930 . S
N835 C833 1.314 . S
N835 C834 1.279 . S
C836 C838 1.353 . S
C836 N839 1.314 . S
C836 H842 0.930 . S
C837 N839 1.279 . S
C837 C840 1.358 . S
C837 H843 0.930 . S
C838 C836 1.353 . S
C838 C841 1.348 . S
C838 H876 0.929 . S
N839 Li794 1.990 . S
N839 C836 1.314 . S
N839 C837 1.279 . S
C840 C837 1.358 . S
C840 C841 1.356 . S
C840 H877 0.930 . S
C841 C838 1.348 . S
C841 C840 1.356 . S
H842 C836 0.930 . S
H843 C837 0.930 . S
C844 N845 1.314 . S
C844 C846 1.353 . S
C844 H850 0.930 . S
N845 Li795 1.990 . S
N845 C844 1.314 . S
N845 C848 1.279 . S
C846 C844 1.353 . S
C846 C849 1.348 . S
C846 H878 0.929 . S
C847 C848 1.358 . S
C847 C849 1.356 . S
C847 H879 0.930 . S
C848 N845 1.279 . S
C848 C847 1.358 . S
C848 H851 0.930 . S
C849 C846 1.348 . S
C849 C847 1.356 . S
H850 C844 0.930 . S
H851 C848 0.930 . S
O852 Li792 1.956 . S
O852 Li793 1.970 . S
O852 Li794 1.961 . S
O852 C796 1.325 . S
O853 Li792 1.970 . S
O853 Li793 1.956 . S
O853 Li795 1.961 . S
O853 C802 1.325 . S
O854 Li792 1.961 . S
O854 Li794 1.956 . S
O854 Li795 1.970 . S
O854 C824 1.325 . S
O855 Li793 1.961 . S
O855 Li794 1.970 . S
O855 Li795 1.956 . S
O855 C830 1.325 . S
H856 C798 0.929 . S
H857 C799 0.930 . S
H858 C800 0.930 . S
H859 C801 0.930 . S
H860 C803 0.930 . S
H861 C805 0.929 . S
H862 C806 0.930 . S
H863 C807 0.930 . S
H864 C810 0.930 . S
H865 C813 0.929 . S
H866 C818 0.929 . S
H867 C819 0.930 . S
H868 C826 0.929 . S
H869 C827 0.930 . S
H870 C828 0.930 . S
H871 C829 0.930 . S
H872 C831 0.929 . S
H873 C832 0.930 . S
H874 C833 0.930 . S
H875 C834 0.930 . S
H876 C838 0.929 . S
H877 C840 0.930 . S
H878 C846 0.929 . S
H879 C847 0.930 . S
Li880 N897 1.990 . S
Li880 O940 1.956 . S
Li880 O941 1.970 . S
Li880 O942 1.961 . S
Li881 N905 1.990 . S
Li881 O940 1.970 . S
Li881 O941 1.956 . S
Li881 O943 1.961 . S
Li882 N927 1.990 . S
Li882 O940 1.961 . S
Li882 O942 1.956 . S
Li882 O943 1.970 . S
Li883 N933 1.990 . S
Li883 O941 1.961 . S
Li883 O942 1.970 . S
Li883 O943 1.956 . S
C884 C886 1.348 . S
C884 C887 1.356 . S
C884 O940 1.325 . S
N885 C888 1.314 . S
N885 C889 1.279 . S
C886 C884 1.348 . S
C886 C888 1.353 . S
C886 H944 0.929 . S
C887 C884 1.356 . S
C887 C889 1.358 . S
C887 H945 0.930 . S
C888 N885 1.314 . S
C888 C886 1.353 . S
C888 H946 0.930 . S
C889 N885 1.279 . S
C889 C887 1.358 . S
C889 H947 0.930 . S
C890 C893 1.348 . S
C890 C894 1.356 . S
C890 O941 1.325 . S
C891 N892 1.279 . S
C891 C894 1.358 . S
C891 H948 0.930 . S
N892 C891 1.279 . S
N892 C895 1.314 . S
C893 C890 1.348 . S
C893 C895 1.353 . S
C893 H949 0.929 . S
C894 C890 1.356 . S
C894 C891 1.358 . S
C894 H950 0.930 . S
C895 N892 1.314 . S
C895 C893 1.353 . S
C895 H951 0.930 . S
C896 N897 1.314 . S
C896 C901 1.353 . S
C896 H902 0.930 . S
N897 Li880 1.990 . S
N897 C896 1.314 . S
N897 C899 1.279 . S
C898 C899 1.358 . S
C898 C900 1.356 . S
C898 H952 0.930 . S
C899 N897 1.279 . S
C899 C898 1.358 . S
C899 H903 0.930 . S
C900 C898 1.356 . S
C900 C901 1.348 . S
C901 C896 1.353 . S
C901 C900 1.348 . S
C901 H953 0.929 . S
H902 C896 0.930 . S
H903 C899 0.930 . S
C904 N905 1.314 . S
C904 C906 1.353 . S
C904 H910 0.930 . S
N905 Li881 1.990 . S
N905 C904 1.314 . S
N905 C908 1.279 . S
C906 C904 1.353 . S
C906 C909 1.348 . S
C906 H954 0.929 . S
C907 C908 1.358 . S
C907 C909 1.356 . S
C907 H955 0.930 . S
C908 N905 1.279 . S
C908 C907 1.358 . S
C908 H911 0.930 . S
C909 C906 1.348 . S
C909 C907 1.356 . S
H910 C904 0.930 . S
H911 C908 0.930 . S
C912 C914 1.348 . S
C912 C915 1.356 . S
C912 O942 1.325 . S
N913 C916 1.314 . S
N913 C917 1.279 . S
C914 C912 1.348 . S
C914 C916 1.353 1_565 S
C914 H956 0.929 . S
C915 C912 1.356 . S
C915 C917 1.358 1_565 S
C915 H957 0.930 . S
C916 N913 1.314 . S
C916 C914 1.353 1_545 S
C916 H958 0.930 . S
C917 N913 1.279 . S
C917 C915 1.358 1_545 S
C917 H959 0.930 . S
C918 C919 1.348 . S
C918 C920 1.356 . S
C918 O943 1.325 . S
C919 C918 1.348 . S
C919 C921 1.353 . S
C919 H960 0.929 . S
C920 C918 1.356 . S
C920 C922 1.358 . S
C920 H961 0.930 . S
C921 C919 1.353 . S
C921 N923 1.314 . S
C921 H962 0.930 . S
C922 C920 1.358 . S
C922 N923 1.279 . S
C922 H963 0.930 . S
N923 C921 1.314 . S
N923 C922 1.279 . S
C924 C926 1.353 1_565 S
C924 N927 1.314 . S
C924 H930 0.930 . S
C925 N927 1.279 1_545 S
C925 C928 1.358 . S
C925 H931 0.930 . S
C926 C924 1.353 1_545 S
C926 C929 1.348 . S
C926 H964 0.931 . S
N927 Li882 1.990 . S
N927 C924 1.314 . S
N927 C925 1.279 1_565 S
C928 C925 1.358 . S
C928 C929 1.356 . S
C928 H965 0.930 . S
C929 C926 1.348 . S
C929 C928 1.356 . S
H930 C924 0.930 . S
H931 C925 0.930 . S
C932 N933 1.314 . S
C932 C934 1.353 . S
C932 H938 0.930 . S
N933 Li883 1.990 . S
N933 C932 1.314 . S
N933 C936 1.279 . S
C934 C932 1.353 . S
C934 C937 1.348 . S
C934 H966 0.929 . S
C935 C936 1.358 . S
C935 C937 1.356 . S
C935 H967 0.930 . S
C936 N933 1.279 . S
C936 C935 1.358 . S
C936 H939 0.930 . S
C937 C934 1.348 . S
C937 C935 1.356 . S
H938 C932 0.930 . S
H939 C936 0.930 . S
O940 Li880 1.956 . S
O940 Li881 1.970 . S
O940 Li882 1.961 . S
O940 C884 1.325 . S
O941 Li880 1.970 . S
O941 Li881 1.956 . S
O941 Li883 1.961 . S
O941 C890 1.325 . S
O942 Li880 1.961 . S
O942 Li882 1.956 . S
O942 Li883 1.970 . S
O942 C912 1.325 . S
O943 Li881 1.961 . S
O943 Li882 1.970 . S
O943 Li883 1.956 . S
O943 C918 1.325 . S
H944 C886 0.929 . S
H945 C887 0.930 . S
H946 C888 0.930 . S
H947 C889 0.930 . S
H948 C891 0.930 . S
H949 C893 0.929 . S
H950 C894 0.930 . S
H951 C895 0.930 . S
H952 C898 0.930 . S
H953 C901 0.929 . S
H954 C906 0.929 . S
H955 C907 0.930 . S
H956 C914 0.929 . S
H957 C915 0.930 . S
H958 C916 0.930 . S
H959 C917 0.930 . S
H960 C919 0.929 . S
H961 C920 0.930 . S
H962 C921 0.930 . S
H963 C922 0.930 . S
H964 C926 0.931 . S
H965 C928 0.930 . S
H966 C934 0.929 . S
H967 C935 0.930 . S
Li968 N985 1.990 . S
Li968 O1028 1.956 . S
Li968 O1029 1.970 . S
Li968 O1030 1.961 . S
Li969 N993 1.990 . S
Li969 O1028 1.970 . S
Li969 O1029 1.956 . S
Li969 O1031 1.961 . S
Li970 N1015 1.990 . S
Li970 O1028 1.961 . S
Li970 O1030 1.956 . S
Li970 O1031 1.970 . S
Li971 N1021 1.990 . S
Li971 O1029 1.961 . S
Li971 O1030 1.970 . S
Li971 O1031 1.956 . S
C972 C974 1.348 . S
C972 C975 1.356 . S
C972 O1028 1.325 . S
N973 C976 1.314 . S
N973 C977 1.279 . S
C974 C972 1.348 . S
C974 C976 1.353 1_565 S
C974 H1032 0.929 . S
C975 C972 1.356 . S
C975 C977 1.358 1_565 S
C975 H1033 0.930 . S
C976 N973 1.314 . S
C976 C974 1.353 1_545 S
C976 H1034 0.930 . S
C977 N973 1.279 . S
C977 C975 1.358 1_545 S
C977 H1035 0.930 . S
C978 C981 1.348 . S
C978 C982 1.356 . S
C978 O1029 1.325 . S
C979 N980 1.279 . S
C979 C982 1.358 . S
C979 H1036 0.930 . S
N980 C979 1.279 . S
N980 C983 1.314 . S
C981 C978 1.348 . S
C981 C983 1.353 . S
C981 H1037 0.929 . S
C982 C978 1.356 . S
C982 C979 1.358 . S
C982 H1038 0.930 . S
C983 N980 1.314 . S
C983 C981 1.353 . S
C983 H1039 0.930 . S
C984 N985 1.314 . S
C984 C989 1.353 1_565 S
C984 H990 0.930 . S
N985 Li968 1.990 . S
N985 C984 1.314 . S
N985 C987 1.279 1_565 S
C986 C987 1.358 . S
C986 C988 1.356 . S
C986 H1040 0.930 . S
C987 N985 1.279 1_545 S
C987 C986 1.358 . S
C987 H991 0.930 . S
C988 C986 1.356 . S
C988 C989 1.348 . S
C989 C984 1.353 1_545 S
C989 C988 1.348 . S
C989 H1041 0.931 . S
H990 C984 0.930 . S
H991 C987 0.930 . S
C992 N993 1.314 . S
C992 C994 1.353 . S
C992 H998 0.930 . S
N993 Li969 1.990 . S
N993 C992 1.314 . S
N993 C996 1.279 . S
C994 C992 1.353 . S
C994 C997 1.348 . S
C994 H1042 0.929 . S
C995 C996 1.358 . S
C995 C997 1.356 . S
C995 H1043 0.930 . S
C996 N993 1.279 . S
C996 C995 1.358 . S
C996 H999 0.930 . S
C997 C994 1.348 . S
C997 C995 1.356 . S
H998 C992 0.930 . S
H999 C996 0.930 . S
C1000 C1002 1.348 . S
C1000 C1003 1.356 . S
C1000 O1030 1.325 . S
N1001 C1004 1.314 . S
N1001 C1005 1.279 . S
C1002 C1000 1.348 . S
C1002 C1004 1.353 . S
C1002 H1044 0.929 . S
C1003 C1000 1.356 . S
C1003 C1005 1.358 . S
C1003 H1045 0.930 . S
C1004 N1001 1.314 . S
C1004 C1002 1.353 . S
C1004 H1046 0.930 . S
C1005 N1001 1.279 . S
C1005 C1003 1.358 . S
C1005 H1047 0.930 . S
C1006 C1007 1.348 . S
C1006 C1008 1.356 . S
C1006 O1031 1.325 . S
C1007 C1006 1.348 . S
C1007 C1009 1.353 . S
C1007 H1048 0.929 . S
C1008 C1006 1.356 . S
C1008 C1010 1.358 . S
C1008 H1049 0.930 . S
C1009 C1007 1.353 . S
C1009 N1011 1.314 . S
C1009 H1050 0.930 . S
C1010 C1008 1.358 . S
C1010 N1011 1.279 . S
C1010 H1051 0.930 . S
N1011 C1009 1.314 . S
N1011 C1010 1.279 . S
C1012 C1014 1.353 . S
C1012 N1015 1.314 . S
C1012 H1018 0.930 . S
C1013 N1015 1.279 . S
C1013 C1016 1.358 . S
C1013 H1019 0.930 . S
C1014 C1012 1.353 . S
C1014 C1017 1.348 . S
C1014 H1052 0.929 . S
N1015 Li970 1.990 . S
N1015 C1012 1.314 . S
N1015 C1013 1.279 . S
C1016 C1013 1.358 . S
C1016 C1017 1.356 . S
C1016 H1053 0.930 . S
C1017 C1014 1.348 . S
C1017 C1016 1.356 . S
H1018 C1012 0.930 . S
H1019 C1013 0.930 . S
C1020 N1021 1.314 . S
C1020 C1022 1.353 . S
C1020 H1026 0.930 . S
N1021 Li971 1.990 . S
N1021 C1020 1.314 . S
N1021 C1024 1.279 . S
C1022 C1020 1.353 . S
C1022 C1025 1.348 . S
C1022 H1054 0.929 . S
C1023 C1024 1.358 . S
C1023 C1025 1.356 . S
C1023 H1055 0.930 . S
C1024 N1021 1.279 . S
C1024 C1023 1.358 . S
C1024 H1027 0.930 . S
C1025 C1022 1.348 . S
C1025 C1023 1.356 . S
H1026 C1020 0.930 . S
H1027 C1024 0.930 . S
O1028 Li968 1.956 . S
O1028 Li969 1.970 . S
O1028 Li970 1.961 . S
O1028 C972 1.325 . S
O1029 Li968 1.970 . S
O1029 Li969 1.956 . S
O1029 Li971 1.961 . S
O1029 C978 1.325 . S
O1030 Li968 1.961 . S
O1030 Li970 1.956 . S
O1030 Li971 1.970 . S
O1030 C1000 1.325 . S
O1031 Li969 1.961 . S
O1031 Li970 1.970 . S
O1031 Li971 1.956 . S
O1031 C1006 1.325 . S
H1032 C974 0.929 . S
H1033 C975 0.930 . S
H1034 C976 0.930 . S
H1035 C977 0.930 . S
H1036 C979 0.930 . S
H1037 C981 0.929 . S
H1038 C982 0.930 . S
H1039 C983 0.930 . S
H1040 C986 0.930 . S
H1041 C989 0.931 . S
H1042 C994 0.929 . S
H1043 C995 0.930 . S
H1044 C1002 0.929 . S
H1045 C1003 0.930 . S
H1046 C1004 0.930 . S
H1047 C1005 0.930 . S
H1048 C1007 0.929 . S
H1049 C1008 0.930 . S
H1050 C1009 0.930 . S
H1051 C1010 0.930 . S
H1052 C1014 0.929 . S
H1053 C1016 0.930 . S
H1054 C1022 0.929 . S
H1055 C1023 0.930 . S
Li1056 N1073 1.990 . S
Li1056 O1116 1.956 . S
Li1056 O1117 1.970 . S
Li1056 O1118 1.961 . S
Li1057 N1081 1.990 . S
Li1057 O1116 1.970 . S
Li1057 O1117 1.956 . S
Li1057 O1119 1.961 . S
Li1058 N1103 1.990 . S
Li1058 O1116 1.961 . S
Li1058 O1118 1.956 . S
Li1058 O1119 1.970 . S
Li1059 N1109 1.990 . S
Li1059 O1117 1.961 . S
Li1059 O1118 1.970 . S
Li1059 O1119 1.956 . S
C1060 C1062 1.348 . S
C1060 C1063 1.356 . S
C1060 O1116 1.325 . S
N1061 C1064 1.314 . S
N1061 C1065 1.279 . S
C1062 C1060 1.348 . S
C1062 C1064 1.353 . S
C1062 H1120 0.929 . S
C1063 C1060 1.356 . S
C1063 C1065 1.358 . S
C1063 H1121 0.930 . S
C1064 N1061 1.314 . S
C1064 C1062 1.353 . S
C1064 H1122 0.930 . S
C1065 N1061 1.279 . S
C1065 C1063 1.358 . S
C1065 H1123 0.930 . S
C1066 C1069 1.348 . S
C1066 C1070 1.356 . S
C1066 O1117 1.325 . S
C1067 N1068 1.279 . S
C1067 C1070 1.358 . S
C1067 H1124 0.930 . S
N1068 C1067 1.279 . S
N1068 C1071 1.314 . S
C1069 C1066 1.348 . S
C1069 C1071 1.353 . S
C1069 H1125 0.929 . S
C1070 C1066 1.356 . S
C1070 C1067 1.358 . S
C1070 H1126 0.930 . S
C1071 N1068 1.314 . S
C1071 C1069 1.353 . S
C1071 H1127 0.930 . S
C1072 N1073 1.314 . S
C1072 C1077 1.353 . S
C1072 H1078 0.930 . S
N1073 Li1056 1.990 . S
N1073 C1072 1.314 . S
N1073 C1075 1.279 . S
C1074 C1075 1.358 . S
C1074 C1076 1.356 . S
C1074 H1128 0.930 . S
C1075 N1073 1.279 . S
C1075 C1074 1.358 . S
C1075 H1079 0.930 . S
C1076 C1074 1.356 . S
C1076 C1077 1.348 . S
C1077 C1072 1.353 . S
C1077 C1076 1.348 . S
C1077 H1129 0.929 . S
H1078 C1072 0.930 . S
H1079 C1075 0.930 . S
C1080 N1081 1.314 . S
C1080 C1082 1.353 . S
C1080 H1086 0.930 . S
N1081 Li1057 1.990 . S
N1081 C1080 1.314 . S
N1081 C1084 1.279 . S
C1082 C1080 1.353 . S
C1082 C1085 1.348 . S
C1082 H1130 0.929 . S
C1083 C1084 1.358 . S
C1083 C1085 1.356 . S
C1083 H1131 0.930 . S
C1084 N1081 1.279 . S
C1084 C1083 1.358 . S
C1084 H1087 0.930 . S
C1085 C1082 1.348 . S
C1085 C1083 1.356 . S
H1086 C1080 0.930 . S
H1087 C1084 0.930 . S
C1088 C1090 1.348 . S
C1088 C1091 1.356 . S
C1088 O1118 1.325 . S
N1089 C1092 1.314 . S
N1089 C1093 1.279 . S
C1090 C1088 1.348 . S
C1090 C1092 1.353 . S
C1090 H1132 0.929 . S
C1091 C1088 1.356 . S
C1091 C1093 1.358 . S
C1091 H1133 0.930 . S
C1092 N1089 1.314 . S
C1092 C1090 1.353 . S
C1092 H1134 0.930 . S
C1093 N1089 1.279 . S
C1093 C1091 1.358 . S
C1093 H1135 0.930 . S
C1094 C1095 1.348 . S
C1094 C1096 1.356 . S
C1094 O1119 1.325 . S
C1095 C1094 1.348 . S
C1095 C1097 1.353 . S
C1095 H1136 0.929 . S
C1096 C1094 1.356 . S
C1096 C1098 1.358 . S
C1096 H1137 0.930 . S
C1097 C1095 1.353 . S
C1097 N1099 1.314 . S
C1097 H1138 0.930 . S
C1098 C1096 1.358 . S
C1098 N1099 1.279 . S
C1098 H1139 0.930 . S
N1099 C1097 1.314 . S
N1099 C1098 1.279 . S
C1100 C1102 1.353 . S
C1100 N1103 1.314 . S
C1100 H1106 0.930 . S
C1101 N1103 1.279 . S
C1101 C1104 1.358 . S
C1101 H1107 0.930 . S
C1102 C1100 1.353 . S
C1102 C1105 1.348 . S
C1102 H1140 0.929 . S
N1103 Li1058 1.990 . S
N1103 C1100 1.314 . S
N1103 C1101 1.279 . S
C1104 C1101 1.358 . S
C1104 C1105 1.356 . S
C1104 H1141 0.930 . S
C1105 C1102 1.348 . S
C1105 C1104 1.356 . S
H1106 C1100 0.930 . S
H1107 C1101 0.930 . S
C1108 N1109 1.314 . S
C1108 C1110 1.353 . S
C1108 H1114 0.930 . S
N1109 Li1059 1.990 . S
N1109 C1108 1.314 . S
N1109 C1112 1.279 . S
C1110 C1108 1.353 . S
C1110 C1113 1.348 . S
C1110 H1142 0.929 . S
C1111 C1112 1.358 . S
C1111 C1113 1.356 . S
C1111 H1143 0.930 . S
C1112 N1109 1.279 . S
C1112 C1111 1.358 . S
C1112 H1115 0.930 . S
C1113 C1110 1.348 . S
C1113 C1111 1.356 . S
H1114 C1108 0.930 . S
H1115 C1112 0.930 . S
O1116 Li1056 1.956 . S
O1116 Li1057 1.970 . S
O1116 Li1058 1.961 . S
O1116 C1060 1.325 . S
O1117 Li1056 1.970 . S
O1117 Li1057 1.956 . S
O1117 Li1059 1.961 . S
O1117 C1066 1.325 . S
O1118 Li1056 1.961 . S
O1118 Li1058 1.956 . S
O1118 Li1059 1.970 . S
O1118 C1088 1.325 . S
O1119 Li1057 1.961 . S
O1119 Li1058 1.970 . S
O1119 Li1059 1.956 . S
O1119 C1094 1.325 . S
H1120 C1062 0.929 . S
H1121 C1063 0.930 . S
H1122 C1064 0.930 . S
H1123 C1065 0.930 . S
H1124 C1067 0.930 . S
H1125 C1069 0.929 . S
H1126 C1070 0.930 . S
H1127 C1071 0.930 . S
H1128 C1074 0.930 . S
H1129 C1077 0.929 . S
H1130 C1082 0.929 . S
H1131 C1083 0.930 . S
H1132 C1090 0.929 . S
H1133 C1091 0.930 . S
H1134 C1092 0.930 . S
H1135 C1093 0.930 . S
H1136 C1095 0.929 . S
H1137 C1096 0.930 . S
H1138 C1097 0.930 . S
H1139 C1098 0.930 . S
H1140 C1102 0.929 . S
H1141 C1104 0.930 . S
H1142 C1110 0.929 . S
H1143 C1111 0.930 . S
Li1144 N1161 1.990 . S
Li1144 O1204 1.956 . S
Li1144 O1205 1.970 . S
Li1144 O1206 1.961 . S
Li1145 N1169 1.990 . S
Li1145 O1204 1.970 . S
Li1145 O1205 1.956 . S
Li1145 O1207 1.961 . S
Li1146 N1191 1.990 . S
Li1146 O1204 1.961 . S
Li1146 O1206 1.956 . S
Li1146 O1207 1.970 . S
Li1147 N1197 1.990 . S
Li1147 O1205 1.961 . S
Li1147 O1206 1.970 . S
Li1147 O1207 1.956 . S
C1148 C1150 1.348 . S
C1148 C1151 1.356 . S
C1148 O1204 1.325 . S
N1149 C1152 1.314 . S
N1149 C1153 1.279 . S
C1150 C1148 1.348 . S
C1150 C1152 1.353 . S
C1150 H1208 0.929 . S
C1151 C1148 1.356 . S
C1151 C1153 1.358 . S
C1151 H1209 0.930 . S
C1152 N1149 1.314 . S
C1152 C1150 1.353 . S
C1152 H1210 0.930 . S
C1153 N1149 1.279 . S
C1153 C1151 1.358 . S
C1153 H1211 0.930 . S
C1154 C1157 1.348 . S
C1154 C1158 1.356 . S
C1154 O1205 1.325 . S
C1155 N1156 1.279 . S
C1155 C1158 1.358 . S
C1155 H1212 0.930 . S
N1156 C1155 1.279 . S
N1156 C1159 1.314 . S
C1157 C1154 1.348 . S
C1157 C1159 1.353 . S
C1157 H1213 0.929 . S
C1158 C1154 1.356 . S
C1158 C1155 1.358 . S
C1158 H1214 0.930 . S
C1159 N1156 1.314 . S
C1159 C1157 1.353 . S
C1159 H1215 0.930 . S
C1160 N1161 1.314 . S
C1160 C1165 1.353 . S
C1160 H1166 0.930 . S
N1161 Li1144 1.990 . S
N1161 C1160 1.314 . S
N1161 C1163 1.279 . S
C1162 C1163 1.358 . S
C1162 C1164 1.356 . S
C1162 H1216 0.930 . S
C1163 N1161 1.279 . S
C1163 C1162 1.358 . S
C1163 H1167 0.930 . S
C1164 C1162 1.356 . S
C1164 C1165 1.348 . S
C1165 C1160 1.353 . S
C1165 C1164 1.348 . S
C1165 H1217 0.929 . S
H1166 C1160 0.930 . S
H1167 C1163 0.930 . S
C1168 N1169 1.314 . S
C1168 C1170 1.353 . S
C1168 H1174 0.930 . S
N1169 Li1145 1.990 . S
N1169 C1168 1.314 . S
N1169 C1172 1.279 . S
C1170 C1168 1.353 . S
C1170 C1173 1.348 . S
C1170 H1218 0.929 . S
C1171 C1172 1.358 . S
C1171 C1173 1.356 . S
C1171 H1219 0.930 . S
C1172 N1169 1.279 . S
C1172 C1171 1.358 . S
C1172 H1175 0.930 . S
C1173 C1170 1.348 . S
C1173 C1171 1.356 . S
H1174 C1168 0.930 . S
H1175 C1172 0.930 . S
C1176 C1178 1.348 . S
C1176 C1179 1.356 . S
C1176 O1206 1.325 . S
N1177 C1180 1.314 . S
N1177 C1181 1.279 . S
C1178 C1176 1.348 . S
C1178 C1180 1.353 . S
C1178 H1220 0.929 . S
C1179 C1176 1.356 . S
C1179 C1181 1.358 . S
C1179 H1221 0.930 . S
C1180 N1177 1.314 . S
C1180 C1178 1.353 . S
C1180 H1222 0.930 . S
C1181 N1177 1.279 . S
C1181 C1179 1.358 . S
C1181 H1223 0.930 . S
C1182 C1183 1.348 . S
C1182 C1184 1.356 . S
C1182 O1207 1.325 . S
C1183 C1182 1.348 . S
C1183 C1185 1.353 . S
C1183 H1224 0.929 . S
C1184 C1182 1.356 . S
C1184 C1186 1.358 . S
C1184 H1225 0.930 . S
C1185 C1183 1.353 . S
C1185 N1187 1.314 . S
C1185 H1226 0.930 . S
C1186 C1184 1.358 . S
C1186 N1187 1.279 . S
C1186 H1227 0.930 . S
N1187 C1185 1.314 . S
N1187 C1186 1.279 . S
C1188 C1190 1.353 . S
C1188 N1191 1.314 . S
C1188 H1194 0.930 . S
C1189 N1191 1.279 . S
C1189 C1192 1.358 . S
C1189 H1195 0.930 . S
C1190 C1188 1.353 . S
C1190 C1193 1.348 . S
C1190 H1228 0.929 . S
N1191 Li1146 1.990 . S
N1191 C1188 1.314 . S
N1191 C1189 1.279 . S
C1192 C1189 1.358 . S
C1192 C1193 1.356 . S
C1192 H1229 0.930 . S
C1193 C1190 1.348 . S
C1193 C1192 1.356 . S
H1194 C1188 0.930 . S
H1195 C1189 0.930 . S
C1196 N1197 1.314 . S
C1196 C1198 1.353 . S
C1196 H1202 0.930 . S
N1197 Li1147 1.990 . S
N1197 C1196 1.314 . S
N1197 C1200 1.279 . S
C1198 C1196 1.353 . S
C1198 C1201 1.348 . S
C1198 H1230 0.929 . S
C1199 C1200 1.358 . S
C1199 C1201 1.356 . S
C1199 H1231 0.930 . S
C1200 N1197 1.279 . S
C1200 C1199 1.358 . S
C1200 H1203 0.930 . S
C1201 C1198 1.348 . S
C1201 C1199 1.356 . S
H1202 C1196 0.930 . S
H1203 C1200 0.930 . S
O1204 Li1144 1.956 . S
O1204 Li1145 1.970 . S
O1204 Li1146 1.961 . S
O1204 C1148 1.325 . S
O1205 Li1144 1.970 . S
O1205 Li1145 1.956 . S
O1205 Li1147 1.961 . S
O1205 C1154 1.325 . S
O1206 Li1144 1.961 . S
O1206 Li1146 1.956 . S
O1206 Li1147 1.970 . S
O1206 C1176 1.325 . S
O1207 Li1145 1.961 . S
O1207 Li1146 1.970 . S
O1207 Li1147 1.956 . S
O1207 C1182 1.325 . S
H1208 C1150 0.929 . S
H1209 C1151 0.930 . S
H1210 C1152 0.930 . S
H1211 C1153 0.930 . S
H1212 C1155 0.930 . S
H1213 C1157 0.929 . S
H1214 C1158 0.930 . S
H1215 C1159 0.930 . S
H1216 C1162 0.930 . S
H1217 C1165 0.929 . S
H1218 C1170 0.929 . S
H1219 C1171 0.930 . S
H1220 C1178 0.929 . S
H1221 C1179 0.930 . S
H1222 C1180 0.930 . S
H1223 C1181 0.930 . S
H1224 C1183 0.929 . S
H1225 C1184 0.930 . S
H1226 C1185 0.930 . S
H1227 C1186 0.930 . S
H1228 C1190 0.929 . S
H1229 C1192 0.930 . S
H1230 C1198 0.929 . S
H1231 C1199 0.930 . S
Li1232 N1249 1.990 . S
Li1232 O1292 1.956 . S
Li1232 O1293 1.970 . S
Li1232 O1294 1.961 . S
Li1233 N1257 1.990 . S
Li1233 O1292 1.970 . S
Li1233 O1293 1.956 . S
Li1233 O1295 1.961 . S
Li1234 N1279 1.990 . S
Li1234 O1292 1.961 . S
Li1234 O1294 1.956 . S
Li1234 O1295 1.970 . S
Li1235 N1285 1.990 . S
Li1235 O1293 1.961 . S
Li1235 O1294 1.970 . S
Li1235 O1295 1.956 . S
C1236 C1238 1.348 . S
C1236 C1239 1.356 . S
C1236 O1292 1.325 . S
N1237 C1240 1.314 . S
N1237 C1241 1.279 . S
C1238 C1236 1.348 . S
C1238 C1240 1.353 . S
C1238 H1296 0.929 . S
C1239 C1236 1.356 . S
C1239 C1241 1.358 . S
C1239 H1297 0.930 . S
C1240 N1237 1.314 . S
C1240 C1238 1.353 . S
C1240 H1298 0.930 . S
C1241 N1237 1.279 . S
C1241 C1239 1.358 . S
C1241 H1299 0.930 . S
C1242 C1245 1.348 . S
C1242 C1246 1.356 . S
C1242 O1293 1.325 . S
C1243 N1244 1.279 . S
C1243 C1246 1.358 . S
C1243 H1300 0.930 . S
N1244 C1243 1.279 . S
N1244 C1247 1.314 . S
C1245 C1242 1.348 . S
C1245 C1247 1.353 . S
C1245 H1301 0.929 . S
C1246 C1242 1.356 . S
C1246 C1243 1.358 . S
C1246 H1302 0.930 . S
C1247 N1244 1.314 . S
C1247 C1245 1.353 . S
C1247 H1303 0.930 . S
C1248 N1249 1.314 . S
C1248 C1253 1.353 . S
C1248 H1254 0.930 . S
N1249 Li1232 1.990 . S
N1249 C1248 1.314 . S
N1249 C1251 1.279 . S
C1250 C1251 1.358 . S
C1250 C1252 1.356 . S
C1250 H1304 0.930 . S
C1251 N1249 1.279 . S
C1251 C1250 1.358 . S
C1251 H1255 0.930 . S
C1252 C1250 1.356 . S
C1252 C1253 1.348 . S
C1253 C1248 1.353 . S
C1253 C1252 1.348 . S
C1253 H1305 0.929 . S
H1254 C1248 0.930 . S
H1255 C1251 0.930 . S
C1256 N1257 1.314 . S
C1256 C1258 1.353 . S
C1256 H1262 0.930 . S
N1257 Li1233 1.990 . S
N1257 C1256 1.314 . S
N1257 C1260 1.279 . S
C1258 C1256 1.353 . S
C1258 C1261 1.348 . S
C1258 H1306 0.929 . S
C1259 C1260 1.358 . S
C1259 C1261 1.356 . S
C1259 H1307 0.930 . S
C1260 N1257 1.279 . S
C1260 C1259 1.358 . S
C1260 H1263 0.930 . S
C1261 C1258 1.348 . S
C1261 C1259 1.356 . S
H1262 C1256 0.930 . S
H1263 C1260 0.930 . S
C1264 C1266 1.348 . S
C1264 C1267 1.356 . S
C1264 O1294 1.325 . S
N1265 C1268 1.314 . S
N1265 C1269 1.279 . S
C1266 C1264 1.348 . S
C1266 C1268 1.353 . S
C1266 H1308 0.929 . S
C1267 C1264 1.356 . S
C1267 C1269 1.358 . S
C1267 H1309 0.930 . S
C1268 N1265 1.314 . S
C1268 C1266 1.353 . S
C1268 H1310 0.930 . S
C1269 N1265 1.279 . S
C1269 C1267 1.358 . S
C1269 H1311 0.930 . S
C1270 C1271 1.348 . S
C1270 C1272 1.356 . S
C1270 O1295 1.325 . S
C1271 C1270 1.348 . S
C1271 C1273 1.353 . S
C1271 H1312 0.929 . S
C1272 C1270 1.356 . S
C1272 C1274 1.358 . S
C1272 H1313 0.930 . S
C1273 C1271 1.353 . S
C1273 N1275 1.314 . S
C1273 H1314 0.930 . S
C1274 C1272 1.358 . S
C1274 N1275 1.279 . S
C1274 H1315 0.930 . S
N1275 C1273 1.314 . S
N1275 C1274 1.279 . S
C1276 C1278 1.353 . S
C1276 N1279 1.314 . S
C1276 H1282 0.930 . S
C1277 N1279 1.279 . S
C1277 C1280 1.358 . S
C1277 H1283 0.930 . S
C1278 C1276 1.353 . S
C1278 C1281 1.348 . S
C1278 H1316 0.929 . S
N1279 Li1234 1.990 . S
N1279 C1276 1.314 . S
N1279 C1277 1.279 . S
C1280 C1277 1.358 . S
C1280 C1281 1.356 . S
C1280 H1317 0.930 . S
C1281 C1278 1.348 . S
C1281 C1280 1.356 . S
H1282 C1276 0.930 . S
H1283 C1277 0.930 . S
C1284 N1285 1.314 . S
C1284 C1286 1.353 . S
C1284 H1290 0.930 . S
N1285 Li1235 1.990 . S
N1285 C1284 1.314 . S
N1285 C1288 1.279 . S
C1286 C1284 1.353 . S
C1286 C1289 1.348 . S
C1286 H1318 0.929 . S
C1287 C1288 1.358 . S
C1287 C1289 1.356 . S
C1287 H1319 0.930 . S
C1288 N1285 1.279 . S
C1288 C1287 1.358 . S
C1288 H1291 0.930 . S
C1289 C1286 1.348 . S
C1289 C1287 1.356 . S
H1290 C1284 0.930 . S
H1291 C1288 0.930 . S
O1292 Li1232 1.956 . S
O1292 Li1233 1.970 . S
O1292 Li1234 1.961 . S
O1292 C1236 1.325 . S
O1293 Li1232 1.970 . S
O1293 Li1233 1.956 . S
O1293 Li1235 1.961 . S
O1293 C1242 1.325 . S
O1294 Li1232 1.961 . S
O1294 Li1234 1.956 . S
O1294 Li1235 1.970 . S
O1294 C1264 1.325 . S
O1295 Li1233 1.961 . S
O1295 Li1234 1.970 . S
O1295 Li1235 1.956 . S
O1295 C1270 1.325 . S
H1296 C1238 0.929 . S
H1297 C1239 0.930 . S
H1298 C1240 0.930 . S
H1299 C1241 0.930 . S
H1300 C1243 0.930 . S
H1301 C1245 0.929 . S
H1302 C1246 0.930 . S
H1303 C1247 0.930 . S
H1304 C1250 0.930 . S
H1305 C1253 0.929 . S
H1306 C1258 0.929 . S
H1307 C1259 0.930 . S
H1308 C1266 0.929 . S
H1309 C1267 0.930 . S
H1310 C1268 0.930 . S
H1311 C1269 0.930 . S
H1312 C1271 0.929 . S
H1313 C1272 0.930 . S
H1314 C1273 0.930 . S
H1315 C1274 0.930 . S
H1316 C1278 0.929 . S
H1317 C1280 0.930 . S
H1318 C1286 0.929 . S
H1319 C1287 0.930 . S
Li1320 N1337 1.990 . S
Li1320 O1380 1.956 . S
Li1320 O1381 1.970 . S
Li1320 O1382 1.961 . S
Li1321 N1345 1.990 . S
Li1321 O1380 1.970 . S
Li1321 O1381 1.956 . S
Li1321 O1383 1.961 . S
Li1322 N1367 1.990 . S
Li1322 O1380 1.961 . S
Li1322 O1382 1.956 . S
Li1322 O1383 1.970 . S
Li1323 N1373 1.990 . S
Li1323 O1381 1.961 . S
Li1323 O1382 1.970 . S
Li1323 O1383 1.956 . S
C1324 C1326 1.348 . S
C1324 C1327 1.356 . S
C1324 O1380 1.325 . S
N1325 C1328 1.314 . S
N1325 C1329 1.279 . S
C1326 C1324 1.348 . S
C1326 C1328 1.353 . S
C1326 H1384 0.929 . S
C1327 C1324 1.356 . S
C1327 C1329 1.358 . S
C1327 H1385 0.930 . S
C1328 N1325 1.314 . S
C1328 C1326 1.353 . S
C1328 H1386 0.930 . S
C1329 N1325 1.279 . S
C1329 C1327 1.358 . S
C1329 H1387 0.930 . S
C1330 C1333 1.348 . S
C1330 C1334 1.356 . S
C1330 O1381 1.325 . S
C1331 N1332 1.279 . S
C1331 C1334 1.358 . S
C1331 H1388 0.930 . S
N1332 C1331 1.279 . S
N1332 C1335 1.314 . S
C1333 C1330 1.348 . S
C1333 C1335 1.353 . S
C1333 H1389 0.929 . S
C1334 C1330 1.356 . S
C1334 C1331 1.358 . S
C1334 H1390 0.930 . S
C1335 N1332 1.314 . S
C1335 C1333 1.353 . S
C1335 H1391 0.930 . S
C1336 N1337 1.314 . S
C1336 C1341 1.353 . S
C1336 H1342 0.930 . S
N1337 Li1320 1.990 . S
N1337 C1336 1.314 . S
N1337 C1339 1.279 . S
C1338 C1339 1.358 . S
C1338 C1340 1.356 . S
C1338 H1392 0.930 . S
C1339 N1337 1.279 . S
C1339 C1338 1.358 . S
C1339 H1343 0.930 . S
C1340 C1338 1.356 . S
C1340 C1341 1.348 . S
C1341 C1336 1.353 . S
C1341 C1340 1.348 . S
C1341 H1393 0.929 . S
H1342 C1336 0.930 . S
H1343 C1339 0.930 . S
C1344 N1345 1.314 . S
C1344 C1346 1.353 . S
C1344 H1350 0.930 . S
N1345 Li1321 1.990 . S
N1345 C1344 1.314 . S
N1345 C1348 1.279 . S
C1346 C1344 1.353 . S
C1346 C1349 1.348 . S
C1346 H1394 0.929 . S
C1347 C1348 1.358 . S
C1347 C1349 1.356 . S
C1347 H1395 0.930 . S
C1348 N1345 1.279 . S
C1348 C1347 1.358 . S
C1348 H1351 0.930 . S
C1349 C1346 1.348 . S
C1349 C1347 1.356 . S
H1350 C1344 0.930 . S
H1351 C1348 0.930 . S
C1352 C1354 1.348 . S
C1352 C1355 1.356 . S
C1352 O1382 1.325 . S
N1353 C1356 1.314 . S
N1353 C1357 1.279 . S
C1354 C1352 1.348 . S
C1354 C1356 1.353 . S
C1354 H1396 0.929 . S
C1355 C1352 1.356 . S
C1355 C1357 1.358 . S
C1355 H1397 0.930 . S
C1356 N1353 1.314 . S
C1356 C1354 1.353 . S
C1356 H1398 0.930 . S
C1357 N1353 1.279 . S
C1357 C1355 1.358 . S
C1357 H1399 0.930 . S
C1358 C1359 1.348 . S
C1358 C1360 1.356 . S
C1358 O1383 1.325 . S
C1359 C1358 1.348 . S
C1359 C1361 1.353 . S
C1359 H1400 0.929 . S
C1360 C1358 1.356 . S
C1360 C1362 1.358 . S
C1360 H1401 0.930 . S
C1361 C1359 1.353 . S
C1361 N1363 1.314 . S
C1361 H1402 0.930 . S
C1362 C1360 1.358 . S
C1362 N1363 1.279 . S
C1362 H1403 0.930 . S
N1363 C1361 1.314 . S
N1363 C1362 1.279 . S
C1364 C1366 1.353 . S
C1364 N1367 1.314 . S
C1364 H1370 0.930 . S
C1365 N1367 1.279 . S
C1365 C1368 1.358 . S
C1365 H1371 0.930 . S
C1366 C1364 1.353 . S
C1366 C1369 1.348 . S
C1366 H1404 0.929 . S
N1367 Li1322 1.990 . S
N1367 C1364 1.314 . S
N1367 C1365 1.279 . S
C1368 C1365 1.358 . S
C1368 C1369 1.356 . S
C1368 H1405 0.930 . S
C1369 C1366 1.348 . S
C1369 C1368 1.356 . S
H1370 C1364 0.930 . S
H1371 C1365 0.930 . S
C1372 N1373 1.314 . S
C1372 C1374 1.353 . S
C1372 H1378 0.930 . S
N1373 Li1323 1.990 . S
N1373 C1372 1.314 . S
N1373 C1376 1.279 . S
C1374 C1372 1.353 . S
C1374 C1377 1.348 . S
C1374 H1406 0.929 . S
C1375 C1376 1.358 . S
C1375 C1377 1.356 . S
C1375 H1407 0.930 . S
C1376 N1373 1.279 . S
C1376 C1375 1.358 . S
C1376 H1379 0.930 . S
C1377 C1374 1.348 . S
C1377 C1375 1.356 . S
H1378 C1372 0.930 . S
H1379 C1376 0.930 . S
O1380 Li1320 1.956 . S
O1380 Li1321 1.970 . S
O1380 Li1322 1.961 . S
O1380 C1324 1.325 . S
O1381 Li1320 1.970 . S
O1381 Li1321 1.956 . S
O1381 Li1323 1.961 . S
O1381 C1330 1.325 . S
O1382 Li1320 1.961 . S
O1382 Li1322 1.956 . S
O1382 Li1323 1.970 . S
O1382 C1352 1.325 . S
O1383 Li1321 1.961 . S
O1383 Li1322 1.970 . S
O1383 Li1323 1.956 . S
O1383 C1358 1.325 . S
H1384 C1326 0.929 . S
H1385 C1327 0.930 . S
H1386 C1328 0.930 . S
H1387 C1329 0.930 . S
H1388 C1331 0.930 . S
H1389 C1333 0.929 . S
H1390 C1334 0.930 . S
H1391 C1335 0.930 . S
H1392 C1338 0.930 . S
H1393 C1341 0.929 . S
H1394 C1346 0.929 . S
H1395 C1347 0.930 . S
H1396 C1354 0.929 . S
H1397 C1355 0.930 . S
H1398 C1356 0.930 . S
H1399 C1357 0.930 . S
H1400 C1359 0.929 . S
H1401 C1360 0.930 . S
H1402 C1361 0.930 . S
H1403 C1362 0.930 . S
H1404 C1366 0.929 . S
H1405 C1368 0.930 . S
H1406 C1374 0.929 . S
H1407 C1375 0.930 . S
H1408 C1414 0.930 . S
H1409 C1417 0.930 . S
H1410 C1418 0.930 . S
H1411 C1419 0.930 . S
H1412 C1422 0.930 . S
H1413 C1423 0.930 . S
C1414 H1408 0.930 . S
C1414 C1415 1.355 . S
C1414 C1416 1.415 . S
C1415 C1414 1.355 . S
C1415 C1417 1.419 . S
C1416 C1414 1.415 . S
C1416 C1421 1.425 . S
C1416 C1423 1.409 . S
C1417 H1409 0.930 . S
C1417 C1415 1.419 . S
C1417 C1418 1.362 . S
C1418 H1410 0.930 . S
C1418 C1417 1.362 . S
C1418 C1421 1.409 . S
C1419 H1411 0.930 . S
C1419 C1420 1.355 . S
C1419 C1421 1.415 . S
C1420 C1419 1.355 . S
C1420 C1422 1.419 . S
C1421 C1416 1.425 . S
C1421 C1418 1.409 . S
C1421 C1419 1.415 . S
C1422 H1412 0.930 . S
C1422 C1420 1.419 . S
C1422 C1423 1.362 . S
C1423 H1413 0.930 . S
C1423 C1416 1.409 . S
C1423 C1422 1.362 . S
H1424 C1430 0.930 . S
H1425 C1433 0.927 1_455 S
H1426 C1434 0.930 . S
H1427 C1435 0.930 . S
H1428 C1438 0.926 1_655 S
H1429 C1439 0.930 . S
C1430 H1424 0.930 . S
C1430 C1431 1.355 . S
C1430 C1432 1.415 1_565 S
C1431 C1430 1.355 . S
C1431 C1433 1.419 . S
C1432 C1430 1.415 1_545 S
C1432 C1437 1.425 1_645 S
C1432 C1439 1.409 . S
C1433 H1425 0.927 1_655 S
C1433 C1431 1.419 . S
C1433 C1434 1.362 1_655 S
C1434 H1426 0.930 . S
C1434 C1433 1.362 1_455 S
C1434 C1437 1.409 . S
C1435 H1427 0.930 . S
C1435 C1436 1.355 . S
C1435 C1437 1.415 1_545 S
C1436 C1435 1.355 . S
C1436 C1438 1.419 . S
C1437 C1432 1.425 1_465 S
C1437 C1434 1.409 . S
C1437 C1435 1.415 1_565 S
C1438 H1428 0.926 1_455 S
C1438 C1436 1.419 . S
C1438 C1439 1.362 1_455 S
C1439 H1429 0.930 . S
C1439 C1432 1.409 . S
C1439 C1438 1.362 1_655 S
H1440 C1446 0.930 . S
H1441 C1449 0.930 . S
H1442 C1450 0.930 1_545 S
H1443 C1451 0.930 . S
H1444 C1454 0.930 . S
H1445 C1455 0.930 1_565 S
C1446 H1440 0.930 . S
C1446 C1447 1.355 . S
C1446 C1448 1.415 . S
C1447 C1446 1.355 . S
C1447 C1449 1.419 . S
C1448 C1446 1.415 . S
C1448 C1453 1.425 1_565 S
C1448 C1455 1.409 1_565 S
C1449 H1441 0.930 . S
C1449 C1447 1.419 . S
C1449 C1450 1.362 . S
C1450 H1442 0.930 1_565 S
C1450 C1449 1.362 . S
C1450 C1453 1.409 1_565 S
C1451 H1443 0.930 . S
C1451 C1452 1.355 . S
C1451 C1453 1.415 . S
C1452 C1451 1.355 . S
C1452 C1454 1.419 . S
C1453 C1448 1.425 1_545 S
C1453 C1450 1.409 1_545 S
C1453 C1451 1.415 . S
C1454 H1444 0.930 . S
C1454 C1452 1.419 . S
C1454 C1455 1.362 . S
C1455 H1445 0.930 1_545 S
C1455 C1448 1.409 1_545 S
C1455 C1454 1.362 . S
H1456 C1462 0.930 . S
H1457 C1465 0.937 . S
H1458 C1466 0.930 . S
H1459 C1467 0.930 . S
H1460 C1470 0.936 . S
H1461 C1471 0.930 . S
C1462 H1456 0.930 . S
C1462 C1463 1.355 . S
C1462 C1464 1.415 . S
C1463 C1462 1.355 . S
C1463 C1465 1.392 1_455 S
C1464 C1462 1.415 . S
C1464 C1469 1.425 1_455 S
C1464 C1471 1.409 . S
C1465 H1457 0.937 . S
C1465 C1463 1.392 1_655 S
C1465 C1466 1.382 . S
C1466 H1458 0.930 . S
C1466 C1465 1.382 . S
C1466 C1469 1.409 . S
C1467 H1459 0.930 . S
C1467 C1468 1.355 . S
C1467 C1469 1.415 . S
C1468 C1467 1.355 . S
C1468 C1470 1.398 1_655 S
C1469 C1464 1.425 1_655 S
C1469 C1466 1.409 . S
C1469 C1467 1.415 . S
C1470 H1460 0.936 . S
C1470 C1468 1.398 1_455 S
C1470 C1471 1.378 . S
C1471 H1461 0.930 . S
C1471 C1464 1.409 . S
C1471 C1470 1.378 . S
H1472 C1478 0.930 . S
H1473 C1481 0.930 . S
H1474 C1482 0.930 . S
H1475 C1483 0.930 . S
H1476 C1486 0.930 . S
H1477 C1487 0.930 . S
C1478 H1472 0.930 . S
C1478 C1479 1.355 . S
C1478 C1480 1.415 . S
C1479 C1478 1.355 . S
C1479 C1481 1.419 . S
C1480 C1478 1.415 . S
C1480 C1485 1.425 . S
C1480 C1487 1.409 . S
C1481 H1473 0.930 . S
C1481 C1479 1.419 . S
C1481 C1482 1.362 . S
C1482 H1474 0.930 . S
C1482 C1481 1.362 . S
C1482 C1485 1.409 . S
C1483 H1475 0.930 . S
C1483 C1484 1.355 . S
C1483 C1485 1.415 . S
C1484 C1483 1.355 . S
C1484 C1486 1.419 . S
C1485 C1480 1.425 . S
C1485 C1482 1.409 . S
C1485 C1483 1.415 . S
C1486 H1476 0.930 . S
C1486 C1484 1.419 . S
C1486 C1487 1.362 . S
C1487 H1477 0.930 . S
C1487 C1480 1.409 . S
C1487 C1486 1.362 . S
H1488 C1494 0.930 . S
H1489 C1497 0.930 . S
H1490 C1498 0.930 . S
H1491 C1499 0.930 . S
H1492 C1502 0.930 . S
H1493 C1503 0.930 . S
C1494 H1488 0.930 . S
C1494 C1495 1.355 . S
C1494 C1496 1.401 1_545 S
C1495 C1494 1.355 . S
C1495 C1497 1.419 . S
C1496 C1494 1.401 1_565 S
C1496 C1501 1.425 1_565 S
C1496 C1503 1.423 . S
C1497 H1489 0.930 . S
C1497 C1495 1.419 . S
C1497 C1498 1.362 . S
C1498 H1490 0.930 . S
C1498 C1497 1.362 . S
C1498 C1501 1.418 . S
C1499 H1491 0.930 . S
C1499 C1500 1.355 . S
C1499 C1501 1.406 1_565 S
C1500 C1499 1.355 . S
C1500 C1502 1.419 . S
C1501 C1496 1.425 1_545 S
C1501 C1498 1.418 . S
C1501 C1499 1.406 1_545 S
C1502 H1492 0.930 . S
C1502 C1500 1.419 . S
C1502 C1503 1.362 . S
C1503 H1493 0.930 . S
C1503 C1496 1.423 . S
C1503 C1502 1.362 . S
H1504 C1510 0.930 . S
H1505 C1513 0.924 1_455 S
H1506 C1514 0.930 . S
H1507 C1515 0.930 . S
H1508 C1518 0.925 1_655 S
H1509 C1519 0.930 . S
C1510 H1504 0.930 . S
C1510 C1511 1.355 . S
C1510 C1512 1.415 . S
C1511 C1510 1.355 . S
C1511 C1513 1.447 . S
C1512 C1510 1.415 . S
C1512 C1517 1.425 1_655 S
C1512 C1519 1.409 . S
C1513 H1505 0.924 1_655 S
C1513 C1511 1.447 . S
C1513 C1514 1.341 1_655 S
C1514 H1506 0.930 . S
C1514 C1513 1.341 1_455 S
C1514 C1517 1.409 . S
C1515 H1507 0.930 . S
C1515 C1516 1.355 . S
C1515 C1517 1.415 . S
C1516 C1515 1.355 . S
C1516 C1518 1.442 . S
C1517 C1512 1.425 1_455 S
C1517 C1514 1.409 . S
C1517 C1515 1.415 . S
C1518 H1508 0.925 1_455 S
C1518 C1516 1.442 . S
C1518 C1519 1.345 1_455 S
C1519 H1509 0.930 . S
C1519 C1512 1.409 . S
C1519 C1518 1.345 1_655 S
H1520 C1526 0.930 . S
H1521 C1529 0.930 . S
H1522 C1530 0.930 . S
H1523 C1531 0.930 . S
H1524 C1534 0.943 . S
H1525 C1535 0.930 . S
C1526 H1520 0.930 . S
C1526 C1527 1.355 . S
C1526 C1528 1.415 . S
C1527 C1526 1.355 . S
C1527 C1529 1.419 1_554 S
C1528 C1526 1.415 . S
C1528 C1533 1.425 1_554 S
C1528 C1535 1.409 . S
C1529 H1521 0.930 . S
C1529 C1527 1.419 1_556 S
C1529 C1530 1.362 . S
C1530 H1522 0.930 . S
C1530 C1529 1.362 . S
C1530 C1533 1.409 . S
C1531 H1523 0.930 . S
C1531 C1532 1.355 . S
C1531 C1533 1.415 . S
C1532 C1531 1.355 . S
C1532 C1534 1.380 1_556 S
C1533 C1528 1.425 1_556 S
C1533 C1530 1.409 . S
C1533 C1531 1.415 . S
C1534 H1524 0.943 . S
C1534 C1532 1.380 1_554 S
C1534 C1535 1.390 . S
C1535 H1525 0.930 . S
C1535 C1528 1.409 . S
C1535 C1534 1.390 . S
H1536 C1542 0.930 1_554 S
H1537 C1545 0.930 . S
H1538 C1546 0.930 . S
H1539 C1547 0.957 . S
H1540 C1550 0.930 . S
H1541 C1551 0.930 . S
C1542 H1536 0.930 1_556 S
C1542 C1543 1.355 . S
C1542 C1544 1.415 1_556 S
C1543 C1542 1.355 . S
C1543 C1545 1.419 . S
C1544 C1542 1.415 1_554 S
C1544 C1549 1.425 1_454 S
C1544 C1551 1.409 . S
C1545 H1537 0.930 . S
C1545 C1543 1.419 . S
C1545 C1546 1.362 1_455 S
C1546 H1538 0.930 . S
C1546 C1545 1.362 1_655 S
C1546 C1549 1.409 . S
C1547 H1539 0.957 . S
C1547 C1548 1.314 1_556 S
C1547 C1549 1.430 . S
C1548 C1547 1.314 1_554 S
C1548 C1550 1.419 . S
C1549 C1544 1.425 1_656 S
C1549 C1546 1.409 . S
C1549 C1547 1.430 . S
C1550 H1540 0.930 . S
C1550 C1548 1.419 . S
C1550 C1551 1.362 1_655 S
C1551 H1541 0.930 . S
C1551 C1544 1.409 . S
C1551 C1550 1.362 1_455 S
H1552 C1558 0.930 . S
H1553 C1561 0.930 . S
H1554 C1562 0.930 . S
H1555 C1563 0.930 . S
H1556 C1566 0.930 . S
H1557 C1567 0.930 . S
C1558 H1552 0.930 . S
C1558 C1559 1.355 . S
C1558 C1560 1.415 . S
C1559 C1558 1.355 . S
C1559 C1561 1.419 . S
C1560 C1558 1.415 . S
C1560 C1565 1.425 . S
C1560 C1567 1.409 . S
C1561 H1553 0.930 . S
C1561 C1559 1.419 . S
C1561 C1562 1.362 . S
C1562 H1554 0.930 . S
C1562 C1561 1.362 . S
C1562 C1565 1.409 . S
C1563 H1555 0.930 . S
C1563 C1564 1.355 . S
C1563 C1565 1.415 . S
C1564 C1563 1.355 . S
C1564 C1566 1.419 . S
C1565 C1560 1.425 . S
C1565 C1562 1.409 . S
C1565 C1563 1.415 . S
C1566 H1556 0.930 . S
C1566 C1564 1.419 . S
C1566 C1567 1.362 . S
C1567 H1557 0.930 . S
C1567 C1560 1.409 . S
C1567 C1566 1.362 . S
H1568 C1574 0.930 . S
H1569 C1577 0.930 . S
H1570 C1578 0.910 1_554 S
H1571 C1579 0.930 . S
H1572 C1582 0.930 . S
H1573 C1583 0.930 . S
C1574 H1568 0.930 . S
C1574 C1575 1.355 . S
C1574 C1576 1.415 . S
C1575 C1574 1.355 . S
C1575 C1577 1.419 . S
C1576 C1574 1.415 . S
C1576 C1581 1.425 1_556 S
C1576 C1583 1.409 . S
C1577 H1569 0.930 . S
C1577 C1575 1.419 . S
C1577 C1578 1.394 . S
C1578 H1570 0.910 1_556 S
C1578 C1577 1.394 . S
C1578 C1581 1.401 1_556 S
C1579 H1571 0.930 . S
C1579 C1580 1.355 . S
C1579 C1581 1.415 . S
C1580 C1579 1.355 . S
C1580 C1582 1.419 . S
C1581 C1576 1.425 1_554 S
C1581 C1578 1.401 1_554 S
C1581 C1579 1.415 . S
C1582 H1572 0.930 . S
C1582 C1580 1.419 . S
C1582 C1583 1.362 1_554 S
C1583 H1573 0.930 . S
C1583 C1576 1.409 . S
C1583 C1582 1.362 1_556 S
H1584 C1590 0.930 . S
H1585 C1593 0.930 . S
H1586 C1594 0.930 . S
H1587 C1595 0.930 . S
H1588 C1598 0.930 . S
H1589 C1599 0.930 . S
C1590 H1584 0.930 . S
C1590 C1591 1.355 . S
C1590 C1592 1.415 . S
C1591 C1590 1.355 . S
C1591 C1593 1.419 . S
C1592 C1590 1.415 . S
C1592 C1597 1.425 . S
C1592 C1599 1.409 . S
C1593 H1585 0.930 . S
C1593 C1591 1.419 . S
C1593 C1594 1.362 . S
C1594 H1586 0.930 . S
C1594 C1593 1.362 . S
C1594 C1597 1.409 . S
C1595 H1587 0.930 . S
C1595 C1596 1.355 . S
C1595 C1597 1.415 . S
C1596 C1595 1.355 . S
C1596 C1598 1.419 . S
C1597 C1592 1.425 . S
C1597 C1594 1.409 . S
C1597 C1595 1.415 . S
C1598 H1588 0.930 . S
C1598 C1596 1.419 . S
C1598 C1599 1.362 . S
C1599 H1589 0.930 . S
C1599 C1592 1.409 . S
C1599 C1598 1.362 . S
H1600 C1606 0.930 . S
H1601 C1609 0.930 . S
H1602 C1610 0.930 . S
H1603 C1611 0.930 . S
H1604 C1614 0.930 . S
H1605 C1615 0.930 . S
C1606 H1600 0.930 . S
C1606 C1607 1.355 . S
C1606 C1608 1.438 1_545 S
C1607 C1606 1.355 . S
C1607 C1609 1.419 . S
C1608 C1606 1.438 1_565 S
C1608 C1613 1.428 1_565 S
C1608 C1615 1.385 1_556 S
C1609 H1601 0.930 . S
C1609 C1607 1.419 . S
C1609 C1610 1.362 . S
C1610 H1602 0.930 . S
C1610 C1609 1.362 . S
C1610 C1613 1.409 . S
C1611 H1603 0.930 . S
C1611 C1612 1.355 . S
C1611 C1613 1.415 1_564 S
C1612 C1611 1.355 . S
C1612 C1614 1.419 . S
C1613 C1608 1.428 1_545 S
C1613 C1610 1.409 . S
C1613 C1611 1.415 1_546 S
C1614 H1604 0.930 . S
C1614 C1612 1.419 . S
C1614 C1615 1.362 . S
C1615 H1605 0.930 . S
C1615 C1608 1.385 1_554 S
C1615 C1614 1.362 . S
H1616 C1622 0.930 . S
H1617 C1625 0.930 . S
H1618 C1626 0.930 . S
H1619 C1627 0.930 . S
H1620 C1630 0.930 . S
H1621 C1631 0.930 . S
C1622 H1616 0.930 . S
C1622 C1623 1.355 . S
C1622 C1624 1.415 . S
C1623 C1622 1.355 . S
C1623 C1625 1.419 . S
C1624 C1622 1.415 . S
C1624 C1629 1.425 . S
C1624 C1631 1.409 . S
C1625 H1617 0.930 . S
C1625 C1623 1.419 . S
C1625 C1626 1.362 . S
C1626 H1618 0.930 . S
C1626 C1625 1.362 . S
C1626 C1629 1.409 . S
C1627 H1619 0.930 . S
C1627 C1628 1.355 . S
C1627 C1629 1.415 . S
C1628 C1627 1.355 . S
C1628 C1630 1.419 . S
C1629 C1624 1.425 . S
C1629 C1626 1.409 . S
C1629 C1627 1.415 . S
C1630 H1620 0.930 . S
C1630 C1628 1.419 . S
C1630 C1631 1.362 . S
C1631 H1621 0.930 . S
C1631 C1624 1.409 . S
C1631 C1630 1.362 . S
H1632 C1638 0.930 . S
H1633 C1641 0.930 . S
H1634 C1642 0.930 . S
H1635 C1643 0.930 . S
H1636 C1646 0.930 . S
H1637 C1647 0.930 . S
C1638 H1632 0.930 . S
C1638 C1639 1.355 . S
C1638 C1640 1.415 . S
C1639 C1638 1.355 . S
C1639 C1641 1.419 . S
C1640 C1638 1.415 . S
C1640 C1645 1.425 . S
C1640 C1647 1.409 . S
C1641 H1633 0.930 . S
C1641 C1639 1.419 . S
C1641 C1642 1.362 . S
C1642 H1634 0.930 . S
C1642 C1641 1.362 . S
C1642 C1645 1.409 . S
C1643 H1635 0.930 . S
C1643 C1644 1.355 . S
C1643 C1645 1.415 . S
C1644 C1643 1.355 . S
C1644 C1646 1.419 . S
C1645 C1640 1.425 . S
C1645 C1642 1.409 . S
C1645 C1643 1.415 . S
C1646 H1636 0.930 . S
C1646 C1644 1.419 . S
C1646 C1647 1.362 . S
C1647 H1637 0.930 . S
C1647 C1640 1.409 . S
C1647 C1646 1.362 . S
H1648 C1654 0.930 . S
H1649 C1657 0.930 . S
H1650 C1658 0.930 . S
H1651 C1659 0.930 . S
H1652 C1662 0.930 . S
H1653 C1663 0.930 . S
C1654 H1648 0.930 . S
C1654 C1655 1.355 . S
C1654 C1656 1.415 . S
C1655 C1654 1.355 . S
C1655 C1657 1.419 . S
C1656 C1654 1.415 . S
C1656 C1661 1.425 . S
C1656 C1663 1.409 . S
C1657 H1649 0.930 . S
C1657 C1655 1.419 . S
C1657 C1658 1.362 . S
C1658 H1650 0.930 . S
C1658 C1657 1.362 . S
C1658 C1661 1.409 . S
C1659 H1651 0.930 . S
C1659 C1660 1.355 . S
C1659 C1661 1.415 . S
C1660 C1659 1.355 . S
C1660 C1662 1.419 . S
C1661 C1656 1.425 . S
C1661 C1658 1.409 . S
C1661 C1659 1.415 . S
C1662 H1652 0.930 . S
C1662 C1660 1.419 . S
C1662 C1663 1.362 . S
C1663 H1653 0.930 . S
C1663 C1656 1.409 . S
C1663 C1662 1.362 . S
H1664 C1670 0.930 . S
H1665 C1673 0.930 . S
H1666 C1674 0.930 . S
H1667 C1675 0.930 . S
H1668 C1678 0.930 . S
H1669 C1679 0.930 . S
C1670 H1664 0.930 . S
C1670 C1671 1.355 . S
C1670 C1672 1.415 . S
C1671 C1670 1.355 . S
C1671 C1673 1.419 . S
C1672 C1670 1.415 . S
C1672 C1677 1.425 . S
C1672 C1679 1.409 . S
C1673 H1665 0.930 . S
C1673 C1671 1.419 . S
C1673 C1674 1.362 . S
C1674 H1666 0.930 . S
C1674 C1673 1.362 . S
C1674 C1677 1.409 . S
C1675 H1667 0.930 . S
C1675 C1676 1.355 . S
C1675 C1677 1.415 . S
C1676 C1675 1.355 . S
C1676 C1678 1.419 . S
C1677 C1672 1.425 . S
C1677 C1674 1.409 . S
C1677 C1675 1.415 . S
C1678 H1668 0.930 . S
C1678 C1676 1.419 . S
C1678 C1679 1.362 . S
C1679 H1669 0.930 . S
C1679 C1672 1.409 . S
C1679 C1678 1.362 . S
H1680 C1686 0.930 . S
H1681 C1689 0.930 . S
H1682 C1690 0.930 . S
H1683 C1691 0.930 . S
H1684 C1694 0.930 . S
H1685 C1695 0.930 . S
C1686 H1680 0.930 . S
C1686 C1687 1.355 . S
C1686 C1688 1.415 . S
C1687 C1686 1.355 . S
C1687 C1689 1.419 . S
C1688 C1686 1.415 . S
C1688 C1693 1.425 . S
C1688 C1695 1.409 . S
C1689 H1681 0.930 . S
C1689 C1687 1.419 . S
C1689 C1690 1.362 . S
C1690 H1682 0.930 . S
C1690 C1689 1.362 . S
C1690 C1693 1.409 . S
C1691 H1683 0.930 . S
C1691 C1692 1.355 . S
C1691 C1693 1.415 . S
C1692 C1691 1.355 . S
C1692 C1694 1.419 . S
C1693 C1688 1.425 . S
C1693 C1690 1.409 . S
C1693 C1691 1.415 . S
C1694 H1684 0.930 . S
C1694 C1692 1.419 . S
C1694 C1695 1.362 . S
C1695 H1685 0.930 . S
C1695 C1688 1.409 . S
C1695 C1694 1.362 . S
H1696 C1702 0.930 . S
H1697 C1705 0.930 . S
H1698 C1706 0.930 . S
H1699 C1707 0.930 . S
H1700 C1710 0.930 . S
H1701 C1711 0.930 . S
C1702 H1696 0.930 . S
C1702 C1703 1.355 . S
C1702 C1704 1.415 . S
C1703 C1702 1.355 . S
C1703 C1705 1.419 . S
C1704 C1702 1.415 . S
C1704 C1709 1.425 . S
C1704 C1711 1.409 . S
C1705 H1697 0.930 . S
C1705 C1703 1.419 . S
C1705 C1706 1.362 . S
C1706 H1698 0.930 . S
C1706 C1705 1.362 . S
C1706 C1709 1.409 . S
C1707 H1699 0.930 . S
C1707 C1708 1.355 . S
C1707 C1709 1.415 . S
C1708 C1707 1.355 . S
C1708 C1710 1.419 . S
C1709 C1704 1.425 . S
C1709 C1706 1.409 . S
C1709 C1707 1.415 . S
C1710 H1700 0.930 . S
C1710 C1708 1.419 . S
C1710 C1711 1.362 . S
C1711 H1701 0.930 . S
C1711 C1704 1.409 . S
C1711 C1710 1.362 . S
H1712 C1718 0.930 . S
H1713 C1721 0.930 . S
H1714 C1722 0.930 . S
H1715 C1723 0.930 . S
H1716 C1726 0.930 . S
H1717 C1727 0.930 . S
C1718 H1712 0.930 . S
C1718 C1719 1.355 . S
C1718 C1720 1.415 . S
C1719 C1718 1.355 . S
C1719 C1721 1.419 . S
C1720 C1718 1.415 . S
C1720 C1725 1.425 . S
C1720 C1727 1.409 . S
C1721 H1713 0.930 . S
C1721 C1719 1.419 . S
C1721 C1722 1.362 . S
C1722 H1714 0.930 . S
C1722 C1721 1.362 . S
C1722 C1725 1.409 . S
C1723 H1715 0.930 . S
C1723 C1724 1.355 . S
C1723 C1725 1.415 . S
C1724 C1723 1.355 . S
C1724 C1726 1.419 . S
C1725 C1720 1.425 . S
C1725 C1722 1.409 . S
C1725 C1723 1.415 . S
C1726 H1716 0.930 . S
C1726 C1724 1.419 . S
C1726 C1727 1.362 . S
C1727 H1717 0.930 . S
C1727 C1720 1.409 . S
C1727 C1726 1.362 . S
H1728 C1734 0.930 . S
H1729 C1737 0.930 . S
H1730 C1738 0.930 . S
H1731 C1739 0.930 . S
H1732 C1742 0.930 . S
H1733 C1743 0.930 . S
C1734 H1728 0.930 . S
C1734 C1735 1.355 . S
C1734 C1736 1.415 . S
C1735 C1734 1.355 . S
C1735 C1737 1.419 . S
C1736 C1734 1.415 . S
C1736 C1741 1.425 . S
C1736 C1743 1.409 . S
C1737 H1729 0.930 . S
C1737 C1735 1.419 . S
C1737 C1738 1.362 . S
C1738 H1730 0.930 . S
C1738 C1737 1.362 . S
C1738 C1741 1.409 . S
C1739 H1731 0.930 . S
C1739 C1740 1.355 . S
C1739 C1741 1.415 . S
C1740 C1739 1.355 . S
C1740 C1742 1.419 . S
C1741 C1736 1.425 . S
C1741 C1738 1.409 . S
C1741 C1739 1.415 . S
C1742 H1732 0.930 . S
C1742 C1740 1.419 . S
C1742 C1743 1.362 . S
C1743 H1733 0.930 . S
C1743 C1736 1.409 . S
C1743 C1742 1.362 . S
H1744 C1750 0.930 . S
H1745 C1753 0.930 . S
H1746 C1754 0.930 . S
H1747 C1755 0.930 . S
H1748 C1758 0.930 . S
H1749 C1759 0.930 . S
C1750 H1744 0.930 . S
C1750 C1751 1.355 . S
C1750 C1752 1.415 . S
C1751 C1750 1.355 . S
C1751 C1753 1.419 . S
C1752 C1750 1.415 . S
C1752 C1757 1.425 . S
C1752 C1759 1.409 . S
C1753 H1745 0.930 . S
C1753 C1751 1.419 . S
C1753 C1754 1.362 . S
C1754 H1746 0.930 . S
C1754 C1753 1.362 . S
C1754 C1757 1.409 . S
C1755 H1747 0.930 . S
C1755 C1756 1.355 . S
C1755 C1757 1.415 . S
C1756 C1755 1.355 . S
C1756 C1758 1.419 . S
C1757 C1752 1.425 . S
C1757 C1754 1.409 . S
C1757 C1755 1.415 . S
C1758 H1748 0.930 . S
C1758 C1756 1.419 . S
C1758 C1759 1.362 . S
C1759 H1749 0.930 . S
C1759 C1752 1.409 . S
C1759 C1758 1.362 . S
H1760 C1766 0.930 . S
H1761 C1769 0.930 . S
H1762 C1770 0.930 . S
H1763 C1771 0.930 . S
H1764 C1774 0.930 . S
H1765 C1775 0.930 . S
C1766 H1760 0.930 . S
C1766 C1767 1.355 . S
C1766 C1768 1.415 . S
C1767 C1766 1.355 . S
C1767 C1769 1.419 . S
C1768 C1766 1.415 . S
C1768 C1773 1.425 . S
C1768 C1775 1.409 . S
C1769 H1761 0.930 . S
C1769 C1767 1.419 . S
C1769 C1770 1.362 . S
C1770 H1762 0.930 . S
C1770 C1769 1.362 . S
C1770 C1773 1.409 . S
C1771 H1763 0.930 . S
C1771 C1772 1.355 . S
C1771 C1773 1.415 . S
C1772 C1771 1.355 . S
C1772 C1774 1.419 . S
C1773 C1768 1.425 . S
C1773 C1770 1.409 . S
C1773 C1771 1.415 . S
C1774 H1764 0.930 . S
C1774 C1772 1.419 . S
C1774 C1775 1.362 . S
C1775 H1765 0.930 . S
C1775 C1768 1.409 . S
C1775 C1774 1.362 . S
H1776 C1782 0.930 . S
H1777 C1785 0.930 . S
H1778 C1786 0.930 . S
H1779 C1787 0.930 . S
H1780 C1790 0.930 . S
H1781 C1791 0.930 . S
C1782 H1776 0.930 . S
C1782 C1783 1.355 . S
C1782 C1784 1.415 . S
C1783 C1782 1.355 . S
C1783 C1785 1.419 . S
C1784 C1782 1.415 . S
C1784 C1789 1.425 . S
C1784 C1791 1.409 . S
C1785 H1777 0.930 . S
C1785 C1783 1.419 . S
C1785 C1786 1.362 . S
C1786 H1778 0.930 . S
C1786 C1785 1.362 . S
C1786 C1789 1.409 . S
C1787 H1779 0.930 . S
C1787 C1788 1.355 . S
C1787 C1789 1.415 . S
C1788 C1787 1.355 . S
C1788 C1790 1.419 . S
C1789 C1784 1.425 . S
C1789 C1786 1.409 . S
C1789 C1787 1.415 . S
C1790 H1780 0.930 . S
C1790 C1788 1.419 . S
C1790 C1791 1.362 . S
C1791 H1781 0.930 . S
C1791 C1784 1.409 . S
C1791 C1790 1.362 . S
H1792 C1798 0.930 . S
H1793 C1801 0.930 . S
H1794 C1802 0.930 . S
H1795 C1803 0.930 . S
H1796 C1806 0.930 . S
H1797 C1807 0.930 . S
C1798 H1792 0.930 . S
C1798 C1799 1.355 . S
C1798 C1800 1.415 . S
C1799 C1798 1.355 . S
C1799 C1801 1.419 . S
C1800 C1798 1.415 . S
C1800 C1805 1.425 . S
C1800 C1807 1.409 . S
C1801 H1793 0.930 . S
C1801 C1799 1.419 . S
C1801 C1802 1.362 . S
C1802 H1794 0.930 . S
C1802 C1801 1.362 . S
C1802 C1805 1.409 . S
C1803 H1795 0.930 . S
C1803 C1804 1.355 . S
C1803 C1805 1.415 . S
C1804 C1803 1.355 . S
C1804 C1806 1.419 . S
C1805 C1800 1.425 . S
C1805 C1802 1.409 . S
C1805 C1803 1.415 . S
C1806 H1796 0.930 . S
C1806 C1804 1.419 . S
C1806 C1807 1.362 . S
C1807 H1797 0.930 . S
C1807 C1800 1.409 . S
C1807 C1806 1.362 . S
H1808 C1814 0.930 . S
H1809 C1817 0.930 . S
H1810 C1818 0.930 . S
H1811 C1819 0.930 . S
H1812 C1822 0.930 . S
H1813 C1823 0.930 . S
C1814 H1808 0.930 . S
C1814 C1815 1.355 . S
C1814 C1816 1.415 . S
C1815 C1814 1.355 . S
C1815 C1817 1.419 . S
C1816 C1814 1.415 . S
C1816 C1821 1.425 . S
C1816 C1823 1.409 . S
C1817 H1809 0.930 . S
C1817 C1815 1.419 . S
C1817 C1818 1.362 . S
C1818 H1810 0.930 . S
C1818 C1817 1.362 . S
C1818 C1821 1.409 . S
C1819 H1811 0.930 . S
C1819 C1820 1.355 . S
C1819 C1821 1.415 . S
C1820 C1819 1.355 . S
C1820 C1822 1.419 . S
C1821 C1816 1.425 . S
C1821 C1818 1.409 . S
C1821 C1819 1.415 . S
C1822 H1812 0.930 . S
C1822 C1820 1.419 . S
C1822 C1823 1.362 . S
C1823 H1813 0.930 . S
C1823 C1816 1.409 . S
C1823 C1822 1.362 . S
H1824 C1830 0.930 . S
H1825 C1833 0.930 . S
H1826 C1834 0.930 . S
H1827 C1835 0.930 . S
H1828 C1838 0.930 . S
H1829 C1839 0.930 . S
C1830 H1824 0.930 . S
C1830 C1831 1.355 . S
C1830 C1832 1.415 . S
C1831 C1830 1.355 . S
C1831 C1833 1.419 . S
C1832 C1830 1.415 . S
C1832 C1837 1.425 . S
C1832 C1839 1.409 . S
C1833 H1825 0.930 . S
C1833 C1831 1.419 . S
C1833 C1834 1.362 . S
C1834 H1826 0.930 . S
C1834 C1833 1.362 . S
C1834 C1837 1.409 . S
C1835 H1827 0.930 . S
C1835 C1836 1.355 . S
C1835 C1837 1.415 . S
C1836 C1835 1.355 . S
C1836 C1838 1.419 . S
C1837 C1832 1.425 . S
C1837 C1834 1.409 . S
C1837 C1835 1.415 . S
C1838 H1828 0.930 . S
C1838 C1836 1.419 . S
C1838 C1839 1.362 . S
C1839 H1829 0.930 . S
C1839 C1832 1.409 . S
C1839 C1838 1.362 . S
H1840 C1846 0.930 . S
H1841 C1849 0.930 . S
H1842 C1850 0.930 . S
H1843 C1851 0.930 . S
H1844 C1854 0.930 . S
H1845 C1855 0.930 . S
C1846 H1840 0.930 . S
C1846 C1847 1.355 . S
C1846 C1848 1.415 . S
C1847 C1846 1.355 . S
C1847 C1849 1.419 . S
C1848 C1846 1.415 . S
C1848 C1853 1.425 . S
C1848 C1855 1.409 . S
C1849 H1841 0.930 . S
C1849 C1847 1.419 . S
C1849 C1850 1.362 . S
C1850 H1842 0.930 . S
C1850 C1849 1.362 . S
C1850 C1853 1.409 . S
C1851 H1843 0.930 . S
C1851 C1852 1.355 . S
C1851 C1853 1.415 . S
C1852 C1851 1.355 . S
C1852 C1854 1.419 . S
C1853 C1848 1.425 . S
C1853 C1850 1.409 . S
C1853 C1851 1.415 . S
C1854 H1844 0.930 . S
C1854 C1852 1.419 . S
C1854 C1855 1.362 . S
C1855 H1845 0.930 . S
C1855 C1848 1.409 . S
C1855 C1854 1.362 . S
H1856 C1862 0.930 . S
H1857 C1865 0.930 . S
H1858 C1866 0.930 . S
H1859 C1867 0.930 . S
H1860 C1870 0.930 . S
H1861 C1871 0.930 . S
C1862 H1856 0.930 . S
C1862 C1863 1.355 . S
C1862 C1864 1.415 . S
C1863 C1862 1.355 . S
C1863 C1865 1.419 . S
C1864 C1862 1.415 . S
C1864 C1869 1.425 . S
C1864 C1871 1.409 . S
C1865 H1857 0.930 . S
C1865 C1863 1.419 . S
C1865 C1866 1.362 . S
C1866 H1858 0.930 . S
C1866 C1865 1.362 . S
C1866 C1869 1.409 . S
C1867 H1859 0.930 . S
C1867 C1868 1.355 . S
C1867 C1869 1.415 . S
C1868 C1867 1.355 . S
C1868 C1870 1.419 . S
C1869 C1864 1.425 . S
C1869 C1866 1.409 . S
C1869 C1867 1.415 . S
C1870 H1860 0.930 . S
C1870 C1868 1.419 . S
C1870 C1871 1.362 . S
C1871 H1861 0.930 . S
C1871 C1864 1.409 . S
C1871 C1870 1.362 . S
H1872 C1878 0.930 . S
H1873 C1881 0.930 . S
H1874 C1882 0.930 . S
H1875 C1883 0.930 . S
H1876 C1886 0.930 . S
H1877 C1887 0.930 . S
C1878 H1872 0.930 . S
C1878 C1879 1.355 . S
C1878 C1880 1.415 . S
C1879 C1878 1.355 . S
C1879 C1881 1.419 . S
C1880 C1878 1.415 . S
C1880 C1885 1.425 . S
C1880 C1887 1.409 . S
C1881 H1873 0.930 . S
C1881 C1879 1.419 . S
C1881 C1882 1.362 . S
C1882 H1874 0.930 . S
C1882 C1881 1.362 . S
C1882 C1885 1.409 . S
C1883 H1875 0.930 . S
C1883 C1884 1.355 . S
C1883 C1885 1.415 . S
C1884 C1883 1.355 . S
C1884 C1886 1.419 . S
C1885 C1880 1.425 . S
C1885 C1882 1.409 . S
C1885 C1883 1.415 . S
C1886 H1876 0.930 . S
C1886 C1884 1.419 . S
C1886 C1887 1.362 . S
C1887 H1877 0.930 . S
C1887 C1880 1.409 . S
C1887 C1886 1.362 . S
H1888 C1894 0.930 . S
H1889 C1897 0.930 . S
H1890 C1898 0.930 . S
H1891 C1899 0.930 . S
H1892 C1902 0.930 . S
H1893 C1903 0.930 . S
C1894 H1888 0.930 . S
C1894 C1895 1.355 . S
C1894 C1896 1.415 . S
C1895 C1894 1.355 . S
C1895 C1897 1.419 . S
C1896 C1894 1.415 . S
C1896 C1901 1.425 . S
C1896 C1903 1.409 . S
C1897 H1889 0.930 . S
C1897 C1895 1.419 . S
C1897 C1898 1.362 . S
C1898 H1890 0.930 . S
C1898 C1897 1.362 . S
C1898 C1901 1.409 . S
C1899 H1891 0.930 . S
C1899 C1900 1.355 . S
C1899 C1901 1.415 . S
C1900 C1899 1.355 . S
C1900 C1902 1.419 . S
C1901 C1896 1.425 . S
C1901 C1898 1.409 . S
C1901 C1899 1.415 . S
C1902 H1892 0.930 . S
C1902 C1900 1.419 . S
C1902 C1903 1.362 . S
C1903 H1893 0.930 . S
C1903 C1896 1.409 . S
C1903 C1902 1.362 . S
H1904 C1910 0.930 . S
H1905 C1913 0.930 . S
H1906 C1914 0.930 . S
H1907 C1915 0.930 . S
H1908 C1918 0.930 . S
H1909 C1919 0.930 . S
C1910 H1904 0.930 . S
C1910 C1911 1.355 . S
C1910 C1912 1.415 . S
C1911 C1910 1.355 . S
C1911 C1913 1.419 . S
C1912 C1910 1.415 . S
C1912 C1917 1.425 . S
C1912 C1919 1.409 . S
C1913 H1905 0.930 . S
C1913 C1911 1.419 . S
C1913 C1914 1.362 . S
C1914 H1906 0.930 . S
C1914 C1913 1.362 . S
C1914 C1917 1.409 . S
C1915 H1907 0.930 . S
C1915 C1916 1.355 . S
C1915 C1917 1.415 . S
C1916 C1915 1.355 . S
C1916 C1918 1.419 . S
C1917 C1912 1.425 . S
C1917 C1914 1.409 . S
C1917 C1915 1.415 . S
C1918 H1908 0.930 . S
C1918 C1916 1.419 . S
C1918 C1919 1.362 . S
C1919 H1909 0.930 . S
C1919 C1912 1.409 . S
C1919 C1918 1.362 . S
C1415 C1289 1.707 . S
C1420 C29 1.709 . S
C1431 C196 1.747 . S
C1436 C20 1.749 . S
C1447 C997 1.700 . S
C1452 C137 1.702 . S
C1463 C145 1.732 . S
C1468 C645 1.728 . S
C1479 C233 1.740 . S
C1484 C1085 1.741 . S
C1495 C841 1.727 . S
C1500 C293 1.722 . S
C1511 C313 1.737 . S
C1516 C497 1.741 . S
C1527 C900 1.710 . S
C1532 C372 1.712 . S
C1543 C381 1.705 . S
C1548 C548 1.701 . S
C1559 C1349 1.706 . S
C1564 C489 1.709 . S
C1575 C733 1.705 . S
C1580 C585 1.702 . S
C1591 C1201 1.741 . S
C1596 C665 1.739 . S
C1607 C724 1.738 . S
C1612 C937 1.734 . S
C1623 C1369 1.690 . S
C1628 C849 1.694 . S
C1639 C1017 1.747 . S
C1644 C1193 1.749 . S
C1655 C1252 1.732 . S
C1660 C1076 1.736 . S
C1671 C460 0.992 . S
C1676 C57 0.996 . S
C1687 C49 1.041 . S
C1692 C469 1.060 . S
C1703 C108 0.994 . S
C1708 C401 0.994 . S
C1719 C409 1.054 . S
C1724 C117 1.030 . S
C1735 C636 1.058 . S
C1740 C205 1.029 . S
C1751 C673 1.069 . S
C1756 C225 1.051 . S
C1767 C557 1.013 . S
C1772 C321 1.003 . S
C1783 C284 1.048 . S
C1788 C577 1.018 . S
C1799 C1173 0.997 . S
C1804 C761 0.991 . S
C1815 C753 1.028 . S
C1820 C1164 1.001 . S
C1831 C812 1.032 . S
C1836 C1113 1.004 . S
C1847 C1105 1.018 . S
C1852 C821 1.046 . S
C1863 C1377 1.004 . S
C1868 C929 1.009 . S
C1879 C1340 1.050 . S
C1884 C909 1.068 . S
C1895 C1025 1.054 . S
C1900 C1261 1.024 . S
C1911 C1281 1.027 . S
C1916 C988 1.004 . S
