# Generated by pormake.
# Topology qdl, (4)-cn, num edge types: 1
# Building blocks:
#     Node 0, Type 0, BuildingBlock: KOZSID_clean_sbu_0, # of connection points: 4
#     Node 1, Type 0, BuildingBlock: KOZSID_clean_sbu_0, # of connection points: 4
#     Node 2, Type 0, BuildingBlock: KOZSID_clean_sbu_0, # of connection points: 4
#     Node 3, Type 0, BuildingBlock: KOZSID_clean_sbu_0, # of connection points: 4
#     Node 4, Type 0, BuildingBlock: KOZSID_clean_sbu_0, # of connection points: 4
#     Node 5, Type 0, BuildingBlock: KOZSID_clean_sbu_0, # of connection points: 4
#     Edge 6, Type (0, 0), BuildingBlock: TEMPAE_clean_linker_10, # of connection points: 2
#     Edge 7, Type (0, 0), BuildingBlock: TEMPAE_clean_linker_10, # of connection points: 2
#     Edge 8, Type (0, 0), BuildingBlock: TEMPAE_clean_linker_10, # of connection points: 2
#     Edge 9, Type (0, 0), BuildingBlock: TEMPAE_clean_linker_10, # of connection points: 2
#     Edge 10, Type (0, 0), BuildingBlock: TEMPAE_clean_linker_10, # of connection points: 2
#     Edge 11, Type (0, 0), BuildingBlock: TEMPAE_clean_linker_10, # of connection points: 2
#     Edge 12, Type (0, 0), BuildingBlock: TEMPAE_clean_linker_10, # of connection points: 2
#     Edge 13, Type (0, 0), BuildingBlock: TEMPAE_clean_linker_10, # of connection points: 2
#     Edge 14, Type (0, 0), BuildingBlock: TEMPAE_clean_linker_10, # of connection points: 2
#     Edge 15, Type (0, 0), BuildingBlock: TEMPAE_clean_linker_10, # of connection points: 2
#     Edge 16, Type (0, 0), BuildingBlock: TEMPAE_clean_linker_10, # of connection points: 2
#     Edge 17, Type (0, 0), BuildingBlock: TEMPAE_clean_linker_10, # of connection points: 2
# Relax obj value: 0.000
# Max RMSD: 0.050
# Mean RMSD: 0.048
data_MOF--net-qdl--node1-KOZSID_clean_sbu_0--edge1-TEMPAE_clean_linker_10
_symmetry_space_group_name_H-M    P1
_symmetry_Int_Tables_number       1
_symmetry_cell_setting            triclinic
loop_
_symmetry_equiv_pos_as_xyz
'x, y, z'
_cell_length_a     16.827096
_cell_length_b     16.85737
_cell_length_c     117.77345
_cell_angle_alpha  101.67739
_cell_angle_beta   101.67174
_cell_angle_gamma 120.0969
loop_
_atom_site_label
_atom_site_type_symbol
_atom_site_fract_x
_atom_site_fract_y
_atom_site_fract_z
_atom_type_partial_charge
C0 C 0.28453 0.53943 0.10118 0.0
C1 C 0.19314 0.52554 0.09753 0.0
C2 C 0.12403 0.42698 0.09327 0.0
C3 C 0.17647 0.3861 0.09434 0.0
N4 N 0.27515 0.45252 0.09925 0.0
Co5 Co 0.37834 0.42398 0.10051 0.0
N6 N 0.27603 0.27844 0.093 0.0
C7 C 0.17736 0.23257 0.08953 0.0
C8 C 0.12617 0.13273 0.08612 0.0
C9 C 0.19616 0.11328 0.08767 0.0
C10 C 0.28675 0.20291 0.09175 0.0
N11 N 0.48145 0.39625 0.10129 0.0
C12 C 0.47195 0.3094 0.09797 0.0
C13 C 0.56199 0.32259 0.09914 0.0
C14 C 0.63129 0.42146 0.10382 0.0
C15 C 0.57969 0.46277 0.10507 0.0
N16 N 0.48074 0.56874 0.1085 0.0
C17 C 0.57945 0.6145 0.11311 0.0
C18 C 0.63056 0.71442 0.11863 0.0
C19 C 0.56032 0.73378 0.11727 0.0
C20 C 0.47024 0.64418 0.11081 0.0
N21 N 0.38189 0.41671 0.11726 0.0
C22 C 0.38587 0.40181 0.14081 0.0
C23 C 0.47268 0.44913 0.13835 0.0
C24 C 0.46898 0.45484 0.12658 0.0
C25 C 0.2972 0.36257 0.13132 0.0
C26 C 0.29695 0.37158 0.11978 0.0
N27 N 0.3748 0.43126 0.08376 0.0
C28 C 0.45702 0.50193 0.07024 0.0
C29 C 0.36847 0.44438 0.06005 0.0
C30 C 0.28331 0.37991 0.06198 0.0
C31 C 0.28806 0.37462 0.07377 0.0
C32 C 0.45853 0.49432 0.08189 0.0
H33 H 0.22035 0.32416 0.07455 0.0
H34 H 0.52831 0.54077 0.08926 0.0
H35 H 0.53748 0.48976 0.1252 0.0
H36 H 0.227 0.34114 0.11302 0.0
C37 C 0.13517 0.2856 0.09014 0.0
C38 C 0.37834 0.63554 0.10589 0.0
C39 C 0.38123 0.21368 0.09481 0.0
C40 C 0.62193 0.56276 0.11087 0.0
H41 H 0.17675 0.57976 0.09751 0.0
H42 H 0.04496 0.38939 0.08939 0.0
H43 H 0.04749 0.08055 0.08327 0.0
H44 H 0.18096 0.04102 0.08625 0.0
H45 H 0.57644 0.26645 0.09725 0.0
H46 H 0.71018 0.45868 0.10644 0.0
H47 H 0.70956 0.76722 0.12267 0.0
H48 H 0.57401 0.80603 0.12019 0.0
H49 H 0.54309 0.47999 0.14541 0.0
H50 H 0.22815 0.32608 0.13286 0.0
H51 H 0.52498 0.5539 0.0693 0.0
H52 H 0.21299 0.33252 0.05438 0.0
C53 C 0.44335 0.24654 0.43304 0.0
C54 C 0.53552 0.33375 0.43663 0.0
C55 C 0.52025 0.40513 0.43586 0.0
C56 C 0.42028 0.35833 0.43177 0.0
N57 N 0.37121 0.26198 0.43009 0.0
Co58 Co 0.22568 0.16747 0.42272 0.0
N59 N 0.20467 0.27464 0.4258 0.0
C60 C 0.27245 0.37016 0.42836 0.0
C61 C 0.23985 0.42841 0.43154 0.0
C62 C 0.14566 0.36555 0.43093 0.0
C63 C 0.12491 0.27146 0.42709 0.0
N64 N 0.08075 0.074 0.41521 0.0
C65 C 1.00997 0.08768 0.41649 0.0
C66 C 0.91701 1.00382 0.40922 0.0
C67 C 0.93077 0.93491 0.40342 0.0
C68 C 0.03093 0.98068 0.40736 0.0
N69 N 0.24526 0.05935 0.41968 0.0
C70 C 0.17627 0.9651 0.4122 0.0
C71 C 0.20852 0.90507 0.41257 0.0
C72 C 0.30435 0.96556 0.42056 0.0
C73 C 0.32621 0.06012 0.42442 0.0
N74 N 0.22091 0.1611 0.43901 0.0
C75 C 0.20163 0.15394 0.462 0.0
C76 C 0.15099 0.06778 0.45151 0.0
C77 C 0.16174 0.07293 0.44016 0.0
C78 C 0.264 0.24354 0.46074 0.0
C79 C 0.27276 0.24547 0.44923 0.0
N80 N 0.23025 0.17406 0.40638 0.0
C81 C 0.30721 0.1782 0.39113 0.0
C82 C 0.24085 0.18805 0.38324 0.0
C83 C 0.16845 0.19014 0.38723 0.0
C84 C 0.16473 0.18354 0.39881 0.0
C85 C 0.30013 0.17046 0.40251 0.0
H86 H 0.10876 0.18617 0.40165 0.0
H87 H 0.35222 0.1624 0.4082 0.0
H88 H 0.12075 1.00551 0.43225 0.0
H89 H 0.31984 0.31569 0.44853 0.0
C90 C 0.37072 0.40407 0.43056 0.0
C91 C 0.42716 0.14931 0.43092 0.0
C92 C 0.02885 0.17983 0.42421 0.0
C93 C 0.0792 0.93366 0.40621 0.0
H94 H 0.60683 0.34515 0.43909 0.0
H95 H 0.5756 0.48203 0.43803 0.0
H96 H 0.28187 0.50782 0.43485 0.0
H97 H 0.09977 0.38805 0.43341 0.0
H98 H 0.84669 0.99311 0.40831 0.0
H99 H 0.87435 0.85902 0.3976 0.0
H100 H 0.16688 0.82643 0.4078 0.0
H101 H 0.35353 0.94302 0.4229 0.0
H102 H 0.10324 0.99661 0.45204 0.0
H103 H 0.30395 0.31226 0.46851 0.0
H104 H 0.36572 0.17796 0.38867 0.0
H105 H 0.11429 0.19602 0.38145 0.0
C106 C 0.26822 0.50099 0.7614 0.0
C107 C 0.26156 0.57912 0.76078 0.0
C108 C 0.16559 0.54654 0.7584 0.0
C109 C 0.11877 0.4505 0.75748 0.0
N110 N 0.17912 0.41988 0.75939 0.0
Co111 Co 0.13833 0.28135 0.75666 0.0
N112 N 0.9956 0.23152 0.75201 0.0
C113 C 0.95797 0.28602 0.75195 0.0
C114 C 0.85981 0.23492 0.75009 0.0
C115 C 0.83306 0.1424 0.74914 0.0
C116 C 0.91668 0.14179 0.75025 0.0
N117 N 0.09781 0.14273 0.75328 0.0
C118 C 1.00754 0.05954 0.74999 0.0
C119 C 1.01054 0.97715 0.74775 0.0
C120 C 0.10691 1.01013 0.75021 0.0
C121 C 0.1568 0.11015 0.75361 0.0
N122 N 0.2808 0.33126 0.762 0.0
C123 C 0.31939 0.27863 0.76339 0.0
C124 C 0.42022 0.33426 0.76781 0.0
C125 C 0.4475 0.42769 0.76912 0.0
C126 C 0.36124 0.42318 0.76522 0.0
N127 N 0.14699 0.29925 0.7742 0.0
C128 C 0.15634 0.32085 0.79895 0.0
C129 C 0.18492 0.26519 0.79283 0.0
C130 C 0.17937 0.25514 0.78057 0.0
C131 C 0.1228 0.36548 0.79245 0.0
C132 C 0.1192 0.35424 0.7802 0.0
N133 N 0.12996 0.26333 0.73911 0.0
C134 C 0.18487 0.2291 0.7224 0.0
C135 C 0.12353 0.24338 0.71442 0.0
C136 C 0.0651 0.26756 0.71906 0.0
C137 C 0.0696 0.27733 0.73131 0.0
C138 C 0.18655 0.23879 0.73453 0.0
H139 H 1.02372 0.29657 0.73426 0.0
H140 H 0.23507 0.2268 0.74005 0.0
H141 H 0.20109 0.21061 0.77642 0.0
H142 H 0.09345 0.39049 0.77577 0.0
C143 C 1.01771 0.38618 0.75427 0.0
C144 C 0.35909 0.50503 0.76331 0.0
C145 C 0.91945 0.05623 0.75015 0.0
C146 C 0.2591 0.17601 0.75884 0.0
H147 H 0.31849 0.65154 0.76154 0.0
H148 H 0.13316 0.58702 0.75703 0.0
H149 H 0.81398 0.26262 0.74992 0.0
H150 H 0.76053 0.08386 0.74814 0.0
H151 H 0.94989 0.90156 0.74518 0.0
H152 H 0.13745 0.96685 0.75014 0.0
H153 H 0.46804 0.30916 0.76929 0.0
H154 H 0.52223 0.49112 0.77199 0.0
H155 H 0.21006 0.22796 0.7974 0.0
H156 H 0.10052 0.40999 0.79683 0.0
H157 H 0.23294 0.21189 0.71941 0.0
H158 H 1.01519 0.27814 0.71325 0.0
C159 C 0.97674 0.24122 0.58215 0.0
C160 C 0.98322 0.32826 0.58654 0.0
C161 C 0.07935 0.39966 0.59379 0.0
C162 C 0.12644 0.35301 0.59357 0.0
N163 N 0.06644 0.25676 0.58647 0.0
Co164 Co 0.10505 0.16239 0.58518 0.0
N165 N 0.24746 0.26974 0.59182 0.0
C166 C 0.28783 0.36519 0.59796 0.0
C167 C 0.38639 0.42362 0.60003 0.0
C168 C 0.40942 0.36094 0.59491 0.0
C169 C 0.32366 0.26679 0.59021 0.0
N170 N 0.14424 0.06906 0.58414 0.0
C171 C 0.23063 0.083 0.58411 0.0
C172 C 0.22879 0.99924 0.58377 0.0
C173 C 0.13698 0.93013 0.58331 0.0
C174 C 0.08848 0.97569 0.58352 0.0
N175 N 0.963 0.0541 0.5784 0.0
C176 C 0.92534 0.95984 0.57731 0.0
C177 C 0.82505 0.89976 0.57153 0.0
C178 C 0.79759 0.96023 0.56907 0.0
C179 C 0.88281 0.05482 0.57377 0.0
N180 N 0.10253 0.15669 0.56832 0.0
C181 C 0.11409 0.15075 0.54473 0.0
C182 C 0.06734 0.06427 0.54735 0.0
C183 C 0.06219 0.06881 0.55915 0.0
C184 C 0.15275 0.24 0.55415 0.0
C185 C 0.146 0.24132 0.56582 0.0
N186 N 0.10806 0.16835 0.6021 0.0
C187 C 0.03497 0.16996 0.61768 0.0
C188 C 0.11307 0.18059 0.62644 0.0
C189 C 0.18863 0.18452 0.62268 0.0
C190 C 0.18486 0.17854 0.61052 0.0
C191 C 0.03357 0.16339 0.60563 0.0
H192 H 0.2442 0.18217 0.60792 0.0
H193 H 0.97206 0.155 0.59922 0.0
H194 H 0.027 1.00119 0.5609 0.0
H195 H 0.17816 0.31131 0.57291 0.0
C196 C 0.22789 0.3989 0.5989 0.0
C197 C 0.88286 0.144 0.57539 0.0
C198 C 0.31605 0.17528 0.58476 0.0
C199 C 0.98692 0.9285 0.58042 0.0
H200 H 0.92473 0.33953 0.58515 0.0
H201 H 0.11104 0.47648 0.59863 0.0
H202 H 0.43425 0.50302 0.60395 0.0
H203 H 0.48078 0.38359 0.59445 0.0
H204 H 0.28713 0.98875 0.58372 0.0
H205 H 0.10758 0.85428 0.58225 0.0
H206 H 0.77765 0.82112 0.56916 0.0
H207 H 0.72279 0.93764 0.56472 0.0
H208 H 0.03484 0.99335 0.54033 0.0
H209 H 0.19046 0.30894 0.55266 0.0
H210 H 0.97556 0.16819 0.62012 0.0
H211 H 0.24995 0.19126 0.62902 0.0
C212 C 1.01372 0.27528 0.92176 0.0
C213 C 0.93688 0.2867 0.9212 0.0
C214 C 0.97851 0.38473 0.92695 0.0
C215 C 0.07805 0.42817 0.93047 0.0
N216 N 0.10168 0.36385 0.92703 0.0
Co217 Co 0.23685 0.39782 0.92943 0.0
N218 N 0.29154 0.5393 0.93348 0.0
C219 C 0.25 0.58475 0.93734 0.0
C220 C 0.30669 0.68391 0.93971 0.0
C221 C 0.3886 0.70153 0.93709 0.0
C222 C 0.37661 0.61155 0.93313 0.0
N223 N 0.37225 0.43307 0.93162 0.0
C224 C 0.44764 0.51151 0.93043 0.0
C225 C 0.52504 0.50113 0.93093 0.0
C226 C 0.49816 0.41544 0.93297 0.0
C227 C 0.4054 0.37696 0.93332 0.0
N228 N 0.18312 0.25616 0.92567 0.0
C229 C 0.2376 0.22048 0.92843 0.0
C230 C 0.18237 0.12161 0.92601 0.0
C231 C 0.0869 0.09299 0.92168 0.0
C232 C 0.08879 0.17643 0.92157 0.0
N233 N 0.21193 0.37937 0.9118 0.0
C234 C 0.19023 0.36456 0.88706 0.0
C235 C 0.22502 0.3161 0.89252 0.0
C236 C 0.23551 0.32462 0.90487 0.0
C237 C 0.16475 0.41908 0.8942 0.0
C238 C 0.17546 0.42497 0.90649 0.0
N239 N 0.26213 0.4163 0.94711 0.0
C240 C 0.37097 0.50273 0.96856 0.0
C241 C 0.2989 0.43532 0.97221 0.0
C242 C 0.20752 0.35999 0.96302 0.0
C243 C 0.19083 0.35174 0.95063 0.0
C244 C 0.35109 0.49199 0.95599 0.0
H245 H 0.11991 0.29213 0.94392 0.0
H246 H 0.40809 0.54431 0.95343 0.0
H247 H 0.26474 0.28845 0.90888 0.0
H248 H 0.15564 0.46778 0.91175 0.0
C249 C 0.15037 0.52939 0.93581 0.0
C250 C 1.00078 0.17928 0.91922 0.0
C251 C 0.44763 0.59711 0.92931 0.0
C252 C 0.34006 0.28009 0.93219 0.0
H253 H 0.85888 0.22958 0.91751 0.0
H254 H 0.9406 0.42011 0.92828 0.0
H255 H 0.28814 0.73617 0.94229 0.0
H256 H 0.44924 0.77209 0.93779 0.0
H257 H 0.59276 0.54795 0.92961 0.0
H258 H 0.53851 0.38169 0.9332 0.0
H259 H 0.20831 0.07567 0.92728 0.0
H260 H 1.02398 1.01934 0.91938 0.0
H261 H 0.24648 0.27388 0.8874 0.0
H262 H 0.1364 0.45674 0.89031 0.0
H263 H 0.44287 0.56213 0.97532 0.0
H264 H 0.14857 0.30744 0.96536 0.0
C265 C 0.24656 0.07698 0.25335 0.0
C266 C 0.15532 0.98738 0.24855 0.0
C267 C 0.08595 1.00734 0.2462 0.0
C268 C 0.13806 0.10741 0.24988 0.0
N269 N 0.23677 0.15292 0.25424 0.0
Co270 Co 0.33865 0.2979 0.26265 0.0
N271 N 0.23584 0.32707 0.2599 0.0
C272 C 0.13792 0.26123 0.25372 0.0
C273 C 0.08695 0.30283 0.25178 0.0
C274 C 0.1565 0.40141 0.25686 0.0
C275 C 0.24642 0.41448 0.26187 0.0
N276 N 0.44011 0.44173 0.2717 0.0
C277 C 0.42973 0.5173 0.27395 0.0
C278 C 0.5181 0.60534 0.28162 0.0
C279 C 0.58743 0.58504 0.28389 0.0
C280 C 0.53737 0.48601 0.27769 0.0
N281 N 0.44198 0.26994 0.2647 0.0
C282 C 0.5406 0.33635 0.2696 0.0
C283 C 0.59293 0.29535 0.26887 0.0
C284 C 0.52345 0.19667 0.26335 0.0
C285 C 0.43252 0.18327 0.26122 0.0
N286 N 0.35015 0.31178 0.24657 0.0
C287 C 0.36505 0.33546 0.22387 0.0
C288 C 0.44836 0.38831 0.23471 0.0
C289 C 0.43923 0.37617 0.2459 0.0
C290 C 0.27438 0.27005 0.22456 0.0
C291 C 0.26876 0.25869 0.23587 0.0
N292 N 0.32707 0.2841 0.27876 0.0
C293 C 0.39837 0.29562 0.2996 0.0
C294 C 0.30918 0.26186 0.30152 0.0
C295 C 0.22935 0.23975 0.2918 0.0
C296 C 0.23955 0.25055 0.28061 0.0
C297 C 0.40581 0.30667 0.28831 0.0
H298 H 0.1752 0.23113 0.27361 0.0
H299 H 0.47612 0.3332 0.28753 0.0
H300 H 0.50512 0.42027 0.25391 0.0
H301 H 0.19763 0.20676 0.23574 0.0
C302 C 0.09633 0.1607 0.24962 0.0
C303 C 0.34054 0.08737 0.25739 0.0
C304 C 0.34027 0.51062 0.26815 0.0
C305 C 0.58113 0.43495 0.27604 0.0
H306 H 0.13914 0.91477 0.24715 0.0
H307 H 1.00682 0.95523 0.24259 0.0
H308 H 1.00886 0.26587 0.24694 0.0
H309 H 0.1416 0.45636 0.25655 0.0
H310 H 0.53172 0.67742 0.28483 0.0
H311 H 0.66561 0.6369 0.28904 0.0
H312 H 0.67202 0.33237 0.27241 0.0
H313 H 0.53803 0.14053 0.26164 0.0
H314 H 0.52008 0.44035 0.23462 0.0
H315 H 0.20801 0.2268 0.21636 0.0
H316 H 0.46237 0.3125 0.3067 0.0
H317 H 0.15893 0.21502 0.29279 0.0
C318 C 0.33607 0.04179 0.08618 0.0
C319 C 0.38725 0.13091 0.09616 0.0
C320 C 0.33479 0.96106 0.08776 0.0
C321 C 0.39341 0.9728 0.09929 0.0
C322 C 0.45198 0.06543 0.10907 0.0
C323 C 0.44527 0.14231 0.10752 0.0
C324 C 0.26914 0.86319 0.07717 0.0
C325 C 0.52148 0.08421 0.12121 0.0
C326 C 0.3345 0.75792 0.10982 0.0
C327 C 0.38245 0.72268 0.10435 0.0
C328 C 0.33445 0.83709 0.10785 0.0
C329 C 0.39134 0.88765 0.10121 0.0
C330 C 0.44532 0.85609 0.09636 0.0
C331 C 0.43726 0.77178 0.09761 0.0
C332 C 0.27232 0.86522 0.11275 0.0
C333 C 0.51175 0.91016 0.08983 0.0
H334 H 0.29415 0.03429 0.07725 0.0
H335 H 0.48617 0.21191 0.1152 0.0
H336 H 0.31428 0.84939 0.0725 0.0
H337 H 0.23129 0.80248 0.08059 0.0
H338 H 0.21258 0.8613 0.07013 0.0
H339 H 0.5841 0.16279 0.12559 0.0
H340 H 0.48188 0.06643 0.12775 0.0
H341 H 0.55138 0.03878 0.11994 0.0
H342 H 0.29503 0.722 0.11541 0.0
H343 H 0.47537 0.74508 0.09349 0.0
H344 H 0.23561 0.88471 0.106 0.0
H345 H 0.31973 0.93005 0.12149 0.0
H346 H 0.21498 0.80481 0.1148 0.0
H347 H 0.47042 0.87603 0.07967 0.0
H348 H 0.57566 0.90427 0.09151 0.0
H349 H 0.53985 0.98913 0.09286 0.0
C350 C 0.59483 0.19081 0.44235 0.0
C351 C 0.51277 0.14199 0.43135 0.0
C352 C 0.68174 0.1979 0.44231 0.0
C353 C 0.68394 0.14875 0.4312 0.0
C354 C 0.59835 0.09259 0.42034 0.0
C355 C 0.51563 0.0935 0.42041 0.0
C356 C 0.77296 0.26368 0.45388 0.0
C357 C 0.5948 0.03403 0.40846 0.0
C358 C 0.91352 0.2343 0.42306 0.0
C359 C 0.94584 0.17906 0.42703 0.0
C360 C 0.83315 0.23065 0.42528 0.0
C361 C 0.77751 0.16291 0.43052 0.0
C362 C 0.80746 0.10403 0.43414 0.0
C363 C 0.89287 0.11489 0.43267 0.0
C364 C 0.80666 0.29787 0.42172 0.0
C365 C 0.74633 0.02555 0.43885 0.0
H366 H 0.59299 0.22884 0.45079 0.0
H367 H 0.45353 0.05739 0.41179 0.0
H368 H 0.80616 0.22418 0.45638 0.0
H369 H 0.82857 0.32715 0.45208 0.0
H370 H 0.75761 0.292 0.46194 0.0
H371 H 0.51793 0.97771 0.40195 0.0
H372 H 0.63364 0.08383 0.40373 0.0
H373 H 0.63191 0.99676 0.41043 0.0
H374 H 0.94972 0.27919 0.41796 0.0
H375 H 0.91613 0.07008 0.43545 0.0
H376 H 0.7868 0.32921 0.42898 0.0
H377 H 0.74206 0.25582 0.41294 0.0
H378 H 0.86815 0.35925 0.4203 0.0
H379 H 0.73113 0.05659 0.4467 0.0
H380 H 0.78262 0.98983 0.44192 0.0
H381 H 0.6742 0.96845 0.43132 0.0
C382 C 0.85919 0.94294 0.76179 0.0
C383 C 0.83858 0.97053 0.75172 0.0
C384 C 0.78441 0.86271 0.76351 0.0
C385 C 0.68579 0.81351 0.75547 0.0
C386 C 0.66466 0.84126 0.74528 0.0
C387 C 0.74212 0.91657 0.74321 0.0
C388 C 0.81158 0.83139 0.77397 0.0
C389 C 0.56041 0.79337 0.73671 0.0
C390 C 0.48025 0.56117 0.7526 0.0
C391 C 0.44502 0.5848 0.76164 0.0
C392 C 0.56183 0.63459 0.75092 0.0
C393 C 0.60457 0.73437 0.75783 0.0
C394 C 0.56857 0.75859 0.7669 0.0
C395 C 0.49213 0.68313 0.76908 0.0
C396 C 0.60133 0.60453 0.74171 0.0
C397 C 0.60893 0.86388 0.77412 0.0
H398 H 0.93421 0.98385 0.76828 0.0
H399 H 0.72685 0.9355 0.73515 0.0
H400 H 0.80062 0.86411 0.78216 0.0
H401 H 0.76501 0.75031 0.77127 0.0
H402 H 0.89002 0.85671 0.77682 0.0
H403 H 0.55565 0.83655 0.73094 0.0
H404 H 0.53227 0.71927 0.73038 0.0
H405 H 0.51135 0.78467 0.7421 0.0
H406 H 0.44449 0.48484 0.74693 0.0
H407 H 0.46722 0.70112 0.77638 0.0
H408 H 0.68246 0.65574 0.74477 0.0
H409 H 0.56793 0.60471 0.73259 0.0
H410 H 0.58246 0.5291 0.74033 0.0
H411 H 0.682 0.89845 0.7813 0.0
H412 H 0.56008 0.86924 0.77886 0.0
H413 H 0.61849 0.90684 0.7679 0.0
C414 C 0.37857 0.11055 0.57041 0.0
C415 C 0.39827 0.17471 0.58187 0.0
C416 C 0.45161 0.09953 0.56798 0.0
C417 C 0.54822 0.15827 0.57695 0.0
C418 C 0.56935 0.22609 0.58832 0.0
C419 C 0.49314 0.22991 0.59086 0.0
C420 C 0.42383 1.02104 0.55615 0.0
C421 C 0.67197 0.29318 0.59799 0.0
C422 C 0.73086 0.0881 0.58078 0.0
C423 C 0.78889 0.1366 0.57425 0.0
C424 C 0.64724 0.08749 0.58076 0.0
C425 C 0.62565 0.14389 0.575 0.0
C426 C 0.68373 0.19298 0.56837 0.0
C427 C 0.76251 0.18567 0.5677 0.0
C428 C 0.58422 0.02903 0.58732 0.0
C429 C 0.66739 0.25896 0.56277 0.0
H430 H 0.30455 0.06578 0.56356 0.0
H431 H 0.50779 0.27483 0.60002 0.0
H432 H 0.47432 0.05201 0.55113 0.0
H433 H 0.43103 0.96382 0.5585 0.0
H434 H 0.34712 0.98545 0.54983 0.0
H435 H 0.68003 0.35449 0.60499 0.0
H436 H 0.68884 0.25099 0.60294 0.0
H437 H 0.72738 0.32458 0.59358 0.0
H438 H 0.75181 0.05184 0.58611 0.0
H439 H 0.80767 0.22376 0.56273 0.0
H440 H 0.50492 0.99176 0.58194 0.0
H441 H 0.60163 0.07891 0.59655 0.0
H442 H 0.59721 0.97274 0.58875 0.0
H443 H 0.58948 0.21966 0.55668 0.0
H444 H 0.71491 0.28717 0.55728 0.0
H445 H 0.68385 0.3225 0.57032 0.0
C446 C 0.49674 0.70877 0.91715 0.0
C447 C 0.52479 0.6758 0.92621 0.0
C448 C 0.56725 0.78974 0.91496 0.0
C449 C 0.66865 0.83547 0.9215 0.0
C450 C 0.69733 0.80011 0.93035 0.0
C451 C 0.62513 0.72404 0.933 0.0
C452 C 0.53304 0.82956 0.90619 0.0
C453 C 0.80438 0.84379 0.93724 0.0
C454 C 0.85929 1.00035 0.90941 0.0
C455 C 0.90689 0.09256 0.91872 0.0
C456 C 0.78119 0.91565 0.91011 0.0
C457 C 0.74506 0.92457 0.91985 0.0
C458 C 0.7877 1.01883 0.92867 0.0
C459 C 0.87039 0.10075 0.9283 0.0
C460 C 0.74231 0.81629 0.90098 0.0
C461 C 0.74832 0.03328 0.93879 0.0
H462 H 0.41909 0.67337 0.91212 0.0
H463 H 0.64766 0.70385 0.94058 0.0
H464 H 0.55651 0.90489 0.91146 0.0
H465 H 0.56736 0.83515 0.89903 0.0
H466 H 0.45178 0.78329 0.90146 0.0
H467 H 0.81357 0.79547 0.94173 0.0
H468 H 0.84605 0.85659 0.93084 0.0
H469 H 0.83761 0.91563 0.94458 0.0
H470 H 0.88752 0.99378 0.90203 0.0
H471 H 0.90764 0.17126 0.93568 0.0
H472 H 0.66118 0.77295 0.8965 0.0
H473 H 0.75959 0.77463 0.90601 0.0
H474 H 0.77495 0.8221 0.89362 0.0
H475 H 0.66665 0.98657 0.93514 0.0
H476 H 0.77388 0.11112 0.94292 0.0
H477 H 0.77409 1.01199 0.94629 0.0
C478 C 0.29092 0.62825 0.27221 0.0
C479 C 0.34739 0.60102 0.26758 0.0
C480 C 0.29032 0.70798 0.27059 0.0
C481 C 0.35445 0.76666 0.2652 0.0
C482 C 0.41787 0.74422 0.26148 0.0
C483 C 0.41108 0.65954 0.26232 0.0
C484 C 0.21874 0.72712 0.27422 0.0
C485 C 0.49266 0.80931 0.2566 0.0
C486 C 0.29776 0.91604 0.24936 0.0
C487 C 0.34444 1.00472 0.25925 0.0
C488 C 0.29766 0.83668 0.25128 0.0
C489 C 0.35295 0.84962 0.26312 0.0
C490 C 0.40565 0.9413 0.27294 0.0
C491 C 0.39775 1.01666 0.271 0.0
C492 C 0.23659 0.73861 0.24072 0.0
C493 C 0.47066 0.96037 0.28548 0.0
H494 H 0.24424 0.58469 0.27667 0.0
H495 H 0.45592 0.63913 0.2589 0.0
H496 H 0.25929 0.79699 0.28224 0.0
H497 H 0.1766 0.73457 0.26644 0.0
H498 H 0.16588 0.66744 0.27682 0.0
H499 H 0.54641 0.7902 0.25603 0.0
H500 H 0.45493 0.80195 0.24718 0.0
H501 H 0.53346 0.88752 0.26267 0.0
H502 H 0.25932 0.90809 0.24019 0.0
H503 H 0.43474 0.08583 0.27864 0.0
H504 H 0.18874 0.67991 0.24386 0.0
H505 H 0.28518 0.71991 0.23768 0.0
H506 H 0.18943 0.73831 0.23258 0.0
H507 H 0.42465 0.92624 0.29084 0.0
H508 H 0.52312 0.04023 0.29098 0.0
H509 H 0.51317 0.92773 0.28445 0.0
C510 C 0.30878 0.36534 0.20478 0.0
C511 C 0.37226 0.3485 0.21192 0.0
C512 C 0.31379 0.37673 0.1934 0.0
C513 C 0.38265 0.36915 0.18891 0.0
C514 C 0.44694 0.35209 0.19609 0.0
C515 C 0.44163 0.34296 0.20757 0.0
C516 C 0.24523 0.39676 0.18617 0.0
C517 C 0.52014 0.34174 0.19155 0.0
C518 C 0.32426 0.30212 0.15401 0.0
C519 C 0.38737 0.3932 0.15316 0.0
C520 C 0.32348 0.29295 0.1656 0.0
C521 C 0.38596 0.37727 0.17659 0.0
C522 C 0.44998 0.46946 0.17577 0.0
C523 C 0.45061 0.47612 0.16407 0.0
C524 C 0.25552 0.193 0.16606 0.0
C525 C 0.51645 0.5614 0.18723 0.0
H526 H 0.25576 0.37067 0.20819 0.0
H527 H 0.49028 0.32919 0.21303 0.0
H528 H 0.28825 0.46503 0.18428 0.0
H529 H 0.19628 0.33598 0.17706 0.0
H530 H 0.19883 0.40463 0.19118 0.0
H531 H 0.56504 0.32879 0.19824 0.0
H532 H 0.48082 0.27955 0.18254 0.0
H533 H 0.5703 0.40898 0.1899 0.0
H534 H 0.27602 0.23771 0.14559 0.0
H535 H 0.49892 0.54675 0.16342 0.0
H536 H 0.20148 0.19346 0.17007 0.0
H537 H 0.29827 0.17487 0.17219 0.0
H538 H 0.21468 0.13415 0.15672 0.0
H539 H 0.47158 0.57432 0.19208 0.0
H540 H 0.56209 0.62731 0.18503 0.0
H541 H 0.56599 0.5524 0.1938 0.0
C542 C 0.11343 0.20993 0.52674 0.0
C543 C 0.12418 0.14827 0.53237 0.0
C544 C 0.12519 0.21012 0.51526 0.0
C545 C 0.14786 0.14681 0.50918 0.0
C546 C 0.15803 0.0838 0.51475 0.0
C547 C 0.14632 0.08544 0.52627 0.0
C548 C 0.11379 0.27851 0.50966 0.0
C549 C 0.18207 1.01512 0.50859 0.0
C550 C 0.09478 0.08707 0.47442 0.0
C551 C 0.18822 0.15069 0.47409 0.0
C552 C 0.08073 0.08445 0.48574 0.0
C553 C 0.1619 0.1473 0.49706 0.0
C554 C 0.25641 0.21145 0.49681 0.0
C555 C 0.26844 0.21221 0.48535 0.0
C556 C 0.97878 1.01492 0.48559 0.0
C557 C 0.34488 0.2797 0.50867 0.0
H558 H 0.09501 0.25775 0.53127 0.0
H559 H 0.15634 0.03861 0.53061 0.0
H560 H 0.18274 0.3289 0.50833 0.0
H561 H 0.05444 0.23566 0.50037 0.0
H562 H 0.09609 0.32318 0.51555 0.0
H563 H 0.18596 0.96962 0.51402 0.0
H564 H 0.12551 0.96556 0.49919 0.0
H565 H 0.25372 0.05792 0.5074 0.0
H566 H 0.03198 0.04033 0.4658 0.0
H567 H 0.34113 0.26065 0.48522 0.0
H568 H 0.95494 0.05702 0.49065 0.0
H569 H 0.97938 0.96524 0.49046 0.0
H570 H 0.92372 0.96955 0.47601 0.0
H571 H 0.33246 0.32952 0.51457 0.0
H572 H 0.41338 0.32497 0.50689 0.0
H573 H 0.35574 0.23669 0.51404 0.0
C574 C 0.24362 0.3494 0.82086 0.0
C575 C 0.1613 0.33157 0.81199 0.0
C576 C 0.24846 0.35699 0.83311 0.0
C577 C 0.16876 0.34587 0.83661 0.0
C578 C 0.08574 0.32865 0.82774 0.0
C579 C 0.08317 0.32209 0.81555 0.0
C580 C 0.33871 0.37631 0.84231 0.0
C581 C 0.99897 0.31564 0.83106 0.0
C582 C 0.14267 0.26975 0.86467 0.0
C583 C 0.18217 0.3594 0.87406 0.0
C584 C 0.13666 0.26413 0.85242 0.0
C585 C 0.17167 0.35039 0.84949 0.0
C586 C 0.21121 0.44108 0.85893 0.0
C587 C 0.21566 0.44443 0.87108 0.0
C588 C 0.09333 0.16589 0.84263 0.0
C589 C 0.25017 0.53486 0.85622 0.0
H590 H 0.30482 0.35809 0.81822 0.0
H591 H 1.0189 0.30727 0.80872 0.0
H592 H 0.37185 0.44365 0.85048 0.0
H593 H 0.31784 0.31456 0.84574 0.0
H594 H 0.39531 0.38546 0.8382 0.0
H595 H 0.94064 0.30411 0.82315 0.0
H596 H 0.96672 0.25162 0.83408 0.0
H597 H 1.02338 0.38118 0.83897 0.0
H598 H 0.11569 0.20362 0.86688 0.0
H599 H 0.24742 0.51417 0.87833 0.0
H600 H 0.1492 0.16876 0.83876 0.0
H601 H 0.03058 0.14845 0.83484 0.0
H602 H 0.06722 0.10538 0.84635 0.0
H603 H 0.31125 0.54981 0.8528 0.0
H604 H 0.27751 0.59914 0.86454 0.0
H605 H 0.19158 0.52698 0.84877 0.0
C606 C 0.28572 0.44655 0.03989 0.0
C607 C 0.36464 0.45078 0.04751 0.0
C608 C 0.279 0.44863 0.02787 0.0
C609 C 0.3532 0.45555 0.02334 0.0
C610 C 0.43408 0.46187 0.03107 0.0
C611 C 0.43877 0.45927 0.04304 0.0
C612 C 0.19148 0.44167 0.01994 0.0
C613 C 0.51467 0.46924 0.02659 0.0
C614 C 0.28145 0.35617 0.98829 0.0
C615 C 0.31777 0.44198 0.98542 0.0
C616 C 0.29334 0.35979 1.00057 0.0
C617 C 0.34364 0.45159 0.01032 0.0
C618 C 0.38258 0.53878 1.00756 0.0
C619 C 0.36913 0.53296 0.99515 0.0
C620 C 0.25071 0.26502 1.00308 0.0
C621 C 0.43691 0.63807 0.0177 0.0
H622 H 0.22895 0.44173 0.04332 0.0
H623 H 0.49947 0.46148 0.04878 0.0
H624 H 0.2166 0.50504 0.01678 0.0
H625 H 0.1487 0.37409 0.01152 0.0
H626 H 0.14181 0.43999 0.02498 0.0
H627 H 0.57513 0.47877 0.03394 0.0
H628 H 0.48381 0.40179 0.01856 0.0
H629 H 0.54591 0.53207 0.02334 0.0
H630 H 0.24339 0.28565 0.98088 0.0
H631 H 0.39674 0.59956 0.99305 0.0
H632 H 0.1953 0.2558 1.0074 0.0
H633 H 0.30942 0.26726 0.00974 0.0
H634 H 0.21499 0.19981 0.99449 0.0
H635 H 0.38698 0.64178 0.02233 0.0
H636 H 0.46596 0.69912 0.0141 0.0
H637 H 0.49919 0.64913 0.02489 0.0
C638 C 0.37747 0.31572 0.32488 0.0
C639 C 0.2992 0.24995 0.31352 0.0
C640 C 0.36863 0.30558 0.33621 0.0
C641 C 0.27879 0.2288 0.33627 0.0
C642 C 0.19942 0.16238 0.32488 0.0
C643 C 0.21085 0.17313 0.31367 0.0
C644 C 0.45555 0.37718 0.34813 0.0
C645 C 0.10212 0.07995 0.32453 0.0
C646 C 0.27826 0.14608 0.36407 0.0
C647 C 0.24819 0.19685 0.37103 0.0
C648 C 0.28939 0.15654 0.35284 0.0
C649 C 0.26793 0.2176 0.34824 0.0
C650 C 0.23588 0.26771 0.35506 0.0
C651 C 0.22722 0.25744 0.36639 0.0
C652 C 0.32475 0.10259 0.34594 0.0
C653 C 0.21104 0.33255 0.35039 0.0
H654 H 0.44559 0.37627 0.32497 0.0
H655 H 0.15039 0.12049 0.305 0.0
H656 H 0.43592 0.41767 0.35433 0.0
H657 H 0.47551 0.33683 0.35312 0.0
H658 H 0.52109 0.43129 0.34649 0.0
H659 H 0.04678 0.03601 0.31494 0.0
H660 H 0.11269 0.03024 0.32852 0.0
H661 H 0.07224 0.11026 0.3303 0.0
H662 H 0.29276 0.09741 0.36735 0.0
H663 H 0.20547 0.29836 0.37171 0.0
H664 H 0.39254 0.15563 0.34461 0.0
H665 H 0.2684 0.05147 0.33658 0.0
H666 H 0.34071 0.05989 0.35092 0.0
H667 H 0.27683 0.39352 0.3496 0.0
H668 H 0.18455 0.36436 0.3566 0.0
H669 H 0.15332 0.28975 0.34098 0.0
C670 C 0.20436 0.25153 0.64959 0.0
C671 C 0.11539 0.18815 0.6394 0.0
C672 C 0.20689 0.26083 0.66182 0.0
C673 C 0.11824 0.20632 0.66398 0.0
C674 C 0.02826 0.1422 0.65376 0.0
C675 C 0.02802 0.13334 0.64163 0.0
C676 C 0.30448 0.32941 0.67246 0.0
C677 C 0.93201 0.08313 0.65564 0.0
C678 C 0.12904 0.16117 0.69448 0.0
C679 C 0.12108 0.23339 0.70143 0.0
C680 C 0.12903 0.15213 0.68235 0.0
C681 C 0.11952 0.21594 0.67691 0.0
C682 C 0.11049 0.28838 0.68379 0.0
C683 C 0.11191 0.29657 0.69597 0.0
C684 C 0.13924 0.07417 0.67536 0.0
C685 C 0.09938 0.35735 0.67829 0.0
H686 H 0.27215 0.29536 0.64804 0.0
H687 H 0.95901 0.08273 0.63386 0.0
H688 H 0.3035 0.38746 0.67872 0.0
H689 H 0.31735 0.28843 0.67803 0.0
H690 H 0.36702 0.36509 0.66923 0.0
H691 H 0.86818 0.03776 0.64673 0.0
H692 H 0.93433 0.03391 0.66048 0.0
H693 H 0.92011 0.13305 0.66163 0.0
H694 H 0.13438 0.11073 0.69847 0.0
H695 H 0.1072 0.3536 0.70127 0.0
H696 H 0.20383 0.10853 0.67247 0.0
H697 H 0.07336 1.02231 0.66679 0.0
H698 H 0.14817 0.03177 0.681 0.0
H699 H 0.16418 0.40087 0.67579 0.0
H700 H 0.09185 0.4088 0.68479 0.0
H701 H 0.03362 0.31463 0.66963 0.0
loop_
_geom_bond_atom_site_label_1
_geom_bond_atom_site_label_2
_geom_bond_distance
_geom_bond_site_symmetry_2
_ccdc_geom_bond_type
C0 C1 1.443 . S
C0 N4 1.376 . S
C0 C38 1.389 . S
C1 C0 1.443 . S
C1 C2 1.340 . S
C1 H41 0.951 . S
C2 C1 1.340 . S
C2 C3 1.439 . S
C2 H42 0.950 . S
C3 C2 1.439 . S
C3 N4 1.374 . S
C3 C37 1.395 . S
N4 C0 1.376 . S
N4 C3 1.374 . S
N4 Co5 2.008 . S
Co5 N4 2.008 . S
Co5 N6 1.995 . S
Co5 N11 2.008 . S
Co5 N16 1.995 . S
Co5 N21 2.282 . S
Co5 N27 2.282 . S
N6 Co5 1.995 . S
N6 C7 1.376 . S
N6 C10 1.383 . S
C7 N6 1.376 . S
C7 C8 1.446 . S
C7 C37 1.391 . S
C8 C7 1.446 . S
C8 C9 1.339 . S
C8 H43 0.949 . S
C9 C8 1.339 . S
C9 C10 1.439 . S
C9 H44 0.950 . S
C10 N6 1.383 . S
C10 C9 1.439 . S
C10 C39 1.392 . S
N11 Co5 2.008 . S
N11 C12 1.376 . S
N11 C15 1.374 . S
C12 N11 1.376 . S
C12 C13 1.443 . S
C12 C39 1.389 . S
C13 C12 1.443 . S
C13 C14 1.340 . S
C13 H45 0.951 . S
C14 C13 1.340 . S
C14 C15 1.439 . S
C14 H46 0.950 . S
C15 N11 1.374 . S
C15 C14 1.439 . S
C15 C40 1.395 . S
N16 Co5 1.995 . S
N16 C17 1.376 . S
N16 C20 1.383 . S
C17 N16 1.376 . S
C17 C18 1.446 . S
C17 C40 1.391 . S
C18 C17 1.446 . S
C18 C19 1.339 . S
C18 H47 0.949 . S
C19 C18 1.339 . S
C19 C20 1.439 . S
C19 H48 0.950 . S
C20 N16 1.383 . S
C20 C19 1.439 . S
C20 C38 1.392 . S
N21 Co5 2.282 . S
N21 C24 1.332 . S
N21 C26 1.332 . S
C22 C23 1.386 . S
C22 C25 1.388 . S
C23 C22 1.386 . S
C23 C24 1.382 . S
C23 H49 0.950 . S
C24 N21 1.332 . S
C24 C23 1.382 . S
C24 H35 0.952 . S
C25 C22 1.388 . S
C25 C26 1.382 . S
C25 H50 0.950 . S
C26 N21 1.332 . S
C26 C25 1.382 . S
C26 H36 0.948 . S
N27 Co5 2.282 . S
N27 C31 1.332 . S
N27 C32 1.332 . S
C28 C29 1.388 . S
C28 C32 1.382 . S
C28 H51 0.950 . S
C29 C28 1.388 . S
C29 C30 1.386 . S
C30 C29 1.386 . S
C30 C31 1.382 . S
C30 H52 0.950 . S
C31 N27 1.332 . S
C31 C30 1.382 . S
C31 H33 0.952 . S
C32 N27 1.332 . S
C32 C28 1.382 . S
C32 H34 0.948 . S
H33 C31 0.952 . S
H34 C32 0.948 . S
H35 C24 0.952 . S
H36 C26 0.948 . S
C37 C3 1.395 . S
C37 C7 1.391 . S
C38 C0 1.389 . S
C38 C20 1.392 . S
C39 C10 1.392 . S
C39 C12 1.389 . S
C40 C15 1.395 . S
C40 C17 1.391 . S
H41 C1 0.951 . S
H42 C2 0.950 . S
H43 C8 0.949 . S
H44 C9 0.950 . S
H45 C13 0.951 . S
H46 C14 0.950 . S
H47 C18 0.949 . S
H48 C19 0.950 . S
H49 C23 0.950 . S
H50 C25 0.950 . S
H51 C28 0.950 . S
H52 C30 0.950 . S
C53 C54 1.443 . S
C53 N57 1.376 . S
C53 C91 1.389 . S
C54 C53 1.443 . S
C54 C55 1.340 . S
C54 H94 0.951 . S
C55 C54 1.340 . S
C55 C56 1.439 . S
C55 H95 0.950 . S
C56 C55 1.439 . S
C56 N57 1.374 . S
C56 C90 1.395 . S
N57 C53 1.376 . S
N57 C56 1.374 . S
N57 Co58 2.008 . S
Co58 N57 2.008 . S
Co58 N59 1.995 . S
Co58 N64 2.008 1_545 S
Co58 N69 1.995 1_545 S
Co58 N74 2.282 . S
Co58 N80 2.282 . S
N59 Co58 1.995 . S
N59 C60 1.376 . S
N59 C63 1.383 . S
C60 N59 1.376 . S
C60 C61 1.446 . S
C60 C90 1.391 . S
C61 C60 1.446 . S
C61 C62 1.339 . S
C61 H96 0.949 . S
C62 C61 1.339 . S
C62 C63 1.439 . S
C62 H97 0.950 1_455 S
C63 N59 1.383 . S
C63 C62 1.439 . S
C63 C92 1.392 1_455 S
N64 Co58 2.008 1_565 S
N64 C65 1.376 1_455 S
N64 C68 1.374 1_455 S
C65 N64 1.376 1_655 S
C65 C66 1.443 . S
C65 C92 1.389 1_565 S
C66 C65 1.443 . S
C66 C67 1.340 . S
C66 H98 0.951 . S
C67 C66 1.340 . S
C67 C68 1.439 . S
C67 H99 0.950 . S
C68 N64 1.374 1_655 S
C68 C67 1.439 . S
C68 C93 1.395 1_655 S
N69 Co58 1.995 1_565 S
N69 C70 1.376 . S
N69 C73 1.383 . S
C70 N69 1.376 . S
C70 C71 1.446 . S
C70 C93 1.391 . S
C71 C70 1.446 . S
C71 C72 1.339 . S
C71 H100 0.949 . S
C72 C71 1.339 . S
C72 C73 1.439 . S
C72 H101 0.950 . S
C73 N69 1.383 . S
C73 C72 1.439 . S
C73 C91 1.392 1_565 S
N74 Co58 2.282 . S
N74 C77 1.332 1_545 S
N74 C79 1.332 . S
C75 C76 1.386 1_545 S
C75 C78 1.388 . S
C76 C75 1.386 1_565 S
C76 C77 1.382 . S
C76 H102 0.950 . S
C77 N74 1.332 1_565 S
C77 C76 1.382 . S
C77 H88 0.952 . S
C78 C75 1.388 . S
C78 C79 1.382 . S
C78 H103 0.950 . S
C79 N74 1.332 . S
C79 C78 1.382 . S
C79 H89 0.948 . S
N80 Co58 2.282 . S
N80 C84 1.332 . S
N80 C85 1.332 1_545 S
C81 C82 1.388 1_565 S
C81 C85 1.382 . S
C81 H104 0.950 . S
C82 C81 1.388 1_545 S
C82 C83 1.386 . S
C83 C82 1.386 . S
C83 C84 1.382 . S
C83 H105 0.950 . S
C84 N80 1.332 . S
C84 C83 1.382 . S
C84 H86 0.952 . S
C85 N80 1.332 1_565 S
C85 C81 1.382 . S
C85 H87 0.948 . S
H86 C84 0.952 . S
H87 C85 0.948 . S
H88 C77 0.952 . S
H89 C79 0.948 . S
C90 C56 1.395 . S
C90 C60 1.391 . S
C91 C53 1.389 . S
C91 C73 1.392 1_545 S
C92 C63 1.392 1_655 S
C92 C65 1.389 1_545 S
C93 C68 1.395 1_455 S
C93 C70 1.391 . S
H94 C54 0.951 . S
H95 C55 0.950 . S
H96 C61 0.949 . S
H97 C62 0.950 1_655 S
H98 C66 0.951 . S
H99 C67 0.950 . S
H100 C71 0.949 . S
H101 C72 0.950 . S
H102 C76 0.950 . S
H103 C78 0.950 . S
H104 C81 0.950 . S
H105 C83 0.950 . S
C106 C107 1.443 . S
C106 N110 1.376 . S
C106 C144 1.389 . S
C107 C106 1.443 . S
C107 C108 1.340 . S
C107 H147 0.951 . S
C108 C107 1.340 . S
C108 C109 1.439 . S
C108 H148 0.950 . S
C109 C108 1.439 . S
C109 N110 1.374 . S
C109 C143 1.395 1_455 S
N110 C106 1.376 . S
N110 C109 1.374 . S
N110 Co111 2.008 . S
Co111 N110 2.008 . S
Co111 N112 1.995 1_455 S
Co111 N117 2.008 . S
Co111 N122 1.995 . S
Co111 N127 2.282 . S
Co111 N133 2.282 . S
N112 Co111 1.995 1_655 S
N112 C113 1.376 . S
N112 C116 1.383 . S
C113 N112 1.376 . S
C113 C114 1.446 . S
C113 C143 1.391 . S
C114 C113 1.446 . S
C114 C115 1.339 . S
C114 H149 0.949 . S
C115 C114 1.339 . S
C115 C116 1.439 . S
C115 H150 0.950 . S
C116 N112 1.383 . S
C116 C115 1.439 . S
C116 C145 1.392 . S
N117 Co111 2.008 . S
N117 C118 1.376 1_455 S
N117 C121 1.374 . S
C118 N117 1.376 1_655 S
C118 C119 1.443 . S
C118 C145 1.389 . S
C119 C118 1.443 . S
C119 C120 1.340 1_655 S
C119 H151 0.951 1_545 S
C120 C119 1.340 1_455 S
C120 C121 1.439 . S
C120 H152 0.950 . S
C121 N117 1.374 . S
C121 C120 1.439 . S
C121 C146 1.395 . S
N122 Co111 1.995 . S
N122 C123 1.376 . S
N122 C126 1.383 . S
C123 N122 1.376 . S
C123 C124 1.446 . S
C123 C146 1.391 . S
C124 C123 1.446 . S
C124 C125 1.339 . S
C124 H153 0.949 . S
C125 C124 1.339 . S
C125 C126 1.439 . S
C125 H154 0.950 . S
C126 N122 1.383 . S
C126 C125 1.439 . S
C126 C144 1.392 . S
N127 Co111 2.282 . S
N127 C130 1.332 . S
N127 C132 1.332 . S
C128 C129 1.386 . S
C128 C131 1.388 . S
C129 C128 1.386 . S
C129 C130 1.382 . S
C129 H155 0.950 . S
C130 N127 1.332 . S
C130 C129 1.382 . S
C130 H141 0.952 . S
C131 C128 1.388 . S
C131 C132 1.382 . S
C131 H156 0.950 1_455 S
C132 N127 1.332 . S
C132 C131 1.382 . S
C132 H142 0.948 1_455 S
N133 Co111 2.282 . S
N133 C137 1.332 1_455 S
N133 C138 1.332 . S
C134 C135 1.388 . S
C134 C138 1.382 . S
C134 H157 0.950 . S
C135 C134 1.388 . S
C135 C136 1.386 1_455 S
C136 C135 1.386 1_655 S
C136 C137 1.382 . S
C136 H158 0.950 . S
C137 N133 1.332 1_655 S
C137 C136 1.382 . S
C137 H139 0.952 . S
C138 N133 1.332 . S
C138 C134 1.382 . S
C138 H140 0.948 . S
H139 C137 0.952 . S
H140 C138 0.948 . S
H141 C130 0.952 . S
H142 C132 0.948 1_655 S
C143 C109 1.395 1_655 S
C143 C113 1.391 . S
C144 C106 1.389 . S
C144 C126 1.392 . S
C145 C116 1.392 . S
C145 C118 1.389 . S
C146 C121 1.395 . S
C146 C123 1.391 . S
H147 C107 0.951 . S
H148 C108 0.950 . S
H149 C114 0.949 . S
H150 C115 0.950 . S
H151 C119 0.951 1_565 S
H152 C120 0.950 . S
H153 C124 0.949 . S
H154 C125 0.950 . S
H155 C129 0.950 . S
H156 C131 0.950 1_655 S
H157 C134 0.950 . S
H158 C136 0.950 . S
C159 C160 1.443 . S
C159 N163 1.376 . S
C159 C197 1.389 . S
C160 C159 1.443 . S
C160 C161 1.340 1_655 S
C160 H200 0.951 . S
C161 C160 1.340 1_455 S
C161 C162 1.439 . S
C161 H201 0.950 . S
C162 C161 1.439 . S
C162 N163 1.374 1_455 S
C162 C196 1.395 . S
N163 C159 1.376 . S
N163 C162 1.374 1_655 S
N163 Co164 2.008 1_655 S
Co164 N163 2.008 1_455 S
Co164 N165 1.995 . S
Co164 N170 2.008 1_545 S
Co164 N175 1.995 1_445 S
Co164 N180 2.282 . S
Co164 N186 2.282 . S
N165 Co164 1.995 . S
N165 C166 1.376 . S
N165 C169 1.383 . S
C166 N165 1.376 . S
C166 C167 1.446 . S
C166 C196 1.391 . S
C167 C166 1.446 . S
C167 C168 1.339 . S
C167 H202 0.949 . S
C168 C167 1.339 . S
C168 C169 1.439 . S
C168 H203 0.950 . S
C169 N165 1.383 . S
C169 C168 1.439 . S
C169 C198 1.392 . S
N170 Co164 2.008 1_565 S
N170 C171 1.376 . S
N170 C174 1.374 1_455 S
C171 N170 1.376 . S
C171 C172 1.443 . S
C171 C198 1.389 1_565 S
C172 C171 1.443 . S
C172 C173 1.340 . S
C172 H204 0.951 . S
C173 C172 1.340 . S
C173 C174 1.439 1_455 S
C173 H205 0.950 1_455 S
C174 N170 1.374 1_655 S
C174 C173 1.439 1_655 S
C174 C199 1.395 . S
N175 Co164 1.995 1_665 S
N175 C176 1.376 . S
N175 C179 1.383 . S
C176 N175 1.376 . S
C176 C177 1.446 . S
C176 C199 1.391 . S
C177 C176 1.446 . S
C177 C178 1.339 . S
C177 H206 0.949 . S
C178 C177 1.339 . S
C178 C179 1.439 . S
C178 H207 0.950 . S
C179 N175 1.383 . S
C179 C178 1.439 . S
C179 C197 1.392 1_565 S
N180 Co164 2.282 . S
N180 C183 1.332 1_445 S
N180 C185 1.332 . S
C181 C182 1.386 1_445 S
C181 C184 1.388 . S
C182 C181 1.386 1_665 S
C182 C183 1.382 . S
C182 H208 0.950 . S
C183 N180 1.332 1_665 S
C183 C182 1.382 . S
C183 H194 0.952 . S
C184 C181 1.388 . S
C184 C185 1.382 . S
C184 H209 0.950 . S
C185 N180 1.332 . S
C185 C184 1.382 . S
C185 H195 0.948 . S
N186 Co164 2.282 . S
N186 C190 1.332 . S
N186 C191 1.332 1_445 S
C187 C188 1.388 1_665 S
C187 C191 1.382 . S
C187 H210 0.950 . S
C188 C187 1.388 1_445 S
C188 C189 1.386 . S
C189 C188 1.386 . S
C189 C190 1.382 . S
C189 H211 0.950 . S
C190 N186 1.332 . S
C190 C189 1.382 . S
C190 H192 0.952 . S
C191 N186 1.332 1_665 S
C191 C187 1.382 . S
C191 H193 0.948 . S
H192 C190 0.952 . S
H193 C191 0.948 . S
H194 C183 0.952 . S
H195 C185 0.948 . S
C196 C162 1.395 . S
C196 C166 1.391 . S
C197 C159 1.389 . S
C197 C179 1.392 1_545 S
C198 C169 1.392 . S
C198 C171 1.389 1_545 S
C199 C174 1.395 . S
C199 C176 1.391 . S
H200 C160 0.951 . S
H201 C161 0.950 . S
H202 C167 0.949 . S
H203 C168 0.950 . S
H204 C172 0.951 . S
H205 C173 0.950 1_655 S
H206 C177 0.949 . S
H207 C178 0.950 . S
H208 C182 0.950 . S
H209 C184 0.950 . S
H210 C187 0.950 . S
H211 C189 0.950 . S
C212 C213 1.443 . S
C212 N216 1.376 1_655 S
C212 C250 1.389 . S
C213 C212 1.443 . S
C213 C214 1.340 . S
C213 H253 0.951 . S
C214 C213 1.340 . S
C214 C215 1.439 1_655 S
C214 H254 0.950 . S
C215 C214 1.439 1_455 S
C215 N216 1.374 . S
C215 C249 1.395 . S
N216 C212 1.376 1_455 S
N216 C215 1.374 . S
N216 Co217 2.008 . S
Co217 N216 2.008 . S
Co217 N218 1.995 . S
Co217 N223 2.008 . S
Co217 N228 1.995 . S
Co217 N233 2.282 . S
Co217 N239 2.282 . S
N218 Co217 1.995 . S
N218 C219 1.376 . S
N218 C222 1.383 . S
C219 N218 1.376 . S
C219 C220 1.446 . S
C219 C249 1.391 . S
C220 C219 1.446 . S
C220 C221 1.339 . S
C220 H255 0.949 . S
C221 C220 1.339 . S
C221 C222 1.439 . S
C221 H256 0.950 . S
C222 N218 1.383 . S
C222 C221 1.439 . S
C222 C251 1.392 . S
N223 Co217 2.008 . S
N223 C224 1.376 . S
N223 C227 1.374 . S
C224 N223 1.376 . S
C224 C225 1.443 . S
C224 C251 1.389 . S
C225 C224 1.443 . S
C225 C226 1.340 . S
C225 H257 0.951 . S
C226 C225 1.340 . S
C226 C227 1.439 . S
C226 H258 0.950 . S
C227 N223 1.374 . S
C227 C226 1.439 . S
C227 C252 1.395 . S
N228 Co217 1.995 . S
N228 C229 1.376 . S
N228 C232 1.383 . S
C229 N228 1.376 . S
C229 C230 1.446 . S
C229 C252 1.391 . S
C230 C229 1.446 . S
C230 C231 1.339 . S
C230 H259 0.949 . S
C231 C230 1.339 . S
C231 C232 1.439 . S
C231 H260 0.950 . S
C232 N228 1.383 . S
C232 C231 1.439 . S
C232 C250 1.392 1_455 S
N233 Co217 2.282 . S
N233 C236 1.332 . S
N233 C238 1.332 . S
C234 C235 1.386 . S
C234 C237 1.388 . S
C235 C234 1.386 . S
C235 C236 1.382 . S
C235 H261 0.950 . S
C236 N233 1.332 . S
C236 C235 1.382 . S
C236 H247 0.952 . S
C237 C234 1.388 . S
C237 C238 1.382 . S
C237 H262 0.950 . S
C238 N233 1.332 . S
C238 C237 1.382 . S
C238 H248 0.948 . S
N239 Co217 2.282 . S
N239 C243 1.332 . S
N239 C244 1.332 . S
C240 C241 1.388 . S
C240 C244 1.382 . S
C240 H263 0.950 . S
C241 C240 1.388 . S
C241 C242 1.386 . S
C242 C241 1.386 . S
C242 C243 1.382 . S
C242 H264 0.950 . S
C243 N239 1.332 . S
C243 C242 1.382 . S
C243 H245 0.952 . S
C244 N239 1.332 . S
C244 C240 1.382 . S
C244 H246 0.948 . S
H245 C243 0.952 . S
H246 C244 0.948 . S
H247 C236 0.952 . S
H248 C238 0.948 . S
C249 C215 1.395 . S
C249 C219 1.391 . S
C250 C212 1.389 . S
C250 C232 1.392 1_655 S
C251 C222 1.392 . S
C251 C224 1.389 . S
C252 C227 1.395 . S
C252 C229 1.391 . S
H253 C213 0.951 . S
H254 C214 0.950 . S
H255 C220 0.949 . S
H256 C221 0.950 . S
H257 C225 0.951 . S
H258 C226 0.950 . S
H259 C230 0.949 . S
H260 C231 0.950 . S
H261 C235 0.950 . S
H262 C237 0.950 . S
H263 C240 0.950 . S
H264 C242 0.950 . S
C265 C266 1.443 . S
C265 N269 1.376 . S
C265 C303 1.389 . S
C266 C265 1.443 . S
C266 C267 1.340 . S
C266 H306 0.951 1_545 S
C267 C266 1.340 . S
C267 C268 1.439 . S
C267 H307 0.950 1_545 S
C268 C267 1.439 . S
C268 N269 1.374 . S
C268 C302 1.395 . S
N269 C265 1.376 . S
N269 C268 1.374 . S
N269 Co270 2.008 . S
Co270 N269 2.008 . S
Co270 N271 1.995 . S
Co270 N276 2.008 . S
Co270 N281 1.995 . S
Co270 N286 2.282 . S
Co270 N292 2.282 . S
N271 Co270 1.995 . S
N271 C272 1.376 . S
N271 C275 1.383 . S
C272 N271 1.376 . S
C272 C273 1.446 . S
C272 C302 1.391 . S
C273 C272 1.446 . S
C273 C274 1.339 . S
C273 H308 0.949 . S
C274 C273 1.339 . S
C274 C275 1.439 . S
C274 H309 0.950 . S
C275 N271 1.383 . S
C275 C274 1.439 . S
C275 C304 1.392 . S
N276 Co270 2.008 . S
N276 C277 1.376 . S
N276 C280 1.374 . S
C277 N276 1.376 . S
C277 C278 1.443 . S
C277 C304 1.389 . S
C278 C277 1.443 . S
C278 C279 1.340 . S
C278 H310 0.951 . S
C279 C278 1.340 . S
C279 C280 1.439 . S
C279 H311 0.950 . S
C280 N276 1.374 . S
C280 C279 1.439 . S
C280 C305 1.395 . S
N281 Co270 1.995 . S
N281 C282 1.376 . S
N281 C285 1.383 . S
C282 N281 1.376 . S
C282 C283 1.446 . S
C282 C305 1.391 . S
C283 C282 1.446 . S
C283 C284 1.339 . S
C283 H312 0.949 . S
C284 C283 1.339 . S
C284 C285 1.439 . S
C284 H313 0.950 . S
C285 N281 1.383 . S
C285 C284 1.439 . S
C285 C303 1.392 . S
N286 Co270 2.282 . S
N286 C289 1.332 . S
N286 C291 1.332 . S
C287 C288 1.386 . S
C287 C290 1.388 . S
C288 C287 1.386 . S
C288 C289 1.382 . S
C288 H314 0.950 . S
C289 N286 1.332 . S
C289 C288 1.382 . S
C289 H300 0.952 . S
C290 C287 1.388 . S
C290 C291 1.382 . S
C290 H315 0.950 . S
C291 N286 1.332 . S
C291 C290 1.382 . S
C291 H301 0.948 . S
N292 Co270 2.282 . S
N292 C296 1.332 . S
N292 C297 1.332 . S
C293 C294 1.388 . S
C293 C297 1.382 . S
C293 H316 0.950 . S
C294 C293 1.388 . S
C294 C295 1.386 . S
C295 C294 1.386 . S
C295 C296 1.382 . S
C295 H317 0.950 . S
C296 N292 1.332 . S
C296 C295 1.382 . S
C296 H298 0.952 . S
C297 N292 1.332 . S
C297 C293 1.382 . S
C297 H299 0.948 . S
H298 C296 0.952 . S
H299 C297 0.948 . S
H300 C289 0.952 . S
H301 C291 0.948 . S
C302 C268 1.395 . S
C302 C272 1.391 . S
C303 C265 1.389 . S
C303 C285 1.392 . S
C304 C275 1.392 . S
C304 C277 1.389 . S
C305 C280 1.395 . S
C305 C282 1.391 . S
H306 C266 0.951 1_565 S
H307 C267 0.950 1_565 S
H308 C273 0.949 . S
H309 C274 0.950 . S
H310 C278 0.951 . S
H311 C279 0.950 . S
H312 C283 0.949 . S
H313 C284 0.950 . S
H314 C288 0.950 . S
H315 C290 0.950 . S
H316 C293 0.950 . S
H317 C295 0.950 . S
C318 C319 1.391 . S
C318 C320 1.394 1_545 S
C318 H334 0.931 . S
C319 C318 1.391 . S
C319 C323 1.376 . S
C320 C318 1.394 1_565 S
C320 C321 1.369 . S
C320 C324 1.531 . S
C321 C320 1.369 . S
C321 C322 1.410 1_565 S
C321 C329 1.503 . S
C322 C321 1.410 1_545 S
C322 C323 1.392 . S
C322 C325 1.511 . S
C323 C319 1.376 . S
C323 C322 1.392 . S
C323 H335 0.929 . S
C324 C320 1.531 . S
C324 H336 0.960 . S
C324 H337 0.962 . S
C324 H338 0.960 . S
C325 C322 1.511 . S
C325 H339 0.961 . S
C325 H340 0.961 . S
C325 H341 0.961 . S
C326 C327 1.370 . S
C326 C328 1.363 . S
C326 H342 0.931 . S
C327 C326 1.370 . S
C327 C331 1.408 . S
C328 C326 1.363 . S
C328 C329 1.370 . S
C328 C332 1.524 . S
C329 C321 1.503 . S
C329 C328 1.370 . S
C329 C330 1.403 . S
C330 C329 1.403 . S
C330 C331 1.404 . S
C330 C333 1.539 . S
C331 C327 1.408 . S
C331 C330 1.404 . S
C331 H343 0.930 . S
C332 C328 1.524 . S
C332 H344 0.956 . S
C332 H345 0.961 . S
C332 H346 0.961 . S
C333 C330 1.539 . S
C333 H347 0.958 . S
C333 H348 0.961 . S
C333 H349 0.960 1_565 S
H334 C318 0.931 . S
H335 C323 0.929 . S
H336 C324 0.960 . S
H337 C324 0.962 . S
H338 C324 0.960 . S
H339 C325 0.961 . S
H340 C325 0.961 . S
H341 C325 0.961 . S
H342 C326 0.931 . S
H343 C331 0.930 . S
H344 C332 0.956 . S
H345 C332 0.961 . S
H346 C332 0.961 . S
H347 C333 0.958 . S
H348 C333 0.961 . S
H349 C333 0.960 1_545 S
C350 C351 1.391 . S
C350 C352 1.394 . S
C350 H366 0.931 . S
C351 C350 1.391 . S
C351 C355 1.376 1_545 S
C352 C350 1.394 . S
C352 C353 1.369 . S
C352 C356 1.531 . S
C353 C352 1.369 . S
C353 C354 1.410 1_545 S
C353 C361 1.503 . S
C354 C353 1.410 1_565 S
C354 C355 1.392 . S
C354 C357 1.511 . S
C355 C351 1.376 1_565 S
C355 C354 1.392 . S
C355 H367 0.929 . S
C356 C352 1.531 . S
C356 H368 0.960 . S
C356 H369 0.962 . S
C356 H370 0.960 . S
C357 C354 1.511 . S
C357 H371 0.961 . S
C357 H372 0.961 . S
C357 H373 0.961 . S
C358 C359 1.370 . S
C358 C360 1.363 . S
C358 H374 0.931 . S
C359 C358 1.370 . S
C359 C363 1.408 1_545 S
C360 C358 1.363 . S
C360 C361 1.370 . S
C360 C364 1.524 . S
C361 C353 1.503 . S
C361 C360 1.370 . S
C361 C362 1.403 1_545 S
C362 C361 1.403 1_565 S
C362 C363 1.404 . S
C362 C365 1.539 . S
C363 C359 1.408 1_565 S
C363 C362 1.404 . S
C363 H375 0.930 . S
C364 C360 1.524 . S
C364 H376 0.956 . S
C364 H377 0.961 . S
C364 H378 0.961 . S
C365 C362 1.539 . S
C365 H379 0.958 . S
C365 H380 0.961 . S
C365 H381 0.960 . S
H366 C350 0.931 . S
H367 C355 0.929 . S
H368 C356 0.960 . S
H369 C356 0.962 . S
H370 C356 0.960 . S
H371 C357 0.961 . S
H372 C357 0.961 . S
H373 C357 0.961 . S
H374 C358 0.931 . S
H375 C363 0.930 . S
H376 C364 0.956 . S
H377 C364 0.961 . S
H378 C364 0.961 . S
H379 C365 0.958 . S
H380 C365 0.961 . S
H381 C365 0.960 . S
C382 C383 1.402 . S
C382 C384 1.394 . S
C382 H398 0.931 . S
C383 C382 1.402 . S
C383 C387 1.371 . S
C384 C382 1.394 . S
C384 C385 1.369 . S
C384 C388 1.531 . S
C385 C384 1.369 . S
C385 C386 1.410 . S
C385 C393 1.503 . S
C386 C385 1.410 . S
C386 C387 1.392 . S
C386 C389 1.511 . S
C387 C383 1.371 . S
C387 C386 1.392 . S
C387 H399 0.929 1_565 S
C388 C384 1.531 . S
C388 H400 0.960 . S
C388 H401 0.962 . S
C388 H402 0.960 . S
C389 C386 1.511 . S
C389 H403 0.961 . S
C389 H404 0.961 . S
C389 H405 0.961 . S
C390 C391 1.370 . S
C390 C392 1.363 . S
C390 H406 0.931 . S
C391 C390 1.370 . S
C391 C395 1.408 . S
C392 C390 1.363 . S
C392 C393 1.370 . S
C392 C396 1.524 . S
C393 C385 1.503 . S
C393 C392 1.370 . S
C393 C394 1.403 . S
C394 C393 1.403 . S
C394 C395 1.404 . S
C394 C397 1.539 . S
C395 C391 1.408 . S
C395 C394 1.404 . S
C395 H407 0.930 . S
C396 C392 1.524 . S
C396 H408 0.956 . S
C396 H409 0.961 . S
C396 H410 0.961 . S
C397 C394 1.539 . S
C397 H411 0.958 . S
C397 H412 0.961 . S
C397 H413 0.960 . S
H398 C382 0.931 . S
H399 C387 0.929 1_545 S
H400 C388 0.960 . S
H401 C388 0.962 . S
H402 C388 0.960 . S
H403 C389 0.961 . S
H404 C389 0.961 . S
H405 C389 0.961 . S
H406 C390 0.931 . S
H407 C395 0.930 . S
H408 C396 0.956 . S
H409 C396 0.961 . S
H410 C396 0.961 . S
H411 C397 0.958 . S
H412 C397 0.961 . S
H413 C397 0.960 . S
C414 C415 1.391 1_565 S
C414 C416 1.394 . S
C414 H430 0.931 . S
C415 C414 1.391 1_545 S
C415 C419 1.376 . S
C416 C414 1.394 . S
C416 C417 1.369 1_565 S
C416 C420 1.531 . S
C417 C416 1.369 1_545 S
C417 C418 1.410 . S
C417 C425 1.503 . S
C418 C417 1.410 . S
C418 C419 1.392 . S
C418 C421 1.511 . S
C419 C415 1.376 . S
C419 C418 1.392 . S
C419 H431 0.929 . S
C420 C416 1.531 . S
C420 H432 0.960 . S
C420 H433 0.962 . S
C420 H434 0.960 . S
C421 C418 1.511 . S
C421 H435 0.961 . S
C421 H436 0.961 . S
C421 H437 0.961 . S
C422 C423 1.370 1_565 S
C422 C424 1.363 . S
C422 H438 0.931 . S
C423 C422 1.370 1_545 S
C423 C427 1.408 . S
C424 C422 1.363 . S
C424 C425 1.370 1_565 S
C424 C428 1.524 . S
C425 C417 1.503 . S
C425 C424 1.370 1_545 S
C425 C426 1.403 . S
C426 C425 1.403 . S
C426 C427 1.404 . S
C426 C429 1.539 . S
C427 C423 1.408 . S
C427 C426 1.404 . S
C427 H439 0.930 . S
C428 C424 1.524 . S
C428 H440 0.956 . S
C428 H441 0.961 . S
C428 H442 0.961 . S
C429 C426 1.539 . S
C429 H443 0.958 . S
C429 H444 0.961 . S
C429 H445 0.960 . S
H430 C414 0.931 . S
H431 C419 0.929 . S
H432 C420 0.960 . S
H433 C420 0.962 . S
H434 C420 0.960 . S
H435 C421 0.961 . S
H436 C421 0.961 . S
H437 C421 0.961 . S
H438 C422 0.931 . S
H439 C427 0.930 . S
H440 C428 0.956 . S
H441 C428 0.961 . S
H442 C428 0.961 . S
H443 C429 0.958 . S
H444 C429 0.961 . S
H445 C429 0.960 . S
C446 C447 1.391 . S
C446 C448 1.394 . S
C446 H462 0.931 . S
C447 C446 1.391 . S
C447 C451 1.376 . S
C448 C446 1.394 . S
C448 C449 1.369 . S
C448 C452 1.531 . S
C449 C448 1.369 . S
C449 C450 1.410 . S
C449 C457 1.503 . S
C450 C449 1.410 . S
C450 C451 1.392 . S
C450 C453 1.511 . S
C451 C447 1.376 . S
C451 C450 1.392 . S
C451 H463 0.929 . S
C452 C448 1.531 . S
C452 H464 0.960 . S
C452 H465 0.962 . S
C452 H466 0.960 . S
C453 C450 1.511 . S
C453 H467 0.961 . S
C453 H468 0.961 . S
C453 H469 0.961 . S
C454 C455 1.370 . S
C454 C456 1.363 1_545 S
C454 H470 0.931 . S
C455 C454 1.370 . S
C455 C459 1.408 . S
C456 C454 1.363 1_565 S
C456 C457 1.370 . S
C456 C460 1.524 . S
C457 C449 1.503 . S
C457 C456 1.370 . S
C457 C458 1.403 1_565 S
C458 C457 1.403 1_545 S
C458 C459 1.404 . S
C458 C461 1.539 . S
C459 C455 1.408 . S
C459 C458 1.404 . S
C459 H471 0.930 . S
C460 C456 1.524 . S
C460 H472 0.956 . S
C460 H473 0.961 . S
C460 H474 0.961 . S
C461 C458 1.539 . S
C461 H475 0.958 . S
C461 H476 0.961 . S
C461 H477 0.960 . S
H462 C446 0.931 . S
H463 C451 0.929 . S
H464 C452 0.960 . S
H465 C452 0.962 . S
H466 C452 0.960 . S
H467 C453 0.961 . S
H468 C453 0.961 . S
H469 C453 0.961 . S
H470 C454 0.931 . S
H471 C459 0.930 . S
H472 C460 0.956 . S
H473 C460 0.961 . S
H474 C460 0.961 . S
H475 C461 0.958 . S
H476 C461 0.961 . S
H477 C461 0.960 . S
C478 C479 1.391 . S
C478 C480 1.394 . S
C478 H494 0.931 . S
C479 C478 1.391 . S
C479 C483 1.376 . S
C480 C478 1.394 . S
C480 C481 1.369 . S
C480 C484 1.531 . S
C481 C480 1.369 . S
C481 C482 1.410 . S
C481 C489 1.503 . S
C482 C481 1.410 . S
C482 C483 1.392 . S
C482 C485 1.511 . S
C483 C479 1.376 . S
C483 C482 1.392 . S
C483 H495 0.929 . S
C484 C480 1.531 . S
C484 H496 0.960 . S
C484 H497 0.962 . S
C484 H498 0.960 . S
C485 C482 1.511 . S
C485 H499 0.961 . S
C485 H500 0.961 . S
C485 H501 0.961 . S
C486 C487 1.370 1_565 S
C486 C488 1.363 . S
C486 H502 0.931 . S
C487 C486 1.370 1_545 S
C487 C491 1.408 . S
C488 C486 1.363 . S
C488 C489 1.370 . S
C488 C492 1.524 . S
C489 C481 1.503 . S
C489 C488 1.370 . S
C489 C490 1.403 . S
C490 C489 1.403 . S
C490 C491 1.404 1_565 S
C490 C493 1.539 . S
C491 C487 1.408 . S
C491 C490 1.404 1_545 S
C491 H503 0.930 . S
C492 C488 1.524 . S
C492 H504 0.956 . S
C492 H505 0.961 . S
C492 H506 0.961 . S
C493 C490 1.539 . S
C493 H507 0.958 . S
C493 H508 0.961 1_565 S
C493 H509 0.960 . S
H494 C478 0.931 . S
H495 C483 0.929 . S
H496 C484 0.960 . S
H497 C484 0.962 . S
H498 C484 0.960 . S
H499 C485 0.961 . S
H500 C485 0.961 . S
H501 C485 0.961 . S
H502 C486 0.931 . S
H503 C491 0.930 . S
H504 C492 0.956 . S
H505 C492 0.961 . S
H506 C492 0.961 . S
H507 C493 0.958 . S
H508 C493 0.961 1_545 S
H509 C493 0.960 . S
C510 C511 1.391 . S
C510 C512 1.394 . S
C510 H526 0.931 . S
C511 C510 1.391 . S
C511 C515 1.376 . S
C512 C510 1.394 . S
C512 C513 1.369 . S
C512 C516 1.531 . S
C513 C512 1.369 . S
C513 C514 1.410 . S
C513 C521 1.503 . S
C514 C513 1.410 . S
C514 C515 1.392 . S
C514 C517 1.511 . S
C515 C511 1.376 . S
C515 C514 1.392 . S
C515 H527 0.929 . S
C516 C512 1.531 . S
C516 H528 0.960 . S
C516 H529 0.962 . S
C516 H530 0.960 . S
C517 C514 1.511 . S
C517 H531 0.961 . S
C517 H532 0.961 . S
C517 H533 0.961 . S
C518 C519 1.370 . S
C518 C520 1.363 . S
C518 H534 0.931 . S
C519 C518 1.370 . S
C519 C523 1.408 . S
C520 C518 1.363 . S
C520 C521 1.370 . S
C520 C524 1.524 . S
C521 C513 1.503 . S
C521 C520 1.370 . S
C521 C522 1.403 . S
C522 C521 1.403 . S
C522 C523 1.404 . S
C522 C525 1.539 . S
C523 C519 1.408 . S
C523 C522 1.404 . S
C523 H535 0.930 . S
C524 C520 1.524 . S
C524 H536 0.956 . S
C524 H537 0.961 . S
C524 H538 0.961 . S
C525 C522 1.539 . S
C525 H539 0.958 . S
C525 H540 0.961 . S
C525 H541 0.960 . S
H526 C510 0.931 . S
H527 C515 0.929 . S
H528 C516 0.960 . S
H529 C516 0.962 . S
H530 C516 0.960 . S
H531 C517 0.961 . S
H532 C517 0.961 . S
H533 C517 0.961 . S
H534 C518 0.931 . S
H535 C523 0.930 . S
H536 C524 0.956 . S
H537 C524 0.961 . S
H538 C524 0.961 . S
H539 C525 0.958 . S
H540 C525 0.961 . S
H541 C525 0.960 . S
C542 C543 1.391 1_655 S
C542 C544 1.394 1_655 S
C542 H558 0.931 . S
C543 C542 1.391 1_455 S
C543 C547 1.376 1_545 S
C544 C542 1.394 1_455 S
C544 C545 1.369 . S
C544 C548 1.531 1_455 S
C545 C544 1.369 . S
C545 C546 1.410 . S
C545 C553 1.503 . S
C546 C545 1.410 . S
C546 C547 1.392 1_545 S
C546 C549 1.511 1_545 S
C547 C543 1.376 1_565 S
C547 C546 1.392 1_565 S
C547 H559 0.929 . S
C548 C544 1.531 1_655 S
C548 H560 0.960 . S
C548 H561 0.962 1_545 S
C548 H562 0.960 . S
C549 C546 1.511 1_565 S
C549 H563 0.961 . S
C549 H564 0.961 . S
C549 H565 0.961 1_565 S
C550 C551 1.370 1_565 S
C550 C552 1.363 . S
C550 H566 0.931 1_455 S
C551 C550 1.370 1_545 S
C551 C555 1.408 . S
C552 C550 1.363 . S
C552 C553 1.370 1_565 S
C552 C556 1.524 1_455 S
C553 C545 1.503 . S
C553 C552 1.370 1_545 S
C553 C554 1.403 . S
C554 C553 1.403 . S
C554 C555 1.404 . S
C554 C557 1.539 . S
C555 C551 1.408 . S
C555 C554 1.404 . S
C555 H567 0.930 . S
C556 C552 1.524 1_655 S
C556 H568 0.956 . S
C556 H569 0.961 . S
C556 H570 0.961 . S
C557 C554 1.539 . S
C557 H571 0.958 . S
C557 H572 0.961 . S
C557 H573 0.960 . S
H558 C542 0.931 . S
H559 C547 0.929 . S
H560 C548 0.960 . S
H561 C548 0.962 1_565 S
H562 C548 0.960 . S
H563 C549 0.961 . S
H564 C549 0.961 . S
H565 C549 0.961 1_545 S
H566 C550 0.931 1_655 S
H567 C555 0.930 . S
H568 C556 0.956 . S
H569 C556 0.961 . S
H570 C556 0.961 . S
H571 C557 0.958 . S
H572 C557 0.961 . S
H573 C557 0.960 . S
C574 C575 1.391 . S
C574 C576 1.394 . S
C574 H590 0.931 . S
C575 C574 1.391 . S
C575 C579 1.376 . S
C576 C574 1.394 . S
C576 C577 1.369 . S
C576 C580 1.531 . S
C577 C576 1.369 . S
C577 C578 1.410 . S
C577 C585 1.503 . S
C578 C577 1.410 . S
C578 C579 1.392 . S
C578 C581 1.511 1_455 S
C579 C575 1.376 . S
C579 C578 1.392 . S
C579 H591 0.929 1_455 S
C580 C576 1.531 . S
C580 H592 0.960 . S
C580 H593 0.962 . S
C580 H594 0.960 . S
C581 C578 1.511 1_655 S
C581 H595 0.961 . S
C581 H596 0.961 . S
C581 H597 0.961 . S
C582 C583 1.370 . S
C582 C584 1.363 . S
C582 H598 0.931 . S
C583 C582 1.370 . S
C583 C587 1.408 . S
C584 C582 1.363 . S
C584 C585 1.370 . S
C584 C588 1.524 . S
C585 C577 1.503 . S
C585 C584 1.370 . S
C585 C586 1.403 . S
C586 C585 1.403 . S
C586 C587 1.404 . S
C586 C589 1.539 . S
C587 C583 1.408 . S
C587 C586 1.404 . S
C587 H599 0.930 . S
C588 C584 1.524 . S
C588 H600 0.956 . S
C588 H601 0.961 1_455 S
C588 H602 0.961 . S
C589 C586 1.539 . S
C589 H603 0.958 . S
C589 H604 0.961 . S
C589 H605 0.960 . S
H590 C574 0.931 . S
H591 C579 0.929 1_655 S
H592 C580 0.960 . S
H593 C580 0.962 . S
H594 C580 0.960 . S
H595 C581 0.961 . S
H596 C581 0.961 . S
H597 C581 0.961 . S
H598 C582 0.931 . S
H599 C587 0.930 . S
H600 C588 0.956 . S
H601 C588 0.961 1_655 S
H602 C588 0.961 . S
H603 C589 0.958 . S
H604 C589 0.961 . S
H605 C589 0.960 . S
C606 C607 1.391 . S
C606 C608 1.394 . S
C606 H622 0.931 . S
C607 C606 1.391 . S
C607 C611 1.376 . S
C608 C606 1.394 . S
C608 C609 1.369 . S
C608 C612 1.531 . S
C609 C608 1.369 . S
C609 C610 1.410 . S
C609 C617 1.503 . S
C610 C609 1.410 . S
C610 C611 1.392 . S
C610 C613 1.511 . S
C611 C607 1.376 . S
C611 C610 1.392 . S
C611 H623 0.929 . S
C612 C608 1.531 . S
C612 H624 0.960 . S
C612 H625 0.962 . S
C612 H626 0.960 . S
C613 C610 1.511 . S
C613 H627 0.961 . S
C613 H628 0.961 . S
C613 H629 0.961 . S
C614 C615 1.370 . S
C614 C616 1.363 . S
C614 H630 0.931 . S
C615 C614 1.370 . S
C615 C619 1.408 . S
C616 C614 1.363 . S
C616 C617 1.370 1_556 S
C616 C620 1.584 . S
C617 C609 1.503 . S
C617 C616 1.370 1_554 S
C617 C618 1.403 1_554 S
C618 C617 1.403 1_556 S
C618 C619 1.404 . S
C618 C621 1.539 1_556 S
C619 C615 1.408 . S
C619 C618 1.404 . S
C619 H631 0.930 . S
C620 C616 1.584 . S
C620 H632 0.896 1_556 S
C620 H633 0.926 1_556 S
C620 H634 1.006 . S
C621 C618 1.539 1_554 S
C621 H635 0.958 . S
C621 H636 0.961 . S
C621 H637 0.960 . S
H622 C606 0.931 . S
H623 C611 0.929 . S
H624 C612 0.960 . S
H625 C612 0.962 . S
H626 C612 0.960 . S
H627 C613 0.961 . S
H628 C613 0.961 . S
H629 C613 0.961 . S
H630 C614 0.931 . S
H631 C619 0.930 . S
H632 C620 0.896 1_554 S
H633 C620 0.926 1_554 S
H634 C620 1.006 . S
H635 C621 0.958 . S
H636 C621 0.961 . S
H637 C621 0.960 . S
C638 C639 1.391 . S
C638 C640 1.394 . S
C638 H654 0.931 . S
C639 C638 1.391 . S
C639 C643 1.376 . S
C640 C638 1.394 . S
C640 C641 1.369 . S
C640 C644 1.531 . S
C641 C640 1.369 . S
C641 C642 1.410 . S
C641 C649 1.503 . S
C642 C641 1.410 . S
C642 C643 1.392 . S
C642 C645 1.511 . S
C643 C639 1.376 . S
C643 C642 1.392 . S
C643 H655 0.929 . S
C644 C640 1.531 . S
C644 H656 0.960 . S
C644 H657 0.962 . S
C644 H658 0.960 . S
C645 C642 1.511 . S
C645 H659 0.961 1_545 S
C645 H660 0.961 . S
C645 H661 0.961 . S
C646 C647 1.370 . S
C646 C648 1.363 . S
C646 H662 0.931 . S
C647 C646 1.370 . S
C647 C651 1.408 . S
C648 C646 1.363 . S
C648 C649 1.370 . S
C648 C652 1.524 . S
C649 C641 1.503 . S
C649 C648 1.370 . S
C649 C650 1.403 . S
C650 C649 1.403 . S
C650 C651 1.404 . S
C650 C653 1.539 . S
C651 C647 1.408 . S
C651 C650 1.404 . S
C651 H663 0.930 . S
C652 C648 1.524 . S
C652 H664 0.956 . S
C652 H665 0.961 . S
C652 H666 0.961 . S
C653 C650 1.539 . S
C653 H667 0.958 . S
C653 H668 0.961 . S
C653 H669 0.960 . S
H654 C638 0.931 . S
H655 C643 0.929 . S
H656 C644 0.960 . S
H657 C644 0.962 . S
H658 C644 0.960 . S
H659 C645 0.961 1_565 S
H660 C645 0.961 . S
H661 C645 0.961 . S
H662 C646 0.931 . S
H663 C651 0.930 . S
H664 C652 0.956 . S
H665 C652 0.961 . S
H666 C652 0.961 . S
H667 C653 0.958 . S
H668 C653 0.961 . S
H669 C653 0.960 . S
C670 C671 1.391 . S
C670 C672 1.394 . S
C670 H686 0.931 . S
C671 C670 1.391 . S
C671 C675 1.376 1_455 S
C672 C670 1.394 . S
C672 C673 1.369 . S
C672 C676 1.531 . S
C673 C672 1.369 . S
C673 C674 1.410 1_455 S
C673 C681 1.503 . S
C674 C673 1.410 1_655 S
C674 C675 1.392 . S
C674 C677 1.511 . S
C675 C671 1.376 1_655 S
C675 C674 1.392 . S
C675 H687 0.929 . S
C676 C672 1.531 . S
C676 H688 0.960 . S
C676 H689 0.962 . S
C676 H690 0.960 . S
C677 C674 1.511 . S
C677 H691 0.961 . S
C677 H692 0.961 . S
C677 H693 0.961 . S
C678 C679 1.370 1_655 S
C678 C680 1.363 . S
C678 H694 0.931 . S
C679 C678 1.370 1_455 S
C679 C683 1.408 . S
C680 C678 1.363 . S
C680 C681 1.370 1_655 S
C680 C684 1.524 . S
C681 C673 1.503 . S
C681 C680 1.370 1_455 S
C681 C682 1.403 . S
C682 C681 1.403 . S
C682 C683 1.404 . S
C682 C685 1.539 . S
C683 C679 1.408 . S
C683 C682 1.404 . S
C683 H695 0.930 . S
C684 C680 1.524 . S
C684 H696 0.956 1_655 S
C684 H697 0.961 1_545 S
C684 H698 0.961 1_545 S
C685 C682 1.539 . S
C685 H699 0.958 . S
C685 H700 0.961 . S
C685 H701 0.960 . S
H686 C670 0.931 . S
H687 C675 0.929 . S
H688 C676 0.960 . S
H689 C676 0.962 . S
H690 C676 0.960 . S
H691 C677 0.961 . S
H692 C677 0.961 . S
H693 C677 0.961 . S
H694 C678 0.931 . S
H695 C683 0.930 . S
H696 C684 0.956 1_455 S
H697 C684 0.961 1_565 S
H698 C684 0.961 1_565 S
H699 C685 0.958 . S
H700 C685 0.961 . S
H701 C685 0.960 . S
C319 C39 1.491 . S
C327 C38 1.500 . S
C351 C91 1.493 . S
C359 C92 1.500 . S
C383 C145 1.493 1_565 S
C391 C144 1.498 . S
C415 C198 1.499 . S
C423 C197 1.498 . S
C447 C251 1.496 . S
C455 C250 1.500 . S
C479 C304 1.491 . S
C487 C303 1.500 . S
C511 C287 1.549 . S
C519 C22 1.548 . S
C543 C181 1.537 . S
C551 C75 1.543 . S
C575 C128 1.538 . S
C583 C234 1.544 . S
C607 C29 1.565 . S
C615 C241 1.555 . S
C639 C294 1.561 . S
C647 C82 1.568 . S
C671 C188 1.551 . S
C679 C135 1.564 . S
