# Generated by pormake.
# Topology zff, (5)-cn, num edge types: 1
# Building blocks:
#     Node 0, Type 0, BuildingBlock: XOMCOT_clean_sbu_0, # of connection points: 5
#     Node 1, Type 0, BuildingBlock: XOMCOT_clean_sbu_0, # of connection points: 5
#     Node 2, Type 0, BuildingBlock: XOMCOT_clean_sbu_0, # of connection points: 5
#     Node 3, Type 0, BuildingBlock: XOMCOT_clean_sbu_0, # of connection points: 5
#     Node 4, Type 0, BuildingBlock: XOMCOT_clean_sbu_0, # of connection points: 5
#     Node 5, Type 0, BuildingBlock: XOMCOT_clean_sbu_0, # of connection points: 5
#     Node 6, Type 0, BuildingBlock: XOMCOT_clean_sbu_0, # of connection points: 5
#     Node 7, Type 0, BuildingBlock: XOMCOT_clean_sbu_0, # of connection points: 5
#     Node 8, Type 0, BuildingBlock: XOMCOT_clean_sbu_0, # of connection points: 5
#     Node 9, Type 0, BuildingBlock: XOMCOT_clean_sbu_0, # of connection points: 5
#     Node 10, Type 0, BuildingBlock: XOMCOT_clean_sbu_0, # of connection points: 5
#     Node 11, Type 0, BuildingBlock: XOMCOT_clean_sbu_0, # of connection points: 5
#     Node 12, Type 0, BuildingBlock: XOMCOT_clean_sbu_0, # of connection points: 5
#     Node 13, Type 0, BuildingBlock: XOMCOT_clean_sbu_0, # of connection points: 5
#     Node 14, Type 0, BuildingBlock: XOMCOT_clean_sbu_0, # of connection points: 5
#     Node 15, Type 0, BuildingBlock: XOMCOT_clean_sbu_0, # of connection points: 5
#     Edge 16, Type (0, 0), BuildingBlock: EZIPEK_clean_linker_0, # of connection points: 2
#     Edge 17, Type (0, 0), BuildingBlock: EZIPEK_clean_linker_0, # of connection points: 2
#     Edge 18, Type (0, 0), BuildingBlock: EZIPEK_clean_linker_0, # of connection points: 2
#     Edge 19, Type (0, 0), BuildingBlock: EZIPEK_clean_linker_0, # of connection points: 2
#     Edge 20, Type (0, 0), BuildingBlock: EZIPEK_clean_linker_0, # of connection points: 2
#     Edge 21, Type (0, 0), BuildingBlock: EZIPEK_clean_linker_0, # of connection points: 2
#     Edge 22, Type (0, 0), BuildingBlock: EZIPEK_clean_linker_0, # of connection points: 2
#     Edge 23, Type (0, 0), BuildingBlock: EZIPEK_clean_linker_0, # of connection points: 2
#     Edge 24, Type (0, 0), BuildingBlock: EZIPEK_clean_linker_0, # of connection points: 2
#     Edge 25, Type (0, 0), BuildingBlock: EZIPEK_clean_linker_0, # of connection points: 2
#     Edge 26, Type (0, 0), BuildingBlock: EZIPEK_clean_linker_0, # of connection points: 2
#     Edge 27, Type (0, 0), BuildingBlock: EZIPEK_clean_linker_0, # of connection points: 2
#     Edge 28, Type (0, 0), BuildingBlock: EZIPEK_clean_linker_0, # of connection points: 2
#     Edge 29, Type (0, 0), BuildingBlock: EZIPEK_clean_linker_0, # of connection points: 2
#     Edge 30, Type (0, 0), BuildingBlock: EZIPEK_clean_linker_0, # of connection points: 2
#     Edge 31, Type (0, 0), BuildingBlock: EZIPEK_clean_linker_0, # of connection points: 2
#     Edge 32, Type (0, 0), BuildingBlock: EZIPEK_clean_linker_0, # of connection points: 2
#     Edge 33, Type (0, 0), BuildingBlock: EZIPEK_clean_linker_0, # of connection points: 2
#     Edge 34, Type (0, 0), BuildingBlock: EZIPEK_clean_linker_0, # of connection points: 2
#     Edge 35, Type (0, 0), BuildingBlock: EZIPEK_clean_linker_0, # of connection points: 2
#     Edge 36, Type (0, 0), BuildingBlock: EZIPEK_clean_linker_0, # of connection points: 2
#     Edge 37, Type (0, 0), BuildingBlock: EZIPEK_clean_linker_0, # of connection points: 2
#     Edge 38, Type (0, 0), BuildingBlock: EZIPEK_clean_linker_0, # of connection points: 2
#     Edge 39, Type (0, 0), BuildingBlock: EZIPEK_clean_linker_0, # of connection points: 2
#     Edge 40, Type (0, 0), BuildingBlock: EZIPEK_clean_linker_0, # of connection points: 2
#     Edge 41, Type (0, 0), BuildingBlock: EZIPEK_clean_linker_0, # of connection points: 2
#     Edge 42, Type (0, 0), BuildingBlock: EZIPEK_clean_linker_0, # of connection points: 2
#     Edge 43, Type (0, 0), BuildingBlock: EZIPEK_clean_linker_0, # of connection points: 2
#     Edge 44, Type (0, 0), BuildingBlock: EZIPEK_clean_linker_0, # of connection points: 2
#     Edge 45, Type (0, 0), BuildingBlock: EZIPEK_clean_linker_0, # of connection points: 2
#     Edge 46, Type (0, 0), BuildingBlock: EZIPEK_clean_linker_0, # of connection points: 2
#     Edge 47, Type (0, 0), BuildingBlock: EZIPEK_clean_linker_0, # of connection points: 2
#     Edge 48, Type (0, 0), BuildingBlock: EZIPEK_clean_linker_0, # of connection points: 2
#     Edge 49, Type (0, 0), BuildingBlock: EZIPEK_clean_linker_0, # of connection points: 2
#     Edge 50, Type (0, 0), BuildingBlock: EZIPEK_clean_linker_0, # of connection points: 2
#     Edge 51, Type (0, 0), BuildingBlock: EZIPEK_clean_linker_0, # of connection points: 2
#     Edge 52, Type (0, 0), BuildingBlock: EZIPEK_clean_linker_0, # of connection points: 2
#     Edge 53, Type (0, 0), BuildingBlock: EZIPEK_clean_linker_0, # of connection points: 2
#     Edge 54, Type (0, 0), BuildingBlock: EZIPEK_clean_linker_0, # of connection points: 2
#     Edge 55, Type (0, 0), BuildingBlock: EZIPEK_clean_linker_0, # of connection points: 2
# Relax obj value: 0.149
# Max RMSD: 0.220
# Mean RMSD: 0.220
data_MOF--net-zff--node1-XOMCOT_clean_sbu_0--edge1-EZIPEK_clean_linker_0
_symmetry_space_group_name_H-M    P1
_symmetry_Int_Tables_number       1
_symmetry_cell_setting            triclinic
loop_
_symmetry_equiv_pos_as_xyz
'x, y, z'
_cell_length_a     28.578161
_cell_length_b     28.416069
_cell_length_c     51.63614
_cell_angle_alpha  89.81316
_cell_angle_beta   90.162055
_cell_angle_gamma 90.14976
loop_
_atom_site_label
_atom_site_type_symbol
_atom_site_fract_x
_atom_site_fract_y
_atom_site_fract_z
_atom_type_partial_charge
Co0 Co 0.0125 0.31692 0.39153 0.0
C1 C 0.04631 0.3418 0.33915 0.0
C2 C 0.97585 0.31697 0.33643 0.0
C3 C 0.98957 0.33356 0.31238 0.0
N4 N 0.0118 0.32134 0.35339 0.0
N5 N 0.03388 0.34918 0.31429 0.0
H6 H 0.07838 0.35567 0.3471 0.0
H7 H 0.94101 0.30558 0.34121 0.0
C8 C 0.95256 0.23483 0.37633 0.0
O9 O 0.98282 0.22402 0.35821 0.0
N10 N 0.01805 0.31573 0.42912 0.0
C11 C 0.05979 0.32367 0.44061 0.0
C12 C 0.05474 0.3219 0.46691 0.0
C13 C 0.98757 0.30916 0.44891 0.0
N14 N 0.00963 0.31289 0.4722 0.0
C15 C 0.10398 0.27515 0.37984 0.0
C16 C 0.08229 0.19001 0.40315 0.0
C17 C 0.1247 0.19476 0.39023 0.0
C18 C 0.13628 0.23811 0.3789 0.0
C19 C 0.0514 0.22755 0.40361 0.0
N20 N 0.06094 0.26863 0.39077 0.0
H21 H 0.11429 0.30896 0.37246 0.0
H22 H 0.01963 0.22343 0.41463 0.0
H23 H 0.09211 0.33032 0.43037 0.0
H24 H 0.95069 0.30162 0.44643 0.0
O25 O 0.04733 0.37618 0.39176 0.0
O26 O 0.97014 0.36806 0.39342 0.0
O27 O 0.96116 0.26803 0.39221 0.0
C28 C 0.00593 0.39576 0.39287 0.0
H29 H 0.96794 0.33619 0.29519 0.0
H30 H 0.08217 0.32643 0.48121 0.0
H31 H 0.07319 0.15747 0.41295 0.0
H32 H 0.16993 0.24328 0.36971 0.0
Co33 Co 0.66263 0.02382 0.40141 0.0
C34 C 0.62111 0.05379 0.35105 0.0
C35 C 0.60887 0.98051 0.35874 0.0
C36 C 0.58526 0.99285 0.33638 0.0
N37 N 0.63126 0.01874 0.368 0.0
N38 N 0.59322 0.03886 0.33148 0.0
H39 H 0.63262 0.08985 0.35333 0.0
H40 H 0.60842 0.94639 0.36808 0.0
C41 C 0.74931 0.96465 0.39589 0.0
O42 O 0.77531 -0.00167 0.40548 0.0
N43 N 0.69398 0.02976 0.43551 0.0
C44 C 0.73306 0.05477 0.44162 0.0
C45 C 0.74178 0.05192 0.46768 0.0
C46 C 0.6802 0.01157 0.4586 0.0
N47 N 0.70851 0.02488 0.47829 0.0
C48 C 0.70261 0.11635 0.39723 0.0
C49 C 0.77051 0.09191 0.36164 0.0
C50 C 0.77619 0.13313 0.37614 0.0
C51 C 0.74006 0.14703 0.39276 0.0
C52 C 0.73296 0.06201 0.36713 0.0
N53 N 0.70298 0.07225 0.38683 0.0
H54 H 0.67681 0.12541 0.41164 0.0
H55 H 0.72979 0.02916 0.35681 0.0
H56 H 0.75557 0.07311 0.4283 0.0
H57 H 0.65029 0.98921 0.46125 0.0
O58 O 0.6109 0.06171 0.41335 0.0
O59 O 0.61457 0.98447 0.41637 0.0
O60 O 0.70577 0.9707 0.39148 0.0
C61 C 0.59022 0.02241 0.41985 0.0
H62 H 0.56355 0.96994 0.32468 0.0
H63 H 0.77041 0.06827 0.47811 0.0
H64 H 0.79669 0.08129 0.34772 0.0
H65 H 0.74256 0.17948 0.40362 0.0
Co66 Co 0.96595 0.67121 0.39605 0.0
C67 C 0.93749 0.65001 0.34205 0.0
C68 C 0.01122 0.6617 0.34418 0.0
C69 C 0.00022 0.6465 0.31953 0.0
N70 N 0.97165 0.66506 0.35834 0.0
N71 N 0.9538 0.63859 0.31843 0.0
H72 H 0.90193 0.64318 0.34767 0.0
H73 H 0.04614 0.66678 0.35153 0.0
C74 C 0.03376 0.74763 0.38156 0.0
O75 O 0.00696 0.7584 0.3617 0.0
N76 N 0.95741 0.67525 0.43324 0.0
C77 C 0.91529 0.66927 0.44453 0.0
C78 C 0.92026 0.67244 0.47086 0.0
C79 C 0.98781 0.6824 0.45301 0.0
N80 N 0.9656 0.68067 0.4762 0.0
C81 C 0.87691 0.71351 0.38291 0.0
C82 C 0.89929 0.80176 0.40165 0.0
C83 C 0.85578 0.79455 0.39 0.0
C84 C 0.84413 0.74977 0.38086 0.0
C85 C 0.93082 0.76467 0.40325 0.0
N86 N 0.92069 0.7219 0.39257 0.0
H87 H 0.86616 0.67843 0.37785 0.0
H88 H 0.96285 0.77014 0.41391 0.0
H89 H 0.88298 0.66259 0.43421 0.0
H90 H 0.02504 0.68782 0.45062 0.0
O91 O 0.92518 0.61642 0.39594 0.0
O92 O 0.00255 0.61564 0.40007 0.0
O93 O 0.02088 0.71626 0.39783 0.0
C94 C 0.9637 0.5922 0.39836 0.0
H95 H 0.02475 0.6384 0.30425 0.0
H96 H 0.8928 0.66869 0.48513 0.0
H97 H 0.90841 0.8356 0.4099 0.0
H98 H 0.80977 0.74274 0.37284 0.0
Co99 Co 0.31919 0.96938 0.39894 0.0
C100 C 0.3614 0.94058 0.34917 0.0
C101 C 0.33185 0.00984 0.34627 0.0
C102 C 0.34929 -0.0027 0.32235 0.0
N103 N 0.33937 0.97418 0.36306 0.0
N104 N 0.36779 0.95381 0.32425 0.0
H105 H 0.37172 0.90675 0.35698 0.0
H106 H 0.31457 0.04251 0.35094 0.0
C107 C 0.22632 0.02119 0.39853 0.0
O108 O 0.20403 0.98681 0.41009 0.0
N109 N 0.29893 0.96346 0.4355 0.0
C110 C 0.26232 0.938 0.44469 0.0
C111 C 0.26029 0.9413 0.47109 0.0
C112 C 0.3183 0.98256 0.45722 0.0
N113 N 0.29532 0.96922 0.47902 0.0
C114 C 0.28444 0.87364 0.40051 0.0
C115 C 0.21058 0.89037 0.36696 0.0
C116 C 0.2094 0.85021 0.38273 0.0
C117 C 0.24824 0.84043 0.39857 0.0
C118 C 0.24647 0.92311 0.37021 0.0
N119 N 0.28005 0.91646 0.3887 0.0
H120 H 0.31285 0.86756 0.41399 0.0
H121 H 0.24543 0.95536 0.35912 0.0
H122 H 0.23701 0.91896 0.43332 0.0
H123 H 0.3481 0.00609 0.45724 0.0
O124 O 0.37813 0.93818 0.40704 0.0
O125 O 0.365 0.01504 0.40861 0.0
O126 O 0.26906 0.01742 0.39197 0.0
C127 C 0.3945 0.98073 0.4107 0.0
H128 H 0.34832 0.01835 0.30484 0.0
H129 H 0.23414 0.92556 0.48356 0.0
H130 H 0.18204 0.89817 0.35379 0.0
H131 H 0.24906 0.80909 0.41056 0.0
Co132 Co 0.01773 0.67307 0.66171 0.0
C133 C 0.04175 0.63778 0.71414 0.0
C134 C 0.97302 0.66739 0.71402 0.0
C135 C 0.98214 0.64943 0.73844 0.0
N136 N 0.01113 0.6616 0.69893 0.0
N137 N 0.02536 0.6307 0.73829 0.0
H138 H 0.07431 0.62303 0.70745 0.0
H139 H 0.93968 0.68059 0.70738 0.0
C140 C 0.96191 0.75685 0.67852 0.0
O141 O -0.00541 0.76674 0.69563 0.0
N142 N 0.02705 0.68205 0.62485 0.0
C143 C 0.07005 0.68191 0.6141 0.0
C144 C 0.06586 0.6859 0.5878 0.0
C145 C -0.00319 0.68511 0.60472 0.0
N146 N 0.02008 0.68784 0.58191 0.0
C147 C 0.10662 0.71268 0.68146 0.0
C148 C 0.09113 0.7997 0.65876 0.0
C149 C 0.13041 0.79374 0.67442 0.0
C150 C 0.13898 0.74932 0.68541 0.0
C151 C 0.0607 0.76242 0.65497 0.0
N152 N 0.06672 0.72026 0.66739 0.0
H153 H 0.11442 0.67846 0.68919 0.0
H154 H 0.03156 0.76777 0.64206 0.0
H155 H 0.10243 0.67788 0.62476 0.0
H156 H 0.95912 0.68368 0.60657 0.0
O157 O 0.05224 0.61388 0.65898 0.0
O158 O 0.97547 0.62281 0.65488 0.0
O159 O 0.9673 0.72262 0.6628 0.0
C160 C 0.01102 0.59486 0.65499 0.0
H161 H 0.95818 0.64811 0.75462 0.0
H162 H 0.0941 0.68536 0.57387 0.0
H163 H 0.08417 0.83307 0.64929 0.0
H164 H 0.17022 0.74314 0.69683 0.0
Co165 Co 0.32093 0.02147 0.66571 0.0
C166 C 0.35626 0.04628 0.71814 0.0
C167 C 0.32371 0.97843 0.71879 0.0
C168 C 0.34315 0.98705 0.74292 0.0
N169 N 0.33069 0.01623 0.70331 0.0
N170 N 0.36373 0.02972 0.74233 0.0
H171 H 0.37212 0.07834 0.71111 0.0
H172 H 0.30866 0.94543 0.71259 0.0
C173 C 0.23445 0.9683 0.68192 0.0
O174 O 0.22425 0.00116 0.69882 0.0
N175 N 0.31444 0.02953 0.62839 0.0
C176 C 0.32078 0.07187 0.61699 0.0
C177 C 0.31892 0.06689 0.59066 0.0
C178 C 0.30903 -0.00119 0.60854 0.0
N179 N 0.31163 0.02122 0.58528 0.0
C180 C 0.28971 0.11562 0.68127 0.0
C181 C 0.20229 0.10571 0.65868 0.0
C182 C 0.21316 0.14753 0.67132 0.0
C183 C 0.25762 0.15294 0.68248 0.0
C184 C 0.23516 0.06999 0.6577 0.0
N185 N 0.2776 0.07401 0.6698 0.0
H186 H 0.32453 0.12113 0.68857 0.0
H187 H 0.22672 0.03923 0.64649 0.0
H188 H 0.32753 0.1043 0.62726 0.0
H189 H 0.304 0.9613 0.61096 0.0
O190 O 0.38157 0.05249 0.66322 0.0
O191 O 0.3676 0.97558 0.66043 0.0
O192 O 0.26916 0.9735 0.66668 0.0
C193 C 0.39753 0.00964 0.66028 0.0
H194 H 0.34402 0.96303 0.75923 0.0
H195 H 0.32281 0.09465 0.5764 0.0
H196 H 0.16884 0.10113 0.64904 0.0
H197 H 0.26759 0.18578 0.69156 0.0
Co198 Co 0.96891 0.32255 0.65837 0.0
C199 C 0.94053 0.34546 0.71313 0.0
C200 C 0.00509 0.37852 0.70238 0.0
C201 C 0.99112 0.39623 0.72592 0.0
N202 N 0.97281 0.34743 0.69382 0.0
N203 N 0.95027 0.37579 0.73262 0.0
H204 H 0.90955 0.32376 0.71285 0.0
H205 H 0.03565 0.38965 0.69168 0.0
C206 C 0.04647 0.25094 0.65364 0.0
O207 O 0.0304 0.23738 0.63105 0.0
N208 N 0.96271 0.29872 0.6227 0.0
C209 C 0.92925 0.26868 0.61403 0.0
C210 C 0.93151 0.26517 0.58762 0.0
C211 C 0.9849 0.31311 0.60077 0.0
N212 N 0.96621 0.29311 0.57925 0.0
C213 C 0.87635 0.28956 0.67018 0.0
C214 C 0.90043 0.197 0.67989 0.0
C215 C 0.85329 0.2094 0.67896 0.0
C216 C 0.84108 0.25642 0.6748 0.0
C217 C 0.9345 0.23109 0.6754 0.0
N218 N 0.92248 0.2766 0.66996 0.0
H219 H 0.86645 0.32542 0.66601 0.0
H220 H 0.97001 0.21949 0.67481 0.0
H221 H 0.90353 0.25075 0.62559 0.0
H222 H 0.01375 0.33777 0.60043 0.0
O223 O 0.92887 0.37479 0.64883 0.0
O224 O 0.00606 0.37476 0.64634 0.0
O225 O 0.02429 0.28111 0.66712 0.0
C226 C 0.96737 0.39825 0.6446 0.0
H227 H 0.00904 0.42306 0.73705 0.0
H228 H 0.90887 0.24425 0.57534 0.0
H229 H 0.91074 0.16071 0.6829 0.0
H230 H 0.80469 0.26688 0.6739 0.0
Co231 Co 0.66699 0.97333 0.66399 0.0
C232 C 0.64143 0.94609 0.71848 0.0
C233 C 0.6397 0.02056 0.71223 0.0
C234 C 0.62137 0.01105 0.73639 0.0
N235 N 0.65286 0.97994 0.70093 0.0
N236 N 0.62242 0.96419 0.74027 0.0
H237 H 0.64311 0.90885 0.71495 0.0
H238 H 0.6405 0.05463 0.70284 0.0
C239 C 0.73867 0.04213 0.68263 0.0
O240 O 0.74709 0.01368 0.70222 0.0
N241 N 0.67891 0.96555 0.62724 0.0
C242 C 0.67531 0.92375 0.61514 0.0
C243 C 0.68102 0.93042 0.58904 0.0
C244 C 0.68731 -0.00261 0.60821 0.0
N245 N 0.68849 0.97655 0.5846 0.0
C246 C 0.70941 0.88477 0.6791 0.0
C247 C 0.7991 0.91044 0.66479 0.0
C248 C 0.7914 0.8657 0.67497 0.0
C249 C 0.74595 0.85234 0.68193 0.0
C250 C 0.76184 0.94122 0.66218 0.0
N251 N 0.71805 0.92955 0.6706 0.0
H252 H 0.67408 0.87304 0.6825 0.0
H253 H 0.76826 0.97378 0.65235 0.0
H254 H 0.6681 0.89058 0.62467 0.0
H255 H 0.69147 0.03478 0.61142 0.0
O256 O 0.61481 0.93015 0.66074 0.0
O257 O 0.61179 0.0077 0.65608 0.0
O258 O 0.7091 0.03034 0.66525 0.0
C259 C 0.59015 0.96755 0.65542 0.0
H260 H 0.60617 0.0363 0.74956 0.0
H261 H 0.67987 0.90342 0.57429 0.0
H262 H 0.83354 0.92103 0.6582 0.0
H263 H 0.7387 0.81702 0.68879 0.0
Co264 Co 0.52317 0.81392 0.89966 0.0
C265 C 0.54936 0.84771 0.84646 0.0
C266 C 0.47681 0.85838 0.85494 0.0
C267 C 0.48692 0.8803 0.83174 0.0
N268 N 0.51584 0.83761 0.86424 0.0
N269 N 0.53256 0.87369 0.82649 0.0
H270 H 0.58583 0.83898 0.84849 0.0
H271 H 0.44376 0.8597 0.86505 0.0
C272 C 0.45083 0.75028 0.87617 0.0
O273 O 0.47492 0.74956 0.85453 0.0
N274 N 0.53168 0.79211 0.93514 0.0
C275 C 0.57292 0.77881 0.94568 0.0
C276 C 0.5678 0.77358 0.97193 0.0
C277 C 0.50198 0.79541 0.95543 0.0
N278 N 0.52344 0.78426 0.97804 0.0
C279 C 0.61334 0.77794 0.88437 0.0
C280 C 0.58922 0.68396 0.88862 0.0
C281 C 0.63606 0.69606 0.88559 0.0
C282 C 0.64828 0.74353 0.88279 0.0
C283 C 0.55579 0.71915 0.89046 0.0
N284 N 0.5676 0.7657 0.88854 0.0
H285 H 0.62377 0.81448 0.88449 0.0
H286 H 0.52137 0.70816 0.89561 0.0
H287 H 0.60564 0.77635 0.93547 0.0
H288 H 0.46658 0.80861 0.95396 0.0
O289 O 0.5649 0.86621 0.90684 0.0
O290 O 0.48811 0.86627 0.91186 0.0
O291 O 0.4667 0.77206 0.89588 0.0
C292 C 0.52729 0.88898 0.91367 0.0
H293 H 0.46309 0.90108 0.82008 0.0
H294 H 0.5953 0.76584 0.98576 0.0
H295 H 0.57892 0.64756 0.89142 0.0
H296 H 0.68461 0.75394 0.88097 0.0
Co297 Co 0.17922 0.51234 0.89007 0.0
C298 C 0.13305 0.54152 0.84157 0.0
C299 C 0.16878 0.47578 0.83641 0.0
C300 C 0.14819 0.48852 0.81318 0.0
N301 N 0.15898 0.50898 0.85421 0.0
N302 N 0.12585 0.52976 0.81659 0.0
H303 H 0.12003 0.57341 0.85036 0.0
H304 H 0.18911 0.44439 0.84001 0.0
C305 C 0.23643 0.4296 0.89559 0.0
O306 O 0.21224 0.42325 0.91691 0.0
N307 N 0.20061 0.51778 0.92606 0.0
C308 C 0.24344 0.53324 0.93325 0.0
C309 C 0.24626 0.5343 0.95981 0.0
C310 C 0.17835 0.50827 0.94869 0.0
N311 N 0.20554 0.51831 0.96952 0.0
C312 C 0.2082 0.6087 0.89228 0.0
C313 C 0.28734 0.59659 0.86218 0.0
C314 C 0.28151 0.63853 0.87582 0.0
C315 C 0.24023 0.64571 0.88985 0.0
C316 C 0.25403 0.56107 0.86462 0.0
N317 N 0.21688 0.56638 0.88088 0.0
H318 H 0.17815 0.61275 0.90473 0.0
H319 H 0.25948 0.52845 0.85442 0.0
H320 H 0.27125 0.54272 0.92007 0.0
H321 H 0.1436 0.4934 0.95008 0.0
O322 O 0.12002 0.54215 0.8984 0.0
O323 O 0.13425 0.46542 0.89934 0.0
O324 O 0.2312 0.46734 0.8825 0.0
C325 C 0.10424 0.49925 0.90128 0.0
H326 H 0.14943 0.46913 0.79519 0.0
H327 H 0.27642 0.54462 0.97122 0.0
H328 H 0.31845 0.59057 0.85073 0.0
H329 H 0.23468 0.67813 0.90036 0.0
Co330 Co 0.47342 0.16018 0.90049 0.0
C331 C 0.45693 0.11863 0.84857 0.0
C332 C 0.50876 0.17306 0.84606 0.0
C333 C 0.49941 0.15644 0.82136 0.0
N334 N 0.48165 0.14964 0.86321 0.0
N335 N 0.4667 0.12237 0.82314 0.0
H336 H 0.4305 0.09498 0.85606 0.0
H337 H 0.53273 0.20114 0.85083 0.0
C338 C 0.53903 0.24045 0.91609 0.0
O339 O 0.52029 0.24389 0.93913 0.0
N340 N 0.46166 0.16715 0.93758 0.0
C341 C 0.41823 0.17085 0.94769 0.0
C342 C 0.42071 0.1679 0.97417 0.0
C343 C 0.48983 0.15921 0.95835 0.0
N344 N 0.46557 0.16074 0.98084 0.0
C345 C 0.38655 0.19334 0.8762 0.0
C346 C 0.38965 0.28069 0.89952 0.0
C347 C 0.35407 0.27142 0.88178 0.0
C348 C 0.3527 0.22723 0.86973 0.0
C349 C 0.42333 0.24699 0.90451 0.0
N350 N 0.42233 0.20396 0.89287 0.0
H351 H 0.38355 0.15877 0.86792 0.0
H352 H 0.44906 0.25542 0.9187 0.0
H353 H 0.38634 0.17408 0.93653 0.0
H354 H 0.52708 0.15289 0.9571 0.0
O355 O 0.44169 0.09962 0.90306 0.0
O356 O 0.51801 0.11264 0.90775 0.0
O357 O 0.52165 0.21279 0.89902 0.0
C358 C 0.48373 0.08292 0.90729 0.0
H359 H 0.51413 0.16953 0.80343 0.0
H360 H 0.39184 0.17076 0.98761 0.0
H361 H 0.39138 0.31404 0.90962 0.0
H362 H 0.32521 0.2187 0.85603 0.0
Co363 Co 0.82858 0.46312 0.89923 0.0
C364 C 0.84845 0.43288 0.84567 0.0
C365 C 0.83661 0.5074 0.84764 0.0
C366 C 0.85095 0.49634 0.8229 0.0
N367 N 0.83493 0.4676 0.86189 0.0
N368 N 0.85865 0.44962 0.8218 0.0
H369 H 0.85356 0.39669 0.85162 0.0
H370 H 0.83051 0.54237 0.85508 0.0
C371 C 0.74164 0.52762 0.9034 0.0
O372 O 0.71481 0.49597 0.91453 0.0
N373 N 0.82451 0.45652 0.93744 0.0
C374 C 0.85475 0.43014 0.95163 0.0
C375 C 0.84585 0.43506 0.97738 0.0
C376 C 0.79607 0.47579 0.95565 0.0
N377 N 0.80888 0.46354 0.98016 0.0
C378 C 0.7855 0.37334 0.90705 0.0
C379 C 0.70291 0.39395 0.88146 0.0
C380 C 0.70595 0.35216 0.89584 0.0
C381 C 0.74905 0.34052 0.90727 0.0
C382 C 0.74142 0.42412 0.88029 0.0
N383 N 0.78017 0.41577 0.89501 0.0
H384 H 0.81756 0.36527 0.91722 0.0
H385 H 0.739 0.45549 0.86877 0.0
H386 H 0.88251 0.40839 0.94427 0.0
H387 H 0.76712 0.49855 0.95155 0.0
O388 O 0.88327 0.42345 0.89971 0.0
O389 O 0.8836 0.50098 0.90315 0.0
O390 O 0.78413 0.51872 0.89781 0.0
C391 C 0.90725 0.46207 0.90307 0.0
H392 H 0.85753 0.52095 0.80727 0.0
H393 H 0.86546 0.41906 0.99307 0.0
H394 H 0.67073 0.40381 0.87176 0.0
H395 H 0.75338 0.30775 0.91777 0.0
Co396 Co 0.51291 0.17325 0.16707 0.0
C397 C 0.53533 0.14914 0.22158 0.0
C398 C 0.46593 0.17699 0.21845 0.0
C399 C 0.47241 0.15954 0.24326 0.0
N400 N 0.50533 0.16993 0.20468 0.0
N401 N 0.51611 0.14189 0.24516 0.0
H402 H 0.56917 0.13551 0.21628 0.0
H403 H 0.43342 0.19025 0.21058 0.0
C404 C 0.43651 0.23918 0.1482 0.0
O405 O 0.44849 0.23507 0.1239 0.0
N406 N 0.52452 0.17386 0.12965 0.0
C407 C 0.56744 0.18143 0.1194 0.0
C408 C 0.56577 0.17541 0.09311 0.0
C409 C 0.498 0.15983 0.10919 0.0
N410 N 0.52215 0.16232 0.08667 0.0
C411 C 0.60148 0.21636 0.18377 0.0
C412 C 0.58261 0.30132 0.15954 0.0
C413 C 0.62422 0.29638 0.17324 0.0
C414 C 0.63406 0.25338 0.18552 0.0
C415 C 0.55139 0.26418 0.1585 0.0
N416 N 0.56 0.22259 0.17096 0.0
H417 H 0.61039 0.18264 0.1919 0.0
H418 H 0.52131 0.26857 0.14633 0.0
H419 H 0.59857 0.19028 0.13026 0.0
H420 H 0.46163 0.14938 0.11057 0.0
O421 O 0.54857 0.11481 0.1685 0.0
O422 O 0.47166 0.12144 0.16322 0.0
O423 O 0.46109 0.22147 0.1664 0.0
C424 C 0.50763 0.09447 0.16569 0.0
H425 H 0.44625 0.1578 0.25835 0.0
H426 H 0.5941 0.18123 0.07959 0.0
H427 H 0.57461 0.33365 0.14925 0.0
H428 H 0.66676 0.2483 0.19578 0.0
Co429 Co 0.81041 0.5299 0.16365 0.0
C430 C 0.8393 0.55832 0.21582 0.0
C431 C 0.81728 0.48602 0.21594 0.0
C432 C 0.83398 0.49736 0.24031 0.0
N433 N 0.82078 0.52439 0.20066 0.0
N434 N 0.84839 0.54265 0.23997 0.0
H435 H 0.84768 0.59341 0.20907 0.0
H436 H 0.80543 0.45175 0.20961 0.0
C437 C 0.72329 0.46981 0.15696 0.0
O438 O 0.70151 0.50261 0.14361 0.0
N439 N 0.80222 0.53787 0.12591 0.0
C440 C 0.82472 0.57184 0.11232 0.0
C441 C 0.8198 0.56409 0.08644 0.0
C442 C 0.78306 0.50999 0.10726 0.0
N443 N 0.79346 0.5254 0.08297 0.0
C444 C 0.76525 0.62045 0.1596 0.0
C445 C 0.68883 0.59454 0.1892 0.0
C446 C 0.68802 0.63716 0.1757 0.0
C447 C 0.72772 0.65152 0.16193 0.0
C448 C 0.72748 0.56539 0.18694 0.0
N449 N 0.76311 0.57672 0.17053 0.0
H450 H 0.79544 0.63133 0.1487 0.0
H451 H 0.7278 0.53254 0.1975 0.0
H452 H 0.84599 0.59964 0.12034 0.0
H453 H 0.76342 0.47835 0.111 0.0
O454 O 0.86605 0.56863 0.16177 0.0
O455 O 0.86307 0.49077 0.15766 0.0
O456 O 0.76439 0.47653 0.16569 0.0
C457 C 0.88795 0.52894 0.15821 0.0
H458 H 0.83777 0.47353 0.25658 0.0
H459 H 0.83571 0.58476 0.07114 0.0
H460 H 0.65932 0.58343 0.20087 0.0
H461 H 0.72868 0.6853 0.15217 0.0
Co462 Co 0.45701 0.81962 0.16205 0.0
C463 C 0.43108 0.84255 0.21692 0.0
C464 C 0.50304 0.82412 0.21297 0.0
C465 C 0.49602 0.84014 0.23781 0.0
N466 N 0.46204 0.82382 0.1999 0.0
N467 N 0.45079 0.85236 0.24014 0.0
H468 H 0.39605 0.85328 0.212 0.0
H469 H 0.53672 0.81706 0.20436 0.0
C470 C 0.51122 0.73464 0.17705 0.0
O471 O 0.47718 0.72415 0.19313 0.0
N472 N 0.45154 0.81881 0.12446 0.0
C473 C 0.4117 0.83012 0.11184 0.0
C474 C 0.41872 0.82613 0.08567 0.0
C475 C 0.4826 0.80782 0.10566 0.0
N476 N 0.46303 0.81209 0.0818 0.0
C477 C 0.36954 0.77204 0.17817 0.0
C478 C 0.38768 0.69335 0.14838 0.0
C479 C 0.34981 0.69242 0.16525 0.0
C480 C 0.33962 0.73282 0.17973 0.0
C481 C 0.41587 0.73298 0.14725 0.0
N482 N 0.40885 0.77058 0.1632 0.0
H483 H 0.36057 0.80313 0.18872 0.0
H484 H 0.44448 0.73292 0.13381 0.0
H485 H 0.37937 0.84012 0.12113 0.0
H486 H 0.51824 0.79676 0.10926 0.0
O487 O 0.42014 0.87682 0.16203 0.0
O488 O 0.49771 0.87268 0.15981 0.0
O489 O 0.50771 0.77002 0.16174 0.0
C490 C 0.46046 0.89852 0.16068 0.0
H491 H 0.52277 0.84614 0.25233 0.0
H492 H 0.39316 0.83246 0.07055 0.0
H493 H 0.39579 0.66332 0.13633 0.0
H494 H 0.30932 0.73373 0.19227 0.0
Co495 Co 0.15875 0.46788 0.15569 0.0
C496 C 0.13133 0.43688 0.2086 0.0
C497 C 0.17561 0.49742 0.21089 0.0
C498 C 0.16376 0.48363 0.23572 0.0
N499 N 0.157 0.46681 0.19376 0.0
N500 N 0.13534 0.44581 0.23417 0.0
H501 H 0.10823 0.41009 0.20098 0.0
H502 H 0.19402 0.52931 0.20592 0.0
C503 C 0.25195 0.51372 0.1677 0.0
O504 O 0.26545 0.47658 0.18093 0.0
N505 N 0.15786 0.46609 0.11796 0.0
C506 C 0.1453 0.42673 0.10511 0.0
C507 C 0.14961 0.43419 0.07905 0.0
C508 C 0.1702 0.49736 0.09925 0.0
N509 N 0.16523 0.47832 0.07528 0.0
C510 C 0.19232 0.37391 0.16896 0.0
C511 C 0.27356 0.38275 0.14033 0.0
C512 C 0.2679 0.34405 0.15665 0.0
C513 C 0.22628 0.33867 0.17055 0.0
C514 C 0.23919 0.41703 0.13955 0.0
N515 N 0.20054 0.41398 0.155 0.0
H516 H 0.15988 0.36882 0.17902 0.0
H517 H 0.24475 0.44732 0.12729 0.0
H518 H 0.13449 0.3942 0.11427 0.0
H519 H 0.18358 0.53233 0.10299 0.0
O520 O 0.09754 0.43805 0.1552 0.0
O521 O 0.11177 0.51518 0.15561 0.0
O522 O 0.21266 0.5138 0.1558 0.0
C523 C 0.08163 0.48116 0.15537 0.0
H524 H 0.17315 0.50157 0.25346 0.0
H525 H 0.14337 0.40863 0.06391 0.0
H526 H 0.30502 0.38713 0.12889 0.0
H527 H 0.22051 0.30805 0.18268 0.0
C528 C 0.94889 0.51333 0.37787 0.0
C529 C 0.96548 0.54021 0.39903 0.0
C530 C 0.01298 0.47407 0.41447 0.0
C531 C -0.00267 0.44704 0.39312 0.0
N532 N 0.94664 0.43841 0.35578 0.0
N533 N -0.00116 0.54193 0.44157 0.0
C534 C 0.96405 0.466 0.37523 0.0
C535 C -0.00653 0.51924 0.41849 0.0
N536 N 0.91945 0.53323 0.36007 0.0
N537 N 0.04606 0.45667 0.43108 0.0
H538 H 0.9816 0.57347 0.44532 0.0
H539 H 0.01507 0.52719 0.45774 0.0
H540 H 0.0601 0.42307 0.42954 0.0
H541 H 0.06235 0.47686 0.44529 0.0
H542 H 0.91018 0.51801 0.34251 0.0
H543 H 0.90339 0.5655 0.36283 0.0
H544 H 0.91791 0.44692 0.34431 0.0
H545 H 0.96048 0.40571 0.35127 0.0
C546 C 0.51962 0.97793 0.43739 0.0
C547 C 0.53873 0.01878 0.42513 0.0
C548 C 0.46483 0.03132 0.40278 0.0
C549 C 0.44472 0.99164 0.41541 0.0
N550 N 0.44973 0.93526 0.45036 0.0
N551 N 0.51938 0.09534 0.40764 0.0
C552 C 0.47112 0.96711 0.4344 0.0
C553 C 0.50814 0.0492 0.4116 0.0
N554 N 0.54755 0.94961 0.45209 0.0
N555 N 0.44406 0.05081 0.38146 0.0
H556 H 0.54771 0.11144 0.41678 0.0
H557 H 0.4964 0.11901 0.39885 0.0
H558 H 0.41454 0.03637 0.37266 0.0
H559 H 0.45969 0.07762 0.37067 0.0
H560 H 0.5377 0.91607 0.45824 0.0
H561 H 0.58089 0.95974 0.45785 0.0
H562 H 0.46617 0.92003 0.46633 0.0
H563 H 0.4142 0.92727 0.4492 0.0
C564 C 0.9527 0.47636 0.66547 0.0
C565 C 0.9698 0.45054 0.644 0.0
C566 C 0.01897 0.51804 0.63115 0.0
C567 C 0.00206 0.54356 0.65274 0.0
N568 N 0.94957 0.54905 0.68919 0.0
N569 N 0.00976 0.44976 0.60324 0.0
C570 C 0.96806 0.52316 0.66947 0.0
C571 C 0.00038 0.47235 0.62594 0.0
N572 N 0.92352 0.4556 0.68303 0.0
N573 N 0.05248 0.53753 0.61559 0.0
H574 H -0.00596 0.41775 0.59856 0.0
H575 H 0.02882 0.46437 0.58806 0.0
H576 H 0.06548 0.57147 0.61823 0.0
H577 H 0.06962 0.51933 0.60098 0.0
H578 H 0.91839 0.46814 0.70173 0.0
H579 H 0.90433 0.42547 0.67916 0.0
H580 H 0.91891 0.54033 0.69895 0.0
H581 H 0.96431 0.58038 0.69546 0.0
C582 C 0.52089 0.00286 0.63359 0.0
C583 C 0.53935 0.96697 0.64978 0.0
C584 C 0.46534 0.95938 0.67197 0.0
C585 C 0.44729 -0.00223 0.65724 0.0
N586 N 0.45302 0.04688 0.61909 0.0
N587 N 0.52139 0.89586 0.6731 0.0
C588 C 0.47363 0.01707 0.63653 0.0
C589 C 0.50919 0.94014 0.6654 0.0
N590 N 0.54897 0.02253 0.61519 0.0
N591 N 0.44145 0.94232 0.69287 0.0
H592 H 0.55172 0.87939 0.66672 0.0
H593 H 0.49839 0.87326 0.68267 0.0
H594 H 0.41071 0.95736 0.6996 0.0
H595 H 0.45451 0.91634 0.70511 0.0
H596 H 0.54085 0.05277 0.6047 0.0
H597 H 0.58113 0.00749 0.61069 0.0
H598 H 0.46908 0.05874 0.60223 0.0
H599 H 0.41832 0.05755 0.62045 0.0
C600 C 0.55328 0.97101 0.90458 0.0
C601 C 0.52595 0.94006 0.91958 0.0
C602 C 0.47323 0.00543 0.93041 0.0
C603 C 0.4946 0.0325 0.91054 0.0
N604 N 0.55104 0.03753 0.8757 0.0
N605 N 0.46524 0.92906 0.95125 0.0
C606 C 0.53366 0.01434 0.89683 0.0
C607 C 0.48757 0.95789 0.93402 0.0
N608 N 0.59834 0.96003 0.89848 0.0
N609 N 0.4408 0.02548 0.94632 0.0
H610 H 0.47889 0.89641 0.95655 0.0
H611 H 0.43347 0.93696 0.95999 0.0
H612 H 0.4297 0.0602 0.94437 0.0
H613 H 0.42707 0.00902 0.96265 0.0
H614 H 0.62068 0.98348 0.88904 0.0
H615 H 0.61528 0.93073 0.9062 0.0
H616 H 0.57719 0.02366 0.864 0.0
H617 H 0.536 0.06802 0.86818 0.0
C618 C 0.98895 0.43465 0.89324 0.0
C619 C 0.95858 0.46309 0.90798 0.0
C620 C 0.02617 0.50961 0.9231 0.0
C621 C 0.05389 0.48784 0.90385 0.0
N622 N 0.05907 0.43379 0.8677 0.0
N623 N 0.94906 0.52176 0.94129 0.0
C624 C 0.03471 0.45123 0.88827 0.0
C625 C 0.97755 0.4988 0.9243 0.0
N626 N 0.97507 0.39155 0.88436 0.0
N627 N 0.04655 0.53886 0.94087 0.0
H628 H 0.9156 0.50969 0.94587 0.0
H629 H 0.95829 0.55269 0.95078 0.0
H630 H 0.08189 0.5478 0.94057 0.0
H631 H 0.02947 0.55186 0.9571 0.0
H632 H -0.00219 0.36812 0.87541 0.0
H633 H 0.94342 0.37583 0.88915 0.0
H634 H 0.04557 0.40914 0.85484 0.0
H635 H 0.09087 0.44742 0.86158 0.0
C636 C 0.44917 0.97788 0.18092 0.0
C637 C 0.46589 0.95028 0.16017 0.0
C638 C 0.51646 0.01517 0.14558 0.0
C639 C 0.4994 0.04314 0.16611 0.0
N640 N 0.4458 0.05348 0.20184 0.0
N641 N 0.50449 0.94603 0.119 0.0
C642 C 0.46476 0.02503 0.18337 0.0
C643 C 0.49661 0.96994 0.14147 0.0
N644 N 0.41935 0.95885 0.19875 0.0
N645 N 0.55105 0.03198 0.1298 0.0
H646 H 0.48785 0.91417 0.11497 0.0
H647 H 0.52289 0.95977 0.10332 0.0
H648 H 0.56508 0.0657 0.13142 0.0
H649 H 0.56835 0.01141 0.11622 0.0
H650 H 0.41199 0.97399 0.2166 0.0
H651 H 0.40175 0.92736 0.1959 0.0
H652 H 0.41555 0.04564 0.21218 0.0
H653 H 0.45959 0.08621 0.20635 0.0
C654 C 0.96904 0.53953 0.17511 0.0
C655 C 0.93888 0.52541 0.15476 0.0
C656 C 0.0035 0.48417 0.13362 0.0
C657 C 0.03155 0.49266 0.15579 0.0
N658 N 0.03981 0.52359 0.19909 0.0
N659 N 0.92641 0.48519 0.11418 0.0
C660 C 0.01403 0.51917 0.17689 0.0
C661 C 0.95594 0.4981 0.13382 0.0
N662 N 0.95526 0.57281 0.19253 0.0
N663 N 0.02276 0.46471 0.11198 0.0
H664 H 0.89283 0.4989 0.1121 0.0
H665 H 0.93449 0.45977 0.10044 0.0
H666 H 0.05711 0.45295 0.11132 0.0
H667 H 0.00589 0.46308 0.09411 0.0
H668 H 0.97748 0.58745 0.20635 0.0
H669 H 0.92343 0.59018 0.1914 0.0
H670 H 0.02647 0.53691 0.21631 0.0
H671 H 0.07338 0.51013 0.20108 0.0
C672 C 0.0632 0.42347 0.29452 0.0
C673 C 0.06082 0.37365 0.29466 0.0
C674 C 0.11442 0.37189 0.25754 0.0
C675 C 0.11111 0.42163 0.25507 0.0
N676 N 0.07461 0.4938 0.26874 0.0
N677 N 0.08158 0.29983 0.27548 0.0
C678 C 0.08363 0.44726 0.27302 0.0
C679 C 0.08554 0.3477 0.27579 0.0
N680 N 0.04656 0.44811 0.31512 0.0
N681 N 0.14708 0.34815 0.24347 0.0
H682 H 0.06241 0.2813 0.28936 0.0
H683 H 0.09468 0.27896 0.26065 0.0
H684 H 0.17072 0.3652 0.23126 0.0
H685 H 0.15408 0.31247 0.24591 0.0
H686 H 0.05309 0.48387 0.31773 0.0
H687 H 0.03027 0.4319 0.33079 0.0
H688 H 0.05257 0.51366 0.28036 0.0
H689 H 0.08516 0.51151 0.25206 0.0
C690 C 0.53497 0.13556 0.29227 0.0
C691 C 0.5363 0.1162 0.26693 0.0
C692 C 0.58254 0.0501 0.28411 0.0
C693 C 0.57512 0.06593 0.30977 0.0
N694 N 0.53513 0.11918 0.33832 0.0
N695 N 0.55267 0.04826 0.24035 0.0
C696 C 0.54877 0.10747 0.31389 0.0
C697 C 0.55777 0.07155 0.26326 0.0
N698 N 0.52258 0.18146 0.29563 0.0
N699 N 0.6145 0.01553 0.27951 0.0
H700 H 0.53179 0.06065 0.22532 0.0
H701 H 0.56451 0.01403 0.23747 0.0
H702 H 0.63496 0.0008 0.29418 0.0
H703 H 0.62442 0.00552 0.26092 0.0
H704 H 0.52493 0.19847 0.31344 0.0
H705 H 0.51519 0.20391 0.28015 0.0
H706 H 0.51221 0.14675 0.34215 0.0
H707 H 0.54263 0.09826 0.3544 0.0
C708 C 0.85897 0.61076 0.26956 0.0
C709 C 0.875 0.56717 0.25966 0.0
C710 C 0.94027 0.56884 0.29045 0.0
C711 C 0.92771 0.61489 0.29821 0.0
N712 N 0.87902 0.68294 0.29214 0.0
N713 N 0.93814 0.51151 0.25605 0.0
C714 C 0.88806 0.63683 0.28687 0.0
C715 C 0.91773 0.54809 0.26879 0.0
N716 N 0.81531 0.62632 0.26313 0.0
N717 N 0.97179 0.54358 0.3046 0.0
H718 H 0.92443 0.49753 0.23899 0.0
H719 H 0.97131 0.49888 0.26077 0.0
H720 H 0.98805 0.55661 0.32119 0.0
H721 H 0.97667 0.50768 0.30166 0.0
H722 H 0.79987 0.65568 0.27154 0.0
H723 H 0.79282 0.60725 0.25114 0.0
H724 H 0.85312 0.70226 0.2827 0.0
H725 H 0.90037 0.70304 0.30426 0.0
C726 C 0.44769 0.92252 0.26885 0.0
C727 C 0.42977 0.87787 0.26143 0.0
C728 C 0.36847 0.885 0.29455 0.0
C729 C 0.3894 0.92723 0.3036 0.0
N730 N 0.45416 0.98136 0.30264 0.0
N731 N 0.37787 0.81297 0.2699 0.0
C732 C 0.43058 0.94459 0.29166 0.0
C733 C 0.39139 0.85809 0.27506 0.0
N734 N 0.47943 0.94498 0.25343 0.0
N735 N 0.32575 0.87166 0.30384 0.0
H736 H 0.39448 0.79229 0.25606 0.0
H737 H 0.35313 0.79478 0.28085 0.0
H738 H 0.30762 0.89121 0.31759 0.0
H739 H 0.30647 0.84374 0.29626 0.0
H740 H 0.48987 0.97966 0.25644 0.0
H741 H 0.49118 0.931 0.23599 0.0
H742 H 0.4868 0.9929 0.29627 0.0
H743 H 0.44315 -0.0027 0.31973 0.0
C744 C 0.11771 0.59888 0.78761 0.0
C745 C 0.09967 0.55593 0.79743 0.0
C746 C 0.03274 0.5616 0.76767 0.0
C747 C 0.04916 0.60613 0.75904 0.0
N748 N 0.10258 0.671 0.76364 0.0
N749 N 0.03659 0.50023 0.80042 0.0
C750 C 0.09041 0.62586 0.76987 0.0
C751 C 0.05614 0.53837 0.78846 0.0
N752 N 0.1617 0.61289 0.7946 0.0
N753 N -0.00404 0.54069 0.75527 0.0
H754 H 0.05282 0.48287 0.81585 0.0
H755 H 0.0028 0.48841 0.79659 0.0
H756 H 0.97819 0.5568 0.74002 0.0
H757 H 0.98534 0.50616 0.75869 0.0
H758 H 0.17896 0.64145 0.78629 0.0
H759 H 0.18256 0.5935 0.80736 0.0
H760 H 0.12977 0.68926 0.77256 0.0
H761 H 0.08272 0.6917 0.75102 0.0
C762 C 0.39834 0.11831 0.79357 0.0
C763 C 0.44163 0.09959 0.80221 0.0
C764 C 0.43475 0.03572 0.77035 0.0
C765 C 0.38996 0.05271 0.76285 0.0
N766 N 0.32612 0.10605 0.76943 0.0
N767 N 0.49901 0.03819 0.80143 0.0
C768 C 0.37103 0.09306 0.77502 0.0
C769 C 0.45927 0.05758 0.79128 0.0
N770 N 0.38391 0.16076 0.80293 0.0
N771 N 0.45443 -0.00027 0.75679 0.0
H772 H 0.51789 0.05423 0.81633 0.0
H773 H 0.51161 0.00515 0.79635 0.0
H774 H 0.43721 0.98324 0.7415 0.0
H775 H 0.48874 0.98845 0.75938 0.0
H776 H 0.35501 0.17897 0.79586 0.0
H777 H 0.40302 0.17956 0.8167 0.0
H778 H 0.3082 0.13236 0.77921 0.0
H779 H 0.30531 0.08783 0.75618 0.0
C780 C 0.85337 0.4188 0.77717 0.0
C781 C 0.87929 0.42471 0.80028 0.0
C782 C 0.94617 0.38521 0.78017 0.0
C783 C 0.92329 0.38641 0.75576 0.0
N784 N 0.85432 0.40701 0.73085 0.0
N785 N 0.95239 0.41878 0.82309 0.0
C786 C 0.87636 0.40333 0.75422 0.0
C787 C 0.92613 0.40888 0.8017 0.0
N788 N 0.80639 0.42742 0.7774 0.0
N789 N 0.98675 0.3604 0.7828 0.0
H790 H 0.93938 0.43741 0.83885 0.0
H791 H 0.98819 0.4126 0.82401 0.0
H792 H 0.00098 0.34113 0.76758 0.0
H793 H 0.00322 0.35469 0.80056 0.0
H794 H 0.7841 0.41932 0.76205 0.0
H795 H 0.78905 0.43874 0.79401 0.0
H796 H 0.82296 0.42496 0.72815 0.0
H797 H 0.86835 0.39456 0.71372 0.0
C798 C 0.54537 0.88141 0.77924 0.0
C799 C 0.5581 0.8938 0.80485 0.0
C800 C 0.61877 0.9467 0.78741 0.0
C801 C 0.60182 0.93892 0.76195 0.0
N802 N 0.54299 0.90525 0.73423 0.0
N803 N 0.60228 0.94381 0.83342 0.0
C804 C 0.56366 0.90769 0.75799 0.0
C805 C 0.59382 0.92781 0.80899 0.0
N806 N 0.51632 0.84388 0.77531 0.0
N807 N 0.6594 0.97128 0.79085 0.0
H808 H 0.58313 0.93232 0.84937 0.0
H809 H 0.62513 0.97141 0.8375 0.0
H810 H 0.67872 0.98458 0.77534 0.0
H811 H 0.67614 0.97454 0.80869 0.0
H812 H 0.50914 0.83003 0.75707 0.0
H813 H 0.50318 0.82366 0.79056 0.0
H814 H 0.51302 0.88548 0.73062 0.0
H815 H 0.553 0.92684 0.71887 0.0
C816 C 0.14756 0.11732 0.37159 0.0
C817 C 0.15662 0.15383 0.38959 0.0
C818 C 0.21575 0.10524 0.41124 0.0
C819 C 0.20299 0.06702 0.39497 0.0
N820 N 0.15523 0.03459 0.36084 0.0
N821 N 0.19641 0.18282 0.42752 0.0
C822 C 0.16855 0.0725 0.37538 0.0
C823 C 0.19038 0.14811 0.40951 0.0
N824 N 0.1192 0.12594 0.35074 0.0
N825 N 0.25188 0.1004 0.4285 0.0
H826 H 0.17969 0.21535 0.42631 0.0
H827 H 0.21589 0.17876 0.44443 0.0
H828 H 0.26927 0.0687 0.43172 0.0
H829 H 0.26658 0.12835 0.43867 0.0
H830 H 0.11437 0.1025 0.33552 0.0
H831 H 0.10331 0.15848 0.34752 0.0
H832 H 0.12676 0.03473 0.34824 0.0
H833 H 0.17094 0.00164 0.36252 0.0
C834 C 0.86463 0.23331 0.37224 0.0
C835 C 0.90722 0.20931 0.37775 0.0
C836 C 0.86286 0.13665 0.38527 0.0
C837 C 0.82157 0.15906 0.376 0.0
N838 N 0.78536 0.22651 0.35597 0.0
N839 N 0.94752 0.13668 0.3873 0.0
C840 C 0.82308 0.20681 0.36815 0.0
C841 C 0.90656 0.16042 0.38337 0.0
N842 N 0.86322 0.28136 0.37144 0.0
N843 N 0.86009 0.0938 0.3973 0.0
H844 H 0.98008 0.15324 0.38807 0.0
H845 H 0.94942 0.10011 0.38825 0.0
H846 H 0.82865 0.07598 0.40019 0.0
H847 H 0.88821 0.07812 0.40682 0.0
H848 H 0.83212 0.30024 0.37 0.0
H849 H 0.89208 0.30271 0.37506 0.0
H850 H 0.7863 0.25971 0.34736 0.0
H851 H 0.75463 0.20786 0.35214 0.0
C852 C 0.788 0.8392 0.40824 0.0
C853 C 0.82222 0.83404 0.38863 0.0
C854 C 0.80528 0.91296 0.37204 0.0
C855 C 0.77077 0.91816 0.39153 0.0
N856 N 0.72331 0.88425 0.42551 0.0
N857 N 0.85682 0.86034 0.34868 0.0
C858 C 0.75989 0.8804 0.40861 0.0
C859 C 0.82865 0.8692 0.36946 0.0
N860 N 0.78428 0.80593 0.42735 0.0
N861 N 0.81665 0.9503 0.3565 0.0
H862 H 0.8745 0.82855 0.34634 0.0
H863 H 0.85961 0.88257 0.3327 0.0
H864 H 0.79879 0.98219 0.35694 0.0
H865 H 0.84538 0.95075 0.34416 0.0
H866 H 0.76437 0.8102 0.44401 0.0
H867 H 0.80349 0.77477 0.42739 0.0
H868 H 0.71026 0.85618 0.4363 0.0
H869 H 0.70365 0.91482 0.42763 0.0
C870 C 0.12207 0.74786 0.38165 0.0
C871 C 0.07921 0.77247 0.38503 0.0
C872 C 0.1236 0.84483 0.39298 0.0
C873 C 0.16527 0.82223 0.3847 0.0
N874 N 0.20267 0.75311 0.36749 0.0
N875 N 0.03904 0.84609 0.39188 0.0
C876 C 0.16421 0.77385 0.37815 0.0
C877 C 0.07992 0.82152 0.39 0.0
N878 N 0.12295 0.69983 0.38211 0.0
N879 N 0.12593 0.88775 0.4048 0.0
H880 H 0.0062 0.8302 0.39117 0.0
H881 H 0.03779 0.88272 0.3924 0.0
H882 H 0.15749 0.90479 0.40869 0.0
H883 H 0.0972 0.90385 0.41339 0.0
H884 H 0.1539 0.68052 0.38198 0.0
H885 H 0.09346 0.67931 0.38569 0.0
H886 H 0.20215 0.71925 0.35981 0.0
H887 H 0.23383 0.77122 0.36406 0.0
C888 C 0.19919 0.90177 0.65643 0.0
C889 C 0.20747 0.92332 0.68086 0.0
C890 C 0.16567 0.85798 0.70197 0.0
C891 C 0.16242 0.83452 0.67784 0.0
N892 N 0.1876 0.82862 0.63349 0.0
N893 N 0.20864 0.91413 0.7277 0.0
C894 C 0.18323 0.85462 0.65556 0.0
C895 C 0.19359 0.89932 0.70394 0.0
N896 N 0.20371 0.92694 0.63397 0.0
N897 N 0.14083 0.84203 0.72281 0.0
H898 H 0.23074 0.94278 0.73049 0.0
H899 H 0.20321 0.89471 0.74458 0.0
H900 H 0.12005 0.81184 0.7223 0.0
H901 H 0.13782 0.86106 0.73995 0.0
H902 H 0.19416 0.91365 0.61592 0.0
H903 H 0.2112 0.9628 0.63357 0.0
H904 H 0.20627 0.84034 0.61738 0.0
H905 H 0.1769 0.79353 0.63239 0.0
C906 C 0.14372 0.18718 0.6907 0.0
C907 C 0.1778 0.18565 0.67088 0.0
C908 C 0.13156 0.24058 0.64473 0.0
C909 C 0.09351 0.23444 0.66204 0.0
N910 N 0.06391 0.20527 0.70288 0.0
N911 N 0.20628 0.21169 0.62941 0.0
C912 C 0.10002 0.20958 0.68575 0.0
C913 C 0.17268 0.21329 0.64818 0.0
N914 N 0.15327 0.16677 0.71413 0.0
N915 N 0.12861 0.27342 0.62538 0.0
H916 H 0.23796 0.19407 0.63198 0.0
H917 H 0.20198 0.22591 0.61095 0.0
H918 H 0.09947 0.29506 0.62291 0.0
H919 H 0.15654 0.28262 0.61348 0.0
H920 H 0.13199 0.16993 0.73035 0.0
H921 H 0.18487 0.14981 0.71801 0.0
H922 H 0.06411 0.18238 0.71864 0.0
H923 H 0.0327 0.22365 0.70102 0.0
C924 C 0.78323 0.10423 0.65708 0.0
C925 C 0.76344 0.08831 0.68091 0.0
C926 C 0.79935 0.15549 0.70339 0.0
C927 C 0.81749 0.17172 0.67952 0.0
N928 N 0.81664 0.16921 0.63291 0.0
N929 N 0.7412 0.10746 0.72484 0.0
C930 C 0.80589 0.14866 0.65613 0.0
C931 C 0.76815 0.11648 0.70355 0.0
N932 N 0.78345 0.07612 0.63567 0.0
N933 N 0.81262 0.17677 0.72595 0.0
H934 H 0.716 0.08095 0.72539 0.0
H935 H 0.74004 0.12953 0.74089 0.0
H936 H 0.83376 0.20676 0.7264 0.0
H937 H 0.80512 0.16294 0.74418 0.0
H938 H 0.80285 0.08371 0.61912 0.0
H939 H 0.76793 0.04321 0.63483 0.0
H940 H 0.80429 0.15673 0.61521 0.0
H941 H 0.834 0.20141 0.63142 0.0
C942 C 0.89653 0.79622 0.65387 0.0
C943 C 0.91734 0.78391 0.67805 0.0
C944 C 0.85376 0.82473 0.70067 0.0
C945 C 0.83132 0.83282 0.67663 0.0
N946 N 0.82541 0.81689 0.63098 0.0
N947 N 0.90852 0.77735 0.72478 0.0
C948 C 0.85077 0.81528 0.65345 0.0
C949 C 0.89401 0.79558 0.70159 0.0
N950 N 0.92132 0.7927 0.63136 0.0
N951 N 0.83761 0.84608 0.72258 0.0
H952 H 0.93701 0.75507 0.72692 0.0
H953 H 0.88928 0.7806 0.74179 0.0
H954 H 0.80752 0.86677 0.72287 0.0
H955 H 0.8561 0.84623 0.74 0.0
H956 H 0.90919 0.80553 0.61365 0.0
H957 H 0.95609 0.78216 0.63065 0.0
H958 H 0.83598 0.80034 0.614 0.0
H959 H 0.79161 0.83065 0.63004 0.0
C960 C 0.68431 0.63055 0.86752 0.0
C961 C 0.67172 0.65877 0.88893 0.0
C962 C 0.71703 0.60789 0.9179 0.0
C963 C 0.72258 0.57521 0.89751 0.0
N964 N 0.71587 0.55662 0.85212 0.0
N965 N 0.67425 0.67432 0.93484 0.0
C966 C 0.70797 0.58716 0.87197 0.0
C967 C 0.68797 0.64772 0.9142 0.0
N968 N 0.67381 0.64564 0.84301 0.0
N969 N 0.74143 0.60193 0.94039 0.0
H970 H 0.65464 0.705 0.93286 0.0
H971 H 0.67992 0.66447 0.95403 0.0
H972 H 0.76578 0.57512 0.94256 0.0
H973 H 0.74215 0.62648 0.95532 0.0
H974 H 0.68524 0.62912 0.82624 0.0
H975 H 0.65636 0.6772 0.83939 0.0
H976 H 0.701 0.55979 0.83379 0.0
H977 H 0.73702 0.52719 0.85416 0.0
C978 C 0.39458 0.69459 0.89889 0.0
C979 C 0.40494 0.72538 0.87776 0.0
C980 C 0.33165 0.70194 0.85627 0.0
C981 C 0.32118 0.67209 0.87749 0.0
N982 N 0.33738 0.64643 0.92121 0.0
N983 N 0.37667 0.76809 0.84031 0.0
C984 C 0.35085 0.67074 0.89954 0.0
C985 C 0.37156 0.73181 0.85755 0.0
N986 N 0.42723 0.68558 0.91767 0.0
N987 N 0.30373 0.70131 0.83473 0.0
H988 H 0.40408 0.79224 0.84124 0.0
H989 H 0.35121 0.77742 0.82679 0.0
H990 H 0.27262 0.68207 0.83373 0.0
H991 H 0.31278 0.71756 0.81734 0.0
H992 H 0.42436 0.65802 0.93092 0.0
H993 H 0.45884 0.70319 0.91947 0.0
H994 H 0.35403 0.64968 0.93908 0.0
H995 H 0.30739 0.62561 0.92211 0.0
C996 C 0.33547 0.35397 0.86913 0.0
C997 C 0.31897 0.30904 0.87709 0.0
C998 C 0.24291 0.34391 0.88626 0.0
C999 C 0.26342 0.38943 0.88516 0.0
N1000 N 0.33124 0.43794 0.87624 0.0
N1001 N 0.25653 0.26181 0.89537 0.0
C1002 C 0.31001 0.3948 0.87622 0.0
C1003 C 0.27224 0.30383 0.8858 0.0
N1004 N 0.37609 0.35736 0.85538 0.0
N1005 N 0.1954 0.33897 0.8874 0.0
H1006 H 0.2768 0.23145 0.89595 0.0
H1007 H 0.22438 0.25818 0.90466 0.0
H1008 H 0.17274 0.36768 0.88634 0.0
H1009 H 0.17865 0.30642 0.88618 0.0
H1010 H 0.38806 0.38878 0.84728 0.0
H1011 H 0.39503 0.32767 0.84987 0.0
H1012 H 0.36675 0.44262 0.87249 0.0
H1013 H 0.31462 0.46863 0.88214 0.0
C1014 C 0.6513 0.30954 0.92622 0.0
C1015 C 0.6635 0.32261 0.90054 0.0
C1016 C 0.58966 0.28834 0.8854 0.0
C1017 C 0.58199 0.26827 0.91029 0.0
N1018 N 0.61634 0.24831 0.95196 0.0
N1019 N 0.64868 0.31261 0.85471 0.0
C1020 C 0.61599 0.27536 0.93004 0.0
C1021 C 0.63406 0.30841 0.87975 0.0
N1022 N 0.67155 0.33097 0.94709 0.0
N1023 N 0.55429 0.2909 0.86764 0.0
H1024 H 0.68209 0.32445 0.84981 0.0
H1025 H 0.6295 0.29923 0.83916 0.0
H1026 H 0.52003 0.28072 0.87174 0.0
H1027 H 0.55789 0.30854 0.85001 0.0
H1028 H 0.66067 0.3244 0.96603 0.0
H1029 H 0.69463 0.35928 0.9454 0.0
H1030 H 0.64282 0.25081 0.96584 0.0
H1031 H 0.59433 0.21939 0.95459 0.0
C1032 C 0.69472 0.33876 0.15605 0.0
C1033 C 0.65659 0.33714 0.17349 0.0
C1034 C 0.66117 0.42247 0.1795 0.0
C1035 C 0.7003 0.42414 0.16262 0.0
N1036 N 0.76104 0.38234 0.13953 0.0
N1037 N 0.61102 0.3742 0.20668 0.0
C1038 C 0.71943 0.38176 0.15253 0.0
C1039 C 0.64241 0.37809 0.18685 0.0
N1040 N 0.70566 0.29998 0.1417 0.0
N1041 N 0.64129 0.46315 0.18818 0.0
H1042 H 0.59715 0.34185 0.21252 0.0
H1043 H 0.60233 0.4019 0.21889 0.0
H1044 H 0.65442 0.4964 0.18382 0.0
H1045 H 0.60966 0.4642 0.19812 0.0
H1046 H 0.72888 0.30075 0.12619 0.0
H1047 H 0.68922 0.26748 0.14414 0.0
H1048 H 0.77904 0.35192 0.13447 0.0
H1049 H 0.77973 0.41294 0.13549 0.0
C1050 C 0.58464 0.70803 0.19989 0.0
C1051 C 0.55524 0.70702 0.17756 0.0
C1052 C 0.61535 0.66449 0.1533 0.0
C1053 C 0.64452 0.66524 0.17558 0.0
N1054 N 0.65863 0.68631 0.22003 0.0
N1055 N 0.53756 0.67474 0.13564 0.0
C1056 C 0.62965 0.68686 0.19885 0.0
C1057 C 0.56943 0.68305 0.15487 0.0
N1058 N 0.56968 0.72957 0.22199 0.0
N1059 N 0.63134 0.64549 0.13067 0.0
H1060 H 0.50265 0.68425 0.13727 0.0
H1061 H 0.54382 0.65382 0.11953 0.0
H1062 H 0.66305 0.62776 0.12909 0.0
H1063 H 0.61456 0.64965 0.1129 0.0
H1064 H 0.59099 0.73771 0.2377 0.0
H1065 H 0.5352 0.73959 0.22495 0.0
H1066 H 0.6489 0.69636 0.23857 0.0
H1067 H 0.69319 0.67467 0.21924 0.0
C1068 C 0.28357 0.58398 0.14419 0.0
C1069 C 0.28022 0.55786 0.16762 0.0
C1070 C 0.32494 0.61991 0.18978 0.0
C1071 C 0.32194 0.64841 0.16725 0.0
N1072 N 0.28982 0.66109 0.12458 0.0
N1073 N 0.2914 0.556 0.21435 0.0
C1074 C 0.29839 0.63154 0.14497 0.0
C1075 C 0.29924 0.57703 0.19092 0.0
N1076 N 0.27502 0.56267 0.12096 0.0
N1077 N 0.35377 0.63264 0.20975 0.0
H1078 H 0.27326 0.5246 0.21679 0.0
H1079 H 0.29965 0.57208 0.2319 0.0
H1080 H 0.37331 0.66368 0.2098 0.0
H1081 H 0.36151 0.61035 0.22524 0.0
H1082 H 0.2808 0.57913 0.10319 0.0
H1083 H 0.2678 0.52682 0.11939 0.0
H1084 H 0.26898 0.65162 0.10883 0.0
H1085 H 0.2995 0.69653 0.12471 0.0
C1086 C 0.34659 0.325 0.17421 0.0
C1087 C 0.30714 0.31085 0.15944 0.0
C1088 C 0.34999 0.24275 0.14351 0.0
C1089 C 0.39161 0.26177 0.15435 0.0
N1090 N 0.43078 0.32196 0.17929 0.0
N1091 N 0.27057 0.25763 0.12927 0.0
C1092 C 0.39025 0.30274 0.16992 0.0
C1093 C 0.30838 0.26971 0.14412 0.0
N1094 N 0.34208 0.35991 0.19218 0.0
N1095 N 0.3501 0.19847 0.13322 0.0
H1096 H 0.23891 0.27577 0.12989 0.0
H1097 H 0.27145 0.2314 0.11523 0.0
H1098 H 0.37981 0.1772 0.13304 0.0
H1099 H 0.31988 0.18102 0.12724 0.0
H1100 H 0.36835 0.36899 0.20527 0.0
H1101 H 0.31036 0.37687 0.19562 0.0
H1102 H 0.4325 0.35474 0.18819 0.0
H1103 H 0.46352 0.30678 0.17657 0.0
C1104 C 0.00294 0.26388 0.51131 0.0
C1105 C -0.00786 0.30626 0.49814 0.0
C1106 C 0.96386 0.34052 0.53884 0.0
C1107 C 0.97846 0.29955 0.55235 0.0
N1108 N 0.0165 0.22443 0.55251 0.0
N1109 N 0.9675 0.38686 0.49918 0.0
C1110 C -0.00081 0.26173 0.53879 0.0
C1111 C 0.97379 0.34512 0.51187 0.0
N1112 N 0.0167 0.22575 0.49724 0.0
N1113 N 0.93914 0.37418 0.55167 0.0
H1114 H 0.9733 0.39052 0.47933 0.0
H1115 H 0.95914 0.4182 0.50845 0.0
H1116 H 0.93158 0.37165 0.57138 0.0
H1117 H 0.92345 0.40282 0.54255 0.0
H1118 H 0.02165 0.19235 0.50508 0.0
H1119 H 0.01957 0.22688 0.4771 0.0
H1120 H 0.03563 0.19719 0.54431 0.0
H1121 H 0.01486 0.22271 0.57268 0.0
C1122 C 0.73565 0.97823 0.54486 0.0
C1123 C 0.69767 -0.00359 0.55926 0.0
C1124 C 0.66983 0.03801 0.52034 0.0
C1125 C 0.70399 0.01444 0.50547 0.0
N1126 N 0.76703 0.95913 0.50254 0.0
N1127 N 0.62767 0.04325 0.56081 0.0
C1128 C 0.73649 0.98391 0.5175 0.0
C1129 C 0.66471 0.02666 0.54708 0.0
N1130 N 0.77128 0.9562 0.55769 0.0
N1131 N 0.64336 0.07234 0.50897 0.0
H1132 H 0.62518 0.03907 0.5807 0.0
H1133 H 0.59891 0.05987 0.55244 0.0
H1134 H 0.64639 0.08117 0.48943 0.0
H1135 H 0.62109 0.09445 0.51918 0.0
H1136 H 0.80202 0.94526 0.5488 0.0
H1137 H 0.77186 0.95314 0.57784 0.0
H1138 H 0.78882 0.93284 0.50975 0.0
H1139 H 0.76774 0.96226 0.4824 0.0
C1140 C 0.00777 0.64364 0.54177 0.0
C1141 C 0.00209 0.68577 0.5559 0.0
C1142 C 0.9754 0.72614 0.51652 0.0
C1143 C 0.98423 0.68474 0.50208 0.0
N1144 N 0.01648 0.60703 0.49979 0.0
N1145 N 0.98557 0.76842 0.55708 0.0
C1146 C 0.00278 0.64433 0.51442 0.0
C1147 C 0.98708 0.72746 0.54337 0.0
N1148 N 0.01718 0.60285 0.55483 0.0
N1149 N 0.95532 0.76383 0.50442 0.0
H1150 H -0.00702 0.76973 0.57687 0.0
H1151 H 0.97939 0.80124 0.54876 0.0
H1152 H 0.94907 0.76446 0.48449 0.0
H1153 H 0.94325 0.79345 0.51411 0.0
H1154 H 0.01782 0.56985 0.54615 0.0
H1155 H 0.02017 0.60163 0.57496 0.0
H1156 H 0.03367 0.57765 0.50718 0.0
H1157 H 0.01494 0.60795 0.4797 0.0
C1158 C 0.34337 0.97877 0.54723 0.0
C1159 C 0.30617 0.00315 0.55933 0.0
C1160 C 0.26698 0.01207 0.51727 0.0
C1161 C 0.30201 0.98428 0.50549 0.0
N1162 N 0.36994 0.9352 0.50959 0.0
N1163 N 0.22915 0.03624 0.55709 0.0
C1164 C 0.33935 0.96599 0.52058 0.0
C1165 C 0.26688 0.01768 0.54462 0.0
N1166 N 0.38315 0.9695 0.561 0.0
N1167 N 0.23464 0.03419 0.50202 0.0
H1168 H 0.22815 0.03984 0.57719 0.0
H1169 H 0.19756 0.04391 0.54793 0.0
H1170 H 0.23495 0.03167 0.48186 0.0
H1171 H 0.2105 0.05837 0.50903 0.0
H1172 H 0.41353 0.95624 0.5527 0.0
H1173 H 0.38668 0.97811 0.58053 0.0
H1174 H 0.39531 0.91694 0.52005 0.0
H1175 H 0.36763 0.92545 0.49018 0.0
C1176 C 0.48473 0.75417 1.01743 0.0
C1177 C 0.5069 0.79156 1.00404 0.0
C1178 C 0.50772 0.83897 0.0437 0.0
C1179 C 0.48294 0.80278 0.0567 0.0
N1180 N 0.44578 0.72699 0.05663 0.0
N1181 N 0.53717 0.87042 1.00298 0.0
C1182 C 0.47101 0.76051 0.04372 0.0
C1183 C 0.51782 0.83426 1.01684 0.0
N1184 N 0.47789 0.7124 1.00494 0.0
N1185 N 0.5218 0.87759 0.05732 0.0
H1186 H 0.54561 0.86742 0.98342 0.0
H1187 H 0.54246 0.90415 1.01018 0.0
H1188 H 0.51467 0.88136 0.07695 0.0
H1189 H 0.54301 0.9042 0.04994 0.0
H1190 H 0.46569 0.68191 1.01388 0.0
H1191 H 0.48657 0.70774 0.9855 0.0
H1192 H 0.43165 0.69717 0.04796 0.0
H1193 H 0.43763 0.72998 0.07625 0.0
C1194 C 0.21916 0.476 0.03843 0.0
C1195 C 0.1795 0.49618 0.05031 0.0
C1196 C 0.15942 0.53534 1.00925 0.0
C1197 C 0.19571 0.51023 0.99668 0.0
N1198 N 0.25487 0.45017 0.99846 0.0
N1199 N 0.10899 0.54139 0.04699 0.0
C1200 C 0.22445 0.47902 1.01112 0.0
C1201 C 0.14893 0.52517 0.03572 0.0
N1202 N 0.25151 0.45355 0.05351 0.0
N1203 N 0.13604 0.56978 0.99609 0.0
H1204 H 0.10134 0.53522 0.06646 0.0
H1205 H 0.08247 0.55841 0.03678 0.0
H1206 H 0.14364 0.57843 0.97691 0.0
H1207 H 0.11199 0.59222 1.00473 0.0
H1208 H 0.28343 0.44147 0.04651 0.0
H1209 H 0.24813 0.45115 0.0736 0.0
H1210 H 0.27384 0.42365 1.00763 0.0
H1211 H 0.2575 0.44944 0.97833 0.0
C1212 C 0.50273 0.11768 0.04703 0.0
C1213 C 0.50466 0.16097 0.06049 0.0
C1214 C 0.48741 0.20391 1.02028 0.0
C1215 C 0.48296 0.16056 1.00708 0.0
N1216 N 0.48225 0.0762 1.00738 0.0
N1217 N 0.49464 0.24481 0.06135 0.0
C1218 C 0.48961 0.11734 1.02034 0.0
C1219 C 0.49575 0.204 0.04745 0.0
N1220 N 0.5147 0.07728 0.05978 0.0
N1221 N 0.48455 0.24494 1.0065 0.0
H1222 H 0.50133 0.24582 0.08119 0.0
H1223 H 0.48415 0.2771 0.0538 0.0
H1224 H 0.47814 0.24561 0.98661 0.0
H1225 H 0.49165 0.27801 1.01416 0.0
H1226 H 0.51835 0.04474 0.05084 0.0
H1227 H 0.52318 0.07694 0.07946 0.0
H1228 H 0.48208 0.04318 1.01614 0.0
H1229 H 0.47418 0.07554 0.98768 0.0
C1230 C 0.78482 0.52599 1.01153 0.0
C1231 C 0.79068 0.47791 1.00512 0.0
C1232 C 0.79103 0.45808 0.05138 0.0
C1233 C 0.78267 0.50602 0.05764 0.0
N1234 N 0.75194 0.58009 0.04254 0.0
N1235 N 0.78025 0.39758 1.01893 0.0
C1236 C 0.7721 0.53783 0.0372 0.0
C1237 C 0.78665 0.44375 1.02512 0.0
N1238 N 0.79637 0.56069 0.99442 0.0
N1239 N 0.80745 0.4271 0.06945 0.0
H1240 H 0.77566 0.38673 0.99978 0.0
H1241 H 0.77429 0.37163 0.03287 0.0
H1242 H 0.81633 0.43662 0.08824 0.0
H1243 H 0.81749 0.39293 0.06476 0.0
H1244 H 0.79559 0.59626 0.9993 0.0
H1245 H 0.81263 0.55392 0.97684 0.0
H1246 H 0.74146 0.60346 1.02803 0.0
H1247 H 0.74122 0.58881 0.06124 0.0
loop_
_geom_bond_atom_site_label_1
_geom_bond_atom_site_label_2
_geom_bond_distance
_geom_bond_site_symmetry_2
_ccdc_geom_bond_type
Co0 N4 2.148 . S
Co0 N10 2.128 . S
Co0 N20 2.194 . S
Co0 O25 2.351 . S
Co0 O26 2.155 . S
Co0 O27 2.096 1_455 S
C1 N4 1.301 . S
C1 N5 1.328 . S
C1 H6 0.930 . S
C2 C3 1.333 1_655 S
C2 N4 1.317 1_655 S
C2 H7 0.930 . S
C3 C2 1.333 1_455 S
C3 N5 1.350 . S
C3 H29 0.931 1_455 S
N4 Co0 2.148 . S
N4 C1 1.301 . S
N4 C2 1.317 1_455 S
N5 C1 1.328 . S
N5 C3 1.350 . S
H6 C1 0.930 . S
H7 C2 0.930 . S
C8 O9 1.224 . S
C8 O27 1.247 . S
O9 C8 1.224 . S
N10 Co0 2.128 . S
N10 C11 1.355 . S
N10 C13 1.311 1_455 S
C11 N10 1.355 . S
C11 C12 1.363 . S
C11 H23 0.929 . S
C12 C11 1.363 . S
C12 N14 1.375 . S
C12 H30 0.931 . S
C13 N10 1.311 1_655 S
C13 N14 1.347 1_655 S
C13 H24 0.929 . S
N14 C12 1.375 . S
N14 C13 1.347 1_455 S
C15 C18 1.365 . S
C15 N20 1.328 . S
C15 H21 0.929 . S
C16 C17 1.362 . S
C16 C19 1.378 . S
C16 H31 0.929 . S
C17 C16 1.362 . S
C17 C18 1.366 . S
C18 C15 1.365 . S
C18 C17 1.366 . S
C18 H32 0.930 . S
C19 C16 1.378 . S
C19 N20 1.315 . S
C19 H22 0.930 . S
N20 Co0 2.194 . S
N20 C15 1.328 . S
N20 C19 1.315 . S
H21 C15 0.929 . S
H22 C19 0.930 . S
H23 C11 0.929 . S
H24 C13 0.929 . S
O25 Co0 2.351 . S
O25 C28 1.244 . S
O26 Co0 2.155 . S
O26 C28 1.240 . S
O27 Co0 2.096 1_655 S
O27 C8 1.247 . S
C28 O25 1.244 . S
C28 O26 1.240 . S
H29 C3 0.931 1_655 S
H30 C12 0.931 . S
H31 C16 0.929 . S
H32 C18 0.930 . S
Co33 N37 2.148 . S
Co33 N43 2.128 . S
Co33 N53 2.194 . S
Co33 O58 2.351 . S
Co33 O59 2.155 . S
Co33 O60 2.096 1_545 S
C34 N37 1.301 . S
C34 N38 1.328 . S
C34 H39 0.930 . S
C35 C36 1.333 1_565 S
C35 N37 1.317 1_565 S
C35 H40 0.930 . S
C36 C35 1.333 1_545 S
C36 N38 1.350 . S
C36 H62 0.931 1_545 S
N37 Co33 2.148 . S
N37 C34 1.301 . S
N37 C35 1.317 1_545 S
N38 C34 1.328 . S
N38 C36 1.350 . S
H39 C34 0.930 . S
H40 C35 0.930 . S
C41 O42 1.224 . S
C41 O60 1.247 . S
O42 C41 1.224 . S
N43 Co33 2.128 . S
N43 C44 1.355 . S
N43 C46 1.311 1_545 S
C44 N43 1.355 . S
C44 C45 1.363 . S
C44 H56 0.929 . S
C45 C44 1.363 . S
C45 N47 1.375 . S
C45 H63 0.931 . S
C46 N43 1.311 1_565 S
C46 N47 1.347 1_565 S
C46 H57 0.929 . S
N47 C45 1.375 . S
N47 C46 1.347 1_545 S
C48 C51 1.365 . S
C48 N53 1.328 . S
C48 H54 0.929 . S
C49 C50 1.362 . S
C49 C52 1.378 . S
C49 H64 0.929 . S
C50 C49 1.362 . S
C50 C51 1.366 . S
C51 C48 1.365 . S
C51 C50 1.366 . S
C51 H65 0.930 . S
C52 C49 1.378 . S
C52 N53 1.315 . S
C52 H55 0.930 . S
N53 Co33 2.194 . S
N53 C48 1.328 . S
N53 C52 1.315 . S
H54 C48 0.929 . S
H55 C52 0.930 . S
H56 C44 0.929 . S
H57 C46 0.929 . S
O58 Co33 2.351 . S
O58 C61 1.244 . S
O59 Co33 2.155 . S
O59 C61 1.240 . S
O60 Co33 2.096 1_565 S
O60 C41 1.247 . S
C61 O58 1.244 . S
C61 O59 1.240 . S
H62 C36 0.931 1_565 S
H63 C45 0.931 . S
H64 C49 0.929 . S
H65 C51 0.930 . S
Co66 N70 2.148 . S
Co66 N76 2.128 . S
Co66 N86 2.194 . S
Co66 O91 2.351 . S
Co66 O92 2.155 . S
Co66 O93 2.096 1_655 S
C67 N70 1.301 . S
C67 N71 1.328 . S
C67 H72 0.930 . S
C68 C69 1.333 1_455 S
C68 N70 1.317 1_455 S
C68 H73 0.930 . S
C69 C68 1.333 1_655 S
C69 N71 1.350 . S
C69 H95 0.931 1_655 S
N70 Co66 2.148 . S
N70 C67 1.301 . S
N70 C68 1.317 1_655 S
N71 C67 1.328 . S
N71 C69 1.350 . S
H72 C67 0.930 . S
H73 C68 0.930 . S
C74 O75 1.224 . S
C74 O93 1.247 . S
O75 C74 1.224 . S
N76 Co66 2.128 . S
N76 C77 1.355 . S
N76 C79 1.311 1_655 S
C77 N76 1.355 . S
C77 C78 1.363 . S
C77 H89 0.929 . S
C78 C77 1.363 . S
C78 N80 1.375 . S
C78 H96 0.931 . S
C79 N76 1.311 1_455 S
C79 N80 1.347 1_455 S
C79 H90 0.929 . S
N80 C78 1.375 . S
N80 C79 1.347 1_655 S
C81 C84 1.365 . S
C81 N86 1.328 . S
C81 H87 0.929 . S
C82 C83 1.362 . S
C82 C85 1.378 . S
C82 H97 0.929 . S
C83 C82 1.362 . S
C83 C84 1.366 . S
C84 C81 1.365 . S
C84 C83 1.366 . S
C84 H98 0.930 . S
C85 C82 1.378 . S
C85 N86 1.315 . S
C85 H88 0.930 . S
N86 Co66 2.194 . S
N86 C81 1.328 . S
N86 C85 1.315 . S
H87 C81 0.929 . S
H88 C85 0.930 . S
H89 C77 0.929 . S
H90 C79 0.929 . S
O91 Co66 2.351 . S
O91 C94 1.244 . S
O92 Co66 2.155 . S
O92 C94 1.240 . S
O93 Co66 2.096 1_455 S
O93 C74 1.247 . S
C94 O91 1.244 . S
C94 O92 1.240 . S
H95 C69 0.931 1_455 S
H96 C78 0.931 . S
H97 C82 0.929 . S
H98 C84 0.930 . S
Co99 N103 2.148 . S
Co99 N109 2.128 . S
Co99 N119 2.194 . S
Co99 O124 2.351 . S
Co99 O125 2.155 . S
Co99 O126 2.096 1_565 S
C100 N103 1.301 . S
C100 N104 1.328 . S
C100 H105 0.930 . S
C101 C102 1.333 1_545 S
C101 N103 1.317 1_545 S
C101 H106 0.930 . S
C102 C101 1.333 1_565 S
C102 N104 1.350 . S
C102 H128 0.931 1_565 S
N103 Co99 2.148 . S
N103 C100 1.301 . S
N103 C101 1.317 1_565 S
N104 C100 1.328 . S
N104 C102 1.350 . S
H105 C100 0.930 . S
H106 C101 0.930 . S
C107 O108 1.224 . S
C107 O126 1.247 . S
O108 C107 1.224 . S
N109 Co99 2.128 . S
N109 C110 1.355 . S
N109 C112 1.311 1_565 S
C110 N109 1.355 . S
C110 C111 1.363 . S
C110 H122 0.929 . S
C111 C110 1.363 . S
C111 N113 1.375 . S
C111 H129 0.931 . S
C112 N109 1.311 1_545 S
C112 N113 1.347 1_545 S
C112 H123 0.929 . S
N113 C111 1.375 . S
N113 C112 1.347 1_565 S
C114 C117 1.365 . S
C114 N119 1.328 . S
C114 H120 0.929 . S
C115 C116 1.362 . S
C115 C118 1.378 . S
C115 H130 0.929 . S
C116 C115 1.362 . S
C116 C117 1.366 . S
C117 C114 1.365 . S
C117 C116 1.366 . S
C117 H131 0.930 . S
C118 C115 1.378 . S
C118 N119 1.315 . S
C118 H121 0.930 . S
N119 Co99 2.194 . S
N119 C114 1.328 . S
N119 C118 1.315 . S
H120 C114 0.929 . S
H121 C118 0.930 . S
H122 C110 0.929 . S
H123 C112 0.929 . S
O124 Co99 2.351 . S
O124 C127 1.244 . S
O125 Co99 2.155 . S
O125 C127 1.240 . S
O126 Co99 2.096 1_545 S
O126 C107 1.247 . S
C127 O124 1.244 . S
C127 O125 1.240 . S
H128 C102 0.931 1_545 S
H129 C111 0.931 . S
H130 C115 0.929 . S
H131 C117 0.930 . S
Co132 N136 2.148 . S
Co132 N142 2.128 . S
Co132 N152 2.194 . S
Co132 O157 2.351 . S
Co132 O158 2.155 . S
Co132 O159 2.096 1_455 S
C133 N136 1.301 . S
C133 N137 1.328 . S
C133 H138 0.930 . S
C134 C135 1.333 1_655 S
C134 N136 1.317 1_655 S
C134 H139 0.930 . S
C135 C134 1.333 1_455 S
C135 N137 1.350 . S
C135 H161 0.931 1_455 S
N136 Co132 2.148 . S
N136 C133 1.301 . S
N136 C134 1.317 1_455 S
N137 C133 1.328 . S
N137 C135 1.350 . S
H138 C133 0.930 . S
H139 C134 0.930 . S
C140 O141 1.224 . S
C140 O159 1.247 . S
O141 C140 1.224 . S
N142 Co132 2.128 . S
N142 C143 1.355 . S
N142 C145 1.311 1_455 S
C143 N142 1.355 . S
C143 C144 1.363 . S
C143 H155 0.929 . S
C144 C143 1.363 . S
C144 N146 1.375 . S
C144 H162 0.931 . S
C145 N142 1.311 1_655 S
C145 N146 1.347 1_655 S
C145 H156 0.929 . S
N146 C144 1.375 . S
N146 C145 1.347 1_455 S
C147 C150 1.365 . S
C147 N152 1.328 . S
C147 H153 0.929 . S
C148 C149 1.362 . S
C148 C151 1.378 . S
C148 H163 0.929 . S
C149 C148 1.362 . S
C149 C150 1.366 . S
C150 C147 1.365 . S
C150 C149 1.366 . S
C150 H164 0.930 . S
C151 C148 1.378 . S
C151 N152 1.315 . S
C151 H154 0.930 . S
N152 Co132 2.194 . S
N152 C147 1.328 . S
N152 C151 1.315 . S
H153 C147 0.929 . S
H154 C151 0.930 . S
H155 C143 0.929 . S
H156 C145 0.929 . S
O157 Co132 2.351 . S
O157 C160 1.244 . S
O158 Co132 2.155 . S
O158 C160 1.240 . S
O159 Co132 2.096 1_655 S
O159 C140 1.247 . S
C160 O157 1.244 . S
C160 O158 1.240 . S
H161 C135 0.931 1_655 S
H162 C144 0.931 . S
H163 C148 0.929 . S
H164 C150 0.930 . S
Co165 N169 2.148 . S
Co165 N175 2.128 . S
Co165 N185 2.194 . S
Co165 O190 2.351 . S
Co165 O191 2.155 . S
Co165 O192 2.096 1_545 S
C166 N169 1.301 . S
C166 N170 1.328 . S
C166 H171 0.930 . S
C167 C168 1.333 1_565 S
C167 N169 1.317 1_565 S
C167 H172 0.930 . S
C168 C167 1.333 1_545 S
C168 N170 1.350 . S
C168 H194 0.931 1_545 S
N169 Co165 2.148 . S
N169 C166 1.301 . S
N169 C167 1.317 1_545 S
N170 C166 1.328 . S
N170 C168 1.350 . S
H171 C166 0.930 . S
H172 C167 0.930 . S
C173 O174 1.224 . S
C173 O192 1.247 . S
O174 C173 1.224 . S
N175 Co165 2.128 . S
N175 C176 1.355 . S
N175 C178 1.311 1_545 S
C176 N175 1.355 . S
C176 C177 1.363 . S
C176 H188 0.929 . S
C177 C176 1.363 . S
C177 N179 1.375 . S
C177 H195 0.931 . S
C178 N175 1.311 1_565 S
C178 N179 1.347 1_565 S
C178 H189 0.929 . S
N179 C177 1.375 . S
N179 C178 1.347 1_545 S
C180 C183 1.365 . S
C180 N185 1.328 . S
C180 H186 0.929 . S
C181 C182 1.362 . S
C181 C184 1.378 . S
C181 H196 0.929 . S
C182 C181 1.362 . S
C182 C183 1.366 . S
C183 C180 1.365 . S
C183 C182 1.366 . S
C183 H197 0.930 . S
C184 C181 1.378 . S
C184 N185 1.315 . S
C184 H187 0.930 . S
N185 Co165 2.194 . S
N185 C180 1.328 . S
N185 C184 1.315 . S
H186 C180 0.929 . S
H187 C184 0.930 . S
H188 C176 0.929 . S
H189 C178 0.929 . S
O190 Co165 2.351 . S
O190 C193 1.244 . S
O191 Co165 2.155 . S
O191 C193 1.240 . S
O192 Co165 2.096 1_565 S
O192 C173 1.247 . S
C193 O190 1.244 . S
C193 O191 1.240 . S
H194 C168 0.931 1_565 S
H195 C177 0.931 . S
H196 C181 0.929 . S
H197 C183 0.930 . S
Co198 N202 2.148 . S
Co198 N208 2.128 . S
Co198 N218 2.194 . S
Co198 O223 2.351 . S
Co198 O224 2.155 . S
Co198 O225 2.096 1_655 S
C199 N202 1.301 . S
C199 N203 1.328 . S
C199 H204 0.930 . S
C200 C201 1.333 1_455 S
C200 N202 1.317 1_455 S
C200 H205 0.930 . S
C201 C200 1.333 1_655 S
C201 N203 1.350 . S
C201 H227 0.931 1_655 S
N202 Co198 2.148 . S
N202 C199 1.301 . S
N202 C200 1.317 1_655 S
N203 C199 1.328 . S
N203 C201 1.350 . S
H204 C199 0.930 . S
H205 C200 0.930 . S
C206 O207 1.224 . S
C206 O225 1.247 . S
O207 C206 1.224 . S
N208 Co198 2.128 . S
N208 C209 1.355 . S
N208 C211 1.311 1_655 S
C209 N208 1.355 . S
C209 C210 1.363 . S
C209 H221 0.929 . S
C210 C209 1.363 . S
C210 N212 1.375 . S
C210 H228 0.931 . S
C211 N208 1.311 1_455 S
C211 N212 1.347 1_455 S
C211 H222 0.929 . S
N212 C210 1.375 . S
N212 C211 1.347 1_655 S
C213 C216 1.365 . S
C213 N218 1.328 . S
C213 H219 0.929 . S
C214 C215 1.362 . S
C214 C217 1.378 . S
C214 H229 0.929 . S
C215 C214 1.362 . S
C215 C216 1.366 . S
C216 C213 1.365 . S
C216 C215 1.366 . S
C216 H230 0.930 . S
C217 C214 1.378 . S
C217 N218 1.315 . S
C217 H220 0.930 . S
N218 Co198 2.194 . S
N218 C213 1.328 . S
N218 C217 1.315 . S
H219 C213 0.929 . S
H220 C217 0.930 . S
H221 C209 0.929 . S
H222 C211 0.929 . S
O223 Co198 2.351 . S
O223 C226 1.244 . S
O224 Co198 2.155 . S
O224 C226 1.240 . S
O225 Co198 2.096 1_455 S
O225 C206 1.247 . S
C226 O223 1.244 . S
C226 O224 1.240 . S
H227 C201 0.931 1_455 S
H228 C210 0.931 . S
H229 C214 0.929 . S
H230 C216 0.930 . S
Co231 N235 2.148 . S
Co231 N241 2.128 . S
Co231 N251 2.194 . S
Co231 O256 2.351 . S
Co231 O257 2.155 . S
Co231 O258 2.096 1_565 S
C232 N235 1.301 . S
C232 N236 1.328 . S
C232 H237 0.930 . S
C233 C234 1.333 1_545 S
C233 N235 1.317 1_545 S
C233 H238 0.930 . S
C234 C233 1.333 1_565 S
C234 N236 1.350 . S
C234 H260 0.931 1_565 S
N235 Co231 2.148 . S
N235 C232 1.301 . S
N235 C233 1.317 1_565 S
N236 C232 1.328 . S
N236 C234 1.350 . S
H237 C232 0.930 . S
H238 C233 0.930 . S
C239 O240 1.224 . S
C239 O258 1.247 . S
O240 C239 1.224 . S
N241 Co231 2.128 . S
N241 C242 1.355 . S
N241 C244 1.311 1_565 S
C242 N241 1.355 . S
C242 C243 1.363 . S
C242 H254 0.929 . S
C243 C242 1.363 . S
C243 N245 1.375 . S
C243 H261 0.931 . S
C244 N241 1.311 1_545 S
C244 N245 1.347 1_545 S
C244 H255 0.929 . S
N245 C243 1.375 . S
N245 C244 1.347 1_565 S
C246 C249 1.365 . S
C246 N251 1.328 . S
C246 H252 0.929 . S
C247 C248 1.362 . S
C247 C250 1.378 . S
C247 H262 0.929 . S
C248 C247 1.362 . S
C248 C249 1.366 . S
C249 C246 1.365 . S
C249 C248 1.366 . S
C249 H263 0.930 . S
C250 C247 1.378 . S
C250 N251 1.315 . S
C250 H253 0.930 . S
N251 Co231 2.194 . S
N251 C246 1.328 . S
N251 C250 1.315 . S
H252 C246 0.929 . S
H253 C250 0.930 . S
H254 C242 0.929 . S
H255 C244 0.929 . S
O256 Co231 2.351 . S
O256 C259 1.244 . S
O257 Co231 2.155 . S
O257 C259 1.240 . S
O258 Co231 2.096 1_545 S
O258 C239 1.247 . S
C259 O256 1.244 . S
C259 O257 1.240 . S
H260 C234 0.931 1_545 S
H261 C243 0.931 . S
H262 C247 0.929 . S
H263 C249 0.930 . S
Co264 N268 2.148 . S
Co264 N274 2.128 . S
Co264 N284 2.194 . S
Co264 O289 2.351 . S
Co264 O290 2.155 . S
Co264 O291 2.096 . S
C265 N268 1.301 . S
C265 N269 1.328 . S
C265 H270 0.930 . S
C266 C267 1.333 . S
C266 N268 1.317 . S
C266 H271 0.930 . S
C267 C266 1.333 . S
C267 N269 1.350 . S
C267 H293 0.931 . S
N268 Co264 2.148 . S
N268 C265 1.301 . S
N268 C266 1.317 . S
N269 C265 1.328 . S
N269 C267 1.350 . S
H270 C265 0.930 . S
H271 C266 0.930 . S
C272 O273 1.224 . S
C272 O291 1.247 . S
O273 C272 1.224 . S
N274 Co264 2.128 . S
N274 C275 1.355 . S
N274 C277 1.311 . S
C275 N274 1.355 . S
C275 C276 1.363 . S
C275 H287 0.929 . S
C276 C275 1.363 . S
C276 N278 1.375 . S
C276 H294 0.931 . S
C277 N274 1.311 . S
C277 N278 1.347 . S
C277 H288 0.929 . S
N278 C276 1.375 . S
N278 C277 1.347 . S
C279 C282 1.365 . S
C279 N284 1.328 . S
C279 H285 0.929 . S
C280 C281 1.362 . S
C280 C283 1.378 . S
C280 H295 0.929 . S
C281 C280 1.362 . S
C281 C282 1.366 . S
C282 C279 1.365 . S
C282 C281 1.366 . S
C282 H296 0.930 . S
C283 C280 1.378 . S
C283 N284 1.315 . S
C283 H286 0.930 . S
N284 Co264 2.194 . S
N284 C279 1.328 . S
N284 C283 1.315 . S
H285 C279 0.929 . S
H286 C283 0.930 . S
H287 C275 0.929 . S
H288 C277 0.929 . S
O289 Co264 2.351 . S
O289 C292 1.244 . S
O290 Co264 2.155 . S
O290 C292 1.240 . S
O291 Co264 2.096 . S
O291 C272 1.247 . S
C292 O289 1.244 . S
C292 O290 1.240 . S
H293 C267 0.931 . S
H294 C276 0.931 . S
H295 C280 0.929 . S
H296 C282 0.930 . S
Co297 N301 2.148 . S
Co297 N307 2.128 . S
Co297 N317 2.194 . S
Co297 O322 2.351 . S
Co297 O323 2.155 . S
Co297 O324 2.096 . S
C298 N301 1.301 . S
C298 N302 1.328 . S
C298 H303 0.930 . S
C299 C300 1.333 . S
C299 N301 1.317 . S
C299 H304 0.930 . S
C300 C299 1.333 . S
C300 N302 1.350 . S
C300 H326 0.931 . S
N301 Co297 2.148 . S
N301 C298 1.301 . S
N301 C299 1.317 . S
N302 C298 1.328 . S
N302 C300 1.350 . S
H303 C298 0.930 . S
H304 C299 0.930 . S
C305 O306 1.224 . S
C305 O324 1.247 . S
O306 C305 1.224 . S
N307 Co297 2.128 . S
N307 C308 1.355 . S
N307 C310 1.311 . S
C308 N307 1.355 . S
C308 C309 1.363 . S
C308 H320 0.929 . S
C309 C308 1.363 . S
C309 N311 1.375 . S
C309 H327 0.931 . S
C310 N307 1.311 . S
C310 N311 1.347 . S
C310 H321 0.929 . S
N311 C309 1.375 . S
N311 C310 1.347 . S
C312 C315 1.365 . S
C312 N317 1.328 . S
C312 H318 0.929 . S
C313 C314 1.362 . S
C313 C316 1.378 . S
C313 H328 0.929 . S
C314 C313 1.362 . S
C314 C315 1.366 . S
C315 C312 1.365 . S
C315 C314 1.366 . S
C315 H329 0.930 . S
C316 C313 1.378 . S
C316 N317 1.315 . S
C316 H319 0.930 . S
N317 Co297 2.194 . S
N317 C312 1.328 . S
N317 C316 1.315 . S
H318 C312 0.929 . S
H319 C316 0.930 . S
H320 C308 0.929 . S
H321 C310 0.929 . S
O322 Co297 2.351 . S
O322 C325 1.244 . S
O323 Co297 2.155 . S
O323 C325 1.240 . S
O324 Co297 2.096 . S
O324 C305 1.247 . S
C325 O322 1.244 . S
C325 O323 1.240 . S
H326 C300 0.931 . S
H327 C309 0.931 . S
H328 C313 0.929 . S
H329 C315 0.930 . S
Co330 N334 2.148 . S
Co330 N340 2.128 . S
Co330 N350 2.194 . S
Co330 O355 2.351 . S
Co330 O356 2.155 . S
Co330 O357 2.096 . S
C331 N334 1.301 . S
C331 N335 1.328 . S
C331 H336 0.930 . S
C332 C333 1.333 . S
C332 N334 1.317 . S
C332 H337 0.930 . S
C333 C332 1.333 . S
C333 N335 1.350 . S
C333 H359 0.931 . S
N334 Co330 2.148 . S
N334 C331 1.301 . S
N334 C332 1.317 . S
N335 C331 1.328 . S
N335 C333 1.350 . S
H336 C331 0.930 . S
H337 C332 0.930 . S
C338 O339 1.224 . S
C338 O357 1.247 . S
O339 C338 1.224 . S
N340 Co330 2.128 . S
N340 C341 1.355 . S
N340 C343 1.311 . S
C341 N340 1.355 . S
C341 C342 1.363 . S
C341 H353 0.929 . S
C342 C341 1.363 . S
C342 N344 1.375 . S
C342 H360 0.931 . S
C343 N340 1.311 . S
C343 N344 1.347 . S
C343 H354 0.929 . S
N344 C342 1.375 . S
N344 C343 1.347 . S
C345 C348 1.365 . S
C345 N350 1.328 . S
C345 H351 0.929 . S
C346 C347 1.362 . S
C346 C349 1.378 . S
C346 H361 0.929 . S
C347 C346 1.362 . S
C347 C348 1.366 . S
C348 C345 1.365 . S
C348 C347 1.366 . S
C348 H362 0.930 . S
C349 C346 1.378 . S
C349 N350 1.315 . S
C349 H352 0.930 . S
N350 Co330 2.194 . S
N350 C345 1.328 . S
N350 C349 1.315 . S
H351 C345 0.929 . S
H352 C349 0.930 . S
H353 C341 0.929 . S
H354 C343 0.929 . S
O355 Co330 2.351 . S
O355 C358 1.244 . S
O356 Co330 2.155 . S
O356 C358 1.240 . S
O357 Co330 2.096 . S
O357 C338 1.247 . S
C358 O355 1.244 . S
C358 O356 1.240 . S
H359 C333 0.931 . S
H360 C342 0.931 . S
H361 C346 0.929 . S
H362 C348 0.930 . S
Co363 N367 2.148 . S
Co363 N373 2.128 . S
Co363 N383 2.194 . S
Co363 O388 2.351 . S
Co363 O389 2.155 . S
Co363 O390 2.096 . S
C364 N367 1.301 . S
C364 N368 1.328 . S
C364 H369 0.930 . S
C365 C366 1.333 . S
C365 N367 1.317 . S
C365 H370 0.930 . S
C366 C365 1.333 . S
C366 N368 1.350 . S
C366 H392 0.931 . S
N367 Co363 2.148 . S
N367 C364 1.301 . S
N367 C365 1.317 . S
N368 C364 1.328 . S
N368 C366 1.350 . S
H369 C364 0.930 . S
H370 C365 0.930 . S
C371 O372 1.224 . S
C371 O390 1.247 . S
O372 C371 1.224 . S
N373 Co363 2.128 . S
N373 C374 1.355 . S
N373 C376 1.311 . S
C374 N373 1.355 . S
C374 C375 1.363 . S
C374 H386 0.929 . S
C375 C374 1.363 . S
C375 N377 1.375 . S
C375 H393 0.931 . S
C376 N373 1.311 . S
C376 N377 1.347 . S
C376 H387 0.929 . S
N377 C375 1.375 . S
N377 C376 1.347 . S
C378 C381 1.365 . S
C378 N383 1.328 . S
C378 H384 0.929 . S
C379 C380 1.362 . S
C379 C382 1.378 . S
C379 H394 0.929 . S
C380 C379 1.362 . S
C380 C381 1.366 . S
C381 C378 1.365 . S
C381 C380 1.366 . S
C381 H395 0.930 . S
C382 C379 1.378 . S
C382 N383 1.315 . S
C382 H385 0.930 . S
N383 Co363 2.194 . S
N383 C378 1.328 . S
N383 C382 1.315 . S
H384 C378 0.929 . S
H385 C382 0.930 . S
H386 C374 0.929 . S
H387 C376 0.929 . S
O388 Co363 2.351 . S
O388 C391 1.244 . S
O389 Co363 2.155 . S
O389 C391 1.240 . S
O390 Co363 2.096 . S
O390 C371 1.247 . S
C391 O388 1.244 . S
C391 O389 1.240 . S
H392 C366 0.931 . S
H393 C375 0.931 . S
H394 C379 0.929 . S
H395 C381 0.930 . S
Co396 N400 2.148 . S
Co396 N406 2.128 . S
Co396 N416 2.194 . S
Co396 O421 2.351 . S
Co396 O422 2.155 . S
Co396 O423 2.096 . S
C397 N400 1.301 . S
C397 N401 1.328 . S
C397 H402 0.930 . S
C398 C399 1.333 . S
C398 N400 1.317 . S
C398 H403 0.930 . S
C399 C398 1.333 . S
C399 N401 1.350 . S
C399 H425 0.931 . S
N400 Co396 2.148 . S
N400 C397 1.301 . S
N400 C398 1.317 . S
N401 C397 1.328 . S
N401 C399 1.350 . S
H402 C397 0.930 . S
H403 C398 0.930 . S
C404 O405 1.224 . S
C404 O423 1.247 . S
O405 C404 1.224 . S
N406 Co396 2.128 . S
N406 C407 1.355 . S
N406 C409 1.311 . S
C407 N406 1.355 . S
C407 C408 1.363 . S
C407 H419 0.929 . S
C408 C407 1.363 . S
C408 N410 1.375 . S
C408 H426 0.931 . S
C409 N406 1.311 . S
C409 N410 1.347 . S
C409 H420 0.929 . S
N410 C408 1.375 . S
N410 C409 1.347 . S
C411 C414 1.365 . S
C411 N416 1.328 . S
C411 H417 0.929 . S
C412 C413 1.362 . S
C412 C415 1.378 . S
C412 H427 0.929 . S
C413 C412 1.362 . S
C413 C414 1.366 . S
C414 C411 1.365 . S
C414 C413 1.366 . S
C414 H428 0.930 . S
C415 C412 1.378 . S
C415 N416 1.315 . S
C415 H418 0.930 . S
N416 Co396 2.194 . S
N416 C411 1.328 . S
N416 C415 1.315 . S
H417 C411 0.929 . S
H418 C415 0.930 . S
H419 C407 0.929 . S
H420 C409 0.929 . S
O421 Co396 2.351 . S
O421 C424 1.244 . S
O422 Co396 2.155 . S
O422 C424 1.240 . S
O423 Co396 2.096 . S
O423 C404 1.247 . S
C424 O421 1.244 . S
C424 O422 1.240 . S
H425 C399 0.931 . S
H426 C408 0.931 . S
H427 C412 0.929 . S
H428 C414 0.930 . S
Co429 N433 2.148 . S
Co429 N439 2.128 . S
Co429 N449 2.194 . S
Co429 O454 2.351 . S
Co429 O455 2.155 . S
Co429 O456 2.096 . S
C430 N433 1.301 . S
C430 N434 1.328 . S
C430 H435 0.930 . S
C431 C432 1.333 . S
C431 N433 1.317 . S
C431 H436 0.930 . S
C432 C431 1.333 . S
C432 N434 1.350 . S
C432 H458 0.931 . S
N433 Co429 2.148 . S
N433 C430 1.301 . S
N433 C431 1.317 . S
N434 C430 1.328 . S
N434 C432 1.350 . S
H435 C430 0.930 . S
H436 C431 0.930 . S
C437 O438 1.224 . S
C437 O456 1.247 . S
O438 C437 1.224 . S
N439 Co429 2.128 . S
N439 C440 1.355 . S
N439 C442 1.311 . S
C440 N439 1.355 . S
C440 C441 1.363 . S
C440 H452 0.929 . S
C441 C440 1.363 . S
C441 N443 1.375 . S
C441 H459 0.931 . S
C442 N439 1.311 . S
C442 N443 1.347 . S
C442 H453 0.929 . S
N443 C441 1.375 . S
N443 C442 1.347 . S
C444 C447 1.365 . S
C444 N449 1.328 . S
C444 H450 0.929 . S
C445 C446 1.362 . S
C445 C448 1.378 . S
C445 H460 0.929 . S
C446 C445 1.362 . S
C446 C447 1.366 . S
C447 C444 1.365 . S
C447 C446 1.366 . S
C447 H461 0.930 . S
C448 C445 1.378 . S
C448 N449 1.315 . S
C448 H451 0.930 . S
N449 Co429 2.194 . S
N449 C444 1.328 . S
N449 C448 1.315 . S
H450 C444 0.929 . S
H451 C448 0.930 . S
H452 C440 0.929 . S
H453 C442 0.929 . S
O454 Co429 2.351 . S
O454 C457 1.244 . S
O455 Co429 2.155 . S
O455 C457 1.240 . S
O456 Co429 2.096 . S
O456 C437 1.247 . S
C457 O454 1.244 . S
C457 O455 1.240 . S
H458 C432 0.931 . S
H459 C441 0.931 . S
H460 C445 0.929 . S
H461 C447 0.930 . S
Co462 N466 2.148 . S
Co462 N472 2.128 . S
Co462 N482 2.194 . S
Co462 O487 2.351 . S
Co462 O488 2.155 . S
Co462 O489 2.096 . S
C463 N466 1.301 . S
C463 N467 1.328 . S
C463 H468 0.930 . S
C464 C465 1.333 . S
C464 N466 1.317 . S
C464 H469 0.930 . S
C465 C464 1.333 . S
C465 N467 1.350 . S
C465 H491 0.931 . S
N466 Co462 2.148 . S
N466 C463 1.301 . S
N466 C464 1.317 . S
N467 C463 1.328 . S
N467 C465 1.350 . S
H468 C463 0.930 . S
H469 C464 0.930 . S
C470 O471 1.224 . S
C470 O489 1.247 . S
O471 C470 1.224 . S
N472 Co462 2.128 . S
N472 C473 1.355 . S
N472 C475 1.311 . S
C473 N472 1.355 . S
C473 C474 1.363 . S
C473 H485 0.929 . S
C474 C473 1.363 . S
C474 N476 1.375 . S
C474 H492 0.931 . S
C475 N472 1.311 . S
C475 N476 1.347 . S
C475 H486 0.929 . S
N476 C474 1.375 . S
N476 C475 1.347 . S
C477 C480 1.365 . S
C477 N482 1.328 . S
C477 H483 0.929 . S
C478 C479 1.362 . S
C478 C481 1.378 . S
C478 H493 0.929 . S
C479 C478 1.362 . S
C479 C480 1.366 . S
C480 C477 1.365 . S
C480 C479 1.366 . S
C480 H494 0.930 . S
C481 C478 1.378 . S
C481 N482 1.315 . S
C481 H484 0.930 . S
N482 Co462 2.194 . S
N482 C477 1.328 . S
N482 C481 1.315 . S
H483 C477 0.929 . S
H484 C481 0.930 . S
H485 C473 0.929 . S
H486 C475 0.929 . S
O487 Co462 2.351 . S
O487 C490 1.244 . S
O488 Co462 2.155 . S
O488 C490 1.240 . S
O489 Co462 2.096 . S
O489 C470 1.247 . S
C490 O487 1.244 . S
C490 O488 1.240 . S
H491 C465 0.931 . S
H492 C474 0.931 . S
H493 C478 0.929 . S
H494 C480 0.930 . S
Co495 N499 2.148 . S
Co495 N505 2.128 . S
Co495 N515 2.194 . S
Co495 O520 2.351 . S
Co495 O521 2.155 . S
Co495 O522 2.096 . S
C496 N499 1.301 . S
C496 N500 1.328 . S
C496 H501 0.930 . S
C497 C498 1.333 . S
C497 N499 1.317 . S
C497 H502 0.930 . S
C498 C497 1.333 . S
C498 N500 1.350 . S
C498 H524 0.931 . S
N499 Co495 2.148 . S
N499 C496 1.301 . S
N499 C497 1.317 . S
N500 C496 1.328 . S
N500 C498 1.350 . S
H501 C496 0.930 . S
H502 C497 0.930 . S
C503 O504 1.224 . S
C503 O522 1.247 . S
O504 C503 1.224 . S
N505 Co495 2.128 . S
N505 C506 1.355 . S
N505 C508 1.311 . S
C506 N505 1.355 . S
C506 C507 1.363 . S
C506 H518 0.929 . S
C507 C506 1.363 . S
C507 N509 1.375 . S
C507 H525 0.931 . S
C508 N505 1.311 . S
C508 N509 1.347 . S
C508 H519 0.929 . S
N509 C507 1.375 . S
N509 C508 1.347 . S
C510 C513 1.365 . S
C510 N515 1.328 . S
C510 H516 0.929 . S
C511 C512 1.362 . S
C511 C514 1.378 . S
C511 H526 0.929 . S
C512 C511 1.362 . S
C512 C513 1.366 . S
C513 C510 1.365 . S
C513 C512 1.366 . S
C513 H527 0.930 . S
C514 C511 1.378 . S
C514 N515 1.315 . S
C514 H517 0.930 . S
N515 Co495 2.194 . S
N515 C510 1.328 . S
N515 C514 1.315 . S
H516 C510 0.929 . S
H517 C514 0.930 . S
H518 C506 0.929 . S
H519 C508 0.929 . S
O520 Co495 2.351 . S
O520 C523 1.244 . S
O521 Co495 2.155 . S
O521 C523 1.240 . S
O522 Co495 2.096 . S
O522 C503 1.247 . S
C523 O520 1.244 . S
C523 O521 1.240 . S
H524 C498 0.931 . S
H525 C507 0.931 . S
H526 C511 0.929 . S
H527 C513 0.930 . S
C528 C529 1.363 . S
C528 C534 1.379 . S
C528 N536 1.356 . S
C529 C528 1.363 . S
C529 C535 1.363 1_655 S
C530 C531 1.363 . S
C530 C535 1.379 . S
C530 N537 1.356 . S
C531 C530 1.363 . S
C531 C534 1.363 1_455 S
N532 C534 1.356 1_455 S
N532 H544 0.984 1_455 S
N532 H545 0.985 . S
N533 C535 1.356 1_655 S
N533 H538 0.984 . S
N533 H539 0.985 1_655 S
C534 C528 1.379 . S
C534 C531 1.363 1_655 S
C534 N532 1.356 1_655 S
C535 C529 1.363 1_455 S
C535 C530 1.379 . S
C535 N533 1.356 1_455 S
N536 C528 1.356 . S
N536 H542 0.984 . S
N536 H543 0.984 . S
N537 C530 1.356 . S
N537 H540 0.984 . S
N537 H541 0.985 . S
H538 N533 0.984 . S
H539 N533 0.985 1_455 S
H540 N537 0.984 . S
H541 N537 0.985 . S
H542 N536 0.984 . S
H543 N536 0.984 . S
H544 N532 0.984 1_655 S
H545 N532 0.985 . S
C546 C547 1.363 1_565 S
C546 C552 1.379 . S
C546 N554 1.356 1_565 S
C547 C546 1.363 1_545 S
C547 C553 1.363 . S
C548 C549 1.363 1_545 S
C548 C553 1.379 . S
C548 N555 1.356 1_545 S
C549 C548 1.363 1_565 S
C549 C552 1.363 . S
N550 C552 1.356 . S
N550 H562 0.984 . S
N550 H563 0.985 . S
N551 C553 1.356 . S
N551 H556 0.984 . S
N551 H557 0.985 . S
C552 C546 1.379 . S
C552 C549 1.363 . S
C552 N550 1.356 . S
C553 C547 1.363 . S
C553 C548 1.379 . S
C553 N551 1.356 . S
N554 C546 1.356 1_545 S
N554 H560 0.984 1_545 S
N554 H561 0.984 . S
N555 C548 1.356 1_565 S
N555 H558 0.984 . S
N555 H559 0.985 1_565 S
H556 N551 0.984 . S
H557 N551 0.985 . S
H558 N555 0.984 . S
H559 N555 0.985 1_545 S
H560 N554 0.984 1_565 S
H561 N554 0.984 . S
H562 N550 0.984 . S
H563 N550 0.985 . S
C564 C565 1.363 . S
C564 C570 1.379 . S
C564 N572 1.356 . S
C565 C564 1.363 . S
C565 C571 1.363 1_655 S
C566 C567 1.363 . S
C566 C571 1.379 . S
C566 N573 1.356 . S
C567 C566 1.363 . S
C567 C570 1.363 1_455 S
N568 C570 1.356 1_455 S
N568 H580 0.984 1_455 S
N568 H581 0.985 . S
N569 C571 1.356 1_655 S
N569 H574 0.984 . S
N569 H575 0.985 1_655 S
C570 C564 1.379 . S
C570 C567 1.363 1_655 S
C570 N568 1.356 1_655 S
C571 C565 1.363 1_455 S
C571 C566 1.379 . S
C571 N569 1.356 1_455 S
N572 C564 1.356 . S
N572 H578 0.984 . S
N572 H579 0.984 . S
N573 C566 1.356 . S
N573 H576 0.984 . S
N573 H577 0.985 . S
H574 N569 0.984 . S
H575 N569 0.985 1_455 S
H576 N573 0.984 . S
H577 N573 0.985 . S
H578 N572 0.984 . S
H579 N572 0.984 . S
H580 N568 0.984 1_655 S
H581 N568 0.985 . S
C582 C583 1.363 1_545 S
C582 C588 1.379 . S
C582 N590 1.356 1_545 S
C583 C582 1.363 1_565 S
C583 C589 1.363 . S
C584 C585 1.363 1_565 S
C584 C589 1.379 . S
C584 N591 1.356 1_565 S
C585 C584 1.363 1_545 S
C585 C588 1.363 . S
N586 C588 1.356 . S
N586 H598 0.984 . S
N586 H599 0.985 . S
N587 C589 1.356 . S
N587 H592 0.984 . S
N587 H593 0.985 . S
C588 C582 1.379 . S
C588 C585 1.363 . S
C588 N586 1.356 . S
C589 C583 1.363 . S
C589 C584 1.379 . S
C589 N587 1.356 . S
N590 C582 1.356 1_565 S
N590 H596 0.984 1_565 S
N590 H597 0.984 . S
N591 C584 1.356 1_545 S
N591 H594 0.984 . S
N591 H595 0.985 1_545 S
H592 N587 0.984 . S
H593 N587 0.985 . S
H594 N591 0.984 . S
H595 N591 0.985 1_565 S
H596 N590 0.984 1_545 S
H597 N590 0.984 . S
H598 N586 0.984 . S
H599 N586 0.985 . S
C600 C601 1.363 . S
C600 C606 1.379 1_565 S
C600 N608 1.356 . S
C601 C600 1.363 . S
C601 C607 1.363 . S
C602 C603 1.363 . S
C602 C607 1.379 1_545 S
C602 N609 1.356 . S
C603 C602 1.363 . S
C603 C606 1.363 . S
N604 C606 1.356 . S
N604 H616 0.984 . S
N604 H617 0.985 . S
N605 C607 1.356 . S
N605 H610 0.984 . S
N605 H611 0.985 . S
C606 C600 1.379 1_545 S
C606 C603 1.363 . S
C606 N604 1.356 . S
C607 C601 1.363 . S
C607 C602 1.379 1_565 S
C607 N605 1.356 . S
N608 C600 1.356 . S
N608 H614 0.984 1_565 S
N608 H615 0.984 . S
N609 C602 1.356 . S
N609 H612 0.984 . S
N609 H613 0.985 1_545 S
H610 N605 0.984 . S
H611 N605 0.985 . S
H612 N609 0.984 . S
H613 N609 0.985 1_565 S
H614 N608 0.984 1_545 S
H615 N608 0.984 . S
H616 N604 0.984 . S
H617 N604 0.985 . S
C618 C619 1.363 . S
C618 C624 1.379 1_655 S
C618 N626 1.356 . S
C619 C618 1.363 . S
C619 C625 1.363 . S
C620 C621 1.363 . S
C620 C625 1.379 1_455 S
C620 N627 1.356 . S
C621 C620 1.363 . S
C621 C624 1.363 . S
N622 C624 1.356 . S
N622 H634 0.984 . S
N622 H635 0.985 . S
N623 C625 1.356 . S
N623 H628 0.984 . S
N623 H629 0.985 . S
C624 C618 1.379 1_455 S
C624 C621 1.363 . S
C624 N622 1.356 . S
C625 C619 1.363 . S
C625 C620 1.379 1_655 S
C625 N623 1.356 . S
N626 C618 1.356 . S
N626 H632 0.984 1_655 S
N626 H633 0.984 . S
N627 C620 1.356 . S
N627 H630 0.984 . S
N627 H631 0.985 1_455 S
H628 N623 0.984 . S
H629 N623 0.985 . S
H630 N627 0.984 . S
H631 N627 0.985 1_655 S
H632 N626 0.984 1_455 S
H633 N626 0.984 . S
H634 N622 0.984 . S
H635 N622 0.985 . S
C636 C637 1.363 . S
C636 C642 1.379 1_565 S
C636 N644 1.356 . S
C637 C636 1.363 . S
C637 C643 1.363 . S
C638 C639 1.363 . S
C638 C643 1.379 1_545 S
C638 N645 1.356 . S
C639 C638 1.363 . S
C639 C642 1.363 . S
N640 C642 1.356 . S
N640 H652 0.984 . S
N640 H653 0.985 . S
N641 C643 1.356 . S
N641 H646 0.984 . S
N641 H647 0.985 . S
C642 C636 1.379 1_545 S
C642 C639 1.363 . S
C642 N640 1.356 . S
C643 C637 1.363 . S
C643 C638 1.379 1_565 S
C643 N641 1.356 . S
N644 C636 1.356 . S
N644 H650 0.984 1_565 S
N644 H651 0.984 . S
N645 C638 1.356 . S
N645 H648 0.984 . S
N645 H649 0.985 1_545 S
H646 N641 0.984 . S
H647 N641 0.985 . S
H648 N645 0.984 . S
H649 N645 0.985 1_565 S
H650 N644 0.984 1_545 S
H651 N644 0.984 . S
H652 N640 0.984 . S
H653 N640 0.985 . S
C654 C655 1.363 . S
C654 C660 1.379 1_655 S
C654 N662 1.356 . S
C655 C654 1.363 . S
C655 C661 1.363 . S
C656 C657 1.363 . S
C656 C661 1.379 1_455 S
C656 N663 1.356 . S
C657 C656 1.363 . S
C657 C660 1.363 . S
N658 C660 1.356 . S
N658 H670 0.984 . S
N658 H671 0.985 . S
N659 C661 1.356 . S
N659 H664 0.984 . S
N659 H665 0.985 . S
C660 C654 1.379 1_455 S
C660 C657 1.363 . S
C660 N658 1.356 . S
C661 C655 1.363 . S
C661 C656 1.379 1_655 S
C661 N659 1.356 . S
N662 C654 1.356 . S
N662 H668 0.984 1_655 S
N662 H669 0.984 . S
N663 C656 1.356 . S
N663 H666 0.984 . S
N663 H667 0.985 1_455 S
H664 N659 0.984 . S
H665 N659 0.985 . S
H666 N663 0.984 . S
H667 N663 0.985 1_655 S
H668 N662 0.984 1_455 S
H669 N662 0.984 . S
H670 N658 0.984 . S
H671 N658 0.985 . S
C672 C673 1.363 . S
C672 C678 1.379 . S
C672 N680 1.356 . S
C673 C672 1.363 . S
C673 C679 1.363 . S
C674 C675 1.363 . S
C674 C679 1.379 . S
C674 N681 1.356 . S
C675 C674 1.363 . S
C675 C678 1.363 . S
N676 C678 1.356 . S
N676 H688 0.984 . S
N676 H689 0.985 . S
N677 C679 1.356 . S
N677 H682 0.984 . S
N677 H683 0.985 . S
C678 C672 1.379 . S
C678 C675 1.363 . S
C678 N676 1.356 . S
C679 C673 1.363 . S
C679 C674 1.379 . S
C679 N677 1.356 . S
N680 C672 1.356 . S
N680 H686 0.984 . S
N680 H687 0.984 . S
N681 C674 1.356 . S
N681 H684 0.984 . S
N681 H685 0.985 . S
H682 N677 0.984 . S
H683 N677 0.985 . S
H684 N681 0.984 . S
H685 N681 0.985 . S
H686 N680 0.984 . S
H687 N680 0.984 . S
H688 N676 0.984 . S
H689 N676 0.985 . S
C690 C691 1.363 . S
C690 C696 1.379 . S
C690 N698 1.356 . S
C691 C690 1.363 . S
C691 C697 1.363 . S
C692 C693 1.363 . S
C692 C697 1.379 . S
C692 N699 1.356 . S
C693 C692 1.363 . S
C693 C696 1.363 . S
N694 C696 1.356 . S
N694 H706 0.984 . S
N694 H707 0.985 . S
N695 C697 1.356 . S
N695 H700 0.984 . S
N695 H701 0.985 . S
C696 C690 1.379 . S
C696 C693 1.363 . S
C696 N694 1.356 . S
C697 C691 1.363 . S
C697 C692 1.379 . S
C697 N695 1.356 . S
N698 C690 1.356 . S
N698 H704 0.984 . S
N698 H705 0.984 . S
N699 C692 1.356 . S
N699 H702 0.984 . S
N699 H703 0.985 . S
H700 N695 0.984 . S
H701 N695 0.985 . S
H702 N699 0.984 . S
H703 N699 0.985 . S
H704 N698 0.984 . S
H705 N698 0.984 . S
H706 N694 0.984 . S
H707 N694 0.985 . S
C708 C709 1.363 . S
C708 C714 1.379 . S
C708 N716 1.356 . S
C709 C708 1.363 . S
C709 C715 1.363 . S
C710 C711 1.363 . S
C710 C715 1.379 . S
C710 N717 1.356 . S
C711 C710 1.363 . S
C711 C714 1.363 . S
N712 C714 1.356 . S
N712 H724 0.984 . S
N712 H725 0.985 . S
N713 C715 1.356 . S
N713 H718 0.984 . S
N713 H719 0.985 . S
C714 C708 1.379 . S
C714 C711 1.363 . S
C714 N712 1.356 . S
C715 C709 1.363 . S
C715 C710 1.379 . S
C715 N713 1.356 . S
N716 C708 1.356 . S
N716 H722 0.984 . S
N716 H723 0.984 . S
N717 C710 1.356 . S
N717 H720 0.984 . S
N717 H721 0.985 . S
H718 N713 0.984 . S
H719 N713 0.985 . S
H720 N717 0.984 . S
H721 N717 0.985 . S
H722 N716 0.984 . S
H723 N716 0.984 . S
H724 N712 0.984 . S
H725 N712 0.985 . S
C726 C727 1.363 . S
C726 C732 1.379 . S
C726 N734 1.356 . S
C727 C726 1.363 . S
C727 C733 1.363 . S
C728 C729 1.363 . S
C728 C733 1.379 . S
C728 N735 1.356 . S
C729 C728 1.363 . S
C729 C732 1.363 . S
N730 C732 1.356 . S
N730 H742 0.984 1_565 S
N730 H743 0.985 . S
N731 C733 1.356 . S
N731 H736 0.984 . S
N731 H737 0.985 . S
C732 C726 1.379 . S
C732 C729 1.363 . S
C732 N730 1.356 . S
C733 C727 1.363 . S
C733 C728 1.379 . S
C733 N731 1.356 . S
N734 C726 1.356 . S
N734 H740 0.984 . S
N734 H741 0.984 . S
N735 C728 1.356 . S
N735 H738 0.984 . S
N735 H739 0.985 . S
H736 N731 0.984 . S
H737 N731 0.985 . S
H738 N735 0.984 . S
H739 N735 0.985 . S
H740 N734 0.984 . S
H741 N734 0.984 . S
H742 N730 0.984 1_545 S
H743 N730 0.985 . S
C744 C745 1.363 . S
C744 C750 1.379 . S
C744 N752 1.356 . S
C745 C744 1.363 . S
C745 C751 1.363 . S
C746 C747 1.363 . S
C746 C751 1.379 . S
C746 N753 1.356 . S
C747 C746 1.363 . S
C747 C750 1.363 . S
N748 C750 1.356 . S
N748 H760 0.984 . S
N748 H761 0.985 . S
N749 C751 1.356 . S
N749 H754 0.984 . S
N749 H755 0.985 . S
C750 C744 1.379 . S
C750 C747 1.363 . S
C750 N748 1.356 . S
C751 C745 1.363 . S
C751 C746 1.379 . S
C751 N749 1.356 . S
N752 C744 1.356 . S
N752 H758 0.984 . S
N752 H759 0.984 . S
N753 C746 1.356 . S
N753 H756 0.984 . S
N753 H757 0.985 . S
H754 N749 0.984 . S
H755 N749 0.985 . S
H756 N753 0.984 . S
H757 N753 0.985 . S
H758 N752 0.984 . S
H759 N752 0.984 . S
H760 N748 0.984 . S
H761 N748 0.985 . S
C762 C763 1.363 . S
C762 C768 1.379 . S
C762 N770 1.356 . S
C763 C762 1.363 . S
C763 C769 1.363 . S
C764 C765 1.363 . S
C764 C769 1.379 . S
C764 N771 1.356 . S
C765 C764 1.363 . S
C765 C768 1.363 . S
N766 C768 1.356 . S
N766 H778 0.984 . S
N766 H779 0.985 . S
N767 C769 1.356 . S
N767 H772 0.984 . S
N767 H773 0.985 . S
C768 C762 1.379 . S
C768 C765 1.363 . S
C768 N766 1.356 . S
C769 C763 1.363 . S
C769 C764 1.379 . S
C769 N767 1.356 . S
N770 C762 1.356 . S
N770 H776 0.984 . S
N770 H777 0.984 . S
N771 C764 1.356 . S
N771 H774 0.984 . S
N771 H775 0.985 1_545 S
H772 N767 0.984 . S
H773 N767 0.985 . S
H774 N771 0.984 . S
H775 N771 0.985 1_565 S
H776 N770 0.984 . S
H777 N770 0.984 . S
H778 N766 0.984 . S
H779 N766 0.985 . S
C780 C781 1.363 . S
C780 C786 1.379 . S
C780 N788 1.356 . S
C781 C780 1.363 . S
C781 C787 1.363 . S
C782 C783 1.363 . S
C782 C787 1.379 . S
C782 N789 1.356 . S
C783 C782 1.363 . S
C783 C786 1.363 . S
N784 C786 1.356 . S
N784 H796 0.984 . S
N784 H797 0.985 . S
N785 C787 1.356 . S
N785 H790 0.984 . S
N785 H791 0.985 . S
C786 C780 1.379 . S
C786 C783 1.363 . S
C786 N784 1.356 . S
C787 C781 1.363 . S
C787 C782 1.379 . S
C787 N785 1.356 . S
N788 C780 1.356 . S
N788 H794 0.984 . S
N788 H795 0.984 . S
N789 C782 1.356 . S
N789 H792 0.984 . S
N789 H793 0.985 . S
H790 N785 0.984 . S
H791 N785 0.985 . S
H792 N789 0.984 . S
H793 N789 0.985 . S
H794 N788 0.984 . S
H795 N788 0.984 . S
H796 N784 0.984 . S
H797 N784 0.985 . S
C798 C799 1.363 . S
C798 C804 1.379 . S
C798 N806 1.356 . S
C799 C798 1.363 . S
C799 C805 1.363 . S
C800 C801 1.363 . S
C800 C805 1.379 . S
C800 N807 1.356 . S
C801 C800 1.363 . S
C801 C804 1.363 . S
N802 C804 1.356 . S
N802 H814 0.984 . S
N802 H815 0.985 . S
N803 C805 1.356 . S
N803 H808 0.984 . S
N803 H809 0.985 . S
C804 C798 1.379 . S
C804 C801 1.363 . S
C804 N802 1.356 . S
C805 C799 1.363 . S
C805 C800 1.379 . S
C805 N803 1.356 . S
N806 C798 1.356 . S
N806 H812 0.984 . S
N806 H813 0.984 . S
N807 C800 1.356 . S
N807 H810 0.984 . S
N807 H811 0.985 . S
H808 N803 0.984 . S
H809 N803 0.985 . S
H810 N807 0.984 . S
H811 N807 0.985 . S
H812 N806 0.984 . S
H813 N806 0.984 . S
H814 N802 0.984 . S
H815 N802 0.985 . S
C816 C817 1.363 . S
C816 C822 1.379 . S
C816 N824 1.356 . S
C817 C816 1.363 . S
C817 C823 1.363 . S
C818 C819 1.363 . S
C818 C823 1.379 . S
C818 N825 1.356 . S
C819 C818 1.363 . S
C819 C822 1.363 . S
N820 C822 1.356 . S
N820 H832 0.984 . S
N820 H833 0.985 . S
N821 C823 1.356 . S
N821 H826 0.984 . S
N821 H827 0.985 . S
C822 C816 1.379 . S
C822 C819 1.363 . S
C822 N820 1.356 . S
C823 C817 1.363 . S
C823 C818 1.379 . S
C823 N821 1.356 . S
N824 C816 1.356 . S
N824 H830 0.984 . S
N824 H831 0.984 . S
N825 C818 1.356 . S
N825 H828 0.984 . S
N825 H829 0.985 . S
H826 N821 0.984 . S
H827 N821 0.985 . S
H828 N825 0.984 . S
H829 N825 0.985 . S
H830 N824 0.984 . S
H831 N824 0.984 . S
H832 N820 0.984 . S
H833 N820 0.985 . S
C834 C835 1.363 . S
C834 C840 1.379 . S
C834 N842 1.356 . S
C835 C834 1.363 . S
C835 C841 1.363 . S
C836 C837 1.363 . S
C836 C841 1.379 . S
C836 N843 1.356 . S
C837 C836 1.363 . S
C837 C840 1.363 . S
N838 C840 1.356 . S
N838 H850 0.984 . S
N838 H851 0.985 . S
N839 C841 1.356 . S
N839 H844 0.984 . S
N839 H845 0.985 . S
C840 C834 1.379 . S
C840 C837 1.363 . S
C840 N838 1.356 . S
C841 C835 1.363 . S
C841 C836 1.379 . S
C841 N839 1.356 . S
N842 C834 1.356 . S
N842 H848 0.984 . S
N842 H849 0.984 . S
N843 C836 1.356 . S
N843 H846 0.984 . S
N843 H847 0.985 . S
H844 N839 0.984 . S
H845 N839 0.985 . S
H846 N843 0.984 . S
H847 N843 0.985 . S
H848 N842 0.984 . S
H849 N842 0.984 . S
H850 N838 0.984 . S
H851 N838 0.985 . S
C852 C853 1.363 . S
C852 C858 1.379 . S
C852 N860 1.356 . S
C853 C852 1.363 . S
C853 C859 1.363 . S
C854 C855 1.363 . S
C854 C859 1.379 . S
C854 N861 1.356 . S
C855 C854 1.363 . S
C855 C858 1.363 . S
N856 C858 1.356 . S
N856 H868 0.984 . S
N856 H869 0.985 . S
N857 C859 1.356 . S
N857 H862 0.984 . S
N857 H863 0.985 . S
C858 C852 1.379 . S
C858 C855 1.363 . S
C858 N856 1.356 . S
C859 C853 1.363 . S
C859 C854 1.379 . S
C859 N857 1.356 . S
N860 C852 1.356 . S
N860 H866 0.984 . S
N860 H867 0.984 . S
N861 C854 1.356 . S
N861 H864 0.984 . S
N861 H865 0.985 . S
H862 N857 0.984 . S
H863 N857 0.985 . S
H864 N861 0.984 . S
H865 N861 0.985 . S
H866 N860 0.984 . S
H867 N860 0.984 . S
H868 N856 0.984 . S
H869 N856 0.985 . S
C870 C871 1.363 . S
C870 C876 1.379 . S
C870 N878 1.356 . S
C871 C870 1.363 . S
C871 C877 1.363 . S
C872 C873 1.363 . S
C872 C877 1.379 . S
C872 N879 1.356 . S
C873 C872 1.363 . S
C873 C876 1.363 . S
N874 C876 1.356 . S
N874 H886 0.984 . S
N874 H887 0.985 . S
N875 C877 1.356 . S
N875 H880 0.984 . S
N875 H881 0.985 . S
C876 C870 1.379 . S
C876 C873 1.363 . S
C876 N874 1.356 . S
C877 C871 1.363 . S
C877 C872 1.379 . S
C877 N875 1.356 . S
N878 C870 1.356 . S
N878 H884 0.984 . S
N878 H885 0.984 . S
N879 C872 1.356 . S
N879 H882 0.984 . S
N879 H883 0.985 . S
H880 N875 0.984 . S
H881 N875 0.985 . S
H882 N879 0.984 . S
H883 N879 0.985 . S
H884 N878 0.984 . S
H885 N878 0.984 . S
H886 N874 0.984 . S
H887 N874 0.985 . S
C888 C889 1.363 . S
C888 C894 1.379 . S
C888 N896 1.356 . S
C889 C888 1.363 . S
C889 C895 1.363 . S
C890 C891 1.363 . S
C890 C895 1.379 . S
C890 N897 1.356 . S
C891 C890 1.363 . S
C891 C894 1.363 . S
N892 C894 1.356 . S
N892 H904 0.984 . S
N892 H905 0.985 . S
N893 C895 1.356 . S
N893 H898 0.984 . S
N893 H899 0.985 . S
C894 C888 1.379 . S
C894 C891 1.363 . S
C894 N892 1.356 . S
C895 C889 1.363 . S
C895 C890 1.379 . S
C895 N893 1.356 . S
N896 C888 1.356 . S
N896 H902 0.984 . S
N896 H903 0.984 . S
N897 C890 1.356 . S
N897 H900 0.984 . S
N897 H901 0.985 . S
H898 N893 0.984 . S
H899 N893 0.985 . S
H900 N897 0.984 . S
H901 N897 0.985 . S
H902 N896 0.984 . S
H903 N896 0.984 . S
H904 N892 0.984 . S
H905 N892 0.985 . S
C906 C907 1.363 . S
C906 C912 1.379 . S
C906 N914 1.356 . S
C907 C906 1.363 . S
C907 C913 1.363 . S
C908 C909 1.363 . S
C908 C913 1.379 . S
C908 N915 1.356 . S
C909 C908 1.363 . S
C909 C912 1.363 . S
N910 C912 1.356 . S
N910 H922 0.984 . S
N910 H923 0.985 . S
N911 C913 1.356 . S
N911 H916 0.984 . S
N911 H917 0.985 . S
C912 C906 1.379 . S
C912 C909 1.363 . S
C912 N910 1.356 . S
C913 C907 1.363 . S
C913 C908 1.379 . S
C913 N911 1.356 . S
N914 C906 1.356 . S
N914 H920 0.984 . S
N914 H921 0.984 . S
N915 C908 1.356 . S
N915 H918 0.984 . S
N915 H919 0.985 . S
H916 N911 0.984 . S
H917 N911 0.985 . S
H918 N915 0.984 . S
H919 N915 0.985 . S
H920 N914 0.984 . S
H921 N914 0.984 . S
H922 N910 0.984 . S
H923 N910 0.985 . S
C924 C925 1.363 . S
C924 C930 1.379 . S
C924 N932 1.356 . S
C925 C924 1.363 . S
C925 C931 1.363 . S
C926 C927 1.363 . S
C926 C931 1.379 . S
C926 N933 1.356 . S
C927 C926 1.363 . S
C927 C930 1.363 . S
N928 C930 1.356 . S
N928 H940 0.984 . S
N928 H941 0.985 . S
N929 C931 1.356 . S
N929 H934 0.984 . S
N929 H935 0.985 . S
C930 C924 1.379 . S
C930 C927 1.363 . S
C930 N928 1.356 . S
C931 C925 1.363 . S
C931 C926 1.379 . S
C931 N929 1.356 . S
N932 C924 1.356 . S
N932 H938 0.984 . S
N932 H939 0.984 . S
N933 C926 1.356 . S
N933 H936 0.984 . S
N933 H937 0.985 . S
H934 N929 0.984 . S
H935 N929 0.985 . S
H936 N933 0.984 . S
H937 N933 0.985 . S
H938 N932 0.984 . S
H939 N932 0.984 . S
H940 N928 0.984 . S
H941 N928 0.985 . S
C942 C943 1.363 . S
C942 C948 1.379 . S
C942 N950 1.356 . S
C943 C942 1.363 . S
C943 C949 1.363 . S
C944 C945 1.363 . S
C944 C949 1.379 . S
C944 N951 1.356 . S
C945 C944 1.363 . S
C945 C948 1.363 . S
N946 C948 1.356 . S
N946 H958 0.984 . S
N946 H959 0.985 . S
N947 C949 1.356 . S
N947 H952 0.984 . S
N947 H953 0.985 . S
C948 C942 1.379 . S
C948 C945 1.363 . S
C948 N946 1.356 . S
C949 C943 1.363 . S
C949 C944 1.379 . S
C949 N947 1.356 . S
N950 C942 1.356 . S
N950 H956 0.984 . S
N950 H957 0.984 . S
N951 C944 1.356 . S
N951 H954 0.984 . S
N951 H955 0.985 . S
H952 N947 0.984 . S
H953 N947 0.985 . S
H954 N951 0.984 . S
H955 N951 0.985 . S
H956 N950 0.984 . S
H957 N950 0.984 . S
H958 N946 0.984 . S
H959 N946 0.985 . S
C960 C961 1.363 . S
C960 C966 1.379 . S
C960 N968 1.356 . S
C961 C960 1.363 . S
C961 C967 1.363 . S
C962 C963 1.363 . S
C962 C967 1.379 . S
C962 N969 1.356 . S
C963 C962 1.363 . S
C963 C966 1.363 . S
N964 C966 1.356 . S
N964 H976 0.984 . S
N964 H977 0.985 . S
N965 C967 1.356 . S
N965 H970 0.984 . S
N965 H971 0.985 . S
C966 C960 1.379 . S
C966 C963 1.363 . S
C966 N964 1.356 . S
C967 C961 1.363 . S
C967 C962 1.379 . S
C967 N965 1.356 . S
N968 C960 1.356 . S
N968 H974 0.984 . S
N968 H975 0.984 . S
N969 C962 1.356 . S
N969 H972 0.984 . S
N969 H973 0.985 . S
H970 N965 0.984 . S
H971 N965 0.985 . S
H972 N969 0.984 . S
H973 N969 0.985 . S
H974 N968 0.984 . S
H975 N968 0.984 . S
H976 N964 0.984 . S
H977 N964 0.985 . S
C978 C979 1.363 . S
C978 C984 1.379 . S
C978 N986 1.356 . S
C979 C978 1.363 . S
C979 C985 1.363 . S
C980 C981 1.363 . S
C980 C985 1.379 . S
C980 N987 1.356 . S
C981 C980 1.363 . S
C981 C984 1.363 . S
N982 C984 1.356 . S
N982 H994 0.984 . S
N982 H995 0.985 . S
N983 C985 1.356 . S
N983 H988 0.984 . S
N983 H989 0.985 . S
C984 C978 1.379 . S
C984 C981 1.363 . S
C984 N982 1.356 . S
C985 C979 1.363 . S
C985 C980 1.379 . S
C985 N983 1.356 . S
N986 C978 1.356 . S
N986 H992 0.984 . S
N986 H993 0.984 . S
N987 C980 1.356 . S
N987 H990 0.984 . S
N987 H991 0.985 . S
H988 N983 0.984 . S
H989 N983 0.985 . S
H990 N987 0.984 . S
H991 N987 0.985 . S
H992 N986 0.984 . S
H993 N986 0.984 . S
H994 N982 0.984 . S
H995 N982 0.985 . S
C996 C997 1.363 . S
C996 C1002 1.379 . S
C996 N1004 1.356 . S
C997 C996 1.363 . S
C997 C1003 1.363 . S
C998 C999 1.363 . S
C998 C1003 1.379 . S
C998 N1005 1.356 . S
C999 C998 1.363 . S
C999 C1002 1.363 . S
N1000 C1002 1.356 . S
N1000 H1012 0.984 . S
N1000 H1013 0.985 . S
N1001 C1003 1.356 . S
N1001 H1006 0.984 . S
N1001 H1007 0.985 . S
C1002 C996 1.379 . S
C1002 C999 1.363 . S
C1002 N1000 1.356 . S
C1003 C997 1.363 . S
C1003 C998 1.379 . S
C1003 N1001 1.356 . S
N1004 C996 1.356 . S
N1004 H1010 0.984 . S
N1004 H1011 0.984 . S
N1005 C998 1.356 . S
N1005 H1008 0.984 . S
N1005 H1009 0.985 . S
H1006 N1001 0.984 . S
H1007 N1001 0.985 . S
H1008 N1005 0.984 . S
H1009 N1005 0.985 . S
H1010 N1004 0.984 . S
H1011 N1004 0.984 . S
H1012 N1000 0.984 . S
H1013 N1000 0.985 . S
C1014 C1015 1.363 . S
C1014 C1020 1.379 . S
C1014 N1022 1.356 . S
C1015 C1014 1.363 . S
C1015 C1021 1.363 . S
C1016 C1017 1.363 . S
C1016 C1021 1.379 . S
C1016 N1023 1.356 . S
C1017 C1016 1.363 . S
C1017 C1020 1.363 . S
N1018 C1020 1.356 . S
N1018 H1030 0.984 . S
N1018 H1031 0.985 . S
N1019 C1021 1.356 . S
N1019 H1024 0.984 . S
N1019 H1025 0.985 . S
C1020 C1014 1.379 . S
C1020 C1017 1.363 . S
C1020 N1018 1.356 . S
C1021 C1015 1.363 . S
C1021 C1016 1.379 . S
C1021 N1019 1.356 . S
N1022 C1014 1.356 . S
N1022 H1028 0.984 . S
N1022 H1029 0.984 . S
N1023 C1016 1.356 . S
N1023 H1026 0.984 . S
N1023 H1027 0.985 . S
H1024 N1019 0.984 . S
H1025 N1019 0.985 . S
H1026 N1023 0.984 . S
H1027 N1023 0.985 . S
H1028 N1022 0.984 . S
H1029 N1022 0.984 . S
H1030 N1018 0.984 . S
H1031 N1018 0.985 . S
C1032 C1033 1.363 . S
C1032 C1038 1.379 . S
C1032 N1040 1.356 . S
C1033 C1032 1.363 . S
C1033 C1039 1.363 . S
C1034 C1035 1.363 . S
C1034 C1039 1.379 . S
C1034 N1041 1.356 . S
C1035 C1034 1.363 . S
C1035 C1038 1.363 . S
N1036 C1038 1.356 . S
N1036 H1048 0.984 . S
N1036 H1049 0.985 . S
N1037 C1039 1.356 . S
N1037 H1042 0.984 . S
N1037 H1043 0.985 . S
C1038 C1032 1.379 . S
C1038 C1035 1.363 . S
C1038 N1036 1.356 . S
C1039 C1033 1.363 . S
C1039 C1034 1.379 . S
C1039 N1037 1.356 . S
N1040 C1032 1.356 . S
N1040 H1046 0.984 . S
N1040 H1047 0.984 . S
N1041 C1034 1.356 . S
N1041 H1044 0.984 . S
N1041 H1045 0.985 . S
H1042 N1037 0.984 . S
H1043 N1037 0.985 . S
H1044 N1041 0.984 . S
H1045 N1041 0.985 . S
H1046 N1040 0.984 . S
H1047 N1040 0.984 . S
H1048 N1036 0.984 . S
H1049 N1036 0.985 . S
C1050 C1051 1.363 . S
C1050 C1056 1.379 . S
C1050 N1058 1.356 . S
C1051 C1050 1.363 . S
C1051 C1057 1.363 . S
C1052 C1053 1.363 . S
C1052 C1057 1.379 . S
C1052 N1059 1.356 . S
C1053 C1052 1.363 . S
C1053 C1056 1.363 . S
N1054 C1056 1.356 . S
N1054 H1066 0.984 . S
N1054 H1067 0.985 . S
N1055 C1057 1.356 . S
N1055 H1060 0.984 . S
N1055 H1061 0.985 . S
C1056 C1050 1.379 . S
C1056 C1053 1.363 . S
C1056 N1054 1.356 . S
C1057 C1051 1.363 . S
C1057 C1052 1.379 . S
C1057 N1055 1.356 . S
N1058 C1050 1.356 . S
N1058 H1064 0.984 . S
N1058 H1065 0.984 . S
N1059 C1052 1.356 . S
N1059 H1062 0.984 . S
N1059 H1063 0.985 . S
H1060 N1055 0.984 . S
H1061 N1055 0.985 . S
H1062 N1059 0.984 . S
H1063 N1059 0.985 . S
H1064 N1058 0.984 . S
H1065 N1058 0.984 . S
H1066 N1054 0.984 . S
H1067 N1054 0.985 . S
C1068 C1069 1.363 . S
C1068 C1074 1.379 . S
C1068 N1076 1.356 . S
C1069 C1068 1.363 . S
C1069 C1075 1.363 . S
C1070 C1071 1.363 . S
C1070 C1075 1.379 . S
C1070 N1077 1.356 . S
C1071 C1070 1.363 . S
C1071 C1074 1.363 . S
N1072 C1074 1.356 . S
N1072 H1084 0.984 . S
N1072 H1085 0.985 . S
N1073 C1075 1.356 . S
N1073 H1078 0.984 . S
N1073 H1079 0.985 . S
C1074 C1068 1.379 . S
C1074 C1071 1.363 . S
C1074 N1072 1.356 . S
C1075 C1069 1.363 . S
C1075 C1070 1.379 . S
C1075 N1073 1.356 . S
N1076 C1068 1.356 . S
N1076 H1082 0.984 . S
N1076 H1083 0.984 . S
N1077 C1070 1.356 . S
N1077 H1080 0.984 . S
N1077 H1081 0.985 . S
H1078 N1073 0.984 . S
H1079 N1073 0.985 . S
H1080 N1077 0.984 . S
H1081 N1077 0.985 . S
H1082 N1076 0.984 . S
H1083 N1076 0.984 . S
H1084 N1072 0.984 . S
H1085 N1072 0.985 . S
C1086 C1087 1.363 . S
C1086 C1092 1.379 . S
C1086 N1094 1.356 . S
C1087 C1086 1.363 . S
C1087 C1093 1.363 . S
C1088 C1089 1.363 . S
C1088 C1093 1.379 . S
C1088 N1095 1.356 . S
C1089 C1088 1.363 . S
C1089 C1092 1.363 . S
N1090 C1092 1.356 . S
N1090 H1102 0.984 . S
N1090 H1103 0.985 . S
N1091 C1093 1.356 . S
N1091 H1096 0.984 . S
N1091 H1097 0.985 . S
C1092 C1086 1.379 . S
C1092 C1089 1.363 . S
C1092 N1090 1.356 . S
C1093 C1087 1.363 . S
C1093 C1088 1.379 . S
C1093 N1091 1.356 . S
N1094 C1086 1.356 . S
N1094 H1100 0.984 . S
N1094 H1101 0.984 . S
N1095 C1088 1.356 . S
N1095 H1098 0.984 . S
N1095 H1099 0.985 . S
H1096 N1091 0.984 . S
H1097 N1091 0.985 . S
H1098 N1095 0.984 . S
H1099 N1095 0.985 . S
H1100 N1094 0.984 . S
H1101 N1094 0.984 . S
H1102 N1090 0.984 . S
H1103 N1090 0.985 . S
C1104 C1105 1.363 . S
C1104 C1110 1.379 . S
C1104 N1112 1.356 . S
C1105 C1104 1.363 . S
C1105 C1111 1.363 1_655 S
C1106 C1107 1.363 . S
C1106 C1111 1.379 . S
C1106 N1113 1.356 . S
C1107 C1106 1.363 . S
C1107 C1110 1.363 1_455 S
N1108 C1110 1.356 . S
N1108 H1120 0.984 . S
N1108 H1121 0.985 . S
N1109 C1111 1.356 . S
N1109 H1114 0.984 . S
N1109 H1115 0.985 . S
C1110 C1104 1.379 . S
C1110 C1107 1.363 1_655 S
C1110 N1108 1.356 . S
C1111 C1105 1.363 1_455 S
C1111 C1106 1.379 . S
C1111 N1109 1.356 . S
N1112 C1104 1.356 . S
N1112 H1118 0.984 . S
N1112 H1119 0.984 . S
N1113 C1106 1.356 . S
N1113 H1116 0.984 . S
N1113 H1117 0.985 . S
H1114 N1109 0.984 . S
H1115 N1109 0.985 . S
H1116 N1113 0.984 . S
H1117 N1113 0.985 . S
H1118 N1112 0.984 . S
H1119 N1112 0.984 . S
H1120 N1108 0.984 . S
H1121 N1108 0.985 . S
C1122 C1123 1.363 1_565 S
C1122 C1128 1.379 . S
C1122 N1130 1.356 . S
C1123 C1122 1.363 1_545 S
C1123 C1129 1.363 . S
C1124 C1125 1.363 1_545 S
C1124 C1129 1.379 . S
C1124 N1131 1.356 . S
C1125 C1124 1.363 1_565 S
C1125 C1128 1.363 . S
N1126 C1128 1.356 . S
N1126 H1138 0.984 . S
N1126 H1139 0.985 . S
N1127 C1129 1.356 . S
N1127 H1132 0.984 . S
N1127 H1133 0.985 . S
C1128 C1122 1.379 . S
C1128 C1125 1.363 . S
C1128 N1126 1.356 . S
C1129 C1123 1.363 . S
C1129 C1124 1.379 . S
C1129 N1127 1.356 . S
N1130 C1122 1.356 . S
N1130 H1136 0.984 . S
N1130 H1137 0.984 . S
N1131 C1124 1.356 . S
N1131 H1134 0.984 . S
N1131 H1135 0.985 . S
H1132 N1127 0.984 . S
H1133 N1127 0.985 . S
H1134 N1131 0.984 . S
H1135 N1131 0.985 . S
H1136 N1130 0.984 . S
H1137 N1130 0.984 . S
H1138 N1126 0.984 . S
H1139 N1126 0.985 . S
C1140 C1141 1.363 1_455 S
C1140 C1146 1.379 . S
C1140 N1148 1.356 . S
C1141 C1140 1.363 1_655 S
C1141 C1147 1.363 . S
C1142 C1143 1.363 1_655 S
C1142 C1147 1.379 . S
C1142 N1149 1.356 . S
C1143 C1142 1.363 1_455 S
C1143 C1146 1.363 . S
N1144 C1146 1.356 . S
N1144 H1156 0.984 . S
N1144 H1157 0.985 . S
N1145 C1147 1.356 . S
N1145 H1150 0.984 . S
N1145 H1151 0.985 . S
C1146 C1140 1.379 . S
C1146 C1143 1.363 . S
C1146 N1144 1.356 . S
C1147 C1141 1.363 . S
C1147 C1142 1.379 . S
C1147 N1145 1.356 . S
N1148 C1140 1.356 . S
N1148 H1154 0.984 . S
N1148 H1155 0.984 . S
N1149 C1142 1.356 . S
N1149 H1152 0.984 . S
N1149 H1153 0.985 . S
H1150 N1145 0.984 . S
H1151 N1145 0.985 . S
H1152 N1149 0.984 . S
H1153 N1149 0.985 . S
H1154 N1148 0.984 . S
H1155 N1148 0.984 . S
H1156 N1144 0.984 . S
H1157 N1144 0.985 . S
C1158 C1159 1.363 . S
C1158 C1164 1.379 . S
C1158 N1166 1.356 . S
C1159 C1158 1.363 . S
C1159 C1165 1.363 1_565 S
C1160 C1161 1.363 . S
C1160 C1165 1.379 . S
C1160 N1167 1.356 . S
C1161 C1160 1.363 . S
C1161 C1164 1.363 1_545 S
N1162 C1164 1.356 . S
N1162 H1174 0.984 . S
N1162 H1175 0.985 . S
N1163 C1165 1.356 . S
N1163 H1168 0.984 . S
N1163 H1169 0.985 . S
C1164 C1158 1.379 . S
C1164 C1161 1.363 1_565 S
C1164 N1162 1.356 . S
C1165 C1159 1.363 1_545 S
C1165 C1160 1.379 . S
C1165 N1163 1.356 . S
N1166 C1158 1.356 . S
N1166 H1172 0.984 . S
N1166 H1173 0.984 . S
N1167 C1160 1.356 . S
N1167 H1170 0.984 . S
N1167 H1171 0.985 . S
H1168 N1163 0.984 . S
H1169 N1163 0.985 . S
H1170 N1167 0.984 . S
H1171 N1167 0.985 . S
H1172 N1166 0.984 . S
H1173 N1166 0.984 . S
H1174 N1162 0.984 . S
H1175 N1162 0.985 . S
C1176 C1177 1.363 . S
C1176 C1182 1.379 1_556 S
C1176 N1184 1.356 . S
C1177 C1176 1.363 . S
C1177 C1183 1.363 . S
C1178 C1179 1.363 . S
C1178 C1183 1.379 1_554 S
C1178 N1185 1.356 . S
C1179 C1178 1.363 . S
C1179 C1182 1.363 . S
N1180 C1182 1.356 . S
N1180 H1192 0.984 . S
N1180 H1193 0.985 . S
N1181 C1183 1.356 . S
N1181 H1186 0.984 . S
N1181 H1187 0.985 . S
C1182 C1176 1.379 1_554 S
C1182 C1179 1.363 . S
C1182 N1180 1.356 . S
C1183 C1177 1.363 . S
C1183 C1178 1.379 1_556 S
C1183 N1181 1.356 . S
N1184 C1176 1.356 . S
N1184 H1190 0.984 . S
N1184 H1191 0.984 . S
N1185 C1178 1.356 . S
N1185 H1188 0.984 . S
N1185 H1189 0.985 . S
H1186 N1181 0.984 . S
H1187 N1181 0.985 . S
H1188 N1185 0.984 . S
H1189 N1185 0.985 . S
H1190 N1184 0.984 . S
H1191 N1184 0.984 . S
H1192 N1180 0.984 . S
H1193 N1180 0.985 . S
C1194 C1195 1.363 . S
C1194 C1200 1.379 1_554 S
C1194 N1202 1.356 . S
C1195 C1194 1.363 . S
C1195 C1201 1.363 . S
C1196 C1197 1.363 . S
C1196 C1201 1.379 1_556 S
C1196 N1203 1.356 . S
C1197 C1196 1.363 . S
C1197 C1200 1.363 . S
N1198 C1200 1.356 . S
N1198 H1210 0.984 . S
N1198 H1211 0.985 . S
N1199 C1201 1.356 . S
N1199 H1204 0.984 . S
N1199 H1205 0.985 . S
C1200 C1194 1.379 1_556 S
C1200 C1197 1.363 . S
C1200 N1198 1.356 . S
C1201 C1195 1.363 . S
C1201 C1196 1.379 1_554 S
C1201 N1199 1.356 . S
N1202 C1194 1.356 . S
N1202 H1208 0.984 . S
N1202 H1209 0.984 . S
N1203 C1196 1.356 . S
N1203 H1206 0.984 . S
N1203 H1207 0.985 . S
H1204 N1199 0.984 . S
H1205 N1199 0.985 . S
H1206 N1203 0.984 . S
H1207 N1203 0.985 . S
H1208 N1202 0.984 . S
H1209 N1202 0.984 . S
H1210 N1198 0.984 . S
H1211 N1198 0.985 . S
C1212 C1213 1.363 . S
C1212 C1218 1.379 1_554 S
C1212 N1220 1.356 . S
C1213 C1212 1.363 . S
C1213 C1219 1.363 . S
C1214 C1215 1.363 . S
C1214 C1219 1.379 1_556 S
C1214 N1221 1.356 . S
C1215 C1214 1.363 . S
C1215 C1218 1.363 . S
N1216 C1218 1.356 . S
N1216 H1228 0.984 . S
N1216 H1229 0.985 . S
N1217 C1219 1.356 . S
N1217 H1222 0.984 . S
N1217 H1223 0.985 . S
C1218 C1212 1.379 1_556 S
C1218 C1215 1.363 . S
C1218 N1216 1.356 . S
C1219 C1213 1.363 . S
C1219 C1214 1.379 1_554 S
C1219 N1217 1.356 . S
N1220 C1212 1.356 . S
N1220 H1226 0.984 . S
N1220 H1227 0.984 . S
N1221 C1214 1.356 . S
N1221 H1224 0.984 . S
N1221 H1225 0.985 . S
H1222 N1217 0.984 . S
H1223 N1217 0.985 . S
H1224 N1221 0.984 . S
H1225 N1221 0.985 . S
H1226 N1220 0.984 . S
H1227 N1220 0.984 . S
H1228 N1216 0.984 . S
H1229 N1216 0.985 . S
C1230 C1231 1.363 . S
C1230 C1236 1.379 1_556 S
C1230 N1238 1.356 . S
C1231 C1230 1.363 . S
C1231 C1237 1.363 . S
C1232 C1233 1.363 . S
C1232 C1237 1.379 1_554 S
C1232 N1239 1.356 . S
C1233 C1232 1.363 . S
C1233 C1236 1.363 . S
N1234 C1236 1.356 . S
N1234 H1246 0.984 . S
N1234 H1247 0.985 . S
N1235 C1237 1.356 . S
N1235 H1240 0.984 . S
N1235 H1241 0.985 . S
C1236 C1230 1.379 1_554 S
C1236 C1233 1.363 . S
C1236 N1234 1.356 . S
C1237 C1231 1.363 . S
C1237 C1232 1.379 1_556 S
C1237 N1235 1.356 . S
N1238 C1230 1.356 . S
N1238 H1244 0.984 . S
N1238 H1245 0.984 . S
N1239 C1232 1.356 . S
N1239 H1242 0.984 . S
N1239 H1243 0.985 . S
H1240 N1235 0.984 . S
H1241 N1235 0.985 . S
H1242 N1239 0.984 . S
H1243 N1239 0.985 . S
H1244 N1238 0.984 . S
H1245 N1238 0.984 . S
H1246 N1234 0.984 . S
H1247 N1234 0.985 . S
C529 C94 1.106 . S
C531 C28 1.106 . S
C547 C61 1.106 . S
C549 C127 1.106 . S
C565 C226 1.106 . S
C567 C160 1.106 . S
C583 C259 1.106 . S
C585 C193 1.106 . S
C601 C292 1.106 . S
C603 C358 1.106 . S
C619 C391 1.106 . S
C621 C325 1.106 . S
C637 C490 1.106 . S
C639 C424 1.106 . S
C655 C457 1.106 . S
C657 C523 1.106 . S
C673 N5 1.764 . S
C675 N500 1.764 . S
C691 N401 1.763 . S
C693 N38 1.763 . S
C709 N434 1.763 . S
C711 N71 1.763 . S
C727 N467 1.763 . S
C729 N104 1.763 . S
C745 N302 1.763 . S
C747 N137 1.763 . S
C763 N335 1.763 . S
C765 N170 1.763 . S
C781 N368 1.763 . S
C783 N203 1.763 . S
C799 N269 1.764 . S
C801 N236 1.764 . S
C817 C17 1.521 . S
C819 C107 1.590 . S
C835 C8 1.590 . S
C837 C50 1.521 . S
C853 C83 1.521 . S
C855 C41 1.590 . S
C871 C74 1.590 . S
C873 C116 1.521 . S
C889 C173 1.590 . S
C891 C149 1.521 . S
C907 C182 1.521 . S
C909 C206 1.590 . S
C925 C239 1.590 . S
C927 C215 1.521 . S
C943 C140 1.590 . S
C945 C248 1.521 . S
C961 C281 1.521 . S
C963 C371 1.590 . S
C979 C272 1.590 . S
C981 C314 1.521 . S
C997 C347 1.521 . S
C999 C305 1.590 . S
C1015 C380 1.521 . S
C1017 C338 1.590 . S
C1033 C413 1.521 . S
C1035 C437 1.590 . S
C1051 C470 1.590 . S
C1053 C446 1.521 . S
C1069 C503 1.590 . S
C1071 C479 1.521 . S
C1087 C512 1.521 . S
C1089 C404 1.590 . S
C1105 N14 1.538 1_655 S
C1107 N212 1.538 1_455 S
C1123 N245 1.538 1_545 S
C1125 N47 1.538 1_565 S
C1141 N146 1.538 1_655 S
C1143 N80 1.538 1_455 S
C1159 N179 1.538 1_565 S
C1161 N113 1.538 1_545 S
C1177 N278 1.538 . S
C1179 N476 1.538 . S
C1195 N509 1.538 . S
C1197 N311 1.538 . S
C1213 N410 1.538 . S
C1215 N344 1.538 . S
C1231 N377 1.538 . S
C1233 N443 1.538 . S
