# Generated by pormake.
# Topology uon, (4)-cn, num edge types: 1
# Building blocks:
#     Node 0, Type 0, BuildingBlock: NAWXER_clean_sbu_0, # of connection points: 4
#     Node 1, Type 0, BuildingBlock: NAWXER_clean_sbu_0, # of connection points: 4
#     Node 2, Type 0, BuildingBlock: NAWXER_clean_sbu_0, # of connection points: 4
#     Node 3, Type 0, BuildingBlock: NAWXER_clean_sbu_0, # of connection points: 4
#     Node 4, Type 0, BuildingBlock: NAWXER_clean_sbu_0, # of connection points: 4
#     Node 5, Type 0, BuildingBlock: NAWXER_clean_sbu_0, # of connection points: 4
#     Edge 6, Type (0, 0), BuildingBlock: FUNLAD_clean_linker_0, # of connection points: 2
#     Edge 7, Type (0, 0), BuildingBlock: FUNLAD_clean_linker_0, # of connection points: 2
#     Edge 8, Type (0, 0), BuildingBlock: FUNLAD_clean_linker_0, # of connection points: 2
#     Edge 9, Type (0, 0), BuildingBlock: FUNLAD_clean_linker_0, # of connection points: 2
#     Edge 10, Type (0, 0), BuildingBlock: FUNLAD_clean_linker_0, # of connection points: 2
#     Edge 11, Type (0, 0), BuildingBlock: FUNLAD_clean_linker_0, # of connection points: 2
#     Edge 12, Type (0, 0), BuildingBlock: FUNLAD_clean_linker_0, # of connection points: 2
#     Edge 13, Type (0, 0), BuildingBlock: FUNLAD_clean_linker_0, # of connection points: 2
#     Edge 14, Type (0, 0), BuildingBlock: FUNLAD_clean_linker_0, # of connection points: 2
#     Edge 15, Type (0, 0), BuildingBlock: FUNLAD_clean_linker_0, # of connection points: 2
#     Edge 16, Type (0, 0), BuildingBlock: FUNLAD_clean_linker_0, # of connection points: 2
#     Edge 17, Type (0, 0), BuildingBlock: FUNLAD_clean_linker_0, # of connection points: 2
# Relax obj value: 0.135
# Max RMSD: 0.134
# Mean RMSD: 0.134
data_MOF--net-uon--node1-NAWXER_clean_sbu_0--edge1-FUNLAD_clean_linker_0
_symmetry_space_group_name_H-M    P1
_symmetry_Int_Tables_number       1
_symmetry_cell_setting            triclinic
loop_
_symmetry_equiv_pos_as_xyz
'x, y, z'
_cell_length_a     39.4746
_cell_length_b     39.292471
_cell_length_c     24.776951
_cell_angle_alpha  89.852966
_cell_angle_beta   90.381364
_cell_angle_gamma 120.00166
loop_
_atom_site_label
_atom_site_type_symbol
_atom_site_fract_x
_atom_site_fract_y
_atom_site_fract_z
_atom_type_partial_charge
C0 C 0.18285 0.36563 0.10664 0.0
C1 C 0.29245 0.4671 1.00051 0.0
O2 O 0.21845 0.38372 0.12239 0.0
Zn3 Zn 0.2395 0.41751 0.05862 0.0
O4 O 0.17343 0.37458 0.06145 0.0
Zn5 Zn 0.199 0.41369 0.9954 0.0
O6 O 0.18726 0.37652 0.93589 0.0
O7 O 0.2272 0.37489 0.99757 0.0
O8 O 0.25842 0.45397 0.97968 0.0
O9 O 0.29565 0.45468 0.04676 0.0
O10 O 0.21534 0.45439 0.07013 0.0
O11 O 0.17576 0.44761 1.00265 0.0
C12 C 0.20761 0.36187 0.95368 0.0
C13 C 0.19156 0.46335 0.04767 0.0
C14 C 0.83501 0.19693 0.49836 0.0
C15 C 0.83854 0.3052 0.3922 0.0
O16 O 0.84717 0.23159 0.51626 0.0
Zn17 Zn 0.83773 0.25298 0.4497 0.0
O18 O 0.82208 0.18829 0.44991 0.0
Zn19 Zn 0.8117 0.2137 0.38057 0.0
O20 O 0.84663 0.20934 0.32866 0.0
O21 O 0.87803 0.25037 0.39567 0.0
O22 O 0.82493 0.27243 0.36717 0.0
O23 O 0.84869 0.30746 0.44157 0.0
O24 O 0.77628 0.22083 0.44869 0.0
O25 O 0.75386 0.18327 0.37643 0.0
C26 C 0.87873 0.23333 0.35201 0.0
C27 C 0.7474 0.19533 0.42079 0.0
C28 C 0.65822 0.87087 0.68977 0.0
C29 C 0.56009 0.74243 0.76372 0.0
O30 O 0.65043 0.83759 0.6707 0.0
Zn31 Zn 0.60756 0.80496 0.71997 0.0
O32 O 0.63805 0.87229 0.72909 0.0
Zn33 Zn 0.59082 0.83426 0.7798 0.0
O34 O 0.61622 0.84652 0.85108 0.0
O35 O 0.63835 0.81838 0.79505 0.0
O36 O 0.56178 0.77246 0.78626 0.0
O37 O 0.58033 0.74683 0.72169 0.0
O38 O 0.56356 0.81705 0.69331 0.0
O39 O 0.54932 0.84558 0.7587 0.0
C40 C 0.63923 0.83331 0.84126 0.0
C41 C 0.54381 0.8325 0.71055 0.0
C42 C 0.78333 0.65214 0.03336 0.0
C43 C 0.80446 0.5535 0.12268 0.0
O44 O 0.80233 0.64108 1.00291 0.0
Zn45 Zn 0.8236 0.5994 1.00854 0.0
O46 O 0.77265 0.63684 0.07975 0.0
Zn47 Zn 0.79361 0.60212 0.07565 0.0
O48 O 0.85655 0.6429 0.07624 0.0
O49 O 0.87927 0.63272 1.00066 0.0
O50 O 0.78611 0.57044 0.13848 0.0
O51 O 0.8196 0.56117 0.07529 0.0
O52 O 0.79679 0.5639 0.94961 0.0
O53 O 0.75685 0.56019 1.01387 0.0
C54 C 0.88549 0.65123 0.04487 0.0
C55 C 0.76224 0.54901 0.96757 0.0
C56 C 0.31202 0.82654 0.36252 0.0
C57 C 0.21196 0.82162 0.23647 0.0
O58 O 0.3183 0.83948 0.31426 0.0
Zn59 Zn 0.26431 0.82559 0.2952 0.0
O60 O 0.27713 0.80996 0.38088 0.0
Zn61 Zn 0.21986 0.79541 0.3571 0.0
O62 O 0.19138 0.73724 0.35631 0.0
O63 O 0.23454 0.76373 0.29098 0.0
O64 O 0.19976 0.80692 0.2833 0.0
O65 O 0.24799 0.83597 0.22465 0.0
O66 O 0.25442 0.86276 0.34685 0.0
O67 O 0.20944 0.82765 0.40734 0.0
C68 C 0.20757 0.73321 0.31433 0.0
C69 C 0.23357 0.86102 0.38728 0.0
C70 C 0.49713 0.29686 0.67708 0.0
C71 C 0.38834 0.18804 0.5767 0.0
O72 O 0.48694 0.29879 0.62876 0.0
Zn73 Zn 0.44293 0.24448 0.62272 0.0
O74 O 0.47835 0.2645 0.70302 0.0
Zn75 Zn 0.43102 0.20641 0.69289 0.0
O76 O 0.45746 0.17501 0.69684 0.0
O77 O 0.47127 0.21108 0.62313 0.0
O78 O 0.39364 0.18009 0.62508 0.0
O79 O 0.41057 0.22233 0.55761 0.0
O80 O 0.40172 0.24368 0.67785 0.0
O81 O 0.39341 0.20424 0.7463 0.0
C82 C 0.47479 0.18581 0.65152 0.0
C83 C 0.38495 0.22785 0.72244 0.0
C84 C 0.21396 0.33186 0.86767 0.0
C85 C 0.21126 0.33128 0.92413 0.0
C86 C 0.22622 0.30823 0.8416 0.0
C87 C 0.23565 0.28352 0.87174 0.0
C88 C 0.22952 0.2806 0.92759 0.0
C89 C 0.21788 0.3045 0.95357 0.0
C90 C 0.25436 0.26243 0.84738 0.0
C91 C 0.27928 0.27731 0.80567 0.0
C92 C 0.30361 0.26099 0.78491 0.0
C93 C 0.32103 0.27392 0.7343 0.0
C94 C 0.34673 0.2625 0.71427 0.0
C95 C 0.3561 0.23788 0.74441 0.0
H96 H 0.30029 0.22572 0.85482 0.0
C97 C 0.33828 0.22423 0.79485 0.0
C98 C 0.31232 0.23572 0.81505 0.0
H99 H 0.34494 0.20533 0.81912 0.0
H100 H 0.20897 0.3522 0.84407 0.0
H101 H 0.22931 0.31021 0.79816 0.0
H102 H 0.23598 0.26147 0.9517 0.0
H103 H 0.21565 0.30321 0.99719 0.0
H104 H 0.25028 0.23616 0.86768 0.0
H105 H 0.28346 0.30402 0.78647 0.0
H106 H 0.31514 0.29347 0.71022 0.0
H107 H 0.35964 0.27356 0.6751 0.0
C108 C 0.92121 0.22886 0.2795 0.0
C109 C 0.9174 0.24291 0.32989 0.0
C110 C 0.95845 0.24056 0.25854 0.0
C111 C 0.99254 0.26644 0.28784 0.0
C112 C 0.98844 0.27963 0.33853 0.0
C113 C 0.95152 0.26797 0.35936 0.0
C114 C 0.03278 0.28333 0.2657 0.0
C115 C 0.04271 0.26744 0.225 0.0
C116 C 0.08156 0.28861 0.19824 0.0
C117 C 0.08341 0.28222 0.14301 0.0
C118 C 0.11753 0.30575 0.11412 0.0
C119 C 0.1509 0.33574 0.14001 0.0
H120 H 0.11602 0.32141 0.26814 0.0
C121 C 0.15041 0.33996 0.19617 0.0
C122 C 0.11592 0.31663 0.22513 0.0
H123 H 0.17576 0.36283 0.21707 0.0
H124 H 0.89555 0.20966 0.25572 0.0
H125 H 0.96022 0.2304 0.21871 0.0
H126 H 1.01402 0.29966 0.36193 0.0
H127 H 0.94991 0.27932 0.39846 0.0
H128 H 0.05487 0.31115 0.28281 0.0
H129 H 0.02077 0.23985 0.20722 0.0
H130 H 0.05768 0.26053 0.12139 0.0
H131 H 0.11724 0.30162 0.07085 0.0
C132 C 0.83155 0.13231 0.50846 0.0
C133 C 0.83171 0.16466 0.5329 0.0
C134 C 0.81969 0.09754 0.53706 0.0
C135 C 0.80706 0.09403 0.59076 0.0
C136 C 0.81039 0.12751 0.61654 0.0
C137 C 0.8226 0.16256 0.58788 0.0
C138 C 0.78815 0.05568 0.61998 0.0
C139 C 0.76971 0.02038 0.59469 0.0
C140 C 0.74453 0.98212 0.62243 0.0
C141 C 0.73411 0.94679 0.59511 0.0
C142 C 0.70711 0.91031 0.61739 0.0
C143 C 0.6896 0.90851 0.66725 0.0
H144 H 0.73384 1.00619 0.69517 0.0
C145 C 0.70081 0.94378 0.69513 0.0
C146 C 0.72775 0.98003 0.67309 0.0
H147 H 0.68801 0.94359 0.73375 0.0
H148 H 0.8391 0.13333 0.46628 0.0
H149 H 0.81951 0.07329 0.51627 0.0
H150 H 0.80146 0.1259 0.65816 0.0
H151 H 0.82237 0.18698 0.60772 0.0
H152 H 0.78694 0.05699 0.66359 0.0
H153 H 0.77103 0.01911 0.55109 0.0
H154 H 0.74628 0.94742 0.55581 0.0
H155 H 0.69908 0.88374 0.59483 0.0
C156 C 0.75156 0.69331 0.0467 0.0
C157 C 0.77317 0.68179 1.0141 0.0
C158 C 0.74057 0.72004 0.02765 0.0
C159 C 0.75101 0.73597 0.97534 0.0
C160 C 0.7732 0.72487 0.94333 0.0
C161 C 0.78416 0.69822 0.96237 0.0
C162 C 0.73813 0.76251 0.95094 0.0
C163 C 0.71832 0.77751 0.9766 0.0
C164 C 0.70249 0.79991 0.94739 0.0
C165 C 0.6675 0.79747 0.96496 0.0
C166 C 0.64839 0.81239 0.93302 0.0
C167 C 0.66416 0.83004 0.88314 0.0
H168 H 0.74804 0.82578 0.88667 0.0
C169 C 0.70094 0.83588 0.86825 0.0
C170 C 0.72016 0.82143 0.90027 0.0
H171 H 0.71379 0.84962 0.83004 0.0
H172 H 0.74261 0.68125 0.08684 0.0
H173 H 0.72335 0.72728 0.05388 0.0
H174 H 0.78175 0.7365 0.90289 0.0
H175 H 0.80086 0.69014 0.93614 0.0
H176 H 0.74397 0.76846 0.90818 0.0
H177 H 0.71058 0.77079 0.01871 0.0
H178 H 0.65354 0.78164 1.00156 0.0
H179 H 0.61982 0.80709 0.94506 0.0
C180 C 0.9583 0.68791 0.0298 0.0
C181 C 0.92584 0.68168 0.0606 0.0
C182 C 0.99642 0.71566 0.04593 0.0
C183 C 1.00291 0.7379 0.0933 0.0
C184 C 0.97034 0.73238 0.12304 0.0
C185 C 0.93235 0.70452 0.10715 0.0
C186 C 0.04274 0.76644 0.11432 0.0
C187 C 0.07567 0.76554 0.10231 0.0
C188 C 0.11352 0.78836 0.13245 0.0
C189 C 0.14747 0.78966 0.11229 0.0
C190 C 0.18159 0.80435 0.14398 0.0
C191 C 0.18214 0.81763 0.19666 0.0
H192 H 0.09044 0.80398 0.20204 0.0
C193 C 0.14934 0.81901 0.21529 0.0
C194 C 0.11551 0.80461 0.18381 0.0
H195 H 0.14893 0.82893 0.25594 0.0
H196 H 0.95433 0.67103 0.99344 0.0
H197 H 0.02048 0.71958 0.02099 0.0
H198 H 0.97429 0.74913 0.15954 0.0
H199 H 0.90809 0.70076 0.13167 0.0
H200 H 0.04401 0.78724 0.14401 0.0
H201 H 0.07451 0.74513 0.07197 0.0
H202 H 0.14696 0.77735 0.07301 0.0
H203 H 0.20626 0.8024 0.12893 0.0
C204 C 0.32712 0.12335 0.56958 0.0
C205 C 0.3584 0.15542 0.54358 0.0
C206 C 0.30317 0.08846 0.54176 0.0
C207 C 0.31031 0.08456 0.48724 0.0
C208 C 0.33957 0.11775 0.46012 0.0
C209 C 0.36347 0.15291 0.48802 0.0
C210 C 0.28958 0.0461 0.45831 0.0
C211 C 0.27365 1.01089 0.48371 0.0
C212 C 0.25936 0.9724 0.45577 0.0
C213 C 0.23658 0.93727 0.48462 0.0
C214 C 0.22654 0.90066 0.462 0.0
C215 C 0.2395 0.89851 0.41016 0.0
H216 H 0.28925 0.99581 0.37952 0.0
C217 C 0.26111 0.93351 0.3807 0.0
C218 C 0.271 0.96988 0.4031 0.0
H219 H 0.2715 0.93302 0.34051 0.0
H220 H 0.32204 0.12468 0.61225 0.0
H221 H 0.27983 0.06443 0.56368 0.0
H222 H 0.34536 0.11584 0.41789 0.0
H223 H 0.38735 0.17711 0.46695 0.0
H224 H 0.29037 0.04726 0.4146 0.0
H225 H 0.27293 1.00991 0.52745 0.0
H226 H 0.22736 0.93821 0.52541 0.0
H227 H 0.20994 0.87431 0.4858 0.0
C228 C 0.20409 0.69359 0.23416 0.0
C229 C 0.19472 0.69449 0.28866 0.0
C230 C 0.19453 0.65831 0.2087 0.0
C231 C 0.17514 0.62258 0.23692 0.0
C232 C 0.16517 0.62322 0.29129 0.0
C233 C 0.17446 0.65882 0.31684 0.0
C234 C 0.16896 0.58532 0.21206 0.0
C235 C 0.16689 0.57924 0.15809 0.0
C236 C 0.16957 0.54649 0.13197 0.0
C237 C 0.15699 0.53614 0.07811 0.0
C238 C 0.16311 0.50848 0.05057 0.0
C239 C 0.18258 0.49112 0.07616 0.0
H240 H 0.19943 0.53612 0.19852 0.0
C241 C 0.19456 0.50109 0.13027 0.0
C242 C 0.1882 0.52833 0.15777 0.0
H243 H 0.20953 0.48824 0.15151 0.0
H244 H 0.21946 0.72044 0.21092 0.0
H245 H 0.20392 0.65956 0.16746 0.0
H246 H 0.15065 0.59618 0.31426 0.0
H247 H 0.16687 0.65854 0.35883 0.0
H248 H 0.16744 0.56291 0.23928 0.0
H249 H 0.16442 0.59983 0.13133 0.0
H250 H 0.14296 0.54999 0.05696 0.0
H251 H 0.15352 0.50147 1.00898 0.0
C252 C 0.50485 0.17188 0.57309 0.0
C253 C 0.49876 0.16987 0.62916 0.0
C254 C 0.53144 0.16254 0.5506 0.0
C255 C 0.55279 0.15069 0.58361 0.0
C256 C 0.54517 0.14665 0.63951 0.0
C257 C 0.51821 0.15591 0.66212 0.0
C258 C 0.58648 0.14759 0.5624 0.0
C259 C 0.59422 0.1472 0.50928 0.0
C260 C 0.63304 0.15554 0.48847 0.0
C261 C 0.63651 0.14596 0.43476 0.0
C262 C 0.67341 0.1578 0.41235 0.0
C263 C 0.70754 0.17998 0.44315 0.0
H264 H 0.66651 0.18623 0.5601 0.0
C265 C 0.70383 0.18878 0.49708 0.0
C266 C 0.66731 0.17693 0.51934 0.0
H267 H 0.72939 0.20565 0.52234 0.0
H268 H 0.48996 0.1821 0.54637 0.0
H269 H 0.53642 0.16684 0.50767 0.0
H270 H 0.56128 0.13779 0.6661 0.0
H271 H 0.51413 0.15406 0.70543 0.0
H272 H 0.60705 0.14819 0.59221 0.0
H273 H 0.57224 0.14266 0.47925 0.0
H274 H 0.61065 0.12996 0.40973 0.0
H275 H 0.67524 0.15052 0.37075 0.0
C276 C 0.51321 0.66908 0.76454 0.0
C277 C 0.53777 0.70433 0.79185 0.0
C278 C 0.48827 0.63493 0.79389 0.0
C279 C 0.48804 0.63562 0.85092 0.0
C280 C 0.51467 0.67029 0.87763 0.0
C281 C 0.53886 0.70426 0.84857 0.0
C282 C 0.4595 0.60193 0.88443 0.0
C283 C 0.42299 0.57623 0.86737 0.0
C284 C 0.39099 0.54769 0.90322 0.0
C285 C 0.35238 0.5322 0.88489 0.0
C286 C 0.32093 0.50661 0.91691 0.0
C287 C 0.32696 0.49528 0.96841 0.0
H288 H 0.42661 0.54662 0.97003 0.0
C289 C 0.3656 0.51021 0.98688 0.0
C290 C 0.39736 0.53615 0.95462 0.0
H291 H 0.37131 0.50175 0.02604 0.0
H292 H 0.51201 0.66836 0.72085 0.0
H293 H 0.46892 0.60837 0.77187 0.0
H294 H 0.51557 0.67169 0.92133 0.0
H295 H 0.55797 0.73094 0.87071 0.0
H296 H 0.46726 0.60168 0.92646 0.0
H297 H 0.41477 0.57877 0.82627 0.0
H298 H 0.34634 0.54032 0.84566 0.0
H299 H 0.29169 0.49566 0.90087 0.0
C300 C 0.829 0.50663 0.14255 0.0
C301 C 0.80918 0.52609 0.15938 0.0
C302 C 0.8339 0.48132 0.17761 0.0
C303 C 0.81928 0.47501 0.23079 0.0
C304 C 0.7993 0.49439 0.24727 0.0
C305 C 0.79435 0.51958 0.2122 0.0
C306 C 0.82266 0.44754 0.26969 0.0
C307 C 0.84527 0.43121 0.26193 0.0
C308 C 0.84505 0.40068 0.29801 0.0
C309 C 0.85181 0.37213 0.27477 0.0
C310 C 0.85031 0.3418 0.30594 0.0
C311 C 0.84299 0.33968 0.36164 0.0
H312 H 0.8342 0.42138 0.37362 0.0
C313 C 0.83791 0.36914 0.38577 0.0
C314 C 0.83857 0.39926 0.35412 0.0
H315 H 0.83226 0.36823 0.42862 0.0
H316 H 0.84067 0.5108 0.1021 0.0
H317 H 0.84865 0.46656 0.1621 0.0
H318 H 0.78741 0.49006 0.28761 0.0
H319 H 0.77891 0.53404 0.22668 0.0
H320 H 0.80477 0.43968 0.30573 0.0
H321 H 0.86293 0.43814 0.22593 0.0
H322 H 0.85726 0.37266 0.23187 0.0
H323 H 0.85471 0.31975 0.2862 0.0
C324 C 0.33543 0.81807 0.45298 0.0
C325 C 0.34406 0.83091 0.39908 0.0
C326 C 0.36472 0.82189 0.48859 0.0
C327 C 0.40373 0.83889 0.4715 0.0
C328 C 0.41243 0.85144 0.4175 0.0
C329 C 0.38299 0.84774 0.38172 0.0
C330 C 0.43528 0.84155 0.508 0.0
C331 C 0.43353 0.84185 0.56255 0.0
C332 C 0.46315 0.84083 0.59939 0.0
C333 C 0.46589 0.85315 0.65337 0.0
C334 C 0.49206 0.85075 0.68975 0.0
C335 C 0.51578 0.8355 0.67305 0.0
H336 H 0.48495 0.81448 0.54235 0.0
C337 C 0.51281 0.82298 0.61912 0.0
C338 C 0.48688 0.82552 0.58286 0.0
H339 H 0.53044 0.81089 0.60467 0.0
H340 H 0.30579 0.80473 0.46796 0.0
H341 H 0.35629 0.81053 0.52908 0.0
H342 H 0.44214 0.8642 0.40292 0.0
H343 H 0.3907 0.85786 0.34053 0.0
H344 H 0.46099 0.84385 0.48886 0.0
H345 H 0.40963 0.84339 0.58154 0.0
H346 H 0.44767 0.86465 0.66752 0.0
H347 H 0.4935 0.8606 0.73092 0.0
C348 C 0.53852 0.3275 0.75916 0.0
C349 C 0.53025 0.33103 0.70473 0.0
C350 C 0.56963 0.35864 0.78631 0.0
C351 C 0.59343 0.39457 0.76002 0.0
C352 C 0.58554 0.39813 0.70542 0.0
C353 C 0.55412 0.3668 0.6781 0.0
C354 C 0.62763 0.4278 0.78796 0.0
C355 C 0.62952 0.43291 0.8421 0.0
C356 C 0.66403 0.46411 0.87208 0.0
C357 C 0.65864 0.4737 0.92476 0.0
C358 C 0.69036 0.50127 0.95563 0.0
C359 C 0.72849 0.5197 0.93482 0.0
H360 H 0.70792 0.47539 0.81136 0.0
C361 C 0.73401 0.51006 0.88213 0.0
C362 C 0.70221 0.48261 0.85111 0.0
H363 H 0.76299 0.5236 0.86478 0.0
H364 H 0.52109 0.30037 0.78109 0.0
H365 H 0.57537 0.35395 0.82762 0.0
H366 H 0.60366 0.42527 0.68387 0.0
H367 H 0.54876 0.37049 0.63616 0.0
H368 H 0.65133 0.44895 0.76292 0.0
H369 H 0.60409 0.41377 0.86616 0.0
H370 H 0.62968 0.45972 0.94228 0.0
H371 H 0.68495 0.5079 0.99599 0.0
loop_
_geom_bond_atom_site_label_1
_geom_bond_atom_site_label_2
_geom_bond_distance
_geom_bond_site_symmetry_2
_ccdc_geom_bond_type
C0 O2 1.247 . S
C0 O4 1.258 . S
C1 O8 1.247 . S
C1 O9 1.258 1_556 S
O2 C0 1.247 . S
O2 Zn3 2.028 . S
Zn3 O2 2.028 . S
Zn3 O7 2.035 . S
Zn3 O9 2.035 . S
Zn3 O10 2.028 . S
O4 C0 1.258 . S
O4 Zn5 2.035 1_554 S
Zn5 O4 2.035 1_556 S
Zn5 O6 2.028 . S
Zn5 O8 2.028 . S
Zn5 O11 2.035 1_556 S
O6 Zn5 2.028 . S
O6 C12 1.247 . S
O7 Zn3 2.035 . S
O7 C12 1.258 1_554 S
O8 C1 1.247 . S
O8 Zn5 2.028 . S
O9 C1 1.258 1_554 S
O9 Zn3 2.035 . S
O10 Zn3 2.028 . S
O10 C13 1.247 . S
O11 Zn5 2.035 1_554 S
O11 C13 1.258 . S
C12 O6 1.247 . S
C12 O7 1.258 1_556 S
C13 O10 1.247 . S
C13 O11 1.258 . S
C14 O16 1.247 . S
C14 O18 1.258 . S
C15 O22 1.247 . S
C15 O23 1.258 . S
O16 C14 1.247 . S
O16 Zn17 2.028 . S
Zn17 O16 2.028 . S
Zn17 O21 2.035 . S
Zn17 O23 2.035 . S
Zn17 O24 2.028 . S
O18 C14 1.258 . S
O18 Zn19 2.035 . S
Zn19 O18 2.035 . S
Zn19 O20 2.028 . S
Zn19 O22 2.028 . S
Zn19 O25 2.035 . S
O20 Zn19 2.028 . S
O20 C26 1.247 . S
O21 Zn17 2.035 . S
O21 C26 1.258 . S
O22 C15 1.247 . S
O22 Zn19 2.028 . S
O23 C15 1.258 . S
O23 Zn17 2.035 . S
O24 Zn17 2.028 . S
O24 C27 1.247 . S
O25 Zn19 2.035 . S
O25 C27 1.258 . S
C26 O20 1.247 . S
C26 O21 1.258 . S
C27 O24 1.247 . S
C27 O25 1.258 . S
C28 O30 1.247 . S
C28 O32 1.258 . S
C29 O36 1.247 . S
C29 O37 1.258 . S
O30 C28 1.247 . S
O30 Zn31 2.028 . S
Zn31 O30 2.028 . S
Zn31 O35 2.035 . S
Zn31 O37 2.035 . S
Zn31 O38 2.028 . S
O32 C28 1.258 . S
O32 Zn33 2.035 . S
Zn33 O32 2.035 . S
Zn33 O34 2.028 . S
Zn33 O36 2.028 . S
Zn33 O39 2.035 . S
O34 Zn33 2.028 . S
O34 C40 1.247 . S
O35 Zn31 2.035 . S
O35 C40 1.258 . S
O36 C29 1.247 . S
O36 Zn33 2.028 . S
O37 C29 1.258 . S
O37 Zn31 2.035 . S
O38 Zn31 2.028 . S
O38 C41 1.247 . S
O39 Zn33 2.035 . S
O39 C41 1.258 . S
C40 O34 1.247 . S
C40 O35 1.258 . S
C41 O38 1.247 . S
C41 O39 1.258 . S
C42 O44 1.247 . S
C42 O46 1.258 1_556 S
C43 O50 1.247 . S
C43 O51 1.258 . S
O44 C42 1.247 . S
O44 Zn45 2.028 . S
Zn45 O44 2.028 . S
Zn45 O49 2.035 1_556 S
Zn45 O51 2.035 1_556 S
Zn45 O52 2.028 . S
O46 C42 1.258 1_554 S
O46 Zn47 2.035 . S
Zn47 O46 2.035 . S
Zn47 O48 2.028 . S
Zn47 O50 2.028 . S
Zn47 O53 2.035 . S
O48 Zn47 2.028 . S
O48 C54 1.247 . S
O49 Zn45 2.035 1_554 S
O49 C54 1.258 . S
O50 C43 1.247 . S
O50 Zn47 2.028 . S
O51 C43 1.258 . S
O51 Zn45 2.035 1_554 S
O52 Zn45 2.028 . S
O52 C55 1.247 . S
O53 Zn47 2.035 . S
O53 C55 1.258 1_554 S
C54 O48 1.247 . S
C54 O49 1.258 . S
C55 O52 1.247 . S
C55 O53 1.258 1_556 S
C56 O58 1.247 . S
C56 O60 1.258 . S
C57 O64 1.247 . S
C57 O65 1.258 . S
O58 C56 1.247 . S
O58 Zn59 2.028 . S
Zn59 O58 2.028 . S
Zn59 O63 2.035 . S
Zn59 O65 2.035 . S
Zn59 O66 2.028 . S
O60 C56 1.258 . S
O60 Zn61 2.035 . S
Zn61 O60 2.035 . S
Zn61 O62 2.028 . S
Zn61 O64 2.028 . S
Zn61 O67 2.035 . S
O62 Zn61 2.028 . S
O62 C68 1.247 . S
O63 Zn59 2.035 . S
O63 C68 1.258 . S
O64 C57 1.247 . S
O64 Zn61 2.028 . S
O65 C57 1.258 . S
O65 Zn59 2.035 . S
O66 Zn59 2.028 . S
O66 C69 1.247 . S
O67 Zn61 2.035 . S
O67 C69 1.258 . S
C68 O62 1.247 . S
C68 O63 1.258 . S
C69 O66 1.247 . S
C69 O67 1.258 . S
C70 O72 1.247 . S
C70 O74 1.258 . S
C71 O78 1.247 . S
C71 O79 1.258 . S
O72 C70 1.247 . S
O72 Zn73 2.028 . S
Zn73 O72 2.028 . S
Zn73 O77 2.035 . S
Zn73 O79 2.035 . S
Zn73 O80 2.028 . S
O74 C70 1.258 . S
O74 Zn75 2.035 . S
Zn75 O74 2.035 . S
Zn75 O76 2.028 . S
Zn75 O78 2.028 . S
Zn75 O81 2.035 . S
O76 Zn75 2.028 . S
O76 C82 1.247 . S
O77 Zn73 2.035 . S
O77 C82 1.258 . S
O78 C71 1.247 . S
O78 Zn75 2.028 . S
O79 C71 1.258 . S
O79 Zn73 2.035 . S
O80 Zn73 2.028 . S
O80 C83 1.247 . S
O81 Zn75 2.035 . S
O81 C83 1.258 . S
C82 O76 1.247 . S
C82 O77 1.258 . S
C83 O80 1.247 . S
C83 O81 1.258 . S
C84 C85 1.386 . S
C84 C86 1.383 . S
C84 H100 0.951 . S
C85 C84 1.386 . S
C85 C89 1.383 . S
C86 C84 1.383 . S
C86 C87 1.402 . S
C86 H101 0.951 . S
C87 C86 1.402 . S
C87 C88 1.375 . S
C87 C90 1.481 . S
C88 C87 1.375 . S
C88 C89 1.367 . S
C88 H102 0.951 . S
C89 C85 1.383 . S
C89 C88 1.367 . S
C89 H103 0.950 . S
C90 C87 1.481 . S
C90 C91 1.297 . S
C90 H104 0.950 . S
C91 C90 1.297 . S
C91 C92 1.479 . S
C91 H105 0.950 . S
C92 C91 1.479 . S
C92 C93 1.375 . S
C92 C98 1.404 . S
C93 C92 1.375 . S
C93 C94 1.369 . S
C93 H106 0.950 . S
C94 C93 1.369 . S
C94 C95 1.392 . S
C94 H107 0.951 . S
C95 C94 1.392 . S
C95 C97 1.384 . S
H96 C98 0.949 . S
C97 C95 1.384 . S
C97 C98 1.385 . S
C97 H99 0.950 . S
C98 C92 1.404 . S
C98 H96 0.949 . S
C98 C97 1.385 . S
H99 C97 0.950 . S
H100 C84 0.951 . S
H101 C86 0.951 . S
H102 C88 0.951 . S
H103 C89 0.950 . S
H104 C90 0.950 . S
H105 C91 0.950 . S
H106 C93 0.950 . S
H107 C94 0.951 . S
C108 C109 1.386 . S
C108 C110 1.383 . S
C108 H124 0.951 . S
C109 C108 1.386 . S
C109 C113 1.383 . S
C110 C108 1.383 . S
C110 C111 1.402 . S
C110 H125 0.951 . S
C111 C110 1.402 . S
C111 C112 1.375 . S
C111 C114 1.481 . S
C112 C111 1.375 . S
C112 C113 1.367 . S
C112 H126 0.951 . S
C113 C109 1.383 . S
C113 C112 1.367 . S
C113 H127 0.950 . S
C114 C111 1.481 . S
C114 C115 1.297 1_655 S
C114 H128 0.950 1_655 S
C115 C114 1.297 1_455 S
C115 C116 1.479 . S
C115 H129 0.950 1_455 S
C116 C115 1.479 . S
C116 C117 1.375 . S
C116 C122 1.404 . S
C117 C116 1.375 . S
C117 C118 1.369 . S
C117 H130 0.950 . S
C118 C117 1.369 . S
C118 C119 1.392 . S
C118 H131 0.951 . S
C119 C118 1.392 . S
C119 C121 1.384 . S
H120 C122 0.949 . S
C121 C119 1.384 . S
C121 C122 1.385 . S
C121 H123 0.950 . S
C122 C116 1.404 . S
C122 H120 0.949 . S
C122 C121 1.385 . S
H123 C121 0.950 . S
H124 C108 0.951 . S
H125 C110 0.951 . S
H126 C112 0.951 . S
H127 C113 0.950 . S
H128 C114 0.950 1_455 S
H129 C115 0.950 1_655 S
H130 C117 0.950 . S
H131 C118 0.951 . S
C132 C133 1.386 . S
C132 C134 1.383 . S
C132 H148 0.951 . S
C133 C132 1.386 . S
C133 C137 1.383 . S
C134 C132 1.383 . S
C134 C135 1.402 . S
C134 H149 0.951 . S
C135 C134 1.402 . S
C135 C136 1.375 . S
C135 C138 1.481 . S
C136 C135 1.375 . S
C136 C137 1.367 . S
C136 H150 0.951 . S
C137 C133 1.383 . S
C137 C136 1.367 . S
C137 H151 0.950 . S
C138 C135 1.481 . S
C138 C139 1.297 1_545 S
C138 H152 0.950 . S
C139 C138 1.297 1_565 S
C139 C140 1.479 . S
C139 H153 0.950 . S
C140 C139 1.479 . S
C140 C141 1.375 . S
C140 C146 1.404 . S
C141 C140 1.375 . S
C141 C142 1.369 . S
C141 H154 0.950 . S
C142 C141 1.369 . S
C142 C143 1.392 . S
C142 H155 0.951 . S
C143 C142 1.392 . S
C143 C145 1.384 . S
H144 C146 0.949 . S
C145 C143 1.384 . S
C145 C146 1.385 . S
C145 H147 0.950 . S
C146 C140 1.404 . S
C146 H144 0.949 . S
C146 C145 1.385 . S
H147 C145 0.950 . S
H148 C132 0.951 . S
H149 C134 0.951 . S
H150 C136 0.951 . S
H151 C137 0.950 . S
H152 C138 0.950 . S
H153 C139 0.950 . S
H154 C141 0.950 . S
H155 C142 0.951 . S
C156 C157 1.386 . S
C156 C158 1.383 . S
C156 H172 0.951 . S
C157 C156 1.386 . S
C157 C161 1.383 . S
C158 C156 1.383 . S
C158 C159 1.402 . S
C158 H173 0.951 . S
C159 C158 1.402 . S
C159 C160 1.375 . S
C159 C162 1.481 . S
C160 C159 1.375 . S
C160 C161 1.367 . S
C160 H174 0.951 . S
C161 C157 1.383 . S
C161 C160 1.367 . S
C161 H175 0.950 . S
C162 C159 1.481 . S
C162 C163 1.297 . S
C162 H176 0.950 . S
C163 C162 1.297 . S
C163 C164 1.479 . S
C163 H177 0.950 . S
C164 C163 1.479 . S
C164 C165 1.375 . S
C164 C170 1.404 . S
C165 C164 1.375 . S
C165 C166 1.369 . S
C165 H178 0.950 . S
C166 C165 1.369 . S
C166 C167 1.392 . S
C166 H179 0.951 . S
C167 C166 1.392 . S
C167 C169 1.384 . S
H168 C170 0.949 . S
C169 C167 1.384 . S
C169 C170 1.385 . S
C169 H171 0.950 . S
C170 C164 1.404 . S
C170 H168 0.949 . S
C170 C169 1.385 . S
H171 C169 0.950 . S
H172 C156 0.951 . S
H173 C158 0.951 . S
H174 C160 0.951 . S
H175 C161 0.950 . S
H176 C162 0.950 . S
H177 C163 0.950 . S
H178 C165 0.950 . S
H179 C166 0.951 . S
C180 C181 1.386 . S
C180 C182 1.383 . S
C180 H196 0.951 . S
C181 C180 1.386 . S
C181 C185 1.383 . S
C182 C180 1.383 . S
C182 C183 1.402 . S
C182 H197 0.951 . S
C183 C182 1.402 . S
C183 C184 1.375 . S
C183 C186 1.481 . S
C184 C183 1.375 . S
C184 C185 1.367 . S
C184 H198 0.951 . S
C185 C181 1.383 . S
C185 C184 1.367 . S
C185 H199 0.950 . S
C186 C183 1.481 . S
C186 C187 1.297 1_655 S
C186 H200 0.956 1_655 S
C187 C186 1.297 1_455 S
C187 C188 1.479 . S
C187 H201 0.950 . S
C188 C187 1.479 . S
C188 C189 1.375 . S
C188 C194 1.404 . S
C189 C188 1.375 . S
C189 C190 1.369 . S
C189 H202 0.950 . S
C190 C189 1.369 . S
C190 C191 1.392 . S
C190 H203 0.951 . S
C191 C190 1.392 . S
C191 C193 1.384 . S
H192 C194 0.949 . S
C193 C191 1.384 . S
C193 C194 1.385 . S
C193 H195 0.950 . S
C194 C188 1.404 . S
C194 H192 0.949 . S
C194 C193 1.385 . S
H195 C193 0.950 . S
H196 C180 0.951 . S
H197 C182 0.951 . S
H198 C184 0.951 . S
H199 C185 0.950 . S
H200 C186 0.956 1_455 S
H201 C187 0.950 . S
H202 C189 0.950 . S
H203 C190 0.951 . S
C204 C205 1.386 . S
C204 C206 1.383 . S
C204 H220 0.951 . S
C205 C204 1.386 . S
C205 C209 1.383 . S
C206 C204 1.383 . S
C206 C207 1.402 . S
C206 H221 0.951 . S
C207 C206 1.402 . S
C207 C208 1.375 . S
C207 C210 1.481 . S
C208 C207 1.375 . S
C208 C209 1.367 . S
C208 H222 0.951 . S
C209 C205 1.383 . S
C209 C208 1.367 . S
C209 H223 0.950 . S
C210 C207 1.481 . S
C210 C211 1.297 1_545 S
C210 H224 0.954 1_545 S
C211 C210 1.297 1_565 S
C211 C212 1.479 . S
C211 H225 0.950 . S
C212 C211 1.479 . S
C212 C213 1.375 . S
C212 C218 1.404 . S
C213 C212 1.375 . S
C213 C214 1.369 . S
C213 H226 0.950 . S
C214 C213 1.369 . S
C214 C215 1.392 . S
C214 H227 0.951 . S
C215 C214 1.392 . S
C215 C217 1.384 . S
H216 C218 0.949 . S
C217 C215 1.384 . S
C217 C218 1.385 . S
C217 H219 0.950 . S
C218 C212 1.404 . S
C218 H216 0.949 . S
C218 C217 1.385 . S
H219 C217 0.950 . S
H220 C204 0.951 . S
H221 C206 0.951 . S
H222 C208 0.951 . S
H223 C209 0.950 . S
H224 C210 0.954 1_565 S
H225 C211 0.950 . S
H226 C213 0.950 . S
H227 C214 0.951 . S
C228 C229 1.386 . S
C228 C230 1.383 . S
C228 H244 0.951 . S
C229 C228 1.386 . S
C229 C233 1.383 . S
C230 C228 1.383 . S
C230 C231 1.402 . S
C230 H245 0.951 . S
C231 C230 1.402 . S
C231 C232 1.375 . S
C231 C234 1.481 . S
C232 C231 1.375 . S
C232 C233 1.367 . S
C232 H246 0.951 . S
C233 C229 1.383 . S
C233 C232 1.367 . S
C233 H247 0.950 . S
C234 C231 1.481 . S
C234 C235 1.297 . S
C234 H248 0.950 . S
C235 C234 1.297 . S
C235 C236 1.479 . S
C235 H249 0.950 . S
C236 C235 1.479 . S
C236 C237 1.375 . S
C236 C242 1.404 . S
C237 C236 1.375 . S
C237 C238 1.369 . S
C237 H250 0.950 . S
C238 C237 1.369 . S
C238 C239 1.392 . S
C238 H251 0.951 . S
C239 C238 1.392 . S
C239 C241 1.384 . S
H240 C242 0.949 . S
C241 C239 1.384 . S
C241 C242 1.385 . S
C241 H243 0.950 . S
C242 C236 1.404 . S
C242 H240 0.949 . S
C242 C241 1.385 . S
H243 C241 0.950 . S
H244 C228 0.951 . S
H245 C230 0.951 . S
H246 C232 0.951 . S
H247 C233 0.950 . S
H248 C234 0.950 . S
H249 C235 0.950 . S
H250 C237 0.950 . S
H251 C238 0.951 . S
C252 C253 1.386 . S
C252 C254 1.383 . S
C252 H268 0.951 . S
C253 C252 1.386 . S
C253 C257 1.383 . S
C254 C252 1.383 . S
C254 C255 1.402 . S
C254 H269 0.951 . S
C255 C254 1.402 . S
C255 C256 1.375 . S
C255 C258 1.481 . S
C256 C255 1.375 . S
C256 C257 1.367 . S
C256 H270 0.951 . S
C257 C253 1.383 . S
C257 C256 1.367 . S
C257 H271 0.950 . S
C258 C255 1.481 . S
C258 C259 1.297 . S
C258 H272 0.950 . S
C259 C258 1.297 . S
C259 C260 1.479 . S
C259 H273 0.950 . S
C260 C259 1.479 . S
C260 C261 1.375 . S
C260 C266 1.404 . S
C261 C260 1.375 . S
C261 C262 1.369 . S
C261 H274 0.950 . S
C262 C261 1.369 . S
C262 C263 1.392 . S
C262 H275 0.951 . S
C263 C262 1.392 . S
C263 C265 1.384 . S
H264 C266 0.949 . S
C265 C263 1.384 . S
C265 C266 1.385 . S
C265 H267 0.950 . S
C266 C260 1.404 . S
C266 H264 0.949 . S
C266 C265 1.385 . S
H267 C265 0.950 . S
H268 C252 0.951 . S
H269 C254 0.951 . S
H270 C256 0.951 . S
H271 C257 0.950 . S
H272 C258 0.950 . S
H273 C259 0.950 . S
H274 C261 0.950 . S
H275 C262 0.951 . S
C276 C277 1.386 . S
C276 C278 1.383 . S
C276 H292 0.951 . S
C277 C276 1.386 . S
C277 C281 1.383 . S
C278 C276 1.383 . S
C278 C279 1.402 . S
C278 H293 0.951 . S
C279 C278 1.402 . S
C279 C280 1.375 . S
C279 C282 1.481 . S
C280 C279 1.375 . S
C280 C281 1.367 . S
C280 H294 0.951 . S
C281 C277 1.383 . S
C281 C280 1.367 . S
C281 H295 0.950 . S
C282 C279 1.481 . S
C282 C283 1.297 . S
C282 H296 0.950 . S
C283 C282 1.297 . S
C283 C284 1.479 . S
C283 H297 0.950 . S
C284 C283 1.479 . S
C284 C285 1.375 . S
C284 C290 1.404 . S
C285 C284 1.375 . S
C285 C286 1.369 . S
C285 H298 0.950 . S
C286 C285 1.369 . S
C286 C287 1.392 . S
C286 H299 0.951 . S
C287 C286 1.392 . S
C287 C289 1.384 . S
H288 C290 0.949 . S
C289 C287 1.384 . S
C289 C290 1.385 . S
C289 H291 0.950 1_556 S
C290 C284 1.404 . S
C290 H288 0.949 . S
C290 C289 1.385 . S
H291 C289 0.950 1_554 S
H292 C276 0.951 . S
H293 C278 0.951 . S
H294 C280 0.951 . S
H295 C281 0.950 . S
H296 C282 0.950 . S
H297 C283 0.950 . S
H298 C285 0.950 . S
H299 C286 0.951 . S
C300 C301 1.386 . S
C300 C302 1.383 . S
C300 H316 0.951 . S
C301 C300 1.386 . S
C301 C305 1.383 . S
C302 C300 1.383 . S
C302 C303 1.402 . S
C302 H317 0.951 . S
C303 C302 1.402 . S
C303 C304 1.375 . S
C303 C306 1.481 . S
C304 C303 1.375 . S
C304 C305 1.367 . S
C304 H318 0.951 . S
C305 C301 1.383 . S
C305 C304 1.367 . S
C305 H319 0.950 . S
C306 C303 1.481 . S
C306 C307 1.297 . S
C306 H320 0.950 . S
C307 C306 1.297 . S
C307 C308 1.479 . S
C307 H321 0.950 . S
C308 C307 1.479 . S
C308 C309 1.375 . S
C308 C314 1.404 . S
C309 C308 1.375 . S
C309 C310 1.369 . S
C309 H322 0.950 . S
C310 C309 1.369 . S
C310 C311 1.392 . S
C310 H323 0.951 . S
C311 C310 1.392 . S
C311 C313 1.384 . S
H312 C314 0.949 . S
C313 C311 1.384 . S
C313 C314 1.385 . S
C313 H315 0.950 . S
C314 C308 1.404 . S
C314 H312 0.949 . S
C314 C313 1.385 . S
H315 C313 0.950 . S
H316 C300 0.951 . S
H317 C302 0.951 . S
H318 C304 0.951 . S
H319 C305 0.950 . S
H320 C306 0.950 . S
H321 C307 0.950 . S
H322 C309 0.950 . S
H323 C310 0.951 . S
C324 C325 1.386 . S
C324 C326 1.383 . S
C324 H340 0.951 . S
C325 C324 1.386 . S
C325 C329 1.383 . S
C326 C324 1.383 . S
C326 C327 1.402 . S
C326 H341 0.951 . S
C327 C326 1.402 . S
C327 C328 1.375 . S
C327 C330 1.481 . S
C328 C327 1.375 . S
C328 C329 1.367 . S
C328 H342 0.951 . S
C329 C325 1.383 . S
C329 C328 1.367 . S
C329 H343 0.950 . S
C330 C327 1.481 . S
C330 C331 1.297 . S
C330 H344 0.950 . S
C331 C330 1.297 . S
C331 C332 1.479 . S
C331 H345 0.950 . S
C332 C331 1.479 . S
C332 C333 1.375 . S
C332 C338 1.404 . S
C333 C332 1.375 . S
C333 C334 1.369 . S
C333 H346 0.950 . S
C334 C333 1.369 . S
C334 C335 1.392 . S
C334 H347 0.951 . S
C335 C334 1.392 . S
C335 C337 1.384 . S
H336 C338 0.949 . S
C337 C335 1.384 . S
C337 C338 1.385 . S
C337 H339 0.950 . S
C338 C332 1.404 . S
C338 H336 0.949 . S
C338 C337 1.385 . S
H339 C337 0.950 . S
H340 C324 0.951 . S
H341 C326 0.951 . S
H342 C328 0.951 . S
H343 C329 0.950 . S
H344 C330 0.950 . S
H345 C331 0.950 . S
H346 C333 0.950 . S
H347 C334 0.951 . S
C348 C349 1.386 . S
C348 C350 1.383 . S
C348 H364 0.951 . S
C349 C348 1.386 . S
C349 C353 1.383 . S
C350 C348 1.383 . S
C350 C351 1.402 . S
C350 H365 0.951 . S
C351 C350 1.402 . S
C351 C352 1.375 . S
C351 C354 1.481 . S
C352 C351 1.375 . S
C352 C353 1.367 . S
C352 H366 0.951 . S
C353 C349 1.383 . S
C353 C352 1.367 . S
C353 H367 0.950 . S
C354 C351 1.481 . S
C354 C355 1.297 . S
C354 H368 0.950 . S
C355 C354 1.297 . S
C355 C356 1.479 . S
C355 H369 0.950 . S
C356 C355 1.479 . S
C356 C357 1.375 . S
C356 C362 1.404 . S
C357 C356 1.375 . S
C357 C358 1.369 . S
C357 H370 0.950 . S
C358 C357 1.369 . S
C358 C359 1.392 . S
C358 H371 0.951 . S
C359 C358 1.392 . S
C359 C361 1.384 . S
H360 C362 0.949 . S
C361 C359 1.384 . S
C361 C362 1.385 . S
C361 H363 0.950 . S
C362 C356 1.404 . S
C362 H360 0.949 . S
C362 C361 1.385 . S
H363 C361 0.950 . S
H364 C348 0.951 . S
H365 C350 0.951 . S
H366 C352 0.951 . S
H367 C353 0.950 . S
H368 C354 0.950 . S
H369 C355 0.950 . S
H370 C357 0.950 . S
H371 C358 0.951 . S
C85 C12 1.385 . S
C95 C83 1.370 . S
C109 C26 1.368 . S
C119 C0 1.354 . S
C133 C14 1.383 . S
C143 C28 1.387 . S
C157 C42 1.392 . S
C167 C40 1.393 . S
C181 C54 1.389 . S
C191 C57 1.378 . S
C205 C71 1.388 . S
C215 C69 1.378 . S
C229 C68 1.482 . S
C239 C13 1.486 . S
C253 C82 1.464 . S
C263 C27 1.447 . S
C277 C29 1.489 . S
C287 C1 1.493 . S
C301 C43 1.487 . S
C311 C15 1.492 . S
C325 C56 1.467 . S
C335 C41 1.460 . S
C349 C70 1.474 . S
C359 C55 1.454 . S
