# Generated by pormake.
# Topology unp, (4)-cn, num edge types: 1
# Building blocks:
#     Node 0, Type 0, BuildingBlock: UXUYUI_clean_sbu_0, # of connection points: 4
#     Node 1, Type 0, BuildingBlock: UXUYUI_clean_sbu_0, # of connection points: 4
#     Node 2, Type 0, BuildingBlock: UXUYUI_clean_sbu_0, # of connection points: 4
#     Node 3, Type 0, BuildingBlock: UXUYUI_clean_sbu_0, # of connection points: 4
#     Node 4, Type 0, BuildingBlock: UXUYUI_clean_sbu_0, # of connection points: 4
#     Node 5, Type 0, BuildingBlock: UXUYUI_clean_sbu_0, # of connection points: 4
#     Node 6, Type 0, BuildingBlock: UXUYUI_clean_sbu_0, # of connection points: 4
#     Node 7, Type 0, BuildingBlock: UXUYUI_clean_sbu_0, # of connection points: 4
#     Node 8, Type 0, BuildingBlock: UXUYUI_clean_sbu_0, # of connection points: 4
#     Node 9, Type 0, BuildingBlock: UXUYUI_clean_sbu_0, # of connection points: 4
#     Node 10, Type 0, BuildingBlock: UXUYUI_clean_sbu_0, # of connection points: 4
#     Node 11, Type 0, BuildingBlock: UXUYUI_clean_sbu_0, # of connection points: 4
#     Node 12, Type 0, BuildingBlock: UXUYUI_clean_sbu_0, # of connection points: 4
#     Node 13, Type 0, BuildingBlock: UXUYUI_clean_sbu_0, # of connection points: 4
#     Node 14, Type 0, BuildingBlock: UXUYUI_clean_sbu_0, # of connection points: 4
#     Node 15, Type 0, BuildingBlock: UXUYUI_clean_sbu_0, # of connection points: 4
#     Node 16, Type 0, BuildingBlock: UXUYUI_clean_sbu_0, # of connection points: 4
#     Node 17, Type 0, BuildingBlock: UXUYUI_clean_sbu_0, # of connection points: 4
#     Edge 18, Type (0, 0), BuildingBlock: TEMPAE_clean_linker_10, # of connection points: 2
#     Edge 19, Type (0, 0), BuildingBlock: TEMPAE_clean_linker_10, # of connection points: 2
#     Edge 20, Type (0, 0), BuildingBlock: TEMPAE_clean_linker_10, # of connection points: 2
#     Edge 21, Type (0, 0), BuildingBlock: TEMPAE_clean_linker_10, # of connection points: 2
#     Edge 22, Type (0, 0), BuildingBlock: TEMPAE_clean_linker_10, # of connection points: 2
#     Edge 23, Type (0, 0), BuildingBlock: TEMPAE_clean_linker_10, # of connection points: 2
#     Edge 24, Type (0, 0), BuildingBlock: TEMPAE_clean_linker_10, # of connection points: 2
#     Edge 25, Type (0, 0), BuildingBlock: TEMPAE_clean_linker_10, # of connection points: 2
#     Edge 26, Type (0, 0), BuildingBlock: TEMPAE_clean_linker_10, # of connection points: 2
#     Edge 27, Type (0, 0), BuildingBlock: TEMPAE_clean_linker_10, # of connection points: 2
#     Edge 28, Type (0, 0), BuildingBlock: TEMPAE_clean_linker_10, # of connection points: 2
#     Edge 29, Type (0, 0), BuildingBlock: TEMPAE_clean_linker_10, # of connection points: 2
#     Edge 30, Type (0, 0), BuildingBlock: TEMPAE_clean_linker_10, # of connection points: 2
#     Edge 31, Type (0, 0), BuildingBlock: TEMPAE_clean_linker_10, # of connection points: 2
#     Edge 32, Type (0, 0), BuildingBlock: TEMPAE_clean_linker_10, # of connection points: 2
#     Edge 33, Type (0, 0), BuildingBlock: TEMPAE_clean_linker_10, # of connection points: 2
#     Edge 34, Type (0, 0), BuildingBlock: TEMPAE_clean_linker_10, # of connection points: 2
#     Edge 35, Type (0, 0), BuildingBlock: TEMPAE_clean_linker_10, # of connection points: 2
#     Edge 36, Type (0, 0), BuildingBlock: TEMPAE_clean_linker_10, # of connection points: 2
#     Edge 37, Type (0, 0), BuildingBlock: TEMPAE_clean_linker_10, # of connection points: 2
#     Edge 38, Type (0, 0), BuildingBlock: TEMPAE_clean_linker_10, # of connection points: 2
#     Edge 39, Type (0, 0), BuildingBlock: TEMPAE_clean_linker_10, # of connection points: 2
#     Edge 40, Type (0, 0), BuildingBlock: TEMPAE_clean_linker_10, # of connection points: 2
#     Edge 41, Type (0, 0), BuildingBlock: TEMPAE_clean_linker_10, # of connection points: 2
#     Edge 42, Type (0, 0), BuildingBlock: TEMPAE_clean_linker_10, # of connection points: 2
#     Edge 43, Type (0, 0), BuildingBlock: TEMPAE_clean_linker_10, # of connection points: 2
#     Edge 44, Type (0, 0), BuildingBlock: TEMPAE_clean_linker_10, # of connection points: 2
#     Edge 45, Type (0, 0), BuildingBlock: TEMPAE_clean_linker_10, # of connection points: 2
#     Edge 46, Type (0, 0), BuildingBlock: TEMPAE_clean_linker_10, # of connection points: 2
#     Edge 47, Type (0, 0), BuildingBlock: TEMPAE_clean_linker_10, # of connection points: 2
#     Edge 48, Type (0, 0), BuildingBlock: TEMPAE_clean_linker_10, # of connection points: 2
#     Edge 49, Type (0, 0), BuildingBlock: TEMPAE_clean_linker_10, # of connection points: 2
#     Edge 50, Type (0, 0), BuildingBlock: TEMPAE_clean_linker_10, # of connection points: 2
#     Edge 51, Type (0, 0), BuildingBlock: TEMPAE_clean_linker_10, # of connection points: 2
#     Edge 52, Type (0, 0), BuildingBlock: TEMPAE_clean_linker_10, # of connection points: 2
#     Edge 53, Type (0, 0), BuildingBlock: TEMPAE_clean_linker_10, # of connection points: 2
# Relax obj value: 0.501
# Max RMSD: 0.229
# Mean RMSD: 0.224
data_MOF--net-unp--node1-UXUYUI_clean_sbu_0--edge1-TEMPAE_clean_linker_10
_symmetry_space_group_name_H-M    P1
_symmetry_Int_Tables_number       1
_symmetry_cell_setting            triclinic
loop_
_symmetry_equiv_pos_as_xyz
'x, y, z'
_cell_length_a     63.127372
_cell_length_b     63.129293
_cell_length_c     104.44714
_cell_angle_alpha  90.230006
_cell_angle_beta   89.773133
_cell_angle_gamma 120.52525
loop_
_atom_site_label
_atom_site_type_symbol
_atom_site_fract_x
_atom_site_fract_y
_atom_site_fract_z
_atom_type_partial_charge
Li0 Li 0.18496 0.22098 0.08877 0.0
Li1 Li 0.19467 0.22912 0.11195 0.0
Li2 Li 0.17411 0.18783 0.1039 0.0
Li3 Li 0.15235 0.21011 0.10516 0.0
C4 C 0.21992 0.20277 0.09923 0.0
N5 N 0.2434 0.17592 0.09952 0.0
C6 C 0.23117 0.20134 0.11043 0.0
C7 C 0.22073 0.1907 0.08816 0.0
C8 C 0.24293 0.18763 0.11038 0.0
C9 C 0.23266 0.17718 0.08851 0.0
C10 C 0.17701 0.2609 0.10682 0.0
C11 C 0.16837 0.27591 0.12626 0.0
N12 N 0.17126 0.29588 0.1198 0.0
C13 C 0.1799 0.28157 0.10038 0.0
C14 C 0.17121 0.25802 0.11987 0.0
C15 C 0.17692 0.29905 0.10711 0.0
C16 C 0.17906 0.2284 0.06271 0.0
N17 N 0.19568 0.23169 0.07187 0.0
C18 C 0.22727 0.24336 0.05619 0.0
C19 C 0.21957 0.23976 0.06894 0.0
C20 C 0.21011 0.23827 0.04639 0.0
C21 C 0.18587 0.23142 0.04982 0.0
H22 H 0.16015 0.22184 0.06537 0.0
H23 H 0.23237 0.2423 0.07647 0.0
C24 C 0.21894 0.24314 0.13552 0.0
N25 N 0.21875 0.25104 0.12348 0.0
C26 C 0.2379 0.25802 0.14391 0.0
C27 C 0.25571 0.28912 0.12742 0.0
C28 C 0.23635 0.27362 0.11934 0.0
C29 C 0.25689 0.28115 0.1398 0.0
H30 H 0.20475 0.22498 0.13846 0.0
H31 H 0.23571 0.27923 0.10965 0.0
C32 C 0.14019 0.17248 0.08183 0.0
N33 N 0.11363 0.13684 0.06362 0.0
C34 C 0.11489 0.15659 0.08339 0.0
C35 C 0.15192 0.17027 0.07094 0.0
C36 C 0.1018 0.13867 0.0741 0.0
C37 C 0.13819 0.15213 0.06187 0.0
C38 C 0.14731 0.1815 0.12644 0.0
C39 C 0.12864 0.16102 0.12009 0.0
C40 C 0.1466 0.18294 0.13978 0.0
C41 C 0.10951 0.14234 0.12717 0.0
C42 C 0.12715 0.16387 0.14653 0.0
N43 N 0.10915 0.14413 0.14014 0.0
C44 C 0.17602 0.15032 0.11793 0.0
C45 C 0.16488 0.14021 0.09618 0.0
C46 C 0.17284 0.12705 0.12017 0.0
N47 N 0.17149 0.15626 0.10614 0.0
C48 C 0.1612 0.11674 0.09801 0.0
C49 C 0.16477 0.1098 0.11017 0.0
H50 H 0.18171 0.16354 0.12566 0.0
H51 H 0.16231 0.14543 0.08681 0.0
C52 C 0.10703 0.20302 0.0972 0.0
N53 N 0.12094 0.20665 0.10778 0.0
C54 C 0.08203 0.19489 0.09844 0.0
C55 C 0.08667 0.19639 0.12145 0.0
C56 C 0.11162 0.20465 0.11976 0.0
C57 C 0.07139 0.19048 0.1107 0.0
H58 H 0.115 0.20487 0.08779 0.0
H59 H 0.12318 0.20813 0.12802 0.0
O60 O 0.20768 0.21545 0.09921 0.0
O61 O 0.17989 0.24367 0.10032 0.0
O62 O 0.1532 0.19059 0.09069 0.0
O63 O 0.16611 0.20025 0.11972 0.0
H64 H 0.23058 0.21049 0.11909 0.0
H65 H 0.21198 0.19153 0.07944 0.0
H66 H 0.2516 0.18624 0.11899 0.0
H67 H 0.2333 0.16761 0.08003 0.0
H68 H 0.16388 0.27391 0.13635 0.0
H69 H 0.1844 0.28405 0.09028 0.0
H70 H 0.16895 0.2422 0.12503 0.0
H71 H 0.17909 0.31514 0.10225 0.0
H72 H 0.24625 0.24921 0.05404 0.0
H73 H 0.17191 0.22701 0.04263 0.0
H74 H 0.23798 0.2513 0.15342 0.0
H75 H 0.27011 0.30668 0.12382 0.0
H76 H 0.10536 0.15802 0.09167 0.0
H77 H 0.17152 0.18205 0.06964 0.0
H78 H 0.08223 0.12625 0.07521 0.0
H79 H 0.1471 0.15016 0.05345 0.0
H80 H 0.12896 0.15951 0.10982 0.0
H81 H 0.16082 0.19872 0.14486 0.0
H82 H 0.09495 0.1264 0.12235 0.0
H83 H 0.12634 0.16478 0.15685 0.0
H84 H 0.17581 0.1223 0.12968 0.0
H85 H 0.15539 0.10403 0.09002 0.0
H86 H 0.07085 0.19038 0.0899 0.0
H87 H 0.07918 0.19351 0.13106 0.0
Li88 Li 0.81453 0.99411 0.10076 0.0
Li89 Li 0.78906 0.94924 0.10108 0.0
Li90 Li 0.78179 0.97326 0.08496 0.0
Li91 Li 0.77067 0.97341 0.10733 0.0
C92 C 0.83139 0.97933 0.07965 0.0
N93 N 0.8726 0.99791 0.06418 0.0
C94 C 0.84627 0.96882 0.07982 0.0
C95 C 0.83739 0.99916 0.07154 0.0
C96 C 0.86705 0.97852 0.07196 0.0
C97 C 0.8583 0.00831 0.06381 0.0
C98 C 0.81589 0.97285 0.1238 0.0
C99 C 0.83418 0.97866 0.1447 0.0
N100 N 0.85133 0.97399 0.13971 0.0
C101 C 0.83369 0.96811 0.11888 0.0
C102 C 0.81609 0.97815 0.13681 0.0
C103 C 0.85145 0.96876 0.12707 0.0
C104 C 0.84875 0.04408 0.10635 0.0
N105 N 0.84655 0.02202 0.10345 0.0
C106 C 0.89021 0.0401 0.10352 0.0
C107 C 0.86671 0.0197 0.10219 0.0
C108 C 0.89315 0.06331 0.10607 0.0
C109 C 0.87199 0.06512 0.10764 0.0
H110 H 0.83243 0.04541 0.10746 0.0
H111 H 0.86468 0.00204 0.10009 0.0
C112 C 0.79492 0.91082 0.09266 0.0
N113 N 0.79069 0.92027 0.10341 0.0
C114 C 0.80264 0.89375 0.0936 0.0
C115 C 0.79951 0.89496 0.11664 0.0
C116 C 0.79157 0.91184 0.11524 0.0
C117 C 0.80626 0.88659 0.10574 0.0
H118 H 0.79392 0.91781 0.08338 0.0
H119 H 0.78798 0.9196 0.12364 0.0
C120 C 0.78696 0.02021 0.09059 0.0
N121 N 0.78228 0.05744 0.07968 0.0
C122 C 0.76572 0.02144 0.09269 0.0
C123 C 0.80596 0.03814 0.08308 0.0
C124 C 0.76367 0.04035 0.08706 0.0
C125 C 0.8032 0.05674 0.07761 0.0
C126 C 0.73829 0.92437 0.10127 0.0
C127 C 0.71769 0.90721 0.09438 0.0
C128 C 0.74001 0.92067 0.11433 0.0
C129 C 0.69911 0.8866 0.10068 0.0
C130 C 0.72105 0.89982 0.12027 0.0
N131 N 0.70116 0.88336 0.11338 0.0
C132 C 0.78188 0.96366 0.05883 0.0
C133 C 0.7629 0.98691 0.06362 0.0
C134 C 0.7803 0.96687 0.04573 0.0
N135 N 0.77403 0.97438 0.06746 0.0
C136 C 0.76112 0.99075 0.05062 0.0
C137 C 0.77046 0.98118 0.04152 0.0
H138 H 0.79029 0.95344 0.06213 0.0
H139 H 0.75597 0.99449 0.07061 0.0
C140 C 0.7588 0.99134 0.12874 0.0
N141 N 0.74876 0.9767 0.11833 0.0
C142 C 0.74433 0.99661 0.13672 0.0
C143 C 0.70931 0.97126 0.1232 0.0
C144 C 0.72451 0.96646 0.11547 0.0
C145 C 0.71932 0.98685 0.13387 0.0
H146 H 0.77823 0.9994 0.13065 0.0
H147 H 0.71715 0.95523 0.10697 0.0
O148 O 0.81109 0.9702 0.0874 0.0
O149 O 0.79829 0.97234 0.11597 0.0
O150 O 0.7893 0.00185 0.09607 0.0
O151 O 0.75658 0.94462 0.09519 0.0
H152 H 0.84197 0.95351 0.08606 0.0
H153 H 0.82591 0.00727 0.07116 0.0
H154 H 0.8788 0.97065 0.07204 0.0
H155 H 0.86315 0.02366 0.05749 0.0
H156 H 0.83456 0.98275 0.15479 0.0
H157 H 0.8337 0.96379 0.10887 0.0
H158 H 0.8024 0.98181 0.14079 0.0
H159 H 0.8653 0.96508 0.12338 0.0
H160 H 0.90592 0.03765 0.10257 0.0
H161 H 0.87336 0.08263 0.10957 0.0
H162 H 0.8071 0.88733 0.08494 0.0
H163 H 0.80209 0.89003 0.12619 0.0
H164 H 0.75088 0.00782 0.09851 0.0
H165 H 0.82276 0.03785 0.08157 0.0
H166 H 0.74727 0.04142 0.08854 0.0
H167 H 0.81773 0.07068 0.07175 0.0
H168 H 0.71609 0.90983 0.08427 0.0
H169 H 0.75573 0.93374 0.11985 0.0
H170 H 0.68305 0.87317 0.09546 0.0
H171 H 0.72213 0.89674 0.13037 0.0
H172 H 0.78776 0.95922 0.03902 0.0
H173 H 0.75297 0.00149 0.04771 0.0
H174 H 0.7527 0.00847 0.14494 0.0
H175 H 0.69019 0.96361 0.1206 0.0
Li176 Li 0.99769 0.82411 0.10982 0.0
Li177 Li 0.04265 0.84795 0.11049 0.0
Li178 Li 0.02124 0.81576 0.0939 0.0
Li179 Li 0.02174 0.80483 0.11603 0.0
C180 C 0.01212 0.85771 0.08902 0.0
N181 N 0.99445 0.88069 0.07355 0.0
C182 C 0.02007 0.8826 0.09082 0.0
C183 C 0.9955 0.84462 0.07922 0.0
C184 C 0.01082 0.89386 0.08294 0.0
C185 C 0.98671 0.85654 0.07153 0.0
C186 C 0.03208 0.83704 0.13624 0.0
C187 C 0.06761 0.84425 0.14834 0.0
N188 N 0.05752 0.84785 0.15907 0.0
C189 C 0.02206 0.84081 0.14737 0.0
C190 C 0.05505 0.83879 0.13671 0.0
C191 C 0.03522 0.84626 0.15882 0.0
C192 C 0.94661 0.80594 0.11442 0.0
N193 N 0.96918 0.82633 0.11288 0.0
C194 C 0.95204 0.85232 0.11473 0.0
C195 C 0.97229 0.84924 0.11338 0.0
C196 C 0.92833 0.83158 0.11574 0.0
C197 C 0.92577 0.80814 0.11576 0.0
H198 H 0.94472 0.78794 0.11448 0.0
H199 H 0.99053 0.86516 0.11258 0.0
C200 C 0.09149 0.89018 0.1096 0.0
N201 N 0.06808 0.88036 0.11402 0.0
C202 C 0.10843 0.91522 0.11144 0.0
C203 C 0.07687 0.91905 0.12258 0.0
C204 C 0.06069 0.89407 0.12059 0.0
C205 C 0.10102 0.93011 0.11781 0.0
H206 H 0.09677 0.87877 0.10434 0.0
H207 H 0.04182 0.88573 0.12382 0.0
C208 C 0.9735 0.77235 0.09901 0.0
N209 N 0.93416 0.73223 0.08749 0.0
C210 C 0.96929 0.74865 0.10115 0.0
C211 C 0.95759 0.77559 0.09108 0.0
C212 C 0.94933 0.72863 0.09521 0.0
C213 C 0.93783 0.75509 0.08533 0.0
C214 C 0.05937 0.80784 0.10027 0.0
C215 C 0.0428 0.78334 0.09708 0.0
C216 C 0.08463 0.81698 0.09922 0.0
C217 C 0.0518 0.76834 0.0929 0.0
C218 C 0.09291 0.8014 0.09501 0.0
N219 N 0.07646 0.7776 0.09196 0.0
C220 C 0.03682 0.82674 0.06841 0.0
C221 C 0.00728 0.78474 0.07168 0.0
C222 C 0.0365 0.82292 0.05521 0.0
N223 N 0.02194 0.80787 0.0763 0.0
C224 C 0.00599 0.78018 0.05855 0.0
C225 C 0.02042 0.79948 0.05005 0.0
H226 H 0.04852 0.84492 0.07236 0.0
H227 H 0.99611 0.76982 0.07808 0.0
C228 C 0.99795 0.76662 0.13279 0.0
N229 N 0.02019 0.78049 0.12711 0.0
C230 C 0.9935 0.74685 0.1405 0.0
C231 C 0.03527 0.75643 0.13671 0.0
C232 C 0.03897 0.77621 0.12911 0.0
C233 C 0.01212 0.7412 0.14234 0.0
H234 H 0.98351 0.77073 0.13112 0.0
H235 H 0.05665 0.78782 0.12465 0.0
O236 O 0.02106 0.84645 0.09665 0.0
O237 O 0.01935 0.83168 0.12498 0.0
O238 O 0.9931 0.79216 0.10468 0.0
O239 O 0.05107 0.82296 0.10437 0.0
H240 H 0.03314 0.8931 0.09826 0.0
H241 H 0.98964 0.82556 0.07745 0.0
H242 H 0.01669 0.91306 0.08429 0.0
H243 H 0.9738 0.8466 0.06393 0.0
H244 H 0.08539 0.84565 0.14885 0.0
H245 H 0.00431 0.83954 0.14715 0.0
H246 H 0.06313 0.83597 0.12821 0.0
H247 H 0.02769 0.84922 0.16751 0.0
H248 H 0.95489 0.87074 0.1146 0.0
H249 H 0.90787 0.7917 0.11676 0.0
H250 H 0.12689 0.92293 0.10767 0.0
H251 H 0.07007 0.92976 0.12728 0.0
H252 H 0.98141 0.74576 0.10725 0.0
H253 H 0.96029 0.79369 0.08948 0.0
H254 H 0.94593 0.71021 0.09674 0.0
H255 H 0.92538 0.75736 0.07918 0.0
H256 H 0.02324 0.77593 0.09789 0.0
H257 H 0.09769 0.83593 0.10166 0.0
H258 H 0.03917 0.74933 0.09043 0.0
H259 H 0.11241 0.80822 0.09416 0.0
H260 H 0.04847 0.83828 0.04913 0.0
H261 H 0.99312 0.76184 0.05514 0.0
H262 H 0.97559 0.73604 0.14493 0.0
H263 H 0.05013 0.75274 0.13789 0.0
Li264 Li 0.23297 0.19868 0.88823 0.0
Li265 Li 0.21918 0.18922 0.91034 0.0
Li266 Li 0.20776 0.15662 0.89421 0.0
Li267 Li 0.18942 0.1829 0.89382 0.0
C268 C 0.26542 0.19003 0.89959 0.0
N269 N 0.31566 0.21163 0.89647 0.0
C270 C 0.2814 0.20694 0.90863 0.0
C271 C 0.27494 0.18387 0.88906 0.0
C272 C 0.30676 0.21771 0.90686 0.0
C273 C 0.30041 0.19507 0.88762 0.0
C274 C 0.21208 0.2313 0.8976 0.0
C275 C 0.1885 0.24987 0.90417 0.0
N276 N 0.19734 0.26523 0.89393 0.0
C277 C 0.22097 0.2473 0.88715 0.0
C278 C 0.19578 0.23263 0.90621 0.0
C279 C 0.2133 0.26433 0.88546 0.0
C280 C 0.25561 0.2196 0.86474 0.0
N281 N 0.25872 0.22171 0.87763 0.0
C282 C 0.29561 0.26062 0.87541 0.0
C283 C 0.27833 0.24153 0.88306 0.0
C284 C 0.29225 0.2596 0.86207 0.0
C285 C 0.27221 0.23842 0.85674 0.0
H286 H 0.23952 0.20392 0.86071 0.0
H287 H 0.27996 0.24304 0.89336 0.0
C288 C 0.22744 0.18275 0.93638 0.0
N289 N 0.22703 0.19859 0.92775 0.0
C290 C 0.22953 0.18826 0.94943 0.0
C291 C 0.23289 0.2272 0.94433 0.0
C292 C 0.23039 0.22077 0.93141 0.0
C293 C 0.23179 0.21054 0.95353 0.0
H294 H 0.22523 0.16544 0.93316 0.0
H295 H 0.2304 0.23319 0.92433 0.0
C296 C 0.19462 0.15613 0.87 0.0
N297 N 0.17651 0.11916 0.85182 0.0
C298 C 0.1698 0.14422 0.86656 0.0
C299 C 0.21029 0.14948 0.86408 0.0
C300 C 0.16099 0.12552 0.85737 0.0
C301 C 0.20076 0.13067 0.85494 0.0
C302 C 0.17731 0.15072 0.91888 0.0
C303 C 0.17787 0.13032 0.92359 0.0
C304 C 0.16776 0.16219 0.92649 0.0
C305 C 0.16908 0.12188 0.93593 0.0
C306 C 0.15923 0.15323 0.93879 0.0
N307 N 0.16007 0.13344 0.94321 0.0
C308 C 0.21455 0.11487 0.89206 0.0
C309 C 0.17431 0.10816 0.88925 0.0
C310 C 0.20588 0.08977 0.89026 0.0
N311 N 0.19866 0.12341 0.89151 0.0
C312 C 0.16502 0.08322 0.88711 0.0
C313 C 0.18084 0.07377 0.88766 0.0
H314 H 0.23379 0.12744 0.89403 0.0
H315 H 0.16207 0.11544 0.88919 0.0
C316 C 0.15713 0.19763 0.88239 0.0
N317 N 0.15923 0.18173 0.89032 0.0
C318 C 0.13404 0.19492 0.88008 0.0
C319 C 0.11582 0.15907 0.89372 0.0
C320 C 0.13914 0.16264 0.89588 0.0
C321 C 0.11304 0.17527 0.88572 0.0
H322 H 0.17326 0.2122 0.87774 0.0
H323 H 0.14114 0.14987 0.90186 0.0
O324 O 0.24057 0.17943 0.90112 0.0
O325 O 0.21936 0.2145 0.89944 0.0
O326 O 0.20349 0.17414 0.87916 0.0
O327 O 0.18619 0.15951 0.90691 0.0
H328 H 0.27429 0.21183 0.91686 0.0
H329 H 0.26279 0.17069 0.88204 0.0
H330 H 0.31936 0.23094 0.91373 0.0
H331 H 0.30806 0.1906 0.87947 0.0
H332 H 0.1758 0.25102 0.91072 0.0
H333 H 0.23356 0.24654 0.88038 0.0
H334 H 0.18868 0.22035 0.91433 0.0
H335 H 0.21999 0.27678 0.87741 0.0
H336 H 0.31088 0.27642 0.87995 0.0
H337 H 0.26848 0.23697 0.84657 0.0
H338 H 0.22891 0.1751 0.95627 0.0
H339 H 0.23455 0.24452 0.94713 0.0
H340 H 0.15743 0.14918 0.87103 0.0
H341 H 0.22955 0.15859 0.8666 0.0
H342 H 0.14179 0.11602 0.85468 0.0
H343 H 0.21263 0.12519 0.85036 0.0
H344 H 0.18524 0.12125 0.91783 0.0
H345 H 0.16717 0.17797 0.92296 0.0
H346 H 0.16952 0.10619 0.93973 0.0
H347 H 0.15197 0.16205 0.94482 0.0
H348 H 0.2185 0.08295 0.89085 0.0
H349 H 0.14551 0.0713 0.88539 0.0
H350 H 0.13252 0.20762 0.87374 0.0
H351 H 0.10008 0.14376 0.89829 0.0
Li352 Li 0.81198 0.02634 0.8827 0.0
Li353 Li 0.82182 0.0273 0.90464 0.0
Li354 Li 0.85406 0.05185 0.88843 0.0
Li355 Li 0.83321 0.00553 0.88874 0.0
C356 C 0.80875 0.06126 0.89804 0.0
N357 N 0.77385 0.07252 0.90607 0.0
C358 C 0.7844 0.04252 0.89999 0.0
C359 C 0.81533 0.08571 0.90017 0.0
C360 C 0.76704 0.0486 0.90404 0.0
C361 C 0.79742 0.09104 0.90423 0.0
C362 C 0.78862 0.97693 0.90155 0.0
C363 C 0.79061 0.95098 0.91781 0.0
N364 N 0.76598 0.93528 0.91663 0.0
C365 C 0.76334 0.96054 0.90048 0.0
C366 C 0.80238 0.97213 0.91027 0.0
C367 C 0.75223 0.93959 0.90819 0.0
C368 C 0.77106 -8e-05 0.86738 0.0
N369 N 0.78711 0.02315 0.87139 0.0
C370 C 0.76579 0.03895 0.8596 0.0
C371 C 0.78505 0.04263 0.86762 0.0
C372 C 0.749 0.0151 0.8553 0.0
C373 C 0.75187 0.99547 0.8592 0.0
H374 H 0.77321 0.98483 0.87056 0.0
H375 H 0.79823 0.06095 0.87091 0.0
C376 C 0.83055 0.0418 0.93045 0.0
N377 N 0.8127 0.02707 0.92203 0.0
C378 C 0.82539 0.04024 0.94354 0.0
C379 C 0.78327 0.0093 0.93894 0.0
C380 C 0.78921 0.01159 0.92596 0.0
C381 C 0.8016 0.02335 0.94797 0.0
H382 H 0.84899 0.05423 0.92702 0.0
H383 H 0.77518 0.00047 0.91907 0.0
C384 C 0.83396 0.02589 0.86169 0.0
N385 N 0.81747 0.02131 0.83683 0.0
C386 C 0.82232 0.00291 0.85568 0.0
C387 C 0.83744 0.04659 0.85504 0.0
C388 C 0.81406 0.00097 0.84311 0.0
C389 C 0.82891 0.04388 0.84248 0.0
C390 C 0.87308 0.03041 0.9083 0.0
C391 C 0.89622 0.04111 0.90246 0.0
C392 C 0.87 0.02071 0.92064 0.0
C393 C 0.91581 0.04179 0.90901 0.0
C394 C 0.89004 0.02174 0.92687 0.0
N395 N 0.91234 0.03217 0.92098 0.0
C396 C 0.89554 0.09712 0.89538 0.0
C397 C 0.89755 0.08175 0.87493 0.0
C398 C 0.92028 0.1155 0.89455 0.0
N399 N 0.88499 0.0804 0.88578 0.0
C400 C 0.92231 0.09971 0.87373 0.0
C401 C 0.93423 0.11642 0.88381 0.0
H402 H 0.88509 0.09534 0.90395 0.0
H403 H 0.88878 0.06788 0.86758 0.0
C404 C 0.81863 0.95536 0.88393 0.0
N405 N 0.83814 0.97835 0.88599 0.0
C406 C 0.8221 0.93523 0.88303 0.0
C407 C 0.86578 0.96301 0.8855 0.0
C408 C 0.86145 0.98253 0.88639 0.0
C409 C 0.84591 0.93889 0.88408 0.0
H410 H 0.8003 0.95254 0.88324 0.0
H411 H 0.87673 0.00101 0.88746 0.0
O412 O 0.8262 0.05588 0.89409 0.0
O413 O 0.7996 0.99763 0.89412 0.0
O414 O 0.84154 0.02803 0.87411 0.0
O415 O 0.85377 0.03006 0.90214 0.0
H416 H 0.77888 0.0235 0.89834 0.0
H417 H 0.83411 0.10042 0.89872 0.0
H418 H 0.74814 0.03428 0.90558 0.0
H419 H 0.80227 0.10989 0.90592 0.0
H420 H 0.80106 0.94703 0.92458 0.0
H421 H 0.75242 0.96404 0.89379 0.0
H422 H 0.82193 0.98446 0.91113 0.0
H423 H 0.73267 0.92676 0.90748 0.0
H424 H 0.7641 0.05449 0.85673 0.0
H425 H 0.73908 0.97679 0.85618 0.0
H426 H 0.83998 0.05182 0.95012 0.0
H427 H 0.76472 0.99595 0.94189 0.0
H428 H 0.81944 0.98671 0.86074 0.0
H429 H 0.84633 0.06448 0.85961 0.0
H430 H 0.80486 0.98328 0.83835 0.0
H431 H 0.83129 0.05969 0.83724 0.0
H432 H 0.89899 0.04848 0.89289 0.0
H433 H 0.85235 0.01252 0.92541 0.0
H434 H 0.93376 0.04994 0.90456 0.0
H435 H 0.88787 0.01428 0.93641 0.0
H436 H 0.92865 0.12816 0.90248 0.0
H437 H 0.93236 0.09938 0.86538 0.0
H438 H 0.80625 0.91696 0.88188 0.0
H439 H 0.88452 0.96677 0.88596 0.0
Li440 Li 0.00049 0.81367 0.89509 0.0
Li441 Li 0.95534 0.79015 0.89459 0.0
Li442 Li 0.97774 0.78388 0.91188 0.0
Li443 Li 0.97743 0.76979 0.88995 0.0
C444 C 0.98684 0.83802 0.91057 0.0
N445 N 0.00832 0.88781 0.91541 0.0
C446 C 0.97806 0.85175 0.90451 0.0
C447 C 0.00642 0.84958 0.91917 0.0
C448 C 0.98917 0.87691 0.90708 0.0
C449 C 0.01708 0.87478 0.92146 0.0
C450 C 0.9822 0.79252 0.86817 0.0
C451 C 0.96734 0.76817 0.84891 0.0
N452 N 0.99039 0.78077 0.84386 0.0
C453 C 0.00571 0.80532 0.86277 0.0
C454 C 0.9628 0.77389 0.86117 0.0
C455 C 0.00948 0.79908 0.85047 0.0
C456 C 0.05134 0.85089 0.8954 0.0
N457 N 0.02844 0.84486 0.89145 0.0
C458 C 0.04333 0.88554 0.88372 0.0
C459 C 0.0243 0.86135 0.88532 0.0
C460 C 0.06692 0.89263 0.88824 0.0
C461 C 0.07104 0.87487 0.89384 0.0
H462 H 0.05423 0.8373 0.9 0.0
H463 H 0.00598 0.85584 0.88204 0.0
C464 C 0.91688 0.79831 0.90105 0.0
N465 N 0.9283 0.79444 0.89103 0.0
C466 C 0.90106 0.8073 0.89894 0.0
C467 C 0.90791 0.8067 0.87618 0.0
C468 C 0.92367 0.79779 0.87874 0.0
C469 C 0.89714 0.81249 0.88638 0.0
H470 H 0.92144 0.79608 0.91074 0.0
H471 H 0.93335 0.79501 0.87097 0.0
C472 C 0.02018 0.78307 0.90948 0.0
N473 N 0.04769 0.77283 0.92615 0.0
C474 C 0.02012 0.76095 0.90842 0.0
C475 C 0.03431 0.80001 0.91899 0.0
C476 C 0.03417 0.75613 0.91694 0.0
C477 C 0.04805 0.79447 0.92734 0.0
C478 C 0.92458 0.74719 0.90352 0.0
C479 C 0.9148 0.74637 0.91566 0.0
C480 C 0.90889 0.73743 0.89299 0.0
C481 C 0.8894 0.7359 0.91705 0.0
C482 C 0.8836 0.72715 0.89478 0.0
N483 N 0.87446 0.72662 0.90666 0.0
C484 C 0.97443 0.79287 0.93782 0.0
C485 C 0.98284 0.76074 0.93423 0.0
C486 C 0.97705 0.79158 0.95099 0.0
N487 N 0.978 0.77804 0.92973 0.0
C488 C 0.98627 0.75925 0.94732 0.0
C489 C 0.98368 0.77506 0.9558 0.0
H490 H 0.97007 0.8061 0.93402 0.0
H491 H 0.9848 0.74863 0.92763 0.0
C492 C 0.00201 0.75352 0.87466 0.0
N493 N 0.97946 0.7461 0.87971 0.0
C494 C 0.00544 0.73817 0.86642 0.0
C495 C 0.96244 0.70739 0.86894 0.0
C496 C 0.9598 0.7235 0.87713 0.0
C497 C 0.98548 0.71486 0.86337 0.0
H498 H 0.01731 0.77155 0.87698 0.0
H499 H 0.94207 0.71813 0.8813 0.0
O500 O 0.97663 0.81349 0.90794 0.0
O501 O 0.97827 0.79792 0.88033 0.0
O502 O 0.00644 0.78806 0.90127 0.0
O503 O 0.94942 0.75778 0.90193 0.0
H504 H 0.96312 0.84322 0.89772 0.0
H505 H 0.01343 0.83925 0.92395 0.0
H506 H 0.98268 0.88779 0.90239 0.0
H507 H 0.03234 0.88399 0.92803 0.0
H508 H 0.95255 0.75365 0.84343 0.0
H509 H 0.02095 0.81971 0.86808 0.0
H510 H 0.94453 0.76368 0.86525 0.0
H511 H 0.02761 0.80872 0.84619 0.0
H512 H 0.03957 0.89869 0.87918 0.0
H513 H 0.08904 0.87971 0.89741 0.0
H514 H 0.89348 0.81184 0.9071 0.0
H515 H 0.9052 0.81021 0.86635 0.0
H516 H 0.00916 0.74753 0.9012 0.0
H517 H 0.03443 0.81711 0.92002 0.0
H518 H 0.03423 0.73906 0.91626 0.0
H519 H 0.05892 0.80734 0.93479 0.0
H520 H 0.92671 0.75388 0.9239 0.0
H521 H 0.91621 0.73806 0.88352 0.0
H522 H 0.88156 0.73522 0.92637 0.0
H523 H 0.87124 0.71966 0.8867 0.0
H524 H 0.97488 0.80399 0.95731 0.0
H525 H 0.99115 0.74614 0.95079 0.0
H526 H 0.0236 0.74443 0.86252 0.0
H527 H 0.94663 0.68955 0.8668 0.0
Li528 Li 0.85231 0.55245 0.44634 0.0
Li529 Li 0.83937 0.54146 0.42391 0.0
Li530 Li 0.81174 0.53766 0.44072 0.0
Li531 Li 0.82776 0.50924 0.44067 0.0
C532 C 0.83121 0.58304 0.43164 0.0
N533 N 0.81153 0.61237 0.42631 0.0
C534 C 0.82678 0.58671 0.41898 0.0
C535 C 0.82595 0.59455 0.44159 0.0
C536 C 0.81675 0.60155 0.41648 0.0
C537 C 0.8159 0.60922 0.4387 0.0
C538 C 0.8708 0.52271 0.42719 0.0
C539 C 0.86677 0.4938 0.41084 0.0
N540 N 0.89086 0.50085 0.41241 0.0
C541 C 0.89549 0.52966 0.42864 0.0
C542 C 0.85629 0.50462 0.41822 0.0
C543 C 0.90529 0.51839 0.42108 0.0
C544 C 0.89234 0.56412 0.46179 0.0
N545 N 0.87909 0.57367 0.45689 0.0
C546 C 0.90406 0.61166 0.46786 0.0
C547 C 0.88456 0.59697 0.45965 0.0
C548 C 0.91785 0.60212 0.47324 0.0
C549 C 0.91185 0.57807 0.47005 0.0
H550 H 0.88753 0.54553 0.45935 0.0
H551 H 0.87365 0.60402 0.45558 0.0
C552 C 0.83362 0.53475 0.39722 0.0
N553 N 0.84985 0.54789 0.40663 0.0
C554 C 0.84157 0.53694 0.38457 0.0
C555 C 0.88289 0.56612 0.39154 0.0
C556 C 0.87405 0.56357 0.40406 0.0
C557 C 0.86655 0.55251 0.38164 0.0
H558 H 0.8147 0.5219 0.39959 0.0
H559 H 0.88659 0.57344 0.41181 0.0
C560 C 0.83026 0.53268 0.46773 0.0
N561 N 0.84715 0.54721 0.49242 0.0
C562 C 0.83835 0.51951 0.47491 0.0
C563 C 0.83038 0.55299 0.47318 0.0
C564 C 0.84691 0.52721 0.48736 0.0
C565 C 0.8391 0.56012 0.48565 0.0
C566 C 0.78158 0.49807 0.42732 0.0
C567 C 0.76917 0.48439 0.43818 0.0
C568 C 0.76803 0.49788 0.41671 0.0
C569 C 0.7435 0.47064 0.4382 0.0
C570 C 0.74237 0.48387 0.41711 0.0
N571 N 0.73074 0.47065 0.42775 0.0
C572 C 0.77056 0.54222 0.43413 0.0
C573 C 0.77088 0.53002 0.45552 0.0
C574 C 0.74605 0.53595 0.43533 0.0
N575 N 0.78213 0.53828 0.44399 0.0
C576 C 0.74636 0.52353 0.45715 0.0
C577 C 0.73334 0.5254 0.44677 0.0
H578 H 0.7796 0.54813 0.42495 0.0
H579 H 0.7802 0.52642 0.46311 0.0
C580 C 0.84102 0.47537 0.44972 0.0
N581 N 0.82363 0.47739 0.44309 0.0
C582 C 0.83951 0.45258 0.45086 0.0
C583 C 0.80231 0.43445 0.43827 0.0
C584 C 0.80474 0.45757 0.43723 0.0
C585 C 0.81993 0.43168 0.44506 0.0
H586 H 0.85641 0.49161 0.45387 0.0
H587 H 0.79176 0.45967 0.43151 0.0
O588 O 0.84108 0.56862 0.43426 0.0
O589 O 0.86102 0.53367 0.43452 0.0
O590 O 0.82244 0.52585 0.4554 0.0
O591 O 0.80677 0.51216 0.42732 0.0
H592 H 0.83087 0.57807 0.41115 0.0
H593 H 0.82944 0.59207 0.45143 0.0
H594 H 0.81309 0.60444 0.40673 0.0
H595 H 0.81158 0.6181 0.44631 0.0
H596 H 0.85577 0.4798 0.40386 0.0
H597 H 0.90695 0.54363 0.43555 0.0
H598 H 0.83714 0.49898 0.41696 0.0
H599 H 0.92438 0.52359 0.4221 0.0
H600 H 0.90807 0.63009 0.47013 0.0
H601 H 0.92228 0.57017 0.47381 0.0
H602 H 0.82848 0.5258 0.37724 0.0
H603 H 0.90228 0.57832 0.38964 0.0
H604 H 0.83812 0.50359 0.4709 0.0
H605 H 0.82408 0.56331 0.46778 0.0
H606 H 0.85339 0.51729 0.49299 0.0
H607 H 0.83951 0.57596 0.48994 0.0
H608 H 0.77928 0.4846 0.44657 0.0
H609 H 0.7771 0.50874 0.40833 0.0
H610 H 0.73372 0.46007 0.44656 0.0
H611 H 0.73167 0.48365 0.40899 0.0
H612 H 0.73665 0.53772 0.42711 0.0
H613 H 0.73714 0.51512 0.46607 0.0
H614 H 0.85381 0.45147 0.45597 0.0
H615 H 0.78673 0.41892 0.43375 0.0
Li616 Li 0.47958 0.32909 0.44101 0.0
Li617 Li 0.46041 0.28409 0.4398 0.0
Li618 Li 0.44912 0.30659 0.42371 0.0
Li619 Li 0.43484 0.30048 0.44573 0.0
C620 C 0.50096 0.31795 0.41873 0.0
N621 N 0.54056 0.33563 0.40209 0.0
C622 C 0.51788 0.30994 0.41969 0.0
C623 C 0.50402 0.33464 0.40911 0.0
C624 C 0.53784 0.3192 0.41126 0.0
C625 C 0.52417 0.34343 0.40084 0.0
C626 C 0.47052 0.2955 0.46502 0.0
C627 C 0.46164 0.26226 0.47947 0.0
N628 N 0.48415 0.27623 0.48491 0.0
C629 C 0.49349 0.3096 0.47083 0.0
C630 C 0.45438 0.2717 0.46943 0.0
C631 C 0.50007 0.2995 0.48085 0.0
C632 C 0.51089 0.37919 0.44918 0.0
N633 N 0.50964 0.35797 0.44534 0.0
C634 C 0.55328 0.37676 0.44647 0.0
C635 C 0.53017 0.35629 0.44426 0.0
C636 C 0.55535 0.39923 0.45004 0.0
C637 C 0.53373 0.40024 0.45152 0.0
H638 H 0.4942 0.37988 0.45025 0.0
H639 H 0.5286 0.33901 0.4416 0.0
C640 C 0.45439 0.23578 0.43843 0.0
N641 N 0.46899 0.25958 0.44216 0.0
C642 C 0.46255 0.21901 0.43984 0.0
C643 C 0.5001 0.25151 0.44922 0.0
C644 C 0.49144 0.2676 0.44744 0.0
C645 C 0.48571 0.22693 0.4453 0.0
H646 H 0.43667 0.22997 0.43415 0.0
H647 H 0.50295 0.28676 0.44998 0.0
C648 C 0.45382 0.35327 0.43087 0.0
N649 N 0.46005 0.39648 0.42071 0.0
C650 C 0.43569 0.35954 0.43259 0.0
C651 C 0.47526 0.3692 0.42414 0.0
C652 C 0.43913 0.38139 0.42733 0.0
C653 C 0.47804 0.3909 0.41904 0.0
C654 C 0.40275 0.26012 0.43377 0.0
C655 C 0.38721 0.26343 0.42559 0.0
C656 C 0.39272 0.24218 0.44331 0.0
C657 C 0.36177 0.24893 0.42724 0.0
C658 C 0.36718 0.22807 0.44465 0.0
N659 N 0.35237 0.23173 0.43667 0.0
C660 C 0.44737 0.29527 0.39767 0.0
C661 C 0.43387 0.32335 0.40223 0.0
C662 C 0.44583 0.29825 0.38453 0.0
N663 N 0.44206 0.30827 0.40618 0.0
C664 C 0.43246 0.3272 0.38919 0.0
C665 C 0.43897 0.31492 0.38021 0.0
H666 H 0.45379 0.28336 0.4011 0.0
H667 H 0.42905 0.33295 0.40913 0.0
C668 C 0.40814 0.29252 0.46885 0.0
N669 N 0.40837 0.29667 0.45608 0.0
C670 C 0.39065 0.29326 0.47675 0.0
C671 C 0.37343 0.30159 0.45814 0.0
C672 C 0.39115 0.30054 0.4506 0.0
C673 C 0.37349 0.29866 0.47146 0.0
H674 H 0.42214 0.28969 0.473 0.0
H675 H 0.39189 0.30394 0.44042 0.0
O676 O 0.48118 0.30888 0.42689 0.0
O677 O 0.46396 0.30498 0.45507 0.0
O678 O 0.45059 0.3318 0.43587 0.0
O679 O 0.42769 0.2744 0.43243 0.0
H680 H 0.51575 0.2968 0.4269 0.0
H681 H 0.49082 0.34051 0.40785 0.0
H682 H 0.55113 0.31326 0.41199 0.0
H683 H 0.5267 0.35635 0.39337 0.0
H684 H 0.4494 0.2438 0.48291 0.0
H685 H 0.50615 0.3281 0.46759 0.0
H686 H 0.43654 0.26057 0.46505 0.0
H687 H 0.51783 0.31016 0.48539 0.0
H688 H 0.56938 0.3751 0.44508 0.0
H689 H 0.53445 0.41707 0.45444 0.0
H690 H 0.45104 0.2002 0.43663 0.0
H691 H 0.5183 0.25846 0.45318 0.0
H692 H 0.4191 0.34767 0.4379 0.0
H693 H 0.48982 0.36514 0.42307 0.0
H694 H 0.42518 0.38638 0.42854 0.0
H695 H 0.49457 0.40336 0.41382 0.0
H696 H 0.39471 0.27723 0.41815 0.0
H697 H 0.40451 0.23924 0.44962 0.0
H698 H 0.3495 0.2514 0.42105 0.0
H699 H 0.35915 0.21421 0.45204 0.0
H700 H 0.45108 0.28856 0.37784 0.0
H701 H 0.4268 0.33997 0.38616 0.0
H702 H 0.39118 0.2906 0.48696 0.0
H703 H 0.36081 0.30614 0.45365 0.0
Li704 Li 0.66783 0.15166 0.43698 0.0
Li705 Li 0.71296 0.17337 0.43821 0.0
Li706 Li 0.69112 0.14529 0.4204 0.0
Li707 Li 0.68996 0.13029 0.44205 0.0
C708 C 0.68304 0.19109 0.42261 0.0
N709 N 0.66268 0.22039 0.41901 0.0
C710 C 0.69246 0.21344 0.42916 0.0
C711 C 0.6634 0.18375 0.41416 0.0
C712 C 0.6819 0.22798 0.42721 0.0
C713 C 0.6533 0.19878 0.4125 0.0
C714 C 0.68505 0.14767 0.46406 0.0
C715 C 0.69981 0.1382 0.4832 0.0
N716 N 0.67671 0.12723 0.4882 0.0
C717 C 0.66148 0.13644 0.46941 0.0
C718 C 0.70442 0.14872 0.47102 0.0
C719 C 0.65764 0.12618 0.48163 0.0
C720 C 0.61734 0.13806 0.43583 0.0
N721 N 0.6399 0.15463 0.44049 0.0
C722 C 0.62453 0.17939 0.44898 0.0
C723 C 0.64363 0.17462 0.4473 0.0
C724 C 0.60129 0.16322 0.44376 0.0
C725 C 0.59763 0.14201 0.43736 0.0
H726 H 0.61475 0.12207 0.43067 0.0
H727 H 0.66169 0.18724 0.45109 0.0
C728 C 0.75461 0.21984 0.43314 0.0
N729 N 0.73998 0.20468 0.44261 0.0
C730 C 0.77033 0.24484 0.4356 0.0
C731 C 0.75626 0.23789 0.45758 0.0
C732 C 0.74103 0.21299 0.45474 0.0
C733 C 0.77047 0.25424 0.44783 0.0
H734 H 0.75271 0.21292 0.42348 0.0
H735 H 0.72873 0.20068 0.46199 0.0
C736 C 0.64854 0.10179 0.4217 0.0
N737 N 0.62238 0.06493 0.40402 0.0
C738 C 0.6483 0.07957 0.42244 0.0
C739 C 0.6354 0.10522 0.41198 0.0
C740 C 0.63496 0.06115 0.41341 0.0
C741 C 0.62233 0.08639 0.40312 0.0
C742 C 0.74358 0.16065 0.42915 0.0
C743 C 0.75389 0.169 0.41704 0.0
C744 C 0.75888 0.16635 0.43981 0.0
C745 C 0.77944 0.18318 0.41581 0.0
C746 C 0.78433 0.18061 0.43818 0.0
N747 N 0.794 0.18867 0.42631 0.0
C748 C 0.69299 0.15676 0.39439 0.0
C749 C 0.68804 0.11754 0.3982 0.0
C750 C 0.68969 0.152 0.38129 0.0
N751 N 0.69132 0.13931 0.40256 0.0
C752 C 0.68402 0.11172 0.38519 0.0
C753 C 0.68419 0.12886 0.37655 0.0
H754 H 0.6963 0.1742 0.39808 0.0
H755 H 0.68741 0.10422 0.40489 0.0
C756 C 0.6642 0.08836 0.45654 0.0
N757 N 0.68698 0.10372 0.45174 0.0
C758 C 0.65985 0.06827 0.46393 0.0
C759 C 0.70248 0.07989 0.46117 0.0
C760 C 0.70606 0.09996 0.45386 0.0
C761 C 0.67907 0.06368 0.46627 0.0
H762 H 0.64942 0.09185 0.45465 0.0
H763 H 0.72396 0.1125 0.44985 0.0
O764 O 0.69268 0.17624 0.42464 0.0
O765 O 0.68907 0.15731 0.45199 0.0
O766 O 0.66164 0.12011 0.4304 0.0
O767 O 0.71862 0.14697 0.43058 0.0
H768 H 0.70751 0.21938 0.43581 0.0
H769 H 0.65585 0.16651 0.40903 0.0
H770 H 0.68891 0.24524 0.43228 0.0
H771 H 0.63798 0.19322 0.40606 0.0
H772 H 0.71458 0.13871 0.48867 0.0
H773 H 0.64628 0.13541 0.46412 0.0
H774 H 0.72276 0.15731 0.46699 0.0
H775 H 0.63947 0.1173 0.48586 0.0
H776 H 0.62798 0.19574 0.45416 0.0
H777 H 0.57998 0.12912 0.43319 0.0
H778 H 0.78069 0.25698 0.42778 0.0
H779 H 0.75584 0.24454 0.46711 0.0
H780 H 0.65851 0.07662 0.42981 0.0
H781 H 0.63559 0.12238 0.41117 0.0
H782 H 0.63468 0.0439 0.41385 0.0
H783 H 0.61224 0.08887 0.39551 0.0
H784 H 0.74229 0.16471 0.4087 0.0
H785 H 0.75115 0.16001 0.44925 0.0
H786 H 0.78769 0.18987 0.4065 0.0
H787 H 0.79641 0.1853 0.44635 0.0
H788 H 0.69096 0.16618 0.37499 0.0
H789 H 0.67983 0.09363 0.38207 0.0
H790 H 0.64165 0.05663 0.46789 0.0
H791 H 0.71775 0.07694 0.46271 0.0
Li792 Li 0.89332 0.53031 0.22407 0.0
Li793 Li 0.88238 0.5192 0.2462 0.0
Li794 Li 0.8687 0.48786 0.22925 0.0
Li795 Li 0.85084 0.51411 0.23134 0.0
C796 C 0.92692 0.52149 0.23246 0.0
N797 N 0.97639 0.5455 0.22648 0.0
C798 C 0.9441 0.53923 0.24079 0.0
C799 C 0.93488 0.51579 0.22116 0.0
C800 C 0.96904 0.5512 0.23758 0.0
C801 C 0.95998 0.52819 0.21828 0.0
C802 C 0.8722 0.56092 0.23559 0.0
C803 C 0.84727 0.57707 0.24356 0.0
N804 N 0.85334 0.59176 0.23308 0.0
C805 C 0.87815 0.57615 0.22488 0.0
C806 C 0.85663 0.56137 0.24501 0.0
C807 C 0.86846 0.59164 0.2238 0.0
C808 C 0.91808 0.55248 0.20073 0.0
N809 N 0.91842 0.55469 0.21368 0.0
C810 C 0.952 0.596 0.21262 0.0
C811 C 0.93521 0.57565 0.21971 0.0
C812 C 0.95136 0.59471 0.1992 0.0
C813 C 0.93464 0.57239 0.19324 0.0
H814 H 0.90423 0.53574 0.19619 0.0
H815 H 0.93474 0.57693 0.23003 0.0
C816 C 0.89702 0.5122 0.27084 0.0
N817 N 0.8929 0.52742 0.26345 0.0
C818 C 0.90082 0.51648 0.284 0.0
C819 C 0.89801 0.55302 0.28142 0.0
C820 C 0.89417 0.54797 0.26837 0.0
C821 C 0.90069 0.53679 0.28948 0.0
H822 H 0.89625 0.49615 0.26662 0.0
H823 H 0.89126 0.55998 0.26224 0.0
C824 C 0.8524 0.48879 0.20619 0.0
N825 N 0.83094 0.45191 0.18802 0.0
C826 C 0.82699 0.47657 0.2042 0.0
C827 C 0.86691 0.48239 0.19887 0.0
C828 C 0.81649 0.45795 0.19498 0.0
C829 C 0.8557 0.46365 0.18976 0.0
C830 C 0.8435 0.48019 0.25559 0.0
C831 C 0.84597 0.46004 0.25871 0.0
C832 C 0.83601 0.49087 0.26499 0.0
C833 C 0.84094 0.45093 0.27121 0.0
C834 C 0.83126 0.48128 0.27739 0.0
N835 N 0.83379 0.46168 0.28021 0.0
C836 C 0.87366 0.44587 0.22249 0.0
C837 C 0.83366 0.43997 0.22506 0.0
C838 C 0.86369 0.42096 0.21943 0.0
N839 N 0.85849 0.45474 0.22519 0.0
C840 C 0.82299 0.41522 0.22193 0.0
C841 C 0.83801 0.4054 0.21904 0.0
H842 H 0.89337 0.45808 0.22271 0.0
H843 H 0.82212 0.44754 0.22739 0.0
C844 C 0.81721 0.52632 0.2198 0.0
N845 N 0.82071 0.51384 0.22936 0.0
C846 C 0.79414 0.52399 0.21807 0.0
C847 C 0.77894 0.49613 0.23607 0.0
C848 C 0.80219 0.49905 0.23746 0.0
C849 C 0.77457 0.50836 0.22616 0.0
H850 H 0.83214 0.53755 0.21331 0.0
H851 H 0.80525 0.48894 0.2448 0.0
O852 O 0.9024 0.50994 0.23531 0.0
O853 O 0.88122 0.54536 0.23677 0.0
O854 O 0.86296 0.50666 0.21538 0.0
O855 O 0.84878 0.48969 0.24346 0.0
H856 H 0.93821 0.54388 0.24957 0.0
H857 H 0.92179 0.5021 0.21461 0.0
H858 H 0.98255 0.56508 0.24389 0.0
H859 H 0.9664 0.52409 0.20953 0.0
H860 H 0.8351 0.57751 0.25074 0.0
H861 H 0.88989 0.57587 0.21741 0.0
H862 H 0.85152 0.54946 0.25327 0.0
H863 H 0.87287 0.60347 0.21555 0.0
H864 H 0.96468 0.61287 0.21755 0.0
H865 H 0.93334 0.57081 0.18291 0.0
H866 H 0.90313 0.50369 0.28986 0.0
H867 H 0.89759 0.56878 0.28523 0.0
H868 H 0.81545 0.48117 0.20981 0.0
H869 H 0.88656 0.49153 0.20035 0.0
H870 H 0.79685 0.44824 0.19339 0.0
H871 H 0.86668 0.45837 0.1841 0.0
H872 H 0.85195 0.45166 0.25162 0.0
H873 H 0.83429 0.50667 0.26279 0.0
H874 H 0.84286 0.4354 0.27377 0.0
H875 H 0.82567 0.48951 0.28477 0.0
H876 H 0.87584 0.41397 0.21731 0.0
H877 H 0.80313 0.40376 0.22203 0.0
H878 H 0.79141 0.53352 0.21024 0.0
H879 H 0.76439 0.48408 0.24258 0.0
Li880 Li 0.47044 0.36848 0.21999 0.0
Li881 Li 0.48067 0.3643 0.24203 0.0
Li882 Li 0.51409 0.38818 0.22552 0.0
Li883 Li 0.48907 0.34323 0.22495 0.0
C884 C 0.48131 0.41165 0.23449 0.0
N885 N 0.4659 0.44508 0.23828 0.0
C886 C 0.4613 0.4058 0.24251 0.0
C887 C 0.49366 0.4346 0.22851 0.0
C888 C 0.45375 0.42293 0.24428 0.0
C889 C 0.48552 0.45122 0.2305 0.0
C890 C 0.43517 0.3233 0.23657 0.0
C891 C 0.41094 0.29077 0.25155 0.0
N892 N 0.39134 0.2936 0.24922 0.0
C893 C 0.41476 0.32584 0.2343 0.0
C894 C 0.43324 0.30557 0.24523 0.0
C895 C 0.39277 0.31065 0.2408 0.0
C896 C 0.44091 0.3536 0.19875 0.0
N897 N 0.447 0.36921 0.20887 0.0
C898 C 0.41676 0.37942 0.20284 0.0
C899 C 0.43564 0.38236 0.21093 0.0
C900 C 0.40976 0.36298 0.19249 0.0
C901 C 0.42238 0.3503 0.19036 0.0
H902 H 0.45002 0.34314 0.19744 0.0
H903 H 0.44055 0.39453 0.21903 0.0
C904 C 0.49255 0.36997 0.26795 0.0
N905 N 0.47318 0.36257 0.25989 0.0
C906 C 0.48879 0.3669 0.28114 0.0
C907 C 0.44524 0.34931 0.2776 0.0
C908 C 0.44992 0.35316 0.26449 0.0
C909 C 0.46478 0.35579 0.28614 0.0
H910 H 0.51094 0.3778 0.26409 0.0
H911 H 0.43482 0.34805 0.25801 0.0
C912 C 0.5044 0.37966 0.19946 0.0
N913 N 0.51917 0.40612 0.17694 0.0
C914 C 0.5125 0.37136 0.18918 0.0
C915 C 0.5038 0.40138 0.1983 0.0
C916 C 0.51991 0.38502 0.17787 0.0
C917 C 0.51132 0.4145 0.18683 0.0
C918 C 0.52235 0.35165 0.24289 0.0
C919 C 0.54629 0.3586 0.23914 0.0
C920 C 0.50917 0.3312 0.2508 0.0
C921 C 0.55651 0.34466 0.24319 0.0
C922 C 0.52003 0.31773 0.25464 0.0
N923 N 0.54326 0.32465 0.25077 0.0
C924 C 0.55601 0.43582 0.22943 0.0
C925 C 0.56042 0.41005 0.2144 0.0
C926 C 0.58094 0.45359 0.22821 0.0
N927 N 0.54646 0.41446 0.22269 0.0
C928 C 0.5853 0.42725 0.21287 0.0
C929 C 0.59602 0.44917 0.22002 0.0
H930 H 0.54449 0.43865 0.23607 0.0
H931 H 0.55244 0.39264 0.20941 0.0
C932 C 0.47229 0.29192 0.22338 0.0
N933 N 0.49111 0.31499 0.22081 0.0
C934 C 0.47553 0.27174 0.22188 0.0
C935 C 0.517 0.29939 0.21451 0.0
C936 C 0.51289 0.31896 0.21605 0.0
C937 C 0.49836 0.27548 0.21773 0.0
H938 H 0.45501 0.28922 0.22691 0.0
H939 H 0.52739 0.3375 0.21391 0.0
O940 O 0.48925 0.39531 0.2328 0.0
O941 O 0.45681 0.33792 0.23023 0.0
O942 O 0.49732 0.36659 0.21063 0.0
O943 O 0.51174 0.36462 0.23872 0.0
H944 H 0.4515 0.38812 0.24716 0.0
H945 H 0.50941 0.43959 0.22242 0.0
H946 H 0.4382 0.41859 0.25039 0.0
H947 H 0.49484 0.46901 0.2259 0.0
H948 H 0.40924 0.27707 0.25833 0.0
H949 H 0.41586 0.33942 0.22764 0.0
H950 H 0.44884 0.30341 0.24717 0.0
H951 H 0.37685 0.31246 0.23915 0.0
H952 H 0.40745 0.38953 0.20477 0.0
H953 H 0.41725 0.33713 0.18261 0.0
H954 H 0.50456 0.37291 0.28733 0.0
H955 H 0.42639 0.3406 0.28091 0.0
H956 H 0.51313 0.35459 0.18997 0.0
H957 H 0.49752 0.40798 0.20616 0.0
H958 H 0.52627 0.37885 0.16984 0.0
H959 H 0.51092 0.43133 0.18579 0.0
H960 H 0.55677 0.37443 0.23306 0.0
H961 H 0.49071 0.32572 0.25386 0.0
H962 H 0.57495 0.3497 0.24028 0.0
H963 H 0.50998 0.30175 0.26068 0.0
H964 H 0.58846 0.47026 0.23388 0.0
H965 H 0.59629 0.42277 0.20668 0.0
H966 H 0.4607 0.25357 0.22446 0.0
H967 H 0.53474 0.30296 0.21108 0.0
Li968 Li 0.60766 0.12553 0.22601 0.0
Li969 Li 0.65184 0.14684 0.22613 0.0
Li970 Li 0.62894 0.10524 0.21784 0.0
Li971 Li 0.62988 0.11356 0.24134 0.0
C972 C 0.62715 0.15073 0.2034 0.0
N973 N 0.61988 0.18246 0.18842 0.0
C974 C 0.63148 0.17313 0.20841 0.0
C975 C 0.61916 0.14447 0.19076 0.0
C976 C 0.6277 0.18893 0.2007 0.0
C977 C 0.6156 0.16077 0.18334 0.0
C978 C 0.63867 0.16431 0.24832 0.0
C979 C 0.6605 0.18539 0.26752 0.0
N980 N 0.65599 0.20384 0.26496 0.0
C981 C 0.63406 0.18339 0.24596 0.0
C982 C 0.65181 0.16522 0.25927 0.0
C983 C 0.64305 0.20325 0.25445 0.0
C984 C 0.57468 0.13957 0.23465 0.0
N985 N 0.58042 0.13045 0.22427 0.0
C986 C 0.55355 0.13721 0.21111 0.0
C987 C 0.56948 0.12818 0.21275 0.0
C988 C 0.54886 0.14862 0.22142 0.0
C989 C 0.55895 0.1489 0.23344 0.0
H990 H 0.58347 0.14094 0.24373 0.0
H991 H 0.57407 0.12057 0.20466 0.0
C992 C 0.68913 0.18738 0.21187 0.0
N993 N 0.68158 0.17815 0.22386 0.0
C994 C 0.70969 0.21082 0.21017 0.0
C995 C 0.71538 0.21408 0.2331 0.0
C996 C 0.69478 0.19067 0.23433 0.0
C997 C 0.7227 0.22471 0.22092 0.0
H998 H 0.67896 0.17675 0.20362 0.0
H999 H 0.68946 0.18252 0.24368 0.0
C1000 C 0.57904 0.07466 0.22462 0.0
N1001 N 0.53546 0.04045 0.21317 0.0
C1002 C 0.56052 0.05571 0.23187 0.0
C1003 C 0.57542 0.07621 0.21154 0.0
C1004 C 0.53861 0.03859 0.22591 0.0
C1005 C 0.55326 0.05875 0.20593 0.0
C1006 C 0.68201 0.13029 0.22823 0.0
C1007 C 0.69186 0.13202 0.21601 0.0
C1008 C 0.69779 0.14107 0.23865 0.0
C1009 C 0.71737 0.14455 0.21441 0.0
C1010 C 0.72319 0.15344 0.23666 0.0
N1011 N 0.73237 0.15491 0.22469 0.0
C1012 C 0.637 0.09046 0.19377 0.0
C1013 C 0.62347 0.06019 0.21004 0.0
C1014 C 0.64034 0.07526 0.18531 0.0
N1015 N 0.62918 0.08287 0.20592 0.0
C1016 C 0.62648 0.04434 0.20189 0.0
C1017 C 0.63559 0.05207 0.18944 0.0
H1018 H 0.64175 0.10877 0.19086 0.0
H1019 H 0.61736 0.05478 0.2198 0.0
C1020 C 0.61509 0.10242 0.26711 0.0
N1021 N 0.63059 0.10249 0.25801 0.0
C1022 C 0.61877 0.09928 0.27998 0.0
C1023 C 0.6535 0.09523 0.27371 0.0
C1024 C 0.64891 0.09804 0.26097 0.0
C1025 C 0.63873 0.09654 0.28338 0.0
H1026 H 0.60085 0.10628 0.26444 0.0
H1027 H 0.66075 0.09796 0.2535 0.0
O1028 O 0.63005 0.13466 0.21091 0.0
O1029 O 0.62953 0.1444 0.24026 0.0
O1030 O 0.60056 0.09154 0.23035 0.0
O1031 O 0.65708 0.11867 0.2299 0.0
H1032 H 0.63777 0.17827 0.21813 0.0
H1033 H 0.61547 0.12708 0.18676 0.0
H1034 H 0.63096 0.20632 0.20447 0.0
H1035 H 0.60933 0.15612 0.17355 0.0
H1036 H 0.67089 0.18641 0.27595 0.0
H1037 H 0.62346 0.18286 0.23774 0.0
H1038 H 0.65582 0.15084 0.26124 0.0
H1039 H 0.63964 0.21814 0.25271 0.0
H1040 H 0.54581 0.13619 0.20173 0.0
H1041 H 0.55605 0.15766 0.24165 0.0
H1042 H 0.71481 0.21829 0.2006 0.0
H1043 H 0.72534 0.22387 0.24161 0.0
H1044 H 0.56306 0.05427 0.24201 0.0
H1045 H 0.58953 0.09075 0.20577 0.0
H1046 H 0.5241 0.02382 0.2314 0.0
H1047 H 0.5502 0.05975 0.19582 0.0
H1048 H 0.67994 0.12403 0.20782 0.0
H1049 H 0.69053 0.14036 0.24814 0.0
H1050 H 0.72523 0.14611 0.205 0.0
H1051 H 0.73561 0.162 0.24463 0.0
H1052 H 0.64778 0.08212 0.17587 0.0
H1053 H 0.6224 0.02654 0.20541 0.0
H1054 H 0.60719 0.10061 0.28723 0.0
H1055 H 0.66898 0.09304 0.27604 0.0
Li1056 Li 0.51907 0.87968 0.75612 0.0
Li1057 Li 0.53005 0.88935 0.77805 0.0
Li1058 Li 0.5082 0.84655 0.77178 0.0
Li1059 Li 0.48737 0.87164 0.77277 0.0
C1060 C 0.555 0.866 0.75903 0.0
N1061 N 0.58285 0.85334 0.74386 0.0
C1062 C 0.58064 0.87913 0.75998 0.0
C1063 C 0.54354 0.8464 0.75042 0.0
C1064 C 0.59439 0.87246 0.75221 0.0
C1065 C 0.55792 0.84028 0.74283 0.0
C1066 C 0.53236 0.92716 0.76287 0.0
C1067 C 0.54322 0.96812 0.75644 0.0
N1068 N 0.56687 0.97374 0.75461 0.0
C1069 C 0.55677 0.93335 0.76093 0.0
C1070 C 0.52551 0.94466 0.76062 0.0
C1071 C 0.57393 0.95699 0.75675 0.0
C1072 C 0.50945 0.88191 0.73003 0.0
N1073 N 0.5278 0.88797 0.73862 0.0
C1074 C 0.5573 0.8995 0.72177 0.0
C1075 C 0.55154 0.89757 0.73476 0.0
C1076 C 0.5385 0.89195 0.71269 0.0
C1077 C 0.51443 0.88382 0.71691 0.0
H1078 H 0.49076 0.8745 0.73337 0.0
H1079 H 0.56594 0.90286 0.74174 0.0
C1080 C 0.57059 0.9031 0.79325 0.0
N1081 N 0.55538 0.91108 0.78928 0.0
C1082 C 0.59002 0.91749 0.80145 0.0
C1083 C 0.57817 0.94843 0.80115 0.0
C1084 C 0.55859 0.93315 0.7931 0.0
C1085 C 0.59404 0.94049 0.80543 0.0
H1086 H 0.56753 0.88546 0.79002 0.0
H1087 H 0.54607 0.93894 0.78985 0.0
C1088 C 0.46918 0.8294 0.7527 0.0
N1089 N 0.43299 0.78807 0.74027 0.0
C1090 C 0.4454 0.8163 0.75779 0.0
C1091 C 0.4744 0.82163 0.74117 0.0
C1092 C 0.42741 0.79541 0.75141 0.0
C1093 C 0.4559 0.80065 0.73507 0.0
C1094 C 0.50817 0.86629 0.79914 0.0
C1095 C 0.51947 0.85485 0.80512 0.0
C1096 C 0.50481 0.88355 0.80585 0.0
C1097 C 0.52754 0.86113 0.81775 0.0
C1098 C 0.51315 0.88933 0.81847 0.0
N1099 N 0.52426 0.87811 0.8241 0.0
C1100 C 0.52235 0.81059 0.7755 0.0
C1101 C 0.47949 0.79546 0.77541 0.0
C1102 C 0.51824 0.78672 0.77653 0.0
N1103 N 0.50305 0.8144 0.77452 0.0
C1104 C 0.47452 0.77135 0.77646 0.0
C1105 C 0.49403 0.76668 0.77675 0.0
H1106 H 0.54097 0.826 0.77528 0.0
H1107 H 0.46452 0.79905 0.77526 0.0
C1108 C 0.44569 0.87661 0.76814 0.0
N1109 N 0.45641 0.86817 0.77631 0.0
C1110 C 0.42096 0.8696 0.76975 0.0
C1111 C 0.41931 0.84619 0.78838 0.0
C1112 C 0.44403 0.85385 0.7865 0.0
C1113 C 0.40718 0.85347 0.77974 0.0
H1114 H 0.45599 0.8878 0.76005 0.0
H1115 H 0.45294 0.84705 0.79269 0.0
O1116 O 0.54136 0.87268 0.76639 0.0
O1117 O 0.51511 0.90412 0.76693 0.0
O1118 O 0.48696 0.85011 0.75876 0.0
O1119 O 0.50081 0.86093 0.78667 0.0
H1120 H 0.5898 0.89443 0.76657 0.0
H1121 H 0.52377 0.8359 0.74972 0.0
H1122 H 0.61425 0.8825 0.75281 0.0
H1123 H 0.54927 0.82513 0.73613 0.0
H1124 H 0.53817 0.98185 0.75466 0.0
H1125 H 0.56249 0.92013 0.76267 0.0
H1126 H 0.50667 0.94014 0.76207 0.0
H1127 H 0.59288 0.96202 0.75522 0.0
H1128 H 0.57613 0.90619 0.71884 0.0
H1129 H 0.49944 0.87776 0.71017 0.0
H1130 H 0.60209 0.91093 0.80445 0.0
H1131 H 0.5808 0.96608 0.80408 0.0
H1132 H 0.44092 0.82198 0.76666 0.0
H1133 H 0.49246 0.83174 0.73687 0.0
H1134 H 0.409 0.78503 0.75531 0.0
H1135 H 0.45974 0.79444 0.72616 0.0
H1136 H 0.52224 0.84149 0.80001 0.0
H1137 H 0.49615 0.8926 0.80131 0.0
H1138 H 0.53648 0.85256 0.82249 0.0
H1139 H 0.51086 0.9028 0.82376 0.0
H1140 H 0.53383 0.78398 0.77679 0.0
H1141 H 0.45557 0.7565 0.77702 0.0
H1142 H 0.41252 0.87597 0.76295 0.0
H1143 H 0.40951 0.83339 0.79605 0.0
Li1144 Li 0.15249 0.65745 0.77585 0.0
Li1145 Li 0.13317 0.61307 0.77595 0.0
Li1146 Li 0.12088 0.63202 0.75926 0.0
Li1147 Li 0.10913 0.62985 0.78141 0.0
C1148 C 0.16226 0.62497 0.75453 0.0
N1149 N 0.17892 0.60041 0.73939 0.0
C1150 C 0.18739 0.63319 0.75385 0.0
C1151 C 0.1456 0.60421 0.74755 0.0
C1152 C 0.19545 0.62053 0.74613 0.0
C1153 C 0.15438 0.59207 0.73993 0.0
C1154 C 0.14806 0.62671 0.79969 0.0
C1155 C 0.14311 0.59495 0.81427 0.0
N1156 N 0.16734 0.60863 0.81737 0.0
C1157 C 0.17288 0.64051 0.80307 0.0
C1158 C 0.133 0.6038 0.80539 0.0
C1159 C 0.18228 0.63103 0.81201 0.0
C1160 C 0.18831 0.70165 0.78871 0.0
N1161 N 0.18223 0.68795 0.7778 0.0
C1162 C 0.2211 0.71587 0.76839 0.0
C1163 C 0.19784 0.69491 0.76764 0.0
C1164 C 0.22809 0.73003 0.77961 0.0
C1165 C 0.21132 0.72309 0.78979 0.0
H1166 H 0.17563 0.69558 0.7967 0.0
H1167 H 0.19238 0.68384 0.75903 0.0
C1168 C 0.12614 0.56424 0.77742 0.0
N1169 N 0.14221 0.58881 0.77849 0.0
C1170 C 0.1345 0.5476 0.77864 0.0
C1171 C 0.17556 0.58198 0.78211 0.0
C1172 C 0.16649 0.59782 0.78075 0.0
C1173 C 0.15955 0.55651 0.78101 0.0
H1174 H 0.107 0.55759 0.77538 0.0
H1175 H 0.17895 0.61747 0.78122 0.0
C1176 C 0.12378 0.67936 0.77471 0.0
N1177 N 0.12456 0.72048 0.78448 0.0
C1178 C 0.12716 0.68447 0.78782 0.0
C1179 C 0.12078 0.69515 0.76657 0.0
C1180 C 0.12748 0.70534 0.79258 0.0
C1181 C 0.12125 0.71586 0.77169 0.0
C1182 C 0.07547 0.58859 0.77243 0.0
C1183 C 0.05844 0.59216 0.7657 0.0
C1184 C 0.06755 0.57209 0.78266 0.0
C1185 C 0.03373 0.57924 0.76939 0.0
C1186 C 0.04269 0.55953 0.78606 0.0
N1187 N 0.02644 0.56335 0.77942 0.0
C1188 C 0.09637 0.61523 0.73497 0.0
C1189 C 0.12931 0.65644 0.73653 0.0
C1190 C 0.09306 0.61859 0.72205 0.0
N1191 N 0.11425 0.63412 0.74187 0.0
C1192 C 0.12677 0.66057 0.72369 0.0
C1193 C 0.10842 0.64154 0.71625 0.0
H1194 H 0.08481 0.59758 0.73945 0.0
H1195 H 0.1435 0.671 0.74228 0.0
C1196 C 0.08233 0.62173 0.80451 0.0
N1197 N 0.08368 0.62809 0.792 0.0
C1198 C 0.06587 0.62357 0.81274 0.0
C1199 C 0.05196 0.63771 0.79494 0.0
C1200 C 0.06862 0.63552 0.78706 0.0
C1201 C 0.05088 0.6323 0.80804 0.0
H1202 H 0.09466 0.61613 0.80822 0.0
H1203 H 0.07031 0.64073 0.77709 0.0
O1204 O 0.15394 0.63663 0.76237 0.0
O1205 O 0.13858 0.6356 0.79086 0.0
O1206 O 0.12318 0.65894 0.76981 0.0
O1207 O 0.09981 0.60145 0.76914 0.0
H1208 H 0.20051 0.64899 0.75935 0.0
H1209 H 0.12605 0.59731 0.74815 0.0
H1210 H 0.21483 0.62664 0.74554 0.0
H1211 H 0.14169 0.57594 0.73451 0.0
H1212 H 0.13171 0.57717 0.81867 0.0
H1213 H 0.18485 0.6582 0.79873 0.0
H1214 H 0.11381 0.59279 0.80283 0.0
H1215 H 0.20149 0.64145 0.81466 0.0
H1216 H 0.23366 0.72083 0.76036 0.0
H1217 H 0.21633 0.7336 0.79861 0.0
H1218 H 0.1216 0.52808 0.77767 0.0
H1219 H 0.1951 0.58971 0.78357 0.0
H1220 H 0.12942 0.67242 0.79428 0.0
H1221 H 0.11811 0.69141 0.7564 0.0
H1222 H 0.13005 0.7095 0.80271 0.0
H1223 H 0.11896 0.72825 0.7655 0.0
H1224 H 0.06431 0.60511 0.75787 0.0
H1225 H 0.08049 0.56913 0.78798 0.0
H1226 H 0.02038 0.58195 0.76433 0.0
H1227 H 0.03632 0.5468 0.794 0.0
H1228 H 0.07862 0.60345 0.7167 0.0
H1229 H 0.1394 0.67837 0.71959 0.0
H1230 H 0.06547 0.61901 0.82276 0.0
H1231 H 0.04105 0.64488 0.79096 0.0
Li1232 Li 0.33967 0.48077 0.76543 0.0
Li1233 Li 0.38381 0.50525 0.76723 0.0
Li1234 Li 0.36431 0.47196 0.75088 0.0
Li1235 Li 0.36196 0.46263 0.77418 0.0
C1236 C 0.3568 0.51418 0.74363 0.0
N1237 N 0.34423 0.53804 0.72571 0.0
C1238 C 0.36294 0.53858 0.74563 0.0
C1239 C 0.34447 0.50205 0.73242 0.0
C1240 C 0.35636 0.55028 0.73648 0.0
C1241 C 0.33822 0.51439 0.7235 0.0
C1242 C 0.35856 0.50768 0.78864 0.0
C1243 C 0.36037 0.5261 0.80918 0.0
N1244 N 0.35759 0.54371 0.80329 0.0
C1245 C 0.35567 0.52592 0.7828 0.0
C1246 C 0.3609 0.50771 0.80193 0.0
C1247 C 0.35523 0.54398 0.79036 0.0
C1248 C 0.29937 0.47836 0.77903 0.0
N1249 N 0.30946 0.48124 0.76716 0.0
C1250 C 0.2784 0.48763 0.75817 0.0
C1251 C 0.29883 0.48488 0.75676 0.0
C1252 C 0.26858 0.48635 0.77041 0.0
C1253 C 0.27885 0.48093 0.78089 0.0
H1254 H 0.30763 0.47468 0.78712 0.0
H1255 H 0.30619 0.48582 0.74736 0.0
C1256 C 0.4194 0.55287 0.7599 0.0
N1257 N 0.41034 0.53773 0.77019 0.0
C1258 C 0.435 0.57811 0.76163 0.0
C1259 C 0.43322 0.57139 0.78448 0.0
C1260 C 0.41767 0.54627 0.7823 0.0
C1261 C 0.44135 0.58776 0.77409 0.0
H1262 H 0.41333 0.54552 0.75038 0.0
H1263 H 0.41046 0.53382 0.79032 0.0
C1264 C 0.3106 0.43469 0.76044 0.0
N1265 N 0.25985 0.40908 0.75934 0.0
C1266 C 0.29675 0.42305 0.77136 0.0
C1267 C 0.29866 0.43321 0.74894 0.0
C1268 C 0.2711 0.41022 0.77062 0.0
C1269 C 0.27298 0.42019 0.74859 0.0
C1270 C 0.41279 0.48414 0.76957 0.0
C1271 C 0.43229 0.48405 0.76324 0.0
C1272 C 0.4145 0.4892 0.78269 0.0
C1273 C 0.45323 0.48904 0.77016 0.0
C1274 C 0.43574 0.4941 0.78927 0.0
N1275 N 0.45451 0.49391 0.78292 0.0
C1276 C 0.38078 0.47866 0.72526 0.0
C1277 C 0.35014 0.43798 0.73081 0.0
C1278 C 0.37823 0.47233 0.7123 0.0
N1279 N 0.36616 0.46172 0.7341 0.0
C1280 C 0.34695 0.43087 0.71798 0.0
C1281 C 0.36046 0.44839 0.70851 0.0
H1282 H 0.39319 0.49746 0.72819 0.0
H1283 H 0.33885 0.42492 0.73808 0.0
C1284 C 0.34675 0.43605 0.79685 0.0
N1285 N 0.36046 0.43967 0.78615 0.0
C1286 C 0.34291 0.4177 0.80551 0.0
C1287 C 0.3684 0.40795 0.79227 0.0
C1288 C 0.37148 0.42633 0.78376 0.0
C1289 C 0.35353 0.40318 0.80315 0.0
H1290 H 0.33819 0.44696 0.79844 0.0
H1291 H 0.38214 0.42957 0.7751 0.0
O1292 O 0.36365 0.50259 0.75235 0.0
O1293 O 0.35947 0.49002 0.78142 0.0
O1294 O 0.33572 0.44795 0.76107 0.0
O1295 O 0.39222 0.47935 0.76288 0.0
H1296 H 0.37283 0.54851 0.7541 0.0
H1297 H 0.33925 0.48313 0.73072 0.0
H1298 H 0.36097 0.56912 0.73794 0.0
H1299 H 0.32851 0.50513 0.71485 0.0
H1300 H 0.36223 0.52639 0.81948 0.0
H1301 H 0.35365 0.52602 0.77256 0.0
H1302 H 0.36325 0.49375 0.80659 0.0
H1303 H 0.35301 0.55821 0.78596 0.0
H1304 H 0.2706 0.49115 0.74979 0.0
H1305 H 0.27176 0.47972 0.79049 0.0
H1306 H 0.44067 0.59005 0.75335 0.0
H1307 H 0.438 0.57805 0.79422 0.0
H1308 H 0.30569 0.42413 0.78034 0.0
H1309 H 0.30907 0.44233 0.74043 0.0
H1310 H 0.26014 0.40123 0.77901 0.0
H1311 H 0.26349 0.41903 0.73978 0.0
H1312 H 0.43123 0.48018 0.75308 0.0
H1313 H 0.39961 0.48932 0.78777 0.0
H1314 H 0.46846 0.48903 0.76539 0.0
H1315 H 0.43731 0.49804 0.79942 0.0
H1316 H 0.38884 0.48643 0.70529 0.0
H1317 H 0.33329 0.41217 0.71544 0.0
H1318 H 0.33147 0.41461 0.81385 0.0
H1319 H 0.3767 0.39696 0.79013 0.0
Li1320 Li 0.55633 0.85918 0.55312 0.0
Li1321 Li 0.54421 0.84588 0.57546 0.0
Li1322 Li 0.53678 0.81707 0.55784 0.0
Li1323 Li 0.51313 0.83843 0.55867 0.0
C1324 C 0.58039 0.83 0.56553 0.0
N1325 N 0.60151 0.80103 0.56708 0.0
C1326 C 0.58247 0.82099 0.57737 0.0
C1327 C 0.58923 0.82447 0.55449 0.0
C1328 C 0.59317 0.80634 0.57795 0.0
C1329 C 0.59978 0.80972 0.55547 0.0
C1330 C 0.53236 0.88296 0.57303 0.0
C1331 C 0.50706 0.88387 0.59014 0.0
N1332 N 0.51815 0.9087 0.58888 0.0
C1333 C 0.54354 0.90848 0.57192 0.0
C1334 C 0.514 0.87055 0.58222 0.0
C1335 C 0.53608 0.92116 0.58001 0.0
C1336 C 0.57225 0.9012 0.53892 0.0
N1337 N 0.57971 0.88573 0.54312 0.0
C1338 C 0.61862 0.90954 0.53274 0.0
C1339 C 0.60239 0.88946 0.54027 0.0
C1340 C 0.61131 0.9258 0.5282 0.0
C1341 C 0.58771 0.9213 0.53134 0.0
H1342 H 0.55408 0.89771 0.54137 0.0
H1343 H 0.60786 0.87691 0.54384 0.0
C1344 C 0.54203 0.83399 0.60149 0.0
N1345 N 0.55116 0.853 0.59309 0.0
C1346 C 0.54371 0.8385 0.61463 0.0
C1347 C 0.56489 0.88212 0.61022 0.0
C1348 C 0.56317 0.87675 0.59717 0.0
C1349 C 0.55459 0.86283 0.61917 0.0
H1350 H 0.53283 0.81528 0.59794 0.0
H1351 H 0.57048 0.89152 0.59026 0.0
C1352 C 0.53308 0.84138 0.53165 0.0
N1353 N 0.54417 0.86225 0.50756 0.0
C1354 C 0.52016 0.85209 0.52671 0.0
C1355 C 0.55147 0.84108 0.5243 0.0
C1356 C 0.52608 0.86257 0.51451 0.0
C1357 C 0.55687 0.8518 0.51216 0.0
C1358 C 0.49142 0.79627 0.57506 0.0
C1359 C 0.47868 0.77563 0.56717 0.0
C1360 C 0.48118 0.79707 0.58682 0.0
C1361 C 0.45581 0.75631 0.57109 0.0
C1362 C 0.45825 0.77738 0.5904 0.0
N1363 N 0.44614 0.75758 0.58253 0.0
C1364 C 0.52889 0.77052 0.56432 0.0
C1365 C 0.5296 0.7775 0.542 0.0
C1366 C 0.52008 0.74558 0.56222 0.0
N1367 N 0.53265 0.78566 0.55428 0.0
C1368 C 0.521 0.75272 0.53945 0.0
C1369 C 0.51514 0.7362 0.54966 0.0
H1370 H 0.53102 0.77747 0.574 0.0
H1371 H 0.53241 0.7899 0.53421 0.0
C1372 C 0.47668 0.85329 0.55734 0.0
N1373 N 0.48152 0.8348 0.55544 0.0
C1374 C 0.45273 0.84885 0.55611 0.0
C1375 C 0.43956 0.80707 0.54989 0.0
C1376 C 0.46375 0.81237 0.55119 0.0
C1377 C 0.4337 0.82526 0.5527 0.0
H1378 H 0.49122 0.87143 0.55998 0.0
H1379 H 0.46831 0.79849 0.5489 0.0
O1380 O 0.56951 0.84395 0.56474 0.0
O1381 O 0.53987 0.87039 0.56536 0.0
O1382 O 0.52795 0.83154 0.54369 0.0
O1383 O 0.51405 0.8153 0.57147 0.0
H1384 H 0.57575 0.82514 0.58601 0.0
H1385 H 0.58766 0.8312 0.54525 0.0
H1386 H 0.5948 0.79914 0.58704 0.0
H1387 H 0.60654 0.80514 0.54699 0.0
H1388 H 0.49287 0.87448 0.59729 0.0
H1389 H 0.5579 0.91838 0.56491 0.0
H1390 H 0.50518 0.85084 0.58317 0.0
H1391 H 0.54457 0.94092 0.57927 0.0
H1392 H 0.6367 0.91243 0.53061 0.0
H1393 H 0.58105 0.93298 0.52783 0.0
H1394 H 0.53609 0.82306 0.62115 0.0
H1395 H 0.57327 0.90114 0.6132 0.0
H1396 H 0.50592 0.85254 0.53227 0.0
H1397 H 0.56174 0.83299 0.528 0.0
H1398 H 0.51634 0.87105 0.51059 0.0
H1399 H 0.57121 0.8519 0.50641 0.0
H1400 H 0.48615 0.77465 0.55801 0.0
H1401 H 0.49081 0.81266 0.59318 0.0
H1402 H 0.44572 0.74033 0.56503 0.0
H1403 H 0.45011 0.77781 0.59946 0.0
H1404 H 0.51551 0.73355 0.57041 0.0
H1405 H 0.51778 0.74635 0.52962 0.0
H1406 H 0.44903 0.86348 0.5582 0.0
H1407 H 0.42555 0.78886 0.54681 0.0
Li1408 Li 0.14715 0.66259 0.56142 0.0
Li1409 Li 0.1713 0.70698 0.56206 0.0
Li1410 Li 0.13841 0.68376 0.57828 0.0
Li1411 Li 0.12862 0.68618 0.55551 0.0
C1412 C 0.18005 0.67481 0.58315 0.0
N1413 N 0.20247 0.65776 0.59949 0.0
C1414 C 0.20472 0.68174 0.58135 0.0
C1415 C 0.16696 0.65949 0.59342 0.0
C1416 C 0.21567 0.67284 0.58967 0.0
C1417 C 0.17856 0.65097 0.60152 0.0
C1418 C 0.17438 0.68634 0.53917 0.0
C1419 C 0.19377 0.69119 0.51858 0.0
N1420 N 0.21169 0.68856 0.52421 0.0
C1421 C 0.19297 0.68365 0.54473 0.0
C1422 C 0.17476 0.69013 0.52598 0.0
C1423 C 0.21167 0.68483 0.53703 0.0
C1424 C 0.14966 0.62585 0.54604 0.0
N1425 N 0.14731 0.63255 0.55814 0.0
C1426 C 0.14631 0.59699 0.56672 0.0
C1427 C 0.14471 0.61806 0.56831 0.0
C1428 C 0.1504 0.59056 0.55447 0.0
C1429 C 0.15157 0.60499 0.544 0.0
H1430 H 0.15033 0.63677 0.53796 0.0
H1431 H 0.14136 0.6228 0.57771 0.0
C1432 C 0.21859 0.74109 0.57036 0.0
N1433 N 0.20361 0.73435 0.55999 0.0
C1434 C 0.24378 0.7574 0.56902 0.0
C1435 C 0.23735 0.76109 0.54653 0.0
C1436 C 0.21228 0.74458 0.5483 0.0
C1437 C 0.2536 0.767 0.55688 0.0
H1438 H 0.21115 0.73267 0.57954 0.0
H1439 H 0.2 0.73901 0.5402 0.0
C1440 C 0.09942 0.63327 0.56338 0.0
N1441 N 0.07025 0.58477 0.55592 0.0
C1442 C 0.09333 0.62738 0.55048 0.0
C1443 C 0.09074 0.61448 0.57247 0.0
C1444 C 0.07854 0.60276 0.54691 0.0
C1445 C 0.076 0.59008 0.56851 0.0
C1446 C 0.14898 0.73547 0.56352 0.0
C1447 C 0.14639 0.75186 0.57147 0.0
C1448 C 0.15549 0.74148 0.55068 0.0
C1449 C 0.15035 0.77406 0.56643 0.0
C1450 C 0.1593 0.76385 0.54599 0.0
N1451 N 0.15667 0.77954 0.5539 0.0
C1452 C 0.14661 0.69951 0.60377 0.0
C1453 C 0.1075 0.66432 0.59991 0.0
C1454 C 0.14236 0.69718 0.61695 0.0
N1455 N 0.12948 0.68287 0.59563 0.0
C1456 C 0.10258 0.66113 0.61303 0.0
C1457 C 0.1204 0.67734 0.62177 0.0
H1458 H 0.16396 0.71401 0.60004 0.0
H1459 H 0.09422 0.65143 0.59318 0.0
C1460 C 0.10978 0.69271 0.5323 0.0
N1461 N 0.10488 0.68696 0.54489 0.0
C1462 C 0.09117 0.68995 0.52408 0.0
C1463 C 0.06309 0.67624 0.54208 0.0
C1464 C 0.08228 0.67933 0.54995 0.0
C1465 C 0.06729 0.681 0.5289 0.0
H1466 H 0.12792 0.69863 0.52855 0.0
H1467 H 0.07894 0.67464 0.55999 0.0
O1468 O 0.16918 0.68391 0.5753 0.0
O1469 O 0.1562 0.68587 0.54658 0.0
O1470 O 0.11449 0.65723 0.56699 0.0
O1471 O 0.14519 0.71371 0.56834 0.0
H1472 H 0.21544 0.694 0.57367 0.0
H1473 H 0.14786 0.65377 0.59498 0.0
H1474 H 0.23471 0.67802 0.58834 0.0
H1475 H 0.16853 0.63893 0.60941 0.0
H1476 H 0.1943 0.69416 0.50836 0.0
H1477 H 0.19284 0.6805 0.55486 0.0
H1478 H 0.16059 0.69232 0.52149 0.0
H1479 H 0.22615 0.68276 0.54123 0.0
H1480 H 0.14517 0.58632 0.57506 0.0
H1481 H 0.15414 0.60033 0.53435 0.0
H1482 H 0.25556 0.76118 0.57725 0.0
H1483 H 0.24406 0.76837 0.53705 0.0
H1484 H 0.10027 0.64162 0.54327 0.0
H1485 H 0.09567 0.61864 0.58245 0.0
H1486 H 0.07375 0.59793 0.53696 0.0
H1487 H 0.06925 0.57535 0.57544 0.0
H1488 H 0.14137 0.74746 0.58144 0.0
H1489 H 0.1576 0.72904 0.5444 0.0
H1490 H 0.14841 0.78693 0.57247 0.0
H1491 H 0.16435 0.76873 0.53607 0.0
H1492 H 0.15642 0.71043 0.6233 0.0
H1493 H 0.0855 0.64545 0.61627 0.0
H1494 H 0.09524 0.69408 0.51401 0.0
H1495 H 0.0449 0.66896 0.54616 0.0
Li1496 Li 0.27506 0.45401 0.55773 0.0
Li1497 Li 0.32051 0.47811 0.55613 0.0
Li1498 Li 0.2966 0.43513 0.55031 0.0
Li1499 Li 0.29971 0.44634 0.57317 0.0
C1500 C 0.29795 0.45888 0.52972 0.0
N1501 N 0.30247 0.44843 0.50449 0.0
C1502 C 0.32068 0.47175 0.5235 0.0
C1503 C 0.27746 0.44087 0.52307 0.0
C1504 C 0.3226 0.46616 0.51075 0.0
C1505 C 0.28015 0.4358 0.51034 0.0
C1506 C 0.30228 0.49811 0.57555 0.0
C1507 C 0.31808 0.52936 0.59201 0.0
N1508 N 0.30828 0.54129 0.58582 0.0
C1509 C 0.2923 0.51068 0.56939 0.0
C1510 C 0.3152 0.50749 0.587 0.0
C1511 C 0.29555 0.53247 0.57471 0.0
C1512 C 0.23628 0.45885 0.56765 0.0
N1513 N 0.24714 0.45779 0.5566 0.0
C1514 C 0.2242 0.47129 0.5445 0.0
C1515 C 0.24103 0.46317 0.54511 0.0
C1516 C 0.21383 0.47406 0.55585 0.0
C1517 C 0.21938 0.46688 0.56749 0.0
H1518 H 0.24191 0.45495 0.57668 0.0
H1519 H 0.25036 0.46266 0.53652 0.0
C1520 C 0.37153 0.51334 0.55128 0.0
N1521 N 0.34843 0.50975 0.55235 0.0
C1522 C 0.39173 0.53703 0.54967 0.0
C1523 C 0.36383 0.55263 0.54927 0.0
C1524 C 0.34425 0.52868 0.55083 0.0
C1525 C 0.388 0.55711 0.549 0.0
H1526 H 0.37445 0.49795 0.55184 0.0
H1527 H 0.32569 0.52523 0.55089 0.0
C1528 C 0.24557 0.40955 0.56567 0.0
N1529 N 0.19556 0.38648 0.57017 0.0
C1530 C 0.2366 0.40572 0.57821 0.0
C1531 C 0.22911 0.40142 0.55542 0.0
C1532 C 0.21125 0.39407 0.58029 0.0
C1533 C 0.20389 0.38987 0.55789 0.0
C1534 C 0.34824 0.45922 0.56755 0.0
C1535 C 0.36226 0.44817 0.56521 0.0
C1536 C 0.35614 0.47798 0.57667 0.0
C1537 C 0.38401 0.45613 0.57205 0.0
C1538 C 0.37799 0.48541 0.58331 0.0
N1539 N 0.39135 0.47442 0.58088 0.0
C1540 C 0.31949 0.41973 0.53326 0.0
C1541 C 0.27777 0.38933 0.53692 0.0
C1542 C 0.32235 0.40421 0.52486 0.0
N1543 N 0.29747 0.41215 0.539 0.0
C1544 C 0.27988 0.37302 0.52865 0.0
C1545 C 0.30242 0.3805 0.52249 0.0
H1546 H 0.33488 0.43788 0.53527 0.0
H1547 H 0.26054 0.38375 0.54174 0.0
C1548 C 0.29368 0.44716 0.59968 0.0
N1549 N 0.30291 0.43902 0.59038 0.0
C1550 C 0.29837 0.44525 0.61253 0.0
C1551 C 0.32114 0.42568 0.606 0.0
C1552 C 0.31577 0.42774 0.59327 0.0
C1553 C 0.31287 0.43502 0.61582 0.0
H1554 H 0.28321 0.45574 0.59708 0.0
H1555 H 0.32266 0.42117 0.58568 0.0
O1556 O 0.29585 0.46369 0.54229 0.0
O1557 O 0.29884 0.47641 0.57064 0.0
O1558 O 0.27034 0.42127 0.56345 0.0
O1559 O 0.32671 0.45133 0.56108 0.0
H1560 H 0.33673 0.48572 0.5285 0.0
H1561 H 0.25975 0.43072 0.52775 0.0
H1562 H 0.3401 0.47586 0.50583 0.0
H1563 H 0.26449 0.42177 0.50511 0.0
H1564 H 0.32806 0.53681 0.60085 0.0
H1565 H 0.28249 0.50397 0.56046 0.0
H1566 H 0.32288 0.49801 0.59202 0.0
H1567 H 0.28801 0.5424 0.56999 0.0
H1568 H 0.2207 0.47695 0.53536 0.0
H1569 H 0.21165 0.46859 0.57644 0.0
H1570 H 0.41007 0.53967 0.54935 0.0
H1571 H 0.36011 0.56752 0.54835 0.0
H1572 H 0.24908 0.41179 0.58626 0.0
H1573 H 0.23576 0.40427 0.54565 0.0
H1574 H 0.20405 0.39109 0.58994 0.0
H1575 H 0.19095 0.38365 0.55004 0.0
H1576 H 0.35633 0.43356 0.55821 0.0
H1577 H 0.34558 0.48677 0.57853 0.0
H1578 H 0.39504 0.44773 0.57034 0.0
H1579 H 0.38431 0.49993 0.59038 0.0
H1580 H 0.34016 0.41049 0.5205 0.0
H1581 H 0.26414 0.35484 0.52706 0.0
H1582 H 0.29109 0.45214 0.61979 0.0
H1583 H 0.33246 0.41776 0.60807 0.0
C1584 C 0.36584 0.35163 0.1904 0.0
C1585 C 0.38812 0.35729 0.18454 0.0
C1586 C 0.34414 0.34218 0.18323 0.0
C1587 C 0.34487 0.33841 0.1699 0.0
C1588 C 0.36763 0.34571 0.16382 0.0
C1589 C 0.389 0.355 0.17123 0.0
C1590 C 0.32022 0.33459 0.19006 0.0
C1591 C 0.3692 0.34222 0.1496 0.0
C1592 C 0.28934 0.28444 0.15461 0.0
C1593 C 0.27868 0.29599 0.14801 0.0
C1594 C 0.31063 0.29807 0.16192 0.0
C1595 C 0.32162 0.32394 0.16264 0.0
C1596 C 0.31082 0.33575 0.15617 0.0
C1597 C 0.28944 0.32161 0.1489 0.0
C1598 C 0.32164 0.28477 0.16866 0.0
C1599 C 0.32202 0.3633 0.15679 0.0
H1600 H 0.36506 0.35321 0.20071 0.0
H1601 H 0.40631 0.35969 0.16667 0.0
H1602 H 0.3094 0.34113 0.18479 0.0
H1603 H 0.309 0.31422 0.19043 0.0
H1604 H 0.32319 0.34181 0.20001 0.0
H1605 H 0.38852 0.35157 0.14613 0.0
H1606 H 0.36046 0.3223 0.14742 0.0
H1607 H 0.35907 0.34937 0.14419 0.0
H1608 H 0.28139 0.26471 0.15377 0.0
H1609 H 0.28114 0.33059 0.1439 0.0
H1610 H 0.32348 0.28908 0.17905 0.0
H1611 H 0.34036 0.29111 0.16486 0.0
H1612 H 0.31037 0.2645 0.16745 0.0
H1613 H 0.32394 0.36942 0.1669 0.0
H1614 H 0.31086 0.36955 0.15159 0.0
H1615 H 0.34076 0.37249 0.15256 0.0
C1616 C 0.71397 0.01852 0.1454 0.0
C1617 C 0.7042 0.99395 0.14165 0.0
C1618 C 0.7003 0.02571 0.15293 0.0
C1619 C 0.6762 0.0079 0.15679 0.0
C1620 C 0.66601 0.98311 0.15287 0.0
C1621 C 0.68016 0.97641 0.14532 0.0
C1622 C 0.71179 0.05237 0.15686 0.0
C1623 C 0.64036 0.96367 0.15682 0.0
C1624 C 0.65542 0.02674 0.18651 0.0
C1625 C 0.64253 0.0373 0.18123 0.0
C1626 C 0.66526 0.01576 0.17869 0.0
C1627 C 0.66219 0.01538 0.16526 0.0
C1628 C 0.648 0.02473 0.15993 0.0
C1629 C 0.63835 0.03561 0.16799 0.0
C1630 C 0.68029 0.006 0.18474 0.0
C1631 C 0.64419 0.02448 0.14566 0.0
H1632 H 0.73235 0.03223 0.14236 0.0
H1633 H 0.67258 0.95737 0.1425 0.0
H1634 H 0.70017 0.05983 0.15362 0.0
H1635 H 0.71292 0.05391 0.16746 0.0
H1636 H 0.73058 0.06397 0.15285 0.0
H1637 H 0.63472 0.94546 0.15248 0.0
H1638 H 0.63938 0.96173 0.16739 0.0
H1639 H 0.62696 0.96922 0.15399 0.0
H1640 H 0.65898 0.02822 0.19671 0.0
H1641 H 0.62808 0.04342 0.16388 0.0
H1642 H 0.69996 0.01812 0.1822 0.0
H1643 H 0.67452 0.98735 0.18103 0.0
H1644 H 0.6786 0.00512 0.19534 0.0
H1645 H 0.66185 0.03763 0.14097 0.0
H1646 H 0.63035 0.02971 0.14318 0.0
H1647 H 0.63817 0.006 0.14163 0.0
C1648 C 0.96528 0.63857 0.19475 0.0
C1649 C 0.96573 0.61725 0.19148 0.0
C1650 C 0.97593 0.65919 0.18676 0.0
C1651 C 0.9875 0.65854 0.17525 0.0
C1652 C 0.98921 0.63757 0.17223 0.0
C1653 C 0.97807 0.61702 0.18034 0.0
C1654 C 0.97342 0.68107 0.19025 0.0
C1655 C 0.00181 0.63643 0.16015 0.0
C1656 C 0.98422 0.69752 0.14884 0.0
C1657 C 0.00703 0.71931 0.14998 0.0
C1658 C 0.97803 0.6773 0.15671 0.0
C1659 C 0.99523 0.6787 0.16582 0.0
C1660 C 0.01879 0.70012 0.16657 0.0
C1661 C 0.02438 0.72027 0.15867 0.0
C1662 C 0.95265 0.65481 0.15564 0.0
C1663 C 0.0377 0.7021 0.17605 0.0
H1664 H 0.95545 0.63869 0.20326 0.0
H1665 H 0.97859 0.6006 0.17785 0.0
H1666 H 0.99157 0.69826 0.18981 0.0
H1667 H 0.96124 0.68283 0.18325 0.0
H1668 H 0.96558 0.67941 0.19999 0.0
H1669 H 0.0045 0.62035 0.16007 0.0
H1670 H 0.99055 0.63507 0.15172 0.0
H1671 H 0.01996 0.65346 0.15905 0.0
H1672 H 0.97096 0.69639 0.1419 0.0
H1673 H 0.04203 0.73705 0.15963 0.0
H1674 H 0.94237 0.65223 0.1647 0.0
H1675 H 0.95398 0.63813 0.15414 0.0
H1676 H 0.94187 0.65624 0.14766 0.0
H1677 H 0.03171 0.70321 0.1859 0.0
H1678 H 0.05606 0.7186 0.17433 0.0
H1679 H 0.03945 0.68548 0.17558 0.0
C1680 C 0.36646 0.37903 0.81667 0.0
C1681 C 0.34774 0.3822 0.81161 0.0
C1682 C 0.36088 0.35941 0.82498 0.0
C1683 C 0.33601 0.3425 0.82807 0.0
C1684 C 0.31705 0.34536 0.82269 0.0
C1685 C 0.32318 0.36527 0.8146 0.0
C1686 C 0.38154 0.3571 0.83069 0.0
C1687 C 0.29026 0.32752 0.8256 0.0
C1688 C 0.31315 0.27866 0.84122 0.0
C1689 C 0.30764 0.28147 0.85393 0.0
C1690 C 0.32383 0.29875 0.83281 0.0
C1691 C 0.32946 0.32223 0.83728 0.0
C1692 C 0.32574 0.32555 0.85032 0.0
C1693 C 0.31468 0.30511 0.85846 0.0
C1694 C 0.32747 0.29447 0.81895 0.0
C1695 C 0.3318 0.35038 0.8555 0.0
H1696 H 0.38547 0.39221 0.81436 0.0
H1697 H 0.30869 0.36755 0.81051 0.0
H1698 H 0.38165 0.35925 0.84124 0.0
H1699 H 0.3787 0.33855 0.82874 0.0
H1700 H 0.39981 0.3711 0.82686 0.0
H1701 H 0.27777 0.33176 0.82018 0.0
H1702 H 0.28562 0.30849 0.82323 0.0
H1703 H 0.28672 0.328 0.83598 0.0
H1704 H 0.30828 0.26058 0.8377 0.0
H1705 H 0.31029 0.30757 0.86819 0.0
H1706 H 0.34601 0.30865 0.81557 0.0
H1707 H 0.31381 0.296 0.81297 0.0
H1708 H 0.32519 0.27601 0.81736 0.0
H1709 H 0.35033 0.36485 0.85226 0.0
H1710 H 0.33121 0.35061 0.86613 0.0
H1711 H 0.31835 0.3552 0.85178 0.0
C1712 C 0.723 0.99578 0.83607 0.0
C1713 C 0.72798 0.01021 0.8471 0.0
C1714 C 0.70136 0.98802 0.82911 0.0
C1715 C 0.68419 0.99465 0.8334 0.0
C1716 C 0.68975 0.01034 0.84415 0.0
C1717 C 0.71173 0.01806 0.85086 0.0
C1718 C 0.69627 0.9716 0.81759 0.0
C1719 C 0.67186 0.0177 0.84902 0.0
C1720 C 0.63283 0.98003 0.80992 0.0
C1721 C 0.61528 0.95614 0.81371 0.0
C1722 C 0.65501 0.99351 0.81665 0.0
C1723 C 0.65945 0.98282 0.82744 0.0
C1724 C 0.64101 0.95934 0.83177 0.0
C1725 C 0.61919 0.94622 0.82479 0.0
C1726 C 0.67427 0.01845 0.81174 0.0
C1727 C 0.64487 0.94744 0.84335 0.0
H1728 H 0.73577 0.98999 0.8331 0.0
H1729 H 0.71558 0.02915 0.85944 0.0
H1730 H 0.68082 0.95285 0.81975 0.0
H1731 H 0.69068 0.9786 0.80931 0.0
H1732 H 0.71252 0.97022 0.81477 0.0
H1733 H 0.6803 0.03256 0.85632 0.0
H1734 H 0.6649 0.02398 0.84102 0.0
H1735 H 0.65578 0.00152 0.85341 0.0
H1736 H 0.6298 0.98761 0.80129 0.0
H1737 H 0.60543 0.92782 0.82777 0.0
H1738 H 0.68958 0.01711 0.80735 0.0
H1739 H 0.68211 0.03191 0.81971 0.0
H1740 H 0.66675 0.02558 0.80443 0.0
H1741 H 0.6593 0.94282 0.84122 0.0
H1742 H 0.62782 0.93032 0.84621 0.0
H1743 H 0.65134 0.96036 0.85159 0.0
C1744 C 0.01298 0.634 0.8135 0.0
C1745 C 0.03636 0.63843 0.81693 0.0
C1746 C 0.00072 0.64291 0.82106 0.0
C1747 C 0.01223 0.65664 0.83225 0.0
C1748 C 0.0352 0.65999 0.83611 0.0
C1749 C 0.04698 0.65087 0.8284 0.0
C1750 C 0.97611 0.63874 0.81673 0.0
C1751 C 0.04812 0.67459 0.84797 0.0
C1752 C 0.00301 0.70845 0.84331 0.0
C1753 C 0.98914 0.69863 0.8545 0.0
C1754 C 0.00953 0.69446 0.83561 0.0
C1755 C 0.0019 0.66998 0.83916 0.0
C1756 C 0.98661 0.65945 0.85001 0.0
C1757 C 0.98039 0.67395 0.85759 0.0
C1758 C 0.02573 0.70635 0.82405 0.0
C1759 C 0.97797 0.63336 0.85403 0.0
H1760 H 0.00455 0.62412 0.80472 0.0
H1761 H 0.06518 0.65467 0.83104 0.0
H1762 H 0.96293 0.63254 0.82484 0.0
H1763 H 0.97829 0.65629 0.8132 0.0
H1764 H 0.96813 0.6249 0.80891 0.0
H1765 H 0.06476 0.67359 0.85027 0.0
H1766 H 0.05375 0.69417 0.84653 0.0
H1767 H 0.03551 0.66781 0.85632 0.0
H1768 H 0.00935 0.72739 0.84076 0.0
H1769 H 0.96968 0.66632 0.86625 0.0
H1770 H 0.01765 0.69461 0.81545 0.0
H1771 H 0.04401 0.70831 0.82566 0.0
H1772 H 0.02843 0.72483 0.82205 0.0
H1773 H 0.97071 0.62074 0.84568 0.0
H1774 H 0.96347 0.62683 0.86152 0.0
H1775 H 0.99374 0.63226 0.85787 0.0
C1776 C 0.95605 0.64155 0.47909 0.0
C1777 C 0.93862 0.61706 0.48202 0.0
C1778 C 0.97704 0.655 0.48672 0.0
C1779 C 0.98058 0.64362 0.4975 0.0
C1780 C 0.96246 0.6193 0.50082 0.0
C1781 C 0.9417 0.60634 0.49305 0.0
C1782 C 0.99592 0.68094 0.48293 0.0
C1783 C 0.9655 0.60656 0.51228 0.0
C1784 C 0.04443 0.66151 0.50874 0.0
C1785 C 0.04641 0.6743 0.5201 0.0
C1786 C 0.02352 0.65241 0.501 0.0
C1787 C 0.00408 0.65615 0.5047 0.0
C1788 C 0.00639 0.66999 0.51585 0.0
C1789 C 0.02754 0.67886 0.52345 0.0
C1790 C 0.02173 0.63768 0.48919 0.0
C1791 C 0.98611 0.67452 0.52003 0.0
H1792 H 0.9538 0.64987 0.47054 0.0
H1793 H 0.928 0.58757 0.49548 0.0
H1794 H 0.00113 0.69344 0.49131 0.0
H1795 H 0.01284 0.68145 0.4795 0.0
H1796 H 0.98916 0.68805 0.47521 0.0
H1797 H 0.94898 0.58823 0.51403 0.0
H1798 H 0.98153 0.60409 0.51076 0.0
H1799 H 0.96921 0.618 0.521 0.0
H1800 H 0.05875 0.65759 0.50618 0.0
H1801 H 0.02912 0.68899 0.53215 0.0
H1802 H 0.01676 0.64483 0.48074 0.0
H1803 H 0.00696 0.61825 0.49053 0.0
H1804 H 0.0392 0.63808 0.4871 0.0
H1805 H 0.98024 0.68165 0.51193 0.0
H1806 H 0.99182 0.68779 0.52811 0.0
H1807 H 0.96985 0.65693 0.52309 0.0
C1808 C 0.31864 0.37226 0.50246 0.0
C1809 C 0.30586 0.3636 0.51404 0.0
C1810 C 0.32569 0.35803 0.49532 0.0
C1811 C 0.3198 0.33457 0.49988 0.0
C1812 C 0.30538 0.325 0.51109 0.0
C1813 C 0.29855 0.33968 0.51807 0.0
C1814 C 0.34088 0.36884 0.48334 0.0
C1815 C 0.29859 0.29999 0.51619 0.0
C1816 C 0.33381 0.29737 0.47633 0.0
C1817 C 0.35793 0.3043 0.47984 0.0
C1818 C 0.32044 0.30591 0.48321 0.0
C1819 C 0.33154 0.32178 0.49381 0.0
C1820 C 0.35531 0.32765 0.49783 0.0
C1821 C 0.36821 0.31889 0.49079 0.0
C1822 C 0.29503 0.29903 0.47875 0.0
C1823 C 0.36781 0.34452 0.50909 0.0
H1824 H 0.32391 0.39059 0.49922 0.0
H1825 H 0.28871 0.33296 0.52704 0.0
H1826 H 0.35991 0.37281 0.48503 0.0
H1827 H 0.3332 0.35553 0.47531 0.0
H1828 H 0.34176 0.38618 0.48042 0.0
H1829 H 0.2841 0.29361 0.52369 0.0
H1830 H 0.29206 0.28619 0.50836 0.0
H1831 H 0.3151 0.30085 0.52043 0.0
H1832 H 0.32564 0.28582 0.46798 0.0
H1833 H 0.38694 0.32466 0.49349 0.0
H1834 H 0.29566 0.31524 0.47426 0.0
H1835 H 0.28212 0.29345 0.48697 0.0
H1836 H 0.28765 0.28382 0.47163 0.0
H1837 H 0.37182 0.36334 0.50676 0.0
H1838 H 0.38535 0.3455 0.51166 0.0
H1839 H 0.35554 0.33822 0.51759 0.0
C1840 C 0.69122 0.0446 0.48368 0.0
C1841 C 0.67441 0.04232 0.47425 0.0
C1842 C 0.68527 0.02545 0.49239 0.0
C1843 C 0.66186 0.00381 0.49173 0.0
C1844 C 0.6455 0.00085 0.48174 0.0
C1845 C 0.6521 0.02003 0.47305 0.0
C1846 C 0.70344 0.02898 0.50271 0.0
C1847 C 0.62032 0.97808 0.4807 0.0
C1848 C 0.6414 0.94478 0.51005 0.0
C1849 C 0.6277 0.94712 0.52 0.0
C1850 C 0.65426 0.9639 0.50123 0.0
C1851 C 0.65298 0.98558 0.50228 0.0
C1852 C 0.64045 0.9886 0.51275 0.0
C1853 C 0.6282 0.96945 0.52155 0.0
C1854 C 0.66799 0.96031 0.49038 0.0
C1855 C 0.63857 0.01142 0.51423 0.0
H1856 H 0.70852 0.06175 0.48467 0.0
H1857 H 0.63933 0.01788 0.46554 0.0
H1858 H 0.69743 0.03298 0.51195 0.0
H1859 H 0.70429 0.01199 0.50401 0.0
H1860 H 0.7222 0.04446 0.50051 0.0
H1861 H 0.6105 0.97797 0.47188 0.0
H1862 H 0.62181 0.96132 0.48075 0.0
H1863 H 0.60901 0.97703 0.48911 0.0
H1864 H 0.64114 0.9276 0.50879 0.0
H1865 H 0.61826 0.97165 0.52943 0.0
H1866 H 0.68602 0.97726 0.48877 0.0
H1867 H 0.65722 0.95634 0.48142 0.0
H1868 H 0.6711 0.94478 0.49222 0.0
H1869 H 0.6571 0.02814 0.51386 0.0
H1870 H 0.62955 0.01156 0.52335 0.0
H1871 H 0.62776 0.01253 0.50617 0.0
C1872 C 0.02942 0.18208 0.10456 0.0
C1873 C 0.04427 0.17653 0.11211 0.0
C1874 C 0.00378 0.1664 0.10431 0.0
C1875 C 0.99291 0.14449 0.11162 0.0
C1876 C 0.0077 0.13956 0.1198 0.0
C1877 C 0.03319 0.15571 0.11999 0.0
C1878 C 0.98854 0.17254 0.09568 0.0
C1879 C 0.99689 0.11627 0.12764 0.0
C1880 C 0.92388 0.10358 0.11625 0.0
C1881 C 0.91822 0.08535 0.10695 0.0
C1882 C 0.94796 0.1236 0.11757 0.0
C1883 C 0.96681 0.12521 0.10952 0.0
C1884 C 0.96104 0.10729 0.09987 0.0
C1885 C 0.93683 0.08775 0.09863 0.0
C1886 C 0.95338 0.14259 0.12783 0.0
C1887 C 0.98062 0.10826 0.09111 0.0
H1888 H 0.03794 0.1983 0.09854 0.0
H1889 H 0.04461 0.15116 0.12572 0.0
H1890 H 0.98243 0.16012 0.08724 0.0
H1891 H 0.97179 0.16965 0.10075 0.0
H1892 H 0.99905 0.19183 0.09223 0.0
H1893 H 0.01044 0.11636 0.13443 0.0
H1894 H 0.98069 0.11368 0.13314 0.0
H1895 H 0.99051 0.10021 0.12114 0.0
H1896 H 0.90967 0.10184 0.12275 0.0
H1897 H 0.93251 0.07414 0.0912 0.0
H1898 H 0.96406 0.16139 0.12378 0.0
H1899 H 0.96479 0.1411 0.13542 0.0
H1900 H 0.93633 0.14027 0.1323 0.0
H1901 H 0.99023 0.12612 0.08601 0.0
H1902 H 0.97296 0.09324 0.08388 0.0
H1903 H 0.9946 0.10681 0.09684 0.0
C1904 C 0.81406 0.8556 0.11657 0.0
C1905 C 0.82011 0.87345 0.10706 0.0
C1906 C 0.82896 0.84533 0.11872 0.0
C1907 C 0.85041 0.85321 0.11122 0.0
C1908 C 0.85611 0.87057 0.10134 0.0
C1909 C 0.84096 0.88049 0.09941 0.0
C1910 C 0.82223 0.82671 0.12928 0.0
C1911 C 0.87885 0.87953 0.09313 0.0
C1912 C 0.90699 0.85361 0.12336 0.0
C1913 C 0.90649 0.8346 0.11613 0.0
C1914 C 0.888 0.85891 0.12244 0.0
C1915 C 0.86799 0.84479 0.11412 0.0
C1916 C 0.86659 0.82458 0.10743 0.0
C1917 C 0.8859 0.81974 0.10849 0.0
C1918 C 0.89013 0.88055 0.1298 0.0
C1919 C 0.84549 0.80903 0.09851 0.0
H1920 H 0.79789 0.84995 0.12246 0.0
H1921 H 0.84613 0.89464 0.09223 0.0
H1922 H 0.82243 0.81028 0.12564 0.0
H1923 H 0.83606 0.83478 0.13705 0.0
H1924 H 0.8038 0.82078 0.13341 0.0
H1925 H 0.87987 0.89199 0.08537 0.0
H1926 H 0.89552 0.88956 0.09918 0.0
H1927 H 0.87925 0.86371 0.08874 0.0
H1928 H 0.92262 0.86484 0.12948 0.0
H1929 H 0.88544 0.8051 0.10283 0.0
H1930 H 0.87276 0.8752 0.13498 0.0
H1931 H 0.89339 0.89541 0.12301 0.0
H1932 H 0.90545 0.88806 0.13681 0.0
H1933 H 0.82766 0.80385 0.10314 0.0
H1934 H 0.84526 0.79202 0.0955 0.0
H1935 H 0.8471 0.81981 0.08982 0.0
C1936 C 0.13565 0.06478 0.1087 0.0
C1937 C 0.15867 0.0842 0.11245 0.0
C1938 C 0.12933 0.0403 0.11052 0.0
C1939 C 0.14663 0.03509 0.11605 0.0
C1940 C 0.16995 0.05465 0.11989 0.0
C1941 C 0.17563 0.07908 0.11815 0.0
C1942 C 0.10409 0.02001 0.10649 0.0
C1943 C 0.18896 0.04977 0.12563 0.0
C1944 C 0.11644 0.97042 0.12916 0.0
C1945 C 0.11722 0.95732 0.11845 0.0
C1946 C 0.12746 0.9961 0.12887 0.0
C1947 C 0.13994 0.00903 0.11767 0.0
C1948 C 0.14276 0.99617 0.10729 0.0
C1949 C 0.13122 0.97044 0.10776 0.0
C1950 C 0.12398 0.00908 0.14014 0.0
C1951 C 0.15632 0.00936 0.09526 0.0
H1952 H 0.12245 0.0688 0.10443 0.0
H1953 H 0.19349 0.09417 0.12098 0.0
H1954 H 0.10581 0.00847 0.09899 0.0
H1955 H 0.09439 0.00789 0.11476 0.0
H1956 H 0.09258 0.02722 0.10268 0.0
H1957 H 0.20603 0.067 0.12834 0.0
H1958 H 0.18139 0.03804 0.13425 0.0
H1959 H 0.19376 0.03955 0.11865 0.0
H1960 H 0.10619 0.96048 0.13759 0.0
H1961 H 0.1319 0.96057 0.09941 0.0
H1962 H 0.11066 0.0149 0.13755 0.0
H1963 H 0.14154 0.0259 0.14267 0.0
H1964 H 0.11689 0.99707 0.14871 0.0
H1965 H 0.14492 0.0149 0.08975 0.0
H1966 H 0.16038 0.99755 0.08903 0.0
H1967 H 0.17384 0.02634 0.09765 0.0
C1968 C 0.08202 0.93686 0.89238 0.0
C1969 C 0.08667 0.91875 0.88777 0.0
C1970 C 0.10022 0.96177 0.89201 0.0
C1971 C 0.12359 0.96877 0.88676 0.0
C1972 C 0.1285 0.95054 0.88219 0.0
C1973 C 0.10997 0.92564 0.88284 0.0
C1974 C 0.09434 0.98061 0.89717 0.0
C1975 C 0.15309 0.95738 0.87638 0.0
C1976 C 0.15578 0.03475 0.8756 0.0
C1977 C 0.17047 0.04701 0.88621 0.0
C1978 C 0.14187 0.00901 0.87519 0.0
C1979 C 0.14237 0.99532 0.88577 0.0
C1980 C 0.15846 0.00761 0.89613 0.0
C1981 C 0.17249 0.03341 0.89619 0.0
C1982 C 0.1253 0.9966 0.86385 0.0
C1983 C 0.15937 0.9937 0.90763 0.0
H1984 H 0.0641 0.93147 0.89638 0.0
H1985 H 0.11351 0.91159 0.87925 0.0
H1986 H 0.10793 0.9921 0.90458 0.0
H1987 H 0.09561 0.99306 0.88935 0.0
H1988 H 0.07562 0.972 0.90142 0.0
H1989 H 0.15427 0.94096 0.8737 0.0
H1990 H 0.1563 0.96868 0.86768 0.0
H1991 H 0.1681 0.96873 0.8832 0.0
H1992 H 0.15439 0.04537 0.86785 0.0
H1993 H 0.18375 0.04298 0.90443 0.0
H1994 H 0.10589 0.9895 0.8667 0.0
H1995 H 0.12682 0.98067 0.86059 0.0
H1996 H 0.1297 0.00941 0.85568 0.0
H1997 H 0.14214 0.98674 0.91324 0.0
H1998 H 0.17516 0.00546 0.91398 0.0
H1999 H 0.16066 0.97753 0.90461 0.0
C2000 C 0.06906 0.14748 0.88007 0.0
C2001 C 0.08813 0.17111 0.88328 0.0
C2002 C 0.04472 0.14219 0.87924 0.0
C2003 C 0.03929 0.16099 0.88176 0.0
C2004 C 0.05863 0.18522 0.88436 0.0
C2005 C 0.08293 0.19003 0.88506 0.0
C2006 C 0.02469 0.11616 0.87628 0.0
C2007 C 0.05354 0.20571 0.88708 0.0
C2008 C 0.97432 0.14298 0.87236 0.0
C2009 C 0.96149 0.13228 0.88375 0.0
C2010 C 2e-05 0.15402 0.87173 0.0
C2011 C 0.01315 0.15442 0.88277 0.0
C2012 C 0.00051 0.14532 0.89451 0.0
C2013 C 0.97485 0.13429 0.89485 0.0
C2014 C 0.01286 0.1637 0.85906 0.0
C2015 C 0.01384 0.14551 0.90653 0.0
H2016 H 0.07315 0.13294 0.87849 0.0
H2017 H 0.09769 0.2083 0.88757 0.0
H2018 H 0.0126 0.10812 0.88477 0.0
H2019 H 0.01307 0.11602 0.86831 0.0
H2020 H 0.03219 0.10418 0.87363 0.0
H2021 H 0.07067 0.22401 0.88722 0.0
H2022 H 0.04089 0.20592 0.87981 0.0
H2023 H 0.04436 0.20262 0.89653 0.0
H2024 H 0.96417 0.14188 0.86379 0.0
H2025 H 0.96517 0.12585 0.90367 0.0
H2026 H 0.01833 0.15084 0.85508 0.0
H2027 H 0.02988 0.18181 0.86031 0.0
H2028 H 0.00086 0.16562 0.85198 0.0
H2029 H 0.02014 0.13207 0.90552 0.0
H2030 H 0.00192 0.14061 0.91516 0.0
H2031 H 0.03037 0.16389 0.90805 0.0
C2032 C 0.89543 0.84695 0.87573 0.0
C2033 C 0.88481 0.8269 0.88416 0.0
C2034 C 0.8865 0.86319 0.8749 0.0
C2035 C 0.86649 0.85935 0.8827 0.0
C2036 C 0.85478 0.83839 0.8907 0.0
C2037 C 0.86413 0.82242 0.89136 0.0
C2038 C 0.89955 0.88535 0.86627 0.0
C2039 C 0.83324 0.83354 0.89907 0.0
C2040 C 0.86695 0.91738 0.89258 0.0
C2041 C 0.85013 0.91777 0.884 0.0
C2042 C 0.87196 0.89816 0.89243 0.0
C2043 C 0.85974 0.87871 0.88351 0.0
C2044 C 0.84223 0.8786 0.87504 0.0
C2045 C 0.83764 0.89817 0.87537 0.0
C2046 C 0.89072 0.89895 0.90166 0.0
C2047 C 0.82883 0.85814 0.86543 0.0
H2048 H 0.91164 0.85081 0.87028 0.0
H2049 H 0.85567 0.8068 0.89778 0.0
H2050 H 0.8861 0.88722 0.8603 0.0
H2051 H 0.90942 0.90225 0.87219 0.0
H2052 H 0.91308 0.88432 0.85986 0.0
H2053 H 0.82434 0.815 0.9035 0.0
H2054 H 0.83961 0.84749 0.90683 0.0
H2055 H 0.81929 0.83522 0.89345 0.0
H2056 H 0.87626 0.93219 0.89946 0.0
H2057 H 0.82471 0.89842 0.86867 0.0
H2058 H 0.90636 0.89992 0.89625 0.0
H2059 H 0.88244 0.88188 0.90745 0.0
H2060 H 0.898 0.91497 0.90825 0.0
H2061 H 0.84213 0.85836 0.85838 0.0
H2062 H 0.81448 0.85981 0.86018 0.0
H2063 H 0.82005 0.84003 0.8703 0.0
C2064 C 0.69371 0.51392 0.45806 0.0
C2065 C 0.7061 0.51255 0.4472 0.0
C2066 C 0.6681 0.4986 0.45929 0.0
C2067 C 0.65479 0.48122 0.44955 0.0
C2068 C 0.66708 0.48065 0.4383 0.0
C2069 C 0.69253 0.49643 0.43723 0.0
C2070 C 0.65554 0.50013 0.47128 0.0
C2071 C 0.65366 0.46221 0.42775 0.0
C2072 C 0.59911 0.41945 0.45732 0.0
C2073 C 0.58008 0.42146 0.45168 0.0
C2074 C 0.62337 0.43923 0.45725 0.0
C2075 C 0.62872 0.46176 0.45159 0.0
C2076 C 0.60937 0.46451 0.4467 0.0
C2077 C 0.58526 0.44425 0.44673 0.0
C2078 C 0.64348 0.43549 0.46254 0.0
C2079 C 0.6143 0.48839 0.4408 0.0
H2080 H 0.70414 0.52649 0.46574 0.0
H2081 H 0.70201 0.49505 0.42889 0.0
H2082 H 0.63834 0.49994 0.46887 0.0
H2083 H 0.6504 0.48386 0.47738 0.0
H2084 H 0.66758 0.51696 0.47694 0.0
H2085 H 0.66556 0.46533 0.41926 0.0
H2086 H 0.64705 0.44335 0.43137 0.0
H2087 H 0.6373 0.46303 0.42467 0.0
H2088 H 0.59515 0.4021 0.46147 0.0
H2089 H 0.5707 0.44598 0.44231 0.0
H2090 H 0.65482 0.45021 0.46951 0.0
H2091 H 0.65582 0.4366 0.45465 0.0
H2092 H 0.63607 0.41741 0.46734 0.0
H2093 H 0.62689 0.5042 0.44693 0.0
H2094 H 0.5971 0.4888 0.43932 0.0
H2095 H 0.62345 0.49086 0.43139 0.0
C2096 C 0.49712 0.1982 0.43517 0.0
C2097 C 0.49611 0.21059 0.4461 0.0
C2098 C 0.51141 0.18694 0.43503 0.0
C2099 C 0.52479 0.18802 0.44612 0.0
C2100 C 0.52218 0.19878 0.45748 0.0
C2101 C 0.50793 0.21004 0.45732 0.0
C2102 C 0.51373 0.17564 0.42273 0.0
C2103 C 0.53586 0.20004 0.46955 0.0
C2104 C 0.55731 0.15124 0.44767 0.0
C2105 C 0.58144 0.1692 0.4444 0.0
C2106 C 0.53852 0.15696 0.44823 0.0
C2107 C 0.54405 0.18114 0.44535 0.0
C2108 C 0.56834 0.19924 0.4419 0.0
C2109 C 0.58672 0.19305 0.44149 0.0
C2110 C 0.51288 0.13729 0.45204 0.0
C2111 C 0.57497 0.2252 0.43865 0.0
H2112 H 0.4881 0.19874 0.42647 0.0
H2113 H 0.50691 0.21941 0.46582 0.0
H2114 H 0.53218 0.18778 0.41849 0.0
H2115 H 0.51205 0.15756 0.42458 0.0
H2116 H 0.49961 0.17313 0.41561 0.0
H2117 H 0.5292 0.20581 0.47797 0.0
H2118 H 0.53398 0.18193 0.47161 0.0
H2119 H 0.55574 0.21348 0.46823 0.0
H2120 H 0.55322 0.1328 0.44998 0.0
H2121 H 0.60526 0.20686 0.43873 0.0
H2122 H 0.4996 0.13501 0.44447 0.0
H2123 H 0.50727 0.14288 0.46091 0.0
H2124 H 0.51149 0.11925 0.45371 0.0
H2125 H 0.56343 0.22499 0.43061 0.0
H2126 H 0.59462 0.23692 0.43591 0.0
H2127 H 0.57124 0.23377 0.44699 0.0
C2128 C 0.82361 0.39944 0.45735 0.0
C2129 C 0.8177 0.40708 0.44598 0.0
C2130 C 0.81956 0.37549 0.45858 0.0
C2131 C 0.80889 0.35868 0.4483 0.0
C2132 C 0.80381 0.36656 0.43665 0.0
C2133 C 0.80858 0.39071 0.43558 0.0
C2134 C 0.82575 0.36791 0.47105 0.0
C2135 C 0.79223 0.34916 0.42548 0.0
C2136 C 0.80613 0.29732 0.44562 0.0
C2137 C 0.78203 0.28111 0.44974 0.0
C2138 C 0.81583 0.32288 0.44589 0.0
C2139 C 0.80076 0.33225 0.45001 0.0
C2140 C 0.77672 0.31595 0.45461 0.0
C2141 C 0.76774 0.2906 0.45451 0.0
C2142 C 0.84176 0.33974 0.44124 0.0
C2143 C 0.75987 0.32511 0.45886 0.0
H2144 H 0.8306 0.41185 0.46547 0.0
H2145 H 0.80469 0.39662 0.42662 0.0
H2146 H 0.80854 0.3551 0.47621 0.0
H2147 H 0.83582 0.35801 0.46924 0.0
H2148 H 0.83709 0.38393 0.47738 0.0
H2149 H 0.79032 0.35845 0.41692 0.0
H2150 H 0.80338 0.34077 0.42282 0.0
H2151 H 0.77369 0.33397 0.42825 0.0
H2152 H 0.81719 0.28995 0.44197 0.0
H2153 H 0.74895 0.27807 0.4575 0.0
H2154 H 0.85178 0.3554 0.44795 0.0
H2155 H 0.84132 0.3475 0.4318 0.0
H2156 H 0.85218 0.32998 0.44019 0.0
H2157 H 0.76902 0.33974 0.4662 0.0
H2158 H 0.74228 0.31019 0.46289 0.0
H2159 H 0.75564 0.33329 0.45058 0.0
C2160 C 0.76077 0.25775 0.21001 0.0
C2161 C 0.74281 0.25065 0.21961 0.0
C2162 C 0.7793 0.28252 0.20858 0.0
C2163 C 0.77964 0.3005 0.21686 0.0
C2164 C 0.76169 0.29334 0.22663 0.0
C2165 C 0.74355 0.26854 0.22789 0.0
C2166 C 0.79827 0.28949 0.19813 0.0
C2167 C 0.76124 0.31196 0.2356 0.0
C2168 C 0.83382 0.36433 0.22293 0.0
C2169 C 0.8264 0.37874 0.21631 0.0
C2170 C 0.81975 0.33854 0.22239 0.0
C2171 C 0.79783 0.32706 0.21508 0.0
C2172 C 0.79147 0.34157 0.20754 0.0
C2173 C 0.80587 0.36725 0.20824 0.0
C2174 C 0.82726 0.32368 0.23046 0.0
C2175 C 0.76836 0.3301 0.19955 0.0
H2176 H 0.76036 0.24393 0.20366 0.0
H2177 H 0.72948 0.26322 0.23518 0.0
H2178 H 0.79646 0.30158 0.19109 0.0
H2179 H 0.81705 0.30005 0.20221 0.0
H2180 H 0.79634 0.27315 0.193 0.0
H2181 H 0.74645 0.30325 0.24292 0.0
H2182 H 0.77914 0.32257 0.24058 0.0
H2183 H 0.75837 0.32525 0.23005 0.0
H2184 H 0.84967 0.37316 0.22918 0.0
H2185 H 0.80038 0.37841 0.20293 0.0
H2186 H 0.82518 0.3076 0.22503 0.0
H2187 H 0.8151 0.31656 0.23898 0.0
H2188 H 0.84658 0.33486 0.2338 0.0
H2189 H 0.76674 0.3145 0.19384 0.0
H2190 H 0.76783 0.34358 0.19295 0.0
H2191 H 0.75208 0.3227 0.20596 0.0
C2192 C 0.72947 0.47932 0.22434 0.0
C2193 C 0.7493 0.50355 0.22397 0.0
C2194 C 0.70526 0.47412 0.22296 0.0
C2195 C 0.70068 0.49366 0.22114 0.0
C2196 C 0.72064 0.51816 0.22043 0.0
C2197 C 0.7448 0.52283 0.22182 0.0
C2198 C 0.68453 0.44768 0.22366 0.0
C2199 C 0.71642 0.53941 0.2185 0.0
C2200 C 0.63651 0.4701 0.20847 0.0
C2201 C 0.62316 0.46566 0.21991 0.0
C2202 C 0.66221 0.48118 0.20859 0.0
C2203 C 0.67481 0.48802 0.22043 0.0
C2204 C 0.66166 0.48559 0.23187 0.0
C2205 C 0.63597 0.47439 0.23148 0.0
C2206 C 0.67557 0.48367 0.19617 0.0
C2207 C 0.67444 0.49281 0.24468 0.0
H2208 H 0.73292 0.46432 0.22573 0.0
H2209 H 0.76012 0.5416 0.22157 0.0
H2210 H 0.67233 0.44531 0.23187 0.0
H2211 H 0.67321 0.44271 0.21485 0.0
H2212 H 0.69129 0.43463 0.22479 0.0
H2213 H 0.73392 0.55713 0.21722 0.0
H2214 H 0.70463 0.53609 0.21 0.0
H2215 H 0.70656 0.54106 0.2269 0.0
H2216 H 0.62674 0.46383 0.19947 0.0
H2217 H 0.62584 0.47094 0.24037 0.0
H2218 H 0.68078 0.46934 0.1957 0.0
H2219 H 0.69275 0.50182 0.1956 0.0
H2220 H 0.66399 0.48146 0.18771 0.0
H2221 H 0.67983 0.47926 0.24748 0.0
H2222 H 0.66241 0.49336 0.25231 0.0
H2223 H 0.69147 0.51108 0.24413 0.0
C2224 C 0.52498 0.25804 0.22286 0.0
C2225 C 0.50326 0.25487 0.21747 0.0
C2226 C 0.52994 0.23878 0.22299 0.0
C2227 C 0.5128 0.2158 0.21753 0.0
C2228 C 0.49081 0.21244 0.21206 0.0
C2229 C 0.48623 0.23202 0.21216 0.0
C2230 C 0.55351 0.24305 0.22902 0.0
C2231 C 0.47226 0.18826 0.20605 0.0
C2232 C 0.54144 0.17764 0.2086 0.0
C2233 C 0.53604 0.16264 0.21943 0.0
C2234 C 0.53267 0.19399 0.20748 0.0
C2235 C 0.51833 0.19554 0.21748 0.0
C2236 C 0.51162 0.17947 0.22808 0.0
C2237 C 0.5205 0.16316 0.22892 0.0
C2238 C 0.54011 0.2107 0.19597 0.0
C2239 C 0.49629 0.18053 0.23893 0.0
H2240 H 0.53798 0.27554 0.22718 0.0
H2241 H 0.46947 0.22958 0.20794 0.0
H2242 H 0.54929 0.22963 0.23685 0.0
H2243 H 0.56473 0.24011 0.22181 0.0
H2244 H 0.56472 0.26192 0.233 0.0
H2245 H 0.45595 0.18855 0.20234 0.0
H2246 H 0.48093 0.18379 0.19804 0.0
H2247 H 0.46599 0.17324 0.21317 0.0
H2248 H 0.55368 0.17765 0.20129 0.0
H2249 H 0.51591 0.15134 0.23721 0.0
H2250 H 0.5536 0.22981 0.19893 0.0
H2251 H 0.52395 0.21083 0.19193 0.0
H2252 H 0.5486 0.2051 0.18834 0.0
H2253 H 0.50713 0.19807 0.24424 0.0
H2254 H 0.49043 0.16507 0.24575 0.0
H2255 H 0.47969 0.18013 0.23516 0.0
C2256 C 0.25825 0.77499 0.78213 0.0
C2257 C 0.25346 0.75086 0.78089 0.0
C2258 C 0.28258 0.7949 0.78242 0.0
C2259 C 0.30233 0.79033 0.78172 0.0
C2260 C 0.2974 0.76582 0.7809 0.0
C2261 C 0.273 0.74641 0.78035 0.0
C2262 C 0.28714 0.82078 0.78306 0.0
C2263 C 0.31789 0.76009 0.78037 0.0
C2264 C 0.36598 0.83446 0.76903 0.0
C2265 C 0.3799 0.8418 0.78034 0.0
C2266 C 0.34031 0.81933 0.7694 0.0
C2267 C 0.32828 0.81091 0.78134 0.0
C2268 C 0.34193 0.81966 0.79281 0.0
C2269 C 0.36755 0.83523 0.79217 0.0
C2270 C 0.32632 0.81083 0.75695 0.0
C2271 C 0.32983 0.81104 0.80574 0.0
H2272 H 0.24299 0.77828 0.78247 0.0
H2273 H 0.26913 0.72765 0.77946 0.0
H2274 H 0.29981 0.83106 0.79104 0.0
H2275 H 0.29617 0.83063 0.77408 0.0
H2276 H 0.26986 0.82115 0.78437 0.0
H2277 H 0.31089 0.74 0.7805 0.0
H2278 H 0.32888 0.76789 0.77151 0.0
H2279 H 0.33047 0.76872 0.78862 0.0
H2280 H 0.37517 0.83918 0.75982 0.0
H2281 H 0.37802 0.84132 0.80097 0.0
H2282 H 0.30925 0.81174 0.75744 0.0
H2283 H 0.32088 0.79138 0.75516 0.0
H2284 H 0.33753 0.82202 0.7487 0.0
H2285 H 0.31276 0.81195 0.80633 0.0
H2286 H 0.34223 0.82209 0.81368 0.0
H2287 H 0.32457 0.79155 0.80711 0.0
C2288 C 0.22871 0.47821 0.78022 0.0
C2289 C 0.24901 0.49247 0.77227 0.0
C2290 C 0.21078 0.48478 0.78236 0.0
C2291 C 0.21351 0.50627 0.77657 0.0
C2292 C 0.23384 0.52053 0.76843 0.0
C2293 C 0.25126 0.51341 0.76636 0.0
C2294 C 0.18916 0.46898 0.79096 0.0
C2295 C 0.23761 0.54375 0.76218 0.0
C2296 C 0.16332 0.52164 0.7721 0.0
C2297 C 0.1697 0.53986 0.78148 0.0
C2298 C 0.17623 0.50901 0.771 0.0
C2299 C 0.19602 0.51489 0.77941 0.0
C2300 C 0.20124 0.53188 0.7895 0.0
C2301 C 0.18794 0.54408 0.79043 0.0
C2302 C 0.1699 0.49076 0.76022 0.0
C2303 C 0.22214 0.53865 0.79869 0.0
H2304 H 0.22685 0.46191 0.78473 0.0
H2305 H 0.26713 0.5247 0.76037 0.0
H2306 H 0.18991 0.47955 0.79963 0.0
H2307 H 0.17169 0.46376 0.78597 0.0
H2308 H 0.18883 0.45198 0.79401 0.0
H2309 H 0.25408 0.5524 0.75587 0.0
H2310 H 0.22127 0.53968 0.75639 0.0
H2311 H 0.23977 0.55727 0.76964 0.0
H2312 H 0.14928 0.51833 0.76513 0.0
H2313 H 0.19259 0.5578 0.79786 0.0
H2314 H 0.16977 0.47408 0.76364 0.0
H2315 H 0.18408 0.49914 0.75261 0.0
H2316 H 0.15171 0.48519 0.75594 0.0
H2317 H 0.22142 0.5219 0.80248 0.0
H2318 H 0.22187 0.54979 0.80689 0.0
H2319 H 0.23991 0.54947 0.79356 0.0
C2320 C 0.47029 0.72306 0.76922 0.0
C2321 C 0.489 0.741 0.77693 0.0
C2322 C 0.46487 0.69862 0.76934 0.0
C2323 C 0.47857 0.6919 0.77732 0.0
C2324 C 0.49776 0.70995 0.78498 0.0
C2325 C 0.50274 0.73432 0.7847 0.0
C2326 C 0.44428 0.67993 0.761 0.0
C2327 C 0.51274 0.70343 0.7936 0.0
C2328 C 0.44472 0.62415 0.78554 0.0
C2329 C 0.4538 0.61473 0.77622 0.0
C2330 C 0.45362 0.64946 0.78647 0.0
C2331 C 0.47205 0.66575 0.77786 0.0
C2332 C 0.48229 0.65652 0.76891 0.0
C2333 C 0.47299 0.63108 0.76817 0.0
C2334 C 0.44217 0.65856 0.79612 0.0
C2335 C 0.50213 0.67335 0.75966 0.0
H2336 H 0.45993 0.72819 0.76299 0.0
H2337 H 0.51711 0.74805 0.79075 0.0
H2338 H 0.45134 0.67106 0.75442 0.0
H2339 H 0.42986 0.66523 0.76705 0.0
H2340 H 0.43567 0.68824 0.7552 0.0
H2341 H 0.52779 0.71982 0.79848 0.0
H2342 H 0.50066 0.69016 0.80099 0.0
H2343 H 0.52086 0.69434 0.78798 0.0
H2344 H 0.42966 0.61163 0.79168 0.0
H2345 H 0.48026 0.6239 0.76106 0.0
H2346 H 0.43112 0.66508 0.79105 0.0
H2347 H 0.45662 0.67438 0.80159 0.0
H2348 H 0.42997 0.64398 0.80298 0.0
H2349 H 0.49433 0.68063 0.75262 0.0
H2350 H 0.51013 0.66375 0.75436 0.0
H2351 H 0.51711 0.68933 0.7648 0.0
C2352 C 0.50486 0.69321 0.55505 0.0
C2353 C 0.50093 0.70917 0.54745 0.0
C2354 C 0.48873 0.66767 0.55454 0.0
C2355 C 0.46826 0.65789 0.5462 0.0
C2356 C 0.46516 0.67375 0.53789 0.0
C2357 C 0.48144 0.69918 0.53865 0.0
C2358 C 0.49272 0.65132 0.56351 0.0
C2359 C 0.44363 0.66405 0.52881 0.0
C2360 C 0.42905 0.58904 0.54019 0.0
C2361 C 0.4091 0.58268 0.54843 0.0
C2362 C 0.44875 0.61341 0.53948 0.0
C2363 C 0.44847 0.6317 0.54724 0.0
C2364 C 0.42861 0.62523 0.55576 0.0
C2365 C 0.40918 0.60083 0.55623 0.0
C2366 C 0.46956 0.61969 0.53024 0.0
C2367 C 0.42769 0.64416 0.56428 0.0
H2368 H 0.52009 0.70076 0.56173 0.0
H2369 H 0.47797 0.71129 0.53286 0.0
H2370 H 0.47839 0.64429 0.57108 0.0
H2371 H 0.49097 0.63516 0.5583 0.0
H2372 H 0.51105 0.66126 0.56817 0.0
H2373 H 0.44555 0.67826 0.5219 0.0
H2374 H 0.44164 0.64801 0.52337 0.0
H2375 H 0.42642 0.65773 0.53436 0.0
H2376 H 0.42898 0.57506 0.5341 0.0
H2377 H 0.39401 0.59589 0.56279 0.0
H2378 H 0.48744 0.62926 0.53533 0.0
H2379 H 0.47006 0.63248 0.52283 0.0
H2380 H 0.46771 0.60313 0.52541 0.0
H2381 H 0.44446 0.65351 0.57029 0.0
H2382 H 0.41133 0.63593 0.57067 0.0
H2383 H 0.42726 0.65844 0.55832 0.0
C2384 C 0.29075 0.77545 0.54414 0.0
C2385 C 0.28068 0.78071 0.55484 0.0
C2386 C 0.31619 0.7853 0.54297 0.0
C2387 C 0.33195 0.80061 0.5528 0.0
C2388 C 0.32208 0.80712 0.56328 0.0
C2389 C 0.29655 0.79714 0.56415 0.0
C2390 C 0.32602 0.77804 0.53162 0.0
C2391 C 0.33831 0.82345 0.57394 0.0
C2392 C 0.38956 0.79746 0.55835 0.0
C2393 C 0.40773 0.81924 0.55261 0.0
C2394 C 0.36492 0.79138 0.55857 0.0
C2395 C 0.35822 0.80743 0.55284 0.0
C2396 C 0.37646 0.82951 0.54706 0.0
C2397 C 0.40107 0.83522 0.54706 0.0
C2398 C 0.34604 0.76775 0.56493 0.0
C2399 C 0.36993 0.84693 0.54078 0.0
H2400 H 0.27868 0.76253 0.53697 0.0
H2401 H 0.28895 0.80162 0.57234 0.0
H2402 H 0.34207 0.79445 0.52737 0.0
H2403 H 0.33238 0.76545 0.5348 0.0
H2404 H 0.31187 0.76859 0.52407 0.0
H2405 H 0.32822 0.82893 0.58064 0.0
H2406 H 0.34564 0.81356 0.57944 0.0
H2407 H 0.3543 0.84029 0.56997 0.0
H2408 H 0.3947 0.78528 0.56286 0.0
H2409 H 0.41507 0.852 0.54255 0.0
H2410 H 0.33191 0.75568 0.55786 0.0
H2411 H 0.33647 0.77176 0.57266 0.0
H2412 H 0.35436 0.7575 0.5691 0.0
H2413 H 0.35684 0.83743 0.53283 0.0
H2414 H 0.38635 0.86357 0.53692 0.0
H2415 H 0.3606 0.85278 0.54777 0.0
C2416 C 0.2056 0.50596 0.56468 0.0
C2417 C 0.19993 0.48724 0.55572 0.0
C2418 C 0.19485 0.52062 0.56396 0.0
C2419 C 0.17795 0.51646 0.55403 0.0
C2420 C 0.17146 0.49703 0.54521 0.0
C2421 C 0.18263 0.48269 0.54612 0.0
C2422 C 0.20239 0.54125 0.57352 0.0
C2423 C 0.15332 0.49191 0.53458 0.0
C2424 C 0.14097 0.54782 0.55953 0.0
C2425 C 0.15509 0.56993 0.55286 0.0
C2426 C 0.14734 0.52951 0.55941 0.0
C2427 C 0.16845 0.53355 0.55254 0.0
C2428 C 0.18202 0.5553 0.54526 0.0
C2429 C 0.17514 0.57321 0.54548 0.0
C2430 C 0.13224 0.50643 0.56715 0.0
C2431 C 0.20471 0.56036 0.53785 0.0
H2432 H 0.21929 0.50989 0.57198 0.0
H2433 H 0.17809 0.46814 0.53922 0.0
H2434 H 0.21196 0.5592 0.5685 0.0
H2435 H 0.18592 0.53974 0.57826 0.0
H2436 H 0.21484 0.54127 0.58102 0.0
H2437 H 0.14859 0.47482 0.52923 0.0
H2438 H 0.13619 0.49024 0.53851 0.0
H2439 H 0.16121 0.50751 0.52776 0.0
H2440 H 0.12524 0.54509 0.5651 0.0
H2441 H 0.18625 0.59036 0.54041 0.0
H2442 H 0.14301 0.5066 0.57556 0.0
H2443 H 0.12786 0.48992 0.56137 0.0
H2444 H 0.11479 0.50473 0.57063 0.0
H2445 H 0.21936 0.563 0.54463 0.0
H2446 H 0.21189 0.57704 0.53178 0.0
H2447 H 0.2007 0.54446 0.53164 0.0
C2448 C 0.23197 0.2284 0.02941 0.0
C2449 C 0.21677 0.23784 0.03275 0.0
C2450 C 0.23656 0.22556 0.01656 0.0
C2451 C 0.22537 0.23191 0.00679 0.0
C2452 C 0.21062 0.24213 0.01004 0.0
C2453 C 0.20663 0.24512 0.02298 0.0
C2454 C 0.25261 0.21483 0.01346 0.0
C2455 C 0.19827 0.24901 -0.00014 0.0
C2456 C 0.24813 0.23872 0.97248 0.0
C2457 C 0.23122 0.21569 0.96732 0.0
C2458 C 0.24672 0.24419 0.98539 0.0
C2459 C 0.22772 0.22631 0.99321 0.0
C2460 C 0.21072 0.20297 0.98805 0.0
C2461 C 0.21277 0.1979 0.97518 0.0
C2462 C 0.26541 0.26911 0.99063 0.0
C2463 C 0.19004 0.18351 0.99605 0.0
H2464 H 0.23957 0.22229 0.03683 0.0
H2465 H 0.1952 0.2528 0.02545 0.0
H2466 H 0.24125 0.19632 0.00914 0.0
H2467 H 0.26686 0.22645 0.00633 0.0
H2468 H 0.26185 0.21311 0.02209 0.0
H2469 H 0.18841 0.25788 0.00395 0.0
H2470 H 0.21205 0.26173 0.99284 0.0
H2471 H 0.18486 0.23228 0.99454 0.0
H2472 H 0.26247 0.25243 0.96641 0.0
H2473 H 0.19946 0.18022 0.97114 0.0
H2474 H 0.27485 0.26692 0.99901 0.0
H2475 H 0.25604 0.27896 0.99399 0.0
H2476 H 0.27946 0.28067 0.98338 0.0
H2477 H 0.19762 0.17907 0.00452 0.0
H2478 H 0.17841 0.1663 0.99058 0.0
H2479 H 0.17821 0.19056 -0.00034 0.0
C2480 C 0.77356 0.01445 0.96688 0.0
C2481 C 0.79627 0.01923 0.96191 0.0
C2482 C 0.76768 0.00863 0.97985 0.0
C2483 C 0.785 0.00779 0.98806 0.0
C2484 C 0.80818 0.01323 0.9832 0.0
C2485 C 0.81348 0.01874 0.97018 0.0
C2486 C 0.74276 0.0029 0.98471 0.0
C2487 C 0.82722 0.01267 0.99169 0.0
C2488 C 0.78081 0.01198 0.02413 0.0
C2489 C 0.77163 0.98748 0.02779 0.0
C2490 C 0.78455 0.01878 0.01118 0.0
C2491 C 0.7788 0.00059 0.00169 0.0
C2492 C 0.7686 0.97568 0.00531 0.0
C2493 C 0.76525 0.96943 0.01833 0.0
C2494 C 0.79568 0.04556 0.0077 0.0
C2495 C 0.76196 0.95572 0.99545 0.0
H2496 H 0.76029 0.01512 0.9606 0.0
H2497 H 0.83089 0.02196 0.96641 0.0
H2498 H 0.73248 0.98375 0.98835 0.0
H2499 H 0.74492 0.0152 0.99284 0.0
H2500 H 0.73161 0.00499 0.97716 0.0
H2501 H 0.84478 0.0185 0.98655 0.0
H2502 H 0.83107 0.02492 8e-05 0.0
H2503 H 0.82007 0.99378 0.99539 0.0
H2504 H 0.78605 0.02603 0.03142 0.0
H2505 H 0.75793 0.95045 0.02115 0.0
H2506 H 0.78437 0.04779 0.00033 0.0
H2507 H 0.81425 0.05252 0.00354 0.0
H2508 H 0.79737 0.05713 0.01612 0.0
H2509 H 0.7498 0.95646 0.98804 0.0
H2510 H 0.75255 0.93707 -0.00023 0.0
H2511 H 0.77886 0.95869 0.99053 0.0
C2512 C 0.97127 0.7711 0.97873 0.0
C2513 C 0.9892 0.77549 0.96953 0.0
C2514 C 0.97694 0.77356 0.99181 0.0
C2515 C 0.00129 0.78127 0.9957 0.0
C2516 C 0.01936 0.78534 0.98641 0.0
C2517 C 0.01299 0.78211 0.9734 0.0
C2518 C 0.95703 0.76849 0.00146 0.0
C2519 C 0.04563 0.79415 0.99016 0.0
C2520 C 0.0192 0.81386 0.02781 0.0
C2521 C 0.01759 0.79541 0.03593 0.0
C2522 C 0.01486 0.80976 0.01463 0.0
C2523 C 0.00807 0.78642 0.00944 0.0
C2524 C 0.00679 0.76783 0.01748 0.0
C2525 C 0.01192 0.77265 0.03058 0.0
C2526 C 0.01691 0.83025 0.00631 0.0
C2527 C -0.00074 0.74259 0.01231 0.0
H2528 H 0.95288 0.76596 0.97565 0.0
H2529 H 0.02686 0.78576 0.9662 0.0
H2530 H 0.95615 0.75549 0.00885 0.0
H2531 H 0.96136 0.78579 0.00642 0.0
H2532 H 0.93865 0.76065 0.99693 0.0
H2533 H 0.05711 0.79518 0.98183 0.0
H2534 H 0.05384 0.81269 0.99457 0.0
H2535 H 0.04629 0.78174 0.99743 0.0
H2536 H 0.02311 0.83135 0.03178 0.0
H2537 H 0.01115 0.75841 0.03665 0.0
H2538 H 0.99851 0.8252 0.00257 0.0
H2539 H 0.02893 0.83306 0.99794 0.0
H2540 H 0.02445 0.84791 0.01161 0.0
H2541 H 0.98032 0.73389 0.00842 0.0
H2542 H -0.00025 0.73034 0.01976 0.0
H2543 H 0.01153 0.74404 0.00432 0.0
C2544 C 0.886 0.51963 0.31136 0.0
C2545 C 0.90092 0.53992 0.30357 0.0
C2546 C 0.8831 0.52267 0.32443 0.0
C2547 C 0.89535 0.54658 0.32982 0.0
C2548 C 0.91144 0.56698 0.32217 0.0
C2549 C 0.91404 0.5634 0.30912 0.0
C2550 C 0.86583 0.50043 0.33229 0.0
C2551 C 0.92492 0.59273 0.3276 0.0
C2552 C 0.86254 0.55524 0.35801 0.0
C2553 C 0.87548 0.55341 0.3684 0.0
C2554 C 0.86936 0.55384 0.3454 0.0
C2555 C 0.88953 0.55037 0.34313 0.0
C2556 C 0.90315 0.54926 0.35357 0.0
C2557 C 0.89599 0.55087 0.36612 0.0
C2558 C 0.85452 0.55535 0.3345 0.0
C2559 C 0.92467 0.54546 0.35152 0.0
H2560 H 0.87556 0.50148 0.30711 0.0
H2561 H 0.92585 0.5791 0.30316 0.0
H2562 H 0.87491 0.49993 0.34127 0.0
H2563 H 0.84944 0.50158 0.33504 0.0
H2564 H 0.85955 0.48295 0.32699 0.0
H2565 H 0.9386 0.6062 0.32075 0.0
H2566 H 0.91152 0.59858 0.33002 0.0
H2567 H 0.93453 0.59326 0.33657 0.0
H2568 H 0.84685 0.55748 0.35978 0.0
H2569 H 0.90587 0.5492 0.37415 0.0
H2570 H 0.84538 0.53769 0.32916 0.0
H2571 H 0.86679 0.5699 0.32767 0.0
H2572 H 0.8402 0.55936 0.33788 0.0
H2573 H 0.91809 0.52697 0.34733 0.0
H2574 H 0.93451 0.54695 0.36058 0.0
H2575 H 0.9379 0.55915 0.34462 0.0
C2576 C 0.44108 0.35142 0.30639 0.0
C2577 C 0.46009 0.35015 0.30006 0.0
C2578 C 0.43605 0.34529 0.31939 0.0
C2579 C 0.45073 0.33829 0.32632 0.0
C2580 C 0.47009 0.33724 0.32007 0.0
C2581 C 0.47433 0.34286 0.307 0.0
C2582 C 0.415 0.34626 0.32571 0.0
C2583 C 0.48639 0.33019 0.32719 0.0
C2584 C 0.45475 0.34533 0.36245 0.0
C2585 C 0.44042 0.32087 0.36645 0.0
C2586 C 0.45798 0.35131 0.3494 0.0
C2587 C 0.44617 0.33238 0.34018 0.0
C2588 C 0.431 0.3077 0.3442 0.0
C2589 C 0.42856 0.30219 0.35732 0.0
C2590 C 0.47473 0.37776 0.34549 0.0
C2591 C 0.4177 0.2871 0.33464 0.0
H2592 H 0.43017 0.35735 0.30122 0.0
H2593 H 0.48867 0.34121 0.3022 0.0
H2594 H 0.40203 0.32818 0.33007 0.0
H2595 H 0.42204 0.36004 0.33356 0.0
H2596 H 0.40471 0.3511 0.31886 0.0
H2597 H 0.50114 0.33098 0.32101 0.0
H2598 H 0.49506 0.34269 0.33548 0.0
H2599 H 0.47522 0.31127 0.33102 0.0
H2600 H 0.46414 0.35972 0.36954 0.0
H2601 H 0.41739 0.28328 0.36047 0.0
H2602 H 0.4648 0.38388 0.33917 0.0
H2603 H 0.49053 0.37941 0.33994 0.0
H2604 H 0.48194 0.39036 0.35386 0.0
H2605 H 0.40675 0.29147 0.32802 0.0
H2606 H 0.40521 0.26923 0.33936 0.0
H2607 H 0.43123 0.28506 0.32876 0.0
C2608 C 0.68403 0.10695 0.35628 0.0
C2609 C 0.6776 0.12237 0.36283 0.0
C2610 C 0.67741 0.10048 0.34341 0.0
C2611 C 0.66462 0.11014 0.33685 0.0
C2612 C 0.65811 0.1257 0.34337 0.0
C2613 C 0.66434 0.13131 0.35629 0.0
C2614 C 0.68426 0.08345 0.33682 0.0
C2615 C 0.64479 0.1367 0.33665 0.0
C2616 C 0.66936 0.11665 0.30077 0.0
C2617 C 0.6459 0.09813 0.29694 0.0
C2618 C 0.67592 0.12036 0.31373 0.0
C2619 C 0.65873 0.10481 0.32304 0.0
C2620 C 0.63535 0.08538 0.31916 0.0
C2621 C 0.62906 0.0825 0.30613 0.0
C2622 C 0.70078 0.14165 0.31749 0.0
C2623 C 0.61679 0.06809 0.3288 0.0
H2624 H 0.69447 0.1001 0.36114 0.0
H2625 H 0.65861 0.14264 0.3613 0.0
H2626 H 0.66769 0.0677 0.33248 0.0
H2627 H 0.69743 0.09332 0.32893 0.0
H2628 H 0.69274 0.07622 0.34349 0.0
H2629 H 0.64144 0.14882 0.34304 0.0
H2630 H 0.65569 0.14762 0.32827 0.0
H2631 H 0.62684 0.12188 0.33298 0.0
H2632 H 0.68223 0.12893 0.29364 0.0
H2633 H 0.61094 0.06817 0.30311 0.0
H2634 H 0.71071 0.13515 0.32355 0.0
H2635 H 0.69833 0.15507 0.32325 0.0
H2636 H 0.7124 0.15131 0.30904 0.0
H2637 H 0.62537 0.06064 0.33524 0.0
H2638 H 0.60052 0.0525 0.32414 0.0
H2639 H 0.6104 0.07823 0.33487 0.0
C2640 C 0.5332 0.85242 0.64046 0.0
C2641 C 0.55395 0.86799 0.63305 0.0
C2642 C 0.53184 0.8573 0.65344 0.0
C2643 C 0.55148 0.87856 0.65913 0.0
C2644 C 0.57244 0.89446 0.65174 0.0
C2645 C 0.57353 0.88886 0.63882 0.0
C2646 C 0.50929 0.83973 0.66105 0.0
C2647 C 0.59363 0.91743 0.65747 0.0
C2648 C 0.53496 0.9 0.68958 0.0
C2649 C 0.54355 0.89047 0.69898 0.0
C2650 C 0.53829 0.89711 0.67653 0.0
C2651 C 0.55002 0.88394 0.67285 0.0
C2652 C 0.55908 0.87464 0.68234 0.0
C2653 C 0.55589 0.87818 0.6953 0.0
C2654 C 0.52879 0.90766 0.66667 0.0
C2655 C 0.57126 0.8601 0.67881 0.0
H2656 H 0.51771 0.83656 0.63607 0.0
H2657 H 0.58978 0.90085 0.63325 0.0
H2658 H 0.51472 0.83302 0.66952 0.0
H2659 H 0.49988 0.84938 0.66466 0.0
H2660 H 0.49598 0.8236 0.6553 0.0
H2661 H 0.60835 0.92817 0.65036 0.0
H2662 H 0.58694 0.92934 0.66142 0.0
H2663 H 0.60169 0.91252 0.66553 0.0
H2664 H 0.52554 0.90961 0.69245 0.0
H2665 H 0.56224 0.87052 0.70258 0.0
H2666 H 0.51363 0.89253 0.66117 0.0
H2667 H 0.54357 0.91918 0.65975 0.0
H2668 H 0.52183 0.91901 0.67109 0.0
H2669 H 0.55786 0.84293 0.6738 0.0
H2670 H 0.5783 0.85513 0.68732 0.0
H2671 H 0.58678 0.87077 0.67212 0.0
C2672 C 0.09358 0.66337 0.64145 0.0
C2673 C 0.11684 0.67262 0.63579 0.0
C2674 C 0.08991 0.6576 0.65455 0.0
C2675 C 0.11005 0.66146 0.66218 0.0
C2676 C 0.13362 0.67114 0.65658 0.0
C2677 C 0.13668 0.67641 0.64346 0.0
C2678 C 0.06448 0.64714 0.66019 0.0
C2679 C 0.1556 0.67568 0.66443 0.0
C2680 C 0.10959 0.66826 0.69824 0.0
C2681 C 0.1061 0.6456 0.70244 0.0
C2682 C 0.11007 0.67339 0.68516 0.0
C2683 C 0.10666 0.6553 0.67604 0.0
C2684 C 0.10189 0.63195 0.6802 0.0
C2685 C 0.1018 0.62742 0.69335 0.0
C2686 C 0.11529 0.69853 0.6811 0.0
C2687 C 0.09792 0.6121 0.67075 0.0
H2688 H 0.07819 0.66062 0.63564 0.0
H2689 H 0.15461 0.68302 0.63916 0.0
H2690 H 0.05835 0.62877 0.66435 0.0
H2691 H 0.06478 0.6591 0.66808 0.0
H2692 H 0.05077 0.64528 0.65296 0.0
H2693 H 0.17283 0.68401 0.6587 0.0
H2694 H 0.15819 0.6881 0.67258 0.0
H2695 H 0.15243 0.6581 0.66851 0.0
H2696 H 0.11239 0.68223 0.7052 0.0
H2697 H 0.09929 0.60995 0.69648 0.0
H2698 H 0.1011 0.69684 0.67426 0.0
H2699 H 0.13327 0.70832 0.67607 0.0
H2700 H 0.11583 0.70993 0.68936 0.0
H2701 H 0.08378 0.60941 0.66361 0.0
H2702 H 0.09206 0.59425 0.67551 0.0
H2703 H 0.11523 0.61777 0.66543 0.0
C2704 C 0.32147 0.4153 0.63442 0.0
C2705 C 0.32027 0.43522 0.62934 0.0
C2706 C 0.32876 0.41562 0.64714 0.0
C2707 C 0.33476 0.43625 0.65498 0.0
C2708 C 0.3337 0.45643 0.64991 0.0
C2709 C 0.32663 0.45574 0.63715 0.0
C2710 C 0.32983 0.39383 0.65222 0.0
C2711 C 0.33984 0.47873 0.65799 0.0
C2712 C 0.32928 0.43076 0.69107 0.0
C2713 C 0.35403 0.44262 0.6948 0.0
C2714 C 0.32271 0.42768 0.67811 0.0
C2715 C 0.34135 0.43657 0.66865 0.0
C2716 C 0.36633 0.44759 0.67233 0.0
C2717 C 0.37239 0.45063 0.68539 0.0
C2718 C 0.2959 0.41608 0.67458 0.0
C2719 C 0.38667 0.45701 0.66249 0.0
H2720 H 0.3164 0.39929 0.62849 0.0
H2721 H 0.32633 0.47146 0.63324 0.0
H2722 H 0.34833 0.39996 0.65621 0.0
H2723 H 0.31639 0.38514 0.66015 0.0
H2724 H 0.32573 0.37974 0.64472 0.0
H2725 H 0.33818 0.49292 0.65257 0.0
H2726 H 0.32737 0.47318 0.6664 0.0
H2727 H 0.35889 0.48712 0.66168 0.0
H2728 H 0.31503 0.42489 0.6983 0.0
H2729 H 0.39152 0.45965 0.68826 0.0
H2730 H 0.29074 0.40112 0.66749 0.0
H2731 H 0.29266 0.43006 0.67005 0.0
H2732 H 0.28358 0.40842 0.68303 0.0
H2733 H 0.38268 0.44262 0.65521 0.0
H2734 H 0.40484 0.46287 0.66687 0.0
H2735 H 0.38783 0.47297 0.65741 0.0
loop_
_geom_bond_atom_site_label_1
_geom_bond_atom_site_label_2
_geom_bond_distance
_geom_bond_site_symmetry_2
_ccdc_geom_bond_type
Li0 N17 1.990 . S
Li0 O60 1.956 . S
Li0 O61 1.970 . S
Li0 O62 1.961 . S
Li1 N25 1.990 . S
Li1 O60 1.970 . S
Li1 O61 1.956 . S
Li1 O63 1.961 . S
Li2 N47 1.990 . S
Li2 O60 1.961 . S
Li2 O62 1.956 . S
Li2 O63 1.970 . S
Li3 N53 1.990 . S
Li3 O61 1.961 . S
Li3 O62 1.970 . S
Li3 O63 1.956 . S
C4 C6 1.348 . S
C4 C7 1.356 . S
C4 O60 1.325 . S
N5 C8 1.314 . S
N5 C9 1.279 . S
C6 C4 1.348 . S
C6 C8 1.353 . S
C6 H64 0.929 . S
C7 C4 1.356 . S
C7 C9 1.358 . S
C7 H65 0.930 . S
C8 N5 1.314 . S
C8 C6 1.353 . S
C8 H66 0.930 . S
C9 N5 1.279 . S
C9 C7 1.358 . S
C9 H67 0.930 . S
C10 C13 1.348 . S
C10 C14 1.356 . S
C10 O61 1.325 . S
C11 N12 1.279 . S
C11 C14 1.358 . S
C11 H68 0.930 . S
N12 C11 1.279 . S
N12 C15 1.314 . S
C13 C10 1.348 . S
C13 C15 1.353 . S
C13 H69 0.929 . S
C14 C10 1.356 . S
C14 C11 1.358 . S
C14 H70 0.930 . S
C15 N12 1.314 . S
C15 C13 1.353 . S
C15 H71 0.930 . S
C16 N17 1.314 . S
C16 C21 1.353 . S
C16 H22 0.930 . S
N17 Li0 1.990 . S
N17 C16 1.314 . S
N17 C19 1.279 . S
C18 C19 1.358 . S
C18 C20 1.356 . S
C18 H72 0.930 . S
C19 N17 1.279 . S
C19 C18 1.358 . S
C19 H23 0.930 . S
C20 C18 1.356 . S
C20 C21 1.348 . S
C21 C16 1.353 . S
C21 C20 1.348 . S
C21 H73 0.929 . S
H22 C16 0.930 . S
H23 C19 0.930 . S
C24 N25 1.314 . S
C24 C26 1.353 . S
C24 H30 0.930 . S
N25 Li1 1.990 . S
N25 C24 1.314 . S
N25 C28 1.279 . S
C26 C24 1.353 . S
C26 C29 1.348 . S
C26 H74 0.929 . S
C27 C28 1.358 . S
C27 C29 1.356 . S
C27 H75 0.930 . S
C28 N25 1.279 . S
C28 C27 1.358 . S
C28 H31 0.930 . S
C29 C26 1.348 . S
C29 C27 1.356 . S
H30 C24 0.930 . S
H31 C28 0.930 . S
C32 C34 1.348 . S
C32 C35 1.356 . S
C32 O62 1.325 . S
N33 C36 1.314 . S
N33 C37 1.279 . S
C34 C32 1.348 . S
C34 C36 1.353 . S
C34 H76 0.929 . S
C35 C32 1.356 . S
C35 C37 1.358 . S
C35 H77 0.930 . S
C36 N33 1.314 . S
C36 C34 1.353 . S
C36 H78 0.930 . S
C37 N33 1.279 . S
C37 C35 1.358 . S
C37 H79 0.930 . S
C38 C39 1.348 . S
C38 C40 1.356 . S
C38 O63 1.325 . S
C39 C38 1.348 . S
C39 C41 1.353 . S
C39 H80 0.929 . S
C40 C38 1.356 . S
C40 C42 1.358 . S
C40 H81 0.930 . S
C41 C39 1.353 . S
C41 N43 1.314 . S
C41 H82 0.930 . S
C42 C40 1.358 . S
C42 N43 1.279 . S
C42 H83 0.930 . S
N43 C41 1.314 . S
N43 C42 1.279 . S
C44 C46 1.353 . S
C44 N47 1.314 . S
C44 H50 0.930 . S
C45 N47 1.279 . S
C45 C48 1.358 . S
C45 H51 0.930 . S
C46 C44 1.353 . S
C46 C49 1.348 . S
C46 H84 0.929 . S
N47 Li2 1.990 . S
N47 C44 1.314 . S
N47 C45 1.279 . S
C48 C45 1.358 . S
C48 C49 1.356 . S
C48 H85 0.930 . S
C49 C46 1.348 . S
C49 C48 1.356 . S
H50 C44 0.930 . S
H51 C45 0.930 . S
C52 N53 1.314 . S
C52 C54 1.353 . S
C52 H58 0.930 . S
N53 Li3 1.990 . S
N53 C52 1.314 . S
N53 C56 1.279 . S
C54 C52 1.353 . S
C54 C57 1.348 . S
C54 H86 0.929 . S
C55 C56 1.358 . S
C55 C57 1.356 . S
C55 H87 0.930 . S
C56 N53 1.279 . S
C56 C55 1.358 . S
C56 H59 0.930 . S
C57 C54 1.348 . S
C57 C55 1.356 . S
H58 C52 0.930 . S
H59 C56 0.930 . S
O60 Li0 1.956 . S
O60 Li1 1.970 . S
O60 Li2 1.961 . S
O60 C4 1.325 . S
O61 Li0 1.970 . S
O61 Li1 1.956 . S
O61 Li3 1.961 . S
O61 C10 1.325 . S
O62 Li0 1.961 . S
O62 Li2 1.956 . S
O62 Li3 1.970 . S
O62 C32 1.325 . S
O63 Li1 1.961 . S
O63 Li2 1.970 . S
O63 Li3 1.956 . S
O63 C38 1.325 . S
H64 C6 0.929 . S
H65 C7 0.930 . S
H66 C8 0.930 . S
H67 C9 0.930 . S
H68 C11 0.930 . S
H69 C13 0.929 . S
H70 C14 0.930 . S
H71 C15 0.930 . S
H72 C18 0.930 . S
H73 C21 0.929 . S
H74 C26 0.929 . S
H75 C27 0.930 . S
H76 C34 0.929 . S
H77 C35 0.930 . S
H78 C36 0.930 . S
H79 C37 0.930 . S
H80 C39 0.929 . S
H81 C40 0.930 . S
H82 C41 0.930 . S
H83 C42 0.930 . S
H84 C46 0.929 . S
H85 C48 0.930 . S
H86 C54 0.929 . S
H87 C55 0.930 . S
Li88 N105 1.990 . S
Li88 O148 1.956 1_545 S
Li88 O149 1.970 . S
Li88 O150 1.961 . S
Li89 N113 1.990 . S
Li89 O148 1.970 . S
Li89 O149 1.956 1_565 S
Li89 O151 1.961 . S
Li90 N135 1.991 . S
Li90 O148 1.968 . S
Li90 O150 1.948 1_565 S
Li90 O151 1.975 . S
Li91 N141 1.990 . S
Li91 O149 1.961 . S
Li91 O150 1.970 . S
Li91 O151 1.956 1_545 S
C92 C94 1.348 . S
C92 C95 1.356 1_565 S
C92 O148 1.325 . S
N93 C96 1.314 . S
N93 C97 1.279 1_565 S
C94 C92 1.348 . S
C94 C96 1.353 . S
C94 H152 0.929 . S
C95 C92 1.356 1_545 S
C95 C97 1.358 . S
C95 H153 0.930 . S
C96 N93 1.314 . S
C96 C94 1.353 . S
C96 H154 0.930 . S
C97 N93 1.279 1_545 S
C97 C95 1.358 . S
C97 H155 0.930 . S
C98 C101 1.348 . S
C98 C102 1.356 1_545 S
C98 O149 1.325 . S
C99 N100 1.279 1_565 S
C99 C102 1.358 . S
C99 H156 0.930 . S
N100 C99 1.279 1_545 S
N100 C103 1.314 . S
C101 C98 1.348 . S
C101 C103 1.353 . S
C101 H157 0.929 . S
C102 C98 1.356 1_565 S
C102 C99 1.358 . S
C102 H158 0.930 . S
C103 N100 1.314 . S
C103 C101 1.353 . S
C103 H159 0.930 . S
C104 N105 1.314 . S
C104 C109 1.353 . S
C104 H110 0.930 . S
N105 Li88 1.990 . S
N105 C104 1.314 . S
N105 C107 1.279 . S
C106 C107 1.358 . S
C106 C108 1.356 . S
C106 H160 0.930 . S
C107 N105 1.279 . S
C107 C106 1.358 . S
C107 H111 0.930 . S
C108 C106 1.356 . S
C108 C109 1.348 . S
C109 C104 1.353 . S
C109 C108 1.348 . S
C109 H161 0.929 . S
H110 C104 0.930 . S
H111 C107 0.930 . S
C112 N113 1.314 . S
C112 C114 1.353 . S
C112 H118 0.930 . S
N113 Li89 1.990 . S
N113 C112 1.314 . S
N113 C116 1.279 . S
C114 C112 1.353 . S
C114 C117 1.348 . S
C114 H162 0.929 . S
C115 C116 1.358 . S
C115 C117 1.356 . S
C115 H163 0.930 . S
C116 N113 1.279 . S
C116 C115 1.358 . S
C116 H119 0.930 . S
C117 C114 1.348 . S
C117 C115 1.356 . S
H118 C112 0.930 . S
H119 C116 0.930 . S
C120 C122 1.348 . S
C120 C123 1.356 . S
C120 O150 1.325 . S
N121 C124 1.314 . S
N121 C125 1.279 . S
C122 C120 1.348 . S
C122 C124 1.353 . S
C122 H164 0.929 . S
C123 C120 1.356 . S
C123 C125 1.358 . S
C123 H165 0.930 . S
C124 N121 1.314 . S
C124 C122 1.353 . S
C124 H166 0.930 . S
C125 N121 1.279 . S
C125 C123 1.358 . S
C125 H167 0.930 . S
C126 C127 1.348 . S
C126 C128 1.356 . S
C126 O151 1.325 . S
C127 C126 1.348 . S
C127 C129 1.353 . S
C127 H168 0.929 . S
C128 C126 1.356 . S
C128 C130 1.358 . S
C128 H169 0.930 . S
C129 C127 1.353 . S
C129 N131 1.314 . S
C129 H170 0.930 . S
C130 C128 1.358 . S
C130 N131 1.279 . S
C130 H171 0.930 . S
N131 C129 1.314 . S
N131 C130 1.279 . S
C132 C134 1.353 . S
C132 N135 1.326 . S
C132 H138 0.930 . S
C133 N135 1.266 1_545 S
C133 C136 1.358 . S
C133 H139 0.930 . S
C134 C132 1.353 . S
C134 C137 1.348 . S
C134 H172 0.929 . S
N135 Li90 1.991 . S
N135 C132 1.326 . S
N135 C133 1.266 1_565 S
C136 C133 1.358 . S
C136 C137 1.356 1_545 S
C136 H173 0.930 . S
C137 C134 1.348 . S
C137 C136 1.356 1_565 S
H138 C132 0.930 . S
H139 C133 0.930 . S
C140 N141 1.314 . S
C140 C142 1.353 . S
C140 H146 0.930 . S
N141 Li91 1.990 . S
N141 C140 1.314 . S
N141 C144 1.279 1_545 S
C142 C140 1.353 . S
C142 C145 1.348 . S
C142 H174 0.929 . S
C143 C144 1.371 . S
C143 C145 1.342 1_565 S
C143 H175 0.931 . S
C144 N141 1.279 1_565 S
C144 C143 1.371 . S
C144 H147 0.930 . S
C145 C142 1.348 . S
C145 C143 1.342 1_545 S
H146 C140 0.930 . S
H147 C144 0.930 . S
O148 Li88 1.956 1_565 S
O148 Li89 1.970 . S
O148 Li90 1.968 . S
O148 C92 1.325 . S
O149 Li88 1.970 . S
O149 Li89 1.956 1_545 S
O149 Li91 1.961 . S
O149 C98 1.325 . S
O150 Li88 1.961 . S
O150 Li90 1.948 1_545 S
O150 Li91 1.970 . S
O150 C120 1.325 . S
O151 Li89 1.961 . S
O151 Li90 1.975 . S
O151 Li91 1.956 1_565 S
O151 C126 1.325 . S
H152 C94 0.929 . S
H153 C95 0.930 . S
H154 C96 0.930 . S
H155 C97 0.930 . S
H156 C99 0.930 . S
H157 C101 0.929 . S
H158 C102 0.930 . S
H159 C103 0.930 . S
H160 C106 0.930 . S
H161 C109 0.929 . S
H162 C114 0.929 . S
H163 C115 0.930 . S
H164 C122 0.929 . S
H165 C123 0.930 . S
H166 C124 0.930 . S
H167 C125 0.930 . S
H168 C127 0.929 . S
H169 C128 0.930 . S
H170 C129 0.930 . S
H171 C130 0.930 . S
H172 C134 0.929 . S
H173 C136 0.930 . S
H174 C142 0.929 . S
H175 C143 0.931 . S
Li176 N193 1.990 . S
Li176 O236 1.956 1_655 S
Li176 O237 1.970 . S
Li176 O238 1.961 . S
Li177 N201 1.990 . S
Li177 O236 1.970 . S
Li177 O237 1.956 1_455 S
Li177 O239 1.961 . S
Li178 N223 1.990 . S
Li178 O236 1.958 . S
Li178 O238 1.951 1_455 S
Li178 O239 1.977 . S
Li179 N229 1.990 . S
Li179 O237 1.961 . S
Li179 O238 1.970 . S
Li179 O239 1.956 1_655 S
C180 C182 1.348 . S
C180 C183 1.356 1_455 S
C180 O236 1.325 . S
N181 C184 1.314 . S
N181 C185 1.279 1_455 S
C182 C180 1.348 . S
C182 C184 1.353 . S
C182 H240 0.929 . S
C183 C180 1.356 1_655 S
C183 C185 1.358 . S
C183 H241 0.930 . S
C184 N181 1.314 . S
C184 C182 1.353 . S
C184 H242 0.930 . S
C185 N181 1.279 1_655 S
C185 C183 1.358 . S
C185 H243 0.930 . S
C186 C189 1.348 . S
C186 C190 1.356 1_655 S
C186 O237 1.325 . S
C187 N188 1.279 1_455 S
C187 C190 1.358 . S
C187 H244 0.930 . S
N188 C187 1.279 1_655 S
N188 C191 1.314 . S
C189 C186 1.348 . S
C189 C191 1.353 . S
C189 H245 0.929 . S
C190 C186 1.356 1_455 S
C190 C187 1.358 . S
C190 H246 0.930 . S
C191 N188 1.314 . S
C191 C189 1.353 . S
C191 H247 0.930 . S
C192 N193 1.314 . S
C192 C197 1.353 . S
C192 H198 0.930 . S
N193 Li176 1.990 . S
N193 C192 1.314 . S
N193 C195 1.279 . S
C194 C195 1.358 . S
C194 C196 1.356 . S
C194 H248 0.930 . S
C195 N193 1.279 . S
C195 C194 1.358 . S
C195 H199 0.930 . S
C196 C194 1.356 . S
C196 C197 1.348 . S
C197 C192 1.353 . S
C197 C196 1.348 . S
C197 H249 0.929 . S
H198 C192 0.930 . S
H199 C195 0.930 . S
C200 N201 1.314 . S
C200 C202 1.353 . S
C200 H206 0.930 . S
N201 Li177 1.990 . S
N201 C200 1.314 . S
N201 C204 1.279 . S
C202 C200 1.353 . S
C202 C205 1.348 . S
C202 H250 0.929 . S
C203 C204 1.358 . S
C203 C205 1.356 . S
C203 H251 0.930 . S
C204 N201 1.279 . S
C204 C203 1.358 . S
C204 H207 0.930 . S
C205 C202 1.348 . S
C205 C203 1.356 . S
H206 C200 0.930 . S
H207 C204 0.930 . S
C208 C210 1.348 . S
C208 C211 1.356 . S
C208 O238 1.325 . S
N209 C212 1.314 . S
N209 C213 1.279 . S
C210 C208 1.348 . S
C210 C212 1.353 . S
C210 H252 0.929 . S
C211 C208 1.356 . S
C211 C213 1.358 . S
C211 H253 0.930 . S
C212 N209 1.314 . S
C212 C210 1.353 . S
C212 H254 0.930 . S
C213 N209 1.279 . S
C213 C211 1.358 . S
C213 H255 0.930 . S
C214 C215 1.348 . S
C214 C216 1.356 . S
C214 O239 1.325 . S
C215 C214 1.348 . S
C215 C217 1.353 . S
C215 H256 0.929 . S
C216 C214 1.356 . S
C216 C218 1.358 . S
C216 H257 0.930 . S
C217 C215 1.353 . S
C217 N219 1.314 . S
C217 H258 0.930 . S
C218 C216 1.358 . S
C218 N219 1.279 . S
C218 H259 0.930 . S
N219 C217 1.314 . S
N219 C218 1.279 . S
C220 C222 1.353 . S
C220 N223 1.319 . S
C220 H226 0.930 . S
C221 N223 1.277 1_655 S
C221 C224 1.358 . S
C221 H227 0.930 . S
C222 C220 1.353 . S
C222 C225 1.348 . S
C222 H260 0.929 . S
N223 Li178 1.990 . S
N223 C220 1.319 . S
N223 C221 1.277 1_455 S
C224 C221 1.358 . S
C224 C225 1.356 1_655 S
C224 H261 0.930 . S
C225 C222 1.348 . S
C225 C224 1.356 1_455 S
H226 C220 0.930 . S
H227 C221 0.930 . S
C228 N229 1.314 . S
C228 C230 1.353 . S
C228 H234 0.930 . S
N229 Li179 1.990 . S
N229 C228 1.314 . S
N229 C232 1.279 1_655 S
C230 C228 1.353 . S
C230 C233 1.348 . S
C230 H262 0.929 . S
C231 C232 1.363 1_655 S
C231 C233 1.367 . S
C231 H263 0.914 1_655 S
C232 N229 1.279 1_455 S
C232 C231 1.363 1_455 S
C232 H235 0.930 . S
C233 C230 1.348 . S
C233 C231 1.367 . S
H234 C228 0.930 . S
H235 C232 0.930 . S
O236 Li176 1.956 1_455 S
O236 Li177 1.970 . S
O236 Li178 1.958 . S
O236 C180 1.325 . S
O237 Li176 1.970 . S
O237 Li177 1.956 1_655 S
O237 Li179 1.961 . S
O237 C186 1.325 . S
O238 Li176 1.961 . S
O238 Li178 1.951 1_655 S
O238 Li179 1.970 . S
O238 C208 1.325 . S
O239 Li177 1.961 . S
O239 Li178 1.977 . S
O239 Li179 1.956 1_455 S
O239 C214 1.325 . S
H240 C182 0.929 . S
H241 C183 0.930 . S
H242 C184 0.930 . S
H243 C185 0.930 . S
H244 C187 0.930 . S
H245 C189 0.929 . S
H246 C190 0.930 . S
H247 C191 0.930 . S
H248 C194 0.930 . S
H249 C197 0.929 . S
H250 C202 0.929 . S
H251 C203 0.930 . S
H252 C210 0.929 . S
H253 C211 0.930 . S
H254 C212 0.930 . S
H255 C213 0.930 . S
H256 C215 0.929 . S
H257 C216 0.930 . S
H258 C217 0.930 . S
H259 C218 0.930 . S
H260 C222 0.929 . S
H261 C224 0.930 . S
H262 C230 0.929 . S
H263 C231 0.914 1_455 S
Li264 N281 1.990 . S
Li264 O324 1.956 . S
Li264 O325 1.970 . S
Li264 O326 1.961 . S
Li265 N289 1.990 . S
Li265 O324 1.970 . S
Li265 O325 1.956 . S
Li265 O327 1.961 . S
Li266 N311 1.990 . S
Li266 O324 1.961 . S
Li266 O326 1.956 . S
Li266 O327 1.970 . S
Li267 N317 1.990 . S
Li267 O325 1.961 . S
Li267 O326 1.970 . S
Li267 O327 1.956 . S
C268 C270 1.348 . S
C268 C271 1.356 . S
C268 O324 1.325 . S
N269 C272 1.314 . S
N269 C273 1.279 . S
C270 C268 1.348 . S
C270 C272 1.353 . S
C270 H328 0.929 . S
C271 C268 1.356 . S
C271 C273 1.358 . S
C271 H329 0.930 . S
C272 N269 1.314 . S
C272 C270 1.353 . S
C272 H330 0.930 . S
C273 N269 1.279 . S
C273 C271 1.358 . S
C273 H331 0.930 . S
C274 C277 1.348 . S
C274 C278 1.356 . S
C274 O325 1.325 . S
C275 N276 1.279 . S
C275 C278 1.358 . S
C275 H332 0.930 . S
N276 C275 1.279 . S
N276 C279 1.314 . S
C277 C274 1.348 . S
C277 C279 1.353 . S
C277 H333 0.929 . S
C278 C274 1.356 . S
C278 C275 1.358 . S
C278 H334 0.930 . S
C279 N276 1.314 . S
C279 C277 1.353 . S
C279 H335 0.930 . S
C280 N281 1.314 . S
C280 C285 1.353 . S
C280 H286 0.930 . S
N281 Li264 1.990 . S
N281 C280 1.314 . S
N281 C283 1.279 . S
C282 C283 1.358 . S
C282 C284 1.356 . S
C282 H336 0.930 . S
C283 N281 1.279 . S
C283 C282 1.358 . S
C283 H287 0.930 . S
C284 C282 1.356 . S
C284 C285 1.348 . S
C285 C280 1.353 . S
C285 C284 1.348 . S
C285 H337 0.929 . S
H286 C280 0.930 . S
H287 C283 0.930 . S
C288 N289 1.314 . S
C288 C290 1.353 . S
C288 H294 0.930 . S
N289 Li265 1.990 . S
N289 C288 1.314 . S
N289 C292 1.279 . S
C290 C288 1.353 . S
C290 C293 1.348 . S
C290 H338 0.929 . S
C291 C292 1.358 . S
C291 C293 1.356 . S
C291 H339 0.930 . S
C292 N289 1.279 . S
C292 C291 1.358 . S
C292 H295 0.930 . S
C293 C290 1.348 . S
C293 C291 1.356 . S
H294 C288 0.930 . S
H295 C292 0.930 . S
C296 C298 1.348 . S
C296 C299 1.356 . S
C296 O326 1.325 . S
N297 C300 1.314 . S
N297 C301 1.279 . S
C298 C296 1.348 . S
C298 C300 1.353 . S
C298 H340 0.929 . S
C299 C296 1.356 . S
C299 C301 1.358 . S
C299 H341 0.930 . S
C300 N297 1.314 . S
C300 C298 1.353 . S
C300 H342 0.930 . S
C301 N297 1.279 . S
C301 C299 1.358 . S
C301 H343 0.930 . S
C302 C303 1.348 . S
C302 C304 1.356 . S
C302 O327 1.325 . S
C303 C302 1.348 . S
C303 C305 1.353 . S
C303 H344 0.929 . S
C304 C302 1.356 . S
C304 C306 1.358 . S
C304 H345 0.930 . S
C305 C303 1.353 . S
C305 N307 1.314 . S
C305 H346 0.930 . S
C306 C304 1.358 . S
C306 N307 1.279 . S
C306 H347 0.930 . S
N307 C305 1.314 . S
N307 C306 1.279 . S
C308 C310 1.353 . S
C308 N311 1.314 . S
C308 H314 0.930 . S
C309 N311 1.279 . S
C309 C312 1.358 . S
C309 H315 0.930 . S
C310 C308 1.353 . S
C310 C313 1.348 . S
C310 H348 0.929 . S
N311 Li266 1.990 . S
N311 C308 1.314 . S
N311 C309 1.279 . S
C312 C309 1.358 . S
C312 C313 1.356 . S
C312 H349 0.930 . S
C313 C310 1.348 . S
C313 C312 1.356 . S
H314 C308 0.930 . S
H315 C309 0.930 . S
C316 N317 1.314 . S
C316 C318 1.353 . S
C316 H322 0.930 . S
N317 Li267 1.990 . S
N317 C316 1.314 . S
N317 C320 1.279 . S
C318 C316 1.353 . S
C318 C321 1.348 . S
C318 H350 0.929 . S
C319 C320 1.358 . S
C319 C321 1.356 . S
C319 H351 0.930 . S
C320 N317 1.279 . S
C320 C319 1.358 . S
C320 H323 0.930 . S
C321 C318 1.348 . S
C321 C319 1.356 . S
H322 C316 0.930 . S
H323 C320 0.930 . S
O324 Li264 1.956 . S
O324 Li265 1.970 . S
O324 Li266 1.961 . S
O324 C268 1.325 . S
O325 Li264 1.970 . S
O325 Li265 1.956 . S
O325 Li267 1.961 . S
O325 C274 1.325 . S
O326 Li264 1.961 . S
O326 Li266 1.956 . S
O326 Li267 1.970 . S
O326 C296 1.325 . S
O327 Li265 1.961 . S
O327 Li266 1.970 . S
O327 Li267 1.956 . S
O327 C302 1.325 . S
H328 C270 0.929 . S
H329 C271 0.930 . S
H330 C272 0.930 . S
H331 C273 0.930 . S
H332 C275 0.930 . S
H333 C277 0.929 . S
H334 C278 0.930 . S
H335 C279 0.930 . S
H336 C282 0.930 . S
H337 C285 0.929 . S
H338 C290 0.929 . S
H339 C291 0.930 . S
H340 C298 0.929 . S
H341 C299 0.930 . S
H342 C300 0.930 . S
H343 C301 0.930 . S
H344 C303 0.929 . S
H345 C304 0.930 . S
H346 C305 0.930 . S
H347 C306 0.930 . S
H348 C310 0.929 . S
H349 C312 0.930 . S
H350 C318 0.929 . S
H351 C319 0.930 . S
Li352 N369 1.990 . S
Li352 O412 1.956 1_565 S
Li352 O413 1.970 . S
Li352 O414 1.961 . S
Li353 N377 1.990 . S
Li353 O412 1.977 . S
Li353 O413 1.951 1_545 S
Li353 O415 1.958 . S
Li354 N399 1.990 . S
Li354 O412 1.961 . S
Li354 O414 1.956 1_545 S
Li354 O415 1.970 . S
Li355 N405 1.990 . S
Li355 O413 1.961 . S
Li355 O414 1.970 . S
Li355 O415 1.956 1_565 S
C356 C358 1.348 . S
C356 C359 1.356 . S
C356 O412 1.325 . S
N357 C360 1.314 . S
N357 C361 1.279 . S
C358 C356 1.348 . S
C358 C360 1.353 . S
C358 H416 0.929 . S
C359 C356 1.356 . S
C359 C361 1.358 . S
C359 H417 0.930 . S
C360 N357 1.314 . S
C360 C358 1.353 . S
C360 H418 0.930 . S
C361 N357 1.279 . S
C361 C359 1.358 . S
C361 H419 0.930 . S
C362 C365 1.348 . S
C362 C366 1.356 . S
C362 O413 1.325 . S
C363 N364 1.279 . S
C363 C366 1.358 . S
C363 H420 0.930 . S
N364 C363 1.279 . S
N364 C367 1.314 . S
C365 C362 1.348 . S
C365 C367 1.353 . S
C365 H421 0.929 . S
C366 C362 1.356 . S
C366 C363 1.358 . S
C366 H422 0.930 . S
C367 N364 1.314 . S
C367 C365 1.353 . S
C367 H423 0.930 . S
C368 N369 1.314 . S
C368 C373 1.353 . S
C368 H374 0.930 . S
N369 Li352 1.990 . S
N369 C368 1.314 . S
N369 C371 1.279 1_565 S
C370 C371 1.363 1_565 S
C370 C372 1.367 . S
C370 H424 0.914 1_565 S
C371 N369 1.279 1_545 S
C371 C370 1.363 1_545 S
C371 H375 0.930 . S
C372 C370 1.367 . S
C372 C373 1.348 . S
C373 C368 1.353 . S
C373 C372 1.348 . S
C373 H425 0.929 . S
H374 C368 0.930 . S
H375 C371 0.930 . S
C376 N377 1.319 . S
C376 C378 1.353 . S
C376 H382 0.930 . S
N377 Li353 1.990 . S
N377 C376 1.319 . S
N377 C380 1.277 1_545 S
C378 C376 1.353 . S
C378 C381 1.348 . S
C378 H426 0.929 . S
C379 C380 1.358 . S
C379 C381 1.356 1_565 S
C379 H427 0.930 . S
C380 N377 1.277 1_565 S
C380 C379 1.358 . S
C380 H383 0.930 . S
C381 C378 1.348 . S
C381 C379 1.356 1_545 S
H382 C376 0.930 . S
H383 C380 0.930 . S
C384 C386 1.348 . S
C384 C387 1.356 1_565 S
C384 O414 1.325 . S
N385 C388 1.314 . S
N385 C389 1.279 1_565 S
C386 C384 1.348 . S
C386 C388 1.353 . S
C386 H428 0.929 . S
C387 C384 1.356 1_545 S
C387 C389 1.358 . S
C387 H429 0.930 . S
C388 N385 1.314 . S
C388 C386 1.353 . S
C388 H430 0.930 . S
C389 N385 1.279 1_545 S
C389 C387 1.358 . S
C389 H431 0.930 . S
C390 C391 1.348 . S
C390 C392 1.356 1_545 S
C390 O415 1.325 . S
C391 C390 1.348 . S
C391 C393 1.353 . S
C391 H432 0.929 . S
C392 C390 1.356 1_565 S
C392 C394 1.358 . S
C392 H433 0.930 . S
C393 C391 1.353 . S
C393 N395 1.314 . S
C393 H434 0.930 . S
C394 C392 1.358 . S
C394 N395 1.279 1_565 S
C394 H435 0.930 . S
N395 C393 1.314 . S
N395 C394 1.279 1_545 S
C396 C398 1.353 . S
C396 N399 1.314 . S
C396 H402 0.930 . S
C397 N399 1.279 . S
C397 C400 1.358 . S
C397 H403 0.930 . S
C398 C396 1.353 . S
C398 C401 1.348 . S
C398 H436 0.929 . S
N399 Li354 1.990 . S
N399 C396 1.314 . S
N399 C397 1.279 . S
C400 C397 1.358 . S
C400 C401 1.356 . S
C400 H437 0.930 . S
C401 C398 1.348 . S
C401 C400 1.356 . S
H402 C396 0.930 . S
H403 C397 0.930 . S
C404 N405 1.314 . S
C404 C406 1.353 . S
C404 H410 0.930 . S
N405 Li355 1.990 . S
N405 C404 1.314 . S
N405 C408 1.279 . S
C406 C404 1.353 . S
C406 C409 1.348 . S
C406 H438 0.929 . S
C407 C408 1.358 . S
C407 C409 1.356 . S
C407 H439 0.930 . S
C408 N405 1.279 . S
C408 C407 1.358 . S
C408 H411 0.930 . S
C409 C406 1.348 . S
C409 C407 1.356 . S
H410 C404 0.930 . S
H411 C408 0.930 . S
O412 Li352 1.956 1_545 S
O412 Li353 1.977 . S
O412 Li354 1.961 . S
O412 C356 1.325 . S
O413 Li352 1.970 . S
O413 Li353 1.951 1_565 S
O413 Li355 1.961 . S
O413 C362 1.325 . S
O414 Li352 1.961 . S
O414 Li354 1.956 1_565 S
O414 Li355 1.970 . S
O414 C384 1.325 . S
O415 Li353 1.958 . S
O415 Li354 1.970 . S
O415 Li355 1.956 1_545 S
O415 C390 1.325 . S
H416 C358 0.929 . S
H417 C359 0.930 . S
H418 C360 0.930 . S
H419 C361 0.930 . S
H420 C363 0.930 . S
H421 C365 0.929 . S
H422 C366 0.930 . S
H423 C367 0.930 . S
H424 C370 0.914 1_545 S
H425 C373 0.929 . S
H426 C378 0.929 . S
H427 C379 0.930 . S
H428 C386 0.929 . S
H429 C387 0.930 . S
H430 C388 0.930 . S
H431 C389 0.930 . S
H432 C391 0.929 . S
H433 C392 0.930 . S
H434 C393 0.930 . S
H435 C394 0.930 . S
H436 C398 0.929 . S
H437 C400 0.930 . S
H438 C406 0.929 . S
H439 C407 0.930 . S
Li440 N457 1.990 . S
Li440 O500 1.956 1_455 S
Li440 O501 1.970 . S
Li440 O502 1.961 . S
Li441 N465 1.990 . S
Li441 O500 1.970 . S
Li441 O501 1.956 1_655 S
Li441 O503 1.961 . S
Li442 N487 1.991 . S
Li442 O500 1.968 . S
Li442 O502 1.948 1_655 S
Li442 O503 1.975 . S
Li443 N493 1.990 . S
Li443 O501 1.961 . S
Li443 O502 1.970 . S
Li443 O503 1.956 1_455 S
C444 C446 1.348 . S
C444 C447 1.356 1_655 S
C444 O500 1.325 . S
N445 C448 1.314 . S
N445 C449 1.279 1_655 S
C446 C444 1.348 . S
C446 C448 1.353 . S
C446 H504 0.929 . S
C447 C444 1.356 1_455 S
C447 C449 1.358 . S
C447 H505 0.930 . S
C448 N445 1.314 . S
C448 C446 1.353 . S
C448 H506 0.930 . S
C449 N445 1.279 1_455 S
C449 C447 1.358 . S
C449 H507 0.930 . S
C450 C453 1.348 . S
C450 C454 1.356 1_455 S
C450 O501 1.325 . S
C451 N452 1.279 1_655 S
C451 C454 1.358 . S
C451 H508 0.930 . S
N452 C451 1.279 1_455 S
N452 C455 1.314 . S
C453 C450 1.348 . S
C453 C455 1.353 . S
C453 H509 0.929 . S
C454 C450 1.356 1_655 S
C454 C451 1.358 . S
C454 H510 0.930 . S
C455 N452 1.314 . S
C455 C453 1.353 . S
C455 H511 0.930 . S
C456 N457 1.314 . S
C456 C461 1.353 . S
C456 H462 0.930 . S
N457 Li440 1.990 . S
N457 C456 1.314 . S
N457 C459 1.279 . S
C458 C459 1.358 . S
C458 C460 1.356 . S
C458 H512 0.930 . S
C459 N457 1.279 . S
C459 C458 1.358 . S
C459 H463 0.930 . S
C460 C458 1.356 . S
C460 C461 1.348 . S
C461 C456 1.353 . S
C461 C460 1.348 . S
C461 H513 0.929 . S
H462 C456 0.930 . S
H463 C459 0.930 . S
C464 N465 1.314 . S
C464 C466 1.353 . S
C464 H470 0.930 . S
N465 Li441 1.990 . S
N465 C464 1.314 . S
N465 C468 1.279 . S
C466 C464 1.353 . S
C466 C469 1.348 . S
C466 H514 0.929 . S
C467 C468 1.358 . S
C467 C469 1.356 . S
C467 H515 0.930 . S
C468 N465 1.279 . S
C468 C467 1.358 . S
C468 H471 0.930 . S
C469 C466 1.348 . S
C469 C467 1.356 . S
H470 C464 0.930 . S
H471 C468 0.930 . S
C472 C474 1.348 . S
C472 C475 1.356 . S
C472 O502 1.325 . S
N473 C476 1.314 . S
N473 C477 1.279 . S
C474 C472 1.348 . S
C474 C476 1.353 . S
C474 H516 0.929 . S
C475 C472 1.356 . S
C475 C477 1.358 . S
C475 H517 0.930 . S
C476 N473 1.314 . S
C476 C474 1.353 . S
C476 H518 0.930 . S
C477 N473 1.279 . S
C477 C475 1.358 . S
C477 H519 0.930 . S
C478 C479 1.348 . S
C478 C480 1.356 . S
C478 O503 1.325 . S
C479 C478 1.348 . S
C479 C481 1.353 . S
C479 H520 0.929 . S
C480 C478 1.356 . S
C480 C482 1.358 . S
C480 H521 0.930 . S
C481 C479 1.353 . S
C481 N483 1.314 . S
C481 H522 0.930 . S
C482 C480 1.358 . S
C482 N483 1.279 . S
C482 H523 0.930 . S
N483 C481 1.314 . S
N483 C482 1.279 . S
C484 C486 1.353 . S
C484 N487 1.326 . S
C484 H490 0.930 . S
C485 N487 1.266 1_455 S
C485 C488 1.358 . S
C485 H491 0.930 . S
C486 C484 1.353 . S
C486 C489 1.348 . S
C486 H524 0.929 . S
N487 Li442 1.991 . S
N487 C484 1.326 . S
N487 C485 1.266 1_655 S
C488 C485 1.358 . S
C488 C489 1.356 1_455 S
C488 H525 0.930 . S
C489 C486 1.348 . S
C489 C488 1.356 1_655 S
H490 C484 0.930 . S
H491 C485 0.930 . S
C492 N493 1.314 . S
C492 C494 1.353 . S
C492 H498 0.930 . S
N493 Li443 1.990 . S
N493 C492 1.314 . S
N493 C496 1.279 1_455 S
C494 C492 1.353 . S
C494 C497 1.348 . S
C494 H526 0.929 . S
C495 C496 1.371 . S
C495 C497 1.342 1_655 S
C495 H527 0.931 . S
C496 N493 1.279 1_655 S
C496 C495 1.371 . S
C496 H499 0.930 . S
C497 C494 1.348 . S
C497 C495 1.342 1_455 S
H498 C492 0.930 . S
H499 C496 0.930 . S
O500 Li440 1.956 1_655 S
O500 Li441 1.970 . S
O500 Li442 1.968 . S
O500 C444 1.325 . S
O501 Li440 1.970 . S
O501 Li441 1.956 1_455 S
O501 Li443 1.961 . S
O501 C450 1.325 . S
O502 Li440 1.961 . S
O502 Li442 1.948 1_455 S
O502 Li443 1.970 . S
O502 C472 1.325 . S
O503 Li441 1.961 . S
O503 Li442 1.975 . S
O503 Li443 1.956 1_655 S
O503 C478 1.325 . S
H504 C446 0.929 . S
H505 C447 0.930 . S
H506 C448 0.930 . S
H507 C449 0.930 . S
H508 C451 0.930 . S
H509 C453 0.929 . S
H510 C454 0.930 . S
H511 C455 0.930 . S
H512 C458 0.930 . S
H513 C461 0.929 . S
H514 C466 0.929 . S
H515 C467 0.930 . S
H516 C474 0.929 . S
H517 C475 0.930 . S
H518 C476 0.930 . S
H519 C477 0.930 . S
H520 C479 0.929 . S
H521 C480 0.930 . S
H522 C481 0.930 . S
H523 C482 0.930 . S
H524 C486 0.929 . S
H525 C488 0.930 . S
H526 C494 0.929 . S
H527 C495 0.931 . S
Li528 N545 1.990 . S
Li528 O588 1.956 . S
Li528 O589 1.970 . S
Li528 O590 1.961 . S
Li529 N553 1.990 . S
Li529 O588 1.970 . S
Li529 O589 1.956 . S
Li529 O591 1.961 . S
Li530 N575 1.990 . S
Li530 O588 1.961 . S
Li530 O590 1.956 . S
Li530 O591 1.970 . S
Li531 N581 1.990 . S
Li531 O589 1.961 . S
Li531 O590 1.970 . S
Li531 O591 1.956 . S
C532 C534 1.348 . S
C532 C535 1.356 . S
C532 O588 1.325 . S
N533 C536 1.314 . S
N533 C537 1.279 . S
C534 C532 1.348 . S
C534 C536 1.353 . S
C534 H592 0.929 . S
C535 C532 1.356 . S
C535 C537 1.358 . S
C535 H593 0.930 . S
C536 N533 1.314 . S
C536 C534 1.353 . S
C536 H594 0.930 . S
C537 N533 1.279 . S
C537 C535 1.358 . S
C537 H595 0.930 . S
C538 C541 1.348 . S
C538 C542 1.356 . S
C538 O589 1.325 . S
C539 N540 1.279 . S
C539 C542 1.358 . S
C539 H596 0.930 . S
N540 C539 1.279 . S
N540 C543 1.314 . S
C541 C538 1.348 . S
C541 C543 1.353 . S
C541 H597 0.929 . S
C542 C538 1.356 . S
C542 C539 1.358 . S
C542 H598 0.930 . S
C543 N540 1.314 . S
C543 C541 1.353 . S
C543 H599 0.930 . S
C544 N545 1.314 . S
C544 C549 1.353 . S
C544 H550 0.930 . S
N545 Li528 1.990 . S
N545 C544 1.314 . S
N545 C547 1.279 . S
C546 C547 1.358 . S
C546 C548 1.356 . S
C546 H600 0.930 . S
C547 N545 1.279 . S
C547 C546 1.358 . S
C547 H551 0.930 . S
C548 C546 1.356 . S
C548 C549 1.348 . S
C549 C544 1.353 . S
C549 C548 1.348 . S
C549 H601 0.929 . S
H550 C544 0.930 . S
H551 C547 0.930 . S
C552 N553 1.314 . S
C552 C554 1.353 . S
C552 H558 0.930 . S
N553 Li529 1.990 . S
N553 C552 1.314 . S
N553 C556 1.279 . S
C554 C552 1.353 . S
C554 C557 1.348 . S
C554 H602 0.929 . S
C555 C556 1.358 . S
C555 C557 1.356 . S
C555 H603 0.930 . S
C556 N553 1.279 . S
C556 C555 1.358 . S
C556 H559 0.930 . S
C557 C554 1.348 . S
C557 C555 1.356 . S
H558 C552 0.930 . S
H559 C556 0.930 . S
C560 C562 1.348 . S
C560 C563 1.356 . S
C560 O590 1.325 . S
N561 C564 1.314 . S
N561 C565 1.279 . S
C562 C560 1.348 . S
C562 C564 1.353 . S
C562 H604 0.929 . S
C563 C560 1.356 . S
C563 C565 1.358 . S
C563 H605 0.930 . S
C564 N561 1.314 . S
C564 C562 1.353 . S
C564 H606 0.930 . S
C565 N561 1.279 . S
C565 C563 1.358 . S
C565 H607 0.930 . S
C566 C567 1.348 . S
C566 C568 1.356 . S
C566 O591 1.325 . S
C567 C566 1.348 . S
C567 C569 1.353 . S
C567 H608 0.929 . S
C568 C566 1.356 . S
C568 C570 1.358 . S
C568 H609 0.930 . S
C569 C567 1.353 . S
C569 N571 1.314 . S
C569 H610 0.930 . S
C570 C568 1.358 . S
C570 N571 1.279 . S
C570 H611 0.930 . S
N571 C569 1.314 . S
N571 C570 1.279 . S
C572 C574 1.353 . S
C572 N575 1.314 . S
C572 H578 0.930 . S
C573 N575 1.279 . S
C573 C576 1.358 . S
C573 H579 0.930 . S
C574 C572 1.353 . S
C574 C577 1.348 . S
C574 H612 0.929 . S
N575 Li530 1.990 . S
N575 C572 1.314 . S
N575 C573 1.279 . S
C576 C573 1.358 . S
C576 C577 1.356 . S
C576 H613 0.930 . S
C577 C574 1.348 . S
C577 C576 1.356 . S
H578 C572 0.930 . S
H579 C573 0.930 . S
C580 N581 1.314 . S
C580 C582 1.353 . S
C580 H586 0.930 . S
N581 Li531 1.990 . S
N581 C580 1.314 . S
N581 C584 1.279 . S
C582 C580 1.353 . S
C582 C585 1.348 . S
C582 H614 0.929 . S
C583 C584 1.358 . S
C583 C585 1.356 . S
C583 H615 0.930 . S
C584 N581 1.279 . S
C584 C583 1.358 . S
C584 H587 0.930 . S
C585 C582 1.348 . S
C585 C583 1.356 . S
H586 C580 0.930 . S
H587 C584 0.930 . S
O588 Li528 1.956 . S
O588 Li529 1.970 . S
O588 Li530 1.961 . S
O588 C532 1.325 . S
O589 Li528 1.970 . S
O589 Li529 1.956 . S
O589 Li531 1.961 . S
O589 C538 1.325 . S
O590 Li528 1.961 . S
O590 Li530 1.956 . S
O590 Li531 1.970 . S
O590 C560 1.325 . S
O591 Li529 1.961 . S
O591 Li530 1.970 . S
O591 Li531 1.956 . S
O591 C566 1.325 . S
H592 C534 0.929 . S
H593 C535 0.930 . S
H594 C536 0.930 . S
H595 C537 0.930 . S
H596 C539 0.930 . S
H597 C541 0.929 . S
H598 C542 0.930 . S
H599 C543 0.930 . S
H600 C546 0.930 . S
H601 C549 0.929 . S
H602 C554 0.929 . S
H603 C555 0.930 . S
H604 C562 0.929 . S
H605 C563 0.930 . S
H606 C564 0.930 . S
H607 C565 0.930 . S
H608 C567 0.929 . S
H609 C568 0.930 . S
H610 C569 0.930 . S
H611 C570 0.930 . S
H612 C574 0.929 . S
H613 C576 0.930 . S
H614 C582 0.929 . S
H615 C583 0.930 . S
Li616 N633 1.990 . S
Li616 O676 1.956 . S
Li616 O677 1.970 . S
Li616 O678 1.961 . S
Li617 N641 1.990 . S
Li617 O676 1.970 . S
Li617 O677 1.956 . S
Li617 O679 1.961 . S
Li618 N663 1.990 . S
Li618 O676 1.961 . S
Li618 O678 1.956 . S
Li618 O679 1.970 . S
Li619 N669 1.990 . S
Li619 O677 1.961 . S
Li619 O678 1.970 . S
Li619 O679 1.956 . S
C620 C622 1.348 . S
C620 C623 1.356 . S
C620 O676 1.325 . S
N621 C624 1.314 . S
N621 C625 1.279 . S
C622 C620 1.348 . S
C622 C624 1.353 . S
C622 H680 0.929 . S
C623 C620 1.356 . S
C623 C625 1.358 . S
C623 H681 0.930 . S
C624 N621 1.314 . S
C624 C622 1.353 . S
C624 H682 0.930 . S
C625 N621 1.279 . S
C625 C623 1.358 . S
C625 H683 0.930 . S
C626 C629 1.348 . S
C626 C630 1.356 . S
C626 O677 1.325 . S
C627 N628 1.279 . S
C627 C630 1.358 . S
C627 H684 0.930 . S
N628 C627 1.279 . S
N628 C631 1.314 . S
C629 C626 1.348 . S
C629 C631 1.353 . S
C629 H685 0.929 . S
C630 C626 1.356 . S
C630 C627 1.358 . S
C630 H686 0.930 . S
C631 N628 1.314 . S
C631 C629 1.353 . S
C631 H687 0.930 . S
C632 N633 1.314 . S
C632 C637 1.353 . S
C632 H638 0.930 . S
N633 Li616 1.990 . S
N633 C632 1.314 . S
N633 C635 1.279 . S
C634 C635 1.358 . S
C634 C636 1.356 . S
C634 H688 0.930 . S
C635 N633 1.279 . S
C635 C634 1.358 . S
C635 H639 0.930 . S
C636 C634 1.356 . S
C636 C637 1.348 . S
C637 C632 1.353 . S
C637 C636 1.348 . S
C637 H689 0.929 . S
H638 C632 0.930 . S
H639 C635 0.930 . S
C640 N641 1.314 . S
C640 C642 1.353 . S
C640 H646 0.930 . S
N641 Li617 1.990 . S
N641 C640 1.314 . S
N641 C644 1.279 . S
C642 C640 1.353 . S
C642 C645 1.348 . S
C642 H690 0.929 . S
C643 C644 1.358 . S
C643 C645 1.356 . S
C643 H691 0.930 . S
C644 N641 1.279 . S
C644 C643 1.358 . S
C644 H647 0.930 . S
C645 C642 1.348 . S
C645 C643 1.356 . S
H646 C640 0.930 . S
H647 C644 0.930 . S
C648 C650 1.348 . S
C648 C651 1.356 . S
C648 O678 1.325 . S
N649 C652 1.314 . S
N649 C653 1.279 . S
C650 C648 1.348 . S
C650 C652 1.353 . S
C650 H692 0.929 . S
C651 C648 1.356 . S
C651 C653 1.358 . S
C651 H693 0.930 . S
C652 N649 1.314 . S
C652 C650 1.353 . S
C652 H694 0.930 . S
C653 N649 1.279 . S
C653 C651 1.358 . S
C653 H695 0.930 . S
C654 C655 1.348 . S
C654 C656 1.356 . S
C654 O679 1.325 . S
C655 C654 1.348 . S
C655 C657 1.353 . S
C655 H696 0.929 . S
C656 C654 1.356 . S
C656 C658 1.358 . S
C656 H697 0.930 . S
C657 C655 1.353 . S
C657 N659 1.314 . S
C657 H698 0.930 . S
C658 C656 1.358 . S
C658 N659 1.279 . S
C658 H699 0.930 . S
N659 C657 1.314 . S
N659 C658 1.279 . S
C660 C662 1.353 . S
C660 N663 1.314 . S
C660 H666 0.930 . S
C661 N663 1.279 . S
C661 C664 1.358 . S
C661 H667 0.930 . S
C662 C660 1.353 . S
C662 C665 1.348 . S
C662 H700 0.929 . S
N663 Li618 1.990 . S
N663 C660 1.314 . S
N663 C661 1.279 . S
C664 C661 1.358 . S
C664 C665 1.356 . S
C664 H701 0.930 . S
C665 C662 1.348 . S
C665 C664 1.356 . S
H666 C660 0.930 . S
H667 C661 0.930 . S
C668 N669 1.314 . S
C668 C670 1.353 . S
C668 H674 0.930 . S
N669 Li619 1.990 . S
N669 C668 1.314 . S
N669 C672 1.279 . S
C670 C668 1.353 . S
C670 C673 1.348 . S
C670 H702 0.929 . S
C671 C672 1.358 . S
C671 C673 1.356 . S
C671 H703 0.930 . S
C672 N669 1.279 . S
C672 C671 1.358 . S
C672 H675 0.930 . S
C673 C670 1.348 . S
C673 C671 1.356 . S
H674 C668 0.930 . S
H675 C672 0.930 . S
O676 Li616 1.956 . S
O676 Li617 1.970 . S
O676 Li618 1.961 . S
O676 C620 1.325 . S
O677 Li616 1.970 . S
O677 Li617 1.956 . S
O677 Li619 1.961 . S
O677 C626 1.325 . S
O678 Li616 1.961 . S
O678 Li618 1.956 . S
O678 Li619 1.970 . S
O678 C648 1.325 . S
O679 Li617 1.961 . S
O679 Li618 1.970 . S
O679 Li619 1.956 . S
O679 C654 1.325 . S
H680 C622 0.929 . S
H681 C623 0.930 . S
H682 C624 0.930 . S
H683 C625 0.930 . S
H684 C627 0.930 . S
H685 C629 0.929 . S
H686 C630 0.930 . S
H687 C631 0.930 . S
H688 C634 0.930 . S
H689 C637 0.929 . S
H690 C642 0.929 . S
H691 C643 0.930 . S
H692 C650 0.929 . S
H693 C651 0.930 . S
H694 C652 0.930 . S
H695 C653 0.930 . S
H696 C655 0.929 . S
H697 C656 0.930 . S
H698 C657 0.930 . S
H699 C658 0.930 . S
H700 C662 0.929 . S
H701 C664 0.930 . S
H702 C670 0.929 . S
H703 C671 0.930 . S
Li704 N721 1.990 . S
Li704 O764 1.956 . S
Li704 O765 1.970 . S
Li704 O766 1.961 . S
Li705 N729 1.990 . S
Li705 O764 1.970 . S
Li705 O765 1.956 . S
Li705 O767 1.961 . S
Li706 N751 1.990 . S
Li706 O764 1.961 . S
Li706 O766 1.956 . S
Li706 O767 1.970 . S
Li707 N757 1.990 . S
Li707 O765 1.961 . S
Li707 O766 1.970 . S
Li707 O767 1.956 . S
C708 C710 1.348 . S
C708 C711 1.356 . S
C708 O764 1.325 . S
N709 C712 1.314 . S
N709 C713 1.279 . S
C710 C708 1.348 . S
C710 C712 1.353 . S
C710 H768 0.929 . S
C711 C708 1.356 . S
C711 C713 1.358 . S
C711 H769 0.930 . S
C712 N709 1.314 . S
C712 C710 1.353 . S
C712 H770 0.930 . S
C713 N709 1.279 . S
C713 C711 1.358 . S
C713 H771 0.930 . S
C714 C717 1.348 . S
C714 C718 1.356 . S
C714 O765 1.325 . S
C715 N716 1.279 . S
C715 C718 1.358 . S
C715 H772 0.930 . S
N716 C715 1.279 . S
N716 C719 1.314 . S
C717 C714 1.348 . S
C717 C719 1.353 . S
C717 H773 0.929 . S
C718 C714 1.356 . S
C718 C715 1.358 . S
C718 H774 0.930 . S
C719 N716 1.314 . S
C719 C717 1.353 . S
C719 H775 0.930 . S
C720 N721 1.314 . S
C720 C725 1.353 . S
C720 H726 0.930 . S
N721 Li704 1.990 . S
N721 C720 1.314 . S
N721 C723 1.279 . S
C722 C723 1.358 . S
C722 C724 1.356 . S
C722 H776 0.930 . S
C723 N721 1.279 . S
C723 C722 1.358 . S
C723 H727 0.930 . S
C724 C722 1.356 . S
C724 C725 1.348 . S
C725 C720 1.353 . S
C725 C724 1.348 . S
C725 H777 0.929 . S
H726 C720 0.930 . S
H727 C723 0.930 . S
C728 N729 1.314 . S
C728 C730 1.353 . S
C728 H734 0.930 . S
N729 Li705 1.990 . S
N729 C728 1.314 . S
N729 C732 1.279 . S
C730 C728 1.353 . S
C730 C733 1.348 . S
C730 H778 0.929 . S
C731 C732 1.358 . S
C731 C733 1.356 . S
C731 H779 0.930 . S
C732 N729 1.279 . S
C732 C731 1.358 . S
C732 H735 0.930 . S
C733 C730 1.348 . S
C733 C731 1.356 . S
H734 C728 0.930 . S
H735 C732 0.930 . S
C736 C738 1.348 . S
C736 C739 1.356 . S
C736 O766 1.325 . S
N737 C740 1.314 . S
N737 C741 1.279 . S
C738 C736 1.348 . S
C738 C740 1.353 . S
C738 H780 0.929 . S
C739 C736 1.356 . S
C739 C741 1.358 . S
C739 H781 0.930 . S
C740 N737 1.314 . S
C740 C738 1.353 . S
C740 H782 0.930 . S
C741 N737 1.279 . S
C741 C739 1.358 . S
C741 H783 0.930 . S
C742 C743 1.348 . S
C742 C744 1.356 . S
C742 O767 1.325 . S
C743 C742 1.348 . S
C743 C745 1.353 . S
C743 H784 0.929 . S
C744 C742 1.356 . S
C744 C746 1.358 . S
C744 H785 0.930 . S
C745 C743 1.353 . S
C745 N747 1.314 . S
C745 H786 0.930 . S
C746 C744 1.358 . S
C746 N747 1.279 . S
C746 H787 0.930 . S
N747 C745 1.314 . S
N747 C746 1.279 . S
C748 C750 1.353 . S
C748 N751 1.314 . S
C748 H754 0.930 . S
C749 N751 1.279 . S
C749 C752 1.358 . S
C749 H755 0.930 . S
C750 C748 1.353 . S
C750 C753 1.348 . S
C750 H788 0.929 . S
N751 Li706 1.990 . S
N751 C748 1.314 . S
N751 C749 1.279 . S
C752 C749 1.358 . S
C752 C753 1.356 . S
C752 H789 0.930 . S
C753 C750 1.348 . S
C753 C752 1.356 . S
H754 C748 0.930 . S
H755 C749 0.930 . S
C756 N757 1.314 . S
C756 C758 1.353 . S
C756 H762 0.930 . S
N757 Li707 1.990 . S
N757 C756 1.314 . S
N757 C760 1.279 . S
C758 C756 1.353 . S
C758 C761 1.348 . S
C758 H790 0.929 . S
C759 C760 1.358 . S
C759 C761 1.356 . S
C759 H791 0.930 . S
C760 N757 1.279 . S
C760 C759 1.358 . S
C760 H763 0.930 . S
C761 C758 1.348 . S
C761 C759 1.356 . S
H762 C756 0.930 . S
H763 C760 0.930 . S
O764 Li704 1.956 . S
O764 Li705 1.970 . S
O764 Li706 1.961 . S
O764 C708 1.325 . S
O765 Li704 1.970 . S
O765 Li705 1.956 . S
O765 Li707 1.961 . S
O765 C714 1.325 . S
O766 Li704 1.961 . S
O766 Li706 1.956 . S
O766 Li707 1.970 . S
O766 C736 1.325 . S
O767 Li705 1.961 . S
O767 Li706 1.970 . S
O767 Li707 1.956 . S
O767 C742 1.325 . S
H768 C710 0.929 . S
H769 C711 0.930 . S
H770 C712 0.930 . S
H771 C713 0.930 . S
H772 C715 0.930 . S
H773 C717 0.929 . S
H774 C718 0.930 . S
H775 C719 0.930 . S
H776 C722 0.930 . S
H777 C725 0.929 . S
H778 C730 0.929 . S
H779 C731 0.930 . S
H780 C738 0.929 . S
H781 C739 0.930 . S
H782 C740 0.930 . S
H783 C741 0.930 . S
H784 C743 0.929 . S
H785 C744 0.930 . S
H786 C745 0.930 . S
H787 C746 0.930 . S
H788 C750 0.929 . S
H789 C752 0.930 . S
H790 C758 0.929 . S
H791 C759 0.930 . S
Li792 N809 1.990 . S
Li792 O852 1.956 . S
Li792 O853 1.970 . S
Li792 O854 1.961 . S
Li793 N817 1.990 . S
Li793 O852 1.970 . S
Li793 O853 1.956 . S
Li793 O855 1.961 . S
Li794 N839 1.990 . S
Li794 O852 1.961 . S
Li794 O854 1.956 . S
Li794 O855 1.970 . S
Li795 N845 1.990 . S
Li795 O853 1.961 . S
Li795 O854 1.970 . S
Li795 O855 1.956 . S
C796 C798 1.348 . S
C796 C799 1.356 . S
C796 O852 1.325 . S
N797 C800 1.314 . S
N797 C801 1.279 . S
C798 C796 1.348 . S
C798 C800 1.353 . S
C798 H856 0.929 . S
C799 C796 1.356 . S
C799 C801 1.358 . S
C799 H857 0.930 . S
C800 N797 1.314 . S
C800 C798 1.353 . S
C800 H858 0.930 . S
C801 N797 1.279 . S
C801 C799 1.358 . S
C801 H859 0.930 . S
C802 C805 1.348 . S
C802 C806 1.356 . S
C802 O853 1.325 . S
C803 N804 1.279 . S
C803 C806 1.358 . S
C803 H860 0.930 . S
N804 C803 1.279 . S
N804 C807 1.314 . S
C805 C802 1.348 . S
C805 C807 1.353 . S
C805 H861 0.929 . S
C806 C802 1.356 . S
C806 C803 1.358 . S
C806 H862 0.930 . S
C807 N804 1.314 . S
C807 C805 1.353 . S
C807 H863 0.930 . S
C808 N809 1.314 . S
C808 C813 1.353 . S
C808 H814 0.930 . S
N809 Li792 1.990 . S
N809 C808 1.314 . S
N809 C811 1.279 . S
C810 C811 1.358 . S
C810 C812 1.356 . S
C810 H864 0.930 . S
C811 N809 1.279 . S
C811 C810 1.358 . S
C811 H815 0.930 . S
C812 C810 1.356 . S
C812 C813 1.348 . S
C813 C808 1.353 . S
C813 C812 1.348 . S
C813 H865 0.929 . S
H814 C808 0.930 . S
H815 C811 0.930 . S
C816 N817 1.314 . S
C816 C818 1.353 . S
C816 H822 0.930 . S
N817 Li793 1.990 . S
N817 C816 1.314 . S
N817 C820 1.279 . S
C818 C816 1.353 . S
C818 C821 1.348 . S
C818 H866 0.929 . S
C819 C820 1.358 . S
C819 C821 1.356 . S
C819 H867 0.930 . S
C820 N817 1.279 . S
C820 C819 1.358 . S
C820 H823 0.930 . S
C821 C818 1.348 . S
C821 C819 1.356 . S
H822 C816 0.930 . S
H823 C820 0.930 . S
C824 C826 1.348 . S
C824 C827 1.356 . S
C824 O854 1.325 . S
N825 C828 1.314 . S
N825 C829 1.279 . S
C826 C824 1.348 . S
C826 C828 1.353 . S
C826 H868 0.929 . S
C827 C824 1.356 . S
C827 C829 1.358 . S
C827 H869 0.930 . S
C828 N825 1.314 . S
C828 C826 1.353 . S
C828 H870 0.930 . S
C829 N825 1.279 . S
C829 C827 1.358 . S
C829 H871 0.930 . S
C830 C831 1.348 . S
C830 C832 1.356 . S
C830 O855 1.325 . S
C831 C830 1.348 . S
C831 C833 1.353 . S
C831 H872 0.929 . S
C832 C830 1.356 . S
C832 C834 1.358 . S
C832 H873 0.930 . S
C833 C831 1.353 . S
C833 N835 1.314 . S
C833 H874 0.930 . S
C834 C832 1.358 . S
C834 N835 1.279 . S
C834 H875 0.930 . S
N835 C833 1.314 . S
N835 C834 1.279 . S
C836 C838 1.353 . S
C836 N839 1.314 . S
C836 H842 0.930 . S
C837 N839 1.279 . S
C837 C840 1.358 . S
C837 H843 0.930 . S
C838 C836 1.353 . S
C838 C841 1.348 . S
C838 H876 0.929 . S
N839 Li794 1.990 . S
N839 C836 1.314 . S
N839 C837 1.279 . S
C840 C837 1.358 . S
C840 C841 1.356 . S
C840 H877 0.930 . S
C841 C838 1.348 . S
C841 C840 1.356 . S
H842 C836 0.930 . S
H843 C837 0.930 . S
C844 N845 1.314 . S
C844 C846 1.353 . S
C844 H850 0.930 . S
N845 Li795 1.990 . S
N845 C844 1.314 . S
N845 C848 1.279 . S
C846 C844 1.353 . S
C846 C849 1.348 . S
C846 H878 0.929 . S
C847 C848 1.358 . S
C847 C849 1.356 . S
C847 H879 0.930 . S
C848 N845 1.279 . S
C848 C847 1.358 . S
C848 H851 0.930 . S
C849 C846 1.348 . S
C849 C847 1.356 . S
H850 C844 0.930 . S
H851 C848 0.930 . S
O852 Li792 1.956 . S
O852 Li793 1.970 . S
O852 Li794 1.961 . S
O852 C796 1.325 . S
O853 Li792 1.970 . S
O853 Li793 1.956 . S
O853 Li795 1.961 . S
O853 C802 1.325 . S
O854 Li792 1.961 . S
O854 Li794 1.956 . S
O854 Li795 1.970 . S
O854 C824 1.325 . S
O855 Li793 1.961 . S
O855 Li794 1.970 . S
O855 Li795 1.956 . S
O855 C830 1.325 . S
H856 C798 0.929 . S
H857 C799 0.930 . S
H858 C800 0.930 . S
H859 C801 0.930 . S
H860 C803 0.930 . S
H861 C805 0.929 . S
H862 C806 0.930 . S
H863 C807 0.930 . S
H864 C810 0.930 . S
H865 C813 0.929 . S
H866 C818 0.929 . S
H867 C819 0.930 . S
H868 C826 0.929 . S
H869 C827 0.930 . S
H870 C828 0.930 . S
H871 C829 0.930 . S
H872 C831 0.929 . S
H873 C832 0.930 . S
H874 C833 0.930 . S
H875 C834 0.930 . S
H876 C838 0.929 . S
H877 C840 0.930 . S
H878 C846 0.929 . S
H879 C847 0.930 . S
Li880 N897 1.990 . S
Li880 O940 1.956 . S
Li880 O941 1.970 . S
Li880 O942 1.961 . S
Li881 N905 1.990 . S
Li881 O940 1.970 . S
Li881 O941 1.956 . S
Li881 O943 1.961 . S
Li882 N927 1.990 . S
Li882 O940 1.961 . S
Li882 O942 1.956 . S
Li882 O943 1.970 . S
Li883 N933 1.990 . S
Li883 O941 1.961 . S
Li883 O942 1.970 . S
Li883 O943 1.956 . S
C884 C886 1.348 . S
C884 C887 1.356 . S
C884 O940 1.325 . S
N885 C888 1.314 . S
N885 C889 1.279 . S
C886 C884 1.348 . S
C886 C888 1.353 . S
C886 H944 0.929 . S
C887 C884 1.356 . S
C887 C889 1.358 . S
C887 H945 0.930 . S
C888 N885 1.314 . S
C888 C886 1.353 . S
C888 H946 0.930 . S
C889 N885 1.279 . S
C889 C887 1.358 . S
C889 H947 0.930 . S
C890 C893 1.348 . S
C890 C894 1.356 . S
C890 O941 1.325 . S
C891 N892 1.279 . S
C891 C894 1.358 . S
C891 H948 0.930 . S
N892 C891 1.279 . S
N892 C895 1.314 . S
C893 C890 1.348 . S
C893 C895 1.353 . S
C893 H949 0.929 . S
C894 C890 1.356 . S
C894 C891 1.358 . S
C894 H950 0.930 . S
C895 N892 1.314 . S
C895 C893 1.353 . S
C895 H951 0.930 . S
C896 N897 1.314 . S
C896 C901 1.353 . S
C896 H902 0.930 . S
N897 Li880 1.990 . S
N897 C896 1.314 . S
N897 C899 1.279 . S
C898 C899 1.358 . S
C898 C900 1.356 . S
C898 H952 0.930 . S
C899 N897 1.279 . S
C899 C898 1.358 . S
C899 H903 0.930 . S
C900 C898 1.356 . S
C900 C901 1.348 . S
C901 C896 1.353 . S
C901 C900 1.348 . S
C901 H953 0.929 . S
H902 C896 0.930 . S
H903 C899 0.930 . S
C904 N905 1.314 . S
C904 C906 1.353 . S
C904 H910 0.930 . S
N905 Li881 1.990 . S
N905 C904 1.314 . S
N905 C908 1.279 . S
C906 C904 1.353 . S
C906 C909 1.348 . S
C906 H954 0.929 . S
C907 C908 1.358 . S
C907 C909 1.356 . S
C907 H955 0.930 . S
C908 N905 1.279 . S
C908 C907 1.358 . S
C908 H911 0.930 . S
C909 C906 1.348 . S
C909 C907 1.356 . S
H910 C904 0.930 . S
H911 C908 0.930 . S
C912 C914 1.348 . S
C912 C915 1.356 . S
C912 O942 1.325 . S
N913 C916 1.314 . S
N913 C917 1.279 . S
C914 C912 1.348 . S
C914 C916 1.353 . S
C914 H956 0.929 . S
C915 C912 1.356 . S
C915 C917 1.358 . S
C915 H957 0.930 . S
C916 N913 1.314 . S
C916 C914 1.353 . S
C916 H958 0.930 . S
C917 N913 1.279 . S
C917 C915 1.358 . S
C917 H959 0.930 . S
C918 C919 1.348 . S
C918 C920 1.356 . S
C918 O943 1.325 . S
C919 C918 1.348 . S
C919 C921 1.353 . S
C919 H960 0.929 . S
C920 C918 1.356 . S
C920 C922 1.358 . S
C920 H961 0.930 . S
C921 C919 1.353 . S
C921 N923 1.314 . S
C921 H962 0.930 . S
C922 C920 1.358 . S
C922 N923 1.279 . S
C922 H963 0.930 . S
N923 C921 1.314 . S
N923 C922 1.279 . S
C924 C926 1.353 . S
C924 N927 1.314 . S
C924 H930 0.930 . S
C925 N927 1.279 . S
C925 C928 1.358 . S
C925 H931 0.930 . S
C926 C924 1.353 . S
C926 C929 1.348 . S
C926 H964 0.929 . S
N927 Li882 1.990 . S
N927 C924 1.314 . S
N927 C925 1.279 . S
C928 C925 1.358 . S
C928 C929 1.356 . S
C928 H965 0.930 . S
C929 C926 1.348 . S
C929 C928 1.356 . S
H930 C924 0.930 . S
H931 C925 0.930 . S
C932 N933 1.314 . S
C932 C934 1.353 . S
C932 H938 0.930 . S
N933 Li883 1.990 . S
N933 C932 1.314 . S
N933 C936 1.279 . S
C934 C932 1.353 . S
C934 C937 1.348 . S
C934 H966 0.929 . S
C935 C936 1.358 . S
C935 C937 1.356 . S
C935 H967 0.930 . S
C936 N933 1.279 . S
C936 C935 1.358 . S
C936 H939 0.930 . S
C937 C934 1.348 . S
C937 C935 1.356 . S
H938 C932 0.930 . S
H939 C936 0.930 . S
O940 Li880 1.956 . S
O940 Li881 1.970 . S
O940 Li882 1.961 . S
O940 C884 1.325 . S
O941 Li880 1.970 . S
O941 Li881 1.956 . S
O941 Li883 1.961 . S
O941 C890 1.325 . S
O942 Li880 1.961 . S
O942 Li882 1.956 . S
O942 Li883 1.970 . S
O942 C912 1.325 . S
O943 Li881 1.961 . S
O943 Li882 1.970 . S
O943 Li883 1.956 . S
O943 C918 1.325 . S
H944 C886 0.929 . S
H945 C887 0.930 . S
H946 C888 0.930 . S
H947 C889 0.930 . S
H948 C891 0.930 . S
H949 C893 0.929 . S
H950 C894 0.930 . S
H951 C895 0.930 . S
H952 C898 0.930 . S
H953 C901 0.929 . S
H954 C906 0.929 . S
H955 C907 0.930 . S
H956 C914 0.929 . S
H957 C915 0.930 . S
H958 C916 0.930 . S
H959 C917 0.930 . S
H960 C919 0.929 . S
H961 C920 0.930 . S
H962 C921 0.930 . S
H963 C922 0.930 . S
H964 C926 0.929 . S
H965 C928 0.930 . S
H966 C934 0.929 . S
H967 C935 0.930 . S
Li968 N985 1.990 . S
Li968 O1028 1.956 . S
Li968 O1029 1.970 . S
Li968 O1030 1.961 . S
Li969 N993 1.990 . S
Li969 O1028 1.970 . S
Li969 O1029 1.956 . S
Li969 O1031 1.961 . S
Li970 N1015 1.990 . S
Li970 O1028 1.961 . S
Li970 O1030 1.956 . S
Li970 O1031 1.970 . S
Li971 N1021 1.990 . S
Li971 O1029 1.961 . S
Li971 O1030 1.970 . S
Li971 O1031 1.956 . S
C972 C974 1.348 . S
C972 C975 1.356 . S
C972 O1028 1.325 . S
N973 C976 1.314 . S
N973 C977 1.279 . S
C974 C972 1.348 . S
C974 C976 1.353 . S
C974 H1032 0.929 . S
C975 C972 1.356 . S
C975 C977 1.358 . S
C975 H1033 0.930 . S
C976 N973 1.314 . S
C976 C974 1.353 . S
C976 H1034 0.930 . S
C977 N973 1.279 . S
C977 C975 1.358 . S
C977 H1035 0.930 . S
C978 C981 1.348 . S
C978 C982 1.356 . S
C978 O1029 1.325 . S
C979 N980 1.279 . S
C979 C982 1.358 . S
C979 H1036 0.930 . S
N980 C979 1.279 . S
N980 C983 1.314 . S
C981 C978 1.348 . S
C981 C983 1.353 . S
C981 H1037 0.929 . S
C982 C978 1.356 . S
C982 C979 1.358 . S
C982 H1038 0.930 . S
C983 N980 1.314 . S
C983 C981 1.353 . S
C983 H1039 0.930 . S
C984 N985 1.314 . S
C984 C989 1.353 . S
C984 H990 0.930 . S
N985 Li968 1.990 . S
N985 C984 1.314 . S
N985 C987 1.279 . S
C986 C987 1.358 . S
C986 C988 1.356 . S
C986 H1040 0.930 . S
C987 N985 1.279 . S
C987 C986 1.358 . S
C987 H991 0.930 . S
C988 C986 1.356 . S
C988 C989 1.348 . S
C989 C984 1.353 . S
C989 C988 1.348 . S
C989 H1041 0.929 . S
H990 C984 0.930 . S
H991 C987 0.930 . S
C992 N993 1.314 . S
C992 C994 1.353 . S
C992 H998 0.930 . S
N993 Li969 1.990 . S
N993 C992 1.314 . S
N993 C996 1.279 . S
C994 C992 1.353 . S
C994 C997 1.348 . S
C994 H1042 0.929 . S
C995 C996 1.358 . S
C995 C997 1.356 . S
C995 H1043 0.930 . S
C996 N993 1.279 . S
C996 C995 1.358 . S
C996 H999 0.930 . S
C997 C994 1.348 . S
C997 C995 1.356 . S
H998 C992 0.930 . S
H999 C996 0.930 . S
C1000 C1002 1.348 . S
C1000 C1003 1.356 . S
C1000 O1030 1.325 . S
N1001 C1004 1.314 . S
N1001 C1005 1.279 . S
C1002 C1000 1.348 . S
C1002 C1004 1.353 . S
C1002 H1044 0.929 . S
C1003 C1000 1.356 . S
C1003 C1005 1.358 . S
C1003 H1045 0.930 . S
C1004 N1001 1.314 . S
C1004 C1002 1.353 . S
C1004 H1046 0.930 . S
C1005 N1001 1.279 . S
C1005 C1003 1.358 . S
C1005 H1047 0.930 . S
C1006 C1007 1.348 . S
C1006 C1008 1.356 . S
C1006 O1031 1.325 . S
C1007 C1006 1.348 . S
C1007 C1009 1.353 . S
C1007 H1048 0.929 . S
C1008 C1006 1.356 . S
C1008 C1010 1.358 . S
C1008 H1049 0.930 . S
C1009 C1007 1.353 . S
C1009 N1011 1.314 . S
C1009 H1050 0.930 . S
C1010 C1008 1.358 . S
C1010 N1011 1.279 . S
C1010 H1051 0.930 . S
N1011 C1009 1.314 . S
N1011 C1010 1.279 . S
C1012 C1014 1.353 . S
C1012 N1015 1.314 . S
C1012 H1018 0.930 . S
C1013 N1015 1.279 . S
C1013 C1016 1.358 . S
C1013 H1019 0.930 . S
C1014 C1012 1.353 . S
C1014 C1017 1.348 . S
C1014 H1052 0.929 . S
N1015 Li970 1.990 . S
N1015 C1012 1.314 . S
N1015 C1013 1.279 . S
C1016 C1013 1.358 . S
C1016 C1017 1.356 . S
C1016 H1053 0.930 . S
C1017 C1014 1.348 . S
C1017 C1016 1.356 . S
H1018 C1012 0.930 . S
H1019 C1013 0.930 . S
C1020 N1021 1.314 . S
C1020 C1022 1.353 . S
C1020 H1026 0.930 . S
N1021 Li971 1.990 . S
N1021 C1020 1.314 . S
N1021 C1024 1.279 . S
C1022 C1020 1.353 . S
C1022 C1025 1.348 . S
C1022 H1054 0.929 . S
C1023 C1024 1.358 . S
C1023 C1025 1.356 . S
C1023 H1055 0.930 . S
C1024 N1021 1.279 . S
C1024 C1023 1.358 . S
C1024 H1027 0.930 . S
C1025 C1022 1.348 . S
C1025 C1023 1.356 . S
H1026 C1020 0.930 . S
H1027 C1024 0.930 . S
O1028 Li968 1.956 . S
O1028 Li969 1.970 . S
O1028 Li970 1.961 . S
O1028 C972 1.325 . S
O1029 Li968 1.970 . S
O1029 Li969 1.956 . S
O1029 Li971 1.961 . S
O1029 C978 1.325 . S
O1030 Li968 1.961 . S
O1030 Li970 1.956 . S
O1030 Li971 1.970 . S
O1030 C1000 1.325 . S
O1031 Li969 1.961 . S
O1031 Li970 1.970 . S
O1031 Li971 1.956 . S
O1031 C1006 1.325 . S
H1032 C974 0.929 . S
H1033 C975 0.930 . S
H1034 C976 0.930 . S
H1035 C977 0.930 . S
H1036 C979 0.930 . S
H1037 C981 0.929 . S
H1038 C982 0.930 . S
H1039 C983 0.930 . S
H1040 C986 0.930 . S
H1041 C989 0.929 . S
H1042 C994 0.929 . S
H1043 C995 0.930 . S
H1044 C1002 0.929 . S
H1045 C1003 0.930 . S
H1046 C1004 0.930 . S
H1047 C1005 0.930 . S
H1048 C1007 0.929 . S
H1049 C1008 0.930 . S
H1050 C1009 0.930 . S
H1051 C1010 0.930 . S
H1052 C1014 0.929 . S
H1053 C1016 0.930 . S
H1054 C1022 0.929 . S
H1055 C1023 0.930 . S
Li1056 N1073 1.990 . S
Li1056 O1116 1.956 . S
Li1056 O1117 1.970 . S
Li1056 O1118 1.961 . S
Li1057 N1081 1.990 . S
Li1057 O1116 1.970 . S
Li1057 O1117 1.956 . S
Li1057 O1119 1.961 . S
Li1058 N1103 1.990 . S
Li1058 O1116 1.961 . S
Li1058 O1118 1.956 . S
Li1058 O1119 1.970 . S
Li1059 N1109 1.990 . S
Li1059 O1117 1.961 . S
Li1059 O1118 1.970 . S
Li1059 O1119 1.956 . S
C1060 C1062 1.348 . S
C1060 C1063 1.356 . S
C1060 O1116 1.325 . S
N1061 C1064 1.314 . S
N1061 C1065 1.279 . S
C1062 C1060 1.348 . S
C1062 C1064 1.353 . S
C1062 H1120 0.929 . S
C1063 C1060 1.356 . S
C1063 C1065 1.358 . S
C1063 H1121 0.930 . S
C1064 N1061 1.314 . S
C1064 C1062 1.353 . S
C1064 H1122 0.930 . S
C1065 N1061 1.279 . S
C1065 C1063 1.358 . S
C1065 H1123 0.930 . S
C1066 C1069 1.348 . S
C1066 C1070 1.356 . S
C1066 O1117 1.325 . S
C1067 N1068 1.279 . S
C1067 C1070 1.358 . S
C1067 H1124 0.930 . S
N1068 C1067 1.279 . S
N1068 C1071 1.314 . S
C1069 C1066 1.348 . S
C1069 C1071 1.353 . S
C1069 H1125 0.929 . S
C1070 C1066 1.356 . S
C1070 C1067 1.358 . S
C1070 H1126 0.930 . S
C1071 N1068 1.314 . S
C1071 C1069 1.353 . S
C1071 H1127 0.930 . S
C1072 N1073 1.314 . S
C1072 C1077 1.353 . S
C1072 H1078 0.930 . S
N1073 Li1056 1.990 . S
N1073 C1072 1.314 . S
N1073 C1075 1.279 . S
C1074 C1075 1.358 . S
C1074 C1076 1.356 . S
C1074 H1128 0.930 . S
C1075 N1073 1.279 . S
C1075 C1074 1.358 . S
C1075 H1079 0.930 . S
C1076 C1074 1.356 . S
C1076 C1077 1.348 . S
C1077 C1072 1.353 . S
C1077 C1076 1.348 . S
C1077 H1129 0.929 . S
H1078 C1072 0.930 . S
H1079 C1075 0.930 . S
C1080 N1081 1.314 . S
C1080 C1082 1.353 . S
C1080 H1086 0.930 . S
N1081 Li1057 1.990 . S
N1081 C1080 1.314 . S
N1081 C1084 1.279 . S
C1082 C1080 1.353 . S
C1082 C1085 1.348 . S
C1082 H1130 0.929 . S
C1083 C1084 1.358 . S
C1083 C1085 1.356 . S
C1083 H1131 0.930 . S
C1084 N1081 1.279 . S
C1084 C1083 1.358 . S
C1084 H1087 0.930 . S
C1085 C1082 1.348 . S
C1085 C1083 1.356 . S
H1086 C1080 0.930 . S
H1087 C1084 0.930 . S
C1088 C1090 1.348 . S
C1088 C1091 1.356 . S
C1088 O1118 1.325 . S
N1089 C1092 1.314 . S
N1089 C1093 1.279 . S
C1090 C1088 1.348 . S
C1090 C1092 1.353 . S
C1090 H1132 0.929 . S
C1091 C1088 1.356 . S
C1091 C1093 1.358 . S
C1091 H1133 0.930 . S
C1092 N1089 1.314 . S
C1092 C1090 1.353 . S
C1092 H1134 0.930 . S
C1093 N1089 1.279 . S
C1093 C1091 1.358 . S
C1093 H1135 0.930 . S
C1094 C1095 1.348 . S
C1094 C1096 1.356 . S
C1094 O1119 1.325 . S
C1095 C1094 1.348 . S
C1095 C1097 1.353 . S
C1095 H1136 0.929 . S
C1096 C1094 1.356 . S
C1096 C1098 1.358 . S
C1096 H1137 0.930 . S
C1097 C1095 1.353 . S
C1097 N1099 1.314 . S
C1097 H1138 0.930 . S
C1098 C1096 1.358 . S
C1098 N1099 1.279 . S
C1098 H1139 0.930 . S
N1099 C1097 1.314 . S
N1099 C1098 1.279 . S
C1100 C1102 1.353 . S
C1100 N1103 1.314 . S
C1100 H1106 0.930 . S
C1101 N1103 1.279 . S
C1101 C1104 1.358 . S
C1101 H1107 0.930 . S
C1102 C1100 1.353 . S
C1102 C1105 1.348 . S
C1102 H1140 0.929 . S
N1103 Li1058 1.990 . S
N1103 C1100 1.314 . S
N1103 C1101 1.279 . S
C1104 C1101 1.358 . S
C1104 C1105 1.356 . S
C1104 H1141 0.930 . S
C1105 C1102 1.348 . S
C1105 C1104 1.356 . S
H1106 C1100 0.930 . S
H1107 C1101 0.930 . S
C1108 N1109 1.314 . S
C1108 C1110 1.353 . S
C1108 H1114 0.930 . S
N1109 Li1059 1.990 . S
N1109 C1108 1.314 . S
N1109 C1112 1.279 . S
C1110 C1108 1.353 . S
C1110 C1113 1.348 . S
C1110 H1142 0.929 . S
C1111 C1112 1.358 . S
C1111 C1113 1.356 . S
C1111 H1143 0.930 . S
C1112 N1109 1.279 . S
C1112 C1111 1.358 . S
C1112 H1115 0.930 . S
C1113 C1110 1.348 . S
C1113 C1111 1.356 . S
H1114 C1108 0.930 . S
H1115 C1112 0.930 . S
O1116 Li1056 1.956 . S
O1116 Li1057 1.970 . S
O1116 Li1058 1.961 . S
O1116 C1060 1.325 . S
O1117 Li1056 1.970 . S
O1117 Li1057 1.956 . S
O1117 Li1059 1.961 . S
O1117 C1066 1.325 . S
O1118 Li1056 1.961 . S
O1118 Li1058 1.956 . S
O1118 Li1059 1.970 . S
O1118 C1088 1.325 . S
O1119 Li1057 1.961 . S
O1119 Li1058 1.970 . S
O1119 Li1059 1.956 . S
O1119 C1094 1.325 . S
H1120 C1062 0.929 . S
H1121 C1063 0.930 . S
H1122 C1064 0.930 . S
H1123 C1065 0.930 . S
H1124 C1067 0.930 . S
H1125 C1069 0.929 . S
H1126 C1070 0.930 . S
H1127 C1071 0.930 . S
H1128 C1074 0.930 . S
H1129 C1077 0.929 . S
H1130 C1082 0.929 . S
H1131 C1083 0.930 . S
H1132 C1090 0.929 . S
H1133 C1091 0.930 . S
H1134 C1092 0.930 . S
H1135 C1093 0.930 . S
H1136 C1095 0.929 . S
H1137 C1096 0.930 . S
H1138 C1097 0.930 . S
H1139 C1098 0.930 . S
H1140 C1102 0.929 . S
H1141 C1104 0.930 . S
H1142 C1110 0.929 . S
H1143 C1111 0.930 . S
Li1144 N1161 1.990 . S
Li1144 O1204 1.956 . S
Li1144 O1205 1.970 . S
Li1144 O1206 1.961 . S
Li1145 N1169 1.990 . S
Li1145 O1204 1.970 . S
Li1145 O1205 1.956 . S
Li1145 O1207 1.961 . S
Li1146 N1191 1.990 . S
Li1146 O1204 1.961 . S
Li1146 O1206 1.956 . S
Li1146 O1207 1.970 . S
Li1147 N1197 1.990 . S
Li1147 O1205 1.961 . S
Li1147 O1206 1.970 . S
Li1147 O1207 1.956 . S
C1148 C1150 1.348 . S
C1148 C1151 1.356 . S
C1148 O1204 1.325 . S
N1149 C1152 1.314 . S
N1149 C1153 1.279 . S
C1150 C1148 1.348 . S
C1150 C1152 1.353 . S
C1150 H1208 0.929 . S
C1151 C1148 1.356 . S
C1151 C1153 1.358 . S
C1151 H1209 0.930 . S
C1152 N1149 1.314 . S
C1152 C1150 1.353 . S
C1152 H1210 0.930 . S
C1153 N1149 1.279 . S
C1153 C1151 1.358 . S
C1153 H1211 0.930 . S
C1154 C1157 1.348 . S
C1154 C1158 1.356 . S
C1154 O1205 1.325 . S
C1155 N1156 1.279 . S
C1155 C1158 1.358 . S
C1155 H1212 0.930 . S
N1156 C1155 1.279 . S
N1156 C1159 1.314 . S
C1157 C1154 1.348 . S
C1157 C1159 1.353 . S
C1157 H1213 0.929 . S
C1158 C1154 1.356 . S
C1158 C1155 1.358 . S
C1158 H1214 0.930 . S
C1159 N1156 1.314 . S
C1159 C1157 1.353 . S
C1159 H1215 0.930 . S
C1160 N1161 1.314 . S
C1160 C1165 1.353 . S
C1160 H1166 0.930 . S
N1161 Li1144 1.990 . S
N1161 C1160 1.314 . S
N1161 C1163 1.279 . S
C1162 C1163 1.358 . S
C1162 C1164 1.356 . S
C1162 H1216 0.930 . S
C1163 N1161 1.279 . S
C1163 C1162 1.358 . S
C1163 H1167 0.930 . S
C1164 C1162 1.356 . S
C1164 C1165 1.348 . S
C1165 C1160 1.353 . S
C1165 C1164 1.348 . S
C1165 H1217 0.929 . S
H1166 C1160 0.930 . S
H1167 C1163 0.930 . S
C1168 N1169 1.314 . S
C1168 C1170 1.353 . S
C1168 H1174 0.930 . S
N1169 Li1145 1.990 . S
N1169 C1168 1.314 . S
N1169 C1172 1.279 . S
C1170 C1168 1.353 . S
C1170 C1173 1.348 . S
C1170 H1218 0.929 . S
C1171 C1172 1.358 . S
C1171 C1173 1.356 . S
C1171 H1219 0.930 . S
C1172 N1169 1.279 . S
C1172 C1171 1.358 . S
C1172 H1175 0.930 . S
C1173 C1170 1.348 . S
C1173 C1171 1.356 . S
H1174 C1168 0.930 . S
H1175 C1172 0.930 . S
C1176 C1178 1.348 . S
C1176 C1179 1.356 . S
C1176 O1206 1.325 . S
N1177 C1180 1.314 . S
N1177 C1181 1.279 . S
C1178 C1176 1.348 . S
C1178 C1180 1.353 . S
C1178 H1220 0.929 . S
C1179 C1176 1.356 . S
C1179 C1181 1.358 . S
C1179 H1221 0.930 . S
C1180 N1177 1.314 . S
C1180 C1178 1.353 . S
C1180 H1222 0.930 . S
C1181 N1177 1.279 . S
C1181 C1179 1.358 . S
C1181 H1223 0.930 . S
C1182 C1183 1.348 . S
C1182 C1184 1.356 . S
C1182 O1207 1.325 . S
C1183 C1182 1.348 . S
C1183 C1185 1.353 . S
C1183 H1224 0.929 . S
C1184 C1182 1.356 . S
C1184 C1186 1.358 . S
C1184 H1225 0.930 . S
C1185 C1183 1.353 . S
C1185 N1187 1.314 . S
C1185 H1226 0.930 . S
C1186 C1184 1.358 . S
C1186 N1187 1.279 . S
C1186 H1227 0.930 . S
N1187 C1185 1.314 . S
N1187 C1186 1.279 . S
C1188 C1190 1.353 . S
C1188 N1191 1.314 . S
C1188 H1194 0.930 . S
C1189 N1191 1.279 . S
C1189 C1192 1.358 . S
C1189 H1195 0.930 . S
C1190 C1188 1.353 . S
C1190 C1193 1.348 . S
C1190 H1228 0.929 . S
N1191 Li1146 1.990 . S
N1191 C1188 1.314 . S
N1191 C1189 1.279 . S
C1192 C1189 1.358 . S
C1192 C1193 1.356 . S
C1192 H1229 0.930 . S
C1193 C1190 1.348 . S
C1193 C1192 1.356 . S
H1194 C1188 0.930 . S
H1195 C1189 0.930 . S
C1196 N1197 1.314 . S
C1196 C1198 1.353 . S
C1196 H1202 0.930 . S
N1197 Li1147 1.990 . S
N1197 C1196 1.314 . S
N1197 C1200 1.279 . S
C1198 C1196 1.353 . S
C1198 C1201 1.348 . S
C1198 H1230 0.929 . S
C1199 C1200 1.358 . S
C1199 C1201 1.356 . S
C1199 H1231 0.930 . S
C1200 N1197 1.279 . S
C1200 C1199 1.358 . S
C1200 H1203 0.930 . S
C1201 C1198 1.348 . S
C1201 C1199 1.356 . S
H1202 C1196 0.930 . S
H1203 C1200 0.930 . S
O1204 Li1144 1.956 . S
O1204 Li1145 1.970 . S
O1204 Li1146 1.961 . S
O1204 C1148 1.325 . S
O1205 Li1144 1.970 . S
O1205 Li1145 1.956 . S
O1205 Li1147 1.961 . S
O1205 C1154 1.325 . S
O1206 Li1144 1.961 . S
O1206 Li1146 1.956 . S
O1206 Li1147 1.970 . S
O1206 C1176 1.325 . S
O1207 Li1145 1.961 . S
O1207 Li1146 1.970 . S
O1207 Li1147 1.956 . S
O1207 C1182 1.325 . S
H1208 C1150 0.929 . S
H1209 C1151 0.930 . S
H1210 C1152 0.930 . S
H1211 C1153 0.930 . S
H1212 C1155 0.930 . S
H1213 C1157 0.929 . S
H1214 C1158 0.930 . S
H1215 C1159 0.930 . S
H1216 C1162 0.930 . S
H1217 C1165 0.929 . S
H1218 C1170 0.929 . S
H1219 C1171 0.930 . S
H1220 C1178 0.929 . S
H1221 C1179 0.930 . S
H1222 C1180 0.930 . S
H1223 C1181 0.930 . S
H1224 C1183 0.929 . S
H1225 C1184 0.930 . S
H1226 C1185 0.930 . S
H1227 C1186 0.930 . S
H1228 C1190 0.929 . S
H1229 C1192 0.930 . S
H1230 C1198 0.929 . S
H1231 C1199 0.930 . S
Li1232 N1249 1.990 . S
Li1232 O1292 1.956 . S
Li1232 O1293 1.970 . S
Li1232 O1294 1.961 . S
Li1233 N1257 1.990 . S
Li1233 O1292 1.970 . S
Li1233 O1293 1.956 . S
Li1233 O1295 1.961 . S
Li1234 N1279 1.990 . S
Li1234 O1292 1.961 . S
Li1234 O1294 1.956 . S
Li1234 O1295 1.970 . S
Li1235 N1285 1.990 . S
Li1235 O1293 1.961 . S
Li1235 O1294 1.970 . S
Li1235 O1295 1.956 . S
C1236 C1238 1.348 . S
C1236 C1239 1.356 . S
C1236 O1292 1.325 . S
N1237 C1240 1.314 . S
N1237 C1241 1.279 . S
C1238 C1236 1.348 . S
C1238 C1240 1.353 . S
C1238 H1296 0.929 . S
C1239 C1236 1.356 . S
C1239 C1241 1.358 . S
C1239 H1297 0.930 . S
C1240 N1237 1.314 . S
C1240 C1238 1.353 . S
C1240 H1298 0.930 . S
C1241 N1237 1.279 . S
C1241 C1239 1.358 . S
C1241 H1299 0.930 . S
C1242 C1245 1.348 . S
C1242 C1246 1.356 . S
C1242 O1293 1.325 . S
C1243 N1244 1.279 . S
C1243 C1246 1.358 . S
C1243 H1300 0.930 . S
N1244 C1243 1.279 . S
N1244 C1247 1.314 . S
C1245 C1242 1.348 . S
C1245 C1247 1.353 . S
C1245 H1301 0.929 . S
C1246 C1242 1.356 . S
C1246 C1243 1.358 . S
C1246 H1302 0.930 . S
C1247 N1244 1.314 . S
C1247 C1245 1.353 . S
C1247 H1303 0.930 . S
C1248 N1249 1.314 . S
C1248 C1253 1.353 . S
C1248 H1254 0.930 . S
N1249 Li1232 1.990 . S
N1249 C1248 1.314 . S
N1249 C1251 1.279 . S
C1250 C1251 1.358 . S
C1250 C1252 1.356 . S
C1250 H1304 0.930 . S
C1251 N1249 1.279 . S
C1251 C1250 1.358 . S
C1251 H1255 0.930 . S
C1252 C1250 1.356 . S
C1252 C1253 1.348 . S
C1253 C1248 1.353 . S
C1253 C1252 1.348 . S
C1253 H1305 0.929 . S
H1254 C1248 0.930 . S
H1255 C1251 0.930 . S
C1256 N1257 1.314 . S
C1256 C1258 1.353 . S
C1256 H1262 0.930 . S
N1257 Li1233 1.990 . S
N1257 C1256 1.314 . S
N1257 C1260 1.279 . S
C1258 C1256 1.353 . S
C1258 C1261 1.348 . S
C1258 H1306 0.929 . S
C1259 C1260 1.358 . S
C1259 C1261 1.356 . S
C1259 H1307 0.930 . S
C1260 N1257 1.279 . S
C1260 C1259 1.358 . S
C1260 H1263 0.930 . S
C1261 C1258 1.348 . S
C1261 C1259 1.356 . S
H1262 C1256 0.930 . S
H1263 C1260 0.930 . S
C1264 C1266 1.348 . S
C1264 C1267 1.356 . S
C1264 O1294 1.325 . S
N1265 C1268 1.314 . S
N1265 C1269 1.279 . S
C1266 C1264 1.348 . S
C1266 C1268 1.353 . S
C1266 H1308 0.929 . S
C1267 C1264 1.356 . S
C1267 C1269 1.358 . S
C1267 H1309 0.930 . S
C1268 N1265 1.314 . S
C1268 C1266 1.353 . S
C1268 H1310 0.930 . S
C1269 N1265 1.279 . S
C1269 C1267 1.358 . S
C1269 H1311 0.930 . S
C1270 C1271 1.348 . S
C1270 C1272 1.356 . S
C1270 O1295 1.325 . S
C1271 C1270 1.348 . S
C1271 C1273 1.353 . S
C1271 H1312 0.929 . S
C1272 C1270 1.356 . S
C1272 C1274 1.358 . S
C1272 H1313 0.930 . S
C1273 C1271 1.353 . S
C1273 N1275 1.314 . S
C1273 H1314 0.930 . S
C1274 C1272 1.358 . S
C1274 N1275 1.279 . S
C1274 H1315 0.930 . S
N1275 C1273 1.314 . S
N1275 C1274 1.279 . S
C1276 C1278 1.353 . S
C1276 N1279 1.314 . S
C1276 H1282 0.930 . S
C1277 N1279 1.279 . S
C1277 C1280 1.358 . S
C1277 H1283 0.930 . S
C1278 C1276 1.353 . S
C1278 C1281 1.348 . S
C1278 H1316 0.929 . S
N1279 Li1234 1.990 . S
N1279 C1276 1.314 . S
N1279 C1277 1.279 . S
C1280 C1277 1.358 . S
C1280 C1281 1.356 . S
C1280 H1317 0.930 . S
C1281 C1278 1.348 . S
C1281 C1280 1.356 . S
H1282 C1276 0.930 . S
H1283 C1277 0.930 . S
C1284 N1285 1.314 . S
C1284 C1286 1.353 . S
C1284 H1290 0.930 . S
N1285 Li1235 1.990 . S
N1285 C1284 1.314 . S
N1285 C1288 1.279 . S
C1286 C1284 1.353 . S
C1286 C1289 1.348 . S
C1286 H1318 0.929 . S
C1287 C1288 1.358 . S
C1287 C1289 1.356 . S
C1287 H1319 0.930 . S
C1288 N1285 1.279 . S
C1288 C1287 1.358 . S
C1288 H1291 0.930 . S
C1289 C1286 1.348 . S
C1289 C1287 1.356 . S
H1290 C1284 0.930 . S
H1291 C1288 0.930 . S
O1292 Li1232 1.956 . S
O1292 Li1233 1.970 . S
O1292 Li1234 1.961 . S
O1292 C1236 1.325 . S
O1293 Li1232 1.970 . S
O1293 Li1233 1.956 . S
O1293 Li1235 1.961 . S
O1293 C1242 1.325 . S
O1294 Li1232 1.961 . S
O1294 Li1234 1.956 . S
O1294 Li1235 1.970 . S
O1294 C1264 1.325 . S
O1295 Li1233 1.961 . S
O1295 Li1234 1.970 . S
O1295 Li1235 1.956 . S
O1295 C1270 1.325 . S
H1296 C1238 0.929 . S
H1297 C1239 0.930 . S
H1298 C1240 0.930 . S
H1299 C1241 0.930 . S
H1300 C1243 0.930 . S
H1301 C1245 0.929 . S
H1302 C1246 0.930 . S
H1303 C1247 0.930 . S
H1304 C1250 0.930 . S
H1305 C1253 0.929 . S
H1306 C1258 0.929 . S
H1307 C1259 0.930 . S
H1308 C1266 0.929 . S
H1309 C1267 0.930 . S
H1310 C1268 0.930 . S
H1311 C1269 0.930 . S
H1312 C1271 0.929 . S
H1313 C1272 0.930 . S
H1314 C1273 0.930 . S
H1315 C1274 0.930 . S
H1316 C1278 0.929 . S
H1317 C1280 0.930 . S
H1318 C1286 0.929 . S
H1319 C1287 0.930 . S
Li1320 N1337 1.990 . S
Li1320 O1380 1.956 . S
Li1320 O1381 1.970 . S
Li1320 O1382 1.961 . S
Li1321 N1345 1.990 . S
Li1321 O1380 1.970 . S
Li1321 O1381 1.956 . S
Li1321 O1383 1.961 . S
Li1322 N1367 1.990 . S
Li1322 O1380 1.961 . S
Li1322 O1382 1.956 . S
Li1322 O1383 1.970 . S
Li1323 N1373 1.990 . S
Li1323 O1381 1.961 . S
Li1323 O1382 1.970 . S
Li1323 O1383 1.956 . S
C1324 C1326 1.348 . S
C1324 C1327 1.356 . S
C1324 O1380 1.325 . S
N1325 C1328 1.314 . S
N1325 C1329 1.279 . S
C1326 C1324 1.348 . S
C1326 C1328 1.353 . S
C1326 H1384 0.929 . S
C1327 C1324 1.356 . S
C1327 C1329 1.358 . S
C1327 H1385 0.930 . S
C1328 N1325 1.314 . S
C1328 C1326 1.353 . S
C1328 H1386 0.930 . S
C1329 N1325 1.279 . S
C1329 C1327 1.358 . S
C1329 H1387 0.930 . S
C1330 C1333 1.348 . S
C1330 C1334 1.356 . S
C1330 O1381 1.325 . S
C1331 N1332 1.279 . S
C1331 C1334 1.358 . S
C1331 H1388 0.930 . S
N1332 C1331 1.279 . S
N1332 C1335 1.314 . S
C1333 C1330 1.348 . S
C1333 C1335 1.353 . S
C1333 H1389 0.929 . S
C1334 C1330 1.356 . S
C1334 C1331 1.358 . S
C1334 H1390 0.930 . S
C1335 N1332 1.314 . S
C1335 C1333 1.353 . S
C1335 H1391 0.930 . S
C1336 N1337 1.314 . S
C1336 C1341 1.353 . S
C1336 H1342 0.930 . S
N1337 Li1320 1.990 . S
N1337 C1336 1.314 . S
N1337 C1339 1.279 . S
C1338 C1339 1.358 . S
C1338 C1340 1.356 . S
C1338 H1392 0.930 . S
C1339 N1337 1.279 . S
C1339 C1338 1.358 . S
C1339 H1343 0.930 . S
C1340 C1338 1.356 . S
C1340 C1341 1.348 . S
C1341 C1336 1.353 . S
C1341 C1340 1.348 . S
C1341 H1393 0.929 . S
H1342 C1336 0.930 . S
H1343 C1339 0.930 . S
C1344 N1345 1.314 . S
C1344 C1346 1.353 . S
C1344 H1350 0.930 . S
N1345 Li1321 1.990 . S
N1345 C1344 1.314 . S
N1345 C1348 1.279 . S
C1346 C1344 1.353 . S
C1346 C1349 1.348 . S
C1346 H1394 0.929 . S
C1347 C1348 1.358 . S
C1347 C1349 1.356 . S
C1347 H1395 0.930 . S
C1348 N1345 1.279 . S
C1348 C1347 1.358 . S
C1348 H1351 0.930 . S
C1349 C1346 1.348 . S
C1349 C1347 1.356 . S
H1350 C1344 0.930 . S
H1351 C1348 0.930 . S
C1352 C1354 1.348 . S
C1352 C1355 1.356 . S
C1352 O1382 1.325 . S
N1353 C1356 1.314 . S
N1353 C1357 1.279 . S
C1354 C1352 1.348 . S
C1354 C1356 1.353 . S
C1354 H1396 0.929 . S
C1355 C1352 1.356 . S
C1355 C1357 1.358 . S
C1355 H1397 0.930 . S
C1356 N1353 1.314 . S
C1356 C1354 1.353 . S
C1356 H1398 0.930 . S
C1357 N1353 1.279 . S
C1357 C1355 1.358 . S
C1357 H1399 0.930 . S
C1358 C1359 1.348 . S
C1358 C1360 1.356 . S
C1358 O1383 1.325 . S
C1359 C1358 1.348 . S
C1359 C1361 1.353 . S
C1359 H1400 0.929 . S
C1360 C1358 1.356 . S
C1360 C1362 1.358 . S
C1360 H1401 0.930 . S
C1361 C1359 1.353 . S
C1361 N1363 1.314 . S
C1361 H1402 0.930 . S
C1362 C1360 1.358 . S
C1362 N1363 1.279 . S
C1362 H1403 0.930 . S
N1363 C1361 1.314 . S
N1363 C1362 1.279 . S
C1364 C1366 1.353 . S
C1364 N1367 1.314 . S
C1364 H1370 0.930 . S
C1365 N1367 1.279 . S
C1365 C1368 1.358 . S
C1365 H1371 0.930 . S
C1366 C1364 1.353 . S
C1366 C1369 1.348 . S
C1366 H1404 0.929 . S
N1367 Li1322 1.990 . S
N1367 C1364 1.314 . S
N1367 C1365 1.279 . S
C1368 C1365 1.358 . S
C1368 C1369 1.356 . S
C1368 H1405 0.930 . S
C1369 C1366 1.348 . S
C1369 C1368 1.356 . S
H1370 C1364 0.930 . S
H1371 C1365 0.930 . S
C1372 N1373 1.314 . S
C1372 C1374 1.353 . S
C1372 H1378 0.930 . S
N1373 Li1323 1.990 . S
N1373 C1372 1.314 . S
N1373 C1376 1.279 . S
C1374 C1372 1.353 . S
C1374 C1377 1.348 . S
C1374 H1406 0.929 . S
C1375 C1376 1.358 . S
C1375 C1377 1.356 . S
C1375 H1407 0.930 . S
C1376 N1373 1.279 . S
C1376 C1375 1.358 . S
C1376 H1379 0.930 . S
C1377 C1374 1.348 . S
C1377 C1375 1.356 . S
H1378 C1372 0.930 . S
H1379 C1376 0.930 . S
O1380 Li1320 1.956 . S
O1380 Li1321 1.970 . S
O1380 Li1322 1.961 . S
O1380 C1324 1.325 . S
O1381 Li1320 1.970 . S
O1381 Li1321 1.956 . S
O1381 Li1323 1.961 . S
O1381 C1330 1.325 . S
O1382 Li1320 1.961 . S
O1382 Li1322 1.956 . S
O1382 Li1323 1.970 . S
O1382 C1352 1.325 . S
O1383 Li1321 1.961 . S
O1383 Li1322 1.970 . S
O1383 Li1323 1.956 . S
O1383 C1358 1.325 . S
H1384 C1326 0.929 . S
H1385 C1327 0.930 . S
H1386 C1328 0.930 . S
H1387 C1329 0.930 . S
H1388 C1331 0.930 . S
H1389 C1333 0.929 . S
H1390 C1334 0.930 . S
H1391 C1335 0.930 . S
H1392 C1338 0.930 . S
H1393 C1341 0.929 . S
H1394 C1346 0.929 . S
H1395 C1347 0.930 . S
H1396 C1354 0.929 . S
H1397 C1355 0.930 . S
H1398 C1356 0.930 . S
H1399 C1357 0.930 . S
H1400 C1359 0.929 . S
H1401 C1360 0.930 . S
H1402 C1361 0.930 . S
H1403 C1362 0.930 . S
H1404 C1366 0.929 . S
H1405 C1368 0.930 . S
H1406 C1374 0.929 . S
H1407 C1375 0.930 . S
Li1408 N1425 1.990 . S
Li1408 O1468 1.956 . S
Li1408 O1469 1.970 . S
Li1408 O1470 1.961 . S
Li1409 N1433 1.990 . S
Li1409 O1468 1.970 . S
Li1409 O1469 1.956 . S
Li1409 O1471 1.961 . S
Li1410 N1455 1.990 . S
Li1410 O1468 1.961 . S
Li1410 O1470 1.956 . S
Li1410 O1471 1.970 . S
Li1411 N1461 1.990 . S
Li1411 O1469 1.961 . S
Li1411 O1470 1.970 . S
Li1411 O1471 1.956 . S
C1412 C1414 1.348 . S
C1412 C1415 1.356 . S
C1412 O1468 1.325 . S
N1413 C1416 1.314 . S
N1413 C1417 1.279 . S
C1414 C1412 1.348 . S
C1414 C1416 1.353 . S
C1414 H1472 0.929 . S
C1415 C1412 1.356 . S
C1415 C1417 1.358 . S
C1415 H1473 0.930 . S
C1416 N1413 1.314 . S
C1416 C1414 1.353 . S
C1416 H1474 0.930 . S
C1417 N1413 1.279 . S
C1417 C1415 1.358 . S
C1417 H1475 0.930 . S
C1418 C1421 1.348 . S
C1418 C1422 1.356 . S
C1418 O1469 1.325 . S
C1419 N1420 1.279 . S
C1419 C1422 1.358 . S
C1419 H1476 0.930 . S
N1420 C1419 1.279 . S
N1420 C1423 1.314 . S
C1421 C1418 1.348 . S
C1421 C1423 1.353 . S
C1421 H1477 0.929 . S
C1422 C1418 1.356 . S
C1422 C1419 1.358 . S
C1422 H1478 0.930 . S
C1423 N1420 1.314 . S
C1423 C1421 1.353 . S
C1423 H1479 0.930 . S
C1424 N1425 1.314 . S
C1424 C1429 1.353 . S
C1424 H1430 0.930 . S
N1425 Li1408 1.990 . S
N1425 C1424 1.314 . S
N1425 C1427 1.279 . S
C1426 C1427 1.358 . S
C1426 C1428 1.356 . S
C1426 H1480 0.930 . S
C1427 N1425 1.279 . S
C1427 C1426 1.358 . S
C1427 H1431 0.930 . S
C1428 C1426 1.356 . S
C1428 C1429 1.348 . S
C1429 C1424 1.353 . S
C1429 C1428 1.348 . S
C1429 H1481 0.929 . S
H1430 C1424 0.930 . S
H1431 C1427 0.930 . S
C1432 N1433 1.314 . S
C1432 C1434 1.353 . S
C1432 H1438 0.930 . S
N1433 Li1409 1.990 . S
N1433 C1432 1.314 . S
N1433 C1436 1.279 . S
C1434 C1432 1.353 . S
C1434 C1437 1.348 . S
C1434 H1482 0.929 . S
C1435 C1436 1.358 . S
C1435 C1437 1.356 . S
C1435 H1483 0.930 . S
C1436 N1433 1.279 . S
C1436 C1435 1.358 . S
C1436 H1439 0.930 . S
C1437 C1434 1.348 . S
C1437 C1435 1.356 . S
H1438 C1432 0.930 . S
H1439 C1436 0.930 . S
C1440 C1442 1.348 . S
C1440 C1443 1.356 . S
C1440 O1470 1.325 . S
N1441 C1444 1.314 . S
N1441 C1445 1.279 . S
C1442 C1440 1.348 . S
C1442 C1444 1.353 . S
C1442 H1484 0.929 . S
C1443 C1440 1.356 . S
C1443 C1445 1.358 . S
C1443 H1485 0.930 . S
C1444 N1441 1.314 . S
C1444 C1442 1.353 . S
C1444 H1486 0.930 . S
C1445 N1441 1.279 . S
C1445 C1443 1.358 . S
C1445 H1487 0.930 . S
C1446 C1447 1.348 . S
C1446 C1448 1.356 . S
C1446 O1471 1.325 . S
C1447 C1446 1.348 . S
C1447 C1449 1.353 . S
C1447 H1488 0.929 . S
C1448 C1446 1.356 . S
C1448 C1450 1.358 . S
C1448 H1489 0.930 . S
C1449 C1447 1.353 . S
C1449 N1451 1.314 . S
C1449 H1490 0.930 . S
C1450 C1448 1.358 . S
C1450 N1451 1.279 . S
C1450 H1491 0.930 . S
N1451 C1449 1.314 . S
N1451 C1450 1.279 . S
C1452 C1454 1.353 . S
C1452 N1455 1.314 . S
C1452 H1458 0.930 . S
C1453 N1455 1.279 . S
C1453 C1456 1.358 . S
C1453 H1459 0.930 . S
C1454 C1452 1.353 . S
C1454 C1457 1.348 . S
C1454 H1492 0.929 . S
N1455 Li1410 1.990 . S
N1455 C1452 1.314 . S
N1455 C1453 1.279 . S
C1456 C1453 1.358 . S
C1456 C1457 1.356 . S
C1456 H1493 0.930 . S
C1457 C1454 1.348 . S
C1457 C1456 1.356 . S
H1458 C1452 0.930 . S
H1459 C1453 0.930 . S
C1460 N1461 1.314 . S
C1460 C1462 1.353 . S
C1460 H1466 0.930 . S
N1461 Li1411 1.990 . S
N1461 C1460 1.314 . S
N1461 C1464 1.279 . S
C1462 C1460 1.353 . S
C1462 C1465 1.348 . S
C1462 H1494 0.929 . S
C1463 C1464 1.358 . S
C1463 C1465 1.356 . S
C1463 H1495 0.930 . S
C1464 N1461 1.279 . S
C1464 C1463 1.358 . S
C1464 H1467 0.930 . S
C1465 C1462 1.348 . S
C1465 C1463 1.356 . S
H1466 C1460 0.930 . S
H1467 C1464 0.930 . S
O1468 Li1408 1.956 . S
O1468 Li1409 1.970 . S
O1468 Li1410 1.961 . S
O1468 C1412 1.325 . S
O1469 Li1408 1.970 . S
O1469 Li1409 1.956 . S
O1469 Li1411 1.961 . S
O1469 C1418 1.325 . S
O1470 Li1408 1.961 . S
O1470 Li1410 1.956 . S
O1470 Li1411 1.970 . S
O1470 C1440 1.325 . S
O1471 Li1409 1.961 . S
O1471 Li1410 1.970 . S
O1471 Li1411 1.956 . S
O1471 C1446 1.325 . S
H1472 C1414 0.929 . S
H1473 C1415 0.930 . S
H1474 C1416 0.930 . S
H1475 C1417 0.930 . S
H1476 C1419 0.930 . S
H1477 C1421 0.929 . S
H1478 C1422 0.930 . S
H1479 C1423 0.930 . S
H1480 C1426 0.930 . S
H1481 C1429 0.929 . S
H1482 C1434 0.929 . S
H1483 C1435 0.930 . S
H1484 C1442 0.929 . S
H1485 C1443 0.930 . S
H1486 C1444 0.930 . S
H1487 C1445 0.930 . S
H1488 C1447 0.929 . S
H1489 C1448 0.930 . S
H1490 C1449 0.930 . S
H1491 C1450 0.930 . S
H1492 C1454 0.929 . S
H1493 C1456 0.930 . S
H1494 C1462 0.929 . S
H1495 C1463 0.930 . S
Li1496 N1513 1.990 . S
Li1496 O1556 1.956 . S
Li1496 O1557 1.970 . S
Li1496 O1558 1.961 . S
Li1497 N1521 1.990 . S
Li1497 O1556 1.970 . S
Li1497 O1557 1.956 . S
Li1497 O1559 1.961 . S
Li1498 N1543 1.990 . S
Li1498 O1556 1.961 . S
Li1498 O1558 1.956 . S
Li1498 O1559 1.970 . S
Li1499 N1549 1.990 . S
Li1499 O1557 1.961 . S
Li1499 O1558 1.970 . S
Li1499 O1559 1.956 . S
C1500 C1502 1.348 . S
C1500 C1503 1.356 . S
C1500 O1556 1.325 . S
N1501 C1504 1.314 . S
N1501 C1505 1.279 . S
C1502 C1500 1.348 . S
C1502 C1504 1.353 . S
C1502 H1560 0.929 . S
C1503 C1500 1.356 . S
C1503 C1505 1.358 . S
C1503 H1561 0.930 . S
C1504 N1501 1.314 . S
C1504 C1502 1.353 . S
C1504 H1562 0.930 . S
C1505 N1501 1.279 . S
C1505 C1503 1.358 . S
C1505 H1563 0.930 . S
C1506 C1509 1.348 . S
C1506 C1510 1.356 . S
C1506 O1557 1.325 . S
C1507 N1508 1.279 . S
C1507 C1510 1.358 . S
C1507 H1564 0.930 . S
N1508 C1507 1.279 . S
N1508 C1511 1.314 . S
C1509 C1506 1.348 . S
C1509 C1511 1.353 . S
C1509 H1565 0.929 . S
C1510 C1506 1.356 . S
C1510 C1507 1.358 . S
C1510 H1566 0.930 . S
C1511 N1508 1.314 . S
C1511 C1509 1.353 . S
C1511 H1567 0.930 . S
C1512 N1513 1.314 . S
C1512 C1517 1.353 . S
C1512 H1518 0.930 . S
N1513 Li1496 1.990 . S
N1513 C1512 1.314 . S
N1513 C1515 1.279 . S
C1514 C1515 1.358 . S
C1514 C1516 1.356 . S
C1514 H1568 0.930 . S
C1515 N1513 1.279 . S
C1515 C1514 1.358 . S
C1515 H1519 0.930 . S
C1516 C1514 1.356 . S
C1516 C1517 1.348 . S
C1517 C1512 1.353 . S
C1517 C1516 1.348 . S
C1517 H1569 0.929 . S
H1518 C1512 0.930 . S
H1519 C1515 0.930 . S
C1520 N1521 1.314 . S
C1520 C1522 1.353 . S
C1520 H1526 0.930 . S
N1521 Li1497 1.990 . S
N1521 C1520 1.314 . S
N1521 C1524 1.279 . S
C1522 C1520 1.353 . S
C1522 C1525 1.348 . S
C1522 H1570 0.929 . S
C1523 C1524 1.358 . S
C1523 C1525 1.356 . S
C1523 H1571 0.930 . S
C1524 N1521 1.279 . S
C1524 C1523 1.358 . S
C1524 H1527 0.930 . S
C1525 C1522 1.348 . S
C1525 C1523 1.356 . S
H1526 C1520 0.930 . S
H1527 C1524 0.930 . S
C1528 C1530 1.348 . S
C1528 C1531 1.356 . S
C1528 O1558 1.325 . S
N1529 C1532 1.314 . S
N1529 C1533 1.279 . S
C1530 C1528 1.348 . S
C1530 C1532 1.353 . S
C1530 H1572 0.929 . S
C1531 C1528 1.356 . S
C1531 C1533 1.358 . S
C1531 H1573 0.930 . S
C1532 N1529 1.314 . S
C1532 C1530 1.353 . S
C1532 H1574 0.930 . S
C1533 N1529 1.279 . S
C1533 C1531 1.358 . S
C1533 H1575 0.930 . S
C1534 C1535 1.348 . S
C1534 C1536 1.356 . S
C1534 O1559 1.325 . S
C1535 C1534 1.348 . S
C1535 C1537 1.353 . S
C1535 H1576 0.929 . S
C1536 C1534 1.356 . S
C1536 C1538 1.358 . S
C1536 H1577 0.930 . S
C1537 C1535 1.353 . S
C1537 N1539 1.314 . S
C1537 H1578 0.930 . S
C1538 C1536 1.358 . S
C1538 N1539 1.279 . S
C1538 H1579 0.930 . S
N1539 C1537 1.314 . S
N1539 C1538 1.279 . S
C1540 C1542 1.353 . S
C1540 N1543 1.314 . S
C1540 H1546 0.930 . S
C1541 N1543 1.279 . S
C1541 C1544 1.358 . S
C1541 H1547 0.930 . S
C1542 C1540 1.353 . S
C1542 C1545 1.348 . S
C1542 H1580 0.929 . S
N1543 Li1498 1.990 . S
N1543 C1540 1.314 . S
N1543 C1541 1.279 . S
C1544 C1541 1.358 . S
C1544 C1545 1.356 . S
C1544 H1581 0.930 . S
C1545 C1542 1.348 . S
C1545 C1544 1.356 . S
H1546 C1540 0.930 . S
H1547 C1541 0.930 . S
C1548 N1549 1.314 . S
C1548 C1550 1.353 . S
C1548 H1554 0.930 . S
N1549 Li1499 1.990 . S
N1549 C1548 1.314 . S
N1549 C1552 1.279 . S
C1550 C1548 1.353 . S
C1550 C1553 1.348 . S
C1550 H1582 0.929 . S
C1551 C1552 1.358 . S
C1551 C1553 1.356 . S
C1551 H1583 0.930 . S
C1552 N1549 1.279 . S
C1552 C1551 1.358 . S
C1552 H1555 0.930 . S
C1553 C1550 1.348 . S
C1553 C1551 1.356 . S
H1554 C1548 0.930 . S
H1555 C1552 0.930 . S
O1556 Li1496 1.956 . S
O1556 Li1497 1.970 . S
O1556 Li1498 1.961 . S
O1556 C1500 1.325 . S
O1557 Li1496 1.970 . S
O1557 Li1497 1.956 . S
O1557 Li1499 1.961 . S
O1557 C1506 1.325 . S
O1558 Li1496 1.961 . S
O1558 Li1498 1.956 . S
O1558 Li1499 1.970 . S
O1558 C1528 1.325 . S
O1559 Li1497 1.961 . S
O1559 Li1498 1.970 . S
O1559 Li1499 1.956 . S
O1559 C1534 1.325 . S
H1560 C1502 0.929 . S
H1561 C1503 0.930 . S
H1562 C1504 0.930 . S
H1563 C1505 0.930 . S
H1564 C1507 0.930 . S
H1565 C1509 0.929 . S
H1566 C1510 0.930 . S
H1567 C1511 0.930 . S
H1568 C1514 0.930 . S
H1569 C1517 0.929 . S
H1570 C1522 0.929 . S
H1571 C1523 0.930 . S
H1572 C1530 0.929 . S
H1573 C1531 0.930 . S
H1574 C1532 0.930 . S
H1575 C1533 0.930 . S
H1576 C1535 0.929 . S
H1577 C1536 0.930 . S
H1578 C1537 0.930 . S
H1579 C1538 0.930 . S
H1580 C1542 0.929 . S
H1581 C1544 0.930 . S
H1582 C1550 0.929 . S
H1583 C1551 0.930 . S
C1584 C1585 1.391 . S
C1584 C1586 1.394 . S
C1584 H1600 0.931 . S
C1585 C1584 1.391 . S
C1585 C1589 1.376 . S
C1586 C1584 1.394 . S
C1586 C1587 1.369 . S
C1586 C1590 1.531 . S
C1587 C1586 1.369 . S
C1587 C1588 1.410 . S
C1587 C1595 1.503 . S
C1588 C1587 1.410 . S
C1588 C1589 1.392 . S
C1588 C1591 1.511 . S
C1589 C1585 1.376 . S
C1589 C1588 1.392 . S
C1589 H1601 0.929 . S
C1590 C1586 1.531 . S
C1590 H1602 0.960 . S
C1590 H1603 0.962 . S
C1590 H1604 0.960 . S
C1591 C1588 1.511 . S
C1591 H1605 0.961 . S
C1591 H1606 0.961 . S
C1591 H1607 0.961 . S
C1592 C1593 1.370 . S
C1592 C1594 1.363 . S
C1592 H1608 0.931 . S
C1593 C1592 1.370 . S
C1593 C1597 1.408 . S
C1594 C1592 1.363 . S
C1594 C1595 1.370 . S
C1594 C1598 1.524 . S
C1595 C1587 1.503 . S
C1595 C1594 1.370 . S
C1595 C1596 1.403 . S
C1596 C1595 1.403 . S
C1596 C1597 1.404 . S
C1596 C1599 1.539 . S
C1597 C1593 1.408 . S
C1597 C1596 1.404 . S
C1597 H1609 0.930 . S
C1598 C1594 1.524 . S
C1598 H1610 0.956 . S
C1598 H1611 0.961 . S
C1598 H1612 0.961 . S
C1599 C1596 1.539 . S
C1599 H1613 0.958 . S
C1599 H1614 0.961 . S
C1599 H1615 0.960 . S
H1600 C1584 0.931 . S
H1601 C1589 0.929 . S
H1602 C1590 0.960 . S
H1603 C1590 0.962 . S
H1604 C1590 0.960 . S
H1605 C1591 0.961 . S
H1606 C1591 0.961 . S
H1607 C1591 0.961 . S
H1608 C1592 0.931 . S
H1609 C1597 0.930 . S
H1610 C1598 0.956 . S
H1611 C1598 0.961 . S
H1612 C1598 0.961 . S
H1613 C1599 0.958 . S
H1614 C1599 0.961 . S
H1615 C1599 0.960 . S
C1616 C1617 1.391 . S
C1616 C1618 1.394 . S
C1616 H1632 0.931 . S
C1617 C1616 1.391 . S
C1617 C1621 1.376 . S
C1618 C1616 1.394 . S
C1618 C1619 1.369 . S
C1618 C1622 1.531 . S
C1619 C1618 1.369 . S
C1619 C1620 1.410 . S
C1619 C1627 1.503 . S
C1620 C1619 1.410 . S
C1620 C1621 1.392 . S
C1620 C1623 1.511 1_545 S
C1621 C1617 1.376 . S
C1621 C1620 1.392 . S
C1621 H1633 0.929 1_545 S
C1622 C1618 1.531 . S
C1622 H1634 0.960 . S
C1622 H1635 0.962 . S
C1622 H1636 0.960 . S
C1623 C1620 1.511 1_565 S
C1623 H1637 0.961 . S
C1623 H1638 0.961 1_565 S
C1623 H1639 0.961 . S
C1624 C1625 1.370 . S
C1624 C1626 1.363 . S
C1624 H1640 0.931 . S
C1625 C1624 1.370 . S
C1625 C1629 1.408 . S
C1626 C1624 1.363 . S
C1626 C1627 1.370 . S
C1626 C1630 1.524 . S
C1627 C1619 1.503 . S
C1627 C1626 1.370 . S
C1627 C1628 1.403 . S
C1628 C1627 1.403 . S
C1628 C1629 1.404 . S
C1628 C1631 1.539 . S
C1629 C1625 1.408 . S
C1629 C1628 1.404 . S
C1629 H1641 0.930 . S
C1630 C1626 1.524 . S
C1630 H1642 0.956 . S
C1630 H1643 0.961 . S
C1630 H1644 0.961 . S
C1631 C1628 1.539 . S
C1631 H1645 0.958 . S
C1631 H1646 0.961 . S
C1631 H1647 0.960 . S
H1632 C1616 0.931 . S
H1633 C1621 0.929 1_565 S
H1634 C1622 0.960 . S
H1635 C1622 0.962 . S
H1636 C1622 0.960 . S
H1637 C1623 0.961 . S
H1638 C1623 0.961 1_545 S
H1639 C1623 0.961 . S
H1640 C1624 0.931 . S
H1641 C1629 0.930 . S
H1642 C1630 0.956 . S
H1643 C1630 0.961 . S
H1644 C1630 0.961 . S
H1645 C1631 0.958 . S
H1646 C1631 0.961 . S
H1647 C1631 0.960 . S
C1648 C1649 1.391 . S
C1648 C1650 1.394 . S
C1648 H1664 0.931 . S
C1649 C1648 1.391 . S
C1649 C1653 1.376 . S
C1650 C1648 1.394 . S
C1650 C1651 1.369 . S
C1650 C1654 1.531 . S
C1651 C1650 1.369 . S
C1651 C1652 1.410 . S
C1651 C1659 1.503 . S
C1652 C1651 1.410 . S
C1652 C1653 1.392 . S
C1652 C1655 1.511 . S
C1653 C1649 1.376 . S
C1653 C1652 1.392 . S
C1653 H1665 0.929 . S
C1654 C1650 1.531 . S
C1654 H1666 0.960 . S
C1654 H1667 0.962 . S
C1654 H1668 0.960 . S
C1655 C1652 1.511 . S
C1655 H1669 0.961 . S
C1655 H1670 0.961 . S
C1655 H1671 0.961 . S
C1656 C1657 1.370 . S
C1656 C1658 1.363 . S
C1656 H1672 0.931 . S
C1657 C1656 1.370 . S
C1657 C1661 1.408 . S
C1658 C1656 1.363 . S
C1658 C1659 1.370 . S
C1658 C1662 1.524 . S
C1659 C1651 1.503 . S
C1659 C1658 1.370 . S
C1659 C1660 1.403 . S
C1660 C1659 1.403 . S
C1660 C1661 1.404 . S
C1660 C1663 1.539 1_655 S
C1661 C1657 1.408 . S
C1661 C1660 1.404 . S
C1661 H1673 0.930 1_655 S
C1662 C1658 1.524 . S
C1662 H1674 0.956 . S
C1662 H1675 0.961 . S
C1662 H1676 0.961 . S
C1663 C1660 1.539 1_455 S
C1663 H1677 0.958 . S
C1663 H1678 0.961 . S
C1663 H1679 0.960 . S
H1664 C1648 0.931 . S
H1665 C1653 0.929 . S
H1666 C1654 0.960 . S
H1667 C1654 0.962 . S
H1668 C1654 0.960 . S
H1669 C1655 0.961 . S
H1670 C1655 0.961 . S
H1671 C1655 0.961 . S
H1672 C1656 0.931 . S
H1673 C1661 0.930 1_455 S
H1674 C1662 0.956 . S
H1675 C1662 0.961 . S
H1676 C1662 0.961 . S
H1677 C1663 0.958 . S
H1678 C1663 0.961 . S
H1679 C1663 0.960 . S
C1680 C1681 1.391 . S
C1680 C1682 1.394 . S
C1680 H1696 0.931 . S
C1681 C1680 1.391 . S
C1681 C1685 1.376 . S
C1682 C1680 1.394 . S
C1682 C1683 1.369 . S
C1682 C1686 1.531 . S
C1683 C1682 1.369 . S
C1683 C1684 1.410 . S
C1683 C1691 1.503 . S
C1684 C1683 1.410 . S
C1684 C1685 1.392 . S
C1684 C1687 1.511 . S
C1685 C1681 1.376 . S
C1685 C1684 1.392 . S
C1685 H1697 0.929 . S
C1686 C1682 1.531 . S
C1686 H1698 0.960 . S
C1686 H1699 0.962 . S
C1686 H1700 0.960 . S
C1687 C1684 1.511 . S
C1687 H1701 0.961 . S
C1687 H1702 0.961 . S
C1687 H1703 0.961 . S
C1688 C1689 1.370 . S
C1688 C1690 1.363 . S
C1688 H1704 0.931 . S
C1689 C1688 1.370 . S
C1689 C1693 1.408 . S
C1690 C1688 1.363 . S
C1690 C1691 1.370 . S
C1690 C1694 1.524 . S
C1691 C1683 1.503 . S
C1691 C1690 1.370 . S
C1691 C1692 1.403 . S
C1692 C1691 1.403 . S
C1692 C1693 1.404 . S
C1692 C1695 1.539 . S
C1693 C1689 1.408 . S
C1693 C1692 1.404 . S
C1693 H1705 0.930 . S
C1694 C1690 1.524 . S
C1694 H1706 0.956 . S
C1694 H1707 0.961 . S
C1694 H1708 0.961 . S
C1695 C1692 1.539 . S
C1695 H1709 0.958 . S
C1695 H1710 0.961 . S
C1695 H1711 0.960 . S
H1696 C1680 0.931 . S
H1697 C1685 0.929 . S
H1698 C1686 0.960 . S
H1699 C1686 0.962 . S
H1700 C1686 0.960 . S
H1701 C1687 0.961 . S
H1702 C1687 0.961 . S
H1703 C1687 0.961 . S
H1704 C1688 0.931 . S
H1705 C1693 0.930 . S
H1706 C1694 0.956 . S
H1707 C1694 0.961 . S
H1708 C1694 0.961 . S
H1709 C1695 0.958 . S
H1710 C1695 0.961 . S
H1711 C1695 0.960 . S
C1712 C1713 1.391 . S
C1712 C1714 1.394 . S
C1712 H1728 0.931 . S
C1713 C1712 1.391 . S
C1713 C1717 1.376 . S
C1714 C1712 1.394 . S
C1714 C1715 1.369 . S
C1714 C1718 1.531 . S
C1715 C1714 1.369 . S
C1715 C1716 1.410 . S
C1715 C1723 1.503 . S
C1716 C1715 1.410 . S
C1716 C1717 1.392 . S
C1716 C1719 1.511 . S
C1717 C1713 1.376 . S
C1717 C1716 1.392 . S
C1717 H1729 0.929 . S
C1718 C1714 1.531 . S
C1718 H1730 0.960 . S
C1718 H1731 0.962 . S
C1718 H1732 0.960 . S
C1719 C1716 1.511 . S
C1719 H1733 0.961 . S
C1719 H1734 0.961 . S
C1719 H1735 0.961 . S
C1720 C1721 1.370 . S
C1720 C1722 1.363 . S
C1720 H1736 0.931 . S
C1721 C1720 1.370 . S
C1721 C1725 1.408 . S
C1722 C1720 1.363 . S
C1722 C1723 1.370 . S
C1722 C1726 1.524 . S
C1723 C1715 1.503 . S
C1723 C1722 1.370 . S
C1723 C1724 1.403 . S
C1724 C1723 1.403 . S
C1724 C1725 1.404 . S
C1724 C1727 1.539 . S
C1725 C1721 1.408 . S
C1725 C1724 1.404 . S
C1725 H1737 0.930 . S
C1726 C1722 1.524 . S
C1726 H1738 0.956 . S
C1726 H1739 0.961 . S
C1726 H1740 0.961 . S
C1727 C1724 1.539 . S
C1727 H1741 0.958 . S
C1727 H1742 0.961 . S
C1727 H1743 0.960 . S
H1728 C1712 0.931 . S
H1729 C1717 0.929 . S
H1730 C1718 0.960 . S
H1731 C1718 0.962 . S
H1732 C1718 0.960 . S
H1733 C1719 0.961 . S
H1734 C1719 0.961 . S
H1735 C1719 0.961 . S
H1736 C1720 0.931 . S
H1737 C1725 0.930 . S
H1738 C1726 0.956 . S
H1739 C1726 0.961 . S
H1740 C1726 0.961 . S
H1741 C1727 0.958 . S
H1742 C1727 0.961 . S
H1743 C1727 0.960 . S
C1744 C1745 1.391 . S
C1744 C1746 1.394 . S
C1744 H1760 0.931 . S
C1745 C1744 1.391 . S
C1745 C1749 1.376 . S
C1746 C1744 1.394 . S
C1746 C1747 1.369 . S
C1746 C1750 1.531 . S
C1747 C1746 1.369 . S
C1747 C1748 1.410 . S
C1747 C1755 1.503 . S
C1748 C1747 1.410 . S
C1748 C1749 1.392 . S
C1748 C1751 1.511 . S
C1749 C1745 1.376 . S
C1749 C1748 1.392 . S
C1749 H1761 0.929 . S
C1750 C1746 1.531 . S
C1750 H1762 0.960 . S
C1750 H1763 0.962 . S
C1750 H1764 0.960 . S
C1751 C1748 1.511 . S
C1751 H1765 0.961 . S
C1751 H1766 0.961 . S
C1751 H1767 0.961 . S
C1752 C1753 1.370 . S
C1752 C1754 1.363 . S
C1752 H1768 0.931 . S
C1753 C1752 1.370 . S
C1753 C1757 1.408 . S
C1754 C1752 1.363 . S
C1754 C1755 1.370 . S
C1754 C1758 1.524 . S
C1755 C1747 1.503 . S
C1755 C1754 1.370 . S
C1755 C1756 1.403 . S
C1756 C1755 1.403 . S
C1756 C1757 1.404 . S
C1756 C1759 1.539 . S
C1757 C1753 1.408 . S
C1757 C1756 1.404 . S
C1757 H1769 0.930 . S
C1758 C1754 1.524 . S
C1758 H1770 0.956 . S
C1758 H1771 0.961 . S
C1758 H1772 0.961 . S
C1759 C1756 1.539 . S
C1759 H1773 0.958 . S
C1759 H1774 0.961 . S
C1759 H1775 0.960 . S
H1760 C1744 0.931 . S
H1761 C1749 0.929 . S
H1762 C1750 0.960 . S
H1763 C1750 0.962 . S
H1764 C1750 0.960 . S
H1765 C1751 0.961 . S
H1766 C1751 0.961 . S
H1767 C1751 0.961 . S
H1768 C1752 0.931 . S
H1769 C1757 0.930 . S
H1770 C1758 0.956 . S
H1771 C1758 0.961 . S
H1772 C1758 0.961 . S
H1773 C1759 0.958 . S
H1774 C1759 0.961 . S
H1775 C1759 0.960 . S
C1776 C1777 1.391 . S
C1776 C1778 1.394 . S
C1776 H1792 0.931 . S
C1777 C1776 1.391 . S
C1777 C1781 1.376 . S
C1778 C1776 1.394 . S
C1778 C1779 1.369 . S
C1778 C1782 1.531 1_655 S
C1779 C1778 1.369 . S
C1779 C1780 1.410 . S
C1779 C1787 1.503 1_655 S
C1780 C1779 1.410 . S
C1780 C1781 1.392 . S
C1780 C1783 1.511 . S
C1781 C1777 1.376 . S
C1781 C1780 1.392 . S
C1781 H1793 0.929 . S
C1782 C1778 1.531 1_455 S
C1782 H1794 0.960 . S
C1782 H1795 0.962 . S
C1782 H1796 0.960 . S
C1783 C1780 1.511 . S
C1783 H1797 0.961 . S
C1783 H1798 0.961 . S
C1783 H1799 0.961 . S
C1784 C1785 1.370 . S
C1784 C1786 1.363 . S
C1784 H1800 0.931 . S
C1785 C1784 1.370 . S
C1785 C1789 1.408 . S
C1786 C1784 1.363 . S
C1786 C1787 1.370 . S
C1786 C1790 1.524 . S
C1787 C1779 1.503 1_455 S
C1787 C1786 1.370 . S
C1787 C1788 1.403 . S
C1788 C1787 1.403 . S
C1788 C1789 1.404 . S
C1788 C1791 1.539 . S
C1789 C1785 1.408 . S
C1789 C1788 1.404 . S
C1789 H1801 0.930 . S
C1790 C1786 1.524 . S
C1790 H1802 0.956 . S
C1790 H1803 0.961 1_455 S
C1790 H1804 0.961 . S
C1791 C1788 1.539 . S
C1791 H1805 0.958 . S
C1791 H1806 0.961 . S
C1791 H1807 0.960 1_455 S
H1792 C1776 0.931 . S
H1793 C1781 0.929 . S
H1794 C1782 0.960 . S
H1795 C1782 0.962 . S
H1796 C1782 0.960 . S
H1797 C1783 0.961 . S
H1798 C1783 0.961 . S
H1799 C1783 0.961 . S
H1800 C1784 0.931 . S
H1801 C1789 0.930 . S
H1802 C1790 0.956 . S
H1803 C1790 0.961 1_655 S
H1804 C1790 0.961 . S
H1805 C1791 0.958 . S
H1806 C1791 0.961 . S
H1807 C1791 0.960 1_655 S
C1808 C1809 1.391 . S
C1808 C1810 1.394 . S
C1808 H1824 0.931 . S
C1809 C1808 1.391 . S
C1809 C1813 1.376 . S
C1810 C1808 1.394 . S
C1810 C1811 1.369 . S
C1810 C1814 1.531 . S
C1811 C1810 1.369 . S
C1811 C1812 1.410 . S
C1811 C1819 1.503 . S
C1812 C1811 1.410 . S
C1812 C1813 1.392 . S
C1812 C1815 1.511 . S
C1813 C1809 1.376 . S
C1813 C1812 1.392 . S
C1813 H1825 0.929 . S
C1814 C1810 1.531 . S
C1814 H1826 0.960 . S
C1814 H1827 0.962 . S
C1814 H1828 0.960 . S
C1815 C1812 1.511 . S
C1815 H1829 0.961 . S
C1815 H1830 0.961 . S
C1815 H1831 0.961 . S
C1816 C1817 1.370 . S
C1816 C1818 1.363 . S
C1816 H1832 0.931 . S
C1817 C1816 1.370 . S
C1817 C1821 1.408 . S
C1818 C1816 1.363 . S
C1818 C1819 1.370 . S
C1818 C1822 1.524 . S
C1819 C1811 1.503 . S
C1819 C1818 1.370 . S
C1819 C1820 1.403 . S
C1820 C1819 1.403 . S
C1820 C1821 1.404 . S
C1820 C1823 1.539 . S
C1821 C1817 1.408 . S
C1821 C1820 1.404 . S
C1821 H1833 0.930 . S
C1822 C1818 1.524 . S
C1822 H1834 0.956 . S
C1822 H1835 0.961 . S
C1822 H1836 0.961 . S
C1823 C1820 1.539 . S
C1823 H1837 0.958 . S
C1823 H1838 0.961 . S
C1823 H1839 0.960 . S
H1824 C1808 0.931 . S
H1825 C1813 0.929 . S
H1826 C1814 0.960 . S
H1827 C1814 0.962 . S
H1828 C1814 0.960 . S
H1829 C1815 0.961 . S
H1830 C1815 0.961 . S
H1831 C1815 0.961 . S
H1832 C1816 0.931 . S
H1833 C1821 0.930 . S
H1834 C1822 0.956 . S
H1835 C1822 0.961 . S
H1836 C1822 0.961 . S
H1837 C1823 0.958 . S
H1838 C1823 0.961 . S
H1839 C1823 0.960 . S
C1840 C1841 1.391 . S
C1840 C1842 1.394 . S
C1840 H1856 0.931 . S
C1841 C1840 1.391 . S
C1841 C1845 1.376 . S
C1842 C1840 1.394 . S
C1842 C1843 1.369 . S
C1842 C1846 1.531 . S
C1843 C1842 1.369 . S
C1843 C1844 1.410 . S
C1843 C1851 1.503 1_545 S
C1844 C1843 1.410 . S
C1844 C1845 1.392 . S
C1844 C1847 1.511 1_545 S
C1845 C1841 1.376 . S
C1845 C1844 1.392 . S
C1845 H1857 0.929 . S
C1846 C1842 1.531 . S
C1846 H1858 0.960 . S
C1846 H1859 0.962 . S
C1846 H1860 0.960 . S
C1847 C1844 1.511 1_565 S
C1847 H1861 0.961 . S
C1847 H1862 0.961 . S
C1847 H1863 0.961 . S
C1848 C1849 1.370 . S
C1848 C1850 1.363 . S
C1848 H1864 0.931 . S
C1849 C1848 1.370 . S
C1849 C1853 1.408 . S
C1850 C1848 1.363 . S
C1850 C1851 1.370 . S
C1850 C1854 1.524 . S
C1851 C1843 1.503 1_565 S
C1851 C1850 1.370 . S
C1851 C1852 1.403 . S
C1852 C1851 1.403 . S
C1852 C1853 1.404 . S
C1852 C1855 1.539 1_565 S
C1853 C1849 1.408 . S
C1853 C1852 1.404 . S
C1853 H1865 0.930 . S
C1854 C1850 1.524 . S
C1854 H1866 0.956 . S
C1854 H1867 0.961 . S
C1854 H1868 0.961 . S
C1855 C1852 1.539 1_545 S
C1855 H1869 0.958 . S
C1855 H1870 0.961 1_545 S
C1855 H1871 0.960 . S
H1856 C1840 0.931 . S
H1857 C1845 0.929 . S
H1858 C1846 0.960 . S
H1859 C1846 0.962 . S
H1860 C1846 0.960 . S
H1861 C1847 0.961 . S
H1862 C1847 0.961 . S
H1863 C1847 0.961 . S
H1864 C1848 0.931 . S
H1865 C1853 0.930 . S
H1866 C1854 0.956 . S
H1867 C1854 0.961 . S
H1868 C1854 0.961 . S
H1869 C1855 0.958 . S
H1870 C1855 0.961 1_565 S
H1871 C1855 0.960 . S
C1872 C1873 1.391 . S
C1872 C1874 1.394 . S
C1872 H1888 0.931 . S
C1873 C1872 1.391 . S
C1873 C1877 1.376 . S
C1874 C1872 1.394 . S
C1874 C1875 1.369 . S
C1874 C1878 1.531 . S
C1875 C1874 1.369 . S
C1875 C1876 1.410 . S
C1875 C1883 1.503 1_455 S
C1876 C1875 1.410 . S
C1876 C1877 1.392 . S
C1876 C1879 1.511 . S
C1877 C1873 1.376 . S
C1877 C1876 1.392 . S
C1877 H1889 0.929 . S
C1878 C1874 1.531 . S
C1878 H1890 0.960 1_455 S
C1878 H1891 0.962 1_455 S
C1878 H1892 0.960 . S
C1879 C1876 1.511 . S
C1879 H1893 0.961 . S
C1879 H1894 0.961 . S
C1879 H1895 0.961 . S
C1880 C1881 1.370 . S
C1880 C1882 1.363 . S
C1880 H1896 0.931 . S
C1881 C1880 1.370 . S
C1881 C1885 1.408 . S
C1882 C1880 1.363 . S
C1882 C1883 1.370 . S
C1882 C1886 1.524 . S
C1883 C1875 1.503 1_655 S
C1883 C1882 1.370 . S
C1883 C1884 1.403 . S
C1884 C1883 1.403 . S
C1884 C1885 1.404 . S
C1884 C1887 1.539 . S
C1885 C1881 1.408 . S
C1885 C1884 1.404 . S
C1885 H1897 0.930 . S
C1886 C1882 1.524 . S
C1886 H1898 0.956 . S
C1886 H1899 0.961 1_655 S
C1886 H1900 0.961 . S
C1887 C1884 1.539 . S
C1887 H1901 0.958 . S
C1887 H1902 0.961 . S
C1887 H1903 0.960 1_655 S
H1888 C1872 0.931 . S
H1889 C1877 0.929 . S
H1890 C1878 0.960 1_655 S
H1891 C1878 0.962 1_655 S
H1892 C1878 0.960 . S
H1893 C1879 0.961 . S
H1894 C1879 0.961 . S
H1895 C1879 0.961 . S
H1896 C1880 0.931 . S
H1897 C1885 0.930 . S
H1898 C1886 0.956 . S
H1899 C1886 0.961 1_455 S
H1900 C1886 0.961 . S
H1901 C1887 0.958 . S
H1902 C1887 0.961 . S
H1903 C1887 0.960 1_455 S
C1904 C1905 1.391 . S
C1904 C1906 1.394 . S
C1904 H1920 0.931 . S
C1905 C1904 1.391 . S
C1905 C1909 1.376 . S
C1906 C1904 1.394 . S
C1906 C1907 1.369 . S
C1906 C1910 1.531 . S
C1907 C1906 1.369 . S
C1907 C1908 1.410 . S
C1907 C1915 1.503 . S
C1908 C1907 1.410 . S
C1908 C1909 1.392 . S
C1908 C1911 1.511 . S
C1909 C1905 1.376 . S
C1909 C1908 1.392 . S
C1909 H1921 0.929 . S
C1910 C1906 1.531 . S
C1910 H1922 0.960 . S
C1910 H1923 0.962 . S
C1910 H1924 0.960 . S
C1911 C1908 1.511 . S
C1911 H1925 0.961 . S
C1911 H1926 0.961 . S
C1911 H1927 0.961 . S
C1912 C1913 1.370 . S
C1912 C1914 1.363 . S
C1912 H1928 0.931 . S
C1913 C1912 1.370 . S
C1913 C1917 1.408 . S
C1914 C1912 1.363 . S
C1914 C1915 1.370 . S
C1914 C1918 1.524 . S
C1915 C1907 1.503 . S
C1915 C1914 1.370 . S
C1915 C1916 1.403 . S
C1916 C1915 1.403 . S
C1916 C1917 1.404 . S
C1916 C1919 1.539 . S
C1917 C1913 1.408 . S
C1917 C1916 1.404 . S
C1917 H1929 0.930 . S
C1918 C1914 1.524 . S
C1918 H1930 0.956 . S
C1918 H1931 0.961 . S
C1918 H1932 0.961 . S
C1919 C1916 1.539 . S
C1919 H1933 0.958 . S
C1919 H1934 0.961 . S
C1919 H1935 0.960 . S
H1920 C1904 0.931 . S
H1921 C1909 0.929 . S
H1922 C1910 0.960 . S
H1923 C1910 0.962 . S
H1924 C1910 0.960 . S
H1925 C1911 0.961 . S
H1926 C1911 0.961 . S
H1927 C1911 0.961 . S
H1928 C1912 0.931 . S
H1929 C1917 0.930 . S
H1930 C1918 0.956 . S
H1931 C1918 0.961 . S
H1932 C1918 0.961 . S
H1933 C1919 0.958 . S
H1934 C1919 0.961 . S
H1935 C1919 0.960 . S
C1936 C1937 1.391 . S
C1936 C1938 1.394 . S
C1936 H1952 0.931 . S
C1937 C1936 1.391 . S
C1937 C1941 1.376 . S
C1938 C1936 1.394 . S
C1938 C1939 1.369 . S
C1938 C1942 1.521 1_545 S
C1939 C1938 1.369 . S
C1939 C1940 1.410 . S
C1939 C1947 1.503 1_545 S
C1940 C1939 1.410 . S
C1940 C1941 1.392 . S
C1940 C1943 1.511 . S
C1941 C1937 1.376 . S
C1941 C1940 1.392 . S
C1941 H1953 0.929 . S
C1942 C1938 1.521 1_565 S
C1942 H1954 0.990 . S
C1942 H1955 0.961 . S
C1942 H1956 0.942 1_565 S
C1943 C1940 1.511 . S
C1943 H1957 0.961 . S
C1943 H1958 0.961 . S
C1943 H1959 0.961 . S
C1944 C1945 1.370 . S
C1944 C1946 1.363 . S
C1944 H1960 0.931 . S
C1945 C1944 1.370 . S
C1945 C1949 1.408 . S
C1946 C1944 1.363 . S
C1946 C1947 1.370 . S
C1946 C1950 1.524 . S
C1947 C1939 1.503 1_565 S
C1947 C1946 1.370 . S
C1947 C1948 1.403 . S
C1948 C1947 1.403 . S
C1948 C1949 1.404 . S
C1948 C1951 1.539 . S
C1949 C1945 1.408 . S
C1949 C1948 1.404 . S
C1949 H1961 0.930 . S
C1950 C1946 1.524 . S
C1950 H1962 0.956 . S
C1950 H1963 0.961 1_565 S
C1950 H1964 0.961 . S
C1951 C1948 1.539 . S
C1951 H1965 0.958 . S
C1951 H1966 0.961 . S
C1951 H1967 0.960 1_565 S
H1952 C1936 0.931 . S
H1953 C1941 0.929 . S
H1954 C1942 0.990 . S
H1955 C1942 0.961 . S
H1956 C1942 0.942 1_545 S
H1957 C1943 0.961 . S
H1958 C1943 0.961 . S
H1959 C1943 0.961 . S
H1960 C1944 0.931 . S
H1961 C1949 0.930 . S
H1962 C1950 0.956 . S
H1963 C1950 0.961 1_545 S
H1964 C1950 0.961 . S
H1965 C1951 0.958 . S
H1966 C1951 0.961 . S
H1967 C1951 0.960 1_545 S
C1968 C1969 1.391 . S
C1968 C1970 1.394 . S
C1968 H1984 0.931 . S
C1969 C1968 1.391 . S
C1969 C1973 1.376 . S
C1970 C1968 1.394 . S
C1970 C1971 1.369 . S
C1970 C1974 1.531 1_565 S
C1971 C1970 1.369 . S
C1971 C1972 1.410 . S
C1971 C1979 1.503 1_565 S
C1972 C1971 1.410 . S
C1972 C1973 1.392 . S
C1972 C1975 1.511 . S
C1973 C1969 1.376 . S
C1973 C1972 1.392 . S
C1973 H1985 0.929 . S
C1974 C1970 1.531 1_545 S
C1974 H1986 0.960 . S
C1974 H1987 0.962 . S
C1974 H1988 0.960 1_545 S
C1975 C1972 1.511 . S
C1975 H1989 0.961 . S
C1975 H1990 0.961 . S
C1975 H1991 0.961 . S
C1976 C1977 1.370 . S
C1976 C1978 1.363 . S
C1976 H1992 0.931 . S
C1977 C1976 1.370 . S
C1977 C1981 1.408 . S
C1978 C1976 1.363 . S
C1978 C1979 1.370 . S
C1978 C1982 1.524 . S
C1979 C1971 1.503 1_545 S
C1979 C1978 1.370 . S
C1979 C1980 1.403 . S
C1980 C1979 1.403 . S
C1980 C1981 1.404 . S
C1980 C1983 1.539 . S
C1981 C1977 1.408 . S
C1981 C1980 1.404 . S
C1981 H1993 0.930 . S
C1982 C1978 1.524 . S
C1982 H1994 0.956 . S
C1982 H1995 0.960 . S
C1982 H1996 0.961 . S
C1983 C1980 1.539 . S
C1983 H1997 0.958 . S
C1983 H1998 0.961 . S
C1983 H1999 0.954 . S
H1984 C1968 0.931 . S
H1985 C1973 0.929 . S
H1986 C1974 0.960 . S
H1987 C1974 0.962 . S
H1988 C1974 0.960 1_565 S
H1989 C1975 0.961 . S
H1990 C1975 0.961 . S
H1991 C1975 0.961 . S
H1992 C1976 0.931 . S
H1993 C1981 0.930 . S
H1994 C1982 0.956 . S
H1995 C1982 0.960 . S
H1996 C1982 0.961 . S
H1997 C1983 0.958 . S
H1998 C1983 0.961 . S
H1999 C1983 0.954 . S
C2000 C2001 1.391 . S
C2000 C2002 1.394 . S
C2000 H2016 0.931 . S
C2001 C2000 1.391 . S
C2001 C2005 1.376 . S
C2002 C2000 1.394 . S
C2002 C2003 1.369 . S
C2002 C2006 1.521 1_455 S
C2003 C2002 1.369 . S
C2003 C2004 1.410 . S
C2003 C2011 1.503 1_455 S
C2004 C2003 1.410 . S
C2004 C2005 1.392 . S
C2004 C2007 1.511 . S
C2005 C2001 1.376 . S
C2005 C2004 1.392 . S
C2005 H2017 0.929 . S
C2006 C2002 1.521 1_655 S
C2006 H2018 0.992 . S
C2006 H2019 0.961 . S
C2006 H2020 0.940 1_655 S
C2007 C2004 1.511 . S
C2007 H2021 0.961 . S
C2007 H2022 0.961 . S
C2007 H2023 0.961 . S
C2008 C2009 1.370 . S
C2008 C2010 1.363 . S
C2008 H2024 0.931 . S
C2009 C2008 1.370 . S
C2009 C2013 1.408 . S
C2010 C2008 1.363 . S
C2010 C2011 1.370 . S
C2010 C2014 1.524 . S
C2011 C2003 1.503 1_655 S
C2011 C2010 1.370 . S
C2011 C2012 1.403 . S
C2012 C2011 1.403 . S
C2012 C2013 1.404 . S
C2012 C2015 1.539 . S
C2013 C2009 1.408 . S
C2013 C2012 1.404 . S
C2013 H2025 0.930 . S
C2014 C2010 1.524 . S
C2014 H2026 0.956 . S
C2014 H2027 0.961 1_655 S
C2014 H2028 0.961 . S
C2015 C2012 1.539 . S
C2015 H2029 0.958 . S
C2015 H2030 0.961 . S
C2015 H2031 0.937 1_655 S
H2016 C2000 0.931 . S
H2017 C2005 0.929 . S
H2018 C2006 0.992 . S
H2019 C2006 0.961 . S
H2020 C2006 0.940 1_455 S
H2021 C2007 0.961 . S
H2022 C2007 0.961 . S
H2023 C2007 0.961 . S
H2024 C2008 0.931 . S
H2025 C2013 0.930 . S
H2026 C2014 0.956 . S
H2027 C2014 0.961 1_455 S
H2028 C2014 0.961 . S
H2029 C2015 0.958 . S
H2030 C2015 0.961 . S
H2031 C2015 0.937 1_455 S
C2032 C2033 1.391 . S
C2032 C2034 1.394 . S
C2032 H2048 0.931 . S
C2033 C2032 1.391 . S
C2033 C2037 1.376 . S
C2034 C2032 1.394 . S
C2034 C2035 1.369 . S
C2034 C2038 1.531 . S
C2035 C2034 1.369 . S
C2035 C2036 1.410 . S
C2035 C2043 1.503 . S
C2036 C2035 1.410 . S
C2036 C2037 1.392 . S
C2036 C2039 1.511 . S
C2037 C2033 1.376 . S
C2037 C2036 1.392 . S
C2037 H2049 0.929 . S
C2038 C2034 1.531 . S
C2038 H2050 0.960 . S
C2038 H2051 0.962 . S
C2038 H2052 0.960 . S
C2039 C2036 1.511 . S
C2039 H2053 0.961 . S
C2039 H2054 0.961 . S
C2039 H2055 0.961 . S
C2040 C2041 1.370 . S
C2040 C2042 1.363 . S
C2040 H2056 0.931 . S
C2041 C2040 1.370 . S
C2041 C2045 1.408 . S
C2042 C2040 1.363 . S
C2042 C2043 1.370 . S
C2042 C2046 1.524 . S
C2043 C2035 1.503 . S
C2043 C2042 1.370 . S
C2043 C2044 1.403 . S
C2044 C2043 1.403 . S
C2044 C2045 1.404 . S
C2044 C2047 1.539 . S
C2045 C2041 1.408 . S
C2045 C2044 1.404 . S
C2045 H2057 0.930 . S
C2046 C2042 1.524 . S
C2046 H2058 0.956 . S
C2046 H2059 0.961 . S
C2046 H2060 0.961 . S
C2047 C2044 1.539 . S
C2047 H2061 0.958 . S
C2047 H2062 0.961 . S
C2047 H2063 0.960 . S
H2048 C2032 0.931 . S
H2049 C2037 0.929 . S
H2050 C2038 0.960 . S
H2051 C2038 0.962 . S
H2052 C2038 0.960 . S
H2053 C2039 0.961 . S
H2054 C2039 0.961 . S
H2055 C2039 0.961 . S
H2056 C2040 0.931 . S
H2057 C2045 0.930 . S
H2058 C2046 0.956 . S
H2059 C2046 0.961 . S
H2060 C2046 0.961 . S
H2061 C2047 0.958 . S
H2062 C2047 0.961 . S
H2063 C2047 0.960 . S
C2064 C2065 1.391 . S
C2064 C2066 1.394 . S
C2064 H2080 0.931 . S
C2065 C2064 1.391 . S
C2065 C2069 1.376 . S
C2066 C2064 1.394 . S
C2066 C2067 1.369 . S
C2066 C2070 1.531 . S
C2067 C2066 1.369 . S
C2067 C2068 1.410 . S
C2067 C2075 1.503 . S
C2068 C2067 1.410 . S
C2068 C2069 1.392 . S
C2068 C2071 1.511 . S
C2069 C2065 1.376 . S
C2069 C2068 1.392 . S
C2069 H2081 0.929 . S
C2070 C2066 1.531 . S
C2070 H2082 0.960 . S
C2070 H2083 0.962 . S
C2070 H2084 0.960 . S
C2071 C2068 1.511 . S
C2071 H2085 0.961 . S
C2071 H2086 0.961 . S
C2071 H2087 0.961 . S
C2072 C2073 1.370 . S
C2072 C2074 1.363 . S
C2072 H2088 0.931 . S
C2073 C2072 1.370 . S
C2073 C2077 1.408 . S
C2074 C2072 1.363 . S
C2074 C2075 1.370 . S
C2074 C2078 1.524 . S
C2075 C2067 1.503 . S
C2075 C2074 1.370 . S
C2075 C2076 1.403 . S
C2076 C2075 1.403 . S
C2076 C2077 1.404 . S
C2076 C2079 1.539 . S
C2077 C2073 1.408 . S
C2077 C2076 1.404 . S
C2077 H2089 0.930 . S
C2078 C2074 1.524 . S
C2078 H2090 0.956 . S
C2078 H2091 0.961 . S
C2078 H2092 0.961 . S
C2079 C2076 1.539 . S
C2079 H2093 0.958 . S
C2079 H2094 0.961 . S
C2079 H2095 0.960 . S
H2080 C2064 0.931 . S
H2081 C2069 0.929 . S
H2082 C2070 0.960 . S
H2083 C2070 0.962 . S
H2084 C2070 0.960 . S
H2085 C2071 0.961 . S
H2086 C2071 0.961 . S
H2087 C2071 0.961 . S
H2088 C2072 0.931 . S
H2089 C2077 0.930 . S
H2090 C2078 0.956 . S
H2091 C2078 0.961 . S
H2092 C2078 0.961 . S
H2093 C2079 0.958 . S
H2094 C2079 0.961 . S
H2095 C2079 0.960 . S
C2096 C2097 1.391 . S
C2096 C2098 1.394 . S
C2096 H2112 0.931 . S
C2097 C2096 1.391 . S
C2097 C2101 1.376 . S
C2098 C2096 1.394 . S
C2098 C2099 1.369 . S
C2098 C2102 1.531 . S
C2099 C2098 1.369 . S
C2099 C2100 1.410 . S
C2099 C2107 1.503 . S
C2100 C2099 1.410 . S
C2100 C2101 1.392 . S
C2100 C2103 1.511 . S
C2101 C2097 1.376 . S
C2101 C2100 1.392 . S
C2101 H2113 0.929 . S
C2102 C2098 1.531 . S
C2102 H2114 0.960 . S
C2102 H2115 0.962 . S
C2102 H2116 0.960 . S
C2103 C2100 1.511 . S
C2103 H2117 0.961 . S
C2103 H2118 0.961 . S
C2103 H2119 0.961 . S
C2104 C2105 1.370 . S
C2104 C2106 1.363 . S
C2104 H2120 0.931 . S
C2105 C2104 1.370 . S
C2105 C2109 1.408 . S
C2106 C2104 1.363 . S
C2106 C2107 1.370 . S
C2106 C2110 1.524 . S
C2107 C2099 1.503 . S
C2107 C2106 1.370 . S
C2107 C2108 1.403 . S
C2108 C2107 1.403 . S
C2108 C2109 1.404 . S
C2108 C2111 1.539 . S
C2109 C2105 1.408 . S
C2109 C2108 1.404 . S
C2109 H2121 0.930 . S
C2110 C2106 1.524 . S
C2110 H2122 0.956 . S
C2110 H2123 0.961 . S
C2110 H2124 0.961 . S
C2111 C2108 1.539 . S
C2111 H2125 0.958 . S
C2111 H2126 0.961 . S
C2111 H2127 0.960 . S
H2112 C2096 0.931 . S
H2113 C2101 0.929 . S
H2114 C2102 0.960 . S
H2115 C2102 0.962 . S
H2116 C2102 0.960 . S
H2117 C2103 0.961 . S
H2118 C2103 0.961 . S
H2119 C2103 0.961 . S
H2120 C2104 0.931 . S
H2121 C2109 0.930 . S
H2122 C2110 0.956 . S
H2123 C2110 0.961 . S
H2124 C2110 0.961 . S
H2125 C2111 0.958 . S
H2126 C2111 0.961 . S
H2127 C2111 0.960 . S
C2128 C2129 1.391 . S
C2128 C2130 1.394 . S
C2128 H2144 0.931 . S
C2129 C2128 1.391 . S
C2129 C2133 1.376 . S
C2130 C2128 1.394 . S
C2130 C2131 1.369 . S
C2130 C2134 1.531 . S
C2131 C2130 1.369 . S
C2131 C2132 1.410 . S
C2131 C2139 1.503 . S
C2132 C2131 1.410 . S
C2132 C2133 1.392 . S
C2132 C2135 1.511 . S
C2133 C2129 1.376 . S
C2133 C2132 1.392 . S
C2133 H2145 0.929 . S
C2134 C2130 1.531 . S
C2134 H2146 0.960 . S
C2134 H2147 0.962 . S
C2134 H2148 0.960 . S
C2135 C2132 1.511 . S
C2135 H2149 0.961 . S
C2135 H2150 0.961 . S
C2135 H2151 0.961 . S
C2136 C2137 1.370 . S
C2136 C2138 1.363 . S
C2136 H2152 0.931 . S
C2137 C2136 1.370 . S
C2137 C2141 1.408 . S
C2138 C2136 1.363 . S
C2138 C2139 1.370 . S
C2138 C2142 1.524 . S
C2139 C2131 1.503 . S
C2139 C2138 1.370 . S
C2139 C2140 1.403 . S
C2140 C2139 1.403 . S
C2140 C2141 1.404 . S
C2140 C2143 1.539 . S
C2141 C2137 1.408 . S
C2141 C2140 1.404 . S
C2141 H2153 0.930 . S
C2142 C2138 1.524 . S
C2142 H2154 0.956 . S
C2142 H2155 0.961 . S
C2142 H2156 0.961 . S
C2143 C2140 1.539 . S
C2143 H2157 0.958 . S
C2143 H2158 0.961 . S
C2143 H2159 0.960 . S
H2144 C2128 0.931 . S
H2145 C2133 0.929 . S
H2146 C2134 0.960 . S
H2147 C2134 0.962 . S
H2148 C2134 0.960 . S
H2149 C2135 0.961 . S
H2150 C2135 0.961 . S
H2151 C2135 0.961 . S
H2152 C2136 0.931 . S
H2153 C2141 0.930 . S
H2154 C2142 0.956 . S
H2155 C2142 0.961 . S
H2156 C2142 0.961 . S
H2157 C2143 0.958 . S
H2158 C2143 0.961 . S
H2159 C2143 0.960 . S
C2160 C2161 1.391 . S
C2160 C2162 1.394 . S
C2160 H2176 0.931 . S
C2161 C2160 1.391 . S
C2161 C2165 1.376 . S
C2162 C2160 1.394 . S
C2162 C2163 1.369 . S
C2162 C2166 1.531 . S
C2163 C2162 1.369 . S
C2163 C2164 1.410 . S
C2163 C2171 1.503 . S
C2164 C2163 1.410 . S
C2164 C2165 1.392 . S
C2164 C2167 1.511 . S
C2165 C2161 1.376 . S
C2165 C2164 1.392 . S
C2165 H2177 0.929 . S
C2166 C2162 1.531 . S
C2166 H2178 0.960 . S
C2166 H2179 0.962 . S
C2166 H2180 0.960 . S
C2167 C2164 1.511 . S
C2167 H2181 0.961 . S
C2167 H2182 0.961 . S
C2167 H2183 0.961 . S
C2168 C2169 1.370 . S
C2168 C2170 1.363 . S
C2168 H2184 0.931 . S
C2169 C2168 1.370 . S
C2169 C2173 1.408 . S
C2170 C2168 1.363 . S
C2170 C2171 1.370 . S
C2170 C2174 1.524 . S
C2171 C2163 1.503 . S
C2171 C2170 1.370 . S
C2171 C2172 1.403 . S
C2172 C2171 1.403 . S
C2172 C2173 1.404 . S
C2172 C2175 1.539 . S
C2173 C2169 1.408 . S
C2173 C2172 1.404 . S
C2173 H2185 0.930 . S
C2174 C2170 1.524 . S
C2174 H2186 0.956 . S
C2174 H2187 0.961 . S
C2174 H2188 0.961 . S
C2175 C2172 1.539 . S
C2175 H2189 0.958 . S
C2175 H2190 0.961 . S
C2175 H2191 0.960 . S
H2176 C2160 0.931 . S
H2177 C2165 0.929 . S
H2178 C2166 0.960 . S
H2179 C2166 0.962 . S
H2180 C2166 0.960 . S
H2181 C2167 0.961 . S
H2182 C2167 0.961 . S
H2183 C2167 0.961 . S
H2184 C2168 0.931 . S
H2185 C2173 0.930 . S
H2186 C2174 0.956 . S
H2187 C2174 0.961 . S
H2188 C2174 0.961 . S
H2189 C2175 0.958 . S
H2190 C2175 0.961 . S
H2191 C2175 0.960 . S
C2192 C2193 1.391 . S
C2192 C2194 1.394 . S
C2192 H2208 0.931 . S
C2193 C2192 1.391 . S
C2193 C2197 1.376 . S
C2194 C2192 1.394 . S
C2194 C2195 1.369 . S
C2194 C2198 1.531 . S
C2195 C2194 1.369 . S
C2195 C2196 1.410 . S
C2195 C2203 1.503 . S
C2196 C2195 1.410 . S
C2196 C2197 1.392 . S
C2196 C2199 1.511 . S
C2197 C2193 1.376 . S
C2197 C2196 1.392 . S
C2197 H2209 0.929 . S
C2198 C2194 1.531 . S
C2198 H2210 0.960 . S
C2198 H2211 0.962 . S
C2198 H2212 0.960 . S
C2199 C2196 1.511 . S
C2199 H2213 0.961 . S
C2199 H2214 0.961 . S
C2199 H2215 0.961 . S
C2200 C2201 1.370 . S
C2200 C2202 1.363 . S
C2200 H2216 0.931 . S
C2201 C2200 1.370 . S
C2201 C2205 1.408 . S
C2202 C2200 1.363 . S
C2202 C2203 1.370 . S
C2202 C2206 1.524 . S
C2203 C2195 1.503 . S
C2203 C2202 1.370 . S
C2203 C2204 1.403 . S
C2204 C2203 1.403 . S
C2204 C2205 1.404 . S
C2204 C2207 1.539 . S
C2205 C2201 1.408 . S
C2205 C2204 1.404 . S
C2205 H2217 0.930 . S
C2206 C2202 1.524 . S
C2206 H2218 0.956 . S
C2206 H2219 0.961 . S
C2206 H2220 0.961 . S
C2207 C2204 1.539 . S
C2207 H2221 0.958 . S
C2207 H2222 0.961 . S
C2207 H2223 0.960 . S
H2208 C2192 0.931 . S
H2209 C2197 0.929 . S
H2210 C2198 0.960 . S
H2211 C2198 0.962 . S
H2212 C2198 0.960 . S
H2213 C2199 0.961 . S
H2214 C2199 0.961 . S
H2215 C2199 0.961 . S
H2216 C2200 0.931 . S
H2217 C2205 0.930 . S
H2218 C2206 0.956 . S
H2219 C2206 0.961 . S
H2220 C2206 0.961 . S
H2221 C2207 0.958 . S
H2222 C2207 0.961 . S
H2223 C2207 0.960 . S
C2224 C2225 1.391 . S
C2224 C2226 1.394 . S
C2224 H2240 0.931 . S
C2225 C2224 1.391 . S
C2225 C2229 1.376 . S
C2226 C2224 1.394 . S
C2226 C2227 1.369 . S
C2226 C2230 1.531 . S
C2227 C2226 1.369 . S
C2227 C2228 1.410 . S
C2227 C2235 1.503 . S
C2228 C2227 1.410 . S
C2228 C2229 1.392 . S
C2228 C2231 1.511 . S
C2229 C2225 1.376 . S
C2229 C2228 1.392 . S
C2229 H2241 0.929 . S
C2230 C2226 1.531 . S
C2230 H2242 0.960 . S
C2230 H2243 0.962 . S
C2230 H2244 0.960 . S
C2231 C2228 1.511 . S
C2231 H2245 0.961 . S
C2231 H2246 0.961 . S
C2231 H2247 0.961 . S
C2232 C2233 1.370 . S
C2232 C2234 1.363 . S
C2232 H2248 0.931 . S
C2233 C2232 1.370 . S
C2233 C2237 1.408 . S
C2234 C2232 1.363 . S
C2234 C2235 1.370 . S
C2234 C2238 1.524 . S
C2235 C2227 1.503 . S
C2235 C2234 1.370 . S
C2235 C2236 1.403 . S
C2236 C2235 1.403 . S
C2236 C2237 1.404 . S
C2236 C2239 1.539 . S
C2237 C2233 1.408 . S
C2237 C2236 1.404 . S
C2237 H2249 0.930 . S
C2238 C2234 1.524 . S
C2238 H2250 0.956 . S
C2238 H2251 0.961 . S
C2238 H2252 0.961 . S
C2239 C2236 1.539 . S
C2239 H2253 0.958 . S
C2239 H2254 0.961 . S
C2239 H2255 0.960 . S
H2240 C2224 0.931 . S
H2241 C2229 0.929 . S
H2242 C2230 0.960 . S
H2243 C2230 0.962 . S
H2244 C2230 0.960 . S
H2245 C2231 0.961 . S
H2246 C2231 0.961 . S
H2247 C2231 0.961 . S
H2248 C2232 0.931 . S
H2249 C2237 0.930 . S
H2250 C2238 0.956 . S
H2251 C2238 0.961 . S
H2252 C2238 0.961 . S
H2253 C2239 0.958 . S
H2254 C2239 0.961 . S
H2255 C2239 0.960 . S
C2256 C2257 1.391 . S
C2256 C2258 1.394 . S
C2256 H2272 0.931 . S
C2257 C2256 1.391 . S
C2257 C2261 1.376 . S
C2258 C2256 1.394 . S
C2258 C2259 1.369 . S
C2258 C2262 1.531 . S
C2259 C2258 1.369 . S
C2259 C2260 1.410 . S
C2259 C2267 1.503 . S
C2260 C2259 1.410 . S
C2260 C2261 1.392 . S
C2260 C2263 1.511 . S
C2261 C2257 1.376 . S
C2261 C2260 1.392 . S
C2261 H2273 0.929 . S
C2262 C2258 1.531 . S
C2262 H2274 0.960 . S
C2262 H2275 0.962 . S
C2262 H2276 0.960 . S
C2263 C2260 1.511 . S
C2263 H2277 0.961 . S
C2263 H2278 0.961 . S
C2263 H2279 0.961 . S
C2264 C2265 1.370 . S
C2264 C2266 1.363 . S
C2264 H2280 0.931 . S
C2265 C2264 1.370 . S
C2265 C2269 1.408 . S
C2266 C2264 1.363 . S
C2266 C2267 1.370 . S
C2266 C2270 1.524 . S
C2267 C2259 1.503 . S
C2267 C2266 1.370 . S
C2267 C2268 1.403 . S
C2268 C2267 1.403 . S
C2268 C2269 1.404 . S
C2268 C2271 1.539 . S
C2269 C2265 1.408 . S
C2269 C2268 1.404 . S
C2269 H2281 0.930 . S
C2270 C2266 1.524 . S
C2270 H2282 0.956 . S
C2270 H2283 0.961 . S
C2270 H2284 0.961 . S
C2271 C2268 1.539 . S
C2271 H2285 0.958 . S
C2271 H2286 0.961 . S
C2271 H2287 0.960 . S
H2272 C2256 0.931 . S
H2273 C2261 0.929 . S
H2274 C2262 0.960 . S
H2275 C2262 0.962 . S
H2276 C2262 0.960 . S
H2277 C2263 0.961 . S
H2278 C2263 0.961 . S
H2279 C2263 0.961 . S
H2280 C2264 0.931 . S
H2281 C2269 0.930 . S
H2282 C2270 0.956 . S
H2283 C2270 0.961 . S
H2284 C2270 0.961 . S
H2285 C2271 0.958 . S
H2286 C2271 0.961 . S
H2287 C2271 0.960 . S
C2288 C2289 1.391 . S
C2288 C2290 1.394 . S
C2288 H2304 0.931 . S
C2289 C2288 1.391 . S
C2289 C2293 1.376 . S
C2290 C2288 1.394 . S
C2290 C2291 1.369 . S
C2290 C2294 1.531 . S
C2291 C2290 1.369 . S
C2291 C2292 1.410 . S
C2291 C2299 1.503 . S
C2292 C2291 1.410 . S
C2292 C2293 1.392 . S
C2292 C2295 1.511 . S
C2293 C2289 1.376 . S
C2293 C2292 1.392 . S
C2293 H2305 0.929 . S
C2294 C2290 1.531 . S
C2294 H2306 0.960 . S
C2294 H2307 0.962 . S
C2294 H2308 0.960 . S
C2295 C2292 1.511 . S
C2295 H2309 0.961 . S
C2295 H2310 0.961 . S
C2295 H2311 0.961 . S
C2296 C2297 1.370 . S
C2296 C2298 1.363 . S
C2296 H2312 0.931 . S
C2297 C2296 1.370 . S
C2297 C2301 1.408 . S
C2298 C2296 1.363 . S
C2298 C2299 1.370 . S
C2298 C2302 1.524 . S
C2299 C2291 1.503 . S
C2299 C2298 1.370 . S
C2299 C2300 1.403 . S
C2300 C2299 1.403 . S
C2300 C2301 1.404 . S
C2300 C2303 1.539 . S
C2301 C2297 1.408 . S
C2301 C2300 1.404 . S
C2301 H2313 0.930 . S
C2302 C2298 1.524 . S
C2302 H2314 0.956 . S
C2302 H2315 0.961 . S
C2302 H2316 0.961 . S
C2303 C2300 1.539 . S
C2303 H2317 0.958 . S
C2303 H2318 0.961 . S
C2303 H2319 0.960 . S
H2304 C2288 0.931 . S
H2305 C2293 0.929 . S
H2306 C2294 0.960 . S
H2307 C2294 0.962 . S
H2308 C2294 0.960 . S
H2309 C2295 0.961 . S
H2310 C2295 0.961 . S
H2311 C2295 0.961 . S
H2312 C2296 0.931 . S
H2313 C2301 0.930 . S
H2314 C2302 0.956 . S
H2315 C2302 0.961 . S
H2316 C2302 0.961 . S
H2317 C2303 0.958 . S
H2318 C2303 0.961 . S
H2319 C2303 0.960 . S
C2320 C2321 1.391 . S
C2320 C2322 1.394 . S
C2320 H2336 0.931 . S
C2321 C2320 1.391 . S
C2321 C2325 1.376 . S
C2322 C2320 1.394 . S
C2322 C2323 1.369 . S
C2322 C2326 1.531 . S
C2323 C2322 1.369 . S
C2323 C2324 1.410 . S
C2323 C2331 1.503 . S
C2324 C2323 1.410 . S
C2324 C2325 1.392 . S
C2324 C2327 1.511 . S
C2325 C2321 1.376 . S
C2325 C2324 1.392 . S
C2325 H2337 0.929 . S
C2326 C2322 1.531 . S
C2326 H2338 0.960 . S
C2326 H2339 0.962 . S
C2326 H2340 0.960 . S
C2327 C2324 1.511 . S
C2327 H2341 0.961 . S
C2327 H2342 0.961 . S
C2327 H2343 0.961 . S
C2328 C2329 1.370 . S
C2328 C2330 1.363 . S
C2328 H2344 0.931 . S
C2329 C2328 1.370 . S
C2329 C2333 1.408 . S
C2330 C2328 1.363 . S
C2330 C2331 1.370 . S
C2330 C2334 1.524 . S
C2331 C2323 1.503 . S
C2331 C2330 1.370 . S
C2331 C2332 1.403 . S
C2332 C2331 1.403 . S
C2332 C2333 1.404 . S
C2332 C2335 1.539 . S
C2333 C2329 1.408 . S
C2333 C2332 1.404 . S
C2333 H2345 0.930 . S
C2334 C2330 1.524 . S
C2334 H2346 0.956 . S
C2334 H2347 0.961 . S
C2334 H2348 0.961 . S
C2335 C2332 1.539 . S
C2335 H2349 0.958 . S
C2335 H2350 0.961 . S
C2335 H2351 0.960 . S
H2336 C2320 0.931 . S
H2337 C2325 0.929 . S
H2338 C2326 0.960 . S
H2339 C2326 0.962 . S
H2340 C2326 0.960 . S
H2341 C2327 0.961 . S
H2342 C2327 0.961 . S
H2343 C2327 0.961 . S
H2344 C2328 0.931 . S
H2345 C2333 0.930 . S
H2346 C2334 0.956 . S
H2347 C2334 0.961 . S
H2348 C2334 0.961 . S
H2349 C2335 0.958 . S
H2350 C2335 0.961 . S
H2351 C2335 0.960 . S
C2352 C2353 1.391 . S
C2352 C2354 1.394 . S
C2352 H2368 0.931 . S
C2353 C2352 1.391 . S
C2353 C2357 1.376 . S
C2354 C2352 1.394 . S
C2354 C2355 1.369 . S
C2354 C2358 1.531 . S
C2355 C2354 1.369 . S
C2355 C2356 1.410 . S
C2355 C2363 1.503 . S
C2356 C2355 1.410 . S
C2356 C2357 1.392 . S
C2356 C2359 1.511 . S
C2357 C2353 1.376 . S
C2357 C2356 1.392 . S
C2357 H2369 0.929 . S
C2358 C2354 1.531 . S
C2358 H2370 0.960 . S
C2358 H2371 0.962 . S
C2358 H2372 0.960 . S
C2359 C2356 1.511 . S
C2359 H2373 0.961 . S
C2359 H2374 0.961 . S
C2359 H2375 0.961 . S
C2360 C2361 1.370 . S
C2360 C2362 1.363 . S
C2360 H2376 0.931 . S
C2361 C2360 1.370 . S
C2361 C2365 1.408 . S
C2362 C2360 1.363 . S
C2362 C2363 1.370 . S
C2362 C2366 1.524 . S
C2363 C2355 1.503 . S
C2363 C2362 1.370 . S
C2363 C2364 1.403 . S
C2364 C2363 1.403 . S
C2364 C2365 1.404 . S
C2364 C2367 1.539 . S
C2365 C2361 1.408 . S
C2365 C2364 1.404 . S
C2365 H2377 0.930 . S
C2366 C2362 1.524 . S
C2366 H2378 0.956 . S
C2366 H2379 0.961 . S
C2366 H2380 0.961 . S
C2367 C2364 1.539 . S
C2367 H2381 0.958 . S
C2367 H2382 0.961 . S
C2367 H2383 0.960 . S
H2368 C2352 0.931 . S
H2369 C2357 0.929 . S
H2370 C2358 0.960 . S
H2371 C2358 0.962 . S
H2372 C2358 0.960 . S
H2373 C2359 0.961 . S
H2374 C2359 0.961 . S
H2375 C2359 0.961 . S
H2376 C2360 0.931 . S
H2377 C2365 0.930 . S
H2378 C2366 0.956 . S
H2379 C2366 0.961 . S
H2380 C2366 0.961 . S
H2381 C2367 0.958 . S
H2382 C2367 0.961 . S
H2383 C2367 0.960 . S
C2384 C2385 1.391 . S
C2384 C2386 1.394 . S
C2384 H2400 0.931 . S
C2385 C2384 1.391 . S
C2385 C2389 1.376 . S
C2386 C2384 1.394 . S
C2386 C2387 1.369 . S
C2386 C2390 1.531 . S
C2387 C2386 1.369 . S
C2387 C2388 1.410 . S
C2387 C2395 1.503 . S
C2388 C2387 1.410 . S
C2388 C2389 1.392 . S
C2388 C2391 1.511 . S
C2389 C2385 1.376 . S
C2389 C2388 1.392 . S
C2389 H2401 0.929 . S
C2390 C2386 1.531 . S
C2390 H2402 0.960 . S
C2390 H2403 0.962 . S
C2390 H2404 0.960 . S
C2391 C2388 1.511 . S
C2391 H2405 0.961 . S
C2391 H2406 0.961 . S
C2391 H2407 0.961 . S
C2392 C2393 1.370 . S
C2392 C2394 1.363 . S
C2392 H2408 0.931 . S
C2393 C2392 1.370 . S
C2393 C2397 1.408 . S
C2394 C2392 1.363 . S
C2394 C2395 1.370 . S
C2394 C2398 1.524 . S
C2395 C2387 1.503 . S
C2395 C2394 1.370 . S
C2395 C2396 1.403 . S
C2396 C2395 1.403 . S
C2396 C2397 1.404 . S
C2396 C2399 1.539 . S
C2397 C2393 1.408 . S
C2397 C2396 1.404 . S
C2397 H2409 0.930 . S
C2398 C2394 1.524 . S
C2398 H2410 0.956 . S
C2398 H2411 0.961 . S
C2398 H2412 0.961 . S
C2399 C2396 1.539 . S
C2399 H2413 0.958 . S
C2399 H2414 0.961 . S
C2399 H2415 0.960 . S
H2400 C2384 0.931 . S
H2401 C2389 0.929 . S
H2402 C2390 0.960 . S
H2403 C2390 0.962 . S
H2404 C2390 0.960 . S
H2405 C2391 0.961 . S
H2406 C2391 0.961 . S
H2407 C2391 0.961 . S
H2408 C2392 0.931 . S
H2409 C2397 0.930 . S
H2410 C2398 0.956 . S
H2411 C2398 0.961 . S
H2412 C2398 0.961 . S
H2413 C2399 0.958 . S
H2414 C2399 0.961 . S
H2415 C2399 0.960 . S
C2416 C2417 1.391 . S
C2416 C2418 1.394 . S
C2416 H2432 0.931 . S
C2417 C2416 1.391 . S
C2417 C2421 1.376 . S
C2418 C2416 1.394 . S
C2418 C2419 1.369 . S
C2418 C2422 1.531 . S
C2419 C2418 1.369 . S
C2419 C2420 1.410 . S
C2419 C2427 1.503 . S
C2420 C2419 1.410 . S
C2420 C2421 1.392 . S
C2420 C2423 1.511 . S
C2421 C2417 1.376 . S
C2421 C2420 1.392 . S
C2421 H2433 0.929 . S
C2422 C2418 1.531 . S
C2422 H2434 0.960 . S
C2422 H2435 0.962 . S
C2422 H2436 0.960 . S
C2423 C2420 1.511 . S
C2423 H2437 0.961 . S
C2423 H2438 0.961 . S
C2423 H2439 0.961 . S
C2424 C2425 1.370 . S
C2424 C2426 1.363 . S
C2424 H2440 0.931 . S
C2425 C2424 1.370 . S
C2425 C2429 1.408 . S
C2426 C2424 1.363 . S
C2426 C2427 1.370 . S
C2426 C2430 1.524 . S
C2427 C2419 1.503 . S
C2427 C2426 1.370 . S
C2427 C2428 1.403 . S
C2428 C2427 1.403 . S
C2428 C2429 1.404 . S
C2428 C2431 1.539 . S
C2429 C2425 1.408 . S
C2429 C2428 1.404 . S
C2429 H2441 0.930 . S
C2430 C2426 1.524 . S
C2430 H2442 0.956 . S
C2430 H2443 0.961 . S
C2430 H2444 0.961 . S
C2431 C2428 1.539 . S
C2431 H2445 0.958 . S
C2431 H2446 0.961 . S
C2431 H2447 0.960 . S
H2432 C2416 0.931 . S
H2433 C2421 0.929 . S
H2434 C2422 0.960 . S
H2435 C2422 0.962 . S
H2436 C2422 0.960 . S
H2437 C2423 0.961 . S
H2438 C2423 0.961 . S
H2439 C2423 0.961 . S
H2440 C2424 0.931 . S
H2441 C2429 0.930 . S
H2442 C2430 0.956 . S
H2443 C2430 0.961 . S
H2444 C2430 0.961 . S
H2445 C2431 0.958 . S
H2446 C2431 0.961 . S
H2447 C2431 0.960 . S
C2448 C2449 1.391 . S
C2448 C2450 1.394 . S
C2448 H2464 0.931 . S
C2449 C2448 1.391 . S
C2449 C2453 1.376 . S
C2450 C2448 1.394 . S
C2450 C2451 1.369 . S
C2450 C2454 1.531 . S
C2451 C2450 1.369 . S
C2451 C2452 1.410 . S
C2451 C2459 1.503 1_554 S
C2452 C2451 1.410 . S
C2452 C2453 1.392 . S
C2452 C2455 1.511 . S
C2453 C2449 1.376 . S
C2453 C2452 1.392 . S
C2453 H2465 0.929 . S
C2454 C2450 1.531 . S
C2454 H2466 0.960 . S
C2454 H2467 0.962 . S
C2454 H2468 0.960 . S
C2455 C2452 1.511 . S
C2455 H2469 0.961 . S
C2455 H2470 0.961 1_554 S
C2455 H2471 0.969 . S
C2456 C2457 1.370 . S
C2456 C2458 1.363 . S
C2456 H2472 0.931 . S
C2457 C2456 1.370 . S
C2457 C2461 1.408 . S
C2458 C2456 1.363 . S
C2458 C2459 1.370 . S
C2458 C2462 1.524 . S
C2459 C2451 1.503 1_556 S
C2459 C2458 1.370 . S
C2459 C2460 1.403 . S
C2460 C2459 1.403 . S
C2460 C2461 1.404 . S
C2460 C2463 1.539 . S
C2461 C2457 1.408 . S
C2461 C2460 1.404 . S
C2461 H2473 0.930 . S
C2462 C2458 1.524 . S
C2462 H2474 0.956 1_556 S
C2462 H2475 0.958 . S
C2462 H2476 0.961 . S
C2463 C2460 1.539 . S
C2463 H2477 0.958 . S
C2463 H2478 0.961 . S
C2463 H2479 0.960 . S
H2464 C2448 0.931 . S
H2465 C2453 0.929 . S
H2466 C2454 0.960 . S
H2467 C2454 0.962 . S
H2468 C2454 0.960 . S
H2469 C2455 0.961 . S
H2470 C2455 0.961 1_556 S
H2471 C2455 0.969 . S
H2472 C2456 0.931 . S
H2473 C2461 0.930 . S
H2474 C2462 0.956 1_554 S
H2475 C2462 0.958 . S
H2476 C2462 0.961 . S
H2477 C2463 0.958 . S
H2478 C2463 0.961 . S
H2479 C2463 0.960 . S
C2480 C2481 1.391 1_565 S
C2480 C2482 1.394 . S
C2480 H2496 0.931 . S
C2481 C2480 1.391 1_545 S
C2481 C2485 1.376 . S
C2482 C2480 1.394 . S
C2482 C2483 1.369 . S
C2482 C2486 1.531 . S
C2483 C2482 1.369 . S
C2483 C2484 1.410 1_565 S
C2483 C2491 1.503 1_556 S
C2484 C2483 1.410 1_545 S
C2484 C2485 1.392 . S
C2484 C2487 1.511 . S
C2485 C2481 1.376 . S
C2485 C2484 1.392 . S
C2485 H2497 0.929 . S
C2486 C2482 1.531 . S
C2486 H2498 0.960 . S
C2486 H2499 0.962 . S
C2486 H2500 0.960 . S
C2487 C2484 1.511 . S
C2487 H2501 0.961 . S
C2487 H2502 0.913 1_556 S
C2487 H2503 0.961 1_545 S
C2488 C2489 1.370 1_545 S
C2488 C2490 1.363 . S
C2488 H2504 0.931 . S
C2489 C2488 1.370 1_565 S
C2489 C2493 1.408 . S
C2490 C2488 1.363 . S
C2490 C2491 1.370 1_545 S
C2490 C2494 1.524 . S
C2491 C2483 1.503 1_554 S
C2491 C2490 1.370 1_565 S
C2491 C2492 1.403 . S
C2492 C2491 1.403 . S
C2492 C2493 1.404 . S
C2492 C2495 1.539 . S
C2493 C2489 1.408 . S
C2493 C2492 1.404 . S
C2493 H2505 0.930 . S
C2494 C2490 1.524 . S
C2494 H2506 0.937 1_554 S
C2494 H2507 0.915 1_554 S
C2494 H2508 0.961 . S
C2495 C2492 1.539 . S
C2495 H2509 0.958 . S
C2495 H2510 0.961 . S
C2495 H2511 0.960 1_554 S
H2496 C2480 0.931 . S
H2497 C2485 0.929 . S
H2498 C2486 0.960 . S
H2499 C2486 0.962 . S
H2500 C2486 0.960 . S
H2501 C2487 0.961 . S
H2502 C2487 0.913 1_554 S
H2503 C2487 0.961 1_565 S
H2504 C2488 0.931 . S
H2505 C2493 0.930 . S
H2506 C2494 0.937 1_556 S
H2507 C2494 0.915 1_556 S
H2508 C2494 0.961 . S
H2509 C2495 0.958 . S
H2510 C2495 0.961 . S
H2511 C2495 0.960 1_556 S
C2512 C2513 1.391 . S
C2512 C2514 1.394 . S
C2512 H2528 0.931 . S
C2513 C2512 1.391 . S
C2513 C2517 1.376 1_655 S
C2514 C2512 1.394 . S
C2514 C2515 1.369 . S
C2514 C2518 1.531 . S
C2515 C2514 1.369 . S
C2515 C2516 1.410 1_655 S
C2515 C2523 1.502 1_656 S
C2516 C2515 1.410 1_455 S
C2516 C2517 1.392 . S
C2516 C2519 1.511 . S
C2517 C2513 1.376 1_455 S
C2517 C2516 1.392 . S
C2517 H2529 0.929 . S
C2518 C2514 1.531 . S
C2518 H2530 0.960 1_556 S
C2518 H2531 0.965 . S
C2518 H2532 0.960 . S
C2519 C2516 1.511 . S
C2519 H2533 0.961 . S
C2519 H2534 0.961 1_556 S
C2519 H2535 0.961 . S
C2520 C2521 1.370 . S
C2520 C2522 1.363 . S
C2520 H2536 0.931 . S
C2521 C2520 1.370 . S
C2521 C2525 1.408 . S
C2522 C2520 1.363 . S
C2522 C2523 1.355 . S
C2522 C2526 1.524 . S
C2523 C2515 1.502 1_454 S
C2523 C2522 1.355 . S
C2523 C2524 1.414 . S
C2524 C2523 1.414 . S
C2524 C2525 1.404 . S
C2524 C2527 1.570 1_455 S
C2525 C2521 1.408 . S
C2525 C2524 1.404 . S
C2525 H2537 0.930 . S
C2526 C2522 1.524 . S
C2526 H2538 0.956 1_455 S
C2526 H2539 0.958 1_554 S
C2526 H2540 0.961 . S
C2527 C2524 1.570 1_655 S
C2527 H2541 0.996 . S
C2527 H2542 0.920 1_655 S
C2527 H2543 0.943 1_655 S
H2528 C2512 0.931 . S
H2529 C2517 0.929 . S
H2530 C2518 0.960 1_554 S
H2531 C2518 0.965 . S
H2532 C2518 0.960 . S
H2533 C2519 0.961 . S
H2534 C2519 0.961 1_554 S
H2535 C2519 0.961 . S
H2536 C2520 0.931 . S
H2537 C2525 0.930 . S
H2538 C2526 0.956 1_655 S
H2539 C2526 0.958 1_556 S
H2540 C2526 0.961 . S
H2541 C2527 0.996 . S
H2542 C2527 0.920 1_455 S
H2543 C2527 0.943 1_455 S
C2544 C2545 1.391 . S
C2544 C2546 1.394 . S
C2544 H2560 0.931 . S
C2545 C2544 1.391 . S
C2545 C2549 1.376 . S
C2546 C2544 1.394 . S
C2546 C2547 1.369 . S
C2546 C2550 1.531 . S
C2547 C2546 1.369 . S
C2547 C2548 1.410 . S
C2547 C2555 1.503 . S
C2548 C2547 1.410 . S
C2548 C2549 1.392 . S
C2548 C2551 1.511 . S
C2549 C2545 1.376 . S
C2549 C2548 1.392 . S
C2549 H2561 0.929 . S
C2550 C2546 1.531 . S
C2550 H2562 0.960 . S
C2550 H2563 0.962 . S
C2550 H2564 0.960 . S
C2551 C2548 1.511 . S
C2551 H2565 0.961 . S
C2551 H2566 0.961 . S
C2551 H2567 0.961 . S
C2552 C2553 1.370 . S
C2552 C2554 1.363 . S
C2552 H2568 0.931 . S
C2553 C2552 1.370 . S
C2553 C2557 1.408 . S
C2554 C2552 1.363 . S
C2554 C2555 1.370 . S
C2554 C2558 1.524 . S
C2555 C2547 1.503 . S
C2555 C2554 1.370 . S
C2555 C2556 1.403 . S
C2556 C2555 1.403 . S
C2556 C2557 1.404 . S
C2556 C2559 1.539 . S
C2557 C2553 1.408 . S
C2557 C2556 1.404 . S
C2557 H2569 0.930 . S
C2558 C2554 1.524 . S
C2558 H2570 0.956 . S
C2558 H2571 0.961 . S
C2558 H2572 0.961 . S
C2559 C2556 1.539 . S
C2559 H2573 0.958 . S
C2559 H2574 0.961 . S
C2559 H2575 0.960 . S
H2560 C2544 0.931 . S
H2561 C2549 0.929 . S
H2562 C2550 0.960 . S
H2563 C2550 0.962 . S
H2564 C2550 0.960 . S
H2565 C2551 0.961 . S
H2566 C2551 0.961 . S
H2567 C2551 0.961 . S
H2568 C2552 0.931 . S
H2569 C2557 0.930 . S
H2570 C2558 0.956 . S
H2571 C2558 0.961 . S
H2572 C2558 0.961 . S
H2573 C2559 0.958 . S
H2574 C2559 0.961 . S
H2575 C2559 0.960 . S
C2576 C2577 1.391 . S
C2576 C2578 1.394 . S
C2576 H2592 0.931 . S
C2577 C2576 1.391 . S
C2577 C2581 1.376 . S
C2578 C2576 1.394 . S
C2578 C2579 1.369 . S
C2578 C2582 1.531 . S
C2579 C2578 1.369 . S
C2579 C2580 1.410 . S
C2579 C2587 1.503 . S
C2580 C2579 1.410 . S
C2580 C2581 1.392 . S
C2580 C2583 1.511 . S
C2581 C2577 1.376 . S
C2581 C2580 1.392 . S
C2581 H2593 0.929 . S
C2582 C2578 1.531 . S
C2582 H2594 0.960 . S
C2582 H2595 0.962 . S
C2582 H2596 0.960 . S
C2583 C2580 1.511 . S
C2583 H2597 0.961 . S
C2583 H2598 0.961 . S
C2583 H2599 0.961 . S
C2584 C2585 1.370 . S
C2584 C2586 1.363 . S
C2584 H2600 0.931 . S
C2585 C2584 1.370 . S
C2585 C2589 1.408 . S
C2586 C2584 1.363 . S
C2586 C2587 1.370 . S
C2586 C2590 1.524 . S
C2587 C2579 1.503 . S
C2587 C2586 1.370 . S
C2587 C2588 1.403 . S
C2588 C2587 1.403 . S
C2588 C2589 1.404 . S
C2588 C2591 1.539 . S
C2589 C2585 1.408 . S
C2589 C2588 1.404 . S
C2589 H2601 0.930 . S
C2590 C2586 1.524 . S
C2590 H2602 0.956 . S
C2590 H2603 0.961 . S
C2590 H2604 0.961 . S
C2591 C2588 1.539 . S
C2591 H2605 0.958 . S
C2591 H2606 0.961 . S
C2591 H2607 0.960 . S
H2592 C2576 0.931 . S
H2593 C2581 0.929 . S
H2594 C2582 0.960 . S
H2595 C2582 0.962 . S
H2596 C2582 0.960 . S
H2597 C2583 0.961 . S
H2598 C2583 0.961 . S
H2599 C2583 0.961 . S
H2600 C2584 0.931 . S
H2601 C2589 0.930 . S
H2602 C2590 0.956 . S
H2603 C2590 0.961 . S
H2604 C2590 0.961 . S
H2605 C2591 0.958 . S
H2606 C2591 0.961 . S
H2607 C2591 0.960 . S
C2608 C2609 1.391 . S
C2608 C2610 1.394 . S
C2608 H2624 0.931 . S
C2609 C2608 1.391 . S
C2609 C2613 1.376 . S
C2610 C2608 1.394 . S
C2610 C2611 1.369 . S
C2610 C2614 1.531 . S
C2611 C2610 1.369 . S
C2611 C2612 1.410 . S
C2611 C2619 1.503 . S
C2612 C2611 1.410 . S
C2612 C2613 1.392 . S
C2612 C2615 1.511 . S
C2613 C2609 1.376 . S
C2613 C2612 1.392 . S
C2613 H2625 0.929 . S
C2614 C2610 1.531 . S
C2614 H2626 0.960 . S
C2614 H2627 0.962 . S
C2614 H2628 0.960 . S
C2615 C2612 1.511 . S
C2615 H2629 0.961 . S
C2615 H2630 0.961 . S
C2615 H2631 0.961 . S
C2616 C2617 1.370 . S
C2616 C2618 1.363 . S
C2616 H2632 0.931 . S
C2617 C2616 1.370 . S
C2617 C2621 1.408 . S
C2618 C2616 1.363 . S
C2618 C2619 1.370 . S
C2618 C2622 1.524 . S
C2619 C2611 1.503 . S
C2619 C2618 1.370 . S
C2619 C2620 1.403 . S
C2620 C2619 1.403 . S
C2620 C2621 1.404 . S
C2620 C2623 1.539 . S
C2621 C2617 1.408 . S
C2621 C2620 1.404 . S
C2621 H2633 0.930 . S
C2622 C2618 1.524 . S
C2622 H2634 0.956 . S
C2622 H2635 0.961 . S
C2622 H2636 0.961 . S
C2623 C2620 1.539 . S
C2623 H2637 0.958 . S
C2623 H2638 0.961 . S
C2623 H2639 0.960 . S
H2624 C2608 0.931 . S
H2625 C2613 0.929 . S
H2626 C2614 0.960 . S
H2627 C2614 0.962 . S
H2628 C2614 0.960 . S
H2629 C2615 0.961 . S
H2630 C2615 0.961 . S
H2631 C2615 0.961 . S
H2632 C2616 0.931 . S
H2633 C2621 0.930 . S
H2634 C2622 0.956 . S
H2635 C2622 0.961 . S
H2636 C2622 0.961 . S
H2637 C2623 0.958 . S
H2638 C2623 0.961 . S
H2639 C2623 0.960 . S
C2640 C2641 1.391 . S
C2640 C2642 1.394 . S
C2640 H2656 0.931 . S
C2641 C2640 1.391 . S
C2641 C2645 1.376 . S
C2642 C2640 1.394 . S
C2642 C2643 1.369 . S
C2642 C2646 1.531 . S
C2643 C2642 1.369 . S
C2643 C2644 1.410 . S
C2643 C2651 1.503 . S
C2644 C2643 1.410 . S
C2644 C2645 1.392 . S
C2644 C2647 1.511 . S
C2645 C2641 1.376 . S
C2645 C2644 1.392 . S
C2645 H2657 0.929 . S
C2646 C2642 1.531 . S
C2646 H2658 0.960 . S
C2646 H2659 0.962 . S
C2646 H2660 0.960 . S
C2647 C2644 1.511 . S
C2647 H2661 0.961 . S
C2647 H2662 0.961 . S
C2647 H2663 0.961 . S
C2648 C2649 1.370 . S
C2648 C2650 1.363 . S
C2648 H2664 0.931 . S
C2649 C2648 1.370 . S
C2649 C2653 1.408 . S
C2650 C2648 1.363 . S
C2650 C2651 1.370 . S
C2650 C2654 1.524 . S
C2651 C2643 1.503 . S
C2651 C2650 1.370 . S
C2651 C2652 1.403 . S
C2652 C2651 1.403 . S
C2652 C2653 1.404 . S
C2652 C2655 1.539 . S
C2653 C2649 1.408 . S
C2653 C2652 1.404 . S
C2653 H2665 0.930 . S
C2654 C2650 1.524 . S
C2654 H2666 0.956 . S
C2654 H2667 0.961 . S
C2654 H2668 0.961 . S
C2655 C2652 1.539 . S
C2655 H2669 0.958 . S
C2655 H2670 0.961 . S
C2655 H2671 0.960 . S
H2656 C2640 0.931 . S
H2657 C2645 0.929 . S
H2658 C2646 0.960 . S
H2659 C2646 0.962 . S
H2660 C2646 0.960 . S
H2661 C2647 0.961 . S
H2662 C2647 0.961 . S
H2663 C2647 0.961 . S
H2664 C2648 0.931 . S
H2665 C2653 0.930 . S
H2666 C2654 0.956 . S
H2667 C2654 0.961 . S
H2668 C2654 0.961 . S
H2669 C2655 0.958 . S
H2670 C2655 0.961 . S
H2671 C2655 0.960 . S
C2672 C2673 1.391 . S
C2672 C2674 1.394 . S
C2672 H2688 0.931 . S
C2673 C2672 1.391 . S
C2673 C2677 1.376 . S
C2674 C2672 1.394 . S
C2674 C2675 1.369 . S
C2674 C2678 1.531 . S
C2675 C2674 1.369 . S
C2675 C2676 1.410 . S
C2675 C2683 1.503 . S
C2676 C2675 1.410 . S
C2676 C2677 1.392 . S
C2676 C2679 1.511 . S
C2677 C2673 1.376 . S
C2677 C2676 1.392 . S
C2677 H2689 0.929 . S
C2678 C2674 1.531 . S
C2678 H2690 0.960 . S
C2678 H2691 0.962 . S
C2678 H2692 0.960 . S
C2679 C2676 1.511 . S
C2679 H2693 0.961 . S
C2679 H2694 0.961 . S
C2679 H2695 0.961 . S
C2680 C2681 1.370 . S
C2680 C2682 1.363 . S
C2680 H2696 0.931 . S
C2681 C2680 1.370 . S
C2681 C2685 1.408 . S
C2682 C2680 1.363 . S
C2682 C2683 1.370 . S
C2682 C2686 1.524 . S
C2683 C2675 1.503 . S
C2683 C2682 1.370 . S
C2683 C2684 1.403 . S
C2684 C2683 1.403 . S
C2684 C2685 1.404 . S
C2684 C2687 1.539 . S
C2685 C2681 1.408 . S
C2685 C2684 1.404 . S
C2685 H2697 0.930 . S
C2686 C2682 1.524 . S
C2686 H2698 0.956 . S
C2686 H2699 0.961 . S
C2686 H2700 0.961 . S
C2687 C2684 1.539 . S
C2687 H2701 0.958 . S
C2687 H2702 0.961 . S
C2687 H2703 0.960 . S
H2688 C2672 0.931 . S
H2689 C2677 0.929 . S
H2690 C2678 0.960 . S
H2691 C2678 0.962 . S
H2692 C2678 0.960 . S
H2693 C2679 0.961 . S
H2694 C2679 0.961 . S
H2695 C2679 0.961 . S
H2696 C2680 0.931 . S
H2697 C2685 0.930 . S
H2698 C2686 0.956 . S
H2699 C2686 0.961 . S
H2700 C2686 0.961 . S
H2701 C2687 0.958 . S
H2702 C2687 0.961 . S
H2703 C2687 0.960 . S
C2704 C2705 1.391 . S
C2704 C2706 1.394 . S
C2704 H2720 0.931 . S
C2705 C2704 1.391 . S
C2705 C2709 1.376 . S
C2706 C2704 1.394 . S
C2706 C2707 1.369 . S
C2706 C2710 1.531 . S
C2707 C2706 1.369 . S
C2707 C2708 1.410 . S
C2707 C2715 1.503 . S
C2708 C2707 1.410 . S
C2708 C2709 1.392 . S
C2708 C2711 1.511 . S
C2709 C2705 1.376 . S
C2709 C2708 1.392 . S
C2709 H2721 0.929 . S
C2710 C2706 1.531 . S
C2710 H2722 0.960 . S
C2710 H2723 0.962 . S
C2710 H2724 0.960 . S
C2711 C2708 1.511 . S
C2711 H2725 0.961 . S
C2711 H2726 0.961 . S
C2711 H2727 0.961 . S
C2712 C2713 1.370 . S
C2712 C2714 1.363 . S
C2712 H2728 0.931 . S
C2713 C2712 1.370 . S
C2713 C2717 1.408 . S
C2714 C2712 1.363 . S
C2714 C2715 1.370 . S
C2714 C2718 1.524 . S
C2715 C2707 1.503 . S
C2715 C2714 1.370 . S
C2715 C2716 1.403 . S
C2716 C2715 1.403 . S
C2716 C2717 1.404 . S
C2716 C2719 1.539 . S
C2717 C2713 1.408 . S
C2717 C2716 1.404 . S
C2717 H2729 0.930 . S
C2718 C2714 1.524 . S
C2718 H2730 0.956 . S
C2718 H2731 0.961 . S
C2718 H2732 0.961 . S
C2719 C2716 1.539 . S
C2719 H2733 0.958 . S
C2719 H2734 0.961 . S
C2719 H2735 0.960 . S
H2720 C2704 0.931 . S
H2721 C2709 0.929 . S
H2722 C2710 0.960 . S
H2723 C2710 0.962 . S
H2724 C2710 0.960 . S
H2725 C2711 0.961 . S
H2726 C2711 0.961 . S
H2727 C2711 0.961 . S
H2728 C2712 0.931 . S
H2729 C2717 0.930 . S
H2730 C2718 0.956 . S
H2731 C2718 0.961 . S
H2732 C2718 0.961 . S
H2733 C2719 0.958 . S
H2734 C2719 0.961 . S
H2735 C2719 0.960 . S
C1585 C900 0.803 . S
C1593 C29 0.785 . S
C1617 C145 0.751 . S
C1625 C1017 0.755 . S
C1649 C812 0.772 . S
C1657 C233 0.763 . S
C1681 C1289 0.778 . S
C1689 C284 0.766 . S
C1713 C372 0.730 . S
C1721 C1085 0.749 . S
C1745 C1201 0.752 . S
C1753 C497 0.738 . S
C1777 C548 0.834 . S
C1785 C1465 0.812 . S
C1809 C1545 0.764 . S
C1817 C673 0.778 . S
C1841 C761 0.799 . S
C1849 C1340 0.793 . S
C1873 C57 0.955 . S
C1881 C108 1.052 . S
C1905 C117 0.970 . S
C1913 C196 0.998 . S
C1937 C49 1.063 . S
C1945 C205 0.994 . S
C1969 C460 1.054 . S
C1977 C313 0.987 . S
C2001 C321 1.062 . S
C2009 C401 0.991 . S
C2033 C469 0.982 . S
C2041 C409 1.000 . S
C2065 C577 1.021 . S
C2073 C636 1.100 . S
C2097 C645 0.914 . S
C2105 C724 1.066 . S
C2129 C585 1.054 . S
C2137 C733 0.953 . S
C2161 C997 1.113 . S
C2169 C841 1.024 . S
C2193 C849 1.038 . S
C2201 C929 0.953 . S
C2225 C937 1.066 . S
C2233 C988 0.996 . S
C2257 C1164 1.112 . S
C2265 C1113 1.016 . S
C2289 C1252 1.069 . S
C2297 C1173 0.989 . S
C2321 C1105 1.045 . S
C2329 C1261 0.986 . S
C2353 C1369 0.975 . S
C2361 C1525 1.099 . S
C2385 C1437 1.038 . S
C2393 C1377 1.064 . S
C2417 C1516 0.974 . S
C2425 C1428 1.070 . S
C2449 C20 1.582 . S
C2457 C293 1.594 . S
C2481 C381 1.536 . S
C2489 C137 1.546 . S
C2513 C489 1.563 . S
C2521 C225 1.563 . S
C2545 C821 1.596 . S
C2553 C557 1.597 . S
C2577 C909 1.556 . S
C2585 C665 1.580 . S
C2609 C753 1.601 . S
C2617 C1025 1.612 . S
C2641 C1349 1.610 . S
C2649 C1076 1.598 . S
C2673 C1457 1.577 . S
C2681 C1193 1.600 . S
C2705 C1553 1.572 . S
C2713 C1281 1.587 . S
