# Generated by pormake.
# Topology tzs, (4)-cn, num edge types: 1
# Building blocks:
#     Node 0, Type 0, BuildingBlock: UXUYUI_clean_sbu_0, # of connection points: 4
#     Node 1, Type 0, BuildingBlock: UXUYUI_clean_sbu_0, # of connection points: 4
#     Node 2, Type 0, BuildingBlock: UXUYUI_clean_sbu_0, # of connection points: 4
#     Node 3, Type 0, BuildingBlock: UXUYUI_clean_sbu_0, # of connection points: 4
#     Node 4, Type 0, BuildingBlock: UXUYUI_clean_sbu_0, # of connection points: 4
#     Node 5, Type 0, BuildingBlock: UXUYUI_clean_sbu_0, # of connection points: 4
#     Node 6, Type 0, BuildingBlock: UXUYUI_clean_sbu_0, # of connection points: 4
#     Node 7, Type 0, BuildingBlock: UXUYUI_clean_sbu_0, # of connection points: 4
#     Node 8, Type 0, BuildingBlock: UXUYUI_clean_sbu_0, # of connection points: 4
#     Node 9, Type 0, BuildingBlock: UXUYUI_clean_sbu_0, # of connection points: 4
#     Node 10, Type 0, BuildingBlock: UXUYUI_clean_sbu_0, # of connection points: 4
#     Node 11, Type 0, BuildingBlock: UXUYUI_clean_sbu_0, # of connection points: 4
#     Node 12, Type 0, BuildingBlock: UXUYUI_clean_sbu_0, # of connection points: 4
#     Node 13, Type 0, BuildingBlock: UXUYUI_clean_sbu_0, # of connection points: 4
#     Node 14, Type 0, BuildingBlock: UXUYUI_clean_sbu_0, # of connection points: 4
#     Node 15, Type 0, BuildingBlock: UXUYUI_clean_sbu_0, # of connection points: 4
#     Edge 16, Type (0, 0), BuildingBlock: XIVTED_clean_linker_0, # of connection points: 2
#     Edge 17, Type (0, 0), BuildingBlock: XIVTED_clean_linker_0, # of connection points: 2
#     Edge 18, Type (0, 0), BuildingBlock: XIVTED_clean_linker_0, # of connection points: 2
#     Edge 19, Type (0, 0), BuildingBlock: XIVTED_clean_linker_0, # of connection points: 2
#     Edge 20, Type (0, 0), BuildingBlock: XIVTED_clean_linker_0, # of connection points: 2
#     Edge 21, Type (0, 0), BuildingBlock: XIVTED_clean_linker_0, # of connection points: 2
#     Edge 22, Type (0, 0), BuildingBlock: XIVTED_clean_linker_0, # of connection points: 2
#     Edge 23, Type (0, 0), BuildingBlock: XIVTED_clean_linker_0, # of connection points: 2
#     Edge 24, Type (0, 0), BuildingBlock: XIVTED_clean_linker_0, # of connection points: 2
#     Edge 25, Type (0, 0), BuildingBlock: XIVTED_clean_linker_0, # of connection points: 2
#     Edge 26, Type (0, 0), BuildingBlock: XIVTED_clean_linker_0, # of connection points: 2
#     Edge 27, Type (0, 0), BuildingBlock: XIVTED_clean_linker_0, # of connection points: 2
#     Edge 28, Type (0, 0), BuildingBlock: XIVTED_clean_linker_0, # of connection points: 2
#     Edge 29, Type (0, 0), BuildingBlock: XIVTED_clean_linker_0, # of connection points: 2
#     Edge 30, Type (0, 0), BuildingBlock: XIVTED_clean_linker_0, # of connection points: 2
#     Edge 31, Type (0, 0), BuildingBlock: XIVTED_clean_linker_0, # of connection points: 2
#     Edge 32, Type (0, 0), BuildingBlock: XIVTED_clean_linker_0, # of connection points: 2
#     Edge 33, Type (0, 0), BuildingBlock: XIVTED_clean_linker_0, # of connection points: 2
#     Edge 34, Type (0, 0), BuildingBlock: XIVTED_clean_linker_0, # of connection points: 2
#     Edge 35, Type (0, 0), BuildingBlock: XIVTED_clean_linker_0, # of connection points: 2
#     Edge 36, Type (0, 0), BuildingBlock: XIVTED_clean_linker_0, # of connection points: 2
#     Edge 37, Type (0, 0), BuildingBlock: XIVTED_clean_linker_0, # of connection points: 2
#     Edge 38, Type (0, 0), BuildingBlock: XIVTED_clean_linker_0, # of connection points: 2
#     Edge 39, Type (0, 0), BuildingBlock: XIVTED_clean_linker_0, # of connection points: 2
#     Edge 40, Type (0, 0), BuildingBlock: XIVTED_clean_linker_0, # of connection points: 2
#     Edge 41, Type (0, 0), BuildingBlock: XIVTED_clean_linker_0, # of connection points: 2
#     Edge 42, Type (0, 0), BuildingBlock: XIVTED_clean_linker_0, # of connection points: 2
#     Edge 43, Type (0, 0), BuildingBlock: XIVTED_clean_linker_0, # of connection points: 2
#     Edge 44, Type (0, 0), BuildingBlock: XIVTED_clean_linker_0, # of connection points: 2
#     Edge 45, Type (0, 0), BuildingBlock: XIVTED_clean_linker_0, # of connection points: 2
#     Edge 46, Type (0, 0), BuildingBlock: XIVTED_clean_linker_0, # of connection points: 2
#     Edge 47, Type (0, 0), BuildingBlock: XIVTED_clean_linker_0, # of connection points: 2
# Relax obj value: 0.120
# Max RMSD: 0.120
# Mean RMSD: 0.120
data_MOF--net-tzs--node1-UXUYUI_clean_sbu_0--edge1-XIVTED_clean_linker_0
_symmetry_space_group_name_H-M    P1
_symmetry_Int_Tables_number       1
_symmetry_cell_setting            triclinic
loop_
_symmetry_equiv_pos_as_xyz
'x, y, z'
_cell_length_a     70.670979
_cell_length_b     70.676547
_cell_length_c     60.869544
_cell_angle_alpha  89.994168
_cell_angle_beta   89.984933
_cell_angle_gamma 90.006332
loop_
_atom_site_label
_atom_site_type_symbol
_atom_site_fract_x
_atom_site_fract_y
_atom_site_fract_z
_atom_type_partial_charge
Li0 Li 0.1567 0.33856 0.19081 0.0
Li1 Li 0.14809 0.37187 0.18788 0.0
Li2 Li 0.12355 0.34622 0.19074 0.0
Li3 Li 0.14135 0.35065 0.1564 0.0
C4 C 0.15066 0.34911 0.23212 0.0
N5 N 0.16726 0.33827 0.27124 0.0
C6 C 0.16281 0.36147 0.24317 0.0
C7 C 0.14674 0.33134 0.24113 0.0
C8 C 0.17111 0.3557 0.2629 0.0
C9 C 0.15534 0.32609 0.26087 0.0
C10 C 0.18034 0.36867 0.16085 0.0
C11 C 0.19144 0.39082 0.13357 0.0
N12 N 0.20873 0.39098 0.14335 0.0
C13 C 0.19832 0.36883 0.17042 0.0
C14 C 0.17694 0.37956 0.14209 0.0
C15 C 0.21244 0.3803 0.16143 0.0
C16 C 0.17372 0.30293 0.19765 0.0
N17 N 0.17536 0.32173 0.20189 0.0
C18 C 0.20356 0.31648 0.22264 0.0
C19 C 0.18998 0.32868 0.21394 0.0
C20 C 0.20218 0.29696 0.21866 0.0
C21 C 0.18706 0.29021 0.20589 0.0
H22 H 0.16201 0.29779 0.1879 0.0
H23 H 0.19102 0.34372 0.21693 0.0
C24 C 0.13905 0.40932 0.19836 0.0
N25 N 0.15382 0.39707 0.19679 0.0
C26 C 0.14199 0.42788 0.20526 0.0
C27 C 0.1752 0.42076 0.20993 0.0
C28 C 0.17165 0.40236 0.20255 0.0
C29 C 0.16024 0.43378 0.21119 0.0
H30 H 0.12489 0.40459 0.19451 0.0
H31 H 0.18305 0.3922 0.20194 0.0
C32 C 0.12312 0.31281 0.17093 0.0
N33 N 0.09548 0.28529 0.1677 0.0
C34 C 0.11274 0.3108 0.15152 0.0
C35 C 0.11959 0.30068 0.1886 0.0
C36 C 0.0988 0.29683 0.15023 0.0
C37 C 0.10551 0.28691 0.18667 0.0
C38 C 0.1153 0.38167 0.15796 0.0
C39 C 0.09576 0.38078 0.15454 0.0
C40 C 0.12581 0.39606 0.148 0.0
C41 C 0.08713 0.3941 0.14086 0.0
C42 C 0.11666 0.40913 0.13446 0.0
N43 N 0.09767 0.40786 0.13117 0.0
C44 C 0.09694 0.34247 0.22472 0.0
C45 C 0.08443 0.33662 0.18925 0.0
C46 C 0.07908 0.34032 0.23412 0.0
N47 N 0.09926 0.34076 0.20265 0.0
C48 C 0.06629 0.33432 0.19796 0.0
C49 C 0.0634 0.33651 0.22066 0.0
H50 H 0.10888 0.34603 0.23499 0.0
H51 H 0.08658 0.33569 0.17171 0.0
C52 C 0.15634 0.341 0.11528 0.0
N53 N 0.14083 0.34848 0.12522 0.0
C54 C 0.15694 0.33908 0.09245 0.0
C55 C 0.12552 0.35244 0.09054 0.0
C56 C 0.12546 0.35392 0.11339 0.0
C57 C 0.14142 0.34495 0.07971 0.0
H58 H 0.16827 0.33654 0.12514 0.0
H59 H 0.11308 0.35932 0.12161 0.0
O60 O 0.14261 0.3544 0.21262 0.0
O61 O 0.16638 0.35741 0.16941 0.0
O62 O 0.13671 0.32652 0.17257 0.0
O63 O 0.12397 0.36867 0.17126 0.0
H64 H 0.16589 0.37531 0.23653 0.0
H65 H 0.13727 0.32167 0.23288 0.0
H66 H 0.18063 0.36508 0.27155 0.0
H67 H 0.15254 0.31232 0.26793 0.0
H68 H 0.18895 0.39936 0.11911 0.0
H69 H 0.20132 0.36031 0.18473 0.0
H70 H 0.16335 0.3792 0.13402 0.0
H71 H 0.22636 0.38067 0.1688 0.0
H72 H 0.21513 0.32229 0.23216 0.0
H73 H 0.18541 0.27525 0.20258 0.0
H74 H 0.13002 0.4374 0.20649 0.0
H75 H 0.18945 0.42478 0.21453 0.0
H76 H 0.11532 0.32 0.13765 0.0
H77 H 0.12759 0.30193 0.20366 0.0
H78 H 0.09059 0.29518 0.13535 0.0
H79 H 0.10256 0.2775 0.20027 0.0
H80 H 0.08735 0.36988 0.16227 0.0
H81 H 0.14081 0.39735 0.15099 0.0
H82 H 0.07203 0.3935 0.13797 0.0
H83 H 0.12464 0.42033 0.12666 0.0
H84 H 0.07751 0.34195 0.25172 0.0
H85 H 0.05456 0.33164 0.18695 0.0
H86 H 0.16937 0.33289 0.08494 0.0
H87 H 0.11328 0.35736 0.0815 0.0
Li88 Li 0.62535 0.14886 0.19327 0.0
Li89 Li 0.65912 0.15715 0.19155 0.0
Li90 Li 0.64378 0.14457 0.15816 0.0
Li91 Li 0.6503 0.12503 0.18936 0.0
C92 C 0.62731 0.17985 0.16156 0.0
N93 N 0.60622 0.20257 0.13394 0.0
C94 C 0.6339 0.1978 0.15578 0.0
C95 C 0.61005 0.17339 0.15321 0.0
C96 C 0.623 0.2091 0.14183 0.0
C97 C 0.59959 0.18509 0.13929 0.0
C98 C 0.65209 0.15042 0.23284 0.0
C99 C 0.67635 0.15409 0.26036 0.0
N100 N 0.66616 0.16826 0.26975 0.0
C101 C 0.64179 0.16495 0.24283 0.0
C102 C 0.66945 0.14485 0.24172 0.0
C103 C 0.64917 0.17381 0.26147 0.0
C104 C 0.59417 0.14083 0.2195 0.0
N105 N 0.60181 0.15469 0.20684 0.0
C106 C 0.57599 0.17535 0.21514 0.0
C107 C 0.59335 0.1719 0.2049 0.0
C108 C 0.56754 0.16109 0.22787 0.0
C109 C 0.57694 0.1437 0.23016 0.0
H110 H 0.60156 0.12756 0.22142 0.0
H111 H 0.60008 0.18303 0.19559 0.0
C112 C 0.69541 0.17158 0.20255 0.0
N113 N 0.67656 0.17534 0.20223 0.0
C114 C 0.70805 0.18473 0.21134 0.0
C115 C 0.68164 0.20549 0.21893 0.0
C116 C 0.66953 0.19194 0.20997 0.0
C117 C 0.7012 0.20193 0.21978 0.0
H118 H 0.70064 0.15838 0.19605 0.0
H119 H 0.65445 0.19452 0.20947 0.0
C120 C 0.62195 0.10867 0.16704 0.0
N121 N 0.61448 0.07133 0.1566 0.0
C122 C 0.62933 0.10074 0.14782 0.0
C123 C 0.61072 0.0976 0.18091 0.0
C124 C 0.62538 0.08185 0.14282 0.0
C125 C 0.60715 0.07875 0.17538 0.0
C126 C 0.68234 0.12483 0.16669 0.0
C127 C 0.68397 0.11643 0.14599 0.0
C128 C 0.69446 0.11923 0.18363 0.0
C129 C 0.69765 0.10245 0.14262 0.0
C130 C 0.70793 0.10518 0.17962 0.0
N131 N 0.70923 0.09716 0.15937 0.0
C132 C 0.65758 0.15406 0.11625 0.0
C133 C 0.62626 0.14205 0.11639 0.0
C134 C 0.6573 0.15554 0.09338 0.0
N135 N 0.64231 0.14713 0.12717 0.0
C136 C 0.62533 0.14336 0.09355 0.0
C137 C 0.64107 0.14997 0.0817 0.0
H138 H 0.67011 0.1581 0.12532 0.0
H139 H 0.61424 0.13679 0.12555 0.0
C140 C 0.65372 0.09602 0.2206 0.0
N141 N 0.65604 0.09975 0.19886 0.0
C142 C 0.6561 0.07768 0.22862 0.0
C143 C 0.66331 0.06728 0.19175 0.0
C144 C 0.66091 0.08584 0.18448 0.0
C145 C 0.66071 0.06298 0.21406 0.0
H146 H 0.64954 0.10721 0.23168 0.0
H147 H 0.66256 0.089 0.16726 0.0
O148 O 0.63791 0.1685 0.17495 0.0
O149 O 0.64537 0.14192 0.21423 0.0
O150 O 0.62579 0.12711 0.17231 0.0
O151 O 0.66911 0.13863 0.17025 0.0
H152 H 0.64729 0.20294 0.16203 0.0
H153 H 0.60481 0.15947 0.15746 0.0
H154 H 0.62789 0.22306 0.13725 0.0
H155 H 0.5862 0.18028 0.13272 0.0
H156 H 0.68982 0.15 0.26733 0.0
H157 H 0.62838 0.1695 0.23611 0.0
H158 H 0.67757 0.13361 0.2342 0.0
H159 H 0.64142 0.18516 0.2693 0.0
H160 H 0.56938 0.18909 0.21335 0.0
H161 H 0.57092 0.13232 0.23981 0.0
H162 H 0.72304 0.18154 0.21131 0.0
H163 H 0.67572 0.21845 0.22545 0.0
H164 H 0.63839 0.1089 0.13711 0.0
H165 H 0.60492 0.10342 0.19586 0.0
H166 H 0.63111 0.07552 0.12808 0.0
H167 H 0.59855 0.07001 0.18602 0.0
H168 H 0.67467 0.1205 0.1327 0.0
H169 H 0.6933 0.12545 0.1998 0.0
H170 H 0.69902 0.09578 0.12671 0.0
H171 H 0.71731 0.10063 0.19262 0.0
H172 H 0.66983 0.16055 0.08495 0.0
H173 H 0.6124 0.13925 0.08528 0.0
H174 H 0.65369 0.07492 0.2459 0.0
H175 H 0.66701 0.05638 0.18001 0.0
Li176 Li 0.84131 0.66041 0.19599 0.0
Li177 Li 0.84991 0.62617 0.19211 0.0
Li178 Li 0.87411 0.65015 0.19445 0.0
Li179 Li 0.8561 0.64669 0.16162 0.0
C180 C 0.86477 0.6426 0.23556 0.0
N181 N 0.88726 0.6405 0.27258 0.0
C182 C 0.8735 0.62554 0.24122 0.0
C183 C 0.86738 0.65856 0.24876 0.0
C184 C 0.88484 0.62478 0.25999 0.0
C185 C 0.87883 0.65721 0.2674 0.0
C186 C 0.81569 0.62936 0.17628 0.0
C187 C 0.79904 0.60125 0.16483 0.0
N188 N 0.78538 0.60488 0.17999 0.0
C189 C 0.80144 0.63288 0.19167 0.0
C190 C 0.81445 0.61349 0.16266 0.0
C191 C 0.78623 0.62031 0.19331 0.0
C192 C 0.81506 0.69001 0.19322 0.0
N193 N 0.82358 0.67777 0.20729 0.0
C194 C 0.80588 0.69003 0.2375 0.0
C195 C 0.81925 0.67746 0.22903 0.0
C196 C 0.7968 0.70285 0.22337 0.0
C197 C 0.80151 0.70274 0.20095 0.0
H198 H 0.81879 0.68981 0.17598 0.0
H199 H 0.82601 0.66731 0.23974 0.0
C200 C 0.85137 0.58619 0.19273 0.0
N201 N 0.84282 0.60158 0.20166 0.0
C202 C 0.84708 0.56809 0.20039 0.0
C203 C 0.82534 0.58202 0.22645 0.0
C204 C 0.83005 0.59987 0.21824 0.0
C205 C 0.83399 0.56583 0.21757 0.0
H206 H 0.86188 0.58796 0.18003 0.0
H207 H 0.82372 0.61241 0.22529 0.0
C208 C 0.87397 0.68569 0.1775 0.0
N209 N 0.89857 0.71607 0.17809 0.0
C210 C 0.89144 0.68448 0.16683 0.0
C211 C 0.86896 0.70236 0.1884 0.0
C212 C 0.9037 0.69998 0.16736 0.0
C213 C 0.8816 0.71757 0.18851 0.0
C214 C 0.8824 0.62123 0.1566 0.0
C215 C 0.90086 0.62696 0.15168 0.0
C216 C 0.87293 0.60897 0.14232 0.0
C217 C 0.90952 0.62033 0.13253 0.0
C218 C 0.88206 0.6027 0.12331 0.0
N219 N 0.90002 0.60846 0.11885 0.0
C220 C 0.91015 0.63944 0.20845 0.0
C221 C 0.90311 0.67132 0.21726 0.0
C222 C 0.92761 0.64078 0.21897 0.0
N223 N 0.89839 0.65463 0.20754 0.0
C224 C 0.92055 0.67336 0.2278 0.0
C225 C 0.93301 0.65792 0.2288 0.0
H226 H 0.90579 0.62612 0.20134 0.0
H227 H 0.89318 0.68292 0.21739 0.0
C228 C 0.83883 0.6456 0.11988 0.0
N229 N 0.85553 0.64884 0.13033 0.0
C230 C 0.83782 0.6464 0.09698 0.0
C231 C 0.87116 0.65396 0.09602 0.0
C232 C 0.87145 0.65336 0.11892 0.0
C233 C 0.8542 0.65037 0.08481 0.0
H234 H 0.82631 0.64229 0.12931 0.0
H235 H 0.88446 0.65623 0.12754 0.0
O236 O 0.85409 0.64377 0.21688 0.0
O237 O 0.8309 0.64126 0.17477 0.0
O238 O 0.86172 0.67073 0.17715 0.0
O239 O 0.8736 0.62767 0.17521 0.0
H240 H 0.87176 0.6131 0.23106 0.0
H241 H 0.86092 0.67193 0.24443 0.0
H242 H 0.89179 0.6117 0.26451 0.0
H243 H 0.8811 0.66948 0.27769 0.0
H244 H 0.79797 0.58885 0.15449 0.0
H245 H 0.80218 0.64506 0.20238 0.0
H246 H 0.82535 0.61057 0.15065 0.0
H247 H 0.77515 0.6228 0.20522 0.0
H248 H 0.80243 0.68947 0.25483 0.0
H249 H 0.79494 0.71251 0.18956 0.0
H250 H 0.85441 0.55606 0.1934 0.0
H251 H 0.81513 0.58092 0.23965 0.0
H252 H 0.89566 0.6716 0.15863 0.0
H253 H 0.85549 0.70352 0.19674 0.0
H254 H 0.91733 0.6992 0.15932 0.0
H255 H 0.87794 0.73055 0.19691 0.0
H256 H 0.90835 0.63666 0.1623 0.0
H257 H 0.85858 0.60454 0.1457 0.0
H258 H 0.92377 0.62472 0.12848 0.0
H259 H 0.87484 0.5933 0.11206 0.0
H260 H 0.93683 0.62854 0.21935 0.0
H261 H 0.92402 0.68669 0.23558 0.0
H262 H 0.82449 0.64352 0.08887 0.0
H263 H 0.88404 0.6573 0.08716 0.0
Li264 Li 0.37017 0.84775 0.18879 0.0
Li265 Li 0.33769 0.84271 0.19025 0.0
Li266 Li 0.35175 0.85446 0.15608 0.0
Li267 Li 0.34858 0.87511 0.19121 0.0
C268 C 0.36757 0.81525 0.16611 0.0
N269 N 0.39206 0.78566 0.15763 0.0
C270 C 0.37099 0.80153 0.18216 0.0
C271 C 0.37644 0.8138 0.14565 0.0
C272 C 0.38348 0.78672 0.1776 0.0
C273 C 0.38881 0.79876 0.1417 0.0
C274 C 0.34616 0.84857 0.2322 0.0
C275 C 0.32676 0.85258 0.26446 0.0
N276 N 0.33117 0.83469 0.2709 0.0
C277 C 0.35066 0.8303 0.23925 0.0
C278 C 0.33423 0.85988 0.24497 0.0
C279 C 0.34287 0.82351 0.25882 0.0
C280 C 0.39849 0.84347 0.22061 0.0
N281 N 0.39469 0.84001 0.1991 0.0
C282 C 0.42632 0.829 0.19335 0.0
C283 C 0.40818 0.83289 0.18546 0.0
C284 C 0.43071 0.83266 0.21546 0.0
C285 C 0.41643 0.83986 0.22918 0.0
H286 H 0.38776 0.84963 0.23102 0.0
H287 H 0.40513 0.83079 0.16828 0.0
C288 C 0.31848 0.80799 0.1942 0.0
N289 N 0.31819 0.8263 0.201 0.0
C290 C 0.30499 0.79519 0.20188 0.0
C291 C 0.29087 0.82038 0.22314 0.0
C292 C 0.30462 0.8327 0.21501 0.0
C293 C 0.29101 0.80132 0.21667 0.0
H294 H 0.32926 0.80328 0.18288 0.0
H295 H 0.30446 0.84736 0.21993 0.0
C296 C 0.38929 0.87565 0.17054 0.0
N297 N 0.42766 0.88306 0.17147 0.0
C298 C 0.39718 0.88556 0.18817 0.0
C299 C 0.40089 0.86959 0.15332 0.0
C300 C 0.41662 0.88913 0.18836 0.0
C301 C 0.42026 0.87348 0.1541 0.0
C302 C 0.30952 0.86256 0.17258 0.0
C303 C 0.30049 0.84888 0.15973 0.0
C304 C 0.29882 0.87411 0.18647 0.0
C305 C 0.28087 0.84686 0.16117 0.0
C306 C 0.27922 0.87168 0.18739 0.0
N307 N 0.27073 0.8582 0.17485 0.0
C308 C 0.34039 0.84152 0.11443 0.0
C309 C 0.35989 0.86878 0.11383 0.0
C310 C 0.33931 0.8415 0.09153 0.0
N311 N 0.35057 0.85502 0.12503 0.0
C312 C 0.35945 0.86915 0.0909 0.0
C313 C 0.34903 0.85538 0.07938 0.0
H314 H 0.3332 0.83068 0.12379 0.0
H315 H 0.3678 0.87941 0.12272 0.0
C316 C 0.3529 0.90448 0.22165 0.0
N317 N 0.34512 0.89995 0.20194 0.0
C318 C 0.35063 0.92261 0.23029 0.0
C319 C 0.33255 0.93113 0.19804 0.0
C320 C 0.33517 0.9128 0.19002 0.0
C321 C 0.34031 0.93622 0.21847 0.0
H322 H 0.36091 0.89398 0.23063 0.0
H323 H 0.32919 0.90875 0.17435 0.0
O324 O 0.35526 0.82976 0.17021 0.0
O325 O 0.35355 0.85541 0.213 0.0
O326 O 0.37038 0.87157 0.17038 0.0
O327 O 0.32875 0.8646 0.17163 0.0
H328 H 0.36407 0.8023 0.19798 0.0
H329 H 0.37401 0.82428 0.13303 0.0
H330 H 0.38633 0.77606 0.18991 0.0
H331 H 0.39587 0.79753 0.12599 0.0
H332 H 0.31738 0.86112 0.27441 0.0
H333 H 0.36004 0.82146 0.22969 0.0
H334 H 0.33052 0.87402 0.23971 0.0
H335 H 0.34615 0.80935 0.2644 0.0
H336 H 0.43683 0.82338 0.18217 0.0
H337 H 0.41924 0.84334 0.24619 0.0
H338 H 0.30572 0.78058 0.19659 0.0
H339 H 0.28017 0.82577 0.23423 0.0
H340 H 0.38841 0.89023 0.20169 0.0
H341 H 0.39506 0.86166 0.1397 0.0
H342 H 0.42294 0.89667 0.20197 0.0
H343 H 0.42944 0.86876 0.14096 0.0
H344 H 0.30858 0.83976 0.14901 0.0
H345 H 0.30559 0.88467 0.19665 0.0
H346 H 0.27371 0.83624 0.15144 0.0
H347 H 0.27076 0.88045 0.19816 0.0
H348 H 0.33082 0.83079 0.08352 0.0
H349 H 0.36744 0.87995 0.08237 0.0
H350 H 0.35715 0.92601 0.2459 0.0
H351 H 0.32436 0.94113 0.18848 0.0
Li352 Li 0.12787 0.64919 0.30678 0.0
Li353 Li 0.14954 0.64326 0.33838 0.0
Li354 Li 0.16008 0.65749 0.30391 0.0
Li355 Li 0.15255 0.62493 0.30319 0.0
C356 C 0.12769 0.68009 0.32996 0.0
N357 N 0.09777 0.7041 0.3387 0.0
C358 C 0.11781 0.6786 0.34978 0.0
C359 C 0.12243 0.69385 0.31464 0.0
C360 C 0.10271 0.69087 0.35389 0.0
C361 C 0.10724 0.70583 0.31935 0.0
C362 C 0.124 0.60799 0.32303 0.0
C363 C 0.12644 0.57476 0.33162 0.0
N364 N 0.11154 0.57117 0.3181 0.0
C365 C 0.10873 0.60398 0.3092 0.0
C366 C 0.13294 0.59328 0.33434 0.0
C367 C 0.10263 0.58527 0.30695 0.0
C368 C 0.09767 0.6605 0.2792 0.0
N369 N 0.10229 0.65493 0.29987 0.0
C370 C 0.06977 0.65524 0.31062 0.0
C371 C 0.08885 0.65238 0.31557 0.0
C372 C 0.06454 0.66075 0.28929 0.0
C373 C 0.0788 0.66362 0.27355 0.0
H374 H 0.10857 0.66206 0.26692 0.0
H375 H 0.09294 0.64775 0.33183 0.0
C376 C 0.16039 0.65739 0.37973 0.0
N377 N 0.15116 0.64303 0.36946 0.0
C378 C 0.16095 0.6582 0.40264 0.0
C379 C 0.14237 0.6295 0.40394 0.0
C380 C 0.14215 0.62927 0.38101 0.0
C381 C 0.15181 0.64415 0.41506 0.0
H382 H 0.167 0.66842 0.37011 0.0
H383 H 0.13445 0.61833 0.37245 0.0
C384 C 0.15135 0.6507 0.26224 0.0
N385 N 0.16557 0.66443 0.22305 0.0
C386 C 0.16275 0.63923 0.24901 0.0
C387 C 0.1471 0.66913 0.25546 0.0
C388 C 0.16981 0.64644 0.22926 0.0
C389 C 0.15447 0.67582 0.23563 0.0
C390 C 0.19126 0.64067 0.31888 0.0
C391 C 0.20227 0.63115 0.30333 0.0
C392 C 0.1995 0.6547 0.33193 0.0
C393 C 0.22135 0.63593 0.30099 0.0
C394 C 0.21861 0.6591 0.32905 0.0
N395 N 0.22905 0.6497 0.31378 0.0
C396 C 0.17551 0.69426 0.30027 0.0
C397 C 0.19044 0.6716 0.27743 0.0
C398 C 0.1873 0.70852 0.29219 0.0
N399 N 0.17716 0.67625 0.29267 0.0
C400 C 0.20248 0.68537 0.26889 0.0
C401 C 0.20092 0.70416 0.27617 0.0
H402 H 0.16497 0.6976 0.31253 0.0
H403 H 0.19165 0.65719 0.27176 0.0
C404 C 0.14578 0.59515 0.27435 0.0
N405 N 0.15723 0.60061 0.2911 0.0
C406 C 0.1479 0.57734 0.26485 0.0
C407 C 0.17362 0.57106 0.28999 0.0
C408 C 0.17089 0.58899 0.29915 0.0
C409 C 0.16204 0.56503 0.27254 0.0
H410 H 0.13487 0.60462 0.26851 0.0
H411 H 0.1796 0.59363 0.31273 0.0
O412 O 0.14222 0.66793 0.32539 0.0
O413 O 0.13055 0.62613 0.32494 0.0
O414 O 0.14431 0.64388 0.28163 0.0
O415 O 0.17252 0.63629 0.3213 0.0
H416 H 0.12158 0.66795 0.36176 0.0
H417 H 0.12991 0.69517 0.29921 0.0
H418 H 0.09488 0.68982 0.36911 0.0
H419 H 0.10295 0.71647 0.30759 0.0
H420 H 0.13331 0.56322 0.34015 0.0
H421 H 0.10181 0.61513 0.30007 0.0
H422 H 0.14503 0.59608 0.34476 0.0
H423 H 0.09087 0.58195 0.29625 0.0
H424 H 0.05922 0.65298 0.32326 0.0
H425 H 0.07537 0.66753 0.25682 0.0
H426 H 0.16846 0.6697 0.41052 0.0
H427 H 0.13479 0.61861 0.41283 0.0
H428 H 0.16632 0.625 0.25403 0.0
H429 H 0.13846 0.67827 0.26557 0.0
H430 H 0.17872 0.63775 0.21892 0.0
H431 H 0.15141 0.69009 0.23028 0.0
H432 H 0.19609 0.62042 0.29289 0.0
H433 H 0.19117 0.66227 0.34394 0.0
H434 H 0.23001 0.62876 0.28893 0.0
H435 H 0.22514 0.67002 0.33893 0.0
H436 H 0.18554 0.72284 0.29816 0.0
H437 H 0.213 0.68131 0.25685 0.0
H438 H 0.13832 0.57319 0.25184 0.0
H439 H 0.18478 0.56213 0.29639 0.0
Li440 Li 0.34895 0.12812 0.30927 0.0
Li441 Li 0.35287 0.14735 0.34249 0.0
Li442 Li 0.34112 0.16216 0.30749 0.0
Li443 Li 0.37428 0.1529 0.31238 0.0
C444 C 0.31153 0.13436 0.32499 0.0
N445 N 0.27565 0.11884 0.32321 0.0
C446 C 0.30422 0.12459 0.34308 0.0
C447 C 0.30044 0.13651 0.30615 0.0
C448 C 0.2861 0.11676 0.34181 0.0
C449 C 0.28238 0.1285 0.30553 0.0
C450 C 0.37744 0.1188 0.34675 0.0
C451 C 0.39618 0.11611 0.37971 0.0
N452 N 0.38982 0.09809 0.38246 0.0
C453 C 0.37121 0.10022 0.3498 0.0
C454 C 0.39015 0.12678 0.36171 0.0
C455 C 0.3776 0.08999 0.36799 0.0
C456 C 0.35453 0.09854 0.27995 0.0
N457 N 0.34377 0.10376 0.29743 0.0
C458 C 0.32791 0.07389 0.29716 0.0
C459 C 0.33069 0.09184 0.3062 0.0
C460 C 0.33877 0.06815 0.27899 0.0
C461 C 0.3522 0.08078 0.27037 0.0
H462 H 0.3651 0.10816 0.27359 0.0
H463 H 0.32264 0.09607 0.32043 0.0
C464 C 0.35315 0.16402 0.38447 0.0
N465 N 0.35029 0.14747 0.37361 0.0
C466 C 0.35188 0.16469 0.40734 0.0
C467 C 0.34457 0.13128 0.40743 0.0
C468 C 0.34582 0.13131 0.38455 0.0
C469 C 0.34769 0.14812 0.41918 0.0
H470 H 0.35639 0.17674 0.37536 0.0
H471 H 0.34341 0.11838 0.37552 0.0
C472 C 0.35249 0.148 0.26561 0.0
N473 N 0.3428 0.14945 0.22165 0.0
C474 C 0.36403 0.15763 0.25067 0.0
C475 C 0.33619 0.13885 0.25811 0.0
C476 C 0.35884 0.15828 0.22853 0.0
C477 C 0.3315 0.13981 0.23585 0.0
C478 C 0.37199 0.18702 0.33005 0.0
C479 C 0.3692 0.20283 0.31665 0.0
C480 C 0.38754 0.18642 0.34421 0.0
C481 C 0.38221 0.2177 0.31742 0.0
C482 C 0.40024 0.20156 0.34448 0.0
N483 N 0.39735 0.21675 0.33117 0.0
C484 C 0.30829 0.18432 0.30714 0.0
C485 C 0.32798 0.18903 0.27609 0.0
C486 C 0.29511 0.19724 0.29901 0.0
N487 N 0.3242 0.1803 0.2955 0.0
C488 C 0.31515 0.20198 0.26728 0.0
C489 C 0.2984 0.20615 0.27873 0.0
H490 H 0.30577 0.17735 0.32268 0.0
H491 H 0.34101 0.18609 0.2675 0.0
C492 C 0.4134 0.14631 0.31049 0.0
N493 N 0.39962 0.15852 0.3041 0.0
C494 C 0.43208 0.14913 0.30384 0.0
C495 C 0.4221 0.17717 0.28428 0.0
C496 C 0.40358 0.17375 0.29125 0.0
C497 C 0.43663 0.16466 0.29041 0.0
H498 H 0.40983 0.13411 0.32033 0.0
H499 H 0.3923 0.18309 0.28612 0.0
O500 O 0.32923 0.14216 0.32602 0.0
O501 O 0.37123 0.12908 0.32913 0.0
O502 O 0.3574 0.14725 0.28734 0.0
O503 O 0.35951 0.17224 0.32937 0.0
H504 H 0.31249 0.12296 0.35789 0.0
H505 H 0.30559 0.14448 0.29224 0.0
H506 H 0.28034 0.10905 0.35563 0.0
H507 H 0.27367 0.13003 0.29102 0.0
H508 H 0.40591 0.12215 0.3915 0.0
H509 H 0.36146 0.09379 0.33833 0.0
H510 H 0.39519 0.1411 0.35952 0.0
H511 H 0.37281 0.07563 0.37062 0.0
H512 H 0.31738 0.06461 0.30431 0.0
H513 H 0.36116 0.07682 0.25669 0.0
H514 H 0.354 0.17808 0.4156 0.0
H515 H 0.34153 0.11811 0.4158 0.0
H516 H 0.3768 0.16462 0.25611 0.0
H517 H 0.32739 0.13088 0.26927 0.0
H518 H 0.36757 0.16579 0.21682 0.0
H519 H 0.3189 0.13281 0.22985 0.0
H520 H 0.35719 0.20356 0.30567 0.0
H521 H 0.38983 0.17435 0.35479 0.0
H522 H 0.38029 0.22999 0.30705 0.0
H523 H 0.41241 0.20124 0.35525 0.0
H524 H 0.28233 0.19998 0.3083 0.0
H525 H 0.31841 0.20882 0.25182 0.0
H526 H 0.4427 0.13888 0.3086 0.0
H527 H 0.42495 0.1894 0.2741 0.0
Li528 Li 0.86935 0.35156 0.30594 0.0
Li529 Li 0.84959 0.35582 0.33865 0.0
Li530 Li 0.83677 0.34158 0.30563 0.0
Li531 Li 0.84415 0.37429 0.30609 0.0
C532 C 0.87031 0.32262 0.33752 0.0
N533 N 0.89643 0.30464 0.36406 0.0
C534 C 0.88558 0.33272 0.34624 0.0
C535 C 0.86833 0.30339 0.34231 0.0
C536 C 0.89863 0.32337 0.35962 0.0
C537 C 0.88169 0.29455 0.35575 0.0
C538 C 0.86834 0.39252 0.33187 0.0
C539 C 0.85577 0.41886 0.35243 0.0
N540 N 0.87009 0.42995 0.34488 0.0
C541 C 0.88295 0.40417 0.32434 0.0
C542 C 0.85463 0.39992 0.34604 0.0
C543 C 0.88359 0.42305 0.3311 0.0
C544 C 0.90308 0.36232 0.28641 0.0
N545 N 0.89412 0.347 0.29492 0.0
C546 C 0.92083 0.32737 0.2871 0.0
C547 C 0.90241 0.32963 0.29506 0.0
C548 C 0.93068 0.34313 0.27893 0.0
C549 C 0.92149 0.36074 0.27841 0.0
H550 H 0.89585 0.37577 0.28578 0.0
H551 H 0.89481 0.31754 0.30141 0.0
C552 C 0.83567 0.34515 0.38017 0.0
N553 N 0.84954 0.355 0.36978 0.0
C554 C 0.83551 0.34389 0.40307 0.0
C555 C 0.86385 0.36304 0.40406 0.0
C556 C 0.86356 0.36376 0.38117 0.0
C557 C 0.84973 0.35295 0.41537 0.0
H558 H 0.82484 0.33814 0.3706 0.0
H559 H 0.87456 0.37131 0.37248 0.0
C560 C 0.85461 0.34468 0.26511 0.0
N561 N 0.86313 0.32178 0.22967 0.0
C562 C 0.85421 0.35202 0.2438 0.0
C563 C 0.85935 0.32568 0.2684 0.0
C564 C 0.85855 0.34021 0.2261 0.0
C565 C 0.86361 0.31434 0.25027 0.0
C566 C 0.80694 0.36483 0.31752 0.0
C567 C 0.80335 0.36851 0.29535 0.0
C568 C 0.79197 0.36461 0.33251 0.0
C569 C 0.78479 0.3719 0.28853 0.0
C570 C 0.7736 0.36808 0.32504 0.0
N571 N 0.77042 0.37162 0.30339 0.0
C572 C 0.81494 0.30834 0.30846 0.0
C573 C 0.81143 0.32522 0.27504 0.0
C574 C 0.80195 0.29472 0.30146 0.0
N575 N 0.81938 0.32318 0.29524 0.0
C576 C 0.7984 0.31197 0.26739 0.0
C577 C 0.79345 0.29648 0.28067 0.0
H578 H 0.82141 0.30719 0.32451 0.0
H579 H 0.81516 0.33717 0.26485 0.0
C580 C 0.84733 0.40416 0.2768 0.0
N581 N 0.83791 0.39867 0.29516 0.0
C582 C 0.8442 0.42202 0.26782 0.0
C583 C 0.82175 0.42832 0.2969 0.0
C584 C 0.82525 0.41024 0.30527 0.0
C585 C 0.83131 0.43439 0.27792 0.0
H586 H 0.85749 0.3947 0.26931 0.0
H587 H 0.81802 0.40552 0.31995 0.0
O588 O 0.8572 0.33141 0.3245 0.0
O589 O 0.86714 0.37412 0.325 0.0
O590 O 0.85042 0.35619 0.28253 0.0
O591 O 0.82496 0.36135 0.32469 0.0
H592 H 0.88742 0.34758 0.34268 0.0
H593 H 0.85658 0.29538 0.3357 0.0
H594 H 0.91051 0.33101 0.36647 0.0
H595 H 0.88033 0.27966 0.35959 0.0
H596 H 0.8452 0.42478 0.36329 0.0
H597 H 0.89371 0.39873 0.31342 0.0
H598 H 0.84305 0.3912 0.35176 0.0
H599 H 0.8948 0.43223 0.32538 0.0
H600 H 0.92741 0.31354 0.28776 0.0
H601 H 0.92841 0.37315 0.27175 0.0
H602 H 0.82452 0.33569 0.411 0.0
H603 H 0.87494 0.37049 0.41275 0.0
H604 H 0.85055 0.36669 0.24098 0.0
H605 H 0.85971 0.31968 0.28472 0.0
H606 H 0.85828 0.34571 0.20951 0.0
H607 H 0.8673 0.29962 0.25258 0.0
H608 H 0.81474 0.36874 0.28349 0.0
H609 H 0.79453 0.36176 0.34973 0.0
H610 H 0.78182 0.37475 0.27141 0.0
H611 H 0.76187 0.36795 0.33646 0.0
H612 H 0.79838 0.28312 0.31232 0.0
H613 H 0.79243 0.31374 0.25114 0.0
H614 H 0.85213 0.42626 0.2534 0.0
H615 H 0.81163 0.4374 0.30512 0.0
Li616 Li 0.64689 0.87152 0.30636 0.0
Li617 Li 0.64048 0.85266 0.33849 0.0
Li618 Li 0.65519 0.83795 0.30508 0.0
Li619 Li 0.62161 0.84815 0.30629 0.0
C620 C 0.68365 0.86458 0.32373 0.0
N621 N 0.72046 0.87775 0.32179 0.0
C622 C 0.69093 0.8757 0.34074 0.0
C623 C 0.69517 0.86008 0.30579 0.0
C624 C 0.70954 0.88227 0.33943 0.0
C625 C 0.71373 0.86688 0.30511 0.0
C626 C 0.61729 0.88136 0.3418 0.0
C627 C 0.59811 0.8839 0.37446 0.0
N628 N 0.60544 0.90138 0.3783 0.0
C629 C 0.62464 0.89935 0.34608 0.0
C630 C 0.60389 0.87357 0.35609 0.0
C631 C 0.61846 0.90925 0.3646 0.0
C632 C 0.63704 0.90614 0.28866 0.0
N633 N 0.65257 0.89624 0.2951 0.0
C634 C 0.67281 0.92149 0.28355 0.0
C635 C 0.67027 0.90356 0.29274 0.0
C636 C 0.657 0.93188 0.27652 0.0
C637 C 0.63893 0.924 0.2792 0.0
H638 H 0.62312 0.90004 0.29075 0.0
H639 H 0.68249 0.89556 0.29768 0.0
C640 C 0.63456 0.83667 0.38059 0.0
N641 N 0.64088 0.85225 0.36976 0.0
C642 C 0.6345 0.83624 0.40353 0.0
C643 C 0.64768 0.86781 0.40369 0.0
C644 C 0.64748 0.86761 0.38078 0.0
C645 C 0.64112 0.85197 0.41538 0.0
H646 H 0.62961 0.82455 0.37143 0.0
H647 H 0.65236 0.87984 0.37177 0.0
C648 C 0.64157 0.86289 0.26439 0.0
N649 N 0.64326 0.8855 0.22741 0.0
C650 C 0.62504 0.87076 0.2557 0.0
C651 C 0.65893 0.8664 0.25417 0.0
C652 C 0.62619 0.88217 0.23701 0.0
C653 C 0.6595 0.87791 0.23553 0.0
C654 C 0.62159 0.81388 0.32161 0.0
C655 C 0.62491 0.79967 0.30613 0.0
C656 C 0.60483 0.81376 0.33381 0.0
C657 C 0.6113 0.78558 0.303 0.0
C658 C 0.59156 0.79945 0.33016 0.0
N659 N 0.59504 0.78578 0.31496 0.0
C660 C 0.68332 0.81017 0.30935 0.0
C661 C 0.67338 0.81599 0.27276 0.0
C662 C 0.69648 0.79684 0.30208 0.0
N663 N 0.67223 0.81945 0.29467 0.0
C664 C 0.68638 0.80284 0.26475 0.0
C665 C 0.69823 0.79311 0.27948 0.0
H666 H 0.68199 0.81324 0.32669 0.0
H667 H 0.66432 0.82361 0.2615 0.0
C668 C 0.58163 0.85012 0.30442 0.0
N669 N 0.59722 0.84239 0.29494 0.0
C670 C 0.56369 0.84639 0.29592 0.0
C671 C 0.57819 0.82697 0.26788 0.0
C672 C 0.59586 0.83097 0.27704 0.0
C673 C 0.56182 0.83478 0.27731 0.0
H674 H 0.58313 0.85939 0.31839 0.0
H675 H 0.60855 0.82513 0.26977 0.0
O676 O 0.66554 0.85779 0.32497 0.0
O677 O 0.62329 0.87136 0.32384 0.0
O678 O 0.64079 0.85208 0.28301 0.0
O679 O 0.63452 0.82807 0.3245 0.0
H680 H 0.68232 0.87925 0.35481 0.0
H681 H 0.68985 0.85164 0.29239 0.0
H682 H 0.71532 0.89092 0.35246 0.0
H683 H 0.72275 0.86356 0.29128 0.0
H684 H 0.58785 0.87798 0.38573 0.0
H685 H 0.63518 0.90554 0.3354 0.0
H686 H 0.59827 0.85955 0.35326 0.0
H687 H 0.62407 0.92316 0.36815 0.0
H688 H 0.687 0.92702 0.28158 0.0
H689 H 0.62635 0.93164 0.27424 0.0
H690 H 0.62958 0.82363 0.41187 0.0
H691 H 0.65266 0.88033 0.41214 0.0
H692 H 0.6115 0.86833 0.26349 0.0
H693 H 0.67186 0.86044 0.26067 0.0
H694 H 0.61354 0.88846 0.23019 0.0
H695 H 0.67285 0.88084 0.22754 0.0
H696 H 0.63777 0.7996 0.29648 0.0
H697 H 0.60198 0.82475 0.34573 0.0
H698 H 0.61363 0.77454 0.29101 0.0
H699 H 0.57846 0.79926 0.33936 0.0
H700 H 0.70509 0.78948 0.31405 0.0
H701 H 0.68739 0.80062 0.24719 0.0
H702 H 0.55146 0.85296 0.30346 0.0
H703 H 0.57734 0.81788 0.25359 0.0
Li704 Li 0.84792 0.62517 0.81222 0.0
Li705 Li 0.85157 0.64478 0.84369 0.0
Li706 Li 0.83892 0.65818 0.80817 0.0
Li707 Li 0.87277 0.64847 0.81334 0.0
C708 C 0.81212 0.62738 0.82703 0.0
N709 N 0.78092 0.60388 0.82496 0.0
C710 C 0.81191 0.61034 0.83869 0.0
C711 C 0.79643 0.6325 0.81436 0.0
C712 C 0.79602 0.59864 0.8374 0.0
C713 C 0.78079 0.62042 0.81354 0.0
C714 C 0.87573 0.61808 0.85147 0.0
C715 C 0.89374 0.61976 0.8851 0.0
N716 N 0.88676 0.60262 0.89119 0.0
C717 C 0.86871 0.60047 0.85811 0.0
C718 C 0.88837 0.62779 0.86508 0.0
C719 C 0.87448 0.59289 0.87822 0.0
C720 C 0.85753 0.58781 0.8025 0.0
N721 N 0.84296 0.60028 0.80089 0.0
C722 C 0.82426 0.57736 0.78175 0.0
C723 C 0.82666 0.59554 0.79033 0.0
C724 C 0.83891 0.56403 0.78378 0.0
C725 C 0.85577 0.56954 0.79416 0.0
H726 H 0.87069 0.59218 0.80997 0.0
H727 H 0.8156 0.60591 0.78823 0.0
C728 C 0.85461 0.66323 0.88482 0.0
N729 N 0.8492 0.64687 0.87488 0.0
C730 C 0.8543 0.66474 0.9077 0.0
C731 C 0.8426 0.63264 0.90965 0.0
C732 C 0.84281 0.63189 0.88677 0.0
C733 C 0.84857 0.64916 0.92036 0.0
H734 H 0.85943 0.67502 0.87501 0.0
H735 H 0.83833 0.61915 0.87854 0.0
C736 C 0.85585 0.63219 0.77057 0.0
N737 N 0.85663 0.60813 0.73484 0.0
C738 C 0.87226 0.622 0.76568 0.0
C739 C 0.83986 0.63024 0.75725 0.0
C740 C 0.87236 0.60988 0.74755 0.0
C741 C 0.84054 0.61799 0.73926 0.0
C742 C 0.87087 0.68354 0.82618 0.0
C743 C 0.86793 0.69704 0.80974 0.0
C744 C 0.88691 0.68479 0.83954 0.0
C745 C 0.88118 0.71149 0.80684 0.0
C746 C 0.89985 0.69943 0.83609 0.0
N747 N 0.89674 0.71237 0.81994 0.0
C748 C 0.80933 0.68445 0.80841 0.0
C749 C 0.82371 0.67999 0.77358 0.0
C750 C 0.79684 0.69772 0.79961 0.0
N751 N 0.82232 0.67588 0.79533 0.0
C752 C 0.81149 0.69317 0.76408 0.0
C753 C 0.79782 0.70222 0.77714 0.0
H754 H 0.80864 0.68087 0.82567 0.0
H755 H 0.83442 0.67314 0.76369 0.0
C756 C 0.91247 0.64441 0.81325 0.0
N757 N 0.89781 0.65362 0.80358 0.0
C758 C 0.9308 0.64655 0.80519 0.0
C759 C 0.91868 0.6677 0.77734 0.0
C760 C 0.90054 0.66517 0.786 0.0
C761 C 0.93407 0.65807 0.78676 0.0
H762 H 0.90989 0.63495 0.82683 0.0
H763 H 0.88853 0.67199 0.77834 0.0
O764 O 0.82747 0.63913 0.82817 0.0
O765 O 0.87008 0.62587 0.83192 0.0
O766 O 0.85531 0.64371 0.78859 0.0
O767 O 0.85828 0.66904 0.82895 0.0
H768 H 0.82403 0.606 0.84825 0.0
H769 H 0.79635 0.64559 0.80518 0.0
H770 H 0.79573 0.58535 0.84621 0.0
H771 H 0.76857 0.62418 0.80377 0.0
H772 H 0.90341 0.6272 0.89583 0.0
H773 H 0.85865 0.59286 0.84808 0.0
H774 H 0.89374 0.64153 0.86042 0.0
H775 H 0.86909 0.57933 0.88358 0.0
H776 H 0.81106 0.57377 0.77374 0.0
H777 H 0.86766 0.55995 0.79549 0.0
H778 H 0.85902 0.67771 0.91544 0.0
H779 H 0.83788 0.62042 0.9189 0.0
H780 H 0.88471 0.62326 0.77593 0.0
H781 H 0.82698 0.63788 0.76098 0.0
H782 H 0.88492 0.60181 0.74364 0.0
H783 H 0.82824 0.61623 0.72889 0.0
H784 H 0.85563 0.69629 0.79922 0.0
H785 H 0.88943 0.67446 0.85232 0.0
H786 H 0.87912 0.72198 0.79412 0.0
H787 H 0.91237 0.7005 0.84622 0.0
H788 H 0.78638 0.70419 0.81021 0.0
H789 H 0.81293 0.69643 0.74677 0.0
H790 H 0.94225 0.63901 0.81313 0.0
H791 H 0.9205 0.67651 0.76293 0.0
Li792 Li 0.37356 0.84603 0.80633 0.0
Li793 Li 0.35222 0.85018 0.83794 0.0
Li794 Li 0.34229 0.83471 0.80465 0.0
Li795 Li 0.34793 0.86882 0.80443 0.0
C796 C 0.35703 0.8079 0.82829 0.0
N797 N 0.34487 0.77097 0.83333 0.0
C798 C 0.34569 0.80289 0.84618 0.0
C799 C 0.36237 0.79405 0.8131 0.0
C800 C 0.33965 0.78416 0.84842 0.0
C801 C 0.35601 0.77548 0.81589 0.0
C802 C 0.36995 0.88549 0.83625 0.0
C803 C 0.35374 0.90933 0.85746 0.0
N804 N 0.37032 0.91891 0.85978 0.0
C805 C 0.3868 0.89558 0.83879 0.0
C806 C 0.35325 0.89242 0.84561 0.0
C807 C 0.3867 0.91244 0.85077 0.0
C808 C 0.40801 0.85839 0.78949 0.0
N809 N 0.39923 0.84297 0.79808 0.0
C810 C 0.42701 0.82422 0.79306 0.0
C811 C 0.40831 0.82611 0.80017 0.0
C812 C 0.43642 0.8399 0.78399 0.0
C813 C 0.4267 0.85717 0.78233 0.0
H814 H 0.40035 0.87158 0.78799 0.0
H815 H 0.40098 0.81413 0.8072 0.0
C816 C 0.334 0.84746 0.87919 0.0
N817 N 0.35071 0.85118 0.86902 0.0
C818 C 0.33279 0.84796 0.90208 0.0
C819 C 0.36584 0.85676 0.90349 0.0
C820 C 0.36651 0.85573 0.88061 0.0
C821 C 0.34885 0.85272 0.91447 0.0
H822 H 0.32168 0.84388 0.8695 0.0
H823 H 0.37962 0.85857 0.87204 0.0
C824 C 0.36598 0.84774 0.76347 0.0
N825 N 0.38839 0.84354 0.72652 0.0
C826 C 0.36763 0.8625 0.74831 0.0
C827 C 0.37534 0.83066 0.75948 0.0
C828 C 0.37911 0.86015 0.72981 0.0
C829 C 0.38673 0.82886 0.74084 0.0
C830 C 0.31069 0.85743 0.8134 0.0
C831 C 0.30777 0.85746 0.79067 0.0
C832 C 0.29535 0.86014 0.82753 0.0
C833 C 0.28952 0.86024 0.78248 0.0
C834 C 0.27731 0.86289 0.81869 0.0
N835 N 0.2748 0.86288 0.79654 0.0
C836 C 0.31169 0.80913 0.80666 0.0
C837 C 0.32837 0.80885 0.77288 0.0
C838 C 0.29905 0.79553 0.79886 0.0
N839 N 0.32597 0.81548 0.79364 0.0
C840 C 0.3161 0.79522 0.76442 0.0
C841 C 0.30111 0.78846 0.77741 0.0
H842 H 0.31 0.81482 0.82304 0.0
H843 H 0.33968 0.81425 0.76278 0.0
C844 C 0.35647 0.90213 0.78297 0.0
N845 N 0.34201 0.89346 0.79368 0.0
C846 C 0.35402 0.92006 0.77391 0.0
C847 C 0.32214 0.92047 0.78831 0.0
C848 C 0.32516 0.90238 0.79692 0.0
C849 C 0.33661 0.92938 0.77634 0.0
H850 H 0.36995 0.895 0.78142 0.0
H851 H 0.31409 0.89558 0.80624 0.0
O852 O 0.36269 0.82629 0.82555 0.0
O853 O 0.36985 0.86904 0.82441 0.0
O854 O 0.35496 0.84988 0.78185 0.0
O855 O 0.32836 0.85448 0.82193 0.0
H856 H 0.34144 0.81335 0.85812 0.0
H857 H 0.37119 0.79757 0.79921 0.0
H858 H 0.33077 0.78013 0.86212 0.0
H859 H 0.35992 0.76467 0.80416 0.0
H860 H 0.34094 0.91485 0.8648 0.0
H861 H 0.39982 0.89043 0.83156 0.0
H862 H 0.34005 0.88486 0.84373 0.0
H863 H 0.39965 0.9204 0.85288 0.0
H864 H 0.43408 0.81071 0.79483 0.0
H865 H 0.43337 0.86953 0.7752 0.0
H866 H 0.31942 0.84486 0.91001 0.0
H867 H 0.37855 0.86032 0.91253 0.0
H868 H 0.35995 0.87556 0.75057 0.0
H869 H 0.37404 0.819 0.77082 0.0
H870 H 0.38057 0.87151 0.71802 0.0
H871 H 0.39425 0.8158 0.73776 0.0
H872 H 0.31941 0.85538 0.77942 0.0
H873 H 0.29735 0.86013 0.84516 0.0
H874 H 0.28706 0.8603 0.76494 0.0
H875 H 0.26531 0.86502 0.82945 0.0
H876 H 0.28755 0.79095 0.80934 0.0
H877 H 0.31836 0.79002 0.7479 0.0
H878 H 0.36569 0.92665 0.76528 0.0
H879 H 0.30857 0.92729 0.7907 0.0
Li880 Li 0.14642 0.37145 0.80839 0.0
Li881 Li 0.14143 0.34997 0.83837 0.0
Li882 Li 0.15863 0.33986 0.80624 0.0
Li883 Li 0.12518 0.34483 0.80418 0.0
C884 C 0.17296 0.37272 0.84217 0.0
N885 N 0.18683 0.39859 0.87215 0.0
C886 C 0.16114 0.38682 0.85062 0.0
C887 C 0.19181 0.37178 0.84898 0.0
C888 C 0.16842 0.39976 0.86576 0.0
C889 C 0.19856 0.38499 0.86414 0.0
C890 C 0.1052 0.36579 0.8343 0.0
C891 C 0.08124 0.34817 0.85375 0.0
N892 N 0.07014 0.36388 0.85426 0.0
C893 C 0.09355 0.38174 0.83497 0.0
C894 C 0.09901 0.34884 0.84373 0.0
C895 C 0.07587 0.3805 0.84516 0.0
C896 C 0.13399 0.405 0.79035 0.0
N897 N 0.14958 0.39695 0.79939 0.0
C898 C 0.16752 0.42515 0.79338 0.0
C899 C 0.16624 0.4065 0.8009 0.0
C900 C 0.15158 0.4339 0.78397 0.0
C901 C 0.13468 0.42348 0.78243 0.0
H902 H 0.12105 0.39689 0.78906 0.0
H903 H 0.17855 0.39966 0.80782 0.0
C904 C 0.15003 0.33352 0.87909 0.0
N905 N 0.14036 0.34795 0.8695 0.0
C906 C 0.15026 0.33169 0.90195 0.0
C907 C 0.1304 0.35947 0.90452 0.0
C908 C 0.13079 0.36092 0.88169 0.0
C909 C 0.14026 0.34474 0.9149 0.0
H910 H 0.15767 0.32354 0.86895 0.0
H911 H 0.1236 0.37254 0.87373 0.0
C912 C 0.15627 0.36001 0.76684 0.0
N913 N 0.17978 0.3728 0.73375 0.0
C914 C 0.14969 0.36097 0.74523 0.0
C915 C 0.1748 0.36558 0.77164 0.0
C916 C 0.1618 0.36746 0.72872 0.0
C917 C 0.18646 0.372 0.75468 0.0
C918 C 0.13685 0.30803 0.81352 0.0
C919 C 0.1354 0.30566 0.79078 0.0
C920 C 0.1367 0.29217 0.82722 0.0
C921 C 0.13382 0.28743 0.78213 0.0
C922 C 0.13509 0.27416 0.81794 0.0
N923 N 0.13369 0.27219 0.79577 0.0
C924 C 0.19146 0.31798 0.81145 0.0
C925 C 0.17935 0.31825 0.77512 0.0
C926 C 0.20581 0.30547 0.80527 0.0
N927 N 0.17862 0.32404 0.79641 0.0
C928 C 0.19355 0.30594 0.76818 0.0
C929 C 0.20694 0.29931 0.78338 0.0
H930 H 0.19038 0.3227 0.82832 0.0
H931 H 0.16872 0.3229 0.76358 0.0
C932 C 0.09606 0.34954 0.77447 0.0
N933 N 0.102 0.33785 0.79075 0.0
C934 C 0.07872 0.34644 0.76418 0.0
C935 C 0.07398 0.31913 0.78749 0.0
C936 C 0.09142 0.32285 0.79743 0.0
C937 C 0.06736 0.33109 0.77069 0.0
H938 H 0.10469 0.36153 0.76977 0.0
H939 H 0.09638 0.3139 0.81063 0.0
O940 O 0.16621 0.35973 0.82746 0.0
O941 O 0.12244 0.36682 0.82414 0.0
O942 O 0.14444 0.35384 0.78314 0.0
O943 O 0.13862 0.32569 0.82248 0.0
H944 H 0.14653 0.38783 0.84554 0.0
H945 H 0.20113 0.36092 0.84261 0.0
H946 H 0.15944 0.41075 0.87243 0.0
H947 H 0.21313 0.38443 0.86955 0.0
H948 H 0.07628 0.33516 0.86112 0.0
H949 H 0.09812 0.39494 0.82767 0.0
H950 H 0.10781 0.33633 0.84336 0.0
H951 H 0.06671 0.39274 0.84581 0.0
H952 H 0.18081 0.43262 0.79508 0.0
H953 H 0.12215 0.4294 0.77485 0.0
H954 H 0.158 0.32013 0.90939 0.0
H955 H 0.12279 0.36997 0.914 0.0
H956 H 0.13537 0.35675 0.74127 0.0
H957 H 0.18016 0.36497 0.78825 0.0
H958 H 0.1569 0.36827 0.71191 0.0
H959 H 0.20083 0.37635 0.75816 0.0
H960 H 0.13549 0.31774 0.77989 0.0
H961 H 0.13786 0.29378 0.84486 0.0
H962 H 0.13269 0.2854 0.76456 0.0
H963 H 0.13496 0.26176 0.82835 0.0
H964 H 0.21592 0.3007 0.81744 0.0
H965 H 0.19375 0.30126 0.75124 0.0
H966 H 0.07407 0.35629 0.75168 0.0
H967 H 0.06579 0.30707 0.79294 0.0
Li968 Li 0.62645 0.15006 0.80532 0.0
Li969 Li 0.64381 0.14584 0.8399 0.0
Li970 Li 0.65955 0.15821 0.80574 0.0
Li971 Li 0.65127 0.12472 0.8087 0.0
C972 C 0.62584 0.184 0.82414 0.0
N973 N 0.59885 0.21227 0.82497 0.0
C974 C 0.61529 0.18725 0.84319 0.0
C975 C 0.62284 0.19528 0.80561 0.0
C976 C 0.60167 0.20158 0.84326 0.0
C977 C 0.60907 0.20945 0.80632 0.0
C978 C 0.61795 0.11514 0.83842 0.0
C979 C 0.61859 0.08774 0.86205 0.0
N980 N 0.59974 0.08985 0.86588 0.0
C981 C 0.59854 0.11688 0.84236 0.0
C982 C 0.62802 0.10032 0.84815 0.0
C983 C 0.58962 0.10402 0.85638 0.0
C984 C 0.60017 0.15216 0.77093 0.0
N985 N 0.60231 0.15512 0.79284 0.0
C986 C 0.56944 0.16241 0.79658 0.0
C987 C 0.58743 0.16024 0.80571 0.0
C988 C 0.56673 0.15901 0.77407 0.0
C989 C 0.58243 0.15406 0.76114 0.0
H990 H 0.61214 0.14782 0.76112 0.0
H991 H 0.58942 0.16209 0.82318 0.0
C992 C 0.65859 0.15161 0.88234 0.0
N993 N 0.64249 0.14758 0.87105 0.0
C994 C 0.65834 0.15252 0.90525 0.0
C995 C 0.62484 0.14564 0.90445 0.0
C996 C 0.62573 0.14493 0.88157 0.0
C997 C 0.64132 0.14933 0.91661 0.0
H998 H 0.67167 0.15395 0.87353 0.0
H999 H 0.61301 0.14244 0.87222 0.0
C1000 C 0.65423 0.1466 0.76424 0.0
N1001 N 0.67116 0.15581 0.72474 0.0
C1002 C 0.66681 0.13398 0.75429 0.0
C1003 C 0.65005 0.16378 0.75395 0.0
C1004 C 0.67527 0.13892 0.73435 0.0
C1005 C 0.65882 0.16822 0.73404 0.0
C1006 C 0.68355 0.12847 0.83532 0.0
C1007 C 0.70164 0.1298 0.82617 0.0
C1008 C 0.68041 0.1162 0.85296 0.0
C1009 C 0.71619 0.11849 0.83447 0.0
C1010 C 0.69532 0.10514 0.86082 0.0
N1011 N 0.71275 0.10648 0.85146 0.0
C1012 C 0.67608 0.1941 0.79977 0.0
C1013 C 0.69249 0.16903 0.78231 0.0
C1014 C 0.68906 0.20723 0.79164 0.0
N1015 N 0.67794 0.17544 0.79486 0.0
C1016 C 0.70571 0.18167 0.77368 0.0
C1017 C 0.70408 0.2011 0.77827 0.0
H1018 H 0.66454 0.19879 0.81006 0.0
H1019 H 0.69375 0.1541 0.77881 0.0
C1020 C 0.64185 0.08804 0.79683 0.0
N1021 N 0.65704 0.09947 0.80012 0.0
C1022 C 0.64436 0.06937 0.79012 0.0
C1023 C 0.67815 0.07465 0.78952 0.0
C1024 C 0.67497 0.09324 0.79646 0.0
C1025 C 0.6627 0.06244 0.78638 0.0
H1026 H 0.62771 0.0935 0.79925 0.0
H1027 H 0.68679 0.10274 0.79849 0.0
O1028 O 0.63913 0.16993 0.8237 0.0
O1029 O 0.6269 0.12763 0.82472 0.0
O1030 O 0.64594 0.14208 0.78387 0.0
O1031 O 0.66915 0.13949 0.82739 0.0
H1032 H 0.61753 0.17877 0.85773 0.0
H1033 H 0.63101 0.19308 0.79082 0.0
H1034 H 0.59333 0.20419 0.85785 0.0
H1035 H 0.60652 0.21821 0.79205 0.0
H1036 H 0.62623 0.07623 0.86971 0.0
H1037 H 0.59047 0.12811 0.83479 0.0
H1038 H 0.64289 0.09838 0.84477 0.0
H1039 H 0.57463 0.10529 0.8597 0.0
H1040 H 0.55766 0.16598 0.80718 0.0
H1041 H 0.58096 0.15143 0.7437 0.0
H1042 H 0.67139 0.15533 0.91399 0.0
H1043 H 0.61135 0.14351 0.91252 0.0
H1044 H 0.67011 0.12058 0.76194 0.0
H1045 H 0.6402 0.17361 0.76131 0.0
H1046 H 0.68513 0.12934 0.72653 0.0
H1047 H 0.65582 0.18152 0.72598 0.0
H1048 H 0.70441 0.13938 0.81271 0.0
H1049 H 0.66669 0.11539 0.86071 0.0
H1050 H 0.73022 0.11928 0.82743 0.0
H1051 H 0.69305 0.09555 0.87442 0.0
H1052 H 0.68743 0.222 0.79598 0.0
H1053 H 0.7169 0.17628 0.76326 0.0
H1054 H 0.63203 0.06057 0.78741 0.0
H1055 H 0.69251 0.06986 0.78673 0.0
Li1056 Li 0.87397 0.34789 0.68889 0.0
Li1057 Li 0.84037 0.33974 0.69102 0.0
Li1058 Li 0.85345 0.35509 0.65694 0.0
Li1059 Li 0.84879 0.37264 0.69121 0.0
C1060 C 0.86947 0.31488 0.66208 0.0
N1061 N 0.88908 0.28409 0.6457 0.0
C1062 C 0.86846 0.29736 0.6727 0.0
C1063 C 0.88014 0.31658 0.64284 0.0
C1064 C 0.87857 0.28201 0.66426 0.0
C1065 C 0.89004 0.3009 0.63489 0.0
C1066 C 0.85103 0.34516 0.7327 0.0
C1067 C 0.82791 0.33924 0.76105 0.0
N1068 N 0.84067 0.32823 0.77183 0.0
C1069 C 0.86395 0.33389 0.74413 0.0
C1070 C 0.83289 0.34798 0.7413 0.0
C1071 C 0.85843 0.32542 0.76386 0.0
C1072 C 0.91136 0.35613 0.70043 0.0
N1073 N 0.89896 0.34156 0.69813 0.0
C1074 C 0.92247 0.31944 0.70995 0.0
C1075 C 0.90406 0.32347 0.70297 0.0
C1076 C 0.93569 0.33418 0.71178 0.0
C1077 C 0.92994 0.35272 0.70698 0.0
H1078 H 0.90679 0.37046 0.69726 0.0
H1079 H 0.89379 0.31222 0.7018 0.0
C1080 C 0.80445 0.32289 0.69524 0.0
N1081 N 0.82287 0.32134 0.70134 0.0
C1082 C 0.79109 0.30992 0.70289 0.0
C1083 C 0.81595 0.29393 0.72287 0.0
C1084 C 0.82883 0.30712 0.71468 0.0
C1085 C 0.79676 0.29523 0.71703 0.0
H1086 H 0.80012 0.33422 0.68441 0.0
H1087 H 0.84357 0.30617 0.71927 0.0
C1088 C 0.88587 0.37895 0.65916 0.0
N1089 N 0.91469 0.39273 0.63294 0.0
C1090 C 0.88761 0.3984 0.65549 0.0
C1091 C 0.89895 0.36656 0.64973 0.0
C1092 C 0.90223 0.40508 0.64211 0.0
C1093 C 0.91338 0.37378 0.63647 0.0
C1094 C 0.81616 0.37434 0.67123 0.0
C1095 C 0.8157 0.38608 0.65276 0.0
C1096 C 0.80343 0.37741 0.68844 0.0
C1097 C 0.80261 0.40088 0.65193 0.0
C1098 C 0.79057 0.39237 0.687 0.0
N1099 N 0.79044 0.4037 0.66894 0.0
C1100 C 0.84363 0.34035 0.6159 0.0
C1101 C 0.85872 0.37026 0.6138 0.0
C1102 C 0.84248 0.33936 0.59302 0.0
N1103 N 0.85187 0.35551 0.62576 0.0
C1104 C 0.85808 0.36976 0.59091 0.0
C1105 C 0.84998 0.35411 0.58026 0.0
H1106 H 0.83817 0.3289 0.62585 0.0
H1107 H 0.86464 0.38243 0.62196 0.0
C1108 C 0.84088 0.39866 0.72506 0.0
N1109 N 0.8432 0.39695 0.703 0.0
C1110 C 0.83802 0.41639 0.73451 0.0
C1111 C 0.83982 0.43037 0.69833 0.0
C1112 C 0.84253 0.4123 0.68956 0.0
C1113 C 0.83781 0.43262 0.72117 0.0
H1114 H 0.84165 0.3863 0.73542 0.0
H1115 H 0.84449 0.41055 0.67207 0.0
O1116 O 0.85946 0.33001 0.67003 0.0
O1117 O 0.85616 0.35345 0.71327 0.0
O1118 O 0.87155 0.3722 0.67214 0.0
O1119 O 0.82911 0.36002 0.67252 0.0
H1120 H 0.8601 0.29565 0.68741 0.0
H1121 H 0.88066 0.32979 0.63393 0.0
H1122 H 0.87804 0.26844 0.67245 0.0
H1123 H 0.8984 0.30208 0.62007 0.0
H1124 H 0.81388 0.34118 0.76779 0.0
H1125 H 0.87808 0.33167 0.73784 0.0
H1126 H 0.82271 0.35663 0.73266 0.0
H1127 H 0.86827 0.3166 0.77283 0.0
H1128 H 0.92637 0.30497 0.71369 0.0
H1129 H 0.93962 0.36451 0.70868 0.0
H1130 H 0.77652 0.3113 0.69763 0.0
H1131 H 0.82096 0.28306 0.73395 0.0
H1132 H 0.87777 0.40825 0.66284 0.0
H1133 H 0.89818 0.35157 0.65292 0.0
H1134 H 0.90367 0.42009 0.63905 0.0
H1135 H 0.92359 0.36432 0.62908 0.0
H1136 H 0.82546 0.38392 0.63931 0.0
H1137 H 0.80356 0.36841 0.7028 0.0
H1138 H 0.80216 0.41015 0.6378 0.0
H1139 H 0.78071 0.39498 0.70025 0.0
H1140 H 0.83619 0.32703 0.5854 0.0
H1141 H 0.8637 0.38157 0.58161 0.0
H1142 H 0.83623 0.41738 0.75214 0.0
H1143 H 0.83998 0.44246 0.68741 0.0
Li1144 Li 0.65245 0.87308 0.69022 0.0
Li1145 Li 0.66075 0.83957 0.68981 0.0
Li1146 Li 0.64496 0.85398 0.6573 0.0
Li1147 Li 0.62775 0.84746 0.69147 0.0
C1148 C 0.68302 0.87201 0.66051 0.0
N1149 N 0.70858 0.89636 0.64094 0.0
C1150 C 0.70224 0.87098 0.66579 0.0
C1151 C 0.67686 0.88526 0.64505 0.0
C1152 C 0.71493 0.88346 0.65579 0.0
C1153 C 0.68998 0.89748 0.63539 0.0
C1154 C 0.65687 0.84815 0.7317 0.0
C1155 C 0.663 0.82469 0.75958 0.0
N1156 N 0.67655 0.8361 0.76832 0.0
C1157 C 0.67075 0.85971 0.74105 0.0
C1158 C 0.65284 0.83057 0.74112 0.0
C1159 C 0.68057 0.85333 0.75955 0.0
C1160 C 0.64261 0.9062 0.71079 0.0
N1161 N 0.65783 0.89743 0.70175 0.0
C1162 C 0.67799 0.92303 0.71229 0.0
C1163 C 0.67534 0.90541 0.70231 0.0
C1164 C 0.66251 0.93234 0.72194 0.0
C1165 C 0.64461 0.92375 0.72092 0.0
H1166 H 0.6289 0.89941 0.71025 0.0
H1167 H 0.68731 0.89797 0.69549 0.0
C1168 C 0.67636 0.80323 0.69686 0.0
N1169 N 0.67945 0.82209 0.69922 0.0
C1170 C 0.68959 0.79021 0.70469 0.0
C1171 C 0.70906 0.81631 0.71688 0.0
C1172 C 0.69548 0.82881 0.70876 0.0
C1173 C 0.70614 0.79672 0.71502 0.0
H1174 H 0.66354 0.79827 0.6891 0.0
H1175 H 0.69757 0.84389 0.71035 0.0
C1176 C 0.61838 0.88469 0.66274 0.0
N1177 N 0.59847 0.91232 0.64037 0.0
C1178 C 0.59926 0.88202 0.65772 0.0
C1179 C 0.62725 0.90161 0.65675 0.0
C1180 C 0.58948 0.89608 0.64628 0.0
C1181 C 0.61698 0.91535 0.64536 0.0
C1182 C 0.62661 0.81527 0.66945 0.0
C1183 C 0.61653 0.81322 0.64984 0.0
C1184 C 0.62268 0.8033 0.68716 0.0
C1185 C 0.60249 0.79935 0.64838 0.0
C1186 C 0.60852 0.78963 0.68506 0.0
N1187 N 0.59879 0.78796 0.66588 0.0
C1188 C 0.65981 0.84924 0.615 0.0
C1189 C 0.62744 0.85799 0.61527 0.0
C1190 C 0.65996 0.84897 0.59208 0.0
N1191 N 0.64378 0.85392 0.62607 0.0
C1192 C 0.62692 0.85783 0.59235 0.0
C1193 C 0.64336 0.85336 0.58045 0.0
H1194 H 0.67251 0.8457 0.62402 0.0
H1195 H 0.61476 0.86114 0.62441 0.0
C1196 C 0.6021 0.84374 0.72617 0.0
N1197 N 0.60373 0.84178 0.70405 0.0
C1198 C 0.58456 0.84157 0.73637 0.0
C1199 C 0.5707 0.83499 0.70088 0.0
C1200 C 0.58853 0.83735 0.69135 0.0
C1201 C 0.56851 0.83744 0.72364 0.0
H1202 H 0.61433 0.84749 0.73587 0.0
H1203 H 0.59013 0.83616 0.67375 0.0
O1204 O 0.67043 0.85989 0.67023 0.0
O1205 O 0.64735 0.85398 0.71335 0.0
O1206 O 0.6281 0.87111 0.67414 0.0
O1207 O 0.64032 0.82884 0.67123 0.0
H1208 H 0.70732 0.86069 0.67754 0.0
H1209 H 0.66216 0.88597 0.64033 0.0
H1210 H 0.72983 0.88287 0.65981 0.0
H1211 H 0.68537 0.90782 0.62342 0.0
H1212 H 0.66013 0.81106 0.76693 0.0
H1213 H 0.67404 0.87335 0.73399 0.0
H1214 H 0.64208 0.8215 0.73413 0.0
H1215 H 0.69144 0.86207 0.76688 0.0
H1216 H 0.69207 0.92907 0.71294 0.0
H1217 H 0.63223 0.93053 0.72786 0.0
H1218 H 0.68669 0.77523 0.70309 0.0
H1219 H 0.72172 0.82194 0.72446 0.0
H1220 H 0.59208 0.86914 0.66241 0.0
H1221 H 0.64183 0.90426 0.66105 0.0
H1222 H 0.57472 0.8941 0.64213 0.0
H1223 H 0.6237 0.92847 0.64058 0.0
H1224 H 0.61946 0.82225 0.63592 0.0
H1225 H 0.63036 0.80468 0.70244 0.0
H1226 H 0.59453 0.79765 0.63333 0.0
H1227 H 0.60524 0.78037 0.69869 0.0
H1228 H 0.67285 0.84511 0.58358 0.0
H1229 H 0.61384 0.86136 0.58405 0.0
H1230 H 0.58353 0.84339 0.75399 0.0
H1231 H 0.55866 0.83204 0.69043 0.0
Li1232 Li 0.12441 0.65106 0.68997 0.0
Li1233 Li 0.15713 0.65839 0.69033 0.0
Li1234 Li 0.14125 0.64594 0.65653 0.0
Li1235 Li 0.14613 0.6257 0.68971 0.0
C1236 C 0.127 0.68628 0.67287 0.0
N1237 N 0.10533 0.71871 0.6754 0.0
C1238 C 0.12564 0.69616 0.69268 0.0
C1239 C 0.1175 0.69294 0.65428 0.0
C1240 C 0.11455 0.7125 0.69365 0.0
C1241 C 0.10658 0.70937 0.65591 0.0
C1242 C 0.15493 0.64056 0.73004 0.0
C1243 C 0.18537 0.62981 0.74298 0.0
N1244 N 0.17947 0.63223 0.76406 0.0
C1245 C 0.1492 0.64294 0.75184 0.0
C1246 C 0.17319 0.63395 0.72556 0.0
C1247 C 0.1618 0.63865 0.76881 0.0
C1248 C 0.09706 0.64929 0.72231 0.0
N1249 N 0.10024 0.65729 0.70236 0.0
C1250 C 0.06843 0.66881 0.70106 0.0
C1251 C 0.08642 0.66709 0.69172 0.0
C1252 C 0.06463 0.66018 0.72138 0.0
C1253 C 0.07933 0.65061 0.73219 0.0
H1254 H 0.10812 0.64123 0.73021 0.0
H1255 H 0.08902 0.67284 0.67559 0.0
C1256 C 0.19186 0.67791 0.68823 0.0
N1257 N 0.17614 0.67501 0.70062 0.0
C1258 C 0.20621 0.68985 0.69578 0.0
C1259 C 0.18781 0.69556 0.72863 0.0
C1260 C 0.17381 0.68361 0.7204 0.0
C1261 C 0.2043 0.69878 0.71629 0.0
H1262 H 0.19326 0.67091 0.67252 0.0
H1263 H 0.16107 0.68115 0.72982 0.0
C1264 C 0.10448 0.62628 0.668 0.0
N1265 N 0.06571 0.62319 0.66331 0.0
C1266 C 0.09421 0.61402 0.68152 0.0
C1267 C 0.09504 0.6369 0.65202 0.0
C1268 C 0.07461 0.61271 0.67894 0.0
C1269 C 0.07544 0.63512 0.64989 0.0
C1270 C 0.17492 0.62509 0.65691 0.0
C1271 C 0.16466 0.61085 0.64631 0.0
C1272 C 0.19437 0.62668 0.65324 0.0
C1273 C 0.17405 0.59844 0.63217 0.0
C1274 C 0.20326 0.61397 0.639 0.0
N1275 N 0.193 0.60024 0.62884 0.0
C1276 C 0.15136 0.66066 0.61525 0.0
C1277 C 0.13292 0.63266 0.61378 0.0
C1278 C 0.15284 0.66097 0.59236 0.0
N1279 N 0.14159 0.6466 0.6254 0.0
C1280 C 0.13406 0.63239 0.59091 0.0
C1281 C 0.14424 0.6466 0.5799 0.0
H1282 H 0.15824 0.67145 0.62499 0.0
H1283 H 0.12533 0.62159 0.6223 0.0
C1284 C 0.13694 0.59608 0.71678 0.0
N1285 N 0.14996 0.60094 0.70137 0.0
C1286 C 0.13753 0.57834 0.72674 0.0
C1287 C 0.16527 0.57095 0.70519 0.0
C1288 C 0.16427 0.58899 0.69583 0.0
C1289 C 0.15164 0.56532 0.72073 0.0
H1290 H 0.12609 0.60611 0.72141 0.0
H1291 H 0.17494 0.59332 0.6842 0.0
O1292 O 0.13776 0.67028 0.67154 0.0
O1293 O 0.14265 0.64478 0.71334 0.0
O1294 O 0.12362 0.62814 0.67062 0.0
O1295 O 0.16599 0.63773 0.67042 0.0
H1296 H 0.13289 0.69113 0.7072 0.0
H1297 H 0.11848 0.68544 0.63881 0.0
H1298 H 0.11326 0.72024 0.70891 0.0
H1299 H 0.09908 0.71467 0.6417 0.0
H1300 H 0.19952 0.62468 0.73974 0.0
H1301 H 0.13516 0.64812 0.75563 0.0
H1302 H 0.178 0.63202 0.70888 0.0
H1303 H 0.15753 0.64044 0.78575 0.0
H1304 H 0.0574 0.67607 0.69203 0.0
H1305 H 0.07707 0.6439 0.74797 0.0
H1306 H 0.21876 0.69184 0.68583 0.0
H1307 H 0.18565 0.70239 0.74436 0.0
H1308 H 0.10126 0.6057 0.69396 0.0
H1309 H 0.10271 0.64669 0.64166 0.0
H1310 H 0.06647 0.60337 0.68938 0.0
H1311 H 0.06794 0.64334 0.63769 0.0
H1312 H 0.14965 0.60925 0.64913 0.0
H1313 H 0.20252 0.63763 0.66129 0.0
H1314 H 0.16628 0.58735 0.62389 0.0
H1315 H 0.21831 0.61503 0.63601 0.0
H1316 H 0.161 0.67206 0.58457 0.0
H1317 H 0.12701 0.62119 0.58195 0.0
H1318 H 0.12707 0.57496 0.73912 0.0
H1319 H 0.17642 0.56145 0.69999 0.0
Li1320 Li 0.34584 0.1227 0.6917 0.0
Li1321 Li 0.33825 0.1563 0.69684 0.0
Li1322 Li 0.34983 0.1436 0.66093 0.0
Li1323 Li 0.37175 0.14714 0.69182 0.0
C1324 C 0.3104 0.12645 0.67825 0.0
N1325 N 0.27938 0.10291 0.68211 0.0
C1326 C 0.29606 0.13069 0.69327 0.0
C1327 C 0.3089 0.11034 0.66504 0.0
C1328 C 0.2805 0.11859 0.695 0.0
C1329 C 0.29313 0.09858 0.6673 0.0
C1330 C 0.35642 0.14335 0.73752 0.0
C1331 C 0.37037 0.16157 0.76686 0.0
N1332 N 0.36138 0.15044 0.78181 0.0
C1333 C 0.34746 0.13199 0.75318 0.0
C1334 C 0.36809 0.15818 0.74441 0.0
C1335 C 0.35009 0.13584 0.77548 0.0
C1336 C 0.35145 0.0835 0.69373 0.0
N1337 N 0.34004 0.09764 0.70098 0.0
C1338 C 0.32208 0.07578 0.72253 0.0
C1339 C 0.32555 0.09416 0.71513 0.0
C1340 C 0.33376 0.06087 0.71546 0.0
C1341 C 0.34856 0.06495 0.70076 0.0
H1342 H 0.36309 0.08669 0.68283 0.0
H1343 H 0.31684 0.1057 0.7209 0.0
C1344 C 0.31374 0.18698 0.69607 0.0
N1345 N 0.32171 0.17421 0.70993 0.0
C1346 C 0.30176 0.20102 0.70418 0.0
C1347 C 0.30633 0.18844 0.74072 0.0
C1348 C 0.31812 0.17456 0.73186 0.0
C1349 C 0.29799 0.20198 0.72683 0.0
H1350 H 0.31679 0.18626 0.67867 0.0
H1351 H 0.32443 0.16417 0.74256 0.0
C1352 C 0.37689 0.11843 0.65378 0.0
N1353 N 0.39388 0.1062 0.61546 0.0
C1354 C 0.39504 0.12468 0.64829 0.0
C1355 C 0.36744 0.10581 0.63991 0.0
C1356 C 0.40338 0.11835 0.62882 0.0
C1357 C 0.37625 0.09985 0.62056 0.0
C1358 C 0.36372 0.18539 0.67797 0.0
C1359 C 0.37078 0.19476 0.65948 0.0
C1360 C 0.36293 0.19485 0.69811 0.0
C1361 C 0.3772 0.21338 0.66153 0.0
C1362 C 0.36946 0.21347 0.69949 0.0
N1363 N 0.37642 0.22226 0.68133 0.0
C1364 C 0.3319 0.14115 0.61935 0.0
C1365 C 0.36359 0.1521 0.61869 0.0
C1366 C 0.33086 0.14217 0.59647 0.0
N1367 N 0.34815 0.14593 0.6299 0.0
C1368 C 0.36325 0.15318 0.59582 0.0
C1369 C 0.34674 0.14813 0.58435 0.0
H1370 H 0.31976 0.13649 0.6287 0.0
H1371 H 0.3763 0.15587 0.62753 0.0
C1372 C 0.40491 0.13655 0.71214 0.0
N1373 N 0.39715 0.15116 0.70077 0.0
C1374 C 0.42355 0.1376 0.7195 0.0
C1375 C 0.42589 0.16883 0.7035 0.0
C1376 C 0.40722 0.1671 0.69625 0.0
C1377 C 0.43429 0.1539 0.71519 0.0
H1378 H 0.39653 0.12406 0.71544 0.0
H1379 H 0.40089 0.17843 0.68693 0.0
O1380 O 0.3258 0.13806 0.67642 0.0
O1381 O 0.35402 0.1397 0.71561 0.0
O1382 O 0.36838 0.12468 0.6726 0.0
O1383 O 0.35735 0.16717 0.67617 0.0
H1384 H 0.29699 0.14313 0.70359 0.0
H1385 H 0.31988 0.10688 0.65333 0.0
H1386 H 0.26933 0.12164 0.70662 0.0
H1387 H 0.29184 0.086 0.65729 0.0
H1388 H 0.37934 0.17302 0.77241 0.0
H1389 H 0.33849 0.12038 0.74818 0.0
H1390 H 0.37545 0.16692 0.73262 0.0
H1391 H 0.34315 0.12722 0.78776 0.0
H1392 H 0.31042 0.07329 0.73372 0.0
H1393 H 0.35819 0.05403 0.69523 0.0
H1394 H 0.2954 0.2109 0.69276 0.0
H1395 H 0.30402 0.18871 0.7583 0.0
H1396 H 0.40255 0.13444 0.65885 0.0
H1397 H 0.35339 0.10083 0.64395 0.0
H1398 H 0.41739 0.12315 0.62429 0.0
H1399 H 0.36905 0.0902 0.60959 0.0
H1400 H 0.37135 0.18773 0.64372 0.0
H1401 H 0.35724 0.18799 0.71251 0.0
H1402 H 0.38277 0.22076 0.64737 0.0
H1403 H 0.36896 0.22094 0.71499 0.0
H1404 H 0.31773 0.13846 0.5884 0.0
H1405 H 0.37593 0.15759 0.58724 0.0
H1406 H 0.42945 0.12586 0.72865 0.0
H1407 H 0.43379 0.18154 0.69965 0.0
H1408 H 0.28608 0.20897 0.23622 0.0
H1409 H 0.21762 0.29688 0.25991 0.0
H1410 H 0.2789 0.23403 0.30033 0.0
H1411 H 0.21922 0.26697 0.19813 0.0
H1412 H 0.2413 0.27503 0.27453 0.0
H1413 H 0.26286 0.23121 0.22144 0.0
C1414 C 0.27969 0.21923 0.24716 0.0
C1415 C 0.28443 0.21965 0.26955 0.0
C1416 C 0.23646 0.27323 0.25778 0.0
C1417 C 0.25774 0.24506 0.25278 0.0
C1418 C 0.22303 0.28576 0.24939 0.0
C1419 C 0.21645 0.28374 0.22777 0.0
C1420 C 0.24346 0.25862 0.24441 0.0
C1421 C 0.22375 0.26892 0.21496 0.0
C1422 C 0.26635 0.23184 0.23875 0.0
C1423 C 0.27551 0.23307 0.28303 0.0
N1424 N 0.2369 0.25696 0.22346 0.0
N1425 N 0.26263 0.24527 0.27443 0.0
H1426 H 0.79451 0.25787 0.28548 0.0
H1427 H 0.70034 0.24052 0.21523 0.0
H1428 H 0.7606 0.30278 0.25791 0.0
H1429 H 0.73208 0.19561 0.24609 0.0
H1430 H 0.72222 0.26353 0.23096 0.0
H1431 H 0.77171 0.23481 0.27152 0.0
C1432 C 0.7822 0.2629 0.27664 0.0
C1433 C 0.77952 0.2823 0.2728 0.0
C1434 C 0.7244 0.24864 0.23433 0.0
C1435 C 0.75347 0.25596 0.25654 0.0
C1436 C 0.71184 0.23549 0.22544 0.0
C1437 C 0.71437 0.21608 0.22932 0.0
C1438 C 0.73965 0.24237 0.2472 0.0
C1439 C 0.72973 0.2104 0.2424 0.0
C1440 C 0.76924 0.24972 0.26856 0.0
C1441 C 0.76343 0.28796 0.26096 0.0
N1442 N 0.74179 0.22348 0.25085 0.0
N1443 N 0.75105 0.27486 0.25323 0.0
H1444 H 0.79824 0.72397 0.26103 0.0
H1445 H 0.69462 0.76757 0.24572 0.0
H1446 H 0.7625 0.71191 0.2053 0.0
H1447 H 0.7344 0.78729 0.29446 0.0
H1448 H 0.71855 0.74564 0.232 0.0
H1449 H 0.77412 0.74564 0.27505 0.0
C1450 C 0.78527 0.72584 0.2518 0.0
C1451 C 0.78236 0.71615 0.23197 0.0
C1452 C 0.72203 0.75477 0.2457 0.0
C1453 C 0.75474 0.74095 0.24785 0.0
C1454 C 0.7084 0.76737 0.25349 0.0
C1455 C 0.71248 0.77936 0.27127 0.0
C1456 C 0.73987 0.75406 0.25579 0.0
C1457 C 0.73049 0.77816 0.28093 0.0
C1458 C 0.77156 0.73828 0.25974 0.0
C1459 C 0.7654 0.71926 0.22053 0.0
N1460 N 0.74351 0.76575 0.27307 0.0
N1461 N 0.75221 0.73135 0.22867 0.0
H1462 H 0.27775 0.79853 0.25886 0.0
H1463 H 0.21177 0.7091 0.23336 0.0
H1464 H 0.27206 0.77331 0.19462 0.0
H1465 H 0.21851 0.7332 0.29804 0.0
H1466 H 0.23304 0.73319 0.21868 0.0
H1467 H 0.25502 0.77562 0.27326 0.0
C1468 C 0.2716 0.78827 0.24774 0.0
C1469 C 0.27685 0.78781 0.2255 0.0
C1470 C 0.22986 0.73324 0.23608 0.0
C1471 C 0.25097 0.7614 0.24193 0.0
C1472 C 0.21779 0.71942 0.2445 0.0
C1473 C 0.21342 0.71906 0.26699 0.0
C1474 C 0.23767 0.74684 0.25025 0.0
C1475 C 0.22135 0.73303 0.28057 0.0
C1476 C 0.25871 0.77512 0.256 0.0
C1477 C 0.26863 0.77402 0.21193 0.0
N1478 N 0.23313 0.74632 0.27199 0.0
N1479 N 0.25613 0.76136 0.22037 0.0
H1480 H 0.72537 0.79896 0.754 0.0
H1481 H 0.77961 0.70051 0.73741 0.0
H1482 H 0.71872 0.76354 0.69675 0.0
H1483 H 0.786 0.73592 0.79471 0.0
H1484 H 0.75778 0.72373 0.72187 0.0
H1485 H 0.74813 0.77633 0.76882 0.0
C1486 C 0.7288 0.78648 0.74446 0.0
C1487 C 0.72013 0.78315 0.72408 0.0
C1488 C 0.76396 0.72643 0.73784 0.0
C1489 C 0.74604 0.75704 0.74108 0.0
C1490 C 0.77651 0.71323 0.74667 0.0
C1491 C 0.78464 0.71626 0.76742 0.0
C1492 C 0.7595 0.74282 0.74981 0.0
C1493 C 0.77988 0.73287 0.77881 0.0
C1494 C 0.74172 0.7735 0.753 0.0
C1495 C 0.72489 0.76657 0.71264 0.0
N1496 N 0.76764 0.74551 0.76985 0.0
N1497 N 0.73752 0.75414 0.72129 0.0
H1498 H 0.22453 0.72554 0.69372 0.0
H1499 H 0.28485 0.75817 0.79846 0.0
H1500 H 0.21828 0.7009 0.75819 0.0
H1501 H 0.28615 0.78693 0.73588 0.0
H1502 H 0.26177 0.73589 0.7835 0.0
H1503 H 0.24878 0.74677 0.70828 0.0
C1504 C 0.22836 0.72451 0.71091 0.0
C1505 C 0.21933 0.71147 0.72477 0.0
C1506 C 0.26713 0.74706 0.77304 0.0
C1507 C 0.24696 0.73582 0.7416 0.0
C1508 C 0.28024 0.75985 0.7816 0.0
C1509 C 0.28745 0.77449 0.76843 0.0
C1510 C 0.26118 0.74888 0.75113 0.0
C1511 C 0.2812 0.77574 0.74657 0.0
C1512 C 0.24212 0.73671 0.71924 0.0
C1513 C 0.22469 0.71091 0.74698 0.0
N1514 N 0.26842 0.76313 0.73863 0.0
N1515 N 0.23815 0.72291 0.7547 0.0
H1516 H 0.21787 0.26681 0.80422 0.0
H1517 H 0.29517 0.2391 0.71386 0.0
H1518 H 0.22918 0.30057 0.74664 0.0
H1519 H 0.27223 0.19917 0.76054 0.0
H1520 H 0.27388 0.26327 0.72833 0.0
H1521 H 0.24097 0.24347 0.79136 0.0
C1522 C 0.22537 0.26939 0.78899 0.0
C1523 C 0.2216 0.2856 0.77643 0.0
C1524 C 0.27354 0.24921 0.7354 0.0
C1525 C 0.2479 0.25898 0.7616 0.0
C1526 C 0.28561 0.23535 0.72706 0.0
C1527 C 0.28545 0.21697 0.73587 0.0
C1528 C 0.26129 0.24476 0.7528 0.0
C1529 C 0.27305 0.21315 0.75337 0.0
C1530 C 0.23842 0.25601 0.78158 0.0
C1531 C 0.23154 0.28815 0.75669 0.0
N1532 N 0.26147 0.22692 0.76125 0.0
N1533 N 0.24425 0.27499 0.74988 0.0
H1534 H 0.7424 0.19656 0.77279 0.0
H1535 H 0.76012 0.30186 0.73003 0.0
H1536 H 0.69743 0.23707 0.76298 0.0
H1537 H 0.80143 0.25711 0.72404 0.0
H1538 H 0.73746 0.27898 0.74455 0.0
H1539 H 0.76482 0.21926 0.75745 0.0
C1540 C 0.73719 0.21016 0.76729 0.0
C1541 C 0.71794 0.21485 0.76917 0.0
C1542 C 0.75148 0.27418 0.74 0.0
C1543 C 0.74366 0.24105 0.75192 0.0
C1544 C 0.76441 0.28721 0.73159 0.0
C1545 C 0.78276 0.28144 0.72575 0.0
C1546 C 0.75694 0.25523 0.74278 0.0
C1547 C 0.78757 0.26231 0.72861 0.0
C1548 C 0.75003 0.22316 0.75863 0.0
C1549 C 0.71214 0.23289 0.76218 0.0
N1550 N 0.77477 0.24992 0.73697 0.0
N1551 N 0.72495 0.24533 0.7539 0.0
H1552 H 0.10997 0.34665 0.94264 0.0
H1553 H 0.17165 0.35003 0.05178 0.0
H1554 H 0.17059 0.33957 0.9422 0.0
H1555 H 0.11203 0.33643 0.05176 0.0
H1556 H 0.17161 0.34841 0.01171 0.0
H1557 H 0.11037 0.34548 0.98283 0.0
C1558 C 0.12335 0.34484 0.95105 0.0
C1559 C 0.14027 0.34323 0.93915 0.0
C1560 C 0.15857 0.3457 0.02053 0.0
C1561 C 0.14087 0.34198 0.98502 0.0
C1562 C 0.15858 0.34652 0.04345 0.0
C1563 C 0.14179 0.34344 0.05531 0.0
C1564 C 0.14162 0.342 0.00933 0.0
C1565 C 0.12524 0.33932 0.04342 0.0
C1566 C 0.12357 0.34407 0.97394 0.0
C1567 C 0.15722 0.34073 0.9508 0.0
N1568 N 0.12556 0.33884 0.02112 0.0
N1569 N 0.15712 0.34034 0.97313 0.0
H1570 H 0.62264 0.12506 0.94411 0.0
H1571 H 0.656 0.1771 0.05434 0.0
H1572 H 0.65879 0.17428 0.94459 0.0
H1573 H 0.62545 0.12419 0.05335 0.0
H1574 H 0.65595 0.17725 0.01418 0.0
H1575 H 0.62201 0.12563 0.9842 0.0
C1576 C 0.63035 0.13607 0.95266 0.0
C1577 C 0.64077 0.14965 0.94097 0.0
C1578 C 0.64924 0.16562 0.02277 0.0
C1579 C 0.64026 0.1503 0.98693 0.0
C1580 C 0.64934 0.16548 0.0457 0.0
C1581 C 0.64073 0.1506 0.05729 0.0
C1582 C 0.64044 0.1508 0.01129 0.0
C1583 C 0.63203 0.1361 0.04517 0.0
C1584 C 0.63008 0.13632 0.97556 0.0
C1585 C 0.65074 0.16341 0.95294 0.0
N1586 N 0.63213 0.13656 0.02287 0.0
N1587 N 0.65021 0.1634 0.97526 0.0
H1588 H 0.83417 0.67641 0.94758 0.0
H1589 H 0.87807 0.63219 0.05666 0.0
H1590 H 0.86475 0.62361 0.94809 0.0
H1591 H 0.8292 0.66872 0.05791 0.0
H1592 H 0.87687 0.63216 0.01643 0.0
H1593 H 0.83559 0.67709 0.9879 0.0
C1594 C 0.84122 0.66502 0.95622 0.0
C1595 C 0.84929 0.64989 0.94462 0.0
C1596 C 0.86641 0.64017 0.02552 0.0
C1597 C 0.85112 0.65065 0.99043 0.0
C1598 C 0.86716 0.64028 0.04841 0.0
C1599 C 0.8537 0.65046 0.06052 0.0
C1600 C 0.8523 0.65057 0.01468 0.0
C1601 C 0.83974 0.66059 0.04911 0.0
C1602 C 0.84195 0.66536 0.97914 0.0
C1603 C 0.8582 0.63542 0.9565 0.0
N1604 N 0.83946 0.66049 0.02678 0.0
N1605 N 0.85898 0.6362 0.97878 0.0
H1606 H 0.34926 0.88598 0.05129 0.0
H1607 H 0.33468 0.82576 0.94208 0.0
H1608 H 0.34738 0.82485 0.05131 0.0
H1609 H 0.36114 0.88075 0.94189 0.0
H1610 H 0.33415 0.8265 0.98236 0.0
H1611 H 0.34898 0.88554 0.01119 0.0
C1612 C 0.3489 0.87245 0.04297 0.0
C1613 C 0.34842 0.85541 0.05489 0.0
C1614 C 0.34006 0.8384 0.97348 0.0
C1615 C 0.34756 0.85493 0.00889 0.0
C1616 C 0.34025 0.83803 0.95056 0.0
C1617 C 0.348 0.8532 0.93874 0.0
C1618 C 0.34736 0.85419 0.9846 0.0
C1619 C 0.35519 0.86871 0.95046 0.0
C1620 C 0.34862 0.87225 0.02005 0.0
C1621 C 0.34745 0.83837 0.04299 0.0
N1622 N 0.35461 0.86886 0.97278 0.0
N1623 N 0.34699 0.83858 0.02068 0.0
H1624 H 0.15039 0.61588 0.55341 0.0
H1625 H 0.14763 0.67534 0.44148 0.0
H1626 H 0.14248 0.67641 0.55101 0.0
H1627 H 0.15561 0.61483 0.44426 0.0
H1628 H 0.14665 0.67621 0.48159 0.0
H1629 H 0.15287 0.61536 0.51344 0.0
C1630 C 0.14907 0.62906 0.54447 0.0
C1631 C 0.14611 0.6462 0.5556 0.0
C1632 C 0.14866 0.66275 0.47343 0.0
C1633 C 0.14917 0.64574 0.50975 0.0
C1634 C 0.14934 0.66225 0.45052 0.0
C1635 C 0.15169 0.64497 0.43945 0.0
C1636 C 0.15033 0.64585 0.48541 0.0
C1637 C 0.15352 0.62843 0.45206 0.0
C1638 C 0.15061 0.62877 0.52163 0.0
C1639 C 0.14492 0.66289 0.54315 0.0
N1640 N 0.15278 0.62929 0.47433 0.0
N1641 N 0.14639 0.66223 0.52089 0.0
H1642 H 0.36322 0.17433 0.557 0.0
H1643 H 0.32348 0.1285 0.4463 0.0
H1644 H 0.32904 0.12366 0.55587 0.0
H1645 H 0.36982 0.16834 0.44793 0.0
H1646 H 0.32276 0.12872 0.48641 0.0
H1647 H 0.36315 0.17458 0.51692 0.0
C1648 C 0.35576 0.16319 0.54837 0.0
C1649 C 0.3462 0.14888 0.55993 0.0
C1650 C 0.33307 0.13741 0.47795 0.0
C1651 C 0.34581 0.14933 0.51393 0.0
C1652 C 0.33357 0.13722 0.45503 0.0
C1653 C 0.34677 0.14838 0.44361 0.0
C1654 C 0.34575 0.14894 0.4896 0.0
C1655 C 0.3592 0.15971 0.45592 0.0
C1656 C 0.35566 0.16342 0.52546 0.0
C1657 C 0.33641 0.13512 0.54774 0.0
N1658 N 0.35838 0.1597 0.47822 0.0
N1659 N 0.33647 0.13568 0.52543 0.0
H1660 H 0.88046 0.35048 0.44288 0.0
H1661 H 0.82026 0.34447 0.55365 0.0
H1662 H 0.81938 0.35305 0.44375 0.0
H1663 H 0.87889 0.3614 0.55174 0.0
H1664 H 0.82006 0.3432 0.51337 0.0
H1665 H 0.88048 0.3503 0.48293 0.0
C1666 C 0.86704 0.35111 0.45143 0.0
C1667 C 0.84988 0.35197 0.43979 0.0
C1668 C 0.83295 0.3472 0.5218 0.0
C1669 C 0.84986 0.35133 0.48578 0.0
C1670 C 0.8331 0.34783 0.54473 0.0
C1671 C 0.8496 0.35312 0.55597 0.0
C1672 C 0.84949 0.35163 0.5101 0.0
C1673 C 0.86582 0.35747 0.54367 0.0
C1674 C 0.86708 0.3509 0.47433 0.0
C1675 C 0.83295 0.35219 0.45192 0.0
N1676 N 0.86538 0.35656 0.52139 0.0
N1677 N 0.83337 0.35188 0.47424 0.0
H1678 H 0.67063 0.86662 0.55238 0.0
H1679 H 0.61392 0.83824 0.44333 0.0
H1680 H 0.61577 0.83976 0.55294 0.0
H1681 H 0.6686 0.86548 0.44302 0.0
H1682 H 0.61445 0.83832 0.48347 0.0
H1683 H 0.67024 0.86603 0.51228 0.0
C1684 C 0.65854 0.86051 0.54407 0.0
C1685 C 0.64322 0.85321 0.55606 0.0
C1686 C 0.62633 0.84429 0.47462 0.0
C1687 C 0.64259 0.85265 0.51009 0.0
C1688 C 0.62609 0.84414 0.4517 0.0
C1689 C 0.64124 0.85187 0.43977 0.0
C1690 C 0.64185 0.85218 0.48574 0.0
C1691 C 0.6565 0.85959 0.45151 0.0
C1692 C 0.65827 0.86027 0.52116 0.0
C1693 C 0.62779 0.84574 0.54438 0.0
N1694 N 0.65642 0.85953 0.47383 0.0
N1695 N 0.62789 0.84563 0.52206 0.0
H1696 H 0.15841 0.55501 0.22918 0.0
H1697 H 0.17932 0.44504 0.24808 0.0
H1698 H 0.17115 0.53146 0.29297 0.0
H1699 H 0.14802 0.46676 0.19273 0.0
H1700 H 0.18207 0.47736 0.26251 0.0
H1701 H 0.15999 0.52331 0.21346 0.0
C1702 C 0.1615 0.5432 0.23993 0.0
C1703 C 0.16439 0.54596 0.26254 0.0
C1704 C 0.1747 0.47503 0.24715 0.0
C1705 C 0.16661 0.50961 0.24445 0.0
C1706 C 0.17324 0.45666 0.23885 0.0
C1707 C 0.16335 0.45328 0.21926 0.0
C1708 C 0.16642 0.4901 0.23559 0.0
C1709 C 0.15559 0.46877 0.20802 0.0
C1710 C 0.1625 0.52511 0.23089 0.0
C1711 C 0.16893 0.5301 0.27546 0.0
N1712 N 0.15729 0.48651 0.21634 0.0
N1713 N 0.16983 0.51259 0.26624 0.0
H1714 H 0.55661 0.15135 0.26953 0.0
H1715 H 0.44792 0.17639 0.24944 0.0
H1716 H 0.53598 0.17765 0.21022 0.0
H1717 H 0.47013 0.15843 0.31216 0.0
H1718 H 0.48014 0.17801 0.23516 0.0
H1719 H 0.52512 0.15447 0.28571 0.0
C1720 C 0.54544 0.15781 0.25993 0.0
C1721 C 0.54888 0.16413 0.23844 0.0
C1722 C 0.47798 0.17386 0.2521 0.0
C1723 C 0.5128 0.16779 0.25685 0.0
C1724 C 0.45956 0.17304 0.26033 0.0
C1725 C 0.45624 0.16715 0.28203 0.0
C1726 C 0.49322 0.16863 0.26559 0.0
C1727 C 0.47194 0.16269 0.29521 0.0
C1728 C 0.52749 0.15969 0.26921 0.0
C1729 C 0.53398 0.17269 0.22688 0.0
N1730 N 0.48972 0.16339 0.28674 0.0
N1731 N 0.51654 0.17411 0.23616 0.0
H1732 H 0.8301 0.55573 0.26086 0.0
H1733 H 0.82757 0.44487 0.23484 0.0
H1734 H 0.82938 0.53243 0.19531 0.0
H1735 H 0.82847 0.46785 0.30052 0.0
H1736 H 0.82549 0.47694 0.22015 0.0
H1737 H 0.82646 0.52384 0.27575 0.0
C1738 C 0.82892 0.54394 0.24958 0.0
C1739 C 0.83019 0.54676 0.22679 0.0
C1740 C 0.82601 0.47499 0.23779 0.0
C1741 C 0.82629 0.51016 0.24376 0.0
C1742 C 0.82728 0.45668 0.24618 0.0
C1743 C 0.82837 0.45369 0.26893 0.0
C1744 C 0.82592 0.49048 0.25223 0.0
C1745 C 0.82757 0.46949 0.28287 0.0
C1746 C 0.82696 0.52571 0.25811 0.0
C1747 C 0.82881 0.5309 0.213 0.0
N1748 N 0.82655 0.48722 0.27429 0.0
N1749 N 0.82704 0.51329 0.2217 0.0
H1750 H 0.5522 0.83567 0.23376 0.0
H1751 H 0.44172 0.81942 0.25593 0.0
H1752 H 0.52845 0.82673 0.29824 0.0
H1753 H 0.46432 0.83995 0.19447 0.0
H1754 H 0.47386 0.81766 0.27055 0.0
H1755 H 0.52055 0.83258 0.21792 0.0
C1756 C 0.54035 0.83283 0.24456 0.0
C1757 C 0.54293 0.83156 0.26737 0.0
C1758 C 0.47178 0.82245 0.25382 0.0
C1759 C 0.50667 0.82818 0.24938 0.0
C1760 C 0.45342 0.82353 0.24548 0.0
C1761 C 0.45025 0.82998 0.22397 0.0
C1762 C 0.48713 0.82779 0.24055 0.0
C1763 C 0.46604 0.83472 0.21106 0.0
C1764 C 0.52228 0.8312 0.23552 0.0
C1765 C 0.52704 0.82807 0.2806 0.0
N1766 N 0.48377 0.83361 0.21958 0.0
N1767 N 0.50958 0.82655 0.27142 0.0
H1768 H 0.82243 0.55277 0.74497 0.0
H1769 H 0.85417 0.44499 0.75932 0.0
H1770 H 0.85076 0.53088 0.80243 0.0
H1771 H 0.81894 0.46408 0.70576 0.0
H1772 H 0.85284 0.47652 0.77518 0.0
H1773 H 0.82066 0.52059 0.7302 0.0
C1774 C 0.82811 0.54119 0.75458 0.0
C1775 C 0.83687 0.54456 0.77492 0.0
C1776 C 0.8453 0.47383 0.76002 0.0
C1777 C 0.83511 0.50778 0.75799 0.0
C1778 C 0.84594 0.45574 0.75099 0.0
C1779 C 0.83657 0.45178 0.73118 0.0
C1780 C 0.83533 0.48823 0.74913 0.0
C1781 C 0.82655 0.46651 0.72092 0.0
C1782 C 0.82719 0.52285 0.74608 0.0
C1783 C 0.8442 0.52903 0.78651 0.0
N1784 N 0.82624 0.4841 0.72998 0.0
N1785 N 0.84322 0.51137 0.77784 0.0
H1786 H 0.55408 0.86133 0.75469 0.0
H1787 H 0.45247 0.81141 0.75972 0.0
H1788 H 0.53949 0.81242 0.71577 0.0
H1789 H 0.46545 0.86484 0.79053 0.0
H1790 H 0.48503 0.80979 0.74602 0.0
H1791 H 0.52242 0.86101 0.77059 0.0
C1792 C 0.54427 0.85038 0.74965 0.0
C1793 C 0.54947 0.83684 0.7339 0.0
C1794 C 0.48075 0.82184 0.75581 0.0
C1795 C 0.51302 0.83656 0.75186 0.0
C1796 C 0.46221 0.82272 0.76374 0.0
C1797 C 0.45624 0.83832 0.7762 0.0
C1798 C 0.49341 0.83661 0.76052 0.0
C1799 C 0.46939 0.85268 0.78073 0.0
C1800 C 0.52613 0.8503 0.75862 0.0
C1801 C 0.53602 0.82322 0.72771 0.0
N1802 N 0.48733 0.85147 0.7729 0.0
N1803 N 0.5184 0.82342 0.73671 0.0
H1804 H 0.18126 0.45182 0.76318 0.0
H1805 H 0.1213 0.54302 0.73172 0.0
H1806 H 0.124 0.46122 0.78554 0.0
H1807 H 0.18245 0.54322 0.73166 0.0
H1808 H 0.12176 0.51161 0.74807 0.0
H1809 H 0.18182 0.48403 0.74848 0.0
C1810 C 0.16886 0.46065 0.76521 0.0
C1811 C 0.15251 0.45366 0.77556 0.0
C1812 C 0.13508 0.51856 0.74455 0.0
C1813 C 0.15298 0.49039 0.75831 0.0
C1814 C 0.13485 0.53659 0.73531 0.0
C1815 C 0.15187 0.54597 0.73042 0.0
C1816 C 0.15243 0.50963 0.74871 0.0
C1817 C 0.16896 0.53652 0.73488 0.0
C1818 C 0.16919 0.479 0.75669 0.0
C1819 C 0.13679 0.46575 0.7773 0.0
N1820 N 0.1688 0.51884 0.74372 0.0
N1821 N 0.13738 0.48344 0.76865 0.0
H1822 H 0.46178 0.12689 0.71218 0.0
H1823 H 0.5386 0.18521 0.78069 0.0
H1824 H 0.452 0.18374 0.73534 0.0
H1825 H 0.55101 0.13361 0.74564 0.0
H1826 H 0.50647 0.18464 0.76555 0.0
H1827 H 0.49425 0.12872 0.72569 0.0
C1828 C 0.46648 0.13975 0.72017 0.0
C1829 C 0.45418 0.15516 0.72274 0.0
C1830 C 0.51628 0.17352 0.76108 0.0
C1831 C 0.49135 0.15741 0.7382 0.0
C1832 C 0.53456 0.17379 0.76979 0.0
C1833 C 0.54749 0.15946 0.76437 0.0
C1834 C 0.51084 0.15869 0.74707 0.0
C1835 C 0.54158 0.14508 0.75003 0.0
C1836 C 0.48505 0.14084 0.72776 0.0
C1837 C 0.46108 0.17159 0.73291 0.0
N1838 N 0.52368 0.14501 0.74199 0.0
N1839 N 0.47919 0.17225 0.74041 0.0
H1840 H 0.68634 0.04954 0.75387 0.0
H1841 H 0.64668 0.94361 0.76076 0.0
H1842 H 0.64519 0.03047 0.80135 0.0
H1843 H 0.68375 0.963 0.70909 0.0
H1844 H 0.64877 0.97464 0.77802 0.0
H1845 H 0.68855 0.0172 0.73961 0.0
C1846 C 0.67795 0.03851 0.76146 0.0
C1847 C 0.66544 0.04272 0.7787 0.0
C1848 C 0.65652 0.97213 0.76295 0.0
C1849 C 0.66778 0.00579 0.76239 0.0
C1850 C 0.65525 0.95443 0.75301 0.0
C1851 C 0.66485 0.95078 0.73328 0.0
C1852 C 0.66745 0.98639 0.7531 0.0
C1853 C 0.67614 0.9652 0.72431 0.0
C1854 C 0.67913 0.02008 0.75324 0.0
C1855 C 0.65478 0.02791 0.7878 0.0
N1856 N 0.67702 0.98243 0.7342 0.0
N1857 N 0.65614 0.01015 0.77948 0.0
H1858 H 0.95231 0.68911 0.76935 0.0
H1859 H 0.046 0.63053 0.7402 0.0
H1860 H 0.95943 0.6293 0.78113 0.0
H1861 H 0.03902 0.68948 0.72356 0.0
H1862 H 0.01436 0.63035 0.75595 0.0
H1863 H 0.98395 0.69002 0.75286 0.0
C1864 C 0.96049 0.67617 0.76843 0.0
C1865 C 0.95324 0.65913 0.77681 0.0
C1866 C 0.01969 0.64337 0.74889 0.0
C1867 C 0.98943 0.6601 0.7581 0.0
C1868 C 0.03784 0.64351 0.74002 0.0
C1869 C 0.04525 0.6601 0.73074 0.0
C1870 C 0.00875 0.65995 0.74855 0.0
C1871 C 0.03383 0.67636 0.73049 0.0
C1872 C 0.97856 0.67673 0.75909 0.0
C1873 C 0.96454 0.64284 0.77533 0.0
N1874 N 0.01615 0.67591 0.73935 0.0
N1875 N 0.98202 0.64375 0.7662 0.0
H1876 H 0.32406 0.04975 0.75726 0.0
H1877 H 0.34599 0.94087 0.73497 0.0
H1878 H 0.33762 0.02733 0.69317 0.0
H1879 H 0.32082 0.9609 0.7952 0.0
H1880 H 0.34299 0.97259 0.71945 0.0
H1881 H 0.32229 0.01748 0.77149 0.0
C1882 C 0.32642 0.03807 0.74608 0.0
C1883 C 0.33115 0.04132 0.72398 0.0
C1884 C 0.33799 0.97005 0.73601 0.0
C1885 C 0.32949 0.00432 0.74032 0.0
C1886 C 0.3398 0.95198 0.74491 0.0
C1887 C 0.33376 0.94831 0.76644 0.0
C1888 C 0.33027 0.98467 0.74881 0.0
C1889 C 0.32558 0.96313 0.7785 0.0
C1890 C 0.32551 0.01963 0.75427 0.0
C1891 C 0.33432 0.02556 0.71041 0.0
N1892 N 0.32424 0.98073 0.76958 0.0
N1893 N 0.33358 0.00779 0.71883 0.0
H1894 H 0.05708 0.33611 0.72758 0.0
H1895 H 0.94748 0.31326 0.74709 0.0
H1896 H 0.0344 0.31943 0.79058 0.0
H1897 H 0.96841 0.34685 0.69314 0.0
H1898 H 0.98004 0.30959 0.76045 0.0
H1899 H 0.0253 0.33437 0.71205 0.0
C1900 C 0.04545 0.33206 0.73817 0.0
C1901 C 0.04844 0.32818 0.76053 0.0
C1902 C 0.97749 0.31765 0.74561 0.0
C1903 C 0.01203 0.32586 0.74269 0.0
C1904 C 0.95897 0.31965 0.73793 0.0
C1905 C 0.95531 0.33049 0.7191 0.0
C1906 C 0.99241 0.32636 0.73419 0.0
C1907 C 0.97065 0.33859 0.70789 0.0
C1908 C 0.02732 0.33099 0.72924 0.0
C1909 C 0.03284 0.32246 0.77324 0.0
N1910 N 0.98853 0.33638 0.71563 0.0
N1911 N 0.01529 0.32158 0.76417 0.0
H1912 H 0.33907 0.05782 0.23556 0.0
H1913 H 0.33319 0.94684 0.261 0.0
H1914 H 0.33382 0.03457 0.30085 0.0
H1915 H 0.34205 0.96992 0.19615 0.0
H1916 H 0.33103 0.97896 0.27557 0.0
H1917 H 0.33779 0.02582 0.22049 0.0
C1918 C 0.33764 0.04599 0.24673 0.0
C1919 C 0.33668 0.0489 0.26953 0.0
C1920 C 0.33338 0.97701 0.25814 0.0
C1921 C 0.33506 0.01219 0.25237 0.0
C1922 C 0.33471 0.95867 0.24982 0.0
C1923 C 0.33795 0.95566 0.22733 0.0
C1924 C 0.33532 0.99251 0.24389 0.0
C1925 C 0.33941 0.97154 0.21356 0.0
C1926 C 0.33682 0.02772 0.23811 0.0
C1927 C 0.33445 0.03303 0.28318 0.0
N1928 N 0.33818 0.98927 0.22208 0.0
N1929 N 0.33383 0.01537 0.27439 0.0
H1930 H 0.96012 0.36707 0.28727 0.0
H1931 H 0.03422 0.31211 0.21103 0.0
H1932 H 0.94642 0.3153 0.25322 0.0
H1933 H 0.04836 0.36024 0.25146 0.0
H1934 H 0.00195 0.31291 0.22579 0.0
H1935 H 0.99251 0.36473 0.27379 0.0
C1936 C 0.96393 0.35523 0.27687 0.0
C1937 C 0.95052 0.34142 0.27124 0.0
C1938 C 0.01217 0.32321 0.23151 0.0
C1939 C 0.9877 0.33856 0.25583 0.0
C1940 C 0.03054 0.32281 0.22302 0.0
C1941 C 0.04402 0.3361 0.23006 0.0
C1942 C 0.00721 0.3371 0.247 0.0
C1943 C 0.03854 0.34955 0.24578 0.0
C1944 C 0.98247 0.35383 0.26928 0.0
C1945 C 0.95635 0.32619 0.25805 0.0
N1946 N 0.02057 0.34975 0.25363 0.0
N1947 N 0.9745 0.32522 0.25067 0.0
H1948 H 0.67966 0.96103 0.29025 0.0
H1949 H 0.64622 0.03127 0.19461 0.0
H1950 H 0.63948 0.94581 0.2399 0.0
H1951 H 0.6776 0.04963 0.25156 0.0
H1952 H 0.6468 -0.00108 0.20872 0.0
H1953 H 0.68216 0.99266 0.27407 0.0
C1954 C 0.67149 0.96431 0.27569 0.0
C1955 C 0.65926 0.95084 0.26646 0.0
C1956 C 0.65362 0.01001 0.2181 0.0
C1957 C 0.66199 0.98694 0.24794 0.0
C1958 C 0.65342 0.02845 0.20997 0.0
C1959 C 0.66186 0.04317 0.22195 0.0
C1960 C 0.6624 0.0062 0.23832 0.0
C1961 C 0.67074 0.03874 0.24193 0.0
C1962 C 0.67283 0.98238 0.26654 0.0
C1963 C 0.64887 0.95587 0.24771 0.0
N1964 N 0.67077 0.02065 0.2495 0.0
N1965 N 0.65047 0.97351 0.23907 0.0
H1966 H 0.04766 0.68794 0.26377 0.0
H1967 H 0.94922 0.63265 0.25712 0.0
H1968 H 0.03548 0.63698 0.30019 0.0
H1969 H 0.95877 0.68682 0.22636 0.0
H1970 H 0.98049 0.63461 0.27403 0.0
H1971 H 0.01486 0.68852 0.25092 0.0
C1972 C 0.03805 0.67693 0.26914 0.0
C1973 C 0.04433 0.66234 0.28299 0.0
C1974 C 0.97573 0.64614 0.26369 0.0
C1975 C 0.00681 0.6629 0.26835 0.0
C1976 C 0.95793 0.64497 0.25393 0.0
C1977 C 0.95148 0.65952 0.24016 0.0
C1978 C 0.98728 0.66192 0.25953 0.0
C1979 C 0.96319 0.67532 0.23693 0.0
C1980 C 0.01932 0.67731 0.26188 0.0
C1981 C 0.03122 0.64858 0.28968 0.0
N1982 N 0.9806 0.67603 0.24639 0.0
N1983 N 0.01314 0.64911 0.28215 0.0
loop_
_geom_bond_atom_site_label_1
_geom_bond_atom_site_label_2
_geom_bond_distance
_geom_bond_site_symmetry_2
_ccdc_geom_bond_type
Li0 N17 1.990 . S
Li0 O60 1.956 . S
Li0 O61 1.970 . S
Li0 O62 1.961 . S
Li1 N25 1.990 . S
Li1 O60 1.970 . S
Li1 O61 1.956 . S
Li1 O63 1.961 . S
Li2 N47 1.990 . S
Li2 O60 1.961 . S
Li2 O62 1.956 . S
Li2 O63 1.970 . S
Li3 N53 1.990 . S
Li3 O61 1.961 . S
Li3 O62 1.970 . S
Li3 O63 1.956 . S
C4 C6 1.348 . S
C4 C7 1.356 . S
C4 O60 1.325 . S
N5 C8 1.314 . S
N5 C9 1.279 . S
C6 C4 1.348 . S
C6 C8 1.353 . S
C6 H64 0.929 . S
C7 C4 1.356 . S
C7 C9 1.358 . S
C7 H65 0.930 . S
C8 N5 1.314 . S
C8 C6 1.353 . S
C8 H66 0.930 . S
C9 N5 1.279 . S
C9 C7 1.358 . S
C9 H67 0.930 . S
C10 C13 1.348 . S
C10 C14 1.356 . S
C10 O61 1.325 . S
C11 N12 1.279 . S
C11 C14 1.358 . S
C11 H68 0.930 . S
N12 C11 1.279 . S
N12 C15 1.314 . S
C13 C10 1.348 . S
C13 C15 1.353 . S
C13 H69 0.929 . S
C14 C10 1.356 . S
C14 C11 1.358 . S
C14 H70 0.930 . S
C15 N12 1.314 . S
C15 C13 1.353 . S
C15 H71 0.930 . S
C16 N17 1.314 . S
C16 C21 1.353 . S
C16 H22 0.930 . S
N17 Li0 1.990 . S
N17 C16 1.314 . S
N17 C19 1.279 . S
C18 C19 1.358 . S
C18 C20 1.356 . S
C18 H72 0.930 . S
C19 N17 1.279 . S
C19 C18 1.358 . S
C19 H23 0.930 . S
C20 C18 1.356 . S
C20 C21 1.348 . S
C21 C16 1.353 . S
C21 C20 1.348 . S
C21 H73 0.929 . S
H22 C16 0.930 . S
H23 C19 0.930 . S
C24 N25 1.314 . S
C24 C26 1.353 . S
C24 H30 0.930 . S
N25 Li1 1.990 . S
N25 C24 1.314 . S
N25 C28 1.279 . S
C26 C24 1.353 . S
C26 C29 1.348 . S
C26 H74 0.929 . S
C27 C28 1.358 . S
C27 C29 1.356 . S
C27 H75 0.930 . S
C28 N25 1.279 . S
C28 C27 1.358 . S
C28 H31 0.930 . S
C29 C26 1.348 . S
C29 C27 1.356 . S
H30 C24 0.930 . S
H31 C28 0.930 . S
C32 C34 1.348 . S
C32 C35 1.356 . S
C32 O62 1.325 . S
N33 C36 1.314 . S
N33 C37 1.279 . S
C34 C32 1.348 . S
C34 C36 1.353 . S
C34 H76 0.929 . S
C35 C32 1.356 . S
C35 C37 1.358 . S
C35 H77 0.930 . S
C36 N33 1.314 . S
C36 C34 1.353 . S
C36 H78 0.930 . S
C37 N33 1.279 . S
C37 C35 1.358 . S
C37 H79 0.930 . S
C38 C39 1.348 . S
C38 C40 1.356 . S
C38 O63 1.325 . S
C39 C38 1.348 . S
C39 C41 1.353 . S
C39 H80 0.929 . S
C40 C38 1.356 . S
C40 C42 1.358 . S
C40 H81 0.930 . S
C41 C39 1.353 . S
C41 N43 1.314 . S
C41 H82 0.930 . S
C42 C40 1.358 . S
C42 N43 1.279 . S
C42 H83 0.930 . S
N43 C41 1.314 . S
N43 C42 1.279 . S
C44 C46 1.353 . S
C44 N47 1.314 . S
C44 H50 0.930 . S
C45 N47 1.279 . S
C45 C48 1.358 . S
C45 H51 0.930 . S
C46 C44 1.353 . S
C46 C49 1.348 . S
C46 H84 0.929 . S
N47 Li2 1.990 . S
N47 C44 1.314 . S
N47 C45 1.279 . S
C48 C45 1.358 . S
C48 C49 1.356 . S
C48 H85 0.930 . S
C49 C46 1.348 . S
C49 C48 1.356 . S
H50 C44 0.930 . S
H51 C45 0.930 . S
C52 N53 1.314 . S
C52 C54 1.353 . S
C52 H58 0.930 . S
N53 Li3 1.990 . S
N53 C52 1.314 . S
N53 C56 1.279 . S
C54 C52 1.353 . S
C54 C57 1.348 . S
C54 H86 0.929 . S
C55 C56 1.358 . S
C55 C57 1.356 . S
C55 H87 0.930 . S
C56 N53 1.279 . S
C56 C55 1.358 . S
C56 H59 0.930 . S
C57 C54 1.348 . S
C57 C55 1.356 . S
H58 C52 0.930 . S
H59 C56 0.930 . S
O60 Li0 1.956 . S
O60 Li1 1.970 . S
O60 Li2 1.961 . S
O60 C4 1.325 . S
O61 Li0 1.970 . S
O61 Li1 1.956 . S
O61 Li3 1.961 . S
O61 C10 1.325 . S
O62 Li0 1.961 . S
O62 Li2 1.956 . S
O62 Li3 1.970 . S
O62 C32 1.325 . S
O63 Li1 1.961 . S
O63 Li2 1.970 . S
O63 Li3 1.956 . S
O63 C38 1.325 . S
H64 C6 0.929 . S
H65 C7 0.930 . S
H66 C8 0.930 . S
H67 C9 0.930 . S
H68 C11 0.930 . S
H69 C13 0.929 . S
H70 C14 0.930 . S
H71 C15 0.930 . S
H72 C18 0.930 . S
H73 C21 0.929 . S
H74 C26 0.929 . S
H75 C27 0.930 . S
H76 C34 0.929 . S
H77 C35 0.930 . S
H78 C36 0.930 . S
H79 C37 0.930 . S
H80 C39 0.929 . S
H81 C40 0.930 . S
H82 C41 0.930 . S
H83 C42 0.930 . S
H84 C46 0.929 . S
H85 C48 0.930 . S
H86 C54 0.929 . S
H87 C55 0.930 . S
Li88 N105 1.990 . S
Li88 O148 1.956 . S
Li88 O149 1.970 . S
Li88 O150 1.961 . S
Li89 N113 1.990 . S
Li89 O148 1.970 . S
Li89 O149 1.956 . S
Li89 O151 1.961 . S
Li90 N135 1.990 . S
Li90 O148 1.961 . S
Li90 O150 1.956 . S
Li90 O151 1.970 . S
Li91 N141 1.990 . S
Li91 O149 1.961 . S
Li91 O150 1.970 . S
Li91 O151 1.956 . S
C92 C94 1.348 . S
C92 C95 1.356 . S
C92 O148 1.325 . S
N93 C96 1.314 . S
N93 C97 1.279 . S
C94 C92 1.348 . S
C94 C96 1.353 . S
C94 H152 0.929 . S
C95 C92 1.356 . S
C95 C97 1.358 . S
C95 H153 0.930 . S
C96 N93 1.314 . S
C96 C94 1.353 . S
C96 H154 0.930 . S
C97 N93 1.279 . S
C97 C95 1.358 . S
C97 H155 0.930 . S
C98 C101 1.348 . S
C98 C102 1.356 . S
C98 O149 1.325 . S
C99 N100 1.279 . S
C99 C102 1.358 . S
C99 H156 0.930 . S
N100 C99 1.279 . S
N100 C103 1.314 . S
C101 C98 1.348 . S
C101 C103 1.353 . S
C101 H157 0.929 . S
C102 C98 1.356 . S
C102 C99 1.358 . S
C102 H158 0.930 . S
C103 N100 1.314 . S
C103 C101 1.353 . S
C103 H159 0.930 . S
C104 N105 1.314 . S
C104 C109 1.353 . S
C104 H110 0.930 . S
N105 Li88 1.990 . S
N105 C104 1.314 . S
N105 C107 1.279 . S
C106 C107 1.358 . S
C106 C108 1.356 . S
C106 H160 0.930 . S
C107 N105 1.279 . S
C107 C106 1.358 . S
C107 H111 0.930 . S
C108 C106 1.356 . S
C108 C109 1.348 . S
C109 C104 1.353 . S
C109 C108 1.348 . S
C109 H161 0.929 . S
H110 C104 0.930 . S
H111 C107 0.930 . S
C112 N113 1.314 . S
C112 C114 1.353 . S
C112 H118 0.930 . S
N113 Li89 1.990 . S
N113 C112 1.314 . S
N113 C116 1.279 . S
C114 C112 1.353 . S
C114 C117 1.348 . S
C114 H162 0.929 . S
C115 C116 1.358 . S
C115 C117 1.356 . S
C115 H163 0.930 . S
C116 N113 1.279 . S
C116 C115 1.358 . S
C116 H119 0.930 . S
C117 C114 1.348 . S
C117 C115 1.356 . S
H118 C112 0.930 . S
H119 C116 0.930 . S
C120 C122 1.348 . S
C120 C123 1.356 . S
C120 O150 1.325 . S
N121 C124 1.314 . S
N121 C125 1.279 . S
C122 C120 1.348 . S
C122 C124 1.353 . S
C122 H164 0.929 . S
C123 C120 1.356 . S
C123 C125 1.358 . S
C123 H165 0.930 . S
C124 N121 1.314 . S
C124 C122 1.353 . S
C124 H166 0.930 . S
C125 N121 1.279 . S
C125 C123 1.358 . S
C125 H167 0.930 . S
C126 C127 1.348 . S
C126 C128 1.356 . S
C126 O151 1.325 . S
C127 C126 1.348 . S
C127 C129 1.353 . S
C127 H168 0.929 . S
C128 C126 1.356 . S
C128 C130 1.358 . S
C128 H169 0.930 . S
C129 C127 1.353 . S
C129 N131 1.314 . S
C129 H170 0.930 . S
C130 C128 1.358 . S
C130 N131 1.279 . S
C130 H171 0.930 . S
N131 C129 1.314 . S
N131 C130 1.279 . S
C132 C134 1.353 . S
C132 N135 1.314 . S
C132 H138 0.930 . S
C133 N135 1.279 . S
C133 C136 1.358 . S
C133 H139 0.930 . S
C134 C132 1.353 . S
C134 C137 1.348 . S
C134 H172 0.929 . S
N135 Li90 1.990 . S
N135 C132 1.314 . S
N135 C133 1.279 . S
C136 C133 1.358 . S
C136 C137 1.356 . S
C136 H173 0.930 . S
C137 C134 1.348 . S
C137 C136 1.356 . S
H138 C132 0.930 . S
H139 C133 0.930 . S
C140 N141 1.314 . S
C140 C142 1.353 . S
C140 H146 0.930 . S
N141 Li91 1.990 . S
N141 C140 1.314 . S
N141 C144 1.279 . S
C142 C140 1.353 . S
C142 C145 1.348 . S
C142 H174 0.929 . S
C143 C144 1.358 . S
C143 C145 1.356 . S
C143 H175 0.930 . S
C144 N141 1.279 . S
C144 C143 1.358 . S
C144 H147 0.930 . S
C145 C142 1.348 . S
C145 C143 1.356 . S
H146 C140 0.930 . S
H147 C144 0.930 . S
O148 Li88 1.956 . S
O148 Li89 1.970 . S
O148 Li90 1.961 . S
O148 C92 1.325 . S
O149 Li88 1.970 . S
O149 Li89 1.956 . S
O149 Li91 1.961 . S
O149 C98 1.325 . S
O150 Li88 1.961 . S
O150 Li90 1.956 . S
O150 Li91 1.970 . S
O150 C120 1.325 . S
O151 Li89 1.961 . S
O151 Li90 1.970 . S
O151 Li91 1.956 . S
O151 C126 1.325 . S
H152 C94 0.929 . S
H153 C95 0.930 . S
H154 C96 0.930 . S
H155 C97 0.930 . S
H156 C99 0.930 . S
H157 C101 0.929 . S
H158 C102 0.930 . S
H159 C103 0.930 . S
H160 C106 0.930 . S
H161 C109 0.929 . S
H162 C114 0.929 . S
H163 C115 0.930 . S
H164 C122 0.929 . S
H165 C123 0.930 . S
H166 C124 0.930 . S
H167 C125 0.930 . S
H168 C127 0.929 . S
H169 C128 0.930 . S
H170 C129 0.930 . S
H171 C130 0.930 . S
H172 C134 0.929 . S
H173 C136 0.930 . S
H174 C142 0.929 . S
H175 C143 0.930 . S
Li176 N193 1.990 . S
Li176 O236 1.956 . S
Li176 O237 1.970 . S
Li176 O238 1.961 . S
Li177 N201 1.990 . S
Li177 O236 1.970 . S
Li177 O237 1.956 . S
Li177 O239 1.961 . S
Li178 N223 1.990 . S
Li178 O236 1.961 . S
Li178 O238 1.956 . S
Li178 O239 1.970 . S
Li179 N229 1.990 . S
Li179 O237 1.961 . S
Li179 O238 1.970 . S
Li179 O239 1.956 . S
C180 C182 1.348 . S
C180 C183 1.356 . S
C180 O236 1.325 . S
N181 C184 1.314 . S
N181 C185 1.279 . S
C182 C180 1.348 . S
C182 C184 1.353 . S
C182 H240 0.929 . S
C183 C180 1.356 . S
C183 C185 1.358 . S
C183 H241 0.930 . S
C184 N181 1.314 . S
C184 C182 1.353 . S
C184 H242 0.930 . S
C185 N181 1.279 . S
C185 C183 1.358 . S
C185 H243 0.930 . S
C186 C189 1.348 . S
C186 C190 1.356 . S
C186 O237 1.325 . S
C187 N188 1.279 . S
C187 C190 1.358 . S
C187 H244 0.930 . S
N188 C187 1.279 . S
N188 C191 1.314 . S
C189 C186 1.348 . S
C189 C191 1.353 . S
C189 H245 0.929 . S
C190 C186 1.356 . S
C190 C187 1.358 . S
C190 H246 0.930 . S
C191 N188 1.314 . S
C191 C189 1.353 . S
C191 H247 0.930 . S
C192 N193 1.314 . S
C192 C197 1.353 . S
C192 H198 0.930 . S
N193 Li176 1.990 . S
N193 C192 1.314 . S
N193 C195 1.279 . S
C194 C195 1.358 . S
C194 C196 1.356 . S
C194 H248 0.930 . S
C195 N193 1.279 . S
C195 C194 1.358 . S
C195 H199 0.930 . S
C196 C194 1.356 . S
C196 C197 1.348 . S
C197 C192 1.353 . S
C197 C196 1.348 . S
C197 H249 0.929 . S
H198 C192 0.930 . S
H199 C195 0.930 . S
C200 N201 1.314 . S
C200 C202 1.353 . S
C200 H206 0.930 . S
N201 Li177 1.990 . S
N201 C200 1.314 . S
N201 C204 1.279 . S
C202 C200 1.353 . S
C202 C205 1.348 . S
C202 H250 0.929 . S
C203 C204 1.358 . S
C203 C205 1.356 . S
C203 H251 0.930 . S
C204 N201 1.279 . S
C204 C203 1.358 . S
C204 H207 0.930 . S
C205 C202 1.348 . S
C205 C203 1.356 . S
H206 C200 0.930 . S
H207 C204 0.930 . S
C208 C210 1.348 . S
C208 C211 1.356 . S
C208 O238 1.325 . S
N209 C212 1.314 . S
N209 C213 1.279 . S
C210 C208 1.348 . S
C210 C212 1.353 . S
C210 H252 0.929 . S
C211 C208 1.356 . S
C211 C213 1.358 . S
C211 H253 0.930 . S
C212 N209 1.314 . S
C212 C210 1.353 . S
C212 H254 0.930 . S
C213 N209 1.279 . S
C213 C211 1.358 . S
C213 H255 0.930 . S
C214 C215 1.348 . S
C214 C216 1.356 . S
C214 O239 1.325 . S
C215 C214 1.348 . S
C215 C217 1.353 . S
C215 H256 0.929 . S
C216 C214 1.356 . S
C216 C218 1.358 . S
C216 H257 0.930 . S
C217 C215 1.353 . S
C217 N219 1.314 . S
C217 H258 0.930 . S
C218 C216 1.358 . S
C218 N219 1.279 . S
C218 H259 0.930 . S
N219 C217 1.314 . S
N219 C218 1.279 . S
C220 C222 1.353 . S
C220 N223 1.314 . S
C220 H226 0.930 . S
C221 N223 1.279 . S
C221 C224 1.358 . S
C221 H227 0.930 . S
C222 C220 1.353 . S
C222 C225 1.348 . S
C222 H260 0.929 . S
N223 Li178 1.990 . S
N223 C220 1.314 . S
N223 C221 1.279 . S
C224 C221 1.358 . S
C224 C225 1.356 . S
C224 H261 0.930 . S
C225 C222 1.348 . S
C225 C224 1.356 . S
H226 C220 0.930 . S
H227 C221 0.930 . S
C228 N229 1.314 . S
C228 C230 1.353 . S
C228 H234 0.930 . S
N229 Li179 1.990 . S
N229 C228 1.314 . S
N229 C232 1.279 . S
C230 C228 1.353 . S
C230 C233 1.348 . S
C230 H262 0.929 . S
C231 C232 1.358 . S
C231 C233 1.356 . S
C231 H263 0.930 . S
C232 N229 1.279 . S
C232 C231 1.358 . S
C232 H235 0.930 . S
C233 C230 1.348 . S
C233 C231 1.356 . S
H234 C228 0.930 . S
H235 C232 0.930 . S
O236 Li176 1.956 . S
O236 Li177 1.970 . S
O236 Li178 1.961 . S
O236 C180 1.325 . S
O237 Li176 1.970 . S
O237 Li177 1.956 . S
O237 Li179 1.961 . S
O237 C186 1.325 . S
O238 Li176 1.961 . S
O238 Li178 1.956 . S
O238 Li179 1.970 . S
O238 C208 1.325 . S
O239 Li177 1.961 . S
O239 Li178 1.970 . S
O239 Li179 1.956 . S
O239 C214 1.325 . S
H240 C182 0.929 . S
H241 C183 0.930 . S
H242 C184 0.930 . S
H243 C185 0.930 . S
H244 C187 0.930 . S
H245 C189 0.929 . S
H246 C190 0.930 . S
H247 C191 0.930 . S
H248 C194 0.930 . S
H249 C197 0.929 . S
H250 C202 0.929 . S
H251 C203 0.930 . S
H252 C210 0.929 . S
H253 C211 0.930 . S
H254 C212 0.930 . S
H255 C213 0.930 . S
H256 C215 0.929 . S
H257 C216 0.930 . S
H258 C217 0.930 . S
H259 C218 0.930 . S
H260 C222 0.929 . S
H261 C224 0.930 . S
H262 C230 0.929 . S
H263 C231 0.930 . S
Li264 N281 1.990 . S
Li264 O324 1.956 . S
Li264 O325 1.970 . S
Li264 O326 1.961 . S
Li265 N289 1.990 . S
Li265 O324 1.970 . S
Li265 O325 1.956 . S
Li265 O327 1.961 . S
Li266 N311 1.990 . S
Li266 O324 1.961 . S
Li266 O326 1.956 . S
Li266 O327 1.970 . S
Li267 N317 1.990 . S
Li267 O325 1.961 . S
Li267 O326 1.970 . S
Li267 O327 1.956 . S
C268 C270 1.348 . S
C268 C271 1.356 . S
C268 O324 1.325 . S
N269 C272 1.314 . S
N269 C273 1.279 . S
C270 C268 1.348 . S
C270 C272 1.353 . S
C270 H328 0.929 . S
C271 C268 1.356 . S
C271 C273 1.358 . S
C271 H329 0.930 . S
C272 N269 1.314 . S
C272 C270 1.353 . S
C272 H330 0.930 . S
C273 N269 1.279 . S
C273 C271 1.358 . S
C273 H331 0.930 . S
C274 C277 1.348 . S
C274 C278 1.356 . S
C274 O325 1.325 . S
C275 N276 1.279 . S
C275 C278 1.358 . S
C275 H332 0.930 . S
N276 C275 1.279 . S
N276 C279 1.314 . S
C277 C274 1.348 . S
C277 C279 1.353 . S
C277 H333 0.929 . S
C278 C274 1.356 . S
C278 C275 1.358 . S
C278 H334 0.930 . S
C279 N276 1.314 . S
C279 C277 1.353 . S
C279 H335 0.930 . S
C280 N281 1.314 . S
C280 C285 1.353 . S
C280 H286 0.930 . S
N281 Li264 1.990 . S
N281 C280 1.314 . S
N281 C283 1.279 . S
C282 C283 1.358 . S
C282 C284 1.356 . S
C282 H336 0.930 . S
C283 N281 1.279 . S
C283 C282 1.358 . S
C283 H287 0.930 . S
C284 C282 1.356 . S
C284 C285 1.348 . S
C285 C280 1.353 . S
C285 C284 1.348 . S
C285 H337 0.929 . S
H286 C280 0.930 . S
H287 C283 0.930 . S
C288 N289 1.314 . S
C288 C290 1.353 . S
C288 H294 0.930 . S
N289 Li265 1.990 . S
N289 C288 1.314 . S
N289 C292 1.279 . S
C290 C288 1.353 . S
C290 C293 1.348 . S
C290 H338 0.929 . S
C291 C292 1.358 . S
C291 C293 1.356 . S
C291 H339 0.930 . S
C292 N289 1.279 . S
C292 C291 1.358 . S
C292 H295 0.930 . S
C293 C290 1.348 . S
C293 C291 1.356 . S
H294 C288 0.930 . S
H295 C292 0.930 . S
C296 C298 1.348 . S
C296 C299 1.356 . S
C296 O326 1.325 . S
N297 C300 1.314 . S
N297 C301 1.279 . S
C298 C296 1.348 . S
C298 C300 1.353 . S
C298 H340 0.929 . S
C299 C296 1.356 . S
C299 C301 1.358 . S
C299 H341 0.930 . S
C300 N297 1.314 . S
C300 C298 1.353 . S
C300 H342 0.930 . S
C301 N297 1.279 . S
C301 C299 1.358 . S
C301 H343 0.930 . S
C302 C303 1.348 . S
C302 C304 1.356 . S
C302 O327 1.325 . S
C303 C302 1.348 . S
C303 C305 1.353 . S
C303 H344 0.929 . S
C304 C302 1.356 . S
C304 C306 1.358 . S
C304 H345 0.930 . S
C305 C303 1.353 . S
C305 N307 1.314 . S
C305 H346 0.930 . S
C306 C304 1.358 . S
C306 N307 1.279 . S
C306 H347 0.930 . S
N307 C305 1.314 . S
N307 C306 1.279 . S
C308 C310 1.353 . S
C308 N311 1.314 . S
C308 H314 0.930 . S
C309 N311 1.279 . S
C309 C312 1.358 . S
C309 H315 0.930 . S
C310 C308 1.353 . S
C310 C313 1.348 . S
C310 H348 0.929 . S
N311 Li266 1.990 . S
N311 C308 1.314 . S
N311 C309 1.279 . S
C312 C309 1.358 . S
C312 C313 1.356 . S
C312 H349 0.930 . S
C313 C310 1.348 . S
C313 C312 1.356 . S
H314 C308 0.930 . S
H315 C309 0.930 . S
C316 N317 1.314 . S
C316 C318 1.353 . S
C316 H322 0.930 . S
N317 Li267 1.990 . S
N317 C316 1.314 . S
N317 C320 1.279 . S
C318 C316 1.353 . S
C318 C321 1.348 . S
C318 H350 0.929 . S
C319 C320 1.358 . S
C319 C321 1.356 . S
C319 H351 0.930 . S
C320 N317 1.279 . S
C320 C319 1.358 . S
C320 H323 0.930 . S
C321 C318 1.348 . S
C321 C319 1.356 . S
H322 C316 0.930 . S
H323 C320 0.930 . S
O324 Li264 1.956 . S
O324 Li265 1.970 . S
O324 Li266 1.961 . S
O324 C268 1.325 . S
O325 Li264 1.970 . S
O325 Li265 1.956 . S
O325 Li267 1.961 . S
O325 C274 1.325 . S
O326 Li264 1.961 . S
O326 Li266 1.956 . S
O326 Li267 1.970 . S
O326 C296 1.325 . S
O327 Li265 1.961 . S
O327 Li266 1.970 . S
O327 Li267 1.956 . S
O327 C302 1.325 . S
H328 C270 0.929 . S
H329 C271 0.930 . S
H330 C272 0.930 . S
H331 C273 0.930 . S
H332 C275 0.930 . S
H333 C277 0.929 . S
H334 C278 0.930 . S
H335 C279 0.930 . S
H336 C282 0.930 . S
H337 C285 0.929 . S
H338 C290 0.929 . S
H339 C291 0.930 . S
H340 C298 0.929 . S
H341 C299 0.930 . S
H342 C300 0.930 . S
H343 C301 0.930 . S
H344 C303 0.929 . S
H345 C304 0.930 . S
H346 C305 0.930 . S
H347 C306 0.930 . S
H348 C310 0.929 . S
H349 C312 0.930 . S
H350 C318 0.929 . S
H351 C319 0.930 . S
Li352 N369 1.990 . S
Li352 O412 1.956 . S
Li352 O413 1.970 . S
Li352 O414 1.961 . S
Li353 N377 1.990 . S
Li353 O412 1.970 . S
Li353 O413 1.956 . S
Li353 O415 1.961 . S
Li354 N399 1.990 . S
Li354 O412 1.961 . S
Li354 O414 1.956 . S
Li354 O415 1.970 . S
Li355 N405 1.990 . S
Li355 O413 1.961 . S
Li355 O414 1.970 . S
Li355 O415 1.956 . S
C356 C358 1.348 . S
C356 C359 1.356 . S
C356 O412 1.325 . S
N357 C360 1.314 . S
N357 C361 1.279 . S
C358 C356 1.348 . S
C358 C360 1.353 . S
C358 H416 0.929 . S
C359 C356 1.356 . S
C359 C361 1.358 . S
C359 H417 0.930 . S
C360 N357 1.314 . S
C360 C358 1.353 . S
C360 H418 0.930 . S
C361 N357 1.279 . S
C361 C359 1.358 . S
C361 H419 0.930 . S
C362 C365 1.348 . S
C362 C366 1.356 . S
C362 O413 1.325 . S
C363 N364 1.279 . S
C363 C366 1.358 . S
C363 H420 0.930 . S
N364 C363 1.279 . S
N364 C367 1.314 . S
C365 C362 1.348 . S
C365 C367 1.353 . S
C365 H421 0.929 . S
C366 C362 1.356 . S
C366 C363 1.358 . S
C366 H422 0.930 . S
C367 N364 1.314 . S
C367 C365 1.353 . S
C367 H423 0.930 . S
C368 N369 1.314 . S
C368 C373 1.353 . S
C368 H374 0.930 . S
N369 Li352 1.990 . S
N369 C368 1.314 . S
N369 C371 1.279 . S
C370 C371 1.358 . S
C370 C372 1.356 . S
C370 H424 0.930 . S
C371 N369 1.279 . S
C371 C370 1.358 . S
C371 H375 0.930 . S
C372 C370 1.356 . S
C372 C373 1.348 . S
C373 C368 1.353 . S
C373 C372 1.348 . S
C373 H425 0.929 . S
H374 C368 0.930 . S
H375 C371 0.930 . S
C376 N377 1.314 . S
C376 C378 1.353 . S
C376 H382 0.930 . S
N377 Li353 1.990 . S
N377 C376 1.314 . S
N377 C380 1.279 . S
C378 C376 1.353 . S
C378 C381 1.348 . S
C378 H426 0.929 . S
C379 C380 1.358 . S
C379 C381 1.356 . S
C379 H427 0.930 . S
C380 N377 1.279 . S
C380 C379 1.358 . S
C380 H383 0.930 . S
C381 C378 1.348 . S
C381 C379 1.356 . S
H382 C376 0.930 . S
H383 C380 0.930 . S
C384 C386 1.348 . S
C384 C387 1.356 . S
C384 O414 1.325 . S
N385 C388 1.314 . S
N385 C389 1.279 . S
C386 C384 1.348 . S
C386 C388 1.353 . S
C386 H428 0.929 . S
C387 C384 1.356 . S
C387 C389 1.358 . S
C387 H429 0.930 . S
C388 N385 1.314 . S
C388 C386 1.353 . S
C388 H430 0.930 . S
C389 N385 1.279 . S
C389 C387 1.358 . S
C389 H431 0.930 . S
C390 C391 1.348 . S
C390 C392 1.356 . S
C390 O415 1.325 . S
C391 C390 1.348 . S
C391 C393 1.353 . S
C391 H432 0.929 . S
C392 C390 1.356 . S
C392 C394 1.358 . S
C392 H433 0.930 . S
C393 C391 1.353 . S
C393 N395 1.314 . S
C393 H434 0.930 . S
C394 C392 1.358 . S
C394 N395 1.279 . S
C394 H435 0.930 . S
N395 C393 1.314 . S
N395 C394 1.279 . S
C396 C398 1.353 . S
C396 N399 1.314 . S
C396 H402 0.930 . S
C397 N399 1.279 . S
C397 C400 1.358 . S
C397 H403 0.930 . S
C398 C396 1.353 . S
C398 C401 1.348 . S
C398 H436 0.929 . S
N399 Li354 1.990 . S
N399 C396 1.314 . S
N399 C397 1.279 . S
C400 C397 1.358 . S
C400 C401 1.356 . S
C400 H437 0.930 . S
C401 C398 1.348 . S
C401 C400 1.356 . S
H402 C396 0.930 . S
H403 C397 0.930 . S
C404 N405 1.314 . S
C404 C406 1.353 . S
C404 H410 0.930 . S
N405 Li355 1.990 . S
N405 C404 1.314 . S
N405 C408 1.279 . S
C406 C404 1.353 . S
C406 C409 1.348 . S
C406 H438 0.929 . S
C407 C408 1.358 . S
C407 C409 1.356 . S
C407 H439 0.930 . S
C408 N405 1.279 . S
C408 C407 1.358 . S
C408 H411 0.930 . S
C409 C406 1.348 . S
C409 C407 1.356 . S
H410 C404 0.930 . S
H411 C408 0.930 . S
O412 Li352 1.956 . S
O412 Li353 1.970 . S
O412 Li354 1.961 . S
O412 C356 1.325 . S
O413 Li352 1.970 . S
O413 Li353 1.956 . S
O413 Li355 1.961 . S
O413 C362 1.325 . S
O414 Li352 1.961 . S
O414 Li354 1.956 . S
O414 Li355 1.970 . S
O414 C384 1.325 . S
O415 Li353 1.961 . S
O415 Li354 1.970 . S
O415 Li355 1.956 . S
O415 C390 1.325 . S
H416 C358 0.929 . S
H417 C359 0.930 . S
H418 C360 0.930 . S
H419 C361 0.930 . S
H420 C363 0.930 . S
H421 C365 0.929 . S
H422 C366 0.930 . S
H423 C367 0.930 . S
H424 C370 0.930 . S
H425 C373 0.929 . S
H426 C378 0.929 . S
H427 C379 0.930 . S
H428 C386 0.929 . S
H429 C387 0.930 . S
H430 C388 0.930 . S
H431 C389 0.930 . S
H432 C391 0.929 . S
H433 C392 0.930 . S
H434 C393 0.930 . S
H435 C394 0.930 . S
H436 C398 0.929 . S
H437 C400 0.930 . S
H438 C406 0.929 . S
H439 C407 0.930 . S
Li440 N457 1.990 . S
Li440 O500 1.956 . S
Li440 O501 1.970 . S
Li440 O502 1.961 . S
Li441 N465 1.990 . S
Li441 O500 1.970 . S
Li441 O501 1.956 . S
Li441 O503 1.961 . S
Li442 N487 1.990 . S
Li442 O500 1.961 . S
Li442 O502 1.956 . S
Li442 O503 1.970 . S
Li443 N493 1.990 . S
Li443 O501 1.961 . S
Li443 O502 1.970 . S
Li443 O503 1.956 . S
C444 C446 1.348 . S
C444 C447 1.356 . S
C444 O500 1.325 . S
N445 C448 1.314 . S
N445 C449 1.279 . S
C446 C444 1.348 . S
C446 C448 1.353 . S
C446 H504 0.929 . S
C447 C444 1.356 . S
C447 C449 1.358 . S
C447 H505 0.930 . S
C448 N445 1.314 . S
C448 C446 1.353 . S
C448 H506 0.930 . S
C449 N445 1.279 . S
C449 C447 1.358 . S
C449 H507 0.930 . S
C450 C453 1.348 . S
C450 C454 1.356 . S
C450 O501 1.325 . S
C451 N452 1.279 . S
C451 C454 1.358 . S
C451 H508 0.930 . S
N452 C451 1.279 . S
N452 C455 1.314 . S
C453 C450 1.348 . S
C453 C455 1.353 . S
C453 H509 0.929 . S
C454 C450 1.356 . S
C454 C451 1.358 . S
C454 H510 0.930 . S
C455 N452 1.314 . S
C455 C453 1.353 . S
C455 H511 0.930 . S
C456 N457 1.314 . S
C456 C461 1.353 . S
C456 H462 0.930 . S
N457 Li440 1.990 . S
N457 C456 1.314 . S
N457 C459 1.279 . S
C458 C459 1.358 . S
C458 C460 1.356 . S
C458 H512 0.930 . S
C459 N457 1.279 . S
C459 C458 1.358 . S
C459 H463 0.930 . S
C460 C458 1.356 . S
C460 C461 1.348 . S
C461 C456 1.353 . S
C461 C460 1.348 . S
C461 H513 0.929 . S
H462 C456 0.930 . S
H463 C459 0.930 . S
C464 N465 1.314 . S
C464 C466 1.353 . S
C464 H470 0.930 . S
N465 Li441 1.990 . S
N465 C464 1.314 . S
N465 C468 1.279 . S
C466 C464 1.353 . S
C466 C469 1.348 . S
C466 H514 0.929 . S
C467 C468 1.358 . S
C467 C469 1.356 . S
C467 H515 0.930 . S
C468 N465 1.279 . S
C468 C467 1.358 . S
C468 H471 0.930 . S
C469 C466 1.348 . S
C469 C467 1.356 . S
H470 C464 0.930 . S
H471 C468 0.930 . S
C472 C474 1.348 . S
C472 C475 1.356 . S
C472 O502 1.325 . S
N473 C476 1.314 . S
N473 C477 1.279 . S
C474 C472 1.348 . S
C474 C476 1.353 . S
C474 H516 0.929 . S
C475 C472 1.356 . S
C475 C477 1.358 . S
C475 H517 0.930 . S
C476 N473 1.314 . S
C476 C474 1.353 . S
C476 H518 0.930 . S
C477 N473 1.279 . S
C477 C475 1.358 . S
C477 H519 0.930 . S
C478 C479 1.348 . S
C478 C480 1.356 . S
C478 O503 1.325 . S
C479 C478 1.348 . S
C479 C481 1.353 . S
C479 H520 0.929 . S
C480 C478 1.356 . S
C480 C482 1.358 . S
C480 H521 0.930 . S
C481 C479 1.353 . S
C481 N483 1.314 . S
C481 H522 0.930 . S
C482 C480 1.358 . S
C482 N483 1.279 . S
C482 H523 0.930 . S
N483 C481 1.314 . S
N483 C482 1.279 . S
C484 C486 1.353 . S
C484 N487 1.314 . S
C484 H490 0.930 . S
C485 N487 1.279 . S
C485 C488 1.358 . S
C485 H491 0.930 . S
C486 C484 1.353 . S
C486 C489 1.348 . S
C486 H524 0.929 . S
N487 Li442 1.990 . S
N487 C484 1.314 . S
N487 C485 1.279 . S
C488 C485 1.358 . S
C488 C489 1.356 . S
C488 H525 0.930 . S
C489 C486 1.348 . S
C489 C488 1.356 . S
H490 C484 0.930 . S
H491 C485 0.930 . S
C492 N493 1.314 . S
C492 C494 1.353 . S
C492 H498 0.930 . S
N493 Li443 1.990 . S
N493 C492 1.314 . S
N493 C496 1.279 . S
C494 C492 1.353 . S
C494 C497 1.348 . S
C494 H526 0.929 . S
C495 C496 1.358 . S
C495 C497 1.356 . S
C495 H527 0.930 . S
C496 N493 1.279 . S
C496 C495 1.358 . S
C496 H499 0.930 . S
C497 C494 1.348 . S
C497 C495 1.356 . S
H498 C492 0.930 . S
H499 C496 0.930 . S
O500 Li440 1.956 . S
O500 Li441 1.970 . S
O500 Li442 1.961 . S
O500 C444 1.325 . S
O501 Li440 1.970 . S
O501 Li441 1.956 . S
O501 Li443 1.961 . S
O501 C450 1.325 . S
O502 Li440 1.961 . S
O502 Li442 1.956 . S
O502 Li443 1.970 . S
O502 C472 1.325 . S
O503 Li441 1.961 . S
O503 Li442 1.970 . S
O503 Li443 1.956 . S
O503 C478 1.325 . S
H504 C446 0.929 . S
H505 C447 0.930 . S
H506 C448 0.930 . S
H507 C449 0.930 . S
H508 C451 0.930 . S
H509 C453 0.929 . S
H510 C454 0.930 . S
H511 C455 0.930 . S
H512 C458 0.930 . S
H513 C461 0.929 . S
H514 C466 0.929 . S
H515 C467 0.930 . S
H516 C474 0.929 . S
H517 C475 0.930 . S
H518 C476 0.930 . S
H519 C477 0.930 . S
H520 C479 0.929 . S
H521 C480 0.930 . S
H522 C481 0.930 . S
H523 C482 0.930 . S
H524 C486 0.929 . S
H525 C488 0.930 . S
H526 C494 0.929 . S
H527 C495 0.930 . S
Li528 N545 1.990 . S
Li528 O588 1.956 . S
Li528 O589 1.970 . S
Li528 O590 1.961 . S
Li529 N553 1.990 . S
Li529 O588 1.970 . S
Li529 O589 1.956 . S
Li529 O591 1.961 . S
Li530 N575 1.990 . S
Li530 O588 1.961 . S
Li530 O590 1.956 . S
Li530 O591 1.970 . S
Li531 N581 1.990 . S
Li531 O589 1.961 . S
Li531 O590 1.970 . S
Li531 O591 1.956 . S
C532 C534 1.348 . S
C532 C535 1.356 . S
C532 O588 1.325 . S
N533 C536 1.314 . S
N533 C537 1.279 . S
C534 C532 1.348 . S
C534 C536 1.353 . S
C534 H592 0.929 . S
C535 C532 1.356 . S
C535 C537 1.358 . S
C535 H593 0.930 . S
C536 N533 1.314 . S
C536 C534 1.353 . S
C536 H594 0.930 . S
C537 N533 1.279 . S
C537 C535 1.358 . S
C537 H595 0.930 . S
C538 C541 1.348 . S
C538 C542 1.356 . S
C538 O589 1.325 . S
C539 N540 1.279 . S
C539 C542 1.358 . S
C539 H596 0.930 . S
N540 C539 1.279 . S
N540 C543 1.314 . S
C541 C538 1.348 . S
C541 C543 1.353 . S
C541 H597 0.929 . S
C542 C538 1.356 . S
C542 C539 1.358 . S
C542 H598 0.930 . S
C543 N540 1.314 . S
C543 C541 1.353 . S
C543 H599 0.930 . S
C544 N545 1.314 . S
C544 C549 1.353 . S
C544 H550 0.930 . S
N545 Li528 1.990 . S
N545 C544 1.314 . S
N545 C547 1.279 . S
C546 C547 1.358 . S
C546 C548 1.356 . S
C546 H600 0.930 . S
C547 N545 1.279 . S
C547 C546 1.358 . S
C547 H551 0.930 . S
C548 C546 1.356 . S
C548 C549 1.348 . S
C549 C544 1.353 . S
C549 C548 1.348 . S
C549 H601 0.929 . S
H550 C544 0.930 . S
H551 C547 0.930 . S
C552 N553 1.314 . S
C552 C554 1.353 . S
C552 H558 0.930 . S
N553 Li529 1.990 . S
N553 C552 1.314 . S
N553 C556 1.279 . S
C554 C552 1.353 . S
C554 C557 1.348 . S
C554 H602 0.929 . S
C555 C556 1.358 . S
C555 C557 1.356 . S
C555 H603 0.930 . S
C556 N553 1.279 . S
C556 C555 1.358 . S
C556 H559 0.930 . S
C557 C554 1.348 . S
C557 C555 1.356 . S
H558 C552 0.930 . S
H559 C556 0.930 . S
C560 C562 1.348 . S
C560 C563 1.356 . S
C560 O590 1.325 . S
N561 C564 1.314 . S
N561 C565 1.279 . S
C562 C560 1.348 . S
C562 C564 1.353 . S
C562 H604 0.929 . S
C563 C560 1.356 . S
C563 C565 1.358 . S
C563 H605 0.930 . S
C564 N561 1.314 . S
C564 C562 1.353 . S
C564 H606 0.930 . S
C565 N561 1.279 . S
C565 C563 1.358 . S
C565 H607 0.930 . S
C566 C567 1.348 . S
C566 C568 1.356 . S
C566 O591 1.325 . S
C567 C566 1.348 . S
C567 C569 1.353 . S
C567 H608 0.929 . S
C568 C566 1.356 . S
C568 C570 1.358 . S
C568 H609 0.930 . S
C569 C567 1.353 . S
C569 N571 1.314 . S
C569 H610 0.930 . S
C570 C568 1.358 . S
C570 N571 1.279 . S
C570 H611 0.930 . S
N571 C569 1.314 . S
N571 C570 1.279 . S
C572 C574 1.353 . S
C572 N575 1.314 . S
C572 H578 0.930 . S
C573 N575 1.279 . S
C573 C576 1.358 . S
C573 H579 0.930 . S
C574 C572 1.353 . S
C574 C577 1.348 . S
C574 H612 0.929 . S
N575 Li530 1.990 . S
N575 C572 1.314 . S
N575 C573 1.279 . S
C576 C573 1.358 . S
C576 C577 1.356 . S
C576 H613 0.930 . S
C577 C574 1.348 . S
C577 C576 1.356 . S
H578 C572 0.930 . S
H579 C573 0.930 . S
C580 N581 1.314 . S
C580 C582 1.353 . S
C580 H586 0.930 . S
N581 Li531 1.990 . S
N581 C580 1.314 . S
N581 C584 1.279 . S
C582 C580 1.353 . S
C582 C585 1.348 . S
C582 H614 0.929 . S
C583 C584 1.358 . S
C583 C585 1.356 . S
C583 H615 0.930 . S
C584 N581 1.279 . S
C584 C583 1.358 . S
C584 H587 0.930 . S
C585 C582 1.348 . S
C585 C583 1.356 . S
H586 C580 0.930 . S
H587 C584 0.930 . S
O588 Li528 1.956 . S
O588 Li529 1.970 . S
O588 Li530 1.961 . S
O588 C532 1.325 . S
O589 Li528 1.970 . S
O589 Li529 1.956 . S
O589 Li531 1.961 . S
O589 C538 1.325 . S
O590 Li528 1.961 . S
O590 Li530 1.956 . S
O590 Li531 1.970 . S
O590 C560 1.325 . S
O591 Li529 1.961 . S
O591 Li530 1.970 . S
O591 Li531 1.956 . S
O591 C566 1.325 . S
H592 C534 0.929 . S
H593 C535 0.930 . S
H594 C536 0.930 . S
H595 C537 0.930 . S
H596 C539 0.930 . S
H597 C541 0.929 . S
H598 C542 0.930 . S
H599 C543 0.930 . S
H600 C546 0.930 . S
H601 C549 0.929 . S
H602 C554 0.929 . S
H603 C555 0.930 . S
H604 C562 0.929 . S
H605 C563 0.930 . S
H606 C564 0.930 . S
H607 C565 0.930 . S
H608 C567 0.929 . S
H609 C568 0.930 . S
H610 C569 0.930 . S
H611 C570 0.930 . S
H612 C574 0.929 . S
H613 C576 0.930 . S
H614 C582 0.929 . S
H615 C583 0.930 . S
Li616 N633 1.990 . S
Li616 O676 1.956 . S
Li616 O677 1.970 . S
Li616 O678 1.961 . S
Li617 N641 1.990 . S
Li617 O676 1.970 . S
Li617 O677 1.956 . S
Li617 O679 1.961 . S
Li618 N663 1.990 . S
Li618 O676 1.961 . S
Li618 O678 1.956 . S
Li618 O679 1.970 . S
Li619 N669 1.990 . S
Li619 O677 1.961 . S
Li619 O678 1.970 . S
Li619 O679 1.956 . S
C620 C622 1.348 . S
C620 C623 1.356 . S
C620 O676 1.325 . S
N621 C624 1.314 . S
N621 C625 1.279 . S
C622 C620 1.348 . S
C622 C624 1.353 . S
C622 H680 0.929 . S
C623 C620 1.356 . S
C623 C625 1.358 . S
C623 H681 0.930 . S
C624 N621 1.314 . S
C624 C622 1.353 . S
C624 H682 0.930 . S
C625 N621 1.279 . S
C625 C623 1.358 . S
C625 H683 0.930 . S
C626 C629 1.348 . S
C626 C630 1.356 . S
C626 O677 1.325 . S
C627 N628 1.279 . S
C627 C630 1.358 . S
C627 H684 0.930 . S
N628 C627 1.279 . S
N628 C631 1.314 . S
C629 C626 1.348 . S
C629 C631 1.353 . S
C629 H685 0.929 . S
C630 C626 1.356 . S
C630 C627 1.358 . S
C630 H686 0.930 . S
C631 N628 1.314 . S
C631 C629 1.353 . S
C631 H687 0.930 . S
C632 N633 1.314 . S
C632 C637 1.353 . S
C632 H638 0.930 . S
N633 Li616 1.990 . S
N633 C632 1.314 . S
N633 C635 1.279 . S
C634 C635 1.358 . S
C634 C636 1.356 . S
C634 H688 0.930 . S
C635 N633 1.279 . S
C635 C634 1.358 . S
C635 H639 0.930 . S
C636 C634 1.356 . S
C636 C637 1.348 . S
C637 C632 1.353 . S
C637 C636 1.348 . S
C637 H689 0.929 . S
H638 C632 0.930 . S
H639 C635 0.930 . S
C640 N641 1.314 . S
C640 C642 1.353 . S
C640 H646 0.930 . S
N641 Li617 1.990 . S
N641 C640 1.314 . S
N641 C644 1.279 . S
C642 C640 1.353 . S
C642 C645 1.348 . S
C642 H690 0.929 . S
C643 C644 1.358 . S
C643 C645 1.356 . S
C643 H691 0.930 . S
C644 N641 1.279 . S
C644 C643 1.358 . S
C644 H647 0.930 . S
C645 C642 1.348 . S
C645 C643 1.356 . S
H646 C640 0.930 . S
H647 C644 0.930 . S
C648 C650 1.348 . S
C648 C651 1.356 . S
C648 O678 1.325 . S
N649 C652 1.314 . S
N649 C653 1.279 . S
C650 C648 1.348 . S
C650 C652 1.353 . S
C650 H692 0.929 . S
C651 C648 1.356 . S
C651 C653 1.358 . S
C651 H693 0.930 . S
C652 N649 1.314 . S
C652 C650 1.353 . S
C652 H694 0.930 . S
C653 N649 1.279 . S
C653 C651 1.358 . S
C653 H695 0.930 . S
C654 C655 1.348 . S
C654 C656 1.356 . S
C654 O679 1.325 . S
C655 C654 1.348 . S
C655 C657 1.353 . S
C655 H696 0.929 . S
C656 C654 1.356 . S
C656 C658 1.358 . S
C656 H697 0.930 . S
C657 C655 1.353 . S
C657 N659 1.314 . S
C657 H698 0.930 . S
C658 C656 1.358 . S
C658 N659 1.279 . S
C658 H699 0.930 . S
N659 C657 1.314 . S
N659 C658 1.279 . S
C660 C662 1.353 . S
C660 N663 1.314 . S
C660 H666 0.930 . S
C661 N663 1.279 . S
C661 C664 1.358 . S
C661 H667 0.930 . S
C662 C660 1.353 . S
C662 C665 1.348 . S
C662 H700 0.929 . S
N663 Li618 1.990 . S
N663 C660 1.314 . S
N663 C661 1.279 . S
C664 C661 1.358 . S
C664 C665 1.356 . S
C664 H701 0.930 . S
C665 C662 1.348 . S
C665 C664 1.356 . S
H666 C660 0.930 . S
H667 C661 0.930 . S
C668 N669 1.314 . S
C668 C670 1.353 . S
C668 H674 0.930 . S
N669 Li619 1.990 . S
N669 C668 1.314 . S
N669 C672 1.279 . S
C670 C668 1.353 . S
C670 C673 1.348 . S
C670 H702 0.929 . S
C671 C672 1.358 . S
C671 C673 1.356 . S
C671 H703 0.930 . S
C672 N669 1.279 . S
C672 C671 1.358 . S
C672 H675 0.930 . S
C673 C670 1.348 . S
C673 C671 1.356 . S
H674 C668 0.930 . S
H675 C672 0.930 . S
O676 Li616 1.956 . S
O676 Li617 1.970 . S
O676 Li618 1.961 . S
O676 C620 1.325 . S
O677 Li616 1.970 . S
O677 Li617 1.956 . S
O677 Li619 1.961 . S
O677 C626 1.325 . S
O678 Li616 1.961 . S
O678 Li618 1.956 . S
O678 Li619 1.970 . S
O678 C648 1.325 . S
O679 Li617 1.961 . S
O679 Li618 1.970 . S
O679 Li619 1.956 . S
O679 C654 1.325 . S
H680 C622 0.929 . S
H681 C623 0.930 . S
H682 C624 0.930 . S
H683 C625 0.930 . S
H684 C627 0.930 . S
H685 C629 0.929 . S
H686 C630 0.930 . S
H687 C631 0.930 . S
H688 C634 0.930 . S
H689 C637 0.929 . S
H690 C642 0.929 . S
H691 C643 0.930 . S
H692 C650 0.929 . S
H693 C651 0.930 . S
H694 C652 0.930 . S
H695 C653 0.930 . S
H696 C655 0.929 . S
H697 C656 0.930 . S
H698 C657 0.930 . S
H699 C658 0.930 . S
H700 C662 0.929 . S
H701 C664 0.930 . S
H702 C670 0.929 . S
H703 C671 0.930 . S
Li704 N721 1.990 . S
Li704 O764 1.956 . S
Li704 O765 1.970 . S
Li704 O766 1.961 . S
Li705 N729 1.990 . S
Li705 O764 1.970 . S
Li705 O765 1.956 . S
Li705 O767 1.961 . S
Li706 N751 1.990 . S
Li706 O764 1.961 . S
Li706 O766 1.956 . S
Li706 O767 1.970 . S
Li707 N757 1.990 . S
Li707 O765 1.961 . S
Li707 O766 1.970 . S
Li707 O767 1.956 . S
C708 C710 1.348 . S
C708 C711 1.356 . S
C708 O764 1.325 . S
N709 C712 1.314 . S
N709 C713 1.279 . S
C710 C708 1.348 . S
C710 C712 1.353 . S
C710 H768 0.929 . S
C711 C708 1.356 . S
C711 C713 1.358 . S
C711 H769 0.930 . S
C712 N709 1.314 . S
C712 C710 1.353 . S
C712 H770 0.930 . S
C713 N709 1.279 . S
C713 C711 1.358 . S
C713 H771 0.930 . S
C714 C717 1.348 . S
C714 C718 1.356 . S
C714 O765 1.325 . S
C715 N716 1.279 . S
C715 C718 1.358 . S
C715 H772 0.930 . S
N716 C715 1.279 . S
N716 C719 1.314 . S
C717 C714 1.348 . S
C717 C719 1.353 . S
C717 H773 0.929 . S
C718 C714 1.356 . S
C718 C715 1.358 . S
C718 H774 0.930 . S
C719 N716 1.314 . S
C719 C717 1.353 . S
C719 H775 0.930 . S
C720 N721 1.314 . S
C720 C725 1.353 . S
C720 H726 0.930 . S
N721 Li704 1.990 . S
N721 C720 1.314 . S
N721 C723 1.279 . S
C722 C723 1.358 . S
C722 C724 1.356 . S
C722 H776 0.930 . S
C723 N721 1.279 . S
C723 C722 1.358 . S
C723 H727 0.930 . S
C724 C722 1.356 . S
C724 C725 1.348 . S
C725 C720 1.353 . S
C725 C724 1.348 . S
C725 H777 0.929 . S
H726 C720 0.930 . S
H727 C723 0.930 . S
C728 N729 1.314 . S
C728 C730 1.353 . S
C728 H734 0.930 . S
N729 Li705 1.990 . S
N729 C728 1.314 . S
N729 C732 1.279 . S
C730 C728 1.353 . S
C730 C733 1.348 . S
C730 H778 0.929 . S
C731 C732 1.358 . S
C731 C733 1.356 . S
C731 H779 0.930 . S
C732 N729 1.279 . S
C732 C731 1.358 . S
C732 H735 0.930 . S
C733 C730 1.348 . S
C733 C731 1.356 . S
H734 C728 0.930 . S
H735 C732 0.930 . S
C736 C738 1.348 . S
C736 C739 1.356 . S
C736 O766 1.325 . S
N737 C740 1.314 . S
N737 C741 1.279 . S
C738 C736 1.348 . S
C738 C740 1.353 . S
C738 H780 0.929 . S
C739 C736 1.356 . S
C739 C741 1.358 . S
C739 H781 0.930 . S
C740 N737 1.314 . S
C740 C738 1.353 . S
C740 H782 0.930 . S
C741 N737 1.279 . S
C741 C739 1.358 . S
C741 H783 0.930 . S
C742 C743 1.348 . S
C742 C744 1.356 . S
C742 O767 1.325 . S
C743 C742 1.348 . S
C743 C745 1.353 . S
C743 H784 0.929 . S
C744 C742 1.356 . S
C744 C746 1.358 . S
C744 H785 0.930 . S
C745 C743 1.353 . S
C745 N747 1.314 . S
C745 H786 0.930 . S
C746 C744 1.358 . S
C746 N747 1.279 . S
C746 H787 0.930 . S
N747 C745 1.314 . S
N747 C746 1.279 . S
C748 C750 1.353 . S
C748 N751 1.314 . S
C748 H754 0.930 . S
C749 N751 1.279 . S
C749 C752 1.358 . S
C749 H755 0.930 . S
C750 C748 1.353 . S
C750 C753 1.348 . S
C750 H788 0.929 . S
N751 Li706 1.990 . S
N751 C748 1.314 . S
N751 C749 1.279 . S
C752 C749 1.358 . S
C752 C753 1.356 . S
C752 H789 0.930 . S
C753 C750 1.348 . S
C753 C752 1.356 . S
H754 C748 0.930 . S
H755 C749 0.930 . S
C756 N757 1.314 . S
C756 C758 1.353 . S
C756 H762 0.930 . S
N757 Li707 1.990 . S
N757 C756 1.314 . S
N757 C760 1.279 . S
C758 C756 1.353 . S
C758 C761 1.348 . S
C758 H790 0.929 . S
C759 C760 1.358 . S
C759 C761 1.356 . S
C759 H791 0.930 . S
C760 N757 1.279 . S
C760 C759 1.358 . S
C760 H763 0.930 . S
C761 C758 1.348 . S
C761 C759 1.356 . S
H762 C756 0.930 . S
H763 C760 0.930 . S
O764 Li704 1.956 . S
O764 Li705 1.970 . S
O764 Li706 1.961 . S
O764 C708 1.325 . S
O765 Li704 1.970 . S
O765 Li705 1.956 . S
O765 Li707 1.961 . S
O765 C714 1.325 . S
O766 Li704 1.961 . S
O766 Li706 1.956 . S
O766 Li707 1.970 . S
O766 C736 1.325 . S
O767 Li705 1.961 . S
O767 Li706 1.970 . S
O767 Li707 1.956 . S
O767 C742 1.325 . S
H768 C710 0.929 . S
H769 C711 0.930 . S
H770 C712 0.930 . S
H771 C713 0.930 . S
H772 C715 0.930 . S
H773 C717 0.929 . S
H774 C718 0.930 . S
H775 C719 0.930 . S
H776 C722 0.930 . S
H777 C725 0.929 . S
H778 C730 0.929 . S
H779 C731 0.930 . S
H780 C738 0.929 . S
H781 C739 0.930 . S
H782 C740 0.930 . S
H783 C741 0.930 . S
H784 C743 0.929 . S
H785 C744 0.930 . S
H786 C745 0.930 . S
H787 C746 0.930 . S
H788 C750 0.929 . S
H789 C752 0.930 . S
H790 C758 0.929 . S
H791 C759 0.930 . S
Li792 N809 1.990 . S
Li792 O852 1.956 . S
Li792 O853 1.970 . S
Li792 O854 1.961 . S
Li793 N817 1.990 . S
Li793 O852 1.970 . S
Li793 O853 1.956 . S
Li793 O855 1.961 . S
Li794 N839 1.990 . S
Li794 O852 1.961 . S
Li794 O854 1.956 . S
Li794 O855 1.970 . S
Li795 N845 1.990 . S
Li795 O853 1.961 . S
Li795 O854 1.970 . S
Li795 O855 1.956 . S
C796 C798 1.348 . S
C796 C799 1.356 . S
C796 O852 1.325 . S
N797 C800 1.314 . S
N797 C801 1.279 . S
C798 C796 1.348 . S
C798 C800 1.353 . S
C798 H856 0.929 . S
C799 C796 1.356 . S
C799 C801 1.358 . S
C799 H857 0.930 . S
C800 N797 1.314 . S
C800 C798 1.353 . S
C800 H858 0.930 . S
C801 N797 1.279 . S
C801 C799 1.358 . S
C801 H859 0.930 . S
C802 C805 1.348 . S
C802 C806 1.356 . S
C802 O853 1.325 . S
C803 N804 1.279 . S
C803 C806 1.358 . S
C803 H860 0.930 . S
N804 C803 1.279 . S
N804 C807 1.314 . S
C805 C802 1.348 . S
C805 C807 1.353 . S
C805 H861 0.929 . S
C806 C802 1.356 . S
C806 C803 1.358 . S
C806 H862 0.930 . S
C807 N804 1.314 . S
C807 C805 1.353 . S
C807 H863 0.930 . S
C808 N809 1.314 . S
C808 C813 1.353 . S
C808 H814 0.930 . S
N809 Li792 1.990 . S
N809 C808 1.314 . S
N809 C811 1.279 . S
C810 C811 1.358 . S
C810 C812 1.356 . S
C810 H864 0.930 . S
C811 N809 1.279 . S
C811 C810 1.358 . S
C811 H815 0.930 . S
C812 C810 1.356 . S
C812 C813 1.348 . S
C813 C808 1.353 . S
C813 C812 1.348 . S
C813 H865 0.929 . S
H814 C808 0.930 . S
H815 C811 0.930 . S
C816 N817 1.314 . S
C816 C818 1.353 . S
C816 H822 0.930 . S
N817 Li793 1.990 . S
N817 C816 1.314 . S
N817 C820 1.279 . S
C818 C816 1.353 . S
C818 C821 1.348 . S
C818 H866 0.929 . S
C819 C820 1.358 . S
C819 C821 1.356 . S
C819 H867 0.930 . S
C820 N817 1.279 . S
C820 C819 1.358 . S
C820 H823 0.930 . S
C821 C818 1.348 . S
C821 C819 1.356 . S
H822 C816 0.930 . S
H823 C820 0.930 . S
C824 C826 1.348 . S
C824 C827 1.356 . S
C824 O854 1.325 . S
N825 C828 1.314 . S
N825 C829 1.279 . S
C826 C824 1.348 . S
C826 C828 1.353 . S
C826 H868 0.929 . S
C827 C824 1.356 . S
C827 C829 1.358 . S
C827 H869 0.930 . S
C828 N825 1.314 . S
C828 C826 1.353 . S
C828 H870 0.930 . S
C829 N825 1.279 . S
C829 C827 1.358 . S
C829 H871 0.930 . S
C830 C831 1.348 . S
C830 C832 1.356 . S
C830 O855 1.325 . S
C831 C830 1.348 . S
C831 C833 1.353 . S
C831 H872 0.929 . S
C832 C830 1.356 . S
C832 C834 1.358 . S
C832 H873 0.930 . S
C833 C831 1.353 . S
C833 N835 1.314 . S
C833 H874 0.930 . S
C834 C832 1.358 . S
C834 N835 1.279 . S
C834 H875 0.930 . S
N835 C833 1.314 . S
N835 C834 1.279 . S
C836 C838 1.353 . S
C836 N839 1.314 . S
C836 H842 0.930 . S
C837 N839 1.279 . S
C837 C840 1.358 . S
C837 H843 0.930 . S
C838 C836 1.353 . S
C838 C841 1.348 . S
C838 H876 0.929 . S
N839 Li794 1.990 . S
N839 C836 1.314 . S
N839 C837 1.279 . S
C840 C837 1.358 . S
C840 C841 1.356 . S
C840 H877 0.930 . S
C841 C838 1.348 . S
C841 C840 1.356 . S
H842 C836 0.930 . S
H843 C837 0.930 . S
C844 N845 1.314 . S
C844 C846 1.353 . S
C844 H850 0.930 . S
N845 Li795 1.990 . S
N845 C844 1.314 . S
N845 C848 1.279 . S
C846 C844 1.353 . S
C846 C849 1.348 . S
C846 H878 0.929 . S
C847 C848 1.358 . S
C847 C849 1.356 . S
C847 H879 0.930 . S
C848 N845 1.279 . S
C848 C847 1.358 . S
C848 H851 0.930 . S
C849 C846 1.348 . S
C849 C847 1.356 . S
H850 C844 0.930 . S
H851 C848 0.930 . S
O852 Li792 1.956 . S
O852 Li793 1.970 . S
O852 Li794 1.961 . S
O852 C796 1.325 . S
O853 Li792 1.970 . S
O853 Li793 1.956 . S
O853 Li795 1.961 . S
O853 C802 1.325 . S
O854 Li792 1.961 . S
O854 Li794 1.956 . S
O854 Li795 1.970 . S
O854 C824 1.325 . S
O855 Li793 1.961 . S
O855 Li794 1.970 . S
O855 Li795 1.956 . S
O855 C830 1.325 . S
H856 C798 0.929 . S
H857 C799 0.930 . S
H858 C800 0.930 . S
H859 C801 0.930 . S
H860 C803 0.930 . S
H861 C805 0.929 . S
H862 C806 0.930 . S
H863 C807 0.930 . S
H864 C810 0.930 . S
H865 C813 0.929 . S
H866 C818 0.929 . S
H867 C819 0.930 . S
H868 C826 0.929 . S
H869 C827 0.930 . S
H870 C828 0.930 . S
H871 C829 0.930 . S
H872 C831 0.929 . S
H873 C832 0.930 . S
H874 C833 0.930 . S
H875 C834 0.930 . S
H876 C838 0.929 . S
H877 C840 0.930 . S
H878 C846 0.929 . S
H879 C847 0.930 . S
Li880 N897 1.990 . S
Li880 O940 1.956 . S
Li880 O941 1.970 . S
Li880 O942 1.961 . S
Li881 N905 1.990 . S
Li881 O940 1.970 . S
Li881 O941 1.956 . S
Li881 O943 1.961 . S
Li882 N927 1.990 . S
Li882 O940 1.961 . S
Li882 O942 1.956 . S
Li882 O943 1.970 . S
Li883 N933 1.990 . S
Li883 O941 1.961 . S
Li883 O942 1.970 . S
Li883 O943 1.956 . S
C884 C886 1.348 . S
C884 C887 1.356 . S
C884 O940 1.325 . S
N885 C888 1.314 . S
N885 C889 1.279 . S
C886 C884 1.348 . S
C886 C888 1.353 . S
C886 H944 0.929 . S
C887 C884 1.356 . S
C887 C889 1.358 . S
C887 H945 0.930 . S
C888 N885 1.314 . S
C888 C886 1.353 . S
C888 H946 0.930 . S
C889 N885 1.279 . S
C889 C887 1.358 . S
C889 H947 0.930 . S
C890 C893 1.348 . S
C890 C894 1.356 . S
C890 O941 1.325 . S
C891 N892 1.279 . S
C891 C894 1.358 . S
C891 H948 0.930 . S
N892 C891 1.279 . S
N892 C895 1.314 . S
C893 C890 1.348 . S
C893 C895 1.353 . S
C893 H949 0.929 . S
C894 C890 1.356 . S
C894 C891 1.358 . S
C894 H950 0.930 . S
C895 N892 1.314 . S
C895 C893 1.353 . S
C895 H951 0.930 . S
C896 N897 1.314 . S
C896 C901 1.353 . S
C896 H902 0.930 . S
N897 Li880 1.990 . S
N897 C896 1.314 . S
N897 C899 1.279 . S
C898 C899 1.358 . S
C898 C900 1.356 . S
C898 H952 0.930 . S
C899 N897 1.279 . S
C899 C898 1.358 . S
C899 H903 0.930 . S
C900 C898 1.356 . S
C900 C901 1.348 . S
C901 C896 1.353 . S
C901 C900 1.348 . S
C901 H953 0.929 . S
H902 C896 0.930 . S
H903 C899 0.930 . S
C904 N905 1.314 . S
C904 C906 1.353 . S
C904 H910 0.930 . S
N905 Li881 1.990 . S
N905 C904 1.314 . S
N905 C908 1.279 . S
C906 C904 1.353 . S
C906 C909 1.348 . S
C906 H954 0.929 . S
C907 C908 1.358 . S
C907 C909 1.356 . S
C907 H955 0.930 . S
C908 N905 1.279 . S
C908 C907 1.358 . S
C908 H911 0.930 . S
C909 C906 1.348 . S
C909 C907 1.356 . S
H910 C904 0.930 . S
H911 C908 0.930 . S
C912 C914 1.348 . S
C912 C915 1.356 . S
C912 O942 1.325 . S
N913 C916 1.314 . S
N913 C917 1.279 . S
C914 C912 1.348 . S
C914 C916 1.353 . S
C914 H956 0.929 . S
C915 C912 1.356 . S
C915 C917 1.358 . S
C915 H957 0.930 . S
C916 N913 1.314 . S
C916 C914 1.353 . S
C916 H958 0.930 . S
C917 N913 1.279 . S
C917 C915 1.358 . S
C917 H959 0.930 . S
C918 C919 1.348 . S
C918 C920 1.356 . S
C918 O943 1.325 . S
C919 C918 1.348 . S
C919 C921 1.353 . S
C919 H960 0.929 . S
C920 C918 1.356 . S
C920 C922 1.358 . S
C920 H961 0.930 . S
C921 C919 1.353 . S
C921 N923 1.314 . S
C921 H962 0.930 . S
C922 C920 1.358 . S
C922 N923 1.279 . S
C922 H963 0.930 . S
N923 C921 1.314 . S
N923 C922 1.279 . S
C924 C926 1.353 . S
C924 N927 1.314 . S
C924 H930 0.930 . S
C925 N927 1.279 . S
C925 C928 1.358 . S
C925 H931 0.930 . S
C926 C924 1.353 . S
C926 C929 1.348 . S
C926 H964 0.929 . S
N927 Li882 1.990 . S
N927 C924 1.314 . S
N927 C925 1.279 . S
C928 C925 1.358 . S
C928 C929 1.356 . S
C928 H965 0.930 . S
C929 C926 1.348 . S
C929 C928 1.356 . S
H930 C924 0.930 . S
H931 C925 0.930 . S
C932 N933 1.314 . S
C932 C934 1.353 . S
C932 H938 0.930 . S
N933 Li883 1.990 . S
N933 C932 1.314 . S
N933 C936 1.279 . S
C934 C932 1.353 . S
C934 C937 1.348 . S
C934 H966 0.929 . S
C935 C936 1.358 . S
C935 C937 1.356 . S
C935 H967 0.930 . S
C936 N933 1.279 . S
C936 C935 1.358 . S
C936 H939 0.930 . S
C937 C934 1.348 . S
C937 C935 1.356 . S
H938 C932 0.930 . S
H939 C936 0.930 . S
O940 Li880 1.956 . S
O940 Li881 1.970 . S
O940 Li882 1.961 . S
O940 C884 1.325 . S
O941 Li880 1.970 . S
O941 Li881 1.956 . S
O941 Li883 1.961 . S
O941 C890 1.325 . S
O942 Li880 1.961 . S
O942 Li882 1.956 . S
O942 Li883 1.970 . S
O942 C912 1.325 . S
O943 Li881 1.961 . S
O943 Li882 1.970 . S
O943 Li883 1.956 . S
O943 C918 1.325 . S
H944 C886 0.929 . S
H945 C887 0.930 . S
H946 C888 0.930 . S
H947 C889 0.930 . S
H948 C891 0.930 . S
H949 C893 0.929 . S
H950 C894 0.930 . S
H951 C895 0.930 . S
H952 C898 0.930 . S
H953 C901 0.929 . S
H954 C906 0.929 . S
H955 C907 0.930 . S
H956 C914 0.929 . S
H957 C915 0.930 . S
H958 C916 0.930 . S
H959 C917 0.930 . S
H960 C919 0.929 . S
H961 C920 0.930 . S
H962 C921 0.930 . S
H963 C922 0.930 . S
H964 C926 0.929 . S
H965 C928 0.930 . S
H966 C934 0.929 . S
H967 C935 0.930 . S
Li968 N985 1.990 . S
Li968 O1028 1.956 . S
Li968 O1029 1.970 . S
Li968 O1030 1.961 . S
Li969 N993 1.990 . S
Li969 O1028 1.970 . S
Li969 O1029 1.956 . S
Li969 O1031 1.961 . S
Li970 N1015 1.990 . S
Li970 O1028 1.961 . S
Li970 O1030 1.956 . S
Li970 O1031 1.970 . S
Li971 N1021 1.990 . S
Li971 O1029 1.961 . S
Li971 O1030 1.970 . S
Li971 O1031 1.956 . S
C972 C974 1.348 . S
C972 C975 1.356 . S
C972 O1028 1.325 . S
N973 C976 1.314 . S
N973 C977 1.279 . S
C974 C972 1.348 . S
C974 C976 1.353 . S
C974 H1032 0.929 . S
C975 C972 1.356 . S
C975 C977 1.358 . S
C975 H1033 0.930 . S
C976 N973 1.314 . S
C976 C974 1.353 . S
C976 H1034 0.930 . S
C977 N973 1.279 . S
C977 C975 1.358 . S
C977 H1035 0.930 . S
C978 C981 1.348 . S
C978 C982 1.356 . S
C978 O1029 1.325 . S
C979 N980 1.279 . S
C979 C982 1.358 . S
C979 H1036 0.930 . S
N980 C979 1.279 . S
N980 C983 1.314 . S
C981 C978 1.348 . S
C981 C983 1.353 . S
C981 H1037 0.929 . S
C982 C978 1.356 . S
C982 C979 1.358 . S
C982 H1038 0.930 . S
C983 N980 1.314 . S
C983 C981 1.353 . S
C983 H1039 0.930 . S
C984 N985 1.314 . S
C984 C989 1.353 . S
C984 H990 0.930 . S
N985 Li968 1.990 . S
N985 C984 1.314 . S
N985 C987 1.279 . S
C986 C987 1.358 . S
C986 C988 1.356 . S
C986 H1040 0.930 . S
C987 N985 1.279 . S
C987 C986 1.358 . S
C987 H991 0.930 . S
C988 C986 1.356 . S
C988 C989 1.348 . S
C989 C984 1.353 . S
C989 C988 1.348 . S
C989 H1041 0.929 . S
H990 C984 0.930 . S
H991 C987 0.930 . S
C992 N993 1.314 . S
C992 C994 1.353 . S
C992 H998 0.930 . S
N993 Li969 1.990 . S
N993 C992 1.314 . S
N993 C996 1.279 . S
C994 C992 1.353 . S
C994 C997 1.348 . S
C994 H1042 0.929 . S
C995 C996 1.358 . S
C995 C997 1.356 . S
C995 H1043 0.930 . S
C996 N993 1.279 . S
C996 C995 1.358 . S
C996 H999 0.930 . S
C997 C994 1.348 . S
C997 C995 1.356 . S
H998 C992 0.930 . S
H999 C996 0.930 . S
C1000 C1002 1.348 . S
C1000 C1003 1.356 . S
C1000 O1030 1.325 . S
N1001 C1004 1.314 . S
N1001 C1005 1.279 . S
C1002 C1000 1.348 . S
C1002 C1004 1.353 . S
C1002 H1044 0.929 . S
C1003 C1000 1.356 . S
C1003 C1005 1.358 . S
C1003 H1045 0.930 . S
C1004 N1001 1.314 . S
C1004 C1002 1.353 . S
C1004 H1046 0.930 . S
C1005 N1001 1.279 . S
C1005 C1003 1.358 . S
C1005 H1047 0.930 . S
C1006 C1007 1.348 . S
C1006 C1008 1.356 . S
C1006 O1031 1.325 . S
C1007 C1006 1.348 . S
C1007 C1009 1.353 . S
C1007 H1048 0.929 . S
C1008 C1006 1.356 . S
C1008 C1010 1.358 . S
C1008 H1049 0.930 . S
C1009 C1007 1.353 . S
C1009 N1011 1.314 . S
C1009 H1050 0.930 . S
C1010 C1008 1.358 . S
C1010 N1011 1.279 . S
C1010 H1051 0.930 . S
N1011 C1009 1.314 . S
N1011 C1010 1.279 . S
C1012 C1014 1.353 . S
C1012 N1015 1.314 . S
C1012 H1018 0.930 . S
C1013 N1015 1.279 . S
C1013 C1016 1.358 . S
C1013 H1019 0.930 . S
C1014 C1012 1.353 . S
C1014 C1017 1.348 . S
C1014 H1052 0.929 . S
N1015 Li970 1.990 . S
N1015 C1012 1.314 . S
N1015 C1013 1.279 . S
C1016 C1013 1.358 . S
C1016 C1017 1.356 . S
C1016 H1053 0.930 . S
C1017 C1014 1.348 . S
C1017 C1016 1.356 . S
H1018 C1012 0.930 . S
H1019 C1013 0.930 . S
C1020 N1021 1.314 . S
C1020 C1022 1.353 . S
C1020 H1026 0.930 . S
N1021 Li971 1.990 . S
N1021 C1020 1.314 . S
N1021 C1024 1.279 . S
C1022 C1020 1.353 . S
C1022 C1025 1.348 . S
C1022 H1054 0.929 . S
C1023 C1024 1.358 . S
C1023 C1025 1.356 . S
C1023 H1055 0.930 . S
C1024 N1021 1.279 . S
C1024 C1023 1.358 . S
C1024 H1027 0.930 . S
C1025 C1022 1.348 . S
C1025 C1023 1.356 . S
H1026 C1020 0.930 . S
H1027 C1024 0.930 . S
O1028 Li968 1.956 . S
O1028 Li969 1.970 . S
O1028 Li970 1.961 . S
O1028 C972 1.325 . S
O1029 Li968 1.970 . S
O1029 Li969 1.956 . S
O1029 Li971 1.961 . S
O1029 C978 1.325 . S
O1030 Li968 1.961 . S
O1030 Li970 1.956 . S
O1030 Li971 1.970 . S
O1030 C1000 1.325 . S
O1031 Li969 1.961 . S
O1031 Li970 1.970 . S
O1031 Li971 1.956 . S
O1031 C1006 1.325 . S
H1032 C974 0.929 . S
H1033 C975 0.930 . S
H1034 C976 0.930 . S
H1035 C977 0.930 . S
H1036 C979 0.930 . S
H1037 C981 0.929 . S
H1038 C982 0.930 . S
H1039 C983 0.930 . S
H1040 C986 0.930 . S
H1041 C989 0.929 . S
H1042 C994 0.929 . S
H1043 C995 0.930 . S
H1044 C1002 0.929 . S
H1045 C1003 0.930 . S
H1046 C1004 0.930 . S
H1047 C1005 0.930 . S
H1048 C1007 0.929 . S
H1049 C1008 0.930 . S
H1050 C1009 0.930 . S
H1051 C1010 0.930 . S
H1052 C1014 0.929 . S
H1053 C1016 0.930 . S
H1054 C1022 0.929 . S
H1055 C1023 0.930 . S
Li1056 N1073 1.990 . S
Li1056 O1116 1.956 . S
Li1056 O1117 1.970 . S
Li1056 O1118 1.961 . S
Li1057 N1081 1.990 . S
Li1057 O1116 1.970 . S
Li1057 O1117 1.956 . S
Li1057 O1119 1.961 . S
Li1058 N1103 1.990 . S
Li1058 O1116 1.961 . S
Li1058 O1118 1.956 . S
Li1058 O1119 1.970 . S
Li1059 N1109 1.990 . S
Li1059 O1117 1.961 . S
Li1059 O1118 1.970 . S
Li1059 O1119 1.956 . S
C1060 C1062 1.348 . S
C1060 C1063 1.356 . S
C1060 O1116 1.325 . S
N1061 C1064 1.314 . S
N1061 C1065 1.279 . S
C1062 C1060 1.348 . S
C1062 C1064 1.353 . S
C1062 H1120 0.929 . S
C1063 C1060 1.356 . S
C1063 C1065 1.358 . S
C1063 H1121 0.930 . S
C1064 N1061 1.314 . S
C1064 C1062 1.353 . S
C1064 H1122 0.930 . S
C1065 N1061 1.279 . S
C1065 C1063 1.358 . S
C1065 H1123 0.930 . S
C1066 C1069 1.348 . S
C1066 C1070 1.356 . S
C1066 O1117 1.325 . S
C1067 N1068 1.279 . S
C1067 C1070 1.358 . S
C1067 H1124 0.930 . S
N1068 C1067 1.279 . S
N1068 C1071 1.314 . S
C1069 C1066 1.348 . S
C1069 C1071 1.353 . S
C1069 H1125 0.929 . S
C1070 C1066 1.356 . S
C1070 C1067 1.358 . S
C1070 H1126 0.930 . S
C1071 N1068 1.314 . S
C1071 C1069 1.353 . S
C1071 H1127 0.930 . S
C1072 N1073 1.314 . S
C1072 C1077 1.353 . S
C1072 H1078 0.930 . S
N1073 Li1056 1.990 . S
N1073 C1072 1.314 . S
N1073 C1075 1.279 . S
C1074 C1075 1.358 . S
C1074 C1076 1.356 . S
C1074 H1128 0.930 . S
C1075 N1073 1.279 . S
C1075 C1074 1.358 . S
C1075 H1079 0.930 . S
C1076 C1074 1.356 . S
C1076 C1077 1.348 . S
C1077 C1072 1.353 . S
C1077 C1076 1.348 . S
C1077 H1129 0.929 . S
H1078 C1072 0.930 . S
H1079 C1075 0.930 . S
C1080 N1081 1.314 . S
C1080 C1082 1.353 . S
C1080 H1086 0.930 . S
N1081 Li1057 1.990 . S
N1081 C1080 1.314 . S
N1081 C1084 1.279 . S
C1082 C1080 1.353 . S
C1082 C1085 1.348 . S
C1082 H1130 0.929 . S
C1083 C1084 1.358 . S
C1083 C1085 1.356 . S
C1083 H1131 0.930 . S
C1084 N1081 1.279 . S
C1084 C1083 1.358 . S
C1084 H1087 0.930 . S
C1085 C1082 1.348 . S
C1085 C1083 1.356 . S
H1086 C1080 0.930 . S
H1087 C1084 0.930 . S
C1088 C1090 1.348 . S
C1088 C1091 1.356 . S
C1088 O1118 1.325 . S
N1089 C1092 1.314 . S
N1089 C1093 1.279 . S
C1090 C1088 1.348 . S
C1090 C1092 1.353 . S
C1090 H1132 0.929 . S
C1091 C1088 1.356 . S
C1091 C1093 1.358 . S
C1091 H1133 0.930 . S
C1092 N1089 1.314 . S
C1092 C1090 1.353 . S
C1092 H1134 0.930 . S
C1093 N1089 1.279 . S
C1093 C1091 1.358 . S
C1093 H1135 0.930 . S
C1094 C1095 1.348 . S
C1094 C1096 1.356 . S
C1094 O1119 1.325 . S
C1095 C1094 1.348 . S
C1095 C1097 1.353 . S
C1095 H1136 0.929 . S
C1096 C1094 1.356 . S
C1096 C1098 1.358 . S
C1096 H1137 0.930 . S
C1097 C1095 1.353 . S
C1097 N1099 1.314 . S
C1097 H1138 0.930 . S
C1098 C1096 1.358 . S
C1098 N1099 1.279 . S
C1098 H1139 0.930 . S
N1099 C1097 1.314 . S
N1099 C1098 1.279 . S
C1100 C1102 1.353 . S
C1100 N1103 1.314 . S
C1100 H1106 0.930 . S
C1101 N1103 1.279 . S
C1101 C1104 1.358 . S
C1101 H1107 0.930 . S
C1102 C1100 1.353 . S
C1102 C1105 1.348 . S
C1102 H1140 0.929 . S
N1103 Li1058 1.990 . S
N1103 C1100 1.314 . S
N1103 C1101 1.279 . S
C1104 C1101 1.358 . S
C1104 C1105 1.356 . S
C1104 H1141 0.930 . S
C1105 C1102 1.348 . S
C1105 C1104 1.356 . S
H1106 C1100 0.930 . S
H1107 C1101 0.930 . S
C1108 N1109 1.314 . S
C1108 C1110 1.353 . S
C1108 H1114 0.930 . S
N1109 Li1059 1.990 . S
N1109 C1108 1.314 . S
N1109 C1112 1.279 . S
C1110 C1108 1.353 . S
C1110 C1113 1.348 . S
C1110 H1142 0.929 . S
C1111 C1112 1.358 . S
C1111 C1113 1.356 . S
C1111 H1143 0.930 . S
C1112 N1109 1.279 . S
C1112 C1111 1.358 . S
C1112 H1115 0.930 . S
C1113 C1110 1.348 . S
C1113 C1111 1.356 . S
H1114 C1108 0.930 . S
H1115 C1112 0.930 . S
O1116 Li1056 1.956 . S
O1116 Li1057 1.970 . S
O1116 Li1058 1.961 . S
O1116 C1060 1.325 . S
O1117 Li1056 1.970 . S
O1117 Li1057 1.956 . S
O1117 Li1059 1.961 . S
O1117 C1066 1.325 . S
O1118 Li1056 1.961 . S
O1118 Li1058 1.956 . S
O1118 Li1059 1.970 . S
O1118 C1088 1.325 . S
O1119 Li1057 1.961 . S
O1119 Li1058 1.970 . S
O1119 Li1059 1.956 . S
O1119 C1094 1.325 . S
H1120 C1062 0.929 . S
H1121 C1063 0.930 . S
H1122 C1064 0.930 . S
H1123 C1065 0.930 . S
H1124 C1067 0.930 . S
H1125 C1069 0.929 . S
H1126 C1070 0.930 . S
H1127 C1071 0.930 . S
H1128 C1074 0.930 . S
H1129 C1077 0.929 . S
H1130 C1082 0.929 . S
H1131 C1083 0.930 . S
H1132 C1090 0.929 . S
H1133 C1091 0.930 . S
H1134 C1092 0.930 . S
H1135 C1093 0.930 . S
H1136 C1095 0.929 . S
H1137 C1096 0.930 . S
H1138 C1097 0.930 . S
H1139 C1098 0.930 . S
H1140 C1102 0.929 . S
H1141 C1104 0.930 . S
H1142 C1110 0.929 . S
H1143 C1111 0.930 . S
Li1144 N1161 1.990 . S
Li1144 O1204 1.956 . S
Li1144 O1205 1.970 . S
Li1144 O1206 1.961 . S
Li1145 N1169 1.990 . S
Li1145 O1204 1.970 . S
Li1145 O1205 1.956 . S
Li1145 O1207 1.961 . S
Li1146 N1191 1.990 . S
Li1146 O1204 1.961 . S
Li1146 O1206 1.956 . S
Li1146 O1207 1.970 . S
Li1147 N1197 1.990 . S
Li1147 O1205 1.961 . S
Li1147 O1206 1.970 . S
Li1147 O1207 1.956 . S
C1148 C1150 1.348 . S
C1148 C1151 1.356 . S
C1148 O1204 1.325 . S
N1149 C1152 1.314 . S
N1149 C1153 1.279 . S
C1150 C1148 1.348 . S
C1150 C1152 1.353 . S
C1150 H1208 0.929 . S
C1151 C1148 1.356 . S
C1151 C1153 1.358 . S
C1151 H1209 0.930 . S
C1152 N1149 1.314 . S
C1152 C1150 1.353 . S
C1152 H1210 0.930 . S
C1153 N1149 1.279 . S
C1153 C1151 1.358 . S
C1153 H1211 0.930 . S
C1154 C1157 1.348 . S
C1154 C1158 1.356 . S
C1154 O1205 1.325 . S
C1155 N1156 1.279 . S
C1155 C1158 1.358 . S
C1155 H1212 0.930 . S
N1156 C1155 1.279 . S
N1156 C1159 1.314 . S
C1157 C1154 1.348 . S
C1157 C1159 1.353 . S
C1157 H1213 0.929 . S
C1158 C1154 1.356 . S
C1158 C1155 1.358 . S
C1158 H1214 0.930 . S
C1159 N1156 1.314 . S
C1159 C1157 1.353 . S
C1159 H1215 0.930 . S
C1160 N1161 1.314 . S
C1160 C1165 1.353 . S
C1160 H1166 0.930 . S
N1161 Li1144 1.990 . S
N1161 C1160 1.314 . S
N1161 C1163 1.279 . S
C1162 C1163 1.358 . S
C1162 C1164 1.356 . S
C1162 H1216 0.930 . S
C1163 N1161 1.279 . S
C1163 C1162 1.358 . S
C1163 H1167 0.930 . S
C1164 C1162 1.356 . S
C1164 C1165 1.348 . S
C1165 C1160 1.353 . S
C1165 C1164 1.348 . S
C1165 H1217 0.929 . S
H1166 C1160 0.930 . S
H1167 C1163 0.930 . S
C1168 N1169 1.314 . S
C1168 C1170 1.353 . S
C1168 H1174 0.930 . S
N1169 Li1145 1.990 . S
N1169 C1168 1.314 . S
N1169 C1172 1.279 . S
C1170 C1168 1.353 . S
C1170 C1173 1.348 . S
C1170 H1218 0.929 . S
C1171 C1172 1.358 . S
C1171 C1173 1.356 . S
C1171 H1219 0.930 . S
C1172 N1169 1.279 . S
C1172 C1171 1.358 . S
C1172 H1175 0.930 . S
C1173 C1170 1.348 . S
C1173 C1171 1.356 . S
H1174 C1168 0.930 . S
H1175 C1172 0.930 . S
C1176 C1178 1.348 . S
C1176 C1179 1.356 . S
C1176 O1206 1.325 . S
N1177 C1180 1.314 . S
N1177 C1181 1.279 . S
C1178 C1176 1.348 . S
C1178 C1180 1.353 . S
C1178 H1220 0.929 . S
C1179 C1176 1.356 . S
C1179 C1181 1.358 . S
C1179 H1221 0.930 . S
C1180 N1177 1.314 . S
C1180 C1178 1.353 . S
C1180 H1222 0.930 . S
C1181 N1177 1.279 . S
C1181 C1179 1.358 . S
C1181 H1223 0.930 . S
C1182 C1183 1.348 . S
C1182 C1184 1.356 . S
C1182 O1207 1.325 . S
C1183 C1182 1.348 . S
C1183 C1185 1.353 . S
C1183 H1224 0.929 . S
C1184 C1182 1.356 . S
C1184 C1186 1.358 . S
C1184 H1225 0.930 . S
C1185 C1183 1.353 . S
C1185 N1187 1.314 . S
C1185 H1226 0.930 . S
C1186 C1184 1.358 . S
C1186 N1187 1.279 . S
C1186 H1227 0.930 . S
N1187 C1185 1.314 . S
N1187 C1186 1.279 . S
C1188 C1190 1.353 . S
C1188 N1191 1.314 . S
C1188 H1194 0.930 . S
C1189 N1191 1.279 . S
C1189 C1192 1.358 . S
C1189 H1195 0.930 . S
C1190 C1188 1.353 . S
C1190 C1193 1.348 . S
C1190 H1228 0.929 . S
N1191 Li1146 1.990 . S
N1191 C1188 1.314 . S
N1191 C1189 1.279 . S
C1192 C1189 1.358 . S
C1192 C1193 1.356 . S
C1192 H1229 0.930 . S
C1193 C1190 1.348 . S
C1193 C1192 1.356 . S
H1194 C1188 0.930 . S
H1195 C1189 0.930 . S
C1196 N1197 1.314 . S
C1196 C1198 1.353 . S
C1196 H1202 0.930 . S
N1197 Li1147 1.990 . S
N1197 C1196 1.314 . S
N1197 C1200 1.279 . S
C1198 C1196 1.353 . S
C1198 C1201 1.348 . S
C1198 H1230 0.929 . S
C1199 C1200 1.358 . S
C1199 C1201 1.356 . S
C1199 H1231 0.930 . S
C1200 N1197 1.279 . S
C1200 C1199 1.358 . S
C1200 H1203 0.930 . S
C1201 C1198 1.348 . S
C1201 C1199 1.356 . S
H1202 C1196 0.930 . S
H1203 C1200 0.930 . S
O1204 Li1144 1.956 . S
O1204 Li1145 1.970 . S
O1204 Li1146 1.961 . S
O1204 C1148 1.325 . S
O1205 Li1144 1.970 . S
O1205 Li1145 1.956 . S
O1205 Li1147 1.961 . S
O1205 C1154 1.325 . S
O1206 Li1144 1.961 . S
O1206 Li1146 1.956 . S
O1206 Li1147 1.970 . S
O1206 C1176 1.325 . S
O1207 Li1145 1.961 . S
O1207 Li1146 1.970 . S
O1207 Li1147 1.956 . S
O1207 C1182 1.325 . S
H1208 C1150 0.929 . S
H1209 C1151 0.930 . S
H1210 C1152 0.930 . S
H1211 C1153 0.930 . S
H1212 C1155 0.930 . S
H1213 C1157 0.929 . S
H1214 C1158 0.930 . S
H1215 C1159 0.930 . S
H1216 C1162 0.930 . S
H1217 C1165 0.929 . S
H1218 C1170 0.929 . S
H1219 C1171 0.930 . S
H1220 C1178 0.929 . S
H1221 C1179 0.930 . S
H1222 C1180 0.930 . S
H1223 C1181 0.930 . S
H1224 C1183 0.929 . S
H1225 C1184 0.930 . S
H1226 C1185 0.930 . S
H1227 C1186 0.930 . S
H1228 C1190 0.929 . S
H1229 C1192 0.930 . S
H1230 C1198 0.929 . S
H1231 C1199 0.930 . S
Li1232 N1249 1.990 . S
Li1232 O1292 1.956 . S
Li1232 O1293 1.970 . S
Li1232 O1294 1.961 . S
Li1233 N1257 1.990 . S
Li1233 O1292 1.970 . S
Li1233 O1293 1.956 . S
Li1233 O1295 1.961 . S
Li1234 N1279 1.990 . S
Li1234 O1292 1.961 . S
Li1234 O1294 1.956 . S
Li1234 O1295 1.970 . S
Li1235 N1285 1.990 . S
Li1235 O1293 1.961 . S
Li1235 O1294 1.970 . S
Li1235 O1295 1.956 . S
C1236 C1238 1.348 . S
C1236 C1239 1.356 . S
C1236 O1292 1.325 . S
N1237 C1240 1.314 . S
N1237 C1241 1.279 . S
C1238 C1236 1.348 . S
C1238 C1240 1.353 . S
C1238 H1296 0.929 . S
C1239 C1236 1.356 . S
C1239 C1241 1.358 . S
C1239 H1297 0.930 . S
C1240 N1237 1.314 . S
C1240 C1238 1.353 . S
C1240 H1298 0.930 . S
C1241 N1237 1.279 . S
C1241 C1239 1.358 . S
C1241 H1299 0.930 . S
C1242 C1245 1.348 . S
C1242 C1246 1.356 . S
C1242 O1293 1.325 . S
C1243 N1244 1.279 . S
C1243 C1246 1.358 . S
C1243 H1300 0.930 . S
N1244 C1243 1.279 . S
N1244 C1247 1.314 . S
C1245 C1242 1.348 . S
C1245 C1247 1.353 . S
C1245 H1301 0.929 . S
C1246 C1242 1.356 . S
C1246 C1243 1.358 . S
C1246 H1302 0.930 . S
C1247 N1244 1.314 . S
C1247 C1245 1.353 . S
C1247 H1303 0.930 . S
C1248 N1249 1.314 . S
C1248 C1253 1.353 . S
C1248 H1254 0.930 . S
N1249 Li1232 1.990 . S
N1249 C1248 1.314 . S
N1249 C1251 1.279 . S
C1250 C1251 1.358 . S
C1250 C1252 1.356 . S
C1250 H1304 0.930 . S
C1251 N1249 1.279 . S
C1251 C1250 1.358 . S
C1251 H1255 0.930 . S
C1252 C1250 1.356 . S
C1252 C1253 1.348 . S
C1253 C1248 1.353 . S
C1253 C1252 1.348 . S
C1253 H1305 0.929 . S
H1254 C1248 0.930 . S
H1255 C1251 0.930 . S
C1256 N1257 1.314 . S
C1256 C1258 1.353 . S
C1256 H1262 0.930 . S
N1257 Li1233 1.990 . S
N1257 C1256 1.314 . S
N1257 C1260 1.279 . S
C1258 C1256 1.353 . S
C1258 C1261 1.348 . S
C1258 H1306 0.929 . S
C1259 C1260 1.358 . S
C1259 C1261 1.356 . S
C1259 H1307 0.930 . S
C1260 N1257 1.279 . S
C1260 C1259 1.358 . S
C1260 H1263 0.930 . S
C1261 C1258 1.348 . S
C1261 C1259 1.356 . S
H1262 C1256 0.930 . S
H1263 C1260 0.930 . S
C1264 C1266 1.348 . S
C1264 C1267 1.356 . S
C1264 O1294 1.325 . S
N1265 C1268 1.314 . S
N1265 C1269 1.279 . S
C1266 C1264 1.348 . S
C1266 C1268 1.353 . S
C1266 H1308 0.929 . S
C1267 C1264 1.356 . S
C1267 C1269 1.358 . S
C1267 H1309 0.930 . S
C1268 N1265 1.314 . S
C1268 C1266 1.353 . S
C1268 H1310 0.930 . S
C1269 N1265 1.279 . S
C1269 C1267 1.358 . S
C1269 H1311 0.930 . S
C1270 C1271 1.348 . S
C1270 C1272 1.356 . S
C1270 O1295 1.325 . S
C1271 C1270 1.348 . S
C1271 C1273 1.353 . S
C1271 H1312 0.929 . S
C1272 C1270 1.356 . S
C1272 C1274 1.358 . S
C1272 H1313 0.930 . S
C1273 C1271 1.353 . S
C1273 N1275 1.314 . S
C1273 H1314 0.930 . S
C1274 C1272 1.358 . S
C1274 N1275 1.279 . S
C1274 H1315 0.930 . S
N1275 C1273 1.314 . S
N1275 C1274 1.279 . S
C1276 C1278 1.353 . S
C1276 N1279 1.314 . S
C1276 H1282 0.930 . S
C1277 N1279 1.279 . S
C1277 C1280 1.358 . S
C1277 H1283 0.930 . S
C1278 C1276 1.353 . S
C1278 C1281 1.348 . S
C1278 H1316 0.929 . S
N1279 Li1234 1.990 . S
N1279 C1276 1.314 . S
N1279 C1277 1.279 . S
C1280 C1277 1.358 . S
C1280 C1281 1.356 . S
C1280 H1317 0.930 . S
C1281 C1278 1.348 . S
C1281 C1280 1.356 . S
H1282 C1276 0.930 . S
H1283 C1277 0.930 . S
C1284 N1285 1.314 . S
C1284 C1286 1.353 . S
C1284 H1290 0.930 . S
N1285 Li1235 1.990 . S
N1285 C1284 1.314 . S
N1285 C1288 1.279 . S
C1286 C1284 1.353 . S
C1286 C1289 1.348 . S
C1286 H1318 0.929 . S
C1287 C1288 1.358 . S
C1287 C1289 1.356 . S
C1287 H1319 0.930 . S
C1288 N1285 1.279 . S
C1288 C1287 1.358 . S
C1288 H1291 0.930 . S
C1289 C1286 1.348 . S
C1289 C1287 1.356 . S
H1290 C1284 0.930 . S
H1291 C1288 0.930 . S
O1292 Li1232 1.956 . S
O1292 Li1233 1.970 . S
O1292 Li1234 1.961 . S
O1292 C1236 1.325 . S
O1293 Li1232 1.970 . S
O1293 Li1233 1.956 . S
O1293 Li1235 1.961 . S
O1293 C1242 1.325 . S
O1294 Li1232 1.961 . S
O1294 Li1234 1.956 . S
O1294 Li1235 1.970 . S
O1294 C1264 1.325 . S
O1295 Li1233 1.961 . S
O1295 Li1234 1.970 . S
O1295 Li1235 1.956 . S
O1295 C1270 1.325 . S
H1296 C1238 0.929 . S
H1297 C1239 0.930 . S
H1298 C1240 0.930 . S
H1299 C1241 0.930 . S
H1300 C1243 0.930 . S
H1301 C1245 0.929 . S
H1302 C1246 0.930 . S
H1303 C1247 0.930 . S
H1304 C1250 0.930 . S
H1305 C1253 0.929 . S
H1306 C1258 0.929 . S
H1307 C1259 0.930 . S
H1308 C1266 0.929 . S
H1309 C1267 0.930 . S
H1310 C1268 0.930 . S
H1311 C1269 0.930 . S
H1312 C1271 0.929 . S
H1313 C1272 0.930 . S
H1314 C1273 0.930 . S
H1315 C1274 0.930 . S
H1316 C1278 0.929 . S
H1317 C1280 0.930 . S
H1318 C1286 0.929 . S
H1319 C1287 0.930 . S
Li1320 N1337 1.990 . S
Li1320 O1380 1.956 . S
Li1320 O1381 1.970 . S
Li1320 O1382 1.961 . S
Li1321 N1345 1.990 . S
Li1321 O1380 1.970 . S
Li1321 O1381 1.956 . S
Li1321 O1383 1.961 . S
Li1322 N1367 1.990 . S
Li1322 O1380 1.961 . S
Li1322 O1382 1.956 . S
Li1322 O1383 1.970 . S
Li1323 N1373 1.990 . S
Li1323 O1381 1.961 . S
Li1323 O1382 1.970 . S
Li1323 O1383 1.956 . S
C1324 C1326 1.348 . S
C1324 C1327 1.356 . S
C1324 O1380 1.325 . S
N1325 C1328 1.314 . S
N1325 C1329 1.279 . S
C1326 C1324 1.348 . S
C1326 C1328 1.353 . S
C1326 H1384 0.929 . S
C1327 C1324 1.356 . S
C1327 C1329 1.358 . S
C1327 H1385 0.930 . S
C1328 N1325 1.314 . S
C1328 C1326 1.353 . S
C1328 H1386 0.930 . S
C1329 N1325 1.279 . S
C1329 C1327 1.358 . S
C1329 H1387 0.930 . S
C1330 C1333 1.348 . S
C1330 C1334 1.356 . S
C1330 O1381 1.325 . S
C1331 N1332 1.279 . S
C1331 C1334 1.358 . S
C1331 H1388 0.930 . S
N1332 C1331 1.279 . S
N1332 C1335 1.314 . S
C1333 C1330 1.348 . S
C1333 C1335 1.353 . S
C1333 H1389 0.929 . S
C1334 C1330 1.356 . S
C1334 C1331 1.358 . S
C1334 H1390 0.930 . S
C1335 N1332 1.314 . S
C1335 C1333 1.353 . S
C1335 H1391 0.930 . S
C1336 N1337 1.314 . S
C1336 C1341 1.353 . S
C1336 H1342 0.930 . S
N1337 Li1320 1.990 . S
N1337 C1336 1.314 . S
N1337 C1339 1.279 . S
C1338 C1339 1.358 . S
C1338 C1340 1.356 . S
C1338 H1392 0.930 . S
C1339 N1337 1.279 . S
C1339 C1338 1.358 . S
C1339 H1343 0.930 . S
C1340 C1338 1.356 . S
C1340 C1341 1.348 . S
C1341 C1336 1.353 . S
C1341 C1340 1.348 . S
C1341 H1393 0.929 . S
H1342 C1336 0.930 . S
H1343 C1339 0.930 . S
C1344 N1345 1.314 . S
C1344 C1346 1.353 . S
C1344 H1350 0.930 . S
N1345 Li1321 1.990 . S
N1345 C1344 1.314 . S
N1345 C1348 1.279 . S
C1346 C1344 1.353 . S
C1346 C1349 1.348 . S
C1346 H1394 0.929 . S
C1347 C1348 1.358 . S
C1347 C1349 1.356 . S
C1347 H1395 0.930 . S
C1348 N1345 1.279 . S
C1348 C1347 1.358 . S
C1348 H1351 0.930 . S
C1349 C1346 1.348 . S
C1349 C1347 1.356 . S
H1350 C1344 0.930 . S
H1351 C1348 0.930 . S
C1352 C1354 1.348 . S
C1352 C1355 1.356 . S
C1352 O1382 1.325 . S
N1353 C1356 1.314 . S
N1353 C1357 1.279 . S
C1354 C1352 1.348 . S
C1354 C1356 1.353 . S
C1354 H1396 0.929 . S
C1355 C1352 1.356 . S
C1355 C1357 1.358 . S
C1355 H1397 0.930 . S
C1356 N1353 1.314 . S
C1356 C1354 1.353 . S
C1356 H1398 0.930 . S
C1357 N1353 1.279 . S
C1357 C1355 1.358 . S
C1357 H1399 0.930 . S
C1358 C1359 1.348 . S
C1358 C1360 1.356 . S
C1358 O1383 1.325 . S
C1359 C1358 1.348 . S
C1359 C1361 1.353 . S
C1359 H1400 0.929 . S
C1360 C1358 1.356 . S
C1360 C1362 1.358 . S
C1360 H1401 0.930 . S
C1361 C1359 1.353 . S
C1361 N1363 1.314 . S
C1361 H1402 0.930 . S
C1362 C1360 1.358 . S
C1362 N1363 1.279 . S
C1362 H1403 0.930 . S
N1363 C1361 1.314 . S
N1363 C1362 1.279 . S
C1364 C1366 1.353 . S
C1364 N1367 1.314 . S
C1364 H1370 0.930 . S
C1365 N1367 1.279 . S
C1365 C1368 1.358 . S
C1365 H1371 0.930 . S
C1366 C1364 1.353 . S
C1366 C1369 1.348 . S
C1366 H1404 0.929 . S
N1367 Li1322 1.990 . S
N1367 C1364 1.314 . S
N1367 C1365 1.279 . S
C1368 C1365 1.358 . S
C1368 C1369 1.356 . S
C1368 H1405 0.930 . S
C1369 C1366 1.348 . S
C1369 C1368 1.356 . S
H1370 C1364 0.930 . S
H1371 C1365 0.930 . S
C1372 N1373 1.314 . S
C1372 C1374 1.353 . S
C1372 H1378 0.930 . S
N1373 Li1323 1.990 . S
N1373 C1372 1.314 . S
N1373 C1376 1.279 . S
C1374 C1372 1.353 . S
C1374 C1377 1.348 . S
C1374 H1406 0.929 . S
C1375 C1376 1.358 . S
C1375 C1377 1.356 . S
C1375 H1407 0.930 . S
C1376 N1373 1.279 . S
C1376 C1375 1.358 . S
C1376 H1379 0.930 . S
C1377 C1374 1.348 . S
C1377 C1375 1.356 . S
H1378 C1372 0.930 . S
H1379 C1376 0.930 . S
O1380 Li1320 1.956 . S
O1380 Li1321 1.970 . S
O1380 Li1322 1.961 . S
O1380 C1324 1.325 . S
O1381 Li1320 1.970 . S
O1381 Li1321 1.956 . S
O1381 Li1323 1.961 . S
O1381 C1330 1.325 . S
O1382 Li1320 1.961 . S
O1382 Li1322 1.956 . S
O1382 Li1323 1.970 . S
O1382 C1352 1.325 . S
O1383 Li1321 1.961 . S
O1383 Li1322 1.970 . S
O1383 Li1323 1.956 . S
O1383 C1358 1.325 . S
H1384 C1326 0.929 . S
H1385 C1327 0.930 . S
H1386 C1328 0.930 . S
H1387 C1329 0.930 . S
H1388 C1331 0.930 . S
H1389 C1333 0.929 . S
H1390 C1334 0.930 . S
H1391 C1335 0.930 . S
H1392 C1338 0.930 . S
H1393 C1341 0.929 . S
H1394 C1346 0.929 . S
H1395 C1347 0.930 . S
H1396 C1354 0.929 . S
H1397 C1355 0.930 . S
H1398 C1356 0.930 . S
H1399 C1357 0.930 . S
H1400 C1359 0.929 . S
H1401 C1360 0.930 . S
H1402 C1361 0.930 . S
H1403 C1362 0.930 . S
H1404 C1366 0.929 . S
H1405 C1368 0.930 . S
H1406 C1374 0.929 . S
H1407 C1375 0.930 . S
H1408 C1414 0.930 . S
H1409 C1418 0.930 . S
H1410 C1423 0.929 . S
H1411 C1421 0.929 . S
H1412 C1416 0.929 . S
H1413 C1422 0.929 . S
C1414 H1408 0.930 . S
C1414 C1415 1.367 . S
C1414 C1422 1.378 . S
C1415 C1414 1.367 . S
C1415 C1423 1.433 . S
C1416 H1412 0.929 . S
C1416 C1418 1.378 . S
C1416 C1420 1.350 . S
C1417 C1420 1.463 . S
C1417 C1422 1.350 . S
C1417 N1425 1.427 . S
C1418 H1409 0.930 . S
C1418 C1416 1.378 . S
C1418 C1419 1.367 . S
C1419 C1418 1.367 . S
C1419 C1421 1.433 . S
C1420 C1416 1.350 . S
C1420 C1417 1.463 . S
C1420 N1424 1.427 . S
C1421 H1411 0.929 . S
C1421 C1419 1.433 . S
C1421 N1424 1.384 . S
C1422 H1413 0.929 . S
C1422 C1414 1.378 . S
C1422 C1417 1.350 . S
C1423 H1410 0.929 . S
C1423 C1415 1.433 . S
C1423 N1425 1.384 . S
N1424 C1420 1.427 . S
N1424 C1421 1.384 . S
N1425 C1417 1.427 . S
N1425 C1423 1.384 . S
H1426 C1432 0.930 . S
H1427 C1436 0.930 . S
H1428 C1441 0.929 . S
H1429 C1439 0.929 . S
H1430 C1434 0.929 . S
H1431 C1440 0.929 . S
C1432 H1426 0.930 . S
C1432 C1433 1.367 . S
C1432 C1440 1.378 . S
C1433 C1432 1.367 . S
C1433 C1441 1.433 . S
C1434 H1430 0.929 . S
C1434 C1436 1.378 . S
C1434 C1438 1.350 . S
C1435 C1438 1.463 . S
C1435 C1440 1.350 . S
C1435 N1443 1.427 . S
C1436 H1427 0.930 . S
C1436 C1434 1.378 . S
C1436 C1437 1.367 . S
C1437 C1436 1.367 . S
C1437 C1439 1.433 . S
C1438 C1434 1.350 . S
C1438 C1435 1.463 . S
C1438 N1442 1.427 . S
C1439 H1429 0.929 . S
C1439 C1437 1.433 . S
C1439 N1442 1.384 . S
C1440 H1431 0.929 . S
C1440 C1432 1.378 . S
C1440 C1435 1.350 . S
C1441 H1428 0.929 . S
C1441 C1433 1.433 . S
C1441 N1443 1.384 . S
N1442 C1438 1.427 . S
N1442 C1439 1.384 . S
N1443 C1435 1.427 . S
N1443 C1441 1.384 . S
H1444 C1450 0.930 . S
H1445 C1454 0.930 . S
H1446 C1459 0.929 . S
H1447 C1457 0.929 . S
H1448 C1452 0.929 . S
H1449 C1458 0.929 . S
C1450 H1444 0.930 . S
C1450 C1451 1.367 . S
C1450 C1458 1.378 . S
C1451 C1450 1.367 . S
C1451 C1459 1.433 . S
C1452 H1448 0.929 . S
C1452 C1454 1.378 . S
C1452 C1456 1.350 . S
C1453 C1456 1.463 . S
C1453 C1458 1.350 . S
C1453 N1461 1.427 . S
C1454 H1445 0.930 . S
C1454 C1452 1.378 . S
C1454 C1455 1.367 . S
C1455 C1454 1.367 . S
C1455 C1457 1.433 . S
C1456 C1452 1.350 . S
C1456 C1453 1.463 . S
C1456 N1460 1.427 . S
C1457 H1447 0.929 . S
C1457 C1455 1.433 . S
C1457 N1460 1.384 . S
C1458 H1449 0.929 . S
C1458 C1450 1.378 . S
C1458 C1453 1.350 . S
C1459 H1446 0.929 . S
C1459 C1451 1.433 . S
C1459 N1461 1.384 . S
N1460 C1456 1.427 . S
N1460 C1457 1.384 . S
N1461 C1453 1.427 . S
N1461 C1459 1.384 . S
H1462 C1468 0.930 . S
H1463 C1472 0.930 . S
H1464 C1477 0.929 . S
H1465 C1475 0.929 . S
H1466 C1470 0.929 . S
H1467 C1476 0.929 . S
C1468 H1462 0.930 . S
C1468 C1469 1.367 . S
C1468 C1476 1.378 . S
C1469 C1468 1.367 . S
C1469 C1477 1.433 . S
C1470 H1466 0.929 . S
C1470 C1472 1.378 . S
C1470 C1474 1.350 . S
C1471 C1474 1.463 . S
C1471 C1476 1.350 . S
C1471 N1479 1.427 . S
C1472 H1463 0.930 . S
C1472 C1470 1.378 . S
C1472 C1473 1.367 . S
C1473 C1472 1.367 . S
C1473 C1475 1.433 . S
C1474 C1470 1.350 . S
C1474 C1471 1.463 . S
C1474 N1478 1.427 . S
C1475 H1465 0.929 . S
C1475 C1473 1.433 . S
C1475 N1478 1.384 . S
C1476 H1467 0.929 . S
C1476 C1468 1.378 . S
C1476 C1471 1.350 . S
C1477 H1464 0.929 . S
C1477 C1469 1.433 . S
C1477 N1479 1.384 . S
N1478 C1474 1.427 . S
N1478 C1475 1.384 . S
N1479 C1471 1.427 . S
N1479 C1477 1.384 . S
H1480 C1486 0.930 . S
H1481 C1490 0.930 . S
H1482 C1495 0.929 . S
H1483 C1493 0.929 . S
H1484 C1488 0.929 . S
H1485 C1494 0.929 . S
C1486 H1480 0.930 . S
C1486 C1487 1.367 . S
C1486 C1494 1.378 . S
C1487 C1486 1.367 . S
C1487 C1495 1.433 . S
C1488 H1484 0.929 . S
C1488 C1490 1.378 . S
C1488 C1492 1.350 . S
C1489 C1492 1.463 . S
C1489 C1494 1.350 . S
C1489 N1497 1.427 . S
C1490 H1481 0.930 . S
C1490 C1488 1.378 . S
C1490 C1491 1.367 . S
C1491 C1490 1.367 . S
C1491 C1493 1.433 . S
C1492 C1488 1.350 . S
C1492 C1489 1.463 . S
C1492 N1496 1.427 . S
C1493 H1483 0.929 . S
C1493 C1491 1.433 . S
C1493 N1496 1.384 . S
C1494 H1485 0.929 . S
C1494 C1486 1.378 . S
C1494 C1489 1.350 . S
C1495 H1482 0.929 . S
C1495 C1487 1.433 . S
C1495 N1497 1.384 . S
N1496 C1492 1.427 . S
N1496 C1493 1.384 . S
N1497 C1489 1.427 . S
N1497 C1495 1.384 . S
H1498 C1504 0.930 . S
H1499 C1508 0.930 . S
H1500 C1513 0.929 . S
H1501 C1511 0.929 . S
H1502 C1506 0.929 . S
H1503 C1512 0.929 . S
C1504 H1498 0.930 . S
C1504 C1505 1.367 . S
C1504 C1512 1.378 . S
C1505 C1504 1.367 . S
C1505 C1513 1.433 . S
C1506 H1502 0.929 . S
C1506 C1508 1.378 . S
C1506 C1510 1.350 . S
C1507 C1510 1.463 . S
C1507 C1512 1.350 . S
C1507 N1515 1.427 . S
C1508 H1499 0.930 . S
C1508 C1506 1.378 . S
C1508 C1509 1.367 . S
C1509 C1508 1.367 . S
C1509 C1511 1.433 . S
C1510 C1506 1.350 . S
C1510 C1507 1.463 . S
C1510 N1514 1.427 . S
C1511 H1501 0.929 . S
C1511 C1509 1.433 . S
C1511 N1514 1.384 . S
C1512 H1503 0.929 . S
C1512 C1504 1.378 . S
C1512 C1507 1.350 . S
C1513 H1500 0.929 . S
C1513 C1505 1.433 . S
C1513 N1515 1.384 . S
N1514 C1510 1.427 . S
N1514 C1511 1.384 . S
N1515 C1507 1.427 . S
N1515 C1513 1.384 . S
H1516 C1522 0.930 . S
H1517 C1526 0.930 . S
H1518 C1531 0.929 . S
H1519 C1529 0.929 . S
H1520 C1524 0.929 . S
H1521 C1530 0.929 . S
C1522 H1516 0.930 . S
C1522 C1523 1.367 . S
C1522 C1530 1.378 . S
C1523 C1522 1.367 . S
C1523 C1531 1.433 . S
C1524 H1520 0.929 . S
C1524 C1526 1.378 . S
C1524 C1528 1.350 . S
C1525 C1528 1.463 . S
C1525 C1530 1.350 . S
C1525 N1533 1.427 . S
C1526 H1517 0.930 . S
C1526 C1524 1.378 . S
C1526 C1527 1.367 . S
C1527 C1526 1.367 . S
C1527 C1529 1.433 . S
C1528 C1524 1.350 . S
C1528 C1525 1.463 . S
C1528 N1532 1.427 . S
C1529 H1519 0.929 . S
C1529 C1527 1.433 . S
C1529 N1532 1.384 . S
C1530 H1521 0.929 . S
C1530 C1522 1.378 . S
C1530 C1525 1.350 . S
C1531 H1518 0.929 . S
C1531 C1523 1.433 . S
C1531 N1533 1.384 . S
N1532 C1528 1.427 . S
N1532 C1529 1.384 . S
N1533 C1525 1.427 . S
N1533 C1531 1.384 . S
H1534 C1540 0.930 . S
H1535 C1544 0.930 . S
H1536 C1549 0.929 . S
H1537 C1547 0.929 . S
H1538 C1542 0.929 . S
H1539 C1548 0.929 . S
C1540 H1534 0.930 . S
C1540 C1541 1.367 . S
C1540 C1548 1.378 . S
C1541 C1540 1.367 . S
C1541 C1549 1.433 . S
C1542 H1538 0.929 . S
C1542 C1544 1.378 . S
C1542 C1546 1.350 . S
C1543 C1546 1.463 . S
C1543 C1548 1.350 . S
C1543 N1551 1.427 . S
C1544 H1535 0.930 . S
C1544 C1542 1.378 . S
C1544 C1545 1.367 . S
C1545 C1544 1.367 . S
C1545 C1547 1.433 . S
C1546 C1542 1.350 . S
C1546 C1543 1.463 . S
C1546 N1550 1.427 . S
C1547 H1537 0.929 . S
C1547 C1545 1.433 . S
C1547 N1550 1.384 . S
C1548 H1539 0.929 . S
C1548 C1540 1.378 . S
C1548 C1543 1.350 . S
C1549 H1536 0.929 . S
C1549 C1541 1.433 . S
C1549 N1551 1.384 . S
N1550 C1546 1.427 . S
N1550 C1547 1.384 . S
N1551 C1543 1.427 . S
N1551 C1549 1.384 . S
H1552 C1558 0.930 . S
H1553 C1562 0.930 . S
H1554 C1567 0.929 . S
H1555 C1565 0.929 . S
H1556 C1560 0.929 . S
H1557 C1566 0.929 . S
C1558 H1552 0.930 . S
C1558 C1559 1.367 . S
C1558 C1566 1.378 . S
C1559 C1558 1.367 . S
C1559 C1567 1.433 . S
C1560 H1556 0.929 . S
C1560 C1562 1.378 . S
C1560 C1564 1.350 . S
C1561 C1564 1.463 1_556 S
C1561 C1566 1.350 . S
C1561 N1569 1.427 . S
C1562 H1553 0.930 . S
C1562 C1560 1.378 . S
C1562 C1563 1.367 . S
C1563 C1562 1.367 . S
C1563 C1565 1.433 . S
C1564 C1560 1.350 . S
C1564 C1561 1.463 1_554 S
C1564 N1568 1.427 . S
C1565 H1555 0.929 . S
C1565 C1563 1.433 . S
C1565 N1568 1.384 . S
C1566 H1557 0.929 . S
C1566 C1558 1.378 . S
C1566 C1561 1.350 . S
C1567 H1554 0.929 . S
C1567 C1559 1.433 . S
C1567 N1569 1.384 . S
N1568 C1564 1.427 . S
N1568 C1565 1.384 . S
N1569 C1561 1.427 . S
N1569 C1567 1.384 . S
H1570 C1576 0.930 . S
H1571 C1580 0.930 . S
H1572 C1585 0.929 . S
H1573 C1583 0.929 . S
H1574 C1578 0.929 . S
H1575 C1584 0.929 . S
C1576 H1570 0.930 . S
C1576 C1577 1.367 . S
C1576 C1584 1.378 . S
C1577 C1576 1.367 . S
C1577 C1585 1.433 . S
C1578 H1574 0.929 . S
C1578 C1580 1.378 . S
C1578 C1582 1.350 . S
C1579 C1582 1.463 1_556 S
C1579 C1584 1.350 . S
C1579 N1587 1.427 . S
C1580 H1571 0.930 . S
C1580 C1578 1.378 . S
C1580 C1581 1.367 . S
C1581 C1580 1.367 . S
C1581 C1583 1.433 . S
C1582 C1578 1.350 . S
C1582 C1579 1.463 1_554 S
C1582 N1586 1.427 . S
C1583 H1573 0.929 . S
C1583 C1581 1.433 . S
C1583 N1586 1.384 . S
C1584 H1575 0.929 . S
C1584 C1576 1.378 . S
C1584 C1579 1.350 . S
C1585 H1572 0.929 . S
C1585 C1577 1.433 . S
C1585 N1587 1.384 . S
N1586 C1582 1.427 . S
N1586 C1583 1.384 . S
N1587 C1579 1.427 . S
N1587 C1585 1.384 . S
H1588 C1594 0.930 . S
H1589 C1598 0.930 . S
H1590 C1603 0.929 . S
H1591 C1601 0.929 . S
H1592 C1596 0.929 . S
H1593 C1602 0.929 . S
C1594 H1588 0.930 . S
C1594 C1595 1.367 . S
C1594 C1602 1.378 . S
C1595 C1594 1.367 . S
C1595 C1603 1.433 . S
C1596 H1592 0.929 . S
C1596 C1598 1.378 . S
C1596 C1600 1.350 . S
C1597 C1600 1.463 1_556 S
C1597 C1602 1.350 . S
C1597 N1605 1.427 . S
C1598 H1589 0.930 . S
C1598 C1596 1.378 . S
C1598 C1599 1.367 . S
C1599 C1598 1.367 . S
C1599 C1601 1.433 . S
C1600 C1596 1.350 . S
C1600 C1597 1.463 1_554 S
C1600 N1604 1.427 . S
C1601 H1591 0.929 . S
C1601 C1599 1.433 . S
C1601 N1604 1.384 . S
C1602 H1593 0.929 . S
C1602 C1594 1.378 . S
C1602 C1597 1.350 . S
C1603 H1590 0.929 . S
C1603 C1595 1.433 . S
C1603 N1605 1.384 . S
N1604 C1600 1.427 . S
N1604 C1601 1.384 . S
N1605 C1597 1.427 . S
N1605 C1603 1.384 . S
H1606 C1612 0.930 . S
H1607 C1616 0.930 . S
H1608 C1621 0.929 . S
H1609 C1619 0.929 . S
H1610 C1614 0.929 . S
H1611 C1620 0.929 . S
C1612 H1606 0.930 . S
C1612 C1613 1.367 . S
C1612 C1620 1.378 . S
C1613 C1612 1.367 . S
C1613 C1621 1.433 . S
C1614 H1610 0.929 . S
C1614 C1616 1.378 . S
C1614 C1618 1.350 . S
C1615 C1618 1.463 1_554 S
C1615 C1620 1.350 . S
C1615 N1623 1.427 . S
C1616 H1607 0.930 . S
C1616 C1614 1.378 . S
C1616 C1617 1.367 . S
C1617 C1616 1.367 . S
C1617 C1619 1.433 . S
C1618 C1614 1.350 . S
C1618 C1615 1.463 1_556 S
C1618 N1622 1.427 . S
C1619 H1609 0.929 . S
C1619 C1617 1.433 . S
C1619 N1622 1.384 . S
C1620 H1611 0.929 . S
C1620 C1612 1.378 . S
C1620 C1615 1.350 . S
C1621 H1608 0.929 . S
C1621 C1613 1.433 . S
C1621 N1623 1.384 . S
N1622 C1618 1.427 . S
N1622 C1619 1.384 . S
N1623 C1615 1.427 . S
N1623 C1621 1.384 . S
H1624 C1630 0.930 . S
H1625 C1634 0.930 . S
H1626 C1639 0.929 . S
H1627 C1637 0.929 . S
H1628 C1632 0.929 . S
H1629 C1638 0.929 . S
C1630 H1624 0.930 . S
C1630 C1631 1.367 . S
C1630 C1638 1.378 . S
C1631 C1630 1.367 . S
C1631 C1639 1.433 . S
C1632 H1628 0.929 . S
C1632 C1634 1.378 . S
C1632 C1636 1.350 . S
C1633 C1636 1.463 . S
C1633 C1638 1.350 . S
C1633 N1641 1.427 . S
C1634 H1625 0.930 . S
C1634 C1632 1.378 . S
C1634 C1635 1.367 . S
C1635 C1634 1.367 . S
C1635 C1637 1.433 . S
C1636 C1632 1.350 . S
C1636 C1633 1.463 . S
C1636 N1640 1.427 . S
C1637 H1627 0.929 . S
C1637 C1635 1.433 . S
C1637 N1640 1.384 . S
C1638 H1629 0.929 . S
C1638 C1630 1.378 . S
C1638 C1633 1.350 . S
C1639 H1626 0.929 . S
C1639 C1631 1.433 . S
C1639 N1641 1.384 . S
N1640 C1636 1.427 . S
N1640 C1637 1.384 . S
N1641 C1633 1.427 . S
N1641 C1639 1.384 . S
H1642 C1648 0.930 . S
H1643 C1652 0.930 . S
H1644 C1657 0.929 . S
H1645 C1655 0.929 . S
H1646 C1650 0.929 . S
H1647 C1656 0.929 . S
C1648 H1642 0.930 . S
C1648 C1649 1.367 . S
C1648 C1656 1.378 . S
C1649 C1648 1.367 . S
C1649 C1657 1.433 . S
C1650 H1646 0.929 . S
C1650 C1652 1.378 . S
C1650 C1654 1.350 . S
C1651 C1654 1.463 . S
C1651 C1656 1.350 . S
C1651 N1659 1.427 . S
C1652 H1643 0.930 . S
C1652 C1650 1.378 . S
C1652 C1653 1.367 . S
C1653 C1652 1.367 . S
C1653 C1655 1.433 . S
C1654 C1650 1.350 . S
C1654 C1651 1.463 . S
C1654 N1658 1.427 . S
C1655 H1645 0.929 . S
C1655 C1653 1.433 . S
C1655 N1658 1.384 . S
C1656 H1647 0.929 . S
C1656 C1648 1.378 . S
C1656 C1651 1.350 . S
C1657 H1644 0.929 . S
C1657 C1649 1.433 . S
C1657 N1659 1.384 . S
N1658 C1654 1.427 . S
N1658 C1655 1.384 . S
N1659 C1651 1.427 . S
N1659 C1657 1.384 . S
H1660 C1666 0.930 . S
H1661 C1670 0.930 . S
H1662 C1675 0.929 . S
H1663 C1673 0.929 . S
H1664 C1668 0.929 . S
H1665 C1674 0.929 . S
C1666 H1660 0.930 . S
C1666 C1667 1.367 . S
C1666 C1674 1.378 . S
C1667 C1666 1.367 . S
C1667 C1675 1.433 . S
C1668 H1664 0.929 . S
C1668 C1670 1.378 . S
C1668 C1672 1.350 . S
C1669 C1672 1.463 . S
C1669 C1674 1.350 . S
C1669 N1677 1.427 . S
C1670 H1661 0.930 . S
C1670 C1668 1.378 . S
C1670 C1671 1.367 . S
C1671 C1670 1.367 . S
C1671 C1673 1.433 . S
C1672 C1668 1.350 . S
C1672 C1669 1.463 . S
C1672 N1676 1.427 . S
C1673 H1663 0.929 . S
C1673 C1671 1.433 . S
C1673 N1676 1.384 . S
C1674 H1665 0.929 . S
C1674 C1666 1.378 . S
C1674 C1669 1.350 . S
C1675 H1662 0.929 . S
C1675 C1667 1.433 . S
C1675 N1677 1.384 . S
N1676 C1672 1.427 . S
N1676 C1673 1.384 . S
N1677 C1669 1.427 . S
N1677 C1675 1.384 . S
H1678 C1684 0.930 . S
H1679 C1688 0.930 . S
H1680 C1693 0.929 . S
H1681 C1691 0.929 . S
H1682 C1686 0.929 . S
H1683 C1692 0.929 . S
C1684 H1678 0.930 . S
C1684 C1685 1.367 . S
C1684 C1692 1.378 . S
C1685 C1684 1.367 . S
C1685 C1693 1.433 . S
C1686 H1682 0.929 . S
C1686 C1688 1.378 . S
C1686 C1690 1.350 . S
C1687 C1690 1.463 . S
C1687 C1692 1.350 . S
C1687 N1695 1.427 . S
C1688 H1679 0.930 . S
C1688 C1686 1.378 . S
C1688 C1689 1.367 . S
C1689 C1688 1.367 . S
C1689 C1691 1.433 . S
C1690 C1686 1.350 . S
C1690 C1687 1.463 . S
C1690 N1694 1.427 . S
C1691 H1681 0.929 . S
C1691 C1689 1.433 . S
C1691 N1694 1.384 . S
C1692 H1683 0.929 . S
C1692 C1684 1.378 . S
C1692 C1687 1.350 . S
C1693 H1680 0.929 . S
C1693 C1685 1.433 . S
C1693 N1695 1.384 . S
N1694 C1690 1.427 . S
N1694 C1691 1.384 . S
N1695 C1687 1.427 . S
N1695 C1693 1.384 . S
H1696 C1702 0.930 . S
H1697 C1706 0.930 . S
H1698 C1711 0.929 . S
H1699 C1709 0.929 . S
H1700 C1704 0.929 . S
H1701 C1710 0.929 . S
C1702 H1696 0.930 . S
C1702 C1703 1.367 . S
C1702 C1710 1.378 . S
C1703 C1702 1.367 . S
C1703 C1711 1.433 . S
C1704 H1700 0.929 . S
C1704 C1706 1.378 . S
C1704 C1708 1.350 . S
C1705 C1708 1.463 . S
C1705 C1710 1.350 . S
C1705 N1713 1.427 . S
C1706 H1697 0.930 . S
C1706 C1704 1.378 . S
C1706 C1707 1.367 . S
C1707 C1706 1.367 . S
C1707 C1709 1.433 . S
C1708 C1704 1.350 . S
C1708 C1705 1.463 . S
C1708 N1712 1.427 . S
C1709 H1699 0.929 . S
C1709 C1707 1.433 . S
C1709 N1712 1.384 . S
C1710 H1701 0.929 . S
C1710 C1702 1.378 . S
C1710 C1705 1.350 . S
C1711 H1698 0.929 . S
C1711 C1703 1.433 . S
C1711 N1713 1.384 . S
N1712 C1708 1.427 . S
N1712 C1709 1.384 . S
N1713 C1705 1.427 . S
N1713 C1711 1.384 . S
H1714 C1720 0.930 . S
H1715 C1724 0.930 . S
H1716 C1729 0.929 . S
H1717 C1727 0.929 . S
H1718 C1722 0.929 . S
H1719 C1728 0.929 . S
C1720 H1714 0.930 . S
C1720 C1721 1.367 . S
C1720 C1728 1.378 . S
C1721 C1720 1.367 . S
C1721 C1729 1.433 . S
C1722 H1718 0.929 . S
C1722 C1724 1.378 . S
C1722 C1726 1.350 . S
C1723 C1726 1.463 . S
C1723 C1728 1.350 . S
C1723 N1731 1.427 . S
C1724 H1715 0.930 . S
C1724 C1722 1.378 . S
C1724 C1725 1.367 . S
C1725 C1724 1.367 . S
C1725 C1727 1.433 . S
C1726 C1722 1.350 . S
C1726 C1723 1.463 . S
C1726 N1730 1.427 . S
C1727 H1717 0.929 . S
C1727 C1725 1.433 . S
C1727 N1730 1.384 . S
C1728 H1719 0.929 . S
C1728 C1720 1.378 . S
C1728 C1723 1.350 . S
C1729 H1716 0.929 . S
C1729 C1721 1.433 . S
C1729 N1731 1.384 . S
N1730 C1726 1.427 . S
N1730 C1727 1.384 . S
N1731 C1723 1.427 . S
N1731 C1729 1.384 . S
H1732 C1738 0.930 . S
H1733 C1742 0.930 . S
H1734 C1747 0.929 . S
H1735 C1745 0.929 . S
H1736 C1740 0.929 . S
H1737 C1746 0.929 . S
C1738 H1732 0.930 . S
C1738 C1739 1.367 . S
C1738 C1746 1.378 . S
C1739 C1738 1.367 . S
C1739 C1747 1.433 . S
C1740 H1736 0.929 . S
C1740 C1742 1.378 . S
C1740 C1744 1.350 . S
C1741 C1744 1.463 . S
C1741 C1746 1.350 . S
C1741 N1749 1.427 . S
C1742 H1733 0.930 . S
C1742 C1740 1.378 . S
C1742 C1743 1.367 . S
C1743 C1742 1.367 . S
C1743 C1745 1.433 . S
C1744 C1740 1.350 . S
C1744 C1741 1.463 . S
C1744 N1748 1.427 . S
C1745 H1735 0.929 . S
C1745 C1743 1.433 . S
C1745 N1748 1.384 . S
C1746 H1737 0.929 . S
C1746 C1738 1.378 . S
C1746 C1741 1.350 . S
C1747 H1734 0.929 . S
C1747 C1739 1.433 . S
C1747 N1749 1.384 . S
N1748 C1744 1.427 . S
N1748 C1745 1.384 . S
N1749 C1741 1.427 . S
N1749 C1747 1.384 . S
H1750 C1756 0.930 . S
H1751 C1760 0.930 . S
H1752 C1765 0.929 . S
H1753 C1763 0.929 . S
H1754 C1758 0.929 . S
H1755 C1764 0.929 . S
C1756 H1750 0.930 . S
C1756 C1757 1.367 . S
C1756 C1764 1.378 . S
C1757 C1756 1.367 . S
C1757 C1765 1.433 . S
C1758 H1754 0.929 . S
C1758 C1760 1.378 . S
C1758 C1762 1.350 . S
C1759 C1762 1.463 . S
C1759 C1764 1.350 . S
C1759 N1767 1.427 . S
C1760 H1751 0.930 . S
C1760 C1758 1.378 . S
C1760 C1761 1.367 . S
C1761 C1760 1.367 . S
C1761 C1763 1.433 . S
C1762 C1758 1.350 . S
C1762 C1759 1.463 . S
C1762 N1766 1.427 . S
C1763 H1753 0.929 . S
C1763 C1761 1.433 . S
C1763 N1766 1.384 . S
C1764 H1755 0.929 . S
C1764 C1756 1.378 . S
C1764 C1759 1.350 . S
C1765 H1752 0.929 . S
C1765 C1757 1.433 . S
C1765 N1767 1.384 . S
N1766 C1762 1.427 . S
N1766 C1763 1.384 . S
N1767 C1759 1.427 . S
N1767 C1765 1.384 . S
H1768 C1774 0.930 . S
H1769 C1778 0.930 . S
H1770 C1783 0.929 . S
H1771 C1781 0.929 . S
H1772 C1776 0.929 . S
H1773 C1782 0.929 . S
C1774 H1768 0.930 . S
C1774 C1775 1.367 . S
C1774 C1782 1.378 . S
C1775 C1774 1.367 . S
C1775 C1783 1.433 . S
C1776 H1772 0.929 . S
C1776 C1778 1.378 . S
C1776 C1780 1.350 . S
C1777 C1780 1.463 . S
C1777 C1782 1.350 . S
C1777 N1785 1.427 . S
C1778 H1769 0.930 . S
C1778 C1776 1.378 . S
C1778 C1779 1.367 . S
C1779 C1778 1.367 . S
C1779 C1781 1.433 . S
C1780 C1776 1.350 . S
C1780 C1777 1.463 . S
C1780 N1784 1.427 . S
C1781 H1771 0.929 . S
C1781 C1779 1.433 . S
C1781 N1784 1.384 . S
C1782 H1773 0.929 . S
C1782 C1774 1.378 . S
C1782 C1777 1.350 . S
C1783 H1770 0.929 . S
C1783 C1775 1.433 . S
C1783 N1785 1.384 . S
N1784 C1780 1.427 . S
N1784 C1781 1.384 . S
N1785 C1777 1.427 . S
N1785 C1783 1.384 . S
H1786 C1792 0.930 . S
H1787 C1796 0.930 . S
H1788 C1801 0.929 . S
H1789 C1799 0.929 . S
H1790 C1794 0.929 . S
H1791 C1800 0.929 . S
C1792 H1786 0.930 . S
C1792 C1793 1.367 . S
C1792 C1800 1.378 . S
C1793 C1792 1.367 . S
C1793 C1801 1.433 . S
C1794 H1790 0.929 . S
C1794 C1796 1.378 . S
C1794 C1798 1.350 . S
C1795 C1798 1.463 . S
C1795 C1800 1.350 . S
C1795 N1803 1.427 . S
C1796 H1787 0.930 . S
C1796 C1794 1.378 . S
C1796 C1797 1.367 . S
C1797 C1796 1.367 . S
C1797 C1799 1.433 . S
C1798 C1794 1.350 . S
C1798 C1795 1.463 . S
C1798 N1802 1.427 . S
C1799 H1789 0.929 . S
C1799 C1797 1.433 . S
C1799 N1802 1.384 . S
C1800 H1791 0.929 . S
C1800 C1792 1.378 . S
C1800 C1795 1.350 . S
C1801 H1788 0.929 . S
C1801 C1793 1.433 . S
C1801 N1803 1.384 . S
N1802 C1798 1.427 . S
N1802 C1799 1.384 . S
N1803 C1795 1.427 . S
N1803 C1801 1.384 . S
H1804 C1810 0.930 . S
H1805 C1814 0.930 . S
H1806 C1819 0.929 . S
H1807 C1817 0.929 . S
H1808 C1812 0.929 . S
H1809 C1818 0.929 . S
C1810 H1804 0.930 . S
C1810 C1811 1.367 . S
C1810 C1818 1.378 . S
C1811 C1810 1.367 . S
C1811 C1819 1.433 . S
C1812 H1808 0.929 . S
C1812 C1814 1.378 . S
C1812 C1816 1.350 . S
C1813 C1816 1.463 . S
C1813 C1818 1.350 . S
C1813 N1821 1.427 . S
C1814 H1805 0.930 . S
C1814 C1812 1.378 . S
C1814 C1815 1.367 . S
C1815 C1814 1.367 . S
C1815 C1817 1.433 . S
C1816 C1812 1.350 . S
C1816 C1813 1.463 . S
C1816 N1820 1.427 . S
C1817 H1807 0.929 . S
C1817 C1815 1.433 . S
C1817 N1820 1.384 . S
C1818 H1809 0.929 . S
C1818 C1810 1.378 . S
C1818 C1813 1.350 . S
C1819 H1806 0.929 . S
C1819 C1811 1.433 . S
C1819 N1821 1.384 . S
N1820 C1816 1.427 . S
N1820 C1817 1.384 . S
N1821 C1813 1.427 . S
N1821 C1819 1.384 . S
H1822 C1828 0.930 . S
H1823 C1832 0.930 . S
H1824 C1837 0.929 . S
H1825 C1835 0.929 . S
H1826 C1830 0.929 . S
H1827 C1836 0.929 . S
C1828 H1822 0.930 . S
C1828 C1829 1.367 . S
C1828 C1836 1.378 . S
C1829 C1828 1.367 . S
C1829 C1837 1.433 . S
C1830 H1826 0.929 . S
C1830 C1832 1.378 . S
C1830 C1834 1.350 . S
C1831 C1834 1.463 . S
C1831 C1836 1.350 . S
C1831 N1839 1.427 . S
C1832 H1823 0.930 . S
C1832 C1830 1.378 . S
C1832 C1833 1.367 . S
C1833 C1832 1.367 . S
C1833 C1835 1.433 . S
C1834 C1830 1.350 . S
C1834 C1831 1.463 . S
C1834 N1838 1.427 . S
C1835 H1825 0.929 . S
C1835 C1833 1.433 . S
C1835 N1838 1.384 . S
C1836 H1827 0.929 . S
C1836 C1828 1.378 . S
C1836 C1831 1.350 . S
C1837 H1824 0.929 . S
C1837 C1829 1.433 . S
C1837 N1839 1.384 . S
N1838 C1834 1.427 . S
N1838 C1835 1.384 . S
N1839 C1831 1.427 . S
N1839 C1837 1.384 . S
H1840 C1846 0.930 . S
H1841 C1850 0.930 . S
H1842 C1855 0.929 . S
H1843 C1853 0.929 . S
H1844 C1848 0.929 . S
H1845 C1854 0.929 . S
C1846 H1840 0.930 . S
C1846 C1847 1.367 . S
C1846 C1854 1.378 . S
C1847 C1846 1.367 . S
C1847 C1855 1.433 . S
C1848 H1844 0.929 . S
C1848 C1850 1.378 . S
C1848 C1852 1.350 . S
C1849 C1852 1.463 1_545 S
C1849 C1854 1.350 . S
C1849 N1857 1.427 . S
C1850 H1841 0.930 . S
C1850 C1848 1.378 . S
C1850 C1851 1.367 . S
C1851 C1850 1.367 . S
C1851 C1853 1.433 . S
C1852 C1848 1.350 . S
C1852 C1849 1.463 1_565 S
C1852 N1856 1.427 . S
C1853 H1843 0.929 . S
C1853 C1851 1.433 . S
C1853 N1856 1.384 . S
C1854 H1845 0.929 . S
C1854 C1846 1.378 . S
C1854 C1849 1.350 . S
C1855 H1842 0.929 . S
C1855 C1847 1.433 . S
C1855 N1857 1.384 . S
N1856 C1852 1.427 . S
N1856 C1853 1.384 . S
N1857 C1849 1.427 . S
N1857 C1855 1.384 . S
H1858 C1864 0.930 . S
H1859 C1868 0.930 . S
H1860 C1873 0.929 . S
H1861 C1871 0.929 . S
H1862 C1866 0.929 . S
H1863 C1872 0.929 . S
C1864 H1858 0.930 . S
C1864 C1865 1.367 . S
C1864 C1872 1.378 . S
C1865 C1864 1.367 . S
C1865 C1873 1.433 . S
C1866 H1862 0.929 . S
C1866 C1868 1.378 . S
C1866 C1870 1.350 . S
C1867 C1870 1.463 1_655 S
C1867 C1872 1.350 . S
C1867 N1875 1.427 . S
C1868 H1859 0.930 . S
C1868 C1866 1.378 . S
C1868 C1869 1.367 . S
C1869 C1868 1.367 . S
C1869 C1871 1.433 . S
C1870 C1866 1.350 . S
C1870 C1867 1.463 1_455 S
C1870 N1874 1.427 . S
C1871 H1861 0.929 . S
C1871 C1869 1.433 . S
C1871 N1874 1.384 . S
C1872 H1863 0.929 . S
C1872 C1864 1.378 . S
C1872 C1867 1.350 . S
C1873 H1860 0.929 . S
C1873 C1865 1.433 . S
C1873 N1875 1.384 . S
N1874 C1870 1.427 . S
N1874 C1871 1.384 . S
N1875 C1867 1.427 . S
N1875 C1873 1.384 . S
H1876 C1882 0.930 . S
H1877 C1886 0.930 . S
H1878 C1891 0.929 . S
H1879 C1889 0.929 . S
H1880 C1884 0.929 . S
H1881 C1890 0.929 . S
C1882 H1876 0.930 . S
C1882 C1883 1.367 . S
C1882 C1890 1.378 . S
C1883 C1882 1.367 . S
C1883 C1891 1.433 . S
C1884 H1880 0.929 . S
C1884 C1886 1.378 . S
C1884 C1888 1.350 . S
C1885 C1888 1.463 1_545 S
C1885 C1890 1.350 . S
C1885 N1893 1.427 . S
C1886 H1877 0.930 . S
C1886 C1884 1.378 . S
C1886 C1887 1.367 . S
C1887 C1886 1.367 . S
C1887 C1889 1.433 . S
C1888 C1884 1.350 . S
C1888 C1885 1.463 1_565 S
C1888 N1892 1.427 . S
C1889 H1879 0.929 . S
C1889 C1887 1.433 . S
C1889 N1892 1.384 . S
C1890 H1881 0.929 . S
C1890 C1882 1.378 . S
C1890 C1885 1.350 . S
C1891 H1878 0.929 . S
C1891 C1883 1.433 . S
C1891 N1893 1.384 . S
N1892 C1888 1.427 . S
N1892 C1889 1.384 . S
N1893 C1885 1.427 . S
N1893 C1891 1.384 . S
H1894 C1900 0.930 . S
H1895 C1904 0.930 . S
H1896 C1909 0.929 . S
H1897 C1907 0.929 . S
H1898 C1902 0.929 . S
H1899 C1908 0.929 . S
C1900 H1894 0.930 . S
C1900 C1901 1.367 . S
C1900 C1908 1.378 . S
C1901 C1900 1.367 . S
C1901 C1909 1.433 . S
C1902 H1898 0.929 . S
C1902 C1904 1.378 . S
C1902 C1906 1.350 . S
C1903 C1906 1.463 1_455 S
C1903 C1908 1.350 . S
C1903 N1911 1.427 . S
C1904 H1895 0.930 . S
C1904 C1902 1.378 . S
C1904 C1905 1.367 . S
C1905 C1904 1.367 . S
C1905 C1907 1.433 . S
C1906 C1902 1.350 . S
C1906 C1903 1.463 1_655 S
C1906 N1910 1.427 . S
C1907 H1897 0.929 . S
C1907 C1905 1.433 . S
C1907 N1910 1.384 . S
C1908 H1899 0.929 . S
C1908 C1900 1.378 . S
C1908 C1903 1.350 . S
C1909 H1896 0.929 . S
C1909 C1901 1.433 . S
C1909 N1911 1.384 . S
N1910 C1906 1.427 . S
N1910 C1907 1.384 . S
N1911 C1903 1.427 . S
N1911 C1909 1.384 . S
H1912 C1918 0.930 . S
H1913 C1922 0.930 . S
H1914 C1927 0.929 . S
H1915 C1925 0.929 . S
H1916 C1920 0.929 . S
H1917 C1926 0.929 . S
C1918 H1912 0.930 . S
C1918 C1919 1.367 . S
C1918 C1926 1.378 . S
C1919 C1918 1.367 . S
C1919 C1927 1.433 . S
C1920 H1916 0.929 . S
C1920 C1922 1.378 . S
C1920 C1924 1.350 . S
C1921 C1924 1.463 1_545 S
C1921 C1926 1.350 . S
C1921 N1929 1.427 . S
C1922 H1913 0.930 . S
C1922 C1920 1.378 . S
C1922 C1923 1.367 . S
C1923 C1922 1.367 . S
C1923 C1925 1.433 . S
C1924 C1920 1.350 . S
C1924 C1921 1.463 1_565 S
C1924 N1928 1.427 . S
C1925 H1915 0.929 . S
C1925 C1923 1.433 . S
C1925 N1928 1.384 . S
C1926 H1917 0.929 . S
C1926 C1918 1.378 . S
C1926 C1921 1.350 . S
C1927 H1914 0.929 . S
C1927 C1919 1.433 . S
C1927 N1929 1.384 . S
N1928 C1924 1.427 . S
N1928 C1925 1.384 . S
N1929 C1921 1.427 . S
N1929 C1927 1.384 . S
H1930 C1936 0.930 . S
H1931 C1940 0.930 . S
H1932 C1945 0.929 . S
H1933 C1943 0.929 . S
H1934 C1938 0.929 . S
H1935 C1944 0.929 . S
C1936 H1930 0.930 . S
C1936 C1937 1.367 . S
C1936 C1944 1.378 . S
C1937 C1936 1.367 . S
C1937 C1945 1.433 . S
C1938 H1934 0.929 . S
C1938 C1940 1.378 . S
C1938 C1942 1.350 . S
C1939 C1942 1.463 1_655 S
C1939 C1944 1.350 . S
C1939 N1947 1.427 . S
C1940 H1931 0.930 . S
C1940 C1938 1.378 . S
C1940 C1941 1.367 . S
C1941 C1940 1.367 . S
C1941 C1943 1.433 . S
C1942 C1938 1.350 . S
C1942 C1939 1.463 1_455 S
C1942 N1946 1.427 . S
C1943 H1933 0.929 . S
C1943 C1941 1.433 . S
C1943 N1946 1.384 . S
C1944 H1935 0.929 . S
C1944 C1936 1.378 . S
C1944 C1939 1.350 . S
C1945 H1932 0.929 . S
C1945 C1937 1.433 . S
C1945 N1947 1.384 . S
N1946 C1942 1.427 . S
N1946 C1943 1.384 . S
N1947 C1939 1.427 . S
N1947 C1945 1.384 . S
H1948 C1954 0.930 . S
H1949 C1958 0.930 . S
H1950 C1963 0.929 . S
H1951 C1961 0.929 . S
H1952 C1956 0.929 . S
H1953 C1962 0.929 . S
C1954 H1948 0.930 . S
C1954 C1955 1.367 . S
C1954 C1962 1.378 . S
C1955 C1954 1.367 . S
C1955 C1963 1.433 . S
C1956 H1952 0.929 . S
C1956 C1958 1.378 . S
C1956 C1960 1.350 . S
C1957 C1960 1.463 1_565 S
C1957 C1962 1.350 . S
C1957 N1965 1.427 . S
C1958 H1949 0.930 . S
C1958 C1956 1.378 . S
C1958 C1959 1.367 . S
C1959 C1958 1.367 . S
C1959 C1961 1.433 . S
C1960 C1956 1.350 . S
C1960 C1957 1.463 1_545 S
C1960 N1964 1.427 . S
C1961 H1951 0.929 . S
C1961 C1959 1.433 . S
C1961 N1964 1.384 . S
C1962 H1953 0.929 . S
C1962 C1954 1.378 . S
C1962 C1957 1.350 . S
C1963 H1950 0.929 . S
C1963 C1955 1.433 . S
C1963 N1965 1.384 . S
N1964 C1960 1.427 . S
N1964 C1961 1.384 . S
N1965 C1957 1.427 . S
N1965 C1963 1.384 . S
H1966 C1972 0.930 . S
H1967 C1976 0.930 . S
H1968 C1981 0.929 . S
H1969 C1979 0.929 . S
H1970 C1974 0.929 . S
H1971 C1980 0.929 . S
C1972 H1966 0.930 . S
C1972 C1973 1.367 . S
C1972 C1980 1.378 . S
C1973 C1972 1.367 . S
C1973 C1981 1.433 . S
C1974 H1970 0.929 . S
C1974 C1976 1.378 . S
C1974 C1978 1.350 . S
C1975 C1978 1.463 1_455 S
C1975 C1980 1.350 . S
C1975 N1983 1.427 . S
C1976 H1967 0.930 . S
C1976 C1974 1.378 . S
C1976 C1977 1.367 . S
C1977 C1976 1.367 . S
C1977 C1979 1.433 . S
C1978 C1974 1.350 . S
C1978 C1975 1.463 1_655 S
C1978 N1982 1.427 . S
C1979 H1969 0.929 . S
C1979 C1977 1.433 . S
C1979 N1982 1.384 . S
C1980 H1971 0.929 . S
C1980 C1972 1.378 . S
C1980 C1975 1.350 . S
C1981 H1968 0.929 . S
C1981 C1973 1.433 . S
C1981 N1983 1.384 . S
N1982 C1978 1.427 . S
N1982 C1979 1.384 . S
N1983 C1975 1.427 . S
N1983 C1981 1.384 . S
C1415 C489 0.956 . S
C1419 C20 0.955 . S
C1433 C577 0.953 . S
C1437 C117 0.955 . S
C1451 C196 0.954 . S
C1455 C665 0.955 . S
C1469 C293 0.956 . S
C1473 C401 0.955 . S
C1487 C1173 0.956 . S
C1491 C753 0.955 . S
C1505 C1261 0.954 . S
C1509 C841 0.953 . S
C1523 C929 0.953 . S
C1527 C1349 0.953 . S
C1541 C1017 0.955 . S
C1545 C1085 0.954 . S
C1559 C909 1.504 . S
C1563 C57 1.506 . S
C1577 C997 1.504 . S
C1581 C137 1.506 . S
C1595 C733 1.507 . S
C1599 C233 1.504 . S
C1613 C313 1.505 . S
C1617 C821 1.506 . S
C1631 C1281 1.505 . S
C1635 C381 1.506 . S
C1649 C1369 1.505 . S
C1653 C469 1.506 . S
C1667 C557 1.505 . S
C1671 C1105 1.506 . S
C1685 C1193 1.505 . S
C1689 C645 1.505 . S
C1703 C409 1.412 . S
C1707 C29 1.418 . S
C1721 C108 1.412 . S
C1725 C497 1.418 . S
C1739 C205 1.416 . S
C1743 C585 1.413 . S
C1757 C673 1.415 . S
C1761 C284 1.414 . S
C1775 C724 1.452 . S
C1779 C1113 1.447 . S
C1793 C1201 1.447 . S
C1797 C812 1.452 . S
C1811 C900 1.453 . S
C1815 C1289 1.447 . S
C1829 C1377 1.447 . S
C1833 C988 1.453 . S
C1847 C1025 1.416 . S
C1851 C1164 1.414 . S
C1865 C761 1.418 . S
C1869 C1252 1.412 . S
C1883 C1340 1.417 . S
C1887 C849 1.413 . S
C1901 C937 1.412 . S
C1905 C1076 1.418 . S
C1919 C460 1.448 . S
C1923 C321 1.450 . S
C1937 C548 1.448 . S
C1941 C49 1.453 . S
C1955 C636 1.449 . S
C1959 C145 1.453 . S
C1973 C372 1.448 . S
C1977 C225 1.450 . S
