# Generated by pormake.
# Topology umf, (4)-cn, num edge types: 1
# Building blocks:
#     Node 0, Type 0, BuildingBlock: QUQFOY_clean_sbu_1, # of connection points: 4
#     Node 1, Type 0, BuildingBlock: QUQFOY_clean_sbu_1, # of connection points: 4
#     Node 2, Type 0, BuildingBlock: QUQFOY_clean_sbu_1, # of connection points: 4
#     Node 3, Type 0, BuildingBlock: QUQFOY_clean_sbu_1, # of connection points: 4
#     Node 4, Type 0, BuildingBlock: QUQFOY_clean_sbu_1, # of connection points: 4
#     Node 5, Type 0, BuildingBlock: QUQFOY_clean_sbu_1, # of connection points: 4
#     Node 6, Type 0, BuildingBlock: QUQFOY_clean_sbu_1, # of connection points: 4
#     Node 7, Type 0, BuildingBlock: QUQFOY_clean_sbu_1, # of connection points: 4
#     Edge 8, Type (0, 0), BuildingBlock: TEMPAE_clean_linker_10, # of connection points: 2
#     Edge 9, Type (0, 0), BuildingBlock: TEMPAE_clean_linker_10, # of connection points: 2
#     Edge 10, Type (0, 0), BuildingBlock: TEMPAE_clean_linker_10, # of connection points: 2
#     Edge 11, Type (0, 0), BuildingBlock: TEMPAE_clean_linker_10, # of connection points: 2
#     Edge 12, Type (0, 0), BuildingBlock: TEMPAE_clean_linker_10, # of connection points: 2
#     Edge 13, Type (0, 0), BuildingBlock: TEMPAE_clean_linker_10, # of connection points: 2
#     Edge 14, Type (0, 0), BuildingBlock: TEMPAE_clean_linker_10, # of connection points: 2
#     Edge 15, Type (0, 0), BuildingBlock: TEMPAE_clean_linker_10, # of connection points: 2
#     Edge 16, Type (0, 0), BuildingBlock: TEMPAE_clean_linker_10, # of connection points: 2
#     Edge 17, Type (0, 0), BuildingBlock: TEMPAE_clean_linker_10, # of connection points: 2
#     Edge 18, Type (0, 0), BuildingBlock: TEMPAE_clean_linker_10, # of connection points: 2
#     Edge 19, Type (0, 0), BuildingBlock: TEMPAE_clean_linker_10, # of connection points: 2
#     Edge 20, Type (0, 0), BuildingBlock: TEMPAE_clean_linker_10, # of connection points: 2
#     Edge 21, Type (0, 0), BuildingBlock: TEMPAE_clean_linker_10, # of connection points: 2
#     Edge 22, Type (0, 0), BuildingBlock: TEMPAE_clean_linker_10, # of connection points: 2
#     Edge 23, Type (0, 0), BuildingBlock: TEMPAE_clean_linker_10, # of connection points: 2
# Relax obj value: 0.061
# Max RMSD: 0.221
# Mean RMSD: 0.221
data_MOF--net-umf--node1-QUQFOY_clean_sbu_1--edge1-TEMPAE_clean_linker_10
_symmetry_space_group_name_H-M    P1
_symmetry_Int_Tables_number       1
_symmetry_cell_setting            triclinic
loop_
_symmetry_equiv_pos_as_xyz
'x, y, z'
_cell_length_a     29.671265
_cell_length_b     29.628477
_cell_length_c     53.725327
_cell_angle_alpha  90.054389
_cell_angle_beta   90.042898
_cell_angle_gamma 89.675678
loop_
_atom_site_label
_atom_site_type_symbol
_atom_site_fract_x
_atom_site_fract_y
_atom_site_fract_z
_atom_type_partial_charge
O0 O 0.999 0.25205 0.13935 0.0
Cd1 Cd 0.00234 0.2537 0.17775 0.0
Cd2 Cd 0.08714 0.22272 0.16866 0.0
O3 O 0.07155 0.24004 0.13177 0.0
O4 O 0.96416 0.30489 0.19092 0.0
O5 O 0.03877 0.30547 0.18989 0.0
C6 C 0.00143 0.32645 0.19429 0.0
C7 C 0.14994 0.23677 0.19364 0.0
C8 C 0.03158 0.24835 0.12404 0.0
C9 C 0.02219 0.16019 0.19434 0.0
O10 O 0.05795 0.16529 0.18179 0.0
O11 O 0.99456 0.19289 0.19706 0.0
O12 O 0.15224 0.20844 0.17538 0.0
O13 O 0.11428 0.26163 0.19539 0.0
O14 O 0.82762 0.06905 0.66552 0.0
Cd15 Cd 0.76358 0.09272 0.66292 0.0
Cd16 Cd 0.74326 0.01104 0.6724 0.0
O17 O 0.80466 0.01707 0.69181 0.0
O18 O 0.75935 0.15593 0.67785 0.0
O19 O 0.74121 0.09358 0.69796 0.0
C20 C 0.7481 0.1364 0.69849 0.0
C21 C 0.66793 0.00963 0.68553 0.0
C22 C 0.83661 0.03995 0.68218 0.0
C23 C 0.73815 0.03371 0.62045 0.0
O24 O 0.7505 0.00221 0.63503 0.0
O25 O 0.73166 0.0736 0.62907 0.0
O26 O 0.69317 0.97411 0.68791 0.0
O27 O 0.68603 0.04573 0.67693 0.0
O28 O 0.99078 0.73677 0.13707 0.0
Cd29 Cd 0.98227 0.73659 0.17545 0.0
Cd30 Cd 0.90696 0.77642 0.16167 0.0
O31 O 0.91929 0.74798 0.12693 0.0
O32 O 0.02009 0.68627 0.19015 0.0
O33 O 0.94592 0.68346 0.18627 0.0
C34 C 0.98318 0.66363 0.19213 0.0
C35 C 0.85025 0.76931 0.1914 0.0
C36 C 0.95975 0.73836 0.12066 0.0
C37 C 0.97359 0.83434 0.18531 0.0
O38 O 0.94442 0.8323 0.16814 0.0
O39 O 0.98954 0.79819 0.1948 0.0
O40 O 0.84402 0.79414 0.17188 0.0
O41 O 0.88638 0.74505 0.19252 0.0
O42 O 0.17054 0.93524 0.66594 0.0
Cd43 Cd 0.23438 0.91156 0.66237 0.0
Cd44 Cd 0.25545 0.99355 0.67156 0.0
O45 O 0.19462 0.98806 0.69147 0.0
O46 O 0.2386 0.84826 0.6771 0.0
O47 O 0.25868 0.91025 0.69701 0.0
C48 C 0.2512 0.86753 0.6976 0.0
C49 C 0.33089 0.99534 0.68457 0.0
C50 C 0.16231 0.96469 0.68255 0.0
C51 C 0.25861 0.97026 0.61947 0.0
O52 O 0.24746 0.00204 0.6342 0.0
O53 O 0.2647 0.93028 0.62804 0.0
O54 O 0.3056 0.03084 0.68683 0.0
O55 O 0.31286 0.95912 0.67602 0.0
O56 O 0.02273 0.73458 0.92581 0.0
Cd57 Cd 0.02778 0.7348 0.88766 0.0
Cd58 Cd 0.10751 0.76867 0.89805 0.0
O59 O 0.09626 0.73733 0.93246 0.0
O60 O 0.9874 0.68642 0.87318 0.0
O61 O 0.06136 0.67951 0.87668 0.0
C62 C 0.02323 0.66166 0.87109 0.0
C63 C 0.15295 0.75671 0.86305 0.0
C64 C 0.05617 0.73172 0.94058 0.0
C65 C 0.04203 0.83321 0.87961 0.0
O66 O 0.07409 0.82816 0.89504 0.0
O67 O 0.02264 0.79868 0.87025 0.0
O68 O 0.17008 0.77426 0.883 0.0
O69 O 0.11223 0.74207 0.86421 0.0
O70 O 0.17424 0.06449 0.38078 0.0
Cd71 Cd 0.23581 0.09191 0.38946 0.0
Cd72 Cd 0.25663 0.00543 0.38229 0.0
O73 O 0.19528 0.00016 0.36364 0.0
O74 O 0.22454 0.15697 0.38056 0.0
O75 O 0.27152 0.11276 0.35981 0.0
C76 C 0.24968 0.15038 0.36126 0.0
C77 C 0.32929 0.9968 0.36624 0.0
C78 C 0.16467 0.02929 0.36836 0.0
C79 C 0.25802 0.04036 0.4349 0.0
O80 O 0.25264 0.00661 0.42058 0.0
O81 O 0.25911 0.08026 0.4259 0.0
O82 O 0.30622 0.96192 0.37286 0.0
O83 O 0.30998 0.03582 0.36731 0.0
O84 O 0.98285 0.24964 0.92656 0.0
Cd85 Cd 0.97941 0.25238 0.88839 0.0
Cd86 Cd 0.89503 0.22384 0.89675 0.0
O87 O 0.90902 0.24849 0.93268 0.0
O88 O 0.02244 0.29953 0.87498 0.0
O89 O 0.94881 0.30966 0.87827 0.0
C90 C 0.98776 0.3259 0.87302 0.0
C91 C 0.84742 0.24358 0.86374 0.0
C92 C 0.94917 0.25196 0.94118 0.0
C93 C 0.95634 0.15672 0.87519 0.0
O94 O 0.92283 0.16258 0.88954 0.0
O95 O 0.9813 0.19009 0.86933 0.0
O96 O 0.83116 0.22339 0.8831 0.0
O97 O 0.88862 0.25688 0.86479 0.0
O98 O 0.82684 0.94255 0.38891 0.0
Cd99 Cd 0.76692 0.90944 0.39326 0.0
Cd100 Cd 0.73876 0.99109 0.38304 0.0
O101 O 0.80104 0.99732 0.36501 0.0
O102 O 0.78084 0.84608 0.38174 0.0
O103 O 0.73595 0.89314 0.36139 0.0
C104 C 0.75763 0.85537 0.36199 0.0
C105 C 0.66631 0.00072 0.36642 0.0
C106 C 0.83407 0.97503 0.37408 0.0
C107 C 0.73608 0.95961 0.43643 0.0
O108 O 0.74121 0.99251 0.42151 0.0
O109 O 0.73721 0.91917 0.4282 0.0
O110 O 0.69001 0.03526 0.37292 0.0
O111 O 0.6848 0.96139 0.3679 0.0
C112 C 0.03289 0.4029 0.18767 0.0
C113 C 0.00148 0.37536 0.1997 0.0
C114 C 0.03012 0.45009 0.18932 0.0
C115 C 0.99625 0.47026 0.20428 0.0
C116 C 0.96626 0.44242 0.21782 0.0
C117 C 0.96848 0.39523 0.21486 0.0
C118 C 0.06162 0.47828 0.17374 0.0
C119 C 0.931 0.4625 0.23483 0.0
C120 C 0.01372 0.59616 0.21501 0.0
C121 C 0.98376 0.6148 0.19763 0.0
C122 C 0.01609 0.54912 0.21863 0.0
C123 C 0.9896 0.5202 0.20356 0.0
C124 C 0.95905 0.53915 0.18615 0.0
C125 C 0.95581 0.58619 0.18382 0.0
C126 C 0.04754 0.53035 0.23818 0.0
C127 C 0.93149 0.50978 0.16896 0.0
H128 H 0.05812 0.38759 0.17569 0.0
H129 H 0.94431 0.37391 0.22427 0.0
H130 H 0.04183 0.49816 0.16001 0.0
H131 H 0.07999 0.50263 0.18562 0.0
H132 H 0.08669 0.45736 0.1635 0.0
H133 H 0.91561 0.43661 0.24706 0.0
H134 H 0.94595 0.48929 0.24664 0.0
H135 H 0.90386 0.47835 0.22359 0.0
H136 H 0.03518 0.61835 0.22578 0.0
H137 H 0.93301 0.60059 0.17015 0.0
H138 H 0.07671 0.51358 0.2291 0.0
H139 H 0.03008 0.5045 0.24952 0.0
H140 H 0.06047 0.55713 0.25074 0.0
H141 H 0.95429 0.48867 0.15736 0.0
H142 H 0.90938 0.52988 0.15643 0.0
H143 H 0.91012 0.48654 0.17991 0.0
C144 C 0.39906 0.02693 0.70619 0.0
C145 C 0.37992 0.99616 0.68949 0.0
C146 C 0.44609 0.02837 0.70969 0.0
C147 C 0.47442 0.99958 0.69543 0.0
C148 C 0.45499 0.96803 0.67887 0.0
C149 C 0.40805 0.96625 0.67642 0.0
C150 C 0.46553 0.06139 0.72814 0.0
C151 C 0.48379 0.93773 0.66267 0.0
C152 C 0.59091 0.03861 0.67693 0.0
C153 C 0.61885 0.00888 0.69024 0.0
C154 C 0.54394 0.03678 0.67907 0.0
C155 C 0.52425 0.00538 0.69558 0.0
C156 C 0.55235 0.97679 0.71008 0.0
C157 C 0.59944 0.97826 0.70689 0.0
C158 C 0.51539 0.06685 0.6626 0.0
C159 C 0.53262 0.94395 0.72849 0.0
H160 H 0.37735 0.04979 0.71649 0.0
H161 H 0.39342 0.94256 0.66335 0.0
H162 H 0.49102 0.04441 0.74008 0.0
H163 H 0.48286 0.08895 0.71808 0.0
H164 H 0.43912 0.07659 0.74022 0.0
H165 H 0.46335 0.91414 0.65128 0.0
H166 H 0.50444 0.95863 0.64994 0.0
H167 H 0.50739 0.91765 0.67428 0.0
H168 H 0.60573 0.06216 0.66389 0.0
H169 H 0.621 0.95553 0.71736 0.0
H170 H 0.49159 0.08706 0.67402 0.0
H171 H 0.49499 0.04577 0.64981 0.0
H172 H 0.53602 0.0903 0.65127 0.0
H173 H 0.50686 0.96101 0.74021 0.0
H174 H 0.55882 0.92895 0.74078 0.0
H175 H 0.51555 0.91623 0.71837 0.0
C176 C 0.02308 0.39126 0.8506 0.0
C177 C 0.99233 0.37468 0.86806 0.0
C178 C 0.02783 0.43809 0.8469 0.0
C179 C 0.00289 0.46872 0.86192 0.0
C180 C 0.97177 0.45182 0.87952 0.0
C181 C 0.96621 0.4051 0.88196 0.0
C182 C 0.05988 0.45478 0.82721 0.0
C183 C 0.94582 0.48296 0.89667 0.0
C184 C 0.05104 0.58348 0.87774 0.0
C185 C 0.02072 0.61275 0.86577 0.0
C186 C 0.04645 0.53653 0.87598 0.0
C187 C 0.01176 0.51821 0.86102 0.0
C188 C 0.98281 0.54764 0.84756 0.0
C189 C 0.98693 0.59469 0.85058 0.0
C190 C 0.07692 0.50668 0.89148 0.0
C191 C 0.94664 0.52946 0.8306 0.0
H192 H 0.04303 0.36767 0.83972 0.0
H193 H 0.94271 0.39225 0.89565 0.0
H194 H 0.04329 0.48107 0.81563 0.0
H195 H 0.08961 0.4705 0.83615 0.0
H196 H 0.07185 0.42707 0.81489 0.0
H197 H 0.92317 0.46431 0.90945 0.0
H198 H 0.96969 0.50309 0.90801 0.0
H199 H 0.92518 0.50705 0.88568 0.0
H200 H 0.07694 0.59734 0.88972 0.0
H201 H 0.96364 0.61728 0.84118 0.0
H202 H 0.09391 0.48119 0.87959 0.0
H203 H 0.0565 0.48811 0.90537 0.0
H204 H 0.10311 0.52621 0.90153 0.0
H205 H 0.96035 0.50184 0.8188 0.0
H206 H 0.93231 0.55613 0.81836 0.0
H207 H 0.91892 0.51515 0.84188 0.0
C208 C 0.40525 0.96319 0.37379 0.0
C209 C 0.37794 0.99342 0.36049 0.0
C210 C 0.45247 0.96508 0.37208 0.0
C211 C 0.47283 0.99688 0.35596 0.0
C212 C 0.44519 0.02549 0.34126 0.0
C213 C 0.39809 0.02411 0.34411 0.0
C214 C 0.48055 0.93484 0.38865 0.0
C215 C 0.46537 0.05852 0.3231 0.0
C216 C 0.59074 0.03532 0.37374 0.0
C217 C 0.61779 0.00484 0.36045 0.0
C218 C 0.54349 0.03377 0.37202 0.0
C219 C 0.52289 0.00207 0.35588 0.0
C220 C 0.5503 0.97332 0.34113 0.0
C221 C 0.59741 0.97435 0.34401 0.0
C222 C 0.51565 0.06414 0.38864 0.0
C223 C 0.52986 0.94037 0.32296 0.0
H224 H 0.38978 0.9399 0.38674 0.0
H225 H 0.37698 0.04753 0.3338 0.0
H226 H 0.50446 0.91458 0.37733 0.0
H227 H 0.50086 0.95579 0.40156 0.0
H228 H 0.45958 0.91146 0.39984 0.0
H229 H 0.43945 0.07381 0.31073 0.0
H230 H 0.48237 0.08603 0.33342 0.0
H231 H 0.49125 0.04153 0.31143 0.0
H232 H 0.6064 0.05844 0.38675 0.0
H233 H 0.61832 0.95073 0.3337 0.0
H234 H 0.49566 0.04328 0.40171 0.0
H235 H 0.49146 0.08422 0.3774 0.0
H236 H 0.53678 0.08769 0.39967 0.0
H237 H 0.51309 0.91277 0.33328 0.0
H238 H 0.55561 0.9252 0.31044 0.0
H239 H 0.50377 0.95739 0.31144 0.0
C240 C 0.93259 0.23221 0.98569 0.0
C241 C 0.9579 0.25649 0.96829 0.0
C242 C 0.94477 0.23162 1.01106 0.0
C243 C 0.98231 0.25707 1.01935 0.0
C244 C 0.00672 0.28318 1.00194 0.0
C245 C 0.99472 0.28193 0.97662 0.0
C246 C 0.91848 0.20246 1.02884 0.0
C247 C 0.04591 0.31203 1.00999 0.0
C248 C 0.98869 0.28322 0.08881 0.0
C249 C 0.02176 0.25263 0.09703 0.0
C250 C 0.9764 0.28582 0.06356 0.0
C251 C 0.99644 0.25596 0.04613 0.0
C252 C 0.02995 0.22498 0.05434 0.0
C253 C 0.04275 0.22423 0.07962 0.0
C254 C 0.94182 0.32048 0.05555 0.0
C255 C 0.05139 0.19177 0.03656 0.0
H256 H 0.90453 0.212 0.97928 0.0
H257 H 0.01435 0.30084 0.96322 0.0
H258 H 0.94126 0.177 0.03739 0.0
H259 H 0.90448 0.22333 0.04417 0.0
H260 H 0.8903 0.18461 1.0195 0.0
H261 H 0.05928 0.33284 0.9945 0.0
H262 H 0.03548 0.33479 1.02538 0.0
H263 H 0.07355 0.29029 1.01715 0.0
H264 H 0.97249 0.30537 0.10221 0.0
H265 H 0.06791 0.20015 0.08594 0.0
H266 H 0.91149 0.30335 0.04816 0.0
H267 H 0.95561 0.34157 0.04033 0.0
H268 H 0.93136 0.34292 0.07111 0.0
H269 H 0.02496 0.17064 1.02782 0.0
H270 H 0.07618 0.16926 0.04593 0.0
H271 H 0.06877 0.21004 1.02137 0.0
C272 C 0.70251 0.04508 0.57818 0.0
C273 C 0.7343 0.02348 0.59345 0.0
C274 C 0.69862 0.03363 0.55276 0.0
C275 C 0.72824 0.00099 0.54223 0.0
C276 C 0.76064 0.97957 0.55761 0.0
C277 C 0.76276 0.99055 0.583 0.0
C278 C 0.66285 0.05639 0.53715 0.0
C279 C 0.79399 0.94583 0.54715 0.0
C280 C 0.7073 0.94273 0.47967 0.0
C281 C 0.73268 0.96957 0.46349 0.0
C282 C 0.70389 0.95359 0.50521 0.0
C283 C 0.72771 0.99119 0.51487 0.0
C284 C 0.75367 0.01801 0.49855 0.0
C285 C 0.75523 0.00731 0.47311 0.0
C286 C 0.6749 0.92484 0.52185 0.0
C287 C 0.78096 0.05735 0.50804 0.0
H288 H 0.68016 0.07021 0.58622 0.0
H289 H 0.78766 0.97394 0.59466 0.0
H290 H 0.67889 0.07745 0.52263 0.0
H291 H 0.64223 0.03064 0.52745 0.0
H292 H 0.6402 0.07821 0.54847 0.0
H293 H 0.81709 0.93217 0.56161 0.0
H294 H 0.77593 0.91726 0.53839 0.0
H295 H 0.81452 0.96204 0.53242 0.0
H296 H 0.68951 0.91379 0.47231 0.0
H297 H 0.77526 0.028 0.46075 0.0
H298 H 0.65083 0.94646 0.53233 0.0
H299 H 0.69629 0.90714 0.53573 0.0
H300 H 0.65562 0.89923 0.5112 0.0
H301 H 0.75868 0.08214 0.5175 0.0
H302 H 0.79933 0.0749 0.4929 0.0
H303 H 0.80586 0.0453 0.522 0.0
C304 C 0.95129 0.75749 0.07543 0.0
C305 C 0.97207 0.73177 0.09412 0.0
C306 C 0.96647 0.75538 0.05062 0.0
C307 C 0.00233 0.72572 0.04417 0.0
C308 C 0.02215 0.69833 0.06285 0.0
C309 C 0.00735 0.70229 0.08764 0.0
C310 C 0.94506 0.78597 0.03146 0.0
C311 C 0.05927 0.6651 0.0567 0.0
C312 C 0.01158 0.69761 0.97511 0.0
C313 C 0.04704 0.72548 0.96749 0.0
C314 C 0.99806 0.69581 1.00017 0.0
C315 C 0.01937 0.72386 1.01796 0.0
C316 C 0.05584 0.75145 1.01041 0.0
C317 C 0.06971 0.75137 0.98533 0.0
C318 C 0.96018 0.66471 1.00748 0.0
C319 C 0.0788 0.7827 1.02858 0.0
H320 H 0.92442 0.78074 0.08041 0.0
H321 H 0.02343 0.68222 0.10203 0.0
H322 H 0.97109 0.80806 1.02313 0.0
H323 H 0.93043 0.76562 1.01615 0.0
H324 H 0.91804 0.80758 0.03951 0.0
H325 H 0.06899 0.64412 0.07299 0.0
H326 H 0.0484 0.64247 0.04138 0.0
H327 H 0.08949 0.68341 0.05012 0.0
H328 H 0.99398 0.67754 0.96134 0.0
H329 H 0.09664 0.77349 0.97942 0.0
H330 H 0.93025 0.68489 1.01304 0.0
H331 H 0.97023 0.64394 1.02376 0.0
H332 H 0.95029 0.64185 0.99203 0.0
H333 H 0.054 0.80761 0.03584 0.0
H334 H 0.1072 0.80126 1.01995 0.0
H335 H 0.09185 0.76337 0.04474 0.0
C336 C 0.28861 0.05704 0.47778 0.0
C337 C 0.26035 0.03201 0.46213 0.0
C338 C 0.29211 0.04672 0.50337 0.0
C339 C 0.26557 0.01161 0.51364 0.0
C340 C 0.23645 0.9869 0.49789 0.0
C341 C 0.23477 0.99692 0.47237 0.0
C342 C 0.3244 0.07311 0.51939 0.0
C343 C 0.2063 0.95037 0.50805 0.0
C344 C 0.2906 0.95619 0.57655 0.0
C345 C 0.26175 0.98037 0.59241 0.0
C346 C 0.29362 0.96713 0.55103 0.0
C347 C 0.2661 0.00206 0.54102 0.0
C348 C 0.23672 0.02621 0.55702 0.0
C349 C 0.23541 0.01552 0.58246 0.0
C350 C 0.32618 0.94128 0.53475 0.0
C351 C 0.20564 0.0626 0.54715 0.0
H352 H 0.30879 0.08385 0.46991 0.0
H353 H 0.21262 0.97763 0.46038 0.0
H354 H 0.30551 0.09211 0.53383 0.0
H355 H 0.34767 0.04965 0.5292 0.0
H356 H 0.34464 0.09737 0.50836 0.0
H357 H 0.18518 0.93465 0.49336 0.0
H358 H 0.2269 0.92358 0.517 0.0
H359 H 0.18375 0.96466 0.52256 0.0
H360 H 0.31131 0.92928 0.58415 0.0
H361 H 0.21272 0.03417 0.59454 0.0
H362 H 0.34816 0.96508 0.52451 0.0
H363 H 0.30732 0.92153 0.52067 0.0
H364 H 0.34774 0.91773 0.54564 0.0
H365 H 0.22542 0.08934 0.53783 0.0
H366 H 0.18499 0.07843 0.56207 0.0
H367 H 0.18261 0.04807 0.53301 0.0
C368 C 0.19038 0.26981 0.23042 0.0
C369 C 0.18059 0.23254 0.21529 0.0
C370 C 0.21025 0.26398 0.25405 0.0
C371 C 0.21789 0.21977 0.2633 0.0
C372 C 0.20982 0.18223 0.24756 0.0
C373 C 0.19234 0.1892 0.22356 0.0
C374 C 0.22072 0.30506 0.26957 0.0
C375 C 0.21573 0.13438 0.25677 0.0
C376 C 0.28058 0.18363 0.3219 0.0
C377 C 0.24494 0.17901 0.33882 0.0
C378 C 0.27312 0.20126 0.29789 0.0
C379 C 0.22861 0.21195 0.29018 0.0
C380 C 0.19296 0.20934 0.30769 0.0
C381 C 0.20181 0.19395 0.33193 0.0
C382 C 0.31252 0.20598 0.28037 0.0
C383 C 0.14471 0.21876 0.30023 0.0
H384 H 0.18117 0.30338 0.22413 0.0
H385 H 0.18404 0.16023 0.21213 0.0
H386 H 0.1932 0.31091 0.28317 0.0
H387 H 0.25247 0.30016 0.2802 0.0
H388 H 0.22382 0.33578 0.25787 0.0
H389 H 0.20873 0.10898 0.24207 0.0
H390 H 0.25055 0.12897 0.26367 0.0
H391 H 0.19254 0.12831 0.27261 0.0
H392 H 0.31397 0.172 0.32714 0.0
H393 H 0.17401 0.18969 0.3448 0.0
H394 H 0.30909 0.237 0.26893 0.0
H395 H 0.31361 0.17669 0.26752 0.0
H396 H 0.34503 0.20713 0.29062 0.0
H397 H 0.14156 0.25291 0.29201 0.0
H398 H 0.12111 0.21639 0.31621 0.0
H399 H 0.13412 0.19414 0.2858 0.0
C400 C 0.84884 0.2472 0.81747 0.0
C401 C 0.82342 0.24383 0.83943 0.0
C402 C 0.83019 0.23666 0.7942 0.0
C403 C 0.78429 0.22416 0.79256 0.0
C404 C 0.75719 0.22547 0.8143 0.0
C405 C 0.77729 0.23426 0.8376 0.0
C406 C 0.86088 0.23466 0.77179 0.0
C407 C 0.70757 0.21492 0.81318 0.0
C408 C 0.74574 0.20667 0.72532 0.0
C409 C 0.75036 0.15973 0.72293 0.0
C410 C 0.75306 0.22812 0.74846 0.0
C411 C 0.76758 0.20223 0.76924 0.0
C412 C 0.77116 0.15473 0.76692 0.0
C413 C 0.7616 0.13416 0.74404 0.0
C414 C 0.74674 0.27854 0.75034 0.0
C415 C 0.78802 0.12566 0.78813 0.0
H416 H 0.88453 0.25456 0.8186 0.0
H417 H 0.75725 0.23205 0.85442 0.0
H418 H 0.86435 0.19912 0.76546 0.0
H419 H 0.8463 0.25426 0.75616 0.0
H420 H 0.89503 0.24794 0.77587 0.0
H421 H 0.68952 0.22756 0.82992 0.0
H422 H 0.69196 0.23005 0.79633 0.0
H423 H 0.70289 0.17786 0.81212 0.0
H424 H 0.73685 0.22662 0.70913 0.0
H425 H 0.76569 0.09789 0.74236 0.0
H426 H 0.77974 0.2954 0.74805 0.0
H427 H 0.73299 0.28828 0.76881 0.0
H428 H 0.72376 0.29138 0.7356 0.0
H429 H 0.82257 0.13612 0.79346 0.0
H430 H 0.78888 0.08922 0.78325 0.0
H431 H 0.76621 0.13012 0.8047 0.0
C432 C 0.72724 0.82532 0.32177 0.0
C433 C 0.76287 0.82882 0.33881 0.0
C434 C 0.7346 0.80899 0.29747 0.0
C435 C 0.77902 0.79828 0.28966 0.0
C436 C 0.81476 0.80018 0.30717 0.0
C437 C 0.80603 0.81447 0.33166 0.0
C438 C 0.69518 0.80535 0.27984 0.0
C439 C 0.86291 0.79071 0.29956 0.0
C440 C 0.81292 0.73863 0.22958 0.0
C441 C 0.82251 0.77531 0.21403 0.0
C442 C 0.7951 0.74539 0.2536 0.0
C443 C 0.78926 0.78993 0.26276 0.0
C444 C 0.79759 0.82699 0.24675 0.0
C445 C 0.81313 0.81914 0.22241 0.0
C446 C 0.78456 0.7049 0.26953 0.0
C447 C 0.79357 0.87508 0.2559 0.0
H448 H 0.69386 0.83662 0.32722 0.0
H449 H 0.8338 0.81799 0.34464 0.0
H450 H 0.69572 0.83391 0.26653 0.0
H451 H 0.69734 0.77365 0.26887 0.0
H452 H 0.66246 0.80622 0.28989 0.0
H453 H 0.88658 0.79227 0.31557 0.0
H454 H 0.86577 0.75689 0.29087 0.0
H455 H 0.8736 0.81583 0.28546 0.0
H456 H 0.82047 0.7047 0.22318 0.0
H457 H 0.82147 0.84758 0.21063 0.0
H458 H 0.7523 0.71002 0.27962 0.0
H459 H 0.81145 0.7002 0.28365 0.0
H460 H 0.78229 0.67351 0.25828 0.0
H461 H 0.7594 0.88151 0.26347 0.0
H462 H 0.80027 0.90007 0.24096 0.0
H463 H 0.81797 0.88072 0.27125 0.0
C464 C 0.24984 0.79688 0.72402 0.0
C465 C 0.24994 0.84408 0.72204 0.0
C466 C 0.24216 0.7757 0.74716 0.0
C467 C 0.23228 0.80236 0.76847 0.0
C468 C 0.23405 0.84998 0.76663 0.0
C469 C 0.24372 0.87007 0.74366 0.0
C470 C 0.24274 0.72486 0.74854 0.0
C471 C 0.22233 0.88001 0.78848 0.0
C472 C 0.14875 0.76268 0.81697 0.0
C473 C 0.17556 0.76002 0.83846 0.0
C474 C 0.16722 0.77423 0.79383 0.0
C475 C 0.21418 0.7816 0.79176 0.0
C476 C 0.24206 0.7752 0.81296 0.0
C477 C 0.22229 0.76557 0.83624 0.0
C478 C 0.13577 0.78213 0.7721 0.0
C479 C 0.29249 0.78052 0.81133 0.0
H480 H 0.2549 0.77654 0.70747 0.0
H481 H 0.24344 0.90659 0.74237 0.0
H482 H 0.25892 0.71325 0.76606 0.0
H483 H 0.20769 0.71209 0.7484 0.0
H484 H 0.26092 0.70967 0.73249 0.0
H485 H 0.22646 0.91641 0.78414 0.0
H486 H 0.1868 0.87428 0.79406 0.0
H487 H 0.24385 0.87166 0.80471 0.0
H488 H 0.11254 0.75878 0.81849 0.0
H489 H 0.24327 0.76326 0.85272 0.0
H490 H 0.14667 0.76198 0.75578 0.0
H491 H 0.13679 0.81823 0.76662 0.0
H492 H 0.10035 0.77328 0.77654 0.0
H493 H 0.30562 0.76532 0.79387 0.0
H494 H 0.30989 0.76463 0.82743 0.0
H495 H 0.30105 0.8169 0.81113 0.0
C496 C 0.04978 0.08706 0.21109 0.0
C497 C 0.01315 0.11466 0.20436 0.0
C498 C 0.04455 0.04049 0.21445 0.0
C499 C 0.00174 0.02092 0.21065 0.0
C500 C 0.96376 0.04933 0.20657 0.0
C501 C 0.96989 0.09611 0.20353 0.0
C502 C 0.0858 0.01181 0.2194 0.0
C503 C 0.91738 0.02986 0.20286 0.0
C504 C 0.9988 0.911 0.17476 0.0
C505 C 0.98831 0.87954 0.19323 0.0
C506 C 0.00444 0.95668 0.18047 0.0
C507 C 0.99869 0.97163 0.20533 0.0
C508 C 0.98967 0.93971 0.22434 0.0
C509 C 0.98471 0.89374 0.21804 0.0
C510 C 0.01503 0.98918 0.15963 0.0
C511 C 0.98301 0.95426 0.25101 0.0
H512 H 0.08323 0.10152 0.21222 0.0
H513 H 0.94149 0.11737 0.19846 0.0
H514 H 0.07824 0.98472 0.23298 0.0
H515 H 0.09667 0.99538 0.20181 0.0
H516 H 0.11428 0.03222 0.2266 0.0
H517 H 0.89065 0.05615 0.20424 0.0
H518 H 0.91538 0.01411 0.18414 0.0
H519 H 0.91064 0.00315 0.21681 0.0
H520 H 0.00127 0.89991 0.15555 0.0
H521 H 0.97561 0.86946 0.23224 0.0
H522 H 0.0461 0.00827 0.16402 0.0
H523 H 0.98716 0.01402 0.15758 0.0
H524 H 0.01991 0.97176 0.1415 0.0
H525 H 0.00889 0.97915 0.25666 0.0
H526 H 0.98428 0.92517 0.26403 0.0
H527 H 0.94962 0.97094 0.25291 0.0
C528 C 0.08065 0.94658 0.67934 0.0
C529 C 0.11486 0.97266 0.69013 0.0
C530 C 0.03512 0.95677 0.68326 0.0
C531 C 0.02322 0.99372 0.69864 0.0
C532 C 0.05738 0.01793 0.71128 0.0
C533 C 0.10296 0.00733 0.70673 0.0
C534 C -8e-05 0.93008 0.66932 0.0
C535 C 0.04591 0.05668 0.72842 0.0
C536 C 0.91845 0.05218 0.6749 0.0
C537 C 0.88441 0.03175 0.689 0.0
C538 C 0.96394 0.04197 0.67892 0.0
C539 C 0.97606 0.011 0.69784 0.0
C540 C 0.94221 0.99254 0.71333 0.0
C541 C 0.89659 0.00275 0.70855 0.0
C542 C 0.99879 0.06221 0.66178 0.0
C543 C 0.95396 0.96048 0.73419 0.0
H544 H 0.08935 0.91919 0.66682 0.0
H545 H 0.12913 0.02723 0.71546 0.0
H546 H 0.97297 0.91886 0.68215 0.0
H547 H 0.98394 0.95187 0.65498 0.0
H548 H 0.01443 0.8999 0.65993 0.0
H549 H 0.07479 0.06571 0.74058 0.0
H550 H 0.0367 0.08674 0.71718 0.0
H551 H 0.01651 0.04832 0.74027 0.0
H552 H 0.90956 0.07495 0.65988 0.0
H553 H 0.87055 0.98734 0.71978 0.0
H554 H 0.01437 0.03514 0.65031 0.0
H555 H 0.02608 0.07818 0.67274 0.0
H556 H 0.98411 0.08795 0.64908 0.0
H557 H 0.96224 0.92681 0.72633 0.0
H558 H 0.92558 0.95654 0.74747 0.0
H559 H 0.98404 0.97237 0.74453 0.0
C560 C 0.93386 0.07647 0.86969 0.0
C561 C 0.96661 0.11008 0.86673 0.0
C562 C 0.94443 0.03073 0.86642 0.0
C563 C 0.98889 0.01809 0.85987 0.0
C564 C 0.02094 0.05203 0.85441 0.0
C565 C 0.00946 0.09778 0.85798 0.0
C566 C 0.90908 0.9959 0.87242 0.0
C567 C 0.06842 0.03993 0.8468 0.0
C568 C 0.0316 0.91292 0.89225 0.0
C569 C 0.02711 0.87974 0.87383 0.0
C570 C 0.01972 0.95788 0.8877 0.0
C571 C 0.00368 0.9705 0.86387 0.0
C572 C -0.00055 0.93731 0.84497 0.0
C573 C 0.01075 0.892 0.85028 0.0
C574 C 0.02376 0.99176 0.90864 0.0
C575 C 0.98348 0.94977 0.81919 0.0
H576 H 0.90026 0.08567 0.87588 0.0
H577 H 0.03479 0.12354 0.85532 0.0
H578 H 0.909 0.96856 0.85832 0.0
H579 H 0.91694 0.98029 0.8907 0.0
H580 H 0.87474 0.01093 0.87341 0.0
H581 H 0.08617 0.06916 0.83847 0.0
H582 H 0.08765 0.02866 0.86341 0.0
H583 H 0.06846 0.01167 0.83323 0.0
H584 H 0.044 0.90353 0.91053 0.0
H585 H 0.00784 0.86647 0.83591 0.0
H586 H 0.9903 0.00704 0.91262 0.0
H587 H 0.04666 0.01946 0.90314 0.0
H588 H 0.03686 0.97633 0.92606 0.0
H589 H 0.94965 0.96579 0.82011 0.0
H590 H 0.98177 0.92003 0.80662 0.0
H591 H 0.00666 0.9749 0.81094 0.0
C592 C 0.91318 0.9825 0.38797 0.0
C593 C 0.88147 0.98679 0.36877 0.0
C594 C 0.95911 0.98962 0.38372 0.0
C595 C 0.97417 0.00037 0.35946 0.0
C596 C 0.94235 0.00462 0.33984 0.0
C597 C 0.89609 0.99835 0.34482 0.0
C598 C 0.99152 0.98572 0.40536 0.0
C599 C 0.95726 0.01512 0.31364 0.0
C600 C 0.08664 0.05903 0.36244 0.0
C601 C 0.11692 0.02249 0.36094 0.0
C602 C 0.04009 0.05289 0.35983 0.0
C603 C 0.02311 0.0091 0.35546 0.0
C604 C 0.05368 0.9727 0.35172 0.0
C605 C 0.10034 0.9798 0.35455 0.0
C606 C 0.00897 0.09273 0.36397 0.0
C607 C 0.03695 0.92564 0.34653 0.0
H608 H 0.90191 0.97363 0.40652 0.0
H609 H 0.87164 0.00098 0.32988 0.0
H610 H 0.01703 0.95911 0.40151 0.0
H611 H 0.00981 0.01798 0.40787 0.0
H612 H 0.97422 0.97741 0.42309 0.0
H613 H 0.92871 0.01498 0.30025 0.0
H614 H 0.97351 0.04872 0.31308 0.0
H615 H 0.9828 0.99003 0.30745 0.0
H616 H 0.09913 0.09243 0.36684 0.0
H617 H 0.12348 0.95148 0.35308 0.0
H618 H 0.99245 0.08942 0.3824 0.0
H619 H 0.982 0.09364 0.34968 0.0
H620 H 0.02729 0.12532 0.36353 0.0
H621 H 0.02294 0.91106 0.36388 0.0
H622 H 0.06436 0.90307 0.33977 0.0
H623 H 0.00949 0.92633 0.3325 0.0
loop_
_geom_bond_atom_site_label_1
_geom_bond_atom_site_label_2
_geom_bond_distance
_geom_bond_site_symmetry_2
_ccdc_geom_bond_type
O0 Cd1 2.223 . S
O0 C8 1.315 . S
Cd1 O0 2.223 . S
Cd1 O4 2.297 . S
Cd1 O5 2.439 . S
Cd1 O11 2.240 . S
Cd2 O3 2.240 . S
Cd2 O10 2.223 . S
Cd2 O12 2.297 . S
Cd2 O13 2.439 . S
O3 Cd2 2.240 . S
O3 C8 1.279 . S
O4 Cd1 2.297 . S
O4 C6 1.247 . S
O5 Cd1 2.439 . S
O5 C6 1.208 . S
C6 O4 1.247 . S
C6 O5 1.208 . S
C7 O12 1.247 . S
C7 O13 1.208 . S
C8 O0 1.315 . S
C8 O3 1.279 . S
C9 O10 1.315 . S
C9 O11 1.279 . S
O10 Cd2 2.223 . S
O10 C9 1.315 . S
O11 Cd1 2.240 . S
O11 C9 1.279 . S
O12 Cd2 2.297 . S
O12 C7 1.247 . S
O13 Cd2 2.439 . S
O13 C7 1.208 . S
O14 Cd15 2.223 . S
O14 C22 1.315 . S
Cd15 O14 2.223 . S
Cd15 O18 2.297 . S
Cd15 O19 2.439 . S
Cd15 O25 2.240 . S
Cd16 O17 2.240 . S
Cd16 O24 2.223 . S
Cd16 O26 2.297 . S
Cd16 O27 2.439 . S
O17 Cd16 2.240 . S
O17 C22 1.279 . S
O18 Cd15 2.297 . S
O18 C20 1.247 . S
O19 Cd15 2.439 . S
O19 C20 1.208 . S
C20 O18 1.247 . S
C20 O19 1.208 . S
C21 O26 1.247 . S
C21 O27 1.208 . S
C22 O14 1.315 . S
C22 O17 1.279 . S
C23 O24 1.315 . S
C23 O25 1.279 . S
O24 Cd16 2.223 . S
O24 C23 1.315 . S
O25 Cd15 2.240 . S
O25 C23 1.279 . S
O26 Cd16 2.297 . S
O26 C21 1.247 . S
O27 Cd16 2.439 . S
O27 C21 1.208 . S
O28 Cd29 2.223 . S
O28 C36 1.315 . S
Cd29 O28 2.223 . S
Cd29 O32 2.297 . S
Cd29 O33 2.439 . S
Cd29 O39 2.240 . S
Cd30 O31 2.240 . S
Cd30 O38 2.223 . S
Cd30 O40 2.297 . S
Cd30 O41 2.439 . S
O31 Cd30 2.240 . S
O31 C36 1.279 . S
O32 Cd29 2.297 . S
O32 C34 1.247 . S
O33 Cd29 2.439 . S
O33 C34 1.208 . S
C34 O32 1.247 . S
C34 O33 1.208 . S
C35 O40 1.247 . S
C35 O41 1.208 . S
C36 O28 1.315 . S
C36 O31 1.279 . S
C37 O38 1.315 . S
C37 O39 1.279 . S
O38 Cd30 2.223 . S
O38 C37 1.315 . S
O39 Cd29 2.240 . S
O39 C37 1.279 . S
O40 Cd30 2.297 . S
O40 C35 1.247 . S
O41 Cd30 2.439 . S
O41 C35 1.208 . S
O42 Cd43 2.223 . S
O42 C50 1.315 . S
Cd43 O42 2.223 . S
Cd43 O46 2.297 . S
Cd43 O47 2.439 . S
Cd43 O53 2.240 . S
Cd44 O45 2.240 . S
Cd44 O52 2.223 . S
Cd44 O54 2.297 . S
Cd44 O55 2.439 . S
O45 Cd44 2.240 . S
O45 C50 1.279 . S
O46 Cd43 2.297 . S
O46 C48 1.247 . S
O47 Cd43 2.439 . S
O47 C48 1.208 . S
C48 O46 1.247 . S
C48 O47 1.208 . S
C49 O54 1.247 . S
C49 O55 1.208 . S
C50 O42 1.315 . S
C50 O45 1.279 . S
C51 O52 1.315 . S
C51 O53 1.279 . S
O52 Cd44 2.223 . S
O52 C51 1.315 . S
O53 Cd43 2.240 . S
O53 C51 1.279 . S
O54 Cd44 2.297 . S
O54 C49 1.247 . S
O55 Cd44 2.439 . S
O55 C49 1.208 . S
O56 Cd57 2.223 . S
O56 C64 1.315 . S
Cd57 O56 2.223 . S
Cd57 O60 2.297 . S
Cd57 O61 2.439 . S
Cd57 O67 2.240 . S
Cd58 O59 2.240 . S
Cd58 O66 2.223 . S
Cd58 O68 2.297 . S
Cd58 O69 2.439 . S
O59 Cd58 2.240 . S
O59 C64 1.279 . S
O60 Cd57 2.297 . S
O60 C62 1.247 . S
O61 Cd57 2.439 . S
O61 C62 1.208 . S
C62 O60 1.247 . S
C62 O61 1.208 . S
C63 O68 1.247 . S
C63 O69 1.208 . S
C64 O56 1.315 . S
C64 O59 1.279 . S
C65 O66 1.315 . S
C65 O67 1.279 . S
O66 Cd58 2.223 . S
O66 C65 1.315 . S
O67 Cd57 2.240 . S
O67 C65 1.279 . S
O68 Cd58 2.297 . S
O68 C63 1.247 . S
O69 Cd58 2.439 . S
O69 C63 1.208 . S
O70 Cd71 2.223 . S
O70 C78 1.315 . S
Cd71 O70 2.223 . S
Cd71 O74 2.297 . S
Cd71 O75 2.439 . S
Cd71 O81 2.240 . S
Cd72 O73 2.240 . S
Cd72 O80 2.223 . S
Cd72 O82 2.297 . S
Cd72 O83 2.439 . S
O73 Cd72 2.240 . S
O73 C78 1.279 . S
O74 Cd71 2.297 . S
O74 C76 1.247 . S
O75 Cd71 2.439 . S
O75 C76 1.208 . S
C76 O74 1.247 . S
C76 O75 1.208 . S
C77 O82 1.247 . S
C77 O83 1.208 . S
C78 O70 1.315 . S
C78 O73 1.279 . S
C79 O80 1.315 . S
C79 O81 1.279 . S
O80 Cd72 2.223 . S
O80 C79 1.315 . S
O81 Cd71 2.240 . S
O81 C79 1.279 . S
O82 Cd72 2.297 . S
O82 C77 1.247 . S
O83 Cd72 2.439 . S
O83 C77 1.208 . S
O84 Cd85 2.223 . S
O84 C92 1.315 . S
Cd85 O84 2.223 . S
Cd85 O88 2.297 . S
Cd85 O89 2.439 . S
Cd85 O95 2.240 . S
Cd86 O87 2.240 . S
Cd86 O94 2.223 . S
Cd86 O96 2.297 . S
Cd86 O97 2.439 . S
O87 Cd86 2.240 . S
O87 C92 1.279 . S
O88 Cd85 2.297 . S
O88 C90 1.247 . S
O89 Cd85 2.439 . S
O89 C90 1.208 . S
C90 O88 1.247 . S
C90 O89 1.208 . S
C91 O96 1.247 . S
C91 O97 1.208 . S
C92 O84 1.315 . S
C92 O87 1.279 . S
C93 O94 1.315 . S
C93 O95 1.279 . S
O94 Cd86 2.223 . S
O94 C93 1.315 . S
O95 Cd85 2.240 . S
O95 C93 1.279 . S
O96 Cd86 2.297 . S
O96 C91 1.247 . S
O97 Cd86 2.439 . S
O97 C91 1.208 . S
O98 Cd99 2.223 . S
O98 C106 1.315 . S
Cd99 O98 2.223 . S
Cd99 O102 2.297 . S
Cd99 O103 2.439 . S
Cd99 O109 2.240 . S
Cd100 O101 2.240 . S
Cd100 O108 2.223 . S
Cd100 O110 2.297 . S
Cd100 O111 2.439 . S
O101 Cd100 2.240 . S
O101 C106 1.279 . S
O102 Cd99 2.297 . S
O102 C104 1.247 . S
O103 Cd99 2.439 . S
O103 C104 1.208 . S
C104 O102 1.247 . S
C104 O103 1.208 . S
C105 O110 1.247 . S
C105 O111 1.208 . S
C106 O98 1.315 . S
C106 O101 1.279 . S
C107 O108 1.315 . S
C107 O109 1.279 . S
O108 Cd100 2.223 . S
O108 C107 1.315 . S
O109 Cd99 2.240 . S
O109 C107 1.279 . S
O110 Cd100 2.297 . S
O110 C105 1.247 . S
O111 Cd100 2.439 . S
O111 C105 1.208 . S
C112 C113 1.391 . S
C112 C114 1.394 . S
C112 H128 0.931 . S
C113 C112 1.391 . S
C113 C117 1.376 1_455 S
C114 C112 1.394 . S
C114 C115 1.369 . S
C114 C118 1.531 . S
C115 C114 1.369 . S
C115 C116 1.410 1_455 S
C115 C123 1.503 1_455 S
C116 C115 1.410 1_655 S
C116 C117 1.392 . S
C116 C119 1.511 . S
C117 C113 1.376 1_655 S
C117 C116 1.392 . S
C117 H129 0.929 . S
C118 C114 1.531 . S
C118 H130 0.960 . S
C118 H131 0.962 . S
C118 H132 0.960 . S
C119 C116 1.511 . S
C119 H133 0.961 . S
C119 H134 0.961 . S
C119 H135 0.961 . S
C120 C121 1.370 . S
C120 C122 1.365 . S
C120 H136 0.931 . S
C121 C120 1.370 . S
C121 C125 1.408 . S
C122 C120 1.365 . S
C122 C123 1.372 . S
C122 C126 1.521 1_655 S
C123 C115 1.503 1_655 S
C123 C122 1.372 . S
C123 C124 1.403 . S
C124 C123 1.403 . S
C124 C125 1.404 . S
C124 C127 1.539 . S
C125 C121 1.408 . S
C125 C124 1.404 . S
C125 H137 0.930 . S
C126 C122 1.521 1_455 S
C126 H138 0.956 . S
C126 H139 0.961 . S
C126 H140 0.961 . S
C127 C124 1.539 . S
C127 H141 0.958 . S
C127 H142 0.961 . S
C127 H143 0.960 . S
H128 C112 0.931 . S
H129 C117 0.929 . S
H130 C118 0.960 . S
H131 C118 0.962 . S
H132 C118 0.960 . S
H133 C119 0.961 . S
H134 C119 0.961 . S
H135 C119 0.961 . S
H136 C120 0.931 . S
H137 C125 0.930 . S
H138 C126 0.956 . S
H139 C126 0.961 . S
H140 C126 0.961 . S
H141 C127 0.958 . S
H142 C127 0.961 . S
H143 C127 0.960 . S
C144 C145 1.391 1_545 S
C144 C146 1.394 . S
C144 H160 0.931 . S
C145 C144 1.391 1_565 S
C145 C149 1.376 . S
C146 C144 1.394 . S
C146 C147 1.369 1_545 S
C146 C150 1.531 . S
C147 C146 1.369 1_565 S
C147 C148 1.410 . S
C147 C155 1.503 1_565 S
C148 C147 1.410 . S
C148 C149 1.392 . S
C148 C151 1.511 . S
C149 C145 1.376 . S
C149 C148 1.392 . S
C149 H161 0.929 . S
C150 C146 1.531 . S
C150 H162 0.960 . S
C150 H163 0.962 . S
C150 H164 0.960 . S
C151 C148 1.511 . S
C151 H165 0.961 . S
C151 H166 0.961 . S
C151 H167 0.961 . S
C152 C153 1.370 . S
C152 C154 1.363 . S
C152 H168 0.931 . S
C153 C152 1.370 . S
C153 C157 1.408 . S
C154 C152 1.363 . S
C154 C155 1.370 . S
C154 C158 1.524 . S
C155 C147 1.503 1_545 S
C155 C154 1.370 . S
C155 C156 1.403 1_545 S
C156 C155 1.403 1_565 S
C156 C157 1.404 1_565 S
C156 C159 1.539 . S
C157 C153 1.408 . S
C157 C156 1.404 1_545 S
C157 H169 0.930 1_545 S
C158 C154 1.524 . S
C158 H170 0.956 . S
C158 H171 0.961 . S
C158 H172 0.961 . S
C159 C156 1.539 . S
C159 H173 0.958 . S
C159 H174 0.961 . S
C159 H175 0.960 . S
H160 C144 0.931 . S
H161 C149 0.929 . S
H162 C150 0.960 . S
H163 C150 0.962 . S
H164 C150 0.960 . S
H165 C151 0.961 . S
H166 C151 0.961 . S
H167 C151 0.961 . S
H168 C152 0.931 . S
H169 C157 0.930 1_565 S
H170 C158 0.956 . S
H171 C158 0.961 . S
H172 C158 0.961 . S
H173 C159 0.958 . S
H174 C159 0.961 . S
H175 C159 0.960 . S
C176 C177 1.391 . S
C176 C178 1.394 . S
C176 H192 0.931 . S
C177 C176 1.391 . S
C177 C181 1.376 . S
C178 C176 1.394 . S
C178 C179 1.369 . S
C178 C182 1.531 1_655 S
C179 C178 1.369 . S
C179 C180 1.410 . S
C179 C187 1.503 1_655 S
C180 C179 1.410 . S
C180 C181 1.392 . S
C180 C183 1.511 . S
C181 C177 1.376 . S
C181 C180 1.392 . S
C181 H193 0.929 . S
C182 C178 1.531 1_455 S
C182 H194 0.960 . S
C182 H195 0.962 . S
C182 H196 0.967 . S
C183 C180 1.511 . S
C183 H197 0.961 . S
C183 H198 0.961 . S
C183 H199 0.961 . S
C184 C185 1.370 . S
C184 C186 1.363 . S
C184 H200 0.931 . S
C185 C184 1.370 . S
C185 C189 1.408 1_455 S
C186 C184 1.363 . S
C186 C187 1.373 . S
C186 C190 1.524 . S
C187 C179 1.503 1_455 S
C187 C186 1.373 . S
C187 C188 1.401 1_455 S
C188 C187 1.401 1_655 S
C188 C189 1.404 . S
C188 C191 1.539 . S
C189 C185 1.408 1_655 S
C189 C188 1.404 . S
C189 H201 0.930 . S
C190 C186 1.524 . S
C190 H202 0.956 . S
C190 H203 0.961 . S
C190 H204 0.961 . S
C191 C188 1.539 . S
C191 H205 0.958 . S
C191 H206 0.961 . S
C191 H207 0.960 . S
H192 C176 0.931 . S
H193 C181 0.929 . S
H194 C182 0.960 . S
H195 C182 0.962 . S
H196 C182 0.967 . S
H197 C183 0.961 . S
H198 C183 0.961 . S
H199 C183 0.961 . S
H200 C184 0.931 . S
H201 C189 0.930 . S
H202 C190 0.956 . S
H203 C190 0.961 . S
H204 C190 0.961 . S
H205 C191 0.958 . S
H206 C191 0.961 . S
H207 C191 0.960 . S
C208 C209 1.391 . S
C208 C210 1.394 1_545 S
C208 H224 0.931 1_545 S
C209 C208 1.391 . S
C209 C213 1.376 . S
C210 C208 1.394 1_565 S
C210 C211 1.369 . S
C210 C214 1.531 . S
C211 C210 1.369 . S
C211 C212 1.410 1_565 S
C211 C219 1.503 . S
C212 C211 1.410 1_545 S
C212 C213 1.392 . S
C212 C215 1.511 . S
C213 C209 1.376 . S
C213 C212 1.392 . S
C213 H225 0.929 . S
C214 C210 1.531 . S
C214 H226 0.960 . S
C214 H227 0.962 . S
C214 H228 0.960 . S
C215 C212 1.511 . S
C215 H229 0.961 . S
C215 H230 0.961 . S
C215 H231 0.961 . S
C216 C217 1.370 1_545 S
C216 C218 1.363 . S
C216 H232 0.931 . S
C217 C216 1.370 1_565 S
C217 C221 1.408 . S
C218 C216 1.363 . S
C218 C219 1.370 1_545 S
C218 C222 1.524 . S
C219 C211 1.503 . S
C219 C218 1.370 1_565 S
C219 C220 1.403 . S
C220 C219 1.403 . S
C220 C221 1.404 . S
C220 C223 1.539 . S
C221 C217 1.408 . S
C221 C220 1.404 . S
C221 H233 0.930 . S
C222 C218 1.524 . S
C222 H234 0.956 . S
C222 H235 0.961 . S
C222 H236 0.961 . S
C223 C220 1.539 . S
C223 H237 0.958 . S
C223 H238 0.961 . S
C223 H239 0.960 . S
H224 C208 0.931 1_565 S
H225 C213 0.929 . S
H226 C214 0.960 . S
H227 C214 0.962 . S
H228 C214 0.960 . S
H229 C215 0.961 . S
H230 C215 0.961 . S
H231 C215 0.961 . S
H232 C216 0.931 . S
H233 C221 0.930 . S
H234 C222 0.956 . S
H235 C222 0.961 . S
H236 C222 0.961 . S
H237 C223 0.958 . S
H238 C223 0.961 . S
H239 C223 0.960 . S
C240 C241 1.391 . S
C240 C242 1.394 . S
C240 H256 0.931 . S
C241 C240 1.391 . S
C241 C245 1.376 . S
C242 C240 1.394 . S
C242 C243 1.369 . S
C242 C246 1.531 1_556 S
C243 C242 1.369 . S
C243 C244 1.410 1_655 S
C243 C251 1.503 1_656 S
C244 C243 1.410 1_455 S
C244 C245 1.392 1_455 S
C244 C247 1.511 . S
C245 C241 1.376 . S
C245 C244 1.392 1_655 S
C245 H257 0.929 . S
C246 C242 1.531 1_554 S
C246 H258 0.960 . S
C246 H259 0.962 . S
C246 H260 0.960 . S
C247 C244 1.511 . S
C247 H261 0.961 . S
C247 H262 0.961 . S
C247 H263 0.961 . S
C248 C249 1.370 . S
C248 C250 1.363 . S
C248 H264 0.931 . S
C249 C248 1.370 . S
C249 C253 1.408 . S
C250 C248 1.363 . S
C250 C251 1.370 . S
C250 C254 1.524 . S
C251 C243 1.503 1_454 S
C251 C250 1.370 . S
C251 C252 1.403 . S
C252 C251 1.403 . S
C252 C253 1.404 . S
C252 C255 1.539 . S
C253 C249 1.408 . S
C253 C252 1.404 . S
C253 H265 0.930 . S
C254 C250 1.524 . S
C254 H266 0.956 1_455 S
C254 H267 0.961 1_554 S
C254 H268 0.961 . S
C255 C252 1.539 . S
C255 H269 0.958 1_455 S
C255 H270 0.961 . S
C255 H271 0.960 1_554 S
H256 C240 0.931 . S
H257 C245 0.929 . S
H258 C246 0.960 . S
H259 C246 0.962 . S
H260 C246 0.960 . S
H261 C247 0.961 . S
H262 C247 0.961 . S
H263 C247 0.961 . S
H264 C248 0.931 . S
H265 C253 0.930 . S
H266 C254 0.956 1_655 S
H267 C254 0.961 1_556 S
H268 C254 0.961 . S
H269 C255 0.958 1_655 S
H270 C255 0.961 . S
H271 C255 0.960 1_556 S
C272 C273 1.391 . S
C272 C274 1.394 . S
C272 H288 0.931 . S
C273 C272 1.391 . S
C273 C277 1.376 . S
C274 C272 1.394 . S
C274 C275 1.369 . S
C274 C278 1.531 . S
C275 C274 1.369 . S
C275 C276 1.410 . S
C275 C283 1.503 1_545 S
C276 C275 1.410 . S
C276 C277 1.392 . S
C276 C279 1.511 1_545 S
C277 C273 1.376 . S
C277 C276 1.392 . S
C277 H289 0.929 . S
C278 C274 1.531 . S
C278 H290 0.960 . S
C278 H291 0.962 . S
C278 H292 0.960 . S
C279 C276 1.511 1_565 S
C279 H293 0.961 . S
C279 H294 0.961 . S
C279 H295 0.961 . S
C280 C281 1.370 . S
C280 C282 1.363 . S
C280 H296 0.931 . S
C281 C280 1.370 . S
C281 C285 1.408 . S
C282 C280 1.363 . S
C282 C283 1.370 . S
C282 C286 1.524 . S
C283 C275 1.503 1_565 S
C283 C282 1.370 . S
C283 C284 1.403 . S
C284 C283 1.403 . S
C284 C285 1.404 . S
C284 C287 1.539 1_565 S
C285 C281 1.408 . S
C285 C284 1.404 . S
C285 H297 0.930 . S
C286 C282 1.524 . S
C286 H298 0.956 . S
C286 H299 0.961 . S
C286 H300 0.961 . S
C287 C284 1.539 1_545 S
C287 H301 0.958 . S
C287 H302 0.961 . S
C287 H303 0.960 . S
H288 C272 0.931 . S
H289 C277 0.929 . S
H290 C278 0.960 . S
H291 C278 0.962 . S
H292 C278 0.960 . S
H293 C279 0.961 . S
H294 C279 0.961 . S
H295 C279 0.961 . S
H296 C280 0.931 . S
H297 C285 0.930 . S
H298 C286 0.956 . S
H299 C286 0.961 . S
H300 C286 0.961 . S
H301 C287 0.958 . S
H302 C287 0.961 . S
H303 C287 0.960 . S
C304 C305 1.391 . S
C304 C306 1.394 . S
C304 H320 0.931 . S
C305 C304 1.391 . S
C305 C309 1.376 . S
C306 C304 1.394 . S
C306 C307 1.369 . S
C306 C310 1.531 1_554 S
C307 C306 1.369 . S
C307 C308 1.410 1_655 S
C307 C315 1.503 1_654 S
C308 C307 1.410 1_455 S
C308 C309 1.392 1_455 S
C308 C311 1.511 . S
C309 C305 1.376 . S
C309 C308 1.392 1_655 S
C309 H321 0.929 . S
C310 C306 1.531 1_556 S
C310 H322 0.960 . S
C310 H323 0.962 . S
C310 H324 0.960 . S
C311 C308 1.511 . S
C311 H325 0.961 . S
C311 H326 0.961 . S
C311 H327 0.961 . S
C312 C313 1.370 . S
C312 C314 1.363 . S
C312 H328 0.931 . S
C313 C312 1.370 . S
C313 C317 1.408 . S
C314 C312 1.363 . S
C314 C315 1.370 . S
C314 C318 1.524 1_455 S
C315 C307 1.503 1_456 S
C315 C314 1.370 . S
C315 C316 1.403 . S
C316 C315 1.403 . S
C316 C317 1.404 . S
C316 C319 1.539 1_556 S
C317 C313 1.408 . S
C317 C316 1.404 . S
C317 H329 0.930 . S
C318 C314 1.524 1_655 S
C318 H330 0.956 . S
C318 H331 0.961 . S
C318 H332 0.961 . S
C319 C316 1.539 1_554 S
C319 H333 0.959 1_554 S
C319 H334 0.961 . S
C319 H335 0.960 . S
H320 C304 0.931 . S
H321 C309 0.929 . S
H322 C310 0.960 . S
H323 C310 0.962 . S
H324 C310 0.960 . S
H325 C311 0.961 . S
H326 C311 0.961 . S
H327 C311 0.961 . S
H328 C312 0.931 . S
H329 C317 0.930 . S
H330 C318 0.956 . S
H331 C318 0.961 . S
H332 C318 0.961 . S
H333 C319 0.959 1_556 S
H334 C319 0.961 . S
H335 C319 0.960 . S
C336 C337 1.391 . S
C336 C338 1.394 . S
C336 H352 0.931 . S
C337 C336 1.391 . S
C337 C341 1.376 . S
C338 C336 1.394 . S
C338 C339 1.369 . S
C338 C342 1.531 . S
C339 C338 1.369 . S
C339 C340 1.410 . S
C339 C347 1.503 1_545 S
C340 C339 1.410 . S
C340 C341 1.392 . S
C340 C343 1.511 . S
C341 C337 1.376 . S
C341 C340 1.392 . S
C341 H353 0.929 . S
C342 C338 1.531 . S
C342 H354 0.960 . S
C342 H355 0.962 . S
C342 H356 0.960 . S
C343 C340 1.511 . S
C343 H357 0.961 1_545 S
C343 H358 0.961 1_545 S
C343 H359 0.961 . S
C344 C345 1.370 . S
C344 C346 1.363 . S
C344 H360 0.931 . S
C345 C344 1.370 . S
C345 C349 1.408 . S
C346 C344 1.363 . S
C346 C347 1.370 . S
C346 C350 1.524 . S
C347 C339 1.503 1_565 S
C347 C346 1.370 . S
C347 C348 1.403 1_565 S
C348 C347 1.403 1_545 S
C348 C349 1.404 1_545 S
C348 C351 1.539 . S
C349 C345 1.408 . S
C349 C348 1.404 1_565 S
C349 H361 0.930 . S
C350 C346 1.524 . S
C350 H362 0.956 . S
C350 H363 0.961 . S
C350 H364 0.961 . S
C351 C348 1.539 . S
C351 H365 0.958 . S
C351 H366 0.961 . S
C351 H367 0.960 . S
H352 C336 0.931 . S
H353 C341 0.929 . S
H354 C342 0.960 . S
H355 C342 0.962 . S
H356 C342 0.960 . S
H357 C343 0.961 1_565 S
H358 C343 0.961 1_565 S
H359 C343 0.961 . S
H360 C344 0.931 . S
H361 C349 0.930 . S
H362 C350 0.956 . S
H363 C350 0.961 . S
H364 C350 0.961 . S
H365 C351 0.958 . S
H366 C351 0.961 . S
H367 C351 0.960 . S
C368 C369 1.391 . S
C368 C370 1.394 . S
C368 H384 0.931 . S
C369 C368 1.391 . S
C369 C373 1.376 . S
C370 C368 1.394 . S
C370 C371 1.369 . S
C370 C374 1.531 . S
C371 C370 1.369 . S
C371 C372 1.410 . S
C371 C379 1.503 . S
C372 C371 1.410 . S
C372 C373 1.392 . S
C372 C375 1.511 . S
C373 C369 1.376 . S
C373 C372 1.392 . S
C373 H385 0.929 . S
C374 C370 1.531 . S
C374 H386 0.960 . S
C374 H387 0.962 . S
C374 H388 0.960 . S
C375 C372 1.511 . S
C375 H389 0.961 . S
C375 H390 0.961 . S
C375 H391 0.961 . S
C376 C377 1.370 . S
C376 C378 1.363 . S
C376 H392 0.931 . S
C377 C376 1.370 . S
C377 C381 1.408 . S
C378 C376 1.363 . S
C378 C379 1.370 . S
C378 C382 1.524 . S
C379 C371 1.503 . S
C379 C378 1.370 . S
C379 C380 1.403 . S
C380 C379 1.403 . S
C380 C381 1.404 . S
C380 C383 1.539 . S
C381 C377 1.408 . S
C381 C380 1.404 . S
C381 H393 0.930 . S
C382 C378 1.524 . S
C382 H394 0.956 . S
C382 H395 0.961 . S
C382 H396 0.961 . S
C383 C380 1.539 . S
C383 H397 0.958 . S
C383 H398 0.961 . S
C383 H399 0.960 . S
H384 C368 0.931 . S
H385 C373 0.929 . S
H386 C374 0.960 . S
H387 C374 0.962 . S
H388 C374 0.960 . S
H389 C375 0.961 . S
H390 C375 0.961 . S
H391 C375 0.961 . S
H392 C376 0.931 . S
H393 C381 0.930 . S
H394 C382 0.956 . S
H395 C382 0.961 . S
H396 C382 0.961 . S
H397 C383 0.958 . S
H398 C383 0.961 . S
H399 C383 0.960 . S
C400 C401 1.391 . S
C400 C402 1.394 . S
C400 H416 0.931 . S
C401 C400 1.391 . S
C401 C405 1.376 . S
C402 C400 1.394 . S
C402 C403 1.369 . S
C402 C406 1.531 . S
C403 C402 1.369 . S
C403 C404 1.410 . S
C403 C411 1.503 . S
C404 C403 1.410 . S
C404 C405 1.392 . S
C404 C407 1.511 . S
C405 C401 1.376 . S
C405 C404 1.392 . S
C405 H417 0.929 . S
C406 C402 1.531 . S
C406 H418 0.960 . S
C406 H419 0.962 . S
C406 H420 0.960 . S
C407 C404 1.511 . S
C407 H421 0.961 . S
C407 H422 0.961 . S
C407 H423 0.961 . S
C408 C409 1.370 . S
C408 C410 1.363 . S
C408 H424 0.931 . S
C409 C408 1.370 . S
C409 C413 1.408 . S
C410 C408 1.363 . S
C410 C411 1.370 . S
C410 C414 1.524 . S
C411 C403 1.503 . S
C411 C410 1.370 . S
C411 C412 1.403 . S
C412 C411 1.403 . S
C412 C413 1.404 . S
C412 C415 1.539 . S
C413 C409 1.408 . S
C413 C412 1.404 . S
C413 H425 0.930 . S
C414 C410 1.524 . S
C414 H426 0.956 . S
C414 H427 0.961 . S
C414 H428 0.961 . S
C415 C412 1.539 . S
C415 H429 0.958 . S
C415 H430 0.961 . S
C415 H431 0.960 . S
H416 C400 0.931 . S
H417 C405 0.929 . S
H418 C406 0.960 . S
H419 C406 0.962 . S
H420 C406 0.960 . S
H421 C407 0.961 . S
H422 C407 0.961 . S
H423 C407 0.961 . S
H424 C408 0.931 . S
H425 C413 0.930 . S
H426 C414 0.956 . S
H427 C414 0.961 . S
H428 C414 0.961 . S
H429 C415 0.958 . S
H430 C415 0.961 . S
H431 C415 0.960 . S
C432 C433 1.391 . S
C432 C434 1.394 . S
C432 H448 0.931 . S
C433 C432 1.391 . S
C433 C437 1.376 . S
C434 C432 1.394 . S
C434 C435 1.369 . S
C434 C438 1.531 . S
C435 C434 1.369 . S
C435 C436 1.410 . S
C435 C443 1.503 . S
C436 C435 1.410 . S
C436 C437 1.392 . S
C436 C439 1.511 . S
C437 C433 1.376 . S
C437 C436 1.392 . S
C437 H449 0.929 . S
C438 C434 1.531 . S
C438 H450 0.960 . S
C438 H451 0.962 . S
C438 H452 0.960 . S
C439 C436 1.511 . S
C439 H453 0.961 . S
C439 H454 0.961 . S
C439 H455 0.961 . S
C440 C441 1.370 . S
C440 C442 1.363 . S
C440 H456 0.931 . S
C441 C440 1.370 . S
C441 C445 1.408 . S
C442 C440 1.363 . S
C442 C443 1.370 . S
C442 C446 1.524 . S
C443 C435 1.503 . S
C443 C442 1.370 . S
C443 C444 1.403 . S
C444 C443 1.403 . S
C444 C445 1.404 . S
C444 C447 1.539 . S
C445 C441 1.408 . S
C445 C444 1.404 . S
C445 H457 0.930 . S
C446 C442 1.524 . S
C446 H458 0.956 . S
C446 H459 0.961 . S
C446 H460 0.961 . S
C447 C444 1.539 . S
C447 H461 0.958 . S
C447 H462 0.961 . S
C447 H463 0.960 . S
H448 C432 0.931 . S
H449 C437 0.929 . S
H450 C438 0.960 . S
H451 C438 0.962 . S
H452 C438 0.960 . S
H453 C439 0.961 . S
H454 C439 0.961 . S
H455 C439 0.961 . S
H456 C440 0.931 . S
H457 C445 0.930 . S
H458 C446 0.956 . S
H459 C446 0.961 . S
H460 C446 0.961 . S
H461 C447 0.958 . S
H462 C447 0.961 . S
H463 C447 0.960 . S
C464 C465 1.391 . S
C464 C466 1.394 . S
C464 H480 0.931 . S
C465 C464 1.391 . S
C465 C469 1.376 . S
C466 C464 1.394 . S
C466 C467 1.369 . S
C466 C470 1.531 . S
C467 C466 1.369 . S
C467 C468 1.410 . S
C467 C475 1.503 . S
C468 C467 1.410 . S
C468 C469 1.392 . S
C468 C471 1.511 . S
C469 C465 1.376 . S
C469 C468 1.392 . S
C469 H481 0.929 . S
C470 C466 1.531 . S
C470 H482 0.960 . S
C470 H483 0.962 . S
C470 H484 0.960 . S
C471 C468 1.511 . S
C471 H485 0.961 . S
C471 H486 0.961 . S
C471 H487 0.961 . S
C472 C473 1.370 . S
C472 C474 1.363 . S
C472 H488 0.931 . S
C473 C472 1.370 . S
C473 C477 1.408 . S
C474 C472 1.363 . S
C474 C475 1.370 . S
C474 C478 1.524 . S
C475 C467 1.503 . S
C475 C474 1.370 . S
C475 C476 1.403 . S
C476 C475 1.403 . S
C476 C477 1.404 . S
C476 C479 1.539 . S
C477 C473 1.408 . S
C477 C476 1.404 . S
C477 H489 0.930 . S
C478 C474 1.524 . S
C478 H490 0.956 . S
C478 H491 0.961 . S
C478 H492 0.961 . S
C479 C476 1.539 . S
C479 H493 0.958 . S
C479 H494 0.961 . S
C479 H495 0.960 . S
H480 C464 0.931 . S
H481 C469 0.929 . S
H482 C470 0.960 . S
H483 C470 0.962 . S
H484 C470 0.960 . S
H485 C471 0.961 . S
H486 C471 0.961 . S
H487 C471 0.961 . S
H488 C472 0.931 . S
H489 C477 0.930 . S
H490 C478 0.956 . S
H491 C478 0.961 . S
H492 C478 0.961 . S
H493 C479 0.958 . S
H494 C479 0.961 . S
H495 C479 0.960 . S
C496 C497 1.391 . S
C496 C498 1.394 . S
C496 H512 0.931 . S
C497 C496 1.391 . S
C497 C501 1.376 1_455 S
C498 C496 1.394 . S
C498 C499 1.369 . S
C498 C502 1.531 1_545 S
C499 C498 1.369 . S
C499 C500 1.410 1_455 S
C499 C507 1.503 1_445 S
C500 C499 1.410 1_655 S
C500 C501 1.392 . S
C500 C503 1.511 . S
C501 C497 1.376 1_655 S
C501 C500 1.392 . S
C501 H513 0.929 . S
C502 C498 1.531 1_565 S
C502 H514 0.960 . S
C502 H515 0.962 . S
C502 H516 0.960 1_565 S
C503 C500 1.511 . S
C503 H517 0.961 . S
C503 H518 0.961 . S
C503 H519 0.961 . S
C504 C505 1.370 . S
C504 C506 1.363 . S
C504 H520 0.931 . S
C505 C504 1.370 . S
C505 C509 1.408 . S
C506 C504 1.363 . S
C506 C507 1.370 . S
C506 C510 1.524 1_655 S
C507 C499 1.503 1_665 S
C507 C506 1.370 . S
C507 C508 1.403 . S
C508 C507 1.403 . S
C508 C509 1.404 . S
C508 C511 1.539 . S
C509 C505 1.408 . S
C509 C508 1.404 . S
C509 H521 0.930 . S
C510 C506 1.524 1_455 S
C510 H522 0.956 . S
C510 H523 0.961 1_465 S
C510 H524 0.961 . S
C511 C508 1.539 . S
C511 H525 0.958 . S
C511 H526 0.961 . S
C511 H527 0.960 1_565 S
H512 C496 0.931 . S
H513 C501 0.929 . S
H514 C502 0.960 . S
H515 C502 0.962 . S
H516 C502 0.960 1_545 S
H517 C503 0.961 . S
H518 C503 0.961 . S
H519 C503 0.961 . S
H520 C504 0.931 . S
H521 C509 0.930 . S
H522 C510 0.956 . S
H523 C510 0.961 1_645 S
H524 C510 0.961 . S
H525 C511 0.958 . S
H526 C511 0.961 . S
H527 C511 0.960 1_545 S
C528 C529 1.391 . S
C528 C530 1.394 . S
C528 H544 0.931 . S
C529 C528 1.391 . S
C529 C533 1.376 . S
C530 C528 1.394 . S
C530 C531 1.369 . S
C530 C534 1.530 1_455 S
C531 C530 1.369 . S
C531 C532 1.410 1_565 S
C531 C539 1.503 1_465 S
C532 C531 1.410 1_545 S
C532 C533 1.392 1_545 S
C532 C535 1.511 . S
C533 C529 1.376 . S
C533 C532 1.392 1_565 S
C533 H545 0.929 1_565 S
C534 C530 1.530 1_655 S
C534 H546 0.960 . S
C534 H547 0.962 . S
C534 H548 0.960 1_655 S
C535 C532 1.511 . S
C535 H549 0.961 . S
C535 H550 0.961 . S
C535 H551 0.961 . S
C536 C537 1.370 . S
C536 C538 1.363 . S
C536 H552 0.931 . S
C537 C536 1.370 . S
C537 C541 1.408 . S
C538 C536 1.363 . S
C538 C539 1.370 . S
C538 C542 1.524 . S
C539 C531 1.503 1_645 S
C539 C538 1.370 . S
C539 C540 1.403 1_545 S
C540 C539 1.403 1_565 S
C540 C541 1.404 1_565 S
C540 C543 1.539 . S
C541 C537 1.408 . S
C541 C540 1.404 1_545 S
C541 H553 0.930 1_545 S
C542 C538 1.524 . S
C542 H554 0.956 1_655 S
C542 H555 0.961 1_655 S
C542 H556 0.961 . S
C543 C540 1.539 . S
C543 H557 0.958 . S
C543 H558 0.961 . S
C543 H559 0.960 . S
H544 C528 0.931 . S
H545 C533 0.929 1_545 S
H546 C534 0.960 . S
H547 C534 0.962 . S
H548 C534 0.960 1_455 S
H549 C535 0.961 . S
H550 C535 0.961 . S
H551 C535 0.961 . S
H552 C536 0.931 . S
H553 C541 0.930 1_565 S
H554 C542 0.956 1_455 S
H555 C542 0.961 1_455 S
H556 C542 0.961 . S
H557 C543 0.958 . S
H558 C543 0.961 . S
H559 C543 0.960 . S
C560 C561 1.391 . S
C560 C562 1.394 . S
C560 H576 0.931 . S
C561 C560 1.391 . S
C561 C565 1.376 1_655 S
C562 C560 1.394 . S
C562 C563 1.369 . S
C562 C566 1.531 . S
C563 C562 1.369 . S
C563 C564 1.410 1_655 S
C563 C571 1.503 1_645 S
C564 C563 1.410 1_455 S
C564 C565 1.392 . S
C564 C567 1.511 . S
C565 C561 1.376 1_455 S
C565 C564 1.392 . S
C565 H577 0.929 . S
C566 C562 1.531 . S
C566 H578 0.960 1_545 S
C566 H579 0.962 1_545 S
C566 H580 0.960 . S
C567 C564 1.511 . S
C567 H581 0.961 . S
C567 H582 0.961 . S
C567 H583 0.961 . S
C568 C569 1.370 . S
C568 C570 1.363 1_455 S
C568 H584 0.933 . S
C569 C568 1.370 . S
C569 C573 1.408 . S
C570 C568 1.363 1_655 S
C570 C571 1.370 1_655 S
C570 C574 1.524 . S
C571 C563 1.503 1_465 S
C571 C570 1.370 1_455 S
C571 C572 1.403 . S
C572 C571 1.403 . S
C572 C573 1.404 . S
C572 C575 1.539 . S
C573 C569 1.408 . S
C573 C572 1.404 . S
C573 H585 0.930 . S
C574 C570 1.524 . S
C574 H586 0.956 . S
C574 H587 0.961 . S
C574 H588 0.961 . S
C575 C572 1.539 . S
C575 H589 0.958 . S
C575 H590 0.961 . S
C575 H591 0.960 1_565 S
H576 C560 0.931 . S
H577 C565 0.929 . S
H578 C566 0.960 1_565 S
H579 C566 0.962 1_565 S
H580 C566 0.960 . S
H581 C567 0.961 . S
H582 C567 0.961 . S
H583 C567 0.961 . S
H584 C568 0.933 . S
H585 C573 0.930 . S
H586 C574 0.956 . S
H587 C574 0.961 . S
H588 C574 0.961 . S
H589 C575 0.958 . S
H590 C575 0.961 . S
H591 C575 0.960 1_545 S
C592 C593 1.391 . S
C592 C594 1.394 . S
C592 H608 0.931 . S
C593 C592 1.391 . S
C593 C597 1.376 . S
C594 C592 1.394 . S
C594 C595 1.369 . S
C594 C598 1.531 . S
C595 C594 1.369 . S
C595 C596 1.410 . S
C595 C603 1.497 1_665 S
C596 C595 1.410 . S
C596 C597 1.392 . S
C596 C599 1.511 1_565 S
C597 C593 1.376 . S
C597 C596 1.392 . S
C597 H609 0.929 . S
C598 C594 1.531 . S
C598 H610 0.960 1_655 S
C598 H611 0.962 . S
C598 H612 0.960 . S
C599 C596 1.511 1_545 S
C599 H613 0.961 . S
C599 H614 0.961 . S
C599 H615 0.961 1_545 S
C600 C601 1.370 . S
C600 C602 1.363 . S
C600 H616 0.931 . S
C601 C600 1.370 . S
C601 C605 1.408 1_545 S
C602 C600 1.363 . S
C602 C603 1.388 . S
C602 C606 1.524 1_455 S
C603 C595 1.497 1_445 S
C603 C602 1.388 . S
C603 C604 1.392 1_545 S
C604 C603 1.392 1_565 S
C604 C605 1.404 . S
C604 C607 1.539 . S
C605 C601 1.408 1_565 S
C605 C604 1.404 . S
C605 H617 0.930 . S
C606 C602 1.524 1_655 S
C606 H618 0.956 . S
C606 H619 0.961 . S
C606 H620 0.961 1_655 S
C607 C604 1.539 . S
C607 H621 0.958 . S
C607 H622 0.961 . S
C607 H623 0.960 . S
H608 C592 0.931 . S
H609 C597 0.929 . S
H610 C598 0.960 1_455 S
H611 C598 0.962 . S
H612 C598 0.960 . S
H613 C599 0.961 . S
H614 C599 0.961 . S
H615 C599 0.961 1_565 S
H616 C600 0.931 . S
H617 C605 0.930 . S
H618 C606 0.956 . S
H619 C606 0.961 . S
H620 C606 0.961 1_455 S
H621 C607 0.958 . S
H622 C607 0.961 . S
H623 C607 0.960 . S
C113 C6 1.450 . S
C121 C34 1.470 . S
C145 C49 1.483 . S
C153 C21 1.467 . S
C177 C90 1.485 . S
C185 C62 1.462 . S
C209 C77 1.454 . S
C217 C105 1.477 . S
C241 C92 1.383 . S
C249 C8 1.386 . S
C273 C23 1.425 . S
C281 C107 1.364 . S
C305 C36 1.355 . S
C313 C64 1.395 . S
C337 C79 1.429 . S
C345 C51 1.358 . S
C369 C7 1.632 . S
C377 C76 1.646 . S
C401 C91 1.639 . S
C409 C20 1.645 . S
C433 C104 1.632 . S
C441 C35 1.646 . S
C465 C48 1.660 . S
C473 C63 1.656 . S
C497 C9 1.255 . S
C505 C37 1.249 . S
C529 C50 1.228 . S
C537 C22 1.261 . S
C561 C93 1.265 . S
C569 C65 1.246 . S
C593 C106 1.221 . S
C601 C78 1.267 . S
