# Generated by pormake.
# Topology umz, (4)-cn, num edge types: 1
# Building blocks:
#     Node 0, Type 0, BuildingBlock: AZAVOO_clean_sbu_0, # of connection points: 4
#     Node 1, Type 0, BuildingBlock: AZAVOO_clean_sbu_0, # of connection points: 4
#     Node 2, Type 0, BuildingBlock: AZAVOO_clean_sbu_0, # of connection points: 4
#     Node 3, Type 0, BuildingBlock: AZAVOO_clean_sbu_0, # of connection points: 4
#     Node 4, Type 0, BuildingBlock: AZAVOO_clean_sbu_0, # of connection points: 4
#     Node 5, Type 0, BuildingBlock: AZAVOO_clean_sbu_0, # of connection points: 4
#     Node 6, Type 0, BuildingBlock: AZAVOO_clean_sbu_0, # of connection points: 4
#     Node 7, Type 0, BuildingBlock: AZAVOO_clean_sbu_0, # of connection points: 4
#     Node 8, Type 0, BuildingBlock: AZAVOO_clean_sbu_0, # of connection points: 4
#     Node 9, Type 0, BuildingBlock: AZAVOO_clean_sbu_0, # of connection points: 4
#     Node 10, Type 0, BuildingBlock: AZAVOO_clean_sbu_0, # of connection points: 4
#     Node 11, Type 0, BuildingBlock: AZAVOO_clean_sbu_0, # of connection points: 4
#     Node 12, Type 0, BuildingBlock: AZAVOO_clean_sbu_0, # of connection points: 4
#     Node 13, Type 0, BuildingBlock: AZAVOO_clean_sbu_0, # of connection points: 4
#     Node 14, Type 0, BuildingBlock: AZAVOO_clean_sbu_0, # of connection points: 4
#     Node 15, Type 0, BuildingBlock: AZAVOO_clean_sbu_0, # of connection points: 4
#     Edge 16, Type (0, 0), BuildingBlock: UVAHIK_clean_linker_0, # of connection points: 2
#     Edge 17, Type (0, 0), BuildingBlock: UVAHIK_clean_linker_0, # of connection points: 2
#     Edge 18, Type (0, 0), BuildingBlock: UVAHIK_clean_linker_0, # of connection points: 2
#     Edge 19, Type (0, 0), BuildingBlock: UVAHIK_clean_linker_0, # of connection points: 2
#     Edge 20, Type (0, 0), BuildingBlock: UVAHIK_clean_linker_0, # of connection points: 2
#     Edge 21, Type (0, 0), BuildingBlock: UVAHIK_clean_linker_0, # of connection points: 2
#     Edge 22, Type (0, 0), BuildingBlock: UVAHIK_clean_linker_0, # of connection points: 2
#     Edge 23, Type (0, 0), BuildingBlock: UVAHIK_clean_linker_0, # of connection points: 2
#     Edge 24, Type (0, 0), BuildingBlock: UVAHIK_clean_linker_0, # of connection points: 2
#     Edge 25, Type (0, 0), BuildingBlock: UVAHIK_clean_linker_0, # of connection points: 2
#     Edge 26, Type (0, 0), BuildingBlock: UVAHIK_clean_linker_0, # of connection points: 2
#     Edge 27, Type (0, 0), BuildingBlock: UVAHIK_clean_linker_0, # of connection points: 2
#     Edge 28, Type (0, 0), BuildingBlock: UVAHIK_clean_linker_0, # of connection points: 2
#     Edge 29, Type (0, 0), BuildingBlock: UVAHIK_clean_linker_0, # of connection points: 2
#     Edge 30, Type (0, 0), BuildingBlock: UVAHIK_clean_linker_0, # of connection points: 2
#     Edge 31, Type (0, 0), BuildingBlock: UVAHIK_clean_linker_0, # of connection points: 2
#     Edge 32, Type (0, 0), BuildingBlock: UVAHIK_clean_linker_0, # of connection points: 2
#     Edge 33, Type (0, 0), BuildingBlock: UVAHIK_clean_linker_0, # of connection points: 2
#     Edge 34, Type (0, 0), BuildingBlock: UVAHIK_clean_linker_0, # of connection points: 2
#     Edge 35, Type (0, 0), BuildingBlock: UVAHIK_clean_linker_0, # of connection points: 2
#     Edge 36, Type (0, 0), BuildingBlock: UVAHIK_clean_linker_0, # of connection points: 2
#     Edge 37, Type (0, 0), BuildingBlock: UVAHIK_clean_linker_0, # of connection points: 2
#     Edge 38, Type (0, 0), BuildingBlock: UVAHIK_clean_linker_0, # of connection points: 2
#     Edge 39, Type (0, 0), BuildingBlock: UVAHIK_clean_linker_0, # of connection points: 2
#     Edge 40, Type (0, 0), BuildingBlock: UVAHIK_clean_linker_0, # of connection points: 2
#     Edge 41, Type (0, 0), BuildingBlock: UVAHIK_clean_linker_0, # of connection points: 2
#     Edge 42, Type (0, 0), BuildingBlock: UVAHIK_clean_linker_0, # of connection points: 2
#     Edge 43, Type (0, 0), BuildingBlock: UVAHIK_clean_linker_0, # of connection points: 2
#     Edge 44, Type (0, 0), BuildingBlock: UVAHIK_clean_linker_0, # of connection points: 2
#     Edge 45, Type (0, 0), BuildingBlock: UVAHIK_clean_linker_0, # of connection points: 2
#     Edge 46, Type (0, 0), BuildingBlock: UVAHIK_clean_linker_0, # of connection points: 2
#     Edge 47, Type (0, 0), BuildingBlock: UVAHIK_clean_linker_0, # of connection points: 2
# Relax obj value: 0.270
# Max RMSD: 0.181
# Mean RMSD: 0.181
data_MOF--net-umz--node1-AZAVOO_clean_sbu_0--edge1-UVAHIK_clean_linker_0
_symmetry_space_group_name_H-M    P1
_symmetry_Int_Tables_number       1
_symmetry_cell_setting            triclinic
loop_
_symmetry_equiv_pos_as_xyz
'x, y, z'
_cell_length_a     78.251487
_cell_length_b     78.220104
_cell_length_c     26.450127
_cell_angle_alpha  90.053535
_cell_angle_beta   89.940258
_cell_angle_gamma 89.940641
loop_
_atom_site_label
_atom_site_type_symbol
_atom_site_fract_x
_atom_site_fract_y
_atom_site_fract_z
_atom_type_partial_charge
Mg0 Mg 0.98485 0.61916 0.95152 0.0
O1 O 0.00555 0.60896 0.00412 0.0
O2 O 0.03137 0.61536 0.9741 0.0
Mg3 Mg 0.02697 0.6308 0.90154 0.0
C4 C 0.02179 0.60835 0.00717 0.0
C5 C 0.95679 0.60053 0.01802 0.0
O6 O 0.95726 0.58949 0.98058 0.0
O7 O 0.98885 0.64656 0.97918 0.0
O8 O 0.01442 0.65272 0.94606 0.0
O9 O 0.98724 0.59498 0.90578 0.0
O10 O 0.00181 0.61858 0.89065 0.0
C11 C 0.00118 0.65693 0.97152 0.0
C12 C -0.00106 0.60281 0.88001 0.0
O13 O 0.96591 0.61395 0.01549 0.0
Mg14 Mg 0.87278 0.9895 0.43468 0.0
O15 O 0.88229 0.0099 0.4895 0.0
O16 O 0.87654 0.0359 0.45959 0.0
Mg17 Mg 0.86238 0.03192 0.38462 0.0
C18 C 0.88294 0.02613 0.49326 0.0
C19 C 0.88867 0.95885 0.49627 0.0
O20 O 0.89795 0.95737 0.45506 0.0
O21 O 0.84501 0.99371 0.45884 0.0
O22 O 0.83965 0.01937 0.42517 0.0
O23 O 0.89771 0.9916 0.39312 0.0
O24 O 0.87472 0.00672 0.37468 0.0
C25 C 0.83486 0.00615 0.44975 0.0
C26 C 0.89064 0.00361 0.36674 0.0
O27 O 0.87703 0.97018 0.49805 0.0
Mg28 Mg 0.51307 0.87976 0.96099 0.0
O29 O 0.4911 0.88992 0.00836 0.0
O30 O 0.46584 0.88413 0.97392 0.0
Mg31 Mg 0.47214 0.86861 0.90238 0.0
C32 C 0.47487 0.89087 0.00874 0.0
C33 C 0.54544 0.88453 0.0378 0.0
O34 O 0.55552 0.87913 0.00138 0.0
O35 O 0.50823 0.85236 0.98776 0.0
O36 O 0.48335 0.84669 0.94964 0.0
O37 O 0.51184 0.904 0.91537 0.0
O38 O 0.49777 0.8804 0.89635 0.0
C39 C 0.49588 0.84223 0.97767 0.0
C40 C 0.50086 0.89621 0.88691 0.0
O41 O 0.52945 0.88563 0.03017 0.0
Mg42 Mg 0.61724 0.50911 0.44848 0.0
O43 O 0.60775 0.48759 0.49934 0.0
O44 O 0.61424 0.46216 0.46646 0.0
Mg45 Mg 0.62912 0.46773 0.39354 0.0
C46 C 0.60736 0.47131 0.5009 0.0
C47 C 0.60432 0.54136 0.5129 0.0
O48 O 0.5994 0.54738 0.46889 0.0
O49 O 0.64484 0.50511 0.47444 0.0
O50 O 0.651 0.47991 0.43877 0.0
O51 O 0.59276 0.50696 0.40452 0.0
O52 O 0.6164 0.49285 0.38597 0.0
C53 C 0.65523 0.49288 0.46536 0.0
C54 C 0.60048 0.49558 0.37714 0.0
O55 O 0.61194 0.52702 0.51485 0.0
Mg56 Mg 0.98115 0.87688 0.03435 0.0
O57 O 0.00368 0.88567 0.98612 0.0
O58 O 0.02819 0.88116 0.02706 0.0
Mg59 Mg 0.02121 0.8669 0.09988 0.0
C60 C 0.01989 0.88679 0.98905 0.0
C61 C 0.95235 0.89168 0.96318 0.0
O62 O 0.94862 0.90041 0.00421 0.0
O63 O 0.98611 0.84889 0.01366 0.0
O64 O 0.01053 0.84409 0.05525 0.0
O65 O 0.9821 0.90219 0.07529 0.0
O66 O 0.99578 0.87896 0.09978 0.0
C67 C -0.00166 0.83901 0.02686 0.0
C68 C 0.99273 0.89495 0.10609 0.0
O69 O 0.96443 0.88083 0.9646 0.0
Mg70 Mg 0.61773 0.98771 0.5706 0.0
O71 O 0.60545 0.00613 0.51393 0.0
O72 O 0.61197 0.03292 0.53522 0.0
Mg73 Mg 0.62872 0.03165 0.60592 0.0
C74 C 0.60447 0.0222 0.50641 0.0
C75 C 0.59695 0.96357 0.50037 0.0
O76 O 0.58462 0.97257 0.52118 0.0
O77 O 0.64421 0.99182 0.53627 0.0
O78 O 0.65023 0.01841 0.56152 0.0
O79 O 0.59463 0.99009 0.62059 0.0
O80 O 0.61729 0.00673 0.62637 0.0
C81 C 0.65434 0.00459 0.53879 0.0
C82 C 0.60205 0.00313 0.64127 0.0
O83 O 0.61226 0.96618 0.51442 0.0
Mg84 Mg 0.50672 0.62207 0.04449 0.0
O85 O 0.48697 0.61263 0.98771 0.0
O86 O 0.46068 0.61865 0.01482 0.0
Mg87 Mg 0.46379 0.63277 0.09033 0.0
C88 C 0.4708 0.61212 0.98222 0.0
C89 C 0.53443 0.60357 0.97782 0.0
O90 O 0.53177 0.5915 0.01141 0.0
O91 O 0.50299 0.64993 0.02033 0.0
O92 O 0.477 0.65546 0.05159 0.0
O93 O 0.50388 0.59722 0.08668 0.0
O94 O 0.48883 0.62045 0.10286 0.0
C95 C 0.49054 0.66017 0.02847 0.0
C96 C 0.49174 0.60458 0.11195 0.0
O97 O 0.52672 0.61779 0.98269 0.0
Mg98 Mg 0.87506 0.50475 0.54751 0.0
O99 O 0.88357 0.48388 0.49282 0.0
O100 O 0.87746 0.4581 0.52362 0.0
Mg101 Mg 0.86389 0.46277 0.59933 0.0
C102 C 0.88382 0.46764 0.48932 0.0
C103 C 0.88955 0.53615 0.48436 0.0
O104 O 0.89739 0.53974 0.52696 0.0
O105 O 0.84698 0.50131 0.52545 0.0
O106 O 0.84128 0.47582 0.55973 0.0
O107 O 0.90025 0.50192 0.58748 0.0
O108 O 0.87691 0.48767 0.60793 0.0
C109 C 0.83664 0.48912 0.53529 0.0
C110 C 0.89297 0.49024 0.61468 0.0
O111 O 0.87943 0.52347 0.48264 0.0
Mg112 Mg 0.00928 0.37325 0.04886 0.0
O113 O 0.98989 0.38257 0.9905 0.0
O114 O 0.96357 0.37542 0.01472 0.0
Mg115 Mg 0.96622 0.36078 0.0894 0.0
C116 C 0.97378 0.38254 0.98355 0.0
C117 C 0.03222 0.39428 0.97657 0.0
O118 O 0.023 0.40634 0.99793 0.0
O119 O 0.00687 0.34555 0.02162 0.0
O120 O 0.98079 0.33902 0.05028 0.0
O121 O 0.00511 0.39755 0.09301 0.0
O122 O 0.99062 0.37374 0.10527 0.0
C123 C 0.99468 0.33488 0.02794 0.0
C124 C 0.9929 0.38958 0.11617 0.0
O125 O 0.03012 0.37888 0.99064 0.0
Mg126 Mg 0.12015 0.00273 0.53516 0.0
O127 O 0.10791 0.9843 0.47883 0.0
O128 O 0.11367 0.95745 0.50108 0.0
Mg129 Mg 0.13011 0.95873 0.57254 0.0
C130 C 0.10656 0.96825 0.4717 0.0
C131 C 0.09975 0.02789 0.46724 0.0
O132 O 0.08737 0.02107 0.49404 0.0
O133 O 0.14691 -0.00193 0.50318 0.0
O134 O 0.15229 0.97156 0.53039 0.0
O135 O 0.09672 0.00089 0.58408 0.0
O136 O 0.11918 0.98404 0.59184 0.0
C137 C 0.15688 0.98521 0.50764 0.0
C138 C 0.1039 0.98791 0.60579 0.0
O139 O 0.11511 0.02373 0.47697 0.0
Mg140 Mg 0.48146 0.11752 0.06873 0.0
O141 O 0.50385 0.10837 0.02028 0.0
O142 O 0.52854 0.11316 0.05995 0.0
Mg143 Mg 0.52175 0.12799 0.13204 0.0
C144 C 0.52008 0.10725 0.02261 0.0
C145 C 0.45059 0.10501 -0.00011 0.0
O146 O 0.4445 0.09939 0.04308 0.0
O147 O 0.48633 0.14531 0.04608 0.0
O148 O 0.51096 0.15049 0.08605 0.0
O149 O 0.48252 0.09247 0.11036 0.0
O150 O 0.4964 0.11571 0.1338 0.0
C151 C 0.49861 0.15531 0.05784 0.0
C152 C 0.49342 0.09971 0.14032 0.0
O153 O 0.46467 0.1131 0.99949 0.0
Mg154 Mg 0.37502 0.4875 0.54565 0.0
O155 O 0.38444 0.50765 0.48967 0.0
O156 O 0.37813 0.53371 0.51839 0.0
Mg157 Mg 0.36374 0.53014 0.59313 0.0
C158 C 0.38482 0.52387 0.48529 0.0
C159 C 0.3945 0.46073 0.47899 0.0
O160 O 0.4064 0.46424 0.51241 0.0
O161 O 0.34718 0.49103 0.52067 0.0
O162 O 0.34148 0.51689 0.55271 0.0
O163 O 0.39974 0.49052 0.58827 0.0
O164 O 0.37631 0.50522 0.6047 0.0
C165 C 0.3369 0.50345 0.52884 0.0
C166 C 0.39223 0.50254 0.61361 0.0
O167 O 0.37987 0.46765 0.48369 0.0
Mg168 Mg 0.01163 0.116 0.93256 0.0
O169 O 0.9913 0.1068 0.9882 0.0
O170 O 0.96539 0.11473 0.96219 0.0
Mg171 Mg 0.96936 0.13008 0.88934 0.0
C172 C 0.97512 0.10714 0.99372 0.0
C173 C 0.03315 0.09365 0.0057 0.0
O174 O 0.02421 0.08193 0.98194 0.0
O175 O 0.00954 0.14342 0.96225 0.0
O176 O 0.98374 0.15088 0.93324 0.0
O177 O 0.00729 0.09222 0.88642 0.0
O178 O 0.99359 0.11655 0.87445 0.0
C179 C -0.00248 0.15435 0.95702 0.0
C180 C 0.99552 0.1007 0.86289 0.0
O181 O 0.03148 0.10921 0.99264 0.0
Mg182 Mg 0.37584 0.00761 0.4602 0.0
O183 O 0.38768 0.98774 0.51269 0.0
O184 O 0.38317 0.96155 0.48233 0.0
Mg185 Mg 0.36757 0.96476 0.4095 0.0
C186 C 0.38949 0.97157 0.5155 0.0
C187 C 0.39359 0.03501 0.52956 0.0
O188 O 0.40577 0.03297 0.49587 0.0
O189 O 0.34872 0.0015 0.48737 0.0
O190 O 0.34462 0.97573 0.45277 0.0
O191 O 0.40006 0.00715 0.4138 0.0
O192 O 0.37762 0.99085 0.39913 0.0
C193 C 0.33928 0.98851 0.47845 0.0
C194 C 0.39302 0.995 0.38786 0.0
O195 O 0.3796 0.02698 0.52397 0.0
Mg196 Mg 0.4868 0.37384 0.94713 0.0
O197 O 0.50661 0.38466 0.00177 0.0
O198 O 0.5329 0.37818 0.97558 0.0
Mg199 Mg 0.52976 0.36221 0.90339 0.0
C200 C 0.52278 0.38538 0.00692 0.0
C201 C 0.46496 0.3954 0.02072 0.0
O202 O 0.47404 0.40714 0.99747 0.0
O203 O 0.49064 0.34672 0.97757 0.0
O204 O 0.51668 0.34058 0.94762 0.0
O205 O 0.48942 0.39756 0.89996 0.0
O206 O 0.5047 0.37415 0.88842 0.0
C207 C 0.50318 0.33641 0.97188 0.0
C208 C 0.50165 0.38977 0.8763 0.0
O209 O 0.46665 0.37987 0.00733 0.0
Mg210 Mg 0.11732 0.48628 0.45163 0.0
O211 O 0.10748 0.50771 0.50192 0.0
O212 O 0.11377 0.53333 0.47058 0.0
Mg213 Mg 0.12913 0.52782 0.3982 0.0
C214 C 0.10684 0.52395 0.50427 0.0
C215 C 0.1121 0.45272 0.52305 0.0
O216 O 0.11723 0.4433 0.48479 0.0
O217 O 0.14476 0.4903 0.47893 0.0
O218 O 0.15093 0.51555 0.44374 0.0
O219 O 0.09315 0.48837 0.4064 0.0
O220 O 0.11684 0.50253 0.38902 0.0
C221 C 0.15514 0.50255 0.47021 0.0
C222 C 0.101 0.4997 0.37928 0.0
O223 O 0.11129 0.46887 0.51831 0.0
C224 C 0.01431 0.68517 0.99218 0.0
C225 C -0.00039 0.67496 0.98791 0.0
C226 C 0.01291 0.70273 0.00037 0.0
C227 C 0.9845 0.73856 0.97524 0.0
H228 H 0.01444 0.76293 0.06698 0.0
C229 C 0.01275 0.81077 0.01636 0.0
C230 C -0.00224 0.82062 0.01378 0.0
C231 C 0.01207 0.79301 0.01226 0.0
C232 C 0.00613 0.75636 0.04065 0.0
H233 H 0.9719 0.6751 0.99061 0.0
H234 H 0.96948 0.70598 0.00452 0.0
H235 H 0.0146 0.73181 0.06617 0.0
H236 H 0.97034 0.8196 0.00248 0.0
H237 H 0.96908 0.78845 0.99612 0.0
H238 H 0.97636 0.76313 0.94868 0.0
C239 C 0.98207 0.70029 0.00147 0.0
C240 C 0.00615 0.73852 0.04051 0.0
C241 C 0.98347 0.68262 0.99398 0.0
C242 C 0.98213 0.81236 0.00439 0.0
C243 C 0.98142 0.7945 0.0008 0.0
C244 C 0.98457 0.75646 0.97507 0.0
C245 C 0.99678 0.71054 0.0039 0.0
C246 C 0.99551 0.72943 0.00738 0.0
C247 C 0.99634 0.78459 0.0061 0.0
C248 C 0.99559 0.76558 0.00726 0.0
H249 H 0.02692 0.67965 0.98777 0.0
H250 H 0.02448 0.71032 0.00178 0.0
H251 H 0.97628 0.73187 0.9489 0.0
H252 H 0.02503 0.81677 0.02293 0.0
H253 H 0.02388 0.78585 0.01492 0.0
C254 C 0.67979 0.98695 0.51343 0.0
C255 C 0.67197 0.00304 0.519 0.0
C256 C 0.69722 0.98572 0.50185 0.0
C257 C 0.73374 0.01004 0.4507 0.0
H258 H 0.76141 0.98182 0.53919 0.0
C259 C 0.80607 0.01937 0.46191 0.0
C260 C 0.81656 0.00479 0.46367 0.0
C261 C 0.78843 0.01798 0.46825 0.0
C262 C 0.75386 0.98957 0.51368 0.0
H263 H 0.67609 0.03041 0.51412 0.0
H264 H 0.7063 0.02826 0.49326 0.0
H265 H 0.73026 0.981 0.54617 0.0
H266 H 0.81677 0.97735 0.47555 0.0
H267 H 0.78583 0.97489 0.48614 0.0
H268 H 0.75719 0.01869 0.41823 0.0
C269 C 0.69903 0.0166 0.49808 0.0
C270 C 0.73603 0.98908 0.51763 0.0
C271 C 0.68173 0.01783 0.51026 0.0
C272 C 0.80905 0.98885 0.47415 0.0
C273 C 0.79132 0.98744 0.48019 0.0
C274 C 0.75151 0.01046 0.44655 0.0
C275 C 0.70706 0.00056 0.49482 0.0
C276 C 0.72581 -0.00044 0.48681 0.0
C277 C 0.78077 0.00195 0.47613 0.0
C278 C 0.76182 0.00052 0.4787 0.0
H279 H 0.67263 0.97532 0.52014 0.0
H280 H 0.70306 0.9732 0.49912 0.0
H281 H 0.72618 0.01806 0.42593 0.0
H282 H 0.81144 0.03188 0.45452 0.0
H283 H 0.78076 0.02949 0.46635 0.0
C284 C 0.48154 0.81444 0.99602 0.0
C285 C 0.4966 0.82419 0.99442 0.0
C286 C 0.48222 0.79684 0.00432 0.0
C287 C 0.51008 0.76011 0.98442 0.0
H288 H 0.47678 0.7367 0.06791 0.0
C289 C 0.47776 0.68907 0.01495 0.0
C290 C 0.49233 0.67856 0.0162 0.0
C291 C 0.47935 0.70679 0.01188 0.0
C292 C 0.48604 0.74301 0.04391 0.0
H293 H 0.52417 0.82321 0.00209 0.0
H294 H 0.52535 0.79227 0.01632 0.0
H295 H 0.47787 0.7678 0.06834 0.0
H296 H 0.52002 0.67842 0.01265 0.0
H297 H 0.52282 0.70949 0.00787 0.0
H298 H 0.51797 0.73529 0.95901 0.0
C299 C 0.51304 0.79834 0.01103 0.0
C300 C 0.48673 0.76084 0.04447 0.0
C301 C 0.51234 0.81605 0.00337 0.0
C302 C 0.50854 0.68615 0.01156 0.0
C303 C 0.51014 0.70397 0.00889 0.0
C304 C 0.50933 0.74222 0.98362 0.0
C305 C 0.49798 0.78853 0.01072 0.0
C306 C 0.49857 0.7696 0.01417 0.0
C307 C 0.49556 0.71452 0.01047 0.0
C308 C 0.49709 0.73348 0.01271 0.0
H309 H 0.46921 0.82033 0.98937 0.0
H310 H 0.47041 0.78963 0.00351 0.0
H311 H 0.51922 0.76653 0.96025 0.0
H312 H 0.46507 0.68362 0.01782 0.0
H313 H 0.46783 0.71448 0.01162 0.0
C314 C 0.68314 0.47917 0.48636 0.0
C315 C 0.67318 0.49407 0.48254 0.0
C316 C 0.70059 0.48019 0.49654 0.0
C317 C 0.73728 0.50807 0.47901 0.0
H318 H 0.75941 0.47644 0.5708 0.0
C319 C 0.81081 0.50701 0.51501 0.0
C320 C 0.81829 0.49086 0.52253 0.0
C321 C 0.79303 0.50865 0.51067 0.0
C322 C 0.75347 0.48524 0.54455 0.0
H323 H 0.67365 0.52174 0.48771 0.0
H324 H 0.70439 0.52351 0.50503 0.0
H325 H 0.72836 0.4773 0.56631 0.0
H326 H 0.81309 0.46368 0.5279 0.0
H327 H 0.78234 0.46648 0.51884 0.0
H328 H 0.76244 0.51567 0.45614 0.0
C329 C 0.69857 0.51106 0.50017 0.0
C330 C 0.73567 0.4858 0.54228 0.0
C331 C 0.68098 0.51003 0.4907 0.0
C332 C 0.80773 0.47634 0.52283 0.0
C333 C 0.79006 0.47796 0.5181 0.0
C334 C 0.75515 0.50744 0.481 0.0
C335 C 0.70856 0.49614 0.50257 0.0
C336 C 0.72738 0.497 0.5089 0.0
C337 C 0.78242 0.49416 0.51345 0.0
C338 C 0.76346 0.49576 0.51312 0.0
H339 H 0.67751 0.46669 0.48038 0.0
H340 H 0.70799 0.46848 0.49777 0.0
H341 H 0.73122 0.51673 0.45259 0.0
H342 H 0.81859 0.51845 0.51483 0.0
H343 H 0.78757 0.52132 0.50718 0.0
C344 C 0.01353 0.30969 0.00736 0.0
C345 C -0.00289 0.31666 0.01433 0.0
C346 C 0.01577 0.29195 0.00327 0.0
C347 C 0.01486 0.25367 0.97346 0.0
H348 H 0.98661 0.22722 0.06521 0.0
C349 C 0.01616 0.17935 0.97984 0.0
C350 C -0.00019 0.17206 0.97546 0.0
C351 C 0.01797 0.19684 0.99016 0.0
C352 C 0.9946 0.23442 0.03941 0.0
H353 H 0.97009 0.31056 0.01854 0.0
H354 H 0.97397 0.27989 0.01064 0.0
H355 H 0.98569 0.25832 0.06842 0.0
H356 H 0.97261 0.17712 0.98109 0.0
H357 H 0.97577 0.20736 0.9997 0.0
H358 H 0.02348 0.2296 0.94384 0.0
C359 C 0.98517 0.28802 0.00983 0.0
C360 C 0.99402 0.25222 0.04106 0.0
C361 C 0.98294 0.30563 0.01397 0.0
C362 C 0.98538 0.18236 0.98407 0.0
C363 C 0.98719 0.19969 0.99499 0.0
C364 C 0.01545 0.23577 0.97184 0.0
C365 C 0.00161 0.28092 0.00608 0.0
C366 C 0.00375 0.26205 0.00715 0.0
C367 C 0.00347 0.20721 0.99717 0.0
C368 C 0.00496 0.22599 0.0039 0.0
H369 H 0.02471 0.31784 0.00755 0.0
H370 H 0.02859 0.28684 0.0002 0.0
H371 H 0.02251 0.2609 0.94691 0.0
H372 H 0.02751 0.17174 0.97312 0.0
H373 H 0.03067 0.2023 0.99195 0.0
C374 C 0.31231 0.00466 0.49785 0.0
C375 C 0.3209 0.989 0.4917 0.0
C376 C 0.29442 0.00519 0.49957 0.0
C377 C 0.25753 0.9796 0.45659 0.0
H378 H 0.23083 0.01039 0.5402 0.0
C379 C 0.18524 0.97197 0.48856 0.0
C380 C 0.17503 0.98672 0.49236 0.0
C381 C 0.20294 0.97329 0.48339 0.0
C382 C 0.23814 0.00191 0.51603 0.0
H383 H 0.31754 0.96152 0.48702 0.0
H384 H 0.28652 0.9624 0.49151 0.0
H385 H 0.26199 0.01043 0.54687 0.0
H386 H 0.17537 0.01445 0.4911 0.0
H387 H 0.2064 0.01673 0.48194 0.0
H388 H 0.23372 0.97088 0.42636 0.0
C389 C 0.29351 0.97433 0.49317 0.0
C390 C 0.25598 0.0019 0.51999 0.0
C391 C 0.31131 0.97382 0.49109 0.0
C392 C 0.18286 0.00284 0.48813 0.0
C393 C 0.20063 0.00416 0.48344 0.0
C394 C 0.23974 0.97958 0.45278 0.0
C395 C 0.28481 0.99005 0.4955 0.0
C396 C 0.26587 0.99056 0.49081 0.0
C397 C 0.21088 0.98939 0.48221 0.0
C398 C 0.22983 0.99058 0.48287 0.0
H399 H 0.31932 0.01659 0.49821 0.0
H400 H 0.28813 0.01751 0.50141 0.0
H401 H 0.26475 0.97103 0.43252 0.0
H402 H 0.17962 0.95936 0.49157 0.0
H403 H 0.21047 0.96166 0.48282 0.0
C404 C 0.5132 0.18323 0.0427 0.0
C405 C 0.49815 0.17343 0.04177 0.0
C406 C 0.51271 0.20074 0.0328 0.0
C407 C 0.48464 0.23789 0.04074 0.0
H408 H 0.51914 0.25926 0.95672 0.0
C409 C 0.48552 0.3107 0.99438 0.0
C410 C 0.50162 0.31845 0.98899 0.0
C411 C 0.48423 0.29302 0.00202 0.0
C412 C 0.50955 0.25355 0.98092 0.0
H413 H 0.47081 0.17431 0.02866 0.0
H414 H 0.46996 0.20511 0.01171 0.0
H415 H 0.51833 0.22827 0.96396 0.0
H416 H 0.52896 0.31399 0.99119 0.0
H417 H 0.52674 0.28343 0.00623 0.0
H418 H 0.4761 0.26322 0.05867 0.0
C419 C 0.48211 0.19912 0.02016 0.0
C420 C 0.50903 0.23577 0.98474 0.0
C421 C 0.48263 0.18149 0.02942 0.0
C422 C 0.51636 0.30837 0.99451 0.0
C423 C 0.51508 0.2908 0.00266 0.0
C424 C 0.48524 0.25575 0.03724 0.0
C425 C 0.49714 0.20893 0.02223 0.0
C426 C 0.49671 0.22775 0.01511 0.0
C427 C 0.49901 0.28279 0.00485 0.0
C428 C 0.49786 0.26381 0.0078 0.0
H429 H 0.52537 0.17742 0.05199 0.0
H430 H 0.52448 0.20798 0.03504 0.0
H431 H 0.4751 0.23204 0.06483 0.0
H432 H 0.47392 0.31811 0.99005 0.0
H433 H 0.47164 0.28729 0.00342 0.0
C434 C 0.30834 0.51657 0.51312 0.0
C435 C 0.3186 0.50184 0.51542 0.0
C436 C 0.29062 0.51524 0.50917 0.0
C437 C 0.25481 0.486 0.47972 0.0
H438 H 0.22957 0.518 0.56357 0.0
C439 C 0.18078 0.48517 0.49552 0.0
C440 C 0.17315 0.5012 0.4869 0.0
C441 C 0.19842 0.4839 0.50373 0.0
C442 C 0.23643 0.50899 0.53992 0.0
H443 H 0.31835 0.47414 0.51267 0.0
H444 H 0.28724 0.4718 0.50621 0.0
H445 H 0.26066 0.51827 0.56476 0.0
H446 H 0.17788 0.52848 0.48282 0.0
H447 H 0.20846 0.52627 0.49785 0.0
H448 H 0.2304 0.47681 0.45483 0.0
C449 C 0.29297 0.48439 0.5072 0.0
C450 C 0.25426 0.5092 0.54033 0.0
C451 C 0.31079 0.48573 0.51079 0.0
C452 C 0.18336 0.51594 0.48919 0.0
C453 C 0.20089 0.51469 0.49802 0.0
C454 C 0.23691 0.48574 0.4795 0.0
C455 C 0.28266 0.49915 0.50788 0.0
C456 C 0.26368 0.49798 0.5094 0.0
C457 C 0.20868 0.49864 0.50431 0.0
C458 C 0.22755 0.49748 0.50887 0.0
H459 H 0.31396 0.52918 0.51591 0.0
H460 H 0.28313 0.52688 0.50821 0.0
H461 H 0.26167 0.47721 0.45537 0.0
H462 H 0.17326 0.47357 0.49373 0.0
H463 H 0.20408 0.47138 0.50892 0.0
C464 C 0.00997 0.57602 0.83839 0.0
C465 C 0.00973 0.59393 0.84224 0.0
C466 C 0.0208 0.56792 0.80351 0.0
C467 C 0.05966 0.57589 0.726 0.0
H468 H 0.0442 0.5365 0.64976 0.0
C469 C 0.09559 0.54975 0.55064 0.0
C470 C 0.09696 0.53189 0.5461 0.0
C471 C 0.08545 0.55703 0.58863 0.0
C472 C 0.04877 0.54739 0.67115 0.0
H473 H 0.02019 0.6174 0.81139 0.0
H474 H 0.03869 0.6034 0.75046 0.0
H475 H 0.02531 0.54946 0.71248 0.0
H476 H 0.08895 0.50771 0.57887 0.0
H477 H 0.07138 0.52042 0.6448 0.0
H478 H 0.08301 0.57395 0.68404 0.0
C479 C 0.03095 0.59552 0.77512 0.0
C480 C 0.03796 0.5548 0.70719 0.0
C481 C 0.02025 0.60356 0.80997 0.0
C482 C 0.08817 0.52152 0.58098 0.0
C483 C 0.07799 0.52879 0.61868 0.0
C484 C 0.07042 0.56854 0.68979 0.0
C485 C 0.03151 0.5776 0.7717 0.0
C486 C 0.04322 0.56921 0.73483 0.0
C487 C 0.07639 0.54661 0.6227 0.0
C488 C 0.06507 0.55426 0.6618 0.0
H489 H 0.00203 0.56826 0.86283 0.0
H490 H 0.02099 0.55409 0.80213 0.0
H491 H 0.06428 0.58677 0.74728 0.0
H492 H 0.10215 0.55812 0.52445 0.0
H493 H 0.08436 0.57082 0.59057 0.0
C494 C 0.9497 0.09809 0.04519 0.0
C495 C 0.96745 0.09782 0.03697 0.0
C496 C 0.94244 0.08863 0.08453 0.0
C497 C 0.9504 0.0511 0.16492 0.0
H498 H 0.91301 0.06955 0.24436 0.0
C499 C 0.91848 0.01344 0.32903 0.0
C500 C 0.90056 0.01441 0.33142 0.0
C501 C 0.92763 0.02404 0.29602 0.0
C502 C 0.92336 0.06415 0.22226 0.0
H503 H 0.99151 0.08756 0.06452 0.0
H504 H 0.9788 0.07114 0.13314 0.0
H505 H 0.92708 0.08752 0.1817 0.0
H506 H 0.87819 0.02692 0.30002 0.0
H507 H 0.89404 0.04518 0.24264 0.0
H508 H 0.94648 0.02763 0.20492 0.0
C509 C 0.9705 0.07855 0.10879 0.0
C510 C 0.93142 0.07447 0.18637 0.0
C511 C 0.97778 0.08806 0.06959 0.0
C512 C 0.892 0.02602 0.29979 0.0
C513 C 0.90111 0.03657 0.26694 0.0
C514 C 0.9423 0.04075 0.20079 0.0
C515 C 0.95274 0.07863 0.1165 0.0
C516 C 0.94488 0.06799 0.15681 0.0
C517 C 0.91903 0.03579 0.26478 0.0
C518 C 0.92852 0.04709 0.22935 0.0
H519 H 0.94134 0.10544 0.02084 0.0
H520 H 0.92868 0.08882 0.08911 0.0
H521 H 0.96062 0.04567 0.14239 0.0
H522 H 0.92543 0.00463 0.35298 0.0
H523 H 0.94144 0.0232 0.29546 0.0
C524 C 0.49015 0.92317 0.84555 0.0
C525 C 0.49084 0.90523 0.84769 0.0
C526 C 0.47983 0.93135 0.80956 0.0
C527 C 0.45817 0.92392 0.68721 0.0
H528 H 0.42803 0.96071 0.72887 0.0
C529 C 0.40306 0.94671 0.56031 0.0
C530 C 0.40023 0.96442 0.55662 0.0
C531 C 0.41425 0.94014 0.5966 0.0
C532 C 0.43651 0.95059 0.71646 0.0
H533 H 0.48163 0.88183 0.81304 0.0
H534 H 0.46377 0.89599 0.75088 0.0
H535 H 0.44822 0.94856 0.78949 0.0
H536 H 0.40673 0.98906 0.58932 0.0
H537 H 0.42633 0.97758 0.65214 0.0
H538 H 0.44653 0.92585 0.61436 0.0
C539 C 0.47117 0.9038 0.77665 0.0
C540 C 0.4481 0.94366 0.75118 0.0
C541 C 0.48132 0.89568 0.81263 0.0
C542 C 0.40856 0.97534 0.59103 0.0
C543 C 0.41977 0.96876 0.62727 0.0
C544 C 0.44665 0.93086 0.65254 0.0
C545 C 0.47021 0.92171 0.77478 0.0
C546 C 0.45889 0.93009 0.73709 0.0
C547 C 0.42293 0.9511 0.63006 0.0
C548 C 0.43551 0.94412 0.66687 0.0
H549 H 0.49732 0.93087 0.87212 0.0
H550 H 0.47943 0.94519 0.80879 0.0
H551 H 0.46653 0.91368 0.67493 0.0
H552 H 0.39682 0.93791 0.53467 0.0
H553 H 0.41614 0.92643 0.59834 0.0
C554 C 0.54767 0.39681 0.0564 0.0
C555 C 0.52992 0.39561 0.04921 0.0
C556 C 0.55437 0.40717 0.09466 0.0
C557 C 0.54385 0.4445 0.17401 0.0
H558 H 0.58298 0.42944 0.25197 0.0
C559 C 0.57332 0.48449 0.33805 0.0
C560 C 0.59126 0.48478 0.34018 0.0
C561 C 0.56491 0.47348 0.30442 0.0
C562 C 0.57214 0.4339 0.23024 0.0
H563 H 0.50527 0.4042 0.07743 0.0
H564 H 0.51699 0.42215 0.14421 0.0
H565 H 0.57013 0.41015 0.1905 0.0
H566 H 0.61442 0.47428 0.30724 0.0
H567 H 0.59986 0.45534 0.24882 0.0
H568 H 0.54602 0.46835 0.21344 0.0
C569 C 0.52573 0.41522 0.11987 0.0
C570 C 0.56478 0.42284 0.19501 0.0
C571 C 0.51902 0.40482 0.08174 0.0
C572 C 0.60058 0.47417 0.30726 0.0
C573 C 0.59223 0.46324 0.27383 0.0
C574 C 0.55125 0.4556 0.20928 0.0
C575 C 0.54348 0.4166 0.12658 0.0
C576 C 0.55068 0.42807 0.16602 0.0
C577 C 0.5743 0.46258 0.27234 0.0
C578 C 0.56563 0.45051 0.23728 0.0
H579 H 0.55645 0.38994 0.03206 0.0
H580 H 0.56812 0.4081 0.09844 0.0
H581 H 0.5331 0.44898 0.15192 0.0
H582 H 0.56579 0.49251 0.36296 0.0
H583 H 0.55107 0.47324 0.30429 0.0
C584 C 0.08726 0.97361 0.3974 0.0
C585 C 0.09537 0.96202 0.43034 0.0
C586 C 0.07553 0.96783 0.36136 0.0
C587 C 0.0463 0.93197 0.33782 0.0
H588 H 0.04591 0.94776 0.19887 0.0
C589 C 0.01116 0.89557 0.18251 0.0
C590 C 0.00243 0.90461 0.14461 0.0
C591 C 0.02122 0.90412 0.21774 0.0
C592 C 0.04567 0.94345 0.23777 0.0
H593 H 0.09786 0.93518 0.44979 0.0
H594 H 0.0775 0.92516 0.38692 0.0
H595 H 0.06671 0.95958 0.25853 0.0
H596 H -0.0028 0.92981 0.11439 0.0
H597 H 0.01491 0.94494 0.17669 0.0
H598 H 0.02544 0.91578 0.31736 0.0
C599 C 0.08005 0.93874 0.38949 0.0
C600 C 0.05761 0.95017 0.27185 0.0
C601 C 0.09183 0.94449 0.4253 0.0
C602 C 0.00376 0.92252 0.14326 0.0
C603 C 0.01397 0.93114 0.17864 0.0
C604 C 0.03438 0.92533 0.30395 0.0
C605 C 0.07156 0.95037 0.35769 0.0
C606 C 0.05828 0.94421 0.32197 0.0
C607 C 0.02284 0.92199 0.21621 0.0
C608 C 0.03416 0.93069 0.25325 0.0
H609 H 0.08969 0.98721 0.40013 0.0
H610 H 0.06916 0.9771 0.33747 0.0
H611 H 0.0462 0.92743 0.37651 0.0
H612 H 0.01035 0.88177 0.18484 0.0
H613 H 0.02806 0.89664 0.24561 0.0
C614 C 0.52174 0.09616 0.93395 0.0
C615 C 0.52912 0.09782 0.9821 0.0
C616 C 0.52968 0.0863 0.89659 0.0
C617 C 0.57104 0.06489 0.86462 0.0
H618 H 0.54261 0.04037 0.7691 0.0
C619 C 0.60087 0.0291 0.6966 0.0
C620 C 0.59319 0.01398 0.67914 0.0
C621 C 0.59277 0.03933 0.73259 0.0
C622 C 0.55078 0.04692 0.79583 0.0
H623 H 0.55057 0.09041 0.02897 0.0
H624 H 0.56408 0.07266 0.9648 0.0
H625 H 0.52932 0.05778 0.8342 0.0
H626 H 0.57103 -0.00241 0.68676 0.0
H627 H 0.5572 0.01502 0.75151 0.0
H628 H 0.59245 0.05326 0.82833 0.0
C629 C 0.55246 0.0794 0.95498 0.0
C630 C 0.54314 0.05721 0.83277 0.0
C631 C 0.54468 0.08954 0.992 0.0
C632 C 0.57724 0.00924 0.69906 0.0
C633 C 0.56925 0.01934 0.73599 0.0
C634 C 0.57866 0.05436 0.82835 0.0
C635 C 0.54504 0.07756 0.90675 0.0
C636 C 0.55316 0.06645 0.86752 0.0
C637 C 0.57693 0.03454 0.75333 0.0
C638 C 0.56866 0.04534 0.79305 0.0
H639 H 0.50979 0.10249 0.9251 0.0
H640 H 0.52375 0.0856 0.8597 0.0
H641 H 0.57927 0.07193 0.89007 0.0
H642 H 0.6132 0.03312 0.68273 0.0
H643 H 0.59898 0.05109 0.74388 0.0
C644 C 0.40382 0.52102 0.40911 0.0
C645 C 0.39437 0.53147 0.44233 0.0
C646 C 0.41405 0.52824 0.3714 0.0
C647 C 0.43631 0.56853 0.34087 0.0
H648 H 0.44084 0.5488 0.20692 0.0
C649 C 0.46956 0.60432 0.17964 0.0
C650 C 0.48085 0.59518 0.14829 0.0
C651 C 0.45924 0.59583 0.21443 0.0
C652 C 0.43985 0.55433 0.24438 0.0
H653 H 0.38778 0.55773 0.46036 0.0
H654 H 0.40536 0.57028 0.39413 0.0
H655 H 0.42168 0.53554 0.26857 0.0
H656 H 0.4901 0.56989 0.12875 0.0
H657 H 0.47193 0.55494 0.19007 0.0
H658 H 0.45433 0.58737 0.31675 0.0
C659 C 0.40516 0.5565 0.39798 0.0
C660 C 0.42886 0.54676 0.27968 0.0
C661 C 0.39497 0.54929 0.43577 0.0
C662 C 0.48153 0.57728 0.15242 0.0
C663 C 0.47107 0.56872 0.18727 0.0
C664 C 0.44721 0.5761 0.30565 0.0
C665 C 0.41507 0.54609 0.36592 0.0
C666 C 0.42684 0.55388 0.32822 0.0
C667 C 0.4599 0.57796 0.21888 0.0
C668 C 0.44899 0.5692 0.25685 0.0
H669 H 0.40369 0.50724 0.41303 0.0
H670 H 0.4216 0.51985 0.34764 0.0
H671 H 0.43541 0.57412 0.37827 0.0
H672 H 0.46876 0.61812 0.17771 0.0
H673 H 0.4506 0.60329 0.2377 0.0
C674 C 0.97757 0.40126 0.90723 0.0
C675 C 0.96673 0.39192 0.93946 0.0
C676 C 0.97084 0.41106 0.86777 0.0
C677 C 0.93206 0.41705 0.78966 0.0
H678 H 0.94897 0.4633 0.77272 0.0
C679 C 0.89402 0.4678 0.68156 0.0
C680 C 0.90278 0.47907 0.64934 0.0
C681 C 0.90295 0.45676 0.71336 0.0
C682 C 0.94429 0.45034 0.77641 0.0
H683 H 0.94028 0.38528 0.95449 0.0
H684 H 0.92858 0.4024 0.88592 0.0
H685 H 0.96249 0.44435 0.83417 0.0
H686 H 0.92785 0.48779 0.62591 0.0
H687 H 0.94356 0.46838 0.68184 0.0
H688 H 0.91371 0.42308 0.73252 0.0
C689 C 0.94231 0.40204 0.89091 0.0
C690 C 0.95203 0.43947 0.81163 0.0
C691 C 0.94903 0.39229 0.93046 0.0
C692 C 0.92074 0.47925 0.6503 0.0
C693 C 0.92972 0.46816 0.68237 0.0
C694 C 0.92435 0.42789 0.75449 0.0
C695 C 0.95312 0.4117 0.85945 0.0
C696 C 0.94581 0.42279 0.81926 0.0
C697 C 0.92089 0.45668 0.71394 0.0
C698 C 0.93016 0.44476 0.7481 0.0
H699 H 0.99128 0.40126 0.91291 0.0
H700 H 0.97953 0.41818 0.84383 0.0
H701 H 0.92719 0.40418 0.79388 0.0
H702 H 0.88019 0.46752 0.68252 0.0
H703 H 0.89574 0.44839 0.73803 0.0
C704 C 0.98119 0.41616 0.15735 0.0
C705 C 0.98126 0.39828 0.15205 0.0
C706 C 0.97003 0.42407 0.19169 0.0
C707 C 0.94552 0.41521 0.30764 0.0
H708 H 0.91911 0.45526 0.27083 0.0
C709 C 0.89362 0.44191 0.44017 0.0
C710 C 0.89293 0.45976 0.44593 0.0
C711 C 0.90351 0.43454 0.40183 0.0
C712 C 0.92651 0.44417 0.28188 0.0
H713 H 0.9698 0.3747 0.17883 0.0
H714 H 0.95045 0.38843 0.23812 0.0
H715 H 0.93877 0.44259 0.20944 0.0
H716 H 0.90174 0.48387 0.41463 0.0
H717 H 0.91915 0.47103 0.34865 0.0
H718 H 0.93356 0.41683 0.38012 0.0
C719 C 0.959 0.39636 0.21607 0.0
C720 C 0.93778 0.43694 0.24671 0.0
C721 C 0.97002 0.38851 0.18172 0.0
C722 C 0.90194 0.47007 0.4114 0.0
C723 C 0.91188 0.4627 0.37327 0.0
C724 C 0.93435 0.42247 0.34281 0.0
C725 C 0.95891 0.41421 0.22164 0.0
C726 C 0.94733 0.42233 0.25917 0.0
C727 C 0.91302 0.44484 0.3685 0.0
C728 C 0.92465 0.437 0.33037 0.0
H729 H 0.9897 0.42402 0.13498 0.0
H730 H 0.97031 0.43785 0.19544 0.0
H731 H 0.95291 0.40411 0.31864 0.0
H732 H 0.88676 0.43358 0.46582 0.0
H733 H 0.90382 0.42074 0.39862 0.0
C734 C 0.02203 0.89715 0.89978 0.0
C735 C 0.02911 0.89593 0.94842 0.0
C736 C 0.03013 0.90675 0.86222 0.0
C737 C 0.07154 0.92811 0.83127 0.0
H738 H 0.04363 0.95164 0.7323 0.0
C739 C 0.10234 0.96243 0.6627 0.0
C740 C 0.09476 0.97738 0.64372 0.0
C741 C 0.09401 0.9525 0.69882 0.0
C742 C 0.05165 0.94537 0.75999 0.0
H743 H 0.05019 0.90387 0.99599 0.0
H744 H 0.06396 0.92117 0.93145 0.0
H745 H 0.03 0.93473 0.79781 0.0
H746 H 0.0725 0.99381 0.64873 0.0
H747 H 0.05824 0.97691 0.71377 0.0
H748 H 0.09312 0.93952 0.79552 0.0
C749 C 0.05246 0.91428 0.92142 0.0
C750 C 0.04381 0.93536 0.79718 0.0
C751 C 0.04454 0.90439 0.95865 0.0
C752 C 0.07864 0.98227 0.66224 0.0
C753 C 0.07041 0.97249 0.69933 0.0
C754 C 0.07934 0.93836 0.79476 0.0
C755 C 0.04535 0.91567 0.87267 0.0
C756 C 0.05366 0.92647 0.83318 0.0
C757 C 0.07802 0.95745 0.71822 0.0
C758 C 0.06953 0.947 0.75821 0.0
H759 H 0.01019 0.89067 0.8907 0.0
H760 H 0.02444 0.90711 0.82496 0.0
H761 H 0.07964 0.92133 0.8577 0.0
H762 H 0.1148 0.95832 0.64996 0.0
H763 H 0.10018 0.94085 0.71132 0.0
C764 C 0.59244 0.04627 0.45493 0.0
C765 C 0.59381 0.02863 0.46411 0.0
C766 C 0.5819 0.05242 0.41647 0.0
C767 C 0.54446 0.04103 0.33894 0.0
H768 H 0.55911 0.08008 0.2599 0.0
C769 C 0.5042 0.07189 0.17643 0.0
C770 C 0.50374 0.08986 0.17706 0.0
C771 C 0.51513 0.06297 0.20917 0.0
C772 C 0.5548 0.06921 0.28181 0.0
H773 H 0.58521 0.00358 0.43938 0.0
H774 H 0.56689 0.01438 0.37191 0.0
H775 H 0.57876 0.06714 0.32004 0.0
H776 H 0.51367 0.11248 0.21441 0.0
H777 H 0.53261 0.09704 0.27079 0.0
H778 H 0.52038 0.0433 0.30068 0.0
C779 C 0.57388 0.02344 0.39493 0.0
C780 C 0.56605 0.06181 0.31633 0.0
C781 C 0.58447 0.01726 0.43343 0.0
C782 C 0.51396 0.09866 0.21211 0.0
C783 C 0.52487 0.08982 0.24443 0.0
C784 C 0.53318 0.04843 0.30415 0.0
C785 C 0.57244 0.0411 0.3861 0.0
C786 C 0.56092 0.04787 0.34613 0.0
C787 C 0.52581 0.0719 0.24283 0.0
C788 C 0.53812 0.06285 0.27608 0.0
H789 H 0.59937 0.05541 0.47783 0.0
H790 H 0.58089 0.06611 0.41124 0.0
H791 H 0.54007 0.03036 0.36153 0.0
H792 H 0.49644 0.06475 0.1499 0.0
H793 H 0.51558 0.04915 0.20719 0.0
C794 C 0.41957 0.51393 0.65069 0.0
C795 C 0.40163 0.51391 0.64861 0.0
C796 C 0.42817 0.52523 0.68299 0.0
C797 C 0.42161 0.56557 0.75466 0.0
H798 H 0.46021 0.55009 0.83419 0.0
C799 C 0.44595 0.6018 0.93047 0.0
C800 C 0.46369 0.60271 0.9383 0.0
C801 C 0.43927 0.59187 0.89119 0.0
C802 C 0.44959 0.55469 0.81172 0.0
H803 H 0.37865 0.52532 0.67998 0.0
H804 H 0.39353 0.54474 0.73621 0.0
H805 H 0.44712 0.53075 0.77302 0.0
H806 H 0.48834 0.59418 0.90988 0.0
H807 H 0.47664 0.57694 0.84146 0.0
H808 H 0.42386 0.58938 0.79407 0.0
C809 C 0.40104 0.53641 0.71214 0.0
C810 C 0.4421 0.5436 0.77663 0.0
C811 C 0.39249 0.52519 0.67998 0.0
C812 C 0.4746 0.59376 0.90514 0.0
C813 C 0.46791 0.58378 0.86605 0.0
C814 C 0.42905 0.57662 0.78982 0.0
C815 C 0.41897 0.5367 0.71381 0.0
C816 C 0.42785 0.54883 0.74825 0.0
C817 C 0.45016 0.58257 0.85896 0.0
C818 C 0.44298 0.57123 0.81924 0.0
H819 H 0.42697 0.50539 0.62692 0.0
H820 H 0.44201 0.52519 0.68323 0.0
H821 H 0.41088 0.57014 0.73263 0.0
H822 H 0.43717 0.60849 0.95523 0.0
H823 H 0.42552 0.59108 0.88701 0.0
C824 C 0.89372 0.05155 0.54188 0.0
C825 C 0.89254 0.03372 0.53612 0.0
C826 C 0.90403 0.05863 0.57961 0.0
C827 C 0.92736 0.04837 0.69835 0.0
H828 H 0.9547 0.08761 0.66023 0.0
C829 C 0.98307 0.0746 0.82121 0.0
C830 C 0.98377 0.09247 0.82648 0.0
C831 C 0.97166 0.0671 0.78696 0.0
C832 C 0.94705 0.07675 0.67163 0.0
H833 H 0.90092 0.00937 0.5668 0.0
H834 H 0.91904 0.02171 0.63182 0.0
H835 H 0.93471 0.07546 0.5997 0.0
H836 H 0.9732 0.11645 0.79953 0.0
H837 H 0.95338 0.10342 0.74037 0.0
H838 H 0.93994 0.04963 0.77023 0.0
C839 C 0.91185 0.03024 0.60763 0.0
C840 C 0.93553 0.06981 0.63699 0.0
C841 C 0.90149 0.02316 0.57006 0.0
C842 C 0.97293 0.10264 0.79666 0.0
C843 C 0.96165 0.09518 0.76239 0.0
C844 C 0.93897 0.05528 0.73299 0.0
C845 C 0.91347 0.04806 0.61237 0.0
C846 C 0.92548 0.05557 0.64991 0.0
C847 C 0.96087 0.07734 0.75706 0.0
C848 C 0.94888 0.0696 0.72005 0.0
H849 H 0.88692 0.06008 0.51668 0.0
H850 H 0.90472 0.07242 0.58284 0.0
H851 H 0.9197 0.03752 0.70977 0.0
H852 H 0.99126 0.06643 0.84369 0.0
H853 H 0.97144 0.05331 0.78337 0.0
C854 C 0.39311 0.97478 0.31518 0.0
C855 C 0.40233 0.9853 0.34852 0.0
C856 C 0.40151 0.96518 0.27837 0.0
C857 C 0.44248 0.94528 0.24793 0.0
H858 H 0.42384 0.94315 0.11222 0.0
C859 C 0.47667 0.90975 0.0851 0.0
C860 C 0.46659 0.90093 0.04957 0.0
C861 C 0.46911 0.92007 0.12195 0.0
C862 C 0.42908 0.9434 0.15009 0.0
H863 H 0.42763 0.99407 0.36922 0.0
H864 H 0.44247 0.97705 0.30458 0.0
H865 H 0.4106 0.96176 0.17495 0.0
H866 H 0.44056 0.89577 0.02598 0.0
H867 H 0.42733 0.91352 0.0911 0.0
H868 H 0.46078 0.92668 0.22345 0.0
C869 C 0.42868 0.97629 0.30728 0.0
C870 C 0.42155 0.95415 0.18594 0.0
C871 C 0.42021 0.98609 0.34402 0.0
C872 C 0.44872 0.90242 0.05255 0.0
C873 C 0.44114 0.91271 0.08968 0.0
C874 C 0.44997 0.93443 0.21213 0.0
C875 C 0.41937 0.96576 0.27405 0.0
C876 C 0.42809 0.95513 0.23532 0.0
C877 C 0.45127 0.9218 0.12453 0.0
C878 C 0.44331 0.93329 0.1628 0.0
H879 H 0.37932 0.97395 0.31741 0.0
H880 H 0.39401 0.95705 0.25376 0.0
H881 H 0.44766 0.9456 0.28588 0.0
H882 H 0.49049 0.90897 0.08398 0.0
H883 H 0.47733 0.92703 0.14765 0.0
C884 C 0.52391 0.38905 0.80866 0.0
C885 C 0.51257 0.39859 0.83883 0.0
C886 C 0.53433 0.39713 0.77315 0.0
C887 C 0.55387 0.43836 0.7411 0.0
H888 H 0.5583 0.41835 0.6075 0.0
C889 C 0.58829 0.47287 0.57699 0.0
C890 C 0.59781 0.46296 0.54258 0.0
C891 C 0.57837 0.46508 0.61436 0.0
C892 C 0.55743 0.42398 0.64483 0.0
H893 H 0.50329 0.4241 0.85546 0.0
H894 H 0.52162 0.43829 0.7932 0.0
H895 H 0.53977 0.4049 0.66982 0.0
H896 H 0.60473 0.43703 0.52165 0.0
H897 H 0.58771 0.42345 0.58756 0.0
H898 H 0.57167 0.45734 0.71636 0.0
C899 C 0.52245 0.42454 0.79736 0.0
C900 C 0.54674 0.41629 0.68049 0.0
C901 C 0.5119 0.41642 0.83275 0.0
C902 C 0.59749 0.44506 0.54728 0.0
C903 C 0.58762 0.43727 0.58489 0.0
C904 C 0.56466 0.446 0.70551 0.0
C905 C 0.53373 0.41495 0.76706 0.0
C906 C 0.54485 0.42338 0.72902 0.0
C907 C 0.57778 0.44718 0.61853 0.0
C908 C 0.56658 0.4389 0.6569 0.0
H909 H 0.52469 0.37528 0.81218 0.0
H910 H 0.54301 0.38941 0.75079 0.0
H911 H 0.55283 0.44399 0.77841 0.0
H912 H 0.58816 0.48669 0.57448 0.0
H913 H 0.5708 0.47312 0.63911 0.0
C914 C 0.10154 0.52049 0.30789 0.0
C915 C 0.09202 0.51017 0.34103 0.0
C916 C 0.09338 0.53079 0.27233 0.0
C917 C 0.0527 0.55225 0.2447 0.0
H918 H 0.07144 0.55531 0.1092 0.0
C919 C 0.01923 0.58921 0.08291 0.0
C920 C 0.02961 0.59826 0.04866 0.0
C921 C 0.0265 0.57865 0.11967 0.0
C922 C 0.06617 0.55479 0.14704 0.0
H923 H 0.06643 0.50249 0.36261 0.0
H924 H 0.05207 0.5206 0.30004 0.0
H925 H 0.08437 0.53595 0.17022 0.0
H926 H 0.05585 0.60367 0.02749 0.0
H927 H 0.06852 0.58548 0.09215 0.0
H928 H 0.03457 0.57122 0.22158 0.0
C929 C 0.06589 0.52074 0.30201 0.0
C930 C 0.07355 0.54364 0.18197 0.0
C931 C 0.0741 0.5103 0.33757 0.0
C932 C 0.04746 0.59683 0.05301 0.0
C933 C 0.05472 0.58629 0.08988 0.0
C934 C 0.04533 0.56346 0.20974 0.0
C935 C 0.07547 0.53109 0.26899 0.0
C936 C 0.06699 0.54232 0.2313 0.0
C937 C 0.04433 0.57689 0.12321 0.0
C938 C 0.05206 0.56495 0.16057 0.0
H939 H 0.11537 0.52063 0.30931 0.0
H940 H 0.10112 0.53876 0.24792 0.0
H941 H 0.04748 0.55167 0.2826 0.0
H942 H 0.00543 0.58996 0.08071 0.0
H943 H 0.01811 0.57149 0.14437 0.0
C944 C 0.90411 0.56025 0.43879 0.0
C945 C 0.89376 0.54559 0.43738 0.0
C946 C 0.90917 0.5683 0.39396 0.0
C947 C 0.90025 0.57017 0.25524 0.0
H948 H 0.94726 0.58561 0.24806 0.0
C949 C 0.93634 0.58229 0.0673 0.0
C950 C 0.94715 0.5966 0.06488 0.0
C951 C 0.92834 0.57781 0.11274 0.0
C952 C 0.93403 0.58157 0.24962 0.0
H953 H 0.88029 0.52812 0.38768 0.0
H954 H 0.88941 0.54182 0.30985 0.0
H955 H 0.93603 0.57473 0.32759 0.0
H956 H 0.95768 0.61771 0.10811 0.0
H957 H 0.94381 0.60981 0.18734 0.0
H958 H 0.89855 0.57652 0.17655 0.0
C959 C 0.89338 0.54738 0.34545 0.0
C960 C 0.92755 0.57537 0.29532 0.0
C961 C 0.88821 0.53943 0.39022 0.0
C962 C 0.94945 0.60659 0.10861 0.0
C963 C 0.94158 0.60202 0.15412 0.0
C964 C 0.9068 0.57623 0.20939 0.0
C965 C 0.90411 0.56179 0.34663 0.0
C966 C 0.91061 0.56944 0.29869 0.0
C967 C 0.93112 0.58746 0.15685 0.0
C968 C 0.9238 0.58188 0.206 0.0
H969 H 0.90851 0.56539 0.4745 0.0
H970 H 0.91717 0.57955 0.39645 0.0
H971 H 0.88707 0.56601 0.25654 0.0
H972 H 0.93428 0.57434 0.03433 0.0
H973 H 0.92045 0.56645 0.11375 0.0
C974 C 0.9055 0.93595 0.54021 0.0
C975 C 0.89289 0.94874 0.54197 0.0
C976 C 0.91054 0.92747 0.5843 0.0
C977 C 0.89831 0.91976 0.71869 0.0
H978 H 0.94701 0.91273 0.73588 0.0
C979 C 0.93016 0.90736 0.91277 0.0
C980 C 0.94366 0.89551 0.9147 0.0
C981 C 0.92285 0.91194 0.86646 0.0
C982 C 0.93335 0.91437 0.73144 0.0
H983 H 0.87536 0.96233 0.59136 0.0
H984 H 0.88436 0.94783 0.66817 0.0
H985 H 0.93625 0.92405 0.65641 0.0
H986 H 0.95971 0.87878 0.86947 0.0
H987 H 0.94695 0.88677 0.78882 0.0
H988 H 0.89554 0.91048 0.7945 0.0
C989 C 0.89018 0.9441 0.63268 0.0
C990 C 0.92715 0.92084 0.68576 0.0
C991 C 0.88508 0.9525 0.58857 0.0
C992 C 0.94937 0.88799 0.86939 0.0
C993 C 0.94212 0.89264 0.8231 0.0
C994 C 0.90453 0.91337 0.76453 0.0
C995 C 0.90317 0.93166 0.63127 0.0
C996 C 0.90957 0.92376 0.67889 0.0
C997 C 0.92894 0.90483 0.82102 0.0
C998 C 0.92213 0.91073 0.77155 0.0
H999 H 0.9117 0.93265 0.50488 0.0
H1000 H 0.92036 0.91774 0.58161 0.0
H1001 H 0.88466 0.92158 0.71449 0.0
H1002 H 0.92544 0.91338 0.94694 0.0
H1003 H 0.91281 0.92148 0.86611 0.0
C1004 C 0.54123 0.89515 0.12615 0.0
C1005 C 0.5524 0.88972 0.08766 0.0
C1006 C 0.54752 0.9005 0.17286 0.0
C1007 C 0.58592 0.91798 0.23382 0.0
H1008 H 0.56073 0.90784 0.35655 0.0
C1009 C 0.60642 0.94441 0.42928 0.0
C1010 C 0.59316 0.95181 0.45785 0.0
C1011 C 0.60273 0.93454 0.38648 0.0
C1012 C 0.56788 0.91082 0.32261 0.0
H1013 H 0.57903 0.88547 0.06853 0.0
H1014 H 0.59007 0.89481 0.15062 0.0
H1015 H 0.55215 0.89464 0.27701 0.0
H1016 H 0.56563 0.95418 0.46471 0.0
H1017 H 0.55924 0.93701 0.39034 0.0
H1018 H 0.60146 0.93443 0.27941 0.0
C1019 C 0.5764 0.89503 0.14425 0.0
C1020 C 0.56297 0.90327 0.277 0.0
C1021 C 0.57007 0.88961 0.09731 0.0
C1022 C 0.57615 0.94867 0.44361 0.0
C1023 C 0.57248 0.93874 0.40108 0.0
C1024 C 0.59087 0.92551 0.27954 0.0
C1025 C 0.56517 0.90058 0.18253 0.0
C1026 C 0.57167 0.90706 0.23183 0.0
C1027 C 0.58572 0.93174 0.37159 0.0
C1028 C 0.58167 0.92231 0.32424 0.0
H1029 H 0.52754 0.89545 0.12015 0.0
H1030 H 0.53852 0.90498 0.20106 0.0
H1031 H 0.59281 0.92131 0.1997 0.0
H1032 H 0.61966 0.94657 0.43923 0.0
H1033 H 0.61321 0.92919 0.36483 0.0
C1034 C 0.59194 0.56652 0.55956 0.0
C1035 C 0.59992 0.55042 0.56045 0.0
C1036 C 0.58688 0.57448 0.60463 0.0
C1037 C 0.59256 0.57268 0.74469 0.0
H1038 H 0.548 0.5944 0.74673 0.0
C1039 C 0.554 0.58463 0.9277 0.0
C1040 C 0.54478 0.59999 0.93203 0.0
C1041 C 0.56251 0.58051 0.88279 0.0
C1042 C 0.56058 0.58861 0.74667 0.0
H1043 H 0.6091 0.53019 0.60959 0.0
H1044 H 0.60001 0.54381 0.68761 0.0
H1045 H 0.55955 0.58375 0.66716 0.0
H1046 H 0.53771 0.62333 0.89295 0.0
H1047 H 0.55253 0.61609 0.8145 0.0
H1048 H 0.59326 0.57707 0.82466 0.0
C1049 C 0.59792 0.55052 0.65235 0.0
C1050 C 0.56724 0.58252 0.70098 0.0
C1051 C 0.60305 0.54263 0.60743 0.0
C1052 C 0.54468 0.61138 0.8909 0.0
C1053 C 0.55308 0.6072 0.84583 0.0
C1054 C 0.58584 0.57866 0.79043 0.0
C1055 C 0.58963 0.56648 0.65159 0.0
C1056 C 0.58321 0.57425 0.69948 0.0
C1057 C 0.5619 0.59161 0.84106 0.0
C1058 C 0.56968 0.58649 0.79203 0.0
H1059 H 0.58942 0.57292 0.52404 0.0
H1060 H 0.58076 0.58688 0.60262 0.0
H1061 H 0.60504 0.5667 0.74487 0.0
H1062 H 0.55435 0.57557 0.95865 0.0
H1063 H 0.56907 0.56834 0.88017 0.0
C1064 C 0.10154 0.45531 0.61195 0.0
C1065 C 0.10683 0.44484 0.57161 0.0
C1066 C 0.09609 0.44818 0.65747 0.0
C1067 C 0.07813 0.40887 0.71182 0.0
H1068 H 0.08841 0.43171 0.83841 0.0
C1069 C 0.05122 0.38558 0.90427 0.0
C1070 C 0.04386 0.39852 0.9342 0.0
C1071 C 0.06116 0.38976 0.86199 0.0
C1072 C 0.08541 0.4252 0.80337 0.0
H1073 H 0.11075 0.41858 0.54791 0.0
H1074 H 0.10126 0.40605 0.62797 0.0
H1075 H 0.10189 0.44148 0.76052 0.0
H1076 H 0.04156 0.42596 0.94398 0.0
H1077 H 0.05886 0.43321 0.87062 0.0
H1078 H 0.0614 0.39278 0.75477 0.0
C1079 C 0.10122 0.41983 0.62395 0.0
C1080 C 0.0931 0.43081 0.75871 0.0
C1081 C 0.10672 0.427 0.57818 0.0
C1082 C 0.04703 0.41568 0.92177 0.0
C1083 C 0.05705 0.41985 0.87985 0.0
C1084 C 0.07046 0.40321 0.75661 0.0
C1085 C 0.0958 0.43036 0.66409 0.0
C1086 C 0.08924 0.423 0.71219 0.0
C1087 C 0.06407 0.40695 0.84912 0.0
C1088 C 0.07371 0.41159 0.80268 0.0
H1089 H 0.1014 0.46911 0.60831 0.0
H1090 H 0.09171 0.45667 0.68714 0.0
H1091 H 0.07476 0.40265 0.67662 0.0
H1092 H 0.04901 0.37223 0.9128 0.0
H1093 H 0.06651 0.37955 0.83924 0.0
C1094 C 0.04641 0.0716 0.06188 0.0
C1095 C 0.04368 0.0889 0.05006 0.0
C1096 C 0.05509 0.06698 0.10593 0.0
C1097 C 0.06409 0.08255 0.23349 0.0
H1098 H 0.09558 0.04424 0.2375 0.0
C1099 C 0.07883 0.04422 0.41448 0.0
C1100 C 0.09564 0.0385 0.42249 0.0
C1101 C 0.07443 0.05264 0.36976 0.0
C1102 C 0.08698 0.05511 0.23697 0.0
H1103 H 0.04836 0.11495 0.07466 0.0
H1104 H 0.06348 0.10683 0.15186 0.0
H1105 H 0.08492 0.05449 0.15622 0.0
H1106 H 0.12116 0.03764 0.39044 0.0
H1107 H 0.11341 0.05228 0.31211 0.0
H1108 H 0.06588 0.08293 0.31433 0.0
C1109 C 0.05881 0.09686 0.12701 0.0
C1110 C 0.08076 0.06087 0.19046 0.0
C1111 C 0.05024 0.1015 0.08266 0.0
C1112 C 0.10809 0.0419 0.38547 0.0
C1113 C 0.10365 0.05018 0.34047 0.0
C1114 C 0.07021 0.0767 0.28004 0.0
C1115 C 0.06116 0.07954 0.1394 0.0
C1116 C 0.06904 0.07448 0.18825 0.0
C1117 C 0.0867 0.05541 0.33183 0.0
C1118 C 0.08152 0.06275 0.28234 0.0
H1119 H 0.04153 0.06157 0.0376 0.0
H1120 H 0.05652 0.05352 0.11465 0.0
H1121 H 0.05498 0.09298 0.23309 0.0
H1122 H 0.06893 0.04183 0.44224 0.0
H1123 H 0.06124 0.05637 0.36407 0.0
C1124 C 0.41181 0.0548 0.58102 0.0
C1125 C 0.39674 0.04518 0.57594 0.0
C1126 C 0.41548 0.06326 0.62632 0.0
C1127 C 0.40682 0.06069 0.76212 0.0
H1128 H 0.42709 0.10588 0.76594 0.0
C1129 C 0.42623 0.0922 0.95106 0.0
C1130 C 0.44204 0.10071 0.95154 0.0
C1131 C 0.41883 0.08708 0.90532 0.0
C1132 C 0.42157 0.09319 0.76555 0.0
H1133 H 0.37349 0.03729 0.61411 0.0
H1134 H 0.37997 0.05201 0.69322 0.0
H1135 H 0.41767 0.09394 0.68538 0.0
H1136 H 0.46229 0.11084 0.90413 0.0
H1137 H 0.44964 0.10163 0.82486 0.0
H1138 H 0.41119 0.05962 0.84182 0.0
C1139 C 0.38897 0.05293 0.66219 0.0
C1140 C 0.41613 0.08638 0.71937 0.0
C1141 C 0.38522 0.04458 0.61675 0.0
C1142 C 0.45007 0.10436 0.90521 0.0
C1143 C 0.44274 0.09916 0.85959 0.0
C1144 C 0.41236 0.06743 0.80823 0.0
C1145 C 0.40424 0.06219 0.66768 0.0
C1146 C 0.40888 0.06998 0.71707 0.0
C1147 C 0.42712 0.09028 0.85902 0.0
C1148 C 0.42001 0.08369 0.8105 0.0
H1149 H 0.42095 0.05555 0.55034 0.0
H1150 H 0.42742 0.07017 0.62951 0.0
H1151 H 0.40149 0.04792 0.76151 0.0
H1152 H 0.41966 0.08929 0.98605 0.0
H1153 H 0.40666 0.08052 0.90631 0.0
C1154 C 0.44665 0.38762 0.09541 0.0
C1155 C 0.45413 0.40018 0.06452 0.0
C1156 C 0.43761 0.39227 0.13905 0.0
C1157 C 0.41642 0.42901 0.20217 0.0
H1158 H 0.42727 0.40481 0.32595 0.0
C1159 C 0.38698 0.44887 0.39358 0.0
C1160 C 0.3987 0.4504 0.43361 0.0
C1161 C 0.39166 0.44062 0.34867 0.0
C1162 C 0.42408 0.41167 0.29169 0.0
H1163 H 0.45755 0.42749 0.05449 0.0
H1164 H 0.44188 0.43556 0.13028 0.0
H1165 H 0.4391 0.39482 0.24573 0.0
H1166 H 0.42427 0.44382 0.45854 0.0
H1167 H 0.43243 0.42955 0.38033 0.0
H1168 H 0.40195 0.44624 0.24825 0.0
C1169 C 0.44286 0.42212 0.12074 0.0
C1170 C 0.43072 0.40585 0.24565 0.0
C1171 C 0.45195 0.41748 0.07739 0.0
C1172 C 0.41494 0.4429 0.42846 0.0
C1173 C 0.41959 0.43461 0.38367 0.0
C1174 C 0.40974 0.43479 0.24814 0.0
C1175 C 0.43576 0.40958 0.15246 0.0
C1176 C 0.42724 0.41465 0.20049 0.0
C1177 C 0.40812 0.43365 0.34288 0.0
C1178 C 0.41376 0.42639 0.29359 0.0
H1179 H 0.44809 0.37417 0.08655 0.0
H1180 H 0.43216 0.38232 0.16247 0.0
H1181 H 0.41334 0.43596 0.16797 0.0
H1182 H 0.37434 0.45445 0.39633 0.0
H1183 H 0.38245 0.43991 0.31818 0.0
loop_
_geom_bond_atom_site_label_1
_geom_bond_atom_site_label_2
_geom_bond_distance
_geom_bond_site_symmetry_2
_ccdc_geom_bond_type
Mg0 O1 2.028 . S
Mg0 O7 1.986 . S
Mg0 O9 2.114 . S
Mg0 O10 2.251 . S
Mg0 O13 2.010 1_455 S
O1 Mg0 2.028 . S
O1 C4 1.250 . S
O2 Mg3 2.028 . S
O2 C4 1.248 . S
Mg3 O2 2.028 . S
Mg3 O8 2.032 . S
Mg3 O10 2.079 . S
C4 O1 1.250 . S
C4 O2 1.248 . S
C5 O6 1.264 . S
C5 O13 1.249 . S
O6 C5 1.264 . S
O7 Mg0 1.986 . S
O7 C11 1.246 . S
O8 Mg3 2.032 . S
O8 C11 1.259 . S
O9 Mg0 2.114 . S
O9 C12 1.252 . S
O10 Mg0 2.251 . S
O10 Mg3 2.079 . S
O10 C12 1.273 . S
C11 O7 1.246 . S
C11 O8 1.259 . S
C12 O9 1.252 . S
C12 O10 1.273 . S
O13 Mg0 2.010 1_655 S
O13 C5 1.249 . S
Mg14 O15 2.028 . S
Mg14 O21 1.986 . S
Mg14 O23 2.114 . S
Mg14 O24 2.251 . S
Mg14 O27 2.010 1_545 S
O15 Mg14 2.028 . S
O15 C18 1.250 . S
O16 Mg17 2.028 . S
O16 C18 1.248 . S
Mg17 O16 2.028 . S
Mg17 O22 2.032 . S
Mg17 O24 2.079 . S
C18 O15 1.250 . S
C18 O16 1.248 . S
C19 O20 1.264 . S
C19 O27 1.249 . S
O20 C19 1.264 . S
O21 Mg14 1.986 . S
O21 C25 1.246 . S
O22 Mg17 2.032 . S
O22 C25 1.259 . S
O23 Mg14 2.114 . S
O23 C26 1.252 . S
O24 Mg14 2.251 . S
O24 Mg17 2.079 . S
O24 C26 1.273 . S
C25 O21 1.246 . S
C25 O22 1.259 . S
C26 O23 1.252 . S
C26 O24 1.273 . S
O27 Mg14 2.010 1_565 S
O27 C19 1.249 . S
Mg28 O29 2.028 . S
Mg28 O35 1.986 . S
Mg28 O37 2.114 . S
Mg28 O38 2.251 . S
Mg28 O41 2.010 . S
O29 Mg28 2.028 . S
O29 C32 1.250 . S
O30 Mg31 2.028 . S
O30 C32 1.248 . S
Mg31 O30 2.028 . S
Mg31 O36 2.032 . S
Mg31 O38 2.079 . S
C32 O29 1.250 . S
C32 O30 1.248 . S
C33 O34 1.264 . S
C33 O41 1.249 . S
O34 C33 1.264 . S
O35 Mg28 1.986 . S
O35 C39 1.246 . S
O36 Mg31 2.032 . S
O36 C39 1.259 . S
O37 Mg28 2.114 . S
O37 C40 1.252 . S
O38 Mg28 2.251 . S
O38 Mg31 2.079 . S
O38 C40 1.273 . S
C39 O35 1.246 . S
C39 O36 1.259 . S
C40 O37 1.252 . S
C40 O38 1.273 . S
O41 Mg28 2.010 . S
O41 C33 1.249 . S
Mg42 O43 2.028 . S
Mg42 O49 1.986 . S
Mg42 O51 2.114 . S
Mg42 O52 2.251 . S
Mg42 O55 2.010 . S
O43 Mg42 2.028 . S
O43 C46 1.250 . S
O44 Mg45 2.028 . S
O44 C46 1.248 . S
Mg45 O44 2.028 . S
Mg45 O50 2.032 . S
Mg45 O52 2.079 . S
C46 O43 1.250 . S
C46 O44 1.248 . S
C47 O48 1.264 . S
C47 O55 1.249 . S
O48 C47 1.264 . S
O49 Mg42 1.986 . S
O49 C53 1.246 . S
O50 Mg45 2.032 . S
O50 C53 1.259 . S
O51 Mg42 2.114 . S
O51 C54 1.252 . S
O52 Mg42 2.251 . S
O52 Mg45 2.079 . S
O52 C54 1.273 . S
C53 O49 1.246 . S
C53 O50 1.259 . S
C54 O51 1.252 . S
C54 O52 1.273 . S
O55 Mg42 2.010 . S
O55 C47 1.249 . S
Mg56 O57 2.028 . S
Mg56 O63 1.986 . S
Mg56 O65 2.114 . S
Mg56 O66 2.251 . S
Mg56 O69 2.010 1_455 S
O57 Mg56 2.028 . S
O57 C60 1.250 . S
O58 Mg59 2.028 . S
O58 C60 1.248 . S
Mg59 O58 2.028 . S
Mg59 O64 2.032 . S
Mg59 O66 2.079 . S
C60 O57 1.250 . S
C60 O58 1.248 . S
C61 O62 1.264 . S
C61 O69 1.249 . S
O62 C61 1.264 . S
O63 Mg56 1.986 . S
O63 C67 1.246 . S
O64 Mg59 2.032 . S
O64 C67 1.259 . S
O65 Mg56 2.114 . S
O65 C68 1.252 . S
O66 Mg56 2.251 . S
O66 Mg59 2.079 . S
O66 C68 1.273 . S
C67 O63 1.246 . S
C67 O64 1.259 . S
C68 O65 1.252 . S
C68 O66 1.273 . S
O69 Mg56 2.010 1_655 S
O69 C61 1.249 . S
Mg70 O71 2.028 . S
Mg70 O77 1.986 . S
Mg70 O79 2.114 . S
Mg70 O80 2.251 . S
Mg70 O83 2.010 1_545 S
O71 Mg70 2.028 . S
O71 C74 1.250 . S
O72 Mg73 2.028 . S
O72 C74 1.248 . S
Mg73 O72 2.028 . S
Mg73 O78 2.032 . S
Mg73 O80 2.079 . S
C74 O71 1.250 . S
C74 O72 1.248 . S
C75 O76 1.264 . S
C75 O83 1.249 . S
O76 C75 1.264 . S
O77 Mg70 1.986 . S
O77 C81 1.246 . S
O78 Mg73 2.032 . S
O78 C81 1.259 . S
O79 Mg70 2.114 . S
O79 C82 1.252 . S
O80 Mg70 2.251 . S
O80 Mg73 2.079 . S
O80 C82 1.273 . S
C81 O77 1.246 . S
C81 O78 1.259 . S
C82 O79 1.252 . S
C82 O80 1.273 . S
O83 Mg70 2.010 1_565 S
O83 C75 1.249 . S
Mg84 O85 2.028 . S
Mg84 O91 1.986 . S
Mg84 O93 2.114 . S
Mg84 O94 2.251 . S
Mg84 O97 2.010 . S
O85 Mg84 2.028 . S
O85 C88 1.250 . S
O86 Mg87 2.028 . S
O86 C88 1.248 . S
Mg87 O86 2.028 . S
Mg87 O92 2.032 . S
Mg87 O94 2.079 . S
C88 O85 1.250 . S
C88 O86 1.248 . S
C89 O90 1.264 . S
C89 O97 1.249 . S
O90 C89 1.264 . S
O91 Mg84 1.986 . S
O91 C95 1.246 . S
O92 Mg87 2.032 . S
O92 C95 1.259 . S
O93 Mg84 2.114 . S
O93 C96 1.252 . S
O94 Mg84 2.251 . S
O94 Mg87 2.079 . S
O94 C96 1.273 . S
C95 O91 1.246 . S
C95 O92 1.259 . S
C96 O93 1.252 . S
C96 O94 1.273 . S
O97 Mg84 2.010 . S
O97 C89 1.249 . S
Mg98 O99 2.028 . S
Mg98 O105 1.986 . S
Mg98 O107 2.114 . S
Mg98 O108 2.251 . S
Mg98 O111 2.010 . S
O99 Mg98 2.028 . S
O99 C102 1.250 . S
O100 Mg101 2.028 . S
O100 C102 1.248 . S
Mg101 O100 2.028 . S
Mg101 O106 2.032 . S
Mg101 O108 2.079 . S
C102 O99 1.250 . S
C102 O100 1.248 . S
C103 O104 1.264 . S
C103 O111 1.249 . S
O104 C103 1.264 . S
O105 Mg98 1.986 . S
O105 C109 1.246 . S
O106 Mg101 2.032 . S
O106 C109 1.259 . S
O107 Mg98 2.114 . S
O107 C110 1.252 . S
O108 Mg98 2.251 . S
O108 Mg101 2.079 . S
O108 C110 1.273 . S
C109 O105 1.246 . S
C109 O106 1.259 . S
C110 O107 1.252 . S
C110 O108 1.273 . S
O111 Mg98 2.010 . S
O111 C103 1.249 . S
Mg112 O113 2.028 . S
Mg112 O119 1.986 . S
Mg112 O121 2.114 . S
Mg112 O122 2.251 . S
Mg112 O125 2.010 1_655 S
O113 Mg112 2.028 . S
O113 C116 1.250 . S
O114 Mg115 2.028 . S
O114 C116 1.248 . S
Mg115 O114 2.028 . S
Mg115 O120 2.032 . S
Mg115 O122 2.079 . S
C116 O113 1.250 . S
C116 O114 1.248 . S
C117 O118 1.264 . S
C117 O125 1.249 . S
O118 C117 1.264 . S
O119 Mg112 1.986 . S
O119 C123 1.246 . S
O120 Mg115 2.032 . S
O120 C123 1.259 . S
O121 Mg112 2.114 . S
O121 C124 1.252 . S
O122 Mg112 2.251 . S
O122 Mg115 2.079 . S
O122 C124 1.273 . S
C123 O119 1.246 . S
C123 O120 1.259 . S
C124 O121 1.252 . S
C124 O122 1.273 . S
O125 Mg112 2.010 1_455 S
O125 C117 1.249 . S
Mg126 O127 2.028 . S
Mg126 O133 1.986 . S
Mg126 O135 2.114 . S
Mg126 O136 2.251 . S
Mg126 O139 2.010 1_565 S
O127 Mg126 2.028 . S
O127 C130 1.250 . S
O128 Mg129 2.028 . S
O128 C130 1.248 . S
Mg129 O128 2.028 . S
Mg129 O134 2.032 . S
Mg129 O136 2.079 . S
C130 O127 1.250 . S
C130 O128 1.248 . S
C131 O132 1.264 . S
C131 O139 1.249 . S
O132 C131 1.264 . S
O133 Mg126 1.986 . S
O133 C137 1.246 . S
O134 Mg129 2.032 . S
O134 C137 1.259 . S
O135 Mg126 2.114 . S
O135 C138 1.252 . S
O136 Mg126 2.251 . S
O136 Mg129 2.079 . S
O136 C138 1.273 . S
C137 O133 1.246 . S
C137 O134 1.259 . S
C138 O135 1.252 . S
C138 O136 1.273 . S
O139 Mg126 2.010 1_545 S
O139 C131 1.249 . S
Mg140 O141 2.028 . S
Mg140 O147 1.986 . S
Mg140 O149 2.114 . S
Mg140 O150 2.251 . S
Mg140 O153 2.010 . S
O141 Mg140 2.028 . S
O141 C144 1.250 . S
O142 Mg143 2.028 . S
O142 C144 1.248 . S
Mg143 O142 2.028 . S
Mg143 O148 2.032 . S
Mg143 O150 2.079 . S
C144 O141 1.250 . S
C144 O142 1.248 . S
C145 O146 1.264 . S
C145 O153 1.249 . S
O146 C145 1.264 . S
O147 Mg140 1.986 . S
O147 C151 1.246 . S
O148 Mg143 2.032 . S
O148 C151 1.259 . S
O149 Mg140 2.114 . S
O149 C152 1.252 . S
O150 Mg140 2.251 . S
O150 Mg143 2.079 . S
O150 C152 1.273 . S
C151 O147 1.246 . S
C151 O148 1.259 . S
C152 O149 1.252 . S
C152 O150 1.273 . S
O153 Mg140 2.010 . S
O153 C145 1.249 . S
Mg154 O155 2.028 . S
Mg154 O161 1.986 . S
Mg154 O163 2.114 . S
Mg154 O164 2.251 . S
Mg154 O167 2.010 . S
O155 Mg154 2.028 . S
O155 C158 1.250 . S
O156 Mg157 2.028 . S
O156 C158 1.248 . S
Mg157 O156 2.028 . S
Mg157 O162 2.032 . S
Mg157 O164 2.079 . S
C158 O155 1.250 . S
C158 O156 1.248 . S
C159 O160 1.264 . S
C159 O167 1.249 . S
O160 C159 1.264 . S
O161 Mg154 1.986 . S
O161 C165 1.246 . S
O162 Mg157 2.032 . S
O162 C165 1.259 . S
O163 Mg154 2.114 . S
O163 C166 1.252 . S
O164 Mg154 2.251 . S
O164 Mg157 2.079 . S
O164 C166 1.273 . S
C165 O161 1.246 . S
C165 O162 1.259 . S
C166 O163 1.252 . S
C166 O164 1.273 . S
O167 Mg154 2.010 . S
O167 C159 1.249 . S
Mg168 O169 2.028 . S
Mg168 O175 1.986 . S
Mg168 O177 2.114 . S
Mg168 O178 2.251 . S
Mg168 O181 2.010 1_655 S
O169 Mg168 2.028 . S
O169 C172 1.250 . S
O170 Mg171 2.028 . S
O170 C172 1.248 . S
Mg171 O170 2.028 . S
Mg171 O176 2.032 . S
Mg171 O178 2.079 . S
C172 O169 1.250 . S
C172 O170 1.248 . S
C173 O174 1.264 . S
C173 O181 1.249 . S
O174 C173 1.264 . S
O175 Mg168 1.986 . S
O175 C179 1.246 . S
O176 Mg171 2.032 . S
O176 C179 1.259 . S
O177 Mg168 2.114 . S
O177 C180 1.252 . S
O178 Mg168 2.251 . S
O178 Mg171 2.079 . S
O178 C180 1.273 . S
C179 O175 1.246 . S
C179 O176 1.259 . S
C180 O177 1.252 . S
C180 O178 1.273 . S
O181 Mg168 2.010 1_455 S
O181 C173 1.249 . S
Mg182 O183 2.028 . S
Mg182 O189 1.986 . S
Mg182 O191 2.114 . S
Mg182 O192 2.251 . S
Mg182 O195 2.010 1_565 S
O183 Mg182 2.028 . S
O183 C186 1.250 . S
O184 Mg185 2.028 . S
O184 C186 1.248 . S
Mg185 O184 2.028 . S
Mg185 O190 2.032 . S
Mg185 O192 2.079 . S
C186 O183 1.250 . S
C186 O184 1.248 . S
C187 O188 1.264 . S
C187 O195 1.249 . S
O188 C187 1.264 . S
O189 Mg182 1.986 . S
O189 C193 1.246 . S
O190 Mg185 2.032 . S
O190 C193 1.259 . S
O191 Mg182 2.114 . S
O191 C194 1.252 . S
O192 Mg182 2.251 . S
O192 Mg185 2.079 . S
O192 C194 1.273 . S
C193 O189 1.246 . S
C193 O190 1.259 . S
C194 O191 1.252 . S
C194 O192 1.273 . S
O195 Mg182 2.010 1_545 S
O195 C187 1.249 . S
Mg196 O197 2.028 . S
Mg196 O203 1.986 . S
Mg196 O205 2.114 . S
Mg196 O206 2.251 . S
Mg196 O209 2.010 . S
O197 Mg196 2.028 . S
O197 C200 1.250 . S
O198 Mg199 2.028 . S
O198 C200 1.248 . S
Mg199 O198 2.028 . S
Mg199 O204 2.032 . S
Mg199 O206 2.079 . S
C200 O197 1.250 . S
C200 O198 1.248 . S
C201 O202 1.264 . S
C201 O209 1.249 . S
O202 C201 1.264 . S
O203 Mg196 1.986 . S
O203 C207 1.246 . S
O204 Mg199 2.032 . S
O204 C207 1.259 . S
O205 Mg196 2.114 . S
O205 C208 1.252 . S
O206 Mg196 2.251 . S
O206 Mg199 2.079 . S
O206 C208 1.273 . S
C207 O203 1.246 . S
C207 O204 1.259 . S
C208 O205 1.252 . S
C208 O206 1.273 . S
O209 Mg196 2.010 . S
O209 C201 1.249 . S
Mg210 O211 2.028 . S
Mg210 O217 1.986 . S
Mg210 O219 2.114 . S
Mg210 O220 2.251 . S
Mg210 O223 2.010 . S
O211 Mg210 2.028 . S
O211 C214 1.250 . S
O212 Mg213 2.028 . S
O212 C214 1.248 . S
Mg213 O212 2.028 . S
Mg213 O218 2.032 . S
Mg213 O220 2.079 . S
C214 O211 1.250 . S
C214 O212 1.248 . S
C215 O216 1.264 . S
C215 O223 1.249 . S
O216 C215 1.264 . S
O217 Mg210 1.986 . S
O217 C221 1.246 . S
O218 Mg213 2.032 . S
O218 C221 1.259 . S
O219 Mg210 2.114 . S
O219 C222 1.252 . S
O220 Mg210 2.251 . S
O220 Mg213 2.079 . S
O220 C222 1.273 . S
C221 O217 1.246 . S
C221 O218 1.259 . S
C222 O219 1.252 . S
C222 O220 1.273 . S
O223 Mg210 2.010 . S
O223 C215 1.249 . S
C224 C225 1.349 . S
C224 C226 1.327 . S
C224 H249 0.950 . S
C225 C224 1.349 . S
C225 C241 1.349 . S
C226 C224 1.327 . S
C226 C245 1.429 . S
C226 H250 0.950 . S
C227 C244 1.574 . S
C227 C246 1.368 1_556 S
C227 H251 0.949 . S
H228 C232 0.949 . S
C229 C230 1.349 . S
C229 C231 1.327 . S
C229 H252 0.950 . S
C230 C229 1.349 . S
C230 C242 1.349 . S
C231 C229 1.327 . S
C231 C247 1.429 . S
C231 H253 0.950 . S
C232 H228 0.949 . S
C232 C240 1.574 . S
C232 C248 1.368 1_554 S
H233 C241 0.950 . S
H234 C239 0.950 1_556 S
H235 C240 0.949 . S
H236 C242 0.950 . S
H237 C243 0.950 1_554 S
H238 C244 0.949 . S
C239 H234 0.950 1_554 S
C239 C241 1.327 . S
C239 C245 1.429 . S
C240 C232 1.574 . S
C240 H235 0.949 . S
C240 C246 1.368 . S
C241 C225 1.349 . S
C241 H233 0.950 . S
C241 C239 1.327 . S
C242 C230 1.349 . S
C242 H236 0.950 . S
C242 C243 1.327 . S
C243 H237 0.950 1_556 S
C243 C242 1.327 . S
C243 C247 1.429 . S
C244 C227 1.574 . S
C244 H238 0.949 . S
C244 C248 1.368 . S
C245 C226 1.429 . S
C245 C239 1.429 . S
C245 C246 1.523 . S
C246 C227 1.368 1_554 S
C246 C240 1.368 . S
C246 C245 1.523 . S
C247 C231 1.429 . S
C247 C243 1.429 . S
C247 C248 1.523 . S
C248 C232 1.368 1_556 S
C248 C244 1.368 . S
C248 C247 1.523 . S
H249 C224 0.950 . S
H250 C226 0.950 . S
H251 C227 0.949 . S
H252 C229 0.950 . S
H253 C231 0.950 . S
C254 C255 1.349 . S
C254 C256 1.327 . S
C254 H279 0.950 . S
C255 C254 1.349 . S
C255 C271 1.349 . S
C256 C254 1.327 . S
C256 C275 1.429 . S
C256 H280 0.997 . S
C257 C274 1.574 . S
C257 C276 1.368 . S
C257 H281 0.949 . S
H258 C262 0.986 . S
C259 C260 1.349 . S
C259 C261 1.327 . S
C259 H282 0.950 . S
C260 C259 1.349 . S
C260 C272 1.349 . S
C261 C259 1.327 . S
C261 C277 1.429 . S
C261 H283 0.950 . S
C262 H258 0.986 . S
C262 C270 1.574 . S
C262 C278 1.368 . S
H263 C271 0.950 . S
H264 C269 0.950 . S
H265 C270 0.986 . S
H266 C272 0.950 . S
H267 C273 0.997 . S
H268 C274 0.949 . S
C269 H264 0.950 . S
C269 C271 1.327 . S
C269 C275 1.429 . S
C270 C262 1.574 . S
C270 H265 0.986 . S
C270 C276 1.368 . S
C271 C255 1.349 . S
C271 H263 0.950 . S
C271 C269 1.327 . S
C272 C260 1.349 . S
C272 H266 0.950 . S
C272 C273 1.327 . S
C273 H267 0.997 . S
C273 C272 1.327 . S
C273 C277 1.429 . S
C274 C257 1.574 . S
C274 H268 0.949 . S
C274 C278 1.368 . S
C275 C256 1.429 . S
C275 C269 1.429 . S
C275 C276 1.523 . S
C276 C257 1.368 . S
C276 C270 1.368 . S
C276 C275 1.523 . S
C277 C261 1.429 . S
C277 C273 1.429 . S
C277 C278 1.523 . S
C278 C262 1.368 . S
C278 C274 1.368 . S
C278 C277 1.523 . S
H279 C254 0.950 . S
H280 C256 0.997 . S
H281 C257 0.949 . S
H282 C259 0.950 . S
H283 C261 0.950 . S
C284 C285 1.349 . S
C284 C286 1.327 . S
C284 H309 0.950 . S
C285 C284 1.349 . S
C285 C301 1.349 . S
C286 C284 1.327 . S
C286 C305 1.429 . S
C286 H310 0.950 . S
C287 C304 1.574 . S
C287 C306 1.368 1_556 S
C287 H311 0.949 . S
H288 C292 0.949 . S
C289 C290 1.349 . S
C289 C291 1.327 . S
C289 H312 0.950 . S
C290 C289 1.349 . S
C290 C302 1.349 . S
C291 C289 1.327 . S
C291 C307 1.429 . S
C291 H313 0.950 . S
C292 H288 0.949 . S
C292 C300 1.574 . S
C292 C308 1.368 1_554 S
H293 C301 0.950 . S
H294 C299 0.950 1_556 S
H295 C300 0.949 . S
H296 C302 0.950 . S
H297 C303 0.950 1_554 S
H298 C304 0.949 . S
C299 H294 0.950 1_554 S
C299 C301 1.327 . S
C299 C305 1.429 . S
C300 C292 1.574 . S
C300 H295 0.949 . S
C300 C306 1.368 . S
C301 C285 1.349 . S
C301 H293 0.950 . S
C301 C299 1.327 . S
C302 C290 1.349 . S
C302 H296 0.950 . S
C302 C303 1.327 . S
C303 H297 0.950 1_556 S
C303 C302 1.327 . S
C303 C307 1.429 . S
C304 C287 1.574 . S
C304 H298 0.949 . S
C304 C308 1.368 . S
C305 C286 1.429 . S
C305 C299 1.429 . S
C305 C306 1.523 . S
C306 C287 1.368 1_554 S
C306 C300 1.368 . S
C306 C305 1.523 . S
C307 C291 1.429 . S
C307 C303 1.429 . S
C307 C308 1.523 . S
C308 C292 1.368 1_556 S
C308 C304 1.368 . S
C308 C307 1.523 . S
H309 C284 0.950 . S
H310 C286 0.950 . S
H311 C287 0.949 . S
H312 C289 0.950 . S
H313 C291 0.950 . S
C314 C315 1.349 . S
C314 C316 1.327 . S
C314 H339 0.950 . S
C315 C314 1.349 . S
C315 C331 1.349 . S
C316 C314 1.327 . S
C316 C335 1.429 . S
C316 H340 0.950 . S
C317 C334 1.574 . S
C317 C336 1.368 . S
C317 H341 0.949 . S
H318 C322 0.949 . S
C319 C320 1.349 . S
C319 C321 1.327 . S
C319 H342 0.950 . S
C320 C319 1.349 . S
C320 C332 1.349 . S
C321 C319 1.327 . S
C321 C337 1.429 . S
C321 H343 0.950 . S
C322 H318 0.949 . S
C322 C330 1.574 . S
C322 C338 1.368 . S
H323 C331 0.950 . S
H324 C329 0.950 . S
H325 C330 0.949 . S
H326 C332 0.950 . S
H327 C333 0.950 . S
H328 C334 0.949 . S
C329 H324 0.950 . S
C329 C331 1.327 . S
C329 C335 1.429 . S
C330 C322 1.574 . S
C330 H325 0.949 . S
C330 C336 1.368 . S
C331 C315 1.349 . S
C331 H323 0.950 . S
C331 C329 1.327 . S
C332 C320 1.349 . S
C332 H326 0.950 . S
C332 C333 1.327 . S
C333 H327 0.950 . S
C333 C332 1.327 . S
C333 C337 1.429 . S
C334 C317 1.574 . S
C334 H328 0.949 . S
C334 C338 1.368 . S
C335 C316 1.429 . S
C335 C329 1.429 . S
C335 C336 1.523 . S
C336 C317 1.368 . S
C336 C330 1.368 . S
C336 C335 1.523 . S
C337 C321 1.429 . S
C337 C333 1.429 . S
C337 C338 1.523 . S
C338 C322 1.368 . S
C338 C334 1.368 . S
C338 C337 1.523 . S
H339 C314 0.950 . S
H340 C316 0.950 . S
H341 C317 0.949 . S
H342 C319 0.950 . S
H343 C321 0.950 . S
C344 C345 1.349 . S
C344 C346 1.327 . S
C344 H369 0.950 . S
C345 C344 1.349 . S
C345 C361 1.349 . S
C346 C344 1.327 . S
C346 C365 1.429 . S
C346 H370 0.950 1_556 S
C347 C364 1.574 . S
C347 C366 1.368 . S
C347 H371 0.949 . S
H348 C352 0.949 . S
C349 C350 1.349 . S
C349 C351 1.327 . S
C349 H372 0.950 . S
C350 C349 1.349 . S
C350 C362 1.349 . S
C351 C349 1.327 . S
C351 C367 1.429 . S
C351 H373 0.950 1_554 S
C352 H348 0.949 . S
C352 C360 1.574 . S
C352 C368 1.368 . S
H353 C361 0.950 . S
H354 C359 0.950 . S
H355 C360 0.949 . S
H356 C362 0.950 . S
H357 C363 0.950 . S
H358 C364 0.949 . S
C359 H354 0.950 . S
C359 C361 1.327 . S
C359 C365 1.429 . S
C360 C352 1.574 . S
C360 H355 0.949 . S
C360 C366 1.368 1_554 S
C361 C345 1.349 . S
C361 H353 0.950 . S
C361 C359 1.327 . S
C362 C350 1.349 . S
C362 H356 0.950 . S
C362 C363 1.327 . S
C363 H357 0.950 . S
C363 C362 1.327 . S
C363 C367 1.429 . S
C364 C347 1.574 . S
C364 H358 0.949 . S
C364 C368 1.368 1_556 S
C365 C346 1.429 . S
C365 C359 1.429 . S
C365 C366 1.523 . S
C366 C347 1.368 . S
C366 C360 1.368 1_556 S
C366 C365 1.523 . S
C367 C351 1.429 . S
C367 C363 1.429 . S
C367 C368 1.523 . S
C368 C352 1.368 . S
C368 C364 1.368 1_554 S
C368 C367 1.523 . S
H369 C344 0.950 . S
H370 C346 0.950 1_554 S
H371 C347 0.949 . S
H372 C349 0.950 . S
H373 C351 0.950 1_556 S
C374 C375 1.349 . S
C374 C376 1.327 . S
C374 H399 0.950 . S
C375 C374 1.349 . S
C375 C391 1.349 . S
C376 C374 1.327 . S
C376 C395 1.429 . S
C376 H400 0.997 . S
C377 C394 1.574 . S
C377 C396 1.368 . S
C377 H401 0.949 . S
H378 C382 0.986 . S
C379 C380 1.349 . S
C379 C381 1.327 . S
C379 H402 0.950 . S
C380 C379 1.349 . S
C380 C392 1.349 . S
C381 C379 1.327 . S
C381 C397 1.429 . S
C381 H403 0.950 . S
C382 H378 0.986 . S
C382 C390 1.574 . S
C382 C398 1.368 . S
H383 C391 0.950 . S
H384 C389 0.950 . S
H385 C390 0.986 . S
H386 C392 0.950 . S
H387 C393 0.997 . S
H388 C394 0.949 . S
C389 H384 0.950 . S
C389 C391 1.327 . S
C389 C395 1.429 . S
C390 C382 1.574 . S
C390 H385 0.986 . S
C390 C396 1.368 . S
C391 C375 1.349 . S
C391 H383 0.950 . S
C391 C389 1.327 . S
C392 C380 1.349 . S
C392 H386 0.950 . S
C392 C393 1.327 . S
C393 H387 0.997 . S
C393 C392 1.327 . S
C393 C397 1.429 . S
C394 C377 1.574 . S
C394 H388 0.949 . S
C394 C398 1.368 . S
C395 C376 1.429 . S
C395 C389 1.429 . S
C395 C396 1.523 . S
C396 C377 1.368 . S
C396 C390 1.368 . S
C396 C395 1.523 . S
C397 C381 1.429 . S
C397 C393 1.429 . S
C397 C398 1.523 . S
C398 C382 1.368 . S
C398 C394 1.368 . S
C398 C397 1.523 . S
H399 C374 0.950 . S
H400 C376 0.997 . S
H401 C377 0.949 . S
H402 C379 0.950 . S
H403 C381 0.950 . S
C404 C405 1.349 . S
C404 C406 1.327 . S
C404 H429 0.950 . S
C405 C404 1.349 . S
C405 C421 1.349 . S
C406 C404 1.327 . S
C406 C425 1.429 . S
C406 H430 0.950 1_556 S
C407 C424 1.574 . S
C407 C426 1.368 . S
C407 H431 0.949 . S
H408 C412 0.949 . S
C409 C410 1.349 . S
C409 C411 1.327 . S
C409 H432 0.950 . S
C410 C409 1.349 . S
C410 C422 1.349 . S
C411 C409 1.327 . S
C411 C427 1.429 . S
C411 H433 0.950 1_554 S
C412 H408 0.949 . S
C412 C420 1.574 . S
C412 C428 1.368 . S
H413 C421 0.950 . S
H414 C419 0.950 . S
H415 C420 0.949 . S
H416 C422 0.950 . S
H417 C423 0.950 . S
H418 C424 0.949 . S
C419 H414 0.950 . S
C419 C421 1.327 . S
C419 C425 1.429 . S
C420 C412 1.574 . S
C420 H415 0.949 . S
C420 C426 1.368 1_554 S
C421 C405 1.349 . S
C421 H413 0.950 . S
C421 C419 1.327 . S
C422 C410 1.349 . S
C422 H416 0.950 . S
C422 C423 1.327 . S
C423 H417 0.950 . S
C423 C422 1.327 . S
C423 C427 1.429 . S
C424 C407 1.574 . S
C424 H418 0.949 . S
C424 C428 1.368 1_556 S
C425 C406 1.429 . S
C425 C419 1.429 . S
C425 C426 1.523 . S
C426 C407 1.368 . S
C426 C420 1.368 1_556 S
C426 C425 1.523 . S
C427 C411 1.429 . S
C427 C423 1.429 . S
C427 C428 1.523 . S
C428 C412 1.368 . S
C428 C424 1.368 1_554 S
C428 C427 1.523 . S
H429 C404 0.950 . S
H430 C406 0.950 1_554 S
H431 C407 0.949 . S
H432 C409 0.950 . S
H433 C411 0.950 1_556 S
C434 C435 1.349 . S
C434 C436 1.327 . S
C434 H459 0.950 . S
C435 C434 1.349 . S
C435 C451 1.349 . S
C436 C434 1.327 . S
C436 C455 1.429 . S
C436 H460 0.950 . S
C437 C454 1.574 . S
C437 C456 1.368 . S
C437 H461 0.949 . S
H438 C442 0.949 . S
C439 C440 1.349 . S
C439 C441 1.327 . S
C439 H462 0.950 . S
C440 C439 1.349 . S
C440 C452 1.349 . S
C441 C439 1.327 . S
C441 C457 1.429 . S
C441 H463 0.950 . S
C442 H438 0.949 . S
C442 C450 1.574 . S
C442 C458 1.368 . S
H443 C451 0.950 . S
H444 C449 0.950 . S
H445 C450 0.949 . S
H446 C452 0.950 . S
H447 C453 0.950 . S
H448 C454 0.949 . S
C449 H444 0.950 . S
C449 C451 1.327 . S
C449 C455 1.429 . S
C450 C442 1.574 . S
C450 H445 0.949 . S
C450 C456 1.368 . S
C451 C435 1.349 . S
C451 H443 0.950 . S
C451 C449 1.327 . S
C452 C440 1.349 . S
C452 H446 0.950 . S
C452 C453 1.327 . S
C453 H447 0.950 . S
C453 C452 1.327 . S
C453 C457 1.429 . S
C454 C437 1.574 . S
C454 H448 0.949 . S
C454 C458 1.368 . S
C455 C436 1.429 . S
C455 C449 1.429 . S
C455 C456 1.523 . S
C456 C437 1.368 . S
C456 C450 1.368 . S
C456 C455 1.523 . S
C457 C441 1.429 . S
C457 C453 1.429 . S
C457 C458 1.523 . S
C458 C442 1.368 . S
C458 C454 1.368 . S
C458 C457 1.523 . S
H459 C434 0.950 . S
H460 C436 0.950 . S
H461 C437 0.949 . S
H462 C439 0.950 . S
H463 C441 0.950 . S
C464 C465 1.349 . S
C464 C466 1.327 . S
C464 H489 0.950 . S
C465 C464 1.349 . S
C465 C481 1.349 . S
C466 C464 1.327 . S
C466 C485 1.429 . S
C466 H490 0.950 . S
C467 C484 1.574 . S
C467 C486 1.368 . S
C467 H491 0.949 . S
H468 C472 0.949 . S
C469 C470 1.349 . S
C469 C471 1.327 . S
C469 H492 0.950 . S
C470 C469 1.349 . S
C470 C482 1.349 . S
C471 C469 1.327 . S
C471 C487 1.429 . S
C471 H493 0.950 . S
C472 H468 0.949 . S
C472 C480 1.574 . S
C472 C488 1.368 . S
H473 C481 0.950 . S
H474 C479 0.950 . S
H475 C480 0.949 . S
H476 C482 0.950 . S
H477 C483 0.950 . S
H478 C484 0.949 . S
C479 H474 0.950 . S
C479 C481 1.327 . S
C479 C485 1.429 . S
C480 C472 1.574 . S
C480 H475 0.949 . S
C480 C486 1.368 . S
C481 C465 1.349 . S
C481 H473 0.950 . S
C481 C479 1.327 . S
C482 C470 1.349 . S
C482 H476 0.950 . S
C482 C483 1.327 . S
C483 H477 0.950 . S
C483 C482 1.327 . S
C483 C487 1.429 . S
C484 C467 1.574 . S
C484 H478 0.949 . S
C484 C488 1.368 . S
C485 C466 1.429 . S
C485 C479 1.429 . S
C485 C486 1.523 . S
C486 C467 1.368 . S
C486 C480 1.368 . S
C486 C485 1.523 . S
C487 C471 1.429 . S
C487 C483 1.429 . S
C487 C488 1.523 . S
C488 C472 1.368 . S
C488 C484 1.368 . S
C488 C487 1.523 . S
H489 C464 0.950 . S
H490 C466 0.950 . S
H491 C467 0.949 . S
H492 C469 0.950 . S
H493 C471 0.950 . S
C494 C495 1.349 . S
C494 C496 1.327 . S
C494 H519 0.950 . S
C495 C494 1.349 . S
C495 C511 1.349 . S
C496 C494 1.327 . S
C496 C515 1.429 . S
C496 H520 0.950 . S
C497 C514 1.574 . S
C497 C516 1.368 . S
C497 H521 0.949 . S
H498 C502 0.949 . S
C499 C500 1.349 . S
C499 C501 1.327 . S
C499 H522 0.950 . S
C500 C499 1.349 . S
C500 C512 1.349 . S
C501 C499 1.327 . S
C501 C517 1.429 . S
C501 H523 0.950 . S
C502 H498 0.949 . S
C502 C510 1.574 . S
C502 C518 1.368 . S
H503 C511 0.950 . S
H504 C509 0.950 . S
H505 C510 0.949 . S
H506 C512 0.950 . S
H507 C513 0.950 . S
H508 C514 0.949 . S
C509 H504 0.950 . S
C509 C511 1.327 . S
C509 C515 1.429 . S
C510 C502 1.574 . S
C510 H505 0.949 . S
C510 C516 1.368 . S
C511 C495 1.349 . S
C511 H503 0.950 . S
C511 C509 1.327 . S
C512 C500 1.349 . S
C512 H506 0.950 . S
C512 C513 1.327 . S
C513 H507 0.950 . S
C513 C512 1.327 . S
C513 C517 1.429 . S
C514 C497 1.574 . S
C514 H508 0.949 . S
C514 C518 1.368 . S
C515 C496 1.429 . S
C515 C509 1.429 . S
C515 C516 1.523 . S
C516 C497 1.368 . S
C516 C510 1.368 . S
C516 C515 1.523 . S
C517 C501 1.429 . S
C517 C513 1.429 . S
C517 C518 1.523 . S
C518 C502 1.368 . S
C518 C514 1.368 . S
C518 C517 1.523 . S
H519 C494 0.950 . S
H520 C496 0.950 . S
H521 C497 0.949 . S
H522 C499 0.950 . S
H523 C501 0.950 . S
C524 C525 1.349 . S
C524 C526 1.327 . S
C524 H549 0.950 1_556 S
C525 C524 1.349 . S
C525 C541 1.349 . S
C526 C524 1.327 . S
C526 C545 1.429 . S
C526 H550 0.950 . S
C527 C544 1.574 . S
C527 C546 1.368 . S
C527 H551 0.949 . S
H528 C532 0.949 . S
C529 C530 1.349 . S
C529 C531 1.327 . S
C529 H552 0.950 . S
C530 C529 1.349 . S
C530 C542 1.349 . S
C531 C529 1.327 . S
C531 C547 1.429 . S
C531 H553 0.950 . S
C532 H528 0.949 . S
C532 C540 1.574 . S
C532 C548 1.368 . S
H533 C541 0.950 . S
H534 C539 0.950 . S
H535 C540 0.949 . S
H536 C542 0.950 . S
H537 C543 0.950 . S
H538 C544 0.949 . S
C539 H534 0.950 . S
C539 C541 1.327 . S
C539 C545 1.429 . S
C540 C532 1.574 . S
C540 H535 0.949 . S
C540 C546 1.368 . S
C541 C525 1.349 . S
C541 H533 0.950 . S
C541 C539 1.327 . S
C542 C530 1.349 . S
C542 H536 0.950 . S
C542 C543 1.327 . S
C543 H537 0.950 . S
C543 C542 1.327 . S
C543 C547 1.429 . S
C544 C527 1.574 . S
C544 H538 0.949 . S
C544 C548 1.368 . S
C545 C526 1.429 . S
C545 C539 1.429 . S
C545 C546 1.523 . S
C546 C527 1.368 . S
C546 C540 1.368 . S
C546 C545 1.523 . S
C547 C531 1.429 . S
C547 C543 1.429 . S
C547 C548 1.523 . S
C548 C532 1.368 . S
C548 C544 1.368 . S
C548 C547 1.523 . S
H549 C524 0.950 1_554 S
H550 C526 0.950 . S
H551 C527 0.949 . S
H552 C529 0.950 . S
H553 C531 0.950 . S
C554 C555 1.349 . S
C554 C556 1.327 . S
C554 H579 0.950 . S
C555 C554 1.349 . S
C555 C571 1.349 . S
C556 C554 1.327 . S
C556 C575 1.429 . S
C556 H580 0.950 . S
C557 C574 1.574 . S
C557 C576 1.368 . S
C557 H581 0.949 . S
H558 C562 0.949 . S
C559 C560 1.349 . S
C559 C561 1.327 . S
C559 H582 0.950 . S
C560 C559 1.349 . S
C560 C572 1.349 . S
C561 C559 1.327 . S
C561 C577 1.429 . S
C561 H583 0.950 . S
C562 H558 0.949 . S
C562 C570 1.574 . S
C562 C578 1.368 . S
H563 C571 0.950 . S
H564 C569 0.950 . S
H565 C570 0.949 . S
H566 C572 0.950 . S
H567 C573 0.950 . S
H568 C574 0.949 . S
C569 H564 0.950 . S
C569 C571 1.327 . S
C569 C575 1.429 . S
C570 C562 1.574 . S
C570 H565 0.949 . S
C570 C576 1.368 . S
C571 C555 1.349 . S
C571 H563 0.950 . S
C571 C569 1.327 . S
C572 C560 1.349 . S
C572 H566 0.950 . S
C572 C573 1.327 . S
C573 H567 0.950 . S
C573 C572 1.327 . S
C573 C577 1.429 . S
C574 C557 1.574 . S
C574 H568 0.949 . S
C574 C578 1.368 . S
C575 C556 1.429 . S
C575 C569 1.429 . S
C575 C576 1.523 . S
C576 C557 1.368 . S
C576 C570 1.368 . S
C576 C575 1.523 . S
C577 C561 1.429 . S
C577 C573 1.429 . S
C577 C578 1.523 . S
C578 C562 1.368 . S
C578 C574 1.368 . S
C578 C577 1.523 . S
H579 C554 0.950 . S
H580 C556 0.950 . S
H581 C557 0.949 . S
H582 C559 0.950 . S
H583 C561 0.950 . S
C584 C585 1.349 . S
C584 C586 1.327 . S
C584 H609 0.950 . S
C585 C584 1.349 . S
C585 C601 1.349 . S
C586 C584 1.327 . S
C586 C605 1.429 . S
C586 H610 0.950 . S
C587 C604 1.574 . S
C587 C606 1.368 . S
C587 H611 0.949 . S
H588 C592 0.949 . S
C589 C590 1.349 . S
C589 C591 1.327 . S
C589 H612 0.950 . S
C590 C589 1.349 . S
C590 C602 1.349 . S
C591 C589 1.327 . S
C591 C607 1.429 . S
C591 H613 0.950 . S
C592 H588 0.949 . S
C592 C600 1.574 . S
C592 C608 1.368 . S
H593 C601 0.950 . S
H594 C599 0.950 . S
H595 C600 0.949 . S
H596 C602 0.950 1_556 S
H597 C603 0.950 . S
H598 C604 0.949 . S
C599 H594 0.950 . S
C599 C601 1.327 . S
C599 C605 1.429 . S
C600 C592 1.574 . S
C600 H595 0.949 . S
C600 C606 1.368 . S
C601 C585 1.349 . S
C601 H593 0.950 . S
C601 C599 1.327 . S
C602 C590 1.349 . S
C602 H596 0.950 1_554 S
C602 C603 1.327 . S
C603 H597 0.950 . S
C603 C602 1.327 . S
C603 C607 1.429 . S
C604 C587 1.574 . S
C604 H598 0.949 . S
C604 C608 1.368 . S
C605 C586 1.429 . S
C605 C599 1.429 . S
C605 C606 1.523 . S
C606 C587 1.368 . S
C606 C600 1.368 . S
C606 C605 1.523 . S
C607 C591 1.429 . S
C607 C603 1.429 . S
C607 C608 1.523 . S
C608 C592 1.368 . S
C608 C604 1.368 . S
C608 C607 1.523 . S
H609 C584 0.950 . S
H610 C586 0.950 . S
H611 C587 0.949 . S
H612 C589 0.950 . S
H613 C591 0.950 . S
C614 C615 1.349 . S
C614 C616 1.327 . S
C614 H639 0.950 . S
C615 C614 1.349 . S
C615 C631 1.349 . S
C616 C614 1.327 . S
C616 C635 1.429 . S
C616 H640 0.950 . S
C617 C634 1.574 . S
C617 C636 1.368 . S
C617 H641 0.949 . S
H618 C622 0.949 . S
C619 C620 1.349 . S
C619 C621 1.327 . S
C619 H642 0.950 . S
C620 C619 1.349 . S
C620 C632 1.349 . S
C621 C619 1.327 . S
C621 C637 1.429 . S
C621 H643 0.950 . S
C622 H618 0.949 . S
C622 C630 1.574 . S
C622 C638 1.368 . S
H623 C631 0.950 . S
H624 C629 0.950 . S
H625 C630 0.949 . S
H626 C632 0.950 . S
H627 C633 0.950 . S
H628 C634 0.949 . S
C629 H624 0.950 . S
C629 C631 1.327 . S
C629 C635 1.429 . S
C630 C622 1.574 . S
C630 H625 0.949 . S
C630 C636 1.368 . S
C631 C615 1.349 . S
C631 H623 0.950 . S
C631 C629 1.327 . S
C632 C620 1.349 . S
C632 H626 0.950 . S
C632 C633 1.327 . S
C633 H627 0.950 . S
C633 C632 1.327 . S
C633 C637 1.429 . S
C634 C617 1.574 . S
C634 H628 0.949 . S
C634 C638 1.368 . S
C635 C616 1.429 . S
C635 C629 1.429 . S
C635 C636 1.523 . S
C636 C617 1.368 . S
C636 C630 1.368 . S
C636 C635 1.523 . S
C637 C621 1.429 . S
C637 C633 1.429 . S
C637 C638 1.523 . S
C638 C622 1.368 . S
C638 C634 1.368 . S
C638 C637 1.523 . S
H639 C614 0.950 . S
H640 C616 0.950 . S
H641 C617 0.949 . S
H642 C619 0.950 . S
H643 C621 0.950 . S
C644 C645 1.349 . S
C644 C646 1.327 . S
C644 H669 0.950 . S
C645 C644 1.349 . S
C645 C661 1.349 . S
C646 C644 1.327 . S
C646 C665 1.429 . S
C646 H670 0.950 . S
C647 C664 1.574 . S
C647 C666 1.368 . S
C647 H671 0.949 . S
H648 C652 0.949 . S
C649 C650 1.349 . S
C649 C651 1.327 . S
C649 H672 0.950 . S
C650 C649 1.349 . S
C650 C662 1.349 . S
C651 C649 1.327 . S
C651 C667 1.429 . S
C651 H673 0.950 . S
C652 H648 0.949 . S
C652 C660 1.574 . S
C652 C668 1.368 . S
H653 C661 0.950 . S
H654 C659 0.950 . S
H655 C660 0.949 . S
H656 C662 0.950 1_556 S
H657 C663 0.950 . S
H658 C664 0.949 . S
C659 H654 0.950 . S
C659 C661 1.327 . S
C659 C665 1.429 . S
C660 C652 1.574 . S
C660 H655 0.949 . S
C660 C666 1.368 . S
C661 C645 1.349 . S
C661 H653 0.950 . S
C661 C659 1.327 . S
C662 C650 1.349 . S
C662 H656 0.950 1_554 S
C662 C663 1.327 . S
C663 H657 0.950 . S
C663 C662 1.327 . S
C663 C667 1.429 . S
C664 C647 1.574 . S
C664 H658 0.949 . S
C664 C668 1.368 . S
C665 C646 1.429 . S
C665 C659 1.429 . S
C665 C666 1.523 . S
C666 C647 1.368 . S
C666 C660 1.368 . S
C666 C665 1.523 . S
C667 C651 1.429 . S
C667 C663 1.429 . S
C667 C668 1.523 . S
C668 C652 1.368 . S
C668 C664 1.368 . S
C668 C667 1.523 . S
H669 C644 0.950 . S
H670 C646 0.950 . S
H671 C647 0.949 . S
H672 C649 0.950 . S
H673 C651 0.950 . S
C674 C675 1.349 . S
C674 C676 1.327 . S
C674 H699 0.950 . S
C675 C674 1.349 . S
C675 C691 1.349 . S
C676 C674 1.327 . S
C676 C695 1.429 . S
C676 H700 0.950 . S
C677 C694 1.574 . S
C677 C696 1.368 . S
C677 H701 0.949 . S
H678 C682 0.949 . S
C679 C680 1.349 . S
C679 C681 1.327 . S
C679 H702 0.950 . S
C680 C679 1.349 . S
C680 C692 1.349 . S
C681 C679 1.327 . S
C681 C697 1.429 . S
C681 H703 0.950 . S
C682 H678 0.949 . S
C682 C690 1.574 . S
C682 C698 1.368 . S
H683 C691 0.950 . S
H684 C689 0.950 . S
H685 C690 0.949 . S
H686 C692 0.950 . S
H687 C693 0.950 . S
H688 C694 0.949 . S
C689 H684 0.950 . S
C689 C691 1.327 . S
C689 C695 1.429 . S
C690 C682 1.574 . S
C690 H685 0.949 . S
C690 C696 1.368 . S
C691 C675 1.349 . S
C691 H683 0.950 . S
C691 C689 1.327 . S
C692 C680 1.349 . S
C692 H686 0.950 . S
C692 C693 1.327 . S
C693 H687 0.950 . S
C693 C692 1.327 . S
C693 C697 1.429 . S
C694 C677 1.574 . S
C694 H688 0.949 . S
C694 C698 1.368 . S
C695 C676 1.429 . S
C695 C689 1.429 . S
C695 C696 1.523 . S
C696 C677 1.368 . S
C696 C690 1.368 . S
C696 C695 1.523 . S
C697 C681 1.429 . S
C697 C693 1.429 . S
C697 C698 1.523 . S
C698 C682 1.368 . S
C698 C694 1.368 . S
C698 C697 1.523 . S
H699 C674 0.950 . S
H700 C676 0.950 . S
H701 C677 0.949 . S
H702 C679 0.950 . S
H703 C681 0.950 . S
C704 C705 1.349 . S
C704 C706 1.327 . S
C704 H729 0.950 . S
C705 C704 1.349 . S
C705 C721 1.349 . S
C706 C704 1.327 . S
C706 C725 1.429 . S
C706 H730 0.950 . S
C707 C724 1.574 . S
C707 C726 1.368 . S
C707 H731 0.949 . S
H708 C712 0.949 . S
C709 C710 1.349 . S
C709 C711 1.327 . S
C709 H732 0.950 . S
C710 C709 1.349 . S
C710 C722 1.349 . S
C711 C709 1.327 . S
C711 C727 1.429 . S
C711 H733 0.950 . S
C712 H708 0.949 . S
C712 C720 1.574 . S
C712 C728 1.368 . S
H713 C721 0.950 . S
H714 C719 0.950 . S
H715 C720 0.949 . S
H716 C722 0.950 . S
H717 C723 0.950 . S
H718 C724 0.949 . S
C719 H714 0.950 . S
C719 C721 1.327 . S
C719 C725 1.429 . S
C720 C712 1.574 . S
C720 H715 0.949 . S
C720 C726 1.368 . S
C721 C705 1.349 . S
C721 H713 0.950 . S
C721 C719 1.327 . S
C722 C710 1.349 . S
C722 H716 0.950 . S
C722 C723 1.327 . S
C723 H717 0.950 . S
C723 C722 1.327 . S
C723 C727 1.429 . S
C724 C707 1.574 . S
C724 H718 0.949 . S
C724 C728 1.368 . S
C725 C706 1.429 . S
C725 C719 1.429 . S
C725 C726 1.523 . S
C726 C707 1.368 . S
C726 C720 1.368 . S
C726 C725 1.523 . S
C727 C711 1.429 . S
C727 C723 1.429 . S
C727 C728 1.523 . S
C728 C712 1.368 . S
C728 C724 1.368 . S
C728 C727 1.523 . S
H729 C704 0.950 . S
H730 C706 0.950 . S
H731 C707 0.949 . S
H732 C709 0.950 . S
H733 C711 0.950 . S
C734 C735 1.349 . S
C734 C736 1.327 . S
C734 H759 0.950 . S
C735 C734 1.349 . S
C735 C751 1.349 . S
C736 C734 1.327 . S
C736 C755 1.429 . S
C736 H760 0.950 . S
C737 C754 1.574 . S
C737 C756 1.368 . S
C737 H761 0.949 . S
H738 C742 0.949 . S
C739 C740 1.349 . S
C739 C741 1.327 . S
C739 H762 0.950 . S
C740 C739 1.349 . S
C740 C752 1.349 . S
C741 C739 1.327 . S
C741 C757 1.429 . S
C741 H763 0.950 . S
C742 H738 0.949 . S
C742 C750 1.574 . S
C742 C758 1.368 . S
H743 C751 0.950 . S
H744 C749 0.950 . S
H745 C750 0.949 . S
H746 C752 0.950 . S
H747 C753 0.950 . S
H748 C754 0.949 . S
C749 H744 0.950 . S
C749 C751 1.327 . S
C749 C755 1.429 . S
C750 C742 1.574 . S
C750 H745 0.949 . S
C750 C756 1.368 . S
C751 C735 1.349 . S
C751 H743 0.950 . S
C751 C749 1.327 . S
C752 C740 1.349 . S
C752 H746 0.950 . S
C752 C753 1.327 . S
C753 H747 0.950 . S
C753 C752 1.327 . S
C753 C757 1.429 . S
C754 C737 1.574 . S
C754 H748 0.949 . S
C754 C758 1.368 . S
C755 C736 1.429 . S
C755 C749 1.429 . S
C755 C756 1.523 . S
C756 C737 1.368 . S
C756 C750 1.368 . S
C756 C755 1.523 . S
C757 C741 1.429 . S
C757 C753 1.429 . S
C757 C758 1.523 . S
C758 C742 1.368 . S
C758 C754 1.368 . S
C758 C757 1.523 . S
H759 C734 0.950 . S
H760 C736 0.950 . S
H761 C737 0.949 . S
H762 C739 0.950 . S
H763 C741 0.950 . S
C764 C765 1.349 . S
C764 C766 1.327 . S
C764 H789 0.950 . S
C765 C764 1.349 . S
C765 C781 1.349 . S
C766 C764 1.327 . S
C766 C785 1.429 . S
C766 H790 0.950 . S
C767 C784 1.574 . S
C767 C786 1.368 . S
C767 H791 0.949 . S
H768 C772 0.949 . S
C769 C770 1.349 . S
C769 C771 1.327 . S
C769 H792 0.950 . S
C770 C769 1.349 . S
C770 C782 1.349 . S
C771 C769 1.327 . S
C771 C787 1.429 . S
C771 H793 0.950 . S
C772 H768 0.949 . S
C772 C780 1.574 . S
C772 C788 1.368 . S
H773 C781 0.950 . S
H774 C779 0.950 . S
H775 C780 0.949 . S
H776 C782 0.950 . S
H777 C783 0.950 . S
H778 C784 0.949 . S
C779 H774 0.950 . S
C779 C781 1.327 . S
C779 C785 1.429 . S
C780 C772 1.574 . S
C780 H775 0.949 . S
C780 C786 1.368 . S
C781 C765 1.349 . S
C781 H773 0.950 . S
C781 C779 1.327 . S
C782 C770 1.349 . S
C782 H776 0.950 . S
C782 C783 1.327 . S
C783 H777 0.950 . S
C783 C782 1.327 . S
C783 C787 1.429 . S
C784 C767 1.574 . S
C784 H778 0.949 . S
C784 C788 1.368 . S
C785 C766 1.429 . S
C785 C779 1.429 . S
C785 C786 1.523 . S
C786 C767 1.368 . S
C786 C780 1.368 . S
C786 C785 1.523 . S
C787 C771 1.429 . S
C787 C783 1.429 . S
C787 C788 1.523 . S
C788 C772 1.368 . S
C788 C784 1.368 . S
C788 C787 1.523 . S
H789 C764 0.950 . S
H790 C766 0.950 . S
H791 C767 0.949 . S
H792 C769 0.950 . S
H793 C771 0.950 . S
C794 C795 1.349 . S
C794 C796 1.327 . S
C794 H819 0.950 . S
C795 C794 1.349 . S
C795 C811 1.349 . S
C796 C794 1.327 . S
C796 C815 1.429 . S
C796 H820 0.950 . S
C797 C814 1.574 . S
C797 C816 1.368 . S
C797 H821 0.949 . S
H798 C802 0.949 . S
C799 C800 1.349 . S
C799 C801 1.327 . S
C799 H822 0.950 . S
C800 C799 1.349 . S
C800 C812 1.349 . S
C801 C799 1.327 . S
C801 C817 1.429 . S
C801 H823 0.950 . S
C802 H798 0.949 . S
C802 C810 1.574 . S
C802 C818 1.368 . S
H803 C811 0.950 . S
H804 C809 0.950 . S
H805 C810 0.949 . S
H806 C812 0.950 . S
H807 C813 0.950 . S
H808 C814 0.949 . S
C809 H804 0.950 . S
C809 C811 1.327 . S
C809 C815 1.429 . S
C810 C802 1.574 . S
C810 H805 0.949 . S
C810 C816 1.368 . S
C811 C795 1.349 . S
C811 H803 0.950 . S
C811 C809 1.327 . S
C812 C800 1.349 . S
C812 H806 0.950 . S
C812 C813 1.327 . S
C813 H807 0.950 . S
C813 C812 1.327 . S
C813 C817 1.429 . S
C814 C797 1.574 . S
C814 H808 0.949 . S
C814 C818 1.368 . S
C815 C796 1.429 . S
C815 C809 1.429 . S
C815 C816 1.523 . S
C816 C797 1.368 . S
C816 C810 1.368 . S
C816 C815 1.523 . S
C817 C801 1.429 . S
C817 C813 1.429 . S
C817 C818 1.523 . S
C818 C802 1.368 . S
C818 C814 1.368 . S
C818 C817 1.523 . S
H819 C794 0.950 . S
H820 C796 0.950 . S
H821 C797 0.949 . S
H822 C799 0.950 . S
H823 C801 0.950 . S
C824 C825 1.349 . S
C824 C826 1.327 . S
C824 H849 0.950 . S
C825 C824 1.349 . S
C825 C841 1.349 . S
C826 C824 1.327 . S
C826 C845 1.429 . S
C826 H850 0.950 . S
C827 C844 1.574 . S
C827 C846 1.368 . S
C827 H851 0.949 . S
H828 C832 0.949 . S
C829 C830 1.349 . S
C829 C831 1.327 . S
C829 H852 0.950 1_556 S
C830 C829 1.349 . S
C830 C842 1.349 . S
C831 C829 1.327 . S
C831 C847 1.429 . S
C831 H853 0.950 . S
C832 H828 0.949 . S
C832 C840 1.574 . S
C832 C848 1.368 . S
H833 C841 0.950 . S
H834 C839 0.950 . S
H835 C840 0.949 . S
H836 C842 0.950 . S
H837 C843 0.950 . S
H838 C844 0.949 . S
C839 H834 0.950 . S
C839 C841 1.327 . S
C839 C845 1.429 . S
C840 C832 1.574 . S
C840 H835 0.949 . S
C840 C846 1.368 . S
C841 C825 1.349 . S
C841 H833 0.950 . S
C841 C839 1.327 . S
C842 C830 1.349 . S
C842 H836 0.950 . S
C842 C843 1.327 . S
C843 H837 0.950 . S
C843 C842 1.327 . S
C843 C847 1.429 . S
C844 C827 1.574 . S
C844 H838 0.949 . S
C844 C848 1.368 . S
C845 C826 1.429 . S
C845 C839 1.429 . S
C845 C846 1.523 . S
C846 C827 1.368 . S
C846 C840 1.368 . S
C846 C845 1.523 . S
C847 C831 1.429 . S
C847 C843 1.429 . S
C847 C848 1.523 . S
C848 C832 1.368 . S
C848 C844 1.368 . S
C848 C847 1.523 . S
H849 C824 0.950 . S
H850 C826 0.950 . S
H851 C827 0.949 . S
H852 C829 0.950 1_554 S
H853 C831 0.950 . S
C854 C855 1.349 . S
C854 C856 1.327 . S
C854 H879 0.950 . S
C855 C854 1.349 . S
C855 C871 1.349 . S
C856 C854 1.327 . S
C856 C875 1.429 . S
C856 H880 0.950 . S
C857 C874 1.574 . S
C857 C876 1.368 . S
C857 H881 0.949 . S
H858 C862 0.949 . S
C859 C860 1.349 . S
C859 C861 1.327 . S
C859 H882 0.950 . S
C860 C859 1.349 . S
C860 C872 1.349 . S
C861 C859 1.327 . S
C861 C877 1.429 . S
C861 H883 0.950 . S
C862 H858 0.949 . S
C862 C870 1.574 . S
C862 C878 1.368 . S
H863 C871 0.950 . S
H864 C869 0.950 . S
H865 C870 0.949 . S
H866 C872 0.950 . S
H867 C873 0.950 . S
H868 C874 0.949 . S
C869 H864 0.950 . S
C869 C871 1.327 . S
C869 C875 1.429 . S
C870 C862 1.574 . S
C870 H865 0.949 . S
C870 C876 1.368 . S
C871 C855 1.349 . S
C871 H863 0.950 . S
C871 C869 1.327 . S
C872 C860 1.349 . S
C872 H866 0.950 . S
C872 C873 1.327 . S
C873 H867 0.950 . S
C873 C872 1.327 . S
C873 C877 1.429 . S
C874 C857 1.574 . S
C874 H868 0.949 . S
C874 C878 1.368 . S
C875 C856 1.429 . S
C875 C869 1.429 . S
C875 C876 1.523 . S
C876 C857 1.368 . S
C876 C870 1.368 . S
C876 C875 1.523 . S
C877 C861 1.429 . S
C877 C873 1.429 . S
C877 C878 1.523 . S
C878 C862 1.368 . S
C878 C874 1.368 . S
C878 C877 1.523 . S
H879 C854 0.950 . S
H880 C856 0.950 . S
H881 C857 0.949 . S
H882 C859 0.950 . S
H883 C861 0.950 . S
C884 C885 1.349 . S
C884 C886 1.327 . S
C884 H909 0.950 . S
C885 C884 1.349 . S
C885 C901 1.349 . S
C886 C884 1.327 . S
C886 C905 1.429 . S
C886 H910 0.950 . S
C887 C904 1.574 . S
C887 C906 1.368 . S
C887 H911 0.949 . S
H888 C892 0.949 . S
C889 C890 1.349 . S
C889 C891 1.327 . S
C889 H912 0.950 . S
C890 C889 1.349 . S
C890 C902 1.349 . S
C891 C889 1.327 . S
C891 C907 1.429 . S
C891 H913 0.950 . S
C892 H888 0.949 . S
C892 C900 1.574 . S
C892 C908 1.368 . S
H893 C901 0.950 . S
H894 C899 0.950 . S
H895 C900 0.949 . S
H896 C902 0.950 . S
H897 C903 0.950 . S
H898 C904 0.949 . S
C899 H894 0.950 . S
C899 C901 1.327 . S
C899 C905 1.429 . S
C900 C892 1.574 . S
C900 H895 0.949 . S
C900 C906 1.368 . S
C901 C885 1.349 . S
C901 H893 0.950 . S
C901 C899 1.327 . S
C902 C890 1.349 . S
C902 H896 0.950 . S
C902 C903 1.327 . S
C903 H897 0.950 . S
C903 C902 1.327 . S
C903 C907 1.429 . S
C904 C887 1.574 . S
C904 H898 0.949 . S
C904 C908 1.368 . S
C905 C886 1.429 . S
C905 C899 1.429 . S
C905 C906 1.523 . S
C906 C887 1.368 . S
C906 C900 1.368 . S
C906 C905 1.523 . S
C907 C891 1.429 . S
C907 C903 1.429 . S
C907 C908 1.523 . S
C908 C892 1.368 . S
C908 C904 1.368 . S
C908 C907 1.523 . S
H909 C884 0.950 . S
H910 C886 0.950 . S
H911 C887 0.949 . S
H912 C889 0.950 . S
H913 C891 0.950 . S
C914 C915 1.349 . S
C914 C916 1.327 . S
C914 H939 0.950 . S
C915 C914 1.349 . S
C915 C931 1.349 . S
C916 C914 1.327 . S
C916 C935 1.429 . S
C916 H940 0.950 . S
C917 C934 1.574 . S
C917 C936 1.368 . S
C917 H941 0.949 . S
H918 C922 0.949 . S
C919 C920 1.349 . S
C919 C921 1.327 . S
C919 H942 0.950 . S
C920 C919 1.349 . S
C920 C932 1.349 . S
C921 C919 1.327 . S
C921 C937 1.429 . S
C921 H943 0.950 . S
C922 H918 0.949 . S
C922 C930 1.574 . S
C922 C938 1.368 . S
H923 C931 0.950 . S
H924 C929 0.950 . S
H925 C930 0.949 . S
H926 C932 0.950 . S
H927 C933 0.950 . S
H928 C934 0.949 . S
C929 H924 0.950 . S
C929 C931 1.327 . S
C929 C935 1.429 . S
C930 C922 1.574 . S
C930 H925 0.949 . S
C930 C936 1.368 . S
C931 C915 1.349 . S
C931 H923 0.950 . S
C931 C929 1.327 . S
C932 C920 1.349 . S
C932 H926 0.950 . S
C932 C933 1.327 . S
C933 H927 0.950 . S
C933 C932 1.327 . S
C933 C937 1.429 . S
C934 C917 1.574 . S
C934 H928 0.949 . S
C934 C938 1.368 . S
C935 C916 1.429 . S
C935 C929 1.429 . S
C935 C936 1.523 . S
C936 C917 1.368 . S
C936 C930 1.368 . S
C936 C935 1.523 . S
C937 C921 1.429 . S
C937 C933 1.429 . S
C937 C938 1.523 . S
C938 C922 1.368 . S
C938 C934 1.368 . S
C938 C937 1.523 . S
H939 C914 0.950 . S
H940 C916 0.950 . S
H941 C917 0.949 . S
H942 C919 0.950 . S
H943 C921 0.950 . S
C944 C945 1.349 . S
C944 C946 1.327 . S
C944 H969 0.950 . S
C945 C944 1.349 . S
C945 C961 1.349 . S
C946 C944 1.327 . S
C946 C965 1.429 . S
C946 H970 0.950 . S
C947 C964 1.574 . S
C947 C966 1.368 . S
C947 H971 0.949 . S
H948 C952 0.949 . S
C949 C950 1.349 . S
C949 C951 1.327 . S
C949 H972 0.950 . S
C950 C949 1.349 . S
C950 C962 1.349 . S
C951 C949 1.327 . S
C951 C967 1.429 . S
C951 H973 0.950 . S
C952 H948 0.949 . S
C952 C960 1.574 . S
C952 C968 1.368 . S
H953 C961 0.950 . S
H954 C959 0.950 . S
H955 C960 0.949 . S
H956 C962 0.950 . S
H957 C963 0.950 . S
H958 C964 0.949 . S
C959 H954 0.950 . S
C959 C961 1.327 . S
C959 C965 1.429 . S
C960 C952 1.574 . S
C960 H955 0.949 . S
C960 C966 1.368 . S
C961 C945 1.349 . S
C961 H953 0.950 . S
C961 C959 1.327 . S
C962 C950 1.349 . S
C962 H956 0.950 . S
C962 C963 1.327 . S
C963 H957 0.950 . S
C963 C962 1.327 . S
C963 C967 1.429 . S
C964 C947 1.574 . S
C964 H958 0.949 . S
C964 C968 1.368 . S
C965 C946 1.429 . S
C965 C959 1.429 . S
C965 C966 1.523 . S
C966 C947 1.368 . S
C966 C960 1.368 . S
C966 C965 1.523 . S
C967 C951 1.429 . S
C967 C963 1.429 . S
C967 C968 1.523 . S
C968 C952 1.368 . S
C968 C964 1.368 . S
C968 C967 1.523 . S
H969 C944 0.950 . S
H970 C946 0.950 . S
H971 C947 0.949 . S
H972 C949 0.950 . S
H973 C951 0.950 . S
C974 C975 1.349 . S
C974 C976 1.327 . S
C974 H999 0.950 . S
C975 C974 1.349 . S
C975 C991 1.349 . S
C976 C974 1.327 . S
C976 C995 1.429 . S
C976 H1000 0.950 . S
C977 C994 1.574 . S
C977 C996 1.368 . S
C977 H1001 0.949 . S
H978 C982 0.949 . S
C979 C980 1.349 . S
C979 C981 1.327 . S
C979 H1002 0.950 . S
C980 C979 1.349 . S
C980 C992 1.349 . S
C981 C979 1.327 . S
C981 C997 1.429 . S
C981 H1003 0.950 . S
C982 H978 0.949 . S
C982 C990 1.574 . S
C982 C998 1.368 . S
H983 C991 0.950 . S
H984 C989 0.950 . S
H985 C990 0.949 . S
H986 C992 0.950 . S
H987 C993 0.950 . S
H988 C994 0.949 . S
C989 H984 0.950 . S
C989 C991 1.327 . S
C989 C995 1.429 . S
C990 C982 1.574 . S
C990 H985 0.949 . S
C990 C996 1.368 . S
C991 C975 1.349 . S
C991 H983 0.950 . S
C991 C989 1.327 . S
C992 C980 1.349 . S
C992 H986 0.950 . S
C992 C993 1.327 . S
C993 H987 0.950 . S
C993 C992 1.327 . S
C993 C997 1.429 . S
C994 C977 1.574 . S
C994 H988 0.949 . S
C994 C998 1.368 . S
C995 C976 1.429 . S
C995 C989 1.429 . S
C995 C996 1.523 . S
C996 C977 1.368 . S
C996 C990 1.368 . S
C996 C995 1.523 . S
C997 C981 1.429 . S
C997 C993 1.429 . S
C997 C998 1.523 . S
C998 C982 1.368 . S
C998 C994 1.368 . S
C998 C997 1.523 . S
H999 C974 0.950 . S
H1000 C976 0.950 . S
H1001 C977 0.949 . S
H1002 C979 0.950 . S
H1003 C981 0.950 . S
C1004 C1005 1.349 . S
C1004 C1006 1.327 . S
C1004 H1029 0.950 . S
C1005 C1004 1.349 . S
C1005 C1021 1.349 . S
C1006 C1004 1.327 . S
C1006 C1025 1.429 . S
C1006 H1030 0.950 . S
C1007 C1024 1.574 . S
C1007 C1026 1.368 . S
C1007 H1031 0.949 . S
H1008 C1012 0.949 . S
C1009 C1010 1.349 . S
C1009 C1011 1.327 . S
C1009 H1032 0.950 . S
C1010 C1009 1.349 . S
C1010 C1022 1.349 . S
C1011 C1009 1.327 . S
C1011 C1027 1.429 . S
C1011 H1033 0.950 . S
C1012 H1008 0.949 . S
C1012 C1020 1.574 . S
C1012 C1028 1.368 . S
H1013 C1021 0.950 . S
H1014 C1019 0.950 . S
H1015 C1020 0.949 . S
H1016 C1022 0.950 . S
H1017 C1023 0.950 . S
H1018 C1024 0.949 . S
C1019 H1014 0.950 . S
C1019 C1021 1.327 . S
C1019 C1025 1.429 . S
C1020 C1012 1.574 . S
C1020 H1015 0.949 . S
C1020 C1026 1.368 . S
C1021 C1005 1.349 . S
C1021 H1013 0.950 . S
C1021 C1019 1.327 . S
C1022 C1010 1.349 . S
C1022 H1016 0.950 . S
C1022 C1023 1.327 . S
C1023 H1017 0.950 . S
C1023 C1022 1.327 . S
C1023 C1027 1.429 . S
C1024 C1007 1.574 . S
C1024 H1018 0.949 . S
C1024 C1028 1.368 . S
C1025 C1006 1.429 . S
C1025 C1019 1.429 . S
C1025 C1026 1.523 . S
C1026 C1007 1.368 . S
C1026 C1020 1.368 . S
C1026 C1025 1.523 . S
C1027 C1011 1.429 . S
C1027 C1023 1.429 . S
C1027 C1028 1.523 . S
C1028 C1012 1.368 . S
C1028 C1024 1.368 . S
C1028 C1027 1.523 . S
H1029 C1004 0.950 . S
H1030 C1006 0.950 . S
H1031 C1007 0.949 . S
H1032 C1009 0.950 . S
H1033 C1011 0.950 . S
C1034 C1035 1.349 . S
C1034 C1036 1.327 . S
C1034 H1059 0.950 . S
C1035 C1034 1.349 . S
C1035 C1051 1.349 . S
C1036 C1034 1.327 . S
C1036 C1055 1.429 . S
C1036 H1060 0.950 . S
C1037 C1054 1.574 . S
C1037 C1056 1.368 . S
C1037 H1061 0.949 . S
H1038 C1042 0.949 . S
C1039 C1040 1.349 . S
C1039 C1041 1.327 . S
C1039 H1062 0.950 . S
C1040 C1039 1.349 . S
C1040 C1052 1.349 . S
C1041 C1039 1.327 . S
C1041 C1057 1.429 . S
C1041 H1063 0.950 . S
C1042 H1038 0.949 . S
C1042 C1050 1.574 . S
C1042 C1058 1.368 . S
H1043 C1051 0.950 . S
H1044 C1049 0.950 . S
H1045 C1050 0.949 . S
H1046 C1052 0.950 . S
H1047 C1053 0.950 . S
H1048 C1054 0.949 . S
C1049 H1044 0.950 . S
C1049 C1051 1.327 . S
C1049 C1055 1.429 . S
C1050 C1042 1.574 . S
C1050 H1045 0.949 . S
C1050 C1056 1.368 . S
C1051 C1035 1.349 . S
C1051 H1043 0.950 . S
C1051 C1049 1.327 . S
C1052 C1040 1.349 . S
C1052 H1046 0.950 . S
C1052 C1053 1.327 . S
C1053 H1047 0.950 . S
C1053 C1052 1.327 . S
C1053 C1057 1.429 . S
C1054 C1037 1.574 . S
C1054 H1048 0.949 . S
C1054 C1058 1.368 . S
C1055 C1036 1.429 . S
C1055 C1049 1.429 . S
C1055 C1056 1.523 . S
C1056 C1037 1.368 . S
C1056 C1050 1.368 . S
C1056 C1055 1.523 . S
C1057 C1041 1.429 . S
C1057 C1053 1.429 . S
C1057 C1058 1.523 . S
C1058 C1042 1.368 . S
C1058 C1054 1.368 . S
C1058 C1057 1.523 . S
H1059 C1034 0.950 . S
H1060 C1036 0.950 . S
H1061 C1037 0.949 . S
H1062 C1039 0.950 . S
H1063 C1041 0.950 . S
C1064 C1065 1.349 . S
C1064 C1066 1.327 . S
C1064 H1089 0.950 . S
C1065 C1064 1.349 . S
C1065 C1081 1.349 . S
C1066 C1064 1.327 . S
C1066 C1085 1.429 . S
C1066 H1090 0.950 . S
C1067 C1084 1.574 . S
C1067 C1086 1.368 . S
C1067 H1091 0.949 . S
H1068 C1072 0.949 . S
C1069 C1070 1.349 . S
C1069 C1071 1.327 . S
C1069 H1092 0.950 . S
C1070 C1069 1.349 . S
C1070 C1082 1.349 . S
C1071 C1069 1.327 . S
C1071 C1087 1.429 . S
C1071 H1093 0.950 . S
C1072 H1068 0.949 . S
C1072 C1080 1.574 . S
C1072 C1088 1.368 . S
H1073 C1081 0.950 . S
H1074 C1079 0.950 . S
H1075 C1080 0.949 . S
H1076 C1082 0.950 . S
H1077 C1083 0.950 . S
H1078 C1084 0.949 . S
C1079 H1074 0.950 . S
C1079 C1081 1.327 . S
C1079 C1085 1.429 . S
C1080 C1072 1.574 . S
C1080 H1075 0.949 . S
C1080 C1086 1.368 . S
C1081 C1065 1.349 . S
C1081 H1073 0.950 . S
C1081 C1079 1.327 . S
C1082 C1070 1.349 . S
C1082 H1076 0.950 . S
C1082 C1083 1.327 . S
C1083 H1077 0.950 . S
C1083 C1082 1.327 . S
C1083 C1087 1.429 . S
C1084 C1067 1.574 . S
C1084 H1078 0.949 . S
C1084 C1088 1.368 . S
C1085 C1066 1.429 . S
C1085 C1079 1.429 . S
C1085 C1086 1.523 . S
C1086 C1067 1.368 . S
C1086 C1080 1.368 . S
C1086 C1085 1.523 . S
C1087 C1071 1.429 . S
C1087 C1083 1.429 . S
C1087 C1088 1.523 . S
C1088 C1072 1.368 . S
C1088 C1084 1.368 . S
C1088 C1087 1.523 . S
H1089 C1064 0.950 . S
H1090 C1066 0.950 . S
H1091 C1067 0.949 . S
H1092 C1069 0.950 . S
H1093 C1071 0.950 . S
C1094 C1095 1.349 . S
C1094 C1096 1.327 . S
C1094 H1119 0.950 . S
C1095 C1094 1.349 . S
C1095 C1111 1.349 . S
C1096 C1094 1.327 . S
C1096 C1115 1.429 . S
C1096 H1120 0.950 . S
C1097 C1114 1.574 . S
C1097 C1116 1.368 . S
C1097 H1121 0.949 . S
H1098 C1102 0.949 . S
C1099 C1100 1.349 . S
C1099 C1101 1.327 . S
C1099 H1122 0.950 . S
C1100 C1099 1.349 . S
C1100 C1112 1.349 . S
C1101 C1099 1.327 . S
C1101 C1117 1.429 . S
C1101 H1123 0.950 . S
C1102 H1098 0.949 . S
C1102 C1110 1.574 . S
C1102 C1118 1.368 . S
H1103 C1111 0.950 . S
H1104 C1109 0.950 . S
H1105 C1110 0.949 . S
H1106 C1112 0.950 . S
H1107 C1113 0.950 . S
H1108 C1114 0.949 . S
C1109 H1104 0.950 . S
C1109 C1111 1.327 . S
C1109 C1115 1.429 . S
C1110 C1102 1.574 . S
C1110 H1105 0.949 . S
C1110 C1116 1.368 . S
C1111 C1095 1.349 . S
C1111 H1103 0.950 . S
C1111 C1109 1.327 . S
C1112 C1100 1.349 . S
C1112 H1106 0.950 . S
C1112 C1113 1.327 . S
C1113 H1107 0.950 . S
C1113 C1112 1.327 . S
C1113 C1117 1.429 . S
C1114 C1097 1.574 . S
C1114 H1108 0.949 . S
C1114 C1118 1.368 . S
C1115 C1096 1.429 . S
C1115 C1109 1.429 . S
C1115 C1116 1.523 . S
C1116 C1097 1.368 . S
C1116 C1110 1.368 . S
C1116 C1115 1.523 . S
C1117 C1101 1.429 . S
C1117 C1113 1.429 . S
C1117 C1118 1.523 . S
C1118 C1102 1.368 . S
C1118 C1114 1.368 . S
C1118 C1117 1.523 . S
H1119 C1094 0.950 . S
H1120 C1096 0.950 . S
H1121 C1097 0.949 . S
H1122 C1099 0.950 . S
H1123 C1101 0.950 . S
C1124 C1125 1.349 . S
C1124 C1126 1.327 . S
C1124 H1149 0.950 . S
C1125 C1124 1.349 . S
C1125 C1141 1.349 . S
C1126 C1124 1.327 . S
C1126 C1145 1.429 . S
C1126 H1150 0.950 . S
C1127 C1144 1.574 . S
C1127 C1146 1.368 . S
C1127 H1151 0.949 . S
H1128 C1132 0.949 . S
C1129 C1130 1.349 . S
C1129 C1131 1.327 . S
C1129 H1152 0.950 . S
C1130 C1129 1.349 . S
C1130 C1142 1.349 . S
C1131 C1129 1.327 . S
C1131 C1147 1.429 . S
C1131 H1153 0.950 . S
C1132 H1128 0.949 . S
C1132 C1140 1.574 . S
C1132 C1148 1.368 . S
H1133 C1141 0.950 . S
H1134 C1139 0.950 . S
H1135 C1140 0.949 . S
H1136 C1142 0.950 . S
H1137 C1143 0.950 . S
H1138 C1144 0.949 . S
C1139 H1134 0.950 . S
C1139 C1141 1.327 . S
C1139 C1145 1.429 . S
C1140 C1132 1.574 . S
C1140 H1135 0.949 . S
C1140 C1146 1.368 . S
C1141 C1125 1.349 . S
C1141 H1133 0.950 . S
C1141 C1139 1.327 . S
C1142 C1130 1.349 . S
C1142 H1136 0.950 . S
C1142 C1143 1.327 . S
C1143 H1137 0.950 . S
C1143 C1142 1.327 . S
C1143 C1147 1.429 . S
C1144 C1127 1.574 . S
C1144 H1138 0.949 . S
C1144 C1148 1.368 . S
C1145 C1126 1.429 . S
C1145 C1139 1.429 . S
C1145 C1146 1.523 . S
C1146 C1127 1.368 . S
C1146 C1140 1.368 . S
C1146 C1145 1.523 . S
C1147 C1131 1.429 . S
C1147 C1143 1.429 . S
C1147 C1148 1.523 . S
C1148 C1132 1.368 . S
C1148 C1144 1.368 . S
C1148 C1147 1.523 . S
H1149 C1124 0.950 . S
H1150 C1126 0.950 . S
H1151 C1127 0.949 . S
H1152 C1129 0.950 . S
H1153 C1131 0.950 . S
C1154 C1155 1.349 . S
C1154 C1156 1.327 . S
C1154 H1179 0.950 . S
C1155 C1154 1.349 . S
C1155 C1171 1.349 . S
C1156 C1154 1.327 . S
C1156 C1175 1.429 . S
C1156 H1180 0.950 . S
C1157 C1174 1.574 . S
C1157 C1176 1.368 . S
C1157 H1181 0.949 . S
H1158 C1162 0.949 . S
C1159 C1160 1.349 . S
C1159 C1161 1.327 . S
C1159 H1182 0.950 . S
C1160 C1159 1.349 . S
C1160 C1172 1.349 . S
C1161 C1159 1.327 . S
C1161 C1177 1.429 . S
C1161 H1183 0.950 . S
C1162 H1158 0.949 . S
C1162 C1170 1.574 . S
C1162 C1178 1.368 . S
H1163 C1171 0.950 . S
H1164 C1169 0.950 . S
H1165 C1170 0.949 . S
H1166 C1172 0.950 . S
H1167 C1173 0.950 . S
H1168 C1174 0.949 . S
C1169 H1164 0.950 . S
C1169 C1171 1.327 . S
C1169 C1175 1.429 . S
C1170 C1162 1.574 . S
C1170 H1165 0.949 . S
C1170 C1176 1.368 . S
C1171 C1155 1.349 . S
C1171 H1163 0.950 . S
C1171 C1169 1.327 . S
C1172 C1160 1.349 . S
C1172 H1166 0.950 . S
C1172 C1173 1.327 . S
C1173 H1167 0.950 . S
C1173 C1172 1.327 . S
C1173 C1177 1.429 . S
C1174 C1157 1.574 . S
C1174 H1168 0.949 . S
C1174 C1178 1.368 . S
C1175 C1156 1.429 . S
C1175 C1169 1.429 . S
C1175 C1176 1.523 . S
C1176 C1157 1.368 . S
C1176 C1170 1.368 . S
C1176 C1175 1.523 . S
C1177 C1161 1.429 . S
C1177 C1173 1.429 . S
C1177 C1178 1.523 . S
C1178 C1162 1.368 . S
C1178 C1174 1.368 . S
C1178 C1177 1.523 . S
H1179 C1154 0.950 . S
H1180 C1156 0.950 . S
H1181 C1157 0.949 . S
H1182 C1159 0.950 . S
H1183 C1161 0.950 . S
C225 C11 0.927 . S
C230 C67 0.927 . S
C255 C81 0.927 . S
C260 C25 0.927 . S
C285 C39 0.927 . S
C290 C95 0.927 . S
C315 C53 0.927 . S
C320 C109 0.927 . S
C345 C123 0.927 . S
C350 C179 0.927 . S
C375 C193 0.927 . S
C380 C137 0.927 . S
C405 C151 0.927 . S
C410 C207 0.927 . S
C435 C165 0.927 . S
C440 C221 0.927 . S
C465 C12 0.969 1_556 S
C470 C214 0.963 . S
C495 C172 0.962 . S
C500 C26 0.969 . S
C525 C40 0.969 1_556 S
C530 C186 0.963 . S
C555 C200 0.962 . S
C560 C54 0.969 . S
C585 C130 0.962 . S
C590 C68 0.969 1_554 S
C615 C144 0.963 . S
C620 C82 0.969 . S
C645 C158 0.962 . S
C650 C96 0.969 1_554 S
C675 C116 0.963 . S
C680 C110 0.969 . S
C705 C124 0.969 1_554 S
C710 C102 0.963 . S
C735 C60 0.962 . S
C740 C138 0.969 . S
C765 C74 0.963 . S
C770 C152 0.969 1_554 S
C795 C166 0.969 . S
C800 C88 0.962 . S
C825 C18 0.962 . S
C830 C180 0.969 1_556 S
C855 C194 0.969 . S
C860 C32 0.963 . S
C885 C208 0.969 1_556 S
C890 C46 0.962 . S
C915 C222 0.969 . S
C920 C4 0.963 . S
C945 C103 1.222 . S
C950 C5 1.222 . S
C975 C19 1.222 . S
C980 C61 1.222 . S
C1005 C33 1.222 . S
C1010 C75 1.222 . S
C1035 C47 1.222 . S
C1040 C89 1.222 . S
C1065 C215 1.222 . S
C1070 C117 1.222 . S
C1095 C173 1.222 . S
C1100 C131 1.222 . S
C1125 C187 1.222 . S
C1130 C145 1.222 . S
C1155 C201 1.222 . S
C1160 C159 1.222 . S
