# Generated by pormake.
# Topology wnr, (7)-cn, num edge types: 1
# Building blocks:
#     Node 0, Type 0, BuildingBlock: HICVOG_clean_sbu_0, # of connection points: 7
#     Node 1, Type 0, BuildingBlock: HICVOG_clean_sbu_0, # of connection points: 7
#     Node 2, Type 0, BuildingBlock: HICVOG_clean_sbu_0, # of connection points: 7
#     Node 3, Type 0, BuildingBlock: HICVOG_clean_sbu_0, # of connection points: 7
#     Node 4, Type 0, BuildingBlock: HICVOG_clean_sbu_0, # of connection points: 7
#     Node 5, Type 0, BuildingBlock: HICVOG_clean_sbu_0, # of connection points: 7
#     Edge 6, Type (0, 0), BuildingBlock: EZIPEK_clean_linker_0, # of connection points: 2
#     Edge 7, Type (0, 0), BuildingBlock: EZIPEK_clean_linker_0, # of connection points: 2
#     Edge 8, Type (0, 0), BuildingBlock: EZIPEK_clean_linker_0, # of connection points: 2
#     Edge 9, Type (0, 0), BuildingBlock: EZIPEK_clean_linker_0, # of connection points: 2
#     Edge 10, Type (0, 0), BuildingBlock: EZIPEK_clean_linker_0, # of connection points: 2
#     Edge 11, Type (0, 0), BuildingBlock: EZIPEK_clean_linker_0, # of connection points: 2
#     Edge 12, Type (0, 0), BuildingBlock: EZIPEK_clean_linker_0, # of connection points: 2
#     Edge 13, Type (0, 0), BuildingBlock: EZIPEK_clean_linker_0, # of connection points: 2
#     Edge 14, Type (0, 0), BuildingBlock: EZIPEK_clean_linker_0, # of connection points: 2
#     Edge 15, Type (0, 0), BuildingBlock: EZIPEK_clean_linker_0, # of connection points: 2
#     Edge 16, Type (0, 0), BuildingBlock: EZIPEK_clean_linker_0, # of connection points: 2
#     Edge 17, Type (0, 0), BuildingBlock: EZIPEK_clean_linker_0, # of connection points: 2
#     Edge 18, Type (0, 0), BuildingBlock: EZIPEK_clean_linker_0, # of connection points: 2
#     Edge 19, Type (0, 0), BuildingBlock: EZIPEK_clean_linker_0, # of connection points: 2
#     Edge 20, Type (0, 0), BuildingBlock: EZIPEK_clean_linker_0, # of connection points: 2
#     Edge 21, Type (0, 0), BuildingBlock: EZIPEK_clean_linker_0, # of connection points: 2
#     Edge 22, Type (0, 0), BuildingBlock: EZIPEK_clean_linker_0, # of connection points: 2
#     Edge 23, Type (0, 0), BuildingBlock: EZIPEK_clean_linker_0, # of connection points: 2
#     Edge 24, Type (0, 0), BuildingBlock: EZIPEK_clean_linker_0, # of connection points: 2
#     Edge 25, Type (0, 0), BuildingBlock: EZIPEK_clean_linker_0, # of connection points: 2
#     Edge 26, Type (0, 0), BuildingBlock: EZIPEK_clean_linker_0, # of connection points: 2
# Relax obj value: 0.171
# Max RMSD: 0.231
# Mean RMSD: 0.231
data_MOF--net-wnr--node1-HICVOG_clean_sbu_0--edge1-EZIPEK_clean_linker_0
_symmetry_space_group_name_H-M    P1
_symmetry_Int_Tables_number       1
_symmetry_cell_setting            triclinic
loop_
_symmetry_equiv_pos_as_xyz
'x, y, z'
_cell_length_a     32.889541
_cell_length_b     32.926268
_cell_length_c     13.901109
_cell_angle_alpha  90.035451
_cell_angle_beta   89.905274
_cell_angle_gamma 119.73239
loop_
_atom_site_label
_atom_site_type_symbol
_atom_site_fract_x
_atom_site_fract_y
_atom_site_fract_z
_atom_type_partial_charge
Zn0 Zn 0.17852 0.40118 0.97617 0.0
C1 C 0.07673 0.39841 0.14085 0.0
N2 N 0.04877 0.37263 0.06902 0.0
C3 C 0.07911 0.37603 0.00085 0.0
N4 N 0.12413 0.40255 0.0297 0.0
N5 N 0.12268 0.41802 0.11712 0.0
C6 C 0.20258 0.44622 0.36964 0.0
O7 O 0.23871 0.45019 0.32128 0.0
O8 O 0.17312 0.38963 0.83248 0.0
Zn9 Zn 0.17565 0.46911 0.18746 0.0
N10 N 0.18783 0.3542 0.04346 0.0
C11 C 0.1842 0.31711 0.19294 0.0
C12 C 0.1761 0.34784 0.13826 0.0
C13 C 0.20925 0.33211 0.00181 0.0
N14 N 0.20527 0.29496 0.15164 0.0
C15 C 0.2185 0.30182 0.05763 0.0
O16 O 0.24214 0.49302 0.13439 0.0
C17 C 0.26146 0.49073 0.05653 0.0
O18 O 0.23915 0.46062 -0.00813 0.0
H19 H 0.16156 0.36735 0.17188 0.0
H20 H 0.21992 0.33882 0.92715 0.0
C21 C 0.18775 0.56024 0.24593 0.0
C22 C 0.18846 0.60267 0.22644 0.0
C23 C 0.15232 0.57232 0.07582 0.0
C24 C 0.15332 0.53125 0.0937 0.0
N25 N 0.17023 0.52547 0.17847 0.0
N26 N 0.17015 0.6071 0.14206 0.0
H27 H 0.2027 0.55578 0.31168 0.0
C28 C 0.17798 0.42366 0.78093 0.0
O29 O 0.18204 0.46113 0.82353 0.0
O30 O 0.1716 0.45189 0.32722 0.0
H31 H 0.14135 0.50427 0.03996 0.0
H32 H 0.17466 0.31162 0.26827 0.0
H33 H 0.13848 0.577 0.0088 0.0
Zn34 Zn 0.64942 0.78527 0.64812 0.0
C35 C 0.64424 0.68249 0.8153 0.0
N36 N 0.66721 0.67668 0.74223 0.0
C37 C 0.66654 0.7051 0.67446 0.0
N38 N 0.64466 0.7285 0.7052 0.0
N39 N 0.62902 0.71294 0.79334 0.0
C40 C 0.62514 0.7523 0.04023 0.0
O41 O 0.6635 0.77408 0.98884 0.0
O42 O 0.66045 0.78478 0.5068 0.0
Zn43 Zn 0.57616 0.71567 0.85692 0.0
N44 N 0.70034 0.84207 0.7056 0.0
C45 C 0.74883 0.87634 0.84275 0.0
C46 C 0.71473 0.8373 0.7941 0.0
C47 C 0.71804 0.88522 0.66429 0.0
N48 N 0.76661 0.91922 0.80186 0.0
C49 C 0.75197 0.92501 0.71412 0.0
O50 O 0.55449 0.75899 0.79915 0.0
C51 C 0.56046 0.78354 0.72411 0.0
O52 O 0.59262 0.79213 0.66357 0.0
H53 H 0.69892 0.80346 0.82714 0.0
H54 H 0.70531 0.88866 0.59474 0.0
C55 C 0.48475 0.63744 0.90878 0.0
C56 C 0.44277 0.59592 0.88831 0.0
C57 C 0.47385 0.59145 0.73717 0.0
C58 C 0.5147 0.63333 0.75628 0.0
N59 N 0.51995 0.655 0.84217 0.0
N60 N 0.43879 0.5739 0.80314 0.0
H61 H 0.48867 0.65631 0.97504 0.0
C62 C 0.6245 0.76642 0.45333 0.0
O63 O 0.58263 0.74813 0.49208 0.0
O64 O 0.58604 0.72739 -0.00089 0.0
H65 H 0.54174 0.64919 0.70244 0.0
H66 H 0.76056 0.87269 0.91323 0.0
H67 H 0.46952 0.57364 0.66933 0.0
Zn68 Zn 0.33141 0.86877 0.52321 0.0
C69 C 0.33911 0.96826 0.34114 0.0
N70 N 0.36687 0.99757 0.40912 0.0
C71 C 0.36206 0.96909 0.48181 0.0
N72 N 0.33285 0.92345 0.45955 0.0
N73 N 0.31709 0.92313 0.37149 0.0
C74 C 0.27951 0.86443 0.12013 0.0
O75 O 0.29775 0.84069 0.15864 0.0
O76 O 0.32056 0.86732 0.66572 0.0
Zn77 Zn 0.2607 0.87078 0.31504 0.0
N78 N 0.39225 0.87354 0.50533 0.0
C79 C 0.45226 0.88587 0.39371 0.0
C80 C 0.41118 0.8863 0.41605 0.0
C81 C 0.41208 0.85874 0.57296 0.0
N82 N 0.47171 0.87057 0.46027 0.0
C83 C 0.45251 0.85634 0.54918 0.0
O84 O 0.25462 0.80747 0.33145 0.0
C85 C 0.26354 0.78452 0.39296 0.0
O86 O 0.28815 0.80366 0.46752 0.0
H87 H 0.39356 0.89536 0.36193 0.0
H88 H 0.39543 0.84687 0.64241 0.0
C89 C 0.16043 0.83958 0.33126 0.0
C90 C 0.12044 0.83354 0.38145 0.0
C91 C 0.16895 0.87852 0.51046 0.0
C92 C 0.20818 0.88364 0.46145 0.0
N93 N 0.20358 0.8648 0.37264 0.0
N94 N 0.12608 0.85361 0.46955 0.0
H95 H 0.15715 0.82372 0.26139 0.0
C96 C 0.29516 0.88105 0.70733 0.0
O97 O 0.27271 0.8971 0.65633 0.0
O98 O 0.26107 0.88209 0.17377 0.0
H99 H 0.24205 0.90157 0.49446 0.0
H100 H 0.46782 0.89628 0.32301 0.0
H101 H 0.17246 0.89362 0.58119 0.0
Zn102 Zn 0.48081 0.16261 0.79678 0.0
C103 C 0.39049 0.06478 0.98444 0.0
N104 N 0.38909 0.03506 0.91711 0.0
C105 C 0.4143 0.06356 0.84533 0.0
N106 N 0.43151 0.10917 0.86847 0.0
N107 N 0.41526 0.10996 0.95537 0.0
C108 C 0.43525 0.16492 0.20369 0.0
O109 O 0.47393 0.1717 0.16165 0.0
O110 O 0.46219 0.15786 0.65737 0.0
Zn111 Zn 0.41355 0.16414 0.00854 0.0
N112 N 0.53787 0.15835 0.80307 0.0
C113 C 0.58354 0.13408 0.89349 0.0
C114 C 0.54248 0.13585 0.88058 0.0
C115 C 0.57385 0.18091 0.73916 0.0
N116 N 0.61927 0.15636 0.83008 0.0
C117 C 0.61592 0.18019 0.75349 0.0
O118 O 0.47335 0.22475 -0.00506 0.0
C119 C 0.50224 0.24755 0.9285 0.0
O120 O 0.50373 0.2287 0.84944 0.0
H121 H 0.51439 0.11939 0.93213 0.0
H122 H 0.57026 0.20011 0.6797 0.0
C123 C 0.34474 0.19505 0.98046 0.0
C124 C 0.31631 0.20621 0.92301 0.0
C125 C 0.33537 0.17572 0.78654 0.0
C126 C 0.36442 0.16589 0.84292 0.0
N127 N 0.36791 0.17469 0.939 0.0
N128 N 0.31217 0.19575 0.82762 0.0
H129 H 0.34939 0.20364 0.05628 0.0
C130 C 0.45429 0.18755 0.61564 0.0
O131 O 0.45679 0.2229 0.66439 0.0
O132 O 0.40058 0.15793 0.15166 0.0
H133 H 0.38506 0.1525 0.80972 0.0
H134 H 0.58729 0.11575 0.95435 0.0
H135 H 0.33214 0.16848 0.71016 0.0
Zn136 Zn 0.88103 0.2562 0.67211 0.0
C137 C 0.98373 0.35303 0.50798 0.0
N138 N 1.0116 0.35487 0.57984 0.0
C139 C 0.98116 0.32825 0.64796 0.0
N140 N 0.9362 0.31034 0.61902 0.0
N141 N 0.93777 0.32707 0.53152 0.0
C142 C 0.8563 0.27617 0.27695 0.0
O143 O 0.81794 0.24672 0.3229 0.0
O144 O 0.88666 0.24818 0.81476 0.0
Zn145 Zn 0.8846 0.3245 0.46051 0.0
N146 N 0.86836 0.20001 0.60024 0.0
C147 C 0.86396 0.16699 0.44534 0.0
C148 C 0.87504 0.20556 0.50352 0.0
C149 C 0.84938 0.15662 0.64097 0.0
N150 N 0.84529 0.1239 0.48563 0.0
C151 C 0.83723 0.11737 0.58186 0.0
O152 O 0.81795 0.28229 0.5129 0.0
C153 C 0.79917 0.26415 0.5935 0.0
O154 O 0.82193 0.25891 0.6613 0.0
H155 H 0.88798 0.2396 0.47138 0.0
H156 H 0.84292 0.15254 0.71767 0.0
C157 C 0.86716 0.39975 0.40329 0.0
C158 C 0.86921 0.44318 0.41665 0.0
C159 C 0.91769 0.45747 0.55293 0.0
C160 C 0.9146 0.41405 0.54106 0.0
N161 N 0.8902 0.38629 0.46596 0.0
N162 N 0.89487 0.47095 0.49086 0.0
H163 H 0.84663 0.37658 0.34558 0.0
C164 C 0.88449 0.27878 0.86698 0.0
O165 O 0.88365 0.31412 0.82509 0.0
O166 O 0.88903 0.31045 0.32143 0.0
H167 H 0.9314 0.40239 0.59156 0.0
H168 H 0.86941 0.17115 0.3684 0.0
H169 H 0.9375 0.48003 0.61195 0.0
Zn170 Zn 0.72118 0.56492 0.12912 0.0
C171 C 0.71372 0.65546 0.31726 0.0
N172 N 0.68551 0.65719 0.25013 0.0
C173 C 0.68864 0.63174 0.17842 0.0
N174 N 0.71691 0.61418 0.20125 0.0
N175 N 0.73392 0.63031 0.28799 0.0
C176 C 0.76956 0.6101 0.53587 0.0
O177 O 0.7381 0.57126 0.4945 0.0
O178 O 0.73444 0.58324 0.98937 0.0
Zn179 Zn 0.78941 0.63117 0.34035 0.0
N180 N 0.66042 0.50794 0.13787 0.0
C181 C 0.59416 0.46127 0.23679 0.0
C182 C 0.63578 0.5027 0.2199 0.0
C183 C 0.64542 0.47249 0.07228 0.0
N184 N 0.57941 0.42586 0.1723 0.0
C185 C 0.60401 0.42992 0.0907 0.0
O186 O 0.78929 0.57064 0.32751 0.0
C187 C 0.7842 0.54257 0.25995 0.0
O188 O 0.7651 0.54229 0.18006 0.0
H189 H 0.64863 0.53047 0.27218 0.0
H190 H 0.6662 0.47669 0.00871 0.0
C191 C 0.8887 0.69992 0.30914 0.0
C192 C 0.92774 0.72779 0.2501 0.0
C193 C 0.87763 0.70638 0.11455 0.0
C194 C 0.83932 0.67808 0.1726 0.0
N195 N 0.84517 0.67589 0.26888 0.0
N196 N 0.92085 0.73044 0.1544 0.0
H197 H 0.89306 0.6966 0.38536 0.0
C198 C 0.7721 0.59115 0.94783 0.0
O199 O 0.80498 0.58884 -0.00309 0.0
O200 O 0.79669 0.64468 0.48325 0.0
H201 H 0.80525 0.65712 0.1406 0.0
H202 H 0.57412 0.45695 0.30155 0.0
H203 H 0.87318 0.70852 0.03797 0.0
C204 C 0.04978 0.39483 0.85656 0.0
C205 C 0.06245 0.36417 0.90094 0.0
C206 C 1.01422 0.30338 0.78371 0.0
C207 C 0.9977 0.33286 0.74789 0.0
N208 N 0.99026 0.40136 0.76838 0.0
N209 N 0.05371 0.28747 0.91428 0.0
C210 C 1.01236 0.37682 0.79076 0.0
C211 C 0.04373 0.31771 0.86677 0.0
N212 N 0.07386 0.44143 0.87724 0.0
N213 N 1.00225 0.26237 0.73766 0.0
H214 H 0.07711 0.29819 0.97193 0.0
H215 H 0.03749 0.25185 0.89906 0.0
H216 H 0.97885 0.25046 0.67999 0.0
H217 H 1.01682 0.24145 0.75416 0.0
H218 H 0.0685 0.46618 0.84142 0.0
H219 H 0.10307 0.45563 0.92178 0.0
H220 H 0.99716 0.43221 0.80302 0.0
H221 H 0.96112 0.3876 0.72353 0.0
C222 C 0.67191 0.63594 0.47043 0.0
C223 C 0.71044 0.66922 0.41643 0.0
C224 C 0.71854 0.73102 0.52734 0.0
C225 C 0.6768 0.6981 0.57427 0.0
N226 N 0.6076 0.6219 0.57443 0.0
N227 N 0.76734 0.74962 0.3844 0.0
C228 C 0.65158 0.65143 0.54024 0.0
C229 C 0.73284 0.7173 0.44203 0.0
N230 N 0.65454 0.58927 0.45472 0.0
N231 N 0.74527 0.77442 0.56618 0.0
H232 H 0.7801 0.74004 0.32484 0.0
H233 H 0.78159 0.78555 0.39341 0.0
H234 H 0.73486 0.78532 0.62731 0.0
H235 H 0.7785 0.79837 0.54083 0.0
H236 H 0.62914 0.56327 0.49819 0.0
H237 H 0.66939 0.57677 0.40507 0.0
H238 H 0.58563 0.58891 0.54554 0.0
H239 H 0.59132 0.63252 0.62474 0.0
C240 C 0.31397 0.99453 0.19348 0.0
C241 C 0.34662 0.98527 0.24086 0.0
C242 C 0.4094 0.04169 0.1373 0.0
C243 C 0.37641 0.04765 0.08338 0.0
N244 N 0.29622 0.02564 0.05094 0.0
N245 N 0.42272 0.99136 0.24266 0.0
C246 C 0.3282 0.02269 0.10862 0.0
C247 C 0.39346 1.00611 0.20745 0.0
N248 N 0.2703 0.97801 0.23151 0.0
N249 N 0.45621 0.07012 0.1212 0.0
H250 H 0.41183 0.96478 0.29352 0.0
H251 H 0.45583 1.00186 0.21435 0.0
H252 H 0.46906 0.0971 0.07093 0.0
H253 H 0.4821 0.07031 0.1646 0.0
H254 H 0.24647 0.98758 0.20607 0.0
H255 H 0.25898 0.9564 0.29199 0.0
H256 H 0.26018 1.00451 0.05951 0.0
H257 H 0.30618 0.0481 -0.00823 0.0
C258 C 0.17943 0.65622 0.34217 0.0
C259 C 0.20945 0.64369 0.2927 0.0
C260 C 0.27713 0.72102 0.32773 0.0
C261 C 0.24663 0.73429 0.37259 0.0
N262 N 0.17162 0.71296 0.44151 0.0
N263 N 0.28747 0.65977 0.25366 0.0
C264 C 0.19861 0.70118 0.38611 0.0
C265 C 0.25863 0.6746 0.29137 0.0
N266 N 0.1323 0.62551 0.34386 0.0
N267 N 0.32327 0.75374 0.31506 0.0
H268 H 0.27506 0.62683 0.22302 0.0
H269 H 0.3238 0.67855 0.25831 0.0
H270 H 0.33821 0.78744 0.34347 0.0
H271 H 0.34657 0.74862 0.27315 0.0
H272 H 0.10743 0.63388 0.36816 0.0
H273 H 0.11771 0.5914 0.31766 0.0
H274 H 0.13721 0.68972 0.46119 0.0
H275 H 0.18497 0.74565 0.47423 0.0
C276 C 0.32425 0.56745 -0.00761 0.0
C277 C 0.31172 0.52428 0.03786 0.0
C278 C 0.39149 0.53777 0.0126 0.0
C279 C 0.40133 0.57665 0.95338 0.0
N280 N 0.37785 0.62911 0.88506 0.0
N281 N 0.33267 0.46834 0.09603 0.0
C282 C 0.36822 0.59222 0.9442 0.0
C283 C 0.34543 0.50977 0.05059 0.0
N284 N 0.29383 0.58442 -0.00512 0.0
N285 N 0.42636 0.52781 0.03196 0.0
H286 H 0.29991 0.44828 0.12819 0.0
H287 H 0.35363 0.45293 0.09932 0.0
H288 H 0.46025 0.54787 0.00479 0.0
H289 H 0.4231 0.50233 0.0805 0.0
H290 H 0.30223 0.61762 0.97091 0.0
H291 H 0.26128 0.56671 0.02889 0.0
H292 H 0.35325 0.63872 0.8655 0.0
H293 H 0.41014 0.64894 0.85108 0.0
C294 C 0.54287 0.84908 0.70839 0.0
C295 C 0.52731 0.80058 0.70151 0.0
C296 C 0.45528 0.78768 0.62111 0.0
C297 C 0.47406 0.8369 0.61574 0.0
N298 N 0.53445 0.91493 0.65549 0.0
N299 N 0.46924 0.72295 0.65263 0.0
C300 C 0.51728 0.86772 0.66096 0.0
C301 C 0.48315 0.76949 0.66001 0.0
N302 N 0.582 0.87703 0.76121 0.0
N303 N 0.41111 0.75841 0.58751 0.0
H304 H 0.48797 0.70822 0.68275 0.0
H305 H 0.44044 0.69904 0.613 0.0
H306 H 0.39054 0.77039 0.55479 0.0
H307 H 0.39328 0.72237 0.59777 0.0
H308 H 0.5935 0.912 0.77653 0.0
H309 H 0.60117 0.86407 0.79662 0.0
H310 H 0.5681 0.93985 0.67637 0.0
H311 H 0.51529 0.92943 0.62632 0.0
C312 C 0.66888 0.17963 0.62466 0.0
C313 C 0.65765 0.20564 0.6902 0.0
C314 C 0.73474 0.27485 0.66194 0.0
C315 C 0.74854 0.24659 0.61012 0.0
N316 N 0.72966 0.17266 0.53891 0.0
N317 N 0.6792 0.27788 0.77295 0.0
C318 C 0.71557 0.19927 0.58907 0.0
C319 C 0.69009 0.25356 0.70792 0.0
N320 N 0.63471 0.13606 0.59714 0.0
N321 N 0.7646 0.322 0.6672 0.0
H322 H 0.64644 0.26386 0.80582 0.0
H323 H 0.70319 0.31103 0.79819 0.0
H324 H 0.79744 0.3382 0.63409 0.0
H325 H 0.75544 0.34546 0.6965 0.0
H326 H 0.63912 0.11639 0.54381 0.0
H327 H 0.60034 0.12111 0.62235 0.0
H328 H 0.7092 0.13665 0.53011 0.0
H329 H 0.76306 0.18651 0.50901 0.0
C330 C 0.86945 0.497 0.28952 0.0
C331 C 0.84353 0.45972 0.35456 0.0
C332 C 0.77404 0.46776 0.32753 0.0
C333 C 0.80222 0.50982 0.27644 0.0
N334 N 0.87617 0.56488 0.20566 0.0
N335 N 0.77134 0.40932 0.43782 0.0
C336 C 0.84965 0.52417 0.25511 0.0
C337 C 0.79553 0.44436 0.3728 0.0
N338 N 0.91305 0.50627 0.26119 0.0
N339 N 0.72677 0.45048 0.33284 0.0
H340 H 0.78552 0.39068 0.47064 0.0
H341 H 0.73815 0.40031 0.46335 0.0
H342 H 0.71038 0.46715 0.30042 0.0
H343 H 0.70344 0.41785 0.36146 0.0
H344 H 0.93263 0.53041 0.2081 0.0
H345 H 0.92809 0.48669 0.28535 0.0
H346 H 0.91224 0.58032 0.19674 0.0
H347 H 0.86218 0.58453 0.1766 0.0
C348 C 0.52057 0.33094 0.92733 0.0
C349 C 0.5353 0.29792 0.94616 0.0
C350 C 0.60439 0.35777 0.03236 0.0
C351 C 0.58598 0.38866 0.02552 0.0
N352 N 0.52863 0.40691 0.96358 0.0
N353 N 0.59161 0.27885 0.01027 0.0
C354 C 0.545 0.37609 0.97067 0.0
C355 C 0.57789 0.31136 -0.00465 0.0
N356 N 0.48305 0.31874 0.8682 0.0
N357 N 0.64673 0.37269 0.07587 0.0
H358 H 0.57406 0.24544 0.98012 0.0
H359 H 0.61929 0.284 0.05428 0.0
H360 H 0.66618 0.4058 0.10636 0.0
H361 H 0.66432 0.35376 0.07695 0.0
H362 H 0.47209 0.34178 0.84501 0.0
H363 H 0.46454 0.2858 0.83628 0.0
H364 H 0.49626 0.39862 0.93479 0.0
H365 H 0.54726 0.44109 0.98964 0.0
C366 C 1.02155 0.41051 0.37255 0.0
C367 C 1.00305 0.36452 0.40948 0.0
C368 C 0.04317 0.34637 0.28205 0.0
C369 C 0.0575 0.39067 0.23951 0.0
N370 N 0.05186 0.4608 0.23278 0.0
N371 N 0.99289 0.28692 0.39599 0.0
C372 C 0.04432 0.42168 0.28144 0.0
C373 C 1.01278 0.33191 0.36283 0.0
N374 N 1.01916 0.44403 0.42606 0.0
N375 N 0.05911 0.3182 0.24558 0.0
H376 H 0.97192 0.27523 0.45724 0.0
H377 H 0.99398 0.25998 0.35904 0.0
H378 H 0.07997 0.32652 0.18429 0.0
H379 H 0.05496 0.28831 0.27995 0.0
H380 H 0.03604 0.47924 0.40676 0.0
H381 H 1.00389 0.43727 0.49412 0.0
H382 H 0.03887 0.48233 0.25564 0.0
H383 H 0.06759 0.46933 0.16515 0.0
C384 C 0.7107 0.68346 0.03673 0.0
C385 C 0.67833 0.64023 0.07985 0.0
C386 C 0.62196 0.625 0.95047 0.0
C387 C 0.65242 0.67007 0.91235 0.0
N388 N 0.72733 0.74138 0.91328 0.0
N389 N 0.60106 0.57295 0.08775 0.0
C390 C 0.69724 0.69904 0.95404 0.0
C391 C 0.6335 0.61154 0.03905 0.0
N392 N 0.75469 0.70942 0.07478 0.0
N393 N 0.58269 0.59466 0.90074 0.0
H394 H 0.60834 0.56274 0.15342 0.0
H395 H 0.5661 0.55338 0.06736 0.0
H396 H 0.57301 0.60373 0.8364 0.0
H397 H 0.56165 0.55963 0.9193 0.0
H398 H 0.78204 0.73862 0.04222 0.0
H399 H 0.76552 0.70048 0.13761 0.0
H400 H 0.75734 0.76741 0.94618 0.0
H401 H 0.72181 0.75176 0.84631 0.0
C402 C 0.43363 0.02788 0.70523 0.0
C403 C 0.4054 0.04475 0.74667 0.0
C404 C 0.34607 1.00548 0.62167 0.0
C405 C 0.37485 0.98941 0.57889 0.0
N406 N 0.4499 0.99368 0.56606 0.0
N407 N 0.33616 0.05252 0.74336 0.0
C408 C 0.4199 1.00323 0.61639 0.0
C409 C 0.36205 0.03441 0.7043 0.0
N410 N 0.47184 0.03273 0.75382 0.0
N411 N 0.30329 0.99314 0.58253 0.0
H412 H 0.34477 0.07133 0.80734 0.0
H413 H 0.30728 0.05153 0.71069 0.0
H414 H 0.29217 0.97646 0.51648 0.0
H415 H 0.2775 0.99749 0.61634 0.0
H416 H 0.49105 1.0169 0.73262 0.0
H417 H 0.48178 0.04919 0.82047 0.0
H418 H 0.48497 1.00715 0.58418 0.0
H419 H 0.44048 0.97488 0.50181 0.0
C420 C 0.29332 0.30301 0.01198 0.0
C421 C 0.24365 0.27821 0.01834 0.0
C422 C 0.24266 0.20522 0.97559 0.0
C423 C 0.29194 0.23063 0.96218 0.0
N424 N 0.36369 0.30463 0.95334 0.0
N425 N 0.17027 0.20738 -0.00569 0.0
C426 C 0.31718 0.27982 0.97657 0.0
C427 C 0.21811 0.22972 -0.00319 0.0
N428 N 0.31779 0.34836 0.04279 0.0
N429 N 0.21955 0.15746 0.97056 0.0
H430 H 0.15126 0.22424 0.0098 0.0
H431 H 0.14947 0.17334 0.96946 0.0
H432 H 0.23644 0.13849 0.95502 0.0
H433 H 0.18452 0.13637 0.98935 0.0
H434 H 0.35403 0.36677 0.05062 0.0
H435 H 0.30155 0.36673 0.0674 0.0
H436 H 0.38285 0.34101 0.95146 0.0
H437 H 0.38259 0.28889 0.929 0.0
C438 C 0.74646 0.99737 0.67954 0.0
C439 C 0.77226 0.97331 0.67481 0.0
C440 C 0.84211 0.0457 0.623 0.0
C441 C 0.81542 0.06882 0.62057 0.0
N442 N 0.7405 0.06517 0.63196 0.0
N443 N 0.84218 0.97202 0.6284 0.0
C444 C 0.76708 0.04425 0.64494 0.0
C445 C 0.81945 0.99682 0.64266 0.0
N446 N 0.70283 0.97599 0.72019 0.0
N447 N 0.8895 0.07088 0.60922 0.0
H448 H 0.82658 0.93619 0.64179 0.0
H449 H 0.87484 0.98584 0.59555 0.0
H450 H 0.90725 0.10672 0.595 0.0
H451 H 0.91179 0.05734 0.61999 0.0
H452 H 0.68434 0.99328 0.73582 0.0
H453 H 0.68632 0.94157 0.74496 0.0
H454 H 0.70415 0.04748 0.63761 0.0
H455 H 0.75446 0.09963 0.60851 0.0
C456 C 1.00161 0.73039 0.30893 0.0
C457 C 0.97644 0.75411 0.28826 0.0
C458 C 0.04802 0.82967 0.31321 0.0
C459 C 0.07212 0.80592 0.34199 0.0
N460 N 0.07043 0.73373 0.38088 0.0
N461 N 0.97338 0.82567 0.28368 0.0
C462 C 0.04855 0.75624 0.34339 0.0
C463 C 0.99908 0.80362 0.29397 0.0
N464 N 0.98117 0.68336 0.29261 0.0
N465 N 0.07236 0.87716 0.30164 0.0
H466 H 0.93749 0.8077 0.26975 0.0
H467 H 0.98657 0.86113 0.29707 0.0
H468 H 0.10825 0.89728 0.31455 0.0
H469 H 0.0581 0.89619 0.27126 0.0
H470 H 0.99929 0.66492 0.29547 0.0
H471 H 0.9467 0.66315 0.26913 0.0
H472 H 0.05349 0.69789 0.39408 0.0
H473 H 0.10489 0.75132 0.40555 0.0
C474 C 0.1606 0.3959 0.5116 0.0
C475 C 0.1988 0.43749 0.47451 0.0
C476 C 0.22845 0.46278 0.63779 0.0
C477 C 0.18672 0.42495 0.67564 0.0
N478 N 0.11246 0.3552 0.64956 0.0
N479 N 0.2664 0.51348 0.50169 0.0
C480 C 0.15278 0.39109 0.61279 0.0
C481 C 0.23227 0.4716 0.53732 0.0
N482 N 0.1326 0.3606 0.45 0.0
N483 N 0.26519 0.48931 0.69766 0.0
H484 H 0.27037 0.52165 0.42858 0.0
H485 H 0.28832 0.54168 0.54523 0.0
H486 H 0.2644 0.48277 0.77128 0.0
H487 H 0.29815 0.5144 0.67306 0.0
H488 H 0.10666 0.32764 0.47228 0.0
H489 H 0.13791 0.36289 0.37573 0.0
H490 H 0.08386 0.33246 0.60797 0.0
H491 H 0.1068 0.34945 0.72299 0.0
C492 C 0.60986 0.71852 0.30504 0.0
C493 C 0.62905 0.76328 0.34843 0.0
C494 C 0.64536 0.80079 0.19001 0.0
C495 C 0.62729 0.75616 0.14633 0.0
N496 N 0.59717 0.67301 0.15996 0.0
N497 N 0.67141 0.84748 0.33542 0.0
C498 C 0.61078 0.7151 0.20329 0.0
C499 C 0.64915 0.80459 0.29185 0.0
N500 N 0.59047 0.67928 0.36153 0.0
N501 N 0.65584 0.8391 0.1345 0.0
H502 H 0.67229 0.85202 0.40973 0.0
H503 H 0.69177 0.87864 0.29846 0.0
H504 H 0.65242 0.8377 0.05985 0.0
H505 H 0.66402 0.87161 0.16239 0.0
H506 H 0.57073 0.64536 0.33544 0.0
H507 H 0.5925 0.68047 0.43638 0.0
H508 H 0.58958 0.64254 0.19661 0.0
H509 H 0.59598 0.6688 0.08573 0.0
C510 C 0.24613 0.8522 0.8565 0.0
C511 C 0.29095 0.87876 0.81341 0.0
C512 C 0.32803 0.89795 0.97262 0.0
C513 C 0.28306 0.87249 0.01539 0.0
N514 N 0.19883 0.8314 0.00132 0.0
N515 N 0.37412 0.93121 0.82839 0.0
C516 C 0.24193 0.85184 0.95829 0.0
C517 C 0.33183 0.90278 0.87098 0.0
N518 N 0.20804 0.82465 0.80047 0.0
N519 N 0.36711 0.91725 0.02958 0.0
H520 H 0.37866 0.93452 0.75425 0.0
H521 H 0.40443 0.95379 0.86565 0.0
H522 H 0.36564 0.91779 0.10445 0.0
H523 H 0.40115 0.93124 0.00382 0.0
H524 H 0.17545 0.80039 0.82796 0.0
H525 H 0.20973 0.8227 0.72583 0.0
H526 H 0.16779 0.82101 0.96397 0.0
H527 H 0.19399 0.82754 0.07555 0.0
C528 C 0.48037 0.21834 0.44876 0.0
C529 C 0.4462 0.18417 0.5105 0.0
C530 C 0.40179 0.13793 0.37072 0.0
C531 C 0.43549 0.17282 0.309 0.0
N532 N 0.49819 0.25237 0.2894 0.0
N533 N 0.36947 0.11732 0.53214 0.0
C534 C 0.47219 0.21492 0.34814 0.0
C535 C 0.40532 0.14568 0.47195 0.0
N536 N 0.5217 0.25288 0.48551 0.0
N537 N 0.36754 0.09679 0.33316 0.0
H538 H 0.37086 0.12283 0.60624 0.0
H539 H 0.33688 0.09124 0.50836 0.0
H540 H 0.36345 0.09024 0.25962 0.0
H541 H 0.34484 0.06812 0.37473 0.0
H542 H 0.55 0.27538 0.44263 0.0
H543 H 0.52938 0.25664 0.55883 0.0
H544 H 0.52237 0.28539 0.31514 0.0
H545 H 0.49193 0.25196 0.21575 0.0
C546 C 0.82954 0.27572 0.10805 0.0
C547 C 0.86064 0.27135 0.17219 0.0
C548 C 0.90602 0.26748 0.03576 0.0
C549 C 0.87429 0.27094 0.97164 0.0
N550 N 0.79838 0.26367 0.94645 0.0
N551 N 0.92226 0.25326 0.19886 0.0
C552 C 0.83373 0.27058 0.00779 0.0
C553 C 0.89712 0.26434 0.1365 0.0
N554 N 0.79753 0.28724 0.1422 0.0
N555 N 0.94534 0.26863 0.00076 0.0
H556 H 0.91586 0.2498 0.27273 0.0
H557 H 0.94652 0.24352 0.17719 0.0
H558 H 0.95121 0.26771 0.92758 0.0
H559 H 0.97298 0.27262 0.04371 0.0
H560 H 0.77773 0.29616 0.09764 0.0
H561 H 0.79359 0.29202 0.21506 0.0
H562 H 0.76603 0.2585 0.96978 0.0
H563 H 0.79936 0.2579 0.87287 0.0
C564 C 0.77513 0.64357 0.70254 0.0
C565 C 0.77726 0.61016 0.64115 0.0
C566 C 0.77811 0.56542 0.78128 0.0
C567 C 0.77707 0.59928 0.8427 0.0
N568 N 0.78568 0.67571 0.86379 0.0
N569 N 0.79553 0.54807 0.62234 0.0
C570 C 0.77895 0.64 0.80384 0.0
C571 C 0.78326 0.57373 0.68069 0.0
N572 N 0.76772 0.67759 0.66459 0.0
N573 N 0.77194 0.52426 0.81827 0.0
H574 H 0.8016 0.55444 0.54874 0.0
H575 H 0.80477 0.52409 0.64837 0.0
H576 H 0.76771 0.51647 0.89155 0.0
H577 H 0.76697 0.49616 0.77554 0.0
H578 H 0.76085 0.69987 0.70592 0.0
H579 H 0.76581 0.68188 0.59097 0.0
H580 H 0.79182 0.70821 0.83973 0.0
H581 H 0.78957 0.67433 0.93795 0.0
loop_
_geom_bond_atom_site_label_1
_geom_bond_atom_site_label_2
_geom_bond_distance
_geom_bond_site_symmetry_2
_ccdc_geom_bond_type
Zn0 N4 2.020 . S
Zn0 O8 2.019 1_554 S
Zn0 N10 2.119 . S
Zn0 O18 1.975 . S
C1 N2 1.334 . S
C1 N5 1.336 . S
N2 C1 1.334 . S
N2 C3 1.334 . S
C3 N2 1.334 . S
C3 N4 1.336 . S
N4 Zn0 2.020 . S
N4 C3 1.336 . S
N4 N5 1.354 . S
N5 C1 1.336 . S
N5 N4 1.354 . S
N5 Zn9 2.020 . S
C6 O7 1.244 . S
C6 O30 1.257 . S
O7 C6 1.244 . S
O8 Zn0 2.019 1_556 S
O8 C28 1.257 . S
Zn9 N5 2.020 . S
Zn9 O16 1.975 . S
Zn9 N25 2.119 . S
Zn9 O30 2.019 . S
N10 Zn0 2.119 . S
N10 C12 1.334 . S
N10 C13 1.328 1_554 S
C11 C12 1.391 . S
C11 N14 1.329 . S
C11 H32 0.930 . S
C12 N10 1.334 . S
C12 C11 1.391 . S
C12 H19 0.930 . S
C13 N10 1.328 1_556 S
C13 C15 1.392 1_556 S
C13 H20 0.930 . S
N14 C11 1.329 . S
N14 C15 1.331 . S
C15 C13 1.392 1_554 S
C15 N14 1.331 . S
O16 Zn9 1.975 . S
O16 C17 1.252 . S
C17 O16 1.252 . S
C17 O18 1.252 . S
O18 Zn0 1.975 . S
O18 C17 1.252 . S
H19 C12 0.930 . S
H20 C13 0.930 . S
C21 C22 1.392 . S
C21 N25 1.328 . S
C21 H27 0.930 . S
C22 C21 1.392 . S
C22 N26 1.331 . S
C23 C24 1.391 . S
C23 N26 1.329 . S
C23 H33 0.930 . S
C24 C23 1.391 . S
C24 N25 1.334 . S
C24 H31 0.930 . S
N25 Zn9 2.119 . S
N25 C21 1.328 . S
N25 C24 1.334 . S
N26 C22 1.331 . S
N26 C23 1.329 . S
H27 C21 0.930 . S
C28 O8 1.257 . S
C28 O29 1.244 . S
O29 C28 1.244 . S
O30 C6 1.257 . S
O30 Zn9 2.019 . S
H31 C24 0.930 . S
H32 C11 0.930 . S
H33 C23 0.930 . S
Zn34 N38 2.020 . S
Zn34 O42 2.019 . S
Zn34 N44 2.119 . S
Zn34 O52 1.975 . S
C35 N36 1.334 . S
C35 N39 1.336 . S
N36 C35 1.334 . S
N36 C37 1.334 . S
C37 N36 1.334 . S
C37 N38 1.336 . S
N38 Zn34 2.020 . S
N38 C37 1.336 . S
N38 N39 1.354 . S
N39 C35 1.336 . S
N39 N38 1.354 . S
N39 Zn43 2.020 . S
C40 O41 1.244 . S
C40 O64 1.257 . S
O41 C40 1.244 . S
O42 Zn34 2.019 . S
O42 C62 1.257 . S
Zn43 N39 2.020 . S
Zn43 O50 1.975 . S
Zn43 N59 2.119 . S
Zn43 O64 2.019 1_556 S
N44 Zn34 2.119 . S
N44 C46 1.334 . S
N44 C47 1.328 . S
C45 C46 1.391 . S
C45 N48 1.329 . S
C45 H66 0.930 . S
C46 N44 1.334 . S
C46 C45 1.391 . S
C46 H53 0.930 . S
C47 N44 1.328 . S
C47 C49 1.392 . S
C47 H54 0.930 . S
N48 C45 1.329 . S
N48 C49 1.331 . S
C49 C47 1.392 . S
C49 N48 1.331 . S
O50 Zn43 1.975 . S
O50 C51 1.252 . S
C51 O50 1.252 . S
C51 O52 1.252 . S
O52 Zn34 1.975 . S
O52 C51 1.252 . S
H53 C46 0.930 . S
H54 C47 0.930 . S
C55 C56 1.392 . S
C55 N59 1.328 . S
C55 H61 0.930 1_556 S
C56 C55 1.392 . S
C56 N60 1.331 . S
C57 C58 1.391 . S
C57 N60 1.329 . S
C57 H67 0.930 . S
C58 C57 1.391 . S
C58 N59 1.334 . S
C58 H65 0.930 . S
N59 Zn43 2.119 . S
N59 C55 1.328 . S
N59 C58 1.334 . S
N60 C56 1.331 . S
N60 C57 1.329 . S
H61 C55 0.930 1_554 S
C62 O42 1.257 . S
C62 O63 1.244 . S
O63 C62 1.244 . S
O64 C40 1.257 . S
O64 Zn43 2.019 1_554 S
H65 C58 0.930 . S
H66 C45 0.930 . S
H67 C57 0.930 . S
Zn68 N72 2.020 . S
Zn68 O76 2.019 . S
Zn68 N78 2.119 . S
Zn68 O86 1.975 . S
C69 N70 1.334 . S
C69 N73 1.336 . S
N70 C69 1.334 . S
N70 C71 1.334 . S
C71 N70 1.334 . S
C71 N72 1.336 . S
N72 Zn68 2.020 . S
N72 C71 1.336 . S
N72 N73 1.354 . S
N73 C69 1.336 . S
N73 N72 1.354 . S
N73 Zn77 2.020 . S
C74 O75 1.244 . S
C74 O98 1.257 . S
O75 C74 1.244 . S
O76 Zn68 2.019 . S
O76 C96 1.257 . S
Zn77 N73 2.020 . S
Zn77 O84 1.975 . S
Zn77 N93 2.119 . S
Zn77 O98 2.019 . S
N78 Zn68 2.119 . S
N78 C80 1.334 . S
N78 C81 1.328 . S
C79 C80 1.391 . S
C79 N82 1.329 . S
C79 H100 0.930 . S
C80 N78 1.334 . S
C80 C79 1.391 . S
C80 H87 0.930 . S
C81 N78 1.328 . S
C81 C83 1.392 . S
C81 H88 0.930 . S
N82 C79 1.329 . S
N82 C83 1.331 . S
C83 C81 1.392 . S
C83 N82 1.331 . S
O84 Zn77 1.975 . S
O84 C85 1.252 . S
C85 O84 1.252 . S
C85 O86 1.252 . S
O86 Zn68 1.975 . S
O86 C85 1.252 . S
H87 C80 0.930 . S
H88 C81 0.930 . S
C89 C90 1.392 . S
C89 N93 1.328 . S
C89 H95 0.930 . S
C90 C89 1.392 . S
C90 N94 1.331 . S
C91 C92 1.391 . S
C91 N94 1.329 . S
C91 H101 0.930 . S
C92 C91 1.391 . S
C92 N93 1.334 . S
C92 H99 0.930 . S
N93 Zn77 2.119 . S
N93 C89 1.328 . S
N93 C92 1.334 . S
N94 C90 1.331 . S
N94 C91 1.329 . S
H95 C89 0.930 . S
C96 O76 1.257 . S
C96 O97 1.244 . S
O97 C96 1.244 . S
O98 C74 1.257 . S
O98 Zn77 2.019 . S
H99 C92 0.930 . S
H100 C79 0.930 . S
H101 C91 0.930 . S
Zn102 N106 2.020 . S
Zn102 O110 2.019 . S
Zn102 N112 2.119 . S
Zn102 O120 1.975 . S
C103 N104 1.334 . S
C103 N107 1.336 . S
N104 C103 1.334 . S
N104 C105 1.334 . S
C105 N104 1.334 . S
C105 N106 1.336 . S
N106 Zn102 2.020 . S
N106 C105 1.336 . S
N106 N107 1.354 . S
N107 C103 1.336 . S
N107 N106 1.354 . S
N107 Zn111 2.020 . S
C108 O109 1.244 . S
C108 O132 1.257 . S
O109 C108 1.244 . S
O110 Zn102 2.019 . S
O110 C130 1.257 . S
Zn111 N107 2.020 . S
Zn111 O118 1.975 . S
Zn111 N127 2.119 . S
Zn111 O132 2.019 1_556 S
N112 Zn102 2.119 . S
N112 C114 1.334 . S
N112 C115 1.328 . S
C113 C114 1.391 . S
C113 N116 1.329 . S
C113 H134 0.930 . S
C114 N112 1.334 . S
C114 C113 1.391 . S
C114 H121 0.930 . S
C115 N112 1.328 . S
C115 C117 1.392 . S
C115 H122 0.930 . S
N116 C113 1.329 . S
N116 C117 1.331 . S
C117 C115 1.392 . S
C117 N116 1.331 . S
O118 Zn111 1.975 . S
O118 C119 1.252 . S
C119 O118 1.252 . S
C119 O120 1.252 . S
O120 Zn102 1.975 . S
O120 C119 1.252 . S
H121 C114 0.930 . S
H122 C115 0.930 . S
C123 C124 1.392 1_554 S
C123 N127 1.328 1_554 S
C123 H129 0.930 . S
C124 C123 1.392 1_556 S
C124 N128 1.331 . S
C125 C126 1.391 . S
C125 N128 1.329 . S
C125 H135 0.930 . S
C126 C125 1.391 . S
C126 N127 1.334 . S
C126 H133 0.930 . S
N127 Zn111 2.119 . S
N127 C123 1.328 1_556 S
N127 C126 1.334 . S
N128 C124 1.331 . S
N128 C125 1.329 . S
H129 C123 0.930 . S
C130 O110 1.257 . S
C130 O131 1.244 . S
O131 C130 1.244 . S
O132 C108 1.257 . S
O132 Zn111 2.019 1_554 S
H133 C126 0.930 . S
H134 C113 0.930 . S
H135 C125 0.930 . S
Zn136 N140 2.020 . S
Zn136 O144 2.019 . S
Zn136 N146 2.119 . S
Zn136 O154 1.975 . S
C137 N138 1.334 . S
C137 N141 1.336 . S
N138 C137 1.334 . S
N138 C139 1.334 . S
C139 N138 1.334 . S
C139 N140 1.336 . S
N140 Zn136 2.020 . S
N140 C139 1.336 . S
N140 N141 1.354 . S
N141 C137 1.336 . S
N141 N140 1.354 . S
N141 Zn145 2.020 . S
C142 O143 1.244 . S
C142 O166 1.257 . S
O143 C142 1.244 . S
O144 Zn136 2.019 . S
O144 C164 1.257 . S
Zn145 N141 2.020 . S
Zn145 O152 1.975 . S
Zn145 N161 2.119 . S
Zn145 O166 2.019 . S
N146 Zn136 2.119 . S
N146 C148 1.334 . S
N146 C149 1.328 . S
C147 C148 1.391 . S
C147 N150 1.329 . S
C147 H168 0.930 . S
C148 N146 1.334 . S
C148 C147 1.391 . S
C148 H155 0.930 . S
C149 N146 1.328 . S
C149 C151 1.392 . S
C149 H156 0.930 . S
N150 C147 1.329 . S
N150 C151 1.331 . S
C151 C149 1.392 . S
C151 N150 1.331 . S
O152 Zn145 1.975 . S
O152 C153 1.252 . S
C153 O152 1.252 . S
C153 O154 1.252 . S
O154 Zn136 1.975 . S
O154 C153 1.252 . S
H155 C148 0.930 . S
H156 C149 0.930 . S
C157 C158 1.392 . S
C157 N161 1.328 . S
C157 H163 0.930 . S
C158 C157 1.392 . S
C158 N162 1.331 . S
C159 C160 1.391 . S
C159 N162 1.329 . S
C159 H169 0.930 . S
C160 C159 1.391 . S
C160 N161 1.334 . S
C160 H167 0.930 . S
N161 Zn145 2.119 . S
N161 C157 1.328 . S
N161 C160 1.334 . S
N162 C158 1.331 . S
N162 C159 1.329 . S
H163 C157 0.930 . S
C164 O144 1.257 . S
C164 O165 1.244 . S
O165 C164 1.244 . S
O166 C142 1.257 . S
O166 Zn145 2.019 . S
H167 C160 0.930 . S
H168 C147 0.930 . S
H169 C159 0.930 . S
Zn170 N174 2.020 . S
Zn170 O178 2.019 1_554 S
Zn170 N180 2.119 . S
Zn170 O188 1.975 . S
C171 N172 1.334 . S
C171 N175 1.336 . S
N172 C171 1.334 . S
N172 C173 1.334 . S
C173 N172 1.334 . S
C173 N174 1.336 . S
N174 Zn170 2.020 . S
N174 C173 1.336 . S
N174 N175 1.354 . S
N175 C171 1.336 . S
N175 N174 1.354 . S
N175 Zn179 2.020 . S
C176 O177 1.244 . S
C176 O200 1.257 . S
O177 C176 1.244 . S
O178 Zn170 2.019 1_556 S
O178 C198 1.257 . S
Zn179 N175 2.020 . S
Zn179 O186 1.975 . S
Zn179 N195 2.119 . S
Zn179 O200 2.019 . S
N180 Zn170 2.119 . S
N180 C182 1.334 . S
N180 C183 1.328 . S
C181 C182 1.391 . S
C181 N184 1.329 . S
C181 H202 0.930 . S
C182 N180 1.334 . S
C182 C181 1.391 . S
C182 H189 0.930 . S
C183 N180 1.328 . S
C183 C185 1.392 . S
C183 H190 0.930 1_554 S
N184 C181 1.329 . S
N184 C185 1.331 . S
C185 C183 1.392 . S
C185 N184 1.331 . S
O186 Zn179 1.975 . S
O186 C187 1.252 . S
C187 O186 1.252 . S
C187 O188 1.252 . S
O188 Zn170 1.975 . S
O188 C187 1.252 . S
H189 C182 0.930 . S
H190 C183 0.930 1_556 S
C191 C192 1.392 . S
C191 N195 1.328 . S
C191 H197 0.930 . S
C192 C191 1.392 . S
C192 N196 1.331 . S
C193 C194 1.391 . S
C193 N196 1.329 . S
C193 H203 0.930 . S
C194 C193 1.391 . S
C194 N195 1.334 . S
C194 H201 0.930 . S
N195 Zn179 2.119 . S
N195 C191 1.328 . S
N195 C194 1.334 . S
N196 C192 1.331 . S
N196 C193 1.329 . S
H197 C191 0.930 . S
C198 O178 1.257 . S
C198 O199 1.244 . S
O199 C198 1.244 . S
O200 C176 1.257 . S
O200 Zn179 2.019 . S
H201 C194 0.930 . S
H202 C181 0.930 . S
H203 C193 0.930 . S
C204 C205 1.363 . S
C204 C210 1.379 1_455 S
C204 N212 1.356 . S
C205 C204 1.363 . S
C205 C211 1.363 . S
C206 C207 1.363 . S
C206 C211 1.379 1_655 S
C206 N213 1.356 . S
C207 C206 1.363 . S
C207 C210 1.363 . S
N208 C210 1.356 . S
N208 H220 0.984 . S
N208 H221 0.985 . S
N209 C211 1.356 . S
N209 H214 0.984 . S
N209 H215 0.985 . S
C210 C204 1.379 1_655 S
C210 C207 1.363 . S
C210 N208 1.356 . S
C211 C205 1.363 . S
C211 C206 1.379 1_455 S
C211 N209 1.356 . S
N212 C204 1.356 . S
N212 H218 0.984 . S
N212 H219 0.984 . S
N213 C206 1.356 . S
N213 H216 0.984 . S
N213 H217 0.985 . S
H214 N209 0.984 . S
H215 N209 0.985 . S
H216 N213 0.984 . S
H217 N213 0.985 . S
H218 N212 0.984 . S
H219 N212 0.984 . S
H220 N208 0.984 . S
H221 N208 0.985 . S
C222 C223 1.363 . S
C222 C228 1.379 . S
C222 N230 1.356 . S
C223 C222 1.363 . S
C223 C229 1.363 . S
C224 C225 1.363 . S
C224 C229 1.379 . S
C224 N231 1.356 . S
C225 C224 1.363 . S
C225 C228 1.363 . S
N226 C228 1.356 . S
N226 H238 0.984 . S
N226 H239 0.985 . S
N227 C229 1.356 . S
N227 H232 0.984 . S
N227 H233 0.985 . S
C228 C222 1.379 . S
C228 C225 1.363 . S
C228 N226 1.356 . S
C229 C223 1.363 . S
C229 C224 1.379 . S
C229 N227 1.356 . S
N230 C222 1.356 . S
N230 H236 0.984 . S
N230 H237 0.984 . S
N231 C224 1.356 . S
N231 H234 0.984 . S
N231 H235 0.985 . S
H232 N227 0.984 . S
H233 N227 0.985 . S
H234 N231 0.984 . S
H235 N231 0.985 . S
H236 N230 0.984 . S
H237 N230 0.984 . S
H238 N226 0.984 . S
H239 N226 0.985 . S
C240 C241 1.363 1_545 S
C240 C246 1.379 . S
C240 N248 1.356 . S
C241 C240 1.363 1_565 S
C241 C247 1.363 . S
C242 C243 1.363 1_565 S
C242 C247 1.379 . S
C242 N249 1.356 1_554 S
C243 C242 1.363 1_545 S
C243 C246 1.363 . S
N244 C246 1.356 . S
N244 H256 0.984 . S
N244 H257 0.985 . S
N245 C247 1.356 . S
N245 H250 0.984 . S
N245 H251 0.985 . S
C246 C240 1.379 . S
C246 C243 1.363 . S
C246 N244 1.356 . S
C247 C241 1.363 . S
C247 C242 1.379 . S
C247 N245 1.356 . S
N248 C240 1.356 . S
N248 H254 0.984 . S
N248 H255 0.984 1_545 S
N249 C242 1.356 1_556 S
N249 H252 0.984 1_565 S
N249 H253 0.985 . S
H250 N245 0.984 . S
H251 N245 0.985 . S
H252 N249 0.984 1_545 S
H253 N249 0.985 . S
H254 N248 0.984 . S
H255 N248 0.984 1_565 S
H256 N244 0.984 . S
H257 N244 0.985 . S
C258 C259 1.363 . S
C258 C264 1.379 . S
C258 N266 1.356 . S
C259 C258 1.363 . S
C259 C265 1.363 . S
C260 C261 1.363 . S
C260 C265 1.379 . S
C260 N267 1.356 . S
C261 C260 1.363 . S
C261 C264 1.363 . S
N262 C264 1.356 . S
N262 H274 0.984 . S
N262 H275 0.985 . S
N263 C265 1.356 . S
N263 H268 0.984 . S
N263 H269 0.985 . S
C264 C258 1.379 . S
C264 C261 1.363 . S
C264 N262 1.356 . S
C265 C259 1.363 . S
C265 C260 1.379 . S
C265 N263 1.356 . S
N266 C258 1.356 . S
N266 H272 0.984 . S
N266 H273 0.984 . S
N267 C260 1.356 . S
N267 H270 0.984 . S
N267 H271 0.985 . S
H268 N263 0.984 . S
H269 N263 0.985 . S
H270 N267 0.984 . S
H271 N267 0.985 . S
H272 N266 0.984 . S
H273 N266 0.984 . S
H274 N262 0.984 . S
H275 N262 0.985 . S
C276 C277 1.363 . S
C276 C282 1.379 . S
C276 N284 1.356 . S
C277 C276 1.363 . S
C277 C283 1.363 . S
C278 C279 1.363 . S
C278 C283 1.379 . S
C278 N285 1.356 . S
C279 C278 1.363 . S
C279 C282 1.363 . S
N280 C282 1.356 . S
N280 H292 0.984 . S
N280 H293 0.985 . S
N281 C283 1.356 . S
N281 H286 0.984 . S
N281 H287 0.985 . S
C282 C276 1.379 . S
C282 C279 1.363 . S
C282 N280 1.356 . S
C283 C277 1.363 . S
C283 C278 1.379 . S
C283 N281 1.356 . S
N284 C276 1.356 . S
N284 H290 0.984 . S
N284 H291 0.984 . S
N285 C278 1.356 . S
N285 H288 0.984 1_554 S
N285 H289 0.985 1_554 S
H286 N281 0.984 . S
H287 N281 0.985 . S
H288 N285 0.984 1_556 S
H289 N285 0.985 1_556 S
H290 N284 0.984 . S
H291 N284 0.984 . S
H292 N280 0.984 . S
H293 N280 0.985 . S
C294 C295 1.363 . S
C294 C300 1.379 . S
C294 N302 1.356 . S
C295 C294 1.363 . S
C295 C301 1.363 . S
C296 C297 1.363 . S
C296 C301 1.379 . S
C296 N303 1.356 . S
C297 C296 1.363 . S
C297 C300 1.363 . S
N298 C300 1.356 . S
N298 H310 0.984 . S
N298 H311 0.985 . S
N299 C301 1.356 . S
N299 H304 0.984 . S
N299 H305 0.985 . S
C300 C294 1.379 . S
C300 C297 1.363 . S
C300 N298 1.356 . S
C301 C295 1.363 . S
C301 C296 1.379 . S
C301 N299 1.356 . S
N302 C294 1.356 . S
N302 H308 0.984 . S
N302 H309 0.984 . S
N303 C296 1.356 . S
N303 H306 0.984 . S
N303 H307 0.985 . S
H304 N299 0.984 . S
H305 N299 0.985 . S
H306 N303 0.984 . S
H307 N303 0.985 . S
H308 N302 0.984 . S
H309 N302 0.984 . S
H310 N298 0.984 . S
H311 N298 0.985 . S
C312 C313 1.363 . S
C312 C318 1.379 . S
C312 N320 1.356 . S
C313 C312 1.363 . S
C313 C319 1.363 . S
C314 C315 1.363 . S
C314 C319 1.379 . S
C314 N321 1.356 . S
C315 C314 1.363 . S
C315 C318 1.363 . S
N316 C318 1.356 . S
N316 H328 0.984 . S
N316 H329 0.985 . S
N317 C319 1.356 . S
N317 H322 0.984 . S
N317 H323 0.985 . S
C318 C312 1.379 . S
C318 C315 1.363 . S
C318 N316 1.356 . S
C319 C313 1.363 . S
C319 C314 1.379 . S
C319 N317 1.356 . S
N320 C312 1.356 . S
N320 H326 0.984 . S
N320 H327 0.984 . S
N321 C314 1.356 . S
N321 H324 0.984 . S
N321 H325 0.985 . S
H322 N317 0.984 . S
H323 N317 0.985 . S
H324 N321 0.984 . S
H325 N321 0.985 . S
H326 N320 0.984 . S
H327 N320 0.984 . S
H328 N316 0.984 . S
H329 N316 0.985 . S
C330 C331 1.363 . S
C330 C336 1.379 . S
C330 N338 1.356 . S
C331 C330 1.363 . S
C331 C337 1.363 . S
C332 C333 1.363 . S
C332 C337 1.379 . S
C332 N339 1.356 . S
C333 C332 1.363 . S
C333 C336 1.363 . S
N334 C336 1.356 . S
N334 H346 0.984 . S
N334 H347 0.985 . S
N335 C337 1.356 . S
N335 H340 0.984 . S
N335 H341 0.985 . S
C336 C330 1.379 . S
C336 C333 1.363 . S
C336 N334 1.356 . S
C337 C331 1.363 . S
C337 C332 1.379 . S
C337 N335 1.356 . S
N338 C330 1.356 . S
N338 H344 0.984 . S
N338 H345 0.984 . S
N339 C332 1.356 . S
N339 H342 0.984 . S
N339 H343 0.985 . S
H340 N335 0.984 . S
H341 N335 0.985 . S
H342 N339 0.984 . S
H343 N339 0.985 . S
H344 N338 0.984 . S
H345 N338 0.984 . S
H346 N334 0.984 . S
H347 N334 0.985 . S
C348 C349 1.363 . S
C348 C354 1.379 1_556 S
C348 N356 1.356 1_556 S
C349 C348 1.363 . S
C349 C355 1.363 . S
C350 C351 1.363 . S
C350 C355 1.379 . S
C350 N357 1.356 . S
C351 C350 1.363 . S
C351 C354 1.363 1_556 S
N352 C354 1.356 . S
N352 H364 0.984 . S
N352 H365 0.985 . S
N353 C355 1.356 . S
N353 H358 0.984 . S
N353 H359 0.985 . S
C354 C348 1.379 1_554 S
C354 C351 1.363 1_554 S
C354 N352 1.356 . S
C355 C349 1.363 . S
C355 C350 1.379 . S
C355 N353 1.356 . S
N356 C348 1.356 1_554 S
N356 H362 0.984 . S
N356 H363 0.984 1_554 S
N357 C350 1.356 . S
N357 H360 0.984 . S
N357 H361 0.985 . S
H358 N353 0.984 . S
H359 N353 0.985 . S
H360 N357 0.984 . S
H361 N357 0.985 . S
H362 N356 0.984 . S
H363 N356 0.984 1_556 S
H364 N352 0.984 . S
H365 N352 0.985 . S
C366 C367 1.363 . S
C366 C372 1.379 1_655 S
C366 N374 1.356 . S
C367 C366 1.363 . S
C367 C373 1.363 . S
C368 C369 1.363 . S
C368 C373 1.379 1_455 S
C368 N375 1.356 . S
C369 C368 1.363 . S
C369 C372 1.363 . S
N370 C372 1.356 . S
N370 H382 0.984 . S
N370 H383 0.985 . S
N371 C373 1.356 . S
N371 H376 0.984 . S
N371 H377 0.985 . S
C372 C366 1.379 1_455 S
C372 C369 1.363 . S
C372 N370 1.356 . S
C373 C367 1.363 . S
C373 C368 1.379 1_655 S
C373 N371 1.356 . S
N374 C366 1.356 . S
N374 H380 0.984 . S
N374 H381 0.984 . S
N375 C368 1.356 . S
N375 H378 0.984 . S
N375 H379 0.985 . S
H376 N371 0.984 . S
H377 N371 0.985 . S
H378 N375 0.984 . S
H379 N375 0.985 . S
H380 N374 0.984 . S
H381 N374 0.984 . S
H382 N370 0.984 . S
H383 N370 0.985 . S
C384 C385 1.363 1_556 S
C384 C390 1.379 . S
C384 N392 1.356 . S
C385 C384 1.363 1_554 S
C385 C391 1.363 . S
C386 C387 1.363 1_554 S
C386 C391 1.379 . S
C386 N393 1.356 . S
C387 C386 1.363 1_556 S
C387 C390 1.363 . S
N388 C390 1.356 . S
N388 H400 0.984 . S
N388 H401 0.985 . S
N389 C391 1.356 . S
N389 H394 0.984 . S
N389 H395 0.985 . S
C390 C384 1.379 . S
C390 C387 1.363 . S
C390 N388 1.356 . S
C391 C385 1.363 . S
C391 C386 1.379 . S
C391 N389 1.356 . S
N392 C384 1.356 . S
N392 H398 0.984 . S
N392 H399 0.984 1_556 S
N393 C386 1.356 . S
N393 H396 0.984 1_554 S
N393 H397 0.985 . S
H394 N389 0.984 . S
H395 N389 0.985 . S
H396 N393 0.984 1_556 S
H397 N393 0.985 . S
H398 N392 0.984 . S
H399 N392 0.984 1_554 S
H400 N388 0.984 . S
H401 N388 0.985 . S
C402 C403 1.363 . S
C402 C408 1.379 1_545 S
C402 N410 1.356 . S
C403 C402 1.363 . S
C403 C409 1.363 . S
C404 C405 1.363 . S
C404 C409 1.379 1_565 S
C404 N411 1.356 . S
C405 C404 1.363 . S
C405 C408 1.363 . S
N406 C408 1.356 . S
N406 H418 0.984 . S
N406 H419 0.985 . S
N407 C409 1.356 . S
N407 H412 0.984 . S
N407 H413 0.985 . S
C408 C402 1.379 1_565 S
C408 C405 1.363 . S
C408 N406 1.356 . S
C409 C403 1.363 . S
C409 C404 1.379 1_545 S
C409 N407 1.356 . S
N410 C402 1.356 . S
N410 H416 0.984 . S
N410 H417 0.984 . S
N411 C404 1.356 . S
N411 H414 0.984 . S
N411 H415 0.985 . S
H412 N407 0.984 . S
H413 N407 0.985 . S
H414 N411 0.984 . S
H415 N411 0.985 . S
H416 N410 0.984 . S
H417 N410 0.984 . S
H418 N406 0.984 . S
H419 N406 0.985 . S
C420 C421 1.363 1_554 S
C420 C426 1.379 . S
C420 N428 1.356 . S
C421 C420 1.363 1_556 S
C421 C427 1.363 . S
C422 C423 1.363 1_556 S
C422 C427 1.379 . S
C422 N429 1.356 . S
C423 C422 1.363 1_554 S
C423 C426 1.363 . S
N424 C426 1.356 . S
N424 H436 0.984 . S
N424 H437 0.985 . S
N425 C427 1.356 . S
N425 H430 0.984 . S
N425 H431 0.985 . S
C426 C420 1.379 . S
C426 C423 1.363 . S
C426 N424 1.356 . S
C427 C421 1.363 . S
C427 C422 1.379 . S
C427 N425 1.356 . S
N428 C420 1.356 . S
N428 H434 0.984 . S
N428 H435 0.984 . S
N429 C422 1.356 . S
N429 H432 0.984 . S
N429 H433 0.985 . S
H430 N425 0.984 . S
H431 N425 0.985 . S
H432 N429 0.984 . S
H433 N429 0.985 . S
H434 N428 0.984 . S
H435 N428 0.984 . S
H436 N424 0.984 . S
H437 N424 0.985 . S
C438 C439 1.363 . S
C438 C444 1.379 1_565 S
C438 N446 1.356 . S
C439 C438 1.363 . S
C439 C445 1.363 . S
C440 C441 1.363 . S
C440 C445 1.379 1_545 S
C440 N447 1.356 . S
C441 C440 1.363 . S
C441 C444 1.363 . S
N442 C444 1.356 . S
N442 H454 0.984 . S
N442 H455 0.985 . S
N443 C445 1.356 . S
N443 H448 0.984 . S
N443 H449 0.985 . S
C444 C438 1.379 1_545 S
C444 C441 1.363 . S
C444 N442 1.356 . S
C445 C439 1.363 . S
C445 C440 1.379 1_565 S
C445 N443 1.356 . S
N446 C438 1.356 . S
N446 H452 0.984 . S
N446 H453 0.984 . S
N447 C440 1.356 . S
N447 H450 0.984 . S
N447 H451 0.985 . S
H448 N443 0.984 . S
H449 N443 0.985 . S
H450 N447 0.984 . S
H451 N447 0.985 . S
H452 N446 0.984 . S
H453 N446 0.984 . S
H454 N442 0.984 . S
H455 N442 0.985 . S
C456 C457 1.363 . S
C456 C462 1.379 1_655 S
C456 N464 1.356 . S
C457 C456 1.363 . S
C457 C463 1.363 . S
C458 C459 1.363 . S
C458 C463 1.379 1_455 S
C458 N465 1.356 . S
C459 C458 1.363 . S
C459 C462 1.363 . S
N460 C462 1.356 . S
N460 H472 0.984 . S
N460 H473 0.985 . S
N461 C463 1.356 . S
N461 H466 0.984 . S
N461 H467 0.985 . S
C462 C456 1.379 1_455 S
C462 C459 1.363 . S
C462 N460 1.356 . S
C463 C457 1.363 . S
C463 C458 1.379 1_655 S
C463 N461 1.356 . S
N464 C456 1.356 . S
N464 H470 0.984 . S
N464 H471 0.984 . S
N465 C458 1.356 . S
N465 H468 0.984 . S
N465 H469 0.985 . S
H466 N461 0.984 . S
H467 N461 0.985 . S
H468 N465 0.984 . S
H469 N465 0.985 . S
H470 N464 0.984 . S
H471 N464 0.984 . S
H472 N460 0.984 . S
H473 N460 0.985 . S
C474 C475 1.363 . S
C474 C480 1.379 . S
C474 N482 1.356 . S
C475 C474 1.363 . S
C475 C481 1.363 . S
C476 C477 1.363 . S
C476 C481 1.379 . S
C476 N483 1.356 . S
C477 C476 1.363 . S
C477 C480 1.363 . S
N478 C480 1.356 . S
N478 H490 0.984 . S
N478 H491 0.985 . S
N479 C481 1.356 . S
N479 H484 0.984 . S
N479 H485 0.985 . S
C480 C474 1.379 . S
C480 C477 1.363 . S
C480 N478 1.356 . S
C481 C475 1.363 . S
C481 C476 1.379 . S
C481 N479 1.356 . S
N482 C474 1.356 . S
N482 H488 0.984 . S
N482 H489 0.984 . S
N483 C476 1.356 . S
N483 H486 0.984 . S
N483 H487 0.985 . S
H484 N479 0.984 . S
H485 N479 0.985 . S
H486 N483 0.984 . S
H487 N483 0.985 . S
H488 N482 0.984 . S
H489 N482 0.984 . S
H490 N478 0.984 . S
H491 N478 0.985 . S
C492 C493 1.363 . S
C492 C498 1.379 . S
C492 N500 1.356 . S
C493 C492 1.363 . S
C493 C499 1.363 . S
C494 C495 1.363 . S
C494 C499 1.379 . S
C494 N501 1.356 . S
C495 C494 1.363 . S
C495 C498 1.363 . S
N496 C498 1.356 . S
N496 H508 0.984 . S
N496 H509 0.985 . S
N497 C499 1.356 . S
N497 H502 0.984 . S
N497 H503 0.985 . S
C498 C492 1.379 . S
C498 C495 1.363 . S
C498 N496 1.356 . S
C499 C493 1.363 . S
C499 C494 1.379 . S
C499 N497 1.356 . S
N500 C492 1.356 . S
N500 H506 0.984 . S
N500 H507 0.984 . S
N501 C494 1.356 . S
N501 H504 0.984 . S
N501 H505 0.985 . S
H502 N497 0.984 . S
H503 N497 0.985 . S
H504 N501 0.984 . S
H505 N501 0.985 . S
H506 N500 0.984 . S
H507 N500 0.984 . S
H508 N496 0.984 . S
H509 N496 0.985 . S
C510 C511 1.363 . S
C510 C516 1.379 1_556 S
C510 N518 1.356 . S
C511 C510 1.363 . S
C511 C517 1.363 . S
C512 C513 1.363 . S
C512 C517 1.379 1_554 S
C512 N519 1.356 . S
C513 C512 1.363 . S
C513 C516 1.363 . S
N514 C516 1.356 . S
N514 H526 0.984 . S
N514 H527 0.985 . S
N515 C517 1.356 . S
N515 H520 0.984 . S
N515 H521 0.985 . S
C516 C510 1.379 1_554 S
C516 C513 1.363 . S
C516 N514 1.356 . S
C517 C511 1.363 . S
C517 C512 1.379 1_556 S
C517 N515 1.356 . S
N518 C510 1.356 . S
N518 H524 0.984 . S
N518 H525 0.984 . S
N519 C512 1.356 . S
N519 H522 0.984 . S
N519 H523 0.985 . S
H520 N515 0.984 . S
H521 N515 0.985 . S
H522 N519 0.984 . S
H523 N519 0.985 . S
H524 N518 0.984 . S
H525 N518 0.984 . S
H526 N514 0.984 . S
H527 N514 0.985 . S
C528 C529 1.363 . S
C528 C534 1.379 . S
C528 N536 1.356 . S
C529 C528 1.363 . S
C529 C535 1.363 . S
C530 C531 1.363 . S
C530 C535 1.379 . S
C530 N537 1.356 . S
C531 C530 1.363 . S
C531 C534 1.363 . S
N532 C534 1.356 . S
N532 H544 0.984 . S
N532 H545 0.985 . S
N533 C535 1.356 . S
N533 H538 0.984 . S
N533 H539 0.985 . S
C534 C528 1.379 . S
C534 C531 1.363 . S
C534 N532 1.356 . S
C535 C529 1.363 . S
C535 C530 1.379 . S
C535 N533 1.356 . S
N536 C528 1.356 . S
N536 H542 0.984 . S
N536 H543 0.984 . S
N537 C530 1.356 . S
N537 H540 0.984 . S
N537 H541 0.985 . S
H538 N533 0.984 . S
H539 N533 0.985 . S
H540 N537 0.984 . S
H541 N537 0.985 . S
H542 N536 0.984 . S
H543 N536 0.984 . S
H544 N532 0.984 . S
H545 N532 0.985 . S
C546 C547 1.363 . S
C546 C552 1.379 1_554 S
C546 N554 1.356 . S
C547 C546 1.363 . S
C547 C553 1.363 . S
C548 C549 1.363 . S
C548 C553 1.379 1_556 S
C548 N555 1.356 . S
C549 C548 1.363 . S
C549 C552 1.363 . S
N550 C552 1.356 . S
N550 H562 0.984 . S
N550 H563 0.985 . S
N551 C553 1.356 . S
N551 H556 0.984 . S
N551 H557 0.985 . S
C552 C546 1.379 1_556 S
C552 C549 1.363 . S
C552 N550 1.356 . S
C553 C547 1.363 . S
C553 C548 1.379 1_554 S
C553 N551 1.356 . S
N554 C546 1.356 . S
N554 H560 0.984 . S
N554 H561 0.984 . S
N555 C548 1.356 . S
N555 H558 0.984 . S
N555 H559 0.985 . S
H556 N551 0.984 . S
H557 N551 0.985 . S
H558 N555 0.984 . S
H559 N555 0.985 . S
H560 N554 0.984 . S
H561 N554 0.984 . S
H562 N550 0.984 . S
H563 N550 0.985 . S
C564 C565 1.363 . S
C564 C570 1.379 . S
C564 N572 1.356 . S
C565 C564 1.363 . S
C565 C571 1.363 . S
C566 C567 1.363 . S
C566 C571 1.379 . S
C566 N573 1.356 . S
C567 C566 1.363 . S
C567 C570 1.363 . S
N568 C570 1.356 . S
N568 H580 0.984 . S
N568 H581 0.985 . S
N569 C571 1.356 . S
N569 H574 0.984 . S
N569 H575 0.985 . S
C570 C564 1.379 . S
C570 C567 1.363 . S
C570 N568 1.356 . S
C571 C565 1.363 . S
C571 C566 1.379 . S
C571 N569 1.356 . S
N572 C564 1.356 . S
N572 H578 0.984 . S
N572 H579 0.984 . S
N573 C566 1.356 . S
N573 H576 0.984 . S
N573 H577 0.985 . S
H574 N569 0.984 . S
H575 N569 0.985 . S
H576 N573 0.984 . S
H577 N573 0.985 . S
H578 N572 0.984 . S
H579 N572 0.984 . S
H580 N568 0.984 . S
H581 N568 0.985 . S
C205 C3 2.646 1_556 S
C207 C139 2.646 . S
C223 C171 2.646 . S
C225 C37 2.646 . S
C241 C69 2.646 . S
C243 C103 2.646 1_554 S
C259 C22 1.797 . S
C261 C85 1.848 . S
C277 C17 1.848 . S
C279 C56 1.797 1_554 S
C295 C51 1.848 . S
C297 C83 1.797 . S
C313 C117 1.797 . S
C315 C153 1.848 . S
C331 C158 1.797 . S
C333 C187 1.848 . S
C349 C119 1.848 . S
C351 C185 1.797 1_556 S
C367 C137 1.178 . S
C369 C1 1.178 . S
C385 C173 1.178 . S
C387 C35 1.178 . S
C403 C105 1.178 . S
C405 C71 1.178 . S
C421 C15 1.408 1_556 S
C423 C124 1.408 1_554 S
C439 C49 1.408 . S
C441 C151 1.408 . S
C457 C192 1.408 . S
C459 C90 1.408 . S
C475 C6 1.182 . S
C477 C28 1.188 . S
C493 C62 1.188 . S
C495 C40 1.182 . S
C511 C96 1.182 . S
C513 C74 1.188 . S
C529 C130 1.182 . S
C531 C108 1.188 . S
C547 C142 1.182 . S
C549 C164 1.188 . S
C565 C176 1.188 . S
C567 C198 1.182 . S
